# Generated by pormake.
# Topology lcy-a-x, (5)-cn, num edge types: 1
# Building blocks:
#     Node 0, Type 0, BuildingBlock: XOMCOT_clean_sbu_1, # of connection points: 5
#     Node 1, Type 0, BuildingBlock: XOMCOT_clean_sbu_1, # of connection points: 5
#     Node 2, Type 0, BuildingBlock: XOMCOT_clean_sbu_1, # of connection points: 5
#     Node 3, Type 0, BuildingBlock: XOMCOT_clean_sbu_1, # of connection points: 5
#     Node 4, Type 0, BuildingBlock: XOMCOT_clean_sbu_1, # of connection points: 5
#     Node 5, Type 0, BuildingBlock: XOMCOT_clean_sbu_1, # of connection points: 5
#     Node 6, Type 0, BuildingBlock: XOMCOT_clean_sbu_1, # of connection points: 5
#     Node 7, Type 0, BuildingBlock: XOMCOT_clean_sbu_1, # of connection points: 5
#     Node 8, Type 0, BuildingBlock: XOMCOT_clean_sbu_1, # of connection points: 5
#     Node 9, Type 0, BuildingBlock: XOMCOT_clean_sbu_1, # of connection points: 5
#     Node 10, Type 0, BuildingBlock: XOMCOT_clean_sbu_1, # of connection points: 5
#     Node 11, Type 0, BuildingBlock: XOMCOT_clean_sbu_1, # of connection points: 5
#     Node 12, Type 0, BuildingBlock: XOMCOT_clean_sbu_1, # of connection points: 5
#     Node 13, Type 0, BuildingBlock: XOMCOT_clean_sbu_1, # of connection points: 5
#     Node 14, Type 0, BuildingBlock: XOMCOT_clean_sbu_1, # of connection points: 5
#     Node 15, Type 0, BuildingBlock: XOMCOT_clean_sbu_1, # of connection points: 5
#     Node 16, Type 0, BuildingBlock: XOMCOT_clean_sbu_1, # of connection points: 5
#     Node 17, Type 0, BuildingBlock: XOMCOT_clean_sbu_1, # of connection points: 5
#     Node 18, Type 0, BuildingBlock: XOMCOT_clean_sbu_1, # of connection points: 5
#     Node 19, Type 0, BuildingBlock: XOMCOT_clean_sbu_1, # of connection points: 5
#     Node 20, Type 0, BuildingBlock: XOMCOT_clean_sbu_1, # of connection points: 5
#     Node 21, Type 0, BuildingBlock: XOMCOT_clean_sbu_1, # of connection points: 5
#     Node 22, Type 0, BuildingBlock: XOMCOT_clean_sbu_1, # of connection points: 5
#     Node 23, Type 0, BuildingBlock: XOMCOT_clean_sbu_1, # of connection points: 5
#     Edge 24, Type (0, 0), BuildingBlock: OJICUG_clean_linker_0, # of connection points: 2
#     Edge 25, Type (0, 0), BuildingBlock: OJICUG_clean_linker_0, # of connection points: 2
#     Edge 26, Type (0, 0), BuildingBlock: OJICUG_clean_linker_0, # of connection points: 2
#     Edge 27, Type (0, 0), BuildingBlock: OJICUG_clean_linker_0, # of connection points: 2
#     Edge 28, Type (0, 0), BuildingBlock: OJICUG_clean_linker_0, # of connection points: 2
#     Edge 29, Type (0, 0), BuildingBlock: OJICUG_clean_linker_0, # of connection points: 2
#     Edge 30, Type (0, 0), BuildingBlock: OJICUG_clean_linker_0, # of connection points: 2
#     Edge 31, Type (0, 0), BuildingBlock: OJICUG_clean_linker_0, # of connection points: 2
#     Edge 32, Type (0, 0), BuildingBlock: OJICUG_clean_linker_0, # of connection points: 2
#     Edge 33, Type (0, 0), BuildingBlock: OJICUG_clean_linker_0, # of connection points: 2
#     Edge 34, Type (0, 0), BuildingBlock: OJICUG_clean_linker_0, # of connection points: 2
#     Edge 35, Type (0, 0), BuildingBlock: OJICUG_clean_linker_0, # of connection points: 2
#     Edge 36, Type (0, 0), BuildingBlock: OJICUG_clean_linker_0, # of connection points: 2
#     Edge 37, Type (0, 0), BuildingBlock: OJICUG_clean_linker_0, # of connection points: 2
#     Edge 38, Type (0, 0), BuildingBlock: OJICUG_clean_linker_0, # of connection points: 2
#     Edge 39, Type (0, 0), BuildingBlock: OJICUG_clean_linker_0, # of connection points: 2
#     Edge 40, Type (0, 0), BuildingBlock: OJICUG_clean_linker_0, # of connection points: 2
#     Edge 41, Type (0, 0), BuildingBlock: OJICUG_clean_linker_0, # of connection points: 2
#     Edge 42, Type (0, 0), BuildingBlock: OJICUG_clean_linker_0, # of connection points: 2
#     Edge 43, Type (0, 0), BuildingBlock: OJICUG_clean_linker_0, # of connection points: 2
#     Edge 44, Type (0, 0), BuildingBlock: OJICUG_clean_linker_0, # of connection points: 2
#     Edge 45, Type (0, 0), BuildingBlock: OJICUG_clean_linker_0, # of connection points: 2
#     Edge 46, Type (0, 0), BuildingBlock: OJICUG_clean_linker_0, # of connection points: 2
#     Edge 47, Type (0, 0), BuildingBlock: OJICUG_clean_linker_0, # of connection points: 2
#     Edge 48, Type (0, 0), BuildingBlock: OJICUG_clean_linker_0, # of connection points: 2
#     Edge 49, Type (0, 0), BuildingBlock: OJICUG_clean_linker_0, # of connection points: 2
#     Edge 50, Type (0, 0), BuildingBlock: OJICUG_clean_linker_0, # of connection points: 2
#     Edge 51, Type (0, 0), BuildingBlock: OJICUG_clean_linker_0, # of connection points: 2
#     Edge 52, Type (0, 0), BuildingBlock: OJICUG_clean_linker_0, # of connection points: 2
#     Edge 53, Type (0, 0), BuildingBlock: OJICUG_clean_linker_0, # of connection points: 2
#     Edge 54, Type (0, 0), BuildingBlock: OJICUG_clean_linker_0, # of connection points: 2
#     Edge 55, Type (0, 0), BuildingBlock: OJICUG_clean_linker_0, # of connection points: 2
#     Edge 56, Type (0, 0), BuildingBlock: OJICUG_clean_linker_0, # of connection points: 2
#     Edge 57, Type (0, 0), BuildingBlock: OJICUG_clean_linker_0, # of connection points: 2
#     Edge 58, Type (0, 0), BuildingBlock: OJICUG_clean_linker_0, # of connection points: 2
#     Edge 59, Type (0, 0), BuildingBlock: OJICUG_clean_linker_0, # of connection points: 2
#     Edge 60, Type (0, 0), BuildingBlock: OJICUG_clean_linker_0, # of connection points: 2
#     Edge 61, Type (0, 0), BuildingBlock: OJICUG_clean_linker_0, # of connection points: 2
#     Edge 62, Type (0, 0), BuildingBlock: OJICUG_clean_linker_0, # of connection points: 2
#     Edge 63, Type (0, 0), BuildingBlock: OJICUG_clean_linker_0, # of connection points: 2
#     Edge 64, Type (0, 0), BuildingBlock: OJICUG_clean_linker_0, # of connection points: 2
#     Edge 65, Type (0, 0), BuildingBlock: OJICUG_clean_linker_0, # of connection points: 2
#     Edge 66, Type (0, 0), BuildingBlock: OJICUG_clean_linker_0, # of connection points: 2
#     Edge 67, Type (0, 0), BuildingBlock: OJICUG_clean_linker_0, # of connection points: 2
#     Edge 68, Type (0, 0), BuildingBlock: OJICUG_clean_linker_0, # of connection points: 2
#     Edge 69, Type (0, 0), BuildingBlock: OJICUG_clean_linker_0, # of connection points: 2
#     Edge 70, Type (0, 0), BuildingBlock: OJICUG_clean_linker_0, # of connection points: 2
#     Edge 71, Type (0, 0), BuildingBlock: OJICUG_clean_linker_0, # of connection points: 2
#     Edge 72, Type (0, 0), BuildingBlock: OJICUG_clean_linker_0, # of connection points: 2
#     Edge 73, Type (0, 0), BuildingBlock: OJICUG_clean_linker_0, # of connection points: 2
#     Edge 74, Type (0, 0), BuildingBlock: OJICUG_clean_linker_0, # of connection points: 2
#     Edge 75, Type (0, 0), BuildingBlock: OJICUG_clean_linker_0, # of connection points: 2
#     Edge 76, Type (0, 0), BuildingBlock: OJICUG_clean_linker_0, # of connection points: 2
#     Edge 77, Type (0, 0), BuildingBlock: OJICUG_clean_linker_0, # of connection points: 2
#     Edge 78, Type (0, 0), BuildingBlock: OJICUG_clean_linker_0, # of connection points: 2
#     Edge 79, Type (0, 0), BuildingBlock: OJICUG_clean_linker_0, # of connection points: 2
#     Edge 80, Type (0, 0), BuildingBlock: OJICUG_clean_linker_0, # of connection points: 2
#     Edge 81, Type (0, 0), BuildingBlock: OJICUG_clean_linker_0, # of connection points: 2
#     Edge 82, Type (0, 0), BuildingBlock: OJICUG_clean_linker_0, # of connection points: 2
#     Edge 83, Type (0, 0), BuildingBlock: OJICUG_clean_linker_0, # of connection points: 2
# Relax obj value: 0.895
# Max RMSD: 0.229
# Mean RMSD: 0.229
data_MOF--net-lcy-a-x--node1-XOMCOT_clean_sbu_1--edge1-OJICUG_clean_linker_0
_symmetry_space_group_name_H-M    P1
_symmetry_Int_Tables_number       1
_symmetry_cell_setting            triclinic
loop_
_symmetry_equiv_pos_as_xyz
'x, y, z'
_cell_length_a     44.616209
_cell_length_b     44.614031
_cell_length_c     44.624966
_cell_angle_alpha  90.021106
_cell_angle_beta   90.049891
_cell_angle_gamma 90.067722
loop_
_atom_site_label
_atom_site_type_symbol
_atom_site_fract_x
_atom_site_fract_y
_atom_site_fract_z
_atom_type_partial_charge
C0 C 0.0326 0.13472 0.80969 0.0
C1 C 0.01391 0.12954 0.83385 0.0
N2 N 0.98569 0.13551 0.82508 0.0
N3 N 0.0159 0.1434 0.78595 0.0
C4 C 0.98752 0.14362 0.79614 0.0
H5 H 0.05675 0.13274 0.80963 0.0
Co6 Co 0.02661 0.15503 0.74742 0.0
C7 C 0.99467 0.1126 0.70778 0.0
O8 O 0.01895 0.1104 0.69127 0.0
N9 N 0.03621 0.16766 0.7082 0.0
C10 C 0.05453 0.17889 0.66306 0.0
C11 C 0.0614 0.16831 0.69131 0.0
C12 C 0.01474 0.17857 0.6898 0.0
N13 N 0.02512 0.18543 0.66241 0.0
O14 O -0.00064 0.18781 0.75031 0.0
H15 H 0.08336 0.16113 0.69834 0.0
H16 H 0.99131 0.18001 0.69591 0.0
O17 O 0.99466 0.1295 0.73098 0.0
C18 C 0.01076 0.21093 0.7624 0.0
O19 O 0.03876 0.20972 0.7715 0.0
N20 N 0.05486 0.12388 0.74644 0.0
C21 C 0.0997 0.08118 0.75248 0.0
C22 C 0.06962 0.07252 0.7514 0.0
C23 C 0.04744 0.09429 0.7492 0.0
C24 C 0.08404 0.13271 0.74927 0.0
C25 C 0.10703 0.11161 0.75184 0.0
H26 H 0.02438 0.08727 0.75111 0.0
H27 H 0.0894 0.15634 0.75017 0.0
H28 H 0.96841 0.15008 0.78265 0.0
H29 H 0.02055 0.12304 0.85626 0.0
H30 H 0.06986 0.18134 0.64443 0.0
H31 H 0.0633 0.04913 0.75326 0.0
H32 H 0.13011 0.11893 0.75379 0.0
C33 C 0.40287 0.73833 0.95308 0.0
C34 C 0.40396 0.70758 0.95676 0.0
N35 N 0.3845 0.69501 0.9373 0.0
N36 N 0.38283 0.74487 0.93141 0.0
C37 C 0.37193 0.71816 0.92257 0.0
H38 H 0.41568 0.75478 0.96548 0.0
Co39 Co 0.36983 0.78129 0.91603 0.0
C40 C 0.37333 0.773 0.85062 0.0
O41 O 0.38607 0.79945 0.84803 0.0
N42 N 0.35526 0.81779 0.89991 0.0
C43 C 0.34552 0.86355 0.88215 0.0
C44 C 0.36594 0.84614 0.89749 0.0
C45 C 0.32837 0.81889 0.88594 0.0
N46 N 0.32186 0.84624 0.87516 0.0
O47 O 0.32977 0.77033 0.92627 0.0
H48 H 0.38731 0.85405 0.90554 0.0
H49 H 0.31417 0.79951 0.88251 0.0
O50 O 0.36601 0.76314 0.87649 0.0
C51 C 0.32485 0.77984 0.95269 0.0
O52 O 0.34657 0.79414 0.9666 0.0
N53 N 0.40967 0.79221 0.90984 0.0
C54 C 0.47034 0.80234 0.92043 0.0
C55 C 0.46124 0.78174 0.89845 0.0
C56 C 0.43059 0.77662 0.89377 0.0
C57 C 0.41834 0.81245 0.93092 0.0
C58 C 0.44839 0.81861 0.93585 0.0
H59 H 0.42393 0.75841 0.87926 0.0
H60 H 0.40173 0.82264 0.94531 0.0
H61 H 0.35415 0.7159 0.90623 0.0
H62 H 0.41791 0.69552 0.97251 0.0
H63 H 0.34791 0.88703 0.8765 0.0
H64 H 0.47752 0.76811 0.88671 0.0
H65 H 0.45438 0.83471 0.95303 0.0
C66 C 0.53415 0.93729 0.30263 0.0
C67 C 0.55204 0.94252 0.32744 0.0
N68 N 0.58038 0.93559 0.31997 0.0
N69 N 0.5515 0.92757 0.2798 0.0
C70 C 0.57944 0.92685 0.29117 0.0
H71 H 0.51008 0.93992 0.30153 0.0
Co72 Co 0.54232 0.91521 0.24105 0.0
C73 C 0.57692 0.95626 0.20218 0.0
O74 O 0.55353 0.95862 0.18441 0.0
N75 N 0.5344 0.9019 0.20159 0.0
C76 C 0.51924 0.89295 0.15475 0.0
C77 C 0.51077 0.90351 0.18258 0.0
C78 C 0.55643 0.88955 0.18487 0.0
N79 N 0.54794 0.88399 0.15655 0.0
O80 O 0.56868 0.88206 0.24601 0.0
H81 H 0.48917 0.91305 0.18764 0.0
H82 H 0.57929 0.8869 0.19256 0.0
O83 O 0.57543 0.93986 0.22568 0.0
C84 C 0.55575 0.85945 0.25747 0.0
O85 O 0.52732 0.86174 0.26483 0.0
N86 N 0.51457 0.94658 0.23807 0.0
C87 C 0.46939 0.98916 0.2417 0.0
C88 C 0.49946 -0.00203 0.24116 0.0
C89 C 0.52182 0.97627 0.24018 0.0
C90 C 0.48537 0.93768 0.24011 0.0
C91 C 0.46223 0.9587 0.24157 0.0
H92 H 0.5448 0.98342 0.24255 0.0
H93 H 0.48008 0.91403 0.24112 0.0
H94 H 0.59888 0.91951 0.27866 0.0
H95 H 0.54471 0.94968 0.34943 0.0
H96 H 0.5058 0.89294 0.13455 0.0
H97 H 0.5056 0.02144 0.24265 0.0
H98 H 0.43915 0.95128 0.24304 0.0
C99 C 0.16681 0.32057 0.45483 0.0
C100 C 0.165 0.35043 0.46266 0.0
N101 N 0.17564 0.36679 0.43966 0.0
N102 N 0.17894 0.31833 0.42726 0.0
C103 C 0.18399 0.34686 0.41861 0.0
H104 H 0.16117 0.30165 0.4689 0.0
Co105 Co 0.19156 0.28336 0.40873 0.0
C106 C 0.1906 0.29647 0.34429 0.0
O107 O 0.17736 0.27053 0.33977 0.0
N108 N 0.20575 0.24795 0.39007 0.0
C109 C 0.21517 0.20305 0.37013 0.0
C110 C 0.19474 0.21993 0.38604 0.0
C111 C 0.23289 0.24718 0.37659 0.0
N112 N 0.2392 0.22033 0.36445 0.0
O113 O 0.23151 0.2923 0.42118 0.0
H114 H 0.17327 0.21187 0.3936 0.0
H115 H 0.24752 0.26645 0.37475 0.0
O116 O 0.19744 0.30463 0.37092 0.0
C117 C 0.23656 0.27947 0.44614 0.0
O118 O 0.21512 0.26304 0.45793 0.0
N119 N 0.15148 0.27453 0.39998 0.0
C120 C 0.08966 0.26632 0.40403 0.0
C121 C 0.10159 0.28879 0.3856 0.0
C122 C 0.13262 0.29287 0.38424 0.0
C123 C 0.14012 0.25288 0.41821 0.0
C124 C 0.10939 0.24782 0.41996 0.0
H125 H 0.14112 0.31221 0.37246 0.0
H126 H 0.15496 0.24066 0.43297 0.0
H127 H 0.19563 0.353 0.39825 0.0
H128 H 0.15763 0.35938 0.48397 0.0
H129 H 0.2126 0.17987 0.36339 0.0
H130 H 0.08703 0.30419 0.37377 0.0
H131 H 0.10111 0.23118 0.43558 0.0
C132 C 0.52732 0.42962 0.25667 0.0
C133 C 0.50804 0.43784 0.23384 0.0
N134 N 0.47985 0.4375 0.24471 0.0
N135 N 0.51118 0.4242 0.28162 0.0
C136 C 0.48252 0.42891 0.27353 0.0
H137 H 0.55142 0.42758 0.25515 0.0
Co138 Co 0.52273 0.41165 0.31947 0.0
C139 C 0.49107 0.45266 0.3609 0.0
O140 O 0.51561 0.4551 0.37703 0.0
N141 N 0.53318 0.3982 0.35822 0.0
C142 C 0.55152 0.38831 0.40369 0.0
C143 C 0.55821 0.39889 0.37538 0.0
C144 C 0.51206 0.38644 0.37648 0.0
N145 N 0.52243 0.38043 0.40408 0.0
O146 O 0.49582 0.37864 0.31592 0.0
H147 H 0.57977 0.40747 0.36864 0.0
H148 H 0.48869 0.38423 0.37031 0.0
O149 O 0.49094 0.43623 0.33739 0.0
C150 C 0.5083 0.35577 0.30449 0.0
O151 O 0.53663 0.35775 0.29666 0.0
N152 N 0.5506 0.44312 0.32072 0.0
C153 C 0.59465 0.48667 0.31429 0.0
C154 C 0.56448 0.4948 0.31632 0.0
C155 C 0.54268 0.47262 0.31864 0.0
C156 C 0.57981 0.43483 0.31708 0.0
C157 C 0.60242 0.45636 0.31421 0.0
H158 H 0.51949 0.47928 0.31738 0.0
H159 H 0.58548 0.41129 0.3158 0.0
H160 H 0.46379 0.42503 0.2884 0.0
H161 H 0.51431 0.44356 0.21113 0.0
H162 H 0.56664 0.38714 0.42264 0.0
H163 H 0.55778 0.5181 0.315 0.0
H164 H 0.62553 0.44946 0.31154 0.0
C165 C 0.66478 0.23628 0.61098 0.0
C166 C 0.66336 0.20612 0.60429 0.0
N167 N 0.67518 0.19089 0.62749 0.0
N168 N 0.67785 0.23981 0.63801 0.0
C169 C 0.68383 0.21175 0.64751 0.0
H170 H 0.65838 0.25453 0.59637 0.0
Co171 Co 0.69102 0.27555 0.65459 0.0
C172 C 0.69062 0.26555 0.71978 0.0
O173 O 0.67804 0.29193 0.72344 0.0
N174 N 0.70568 0.31176 0.67121 0.0
C175 C 0.71564 0.35788 0.68783 0.0
C176 C 0.69498 0.34008 0.67326 0.0
C177 C 0.73288 0.31324 0.68453 0.0
N178 N 0.73953 0.34086 0.69466 0.0
O179 O 0.73083 0.26557 0.64259 0.0
H180 H 0.67362 0.3478 0.66506 0.0
H181 H 0.74738 0.29405 0.68757 0.0
O182 O 0.69678 0.25618 0.6934 0.0
C183 C 0.73532 0.27621 0.61652 0.0
O184 O 0.71351 0.29128 0.60368 0.0
N185 N 0.65119 0.28538 0.66286 0.0
C186 C 0.58974 0.29613 0.65921 0.0
C187 C 0.601 0.2746 0.67916 0.0
C188 C 0.63187 0.26916 0.68028 0.0
C189 C 0.64043 0.30575 0.64291 0.0
C190 C 0.60999 0.31204 0.64123 0.0
H191 H 0.63978 0.25057 0.69357 0.0
H192 H 0.65557 0.31615 0.62709 0.0
H193 H 0.69651 0.20666 0.66755 0.0
H194 H 0.6556 0.19623 0.58353 0.0
H195 H 0.71338 0.38153 0.69279 0.0
H196 H 0.58601 0.26109 0.69265 0.0
H197 H 0.60225 0.32773 0.6244 0.0
C198 C 0.03792 0.6397 0.75108 0.0
C199 C 0.05805 0.63258 0.72861 0.0
N200 N 0.08589 0.63297 0.74042 0.0
N201 N 0.0532 0.64449 0.77673 0.0
C202 C 0.08217 0.64061 0.76937 0.0
H203 H 0.01381 0.64107 0.74892 0.0
Co204 Co 0.04078 0.65422 0.81517 0.0
C205 C 0.07152 0.60982 0.85361 0.0
O206 O 0.04667 0.60609 0.86896 0.0
N207 N 0.02966 0.66476 0.85473 0.0
C208 C 0.01058 0.67243 0.90035 0.0
C209 C 0.00431 0.66344 0.87139 0.0
C210 C 0.05058 0.67516 0.87408 0.0
N211 N 0.03973 0.6799 0.90174 0.0
O212 O 0.06759 0.68747 0.81459 0.0
H213 H 0.9827 0.65577 0.86379 0.0
H214 H 0.07404 0.67762 0.86846 0.0
O215 O 0.07217 0.62833 0.83174 0.0
C216 C 0.05476 0.71103 0.80509 0.0
O217 O 0.0264 0.70932 0.79725 0.0
N218 N 0.01297 0.62273 0.81351 0.0
C219 C 0.96899 0.57965 0.80431 0.0
C220 C -0.00075 0.57161 0.8044 0.0
C221 C 0.021 0.59361 0.80843 0.0
C222 C 0.98366 0.63112 0.8112 0.0
C223 C 0.96106 0.60974 0.80741 0.0
H224 H 0.04424 0.5873 0.80633 0.0
H225 H 0.97784 0.65464 0.81199 0.0
H226 H 0.10035 0.64405 0.78504 0.0
H227 H 0.05258 0.62728 0.70558 0.0
H228 H 0.99505 0.67306 0.91896 0.0
H229 H 0.00599 0.54854 0.80089 0.0
H230 H 0.93782 0.61665 0.80637 0.0
C231 C 0.91647 0.82133 0.12685 0.0
C232 C 0.91769 0.85161 0.12036 0.0
N233 N 0.89308 0.86447 0.13201 0.0
N234 N 0.89141 0.81558 0.14288 0.0
C235 C 0.87771 0.84233 0.14548 0.0
H236 H 0.93264 0.80465 0.12001 0.0
Co237 Co 0.87585 0.77997 0.15826 0.0
C238 C 0.87269 0.79058 0.22321 0.0
O239 O 0.88394 0.76375 0.22772 0.0
N240 N 0.85874 0.74445 0.17396 0.0
C241 C 0.84617 0.69922 0.19126 0.0
C242 C 0.86808 0.71573 0.17702 0.0
C243 C 0.83101 0.74445 0.18621 0.0
N244 N 0.82286 0.71744 0.19683 0.0
O245 O 0.83717 0.79124 0.1437 0.0
H246 H 0.88944 0.70692 0.17006 0.0
H247 H 0.81738 0.76437 0.18847 0.0
O248 O 0.86849 0.80003 0.19647 0.0
C249 C 0.83396 0.78215 0.11686 0.0
O250 O 0.85619 0.76739 0.10441 0.0
N251 N 0.91462 0.76844 0.16922 0.0
C252 C 0.97584 0.75625 0.16753 0.0
C253 C 0.96447 0.77784 0.18735 0.0
C254 C 0.93371 0.78393 0.18759 0.0
C255 C 0.92545 0.7475 0.14991 0.0
C256 C 0.95575 0.74049 0.14921 0.0
H257 H 0.92586 0.80277 0.20056 0.0
H258 H 0.91064 0.7376 0.13343 0.0
H259 H 0.8565 0.84553 0.15683 0.0
H260 H 0.93464 0.86306 0.10732 0.0
H261 H 0.84733 0.67571 0.19711 0.0
H262 H 0.9794 0.79118 0.20111 0.0
H263 H 0.96361 0.72471 0.13253 0.0
C264 C 0.83399 0.0292 0.14487 0.0
C265 C 0.85665 0.00899 0.13851 0.0
N266 N 0.84442 0.98138 0.13679 0.0
N267 N 0.80784 0.01417 0.14712 0.0
C268 C 0.81506 0.98528 0.14249 0.0
H269 H 0.83639 0.05318 0.14757 0.0
Co270 Co 0.76895 0.02652 0.15514 0.0
C271 C 0.73321 -0.00164 0.10697 0.0
O272 O 0.71791 0.02337 0.10416 0.0
N273 N 0.72881 0.03743 0.16405 0.0
C274 C 0.68346 0.05694 0.17224 0.0
C275 C 0.71274 0.06318 0.16452 0.0
C276 C 0.70868 0.01619 0.17217 0.0
N277 N 0.68116 0.02732 0.17718 0.0
O278 O 0.76758 -0.00153 0.18737 0.0
H279 H 0.72101 0.08528 0.15947 0.0
H280 H 0.71385 0.99251 0.17329 0.0
O281 O 0.75377 0.99639 0.12688 0.0
C282 C 0.77658 0.01037 0.21164 0.0
O283 O 0.78507 0.0386 0.21107 0.0
N284 N 0.77242 0.05543 0.12466 0.0
C285 C 0.77924 0.10015 0.08196 0.0
C286 C 0.78259 0.07003 0.07401 0.0
C287 C 0.77961 0.04798 0.09584 0.0
C288 C 0.77264 0.08477 0.13327 0.0
C289 C 0.77479 0.10768 0.11202 0.0
H290 H 0.78346 0.02494 0.08952 0.0
H291 H 0.77093 0.09043 0.15677 0.0
H292 H 0.79899 0.96719 0.14411 0.0
H293 H 0.88011 0.01422 0.13524 0.0
H294 H 0.66532 0.07292 0.17417 0.0
H295 H 0.7871 0.0636 0.05103 0.0
H296 H 0.77328 0.1309 0.11895 0.0
C297 C 0.32489 0.44814 0.16204 0.0
C298 C 0.35495 0.4555 0.16378 0.0
N299 N 0.36618 0.44253 0.18856 0.0
N300 N 0.31769 0.43027 0.18541 0.0
C301 C 0.34333 0.42739 0.20106 0.0
H302 H 0.30929 0.45572 0.14512 0.0
Co303 Co 0.28135 0.41357 0.19724 0.0
C304 C 0.29244 0.34871 0.19797 0.0
O305 O 0.26646 0.34456 0.18469 0.0
N306 N 0.2449 0.39662 0.21065 0.0
C307 C 0.19913 0.37832 0.21924 0.0
C308 C 0.21685 0.39397 0.19931 0.0
C309 C 0.24327 0.38277 0.23755 0.0
N310 N 0.21593 0.37153 0.24331 0.0
O311 O 0.28953 0.42587 0.23742 0.0
H312 H 0.20934 0.40221 0.1779 0.0
H313 H 0.26232 0.37978 0.25227 0.0
O314 O 0.30132 0.37527 0.20418 0.0
C315 C 0.28115 0.45263 0.24232 0.0
O316 O 0.26866 0.46764 0.22026 0.0
N317 N 0.27314 0.4043 0.15713 0.0
C318 C 0.26569 0.40637 0.09518 0.0
C319 C 0.28714 0.38736 0.108 0.0
C320 C 0.29085 0.38698 0.13908 0.0
C321 C 0.25245 0.42304 0.14489 0.0
C322 C 0.24779 0.42388 0.11409 0.0
H323 H 0.30957 0.37468 0.14818 0.0
H324 H 0.24079 0.43888 0.15905 0.0
H325 H 0.34518 0.41467 0.22165 0.0
H326 H 0.36728 0.47002 0.14876 0.0
H327 H 0.1758 0.37235 0.21623 0.0
H328 H 0.3021 0.37431 0.09405 0.0
H329 H 0.23201 0.43997 0.10507 0.0
C330 C 0.74156 0.03286 0.65837 0.0
C331 C 0.71652 0.05021 0.65308 0.0
N332 N 0.72551 0.07567 0.63963 0.0
N333 N 0.76605 0.0477 0.6487 0.0
C334 C 0.75552 0.07365 0.63734 0.0
H335 H 0.74212 0.01165 0.67008 0.0
Co336 Co 0.8055 0.03731 0.65625 0.0
C337 C 0.84118 0.06706 0.60955 0.0
O338 O 0.85571 0.0417 0.60588 0.0
N339 N 0.84597 0.02771 0.66518 0.0
C340 C 0.89189 0.00946 0.67303 0.0
C341 C 0.8629 0.00253 0.66475 0.0
C342 C 0.86527 0.0493 0.67433 0.0
N343 N 0.89313 0.03892 0.67917 0.0
O344 O 0.80549 0.06472 0.68898 0.0
H345 H 0.85542 0.98042 0.65861 0.0
H346 H 0.85927 0.07271 0.67629 0.0
O347 O 0.82014 0.06877 0.629 0.0
C348 C 0.79845 0.05176 0.71333 0.0
O349 O 0.79302 0.02279 0.71272 0.0
N350 N 0.80304 0.00899 0.62515 0.0
C351 C 0.79413 0.96501 0.58192 0.0
C352 C 0.79113 0.9953 0.57457 0.0
C353 C 0.79517 0.01697 0.59664 0.0
C354 C 0.80312 0.97948 0.63319 0.0
C355 C 0.79987 0.95695 0.61163 0.0
H356 H 0.7913 0.04012 0.59082 0.0
H357 H 0.80547 0.97339 0.65652 0.0
H358 H 0.76962 0.09182 0.62965 0.0
H359 H 0.69375 0.04518 0.65977 0.0
H360 H 0.91055 0.99404 0.67447 0.0
H361 H 0.78575 0.00216 0.5519 0.0
H362 H 0.8012 0.93361 0.61815 0.0
C363 C 0.24347 0.62286 0.663 0.0
C364 C 0.2135 0.61503 0.66399 0.0
N365 N 0.20152 0.62779 0.6885 0.0
N366 N 0.24984 0.64091 0.6865 0.0
C367 C 0.22385 0.64325 0.70162 0.0
H368 H 0.2595 0.61577 0.64628 0.0
Co369 Co 0.28544 0.65919 0.69846 0.0
C370 C 0.27142 0.72337 0.69999 0.0
O371 O 0.29682 0.72851 0.686 0.0
N372 N 0.32115 0.67779 0.71203 0.0
C373 C 0.3658 0.69878 0.72061 0.0
C374 C 0.34868 0.68288 0.7003 0.0
C375 C 0.32245 0.69065 0.73945 0.0
N376 N 0.34914 0.7034 0.74526 0.0
O377 O 0.27813 0.6455 0.73832 0.0
H378 H 0.35617 0.67624 0.67833 0.0
H379 H 0.30357 0.69178 0.75462 0.0
O380 O 0.26374 0.69646 0.70629 0.0
C381 C 0.28911 0.61952 0.74232 0.0
O382 O 0.30358 0.6069 0.71998 0.0
N383 N 0.29282 0.66944 0.65843 0.0
C384 C 0.29594 0.66368 0.59642 0.0
C385 C 0.27442 0.68237 0.60952 0.0
C386 C 0.27308 0.68484 0.6407 0.0
C387 C 0.31424 0.65176 0.64583 0.0
C388 C 0.31678 0.64924 0.61486 0.0
H389 H 0.25413 0.69633 0.65034 0.0
H390 H 0.32766 0.63732 0.65991 0.0
H391 H 0.2213 0.65605 0.72208 0.0
H392 H 0.20168 0.60054 0.64851 0.0
H393 H 0.38863 0.70637 0.71747 0.0
H394 H 0.25734 0.69299 0.59593 0.0
H395 H 0.33287 0.63359 0.60562 0.0
C396 C 0.3221 0.53075 0.92728 0.0
C397 C 0.34572 0.55001 0.9331 0.0
N398 N 0.33625 0.57809 0.92765 0.0
N399 N 0.29797 0.54697 0.91878 0.0
C400 C 0.30745 0.57562 0.91916 0.0
H401 H 0.32253 0.50658 0.92905 0.0
Co402 Co 0.2594 0.53558 0.90776 0.0
C403 C 0.22029 0.56567 0.95163 0.0
O404 O 0.20465 0.54076 0.95367 0.0
N405 N 0.21997 0.52536 0.89571 0.0
C406 C 0.17485 0.5064 0.8852 0.0
C407 C 0.20355 0.49982 0.89462 0.0
C408 C 0.2008 0.54676 0.88605 0.0
N409 N 0.17335 0.53599 0.87978 0.0
O410 O 0.2613 0.56304 0.87503 0.0
H411 H 0.21115 0.47774 0.90064 0.0
H412 H 0.20643 0.57035 0.8851 0.0
O413 O 0.24284 0.56697 0.93392 0.0
C414 C 0.2734 0.55203 0.85175 0.0
O415 O 0.28275 0.52412 0.85266 0.0
N416 N 0.25944 0.50723 0.93898 0.0
C417 C 0.26372 0.46309 0.98257 0.0
C418 C 0.26519 0.49333 0.99051 0.0
C419 C 0.26369 0.5151 0.96829 0.0
C420 C 0.26081 0.47779 0.93075 0.0
C421 C 0.26206 0.45513 0.95235 0.0
H422 H 0.26685 0.53821 0.9747 0.0
H423 H 0.26118 0.47189 0.90725 0.0
H424 H 0.29344 0.59451 0.91322 0.0
H425 H 0.36816 0.54389 0.93999 0.0
H426 H 0.15648 0.49071 0.88276 0.0
H427 H 0.2678 0.50004 0.01371 0.0
H428 H 0.26215 0.43182 0.94557 0.0
C429 C 0.73644 0.94758 0.39901 0.0
C430 C 0.70607 0.95362 0.39789 0.0
N431 N 0.69356 0.93547 0.3772 0.0
N432 N 0.74279 0.92575 0.3791 0.0
C433 C 0.71638 0.91912 0.3661 0.0
H434 H 0.75281 0.95853 0.41318 0.0
Co435 Co 0.77902 0.90826 0.36855 0.0
C436 C 0.76637 0.84351 0.36873 0.0
O437 O 0.79149 0.83893 0.38342 0.0
N438 N 0.81546 0.89025 0.35637 0.0
C439 C 0.8607 0.87004 0.34952 0.0
C440 C 0.84285 0.88624 0.36887 0.0
C441 C 0.81762 0.87651 0.32943 0.0
N442 N 0.84467 0.86418 0.32469 0.0
O443 O 0.77217 0.92045 0.32814 0.0
H444 H 0.84977 0.89378 0.39075 0.0
H445 H 0.79909 0.87436 0.31391 0.0
O446 O 0.75867 0.87016 0.36155 0.0
C447 C 0.78279 0.94661 0.32419 0.0
O448 O 0.79588 0.95995 0.34699 0.0
N449 N 0.78583 0.89961 0.409 0.0
C450 C 0.79085 0.90405 0.47103 0.0
C451 C 0.76895 0.88556 0.45814 0.0
C452 C 0.7666 0.88384 0.42694 0.0
C453 C 0.80688 0.91794 0.42135 0.0
C454 C 0.81042 0.9198 0.45225 0.0
H455 H 0.74776 0.87194 0.41748 0.0
H456 H 0.81975 0.93274 0.40711 0.0
H457 H 0.7142 0.90326 0.34788 0.0
H458 H 0.69425 0.9701 0.41116 0.0
H459 H 0.88359 0.86305 0.35346 0.0
H460 H 0.75268 0.87406 0.47201 0.0
H461 H 0.82663 0.93545 0.46136 0.0
C462 C 0.23683 0.52758 0.412 0.0
C463 C 0.2122 0.50951 0.41696 0.0
N464 N 0.22174 0.48418 0.43028 0.0
N465 N 0.26164 0.51334 0.42173 0.0
C466 C 0.25166 0.48703 0.43281 0.0
H467 H 0.23694 0.54884 0.40034 0.0
Co468 Co 0.30099 0.52433 0.41421 0.0
C469 C 0.33676 0.49413 0.46078 0.0
O470 O 0.35152 0.51933 0.46484 0.0
N471 N 0.3414 0.53444 0.40545 0.0
C472 C 0.38715 0.55333 0.39788 0.0
C473 C 0.3581 0.55982 0.40615 0.0
C474 C 0.36091 0.51318 0.39615 0.0
N475 N 0.38866 0.52394 0.39148 0.0
O476 O 0.30117 0.49733 0.3811 0.0
H477 H 0.35043 0.58181 0.41243 0.0
H478 H 0.35512 0.48972 0.3939 0.0
O479 O 0.31582 0.4928 0.44118 0.0
C480 C 0.29413 0.51111 0.35717 0.0
O481 O 0.28864 0.54001 0.35881 0.0
N482 N 0.29842 0.5524 0.44542 0.0
C483 C 0.29146 0.59683 0.48846 0.0
C484 C 0.28822 0.56662 0.49619 0.0
C485 C 0.29129 0.54469 0.47419 0.0
C486 C 0.29827 0.5818 0.43707 0.0
C487 C 0.29605 0.60454 0.45847 0.0
H488 H 0.28755 0.52157 0.48029 0.0
H489 H 0.30006 0.58763 0.41362 0.0
H490 H 0.26615 0.46911 0.44033 0.0
H491 H 0.18937 0.51392 0.41005 0.0
H492 H 0.40565 0.56899 0.39657 0.0
H493 H 0.28366 0.56002 0.51911 0.0
H494 H 0.29748 0.6278 0.45167 0.0
C495 C 0.82879 0.11911 0.90163 0.0
C496 C 0.85941 0.11452 0.90108 0.0
N497 N 0.87125 0.13235 0.87974 0.0
N498 N 0.82159 0.13973 0.88075 0.0
C499 C 0.84777 0.14707 0.86773 0.0
H500 H 0.81283 0.10801 0.91611 0.0
Co501 Co 0.78468 0.15501 0.86922 0.0
C502 C 0.79398 0.22024 0.86709 0.0
O503 O 0.76843 0.22404 0.88123 0.0
N504 N 0.74754 0.17068 0.85604 0.0
C505 C 0.70157 0.1887 0.84801 0.0
C506 C 0.71988 0.17393 0.8681 0.0
C507 C 0.74509 0.18337 0.82863 0.0
N508 N 0.71761 0.19437 0.82317 0.0
O509 O 0.79266 0.14195 0.82933 0.0
H510 H 0.71312 0.16692 0.89019 0.0
H511 H 0.76371 0.18591 0.81332 0.0
O512 O 0.80318 0.1938 0.86107 0.0
C513 C 0.78468 0.11485 0.82555 0.0
O514 O 0.77264 0.10051 0.84829 0.0
N515 N 0.77712 0.16484 0.90927 0.0
C516 C 0.77383 0.16137 0.97146 0.0
C517 C 0.79431 0.1808 0.95775 0.0
C518 C 0.79582 0.18202 0.92652 0.0
C519 C 0.75705 0.14599 0.92241 0.0
C520 C 0.7544 0.14453 0.95344 0.0
H521 H 0.81396 0.19451 0.91652 0.0
H522 H 0.74463 0.13024 0.90876 0.0
H523 H 0.84935 0.16224 0.84889 0.0
H524 H 0.87188 0.09925 0.91519 0.0
H525 H 0.6784 0.19496 0.85148 0.0
H526 H 0.81041 0.19327 0.97102 0.0
H527 H 0.73926 0.12823 0.96319 0.0
C528 C 0.14066 0.81046 0.03861 0.0
C529 C 0.13215 0.83358 0.0198 0.0
N530 N 0.13152 0.82299 0.9915 0.0
N531 N 0.14534 0.78561 0.02206 0.0
C532 C 0.13985 0.79405 0.99364 0.0
H533 H 0.14354 0.81174 0.06265 0.0
Co534 Co 0.15831 0.74754 0.03251 0.0
C535 C 0.11552 0.70697 0.00192 0.0
O536 O 0.11419 0.69013 0.02605 0.0
N537 N 0.17222 0.70858 0.04167 0.0
C538 C 0.18494 0.66356 0.05932 0.0
C539 C 0.17401 0.69154 0.06671 0.0
C540 C 0.1828 0.69053 0.01975 0.0
N541 N 0.19053 0.66321 0.02973 0.0
O542 O 0.19013 0.75143 0.00431 0.0
H543 H 0.1674 0.69823 0.08894 0.0
H544 H 0.18336 0.69679 0.99632 0.0
O545 O 0.13224 0.73028 0.00163 0.0
C546 C 0.21331 0.76297 0.01618 0.0
O547 O 0.21214 0.77066 0.0446 0.0
N548 N 0.12806 0.74581 0.06169 0.0
C549 C 0.08625 0.74887 0.10766 0.0
C550 C 0.07694 0.74888 0.07776 0.0
C551 C 0.09825 0.74815 0.05504 0.0
C552 C 0.13748 0.7481 0.09072 0.0
C553 C 0.11684 0.74904 0.11427 0.0
H554 H 0.09068 0.75052 0.0322 0.0
H555 H 0.16119 0.74952 0.09557 0.0
H556 H 0.14309 0.77936 0.97464 0.0
H557 H 0.12698 0.85633 0.02644 0.0
H558 H 0.18822 0.64488 0.07445 0.0
H559 H 0.05336 0.75017 0.07204 0.0
H560 H 0.12464 0.75026 0.13723 0.0
C561 C 0.66786 0.75577 0.0308 0.0
C562 C 0.65772 0.73345 0.04956 0.0
N563 N 0.64048 0.74606 0.07088 0.0
N564 N 0.65691 0.78237 0.04004 0.0
C565 C 0.63987 0.77556 0.0641 0.0
H566 H 0.68437 0.7531 0.01328 0.0
Co567 Co 0.67201 0.81992 0.02877 0.0
C568 C 0.63852 0.86507 0.06851 0.0
O569 O 0.64798 0.88926 0.0547 0.0
N570 N 0.68858 0.85707 0.01803 0.0
C571 C 0.69973 0.90117 -0.0024 0.0
C572 C 0.68663 0.87351 0.9927 0.0
C573 C 0.70447 0.87441 0.03712 0.0
N574 N 0.71077 0.90158 0.02571 0.0
O575 O 0.70354 0.81435 0.05716 0.0
H576 H 0.67506 0.86661 0.97254 0.0
H577 H 0.70819 0.86867 0.06038 0.0
O578 O 0.64681 0.83897 0.05988 0.0
C579 C 0.72753 0.80372 0.04612 0.0
O580 O 0.72832 0.79787 0.01726 0.0
N581 N 0.64128 0.82367 -0.00026 0.0
C582 C 0.59094 0.8188 0.96337 0.0
C583 C 0.59467 0.84359 0.98213 0.0
C584 C 0.62015 0.84577 -8e-05 0.0
C585 C 0.63974 0.8014 0.97876 0.0
C586 C 0.61442 0.79828 0.96047 0.0
H587 H 0.62218 0.86495 0.01408 0.0
H588 H 0.65739 0.78494 0.97735 0.0
H589 H 0.62899 0.79212 0.07791 0.0
H590 H 0.66503 0.71032 0.04929 0.0
H591 H 0.69975 0.91997 0.98227 0.0
H592 H 0.57724 0.86036 0.98421 0.0
H593 H 0.61237 0.77902 0.94582 0.0
C594 C 0.4435 0.16064 0.32694 0.0
C595 C 0.45023 0.16082 0.3572 0.0
N596 N 0.43666 0.18474 0.36949 0.0
N597 N 0.42545 0.18414 0.32065 0.0
C598 C 0.42179 0.19826 0.34706 0.0
H599 H 0.45172 0.14475 0.31061 0.0
Co600 Co 0.40932 0.19807 0.28475 0.0
C601 C 0.34407 0.1958 0.29439 0.0
O602 O 0.34081 0.184 0.26759 0.0
N603 N 0.39272 0.21352 0.24893 0.0
C604 C 0.37494 0.22431 0.20344 0.0
C605 C 0.3908 0.20379 0.22023 0.0
C606 C 0.37816 0.24008 0.24866 0.0
N607 N 0.36723 0.24714 0.2215 0.0
O608 O 0.42028 0.23792 0.29599 0.0
H609 H 0.39969 0.18307 0.21161 0.0
H610 H 0.37448 0.25357 0.26847 0.0
O611 O 0.37029 0.20213 0.30418 0.0
C612 C 0.44674 0.24313 0.28677 0.0
O613 O 0.46088 0.22173 0.2723 0.0
N614 N 0.40216 0.15857 0.27306 0.0
C615 C 0.40806 0.09833 0.25779 0.0
C616 C 0.38707 0.10729 0.27945 0.0
C617 C 0.38474 0.13764 0.28713 0.0
C618 C 0.42303 0.15001 0.25261 0.0
C619 C 0.42587 0.12026 0.24411 0.0
H620 H 0.37051 0.14385 0.30567 0.0
H621 H 0.43858 0.1664 0.24381 0.0
H622 H 0.40877 0.21855 0.34978 0.0
H623 H 0.4648 0.14541 0.36897 0.0
H624 H 0.36948 0.22257 0.17987 0.0
H625 H 0.37366 0.09089 0.2913 0.0
H626 H 0.44343 0.1143 0.22845 0.0
C627 C 0.90386 0.31707 0.53035 0.0
C628 C 0.9106 0.34181 0.54767 0.0
N629 N 0.92368 0.33213 0.57307 0.0
N630 N 0.91229 0.29211 0.54513 0.0
C631 C 0.92433 0.30205 0.57103 0.0
H632 H 0.89203 0.31711 0.50918 0.0
Co633 Co 0.90266 0.2531 0.53476 0.0
C634 C 0.9479 0.21526 0.56423 0.0
O635 O 0.95023 0.19986 0.53922 0.0
N636 N 0.89156 0.21325 0.52513 0.0
C637 C 0.8795 0.16843 0.50637 0.0
C638 C 0.88973 0.19684 0.49965 0.0
C639 C 0.88181 0.19429 0.5467 0.0
N640 N 0.87438 0.1671 0.53602 0.0
O641 O 0.8704 0.25451 0.56271 0.0
H642 H 0.89528 0.2044 0.47743 0.0
H643 H 0.88099 0.20007 0.57024 0.0
O644 O 0.92955 0.23726 0.5658 0.0
C645 C 0.84596 0.26273 0.55064 0.0
O646 O 0.84593 0.26887 0.52183 0.0
N647 N 0.93363 0.254 0.50611 0.0
C648 C 0.97735 0.26033 0.46222 0.0
C649 C 0.9849 0.26263 0.49251 0.0
C650 C 0.96261 0.26005 0.51411 0.0
C651 C 0.9256 0.2545 0.4766 0.0
C652 C 0.94732 0.25665 0.45409 0.0
H653 H 0.96871 0.26369 0.53723 0.0
H654 H 0.90216 0.25368 0.47047 0.0
H655 H 0.93135 0.28757 0.58916 0.0
H656 H 0.90512 0.3649 0.54267 0.0
H657 H 0.87585 0.15031 0.49065 0.0
H658 H 0.00785 0.26669 0.49939 0.0
H659 H 0.94073 0.25608 0.43073 0.0
C660 C 0.11922 0.90571 0.83674 0.0
C661 C 0.1123 0.9043 0.86692 0.0
N662 N 0.12555 0.87973 0.87826 0.0
N663 N 0.13705 0.88231 0.82955 0.0
C664 C 0.14041 0.86703 0.85536 0.0
H665 H 0.11128 0.92237 0.82105 0.0
Co666 Co 0.15325 0.86972 0.79318 0.0
C667 C 0.21838 0.8713 0.80336 0.0
O668 O 0.22196 0.88389 0.77698 0.0
N669 N 0.16991 0.85555 0.75684 0.0
C670 C 0.18715 0.84621 0.71086 0.0
C671 C 0.1713 0.86607 0.7284 0.0
C672 C 0.18472 0.82914 0.75562 0.0
N673 N 0.19539 0.82296 0.72814 0.0
O674 O 0.14212 0.82954 0.8027 0.0
H675 H 0.16195 0.88684 0.72043 0.0
H676 H 0.18868 0.81508 0.77499 0.0
O677 O 0.19208 0.86473 0.81265 0.0
C678 C 0.1155 0.82483 0.79364 0.0
O679 O 0.10118 0.84692 0.78042 0.0
N680 N 0.16081 0.90965 0.78319 0.0
C681 C 0.15703 0.97041 0.76946 0.0
C682 C 0.1772 0.9603 0.79138 0.0
C683 C 0.17848 0.9297 0.79826 0.0
C684 C 0.14041 0.91941 0.76277 0.0
C685 C 0.13866 0.94945 0.75498 0.0
H686 H 0.19221 0.92259 0.81686 0.0
H687 H 0.12451 0.90373 0.75327 0.0
H688 H 0.15319 0.84649 0.85728 0.0
H689 H 0.09781 0.91933 0.87923 0.0
H690 H 0.19221 0.84867 0.68727 0.0
H691 H 0.19088 0.97599 0.8039 0.0
H692 H 0.12163 0.9564 0.73913 0.0
C693 C 0.4205 0.2459 0.53309 0.0
C694 C 0.42923 0.22388 0.5131 0.0
N695 N 0.42937 0.23584 0.48535 0.0
N696 N 0.41521 0.27143 0.51781 0.0
C697 C 0.42052 0.26447 0.48897 0.0
H698 H 0.418 0.24343 0.55706 0.0
Co699 Co 0.40206 0.30876 0.53043 0.0
C700 C 0.44391 0.35128 0.50135 0.0
O701 O 0.44516 0.36705 0.52622 0.0
N702 N 0.38787 0.347 0.54188 0.0
C703 C 0.3742 0.39052 0.56237 0.0
C704 C 0.38574 0.36237 0.56796 0.0
C705 C 0.37687 0.36618 0.52115 0.0
N706 N 0.36855 0.39265 0.53285 0.0
O707 O 0.3698 0.30604 0.50248 0.0
H708 H 0.39235 0.35435 0.58974 0.0
H709 H 0.37627 0.36132 0.49739 0.0
O710 O 0.42738 0.32786 0.50004 0.0
C711 C 0.34686 0.2928 0.5129 0.0
O712 O 0.34795 0.28249 0.54047 0.0
N713 N 0.4331 0.30937 0.55904 0.0
C714 C 0.47687 0.30517 0.60316 0.0
C715 C 0.48489 0.30626 0.57295 0.0
C716 C 0.46264 0.30747 0.55117 0.0
C717 C 0.42492 0.30588 0.5883 0.0
C718 C 0.44656 0.30432 0.61098 0.0
H719 H 0.46932 0.30586 0.528 0.0
H720 H 0.40146 0.3039 0.59404 0.0
H721 H 0.41688 0.28002 0.47074 0.0
H722 H 0.43497 0.20096 0.51857 0.0
H723 H 0.37043 0.40807 0.57869 0.0
H724 H 0.50821 0.30543 0.56623 0.0
H725 H 0.43976 0.30217 0.63417 0.0
C726 C 0.95552 0.39061 0.73398 0.0
C727 C 0.96251 0.39157 0.70389 0.0
N728 N 0.93864 0.38146 0.68842 0.0
N729 N 0.92759 0.37949 0.73724 0.0
C730 C 0.91789 0.37424 0.70909 0.0
H731 H 0.97039 0.39598 0.75237 0.0
Co732 Co 0.90992 0.36778 0.77289 0.0
C733 C 0.84502 0.37039 0.76198 0.0
O734 O 0.84189 0.38451 0.78764 0.0
N735 N 0.89207 0.3546 0.80907 0.0
C736 C 0.87309 0.34649 0.85462 0.0
C737 C 0.88925 0.36609 0.83704 0.0
C738 C 0.87764 0.32798 0.81058 0.0
N739 N 0.86603 0.32249 0.83782 0.0
O740 O 0.92082 0.32743 0.76406 0.0
H741 H 0.89778 0.38739 0.84462 0.0
H742 H 0.87469 0.31318 0.79158 0.0
O743 O 0.87114 0.36271 0.753 0.0
C744 C 0.94606 0.32215 0.77626 0.0
O745 O 0.95871 0.34363 0.79201 0.0
N746 N 0.90287 0.408 0.78165 0.0
C747 C 0.90855 0.46934 0.79147 0.0
C748 C 0.88926 0.45853 0.76912 0.0
C749 C 0.88699 0.42763 0.76428 0.0
C750 C 0.92241 0.41837 0.80265 0.0
C751 C 0.92493 0.44881 0.8086 0.0
H752 H 0.87414 0.41977 0.74532 0.0
H753 H 0.93723 0.40285 0.81393 0.0
H754 H 0.89699 0.3631 0.70377 0.0
H755 H 0.98384 0.39787 0.6942 0.0
H756 H 0.86709 0.34959 0.87791 0.0
H757 H 0.87723 0.47385 0.75463 0.0
H758 H 0.94126 0.45629 0.82497 0.0
C759 C 0.61459 0.66691 0.22631 0.0
C760 C 0.60882 0.66977 0.19596 0.0
N761 N 0.62505 0.693 0.18558 0.0
N762 N 0.63468 0.68802 0.23458 0.0
C763 C 0.64061 0.70332 0.20928 0.0
H764 H 0.60424 0.65102 0.24141 0.0
Co765 Co 0.65015 0.69902 0.27168 0.0
C766 C 0.71552 0.69535 0.26384 0.0
O767 O 0.71758 0.68206 0.29005 0.0
N768 N 0.6662 0.71175 0.30889 0.0
C769 C 0.68259 0.71998 0.35546 0.0
C770 C 0.66685 0.70063 0.33713 0.0
C771 C 0.68142 0.73788 0.31098 0.0
N772 N 0.69148 0.74345 0.33882 0.0
O773 O 0.6407 0.7397 0.26275 0.0
H774 H 0.65699 0.67981 0.34443 0.0
H775 H 0.68606 0.75227 0.29202 0.0
O776 O 0.68985 0.70308 0.25369 0.0
C777 C 0.61452 0.74528 0.27249 0.0
O778 O 0.59975 0.72365 0.286 0.0
N779 N 0.65586 0.65867 0.28093 0.0
C780 C 0.65062 0.59807 0.29479 0.0
C781 C 0.67135 0.60773 0.27319 0.0
C782 C 0.67333 0.63828 0.26621 0.0
C783 C 0.63466 0.64933 0.30071 0.0
C784 C 0.63214 0.61936 0.30853 0.0
H785 H 0.68776 0.64518 0.24806 0.0
H786 H 0.61903 0.66538 0.30994 0.0
H787 H 0.65576 0.72228 0.20839 0.0
H788 H 0.5931 0.65667 0.18288 0.0
H789 H 0.68702 0.71709 0.37914 0.0
H790 H 0.68515 0.59178 0.2612 0.0
H791 H 0.6147 0.61277 0.32407 0.0
C792 C 0.13131 0.04904 0.78489 0.0
C793 C 0.12265 0.05796 0.75605 0.0
H794 H 0.14969 0.01388 0.81182 0.0
C795 C 0.13088 0.04062 0.73124 0.0
H796 H 0.12474 0.06211 0.80427 0.0
C797 C 0.14532 0.01323 0.73544 0.0
C798 C 0.15125 0.00268 0.76454 0.0
H799 H 0.12412 0.04716 0.70886 0.0
H800 H 0.14968 -0.00078 0.71609 0.0
C801 C 0.14564 0.02154 0.78914 0.0
C802 C 0.55537 0.80976 0.9204 0.0
C803 C 0.56092 0.81233 0.95127 0.0
H804 H 0.52179 0.80494 0.88607 0.0
C805 C 0.53715 0.80953 0.97154 0.0
H806 H 0.57357 0.81167 0.90446 0.0
C807 C 0.50809 0.8054 0.96128 0.0
C808 C 0.50195 0.80441 0.93041 0.0
H809 H 0.54108 0.81079 0.99549 0.0
H810 H 0.49031 0.80323 0.97766 0.0
C811 C 0.52591 0.80589 0.90997 0.0
C812 C 0.42026 0.04718 0.27703 0.0
C813 C 0.41532 0.06638 0.25254 0.0
H814 H 0.44145 0.00688 0.29246 0.0
C815 C 0.42319 0.05664 0.22361 0.0
H816 H 0.41474 0.05417 0.2996 0.0
C817 C 0.4388 0.02986 0.21968 0.0
C818 C 0.44615 0.01221 0.24454 0.0
H819 H 0.41933 0.07085 0.2043 0.0
H820 H 0.44688 0.02395 0.19757 0.0
C821 C 0.43564 0.02022 0.27302 0.0
C822 C 0.01485 0.29034 0.43435 0.0
C823 C 0.00132 0.26252 0.43981 0.0
H824 H 0.05355 0.31336 0.41801 0.0
C825 C 0.01462 0.23631 0.42878 0.0
H826 H 0.005 0.31072 0.44313 0.0
C827 C 0.04248 0.2377 0.41456 0.0
C828 C 0.05728 0.26535 0.4112 0.0
H829 H 0.00459 0.21463 0.43317 0.0
H830 H 0.05334 0.21703 0.40794 0.0
C831 C 0.04255 0.29179 0.41992 0.0
C832 C 0.62444 0.52875 0.3347 0.0
C833 C 0.61713 0.51035 0.31035 0.0
H834 H 0.64224 0.57096 0.34884 0.0
C835 C 0.62628 0.51844 0.28141 0.0
H836 H 0.61734 0.52283 0.35715 0.0
C837 C 0.64016 0.54611 0.27652 0.0
C838 C 0.64489 0.56591 0.30058 0.0
H839 H 0.62042 0.50454 0.26236 0.0
H840 H 0.64462 0.55305 0.2537 0.0
C841 C 0.63849 0.55625 0.32988 0.0
C842 C 0.51165 0.27544 0.63467 0.0
C843 C 0.50077 0.30349 0.62571 0.0
H844 H 0.54871 0.25109 0.65281 0.0
C845 C 0.51686 0.32947 0.63299 0.0
H846 H 0.49963 0.25516 0.62877 0.0
C847 C 0.54479 0.32727 0.64688 0.0
C848 C 0.55719 0.29901 0.65324 0.0
H849 H 0.50882 0.35128 0.62594 0.0
H850 H 0.55765 0.34754 0.65063 0.0
C851 C 0.53969 0.27319 0.64845 0.0
C852 C 0.91903 0.5148 0.82238 0.0
C853 C 0.91596 0.50151 0.79398 0.0
H854 H 0.93825 0.55087 0.84777 0.0
C855 C 0.92579 0.51719 0.76851 0.0
H856 H 0.91163 0.50309 0.84232 0.0
C857 C 0.94109 0.54432 0.7717 0.0
C858 C 0.94629 0.5562 0.8003 0.0
H859 H 0.92405 0.50725 0.74642 0.0
H860 H 0.95067 0.55492 0.75207 0.0
C861 C 0.93413 0.54204 0.82552 0.0
C862 C 0.05248 0.7781 0.14058 0.0
C863 C 0.06344 0.7502 0.13127 0.0
H864 H 0.01581 0.80188 0.16011 0.0
C865 C 0.04833 0.72396 0.13956 0.0
H866 H 0.06378 0.79857 0.13398 0.0
C867 C 0.02102 0.72573 0.15469 0.0
C868 C 0.00834 0.75381 0.16129 0.0
H869 H 0.05645 0.70226 0.13229 0.0
H870 H 0.00867 0.70527 0.15903 0.0
C871 C 0.02511 0.77992 0.15562 0.0
C872 C 0.80562 0.1277 0.04151 0.0
C873 C 0.77952 0.12301 0.0583 0.0
H874 H 0.82427 0.14462 0.00076 0.0
C875 C 0.75242 0.13582 0.04887 0.0
H876 H 0.82664 0.11767 0.04839 0.0
C877 C 0.75091 0.15087 0.02147 0.0
C878 C 0.7766 0.15361 0.00349 0.0
H879 H 0.73201 0.13207 0.06147 0.0
H880 H 0.72936 0.15863 0.0134 0.0
C881 C 0.80424 0.14318 0.0144 0.0
C882 C 0.23777 0.4309 0.01951 0.0
C883 C 0.26463 0.44051 0.0064 0.0
H884 H 0.21708 0.41152 0.05823 0.0
C885 C 0.29202 0.43373 0.02014 0.0
H886 H 0.21644 0.43633 0.00925 0.0
C887 C 0.29247 0.41961 0.04803 0.0
C888 C 0.26546 0.4125 0.06262 0.0
H889 H 0.3129 0.44143 0.01041 0.0
H890 H 0.3138 0.41684 0.0593 0.0
C891 C 0.23817 0.41691 0.04748 0.0
C892 C 0.81731 0.92806 0.54743 0.0
C893 C 0.79151 0.94244 0.55808 0.0
H894 H 0.83726 0.90401 0.51093 0.0
C895 C 0.7644 0.93933 0.54247 0.0
H896 H 0.83847 0.93052 0.55911 0.0
C897 C 0.76357 0.92387 0.5153 0.0
C898 C 0.79 0.91186 0.50316 0.0
H899 H 0.74434 0.95051 0.55033 0.0
H900 H 0.74288 0.92364 0.50257 0.0
C901 C 0.81662 0.91302 0.51997 0.0
C902 C 0.26487 0.62295 0.52982 0.0
C903 C 0.29058 0.6198 0.51208 0.0
H904 H 0.24634 0.64045 0.57038 0.0
C905 C 0.31678 0.63545 0.51972 0.0
H906 H 0.24451 0.61089 0.52426 0.0
C907 C 0.31801 0.65205 0.54626 0.0
C908 C 0.29284 0.6536 0.56507 0.0
H909 H 0.33689 0.63304 0.50633 0.0
H910 H 0.33905 0.66217 0.55298 0.0
C911 C 0.2659 0.64 0.556 0.0
C912 C 0.99361 0.19026 0.58483 0.0
C913 C 0.96842 0.20866 0.58936 0.0
H914 H 0.03176 0.1688 0.60463 0.0
C915 C 0.96322 0.22065 0.61797 0.0
H916 H -0.00161 0.18088 0.56296 0.0
C917 C 0.98232 0.2136 0.64177 0.0
C918 C 0.00719 0.19479 0.63733 0.0
H919 H 0.94411 0.23503 0.62211 0.0
H920 H 0.97757 0.22269 0.66376 0.0
C921 C 0.01293 0.18357 0.60855 0.0
C922 C 0.29756 0.87383 0.83389 0.0
C923 C 0.29558 0.85412 0.85829 0.0
H924 H 0.27473 0.89441 0.79708 0.0
C925 C 0.26782 0.84088 0.86512 0.0
H926 H 0.31876 0.8841 0.82805 0.0
C927 C 0.24258 0.84685 0.84761 0.0
C928 C 0.24473 0.86587 0.82264 0.0
H929 H 0.26569 0.82581 0.88402 0.0
H930 H 0.22154 0.83613 0.8533 0.0
C931 C 0.27242 0.87948 0.81607 0.0
C932 C 0.59194 0.89025 0.08587 0.0
C933 C 0.61385 0.86804 0.09018 0.0
H934 H 0.55297 0.91209 0.10352 0.0
C935 C 0.61204 0.84929 0.11533 0.0
H936 H 0.59267 0.90477 0.06643 0.0
C937 C 0.5895 0.85375 0.13663 0.0
C938 C 0.56802 0.87644 0.13264 0.0
H939 H 0.62872 0.83208 0.11911 0.0
H940 H 0.58917 0.84001 0.15663 0.0
C941 C 0.56902 0.89419 0.10677 0.0
C942 C 0.29358 0.22538 0.35577 0.0
C943 C 0.26578 0.21272 0.34791 0.0
H944 H 0.34021 0.22972 0.34525 0.0
C945 C 0.26416 0.19365 0.32296 0.0
H946 H 0.29548 0.23992 0.37511 0.0
C947 C 0.28966 0.18803 0.30567 0.0
C948 C 0.31739 0.20104 0.31329 0.0
H949 H 0.24299 0.1838 0.31631 0.0
H950 H 0.28759 0.17361 0.28625 0.0
C951 C 0.31917 0.21944 0.33876 0.0
C952 C 0.46095 0.34453 0.44838 0.0
C953 C 0.46458 0.35829 0.47646 0.0
H954 H 0.47696 0.34072 0.4033 0.0
C955 C 0.48867 0.37821 0.4808 0.0
H956 H 0.44276 0.32893 0.44439 0.0
C957 C 0.50851 0.38454 0.45739 0.0
C958 C 0.50435 0.3714 0.42914 0.0
H959 H 0.49225 0.38896 0.50228 0.0
H960 H 0.52647 0.40046 0.46107 0.0
C961 C 0.48053 0.3512 0.42491 0.0
C962 C 0.79073 0.37768 0.75015 0.0
C963 C 0.81826 0.36384 0.74357 0.0
H964 H 0.74403 0.38131 0.73946 0.0
C965 C 0.8197 0.34328 0.71979 0.0
H966 H 0.78891 0.39375 0.76825 0.0
C967 C 0.79392 0.33606 0.70349 0.0
C968 C 0.76631 0.34956 0.71039 0.0
H969 H 0.8406 0.33231 0.71414 0.0
H970 H 0.79555 0.3199 0.68547 0.0
C971 C 0.76505 0.37076 0.73357 0.0
C972 C 0.07132 0.68051 0.97949 0.0
C973 C 0.0954 0.70066 0.97636 0.0
H974 H 0.03426 0.65848 0.95808 0.0
C975 C 0.09977 0.71504 0.94872 0.0
H976 H 0.0672 0.66927 0.0006 0.0
C977 C 0.08098 0.70873 0.92448 0.0
C978 C 0.05719 0.68828 0.9275 0.0
H979 H 0.11799 0.73081 0.94564 0.0
H980 H 0.08511 0.71972 0.90324 0.0
C981 C 0.05224 0.67455 0.95532 0.0
C982 C 0.79574 0.69049 0.23673 0.0
C983 C 0.79559 0.71058 0.21256 0.0
H984 H 0.77061 0.6702 0.27214 0.0
C985 C 0.76868 0.725 0.20478 0.0
H986 H 0.81622 0.67931 0.24334 0.0
C987 C 0.74249 0.71971 0.2211 0.0
C988 C 0.74283 0.7002 0.24579 0.0
H989 H 0.76794 0.7404 0.18604 0.0
H990 H 0.72214 0.73128 0.21469 0.0
C991 C 0.76967 0.68551 0.25333 0.0
C992 C 0.65671 0.98535 0.20364 0.0
C993 C 0.65477 0.01033 0.18454 0.0
H994 H 0.6335 0.94879 0.22454 0.0
C995 C 0.62701 0.01765 0.17173 0.0
H996 H 0.67787 0.97939 0.21393 0.0
C997 C 0.60179 -8e-05 0.17736 0.0
C998 C 0.60372 0.97485 0.19637 0.0
H999 H 0.62502 0.03661 0.15674 0.0
H1000 H 0.58074 0.00597 0.16688 0.0
C1001 C 0.63136 0.96792 0.20974 0.0
C1002 C 0.22065 0.36023 0.29716 0.0
C1003 C 0.20778 0.35401 0.26907 0.0
H1004 H 0.22517 0.34706 0.34307 0.0
C1005 C 0.18838 0.32943 0.26617 0.0
H1006 H 0.23548 0.37925 0.30001 0.0
C1007 C 0.18271 0.31082 0.29069 0.0
C1008 C 0.19604 0.31669 0.31867 0.0
H1009 H 0.1784 0.32403 0.24471 0.0
H1010 H 0.16804 0.2917 0.28763 0.0
C1011 C 0.2147 0.34186 0.32178 0.0
C1012 C 0.94708 0.05029 0.67511 0.0
C1013 C 0.91886 0.05654 0.68743 0.0
H1014 H 0.99306 0.0634 0.67152 0.0
C1015 C 0.91579 0.08112 0.70692 0.0
H1016 H 0.94996 0.03167 0.65982 0.0
C1017 C 0.94045 0.09921 0.71385 0.0
C1018 C 0.96855 0.09334 0.70099 0.0
H1019 H 0.89428 0.08626 0.71688 0.0
H1020 H 0.93741 0.118 0.72892 0.0
C1021 C 0.97163 0.06864 0.68162 0.0
C1022 C 0.35073 0.72825 0.82542 0.0
C1023 C 0.36823 0.75437 0.82369 0.0
H1024 H 0.33117 0.6914 0.80168 0.0
C1025 C 0.38059 0.76266 0.7959 0.0
H1026 H 0.34101 0.72114 0.8465 0.0
C1027 C 0.37514 0.74543 0.77028 0.0
C1028 C 0.35692 0.71982 0.7719 0.0
H1029 H 0.39433 0.78259 0.79386 0.0
H1030 H 0.38438 0.75262 0.74905 0.0
C1031 C 0.34501 0.71125 0.79977 0.0
C1032 C 0.11922 0.54643 0.88368 0.0
C1033 C 0.14749 0.5535 0.87187 0.0
H1034 H 0.07314 0.55899 0.8876 0.0
C1035 C 0.15055 0.57897 0.8536 0.0
H1036 H 0.11637 0.52712 0.89809 0.0
C1037 C 0.12584 0.59718 0.84743 0.0
C1038 C 0.09768 0.59051 0.85982 0.0
H1039 H 0.1721 0.58477 0.84408 0.0
H1040 H 0.1289 0.61668 0.83329 0.0
C1041 C 0.0946 0.56488 0.87791 0.0
C1042 C 0.8778 0.80314 0.27762 0.0
C1043 C 0.86642 0.81025 0.24909 0.0
H1044 H 0.88003 0.8151 0.32412 0.0
C1045 C 0.84889 0.83614 0.24565 0.0
H1046 H 0.89155 0.78342 0.28096 0.0
C1047 C 0.84222 0.85409 0.27041 0.0
C1048 C 0.85327 0.84676 0.29899 0.0
H1049 H 0.83989 0.84226 0.22395 0.0
H1050 H 0.82834 0.87374 0.26726 0.0
C1051 C 0.87147 0.82136 0.3023 0.0
C1052 C 0.43661 0.46514 0.3555 0.0
C1053 C 0.46469 0.47118 0.36842 0.0
H1054 H 0.39025 0.47742 0.35284 0.0
C1055 C 0.4675 0.49542 0.3884 0.0
H1056 H 0.43377 0.4467 0.33994 0.0
C1057 C 0.44272 0.5132 0.39539 0.0
C1058 C 0.41456 0.5068 0.38294 0.0
H1059 H 0.4889 0.50078 0.39857 0.0
H1060 H 0.44539 0.53152 0.41109 0.0
C1061 C 0.41173 0.48264 0.3629 0.0
C1062 C 0.68385 0.25351 0.77415 0.0
C1063 C 0.6963 0.2463 0.7461 0.0
H1064 H 0.68063 0.24224 0.82076 0.0
C1065 C 0.71444 0.22073 0.74358 0.0
H1066 H 0.6696 0.27297 0.77678 0.0
C1067 C 0.72077 0.2033 0.76878 0.0
C1068 C 0.70882 0.21085 0.79692 0.0
H1069 H 0.72425 0.2145 0.72228 0.0
H1070 H 0.73522 0.18397 0.76634 0.0
C1071 C 0.68989 0.23582 0.79929 0.0
C1072 C 0.22508 0.61954 0.96686 0.0
C1073 C 0.21359 0.59073 0.97219 0.0
H1074 H 0.22669 0.66535 0.98131 0.0
C1075 C 0.19565 0.58588 -0.00234 0.0
H1076 H 0.23908 0.62392 0.94752 0.0
C1077 C 0.18901 0.60942 0.01719 0.0
C1078 C 0.19976 0.63838 0.01138 0.0
H1079 H 0.18668 0.56385 0.00256 0.0
H1080 H 0.17467 0.60521 0.03629 0.0
C1081 C 0.218 0.6432 0.98615 0.0
C1082 C 0.70973 0.97796 0.0602 0.0
C1083 C 0.72892 0.97396 0.08491 0.0
H1084 H 0.6893 0.95808 0.02154 0.0
C1085 C 0.74426 0.94666 0.08799 0.0
H1086 H 0.69779 -0.00116 0.05698 0.0
C1087 C 0.73954 0.92345 0.06749 0.0
C1088 C 0.71955 0.92709 0.0434 0.0
H1089 H 0.75943 0.94295 0.10658 0.0
H1090 H 0.75093 0.9023 0.07087 0.0
C1091 C 0.70518 0.9548 0.03959 0.0
C1092 C 0.35519 0.30058 0.22843 0.0
C1093 C 0.34941 0.27297 0.21438 0.0
H1094 H 0.34185 0.34634 0.23407 0.0
C1095 C 0.32518 0.27061 0.19448 0.0
H1096 H 0.37392 0.30298 0.2437 0.0
C1097 C 0.30661 0.29524 0.18926 0.0
C1098 C 0.31223 0.32281 0.20349 0.0
H1099 H 0.32013 0.2495 0.18362 0.0
H1100 H 0.28786 0.29264 0.17404 0.0
C1101 C 0.33691 0.32536 0.22286 0.0
C1102 C 0.87362 0.11274 0.54589 0.0
C1103 C 0.86446 0.14183 0.55342 0.0
H1104 H 0.87371 0.06638 0.55791 0.0
C1105 C 0.84662 0.14611 0.57905 0.0
H1106 H 0.88754 0.10887 0.52641 0.0
C1107 C 0.83849 0.12179 0.59706 0.0
C1108 C 0.84843 0.09279 0.59 0.0
H1109 H 0.839 0.16832 0.58516 0.0
H1110 H 0.82493 0.12578 0.61679 0.0
C1111 C 0.86587 0.0885 0.5641 0.0
C1112 C 0.22718 0.74522 0.72674 0.0
C1113 C 0.25114 0.74865 0.70664 0.0
H1114 H 0.19051 0.76644 0.7493 0.0
C1115 C 0.25575 0.77665 0.69291 0.0
H1116 H 0.22303 0.7239 0.73759 0.0
C1117 C 0.23696 0.80081 0.69935 0.0
C1118 C 0.21347 0.79759 0.71997 0.0
H1119 H 0.27392 0.77996 0.67718 0.0
H1120 H 0.2413 0.82224 0.68884 0.0
C1121 C 0.20866 0.76954 0.73351 0.0
C1122 C 0.368 0.44725 0.52424 0.0
C1123 C 0.35854 0.41836 0.51618 0.0
H1124 H 0.36884 0.49378 0.51282 0.0
C1125 C 0.3408 0.41466 0.49036 0.0
H1126 H 0.3819 0.45066 0.54384 0.0
C1127 C 0.33315 0.43932 0.47261 0.0
C1128 C 0.34349 0.46809 0.48012 0.0
H1129 H 0.33303 0.39261 0.48382 0.0
H1130 H 0.31972 0.43574 0.4527 0.0
C1131 C 0.36073 0.47184 0.50628 0.0
C1132 C 0.80646 0.27465 0.87253 0.0
C1133 C 0.81291 0.24645 0.86002 0.0
H1134 H 0.81868 0.32105 0.87543 0.0
C1135 C 0.8377 0.24353 0.84087 0.0
H1136 H 0.78761 0.27758 0.88752 0.0
C1137 C 0.8553 0.26845 0.83391 0.0
C1138 C 0.84871 0.29667 0.84624 0.0
H1139 H 0.84332 0.22208 0.83099 0.0
H1140 H 0.87418 0.26566 0.81893 0.0
C1141 C 0.82434 0.29949 0.86586 0.0
C1142 C 0.73257 0.76559 0.36852 0.0
C1143 C 0.70912 0.76887 0.34784 0.0
H1144 H 0.76939 0.78658 0.39105 0.0
C1145 C 0.70405 0.79706 0.33475 0.0
H1146 H 0.73704 0.74404 0.37871 0.0
C1147 C 0.72236 0.82144 0.34185 0.0
C1148 C 0.74638 0.818 0.3619 0.0
H1149 H 0.68589 0.80021 0.31895 0.0
H1150 H 0.71798 0.84284 0.33125 0.0
C1151 C 0.75118 0.78988 0.37534 0.0
C1152 C 0.96451 0.24208 0.75371 0.0
C1153 C 0.99334 0.23883 0.76612 0.0
H1154 H 0.92673 0.27118 0.74707 0.0
C1155 C 0.00594 0.26285 0.78205 0.0
H1156 H 0.95425 0.22391 0.74127 0.0
C1157 C 0.99031 0.28961 0.78538 0.0
C1158 C 0.96166 0.29315 0.77279 0.0
H1159 H 0.02804 0.2611 0.79198 0.0
H1160 H 0.00093 0.30763 0.79774 0.0
C1161 C 0.9488 0.2691 0.75697 0.0
C1162 C 0.26567 0.78167 0.01289 0.0
C1163 C 0.24132 0.76731 -0.00092 0.0
H1164 H 0.31076 0.79678 0.00917 0.0
C1165 C 0.2444 0.75705 0.96941 0.0
H1166 H 0.26411 0.78989 0.03568 0.0
C1167 C 0.27153 0.76101 0.954 0.0
C1168 C 0.29586 0.77532 0.96806 0.0
H1169 H 0.22599 0.74583 0.95821 0.0
H1170 H 0.27345 0.75287 0.93121 0.0
C1171 C 0.29253 0.78564 -0.00239 0.0
C1172 C 0.60104 0.82654 0.25109 0.0
C1173 C 0.57169 0.8308 0.26178 0.0
H1174 H 0.63781 0.79592 0.246 0.0
C1175 C 0.55706 0.80703 0.27624 0.0
H1176 H 0.61285 0.84449 0.23978 0.0
C1177 C 0.57122 0.7795 0.27977 0.0
C1178 C 0.60039 0.77496 0.26887 0.0
H1179 H 0.53449 0.80956 0.28481 0.0
H1180 H 0.55909 0.76168 0.29094 0.0
C1181 C 0.61529 0.79877 0.25459 0.0
C1182 C 0.31599 0.30283 0.46667 0.0
C1183 C 0.31922 0.28924 0.49494 0.0
H1184 H 0.28715 0.31051 0.42883 0.0
C1185 C 0.29538 0.27229 0.5065 0.0
H1186 H 0.334 0.31609 0.45721 0.0
C1187 C 0.26884 0.26911 0.49039 0.0
C1188 C 0.26533 0.28285 0.46229 0.0
H1189 H 0.2971 0.26145 0.52815 0.0
H1190 H 0.25097 0.25593 0.50021 0.0
C1191 C 0.2892 0.29969 0.45046 0.0
C1192 C 0.46213 0.32367 0.31009 0.0
C1193 C 0.49187 0.3273 0.30022 0.0
H1194 H 0.42432 0.294 0.31368 0.0
C1195 C 0.50629 0.30317 0.28616 0.0
H1196 H 0.45047 0.34189 0.32108 0.0
C1197 C 0.49147 0.27604 0.28198 0.0
C1198 C 0.4618 0.27223 0.29176 0.0
H1199 H 0.52916 0.30515 0.27828 0.0
H1200 H 0.50343 0.258 0.27101 0.0
C1201 C 0.4472 0.29629 0.30592 0.0
C1202 C 0.79247 0.27777 0.55436 0.0
C1203 C 0.818 0.26565 0.56814 0.0
H1204 H 0.74672 0.29051 0.55874 0.0
C1205 C 0.81624 0.25656 0.59829 0.0
H1206 H 0.79299 0.28502 0.5312 0.0
C1207 C 0.78933 0.25965 0.61428 0.0
C1208 C 0.76392 0.27203 0.60035 0.0
H1209 H 0.83556 0.24704 0.60948 0.0
H1210 H 0.78849 0.25259 0.63748 0.0
C1211 C 0.76586 0.28098 0.57024 0.0
C1212 C 0.0559 0.76493 0.79104 0.0
C1213 C 0.07087 0.73988 0.80276 0.0
H1214 H 0.05818 0.81107 0.77911 0.0
C1215 C 0.10088 0.74293 0.81198 0.0
H1216 H 0.03278 0.76343 0.78376 0.0
C1217 C 0.11562 0.77059 0.80933 0.0
C1218 C 0.10053 0.79552 0.79735 0.0
H1219 H 0.11296 0.724 0.82118 0.0
H1220 H 0.13877 0.77239 0.81644 0.0
C1221 C 0.07053 0.79234 0.78836 0.0
C1222 C 0.77945 0.78433 0.05219 0.0
C1223 C 0.75434 0.79834 0.06486 0.0
H1224 H 0.82395 0.76829 0.05857 0.0
C1225 C 0.75543 0.80715 0.09513 0.0
H1226 H 0.77941 0.77722 0.02897 0.0
C1227 C 0.78129 0.80206 0.11229 0.0
C1228 C 0.80636 0.78797 0.09944 0.0
H1229 H 0.73641 0.81808 0.10549 0.0
H1230 H 0.78162 0.80907 0.13553 0.0
C1231 C 0.80507 0.77917 0.06924 0.0
C1232 C 0.79105 0.99189 0.29281 0.0
C1233 C 0.78072 0.96224 0.29505 0.0
H1234 H 0.79781 0.03008 0.26501 0.0
C1235 C 0.76878 0.94821 0.26944 0.0
H1236 H 0.80034 0.00343 0.31206 0.0
C1237 C 0.76736 0.96367 0.2421 0.0
C1238 C 0.77778 0.99339 0.24005 0.0
H1239 H 0.76067 0.92534 0.2705 0.0
H1240 H 0.75811 0.95243 0.22266 0.0
C1241 C 0.78957 0.00725 0.26573 0.0
C1242 C 0.29863 0.46501 0.32481 0.0
C1243 C 0.29151 0.49555 0.32803 0.0
H1244 H 0.30105 0.42729 0.29497 0.0
C1245 C 0.28145 0.51159 0.3029 0.0
H1246 H 0.3065 0.45209 0.34379 0.0
C1247 C 0.27829 0.49751 0.27524 0.0
C1248 C 0.2852 0.46702 0.27189 0.0
H1249 H 0.27577 0.53513 0.30453 0.0
H1250 H 0.27035 0.51068 0.25646 0.0
C1251 C 0.29556 0.45085 0.2969 0.0
C1252 C 0.78578 0.05334 0.76757 0.0
C1253 C 0.79563 0.06845 0.7418 0.0
H1254 H 0.77464 0.05608 0.81391 0.0
C1255 C 0.80228 0.09922 0.74371 0.0
H1256 H 0.78046 0.02965 0.76695 0.0
C1257 C 0.79896 0.11453 0.77096 0.0
C1258 C 0.78884 0.09929 0.79662 0.0
H1259 H 0.80995 0.11145 0.7242 0.0
H1260 H 0.8041 0.13825 0.77187 0.0
C1261 C 0.78238 0.06856 0.79458 0.0
C1262 C 0.29667 0.57386 0.77344 0.0
C1263 C 0.2852 0.60304 0.7708 0.0
H1264 H 0.30191 0.53507 0.80084 0.0
C1265 C 0.26987 0.61568 0.79524 0.0
H1266 H 0.3086 0.5634 0.75508 0.0
C1267 C 0.26604 0.59928 0.82177 0.0
C1268 C 0.27739 0.56997 0.82418 0.0
H1269 H 0.26078 0.63814 0.79385 0.0
H1270 H 0.25406 0.60945 0.84026 0.0
C1271 C 0.29279 0.55754 0.79975 0.0
C1272 C 0.9117 0.1601 0.85438 0.0
C1273 C 0.90193 0.1344 0.8698 0.0
H1274 H 0.94624 0.18035 0.82801 0.0
C1275 C 0.92193 0.11024 0.87329 0.0
H1276 H 0.89739 0.17952 0.85207 0.0
C1277 C 0.95038 0.11116 0.85998 0.0
C1278 C 0.95895 0.13605 0.84282 0.0
H1279 H 0.91513 0.09014 0.88502 0.0
H1280 H 0.96499 0.09187 0.86167 0.0
C1281 C 0.93974 0.16076 0.84079 0.0
C1282 C 0.37982 0.64328 0.95742 0.0
C1283 C 0.37664 0.66384 0.93369 0.0
H1284 H 0.36941 0.59909 0.97383 0.0
C1285 C 0.3634 0.65403 0.90679 0.0
H1286 H 0.3899 0.65007 0.97841 0.0
C1287 C 0.35141 0.62533 0.9045 0.0
C1288 C 0.35298 0.60548 0.92874 0.0
H1289 H 0.36144 0.66883 0.88769 0.0
H1290 H 0.34007 0.61879 0.88404 0.0
C1291 C 0.36816 0.61418 0.95487 0.0
C1292 C 0.64425 0.95987 0.36863 0.0
C1293 C 0.66291 0.93448 0.36694 0.0
H1294 H 0.60256 0.97994 0.35487 0.0
C1295 C 0.65195 0.90849 0.35283 0.0
H1296 H 0.652 0.98023 0.37931 0.0
C1297 C 0.62417 0.9086 0.33866 0.0
C1298 C 0.60639 0.93444 0.33878 0.0
H1299 H 0.66522 0.88823 0.35192 0.0
H1300 H 0.61683 0.88872 0.32677 0.0
C1301 C 0.61604 0.95978 0.35471 0.0
C1302 C 0.20956 0.44024 0.46113 0.0
C1303 C 0.2054 0.45685 0.43475 0.0
H1304 H 0.20246 0.39834 0.48363 0.0
C1305 C 0.18844 0.44452 0.41129 0.0
H1306 H 0.22279 0.44936 0.47934 0.0
C1307 C 0.17747 0.41524 0.41344 0.0
C1308 C 0.18263 0.39819 0.43938 0.0
H1309 H 0.18538 0.45682 0.3906 0.0
H1310 H 0.16584 0.40544 0.3945 0.0
C1311 C 0.1979 0.41125 0.4636 0.0
C1312 C 0.42637 0.45112 0.24559 0.0
C1313 C 0.45205 0.44306 0.2292 0.0
H1314 H 0.37882 0.45714 0.2452 0.0
C1315 C 0.44939 0.4384 0.1981 0.0
H1316 H 0.42767 0.45588 0.26933 0.0
C1317 C 0.42124 0.43989 0.18416 0.0
C1318 C 0.39551 0.44573 0.20123 0.0
H1319 H 0.4687 0.43218 0.18484 0.0
H1320 H 0.4193 0.43486 0.1605 0.0
C1321 C 0.39842 0.4521 0.23181 0.0
C1322 C 0.71199 0.1185 0.60783 0.0
C1323 C 0.70837 0.10235 0.63456 0.0
H1324 H 0.70328 0.15954 0.58434 0.0
C1325 C 0.69087 0.11448 0.65767 0.0
H1326 H 0.72562 0.10951 0.58989 0.0
C1327 C 0.67876 0.14321 0.6548 0.0
C1328 C 0.68329 0.15982 0.62848 0.0
H1329 H 0.68821 0.10252 0.67861 0.0
H1330 H 0.66672 0.15298 0.67346 0.0
C1331 C 0.69918 0.14689 0.60464 0.0
C1332 C 0.13928 0.61914 0.74314 0.0
C1333 C 0.11424 0.62757 0.72591 0.0
H1334 H 0.18679 0.61278 0.74446 0.0
C1335 C 0.11805 0.63256 0.69499 0.0
H1336 H 0.13713 0.61405 0.76674 0.0
C1337 C 0.14667 0.63097 0.6821 0.0
C1338 C 0.17173 0.62472 0.70004 0.0
H1339 H 0.09926 0.63904 0.68109 0.0
H1340 H 0.14949 0.63622 0.65858 0.0
C1341 C 0.1677 0.6181 0.73042 0.0
C1342 C 0.8888 0.9479 0.1396 0.0
C1343 C 0.85876 0.95296 0.13136 0.0
H1344 H 0.92356 0.91503 0.14598 0.0
C1345 C 0.84187 0.92894 0.11981 0.0
H1346 H 0.90237 0.96593 0.14854 0.0
C1347 C 0.85376 0.90015 0.11891 0.0
C1348 C 0.88302 0.89477 0.12881 0.0
H1349 H 0.81905 0.93216 0.11228 0.0
H1350 H 0.83982 0.88179 0.11121 0.0
C1351 C 0.90091 0.91892 0.13819 0.0
C1352 C 0.11527 0.8367 0.91052 0.0
C1353 C 0.12247 0.86711 0.90761 0.0
H1354 H 0.11111 0.79916 0.93967 0.0
C1355 C 0.12934 0.88391 0.9333 0.0
H1356 H 0.10948 0.82353 0.89095 0.0
C1357 C 0.13104 0.86982 0.96136 0.0
C1358 C 0.12558 0.83883 0.96397 0.0
H1359 H 0.13502 0.90743 0.93136 0.0
H1360 H 0.13808 0.88281 0.9806 0.0
C1361 C 0.11647 0.82279 0.93838 0.0
C1362 C 0.62421 0.6884 0.13027 0.0
C1363 C 0.62482 0.70622 0.15621 0.0
H1364 H 0.62856 0.68729 0.08236 0.0
C1365 C 0.62741 0.73741 0.15328 0.0
H1366 H 0.62217 0.66429 0.13202 0.0
C1367 C 0.63107 0.7505 0.12524 0.0
C1368 C 0.63226 0.73274 0.09921 0.0
H1369 H 0.6274 0.75171 0.17289 0.0
H1370 H 0.63452 0.77446 0.12438 0.0
C1371 C 0.62806 0.70156 0.10197 0.0
C1372 C 0.44425 0.23898 0.43231 0.0
C1373 C 0.43556 0.22151 0.45706 0.0
H1374 H 0.45128 0.24068 0.38493 0.0
C1375 C 0.43086 0.19056 0.45295 0.0
H1376 H 0.44905 0.26264 0.43476 0.0
C1377 C 0.4329 0.17787 0.42426 0.0
C1378 C 0.43936 0.19604 0.39943 0.0
H1379 H 0.42416 0.1765 0.47153 0.0
H1380 H 0.42782 0.15434 0.42117 0.0
C1381 C 0.4458 0.22645 0.40382 0.0
C1382 C 0.91137 0.3798 0.64058 0.0
C1383 C 0.93727 0.37353 0.65731 0.0
H1384 H 0.88714 0.37195 0.59977 0.0
C1385 C 0.9601 0.35618 0.64445 0.0
H1386 H 0.89348 0.393 0.65029 0.0
C1387 C 0.9562 0.34365 0.61601 0.0
C1388 C 0.9298 0.34898 0.59974 0.0
H1389 H 0.98004 0.35076 0.65718 0.0
H1390 H 0.97326 0.3289 0.60707 0.0
C1391 C 0.90783 0.36794 0.61181 0.0
loop_
_geom_bond_atom_site_label_1
_geom_bond_atom_site_label_2
_geom_bond_distance
_geom_bond_site_symmetry_2
_ccdc_geom_bond_type
C0 C1 1.351 . S
C0 N3 1.368 . S
C0 H5 0.931 1_655 S
C1 C0 1.351 . S
C1 N2 1.373 . S
C1 H29 0.930 . S
N2 C1 1.373 . S
N2 C4 1.340 . S
N3 C0 1.368 . S
N3 C4 1.321 . S
N3 Co6 2.135 1_655 S
C4 N2 1.340 . S
C4 N3 1.321 . S
C4 H28 0.930 . S
H5 C0 0.931 1_455 S
Co6 N3 2.135 1_455 S
Co6 N9 2.121 . S
Co6 O14 2.055 . S
Co6 O17 2.039 1_455 S
Co6 N20 2.140 . S
C7 O8 1.227 . S
C7 O17 1.265 . S
O8 C7 1.227 . S
N9 Co6 2.121 . S
N9 C11 1.375 . S
N9 C12 1.313 . S
C10 C11 1.338 . S
C10 N13 1.377 . S
C10 H30 0.930 . S
C11 N9 1.375 . S
C11 C10 1.338 . S
C11 H15 0.931 . S
C12 N9 1.313 . S
C12 N13 1.344 . S
C12 H16 0.930 . S
N13 C10 1.377 . S
N13 C12 1.344 . S
O14 Co6 2.055 . S
O14 C18 1.253 . S
H15 C11 0.931 . S
H16 C12 0.930 . S
O17 Co6 2.039 1_655 S
O17 C7 1.265 . S
C18 O14 1.253 . S
C18 O19 1.227 . S
O19 C18 1.227 . S
N20 Co6 2.140 . S
N20 C23 1.346 1_545 S
N20 C24 1.345 . S
C21 C22 1.387 . S
C21 C25 1.391 . S
C22 C21 1.387 . S
C22 C23 1.369 . S
C22 H31 0.929 . S
C23 N20 1.346 1_565 S
C23 C22 1.369 . S
C23 H26 0.928 . S
C24 N20 1.345 . S
C24 C25 1.371 1_545 S
C24 H27 0.931 . S
C25 C21 1.391 . S
C25 C24 1.371 1_565 S
C25 H32 0.930 . S
H26 C23 0.928 . S
H27 C24 0.931 . S
H28 C4 0.930 . S
H29 C1 0.930 . S
H30 C10 0.930 . S
H31 C22 0.929 . S
H32 C25 0.930 . S
C33 C34 1.351 . S
C33 N36 1.368 . S
C33 H38 0.931 . S
C34 C33 1.351 . S
C34 N35 1.373 . S
C34 H62 0.930 . S
N35 C34 1.373 . S
N35 C37 1.340 . S
N36 C33 1.368 . S
N36 C37 1.321 . S
N36 Co39 2.135 1_554 S
C37 N35 1.340 . S
C37 N36 1.321 . S
C37 H61 0.930 1_554 S
H38 C33 0.931 . S
Co39 N36 2.135 1_556 S
Co39 N42 2.121 . S
Co39 O47 2.055 . S
Co39 O50 2.039 . S
Co39 N53 2.140 . S
C40 O41 1.227 . S
C40 O50 1.265 . S
O41 C40 1.227 . S
N42 Co39 2.121 . S
N42 C44 1.375 . S
N42 C45 1.313 . S
C43 C44 1.338 . S
C43 N46 1.377 . S
C43 H63 0.930 . S
C44 N42 1.375 . S
C44 C43 1.338 . S
C44 H48 0.931 . S
C45 N42 1.313 . S
C45 N46 1.344 . S
C45 H49 0.930 . S
N46 C43 1.377 . S
N46 C45 1.344 . S
O47 Co39 2.055 . S
O47 C51 1.253 1_556 S
H48 C44 0.931 . S
H49 C45 0.930 . S
O50 Co39 2.039 . S
O50 C40 1.265 . S
C51 O47 1.253 1_554 S
C51 O52 1.227 . S
O52 C51 1.227 . S
N53 Co39 2.140 . S
N53 C56 1.346 . S
N53 C57 1.345 . S
C54 C55 1.391 . S
C54 C58 1.391 1_554 S
C55 C54 1.391 . S
C55 C56 1.360 1_554 S
C55 H64 0.937 . S
C56 N53 1.346 . S
C56 C55 1.360 1_556 S
C56 H59 0.928 . S
C57 N53 1.345 . S
C57 C58 1.371 . S
C57 H60 0.931 . S
C58 C54 1.391 1_556 S
C58 C57 1.371 . S
C58 H65 0.930 . S
H59 C56 0.928 . S
H60 C57 0.931 . S
H61 C37 0.930 1_556 S
H62 C34 0.930 . S
H63 C43 0.930 . S
H64 C55 0.937 . S
H65 C58 0.930 . S
C66 C67 1.351 . S
C66 N69 1.368 . S
C66 H71 0.931 . S
C67 C66 1.351 . S
C67 N68 1.373 . S
C67 H95 0.930 . S
N68 C67 1.373 . S
N68 C70 1.340 . S
N69 C66 1.368 . S
N69 C70 1.321 . S
N69 Co72 2.135 . S
C70 N68 1.340 . S
C70 N69 1.321 . S
C70 H94 0.930 . S
H71 C66 0.931 . S
Co72 N69 2.135 . S
Co72 N75 2.121 . S
Co72 O80 2.055 1_545 S
Co72 O83 2.039 . S
Co72 N86 2.140 . S
C73 O74 1.227 . S
C73 O83 1.265 . S
O74 C73 1.227 . S
N75 Co72 2.121 . S
N75 C77 1.375 . S
N75 C78 1.313 1_545 S
C76 C77 1.338 . S
C76 N79 1.377 1_545 S
C76 H96 0.930 . S
C77 N75 1.375 . S
C77 C76 1.338 . S
C77 H81 0.931 . S
C78 N75 1.313 1_565 S
C78 N79 1.344 . S
C78 H82 0.930 . S
N79 C76 1.377 1_565 S
N79 C78 1.344 . S
O80 Co72 2.055 1_565 S
O80 C84 1.253 . S
H81 C77 0.931 . S
H82 C78 0.930 . S
O83 Co72 2.039 . S
O83 C73 1.265 . S
C84 O80 1.253 . S
C84 O85 1.227 . S
O85 C84 1.227 . S
N86 Co72 2.140 . S
N86 C89 1.346 . S
N86 C90 1.345 . S
C87 C88 1.387 . S
C87 C91 1.391 . S
C88 C87 1.387 . S
C88 C89 1.369 . S
C88 H97 0.929 . S
C89 N86 1.346 . S
C89 C88 1.369 . S
C89 H92 0.928 . S
C90 N86 1.345 . S
C90 C91 1.371 . S
C90 H93 0.931 . S
C91 C87 1.391 . S
C91 C90 1.371 . S
C91 H98 0.930 . S
H92 C89 0.928 . S
H93 C90 0.931 . S
H94 C70 0.930 . S
H95 C67 0.930 . S
H96 C76 0.930 . S
H97 C88 0.929 . S
H98 C91 0.930 . S
C99 C100 1.351 . S
C99 N102 1.368 . S
C99 H104 0.931 . S
C100 C99 1.351 . S
C100 N101 1.373 . S
C100 H128 0.930 . S
N101 C100 1.373 . S
N101 C103 1.340 . S
N102 C99 1.368 . S
N102 C103 1.321 . S
N102 Co105 2.135 . S
C103 N101 1.340 . S
C103 N102 1.321 . S
C103 H127 0.930 . S
H104 C99 0.931 . S
Co105 N102 2.135 . S
Co105 N108 2.121 . S
Co105 O113 2.055 . S
Co105 O116 2.039 . S
Co105 N119 2.140 . S
C106 O107 1.227 . S
C106 O116 1.265 . S
O107 C106 1.227 . S
N108 Co105 2.121 . S
N108 C110 1.375 . S
N108 C111 1.313 . S
C109 C110 1.338 . S
C109 N112 1.377 . S
C109 H129 0.930 . S
C110 N108 1.375 . S
C110 C109 1.338 . S
C110 H114 0.931 . S
C111 N108 1.313 . S
C111 N112 1.344 . S
C111 H115 0.930 . S
N112 C109 1.377 . S
N112 C111 1.344 . S
O113 Co105 2.055 . S
O113 C117 1.253 . S
H114 C110 0.931 . S
H115 C111 0.930 . S
O116 Co105 2.039 . S
O116 C106 1.265 . S
C117 O113 1.253 . S
C117 O118 1.227 . S
O118 C117 1.227 . S
N119 Co105 2.140 . S
N119 C122 1.346 . S
N119 C123 1.345 . S
C120 C121 1.387 . S
C120 C124 1.391 . S
C121 C120 1.387 . S
C121 C122 1.369 . S
C121 H130 0.929 . S
C122 N119 1.346 . S
C122 C121 1.369 . S
C122 H125 0.928 . S
C123 N119 1.345 . S
C123 C124 1.371 . S
C123 H126 0.931 . S
C124 C120 1.391 . S
C124 C123 1.371 . S
C124 H131 0.930 . S
H125 C122 0.928 . S
H126 C123 0.931 . S
H127 C103 0.930 . S
H128 C100 0.930 . S
H129 C109 0.930 . S
H130 C121 0.929 . S
H131 C124 0.930 . S
C132 C133 1.351 . S
C132 N135 1.368 . S
C132 H137 0.931 . S
C133 C132 1.351 . S
C133 N134 1.373 . S
C133 H161 0.930 . S
N134 C133 1.373 . S
N134 C136 1.340 . S
N135 C132 1.368 . S
N135 C136 1.321 . S
N135 Co138 2.135 . S
C136 N134 1.340 . S
C136 N135 1.321 . S
C136 H160 0.930 . S
H137 C132 0.931 . S
Co138 N135 2.135 . S
Co138 N141 2.121 . S
Co138 O146 2.055 . S
Co138 O149 2.039 . S
Co138 N152 2.140 . S
C139 O140 1.227 . S
C139 O149 1.265 . S
O140 C139 1.227 . S
N141 Co138 2.121 . S
N141 C143 1.375 . S
N141 C144 1.313 . S
C142 C143 1.338 . S
C142 N145 1.377 . S
C142 H162 0.930 . S
C143 N141 1.375 . S
C143 C142 1.338 . S
C143 H147 0.931 . S
C144 N141 1.313 . S
C144 N145 1.344 . S
C144 H148 0.930 . S
N145 C142 1.377 . S
N145 C144 1.344 . S
O146 Co138 2.055 . S
O146 C150 1.253 . S
H147 C143 0.931 . S
H148 C144 0.930 . S
O149 Co138 2.039 . S
O149 C139 1.265 . S
C150 O146 1.253 . S
C150 O151 1.227 . S
O151 C150 1.227 . S
N152 Co138 2.140 . S
N152 C155 1.346 . S
N152 C156 1.345 . S
C153 C154 1.387 . S
C153 C157 1.391 . S
C154 C153 1.387 . S
C154 C155 1.369 . S
C154 H163 0.929 . S
C155 N152 1.346 . S
C155 C154 1.369 . S
C155 H158 0.928 . S
C156 N152 1.345 . S
C156 C157 1.371 . S
C156 H159 0.931 . S
C157 C153 1.391 . S
C157 C156 1.371 . S
C157 H164 0.930 . S
H158 C155 0.928 . S
H159 C156 0.931 . S
H160 C136 0.930 . S
H161 C133 0.930 . S
H162 C142 0.930 . S
H163 C154 0.929 . S
H164 C157 0.930 . S
C165 C166 1.351 . S
C165 N168 1.368 . S
C165 H170 0.931 . S
C166 C165 1.351 . S
C166 N167 1.373 . S
C166 H194 0.930 . S
N167 C166 1.373 . S
N167 C169 1.340 . S
N168 C165 1.368 . S
N168 C169 1.321 . S
N168 Co171 2.135 . S
C169 N167 1.340 . S
C169 N168 1.321 . S
C169 H193 0.930 . S
H170 C165 0.931 . S
Co171 N168 2.135 . S
Co171 N174 2.121 . S
Co171 O179 2.055 . S
Co171 O182 2.039 . S
Co171 N185 2.140 . S
C172 O173 1.227 . S
C172 O182 1.265 . S
O173 C172 1.227 . S
N174 Co171 2.121 . S
N174 C176 1.375 . S
N174 C177 1.313 . S
C175 C176 1.338 . S
C175 N178 1.377 . S
C175 H195 0.930 . S
C176 N174 1.375 . S
C176 C175 1.338 . S
C176 H180 0.931 . S
C177 N174 1.313 . S
C177 N178 1.344 . S
C177 H181 0.930 . S
N178 C175 1.377 . S
N178 C177 1.344 . S
O179 Co171 2.055 . S
O179 C183 1.253 . S
H180 C176 0.931 . S
H181 C177 0.930 . S
O182 Co171 2.039 . S
O182 C172 1.265 . S
C183 O179 1.253 . S
C183 O184 1.227 . S
O184 C183 1.227 . S
N185 Co171 2.140 . S
N185 C188 1.346 . S
N185 C189 1.345 . S
C186 C187 1.387 . S
C186 C190 1.391 . S
C187 C186 1.387 . S
C187 C188 1.369 . S
C187 H196 0.929 . S
C188 N185 1.346 . S
C188 C187 1.369 . S
C188 H191 0.928 . S
C189 N185 1.345 . S
C189 C190 1.371 . S
C189 H192 0.931 . S
C190 C186 1.391 . S
C190 C189 1.371 . S
C190 H197 0.930 . S
H191 C188 0.928 . S
H192 C189 0.931 . S
H193 C169 0.930 . S
H194 C166 0.930 . S
H195 C175 0.930 . S
H196 C187 0.929 . S
H197 C190 0.930 . S
C198 C199 1.351 . S
C198 N201 1.368 . S
C198 H203 0.931 . S
C199 C198 1.351 . S
C199 N200 1.373 . S
C199 H227 0.930 . S
N200 C199 1.373 . S
N200 C202 1.340 . S
N201 C198 1.368 . S
N201 C202 1.321 . S
N201 Co204 2.135 . S
C202 N200 1.340 . S
C202 N201 1.321 . S
C202 H226 0.930 . S
H203 C198 0.931 . S
Co204 N201 2.135 . S
Co204 N207 2.121 . S
Co204 O212 2.055 . S
Co204 O215 2.039 . S
Co204 N218 2.140 . S
C205 O206 1.227 . S
C205 O215 1.265 . S
O206 C205 1.227 . S
N207 Co204 2.121 . S
N207 C209 1.375 . S
N207 C210 1.313 1_455 S
C208 C209 1.338 1_655 S
C208 N211 1.377 . S
C208 H228 0.930 . S
C209 N207 1.375 . S
C209 C208 1.338 1_455 S
C209 H213 0.931 . S
C210 N207 1.313 1_655 S
C210 N211 1.344 . S
C210 H214 0.930 . S
N211 C208 1.377 . S
N211 C210 1.344 . S
O212 Co204 2.055 . S
O212 C216 1.253 . S
H213 C209 0.931 . S
H214 C210 0.930 . S
O215 Co204 2.039 . S
O215 C205 1.265 . S
C216 O212 1.253 . S
C216 O217 1.227 . S
O217 C216 1.227 . S
N218 Co204 2.140 . S
N218 C221 1.346 . S
N218 C222 1.345 1_455 S
C219 C220 1.387 1_655 S
C219 C223 1.391 . S
C220 C219 1.387 1_455 S
C220 C221 1.369 . S
C220 H229 0.929 . S
C221 N218 1.346 . S
C221 C220 1.369 . S
C221 H224 0.928 . S
C222 N218 1.345 1_655 S
C222 C223 1.371 . S
C222 H225 0.931 . S
C223 C219 1.391 . S
C223 C222 1.371 . S
C223 H230 0.930 . S
H224 C221 0.928 . S
H225 C222 0.931 . S
H226 C202 0.930 . S
H227 C199 0.930 . S
H228 C208 0.930 . S
H229 C220 0.929 . S
H230 C223 0.930 . S
C231 C232 1.351 . S
C231 N234 1.368 . S
C231 H236 0.931 . S
C232 C231 1.351 . S
C232 N233 1.373 . S
C232 H260 0.930 1_554 S
N233 C232 1.373 . S
N233 C235 1.340 . S
N234 C231 1.368 . S
N234 C235 1.321 . S
N234 Co237 2.135 . S
C235 N233 1.340 . S
C235 N234 1.321 . S
C235 H259 0.930 . S
H236 C231 0.931 . S
Co237 N234 2.135 . S
Co237 N240 2.121 . S
Co237 O245 2.055 . S
Co237 O248 2.039 . S
Co237 N251 2.140 . S
C238 O239 1.227 . S
C238 O248 1.265 . S
O239 C238 1.227 . S
N240 Co237 2.121 . S
N240 C242 1.375 . S
N240 C243 1.313 . S
C241 C242 1.338 . S
C241 N244 1.377 . S
C241 H261 0.930 . S
C242 N240 1.375 . S
C242 C241 1.338 . S
C242 H246 0.931 . S
C243 N240 1.313 . S
C243 N244 1.344 . S
C243 H247 0.930 . S
N244 C241 1.377 . S
N244 C243 1.344 . S
O245 Co237 2.055 . S
O245 C249 1.253 . S
H246 C242 0.931 . S
H247 C243 0.930 . S
O248 Co237 2.039 . S
O248 C238 1.265 . S
C249 O245 1.253 . S
C249 O250 1.227 . S
O250 C249 1.227 . S
N251 Co237 2.140 . S
N251 C254 1.346 . S
N251 C255 1.345 . S
C252 C253 1.387 . S
C252 C256 1.391 . S
C253 C252 1.387 . S
C253 C254 1.369 . S
C253 H262 0.929 . S
C254 N251 1.346 . S
C254 C253 1.369 . S
C254 H257 0.928 . S
C255 N251 1.345 . S
C255 C256 1.371 . S
C255 H258 0.931 . S
C256 C252 1.391 . S
C256 C255 1.371 . S
C256 H263 0.930 . S
H257 C254 0.928 . S
H258 C255 0.931 . S
H259 C235 0.930 . S
H260 C232 0.930 1_556 S
H261 C241 0.930 . S
H262 C253 0.929 . S
H263 C256 0.930 . S
C264 C265 1.351 . S
C264 N267 1.368 . S
C264 H269 0.931 1_565 S
C265 C264 1.351 . S
C265 N266 1.373 . S
C265 H293 0.930 . S
N266 C265 1.373 . S
N266 C268 1.340 . S
N267 C264 1.368 . S
N267 C268 1.321 . S
N267 Co270 2.135 1_565 S
C268 N266 1.340 . S
C268 N267 1.321 . S
C268 H292 0.930 . S
H269 C264 0.931 1_545 S
Co270 N267 2.135 1_545 S
Co270 N273 2.121 . S
Co270 O278 2.055 . S
Co270 O281 2.039 1_545 S
Co270 N284 2.140 . S
C271 O272 1.227 . S
C271 O281 1.265 . S
O272 C271 1.227 . S
N273 Co270 2.121 . S
N273 C275 1.375 . S
N273 C276 1.313 . S
C274 C275 1.338 . S
C274 N277 1.377 . S
C274 H294 0.930 . S
C275 N273 1.375 . S
C275 C274 1.338 . S
C275 H279 0.931 . S
C276 N273 1.313 . S
C276 N277 1.344 . S
C276 H280 0.930 . S
N277 C274 1.377 . S
N277 C276 1.344 . S
O278 Co270 2.055 . S
O278 C282 1.253 . S
H279 C275 0.931 . S
H280 C276 0.930 . S
O281 Co270 2.039 1_565 S
O281 C271 1.265 . S
C282 O278 1.253 . S
C282 O283 1.227 . S
O283 C282 1.227 . S
N284 Co270 2.140 . S
N284 C287 1.346 1_554 S
N284 C288 1.345 . S
C285 C286 1.387 . S
C285 C289 1.391 . S
C286 C285 1.387 . S
C286 C287 1.369 . S
C286 H295 0.929 . S
C287 N284 1.346 1_556 S
C287 C286 1.369 . S
C287 H290 0.928 . S
C288 N284 1.345 . S
C288 C289 1.371 1_554 S
C288 H291 0.931 . S
C289 C285 1.391 . S
C289 C288 1.371 1_556 S
C289 H296 0.930 . S
H290 C287 0.928 . S
H291 C288 0.931 . S
H292 C268 0.930 . S
H293 C265 0.930 . S
H294 C274 0.930 . S
H295 C286 0.929 . S
H296 C289 0.930 . S
C297 C298 1.351 . S
C297 N300 1.368 . S
C297 H302 0.931 . S
C298 C297 1.351 . S
C298 N299 1.373 . S
C298 H326 0.930 . S
N299 C298 1.373 . S
N299 C301 1.340 . S
N300 C297 1.368 . S
N300 C301 1.321 . S
N300 Co303 2.135 . S
C301 N299 1.340 . S
C301 N300 1.321 . S
C301 H325 0.930 . S
H302 C297 0.931 . S
Co303 N300 2.135 . S
Co303 N306 2.121 . S
Co303 O311 2.055 . S
Co303 O314 2.039 . S
Co303 N317 2.140 . S
C304 O305 1.227 . S
C304 O314 1.265 . S
O305 C304 1.227 . S
N306 Co303 2.121 . S
N306 C308 1.375 . S
N306 C309 1.313 . S
C307 C308 1.338 . S
C307 N310 1.377 . S
C307 H327 0.930 . S
C308 N306 1.375 . S
C308 C307 1.338 . S
C308 H312 0.931 . S
C309 N306 1.313 . S
C309 N310 1.344 . S
C309 H313 0.930 . S
N310 C307 1.377 . S
N310 C309 1.344 . S
O311 Co303 2.055 . S
O311 C315 1.253 . S
H312 C308 0.931 . S
H313 C309 0.930 . S
O314 Co303 2.039 . S
O314 C304 1.265 . S
C315 O311 1.253 . S
C315 O316 1.227 . S
O316 C315 1.227 . S
N317 Co303 2.140 . S
N317 C320 1.346 . S
N317 C321 1.345 . S
C318 C319 1.387 . S
C318 C322 1.391 . S
C319 C318 1.387 . S
C319 C320 1.369 . S
C319 H328 0.929 . S
C320 N317 1.346 . S
C320 C319 1.369 . S
C320 H323 0.928 . S
C321 N317 1.345 . S
C321 C322 1.371 . S
C321 H324 0.931 . S
C322 C318 1.391 . S
C322 C321 1.371 . S
C322 H329 0.930 . S
H323 C320 0.928 . S
H324 C321 0.931 . S
H325 C301 0.930 . S
H326 C298 0.930 . S
H327 C307 0.930 . S
H328 C319 0.929 . S
H329 C322 0.930 . S
C330 C331 1.351 . S
C330 N333 1.368 . S
C330 H335 0.931 . S
C331 C330 1.351 . S
C331 N332 1.373 . S
C331 H359 0.930 . S
N332 C331 1.373 . S
N332 C334 1.340 . S
N333 C330 1.368 . S
N333 C334 1.321 . S
N333 Co336 2.135 . S
C334 N332 1.340 . S
C334 N333 1.321 . S
C334 H358 0.930 . S
H335 C330 0.931 . S
Co336 N333 2.135 . S
Co336 N339 2.121 . S
Co336 O344 2.055 . S
Co336 O347 2.039 . S
Co336 N350 2.140 . S
C337 O338 1.227 . S
C337 O347 1.265 . S
O338 C337 1.227 . S
N339 Co336 2.121 . S
N339 C341 1.375 . S
N339 C342 1.313 1_545 S
C340 C341 1.338 1_565 S
C340 N343 1.377 . S
C340 H360 0.930 . S
C341 N339 1.375 . S
C341 C340 1.338 1_545 S
C341 H345 0.931 . S
C342 N339 1.313 1_565 S
C342 N343 1.344 . S
C342 H346 0.930 . S
N343 C340 1.377 . S
N343 C342 1.344 . S
O344 Co336 2.055 . S
O344 C348 1.253 . S
H345 C341 0.931 . S
H346 C342 0.930 . S
O347 Co336 2.039 . S
O347 C337 1.265 . S
C348 O344 1.253 . S
C348 O349 1.227 . S
O349 C348 1.227 . S
N350 Co336 2.140 . S
N350 C353 1.346 . S
N350 C354 1.345 1_545 S
C351 C352 1.387 1_565 S
C351 C355 1.391 . S
C352 C351 1.387 1_545 S
C352 C353 1.369 . S
C352 H361 0.929 . S
C353 N350 1.346 . S
C353 C352 1.369 . S
C353 H356 0.928 . S
C354 N350 1.345 1_565 S
C354 C355 1.371 . S
C354 H357 0.931 . S
C355 C351 1.391 . S
C355 C354 1.371 . S
C355 H362 0.930 . S
H356 C353 0.928 . S
H357 C354 0.931 . S
H358 C334 0.930 . S
H359 C331 0.930 . S
H360 C340 0.930 . S
H361 C352 0.929 . S
H362 C355 0.930 . S
C363 C364 1.351 . S
C363 N366 1.368 . S
C363 H368 0.931 . S
C364 C363 1.351 . S
C364 N365 1.373 . S
C364 H392 0.930 . S
N365 C364 1.373 . S
N365 C367 1.340 . S
N366 C363 1.368 . S
N366 C367 1.321 . S
N366 Co369 2.135 . S
C367 N365 1.340 . S
C367 N366 1.321 . S
C367 H391 0.930 . S
H368 C363 0.931 . S
Co369 N366 2.135 . S
Co369 N372 2.121 . S
Co369 O377 2.055 . S
Co369 O380 2.039 . S
Co369 N383 2.140 . S
C370 O371 1.227 . S
C370 O380 1.265 . S
O371 C370 1.227 . S
N372 Co369 2.121 . S
N372 C374 1.375 . S
N372 C375 1.313 . S
C373 C374 1.338 . S
C373 N376 1.377 . S
C373 H393 0.930 . S
C374 N372 1.375 . S
C374 C373 1.338 . S
C374 H378 0.931 . S
C375 N372 1.313 . S
C375 N376 1.344 . S
C375 H379 0.930 . S
N376 C373 1.377 . S
N376 C375 1.344 . S
O377 Co369 2.055 . S
O377 C381 1.253 . S
H378 C374 0.931 . S
H379 C375 0.930 . S
O380 Co369 2.039 . S
O380 C370 1.265 . S
C381 O377 1.253 . S
C381 O382 1.227 . S
O382 C381 1.227 . S
N383 Co369 2.140 . S
N383 C386 1.346 . S
N383 C387 1.345 . S
C384 C385 1.387 . S
C384 C388 1.391 . S
C385 C384 1.387 . S
C385 C386 1.369 . S
C385 H394 0.929 . S
C386 N383 1.346 . S
C386 C385 1.369 . S
C386 H389 0.928 . S
C387 N383 1.345 . S
C387 C388 1.371 . S
C387 H390 0.931 . S
C388 C384 1.391 . S
C388 C387 1.371 . S
C388 H395 0.930 . S
H389 C386 0.928 . S
H390 C387 0.931 . S
H391 C367 0.930 . S
H392 C364 0.930 . S
H393 C373 0.930 . S
H394 C385 0.929 . S
H395 C388 0.930 . S
C396 C397 1.351 . S
C396 N399 1.368 . S
C396 H401 0.931 . S
C397 C396 1.351 . S
C397 N398 1.373 . S
C397 H425 0.930 . S
N398 C397 1.373 . S
N398 C400 1.340 . S
N399 C396 1.368 . S
N399 C400 1.321 . S
N399 Co402 2.135 . S
C400 N398 1.340 . S
C400 N399 1.321 . S
C400 H424 0.930 . S
H401 C396 0.931 . S
Co402 N399 2.135 . S
Co402 N405 2.121 . S
Co402 O410 2.055 1_554 S
Co402 O413 2.039 . S
Co402 N416 2.140 . S
C403 O404 1.227 . S
C403 O413 1.265 . S
O404 C403 1.227 . S
N405 Co402 2.121 . S
N405 C407 1.375 . S
N405 C408 1.313 1_554 S
C406 C407 1.338 . S
C406 N409 1.377 1_554 S
C406 H426 0.930 . S
C407 N405 1.375 . S
C407 C406 1.338 . S
C407 H411 0.931 . S
C408 N405 1.313 1_556 S
C408 N409 1.344 . S
C408 H412 0.930 . S
N409 C406 1.377 1_556 S
N409 C408 1.344 . S
O410 Co402 2.055 1_556 S
O410 C414 1.253 . S
H411 C407 0.931 . S
H412 C408 0.930 . S
O413 Co402 2.039 . S
O413 C403 1.265 . S
C414 O410 1.253 . S
C414 O415 1.227 . S
O415 C414 1.227 . S
N416 Co402 2.140 . S
N416 C419 1.346 . S
N416 C420 1.345 . S
C417 C418 1.387 . S
C417 C421 1.391 . S
C418 C417 1.387 . S
C418 C419 1.369 . S
C418 H427 0.929 . S
C419 N416 1.346 . S
C419 C418 1.369 . S
C419 H422 0.928 . S
C420 N416 1.345 . S
C420 C421 1.371 . S
C420 H423 0.931 . S
C421 C417 1.391 . S
C421 C420 1.371 . S
C421 H428 0.930 . S
H422 C419 0.928 . S
H423 C420 0.931 . S
H424 C400 0.930 . S
H425 C397 0.930 . S
H426 C406 0.930 . S
H427 C418 0.929 . S
H428 C421 0.930 . S
C429 C430 1.351 . S
C429 N432 1.368 . S
C429 H434 0.931 . S
C430 C429 1.351 . S
C430 N431 1.373 . S
C430 H458 0.930 . S
N431 C430 1.373 . S
N431 C433 1.340 . S
N432 C429 1.368 . S
N432 C433 1.321 . S
N432 Co435 2.135 1_545 S
C433 N431 1.340 . S
C433 N432 1.321 . S
C433 H457 0.930 1_545 S
H434 C429 0.931 . S
Co435 N432 2.135 1_565 S
Co435 N438 2.121 . S
Co435 O443 2.055 . S
Co435 O446 2.039 . S
Co435 N449 2.140 . S
C436 O437 1.227 . S
C436 O446 1.265 . S
O437 C436 1.227 . S
N438 Co435 2.121 . S
N438 C440 1.375 . S
N438 C441 1.313 . S
C439 C440 1.338 . S
C439 N442 1.377 . S
C439 H459 0.930 . S
C440 N438 1.375 . S
C440 C439 1.338 . S
C440 H444 0.931 . S
C441 N438 1.313 . S
C441 N442 1.344 . S
C441 H445 0.930 . S
N442 C439 1.377 . S
N442 C441 1.344 . S
O443 Co435 2.055 . S
O443 C447 1.253 1_565 S
H444 C440 0.931 . S
H445 C441 0.930 . S
O446 Co435 2.039 . S
O446 C436 1.265 . S
C447 O443 1.253 1_545 S
C447 O448 1.227 . S
O448 C447 1.227 . S
N449 Co435 2.140 . S
N449 C452 1.346 . S
N449 C453 1.345 . S
C450 C451 1.391 . S
C450 C454 1.391 1_545 S
C451 C450 1.391 . S
C451 C452 1.360 1_545 S
C451 H460 0.937 . S
C452 N449 1.346 . S
C452 C451 1.360 1_565 S
C452 H455 0.928 . S
C453 N449 1.345 . S
C453 C454 1.371 . S
C453 H456 0.931 . S
C454 C450 1.391 1_565 S
C454 C453 1.371 . S
C454 H461 0.930 . S
H455 C452 0.928 . S
H456 C453 0.931 . S
H457 C433 0.930 1_565 S
H458 C430 0.930 . S
H459 C439 0.930 . S
H460 C451 0.937 . S
H461 C454 0.930 . S
C462 C463 1.351 . S
C462 N465 1.368 . S
C462 H467 0.931 . S
C463 C462 1.351 . S
C463 N464 1.373 . S
C463 H491 0.930 . S
N464 C463 1.373 . S
N464 C466 1.340 . S
N465 C462 1.368 . S
N465 C466 1.321 . S
N465 Co468 2.135 . S
C466 N464 1.340 . S
C466 N465 1.321 . S
C466 H490 0.930 . S
H467 C462 0.931 . S
Co468 N465 2.135 . S
Co468 N471 2.121 . S
Co468 O476 2.055 . S
Co468 O479 2.039 . S
Co468 N482 2.140 . S
C469 O470 1.227 . S
C469 O479 1.265 . S
O470 C469 1.227 . S
N471 Co468 2.121 . S
N471 C473 1.375 . S
N471 C474 1.313 . S
C472 C473 1.338 . S
C472 N475 1.377 . S
C472 H492 0.930 . S
C473 N471 1.375 . S
C473 C472 1.338 . S
C473 H477 0.931 . S
C474 N471 1.313 . S
C474 N475 1.344 . S
C474 H478 0.930 . S
N475 C472 1.377 . S
N475 C474 1.344 . S
O476 Co468 2.055 . S
O476 C480 1.253 . S
H477 C473 0.931 . S
H478 C474 0.930 . S
O479 Co468 2.039 . S
O479 C469 1.265 . S
C480 O476 1.253 . S
C480 O481 1.227 . S
O481 C480 1.227 . S
N482 Co468 2.140 . S
N482 C485 1.346 . S
N482 C486 1.345 . S
C483 C484 1.387 . S
C483 C487 1.391 . S
C484 C483 1.387 . S
C484 C485 1.369 . S
C484 H493 0.929 . S
C485 N482 1.346 . S
C485 C484 1.369 . S
C485 H488 0.928 . S
C486 N482 1.345 . S
C486 C487 1.371 . S
C486 H489 0.931 . S
C487 C483 1.391 . S
C487 C486 1.371 . S
C487 H494 0.930 . S
H488 C485 0.928 . S
H489 C486 0.931 . S
H490 C466 0.930 . S
H491 C463 0.930 . S
H492 C472 0.930 . S
H493 C484 0.929 . S
H494 C487 0.930 . S
C495 C496 1.351 . S
C495 N498 1.368 . S
C495 H500 0.931 . S
C496 C495 1.351 . S
C496 N497 1.373 . S
C496 H524 0.930 1_545 S
N497 C496 1.373 . S
N497 C499 1.340 . S
N498 C495 1.368 . S
N498 C499 1.321 . S
N498 Co501 2.135 . S
C499 N497 1.340 . S
C499 N498 1.321 . S
C499 H523 0.930 . S
H500 C495 0.931 . S
Co501 N498 2.135 . S
Co501 N504 2.121 . S
Co501 O509 2.055 . S
Co501 O512 2.039 . S
Co501 N515 2.140 . S
C502 O503 1.227 . S
C502 O512 1.265 . S
O503 C502 1.227 . S
N504 Co501 2.121 . S
N504 C506 1.375 . S
N504 C507 1.313 . S
C505 C506 1.338 . S
C505 N508 1.377 . S
C505 H525 0.930 . S
C506 N504 1.375 . S
C506 C505 1.338 . S
C506 H510 0.931 . S
C507 N504 1.313 . S
C507 N508 1.344 . S
C507 H511 0.930 . S
N508 C505 1.377 . S
N508 C507 1.344 . S
O509 Co501 2.055 . S
O509 C513 1.253 . S
H510 C506 0.931 . S
H511 C507 0.930 . S
O512 Co501 2.039 . S
O512 C502 1.265 . S
C513 O509 1.253 . S
C513 O514 1.227 . S
O514 C513 1.227 . S
N515 Co501 2.140 . S
N515 C518 1.346 . S
N515 C519 1.345 . S
C516 C517 1.387 . S
C516 C520 1.391 . S
C517 C516 1.387 . S
C517 C518 1.369 . S
C517 H526 0.929 . S
C518 N515 1.346 . S
C518 C517 1.369 . S
C518 H521 0.928 . S
C519 N515 1.345 . S
C519 C520 1.371 . S
C519 H522 0.931 . S
C520 C516 1.391 . S
C520 C519 1.371 . S
C520 H527 0.930 . S
H521 C518 0.928 . S
H522 C519 0.931 . S
H523 C499 0.930 . S
H524 C496 0.930 1_565 S
H525 C505 0.930 . S
H526 C517 0.929 . S
H527 C520 0.930 . S
C528 C529 1.351 . S
C528 N531 1.368 . S
C528 H533 0.931 1_556 S
C529 C528 1.351 . S
C529 N530 1.373 . S
C529 H557 0.930 . S
N530 C529 1.373 . S
N530 C532 1.340 . S
N531 C528 1.368 . S
N531 C532 1.321 . S
N531 Co534 2.135 1_556 S
C532 N530 1.340 . S
C532 N531 1.321 . S
C532 H556 0.930 . S
H533 C528 0.931 1_554 S
Co534 N531 2.135 1_554 S
Co534 N537 2.121 . S
Co534 O542 2.055 . S
Co534 O545 2.039 1_554 S
Co534 N548 2.140 . S
C535 O536 1.227 . S
C535 O545 1.265 . S
O536 C535 1.227 . S
N537 Co534 2.121 . S
N537 C539 1.375 . S
N537 C540 1.313 . S
C538 C539 1.338 . S
C538 N541 1.377 . S
C538 H558 0.930 . S
C539 N537 1.375 . S
C539 C538 1.338 . S
C539 H543 0.931 . S
C540 N537 1.313 . S
C540 N541 1.344 . S
C540 H544 0.930 . S
N541 C538 1.377 . S
N541 C540 1.344 . S
O542 Co534 2.055 . S
O542 C546 1.253 . S
H543 C539 0.931 . S
H544 C540 0.930 . S
O545 Co534 2.039 1_556 S
O545 C535 1.265 . S
C546 O542 1.253 . S
C546 O547 1.227 . S
O547 C546 1.227 . S
N548 Co534 2.140 . S
N548 C551 1.346 1_455 S
N548 C552 1.345 . S
C549 C550 1.387 . S
C549 C553 1.391 . S
C550 C549 1.387 . S
C550 C551 1.369 . S
C550 H559 0.929 . S
C551 N548 1.346 1_655 S
C551 C550 1.369 . S
C551 H554 0.928 . S
C552 N548 1.345 . S
C552 C553 1.371 1_455 S
C552 H555 0.931 . S
C553 C549 1.391 . S
C553 C552 1.371 1_655 S
C553 H560 0.930 . S
H554 C551 0.928 . S
H555 C552 0.931 . S
H556 C532 0.930 . S
H557 C529 0.930 . S
H558 C538 0.930 . S
H559 C550 0.929 . S
H560 C553 0.930 . S
C561 C562 1.351 . S
C561 N564 1.368 . S
C561 H566 0.931 . S
C562 C561 1.351 . S
C562 N563 1.373 . S
C562 H590 0.930 . S
N563 C562 1.373 . S
N563 C565 1.340 . S
N564 C561 1.368 . S
N564 C565 1.321 . S
N564 Co567 2.135 . S
C565 N563 1.340 . S
C565 N564 1.321 . S
C565 H589 0.930 . S
H566 C561 0.931 . S
Co567 N564 2.135 . S
Co567 N570 2.121 . S
Co567 O575 2.055 . S
Co567 O578 2.039 . S
Co567 N581 2.140 . S
C568 O569 1.227 . S
C568 O578 1.265 . S
O569 C568 1.227 . S
N570 Co567 2.121 . S
N570 C572 1.375 . S
N570 C573 1.313 1_554 S
C571 C572 1.338 1_556 S
C571 N574 1.377 . S
C571 H591 0.930 . S
C572 N570 1.375 . S
C572 C571 1.338 1_554 S
C572 H576 0.931 . S
C573 N570 1.313 1_556 S
C573 N574 1.344 . S
C573 H577 0.930 . S
N574 C571 1.377 . S
N574 C573 1.344 . S
O575 Co567 2.055 . S
O575 C579 1.253 . S
H576 C572 0.931 . S
H577 C573 0.930 . S
O578 Co567 2.039 . S
O578 C568 1.265 . S
C579 O575 1.253 . S
C579 O580 1.227 . S
O580 C579 1.227 . S
N581 Co567 2.140 . S
N581 C584 1.346 . S
N581 C585 1.345 1_554 S
C582 C583 1.387 1_556 S
C582 C586 1.391 . S
C583 C582 1.387 1_554 S
C583 C584 1.369 . S
C583 H592 0.929 . S
C584 N581 1.346 . S
C584 C583 1.369 . S
C584 H587 0.928 . S
C585 N581 1.345 1_556 S
C585 C586 1.371 . S
C585 H588 0.931 . S
C586 C582 1.391 . S
C586 C585 1.371 . S
C586 H593 0.930 . S
H587 C584 0.928 . S
H588 C585 0.931 . S
H589 C565 0.930 . S
H590 C562 0.930 . S
H591 C571 0.930 . S
H592 C583 0.929 . S
H593 C586 0.930 . S
C594 C595 1.351 . S
C594 N597 1.368 . S
C594 H599 0.931 . S
C595 C594 1.351 . S
C595 N596 1.373 . S
C595 H623 0.930 . S
N596 C595 1.373 . S
N596 C598 1.340 . S
N597 C594 1.368 . S
N597 C598 1.321 . S
N597 Co600 2.135 . S
C598 N596 1.340 . S
C598 N597 1.321 . S
C598 H622 0.930 . S
H599 C594 0.931 . S
Co600 N597 2.135 . S
Co600 N603 2.121 . S
Co600 O608 2.055 . S
Co600 O611 2.039 . S
Co600 N614 2.140 . S
C601 O602 1.227 . S
C601 O611 1.265 . S
O602 C601 1.227 . S
N603 Co600 2.121 . S
N603 C605 1.375 . S
N603 C606 1.313 . S
C604 C605 1.338 . S
C604 N607 1.377 . S
C604 H624 0.930 . S
C605 N603 1.375 . S
C605 C604 1.338 . S
C605 H609 0.931 . S
C606 N603 1.313 . S
C606 N607 1.344 . S
C606 H610 0.930 . S
N607 C604 1.377 . S
N607 C606 1.344 . S
O608 Co600 2.055 . S
O608 C612 1.253 . S
H609 C605 0.931 . S
H610 C606 0.930 . S
O611 Co600 2.039 . S
O611 C601 1.265 . S
C612 O608 1.253 . S
C612 O613 1.227 . S
O613 C612 1.227 . S
N614 Co600 2.140 . S
N614 C617 1.346 . S
N614 C618 1.345 . S
C615 C616 1.387 . S
C615 C619 1.391 . S
C616 C615 1.387 . S
C616 C617 1.369 . S
C616 H625 0.929 . S
C617 N614 1.346 . S
C617 C616 1.369 . S
C617 H620 0.928 . S
C618 N614 1.345 . S
C618 C619 1.371 . S
C618 H621 0.931 . S
C619 C615 1.391 . S
C619 C618 1.371 . S
C619 H626 0.930 . S
H620 C617 0.928 . S
H621 C618 0.931 . S
H622 C598 0.930 . S
H623 C595 0.930 . S
H624 C604 0.930 . S
H625 C616 0.929 . S
H626 C619 0.930 . S
C627 C628 1.351 . S
C627 N630 1.368 . S
C627 H632 0.931 . S
C628 C627 1.351 . S
C628 N629 1.373 . S
C628 H656 0.930 . S
N629 C628 1.373 . S
N629 C631 1.340 . S
N630 C627 1.368 . S
N630 C631 1.321 . S
N630 Co633 2.135 . S
C631 N629 1.340 . S
C631 N630 1.321 . S
C631 H655 0.930 . S
H632 C627 0.931 . S
Co633 N630 2.135 . S
Co633 N636 2.121 . S
Co633 O641 2.055 1_455 S
Co633 O644 2.039 . S
Co633 N647 2.140 . S
C634 O635 1.227 . S
C634 O644 1.265 . S
O635 C634 1.227 . S
N636 Co633 2.121 . S
N636 C638 1.375 . S
N636 C639 1.313 1_455 S
C637 C638 1.338 . S
C637 N640 1.377 1_455 S
C637 H657 0.930 . S
C638 N636 1.375 . S
C638 C637 1.338 . S
C638 H642 0.931 . S
C639 N636 1.313 1_655 S
C639 N640 1.344 . S
C639 H643 0.930 . S
N640 C637 1.377 1_655 S
N640 C639 1.344 . S
O641 Co633 2.055 1_655 S
O641 C645 1.253 . S
H642 C638 0.931 . S
H643 C639 0.930 . S
O644 Co633 2.039 . S
O644 C634 1.265 . S
C645 O641 1.253 . S
C645 O646 1.227 . S
O646 C645 1.227 . S
N647 Co633 2.140 . S
N647 C650 1.346 . S
N647 C651 1.345 . S
C648 C649 1.387 . S
C648 C652 1.391 . S
C649 C648 1.387 . S
C649 C650 1.369 . S
C649 H658 0.929 . S
C650 N647 1.346 . S
C650 C649 1.369 . S
C650 H653 0.928 . S
C651 N647 1.345 . S
C651 C652 1.371 . S
C651 H654 0.931 . S
C652 C648 1.391 . S
C652 C651 1.371 . S
C652 H659 0.930 . S
H653 C650 0.928 . S
H654 C651 0.931 . S
H655 C631 0.930 . S
H656 C628 0.930 . S
H657 C637 0.930 . S
H658 C649 0.929 . S
H659 C652 0.930 . S
C660 C661 1.351 . S
C660 N663 1.368 . S
C660 H665 0.931 . S
C661 C660 1.351 . S
C661 N662 1.373 . S
C661 H689 0.930 1_455 S
N662 C661 1.373 . S
N662 C664 1.340 . S
N663 C660 1.368 . S
N663 C664 1.321 . S
N663 Co666 2.135 . S
C664 N662 1.340 . S
C664 N663 1.321 . S
C664 H688 0.930 . S
H665 C660 0.931 . S
Co666 N663 2.135 . S
Co666 N669 2.121 . S
Co666 O674 2.055 . S
Co666 O677 2.039 . S
Co666 N680 2.140 . S
C667 O668 1.227 . S
C667 O677 1.265 . S
O668 C667 1.227 . S
N669 Co666 2.121 . S
N669 C671 1.375 . S
N669 C672 1.313 . S
C670 C671 1.338 . S
C670 N673 1.377 . S
C670 H690 0.930 . S
C671 N669 1.375 . S
C671 C670 1.338 . S
C671 H675 0.931 . S
C672 N669 1.313 . S
C672 N673 1.344 . S
C672 H676 0.930 . S
N673 C670 1.377 . S
N673 C672 1.344 . S
O674 Co666 2.055 . S
O674 C678 1.253 . S
H675 C671 0.931 . S
H676 C672 0.930 . S
O677 Co666 2.039 . S
O677 C667 1.265 . S
C678 O674 1.253 . S
C678 O679 1.227 . S
O679 C678 1.227 . S
N680 Co666 2.140 . S
N680 C683 1.346 . S
N680 C684 1.345 . S
C681 C682 1.387 . S
C681 C685 1.391 . S
C682 C681 1.387 . S
C682 C683 1.369 . S
C682 H691 0.929 . S
C683 N680 1.346 . S
C683 C682 1.369 . S
C683 H686 0.928 . S
C684 N680 1.345 . S
C684 C685 1.371 . S
C684 H687 0.931 . S
C685 C681 1.391 . S
C685 C684 1.371 . S
C685 H692 0.930 . S
H686 C683 0.928 . S
H687 C684 0.931 . S
H688 C664 0.930 . S
H689 C661 0.930 1_655 S
H690 C670 0.930 . S
H691 C682 0.929 . S
H692 C685 0.930 . S
C693 C694 1.351 . S
C693 N696 1.368 . S
C693 H698 0.931 . S
C694 C693 1.351 . S
C694 N695 1.373 . S
C694 H722 0.930 . S
N695 C694 1.373 . S
N695 C697 1.340 . S
N696 C693 1.368 . S
N696 C697 1.321 . S
N696 Co699 2.135 . S
C697 N695 1.340 . S
C697 N696 1.321 . S
C697 H721 0.930 . S
H698 C693 0.931 . S
Co699 N696 2.135 . S
Co699 N702 2.121 . S
Co699 O707 2.055 . S
Co699 O710 2.039 . S
Co699 N713 2.140 . S
C700 O701 1.227 . S
C700 O710 1.265 . S
O701 C700 1.227 . S
N702 Co699 2.121 . S
N702 C704 1.375 . S
N702 C705 1.313 . S
C703 C704 1.338 . S
C703 N706 1.377 . S
C703 H723 0.930 . S
C704 N702 1.375 . S
C704 C703 1.338 . S
C704 H708 0.931 . S
C705 N702 1.313 . S
C705 N706 1.344 . S
C705 H709 0.930 . S
N706 C703 1.377 . S
N706 C705 1.344 . S
O707 Co699 2.055 . S
O707 C711 1.253 . S
H708 C704 0.931 . S
H709 C705 0.930 . S
O710 Co699 2.039 . S
O710 C700 1.265 . S
C711 O707 1.253 . S
C711 O712 1.227 . S
O712 C711 1.227 . S
N713 Co699 2.140 . S
N713 C716 1.346 . S
N713 C717 1.345 . S
C714 C715 1.387 . S
C714 C718 1.391 . S
C715 C714 1.387 . S
C715 C716 1.369 . S
C715 H724 0.929 . S
C716 N713 1.346 . S
C716 C715 1.369 . S
C716 H719 0.928 . S
C717 N713 1.345 . S
C717 C718 1.371 . S
C717 H720 0.931 . S
C718 C714 1.391 . S
C718 C717 1.371 . S
C718 H725 0.930 . S
H719 C716 0.928 . S
H720 C717 0.931 . S
H721 C697 0.930 . S
H722 C694 0.930 . S
H723 C703 0.930 . S
H724 C715 0.929 . S
H725 C718 0.930 . S
C726 C727 1.351 . S
C726 N729 1.368 . S
C726 H731 0.931 . S
C727 C726 1.351 . S
C727 N728 1.373 . S
C727 H755 0.930 . S
N728 C727 1.373 . S
N728 C730 1.340 . S
N729 C726 1.368 . S
N729 C730 1.321 . S
N729 Co732 2.135 1_455 S
C730 N728 1.340 . S
C730 N729 1.321 . S
C730 H754 0.930 1_455 S
H731 C726 0.931 . S
Co732 N729 2.135 1_655 S
Co732 N735 2.121 . S
Co732 O740 2.055 . S
Co732 O743 2.039 . S
Co732 N746 2.140 . S
C733 O734 1.227 . S
C733 O743 1.265 . S
O734 C733 1.227 . S
N735 Co732 2.121 . S
N735 C737 1.375 . S
N735 C738 1.313 . S
C736 C737 1.338 . S
C736 N739 1.377 . S
C736 H756 0.930 . S
C737 N735 1.375 . S
C737 C736 1.338 . S
C737 H741 0.931 . S
C738 N735 1.313 . S
C738 N739 1.344 . S
C738 H742 0.930 . S
N739 C736 1.377 . S
N739 C738 1.344 . S
O740 Co732 2.055 . S
O740 C744 1.253 1_655 S
H741 C737 0.931 . S
H742 C738 0.930 . S
O743 Co732 2.039 . S
O743 C733 1.265 . S
C744 O740 1.253 1_455 S
C744 O745 1.227 . S
O745 C744 1.227 . S
N746 Co732 2.140 . S
N746 C749 1.346 . S
N746 C750 1.345 . S
C747 C748 1.391 . S
C747 C751 1.391 1_455 S
C748 C747 1.391 . S
C748 C749 1.360 1_455 S
C748 H757 0.937 . S
C749 N746 1.346 . S
C749 C748 1.360 1_655 S
C749 H752 0.928 . S
C750 N746 1.345 . S
C750 C751 1.371 . S
C750 H753 0.931 . S
C751 C747 1.391 1_655 S
C751 C750 1.371 . S
C751 H758 0.930 . S
H752 C749 0.928 . S
H753 C750 0.931 . S
H754 C730 0.930 1_655 S
H755 C727 0.930 . S
H756 C736 0.930 . S
H757 C748 0.937 . S
H758 C751 0.930 . S
C759 C760 1.351 . S
C759 N762 1.368 . S
C759 H764 0.931 . S
C760 C759 1.351 . S
C760 N761 1.373 . S
C760 H788 0.930 . S
N761 C760 1.373 . S
N761 C763 1.340 . S
N762 C759 1.368 . S
N762 C763 1.321 . S
N762 Co765 2.135 . S
C763 N761 1.340 . S
C763 N762 1.321 . S
C763 H787 0.930 . S
H764 C759 0.931 . S
Co765 N762 2.135 . S
Co765 N768 2.121 . S
Co765 O773 2.055 . S
Co765 O776 2.039 . S
Co765 N779 2.140 . S
C766 O767 1.227 . S
C766 O776 1.265 . S
O767 C766 1.227 . S
N768 Co765 2.121 . S
N768 C770 1.375 . S
N768 C771 1.313 . S
C769 C770 1.338 . S
C769 N772 1.377 . S
C769 H789 0.930 . S
C770 N768 1.375 . S
C770 C769 1.338 . S
C770 H774 0.931 . S
C771 N768 1.313 . S
C771 N772 1.344 . S
C771 H775 0.930 . S
N772 C769 1.377 . S
N772 C771 1.344 . S
O773 Co765 2.055 . S
O773 C777 1.253 . S
H774 C770 0.931 . S
H775 C771 0.930 . S
O776 Co765 2.039 . S
O776 C766 1.265 . S
C777 O773 1.253 . S
C777 O778 1.227 . S
O778 C777 1.227 . S
N779 Co765 2.140 . S
N779 C782 1.346 . S
N779 C783 1.345 . S
C780 C781 1.387 . S
C780 C784 1.391 . S
C781 C780 1.387 . S
C781 C782 1.369 . S
C781 H790 0.929 . S
C782 N779 1.346 . S
C782 C781 1.369 . S
C782 H785 0.928 . S
C783 N779 1.345 . S
C783 C784 1.371 . S
C783 H786 0.931 . S
C784 C780 1.391 . S
C784 C783 1.371 . S
C784 H791 0.930 . S
H785 C782 0.928 . S
H786 C783 0.931 . S
H787 C763 0.930 . S
H788 C760 0.930 . S
H789 C769 0.930 . S
H790 C781 0.929 . S
H791 C784 0.930 . S
C792 C793 1.387 . S
C792 H796 0.950 . S
C792 C801 1.390 . S
C793 C792 1.387 . S
C793 C795 1.387 . S
H794 C801 0.950 . S
C795 C793 1.387 . S
C795 C797 1.390 . S
C795 H799 0.950 . S
H796 C792 0.950 . S
C797 C795 1.390 . S
C797 C798 1.387 . S
C797 H800 0.950 . S
C798 C797 1.387 . S
C798 C801 1.387 . S
H799 C795 0.950 . S
H800 C797 0.950 . S
C801 C792 1.390 . S
C801 H794 0.950 . S
C801 C798 1.387 . S
C802 C803 1.387 . S
C802 H806 0.950 . S
C802 C811 1.390 . S
C803 C802 1.387 . S
C803 C805 1.387 1_556 S
H804 C811 0.950 . S
C805 C803 1.387 1_554 S
C805 C807 1.390 . S
C805 H809 0.950 . S
H806 C802 0.950 . S
C807 C805 1.390 . S
C807 C808 1.387 . S
C807 H810 0.950 . S
C808 C807 1.387 . S
C808 C811 1.387 1_554 S
H809 C805 0.950 . S
H810 C807 0.950 . S
C811 C802 1.390 . S
C811 H804 0.950 . S
C811 C808 1.387 1_556 S
C812 C813 1.387 . S
C812 H816 0.950 . S
C812 C821 1.390 . S
C813 C812 1.387 . S
C813 C815 1.387 . S
H814 C821 0.950 . S
C815 C813 1.387 . S
C815 C817 1.390 . S
C815 H819 0.950 . S
H816 C812 0.950 . S
C817 C815 1.390 . S
C817 C818 1.387 . S
C817 H820 0.950 . S
C818 C817 1.387 . S
C818 C821 1.387 . S
H819 C815 0.950 . S
H820 C817 0.950 . S
C821 C812 1.390 . S
C821 H814 0.950 . S
C821 C818 1.387 . S
C822 C823 1.387 . S
C822 H826 0.950 . S
C822 C831 1.390 . S
C823 C822 1.387 . S
C823 C825 1.387 . S
H824 C831 0.950 . S
C825 C823 1.387 . S
C825 C827 1.390 . S
C825 H829 0.950 . S
H826 C822 0.950 . S
C827 C825 1.390 . S
C827 C828 1.387 . S
C827 H830 0.950 . S
C828 C827 1.387 . S
C828 C831 1.387 . S
H829 C825 0.950 . S
H830 C827 0.950 . S
C831 C822 1.390 . S
C831 H824 0.950 . S
C831 C828 1.387 . S
C832 C833 1.387 . S
C832 H836 0.950 . S
C832 C841 1.390 . S
C833 C832 1.387 . S
C833 C835 1.387 . S
H834 C841 0.950 . S
C835 C833 1.387 . S
C835 C837 1.390 . S
C835 H839 0.950 . S
H836 C832 0.950 . S
C837 C835 1.390 . S
C837 C838 1.387 . S
C837 H840 0.950 . S
C838 C837 1.387 . S
C838 C841 1.387 . S
H839 C835 0.950 . S
H840 C837 0.950 . S
C841 C832 1.390 . S
C841 H834 0.950 . S
C841 C838 1.387 . S
C842 C843 1.387 . S
C842 H846 0.950 . S
C842 C851 1.390 . S
C843 C842 1.387 . S
C843 C845 1.387 . S
H844 C851 0.950 . S
C845 C843 1.387 . S
C845 C847 1.390 . S
C845 H849 0.950 . S
H846 C842 0.950 . S
C847 C845 1.390 . S
C847 C848 1.387 . S
C847 H850 0.950 . S
C848 C847 1.387 . S
C848 C851 1.387 . S
H849 C845 0.950 . S
H850 C847 0.950 . S
C851 C842 1.390 . S
C851 H844 0.950 . S
C851 C848 1.387 . S
C852 C853 1.387 1_655 S
C852 H856 0.950 . S
C852 C861 1.390 . S
C853 C852 1.387 1_455 S
C853 C855 1.387 . S
H854 C861 0.950 . S
C855 C853 1.387 . S
C855 C857 1.390 . S
C855 H859 0.950 . S
H856 C852 0.950 . S
C857 C855 1.390 . S
C857 C858 1.387 1_455 S
C857 H860 0.950 . S
C858 C857 1.387 1_655 S
C858 C861 1.387 . S
H859 C855 0.950 . S
H860 C857 0.950 . S
C861 C852 1.390 . S
C861 H854 0.950 . S
C861 C858 1.387 . S
C862 C863 1.387 . S
C862 H866 0.950 . S
C862 C871 1.390 . S
C863 C862 1.387 . S
C863 C865 1.387 . S
H864 C871 0.950 . S
C865 C863 1.387 . S
C865 C867 1.390 . S
C865 H869 0.950 . S
H866 C862 0.950 . S
C867 C865 1.390 . S
C867 C868 1.387 . S
C867 H870 0.950 . S
C868 C867 1.387 . S
C868 C871 1.387 . S
H869 C865 0.950 . S
H870 C867 0.950 . S
C871 C862 1.390 . S
C871 H864 0.950 . S
C871 C868 1.387 . S
C872 C873 1.387 . S
C872 H876 0.950 . S
C872 C881 1.390 . S
C873 C872 1.387 . S
C873 C875 1.387 . S
H874 C881 0.950 . S
C875 C873 1.387 . S
C875 C877 1.390 . S
C875 H879 0.950 . S
H876 C872 0.950 . S
C877 C875 1.390 . S
C877 C878 1.387 . S
C877 H880 0.950 . S
C878 C877 1.387 . S
C878 C881 1.387 . S
H879 C875 0.950 . S
H880 C877 0.950 . S
C881 C872 1.390 . S
C881 H874 0.950 . S
C881 C878 1.387 . S
C882 C883 1.387 . S
C882 H886 0.950 . S
C882 C891 1.390 . S
C883 C882 1.387 . S
C883 C885 1.387 . S
H884 C891 0.950 . S
C885 C883 1.387 . S
C885 C887 1.390 . S
C885 H889 0.950 . S
H886 C882 0.950 . S
C887 C885 1.390 . S
C887 C888 1.387 . S
C887 H890 0.950 . S
C888 C887 1.387 . S
C888 C891 1.387 . S
H889 C885 0.950 . S
H890 C887 0.950 . S
C891 C882 1.390 . S
C891 H884 0.950 . S
C891 C888 1.387 . S
C892 C893 1.387 . S
C892 H896 0.950 . S
C892 C901 1.390 . S
C893 C892 1.387 . S
C893 C895 1.387 1_565 S
H894 C901 0.950 . S
C895 C893 1.387 1_545 S
C895 C897 1.390 . S
C895 H899 0.950 . S
H896 C892 0.950 . S
C897 C895 1.390 . S
C897 C898 1.387 . S
C897 H900 0.950 . S
C898 C897 1.387 . S
C898 C901 1.387 1_545 S
H899 C895 0.950 . S
H900 C897 0.950 . S
C901 C892 1.390 . S
C901 H894 0.950 . S
C901 C898 1.387 1_565 S
C902 C903 1.387 . S
C902 H906 0.950 . S
C902 C911 1.390 . S
C903 C902 1.387 . S
C903 C905 1.387 . S
H904 C911 0.950 . S
C905 C903 1.387 . S
C905 C907 1.390 . S
C905 H909 0.950 . S
H906 C902 0.950 . S
C907 C905 1.390 . S
C907 C908 1.387 . S
C907 H910 0.950 . S
C908 C907 1.387 . S
C908 C911 1.387 . S
H909 C905 0.950 . S
H910 C907 0.950 . S
C911 C902 1.390 . S
C911 H904 0.950 . S
C911 C908 1.387 . S
C912 C913 1.387 . S
C912 H916 0.950 . S
C912 C921 1.390 . S
C913 C912 1.387 . S
C913 C915 1.387 . S
H914 C921 0.950 . S
C915 C913 1.387 . S
C915 C917 1.390 . S
C915 H919 0.950 . S
H916 C912 0.950 . S
C917 C915 1.390 . S
C917 C918 1.387 . S
C917 H920 0.950 . S
C918 C917 1.387 . S
C918 C921 1.387 . S
H919 C915 0.950 . S
H920 C917 0.950 . S
C921 C912 1.390 . S
C921 H914 0.950 . S
C921 C918 1.387 . S
C922 C923 1.387 . S
C922 H926 0.950 . S
C922 C931 1.390 . S
C923 C922 1.387 . S
C923 C925 1.387 . S
H924 C931 0.950 . S
C925 C923 1.387 . S
C925 C927 1.390 . S
C925 H929 0.950 . S
H926 C922 0.950 . S
C927 C925 1.390 . S
C927 C928 1.387 . S
C927 H930 0.950 . S
C928 C927 1.387 . S
C928 C931 1.387 . S
H929 C925 0.950 . S
H930 C927 0.950 . S
C931 C922 1.390 . S
C931 H924 0.950 . S
C931 C928 1.387 . S
C932 C933 1.387 . S
C932 H936 0.950 . S
C932 C941 1.390 . S
C933 C932 1.387 . S
C933 C935 1.387 . S
H934 C941 0.950 . S
C935 C933 1.387 . S
C935 C937 1.390 . S
C935 H939 0.950 . S
H936 C932 0.950 . S
C937 C935 1.390 . S
C937 C938 1.387 . S
C937 H940 0.950 . S
C938 C937 1.387 . S
C938 C941 1.387 . S
H939 C935 0.950 . S
H940 C937 0.950 . S
C941 C932 1.390 . S
C941 H934 0.950 . S
C941 C938 1.387 . S
C942 C943 1.387 . S
C942 H946 0.950 . S
C942 C951 1.390 . S
C943 C942 1.387 . S
C943 C945 1.387 . S
H944 C951 0.950 . S
C945 C943 1.387 . S
C945 C947 1.390 . S
C945 H949 0.950 . S
H946 C942 0.950 . S
C947 C945 1.390 . S
C947 C948 1.387 . S
C947 H950 0.950 . S
C948 C947 1.387 . S
C948 C951 1.387 . S
H949 C945 0.950 . S
H950 C947 0.950 . S
C951 C942 1.390 . S
C951 H944 0.950 . S
C951 C948 1.387 . S
C952 C953 1.387 . S
C952 H956 0.950 . S
C952 C961 1.390 . S
C953 C952 1.387 . S
C953 C955 1.387 . S
H954 C961 0.950 . S
C955 C953 1.387 . S
C955 C957 1.390 . S
C955 H959 0.950 . S
H956 C952 0.950 . S
C957 C955 1.390 . S
C957 C958 1.387 . S
C957 H960 0.950 . S
C958 C957 1.387 . S
C958 C961 1.387 . S
H959 C955 0.950 . S
H960 C957 0.950 . S
C961 C952 1.390 . S
C961 H954 0.950 . S
C961 C958 1.387 . S
C962 C963 1.387 . S
C962 H966 0.950 . S
C962 C971 1.390 . S
C963 C962 1.387 . S
C963 C965 1.387 . S
H964 C971 0.950 . S
C965 C963 1.387 . S
C965 C967 1.390 . S
C965 H969 0.950 . S
H966 C962 0.950 . S
C967 C965 1.390 . S
C967 C968 1.387 . S
C967 H970 0.950 . S
C968 C967 1.387 . S
C968 C971 1.387 . S
H969 C965 0.950 . S
H970 C967 0.950 . S
C971 C962 1.390 . S
C971 H964 0.950 . S
C971 C968 1.387 . S
C972 C973 1.387 1_655 S
C972 H976 0.950 . S
C972 C981 1.390 . S
C973 C972 1.387 1_455 S
C973 C975 1.387 . S
H974 C981 0.950 . S
C975 C973 1.387 . S
C975 C977 1.390 . S
C975 H979 0.950 . S
H976 C972 0.950 . S
C977 C975 1.390 . S
C977 C978 1.387 1_455 S
C977 H980 0.950 . S
C978 C977 1.387 1_655 S
C978 C981 1.387 . S
H979 C975 0.950 . S
H980 C977 0.950 . S
C981 C972 1.390 . S
C981 H974 0.950 . S
C981 C978 1.387 . S
C982 C983 1.387 . S
C982 H986 0.950 . S
C982 C991 1.390 . S
C983 C982 1.387 . S
C983 C985 1.387 . S
H984 C991 0.950 . S
C985 C983 1.387 . S
C985 C987 1.390 . S
C985 H989 0.950 . S
H986 C982 0.950 . S
C987 C985 1.390 . S
C987 C988 1.387 . S
C987 H990 0.950 . S
C988 C987 1.387 . S
C988 C991 1.387 . S
H989 C985 0.950 . S
H990 C987 0.950 . S
C991 C982 1.390 . S
C991 H984 0.950 . S
C991 C988 1.387 . S
C992 C993 1.387 . S
C992 H996 0.950 . S
C992 C1001 1.390 . S
C993 C992 1.387 . S
C993 C995 1.387 . S
H994 C1001 0.950 . S
C995 C993 1.387 . S
C995 C997 1.390 . S
C995 H999 0.950 . S
H996 C992 0.950 . S
C997 C995 1.390 . S
C997 C998 1.387 . S
C997 H1000 0.950 . S
C998 C997 1.387 . S
C998 C1001 1.387 . S
H999 C995 0.950 . S
H1000 C997 0.950 . S
C1001 C992 1.390 . S
C1001 H994 0.950 . S
C1001 C998 1.387 . S
C1002 C1003 1.387 . S
C1002 H1006 0.950 . S
C1002 C1011 1.390 . S
C1003 C1002 1.387 . S
C1003 C1005 1.387 . S
H1004 C1011 0.950 . S
C1005 C1003 1.387 . S
C1005 C1007 1.390 . S
C1005 H1009 0.950 . S
H1006 C1002 0.950 . S
C1007 C1005 1.390 . S
C1007 C1008 1.387 . S
C1007 H1010 0.950 . S
C1008 C1007 1.387 . S
C1008 C1011 1.387 . S
H1009 C1005 0.950 . S
H1010 C1007 0.950 . S
C1011 C1002 1.390 . S
C1011 H1004 0.950 . S
C1011 C1008 1.387 . S
C1012 C1013 1.387 . S
C1012 H1016 0.950 . S
C1012 C1021 1.390 . S
C1013 C1012 1.387 . S
C1013 C1015 1.387 1_565 S
H1014 C1021 0.950 . S
C1015 C1013 1.387 1_545 S
C1015 C1017 1.390 . S
C1015 H1019 0.950 . S
H1016 C1012 0.950 . S
C1017 C1015 1.390 . S
C1017 C1018 1.387 . S
C1017 H1020 0.950 . S
C1018 C1017 1.387 . S
C1018 C1021 1.387 1_545 S
H1019 C1015 0.950 . S
H1020 C1017 0.950 . S
C1021 C1012 1.390 . S
C1021 H1014 0.950 . S
C1021 C1018 1.387 1_565 S
C1022 C1023 1.387 . S
C1022 H1026 0.950 . S
C1022 C1031 1.390 . S
C1023 C1022 1.387 . S
C1023 C1025 1.387 . S
H1024 C1031 0.950 . S
C1025 C1023 1.387 . S
C1025 C1027 1.390 . S
C1025 H1029 0.950 . S
H1026 C1022 0.950 . S
C1027 C1025 1.390 . S
C1027 C1028 1.387 . S
C1027 H1030 0.950 . S
C1028 C1027 1.387 . S
C1028 C1031 1.387 . S
H1029 C1025 0.950 . S
H1030 C1027 0.950 . S
C1031 C1022 1.390 . S
C1031 H1024 0.950 . S
C1031 C1028 1.387 . S
C1032 C1033 1.387 . S
C1032 H1036 0.950 . S
C1032 C1041 1.390 . S
C1033 C1032 1.387 . S
C1033 C1035 1.387 . S
H1034 C1041 0.950 . S
C1035 C1033 1.387 . S
C1035 C1037 1.390 . S
C1035 H1039 0.950 . S
H1036 C1032 0.950 . S
C1037 C1035 1.390 . S
C1037 C1038 1.387 . S
C1037 H1040 0.950 . S
C1038 C1037 1.387 . S
C1038 C1041 1.387 . S
H1039 C1035 0.950 . S
H1040 C1037 0.950 . S
C1041 C1032 1.390 . S
C1041 H1034 0.950 . S
C1041 C1038 1.387 . S
C1042 C1043 1.387 . S
C1042 H1046 0.950 . S
C1042 C1051 1.390 . S
C1043 C1042 1.387 . S
C1043 C1045 1.387 . S
H1044 C1051 0.950 . S
C1045 C1043 1.387 . S
C1045 C1047 1.390 . S
C1045 H1049 0.950 . S
H1046 C1042 0.950 . S
C1047 C1045 1.390 . S
C1047 C1048 1.387 . S
C1047 H1050 0.950 . S
C1048 C1047 1.387 . S
C1048 C1051 1.387 . S
H1049 C1045 0.950 . S
H1050 C1047 0.950 . S
C1051 C1042 1.390 . S
C1051 H1044 0.950 . S
C1051 C1048 1.387 . S
C1052 C1053 1.387 . S
C1052 H1056 0.950 . S
C1052 C1061 1.390 . S
C1053 C1052 1.387 . S
C1053 C1055 1.387 . S
H1054 C1061 0.950 . S
C1055 C1053 1.387 . S
C1055 C1057 1.390 . S
C1055 H1059 0.950 . S
H1056 C1052 0.950 . S
C1057 C1055 1.390 . S
C1057 C1058 1.387 . S
C1057 H1060 0.950 . S
C1058 C1057 1.387 . S
C1058 C1061 1.387 . S
H1059 C1055 0.950 . S
H1060 C1057 0.950 . S
C1061 C1052 1.390 . S
C1061 H1054 0.950 . S
C1061 C1058 1.387 . S
C1062 C1063 1.387 . S
C1062 H1066 0.950 . S
C1062 C1071 1.390 . S
C1063 C1062 1.387 . S
C1063 C1065 1.387 . S
H1064 C1071 0.950 . S
C1065 C1063 1.387 . S
C1065 C1067 1.390 . S
C1065 H1069 0.950 . S
H1066 C1062 0.950 . S
C1067 C1065 1.390 . S
C1067 C1068 1.387 . S
C1067 H1070 0.950 . S
C1068 C1067 1.387 . S
C1068 C1071 1.387 . S
H1069 C1065 0.950 . S
H1070 C1067 0.950 . S
C1071 C1062 1.390 . S
C1071 H1064 0.950 . S
C1071 C1068 1.387 . S
C1072 C1073 1.387 . S
C1072 H1076 0.950 . S
C1072 C1081 1.390 . S
C1073 C1072 1.387 . S
C1073 C1075 1.387 . S
H1074 C1081 0.950 . S
C1075 C1073 1.387 . S
C1075 C1077 1.390 . S
C1075 H1079 0.950 . S
H1076 C1072 0.950 . S
C1077 C1075 1.390 . S
C1077 C1078 1.387 . S
C1077 H1080 0.950 . S
C1078 C1077 1.387 . S
C1078 C1081 1.387 . S
H1079 C1075 0.950 . S
H1080 C1077 0.950 . S
C1081 C1072 1.390 . S
C1081 H1074 0.950 . S
C1081 C1078 1.387 . S
C1082 C1083 1.387 1_556 S
C1082 H1086 0.950 . S
C1082 C1091 1.390 . S
C1083 C1082 1.387 1_554 S
C1083 C1085 1.387 . S
H1084 C1091 0.950 . S
C1085 C1083 1.387 . S
C1085 C1087 1.390 . S
C1085 H1089 0.950 . S
H1086 C1082 0.950 . S
C1087 C1085 1.390 . S
C1087 C1088 1.387 1_554 S
C1087 H1090 0.950 . S
C1088 C1087 1.387 1_556 S
C1088 C1091 1.387 . S
H1089 C1085 0.950 . S
H1090 C1087 0.950 . S
C1091 C1082 1.390 . S
C1091 H1084 0.950 . S
C1091 C1088 1.387 . S
C1092 C1093 1.387 . S
C1092 H1096 0.950 . S
C1092 C1101 1.390 . S
C1093 C1092 1.387 . S
C1093 C1095 1.387 . S
H1094 C1101 0.950 . S
C1095 C1093 1.387 . S
C1095 C1097 1.390 . S
C1095 H1099 0.950 . S
H1096 C1092 0.950 . S
C1097 C1095 1.390 . S
C1097 C1098 1.387 . S
C1097 H1100 0.950 . S
C1098 C1097 1.387 . S
C1098 C1101 1.387 . S
H1099 C1095 0.950 . S
H1100 C1097 0.950 . S
C1101 C1092 1.390 . S
C1101 H1094 0.950 . S
C1101 C1098 1.387 . S
C1102 C1103 1.387 . S
C1102 H1106 0.950 . S
C1102 C1111 1.390 . S
C1103 C1102 1.387 . S
C1103 C1105 1.387 . S
H1104 C1111 0.950 . S
C1105 C1103 1.387 . S
C1105 C1107 1.390 . S
C1105 H1109 0.950 . S
H1106 C1102 0.950 . S
C1107 C1105 1.390 . S
C1107 C1108 1.387 . S
C1107 H1110 0.950 . S
C1108 C1107 1.387 . S
C1108 C1111 1.387 . S
H1109 C1105 0.950 . S
H1110 C1107 0.950 . S
C1111 C1102 1.390 . S
C1111 H1104 0.950 . S
C1111 C1108 1.387 . S
C1112 C1113 1.387 . S
C1112 H1116 0.950 . S
C1112 C1121 1.390 . S
C1113 C1112 1.387 . S
C1113 C1115 1.387 . S
H1114 C1121 0.950 . S
C1115 C1113 1.387 . S
C1115 C1117 1.390 . S
C1115 H1119 0.950 . S
H1116 C1112 0.950 . S
C1117 C1115 1.390 . S
C1117 C1118 1.387 . S
C1117 H1120 0.950 . S
C1118 C1117 1.387 . S
C1118 C1121 1.387 . S
H1119 C1115 0.950 . S
H1120 C1117 0.950 . S
C1121 C1112 1.390 . S
C1121 H1114 0.950 . S
C1121 C1118 1.387 . S
C1122 C1123 1.387 . S
C1122 H1126 0.950 . S
C1122 C1131 1.390 . S
C1123 C1122 1.387 . S
C1123 C1125 1.387 . S
H1124 C1131 0.950 . S
C1125 C1123 1.387 . S
C1125 C1127 1.390 . S
C1125 H1129 0.950 . S
H1126 C1122 0.950 . S
C1127 C1125 1.390 . S
C1127 C1128 1.387 . S
C1127 H1130 0.950 . S
C1128 C1127 1.387 . S
C1128 C1131 1.387 . S
H1129 C1125 0.950 . S
H1130 C1127 0.950 . S
C1131 C1122 1.390 . S
C1131 H1124 0.950 . S
C1131 C1128 1.387 . S
C1132 C1133 1.387 . S
C1132 H1136 0.950 . S
C1132 C1141 1.390 . S
C1133 C1132 1.387 . S
C1133 C1135 1.387 . S
H1134 C1141 0.950 . S
C1135 C1133 1.387 . S
C1135 C1137 1.390 . S
C1135 H1139 0.950 . S
H1136 C1132 0.950 . S
C1137 C1135 1.390 . S
C1137 C1138 1.387 . S
C1137 H1140 0.950 . S
C1138 C1137 1.387 . S
C1138 C1141 1.387 . S
H1139 C1135 0.950 . S
H1140 C1137 0.950 . S
C1141 C1132 1.390 . S
C1141 H1134 0.950 . S
C1141 C1138 1.387 . S
C1142 C1143 1.387 . S
C1142 H1146 0.950 . S
C1142 C1151 1.390 . S
C1143 C1142 1.387 . S
C1143 C1145 1.387 . S
H1144 C1151 0.950 . S
C1145 C1143 1.387 . S
C1145 C1147 1.390 . S
C1145 H1149 0.950 . S
H1146 C1142 0.950 . S
C1147 C1145 1.390 . S
C1147 C1148 1.387 . S
C1147 H1150 0.950 . S
C1148 C1147 1.387 . S
C1148 C1151 1.387 . S
H1149 C1145 0.950 . S
H1150 C1147 0.950 . S
C1151 C1142 1.390 . S
C1151 H1144 0.950 . S
C1151 C1148 1.387 . S
C1152 C1153 1.387 . S
C1152 H1156 0.950 1_455 S
C1152 C1161 1.390 1_455 S
C1153 C1152 1.387 . S
C1153 C1155 1.387 . S
H1154 C1161 0.950 . S
C1155 C1153 1.387 . S
C1155 C1157 1.390 . S
C1155 H1159 0.950 . S
H1156 C1152 0.950 1_655 S
C1157 C1155 1.390 . S
C1157 C1158 1.387 . S
C1157 H1160 0.950 . S
C1158 C1157 1.387 . S
C1158 C1161 1.387 1_455 S
H1159 C1155 0.950 . S
H1160 C1157 0.950 . S
C1161 C1152 1.390 1_655 S
C1161 H1154 0.950 . S
C1161 C1158 1.387 1_655 S
C1162 C1163 1.387 . S
C1162 H1166 0.950 . S
C1162 C1171 1.390 . S
C1163 C1162 1.387 . S
C1163 C1165 1.387 . S
H1164 C1171 0.950 . S
C1165 C1163 1.387 . S
C1165 C1167 1.392 . S
C1165 H1169 0.950 . S
H1166 C1162 0.950 . S
C1167 C1165 1.392 . S
C1167 C1168 1.390 . S
C1167 H1170 0.945 1_554 S
C1168 C1167 1.390 . S
C1168 C1171 1.387 . S
H1169 C1165 0.950 . S
H1170 C1167 0.945 1_556 S
C1171 C1162 1.390 . S
C1171 H1164 0.950 . S
C1171 C1168 1.387 . S
C1172 C1173 1.387 . S
C1172 H1176 0.950 . S
C1172 C1181 1.390 . S
C1173 C1172 1.387 . S
C1173 C1175 1.387 . S
H1174 C1181 0.950 . S
C1175 C1173 1.387 . S
C1175 C1177 1.390 . S
C1175 H1179 0.950 . S
H1176 C1172 0.950 . S
C1177 C1175 1.390 . S
C1177 C1178 1.387 . S
C1177 H1180 0.950 . S
C1178 C1177 1.387 . S
C1178 C1181 1.387 . S
H1179 C1175 0.950 . S
H1180 C1177 0.950 . S
C1181 C1172 1.390 . S
C1181 H1174 0.950 . S
C1181 C1178 1.387 . S
C1182 C1183 1.387 . S
C1182 H1186 0.950 . S
C1182 C1191 1.390 . S
C1183 C1182 1.387 . S
C1183 C1185 1.387 . S
H1184 C1191 0.950 . S
C1185 C1183 1.387 . S
C1185 C1187 1.390 . S
C1185 H1189 0.950 . S
H1186 C1182 0.950 . S
C1187 C1185 1.390 . S
C1187 C1188 1.387 . S
C1187 H1190 0.950 . S
C1188 C1187 1.387 . S
C1188 C1191 1.387 . S
H1189 C1185 0.950 . S
H1190 C1187 0.950 . S
C1191 C1182 1.390 . S
C1191 H1184 0.950 . S
C1191 C1188 1.387 . S
C1192 C1193 1.387 . S
C1192 H1196 0.950 . S
C1192 C1201 1.390 . S
C1193 C1192 1.387 . S
C1193 C1195 1.387 . S
H1194 C1201 0.950 . S
C1195 C1193 1.387 . S
C1195 C1197 1.390 . S
C1195 H1199 0.950 . S
H1196 C1192 0.950 . S
C1197 C1195 1.390 . S
C1197 C1198 1.387 . S
C1197 H1200 0.950 . S
C1198 C1197 1.387 . S
C1198 C1201 1.387 . S
H1199 C1195 0.950 . S
H1200 C1197 0.950 . S
C1201 C1192 1.390 . S
C1201 H1194 0.950 . S
C1201 C1198 1.387 . S
C1202 C1203 1.387 . S
C1202 H1206 0.950 . S
C1202 C1211 1.390 . S
C1203 C1202 1.387 . S
C1203 C1205 1.387 . S
H1204 C1211 0.950 . S
C1205 C1203 1.387 . S
C1205 C1207 1.390 . S
C1205 H1209 0.950 . S
H1206 C1202 0.950 . S
C1207 C1205 1.390 . S
C1207 C1208 1.387 . S
C1207 H1210 0.950 . S
C1208 C1207 1.387 . S
C1208 C1211 1.387 . S
H1209 C1205 0.950 . S
H1210 C1207 0.950 . S
C1211 C1202 1.390 . S
C1211 H1204 0.950 . S
C1211 C1208 1.387 . S
C1212 C1213 1.387 . S
C1212 H1216 0.950 . S
C1212 C1221 1.390 . S
C1213 C1212 1.387 . S
C1213 C1215 1.387 . S
H1214 C1221 0.950 . S
C1215 C1213 1.387 . S
C1215 C1217 1.390 . S
C1215 H1219 0.950 . S
H1216 C1212 0.950 . S
C1217 C1215 1.390 . S
C1217 C1218 1.387 . S
C1217 H1220 0.950 . S
C1218 C1217 1.387 . S
C1218 C1221 1.387 . S
H1219 C1215 0.950 . S
H1220 C1217 0.950 . S
C1221 C1212 1.390 . S
C1221 H1214 0.950 . S
C1221 C1218 1.387 . S
C1222 C1223 1.387 . S
C1222 H1226 0.950 1_554 S
C1222 C1231 1.390 . S
C1223 C1222 1.387 . S
C1223 C1225 1.387 . S
H1224 C1231 0.950 . S
C1225 C1223 1.387 . S
C1225 C1227 1.390 . S
C1225 H1229 0.950 . S
H1226 C1222 0.950 1_556 S
C1227 C1225 1.390 . S
C1227 C1228 1.387 . S
C1227 H1230 0.950 . S
C1228 C1227 1.387 . S
C1228 C1231 1.387 . S
H1229 C1225 0.950 . S
H1230 C1227 0.950 . S
C1231 C1222 1.390 . S
C1231 H1224 0.950 . S
C1231 C1228 1.387 . S
C1232 C1233 1.387 . S
C1232 H1236 0.950 1_545 S
C1232 C1241 1.390 . S
C1233 C1232 1.387 . S
C1233 C1235 1.387 . S
H1234 C1241 0.950 . S
C1235 C1233 1.387 . S
C1235 C1237 1.390 . S
C1235 H1239 0.950 . S
H1236 C1232 0.950 1_565 S
C1237 C1235 1.390 . S
C1237 C1238 1.387 . S
C1237 H1240 0.950 . S
C1238 C1237 1.387 . S
C1238 C1241 1.387 . S
H1239 C1235 0.950 . S
H1240 C1237 0.950 . S
C1241 C1232 1.390 . S
C1241 H1234 0.950 . S
C1241 C1238 1.387 . S
C1242 C1243 1.387 . S
C1242 H1246 0.950 . S
C1242 C1251 1.390 . S
C1243 C1242 1.387 . S
C1243 C1245 1.387 . S
H1244 C1251 0.950 . S
C1245 C1243 1.387 . S
C1245 C1247 1.390 . S
C1245 H1249 0.950 . S
H1246 C1242 0.950 . S
C1247 C1245 1.390 . S
C1247 C1248 1.387 . S
C1247 H1250 0.950 . S
C1248 C1247 1.387 . S
C1248 C1251 1.387 . S
H1249 C1245 0.950 . S
H1250 C1247 0.950 . S
C1251 C1242 1.390 . S
C1251 H1244 0.950 . S
C1251 C1248 1.387 . S
C1252 C1253 1.387 . S
C1252 H1256 0.950 1_545 S
C1252 C1261 1.390 . S
C1253 C1252 1.387 . S
C1253 C1255 1.387 . S
H1254 C1261 0.950 . S
C1255 C1253 1.387 . S
C1255 C1257 1.390 . S
C1255 H1259 0.950 . S
H1256 C1252 0.950 1_565 S
C1257 C1255 1.390 . S
C1257 C1258 1.387 . S
C1257 H1260 0.950 . S
C1258 C1257 1.387 . S
C1258 C1261 1.387 . S
H1259 C1255 0.950 . S
H1260 C1257 0.950 . S
C1261 C1252 1.390 . S
C1261 H1254 0.950 . S
C1261 C1258 1.387 . S
C1262 C1263 1.387 . S
C1262 H1266 0.950 . S
C1262 C1271 1.390 . S
C1263 C1262 1.387 . S
C1263 C1265 1.387 . S
H1264 C1271 0.950 . S
C1265 C1263 1.387 . S
C1265 C1267 1.390 . S
C1265 H1269 0.950 . S
H1266 C1262 0.950 . S
C1267 C1265 1.390 . S
C1267 C1268 1.387 . S
C1267 H1270 0.950 . S
C1268 C1267 1.387 . S
C1268 C1271 1.387 . S
H1269 C1265 0.950 . S
H1270 C1267 0.950 . S
C1271 C1262 1.390 . S
C1271 H1264 0.950 . S
C1271 C1268 1.387 . S
C1272 C1273 1.387 . S
C1272 H1276 0.950 . S
C1272 C1281 1.390 . S
C1273 C1272 1.387 . S
C1273 C1275 1.387 . S
H1274 C1281 0.950 . S
C1275 C1273 1.387 . S
C1275 C1277 1.390 . S
C1275 H1279 0.950 . S
H1276 C1272 0.950 . S
C1277 C1275 1.390 . S
C1277 C1278 1.387 . S
C1277 H1280 0.950 1_545 S
C1278 C1277 1.387 . S
C1278 C1281 1.387 . S
H1279 C1275 0.950 . S
H1280 C1277 0.950 1_565 S
C1281 C1272 1.390 . S
C1281 H1274 0.950 . S
C1281 C1278 1.387 . S
C1282 C1283 1.387 . S
C1282 H1286 0.950 . S
C1282 C1291 1.390 . S
C1283 C1282 1.387 . S
C1283 C1285 1.387 . S
H1284 C1291 0.950 . S
C1285 C1283 1.387 . S
C1285 C1287 1.390 . S
C1285 H1289 0.950 1_554 S
H1286 C1282 0.950 . S
C1287 C1285 1.390 . S
C1287 C1288 1.387 . S
C1287 H1290 0.950 . S
C1288 C1287 1.387 . S
C1288 C1291 1.387 . S
H1289 C1285 0.950 1_556 S
H1290 C1287 0.950 . S
C1291 C1282 1.390 . S
C1291 H1284 0.950 . S
C1291 C1288 1.387 . S
C1292 C1293 1.387 . S
C1292 H1296 0.950 . S
C1292 C1301 1.390 . S
C1293 C1292 1.387 . S
C1293 C1295 1.387 . S
H1294 C1301 0.950 . S
C1295 C1293 1.387 . S
C1295 C1297 1.390 . S
C1295 H1299 0.950 1_545 S
H1296 C1292 0.950 . S
C1297 C1295 1.390 . S
C1297 C1298 1.387 . S
C1297 H1300 0.950 . S
C1298 C1297 1.387 . S
C1298 C1301 1.387 . S
H1299 C1295 0.950 1_565 S
H1300 C1297 0.950 . S
C1301 C1292 1.390 . S
C1301 H1294 0.950 . S
C1301 C1298 1.387 . S
C1302 C1303 1.387 . S
C1302 H1306 0.950 . S
C1302 C1311 1.390 . S
C1303 C1302 1.387 . S
C1303 C1305 1.387 . S
H1304 C1311 0.950 . S
C1305 C1303 1.387 . S
C1305 C1307 1.390 . S
C1305 H1309 0.950 . S
H1306 C1302 0.950 . S
C1307 C1305 1.390 . S
C1307 C1308 1.387 . S
C1307 H1310 0.950 . S
C1308 C1307 1.387 . S
C1308 C1311 1.387 . S
H1309 C1305 0.950 . S
H1310 C1307 0.950 . S
C1311 C1302 1.390 . S
C1311 H1304 0.950 . S
C1311 C1308 1.387 . S
C1312 C1313 1.387 . S
C1312 H1316 0.950 . S
C1312 C1321 1.390 . S
C1313 C1312 1.387 . S
C1313 C1315 1.387 . S
H1314 C1321 0.950 . S
C1315 C1313 1.387 . S
C1315 C1317 1.390 . S
C1315 H1319 0.950 . S
H1316 C1312 0.950 . S
C1317 C1315 1.390 . S
C1317 C1318 1.387 . S
C1317 H1320 0.950 . S
C1318 C1317 1.387 . S
C1318 C1321 1.387 . S
H1319 C1315 0.950 . S
H1320 C1317 0.950 . S
C1321 C1312 1.390 . S
C1321 H1314 0.950 . S
C1321 C1318 1.387 . S
C1322 C1323 1.387 . S
C1322 H1326 0.950 . S
C1322 C1331 1.390 . S
C1323 C1322 1.387 . S
C1323 C1325 1.387 . S
H1324 C1331 0.950 . S
C1325 C1323 1.387 . S
C1325 C1327 1.390 . S
C1325 H1329 0.950 . S
H1326 C1322 0.950 . S
C1327 C1325 1.390 . S
C1327 C1328 1.387 . S
C1327 H1330 0.950 . S
C1328 C1327 1.387 . S
C1328 C1331 1.387 . S
H1329 C1325 0.950 . S
H1330 C1327 0.950 . S
C1331 C1322 1.390 . S
C1331 H1324 0.950 . S
C1331 C1328 1.387 . S
C1332 C1333 1.387 . S
C1332 H1336 0.950 . S
C1332 C1341 1.390 . S
C1333 C1332 1.387 . S
C1333 C1335 1.387 . S
H1334 C1341 0.950 . S
C1335 C1333 1.387 . S
C1335 C1337 1.390 . S
C1335 H1339 0.950 . S
H1336 C1332 0.950 . S
C1337 C1335 1.390 . S
C1337 C1338 1.387 . S
C1337 H1340 0.950 . S
C1338 C1337 1.387 . S
C1338 C1341 1.387 . S
H1339 C1335 0.950 . S
H1340 C1337 0.950 . S
C1341 C1332 1.390 . S
C1341 H1334 0.950 . S
C1341 C1338 1.387 . S
C1342 C1343 1.387 . S
C1342 H1346 0.950 . S
C1342 C1351 1.390 . S
C1343 C1342 1.387 . S
C1343 C1345 1.387 1_554 S
H1344 C1351 0.950 . S
C1345 C1343 1.387 1_556 S
C1345 C1347 1.390 1_556 S
C1345 H1349 0.950 . S
H1346 C1342 0.950 . S
C1347 C1345 1.390 1_554 S
C1347 C1348 1.387 . S
C1347 H1350 0.950 1_554 S
C1348 C1347 1.387 . S
C1348 C1351 1.387 . S
H1349 C1345 0.950 . S
H1350 C1347 0.950 1_556 S
C1351 C1342 1.390 . S
C1351 H1344 0.950 . S
C1351 C1348 1.387 . S
C1352 C1353 1.387 . S
C1352 H1356 0.950 . S
C1352 C1361 1.390 . S
C1353 C1352 1.387 . S
C1353 C1355 1.387 . S
H1354 C1361 0.950 . S
C1355 C1353 1.387 . S
C1355 C1357 1.390 . S
C1355 H1359 0.950 . S
H1356 C1352 0.950 . S
C1357 C1355 1.390 . S
C1357 C1358 1.387 . S
C1357 H1360 0.950 . S
C1358 C1357 1.387 . S
C1358 C1361 1.387 . S
H1359 C1355 0.950 . S
H1360 C1357 0.950 . S
C1361 C1352 1.390 . S
C1361 H1354 0.950 . S
C1361 C1358 1.387 . S
C1362 C1363 1.387 . S
C1362 H1366 0.950 . S
C1362 C1371 1.390 . S
C1363 C1362 1.387 . S
C1363 C1365 1.387 . S
H1364 C1371 0.950 . S
C1365 C1363 1.387 . S
C1365 C1367 1.390 . S
C1365 H1369 0.950 . S
H1366 C1362 0.950 . S
C1367 C1365 1.390 . S
C1367 C1368 1.387 . S
C1367 H1370 0.950 . S
C1368 C1367 1.387 . S
C1368 C1371 1.387 . S
H1369 C1365 0.950 . S
H1370 C1367 0.950 . S
C1371 C1362 1.390 . S
C1371 H1364 0.950 . S
C1371 C1368 1.387 . S
C1372 C1373 1.387 . S
C1372 H1376 0.950 . S
C1372 C1381 1.390 . S
C1373 C1372 1.387 . S
C1373 C1375 1.387 . S
H1374 C1381 0.950 . S
C1375 C1373 1.387 . S
C1375 C1377 1.390 . S
C1375 H1379 0.950 . S
H1376 C1372 0.950 . S
C1377 C1375 1.390 . S
C1377 C1378 1.387 . S
C1377 H1380 0.950 . S
C1378 C1377 1.387 . S
C1378 C1381 1.387 . S
H1379 C1375 0.950 . S
H1380 C1377 0.950 . S
C1381 C1372 1.390 . S
C1381 H1374 0.950 . S
C1381 C1378 1.387 . S
C1382 C1383 1.387 . S
C1382 H1386 0.950 1_455 S
C1382 C1391 1.390 . S
C1383 C1382 1.387 . S
C1383 C1385 1.387 . S
H1384 C1391 0.950 . S
C1385 C1383 1.387 . S
C1385 C1387 1.390 . S
C1385 H1389 0.950 . S
H1386 C1382 0.950 1_655 S
C1387 C1385 1.390 . S
C1387 C1388 1.387 . S
C1387 H1390 0.950 . S
C1388 C1387 1.387 . S
C1388 C1391 1.387 . S
H1389 C1385 0.950 . S
H1390 C1387 0.950 . S
C1391 C1382 1.390 . S
C1391 H1384 0.950 . S
C1391 C1388 1.387 . S
C793 C21 1.277 . S
C798 C681 1.276 . S
C803 C582 1.273 . S
C808 C54 1.272 . S
C813 C615 1.277 . S
C818 C87 1.278 . S
C823 C648 1.279 . S
C828 C120 1.279 . S
C833 C153 1.272 . S
C838 C780 1.273 . S
C843 C714 1.279 . S
C848 C186 1.278 . S
C853 C747 1.273 . S
C858 C219 1.272 . S
C863 C549 1.274 . S
C868 C252 1.273 . S
C873 C285 1.274 . S
C878 C516 1.273 . S
C883 C417 1.276 . S
C888 C318 1.277 . S
C893 C351 1.272 . S
C898 C450 1.273 . S
C903 C483 1.275 . S
C908 C384 1.274 . S
C913 C634 1.876 . S
C918 N13 1.442 . S
C923 N46 1.440 . S
C928 C667 1.875 . S
C933 C568 1.876 . S
C938 N79 1.442 . S
C943 N112 1.438 . S
C948 C601 1.875 . S
C953 C700 1.874 . S
C958 N145 1.436 . S
C963 C733 1.876 . S
C968 N178 1.442 . S
C973 C535 1.876 . S
C978 N211 1.442 . S
C983 N244 1.441 . S
C988 C766 1.876 . S
C993 N277 1.440 . S
C998 C73 1.875 . S
C1003 N310 1.436 . S
C1008 C106 1.874 . S
C1013 N343 1.441 . S
C1018 C7 1.876 . S
C1023 C40 1.874 . S
C1028 N376 1.437 . S
C1033 N409 1.440 . S
C1038 C205 1.875 . S
C1043 C238 1.876 . S
C1048 N442 1.442 . S
C1053 C139 1.875 . S
C1058 N475 1.440 . S
C1063 C172 1.876 . S
C1068 N508 1.442 . S
C1073 C403 1.875 . S
C1078 N541 1.438 . S
C1083 C271 1.876 . S
C1088 N574 1.441 . S
C1093 N607 1.440 . S
C1098 C304 1.876 . S
C1103 N640 1.441 . S
C1108 C337 1.876 . S
C1113 C370 1.875 . S
C1118 N673 1.439 . S
C1123 N706 1.440 . S
C1128 C469 1.875 . S
C1133 C502 1.875 . S
C1138 N739 1.440 . S
C1143 N772 1.442 . S
C1148 C436 1.876 . S
C1153 C18 1.412 . S
C1158 C744 1.413 . S
C1163 C546 1.411 . S
C1168 C51 1.411 . S
C1173 C84 1.411 . S
C1178 C777 1.413 . S
C1183 C711 1.411 . S
C1188 C117 1.413 . S
C1193 C150 1.413 . S
C1198 C612 1.411 . S
C1203 C645 1.411 . S
C1208 C183 1.411 . S
C1213 C216 1.410 . S
C1218 C678 1.413 . S
C1223 C579 1.411 . S
C1228 C249 1.411 . S
C1233 C447 1.413 . S
C1238 C282 1.410 . S
C1243 C480 1.412 . S
C1248 C315 1.413 . S
C1253 C348 1.412 . S
C1258 C513 1.410 . S
C1263 C381 1.410 . S
C1268 C414 1.412 . S
C1273 N497 0.756 . S
C1278 N2 0.755 . S
C1283 N35 0.762 . S
C1288 N398 0.759 . S
C1293 N431 0.762 . S
C1298 N68 0.759 . S
C1303 N464 0.758 . S
C1308 N101 0.762 . S
C1313 N134 0.755 . S
C1318 N299 0.755 . S
C1323 N332 0.759 . S
C1328 N167 0.762 . S
C1333 N200 0.755 . S
C1338 N365 0.756 . S
C1343 N266 0.760 . S
C1348 N233 0.754 . S
C1353 N662 0.757 . S
C1358 N530 0.754 . S
C1363 N761 0.758 . S
C1368 N563 0.763 . S
C1373 N695 0.754 . S
C1378 N596 0.758 . S
C1383 N728 0.754 . S
C1388 N629 0.759 . S
