# Generated by pormake.
# Topology kag, (6)-cn, num edge types: 1
# Building blocks:
#     Node 0, Type 0, BuildingBlock: UKALOJ_clean_sbu_0, # of connection points: 6
#     Node 1, Type 0, BuildingBlock: UKALOJ_clean_sbu_0, # of connection points: 6
#     Node 2, Type 0, BuildingBlock: UKALOJ_clean_sbu_0, # of connection points: 6
#     Edge 3, Type (0, 0), BuildingBlock: MIFKUJ_clean_linker_0, # of connection points: 2
#     Edge 4, Type (0, 0), BuildingBlock: MIFKUJ_clean_linker_0, # of connection points: 2
#     Edge 5, Type (0, 0), BuildingBlock: MIFKUJ_clean_linker_0, # of connection points: 2
#     Edge 6, Type (0, 0), BuildingBlock: MIFKUJ_clean_linker_0, # of connection points: 2
#     Edge 7, Type (0, 0), BuildingBlock: MIFKUJ_clean_linker_0, # of connection points: 2
#     Edge 8, Type (0, 0), BuildingBlock: MIFKUJ_clean_linker_0, # of connection points: 2
#     Edge 9, Type (0, 0), BuildingBlock: MIFKUJ_clean_linker_0, # of connection points: 2
#     Edge 10, Type (0, 0), BuildingBlock: MIFKUJ_clean_linker_0, # of connection points: 2
#     Edge 11, Type (0, 0), BuildingBlock: MIFKUJ_clean_linker_0, # of connection points: 2
# Relax obj value: 0.133
# Max RMSD: 0.168
# Mean RMSD: 0.168
data_MOF--net-kag--node1-UKALOJ_clean_sbu_0--edge1-MIFKUJ_clean_linker_0
_symmetry_space_group_name_H-M    P1
_symmetry_Int_Tables_number       1
_symmetry_cell_setting            triclinic
loop_
_symmetry_equiv_pos_as_xyz
'x, y, z'
_cell_length_a     37.269379
_cell_length_b     37.479086
_cell_length_c     24.69121
_cell_angle_alpha  89.858176
_cell_angle_beta   89.940345
_cell_angle_gamma 119.91869
loop_
_atom_site_label
_atom_site_type_symbol
_atom_site_fract_x
_atom_site_fract_y
_atom_site_fract_z
_atom_type_partial_charge
Zn0 Zn 0.00174 0.44489 0.9648 0.0
O1 O 0.04978 0.505 0.95356 0.0
C2 C 0.06328 0.41913 0.98448 0.0
Zn3 Zn 0.0147 0.44624 0.05323 0.0
C4 C 0.07077 0.52497 0.99437 0.0
O5 O 0.06233 0.50791 0.04083 0.0
C6 C 0.94449 0.36637 0.02332 0.0
O7 O 0.97318 0.46737 0.07234 0.0
O8 O 0.96182 0.46831 0.98522 0.0
N9 N 0.03226 0.45015 0.13258 0.0
C10 C 0.01184 0.44405 0.17992 0.0
C11 C 0.07414 0.46103 0.19886 0.0
N12 N 0.07093 0.46069 0.14454 0.0
N13 N 0.03756 0.4509 0.22214 0.0
C14 C 0.00422 0.44739 0.8379 0.0
C15 C 0.94186 0.43055 0.81963 0.0
N16 N 0.98403 0.44112 0.88547 0.0
N17 N 0.94532 0.43067 0.87391 0.0
N18 N 0.97832 0.44073 0.79596 0.0
H19 H 0.06278 0.4823 0.79671 0.0
H20 H 0.05382 0.43502 0.82762 0.0
H21 H 0.06665 0.47895 0.8693 0.0
C22 C 0.04956 0.46206 0.83272 0.0
C23 C 0.96644 0.42933 0.18453 0.0
H24 H 0.9495 0.41107 0.14866 0.0
H25 H 0.96191 0.45638 0.18704 0.0
H26 H 0.95323 0.41032 0.22155 0.0
O27 O 0.9668 0.38496 0.06402 0.0
O28 O 0.95295 0.38437 0.97753 0.0
C29 C 0.95535 0.47487 0.03381 0.0
O30 O 0.04287 0.42305 0.94597 0.0
O31 O 0.05653 0.42587 0.03279 0.0
Zn32 Zn 0.44167 0.01091 0.97821 0.0
O33 O 0.45943 0.96667 0.9614 0.0
C34 C 0.35744 0.94618 1.00553 0.0
Zn35 Zn 0.43579 -0.00292 0.0667 0.0
C36 C 0.46136 0.94583 1.00078 0.0
O37 O 0.45274 0.95229 0.04828 0.0
C38 C 0.41743 0.06294 0.04393 0.0
O39 O 0.49878 0.04064 0.07902 0.0
O40 O 0.50404 0.0551 0.99216 0.0
N41 N 0.4288 0.97907 0.14617 0.0
C42 C 0.43694 -0.00034 0.19342 0.0
C43 C 0.41359 0.93636 0.2126 0.0
N44 N 0.41427 0.93977 0.15828 0.0
N45 N 0.42749 0.97346 0.23573 0.0
C46 C 0.44105 0.00824 0.85159 0.0
C47 C 0.46357 0.07138 0.83221 0.0
N48 N 0.44867 0.02885 0.89877 0.0
N49 N 0.46271 0.06804 0.88655 0.0
N50 N 0.45031 0.03434 0.8092 0.0
H51 H 0.40473 0.94658 0.88401 0.0
H52 H 0.44796 0.95531 0.8427 0.0
H53 H 0.4022 0.95052 0.81133 0.0
C54 C 0.42263 0.9625 0.84727 0.0
C55 C 0.4561 0.04546 0.19789 0.0
H56 H 0.47404 0.06121 0.16109 0.0
H57 H 0.47665 0.05709 0.23375 0.0
H58 H 0.43116 0.05318 0.20274 0.0
O59 O 0.4195 0.04246 0.08369 0.0
O60 O 0.4244 0.05502 0.99634 0.0
C61 C 0.52049 0.06138 0.03878 0.0
O62 O 0.3796 0.96683 0.96558 0.0
O63 O 0.37309 0.95325 0.05272 0.0
Zn64 Zn 0.5637 0.56848 0.05839 0.0
O65 O 0.54921 0.50736 0.07065 0.0
C66 C 0.64971 0.59079 0.03611 0.0
Zn67 Zn 0.57262 0.56401 0.96989 0.0
C68 C 0.54914 0.48616 0.03058 0.0
O69 O 0.55763 0.50226 0.98356 0.0
C70 C 0.58573 0.64598 0.99785 0.0
O71 O 0.5099 0.54368 0.95268 0.0
O72 O 0.5005 0.54726 0.03984 0.0
N73 N 0.58483 0.5586 0.89046 0.0
C74 C 0.57074 0.56501 0.84321 0.0
C75 C 0.61485 0.54651 0.82401 0.0
N76 N 0.61217 0.54707 0.87834 0.0
N77 N 0.58902 0.55745 0.80091 0.0
C78 C 0.5651 0.56689 0.18513 0.0
C79 C 0.52117 0.58564 0.20424 0.0
N80 N 0.55139 0.57374 0.13785 0.0
N81 N 0.52415 0.58541 0.14992 0.0
N82 N 0.54669 0.57433 0.22739 0.0
H83 H 0.58711 0.53048 0.22569 0.0
H84 H 0.62647 0.57723 0.19465 0.0
H85 H 0.59404 0.53372 0.15303 0.0
C86 C 0.59465 0.55086 0.18975 0.0
C87 C 0.54088 0.58068 0.83871 0.0
H88 H 0.50904 0.5541 0.83496 0.0
H89 H 0.54772 0.60045 0.80226 0.0
H90 H 0.54196 0.59838 0.87506 0.0
O91 O 0.58699 0.62552 0.95766 0.0
O92 O 0.57769 0.62965 0.04471 0.0
C93 C 0.48598 0.53907 0.99204 0.0
O94 O 0.62664 0.58846 0.07552 0.0
O95 O 0.63494 0.5835 0.98846 0.0
H96 H 0.0212 0.41176 0.74024 0.0
H97 H 0.03183 0.41459 0.64214 0.0
H98 H 0.96071 0.47597 0.62323 0.0
H99 H 0.95035 0.47337 0.72158 0.0
H100 H 0.93789 0.41525 0.55062 0.0
H101 H 0.06584 0.52918 0.61211 0.0
H102 H 0.12906 0.56344 0.66766 0.0
H103 H 0.17074 0.48477 0.60058 0.0
H104 H 0.10742 0.44959 0.54519 0.0
H105 H -0.00574 0.4799 0.27683 0.0
H106 H 0.98353 0.47773 0.37492 0.0
H107 H 0.0549 0.41676 0.39558 0.0
H108 H 0.06542 0.41877 0.29734 0.0
H109 H 0.0776 0.47777 0.46731 0.0
H110 H 0.94955 0.36353 0.40634 0.0
H111 H 0.88625 0.32904 0.35096 0.0
H112 H 0.84476 0.40813 0.41712 0.0
H113 H 0.90815 0.44354 0.47233 0.0
C114 C 0.00876 0.42675 0.71528 0.0
C115 C 0.98593 0.4434 0.73854 0.0
C116 C 0.01454 0.42807 0.6592 0.0
C117 C -0.00244 0.44603 0.62537 0.0
C118 C 0.97422 0.4621 0.64852 0.0
C119 C 0.96841 0.46072 0.70457 0.0
C120 C 0.00354 0.44745 0.56577 0.0
C121 C 0.96845 0.42943 0.53235 0.0
C122 C 0.04339 0.46512 0.54201 0.0
C123 C 0.08169 0.48649 0.57488 0.0
C124 C 0.08834 0.51898 0.60949 0.0
C125 C 0.12421 0.53859 0.64091 0.0
C126 C 0.15385 0.52622 0.63776 0.0
C127 C 0.14773 0.49428 0.60303 0.0
C128 C 0.11187 0.47452 0.57158 0.0
C129 C 0.00677 0.46518 0.30221 0.0
C130 C 0.02974 0.44849 0.27949 0.0
C131 C 0.00091 0.46422 0.35827 0.0
C132 C 0.01795 0.44657 0.39257 0.0
C133 C 0.04137 0.43041 0.36992 0.0
C134 C 0.04727 0.43145 0.31393 0.0
C135 C 0.01195 0.44553 0.45215 0.0
C136 C 0.04704 0.46362 0.48557 0.0
C137 C 0.9721 0.42791 0.47591 0.0
C138 C 0.9338 0.40645 0.44308 0.0
C139 C 0.92708 0.37378 0.40878 0.0
C140 C 0.89116 0.35403 0.37746 0.0
C141 C 0.86156 0.36645 0.38042 0.0
C142 C 0.86775 0.39858 0.41482 0.0
C143 C 0.90366 0.41848 0.44617 0.0
H144 H 0.83377 0.35113 0.35613 0.0
H145 H 0.1816 0.54143 0.66213 0.0
H146 H 0.45582 0.94079 0.30947 0.0
H147 H 0.4598 0.95114 0.40769 0.0
H148 H 0.41043 0.033 0.38993 0.0
H149 H 0.40624 0.02242 0.29172 0.0
H150 H 0.47468 0.06357 0.46022 0.0
H151 H 0.34947 0.93508 0.43355 0.0
H152 H 0.30662 0.86431 0.39951 0.0
H153 H 0.37925 0.82541 0.49054 0.0
H154 H 0.42293 0.89612 0.52455 0.0
H155 H 0.42171 0.06647 0.73508 0.0
H156 H 0.41806 0.05603 0.63691 0.0
H157 H 0.46839 0.97504 0.65542 0.0
H158 H 0.47235 0.98579 0.75359 0.0
H159 H 0.40385 0.944 0.58483 0.0
H160 H 0.52893 0.07254 0.61172 0.0
H161 H 0.57156 0.14328 0.64596 0.0
H162 H 0.49898 0.18206 0.5546 0.0
H163 H 0.45551 0.11138 0.5204 0.0
C164 C 0.44601 0.9611 0.32668 0.0
C165 C 0.43144 0.98138 0.29302 0.0
C166 C 0.44816 0.96691 0.38268 0.0
C167 C 0.43512 0.99262 0.40619 0.0
C168 C 0.42088 0.01322 0.3726 0.0
C169 C 0.41881 0.00745 0.3165 0.0
C170 C 0.43605 -0.00229 0.46586 0.0
C171 C 0.45873 0.03748 0.48745 0.0
C172 C 0.41602 0.96357 0.50143 0.0
C173 C 0.38972 0.92099 0.48117 0.0
C174 C 0.35651 0.91151 0.44597 0.0
C175 C 0.33204 0.8714 0.42674 0.0
C176 C 0.34027 0.84041 0.44273 0.0
C177 C 0.37294 0.84946 0.47812 0.0
C178 C 0.39755 0.88954 0.49742 0.0
C179 C 0.43181 0.04634 0.71806 0.0
C180 C 0.44659 0.02636 0.75192 0.0
C181 C 0.42984 0.04047 0.66209 0.0
C182 C 0.44323 0.01497 0.6388 0.0
C183 C 0.45767 -0.00535 0.67259 0.0
C184 C 0.4596 0.00052 0.72867 0.0
C185 C 0.44246 0.00984 0.57916 0.0
C186 C 0.41982 0.97007 0.55759 0.0
C187 C 0.46251 0.04399 0.54361 0.0
C188 C 0.48872 0.08657 0.56392 0.0
C189 C 0.52186 0.09608 0.59926 0.0
C190 C 0.54621 0.13618 0.61861 0.0
C191 C 0.53792 0.16712 0.60258 0.0
C192 C 0.50533 0.15804 0.56704 0.0
C193 C 0.48084 0.11798 0.54763 0.0
H194 H 0.55681 0.19815 0.6176 0.0
H195 H 0.32128 0.80937 0.42781 0.0
H196 H 0.6497 0.58982 0.72648 0.0
H197 H 0.64203 0.59269 0.6283 0.0
H198 H 0.50947 0.53384 0.64756 0.0
H199 H 0.51715 0.52999 0.7457 0.0
H200 H 0.53091 0.49992 0.56581 0.0
H201 H 0.56559 0.63584 0.62095 0.0
H202 H 0.60675 0.70255 0.66682 0.0
H203 H 0.71249 0.72808 0.56941 0.0
H204 H 0.67211 0.66121 0.52347 0.0
H205 H 0.48565 0.5416 0.30134 0.0
H206 H 0.4929 0.5383 0.39957 0.0
H207 H 0.62552 0.59712 0.38121 0.0
H208 H 0.61827 0.60138 0.28308 0.0
H209 H 0.6038 0.631 0.46256 0.0
H210 H 0.56906 0.49501 0.40742 0.0
H211 H 0.52782 0.42837 0.36145 0.0
H212 H 0.42209 0.40298 0.45878 0.0
H213 H 0.46255 0.46979 0.50482 0.0
C214 C 0.61901 0.57774 0.70962 0.0
C215 C 0.58411 0.56058 0.74364 0.0
C216 C 0.61464 0.57953 0.65369 0.0
C217 C 0.57521 0.56405 0.63069 0.0
C218 C 0.5402 0.54632 0.66454 0.0
C219 C 0.54461 0.54461 0.72058 0.0
C220 C 0.5706 0.56563 0.57119 0.0
C221 C 0.54634 0.52864 0.5433 0.0
C222 C 0.5916 0.603 0.54173 0.0
C223 C 0.61593 0.64332 0.56913 0.0
C224 C 0.59772 0.65552 0.60961 0.0
C225 C 0.62089 0.69339 0.63557 0.0
C226 C 0.66224 0.71949 0.62113 0.0
C227 C 0.68047 0.70781 0.58059 0.0
C228 C 0.65745 0.66994 0.55455 0.0
C229 C 0.51627 0.55355 0.31841 0.0
C230 C 0.55131 0.57085 0.28465 0.0
C231 C 0.52039 0.55152 0.37437 0.0
C232 C 0.55972 0.5669 0.39763 0.0
C233 C 0.59486 0.58471 0.36403 0.0
C234 C 0.5907 0.58666 0.30798 0.0
C235 C 0.56414 0.56529 0.45716 0.0
C236 C 0.58836 0.60228 0.48506 0.0
C237 C 0.5431 0.52792 0.48662 0.0
C238 C 0.51874 0.48761 0.45921 0.0
C239 C 0.53692 0.47537 0.41873 0.0
C240 C 0.5137 0.43754 0.39271 0.0
C241 C 0.47233 0.4115 0.40708 0.0
C242 C 0.45412 0.4232 0.44763 0.0
C243 C 0.4772 0.46104 0.47374 0.0
H244 H 0.4544 0.38222 0.38688 0.0
H245 H 0.68013 0.7488 0.64127 0.0
H246 H 0.10639 0.39957 0.05624 0.0
H247 H 0.176 0.41017 0.04339 0.0
H248 H 0.17297 0.43998 0.87527 0.0
H249 H 0.10327 0.42945 0.88774 0.0
H250 H 0.21808 0.38326 0.9757 0.0
H251 H 0.26634 0.53058 0.85219 0.0
H252 H 0.2422 0.58006 0.83462 0.0
H253 H 0.18496 0.55494 0.99168 0.0
H254 H 0.20943 0.50595 1.01055 0.0
H255 H 0.44756 0.53927 0.89768 0.0
H256 H 0.37304 0.51045 0.88284 0.0
H257 H 0.34947 0.47319 0.05051 0.0
H258 H 0.42363 0.50224 0.0658 0.0
H259 H 0.31753 0.53021 0.93543 0.0
H260 H 0.26232 0.37726 0.05422 0.0
H261 H 0.28534 0.32698 0.07204 0.0
H262 H 0.3573 0.36379 0.92562 0.0
H263 H 0.33433 0.41387 0.90653 0.0
C264 C 0.12001 0.40717 0.01611 0.0
C265 C 0.09956 0.41426 0.97318 0.0
C266 C 0.15977 0.41312 1.00882 0.0
C267 C 0.17984 0.42661 0.95868 0.0
C268 C 0.15809 0.43001 0.91446 0.0
C269 C 0.11815 0.42377 0.92161 0.0
C270 C 0.22489 0.44213 0.95499 0.0
C271 C 0.23988 0.41535 0.96697 0.0
C272 C 0.25317 0.48392 0.94264 0.0
C273 C 0.23924 0.51418 0.9324 0.0
C274 C 0.24875 0.53576 0.88302 0.0
C275 C 0.23502 0.56372 0.87287 0.0
C276 C 0.21193 0.57051 0.91193 0.0
C277 C 0.20272 0.54954 0.96138 0.0
C278 C 0.21651 0.52167 0.97181 0.0
C279 C 0.42644 0.52489 0.9313 0.0
C280 C 0.44135 0.52285 0.98285 0.0
C281 C 0.38398 0.50856 0.92279 0.0
C282 C 0.35582 0.48924 0.96541 0.0
C283 C 0.37071 0.48751 0.01694 0.0
C284 C 0.41308 0.50434 0.02567 0.0
C285 C 0.31079 0.47142 0.95688 0.0
C286 C 0.29579 0.4979 0.94301 0.0
C287 C 0.28254 0.4294 0.96772 0.0
C288 C 0.29678 0.39954 0.97916 0.0
C289 C 0.28294 0.37453 0.02573 0.0
C290 C 0.29597 0.34605 0.03603 0.0
C291 C 0.32266 0.34213 0.9999 0.0
C292 C 0.33662 0.36686 0.95357 0.0
C293 C 0.32369 0.39538 0.94306 0.0
H294 H 0.33259 0.31996 1.00783 0.0
H295 H 0.20129 0.59211 0.90393 0.0
H296 H 0.56711 0.08055 0.13125 0.0
H297 H 0.64076 0.13162 0.14095 0.0
H298 H 0.64658 0.16301 0.97172 0.0
H299 H 0.57362 0.1122 0.96153 0.0
H300 H 0.70811 0.13537 0.08924 0.0
H301 H 0.70643 0.26238 0.95422 0.0
H302 H 0.66321 0.29433 0.93893 0.0
H303 H 0.61006 0.25633 0.09753 0.0
H304 H 0.65264 0.22386 0.11358 0.0
H305 H 0.88947 0.3208 0.94486 0.0
H306 H 0.81884 0.26467 0.95806 0.0
H307 H 0.83985 0.26644 0.12996 0.0
H308 H 0.91089 0.32328 0.11739 0.0
H309 H 0.76507 0.27974 0.02735 0.0
H310 H 0.76774 0.15957 0.16871 0.0
H311 H 0.81316 0.13148 0.19232 0.0
H312 H 0.86583 0.15968 0.03249 0.0
H313 H 0.82033 0.18736 1.00771 0.0
C314 C 0.58412 0.09845 0.09619 0.0
C315 C 0.56458 0.09241 0.04562 0.0
C316 C 0.62609 0.12753 0.10183 0.0
C317 C 0.64886 0.15131 0.05722 0.0
C318 C 0.62935 0.14539 1.00686 0.0
C319 C 0.58768 0.11618 1.00106 0.0
C320 C 0.6935 0.18132 0.06185 0.0
C321 C 0.72062 0.16719 0.07681 0.0
C322 C 0.70966 0.22268 0.04541 0.0
C323 C 0.68261 0.24055 0.03497 0.0
C324 C 0.68545 0.26078 0.98577 0.0
C325 C 0.66104 0.27895 0.97696 0.0
C326 C 0.63403 0.2775 0.01731 0.0
C327 C 0.63104 0.25748 0.06634 0.0
C328 C 0.65504 0.2389 0.07513 0.0
C329 C 0.87953 0.30876 0.98541 0.0
C330 C 0.90561 0.32687 0.0302 0.0
C331 C 0.83913 0.27672 0.99282 0.0
C332 C 0.82426 0.26184 0.04495 0.0
C333 C 0.85099 0.27761 0.08941 0.0
C334 C 0.89151 0.31 0.0821 0.0
C335 C 0.77961 0.2334 0.05283 0.0
C336 C 0.75253 0.24803 0.04041 0.0
C337 C 0.76368 0.19285 0.0725 0.0
C338 C 0.79103 0.17606 0.08666 0.0
C339 C 0.78899 0.15971 0.1386 0.0
C340 C 0.81473 0.14385 0.15218 0.0
C341 C 0.8425 0.14397 0.11401 0.0
C342 C 0.84447 0.15981 0.06211 0.0
C343 C 0.81877 0.17569 0.04833 0.0
H344 H 0.8624 0.13168 0.1246 0.0
H345 H 0.61526 0.2917 1.01051 0.0
H346 H 0.48028 0.90596 0.07807 0.0
H347 H 0.50802 0.85986 0.06482 0.0
H348 H 0.50186 0.87084 0.89166 0.0
H349 H 0.4743 0.9176 0.90445 0.0
H350 H 0.47207 0.78746 0.93334 0.0
H351 H 0.59084 0.92294 0.94114 0.0
H352 H 0.63391 0.99228 0.97946 0.0
H353 H 0.64649 0.93924 0.12753 0.0
H354 H 0.6029 0.86953 0.09043 0.0
H355 H 0.58252 0.68094 0.90187 0.0
H356 H 0.56985 0.73858 0.89028 0.0
H357 H 0.57838 0.75761 0.06309 0.0
H358 H 0.59126 0.70034 0.07507 0.0
H359 H 0.61173 0.83046 1.00704 0.0
H360 H 0.48704 0.69761 1.00764 0.0
H361 H 0.44184 0.62674 0.97521 0.0
H362 H 0.4378 0.67308 0.81747 0.0
H363 H 0.48367 0.74425 0.84874 0.0
C364 C 0.48456 0.89847 0.03709 0.0
C365 C 0.47543 0.91573 0.99227 0.0
C366 C 0.5005 0.87219 0.02965 0.0
C367 C 0.5074 0.86245 0.97731 0.0
C368 C 0.49692 0.87828 0.93235 0.0
C369 C 0.48133 0.90504 0.93976 0.0
C370 C 0.52666 0.83655 0.97033 0.0
C371 C 0.50297 0.79712 0.94821 0.0
C372 C 0.56662 0.84906 0.99087 0.0
C373 C 0.59336 0.89098 1.01309 0.0
C374 C 0.60254 0.92604 0.98201 0.0
C375 C 0.62708 0.96542 1.0035 0.0
C376 C 0.64287 0.97016 0.05593 0.0
C377 C 0.63423 0.93552 0.08693 0.0
C378 C 0.60965 0.89606 0.06566 0.0
C379 C 0.58283 0.6981 0.93727 0.0
C380 C 0.58735 0.68578 0.98948 0.0
C381 C 0.57539 0.73088 0.93057 0.0
C382 C 0.57246 0.75179 0.97593 0.0
C383 C 0.58037 0.74173 0.02759 0.0
C384 C 0.58762 0.70891 0.03437 0.0
C385 C 0.55699 0.78113 0.97068 0.0
C386 C 0.58126 0.82112 0.99086 0.0
C387 C 0.51736 0.76893 0.94896 0.0
C388 C 0.48922 0.72622 0.93032 0.0
C389 C 0.47678 0.69267 0.96592 0.0
C390 C 0.45102 0.65245 0.94778 0.0
C391 C 0.43706 0.6454 0.89427 0.0
C392 C 0.44873 0.67858 0.85887 0.0
C393 C 0.47462 0.71887 0.87677 0.0
H394 H 0.41712 0.61423 0.8803 0.0
H395 H 0.66185 0.00068 0.0725 0.0
H396 H 0.94299 0.52738 0.97092 0.0
H397 H 0.89609 0.55425 0.98846 0.0
H398 H 0.85731 0.48571 0.13812 0.0
H399 H 0.9056 0.46009 0.12201 0.0
H400 H 0.79523 0.48052 0.03433 0.0
H401 H 0.88912 0.55698 0.1789 0.0
H402 H 0.95655 0.60311 0.22103 0.0
H403 H 0.97554 0.69983 0.11084 0.0
H404 H 0.90874 0.65374 0.06679 0.0
H405 H 0.68638 0.59305 0.13352 0.0
H406 H 0.74429 0.58054 0.14752 0.0
H407 H 0.76222 0.58245 0.97483 0.0
H408 H 0.70495 0.59522 0.96033 0.0
H409 H 0.83214 0.61783 0.10796 0.0
H410 H 0.75468 0.48861 0.9494 0.0
H411 H 0.68505 0.44371 0.91164 0.0
H412 H 0.62968 0.45082 0.06082 0.0
H413 H 0.69895 0.49505 0.09981 0.0
C414 C 0.92475 0.51839 1.00782 0.0
C415 C 0.92778 0.49165 0.04512 0.0
C416 C 0.89825 0.53393 0.01792 0.0
C417 C 0.87382 0.52238 0.0649 0.0
C418 C 0.87657 0.49553 0.10214 0.0
C419 C 0.90397 0.48085 0.09281 0.0
C420 C 0.84285 0.53561 0.07202 0.0
C421 C 0.80315 0.51036 0.05088 0.0
C422 C 0.85324 0.57436 0.09416 0.0
C423 C 0.89426 0.60159 0.11884 0.0
C424 C 0.90808 0.58774 0.16277 0.0
C425 C 0.9461 0.61397 0.18722 0.0
C426 C 0.97035 0.65435 0.16856 0.0
C427 C 0.9567 0.66854 0.12527 0.0
C428 C 0.91885 0.6423 0.10038 0.0
C429 C 0.70347 0.59212 0.0986 0.0
C430 C 0.69057 0.59442 0.04577 0.0
C431 C 0.73655 0.585 0.10672 0.0
C432 C 0.75688 0.57989 0.06214 0.0
C433 C 0.74654 0.58592 1.00969 0.0
C434 C 0.71377 0.59324 1.00154 0.0
C435 C 0.78498 0.56308 0.06927 0.0
C436 C 0.82409 0.58772 0.09233 0.0
C437 C 0.77387 0.52342 0.04976 0.0
C438 C 0.73206 0.49547 0.02733 0.0
C439 C 0.72767 0.48034 0.97427 0.0
C440 C 0.68825 0.45503 0.95264 0.0
C441 C 0.65297 0.44452 0.98376 0.0
C442 C 0.65703 0.45909 0.0367 0.0
C443 C 0.69637 0.48429 0.05856 0.0
H444 H 0.62249 0.42503 0.96689 0.0
H445 H -0.00036 0.67469 0.18779 0.0
H446 H 0.10766 0.58131 0.07462 0.0
H447 H 0.15296 0.65548 0.06398 0.0
H448 H 0.15115 0.64151 0.89052 0.0
H449 H 0.10541 0.56706 0.90061 0.0
H450 H 0.23185 0.7001 0.93959 0.0
H451 H 0.09116 0.66919 0.9291 0.0
H452 H 0.01841 0.63275 0.95951 0.0
H453 H 0.05477 0.69428 0.11291 0.0
H454 H 0.12786 0.73047 0.08379 0.0
H455 H 0.32195 0.91251 0.90839 0.0
H456 H 0.26474 0.84267 0.89431 0.0
H457 H 0.24366 0.82731 0.06671 0.0
H458 H 0.30083 0.89706 0.08137 0.0
H459 H 0.17016 0.78349 1.00327 0.0
H460 H 0.31039 0.80578 0.01805 0.0
H461 H 0.38388 0.83885 0.99102 0.0
H462 H 0.34826 0.79204 0.82965 0.0
H463 H 0.2745 0.75926 0.85556 0.0
C464 C 0.11739 0.59387 0.03425 0.0
C465 C 0.10255 0.56857 0.98839 0.0
C466 C 0.14316 0.63618 0.02827 0.0
C467 C 0.1547 0.65369 0.97647 0.0
C468 C 0.14223 0.62833 0.93074 0.0
C469 C 0.11603 0.58597 0.93662 0.0
C470 C 0.17718 0.69876 0.97051 0.0
C471 C 0.2182 0.71842 0.95227 0.0
C472 C 0.15913 0.72228 0.98761 0.0
C473 C 0.11503 0.70231 1.0044 0.0
C474 C 0.08365 0.67485 0.9694 0.0
C475 C 0.04236 0.6542 0.9864 0.0
C476 C 0.03197 0.66106 0.03817 0.0
C477 C 0.06283 0.68891 0.07285 0.0
C478 C 0.10422 0.70955 0.05609 0.0
C479 C 0.30428 0.89484 0.94323 0.0
C480 C 0.31646 0.90984 0.99613 0.0
C481 C 0.27161 0.85496 0.93503 0.0
C482 C 0.25073 0.82982 0.97957 0.0
C483 C 0.25965 0.84635 0.03191 0.0
C484 C 0.29246 0.88612 0.0402 0.0
C485 C 0.22509 0.78494 0.97291 0.0
C486 C 0.18352 0.76524 0.98916 0.0
C487 C 0.24264 0.76135 0.95388 0.0
C488 C 0.28696 0.7805 0.93854 0.0
C489 C 0.31824 0.80282 0.9767 0.0
C490 C 0.35993 0.82149 0.9616 0.0
C491 C 0.37072 0.81765 0.90861 0.0
C492 C 0.33984 0.79505 0.87065 0.0
C493 C 0.2981 0.77643 0.88551 0.0
H494 H 0.40298 0.83203 0.89696 0.0
H495 H 1e-05 0.64472 0.0513 0.0
H496 H 0.53646 0.42968 0.95251 0.0
H497 H 0.51067 0.35623 0.96496 0.0
H498 H 0.51105 0.37098 0.13829 0.0
H499 H 0.53593 0.44442 0.12615 0.0
H500 H 0.53796 0.31141 1.0146 0.0
H501 H 0.42509 0.28328 0.19136 0.0
H502 H 0.38831 0.31598 0.23242 0.0
H503 H 0.3889 0.37092 0.07946 0.0
H504 H 0.42414 0.33725 0.03692 0.0
H505 H 0.42388 0.10271 0.13957 0.0
H506 H 0.43905 0.17397 0.14839 0.0
H507 H 0.41952 0.17849 0.97705 0.0
H508 H 0.40419 0.10757 0.96776 0.0
H509 H 0.40371 0.22787 0.10994 0.0
H510 H 0.51581 0.25726 0.93277 0.0
H511 H 0.54958 0.22255 0.88885 0.0
H512 H 0.54841 0.16476 0.03971 0.0
H513 H 0.51615 0.20026 0.08485 0.0
C514 C 0.5313 0.41738 0.99331 0.0
C515 C 0.53753 0.44267 0.03831 0.0
C516 C 0.51672 0.37542 1.00037 0.0
C517 C 0.50823 0.35807 0.05249 0.0
C518 C 0.51659 0.38365 0.09766 0.0
C519 C 0.53086 0.42558 0.09063 0.0
C520 C 0.48888 0.31293 0.05895 0.0
C521 C 0.50855 0.29322 0.03526 0.0
C522 C 0.45081 0.28925 0.08683 0.0
C523 C 0.42782 0.30817 0.11118 0.0
C524 C 0.41701 0.30201 0.16636 0.0
C525 C 0.39632 0.32062 0.18984 0.0
C526 C 0.38624 0.34548 0.15852 0.0
C527 C 0.39654 0.3515 0.10356 0.0
C528 C 0.41682 0.33259 0.07973 0.0
C529 C 0.42122 0.11832 0.10418 0.0
C530 C 0.41387 0.09995 0.05274 0.0
C531 C 0.42977 0.15898 0.10936 0.0
C532 C 0.43113 0.18144 0.06316 0.0
C533 C 0.41896 0.16157 1.01301 0.0
C534 C 0.41037 0.1211 1.0078 0.0
C535 C 0.45251 0.22676 0.06477 0.0
C536 C 0.43333 0.24633 0.08992 0.0
C537 C 0.49097 0.25043 0.03805 0.0
C538 C 0.51289 0.23094 1.012 0.0
C539 C 0.52308 0.23742 0.95665 0.0
C540 C 0.54198 0.21759 0.93152 0.0
C541 C 0.55081 0.19117 0.96132 0.0
C542 C 0.54118 0.18486 0.01646 0.0
C543 C 0.52273 0.20497 0.04189 0.0
H544 H 0.5654 0.17586 0.94175 0.0
H545 H 0.37046 0.36007 0.17684 0.0
loop_
_geom_bond_atom_site_label_1
_geom_bond_atom_site_label_2
_geom_bond_distance
_geom_bond_site_symmetry_2
_ccdc_geom_bond_type
Zn0 O1 2.055 . S
Zn0 O8 2.046 1_455 S
Zn0 N16 2.036 . S
Zn0 O28 2.053 1_455 S
Zn0 O30 2.066 . S
O1 Zn0 2.055 . S
O1 C4 1.259 . S
C2 O30 1.256 . S
C2 O31 1.244 1_556 S
Zn3 O5 2.046 . S
Zn3 O7 2.055 1_455 S
Zn3 N9 2.036 . S
Zn3 O27 2.066 1_455 S
Zn3 O31 2.053 . S
C4 O1 1.259 . S
C4 O5 1.254 1_556 S
O5 Zn3 2.046 . S
O5 C4 1.254 1_554 S
C6 O27 1.256 . S
C6 O28 1.244 1_554 S
O7 Zn3 2.055 1_655 S
O7 C29 1.259 . S
O8 Zn0 2.046 1_655 S
O8 C29 1.254 1_556 S
N9 Zn3 2.036 . S
N9 C10 1.298 1_455 S
N9 N12 1.398 . S
C10 N9 1.298 1_655 S
C10 N13 1.367 1_655 S
C10 C23 1.481 . S
C11 N12 1.299 . S
C11 N13 1.379 . S
N12 N9 1.398 . S
N12 C11 1.299 . S
N13 C10 1.367 1_455 S
N13 C11 1.379 . S
C14 N16 1.298 . S
C14 N18 1.367 . S
C14 C22 1.481 . S
C15 N17 1.299 . S
C15 N18 1.379 1_655 S
N16 Zn0 2.036 . S
N16 C14 1.298 . S
N16 N17 1.398 1_455 S
N17 C15 1.299 . S
N17 N16 1.398 1_655 S
N18 C14 1.367 . S
N18 C15 1.379 1_455 S
H19 C22 0.980 . S
H20 C22 0.981 . S
H21 C22 0.981 . S
C22 C14 1.481 . S
C22 H19 0.980 . S
C22 H20 0.981 . S
C22 H21 0.981 . S
C23 C10 1.481 . S
C23 H24 0.980 . S
C23 H25 0.981 . S
C23 H26 0.981 . S
H24 C23 0.980 . S
H25 C23 0.981 . S
H26 C23 0.981 . S
O27 Zn3 2.066 1_655 S
O27 C6 1.256 . S
O28 Zn0 2.053 1_655 S
O28 C6 1.244 1_556 S
C29 O7 1.259 . S
C29 O8 1.254 1_554 S
O30 Zn0 2.066 . S
O30 C2 1.256 . S
O31 C2 1.244 1_554 S
O31 Zn3 2.053 . S
Zn32 O33 2.055 1_545 S
Zn32 O40 2.046 . S
Zn32 N48 2.036 . S
Zn32 O60 2.053 . S
Zn32 O62 2.066 1_545 S
O33 Zn32 2.055 1_565 S
O33 C36 1.259 . S
C34 O62 1.256 . S
C34 O63 1.244 1_556 S
Zn35 O37 2.046 1_545 S
Zn35 O39 2.055 . S
Zn35 N41 2.036 . S
Zn35 O59 2.066 . S
Zn35 O63 2.053 1_545 S
C36 O33 1.259 . S
C36 O37 1.254 1_556 S
O37 Zn35 2.046 1_565 S
O37 C36 1.254 1_554 S
C38 O59 1.256 . S
C38 O60 1.244 1_554 S
O39 Zn35 2.055 . S
O39 C61 1.259 . S
O40 Zn32 2.046 . S
O40 C61 1.254 1_556 S
N41 Zn35 2.036 . S
N41 C42 1.298 . S
N41 N44 1.398 1_545 S
C42 N41 1.298 . S
C42 N45 1.367 . S
C42 C55 1.481 . S
C43 N44 1.299 . S
C43 N45 1.379 1_565 S
N44 N41 1.398 1_565 S
N44 C43 1.299 . S
N45 C42 1.367 . S
N45 C43 1.379 1_545 S
C46 N48 1.298 1_565 S
C46 N50 1.367 1_565 S
C46 C54 1.481 . S
C47 N49 1.299 . S
C47 N50 1.379 . S
N48 Zn32 2.036 . S
N48 C46 1.298 1_545 S
N48 N49 1.398 . S
N49 C47 1.299 . S
N49 N48 1.398 . S
N50 C46 1.367 1_545 S
N50 C47 1.379 . S
H51 C54 0.980 . S
H52 C54 0.981 . S
H53 C54 0.981 . S
C54 C46 1.481 . S
C54 H51 0.980 . S
C54 H52 0.981 . S
C54 H53 0.981 . S
C55 C42 1.481 . S
C55 H56 0.980 . S
C55 H57 0.981 . S
C55 H58 0.981 . S
H56 C55 0.980 . S
H57 C55 0.981 . S
H58 C55 0.981 . S
O59 Zn35 2.066 . S
O59 C38 1.256 . S
O60 Zn32 2.053 . S
O60 C38 1.244 1_556 S
C61 O39 1.259 . S
C61 O40 1.254 1_554 S
O62 Zn32 2.066 1_565 S
O62 C34 1.256 . S
O63 C34 1.244 1_554 S
O63 Zn35 2.053 1_565 S
Zn64 O65 2.055 . S
Zn64 O72 2.046 . S
Zn64 N80 2.036 . S
Zn64 O92 2.053 . S
Zn64 O94 2.066 . S
O65 Zn64 2.055 . S
O65 C68 1.259 . S
C66 O94 1.256 . S
C66 O95 1.244 1_554 S
Zn67 O69 2.046 . S
Zn67 O71 2.055 . S
Zn67 N73 2.036 . S
Zn67 O91 2.066 . S
Zn67 O95 2.053 . S
C68 O65 1.259 . S
C68 O69 1.254 1_554 S
O69 Zn67 2.046 . S
O69 C68 1.254 1_556 S
C70 O91 1.256 . S
C70 O92 1.244 1_556 S
O71 Zn67 2.055 . S
O71 C93 1.259 . S
O72 Zn64 2.046 . S
O72 C93 1.254 1_554 S
N73 Zn67 2.036 . S
N73 C74 1.298 . S
N73 N76 1.398 . S
C74 N73 1.298 . S
C74 N77 1.367 . S
C74 C87 1.481 . S
C75 N76 1.299 . S
C75 N77 1.379 . S
N76 N73 1.398 . S
N76 C75 1.299 . S
N77 C74 1.367 . S
N77 C75 1.379 . S
C78 N80 1.298 . S
C78 N82 1.367 . S
C78 C86 1.481 . S
C79 N81 1.299 . S
C79 N82 1.379 . S
N80 Zn64 2.036 . S
N80 C78 1.298 . S
N80 N81 1.398 . S
N81 C79 1.299 . S
N81 N80 1.398 . S
N82 C78 1.367 . S
N82 C79 1.379 . S
H83 C86 0.980 . S
H84 C86 0.981 . S
H85 C86 0.981 . S
C86 C78 1.481 . S
C86 H83 0.980 . S
C86 H84 0.981 . S
C86 H85 0.981 . S
C87 C74 1.481 . S
C87 H88 0.980 . S
C87 H89 0.981 . S
C87 H90 0.981 . S
H88 C87 0.980 . S
H89 C87 0.981 . S
H90 C87 0.981 . S
O91 Zn67 2.066 . S
O91 C70 1.256 . S
O92 Zn64 2.053 . S
O92 C70 1.244 1_554 S
C93 O71 1.259 . S
C93 O72 1.254 1_556 S
O94 Zn64 2.066 . S
O94 C66 1.256 . S
O95 C66 1.244 1_556 S
O95 Zn67 2.053 . S
H96 C114 0.951 . S
H97 C116 0.951 . S
H98 C118 0.950 . S
H99 C119 0.950 . S
H100 C121 0.950 . S
H101 C124 0.950 . S
H102 C125 0.950 . S
H103 C127 0.950 . S
H104 C128 0.950 . S
H105 C129 0.951 . S
H106 C131 0.951 . S
H107 C133 0.950 . S
H108 C134 0.950 . S
H109 C136 0.950 . S
H110 C139 0.950 . S
H111 C140 0.950 . S
H112 C142 0.950 . S
H113 C143 0.950 . S
C114 H96 0.951 . S
C114 C115 1.366 . S
C114 C116 1.388 . S
C115 C114 1.366 . S
C115 C119 1.385 1_455 S
C116 H97 0.951 . S
C116 C114 1.388 . S
C116 C117 1.366 . S
C117 C116 1.366 . S
C117 C118 1.414 1_455 S
C117 C120 1.499 . S
C118 H98 0.950 . S
C118 C117 1.414 1_655 S
C118 C119 1.374 . S
C119 H99 0.950 . S
C119 C115 1.385 1_655 S
C119 C118 1.374 . S
C120 C117 1.499 . S
C120 C121 1.373 1_455 S
C120 C122 1.389 . S
C121 H100 0.950 . S
C121 C120 1.373 1_655 S
C121 C137 1.377 . S
C122 C120 1.389 . S
C122 C123 1.524 . S
C122 C136 1.377 . S
C123 C122 1.524 . S
C123 C124 1.397 . S
C123 C128 1.363 . S
C124 H101 0.950 . S
C124 C123 1.397 . S
C124 C125 1.334 . S
C125 H102 0.950 . S
C125 C124 1.334 . S
C125 C126 1.287 . S
C126 C125 1.287 . S
C126 C127 1.524 . S
C126 H145 0.913 . S
C127 H103 0.950 . S
C127 C126 1.524 . S
C127 C128 1.415 . S
C128 H104 0.950 . S
C128 C123 1.363 . S
C128 C127 1.415 . S
C129 H105 0.951 . S
C129 C130 1.366 . S
C129 C131 1.388 . S
C130 C129 1.366 . S
C130 C134 1.385 1_655 S
C131 H106 0.951 . S
C131 C129 1.388 . S
C131 C132 1.366 1_655 S
C132 C131 1.366 1_455 S
C132 C133 1.414 . S
C132 C135 1.499 . S
C133 H107 0.950 . S
C133 C132 1.414 . S
C133 C134 1.374 . S
C134 H108 0.950 . S
C134 C130 1.385 1_455 S
C134 C133 1.374 . S
C135 C132 1.499 . S
C135 C136 1.373 . S
C135 C137 1.389 1_455 S
C136 H109 0.950 . S
C136 C122 1.377 . S
C136 C135 1.373 . S
C137 C121 1.377 . S
C137 C135 1.389 1_655 S
C137 C138 1.524 . S
C138 C137 1.524 . S
C138 C139 1.397 . S
C138 C143 1.363 . S
C139 H110 0.950 . S
C139 C138 1.397 . S
C139 C140 1.334 . S
C140 H111 0.950 . S
C140 C139 1.334 . S
C140 C141 1.287 . S
C141 C140 1.287 . S
C141 C142 1.524 . S
C141 H144 0.999 . S
C142 H112 0.950 . S
C142 C141 1.524 . S
C142 C143 1.415 . S
C143 H113 0.950 . S
C143 C138 1.363 . S
C143 C142 1.415 . S
H144 C141 0.999 . S
H145 C126 0.913 . S
H146 C164 0.951 . S
H147 C166 0.951 . S
H148 C168 0.950 . S
H149 C169 0.950 . S
H150 C171 0.950 . S
H151 C174 0.950 . S
H152 C175 0.950 . S
H153 C177 0.950 . S
H154 C178 0.950 . S
H155 C179 0.951 . S
H156 C181 0.951 . S
H157 C183 0.950 . S
H158 C184 0.950 . S
H159 C186 0.950 . S
H160 C189 0.950 . S
H161 C190 0.950 . S
H162 C192 0.950 . S
H163 C193 0.950 . S
C164 H146 0.951 . S
C164 C165 1.366 1_565 S
C164 C166 1.388 . S
C165 C164 1.366 1_545 S
C165 C169 1.385 . S
C166 H147 0.951 . S
C166 C164 1.388 . S
C166 C167 1.366 1_565 S
C167 C166 1.366 1_545 S
C167 C168 1.414 . S
C167 C170 1.499 . S
C168 H148 0.950 . S
C168 C167 1.414 . S
C168 C169 1.374 . S
C169 H149 0.950 . S
C169 C165 1.385 . S
C169 C168 1.374 . S
C170 C167 1.499 . S
C170 C171 1.373 . S
C170 C172 1.389 1_545 S
C171 H150 0.950 . S
C171 C170 1.373 . S
C171 C187 1.377 . S
C172 C170 1.389 1_565 S
C172 C173 1.524 . S
C172 C186 1.377 . S
C173 C172 1.524 . S
C173 C174 1.397 . S
C173 C178 1.363 . S
C174 H151 0.950 . S
C174 C173 1.397 . S
C174 C175 1.334 . S
C175 H152 0.950 . S
C175 C174 1.334 . S
C175 C176 1.287 . S
C176 C175 1.287 . S
C176 C177 1.524 . S
C176 H195 0.913 . S
C177 H153 0.950 . S
C177 C176 1.524 . S
C177 C178 1.415 . S
C178 H154 0.950 . S
C178 C173 1.363 . S
C178 C177 1.415 . S
C179 H155 0.951 . S
C179 C180 1.366 1_545 S
C179 C181 1.388 . S
C180 C179 1.366 1_565 S
C180 C184 1.385 . S
C181 H156 0.951 . S
C181 C179 1.388 . S
C181 C182 1.366 . S
C182 C181 1.366 . S
C182 C183 1.414 1_545 S
C182 C185 1.499 . S
C183 H157 0.950 . S
C183 C182 1.414 1_565 S
C183 C184 1.374 . S
C184 H158 0.950 . S
C184 C180 1.385 . S
C184 C183 1.374 . S
C185 C182 1.499 . S
C185 C186 1.373 1_545 S
C185 C187 1.389 . S
C186 H159 0.950 . S
C186 C172 1.377 . S
C186 C185 1.373 1_565 S
C187 C171 1.377 . S
C187 C185 1.389 . S
C187 C188 1.524 . S
C188 C187 1.524 . S
C188 C189 1.397 . S
C188 C193 1.363 . S
C189 H160 0.950 . S
C189 C188 1.397 . S
C189 C190 1.334 . S
C190 H161 0.950 . S
C190 C189 1.334 . S
C190 C191 1.287 . S
C191 C190 1.287 . S
C191 C192 1.524 . S
C191 H194 0.999 . S
C192 H162 0.950 . S
C192 C191 1.524 . S
C192 C193 1.415 . S
C193 H163 0.950 . S
C193 C188 1.363 . S
C193 C192 1.415 . S
H194 C191 0.999 . S
H195 C176 0.913 . S
H196 C214 0.951 . S
H197 C216 0.951 . S
H198 C218 0.950 . S
H199 C219 0.950 . S
H200 C221 0.950 . S
H201 C224 0.950 . S
H202 C225 0.950 . S
H203 C227 0.950 . S
H204 C228 0.950 . S
H205 C229 0.951 . S
H206 C231 0.951 . S
H207 C233 0.950 . S
H208 C234 0.950 . S
H209 C236 0.950 . S
H210 C239 0.950 . S
H211 C240 0.950 . S
H212 C242 0.950 . S
H213 C243 0.950 . S
C214 H196 0.951 . S
C214 C215 1.366 . S
C214 C216 1.388 . S
C215 C214 1.366 . S
C215 C219 1.385 . S
C216 H197 0.951 . S
C216 C214 1.388 . S
C216 C217 1.366 . S
C217 C216 1.366 . S
C217 C218 1.414 . S
C217 C220 1.499 . S
C218 H198 0.950 . S
C218 C217 1.414 . S
C218 C219 1.374 . S
C219 H199 0.950 . S
C219 C215 1.385 . S
C219 C218 1.374 . S
C220 C217 1.499 . S
C220 C221 1.373 . S
C220 C222 1.389 . S
C221 H200 0.950 . S
C221 C220 1.373 . S
C221 C237 1.377 . S
C222 C220 1.389 . S
C222 C223 1.524 . S
C222 C236 1.377 . S
C223 C222 1.524 . S
C223 C224 1.397 . S
C223 C228 1.363 . S
C224 H201 0.950 . S
C224 C223 1.397 . S
C224 C225 1.334 . S
C225 H202 0.950 . S
C225 C224 1.334 . S
C225 C226 1.287 . S
C226 C225 1.287 . S
C226 C227 1.524 . S
C226 H245 0.913 . S
C227 H203 0.950 . S
C227 C226 1.524 . S
C227 C228 1.415 . S
C228 H204 0.950 . S
C228 C223 1.363 . S
C228 C227 1.415 . S
C229 H205 0.951 . S
C229 C230 1.366 . S
C229 C231 1.388 . S
C230 C229 1.366 . S
C230 C234 1.385 . S
C231 H206 0.951 . S
C231 C229 1.388 . S
C231 C232 1.366 . S
C232 C231 1.366 . S
C232 C233 1.414 . S
C232 C235 1.499 . S
C233 H207 0.950 . S
C233 C232 1.414 . S
C233 C234 1.374 . S
C234 H208 0.950 . S
C234 C230 1.385 . S
C234 C233 1.374 . S
C235 C232 1.499 . S
C235 C236 1.373 . S
C235 C237 1.389 . S
C236 H209 0.950 . S
C236 C222 1.377 . S
C236 C235 1.373 . S
C237 C221 1.377 . S
C237 C235 1.389 . S
C237 C238 1.524 . S
C238 C237 1.524 . S
C238 C239 1.397 . S
C238 C243 1.363 . S
C239 H210 0.950 . S
C239 C238 1.397 . S
C239 C240 1.334 . S
C240 H211 0.950 . S
C240 C239 1.334 . S
C240 C241 1.287 . S
C241 C240 1.287 . S
C241 C242 1.524 . S
C241 H244 0.999 . S
C242 H212 0.950 . S
C242 C241 1.524 . S
C242 C243 1.415 . S
C243 H213 0.950 . S
C243 C238 1.363 . S
C243 C242 1.415 . S
H244 C241 0.999 . S
H245 C226 0.913 . S
H246 C264 0.951 . S
H247 C266 0.951 . S
H248 C268 0.950 . S
H249 C269 0.950 . S
H250 C271 0.950 . S
H251 C274 0.950 . S
H252 C275 0.950 . S
H253 C277 0.950 . S
H254 C278 0.950 . S
H255 C279 0.951 . S
H256 C281 0.951 . S
H257 C283 0.950 . S
H258 C284 0.950 . S
H259 C286 0.950 . S
H260 C289 0.950 . S
H261 C290 0.950 . S
H262 C292 0.950 . S
H263 C293 0.944 1_556 S
C264 H246 0.951 . S
C264 C265 1.366 1_554 S
C264 C266 1.388 . S
C265 C264 1.366 1_556 S
C265 C269 1.385 . S
C266 H247 0.951 . S
C266 C264 1.388 . S
C266 C267 1.366 1_554 S
C267 C266 1.366 1_556 S
C267 C268 1.414 . S
C267 C270 1.499 . S
C268 H248 0.950 . S
C268 C267 1.414 . S
C268 C269 1.374 . S
C269 H249 0.950 . S
C269 C265 1.385 . S
C269 C268 1.374 . S
C270 C267 1.499 . S
C270 C271 1.373 1_556 S
C270 C272 1.389 . S
C271 H250 0.950 . S
C271 C270 1.373 1_554 S
C271 C287 1.377 . S
C272 C270 1.389 . S
C272 C273 1.524 . S
C272 C286 1.377 . S
C273 C272 1.524 . S
C273 C274 1.397 . S
C273 C278 1.363 . S
C274 H251 0.950 . S
C274 C273 1.397 . S
C274 C275 1.334 . S
C275 H252 0.950 . S
C275 C274 1.334 . S
C275 C276 1.287 . S
C276 C275 1.287 . S
C276 C277 1.524 . S
C276 H295 0.913 . S
C277 H253 0.950 . S
C277 C276 1.524 . S
C277 C278 1.415 . S
C278 H254 0.950 . S
C278 C273 1.363 . S
C278 C277 1.415 . S
C279 H255 0.951 . S
C279 C280 1.366 . S
C279 C281 1.388 . S
C280 C279 1.366 . S
C280 C284 1.385 1_556 S
C281 H256 0.951 . S
C281 C279 1.388 . S
C281 C282 1.366 . S
C282 C281 1.366 . S
C282 C283 1.414 1_556 S
C282 C285 1.499 . S
C283 H257 0.950 . S
C283 C282 1.414 1_554 S
C283 C284 1.374 . S
C284 H258 0.950 . S
C284 C280 1.385 1_554 S
C284 C283 1.374 . S
C285 C282 1.499 . S
C285 C286 1.373 . S
C285 C287 1.389 1_556 S
C286 H259 0.950 . S
C286 C272 1.377 . S
C286 C285 1.373 . S
C287 C271 1.377 . S
C287 C285 1.389 1_554 S
C287 C288 1.524 . S
C288 C287 1.524 . S
C288 C289 1.397 . S
C288 C293 1.363 . S
C289 H260 0.950 . S
C289 C288 1.397 . S
C289 C290 1.334 . S
C290 H261 0.950 . S
C290 C289 1.334 . S
C290 C291 1.287 . S
C291 C290 1.287 . S
C291 C292 1.524 . S
C291 H294 0.999 . S
C292 H262 0.950 . S
C292 C291 1.524 . S
C292 C293 1.415 . S
C293 H263 0.944 1_554 S
C293 C288 1.363 . S
C293 C292 1.415 . S
H294 C291 0.999 . S
H295 C276 0.913 . S
H296 C314 0.951 . S
H297 C316 0.951 . S
H298 C318 0.950 . S
H299 C319 0.950 . S
H300 C321 0.950 . S
H301 C324 0.950 . S
H302 C325 0.950 . S
H303 C327 0.950 . S
H304 C328 0.950 . S
H305 C329 0.951 . S
H306 C331 0.951 . S
H307 C333 0.950 . S
H308 C334 0.950 . S
H309 C336 0.950 . S
H310 C339 0.950 . S
H311 C340 0.950 . S
H312 C342 0.950 . S
H313 C343 0.950 . S
C314 H296 0.951 . S
C314 C315 1.366 . S
C314 C316 1.388 . S
C315 C314 1.366 . S
C315 C319 1.385 1_554 S
C316 H297 0.951 . S
C316 C314 1.388 . S
C316 C317 1.366 . S
C317 C316 1.366 . S
C317 C318 1.414 1_554 S
C317 C320 1.499 . S
C318 H298 0.950 . S
C318 C317 1.414 1_556 S
C318 C319 1.374 . S
C319 H299 0.950 . S
C319 C315 1.385 1_556 S
C319 C318 1.374 . S
C320 C317 1.499 . S
C320 C321 1.373 . S
C320 C322 1.389 1_554 S
C321 H300 0.950 . S
C321 C320 1.373 . S
C321 C337 1.377 . S
C322 C320 1.389 1_556 S
C322 C323 1.524 . S
C322 C336 1.377 . S
C323 C322 1.524 . S
C323 C324 1.397 . S
C323 C328 1.363 . S
C324 H301 0.950 . S
C324 C323 1.397 . S
C324 C325 1.334 . S
C325 H302 0.950 . S
C325 C324 1.334 . S
C325 C326 1.287 . S
C326 C325 1.287 . S
C326 C327 1.524 . S
C326 H345 0.913 . S
C327 H303 0.950 . S
C327 C326 1.524 . S
C327 C328 1.415 . S
C328 H304 0.950 . S
C328 C323 1.363 . S
C328 C327 1.415 . S
C329 H305 0.951 . S
C329 C330 1.366 1_556 S
C329 C331 1.388 . S
C330 C329 1.366 1_554 S
C330 C334 1.385 . S
C331 H306 0.951 . S
C331 C329 1.388 . S
C331 C332 1.366 1_556 S
C332 C331 1.366 1_554 S
C332 C333 1.414 . S
C332 C335 1.499 . S
C333 H307 0.950 . S
C333 C332 1.414 . S
C333 C334 1.374 . S
C334 H308 0.950 . S
C334 C330 1.385 . S
C334 C333 1.374 . S
C335 C332 1.499 . S
C335 C336 1.373 1_554 S
C335 C337 1.389 . S
C336 H309 0.950 . S
C336 C322 1.377 . S
C336 C335 1.373 1_556 S
C337 C321 1.377 . S
C337 C335 1.389 . S
C337 C338 1.524 . S
C338 C337 1.524 . S
C338 C339 1.397 . S
C338 C343 1.363 . S
C339 H310 0.950 . S
C339 C338 1.397 . S
C339 C340 1.334 . S
C340 H311 0.950 . S
C340 C339 1.334 . S
C340 C341 1.287 . S
C341 C340 1.287 . S
C341 C342 1.524 . S
C341 H344 0.999 . S
C342 H312 0.950 . S
C342 C341 1.524 . S
C342 C343 1.415 . S
C343 H313 0.950 . S
C343 C338 1.363 . S
C343 C342 1.415 . S
H344 C341 0.999 . S
H345 C326 0.913 . S
H346 C364 0.951 . S
H347 C366 0.951 . S
H348 C368 0.950 . S
H349 C369 0.950 . S
H350 C371 0.950 . S
H351 C374 0.950 . S
H352 C375 0.950 . S
H353 C377 0.950 . S
H354 C378 0.950 . S
H355 C379 0.951 . S
H356 C381 0.951 . S
H357 C383 0.950 . S
H358 C384 0.950 . S
H359 C386 0.950 . S
H360 C389 0.950 . S
H361 C390 0.950 . S
H362 C392 0.950 . S
H363 C393 0.950 . S
C364 H346 0.951 . S
C364 C365 1.366 1_554 S
C364 C366 1.388 . S
C365 C364 1.366 1_556 S
C365 C369 1.385 . S
C366 H347 0.951 . S
C366 C364 1.388 . S
C366 C367 1.366 1_554 S
C367 C366 1.366 1_556 S
C367 C368 1.414 . S
C367 C370 1.499 . S
C368 H348 0.950 . S
C368 C367 1.414 . S
C368 C369 1.374 . S
C369 H349 0.950 . S
C369 C365 1.385 . S
C369 C368 1.374 . S
C370 C367 1.499 . S
C370 C371 1.373 . S
C370 C372 1.389 1_556 S
C371 H350 0.950 . S
C371 C370 1.373 . S
C371 C387 1.377 . S
C372 C370 1.389 1_554 S
C372 C373 1.524 . S
C372 C386 1.377 . S
C373 C372 1.524 . S
C373 C374 1.397 . S
C373 C378 1.363 . S
C374 H351 0.950 . S
C374 C373 1.397 . S
C374 C375 1.334 . S
C375 H352 0.950 . S
C375 C374 1.334 . S
C375 C376 1.287 . S
C376 C375 1.287 . S
C376 C377 1.524 . S
C376 H395 0.913 . S
C377 H353 0.950 . S
C377 C376 1.524 . S
C377 C378 1.415 . S
C378 H354 0.950 . S
C378 C373 1.363 . S
C378 C377 1.415 . S
C379 H355 0.951 . S
C379 C380 1.366 . S
C379 C381 1.388 . S
C380 C379 1.366 . S
C380 C384 1.385 1_556 S
C381 H356 0.951 . S
C381 C379 1.388 . S
C381 C382 1.366 . S
C382 C381 1.366 . S
C382 C383 1.414 1_556 S
C382 C385 1.499 . S
C383 H357 0.950 . S
C383 C382 1.414 1_554 S
C383 C384 1.374 . S
C384 H358 0.950 . S
C384 C380 1.385 1_554 S
C384 C383 1.374 . S
C385 C382 1.499 . S
C385 C386 1.373 1_556 S
C385 C387 1.389 . S
C386 H359 0.950 . S
C386 C372 1.377 . S
C386 C385 1.373 1_554 S
C387 C371 1.377 . S
C387 C385 1.389 . S
C387 C388 1.524 . S
C388 C387 1.524 . S
C388 C389 1.397 . S
C388 C393 1.363 . S
C389 H360 0.950 . S
C389 C388 1.397 . S
C389 C390 1.334 . S
C390 H361 0.950 . S
C390 C389 1.334 . S
C390 C391 1.287 . S
C391 C390 1.287 . S
C391 C392 1.524 . S
C391 H394 0.999 . S
C392 H362 0.950 . S
C392 C391 1.524 . S
C392 C393 1.415 . S
C393 H363 0.950 . S
C393 C388 1.363 . S
C393 C392 1.415 . S
H394 C391 0.999 . S
H395 C376 0.913 . S
H396 C414 0.951 . S
H397 C416 0.951 . S
H398 C418 0.950 1_556 S
H399 C419 0.950 . S
H400 C421 0.950 . S
H401 C424 0.950 . S
H402 C425 0.950 . S
H403 C427 0.950 . S
H404 C428 0.950 . S
H405 C429 0.951 . S
H406 C431 0.951 1_556 S
H407 C433 0.950 . S
H408 C434 0.950 . S
H409 C436 0.950 . S
H410 C439 0.950 . S
H411 C440 0.950 . S
H412 C442 0.950 . S
H413 C443 0.950 . S
C414 H396 0.951 . S
C414 C415 1.366 . S
C414 C416 1.388 . S
C415 C414 1.366 . S
C415 C419 1.385 1_554 S
C416 H397 0.951 . S
C416 C414 1.388 . S
C416 C417 1.366 . S
C417 C416 1.366 . S
C417 C418 1.414 . S
C417 C420 1.499 . S
C418 H398 0.950 1_554 S
C418 C417 1.414 . S
C418 C419 1.374 1_554 S
C419 H399 0.950 . S
C419 C415 1.385 1_556 S
C419 C418 1.374 1_556 S
C420 C417 1.499 . S
C420 C421 1.373 1_554 S
C420 C422 1.389 . S
C421 H400 0.950 . S
C421 C420 1.373 1_556 S
C421 C437 1.377 . S
C422 C420 1.389 . S
C422 C423 1.524 . S
C422 C436 1.377 . S
C423 C422 1.524 . S
C423 C424 1.397 . S
C423 C428 1.363 . S
C424 H401 0.950 . S
C424 C423 1.397 . S
C424 C425 1.334 . S
C425 H402 0.950 . S
C425 C424 1.334 . S
C425 C426 1.287 . S
C426 C425 1.287 . S
C426 C427 1.524 . S
C426 H445 0.913 . S
C427 H403 0.950 . S
C427 C426 1.524 . S
C427 C428 1.415 . S
C428 H404 0.950 . S
C428 C423 1.363 . S
C428 C427 1.415 . S
C429 H405 0.951 . S
C429 C430 1.366 . S
C429 C431 1.388 . S
C430 C429 1.366 . S
C430 C434 1.385 . S
C431 H406 0.951 1_554 S
C431 C429 1.388 . S
C431 C432 1.366 . S
C432 C431 1.366 . S
C432 C433 1.414 . S
C432 C435 1.499 . S
C433 H407 0.950 . S
C433 C432 1.414 . S
C433 C434 1.374 . S
C434 H408 0.950 . S
C434 C430 1.385 . S
C434 C433 1.374 . S
C435 C432 1.499 . S
C435 C436 1.373 . S
C435 C437 1.389 1_554 S
C436 H409 0.950 . S
C436 C422 1.377 . S
C436 C435 1.373 . S
C437 C421 1.377 . S
C437 C435 1.389 1_556 S
C437 C438 1.524 . S
C438 C437 1.524 . S
C438 C439 1.397 . S
C438 C443 1.363 . S
C439 H410 0.950 . S
C439 C438 1.397 . S
C439 C440 1.334 . S
C440 H411 0.950 . S
C440 C439 1.334 . S
C440 C441 1.287 . S
C441 C440 1.287 . S
C441 C442 1.524 . S
C441 H444 0.999 . S
C442 H412 0.950 . S
C442 C441 1.524 . S
C442 C443 1.415 . S
C443 H413 0.950 . S
C443 C438 1.363 . S
C443 C442 1.415 . S
H444 C441 0.999 . S
H445 C426 0.913 . S
H446 C464 0.951 . S
H447 C466 0.951 . S
H448 C468 0.950 . S
H449 C469 0.950 . S
H450 C471 0.950 . S
H451 C474 0.950 . S
H452 C475 0.950 . S
H453 C477 0.950 . S
H454 C478 0.950 1_554 S
H455 C479 0.951 . S
H456 C481 0.951 . S
H457 C483 0.950 . S
H458 C484 0.950 . S
H459 C486 0.950 . S
H460 C489 0.950 . S
H461 C490 0.950 . S
H462 C492 0.950 . S
H463 C493 0.950 1_556 S
C464 H446 0.951 . S
C464 C465 1.366 1_554 S
C464 C466 1.388 . S
C465 C464 1.366 1_556 S
C465 C469 1.385 . S
C466 H447 0.951 . S
C466 C464 1.388 . S
C466 C467 1.366 1_554 S
C467 C466 1.366 1_556 S
C467 C468 1.414 . S
C467 C470 1.499 . S
C468 H448 0.950 . S
C468 C467 1.414 . S
C468 C469 1.374 . S
C469 H449 0.950 . S
C469 C465 1.385 . S
C469 C468 1.374 . S
C470 C467 1.499 . S
C470 C471 1.373 1_556 S
C470 C472 1.389 . S
C471 H450 0.950 . S
C471 C470 1.373 1_554 S
C471 C487 1.377 . S
C472 C470 1.389 . S
C472 C473 1.524 . S
C472 C486 1.377 . S
C473 C472 1.524 . S
C473 C474 1.397 . S
C473 C478 1.363 . S
C474 H451 0.950 . S
C474 C473 1.397 . S
C474 C475 1.334 . S
C475 H452 0.950 . S
C475 C474 1.334 . S
C475 C476 1.287 . S
C476 C475 1.287 . S
C476 C477 1.524 . S
C476 H495 0.913 . S
C477 H453 0.950 . S
C477 C476 1.524 . S
C477 C478 1.415 . S
C478 H454 0.950 1_556 S
C478 C473 1.363 . S
C478 C477 1.415 . S
C479 H455 0.951 . S
C479 C480 1.366 . S
C479 C481 1.388 . S
C480 C479 1.366 . S
C480 C484 1.385 1_556 S
C481 H456 0.951 . S
C481 C479 1.388 . S
C481 C482 1.366 . S
C482 C481 1.366 . S
C482 C483 1.414 1_556 S
C482 C485 1.499 . S
C483 H457 0.950 . S
C483 C482 1.414 1_554 S
C483 C484 1.374 . S
C484 H458 0.950 . S
C484 C480 1.385 1_554 S
C484 C483 1.374 . S
C485 C482 1.499 . S
C485 C486 1.373 . S
C485 C487 1.389 1_556 S
C486 H459 0.950 . S
C486 C472 1.377 . S
C486 C485 1.373 . S
C487 C471 1.377 . S
C487 C485 1.389 1_554 S
C487 C488 1.524 . S
C488 C487 1.524 . S
C488 C489 1.397 . S
C488 C493 1.363 . S
C489 H460 0.950 . S
C489 C488 1.397 . S
C489 C490 1.334 . S
C490 H461 0.950 . S
C490 C489 1.334 . S
C490 C491 1.287 . S
C491 C490 1.287 . S
C491 C492 1.524 . S
C491 H494 0.999 . S
C492 H462 0.950 . S
C492 C491 1.524 . S
C492 C493 1.415 . S
C493 H463 0.950 1_554 S
C493 C488 1.363 . S
C493 C492 1.415 . S
H494 C491 0.999 . S
H495 C476 0.913 . S
H496 C514 0.951 . S
H497 C516 0.951 . S
H498 C518 0.950 . S
H499 C519 0.950 . S
H500 C521 0.950 . S
H501 C524 0.950 . S
H502 C525 0.950 . S
H503 C527 0.950 . S
H504 C528 0.950 . S
H505 C529 0.951 . S
H506 C531 0.951 . S
H507 C533 0.950 . S
H508 C534 0.950 . S
H509 C536 0.950 . S
H510 C539 0.950 . S
H511 C540 0.950 . S
H512 C542 0.950 . S
H513 C543 0.950 1_554 S
C514 H496 0.951 . S
C514 C515 1.366 1_556 S
C514 C516 1.388 . S
C515 C514 1.366 1_554 S
C515 C519 1.385 . S
C516 H497 0.951 . S
C516 C514 1.388 . S
C516 C517 1.366 1_556 S
C517 C516 1.366 1_554 S
C517 C518 1.414 . S
C517 C520 1.499 . S
C518 H498 0.950 . S
C518 C517 1.414 . S
C518 C519 1.374 . S
C519 H499 0.950 . S
C519 C515 1.385 . S
C519 C518 1.374 . S
C520 C517 1.499 . S
C520 C521 1.373 1_554 S
C520 C522 1.389 . S
C521 H500 0.950 . S
C521 C520 1.373 1_556 S
C521 C537 1.377 . S
C522 C520 1.389 . S
C522 C523 1.524 . S
C522 C536 1.377 . S
C523 C522 1.524 . S
C523 C524 1.397 . S
C523 C528 1.363 . S
C524 H501 0.950 . S
C524 C523 1.397 . S
C524 C525 1.334 . S
C525 H502 0.950 . S
C525 C524 1.334 . S
C525 C526 1.287 . S
C526 C525 1.287 . S
C526 C527 1.524 . S
C526 H545 0.913 . S
C527 H503 0.950 . S
C527 C526 1.524 . S
C527 C528 1.415 . S
C528 H504 0.950 . S
C528 C523 1.363 . S
C528 C527 1.415 . S
C529 H505 0.951 . S
C529 C530 1.366 . S
C529 C531 1.388 . S
C530 C529 1.366 . S
C530 C534 1.385 1_554 S
C531 H506 0.951 . S
C531 C529 1.388 . S
C531 C532 1.366 . S
C532 C531 1.366 . S
C532 C533 1.414 1_554 S
C532 C535 1.499 . S
C533 H507 0.950 . S
C533 C532 1.414 1_556 S
C533 C534 1.374 . S
C534 H508 0.950 . S
C534 C530 1.385 1_556 S
C534 C533 1.374 . S
C535 C532 1.499 . S
C535 C536 1.373 . S
C535 C537 1.389 1_554 S
C536 H509 0.950 . S
C536 C522 1.377 . S
C536 C535 1.373 . S
C537 C521 1.377 . S
C537 C535 1.389 1_556 S
C537 C538 1.524 . S
C538 C537 1.524 . S
C538 C539 1.397 . S
C538 C543 1.363 . S
C539 H510 0.950 . S
C539 C538 1.397 . S
C539 C540 1.334 . S
C540 H511 0.950 . S
C540 C539 1.334 . S
C540 C541 1.287 . S
C541 C540 1.287 . S
C541 C542 1.524 . S
C541 H544 0.999 . S
C542 H512 0.950 . S
C542 C541 1.524 . S
C542 C543 1.415 . S
C543 H513 0.950 1_556 S
C543 C538 1.363 . S
C543 C542 1.415 . S
H544 C541 0.999 . S
H545 C526 0.913 . S
C115 N18 1.471 . S
C130 N13 1.471 1_655 S
C165 N45 1.472 . S
C180 N50 1.472 1_565 S
C215 N77 1.470 . S
C230 N82 1.471 . S
C265 C2 1.074 . S
C280 C93 1.078 . S
C315 C61 1.078 . S
C330 C6 1.074 . S
C365 C36 1.078 . S
C380 C70 1.074 . S
C415 C29 1.078 . S
C430 C66 1.074 . S
C465 C4 1.078 . S
C480 C34 1.074 . S
C515 C68 1.078 . S
C530 C38 1.074 . S
