# Generated by pormake.
# Topology pcb, (4)-cn, num edge types: 1
# Building blocks:
#     Node 0, Type 0, BuildingBlock: KUFVIS_clean_sbu_0, # of connection points: 4
#     Node 1, Type 0, BuildingBlock: KUFVIS_clean_sbu_0, # of connection points: 4
#     Node 2, Type 0, BuildingBlock: KUFVIS_clean_sbu_0, # of connection points: 4
#     Node 3, Type 0, BuildingBlock: KUFVIS_clean_sbu_0, # of connection points: 4
#     Node 4, Type 0, BuildingBlock: KUFVIS_clean_sbu_0, # of connection points: 4
#     Node 5, Type 0, BuildingBlock: KUFVIS_clean_sbu_0, # of connection points: 4
#     Node 6, Type 0, BuildingBlock: KUFVIS_clean_sbu_0, # of connection points: 4
#     Node 7, Type 0, BuildingBlock: KUFVIS_clean_sbu_0, # of connection points: 4
#     Node 8, Type 0, BuildingBlock: KUFVIS_clean_sbu_0, # of connection points: 4
#     Node 9, Type 0, BuildingBlock: KUFVIS_clean_sbu_0, # of connection points: 4
#     Node 10, Type 0, BuildingBlock: KUFVIS_clean_sbu_0, # of connection points: 4
#     Node 11, Type 0, BuildingBlock: KUFVIS_clean_sbu_0, # of connection points: 4
#     Node 12, Type 0, BuildingBlock: KUFVIS_clean_sbu_0, # of connection points: 4
#     Node 13, Type 0, BuildingBlock: KUFVIS_clean_sbu_0, # of connection points: 4
#     Node 14, Type 0, BuildingBlock: KUFVIS_clean_sbu_0, # of connection points: 4
#     Node 15, Type 0, BuildingBlock: KUFVIS_clean_sbu_0, # of connection points: 4
#     Edge 16, Type (0, 0), BuildingBlock: KIFKEQ_clean_linker_1, # of connection points: 2
#     Edge 17, Type (0, 0), BuildingBlock: KIFKEQ_clean_linker_1, # of connection points: 2
#     Edge 18, Type (0, 0), BuildingBlock: KIFKEQ_clean_linker_1, # of connection points: 2
#     Edge 19, Type (0, 0), BuildingBlock: KIFKEQ_clean_linker_1, # of connection points: 2
#     Edge 20, Type (0, 0), BuildingBlock: KIFKEQ_clean_linker_1, # of connection points: 2
#     Edge 21, Type (0, 0), BuildingBlock: KIFKEQ_clean_linker_1, # of connection points: 2
#     Edge 22, Type (0, 0), BuildingBlock: KIFKEQ_clean_linker_1, # of connection points: 2
#     Edge 23, Type (0, 0), BuildingBlock: KIFKEQ_clean_linker_1, # of connection points: 2
#     Edge 24, Type (0, 0), BuildingBlock: KIFKEQ_clean_linker_1, # of connection points: 2
#     Edge 25, Type (0, 0), BuildingBlock: KIFKEQ_clean_linker_1, # of connection points: 2
#     Edge 26, Type (0, 0), BuildingBlock: KIFKEQ_clean_linker_1, # of connection points: 2
#     Edge 27, Type (0, 0), BuildingBlock: KIFKEQ_clean_linker_1, # of connection points: 2
#     Edge 28, Type (0, 0), BuildingBlock: KIFKEQ_clean_linker_1, # of connection points: 2
#     Edge 29, Type (0, 0), BuildingBlock: KIFKEQ_clean_linker_1, # of connection points: 2
#     Edge 30, Type (0, 0), BuildingBlock: KIFKEQ_clean_linker_1, # of connection points: 2
#     Edge 31, Type (0, 0), BuildingBlock: KIFKEQ_clean_linker_1, # of connection points: 2
#     Edge 32, Type (0, 0), BuildingBlock: KIFKEQ_clean_linker_1, # of connection points: 2
#     Edge 33, Type (0, 0), BuildingBlock: KIFKEQ_clean_linker_1, # of connection points: 2
#     Edge 34, Type (0, 0), BuildingBlock: KIFKEQ_clean_linker_1, # of connection points: 2
#     Edge 35, Type (0, 0), BuildingBlock: KIFKEQ_clean_linker_1, # of connection points: 2
#     Edge 36, Type (0, 0), BuildingBlock: KIFKEQ_clean_linker_1, # of connection points: 2
#     Edge 37, Type (0, 0), BuildingBlock: KIFKEQ_clean_linker_1, # of connection points: 2
#     Edge 38, Type (0, 0), BuildingBlock: KIFKEQ_clean_linker_1, # of connection points: 2
#     Edge 39, Type (0, 0), BuildingBlock: KIFKEQ_clean_linker_1, # of connection points: 2
#     Edge 40, Type (0, 0), BuildingBlock: KIFKEQ_clean_linker_1, # of connection points: 2
#     Edge 41, Type (0, 0), BuildingBlock: KIFKEQ_clean_linker_1, # of connection points: 2
#     Edge 42, Type (0, 0), BuildingBlock: KIFKEQ_clean_linker_1, # of connection points: 2
#     Edge 43, Type (0, 0), BuildingBlock: KIFKEQ_clean_linker_1, # of connection points: 2
#     Edge 44, Type (0, 0), BuildingBlock: KIFKEQ_clean_linker_1, # of connection points: 2
#     Edge 45, Type (0, 0), BuildingBlock: KIFKEQ_clean_linker_1, # of connection points: 2
#     Edge 46, Type (0, 0), BuildingBlock: KIFKEQ_clean_linker_1, # of connection points: 2
#     Edge 47, Type (0, 0), BuildingBlock: KIFKEQ_clean_linker_1, # of connection points: 2
# Relax obj value: 0.289
# Max RMSD: 0.149
# Mean RMSD: 0.149
data_MOF--net-pcb--node1-KUFVIS_clean_sbu_0--edge1-KIFKEQ_clean_linker_1
_symmetry_space_group_name_H-M    P1
_symmetry_Int_Tables_number       1
_symmetry_cell_setting            triclinic
loop_
_symmetry_equiv_pos_as_xyz
'x, y, z'
_cell_length_a     39.583908
_cell_length_b     49.382033
_cell_length_c     49.387667
_cell_angle_alpha  90.019727
_cell_angle_beta   90.041307
_cell_angle_gamma 90.031335
loop_
_atom_site_label
_atom_site_type_symbol
_atom_site_fract_x
_atom_site_fract_y
_atom_site_fract_z
_atom_type_partial_charge
Mn0 Mn 0.18179 0.15862 0.14808 0.0
Mn1 Mn 0.13972 0.21109 0.11986 0.0
C2 C 0.12683 0.16831 0.16106 0.0
C3 C 0.19881 0.11334 0.14869 0.0
C4 C 0.195 0.21814 0.16186 0.0
O5 O 0.20814 0.1658 0.11328 0.0
O6 O 0.17577 0.19866 0.09486 0.0
C7 C 0.10819 0.1831 0.07316 0.0
N8 N 0.10506 0.19808 0.09619 0.0
C9 C 0.04462 0.20002 0.09117 0.0
C10 C 0.04724 0.18475 0.06732 0.0
C11 C 0.07916 0.17621 0.05832 0.0
C12 C 0.07445 0.20638 0.10505 0.0
H13 H 0.13265 0.17643 0.06617 0.0
C14 C 0.20023 0.18168 0.09382 0.0
O15 O 0.21593 0.13204 0.16103 0.0
O16 O 0.17199 0.12098 0.1356 0.0
N17 N 0.10351 0.22429 0.14194 0.0
C18 C 0.1051 0.23731 0.16624 0.0
C19 C 0.07518 0.24637 0.17852 0.0
C20 C 0.04397 0.24207 0.16565 0.0
C21 C 0.04297 0.22874 0.1406 0.0
C22 C 0.07364 0.2203 0.12925 0.0
H23 H 0.12899 0.24068 0.17625 0.0
O24 O 0.14654 0.15474 0.17713 0.0
O25 O 0.14002 0.17591 0.13829 0.0
O26 O 0.20008 0.193 0.16587 0.0
O27 O 0.17406 0.22704 0.14432 0.0
C28 C 0.0127 0.22304 0.1267 0.0
C29 C 0.01351 0.20865 0.10202 0.0
H30 H 0.02489 0.17925 0.0559 0.0
H31 H 0.08137 0.16431 0.04001 0.0
H32 H 0.07615 0.25657 0.1979 0.0
H33 H 0.02092 0.24886 0.17531 0.0
H34 H 0.9886 0.22924 0.13502 0.0
H35 H 0.99002 0.20399 0.09176 0.0
Mn36 Mn 0.81819 0.14959 0.15839 0.0
Mn37 Mn 0.85566 0.11893 0.21173 0.0
C38 C 0.87343 0.16008 0.16975 0.0
C39 C 0.80245 0.15097 0.11283 0.0
C40 C 0.80293 0.16297 0.21747 0.0
O41 O 0.78921 0.11595 0.16461 0.0
O42 O 0.81944 0.09511 0.1974 0.0
C43 C 0.88694 0.07184 0.18433 0.0
N44 N 0.89011 0.09459 0.19974 0.0
C45 C 0.95017 0.08815 0.20374 0.0
C46 C 0.9475 0.06457 0.18806 0.0
C47 C 0.91576 0.05642 0.17828 0.0
C48 C 0.92054 0.10261 0.20928 0.0
H49 H 0.86262 0.06552 0.17667 0.0
C50 C 0.79553 0.09569 0.17991 0.0
O51 O 0.78584 0.1641 0.13125 0.0
O52 O 0.82825 0.13682 0.12088 0.0
N53 N 0.8919 0.13993 0.22663 0.0
C54 C 0.89054 0.1642 0.23974 0.0
C55 C 0.92042 0.17576 0.24986 0.0
C56 C 0.95134 0.16224 0.24648 0.0
C57 C 0.95211 0.13725 0.23301 0.0
C58 C 0.92149 0.12662 0.22353 0.0
H59 H 0.8669 0.17475 0.24235 0.0
O60 O 0.85553 0.177 0.1556 0.0
O61 O 0.85837 0.13784 0.17679 0.0
O62 O 0.80023 0.16817 0.19234 0.0
O63 O 0.82128 0.1439 0.22683 0.0
C64 C 0.98216 0.12278 0.22811 0.0
C65 C 0.98119 0.09825 0.21349 0.0
H66 H 0.96971 0.05273 0.18316 0.0
H67 H 0.91352 0.03832 0.16604 0.0
H68 H 0.91963 0.1951 0.26014 0.0
H69 H 0.97437 0.17136 0.25407 0.0
H70 H 0.00622 0.13057 0.2351 0.0
H71 H 0.00453 0.08755 0.20945 0.0
Mn72 Mn 0.81892 0.85275 0.14892 0.0
Mn73 Mn 0.85527 0.79955 0.11725 0.0
C74 C 0.87443 0.84138 0.15824 0.0
C75 C 0.80339 0.89815 0.15091 0.0
C76 C 0.80385 0.79368 0.16226 0.0
O77 O 0.78873 0.84657 0.1159 0.0
O78 O 0.81861 0.8142 0.0941 0.0
C79 C 0.88563 0.82704 0.06983 0.0
N80 N 0.88923 0.81154 0.09247 0.0
C81 C 0.94914 0.8075 0.0852 0.0
C82 C 0.94602 0.82328 0.06173 0.0
C83 C 0.91413 0.83312 0.05405 0.0
C84 C 0.91979 0.80192 0.10002 0.0
H85 H 0.86121 0.83477 0.06389 0.0
C86 C 0.79464 0.83159 0.0953 0.0
O87 O 0.78737 0.8798 0.16456 0.0
O88 O 0.82839 0.89026 0.13582 0.0
N89 N 0.89189 0.78442 0.13762 0.0
C90 C 0.89102 0.7712 0.16184 0.0
C91 C 0.9211 0.76101 0.17294 0.0
C92 C 0.95174 0.76444 0.15904 0.0
C93 C 0.95202 0.77801 0.13411 0.0
C94 C 0.92121 0.78755 0.12393 0.0
H95 H 0.8676 0.76856 0.1727 0.0
O96 O 0.8571 0.85553 0.17551 0.0
O97 O 0.85872 0.83442 0.13624 0.0
O98 O 0.80167 0.81876 0.16783 0.0
O99 O 0.82135 0.78442 0.14265 0.0
C100 C 0.98178 0.78298 0.11928 0.0
C101 C 0.98034 0.7977 0.09484 0.0
H102 H 0.96798 0.82821 0.04962 0.0
H103 H 0.91155 0.84544 0.03605 0.0
H104 H 0.9207 0.75065 0.19224 0.0
H105 H 0.97495 0.7568 0.16781 0.0
H106 H 0.00598 0.77595 0.12672 0.0
H107 H 0.00346 0.80176 0.08385 0.0
Mn108 Mn 0.18296 0.86306 0.15706 0.0
Mn109 Mn 0.14103 0.8911 0.20967 0.0
C110 C 0.12776 0.85048 0.16615 0.0
C111 C 0.20075 0.86305 0.11198 0.0
C112 C 0.19553 0.84859 0.21632 0.0
O113 O 0.20998 0.89743 0.16518 0.0
O114 O 0.17699 0.91622 0.19742 0.0
C115 C 0.10935 0.93797 0.1822 0.0
N116 N 0.10628 0.91478 0.19692 0.0
C117 C 0.04583 0.9196 0.19892 0.0
C118 C 0.04837 0.94361 0.18391 0.0
C119 C 0.08027 0.95279 0.17547 0.0
C120 C 0.07571 0.90575 0.20514 0.0
H121 H 0.13379 0.9451 0.1756 0.0
C122 C 0.20188 0.91702 0.18085 0.0
O123 O 0.21727 0.85018 0.13065 0.0
O124 O 0.17407 0.87637 0.11956 0.0
N125 N 0.1049 0.86879 0.22266 0.0
C126 C 0.10656 0.84432 0.23536 0.0
C127 C 0.07667 0.83183 0.24423 0.0
C128 C 0.04543 0.84465 0.24008 0.0
C129 C 0.04435 0.86986 0.22707 0.0
C130 C 0.07498 0.88141 0.2188 0.0
H131 H 0.13047 0.83433 0.2386 0.0
O132 O 0.14727 0.83452 0.15229 0.0
O133 O 0.14123 0.87302 0.17424 0.0
O134 O 0.20006 0.84423 0.19119 0.0
O135 O 0.17557 0.86669 0.22547 0.0
C136 C 0.01403 0.88372 0.22151 0.0
C137 C 0.01476 0.90855 0.20741 0.0
H138 H 0.02599 0.95501 0.17853 0.0
H139 H 0.08242 0.97124 0.16376 0.0
H140 H 0.07771 0.81233 0.25418 0.0
H141 H 0.02241 0.83483 0.24674 0.0
H142 H 0.98996 0.87524 0.22759 0.0
H143 H 0.99124 0.91878 0.20285 0.0
Mn144 Mn 0.18274 0.85263 0.86274 0.0
Mn145 Mn 0.1432 0.79942 0.89191 0.0
C146 C 0.12732 0.84253 0.8515 0.0
C147 C 0.19949 0.898 0.86222 0.0
C148 C 0.19645 0.79353 0.84828 0.0
O149 O 0.21115 0.84515 0.89652 0.0
O150 O 0.17956 0.81252 0.91623 0.0
C151 C 0.11221 0.8265 0.93929 0.0
N152 N 0.10884 0.81162 0.91622 0.0
C153 C 0.04863 0.80851 0.92223 0.0
C154 C 0.05149 0.82368 0.94613 0.0
C155 C 0.08341 0.83275 0.95466 0.0
C156 C 0.07824 0.80277 0.90783 0.0
H157 H 0.13667 0.8336 0.94591 0.0
C158 C 0.20404 0.82953 0.9164 0.0
O159 O 0.21595 0.87954 0.84901 0.0
O160 O 0.17344 0.89006 0.87611 0.0
N161 N 0.10677 0.78564 0.87036 0.0
C162 C 0.10803 0.7729 0.8459 0.0
C163 C 0.07802 0.76345 0.83401 0.0
C164 C 0.04707 0.76708 0.84741 0.0
C165 C 0.0464 0.78015 0.87261 0.0
C166 C 0.07714 0.78899 0.88355 0.0
H167 H 0.13171 0.77007 0.83546 0.0
O168 O 0.14588 0.85665 0.83504 0.0
O169 O 0.14184 0.83476 0.87372 0.0
O170 O 0.20005 0.81871 0.84365 0.0
O171 O 0.17742 0.78415 0.8669 0.0
C172 C 0.01636 0.78524 0.88702 0.0
C173 C 0.01747 0.79943 0.9118 0.0
H174 H 0.02931 0.8287 0.95794 0.0
H175 H 0.0858 0.84459 0.97301 0.0
H176 H 0.07873 0.75347 0.8145 0.0
H177 H 0.02394 0.76 0.83805 0.0
H178 H 0.99221 0.77872 0.879 0.0
H179 H 0.99414 0.80361 0.92246 0.0
Mn180 Mn 0.18112 0.1479 0.85193 0.0
Mn181 Mn 0.14136 0.11882 0.79873 0.0
C182 C 0.12588 0.15947 0.84167 0.0
C183 C 0.19767 0.1486 0.89733 0.0
C184 C 0.19504 0.16214 0.79282 0.0
O185 O 0.20914 0.11388 0.84464 0.0
O186 O 0.17753 0.09437 0.81187 0.0
C187 C 0.11 0.07164 0.82593 0.0
N188 N 0.10681 0.09468 0.81099 0.0
C189 C 0.04654 0.08894 0.80795 0.0
C190 C 0.04922 0.06508 0.82319 0.0
C191 C 0.08108 0.05643 0.83225 0.0
C192 C 0.07627 0.10319 0.80215 0.0
H193 H 0.13441 0.06493 0.83303 0.0
C194 C 0.20192 0.09405 0.82896 0.0
O195 O 0.21437 0.16157 0.87885 0.0
O196 O 0.17153 0.13478 0.88939 0.0
N197 N 0.1051 0.14047 0.7849 0.0
C198 C 0.10655 0.16488 0.77208 0.0
C199 C 0.07663 0.17687 0.76261 0.0
C200 C 0.04557 0.16362 0.76631 0.0
C201 C 0.0447 0.13847 0.77945 0.0
C202 C 0.07536 0.12742 0.78831 0.0
H203 H 0.13031 0.17521 0.76921 0.0
O204 O 0.1446 0.17587 0.85576 0.0
O205 O 0.14015 0.13711 0.83403 0.0
O206 O 0.19875 0.16673 0.81799 0.0
O207 O 0.17577 0.14366 0.78342 0.0
C208 C 0.01455 0.12422 0.78461 0.0
C209 C 0.01546 0.09948 0.79887 0.0
H210 H 0.02694 0.05339 0.82827 0.0
H211 H 0.08333 0.03811 0.84414 0.0
H212 H 0.07749 0.19633 0.75257 0.0
H213 H 0.02251 0.17306 0.75921 0.0
H214 H 0.99045 0.13232 0.77809 0.0
H215 H 0.99205 0.08894 0.80311 0.0
Mn216 Mn 0.81737 0.15832 0.86261 0.0
Mn217 Mn 0.85794 0.21155 0.89094 0.0
C218 C 0.87257 0.16818 0.85054 0.0
C219 C 0.80046 0.11298 0.86244 0.0
C220 C 0.80376 0.21741 0.84802 0.0
O221 O 0.78983 0.16605 0.89677 0.0
O222 O 0.82194 0.19883 0.91573 0.0
C223 C 0.88958 0.18455 0.93812 0.0
N224 N 0.89264 0.19929 0.91494 0.0
C225 C 0.95298 0.20213 0.9203 0.0
C226 C 0.95044 0.1871 0.94429 0.0
C227 C 0.91861 0.17823 0.9532 0.0
C228 C 0.92315 0.20793 0.90618 0.0
H229 H 0.86519 0.17762 0.94503 0.0
C230 C 0.7974 0.1819 0.91638 0.0
O231 O 0.78374 0.13143 0.84943 0.0
O232 O 0.82684 0.12091 0.87597 0.0
N233 N 0.89407 0.225 0.86893 0.0
C234 C 0.89246 0.23765 0.84444 0.0
C235 C 0.92232 0.24692 0.83221 0.0
C236 C 0.95348 0.24321 0.8453 0.0
C237 C 0.95451 0.23025 0.87054 0.0
C238 C 0.92391 0.22157 0.88183 0.0
H239 H 0.86861 0.24055 0.83424 0.0
O240 O 0.85354 0.15406 0.8344 0.0
O241 O 0.85862 0.1761 0.87293 0.0
O242 O 0.79977 0.19222 0.84364 0.0
O243 O 0.82338 0.22684 0.86624 0.0
C244 C 0.98477 0.2251 0.88467 0.0
C245 C 0.98401 0.21103 0.90951 0.0
H246 H 0.97279 0.18204 0.9559 0.0
H247 H 0.91646 0.16651 0.97163 0.0
H248 H 0.92133 0.25683 0.81268 0.0
H249 H 0.97649 0.25016 0.83568 0.0
H250 H 0.00882 0.23149 0.87639 0.0
H251 H 0.0075 0.2068 0.91995 0.0
Mn252 Mn 0.81839 0.8629 0.85311 0.0
Mn253 Mn 0.85945 0.89216 0.80069 0.0
C254 C 0.87384 0.85128 0.84351 0.0
C255 C 0.80116 0.86177 0.89819 0.0
C256 C 0.80571 0.84889 0.7936 0.0
O257 O 0.79063 0.89702 0.84582 0.0
O258 O 0.82266 0.91635 0.81325 0.0
C259 C 0.88955 0.93945 0.82868 0.0
N260 N 0.89338 0.91652 0.81366 0.0
C261 C 0.95363 0.92281 0.81158 0.0
C262 C 0.95029 0.94657 0.82689 0.0
C263 C 0.91812 0.95488 0.83552 0.0
C264 C 0.92423 0.90832 0.80527 0.0
H265 H 0.8649 0.94592 0.83543 0.0
C266 C 0.79804 0.91675 0.83011 0.0
O267 O 0.78485 0.84876 0.87951 0.0
O268 O 0.8273 0.87583 0.89079 0.0
N269 N 0.89632 0.87086 0.78737 0.0
C270 C 0.89547 0.84657 0.77428 0.0
C271 C 0.92575 0.83494 0.76512 0.0
C272 C 0.95654 0.84844 0.76937 0.0
C273 C 0.95677 0.87348 0.78275 0.0
C274 C 0.92578 0.88417 0.79129 0.0
H275 H 0.87191 0.83606 0.77095 0.0
O276 O 0.85474 0.83479 0.85711 0.0
O277 O 0.85985 0.87375 0.83589 0.0
O278 O 0.801 0.84458 0.81873 0.0
O279 O 0.82585 0.86704 0.78473 0.0
C280 C 0.98661 0.88799 0.78843 0.0
C281 C 0.98505 0.91262 0.80286 0.0
H282 H 0.97228 0.95844 0.83236 0.0
H283 H 0.91535 0.97313 0.84746 0.0
H284 H 0.92536 0.81557 0.75487 0.0
H285 H 0.97987 0.83928 0.7625 0.0
H286 H 0.01094 0.88018 0.78216 0.0
H287 H 0.00821 0.92336 0.80748 0.0
Mn288 Mn 0.68236 0.65887 0.64833 0.0
Mn289 Mn 0.64088 0.71157 0.61998 0.0
C290 C 0.62729 0.66872 0.66094 0.0
C291 C 0.69918 0.61354 0.64899 0.0
C292 C 0.69585 0.71831 0.6623 0.0
O293 O 0.70907 0.66602 0.6137 0.0
O294 O 0.67704 0.69904 0.59515 0.0
C295 C 0.60955 0.68384 0.57305 0.0
N296 N 0.60632 0.69875 0.59611 0.0
C297 C 0.54593 0.7009 0.59081 0.0
C298 C 0.54865 0.68569 0.56693 0.0
C299 C 0.58059 0.67708 0.55806 0.0
C300 C 0.57569 0.70712 0.60485 0.0
H301 H 0.63403 0.6771 0.56615 0.0
C302 C 0.7014 0.68196 0.59422 0.0
O303 O 0.71625 0.63219 0.66145 0.0
O304 O 0.67251 0.62127 0.63575 0.0
N305 N 0.60457 0.72484 0.64191 0.0
C306 C 0.60605 0.73779 0.66626 0.0
C307 C 0.57607 0.74689 0.67843 0.0
C308 C 0.54495 0.74273 0.66541 0.0
C309 C 0.54406 0.72948 0.64031 0.0
C310 C 0.57477 0.72099 0.62908 0.0
H311 H 0.62987 0.74104 0.6764 0.0
O312 O 0.64676 0.65507 0.67713 0.0
O313 O 0.64081 0.67634 0.6383 0.0
O314 O 0.70069 0.69314 0.6663 0.0
O315 O 0.67512 0.72734 0.64466 0.0
C316 C 0.51386 0.7239 0.62625 0.0
C317 C 0.51479 0.70959 0.60154 0.0
H318 H 0.52635 0.68029 0.5554 0.0
H319 H 0.58288 0.66521 0.53972 0.0
H320 H 0.57695 0.75703 0.69785 0.0
H321 H 0.52186 0.74956 0.67498 0.0
H322 H 0.48974 0.73016 0.63448 0.0
H323 H 0.49135 0.70503 0.59116 0.0
Mn324 Mn 0.31861 0.64737 0.65829 0.0
Mn325 Mn 0.35796 0.61823 0.71164 0.0
C326 C 0.37389 0.6588 0.6687 0.0
C327 C 0.30201 0.64807 0.61288 0.0
C328 C 0.30452 0.66172 0.71736 0.0
O329 O 0.29038 0.61342 0.66553 0.0
O330 O 0.32177 0.59385 0.69836 0.0
C331 C 0.38927 0.57095 0.68459 0.0
N332 N 0.39247 0.594 0.69955 0.0
C333 C 0.45267 0.58806 0.70295 0.0
C334 C 0.44999 0.5642 0.68771 0.0
C335 C 0.41815 0.55564 0.67846 0.0
C336 C 0.42298 0.60242 0.70856 0.0
H337 H 0.36488 0.56431 0.67736 0.0
C338 C 0.29747 0.59357 0.68119 0.0
O339 O 0.28543 0.6611 0.63138 0.0
O340 O 0.32814 0.63423 0.62079 0.0
N341 N 0.39423 0.63981 0.72563 0.0
C342 C 0.39282 0.66424 0.73843 0.0
C343 C 0.42273 0.67614 0.74808 0.0
C344 C 0.45374 0.66279 0.74457 0.0
C345 C 0.45456 0.63763 0.73144 0.0
C346 C 0.42392 0.62666 0.7224 0.0
H347 H 0.3691 0.67465 0.74117 0.0
O348 O 0.35532 0.67523 0.65453 0.0
O349 O 0.35947 0.63649 0.67631 0.0
O350 O 0.30099 0.66629 0.69217 0.0
O351 O 0.32358 0.64317 0.72683 0.0
C352 C 0.48468 0.62327 0.72647 0.0
C353 C 0.48374 0.59852 0.71222 0.0
H354 H 0.47223 0.55242 0.68278 0.0
H355 H 0.4159 0.53732 0.66657 0.0
H356 H 0.4219 0.69562 0.75811 0.0
H357 H 0.47679 0.67216 0.7518 0.0
H358 H 0.50876 0.6313 0.73313 0.0
H359 H 0.50712 0.58789 0.70813 0.0
Mn360 Mn 0.31743 0.3523 0.64706 0.0
Mn361 Mn 0.35748 0.29914 0.61828 0.0
C362 C 0.37275 0.34239 0.65872 0.0
C363 C 0.30051 0.39762 0.64746 0.0
C364 C 0.30385 0.2932 0.66158 0.0
O365 O 0.28942 0.34465 0.6131 0.0
O366 O 0.32128 0.31202 0.59371 0.0
C367 C 0.38877 0.32622 0.57102 0.0
N368 N 0.392 0.31141 0.59414 0.0
C369 C 0.45229 0.30856 0.5885 0.0
C370 C 0.44957 0.32365 0.56455 0.0
C371 C 0.41767 0.33256 0.55582 0.0
C372 C 0.42257 0.30273 0.60273 0.0
H373 H 0.36433 0.33319 0.56424 0.0
C374 C 0.29675 0.32896 0.59333 0.0
O375 O 0.28398 0.37912 0.66054 0.0
O376 O 0.32674 0.38976 0.63373 0.0
N377 N 0.39378 0.28555 0.64005 0.0
C378 C 0.39236 0.27283 0.66451 0.0
C379 C 0.42231 0.26351 0.67659 0.0
C380 C 0.45337 0.26726 0.66337 0.0
C381 C 0.4542 0.2803 0.63816 0.0
C382 C 0.42352 0.289 0.62703 0.0
H383 H 0.36861 0.26992 0.67482 0.0
O384 O 0.35396 0.3565 0.67502 0.0
O385 O 0.35852 0.33454 0.6364 0.0
O386 O 0.30006 0.31838 0.66608 0.0
O387 O 0.32312 0.28381 0.64313 0.0
C388 C 0.48435 0.28548 0.62393 0.0
C389 C 0.4834 0.29962 0.59912 0.0
H390 H 0.47183 0.32874 0.55286 0.0
H391 H 0.41539 0.34434 0.53743 0.0
H392 H 0.42147 0.25355 0.69609 0.0
H393 H 0.47645 0.26027 0.67287 0.0
H394 H 0.50846 0.27907 0.63208 0.0
H395 H 0.5068 0.30388 0.58859 0.0
Mn396 Mn 0.6814 0.36371 0.65843 0.0
Mn397 Mn 0.6408 0.39218 0.71148 0.0
C398 C 0.62607 0.35182 0.66802 0.0
C399 C 0.69872 0.36352 0.61323 0.0
C400 C 0.69461 0.34901 0.71753 0.0
O401 O 0.70917 0.39774 0.66634 0.0
O402 O 0.67695 0.41692 0.69886 0.0
C403 C 0.60944 0.43941 0.68439 0.0
N404 N 0.60624 0.41624 0.69913 0.0
C405 C 0.5459 0.42168 0.70175 0.0
C406 C 0.54859 0.44567 0.68673 0.0
C407 C 0.58049 0.45454 0.67798 0.0
C408 C 0.57566 0.40751 0.70765 0.0
H409 H 0.63388 0.44629 0.67755 0.0
C410 C 0.70161 0.41744 0.68204 0.0
O411 O 0.71515 0.35043 0.63179 0.0
O412 O 0.67235 0.37713 0.62097 0.0
N413 N 0.60453 0.37023 0.72483 0.0
C414 C 0.60599 0.34573 0.73748 0.0
C415 C 0.57605 0.33353 0.74664 0.0
C416 C 0.54495 0.34667 0.74282 0.0
C417 C 0.54407 0.37192 0.72985 0.0
C418 C 0.57475 0.38317 0.7213 0.0
H419 H 0.62979 0.33549 0.74046 0.0
O420 O 0.64506 0.33564 0.65394 0.0
O421 O 0.64012 0.37417 0.67601 0.0
O422 O 0.69859 0.34462 0.69235 0.0
O423 O 0.6752 0.36738 0.7269 0.0
C424 C 0.51389 0.38608 0.72459 0.0
C425 C 0.51479 0.41093 0.71053 0.0
H426 H 0.5263 0.45731 0.68158 0.0
H427 H 0.58275 0.47296 0.66626 0.0
H428 H 0.57693 0.314 0.75655 0.0
H429 H 0.52188 0.33708 0.74968 0.0
H430 H 0.48978 0.37783 0.73089 0.0
H431 H 0.49137 0.4214 0.70621 0.0
Mn432 Mn 0.68098 0.3527 0.36389 0.0
Mn433 Mn 0.64174 0.29937 0.39314 0.0
C434 C 0.62565 0.34232 0.35263 0.0
C435 C 0.69759 0.3981 0.36319 0.0
C436 C 0.69494 0.29362 0.34949 0.0
O437 O 0.7094 0.34542 0.3977 0.0
O438 O 0.67807 0.31264 0.4174 0.0
C439 C 0.61071 0.32644 0.44053 0.0
N440 N 0.60738 0.31149 0.41749 0.0
C441 C 0.5472 0.30813 0.42362 0.0
C442 C 0.55003 0.32337 0.44748 0.0
C443 C 0.58192 0.3326 0.45593 0.0
C444 C 0.57681 0.30249 0.40918 0.0
H445 H 0.63514 0.33365 0.44708 0.0
C446 C 0.70241 0.32977 0.41758 0.0
O447 O 0.7141 0.3796 0.35007 0.0
O448 O 0.67153 0.39018 0.3771 0.0
N449 N 0.60534 0.2854 0.37169 0.0
C450 C 0.60661 0.2726 0.34726 0.0
C451 C 0.57663 0.26298 0.33545 0.0
C452 C 0.5457 0.26651 0.34891 0.0
C453 C 0.54502 0.27964 0.37407 0.0
C454 C 0.57573 0.28865 0.38494 0.0
H455 H 0.63028 0.26984 0.33678 0.0
O456 O 0.64413 0.3565 0.33615 0.0
O457 O 0.64016 0.3347 0.3749 0.0
O458 O 0.69846 0.31881 0.3449 0.0
O459 O 0.67596 0.28417 0.3681 0.0
C460 C 0.51499 0.28464 0.38852 0.0
C461 C 0.51607 0.29889 0.41327 0.0
H462 H 0.52785 0.32832 0.45933 0.0
H463 H 0.58428 0.34448 0.47425 0.0
H464 H 0.57735 0.25295 0.31598 0.0
H465 H 0.52259 0.2593 0.33961 0.0
H466 H 0.49085 0.27801 0.38057 0.0
H467 H 0.49275 0.303 0.42397 0.0
Mn468 Mn 0.68136 0.64817 0.35249 0.0
Mn469 Mn 0.64122 0.61934 0.29933 0.0
C470 C 0.62622 0.66008 0.3423 0.0
C471 C 0.69804 0.64879 0.39785 0.0
C472 C 0.69527 0.66236 0.29335 0.0
O473 O 0.70902 0.61397 0.34518 0.0
O474 O 0.6772 0.59468 0.31242 0.0
C475 C 0.60952 0.57232 0.32655 0.0
N476 N 0.6065 0.59538 0.31163 0.0
C477 C 0.54617 0.58996 0.30866 0.0
C478 C 0.54868 0.56608 0.32387 0.0
C479 C 0.58049 0.55726 0.3329 0.0
C480 C 0.57601 0.60406 0.30284 0.0
H481 H 0.63389 0.56547 0.33361 0.0
C482 C 0.70159 0.5942 0.32951 0.0
O483 O 0.71482 0.66165 0.37934 0.0
O484 O 0.67173 0.63514 0.38998 0.0
N485 N 0.60511 0.6412 0.28556 0.0
C486 C 0.60674 0.6656 0.27275 0.0
C487 C 0.5769 0.67775 0.26332 0.0
C488 C 0.54573 0.66467 0.26705 0.0
C489 C 0.54469 0.63952 0.28019 0.0
C490 C 0.57527 0.6283 0.289 0.0
H491 H 0.63058 0.67581 0.26985 0.0
O492 O 0.64512 0.67637 0.35636 0.0
O493 O 0.64025 0.63763 0.33464 0.0
O494 O 0.69911 0.66686 0.31853 0.0
O495 O 0.67579 0.64401 0.28397 0.0
C496 C 0.51443 0.62542 0.28537 0.0
C497 C 0.51516 0.60067 0.29961 0.0
H498 H 0.52632 0.5545 0.32897 0.0
H499 H 0.58261 0.53891 0.34476 0.0
H500 H 0.5779 0.69721 0.25329 0.0
H501 H 0.52274 0.67423 0.25998 0.0
H502 H 0.49039 0.63364 0.27887 0.0
H503 H 0.49167 0.59025 0.30387 0.0
Mn504 Mn 0.31777 0.65911 0.36286 0.0
Mn505 Mn 0.35773 0.71238 0.39164 0.0
C506 C 0.37293 0.66932 0.35104 0.0
C507 C 0.30115 0.61373 0.36229 0.0
C508 C 0.30376 0.71819 0.34853 0.0
O509 O 0.29002 0.66647 0.397 0.0
O510 O 0.32179 0.69926 0.41631 0.0
C511 C 0.38951 0.68532 0.43872 0.0
N512 N 0.39249 0.7002 0.41562 0.0
C513 C 0.45281 0.70326 0.42103 0.0
C514 C 0.45035 0.68811 0.44494 0.0
C515 C 0.41856 0.67906 0.45379 0.0
C516 C 0.42295 0.70902 0.40692 0.0
H517 H 0.36516 0.67825 0.44559 0.0
C518 C 0.29745 0.68214 0.41679 0.0
O519 O 0.28439 0.63222 0.34937 0.0
O520 O 0.3274 0.62165 0.37599 0.0
N521 N 0.39379 0.72616 0.36975 0.0
C522 C 0.39213 0.73888 0.3453 0.0
C523 C 0.42194 0.74831 0.33312 0.0
C524 C 0.45312 0.74466 0.34621 0.0
C525 C 0.4542 0.7316 0.37139 0.0
C526 C 0.42364 0.72279 0.38264 0.0
H527 H 0.36828 0.74172 0.33509 0.0
O528 O 0.3541 0.6552 0.33474 0.0
O529 O 0.35881 0.67702 0.37343 0.0
O530 O 0.30005 0.693 0.34403 0.0
O531 O 0.3231 0.72764 0.36693 0.0
C532 C 0.48449 0.72649 0.3855 0.0
C533 C 0.48379 0.71232 0.41028 0.0
H534 H 0.47272 0.68307 0.45653 0.0
H535 H 0.41648 0.66723 0.47216 0.0
H536 H 0.42091 0.75828 0.31362 0.0
H537 H 0.4761 0.75172 0.33662 0.0
H538 H 0.50851 0.73299 0.37725 0.0
H539 H 0.5073 0.70811 0.42071 0.0
Mn540 Mn 0.31719 0.3632 0.35231 0.0
Mn541 Mn 0.35917 0.39162 0.29991 0.0
C542 C 0.3723 0.35054 0.34276 0.0
C543 C 0.29995 0.36253 0.39753 0.0
C544 C 0.30428 0.34931 0.29278 0.0
O545 O 0.29056 0.39785 0.34504 0.0
O546 O 0.3229 0.41644 0.31225 0.0
C547 C 0.39024 0.43849 0.32794 0.0
N548 N 0.39361 0.41546 0.31298 0.0
C549 C 0.45401 0.42079 0.31117 0.0
C550 C 0.45116 0.44463 0.32642 0.0
C551 C 0.41914 0.45347 0.33489 0.0
C552 C 0.42431 0.40675 0.30476 0.0
H553 H 0.36571 0.44536 0.33457 0.0
C554 C 0.29837 0.41735 0.32918 0.0
O555 O 0.28304 0.35009 0.37878 0.0
O556 O 0.32672 0.37575 0.38997 0.0
N557 N 0.3956 0.36971 0.28681 0.0
C558 C 0.39425 0.3454 0.27378 0.0
C559 C 0.4243 0.33327 0.26479 0.0
C560 C 0.45538 0.34629 0.26914 0.0
C561 C 0.45614 0.37136 0.28247 0.0
C562 C 0.42536 0.38255 0.29084 0.0
H563 H 0.37045 0.33526 0.27038 0.0
O564 O 0.3527 0.33436 0.35629 0.0
O565 O 0.35891 0.37322 0.3351 0.0
O566 O 0.29918 0.34529 0.31791 0.0
O567 O 0.32508 0.36697 0.2839 0.0
C568 C 0.48628 0.38542 0.28822 0.0
C569 C 0.48523 0.41009 0.3026 0.0
H570 H 0.4734 0.45616 0.33196 0.0
H571 H 0.41674 0.47178 0.34678 0.0
H572 H 0.42351 0.31388 0.25459 0.0
H573 H 0.47853 0.33675 0.26239 0.0
H574 H 0.51046 0.37722 0.28206 0.0
H575 H 0.50862 0.42048 0.3073 0.0
H576 H 0.304 0.35313 0.23726 0.0
H577 H 0.26513 0.30478 0.30326 0.0
H578 H 0.27831 0.32192 0.20485 0.0
H579 H 0.23952 0.2738 0.27083 0.0
H580 H 0.23439 0.20766 0.20626 0.0
H581 H 0.26016 0.24011 0.23714 0.0
H582 H 0.22124 0.30608 0.18905 0.0
H583 H 0.1954 0.27365 0.15794 0.0
C584 C 0.28979 0.33602 0.2449 0.0
C585 C 0.28673 0.33152 0.27294 0.0
C586 C 0.27501 0.31818 0.22629 0.0
C587 C 0.25711 0.2953 0.23528 0.0
C588 C 0.25357 0.29104 0.26327 0.0
C589 C 0.26807 0.30896 0.28186 0.0
C590 C 0.23147 0.22906 0.20206 0.0
C591 C 0.21272 0.23797 0.17955 0.0
C592 C 0.24605 0.24766 0.21993 0.0
C593 C 0.24251 0.27565 0.21565 0.0
C594 C 0.22455 0.28463 0.19281 0.0
C595 C 0.20967 0.26601 0.17503 0.0
H596 H 0.70186 0.29876 0.29524 0.0
H597 H 0.72426 0.2449 0.36154 0.0
H598 H 0.72572 0.26657 0.26354 0.0
H599 H 0.75104 0.21332 0.33019 0.0
H600 H 0.77223 0.15023 0.26546 0.0
H601 H 0.74534 0.18123 0.29733 0.0
H602 H 0.77302 0.24869 0.24587 0.0
H603 H 0.79701 0.21739 0.21337 0.0
C604 C 0.71268 0.28018 0.30305 0.0
C605 C 0.71149 0.27439 0.33083 0.0
C606 C 0.72666 0.26167 0.28487 0.0
C607 C 0.74089 0.23716 0.29404 0.0
C608 C 0.73991 0.23159 0.32206 0.0
C609 C 0.72489 0.24982 0.34017 0.0
C610 C 0.77209 0.1717 0.26099 0.0
C611 C 0.78621 0.18141 0.23682 0.0
C612 C 0.75701 0.18961 0.27939 0.0
C613 C 0.75667 0.21775 0.27441 0.0
C614 C 0.77158 0.22727 0.2503 0.0
C615 C 0.78564 0.20931 0.23161 0.0
H616 H 0.77178 0.7462 0.14959 0.0
H617 H 0.79996 0.79712 0.21685 0.0
H618 H 0.74494 0.71443 0.18074 0.0
H619 H 0.776 0.76467 0.24822 0.0
H620 H 0.70422 0.71641 0.29885 0.0
H621 H 0.72849 0.74786 0.26664 0.0
H622 H 0.75035 0.68115 0.21246 0.0
H623 H 0.72319 0.65009 0.24414 0.0
C624 C 0.77242 0.75041 0.17112 0.0
C625 C 0.78745 0.77425 0.18082 0.0
C626 C 0.75736 0.73207 0.1891 0.0
C627 C 0.75793 0.73676 0.21729 0.0
C628 C 0.77384 0.76049 0.22679 0.0
C629 C 0.78789 0.77914 0.20878 0.0
C630 C 0.71437 0.70852 0.28007 0.0
C631 C 0.71209 0.68082 0.27407 0.0
C632 C 0.7286 0.72655 0.26154 0.0
C633 C 0.74197 0.71729 0.23676 0.0
C634 C 0.73991 0.68935 0.23096 0.0
C635 C 0.72467 0.6714 0.24924 0.0
H636 H 0.27334 0.76645 0.36075 0.0
H637 H 0.29774 0.71346 0.29422 0.0
H638 H 0.24632 0.79794 0.32941 0.0
H639 H 0.27375 0.74559 0.26255 0.0
H640 H 0.20279 0.79434 0.21175 0.0
H641 H 0.22668 0.76305 0.24433 0.0
H642 H 0.2514 0.83038 0.29701 0.0
H643 H 0.22449 0.86128 0.26504 0.0
C644 C 0.2731 0.76172 0.33933 0.0
C645 C 0.28711 0.7374 0.3299 0.0
C646 C 0.25795 0.77989 0.32122 0.0
C647 C 0.25747 0.77455 0.29314 0.0
C648 C 0.27236 0.75031 0.28391 0.0
C649 C 0.28644 0.73183 0.30207 0.0
C650 C 0.21348 0.80238 0.23029 0.0
C651 C 0.21208 0.8302 0.23581 0.0
C652 C 0.22749 0.78444 0.24903 0.0
C653 C 0.24159 0.79392 0.2735 0.0
C654 C 0.24039 0.822 0.27879 0.0
C655 C 0.2253 0.83986 0.26034 0.0
H656 H 0.29791 0.71603 0.71246 0.0
H657 H 0.27466 0.64953 0.76583 0.0
H658 H 0.27396 0.74766 0.74466 0.0
H659 H 0.24774 0.68082 0.7974 0.0
H660 H 0.22629 0.74516 0.86076 0.0
H661 H 0.25316 0.71336 0.8297 0.0
H662 H 0.22692 0.76565 0.76251 0.0
H663 H 0.20301 0.7981 0.79394 0.0
C664 C 0.28688 0.70816 0.73093 0.0
C665 C 0.28787 0.68035 0.73658 0.0
C666 C 0.27283 0.72631 0.74945 0.0
C667 C 0.25833 0.71708 0.77383 0.0
C668 C 0.25909 0.68902 0.77924 0.0
C669 C 0.27418 0.67093 0.76102 0.0
C670 C 0.22674 0.74981 0.83933 0.0
C671 C 0.21306 0.7742 0.82976 0.0
C672 C 0.24181 0.73146 0.82138 0.0
C673 C 0.24255 0.73668 0.79328 0.0
C674 C 0.22806 0.76101 0.78389 0.0
C675 C 0.21403 0.77967 0.80191 0.0
H676 H 0.22492 0.14965 0.74445 0.0
H677 H 0.20181 0.21645 0.79748 0.0
H678 H 0.25205 0.18072 0.71278 0.0
H679 H 0.22596 0.24789 0.76518 0.0
H680 H 0.27398 0.24476 0.64919 0.0
H681 H 0.24692 0.21312 0.68032 0.0
H682 H 0.27316 0.26566 0.74738 0.0
H683 H 0.29724 0.29794 0.71588 0.0
C684 C 0.22547 0.17107 0.74916 0.0
C685 C 0.21176 0.18064 0.77353 0.0
C686 C 0.24068 0.18903 0.73088 0.0
C687 C 0.24155 0.21712 0.73617 0.0
C688 C 0.22701 0.22651 0.76048 0.0
C689 C 0.21285 0.20848 0.77906 0.0
C690 C 0.27349 0.2495 0.67061 0.0
C691 C 0.28721 0.27391 0.68013 0.0
C692 C 0.25831 0.23124 0.6886 0.0
C693 C 0.25749 0.23658 0.71667 0.0
C694 C 0.27206 0.26093 0.72601 0.0
C695 C 0.28619 0.27949 0.70795 0.0
H696 H 0.77407 0.26578 0.86068 0.0
H697 H 0.79644 0.21271 0.79375 0.0
H698 H 0.74676 0.29752 0.82979 0.0
H699 H 0.77211 0.24509 0.76246 0.0
H700 H 0.70082 0.2947 0.71274 0.0
H701 H 0.72491 0.26308 0.7449 0.0
H702 H 0.75175 0.33 0.79744 0.0
H703 H 0.72466 0.36126 0.76592 0.0
C704 C 0.77332 0.26108 0.83926 0.0
C705 C 0.78687 0.23669 0.82961 0.0
C706 C 0.758 0.2794 0.8214 0.0
C707 C 0.75688 0.27413 0.79332 0.0
C708 C 0.77125 0.24978 0.78385 0.0
C709 C 0.78551 0.23115 0.80178 0.0
C710 C 0.712 0.30257 0.73117 0.0
C711 C 0.71115 0.33039 0.73679 0.0
C712 C 0.72613 0.28444 0.74966 0.0
C713 C 0.74089 0.2937 0.77396 0.0
C714 C 0.74022 0.32177 0.77935 0.0
C715 C 0.72503 0.33984 0.76116 0.0
H716 H 0.80494 0.85305 0.73811 0.0
H717 H 0.76742 0.80385 0.80398 0.0
H718 H 0.77918 0.82196 0.70563 0.0
H719 H 0.74171 0.773 0.77149 0.0
H720 H 0.73564 0.70751 0.7064 0.0
H721 H 0.76171 0.73971 0.73736 0.0
H722 H 0.72221 0.80605 0.69008 0.0
H723 H 0.6961 0.77386 0.65888 0.0
C724 C 0.79104 0.83576 0.74571 0.0
C725 C 0.78834 0.83101 0.77374 0.0
C726 C 0.7762 0.81799 0.72706 0.0
C727 C 0.75861 0.79492 0.73598 0.0
C728 C 0.75551 0.79038 0.76396 0.0
C729 C 0.77008 0.80822 0.7826 0.0
C730 C 0.73264 0.72894 0.7024 0.0
C731 C 0.71366 0.73802 0.68007 0.0
C732 C 0.74741 0.7474 0.72031 0.0
C733 C 0.74382 0.77543 0.71629 0.0
C734 C 0.72559 0.78458 0.69364 0.0
C735 C 0.71055 0.7661 0.6758 0.0
H736 H 0.17292 0.11922 0.93987 0.0
H737 H 0.24336 0.18312 0.92029 0.0
H738 H 0.18433 0.12606 0.98801 0.0
H739 H 0.25458 0.19002 0.96846 0.0
H740 H 0.20903 0.2185 0.05336 0.0
H741 H 0.21652 0.20836 0.00544 0.0
H742 H 0.22999 0.12376 0.02456 0.0
H743 H 0.22277 0.13394 0.07268 0.0
C744 C 0.19117 0.13447 0.94582 0.0
C745 C 0.20702 0.15077 0.92629 0.0
C746 C 0.19792 0.13823 0.97338 0.0
C747 C 0.22038 0.15858 0.98199 0.0
C748 C 0.23708 0.17426 0.96241 0.0
C749 C 0.23066 0.17026 0.93484 0.0
C750 C 0.21485 0.1979 0.04744 0.0
C751 C 0.21522 0.17703 0.06679 0.0
C752 C 0.21911 0.19207 0.01997 0.0
C753 C 0.22335 0.16521 0.01124 0.0
C754 C 0.2264 0.14462 0.03074 0.0
C755 C 0.22269 0.15051 0.05831 0.0
H756 H 0.77644 0.13389 0.93786 0.0
H757 H 0.7864 0.21902 0.95613 0.0
H758 H 0.7698 0.12411 0.98612 0.0
H759 H 0.77958 0.20931 1.00418 0.0
H760 H 0.75587 0.18468 0.0899 0.0
H761 H 0.74361 0.19071 0.04179 0.0
H762 H 0.81529 0.12783 0.02223 0.0
H763 H 0.82764 0.12178 0.07031 0.0
C764 C 0.77573 0.15063 0.95204 0.0
C765 C 0.78204 0.17723 0.94325 0.0
C766 C 0.7724 0.14498 0.97969 0.0
C767 C 0.77471 0.16589 0.99894 0.0
C768 C 0.7776 0.19276 0.98987 0.0
C769 C 0.78145 0.19835 0.96232 0.0
C770 C 0.76872 0.1719 0.07536 0.0
C771 C 0.79298 0.15292 0.08388 0.0
C772 C 0.76168 0.17538 0.04782 0.0
C773 C 0.77843 0.15973 0.02824 0.0
C774 C 0.80163 0.13995 0.03685 0.0
C775 C 0.80894 0.13666 0.06438 0.0
H776 H 0.78896 0.90195 0.93475 0.0
H777 H 0.79215 0.81527 0.92583 0.0
H778 H 0.77457 0.89692 0.98244 0.0
H779 H 0.7817 0.80969 0.97376 0.0
H780 H 0.7606 0.79932 0.05955 0.0
H781 H 0.75219 0.80869 0.01163 0.0
H782 H 0.79398 0.88901 0.02354 0.0
H783 H 0.79822 0.88027 0.07148 0.0
C784 C 0.78687 0.8818 0.94325 0.0
C785 C 0.79171 0.85899 0.92686 0.0
C786 C 0.77892 0.87876 0.97073 0.0
C787 C 0.77716 0.85281 0.98274 0.0
C788 C 0.78177 0.83006 0.96579 0.0
C789 C 0.78829 0.83316 0.93817 0.0
C790 C 0.76632 0.81935 0.05188 0.0
C791 C 0.77963 0.83917 0.06914 0.0
C792 C 0.76241 0.82464 0.02419 0.0
C793 C 0.77359 0.84937 0.01288 0.0
C794 C 0.78468 0.86977 0.03084 0.0
C795 C 0.78713 0.86484 0.05863 0.0
H796 H 0.17588 0.89203 0.06922 0.0
H797 H 0.24818 0.82976 0.08955 0.0
H798 H 0.18817 0.88545 0.02122 0.0
H799 H 0.26033 0.82314 0.0415 0.0
H800 H 0.21552 0.79312 0.95675 0.0
H801 H 0.22342 0.80374 1.00453 0.0
H802 H 0.23345 0.88851 0.98475 0.0
H803 H 0.22579 0.87784 0.93677 0.0
C804 C 0.19475 0.87723 0.06347 0.0
C805 C 0.21082 0.86125 0.08316 0.0
C806 C 0.20202 0.87362 0.03599 0.0
C807 C 0.22524 0.85377 0.0276 0.0
C808 C 0.24225 0.83851 0.04736 0.0
C809 C 0.23528 0.84234 0.07487 0.0
C810 C 0.22076 0.81389 0.96248 0.0
C811 C 0.21992 0.83463 0.94302 0.0
C812 C 0.22524 0.81999 0.98987 0.0
C813 C 0.22853 0.84702 0.9984 0.0
C814 C 0.2306 0.86754 0.97874 0.0
C815 C 0.22665 0.86137 0.95124 0.0
H816 H 0.08305 0.14791 0.12513 0.0
H817 H 0.08821 0.18407 0.2045 0.0
H818 H 0.02182 0.14674 0.12777 0.0
H819 H 0.02612 0.18232 0.20771 0.0
H820 H 0.91332 0.20211 0.18712 0.0
H821 H 0.97549 0.20383 0.1866 0.0
H822 H 0.97776 0.12387 0.15097 0.0
H823 H 0.9164 0.12272 0.15088 0.0
C824 C 0.07086 0.15556 0.14323 0.0
C825 C 0.08999 0.16681 0.16427 0.0
C826 C 0.03581 0.15464 0.1449 0.0
C827 C 0.01903 0.1646 0.16789 0.0
C828 C 0.03834 0.17496 0.18952 0.0
C829 C 0.07371 0.17579 0.18783 0.0
C830 C 0.92739 0.18505 0.17922 0.0
C831 C 0.91044 0.16198 0.16972 0.0
C832 C 0.96282 0.18589 0.17911 0.0
C833 C 0.98157 0.16389 0.16893 0.0
C834 C 0.9642 0.14125 0.15875 0.0
C835 C 0.92907 0.14043 0.15894 0.0
H836 H 0.79643 0.92625 0.19738 0.0
H837 H 0.79019 0.93442 0.11072 0.0
H838 H 0.78587 0.97422 0.20279 0.0
H839 H 0.77571 0.98211 0.11569 0.0
H840 H 0.7988 0.07146 0.13141 0.0
H841 H 0.79524 0.02339 0.12307 0.0
H842 H 0.75525 0.01165 0.20394 0.0
H843 H 0.76292 0.05976 0.21286 0.0
C844 C 0.79196 0.93844 0.17948 0.0
C845 C 0.79452 0.92693 0.15367 0.0
C846 C 0.78534 0.96605 0.18249 0.0
C847 C 0.77975 0.98276 0.15972 0.0
C848 C 0.78079 0.97056 0.13383 0.0
C849 C 0.78882 0.9431 0.13085 0.0
C850 C 0.78825 0.05861 0.14706 0.0
C851 C 0.78103 0.06923 0.17273 0.0
C852 C 0.78619 0.03076 0.14235 0.0
C853 C 0.7758 0.01287 0.16301 0.0
C854 C 0.76492 0.02423 0.18778 0.0
C855 C 0.76842 0.05199 0.19282 0.0
H856 H 0.91724 0.85995 0.12051 0.0
H857 H 0.91451 0.8237 0.19987 0.0
H858 H 0.97867 0.85998 0.12155 0.0
H859 H 0.97666 0.82429 0.20145 0.0
H860 H 0.08936 0.80684 0.18149 0.0
H861 H 0.02732 0.80331 0.17958 0.0
H862 H 0.02253 0.88361 0.14495 0.0
H863 H 0.08378 0.88662 0.14636 0.0
C864 C 0.93 0.85185 0.13815 0.0
C865 C 0.91146 0.84107 0.15976 0.0
C866 C 0.96514 0.85211 0.13891 0.0
C867 C 0.98258 0.842 0.16153 0.0
C868 C 0.96392 0.83173 0.18353 0.0
C869 C 0.92852 0.83157 0.18276 0.0
C870 C 0.07477 0.82355 0.17343 0.0
C871 C 0.09092 0.8473 0.16479 0.0
C872 C 0.03943 0.82165 0.17249 0.0
C873 C 0.02002 0.84328 0.16232 0.0
C874 C 0.03664 0.8665 0.1527 0.0
C875 C 0.07168 0.86838 0.15377 0.0
H876 H 0.24516 0.09061 0.1828 0.0
H877 H 0.17406 0.07072 0.11944 0.0
H878 H 0.25681 0.04244 0.18949 0.0
H879 H 0.18593 0.02264 0.12602 0.0
H880 H 0.22464 0.93821 0.13324 0.0
H881 H 0.232 0.98637 0.12326 0.0
H882 H 0.21885 1.0052 0.20796 0.0
H883 H 0.21118 0.95723 0.21788 0.0
C884 C 0.23242 0.076 0.17 0.0
C885 C 0.20847 0.08444 0.15073 0.0
C886 C 0.2391 0.04844 0.17387 0.0
C887 C 0.22235 0.0288 0.15826 0.0
C888 C 0.19957 0.03733 0.13813 0.0
C889 C 0.19255 0.06485 0.13451 0.0
C890 C 0.2247 0.95252 0.14987 0.0
C891 C 0.21722 0.94396 0.17635 0.0
C892 C 0.2285 0.98012 0.1441 0.0
C893 C 0.22553 0.99954 0.16477 0.0
C894 C 0.22138 0.99072 0.19161 0.0
C895 C 0.21702 0.96322 0.19731 0.0
H896 H 0.91734 0.88777 0.86346 0.0
H897 H 0.91295 0.80838 0.82728 0.0
H898 H 0.97868 0.88566 0.86422 0.0
H899 H 0.97507 0.80576 0.82854 0.0
H900 H 0.08432 0.86172 0.88868 0.0
H901 H 0.02295 0.86229 0.88714 0.0
H902 H 0.02543 0.82742 0.80686 0.0
H903 H 0.08758 0.82633 0.80892 0.0
C904 C 0.92972 0.86982 0.85567 0.0
C905 C 0.91077 0.84858 0.84457 0.0
C906 C 0.96482 0.86846 0.85635 0.0
C907 C 0.9818 0.84561 0.84625 0.0
C908 C 0.96269 0.82384 0.83598 0.0
C909 C 0.9273 0.8252 0.83543 0.0
C910 C 0.07168 0.85403 0.87078 0.0
C911 C 0.09034 0.84325 0.84925 0.0
C912 C 0.03656 0.8546 0.86975 0.0
C913 C 0.01926 0.84472 0.84695 0.0
C914 C 0.03806 0.83467 0.82492 0.0
C915 C 0.07347 0.83423 0.82596 0.0
H916 H 0.17433 0.94059 0.89133 0.0
H917 H 0.24613 0.92088 0.82852 0.0
H918 H 0.18607 0.9887 0.88477 0.0
H919 H 0.25777 0.96903 0.82194 0.0
H920 H 0.21314 0.05373 0.79246 0.0
H921 H 0.22086 0.00592 0.8029 0.0
H922 H 0.23092 0.02542 0.88775 0.0
H923 H 0.22338 0.07345 0.87725 0.0
C924 C 0.19296 0.9465 0.8764 0.0
C925 C 0.20906 0.92694 0.86028 0.0
C926 C 0.19991 0.97405 0.8728 0.0
C927 C 0.22287 0.98264 0.85283 0.0
C928 C 0.23987 0.96301 0.8374 0.0
C929 C 0.23319 0.93545 0.8412 0.0
C930 C 0.21832 0.04793 0.81321 0.0
C931 C 0.21756 0.06734 0.83402 0.0
C932 C 0.2227 0.02051 0.81921 0.0
C933 C 0.22598 0.01189 0.8462 0.0
C934 C 0.22806 0.03149 0.8668 0.0
C935 C 0.22419 0.05902 0.86073 0.0
H936 H 0.08656 0.20219 0.82529 0.0
H937 H 0.08256 0.12262 0.86103 0.0
H938 H 0.02442 0.20457 0.8264 0.0
H939 H 0.02121 0.1245 0.86165 0.0
H940 H 0.91163 0.18407 0.80748 0.0
H941 H 0.97376 0.18279 0.80484 0.0
H942 H 0.97739 0.14803 0.88511 0.0
H943 H 0.91607 0.14883 0.88726 0.0
C944 C 0.07229 0.18527 0.83328 0.0
C945 C 0.08894 0.16193 0.8424 0.0
C946 C 0.0369 0.18649 0.83374 0.0
C947 C 0.01791 0.16462 0.84391 0.0
C948 C 0.03499 0.14177 0.85386 0.0
C949 C 0.07009 0.14055 0.85328 0.0
C950 C 0.92599 0.17614 0.82438 0.0
C951 C 0.90947 0.16723 0.84786 0.0
C952 C 0.96138 0.17557 0.82301 0.0
C953 C 0.98047 0.16551 0.84487 0.0
C954 C 0.96352 0.15572 0.86784 0.0
C955 C 0.92843 0.15641 0.86921 0.0
H956 H 0.78712 0.95687 0.79334 0.0
H957 H 0.77625 0.93763 0.87816 0.0
H958 H 0.77937 1.00476 0.80351 0.0
H959 H 0.76874 0.98573 0.88839 0.0
H960 H 0.82569 0.07051 0.89168 0.0
H961 H 0.81394 0.02237 0.88527 0.0
H962 H 0.74214 0.04178 0.82238 0.0
H963 H 0.75374 0.08996 0.82882 0.0
C964 C 0.78179 0.9628 0.81403 0.0
C965 C 0.78237 0.9435 0.83493 0.0
C966 C 0.7774 0.99025 0.81988 0.0
C967 C 0.77396 0.99902 0.8468 0.0
C968 C 0.77172 0.97953 0.86748 0.0
C969 C 0.77557 0.95197 0.86156 0.0
C970 C 0.80703 0.06454 0.87677 0.0
C971 C 0.79088 0.08403 0.86061 0.0
C972 C 0.80008 0.03697 0.87326 0.0
C973 C 0.77709 0.0283 0.85331 0.0
C974 C 0.76005 0.04786 0.83782 0.0
C975 C 0.7667 0.07544 0.84156 0.0
H976 H 0.67308 0.61965 0.44048 0.0
H977 H 0.74425 0.68296 0.42067 0.0
H978 H 0.68477 0.62643 0.48859 0.0
H979 H 0.75575 0.6898 0.46881 0.0
H980 H 0.71076 0.71871 0.55378 0.0
H981 H 0.71808 0.70849 0.50585 0.0
H982 H 0.73053 0.6238 0.52503 0.0
H983 H 0.72349 0.63406 0.57314 0.0
C984 C 0.69154 0.63475 0.44637 0.0
C985 C 0.70752 0.65091 0.42679 0.0
C986 C 0.69846 0.63848 0.47391 0.0
C987 C 0.72121 0.65865 0.48245 0.0
C988 C 0.73803 0.67418 0.46281 0.0
C989 C 0.73144 0.67022 0.43527 0.0
C990 C 0.71635 0.69806 0.54787 0.0
C991 C 0.71646 0.6772 0.56723 0.0
C992 C 0.7205 0.69219 0.5204 0.0
C993 C 0.72438 0.66528 0.51168 0.0
C994 C 0.72722 0.64468 0.53119 0.0
C995 C 0.72361 0.65062 0.55876 0.0
H996 H 0.25505 0.68165 0.59027 0.0
H997 H 0.32745 0.61942 0.57004 0.0
H998 H 0.24314 0.68841 0.54221 0.0
H999 H 0.3154 0.62618 0.52199 0.0
H1000 H 0.27671 0.63369 0.43745 0.0
H1001 H 0.27005 0.623 0.48552 0.0
H1002 H 0.27966 0.70784 0.50519 0.0
H1003 H 0.28656 0.71848 0.45733 0.0
C1004 C 0.26808 0.66914 0.5756 0.0
C1005 C 0.29244 0.65015 0.58395 0.0
C1006 C 0.26124 0.67305 0.54809 0.0
C1007 C 0.2783 0.65784 0.52833 0.0
C1008 C 0.30153 0.63798 0.53675 0.0
C1009 C 0.30865 0.63427 0.56426 0.0
C1010 C 0.27599 0.65016 0.45194 0.0
C1011 C 0.28224 0.67694 0.44364 0.0
C1012 C 0.27264 0.64399 0.47948 0.0
C1013 C 0.27483 0.66453 0.49913 0.0
C1014 C 0.27775 0.69157 0.49056 0.0
C1015 C 0.28164 0.69768 0.46312 0.0
H1016 H 0.32495 0.39135 0.44036 0.0
H1017 H 0.25297 0.32879 0.41996 0.0
H1018 H 0.31284 0.3846 0.48836 0.0
H1019 H 0.24103 0.32197 0.46804 0.0
H1020 H 0.27474 0.37707 0.57273 0.0
H1021 H 0.26724 0.38755 0.5247 0.0
H1022 H 0.27821 0.30281 0.50513 0.0
H1023 H 0.28596 0.29237 0.55296 0.0
C1024 C 0.30621 0.37643 0.4461 0.0
C1025 C 0.29014 0.36046 0.42639 0.0
C1026 C 0.29905 0.37272 0.47358 0.0
C1027 C 0.27594 0.35277 0.48195 0.0
C1028 C 0.25901 0.33744 0.46218 0.0
C1029 C 0.26585 0.34138 0.43467 0.0
C1030 C 0.27414 0.36055 0.55829 0.0
C1031 C 0.28107 0.33389 0.56659 0.0
C1032 C 0.27027 0.36661 0.53077 0.0
C1033 C 0.27264 0.34605 0.51115 0.0
C1034 C 0.27616 0.31908 0.51975 0.0
C1035 C 0.28056 0.31308 0.54717 0.0
H1036 H 0.71418 0.29346 0.45796 0.0
H1037 H 0.72358 0.37824 0.43795 0.0
H1038 H 0.72178 0.30416 0.50574 0.0
H1039 H 0.73096 0.38899 0.48595 0.0
H1040 H 0.74618 0.33032 0.59075 0.0
H1041 H 0.75833 0.32373 0.54271 0.0
H1042 H 0.68579 0.38576 0.52243 0.0
H1043 H 0.67352 0.39233 0.57044 0.0
C1044 C 0.71918 0.31427 0.46369 0.0
C1045 C 0.71818 0.335 0.44422 0.0
C1046 C 0.72348 0.32042 0.49109 0.0
C1047 C 0.72643 0.34747 0.49961 0.0
C1048 C 0.72835 0.36799 0.47994 0.0
C1049 C 0.72457 0.36178 0.45244 0.0
C1050 C 0.73317 0.34284 0.57607 0.0
C1051 C 0.70863 0.36168 0.58438 0.0
C1052 C 0.74014 0.33902 0.54857 0.0
C1053 C 0.72305 0.35421 0.52881 0.0
C1054 C 0.69971 0.37398 0.5372 0.0
C1055 C 0.69245 0.37759 0.56469 0.0
H1056 H 0.58411 0.64831 0.62456 0.0
H1057 H 0.58794 0.68451 0.70396 0.0
H1058 H 0.52284 0.64703 0.6266 0.0
H1059 H 0.52581 0.6827 0.70652 0.0
H1060 H 0.41305 0.70158 0.68532 0.0
H1061 H 0.4752 0.70398 0.68475 0.0
H1062 H 0.47881 0.62378 0.64976 0.0
H1063 H 0.41746 0.6219 0.64981 0.0
C1064 C 0.57162 0.65596 0.64253 0.0
C1065 C 0.59041 0.66721 0.66378 0.0
C1066 C 0.53655 0.65499 0.64384 0.0
C1067 C 0.51939 0.66493 0.66666 0.0
C1068 C 0.53833 0.67536 0.68847 0.0
C1069 C 0.57372 0.67622 0.68714 0.0
C1070 C 0.42741 0.68464 0.67751 0.0
C1071 C 0.41085 0.66127 0.66829 0.0
C1072 C 0.46281 0.68586 0.67737 0.0
C1073 C 0.48193 0.66397 0.66742 0.0
C1074 C 0.46495 0.64108 0.65738 0.0
C1075 C 0.42984 0.63986 0.65764 0.0
H1076 H 0.27641 0.57305 0.63274 0.0
H1077 H 0.2859 0.55318 0.71754 0.0
H1078 H 0.26906 0.52503 0.62207 0.0
H1079 H 0.27834 0.50537 0.70692 0.0
H1080 H 0.25346 0.42034 0.68088 0.0
H1081 H 0.24167 0.46844 0.68752 0.0
H1082 H 0.31399 0.4884 0.62524 0.0
H1083 H 0.32589 0.44032 0.61862 0.0
C1084 C 0.27546 0.55859 0.64922 0.0
C1085 C 0.28183 0.56686 0.67599 0.0
C1086 C 0.2717 0.53107 0.64306 0.0
C1087 C 0.27363 0.51142 0.6636 0.0
C1088 C 0.27663 0.52 0.69064 0.0
C1089 C 0.28091 0.54741 0.69674 0.0
C1090 C 0.2665 0.43496 0.66832 0.0
C1091 C 0.29086 0.42654 0.64938 0.0
C1092 C 0.25974 0.4625 0.67217 0.0
C1093 C 0.27687 0.48219 0.65691 0.0
C1094 C 0.30005 0.47369 0.63707 0.0
C1095 C 0.30709 0.44616 0.63343 0.0
H1096 H 0.58256 0.38853 0.64864 0.0
H1097 H 0.58701 0.30874 0.68386 0.0
H1098 H 0.52122 0.38625 0.64767 0.0
H1099 H 0.52489 0.30599 0.68244 0.0
H1100 H 0.41614 0.3617 0.62189 0.0
H1101 H 0.47749 0.36253 0.62396 0.0
H1102 H 0.47415 0.32757 0.70414 0.0
H1103 H 0.41201 0.32628 0.7016 0.0
C1104 C 0.57019 0.37046 0.65619 0.0
C1105 C 0.58915 0.34913 0.66704 0.0
C1106 C 0.5351 0.36902 0.65541 0.0
C1107 C 0.51815 0.34601 0.66515 0.0
C1108 C 0.53726 0.32418 0.67526 0.0
C1109 C 0.57264 0.32562 0.67591 0.0
C1110 C 0.42858 0.35406 0.63989 0.0
C1111 C 0.40969 0.34321 0.66126 0.0
C1112 C 0.46368 0.35477 0.64121 0.0
C1113 C 0.48072 0.34495 0.66415 0.0
C1114 C 0.4617 0.33481 0.686 0.0
C1115 C 0.42631 0.33424 0.68468 0.0
H1116 H 0.67401 0.57087 0.62002 0.0
H1117 H 0.74577 0.59082 0.68289 0.0
H1118 H 0.68577 0.52279 0.62672 0.0
H1119 H 0.75734 0.54267 0.68966 0.0
H1120 H 0.72388 0.43825 0.63412 0.0
H1121 H 0.7314 0.48633 0.62383 0.0
H1122 H 0.71972 0.50563 0.70856 0.0
H1123 H 0.71191 0.45774 0.7188 0.0
C1124 C 0.69262 0.56501 0.635 0.0
C1125 C 0.70875 0.58463 0.65107 0.0
C1126 C 0.69958 0.53748 0.63868 0.0
C1127 C 0.72252 0.52897 0.65871 0.0
C1128 C 0.73949 0.54864 0.67414 0.0
C1129 C 0.73286 0.57619 0.67022 0.0
C1130 C 0.72431 0.45264 0.65068 0.0
C1131 C 0.71719 0.44425 0.67728 0.0
C1132 C 0.72819 0.48019 0.64473 0.0
C1133 C 0.72566 0.49974 0.66533 0.0
C1134 C 0.7219 0.49106 0.69226 0.0
C1135 C 0.71748 0.46361 0.69814 0.0
H1136 H 0.41558 0.38674 0.36337 0.0
H1137 H 0.41149 0.30743 0.32701 0.0
H1138 H 0.47684 0.38452 0.36475 0.0
H1139 H 0.4736 0.30467 0.32891 0.0
H1140 H 0.58635 0.32575 0.30993 0.0
H1141 H 0.5242 0.32637 0.30765 0.0
H1142 H 0.52086 0.36128 0.38789 0.0
H1143 H 0.58222 0.36118 0.38965 0.0
C1144 C 0.42801 0.36875 0.35572 0.0
C1145 C 0.40916 0.34759 0.34437 0.0
C1146 C 0.46307 0.36733 0.35674 0.0
C1147 C 0.48015 0.34449 0.34676 0.0
C1148 C 0.46114 0.32275 0.33628 0.0
C1149 C 0.42576 0.32418 0.33536 0.0
C1150 C 0.57205 0.33355 0.32691 0.0
C1151 C 0.58868 0.34274 0.35025 0.0
C1152 C 0.53664 0.33372 0.32575 0.0
C1153 C 0.51761 0.34366 0.34769 0.0
C1154 C 0.53466 0.35366 0.37056 0.0
C1155 C 0.56978 0.35338 0.37171 0.0
H1156 H 0.67236 0.44085 0.39204 0.0
H1157 H 0.74437 0.42078 0.3295 0.0
H1158 H 0.68434 0.48893 0.38536 0.0
H1159 H 0.75623 0.46886 0.3228 0.0
H1160 H 0.71237 0.55374 0.29307 0.0
H1161 H 0.71953 0.50588 0.30359 0.0
H1162 H 0.72963 0.52543 0.38842 0.0
H1163 H 0.72269 0.5735 0.37784 0.0
C1164 C 0.69107 0.44667 0.37714 0.0
C1165 C 0.70717 0.42703 0.36114 0.0
C1166 C 0.69816 0.4742 0.37347 0.0
C1167 C 0.72126 0.48266 0.35355 0.0
C1168 C 0.73822 0.46294 0.33822 0.0
C1169 C 0.73142 0.43542 0.34209 0.0
C1170 C 0.71745 0.54793 0.31383 0.0
C1171 C 0.71689 0.56737 0.33461 0.0
C1172 C 0.72149 0.52049 0.31988 0.0
C1173 C 0.72462 0.51188 0.34689 0.0
C1174 C 0.72688 0.53149 0.36746 0.0
C1175 C 0.72336 0.55904 0.36134 0.0
H1176 H 0.58265 0.62344 0.36169 0.0
H1177 H 0.5872 0.70303 0.32604 0.0
H1178 H 0.52134 0.62561 0.36238 0.0
H1179 H 0.52507 0.70572 0.32723 0.0
H1180 H 0.41214 0.68545 0.30816 0.0
H1181 H 0.47428 0.68418 0.30564 0.0
H1182 H 0.47765 0.64923 0.38585 0.0
H1183 H 0.41633 0.65 0.38785 0.0
C1184 C 0.57031 0.64144 0.35398 0.0
C1185 C 0.5893 0.66274 0.3431 0.0
C1186 C 0.53523 0.64283 0.35461 0.0
C1187 C 0.5183 0.66578 0.3447 0.0
C1188 C 0.53743 0.68757 0.33454 0.0
C1189 C 0.57281 0.68618 0.33403 0.0
C1190 C 0.42645 0.6775 0.32508 0.0
C1191 C 0.40986 0.6685 0.34849 0.0
C1192 C 0.46184 0.67694 0.32378 0.0
C1193 C 0.48087 0.66681 0.34565 0.0
C1194 C 0.46384 0.65698 0.36857 0.0
C1195 C 0.42875 0.65765 0.36987 0.0
H1196 H 0.27593 0.4384 0.37697 0.0
H1197 H 0.28922 0.45779 0.29239 0.0
H1198 H 0.26873 0.48651 0.38721 0.0
H1199 H 0.28174 0.50572 0.30259 0.0
H1200 H 0.25512 0.59085 0.32802 0.0
H1201 H 0.24377 0.54269 0.32116 0.0
H1202 H 0.3145 0.52302 0.38473 0.0
H1203 H 0.32606 0.57115 0.39154 0.0
C1204 C 0.2759 0.45278 0.36041 0.0
C1205 C 0.28326 0.44434 0.33386 0.0
C1206 C 0.2722 0.48035 0.36634 0.0
C1207 C 0.27514 0.49987 0.34576 0.0
C1208 C 0.27923 0.49116 0.31887 0.0
C1209 C 0.28348 0.46369 0.31301 0.0
C1210 C 0.26791 0.57627 0.3408 0.0
C1211 C 0.29173 0.58478 0.36018 0.0
C1212 C 0.2614 0.54871 0.33683 0.0
C1213 C 0.2782 0.5291 0.35241 0.0
C1214 C 0.30084 0.53768 0.37264 0.0
C1215 C 0.30767 0.56523 0.37639 0.0
loop_
_geom_bond_atom_site_label_1
_geom_bond_atom_site_label_2
_geom_bond_distance
_geom_bond_site_symmetry_2
_ccdc_geom_bond_type
Mn0 O5 2.095 . S
Mn0 O15 2.162 . S
Mn0 O16 2.297 . S
Mn0 O24 2.385 . S
Mn0 O25 2.209 . S
Mn0 O26 2.094 . S
Mn1 O6 2.121 . S
Mn1 N8 2.257 . S
Mn1 N17 2.282 . S
Mn1 O25 2.215 . S
Mn1 O27 2.117 . S
C2 O24 1.234 . S
C2 O25 1.283 . S
C3 O15 1.281 . S
C3 O16 1.236 . S
C4 O26 1.240 . S
C4 O27 1.264 . S
O5 Mn0 2.095 . S
O5 C14 1.250 . S
O6 Mn1 2.121 . S
O6 C14 1.258 . S
C7 N8 1.326 . S
C7 C11 1.460 . S
C7 H13 0.929 . S
N8 Mn1 2.257 . S
N8 C7 1.326 . S
N8 C12 1.362 . S
C9 C10 1.258 . S
C9 C12 1.431 . S
C9 C29 1.449 . S
C10 C9 1.258 . S
C10 C11 1.477 . S
C10 H30 0.931 . S
C11 C7 1.460 . S
C11 C10 1.477 . S
C11 H31 0.930 . S
C12 N8 1.362 . S
C12 C9 1.431 . S
C12 C22 1.476 . S
H13 C7 0.929 . S
C14 O5 1.250 . S
C14 O6 1.258 . S
O15 Mn0 2.162 . S
O15 C3 1.281 . S
O16 Mn0 2.297 . S
O16 C3 1.236 . S
N17 Mn1 2.282 . S
N17 C18 1.328 . S
N17 C22 1.318 . S
C18 N17 1.328 . S
C18 C19 1.457 . S
C18 H23 0.929 . S
C19 C18 1.457 . S
C19 C20 1.291 . S
C19 H32 0.931 . S
C20 C19 1.291 . S
C20 C21 1.373 . S
C20 H33 0.929 . S
C21 C20 1.373 . S
C21 C22 1.396 . S
C21 C28 1.403 . S
C22 C12 1.476 . S
C22 N17 1.318 . S
C22 C21 1.396 . S
H23 C18 0.929 . S
O24 Mn0 2.385 . S
O24 C2 1.234 . S
O25 Mn0 2.209 . S
O25 Mn1 2.215 . S
O25 C2 1.283 . S
O26 Mn0 2.094 . S
O26 C4 1.240 . S
O27 Mn1 2.117 . S
O27 C4 1.264 . S
C28 C21 1.403 . S
C28 C29 1.399 . S
C28 H34 0.929 . S
C29 C9 1.449 . S
C29 C28 1.399 . S
C29 H35 0.930 . S
H30 C10 0.931 . S
H31 C11 0.930 . S
H32 C19 0.931 . S
H33 C20 0.929 . S
H34 C28 0.929 . S
H35 C29 0.930 . S
Mn36 O41 2.095 . S
Mn36 O51 2.162 . S
Mn36 O52 2.297 . S
Mn36 O60 2.385 . S
Mn36 O61 2.209 . S
Mn36 O62 2.094 . S
Mn37 O42 2.121 . S
Mn37 N44 2.257 . S
Mn37 N53 2.282 . S
Mn37 O61 2.215 . S
Mn37 O63 2.117 . S
C38 O60 1.234 . S
C38 O61 1.283 . S
C39 O51 1.281 . S
C39 O52 1.236 . S
C40 O62 1.240 . S
C40 O63 1.264 . S
O41 Mn36 2.095 . S
O41 C50 1.250 . S
O42 Mn37 2.121 . S
O42 C50 1.258 . S
C43 N44 1.326 . S
C43 C47 1.460 . S
C43 H49 0.929 . S
N44 Mn37 2.257 . S
N44 C43 1.326 . S
N44 C48 1.362 . S
C45 C46 1.258 . S
C45 C48 1.431 . S
C45 C65 1.449 . S
C46 C45 1.258 . S
C46 C47 1.477 . S
C46 H66 0.931 . S
C47 C43 1.460 . S
C47 C46 1.477 . S
C47 H67 0.930 . S
C48 N44 1.362 . S
C48 C45 1.431 . S
C48 C58 1.476 . S
H49 C43 0.929 . S
C50 O41 1.250 . S
C50 O42 1.258 . S
O51 Mn36 2.162 . S
O51 C39 1.281 . S
O52 Mn36 2.297 . S
O52 C39 1.236 . S
N53 Mn37 2.282 . S
N53 C54 1.328 . S
N53 C58 1.318 . S
C54 N53 1.328 . S
C54 C55 1.457 . S
C54 H59 0.929 . S
C55 C54 1.457 . S
C55 C56 1.291 . S
C55 H68 0.931 . S
C56 C55 1.291 . S
C56 C57 1.373 . S
C56 H69 0.929 . S
C57 C56 1.373 . S
C57 C58 1.396 . S
C57 C64 1.403 . S
C58 C48 1.476 . S
C58 N53 1.318 . S
C58 C57 1.396 . S
H59 C54 0.929 . S
O60 Mn36 2.385 . S
O60 C38 1.234 . S
O61 Mn36 2.209 . S
O61 Mn37 2.215 . S
O61 C38 1.283 . S
O62 Mn36 2.094 . S
O62 C40 1.240 . S
O63 Mn37 2.117 . S
O63 C40 1.264 . S
C64 C57 1.403 . S
C64 C65 1.399 . S
C64 H70 0.929 . S
C65 C45 1.449 . S
C65 C64 1.399 . S
C65 H71 0.930 . S
H66 C46 0.931 . S
H67 C47 0.930 . S
H68 C55 0.931 . S
H69 C56 0.929 . S
H70 C64 0.929 . S
H71 C65 0.930 . S
Mn72 O77 2.095 . S
Mn72 O87 2.162 . S
Mn72 O88 2.297 . S
Mn72 O96 2.385 . S
Mn72 O97 2.209 . S
Mn72 O98 2.094 . S
Mn73 O78 2.121 . S
Mn73 N80 2.257 . S
Mn73 N89 2.282 . S
Mn73 O97 2.215 . S
Mn73 O99 2.117 . S
C74 O96 1.234 . S
C74 O97 1.283 . S
C75 O87 1.281 . S
C75 O88 1.236 . S
C76 O98 1.240 . S
C76 O99 1.264 . S
O77 Mn72 2.095 . S
O77 C86 1.250 . S
O78 Mn73 2.121 . S
O78 C86 1.258 . S
C79 N80 1.326 . S
C79 C83 1.460 . S
C79 H85 0.929 . S
N80 Mn73 2.257 . S
N80 C79 1.326 . S
N80 C84 1.362 . S
C81 C82 1.258 . S
C81 C84 1.431 . S
C81 C101 1.449 . S
C82 C81 1.258 . S
C82 C83 1.477 . S
C82 H102 0.931 . S
C83 C79 1.460 . S
C83 C82 1.477 . S
C83 H103 0.930 . S
C84 N80 1.362 . S
C84 C81 1.431 . S
C84 C94 1.476 . S
H85 C79 0.929 . S
C86 O77 1.250 . S
C86 O78 1.258 . S
O87 Mn72 2.162 . S
O87 C75 1.281 . S
O88 Mn72 2.297 . S
O88 C75 1.236 . S
N89 Mn73 2.282 . S
N89 C90 1.328 . S
N89 C94 1.318 . S
C90 N89 1.328 . S
C90 C91 1.457 . S
C90 H95 0.929 . S
C91 C90 1.457 . S
C91 C92 1.291 . S
C91 H104 0.931 . S
C92 C91 1.291 . S
C92 C93 1.373 . S
C92 H105 0.929 . S
C93 C92 1.373 . S
C93 C94 1.396 . S
C93 C100 1.403 . S
C94 C84 1.476 . S
C94 N89 1.318 . S
C94 C93 1.396 . S
H95 C90 0.929 . S
O96 Mn72 2.385 . S
O96 C74 1.234 . S
O97 Mn72 2.209 . S
O97 Mn73 2.215 . S
O97 C74 1.283 . S
O98 Mn72 2.094 . S
O98 C76 1.240 . S
O99 Mn73 2.117 . S
O99 C76 1.264 . S
C100 C93 1.403 . S
C100 C101 1.399 . S
C100 H106 0.929 . S
C101 C81 1.449 . S
C101 C100 1.399 . S
C101 H107 0.930 . S
H102 C82 0.931 . S
H103 C83 0.930 . S
H104 C91 0.931 . S
H105 C92 0.929 . S
H106 C100 0.929 . S
H107 C101 0.930 . S
Mn108 O113 2.095 . S
Mn108 O123 2.162 . S
Mn108 O124 2.297 . S
Mn108 O132 2.385 . S
Mn108 O133 2.209 . S
Mn108 O134 2.094 . S
Mn109 O114 2.121 . S
Mn109 N116 2.257 . S
Mn109 N125 2.282 . S
Mn109 O133 2.215 . S
Mn109 O135 2.117 . S
C110 O132 1.234 . S
C110 O133 1.283 . S
C111 O123 1.281 . S
C111 O124 1.236 . S
C112 O134 1.240 . S
C112 O135 1.264 . S
O113 Mn108 2.095 . S
O113 C122 1.250 . S
O114 Mn109 2.121 . S
O114 C122 1.258 . S
C115 N116 1.326 . S
C115 C119 1.460 . S
C115 H121 0.929 . S
N116 Mn109 2.257 . S
N116 C115 1.326 . S
N116 C120 1.362 . S
C117 C118 1.258 . S
C117 C120 1.431 . S
C117 C137 1.449 . S
C118 C117 1.258 . S
C118 C119 1.477 . S
C118 H138 0.931 . S
C119 C115 1.460 . S
C119 C118 1.477 . S
C119 H139 0.930 . S
C120 N116 1.362 . S
C120 C117 1.431 . S
C120 C130 1.476 . S
H121 C115 0.929 . S
C122 O113 1.250 . S
C122 O114 1.258 . S
O123 Mn108 2.162 . S
O123 C111 1.281 . S
O124 Mn108 2.297 . S
O124 C111 1.236 . S
N125 Mn109 2.282 . S
N125 C126 1.328 . S
N125 C130 1.318 . S
C126 N125 1.328 . S
C126 C127 1.457 . S
C126 H131 0.929 . S
C127 C126 1.457 . S
C127 C128 1.291 . S
C127 H140 0.931 . S
C128 C127 1.291 . S
C128 C129 1.373 . S
C128 H141 0.929 . S
C129 C128 1.373 . S
C129 C130 1.396 . S
C129 C136 1.403 . S
C130 C120 1.476 . S
C130 N125 1.318 . S
C130 C129 1.396 . S
H131 C126 0.929 . S
O132 Mn108 2.385 . S
O132 C110 1.234 . S
O133 Mn108 2.209 . S
O133 Mn109 2.215 . S
O133 C110 1.283 . S
O134 Mn108 2.094 . S
O134 C112 1.240 . S
O135 Mn109 2.117 . S
O135 C112 1.264 . S
C136 C129 1.403 . S
C136 C137 1.399 . S
C136 H142 0.929 . S
C137 C117 1.449 . S
C137 C136 1.399 . S
C137 H143 0.930 . S
H138 C118 0.931 . S
H139 C119 0.930 . S
H140 C127 0.931 . S
H141 C128 0.929 . S
H142 C136 0.929 . S
H143 C137 0.930 . S
Mn144 O149 2.095 . S
Mn144 O159 2.162 . S
Mn144 O160 2.297 . S
Mn144 O168 2.385 . S
Mn144 O169 2.209 . S
Mn144 O170 2.094 . S
Mn145 O150 2.121 . S
Mn145 N152 2.257 . S
Mn145 N161 2.282 . S
Mn145 O169 2.215 . S
Mn145 O171 2.117 . S
C146 O168 1.234 . S
C146 O169 1.283 . S
C147 O159 1.281 . S
C147 O160 1.236 . S
C148 O170 1.240 . S
C148 O171 1.264 . S
O149 Mn144 2.095 . S
O149 C158 1.250 . S
O150 Mn145 2.121 . S
O150 C158 1.258 . S
C151 N152 1.326 . S
C151 C155 1.460 . S
C151 H157 0.929 . S
N152 Mn145 2.257 . S
N152 C151 1.326 . S
N152 C156 1.362 . S
C153 C154 1.258 . S
C153 C156 1.431 . S
C153 C173 1.449 . S
C154 C153 1.258 . S
C154 C155 1.477 . S
C154 H174 0.931 . S
C155 C151 1.460 . S
C155 C154 1.477 . S
C155 H175 0.930 . S
C156 N152 1.362 . S
C156 C153 1.431 . S
C156 C166 1.476 . S
H157 C151 0.929 . S
C158 O149 1.250 . S
C158 O150 1.258 . S
O159 Mn144 2.162 . S
O159 C147 1.281 . S
O160 Mn144 2.297 . S
O160 C147 1.236 . S
N161 Mn145 2.282 . S
N161 C162 1.328 . S
N161 C166 1.318 . S
C162 N161 1.328 . S
C162 C163 1.457 . S
C162 H167 0.929 . S
C163 C162 1.457 . S
C163 C164 1.291 . S
C163 H176 0.931 . S
C164 C163 1.291 . S
C164 C165 1.373 . S
C164 H177 0.929 . S
C165 C164 1.373 . S
C165 C166 1.396 . S
C165 C172 1.403 . S
C166 C156 1.476 . S
C166 N161 1.318 . S
C166 C165 1.396 . S
H167 C162 0.929 . S
O168 Mn144 2.385 . S
O168 C146 1.234 . S
O169 Mn144 2.209 . S
O169 Mn145 2.215 . S
O169 C146 1.283 . S
O170 Mn144 2.094 . S
O170 C148 1.240 . S
O171 Mn145 2.117 . S
O171 C148 1.264 . S
C172 C165 1.403 . S
C172 C173 1.399 . S
C172 H178 0.929 . S
C173 C153 1.449 . S
C173 C172 1.399 . S
C173 H179 0.930 . S
H174 C154 0.931 . S
H175 C155 0.930 . S
H176 C163 0.931 . S
H177 C164 0.929 . S
H178 C172 0.929 . S
H179 C173 0.930 . S
Mn180 O185 2.095 . S
Mn180 O195 2.162 . S
Mn180 O196 2.297 . S
Mn180 O204 2.385 . S
Mn180 O205 2.209 . S
Mn180 O206 2.094 . S
Mn181 O186 2.121 . S
Mn181 N188 2.257 . S
Mn181 N197 2.282 . S
Mn181 O205 2.215 . S
Mn181 O207 2.117 . S
C182 O204 1.234 . S
C182 O205 1.283 . S
C183 O195 1.281 . S
C183 O196 1.236 . S
C184 O206 1.240 . S
C184 O207 1.264 . S
O185 Mn180 2.095 . S
O185 C194 1.250 . S
O186 Mn181 2.121 . S
O186 C194 1.258 . S
C187 N188 1.326 . S
C187 C191 1.460 . S
C187 H193 0.929 . S
N188 Mn181 2.257 . S
N188 C187 1.326 . S
N188 C192 1.362 . S
C189 C190 1.258 . S
C189 C192 1.431 . S
C189 C209 1.449 . S
C190 C189 1.258 . S
C190 C191 1.477 . S
C190 H210 0.931 . S
C191 C187 1.460 . S
C191 C190 1.477 . S
C191 H211 0.930 . S
C192 N188 1.362 . S
C192 C189 1.431 . S
C192 C202 1.476 . S
H193 C187 0.929 . S
C194 O185 1.250 . S
C194 O186 1.258 . S
O195 Mn180 2.162 . S
O195 C183 1.281 . S
O196 Mn180 2.297 . S
O196 C183 1.236 . S
N197 Mn181 2.282 . S
N197 C198 1.328 . S
N197 C202 1.318 . S
C198 N197 1.328 . S
C198 C199 1.457 . S
C198 H203 0.929 . S
C199 C198 1.457 . S
C199 C200 1.291 . S
C199 H212 0.931 . S
C200 C199 1.291 . S
C200 C201 1.373 . S
C200 H213 0.929 . S
C201 C200 1.373 . S
C201 C202 1.396 . S
C201 C208 1.403 . S
C202 C192 1.476 . S
C202 N197 1.318 . S
C202 C201 1.396 . S
H203 C198 0.929 . S
O204 Mn180 2.385 . S
O204 C182 1.234 . S
O205 Mn180 2.209 . S
O205 Mn181 2.215 . S
O205 C182 1.283 . S
O206 Mn180 2.094 . S
O206 C184 1.240 . S
O207 Mn181 2.117 . S
O207 C184 1.264 . S
C208 C201 1.403 . S
C208 C209 1.399 . S
C208 H214 0.929 . S
C209 C189 1.449 . S
C209 C208 1.399 . S
C209 H215 0.930 . S
H210 C190 0.931 . S
H211 C191 0.930 . S
H212 C199 0.931 . S
H213 C200 0.929 . S
H214 C208 0.929 . S
H215 C209 0.930 . S
Mn216 O221 2.095 . S
Mn216 O231 2.162 . S
Mn216 O232 2.297 . S
Mn216 O240 2.385 . S
Mn216 O241 2.209 . S
Mn216 O242 2.094 . S
Mn217 O222 2.121 . S
Mn217 N224 2.257 . S
Mn217 N233 2.282 . S
Mn217 O241 2.215 . S
Mn217 O243 2.117 . S
C218 O240 1.234 . S
C218 O241 1.283 . S
C219 O231 1.281 . S
C219 O232 1.236 . S
C220 O242 1.240 . S
C220 O243 1.264 . S
O221 Mn216 2.095 . S
O221 C230 1.250 . S
O222 Mn217 2.121 . S
O222 C230 1.258 . S
C223 N224 1.326 . S
C223 C227 1.460 . S
C223 H229 0.929 . S
N224 Mn217 2.257 . S
N224 C223 1.326 . S
N224 C228 1.362 . S
C225 C226 1.258 . S
C225 C228 1.431 . S
C225 C245 1.449 . S
C226 C225 1.258 . S
C226 C227 1.477 . S
C226 H246 0.931 . S
C227 C223 1.460 . S
C227 C226 1.477 . S
C227 H247 0.930 . S
C228 N224 1.362 . S
C228 C225 1.431 . S
C228 C238 1.476 . S
H229 C223 0.929 . S
C230 O221 1.250 . S
C230 O222 1.258 . S
O231 Mn216 2.162 . S
O231 C219 1.281 . S
O232 Mn216 2.297 . S
O232 C219 1.236 . S
N233 Mn217 2.282 . S
N233 C234 1.328 . S
N233 C238 1.318 . S
C234 N233 1.328 . S
C234 C235 1.457 . S
C234 H239 0.929 . S
C235 C234 1.457 . S
C235 C236 1.291 . S
C235 H248 0.931 . S
C236 C235 1.291 . S
C236 C237 1.373 . S
C236 H249 0.929 . S
C237 C236 1.373 . S
C237 C238 1.396 . S
C237 C244 1.403 . S
C238 C228 1.476 . S
C238 N233 1.318 . S
C238 C237 1.396 . S
H239 C234 0.929 . S
O240 Mn216 2.385 . S
O240 C218 1.234 . S
O241 Mn216 2.209 . S
O241 Mn217 2.215 . S
O241 C218 1.283 . S
O242 Mn216 2.094 . S
O242 C220 1.240 . S
O243 Mn217 2.117 . S
O243 C220 1.264 . S
C244 C237 1.403 . S
C244 C245 1.399 . S
C244 H250 0.929 . S
C245 C225 1.449 . S
C245 C244 1.399 . S
C245 H251 0.930 . S
H246 C226 0.931 . S
H247 C227 0.930 . S
H248 C235 0.931 . S
H249 C236 0.929 . S
H250 C244 0.929 . S
H251 C245 0.930 . S
Mn252 O257 2.095 . S
Mn252 O267 2.162 . S
Mn252 O268 2.297 . S
Mn252 O276 2.385 . S
Mn252 O277 2.209 . S
Mn252 O278 2.094 . S
Mn253 O258 2.121 . S
Mn253 N260 2.257 . S
Mn253 N269 2.282 . S
Mn253 O277 2.215 . S
Mn253 O279 2.117 . S
C254 O276 1.234 . S
C254 O277 1.283 . S
C255 O267 1.281 . S
C255 O268 1.236 . S
C256 O278 1.240 . S
C256 O279 1.264 . S
O257 Mn252 2.095 . S
O257 C266 1.250 . S
O258 Mn253 2.121 . S
O258 C266 1.258 . S
C259 N260 1.326 . S
C259 C263 1.460 . S
C259 H265 0.929 . S
N260 Mn253 2.257 . S
N260 C259 1.326 . S
N260 C264 1.362 . S
C261 C262 1.258 . S
C261 C264 1.431 . S
C261 C281 1.449 . S
C262 C261 1.258 . S
C262 C263 1.477 . S
C262 H282 0.931 . S
C263 C259 1.460 . S
C263 C262 1.477 . S
C263 H283 0.930 . S
C264 N260 1.362 . S
C264 C261 1.431 . S
C264 C274 1.476 . S
H265 C259 0.929 . S
C266 O257 1.250 . S
C266 O258 1.258 . S
O267 Mn252 2.162 . S
O267 C255 1.281 . S
O268 Mn252 2.297 . S
O268 C255 1.236 . S
N269 Mn253 2.282 . S
N269 C270 1.328 . S
N269 C274 1.318 . S
C270 N269 1.328 . S
C270 C271 1.457 . S
C270 H275 0.929 . S
C271 C270 1.457 . S
C271 C272 1.291 . S
C271 H284 0.931 . S
C272 C271 1.291 . S
C272 C273 1.373 . S
C272 H285 0.929 . S
C273 C272 1.373 . S
C273 C274 1.396 . S
C273 C280 1.403 . S
C274 C264 1.476 . S
C274 N269 1.318 . S
C274 C273 1.396 . S
H275 C270 0.929 . S
O276 Mn252 2.385 . S
O276 C254 1.234 . S
O277 Mn252 2.209 . S
O277 Mn253 2.215 . S
O277 C254 1.283 . S
O278 Mn252 2.094 . S
O278 C256 1.240 . S
O279 Mn253 2.117 . S
O279 C256 1.264 . S
C280 C273 1.403 . S
C280 C281 1.399 . S
C280 H286 0.929 . S
C281 C261 1.449 . S
C281 C280 1.399 . S
C281 H287 0.930 . S
H282 C262 0.931 . S
H283 C263 0.930 . S
H284 C271 0.931 . S
H285 C272 0.929 . S
H286 C280 0.929 . S
H287 C281 0.930 . S
Mn288 O293 2.095 . S
Mn288 O303 2.162 . S
Mn288 O304 2.297 . S
Mn288 O312 2.385 . S
Mn288 O313 2.209 . S
Mn288 O314 2.094 . S
Mn289 O294 2.121 . S
Mn289 N296 2.257 . S
Mn289 N305 2.282 . S
Mn289 O313 2.215 . S
Mn289 O315 2.117 . S
C290 O312 1.234 . S
C290 O313 1.283 . S
C291 O303 1.281 . S
C291 O304 1.236 . S
C292 O314 1.240 . S
C292 O315 1.264 . S
O293 Mn288 2.095 . S
O293 C302 1.250 . S
O294 Mn289 2.121 . S
O294 C302 1.258 . S
C295 N296 1.326 . S
C295 C299 1.460 . S
C295 H301 0.929 . S
N296 Mn289 2.257 . S
N296 C295 1.326 . S
N296 C300 1.362 . S
C297 C298 1.258 . S
C297 C300 1.431 . S
C297 C317 1.449 . S
C298 C297 1.258 . S
C298 C299 1.477 . S
C298 H318 0.931 . S
C299 C295 1.460 . S
C299 C298 1.477 . S
C299 H319 0.930 . S
C300 N296 1.362 . S
C300 C297 1.431 . S
C300 C310 1.476 . S
H301 C295 0.929 . S
C302 O293 1.250 . S
C302 O294 1.258 . S
O303 Mn288 2.162 . S
O303 C291 1.281 . S
O304 Mn288 2.297 . S
O304 C291 1.236 . S
N305 Mn289 2.282 . S
N305 C306 1.328 . S
N305 C310 1.318 . S
C306 N305 1.328 . S
C306 C307 1.457 . S
C306 H311 0.929 . S
C307 C306 1.457 . S
C307 C308 1.291 . S
C307 H320 0.931 . S
C308 C307 1.291 . S
C308 C309 1.373 . S
C308 H321 0.929 . S
C309 C308 1.373 . S
C309 C310 1.396 . S
C309 C316 1.403 . S
C310 C300 1.476 . S
C310 N305 1.318 . S
C310 C309 1.396 . S
H311 C306 0.929 . S
O312 Mn288 2.385 . S
O312 C290 1.234 . S
O313 Mn288 2.209 . S
O313 Mn289 2.215 . S
O313 C290 1.283 . S
O314 Mn288 2.094 . S
O314 C292 1.240 . S
O315 Mn289 2.117 . S
O315 C292 1.264 . S
C316 C309 1.403 . S
C316 C317 1.399 . S
C316 H322 0.929 . S
C317 C297 1.449 . S
C317 C316 1.399 . S
C317 H323 0.930 . S
H318 C298 0.931 . S
H319 C299 0.930 . S
H320 C307 0.931 . S
H321 C308 0.929 . S
H322 C316 0.929 . S
H323 C317 0.930 . S
Mn324 O329 2.095 . S
Mn324 O339 2.162 . S
Mn324 O340 2.297 . S
Mn324 O348 2.385 . S
Mn324 O349 2.209 . S
Mn324 O350 2.094 . S
Mn325 O330 2.121 . S
Mn325 N332 2.257 . S
Mn325 N341 2.282 . S
Mn325 O349 2.215 . S
Mn325 O351 2.117 . S
C326 O348 1.234 . S
C326 O349 1.283 . S
C327 O339 1.281 . S
C327 O340 1.236 . S
C328 O350 1.240 . S
C328 O351 1.264 . S
O329 Mn324 2.095 . S
O329 C338 1.250 . S
O330 Mn325 2.121 . S
O330 C338 1.258 . S
C331 N332 1.326 . S
C331 C335 1.460 . S
C331 H337 0.929 . S
N332 Mn325 2.257 . S
N332 C331 1.326 . S
N332 C336 1.362 . S
C333 C334 1.258 . S
C333 C336 1.431 . S
C333 C353 1.449 . S
C334 C333 1.258 . S
C334 C335 1.477 . S
C334 H354 0.931 . S
C335 C331 1.460 . S
C335 C334 1.477 . S
C335 H355 0.930 . S
C336 N332 1.362 . S
C336 C333 1.431 . S
C336 C346 1.476 . S
H337 C331 0.929 . S
C338 O329 1.250 . S
C338 O330 1.258 . S
O339 Mn324 2.162 . S
O339 C327 1.281 . S
O340 Mn324 2.297 . S
O340 C327 1.236 . S
N341 Mn325 2.282 . S
N341 C342 1.328 . S
N341 C346 1.318 . S
C342 N341 1.328 . S
C342 C343 1.457 . S
C342 H347 0.929 . S
C343 C342 1.457 . S
C343 C344 1.291 . S
C343 H356 0.931 . S
C344 C343 1.291 . S
C344 C345 1.373 . S
C344 H357 0.929 . S
C345 C344 1.373 . S
C345 C346 1.396 . S
C345 C352 1.403 . S
C346 C336 1.476 . S
C346 N341 1.318 . S
C346 C345 1.396 . S
H347 C342 0.929 . S
O348 Mn324 2.385 . S
O348 C326 1.234 . S
O349 Mn324 2.209 . S
O349 Mn325 2.215 . S
O349 C326 1.283 . S
O350 Mn324 2.094 . S
O350 C328 1.240 . S
O351 Mn325 2.117 . S
O351 C328 1.264 . S
C352 C345 1.403 . S
C352 C353 1.399 . S
C352 H358 0.929 . S
C353 C333 1.449 . S
C353 C352 1.399 . S
C353 H359 0.930 . S
H354 C334 0.931 . S
H355 C335 0.930 . S
H356 C343 0.931 . S
H357 C344 0.929 . S
H358 C352 0.929 . S
H359 C353 0.930 . S
Mn360 O365 2.095 . S
Mn360 O375 2.162 . S
Mn360 O376 2.297 . S
Mn360 O384 2.385 . S
Mn360 O385 2.209 . S
Mn360 O386 2.094 . S
Mn361 O366 2.121 . S
Mn361 N368 2.257 . S
Mn361 N377 2.282 . S
Mn361 O385 2.215 . S
Mn361 O387 2.117 . S
C362 O384 1.234 . S
C362 O385 1.283 . S
C363 O375 1.281 . S
C363 O376 1.236 . S
C364 O386 1.240 . S
C364 O387 1.264 . S
O365 Mn360 2.095 . S
O365 C374 1.250 . S
O366 Mn361 2.121 . S
O366 C374 1.258 . S
C367 N368 1.326 . S
C367 C371 1.460 . S
C367 H373 0.929 . S
N368 Mn361 2.257 . S
N368 C367 1.326 . S
N368 C372 1.362 . S
C369 C370 1.258 . S
C369 C372 1.431 . S
C369 C389 1.449 . S
C370 C369 1.258 . S
C370 C371 1.477 . S
C370 H390 0.931 . S
C371 C367 1.460 . S
C371 C370 1.477 . S
C371 H391 0.930 . S
C372 N368 1.362 . S
C372 C369 1.431 . S
C372 C382 1.476 . S
H373 C367 0.929 . S
C374 O365 1.250 . S
C374 O366 1.258 . S
O375 Mn360 2.162 . S
O375 C363 1.281 . S
O376 Mn360 2.297 . S
O376 C363 1.236 . S
N377 Mn361 2.282 . S
N377 C378 1.328 . S
N377 C382 1.318 . S
C378 N377 1.328 . S
C378 C379 1.457 . S
C378 H383 0.929 . S
C379 C378 1.457 . S
C379 C380 1.291 . S
C379 H392 0.931 . S
C380 C379 1.291 . S
C380 C381 1.373 . S
C380 H393 0.929 . S
C381 C380 1.373 . S
C381 C382 1.396 . S
C381 C388 1.403 . S
C382 C372 1.476 . S
C382 N377 1.318 . S
C382 C381 1.396 . S
H383 C378 0.929 . S
O384 Mn360 2.385 . S
O384 C362 1.234 . S
O385 Mn360 2.209 . S
O385 Mn361 2.215 . S
O385 C362 1.283 . S
O386 Mn360 2.094 . S
O386 C364 1.240 . S
O387 Mn361 2.117 . S
O387 C364 1.264 . S
C388 C381 1.403 . S
C388 C389 1.399 . S
C388 H394 0.929 . S
C389 C369 1.449 . S
C389 C388 1.399 . S
C389 H395 0.930 . S
H390 C370 0.931 . S
H391 C371 0.930 . S
H392 C379 0.931 . S
H393 C380 0.929 . S
H394 C388 0.929 . S
H395 C389 0.930 . S
Mn396 O401 2.095 . S
Mn396 O411 2.162 . S
Mn396 O412 2.297 . S
Mn396 O420 2.385 . S
Mn396 O421 2.209 . S
Mn396 O422 2.094 . S
Mn397 O402 2.121 . S
Mn397 N404 2.257 . S
Mn397 N413 2.282 . S
Mn397 O421 2.215 . S
Mn397 O423 2.117 . S
C398 O420 1.234 . S
C398 O421 1.283 . S
C399 O411 1.281 . S
C399 O412 1.236 . S
C400 O422 1.240 . S
C400 O423 1.264 . S
O401 Mn396 2.095 . S
O401 C410 1.250 . S
O402 Mn397 2.121 . S
O402 C410 1.258 . S
C403 N404 1.326 . S
C403 C407 1.460 . S
C403 H409 0.929 . S
N404 Mn397 2.257 . S
N404 C403 1.326 . S
N404 C408 1.362 . S
C405 C406 1.258 . S
C405 C408 1.431 . S
C405 C425 1.449 . S
C406 C405 1.258 . S
C406 C407 1.477 . S
C406 H426 0.931 . S
C407 C403 1.460 . S
C407 C406 1.477 . S
C407 H427 0.930 . S
C408 N404 1.362 . S
C408 C405 1.431 . S
C408 C418 1.476 . S
H409 C403 0.929 . S
C410 O401 1.250 . S
C410 O402 1.258 . S
O411 Mn396 2.162 . S
O411 C399 1.281 . S
O412 Mn396 2.297 . S
O412 C399 1.236 . S
N413 Mn397 2.282 . S
N413 C414 1.328 . S
N413 C418 1.318 . S
C414 N413 1.328 . S
C414 C415 1.457 . S
C414 H419 0.929 . S
C415 C414 1.457 . S
C415 C416 1.291 . S
C415 H428 0.931 . S
C416 C415 1.291 . S
C416 C417 1.373 . S
C416 H429 0.929 . S
C417 C416 1.373 . S
C417 C418 1.396 . S
C417 C424 1.403 . S
C418 C408 1.476 . S
C418 N413 1.318 . S
C418 C417 1.396 . S
H419 C414 0.929 . S
O420 Mn396 2.385 . S
O420 C398 1.234 . S
O421 Mn396 2.209 . S
O421 Mn397 2.215 . S
O421 C398 1.283 . S
O422 Mn396 2.094 . S
O422 C400 1.240 . S
O423 Mn397 2.117 . S
O423 C400 1.264 . S
C424 C417 1.403 . S
C424 C425 1.399 . S
C424 H430 0.929 . S
C425 C405 1.449 . S
C425 C424 1.399 . S
C425 H431 0.930 . S
H426 C406 0.931 . S
H427 C407 0.930 . S
H428 C415 0.931 . S
H429 C416 0.929 . S
H430 C424 0.929 . S
H431 C425 0.930 . S
Mn432 O437 2.095 . S
Mn432 O447 2.162 . S
Mn432 O448 2.297 . S
Mn432 O456 2.385 . S
Mn432 O457 2.209 . S
Mn432 O458 2.094 . S
Mn433 O438 2.121 . S
Mn433 N440 2.257 . S
Mn433 N449 2.282 . S
Mn433 O457 2.215 . S
Mn433 O459 2.117 . S
C434 O456 1.234 . S
C434 O457 1.283 . S
C435 O447 1.281 . S
C435 O448 1.236 . S
C436 O458 1.240 . S
C436 O459 1.264 . S
O437 Mn432 2.095 . S
O437 C446 1.250 . S
O438 Mn433 2.121 . S
O438 C446 1.258 . S
C439 N440 1.326 . S
C439 C443 1.460 . S
C439 H445 0.929 . S
N440 Mn433 2.257 . S
N440 C439 1.326 . S
N440 C444 1.362 . S
C441 C442 1.258 . S
C441 C444 1.431 . S
C441 C461 1.449 . S
C442 C441 1.258 . S
C442 C443 1.477 . S
C442 H462 0.931 . S
C443 C439 1.460 . S
C443 C442 1.477 . S
C443 H463 0.930 . S
C444 N440 1.362 . S
C444 C441 1.431 . S
C444 C454 1.476 . S
H445 C439 0.929 . S
C446 O437 1.250 . S
C446 O438 1.258 . S
O447 Mn432 2.162 . S
O447 C435 1.281 . S
O448 Mn432 2.297 . S
O448 C435 1.236 . S
N449 Mn433 2.282 . S
N449 C450 1.328 . S
N449 C454 1.318 . S
C450 N449 1.328 . S
C450 C451 1.457 . S
C450 H455 0.929 . S
C451 C450 1.457 . S
C451 C452 1.291 . S
C451 H464 0.931 . S
C452 C451 1.291 . S
C452 C453 1.373 . S
C452 H465 0.929 . S
C453 C452 1.373 . S
C453 C454 1.396 . S
C453 C460 1.403 . S
C454 C444 1.476 . S
C454 N449 1.318 . S
C454 C453 1.396 . S
H455 C450 0.929 . S
O456 Mn432 2.385 . S
O456 C434 1.234 . S
O457 Mn432 2.209 . S
O457 Mn433 2.215 . S
O457 C434 1.283 . S
O458 Mn432 2.094 . S
O458 C436 1.240 . S
O459 Mn433 2.117 . S
O459 C436 1.264 . S
C460 C453 1.403 . S
C460 C461 1.399 . S
C460 H466 0.929 . S
C461 C441 1.449 . S
C461 C460 1.399 . S
C461 H467 0.930 . S
H462 C442 0.931 . S
H463 C443 0.930 . S
H464 C451 0.931 . S
H465 C452 0.929 . S
H466 C460 0.929 . S
H467 C461 0.930 . S
Mn468 O473 2.095 . S
Mn468 O483 2.162 . S
Mn468 O484 2.297 . S
Mn468 O492 2.385 . S
Mn468 O493 2.209 . S
Mn468 O494 2.094 . S
Mn469 O474 2.121 . S
Mn469 N476 2.257 . S
Mn469 N485 2.282 . S
Mn469 O493 2.215 . S
Mn469 O495 2.117 . S
C470 O492 1.234 . S
C470 O493 1.283 . S
C471 O483 1.281 . S
C471 O484 1.236 . S
C472 O494 1.240 . S
C472 O495 1.264 . S
O473 Mn468 2.095 . S
O473 C482 1.250 . S
O474 Mn469 2.121 . S
O474 C482 1.258 . S
C475 N476 1.326 . S
C475 C479 1.460 . S
C475 H481 0.929 . S
N476 Mn469 2.257 . S
N476 C475 1.326 . S
N476 C480 1.362 . S
C477 C478 1.258 . S
C477 C480 1.431 . S
C477 C497 1.449 . S
C478 C477 1.258 . S
C478 C479 1.477 . S
C478 H498 0.931 . S
C479 C475 1.460 . S
C479 C478 1.477 . S
C479 H499 0.930 . S
C480 N476 1.362 . S
C480 C477 1.431 . S
C480 C490 1.476 . S
H481 C475 0.929 . S
C482 O473 1.250 . S
C482 O474 1.258 . S
O483 Mn468 2.162 . S
O483 C471 1.281 . S
O484 Mn468 2.297 . S
O484 C471 1.236 . S
N485 Mn469 2.282 . S
N485 C486 1.328 . S
N485 C490 1.318 . S
C486 N485 1.328 . S
C486 C487 1.457 . S
C486 H491 0.929 . S
C487 C486 1.457 . S
C487 C488 1.291 . S
C487 H500 0.931 . S
C488 C487 1.291 . S
C488 C489 1.373 . S
C488 H501 0.929 . S
C489 C488 1.373 . S
C489 C490 1.396 . S
C489 C496 1.403 . S
C490 C480 1.476 . S
C490 N485 1.318 . S
C490 C489 1.396 . S
H491 C486 0.929 . S
O492 Mn468 2.385 . S
O492 C470 1.234 . S
O493 Mn468 2.209 . S
O493 Mn469 2.215 . S
O493 C470 1.283 . S
O494 Mn468 2.094 . S
O494 C472 1.240 . S
O495 Mn469 2.117 . S
O495 C472 1.264 . S
C496 C489 1.403 . S
C496 C497 1.399 . S
C496 H502 0.929 . S
C497 C477 1.449 . S
C497 C496 1.399 . S
C497 H503 0.930 . S
H498 C478 0.931 . S
H499 C479 0.930 . S
H500 C487 0.931 . S
H501 C488 0.929 . S
H502 C496 0.929 . S
H503 C497 0.930 . S
Mn504 O509 2.095 . S
Mn504 O519 2.162 . S
Mn504 O520 2.297 . S
Mn504 O528 2.385 . S
Mn504 O529 2.209 . S
Mn504 O530 2.094 . S
Mn505 O510 2.121 . S
Mn505 N512 2.257 . S
Mn505 N521 2.282 . S
Mn505 O529 2.215 . S
Mn505 O531 2.117 . S
C506 O528 1.234 . S
C506 O529 1.283 . S
C507 O519 1.281 . S
C507 O520 1.236 . S
C508 O530 1.240 . S
C508 O531 1.264 . S
O509 Mn504 2.095 . S
O509 C518 1.250 . S
O510 Mn505 2.121 . S
O510 C518 1.258 . S
C511 N512 1.326 . S
C511 C515 1.460 . S
C511 H517 0.929 . S
N512 Mn505 2.257 . S
N512 C511 1.326 . S
N512 C516 1.362 . S
C513 C514 1.258 . S
C513 C516 1.431 . S
C513 C533 1.449 . S
C514 C513 1.258 . S
C514 C515 1.477 . S
C514 H534 0.931 . S
C515 C511 1.460 . S
C515 C514 1.477 . S
C515 H535 0.930 . S
C516 N512 1.362 . S
C516 C513 1.431 . S
C516 C526 1.476 . S
H517 C511 0.929 . S
C518 O509 1.250 . S
C518 O510 1.258 . S
O519 Mn504 2.162 . S
O519 C507 1.281 . S
O520 Mn504 2.297 . S
O520 C507 1.236 . S
N521 Mn505 2.282 . S
N521 C522 1.328 . S
N521 C526 1.318 . S
C522 N521 1.328 . S
C522 C523 1.457 . S
C522 H527 0.929 . S
C523 C522 1.457 . S
C523 C524 1.291 . S
C523 H536 0.931 . S
C524 C523 1.291 . S
C524 C525 1.373 . S
C524 H537 0.929 . S
C525 C524 1.373 . S
C525 C526 1.396 . S
C525 C532 1.403 . S
C526 C516 1.476 . S
C526 N521 1.318 . S
C526 C525 1.396 . S
H527 C522 0.929 . S
O528 Mn504 2.385 . S
O528 C506 1.234 . S
O529 Mn504 2.209 . S
O529 Mn505 2.215 . S
O529 C506 1.283 . S
O530 Mn504 2.094 . S
O530 C508 1.240 . S
O531 Mn505 2.117 . S
O531 C508 1.264 . S
C532 C525 1.403 . S
C532 C533 1.399 . S
C532 H538 0.929 . S
C533 C513 1.449 . S
C533 C532 1.399 . S
C533 H539 0.930 . S
H534 C514 0.931 . S
H535 C515 0.930 . S
H536 C523 0.931 . S
H537 C524 0.929 . S
H538 C532 0.929 . S
H539 C533 0.930 . S
Mn540 O545 2.095 . S
Mn540 O555 2.162 . S
Mn540 O556 2.297 . S
Mn540 O564 2.385 . S
Mn540 O565 2.209 . S
Mn540 O566 2.094 . S
Mn541 O546 2.121 . S
Mn541 N548 2.257 . S
Mn541 N557 2.282 . S
Mn541 O565 2.215 . S
Mn541 O567 2.117 . S
C542 O564 1.234 . S
C542 O565 1.283 . S
C543 O555 1.281 . S
C543 O556 1.236 . S
C544 O566 1.240 . S
C544 O567 1.264 . S
O545 Mn540 2.095 . S
O545 C554 1.250 . S
O546 Mn541 2.121 . S
O546 C554 1.258 . S
C547 N548 1.326 . S
C547 C551 1.460 . S
C547 H553 0.929 . S
N548 Mn541 2.257 . S
N548 C547 1.326 . S
N548 C552 1.362 . S
C549 C550 1.258 . S
C549 C552 1.431 . S
C549 C569 1.449 . S
C550 C549 1.258 . S
C550 C551 1.477 . S
C550 H570 0.931 . S
C551 C547 1.460 . S
C551 C550 1.477 . S
C551 H571 0.930 . S
C552 N548 1.362 . S
C552 C549 1.431 . S
C552 C562 1.476 . S
H553 C547 0.929 . S
C554 O545 1.250 . S
C554 O546 1.258 . S
O555 Mn540 2.162 . S
O555 C543 1.281 . S
O556 Mn540 2.297 . S
O556 C543 1.236 . S
N557 Mn541 2.282 . S
N557 C558 1.328 . S
N557 C562 1.318 . S
C558 N557 1.328 . S
C558 C559 1.457 . S
C558 H563 0.929 . S
C559 C558 1.457 . S
C559 C560 1.291 . S
C559 H572 0.931 . S
C560 C559 1.291 . S
C560 C561 1.373 . S
C560 H573 0.929 . S
C561 C560 1.373 . S
C561 C562 1.396 . S
C561 C568 1.403 . S
C562 C552 1.476 . S
C562 N557 1.318 . S
C562 C561 1.396 . S
H563 C558 0.929 . S
O564 Mn540 2.385 . S
O564 C542 1.234 . S
O565 Mn540 2.209 . S
O565 Mn541 2.215 . S
O565 C542 1.283 . S
O566 Mn540 2.094 . S
O566 C544 1.240 . S
O567 Mn541 2.117 . S
O567 C544 1.264 . S
C568 C561 1.403 . S
C568 C569 1.399 . S
C568 H574 0.929 . S
C569 C549 1.449 . S
C569 C568 1.399 . S
C569 H575 0.930 . S
H570 C550 0.931 . S
H571 C551 0.930 . S
H572 C559 0.931 . S
H573 C560 0.929 . S
H574 C568 0.929 . S
H575 C569 0.930 . S
H576 C584 0.950 . S
H577 C589 0.950 . S
H578 C586 0.950 . S
H579 C588 0.950 . S
H580 C590 0.950 . S
H581 C592 0.950 . S
H582 C594 0.950 . S
H583 C595 0.950 . S
C584 H576 0.950 . S
C584 C585 1.386 . S
C584 C586 1.391 . S
C585 C584 1.386 . S
C585 C589 1.393 . S
C586 H578 0.950 . S
C586 C584 1.391 . S
C586 C587 1.400 . S
C587 C586 1.400 . S
C587 C588 1.398 . S
C587 C593 1.491 . S
C588 H579 0.950 . S
C588 C587 1.398 . S
C588 C589 1.391 . S
C589 H577 0.950 . S
C589 C585 1.393 . S
C589 C588 1.391 . S
C590 H580 0.950 . S
C590 C591 1.386 . S
C590 C592 1.391 . S
C591 C590 1.386 . S
C591 C595 1.393 . S
C592 H581 0.950 . S
C592 C590 1.391 . S
C592 C593 1.400 . S
C593 C587 1.491 . S
C593 C592 1.400 . S
C593 C594 1.398 . S
C594 H582 0.950 . S
C594 C593 1.398 . S
C594 C595 1.391 . S
C595 H583 0.950 . S
C595 C591 1.393 . S
C595 C594 1.391 . S
H596 C604 0.950 . S
H597 C609 0.950 . S
H598 C606 0.950 . S
H599 C608 0.950 . S
H600 C610 0.950 . S
H601 C612 0.950 . S
H602 C614 0.950 . S
H603 C615 0.950 . S
C604 H596 0.950 . S
C604 C605 1.386 . S
C604 C606 1.391 . S
C605 C604 1.386 . S
C605 C609 1.393 . S
C606 H598 0.950 . S
C606 C604 1.391 . S
C606 C607 1.400 . S
C607 C606 1.400 . S
C607 C608 1.398 . S
C607 C613 1.491 . S
C608 H599 0.950 . S
C608 C607 1.398 . S
C608 C609 1.391 . S
C609 H597 0.950 . S
C609 C605 1.393 . S
C609 C608 1.391 . S
C610 H600 0.950 . S
C610 C611 1.386 . S
C610 C612 1.391 . S
C611 C610 1.386 . S
C611 C615 1.393 . S
C612 H601 0.950 . S
C612 C610 1.391 . S
C612 C613 1.400 . S
C613 C607 1.491 . S
C613 C612 1.400 . S
C613 C614 1.398 . S
C614 H602 0.950 . S
C614 C613 1.398 . S
C614 C615 1.391 . S
C615 H603 0.950 . S
C615 C611 1.393 . S
C615 C614 1.391 . S
H616 C624 0.950 . S
H617 C629 0.950 . S
H618 C626 0.950 . S
H619 C628 0.950 . S
H620 C630 0.950 . S
H621 C632 0.950 . S
H622 C634 0.950 . S
H623 C635 0.950 . S
C624 H616 0.950 . S
C624 C625 1.386 . S
C624 C626 1.391 . S
C625 C624 1.386 . S
C625 C629 1.393 . S
C626 H618 0.950 . S
C626 C624 1.391 . S
C626 C627 1.400 . S
C627 C626 1.400 . S
C627 C628 1.398 . S
C627 C633 1.491 . S
C628 H619 0.950 . S
C628 C627 1.398 . S
C628 C629 1.391 . S
C629 H617 0.950 . S
C629 C625 1.393 . S
C629 C628 1.391 . S
C630 H620 0.950 . S
C630 C631 1.386 . S
C630 C632 1.391 . S
C631 C630 1.386 . S
C631 C635 1.393 . S
C632 H621 0.950 . S
C632 C630 1.391 . S
C632 C633 1.400 . S
C633 C627 1.491 . S
C633 C632 1.400 . S
C633 C634 1.398 . S
C634 H622 0.950 . S
C634 C633 1.398 . S
C634 C635 1.391 . S
C635 H623 0.950 . S
C635 C631 1.393 . S
C635 C634 1.391 . S
H636 C644 0.950 . S
H637 C649 0.950 . S
H638 C646 0.950 . S
H639 C648 0.950 . S
H640 C650 0.950 . S
H641 C652 0.950 . S
H642 C654 0.950 . S
H643 C655 0.950 . S
C644 H636 0.950 . S
C644 C645 1.386 . S
C644 C646 1.391 . S
C645 C644 1.386 . S
C645 C649 1.393 . S
C646 H638 0.950 . S
C646 C644 1.391 . S
C646 C647 1.400 . S
C647 C646 1.400 . S
C647 C648 1.398 . S
C647 C653 1.491 . S
C648 H639 0.950 . S
C648 C647 1.398 . S
C648 C649 1.391 . S
C649 H637 0.950 . S
C649 C645 1.393 . S
C649 C648 1.391 . S
C650 H640 0.950 . S
C650 C651 1.386 . S
C650 C652 1.391 . S
C651 C650 1.386 . S
C651 C655 1.393 . S
C652 H641 0.950 . S
C652 C650 1.391 . S
C652 C653 1.400 . S
C653 C647 1.491 . S
C653 C652 1.400 . S
C653 C654 1.398 . S
C654 H642 0.950 . S
C654 C653 1.398 . S
C654 C655 1.391 . S
C655 H643 0.950 . S
C655 C651 1.393 . S
C655 C654 1.391 . S
H656 C664 0.950 . S
H657 C669 0.950 . S
H658 C666 0.950 . S
H659 C668 0.950 . S
H660 C670 0.950 . S
H661 C672 0.950 . S
H662 C674 0.950 . S
H663 C675 0.950 . S
C664 H656 0.950 . S
C664 C665 1.386 . S
C664 C666 1.391 . S
C665 C664 1.386 . S
C665 C669 1.393 . S
C666 H658 0.950 . S
C666 C664 1.391 . S
C666 C667 1.400 . S
C667 C666 1.400 . S
C667 C668 1.398 . S
C667 C673 1.491 . S
C668 H659 0.950 . S
C668 C667 1.398 . S
C668 C669 1.391 . S
C669 H657 0.950 . S
C669 C665 1.393 . S
C669 C668 1.391 . S
C670 H660 0.950 . S
C670 C671 1.386 . S
C670 C672 1.391 . S
C671 C670 1.386 . S
C671 C675 1.393 . S
C672 H661 0.950 . S
C672 C670 1.391 . S
C672 C673 1.400 . S
C673 C667 1.491 . S
C673 C672 1.400 . S
C673 C674 1.398 . S
C674 H662 0.950 . S
C674 C673 1.398 . S
C674 C675 1.391 . S
C675 H663 0.950 . S
C675 C671 1.393 . S
C675 C674 1.391 . S
H676 C684 0.950 . S
H677 C689 0.950 . S
H678 C686 0.950 . S
H679 C688 0.950 . S
H680 C690 0.950 . S
H681 C692 0.950 . S
H682 C694 0.950 . S
H683 C695 0.950 . S
C684 H676 0.950 . S
C684 C685 1.386 . S
C684 C686 1.391 . S
C685 C684 1.386 . S
C685 C689 1.393 . S
C686 H678 0.950 . S
C686 C684 1.391 . S
C686 C687 1.400 . S
C687 C686 1.400 . S
C687 C688 1.398 . S
C687 C693 1.491 . S
C688 H679 0.950 . S
C688 C687 1.398 . S
C688 C689 1.391 . S
C689 H677 0.950 . S
C689 C685 1.393 . S
C689 C688 1.391 . S
C690 H680 0.950 . S
C690 C691 1.386 . S
C690 C692 1.391 . S
C691 C690 1.386 . S
C691 C695 1.393 . S
C692 H681 0.950 . S
C692 C690 1.391 . S
C692 C693 1.400 . S
C693 C687 1.491 . S
C693 C692 1.400 . S
C693 C694 1.398 . S
C694 H682 0.950 . S
C694 C693 1.398 . S
C694 C695 1.391 . S
C695 H683 0.950 . S
C695 C691 1.393 . S
C695 C694 1.391 . S
H696 C704 0.950 . S
H697 C709 0.950 . S
H698 C706 0.950 . S
H699 C708 0.950 . S
H700 C710 0.950 . S
H701 C712 0.950 . S
H702 C714 0.950 . S
H703 C715 0.950 . S
C704 H696 0.950 . S
C704 C705 1.386 . S
C704 C706 1.391 . S
C705 C704 1.386 . S
C705 C709 1.393 . S
C706 H698 0.950 . S
C706 C704 1.391 . S
C706 C707 1.400 . S
C707 C706 1.400 . S
C707 C708 1.398 . S
C707 C713 1.491 . S
C708 H699 0.950 . S
C708 C707 1.398 . S
C708 C709 1.391 . S
C709 H697 0.950 . S
C709 C705 1.393 . S
C709 C708 1.391 . S
C710 H700 0.950 . S
C710 C711 1.386 . S
C710 C712 1.391 . S
C711 C710 1.386 . S
C711 C715 1.393 . S
C712 H701 0.950 . S
C712 C710 1.391 . S
C712 C713 1.400 . S
C713 C707 1.491 . S
C713 C712 1.400 . S
C713 C714 1.398 . S
C714 H702 0.950 . S
C714 C713 1.398 . S
C714 C715 1.391 . S
C715 H703 0.950 . S
C715 C711 1.393 . S
C715 C714 1.391 . S
H716 C724 0.950 . S
H717 C729 0.950 . S
H718 C726 0.950 . S
H719 C728 0.950 . S
H720 C730 0.950 . S
H721 C732 0.950 . S
H722 C734 0.950 . S
H723 C735 0.950 . S
C724 H716 0.950 . S
C724 C725 1.386 . S
C724 C726 1.391 . S
C725 C724 1.386 . S
C725 C729 1.393 . S
C726 H718 0.950 . S
C726 C724 1.391 . S
C726 C727 1.400 . S
C727 C726 1.400 . S
C727 C728 1.398 . S
C727 C733 1.491 . S
C728 H719 0.950 . S
C728 C727 1.398 . S
C728 C729 1.391 . S
C729 H717 0.950 . S
C729 C725 1.393 . S
C729 C728 1.391 . S
C730 H720 0.950 . S
C730 C731 1.386 . S
C730 C732 1.391 . S
C731 C730 1.386 . S
C731 C735 1.393 . S
C732 H721 0.950 . S
C732 C730 1.391 . S
C732 C733 1.400 . S
C733 C727 1.491 . S
C733 C732 1.400 . S
C733 C734 1.398 . S
C734 H722 0.950 . S
C734 C733 1.398 . S
C734 C735 1.391 . S
C735 H723 0.950 . S
C735 C731 1.393 . S
C735 C734 1.391 . S
H736 C744 0.950 . S
H737 C749 0.950 . S
H738 C746 0.950 . S
H739 C748 0.950 . S
H740 C750 0.950 . S
H741 C752 0.950 . S
H742 C754 0.950 . S
H743 C755 0.950 . S
C744 H736 0.950 . S
C744 C745 1.386 . S
C744 C746 1.391 . S
C745 C744 1.386 . S
C745 C749 1.393 . S
C746 H738 0.950 . S
C746 C744 1.391 . S
C746 C747 1.400 . S
C747 C746 1.400 . S
C747 C748 1.398 . S
C747 C753 1.491 1_556 S
C748 H739 0.950 . S
C748 C747 1.398 . S
C748 C749 1.391 . S
C749 H737 0.950 . S
C749 C745 1.393 . S
C749 C748 1.391 . S
C750 H740 0.950 . S
C750 C751 1.386 . S
C750 C752 1.391 . S
C751 C750 1.386 . S
C751 C755 1.393 . S
C752 H741 0.950 . S
C752 C750 1.391 . S
C752 C753 1.400 . S
C753 C747 1.491 1_554 S
C753 C752 1.400 . S
C753 C754 1.398 . S
C754 H742 0.950 . S
C754 C753 1.398 . S
C754 C755 1.391 . S
C755 H743 0.950 . S
C755 C751 1.393 . S
C755 C754 1.391 . S
H756 C764 0.950 . S
H757 C769 0.950 . S
H758 C766 0.950 . S
H759 C768 0.950 . S
H760 C770 0.950 . S
H761 C772 0.950 . S
H762 C774 0.950 . S
H763 C775 0.950 . S
C764 H756 0.950 . S
C764 C765 1.386 . S
C764 C766 1.391 . S
C765 C764 1.386 . S
C765 C769 1.393 . S
C766 H758 0.950 . S
C766 C764 1.391 . S
C766 C767 1.400 . S
C767 C766 1.400 . S
C767 C768 1.398 . S
C767 C773 1.491 1_556 S
C768 H759 0.950 . S
C768 C767 1.398 . S
C768 C769 1.391 . S
C769 H757 0.950 . S
C769 C765 1.393 . S
C769 C768 1.391 . S
C770 H760 0.950 . S
C770 C771 1.386 . S
C770 C772 1.391 . S
C771 C770 1.386 . S
C771 C775 1.393 . S
C772 H761 0.950 . S
C772 C770 1.391 . S
C772 C773 1.400 . S
C773 C767 1.491 1_554 S
C773 C772 1.400 . S
C773 C774 1.398 . S
C774 H762 0.950 . S
C774 C773 1.398 . S
C774 C775 1.391 . S
C775 H763 0.950 . S
C775 C771 1.393 . S
C775 C774 1.391 . S
H776 C784 0.950 . S
H777 C789 0.950 . S
H778 C786 0.950 . S
H779 C788 0.950 . S
H780 C790 0.950 . S
H781 C792 0.950 . S
H782 C794 0.950 . S
H783 C795 0.950 . S
C784 H776 0.950 . S
C784 C785 1.386 . S
C784 C786 1.391 . S
C785 C784 1.386 . S
C785 C789 1.393 . S
C786 H778 0.950 . S
C786 C784 1.391 . S
C786 C787 1.400 . S
C787 C786 1.400 . S
C787 C788 1.398 . S
C787 C793 1.491 1_556 S
C788 H779 0.950 . S
C788 C787 1.398 . S
C788 C789 1.391 . S
C789 H777 0.950 . S
C789 C785 1.393 . S
C789 C788 1.391 . S
C790 H780 0.950 . S
C790 C791 1.386 . S
C790 C792 1.391 . S
C791 C790 1.386 . S
C791 C795 1.393 . S
C792 H781 0.950 . S
C792 C790 1.391 . S
C792 C793 1.400 . S
C793 C787 1.491 1_554 S
C793 C792 1.400 . S
C793 C794 1.398 . S
C794 H782 0.950 . S
C794 C793 1.398 . S
C794 C795 1.391 . S
C795 H783 0.950 . S
C795 C791 1.393 . S
C795 C794 1.391 . S
H796 C804 0.950 . S
H797 C809 0.950 . S
H798 C806 0.950 . S
H799 C808 0.950 . S
H800 C810 0.950 . S
H801 C812 0.950 . S
H802 C814 0.950 . S
H803 C815 0.950 . S
C804 H796 0.950 . S
C804 C805 1.386 . S
C804 C806 1.391 . S
C805 C804 1.386 . S
C805 C809 1.393 . S
C806 H798 0.950 . S
C806 C804 1.391 . S
C806 C807 1.400 . S
C807 C806 1.400 . S
C807 C808 1.398 . S
C807 C813 1.491 1_554 S
C808 H799 0.950 . S
C808 C807 1.398 . S
C808 C809 1.391 . S
C809 H797 0.950 . S
C809 C805 1.393 . S
C809 C808 1.391 . S
C810 H800 0.950 . S
C810 C811 1.386 . S
C810 C812 1.391 . S
C811 C810 1.386 . S
C811 C815 1.393 . S
C812 H801 0.950 . S
C812 C810 1.391 . S
C812 C813 1.400 . S
C813 C807 1.491 1_556 S
C813 C812 1.400 . S
C813 C814 1.398 . S
C814 H802 0.950 . S
C814 C813 1.398 . S
C814 C815 1.391 . S
C815 H803 0.950 . S
C815 C811 1.393 . S
C815 C814 1.391 . S
H816 C824 0.950 . S
H817 C829 0.950 . S
H818 C826 0.950 . S
H819 C828 0.950 . S
H820 C830 0.950 . S
H821 C832 0.950 . S
H822 C834 0.950 . S
H823 C835 0.950 . S
C824 H816 0.950 . S
C824 C825 1.386 . S
C824 C826 1.391 . S
C825 C824 1.386 . S
C825 C829 1.393 . S
C826 H818 0.950 . S
C826 C824 1.391 . S
C826 C827 1.400 . S
C827 C826 1.400 . S
C827 C828 1.398 . S
C827 C833 1.491 1_455 S
C828 H819 0.950 . S
C828 C827 1.398 . S
C828 C829 1.391 . S
C829 H817 0.950 . S
C829 C825 1.393 . S
C829 C828 1.391 . S
C830 H820 0.950 . S
C830 C831 1.386 . S
C830 C832 1.391 . S
C831 C830 1.386 . S
C831 C835 1.393 . S
C832 H821 0.950 . S
C832 C830 1.391 . S
C832 C833 1.400 . S
C833 C827 1.491 1_655 S
C833 C832 1.400 . S
C833 C834 1.398 . S
C834 H822 0.950 . S
C834 C833 1.398 . S
C834 C835 1.391 . S
C835 H823 0.950 . S
C835 C831 1.393 . S
C835 C834 1.391 . S
H836 C844 0.950 . S
H837 C849 0.950 . S
H838 C846 0.950 . S
H839 C848 0.950 . S
H840 C850 0.950 . S
H841 C852 0.950 . S
H842 C854 0.950 . S
H843 C855 0.950 . S
C844 H836 0.950 . S
C844 C845 1.386 . S
C844 C846 1.391 . S
C845 C844 1.386 . S
C845 C849 1.393 . S
C846 H838 0.950 . S
C846 C844 1.391 . S
C846 C847 1.400 . S
C847 C846 1.400 . S
C847 C848 1.398 . S
C847 C853 1.491 1_565 S
C848 H839 0.950 . S
C848 C847 1.398 . S
C848 C849 1.391 . S
C849 H837 0.950 . S
C849 C845 1.393 . S
C849 C848 1.391 . S
C850 H840 0.950 . S
C850 C851 1.386 . S
C850 C852 1.391 . S
C851 C850 1.386 . S
C851 C855 1.393 . S
C852 H841 0.950 . S
C852 C850 1.391 . S
C852 C853 1.400 . S
C853 C847 1.491 1_545 S
C853 C852 1.400 . S
C853 C854 1.398 . S
C854 H842 0.950 . S
C854 C853 1.398 . S
C854 C855 1.391 . S
C855 H843 0.950 . S
C855 C851 1.393 . S
C855 C854 1.391 . S
H856 C864 0.950 . S
H857 C869 0.950 . S
H858 C866 0.950 . S
H859 C868 0.950 . S
H860 C870 0.950 . S
H861 C872 0.950 . S
H862 C874 0.950 . S
H863 C875 0.950 . S
C864 H856 0.950 . S
C864 C865 1.386 . S
C864 C866 1.391 . S
C865 C864 1.386 . S
C865 C869 1.393 . S
C866 H858 0.950 . S
C866 C864 1.391 . S
C866 C867 1.400 . S
C867 C866 1.400 . S
C867 C868 1.398 . S
C867 C873 1.491 1_655 S
C868 H859 0.950 . S
C868 C867 1.398 . S
C868 C869 1.391 . S
C869 H857 0.950 . S
C869 C865 1.393 . S
C869 C868 1.391 . S
C870 H860 0.950 . S
C870 C871 1.386 . S
C870 C872 1.391 . S
C871 C870 1.386 . S
C871 C875 1.393 . S
C872 H861 0.950 . S
C872 C870 1.391 . S
C872 C873 1.400 . S
C873 C867 1.491 1_455 S
C873 C872 1.400 . S
C873 C874 1.398 . S
C874 H862 0.950 . S
C874 C873 1.398 . S
C874 C875 1.391 . S
C875 H863 0.950 . S
C875 C871 1.393 . S
C875 C874 1.391 . S
H876 C884 0.950 . S
H877 C889 0.950 . S
H878 C886 0.950 . S
H879 C888 0.950 . S
H880 C890 0.950 . S
H881 C892 0.950 . S
H882 C894 0.950 . S
H883 C895 0.950 . S
C884 H876 0.950 . S
C884 C885 1.386 . S
C884 C886 1.391 . S
C885 C884 1.386 . S
C885 C889 1.393 . S
C886 H878 0.950 . S
C886 C884 1.391 . S
C886 C887 1.400 . S
C887 C886 1.400 . S
C887 C888 1.398 . S
C887 C893 1.491 1_545 S
C888 H879 0.950 . S
C888 C887 1.398 . S
C888 C889 1.391 . S
C889 H877 0.950 . S
C889 C885 1.393 . S
C889 C888 1.391 . S
C890 H880 0.950 . S
C890 C891 1.386 . S
C890 C892 1.391 . S
C891 C890 1.386 . S
C891 C895 1.393 . S
C892 H881 0.950 . S
C892 C890 1.391 . S
C892 C893 1.400 . S
C893 C887 1.491 1_565 S
C893 C892 1.400 . S
C893 C894 1.398 . S
C894 H882 0.950 . S
C894 C893 1.398 . S
C894 C895 1.391 . S
C895 H883 0.950 . S
C895 C891 1.393 . S
C895 C894 1.391 . S
H896 C904 0.950 . S
H897 C909 0.950 . S
H898 C906 0.950 . S
H899 C908 0.950 . S
H900 C910 0.950 . S
H901 C912 0.950 . S
H902 C914 0.950 . S
H903 C915 0.950 . S
C904 H896 0.950 . S
C904 C905 1.386 . S
C904 C906 1.391 . S
C905 C904 1.386 . S
C905 C909 1.393 . S
C906 H898 0.950 . S
C906 C904 1.391 . S
C906 C907 1.400 . S
C907 C906 1.400 . S
C907 C908 1.398 . S
C907 C913 1.491 1_655 S
C908 H899 0.950 . S
C908 C907 1.398 . S
C908 C909 1.391 . S
C909 H897 0.950 . S
C909 C905 1.393 . S
C909 C908 1.391 . S
C910 H900 0.950 . S
C910 C911 1.386 . S
C910 C912 1.391 . S
C911 C910 1.386 . S
C911 C915 1.393 . S
C912 H901 0.950 . S
C912 C910 1.391 . S
C912 C913 1.400 . S
C913 C907 1.491 1_455 S
C913 C912 1.400 . S
C913 C914 1.398 . S
C914 H902 0.950 . S
C914 C913 1.398 . S
C914 C915 1.391 . S
C915 H903 0.950 . S
C915 C911 1.393 . S
C915 C914 1.391 . S
H916 C924 0.950 . S
H917 C929 0.950 . S
H918 C926 0.950 . S
H919 C928 0.950 . S
H920 C930 0.950 . S
H921 C932 0.950 . S
H922 C934 0.950 . S
H923 C935 0.950 . S
C924 H916 0.950 . S
C924 C925 1.386 . S
C924 C926 1.391 . S
C925 C924 1.386 . S
C925 C929 1.393 . S
C926 H918 0.950 . S
C926 C924 1.391 . S
C926 C927 1.400 . S
C927 C926 1.400 . S
C927 C928 1.398 . S
C927 C933 1.491 1_565 S
C928 H919 0.950 . S
C928 C927 1.398 . S
C928 C929 1.391 . S
C929 H917 0.950 . S
C929 C925 1.393 . S
C929 C928 1.391 . S
C930 H920 0.950 . S
C930 C931 1.386 . S
C930 C932 1.391 . S
C931 C930 1.386 . S
C931 C935 1.393 . S
C932 H921 0.950 . S
C932 C930 1.391 . S
C932 C933 1.400 . S
C933 C927 1.491 1_545 S
C933 C932 1.400 . S
C933 C934 1.398 . S
C934 H922 0.950 . S
C934 C933 1.398 . S
C934 C935 1.391 . S
C935 H923 0.950 . S
C935 C931 1.393 . S
C935 C934 1.391 . S
H936 C944 0.950 . S
H937 C949 0.950 . S
H938 C946 0.950 . S
H939 C948 0.950 . S
H940 C950 0.950 . S
H941 C952 0.950 . S
H942 C954 0.950 . S
H943 C955 0.950 . S
C944 H936 0.950 . S
C944 C945 1.386 . S
C944 C946 1.391 . S
C945 C944 1.386 . S
C945 C949 1.393 . S
C946 H938 0.950 . S
C946 C944 1.391 . S
C946 C947 1.400 . S
C947 C946 1.400 . S
C947 C948 1.398 . S
C947 C953 1.491 1_455 S
C948 H939 0.950 . S
C948 C947 1.398 . S
C948 C949 1.391 . S
C949 H937 0.950 . S
C949 C945 1.393 . S
C949 C948 1.391 . S
C950 H940 0.950 . S
C950 C951 1.386 . S
C950 C952 1.391 . S
C951 C950 1.386 . S
C951 C955 1.393 . S
C952 H941 0.950 . S
C952 C950 1.391 . S
C952 C953 1.400 . S
C953 C947 1.491 1_655 S
C953 C952 1.400 . S
C953 C954 1.398 . S
C954 H942 0.950 . S
C954 C953 1.398 . S
C954 C955 1.391 . S
C955 H943 0.950 . S
C955 C951 1.393 . S
C955 C954 1.391 . S
H956 C964 0.950 . S
H957 C969 0.950 . S
H958 C966 0.950 . S
H959 C968 0.950 . S
H960 C970 0.950 . S
H961 C972 0.950 . S
H962 C974 0.950 . S
H963 C975 0.950 . S
C964 H956 0.950 . S
C964 C965 1.386 . S
C964 C966 1.391 . S
C965 C964 1.386 . S
C965 C969 1.393 . S
C966 H958 0.950 . S
C966 C964 1.391 . S
C966 C967 1.400 . S
C967 C966 1.400 . S
C967 C968 1.398 . S
C967 C973 1.491 1_565 S
C968 H959 0.950 . S
C968 C967 1.398 . S
C968 C969 1.391 . S
C969 H957 0.950 . S
C969 C965 1.393 . S
C969 C968 1.391 . S
C970 H960 0.950 . S
C970 C971 1.386 . S
C970 C972 1.391 . S
C971 C970 1.386 . S
C971 C975 1.393 . S
C972 H961 0.950 . S
C972 C970 1.391 . S
C972 C973 1.400 . S
C973 C967 1.491 1_545 S
C973 C972 1.400 . S
C973 C974 1.398 . S
C974 H962 0.950 . S
C974 C973 1.398 . S
C974 C975 1.391 . S
C975 H963 0.950 . S
C975 C971 1.393 . S
C975 C974 1.391 . S
H976 C984 0.950 . S
H977 C989 0.950 . S
H978 C986 0.950 . S
H979 C988 0.950 . S
H980 C990 0.950 . S
H981 C992 0.950 . S
H982 C994 0.950 . S
H983 C995 0.950 . S
C984 H976 0.950 . S
C984 C985 1.386 . S
C984 C986 1.391 . S
C985 C984 1.386 . S
C985 C989 1.393 . S
C986 H978 0.950 . S
C986 C984 1.391 . S
C986 C987 1.400 . S
C987 C986 1.400 . S
C987 C988 1.398 . S
C987 C993 1.491 . S
C988 H979 0.950 . S
C988 C987 1.398 . S
C988 C989 1.391 . S
C989 H977 0.950 . S
C989 C985 1.393 . S
C989 C988 1.391 . S
C990 H980 0.950 . S
C990 C991 1.386 . S
C990 C992 1.391 . S
C991 C990 1.386 . S
C991 C995 1.393 . S
C992 H981 0.950 . S
C992 C990 1.391 . S
C992 C993 1.400 . S
C993 C987 1.491 . S
C993 C992 1.400 . S
C993 C994 1.398 . S
C994 H982 0.950 . S
C994 C993 1.398 . S
C994 C995 1.391 . S
C995 H983 0.950 . S
C995 C991 1.393 . S
C995 C994 1.391 . S
H996 C1004 0.950 . S
H997 C1009 0.950 . S
H998 C1006 0.950 . S
H999 C1008 0.950 . S
H1000 C1010 0.950 . S
H1001 C1012 0.950 . S
H1002 C1014 0.950 . S
H1003 C1015 0.950 . S
C1004 H996 0.950 . S
C1004 C1005 1.386 . S
C1004 C1006 1.391 . S
C1005 C1004 1.386 . S
C1005 C1009 1.393 . S
C1006 H998 0.950 . S
C1006 C1004 1.391 . S
C1006 C1007 1.400 . S
C1007 C1006 1.400 . S
C1007 C1008 1.398 . S
C1007 C1013 1.491 . S
C1008 H999 0.950 . S
C1008 C1007 1.398 . S
C1008 C1009 1.391 . S
C1009 H997 0.950 . S
C1009 C1005 1.393 . S
C1009 C1008 1.391 . S
C1010 H1000 0.950 . S
C1010 C1011 1.386 . S
C1010 C1012 1.391 . S
C1011 C1010 1.386 . S
C1011 C1015 1.393 . S
C1012 H1001 0.950 . S
C1012 C1010 1.391 . S
C1012 C1013 1.400 . S
C1013 C1007 1.491 . S
C1013 C1012 1.400 . S
C1013 C1014 1.398 . S
C1014 H1002 0.950 . S
C1014 C1013 1.398 . S
C1014 C1015 1.391 . S
C1015 H1003 0.950 . S
C1015 C1011 1.393 . S
C1015 C1014 1.391 . S
H1016 C1024 0.950 . S
H1017 C1029 0.950 . S
H1018 C1026 0.950 . S
H1019 C1028 0.950 . S
H1020 C1030 0.950 . S
H1021 C1032 0.950 . S
H1022 C1034 0.950 . S
H1023 C1035 0.950 . S
C1024 H1016 0.950 . S
C1024 C1025 1.386 . S
C1024 C1026 1.391 . S
C1025 C1024 1.386 . S
C1025 C1029 1.393 . S
C1026 H1018 0.950 . S
C1026 C1024 1.391 . S
C1026 C1027 1.400 . S
C1027 C1026 1.400 . S
C1027 C1028 1.398 . S
C1027 C1033 1.491 . S
C1028 H1019 0.950 . S
C1028 C1027 1.398 . S
C1028 C1029 1.391 . S
C1029 H1017 0.950 . S
C1029 C1025 1.393 . S
C1029 C1028 1.391 . S
C1030 H1020 0.950 . S
C1030 C1031 1.386 . S
C1030 C1032 1.391 . S
C1031 C1030 1.386 . S
C1031 C1035 1.393 . S
C1032 H1021 0.950 . S
C1032 C1030 1.391 . S
C1032 C1033 1.400 . S
C1033 C1027 1.491 . S
C1033 C1032 1.400 . S
C1033 C1034 1.398 . S
C1034 H1022 0.950 . S
C1034 C1033 1.398 . S
C1034 C1035 1.391 . S
C1035 H1023 0.950 . S
C1035 C1031 1.393 . S
C1035 C1034 1.391 . S
H1036 C1044 0.950 . S
H1037 C1049 0.950 . S
H1038 C1046 0.950 . S
H1039 C1048 0.950 . S
H1040 C1050 0.950 . S
H1041 C1052 0.950 . S
H1042 C1054 0.950 . S
H1043 C1055 0.950 . S
C1044 H1036 0.950 . S
C1044 C1045 1.386 . S
C1044 C1046 1.391 . S
C1045 C1044 1.386 . S
C1045 C1049 1.393 . S
C1046 H1038 0.950 . S
C1046 C1044 1.391 . S
C1046 C1047 1.400 . S
C1047 C1046 1.400 . S
C1047 C1048 1.398 . S
C1047 C1053 1.491 . S
C1048 H1039 0.950 . S
C1048 C1047 1.398 . S
C1048 C1049 1.391 . S
C1049 H1037 0.950 . S
C1049 C1045 1.393 . S
C1049 C1048 1.391 . S
C1050 H1040 0.950 . S
C1050 C1051 1.386 . S
C1050 C1052 1.391 . S
C1051 C1050 1.386 . S
C1051 C1055 1.393 . S
C1052 H1041 0.950 . S
C1052 C1050 1.391 . S
C1052 C1053 1.400 . S
C1053 C1047 1.491 . S
C1053 C1052 1.400 . S
C1053 C1054 1.398 . S
C1054 H1042 0.950 . S
C1054 C1053 1.398 . S
C1054 C1055 1.391 . S
C1055 H1043 0.950 . S
C1055 C1051 1.393 . S
C1055 C1054 1.391 . S
H1056 C1064 0.950 . S
H1057 C1069 0.950 . S
H1058 C1066 0.950 . S
H1059 C1068 0.950 . S
H1060 C1070 0.950 . S
H1061 C1072 0.950 . S
H1062 C1074 0.950 . S
H1063 C1075 0.950 . S
C1064 H1056 0.950 . S
C1064 C1065 1.386 . S
C1064 C1066 1.391 . S
C1065 C1064 1.386 . S
C1065 C1069 1.393 . S
C1066 H1058 0.950 . S
C1066 C1064 1.391 . S
C1066 C1067 1.400 . S
C1067 C1066 1.400 . S
C1067 C1068 1.398 . S
C1067 C1073 1.491 . S
C1068 H1059 0.950 . S
C1068 C1067 1.398 . S
C1068 C1069 1.391 . S
C1069 H1057 0.950 . S
C1069 C1065 1.393 . S
C1069 C1068 1.391 . S
C1070 H1060 0.950 . S
C1070 C1071 1.386 . S
C1070 C1072 1.391 . S
C1071 C1070 1.386 . S
C1071 C1075 1.393 . S
C1072 H1061 0.950 . S
C1072 C1070 1.391 . S
C1072 C1073 1.400 . S
C1073 C1067 1.491 . S
C1073 C1072 1.400 . S
C1073 C1074 1.398 . S
C1074 H1062 0.950 . S
C1074 C1073 1.398 . S
C1074 C1075 1.391 . S
C1075 H1063 0.950 . S
C1075 C1071 1.393 . S
C1075 C1074 1.391 . S
H1076 C1084 0.950 . S
H1077 C1089 0.950 . S
H1078 C1086 0.950 . S
H1079 C1088 0.950 . S
H1080 C1090 0.950 . S
H1081 C1092 0.950 . S
H1082 C1094 0.950 . S
H1083 C1095 0.950 . S
C1084 H1076 0.950 . S
C1084 C1085 1.386 . S
C1084 C1086 1.391 . S
C1085 C1084 1.386 . S
C1085 C1089 1.393 . S
C1086 H1078 0.950 . S
C1086 C1084 1.391 . S
C1086 C1087 1.400 . S
C1087 C1086 1.400 . S
C1087 C1088 1.398 . S
C1087 C1093 1.491 . S
C1088 H1079 0.950 . S
C1088 C1087 1.398 . S
C1088 C1089 1.391 . S
C1089 H1077 0.950 . S
C1089 C1085 1.393 . S
C1089 C1088 1.391 . S
C1090 H1080 0.950 . S
C1090 C1091 1.386 . S
C1090 C1092 1.391 . S
C1091 C1090 1.386 . S
C1091 C1095 1.393 . S
C1092 H1081 0.950 . S
C1092 C1090 1.391 . S
C1092 C1093 1.400 . S
C1093 C1087 1.491 . S
C1093 C1092 1.400 . S
C1093 C1094 1.398 . S
C1094 H1082 0.950 . S
C1094 C1093 1.398 . S
C1094 C1095 1.391 . S
C1095 H1083 0.950 . S
C1095 C1091 1.393 . S
C1095 C1094 1.391 . S
H1096 C1104 0.950 . S
H1097 C1109 0.950 . S
H1098 C1106 0.950 . S
H1099 C1108 0.950 . S
H1100 C1110 0.950 . S
H1101 C1112 0.950 . S
H1102 C1114 0.950 . S
H1103 C1115 0.950 . S
C1104 H1096 0.950 . S
C1104 C1105 1.386 . S
C1104 C1106 1.391 . S
C1105 C1104 1.386 . S
C1105 C1109 1.393 . S
C1106 H1098 0.950 . S
C1106 C1104 1.391 . S
C1106 C1107 1.400 . S
C1107 C1106 1.400 . S
C1107 C1108 1.398 . S
C1107 C1113 1.491 . S
C1108 H1099 0.950 . S
C1108 C1107 1.398 . S
C1108 C1109 1.391 . S
C1109 H1097 0.950 . S
C1109 C1105 1.393 . S
C1109 C1108 1.391 . S
C1110 H1100 0.950 . S
C1110 C1111 1.386 . S
C1110 C1112 1.391 . S
C1111 C1110 1.386 . S
C1111 C1115 1.393 . S
C1112 H1101 0.950 . S
C1112 C1110 1.391 . S
C1112 C1113 1.400 . S
C1113 C1107 1.491 . S
C1113 C1112 1.400 . S
C1113 C1114 1.398 . S
C1114 H1102 0.950 . S
C1114 C1113 1.398 . S
C1114 C1115 1.391 . S
C1115 H1103 0.950 . S
C1115 C1111 1.393 . S
C1115 C1114 1.391 . S
H1116 C1124 0.950 . S
H1117 C1129 0.950 . S
H1118 C1126 0.950 . S
H1119 C1128 0.950 . S
H1120 C1130 0.950 . S
H1121 C1132 0.950 . S
H1122 C1134 0.950 . S
H1123 C1135 0.950 . S
C1124 H1116 0.950 . S
C1124 C1125 1.386 . S
C1124 C1126 1.391 . S
C1125 C1124 1.386 . S
C1125 C1129 1.393 . S
C1126 H1118 0.950 . S
C1126 C1124 1.391 . S
C1126 C1127 1.400 . S
C1127 C1126 1.400 . S
C1127 C1128 1.398 . S
C1127 C1133 1.491 . S
C1128 H1119 0.950 . S
C1128 C1127 1.398 . S
C1128 C1129 1.391 . S
C1129 H1117 0.950 . S
C1129 C1125 1.393 . S
C1129 C1128 1.391 . S
C1130 H1120 0.950 . S
C1130 C1131 1.386 . S
C1130 C1132 1.391 . S
C1131 C1130 1.386 . S
C1131 C1135 1.393 . S
C1132 H1121 0.950 . S
C1132 C1130 1.391 . S
C1132 C1133 1.400 . S
C1133 C1127 1.491 . S
C1133 C1132 1.400 . S
C1133 C1134 1.398 . S
C1134 H1122 0.950 . S
C1134 C1133 1.398 . S
C1134 C1135 1.391 . S
C1135 H1123 0.950 . S
C1135 C1131 1.393 . S
C1135 C1134 1.391 . S
H1136 C1144 0.950 . S
H1137 C1149 0.950 . S
H1138 C1146 0.950 . S
H1139 C1148 0.950 . S
H1140 C1150 0.950 . S
H1141 C1152 0.950 . S
H1142 C1154 0.950 . S
H1143 C1155 0.950 . S
C1144 H1136 0.950 . S
C1144 C1145 1.386 . S
C1144 C1146 1.391 . S
C1145 C1144 1.386 . S
C1145 C1149 1.393 . S
C1146 H1138 0.950 . S
C1146 C1144 1.391 . S
C1146 C1147 1.400 . S
C1147 C1146 1.400 . S
C1147 C1148 1.398 . S
C1147 C1153 1.491 . S
C1148 H1139 0.950 . S
C1148 C1147 1.398 . S
C1148 C1149 1.391 . S
C1149 H1137 0.950 . S
C1149 C1145 1.393 . S
C1149 C1148 1.391 . S
C1150 H1140 0.950 . S
C1150 C1151 1.386 . S
C1150 C1152 1.391 . S
C1151 C1150 1.386 . S
C1151 C1155 1.393 . S
C1152 H1141 0.950 . S
C1152 C1150 1.391 . S
C1152 C1153 1.400 . S
C1153 C1147 1.491 . S
C1153 C1152 1.400 . S
C1153 C1154 1.398 . S
C1154 H1142 0.950 . S
C1154 C1153 1.398 . S
C1154 C1155 1.391 . S
C1155 H1143 0.950 . S
C1155 C1151 1.393 . S
C1155 C1154 1.391 . S
H1156 C1164 0.950 . S
H1157 C1169 0.950 . S
H1158 C1166 0.950 . S
H1159 C1168 0.950 . S
H1160 C1170 0.950 . S
H1161 C1172 0.950 . S
H1162 C1174 0.950 . S
H1163 C1175 0.950 . S
C1164 H1156 0.950 . S
C1164 C1165 1.386 . S
C1164 C1166 1.391 . S
C1165 C1164 1.386 . S
C1165 C1169 1.393 . S
C1166 H1158 0.950 . S
C1166 C1164 1.391 . S
C1166 C1167 1.400 . S
C1167 C1166 1.400 . S
C1167 C1168 1.398 . S
C1167 C1173 1.491 . S
C1168 H1159 0.950 . S
C1168 C1167 1.398 . S
C1168 C1169 1.391 . S
C1169 H1157 0.950 . S
C1169 C1165 1.393 . S
C1169 C1168 1.391 . S
C1170 H1160 0.950 . S
C1170 C1171 1.386 . S
C1170 C1172 1.391 . S
C1171 C1170 1.386 . S
C1171 C1175 1.393 . S
C1172 H1161 0.950 . S
C1172 C1170 1.391 . S
C1172 C1173 1.400 . S
C1173 C1167 1.491 . S
C1173 C1172 1.400 . S
C1173 C1174 1.398 . S
C1174 H1162 0.950 . S
C1174 C1173 1.398 . S
C1174 C1175 1.391 . S
C1175 H1163 0.950 . S
C1175 C1171 1.393 . S
C1175 C1174 1.391 . S
H1176 C1184 0.950 . S
H1177 C1189 0.950 . S
H1178 C1186 0.950 . S
H1179 C1188 0.950 . S
H1180 C1190 0.950 . S
H1181 C1192 0.950 . S
H1182 C1194 0.950 . S
H1183 C1195 0.950 . S
C1184 H1176 0.950 . S
C1184 C1185 1.386 . S
C1184 C1186 1.391 . S
C1185 C1184 1.386 . S
C1185 C1189 1.393 . S
C1186 H1178 0.950 . S
C1186 C1184 1.391 . S
C1186 C1187 1.400 . S
C1187 C1186 1.400 . S
C1187 C1188 1.398 . S
C1187 C1193 1.491 . S
C1188 H1179 0.950 . S
C1188 C1187 1.398 . S
C1188 C1189 1.391 . S
C1189 H1177 0.950 . S
C1189 C1185 1.393 . S
C1189 C1188 1.391 . S
C1190 H1180 0.950 . S
C1190 C1191 1.386 . S
C1190 C1192 1.391 . S
C1191 C1190 1.386 . S
C1191 C1195 1.393 . S
C1192 H1181 0.950 . S
C1192 C1190 1.391 . S
C1192 C1193 1.400 . S
C1193 C1187 1.491 . S
C1193 C1192 1.400 . S
C1193 C1194 1.398 . S
C1194 H1182 0.950 . S
C1194 C1193 1.398 . S
C1194 C1195 1.391 . S
C1195 H1183 0.950 . S
C1195 C1191 1.393 . S
C1195 C1194 1.391 . S
H1196 C1204 0.950 . S
H1197 C1209 0.950 . S
H1198 C1206 0.950 . S
H1199 C1208 0.950 . S
H1200 C1210 0.950 . S
H1201 C1212 0.950 . S
H1202 C1214 0.950 . S
H1203 C1215 0.950 . S
C1204 H1196 0.950 . S
C1204 C1205 1.386 . S
C1204 C1206 1.391 . S
C1205 C1204 1.386 . S
C1205 C1209 1.393 . S
C1206 H1198 0.950 . S
C1206 C1204 1.391 . S
C1206 C1207 1.400 . S
C1207 C1206 1.400 . S
C1207 C1208 1.398 . S
C1207 C1213 1.491 . S
C1208 H1199 0.950 . S
C1208 C1207 1.398 . S
C1208 C1209 1.391 . S
C1209 H1197 0.950 . S
C1209 C1205 1.393 . S
C1209 C1208 1.391 . S
C1210 H1200 0.950 . S
C1210 C1211 1.386 . S
C1210 C1212 1.391 . S
C1211 C1210 1.386 . S
C1211 C1215 1.393 . S
C1212 H1201 0.950 . S
C1212 C1210 1.391 . S
C1212 C1213 1.400 . S
C1213 C1207 1.491 . S
C1213 C1212 1.400 . S
C1213 C1214 1.398 . S
C1214 H1202 0.950 . S
C1214 C1213 1.398 . S
C1214 C1215 1.391 . S
C1215 H1203 0.950 . S
C1215 C1211 1.393 . S
C1215 C1214 1.391 . S
C585 C544 0.984 . S
C591 C4 0.986 . S
C605 C436 0.991 . S
C611 C40 0.993 . S
C625 C76 0.976 . S
C631 C472 0.976 . S
C645 C508 0.979 . S
C651 C112 0.980 . S
C665 C328 0.999 . S
C671 C148 0.999 . S
C685 C184 0.986 . S
C691 C364 0.984 . S
C705 C220 0.976 . S
C711 C400 0.976 . S
C725 C256 0.985 . S
C731 C292 0.987 . S
C745 C183 1.442 . S
C751 C14 1.367 . S
C765 C230 1.367 . S
C771 C39 1.441 . S
C785 C255 1.442 . S
C791 C86 1.370 . S
C805 C111 1.441 . S
C811 C158 1.369 . S
C825 C2 1.549 . S
C831 C38 1.544 . S
C845 C75 1.443 . S
C851 C50 1.391 . S
C865 C74 1.544 . S
C871 C110 1.548 . S
C885 C3 1.444 . S
C891 C122 1.395 . S
C905 C254 1.544 . S
C911 C146 1.548 . S
C925 C147 1.442 . S
C931 C194 1.368 . S
C945 C182 1.549 . S
C951 C218 1.544 . S
C965 C266 1.380 . S
C971 C219 1.443 . S
C985 C471 1.441 . S
C991 C302 1.366 . S
C1005 C327 1.444 . S
C1011 C518 1.390 . S
C1025 C543 1.443 . S
C1031 C374 1.385 . S
C1045 C446 1.388 . S
C1051 C399 1.443 . S
C1065 C290 1.548 . S
C1071 C326 1.544 . S
C1085 C338 1.366 . S
C1091 C363 1.441 . S
C1105 C398 1.544 . S
C1111 C362 1.548 . S
C1125 C291 1.443 . S
C1131 C410 1.385 . S
C1145 C542 1.545 . S
C1151 C434 1.547 . S
C1165 C435 1.442 . S
C1171 C482 1.368 . S
C1185 C470 1.545 . S
C1191 C506 1.547 . S
C1205 C554 1.377 . S
C1211 C507 1.442 . S
