# Generated by pormake.
# Topology afw, (4)-cn, num edge types: 1
# Building blocks:
#     Node 0, Type 0, BuildingBlock: CEKHIL_clean_sbu_0, # of connection points: 4
#     Node 1, Type 0, BuildingBlock: CEKHIL_clean_sbu_0, # of connection points: 4
#     Node 2, Type 0, BuildingBlock: CEKHIL_clean_sbu_0, # of connection points: 4
#     Node 3, Type 0, BuildingBlock: CEKHIL_clean_sbu_0, # of connection points: 4
#     Node 4, Type 0, BuildingBlock: CEKHIL_clean_sbu_0, # of connection points: 4
#     Node 5, Type 0, BuildingBlock: CEKHIL_clean_sbu_0, # of connection points: 4
#     Node 6, Type 0, BuildingBlock: CEKHIL_clean_sbu_0, # of connection points: 4
#     Node 7, Type 0, BuildingBlock: CEKHIL_clean_sbu_0, # of connection points: 4
#     Node 8, Type 0, BuildingBlock: CEKHIL_clean_sbu_0, # of connection points: 4
#     Edge 9, Type (0, 0), BuildingBlock: OJICUG_clean_linker_0, # of connection points: 2
#     Edge 10, Type (0, 0), BuildingBlock: OJICUG_clean_linker_0, # of connection points: 2
#     Edge 11, Type (0, 0), BuildingBlock: OJICUG_clean_linker_0, # of connection points: 2
#     Edge 12, Type (0, 0), BuildingBlock: OJICUG_clean_linker_0, # of connection points: 2
#     Edge 13, Type (0, 0), BuildingBlock: OJICUG_clean_linker_0, # of connection points: 2
#     Edge 14, Type (0, 0), BuildingBlock: OJICUG_clean_linker_0, # of connection points: 2
#     Edge 15, Type (0, 0), BuildingBlock: OJICUG_clean_linker_0, # of connection points: 2
#     Edge 16, Type (0, 0), BuildingBlock: OJICUG_clean_linker_0, # of connection points: 2
#     Edge 17, Type (0, 0), BuildingBlock: OJICUG_clean_linker_0, # of connection points: 2
#     Edge 18, Type (0, 0), BuildingBlock: OJICUG_clean_linker_0, # of connection points: 2
#     Edge 19, Type (0, 0), BuildingBlock: OJICUG_clean_linker_0, # of connection points: 2
#     Edge 20, Type (0, 0), BuildingBlock: OJICUG_clean_linker_0, # of connection points: 2
#     Edge 21, Type (0, 0), BuildingBlock: OJICUG_clean_linker_0, # of connection points: 2
#     Edge 22, Type (0, 0), BuildingBlock: OJICUG_clean_linker_0, # of connection points: 2
#     Edge 23, Type (0, 0), BuildingBlock: OJICUG_clean_linker_0, # of connection points: 2
#     Edge 24, Type (0, 0), BuildingBlock: OJICUG_clean_linker_0, # of connection points: 2
#     Edge 25, Type (0, 0), BuildingBlock: OJICUG_clean_linker_0, # of connection points: 2
#     Edge 26, Type (0, 0), BuildingBlock: OJICUG_clean_linker_0, # of connection points: 2
# Relax obj value: 0.198
# Max RMSD: 0.211
# Mean RMSD: 0.201
data_MOF--net-afw--node1-CEKHIL_clean_sbu_0--edge1-OJICUG_clean_linker_0
_symmetry_space_group_name_H-M    P1
_symmetry_Int_Tables_number       1
_symmetry_cell_setting            triclinic
loop_
_symmetry_equiv_pos_as_xyz
'x, y, z'
_cell_length_a     31.366912
_cell_length_b     31.500677
_cell_length_c     22.675298
_cell_angle_alpha  90.876132
_cell_angle_beta   90.711762
_cell_angle_gamma 119.98728
loop_
_atom_site_label
_atom_site_type_symbol
_atom_site_fract_x
_atom_site_fract_y
_atom_site_fract_z
_atom_type_partial_charge
Co0 Co 0.02915 0.22528 0.01263 0.0
O1 O 0.06947 0.29084 0.98429 0.0
O2 O -0.00384 0.23631 0.947 0.0
C3 C 0.08693 0.20282 0.01867 0.0
O4 O 0.9781 0.15393 0.02744 0.0
Co5 Co 0.04774 0.19711 0.13712 0.0
O6 O -0.00058 0.12942 0.10991 0.0
C7 C 0.00333 0.25937 0.12697 0.0
C8 C 0.03466 0.27985 0.94514 0.0
C9 C 0.9726 0.1204 0.06354 0.0
O10 O -0.0018 0.25062 0.07083 0.0
O11 O 0.02602 0.2447 0.16084 0.0
O12 O 0.0665 0.20188 0.96809 0.0
O13 O 0.07689 0.22365 0.06171 0.0
Co14 Co 0.81992 0.80854 0.03297 0.0
O15 O 0.79229 0.74044 0.04967 0.0
O16 O 0.77285 0.79087 0.09577 0.0
C17 C 0.89917 0.82833 0.03027 0.0
O18 O 0.84284 0.88158 0.02845 0.0
Co19 Co 0.87139 0.84646 0.91294 0.0
O20 O 0.88877 0.91138 0.94749 0.0
C21 C 0.76439 0.7835 0.91527 0.0
C22 C 0.76631 0.74688 0.08913 0.0
C23 C 0.87089 0.91727 0.99507 0.0
O24 O 0.7662 0.7904 0.97155 0.0
O25 O 0.80286 0.79903 0.88412 0.0
O26 O 0.87865 0.82552 0.08064 0.0
O27 O 0.86971 0.8131 0.98474 0.0
Co28 Co 0.18996 0.99694 0.00925 0.0
O29 O 0.21365 0.95417 0.98406 0.0
O30 O 0.23685 0.02711 0.94678 0.0
C31 C 0.10972 0.93999 0.00972 0.0
O32 O 0.17193 0.0503 0.0228 0.0
Co33 Co 0.13835 0.98093 0.12999 0.0
O34 O 0.12671 0.03423 0.10456 0.0
C35 C 0.24501 0.01989 0.12743 0.0
C36 C 0.24015 0.98756 0.94679 0.0
C37 C 0.14637 0.05973 0.05929 0.0
O38 O 0.24418 0.02657 0.07158 0.0
O39 O 0.20607 0.99817 0.15787 0.0
O40 O 0.1303 0.96018 0.9606 0.0
O41 O 0.1391 0.95114 0.05492 0.0
Co42 Co 0.62823 0.52415 0.3402 0.0
O43 O 0.58236 0.5418 0.37129 0.0
O44 O 0.65999 0.57347 0.4022 0.0
C45 C 0.57789 0.44193 0.34096 0.0
O46 O 0.68506 0.51265 0.32259 0.0
Co47 Co 0.60789 0.46772 0.21975 0.0
O48 O 0.66529 0.46123 0.2439 0.0
C49 C 0.64564 0.57435 0.2213 0.0
C50 C 0.61746 0.5705 0.4081 0.0
C51 C 0.69388 0.48586 0.28709 0.0
O52 O 0.65058 0.57636 0.27803 0.0
O53 O 0.62517 0.534 0.19128 0.0
O54 O 0.60019 0.46609 0.38914 0.0
O55 O 0.58202 0.46866 0.29634 0.0
Co56 Co 0.49566 0.13874 0.36179 0.0
O57 O 0.47739 0.07447 0.38962 0.0
O58 O 0.45211 0.12291 0.42795 0.0
C59 C 0.57723 0.16786 0.35478 0.0
O60 O 0.50847 0.20794 0.34693 0.0
Co61 Co 0.54114 0.17068 0.23733 0.0
O62 O 0.55008 0.23514 0.26261 0.0
C63 C 0.43482 0.10315 0.2468 0.0
C64 C 0.45219 0.08168 0.42953 0.0
C65 C 0.53113 0.24158 0.30888 0.0
O66 O 0.43803 0.10949 0.3034 0.0
O67 O 0.47234 0.12058 0.21378 0.0
O68 O 0.55849 0.16756 0.40569 0.0
O69 O 0.54565 0.14503 0.31247 0.0
Co70 Co 0.87877 0.39168 0.34476 0.0
O71 O 0.94444 0.44023 0.3692 0.0
O72 O 0.89885 0.36936 0.41282 0.0
C73 C 0.84804 0.44219 0.33334 0.0
O74 O 0.80925 0.33383 0.33507 0.0
Co75 Co 0.83727 0.39269 0.21968 0.0
O76 O 0.77456 0.33968 0.25032 0.0
C77 C 0.90855 0.35859 0.23272 0.0
C78 C 0.93988 0.41089 0.41145 0.0
C79 C 0.77233 0.31902 0.29899 0.0
O80 O 0.90555 0.35996 0.28935 0.0
O81 O 0.88754 0.37429 0.19765 0.0
O82 O 0.85212 0.42798 0.38557 0.0
O83 O 0.86806 0.43043 0.29148 0.0
Co84 Co 0.37181 0.89179 0.6883 0.0
O85 O 0.41491 0.95717 0.66114 0.0
O86 O 0.34055 0.9061 0.62358 0.0
C87 C 0.42709 0.86588 0.69122 0.0
O88 O 0.31843 0.82073 0.70151 0.0
Co89 Co 0.3903 0.85849 0.80988 0.0
O90 O 0.33937 0.79242 0.78099 0.0
C91 C 0.35051 0.92547 0.80564 0.0
C92 C 0.38098 0.94815 0.6216 0.0
C93 C 0.31212 0.7857 0.73563 0.0
O94 O 0.34325 0.91824 0.74927 0.0
O95 O 0.37349 0.90897 0.83596 0.0
O96 O 0.40654 0.86651 0.64143 0.0
O97 O 0.41861 0.88688 0.7353 0.0
Co98 Co 0.14681 0.47324 0.69843 0.0
O99 O 0.11344 0.40463 0.71672 0.0
O100 O 0.09972 0.46008 0.75982 0.0
C101 C 0.22376 0.48492 0.70163 0.0
O102 O 0.17601 0.5476 0.69406 0.0
Co103 Co 0.20951 0.51162 0.58496 0.0
O104 O 0.22986 0.57702 0.61998 0.0
C105 C 0.10098 0.46321 0.57608 0.0
C106 C 0.09123 0.41522 0.75732 0.0
C107 C 0.20877 0.58333 0.66416 0.0
O108 O 0.09689 0.46063 0.63272 0.0
O109 O 0.14176 0.47853 0.54977 0.0
O110 O 0.20215 0.48494 0.75004 0.0
O111 O 0.19658 0.47274 0.65431 0.0
Co112 Co 0.51473 0.64851 0.68168 0.0
O113 O 0.53518 0.60346 0.6554 0.0
O114 O 0.55914 0.67589 0.6166 0.0
C115 C 0.43427 0.59259 0.6854 0.0
O116 O 0.49901 0.70336 0.69455 0.0
Co117 Co 0.46598 0.63668 0.80374 0.0
O118 O 0.45496 0.68999 0.77687 0.0
C119 C 0.57349 0.6791 0.79777 0.0
C120 C 0.55923 0.63463 0.61483 0.0
C121 C 0.47461 0.71438 0.7309 0.0
O122 O 0.57098 0.67962 0.74107 0.0
O123 O 0.5355 0.65984 0.83012 0.0
O124 O 0.4539 0.61189 0.63565 0.0
O125 O 0.46444 0.60424 0.72995 0.0
C126 C 0.13053 0.12557 0.09602 0.0
C127 C 0.13794 0.10114 0.04832 0.0
H128 H 0.11042 0.17813 0.1241 0.0
C129 C 0.13357 0.1143 0.99061 0.0
H130 H 0.1342 0.11656 0.14102 0.0
C131 C 0.11895 0.14905 0.98086 0.0
C132 C 0.10941 0.17186 0.02867 0.0
H133 H 0.13902 0.09603 0.95304 0.0
H134 H 0.11361 0.15686 0.93589 0.0
C135 C 0.117 0.16096 0.08631 0.0
C136 C 0.89935 0.0044 0.97172 0.0
C137 C 0.88698 0.96821 0.01413 0.0
H138 H 0.93508 0.08101 0.95428 0.0
C139 C 0.89673 0.98236 0.07398 0.0
H140 H 0.89198 0.99442 0.92524 0.0
C141 C 0.92216 0.0321 0.09061 0.0
C142 C 0.93742 0.06845 0.04773 0.0
H143 H 0.88781 0.95523 0.10754 0.0
H144 H 0.9318 0.0421 0.13678 0.0
C145 C 0.92388 0.05401 0.98839 0.0
C146 C 0.97433 0.86615 0.96891 0.0
C147 C 0.95305 0.85395 0.02472 0.0
H148 H 0.04081 0.90344 0.92043 0.0
C149 C 0.98373 0.86862 0.07535 0.0
H150 H 0.95158 0.85524 0.92909 0.0
C151 C 0.03478 0.8958 0.07034 0.0
C152 C 0.056 0.90924 0.01464 0.0
H153 H 0.96832 0.85961 0.11891 0.0
H154 H 0.05751 0.90702 0.1102 0.0
C155 C 0.02538 0.89383 0.96394 0.0
C156 C 0.79778 0.46026 0.26282 0.0
C157 C 0.81371 0.4603 0.321 0.0
H158 H 0.74684 0.46786 0.20655 0.0
C159 C 0.79322 0.47362 0.36748 0.0
H160 H 0.81319 0.45068 0.22597 0.0
C161 C 0.75584 0.48448 0.35617 0.0
C162 C 0.73777 0.48127 0.29831 0.0
H163 H 0.80501 0.47423 0.41274 0.0
H164 H 0.73949 0.49302 0.39298 0.0
C165 C 0.75974 0.47004 0.25165 0.0
C166 C 0.54436 0.3116 0.37564 0.0
C167 C 0.53652 0.29048 0.31871 0.0
H168 H 0.56416 0.37669 0.42742 0.0
C169 C 0.53757 0.31802 0.27006 0.0
H170 H 0.54383 0.29113 0.41386 0.0
C171 C 0.5482 0.36638 0.2778 0.0
C172 C 0.55919 0.38868 0.33426 0.0
H173 H 0.53109 0.30242 0.22571 0.0
H174 H 0.54969 0.38678 0.23915 0.0
C175 C 0.5561 0.36052 0.38331 0.0
C176 C 0.66262 0.23184 0.38748 0.0
C177 C 0.62948 0.20196 0.34245 0.0
H178 H 0.73455 0.29237 0.40893 0.0
C179 C 0.64543 0.20822 0.28395 0.0
H180 H 0.65136 0.2278 0.43297 0.0
C181 C 0.69233 0.24562 0.27016 0.0
C182 C 0.72476 0.27677 0.31474 0.0
H183 H 0.62109 0.18542 0.24828 0.0
H184 H 0.70299 0.25065 0.2244 0.0
C185 C 0.71013 0.26873 0.37375 0.0
C186 C 0.45605 0.82243 0.7574 0.0
C187 C 0.44655 0.83226 0.70003 0.0
H188 H 0.47163 0.77685 0.81199 0.0
C189 C 0.45095 0.80591 0.6521 0.0
H190 H 0.4536 0.8424 0.79524 0.0
C191 C 0.46241 0.76889 0.66174 0.0
C192 C 0.46863 0.75708 0.71947 0.0
H193 H 0.44395 0.81276 0.60735 0.0
H194 H 0.46405 0.74801 0.6243 0.0
C195 C 0.46629 0.7848 0.76706 0.0
C196 C 0.25705 0.69759 0.76051 0.0
C197 C 0.27595 0.73444 0.71811 0.0
H198 H 0.2196 0.62039 0.77654 0.0
C199 C 0.26607 0.72077 0.65812 0.0
H200 H 0.26403 0.70709 0.80712 0.0
C201 C 0.24157 0.67128 0.64074 0.0
C202 C 0.22546 0.63448 0.683 0.0
H203 H 0.28038 0.74823 0.62443 0.0
H204 H 0.2371 0.66179 0.59406 0.0
C205 C 0.2315 0.64799 0.74309 0.0
C206 C 0.29995 0.51457 0.64379 0.0
C207 C 0.27765 0.50773 0.6988 0.0
H208 H 0.3671 0.54725 0.59659 0.0
C209 C 0.30743 0.52623 0.7501 0.0
H210 H 0.27802 0.50032 0.60351 0.0
C211 C 0.35868 0.55272 0.74612 0.0
C212 C 0.38071 0.56153 0.69074 0.0
H213 H 0.29117 0.52135 0.79311 0.0
H214 H 0.38087 0.56757 0.78614 0.0
C215 C 0.35098 0.54156 0.63977 0.0
C216 C 0.0266 0.29686 0.83959 0.0
C217 C 0.04063 0.31415 0.89807 0.0
H218 H 0.0323 0.31583 0.74829 0.0
C219 C 0.06491 0.36484 0.91013 0.0
H220 H 0.00803 0.2579 0.8292 0.0
C221 C 0.07696 0.39782 0.86416 0.0
C222 C 0.06653 0.38068 0.80524 0.0
H223 H 0.07597 0.37898 0.95493 0.0
H224 H 0.0978 0.43679 0.87444 0.0
C225 C 0.04033 0.3299 0.79339 0.0
C226 C 0.6725 0.73341 0.91798 0.0
C227 C 0.71564 0.75625 0.8851 0.0
H228 H 0.59407 0.69085 0.91643 0.0
C229 C 0.71175 0.7522 0.82315 0.0
H230 H 0.67412 0.73539 0.96576 0.0
C231 C 0.6657 0.72647 0.79472 0.0
C232 C 0.62252 0.70411 0.82761 0.0
H233 H 0.74425 0.76921 0.79643 0.0
H234 H 0.66402 0.72455 0.74694 0.0
C235 C 0.62651 0.70759 0.88959 0.0
C236 C 0.29598 0.96345 0.81243 0.0
C237 C 0.32788 0.94976 0.83937 0.0
H238 H 0.24326 0.98736 0.8259 0.0
C239 C 0.33474 0.95512 0.90118 0.0
H240 H 0.28993 0.95997 0.76505 0.0
C241 C 0.30769 0.96981 0.93543 0.0
C242 C 0.27406 0.98084 0.90889 0.0
H243 H 0.35942 0.94574 0.9238 0.0
H244 H 0.31193 0.97109 0.98306 0.0
C245 C 0.26942 0.97924 0.84708 0.0
C246 C 0.38195 0.07481 0.15494 0.0
C247 C 0.38569 0.07797 0.21702 0.0
H248 H 0.33504 0.05435 0.07818 0.0
C249 C 0.34241 0.05991 0.24943 0.0
H250 H 0.41442 0.08818 0.12832 0.0
C251 C 0.29663 0.04037 0.22037 0.0
C252 C 0.2932 0.03875 0.15829 0.0
H253 H 0.34388 0.0617 0.2972 0.0
H254 H 0.26404 0.02746 0.24667 0.0
C255 C 0.33634 0.0556 0.12598 0.0
C256 C 0.95825 0.30614 0.11866 0.0
C257 C 0.98101 0.28664 0.15409 0.0
H258 H 0.91811 0.34431 0.11539 0.0
C259 C 0.98159 0.29285 0.21581 0.0
H260 H 0.95735 0.3024 0.07103 0.0
C261 C 0.95896 0.31698 0.24148 0.0
C262 C 0.93534 0.33562 0.20603 0.0
H263 H -0.00106 0.27846 0.24455 0.0
H264 H 0.95948 0.32045 0.28912 0.0
C265 C 0.9358 0.33037 0.14427 0.0
C266 C 0.69367 0.66694 0.21554 0.0
C267 C 0.67006 0.62029 0.18745 0.0
H268 H 0.74238 0.74448 0.2059 0.0
C269 C 0.67457 0.6172 0.12604 0.0
H270 H 0.69088 0.67069 0.26268 0.0
C271 C 0.70463 0.65885 0.09436 0.0
C272 C 0.73005 0.70494 0.12273 0.0
H273 H 0.6569 0.58219 0.10245 0.0
H274 H 0.70892 0.65479 0.04761 0.0
C275 C 0.72308 0.70912 0.18317 0.0
C276 C 0.01074 0.41178 0.54916 0.0
C277 C 0.05786 0.45089 0.53766 0.0
H278 H 0.93607 0.36755 0.51716 0.0
C279 C 0.06509 0.47744 0.48588 0.0
H280 H 0.00432 0.39072 0.58869 0.0
C281 C 0.02653 0.46466 0.44564 0.0
C282 C 0.97979 0.42458 0.45574 0.0
H283 H 0.10096 0.50814 0.47613 0.0
H284 H 0.03369 0.48575 0.406 0.0
C285 C 0.97198 0.39839 0.50809 0.0
C286 C 0.57366 0.55463 0.50138 0.0
C287 C 0.60597 0.58892 0.46178 0.0
H288 H 0.53498 0.54243 0.58163 0.0
C289 C 0.62603 0.63917 0.47427 0.0
H290 H 0.55817 0.51568 0.49258 0.0
C291 C 0.61198 0.65475 0.52506 0.0
C292 C 0.57897 0.62016 0.56445 0.0
H293 H 0.65125 0.66608 0.4441 0.0
H294 H 0.62637 0.69358 0.53315 0.0
C295 C 0.56078 0.57005 0.55254 0.0
C296 C 0.40209 0.96546 0.51663 0.0
C297 C 0.39197 0.9802 0.57079 0.0
H298 H 0.42952 0.98623 0.42959 0.0
C299 C 0.39821 0.02735 0.57718 0.0
H300 H 0.39823 0.92944 0.5112 0.0
C301 C 0.41526 0.05971 0.53005 0.0
C302 C 0.42772 0.04578 0.47659 0.0
H303 H 0.39091 0.03944 0.61889 0.0
H304 H 0.42077 0.09628 0.53637 0.0
C305 C 0.42021 0.99805 0.47013 0.0
loop_
_geom_bond_atom_site_label_1
_geom_bond_atom_site_label_2
_geom_bond_distance
_geom_bond_site_symmetry_2
_ccdc_geom_bond_type
Co0 O1 2.216 1_554 S
Co0 O2 2.089 1_554 S
Co0 O4 2.004 1_454 S
Co0 O10 2.022 1_455 S
Co0 O12 2.137 1_554 S
Co0 O13 2.246 . S
O1 Co0 2.216 1_556 S
O1 C8 1.247 . S
O2 Co0 2.089 1_556 S
O2 C8 1.261 . S
C3 O12 1.247 1_554 S
C3 O13 1.272 . S
O4 Co0 2.004 1_656 S
O4 C9 1.259 1_556 S
Co5 O6 2.061 1_455 S
Co5 O11 2.052 . S
Co5 O13 2.135 . S
O6 Co5 2.061 1_655 S
O6 C9 1.235 . S
C7 O10 1.238 . S
C7 O11 1.241 1_655 S
C8 O1 1.247 . S
C8 O2 1.261 . S
C9 O4 1.259 1_554 S
C9 O6 1.235 . S
O10 Co0 2.022 1_655 S
O10 C7 1.238 . S
O11 Co5 2.052 . S
O11 C7 1.241 1_455 S
O12 Co0 2.137 1_556 S
O12 C3 1.247 1_556 S
O13 Co0 2.246 . S
O13 C3 1.272 . S
O13 Co5 2.135 . S
Co14 O15 2.216 . S
Co14 O16 2.091 . S
Co14 O18 2.004 . S
Co14 O24 2.021 1_554 S
Co14 O26 2.137 . S
Co14 O27 2.244 1_554 S
O15 Co14 2.216 . S
O15 C22 1.247 . S
O16 Co14 2.091 . S
O16 C22 1.261 . S
C17 O26 1.247 . S
C17 O27 1.272 1_554 S
O18 Co14 2.004 . S
O18 C23 1.259 . S
Co19 O20 2.061 . S
Co19 O25 2.052 . S
Co19 O27 2.135 . S
O20 Co19 2.061 . S
O20 C23 1.235 1_556 S
C21 O24 1.238 . S
C21 O25 1.241 . S
C22 O15 1.247 . S
C22 O16 1.261 . S
C23 O18 1.259 . S
C23 O20 1.235 1_554 S
O24 Co14 2.021 1_556 S
O24 C21 1.238 . S
O25 Co19 2.052 . S
O25 C21 1.241 . S
O26 Co14 2.137 . S
O26 C17 1.247 . S
O27 Co14 2.244 1_556 S
O27 C17 1.272 1_556 S
O27 Co19 2.135 . S
Co28 O29 2.216 1_545 S
Co28 O30 2.091 . S
Co28 O32 2.004 . S
Co28 O38 2.021 1_556 S
Co28 O40 2.137 1_545 S
Co28 O41 2.244 1_546 S
O29 Co28 2.216 1_565 S
O29 C36 1.247 . S
O30 Co28 2.091 . S
O30 C36 1.261 1_545 S
C31 O40 1.247 1_554 S
C31 O41 1.272 . S
O32 Co28 2.004 . S
O32 C37 1.259 1_556 S
Co33 O34 2.061 . S
Co33 O39 2.052 . S
Co33 O41 2.135 1_545 S
O34 Co33 2.061 . S
O34 C37 1.235 . S
C35 O38 1.238 . S
C35 O39 1.241 . S
C36 O29 1.247 . S
C36 O30 1.261 1_565 S
C37 O32 1.259 1_554 S
C37 O34 1.235 . S
O38 Co28 2.021 1_554 S
O38 C35 1.238 . S
O39 Co33 2.052 . S
O39 C35 1.241 . S
O40 Co28 2.137 1_565 S
O40 C31 1.247 1_556 S
O41 Co28 2.244 1_564 S
O41 C31 1.272 . S
O41 Co33 2.135 1_565 S
Co42 O43 2.216 . S
Co42 O44 2.091 . S
Co42 O46 2.004 . S
Co42 O52 2.021 . S
Co42 O54 2.137 . S
Co42 O55 2.244 . S
O43 Co42 2.216 . S
O43 C50 1.247 . S
O44 Co42 2.091 . S
O44 C50 1.261 . S
C45 O54 1.247 . S
C45 O55 1.272 . S
O46 Co42 2.004 . S
O46 C51 1.259 . S
Co47 O48 2.061 . S
Co47 O53 2.052 . S
Co47 O55 2.135 . S
O48 Co47 2.061 . S
O48 C51 1.235 . S
C49 O52 1.238 . S
C49 O53 1.241 . S
C50 O43 1.247 . S
C50 O44 1.261 . S
C51 O46 1.259 . S
C51 O48 1.235 . S
O52 Co42 2.021 . S
O52 C49 1.238 . S
O53 Co47 2.052 . S
O53 C49 1.241 . S
O54 Co42 2.137 . S
O54 C45 1.247 . S
O55 Co42 2.244 . S
O55 C45 1.272 . S
O55 Co47 2.135 . S
Co56 O57 2.216 . S
Co56 O58 2.091 . S
Co56 O60 2.004 . S
Co56 O66 2.021 . S
Co56 O68 2.137 . S
Co56 O69 2.244 . S
O57 Co56 2.216 . S
O57 C64 1.247 . S
O58 Co56 2.091 . S
O58 C64 1.261 . S
C59 O68 1.247 . S
C59 O69 1.272 . S
O60 Co56 2.004 . S
O60 C65 1.259 . S
Co61 O62 2.061 . S
Co61 O67 2.052 . S
Co61 O69 2.135 . S
O62 Co61 2.061 . S
O62 C65 1.235 . S
C63 O66 1.238 . S
C63 O67 1.241 . S
C64 O57 1.247 . S
C64 O58 1.261 . S
C65 O60 1.259 . S
C65 O62 1.235 . S
O66 Co56 2.021 . S
O66 C63 1.238 . S
O67 Co61 2.052 . S
O67 C63 1.241 . S
O68 Co56 2.137 . S
O68 C59 1.247 . S
O69 Co56 2.244 . S
O69 C59 1.272 . S
O69 Co61 2.135 . S
Co70 O71 2.216 . S
Co70 O72 2.091 . S
Co70 O74 2.004 . S
Co70 O80 2.021 . S
Co70 O82 2.137 . S
Co70 O83 2.244 . S
O71 Co70 2.216 . S
O71 C78 1.247 . S
O72 Co70 2.091 . S
O72 C78 1.261 . S
C73 O82 1.247 . S
C73 O83 1.272 . S
O74 Co70 2.004 . S
O74 C79 1.259 . S
Co75 O76 2.061 . S
Co75 O81 2.052 . S
Co75 O83 2.135 . S
O76 Co75 2.061 . S
O76 C79 1.235 . S
C77 O80 1.238 . S
C77 O81 1.241 . S
C78 O71 1.247 . S
C78 O72 1.261 . S
C79 O74 1.259 . S
C79 O76 1.235 . S
O80 Co70 2.021 . S
O80 C77 1.238 . S
O81 Co75 2.052 . S
O81 C77 1.241 . S
O82 Co70 2.137 . S
O82 C73 1.247 . S
O83 Co70 2.244 . S
O83 C73 1.272 . S
O83 Co75 2.135 . S
Co84 O85 2.216 . S
Co84 O86 2.091 . S
Co84 O88 2.004 . S
Co84 O94 2.021 . S
Co84 O96 2.137 . S
Co84 O97 2.244 . S
O85 Co84 2.216 . S
O85 C92 1.247 . S
O86 Co84 2.091 . S
O86 C92 1.261 . S
C87 O96 1.247 . S
C87 O97 1.272 . S
O88 Co84 2.004 . S
O88 C93 1.259 . S
Co89 O90 2.061 . S
Co89 O95 2.052 . S
Co89 O97 2.135 . S
O90 Co89 2.061 . S
O90 C93 1.235 . S
C91 O94 1.238 . S
C91 O95 1.241 . S
C92 O85 1.247 . S
C92 O86 1.261 . S
C93 O88 1.259 . S
C93 O90 1.235 . S
O94 Co84 2.021 . S
O94 C91 1.238 . S
O95 Co89 2.052 . S
O95 C91 1.241 . S
O96 Co84 2.137 . S
O96 C87 1.247 . S
O97 Co84 2.244 . S
O97 C87 1.272 . S
O97 Co89 2.135 . S
Co98 O99 2.216 . S
Co98 O100 2.091 . S
Co98 O102 2.004 . S
Co98 O108 2.021 . S
Co98 O110 2.137 . S
Co98 O111 2.244 . S
O99 Co98 2.216 . S
O99 C106 1.247 . S
O100 Co98 2.091 . S
O100 C106 1.261 . S
C101 O110 1.247 . S
C101 O111 1.272 . S
O102 Co98 2.004 . S
O102 C107 1.259 . S
Co103 O104 2.061 . S
Co103 O109 2.052 . S
Co103 O111 2.135 . S
O104 Co103 2.061 . S
O104 C107 1.235 . S
C105 O108 1.238 . S
C105 O109 1.241 . S
C106 O99 1.247 . S
C106 O100 1.261 . S
C107 O102 1.259 . S
C107 O104 1.235 . S
O108 Co98 2.021 . S
O108 C105 1.238 . S
O109 Co103 2.052 . S
O109 C105 1.241 . S
O110 Co98 2.137 . S
O110 C101 1.247 . S
O111 Co98 2.244 . S
O111 C101 1.272 . S
O111 Co103 2.135 . S
Co112 O113 2.216 . S
Co112 O114 2.091 . S
Co112 O116 2.004 . S
Co112 O122 2.021 . S
Co112 O124 2.137 . S
Co112 O125 2.244 . S
O113 Co112 2.216 . S
O113 C120 1.247 . S
O114 Co112 2.091 . S
O114 C120 1.261 . S
C115 O124 1.247 . S
C115 O125 1.272 . S
O116 Co112 2.004 . S
O116 C121 1.259 . S
Co117 O118 2.061 . S
Co117 O123 2.052 . S
Co117 O125 2.135 . S
O118 Co117 2.061 . S
O118 C121 1.235 . S
C119 O122 1.238 . S
C119 O123 1.241 . S
C120 O113 1.247 . S
C120 O114 1.261 . S
C121 O116 1.259 . S
C121 O118 1.235 . S
O122 Co112 2.021 . S
O122 C119 1.238 . S
O123 Co117 2.052 . S
O123 C119 1.241 . S
O124 Co112 2.137 . S
O124 C115 1.247 . S
O125 Co112 2.244 . S
O125 C115 1.272 . S
O125 Co117 2.135 . S
C126 C127 1.387 . S
C126 H130 0.950 . S
C126 C135 1.390 . S
C127 C126 1.387 . S
C127 C129 1.387 1_554 S
H128 C135 0.950 . S
C129 C127 1.387 1_556 S
C129 C131 1.390 . S
C129 H133 0.950 . S
H130 C126 0.950 . S
C131 C129 1.390 . S
C131 C132 1.387 1_556 S
C131 H134 0.950 . S
C132 C131 1.387 1_554 S
C132 C135 1.387 . S
H133 C129 0.950 . S
H134 C131 0.950 . S
C135 C126 1.390 . S
C135 H128 0.950 . S
C135 C132 1.387 . S
C136 C137 1.387 1_556 S
C136 H140 0.950 . S
C136 C145 1.390 1_565 S
C137 C136 1.387 1_554 S
C137 C139 1.387 . S
H138 C145 0.950 . S
C139 C137 1.387 . S
C139 C141 1.390 1_565 S
C139 H143 0.950 . S
H140 C136 0.950 . S
C141 C139 1.390 1_545 S
C141 C142 1.387 . S
C141 H144 0.950 . S
C142 C141 1.387 . S
C142 C145 1.387 1_554 S
H143 C139 0.950 . S
H144 C141 0.950 . S
C145 C136 1.390 1_545 S
C145 H138 0.950 . S
C145 C142 1.387 1_556 S
C146 C147 1.387 1_556 S
C146 H150 0.950 . S
C146 C155 1.390 1_655 S
C147 C146 1.387 1_554 S
C147 C149 1.387 . S
H148 C155 0.950 . S
C149 C147 1.387 . S
C149 C151 1.390 1_655 S
C149 H153 0.950 . S
H150 C146 0.950 . S
C151 C149 1.390 1_455 S
C151 C152 1.387 . S
C151 H154 0.950 . S
C152 C151 1.387 . S
C152 C155 1.387 1_554 S
H153 C149 0.950 . S
H154 C151 0.950 . S
C155 C146 1.390 1_455 S
C155 H148 0.950 . S
C155 C152 1.387 1_556 S
C156 C157 1.387 . S
C156 H160 0.950 . S
C156 C165 1.390 . S
C157 C156 1.387 . S
C157 C159 1.387 . S
H158 C165 0.950 . S
C159 C157 1.387 . S
C159 C161 1.390 . S
C159 H163 0.950 . S
H160 C156 0.950 . S
C161 C159 1.390 . S
C161 C162 1.387 . S
C161 H164 0.950 . S
C162 C161 1.387 . S
C162 C165 1.387 . S
H163 C159 0.950 . S
H164 C161 0.950 . S
C165 C156 1.390 . S
C165 H158 0.950 . S
C165 C162 1.387 . S
C166 C167 1.387 . S
C166 H170 0.950 . S
C166 C175 1.390 . S
C167 C166 1.387 . S
C167 C169 1.387 . S
H168 C175 0.950 . S
C169 C167 1.387 . S
C169 C171 1.390 . S
C169 H173 0.950 . S
H170 C166 0.950 . S
C171 C169 1.390 . S
C171 C172 1.387 . S
C171 H174 0.950 . S
C172 C171 1.387 . S
C172 C175 1.387 . S
H173 C169 0.950 . S
H174 C171 0.950 . S
C175 C166 1.390 . S
C175 H168 0.950 . S
C175 C172 1.387 . S
C176 C177 1.387 . S
C176 H180 0.950 . S
C176 C185 1.390 . S
C177 C176 1.387 . S
C177 C179 1.387 . S
H178 C185 0.950 . S
C179 C177 1.387 . S
C179 C181 1.390 . S
C179 H183 0.950 . S
H180 C176 0.950 . S
C181 C179 1.390 . S
C181 C182 1.387 . S
C181 H184 0.950 . S
C182 C181 1.387 . S
C182 C185 1.387 . S
H183 C179 0.950 . S
H184 C181 0.950 . S
C185 C176 1.390 . S
C185 H178 0.950 . S
C185 C182 1.387 . S
C186 C187 1.387 . S
C186 H190 0.950 . S
C186 C195 1.390 . S
C187 C186 1.387 . S
C187 C189 1.387 . S
H188 C195 0.950 . S
C189 C187 1.387 . S
C189 C191 1.390 . S
C189 H193 0.950 . S
H190 C186 0.950 . S
C191 C189 1.390 . S
C191 C192 1.387 . S
C191 H194 0.950 . S
C192 C191 1.387 . S
C192 C195 1.387 . S
H193 C189 0.950 . S
H194 C191 0.950 . S
C195 C186 1.390 . S
C195 H188 0.950 . S
C195 C192 1.387 . S
C196 C197 1.387 . S
C196 H200 0.950 . S
C196 C205 1.390 . S
C197 C196 1.387 . S
C197 C199 1.387 . S
H198 C205 0.950 . S
C199 C197 1.387 . S
C199 C201 1.390 . S
C199 H203 0.950 . S
H200 C196 0.950 . S
C201 C199 1.390 . S
C201 C202 1.387 . S
C201 H204 0.950 . S
C202 C201 1.387 . S
C202 C205 1.387 . S
H203 C199 0.950 . S
H204 C201 0.950 . S
C205 C196 1.390 . S
C205 H198 0.950 . S
C205 C202 1.387 . S
C206 C207 1.387 . S
C206 H210 0.950 . S
C206 C215 1.390 . S
C207 C206 1.387 . S
C207 C209 1.387 . S
H208 C215 0.950 . S
C209 C207 1.387 . S
C209 C211 1.390 . S
C209 H213 0.950 . S
H210 C206 0.950 . S
C211 C209 1.390 . S
C211 C212 1.387 . S
C211 H214 0.950 . S
C212 C211 1.387 . S
C212 C215 1.387 . S
H213 C209 0.950 . S
H214 C211 0.950 . S
C215 C206 1.390 . S
C215 H208 0.950 . S
C215 C212 1.387 . S
C216 C217 1.387 . S
C216 H220 0.950 . S
C216 C225 1.390 . S
C217 C216 1.387 . S
C217 C219 1.387 . S
H218 C225 0.950 . S
C219 C217 1.387 . S
C219 C221 1.390 . S
C219 H223 0.950 . S
H220 C216 0.950 . S
C221 C219 1.390 . S
C221 C222 1.387 . S
C221 H224 0.950 . S
C222 C221 1.387 . S
C222 C225 1.387 . S
H223 C219 0.950 . S
H224 C221 0.950 . S
C225 C216 1.390 . S
C225 H218 0.950 . S
C225 C222 1.387 . S
C226 C227 1.387 . S
C226 H230 0.950 . S
C226 C235 1.390 . S
C227 C226 1.387 . S
C227 C229 1.387 . S
H228 C235 0.950 . S
C229 C227 1.387 . S
C229 C231 1.390 . S
C229 H233 0.950 . S
H230 C226 0.950 . S
C231 C229 1.390 . S
C231 C232 1.387 . S
C231 H234 0.950 . S
C232 C231 1.387 . S
C232 C235 1.387 . S
H233 C229 0.950 . S
H234 C231 0.950 . S
C235 C226 1.390 . S
C235 H228 0.950 . S
C235 C232 1.387 . S
C236 C237 1.387 . S
C236 H240 0.950 . S
C236 C245 1.390 . S
C237 C236 1.387 . S
C237 C239 1.387 . S
H238 C245 0.950 . S
C239 C237 1.387 . S
C239 C241 1.390 . S
C239 H243 0.950 . S
H240 C236 0.950 . S
C241 C239 1.390 . S
C241 C242 1.387 . S
C241 H244 0.950 1_565 S
C242 C241 1.387 . S
C242 C245 1.387 . S
H243 C239 0.950 . S
H244 C241 0.950 1_545 S
C245 C236 1.390 . S
C245 H238 0.950 . S
C245 C242 1.387 . S
C246 C247 1.387 . S
C246 H250 0.950 . S
C246 C255 1.390 . S
C247 C246 1.387 . S
C247 C249 1.387 . S
H248 C255 0.950 . S
C249 C247 1.387 . S
C249 C251 1.390 . S
C249 H253 0.950 . S
H250 C246 0.950 . S
C251 C249 1.390 . S
C251 C252 1.387 . S
C251 H254 0.950 1_545 S
C252 C251 1.387 . S
C252 C255 1.387 . S
H253 C249 0.950 . S
H254 C251 0.950 1_565 S
C255 C246 1.390 . S
C255 H248 0.950 . S
C255 C252 1.387 . S
C256 C257 1.387 . S
C256 H260 0.950 1_655 S
C256 C265 1.390 . S
C257 C256 1.387 . S
C257 C259 1.387 . S
H258 C265 0.950 . S
C259 C257 1.387 . S
C259 C261 1.390 . S
C259 H263 0.950 . S
H260 C256 0.950 1_455 S
C261 C259 1.390 . S
C261 C262 1.387 . S
C261 H264 0.950 . S
C262 C261 1.387 . S
C262 C265 1.387 . S
H263 C259 0.950 . S
H264 C261 0.950 . S
C265 C256 1.390 . S
C265 H258 0.950 . S
C265 C262 1.387 . S
C266 C267 1.387 . S
C266 H270 0.950 . S
C266 C275 1.390 . S
C267 C266 1.387 . S
C267 C269 1.387 . S
H268 C275 0.950 . S
C269 C267 1.387 . S
C269 C271 1.390 . S
C269 H273 0.950 . S
H270 C266 0.950 . S
C271 C269 1.390 . S
C271 C272 1.387 . S
C271 H274 0.950 . S
C272 C271 1.387 . S
C272 C275 1.387 . S
H273 C269 0.950 . S
H274 C271 0.950 . S
C275 C266 1.390 . S
C275 H268 0.950 . S
C275 C272 1.387 . S
C276 C277 1.387 . S
C276 H280 0.950 . S
C276 C285 1.390 1_455 S
C277 C276 1.387 . S
C277 C279 1.387 . S
H278 C285 0.950 . S
C279 C277 1.387 . S
C279 C281 1.390 . S
C279 H283 0.950 . S
H280 C276 0.950 . S
C281 C279 1.390 . S
C281 C282 1.387 1_455 S
C281 H284 0.950 . S
C282 C281 1.387 1_655 S
C282 C285 1.387 . S
H283 C279 0.950 . S
H284 C281 0.950 . S
C285 C276 1.390 1_655 S
C285 H278 0.950 . S
C285 C282 1.387 . S
C286 C287 1.387 . S
C286 H290 0.950 . S
C286 C295 1.390 . S
C287 C286 1.387 . S
C287 C289 1.387 . S
H288 C295 0.950 . S
C289 C287 1.387 . S
C289 C291 1.390 . S
C289 H293 0.950 . S
H290 C286 0.950 . S
C291 C289 1.390 . S
C291 C292 1.387 . S
C291 H294 0.950 . S
C292 C291 1.387 . S
C292 C295 1.387 . S
H293 C289 0.950 . S
H294 C291 0.950 . S
C295 C286 1.390 . S
C295 H288 0.950 . S
C295 C292 1.387 . S
C296 C297 1.389 1_545 S
C296 H300 0.940 1_545 S
C296 C305 1.399 . S
C297 C296 1.389 1_565 S
C297 C299 1.387 . S
H298 C305 0.950 . S
C299 C297 1.387 . S
C299 C301 1.390 1_565 S
C299 H303 0.950 . S
H300 C296 0.940 1_565 S
C301 C299 1.390 1_545 S
C301 C302 1.387 . S
C301 H304 0.950 . S
C302 C301 1.387 . S
C302 C305 1.387 . S
H303 C299 0.950 . S
H304 C301 0.950 . S
C305 C296 1.399 . S
C305 H298 0.950 . S
C305 C302 1.387 . S
C127 C37 1.172 . S
C132 C3 1.193 . S
C137 C23 1.183 . S
C142 C9 1.176 . S
C147 C17 1.238 . S
C152 C31 1.241 . S
C157 C73 1.200 . S
C162 C51 1.170 . S
C167 C65 1.165 . S
C172 C45 1.192 . S
C177 C59 1.206 . S
C182 C79 1.180 . S
C187 C87 1.198 . S
C192 C121 1.177 . S
C197 C93 1.127 . S
C202 C107 1.137 . S
C207 C101 1.185 . S
C212 C115 1.190 . S
C217 C8 1.416 . S
C222 C106 1.418 . S
C227 C21 1.411 . S
C232 C119 1.417 . S
C237 C91 1.400 . S
C242 C36 1.429 . S
C247 C63 1.390 . S
C252 C35 1.390 . S
C257 C7 1.403 . S
C262 C77 1.402 . S
C267 C49 1.415 . S
C272 C22 1.437 . S
C277 C105 1.396 . S
C282 C78 1.423 . S
C287 C50 1.432 . S
C292 C120 1.432 . S
C297 C92 1.443 . S
C302 C64 1.443 . S
