# Generated by pormake.
# Topology ilc, (8)-cn, num edge types: 1
# Building blocks:
#     Node 0, Type 0, BuildingBlock: EBIMEJ_clean_sbu_0, # of connection points: 8
#     Node 1, Type 0, BuildingBlock: EBIMEJ_clean_sbu_0, # of connection points: 8
#     Node 2, Type 0, BuildingBlock: EBIMEJ_clean_sbu_0, # of connection points: 8
#     Edge 3, Type (0, 0), BuildingBlock: UVAHIK_clean_linker_0, # of connection points: 2
#     Edge 4, Type (0, 0), BuildingBlock: UVAHIK_clean_linker_0, # of connection points: 2
#     Edge 5, Type (0, 0), BuildingBlock: UVAHIK_clean_linker_0, # of connection points: 2
#     Edge 6, Type (0, 0), BuildingBlock: UVAHIK_clean_linker_0, # of connection points: 2
#     Edge 7, Type (0, 0), BuildingBlock: UVAHIK_clean_linker_0, # of connection points: 2
#     Edge 8, Type (0, 0), BuildingBlock: UVAHIK_clean_linker_0, # of connection points: 2
#     Edge 9, Type (0, 0), BuildingBlock: UVAHIK_clean_linker_0, # of connection points: 2
#     Edge 10, Type (0, 0), BuildingBlock: UVAHIK_clean_linker_0, # of connection points: 2
#     Edge 11, Type (0, 0), BuildingBlock: UVAHIK_clean_linker_0, # of connection points: 2
#     Edge 12, Type (0, 0), BuildingBlock: UVAHIK_clean_linker_0, # of connection points: 2
#     Edge 13, Type (0, 0), BuildingBlock: UVAHIK_clean_linker_0, # of connection points: 2
#     Edge 14, Type (0, 0), BuildingBlock: UVAHIK_clean_linker_0, # of connection points: 2
# Relax obj value: 0.133
# Max RMSD: 0.226
# Mean RMSD: 0.226
data_MOF--net-ilc--node1-EBIMEJ_clean_sbu_0--edge1-UVAHIK_clean_linker_0
_symmetry_space_group_name_H-M    P1
_symmetry_Int_Tables_number       1
_symmetry_cell_setting            triclinic
loop_
_symmetry_equiv_pos_as_xyz
'x, y, z'
_cell_length_a     32.236073
_cell_length_b     29.243632
_cell_length_c     20.986796
_cell_angle_alpha  85.615354
_cell_angle_beta   96.262044
_cell_angle_gamma 136.59202
loop_
_atom_site_label
_atom_site_type_symbol
_atom_site_fract_x
_atom_site_fract_y
_atom_site_fract_z
_atom_type_partial_charge
Co0 Co 1.0028 0.96853 0.13604 0.0
Co1 Co 0.08216 0.01819 0.01533 0.0
Co2 Co 0.9884 0.02071 1.00822 0.0
H3 H 0.99826 0.98743 0.05949 0.0
O4 O 1.00131 0.96322 0.04503 0.0
H5 H 0.06253 0.03799 0.95836 0.0
O6 O 0.06305 0.06663 0.96758 0.0
Co7 Co 0.03701 0.02897 0.88158 0.0
O8 O 0.12114 0.06987 0.87424 0.0
O9 O 0.15967 0.07287 0.97227 0.0
O10 O 1.0072 0.07085 0.86246 0.0
O11 O 0.97552 0.07027 0.95313 0.0
O12 O 0.92915 0.90186 0.18899 0.0
O13 O 0.96914 0.87681 0.15696 0.0
O14 O 0.9732 0.93337 0.90736 0.0
O15 O 0.04336 0.94371 0.95483 0.0
C16 C 0.91593 0.97689 0.11863 0.0
C17 C 0.09826 0.97083 0.14 0.0
C18 C 1.01143 0.99417 0.76895 0.0
C19 C 0.07774 0.11 0.11987 0.0
C20 C 0.16381 0.08469 0.91153 0.0
C21 C 0.98437 0.08375 0.89303 0.0
C22 C 0.92718 0.85762 0.18696 0.0
C23 C 0.99322 0.90912 0.92118 0.0
O24 O 0.95513 0.9855 0.15589 0.0
O25 O 0.9152 0.97603 0.05719 0.0
O26 O 0.10308 0.97912 0.07878 0.0
O27 O 0.06872 0.97595 0.16851 0.0
O28 O 0.06178 0.02498 0.79858 0.0
O29 O 0.97571 0.98402 0.80305 0.0
O30 O 0.07466 0.06692 0.14552 0.0
O31 O 0.04226 0.09628 0.07168 0.0
Co32 Co 0.68999 0.33004 0.48172 0.0
Co33 Co 0.74544 0.35038 0.3494 0.0
Co34 Co 0.66285 0.36729 0.35188 0.0
H35 H 0.67548 0.33754 0.40435 0.0
O36 O 0.67309 0.30819 0.39204 0.0
H37 H 0.71939 0.36321 0.29307 0.0
O38 O 0.72529 0.39652 0.29871 0.0
Co39 Co 0.67987 0.34042 0.22205 0.0
O40 O 0.76151 0.37952 0.20197 0.0
O41 O 0.81267 0.39174 0.29353 0.0
O42 O 0.66214 0.39413 0.20161 0.0
O43 O 0.64932 0.41532 0.29422 0.0
O44 O 0.67205 0.28155 0.56724 0.0
O45 O 0.60195 0.24345 0.49813 0.0
O46 O 0.62002 0.25201 0.26535 0.0
O47 O 0.69418 0.26519 0.30099 0.0
C48 C 0.6105 0.3475 0.47313 0.0
C49 C 0.77284 0.31478 0.4756 0.0
C50 C 0.61799 0.27632 0.12281 0.0
C51 C 0.77426 0.46636 0.4396 0.0
C52 C 0.80822 0.39692 0.23207 0.0
C53 C 0.65012 0.41908 0.23249 0.0
C54 C 0.61598 0.23573 0.55279 0.0
C55 C 0.63925 0.227 0.27951 0.0
O56 O 0.65415 0.36077 0.50525 0.0
O57 O 0.6014 0.33808 0.41201 0.0
O58 O 0.77052 0.31606 0.41362 0.0
O59 O 0.75044 0.3276 0.50703 0.0
O60 O 0.5997 0.28431 0.16603 0.0
O61 O 0.67135 0.30487 0.13592 0.0
O62 O 0.76966 0.42177 0.46342 0.0
O63 O 0.73092 0.45117 0.40356 0.0
Co64 Co 0.35771 0.65399 0.81058 0.0
Co65 Co 0.42019 0.69163 0.68208 0.0
Co66 Co 0.33245 0.70211 0.68843 0.0
H67 H 0.34441 0.66876 0.7362 0.0
O68 O 0.34343 0.64204 0.71933 0.0
H69 H 0.40452 0.71961 0.63042 0.0
O70 O 0.40606 0.74767 0.64499 0.0
Co71 Co 0.38642 0.72561 0.55423 0.0
O72 O 0.44874 0.72786 0.53669 0.0
O73 O 0.49343 0.73951 0.63302 0.0
O74 O 0.34613 0.75598 0.5437 0.0
O75 O 0.31896 0.75381 0.63898 0.0
O76 O 0.3545 0.60122 0.88335 0.0
O77 O 0.27495 0.56511 0.83811 0.0
O78 O 0.31432 0.62803 0.56846 0.0
O79 O 0.3693 0.6158 0.61967 0.0
C80 C 0.26394 0.65398 0.80403 0.0
C81 C 0.44775 0.65238 0.79992 0.0
C82 C 0.40795 0.77059 0.44416 0.0
C83 C 0.43269 0.79293 0.78943 0.0
C84 C 0.49128 0.74055 0.57139 0.0
C85 C 0.3246 0.76765 0.57861 0.0
C86 C 0.2978 0.55493 0.88091 0.0
C87 C 0.32204 0.59192 0.5851 0.0
O88 O 0.30453 0.66176 0.83673 0.0
O89 O 0.26193 0.65758 0.74224 0.0
O90 O 0.438 0.64621 0.73827 0.0
O91 O 0.43105 0.67187 0.83125 0.0
O92 O 0.35906 0.73833 0.4685 0.0
O93 O 0.4447 0.77735 0.48266 0.0
O94 O 0.43385 0.75116 0.80518 0.0
O95 O 0.38912 0.77639 0.75284 0.0
C96 C 0.03419 0.97111 0.67491 0.0
C97 C 0.99385 0.96522 0.7051 0.0
C98 C 1.01535 0.93639 0.6185 0.0
C99 C 0.87322 0.79069 0.5243 0.0
H100 H 0.98661 0.86002 0.39833 0.0
C101 C 0.84565 0.78355 0.26042 0.0
C102 C 0.89224 0.80058 0.23056 0.0
C103 C 0.83451 0.75922 0.32284 0.0
C104 C 0.95458 0.83861 0.43396 0.0
H105 H 0.90341 0.92181 0.69888 0.0
H106 H 0.87066 0.8625 0.599 0.0
H107 H 0.02137 0.92402 0.49319 0.0
H108 H 0.9519 0.78934 0.23399 0.0
H109 H 0.93342 0.7484 0.34361 0.0
H110 H 0.80503 0.70856 0.4597 0.0
C111 C 0.91629 0.89203 0.61975 0.0
C112 C 0.97457 0.87586 0.48858 0.0
C113 C 0.9352 0.92667 0.67651 0.0
C114 C 0.91695 0.77832 0.25703 0.0
C115 C 0.90601 0.75433 0.31973 0.0
C116 C 0.85273 0.75428 0.46822 0.0
C117 C 0.95556 0.89482 0.59103 0.0
C118 C 0.93407 0.85321 0.53402 0.0
C119 C 0.87119 0.75379 0.35544 0.0
C120 C 0.89312 0.7786 0.42204 0.0
H121 H 0.07966 0.00036 0.69626 0.0
H122 H 0.04685 0.93924 0.59891 0.0
H123 H 0.84102 0.77032 0.55923 0.0
H124 H 0.82459 0.79845 0.23977 0.0
H125 H 0.80595 0.75728 0.34872 0.0
C126 C 0.58958 0.17078 0.65246 0.0
C127 C 0.57167 0.18594 0.59868 0.0
C128 C 0.55263 0.13538 0.70313 0.0
C129 C 0.46377 0.1397 0.78091 0.0
H130 H 0.4811 0.05166 0.9102 0.0
C131 C 0.52056 0.20366 0.05326 0.0
C132 C 0.58072 0.23603 0.06473 0.0
C133 C 0.48575 0.16523 0.99773 0.0
C134 C 0.47409 0.07461 0.87444 0.0
H135 H 0.49918 0.17125 0.5523 0.0
H136 H 0.43521 0.11121 0.64241 0.0
H137 H 0.47487 0.03189 0.79686 0.0
H138 H 0.65168 0.25389 0.02774 0.0
H139 H 0.59118 0.18707 0.93141 0.0
H140 H 0.47007 0.18822 0.85869 0.0
C141 C 0.47729 0.12572 0.64497 0.0
C142 C 0.47049 0.06335 0.80972 0.0
C143 C 0.51392 0.16017 0.59361 0.0
C144 C 0.60543 0.22933 0.02026 0.0
C145 C 0.57067 0.19065 0.96549 0.0
C146 C 0.46736 0.15092 0.84569 0.0
C147 C 0.49762 0.11568 0.70139 0.0
C148 C 0.47108 0.10068 0.76274 0.0
C149 C 0.51055 0.15792 0.954 0.0
C150 C 0.47788 0.12284 0.89249 0.0
H151 H 0.63376 0.1898 0.65704 0.0
H152 H 0.57011 0.12928 0.74612 0.0
H153 H 0.46382 0.16882 0.74579 0.0
H154 H 0.50064 0.20842 0.08688 0.0
H155 H 0.43986 0.14151 0.98882 0.0
C156 C 0.29884 0.51034 0.984 0.0
C157 C 0.26613 0.51252 0.93656 0.0
C158 C 0.29567 0.51602 0.0481 0.0
C159 C 0.2907 0.62334 0.10326 0.0
H160 H 0.35949 0.61787 0.26297 0.0
C161 C 0.3671 0.7658 0.33572 0.0
C162 C 0.41269 0.77852 0.37498 0.0
C163 C 0.35174 0.74001 0.27443 0.0
C164 C 0.34118 0.62036 0.21801 0.0
H165 H 0.19058 0.49953 0.91778 0.0
H166 H 0.1842 0.50812 0.02969 0.0
H167 H 0.30179 0.52697 0.18598 0.0
H168 H 0.48682 0.78911 0.3776 0.0
H169 H 0.45971 0.74373 0.27038 0.0
H170 H 0.33054 0.71702 0.13533 0.0
C171 C 0.21463 0.50589 0.01795 0.0
C172 C 0.30723 0.56779 0.17472 0.0
C173 C 0.21796 0.5004 0.95375 0.0
C174 C 0.45053 0.77814 0.34841 0.0
C175 C 0.43481 0.75175 0.28733 0.0
C176 C 0.32431 0.67565 0.14675 0.0
C177 C 0.25922 0.52298 0.06395 0.0
C178 C 0.28235 0.56916 0.11645 0.0
C179 C 0.382 0.72699 0.25269 0.0
C180 C 0.35065 0.67508 0.20389 0.0
H181 H 0.33481 0.51716 0.9715 0.0
H182 H 0.32933 0.5268 0.08281 0.0
H183 H 0.27381 0.62713 0.0579 0.0
H184 H 0.33831 0.76733 0.35513 0.0
H185 H 0.31144 0.7223 0.24795 0.0
C186 C 0.25734 0.78577 0.55884 0.0
C187 C 0.30625 0.79822 0.54349 0.0
C188 C 0.2358 0.80644 0.51715 0.0
C189 C 0.27724 0.91613 0.37241 0.0
H190 H 0.10486 0.80226 0.3494 0.0
C191 C 0.16782 0.9559 0.16442 0.0
C192 C 0.12287 0.94953 0.18193 0.0
C193 C 0.1905 0.93723 0.20744 0.0
C194 C 0.15327 0.835 0.35528 0.0
H195 H 0.37221 0.84532 0.47307 0.0
H196 H 0.33466 0.87889 0.40161 0.0
H197 H 0.14396 0.77398 0.42961 0.0
H198 H 0.06568 0.91601 0.25884 0.0
H199 H 0.10441 0.88425 0.3316 0.0
H200 H 0.28625 0.97658 0.29735 0.0
C201 C 0.31284 0.85433 0.44565 0.0
C202 C 0.17587 0.8189 0.40193 0.0
C203 C 0.33425 0.83422 0.48695 0.0
C204 C 0.10058 0.92255 0.24293 0.0
C205 C 0.12251 0.90346 0.28508 0.0
C206 C 0.25457 0.93187 0.32541 0.0
C207 C 0.26272 0.84024 0.45915 0.0
C208 C 0.23836 0.8591 0.41144 0.0
C209 C 0.16807 0.91069 0.26857 0.0
C210 C 0.19221 0.89176 0.31613 0.0
H211 H 0.23422 0.75783 0.60148 0.0
H212 H 0.19759 0.79522 0.53014 0.0
H213 H 0.32574 0.94954 0.37848 0.0
H214 H 0.1861 0.97617 0.11811 0.0
H215 H 0.22534 0.94317 0.19264 0.0
C216 C 0.23617 0.50532 0.50696 0.0
C217 C 0.28351 0.52773 0.55195 0.0
C218 C 0.2093 0.45411 0.46443 0.0
C219 C 0.25507 0.39229 0.38464 0.0
H220 H 0.08828 0.25971 0.31326 0.0
C221 C 0.15966 0.19193 0.20264 0.0
C222 C 0.11438 0.17211 0.15591 0.0
C223 C 0.18337 0.23921 0.24868 0.0
C224 C 0.1352 0.29727 0.33218 0.0
H225 H 0.33463 0.50869 0.5929 0.0
H226 H 0.2871 0.41869 0.51883 0.0
H227 H 0.11587 0.32406 0.4071 0.0
H228 H 0.06234 0.19045 0.11706 0.0
H229 H 0.10468 0.27412 0.19726 0.0
H230 H 0.27457 0.36597 0.30961 0.0
C231 C 0.27208 0.44209 0.51545 0.0
C232 C 0.15079 0.33355 0.38615 0.0
C233 C 0.299 0.49334 0.55803 0.0
C234 C 0.09718 0.20474 0.15253 0.0
C235 C 0.12077 0.25193 0.19888 0.0
C236 C 0.2395 0.35611 0.33073 0.0
C237 C 0.22917 0.42433 0.46635 0.0
C238 C 0.21092 0.38147 0.41279 0.0
C239 C 0.16222 0.2675 0.24881 0.0
C240 C 0.17949 0.30843 0.30386 0.0
H241 H 0.22258 0.53019 0.50163 0.0
H242 H 0.1762 0.44134 0.42715 0.0
H243 H 0.30207 0.43005 0.40326 0.0
H244 H 0.17402 0.16785 0.2061 0.0
H245 H 0.21529 0.25026 0.28658 0.0
C246 C 0.51897 0.72235 0.47778 0.0
C247 C 0.538 0.75705 0.53526 0.0
C248 C 0.56032 0.74535 0.43376 0.0
C249 C 0.70896 0.9011 0.38106 0.0
H250 H 0.69164 0.78301 0.27757 0.0
C251 C 0.88643 -0.00182 0.20697 0.0
C252 C 0.86844 0.96162 0.15145 0.0
C253 C 0.8447 0.97484 0.25064 0.0
C254 C 0.69658 0.81674 0.30513 0.0
H255 H 0.61617 0.8422 0.59252 0.0
H256 H 0.68939 0.88251 0.51562 0.0
H257 H 0.62599 0.7377 0.36432 0.0
H258 H 0.79164 0.87269 0.09715 0.0
H259 H 0.71764 0.83232 0.17266 0.0
H260 H 0.77903 0.98006 0.32162 0.0
C261 C 0.64192 0.83737 0.50459 0.0
C262 C 0.65909 0.79072 0.35543 0.0
C263 C 0.60022 0.8138 0.54922 0.0
C264 C 0.80669 0.90271 0.13872 0.0
C265 C 0.76459 0.87901 0.18282 0.0
C266 C 0.74625 0.9271 0.3306 0.0
C267 C 0.62225 0.80425 0.44547 0.0
C268 C 0.66472 0.8325 0.39424 0.0
C269 C 0.78337 0.91383 0.24046 0.0
C270 C 0.74082 0.88541 0.29183 0.0
H271 H 0.47122 0.67877 0.46525 0.0
H272 H 0.54307 0.71872 0.38884 0.0
H273 H 0.7139 0.93475 0.40883 0.0
H274 H 0.93389 0.04321 0.21868 0.0
H275 H 0.86151 0.00297 0.29438 0.0
C276 C 0.82264 0.2748 0.48907 0.0
C277 C 0.79949 0.29488 0.51548 0.0
C278 C 0.844 0.25319 0.52912 0.0
C279 C 0.83121 0.18618 0.69394 0.0
H280 H 0.9794 0.242 0.66581 0.0
C281 C 0.93759 0.12712 0.87884 0.0
C282 C 0.96579 0.11261 0.85372 0.0
C283 C 0.91835 0.15092 0.83867 0.0
C284 C 0.9374 0.22496 0.67426 0.0
H285 H 0.78225 0.30846 0.60609 0.0
H286 H 0.81865 0.27154 0.67377 0.0
H287 H 0.94287 0.2766 0.59129 0.0
H288 H 0.99521 0.11226 0.76532 0.0
H289 H 0.96124 0.15131 0.69711 0.0
H290 H 0.82512 0.13387 0.77637 0.0
C291 C 0.81981 0.27142 0.6224 0.0
C292 C 0.91643 0.24499 0.63114 0.0
C293 C 0.79918 0.2933 0.58295 0.0
C294 C 0.97429 0.12308 0.7875 0.0
C295 C 0.955 0.14628 0.74776 0.0
C296 C 0.8519 0.16571 0.73681 0.0
C297 C 0.8421 0.25041 0.59646 0.0
C298 C 0.86313 0.22621 0.64039 0.0
C299 C 0.92669 0.16077 0.77225 0.0
C300 C 0.90541 0.18468 0.72782 0.0
H301 H 0.82361 0.27499 0.43764 0.0
H302 H 0.86078 0.23728 0.50724 0.0
H303 H 0.78953 0.16987 0.70247 0.0
H304 H 0.92996 0.11967 0.92929 0.0
H305 H 0.89725 0.16195 0.85987 0.0
C306 C 0.87198 0.54948 0.50559 0.0
C307 C 0.82363 0.5333 0.46834 0.0
C308 C 0.90721 0.60087 0.55055 0.0
C309 C 0.93934 0.74002 0.61082 0.0
H310 H 0.92503 0.66599 0.77896 0.0
C311 C 0.92707 0.83018 0.82937 0.0
C312 C 0.97156 0.85544 0.8799 0.0
C313 C 0.91666 0.79211 0.78103 0.0
C314 C 0.93001 0.6875 0.73231 0.0
H315 H 0.77971 0.56395 0.44266 0.0
H316 H 0.84125 0.65363 0.52107 0.0
H317 H 0.90274 0.60689 0.68252 0.0
H318 H 0.03572 0.85492 0.92253 0.0
H319 H 1.01587 0.78627 0.83821 0.0
H320 H 0.96325 0.81813 0.66088 0.0
C321 C 0.85176 0.62648 0.51575 0.0
C322 C 0.91776 0.65416 0.67721 0.0
C323 C 0.81638 0.57496 0.47081 0.0
C324 C 1.00138 0.83654 0.88404 0.0
C325 C 0.99022 0.79744 0.83589 0.0
C326 C 0.9509 0.77268 0.66569 0.0
C327 C 0.89512 0.63735 0.55836 0.0
C328 C 0.92039 0.67916 0.61592 0.0
C329 C 0.94957 0.77734 0.78281 0.0
C330 C 0.94441 0.74574 0.72658 0.0
H331 H 0.87939 0.51891 0.50385 0.0
H332 H 0.94121 0.60923 0.58198 0.0
H333 H 0.94292 0.76088 0.56428 0.0
H334 H 0.90281 0.84314 0.82484 0.0
H335 H 0.8844 0.77624 0.74086 0.0
C336 C 0.58459 0.36424 0.57071 0.0
C337 C 0.56516 0.33174 0.51158 0.0
C338 C 0.54312 0.34107 0.61483 0.0
C339 C 0.37759 0.22421 0.634 0.0
H340 H 0.42676 0.23491 0.81417 0.0
C341 C 0.20233 0.07711 0.8215 0.0
C342 C 0.21564 0.10955 0.8784 0.0
C343 C 0.24722 0.10515 0.78047 0.0
C344 C 0.41246 0.23209 0.76418 0.0
H345 H 0.48626 0.24965 0.45224 0.0
H346 H 0.41355 0.20838 0.5293 0.0
H347 H 0.49859 0.28254 0.73373 0.0
H348 H 0.28769 0.19587 0.93832 0.0
H349 H 0.36741 0.24543 0.86627 0.0
H350 H 0.29127 0.17301 0.66445 0.0
C351 C 0.461 0.25296 0.54127 0.0
C352 C 0.45378 0.25967 0.71772 0.0
C353 C 0.50268 0.2768 0.49663 0.0
C354 C 0.27616 0.16935 0.89522 0.0
C355 C 0.32164 0.1978 0.85368 0.0
C356 C 0.33633 0.19647 0.68033 0.0
C357 C 0.4807 0.28389 0.60178 0.0
C358 C 0.43693 0.25583 0.65171 0.0
C359 C 0.3072 0.16697 0.79464 0.0
C360 C 0.35287 0.19939 0.7461 0.0
H361 H 0.63246 0.40662 0.58389 0.0
H362 H 0.56037 0.36761 0.65978 0.0
H363 H 0.36289 0.22132 0.58418 0.0
H364 H 0.15618 0.03067 0.80736 0.0
H365 H 0.23447 0.07887 0.73662 0.0
C366 C 0.63649 0.45205 0.12446 0.0
C367 C 0.63414 0.44993 0.19165 0.0
C368 C 0.61777 0.47513 0.08332 0.0
C369 C 0.59151 0.57918 0.0731 0.0
H370 H 0.49557 0.48008 0.91589 0.0
C371 C 0.48479 0.64386 0.90708 0.0
C372 C 0.47521 0.63349 0.84008 0.0
C373 C 0.50532 0.6227 0.9481 0.0
C374 C 0.52316 0.50922 0.95885 0.0
H375 H 0.61092 0.47299 0.26729 0.0
H376 H 0.57895 0.51489 0.19478 0.0
H377 H 0.52682 0.44096 0.99257 0.0
H378 H 0.48159 0.59281 0.76457 0.0
H379 H 0.51985 0.55751 0.83644 0.0
H380 H 0.58948 0.64842 0.03913 0.0
C381 C 0.59529 0.4978 0.17448 0.0
C382 C 0.54084 0.48642 1.00333 0.0
C383 C 0.61367 0.4738 0.21619 0.0
C384 C 0.48847 0.60206 0.81555 0.0
C385 C 0.50987 0.58118 0.85714 0.0
C386 C 0.57445 0.60242 0.02835 0.0
C387 C 0.59622 0.49775 0.10722 0.0
C388 C 0.57524 0.52095 0.06126 0.0
C389 C 0.51842 0.59099 0.92437 0.0
C390 C 0.53954 0.56768 0.97047 0.0
H391 H 0.6522 0.43485 0.10273 0.0
H392 H 0.62057 0.47552 0.03228 0.0
H393 H 0.6188 0.60784 0.11641 0.0
H394 H 0.47527 0.66754 0.92894 0.0
H395 H 0.5094 0.63005 0.99907 0.0
C396 C 0.46076 0.8912 0.82949 0.0
C397 C 0.47394 0.85502 0.82692 0.0
C398 C 0.48816 0.93738 0.87847 0.0
C399 C 0.54222 0.95624 0.04469 0.0
H400 H 0.58232 0.11724 0.03548 0.0
C401 C 0.63593 0.14347 0.24909 0.0
C402 C 0.60796 0.16438 0.24762 0.0
C403 C 0.61764 0.09834 0.20343 0.0
C404 C 0.57049 0.07194 0.03828 0.0
H405 H 0.53217 0.84533 0.8678 0.0
H406 H 0.58013 0.92635 0.95303 0.0
H407 H 0.56718 0.06625 0.93659 0.0
H408 H 0.53304 0.14675 0.20373 0.0
H409 H 0.50246 0.06948 0.12324 0.0
H410 H 0.54614 0.96285 0.14681 0.0
C411 C 0.54743 0.91755 0.91837 0.0
C412 C 0.56228 0.0431 0.98209 0.0
C413 C 0.52016 0.8715 0.86939 0.0
C414 C 0.55643 0.13284 0.20528 0.0
C415 C 0.53884 0.08864 0.15917 0.0
C416 C 0.55097 0.98563 0.10107 0.0
C417 C 0.5293 0.94819 0.9252 0.0
C418 C 0.54678 0.98421 0.98468 0.0
C419 C 0.57143 0.07399 0.15596 0.0
C420 C 0.56364 0.04274 0.09786 0.0
H421 H 0.42571 0.88002 0.79716 0.0
H422 H 0.4734 0.96042 0.88269 0.0
H423 H 0.52959 0.91029 0.04791 0.0
H424 H 0.67515 0.1661 0.28185 0.0
H425 H 0.64301 0.08714 0.20179 0.0
C426 C 0.15709 0.59649 0.81782 0.0
C427 C 0.2174 0.6366 0.84208 0.0
C428 C 0.11277 0.5724 0.85893 0.0
C429 C 0.0943 0.5974 0.02292 0.0
H430 H 0.93717 0.4141 1.00337 0.0
C431 C 0.91716 0.46203 0.2154 0.0
C432 C 0.85683 0.42227 0.19125 0.0
C433 C 0.96187 0.48823 0.17379 0.0
C434 C 0.98065 0.46561 1.00941 0.0
H435 H 0.2784 0.68487 0.92841 0.0
H436 H 0.20245 0.64327 0.99864 0.0
H437 H 1.01152 0.46206 0.92626 0.0
H438 H 0.7965 0.37731 0.10414 0.0
H439 H 0.87319 0.42236 0.03321 0.0
H440 H 0.06345 0.60074 0.10631 0.0
C441 C 0.18871 0.63043 0.94824 0.0
C442 C 0.02333 0.4933 0.96475 0.0
C443 C 0.2325 0.65411 0.90761 0.0
C444 C 0.84238 0.40808 0.12496 0.0
C445 C 0.88653 0.43356 0.0839 0.0
C446 C 0.05166 0.56965 0.06766 0.0
C447 C 0.1279 0.58833 0.92506 0.0
C448 C 0.08092 0.55966 0.97075 0.0
C449 C 0.94711 0.47447 0.10728 0.0
C450 C 0.99407 0.50334 0.06156 0.0
H451 H 0.14366 0.5815 0.7679 0.0
H452 H 0.06652 0.54067 0.83902 0.0
H453 H 0.13774 0.64892 0.02898 0.0
H454 H 0.93005 0.47407 0.266 0.0
H455 H 1.00799 0.5191 0.19375 0.0
loop_
_geom_bond_atom_site_label_1
_geom_bond_atom_site_label_2
_geom_bond_distance
_geom_bond_site_symmetry_2
_ccdc_geom_bond_type
Co0 H3 2.400 . S
Co0 O4 2.009 . S
Co0 O12 2.115 . S
Co0 O13 2.315 . S
Co0 O24 2.053 . S
Co0 O27 2.094 1_655 S
Co0 O30 2.122 1_665 S
Co1 O4 2.126 1_456 S
Co1 H5 2.388 1_565 S
Co1 O6 2.053 1_565 S
Co1 O9 2.047 1_565 S
Co1 O15 2.113 1_455 S
Co1 O26 2.063 1_556 S
Co2 H3 2.388 1_545 S
Co2 O4 2.053 1_545 S
Co2 O6 2.126 1_654 S
Co2 O11 2.063 1_554 S
Co2 O25 2.047 1_545 S
Co2 O31 2.113 1_655 S
H3 Co0 2.400 . S
H3 Co2 2.388 1_565 S
H3 O4 0.760 . S
O4 Co0 2.009 . S
O4 Co1 2.126 1_654 S
O4 Co2 2.053 1_565 S
O4 H3 0.760 . S
H5 Co1 2.388 1_545 S
H5 O6 0.760 . S
H5 Co7 2.400 . S
O6 Co1 2.053 1_545 S
O6 Co2 2.126 1_456 S
O6 H5 0.760 . S
O6 Co7 2.009 . S
Co7 H5 2.400 . S
Co7 O6 2.009 . S
Co7 O8 2.053 . S
Co7 O10 2.094 1_455 S
Co7 O14 2.122 1_445 S
Co7 O28 2.115 . S
Co7 O29 2.315 . S
O8 Co7 2.053 . S
O8 C20 1.259 . S
O9 Co1 2.047 1_545 S
O9 C20 1.257 . S
O10 Co7 2.094 1_655 S
O10 C21 1.253 . S
O11 Co2 2.063 1_556 S
O11 C21 1.268 . S
O12 Co0 2.115 . S
O12 C22 1.281 . S
O13 Co0 2.315 . S
O13 C22 1.252 . S
O14 Co7 2.122 1_665 S
O14 C23 1.272 . S
O15 Co1 2.113 1_655 S
O15 C23 1.245 . S
C16 O24 1.259 . S
C16 O25 1.257 . S
C17 O26 1.268 . S
C17 O27 1.253 . S
C18 O28 1.281 . S
C18 O29 1.252 . S
C19 O30 1.272 . S
C19 O31 1.245 . S
C20 O8 1.259 . S
C20 O9 1.257 . S
C21 O10 1.253 . S
C21 O11 1.268 . S
C22 O12 1.281 . S
C22 O13 1.252 . S
C23 O14 1.272 . S
C23 O15 1.245 . S
O24 Co0 2.053 . S
O24 C16 1.259 . S
O25 Co2 2.047 1_565 S
O25 C16 1.257 . S
O26 Co1 2.063 1_554 S
O26 C17 1.268 . S
O27 Co0 2.094 1_455 S
O27 C17 1.253 . S
O28 Co7 2.115 . S
O28 C18 1.281 . S
O29 Co7 2.315 . S
O29 C18 1.252 . S
O30 Co0 2.122 1_445 S
O30 C19 1.272 . S
O31 Co2 2.113 1_455 S
O31 C19 1.245 . S
Co32 H35 2.400 . S
Co32 O36 2.009 . S
Co32 O44 2.115 . S
Co32 O45 2.315 . S
Co32 O56 2.053 . S
Co32 O59 2.094 . S
Co32 O62 2.122 . S
Co33 O36 2.126 . S
Co33 H37 2.388 . S
Co33 O38 2.053 . S
Co33 O41 2.047 . S
Co33 O47 2.113 . S
Co33 O58 2.063 . S
Co34 H35 2.388 . S
Co34 O36 2.053 . S
Co34 O38 2.126 . S
Co34 O43 2.063 . S
Co34 O57 2.047 . S
Co34 O63 2.113 . S
H35 Co32 2.400 . S
H35 Co34 2.388 . S
H35 O36 0.760 . S
O36 Co32 2.009 . S
O36 Co33 2.126 . S
O36 Co34 2.053 . S
O36 H35 0.760 . S
H37 Co33 2.388 . S
H37 O38 0.760 . S
H37 Co39 2.400 . S
O38 Co33 2.053 . S
O38 Co34 2.126 . S
O38 H37 0.760 . S
O38 Co39 2.009 . S
Co39 H37 2.400 . S
Co39 O38 2.009 . S
Co39 O40 2.053 . S
Co39 O42 2.094 . S
Co39 O46 2.122 . S
Co39 O60 2.115 . S
Co39 O61 2.315 . S
O40 Co39 2.053 . S
O40 C52 1.259 . S
O41 Co33 2.047 . S
O41 C52 1.257 . S
O42 Co39 2.094 . S
O42 C53 1.253 . S
O43 Co34 2.063 . S
O43 C53 1.268 . S
O44 Co32 2.115 . S
O44 C54 1.281 . S
O45 Co32 2.315 . S
O45 C54 1.252 . S
O46 Co39 2.122 . S
O46 C55 1.272 . S
O47 Co33 2.113 . S
O47 C55 1.245 . S
C48 O56 1.259 . S
C48 O57 1.257 . S
C49 O58 1.268 . S
C49 O59 1.253 . S
C50 O60 1.281 . S
C50 O61 1.252 . S
C51 O62 1.272 . S
C51 O63 1.245 . S
C52 O40 1.259 . S
C52 O41 1.257 . S
C53 O42 1.253 . S
C53 O43 1.268 . S
C54 O44 1.281 . S
C54 O45 1.252 . S
C55 O46 1.272 . S
C55 O47 1.245 . S
O56 Co32 2.053 . S
O56 C48 1.259 . S
O57 Co34 2.047 . S
O57 C48 1.257 . S
O58 Co33 2.063 . S
O58 C49 1.268 . S
O59 Co32 2.094 . S
O59 C49 1.253 . S
O60 Co39 2.115 . S
O60 C50 1.281 . S
O61 Co39 2.315 . S
O61 C50 1.252 . S
O62 Co32 2.122 . S
O62 C51 1.272 . S
O63 Co34 2.113 . S
O63 C51 1.245 . S
Co64 H67 2.400 . S
Co64 O68 2.009 . S
Co64 O76 2.115 . S
Co64 O77 2.315 . S
Co64 O88 2.053 . S
Co64 O91 2.094 . S
Co64 O94 2.122 . S
Co65 O68 2.126 . S
Co65 H69 2.388 . S
Co65 O70 2.053 . S
Co65 O73 2.047 . S
Co65 O79 2.113 . S
Co65 O90 2.063 . S
Co66 H67 2.388 . S
Co66 O68 2.053 . S
Co66 O70 2.126 . S
Co66 O75 2.063 . S
Co66 O89 2.047 . S
Co66 O95 2.113 . S
H67 Co64 2.400 . S
H67 Co66 2.388 . S
H67 O68 0.760 . S
O68 Co64 2.009 . S
O68 Co65 2.126 . S
O68 Co66 2.053 . S
O68 H67 0.760 . S
H69 Co65 2.388 . S
H69 O70 0.760 . S
H69 Co71 2.400 . S
O70 Co65 2.053 . S
O70 Co66 2.126 . S
O70 H69 0.760 . S
O70 Co71 2.009 . S
Co71 H69 2.400 . S
Co71 O70 2.009 . S
Co71 O72 2.053 . S
Co71 O74 2.094 . S
Co71 O78 2.122 . S
Co71 O92 2.115 . S
Co71 O93 2.315 . S
O72 Co71 2.053 . S
O72 C84 1.259 . S
O73 Co65 2.047 . S
O73 C84 1.257 . S
O74 Co71 2.094 . S
O74 C85 1.253 . S
O75 Co66 2.063 . S
O75 C85 1.268 . S
O76 Co64 2.115 . S
O76 C86 1.281 . S
O77 Co64 2.315 . S
O77 C86 1.252 . S
O78 Co71 2.122 . S
O78 C87 1.272 . S
O79 Co65 2.113 . S
O79 C87 1.245 . S
C80 O88 1.259 . S
C80 O89 1.257 . S
C81 O90 1.268 . S
C81 O91 1.253 . S
C82 O92 1.281 . S
C82 O93 1.252 . S
C83 O94 1.272 . S
C83 O95 1.245 . S
C84 O72 1.259 . S
C84 O73 1.257 . S
C85 O74 1.253 . S
C85 O75 1.268 . S
C86 O76 1.281 . S
C86 O77 1.252 . S
C87 O78 1.272 . S
C87 O79 1.245 . S
O88 Co64 2.053 . S
O88 C80 1.259 . S
O89 Co66 2.047 . S
O89 C80 1.257 . S
O90 Co65 2.063 . S
O90 C81 1.268 . S
O91 Co64 2.094 . S
O91 C81 1.253 . S
O92 Co71 2.115 . S
O92 C82 1.281 . S
O93 Co71 2.315 . S
O93 C82 1.252 . S
O94 Co64 2.122 . S
O94 C83 1.272 . S
O95 Co66 2.113 . S
O95 C83 1.245 . S
C96 C97 1.349 . S
C96 C98 1.327 . S
C96 H121 0.950 . S
C97 C96 1.349 . S
C97 C113 1.349 . S
C98 C96 1.327 . S
C98 C117 1.429 . S
C98 H122 0.950 . S
C99 C116 1.574 . S
C99 C118 1.368 1_665 S
C99 H123 0.949 . S
H100 C104 0.949 . S
C101 C102 1.349 . S
C101 C103 1.327 . S
C101 H124 0.950 . S
C102 C101 1.349 . S
C102 C114 1.349 . S
C103 C101 1.327 . S
C103 C119 1.429 . S
C103 H125 0.950 . S
C104 H100 0.949 . S
C104 C112 1.574 . S
C104 C120 1.368 1_445 S
H105 C113 0.950 1_655 S
H106 C111 0.950 1_565 S
H107 C112 0.949 . S
H108 C114 0.950 1_455 S
H109 C115 0.950 1_545 S
H110 C116 0.949 . S
C111 H106 0.950 1_545 S
C111 C113 1.327 1_655 S
C111 C117 1.429 1_655 S
C112 C104 1.574 . S
C112 H107 0.949 . S
C112 C118 1.368 . S
C113 C97 1.349 . S
C113 H105 0.950 1_455 S
C113 C111 1.327 1_455 S
C114 C102 1.349 . S
C114 H108 0.950 1_655 S
C114 C115 1.327 1_655 S
C115 H109 0.950 1_565 S
C115 C114 1.327 1_455 S
C115 C119 1.429 1_455 S
C116 C99 1.574 . S
C116 H110 0.949 . S
C116 C120 1.368 . S
C117 C98 1.429 . S
C117 C111 1.429 1_455 S
C117 C118 1.523 . S
C118 C99 1.368 1_445 S
C118 C112 1.368 . S
C118 C117 1.523 . S
C119 C103 1.429 . S
C119 C115 1.429 1_655 S
C119 C120 1.523 . S
C120 C104 1.368 1_665 S
C120 C116 1.368 . S
C120 C119 1.523 . S
H121 C96 0.950 . S
H122 C98 0.950 . S
H123 C99 0.949 . S
H124 C101 0.950 . S
H125 C103 0.950 . S
C126 C127 1.349 . S
C126 C128 1.327 . S
C126 H151 0.950 . S
C127 C126 1.349 . S
C127 C143 1.349 . S
C128 C126 1.327 . S
C128 C147 1.429 . S
C128 H152 0.950 . S
C129 C146 1.574 . S
C129 C148 1.368 . S
C129 H153 0.949 . S
H130 C134 0.949 . S
C131 C132 1.349 . S
C131 C133 1.327 1_554 S
C131 H154 0.950 . S
C132 C131 1.349 . S
C132 C144 1.349 . S
C133 C131 1.327 1_556 S
C133 C149 1.429 . S
C133 H155 0.950 . S
C134 H130 0.949 . S
C134 C142 1.574 . S
C134 C150 1.368 . S
H135 C143 0.950 . S
H136 C141 0.950 . S
H137 C142 0.949 . S
H138 C144 0.950 . S
H139 C145 0.950 . S
H140 C146 0.949 . S
C141 H136 0.950 . S
C141 C143 1.327 . S
C141 C147 1.429 . S
C142 C134 1.574 . S
C142 H137 0.949 . S
C142 C148 1.368 . S
C143 C127 1.349 . S
C143 H135 0.950 . S
C143 C141 1.327 . S
C144 C132 1.349 . S
C144 H138 0.950 . S
C144 C145 1.327 . S
C145 H139 0.950 . S
C145 C144 1.327 . S
C145 C149 1.429 1_554 S
C146 C129 1.574 . S
C146 H140 0.949 . S
C146 C150 1.368 . S
C147 C128 1.429 . S
C147 C141 1.429 . S
C147 C148 1.523 . S
C148 C129 1.368 . S
C148 C142 1.368 . S
C148 C147 1.523 . S
C149 C133 1.429 . S
C149 C145 1.429 1_556 S
C149 C150 1.523 . S
C150 C134 1.368 . S
C150 C146 1.368 . S
C150 C149 1.523 . S
H151 C126 0.950 . S
H152 C128 0.950 . S
H153 C129 0.949 . S
H154 C131 0.950 . S
H155 C133 0.950 . S
C156 C157 1.349 . S
C156 C158 1.327 1_556 S
C156 H181 0.950 . S
C157 C156 1.349 . S
C157 C173 1.349 . S
C158 C156 1.327 1_554 S
C158 C177 1.429 . S
C158 H182 0.950 . S
C159 C176 1.574 . S
C159 C178 1.368 . S
C159 H183 0.949 . S
H160 C164 0.949 . S
C161 C162 1.349 . S
C161 C163 1.327 . S
C161 H184 0.950 . S
C162 C161 1.349 . S
C162 C174 1.349 . S
C163 C161 1.327 . S
C163 C179 1.429 . S
C163 H185 0.950 . S
C164 H160 0.949 . S
C164 C172 1.574 . S
C164 C180 1.368 . S
H165 C173 0.950 . S
H166 C171 0.950 1_554 S
H167 C172 0.949 . S
H168 C174 0.950 . S
H169 C175 0.950 . S
H170 C176 0.949 . S
C171 H166 0.950 1_556 S
C171 C173 1.327 . S
C171 C177 1.429 1_556 S
C172 C164 1.574 . S
C172 H167 0.949 . S
C172 C178 1.368 . S
C173 C157 1.349 . S
C173 H165 0.950 . S
C173 C171 1.327 . S
C174 C162 1.349 . S
C174 H168 0.950 . S
C174 C175 1.327 . S
C175 H169 0.950 . S
C175 C174 1.327 . S
C175 C179 1.429 . S
C176 C159 1.574 . S
C176 H170 0.949 . S
C176 C180 1.368 . S
C177 C158 1.429 . S
C177 C171 1.429 1_554 S
C177 C178 1.523 . S
C178 C159 1.368 . S
C178 C172 1.368 . S
C178 C177 1.523 . S
C179 C163 1.429 . S
C179 C175 1.429 . S
C179 C180 1.523 . S
C180 C164 1.368 . S
C180 C176 1.368 . S
C180 C179 1.523 . S
H181 C156 0.950 . S
H182 C158 0.950 . S
H183 C159 0.949 . S
H184 C161 0.950 . S
H185 C163 0.950 . S
C186 C187 1.349 . S
C186 C188 1.327 . S
C186 H211 0.950 . S
C187 C186 1.349 . S
C187 C203 1.349 . S
C188 C186 1.327 . S
C188 C207 1.429 . S
C188 H212 0.950 . S
C189 C206 1.574 . S
C189 C208 1.368 . S
C189 H213 0.949 . S
H190 C194 0.949 . S
C191 C192 1.349 . S
C191 C193 1.327 . S
C191 H214 0.950 1_565 S
C192 C191 1.349 . S
C192 C204 1.349 . S
C193 C191 1.327 . S
C193 C209 1.429 . S
C193 H215 0.950 . S
C194 H190 0.949 . S
C194 C202 1.574 . S
C194 C210 1.368 . S
H195 C203 0.950 . S
H196 C201 0.950 . S
H197 C202 0.949 . S
H198 C204 0.950 . S
H199 C205 0.950 . S
H200 C206 0.949 . S
C201 H196 0.950 . S
C201 C203 1.327 . S
C201 C207 1.429 . S
C202 C194 1.574 . S
C202 H197 0.949 . S
C202 C208 1.368 . S
C203 C187 1.349 . S
C203 H195 0.950 . S
C203 C201 1.327 . S
C204 C192 1.349 . S
C204 H198 0.950 . S
C204 C205 1.327 . S
C205 H199 0.950 . S
C205 C204 1.327 . S
C205 C209 1.429 . S
C206 C189 1.574 . S
C206 H200 0.949 . S
C206 C210 1.368 . S
C207 C188 1.429 . S
C207 C201 1.429 . S
C207 C208 1.523 . S
C208 C189 1.368 . S
C208 C202 1.368 . S
C208 C207 1.523 . S
C209 C193 1.429 . S
C209 C205 1.429 . S
C209 C210 1.523 . S
C210 C194 1.368 . S
C210 C206 1.368 . S
C210 C209 1.523 . S
H211 C186 0.950 . S
H212 C188 0.950 . S
H213 C189 0.949 . S
H214 C191 0.950 1_545 S
H215 C193 0.950 . S
C216 C217 1.349 . S
C216 C218 1.327 . S
C216 H241 0.950 . S
C217 C216 1.349 . S
C217 C233 1.349 . S
C218 C216 1.327 . S
C218 C237 1.429 . S
C218 H242 0.950 . S
C219 C236 1.574 . S
C219 C238 1.368 . S
C219 H243 0.949 . S
H220 C224 0.949 . S
C221 C222 1.349 . S
C221 C223 1.327 . S
C221 H244 0.950 . S
C222 C221 1.349 . S
C222 C234 1.349 . S
C223 C221 1.327 . S
C223 C239 1.429 . S
C223 H245 0.950 . S
C224 H220 0.949 . S
C224 C232 1.574 . S
C224 C240 1.368 . S
H225 C233 0.950 . S
H226 C231 0.950 . S
H227 C232 0.949 . S
H228 C234 0.950 1_655 S
H229 C235 0.950 . S
H230 C236 0.949 . S
C231 H226 0.950 . S
C231 C233 1.327 . S
C231 C237 1.429 . S
C232 C224 1.574 . S
C232 H227 0.949 . S
C232 C238 1.368 . S
C233 C217 1.349 . S
C233 H225 0.950 . S
C233 C231 1.327 . S
C234 C222 1.349 . S
C234 H228 0.950 1_455 S
C234 C235 1.327 . S
C235 H229 0.950 . S
C235 C234 1.327 . S
C235 C239 1.429 . S
C236 C219 1.574 . S
C236 H230 0.949 . S
C236 C240 1.368 . S
C237 C218 1.429 . S
C237 C231 1.429 . S
C237 C238 1.523 . S
C238 C219 1.368 . S
C238 C232 1.368 . S
C238 C237 1.523 . S
C239 C223 1.429 . S
C239 C235 1.429 . S
C239 C240 1.523 . S
C240 C224 1.368 . S
C240 C236 1.368 . S
C240 C239 1.523 . S
H241 C216 0.950 . S
H242 C218 0.950 . S
H243 C219 0.949 . S
H244 C221 0.950 . S
H245 C223 0.950 . S
C246 C247 1.349 . S
C246 C248 1.327 . S
C246 H271 0.950 . S
C247 C246 1.349 . S
C247 C263 1.349 . S
C248 C246 1.327 . S
C248 C267 1.429 . S
C248 H272 0.950 . S
C249 C266 1.574 . S
C249 C268 1.368 . S
C249 H273 0.949 . S
H250 C254 0.949 . S
C251 C252 1.349 . S
C251 C253 1.327 . S
C251 H274 0.950 1_565 S
C252 C251 1.349 . S
C252 C264 1.349 . S
C253 C251 1.327 . S
C253 C269 1.429 . S
C253 H275 0.950 . S
C254 H250 0.949 . S
C254 C262 1.574 . S
C254 C270 1.368 . S
H255 C263 0.950 . S
H256 C261 0.950 . S
H257 C262 0.949 . S
H258 C264 0.950 . S
H259 C265 0.950 . S
H260 C266 0.949 . S
C261 H256 0.950 . S
C261 C263 1.327 . S
C261 C267 1.429 . S
C262 C254 1.574 . S
C262 H257 0.949 . S
C262 C268 1.368 . S
C263 C247 1.349 . S
C263 H255 0.950 . S
C263 C261 1.327 . S
C264 C252 1.349 . S
C264 H258 0.950 . S
C264 C265 1.327 . S
C265 H259 0.950 . S
C265 C264 1.327 . S
C265 C269 1.429 . S
C266 C249 1.574 . S
C266 H260 0.949 . S
C266 C270 1.368 . S
C267 C248 1.429 . S
C267 C261 1.429 . S
C267 C268 1.523 . S
C268 C249 1.368 . S
C268 C262 1.368 . S
C268 C267 1.523 . S
C269 C253 1.429 . S
C269 C265 1.429 . S
C269 C270 1.523 . S
C270 C254 1.368 . S
C270 C266 1.368 . S
C270 C269 1.523 . S
H271 C246 0.950 . S
H272 C248 0.950 . S
H273 C249 0.949 . S
H274 C251 0.950 1_545 S
H275 C253 0.950 . S
C276 C277 1.349 . S
C276 C278 1.327 . S
C276 H301 0.950 . S
C277 C276 1.349 . S
C277 C293 1.349 . S
C278 C276 1.327 . S
C278 C297 1.429 . S
C278 H302 0.950 . S
C279 C296 1.574 . S
C279 C298 1.368 . S
C279 H303 0.949 . S
H280 C284 0.949 . S
C281 C282 1.349 . S
C281 C283 1.327 . S
C281 H304 0.950 . S
C282 C281 1.349 . S
C282 C294 1.349 . S
C283 C281 1.327 . S
C283 C299 1.429 . S
C283 H305 0.950 . S
C284 H280 0.949 . S
C284 C292 1.574 . S
C284 C300 1.368 . S
H285 C293 0.950 . S
H286 C291 0.950 . S
H287 C292 0.949 . S
H288 C294 0.950 . S
H289 C295 0.950 . S
H290 C296 0.949 . S
C291 H286 0.950 . S
C291 C293 1.327 . S
C291 C297 1.429 . S
C292 C284 1.574 . S
C292 H287 0.949 . S
C292 C298 1.368 . S
C293 C277 1.349 . S
C293 H285 0.950 . S
C293 C291 1.327 . S
C294 C282 1.349 . S
C294 H288 0.950 . S
C294 C295 1.327 . S
C295 H289 0.950 . S
C295 C294 1.327 . S
C295 C299 1.429 . S
C296 C279 1.574 . S
C296 H290 0.949 . S
C296 C300 1.368 . S
C297 C278 1.429 . S
C297 C291 1.429 . S
C297 C298 1.523 . S
C298 C279 1.368 . S
C298 C292 1.368 . S
C298 C297 1.523 . S
C299 C283 1.429 . S
C299 C295 1.429 . S
C299 C300 1.523 . S
C300 C284 1.368 . S
C300 C296 1.368 . S
C300 C299 1.523 . S
H301 C276 0.950 . S
H302 C278 0.950 . S
H303 C279 0.949 . S
H304 C281 0.950 . S
H305 C283 0.950 . S
C306 C307 1.349 . S
C306 C308 1.327 . S
C306 H331 0.950 . S
C307 C306 1.349 . S
C307 C323 1.349 . S
C308 C306 1.327 . S
C308 C327 1.429 . S
C308 H332 0.950 . S
C309 C326 1.574 . S
C309 C328 1.368 . S
C309 H333 0.949 . S
H310 C314 0.949 . S
C311 C312 1.349 . S
C311 C313 1.327 . S
C311 H334 0.950 . S
C312 C311 1.349 . S
C312 C324 1.349 . S
C313 C311 1.327 . S
C313 C329 1.429 . S
C313 H335 0.950 . S
C314 H310 0.949 . S
C314 C322 1.574 . S
C314 C330 1.368 . S
H315 C323 0.950 . S
H316 C321 0.950 . S
H317 C322 0.949 . S
H318 C324 0.950 . S
H319 C325 0.950 . S
H320 C326 0.949 . S
C321 H316 0.950 . S
C321 C323 1.327 . S
C321 C327 1.429 . S
C322 C314 1.574 . S
C322 H317 0.949 . S
C322 C328 1.368 . S
C323 C307 1.349 . S
C323 H315 0.950 . S
C323 C321 1.327 . S
C324 C312 1.349 . S
C324 H318 0.950 . S
C324 C325 1.327 . S
C325 H319 0.950 . S
C325 C324 1.327 . S
C325 C329 1.429 . S
C326 C309 1.574 . S
C326 H320 0.949 . S
C326 C330 1.368 . S
C327 C308 1.429 . S
C327 C321 1.429 . S
C327 C328 1.523 . S
C328 C309 1.368 . S
C328 C322 1.368 . S
C328 C327 1.523 . S
C329 C313 1.429 . S
C329 C325 1.429 . S
C329 C330 1.523 . S
C330 C314 1.368 . S
C330 C326 1.368 . S
C330 C329 1.523 . S
H331 C306 0.950 . S
H332 C308 0.950 . S
H333 C309 0.949 . S
H334 C311 0.950 . S
H335 C313 0.950 . S
C336 C337 1.349 . S
C336 C338 1.327 . S
C336 H361 0.950 . S
C337 C336 1.349 . S
C337 C353 1.349 . S
C338 C336 1.327 . S
C338 C357 1.429 . S
C338 H362 0.950 . S
C339 C356 1.574 . S
C339 C358 1.368 . S
C339 H363 0.949 . S
H340 C344 0.949 . S
C341 C342 1.349 . S
C341 C343 1.327 . S
C341 H364 0.950 . S
C342 C341 1.349 . S
C342 C354 1.349 . S
C343 C341 1.327 . S
C343 C359 1.429 . S
C343 H365 0.950 . S
C344 H340 0.949 . S
C344 C352 1.574 . S
C344 C360 1.368 . S
H345 C353 0.950 . S
H346 C351 0.950 . S
H347 C352 0.949 . S
H348 C354 0.950 . S
H349 C355 0.950 . S
H350 C356 0.949 . S
C351 H346 0.950 . S
C351 C353 1.327 . S
C351 C357 1.429 . S
C352 C344 1.574 . S
C352 H347 0.949 . S
C352 C358 1.368 . S
C353 C337 1.349 . S
C353 H345 0.950 . S
C353 C351 1.327 . S
C354 C342 1.349 . S
C354 H348 0.950 . S
C354 C355 1.327 . S
C355 H349 0.950 . S
C355 C354 1.327 . S
C355 C359 1.429 . S
C356 C339 1.574 . S
C356 H350 0.949 . S
C356 C360 1.368 . S
C357 C338 1.429 . S
C357 C351 1.429 . S
C357 C358 1.523 . S
C358 C339 1.368 . S
C358 C352 1.368 . S
C358 C357 1.523 . S
C359 C343 1.429 . S
C359 C355 1.429 . S
C359 C360 1.523 . S
C360 C344 1.368 . S
C360 C356 1.368 . S
C360 C359 1.523 . S
H361 C336 0.950 . S
H362 C338 0.950 . S
H363 C339 0.949 . S
H364 C341 0.950 . S
H365 C343 0.950 . S
C366 C367 1.349 . S
C366 C368 1.327 . S
C366 H391 0.950 . S
C367 C366 1.349 . S
C367 C383 1.349 . S
C368 C366 1.327 . S
C368 C387 1.429 . S
C368 H392 0.950 . S
C369 C386 1.574 . S
C369 C388 1.368 . S
C369 H393 0.949 . S
H370 C374 0.949 . S
C371 C372 1.349 . S
C371 C373 1.327 . S
C371 H394 0.950 . S
C372 C371 1.349 . S
C372 C384 1.349 . S
C373 C371 1.327 . S
C373 C389 1.429 . S
C373 H395 0.950 . S
C374 H370 0.949 . S
C374 C382 1.574 . S
C374 C390 1.368 . S
H375 C383 0.950 . S
H376 C381 0.950 . S
H377 C382 0.949 . S
H378 C384 0.950 . S
H379 C385 0.950 . S
H380 C386 0.949 . S
C381 H376 0.950 . S
C381 C383 1.327 . S
C381 C387 1.429 . S
C382 C374 1.574 . S
C382 H377 0.949 . S
C382 C388 1.368 1_556 S
C383 C367 1.349 . S
C383 H375 0.950 . S
C383 C381 1.327 . S
C384 C372 1.349 . S
C384 H378 0.950 . S
C384 C385 1.327 . S
C385 H379 0.950 . S
C385 C384 1.327 . S
C385 C389 1.429 . S
C386 C369 1.574 . S
C386 H380 0.949 . S
C386 C390 1.368 1_554 S
C387 C368 1.429 . S
C387 C381 1.429 . S
C387 C388 1.523 . S
C388 C369 1.368 . S
C388 C382 1.368 1_554 S
C388 C387 1.523 . S
C389 C373 1.429 . S
C389 C385 1.429 . S
C389 C390 1.523 . S
C390 C374 1.368 . S
C390 C386 1.368 1_556 S
C390 C389 1.523 . S
H391 C366 0.950 . S
H392 C368 0.950 . S
H393 C369 0.949 . S
H394 C371 0.950 . S
H395 C373 0.950 . S
C396 C397 1.349 . S
C396 C398 1.327 . S
C396 H421 0.950 . S
C397 C396 1.349 . S
C397 C413 1.349 . S
C398 C396 1.327 . S
C398 C417 1.429 . S
C398 H422 0.950 . S
C399 C416 1.563 1_556 S
C399 C418 1.379 . S
C399 H423 0.949 . S
H400 C404 0.949 . S
C401 C402 1.349 . S
C401 C403 1.327 . S
C401 H424 0.950 . S
C402 C401 1.349 . S
C402 C414 1.349 . S
C403 C401 1.327 . S
C403 C419 1.429 . S
C403 H425 0.950 . S
C404 H400 0.949 . S
C404 C412 1.563 1_554 S
C404 C420 1.379 . S
H405 C413 0.950 . S
H406 C411 0.950 . S
H407 C412 0.949 . S
H408 C414 0.950 . S
H409 C415 0.950 . S
H410 C416 0.949 . S
C411 H406 0.950 . S
C411 C413 1.327 . S
C411 C417 1.429 . S
C412 C404 1.563 1_556 S
C412 H407 0.949 . S
C412 C418 1.368 1_545 S
C413 C397 1.349 . S
C413 H405 0.950 . S
C413 C411 1.327 . S
C414 C402 1.349 . S
C414 H408 0.950 . S
C414 C415 1.327 . S
C415 H409 0.950 . S
C415 C414 1.327 . S
C415 C419 1.429 . S
C416 C399 1.563 1_554 S
C416 H410 0.949 . S
C416 C420 1.368 1_565 S
C417 C398 1.429 . S
C417 C411 1.429 . S
C417 C418 1.523 . S
C418 C399 1.379 . S
C418 C412 1.368 1_565 S
C418 C417 1.523 . S
C419 C403 1.429 . S
C419 C415 1.429 . S
C419 C420 1.523 . S
C420 C404 1.379 . S
C420 C416 1.368 1_545 S
C420 C419 1.523 . S
H421 C396 0.950 . S
H422 C398 0.950 . S
H423 C399 0.949 . S
H424 C401 0.950 . S
H425 C403 0.950 . S
C426 C427 1.349 . S
C426 C428 1.327 . S
C426 H451 0.950 . S
C427 C426 1.349 . S
C427 C443 1.349 . S
C428 C426 1.327 . S
C428 C447 1.429 . S
C428 H452 0.950 . S
C429 C446 1.574 1_456 S
C429 C448 1.368 . S
C429 H453 0.949 . S
H430 C434 0.949 . S
C431 C432 1.349 . S
C431 C433 1.327 . S
C431 H454 0.950 . S
C432 C431 1.349 . S
C432 C444 1.349 . S
C433 C431 1.327 . S
C433 C449 1.429 . S
C433 H455 0.950 . S
C434 H430 0.949 . S
C434 C442 1.574 1_654 S
C434 C450 1.368 . S
H435 C443 0.950 . S
H436 C441 0.950 . S
H437 C442 0.949 . S
H438 C444 0.950 . S
H439 C445 0.950 . S
H440 C446 0.949 . S
C441 H436 0.950 . S
C441 C443 1.327 . S
C441 C447 1.429 . S
C442 C434 1.574 1_456 S
C442 H437 0.949 . S
C442 C448 1.368 . S
C443 C427 1.349 . S
C443 H435 0.950 . S
C443 C441 1.327 . S
C444 C432 1.349 . S
C444 H438 0.950 . S
C444 C445 1.327 . S
C445 H439 0.950 . S
C445 C444 1.327 . S
C445 C449 1.429 . S
C446 C429 1.574 1_654 S
C446 H440 0.949 . S
C446 C450 1.368 . S
C447 C428 1.429 . S
C447 C441 1.429 . S
C447 C448 1.523 . S
C448 C429 1.368 . S
C448 C442 1.368 . S
C448 C447 1.523 . S
C449 C433 1.429 . S
C449 C445 1.429 . S
C449 C450 1.523 . S
C450 C434 1.368 . S
C450 C446 1.368 . S
C450 C449 1.523 . S
H451 C426 0.950 . S
H452 C428 0.950 . S
H453 C429 0.949 . S
H454 C431 0.950 . S
H455 C433 0.950 . S
C97 C18 0.665 . S
C102 C22 0.665 . S
C127 C54 0.665 . S
C132 C50 0.665 . S
C157 C86 0.665 . S
C162 C82 0.665 . S
C187 C85 2.686 . S
C192 C17 2.685 . S
C217 C87 0.790 . S
C222 C19 0.788 . S
C247 C84 1.727 . S
C252 C16 1.727 . S
C277 C49 2.686 . S
C282 C21 2.687 . S
C307 C51 0.790 . S
C312 C23 0.792 . S
C337 C48 1.727 . S
C342 C20 1.727 . S
C367 C53 2.686 . S
C372 C81 2.686 . S
C397 C83 0.790 . S
C402 C55 0.790 . S
C427 C80 1.727 . S
C432 C52 1.727 . S
