# Generated by pormake.
# Topology ung, (4)-cn, num edge types: 1
# Building blocks:
#     Node 0, Type 0, BuildingBlock: KUFVIS_clean_sbu_0, # of connection points: 4
#     Node 1, Type 0, BuildingBlock: KUFVIS_clean_sbu_0, # of connection points: 4
#     Node 2, Type 0, BuildingBlock: KUFVIS_clean_sbu_0, # of connection points: 4
#     Node 3, Type 0, BuildingBlock: KUFVIS_clean_sbu_0, # of connection points: 4
#     Node 4, Type 0, BuildingBlock: KUFVIS_clean_sbu_0, # of connection points: 4
#     Node 5, Type 0, BuildingBlock: KUFVIS_clean_sbu_0, # of connection points: 4
#     Node 6, Type 0, BuildingBlock: KUFVIS_clean_sbu_0, # of connection points: 4
#     Node 7, Type 0, BuildingBlock: KUFVIS_clean_sbu_0, # of connection points: 4
#     Node 8, Type 0, BuildingBlock: KUFVIS_clean_sbu_0, # of connection points: 4
#     Node 9, Type 0, BuildingBlock: KUFVIS_clean_sbu_0, # of connection points: 4
#     Node 10, Type 0, BuildingBlock: KUFVIS_clean_sbu_0, # of connection points: 4
#     Node 11, Type 0, BuildingBlock: KUFVIS_clean_sbu_0, # of connection points: 4
#     Node 12, Type 0, BuildingBlock: KUFVIS_clean_sbu_0, # of connection points: 4
#     Node 13, Type 0, BuildingBlock: KUFVIS_clean_sbu_0, # of connection points: 4
#     Node 14, Type 0, BuildingBlock: KUFVIS_clean_sbu_0, # of connection points: 4
#     Node 15, Type 0, BuildingBlock: KUFVIS_clean_sbu_0, # of connection points: 4
#     Node 16, Type 0, BuildingBlock: KUFVIS_clean_sbu_0, # of connection points: 4
#     Node 17, Type 0, BuildingBlock: KUFVIS_clean_sbu_0, # of connection points: 4
#     Edge 18, Type (0, 0), BuildingBlock: EZIPEK_clean_linker_0, # of connection points: 2
#     Edge 19, Type (0, 0), BuildingBlock: EZIPEK_clean_linker_0, # of connection points: 2
#     Edge 20, Type (0, 0), BuildingBlock: EZIPEK_clean_linker_0, # of connection points: 2
#     Edge 21, Type (0, 0), BuildingBlock: EZIPEK_clean_linker_0, # of connection points: 2
#     Edge 22, Type (0, 0), BuildingBlock: EZIPEK_clean_linker_0, # of connection points: 2
#     Edge 23, Type (0, 0), BuildingBlock: EZIPEK_clean_linker_0, # of connection points: 2
#     Edge 24, Type (0, 0), BuildingBlock: EZIPEK_clean_linker_0, # of connection points: 2
#     Edge 25, Type (0, 0), BuildingBlock: EZIPEK_clean_linker_0, # of connection points: 2
#     Edge 26, Type (0, 0), BuildingBlock: EZIPEK_clean_linker_0, # of connection points: 2
#     Edge 27, Type (0, 0), BuildingBlock: EZIPEK_clean_linker_0, # of connection points: 2
#     Edge 28, Type (0, 0), BuildingBlock: EZIPEK_clean_linker_0, # of connection points: 2
#     Edge 29, Type (0, 0), BuildingBlock: EZIPEK_clean_linker_0, # of connection points: 2
#     Edge 30, Type (0, 0), BuildingBlock: EZIPEK_clean_linker_0, # of connection points: 2
#     Edge 31, Type (0, 0), BuildingBlock: EZIPEK_clean_linker_0, # of connection points: 2
#     Edge 32, Type (0, 0), BuildingBlock: EZIPEK_clean_linker_0, # of connection points: 2
#     Edge 33, Type (0, 0), BuildingBlock: EZIPEK_clean_linker_0, # of connection points: 2
#     Edge 34, Type (0, 0), BuildingBlock: EZIPEK_clean_linker_0, # of connection points: 2
#     Edge 35, Type (0, 0), BuildingBlock: EZIPEK_clean_linker_0, # of connection points: 2
#     Edge 36, Type (0, 0), BuildingBlock: EZIPEK_clean_linker_0, # of connection points: 2
#     Edge 37, Type (0, 0), BuildingBlock: EZIPEK_clean_linker_0, # of connection points: 2
#     Edge 38, Type (0, 0), BuildingBlock: EZIPEK_clean_linker_0, # of connection points: 2
#     Edge 39, Type (0, 0), BuildingBlock: EZIPEK_clean_linker_0, # of connection points: 2
#     Edge 40, Type (0, 0), BuildingBlock: EZIPEK_clean_linker_0, # of connection points: 2
#     Edge 41, Type (0, 0), BuildingBlock: EZIPEK_clean_linker_0, # of connection points: 2
#     Edge 42, Type (0, 0), BuildingBlock: EZIPEK_clean_linker_0, # of connection points: 2
#     Edge 43, Type (0, 0), BuildingBlock: EZIPEK_clean_linker_0, # of connection points: 2
#     Edge 44, Type (0, 0), BuildingBlock: EZIPEK_clean_linker_0, # of connection points: 2
#     Edge 45, Type (0, 0), BuildingBlock: EZIPEK_clean_linker_0, # of connection points: 2
#     Edge 46, Type (0, 0), BuildingBlock: EZIPEK_clean_linker_0, # of connection points: 2
#     Edge 47, Type (0, 0), BuildingBlock: EZIPEK_clean_linker_0, # of connection points: 2
#     Edge 48, Type (0, 0), BuildingBlock: EZIPEK_clean_linker_0, # of connection points: 2
#     Edge 49, Type (0, 0), BuildingBlock: EZIPEK_clean_linker_0, # of connection points: 2
#     Edge 50, Type (0, 0), BuildingBlock: EZIPEK_clean_linker_0, # of connection points: 2
#     Edge 51, Type (0, 0), BuildingBlock: EZIPEK_clean_linker_0, # of connection points: 2
#     Edge 52, Type (0, 0), BuildingBlock: EZIPEK_clean_linker_0, # of connection points: 2
#     Edge 53, Type (0, 0), BuildingBlock: EZIPEK_clean_linker_0, # of connection points: 2
# Relax obj value: 0.111
# Max RMSD: 0.237
# Mean RMSD: 0.223
data_MOF--net-ung--node1-KUFVIS_clean_sbu_0--edge1-EZIPEK_clean_linker_0
_symmetry_space_group_name_H-M    P1
_symmetry_Int_Tables_number       1
_symmetry_cell_setting            triclinic
loop_
_symmetry_equiv_pos_as_xyz
'x, y, z'
_cell_length_a     52.700854
_cell_length_b     53.492661
_cell_length_c     16.250644
_cell_angle_alpha  89.916795
_cell_angle_beta   89.218316
_cell_angle_gamma 120.46514
loop_
_atom_site_label
_atom_site_type_symbol
_atom_site_fract_x
_atom_site_fract_y
_atom_site_fract_z
_atom_type_partial_charge
Mn0 Mn 0.10499 0.6448 0.22852 0.0
Mn1 Mn 0.03774 0.58786 0.18837 0.0
C2 C 0.0732 0.65221 0.14913 0.0
C3 C 0.13401 0.68137 0.32031 0.0
C4 C 0.09397 0.59894 0.10015 0.0
O5 O 0.10069 0.61364 0.30846 0.0
O6 O 0.0536 0.57885 0.2881 0.0
C7 C 0.00642 0.59198 0.33555 0.0
N8 N 0.00916 0.59165 0.25215 0.0
C9 C 0.9681 0.59886 0.23314 0.0
C10 C 0.9647 0.59905 0.31882 0.0
C11 C 0.98398 0.59565 0.37022 0.0
C12 C 0.99089 0.59515 0.20214 0.0
H13 H 0.02135 0.58962 0.37527 0.0
C14 C 0.07812 0.58909 0.32541 0.0
O15 O 0.14589 0.672 0.26726 0.0
O16 O 0.10563 0.66919 0.32104 0.0
N17 N 0.01926 0.59299 0.09447 0.0
C18 C 0.02474 0.59108 0.01323 0.0
C19 C 0.0075 0.5942 0.95351 0.0
C20 C 0.98432 0.59847 0.97798 0.0
C21 C 0.97819 0.59894 0.062 0.0
C22 C 0.99607 0.59561 0.11866 0.0
H23 H 0.04235 0.58753 0.99403 0.0
O24 O 0.10111 0.67118 0.14955 0.0
O25 O 0.06462 0.62972 0.19734 0.0
O26 O 0.11177 0.62327 0.13323 0.0
O27 O 0.06651 0.58368 0.11891 0.0
C28 C 0.95501 0.60252 0.09178 0.0
C29 C 0.95002 0.60257 0.17729 0.0
H30 H 0.94747 0.60197 0.34581 0.0
H31 H 0.98161 0.59595 0.43641 0.0
H32 H 0.0121 0.59334 0.8888 0.0
H33 H 0.97117 0.60104 0.93176 0.0
H34 H 0.94094 0.60537 0.04945 0.0
H35 H 0.93227 0.60557 0.19945 0.0
Mn36 Mn 0.52303 0.47981 0.25526 0.0
Mn37 Mn 0.51311 0.53592 0.29815 0.0
C38 C 0.48635 0.47284 0.34805 0.0
C39 C 0.5127 0.44255 0.16363 0.0
C40 C 0.56192 0.52873 0.37192 0.0
O41 O 0.54729 0.50957 0.1674 0.0
O42 O 0.53451 0.54326 0.19016 0.0
C43 C 0.47163 0.52641 0.16455 0.0
N44 N 0.47789 0.5292 0.24621 0.0
C45 C 0.42966 0.52066 0.28212 0.0
C46 C 0.42278 0.51796 0.19835 0.0
C47 C 0.44384 0.52078 0.13935 0.0
C48 C 0.45769 0.52621 0.30353 0.0
H49 H 0.48764 0.52828 0.11905 0.0
C50 C 0.54785 0.5329 0.14858 0.0
O51 O 0.53575 0.45293 0.20995 0.0
O52 O 0.49593 0.45358 0.17082 0.0
N53 N 0.49264 0.53228 0.39974 0.0
C54 C 0.5031 0.53648 0.47778 0.0
C55 C 0.4847 0.53422 0.54421 0.0
C56 C 0.45601 0.52838 0.52958 0.0
C57 C 0.44621 0.52551 0.44848 0.0
C58 C 0.4656 0.52812 0.38477 0.0
H59 H 0.52522 0.54121 0.48944 0.0
O60 O 0.49534 0.45437 0.34391 0.0
O61 O 0.49846 0.4943 0.29531 0.0
O62 O 0.5547 0.50401 0.3408 0.0
O63 O 0.54895 0.54294 0.35588 0.0
C64 C 0.41798 0.52019 0.42835 0.0
C65 C 0.40968 0.51768 0.34523 0.0
H66 H 0.40134 0.51353 0.17868 0.0
H67 H 0.43862 0.51851 0.07462 0.0
H68 H 0.4926 0.5369 0.60654 0.0
H69 H 0.4418 0.52645 0.58099 0.0
H70 H 0.40243 0.51785 0.47633 0.0
H71 H 0.38782 0.51331 0.33056 0.0
Mn72 Mn 0.67071 0.06159 0.23691 0.0
Mn73 Mn 0.66918 0.12371 0.25107 0.0
C74 C 0.70975 0.10405 0.18109 0.0
C75 C 0.68137 0.02922 0.30216 0.0
C76 C 0.63554 0.07813 0.12219 0.0
O77 O 0.63814 0.05108 0.32058 0.0
O78 O 0.64028 0.09394 0.32986 0.0
C79 C 0.69239 0.13872 0.41974 0.0
N80 N 0.69404 0.14603 0.33872 0.0
C81 C 0.7322 0.19498 0.36465 0.0
C82 C 0.73114 0.18796 0.44828 0.0
C83 C 0.71133 0.15959 0.47579 0.0
C84 C 0.71384 0.17288 0.31103 0.0
H85 H 0.67657 0.11724 0.44147 0.0
C86 C 0.62971 0.06745 0.35126 0.0
O87 O 0.6625 0.02065 0.24287 0.0
O88 O 0.69421 0.0563 0.32192 0.0
N89 N 0.69531 0.15538 0.181 0.0
C90 C 0.69151 0.1593 0.10017 0.0
C91 C 0.70801 0.18691 0.06405 0.0
C92 C 0.72721 0.21054 0.11226 0.0
C93 C 0.73062 0.20622 0.19556 0.0
C94 C 0.71406 0.17803 0.22779 0.0
H95 H 0.67511 0.14175 0.06411 0.0
O96 O 0.70514 0.07874 0.15992 0.0
O97 O 0.69175 0.10393 0.23742 0.0
O98 O 0.64327 0.05997 0.14456 0.0
O99 O 0.64393 0.10225 0.15824 0.0
C100 C 0.74833 0.22903 0.24911 0.0
C101 C 0.7498 0.22329 0.33303 0.0
H102 H 0.74511 0.20427 0.49205 0.0
H103 H 0.71019 0.154 0.54031 0.0
H104 H 0.70492 0.19021 8e-05 0.0
H105 H 0.73832 0.23205 0.08517 0.0
H106 H 0.76062 0.2512 0.227 0.0
H107 H 0.76374 0.241 0.37325 0.0
Mn108 Mn 0.09196 0.48826 0.72606 0.0
Mn109 Mn 0.02924 0.49017 0.72478 0.0
C110 C 0.05016 0.44901 0.66963 0.0
C111 C 0.12187 0.4782 0.80923 0.0
C112 C 0.07967 0.52298 0.60068 0.0
O113 O 0.10079 0.52212 0.80028 0.0
O114 O 0.05585 0.51672 0.81037 0.0
C115 C 0.00715 0.46408 0.88969 0.0
N116 N 0.003 0.46414 0.80712 0.0
C117 C 0.95273 0.42572 0.82117 0.0
C118 C 0.95636 0.42519 0.90636 0.0
C119 C 0.98382 0.44424 0.94065 0.0
C120 C 0.97716 0.44504 0.77305 0.0
H121 H 0.02808 0.47911 0.91645 0.0
C122 C 0.08266 0.52848 0.83194 0.0
O123 O 0.13283 0.49525 0.74521 0.0
O124 O 0.09391 0.46689 0.82236 0.0
N125 N 0.0002 0.46585 0.64745 0.0
C126 C -0.00037 0.47081 0.5654 0.0
C127 C 0.97353 0.45427 0.52198 0.0
C128 C 0.94782 0.43394 0.56416 0.0
C129 C 0.94857 0.42985 0.64914 0.0
C130 C 0.97549 0.44627 0.68864 0.0
H131 H 0.01875 0.4878 0.53353 0.0
O132 O 0.07617 0.45272 0.65702 0.0
O133 O 0.04925 0.46783 0.71888 0.0
O134 O 0.09635 0.51338 0.62411 0.0
O135 O 0.05543 0.51691 0.637 0.0
C136 C 0.92335 0.41139 0.69706 0.0
C137 C 0.92557 0.40868 0.78254 0.0
H138 H 0.93815 0.41045 0.94608 0.0
H139 H 0.98684 0.44401 0.00633 0.0
H140 H 0.97296 0.45799 0.45673 0.0
H141 H 0.92744 0.42238 0.53099 0.0
H142 H 0.90195 0.39952 0.66941 0.0
H143 H 0.90605 0.3941 0.81832 0.0
Mn144 Mn 0.67068 0.63422 0.75482 0.0
Mn145 Mn 0.60872 0.63801 0.74728 0.0
C146 C 0.66893 0.67092 0.8245 0.0
C147 C 0.71431 0.6453 0.68706 0.0
C148 C 0.61559 0.59731 0.86305 0.0
O149 O 0.64823 0.60655 0.66436 0.0
O150 O 0.60849 0.61163 0.65871 0.0
C151 C 0.6214 0.66879 0.58692 0.0
N152 N 0.61606 0.66789 0.66939 0.0
C153 C 0.62184 0.7155 0.66535 0.0
C154 C 0.62769 0.71703 0.5805 0.0
C155 C 0.62738 0.69352 0.54109 0.0
C156 C 0.61608 0.6903 0.70778 0.0
H157 H 0.62103 0.65077 0.55632 0.0
C158 C 0.62394 0.60071 0.6335 0.0
O159 O 0.70237 0.62418 0.74071 0.0
O160 O 0.70137 0.65996 0.67443 0.0
N161 N 0.60553 0.66255 0.82727 0.0
C162 C 0.5966 0.65646 0.90756 0.0
C163 C 0.59501 0.67744 0.95564 0.0
C164 C 0.60173 0.70408 0.91998 0.0
C165 C 0.60912 0.70914 0.83599 0.0
C166 C 0.61026 0.68737 0.79122 0.0
H167 H 0.5911 0.63589 0.93506 0.0
O168 O 0.68888 0.66438 0.84071 0.0
O169 O 0.65117 0.65645 0.76479 0.0
O170 O 0.64187 0.6043 0.84067 0.0
O171 O 0.60115 0.60815 0.83109 0.0
C172 C 0.61514 0.73481 0.79476 0.0
C173 C 0.62159 0.73802 0.70953 0.0
H174 H 0.63234 0.73608 0.54497 0.0
H175 H 0.63173 0.69446 0.47554 0.0
H176 H 0.58867 0.6731 0.02001 0.0
H177 H 0.60062 0.72027 0.95731 0.0
H178 H 0.61472 0.75215 0.82791 0.0
H179 H 0.62613 0.75783 0.67846 0.0
Mn180 Mn 0.52307 0.07006 0.72211 0.0
Mn181 Mn 0.50885 0.00212 0.76424 0.0
C182 C 0.48559 0.04136 0.81361 0.0
C183 C 0.516 0.10028 0.63293 0.0
C184 C 0.55791 0.0553 0.84546 0.0
O185 O 0.54552 0.06348 0.63276 0.0
O186 O 0.53519 0.01823 0.66378 0.0
C187 C 0.47338 0.97378 0.61697 0.0
N188 N 0.47571 0.97597 0.7003 0.0
C189 C 0.42594 0.93646 0.71929 0.0
C190 C 0.42291 0.93409 0.63364 0.0
C191 C 0.44676 0.95282 0.58227 0.0
C192 C 0.45292 0.95797 0.75029 0.0
H193 H 0.49175 0.98775 0.57734 0.0
C194 C 0.54768 0.04135 0.6191 0.0
O195 O 0.53893 0.11074 0.67977 0.0
O196 O 0.49737 0.07276 0.63876 0.0
N197 N 0.48388 0.98332 0.85808 0.0
C198 C 0.49095 0.98722 0.93927 0.0
C199 C 0.46964 0.9699 0.99891 0.0
C200 C 0.44159 0.94813 0.97442 0.0
C201 C 0.43529 0.94357 0.8904 0.0
C202 C 0.45736 0.96165 0.83379 0.0
H203 H 0.51261 0.00364 0.95852 0.0
O204 O 0.49666 0.06923 0.81163 0.0
O205 O 0.49612 0.03082 0.75939 0.0
O206 O 0.55425 0.07416 0.80653 0.0
O207 O 0.54204 0.02795 0.8344 0.0
C208 C 0.408 0.92173 0.8606 0.0
C209 C 0.40328 0.91825 0.7751 0.0
H210 H 0.40245 0.91787 0.60666 0.0
H211 H 0.44468 0.951 0.51608 0.0
H212 H 0.47485 0.97328 0.06359 0.0
H213 H 0.42518 0.93484 0.02058 0.0
H214 H 0.39044 0.90755 0.90291 0.0
H215 H 0.38216 0.90146 0.75293 0.0
Mn216 Mn 0.76487 0.9749 0.58754 0.0
Mn217 Mn 0.69622 0.9177 0.56379 0.0
C218 C 0.73276 0.9798 0.5032 0.0
C219 C 0.79579 0.01408 0.67074 0.0
C220 C 0.74882 0.92462 0.46637 0.0
O221 O 0.76187 0.94777 0.6777 0.0
O222 O 0.71619 0.91028 0.65819 0.0
C223 C 0.67083 0.92447 0.72015 0.0
N224 N 0.67095 0.92372 0.63643 0.0
C225 C 0.63072 0.93285 0.63089 0.0
C226 C 0.63054 0.93422 0.71702 0.0
C227 C 0.65062 0.9299 0.76184 0.0
C228 C 0.65148 0.92751 0.59276 0.0
H229 H 0.68584 0.9207 0.75482 0.0
C230 C 0.74073 0.92278 0.69635 0.0
O231 O 0.80661 0.00268 0.62084 0.0
O232 O 0.7676 0.00319 0.67066 0.0
N233 N 0.67391 0.92108 0.47698 0.0
C234 C 0.67522 0.91653 0.39493 0.0
C235 C 0.65603 0.91921 0.34137 0.0
C236 C 0.6351 0.92567 0.37298 0.0
C237 C 0.63309 0.92869 0.45811 0.0
C238 C 0.65285 0.92581 0.50842 0.0
H239 H 0.69106 0.91125 0.37036 0.0
O240 O 0.76081 0.99814 0.4989 0.0
O241 O 0.72406 0.95964 0.5601 0.0
O242 O 0.76841 0.94797 0.50134 0.0
O243 O 0.72135 0.91169 0.48522 0.0
C244 C 0.61218 0.93433 0.49507 0.0
C245 C 0.61106 0.9365 0.58139 0.0
H246 H 0.61495 0.93836 0.74938 0.0
H247 H 0.65045 0.93064 0.82839 0.0
H248 H 0.65739 0.91632 0.27588 0.0
H249 H 0.6204 0.92784 0.33147 0.0
H250 H 0.59681 0.93695 0.45769 0.0
H251 H 0.59486 0.94079 0.60912 0.0
Mn252 Mn 0.19178 0.81787 0.62085 0.0
Mn253 Mn 0.19963 0.88434 0.63807 0.0
C254 C 0.15491 0.82267 0.68844 0.0
C255 C 0.17914 0.77719 0.54106 0.0
C256 C 0.23149 0.86261 0.74502 0.0
O257 O 0.22524 0.84274 0.53977 0.0
O258 O 0.22426 0.88418 0.54604 0.0
C259 C 0.17291 0.8856 0.48057 0.0
N260 N 0.17402 0.88809 0.56404 0.0
C261 C 0.14045 0.90592 0.56476 0.0
C262 C 0.13874 0.90346 0.47883 0.0
C263 C 0.15477 0.89288 0.43663 0.0
C264 C 0.15762 0.89683 0.60558 0.0
H265 H 0.18594 0.87834 0.4478 0.0
C266 C 0.23368 0.86847 0.51534 0.0
O267 O 0.19773 0.78444 0.60036 0.0
O268 O 0.1675 0.7932 0.52861 0.0
N269 N 0.17757 0.88938 0.72386 0.0
C270 C 0.18365 0.89282 0.80571 0.0
C271 C 0.1704 0.90428 0.85653 0.0
C272 C 0.15239 0.91367 0.82198 0.0
C273 C 0.14707 0.91073 0.73723 0.0
C274 C 0.15993 0.89806 0.69014 0.0
H275 H 0.19922 0.88771 0.83178 0.0
O276 O 0.15672 0.7995 0.69735 0.0
O277 O 0.17407 0.84199 0.63711 0.0
O278 O 0.2194 0.83682 0.71772 0.0
O279 O 0.22652 0.88205 0.71715 0.0
C280 C 0.13116 0.92161 0.69675 0.0
C281 C 0.12702 0.91837 0.61108 0.0
H282 H 0.12555 0.91001 0.44457 0.0
H283 H 0.15372 0.89105 0.37029 0.0
H284 H 0.17512 0.90706 0.92158 0.0
H285 H 0.1437 0.92407 0.86077 0.0
H286 H 0.12249 0.9331 0.73041 0.0
H287 H 0.11437 0.9265 0.5811 0.0
Mn288 Mn 0.33989 0.40031 0.63041 0.0
Mn289 Mn 0.27108 0.34238 0.63059 0.0
C290 C 0.33083 0.3583 0.69995 0.0
C291 C 0.3842 0.42735 0.55926 0.0
C292 C 0.29013 0.39346 0.7436 0.0
O293 O 0.32025 0.41112 0.54289 0.0
O294 O 0.27599 0.37049 0.54144 0.0
C295 C 0.27265 0.31756 0.46945 0.0
N296 N 0.26783 0.31444 0.5523 0.0
C297 C 0.24416 0.26259 0.54341 0.0
C298 C 0.24919 0.2652 0.45802 0.0
C299 C 0.26387 0.29287 0.42102 0.0
C300 C 0.25494 0.28806 0.58897 0.0
H301 H 0.28262 0.33866 0.44057 0.0
C302 C 0.29456 0.39601 0.51494 0.0
O303 O 0.37601 0.43928 0.61518 0.0
O304 O 0.36723 0.39988 0.54645 0.0
N305 N 0.26152 0.31289 0.71166 0.0
C306 C 0.25718 0.31401 0.79413 0.0
C307 C 0.2429 0.28823 0.8406 0.0
C308 C 0.23158 0.26144 0.80106 0.0
C309 C 0.23538 0.26075 0.71569 0.0
C310 C 0.25131 0.28721 0.67332 0.0
H311 H 0.26367 0.33435 0.82396 0.0
O312 O 0.35398 0.38329 0.71378 0.0
O313 O 0.31381 0.35812 0.64146 0.0
O314 O 0.31696 0.40852 0.71935 0.0
O315 O 0.27173 0.369 0.71352 0.0
C316 C 0.2228 0.23488 0.67043 0.0
C317 C 0.22773 0.23574 0.58462 0.0
H318 H 0.2415 0.24612 0.42018 0.0
H319 H 0.26758 0.29509 0.35507 0.0
H320 H 0.2395 0.28895 0.90618 0.0
H321 H 0.21941 0.24156 0.8366 0.0
H322 H 0.20962 0.2141 0.70118 0.0
H323 H 0.21843 0.21563 0.55083 0.0
Mn324 Mn 0.7471 0.81511 0.07179 0.0
Mn325 Mn 0.81642 0.8726 0.07243 0.0
C326 C 0.78321 0.81152 0.1412 0.0
C327 C 0.71213 0.77399 0.00333 0.0
C328 C 0.76836 0.86723 0.18852 0.0
O329 O 0.74582 0.84049 0.9825 0.0
O330 O 0.79225 0.87815 0.98696 0.0
C331 C 0.8346 0.86308 0.90756 0.0
N332 N 0.83828 0.86532 0.99051 0.0
C333 C 0.87812 0.85563 0.9803 0.0
C334 C 0.87441 0.85278 0.8949 0.0
C335 C 0.85262 0.85664 0.85836 0.0
C336 C 0.8594 0.86195 0.02617 0.0
H337 H 0.81818 0.86636 0.87911 0.0
C338 C 0.76617 0.86512 0.95761 0.0
O339 O 0.70404 0.78682 0.05671 0.0
O340 O 0.74004 0.78498 0.9901 0.0
N341 N 0.84256 0.87073 0.1496 0.0
C342 C 0.84526 0.87712 0.2313 0.0
C343 C 0.8667 0.87523 0.27687 0.0
C344 C 0.88572 0.86769 0.23746 0.0
C345 C 0.88367 0.8629 0.15239 0.0
C346 C 0.86187 0.86513 0.11026 0.0
H347 H 0.8309 0.88324 0.26176 0.0
O348 O 0.75556 0.79359 0.15656 0.0
O349 O 0.78904 0.83072 0.0831 0.0
O350 O 0.7475 0.84344 0.15931 0.0
O351 O 0.7949 0.87995 0.16055 0.0
C352 C 0.90253 0.85623 0.10764 0.0
C353 C 0.89969 0.8525 0.02167 0.0
H354 H 0.88829 0.84784 0.85675 0.0
H355 H 0.84976 0.85472 0.7924 0.0
H356 H 0.86851 0.87955 0.34221 0.0
H357 H 0.90214 0.86612 0.27284 0.0
H358 H 0.91938 0.85406 0.13867 0.0
H359 H 0.91437 0.84746 0.98788 0.0
Mn360 Mn 0.3424 0.9737 0.11173 0.0
Mn361 Mn 0.27388 0.96305 0.13472 0.0
C362 C 0.33623 0.00913 0.17727 0.0
C363 C 0.38387 0.9884 0.02855 0.0
C364 C 0.29832 0.93319 0.23997 0.0
O365 O 0.3178 0.9401 0.0353 0.0
O366 O 0.2749 0.93959 0.04228 0.0
C367 C 0.27025 0.989 0.97782 0.0
N368 N 0.26852 0.98782 0.0616 0.0
C369 C 0.25045 0.02095 0.06543 0.0
C370 C 0.2522 0.02274 0.97922 0.0
C371 C 0.26245 0.00691 0.93526 0.0
C372 C 0.25987 0.00383 0.10462 0.0
H373 H 0.27741 0.97627 0.9438 0.0
C374 C 0.29146 0.93073 0.01271 0.0
O375 O 0.37756 0.96999 0.08839 0.0
O376 O 0.3662 0.99824 0.0167 0.0
N377 N 0.26828 0.98391 0.22144 0.0
C378 C 0.2652 0.97758 0.30354 0.0
C379 C 0.25388 0.99045 0.35613 0.0
C380 C 0.24434 0.00848 0.32329 0.0
C381 C 0.24689 0.01409 0.23835 0.0
C382 C 0.25923 0.00137 0.18924 0.0
H383 H 0.27058 0.96217 0.32864 0.0
O384 O 0.36026 0.00828 0.18469 0.0
O385 O 0.31665 0.9896 0.12905 0.0
O386 O 0.32456 0.94638 0.21105 0.0
O387 O 0.27776 0.93694 0.21325 0.0
C388 C 0.23602 0.03031 0.19986 0.0
C389 C 0.23856 0.03445 0.11379 0.0
H390 H 0.24537 0.03588 0.94614 0.0
H391 H 0.26373 0.00804 0.86872 0.0
H392 H 0.25138 0.98553 0.42138 0.0
H393 H 0.23409 0.01697 0.36369 0.0
H394 H 0.22514 0.0393 0.23555 0.0
H395 H 0.23038 0.04724 0.08522 0.0
Mn396 Mn 0.19582 0.41902 0.13259 0.0
Mn397 Mn 0.19131 0.35423 0.15395 0.0
C398 C 0.15894 0.38395 0.21512 0.0
C399 C 0.18049 0.44424 0.04677 0.0
C400 C 0.23474 0.40792 0.24783 0.0
O401 O 0.22364 0.42067 0.04439 0.0
O402 O 0.21581 0.37529 0.05427 0.0
C403 C 0.15638 0.32635 0.00568 0.0
N404 N 0.15938 0.32676 0.08883 0.0
C405 C 0.11202 0.2834 0.10563 0.0
C406 C 0.10837 0.28263 0.0202 0.0
C407 C 0.13067 0.3042 0.97002 0.0
C408 C 0.1381 0.30607 0.13765 0.0
H409 H 0.1735 0.34276 0.96693 0.0
C410 C 0.22793 0.40057 0.02063 0.0
O411 O 0.20253 0.45838 0.09609 0.0
O412 O 0.1685 0.41649 0.04762 0.0
N413 N 0.16837 0.33146 0.2466 0.0
C414 C 0.17589 0.33457 0.32741 0.0
C415 C 0.15601 0.31468 0.38589 0.0
C416 C 0.12893 0.29142 0.36045 0.0
C417 C 0.12224 0.28794 0.27654 0.0
C418 C 0.14295 0.30843 0.22111 0.0
H419 H 0.19676 0.35228 0.34729 0.0
O420 O 0.16554 0.41071 0.21944 0.0
O421 O 0.17356 0.37837 0.1601 0.0
O422 O 0.2271 0.42579 0.22052 0.0
O423 O 0.2233 0.38158 0.22438 0.0
C424 C 0.09586 0.26492 0.2457 0.0
C425 C 0.09073 0.26269 0.16032 0.0
H426 H 0.08854 0.2656 0.99248 0.0
H427 H 0.12806 0.30373 0.904 0.0
H428 H 0.16153 0.31731 0.45041 0.0
H429 H 0.11358 0.27621 0.40576 0.0
H430 H 0.07934 0.24886 0.28712 0.0
H431 H 0.0703 0.24497 0.13738 0.0
Mn432 Mn 0.43307 0.30668 0.84915 0.0
Mn433 Mn 0.36991 0.24153 0.8247 0.0
C434 C 0.3849 0.30263 0.84626 0.0
C435 C 0.46108 0.34929 0.93196 0.0
C436 C 0.42962 0.25649 0.75292 0.0
O437 O 0.42647 0.28361 0.9552 0.0
O438 O 0.38842 0.23951 0.92832 0.0
C439 C 0.33273 0.2403 0.96475 0.0
N440 N 0.33728 0.23998 0.88218 0.0
C441 C 0.28758 0.22759 0.8545 0.0
C442 C 0.2825 0.2284 0.93911 0.0
C443 C 0.30528 0.23504 0.99445 0.0
C444 C 0.31576 0.23434 0.82832 0.0
H445 H 0.3498 0.24427 0.00755 0.0
C446 C 0.40946 0.25712 0.97369 0.0
O447 O 0.47289 0.33662 0.89393 0.0
O448 O 0.43313 0.33838 0.92027 0.0
N449 N 0.34978 0.23995 0.72656 0.0
C450 C 0.35825 0.23993 0.6469 0.0
C451 C 0.33812 0.23399 0.58372 0.0
C452 C 0.30923 0.22703 0.60342 0.0
C453 C 0.30102 0.22679 0.686 0.0
C454 C 0.32236 0.23418 0.74595 0.0
H455 H 0.38012 0.24423 0.63169 0.0
O456 O 0.40674 0.32348 0.8851 0.0
O457 O 0.39117 0.28392 0.81872 0.0
O458 O 0.44566 0.28084 0.78835 0.0
O459 O 0.40169 0.2412 0.76161 0.0
C460 C 0.27216 0.21824 0.7114 0.0
C461 C 0.26547 0.21903 0.7954 0.0
H462 H 0.26109 0.22355 0.96233 0.0
H463 H 0.30148 0.23543 0.05992 0.0
H464 H 0.34463 0.23406 0.52023 0.0
H465 H 0.29347 0.22167 0.55479 0.0
H466 H 0.25489 0.21009 0.66671 0.0
H467 H 0.24308 0.21218 0.81419 0.0
Mn468 Mn 0.85881 0.14813 0.98364 0.0
Mn469 Mn 0.86722 0.21466 0.00692 0.0
C470 C 0.8217 0.15264 0.05054 0.0
C471 C 0.84567 0.10826 0.89895 0.0
C472 C 0.89868 0.19162 0.11067 0.0
O473 O 0.89273 0.17365 0.90507 0.0
O474 O 0.89164 0.21507 0.91355 0.0
C475 C 0.84095 0.21845 0.85124 0.0
N476 N 0.8418 0.21956 0.93498 0.0
C477 C 0.80805 0.23717 0.94043 0.0
C478 C 0.80656 0.23606 0.8543 0.0
C479 C 0.82284 0.22631 0.80955 0.0
C480 C 0.82528 0.22764 0.97878 0.0
H481 H 0.85414 0.2118 0.8166 0.0
C482 C 0.90105 0.19947 0.88179 0.0
O483 O 0.86396 0.11435 0.95861 0.0
O484 O 0.83468 0.12493 0.88905 0.0
N485 N 0.84509 0.21861 0.09465 0.0
C486 C 0.8506 0.22038 0.1768 0.0
C487 C 0.83666 0.23042 0.23025 0.0
C488 C 0.81854 0.24012 0.19822 0.0
C489 C 0.81394 0.23901 0.11319 0.0
C490 C 0.82737 0.22759 0.06332 0.0
H491 H 0.86603 0.2148 0.2013 0.0
O492 O 0.82319 0.12926 0.05812 0.0
O493 O 0.84156 0.17246 0.0019 0.0
O494 O 0.88616 0.16589 0.08239 0.0
O495 O 0.89403 0.21141 0.08406 0.0
C496 C 0.79801 0.25037 0.07541 0.0
C497 C 0.79427 0.24865 0.98947 0.0
H498 H 0.79334 0.243 0.82187 0.0
H499 H 0.82197 0.22553 0.74305 0.0
H500 H 0.8408 0.23176 0.2956 0.0
H501 H 0.80904 0.24918 0.23932 0.0
H502 H 0.78905 0.26109 0.11154 0.0
H503 H 0.78158 0.25712 0.96153 0.0
Mn504 Mn 0.00649 0.73469 0.90255 0.0
Mn505 Mn 0.00589 0.79736 0.90301 0.0
C506 C 0.0456 0.77564 0.83915 0.0
C507 C 0.01702 0.70305 0.97237 0.0
C508 C 0.97082 0.74825 0.78337 0.0
O509 O 0.97378 0.72671 0.98547 0.0
O510 O 0.97885 0.77084 0.99013 0.0
C511 C 0.0331 0.81725 0.06565 0.0
N512 N 0.03267 0.82226 0.98359 0.0
C513 C 0.07091 0.87194 0.99669 0.0
C514 C 0.07186 0.86744 0.08136 0.0
C515 C 0.05313 0.83983 0.11581 0.0
C516 C 0.05165 0.8482 0.94909 0.0
H517 H 0.01818 0.79624 0.09261 0.0
C518 C 0.96671 0.74451 0.01429 0.0
O519 O 0.99759 0.69379 0.91466 0.0
O520 O 0.03 0.73036 0.99 0.0
N521 N 0.03049 0.82662 0.82451 0.0
C522 C 0.02469 0.8281 0.74372 0.0
C523 C 0.04028 0.85452 0.70077 0.0
C524 C 0.06043 0.87961 0.74243 0.0
C525 C 0.06555 0.87791 0.82613 0.0
C526 C 0.05005 0.85074 0.86511 0.0
H527 H 0.00745 0.8095 0.71282 0.0
O528 O 0.04078 0.74979 0.82463 0.0
O529 O 0.02804 0.77702 0.89415 0.0
O530 O 0.97943 0.73114 0.80817 0.0
O531 O 0.97831 0.77267 0.81683 0.0
C532 C 0.08388 0.9024 0.87373 0.0
C533 C 0.0873 0.89929 0.9583 0.0
H534 H 0.08662 0.88508 0.12061 0.0
H535 H 0.05366 0.83615 0.1811 0.0
H536 H 0.03574 0.85583 0.63666 0.0
H537 H 0.07088 0.90022 0.71012 0.0
H538 H 0.09517 0.92388 0.84652 0.0
H539 H 0.1018 0.91826 0.99379 0.0
Mn540 Mn 0.43248 0.15687 0.35547 0.0
Mn541 Mn 0.36909 0.15705 0.38466 0.0
C542 C 0.38901 0.11861 0.30403 0.0
C543 C 0.46616 0.14636 0.41508 0.0
C544 C 0.4146 0.19352 0.253 0.0
O545 O 0.44335 0.18785 0.44063 0.0
O546 O 0.39906 0.18301 0.46522 0.0
C547 C 0.35297 0.12937 0.54967 0.0
N548 N 0.34612 0.12987 0.4694 0.0
C549 C 0.29653 0.09087 0.49291 0.0
C550 C 0.30309 0.08969 0.57567 0.0
C551 C 0.33154 0.10887 0.60399 0.0
C552 C 0.31916 0.11088 0.44087 0.0
H553 H 0.37454 0.14459 0.57213 0.0
C554 C 0.42645 0.19409 0.47994 0.0
O555 O 0.47434 0.16544 0.35587 0.0
O556 O 0.43869 0.13294 0.43699 0.0
N557 N 0.33755 0.13314 0.31326 0.0
C558 C 0.33426 0.13842 0.23318 0.0
C559 C 0.30678 0.12201 0.19617 0.0
C560 C 0.28263 0.10128 0.24286 0.0
C561 C 0.28635 0.09647 0.32554 0.0
C562 C 0.31447 0.11292 0.35847 0.0
H563 H 0.35224 0.15557 0.19824 0.0
O564 O 0.41456 0.12361 0.27807 0.0
O565 O 0.38965 0.13582 0.36181 0.0
O566 O 0.43297 0.18498 0.2668 0.0
O567 O 0.39092 0.1849 0.29517 0.0
C568 C 0.26296 0.07717 0.37777 0.0
C569 C 0.26818 0.07377 0.46076 0.0
H570 H 0.28637 0.07443 0.61821 0.0
H571 H 0.33676 0.10826 0.66787 0.0
H572 H 0.30397 0.12612 0.13268 0.0
H573 H 0.26119 0.08991 0.21509 0.0
H574 H 0.24073 0.06511 0.35531 0.0
H575 H 0.25003 0.05858 0.49989 0.0
Mn576 Mn 0.00955 0.30449 0.47793 0.0
Mn577 Mn 0.94068 0.29345 0.49107 0.0
C578 C 0.00191 0.33976 0.54001 0.0
C579 C 0.05278 0.31976 0.40289 0.0
C580 C 0.96406 0.26476 0.60488 0.0
O581 O 0.98655 0.27074 0.39955 0.0
O582 O 0.94297 0.2687 0.40461 0.0
C583 C 0.93973 0.31706 0.32732 0.0
N584 N 0.93643 0.31698 0.41065 0.0
C585 C 0.91865 0.35023 0.40148 0.0
C586 C 0.92188 0.35078 0.31558 0.0
C587 C 0.93279 0.33435 0.27839 0.0
C588 C 0.92723 0.33365 0.44728 0.0
H589 H 0.94747 0.30394 0.2984 0.0
C590 C 0.96009 0.26034 0.37632 0.0
O591 O 0.04517 0.30102 0.46243 0.0
O592 O 0.0352 0.32934 0.38596 0.0
N593 N 0.93359 0.31547 0.57088 0.0
C594 C 0.92905 0.31031 0.65346 0.0
C595 C 0.91714 0.32413 0.69978 0.0
C596 C 0.90844 0.34182 0.66011 0.0
C597 C 0.9123 0.34603 0.57464 0.0
C598 C 0.92522 0.33248 0.53207 0.0
H599 H 0.93374 0.29514 0.68358 0.0
O600 O 0.0258 0.33899 0.55173 0.0
O601 O 0.9834 0.32031 0.48945 0.0
O602 O 0.99023 0.27711 0.57592 0.0
O603 O 0.94377 0.26871 0.57667 0.0
C604 C 0.90217 0.36165 0.52933 0.0
C605 C 0.90612 0.36447 0.44319 0.0
H606 H 0.91573 0.36345 0.27756 0.0
H607 H 0.93527 0.33456 0.21213 0.0
H608 H 0.91358 0.32023 0.76543 0.0
H609 H 0.89784 0.35115 0.69565 0.0
H610 H 0.89067 0.37107 0.55954 0.0
H611 H 0.89849 0.37682 0.40939 0.0
Mn612 Mn 0.85427 0.73541 0.39572 0.0
Mn613 Mn 0.84605 0.66916 0.42689 0.0
C614 C 0.8169 0.70255 0.48268 0.0
C615 C 0.84431 0.76539 0.31462 0.0
C616 C 0.89193 0.7236 0.51332 0.0
O617 O 0.88024 0.73303 0.30673 0.0
O618 O 0.87033 0.68725 0.32505 0.0
C619 C 0.80916 0.64138 0.28171 0.0
N620 N 0.81299 0.64204 0.36457 0.0
C621 C 0.76434 0.60086 0.38577 0.0
C622 C 0.75999 0.59956 0.3006 0.0
C623 C 0.78248 0.61996 0.24839 0.0
C624 C 0.79137 0.62273 0.41543 0.0
H625 H 0.82624 0.65722 0.2414 0.0
C626 C 0.8835 0.71175 0.28732 0.0
O627 O 0.86694 0.77625 0.36245 0.0
O628 O 0.82806 0.73741 0.3124 0.0
N629 N 0.82304 0.64833 0.52176 0.0
C630 C 0.83142 0.65145 0.60181 0.0
C631 C 0.81146 0.63272 0.66217 0.0
C632 C 0.78345 0.61041 0.63926 0.0
C633 C 0.77595 0.60657 0.55592 0.0
C634 C 0.79682 0.62585 0.49856 0.0
H635 H 0.85306 0.66836 0.61968 0.0
O636 O 0.8253 0.72989 0.4845 0.0
O637 O 0.82992 0.69505 0.4274 0.0
O638 O 0.88506 0.7412 0.48128 0.0
O639 O 0.87955 0.69662 0.49526 0.0
C640 C 0.74865 0.58429 0.52747 0.0
C641 C 0.7428 0.58152 0.44248 0.0
H642 H 0.73941 0.58313 0.27468 0.0
H643 H 0.77921 0.61924 0.18264 0.0
H644 H 0.81766 0.6355 0.72618 0.0
H645 H 0.76804 0.59611 0.68601 0.0
H646 H 0.73197 0.56922 0.57044 0.0
H647 H 0.72165 0.56444 0.42139 0.0
C648 C 0.09849 0.54198 0.97858 0.0
C649 C 0.09261 0.54965 0.90004 0.0
C650 C 0.10551 0.59739 0.95272 0.0
C651 C 0.10441 0.5873 0.03342 0.0
N652 N 0.10602 0.55316 0.12486 0.0
N653 N 0.08792 0.58406 0.8144 0.0
C654 C 0.10324 0.56062 0.04658 0.0
C655 C 0.0957 0.57733 0.8873 0.0
N656 N 0.09853 0.51661 0.98852 0.0
N657 N 0.11644 0.62621 0.93882 0.0
H658 H 0.07947 0.56951 0.76597 0.0
H659 H 0.08719 0.60296 0.80515 0.0
H660 H 0.12545 0.64124 0.98619 0.0
H661 H 0.11974 0.6353 0.88008 0.0
H662 H 0.10491 0.51078 0.04205 0.0
H663 H 0.09321 0.50158 0.94164 0.0
H664 H 0.10249 0.53291 0.14234 0.0
H665 H 0.11198 0.56791 0.17303 0.0
C666 C 0.57171 0.55284 0.924 0.0
C667 C 0.60075 0.57688 0.93346 0.0
C668 C 0.59308 0.57392 0.08277 0.0
C669 C 0.56508 0.54874 0.07408 0.0
N670 N 0.52912 0.51138 0.98731 0.0
N671 N 0.64185 0.60337 0.02452 0.0
C672 C 0.55492 0.53716 0.99487 0.0
C673 C 0.6124 0.58515 0.01357 0.0
N674 N 0.5599 0.54543 0.84738 0.0
N675 N 0.60096 0.58789 0.15638 0.0
H676 H 0.65718 0.6117 0.97633 0.0
H677 H 0.65147 0.60778 0.08231 0.0
H678 H 0.58697 0.58099 0.20782 0.0
H679 H 0.61999 0.60801 0.16361 0.0
H680 H 0.53779 0.53058 0.83706 0.0
H681 H 0.57195 0.55533 0.7938 0.0
H682 H 0.5223 0.50009 0.93226 0.0
H683 H 0.51527 0.50028 0.03732 0.0
C684 C 0.62111 0.0614 0.97501 0.0
C685 C 0.61588 0.07172 0.05016 0.0
C686 C 0.57921 0.07947 0.98105 0.0
C687 C 0.58076 0.06461 0.91043 0.0
N688 N 0.60105 0.03735 0.84658 0.0
N689 N 0.58377 0.08314 0.1286 0.0
C690 C 0.60099 0.05426 0.90944 0.0
C691 C 0.59322 0.0787 0.05422 0.0
N692 N 0.64593 0.05966 0.96394 0.0
N693 N 0.5645 0.09438 0.97962 0.0
H694 H 0.59203 0.08112 0.18453 0.0
H695 H 0.56528 0.08531 0.13523 0.0
H696 H 0.55398 0.09613 0.9282 0.0
H697 H 0.56539 0.10768 0.02769 0.0
H698 H 0.65229 0.05547 0.90702 0.0
H699 H 0.66182 0.06528 0.00867 0.0
H700 H 0.61275 0.02645 0.84862 0.0
H701 H 0.58789 0.03235 0.79511 0.0
C702 C 0.61724 0.05803 0.50079 0.0
C703 C 0.60762 0.05586 0.4189 0.0
C704 C 0.55742 0.0398 0.46811 0.0
C705 C 0.56755 0.04387 0.55037 0.0
N706 N 0.6082 0.06333 0.644 0.0
N707 N 0.56821 0.0385 0.32251 0.0
C708 C 0.59769 0.05432 0.56666 0.0
C709 C 0.57752 0.04487 0.40189 0.0
N710 N 0.64499 0.06327 0.51555 0.0
N711 N 0.52913 0.03299 0.4534 0.0
H712 H 0.58249 0.04132 0.27363 0.0
H713 H 0.54626 0.02823 0.30542 0.0
H714 H 0.51408 0.02981 0.50033 0.0
H715 H 0.52098 0.03253 0.39516 0.0
H716 H 0.6522 0.06189 0.57381 0.0
H717 H 0.65998 0.06629 0.46852 0.0
H718 H 0.63046 0.07398 0.65816 0.0
H719 H 0.59497 0.06308 0.69254 0.0
C720 C 0.07909 0.54536 0.38066 0.0
C721 C 0.08031 0.57221 0.39488 0.0
C722 C 0.09167 0.57028 0.53951 0.0
C723 C 0.08782 0.54246 0.52754 0.0
N724 N 0.08671 0.50715 0.43451 0.0
N725 N 0.08129 0.60686 0.4914 0.0
C726 C 0.08416 0.53102 0.4472 0.0
C727 C 0.08517 0.58395 0.47516 0.0
N728 N 0.07185 0.53303 0.30461 0.0
N729 N 0.10291 0.58409 0.61193 0.0
H730 H 0.07546 0.61689 0.44643 0.0
H731 H 0.08122 0.61419 0.55071 0.0
H732 H 0.10987 0.57501 0.65687 0.0
H733 H 0.10866 0.60551 0.62278 0.0
H734 H 0.06779 0.51231 0.29142 0.0
H735 H 0.06779 0.54275 0.25494 0.0
H736 H 0.08633 0.49848 0.37701 0.0
H737 H 0.09219 0.49757 0.48156 0.0
C738 C 0.59612 0.54984 0.58013 0.0
C739 C 0.61335 0.58012 0.56416 0.0
C740 C 0.60892 0.57093 0.41626 0.0
C741 C 0.58593 0.54233 0.4328 0.0
N742 N 0.56354 0.50163 0.52602 0.0
N743 N 0.6416 0.61929 0.46803 0.0
C744 C 0.58159 0.53072 0.51357 0.0
C745 C 0.62173 0.59061 0.48229 0.0
N746 N 0.59436 0.53959 0.65837 0.0
N747 N 0.61883 0.57851 0.33708 0.0
H748 H 0.65304 0.63369 0.51524 0.0
H749 H 0.64633 0.62901 0.41 0.0
H750 H 0.61067 0.56312 0.29034 0.0
H751 H 0.63669 0.59848 0.3193 0.0
H752 H 0.5832 0.51776 0.67491 0.0
H753 H 0.60605 0.55315 0.70683 0.0
H754 H 0.5566 0.49171 0.58352 0.0
H755 H 0.55556 0.48711 0.47732 0.0
C756 C 0.74803 0.8655 0.33282 0.0
C757 C 0.76236 0.88141 0.25959 0.0
C758 C 0.77246 0.92683 0.32703 0.0
C759 C 0.75717 0.91088 0.39914 0.0
N760 N 0.73548 0.86601 0.47671 0.0
N761 N 0.78159 0.9259 0.18107 0.0
C762 C 0.74615 0.88043 0.40325 0.0
C763 C 0.77301 0.91174 0.25547 0.0
N764 N 0.73537 0.83595 0.33504 0.0
N765 N 0.78706 0.95648 0.32643 0.0
H766 H 0.78153 0.9158 0.1263 0.0
H767 H 0.78573 0.9469 0.17146 0.0
H768 H 0.7867 0.96894 0.37485 0.0
H769 H 0.8019 0.96914 0.28001 0.0
H770 H 0.72056 0.8227 0.38061 0.0
H771 H 0.73793 0.82386 0.28924 0.0
H772 H 0.73106 0.84504 0.48834 0.0
H773 H 0.73322 0.8757 0.52954 0.0
C774 C 0.28248 0.90734 0.45934 0.0
C775 C 0.25514 0.8814 0.44634 0.0
C776 C 0.26688 0.88432 0.29968 0.0
C777 C 0.29048 0.91281 0.31024 0.0
N778 N 0.32475 0.95013 0.39941 0.0
N779 N 0.21945 0.84724 0.35167 0.0
C780 C 0.29993 0.92369 0.39021 0.0
C781 C 0.24704 0.86998 0.36606 0.0
N782 N 0.29127 0.9165 0.53774 0.0
N783 N 0.26363 0.87121 0.2256 0.0
H784 H 0.20352 0.83699 0.39801 0.0
H785 H 0.21157 0.84018 0.29271 0.0
H786 H 0.27912 0.88139 0.178 0.0
H787 H 0.24796 0.84955 0.21527 0.0
H788 H 0.31199 0.93353 0.55281 0.0
H789 H 0.278 0.906 0.58895 0.0
H790 H 0.33108 0.96137 0.45453 0.0
H791 H 0.33923 0.96112 0.35055 0.0
C792 C 0.27115 0.42279 0.45626 0.0
C793 C 0.28645 0.40767 0.44364 0.0
C794 C 0.27944 0.40801 0.29549 0.0
C795 C 0.2582 0.41654 0.31021 0.0
N796 N 0.23565 0.43476 0.40452 0.0
N797 N 0.30967 0.38991 0.35144 0.0
C798 C 0.25508 0.42542 0.39028 0.0
C799 C 0.29245 0.40202 0.36298 0.0
N800 N 0.27269 0.43518 0.53079 0.0
N801 N 0.28658 0.40514 0.21638 0.0
H802 H 0.32104 0.38708 0.39923 0.0
H803 H 0.31209 0.3818 0.2956 0.0
H804 H 0.27648 0.4084 0.16634 0.0
H805 H 0.30368 0.40166 0.19989 0.0
H806 H 0.26397 0.44848 0.54273 0.0
H807 H 0.28561 0.43465 0.57809 0.0
H808 H 0.22929 0.43746 0.46322 0.0
H809 H 0.22504 0.43894 0.35761 0.0
C810 C 0.23271 0.39893 0.86805 0.0
C811 C 0.24613 0.40609 0.94575 0.0
C812 C 0.29197 0.41263 0.88718 0.0
C813 C 0.27823 0.40396 0.80943 0.0
N814 N 0.23944 0.39869 0.72055 0.0
N815 N 0.2912 0.43293 0.01956 0.0
C816 C 0.24983 0.40042 0.79817 0.0
C817 C 0.27669 0.41722 0.95235 0.0
N818 N 0.20356 0.39023 0.86138 0.0
N819 N 0.31842 0.41462 0.90126 0.0
H820 H 0.28064 0.43852 0.06445 0.0
H821 H 0.31401 0.44341 0.02494 0.0
H822 H 0.33058 0.4112 0.85645 0.0
H823 H 0.32726 0.41755 0.95985 0.0
H824 H 0.19152 0.38113 0.80839 0.0
H825 H 0.19103 0.39101 0.9105 0.0
H826 H 0.22018 0.3988 0.70785 0.0
H827 H 0.25154 0.39984 0.66804 0.0
C828 C 0.74677 0.89708 0.91115 0.0
C829 C 0.75882 0.87933 0.89109 0.0
C830 C 0.75854 0.88983 0.74442 0.0
C831 C 0.74597 0.90717 0.76367 0.0
N832 N 0.73349 0.93216 0.8651 0.0
N833 N 0.76788 0.85206 0.78887 0.0
C834 C 0.74137 0.91201 0.84711 0.0
C835 C 0.76232 0.87375 0.80777 0.0
N836 N 0.73916 0.89844 0.99112 0.0
N837 N 0.76888 0.89036 0.66649 0.0
H838 H 0.76979 0.83912 0.83357 0.0
H839 H 0.7675 0.84489 0.7291 0.0
H840 H 0.76838 0.90346 0.61976 0.0
H841 H 0.78094 0.88051 0.65053 0.0
H842 H 0.72765 0.90857 0.00981 0.0
H843 H 0.74222 0.88725 0.03889 0.0
H844 H 0.73269 0.93912 0.92429 0.0
H845 H 0.73009 0.94395 0.81991 0.0
C846 C 0.25297 0.88168 0.96218 0.0
C847 C 0.27917 0.90887 0.94689 0.0
C848 C 0.27994 0.8952 0.80417 0.0
C849 C 0.25152 0.87112 0.81558 0.0
N850 N 0.2158 0.83506 0.90748 0.0
N851 N 0.31472 0.9434 0.84902 0.0
C852 C 0.23955 0.86223 0.89567 0.0
C853 C 0.29238 0.91595 0.86716 0.0
N854 N 0.24016 0.87529 0.03891 0.0
N855 N 0.29498 0.89774 0.7329 0.0
H856 H 0.32328 0.96007 0.89191 0.0
H857 H 0.32288 0.9503 0.7894 0.0
H858 H 0.28625 0.88132 0.68904 0.0
H859 H 0.31687 0.91381 0.7226 0.0
H860 H 0.21975 0.85726 0.05301 0.0
H861 H 0.24937 0.88892 0.08896 0.0
H862 H 0.20651 0.82607 0.96461 0.0
H863 H 0.20684 0.82032 0.8595 0.0
C864 C 0.43429 0.21525 0.70082 0.0
C865 C 0.44247 0.24491 0.69304 0.0
C866 C 0.44964 0.24318 0.54436 0.0
C867 C 0.43826 0.21299 0.55206 0.0
N868 N 0.43082 0.17278 0.63636 0.0
N869 N 0.46739 0.28927 0.61309 0.0
C870 C 0.4346 0.19995 0.63019 0.0
C871 C 0.45367 0.25972 0.61666 0.0
N872 N 0.42387 0.20113 0.7745 0.0
N873 N 0.4555 0.25563 0.46779 0.0
H874 H 0.4712 0.30196 0.66506 0.0
H875 H 0.47759 0.30148 0.56026 0.0
H876 H 0.45477 0.24424 0.41495 0.0
H877 H 0.46032 0.27674 0.45618 0.0
H878 H 0.41401 0.17876 0.78202 0.0
H879 H 0.42348 0.21178 0.82754 0.0
H880 H 0.43073 0.16309 0.69208 0.0
H881 H 0.43054 0.16099 0.58492 0.0
C882 C 0.91432 0.20089 0.73261 0.0
C883 C 0.92227 0.21261 0.81266 0.0
C884 C 0.96568 0.25595 0.75576 0.0
C885 C 0.95618 0.24482 0.67605 0.0
N886 N 0.9312 0.20267 0.5923 0.0
N887 N 0.95828 0.24813 0.90347 0.0
C888 C 0.93365 0.21583 0.66586 0.0
C889 C 0.94908 0.2391 0.8252 0.0
N890 N 0.88735 0.1771 0.71886 0.0
N891 N 0.98984 0.2829 0.76453 0.0
H892 H 0.94588 0.23677 0.95516 0.0
H893 H 0.97872 0.26577 0.91777 0.0
H894 H 0.00393 0.29428 0.71532 0.0
H895 H 0.99594 0.29415 0.81967 0.0
H896 H 0.87954 0.1697 0.66005 0.0
H897 H 0.87173 0.16619 0.76546 0.0
H898 H 0.91638 0.18074 0.58245 0.0
H899 H 0.94674 0.21317 0.54504 0.0
C900 C 0.92437 0.74095 0.72403 0.0
C901 C 0.95027 0.73956 0.71319 0.0
C902 C 0.93955 0.73029 0.56601 0.0
C903 C 0.91503 0.73428 0.57702 0.0
N904 N 0.89086 0.75331 0.66257 0.0
N905 N 0.98384 0.73417 0.62223 0.0
C906 C 0.90958 0.74282 0.6546 0.0
C907 C 0.95823 0.73441 0.63368 0.0
N908 N 0.91278 0.73854 0.80116 0.0
N909 N 0.94506 0.72294 0.4902 0.0
H910 H 0.9969 0.73477 0.67046 0.0
H911 H 0.99283 0.73436 0.56469 0.0
H912 H 0.93419 0.72367 0.43796 0.0
H913 H 0.95986 0.71583 0.47909 0.0
H914 H 0.89255 0.7371 0.81249 0.0
H915 H 0.92146 0.7337 0.85189 0.0
H916 H 0.88823 0.76189 0.71743 0.0
H917 H 0.88061 0.7566 0.6129 0.0
C918 C 0.92768 0.71245 0.2204 0.0
C919 C 0.9026 0.7157 0.21416 0.0
C920 C 0.91899 0.73726 0.07618 0.0
C921 C 0.94459 0.73482 0.08304 0.0
N922 N 0.97672 0.72691 0.16963 0.0
N923 N 0.86991 0.72253 0.1276 0.0
C924 C 0.94966 0.72385 0.15686 0.0
C925 C 0.89706 0.72572 0.13959 0.0
N926 N 0.93036 0.69794 0.28588 0.0
N927 N 0.91612 0.75188 0.01127 0.0
H928 H 0.85291 0.71309 0.17149 0.0
H929 H 0.86306 0.72623 0.07142 0.0
H930 H 0.93132 0.76087 0.9631 0.0
H931 H 0.89997 0.75759 0.00861 0.0
H932 H 0.94614 0.69174 0.28854 0.0
H933 H 0.91527 0.68947 0.33452 0.0
H934 H 0.98321 0.72279 0.22579 0.0
H935 H 0.99402 0.73646 0.12676 0.0
C936 C 0.41264 0.23636 0.19664 0.0
C937 C 0.41971 0.21415 0.18389 0.0
C938 C 0.42992 0.22886 0.03883 0.0
C939 C 0.41605 0.24544 0.04821 0.0
N940 N 0.39476 0.26611 0.13709 0.0
N941 N 0.43176 0.18717 0.08629 0.0
C942 C 0.40776 0.24974 0.12763 0.0
C943 C 0.42786 0.21 0.10342 0.0
N944 N 0.41146 0.24524 0.27466 0.0
N945 N 0.446 0.23189 0.96918 0.0
H946 H 0.42946 0.17182 0.12966 0.0
H947 H 0.43457 0.1819 0.02641 0.0
H948 H 0.4494 0.24701 0.92332 0.0
H949 H 0.45865 0.22208 0.96195 0.0
H950 H 0.40904 0.26301 0.28737 0.0
H951 H 0.41612 0.23683 0.32638 0.0
H952 H 0.38504 0.2672 0.19217 0.0
H953 H 0.3923 0.27739 0.08836 0.0
C954 C 0.92093 0.21116 0.32732 0.0
C955 C 0.94796 0.23767 0.31185 0.0
C956 C 0.94782 0.22298 0.16918 0.0
C957 C 0.91885 0.19979 0.18111 0.0
N958 N 0.88209 0.16517 0.27356 0.0
N959 N 0.98519 0.27035 0.21403 0.0
C960 C 0.90681 0.19165 0.2613 0.0
C961 C 0.96141 0.2437 0.23222 0.0
N962 N 0.90797 0.20553 0.40381 0.0
N963 N 0.96216 0.22484 0.09697 0.0
H964 H 0.99457 0.28714 0.25636 0.0
H965 H 0.99388 0.2768 0.15471 0.0
H966 H 0.95238 0.20877 0.05241 0.0
H967 H 0.9843 0.23998 0.08582 0.0
H968 H 0.88706 0.18826 0.41787 0.0
H969 H 0.91765 0.21904 0.45375 0.0
H970 H 0.87253 0.1566 0.33079 0.0
H971 H 0.87252 0.15041 0.22586 0.0
C972 C 0.14619 0.6999 0.4635 0.0
C973 C 0.15151 0.70534 0.37783 0.0
C974 C 0.18265 0.75714 0.40514 0.0
C975 C 0.1721 0.75214 0.48769 0.0
N976 N 0.14328 0.71867 0.59678 0.0
N977 N 0.1739 0.73956 0.26526 0.0
C978 C 0.15395 0.72344 0.51769 0.0
C979 C 0.16984 0.73406 0.34798 0.0
N980 N 0.1345 0.67224 0.49285 0.0
N981 N 0.2056 0.78368 0.3823 0.0
H982 H 0.1652 0.72324 0.22134 0.0
H983 H 0.18424 0.76044 0.24023 0.0
H984 H 0.21649 0.8003 0.42461 0.0
H985 H 0.2159 0.78804 0.32459 0.0
H986 H 0.13216 0.66697 0.5553 0.0
H987 H 0.13043 0.6551 0.45414 0.0
H988 H 0.12734 0.69833 0.61916 0.0
H989 H 0.14893 0.7354 0.63859 0.0
C990 C 0.43325 0.45788 0.37044 0.0
C991 C 0.46123 0.46651 0.40378 0.0
C992 C 0.43892 0.45172 0.54218 0.0
C993 C 0.41129 0.44421 0.50897 0.0
N994 N 0.38287 0.44588 0.39657 0.0
N995 N 0.49179 0.47557 0.52154 0.0
C996 C 0.40873 0.44916 0.42458 0.0
C997 C 0.46433 0.46457 0.48991 0.0
N998 N 0.42971 0.45648 0.28703 0.0
N999 N 0.44061 0.4454 0.62279 0.0
H1000 H 0.51062 0.48576 0.48437 0.0
H1001 H 0.49621 0.47744 0.58415 0.0
H1002 H 0.42258 0.43683 0.66338 0.0
H1003 H 0.45935 0.44705 0.64869 0.0
H1004 H 0.40927 0.4472 0.25919 0.0
H1005 H 0.44708 0.46283 0.24503 0.0
H1006 H 0.38032 0.45167 0.33739 0.0
H1007 H 0.36471 0.44002 0.43519 0.0
C1008 C 0.71727 0.98592 0.36338 0.0
C1009 C 0.71311 0.98504 0.45023 0.0
C1010 C 0.68002 0.00427 0.43307 0.0
C1011 C 0.68793 0.00934 0.34844 0.0
N1012 N 0.71461 0.00595 0.23177 0.0
N1013 N 0.6932 0.9967 0.56911 0.0
C1014 C 0.70634 1.0 0.31284 0.0
C1015 C 0.69491 0.99479 0.48556 0.0
N1016 N 0.73146 0.97292 0.32947 0.0
N1017 N 0.65805 0.00838 0.46291 0.0
H1018 H 0.70354 0.98981 0.60995 0.0
H1019 H 0.68302 0.00676 0.59796 0.0
H1020 H 0.64636 0.01464 0.42508 0.0
H1021 H 0.64941 0.0027 0.52252 0.0
H1022 H 0.73307 0.97037 0.26649 0.0
H1023 H 0.73886 0.96181 0.36521 0.0
H1024 H 0.73088 0.00303 0.20436 0.0
H1025 H 0.70627 0.01539 0.19248 0.0
C1026 C 0.76217 0.14096 0.20601 0.0
C1027 C 0.73789 0.12984 0.15255 0.0
C1028 C 0.77232 0.14839 0.03385 0.0
C1029 C 0.79565 0.15308 0.08626 0.0
N1030 N 0.81312 0.15418 0.22291 0.0
N1031 N 0.71944 0.12377 0.01536 0.0
C1032 C 0.79079 0.15019 0.17282 0.0
C1033 C 0.74299 0.13474 0.06646 0.0
N1034 N 0.75762 0.14116 0.28879 0.0
N1035 N 0.77786 0.15531 0.95214 0.0
H1036 H 0.69787 0.11401 0.03795 0.0
H1037 H 0.72103 0.12302 0.95161 0.0
H1038 H 0.79854 0.16313 0.92498 0.0
H1039 H 0.76253 0.15538 0.91256 0.0
H1040 H 0.7746 0.15145 0.33062 0.0
H1041 H 0.73673 0.13321 0.31474 0.0
H1042 H 0.81038 0.14898 0.28539 0.0
H1043 H 0.8344 0.16164 0.20042 0.0
C1044 C 0.01799 0.67572 0.09607 0.0
C1045 C 0.02608 0.68405 0.01273 0.0
C1046 C 0.05832 0.6635 0.01508 0.0
C1047 C 0.05341 0.65883 0.10133 0.0
N1048 N 0.03146 0.66414 0.22658 0.0
N1049 N 0.05473 0.68724 0.89218 0.0
C1050 C 0.03377 0.66565 0.14263 0.0
C1051 C 0.04618 0.67796 0.97162 0.0
N1052 N 0.99492 0.67713 0.13014 0.0
N1053 N 0.0744 0.65367 0.97479 0.0
H1054 H 0.04558 0.69702 0.85743 0.0
H1055 H 0.07203 0.68681 0.86193 0.0
H1056 H 0.08276 0.64242 0.00554 0.0
H1057 H 0.07668 0.65372 0.91107 0.0
H1058 H 0.98622 0.66912 0.18861 0.0
H1059 H 0.98254 0.68361 0.09618 0.0
H1060 H 0.02003 0.67189 0.26054 0.0
H1061 H 0.04252 0.65678 0.26301 0.0
C1062 C 0.49737 0.40152 0.96371 0.0
C1063 C 0.4775 0.37284 0.99183 0.0
C1064 C 0.48451 0.38951 0.13487 0.0
C1065 C 0.50439 0.41812 0.10683 0.0
N1066 N 0.53428 0.45102 0.99857 0.0
N1067 N 0.45722 0.33825 0.10402 0.0
C1068 C 0.51233 0.42397 0.02231 0.0
C1069 C 0.47261 0.36646 0.07747 0.0
N1070 N 0.50096 0.40743 0.88109 0.0
N1071 N 0.47616 0.38458 0.21611 0.0
H1072 H 0.44826 0.32083 0.06387 0.0
H1073 H 0.45546 0.33193 0.16542 0.0
H1074 H 0.48559 0.40066 0.26066 0.0
H1075 H 0.45886 0.36504 0.23888 0.0
H1076 H 0.51257 0.42829 0.8562 0.0
H1077 H 0.49073 0.3914 0.83675 0.0
H1078 H 0.54301 0.45636 0.93905 0.0
H1079 H 0.54551 0.46773 0.04048 0.0
C1080 C 0.00707 0.3887 0.51996 0.0
C1081 C 0.00016 0.36499 0.57326 0.0
C1082 C 0.01098 0.39736 0.69212 0.0
C1083 C 0.02441 0.42174 0.63853 0.0
N1084 N 0.03477 0.44093 0.50075 0.0
N1085 N 0.99459 0.34636 0.71099 0.0
C1086 C 0.02145 0.4174 0.55215 0.0
C1087 C 0.00109 0.36914 0.6598 0.0
N1088 N 0.00141 0.38398 0.43799 0.0
N1089 N 0.00925 0.40141 0.77442 0.0
H1090 H 0.98645 0.32547 0.6887 0.0
H1091 H 0.99823 0.34825 0.77406 0.0
H1092 H 0.01765 0.42196 0.79956 0.0
H1093 H 0.99741 0.38452 0.8163 0.0
H1094 H 0.00324 0.39985 0.39712 0.0
H1095 H 0.99245 0.36349 0.41211 0.0
H1096 H 0.03695 0.43971 0.43735 0.0
H1097 H 0.04492 0.46199 0.52321 0.0
C1098 C 0.73925 0.6466 0.55492 0.0
C1099 C 0.74151 0.65298 0.63998 0.0
C1100 C 0.79471 0.68531 0.62329 0.0
C1101 C 0.79184 0.68206 0.53653 0.0
N1102 N 0.76078 0.66203 0.41834 0.0
N1103 N 0.77065 0.67824 0.75692 0.0
C1104 C 0.764 0.66304 0.50183 0.0
C1105 C 0.76914 0.67197 0.67496 0.0
N1106 N 0.71326 0.6248 0.52524 0.0
N1107 N 0.8221 0.70087 0.65594 0.0
H1108 H 0.75251 0.66776 0.79691 0.0
H1109 H 0.78936 0.69459 0.78489 0.0
H1110 H 0.841 0.7096 0.61905 0.0
H1111 H 0.82635 0.7024 0.71862 0.0
H1112 H 0.71073 0.6172 0.46522 0.0
H1113 H 0.69492 0.61238 0.56329 0.0
H1114 H 0.74048 0.65115 0.38972 0.0
H1115 H 0.77834 0.67354 0.37722 0.0
C1116 C 0.49411 0.12028 0.43376 0.0
C1117 C 0.48705 0.14111 0.46166 0.0
C1118 C 0.50488 0.13978 0.59949 0.0
C1119 C 0.51105 0.11818 0.57242 0.0
N1120 N 0.51961 0.09396 0.45999 0.0
N1121 N 0.49328 0.17678 0.5617 0.0
C1122 C 0.50831 0.11045 0.48803 0.0
C1123 C 0.49509 0.15294 0.54156 0.0
N1124 N 0.48603 0.10896 0.35681 0.0
N1125 N 0.50649 0.14636 0.68119 0.0
H1126 H 0.48665 0.18702 0.51968 0.0
H1127 H 0.50101 0.18803 0.6165 0.0
H1128 H 0.51388 0.13746 0.7253 0.0
H1129 H 0.49876 0.15921 0.70622 0.0
H1130 H 0.48724 0.09118 0.33606 0.0
H1131 H 0.47672 0.11663 0.31473 0.0
H1132 H 0.52055 0.08944 0.39811 0.0
H1133 H 0.53071 0.08711 0.4982 0.0
C1134 C 0.43851 0.01881 0.00805 0.0
C1135 C 0.41062 0.99852 0.97666 0.0
C1136 C 0.43199 0.00472 0.8382 0.0
C1137 C 0.46031 0.02373 0.87012 0.0
N1138 N 0.49141 0.04464 0.98737 0.0
N1139 N 0.3822 0.96612 0.86875 0.0
C1140 C 0.46379 0.02955 0.9558 0.0
C1141 C 0.40777 0.98965 0.89366 0.0
N1142 N 0.44072 0.02863 0.08677 0.0
N1143 N 0.42791 0.00191 0.75511 0.0
H1144 H 0.36511 0.95341 0.91017 0.0
H1145 H 0.37934 0.95727 0.8102 0.0
H1146 H 0.44503 0.01248 0.71212 0.0
H1147 H 0.4072 0.9907 0.72872 0.0
H1148 H 0.45989 0.04594 0.11007 0.0
H1149 H 0.42277 0.02077 0.12748 0.0
H1150 H 0.49568 0.04736 0.05008 0.0
H1151 H 0.51019 0.05156 0.95074 0.0
C1152 C 0.1688 0.49167 0.88994 0.0
C1153 C 0.13938 0.47115 0.86682 0.0
C1154 C 0.13639 0.44013 0.98093 0.0
C1155 C 0.16712 0.45725 0.99363 0.0
N1156 N 0.21383 0.49797 0.94803 0.0
N1157 N 0.09991 0.42099 0.87601 0.0
C1158 C 0.18384 0.48276 0.94488 0.0
C1159 C 0.12458 0.4439 0.90798 0.0
N1160 N 0.18207 0.51981 0.86349 0.0
N1161 N 0.11822 0.42041 0.03892 0.0
H1162 H 0.09221 0.42159 0.81766 0.0
H1163 H 0.08972 0.40031 0.90266 0.0
H1164 H 0.12566 0.41855 0.09656 0.0
H1165 H 0.09537 0.40876 0.03329 0.0
H1166 H 0.20241 0.53585 0.88506 0.0
H1167 H 0.17161 0.52789 0.82753 0.0
H1168 H 0.22686 0.51494 0.90731 0.0
H1169 H 0.22575 0.49216 0.98615 0.0
C1170 C 0.66714 0.69421 0.95555 0.0
C1171 C 0.67007 0.69582 0.86837 0.0
C1172 C 0.68921 0.74821 0.87382 0.0
C1173 C 0.69115 0.7471 0.9604 0.0
N1174 N 0.68127 0.71952 0.08581 0.0
N1175 N 0.68564 0.72469 0.74367 0.0
C1176 C 0.67925 0.72013 0.00212 0.0
C1177 C 0.68099 0.72285 0.82696 0.0
N1178 N 0.65286 0.66766 0.99337 0.0
N1179 N 0.69564 0.77375 0.83677 0.0
H1180 H 0.67974 0.70663 0.70707 0.0
H1181 H 0.69673 0.74425 0.71123 0.0
H1182 H 0.70174 0.79253 0.87042 0.0
H1183 H 0.69217 0.77559 0.77467 0.0
H1184 H 0.64764 0.66441 0.05592 0.0
H1185 H 0.64343 0.64858 0.95972 0.0
H1186 H 0.67652 0.70106 0.11955 0.0
H1187 H 0.68896 0.73802 0.12181 0.0
C1188 C 0.83584 0.06512 0.70477 0.0
C1189 C 0.81374 0.03698 0.73112 0.0
C1190 C 0.8152 0.05493 0.87105 0.0
C1191 C 0.83715 0.08304 0.8446 0.0
N1192 N 0.87469 0.11295 0.74509 0.0
N1193 N 0.7892 0.00337 0.84339 0.0
C1194 C 0.8495 0.08752 0.76407 0.0
C1195 C 0.80558 0.03137 0.81575 0.0
N1196 N 0.84271 0.07088 0.62297 0.0
N1197 N 0.80281 0.0509 0.94794 0.0
H1198 H 0.78292 0.9857 0.80473 0.0
H1199 H 0.78462 0.99764 0.90538 0.0
H1200 H 0.80992 0.06749 0.99097 0.0
H1201 H 0.78429 0.03162 0.96724 0.0
H1202 H 0.85613 0.09174 0.59927 0.0
H1203 H 0.83341 0.05501 0.57792 0.0
H1204 H 0.88622 0.11672 0.68957 0.0
H1205 H 0.88569 0.12911 0.78862 0.0
C1206 C 0.12655 0.82218 0.81498 0.0
C1207 C 0.12952 0.82354 0.72777 0.0
C1208 C 0.0763 0.80387 0.71681 0.0
C1209 C 0.07312 0.8007 0.80377 0.0
N1210 N 0.09583 0.81511 0.93574 0.0
N1211 N 0.10863 0.82332 0.59675 0.0
C1212 C 0.0986 0.81321 0.85273 0.0
C1213 C 0.10492 0.81751 0.67927 0.0
N1214 N 0.15011 0.82754 0.86154 0.0
N1215 N 0.05169 0.79155 0.66986 0.0
H1216 H 0.12893 0.83162 0.56674 0.0
H1217 H 0.09218 0.82218 0.55941 0.0
H1218 H 0.03069 0.78213 0.69622 0.0
H1219 H 0.05194 0.78952 0.6062 0.0
H1220 H 0.14885 0.82356 0.92462 0.0
H1221 H 0.17092 0.835 0.83548 0.0
H1222 H 0.1137 0.8263 0.97433 0.0
H1223 H 0.07547 0.80767 0.96476 0.0
C1224 C 0.34002 0.31718 0.68795 0.0
C1225 C 0.33019 0.3324 0.7375 0.0
C1226 C 0.3458 0.31649 0.85992 0.0
C1227 C 0.36195 0.30779 0.80877 0.0
N1228 N 0.37852 0.30598 0.66958 0.0
N1229 N 0.32407 0.34692 0.87284 0.0
C1230 C 0.35964 0.30901 0.72146 0.0
C1231 C 0.3325 0.33147 0.82445 0.0
N1232 N 0.33251 0.31244 0.60718 0.0
N1233 N 0.34393 0.31124 0.94265 0.0
H1234 H 0.31423 0.35796 0.84864 0.0
H1235 H 0.32835 0.35016 0.93549 0.0
H1236 H 0.35415 0.30111 0.97036 0.0
H1237 H 0.33024 0.31459 0.98221 0.0
H1238 H 0.33683 0.29907 0.57014 0.0
H1239 H 0.31935 0.3194 0.58018 0.0
H1240 H 0.37952 0.30975 0.60637 0.0
H1241 H 0.39545 0.3029 0.68904 0.0
C1242 C 0.1077 0.35121 0.39796 0.0
C1243 C 0.08126 0.33125 0.35865 0.0
C1244 C 0.10681 0.34263 0.22521 0.0
C1245 C 0.13356 0.36207 0.26441 0.0
N1246 N 0.16089 0.38111 0.38881 0.0
N1247 N 0.05742 0.30144 0.24179 0.0
C1248 C 0.13441 0.36502 0.35128 0.0
C1249 C 0.08141 0.32487 0.27432 0.0
N1250 N 0.10703 0.35815 0.47862 0.0
N1251 N 0.10511 0.34232 0.14133 0.0
H1252 H 0.0393 0.28721 0.27822 0.0
H1253 H 0.05695 0.29431 0.1819 0.0
H1254 H 0.12316 0.35496 0.10273 0.0
H1255 H 0.08534 0.3309 0.11019 0.0
H1256 H 0.12487 0.3751 0.50805 0.0
H1257 H 0.08799 0.34811 0.51531 0.0
H1258 H 0.16352 0.382 0.4523 0.0
H1259 H 0.18075 0.39124 0.3558 0.0
C1260 C 0.83798 0.78654 0.18429 0.0
C1261 C 0.835 0.78372 0.27106 0.0
C1262 C 0.80588 0.80775 0.27118 0.0
C1263 C 0.80529 0.80682 0.18383 0.0
N1264 N 0.81829 0.79249 0.05659 0.0
N1265 N 0.81549 0.79054 0.39853 0.0
C1266 C 0.82099 0.79578 0.13997 0.0
C1267 C 0.81912 0.79441 0.31506 0.0
N1268 N 0.85726 0.78053 0.14456 0.0
N1269 N 0.79406 0.82187 0.31195 0.0
H1270 H 0.8258 0.78193 0.43326 0.0
H1271 H 0.80103 0.79432 0.43313 0.0
H1272 H 0.78521 0.83265 0.28086 0.0
H1273 H 0.79594 0.82581 0.3749 0.0
H1274 H 0.86262 0.78468 0.08218 0.0
H1275 H 0.8701 0.77401 0.17605 0.0
H1276 H 0.82645 0.78157 0.02242 0.0
H1277 H 0.80636 0.79924 0.0217 0.0
C1278 C 0.34112 0.05798 0.16091 0.0
C1279 C 0.33521 0.03431 0.21319 0.0
C1280 C 0.3504 0.06692 0.33234 0.0
C1281 C 0.36248 0.09116 0.2779 0.0
N1282 N 0.36834 0.11025 0.14059 0.0
N1283 N 0.33265 0.01555 0.34918 0.0
C1284 C 0.35664 0.08675 0.19243 0.0
C1285 C 0.3385 0.03852 0.29948 0.0
N1286 N 0.3335 0.05311 0.08012 0.0
N1287 N 0.35202 0.07114 0.41535 0.0
H1288 H 0.32337 0.99457 0.32649 0.0
H1289 H 0.33794 0.01724 0.41115 0.0
H1290 H 0.36275 0.09164 0.44134 0.0
H1291 H 0.34089 0.05448 0.45837 0.0
H1292 H 0.33441 0.06886 0.04047 0.0
H1293 H 0.32403 0.0326 0.05424 0.0
H1294 H 0.36831 0.10894 0.07671 0.0
H1295 H 0.37941 0.13147 0.16227 0.0
loop_
_geom_bond_atom_site_label_1
_geom_bond_atom_site_label_2
_geom_bond_distance
_geom_bond_site_symmetry_2
_ccdc_geom_bond_type
Mn0 O5 2.095 . S
Mn0 O15 2.162 . S
Mn0 O16 2.297 . S
Mn0 O24 2.385 . S
Mn0 O25 2.209 . S
Mn0 O26 2.094 . S
Mn1 O6 2.121 . S
Mn1 N8 2.257 1_455 S
Mn1 N17 2.282 . S
Mn1 O25 2.215 . S
Mn1 O27 2.117 . S
C2 O24 1.234 . S
C2 O25 1.283 . S
C3 O15 1.281 . S
C3 O16 1.236 . S
C4 O26 1.240 . S
C4 O27 1.264 . S
O5 Mn0 2.095 . S
O5 C14 1.250 . S
O6 Mn1 2.121 . S
O6 C14 1.258 . S
C7 N8 1.326 . S
C7 C11 1.460 . S
C7 H13 0.929 . S
N8 Mn1 2.257 1_655 S
N8 C7 1.326 . S
N8 C12 1.362 . S
C9 C10 1.258 . S
C9 C12 1.431 . S
C9 C29 1.449 . S
C10 C9 1.258 . S
C10 C11 1.477 . S
C10 H30 0.931 . S
C11 C7 1.460 . S
C11 C10 1.477 . S
C11 H31 0.930 . S
C12 N8 1.362 . S
C12 C9 1.431 . S
C12 C22 1.476 . S
H13 C7 0.929 . S
C14 O5 1.250 . S
C14 O6 1.258 . S
O15 Mn0 2.162 . S
O15 C3 1.281 . S
O16 Mn0 2.297 . S
O16 C3 1.236 . S
N17 Mn1 2.282 . S
N17 C18 1.328 . S
N17 C22 1.318 1_455 S
C18 N17 1.328 . S
C18 C19 1.457 1_554 S
C18 H23 0.929 . S
C19 C18 1.457 1_556 S
C19 C20 1.291 1_455 S
C19 H32 0.931 . S
C20 C19 1.291 1_655 S
C20 C21 1.373 1_556 S
C20 H33 0.929 . S
C21 C20 1.373 1_554 S
C21 C22 1.396 . S
C21 C28 1.403 . S
C22 C12 1.476 . S
C22 N17 1.318 1_655 S
C22 C21 1.396 . S
H23 C18 0.929 . S
O24 Mn0 2.385 . S
O24 C2 1.234 . S
O25 Mn0 2.209 . S
O25 Mn1 2.215 . S
O25 C2 1.283 . S
O26 Mn0 2.094 . S
O26 C4 1.240 . S
O27 Mn1 2.117 . S
O27 C4 1.264 . S
C28 C21 1.403 . S
C28 C29 1.399 . S
C28 H34 0.929 1_554 S
C29 C9 1.449 . S
C29 C28 1.399 . S
C29 H35 0.930 . S
H30 C10 0.931 . S
H31 C11 0.930 . S
H32 C19 0.931 . S
H33 C20 0.929 . S
H34 C28 0.929 1_556 S
H35 C29 0.930 . S
Mn36 O41 2.095 . S
Mn36 O51 2.162 . S
Mn36 O52 2.297 . S
Mn36 O60 2.385 . S
Mn36 O61 2.209 . S
Mn36 O62 2.094 . S
Mn37 O42 2.121 . S
Mn37 N44 2.257 . S
Mn37 N53 2.282 . S
Mn37 O61 2.215 . S
Mn37 O63 2.117 . S
C38 O60 1.234 . S
C38 O61 1.283 . S
C39 O51 1.281 . S
C39 O52 1.236 . S
C40 O62 1.240 . S
C40 O63 1.264 . S
O41 Mn36 2.095 . S
O41 C50 1.250 . S
O42 Mn37 2.121 . S
O42 C50 1.258 . S
C43 N44 1.326 . S
C43 C47 1.460 . S
C43 H49 0.929 . S
N44 Mn37 2.257 . S
N44 C43 1.326 . S
N44 C48 1.362 . S
C45 C46 1.258 . S
C45 C48 1.431 . S
C45 C65 1.449 . S
C46 C45 1.258 . S
C46 C47 1.477 . S
C46 H66 0.931 . S
C47 C43 1.460 . S
C47 C46 1.477 . S
C47 H67 0.930 . S
C48 N44 1.362 . S
C48 C45 1.431 . S
C48 C58 1.476 . S
H49 C43 0.929 . S
C50 O41 1.250 . S
C50 O42 1.258 . S
O51 Mn36 2.162 . S
O51 C39 1.281 . S
O52 Mn36 2.297 . S
O52 C39 1.236 . S
N53 Mn37 2.282 . S
N53 C54 1.328 . S
N53 C58 1.318 . S
C54 N53 1.328 . S
C54 C55 1.457 . S
C54 H59 0.929 . S
C55 C54 1.457 . S
C55 C56 1.291 . S
C55 H68 0.931 . S
C56 C55 1.291 . S
C56 C57 1.373 . S
C56 H69 0.929 . S
C57 C56 1.373 . S
C57 C58 1.396 . S
C57 C64 1.403 . S
C58 C48 1.476 . S
C58 N53 1.318 . S
C58 C57 1.396 . S
H59 C54 0.929 . S
O60 Mn36 2.385 . S
O60 C38 1.234 . S
O61 Mn36 2.209 . S
O61 Mn37 2.215 . S
O61 C38 1.283 . S
O62 Mn36 2.094 . S
O62 C40 1.240 . S
O63 Mn37 2.117 . S
O63 C40 1.264 . S
C64 C57 1.403 . S
C64 C65 1.399 . S
C64 H70 0.929 . S
C65 C45 1.449 . S
C65 C64 1.399 . S
C65 H71 0.930 . S
H66 C46 0.931 . S
H67 C47 0.930 . S
H68 C55 0.931 . S
H69 C56 0.929 . S
H70 C64 0.929 . S
H71 C65 0.930 . S
Mn72 O77 2.095 . S
Mn72 O87 2.162 . S
Mn72 O88 2.297 . S
Mn72 O96 2.385 . S
Mn72 O97 2.209 . S
Mn72 O98 2.094 . S
Mn73 O78 2.121 . S
Mn73 N80 2.257 . S
Mn73 N89 2.282 . S
Mn73 O97 2.215 . S
Mn73 O99 2.117 . S
C74 O96 1.234 . S
C74 O97 1.283 . S
C75 O87 1.281 . S
C75 O88 1.236 . S
C76 O98 1.240 . S
C76 O99 1.264 . S
O77 Mn72 2.095 . S
O77 C86 1.250 . S
O78 Mn73 2.121 . S
O78 C86 1.258 . S
C79 N80 1.326 . S
C79 C83 1.460 . S
C79 H85 0.929 . S
N80 Mn73 2.257 . S
N80 C79 1.326 . S
N80 C84 1.362 . S
C81 C82 1.258 . S
C81 C84 1.431 . S
C81 C101 1.449 . S
C82 C81 1.258 . S
C82 C83 1.477 . S
C82 H102 0.931 . S
C83 C79 1.460 . S
C83 C82 1.477 . S
C83 H103 0.930 . S
C84 N80 1.362 . S
C84 C81 1.431 . S
C84 C94 1.476 . S
H85 C79 0.929 . S
C86 O77 1.250 . S
C86 O78 1.258 . S
O87 Mn72 2.162 . S
O87 C75 1.281 . S
O88 Mn72 2.297 . S
O88 C75 1.236 . S
N89 Mn73 2.282 . S
N89 C90 1.328 . S
N89 C94 1.318 . S
C90 N89 1.328 . S
C90 C91 1.457 1_554 S
C90 H95 0.929 . S
C91 C90 1.457 1_556 S
C91 C92 1.291 . S
C91 H104 0.931 . S
C92 C91 1.291 . S
C92 C93 1.373 1_556 S
C92 H105 0.929 . S
C93 C92 1.373 1_554 S
C93 C94 1.396 . S
C93 C100 1.403 . S
C94 C84 1.476 . S
C94 N89 1.318 . S
C94 C93 1.396 . S
H95 C90 0.929 . S
O96 Mn72 2.385 . S
O96 C74 1.234 . S
O97 Mn72 2.209 . S
O97 Mn73 2.215 . S
O97 C74 1.283 . S
O98 Mn72 2.094 . S
O98 C76 1.240 . S
O99 Mn73 2.117 . S
O99 C76 1.264 . S
C100 C93 1.403 . S
C100 C101 1.399 . S
C100 H106 0.929 . S
C101 C81 1.449 . S
C101 C100 1.399 . S
C101 H107 0.930 . S
H102 C82 0.931 . S
H103 C83 0.930 . S
H104 C91 0.931 . S
H105 C92 0.929 . S
H106 C100 0.929 . S
H107 C101 0.930 . S
Mn108 O113 2.095 . S
Mn108 O123 2.162 . S
Mn108 O124 2.297 . S
Mn108 O132 2.385 . S
Mn108 O133 2.209 . S
Mn108 O134 2.094 . S
Mn109 O114 2.121 . S
Mn109 N116 2.257 1_455 S
Mn109 N125 2.282 . S
Mn109 O133 2.215 . S
Mn109 O135 2.117 . S
C110 O132 1.234 . S
C110 O133 1.283 . S
C111 O123 1.281 . S
C111 O124 1.236 . S
C112 O134 1.240 . S
C112 O135 1.264 . S
O113 Mn108 2.095 . S
O113 C122 1.250 . S
O114 Mn109 2.121 . S
O114 C122 1.258 . S
C115 N116 1.326 . S
C115 C119 1.460 . S
C115 H121 0.929 . S
N116 Mn109 2.257 1_655 S
N116 C115 1.326 . S
N116 C120 1.362 . S
C117 C118 1.258 . S
C117 C120 1.431 . S
C117 C137 1.449 . S
C118 C117 1.258 . S
C118 C119 1.477 . S
C118 H138 0.931 . S
C119 C115 1.460 . S
C119 C118 1.477 . S
C119 H139 0.930 . S
C120 N116 1.362 . S
C120 C117 1.431 . S
C120 C130 1.476 . S
H121 C115 0.929 . S
C122 O113 1.250 . S
C122 O114 1.258 . S
O123 Mn108 2.162 . S
O123 C111 1.281 . S
O124 Mn108 2.297 . S
O124 C111 1.236 . S
N125 Mn109 2.282 . S
N125 C126 1.328 . S
N125 C130 1.318 1_455 S
C126 N125 1.328 . S
C126 C127 1.457 . S
C126 H131 0.929 . S
C127 C126 1.457 . S
C127 C128 1.291 1_455 S
C127 H140 0.931 . S
C128 C127 1.291 1_655 S
C128 C129 1.373 . S
C128 H141 0.929 . S
C129 C128 1.373 . S
C129 C130 1.396 . S
C129 C136 1.403 . S
C130 C120 1.476 . S
C130 N125 1.318 1_655 S
C130 C129 1.396 . S
H131 C126 0.929 . S
O132 Mn108 2.385 . S
O132 C110 1.234 . S
O133 Mn108 2.209 . S
O133 Mn109 2.215 . S
O133 C110 1.283 . S
O134 Mn108 2.094 . S
O134 C112 1.240 . S
O135 Mn109 2.117 . S
O135 C112 1.264 . S
C136 C129 1.403 . S
C136 C137 1.399 . S
C136 H142 0.929 . S
C137 C117 1.449 . S
C137 C136 1.399 . S
C137 H143 0.930 . S
H138 C118 0.931 . S
H139 C119 0.930 . S
H140 C127 0.931 . S
H141 C128 0.929 . S
H142 C136 0.929 . S
H143 C137 0.930 . S
Mn144 O149 2.095 . S
Mn144 O159 2.162 . S
Mn144 O160 2.297 . S
Mn144 O168 2.385 . S
Mn144 O169 2.209 . S
Mn144 O170 2.094 . S
Mn145 O150 2.121 . S
Mn145 N152 2.257 . S
Mn145 N161 2.282 . S
Mn145 O169 2.215 . S
Mn145 O171 2.117 . S
C146 O168 1.234 . S
C146 O169 1.283 . S
C147 O159 1.281 . S
C147 O160 1.236 . S
C148 O170 1.240 . S
C148 O171 1.264 . S
O149 Mn144 2.095 . S
O149 C158 1.250 . S
O150 Mn145 2.121 . S
O150 C158 1.258 . S
C151 N152 1.326 . S
C151 C155 1.460 . S
C151 H157 0.929 . S
N152 Mn145 2.257 . S
N152 C151 1.326 . S
N152 C156 1.362 . S
C153 C154 1.258 . S
C153 C156 1.431 . S
C153 C173 1.449 . S
C154 C153 1.258 . S
C154 C155 1.477 . S
C154 H174 0.931 . S
C155 C151 1.460 . S
C155 C154 1.477 . S
C155 H175 0.930 . S
C156 N152 1.362 . S
C156 C153 1.431 . S
C156 C166 1.476 . S
H157 C151 0.929 . S
C158 O149 1.250 . S
C158 O150 1.258 . S
O159 Mn144 2.162 . S
O159 C147 1.281 . S
O160 Mn144 2.297 . S
O160 C147 1.236 . S
N161 Mn145 2.282 . S
N161 C162 1.328 . S
N161 C166 1.318 . S
C162 N161 1.328 . S
C162 C163 1.457 1_556 S
C162 H167 0.929 . S
C163 C162 1.457 1_554 S
C163 C164 1.291 . S
C163 H176 0.931 . S
C164 C163 1.291 . S
C164 C165 1.373 1_554 S
C164 H177 0.929 . S
C165 C164 1.373 1_556 S
C165 C166 1.396 . S
C165 C172 1.403 . S
C166 C156 1.476 . S
C166 N161 1.318 . S
C166 C165 1.396 . S
H167 C162 0.929 . S
O168 Mn144 2.385 . S
O168 C146 1.234 . S
O169 Mn144 2.209 . S
O169 Mn145 2.215 . S
O169 C146 1.283 . S
O170 Mn144 2.094 . S
O170 C148 1.240 . S
O171 Mn145 2.117 . S
O171 C148 1.264 . S
C172 C165 1.403 . S
C172 C173 1.399 . S
C172 H178 0.929 . S
C173 C153 1.449 . S
C173 C172 1.399 . S
C173 H179 0.930 . S
H174 C154 0.931 . S
H175 C155 0.930 . S
H176 C163 0.931 . S
H177 C164 0.929 . S
H178 C172 0.929 . S
H179 C173 0.930 . S
Mn180 O185 2.095 . S
Mn180 O195 2.162 . S
Mn180 O196 2.297 . S
Mn180 O204 2.385 . S
Mn180 O205 2.209 . S
Mn180 O206 2.094 . S
Mn181 O186 2.121 . S
Mn181 N188 2.257 1_545 S
Mn181 N197 2.282 1_545 S
Mn181 O205 2.215 . S
Mn181 O207 2.117 . S
C182 O204 1.234 . S
C182 O205 1.283 . S
C183 O195 1.281 . S
C183 O196 1.236 . S
C184 O206 1.240 . S
C184 O207 1.264 . S
O185 Mn180 2.095 . S
O185 C194 1.250 . S
O186 Mn181 2.121 . S
O186 C194 1.258 . S
C187 N188 1.326 . S
C187 C191 1.460 . S
C187 H193 0.929 . S
N188 Mn181 2.257 1_565 S
N188 C187 1.326 . S
N188 C192 1.362 . S
C189 C190 1.258 . S
C189 C192 1.431 . S
C189 C209 1.449 . S
C190 C189 1.258 . S
C190 C191 1.477 . S
C190 H210 0.931 . S
C191 C187 1.460 . S
C191 C190 1.477 . S
C191 H211 0.930 . S
C192 N188 1.362 . S
C192 C189 1.431 . S
C192 C202 1.476 . S
H193 C187 0.929 . S
C194 O185 1.250 . S
C194 O186 1.258 . S
O195 Mn180 2.162 . S
O195 C183 1.281 . S
O196 Mn180 2.297 . S
O196 C183 1.236 . S
N197 Mn181 2.282 1_565 S
N197 C198 1.328 1_565 S
N197 C202 1.318 . S
C198 N197 1.328 1_545 S
C198 C199 1.457 1_546 S
C198 H203 0.929 . S
C199 C198 1.457 1_564 S
C199 C200 1.291 . S
C199 H212 0.931 1_565 S
C200 C199 1.291 . S
C200 C201 1.373 1_554 S
C200 H213 0.929 . S
C201 C200 1.373 1_556 S
C201 C202 1.396 . S
C201 C208 1.403 . S
C202 C192 1.476 . S
C202 N197 1.318 . S
C202 C201 1.396 . S
H203 C198 0.929 . S
O204 Mn180 2.385 . S
O204 C182 1.234 . S
O205 Mn180 2.209 . S
O205 Mn181 2.215 . S
O205 C182 1.283 . S
O206 Mn180 2.094 . S
O206 C184 1.240 . S
O207 Mn181 2.117 . S
O207 C184 1.264 . S
C208 C201 1.403 . S
C208 C209 1.399 . S
C208 H214 0.929 1_556 S
C209 C189 1.449 . S
C209 C208 1.399 . S
C209 H215 0.930 . S
H210 C190 0.931 . S
H211 C191 0.930 . S
H212 C199 0.931 1_545 S
H213 C200 0.929 . S
H214 C208 0.929 1_554 S
H215 C209 0.930 . S
Mn216 O221 2.095 . S
Mn216 O231 2.162 1_565 S
Mn216 O232 2.268 1_565 S
Mn216 O240 2.385 . S
Mn216 O241 2.209 . S
Mn216 O242 2.094 . S
Mn217 O222 2.121 . S
Mn217 N224 2.257 . S
Mn217 N233 2.282 . S
Mn217 O241 2.215 . S
Mn217 O243 2.117 . S
C218 O240 1.234 . S
C218 O241 1.283 . S
C219 O231 1.281 . S
C219 O232 1.240 . S
C220 O242 1.240 . S
C220 O243 1.264 . S
O221 Mn216 2.095 . S
O221 C230 1.250 . S
O222 Mn217 2.121 . S
O222 C230 1.258 . S
C223 N224 1.326 . S
C223 C227 1.460 . S
C223 H229 0.929 . S
N224 Mn217 2.257 . S
N224 C223 1.326 . S
N224 C228 1.362 . S
C225 C226 1.258 . S
C225 C228 1.431 . S
C225 C245 1.449 . S
C226 C225 1.258 . S
C226 C227 1.477 . S
C226 H246 0.931 . S
C227 C223 1.460 . S
C227 C226 1.477 . S
C227 H247 0.930 . S
C228 N224 1.362 . S
C228 C225 1.431 . S
C228 C238 1.476 . S
H229 C223 0.929 . S
C230 O221 1.250 . S
C230 O222 1.258 . S
O231 Mn216 2.162 1_545 S
O231 C219 1.281 . S
O232 Mn216 2.268 1_545 S
O232 C219 1.240 . S
N233 Mn217 2.282 . S
N233 C234 1.328 . S
N233 C238 1.318 . S
C234 N233 1.328 . S
C234 C235 1.457 . S
C234 H239 0.929 . S
C235 C234 1.457 . S
C235 C236 1.291 . S
C235 H248 0.931 . S
C236 C235 1.291 . S
C236 C237 1.373 . S
C236 H249 0.929 . S
C237 C236 1.373 . S
C237 C238 1.396 . S
C237 C244 1.403 . S
C238 C228 1.476 . S
C238 N233 1.318 . S
C238 C237 1.396 . S
H239 C234 0.929 . S
O240 Mn216 2.385 . S
O240 C218 1.234 . S
O241 Mn216 2.209 . S
O241 Mn217 2.215 . S
O241 C218 1.283 . S
O242 Mn216 2.094 . S
O242 C220 1.240 . S
O243 Mn217 2.117 . S
O243 C220 1.264 . S
C244 C237 1.403 . S
C244 C245 1.399 . S
C244 H250 0.929 . S
C245 C225 1.449 . S
C245 C244 1.399 . S
C245 H251 0.930 . S
H246 C226 0.931 . S
H247 C227 0.930 . S
H248 C235 0.931 . S
H249 C236 0.929 . S
H250 C244 0.929 . S
H251 C245 0.930 . S
Mn252 O257 2.095 . S
Mn252 O267 2.162 . S
Mn252 O268 2.297 . S
Mn252 O276 2.385 . S
Mn252 O277 2.209 . S
Mn252 O278 2.094 . S
Mn253 O258 2.121 . S
Mn253 N260 2.257 . S
Mn253 N269 2.282 . S
Mn253 O277 2.215 . S
Mn253 O279 2.117 . S
C254 O276 1.234 . S
C254 O277 1.283 . S
C255 O267 1.281 . S
C255 O268 1.236 . S
C256 O278 1.240 . S
C256 O279 1.264 . S
O257 Mn252 2.095 . S
O257 C266 1.250 . S
O258 Mn253 2.121 . S
O258 C266 1.258 . S
C259 N260 1.326 . S
C259 C263 1.460 . S
C259 H265 0.929 . S
N260 Mn253 2.257 . S
N260 C259 1.326 . S
N260 C264 1.362 . S
C261 C262 1.258 . S
C261 C264 1.431 . S
C261 C281 1.449 . S
C262 C261 1.258 . S
C262 C263 1.477 . S
C262 H282 0.931 . S
C263 C259 1.460 . S
C263 C262 1.477 . S
C263 H283 0.930 . S
C264 N260 1.362 . S
C264 C261 1.431 . S
C264 C274 1.476 . S
H265 C259 0.929 . S
C266 O257 1.250 . S
C266 O258 1.258 . S
O267 Mn252 2.162 . S
O267 C255 1.281 . S
O268 Mn252 2.297 . S
O268 C255 1.236 . S
N269 Mn253 2.282 . S
N269 C270 1.328 . S
N269 C274 1.318 . S
C270 N269 1.328 . S
C270 C271 1.457 . S
C270 H275 0.929 . S
C271 C270 1.457 . S
C271 C272 1.291 . S
C271 H284 0.931 . S
C272 C271 1.291 . S
C272 C273 1.373 . S
C272 H285 0.929 . S
C273 C272 1.373 . S
C273 C274 1.396 . S
C273 C280 1.403 . S
C274 C264 1.476 . S
C274 N269 1.318 . S
C274 C273 1.396 . S
H275 C270 0.929 . S
O276 Mn252 2.385 . S
O276 C254 1.234 . S
O277 Mn252 2.209 . S
O277 Mn253 2.215 . S
O277 C254 1.283 . S
O278 Mn252 2.094 . S
O278 C256 1.240 . S
O279 Mn253 2.117 . S
O279 C256 1.264 . S
C280 C273 1.403 . S
C280 C281 1.399 . S
C280 H286 0.929 . S
C281 C261 1.449 . S
C281 C280 1.399 . S
C281 H287 0.930 . S
H282 C262 0.931 . S
H283 C263 0.930 . S
H284 C271 0.931 . S
H285 C272 0.929 . S
H286 C280 0.929 . S
H287 C281 0.930 . S
Mn288 O293 2.095 . S
Mn288 O303 2.162 . S
Mn288 O304 2.297 . S
Mn288 O312 2.385 . S
Mn288 O313 2.209 . S
Mn288 O314 2.094 . S
Mn289 O294 2.121 . S
Mn289 N296 2.257 . S
Mn289 N305 2.282 . S
Mn289 O313 2.215 . S
Mn289 O315 2.117 . S
C290 O312 1.234 . S
C290 O313 1.283 . S
C291 O303 1.281 . S
C291 O304 1.236 . S
C292 O314 1.240 . S
C292 O315 1.264 . S
O293 Mn288 2.095 . S
O293 C302 1.250 . S
O294 Mn289 2.121 . S
O294 C302 1.258 . S
C295 N296 1.326 . S
C295 C299 1.460 . S
C295 H301 0.929 . S
N296 Mn289 2.257 . S
N296 C295 1.326 . S
N296 C300 1.362 . S
C297 C298 1.258 . S
C297 C300 1.431 . S
C297 C317 1.449 . S
C298 C297 1.258 . S
C298 C299 1.477 . S
C298 H318 0.931 . S
C299 C295 1.460 . S
C299 C298 1.477 . S
C299 H319 0.930 . S
C300 N296 1.362 . S
C300 C297 1.431 . S
C300 C310 1.476 . S
H301 C295 0.929 . S
C302 O293 1.250 . S
C302 O294 1.258 . S
O303 Mn288 2.162 . S
O303 C291 1.281 . S
O304 Mn288 2.297 . S
O304 C291 1.236 . S
N305 Mn289 2.282 . S
N305 C306 1.328 . S
N305 C310 1.318 . S
C306 N305 1.328 . S
C306 C307 1.457 . S
C306 H311 0.929 . S
C307 C306 1.457 . S
C307 C308 1.291 . S
C307 H320 0.931 . S
C308 C307 1.291 . S
C308 C309 1.373 . S
C308 H321 0.929 . S
C309 C308 1.373 . S
C309 C310 1.396 . S
C309 C316 1.403 . S
C310 C300 1.476 . S
C310 N305 1.318 . S
C310 C309 1.396 . S
H311 C306 0.929 . S
O312 Mn288 2.385 . S
O312 C290 1.234 . S
O313 Mn288 2.209 . S
O313 Mn289 2.215 . S
O313 C290 1.283 . S
O314 Mn288 2.094 . S
O314 C292 1.240 . S
O315 Mn289 2.117 . S
O315 C292 1.264 . S
C316 C309 1.403 . S
C316 C317 1.399 . S
C316 H322 0.929 . S
C317 C297 1.449 . S
C317 C316 1.399 . S
C317 H323 0.930 . S
H318 C298 0.931 . S
H319 C299 0.930 . S
H320 C307 0.931 . S
H321 C308 0.929 . S
H322 C316 0.929 . S
H323 C317 0.930 . S
Mn324 O329 2.095 1_554 S
Mn324 O339 2.162 . S
Mn324 O340 2.297 1_554 S
Mn324 O348 2.385 . S
Mn324 O349 2.209 . S
Mn324 O350 2.094 . S
Mn325 O330 2.121 1_554 S
Mn325 N332 2.257 . S
Mn325 N341 2.282 . S
Mn325 O349 2.215 . S
Mn325 O351 2.117 . S
C326 O348 1.234 . S
C326 O349 1.283 . S
C327 O339 1.281 1_556 S
C327 O340 1.236 . S
C328 O350 1.240 . S
C328 O351 1.264 . S
O329 Mn324 2.095 1_556 S
O329 C338 1.250 . S
O330 Mn325 2.121 1_556 S
O330 C338 1.258 . S
C331 N332 1.326 1_556 S
C331 C335 1.460 . S
C331 H337 0.929 . S
N332 Mn325 2.257 . S
N332 C331 1.326 1_554 S
N332 C336 1.362 . S
C333 C334 1.258 . S
C333 C336 1.431 . S
C333 C353 1.449 . S
C334 C333 1.258 . S
C334 C335 1.477 1_554 S
C334 H354 0.931 . S
C335 C331 1.460 . S
C335 C334 1.477 1_556 S
C335 H355 0.930 . S
C336 N332 1.362 . S
C336 C333 1.431 . S
C336 C346 1.476 . S
H337 C331 0.929 . S
C338 O329 1.250 . S
C338 O330 1.258 . S
O339 Mn324 2.162 . S
O339 C327 1.281 1_554 S
O340 Mn324 2.297 1_556 S
O340 C327 1.236 . S
N341 Mn325 2.282 . S
N341 C342 1.328 . S
N341 C346 1.318 . S
C342 N341 1.328 . S
C342 C343 1.457 . S
C342 H347 0.929 . S
C343 C342 1.457 . S
C343 C344 1.291 . S
C343 H356 0.931 . S
C344 C343 1.291 . S
C344 C345 1.373 . S
C344 H357 0.929 . S
C345 C344 1.373 . S
C345 C346 1.396 . S
C345 C352 1.403 . S
C346 C336 1.476 . S
C346 N341 1.318 . S
C346 C345 1.396 . S
H347 C342 0.929 . S
O348 Mn324 2.385 . S
O348 C326 1.234 . S
O349 Mn324 2.209 . S
O349 Mn325 2.215 . S
O349 C326 1.283 . S
O350 Mn324 2.094 . S
O350 C328 1.240 . S
O351 Mn325 2.117 . S
O351 C328 1.264 . S
C352 C345 1.403 . S
C352 C353 1.399 . S
C352 H358 0.929 . S
C353 C333 1.449 . S
C353 C352 1.399 . S
C353 H359 0.930 . S
H354 C334 0.931 . S
H355 C335 0.930 . S
H356 C343 0.931 . S
H357 C344 0.929 . S
H358 C352 0.929 . S
H359 C353 0.930 . S
Mn360 O365 2.095 . S
Mn360 O375 2.162 . S
Mn360 O376 2.297 1_554 S
Mn360 O384 2.385 1_565 S
Mn360 O385 2.209 . S
Mn360 O386 2.094 . S
Mn361 O366 2.121 . S
Mn361 N368 2.267 . S
Mn361 N377 2.282 . S
Mn361 O385 2.215 . S
Mn361 O387 2.117 . S
C362 O384 1.234 . S
C362 O385 1.283 1_545 S
C363 O375 1.281 . S
C363 O376 1.236 1_554 S
C364 O386 1.240 . S
C364 O387 1.264 . S
O365 Mn360 2.095 . S
O365 C374 1.250 1_554 S
O366 Mn361 2.121 . S
O366 C374 1.258 1_554 S
C367 N368 1.324 1_545 S
C367 C371 1.460 . S
C367 H373 0.929 1_544 S
N368 Mn361 2.267 . S
N368 C367 1.324 1_565 S
N368 C372 1.355 1_565 S
C369 C370 1.258 . S
C369 C372 1.431 . S
C369 C389 1.449 . S
C370 C369 1.258 . S
C370 C371 1.477 . S
C370 H390 0.931 . S
C371 C367 1.460 . S
C371 C370 1.477 . S
C371 H391 0.930 1_554 S
C372 N368 1.355 1_545 S
C372 C369 1.431 . S
C372 C382 1.476 . S
H373 C367 0.929 1_566 S
C374 O365 1.250 1_556 S
C374 O366 1.258 1_556 S
O375 Mn360 2.162 . S
O375 C363 1.281 . S
O376 Mn360 2.297 1_556 S
O376 C363 1.236 1_556 S
N377 Mn361 2.282 . S
N377 C378 1.328 . S
N377 C382 1.318 1_565 S
C378 N377 1.328 . S
C378 C379 1.457 1_565 S
C378 H383 0.929 . S
C379 C378 1.457 1_545 S
C379 C380 1.291 . S
C379 H392 0.931 . S
C380 C379 1.291 . S
C380 C381 1.373 . S
C380 H393 0.929 . S
C381 C380 1.373 . S
C381 C382 1.396 . S
C381 C388 1.403 . S
C382 C372 1.476 . S
C382 N377 1.318 1_545 S
C382 C381 1.396 . S
H383 C378 0.929 . S
O384 Mn360 2.385 1_545 S
O384 C362 1.234 . S
O385 Mn360 2.209 . S
O385 Mn361 2.215 . S
O385 C362 1.283 1_565 S
O386 Mn360 2.094 . S
O386 C364 1.240 . S
O387 Mn361 2.117 . S
O387 C364 1.264 . S
C388 C381 1.403 . S
C388 C389 1.399 . S
C388 H394 0.929 . S
C389 C369 1.449 . S
C389 C388 1.399 . S
C389 H395 0.930 . S
H390 C370 0.931 . S
H391 C371 0.930 1_556 S
H392 C379 0.931 . S
H393 C380 0.929 . S
H394 C388 0.929 . S
H395 C389 0.930 . S
Mn396 O401 2.095 . S
Mn396 O411 2.162 . S
Mn396 O412 2.297 . S
Mn396 O420 2.385 . S
Mn396 O421 2.209 . S
Mn396 O422 2.094 . S
Mn397 O402 2.121 . S
Mn397 N404 2.257 . S
Mn397 N413 2.282 . S
Mn397 O421 2.215 . S
Mn397 O423 2.117 . S
C398 O420 1.234 . S
C398 O421 1.283 . S
C399 O411 1.281 . S
C399 O412 1.236 . S
C400 O422 1.240 . S
C400 O423 1.264 . S
O401 Mn396 2.095 . S
O401 C410 1.250 1_554 S
O402 Mn397 2.121 . S
O402 C410 1.258 1_554 S
C403 N404 1.326 . S
C403 C407 1.460 . S
C403 H409 0.929 1_554 S
N404 Mn397 2.257 . S
N404 C403 1.326 . S
N404 C408 1.362 . S
C405 C406 1.258 . S
C405 C408 1.431 . S
C405 C425 1.449 . S
C406 C405 1.258 . S
C406 C407 1.477 . S
C406 H426 0.931 . S
C407 C403 1.460 . S
C407 C406 1.477 . S
C407 H427 0.930 1_554 S
C408 N404 1.362 . S
C408 C405 1.431 . S
C408 C418 1.476 . S
H409 C403 0.929 1_556 S
C410 O401 1.250 1_556 S
C410 O402 1.258 1_556 S
O411 Mn396 2.162 . S
O411 C399 1.281 . S
O412 Mn396 2.297 . S
O412 C399 1.236 . S
N413 Mn397 2.282 . S
N413 C414 1.328 . S
N413 C418 1.318 . S
C414 N413 1.328 . S
C414 C415 1.457 . S
C414 H419 0.929 . S
C415 C414 1.457 . S
C415 C416 1.291 . S
C415 H428 0.931 . S
C416 C415 1.291 . S
C416 C417 1.373 . S
C416 H429 0.929 . S
C417 C416 1.373 . S
C417 C418 1.396 . S
C417 C424 1.403 . S
C418 C408 1.476 . S
C418 N413 1.318 . S
C418 C417 1.396 . S
H419 C414 0.929 . S
O420 Mn396 2.385 . S
O420 C398 1.234 . S
O421 Mn396 2.209 . S
O421 Mn397 2.215 . S
O421 C398 1.283 . S
O422 Mn396 2.094 . S
O422 C400 1.240 . S
O423 Mn397 2.117 . S
O423 C400 1.264 . S
C424 C417 1.403 . S
C424 C425 1.399 . S
C424 H430 0.929 . S
C425 C405 1.449 . S
C425 C424 1.399 . S
C425 H431 0.930 . S
H426 C406 0.931 . S
H427 C407 0.930 1_556 S
H428 C415 0.931 . S
H429 C416 0.929 . S
H430 C424 0.929 . S
H431 C425 0.930 . S
Mn432 O437 2.095 . S
Mn432 O447 2.162 . S
Mn432 O448 2.297 . S
Mn432 O456 2.385 . S
Mn432 O457 2.209 . S
Mn432 O458 2.094 . S
Mn433 O438 2.121 . S
Mn433 N440 2.257 . S
Mn433 N449 2.282 . S
Mn433 O457 2.215 . S
Mn433 O459 2.117 . S
C434 O456 1.234 . S
C434 O457 1.283 . S
C435 O447 1.281 . S
C435 O448 1.236 . S
C436 O458 1.240 . S
C436 O459 1.264 . S
O437 Mn432 2.095 . S
O437 C446 1.250 . S
O438 Mn433 2.121 . S
O438 C446 1.258 . S
C439 N440 1.326 . S
C439 C443 1.460 . S
C439 H445 0.929 1_556 S
N440 Mn433 2.257 . S
N440 C439 1.326 . S
N440 C444 1.362 . S
C441 C442 1.258 . S
C441 C444 1.431 . S
C441 C461 1.449 . S
C442 C441 1.258 . S
C442 C443 1.477 . S
C442 H462 0.931 . S
C443 C439 1.460 . S
C443 C442 1.477 . S
C443 H463 0.930 1_556 S
C444 N440 1.362 . S
C444 C441 1.431 . S
C444 C454 1.476 . S
H445 C439 0.929 1_554 S
C446 O437 1.250 . S
C446 O438 1.258 . S
O447 Mn432 2.162 . S
O447 C435 1.281 . S
O448 Mn432 2.297 . S
O448 C435 1.236 . S
N449 Mn433 2.282 . S
N449 C450 1.328 . S
N449 C454 1.318 . S
C450 N449 1.328 . S
C450 C451 1.457 . S
C450 H455 0.929 . S
C451 C450 1.457 . S
C451 C452 1.291 . S
C451 H464 0.931 . S
C452 C451 1.291 . S
C452 C453 1.373 . S
C452 H465 0.929 . S
C453 C452 1.373 . S
C453 C454 1.396 . S
C453 C460 1.403 . S
C454 C444 1.476 . S
C454 N449 1.318 . S
C454 C453 1.396 . S
H455 C450 0.929 . S
O456 Mn432 2.385 . S
O456 C434 1.234 . S
O457 Mn432 2.209 . S
O457 Mn433 2.215 . S
O457 C434 1.283 . S
O458 Mn432 2.094 . S
O458 C436 1.240 . S
O459 Mn433 2.117 . S
O459 C436 1.264 . S
C460 C453 1.403 . S
C460 C461 1.399 . S
C460 H466 0.929 . S
C461 C441 1.449 . S
C461 C460 1.399 . S
C461 H467 0.930 . S
H462 C442 0.931 . S
H463 C443 0.930 1_554 S
H464 C451 0.931 . S
H465 C452 0.929 . S
H466 C460 0.929 . S
H467 C461 0.930 . S
Mn468 O473 2.095 . S
Mn468 O483 2.162 . S
Mn468 O484 2.297 . S
Mn468 O492 2.385 1_556 S
Mn468 O493 2.209 . S
Mn468 O494 2.094 1_556 S
Mn469 O474 2.121 1_554 S
Mn469 N476 2.257 1_554 S
Mn469 N485 2.282 . S
Mn469 O493 2.215 1_554 S
Mn469 O495 2.117 . S
C470 O492 1.234 . S
C470 O493 1.283 1_554 S
C471 O483 1.281 . S
C471 O484 1.236 . S
C472 O494 1.240 . S
C472 O495 1.264 . S
O473 Mn468 2.095 . S
O473 C482 1.250 . S
O474 Mn469 2.121 1_556 S
O474 C482 1.258 . S
C475 N476 1.326 . S
C475 C479 1.460 . S
C475 H481 0.929 . S
N476 Mn469 2.257 1_556 S
N476 C475 1.326 . S
N476 C480 1.362 1_556 S
C477 C478 1.258 1_554 S
C477 C480 1.431 . S
C477 C497 1.449 . S
C478 C477 1.258 1_556 S
C478 C479 1.477 . S
C478 H498 0.931 . S
C479 C475 1.460 . S
C479 C478 1.477 . S
C479 H499 0.930 . S
C480 N476 1.362 1_554 S
C480 C477 1.431 . S
C480 C490 1.476 . S
H481 C475 0.929 . S
C482 O473 1.250 . S
C482 O474 1.258 . S
O483 Mn468 2.162 . S
O483 C471 1.281 . S
O484 Mn468 2.297 . S
O484 C471 1.236 . S
N485 Mn469 2.282 . S
N485 C486 1.328 . S
N485 C490 1.318 . S
C486 N485 1.328 . S
C486 C487 1.457 . S
C486 H491 0.929 . S
C487 C486 1.457 . S
C487 C488 1.291 . S
C487 H500 0.931 . S
C488 C487 1.291 . S
C488 C489 1.373 . S
C488 H501 0.929 . S
C489 C488 1.373 . S
C489 C490 1.396 . S
C489 C496 1.403 . S
C490 C480 1.476 . S
C490 N485 1.318 . S
C490 C489 1.396 . S
H491 C486 0.929 . S
O492 Mn468 2.385 1_554 S
O492 C470 1.234 . S
O493 Mn468 2.209 . S
O493 Mn469 2.215 1_556 S
O493 C470 1.283 1_556 S
O494 Mn468 2.094 1_554 S
O494 C472 1.240 . S
O495 Mn469 2.117 . S
O495 C472 1.264 . S
C496 C489 1.403 . S
C496 C497 1.399 . S
C496 H502 0.929 . S
C497 C477 1.449 . S
C497 C496 1.399 . S
C497 H503 0.930 . S
H498 C478 0.931 . S
H499 C479 0.930 . S
H500 C487 0.931 . S
H501 C488 0.929 . S
H502 C496 0.929 . S
H503 C497 0.930 . S
Mn504 O509 2.095 . S
Mn504 O519 2.162 . S
Mn504 O520 2.297 1_656 S
Mn504 O528 2.385 1_655 S
Mn504 O529 2.209 1_655 S
Mn504 O530 2.094 . S
Mn505 O510 2.121 1_455 S
Mn505 N512 2.257 . S
Mn505 N521 2.282 . S
Mn505 O529 2.215 . S
Mn505 O531 2.117 1_455 S
C506 O528 1.234 . S
C506 O529 1.283 . S
C507 O519 1.281 1_455 S
C507 O520 1.236 1_556 S
C508 O530 1.240 . S
C508 O531 1.264 . S
O509 Mn504 2.095 . S
O509 C518 1.250 1_556 S
O510 Mn505 2.121 1_655 S
O510 C518 1.258 1_556 S
C511 N512 1.326 . S
C511 C515 1.460 . S
C511 H517 0.929 1_556 S
N512 Mn505 2.257 . S
N512 C511 1.326 . S
N512 C516 1.362 . S
C513 C514 1.258 . S
C513 C516 1.431 . S
C513 C533 1.449 . S
C514 C513 1.258 . S
C514 C515 1.477 . S
C514 H534 0.931 . S
C515 C511 1.460 . S
C515 C514 1.477 . S
C515 H535 0.930 1_556 S
C516 N512 1.362 . S
C516 C513 1.431 . S
C516 C526 1.476 . S
H517 C511 0.929 1_554 S
C518 O509 1.250 1_554 S
C518 O510 1.258 1_554 S
O519 Mn504 2.162 . S
O519 C507 1.281 1_655 S
O520 Mn504 2.297 1_454 S
O520 C507 1.236 1_554 S
N521 Mn505 2.282 . S
N521 C522 1.328 . S
N521 C526 1.318 . S
C522 N521 1.328 . S
C522 C523 1.457 . S
C522 H527 0.929 . S
C523 C522 1.457 . S
C523 C524 1.291 . S
C523 H536 0.931 . S
C524 C523 1.291 . S
C524 C525 1.373 . S
C524 H537 0.929 . S
C525 C524 1.373 . S
C525 C526 1.396 . S
C525 C532 1.403 . S
C526 C516 1.476 . S
C526 N521 1.318 . S
C526 C525 1.396 . S
H527 C522 0.929 . S
O528 Mn504 2.385 1_455 S
O528 C506 1.234 . S
O529 Mn504 2.209 1_455 S
O529 Mn505 2.215 . S
O529 C506 1.283 . S
O530 Mn504 2.094 . S
O530 C508 1.240 . S
O531 Mn505 2.117 1_655 S
O531 C508 1.264 . S
C532 C525 1.403 . S
C532 C533 1.399 . S
C532 H538 0.929 . S
C533 C513 1.449 . S
C533 C532 1.399 . S
C533 H539 0.930 . S
H534 C514 0.931 . S
H535 C515 0.930 1_554 S
H536 C523 0.931 . S
H537 C524 0.929 . S
H538 C532 0.929 . S
H539 C533 0.930 . S
Mn540 O545 2.095 . S
Mn540 O555 2.162 . S
Mn540 O556 2.297 . S
Mn540 O564 2.385 . S
Mn540 O565 2.209 . S
Mn540 O566 2.094 . S
Mn541 O546 2.121 . S
Mn541 N548 2.257 . S
Mn541 N557 2.282 . S
Mn541 O565 2.215 . S
Mn541 O567 2.117 . S
C542 O564 1.234 . S
C542 O565 1.283 . S
C543 O555 1.281 . S
C543 O556 1.236 . S
C544 O566 1.240 . S
C544 O567 1.264 . S
O545 Mn540 2.095 . S
O545 C554 1.250 . S
O546 Mn541 2.121 . S
O546 C554 1.258 . S
C547 N548 1.326 . S
C547 C551 1.460 . S
C547 H553 0.929 . S
N548 Mn541 2.257 . S
N548 C547 1.326 . S
N548 C552 1.362 . S
C549 C550 1.258 . S
C549 C552 1.431 . S
C549 C569 1.449 . S
C550 C549 1.258 . S
C550 C551 1.477 . S
C550 H570 0.931 . S
C551 C547 1.460 . S
C551 C550 1.477 . S
C551 H571 0.930 . S
C552 N548 1.362 . S
C552 C549 1.431 . S
C552 C562 1.476 . S
H553 C547 0.929 . S
C554 O545 1.250 . S
C554 O546 1.258 . S
O555 Mn540 2.162 . S
O555 C543 1.281 . S
O556 Mn540 2.297 . S
O556 C543 1.236 . S
N557 Mn541 2.282 . S
N557 C558 1.328 . S
N557 C562 1.318 . S
C558 N557 1.328 . S
C558 C559 1.457 . S
C558 H563 0.929 . S
C559 C558 1.457 . S
C559 C560 1.291 . S
C559 H572 0.931 . S
C560 C559 1.291 . S
C560 C561 1.373 . S
C560 H573 0.929 . S
C561 C560 1.373 . S
C561 C562 1.396 . S
C561 C568 1.403 . S
C562 C552 1.476 . S
C562 N557 1.318 . S
C562 C561 1.396 . S
H563 C558 0.929 . S
O564 Mn540 2.385 . S
O564 C542 1.234 . S
O565 Mn540 2.209 . S
O565 Mn541 2.215 . S
O565 C542 1.283 . S
O566 Mn540 2.094 . S
O566 C544 1.240 . S
O567 Mn541 2.117 . S
O567 C544 1.264 . S
C568 C561 1.403 . S
C568 C569 1.399 . S
C568 H574 0.929 . S
C569 C549 1.449 . S
C569 C568 1.399 . S
C569 H575 0.930 . S
H570 C550 0.931 . S
H571 C551 0.930 . S
H572 C559 0.931 . S
H573 C560 0.929 . S
H574 C568 0.929 . S
H575 C569 0.930 . S
Mn576 O581 2.095 1_455 S
Mn576 O591 2.162 . S
Mn576 O592 2.297 . S
Mn576 O600 2.385 . S
Mn576 O601 2.209 1_455 S
Mn576 O602 2.094 1_455 S
Mn577 O582 2.121 . S
Mn577 N584 2.257 . S
Mn577 N593 2.282 . S
Mn577 O601 2.215 . S
Mn577 O603 2.117 . S
C578 O600 1.234 . S
C578 O601 1.283 1_455 S
C579 O591 1.281 . S
C579 O592 1.236 . S
C580 O602 1.240 . S
C580 O603 1.264 . S
O581 Mn576 2.095 1_655 S
O581 C590 1.250 . S
O582 Mn577 2.121 . S
O582 C590 1.258 . S
C583 N584 1.326 . S
C583 C587 1.460 . S
C583 H589 0.929 . S
N584 Mn577 2.257 . S
N584 C583 1.326 . S
N584 C588 1.362 . S
C585 C586 1.258 . S
C585 C588 1.431 . S
C585 C605 1.449 . S
C586 C585 1.258 . S
C586 C587 1.477 . S
C586 H606 0.931 . S
C587 C583 1.460 . S
C587 C586 1.477 . S
C587 H607 0.930 . S
C588 N584 1.362 . S
C588 C585 1.431 . S
C588 C598 1.476 . S
H589 C583 0.929 . S
C590 O581 1.250 . S
C590 O582 1.258 . S
O591 Mn576 2.162 . S
O591 C579 1.281 . S
O592 Mn576 2.297 . S
O592 C579 1.236 . S
N593 Mn577 2.282 . S
N593 C594 1.328 . S
N593 C598 1.318 . S
C594 N593 1.328 . S
C594 C595 1.457 . S
C594 H599 0.929 . S
C595 C594 1.457 . S
C595 C596 1.291 . S
C595 H608 0.931 . S
C596 C595 1.291 . S
C596 C597 1.373 . S
C596 H609 0.929 . S
C597 C596 1.373 . S
C597 C598 1.396 . S
C597 C604 1.403 . S
C598 C588 1.476 . S
C598 N593 1.318 . S
C598 C597 1.396 . S
H599 C594 0.929 . S
O600 Mn576 2.385 . S
O600 C578 1.234 . S
O601 Mn576 2.209 1_655 S
O601 Mn577 2.215 . S
O601 C578 1.283 1_655 S
O602 Mn576 2.094 1_655 S
O602 C580 1.240 . S
O603 Mn577 2.117 . S
O603 C580 1.264 . S
C604 C597 1.403 . S
C604 C605 1.399 . S
C604 H610 0.929 . S
C605 C585 1.449 . S
C605 C604 1.399 . S
C605 H611 0.930 . S
H606 C586 0.931 . S
H607 C587 0.930 . S
H608 C595 0.931 . S
H609 C596 0.929 . S
H610 C604 0.929 . S
H611 C605 0.930 . S
Mn612 O617 2.095 . S
Mn612 O627 2.162 . S
Mn612 O628 2.297 . S
Mn612 O636 2.385 . S
Mn612 O637 2.209 . S
Mn612 O638 2.094 . S
Mn613 O618 2.121 . S
Mn613 N620 2.257 . S
Mn613 N629 2.282 . S
Mn613 O637 2.215 . S
Mn613 O639 2.117 . S
C614 O636 1.234 . S
C614 O637 1.283 . S
C615 O627 1.281 . S
C615 O628 1.236 . S
C616 O638 1.240 . S
C616 O639 1.264 . S
O617 Mn612 2.095 . S
O617 C626 1.250 . S
O618 Mn613 2.121 . S
O618 C626 1.258 . S
C619 N620 1.326 . S
C619 C623 1.460 . S
C619 H625 0.929 . S
N620 Mn613 2.257 . S
N620 C619 1.326 . S
N620 C624 1.362 . S
C621 C622 1.258 . S
C621 C624 1.431 . S
C621 C641 1.449 . S
C622 C621 1.258 . S
C622 C623 1.477 . S
C622 H642 0.931 . S
C623 C619 1.460 . S
C623 C622 1.477 . S
C623 H643 0.930 . S
C624 N620 1.362 . S
C624 C621 1.431 . S
C624 C634 1.476 . S
H625 C619 0.929 . S
C626 O617 1.250 . S
C626 O618 1.258 . S
O627 Mn612 2.162 . S
O627 C615 1.281 . S
O628 Mn612 2.297 . S
O628 C615 1.236 . S
N629 Mn613 2.282 . S
N629 C630 1.328 . S
N629 C634 1.318 . S
C630 N629 1.328 . S
C630 C631 1.457 . S
C630 H635 0.929 . S
C631 C630 1.457 . S
C631 C632 1.291 . S
C631 H644 0.931 . S
C632 C631 1.291 . S
C632 C633 1.373 . S
C632 H645 0.929 . S
C633 C632 1.373 . S
C633 C634 1.396 . S
C633 C640 1.403 . S
C634 C624 1.476 . S
C634 N629 1.318 . S
C634 C633 1.396 . S
H635 C630 0.929 . S
O636 Mn612 2.385 . S
O636 C614 1.234 . S
O637 Mn612 2.209 . S
O637 Mn613 2.215 . S
O637 C614 1.283 . S
O638 Mn612 2.094 . S
O638 C616 1.240 . S
O639 Mn613 2.117 . S
O639 C616 1.264 . S
C640 C633 1.403 . S
C640 C641 1.399 . S
C640 H646 0.929 . S
C641 C621 1.449 . S
C641 C640 1.399 . S
C641 H647 0.930 . S
H642 C622 0.931 . S
H643 C623 0.930 . S
H644 C631 0.931 . S
H645 C632 0.929 . S
H646 C640 0.929 . S
H647 C641 0.930 . S
C648 C649 1.358 1_554 S
C648 C654 1.383 . S
C648 N656 1.356 1_554 S
C649 C648 1.358 1_556 S
C649 C655 1.363 . S
C650 C651 1.363 1_556 S
C650 C655 1.379 . S
C650 N657 1.356 . S
C651 C650 1.363 1_554 S
C651 C654 1.363 . S
N652 C654 1.356 . S
N652 H664 0.984 . S
N652 H665 0.985 . S
N653 C655 1.356 . S
N653 H658 0.984 . S
N653 H659 0.985 . S
C654 C648 1.383 . S
C654 C651 1.363 . S
C654 N652 1.356 . S
C655 C649 1.363 . S
C655 C650 1.379 . S
C655 N653 1.356 . S
N656 C648 1.356 1_556 S
N656 H662 0.984 1_556 S
N656 H663 0.984 . S
N657 C650 1.356 . S
N657 H660 0.984 1_556 S
N657 H661 0.985 . S
H658 N653 0.984 . S
H659 N653 0.985 . S
H660 N657 0.984 1_554 S
H661 N657 0.985 . S
H662 N656 0.984 1_554 S
H663 N656 0.984 . S
H664 N652 0.984 . S
H665 N652 0.985 . S
C666 C667 1.363 . S
C666 C672 1.379 . S
C666 N674 1.356 . S
C667 C666 1.363 . S
C667 C673 1.363 1_556 S
C668 C669 1.363 . S
C668 C673 1.379 . S
C668 N675 1.356 . S
C669 C668 1.363 . S
C669 C672 1.363 1_554 S
N670 C672 1.356 1_554 S
N670 H682 0.984 1_554 S
N670 H683 0.985 . S
N671 C673 1.356 1_556 S
N671 H676 0.984 . S
N671 H677 0.985 1_556 S
C672 C666 1.379 . S
C672 C669 1.363 1_556 S
C672 N670 1.356 1_556 S
C673 C667 1.363 1_554 S
C673 C668 1.379 . S
C673 N671 1.356 1_554 S
N674 C666 1.356 . S
N674 H680 0.984 . S
N674 H681 0.984 . S
N675 C668 1.356 . S
N675 H678 0.984 . S
N675 H679 0.985 . S
H676 N671 0.984 . S
H677 N671 0.985 1_554 S
H678 N675 0.984 . S
H679 N675 0.985 . S
H680 N674 0.984 . S
H681 N674 0.984 . S
H682 N670 0.984 1_556 S
H683 N670 0.985 . S
C684 C685 1.363 1_556 S
C684 C690 1.379 . S
C684 N692 1.356 1_556 S
C685 C684 1.363 1_554 S
C685 C691 1.363 . S
C686 C687 1.363 1_554 S
C686 C691 1.379 . S
C686 N693 1.356 . S
C687 C686 1.363 1_556 S
C687 C690 1.363 . S
N688 C690 1.356 . S
N688 H700 0.984 . S
N688 H701 0.985 . S
N689 C691 1.356 . S
N689 H694 0.984 . S
N689 H695 0.985 . S
C690 C684 1.379 . S
C690 C687 1.363 . S
C690 N688 1.356 . S
C691 C685 1.363 . S
C691 C686 1.379 . S
C691 N689 1.356 . S
N692 C684 1.356 1_554 S
N692 H698 0.984 1_554 S
N692 H699 0.984 . S
N693 C686 1.356 . S
N693 H696 0.984 1_554 S
N693 H697 0.985 . S
H694 N689 0.984 . S
H695 N689 0.985 . S
H696 N693 0.984 1_556 S
H697 N693 0.985 . S
H698 N692 0.984 1_556 S
H699 N692 0.984 . S
H700 N688 0.984 . S
H701 N688 0.985 . S
C702 C703 1.363 . S
C702 C708 1.379 . S
C702 N710 1.356 . S
C703 C702 1.363 . S
C703 C709 1.363 . S
C704 C705 1.363 . S
C704 C709 1.379 . S
C704 N711 1.356 . S
C705 C704 1.363 . S
C705 C708 1.363 . S
N706 C708 1.356 . S
N706 H718 0.984 . S
N706 H719 0.985 . S
N707 C709 1.356 . S
N707 H712 0.984 . S
N707 H713 0.985 . S
C708 C702 1.379 . S
C708 C705 1.363 . S
C708 N706 1.356 . S
C709 C703 1.363 . S
C709 C704 1.379 . S
C709 N707 1.356 . S
N710 C702 1.356 . S
N710 H716 0.984 . S
N710 H717 0.984 . S
N711 C704 1.356 . S
N711 H714 0.984 . S
N711 H715 0.985 . S
H712 N707 0.984 . S
H713 N707 0.985 . S
H714 N711 0.984 . S
H715 N711 0.985 . S
H716 N710 0.984 . S
H717 N710 0.984 . S
H718 N706 0.984 . S
H719 N706 0.985 . S
C720 C721 1.363 . S
C720 C726 1.379 . S
C720 N728 1.356 . S
C721 C720 1.363 . S
C721 C727 1.363 . S
C722 C723 1.363 . S
C722 C727 1.379 . S
C722 N729 1.356 . S
C723 C722 1.363 . S
C723 C726 1.363 . S
N724 C726 1.356 . S
N724 H736 0.984 . S
N724 H737 0.985 . S
N725 C727 1.356 . S
N725 H730 0.984 . S
N725 H731 0.985 . S
C726 C720 1.379 . S
C726 C723 1.363 . S
C726 N724 1.356 . S
C727 C721 1.363 . S
C727 C722 1.379 . S
C727 N725 1.356 . S
N728 C720 1.356 . S
N728 H734 0.984 . S
N728 H735 0.984 . S
N729 C722 1.356 . S
N729 H732 0.984 . S
N729 H733 0.985 . S
H730 N725 0.984 . S
H731 N725 0.985 . S
H732 N729 0.984 . S
H733 N729 0.985 . S
H734 N728 0.984 . S
H735 N728 0.984 . S
H736 N724 0.984 . S
H737 N724 0.985 . S
C738 C739 1.363 . S
C738 C744 1.379 . S
C738 N746 1.356 . S
C739 C738 1.363 . S
C739 C745 1.363 . S
C740 C741 1.363 . S
C740 C745 1.379 . S
C740 N747 1.356 . S
C741 C740 1.363 . S
C741 C744 1.363 . S
N742 C744 1.356 . S
N742 H754 0.984 . S
N742 H755 0.985 . S
N743 C745 1.356 . S
N743 H748 0.984 . S
N743 H749 0.985 . S
C744 C738 1.379 . S
C744 C741 1.363 . S
C744 N742 1.356 . S
C745 C739 1.363 . S
C745 C740 1.379 . S
C745 N743 1.356 . S
N746 C738 1.356 . S
N746 H752 0.984 . S
N746 H753 0.984 . S
N747 C740 1.356 . S
N747 H750 0.984 . S
N747 H751 0.985 . S
H748 N743 0.984 . S
H749 N743 0.985 . S
H750 N747 0.984 . S
H751 N747 0.985 . S
H752 N746 0.984 . S
H753 N746 0.984 . S
H754 N742 0.984 . S
H755 N742 0.985 . S
C756 C757 1.363 . S
C756 C762 1.379 . S
C756 N764 1.356 . S
C757 C756 1.363 . S
C757 C763 1.363 . S
C758 C759 1.363 . S
C758 C763 1.379 . S
C758 N765 1.356 . S
C759 C758 1.363 . S
C759 C762 1.363 . S
N760 C762 1.356 . S
N760 H772 0.984 . S
N760 H773 0.985 . S
N761 C763 1.356 . S
N761 H766 0.984 . S
N761 H767 0.985 . S
C762 C756 1.379 . S
C762 C759 1.363 . S
C762 N760 1.356 . S
C763 C757 1.363 . S
C763 C758 1.379 . S
C763 N761 1.356 . S
N764 C756 1.356 . S
N764 H770 0.984 . S
N764 H771 0.984 . S
N765 C758 1.356 . S
N765 H768 0.984 . S
N765 H769 0.985 . S
H766 N761 0.984 . S
H767 N761 0.985 . S
H768 N765 0.984 . S
H769 N765 0.985 . S
H770 N764 0.984 . S
H771 N764 0.984 . S
H772 N760 0.984 . S
H773 N760 0.985 . S
C774 C775 1.363 . S
C774 C780 1.379 . S
C774 N782 1.356 . S
C775 C774 1.363 . S
C775 C781 1.363 . S
C776 C777 1.363 . S
C776 C781 1.379 . S
C776 N783 1.356 . S
C777 C776 1.363 . S
C777 C780 1.363 . S
N778 C780 1.356 . S
N778 H790 0.984 . S
N778 H791 0.985 . S
N779 C781 1.356 . S
N779 H784 0.984 . S
N779 H785 0.985 . S
C780 C774 1.379 . S
C780 C777 1.363 . S
C780 N778 1.356 . S
C781 C775 1.363 . S
C781 C776 1.379 . S
C781 N779 1.356 . S
N782 C774 1.356 . S
N782 H788 0.984 . S
N782 H789 0.984 . S
N783 C776 1.356 . S
N783 H786 0.984 . S
N783 H787 0.985 . S
H784 N779 0.984 . S
H785 N779 0.985 . S
H786 N783 0.984 . S
H787 N783 0.985 . S
H788 N782 0.984 . S
H789 N782 0.984 . S
H790 N778 0.984 . S
H791 N778 0.985 . S
C792 C793 1.363 . S
C792 C798 1.379 . S
C792 N800 1.356 . S
C793 C792 1.363 . S
C793 C799 1.363 . S
C794 C795 1.363 . S
C794 C799 1.379 . S
C794 N801 1.356 . S
C795 C794 1.363 . S
C795 C798 1.363 . S
N796 C798 1.356 . S
N796 H808 0.984 . S
N796 H809 0.985 . S
N797 C799 1.356 . S
N797 H802 0.984 . S
N797 H803 0.985 . S
C798 C792 1.379 . S
C798 C795 1.363 . S
C798 N796 1.356 . S
C799 C793 1.363 . S
C799 C794 1.379 . S
C799 N797 1.356 . S
N800 C792 1.356 . S
N800 H806 0.984 . S
N800 H807 0.984 . S
N801 C794 1.356 . S
N801 H804 0.984 . S
N801 H805 0.985 . S
H802 N797 0.984 . S
H803 N797 0.985 . S
H804 N801 0.984 . S
H805 N801 0.985 . S
H806 N800 0.984 . S
H807 N800 0.984 . S
H808 N796 0.984 . S
H809 N796 0.985 . S
C810 C811 1.363 . S
C810 C816 1.379 . S
C810 N818 1.356 . S
C811 C810 1.363 . S
C811 C817 1.363 . S
C812 C813 1.363 . S
C812 C817 1.379 . S
C812 N819 1.356 . S
C813 C812 1.363 . S
C813 C816 1.363 . S
N814 C816 1.356 . S
N814 H826 0.984 . S
N814 H827 0.985 . S
N815 C817 1.356 . S
N815 H820 0.984 1_556 S
N815 H821 0.985 1_556 S
C816 C810 1.379 . S
C816 C813 1.363 . S
C816 N814 1.356 . S
C817 C811 1.363 . S
C817 C812 1.379 . S
C817 N815 1.356 . S
N818 C810 1.356 . S
N818 H824 0.984 . S
N818 H825 0.984 . S
N819 C812 1.356 . S
N819 H822 0.984 . S
N819 H823 0.985 . S
H820 N815 0.984 1_554 S
H821 N815 0.985 1_554 S
H822 N819 0.984 . S
H823 N819 0.985 . S
H824 N818 0.984 . S
H825 N818 0.984 . S
H826 N814 0.984 . S
H827 N814 0.985 . S
C828 C829 1.363 . S
C828 C834 1.379 . S
C828 N836 1.356 . S
C829 C828 1.363 . S
C829 C835 1.363 . S
C830 C831 1.363 . S
C830 C835 1.379 . S
C830 N837 1.356 . S
C831 C830 1.363 . S
C831 C834 1.363 . S
N832 C834 1.356 . S
N832 H844 0.984 . S
N832 H845 0.985 . S
N833 C835 1.356 . S
N833 H838 0.984 . S
N833 H839 0.985 . S
C834 C828 1.379 . S
C834 C831 1.363 . S
C834 N832 1.356 . S
C835 C829 1.363 . S
C835 C830 1.379 . S
C835 N833 1.356 . S
N836 C828 1.356 . S
N836 H842 0.984 1_556 S
N836 H843 0.984 1_556 S
N837 C830 1.356 . S
N837 H840 0.984 . S
N837 H841 0.985 . S
H838 N833 0.984 . S
H839 N833 0.985 . S
H840 N837 0.984 . S
H841 N837 0.985 . S
H842 N836 0.984 1_554 S
H843 N836 0.984 1_554 S
H844 N832 0.984 . S
H845 N832 0.985 . S
C846 C847 1.363 . S
C846 C852 1.379 . S
C846 N854 1.356 . S
C847 C846 1.363 . S
C847 C853 1.363 . S
C848 C849 1.363 . S
C848 C853 1.379 . S
C848 N855 1.356 . S
C849 C848 1.363 . S
C849 C852 1.363 . S
N850 C852 1.356 . S
N850 H862 0.984 . S
N850 H863 0.985 . S
N851 C853 1.356 . S
N851 H856 0.984 . S
N851 H857 0.985 . S
C852 C846 1.379 . S
C852 C849 1.363 . S
C852 N850 1.356 . S
C853 C847 1.363 . S
C853 C848 1.379 . S
C853 N851 1.356 . S
N854 C846 1.356 . S
N854 H860 0.984 1_556 S
N854 H861 0.984 1_556 S
N855 C848 1.356 . S
N855 H858 0.984 . S
N855 H859 0.985 . S
H856 N851 0.984 . S
H857 N851 0.985 . S
H858 N855 0.984 . S
H859 N855 0.985 . S
H860 N854 0.984 1_554 S
H861 N854 0.984 1_554 S
H862 N850 0.984 . S
H863 N850 0.985 . S
C864 C865 1.363 . S
C864 C870 1.379 . S
C864 N872 1.356 . S
C865 C864 1.363 . S
C865 C871 1.363 . S
C866 C867 1.363 . S
C866 C871 1.379 . S
C866 N873 1.356 . S
C867 C866 1.363 . S
C867 C870 1.363 . S
N868 C870 1.356 . S
N868 H880 0.984 . S
N868 H881 0.985 . S
N869 C871 1.356 . S
N869 H874 0.984 . S
N869 H875 0.985 . S
C870 C864 1.379 . S
C870 C867 1.363 . S
C870 N868 1.356 . S
C871 C865 1.363 . S
C871 C866 1.379 . S
C871 N869 1.356 . S
N872 C864 1.356 . S
N872 H878 0.984 . S
N872 H879 0.984 . S
N873 C866 1.356 . S
N873 H876 0.984 . S
N873 H877 0.985 . S
H874 N869 0.984 . S
H875 N869 0.985 . S
H876 N873 0.984 . S
H877 N873 0.985 . S
H878 N872 0.984 . S
H879 N872 0.984 . S
H880 N868 0.984 . S
H881 N868 0.985 . S
C882 C883 1.363 . S
C882 C888 1.379 . S
C882 N890 1.356 . S
C883 C882 1.363 . S
C883 C889 1.363 . S
C884 C885 1.363 . S
C884 C889 1.379 . S
C884 N891 1.356 . S
C885 C884 1.363 . S
C885 C888 1.363 . S
N886 C888 1.356 . S
N886 H898 0.984 . S
N886 H899 0.985 . S
N887 C889 1.356 . S
N887 H892 0.984 . S
N887 H893 0.985 . S
C888 C882 1.379 . S
C888 C885 1.363 . S
C888 N886 1.356 . S
C889 C883 1.363 . S
C889 C884 1.379 . S
C889 N887 1.356 . S
N890 C882 1.356 . S
N890 H896 0.984 . S
N890 H897 0.984 . S
N891 C884 1.356 . S
N891 H894 0.984 . S
N891 H895 0.985 . S
H892 N887 0.984 . S
H893 N887 0.985 . S
H894 N891 0.984 . S
H895 N891 0.985 . S
H896 N890 0.984 . S
H897 N890 0.984 . S
H898 N886 0.984 . S
H899 N886 0.985 . S
C900 C901 1.363 . S
C900 C906 1.379 . S
C900 N908 1.356 . S
C901 C900 1.363 . S
C901 C907 1.363 . S
C902 C903 1.363 . S
C902 C907 1.379 . S
C902 N909 1.356 . S
C903 C902 1.363 . S
C903 C906 1.363 . S
N904 C906 1.356 . S
N904 H916 0.984 . S
N904 H917 0.985 . S
N905 C907 1.356 . S
N905 H910 0.984 . S
N905 H911 0.985 1_655 S
C906 C900 1.379 . S
C906 C903 1.363 . S
C906 N904 1.356 . S
C907 C901 1.363 . S
C907 C902 1.379 . S
C907 N905 1.356 . S
N908 C900 1.356 . S
N908 H914 0.984 . S
N908 H915 0.984 . S
N909 C902 1.356 . S
N909 H912 0.984 . S
N909 H913 0.985 . S
H910 N905 0.984 . S
H911 N905 0.985 1_455 S
H912 N909 0.984 . S
H913 N909 0.985 . S
H914 N908 0.984 . S
H915 N908 0.984 . S
H916 N904 0.984 . S
H917 N904 0.985 . S
C918 C919 1.363 . S
C918 C924 1.379 . S
C918 N926 1.356 . S
C919 C918 1.363 . S
C919 C925 1.363 . S
C920 C921 1.363 . S
C920 C925 1.379 . S
C920 N927 1.356 . S
C921 C920 1.363 . S
C921 C924 1.363 . S
N922 C924 1.356 . S
N922 H934 0.984 . S
N922 H935 0.985 . S
N923 C925 1.356 . S
N923 H928 0.984 . S
N923 H929 0.985 . S
C924 C918 1.379 . S
C924 C921 1.363 . S
C924 N922 1.356 . S
C925 C919 1.363 . S
C925 C920 1.379 . S
C925 N923 1.356 . S
N926 C918 1.356 . S
N926 H932 0.984 . S
N926 H933 0.984 . S
N927 C920 1.356 . S
N927 H930 0.984 . S
N927 H931 0.985 . S
H928 N923 0.984 . S
H929 N923 0.985 . S
H930 N927 0.984 . S
H931 N927 0.985 . S
H932 N926 0.984 . S
H933 N926 0.984 . S
H934 N922 0.984 . S
H935 N922 0.985 . S
C936 C937 1.363 . S
C936 C942 1.379 . S
C936 N944 1.356 . S
C937 C936 1.363 . S
C937 C943 1.363 . S
C938 C939 1.363 . S
C938 C943 1.379 . S
C938 N945 1.356 1_554 S
C939 C938 1.363 . S
C939 C942 1.363 . S
N940 C942 1.356 . S
N940 H952 0.984 . S
N940 H953 0.985 . S
N941 C943 1.356 . S
N941 H946 0.984 . S
N941 H947 0.985 . S
C942 C936 1.379 . S
C942 C939 1.363 . S
C942 N940 1.356 . S
C943 C937 1.363 . S
C943 C938 1.379 . S
C943 N941 1.356 . S
N944 C936 1.356 . S
N944 H950 0.984 . S
N944 H951 0.984 . S
N945 C938 1.356 1_556 S
N945 H948 0.984 . S
N945 H949 0.985 . S
H946 N941 0.984 . S
H947 N941 0.985 . S
H948 N945 0.984 . S
H949 N945 0.985 . S
H950 N944 0.984 . S
H951 N944 0.984 . S
H952 N940 0.984 . S
H953 N940 0.985 . S
C954 C955 1.363 . S
C954 C960 1.379 . S
C954 N962 1.356 . S
C955 C954 1.363 . S
C955 C961 1.363 . S
C956 C957 1.363 . S
C956 C961 1.379 . S
C956 N963 1.356 . S
C957 C956 1.363 . S
C957 C960 1.363 . S
N958 C960 1.356 . S
N958 H970 0.984 . S
N958 H971 0.985 . S
N959 C961 1.356 . S
N959 H964 0.984 . S
N959 H965 0.985 . S
C960 C954 1.379 . S
C960 C957 1.363 . S
C960 N958 1.356 . S
C961 C955 1.363 . S
C961 C956 1.379 . S
C961 N959 1.356 . S
N962 C954 1.356 . S
N962 H968 0.984 . S
N962 H969 0.984 . S
N963 C956 1.356 . S
N963 H966 0.984 . S
N963 H967 0.985 . S
H964 N959 0.984 . S
H965 N959 0.985 . S
H966 N963 0.984 . S
H967 N963 0.985 . S
H968 N962 0.984 . S
H969 N962 0.984 . S
H970 N958 0.984 . S
H971 N958 0.985 . S
C972 C973 1.363 . S
C972 C978 1.379 . S
C972 N980 1.356 . S
C973 C972 1.363 . S
C973 C979 1.363 . S
C974 C975 1.363 . S
C974 C979 1.379 . S
C974 N981 1.356 . S
C975 C974 1.363 . S
C975 C978 1.363 . S
N976 C978 1.356 . S
N976 H988 0.984 . S
N976 H989 0.985 . S
N977 C979 1.356 . S
N977 H982 0.984 . S
N977 H983 0.985 . S
C978 C972 1.379 . S
C978 C975 1.363 . S
C978 N976 1.356 . S
C979 C973 1.363 . S
C979 C974 1.379 . S
C979 N977 1.356 . S
N980 C972 1.356 . S
N980 H986 0.984 . S
N980 H987 0.984 . S
N981 C974 1.356 . S
N981 H984 0.984 . S
N981 H985 0.985 . S
H982 N977 0.984 . S
H983 N977 0.985 . S
H984 N981 0.984 . S
H985 N981 0.985 . S
H986 N980 0.984 . S
H987 N980 0.984 . S
H988 N976 0.984 . S
H989 N976 0.985 . S
C990 C991 1.363 . S
C990 C996 1.379 . S
C990 N998 1.356 . S
C991 C990 1.363 . S
C991 C997 1.363 . S
C992 C993 1.363 . S
C992 C997 1.379 . S
C992 N999 1.356 . S
C993 C992 1.363 . S
C993 C996 1.363 . S
N994 C996 1.356 . S
N994 H1006 0.984 . S
N994 H1007 0.985 . S
N995 C997 1.356 . S
N995 H1000 0.984 . S
N995 H1001 0.985 . S
C996 C990 1.379 . S
C996 C993 1.363 . S
C996 N994 1.356 . S
C997 C991 1.363 . S
C997 C992 1.379 . S
C997 N995 1.356 . S
N998 C990 1.356 . S
N998 H1004 0.984 . S
N998 H1005 0.984 . S
N999 C992 1.356 . S
N999 H1002 0.984 . S
N999 H1003 0.985 . S
H1000 N995 0.984 . S
H1001 N995 0.985 . S
H1002 N999 0.984 . S
H1003 N999 0.985 . S
H1004 N998 0.984 . S
H1005 N998 0.984 . S
H1006 N994 0.984 . S
H1007 N994 0.985 . S
C1008 C1009 1.363 . S
C1008 C1014 1.379 1_565 S
C1008 N1016 1.356 . S
C1009 C1008 1.363 . S
C1009 C1015 1.363 . S
C1010 C1011 1.363 1_565 S
C1010 C1015 1.379 . S
C1010 N1017 1.356 . S
C1011 C1010 1.363 1_545 S
C1011 C1014 1.363 . S
N1012 C1014 1.356 . S
N1012 H1024 0.984 . S
N1012 H1025 0.985 . S
N1013 C1015 1.356 . S
N1013 H1018 0.984 . S
N1013 H1019 0.985 . S
C1014 C1008 1.379 1_545 S
C1014 C1011 1.363 . S
C1014 N1012 1.356 . S
C1015 C1009 1.363 . S
C1015 C1010 1.379 . S
C1015 N1013 1.356 . S
N1016 C1008 1.356 . S
N1016 H1022 0.984 1_565 S
N1016 H1023 0.984 . S
N1017 C1010 1.356 . S
N1017 H1020 0.984 1_565 S
N1017 H1021 0.985 . S
H1018 N1013 0.984 . S
H1019 N1013 0.985 . S
H1020 N1017 0.984 1_545 S
H1021 N1017 0.985 . S
H1022 N1016 0.984 1_545 S
H1023 N1016 0.984 . S
H1024 N1012 0.984 . S
H1025 N1012 0.985 . S
C1026 C1027 1.363 . S
C1026 C1032 1.379 . S
C1026 N1034 1.356 . S
C1027 C1026 1.363 . S
C1027 C1033 1.363 . S
C1028 C1029 1.363 . S
C1028 C1033 1.379 . S
C1028 N1035 1.356 . S
C1029 C1028 1.363 . S
C1029 C1032 1.363 . S
N1030 C1032 1.356 . S
N1030 H1042 0.984 . S
N1030 H1043 0.985 . S
N1031 C1033 1.356 . S
N1031 H1036 0.984 . S
N1031 H1037 0.985 . S
C1032 C1026 1.379 . S
C1032 C1029 1.363 . S
C1032 N1030 1.356 . S
C1033 C1027 1.363 . S
C1033 C1028 1.379 . S
C1033 N1031 1.356 . S
N1034 C1026 1.356 . S
N1034 H1040 0.984 . S
N1034 H1041 0.984 . S
N1035 C1028 1.356 . S
N1035 H1038 0.984 . S
N1035 H1039 0.985 . S
H1036 N1031 0.984 . S
H1037 N1031 0.985 . S
H1038 N1035 0.984 . S
H1039 N1035 0.985 . S
H1040 N1034 0.984 . S
H1041 N1034 0.984 . S
H1042 N1030 0.984 . S
H1043 N1030 0.985 . S
C1044 C1045 1.363 . S
C1044 C1050 1.379 . S
C1044 N1052 1.356 1_455 S
C1045 C1044 1.363 . S
C1045 C1051 1.363 . S
C1046 C1047 1.363 . S
C1046 C1051 1.379 . S
C1046 N1053 1.356 . S
C1047 C1046 1.363 . S
C1047 C1050 1.363 . S
N1048 C1050 1.356 1_655 S
N1048 H1060 0.991 . S
N1048 H1061 0.978 1_655 S
N1049 C1051 1.356 1_556 S
N1049 H1054 0.984 . S
N1049 H1055 0.985 . S
C1050 C1044 1.379 . S
C1050 C1047 1.363 . S
C1050 N1048 1.356 1_455 S
C1051 C1045 1.363 . S
C1051 C1046 1.379 . S
C1051 N1049 1.356 1_554 S
N1052 C1044 1.356 1_655 S
N1052 H1058 0.984 . S
N1052 H1059 0.984 . S
N1053 C1046 1.356 . S
N1053 H1056 0.984 . S
N1053 H1057 0.985 . S
H1054 N1049 0.984 . S
H1055 N1049 0.985 . S
H1056 N1053 0.984 . S
H1057 N1053 0.985 . S
H1058 N1052 0.984 . S
H1059 N1052 0.984 . S
H1060 N1048 0.991 . S
H1061 N1048 0.978 1_455 S
C1062 C1063 1.363 . S
C1062 C1068 1.379 . S
C1062 N1070 1.356 1_554 S
C1063 C1062 1.363 . S
C1063 C1069 1.363 . S
C1064 C1065 1.363 . S
C1064 C1069 1.379 . S
C1064 N1071 1.356 . S
C1065 C1064 1.363 . S
C1065 C1068 1.363 . S
N1066 C1068 1.356 . S
N1066 H1078 0.984 . S
N1066 H1079 0.985 . S
N1067 C1069 1.356 . S
N1067 H1072 0.984 . S
N1067 H1073 0.985 . S
C1068 C1062 1.379 . S
C1068 C1065 1.363 . S
C1068 N1066 1.356 . S
C1069 C1063 1.363 . S
C1069 C1064 1.379 . S
C1069 N1067 1.356 . S
N1070 C1062 1.356 1_556 S
N1070 H1076 0.984 . S
N1070 H1077 0.984 . S
N1071 C1064 1.356 . S
N1071 H1074 0.984 . S
N1071 H1075 0.985 . S
H1072 N1067 0.984 . S
H1073 N1067 0.985 . S
H1074 N1071 0.984 . S
H1075 N1071 0.985 . S
H1076 N1070 0.984 . S
H1077 N1070 0.984 . S
H1078 N1066 0.984 . S
H1079 N1066 0.985 . S
C1080 C1081 1.363 . S
C1080 C1086 1.379 . S
C1080 N1088 1.356 . S
C1081 C1080 1.363 . S
C1081 C1087 1.363 1_455 S
C1082 C1083 1.363 . S
C1082 C1087 1.379 1_455 S
C1082 N1089 1.356 1_455 S
C1083 C1082 1.363 . S
C1083 C1086 1.363 . S
N1084 C1086 1.356 . S
N1084 H1096 0.984 . S
N1084 H1097 0.985 . S
N1085 C1087 1.356 . S
N1085 H1090 0.984 . S
N1085 H1091 0.985 . S
C1086 C1080 1.379 . S
C1086 C1083 1.363 . S
C1086 N1084 1.356 . S
C1087 C1081 1.363 1_655 S
C1087 C1082 1.379 1_655 S
C1087 N1085 1.356 . S
N1088 C1080 1.356 . S
N1088 H1094 0.984 . S
N1088 H1095 0.984 . S
N1089 C1082 1.356 1_655 S
N1089 H1092 0.984 1_655 S
N1089 H1093 0.985 . S
H1090 N1085 0.984 . S
H1091 N1085 0.985 . S
H1092 N1089 0.984 1_455 S
H1093 N1089 0.985 . S
H1094 N1088 0.984 . S
H1095 N1088 0.984 . S
H1096 N1084 0.984 . S
H1097 N1084 0.985 . S
C1098 C1099 1.363 . S
C1098 C1104 1.379 . S
C1098 N1106 1.356 . S
C1099 C1098 1.363 . S
C1099 C1105 1.363 . S
C1100 C1101 1.363 . S
C1100 C1105 1.379 . S
C1100 N1107 1.356 . S
C1101 C1100 1.363 . S
C1101 C1104 1.363 . S
N1102 C1104 1.356 . S
N1102 H1114 0.984 . S
N1102 H1115 0.985 . S
N1103 C1105 1.356 . S
N1103 H1108 0.984 . S
N1103 H1109 0.985 . S
C1104 C1098 1.379 . S
C1104 C1101 1.363 . S
C1104 N1102 1.356 . S
C1105 C1099 1.363 . S
C1105 C1100 1.379 . S
C1105 N1103 1.356 . S
N1106 C1098 1.356 . S
N1106 H1112 0.984 . S
N1106 H1113 0.984 . S
N1107 C1100 1.356 . S
N1107 H1110 0.984 . S
N1107 H1111 0.985 . S
H1108 N1103 0.984 . S
H1109 N1103 0.985 . S
H1110 N1107 0.984 . S
H1111 N1107 0.985 . S
H1112 N1106 0.984 . S
H1113 N1106 0.984 . S
H1114 N1102 0.984 . S
H1115 N1102 0.985 . S
C1116 C1117 1.363 . S
C1116 C1122 1.379 . S
C1116 N1124 1.356 . S
C1117 C1116 1.363 . S
C1117 C1123 1.363 . S
C1118 C1119 1.363 . S
C1118 C1123 1.379 . S
C1118 N1125 1.356 . S
C1119 C1118 1.363 . S
C1119 C1122 1.363 . S
N1120 C1122 1.356 . S
N1120 H1132 0.984 . S
N1120 H1133 0.985 . S
N1121 C1123 1.356 . S
N1121 H1126 0.984 . S
N1121 H1127 0.985 . S
C1122 C1116 1.379 . S
C1122 C1119 1.363 . S
C1122 N1120 1.356 . S
C1123 C1117 1.363 . S
C1123 C1118 1.379 . S
C1123 N1121 1.356 . S
N1124 C1116 1.356 . S
N1124 H1130 0.984 . S
N1124 H1131 0.984 . S
N1125 C1118 1.356 . S
N1125 H1128 0.984 . S
N1125 H1129 0.985 . S
H1126 N1121 0.984 . S
H1127 N1121 0.985 . S
H1128 N1125 0.984 . S
H1129 N1125 0.985 . S
H1130 N1124 0.984 . S
H1131 N1124 0.984 . S
H1132 N1120 0.984 . S
H1133 N1120 0.985 . S
C1134 C1135 1.363 1_545 S
C1134 C1140 1.379 . S
C1134 N1142 1.356 . S
C1135 C1134 1.363 1_565 S
C1135 C1141 1.363 . S
C1136 C1137 1.363 1_565 S
C1136 C1141 1.379 . S
C1136 N1143 1.356 . S
C1137 C1136 1.363 1_545 S
C1137 C1140 1.363 . S
N1138 C1140 1.356 . S
N1138 H1150 0.984 . S
N1138 H1151 0.985 . S
N1139 C1141 1.356 . S
N1139 H1144 0.984 1_556 S
N1139 H1145 0.985 . S
C1140 C1134 1.379 . S
C1140 C1137 1.363 . S
C1140 N1138 1.356 . S
C1141 C1135 1.363 . S
C1141 C1136 1.379 . S
C1141 N1139 1.356 . S
N1142 C1134 1.356 . S
N1142 H1148 0.984 . S
N1142 H1149 0.984 1_556 S
N1143 C1136 1.356 . S
N1143 H1146 0.984 . S
N1143 H1147 0.985 . S
H1144 N1139 0.984 1_554 S
H1145 N1139 0.985 . S
H1146 N1143 0.984 . S
H1147 N1143 0.985 . S
H1148 N1142 0.984 . S
H1149 N1142 0.984 1_554 S
H1150 N1138 0.984 . S
H1151 N1138 0.985 . S
C1152 C1153 1.363 . S
C1152 C1158 1.379 . S
C1152 N1160 1.356 . S
C1153 C1152 1.363 . S
C1153 C1159 1.363 . S
C1154 C1155 1.363 . S
C1154 C1159 1.379 . S
C1154 N1161 1.356 . S
C1155 C1154 1.363 . S
C1155 C1158 1.363 . S
N1156 C1158 1.356 . S
N1156 H1168 0.984 . S
N1156 H1169 0.985 1_556 S
N1157 C1159 1.356 . S
N1157 H1162 0.984 . S
N1157 H1163 0.985 . S
C1158 C1152 1.379 . S
C1158 C1155 1.363 . S
C1158 N1156 1.356 . S
C1159 C1153 1.363 . S
C1159 C1154 1.379 . S
C1159 N1157 1.356 . S
N1160 C1152 1.356 . S
N1160 H1166 0.984 . S
N1160 H1167 0.984 . S
N1161 C1154 1.356 . S
N1161 H1164 0.984 1_556 S
N1161 H1165 0.985 . S
H1162 N1157 0.984 . S
H1163 N1157 0.985 . S
H1164 N1161 0.984 1_554 S
H1165 N1161 0.985 . S
H1166 N1160 0.984 . S
H1167 N1160 0.984 . S
H1168 N1156 0.984 . S
H1169 N1156 0.985 1_554 S
C1170 C1171 1.363 . S
C1170 C1176 1.379 . S
C1170 N1178 1.356 . S
C1171 C1170 1.363 . S
C1171 C1177 1.363 . S
C1172 C1173 1.363 . S
C1172 C1177 1.379 . S
C1172 N1179 1.356 . S
C1173 C1172 1.363 . S
C1173 C1176 1.363 . S
N1174 C1176 1.356 1_554 S
N1174 H1186 0.984 . S
N1174 H1187 0.985 . S
N1175 C1177 1.356 . S
N1175 H1180 0.984 . S
N1175 H1181 0.985 . S
C1176 C1170 1.379 . S
C1176 C1173 1.363 . S
C1176 N1174 1.356 1_556 S
C1177 C1171 1.363 . S
C1177 C1172 1.379 . S
C1177 N1175 1.356 . S
N1178 C1170 1.356 . S
N1178 H1184 0.984 . S
N1178 H1185 0.984 . S
N1179 C1172 1.356 . S
N1179 H1182 0.984 . S
N1179 H1183 0.985 . S
H1180 N1175 0.984 . S
H1181 N1175 0.985 . S
H1182 N1179 0.984 . S
H1183 N1179 0.985 . S
H1184 N1178 0.984 . S
H1185 N1178 0.984 . S
H1186 N1174 0.984 . S
H1187 N1174 0.985 . S
C1188 C1189 1.363 . S
C1188 C1194 1.379 . S
C1188 N1196 1.356 . S
C1189 C1188 1.363 . S
C1189 C1195 1.363 . S
C1190 C1191 1.363 . S
C1190 C1195 1.379 . S
C1190 N1197 1.356 . S
C1191 C1190 1.363 . S
C1191 C1194 1.363 . S
N1192 C1194 1.356 . S
N1192 H1204 0.984 . S
N1192 H1205 0.985 . S
N1193 C1195 1.356 . S
N1193 H1198 0.984 1_545 S
N1193 H1199 0.985 1_545 S
C1194 C1188 1.379 . S
C1194 C1191 1.363 . S
C1194 N1192 1.356 . S
C1195 C1189 1.363 . S
C1195 C1190 1.379 . S
C1195 N1193 1.356 . S
N1196 C1188 1.356 . S
N1196 H1202 0.984 . S
N1196 H1203 0.984 . S
N1197 C1190 1.356 . S
N1197 H1200 0.984 . S
N1197 H1201 0.985 . S
H1198 N1193 0.984 1_565 S
H1199 N1193 0.985 1_565 S
H1200 N1197 0.984 . S
H1201 N1197 0.985 . S
H1202 N1196 0.984 . S
H1203 N1196 0.984 . S
H1204 N1192 0.984 . S
H1205 N1192 0.985 . S
C1206 C1207 1.363 . S
C1206 C1212 1.379 . S
C1206 N1214 1.356 . S
C1207 C1206 1.363 . S
C1207 C1213 1.363 . S
C1208 C1209 1.363 . S
C1208 C1213 1.379 . S
C1208 N1215 1.356 . S
C1209 C1208 1.363 . S
C1209 C1212 1.363 . S
N1210 C1212 1.356 . S
N1210 H1222 0.984 . S
N1210 H1223 0.985 . S
N1211 C1213 1.356 . S
N1211 H1216 0.984 . S
N1211 H1217 0.985 . S
C1212 C1206 1.379 . S
C1212 C1209 1.363 . S
C1212 N1210 1.356 . S
C1213 C1207 1.363 . S
C1213 C1208 1.379 . S
C1213 N1211 1.356 . S
N1214 C1206 1.356 . S
N1214 H1220 0.984 . S
N1214 H1221 0.984 . S
N1215 C1208 1.356 . S
N1215 H1218 0.984 . S
N1215 H1219 0.985 . S
H1216 N1211 0.984 . S
H1217 N1211 0.985 . S
H1218 N1215 0.984 . S
H1219 N1215 0.985 . S
H1220 N1214 0.984 . S
H1221 N1214 0.984 . S
H1222 N1210 0.984 . S
H1223 N1210 0.985 . S
C1224 C1225 1.363 . S
C1224 C1230 1.379 . S
C1224 N1232 1.356 . S
C1225 C1224 1.363 . S
C1225 C1231 1.363 . S
C1226 C1227 1.363 . S
C1226 C1231 1.379 . S
C1226 N1233 1.356 . S
C1227 C1226 1.363 . S
C1227 C1230 1.363 . S
N1228 C1230 1.356 . S
N1228 H1240 0.984 . S
N1228 H1241 0.985 . S
N1229 C1231 1.356 . S
N1229 H1234 0.984 . S
N1229 H1235 0.985 . S
C1230 C1224 1.379 . S
C1230 C1227 1.363 . S
C1230 N1228 1.356 . S
C1231 C1225 1.363 . S
C1231 C1226 1.379 . S
C1231 N1229 1.356 . S
N1232 C1224 1.356 . S
N1232 H1238 0.984 . S
N1232 H1239 0.984 . S
N1233 C1226 1.356 . S
N1233 H1236 0.984 . S
N1233 H1237 0.985 . S
H1234 N1229 0.984 . S
H1235 N1229 0.985 . S
H1236 N1233 0.984 . S
H1237 N1233 0.985 . S
H1238 N1232 0.984 . S
H1239 N1232 0.984 . S
H1240 N1228 0.984 . S
H1241 N1228 0.985 . S
C1242 C1243 1.363 . S
C1242 C1248 1.379 . S
C1242 N1250 1.356 . S
C1243 C1242 1.363 . S
C1243 C1249 1.363 . S
C1244 C1245 1.363 . S
C1244 C1249 1.379 . S
C1244 N1251 1.356 . S
C1245 C1244 1.363 . S
C1245 C1248 1.363 . S
N1246 C1248 1.356 . S
N1246 H1258 0.984 . S
N1246 H1259 0.985 . S
N1247 C1249 1.356 . S
N1247 H1252 0.984 . S
N1247 H1253 0.985 . S
C1248 C1242 1.379 . S
C1248 C1245 1.363 . S
C1248 N1246 1.356 . S
C1249 C1243 1.363 . S
C1249 C1244 1.379 . S
C1249 N1247 1.356 . S
N1250 C1242 1.356 . S
N1250 H1256 0.984 . S
N1250 H1257 0.984 . S
N1251 C1244 1.356 . S
N1251 H1254 0.984 . S
N1251 H1255 0.985 . S
H1252 N1247 0.984 . S
H1253 N1247 0.985 . S
H1254 N1251 0.984 . S
H1255 N1251 0.985 . S
H1256 N1250 0.984 . S
H1257 N1250 0.984 . S
H1258 N1246 0.984 . S
H1259 N1246 0.985 . S
C1260 C1261 1.363 . S
C1260 C1266 1.379 . S
C1260 N1268 1.356 . S
C1261 C1260 1.363 . S
C1261 C1267 1.363 . S
C1262 C1263 1.363 . S
C1262 C1267 1.379 . S
C1262 N1269 1.356 . S
C1263 C1262 1.363 . S
C1263 C1266 1.363 . S
N1264 C1266 1.356 . S
N1264 H1276 0.984 . S
N1264 H1277 0.985 . S
N1265 C1267 1.356 . S
N1265 H1270 0.984 . S
N1265 H1271 0.985 . S
C1266 C1260 1.379 . S
C1266 C1263 1.363 . S
C1266 N1264 1.356 . S
C1267 C1261 1.363 . S
C1267 C1262 1.379 . S
C1267 N1265 1.356 . S
N1268 C1260 1.356 . S
N1268 H1274 0.984 . S
N1268 H1275 0.984 . S
N1269 C1262 1.356 . S
N1269 H1272 0.984 . S
N1269 H1273 0.985 . S
H1270 N1265 0.984 . S
H1271 N1265 0.985 . S
H1272 N1269 0.984 . S
H1273 N1269 0.985 . S
H1274 N1268 0.984 . S
H1275 N1268 0.984 . S
H1276 N1264 0.984 . S
H1277 N1264 0.985 . S
C1278 C1279 1.363 . S
C1278 C1284 1.379 . S
C1278 N1286 1.356 . S
C1279 C1278 1.363 . S
C1279 C1285 1.363 . S
C1280 C1281 1.363 . S
C1280 C1285 1.379 . S
C1280 N1287 1.356 . S
C1281 C1280 1.363 . S
C1281 C1284 1.363 . S
N1282 C1284 1.356 . S
N1282 H1294 0.984 . S
N1282 H1295 0.985 . S
N1283 C1285 1.356 . S
N1283 H1288 0.984 1_545 S
N1283 H1289 0.985 . S
C1284 C1278 1.379 . S
C1284 C1281 1.363 . S
C1284 N1282 1.356 . S
C1285 C1279 1.363 . S
C1285 C1280 1.379 . S
C1285 N1283 1.356 . S
N1286 C1278 1.356 . S
N1286 H1292 0.984 . S
N1286 H1293 0.984 . S
N1287 C1280 1.356 . S
N1287 H1290 0.984 . S
N1287 H1291 0.985 . S
H1288 N1283 0.984 1_565 S
H1289 N1283 0.985 . S
H1290 N1287 0.984 . S
H1291 N1287 0.985 . S
H1292 N1286 0.984 . S
H1293 N1286 0.984 . S
H1294 N1282 0.984 . S
H1295 N1282 0.985 . S
C649 C122 1.439 . S
C651 C4 1.380 . S
C667 C148 1.357 . S
C669 C50 1.413 . S
C685 C76 1.387 . S
C687 C184 1.374 . S
C703 C86 1.394 . S
C705 C194 1.391 . S
C721 C14 1.424 . S
C723 C112 1.383 . S
C739 C158 1.432 . S
C741 C40 1.365 . S
C757 C328 1.383 . S
C759 C220 1.389 . S
C775 C266 1.405 . S
C777 C364 1.361 . S
C793 C302 1.430 . S
C795 C400 1.365 . S
C811 C410 1.409 . S
C813 C292 1.365 . S
C829 C338 1.405 . S
C831 C230 1.405 . S
C847 C374 1.419 . S
C849 C256 1.367 . S
C865 C436 1.381 . S
C867 C554 1.420 . S
C883 C482 1.411 . S
C885 C580 1.367 . S
C901 C508 1.387 . S
C903 C616 1.372 . S
C919 C626 1.380 . S
C921 C518 1.383 . S
C937 C544 1.383 . S
C939 C446 1.431 1_554 S
C955 C590 1.422 . S
C957 C472 1.371 . S
C973 C3 1.355 . S
C975 C255 1.354 . S
C991 C38 1.295 . S
C993 C291 1.339 . S
C1009 C218 1.305 . S
C1011 C75 1.351 . S
C1027 C74 1.312 . S
C1029 C470 1.304 . S
C1045 C507 1.355 1_554 S
C1047 C2 1.305 . S
C1063 C435 1.356 1_554 S
C1065 C39 1.346 . S
C1081 C578 1.318 . S
C1083 C110 1.306 . S
C1099 C147 1.337 . S
C1101 C614 1.308 . S
C1117 C543 1.363 . S
C1119 C183 1.354 . S
C1135 C363 1.350 1_556 S
C1137 C182 1.307 . S
C1153 C111 1.356 . S
C1155 C399 1.348 1_556 S
C1171 C146 1.311 . S
C1173 C327 1.345 . S
C1189 C219 1.350 . S
C1191 C471 1.351 . S
C1207 C254 1.295 . S
C1209 C506 1.306 . S
C1225 C290 1.317 . S
C1227 C434 1.299 . S
C1243 C579 1.345 . S
C1245 C398 1.297 . S
C1261 C615 1.359 . S
C1263 C326 1.339 . S
C1279 C362 1.306 . S
C1281 C542 1.298 . S
