# Generated by pormake.
# Topology wna, (6)-cn, num edge types: 1
# Building blocks:
#     Node 0, Type 0, BuildingBlock: LEVNOQ01_clean_sbu_1, # of connection points: 6
#     Node 1, Type 0, BuildingBlock: LEVNOQ01_clean_sbu_1, # of connection points: 6
#     Node 2, Type 0, BuildingBlock: LEVNOQ01_clean_sbu_1, # of connection points: 6
#     Node 3, Type 0, BuildingBlock: LEVNOQ01_clean_sbu_1, # of connection points: 6
#     Node 4, Type 0, BuildingBlock: LEVNOQ01_clean_sbu_1, # of connection points: 6
#     Node 5, Type 0, BuildingBlock: LEVNOQ01_clean_sbu_1, # of connection points: 6
#     Node 6, Type 0, BuildingBlock: LEVNOQ01_clean_sbu_1, # of connection points: 6
#     Node 7, Type 0, BuildingBlock: LEVNOQ01_clean_sbu_1, # of connection points: 6
#     Node 8, Type 0, BuildingBlock: LEVNOQ01_clean_sbu_1, # of connection points: 6
#     Node 9, Type 0, BuildingBlock: LEVNOQ01_clean_sbu_1, # of connection points: 6
#     Node 10, Type 0, BuildingBlock: LEVNOQ01_clean_sbu_1, # of connection points: 6
#     Node 11, Type 0, BuildingBlock: LEVNOQ01_clean_sbu_1, # of connection points: 6
#     Node 12, Type 0, BuildingBlock: LEVNOQ01_clean_sbu_1, # of connection points: 6
#     Node 13, Type 0, BuildingBlock: LEVNOQ01_clean_sbu_1, # of connection points: 6
#     Node 14, Type 0, BuildingBlock: LEVNOQ01_clean_sbu_1, # of connection points: 6
#     Node 15, Type 0, BuildingBlock: LEVNOQ01_clean_sbu_1, # of connection points: 6
#     Node 16, Type 0, BuildingBlock: LEVNOQ01_clean_sbu_1, # of connection points: 6
#     Node 17, Type 0, BuildingBlock: LEVNOQ01_clean_sbu_1, # of connection points: 6
#     Node 18, Type 0, BuildingBlock: LEVNOQ01_clean_sbu_1, # of connection points: 6
#     Node 19, Type 0, BuildingBlock: LEVNOQ01_clean_sbu_1, # of connection points: 6
#     Node 20, Type 0, BuildingBlock: LEVNOQ01_clean_sbu_1, # of connection points: 6
#     Node 21, Type 0, BuildingBlock: LEVNOQ01_clean_sbu_1, # of connection points: 6
#     Node 22, Type 0, BuildingBlock: LEVNOQ01_clean_sbu_1, # of connection points: 6
#     Node 23, Type 0, BuildingBlock: LEVNOQ01_clean_sbu_1, # of connection points: 6
#     Node 24, Type 0, BuildingBlock: LEVNOQ01_clean_sbu_1, # of connection points: 6
#     Node 25, Type 0, BuildingBlock: LEVNOQ01_clean_sbu_1, # of connection points: 6
#     Node 26, Type 0, BuildingBlock: LEVNOQ01_clean_sbu_1, # of connection points: 6
#     Node 27, Type 0, BuildingBlock: LEVNOQ01_clean_sbu_1, # of connection points: 6
#     Node 28, Type 0, BuildingBlock: LEVNOQ01_clean_sbu_1, # of connection points: 6
#     Node 29, Type 0, BuildingBlock: LEVNOQ01_clean_sbu_1, # of connection points: 6
#     Node 30, Type 0, BuildingBlock: LEVNOQ01_clean_sbu_1, # of connection points: 6
#     Node 31, Type 0, BuildingBlock: LEVNOQ01_clean_sbu_1, # of connection points: 6
#     Node 32, Type 0, BuildingBlock: LEVNOQ01_clean_sbu_1, # of connection points: 6
#     Node 33, Type 0, BuildingBlock: LEVNOQ01_clean_sbu_1, # of connection points: 6
#     Node 34, Type 0, BuildingBlock: LEVNOQ01_clean_sbu_1, # of connection points: 6
#     Node 35, Type 0, BuildingBlock: LEVNOQ01_clean_sbu_1, # of connection points: 6
#     Edge 36, Type (0, 0), BuildingBlock: UVAHIK_clean_linker_0, # of connection points: 2
#     Edge 37, Type (0, 0), BuildingBlock: UVAHIK_clean_linker_0, # of connection points: 2
#     Edge 38, Type (0, 0), BuildingBlock: UVAHIK_clean_linker_0, # of connection points: 2
#     Edge 39, Type (0, 0), BuildingBlock: UVAHIK_clean_linker_0, # of connection points: 2
#     Edge 40, Type (0, 0), BuildingBlock: UVAHIK_clean_linker_0, # of connection points: 2
#     Edge 41, Type (0, 0), BuildingBlock: UVAHIK_clean_linker_0, # of connection points: 2
#     Edge 42, Type (0, 0), BuildingBlock: UVAHIK_clean_linker_0, # of connection points: 2
#     Edge 43, Type (0, 0), BuildingBlock: UVAHIK_clean_linker_0, # of connection points: 2
#     Edge 44, Type (0, 0), BuildingBlock: UVAHIK_clean_linker_0, # of connection points: 2
#     Edge 45, Type (0, 0), BuildingBlock: UVAHIK_clean_linker_0, # of connection points: 2
#     Edge 46, Type (0, 0), BuildingBlock: UVAHIK_clean_linker_0, # of connection points: 2
#     Edge 47, Type (0, 0), BuildingBlock: UVAHIK_clean_linker_0, # of connection points: 2
#     Edge 48, Type (0, 0), BuildingBlock: UVAHIK_clean_linker_0, # of connection points: 2
#     Edge 49, Type (0, 0), BuildingBlock: UVAHIK_clean_linker_0, # of connection points: 2
#     Edge 50, Type (0, 0), BuildingBlock: UVAHIK_clean_linker_0, # of connection points: 2
#     Edge 51, Type (0, 0), BuildingBlock: UVAHIK_clean_linker_0, # of connection points: 2
#     Edge 52, Type (0, 0), BuildingBlock: UVAHIK_clean_linker_0, # of connection points: 2
#     Edge 53, Type (0, 0), BuildingBlock: UVAHIK_clean_linker_0, # of connection points: 2
#     Edge 54, Type (0, 0), BuildingBlock: UVAHIK_clean_linker_0, # of connection points: 2
#     Edge 55, Type (0, 0), BuildingBlock: UVAHIK_clean_linker_0, # of connection points: 2
#     Edge 56, Type (0, 0), BuildingBlock: UVAHIK_clean_linker_0, # of connection points: 2
#     Edge 57, Type (0, 0), BuildingBlock: UVAHIK_clean_linker_0, # of connection points: 2
#     Edge 58, Type (0, 0), BuildingBlock: UVAHIK_clean_linker_0, # of connection points: 2
#     Edge 59, Type (0, 0), BuildingBlock: UVAHIK_clean_linker_0, # of connection points: 2
#     Edge 60, Type (0, 0), BuildingBlock: UVAHIK_clean_linker_0, # of connection points: 2
#     Edge 61, Type (0, 0), BuildingBlock: UVAHIK_clean_linker_0, # of connection points: 2
#     Edge 62, Type (0, 0), BuildingBlock: UVAHIK_clean_linker_0, # of connection points: 2
#     Edge 63, Type (0, 0), BuildingBlock: UVAHIK_clean_linker_0, # of connection points: 2
#     Edge 64, Type (0, 0), BuildingBlock: UVAHIK_clean_linker_0, # of connection points: 2
#     Edge 65, Type (0, 0), BuildingBlock: UVAHIK_clean_linker_0, # of connection points: 2
#     Edge 66, Type (0, 0), BuildingBlock: UVAHIK_clean_linker_0, # of connection points: 2
#     Edge 67, Type (0, 0), BuildingBlock: UVAHIK_clean_linker_0, # of connection points: 2
#     Edge 68, Type (0, 0), BuildingBlock: UVAHIK_clean_linker_0, # of connection points: 2
#     Edge 69, Type (0, 0), BuildingBlock: UVAHIK_clean_linker_0, # of connection points: 2
#     Edge 70, Type (0, 0), BuildingBlock: UVAHIK_clean_linker_0, # of connection points: 2
#     Edge 71, Type (0, 0), BuildingBlock: UVAHIK_clean_linker_0, # of connection points: 2
#     Edge 72, Type (0, 0), BuildingBlock: UVAHIK_clean_linker_0, # of connection points: 2
#     Edge 73, Type (0, 0), BuildingBlock: UVAHIK_clean_linker_0, # of connection points: 2
#     Edge 74, Type (0, 0), BuildingBlock: UVAHIK_clean_linker_0, # of connection points: 2
#     Edge 75, Type (0, 0), BuildingBlock: UVAHIK_clean_linker_0, # of connection points: 2
#     Edge 76, Type (0, 0), BuildingBlock: UVAHIK_clean_linker_0, # of connection points: 2
#     Edge 77, Type (0, 0), BuildingBlock: UVAHIK_clean_linker_0, # of connection points: 2
#     Edge 78, Type (0, 0), BuildingBlock: UVAHIK_clean_linker_0, # of connection points: 2
#     Edge 79, Type (0, 0), BuildingBlock: UVAHIK_clean_linker_0, # of connection points: 2
#     Edge 80, Type (0, 0), BuildingBlock: UVAHIK_clean_linker_0, # of connection points: 2
#     Edge 81, Type (0, 0), BuildingBlock: UVAHIK_clean_linker_0, # of connection points: 2
#     Edge 82, Type (0, 0), BuildingBlock: UVAHIK_clean_linker_0, # of connection points: 2
#     Edge 83, Type (0, 0), BuildingBlock: UVAHIK_clean_linker_0, # of connection points: 2
#     Edge 84, Type (0, 0), BuildingBlock: UVAHIK_clean_linker_0, # of connection points: 2
#     Edge 85, Type (0, 0), BuildingBlock: UVAHIK_clean_linker_0, # of connection points: 2
#     Edge 86, Type (0, 0), BuildingBlock: UVAHIK_clean_linker_0, # of connection points: 2
#     Edge 87, Type (0, 0), BuildingBlock: UVAHIK_clean_linker_0, # of connection points: 2
#     Edge 88, Type (0, 0), BuildingBlock: UVAHIK_clean_linker_0, # of connection points: 2
#     Edge 89, Type (0, 0), BuildingBlock: UVAHIK_clean_linker_0, # of connection points: 2
#     Edge 90, Type (0, 0), BuildingBlock: UVAHIK_clean_linker_0, # of connection points: 2
#     Edge 91, Type (0, 0), BuildingBlock: UVAHIK_clean_linker_0, # of connection points: 2
#     Edge 92, Type (0, 0), BuildingBlock: UVAHIK_clean_linker_0, # of connection points: 2
#     Edge 93, Type (0, 0), BuildingBlock: UVAHIK_clean_linker_0, # of connection points: 2
#     Edge 94, Type (0, 0), BuildingBlock: UVAHIK_clean_linker_0, # of connection points: 2
#     Edge 95, Type (0, 0), BuildingBlock: UVAHIK_clean_linker_0, # of connection points: 2
#     Edge 96, Type (0, 0), BuildingBlock: UVAHIK_clean_linker_0, # of connection points: 2
#     Edge 97, Type (0, 0), BuildingBlock: UVAHIK_clean_linker_0, # of connection points: 2
#     Edge 98, Type (0, 0), BuildingBlock: UVAHIK_clean_linker_0, # of connection points: 2
#     Edge 99, Type (0, 0), BuildingBlock: UVAHIK_clean_linker_0, # of connection points: 2
#     Edge 100, Type (0, 0), BuildingBlock: UVAHIK_clean_linker_0, # of connection points: 2
#     Edge 101, Type (0, 0), BuildingBlock: UVAHIK_clean_linker_0, # of connection points: 2
#     Edge 102, Type (0, 0), BuildingBlock: UVAHIK_clean_linker_0, # of connection points: 2
#     Edge 103, Type (0, 0), BuildingBlock: UVAHIK_clean_linker_0, # of connection points: 2
#     Edge 104, Type (0, 0), BuildingBlock: UVAHIK_clean_linker_0, # of connection points: 2
#     Edge 105, Type (0, 0), BuildingBlock: UVAHIK_clean_linker_0, # of connection points: 2
#     Edge 106, Type (0, 0), BuildingBlock: UVAHIK_clean_linker_0, # of connection points: 2
#     Edge 107, Type (0, 0), BuildingBlock: UVAHIK_clean_linker_0, # of connection points: 2
#     Edge 108, Type (0, 0), BuildingBlock: UVAHIK_clean_linker_0, # of connection points: 2
#     Edge 109, Type (0, 0), BuildingBlock: UVAHIK_clean_linker_0, # of connection points: 2
#     Edge 110, Type (0, 0), BuildingBlock: UVAHIK_clean_linker_0, # of connection points: 2
#     Edge 111, Type (0, 0), BuildingBlock: UVAHIK_clean_linker_0, # of connection points: 2
#     Edge 112, Type (0, 0), BuildingBlock: UVAHIK_clean_linker_0, # of connection points: 2
#     Edge 113, Type (0, 0), BuildingBlock: UVAHIK_clean_linker_0, # of connection points: 2
#     Edge 114, Type (0, 0), BuildingBlock: UVAHIK_clean_linker_0, # of connection points: 2
#     Edge 115, Type (0, 0), BuildingBlock: UVAHIK_clean_linker_0, # of connection points: 2
#     Edge 116, Type (0, 0), BuildingBlock: UVAHIK_clean_linker_0, # of connection points: 2
#     Edge 117, Type (0, 0), BuildingBlock: UVAHIK_clean_linker_0, # of connection points: 2
#     Edge 118, Type (0, 0), BuildingBlock: UVAHIK_clean_linker_0, # of connection points: 2
#     Edge 119, Type (0, 0), BuildingBlock: UVAHIK_clean_linker_0, # of connection points: 2
#     Edge 120, Type (0, 0), BuildingBlock: UVAHIK_clean_linker_0, # of connection points: 2
#     Edge 121, Type (0, 0), BuildingBlock: UVAHIK_clean_linker_0, # of connection points: 2
#     Edge 122, Type (0, 0), BuildingBlock: UVAHIK_clean_linker_0, # of connection points: 2
#     Edge 123, Type (0, 0), BuildingBlock: UVAHIK_clean_linker_0, # of connection points: 2
#     Edge 124, Type (0, 0), BuildingBlock: UVAHIK_clean_linker_0, # of connection points: 2
#     Edge 125, Type (0, 0), BuildingBlock: UVAHIK_clean_linker_0, # of connection points: 2
#     Edge 126, Type (0, 0), BuildingBlock: UVAHIK_clean_linker_0, # of connection points: 2
#     Edge 127, Type (0, 0), BuildingBlock: UVAHIK_clean_linker_0, # of connection points: 2
#     Edge 128, Type (0, 0), BuildingBlock: UVAHIK_clean_linker_0, # of connection points: 2
#     Edge 129, Type (0, 0), BuildingBlock: UVAHIK_clean_linker_0, # of connection points: 2
#     Edge 130, Type (0, 0), BuildingBlock: UVAHIK_clean_linker_0, # of connection points: 2
#     Edge 131, Type (0, 0), BuildingBlock: UVAHIK_clean_linker_0, # of connection points: 2
#     Edge 132, Type (0, 0), BuildingBlock: UVAHIK_clean_linker_0, # of connection points: 2
#     Edge 133, Type (0, 0), BuildingBlock: UVAHIK_clean_linker_0, # of connection points: 2
#     Edge 134, Type (0, 0), BuildingBlock: UVAHIK_clean_linker_0, # of connection points: 2
#     Edge 135, Type (0, 0), BuildingBlock: UVAHIK_clean_linker_0, # of connection points: 2
#     Edge 136, Type (0, 0), BuildingBlock: UVAHIK_clean_linker_0, # of connection points: 2
#     Edge 137, Type (0, 0), BuildingBlock: UVAHIK_clean_linker_0, # of connection points: 2
#     Edge 138, Type (0, 0), BuildingBlock: UVAHIK_clean_linker_0, # of connection points: 2
#     Edge 139, Type (0, 0), BuildingBlock: UVAHIK_clean_linker_0, # of connection points: 2
#     Edge 140, Type (0, 0), BuildingBlock: UVAHIK_clean_linker_0, # of connection points: 2
#     Edge 141, Type (0, 0), BuildingBlock: UVAHIK_clean_linker_0, # of connection points: 2
#     Edge 142, Type (0, 0), BuildingBlock: UVAHIK_clean_linker_0, # of connection points: 2
#     Edge 143, Type (0, 0), BuildingBlock: UVAHIK_clean_linker_0, # of connection points: 2
# Relax obj value: 0.254
# Max RMSD: 0.228
# Mean RMSD: 0.227
data_MOF--net-wna--node1-LEVNOQ01_clean_sbu_1--edge1-UVAHIK_clean_linker_0
_symmetry_space_group_name_H-M    P1
_symmetry_Int_Tables_number       1
_symmetry_cell_setting            triclinic
loop_
_symmetry_equiv_pos_as_xyz
'x, y, z'
_cell_length_a     51.965184
_cell_length_b     51.934207
_cell_length_c     112.30104
_cell_angle_alpha  89.975951
_cell_angle_beta   90.017968
_cell_angle_gamma 120.02489
loop_
_atom_site_label
_atom_site_type_symbol
_atom_site_fract_x
_atom_site_fract_y
_atom_site_fract_z
_atom_type_partial_charge
O0 O 0.13472 0.21046 0.18044 0.0
Mg1 Mg 0.14199 0.24937 0.18973 0.0
O2 O 0.09768 0.20461 0.16858 0.0
Mg3 Mg 0.09198 0.24633 0.17011 0.0
O4 O 0.13821 0.27463 0.17702 0.0
O5 O 0.17993 0.29149 0.187 0.0
O6 O 0.0862 0.28796 0.17249 0.0
O7 O 0.11183 0.26152 0.151 0.0
Mg8 Mg 0.04194 0.24635 0.15194 0.0
O9 O 0.04596 0.2171 0.16256 0.0
O10 O 0.04492 0.28026 0.16335 0.0
O11 O 0.07618 0.25877 0.13905 0.0
O12 O 0.0054 0.20314 0.15195 0.0
C13 C 0.0817 0.23413 0.20005 0.0
C14 C 0.11472 0.19559 0.17273 0.0
C15 C 0.16521 0.29535 0.17865 0.0
C16 C 0.0667 0.29544 0.17027 0.0
C17 C 0.10263 0.26416 0.14075 0.0
C18 C 0.02012 0.1962 0.15924 0.0
O19 O 0.10874 0.2423 0.2022 0.0
O20 O 0.07218 0.23253 0.18939 0.0
O21 O 0.76699 0.91665 0.18539 0.0
Mg22 Mg 0.72398 0.88478 0.19171 0.0
O23 O 0.77502 0.89 0.1718 0.0
Mg24 Mg 0.73307 0.84235 0.17161 0.0
O25 O 0.70358 0.85961 0.17738 0.0
O26 O 0.68374 0.88257 0.18669 0.0
O27 O 0.69057 0.79516 0.17285 0.0
O28 O 0.72196 0.84959 0.15204 0.0
Mg29 Mg 0.73464 0.79497 0.154 0.0
O30 O 0.76446 0.82568 0.16557 0.0
O31 O 0.69807 0.76189 0.16351 0.0
O32 O 0.72661 0.81784 0.14017 0.0
O33 O 0.77453 0.79576 0.15488 0.0
C34 C 0.73718 0.83899 0.20195 0.0
C35 C 0.78357 0.91403 0.17771 0.0
C36 C 0.68258 0.86572 0.17806 0.0
C37 C 0.68242 0.76827 0.17019 0.0
C38 C 0.72128 0.83894 0.1417 0.0
C39 C 0.78304 0.81715 0.16246 0.0
O40 O 0.72596 0.85537 0.20401 0.0
O41 O 0.74278 0.83421 0.19132 0.0
O42 O 0.06877 0.85696 0.18317 0.0
Mg43 Mg 0.09973 0.84504 0.18955 0.0
O44 O 0.09708 0.88914 0.16919 0.0
Mg45 Mg 0.1434 0.89191 0.16993 0.0
O46 O 0.12406 0.8435 0.1757 0.0
O47 O 0.09625 0.80404 0.18698 0.0
O48 O 0.1895 0.89514 0.17165 0.0
O49 O 0.13745 0.87575 0.14974 0.0
Mg50 Mg 0.19536 0.94458 0.15264 0.0
O51 O 0.16333 0.93953 0.16421 0.0
O52 O 0.2247 0.93414 0.16182 0.0
O53 O 0.1706 0.91425 0.13894 0.0
O54 O 0.19208 0.9829 0.15576 0.0
C55 C 0.14667 0.90045 0.20037 0.0
C56 C 0.07272 0.87559 0.17503 0.0
C57 C 0.11449 0.81583 0.1782 0.0
C58 C 0.2166 0.9119 0.16866 0.0
C59 C 0.14902 0.88767 0.13965 0.0
C60 C 0.16969 0.96657 0.1625 0.0
O61 O 0.12871 0.8733 0.20256 0.0
O62 O 0.15181 0.91027 0.18966 0.0
O63 O 0.20164 0.13407 0.32494 0.0
Mg64 Mg 0.24062 0.14395 0.31525 0.0
O65 O 0.19937 0.09727 0.33602 0.0
Mg66 Mg 0.24374 0.09619 0.33413 0.0
O67 O 0.26887 0.14326 0.32742 0.0
O68 O 0.2809 0.18395 0.31722 0.0
O69 O 0.28803 0.0952 0.33137 0.0
O70 O 0.2575 0.11704 0.35327 0.0
Mg71 Mg 0.25036 0.05293 0.35274 0.0
O72 O 0.21769 0.04845 0.34129 0.0
O73 O 0.28962 0.06248 0.34362 0.0
O74 O 0.25512 0.08336 0.36614 0.0
O75 O 0.21314 0.01115 0.35244 0.0
C76 C 0.23063 0.08592 0.30426 0.0
C77 C 0.18833 0.11306 0.3324 0.0
C78 C 0.28765 0.1708 0.32534 0.0
C79 C 0.30095 0.08153 0.33535 0.0
C80 C 0.25927 0.10907 0.36387 0.0
C81 C 0.2015 0.02127 0.34496 0.0
O82 O 0.23547 0.11211 0.30239 0.0
O83 O 0.23107 0.0766 0.31478 0.0
O84 O 0.84927 0.06761 0.32083 0.0
Mg85 Mg 0.83567 0.09721 0.31396 0.0
O86 O 0.88228 0.09632 0.3346 0.0
Mg87 Mg 0.88553 0.14283 0.33369 0.0
O88 O 0.83822 0.12282 0.32791 0.0
O89 O 0.79595 0.09664 0.31839 0.0
O90 O 0.88879 0.18925 0.33166 0.0
O91 O 0.86827 0.13775 0.35331 0.0
Mg92 Mg 0.93742 0.19474 0.35099 0.0
O93 O 0.93288 0.16213 0.33988 0.0
O94 O 0.93054 0.22415 0.34013 0.0
O95 O 0.90511 0.17165 0.3646 0.0
O96 O 0.97543 0.19056 0.34897 0.0
C97 C 0.89303 0.14439 0.30333 0.0
C98 C 0.86822 0.07179 0.32888 0.0
C99 C 0.81062 0.11486 0.32684 0.0
C100 C 0.90776 0.21652 0.33369 0.0
C101 C 0.87873 0.14996 0.36341 0.0
C102 C 0.95975 0.16843 0.34202 0.0
O103 O 0.8656 0.12688 0.30132 0.0
O104 O 0.90341 0.14988 0.31397 0.0
O105 O 0.91312 0.78134 0.32212 0.0
Mg106 Mg 0.88342 0.73929 0.31438 0.0
O107 O 0.88309 0.78204 0.33619 0.0
Mg108 Mg 0.83736 0.73821 0.33491 0.0
O109 O 0.85868 0.71268 0.32795 0.0
O110 O 0.88613 0.70077 0.31685 0.0
O111 O 0.79158 0.69484 0.33284 0.0
O112 O 0.84465 0.72488 0.35412 0.0
Mg113 Mg 0.78716 0.73485 0.35435 0.0
O114 O 0.81633 0.76363 0.34223 0.0
O115 O 0.75779 0.69536 0.34489 0.0
O116 O 0.81443 0.72949 0.367 0.0
O117 O 0.78751 0.77543 0.35236 0.0
C118 C 0.83388 0.74714 0.30489 0.0
C119 C 0.90797 0.7941 0.33069 0.0
C120 C 0.86797 0.69443 0.32563 0.0
C121 C 0.76503 0.68306 0.3368 0.0
C122 C 0.83528 0.72416 0.36473 0.0
C123 C 0.80862 0.78299 0.34474 0.0
O124 O 0.85289 0.73956 0.30223 0.0
O125 O 0.82833 0.75032 0.31573 0.0
O126 O 0.90013 0.7239 0.86211 0.0
Mg127 Mg 0.93512 0.74339 0.84944 0.0
O128 O 0.86408 0.72379 0.85131 0.0
Mg129 Mg 0.88336 0.73656 0.83199 0.0
O130 O 0.92842 0.77187 0.83919 0.0
O131 O 0.96859 0.78753 0.85045 0.0
O132 O 0.90409 0.74818 0.81265 0.0
O133 O 0.87157 0.77433 0.83087 0.0
Mg134 Mg 0.83425 0.72057 0.81044 0.0
O135 O 0.83769 0.70248 0.82574 0.0
O136 O 0.86818 0.72381 0.79936 0.0
O137 O 0.83955 0.7624 0.81579 0.0
O138 O 0.7972 0.67935 0.81484 0.0
C139 C 0.91621 0.69399 0.83281 0.0
C140 C 0.87362 0.71874 0.86104 0.0
C141 C 0.95372 0.79338 0.8428 0.0
C142 C 0.89554 0.73933 0.80197 0.0
C143 C 0.85551 0.78022 0.82399 0.0
C144 C 0.81117 0.68032 0.82446 0.0
O145 O 0.93929 0.71309 0.83825 0.0
O146 O 0.89386 0.69767 0.83147 0.0
O147 O 0.25214 0.16751 0.86319 0.0
Mg148 Mg 0.2398 0.18835 0.84987 0.0
O149 O 0.2598 0.13717 0.85152 0.0
Mg150 Mg 0.2478 0.14311 0.83188 0.0
O151 O 0.21396 0.15534 0.83836 0.0
O152 O 0.1959 0.179 0.84866 0.0
O153 O 0.23703 0.15136 0.81231 0.0
O154 O 0.20854 0.09407 0.83125 0.0
Mg155 Mg 0.26127 0.10587 0.81113 0.0
O156 O 0.28064 0.12971 0.82592 0.0
O157 O 0.25782 0.13516 0.79922 0.0
O158 O 0.21911 0.07085 0.81699 0.0
O159 O 0.30238 0.10981 0.81566 0.0
C160 C 0.29233 0.21814 0.83345 0.0
C161 C 0.25971 0.14789 0.8618 0.0
C162 C 0.1917 0.15872 0.84104 0.0
C163 C 0.24414 0.14906 0.80159 0.0
C164 C 0.20162 0.071 0.82491 0.0
C165 C 0.30249 0.12488 0.82479 0.0
O166 O 0.27455 0.22259 0.83969 0.0
O167 O 0.28717 0.19191 0.83115 0.0
O168 O 0.81926 0.08462 0.86314 0.0
Mg169 Mg 0.79749 0.05125 0.85002 0.0
O170 O 0.84818 0.12136 0.85074 0.0
Mg171 Mg 0.84079 0.10183 0.83137 0.0
O172 O 0.8291 0.05568 0.83814 0.0
O173 O 0.80464 0.0155 0.84946 0.0
O174 O 0.83244 0.08255 0.81187 0.0
O175 O 0.89017 0.11244 0.83055 0.0
Mg176 Mg 0.87841 0.15379 0.81063 0.0
O177 O 0.85306 0.14724 0.82506 0.0
O178 O 0.85091 0.11978 0.79877 0.0
O179 O 0.91399 0.14855 0.81717 0.0
O180 O 0.87138 0.18925 0.81519 0.0
C181 C 0.7658 0.07174 0.83381 0.0
C182 C 0.83866 0.11159 0.86123 0.0
C183 C 0.82433 0.02974 0.84137 0.0
C184 C 0.83623 0.09217 0.80113 0.0
C185 C 0.91371 0.13011 0.82473 0.0
C186 C 0.85624 0.17331 0.82412 0.0
O187 O 0.7618 0.05044 0.84055 0.0
O188 O 0.79185 0.09208 0.83086 0.0
O189 O 0.76198 0.84553 0.68447 0.0
Mg190 Mg 0.71978 0.83822 0.68996 0.0
O191 O 0.77221 0.87848 0.66991 0.0
Mg192 Mg 0.73216 0.8873 0.6694 0.0
O193 O 0.69906 0.84008 0.67504 0.0
O194 O 0.67992 0.79971 0.68629 0.0
O195 O 0.69162 0.8949 0.6703 0.0
O196 O 0.72043 0.86938 0.64975 0.0
Mg197 Mg 0.73741 0.93802 0.65194 0.0
O198 O 0.7662 0.93499 0.66347 0.0
O199 O 0.70162 0.93687 0.66132 0.0
O200 O 0.72736 0.90684 0.63799 0.0
O201 O 0.77858 0.97567 0.65279 0.0
C202 C 0.73496 0.89701 0.69968 0.0
C203 C 0.77934 0.86278 0.67645 0.0
C204 C 0.67826 0.813 0.67687 0.0
C205 C 0.68479 0.91465 0.66774 0.0
C206 C 0.72033 0.87986 0.63944 0.0
C207 C 0.78596 0.96178 0.66035 0.0
O208 O 0.72131 0.86947 0.70207 0.0
O209 O 0.74249 0.90631 0.68898 0.0
O210 O 0.135 0.92312 0.67699 0.0
Mg211 Mg 0.14165 0.89241 0.6871 0.0
O212 O 0.09706 0.88946 0.66616 0.0
Mg213 Mg 0.09238 0.84262 0.66864 0.0
O214 O 0.13941 0.86174 0.67537 0.0
O215 O 0.18011 0.88936 0.68582 0.0
O216 O 0.08694 0.79562 0.67162 0.0
O217 O 0.11097 0.84527 0.64931 0.0
Mg218 Mg 0.04086 0.79077 0.65088 0.0
O219 O 0.0461 0.82435 0.66151 0.0
O220 O 0.04583 0.76123 0.66254 0.0
O221 O 0.07442 0.81228 0.63767 0.0
O222 O 0.00452 0.79811 0.65155 0.0
C223 C 0.08266 0.84876 0.69843 0.0
C224 C 0.11415 0.91627 0.66953 0.0
C225 C 0.16661 0.86945 0.67773 0.0
C226 C 0.06772 0.76846 0.6695 0.0
C227 C 0.10112 0.83306 0.63915 0.0
C228 C 0.02012 0.81971 0.65874 0.0
O229 O 0.10937 0.86901 0.70021 0.0
O230 O 0.07326 0.83836 0.68799 0.0
O231 O 0.06277 0.20759 0.67872 0.0
Mg232 Mg 0.09216 0.24734 0.68803 0.0
O233 O 0.0968 0.20544 0.66729 0.0
Mg234 Mg 0.14253 0.2493 0.66943 0.0
O235 O 0.12102 0.27532 0.67567 0.0
O236 O 0.09226 0.2874 0.68576 0.0
O237 O 0.18784 0.29356 0.67278 0.0
O238 O 0.13784 0.26332 0.65005 0.0
Mg239 Mg 0.19549 0.25591 0.65307 0.0
O240 O 0.16321 0.22174 0.66277 0.0
O241 O 0.22474 0.29028 0.66443 0.0
O242 O 0.17479 0.26622 0.63902 0.0
O243 O 0.1973 0.2173 0.65253 0.0
C244 C 0.13878 0.23652 0.69943 0.0
C245 C 0.07015 0.19429 0.67113 0.0
C246 C 0.1121 0.29403 0.67763 0.0
C247 C 0.21556 0.30356 0.67114 0.0
C248 C 0.15152 0.26819 0.64012 0.0
C249 C 0.17401 0.20531 0.65923 0.0
O250 O 0.11828 0.24259 0.70129 0.0
O251 O 0.14804 0.23624 0.68889 0.0
O252 O 0.79602 0.54399 0.51796 0.0
Mg253 Mg 0.80731 0.58624 0.52507 0.0
O254 O 0.76369 0.5395 0.50391 0.0
Mg255 Mg 0.7602 0.58283 0.50459 0.0
O256 O 0.80753 0.61063 0.51106 0.0
O257 O 0.84773 0.62516 0.52201 0.0
O258 O 0.75714 0.62593 0.50664 0.0
O259 O 0.7804 0.59577 0.48513 0.0
Mg260 Mg 0.71559 0.58604 0.48597 0.0
O261 O 0.71231 0.55428 0.49771 0.0
O262 O 0.72338 0.62558 0.49447 0.0
O263 O 0.74546 0.59075 0.47237 0.0
O264 O 0.67451 0.54826 0.48646 0.0
C265 C 0.74939 0.57613 0.53481 0.0
C266 C 0.77773 0.52911 0.50972 0.0
C267 C 0.83511 0.62968 0.51301 0.0
C268 C 0.74261 0.63786 0.50262 0.0
C269 C 0.77168 0.59629 0.4745 0.0
C270 C 0.68523 0.53742 0.49405 0.0
O271 O 0.7765 0.58559 0.53725 0.0
O272 O 0.74002 0.57147 0.52402 0.0
O273 O 0.44507 0.24926 0.51509 0.0
Mg274 Mg 0.40366 0.21849 0.52307 0.0
O275 O 0.44636 0.21953 0.50103 0.0
Mg276 Mg 0.40321 0.17333 0.50234 0.0
O277 O 0.37685 0.19372 0.50959 0.0
O278 O 0.36487 0.22064 0.52106 0.0
O279 O 0.3602 0.12684 0.5045 0.0
O280 O 0.38851 0.17966 0.48333 0.0
Mg281 Mg 0.40051 0.12237 0.48361 0.0
O282 O 0.4303 0.15478 0.49432 0.0
O283 O 0.36646 0.09242 0.49524 0.0
O284 O 0.38887 0.14578 0.47116 0.0
O285 O 0.44347 0.12807 0.48344 0.0
C286 C 0.41256 0.16937 0.53228 0.0
C287 C 0.45795 0.24447 0.50646 0.0
C288 C 0.35858 0.20288 0.51213 0.0
C289 C 0.35191 0.09967 0.50223 0.0
C290 C 0.38491 0.16771 0.47304 0.0
C291 C 0.45088 0.14957 0.49086 0.0
O292 O 0.40444 0.18792 0.53499 0.0
O293 O 0.41632 0.16431 0.52143 0.0
O294 O 0.73387 0.17924 0.51841 0.0
Mg295 Mg 0.76806 0.17214 0.52523 0.0
O296 O 0.75842 0.21291 0.5042 0.0
Mg297 Mg 0.80734 0.22213 0.5041 0.0
O298 O 0.7933 0.17668 0.51096 0.0
O299 O 0.77312 0.1352 0.52128 0.0
O300 O 0.85574 0.23066 0.50534 0.0
O301 O 0.80166 0.20235 0.48479 0.0
Mg302 Mg 0.85413 0.27365 0.48589 0.0
O303 O 0.82029 0.26772 0.49665 0.0
O304 O 0.8875 0.27351 0.49675 0.0
O305 O 0.83356 0.23917 0.47297 0.0
O306 O 0.84513 0.30858 0.48591 0.0
C307 C 0.81092 0.23351 0.53433 0.0
C308 C 0.73488 0.19693 0.51032 0.0
C309 C 0.78878 0.15017 0.51227 0.0
C310 C 0.88225 0.25127 0.50316 0.0
C311 C 0.81327 0.21229 0.47454 0.0
C312 C 0.82386 0.29304 0.49325 0.0
O313 O 0.796 0.20607 0.53695 0.0
O314 O 0.81511 0.24261 0.5235 0.0
O315 O 0.87491 0.46919 0.65528 0.0
Mg316 Mg 0.91649 0.47829 0.648 0.0
O317 O 0.86913 0.43587 0.66916 0.0
Mg318 Mg 0.91039 0.42934 0.6687 0.0
O319 O 0.93985 0.47537 0.66174 0.0
O320 O 0.95777 0.51664 0.65131 0.0
O321 O 0.95097 0.4216 0.66717 0.0
O322 O 0.92465 0.45014 0.68789 0.0
Mg323 Mg 0.90686 0.37975 0.68824 0.0
O324 O 0.87982 0.38385 0.6764 0.0
O325 O 0.94211 0.38207 0.67797 0.0
O326 O 0.91807 0.41445 0.70069 0.0
O327 O 0.86339 0.34368 0.68751 0.0
C328 C 0.90074 0.41786 0.63852 0.0
C329 C 0.85976 0.45091 0.66348 0.0
C330 C 0.96065 0.50239 0.66012 0.0
C331 C 0.95777 0.40217 0.67044 0.0
C332 C 0.92524 0.44122 0.69848 0.0
C333 C 0.8581 0.35833 0.67956 0.0
O334 O 0.9113 0.44517 0.63603 0.0
O335 O 0.89735 0.40859 0.64932 0.0
O336 O 0.51453 0.40322 0.65433 0.0
Mg337 Mg 0.50238 0.43444 0.64811 0.0
O338 O 0.54793 0.43049 0.66822 0.0
Mg339 Mg 0.55231 0.4774 0.6684 0.0
O340 O 0.50539 0.45934 0.66237 0.0
O341 O 0.4633 0.43507 0.65254 0.0
O342 O 0.5578 0.52478 0.66752 0.0
O343 O 0.53334 0.46949 0.68794 0.0
Mg344 Mg 0.60225 0.52343 0.68779 0.0
O345 O 0.59916 0.4947 0.67493 0.0
O346 O 0.59551 0.5557 0.67904 0.0
O347 O 0.56985 0.49698 0.70069 0.0
O348 O 0.64071 0.52065 0.68507 0.0
C349 C 0.56081 0.48169 0.63804 0.0
C350 C 0.53353 0.40649 0.66221 0.0
C351 C 0.47807 0.45242 0.66121 0.0
C352 C 0.5754 0.55092 0.67147 0.0
C353 C 0.54298 0.47758 0.69856 0.0
C354 C 0.62596 0.50079 0.67711 0.0
O355 O 0.53336 0.4646 0.63592 0.0
O356 O 0.57105 0.48645 0.64871 0.0
O357 O 0.5781 0.10114 0.65268 0.0
Mg358 Mg 0.54297 0.05989 0.64634 0.0
O359 O 0.55455 0.11143 0.6669 0.0
Mg360 Mg 0.50563 0.07163 0.66785 0.0
O361 O 0.51863 0.03949 0.66083 0.0
O362 O 0.53778 0.01787 0.65006 0.0
O363 O 0.45693 0.03226 0.6676 0.0
O364 O 0.51393 0.05854 0.68708 0.0
Mg365 Mg 0.46402 0.07864 0.68815 0.0
O366 O 0.49254 0.10414 0.67515 0.0
O367 O 0.42852 0.04122 0.67969 0.0
O368 O 0.48946 0.06984 0.70047 0.0
O369 O 0.46924 0.12093 0.68644 0.0
C370 C 0.49993 0.0786 0.6377 0.0
C371 C 0.57769 0.11851 0.66058 0.0
C372 C 0.52274 0.0173 0.65926 0.0
C373 C 0.43149 0.02516 0.6719 0.0
C374 C 0.50711 0.06043 0.69789 0.0
C375 C 0.48788 0.12552 0.67801 0.0
O376 O 0.51458 0.06592 0.63494 0.0
O377 O 0.49624 0.08361 0.64857 0.0
O378 O 0.57036 0.06713 0.19701 0.0
Mg379 Mg 0.60261 0.07496 0.18379 0.0
O380 O 0.53391 0.06085 0.18473 0.0
Mg381 Mg 0.55266 0.07172 0.16517 0.0
O382 O 0.6 0.10237 0.17157 0.0
O383 O 0.64095 0.11609 0.18205 0.0
O384 O 0.57266 0.08107 0.14569 0.0
O385 O 0.54737 0.11396 0.16449 0.0
Mg386 Mg 0.50577 0.06288 0.14406 0.0
O387 O 0.50522 0.04159 0.15919 0.0
O388 O 0.53595 0.06026 0.13251 0.0
O389 O 0.51711 0.10677 0.14917 0.0
O390 O 0.46531 0.02491 0.14782 0.0
C391 C 0.57644 0.02166 0.16758 0.0
C392 C 0.54372 0.06091 0.1952 0.0
C393 C 0.62694 0.12239 0.17415 0.0
C394 C 0.56335 0.07272 0.13504 0.0
C395 C 0.53403 0.12303 0.15751 0.0
C396 C 0.47774 0.0221 0.15728 0.0
O397 O 0.5982 0.03764 0.17438 0.0
O398 O 0.55766 0.02949 0.16456 0.0
O399 O 0.9225 0.49754 0.19887 0.0
Mg400 Mg 0.91019 0.52168 0.18731 0.0
O401 O 0.92827 0.47005 0.18503 0.0
Mg402 Mg 0.91261 0.47924 0.16647 0.0
O403 O 0.881 0.49167 0.17548 0.0
O404 O 0.86745 0.5153 0.18818 0.0
O405 O 0.89813 0.48963 0.14784 0.0
O406 O 0.87254 0.43064 0.16571 0.0
Mg407 Mg 0.92153 0.44364 0.14329 0.0
O408 O 0.94286 0.46567 0.15808 0.0
O409 O 0.9158 0.47417 0.13304 0.0
O410 O 0.87983 0.40911 0.14981 0.0
O411 O 0.9633 0.44704 0.14642 0.0
C412 C 0.96006 0.55366 0.16973 0.0
C413 C 0.92962 0.47835 0.19588 0.0
C414 C 0.86041 0.49597 0.1798 0.0
C415 C 0.90285 0.48788 0.13673 0.0
C416 C 0.86404 0.40859 0.15859 0.0
C417 C 0.96441 0.46084 0.15609 0.0
O418 O 0.9449 0.55722 0.17776 0.0
O419 O 0.95248 0.52782 0.16573 0.0
O420 O 0.47816 0.41487 0.19679 0.0
Mg421 Mg 0.45645 0.38134 0.18365 0.0
O422 O 0.51072 0.45105 0.18495 0.0
Mg423 Mg 0.50422 0.43139 0.16556 0.0
O424 O 0.48921 0.38489 0.17275 0.0
O425 O 0.4622 0.34453 0.18357 0.0
O426 O 0.49559 0.41141 0.14607 0.0
O427 O 0.55228 0.4384 0.16567 0.0
Mg428 Mg 0.54596 0.48113 0.14483 0.0
O429 O 0.52065 0.4776 0.15897 0.0
O430 O 0.51652 0.44848 0.13295 0.0
O431 O 0.5789 0.47225 0.15183 0.0
O432 O 0.54318 0.51935 0.14885 0.0
C433 C 0.42981 0.40558 0.16657 0.0
C434 C 0.49917 0.44141 0.19523 0.0
C435 C 0.48361 0.35878 0.17612 0.0
C436 C 0.49989 0.42107 0.13532 0.0
C437 C 0.57655 0.45395 0.15991 0.0
C438 C 0.52656 0.50458 0.15769 0.0
O439 O 0.42371 0.38319 0.17303 0.0
O440 O 0.45662 0.42532 0.1643 0.0
O441 O 0.4356 0.18181 0.01563 0.0
Mg442 Mg 0.39376 0.17245 0.02244 0.0
O443 O 0.44238 0.21624 0.0022 0.0
Mg444 Mg 0.39978 0.22107 0.00224 0.0
O445 O 0.37027 0.17372 0.00834 0.0
O446 O 0.35415 0.133 0.01914 0.0
O447 O 0.35704 0.22522 0.00342 0.0
O448 O 0.38847 0.20134 0.98272 0.0
Mg449 Mg 0.39993 0.26657 0.98349 0.0
O450 O 0.43033 0.26924 0.99582 0.0
O451 O 0.35976 0.25966 0.99102 0.0
O452 O 0.39603 0.23703 0.96989 0.0
O453 O 0.43775 0.30742 0.98441 0.0
C454 C 0.40502 0.23066 0.03256 0.0
C455 C 0.45153 0.20081 0.00778 0.0
C456 C 0.35045 0.14632 0.01017 0.0
C457 C 0.3461 0.24029 0.999 0.0
C458 C 0.38947 0.2105 0.97205 0.0
C459 C 0.44765 0.29635 0.99226 0.0
O460 O 0.39561 0.20346 0.03484 0.0
O461 O 0.40963 0.24037 0.02183 0.0
O462 O 0.79782 0.25103 0.01524 0.0
Mg463 Mg 0.80777 0.21889 0.02199 0.0
O464 O 0.76624 0.22456 1.00072 0.0
Mg465 Mg 0.76114 0.17712 1.0011 0.0
O466 O 0.80797 0.19483 0.00794 0.0
O467 O 0.84762 0.21918 0.01935 0.0
O468 O 0.75529 0.12977 0.00249 0.0
O469 O 0.7816 0.18405 0.9818 0.0
Mg470 Mg 0.71229 0.12956 0.98146 0.0
O471 O 0.71528 0.16005 0.9935 0.0
O472 O 0.71863 0.09751 0.99082 0.0
O473 O 0.74612 0.15491 0.96891 0.0
O474 O 0.67481 0.13486 0.98272 0.0
C475 C 0.74859 0.17286 0.03127 0.0
C476 C 0.78016 0.24841 0.00688 0.0
C477 C 0.83524 0.20255 0.0102 0.0
C478 C 0.73861 0.1034 0.9986 0.0
C479 C 0.77273 0.17482 0.97118 0.0
C480 C 0.6894 0.15537 0.99046 0.0
O481 O 0.7758 0.1894 0.03388 0.0
O482 O 0.73973 0.16814 0.02041 0.0
O483 O 0.72958 0.54271 0.00964 0.0
Mg484 Mg 0.75843 0.58182 0.01939 0.0
O485 O 0.76322 0.53883 0.99855 0.0
Mg486 Mg 0.8096 0.58171 1.00126 0.0
O487 O 0.78861 0.60793 0.0072 0.0
O488 O 0.76055 0.62279 0.01592 0.0
O489 O 0.85564 0.62478 0.00503 0.0
O490 O 0.80781 0.59759 0.98192 0.0
Mg491 Mg 0.86568 0.58669 0.98589 0.0
O492 O 0.82921 0.55463 0.99422 0.0
O493 O 0.89195 0.61665 0.99934 0.0
O494 O 0.84883 0.60423 0.97276 0.0
O495 O 0.85938 0.54356 0.98466 0.0
C496 C 0.80305 0.56801 0.03125 0.0
C497 C 0.73649 0.52879 0.00215 0.0
C498 C 0.78051 0.62749 0.00808 0.0
C499 C 0.88303 0.63191 0.00496 0.0
C500 C 0.82516 0.60584 0.97289 0.0
C501 C 0.83557 0.53475 0.99088 0.0
O502 O 0.78339 0.57547 0.03269 0.0
O503 O 0.81308 0.56729 0.02089 0.0
O504 O 0.46281 0.87442 0.84691 0.0
Mg505 Mg 0.47416 0.9146 0.85617 0.0
O506 O 0.42594 0.87104 0.83549 0.0
Mg507 Mg 0.42338 0.9144 0.83752 0.0
O508 O 0.47041 0.94011 0.84356 0.0
O509 O 0.5132 0.95543 0.85245 0.0
O510 O 0.42209 0.95844 0.84081 0.0
O511 O 0.44206 0.92841 0.8181 0.0
Mg512 Mg 0.37685 0.92022 0.82116 0.0
O513 O 0.37491 0.88626 0.83104 0.0
O514 O 0.382 0.955 0.83232 0.0
O515 O 0.40738 0.9299 0.80699 0.0
O516 O 0.33637 0.88172 0.82075 0.0
C517 C 0.41608 0.90301 0.86759 0.0
C518 C 0.44196 0.86056 0.83942 0.0
C519 C 0.49798 0.95981 0.84449 0.0
C520 C 0.40437 0.96838 0.83908 0.0
C521 C 0.4329 0.93254 0.8081 0.0
C522 C 0.34761 0.86982 0.82755 0.0
O523 O 0.44301 0.91002 0.86929 0.0
O524 O 0.40575 0.90174 0.85711 0.0
O525 O 0.10786 0.58038 0.85006 0.0
Mg526 Mg 0.06634 0.55017 0.85836 0.0
O527 O 0.11046 0.55049 0.83633 0.0
Mg528 Mg 0.06724 0.50429 0.83729 0.0
O529 O 0.04202 0.52459 0.8447 0.0
O530 O 0.02592 0.54966 0.85485 0.0
O531 O 0.02321 0.45855 0.83947 0.0
O532 O 0.05354 0.51262 0.81837 0.0
Mg533 Mg 0.06157 0.45455 0.81876 0.0
O534 O 0.09435 0.48447 0.82964 0.0
O535 O 0.02607 0.42341 0.82933 0.0
O536 O 0.05249 0.47883 0.80586 0.0
O537 O 0.10065 0.45334 0.81817 0.0
C538 C 0.07631 0.50059 0.8672 0.0
C539 C 0.1214 0.57555 0.84167 0.0
C540 C 0.02215 0.53199 0.84616 0.0
C541 C 0.01288 0.43129 0.83671 0.0
C542 C 0.04976 0.50136 0.80795 0.0
C543 C 0.11143 0.47476 0.82581 0.0
O544 O 0.06815 0.51916 0.86997 0.0
O545 O 0.07972 0.49526 0.85635 0.0
O546 O 0.39901 0.5169 0.84887 0.0
Mg547 Mg 0.4304 0.50823 0.85762 0.0
O548 O 0.42903 0.55281 0.83622 0.0
Mg549 Mg 0.47638 0.55852 0.8376 0.0
O550 O 0.45786 0.51216 0.84428 0.0
O551 O 0.43346 0.46992 0.85391 0.0
O552 O 0.52297 0.56348 0.84043 0.0
O553 O 0.47068 0.53781 0.81832 0.0
Mg554 Mg 0.52466 0.60363 0.81931 0.0
O555 O 0.49482 0.60617 0.83054 0.0
O556 O 0.55684 0.59784 0.82857 0.0
O557 O 0.50096 0.57289 0.80569 0.0
O558 O 0.52648 0.64409 0.8193 0.0
C559 C 0.47635 0.56831 0.86765 0.0
C560 C 0.40349 0.53621 0.84092 0.0
C561 C 0.4512 0.48493 0.84538 0.0
C562 C 0.54971 0.57882 0.83682 0.0
C563 C 0.48051 0.54647 0.80776 0.0
C564 C 0.50461 0.63308 0.82674 0.0
O565 O 0.45847 0.54105 0.86991 0.0
O566 O 0.48265 0.57807 0.85695 0.0
O567 O 0.53638 0.80199 0.99213 0.0
Mg568 Mg 0.57616 0.81061 0.98345 0.0
O569 O 0.53282 0.76492 0.00332 0.0
Mg570 Mg 0.57616 0.76194 0.0021 0.0
O571 O 0.60396 0.80976 0.99596 0.0
O572 O 0.61607 0.85027 0.98542 0.0
O573 O 0.61919 0.75808 1.00057 0.0
O574 O 0.58893 0.78035 0.02165 0.0
Mg575 Mg 0.57437 0.71187 0.02107 0.0
O576 O 0.54799 0.71471 0.00854 0.0
O577 O 0.61434 0.72141 0.01238 0.0
O578 O 0.5797 0.7435 0.03427 0.0
O579 O 0.53351 0.67279 0.01825 0.0
C580 C 0.56516 0.75329 0.97195 0.0
C581 C 0.52227 0.78092 0.99947 0.0
C582 C 0.62262 0.83734 0.99371 0.0
C583 C 0.62903 0.74175 0.00479 0.0
C584 C 0.5877 0.77057 0.03223 0.0
C585 C 0.52751 0.68776 0.01071 0.0
O586 O 0.57107 0.77985 0.97023 0.0
O587 O 0.56469 0.74345 0.98247 0.0
O588 O 0.18544 0.73578 0.99054 0.0
Mg589 Mg 0.17343 0.76554 0.98249 0.0
O590 O 0.21933 0.76703 0.00351 0.0
Mg591 Mg 0.22238 0.81319 0.00197 0.0
O592 O 0.17499 0.79226 0.99592 0.0
O593 O 0.13333 0.76484 0.98613 0.0
O594 O 0.2257 0.8593 0.99969 0.0
O595 O 0.20473 0.80838 0.02163 0.0
Mg596 Mg 0.27358 0.86494 0.02009 0.0
O597 O 0.2694 0.83381 0.00823 0.0
O598 O 0.2628 0.89383 0.0106 0.0
O599 O 0.24203 0.8394 0.03346 0.0
O600 O 0.31226 0.86192 0.01702 0.0
C601 C 0.23085 0.81311 0.97177 0.0
C602 C 0.20472 0.74146 0.99862 0.0
C603 C 0.14728 0.78358 0.99453 0.0
C604 C 0.24182 0.88621 0.00312 0.0
C605 C 0.2152 0.81885 0.03197 0.0
C606 C 0.29637 0.84011 0.00996 0.0
O607 O 0.2038 0.79428 0.96967 0.0
O608 O 0.24077 0.81982 0.98243 0.0
O609 O 0.25226 0.4502 0.99491 0.0
Mg610 Mg 0.22441 0.41292 0.9842 0.0
O611 O 0.21596 0.45136 0.00507 0.0
Mg612 Mg 0.17115 0.4067 0.0023 0.0
O613 O 0.19401 0.3826 0.99541 0.0
O614 O 0.22417 0.37254 0.98524 0.0
O615 O 0.12647 0.3624 0.99879 0.0
O616 O 0.17735 0.39154 0.02126 0.0
Mg617 Mg 0.11951 0.3975 0.02075 0.0
O618 O 0.14827 0.43113 0.00976 0.0
O619 O 0.09108 0.35899 0.01089 0.0
O620 O 0.14484 0.39181 0.03407 0.0
O621 O 0.11494 0.43486 0.02076 0.0
C622 C 0.17734 0.42409 0.97281 0.0
C623 C 0.24332 0.46281 0.00216 0.0
C624 C 0.20327 0.36435 0.99301 0.0
C625 C 0.09964 0.34875 0.00249 0.0
C626 C 0.16691 0.3885 0.03179 0.0
C627 C 0.13709 0.44706 0.01348 0.0
O628 O 0.19957 0.4205 0.97127 0.0
O629 O 0.16547 0.42116 0.98309 0.0
O630 O 0.23439 0.40126 0.53234 0.0
Mg631 Mg 0.26787 0.40886 0.51985 0.0
O632 O 0.19913 0.39366 0.51917 0.0
Mg633 Mg 0.22005 0.40651 0.49988 0.0
O634 O 0.26609 0.4363 0.50738 0.0
O635 O 0.30584 0.45093 0.51862 0.0
O636 O 0.2404 0.41758 0.48036 0.0
O637 O 0.21472 0.44848 0.4997 0.0
Mg638 Mg 0.17069 0.39927 0.47894 0.0
O639 O 0.17398 0.37767 0.49314 0.0
O640 O 0.20317 0.40158 0.4673 0.0
O641 O 0.18176 0.44208 0.48553 0.0
O642 O 0.13206 0.35872 0.48321 0.0
C643 C 0.2425 0.35558 0.50325 0.0
C644 C 0.20774 0.39402 0.5299 0.0
C645 C 0.29214 0.45713 0.51054 0.0
C646 C 0.23058 0.41233 0.46961 0.0
C647 C 0.20015 0.45775 0.49362 0.0
C648 C 0.14688 0.35679 0.49201 0.0
O649 O 0.26206 0.37003 0.51112 0.0
O650 O 0.22599 0.36505 0.49898 0.0
O651 O 0.58168 0.83613 0.52975 0.0
Mg652 Mg 0.57306 0.85956 0.51623 0.0
O653 O 0.5889 0.80529 0.51819 0.0
Mg654 Mg 0.57888 0.8123 0.49842 0.0
O655 O 0.54729 0.82796 0.50424 0.0
O656 O 0.53074 0.85407 0.51369 0.0
O657 O 0.56973 0.82207 0.47887 0.0
O658 O 0.53748 0.76422 0.49766 0.0
Mg659 Mg 0.58978 0.77524 0.47773 0.0
O660 O 0.61047 0.79627 0.49296 0.0
O661 O 0.591 0.80674 0.46573 0.0
O662 O 0.5463 0.74154 0.48267 0.0
O663 O 0.62817 0.77384 0.48165 0.0
C664 C 0.62715 0.88671 0.50041 0.0
C665 C 0.58826 0.81578 0.52844 0.0
C666 C 0.52598 0.83331 0.50623 0.0
C667 C 0.57771 0.82092 0.46819 0.0
C668 C 0.52934 0.74175 0.4908 0.0
C669 C 0.63035 0.78875 0.49115 0.0
O670 O 0.61022 0.89239 0.50664 0.0
O671 O 0.6203 0.86006 0.49789 0.0
O672 O 0.15365 0.74629 0.53186 0.0
Mg673 Mg 0.12627 0.71327 0.51936 0.0
O674 O 0.18012 0.78236 0.51877 0.0
Mg675 Mg 0.17153 0.76251 0.49939 0.0
O676 O 0.15416 0.71605 0.50625 0.0
O677 O 0.12891 0.67468 0.51654 0.0
O678 O 0.16184 0.74296 0.4798 0.0
O679 O 0.21843 0.7669 0.49907 0.0
Mg680 Mg 0.21439 0.81203 0.47872 0.0
O681 O 0.1896 0.80898 0.49299 0.0
O682 O 0.184 0.78023 0.46681 0.0
O683 O 0.24576 0.80018 0.48513 0.0
O684 O 0.21335 0.85105 0.48318 0.0
C685 C 0.09838 0.7401 0.50315 0.0
C686 C 0.17271 0.77315 0.52948 0.0
C687 C 0.14828 0.68933 0.50841 0.0
C688 C 0.16669 0.75286 0.46908 0.0
C689 C 0.24248 0.78134 0.49311 0.0
C690 C 0.19633 0.83624 0.49192 0.0
O691 O 0.09397 0.72036 0.51086 0.0
O692 O 0.12422 0.75721 0.49881 0.0
O693 O 0.10542 0.52145 0.35041 0.0
Mg694 Mg 0.06137 0.50728 0.35642 0.0
O695 O 0.11055 0.55268 0.33567 0.0
Mg696 Mg 0.06686 0.55523 0.33531 0.0
O697 O 0.03994 0.5086 0.34174 0.0
O698 O 0.0229 0.46692 0.35175 0.0
O699 O 0.02314 0.55738 0.33641 0.0
O700 O 0.05629 0.53476 0.31585 0.0
Mg701 Mg 0.06456 0.59997 0.31614 0.0
O702 O 0.09501 0.60293 0.32847 0.0
O703 O 0.02428 0.59145 0.32417 0.0
O704 O 0.06117 0.56952 0.30296 0.0
O705 O 0.10256 0.64119 0.31721 0.0
C706 C 0.06962 0.56533 0.36555 0.0
C707 C 0.12078 0.53963 0.3422 0.0
C708 C 0.02025 0.48104 0.34285 0.0
C709 C 0.01136 0.57183 0.33215 0.0
C710 C 0.05637 0.54353 0.30518 0.0
C711 C 0.11242 0.63009 0.32506 0.0
O712 O 0.05948 0.53805 0.368 0.0
O713 O 0.07601 0.57506 0.35482 0.0
O714 O 0.4642 0.58096 0.35075 0.0
Mg715 Mg 0.47472 0.5482 0.35619 0.0
O716 O 0.4321 0.55651 0.33611 0.0
Mg717 Mg 0.42689 0.50894 0.33541 0.0
O718 O 0.47423 0.52601 0.34138 0.0
O719 O 0.51457 0.54943 0.35249 0.0
O720 O 0.42147 0.46168 0.33588 0.0
O721 O 0.44626 0.51776 0.31584 0.0
Mg722 Mg 0.37845 0.46377 0.31588 0.0
O723 O 0.37971 0.49183 0.32887 0.0
O724 O 0.38552 0.43061 0.32374 0.0
O725 O 0.41014 0.4906 0.30292 0.0
O726 O 0.33915 0.46477 0.31818 0.0
C727 C 0.41677 0.50077 0.36567 0.0
C728 C 0.44633 0.57957 0.3427 0.0
C729 C 0.50162 0.53356 0.34322 0.0
C730 C 0.40532 0.43575 0.3315 0.0
C731 C 0.43691 0.51003 0.30516 0.0
C732 C 0.35274 0.48471 0.32626 0.0
O733 O 0.44419 0.51675 0.36803 0.0
O734 O 0.40705 0.49823 0.35498 0.0
O735 O 0.39301 0.87428 0.34402 0.0
Mg736 Mg 0.42315 0.91289 0.35365 0.0
O737 O 0.42677 0.87077 0.33297 0.0
Mg738 Mg 0.473 0.91378 0.33529 0.0
O739 O 0.4527 0.94107 0.34151 0.0
O740 O 0.42431 0.95346 0.35177 0.0
O741 O 0.51943 0.95644 0.33831 0.0
O742 O 0.46977 0.92859 0.31594 0.0
Mg743 Mg 0.52631 0.91578 0.31825 0.0
O744 O 0.49218 0.88621 0.32839 0.0
O745 O 0.55481 0.94976 0.33022 0.0
O746 O 0.50522 0.92797 0.30488 0.0
O747 O 0.52004 0.87253 0.31862 0.0
C748 C 0.46816 0.89991 0.3652 0.0
C749 C 0.40005 0.86047 0.33656 0.0
C750 C 0.44407 0.95999 0.34361 0.0
C751 C 0.5468 0.9645 0.33674 0.0
C752 C 0.48323 0.93217 0.30601 0.0
C753 C 0.49763 0.86543 0.3255 0.0
O754 O 0.44784 0.90626 0.36695 0.0
O755 O 0.47793 0.90006 0.35471 0.0
C756 C 0.13475 0.16197 0.16861 0.0
C757 C 0.11012 0.16614 0.16935 0.0
C758 C 0.13076 0.13345 0.16761 0.0
C759 C 0.1029 0.06906 0.17956 0.0
H760 H 0.10313 0.02769 0.15086 0.0
C761 C 0.12154 0.96591 0.1638 0.0
C762 C 0.15149 0.97861 0.16717 0.0
C763 C 0.10659 0.98189 0.16529 0.0
C764 C 0.10217 0.03848 0.15897 0.0
H765 H 0.06197 0.14395 0.16917 0.0
H766 H 0.05503 0.09351 0.16762 0.0
H767 H 0.09517 0.07041 0.14947 0.0
H768 H 0.18875 0.01661 0.17541 0.0
H769 H 0.16231 0.04387 0.17857 0.0
H770 H 0.11266 0.03902 0.18897 0.0
C771 C 0.07732 0.11256 0.16763 0.0
C772 C 0.09767 0.06286 0.15816 0.0
C773 C 0.08132 0.1413 0.16847 0.0
C774 C 0.16554 0.00629 0.17289 0.0
C775 C 0.15043 0.02184 0.17468 0.0
C776 C 0.10771 0.04496 0.18037 0.0
C777 C 0.10209 0.10855 0.16747 0.0
C778 C 0.09895 0.07882 0.16842 0.0
C779 C 0.12126 0.01035 0.17046 0.0
C780 C 0.10844 0.03014 0.17004 0.0
H781 H 0.15714 0.18074 0.16924 0.0
H782 H 0.15011 0.13071 0.16748 0.0
H783 H 0.10427 0.08135 0.18756 0.0
H784 H 0.11051 0.94481 0.15915 0.0
H785 H 0.08414 0.97268 0.16193 0.0
C786 C -0.00623 0.14315 0.15359 0.0
C787 C 0.00843 0.16482 0.16239 0.0
C788 C 0.9779 0.11312 0.15657 0.0
C789 C 0.93163 0.06926 0.18041 0.0
H790 H 0.92104 0.00258 0.16119 0.0
C791 C 0.82874 0.95513 0.18703 0.0
C792 C 0.81455 0.93871 0.17676 0.0
C793 C 0.85745 0.97942 0.18646 0.0
C794 C 0.92359 0.02096 0.16661 0.0
H795 H 0.01993 0.17236 0.18108 0.0
H796 H -0.00908 0.11934 0.18648 0.0
H797 H 0.96511 0.05159 0.15836 0.0
H798 H 0.81976 0.93384 0.15793 0.0
H799 H 0.86962 0.97766 0.15671 0.0
H800 H 0.88944 0.03982 0.18805 0.0
C801 C -0.00787 0.12573 0.17723 0.0
C802 C 0.94899 0.04891 0.16508 0.0
C803 C 0.00869 0.15593 0.17417 0.0
C804 C 0.83014 0.94636 0.16595 0.0
C805 C 0.85881 0.97129 0.1653 0.0
C806 C 0.90614 0.04154 0.18183 0.0
C807 C 0.97583 0.10417 0.16848 0.0
C808 C 0.95288 0.07348 0.17178 0.0
C809 C 0.87257 0.98853 0.17554 0.0
C810 C 0.90139 0.01711 0.17477 0.0
H811 H -0.00647 0.14954 0.14442 0.0
H812 H 0.9654 0.09713 0.14966 0.0
H813 H 0.93369 0.08789 0.18553 0.0
H814 H 0.81756 0.94921 0.19558 0.0
H815 H 0.86757 0.99136 0.19461 0.0
C816 C 0.04162 0.888 0.16164 0.0
C817 C 0.0489 0.8827 0.17306 0.0
C818 C 0.01636 0.89079 0.15997 0.0
C819 C 0.95836 0.9001 0.17573 0.0
H820 H 0.9042 0.83978 0.15373 0.0
C821 C 0.83191 0.86257 0.16718 0.0
C822 C 0.8138 0.83146 0.16687 0.0
C823 C 0.86288 0.8755 0.16825 0.0
C824 C 0.91916 0.85693 0.15984 0.0
H825 H 0.03747 0.879 0.19179 0.0
H826 H -0.00606 0.8842 0.18893 0.0
H827 H 0.95634 0.85345 0.15388 0.0
H828 H 0.81305 0.78957 0.16861 0.0
H829 H 0.86662 0.81195 0.17074 0.0
H830 H 0.92045 0.9024 0.182 0.0
C831 C 0.00729 0.88593 0.18123 0.0
C832 C 0.94909 0.86502 0.15982 0.0
C833 C 0.03201 0.88256 0.18285 0.0
C834 C 0.82663 0.81361 0.1687 0.0
C835 C 0.85726 0.82639 0.16982 0.0
C836 C 0.9283 0.89217 0.17566 0.0
C837 C -0.00143 0.88905 0.16975 0.0
C838 C 0.96882 0.88591 0.16804 0.0
C839 C 0.87579 0.85733 0.16903 0.0
C840 C 0.90828 0.86966 0.16802 0.0
H841 H 0.05445 0.88841 0.15397 0.0
H842 H 0.01015 0.89326 0.15102 0.0
H843 H 0.97317 0.91641 0.18212 0.0
H844 H 0.82245 0.87675 0.16569 0.0
H845 H 0.87677 0.89945 0.16771 0.0
C846 C 0.15409 0.12716 0.3419 0.0
C847 C 0.1583 0.10572 0.33605 0.0
C848 C 0.12558 0.12322 0.34308 0.0
C849 C 0.06023 0.09762 0.32614 0.0
H850 H 0.02577 0.10973 0.35474 0.0
C851 C 0.95923 0.12031 0.34048 0.0
C852 C 0.97234 0.15056 0.3375 0.0
C853 C 0.97541 0.10551 0.33919 0.0
C854 C 0.03476 0.10566 0.34671 0.0
H855 H 0.13649 0.06333 0.32696 0.0
H856 H 0.08639 0.05679 0.32869 0.0
H857 H 0.06777 0.10083 0.35636 0.0
H858 H 0.01128 0.18853 0.33011 0.0
H859 H 0.03893 0.16228 0.32728 0.0
H860 H 0.0291 0.10543 0.31646 0.0
C861 C 0.10504 0.07616 0.33265 0.0
C862 C 0.05878 0.10072 0.34764 0.0
C863 C 0.13354 0.07976 0.33175 0.0
C864 C 0.00068 0.1651 0.33232 0.0
C865 C 0.01645 0.15014 0.33072 0.0
C866 C 0.03666 0.10328 0.32521 0.0
C867 C 0.10096 0.09819 0.33811 0.0
C868 C 0.07216 0.09738 0.33735 0.0
C869 C 0.00443 0.12064 0.33459 0.0
C870 C 0.02422 0.10798 0.33548 0.0
H871 H 0.173 0.14757 0.34508 0.0
H872 H 0.12301 0.14068 0.34718 0.0
H873 H 0.07047 0.0955 0.31808 0.0
H874 H 0.9376 0.10888 0.3447 0.0
H875 H 0.96589 0.0828 0.34231 0.0
C876 C 0.80589 0.82524 0.33596 0.0
C877 C 0.82334 0.81306 0.3396 0.0
C878 C 0.81911 0.8553 0.33306 0.0
C879 C 0.88027 0.92637 0.34146 0.0
H880 H 0.85343 0.95407 0.31474 0.0
C881 C 0.87371 0.03468 0.34137 0.0
C882 C 0.87627 0.04856 0.33037 0.0
C883 C 0.87609 0.00894 0.34195 0.0
C884 C 0.86173 0.94699 0.32216 0.0
H885 H 0.86822 0.82236 0.34295 0.0
H886 H 0.89158 0.87556 0.33804 0.0
H887 H 0.84106 0.9024 0.31556 0.0
H888 H 0.88634 0.04878 0.31166 0.0
H889 H 0.8916 0.00481 0.31271 0.0
H890 H 0.89995 0.97088 0.34829 0.0
C891 C 0.86769 0.86161 0.33726 0.0
C892 C 0.85443 0.91728 0.32264 0.0
C893 C 0.85441 0.8312 0.33992 0.0
C894 C 0.88376 0.03804 0.32021 0.0
C895 C 0.88665 0.01281 0.32081 0.0
C896 C 0.88745 0.95623 0.34103 0.0
C897 C 0.85003 0.87397 0.334 0.0
C898 C 0.86288 0.90646 0.33244 0.0
C899 C 0.88142 -0.00292 0.33155 0.0
C900 C 0.87763 0.9667 0.33149 0.0
H901 H 0.78188 0.81168 0.33575 0.0
H902 H 0.80494 0.86427 0.33068 0.0
H903 H 0.88687 0.9185 0.34917 0.0
H904 H 0.86798 0.04254 0.34932 0.0
H905 H 0.87185 -0.00267 0.35037 0.0
C906 C 0.95052 0.82824 0.34343 0.0
C907 C 0.93146 0.82411 0.33392 0.0
C908 C 0.97659 0.85556 0.34495 0.0
C909 C 0.03009 0.91928 0.32695 0.0
H910 H 0.06857 0.94668 0.35759 0.0
C911 C 0.15449 0.01361 0.335 0.0
C912 C 0.1696 0.00272 0.34191 0.0
C913 C 0.1235 -0.00344 0.33356 0.0
C914 C 0.05794 0.93949 0.34897 0.0
H915 H 0.92328 0.84508 0.31889 0.0
H916 H 0.96843 0.89331 0.32172 0.0
H917 H 0.01603 0.90893 0.35677 0.0
H918 H 0.16415 0.96485 0.3522 0.0
H919 H 0.11076 0.93576 0.34978 0.0
H920 H 0.07253 0.94954 0.31923 0.0
C921 C 0.96373 0.87545 0.32789 0.0
C922 C 0.02794 0.91775 0.34849 0.0
C923 C 0.9378 0.84801 0.32633 0.0
C924 C 0.15333 0.97416 0.34692 0.0
C925 C 0.12265 0.95748 0.34561 0.0
C926 C 0.06013 0.94132 0.32744 0.0
C927 C 0.98397 0.87927 0.33699 0.0
C928 C 0.01393 0.90644 0.33748 0.0
C929 C 0.10734 0.96869 0.33915 0.0
C930 C 0.07455 0.95069 0.33846 0.0
H931 H 0.94616 0.80985 0.34925 0.0
H932 H -0.00822 0.85744 0.35195 0.0
H933 H 0.02015 0.91101 0.3183 0.0
H934 H 0.16645 0.03547 0.33098 0.0
H935 H 0.11208 0.00547 0.32842 0.0
C936 C 0.84491 0.81841 0.81552 0.0
C937 C 0.85694 0.80942 0.82477 0.0
C938 C 0.84719 0.8463 0.81571 0.0
C939 C 0.88699 0.92066 0.83027 0.0
H940 H 0.81865 0.92518 0.8192 0.0
C941 C 0.85568 0.00729 0.84492 0.0
C942 C 0.84161 0.01664 0.83675 0.0
C943 C 0.86504 0.98752 0.84145 0.0
C944 C 0.83821 0.9245 0.82207 0.0
H945 H 0.88095 0.82294 0.84149 0.0
H946 H 0.88387 0.8714 0.84209 0.0
H947 H 0.81833 0.87841 0.81788 0.0
H948 H 0.82782 0.01449 0.81844 0.0
H949 H 0.84375 0.97917 0.81231 0.0
H950 H 0.90596 0.96662 0.83509 0.0
C951 C 0.87327 0.85703 0.83452 0.0
C952 C 0.83803 0.89759 0.82135 0.0
C953 C 0.87133 0.82911 0.83426 0.0
C954 C 0.83895 0.00774 0.82482 0.0
C955 C 0.84784 0.98743 0.82137 0.0
C956 C 0.88699 0.94756 0.83112 0.0
C957 C 0.86117 0.86594 0.82524 0.0
C958 C 0.86224 0.89516 0.82557 0.0
C959 C 0.85985 0.97623 0.8298 0.0
C960 C 0.86241 0.94962 0.82716 0.0
H961 H 0.83408 0.80408 0.80795 0.0
H962 H 0.83818 0.85252 0.80827 0.0
H963 H 0.90626 0.9198 0.83339 0.0
H964 H 0.85768 0.01379 0.85419 0.0
H965 H 0.87398 0.97915 0.84815 0.0
C966 C 0.15294 0.03971 0.83562 0.0
C967 C 0.17143 0.04459 0.82574 0.0
C968 C 0.12424 0.01478 0.836 0.0
C969 C 0.07946 0.94041 0.82178 0.0
H970 H 0.0145 0.93952 0.83909 0.0
C971 C 0.97002 0.8319 0.82688 0.0
C972 C 0.96542 0.82432 0.83898 0.0
C973 C 0.9889 0.86154 0.8235 0.0
C974 C 0.03237 0.93963 0.83408 0.0
H975 H 0.17364 0.02799 0.80825 0.0
H976 H 0.12387 0.98573 0.8087 0.0
H977 H 0.06149 0.98633 0.83679 0.0
H978 H 0.97384 0.84145 0.85698 0.0
H979 H 0.00588 0.89317 0.85112 0.0
H980 H 0.05054 0.8938 0.81917 0.0
C981 C 0.13164 0.00016 0.81641 0.0
C982 C 0.05942 0.96632 0.83289 0.0
C983 C 0.16033 0.02458 0.81614 0.0
C984 C 0.9772 0.84691 0.84759 0.0
C985 C -0.00459 0.8765 0.84422 0.0
C986 C 0.05239 0.91399 0.82279 0.0
C987 C 0.1133 -0.00547 0.82641 0.0
C988 C 0.08357 0.96692 0.82695 0.0
C989 C 0.00276 0.88389 0.8322 0.0
C990 C 0.02879 0.91314 0.82918 0.0
H991 H 0.16075 0.05489 0.84311 0.0
H992 H 0.11095 0.01109 0.84391 0.0
H993 H 0.09756 0.93961 0.81736 0.0
H994 H 0.9612 0.81473 0.82012 0.0
H995 H -0.00584 0.86673 0.81416 0.0
C996 C 0.94401 0.11032 0.83466 0.0
C997 C 0.94081 0.12755 0.82575 0.0
C998 C 0.9695 0.10748 0.83504 0.0
C999 C 0.04715 0.14494 0.8236 0.0
H1000 H 0.04607 0.07339 0.83425 0.0
C1001 C 0.15496 0.14323 0.82461 0.0
C1002 C 0.16169 0.13955 0.83634 0.0
C1003 C 0.12549 0.13357 0.82138 0.0
C1004 C 0.04654 0.09336 0.83113 0.0
H1005 H 0.96146 0.15431 0.80998 0.0
H1006 H 0.00469 0.14861 0.81041 0.0
H1007 H -0.00062 0.07428 0.83304 0.0
H1008 H 0.14339 0.12046 0.85355 0.0
H1009 H 0.09189 0.10292 0.84787 0.0
H1010 H 0.09408 0.16408 0.82174 0.0
C1011 C 0.98833 0.13814 0.8174 0.0
C1012 C 0.01991 0.09403 0.83057 0.0
C1013 C 0.96332 0.14134 0.81714 0.0
C1014 C 0.13851 0.12327 0.84442 0.0
C1015 C 0.10907 0.11323 0.84116 0.0
C1016 C 0.07349 0.14408 0.82397 0.0
C1017 C -0.00793 0.12154 0.82642 0.0
C1018 C 0.01995 0.11998 0.82688 0.0
C1019 C 0.1025 0.11994 0.82984 0.0
C1020 C 0.07359 0.11845 0.82784 0.0
H1021 H 0.92696 0.09918 0.84136 0.0
H1022 H 0.9717 0.0947 0.84217 0.0
H1023 H 0.04835 0.16561 0.82103 0.0
H1024 H 0.1726 0.15605 0.81832 0.0
H1025 H 0.12095 0.13882 0.81257 0.0
C1026 C 0.82002 0.85673 0.68517 0.0
C1027 C 0.80923 0.86591 0.67554 0.0
C1028 C 0.8479 0.85916 0.68469 0.0
C1029 C 0.91929 0.89284 0.66791 0.0
H1030 H 0.92266 0.82575 0.68134 0.0
C1031 C -0.00099 0.85171 0.65393 0.0
C1032 C 0.00881 0.83915 0.66261 0.0
C1033 C 0.98122 0.86368 0.65711 0.0
C1034 C 0.92237 0.84501 0.6778 0.0
H1035 H 0.81982 0.88581 0.65797 0.0
H1036 H 0.86843 0.88893 0.65689 0.0
H1037 H 0.87735 0.82793 0.68305 0.0
H1038 H 0.00983 0.83094 0.68143 0.0
H1039 H 0.97779 0.85126 0.68704 0.0
H1040 H 0.96407 0.90871 0.66201 0.0
C1041 C 0.85537 0.88033 0.66493 0.0
C1042 C 0.89629 0.84628 0.67875 0.0
C1043 C 0.82742 0.8783 0.66549 0.0
C1044 C 0.00259 0.84073 0.67463 0.0
C1045 C 0.9842 0.85219 0.6778 0.0
C1046 C 0.94537 0.89133 0.66682 0.0
C1047 C 0.86574 0.87035 0.67449 0.0
C1048 C 0.89424 0.87006 0.67375 0.0
C1049 C 0.97236 0.86261 0.66898 0.0
C1050 C 0.94702 0.86723 0.67166 0.0
H1051 H 0.80697 0.84774 0.69319 0.0
H1052 H 0.8554 0.8521 0.69237 0.0
H1053 H 0.91868 0.91168 0.66411 0.0
H1054 H 0.00359 0.85059 0.64459 0.0
H1055 H 0.97231 0.87136 0.65012 0.0
C1056 C 0.17449 0.15783 0.65869 0.0
C1057 C 0.15937 0.17301 0.66168 0.0
C1058 C 0.16004 0.12697 0.65899 0.0
C1059 C 0.10227 0.05939 0.67145 0.0
H1060 H 0.11543 0.0265 0.64257 0.0
C1061 C 0.08105 0.93791 0.6669 0.0
C1062 C 0.10894 0.94011 0.66539 0.0
C1063 C 0.0779 0.96296 0.66519 0.0
C1064 C 0.11097 0.03519 0.65059 0.0
H1065 H 0.11773 0.16769 0.66817 0.0
H1066 H 0.0922 0.11288 0.66886 0.0
H1067 H 0.12729 0.07828 0.64293 0.0
H1068 H 0.15485 0.9692 0.66043 0.0
H1069 H 0.14907 0.0124 0.65685 0.0
H1070 H 0.08773 0.01652 0.67929 0.0
C1071 C 0.11526 0.12531 0.66611 0.0
C1072 C 0.11783 0.06477 0.65082 0.0
C1073 C 0.12984 0.15656 0.66575 0.0
C1074 C 0.13312 0.967 0.66153 0.0
C1075 C 0.12979 0.99163 0.6595 0.0
C1076 C 0.09524 0.02956 0.67119 0.0
C1077 C 0.13008 0.11035 0.66233 0.0
C1078 C 0.11504 0.07756 0.66142 0.0
C1079 C 0.10241 0.99009 0.66161 0.0
C1080 C 0.10097 0.01776 0.66092 0.0
H1081 H 0.19739 0.16974 0.65571 0.0
H1082 H 0.17221 0.11598 0.65635 0.0
H1083 H 0.09999 0.0688 0.67971 0.0
H1084 H 0.06221 0.9174 0.67005 0.0
H1085 H 0.05663 0.96136 0.66691 0.0
C1086 C 0.83342 0.96239 0.66529 0.0
C1087 C 0.8167 0.97688 0.66486 0.0
C1088 C 0.86444 0.97905 0.66669 0.0
C1089 C 0.924 0.04146 0.65605 0.0
H1090 H 0.9701 0.0724 0.68499 0.0
C1091 C 0.02267 0.15945 0.66111 0.0
C1092 C 0.04749 0.16401 0.66769 0.0
C1093 C -0.00181 0.13086 0.65988 0.0
C1094 C 0.95776 0.06346 0.67681 0.0
H1095 H 0.81855 0.01933 0.66651 0.0
H1096 H 0.87228 0.04806 0.66926 0.0
H1097 H 0.91884 0.03071 0.68609 0.0
H1098 H 0.06665 0.14275 0.67813 0.0
H1099 H 0.02345 0.09252 0.67615 0.0
H1100 H 0.96182 0.07567 0.64684 0.0
C1101 C 0.86163 0.0241 0.66837 0.0
C1102 C 0.92853 0.03963 0.67746 0.0
C1103 C 0.83097 0.00768 0.6668 0.0
C1104 C 0.04794 0.13952 0.67276 0.0
C1105 C 0.02319 0.11093 0.67173 0.0
C1106 C 0.95302 0.06545 0.65541 0.0
C1107 C 0.87869 0.01012 0.6679 0.0
C1108 C 0.91124 0.02906 0.66711 0.0
C1109 C -0.00217 0.10644 0.66548 0.0
C1110 C 0.96983 0.07735 0.66583 0.0
H1111 H 0.82289 0.9387 0.66368 0.0
H1112 H 0.87736 0.96795 0.66623 0.0
H1113 H 0.9108 0.03386 0.64799 0.0
H1114 H 0.02173 0.17817 0.65734 0.0
H1115 H 0.9788 0.12813 0.65516 0.0
C1116 C 0.80352 0.31573 0.50717 0.0
C1117 C 0.80262 0.30289 0.4961 0.0
C1118 C 0.78958 0.33266 0.50864 0.0
C1119 C 0.771 0.37933 0.49003 0.0
H1120 H 0.74409 0.39426 0.52004 0.0
C1121 C 0.75597 0.48184 0.49752 0.0
C1122 C 0.77171 0.49839 0.50758 0.0
C1123 C 0.75109 0.45295 0.49576 0.0
C1124 C 0.75134 0.39018 0.51156 0.0
H1125 H 0.78493 0.29543 0.47821 0.0
H1126 H 0.7596 0.32391 0.48087 0.0
H1127 H 0.74974 0.35052 0.51795 0.0
H1128 H 0.79355 0.49695 0.52388 0.0
H1129 H 0.78503 0.44722 0.52082 0.0
H1130 H 0.77366 0.41959 0.48381 0.0
C1131 C 0.77154 0.32169 0.48834 0.0
C1132 C 0.75469 0.3652 0.51038 0.0
C1133 C 0.78573 0.30512 0.48684 0.0
C1134 C 0.78161 0.4851 0.51596 0.0
C1135 C 0.7764 0.45633 0.51429 0.0
C1136 C 0.76752 0.40421 0.4912 0.0
C1137 C 0.7745 0.3369 0.49906 0.0
C1138 C 0.76558 0.36004 0.49973 0.0
C1139 C 0.76133 0.43997 0.50415 0.0
C1140 C 0.75874 0.4105 0.50212 0.0
H1141 H 0.81685 0.3146 0.51435 0.0
H1142 H 0.79256 0.3442 0.517 0.0
H1143 H 0.7798 0.37636 0.48173 0.0
H1144 H 0.74785 0.49133 0.49095 0.0
H1145 H 0.7394 0.44079 0.48785 0.0
C1146 C 0.51289 0.2716 0.50864 0.0
C1147 C 0.48742 0.26856 0.50299 0.0
C1148 C 0.54037 0.29759 0.50713 0.0
C1149 C 0.57958 0.36618 0.48878 0.0
H1150 H 0.61848 0.40474 0.51835 0.0
C1151 C 0.63688 0.4903 0.49432 0.0
C1152 C 0.66713 0.50571 0.49742 0.0
C1153 C 0.62021 0.45954 0.49536 0.0
C1154 C 0.60829 0.39398 0.51001 0.0
H1155 H 0.47028 0.28923 0.49117 0.0
H1156 H 0.51812 0.33451 0.48839 0.0
H1157 H 0.5794 0.35226 0.51848 0.0
H1158 H 0.70313 0.50102 0.50483 0.0
H1159 H 0.67332 0.4465 0.50687 0.0
H1160 H 0.60704 0.40836 0.48047 0.0
C1161 C 0.51725 0.31689 0.49385 0.0
C1162 C 0.58595 0.36397 0.51006 0.0
C1163 C 0.48984 0.29106 0.49543 0.0
C1164 C 0.67988 0.48974 0.50235 0.0
C1165 C 0.66294 0.45864 0.50348 0.0
C1166 C 0.60168 0.39606 0.48876 0.0
C1167 C 0.5427 0.3208 0.49991 0.0
C1168 C 0.57051 0.35015 0.49951 0.0
C1169 C 0.63322 0.44333 0.49961 0.0
C1170 C 0.61535 0.41051 0.49943 0.0
H1171 H 0.51125 0.25447 0.51463 0.0
H1172 H 0.55958 0.29988 0.51186 0.0
H1173 H 0.56855 0.35601 0.48048 0.0
H1174 H 0.62621 0.50188 0.49064 0.0
H1175 H 0.59715 0.44825 0.49256 0.0
C1176 C 0.49127 0.17809 0.50577 0.0
C1177 C 0.48235 0.16873 0.49402 0.0
C1178 C 0.5214 0.19126 0.50888 0.0
C1179 C 0.59814 0.22421 0.49704 0.0
H1180 H 0.60609 0.17214 0.51957 0.0
C1181 C 0.70156 0.20946 0.49832 0.0
C1182 C 0.7089 0.20116 0.50914 0.0
C1183 C 0.67614 0.21231 0.49752 0.0
C1184 C 0.60469 0.18756 0.51348 0.0
H1185 H 0.49757 0.16835 0.4761 0.0
H1186 H 0.5499 0.19196 0.48142 0.0
H1187 H 0.55824 0.16874 0.51695 0.0
H1188 H 0.69696 0.19181 0.52779 0.0
H1189 H 0.65397 0.19809 0.52655 0.0
H1190 H 0.64457 0.24279 0.49344 0.0
C1191 C 0.53394 0.18888 0.48828 0.0
C1192 C 0.5771 0.18556 0.51201 0.0
C1193 C 0.50397 0.17512 0.48526 0.0
C1194 C 0.69137 0.19734 0.51923 0.0
C1195 C 0.66658 0.20088 0.51851 0.0
C1196 C 0.62597 0.22659 0.49866 0.0
C1197 C 0.54285 0.19593 0.50018 0.0
C1198 C 0.57333 0.20323 0.50354 0.0
C1199 C 0.65805 0.20759 0.50759 0.0
C1200 C 0.62943 0.20769 0.50667 0.0
H1201 H 0.4749 0.17343 0.51265 0.0
H1202 H 0.52778 0.19656 0.51813 0.0
H1203 H 0.59575 0.23809 0.49044 0.0
H1204 H 0.71489 0.21284 0.49044 0.0
H1205 H 0.67024 0.21728 0.48892 0.0
C1206 C 0.81719 0.44763 0.6753 0.0
C1207 C 0.82856 0.44322 0.66467 0.0
C1208 C 0.78849 0.44385 0.67553 0.0
C1209 C 0.73692 0.44898 0.65459 0.0
H1210 H 0.68526 0.42743 0.68213 0.0
C1211 C 0.66825 0.50263 0.66641 0.0
C1212 C 0.63977 0.4855 0.67125 0.0
C1213 C 0.6851 0.48951 0.66345 0.0
C1214 C 0.69911 0.43289 0.67427 0.0
H1215 H 0.81855 0.42886 0.64633 0.0
H1216 H 0.76835 0.42124 0.6468 0.0
H1217 H 0.72679 0.4177 0.68215 0.0
H1218 H 0.60582 0.44118 0.67645 0.0
H1219 H 0.63583 0.41803 0.6715 0.0
H1220 H 0.71008 0.46526 0.64693 0.0
C1221 C 0.78163 0.42865 0.65484 0.0
C1222 C 0.72311 0.4277 0.67435 0.0
C1223 C 0.8103 0.43292 0.65457 0.0
C1224 C 0.62763 0.45467 0.67253 0.0
C1225 C 0.64484 0.44154 0.66983 0.0
C1226 C 0.71312 0.45425 0.65455 0.0
C1227 C 0.77076 0.43522 0.66516 0.0
C1228 C 0.74279 0.43649 0.66463 0.0
C1229 C 0.67404 0.45908 0.66556 0.0
C1230 C 0.69457 0.44717 0.66453 0.0
H1231 H 0.83098 0.45548 0.6832 0.0
H1232 H 0.78088 0.44926 0.68362 0.0
H1233 H 0.75172 0.45635 0.64699 0.0
H1234 H 0.67807 0.5265 0.66549 0.0
H1235 H 0.70761 0.50363 0.66029 0.0
C1236 C 0.48436 0.16556 0.66782 0.0
C1237 C 0.50224 0.1543 0.67189 0.0
C1238 C 0.49707 0.19515 0.66435 0.0
C1239 C 0.55729 0.26705 0.67219 0.0
H1240 H 0.52546 0.29144 0.64611 0.0
C1241 C 0.54261 0.37029 0.67374 0.0
C1242 C 0.54205 0.38346 0.66292 0.0
C1243 C 0.54713 0.34581 0.67378 0.0
C1244 C 0.53526 0.28542 0.65332 0.0
H1245 H 0.54736 0.16437 0.67524 0.0
H1246 H 0.56995 0.21703 0.66935 0.0
H1247 H 0.51679 0.24108 0.64668 0.0
H1248 H 0.54894 0.38401 0.64389 0.0
H1249 H 0.55815 0.3425 0.64398 0.0
H1250 H 0.57493 0.31127 0.67906 0.0
C1251 C 0.54609 0.2027 0.6687 0.0
C1252 C 0.53007 0.2564 0.65366 0.0
C1253 C 0.53327 0.17266 0.67194 0.0
C1254 C 0.5485 0.3736 0.65232 0.0
C1255 C 0.55371 0.34979 0.65238 0.0
C1256 C 0.56255 0.29627 0.67186 0.0
C1257 C 0.52795 0.21429 0.66511 0.0
C1258 C 0.54 0.24657 0.66331 0.0
C1259 C 0.55174 0.33467 0.66302 0.0
C1260 C 0.55072 0.3055 0.66261 0.0
H1261 H 0.46035 0.15177 0.66785 0.0
H1262 H 0.4825 0.20351 0.66178 0.0
H1263 H 0.56506 0.25996 0.67979 0.0
H1264 H 0.53794 0.37781 0.68203 0.0
H1265 H 0.54534 0.33468 0.68215 0.0
C1266 C 0.82035 0.34418 0.66332 0.0
C1267 C 0.82744 0.34694 0.67547 0.0
C1268 C 0.79064 0.32691 0.6597 0.0
C1269 C 0.71218 0.28588 0.67031 0.0
H1270 H 0.70716 0.22152 0.65116 0.0
C1271 C 0.61033 0.16654 0.67152 0.0
C1272 C 0.60376 0.14888 0.66126 0.0
C1273 C 0.63544 0.19514 0.6718 0.0
C1274 C 0.7078 0.23949 0.65628 0.0
H1275 H 0.80958 0.33684 0.69336 0.0
H1276 H 0.758 0.30751 0.68711 0.0
H1277 H 0.75448 0.26686 0.65333 0.0
H1278 H 0.61703 0.14818 0.64298 0.0
H1279 H 0.65964 0.19783 0.64333 0.0
H1280 H 0.66548 0.25811 0.67348 0.0
C1281 C 0.77498 0.31819 0.68034 0.0
C1282 C 0.73507 0.26562 0.65748 0.0
C1283 C 0.80452 0.33479 0.68393 0.0
C1284 C 0.62193 0.16084 0.65117 0.0
C1285 C 0.64649 0.18942 0.65136 0.0
C1286 C 0.68469 0.25979 0.66899 0.0
C1287 C 0.76782 0.31287 0.66821 0.0
C1288 C 0.73777 0.28873 0.6648 0.0
C1289 C 0.65409 0.20676 0.66175 0.0
C1290 C 0.68234 0.2359 0.66222 0.0
H1291 H 0.83779 0.3534 0.65667 0.0
H1292 H 0.78566 0.32321 0.65028 0.0
H1293 H 0.71366 0.30344 0.67599 0.0
H1294 H 0.59652 0.15801 0.67938 0.0
H1295 H 0.64067 0.20772 0.68 0.0
C1296 C 0.53652 0.16767 0.14819 0.0
C1297 C 0.53926 0.15372 0.15845 0.0
C1298 C 0.53948 0.19582 0.14882 0.0
C1299 C 0.56171 0.26138 0.16871 0.0
H1300 H 0.50336 0.26924 0.14991 0.0
C1301 C 0.50967 0.33174 0.18167 0.0
C1302 C 0.50247 0.3462 0.17284 0.0
C1303 C 0.52311 0.3152 0.17868 0.0
C1304 C 0.5203 0.26778 0.15501 0.0
H1305 H 0.54871 0.15896 0.17734 0.0
H1306 H 0.55252 0.20784 0.17862 0.0
H1307 H 0.5087 0.22578 0.14739 0.0
H1308 H 0.50505 0.3563 0.15403 0.0
H1309 H 0.52789 0.32622 0.14864 0.0
H1310 H 0.5717 0.30273 0.17687 0.0
C1311 C 0.54868 0.19723 0.17 0.0
C1312 C 0.5234 0.24277 0.15359 0.0
C1313 C 0.54627 0.16911 0.16931 0.0
C1314 C 0.51048 0.34532 0.16098 0.0
C1315 C 0.52341 0.3281 0.15792 0.0
C1316 C 0.55834 0.2863 0.17023 0.0
C1317 C 0.54467 0.21066 0.15978 0.0
C1318 C 0.54371 0.23887 0.16059 0.0
C1319 C 0.52911 0.31225 0.16673 0.0
C1320 C 0.53712 0.2894 0.16357 0.0
H1321 H 0.53188 0.15672 0.1396 0.0
H1322 H 0.53722 0.20574 0.14069 0.0
H1323 H 0.578 0.25949 0.17409 0.0
H1324 H 0.50384 0.33228 0.19089 0.0
H1325 H 0.52693 0.30307 0.18565 0.0
C1326 C 0.8175 0.37155 0.14872 0.0
C1327 C 0.83346 0.38318 0.15933 0.0
C1328 C 0.78916 0.34663 0.14889 0.0
C1329 C 0.7271 0.29378 0.1686 0.0
H1330 H 0.71785 0.23772 0.14383 0.0
C1331 C 0.63074 0.17081 0.16849 0.0
C1332 C 0.64239 0.15156 0.16832 0.0
C1333 C 0.64891 0.20089 0.16545 0.0
C1334 C 0.71988 0.25324 0.15072 0.0
H1335 H 0.83175 0.37901 0.17852 0.0
H1336 H 0.7825 0.33397 0.17884 0.0
H1337 H 0.75997 0.2878 0.14325 0.0
H1338 H 0.68095 0.14761 0.16423 0.0
H1339 H 0.71216 0.19939 0.15858 0.0
H1340 H 0.68775 0.25796 0.17645 0.0
C1341 C 0.79167 0.34462 0.17038 0.0
C1342 C 0.74397 0.28212 0.15037 0.0
C1343 C 0.81996 0.3702 0.17022 0.0
C1344 C 0.67151 0.16209 0.16434 0.0
C1345 C 0.68932 0.19173 0.16109 0.0
C1346 C 0.70291 0.26466 0.16897 0.0
C1347 C 0.77626 0.3321 0.15965 0.0
C1348 C 0.74841 0.3026 0.15946 0.0
C1349 C 0.6786 0.21169 0.16196 0.0
C1350 C 0.69969 0.24386 0.16023 0.0
H1351 H 0.82705 0.38172 0.14022 0.0
H1352 H 0.77766 0.33833 0.1405 0.0
H1353 H 0.72955 0.30908 0.17564 0.0
H1354 H 0.6084 0.16312 0.1717 0.0
H1355 H 0.64011 0.21583 0.16617 0.0
C1356 C 0.80831 0.46259 0.18565 0.0
C1357 C 0.82898 0.4775 0.17656 0.0
C1358 C 0.77799 0.45056 0.18358 0.0
C1359 C 0.72107 0.4364 0.16021 0.0
H1360 H 0.68465 0.45668 0.18597 0.0
C1361 C 0.62549 0.46033 0.15362 0.0
C1362 C 0.60233 0.44968 0.16203 0.0
C1363 C 0.64995 0.45654 0.15535 0.0
C1364 C 0.69421 0.4503 0.17878 0.0
H1365 H 0.83459 0.49027 0.15801 0.0
H1366 H 0.78141 0.47017 0.15437 0.0
H1367 H 0.73352 0.46233 0.18876 0.0
H1368 H 0.58647 0.42602 0.17875 0.0
H1369 H 0.62995 0.42009 0.18195 0.0
H1370 H 0.68209 0.426 0.15005 0.0
C1371 C 0.78842 0.46702 0.16306 0.0
C1372 C 0.7223 0.45346 0.18037 0.0
C1373 C 0.81888 0.47859 0.16511 0.0
C1374 C 0.60404 0.43468 0.17216 0.0
C1375 C 0.62886 0.43125 0.17398 0.0
C1376 C 0.69303 0.43351 0.15859 0.0
C1377 C 0.76773 0.45394 0.17243 0.0
C1378 C 0.73638 0.44709 0.17104 0.0
C1379 C 0.65209 0.44226 0.16559 0.0
C1380 C 0.67962 0.44103 0.16779 0.0
H1381 H 0.81574 0.46143 0.19455 0.0
H1382 H 0.76272 0.43986 0.19089 0.0
H1383 H 0.73098 0.43083 0.1529 0.0
H1384 H 0.62481 0.4717 0.14564 0.0
H1385 H 0.66765 0.46561 0.14882 0.0
C1386 C 0.6774 0.19441 0.98547 0.0
C1387 C 0.67815 0.17509 0.99401 0.0
C1388 C 0.66018 0.20777 0.98735 0.0
C1389 C 0.61325 0.21882 0.0096 0.0
H1390 H 0.56282 0.20671 0.98222 0.0
C1391 C 0.49369 0.19368 0.01388 0.0
C1392 C 0.48197 0.20589 0.00581 0.0
C1393 C 0.52224 0.1982 0.01242 0.0
C1394 C 0.57709 0.21092 0.98987 0.0
H1395 H 0.663 0.15547 0.01139 0.0
H1396 H 0.63244 0.1785 0.01473 0.0
H1397 H 0.6061 0.20064 0.98013 0.0
H1398 H 0.4915 0.23289 0.98991 0.0
H1399 H 0.54171 0.24031 0.9872 0.0
H1400 H 0.58319 0.2276 0.01945 0.0
C1401 C 0.64556 0.18393 0.00666 0.0
C1402 C 0.60197 0.20746 0.98869 0.0
C1403 C 0.66301 0.1707 0.00479 0.0
C1404 C 0.4998 0.22306 0.99625 0.0
C1405 C 0.5285 0.22733 0.99471 0.0
C1406 C 0.58831 0.22221 0.01078 0.0
C1407 C 0.643 0.20165 0.99774 0.0
C1408 C 0.61981 0.21042 0.99863 0.0
C1409 C 0.53997 0.21491 0.00281 0.0
C1410 C 0.5694 0.21727 1.00102 0.0
H1411 H 0.68885 0.19786 0.97705 0.0
H1412 H 0.65917 0.22172 0.98041 0.0
H1413 H 0.62682 0.22182 0.01737 0.0
H1414 H 0.48079 0.1805 0.02141 0.0
H1415 H 0.53016 0.18786 0.01869 0.0
C1416 C 0.77118 0.2869 0.01567 0.0
C1417 C 0.77347 0.27268 0.00543 0.0
C1418 C 0.76716 0.31138 0.01474 0.0
C1419 C 0.75286 0.35808 0.99331 0.0
H1420 H 0.80194 0.42042 0.01572 0.0
C1421 C 0.81262 0.48281 0.98375 0.0
C1422 C 0.81539 0.50274 0.99276 0.0
C1423 C 0.79718 0.45227 0.9858 0.0
C1424 C 0.7875 0.40306 0.00958 0.0
H1425 H 0.77172 0.27171 0.98619 0.0
H1426 H 0.76642 0.31591 0.98445 0.0
H1427 H 0.7956 0.37126 0.01814 0.0
H1428 H 0.80278 0.50663 0.01075 0.0
H1429 H 0.77657 0.45271 0.01459 0.0
H1430 H 0.74692 0.39117 0.98426 0.0
C1431 C 0.76697 0.30768 0.99324 0.0
C1432 C 0.78381 0.37472 0.01094 0.0
C1433 C 0.77026 0.28252 0.9942 0.0
C1434 C 0.80098 0.4916 0.00369 0.0
C1435 C 0.78605 0.46088 0.00587 0.0
C1436 C 0.75694 0.38667 0.99186 0.0
C1437 C 0.76616 0.32289 0.00353 0.0
C1438 C 0.76699 0.35197 0.00269 0.0
C1439 C 0.78472 0.44104 0.99702 0.0
C1440 C 0.77489 0.40959 0.99983 0.0
H1441 H 0.77278 0.27921 0.02446 0.0
H1442 H 0.76556 0.32171 0.02286 0.0
H1443 H 0.73928 0.34103 0.98692 0.0
H1444 H 0.82331 0.49092 0.97519 0.0
H1445 H 0.79678 0.43759 0.97886 0.0
C1446 C 0.49628 0.30116 0.9988 0.0
C1447 C 0.47898 0.31429 0.99606 0.0
C1448 C 0.52742 0.31877 0.99945 0.0
C1449 C 0.585 0.38475 0.98536 0.0
H1450 H 0.63737 0.40133 0.0124 0.0
C1451 C 0.68594 0.49735 0.99401 0.0
C1452 C 0.71253 0.49971 0.99805 0.0
C1453 C 0.66087 0.46952 0.99227 0.0
C1454 C 0.62317 0.39632 0.00467 0.0
H1455 H 0.48023 0.35614 0.99302 0.0
H1456 H 0.53399 0.38651 0.99424 0.0
H1457 H 0.58533 0.36089 0.0136 0.0
H1458 H 0.73424 0.47514 0.00331 0.0
H1459 H 0.68966 0.42587 1.00054 0.0
H1460 H 0.62192 0.42111 0.97666 0.0
C1461 C 0.52376 0.36273 0.99563 0.0
C1462 C 0.59347 0.37329 0.00538 0.0
C1463 C 0.49299 0.34534 0.99499 0.0
C1464 C 0.71401 0.47373 0.99998 0.0
C1465 C 0.68855 0.44568 0.99851 0.0
C1466 C 0.61447 0.40761 0.98465 0.0
C1467 C 0.54133 0.34956 0.99736 0.0
C1468 C 0.5739 0.3683 0.9959 0.0
C1469 C 0.66164 0.44341 0.9948 0.0
C1470 C 0.63347 0.41452 0.99448 0.0
H1471 H 0.48601 0.27725 0.99963 0.0
H1472 H 0.54061 0.30819 1.00087 0.0
H1473 H 0.57034 0.38105 0.97788 0.0
H1474 H 0.68426 0.5171 0.99262 0.0
H1475 H 0.64035 0.46846 0.98955 0.0
C1476 C 0.41089 0.80532 0.83984 0.0
C1477 C 0.43597 0.83108 0.83558 0.0
C1478 C 0.40835 0.77739 0.83819 0.0
C1479 C 0.43833 0.7379 0.82085 0.0
H1480 H 0.43509 0.69704 0.85026 0.0
C1481 C 0.50492 0.68099 0.8268 0.0
C1482 C 0.49037 0.65072 0.82987 0.0
C1483 C 0.49041 0.69726 0.82773 0.0
C1484 C 0.43526 0.70773 0.84195 0.0
H1485 H 0.47745 0.84828 0.82603 0.0
H1486 H 0.47271 0.79962 0.82277 0.0
H1487 H 0.42203 0.73643 0.85034 0.0
H1488 H 0.44983 0.61427 0.83711 0.0
H1489 H 0.42422 0.64333 0.8389 0.0
H1490 H 0.4534 0.71069 0.81261 0.0
C1491 C 0.45495 0.80075 0.82735 0.0
C1492 C 0.42778 0.73021 0.84198 0.0
C1493 C 0.45773 0.82858 0.8292 0.0
C1494 C 0.46149 0.63753 0.83465 0.0
C1495 C 0.44685 0.65405 0.83563 0.0
C1496 C 0.44576 0.71556 0.82083 0.0
C1497 C 0.43065 0.77494 0.83209 0.0
C1498 C 0.43067 0.74643 0.83152 0.0
C1499 C 0.461 0.6838 0.83179 0.0
C1500 C 0.44566 0.7013 0.83147 0.0
H1501 H 0.39417 0.80698 0.845 0.0
H1502 H 0.38947 0.75786 0.84195 0.0
H1503 H 0.44033 0.74975 0.81265 0.0
H1504 H 0.52733 0.69202 0.82327 0.0
H1505 H 0.50203 0.72038 0.82498 0.0
C1506 C 0.17644 0.60377 0.84379 0.0
C1507 C 0.15067 0.60002 0.83816 0.0
C1508 C 0.20372 0.62986 0.84202 0.0
C1509 C 0.2419 0.69677 0.82273 0.0
H1510 H 0.28205 0.73825 0.85168 0.0
C1511 C 0.30036 0.82167 0.82604 0.0
C1512 C 0.32981 0.83758 0.83018 0.0
C1513 C 0.28387 0.7909 0.82706 0.0
C1514 C 0.27152 0.72669 0.84351 0.0
H1515 H 0.1328 0.6196 0.82614 0.0
H1516 H 0.18028 0.66503 0.8229 0.0
H1517 H 0.24299 0.68584 0.85263 0.0
H1518 H 0.36451 0.83363 0.83925 0.0
H1519 H 0.33499 0.77904 0.84125 0.0
H1520 H 0.26912 0.73799 0.81373 0.0
C1521 C 0.17979 0.64789 0.82856 0.0
C1522 C 0.24918 0.6967 0.84403 0.0
C1523 C 0.15258 0.62197 0.8304 0.0
C1524 C 0.34194 0.82196 0.83592 0.0
C1525 C 0.32514 0.79083 0.83705 0.0
C1526 C 0.26405 0.72661 0.82223 0.0
C1527 C 0.20556 0.65247 0.83455 0.0
C1528 C 0.23328 0.68183 0.8337 0.0
C1529 C 0.2962 0.77506 0.83233 0.0
C1530 C 0.27817 0.74218 0.83267 0.0
H1531 H 0.17522 0.58706 0.84992 0.0
H1532 H 0.22318 0.63268 0.84671 0.0
H1533 H 0.23052 0.68576 0.8146 0.0
H1534 H 0.29007 0.83289 0.82171 0.0
H1535 H 0.26137 0.77937 0.82362 0.0
C1536 C 0.37771 0.56574 0.83925 0.0
C1537 C 0.37801 0.5392 0.83725 0.0
C1538 C 0.35158 0.56682 0.83742 0.0
C1539 C 0.28004 0.52908 0.82184 0.0
H1540 H 0.24568 0.54612 0.84931 0.0
C1541 C 0.15668 0.47082 0.82795 0.0
C1542 C 0.14282 0.48786 0.82942 0.0
C1543 C 0.18726 0.48369 0.8292 0.0
C1544 C 0.25529 0.54197 0.8415 0.0
H1545 H 0.35205 0.49334 0.83164 0.0
H1546 H 0.30678 0.4954 0.82803 0.0
H1547 H 0.29785 0.55804 0.84985 0.0
H1548 H 0.14984 0.53133 0.83423 0.0
H1549 H 0.20412 0.55414 0.83651 0.0
H1550 H 0.23737 0.51165 0.81369 0.0
C1551 C 0.32653 0.51535 0.83101 0.0
C1552 C 0.28504 0.54879 0.84179 0.0
C1553 C 0.35233 0.51411 0.83307 0.0
C1554 C 0.16 0.51772 0.83303 0.0
C1555 C 0.19096 0.53076 0.83429 0.0
C1556 C 0.25055 0.52238 0.82154 0.0
C1557 C 0.32572 0.54152 0.83335 0.0
C1558 C 0.29718 0.54116 0.83214 0.0
C1559 C 0.20483 0.51398 0.83194 0.0
C1560 C 0.23752 0.5275 0.83155 0.0
H1561 H 0.39715 0.5851 0.84276 0.0
H1562 H 0.35143 0.58719 0.83934 0.0
H1563 H 0.28901 0.52337 0.81423 0.0
H1564 H 0.14399 0.44762 0.82538 0.0
H1565 H 0.19736 0.4701 0.82765 0.0
C1566 C 0.4682 0.75051 0.99568 0.0
C1567 C 0.49161 0.77291 0.0023 0.0
C1568 C 0.43981 0.74723 0.99617 0.0
C1569 C 0.3901 0.76513 0.01266 0.0
H1570 H 0.36962 0.78514 0.98213 0.0
C1571 C 0.29552 0.79202 0.00762 0.0
C1572 C 0.30867 0.82244 0.00494 0.0
C1573 C 0.31127 0.77701 0.00568 0.0
C1574 C 0.37465 0.77883 0.99064 0.0
H1575 H 0.50395 0.80854 0.01496 0.0
H1576 H 0.45392 0.8021 0.01621 0.0
H1577 H 0.41002 0.7738 0.98337 0.0
H1578 H 0.34724 0.86057 0.99745 0.0
H1579 H 0.3742 0.83408 0.99353 0.0
H1580 H 0.35546 0.77129 0.02 0.0
C1581 C 0.45748 0.78712 0.01064 0.0
C1582 C 0.39766 0.77232 0.99136 0.0
C1583 C 0.486 0.79082 0.00995 0.0
C1584 C 0.33662 0.83703 0.99945 0.0
C1585 C 0.35198 0.82188 0.99721 0.0
C1586 C 0.36663 0.77097 0.0119 0.0
C1587 C 0.43442 0.766 0.00345 0.0
C1588 C 0.40628 0.76651 0.00244 0.0
C1589 C 0.33998 0.79212 1.00077 0.0
C1590 C 0.35946 0.77894 1.00096 0.0
H1591 H 0.47231 0.73678 0.98959 0.0
H1592 H 0.4224 0.73086 0.99052 0.0
H1593 H 0.39642 0.76077 0.0213 0.0
H1594 H 0.27422 0.78053 0.01209 0.0
H1595 H 0.30167 0.75409 0.00853 0.0
C1596 C 0.1934 0.69762 0.01105 0.0
C1597 C 0.21045 0.71758 0.00208 0.0
C1598 C 0.19443 0.67152 0.01279 0.0
C1599 C 0.20737 0.61891 0.99577 0.0
H1600 H 0.19378 0.5804 0.02654 0.0
C1601 C 0.17623 0.49443 0.00364 0.0
C1602 C 0.15056 0.47915 0.01072 0.0
C1603 C 0.19009 0.52545 0.0023 0.0
C1604 C 0.19783 0.59099 0.01789 0.0
H1605 H 0.24276 0.72709 0.98816 0.0
H1606 H 0.24497 0.68147 0.99127 0.0
H1607 H 0.20836 0.63288 0.0255 0.0
H1608 H 0.11874 0.48436 0.02151 0.0
H1609 H 0.14282 0.53778 0.01922 0.0
H1610 H 0.1958 0.57648 0.9882 0.0
C1611 C 0.23065 0.68577 0.99692 0.0
C1612 C 0.20606 0.62098 0.01729 0.0
C1613 C 0.2296 0.71192 0.9952 0.0
C1614 C 0.1386 0.49531 0.01607 0.0
C1615 C 0.15252 0.52604 0.01485 0.0
C1616 C 0.19927 0.58884 0.99638 0.0
C1617 C 0.21244 0.66486 0.00552 0.0
C1618 C 0.20974 0.635 0.00622 0.0
C1619 C 0.17866 0.54153 0.00816 0.0
C1620 C 0.19326 0.57436 0.00744 0.0
H1621 H 0.17815 0.70147 0.0163 0.0
H1622 H 0.17976 0.65575 0.01937 0.0
H1623 H 0.20987 0.62897 0.98709 0.0
H1624 H 0.18588 0.48256 0.99936 0.0
H1625 H 0.21011 0.53696 0.99699 0.0
C1626 C 0.29054 0.49711 0.01235 0.0
C1627 C 0.26524 0.49278 0.00618 0.0
C1628 C 0.31515 0.52561 0.01349 0.0
C1629 C 0.3549 0.59011 0.99577 0.0
H1630 H 0.40453 0.62341 0.02373 0.0
C1631 C 0.48086 0.68932 0.00753 0.0
C1632 C 0.49719 0.67469 0.00594 0.0
C1633 C 0.44986 0.67362 0.0063 0.0
C1634 C 0.39063 0.61474 0.01589 0.0
H1635 H 0.24514 0.51442 0.99662 0.0
H1636 H 0.28875 0.56452 0.99832 0.0
H1637 H 0.35303 0.58297 0.026 0.0
H1638 H 0.49461 0.63314 1.0011 0.0
H1639 H 0.44061 0.60606 0.99849 0.0
H1640 H 0.39352 0.62003 0.98561 0.0
C1641 C 0.28919 0.54597 0.00253 0.0
C1642 C 0.36131 0.59163 0.01718 0.0
C1643 C 0.26425 0.51747 0.00165 0.0
C1644 C 0.48248 0.64494 0.0022 0.0
C1645 C 0.4517 0.62949 1.00073 0.0
C1646 C 0.38445 0.61284 0.99446 0.0
C1647 C 0.31513 0.5501 0.00817 0.0
C1648 C 0.34347 0.57856 0.00711 0.0
C1649 C 0.43511 0.64339 0.00322 0.0
C1650 C 0.40265 0.62476 0.00451 0.0
H1651 H 0.29187 0.47824 0.0157 0.0
H1652 H 0.33501 0.52816 0.01775 0.0
H1653 H 0.3417 0.5801 0.98785 0.0
H1654 H 0.49163 0.71197 0.01077 0.0
H1655 H 0.43733 0.68457 0.0084 0.0
C1656 C 0.20607 0.50174 0.50521 0.0
C1657 C 0.20786 0.48904 0.49446 0.0
C1658 C 0.20974 0.53041 0.50526 0.0
C1659 C 0.19952 0.57924 0.48445 0.0
H1660 H 0.22554 0.63345 0.51127 0.0
C1661 C 0.14588 0.64656 0.49791 0.0
C1662 C 0.1632 0.67549 0.5023 0.0
C1663 C 0.15915 0.63011 0.49456 0.0
C1664 C 0.21883 0.6189 0.50359 0.0
H1665 H 0.21774 0.49679 0.47564 0.0
H1666 H 0.22537 0.54698 0.47579 0.0
H1667 H 0.23619 0.59254 0.51094 0.0
H1668 H 0.2079 0.71062 0.50632 0.0
H1669 H 0.23138 0.68137 0.50065 0.0
H1670 H 0.18121 0.60481 0.47733 0.0
C1671 C 0.2199 0.53471 0.48408 0.0
C1672 C 0.22454 0.59525 0.50348 0.0
C1673 C 0.21562 0.50602 0.48399 0.0
C1674 C 0.19424 0.68845 0.50275 0.0
C1675 C 0.20757 0.67167 0.49963 0.0
C1676 C 0.19382 0.60275 0.48458 0.0
C1677 C 0.21576 0.54682 0.4946 0.0
C1678 C 0.21411 0.57459 0.49407 0.0
C1679 C 0.18996 0.64208 0.49579 0.0
C1680 C 0.20244 0.62214 0.49433 0.0
H1681 H 0.20024 0.48897 0.51338 0.0
H1682 H 0.20623 0.53898 0.51352 0.0
H1683 H 0.19083 0.56368 0.47711 0.0
H1684 H 0.12187 0.63613 0.49761 0.0
H1685 H 0.14498 0.60728 0.49176 0.0
C1686 C 0.48646 0.69787 0.4814 0.0
C1687 C 0.49887 0.71582 0.49152 0.0
C1688 C 0.45832 0.67265 0.48183 0.0
C1689 C 0.3898 0.63166 0.50034 0.0
H1690 H 0.3847 0.56332 0.48411 0.0
C1691 C 0.31759 0.5108 0.51507 0.0
C1692 C 0.30486 0.48809 0.50653 0.0
C1693 C 0.33426 0.54045 0.5116 0.0
C1694 C 0.3854 0.58229 0.48845 0.0
H1695 H 0.49086 0.72207 0.50993 0.0
H1696 H 0.44193 0.67697 0.5109 0.0
H1697 H 0.42865 0.61177 0.48164 0.0
H1698 H 0.29778 0.4783 0.4877 0.0
H1699 H 0.32818 0.53065 0.48149 0.0
H1700 H 0.34709 0.60126 0.50776 0.0
C1701 C 0.45382 0.68281 0.50252 0.0
C1702 C 0.4107 0.6102 0.48707 0.0
C1703 C 0.48197 0.70852 0.50202 0.0
C1704 C 0.30747 0.49555 0.49442 0.0
C1705 C 0.32485 0.52538 0.4909 0.0
C1706 C 0.36456 0.60357 0.50183 0.0
C1707 C 0.4419 0.66423 0.49246 0.0
C1708 C 0.41357 0.63519 0.49318 0.0
C1709 C 0.33909 0.548 0.49949 0.0
C1710 C 0.36244 0.57849 0.4961 0.0
H1711 H 0.49854 0.70328 0.47306 0.0
H1712 H 0.44961 0.65953 0.4738 0.0
H1713 H 0.39093 0.65045 0.505 0.0
H1714 H 0.31563 0.5055 0.52448 0.0
H1715 H 0.34511 0.55726 0.51842 0.0
C1716 C 0.4785 0.78626 0.50219 0.0
C1717 C 0.49689 0.81695 0.50039 0.0
C1718 C 0.44813 0.7725 0.49942 0.0
C1719 C 0.39196 0.78382 0.48353 0.0
H1720 H 0.34172 0.7467 0.51104 0.0
C1721 C 0.27392 0.76387 0.4837 0.0
C1722 C 0.26567 0.77311 0.49402 0.0
C1723 C 0.29814 0.75928 0.48381 0.0
C1724 C 0.3554 0.75691 0.50327 0.0
H1725 H 0.49908 0.85698 0.49363 0.0
H1726 H 0.44669 0.83307 0.48841 0.0
H1727 H 0.39309 0.75694 0.51109 0.0
H1728 H 0.2748 0.78312 0.51275 0.0
H1729 H 0.31842 0.7766 0.5129 0.0
H1730 H 0.35546 0.78589 0.47598 0.0
C1731 C 0.45526 0.81946 0.49199 0.0
C1732 C 0.38469 0.76237 0.50322 0.0
C1733 C 0.48526 0.83321 0.49498 0.0
C1734 C 0.28096 0.77611 0.50468 0.0
C1735 C 0.30575 0.77213 0.50475 0.0
C1736 C 0.36284 0.77842 0.48357 0.0
C1737 C 0.43612 0.78924 0.4946 0.0
C1738 C 0.40356 0.7769 0.49352 0.0
C1739 C 0.31521 0.7646 0.49419 0.0
C1740 C 0.34444 0.76578 0.49359 0.0
H1741 H 0.48706 0.77346 0.50654 0.0
H1742 H 0.43387 0.74915 0.50148 0.0
H1743 H 0.40594 0.79488 0.4759 0.0
H1744 H 0.26198 0.76087 0.47543 0.0
H1745 H 0.30414 0.75261 0.47561 0.0
C1746 C 0.16872 0.55274 0.35173 0.0
C1747 C 0.15216 0.54747 0.34124 0.0
C1748 C 0.19699 0.55601 0.35143 0.0
C1749 C 0.25745 0.56183 0.33165 0.0
H1750 H 0.26314 0.512 0.35606 0.0
C1751 C 0.35016 0.52976 0.33231 0.0
C1752 C 0.33729 0.49868 0.33192 0.0
C1753 C 0.3327 0.54252 0.33522 0.0
C1754 C 0.26213 0.52634 0.34929 0.0
H1755 H 0.15277 0.54358 0.32208 0.0
H1756 H 0.20205 0.54792 0.32153 0.0
H1757 H 0.22309 0.52315 0.35687 0.0
H1758 H 0.29705 0.45663 0.33485 0.0
H1759 H 0.26701 0.47869 0.34037 0.0
H1760 H 0.29582 0.56331 0.32375 0.0
C1761 C 0.1934 0.55015 0.33 0.0
C1762 C 0.23925 0.53295 0.34977 0.0
C1763 C 0.16514 0.54748 0.33029 0.0
C1764 C 0.30746 0.48065 0.33518 0.0
C1765 C 0.29031 0.4933 0.33834 0.0
C1766 C 0.28053 0.55526 0.3312 0.0
C1767 C 0.20915 0.55333 0.34065 0.0
C1768 C 0.23608 0.5501 0.34079 0.0
C1769 C 0.30245 0.52429 0.33806 0.0
C1770 C 0.28246 0.53664 0.33982 0.0
H1771 H 0.15938 0.55349 0.36027 0.0
H1772 H 0.20881 0.55936 0.35975 0.0
H1773 H 0.25585 0.57537 0.32468 0.0
H1774 H 0.37306 0.54404 0.32963 0.0
H1775 H 0.34257 0.56648 0.33495 0.0
C1776 C 0.43314 0.61292 0.33103 0.0
C1777 C 0.44074 0.60476 0.34182 0.0
C1778 C 0.43052 0.63852 0.33043 0.0
C1779 C 0.45658 0.70941 0.34684 0.0
H1780 H 0.40696 0.72108 0.32424 0.0
C1781 C 0.46977 0.82483 0.34038 0.0
C1782 C 0.47772 0.83403 0.32855 0.0
C1783 C 0.45627 0.79453 0.34327 0.0
C1784 C 0.42067 0.71798 0.3307 0.0
H1785 H 0.4488 0.61528 0.36063 0.0
H1786 H 0.44308 0.65871 0.3597 0.0
H1787 H 0.40091 0.6715 0.32675 0.0
H1788 H 0.47555 0.8193 0.31036 0.0
H1789 H 0.45139 0.76665 0.31531 0.0
H1790 H 0.47674 0.75587 0.3506 0.0
C1791 C 0.44056 0.6465 0.35156 0.0
C1792 C 0.41744 0.68969 0.33205 0.0
C1793 C 0.44375 0.62147 0.3521 0.0
C1794 C 0.46972 0.81261 0.31956 0.0
C1795 C 0.4557 0.78247 0.32239 0.0
C1796 C 0.45953 0.73749 0.34559 0.0
C1797 C 0.4349 0.65603 0.34067 0.0
C1798 C 0.43587 0.68519 0.33994 0.0
C1799 C 0.44999 0.77317 0.3343 0.0
C1800 C 0.44218 0.74227 0.33729 0.0
H1801 H 0.43045 0.60026 0.323 0.0
H1802 H 0.42626 0.64519 0.32186 0.0
H1803 H 0.47165 0.70715 0.35283 0.0
H1804 H 0.47583 0.84108 0.34744 0.0
H1805 H 0.45201 0.7879 0.35253 0.0
C1806 C 0.1602 0.63431 0.33247 0.0
C1807 C 0.14373 0.6478 0.32892 0.0
C1808 C 0.19132 0.65131 0.33341 0.0
C1809 C 0.25107 0.71497 0.31902 0.0
H1810 H 0.30043 0.73418 0.3472 0.0
C1811 C 0.34999 0.82833 0.32812 0.0
C1812 C 0.37648 0.83117 0.33253 0.0
C1813 C 0.32531 0.80028 0.3263 0.0
C1814 C 0.28709 0.72836 0.33918 0.0
H1815 H 0.14648 0.68986 0.32469 0.0
H1816 H 0.20022 0.71918 0.32636 0.0
H1817 H 0.24816 0.69418 0.34801 0.0
H1818 H 0.39853 0.80733 0.33836 0.0
H1819 H 0.35451 0.75765 0.33554 0.0
H1820 H 0.28904 0.75033 0.3104 0.0
C1821 C 0.18932 0.69553 0.32818 0.0
C1822 C 0.25726 0.7056 0.33966 0.0
C1823 C 0.15855 0.67874 0.32727 0.0
C1824 C 0.37832 0.80551 0.33477 0.0
C1825 C 0.35322 0.77724 0.33325 0.0
C1826 C 0.28066 0.7376 0.31854 0.0
C1827 C 0.20607 0.68186 0.33078 0.0
C1828 C 0.23876 0.69979 0.32973 0.0
C1829 C 0.3264 0.7745 0.32916 0.0
C1830 C 0.29853 0.74546 0.32876 0.0
H1831 H 0.14936 0.61051 0.33377 0.0
H1832 H 0.20387 0.64039 0.33551 0.0
H1833 H 0.23722 0.71061 0.31122 0.0
H1834 H 0.34807 0.84787 0.32647 0.0
H1835 H 0.3048 0.79877 0.32327 0.0
C1836 C 0.19185 0.31519 0.15984 0.0
C1837 C 0.18095 0.32029 0.17042 0.0
C1838 C 0.21691 0.33834 0.15439 0.0
C1839 C 0.28311 0.40442 0.16604 0.0
H1840 H 0.3149 0.39276 0.13663 0.0
C1841 C 0.4054 0.43566 0.16221 0.0
C1842 C 0.40513 0.4085 0.16166 0.0
C1843 C 0.37985 0.4369 0.15922 0.0
C1844 C 0.30637 0.39693 0.14476 0.0
H1845 H 0.18452 0.35375 0.1828 0.0
H1846 H 0.22692 0.39483 0.17282 0.0
H1847 H 0.26178 0.37506 0.1382 0.0
H1848 H 0.37929 0.36209 0.15669 0.0
H1849 H 0.33515 0.36444 0.15109 0.0
H1850 H 0.32765 0.42545 0.17266 0.0
C1851 C 0.2173 0.37283 0.16897 0.0
C1852 C 0.27587 0.38648 0.14574 0.0
C1853 C 0.19269 0.34944 0.1746 0.0
C1854 C 0.3799 0.38323 0.15724 0.0
C1855 C 0.35481 0.38467 0.15393 0.0
C1856 C 0.31362 0.41551 0.16493 0.0
C1857 C 0.23138 0.36709 0.15944 0.0
C1858 C 0.2635 0.38789 0.15673 0.0
C1859 C 0.35417 0.41122 0.15526 0.0
C1860 C 0.32515 0.40998 0.1546 0.0
H1861 H 0.1832 0.29272 0.15656 0.0
H1862 H 0.2266 0.3326 0.14707 0.0
H1863 H 0.27495 0.40621 0.17468 0.0
H1864 H 0.42466 0.45542 0.16563 0.0
H1865 H 0.3797 0.45752 0.16045 0.0
C1866 C 0.6001 -0.0052 0.15884 0.0
C1867 C 0.57416 -0.00559 0.16257 0.0
C1868 C 0.59897 0.96883 0.15491 0.0
C1869 C 0.5653 0.8943 0.16287 0.0
H1870 H 0.61049 0.88937 0.1364 0.0
C1871 C 0.62988 0.83829 0.17192 0.0
C1872 C 0.65971 0.85724 0.1689 0.0
C1873 C 0.60741 0.84006 0.16577 0.0
C1874 C 0.5977 0.89018 0.14385 0.0
H1875 H 0.52652 0.96701 0.16479 0.0
H1876 H 0.52482 0.92068 0.15854 0.0
H1877 H 0.59333 0.92534 0.13585 0.0
H1878 H 0.68964 0.88997 0.15632 0.0
H1879 H 0.65126 0.89446 0.146 0.0
H1880 H 0.5726 0.86238 0.17167 0.0
C1881 C 0.54579 0.94141 0.15833 0.0
C1882 C 0.58757 0.91057 0.14344 0.0
C1883 C 0.5468 0.96775 0.16194 0.0
C1884 C 0.66664 0.8751 0.15875 0.0
C1885 C 0.64435 0.87756 0.15281 0.0
C1886 C 0.57602 0.87449 0.16343 0.0
C1887 C 0.57199 0.94176 0.1549 0.0
C1888 C 0.57286 0.91398 0.15326 0.0
C1889 C 0.6147 0.86191 0.15692 0.0
C1890 C 0.59425 0.87369 0.15429 0.0
H1891 H 0.62142 0.01516 0.15917 0.0
H1892 H 0.61956 0.96959 0.15253 0.0
H1893 H 0.55403 0.89656 0.17058 0.0
H1894 H 0.62413 0.82421 0.17973 0.0
H1895 H 0.58474 0.82652 0.16883 0.0
C1896 C 0.12386 0.79852 0.15883 0.0
C1897 C 0.12286 0.79713 0.17127 0.0
C1898 C 0.12161 0.7746 0.15219 0.0
C1899 C 0.07788 0.71082 0.14583 0.0
H1900 H 0.09342 0.65137 0.15951 0.0
C1901 C -0.00839 0.60867 0.16785 0.0
C1902 C 0.9862 0.58023 0.16468 0.0
C1903 C 0.01559 0.63398 0.16304 0.0
C1904 C 0.08928 0.66764 0.15521 0.0
H1905 H 0.12398 0.77265 0.18666 0.0
H1906 H 0.12072 0.73152 0.17535 0.0
H1907 H 0.13152 0.70394 0.16054 0.0
H1908 H 0.00213 0.55614 0.15403 0.0
H1909 H 0.04512 0.60114 0.14584 0.0
H1910 H 0.03453 0.67477 0.14167 0.0
C1911 C 0.12266 0.75042 0.17048 0.0
C1912 C 0.11102 0.69776 0.15584 0.0
C1913 C 0.12422 0.77391 0.17703 0.0
C1914 C 0.00567 0.57776 0.15662 0.0
C1915 C 0.03015 0.60336 0.15191 0.0
C1916 C 0.05624 0.6808 0.14521 0.0
C1917 C 0.11898 0.74937 0.15804 0.0
C1918 C 0.10439 0.71974 0.15216 0.0
C1919 C 0.03499 0.63161 0.15502 0.0
C1920 C 0.06095 0.65932 0.15077 0.0
H1921 H 0.12331 0.8166 0.15436 0.0
H1922 H 0.11922 0.77467 0.14261 0.0
H1923 H 0.07197 0.727 0.14281 0.0
H1924 H 0.97724 0.61152 0.17403 0.0
H1925 H 0.01931 0.65561 0.16575 0.0
C1926 C 0.3143 0.19081 0.34454 0.0
C1927 C 0.31522 0.18805 0.33215 0.0
C1928 C 0.33744 0.21537 0.35037 0.0
C1929 C 0.36507 0.28125 0.35456 0.0
H1930 H 0.44035 0.33209 0.33892 0.0
C1931 C 0.40369 0.38773 0.32787 0.0
C1932 C 0.40879 0.41077 0.33574 0.0
C1933 C 0.40401 0.36257 0.33197 0.0
C1934 C 0.41984 0.31819 0.34369 0.0
H1935 H 0.34215 0.20587 0.31635 0.0
H1936 H 0.38213 0.24823 0.32627 0.0
H1937 H 0.42047 0.27839 0.33942 0.0
H1938 H 0.41885 0.42601 0.35402 0.0
H1939 H 0.41781 0.38077 0.36136 0.0
H1940 H 0.36381 0.3211 0.35819 0.0
C1941 C 0.36411 0.23198 0.3317 0.0
C1942 C 0.40829 0.28742 0.34391 0.0
C1943 C 0.34103 0.20768 0.32593 0.0
C1944 C 0.41506 0.40857 0.34777 0.0
C1945 C 0.41452 0.38286 0.35196 0.0
C1946 C 0.37696 0.31206 0.35456 0.0
C1947 C 0.3616 0.23741 0.34382 0.0
C1948 C 0.37951 0.26844 0.34838 0.0
C1949 C 0.40877 0.35963 0.34407 0.0
C1950 C 0.4033 0.33045 0.34835 0.0
H1951 H 0.29444 0.176 0.34949 0.0
H1952 H 0.33506 0.21849 0.35976 0.0
H1953 H 0.34294 0.26758 0.35814 0.0
H1954 H 0.39885 0.38891 0.31856 0.0
H1955 H 0.399 0.34466 0.32578 0.0
C1956 C 0.57105 0.01885 0.34139 0.0
C1957 C 0.57019 0.99151 0.34255 0.0
C1958 C 0.59653 0.04527 0.34483 0.0
C1959 C 0.66897 0.07642 0.36055 0.0
H1960 H 0.70237 0.11796 0.33094 0.0
C1961 C 0.78314 0.10647 0.34561 0.0
C1962 C 0.79489 0.12352 0.3353 0.0
C1963 C 0.75817 0.10476 0.35106 0.0
C1964 C 0.69366 0.10772 0.3395 0.0
H1965 H 0.59363 0.96973 0.34909 0.0
H1966 H 0.63755 0.01548 0.35542 0.0
H1967 H 0.64937 0.08578 0.33263 0.0
H1968 H 0.79308 0.15546 0.32351 0.0
H1969 H 0.75078 0.15429 0.33348 0.0
H1970 H 0.71341 0.0974 0.36729 0.0
C1971 C 0.6189 0.01679 0.35182 0.0
C1972 C 0.66296 0.08906 0.34042 0.0
C1973 C 0.5939 0.99062 0.3481 0.0
C1974 C 0.7842 0.14211 0.33148 0.0
C1975 C 0.75966 0.14102 0.33711 0.0
C1976 C 0.6997 0.09561 0.35973 0.0
C1977 C 0.62101 0.04447 0.34978 0.0
C1978 C 0.6506 0.07167 0.35065 0.0
C1979 C 0.74471 0.12032 0.34629 0.0
C1980 C 0.71268 0.1097 0.34886 0.0
H1981 H 0.55299 0.01998 0.33707 0.0
H1982 H 0.59773 0.06636 0.34309 0.0
H1983 H 0.65986 0.06355 0.36862 0.0
H1984 H 0.79102 0.0918 0.34862 0.0
H1985 H 0.74769 0.08861 0.35811 0.0
C1986 C 0.86408 0.66922 0.34503 0.0
C1987 C 0.85955 0.66755 0.33268 0.0
C1988 C 0.86578 0.64636 0.35099 0.0
C1989 C 0.90267 0.617 0.35522 0.0
H1990 H 0.87318 0.53911 0.3411 0.0
C1991 C 0.96157 0.56626 0.32901 0.0
C1992 C 0.98287 0.56701 0.33688 0.0
C1993 C 0.93661 0.56657 0.33336 0.0
C1994 C 0.88128 0.56045 0.34542 0.0
H1995 H 0.84955 0.63973 0.31709 0.0
H1996 H 0.85229 0.60017 0.32726 0.0
H1997 H 0.84188 0.56185 0.34115 0.0
H1998 H -0.00549 0.5675 0.35543 0.0
H1999 H 0.95124 0.56964 0.36309 0.0
H2000 H 0.94277 0.6163 0.35879 0.0
C2001 C 0.85455 0.61862 0.33255 0.0
C2002 C 0.86346 0.57357 0.3454 0.0
C2003 C 0.85318 0.64145 0.32664 0.0
C2004 C 0.97816 0.56667 0.34921 0.0
C2005 C 0.95351 0.56788 0.35358 0.0
C2006 C 0.92026 0.60363 0.35542 0.0
C2007 C 0.86285 0.62163 0.34462 0.0
C2008 C 0.87499 0.60306 0.34936 0.0
C2009 C 0.93286 0.56843 0.34566 0.0
C2010 C 0.91055 0.57626 0.34971 0.0
H2011 H 0.86923 0.6893 0.34984 0.0
H2012 H 0.87175 0.64919 0.36033 0.0
H2013 H 0.91239 0.63965 0.3584 0.0
H2014 H 0.9648 0.56655 0.31947 0.0
H2015 H 0.92132 0.5675 0.32705 0.0
C2016 C 0.58978 0.56623 0.83595 0.0
C2017 C 0.57323 0.57563 0.84262 0.0
C2018 C 0.61524 0.56776 0.84078 0.0
C2019 C 0.67572 0.6177 0.85873 0.0
H2020 H 0.70479 0.56378 0.85147 0.0
C2021 C 0.79414 0.6688 0.84551 0.0
C2022 C 0.79502 0.65879 0.834 0.0
C2023 C 0.77071 0.65093 0.8532 0.0
C2024 C 0.69708 0.57907 0.85371 0.0
H2025 H 0.56921 0.59304 0.85958 0.0
H2026 H 0.61482 0.59702 0.86793 0.0
H2027 H 0.65133 0.54507 0.85214 0.0
H2028 H 0.77476 0.62124 0.82201 0.0
H2029 H 0.73382 0.59043 0.8351 0.0
H2030 H 0.72091 0.65235 0.85895 0.0
C2031 C 0.60761 0.58766 0.85912 0.0
C2032 C 0.66647 0.56829 0.85414 0.0
C2033 C 0.58165 0.58541 0.85437 0.0
C2034 C 0.77445 0.62944 0.83086 0.0
C2035 C 0.75099 0.61167 0.83846 0.0
C2036 C 0.70628 0.62858 0.85811 0.0
C2037 C 0.625 0.57948 0.85226 0.0
C2038 C 0.65561 0.58791 0.85591 0.0
C2039 C 0.74754 0.62309 0.84935 0.0
C2040 C 0.7173 0.60978 0.85472 0.0
H2041 H 0.58364 0.5588 0.82684 0.0
H2042 H 0.62847 0.56181 0.83521 0.0
H2043 H 0.66799 0.63336 0.86011 0.0
H2044 H 0.80927 0.69156 0.84805 0.0
H2045 H 0.76918 0.66018 0.86164 0.0
C2046 C 0.35497 0.15088 0.83139 0.0
C2047 C 0.32487 0.13211 0.83407 0.0
C2048 C 0.37688 0.14893 0.8379 0.0
C2049 C 0.38593 0.10139 0.86123 0.0
H2050 H 0.43105 0.09234 0.83574 0.0
C2051 C 0.38464 -0.00444 0.85042 0.0
C2052 C 0.40903 -0.00449 0.84513 0.0
C2053 C 0.38679 0.0221 0.85422 0.0
C2054 C 0.41945 0.09539 0.84314 0.0
H2055 H 0.29384 0.09874 0.8462 0.0
H2056 H 0.33142 0.0942 0.85724 0.0
H2057 H 0.41167 0.12551 0.83312 0.0
H2058 H 0.45539 0.02259 0.8403 0.0
H2059 H 0.45887 0.0697 0.84649 0.0
H2060 H 0.39115 0.06831 0.87061 0.0
C2061 C 0.33881 0.11118 0.85043 0.0
C2062 C 0.40823 0.11462 0.84166 0.0
C2063 C 0.31704 0.11366 0.84408 0.0
C2064 C 0.43632 0.02219 0.84439 0.0
C2065 C 0.43829 0.04903 0.84794 0.0
C2066 C 0.3968 0.08176 0.86262 0.0
C2067 C 0.36886 0.12722 0.84686 0.0
C2068 C 0.38947 0.11624 0.85033 0.0
C2069 C 0.4132 0.04928 0.85253 0.0
C2070 C 0.41195 0.07715 0.85324 0.0
H2071 H 0.3614 0.16522 0.82363 0.0
H2072 H 0.39982 0.16244 0.83514 0.0
H2073 H 0.37257 0.10288 0.8683 0.0
H2074 H 0.36342 0.97517 0.85111 0.0
H2075 H 0.36694 0.02152 0.85755 0.0
C2076 C 0.86406 0.19653 0.84384 0.0
C2077 C 0.84713 0.18687 0.83341 0.0
C2078 C 0.86645 0.22092 0.85007 0.0
C2079 C 0.86548 0.28779 0.84007 0.0
H2080 H 0.9137 0.3185 0.86847 0.0
C2081 C 0.95915 0.4088 0.84217 0.0
C2082 C 0.98573 0.40796 0.84243 0.0
C2083 C 0.93242 0.38384 0.84574 0.0
C2084 C 0.89972 0.31028 0.86064 0.0
H2085 H 0.81541 0.19111 0.82237 0.0
H2086 H 0.81741 0.23201 0.83377 0.0
H2087 H 0.87763 0.26549 0.86703 0.0
H2088 H 0.00602 0.38192 0.84743 0.0
H2089 H 0.95979 0.33888 0.85398 0.0
H2090 H 0.88847 0.33242 0.83353 0.0
C2091 C 0.83041 0.22226 0.83683 0.0
C2092 C 0.87925 0.27984 0.85973 0.0
C2093 C 0.8288 0.19848 0.83038 0.0
C2094 C 0.98571 0.38296 0.84714 0.0
C2095 C 0.9593 0.35848 0.851 0.0
C2096 C 0.88543 0.31822 0.8411 0.0
C2097 C 0.85158 0.23574 0.84599 0.0
C2098 C 0.86363 0.26784 0.84902 0.0
C2099 C 0.93224 0.3582 0.84993 0.0
C2100 C 0.90423 0.32938 0.85102 0.0
H2101 H 0.87847 0.18787 0.84629 0.0
H2102 H 0.88276 0.23006 0.85713 0.0
H2103 H 0.85411 0.27993 0.83164 0.0
H2104 H 0.95875 0.4279 0.83851 0.0
H2105 H 0.91179 0.38402 0.84472 0.0
C2106 C 0.5553 0.57397 0.65704 0.0
C2107 C 0.57431 0.57685 0.66655 0.0
C2108 C 0.55698 0.59934 0.6518 0.0
C2109 C 0.60998 0.67547 0.64578 0.0
H2110 H 0.55566 0.70252 0.65505 0.0
C2111 C 0.62606 0.77568 0.67263 0.0
C2112 C 0.65435 0.796 0.66828 0.0
C2113 C 0.60634 0.75158 0.66569 0.0
C2114 C 0.57089 0.69528 0.65215 0.0
H2115 H 0.60901 0.60859 0.67827 0.0
H2116 H 0.61193 0.6522 0.66911 0.0
H2117 H 0.53983 0.64962 0.65629 0.0
H2118 H 0.683 0.80959 0.65286 0.0
H2119 H 0.64814 0.768 0.64045 0.0
H2120 H 0.64236 0.72082 0.64308 0.0
C2121 C 0.596 0.63046 0.66566 0.0
C2122 C 0.56165 0.66493 0.65275 0.0
C2123 C 0.59419 0.6054 0.67092 0.0
C2124 C 0.66114 0.79429 0.65634 0.0
C2125 C 0.64127 0.77018 0.64932 0.0
C2126 C 0.61931 0.70571 0.64528 0.0
C2127 C 0.57788 0.62773 0.65594 0.0
C2128 C 0.58196 0.65527 0.65042 0.0
C2129 C 0.61474 0.74718 0.65428 0.0
C2130 C 0.60074 0.71626 0.64949 0.0
H2131 H 0.53969 0.55227 0.65348 0.0
H2132 H 0.54264 0.59687 0.64436 0.0
H2133 H 0.62593 0.66837 0.64388 0.0
H2134 H 0.62034 0.77671 0.68183 0.0
H2135 H 0.58622 0.73467 0.66993 0.0
C2136 C 0.40629 0.977 0.66039 0.0
C2137 C 0.40455 -0.00121 0.66726 0.0
C2138 C 0.38038 0.95252 0.6559 0.0
C2139 C 0.30375 0.92947 0.6479 0.0
H2140 H 0.27894 0.85264 0.66218 0.0
C2141 C 0.20443 0.8541 0.67675 0.0
C2142 C 0.18361 0.85907 0.67081 0.0
C2143 C 0.22887 0.85647 0.67065 0.0
C2144 C 0.28559 0.87371 0.65787 0.0
H2145 H 0.37432 0.01198 0.67472 0.0
H2146 H 0.32968 0.96988 0.66682 0.0
H2147 H 0.33148 0.89103 0.66242 0.0
H2148 H 0.16959 0.86659 0.65371 0.0
H2149 H 0.21186 0.86987 0.64284 0.0
H2150 H 0.25812 0.91403 0.64451 0.0
C2151 C 0.35095 0.97169 0.66486 0.0
C2152 C 0.31572 0.8956 0.65795 0.0
C2153 C 0.37655 -0.00432 0.66949 0.0
C2154 C 0.18519 0.86222 0.65841 0.0
C2155 C 0.20968 0.86454 0.65224 0.0
C2156 C 0.27377 0.90777 0.64785 0.0
C2157 C 0.35257 0.94998 0.658 0.0
C2158 C 0.32455 0.9243 0.65377 0.0
C2159 C 0.2331 0.86434 0.6585 0.0
C2160 C 0.26403 0.88051 0.65376 0.0
H2161 H 0.42758 0.97877 0.65856 0.0
H2162 H 0.38204 0.93581 0.65074 0.0
H2163 H 0.31021 0.9514 0.64447 0.0
H2164 H 0.20354 0.85157 0.68635 0.0
H2165 H 0.24616 0.85599 0.67585 0.0
C2166 C 0.00646 0.42652 0.65921 0.0
C2167 C 0.98339 0.40156 0.66498 0.0
C2168 C 0.03083 0.42529 0.65444 0.0
C2169 C 0.05424 0.37164 0.64524 0.0
H2170 H 0.12874 0.42282 0.66126 0.0
C2171 C 0.12554 0.3467 0.67636 0.0
C2172 C 0.12193 0.32123 0.67057 0.0
C2173 C 0.12355 0.36867 0.67 0.0
C2174 C 0.10833 0.40861 0.65649 0.0
H2175 H 0.96734 0.35555 0.6699 0.0
H2176 H 0.00915 0.35341 0.66162 0.0
H2177 H 0.09035 0.43679 0.66062 0.0
H2178 H 0.11749 0.30042 0.65344 0.0
H2179 H 0.11437 0.33906 0.64217 0.0
H2180 H 0.07023 0.34166 0.64234 0.0
C2181 C 0.00858 0.37389 0.66069 0.0
C2182 C 0.08644 0.41679 0.65604 0.0
C2183 C 0.98474 0.37526 0.66559 0.0
C2184 C 0.12046 0.31995 0.65809 0.0
C2185 C 0.11834 0.34198 0.65168 0.0
C2186 C 0.07592 0.36334 0.64578 0.0
C2187 C 0.03197 0.39885 0.65512 0.0
C2188 C 0.05834 0.3971 0.65127 0.0
C2189 C 0.11741 0.36532 0.65771 0.0
C2190 C 0.10215 0.38044 0.65237 0.0
H2191 H 0.006 0.4471 0.65861 0.0
H2192 H 0.04877 0.44492 0.6503 0.0
H2193 H 0.03293 0.3564 0.64127 0.0
H2194 H 0.12694 0.34823 0.68599 0.0
H2195 H 0.12312 0.38619 0.67505 0.0
C2196 C 0.85417 0.65019 0.49283 0.0
C2197 C 0.85303 0.65485 0.50505 0.0
C2198 C 0.87786 0.67129 0.48595 0.0
C2199 C 0.94229 0.69664 0.48009 0.0
H2200 H -0.003 0.77501 0.49253 0.0
C2201 C 0.04458 0.72395 0.5042 0.0
C2202 C 0.07233 0.74167 0.49874 0.0
C2203 C 0.01917 0.72272 0.49961 0.0
C2204 C 0.982 0.75365 0.48854 0.0
H2205 H 0.87352 0.68606 0.51951 0.0
H2206 H 0.91483 0.7224 0.50781 0.0
H2207 H 0.94358 0.75665 0.49304 0.0
H2208 H 0.09523 0.77296 0.48439 0.0
H2209 H 0.04996 0.77073 0.47635 0.0
H2210 H 0.98068 0.69285 0.47652 0.0
C2211 C 0.89762 0.70307 0.50325 0.0
C2212 C 0.95136 0.7429 0.48897 0.0
C2213 C 0.87399 0.68207 0.51006 0.0
C2214 C 0.07415 0.75907 0.48878 0.0
C2215 C 0.04842 0.75782 0.48417 0.0
C2216 C 0.97283 0.70754 0.47953 0.0
C2217 C 0.90099 0.69707 0.4913 0.0
C2218 C 0.93115 0.7132 0.4858 0.0
C2219 C 0.02077 0.73919 0.48948 0.0
C2220 C -0.00734 0.73509 0.48464 0.0
H2221 H 0.83855 0.62906 0.48886 0.0
H2222 H 0.87943 0.66613 0.47673 0.0
H2223 H 0.9277 0.67377 0.47746 0.0
H2224 H 0.04224 0.71043 0.51192 0.0
H2225 H -0.00202 0.70837 0.50388 0.0
C2226 C 0.33542 0.20184 0.4926 0.0
C2227 C 0.33243 0.19586 0.50485 0.0
C2228 C 0.31363 0.20498 0.48648 0.0
C2229 C 0.28654 0.24355 0.48188 0.0
H2230 H 0.20882 0.2172 0.49558 0.0
C2231 C 0.24156 0.3081 0.5071 0.0
C2232 C 0.23928 0.32734 0.49896 0.0
C2233 C 0.24173 0.2828 0.5031 0.0
C2234 C 0.23009 0.22437 0.49135 0.0
H2235 H 0.3035 0.18535 0.52009 0.0
H2236 H 0.2659 0.19095 0.50968 0.0
H2237 H 0.2294 0.18401 0.4958 0.0
H2238 H 0.23456 0.33508 0.48034 0.0
H2239 H 0.23663 0.29124 0.47323 0.0
H2240 H 0.28773 0.28452 0.47804 0.0
C2241 C 0.28445 0.19295 0.50455 0.0
C2242 C 0.24204 0.20553 0.49156 0.0
C2243 C 0.30615 0.1899 0.51061 0.0
C2244 C 0.23618 0.32038 0.48676 0.0
C2245 C 0.23728 0.29541 0.48271 0.0
C2246 C 0.27428 0.26211 0.48143 0.0
C2247 C 0.28877 0.20242 0.4926 0.0
C2248 C 0.27147 0.21592 0.48778 0.0
C2249 C 0.24037 0.27665 0.49088 0.0
C2250 C 0.24696 0.25345 0.48696 0.0
H2251 H 0.35581 0.207 0.48805 0.0
H2252 H 0.31747 0.2118 0.47723 0.0
H2253 H 0.3092 0.25247 0.47883 0.0
H2254 H 0.24391 0.31301 0.51654 0.0
H2255 H 0.24468 0.26893 0.50954 0.0
C2256 C 0.68134 0.91093 0.49532 0.0
C2257 C 0.65473 0.91176 0.49561 0.0
C2258 C 0.70796 0.93625 0.49193 0.0
C2259 C 0.74023 0.0095 0.47732 0.0
H2260 H 0.78757 0.04087 0.50586 0.0
C2261 C 0.77881 0.1247 0.49299 0.0
C2262 C 0.79658 0.13505 0.50319 0.0
C2263 C 0.77546 0.09957 0.48706 0.0
C2264 C 0.7757 0.03268 0.49755 0.0
H2265 H 0.63444 0.93852 0.49181 0.0
H2266 H 0.68056 0.98225 0.48559 0.0
H2267 H 0.7525 0.98837 0.50446 0.0
H2268 H 0.82842 0.13083 0.51416 0.0
H2269 H 0.82462 0.08846 0.50326 0.0
H2270 H 0.76264 0.0539 0.47052 0.0
C2271 C 0.68104 0.96232 0.48806 0.0
C2272 C 0.75535 0.00229 0.49681 0.0
C2273 C 0.65474 0.93745 0.49175 0.0
C2274 C 0.81448 0.12301 0.5063 0.0
C2275 C 0.81184 0.0984 0.50015 0.0
C2276 C 0.76115 0.03987 0.47792 0.0
C2277 C 0.70801 0.96226 0.48842 0.0
C2278 C 0.73603 0.99086 0.48707 0.0
C2279 C 0.79011 0.0846 0.49121 0.0
C2280 C 0.77743 0.05227 0.48846 0.0
H2281 H 0.6818 0.8913 0.49826 0.0
H2282 H 0.72858 0.93586 0.49241 0.0
H2283 H 0.72577 0.00102 0.46963 0.0
H2284 H 0.76468 0.13365 0.4905 0.0
H2285 H 0.75867 0.09017 0.48018 0.0
C2286 C 0.04518 0.7198 0.67986 0.0
C2287 C 0.07055 0.74445 0.67518 0.0
C2288 C 0.04631 0.69484 0.68368 0.0
C2289 C 0.07751 0.65261 0.67374 0.0
H2290 H 0.0349 0.60185 0.70048 0.0
C2291 C 0.01415 0.53088 0.66506 0.0
C2292 C 0.98455 0.51873 0.66872 0.0
C2293 C 0.03661 0.55613 0.67073 0.0
C2294 C 0.04692 0.61563 0.69294 0.0
H2295 H 0.11736 0.76319 0.67125 0.0
H2296 H 0.11898 0.7185 0.67739 0.0
H2297 H 0.05227 0.65503 0.70145 0.0
H2298 H 0.95528 0.52091 0.68181 0.0
H2299 H -0.00641 0.56542 0.69133 0.0
H2300 H 0.06932 0.61355 0.66455 0.0
C2301 C 0.09849 0.71897 0.67841 0.0
C2302 C 0.05715 0.64617 0.69358 0.0
C2303 C 0.09755 0.7444 0.6749 0.0
C2304 C 0.9781 0.52988 0.67892 0.0
C2305 C 0.00033 0.55559 0.68439 0.0
C2306 C 0.06669 0.62207 0.67297 0.0
C2307 C 0.07267 0.69374 0.68259 0.0
C2308 C 0.07107 0.66458 0.68372 0.0
C2309 C 0.02951 0.57041 0.67976 0.0
C2310 C 0.04951 0.60282 0.68227 0.0
H2311 H 0.02415 0.71943 0.68018 0.0
H2312 H 0.02597 0.67555 0.68668 0.0
H2313 H 0.08809 0.6663 0.66599 0.0
H2314 H 0.01952 0.52252 0.65717 0.0
H2315 H 0.05898 0.566 0.66724 0.0
C2316 C 0.26085 0.32972 0.68349 0.0
C2317 C 0.23793 0.33059 0.67726 0.0
C2318 C 0.28577 0.35595 0.6872 0.0
C2319 C 0.33101 0.4277 0.67498 0.0
H2320 H 0.38139 0.4359 0.70186 0.0
C2321 C 0.45217 0.48005 0.66603 0.0
C2322 C 0.46264 0.46122 0.66977 0.0
C2323 C 0.42775 0.47911 0.67168 0.0
C2324 C 0.36769 0.43417 0.6943 0.0
H2325 H 0.22189 0.3591 0.67059 0.0
H2326 H 0.26639 0.40555 0.67672 0.0
H2327 H 0.32771 0.40285 0.70331 0.0
H2328 H 0.45851 0.42923 0.68302 0.0
H2329 H 0.41533 0.42634 0.69257 0.0
H2330 H 0.37051 0.45603 0.66543 0.0
C2331 C 0.2647 0.38446 0.67896 0.0
C2332 C 0.33689 0.4154 0.69518 0.0
C2333 C 0.23931 0.358 0.67547 0.0
C2334 C 0.45081 0.44409 0.68006 0.0
C2335 C 0.42594 0.44255 0.68554 0.0
C2336 C 0.36175 0.44603 0.67402 0.0
C2337 C 0.28862 0.38368 0.6845 0.0
C2338 C 0.3185 0.41062 0.68527 0.0
C2339 C 0.41268 0.45835 0.68083 0.0
C2340 C 0.38071 0.44796 0.68339 0.0
H2341 H 0.26018 0.30875 0.68493 0.0
H2342 H 0.30393 0.35454 0.69128 0.0
H2343 H 0.31748 0.42445 0.66717 0.0
H2344 H 0.46111 0.49346 0.65808 0.0
H2345 H 0.419 0.49255 0.6681 0.0
C2346 C 0.6575 0.93802 0.67644 0.0
C2347 C 0.65736 0.91228 0.67256 0.0
C2348 C 0.6313 0.93658 0.68026 0.0
C2349 C 0.55691 0.90293 0.67204 0.0
H2350 H 0.54979 0.94446 0.69939 0.0
C2351 C 0.49673 0.96416 0.66475 0.0
C2352 C 0.51474 -0.00609 0.66814 0.0
C2353 C 0.49958 0.9418 0.67046 0.0
C2354 C 0.55123 0.93269 0.6917 0.0
H2355 H 0.63013 0.86474 0.6699 0.0
H2356 H 0.58353 0.86255 0.67595 0.0
H2357 H 0.58697 0.92884 0.6994 0.0
H2358 H 0.54687 0.02356 0.68096 0.0
H2359 H 0.5532 0.98543 0.69053 0.0
H2360 H 0.52432 0.90979 0.6636 0.0
C2361 C 0.60419 0.88356 0.67637 0.0
C2362 C 0.57233 0.92348 0.69179 0.0
C2363 C 0.6307 0.88485 0.67288 0.0
C2364 C 0.53266 0.00063 0.67826 0.0
C2365 C 0.53622 0.97849 0.68375 0.0
C2366 C 0.53638 0.91278 0.67182 0.0
C2367 C 0.60431 0.90952 0.67999 0.0
C2368 C 0.57638 0.91001 0.68169 0.0
C2369 C 0.52161 0.9492 0.67923 0.0
C2370 C 0.53465 0.92962 0.68133 0.0
H2371 H 0.67784 0.95937 0.67634 0.0
H2372 H 0.63186 0.95698 0.6828 0.0
H2373 H 0.5597 0.89265 0.66413 0.0
H2374 H 0.48265 0.95858 0.65695 0.0
H2375 H 0.48682 0.91931 0.6671 0.0
C2376 C 0.24381 0.90621 0.18584 0.0
C2377 C 0.23955 0.90625 0.17349 0.0
C2378 C 0.26922 0.90669 0.19031 0.0
C2379 C 0.33865 0.94222 0.19121 0.0
H2380 H 0.37231 0.89593 0.17873 0.0
C2381 C 0.43969 0.9699 0.16102 0.0
C2382 C 0.45985 -0.00208 0.16563 0.0
C2383 C 0.41623 0.94922 0.16796 0.0
C2384 C 0.36333 0.90903 0.18244 0.0
H2385 H 0.25673 0.90455 0.15615 0.0
H2386 H 0.3004 0.90411 0.16391 0.0
H2387 H 0.31843 0.87437 0.17935 0.0
H2388 H 0.47329 0.0256 0.18135 0.0
H2389 H 0.43251 0.98911 0.19374 0.0
H2390 H 0.38298 0.97827 0.19278 0.0
C2391 C 0.28441 0.90394 0.17015 0.0
C2392 C 0.33247 0.89652 0.18289 0.0
C2393 C 0.25962 0.90443 0.1657 0.0
C2394 C 0.45813 0.0039 0.17768 0.0
C2395 C 0.43454 0.98312 0.1847 0.0
C2396 C 0.36948 0.95498 0.1905 0.0
C2397 C 0.29 0.90616 0.18246 0.0
C2398 C 0.32003 0.91378 0.18652 0.0
C2399 C 0.41222 0.95628 0.17968 0.0
C2400 C 0.38211 0.93933 0.18517 0.0
H2401 H 0.22861 0.90789 0.19197 0.0
H2402 H 0.27336 0.90884 0.19981 0.0
H2403 H 0.32954 0.95597 0.19405 0.0
H2404 H 0.44067 0.96487 0.15172 0.0
H2405 H 0.39965 0.92907 0.16364 0.0
C2406 C 0.01714 0.4825 0.16202 0.0
C2407 C 0.98699 0.46593 0.16504 0.0
C2408 C 0.03812 0.47839 0.16823 0.0
C2409 C 0.04346 0.42768 0.1912 0.0
H2410 H 0.08865 0.41832 0.16582 0.0
C2411 C 0.04329 0.32162 0.17989 0.0
C2412 C 0.06909 0.32232 0.17573 0.0
C2413 C 0.04407 0.34774 0.18339 0.0
C2414 C 0.07691 0.42137 0.17316 0.0
H2415 H 0.95518 0.43432 0.17748 0.0
H2416 H -0.00905 0.42571 0.1879 0.0
H2417 H 0.07056 0.45259 0.16329 0.0
H2418 H 0.11627 0.35041 0.17253 0.0
H2419 H 0.11733 0.39676 0.17812 0.0
H2420 H 0.04716 0.39339 0.20036 0.0
C2421 C -0.00079 0.44269 0.18108 0.0
C2422 C 0.06646 0.44126 0.17176 0.0
C2423 C 0.97845 0.44755 0.17509 0.0
C2424 C 0.09612 0.34939 0.17575 0.0
C2425 C 0.09674 0.37579 0.17895 0.0
C2426 C 0.05337 0.40724 0.19247 0.0
C2427 C 0.02901 0.45648 0.17718 0.0
C2428 C 0.04798 0.44336 0.18044 0.0
C2429 C 0.07051 0.37523 0.18252 0.0
C2430 C 0.0688 0.40281 0.18317 0.0
H2431 H 0.02413 0.49686 0.15426 0.0
H2432 H 0.06101 0.49046 0.16528 0.0
H2433 H 0.03034 0.42944 0.1983 0.0
H2434 H 0.02223 0.30095 0.18 0.0
H2435 H 0.02344 0.34668 0.18593 0.0
C2436 C 0.53661 0.53121 0.17671 0.0
C2437 C 0.51873 0.5201 0.16658 0.0
C2438 C 0.53906 0.55603 0.18259 0.0
C2439 C 0.53642 0.62163 0.17225 0.0
H2440 H 0.58353 0.65352 0.20086 0.0
C2441 C 0.62813 0.74397 0.17506 0.0
C2442 C 0.65504 0.74373 0.17529 0.0
C2443 C 0.60156 0.71843 0.17833 0.0
C2444 C 0.5698 0.64495 0.19297 0.0
H2445 H 0.48625 0.52298 0.15551 0.0
H2446 H 0.48877 0.56505 0.16624 0.0
H2447 H 0.54842 0.60024 0.19944 0.0
H2448 H 0.67595 0.71804 0.17996 0.0
H2449 H 0.62996 0.67402 0.18601 0.0
H2450 H 0.55877 0.66623 0.16564 0.0
C2451 C 0.50205 0.55573 0.16941 0.0
C2452 C 0.54991 0.61438 0.19208 0.0
C2453 C 0.5002 0.53134 0.16335 0.0
C2454 C 0.6554 0.71862 0.17965 0.0
C2455 C 0.62914 0.69358 0.18323 0.0
C2456 C 0.55578 0.6522 0.17327 0.0
C2457 C 0.52348 0.57003 0.17842 0.0
C2458 C 0.53477 0.60203 0.18132 0.0
C2459 C 0.60185 0.69285 0.18225 0.0
C2460 C 0.57417 0.66379 0.18328 0.0
H2461 H 0.55127 0.52293 0.17926 0.0
H2462 H 0.55576 0.56598 0.18948 0.0
H2463 H 0.52536 0.61341 0.16379 0.0
H2464 H 0.62743 0.76316 0.17169 0.0
H2465 H 0.58072 0.71824 0.17738 0.0
C2466 C 0.23299 0.91146 0.98589 0.0
C2467 C 0.23671 0.90953 0.9982 0.0
C2468 C 0.23292 0.93642 0.98115 0.0
C2469 C 0.26883 0.00678 0.9787 0.0
H2470 H 0.22195 0.03956 0.9914 0.0
C2471 C 0.2975 0.10957 0.00741 0.0
C2472 C 0.32494 0.12934 0.00225 0.0
C2473 C 0.27599 0.08568 1.00089 0.0
C2474 C 0.23516 0.0308 0.9876 0.0
H2475 H 0.24114 0.93069 0.01527 0.0
H2476 H 0.23978 0.97353 0.00708 0.0
H2477 H 0.20227 0.98591 0.99191 0.0
H2478 H 0.35036 0.14211 0.98592 0.0
H2479 H 0.31245 0.10048 0.97431 0.0
H2480 H 0.30343 0.05141 0.97594 0.0
C2481 C 0.23725 0.95606 1.00109 0.0
C2482 C 0.22371 4e-05 0.98781 0.0
C2483 C 0.23827 0.93174 0.00576 0.0
C2484 C 0.3292 0.12718 0.99005 0.0
C2485 C 0.3076 0.10308 0.98346 0.0
C2486 C 0.2806 0.03757 0.97876 0.0
C2487 C 0.23542 0.95905 0.98874 0.0
C2488 C 0.24131 0.98808 0.98409 0.0
C2489 C 0.28167 0.08083 0.98908 0.0
C2490 C 0.26484 0.05005 0.98415 0.0
H2491 H 0.23196 0.89462 0.9799 0.0
H2492 H 0.23195 0.93857 0.97159 0.0
H2493 H 0.28281 -0.002 0.9758 0.0
H2494 H 0.29376 0.11094 0.01683 0.0
H2495 H 0.25652 0.06929 0.00565 0.0
C2496 C 0.05876 0.29665 0.00428 0.0
C2497 C 0.07743 0.32066 0.99695 0.0
C2498 C 0.03363 0.2721 0.99959 0.0
C2499 C 0.98221 0.21983 0.98722 0.0
H2500 H 0.93371 0.25308 0.97701 0.0
C2501 C 0.85643 0.20286 0.99029 0.0
C2502 C 0.85328 0.19518 0.00238 0.0
C2503 C 0.88083 0.2057 0.98385 0.0
C2504 C 0.94669 0.24281 0.97942 0.0
H2505 H 0.08569 0.3375 0.9789 0.0
H2506 H 0.04065 0.29476 0.97068 0.0
H2507 H 0.98729 0.28329 0.97613 0.0
H2508 H 0.87079 0.18137 0.01695 0.0
H2509 H 0.9131 0.1864 0.00597 0.0
H2510 H 0.94156 0.17991 0.99121 0.0
C2511 C 0.04596 0.29468 0.98 0.0
C2512 C 0.97762 0.26032 0.97892 0.0
C2513 C 0.07165 0.31902 0.98468 0.0
C2514 C 0.8728 0.18724 0.0076 0.0
C2515 C 0.89703 0.18999 1.00122 0.0
C2516 C 0.95123 0.20213 0.98755 0.0
C2517 C 0.02624 0.27142 0.98751 0.0
C2518 C -0.00441 0.24972 0.98365 0.0
C2519 C 0.90248 0.20115 0.9895 0.0
C2520 C 0.93316 0.21428 0.98458 0.0
H2521 H 0.0628 0.29755 0.01379 0.0
H2522 H 0.01868 0.25481 0.00565 0.0
H2523 H -0.00438 0.21097 0.99073 0.0
H2524 H 0.84186 0.20955 0.98617 0.0
H2525 H 0.88402 0.21384 0.97479 0.0
C2526 C 0.81024 0.68061 0.00234 0.0
C2527 C 0.78876 0.65142 0.9994 0.0
C2528 C 0.80908 0.70458 0.99718 0.0
C2529 C 0.75636 0.72003 0.97899 0.0
H2530 H 0.76324 0.76589 0.0072 0.0
C2531 C 0.67082 0.75736 0.98994 0.0
C2532 C 0.65857 0.7466 1.00127 0.0
C2533 C 0.69751 0.75867 0.98656 0.0
C2534 C 0.76137 0.75356 0.99915 0.0
H2535 H 0.75179 0.62403 0.98786 0.0
H2536 H 0.74858 0.66493 0.97933 0.0
H2537 H 0.7941 0.74377 0.00526 0.0
H2538 H 0.66547 0.73059 0.01814 0.0
H2539 H 0.7113 0.7329 0.01236 0.0
H2540 H 0.72075 0.72716 0.97373 0.0
C2541 C 0.76693 0.67028 0.98529 0.0
C2542 C 0.77948 0.741 0.99792 0.0
C2543 C 0.76865 0.64651 0.99021 0.0
C2544 C 0.67415 0.73873 0.00931 0.0
C2545 C 0.70075 0.74044 0.00603 0.0
C2546 C 0.7377 0.7321 0.98038 0.0
C2547 C 0.78553 0.69952 0.98946 0.0
C2548 C 0.77558 0.722 0.98828 0.0
C2549 C 0.71258 0.74991 0.99456 0.0
C2550 C 0.73856 0.74705 0.99092 0.0
H2551 H 0.82603 0.68482 0.00942 0.0
H2552 H 0.82483 0.7268 1.0002 0.0
H2553 H 0.75367 0.70689 0.97113 0.0
H2554 H 0.65922 0.76357 0.98358 0.0
H2555 H 0.70604 0.76597 0.97765 0.0
C2556 C 0.71394 0.04575 0.82617 0.0
C2557 C 0.73965 0.07246 0.82916 0.0
C2558 C 0.68825 0.04578 0.82261 0.0
C2559 C 0.64655 0.07767 0.83087 0.0
H2560 H 0.59611 0.03467 0.80413 0.0
C2561 C 0.52542 0.01353 0.83977 0.0
C2562 C 0.5134 0.98407 0.83594 0.0
C2563 C 0.55028 0.03632 0.83402 0.0
C2564 C 0.60975 0.04671 0.81169 0.0
H2565 H 0.75916 0.12028 0.83046 0.0
H2566 H 0.7132 0.12006 0.8249 0.0
H2567 H 0.64912 0.05139 0.80341 0.0
H2568 H 0.51501 0.95542 0.82241 0.0
H2569 H 0.55892 -0.00586 0.81281 0.0
H2570 H 0.60755 0.07 0.83992 0.0
C2571 C 0.71344 0.09932 0.82496 0.0
C2572 C 0.64021 0.05662 0.81117 0.0
C2573 C 0.73955 0.0994 0.82818 0.0
C2574 C 0.524 0.97812 0.82546 0.0
C2575 C 0.5494 0.00064 0.81994 0.0
C2576 C 0.61604 0.06703 0.83155 0.0
C2577 C 0.68754 0.07243 0.82227 0.0
C2578 C 0.65849 0.07082 0.82101 0.0
C2579 C 0.56439 0.02962 0.82478 0.0
C2580 C 0.59684 0.04963 0.82228 0.0
H2581 H 0.71355 0.02473 0.82677 0.0
H2582 H 0.66838 0.02472 0.82077 0.0
H2583 H 0.66024 0.08851 0.83859 0.0
H2584 H 0.51736 0.01853 0.84784 0.0
H2585 H 0.56007 0.05857 0.83763 0.0
C2586 C 0.88786 0.63984 0.82751 0.0
C2587 C 0.91504 0.66671 0.82833 0.0
C2588 C 0.88741 0.61338 0.82464 0.0
C2589 C 0.9079 0.5678 0.83153 0.0
H2590 H 0.94937 0.55667 0.80513 0.0
C2591 C 0.96852 0.50791 0.84156 0.0
C2592 C -0.00198 0.52426 0.83767 0.0
C2593 C 0.94628 0.51053 0.83564 0.0
C2594 C 0.93773 0.5593 0.8126 0.0
H2595 H 0.96274 0.68741 0.82601 0.0
H2596 H 0.96182 0.6414 0.8207 0.0
H2597 H 0.93407 0.59401 0.80375 0.0
H2598 H 0.02725 0.55308 0.82391 0.0
H2599 H -0.01052 0.5594 0.81403 0.0
H2600 H 0.91461 0.53649 0.8411 0.0
C2601 C 0.94096 0.64077 0.82235 0.0
C2602 C 0.92865 0.58046 0.81171 0.0
C2603 C 0.9415 0.667 0.82551 0.0
C2604 C 0.0045 0.54027 0.82702 0.0
C2605 C 0.98255 0.54377 0.82134 0.0
C2606 C 0.91772 0.54734 0.83258 0.0
C2607 C 0.91404 0.61367 0.82218 0.0
C2608 C 0.91499 0.58581 0.82141 0.0
C2609 C 0.95363 0.53089 0.82618 0.0
C2610 C 0.93449 0.54414 0.82341 0.0
H2611 H 0.86714 0.63902 0.82966 0.0
H2612 H 0.86648 0.5926 0.82471 0.0
H2613 H 0.89751 0.57169 0.83915 0.0
H2614 H 0.96313 0.49519 0.84974 0.0
H2615 H 0.924 0.49889 0.83927 0.0
C2616 C 0.34635 0.24419 0.82801 0.0
C2617 C 0.31923 0.24399 0.82862 0.0
C2618 C 0.37238 0.27011 0.82462 0.0
C2619 C 0.40244 0.34356 0.81049 0.0
H2620 H 0.45029 0.37505 0.83891 0.0
C2621 C 0.44053 0.45869 0.82629 0.0
C2622 C 0.45863 0.46933 0.83639 0.0
C2623 C 0.43709 0.43353 0.82038 0.0
C2624 C 0.43828 0.36686 0.83063 0.0
H2625 H 0.29746 0.26961 0.82534 0.0
H2626 H 0.34264 0.31446 0.81912 0.0
H2627 H 0.41591 0.3224 0.83739 0.0
H2628 H 0.49069 0.46531 0.84729 0.0
H2629 H 0.48674 0.42281 0.83641 0.0
H2630 H 0.42415 0.38805 0.80379 0.0
C2631 C 0.34391 0.29483 0.82135 0.0
C2632 C 0.41832 0.33639 0.82982 0.0
C2633 C 0.31816 0.26932 0.82505 0.0
C2634 C 0.47656 0.45732 0.83948 0.0
C2635 C 0.47382 0.43263 0.83335 0.0
C2636 C 0.42303 0.37402 0.81113 0.0
C2637 C 0.37138 0.29575 0.82142 0.0
C2638 C 0.39885 0.32486 0.82013 0.0
C2639 C 0.45195 0.41871 0.82446 0.0
C2640 C 0.4395 0.38645 0.82164 0.0
H2641 H 0.34768 0.22486 0.83071 0.0
H2642 H 0.3934 0.27047 0.82487 0.0
H2643 H 0.38786 0.335 0.80283 0.0
H2644 H 0.42634 0.46761 0.82383 0.0
H2645 H 0.42017 0.42403 0.81356 0.0
C2646 C 0.64793 0.85879 0.01293 0.0
C2647 C 0.64977 0.85507 1.00066 0.0
C2648 C 0.67064 0.88374 0.01872 0.0
C2649 C 0.69797 0.94963 0.02241 0.0
H2650 H 0.77399 0.00026 0.00726 0.0
C2651 C 0.74044 0.05708 0.99534 0.0
C2652 C 0.74222 0.07885 0.00322 0.0
C2653 C 0.7409 0.03215 0.99966 0.0
C2654 C 0.75321 0.98642 0.01187 0.0
H2655 H 0.6777 0.87189 0.98507 0.0
H2656 H 0.71686 0.91512 0.99489 0.0
H2657 H 0.75415 0.9466 0.00799 0.0
H2658 H 0.74659 0.09227 0.02171 0.0
H2659 H 0.7456 0.0473 0.02938 0.0
H2660 H 0.6965 0.98947 0.02571 0.0
C2661 C 0.69853 0.89919 1.0003 0.0
C2662 C 0.74168 0.95566 0.01222 0.0
C2663 C 0.67594 0.87437 0.99457 0.0
C2664 C 0.74537 0.07576 0.01548 0.0
C2665 C 0.74489 0.05022 0.01985 0.0
C2666 C 0.70984 0.98043 0.02229 0.0
C2667 C 0.69519 0.90541 0.01223 0.0
C2668 C 0.71273 0.93673 0.01654 0.0
C2669 C 0.74236 0.02812 0.01195 0.0
C2670 C 0.73646 -0.00124 0.01624 0.0
H2671 H 0.62763 0.84436 0.01772 0.0
H2672 H 0.66759 0.88743 0.02798 0.0
H2673 H 0.6757 0.93603 0.02587 0.0
H2674 H 0.73807 0.05905 0.98585 0.0
H2675 H 0.73838 0.01513 0.99341 0.0
C2676 C 0.92893 0.65864 0.01703 0.0
C2677 C 0.90558 0.65912 0.01097 0.0
C2678 C 0.95384 0.68508 0.02058 0.0
C2679 C -0.00194 0.75648 0.00807 0.0
H2680 H 0.04932 0.76613 0.03481 0.0
C2681 C 0.1197 0.80989 0.99893 0.0
C2682 C 0.13049 0.79141 0.00278 0.0
C2683 C 0.09489 0.8085 0.00445 0.0
C2684 C 0.03535 0.764 0.02728 0.0
H2685 H 0.88878 0.68722 0.00453 0.0
H2686 H 0.93324 0.73397 0.01036 0.0
H2687 H -0.00425 0.73278 0.03653 0.0
H2688 H 0.12608 0.7591 0.01592 0.0
H2689 H 0.08253 0.75567 0.02531 0.0
H2690 H 0.03726 0.78467 0.9983 0.0
C2691 C 0.9319 0.71303 0.01257 0.0
C2692 C 0.00463 0.74508 0.02833 0.0
C2693 C 0.90653 0.68637 0.00925 0.0
C2694 C 0.11824 0.77382 0.01292 0.0
C2695 C 0.09317 0.77198 0.01832 0.0
C2696 C 0.02874 0.77496 0.00695 0.0
C2697 C 0.95621 0.71262 0.0179 0.0
C2698 C 0.98594 0.73977 0.01848 0.0
C2699 C 0.07989 0.78773 0.01361 0.0
C2700 C 0.04799 0.77738 0.01628 0.0
H2701 H 0.92861 0.63785 0.01846 0.0
H2702 H 0.97232 0.684 0.02451 0.0
H2703 H 0.98426 0.7528 1.0003 0.0
H2704 H 0.12883 0.82351 0.99104 0.0
H2705 H 0.08597 0.82173 1.00081 0.0
C2706 C 0.18723 0.31105 0.99229 0.0
C2707 C 0.19235 0.33572 0.99911 0.0
C2708 C 0.18777 0.28708 0.99759 0.0
C2709 C 0.19583 0.2401 0.00932 0.0
H2710 H 0.27228 0.28095 0.02519 0.0
C2711 C 0.31061 0.23387 0.01539 0.0
C2712 C 0.31723 0.23569 0.00319 0.0
C2713 C 0.28525 0.23449 0.01926 0.0
C2714 C 0.25052 0.26873 0.0211 0.0
H2715 H 0.19863 0.35357 0.01695 0.0
H2716 H 0.19951 0.31144 0.02635 0.0
H2717 H 0.24116 0.30349 0.02477 0.0
H2718 H 0.30182 0.23729 0.98544 0.0
H2719 H 0.25724 0.23735 0.99212 0.0
H2720 H 0.20719 0.2071 0.00446 0.0
C2721 C 0.19524 0.31062 0.01688 0.0
C2722 C 0.23249 0.28162 0.02088 0.0
C2723 C 0.19441 0.33461 0.01154 0.0
C2724 C 0.29718 0.23596 0.9949 0.0
C2725 C 0.27155 0.23571 0.99873 0.0
C2726 C 0.21409 0.22746 0.00938 0.0
C2727 C 0.19395 0.28754 0.00982 0.0
C2728 C 0.20597 0.26854 0.01421 0.0
C2729 C 0.26579 0.23593 0.01094 0.0
C2730 C 0.24243 0.24269 0.0146 0.0
H2731 H 0.18559 0.3115 0.98268 0.0
H2732 H 0.18675 0.26994 0.99179 0.0
H2733 H 0.17513 0.22899 0.00441 0.0
H2734 H 0.3259 0.23381 0.02194 0.0
H2735 H 0.2814 0.23494 0.02872 0.0
C2736 C 0.11958 0.30382 0.49787 0.0
C2737 C 0.13135 0.33373 0.501 0.0
C2738 C 0.09495 0.28166 0.50395 0.0
C2739 C 0.03606 0.27307 0.52612 0.0
H2740 H 0.9849 0.22975 0.49958 0.0
C2741 C 0.93305 0.27555 0.51185 0.0
C2742 C 0.90749 0.24947 0.5082 0.0
C2743 C 0.95812 0.27462 0.51564 0.0
C2744 C -0.00126 0.24097 0.50722 0.0
H2745 H 0.12933 0.36403 0.51361 0.0
H2746 H 0.08585 0.32623 0.52383 0.0
H2747 H 0.0375 0.24779 0.4982 0.0
H2748 H 0.88749 0.20179 0.50601 0.0
H2749 H 0.93236 0.20047 0.51202 0.0
H2750 H -0.00299 0.26918 0.53437 0.0
C2751 C 0.0955 0.31901 0.51699 0.0
C2752 C 0.02919 0.25135 0.5065 0.0
C2753 C 0.1206 0.34097 0.51112 0.0
C2754 C 0.907 0.22219 0.50881 0.0
C2755 C 0.9325 0.22139 0.51228 0.0
C2756 C 0.00564 0.26332 0.52669 0.0
C2757 C 0.08088 0.28937 0.51286 0.0
C2758 C 0.04862 0.26939 0.51559 0.0
C2759 C 0.95838 0.24771 0.51557 0.0
C2760 C 0.98713 0.2487 0.51695 0.0
H2761 H 0.12769 0.29785 0.49006 0.0
H2762 H 0.08526 0.25896 0.50085 0.0
H2763 H 0.04998 0.28573 0.53352 0.0
H2764 H 0.93387 0.2968 0.51154 0.0
H2765 H 0.97797 0.29529 0.51793 0.0
C2766 C 0.68234 0.8027 0.49517 0.0
C2767 C 0.65428 0.79509 0.49966 0.0
C2768 C 0.70258 0.79941 0.50219 0.0
C2769 C 0.69523 0.74549 0.52425 0.0
H2770 H 0.77672 0.77573 0.51418 0.0
C2771 C 0.74454 0.66874 0.52003 0.0
C2772 C 0.74714 0.6659 0.50771 0.0
C2773 C 0.74296 0.6931 0.52452 0.0
C2774 C 0.75426 0.76736 0.5174 0.0
H2775 H 0.62633 0.78125 0.51532 0.0
H2776 H 0.66195 0.77564 0.52778 0.0
H2777 H 0.75526 0.80815 0.51347 0.0
H2778 H 0.75242 0.68687 0.49054 0.0
H2779 H 0.75091 0.7299 0.49839 0.0
H2780 H 0.69383 0.70421 0.52752 0.0
C2781 C 0.66828 0.7839 0.51878 0.0
C2782 C 0.74185 0.7858 0.51692 0.0
C2783 C 0.64798 0.7874 0.51171 0.0
C2784 C 0.75047 0.6887 0.50007 0.0
C2785 C 0.74983 0.71338 0.50458 0.0
C2786 C 0.70785 0.72727 0.52496 0.0
C2787 C 0.69503 0.78802 0.51384 0.0
C2788 C 0.71141 0.77422 0.51932 0.0
C2789 C 0.74499 0.7153 0.51678 0.0
C2790 C 0.73669 0.73738 0.52067 0.0
H2791 H 0.68767 0.8088 0.48589 0.0
H2792 H 0.72274 0.80274 0.49795 0.0
H2793 H 0.67179 0.73567 0.52625 0.0
H2794 H 0.74168 0.65119 0.52605 0.0
H2795 H 0.73886 0.69397 0.53393 0.0
C2796 C 0.20592 0.86249 0.51106 0.0
C2797 C 0.18842 0.85172 0.50081 0.0
C2798 C 0.20866 0.88752 0.51686 0.0
C2799 C 0.20671 0.95354 0.50621 0.0
H2800 H 0.25525 0.98615 0.53444 0.0
C2801 C 0.29819 0.07576 0.50796 0.0
C2802 C 0.32517 0.07567 0.50796 0.0
C2803 C 0.27193 0.05039 0.51162 0.0
C2804 C 0.24116 0.97738 0.52665 0.0
H2805 H 0.15644 0.85506 0.48959 0.0
H2806 H 0.15912 0.89721 0.50028 0.0
H2807 H 0.21987 0.93289 0.53335 0.0
H2808 H 0.34662 0.0505 0.51265 0.0
H2809 H 0.30118 0.00676 0.51937 0.0
H2810 H 0.2288 -0.00206 0.49941 0.0
C2811 C 0.17221 0.88774 0.50351 0.0
C2812 C 0.22111 0.9468 0.52594 0.0
C2813 C 0.17021 0.86325 0.49749 0.0
C2814 C 0.326 0.05096 0.51253 0.0
C2815 C 0.30006 0.02608 0.51649 0.0
C2816 C 0.22618 0.98412 0.50706 0.0
C2817 C 0.1936 0.90195 0.51255 0.0
C2818 C 0.20538 0.93414 0.51531 0.0
C2819 C 0.27262 0.02511 0.51568 0.0
C2820 C 0.24507 -0.00403 0.51692 0.0
H2821 H 0.22026 0.8539 0.51371 0.0
H2822 H 0.22523 0.89727 0.52381 0.0
H2823 H 0.19524 0.94517 0.49784 0.0
H2824 H 0.2971 0.09461 0.50443 0.0
H2825 H 0.25097 0.05001 0.51081 0.0
C2826 C 0.96705 0.45458 0.3374 0.0
C2827 C -0.00338 0.46487 0.33412 0.0
C2828 C 0.94398 0.42995 0.33166 0.0
C2829 C 0.93062 0.36911 0.30974 0.0
H2830 H 0.88833 0.31974 0.33684 0.0
C2831 C 0.9292 0.2639 0.32254 0.0
C2832 C 0.90442 0.24022 0.32802 0.0
C2833 C 0.92811 0.28878 0.31861 0.0
C2834 C 0.89913 0.33305 0.32903 0.0
H2835 H 0.02549 0.46017 0.32159 0.0
H2836 H 0.98591 0.41666 0.3119 0.0
H2837 H 0.90922 0.37285 0.33812 0.0
H2838 H 0.85853 0.22294 0.33318 0.0
H2839 H 0.85704 0.26757 0.3268 0.0
H2840 H 0.92316 0.32892 0.30128 0.0
C2841 C 0.97979 0.42754 0.31861 0.0
C2842 C 0.91121 0.3638 0.32972 0.0
C2843 C 0.00271 0.45259 0.32418 0.0
C2844 C 0.87789 0.24103 0.32895 0.0
C2845 C 0.87703 0.26642 0.32529 0.0
C2846 C 0.91895 0.33832 0.30914 0.0
C2847 C 0.95036 0.41453 0.3229 0.0
C2848 C 0.92893 0.38247 0.3204 0.0
C2849 C 0.90242 0.29082 0.32035 0.0
C2850 C 0.90474 0.32031 0.31908 0.0
H2851 H 0.96198 0.46389 0.34508 0.0
H2852 H 0.92153 0.42135 0.3349 0.0
H2853 H 0.94313 0.38258 0.3022 0.0
H2854 H 0.94983 0.26363 0.32169 0.0
H2855 H 0.94817 0.30737 0.31503 0.0
C2856 C 0.72032 0.6331 0.33903 0.0
C2857 C 0.7415 0.65516 0.33157 0.0
C2858 C 0.69538 0.60857 0.33421 0.0
C2859 C 0.64836 0.55393 0.32052 0.0
H2860 H 0.5986 0.58536 0.30987 0.0
C2861 C 0.52175 0.53402 0.323 0.0
C2862 C 0.5189 0.52599 0.33506 0.0
C2863 C 0.54613 0.5372 0.31643 0.0
C2864 C 0.61199 0.5756 0.31235 0.0
H2865 H 0.754 0.66869 0.31325 0.0
H2866 H 0.7091 0.62622 0.30476 0.0
H2867 H 0.65215 0.61716 0.30989 0.0
H2868 H 0.5363 0.51105 0.34928 0.0
H2869 H 0.57837 0.51657 0.3381 0.0
H2870 H 0.60824 0.51278 0.32357 0.0
C2871 C 0.71247 0.62755 0.31431 0.0
C2872 C 0.64285 0.59403 0.31239 0.0
C2873 C 0.73801 0.65173 0.31915 0.0
C2874 C 0.53823 0.51743 0.33998 0.0
C2875 C 0.56236 0.52046 0.33347 0.0
C2876 C 0.61752 0.53525 0.32021 0.0
C2877 C 0.69075 0.60605 0.32184 0.0
C2878 C 0.66104 0.58397 0.31732 0.0
C2879 C 0.56791 0.53253 0.3219 0.0
C2880 C 0.59886 0.54668 0.31715 0.0
H2881 H 0.72255 0.63536 0.34862 0.0
H2882 H 0.67868 0.59258 0.3402 0.0
H2883 H 0.66206 0.54562 0.32423 0.0
H2884 H 0.5071 0.54084 0.31905 0.0
H2885 H 0.54928 0.54585 0.30744 0.0
C2886 C 0.33289 0.08434 0.31813 0.0
C2887 C 0.32956 0.08732 0.33037 0.0
C2888 C 0.35773 0.08319 0.31392 0.0
C2889 C 0.39285 0.04985 0.31297 0.0
H2890 H 0.4708 0.09261 0.32757 0.0
C2891 C 0.4597 0.01321 0.3426 0.0
C2892 C 0.45395 0.98724 0.3366 0.0
C2893 C 0.45829 0.03592 0.33658 0.0
C2894 C 0.44936 0.08062 0.32323 0.0
H2895 H 0.35021 0.09386 0.34768 0.0
H2896 H 0.39376 0.09281 0.34039 0.0
H2897 H 0.43953 0.11534 0.32678 0.0
H2898 H 0.44547 0.96572 0.31941 0.0
H2899 H 0.44291 0.00557 0.30875 0.0
H2900 H 0.40107 0.01386 0.31058 0.0
C2901 C 0.37742 0.09121 0.33399 0.0
C2902 C 0.4315 0.09369 0.32275 0.0
C2903 C 0.3524 0.0916 0.3382 0.0
C2904 C 0.45021 0.98571 0.3242 0.0
C2905 C 0.44844 0.00841 0.31814 0.0
C2906 C 0.41057 0.03665 0.31356 0.0
C2907 C 0.37983 0.0858 0.32189 0.0
C2908 C 0.4023 0.07758 0.31835 0.0
C2909 C 0.45057 0.03288 0.32444 0.0
C2910 C 0.43811 0.05101 0.31951 0.0
H2911 H 0.31536 0.08075 0.31197 0.0
H2912 H 0.35897 0.07883 0.30457 0.0
H2913 H 0.37045 0.03687 0.30952 0.0
H2914 H 0.46258 0.01478 0.35219 0.0
H2915 H 0.45995 0.05422 0.3418 0.0
C2916 C 0.19514 0.3983 0.05065 0.0
C2917 C 0.17856 0.37851 0.04154 0.0
C2918 C 0.19937 0.38756 0.06146 0.0
C2919 C 0.18222 0.31704 0.07768 0.0
H2920 H 0.16985 0.35766 0.10411 0.0
C2921 C 0.11334 0.26075 0.11946 0.0
C2922 C 0.12304 0.27494 0.13052 0.0
C2923 C 0.12989 0.2737 0.10917 0.0
C2924 C 0.17397 0.34636 0.09689 0.0
H2925 H 0.15448 0.33241 0.03615 0.0
H2926 H 0.1606 0.31333 0.05509 0.0
H2927 H 0.18167 0.38075 0.08462 0.0
H2928 H 0.15778 0.31328 0.13963 0.0
H2929 H 0.18672 0.33643 0.12153 0.0
H2930 H 0.17177 0.28145 0.08997 0.0
C2931 C 0.1714 0.33719 0.05394 0.0
C2932 C 0.1809 0.35966 0.08565 0.0
C2933 C 0.16776 0.34804 0.04305 0.0
C2934 C 0.15026 0.30166 0.13123 0.0
C2935 C 0.1666 0.31497 0.12088 0.0
C2936 C 0.17471 0.3035 0.0889 0.0
C2937 C 0.1862 0.35672 0.06349 0.0
C2938 C 0.18426 0.34483 0.07578 0.0
C2939 C 0.15614 0.30144 0.10972 0.0
C2940 C 0.16975 0.31773 0.09853 0.0
H2941 H 0.20344 0.42192 0.04964 0.0
H2942 H 0.21164 0.40341 0.06843 0.0
H2943 H 0.18532 0.30518 0.07041 0.0
H2944 H 0.09228 0.24021 0.1187 0.0
H2945 H 0.12109 0.26297 0.10068 0.0
C2946 C 0.58466 0.7838 0.05331 0.0
C2947 C 0.59966 0.79138 0.04235 0.0
C2948 C 0.59892 0.79949 0.06365 0.0
C2949 C 0.67201 0.83344 0.07613 0.0
H2950 H 0.63996 0.85804 0.10206 0.0
C2951 C 0.73012 0.85946 0.12121 0.0
C2952 C 0.7117 0.84903 0.13125 0.0
C2953 C 0.71878 0.86192 0.11025 0.0
C2954 C 0.64919 0.85106 0.09497 0.0
H2955 H 0.64102 0.82141 0.03352 0.0
H2956 H 0.66607 0.84884 0.0516 0.0
H2957 H 0.61434 0.84442 0.08286 0.0
H2958 H 0.66749 0.83414 0.13798 0.0
H2959 H 0.64704 0.83681 0.11879 0.0
H2960 H 0.70533 0.83744 0.0882 0.0
C2961 C 0.6431 0.8312 0.05215 0.0
C2962 C 0.63459 0.84351 0.08393 0.0
C2963 C 0.62865 0.8158 0.04178 0.0
C2964 C 0.68219 0.84268 0.13036 0.0
C2965 C 0.67054 0.84426 0.11931 0.0
C2966 C 0.68622 0.84032 0.08717 0.0
C2967 C 0.62868 0.82257 0.06324 0.0
C2968 C 0.64571 0.8343 0.07446 0.0
C2969 C 0.6884 0.85277 0.10897 0.0
C2970 C 0.67487 0.84886 0.09685 0.0
H2971 H 0.56244 0.76476 0.05398 0.0
H2972 H 0.5874 0.79215 0.07209 0.0
H2973 H 0.68078 0.82585 0.06905 0.0
H2974 H 0.75298 0.86443 0.12173 0.0
H2975 H 0.73364 0.86967 0.10268 0.0
C2976 C 0.1237 0.83921 0.12811 0.0
C2977 C 0.13922 0.87047 0.12834 0.0
C2978 C 0.12017 0.82387 0.11739 0.0
C2979 C 0.12696 0.83341 0.08443 0.0
H2980 H 0.16054 0.78156 0.08578 0.0
C2981 C 0.2079 0.81125 0.05388 0.0
C2982 C 0.19558 0.80923 0.04254 0.0
C2983 C 0.19151 0.80828 0.06414 0.0
C2984 C 0.15077 0.7957 0.08525 0.0
H2985 H 0.16014 0.90994 0.11718 0.0
H2986 H 0.15359 0.8835 0.0987 0.0
H2987 H 0.14754 0.79725 0.10423 0.0
H2988 H 0.15588 0.8009 0.03307 0.0
H2989 H 0.12698 0.79566 0.05107 0.0
H2990 H 0.13211 0.83363 0.06553 0.0
C2991 C 0.14457 0.87065 0.10678 0.0
C2992 C 0.14305 0.80446 0.09582 0.0
C2993 C 0.14854 0.88586 0.11745 0.0
C2994 C 0.16581 0.80224 0.04168 0.0
C2995 C 0.1494 0.79955 0.05199 0.0
C2996 C 0.13459 0.8246 0.07387 0.0
C2997 C 0.13128 0.83954 0.10665 0.0
C2998 C 0.1323 0.82448 0.09554 0.0
C2999 C 0.16243 0.80348 0.06333 0.0
C3000 C 0.1478 0.8067 0.07419 0.0
H3001 H 0.11539 0.8266 0.13621 0.0
H3002 H 0.10947 0.79983 0.11755 0.0
H3003 H 0.11838 0.84858 0.08393 0.0
H3004 H 0.2308 0.81657 0.05482 0.0
H3005 H 0.20242 0.81179 0.07268 0.0
C3006 C 0.38931 0.18495 0.45213 0.0
C3007 C 0.37402 0.17782 0.463 0.0
C3008 C 0.37611 0.18811 0.44181 0.0
C3009 C 0.30288 0.15503 0.42906 0.0
H3010 H 0.34205 0.20994 0.403 0.0
C3011 C 0.24954 0.12594 0.38312 0.0
C3012 C 0.26908 0.13043 0.37373 0.0
C3013 C 0.26045 0.14037 0.39401 0.0
C3014 C 0.33078 0.19431 0.41015 0.0
H3015 H 0.33324 0.16863 0.47175 0.0
H3016 H 0.31001 0.17428 0.45371 0.0
H3017 H 0.36595 0.22001 0.42253 0.0
H3018 H 0.3149 0.15418 0.36799 0.0
H3019 H 0.33431 0.1785 0.38706 0.0
H3020 H 0.2689 0.12805 0.41672 0.0
C3021 C 0.33242 0.17796 0.45319 0.0
C3022 C 0.34442 0.20024 0.42136 0.0
C3023 C 0.34583 0.17516 0.46354 0.0
C3024 C 0.29942 0.15089 0.37509 0.0
C3025 C 0.31047 0.16482 0.38606 0.0
C3026 C 0.28948 0.14885 0.41785 0.0
C3027 C 0.34708 0.18356 0.44215 0.0
C3028 C 0.33087 0.18031 0.43086 0.0
C3029 C 0.29126 0.15873 0.39585 0.0
C3030 C 0.30352 0.16802 0.40814 0.0
H3031 H 0.41091 0.18662 0.4515 0.0
H3032 H 0.38779 0.19201 0.43342 0.0
H3033 H 0.2921 0.13897 0.43614 0.0
H3034 H 0.22604 0.11001 0.38224 0.0
H3035 H 0.2448 0.13579 0.40117 0.0
C3036 C 0.83781 0.14881 0.37529 0.0
C3037 C 0.85957 0.1406 0.37402 0.0
C3038 C 0.8247 0.14679 0.38641 0.0
C3039 C 0.84168 0.14438 0.41858 0.0
H3040 H 0.76785 0.14474 0.42286 0.0
C3041 C 0.80777 0.16689 0.46448 0.0
C3042 C 0.80483 0.19231 0.46415 0.0
C3043 C 0.80705 0.15223 0.45389 0.0
C3044 C 0.78837 0.14435 0.4218 0.0
H3045 H 0.88329 0.12189 0.38295 0.0
H3046 H 0.85889 0.11605 0.40211 0.0
H3047 H 0.77996 0.13281 0.40336 0.0
H3048 H 0.79715 0.22139 0.45275 0.0
H3049 H 0.79491 0.1953 0.43433 0.0
H3050 H 0.84992 0.15589 0.43704 0.0
C3051 C 0.85278 0.12546 0.39479 0.0
C3052 C 0.79554 0.13781 0.41059 0.0
C3053 C 0.86646 0.12829 0.38376 0.0
C3054 C 0.79914 0.20162 0.45322 0.0
C3055 C 0.79782 0.18666 0.44269 0.0
C3056 C 0.8342 0.15026 0.4298 0.0
C3057 C 0.83273 0.13599 0.39645 0.0
C3058 C 0.82275 0.13858 0.40871 0.0
C3059 C 0.8029 0.16252 0.44286 0.0
C3060 C 0.80788 0.1511 0.43147 0.0
H3061 H 0.8325 0.15877 0.3679 0.0
H3062 H 0.80971 0.15548 0.38721 0.0
H3063 H 0.86313 0.14595 0.4176 0.0
H3064 H 0.81289 0.15975 0.47276 0.0
H3065 H 0.81107 0.13369 0.45426 0.0
C3066 C 0.8379 0.68421 0.37583 0.0
C3067 C 0.8465 0.71435 0.37473 0.0
C3068 C 0.84025 0.67279 0.38682 0.0
C3069 C 0.84158 0.69143 0.41879 0.0
H3070 H 0.84196 0.61765 0.42341 0.0
C3071 C 0.81644 0.63677 0.46464 0.0
C3072 C 0.79281 0.60735 0.4645 0.0
C3073 C 0.83165 0.65038 0.45414 0.0
C3074 C 0.84202 0.63839 0.42226 0.0
H3075 H 0.86644 0.75673 0.38377 0.0
H3076 H 0.87269 0.7375 0.4027 0.0
H3077 H 0.85451 0.6418 0.40389 0.0
H3078 H 0.76698 0.56869 0.45345 0.0
H3079 H 0.79367 0.59226 0.43506 0.0
H3080 H 0.82873 0.68784 0.43705 0.0
C3081 C 0.86289 0.7222 0.39532 0.0
C3082 C 0.84905 0.65218 0.41105 0.0
C3083 C 0.85984 0.73341 0.38443 0.0
C3084 C 0.78561 0.59121 0.45381 0.0
C3085 C 0.80091 0.60473 0.4433 0.0
C3086 C 0.83502 0.67791 0.42997 0.0
C3087 C 0.85161 0.69145 0.39687 0.0
C3088 C 0.84828 0.6786 0.40909 0.0
C3089 C 0.82329 0.63483 0.44327 0.0
C3090 C 0.83454 0.65093 0.43179 0.0
H3091 H 0.82703 0.66904 0.36849 0.0
H3092 H 0.83109 0.649 0.38759 0.0
H3093 H 0.83987 0.71122 0.41768 0.0
H3094 H 0.82143 0.65007 0.47263 0.0
H3095 H 0.8488 0.67359 0.45439 0.0
C3096 C 0.83688 0.7152 0.87646 0.0
C3097 C 0.85318 0.70356 0.87103 0.0
C3098 C 0.82195 0.70309 0.88724 0.0
C3099 C 0.79615 0.6385 0.90773 0.0
H3100 H 0.82898 0.69731 0.93291 0.0
C3101 C 0.84268 0.64183 0.95613 0.0
C3102 C 0.81883 0.6188 0.96235 0.0
C3103 C 0.83785 0.6529 0.94558 0.0
C3104 C 0.81907 0.68067 0.92598 0.0
H3105 H 0.86492 0.66906 0.8719 0.0
H3106 H 0.83843 0.64755 0.89039 0.0
H3107 H 0.83455 0.71351 0.91217 0.0
H3108 H 0.77106 0.58972 0.96259 0.0
H3109 H 0.76267 0.60842 0.94364 0.0
H3110 H 0.78236 0.60568 0.92155 0.0
C3111 C 0.83719 0.66601 0.88652 0.0
C3112 C 0.82209 0.68993 0.91411 0.0
C3113 C 0.85255 0.67846 0.87598 0.0
C3114 C 0.7898 0.60754 0.95796 0.0
C3115 C 0.78502 0.61816 0.94716 0.0
C3116 C 0.79278 0.62924 0.91962 0.0
C3117 C 0.82255 0.67874 0.89249 0.0
C3118 C 0.81191 0.66895 0.90484 0.0
C3119 C 0.80911 0.64081 0.94084 0.0
C3120 C 0.80544 0.65028 0.9288 0.0
H3121 H 0.83716 0.73462 0.87278 0.0
H3122 H 0.81084 0.71333 0.89169 0.0
H3123 H 0.78801 0.62186 0.90075 0.0
H3124 H 0.86526 0.65106 0.95934 0.0
H3125 H 0.85686 0.67008 0.94083 0.0
C3126 C 0.29771 0.13953 0.87199 0.0
C3127 C 0.27074 0.13958 0.87239 0.0
C3128 C 0.3114 0.13823 0.88255 0.0
C3129 C 0.34249 0.16569 0.90649 0.0
H3130 H 0.3043 0.11154 0.93286 0.0
C3131 C 0.34893 0.16894 0.96081 0.0
C3132 C 0.37926 0.18971 0.96196 0.0
C3133 C 0.33723 0.15567 0.94978 0.0
C3134 C 0.31529 0.12707 0.92565 0.0
H3135 H 0.23612 0.13676 0.88399 0.0
H3136 H 0.25954 0.13357 0.90238 0.0
H3137 H 0.27956 0.1011 0.91351 0.0
H3138 H 0.4216 0.21145 0.95289 0.0
H3139 H 0.40186 0.18669 0.93388 0.0
H3140 H 0.3769 0.19312 0.9186 0.0
C3141 C 0.27013 0.13456 0.89395 0.0
C3142 C 0.30117 0.12085 0.91453 0.0
C3143 C 0.25679 0.13646 0.88344 0.0
C3144 C 0.39814 0.19524 0.95221 0.0
C3145 C 0.38662 0.18142 0.94126 0.0
C3146 C 0.35628 0.17229 0.91764 0.0
C3147 C 0.29802 0.13642 0.89364 0.0
C3148 C 0.31448 0.14034 0.9049 0.0
C3149 C 0.35575 0.16265 0.93969 0.0
C3150 C 0.34269 0.15337 0.92748 0.0
H3151 H 0.30925 0.14274 0.86363 0.0
H3152 H 0.33299 0.13984 0.88209 0.0
H3153 H 0.35299 0.18136 0.89926 0.0
H3154 H 0.33385 0.16497 0.96814 0.0
H3155 H 0.31336 0.14171 0.94904 0.0
C3156 C 0.86149 0.12568 0.88127 0.0
C3157 C 0.84859 0.13179 0.87151 0.0
C3158 C 0.86415 0.13956 0.89222 0.0
C3159 C 0.85071 0.19588 0.90795 0.0
H3160 H 0.83025 0.13993 0.934 0.0
C3161 C 0.7867 0.1931 0.95042 0.0
C3162 C 0.79394 0.18458 0.9612 0.0
C3163 C 0.80218 0.19486 0.93999 0.0
C3164 C 0.83659 0.15613 0.9269 0.0
H3165 H 0.82931 0.15779 0.86527 0.0
H3166 H 0.8327 0.18125 0.88447 0.0
H3167 H 0.84112 0.1275 0.9146 0.0
H3168 H 0.82315 0.17163 0.96963 0.0
H3169 H 0.85058 0.17502 0.95143 0.0
H3170 H 0.84388 0.22348 0.9203 0.0
C3171 C 0.84183 0.16661 0.8837 0.0
C3172 C 0.84297 0.14906 0.91571 0.0
C3173 C 0.83985 0.15321 0.87265 0.0
C3174 C 0.81791 0.17933 0.96153 0.0
C3175 C 0.83323 0.18078 0.95107 0.0
C3176 C 0.84384 0.20275 0.91915 0.0
C3177 C 0.85294 0.15906 0.89377 0.0
C3178 C 0.84969 0.16858 0.90599 0.0
C3179 C 0.82481 0.18754 0.94011 0.0
C3180 C 0.83627 0.18271 0.9287 0.0
H3181 H 0.86825 0.1091 0.88056 0.0
H3182 H 0.87375 0.13386 0.8996 0.0
H3183 H 0.85624 0.21175 0.90079 0.0
H3184 H 0.76791 0.19671 0.94993 0.0
H3185 H 0.79492 0.19978 0.93168 0.0
C3186 C 0.5795 0.79701 0.54922 0.0
C3187 C 0.59785 0.8065 0.53915 0.0
C3188 C 0.59078 0.79513 0.56029 0.0
C3189 C 0.65925 0.80418 0.57581 0.0
H3190 H 0.62922 0.83194 0.6014 0.0
C3191 C 0.72382 0.86733 0.61831 0.0
C3192 C 0.70802 0.85997 0.62908 0.0
C3193 C 0.70967 0.85293 0.60773 0.0
C3194 C 0.63754 0.82367 0.59441 0.0
H3195 H 0.64205 0.82079 0.53255 0.0
H3196 H 0.66229 0.81869 0.55187 0.0
H3197 H 0.6053 0.82132 0.58211 0.0
H3198 H 0.66525 0.832 0.63731 0.0
H3199 H 0.64044 0.80667 0.61887 0.0
H3200 H 0.69296 0.80887 0.58816 0.0
C3201 C 0.63887 0.81155 0.5513 0.0
C3202 C 0.6237 0.81736 0.5833 0.0
C3203 C 0.62731 0.81271 0.54016 0.0
C3204 C 0.67819 0.83718 0.62921 0.0
C3205 C 0.66391 0.82307 0.61863 0.0
C3206 C 0.67348 0.81108 0.58692 0.0
C3207 C 0.62103 0.8038 0.56161 0.0
C3208 C 0.63444 0.80776 0.57376 0.0
C3209 C 0.67927 0.83146 0.60773 0.0
C3210 C 0.66286 0.8211 0.5963 0.0
H3211 H 0.55672 0.79227 0.54864 0.0
H3212 H 0.57598 0.78809 0.56788 0.0
H3213 H 0.66799 0.79643 0.5688 0.0
H3214 H 0.74669 0.88527 0.61798 0.0
H3215 H 0.72194 0.8601 0.59945 0.0
C3216 C 0.19636 0.78866 0.54935 0.0
C3217 C 0.18327 0.79418 0.5395 0.0
C3218 C 0.1984 0.80251 0.56025 0.0
C3219 C 0.18057 0.85618 0.57583 0.0
H3220 H 0.16141 0.79989 0.60167 0.0
C3221 C 0.11276 0.84835 0.61794 0.0
C3222 C 0.12119 0.84145 0.62882 0.0
C3223 C 0.12844 0.8506 0.60751 0.0
C3224 C 0.16731 0.81617 0.59463 0.0
H3225 H 0.16348 0.8195 0.533 0.0
H3226 H 0.16551 0.84261 0.55212 0.0
H3227 H 0.17471 0.78928 0.58242 0.0
H3228 H 0.15238 0.8314 0.63739 0.0
H3229 H 0.18008 0.83552 0.61918 0.0
H3230 H 0.17071 0.88184 0.5881 0.0
C3231 C 0.17528 0.82851 0.55148 0.0
C3232 C 0.17515 0.81019 0.58351 0.0
C3233 C 0.17408 0.81528 0.54047 0.0
C3234 C 0.14618 0.83786 0.6292 0.0
C3235 C 0.16169 0.83975 0.61875 0.0
C3236 C 0.17215 0.86188 0.58695 0.0
C3237 C 0.18621 0.82123 0.56168 0.0
C3238 C 0.18151 0.82985 0.57386 0.0
C3239 C 0.15247 0.84534 0.60774 0.0
C3240 C 0.16506 0.84171 0.59641 0.0
H3241 H 0.20352 0.77236 0.54878 0.0
H3242 H 0.20807 0.79717 0.56771 0.0
H3243 H 0.18574 0.87216 0.56875 0.0
H3244 H 0.09324 0.85076 0.61743 0.0
H3245 H 0.12056 0.85452 0.59915 0.0
C3246 C 0.19392 0.39791 0.55069 0.0
C3247 C 0.1863 0.38257 0.53981 0.0
C3248 C 0.17874 0.38384 0.56112 0.0
C3249 C 0.14586 0.31072 0.57391 0.0
H3250 H 0.12766 0.34613 0.60062 0.0
C3251 C 0.12789 0.25769 0.62014 0.0
C3252 C 0.14132 0.27749 0.62963 0.0
C3253 C 0.12392 0.26794 0.60916 0.0
C3254 C 0.1328 0.33594 0.59329 0.0
H3255 H 0.15616 0.34098 0.53115 0.0
H3256 H 0.12957 0.31612 0.54945 0.0
H3257 H 0.13738 0.36977 0.58106 0.0
H3258 H 0.16052 0.32316 0.63535 0.0
H3259 H 0.15465 0.34149 0.61614 0.0
H3260 H 0.14365 0.27824 0.5861 0.0
C3261 C 0.14703 0.33919 0.54987 0.0
C3262 C 0.13811 0.3494 0.58205 0.0
C3263 C 0.16195 0.35351 0.53938 0.0
C3264 C 0.14962 0.30745 0.62817 0.0
C3265 C 0.14614 0.31786 0.61713 0.0
C3266 C 0.14105 0.29755 0.58515 0.0
C3267 C 0.15603 0.3539 0.56091 0.0
C3268 C 0.14529 0.33724 0.5723 0.0
C3269 C 0.1341 0.29841 0.60733 0.0
C3270 C 0.1351 0.3103 0.59509 0.0
H3271 H 0.2129 0.42021 0.55125 0.0
H3272 H 0.1864 0.39567 0.56949 0.0
H3273 H 0.15186 0.3011 0.56662 0.0
H3274 H 0.12156 0.23449 0.62109 0.0
H3275 H 0.11385 0.25208 0.60197 0.0
C3276 C 0.92135 0.4535 0.71952 0.0
C3277 C 0.93623 0.46225 0.70855 0.0
C3278 C 0.93474 0.46951 0.72987 0.0
C3279 C 0.96652 0.51237 0.75052 0.0
H3280 H 0.0415 0.51441 0.75473 0.0
C3281 C 0.06009 0.52841 0.78874 0.0
C3282 C 0.04026 0.51311 0.79803 0.0
C3283 C 0.04961 0.5327 0.77787 0.0
C3284 C 0.02107 0.51497 0.75374 0.0
H3285 H 0.9762 0.49514 0.69965 0.0
H3286 H 4e-05 0.52312 0.71787 0.0
H3287 H 0.01859 0.5042 0.73523 0.0
H3288 H -0.00567 0.49132 0.8036 0.0
H3289 H 0.97562 0.49755 0.78457 0.0
H3290 H 0.96871 0.52274 0.76906 0.0
C3291 C 0.97778 0.50409 0.7184 0.0
C3292 C 0.00787 0.50898 0.74248 0.0
C3293 C 0.96407 0.48832 0.70797 0.0
C3294 C 0.01003 0.50361 0.79657 0.0
C3295 C -0.0006 0.5073 0.78562 0.0
C3296 C 0.97999 0.5189 0.76177 0.0
C3297 C 0.96359 0.49426 0.72951 0.0
C3298 C 0.98002 0.50665 0.74082 0.0
C3299 C 0.0189 0.52085 0.77594 0.0
C3300 C 0.00699 0.51927 0.76365 0.0
H3301 H 0.89995 0.43331 0.72018 0.0
H3302 H 0.92338 0.46118 0.73829 0.0
H3303 H 0.9451 0.51088 0.74948 0.0
H3304 H 0.08351 0.53571 0.78969 0.0
H3305 H 0.0655 0.54405 0.77081 0.0
C3306 C 0.52875 0.45474 0.71864 0.0
C3307 C 0.52242 0.46706 0.70875 0.0
C3308 C 0.51457 0.45204 0.72953 0.0
C3309 C 0.45803 0.46633 0.74485 0.0
H3310 H 0.5127 0.48542 0.77127 0.0
C3311 C 0.4645 0.53406 0.78668 0.0
C3312 C 0.47046 0.52539 0.79771 0.0
C3313 C 0.46215 0.51801 0.77635 0.0
C3314 C 0.49688 0.4795 0.76405 0.0
H3315 H 0.49552 0.48503 0.70218 0.0
H3316 H 0.47191 0.48202 0.72126 0.0
H3317 H 0.52526 0.47381 0.75205 0.0
H3318 H 0.47781 0.49281 0.80671 0.0
H3319 H 0.47408 0.46478 0.78858 0.0
H3320 H 0.43099 0.47478 0.75691 0.0
C3321 C 0.48687 0.47325 0.72068 0.0
C3322 C 0.50398 0.47264 0.75295 0.0
C3323 C 0.50041 0.47504 0.70968 0.0
C3324 C 0.47244 0.49945 0.79836 0.0
C3325 C 0.47066 0.48367 0.78798 0.0
C3326 C 0.45126 0.47388 0.75594 0.0
C3327 C 0.49467 0.46284 0.73091 0.0
C3328 C 0.48495 0.46642 0.74308 0.0
C3329 C 0.46642 0.49337 0.77682 0.0
C3330 C 0.47086 0.48096 0.7656 0.0
H3331 H 0.54572 0.44849 0.7181 0.0
H3332 H 0.52041 0.44279 0.73699 0.0
H3333 H 0.44241 0.46111 0.73762 0.0
H3334 H 0.46325 0.55421 0.78595 0.0
H3335 H 0.45921 0.5262 0.76788 0.0
C3336 C 0.50987 0.01845 0.70737 0.0
C3337 C 0.51633 0.04812 0.70778 0.0
C3338 C 0.50962 0.00373 0.71787 0.0
C3339 C 0.52892 0.01248 0.75 0.0
H3340 H 0.44947 0.94535 0.75404 0.0
C3341 C 0.47608 0.97031 0.7964 0.0
C3342 C 0.45208 0.94126 0.79751 0.0
C3343 C 0.48989 0.98078 0.78533 0.0
C3344 C 0.4721 0.96343 0.7531 0.0
H3345 H 0.52982 0.08634 0.71918 0.0
H3346 H 0.53036 0.06101 0.73743 0.0
H3347 H 0.46517 0.96831 0.73465 0.0
H3348 H 0.42489 0.89965 0.78837 0.0
H3349 H 0.45017 0.91692 0.7693 0.0
H3350 H 0.53591 0.00774 0.76847 0.0
C3351 C 0.52538 0.04903 0.72908 0.0
C3352 C 0.48105 0.9767 0.7419 0.0
C3353 C 0.52508 0.06355 0.71864 0.0
C3354 C 0.44343 0.92217 0.78767 0.0
C3355 C 0.45769 0.93232 0.7767 0.0
C3356 C 0.52018 -0.00118 0.76119 0.0
C3357 C 0.51627 0.0186 0.7289 0.0
C3358 C 0.50926 0.00179 0.74028 0.0
C3359 C 0.48022 0.96219 0.7752 0.0
C3360 C 0.49131 0.97452 0.763 0.0
H3361 H 0.50238 0.00589 0.69917 0.0
H3362 H 0.50257 0.98027 0.71748 0.0
H3363 H 0.55085 0.03179 0.74899 0.0
H3364 H 0.48282 0.9855 0.80388 0.0
H3365 H 0.50687 0.00395 0.78463 0.0
C3366 C 0.53114 0.06555 0.21617 0.0
C3367 C 0.52333 0.04956 0.20543 0.0
C3368 C 0.51659 0.0518 0.22677 0.0
C3369 C 0.48572 0.97939 0.24004 0.0
H3370 H 0.46335 0.01265 0.26627 0.0
C3371 C 0.46257 0.92329 0.28558 0.0
C3372 C 0.47404 0.94218 0.29544 0.0
C3373 C 0.45986 0.93435 0.2746 0.0
C3374 C 0.46971 0.00311 0.25908 0.0
H3375 H 0.4942 0.00697 0.19728 0.0
H3376 H 0.46848 0.98291 0.21576 0.0
H3377 H 0.47449 0.03695 0.24678 0.0
H3378 H 0.49081 0.987 0.30186 0.0
H3379 H 0.48745 0.0069 0.2826 0.0
H3380 H 0.48331 0.94696 0.25227 0.0
C3381 C 0.48544 0.00621 0.21596 0.0
C3382 C 0.47585 0.01694 0.24789 0.0
C3383 C 0.49977 0.02009 0.20535 0.0
C3384 C 0.48148 0.97199 0.29436 0.0
C3385 C 0.47946 0.9833 0.2833 0.0
C3386 C 0.48013 0.9659 0.25122 0.0
C3387 C 0.49444 0.02163 0.22683 0.0
C3388 C 0.48423 0.00537 0.2383 0.0
C3389 C 0.46959 0.96483 0.27314 0.0
C3390 C 0.47239 0.97771 0.26097 0.0
H3391 H 0.54967 0.08813 0.21647 0.0
H3392 H 0.52424 0.06413 0.23502 0.0
H3393 H 0.49274 0.9703 0.23289 0.0
H3394 H 0.45681 0.9002 0.28626 0.0
H3395 H 0.45125 0.91915 0.26714 0.0
C3396 C 0.06775 0.53102 0.28528 0.0
C3397 C 0.04832 0.52303 0.295 0.0
C3398 C 0.05764 0.51704 0.27426 0.0
C3399 C -0.00984 0.45747 0.25814 0.0
H3400 H 0.02289 0.51457 0.23234 0.0
C3401 C 0.92649 0.45806 0.21616 0.0
C3402 C 0.94189 0.4679 0.20534 0.0
C3403 C 0.94091 0.45643 0.2264 0.0
C3404 C 0.01385 0.49807 0.23936 0.0
H3405 H 0.00351 0.4934 0.30109 0.0
H3406 H 0.98526 0.46977 0.28177 0.0
H3407 H 0.04587 0.52777 0.25178 0.0
H3408 H 0.98403 0.48265 0.19656 0.0
H3409 H 0.00948 0.47994 0.21451 0.0
H3410 H 0.95667 0.42874 0.24567 0.0
C3411 C 0.00862 0.48605 0.28261 0.0
C3412 C 0.02713 0.50558 0.2506 0.0
C3413 C 0.01903 0.49955 0.29374 0.0
C3414 C 0.97148 0.47426 0.20473 0.0
C3415 C 0.98611 0.4731 0.21504 0.0
C3416 C 0.97655 0.45015 0.2469 0.0
C3417 C 0.0275 0.4955 0.27257 0.0
C3418 C 0.01524 0.48565 0.26026 0.0
C3419 C 0.97125 0.46526 0.22608 0.0
C3420 C 0.98798 0.47059 0.23744 0.0
H3421 H 0.09042 0.54923 0.28605 0.0
H3422 H 0.07323 0.52429 0.26693 0.0
H3423 H 0.98056 0.44123 0.26522 0.0
H3424 H 0.90378 0.45347 0.21688 0.0
H3425 H 0.92891 0.45059 0.23477 0.0
C3426 C 0.51277 0.45149 0.21663 0.0
C3427 C 0.50835 0.46148 0.20561 0.0
C3428 C 0.5149 0.467 0.22709 0.0
C3429 C 0.48273 0.50788 0.23959 0.0
H3430 H 0.5359 0.52253 0.26619 0.0
C3431 C 0.45258 0.53378 0.28526 0.0
C3432 C 0.45776 0.52029 0.29506 0.0
C3433 C 0.46651 0.53595 0.27435 0.0
C3434 C 0.52064 0.51836 0.25891 0.0
H3435 H 0.50337 0.49576 0.19679 0.0
H3436 H 0.50662 0.52282 0.21517 0.0
H3437 H 0.5467 0.5086 0.24684 0.0
H3438 H 0.48205 0.49924 0.30136 0.0
H3439 H 0.50539 0.50167 0.28231 0.0
H3440 H 0.45527 0.515 0.25162 0.0
C3441 C 0.50902 0.50329 0.21566 0.0
C3442 C 0.52706 0.51066 0.24779 0.0
C3443 C 0.5075 0.48805 0.20515 0.0
C3444 C 0.47829 0.5104 0.29398 0.0
C3445 C 0.49163 0.5118 0.28298 0.0
C3446 C 0.47596 0.51493 0.25074 0.0
C3447 C 0.51193 0.49244 0.22677 0.0
C3448 C 0.50791 0.5049 0.23807 0.0
C3449 C 0.48502 0.52354 0.27285 0.0
C3450 C 0.49451 0.51979 0.26066 0.0
H3451 H 0.51316 0.43086 0.21721 0.0
H3452 H 0.51681 0.45793 0.23552 0.0
H3453 H 0.46727 0.50305 0.23232 0.0
H3454 H 0.43659 0.54133 0.28588 0.0
H3455 H 0.46155 0.54612 0.26695 0.0
C3456 C 0.90067 0.1529 0.28144 0.0
C3457 C 0.91299 0.15747 0.29294 0.0
C3458 C 0.91885 0.16298 0.27143 0.0
C3459 C -0.00527 0.21499 0.26112 0.0
H3460 H 0.97188 0.16058 0.23436 0.0
C3461 C 0.07319 0.23334 0.22194 0.0
C3462 C 0.06138 0.22685 0.21034 0.0
C3463 C 0.05465 0.22627 0.23181 0.0
C3464 C 0.97831 0.1762 0.24168 0.0
H3465 H 0.95427 0.17711 0.3029 0.0
H3466 H 0.98626 0.19476 0.28526 0.0
H3467 H 0.94123 0.14582 0.25224 0.0
H3468 H 0.02065 0.20802 0.20004 0.0
H3469 H 0.98801 0.19558 0.21741 0.0
H3470 H 0.03198 0.24528 0.25056 0.0
C3471 C 0.96238 0.18339 0.28409 0.0
C3472 C 0.96082 0.16773 0.25194 0.0
C3473 C 0.94408 0.17323 0.29418 0.0
C3474 C 0.03045 0.2133 0.20885 0.0
C3475 C 0.01178 0.20605 0.21879 0.0
C3476 C 0.01225 0.22347 0.25084 0.0
C3477 C 0.94988 0.17791 0.2726 0.0
C3478 C 0.96883 0.18702 0.26178 0.0
C3479 C 0.02375 0.21246 0.23038 0.0
C3480 C 0.00428 0.20411 0.24103 0.0
H3481 H 0.87683 0.14112 0.28011 0.0
H3482 H 0.90853 0.15897 0.26272 0.0
H3483 H 0.00126 0.23048 0.26848 0.0
H3484 H 0.09692 0.24386 0.22346 0.0
H3485 H 0.06456 0.2311 0.2406 0.0
C3486 C 0.80779 0.7725 0.2962 0.0
C3487 C 0.81856 0.75266 0.295 0.0
C3488 C 0.79654 0.77996 0.28627 0.0
C3489 C 0.7682 0.7563 0.25557 0.0
H3490 H 0.79774 0.84035 0.25054 0.0
C3491 C 0.75413 0.80554 0.21106 0.0
C3492 C 0.74513 0.82681 0.21234 0.0
C3493 C 0.76226 0.79513 0.22109 0.0
C3494 C 0.78912 0.81677 0.25187 0.0
H3495 H 0.8244 0.72374 0.2827 0.0
H3496 H 0.80478 0.73663 0.26551 0.0
H3497 H 0.81111 0.82396 0.26866 0.0
H3498 H 0.73767 0.85379 0.22516 0.0
H3499 H 0.75169 0.83574 0.24241 0.0
H3500 H 0.74635 0.74922 0.23869 0.0
C3501 C 0.80505 0.74654 0.27403 0.0
C3502 C 0.79663 0.80739 0.26227 0.0
C3503 C 0.81652 0.73935 0.28388 0.0
C3504 C 0.74438 0.83733 0.2238 0.0
C3505 C 0.75267 0.82719 0.23373 0.0
C3506 C 0.76068 0.76571 0.24514 0.0
C3507 C 0.79552 0.76738 0.27505 0.0
C3508 C 0.78621 0.77706 0.26426 0.0
C3509 C 0.76184 0.80613 0.23251 0.0
C3510 C 0.77095 0.79603 0.24322 0.0
H3511 H 0.80912 0.78308 0.30467 0.0
H3512 H 0.78902 0.79588 0.28733 0.0
H3513 H 0.75971 0.73274 0.25689 0.0
H3514 H 0.75495 0.79701 0.20236 0.0
H3515 H 0.76937 0.77894 0.21991 0.0
C3516 C 0.22928 0.07853 0.28227 0.0
C3517 C 0.22477 0.06639 0.2938 0.0
C3518 C 0.2233 0.06062 0.27226 0.0
C3519 C 0.17871 0.98351 0.26225 0.0
H3520 H 0.23074 0.01175 0.23469 0.0
C3521 C 0.15865 0.90848 0.22199 0.0
C3522 C 0.16057 0.92066 0.21061 0.0
C3523 C 0.16876 0.92665 0.232 0.0
C3524 C 0.21588 0.00372 0.24228 0.0
H3525 H 0.21074 0.0258 0.30382 0.0
H3526 H 0.20022 -0.00573 0.2862 0.0
H3527 H 0.24435 0.042 0.25275 0.0
H3528 H 0.17576 0.96171 0.20078 0.0
H3529 H 0.19341 -0.00628 0.21844 0.0
H3530 H 0.15009 0.94541 0.25178 0.0
C3531 C 0.20827 0.01778 0.28499 0.0
C3532 C 0.22368 0.02096 0.25262 0.0
C3533 C 0.21442 0.03583 0.29507 0.0
C3534 C 0.174 0.95168 0.20942 0.0
C3535 C 0.18412 0.96997 0.21952 0.0
C3536 C 0.17092 0.9663 0.25192 0.0
C3537 C 0.21259 0.03004 0.27348 0.0
C3538 C 0.20513 0.01107 0.26271 0.0
C3539 C 0.181 0.9575 0.23094 0.0
C3540 C 0.18942 0.97618 0.24182 0.0
H3541 H 0.23733 0.10201 0.28092 0.0
H3542 H 0.22646 0.07068 0.26353 0.0
H3543 H 0.16367 0.97555 0.26978 0.0
H3544 H 0.14883 0.88471 0.22322 0.0
H3545 H 0.1667 0.91642 0.24062 0.0
C3546 C 0.94642 0.77217 0.79319 0.0
C3547 C 0.91719 0.74828 0.79208 0.0
C3548 C 0.96518 0.7824 0.78323 0.0
C3549 C 0.96086 0.78295 0.75044 0.0
H3550 H 0.04426 0.8063 0.75145 0.0
C3551 C 0.03368 0.81274 0.70797 0.0
C3552 C 0.06274 0.837 0.70891 0.0
C3553 C 0.01582 0.80144 0.71814 0.0
C3554 C 0.02104 0.80012 0.75105 0.0
H3555 H 0.88545 0.71524 0.77984 0.0
H3556 H 0.91808 0.73276 0.7627 0.0
H3557 H 0.01426 0.78783 0.76949 0.0
H3558 H 0.09546 0.86886 0.72124 0.0
H3559 H 0.06438 0.84952 0.73873 0.0
H3560 H 0.9676 0.7954 0.73205 0.0
C3561 C 0.92631 0.74414 0.77112 0.0
C3562 C 0.00391 0.78958 0.76139 0.0
C3563 C 0.90767 0.73401 0.78099 0.0
C3564 C 0.0733 0.84996 0.72016 0.0
C3565 C 0.05554 0.83875 0.73025 0.0
C3566 C 0.97798 0.79353 0.74012 0.0
C3567 C 0.955 0.76886 0.77203 0.0
C3568 C 0.9736 0.78076 0.76118 0.0
C3569 C 0.02671 0.81421 0.72941 0.0
C3570 C 0.00827 0.80224 0.7403 0.0
H3571 H 0.9544 0.7836 0.80161 0.0
H3572 H 0.98723 0.80154 0.78419 0.0
H3573 H 0.93765 0.77681 0.75005 0.0
H3574 H 0.02488 0.80225 0.69945 0.0
H3575 H -0.00629 0.78238 0.71722 0.0
C3576 C 0.14481 0.23458 0.72142 0.0
C3577 C 0.15185 0.22973 0.70984 0.0
C3578 C 0.15608 0.22747 0.73136 0.0
C3579 C 0.18524 0.17949 0.74093 0.0
H3580 H 0.21281 0.23143 0.76852 0.0
C3581 C 0.24348 0.15846 0.77984 0.0
C3582 C 0.23535 0.1614 0.79149 0.0
C3583 C 0.23387 0.16798 0.7701 0.0
C3584 C 0.20486 0.21656 0.76094 0.0
H3585 H 0.17666 0.21392 0.69966 0.0
H3586 H 0.19647 0.20147 0.71713 0.0
H3587 H 0.19603 0.24626 0.75083 0.0
H3588 H 0.2114 0.17757 0.80203 0.0
H3589 H 0.19436 0.19419 0.78487 0.0
H3590 H 0.1939 0.14974 0.75102 0.0
C3591 C 0.18198 0.21062 0.71845 0.0
C3592 C 0.19533 0.22506 0.7508 0.0
C3593 C 0.17079 0.21791 0.70845 0.0
C3594 C 0.21797 0.1749 0.79318 0.0
C3595 C 0.20831 0.1845 0.78336 0.0
C3596 C 0.19473 0.171 0.75106 0.0
C3597 C 0.17461 0.21523 0.73001 0.0
C3598 C 0.18549 0.20664 0.74067 0.0
C3599 C 0.21584 0.18071 0.7717 0.0
C3600 C 0.20479 0.18949 0.76115 0.0
H3601 H 0.13037 0.24375 0.72285 0.0
H3602 H 0.14969 0.23096 0.74013 0.0
H3603 H 0.17721 0.16453 0.73338 0.0
H3604 H 0.25704 0.14841 0.77816 0.0
H3605 H 0.24059 0.16532 0.76126 0.0
C3606 C 0.83243 0.08229 0.77931 0.0
C3607 C 0.82434 0.07124 0.79098 0.0
C3608 C 0.82192 0.06329 0.76956 0.0
C3609 C 0.78987 0.98493 0.76072 0.0
H3610 H 0.76814 0.01176 0.73215 0.0
C3611 C 0.73244 0.90724 0.7212 0.0
C3612 C 0.74321 0.91816 0.70972 0.0
C3613 C 0.74171 0.92622 0.73098 0.0
C3614 C 0.77441 0.00412 0.74002 0.0
H3615 H 0.7989 0.03132 0.80151 0.0
H3616 H 0.7799 -0.00211 0.78431 0.0
H3617 H 0.78445 0.04335 0.74979 0.0
H3618 H 0.77155 0.95788 0.69948 0.0
H3619 H 0.78782 0.99129 0.71672 0.0
H3620 H 0.77959 0.94559 0.75094 0.0
C3621 C 0.79477 0.02141 0.7828 0.0
C3622 C 0.78374 0.02216 0.75014 0.0
C3623 C 0.80549 0.04053 0.79264 0.0
C3624 C 0.76283 0.94879 0.7082 0.0
C3625 C 0.7721 0.96789 0.71806 0.0
C3626 C 0.7804 0.96683 0.75062 0.0
C3627 C 0.80281 0.03267 0.77114 0.0
C3628 C 0.7917 0.01284 0.76059 0.0
C3629 C 0.76196 0.95664 0.72957 0.0
C3630 C 0.77258 0.97624 0.74017 0.0
H3631 H 0.84722 0.10576 0.77765 0.0
H3632 H 0.82915 0.07265 0.76075 0.0
H3633 H 0.79632 0.97731 0.76854 0.0
H3634 H 0.71706 0.88383 0.72271 0.0
H3635 H 0.73302 0.91701 0.7397 0.0
C3636 C 0.56876 0.48832 0.6161 0.0
C3637 C 0.58087 0.49489 0.62766 0.0
C3638 C 0.58699 0.4988 0.60613 0.0
C3639 C 0.66015 0.55574 0.5955 0.0
H3640 H 0.64379 0.49973 0.56976 0.0
C3641 C 0.7404 0.58037 0.55632 0.0
C3642 C 0.72874 0.56994 0.54489 0.0
C3643 C 0.72177 0.57291 0.56618 0.0
C3644 C 0.64834 0.51579 0.57676 0.0
H3645 H 0.62186 0.51835 0.63774 0.0
H3646 H 0.65401 0.53699 0.62011 0.0
H3647 H 0.61364 0.48338 0.58777 0.0
H3648 H 0.68813 0.54421 0.53481 0.0
H3649 H 0.65527 0.53125 0.55214 0.0
H3650 H 0.69483 0.58819 0.58447 0.0
C3651 C 0.63018 0.5236 0.6189 0.0
C3652 C 0.63119 0.50638 0.58712 0.0
C3653 C 0.61182 0.5129 0.62897 0.0
C3654 C 0.69779 0.55256 0.5435 0.0
C3655 C 0.67903 0.54498 0.55343 0.0
C3656 C 0.67726 0.5652 0.58511 0.0
C3657 C 0.61789 0.51625 0.60738 0.0
C3658 C 0.63689 0.52625 0.59659 0.0
C3659 C 0.69091 0.55481 0.5649 0.0
C3660 C 0.6716 0.5453 0.57564 0.0
H3661 H 0.54504 0.47467 0.61468 0.0
H3662 H 0.57682 0.49321 0.59738 0.0
H3663 H 0.66479 0.57163 0.60258 0.0
H3664 H 0.76414 0.59397 0.55774 0.0
H3665 H 0.73173 0.58056 0.57487 0.0
C3666 C 0.46378 0.09197 0.62847 0.0
C3667 C 0.48956 0.0897 0.62776 0.0
C3668 C 0.45385 0.10065 0.61842 0.0
C3669 C 0.47992 0.13852 0.58926 0.0
H3670 H 0.39767 0.09092 0.57943 0.0
C3671 C 0.44215 0.14948 0.5423 0.0
C3672 C 0.4176 0.15381 0.54217 0.0
C3673 C 0.44943 0.13967 0.55272 0.0
C3674 C 0.42068 0.10446 0.5821 0.0
H3675 H 0.52593 0.09618 0.61626 0.0
H3676 H 0.50885 0.11117 0.59901 0.0
H3677 H 0.41349 0.08084 0.59856 0.0
H3678 H 0.38018 0.14935 0.55238 0.0
H3679 H 0.39251 0.13181 0.57041 0.0
H3680 H 0.48726 0.16193 0.5728 0.0
C3681 C 0.49612 0.10624 0.60717 0.0
C3682 C 0.42966 0.09887 0.59309 0.0
C3683 C 0.50574 0.09732 0.61706 0.0
C3684 C 0.39937 0.14634 0.5523 0.0
C3685 C 0.40633 0.13617 0.5626 0.0
C3686 C 0.47101 0.144 0.57828 0.0
C3687 C 0.46995 0.10773 0.60766 0.0
C3688 C 0.45947 0.11563 0.59671 0.0
C3689 C 0.43193 0.13361 0.56305 0.0
C3690 C 0.44137 0.12686 0.57454 0.0
H3691 H 0.45095 0.08626 0.63662 0.0
H3692 H 0.43364 0.10179 0.61904 0.0
H3693 H 0.50297 0.15213 0.59189 0.0
H3694 H 0.45659 0.15522 0.53461 0.0
H3695 H 0.46914 0.13757 0.5528 0.0
C3696 C 0.87975 0.40419 0.61821 0.0
C3697 C 0.89052 0.39694 0.6284 0.0
C3698 C 0.87158 0.38626 0.60814 0.0
C3699 C 0.8855 0.335 0.59151 0.0
H3700 H 0.80915 0.31149 0.57694 0.0
C3701 C 0.84836 0.28174 0.54404 0.0
C3702 C 0.8213 0.25471 0.54436 0.0
C3703 C 0.85821 0.30008 0.55417 0.0
C3704 C 0.83059 0.31803 0.58089 0.0
H3705 H 0.90091 0.36499 0.63611 0.0
H3706 H 0.88687 0.33338 0.61816 0.0
H3707 H 0.82273 0.33936 0.59559 0.0
H3708 H 0.78286 0.22622 0.55523 0.0
H3709 H 0.79959 0.25836 0.57258 0.0
H3710 H 0.89327 0.31365 0.57666 0.0
C3711 C 0.88482 0.35314 0.61812 0.0
C3712 C 0.83832 0.33388 0.59155 0.0
C3713 C 0.89258 0.37098 0.62838 0.0
C3714 C 0.80394 0.24681 0.55475 0.0
C3715 C 0.81342 0.26524 0.56468 0.0
C3716 C 0.87789 0.31941 0.58071 0.0
C3717 C 0.87426 0.36074 0.60793 0.0
C3718 C 0.86577 0.34243 0.59699 0.0
C3719 C 0.84071 0.29188 0.56455 0.0
C3720 C 0.85027 0.31065 0.57536 0.0
H3721 H 0.87769 0.42394 0.61799 0.0
H3722 H 0.86364 0.39269 0.6004 0.0
H3723 H 0.90695 0.34168 0.59548 0.0
H3724 H 0.86215 0.28823 0.53614 0.0
H3725 H 0.8793 0.32068 0.55387 0.0
C3726 C 0.73661 0.17392 0.0526 0.0
C3727 C 0.72735 0.16067 0.04132 0.0
C3728 C 0.71782 0.16298 0.06238 0.0
C3729 C 0.6546 0.09643 0.07459 0.0
H3730 H 0.65238 0.15271 0.0967 0.0
C3731 C 0.57407 0.06248 0.11454 0.0
C3732 C 0.58437 0.07897 0.12514 0.0
C3733 C 0.59202 0.07065 0.10444 0.0
C3734 C 0.65312 0.13675 0.09071 0.0
H3735 H 0.69076 0.12558 0.03145 0.0
H3736 H 0.6575 0.10601 0.04883 0.0
H3737 H 0.68011 0.17055 0.07817 0.0
H3738 H 0.62215 0.11602 0.13367 0.0
H3739 H 0.6538 0.1304 0.11592 0.0
H3740 H 0.62757 0.0626 0.08719 0.0
C3741 C 0.67959 0.12498 0.04996 0.0
C3742 C 0.6688 0.14693 0.08005 0.0
C3743 C 0.6985 0.13621 0.04003 0.0
C3744 C 0.61364 0.10292 0.12562 0.0
C3745 C 0.6316 0.11128 0.11544 0.0
C3746 C 0.63883 0.0862 0.08527 0.0
C3747 C 0.68916 0.13839 0.06122 0.0
C3748 C 0.67 0.12695 0.07193 0.0
C3749 C 0.62068 0.09562 0.10467 0.0
C3750 C 0.63815 0.10631 0.09349 0.0
H3751 H 0.75858 0.19295 0.05394 0.0
H3752 H 0.72601 0.17356 0.07094 0.0
H3753 H 0.65544 0.08058 0.06857 0.0
H3754 H 0.55167 0.04372 0.11392 0.0
H3755 H 0.58288 0.05821 0.09629 0.0
C3756 C 0.87076 0.47682 0.11913 0.0
C3757 C 0.88946 0.49774 0.12757 0.0
C3758 C 0.86098 0.48565 0.10923 0.0
C3759 C 0.8817 0.54853 0.08939 0.0
H3760 H 0.80004 0.50156 0.07869 0.0
C3761 C 0.84035 0.55871 0.04209 0.0
C3762 C 0.81392 0.55994 0.04206 0.0
C3763 C 0.85042 0.55211 0.05264 0.0
C3764 C 0.82292 0.51497 0.08156 0.0
H3765 H 0.91245 0.54424 0.13248 0.0
H3766 H 0.89533 0.56008 0.11491 0.0
H3767 H 0.81479 0.4897 0.09756 0.0
H3768 H 0.77722 0.55477 0.05307 0.0
H3769 H 0.79459 0.54325 0.07119 0.0
H3770 H 0.88968 0.57377 0.07328 0.0
C3771 C 0.88822 0.53674 0.11605 0.0
C3772 C 0.83137 0.50812 0.09236 0.0
C3773 C 0.89771 0.52773 0.12613 0.0
C3774 C 0.79772 0.55412 0.05272 0.0
C3775 C 0.80757 0.54733 0.06314 0.0
C3776 C 0.87325 0.55528 0.0785 0.0
C3777 C 0.86999 0.51575 0.10744 0.0
C3778 C 0.86084 0.52474 0.09639 0.0
C3779 C 0.83399 0.54624 0.06326 0.0
C3780 C 0.84372 0.53858 0.0745 0.0
H3781 H 0.86432 0.45357 0.12003 0.0
H3782 H 0.84723 0.46899 0.10273 0.0
H3783 H 0.90466 0.56148 0.09222 0.0
H3784 H 0.85337 0.56318 0.03403 0.0
H3785 H 0.87081 0.55123 0.05247 0.0
C3786 C 0.47142 0.36943 0.12651 0.0
C3787 C 0.48602 0.40049 0.12514 0.0
C3788 C 0.46031 0.35079 0.11652 0.0
C3789 C 0.47199 0.35204 0.0841 0.0
H3790 H 0.39476 0.28041 0.08362 0.0
C3791 C 0.4249 0.28198 0.04127 0.0
C3792 C 0.41126 0.25103 0.04278 0.0
C3793 C 0.4321 0.3007 0.0512 0.0
C3794 C 0.4165 0.30025 0.08364 0.0
H3795 H 0.49918 0.43616 0.11222 0.0
H3796 H 0.47987 0.4039 0.09507 0.0
H3797 H 0.41121 0.31105 0.10156 0.0
H3798 H 0.39384 0.21553 0.05594 0.0
H3799 H 0.40675 0.24792 0.07303 0.0
H3800 H 0.47761 0.34114 0.06629 0.0
C3801 C 0.47748 0.39388 0.10376 0.0
C3802 C 0.4259 0.31772 0.09393 0.0
C3803 C 0.48845 0.41237 0.11365 0.0
C3804 C 0.40439 0.23926 0.05439 0.0
C3805 C 0.41157 0.25786 0.06425 0.0
C3806 C 0.46267 0.33453 0.07384 0.0
C3807 C 0.46372 0.36294 0.10503 0.0
C3808 C 0.45375 0.34382 0.09426 0.0
C3809 C 0.42574 0.28881 0.06281 0.0
C3810 C 0.43485 0.30837 0.07348 0.0
H3811 H 0.46916 0.35958 0.13523 0.0
H3812 H 0.44983 0.32695 0.11776 0.0
H3813 H 0.49377 0.37183 0.08413 0.0
H3814 H 0.43043 0.29175 0.03246 0.0
H3815 H 0.44274 0.32448 0.04979 0.0
C3816 C 0.36632 0.88687 0.87704 0.0
C3817 C 0.3967 0.89628 0.87817 0.0
C3818 C 0.34837 0.88007 0.88718 0.0
C3819 C 0.35185 0.89188 0.91982 0.0
H3820 H 0.27488 0.81988 0.9197 0.0
C3821 C 0.28189 0.84003 0.96262 0.0
C3822 C 0.2509 0.82692 0.96149 0.0
C3823 C 0.30013 0.8506 0.95252 0.0
C3824 C 0.29614 0.8403 0.91985 0.0
H3825 H 0.43203 0.90619 0.89089 0.0
H3826 H 0.40081 0.89411 0.90839 0.0
H3827 H 0.30514 0.8346 0.90175 0.0
H3828 H 0.21495 0.81619 0.94903 0.0
H3829 H 0.24661 0.8351 0.93163 0.0
H3830 H 0.34287 0.89745 0.93797 0.0
C3831 C 0.39088 0.89232 0.89972 0.0
C3832 C 0.31346 0.84873 0.90954 0.0
C3833 C 0.40874 0.89903 0.88964 0.0
C3834 C 0.2387 0.82571 0.95019 0.0
C3835 C 0.25685 0.83642 0.94018 0.0
C3836 C 0.33447 0.88347 0.93014 0.0
C3837 C 0.3605 0.88267 0.89862 0.0
C3838 C 0.34154 0.87455 0.90942 0.0
C3839 C 0.28769 0.8484 0.94116 0.0
C3840 C 0.30641 0.85757 0.93027 0.0
H3841 H 0.35636 0.88458 0.86835 0.0
H3842 H 0.32504 0.87291 0.88606 0.0
H3843 H 0.3733 0.91208 0.91997 0.0
H3844 H 0.29192 0.84123 0.97121 0.0
H3845 H 0.32383 0.85959 0.95357 0.0
C3846 C 0.13815 0.43125 0.9625 0.0
C3847 C 0.16528 0.43143 0.9622 0.0
C3848 C 0.12689 0.43711 0.95213 0.0
C3849 C 0.15068 0.47124 0.92218 0.0
H3850 H 0.06702 0.42392 0.9143 0.0
C3851 C 0.10598 0.47973 0.87634 0.0
C3852 C 0.08248 0.48565 0.87702 0.0
C3853 C 0.11446 0.47002 0.88645 0.0
C3854 C 0.09044 0.43727 0.91641 0.0
H3855 H 0.20199 0.43833 0.95077 0.0
H3856 H 0.18233 0.44796 0.93293 0.0
H3857 H 0.08525 0.41506 0.93307 0.0
H3858 H 0.04805 0.48411 0.88841 0.0
H3859 H 0.06246 0.46664 0.90594 0.0
H3860 H 0.15592 0.49329 0.90551 0.0
C3861 C 0.16983 0.44373 0.94112 0.0
C3862 C 0.10082 0.4324 0.92719 0.0
C3863 C 0.18099 0.43793 0.95139 0.0
C3864 C 0.06643 0.47991 0.8877 0.0
C3865 C 0.07454 0.46975 0.8977 0.0
C3866 C 0.14036 0.47591 0.91139 0.0
C3867 C 0.14267 0.44339 0.94132 0.0
C3868 C 0.1311 0.4493 0.93018 0.0
C3869 C 0.09916 0.46555 0.89729 0.0
C3870 C 0.11016 0.45899 0.90839 0.0
H3871 H 0.1255 0.42629 0.97068 0.0
H3872 H 0.10598 0.43692 0.95259 0.0
H3873 H 0.17403 0.48506 0.9243 0.0
H3874 H 0.11873 0.48408 0.86821 0.0
H3875 H 0.13341 0.46669 0.8859 0.0
C3876 C 0.48956 0.57694 0.88918 0.0
C3877 C 0.48987 0.58872 0.87787 0.0
C3878 C 0.50035 0.59539 0.89912 0.0
C3879 C 0.51194 0.66629 0.91042 0.0
H3880 H 0.55762 0.65474 0.93505 0.0
C3881 C 0.56046 0.74593 0.94995 0.0
C3882 C 0.55845 0.73388 0.96137 0.0
C3883 C 0.55338 0.72819 0.93984 0.0
C3884 C 0.54458 0.65797 0.92831 0.0
H3885 H 0.50258 0.62929 0.86805 0.0
H3886 H 0.52144 0.66176 0.88554 0.0
H3887 H 0.54462 0.62505 0.91684 0.0
H3888 H 0.54782 0.69361 0.97105 0.0
H3889 H 0.53516 0.6623 0.95322 0.0
H3890 H 0.51152 0.69888 0.92189 0.0
C3891 C 0.51262 0.63809 0.88666 0.0
C3892 C 0.53726 0.6411 0.91787 0.0
C3893 C 0.50201 0.61958 0.87665 0.0
C3894 C 0.54959 0.70358 0.96239 0.0
C3895 C 0.54247 0.6857 0.95219 0.0
C3896 C 0.51919 0.68308 0.92085 0.0
C3897 C 0.51161 0.62609 0.89801 0.0
C3898 C 0.52084 0.64508 0.90881 0.0
C3899 C 0.54401 0.69784 0.94081 0.0
C3900 C 0.53565 0.67918 0.92991 0.0
H3901 H 0.48059 0.55328 0.89043 0.0
H3902 H 0.49898 0.58541 0.90774 0.0
H3903 H 0.49875 0.66943 0.90372 0.0
H3904 H 0.56741 0.76921 0.94876 0.0
H3905 H 0.55541 0.73839 0.93121 0.0
C3906 C 0.28158 0.43066 0.46069 0.0
C3907 C 0.25092 0.41952 0.45931 0.0
C3908 C 0.29999 0.43759 0.45065 0.0
C3909 C 0.29648 0.42339 0.41797 0.0
H3910 H 0.37351 0.49524 0.41751 0.0
C3911 C 0.36554 0.47542 0.37484 0.0
C3912 C 0.39628 0.48646 0.37582 0.0
C3913 C 0.34738 0.46521 0.38498 0.0
C3914 C 0.35213 0.47495 0.41754 0.0
H3915 H 0.21577 0.40737 0.44622 0.0
H3916 H 0.24754 0.41989 0.42905 0.0
H3917 H 0.34372 0.4814 0.43564 0.0
H3918 H 0.43167 0.49375 0.3881 0.0
H3919 H 0.40017 0.47596 0.40555 0.0
H3920 H 0.30473 0.41735 0.39977 0.0
C3921 C 0.25745 0.4226 0.43778 0.0
C3922 C 0.33514 0.46695 0.42795 0.0
C3923 C 0.23921 0.4156 0.44771 0.0
C3924 C 0.40816 0.48584 0.38701 0.0
C3925 C 0.39015 0.47577 0.39707 0.0
C3926 C 0.31339 0.43152 0.40753 0.0
C3927 C 0.28802 0.43353 0.43907 0.0
C3928 C 0.30703 0.44115 0.42828 0.0
C3929 C 0.35972 0.46595 0.39624 0.0
C3930 C 0.34138 0.45738 0.40721 0.0
H3931 H 0.29132 0.43401 0.46949 0.0
H3932 H 0.32349 0.44587 0.45195 0.0
H3933 H 0.27511 0.4031 0.41795 0.0
H3934 H 0.35573 0.47564 0.36635 0.0
H3935 H 0.32392 0.45773 0.3841 0.0
C3936 C 0.50381 0.88623 0.37457 0.0
C3937 C 0.48072 0.89275 0.37569 0.0
C3938 C 0.51553 0.88 0.3847 0.0
C3939 C 0.49718 0.85571 0.41605 0.0
H3940 H 0.58226 0.88941 0.41959 0.0
C3941 C 0.54856 0.84334 0.4597 0.0
C3942 C 0.56993 0.83454 0.45828 0.0
C3943 C 0.53906 0.85299 0.44987 0.0
C3944 C 0.55843 0.87971 0.4187 0.0
H3945 H 0.45192 0.89781 0.38837 0.0
H3946 H 0.47243 0.8873 0.40581 0.0
H3947 H 0.56256 0.8996 0.40157 0.0
H3948 H 0.5991 0.83037 0.44555 0.0
H3949 H 0.58247 0.84695 0.42853 0.0
H3950 H 0.49297 0.83566 0.43311 0.0
C3951 C 0.48126 0.88658 0.39716 0.0
C3952 C 0.54716 0.88544 0.40836 0.0
C3953 C 0.46962 0.89279 0.38712 0.0
C3954 C 0.58247 0.83683 0.44696 0.0
C3955 C 0.5731 0.84655 0.43719 0.0
C3956 C 0.50844 0.84999 0.42638 0.0
C3957 C 0.5043 0.88007 0.3961 0.0
C3958 C 0.5164 0.87349 0.40692 0.0
C3959 C 0.5509 0.85422 0.43847 0.0
C3960 C 0.53918 0.86185 0.42781 0.0
H3961 H 0.51284 0.88598 0.36591 0.0
H3962 H 0.53314 0.87479 0.38359 0.0
H3963 H 0.47333 0.8458 0.41514 0.0
H3964 H 0.53849 0.84185 0.46831 0.0
H3965 H 0.52216 0.85912 0.45116 0.0
C3966 C 0.13388 0.70181 0.46021 0.0
C3967 C 0.15337 0.73252 0.45878 0.0
C3968 C 0.12284 0.68319 0.4502 0.0
C3969 C 0.14097 0.67995 0.4187 0.0
H3970 H 0.05756 0.62125 0.41518 0.0
C3971 C 0.09471 0.61664 0.37454 0.0
C3972 C 0.07532 0.58587 0.37563 0.0
C3973 C 0.10252 0.63503 0.3846 0.0
C3974 C 0.08098 0.6374 0.41607 0.0
H3975 H 0.17607 0.76764 0.44565 0.0
H3976 H 0.157 0.73547 0.4285 0.0
H3977 H 0.07486 0.65075 0.43343 0.0
H3978 H 0.04769 0.55055 0.38801 0.0
H3979 H 0.06144 0.58233 0.40538 0.0
H3980 H 0.14731 0.66654 0.40147 0.0
C3981 C 0.15043 0.72565 0.43728 0.0
C3982 C 0.09085 0.65418 0.42654 0.0
C3983 C 0.16121 0.74413 0.44717 0.0
C3984 C 0.06288 0.57414 0.38685 0.0
C3985 C 0.07059 0.59243 0.39683 0.0
C3986 C 0.13116 0.66313 0.40828 0.0
C3987 C 0.13138 0.69498 0.43864 0.0
C3988 C 0.12092 0.67576 0.42792 0.0
C3989 C 0.09092 0.62299 0.3959 0.0
C3990 C 0.10103 0.64172 0.4068 0.0
H3991 H 0.12742 0.69215 0.46901 0.0
H3992 H 0.10818 0.65955 0.4515 0.0
H3993 H 0.16439 0.69615 0.41959 0.0
H3994 H 0.10465 0.62634 0.36603 0.0
H3995 H 0.11794 0.6586 0.38355 0.0
loop_
_geom_bond_atom_site_label_1
_geom_bond_atom_site_label_2
_geom_bond_distance
_geom_bond_site_symmetry_2
_ccdc_geom_bond_type
O0 Mg1 1.990 . S
O0 C14 1.253 . S
Mg1 O0 1.990 . S
Mg1 O4 2.180 . S
Mg1 O5 2.117 . S
Mg1 O19 2.030 . S
O2 Mg3 2.072 . S
O2 C14 1.260 . S
Mg3 O2 2.072 . S
Mg3 O4 2.099 . S
Mg3 O6 2.079 . S
Mg3 O7 2.072 . S
Mg3 O9 2.099 . S
Mg3 O20 2.079 . S
O4 Mg1 2.180 . S
O4 Mg3 2.099 . S
O4 C15 1.279 . S
O5 Mg1 2.117 . S
O5 C15 1.250 . S
O6 Mg3 2.079 . S
O6 C16 1.264 . S
O7 Mg3 2.072 . S
O7 C17 1.260 . S
Mg8 O9 2.180 . S
Mg8 O10 2.030 . S
Mg8 O11 1.990 . S
Mg8 O12 2.117 . S
O9 Mg3 2.099 . S
O9 Mg8 2.180 . S
O9 C18 1.279 . S
O10 Mg8 2.030 . S
O10 C16 1.248 . S
O11 Mg8 1.990 . S
O11 C17 1.253 . S
O12 Mg8 2.117 . S
O12 C18 1.250 . S
C13 O19 1.248 . S
C13 O20 1.264 . S
C14 O0 1.253 . S
C14 O2 1.260 . S
C15 O4 1.279 . S
C15 O5 1.250 . S
C16 O6 1.264 . S
C16 O10 1.248 . S
C17 O7 1.260 . S
C17 O11 1.253 . S
C18 O9 1.279 . S
C18 O12 1.250 . S
O19 Mg1 2.030 . S
O19 C13 1.248 . S
O20 Mg3 2.079 . S
O20 C13 1.264 . S
O21 Mg22 1.990 . S
O21 C35 1.253 . S
Mg22 O21 1.990 . S
Mg22 O25 2.180 . S
Mg22 O26 2.117 . S
Mg22 O40 2.030 . S
O23 Mg24 2.072 . S
O23 C35 1.260 . S
Mg24 O23 2.072 . S
Mg24 O25 2.099 . S
Mg24 O27 2.079 . S
Mg24 O28 2.072 . S
Mg24 O30 2.099 . S
Mg24 O41 2.079 . S
O25 Mg22 2.180 . S
O25 Mg24 2.099 . S
O25 C36 1.279 . S
O26 Mg22 2.117 . S
O26 C36 1.250 . S
O27 Mg24 2.079 . S
O27 C37 1.264 . S
O28 Mg24 2.072 . S
O28 C38 1.260 . S
Mg29 O30 2.180 . S
Mg29 O31 2.030 . S
Mg29 O32 1.990 . S
Mg29 O33 2.117 . S
O30 Mg24 2.099 . S
O30 Mg29 2.180 . S
O30 C39 1.279 . S
O31 Mg29 2.030 . S
O31 C37 1.248 . S
O32 Mg29 1.990 . S
O32 C38 1.253 . S
O33 Mg29 2.117 . S
O33 C39 1.250 . S
C34 O40 1.248 . S
C34 O41 1.264 . S
C35 O21 1.253 . S
C35 O23 1.260 . S
C36 O25 1.279 . S
C36 O26 1.250 . S
C37 O27 1.264 . S
C37 O31 1.248 . S
C38 O28 1.260 . S
C38 O32 1.253 . S
C39 O30 1.279 . S
C39 O33 1.250 . S
O40 Mg22 2.030 . S
O40 C34 1.248 . S
O41 Mg24 2.079 . S
O41 C34 1.264 . S
O42 Mg43 1.990 . S
O42 C56 1.253 . S
Mg43 O42 1.990 . S
Mg43 O46 2.180 . S
Mg43 O47 2.117 . S
Mg43 O61 2.030 . S
O44 Mg45 2.072 . S
O44 C56 1.260 . S
Mg45 O44 2.072 . S
Mg45 O46 2.099 . S
Mg45 O48 2.079 . S
Mg45 O49 2.072 . S
Mg45 O51 2.099 . S
Mg45 O62 2.079 . S
O46 Mg43 2.180 . S
O46 Mg45 2.099 . S
O46 C57 1.279 . S
O47 Mg43 2.117 . S
O47 C57 1.250 . S
O48 Mg45 2.079 . S
O48 C58 1.264 . S
O49 Mg45 2.072 . S
O49 C59 1.260 . S
Mg50 O51 2.180 . S
Mg50 O52 2.030 . S
Mg50 O53 1.990 . S
Mg50 O54 2.117 . S
O51 Mg45 2.099 . S
O51 Mg50 2.180 . S
O51 C60 1.279 . S
O52 Mg50 2.030 . S
O52 C58 1.248 . S
O53 Mg50 1.990 . S
O53 C59 1.253 . S
O54 Mg50 2.117 . S
O54 C60 1.250 . S
C55 O61 1.248 . S
C55 O62 1.264 . S
C56 O42 1.253 . S
C56 O44 1.260 . S
C57 O46 1.279 . S
C57 O47 1.250 . S
C58 O48 1.264 . S
C58 O52 1.248 . S
C59 O49 1.260 . S
C59 O53 1.253 . S
C60 O51 1.279 . S
C60 O54 1.250 . S
O61 Mg43 2.030 . S
O61 C55 1.248 . S
O62 Mg45 2.079 . S
O62 C55 1.264 . S
O63 Mg64 1.990 . S
O63 C77 1.253 . S
Mg64 O63 1.990 . S
Mg64 O67 2.180 . S
Mg64 O68 2.117 . S
Mg64 O82 2.030 . S
O65 Mg66 2.072 . S
O65 C77 1.260 . S
Mg66 O65 2.072 . S
Mg66 O67 2.099 . S
Mg66 O69 2.079 . S
Mg66 O70 2.072 . S
Mg66 O72 2.099 . S
Mg66 O83 2.079 . S
O67 Mg64 2.180 . S
O67 Mg66 2.099 . S
O67 C78 1.279 . S
O68 Mg64 2.117 . S
O68 C78 1.250 . S
O69 Mg66 2.079 . S
O69 C79 1.264 . S
O70 Mg66 2.072 . S
O70 C80 1.260 . S
Mg71 O72 2.180 . S
Mg71 O73 2.030 . S
Mg71 O74 1.990 . S
Mg71 O75 2.117 . S
O72 Mg66 2.099 . S
O72 Mg71 2.180 . S
O72 C81 1.279 . S
O73 Mg71 2.030 . S
O73 C79 1.248 . S
O74 Mg71 1.990 . S
O74 C80 1.253 . S
O75 Mg71 2.117 . S
O75 C81 1.250 . S
C76 O82 1.248 . S
C76 O83 1.264 . S
C77 O63 1.253 . S
C77 O65 1.260 . S
C78 O67 1.279 . S
C78 O68 1.250 . S
C79 O69 1.264 . S
C79 O73 1.248 . S
C80 O70 1.260 . S
C80 O74 1.253 . S
C81 O72 1.279 . S
C81 O75 1.250 . S
O82 Mg64 2.030 . S
O82 C76 1.248 . S
O83 Mg66 2.079 . S
O83 C76 1.264 . S
O84 Mg85 1.990 . S
O84 C98 1.253 . S
Mg85 O84 1.990 . S
Mg85 O88 2.180 . S
Mg85 O89 2.117 . S
Mg85 O103 2.030 . S
O86 Mg87 2.072 . S
O86 C98 1.260 . S
Mg87 O86 2.072 . S
Mg87 O88 2.099 . S
Mg87 O90 2.079 . S
Mg87 O91 2.072 . S
Mg87 O93 2.099 . S
Mg87 O104 2.079 . S
O88 Mg85 2.180 . S
O88 Mg87 2.099 . S
O88 C99 1.279 . S
O89 Mg85 2.117 . S
O89 C99 1.250 . S
O90 Mg87 2.079 . S
O90 C100 1.264 . S
O91 Mg87 2.072 . S
O91 C101 1.260 . S
Mg92 O93 2.180 . S
Mg92 O94 2.030 . S
Mg92 O95 1.990 . S
Mg92 O96 2.117 . S
O93 Mg87 2.099 . S
O93 Mg92 2.180 . S
O93 C102 1.279 . S
O94 Mg92 2.030 . S
O94 C100 1.248 . S
O95 Mg92 1.990 . S
O95 C101 1.253 . S
O96 Mg92 2.117 . S
O96 C102 1.250 . S
C97 O103 1.248 . S
C97 O104 1.264 . S
C98 O84 1.253 . S
C98 O86 1.260 . S
C99 O88 1.279 . S
C99 O89 1.250 . S
C100 O90 1.264 . S
C100 O94 1.248 . S
C101 O91 1.260 . S
C101 O95 1.253 . S
C102 O93 1.279 . S
C102 O96 1.250 . S
O103 Mg85 2.030 . S
O103 C97 1.248 . S
O104 Mg87 2.079 . S
O104 C97 1.264 . S
O105 Mg106 1.990 . S
O105 C119 1.253 . S
Mg106 O105 1.990 . S
Mg106 O109 2.180 . S
Mg106 O110 2.117 . S
Mg106 O124 2.030 . S
O107 Mg108 2.072 . S
O107 C119 1.260 . S
Mg108 O107 2.072 . S
Mg108 O109 2.099 . S
Mg108 O111 2.079 . S
Mg108 O112 2.072 . S
Mg108 O114 2.099 . S
Mg108 O125 2.079 . S
O109 Mg106 2.180 . S
O109 Mg108 2.099 . S
O109 C120 1.279 . S
O110 Mg106 2.117 . S
O110 C120 1.250 . S
O111 Mg108 2.079 . S
O111 C121 1.264 . S
O112 Mg108 2.072 . S
O112 C122 1.260 . S
Mg113 O114 2.180 . S
Mg113 O115 2.030 . S
Mg113 O116 1.990 . S
Mg113 O117 2.117 . S
O114 Mg108 2.099 . S
O114 Mg113 2.180 . S
O114 C123 1.279 . S
O115 Mg113 2.030 . S
O115 C121 1.248 . S
O116 Mg113 1.990 . S
O116 C122 1.253 . S
O117 Mg113 2.117 . S
O117 C123 1.250 . S
C118 O124 1.248 . S
C118 O125 1.264 . S
C119 O105 1.253 . S
C119 O107 1.260 . S
C120 O109 1.279 . S
C120 O110 1.250 . S
C121 O111 1.264 . S
C121 O115 1.248 . S
C122 O112 1.260 . S
C122 O116 1.253 . S
C123 O114 1.279 . S
C123 O117 1.250 . S
O124 Mg106 2.030 . S
O124 C118 1.248 . S
O125 Mg108 2.079 . S
O125 C118 1.264 . S
O126 Mg127 1.990 . S
O126 C140 1.253 . S
Mg127 O126 1.990 . S
Mg127 O130 2.180 . S
Mg127 O131 2.117 . S
Mg127 O145 2.030 . S
O128 Mg129 2.072 . S
O128 C140 1.260 . S
Mg129 O128 2.072 . S
Mg129 O130 2.099 . S
Mg129 O132 2.079 . S
Mg129 O133 2.072 . S
Mg129 O135 2.099 . S
Mg129 O146 2.079 . S
O130 Mg127 2.180 . S
O130 Mg129 2.099 . S
O130 C141 1.279 . S
O131 Mg127 2.117 . S
O131 C141 1.250 . S
O132 Mg129 2.079 . S
O132 C142 1.264 . S
O133 Mg129 2.072 . S
O133 C143 1.260 . S
Mg134 O135 2.180 . S
Mg134 O136 2.030 . S
Mg134 O137 1.990 . S
Mg134 O138 2.117 . S
O135 Mg129 2.099 . S
O135 Mg134 2.180 . S
O135 C144 1.279 . S
O136 Mg134 2.030 . S
O136 C142 1.248 . S
O137 Mg134 1.990 . S
O137 C143 1.253 . S
O138 Mg134 2.117 . S
O138 C144 1.250 . S
C139 O145 1.248 . S
C139 O146 1.264 . S
C140 O126 1.253 . S
C140 O128 1.260 . S
C141 O130 1.279 . S
C141 O131 1.250 . S
C142 O132 1.264 . S
C142 O136 1.248 . S
C143 O133 1.260 . S
C143 O137 1.253 . S
C144 O135 1.279 . S
C144 O138 1.250 . S
O145 Mg127 2.030 . S
O145 C139 1.248 . S
O146 Mg129 2.079 . S
O146 C139 1.264 . S
O147 Mg148 1.990 . S
O147 C161 1.253 . S
Mg148 O147 1.990 . S
Mg148 O151 2.180 . S
Mg148 O152 2.117 . S
Mg148 O166 2.030 . S
O149 Mg150 2.072 . S
O149 C161 1.260 . S
Mg150 O149 2.072 . S
Mg150 O151 2.099 . S
Mg150 O153 2.079 . S
Mg150 O154 2.072 . S
Mg150 O156 2.099 . S
Mg150 O167 2.079 . S
O151 Mg148 2.180 . S
O151 Mg150 2.099 . S
O151 C162 1.279 . S
O152 Mg148 2.117 . S
O152 C162 1.250 . S
O153 Mg150 2.079 . S
O153 C163 1.264 . S
O154 Mg150 2.072 . S
O154 C164 1.260 . S
Mg155 O156 2.180 . S
Mg155 O157 2.030 . S
Mg155 O158 1.990 . S
Mg155 O159 2.117 . S
O156 Mg150 2.099 . S
O156 Mg155 2.180 . S
O156 C165 1.279 . S
O157 Mg155 2.030 . S
O157 C163 1.248 . S
O158 Mg155 1.990 . S
O158 C164 1.253 . S
O159 Mg155 2.117 . S
O159 C165 1.250 . S
C160 O166 1.248 . S
C160 O167 1.264 . S
C161 O147 1.253 . S
C161 O149 1.260 . S
C162 O151 1.279 . S
C162 O152 1.250 . S
C163 O153 1.264 . S
C163 O157 1.248 . S
C164 O154 1.260 . S
C164 O158 1.253 . S
C165 O156 1.279 . S
C165 O159 1.250 . S
O166 Mg148 2.030 . S
O166 C160 1.248 . S
O167 Mg150 2.079 . S
O167 C160 1.264 . S
O168 Mg169 1.990 . S
O168 C182 1.253 . S
Mg169 O168 1.990 . S
Mg169 O172 2.180 . S
Mg169 O173 2.117 . S
Mg169 O187 2.030 . S
O170 Mg171 2.072 . S
O170 C182 1.260 . S
Mg171 O170 2.072 . S
Mg171 O172 2.099 . S
Mg171 O174 2.079 . S
Mg171 O175 2.072 . S
Mg171 O177 2.099 . S
Mg171 O188 2.079 . S
O172 Mg169 2.180 . S
O172 Mg171 2.099 . S
O172 C183 1.279 . S
O173 Mg169 2.117 . S
O173 C183 1.250 . S
O174 Mg171 2.079 . S
O174 C184 1.264 . S
O175 Mg171 2.072 . S
O175 C185 1.260 . S
Mg176 O177 2.180 . S
Mg176 O178 2.030 . S
Mg176 O179 1.990 . S
Mg176 O180 2.117 . S
O177 Mg171 2.099 . S
O177 Mg176 2.180 . S
O177 C186 1.279 . S
O178 Mg176 2.030 . S
O178 C184 1.248 . S
O179 Mg176 1.990 . S
O179 C185 1.253 . S
O180 Mg176 2.117 . S
O180 C186 1.250 . S
C181 O187 1.248 . S
C181 O188 1.264 . S
C182 O168 1.253 . S
C182 O170 1.260 . S
C183 O172 1.279 . S
C183 O173 1.250 . S
C184 O174 1.264 . S
C184 O178 1.248 . S
C185 O175 1.260 . S
C185 O179 1.253 . S
C186 O177 1.279 . S
C186 O180 1.250 . S
O187 Mg169 2.030 . S
O187 C181 1.248 . S
O188 Mg171 2.079 . S
O188 C181 1.264 . S
O189 Mg190 1.990 . S
O189 C203 1.253 . S
Mg190 O189 1.990 . S
Mg190 O193 2.180 . S
Mg190 O194 2.117 . S
Mg190 O208 2.030 . S
O191 Mg192 2.072 . S
O191 C203 1.260 . S
Mg192 O191 2.072 . S
Mg192 O193 2.099 . S
Mg192 O195 2.079 . S
Mg192 O196 2.072 . S
Mg192 O198 2.099 . S
Mg192 O209 2.079 . S
O193 Mg190 2.180 . S
O193 Mg192 2.099 . S
O193 C204 1.279 . S
O194 Mg190 2.117 . S
O194 C204 1.250 . S
O195 Mg192 2.079 . S
O195 C205 1.264 . S
O196 Mg192 2.072 . S
O196 C206 1.260 . S
Mg197 O198 2.180 . S
Mg197 O199 2.030 . S
Mg197 O200 1.990 . S
Mg197 O201 2.117 . S
O198 Mg192 2.099 . S
O198 Mg197 2.180 . S
O198 C207 1.279 . S
O199 Mg197 2.030 . S
O199 C205 1.248 . S
O200 Mg197 1.990 . S
O200 C206 1.253 . S
O201 Mg197 2.117 . S
O201 C207 1.250 . S
C202 O208 1.248 . S
C202 O209 1.264 . S
C203 O189 1.253 . S
C203 O191 1.260 . S
C204 O193 1.279 . S
C204 O194 1.250 . S
C205 O195 1.264 . S
C205 O199 1.248 . S
C206 O196 1.260 . S
C206 O200 1.253 . S
C207 O198 1.279 . S
C207 O201 1.250 . S
O208 Mg190 2.030 . S
O208 C202 1.248 . S
O209 Mg192 2.079 . S
O209 C202 1.264 . S
O210 Mg211 1.990 . S
O210 C224 1.253 . S
Mg211 O210 1.990 . S
Mg211 O214 2.180 . S
Mg211 O215 2.117 . S
Mg211 O229 2.030 . S
O212 Mg213 2.072 . S
O212 C224 1.260 . S
Mg213 O212 2.072 . S
Mg213 O214 2.099 . S
Mg213 O216 2.079 . S
Mg213 O217 2.072 . S
Mg213 O219 2.099 . S
Mg213 O230 2.079 . S
O214 Mg211 2.180 . S
O214 Mg213 2.099 . S
O214 C225 1.279 . S
O215 Mg211 2.117 . S
O215 C225 1.250 . S
O216 Mg213 2.079 . S
O216 C226 1.264 . S
O217 Mg213 2.072 . S
O217 C227 1.260 . S
Mg218 O219 2.180 . S
Mg218 O220 2.030 . S
Mg218 O221 1.990 . S
Mg218 O222 2.117 . S
O219 Mg213 2.099 . S
O219 Mg218 2.180 . S
O219 C228 1.279 . S
O220 Mg218 2.030 . S
O220 C226 1.248 . S
O221 Mg218 1.990 . S
O221 C227 1.253 . S
O222 Mg218 2.117 . S
O222 C228 1.250 . S
C223 O229 1.248 . S
C223 O230 1.264 . S
C224 O210 1.253 . S
C224 O212 1.260 . S
C225 O214 1.279 . S
C225 O215 1.250 . S
C226 O216 1.264 . S
C226 O220 1.248 . S
C227 O217 1.260 . S
C227 O221 1.253 . S
C228 O219 1.279 . S
C228 O222 1.250 . S
O229 Mg211 2.030 . S
O229 C223 1.248 . S
O230 Mg213 2.079 . S
O230 C223 1.264 . S
O231 Mg232 1.990 . S
O231 C245 1.253 . S
Mg232 O231 1.990 . S
Mg232 O235 2.180 . S
Mg232 O236 2.117 . S
Mg232 O250 2.030 . S
O233 Mg234 2.072 . S
O233 C245 1.260 . S
Mg234 O233 2.072 . S
Mg234 O235 2.099 . S
Mg234 O237 2.079 . S
Mg234 O238 2.072 . S
Mg234 O240 2.099 . S
Mg234 O251 2.079 . S
O235 Mg232 2.180 . S
O235 Mg234 2.099 . S
O235 C246 1.279 . S
O236 Mg232 2.117 . S
O236 C246 1.250 . S
O237 Mg234 2.079 . S
O237 C247 1.264 . S
O238 Mg234 2.072 . S
O238 C248 1.260 . S
Mg239 O240 2.180 . S
Mg239 O241 2.030 . S
Mg239 O242 1.990 . S
Mg239 O243 2.117 . S
O240 Mg234 2.099 . S
O240 Mg239 2.180 . S
O240 C249 1.279 . S
O241 Mg239 2.030 . S
O241 C247 1.248 . S
O242 Mg239 1.990 . S
O242 C248 1.253 . S
O243 Mg239 2.117 . S
O243 C249 1.250 . S
C244 O250 1.248 . S
C244 O251 1.264 . S
C245 O231 1.253 . S
C245 O233 1.260 . S
C246 O235 1.279 . S
C246 O236 1.250 . S
C247 O237 1.264 . S
C247 O241 1.248 . S
C248 O238 1.260 . S
C248 O242 1.253 . S
C249 O240 1.279 . S
C249 O243 1.250 . S
O250 Mg232 2.030 . S
O250 C244 1.248 . S
O251 Mg234 2.079 . S
O251 C244 1.264 . S
O252 Mg253 1.990 . S
O252 C266 1.253 . S
Mg253 O252 1.990 . S
Mg253 O256 2.180 . S
Mg253 O257 2.117 . S
Mg253 O271 2.030 . S
O254 Mg255 2.072 . S
O254 C266 1.260 . S
Mg255 O254 2.072 . S
Mg255 O256 2.099 . S
Mg255 O258 2.079 . S
Mg255 O259 2.072 . S
Mg255 O261 2.099 . S
Mg255 O272 2.079 . S
O256 Mg253 2.180 . S
O256 Mg255 2.099 . S
O256 C267 1.279 . S
O257 Mg253 2.117 . S
O257 C267 1.250 . S
O258 Mg255 2.079 . S
O258 C268 1.264 . S
O259 Mg255 2.072 . S
O259 C269 1.260 . S
Mg260 O261 2.180 . S
Mg260 O262 2.030 . S
Mg260 O263 1.990 . S
Mg260 O264 2.117 . S
O261 Mg255 2.099 . S
O261 Mg260 2.180 . S
O261 C270 1.279 . S
O262 Mg260 2.030 . S
O262 C268 1.248 . S
O263 Mg260 1.990 . S
O263 C269 1.253 . S
O264 Mg260 2.117 . S
O264 C270 1.250 . S
C265 O271 1.248 . S
C265 O272 1.264 . S
C266 O252 1.253 . S
C266 O254 1.260 . S
C267 O256 1.279 . S
C267 O257 1.250 . S
C268 O258 1.264 . S
C268 O262 1.248 . S
C269 O259 1.260 . S
C269 O263 1.253 . S
C270 O261 1.279 . S
C270 O264 1.250 . S
O271 Mg253 2.030 . S
O271 C265 1.248 . S
O272 Mg255 2.079 . S
O272 C265 1.264 . S
O273 Mg274 1.990 . S
O273 C287 1.253 . S
Mg274 O273 1.990 . S
Mg274 O277 2.180 . S
Mg274 O278 2.117 . S
Mg274 O292 2.030 . S
O275 Mg276 2.072 . S
O275 C287 1.260 . S
Mg276 O275 2.072 . S
Mg276 O277 2.099 . S
Mg276 O279 2.079 . S
Mg276 O280 2.072 . S
Mg276 O282 2.099 . S
Mg276 O293 2.079 . S
O277 Mg274 2.180 . S
O277 Mg276 2.099 . S
O277 C288 1.279 . S
O278 Mg274 2.117 . S
O278 C288 1.250 . S
O279 Mg276 2.079 . S
O279 C289 1.264 . S
O280 Mg276 2.072 . S
O280 C290 1.260 . S
Mg281 O282 2.180 . S
Mg281 O283 2.030 . S
Mg281 O284 1.990 . S
Mg281 O285 2.117 . S
O282 Mg276 2.099 . S
O282 Mg281 2.180 . S
O282 C291 1.279 . S
O283 Mg281 2.030 . S
O283 C289 1.248 . S
O284 Mg281 1.990 . S
O284 C290 1.253 . S
O285 Mg281 2.117 . S
O285 C291 1.250 . S
C286 O292 1.248 . S
C286 O293 1.264 . S
C287 O273 1.253 . S
C287 O275 1.260 . S
C288 O277 1.279 . S
C288 O278 1.250 . S
C289 O279 1.264 . S
C289 O283 1.248 . S
C290 O280 1.260 . S
C290 O284 1.253 . S
C291 O282 1.279 . S
C291 O285 1.250 . S
O292 Mg274 2.030 . S
O292 C286 1.248 . S
O293 Mg276 2.079 . S
O293 C286 1.264 . S
O294 Mg295 1.990 . S
O294 C308 1.253 . S
Mg295 O294 1.990 . S
Mg295 O298 2.180 . S
Mg295 O299 2.117 . S
Mg295 O313 2.030 . S
O296 Mg297 2.072 . S
O296 C308 1.260 . S
Mg297 O296 2.072 . S
Mg297 O298 2.099 . S
Mg297 O300 2.079 . S
Mg297 O301 2.072 . S
Mg297 O303 2.099 . S
Mg297 O314 2.079 . S
O298 Mg295 2.180 . S
O298 Mg297 2.099 . S
O298 C309 1.279 . S
O299 Mg295 2.117 . S
O299 C309 1.250 . S
O300 Mg297 2.079 . S
O300 C310 1.264 . S
O301 Mg297 2.072 . S
O301 C311 1.260 . S
Mg302 O303 2.180 . S
Mg302 O304 2.030 . S
Mg302 O305 1.990 . S
Mg302 O306 2.117 . S
O303 Mg297 2.099 . S
O303 Mg302 2.180 . S
O303 C312 1.279 . S
O304 Mg302 2.030 . S
O304 C310 1.248 . S
O305 Mg302 1.990 . S
O305 C311 1.253 . S
O306 Mg302 2.117 . S
O306 C312 1.250 . S
C307 O313 1.248 . S
C307 O314 1.264 . S
C308 O294 1.253 . S
C308 O296 1.260 . S
C309 O298 1.279 . S
C309 O299 1.250 . S
C310 O300 1.264 . S
C310 O304 1.248 . S
C311 O301 1.260 . S
C311 O305 1.253 . S
C312 O303 1.279 . S
C312 O306 1.250 . S
O313 Mg295 2.030 . S
O313 C307 1.248 . S
O314 Mg297 2.079 . S
O314 C307 1.264 . S
O315 Mg316 1.990 . S
O315 C329 1.253 . S
Mg316 O315 1.990 . S
Mg316 O319 2.180 . S
Mg316 O320 2.117 . S
Mg316 O334 2.030 . S
O317 Mg318 2.072 . S
O317 C329 1.260 . S
Mg318 O317 2.072 . S
Mg318 O319 2.099 . S
Mg318 O321 2.079 . S
Mg318 O322 2.072 . S
Mg318 O324 2.099 . S
Mg318 O335 2.079 . S
O319 Mg316 2.180 . S
O319 Mg318 2.099 . S
O319 C330 1.279 . S
O320 Mg316 2.117 . S
O320 C330 1.250 . S
O321 Mg318 2.079 . S
O321 C331 1.264 . S
O322 Mg318 2.072 . S
O322 C332 1.260 . S
Mg323 O324 2.180 . S
Mg323 O325 2.030 . S
Mg323 O326 1.990 . S
Mg323 O327 2.117 . S
O324 Mg318 2.099 . S
O324 Mg323 2.180 . S
O324 C333 1.279 . S
O325 Mg323 2.030 . S
O325 C331 1.248 . S
O326 Mg323 1.990 . S
O326 C332 1.253 . S
O327 Mg323 2.117 . S
O327 C333 1.250 . S
C328 O334 1.248 . S
C328 O335 1.264 . S
C329 O315 1.253 . S
C329 O317 1.260 . S
C330 O319 1.279 . S
C330 O320 1.250 . S
C331 O321 1.264 . S
C331 O325 1.248 . S
C332 O322 1.260 . S
C332 O326 1.253 . S
C333 O324 1.279 . S
C333 O327 1.250 . S
O334 Mg316 2.030 . S
O334 C328 1.248 . S
O335 Mg318 2.079 . S
O335 C328 1.264 . S
O336 Mg337 1.990 . S
O336 C350 1.253 . S
Mg337 O336 1.990 . S
Mg337 O340 2.180 . S
Mg337 O341 2.117 . S
Mg337 O355 2.030 . S
O338 Mg339 2.072 . S
O338 C350 1.260 . S
Mg339 O338 2.072 . S
Mg339 O340 2.099 . S
Mg339 O342 2.079 . S
Mg339 O343 2.072 . S
Mg339 O345 2.099 . S
Mg339 O356 2.079 . S
O340 Mg337 2.180 . S
O340 Mg339 2.099 . S
O340 C351 1.279 . S
O341 Mg337 2.117 . S
O341 C351 1.250 . S
O342 Mg339 2.079 . S
O342 C352 1.264 . S
O343 Mg339 2.072 . S
O343 C353 1.260 . S
Mg344 O345 2.180 . S
Mg344 O346 2.030 . S
Mg344 O347 1.990 . S
Mg344 O348 2.117 . S
O345 Mg339 2.099 . S
O345 Mg344 2.180 . S
O345 C354 1.279 . S
O346 Mg344 2.030 . S
O346 C352 1.248 . S
O347 Mg344 1.990 . S
O347 C353 1.253 . S
O348 Mg344 2.117 . S
O348 C354 1.250 . S
C349 O355 1.248 . S
C349 O356 1.264 . S
C350 O336 1.253 . S
C350 O338 1.260 . S
C351 O340 1.279 . S
C351 O341 1.250 . S
C352 O342 1.264 . S
C352 O346 1.248 . S
C353 O343 1.260 . S
C353 O347 1.253 . S
C354 O345 1.279 . S
C354 O348 1.250 . S
O355 Mg337 2.030 . S
O355 C349 1.248 . S
O356 Mg339 2.079 . S
O356 C349 1.264 . S
O357 Mg358 1.990 . S
O357 C371 1.253 . S
Mg358 O357 1.990 . S
Mg358 O361 2.180 . S
Mg358 O362 2.117 . S
Mg358 O376 2.030 . S
O359 Mg360 2.072 . S
O359 C371 1.260 . S
Mg360 O359 2.072 . S
Mg360 O361 2.099 . S
Mg360 O363 2.079 . S
Mg360 O364 2.072 . S
Mg360 O366 2.099 . S
Mg360 O377 2.079 . S
O361 Mg358 2.180 . S
O361 Mg360 2.099 . S
O361 C372 1.279 . S
O362 Mg358 2.117 . S
O362 C372 1.250 . S
O363 Mg360 2.079 . S
O363 C373 1.264 . S
O364 Mg360 2.072 . S
O364 C374 1.260 . S
Mg365 O366 2.180 . S
Mg365 O367 2.030 . S
Mg365 O368 1.990 . S
Mg365 O369 2.117 . S
O366 Mg360 2.099 . S
O366 Mg365 2.180 . S
O366 C375 1.279 . S
O367 Mg365 2.030 . S
O367 C373 1.248 . S
O368 Mg365 1.990 . S
O368 C374 1.253 . S
O369 Mg365 2.117 . S
O369 C375 1.250 . S
C370 O376 1.248 . S
C370 O377 1.264 . S
C371 O357 1.253 . S
C371 O359 1.260 . S
C372 O361 1.279 . S
C372 O362 1.250 . S
C373 O363 1.264 . S
C373 O367 1.248 . S
C374 O364 1.260 . S
C374 O368 1.253 . S
C375 O366 1.279 . S
C375 O369 1.250 . S
O376 Mg358 2.030 . S
O376 C370 1.248 . S
O377 Mg360 2.079 . S
O377 C370 1.264 . S
O378 Mg379 1.990 . S
O378 C392 1.253 . S
Mg379 O378 1.990 . S
Mg379 O382 2.180 . S
Mg379 O383 2.117 . S
Mg379 O397 2.030 . S
O380 Mg381 2.072 . S
O380 C392 1.260 . S
Mg381 O380 2.072 . S
Mg381 O382 2.099 . S
Mg381 O384 2.079 . S
Mg381 O385 2.072 . S
Mg381 O387 2.099 . S
Mg381 O398 2.079 . S
O382 Mg379 2.180 . S
O382 Mg381 2.099 . S
O382 C393 1.279 . S
O383 Mg379 2.117 . S
O383 C393 1.250 . S
O384 Mg381 2.079 . S
O384 C394 1.264 . S
O385 Mg381 2.072 . S
O385 C395 1.260 . S
Mg386 O387 2.180 . S
Mg386 O388 2.030 . S
Mg386 O389 1.990 . S
Mg386 O390 2.117 . S
O387 Mg381 2.099 . S
O387 Mg386 2.180 . S
O387 C396 1.279 . S
O388 Mg386 2.030 . S
O388 C394 1.248 . S
O389 Mg386 1.990 . S
O389 C395 1.253 . S
O390 Mg386 2.117 . S
O390 C396 1.250 . S
C391 O397 1.248 . S
C391 O398 1.264 . S
C392 O378 1.253 . S
C392 O380 1.260 . S
C393 O382 1.279 . S
C393 O383 1.250 . S
C394 O384 1.264 . S
C394 O388 1.248 . S
C395 O385 1.260 . S
C395 O389 1.253 . S
C396 O387 1.279 . S
C396 O390 1.250 . S
O397 Mg379 2.030 . S
O397 C391 1.248 . S
O398 Mg381 2.079 . S
O398 C391 1.264 . S
O399 Mg400 1.990 . S
O399 C413 1.253 . S
Mg400 O399 1.990 . S
Mg400 O403 2.180 . S
Mg400 O404 2.117 . S
Mg400 O418 2.030 . S
O401 Mg402 2.072 . S
O401 C413 1.260 . S
Mg402 O401 2.072 . S
Mg402 O403 2.099 . S
Mg402 O405 2.079 . S
Mg402 O406 2.072 . S
Mg402 O408 2.099 . S
Mg402 O419 2.079 . S
O403 Mg400 2.180 . S
O403 Mg402 2.099 . S
O403 C414 1.279 . S
O404 Mg400 2.117 . S
O404 C414 1.250 . S
O405 Mg402 2.079 . S
O405 C415 1.264 . S
O406 Mg402 2.072 . S
O406 C416 1.260 . S
Mg407 O408 2.180 . S
Mg407 O409 2.030 . S
Mg407 O410 1.990 . S
Mg407 O411 2.117 . S
O408 Mg402 2.099 . S
O408 Mg407 2.180 . S
O408 C417 1.279 . S
O409 Mg407 2.030 . S
O409 C415 1.248 . S
O410 Mg407 1.990 . S
O410 C416 1.253 . S
O411 Mg407 2.117 . S
O411 C417 1.250 . S
C412 O418 1.248 . S
C412 O419 1.264 . S
C413 O399 1.253 . S
C413 O401 1.260 . S
C414 O403 1.279 . S
C414 O404 1.250 . S
C415 O405 1.264 . S
C415 O409 1.248 . S
C416 O406 1.260 . S
C416 O410 1.253 . S
C417 O408 1.279 . S
C417 O411 1.250 . S
O418 Mg400 2.030 . S
O418 C412 1.248 . S
O419 Mg402 2.079 . S
O419 C412 1.264 . S
O420 Mg421 1.990 . S
O420 C434 1.253 . S
Mg421 O420 1.990 . S
Mg421 O424 2.180 . S
Mg421 O425 2.117 . S
Mg421 O439 2.030 . S
O422 Mg423 2.072 . S
O422 C434 1.260 . S
Mg423 O422 2.072 . S
Mg423 O424 2.099 . S
Mg423 O426 2.079 . S
Mg423 O427 2.072 . S
Mg423 O429 2.099 . S
Mg423 O440 2.079 . S
O424 Mg421 2.180 . S
O424 Mg423 2.099 . S
O424 C435 1.279 . S
O425 Mg421 2.117 . S
O425 C435 1.250 . S
O426 Mg423 2.079 . S
O426 C436 1.264 . S
O427 Mg423 2.072 . S
O427 C437 1.260 . S
Mg428 O429 2.180 . S
Mg428 O430 2.030 . S
Mg428 O431 1.990 . S
Mg428 O432 2.117 . S
O429 Mg423 2.099 . S
O429 Mg428 2.180 . S
O429 C438 1.279 . S
O430 Mg428 2.030 . S
O430 C436 1.248 . S
O431 Mg428 1.990 . S
O431 C437 1.253 . S
O432 Mg428 2.117 . S
O432 C438 1.250 . S
C433 O439 1.248 . S
C433 O440 1.264 . S
C434 O420 1.253 . S
C434 O422 1.260 . S
C435 O424 1.279 . S
C435 O425 1.250 . S
C436 O426 1.264 . S
C436 O430 1.248 . S
C437 O427 1.260 . S
C437 O431 1.253 . S
C438 O429 1.279 . S
C438 O432 1.250 . S
O439 Mg421 2.030 . S
O439 C433 1.248 . S
O440 Mg423 2.079 . S
O440 C433 1.264 . S
O441 Mg442 1.990 . S
O441 C455 1.253 . S
Mg442 O441 1.990 . S
Mg442 O445 2.180 . S
Mg442 O446 2.117 . S
Mg442 O460 2.030 . S
O443 Mg444 2.073 . S
O443 C455 1.263 . S
Mg444 O443 2.073 . S
Mg444 O445 2.099 . S
Mg444 O447 2.079 . S
Mg444 O448 2.072 1_554 S
Mg444 O450 2.099 1_554 S
Mg444 O461 2.079 . S
O445 Mg442 2.180 . S
O445 Mg444 2.099 . S
O445 C456 1.279 . S
O446 Mg442 2.117 . S
O446 C456 1.250 . S
O447 Mg444 2.079 . S
O447 C457 1.264 1_554 S
O448 Mg444 2.072 1_556 S
O448 C458 1.260 . S
Mg449 O450 2.180 . S
Mg449 O451 2.030 . S
Mg449 O452 1.990 . S
Mg449 O453 2.117 . S
O450 Mg444 2.099 1_556 S
O450 Mg449 2.180 . S
O450 C459 1.279 . S
O451 Mg449 2.030 . S
O451 C457 1.248 . S
O452 Mg449 1.990 . S
O452 C458 1.253 . S
O453 Mg449 2.117 . S
O453 C459 1.250 . S
C454 O460 1.248 . S
C454 O461 1.264 . S
C455 O441 1.253 . S
C455 O443 1.263 . S
C456 O445 1.279 . S
C456 O446 1.250 . S
C457 O447 1.264 1_556 S
C457 O451 1.248 . S
C458 O448 1.260 . S
C458 O452 1.253 . S
C459 O450 1.279 . S
C459 O453 1.250 . S
O460 Mg442 2.030 . S
O460 C454 1.248 . S
O461 Mg444 2.079 . S
O461 C454 1.264 . S
O462 Mg463 1.990 . S
O462 C476 1.253 . S
Mg463 O462 1.990 . S
Mg463 O466 2.180 . S
Mg463 O467 2.117 . S
Mg463 O481 2.030 . S
O464 Mg465 2.073 . S
O464 C476 1.263 . S
Mg465 O464 2.073 . S
Mg465 O466 2.099 . S
Mg465 O468 2.079 . S
Mg465 O469 2.072 1_554 S
Mg465 O471 2.099 1_554 S
Mg465 O482 2.079 . S
O466 Mg463 2.180 . S
O466 Mg465 2.099 . S
O466 C477 1.279 . S
O467 Mg463 2.117 . S
O467 C477 1.250 . S
O468 Mg465 2.079 . S
O468 C478 1.264 1_554 S
O469 Mg465 2.072 1_556 S
O469 C479 1.260 . S
Mg470 O471 2.180 . S
Mg470 O472 2.030 . S
Mg470 O473 1.990 . S
Mg470 O474 2.117 . S
O471 Mg465 2.099 1_556 S
O471 Mg470 2.180 . S
O471 C480 1.279 . S
O472 Mg470 2.030 . S
O472 C478 1.248 . S
O473 Mg470 1.990 . S
O473 C479 1.253 . S
O474 Mg470 2.117 . S
O474 C480 1.250 . S
C475 O481 1.248 . S
C475 O482 1.264 . S
C476 O462 1.253 . S
C476 O464 1.263 . S
C477 O466 1.279 . S
C477 O467 1.250 . S
C478 O468 1.264 1_556 S
C478 O472 1.248 . S
C479 O469 1.260 . S
C479 O473 1.253 . S
C480 O471 1.279 . S
C480 O474 1.250 . S
O481 Mg463 2.030 . S
O481 C475 1.248 . S
O482 Mg465 2.079 . S
O482 C475 1.264 . S
O483 Mg484 1.990 . S
O483 C497 1.253 . S
Mg484 O483 1.990 . S
Mg484 O487 2.180 . S
Mg484 O488 2.117 . S
Mg484 O502 2.030 . S
O485 Mg486 2.073 . S
O485 C497 1.263 . S
Mg486 O485 2.073 . S
Mg486 O487 2.099 . S
Mg486 O489 2.079 . S
Mg486 O490 2.072 1_554 S
Mg486 O492 2.099 1_554 S
Mg486 O503 2.079 . S
O487 Mg484 2.180 . S
O487 Mg486 2.099 . S
O487 C498 1.279 . S
O488 Mg484 2.117 . S
O488 C498 1.250 . S
O489 Mg486 2.079 . S
O489 C499 1.264 1_554 S
O490 Mg486 2.072 1_556 S
O490 C500 1.260 . S
Mg491 O492 2.180 . S
Mg491 O493 2.030 . S
Mg491 O494 1.990 . S
Mg491 O495 2.117 . S
O492 Mg486 2.099 1_556 S
O492 Mg491 2.180 . S
O492 C501 1.279 . S
O493 Mg491 2.030 . S
O493 C499 1.248 . S
O494 Mg491 1.990 . S
O494 C500 1.253 . S
O495 Mg491 2.117 . S
O495 C501 1.250 . S
C496 O502 1.248 . S
C496 O503 1.264 . S
C497 O483 1.253 . S
C497 O485 1.263 . S
C498 O487 1.279 . S
C498 O488 1.250 . S
C499 O489 1.264 1_556 S
C499 O493 1.248 . S
C500 O490 1.260 . S
C500 O494 1.253 . S
C501 O492 1.279 . S
C501 O495 1.250 . S
O502 Mg484 2.030 . S
O502 C496 1.248 . S
O503 Mg486 2.079 . S
O503 C496 1.264 . S
O504 Mg505 1.990 . S
O504 C518 1.253 . S
Mg505 O504 1.990 . S
Mg505 O508 2.180 . S
Mg505 O509 2.117 . S
Mg505 O523 2.030 . S
O506 Mg507 2.072 . S
O506 C518 1.260 . S
Mg507 O506 2.072 . S
Mg507 O508 2.099 . S
Mg507 O510 2.079 . S
Mg507 O511 2.072 . S
Mg507 O513 2.099 . S
Mg507 O524 2.079 . S
O508 Mg505 2.180 . S
O508 Mg507 2.099 . S
O508 C519 1.279 . S
O509 Mg505 2.117 . S
O509 C519 1.250 . S
O510 Mg507 2.079 . S
O510 C520 1.264 . S
O511 Mg507 2.072 . S
O511 C521 1.260 . S
Mg512 O513 2.180 . S
Mg512 O514 2.030 . S
Mg512 O515 1.990 . S
Mg512 O516 2.117 . S
O513 Mg507 2.099 . S
O513 Mg512 2.180 . S
O513 C522 1.279 . S
O514 Mg512 2.030 . S
O514 C520 1.248 . S
O515 Mg512 1.990 . S
O515 C521 1.253 . S
O516 Mg512 2.117 . S
O516 C522 1.250 . S
C517 O523 1.248 . S
C517 O524 1.264 . S
C518 O504 1.253 . S
C518 O506 1.260 . S
C519 O508 1.279 . S
C519 O509 1.250 . S
C520 O510 1.264 . S
C520 O514 1.248 . S
C521 O511 1.260 . S
C521 O515 1.253 . S
C522 O513 1.279 . S
C522 O516 1.250 . S
O523 Mg505 2.030 . S
O523 C517 1.248 . S
O524 Mg507 2.079 . S
O524 C517 1.264 . S
O525 Mg526 1.990 . S
O525 C539 1.253 . S
Mg526 O525 1.990 . S
Mg526 O529 2.180 . S
Mg526 O530 2.117 . S
Mg526 O544 2.030 . S
O527 Mg528 2.072 . S
O527 C539 1.260 . S
Mg528 O527 2.072 . S
Mg528 O529 2.099 . S
Mg528 O531 2.079 . S
Mg528 O532 2.072 . S
Mg528 O534 2.099 . S
Mg528 O545 2.079 . S
O529 Mg526 2.180 . S
O529 Mg528 2.099 . S
O529 C540 1.279 . S
O530 Mg526 2.117 . S
O530 C540 1.250 . S
O531 Mg528 2.079 . S
O531 C541 1.264 . S
O532 Mg528 2.072 . S
O532 C542 1.260 . S
Mg533 O534 2.180 . S
Mg533 O535 2.030 . S
Mg533 O536 1.990 . S
Mg533 O537 2.117 . S
O534 Mg528 2.099 . S
O534 Mg533 2.180 . S
O534 C543 1.279 . S
O535 Mg533 2.030 . S
O535 C541 1.248 . S
O536 Mg533 1.990 . S
O536 C542 1.253 . S
O537 Mg533 2.117 . S
O537 C543 1.250 . S
C538 O544 1.248 . S
C538 O545 1.264 . S
C539 O525 1.253 . S
C539 O527 1.260 . S
C540 O529 1.279 . S
C540 O530 1.250 . S
C541 O531 1.264 . S
C541 O535 1.248 . S
C542 O532 1.260 . S
C542 O536 1.253 . S
C543 O534 1.279 . S
C543 O537 1.250 . S
O544 Mg526 2.030 . S
O544 C538 1.248 . S
O545 Mg528 2.079 . S
O545 C538 1.264 . S
O546 Mg547 1.990 . S
O546 C560 1.253 . S
Mg547 O546 1.990 . S
Mg547 O550 2.180 . S
Mg547 O551 2.117 . S
Mg547 O565 2.030 . S
O548 Mg549 2.072 . S
O548 C560 1.260 . S
Mg549 O548 2.072 . S
Mg549 O550 2.099 . S
Mg549 O552 2.079 . S
Mg549 O553 2.072 . S
Mg549 O555 2.099 . S
Mg549 O566 2.079 . S
O550 Mg547 2.180 . S
O550 Mg549 2.099 . S
O550 C561 1.279 . S
O551 Mg547 2.117 . S
O551 C561 1.250 . S
O552 Mg549 2.079 . S
O552 C562 1.264 . S
O553 Mg549 2.072 . S
O553 C563 1.260 . S
Mg554 O555 2.180 . S
Mg554 O556 2.030 . S
Mg554 O557 1.990 . S
Mg554 O558 2.117 . S
O555 Mg549 2.099 . S
O555 Mg554 2.180 . S
O555 C564 1.279 . S
O556 Mg554 2.030 . S
O556 C562 1.248 . S
O557 Mg554 1.990 . S
O557 C563 1.253 . S
O558 Mg554 2.117 . S
O558 C564 1.250 . S
C559 O565 1.248 . S
C559 O566 1.264 . S
C560 O546 1.253 . S
C560 O548 1.260 . S
C561 O550 1.279 . S
C561 O551 1.250 . S
C562 O552 1.264 . S
C562 O556 1.248 . S
C563 O553 1.260 . S
C563 O557 1.253 . S
C564 O555 1.279 . S
C564 O558 1.250 . S
O565 Mg547 2.030 . S
O565 C559 1.248 . S
O566 Mg549 2.079 . S
O566 C559 1.264 . S
O567 Mg568 1.990 . S
O567 C581 1.253 . S
Mg568 O567 1.990 . S
Mg568 O571 2.180 . S
Mg568 O572 2.117 . S
Mg568 O586 2.030 . S
O569 Mg570 2.073 . S
O569 C581 1.263 . S
Mg570 O569 2.073 . S
Mg570 O571 2.099 . S
Mg570 O573 2.079 . S
Mg570 O574 2.072 1_556 S
Mg570 O576 2.099 1_556 S
Mg570 O587 2.079 . S
O571 Mg568 2.180 . S
O571 Mg570 2.099 . S
O571 C582 1.279 . S
O572 Mg568 2.117 . S
O572 C582 1.250 . S
O573 Mg570 2.079 . S
O573 C583 1.264 1_556 S
O574 Mg570 2.072 1_554 S
O574 C584 1.260 . S
Mg575 O576 2.180 . S
Mg575 O577 2.030 . S
Mg575 O578 1.990 . S
Mg575 O579 2.117 . S
O576 Mg570 2.099 1_554 S
O576 Mg575 2.180 . S
O576 C585 1.279 . S
O577 Mg575 2.030 . S
O577 C583 1.248 . S
O578 Mg575 1.990 . S
O578 C584 1.253 . S
O579 Mg575 2.117 . S
O579 C585 1.250 . S
C580 O586 1.248 . S
C580 O587 1.264 . S
C581 O567 1.253 . S
C581 O569 1.263 . S
C582 O571 1.279 . S
C582 O572 1.250 . S
C583 O573 1.264 1_554 S
C583 O577 1.248 . S
C584 O574 1.260 . S
C584 O578 1.253 . S
C585 O576 1.279 . S
C585 O579 1.250 . S
O586 Mg568 2.030 . S
O586 C580 1.248 . S
O587 Mg570 2.079 . S
O587 C580 1.264 . S
O588 Mg589 1.990 . S
O588 C602 1.253 . S
Mg589 O588 1.990 . S
Mg589 O592 2.180 . S
Mg589 O593 2.117 . S
Mg589 O607 2.030 . S
O590 Mg591 2.073 . S
O590 C602 1.263 . S
Mg591 O590 2.073 . S
Mg591 O592 2.099 . S
Mg591 O594 2.079 . S
Mg591 O595 2.072 1_556 S
Mg591 O597 2.099 1_556 S
Mg591 O608 2.079 . S
O592 Mg589 2.180 . S
O592 Mg591 2.099 . S
O592 C603 1.279 . S
O593 Mg589 2.117 . S
O593 C603 1.250 . S
O594 Mg591 2.079 . S
O594 C604 1.264 1_556 S
O595 Mg591 2.072 1_554 S
O595 C605 1.260 . S
Mg596 O597 2.180 . S
Mg596 O598 2.030 . S
Mg596 O599 1.990 . S
Mg596 O600 2.117 . S
O597 Mg591 2.099 1_554 S
O597 Mg596 2.180 . S
O597 C606 1.279 . S
O598 Mg596 2.030 . S
O598 C604 1.248 . S
O599 Mg596 1.990 . S
O599 C605 1.253 . S
O600 Mg596 2.117 . S
O600 C606 1.250 . S
C601 O607 1.248 . S
C601 O608 1.264 . S
C602 O588 1.253 . S
C602 O590 1.263 . S
C603 O592 1.279 . S
C603 O593 1.250 . S
C604 O594 1.264 1_554 S
C604 O598 1.248 . S
C605 O595 1.260 . S
C605 O599 1.253 . S
C606 O597 1.279 . S
C606 O600 1.250 . S
O607 Mg589 2.030 . S
O607 C601 1.248 . S
O608 Mg591 2.079 . S
O608 C601 1.264 . S
O609 Mg610 1.990 . S
O609 C623 1.253 . S
Mg610 O609 1.990 . S
Mg610 O613 2.180 . S
Mg610 O614 2.117 . S
Mg610 O628 2.030 . S
O611 Mg612 2.073 . S
O611 C623 1.263 . S
Mg612 O611 2.073 . S
Mg612 O613 2.099 . S
Mg612 O615 2.079 . S
Mg612 O616 2.072 1_556 S
Mg612 O618 2.099 1_556 S
Mg612 O629 2.079 . S
O613 Mg610 2.180 . S
O613 Mg612 2.099 . S
O613 C624 1.279 . S
O614 Mg610 2.117 . S
O614 C624 1.250 . S
O615 Mg612 2.079 . S
O615 C625 1.264 1_556 S
O616 Mg612 2.072 1_554 S
O616 C626 1.260 . S
Mg617 O618 2.180 . S
Mg617 O619 2.030 . S
Mg617 O620 1.990 . S
Mg617 O621 2.117 . S
O618 Mg612 2.099 1_554 S
O618 Mg617 2.180 . S
O618 C627 1.279 . S
O619 Mg617 2.030 . S
O619 C625 1.248 . S
O620 Mg617 1.990 . S
O620 C626 1.253 . S
O621 Mg617 2.117 . S
O621 C627 1.250 . S
C622 O628 1.248 . S
C622 O629 1.264 . S
C623 O609 1.253 . S
C623 O611 1.263 . S
C624 O613 1.279 . S
C624 O614 1.250 . S
C625 O615 1.264 1_554 S
C625 O619 1.248 . S
C626 O616 1.260 . S
C626 O620 1.253 . S
C627 O618 1.279 . S
C627 O621 1.250 . S
O628 Mg610 2.030 . S
O628 C622 1.248 . S
O629 Mg612 2.079 . S
O629 C622 1.264 . S
O630 Mg631 1.990 . S
O630 C644 1.253 . S
Mg631 O630 1.990 . S
Mg631 O634 2.180 . S
Mg631 O635 2.117 . S
Mg631 O649 2.030 . S
O632 Mg633 2.072 . S
O632 C644 1.260 . S
Mg633 O632 2.072 . S
Mg633 O634 2.099 . S
Mg633 O636 2.079 . S
Mg633 O637 2.072 . S
Mg633 O639 2.099 . S
Mg633 O650 2.079 . S
O634 Mg631 2.180 . S
O634 Mg633 2.099 . S
O634 C645 1.279 . S
O635 Mg631 2.117 . S
O635 C645 1.250 . S
O636 Mg633 2.079 . S
O636 C646 1.264 . S
O637 Mg633 2.072 . S
O637 C647 1.260 . S
Mg638 O639 2.180 . S
Mg638 O640 2.030 . S
Mg638 O641 1.990 . S
Mg638 O642 2.117 . S
O639 Mg633 2.099 . S
O639 Mg638 2.180 . S
O639 C648 1.279 . S
O640 Mg638 2.030 . S
O640 C646 1.248 . S
O641 Mg638 1.990 . S
O641 C647 1.253 . S
O642 Mg638 2.117 . S
O642 C648 1.250 . S
C643 O649 1.248 . S
C643 O650 1.264 . S
C644 O630 1.253 . S
C644 O632 1.260 . S
C645 O634 1.279 . S
C645 O635 1.250 . S
C646 O636 1.264 . S
C646 O640 1.248 . S
C647 O637 1.260 . S
C647 O641 1.253 . S
C648 O639 1.279 . S
C648 O642 1.250 . S
O649 Mg631 2.030 . S
O649 C643 1.248 . S
O650 Mg633 2.079 . S
O650 C643 1.264 . S
O651 Mg652 1.990 . S
O651 C665 1.253 . S
Mg652 O651 1.990 . S
Mg652 O655 2.180 . S
Mg652 O656 2.117 . S
Mg652 O670 2.030 . S
O653 Mg654 2.072 . S
O653 C665 1.260 . S
Mg654 O653 2.072 . S
Mg654 O655 2.099 . S
Mg654 O657 2.079 . S
Mg654 O658 2.072 . S
Mg654 O660 2.099 . S
Mg654 O671 2.079 . S
O655 Mg652 2.180 . S
O655 Mg654 2.099 . S
O655 C666 1.279 . S
O656 Mg652 2.117 . S
O656 C666 1.250 . S
O657 Mg654 2.079 . S
O657 C667 1.264 . S
O658 Mg654 2.072 . S
O658 C668 1.260 . S
Mg659 O660 2.180 . S
Mg659 O661 2.030 . S
Mg659 O662 1.990 . S
Mg659 O663 2.117 . S
O660 Mg654 2.099 . S
O660 Mg659 2.180 . S
O660 C669 1.279 . S
O661 Mg659 2.030 . S
O661 C667 1.248 . S
O662 Mg659 1.990 . S
O662 C668 1.253 . S
O663 Mg659 2.117 . S
O663 C669 1.250 . S
C664 O670 1.248 . S
C664 O671 1.264 . S
C665 O651 1.253 . S
C665 O653 1.260 . S
C666 O655 1.279 . S
C666 O656 1.250 . S
C667 O657 1.264 . S
C667 O661 1.248 . S
C668 O658 1.260 . S
C668 O662 1.253 . S
C669 O660 1.279 . S
C669 O663 1.250 . S
O670 Mg652 2.030 . S
O670 C664 1.248 . S
O671 Mg654 2.079 . S
O671 C664 1.264 . S
O672 Mg673 1.990 . S
O672 C686 1.253 . S
Mg673 O672 1.990 . S
Mg673 O676 2.180 . S
Mg673 O677 2.117 . S
Mg673 O691 2.030 . S
O674 Mg675 2.072 . S
O674 C686 1.260 . S
Mg675 O674 2.072 . S
Mg675 O676 2.099 . S
Mg675 O678 2.079 . S
Mg675 O679 2.072 . S
Mg675 O681 2.099 . S
Mg675 O692 2.079 . S
O676 Mg673 2.180 . S
O676 Mg675 2.099 . S
O676 C687 1.279 . S
O677 Mg673 2.117 . S
O677 C687 1.250 . S
O678 Mg675 2.079 . S
O678 C688 1.264 . S
O679 Mg675 2.072 . S
O679 C689 1.260 . S
Mg680 O681 2.180 . S
Mg680 O682 2.030 . S
Mg680 O683 1.990 . S
Mg680 O684 2.117 . S
O681 Mg675 2.099 . S
O681 Mg680 2.180 . S
O681 C690 1.279 . S
O682 Mg680 2.030 . S
O682 C688 1.248 . S
O683 Mg680 1.990 . S
O683 C689 1.253 . S
O684 Mg680 2.117 . S
O684 C690 1.250 . S
C685 O691 1.248 . S
C685 O692 1.264 . S
C686 O672 1.253 . S
C686 O674 1.260 . S
C687 O676 1.279 . S
C687 O677 1.250 . S
C688 O678 1.264 . S
C688 O682 1.248 . S
C689 O679 1.260 . S
C689 O683 1.253 . S
C690 O681 1.279 . S
C690 O684 1.250 . S
O691 Mg673 2.030 . S
O691 C685 1.248 . S
O692 Mg675 2.079 . S
O692 C685 1.264 . S
O693 Mg694 1.990 . S
O693 C707 1.253 . S
Mg694 O693 1.990 . S
Mg694 O697 2.180 . S
Mg694 O698 2.117 . S
Mg694 O712 2.030 . S
O695 Mg696 2.072 . S
O695 C707 1.260 . S
Mg696 O695 2.072 . S
Mg696 O697 2.099 . S
Mg696 O699 2.079 . S
Mg696 O700 2.072 . S
Mg696 O702 2.099 . S
Mg696 O713 2.079 . S
O697 Mg694 2.180 . S
O697 Mg696 2.099 . S
O697 C708 1.279 . S
O698 Mg694 2.117 . S
O698 C708 1.250 . S
O699 Mg696 2.079 . S
O699 C709 1.264 . S
O700 Mg696 2.072 . S
O700 C710 1.260 . S
Mg701 O702 2.180 . S
Mg701 O703 2.030 . S
Mg701 O704 1.990 . S
Mg701 O705 2.117 . S
O702 Mg696 2.099 . S
O702 Mg701 2.180 . S
O702 C711 1.279 . S
O703 Mg701 2.030 . S
O703 C709 1.248 . S
O704 Mg701 1.990 . S
O704 C710 1.253 . S
O705 Mg701 2.117 . S
O705 C711 1.250 . S
C706 O712 1.248 . S
C706 O713 1.264 . S
C707 O693 1.253 . S
C707 O695 1.260 . S
C708 O697 1.279 . S
C708 O698 1.250 . S
C709 O699 1.264 . S
C709 O703 1.248 . S
C710 O700 1.260 . S
C710 O704 1.253 . S
C711 O702 1.279 . S
C711 O705 1.250 . S
O712 Mg694 2.030 . S
O712 C706 1.248 . S
O713 Mg696 2.079 . S
O713 C706 1.264 . S
O714 Mg715 1.990 . S
O714 C728 1.253 . S
Mg715 O714 1.990 . S
Mg715 O718 2.180 . S
Mg715 O719 2.117 . S
Mg715 O733 2.030 . S
O716 Mg717 2.072 . S
O716 C728 1.260 . S
Mg717 O716 2.072 . S
Mg717 O718 2.099 . S
Mg717 O720 2.079 . S
Mg717 O721 2.072 . S
Mg717 O723 2.099 . S
Mg717 O734 2.079 . S
O718 Mg715 2.180 . S
O718 Mg717 2.099 . S
O718 C729 1.279 . S
O719 Mg715 2.117 . S
O719 C729 1.250 . S
O720 Mg717 2.079 . S
O720 C730 1.264 . S
O721 Mg717 2.072 . S
O721 C731 1.260 . S
Mg722 O723 2.180 . S
Mg722 O724 2.030 . S
Mg722 O725 1.990 . S
Mg722 O726 2.117 . S
O723 Mg717 2.099 . S
O723 Mg722 2.180 . S
O723 C732 1.279 . S
O724 Mg722 2.030 . S
O724 C730 1.248 . S
O725 Mg722 1.990 . S
O725 C731 1.253 . S
O726 Mg722 2.117 . S
O726 C732 1.250 . S
C727 O733 1.248 . S
C727 O734 1.264 . S
C728 O714 1.253 . S
C728 O716 1.260 . S
C729 O718 1.279 . S
C729 O719 1.250 . S
C730 O720 1.264 . S
C730 O724 1.248 . S
C731 O721 1.260 . S
C731 O725 1.253 . S
C732 O723 1.279 . S
C732 O726 1.250 . S
O733 Mg715 2.030 . S
O733 C727 1.248 . S
O734 Mg717 2.079 . S
O734 C727 1.264 . S
O735 Mg736 1.990 . S
O735 C749 1.253 . S
Mg736 O735 1.990 . S
Mg736 O739 2.180 . S
Mg736 O740 2.117 . S
Mg736 O754 2.030 . S
O737 Mg738 2.072 . S
O737 C749 1.260 . S
Mg738 O737 2.072 . S
Mg738 O739 2.099 . S
Mg738 O741 2.079 . S
Mg738 O742 2.072 . S
Mg738 O744 2.099 . S
Mg738 O755 2.079 . S
O739 Mg736 2.180 . S
O739 Mg738 2.099 . S
O739 C750 1.279 . S
O740 Mg736 2.117 . S
O740 C750 1.250 . S
O741 Mg738 2.079 . S
O741 C751 1.264 . S
O742 Mg738 2.072 . S
O742 C752 1.260 . S
Mg743 O744 2.180 . S
Mg743 O745 2.030 . S
Mg743 O746 1.990 . S
Mg743 O747 2.117 . S
O744 Mg738 2.099 . S
O744 Mg743 2.180 . S
O744 C753 1.279 . S
O745 Mg743 2.030 . S
O745 C751 1.248 . S
O746 Mg743 1.990 . S
O746 C752 1.253 . S
O747 Mg743 2.117 . S
O747 C753 1.250 . S
C748 O754 1.248 . S
C748 O755 1.264 . S
C749 O735 1.253 . S
C749 O737 1.260 . S
C750 O739 1.279 . S
C750 O740 1.250 . S
C751 O741 1.264 . S
C751 O745 1.248 . S
C752 O742 1.260 . S
C752 O746 1.253 . S
C753 O744 1.279 . S
C753 O747 1.250 . S
O754 Mg736 2.030 . S
O754 C748 1.248 . S
O755 Mg738 2.079 . S
O755 C748 1.264 . S
C756 C757 1.349 . S
C756 C758 1.327 . S
C756 H781 0.950 . S
C757 C756 1.349 . S
C757 C773 1.349 . S
C758 C756 1.327 . S
C758 C777 1.429 . S
C758 H782 0.950 . S
C759 C776 1.574 . S
C759 C778 1.368 . S
C759 H783 0.949 . S
H760 C764 0.949 . S
C761 C762 1.349 . S
C761 C763 1.327 1_565 S
C761 H784 0.950 . S
C762 C761 1.349 . S
C762 C774 1.349 1_565 S
C763 C761 1.327 1_545 S
C763 C779 1.429 . S
C763 H785 0.940 . S
C764 H760 0.949 . S
C764 C772 1.574 . S
C764 C780 1.368 . S
H765 C773 0.950 . S
H766 C771 0.950 . S
H767 C772 0.949 . S
H768 C774 0.950 . S
H769 C775 0.950 . S
H770 C776 0.949 . S
C771 H766 0.950 . S
C771 C773 1.327 . S
C771 C777 1.429 . S
C772 C764 1.574 . S
C772 H767 0.949 . S
C772 C778 1.368 . S
C773 C757 1.349 . S
C773 H765 0.950 . S
C773 C771 1.327 . S
C774 C762 1.349 1_545 S
C774 H768 0.950 . S
C774 C775 1.327 . S
C775 H769 0.950 . S
C775 C774 1.327 . S
C775 C779 1.429 . S
C776 C759 1.574 . S
C776 H770 0.949 . S
C776 C780 1.368 . S
C777 C758 1.429 . S
C777 C771 1.429 . S
C777 C778 1.523 . S
C778 C759 1.368 . S
C778 C772 1.368 . S
C778 C777 1.523 . S
C779 C763 1.429 . S
C779 C775 1.429 . S
C779 C780 1.523 . S
C780 C764 1.368 . S
C780 C776 1.368 . S
C780 C779 1.523 . S
H781 C756 0.950 . S
H782 C758 0.950 . S
H783 C759 0.949 . S
H784 C761 0.950 . S
H785 C763 0.940 . S
C786 C787 1.349 . S
C786 C788 1.327 1_455 S
C786 H811 0.950 . S
C787 C786 1.349 . S
C787 C803 1.340 1_455 S
C788 C786 1.327 1_655 S
C788 C807 1.429 . S
C788 H812 0.950 . S
C789 C806 1.574 . S
C789 C808 1.368 . S
C789 H813 0.949 . S
H790 C794 0.949 . S
C791 C792 1.349 . S
C791 C793 1.327 . S
C791 H814 0.950 . S
C792 C791 1.349 . S
C792 C804 1.349 . S
C793 C791 1.327 . S
C793 C809 1.429 . S
C793 H815 0.950 1_565 S
C794 H790 0.949 . S
C794 C802 1.574 . S
C794 C810 1.368 . S
H795 C803 0.954 1_455 S
H796 C801 0.950 . S
H797 C802 0.949 . S
H798 C804 0.950 . S
H799 C805 0.950 . S
H800 C806 0.949 . S
C801 H796 0.950 . S
C801 C803 1.333 . S
C801 C807 1.429 . S
C802 C794 1.574 . S
C802 H797 0.949 . S
C802 C808 1.368 . S
C803 C787 1.340 1_655 S
C803 H795 0.954 1_655 S
C803 C801 1.333 . S
C804 C792 1.349 . S
C804 H798 0.950 . S
C804 C805 1.327 . S
C805 H799 0.950 . S
C805 C804 1.327 . S
C805 C809 1.429 . S
C806 C789 1.574 . S
C806 H800 0.949 . S
C806 C810 1.368 . S
C807 C788 1.429 . S
C807 C801 1.429 . S
C807 C808 1.523 . S
C808 C789 1.368 . S
C808 C802 1.368 . S
C808 C807 1.523 . S
C809 C793 1.429 . S
C809 C805 1.429 . S
C809 C810 1.523 1_565 S
C810 C794 1.368 . S
C810 C806 1.368 . S
C810 C809 1.523 1_545 S
H811 C786 0.950 . S
H812 C788 0.950 . S
H813 C789 0.949 . S
H814 C791 0.950 . S
H815 C793 0.950 1_545 S
C816 C817 1.349 . S
C816 C818 1.327 . S
C816 H841 0.950 . S
C817 C816 1.349 . S
C817 C833 1.349 . S
C818 C816 1.327 . S
C818 C837 1.429 . S
C818 H842 0.950 1_455 S
C819 C836 1.574 . S
C819 C838 1.368 . S
C819 H843 0.949 . S
H820 C824 0.949 . S
C821 C822 1.349 . S
C821 C823 1.327 . S
C821 H844 0.950 . S
C822 C821 1.349 . S
C822 C834 1.349 . S
C823 C821 1.327 . S
C823 C839 1.429 . S
C823 H845 0.950 . S
C824 H820 0.949 . S
C824 C832 1.574 . S
C824 C840 1.368 . S
H825 C833 0.950 . S
H826 C831 0.950 . S
H827 C832 0.949 . S
H828 C834 0.950 . S
H829 C835 0.950 . S
H830 C836 0.949 . S
C831 H826 0.950 . S
C831 C833 1.327 . S
C831 C837 1.429 . S
C832 C824 1.574 . S
C832 H827 0.949 . S
C832 C838 1.368 . S
C833 C817 1.349 . S
C833 H825 0.950 . S
C833 C831 1.327 . S
C834 C822 1.349 . S
C834 H828 0.950 . S
C834 C835 1.327 . S
C835 H829 0.950 . S
C835 C834 1.327 . S
C835 C839 1.429 . S
C836 C819 1.574 . S
C836 H830 0.949 . S
C836 C840 1.368 . S
C837 C818 1.429 . S
C837 C831 1.429 . S
C837 C838 1.523 1_455 S
C838 C819 1.368 . S
C838 C832 1.368 . S
C838 C837 1.523 1_655 S
C839 C823 1.429 . S
C839 C835 1.429 . S
C839 C840 1.523 . S
C840 C824 1.368 . S
C840 C836 1.368 . S
C840 C839 1.523 . S
H841 C816 0.950 . S
H842 C818 0.950 1_655 S
H843 C819 0.949 . S
H844 C821 0.950 . S
H845 C823 0.950 . S
C846 C847 1.349 . S
C846 C848 1.327 . S
C846 H871 0.950 . S
C847 C846 1.349 . S
C847 C863 1.349 . S
C848 C846 1.327 . S
C848 C867 1.429 . S
C848 H872 0.950 . S
C849 C866 1.574 . S
C849 C868 1.368 . S
C849 H873 0.949 . S
H850 C854 0.949 . S
C851 C852 1.349 . S
C851 C853 1.327 1_655 S
C851 H874 0.950 . S
C852 C851 1.349 . S
C852 C864 1.349 1_655 S
C853 C851 1.327 1_455 S
C853 C869 1.429 . S
C853 H875 0.950 1_455 S
C854 H850 0.949 . S
C854 C862 1.574 . S
C854 C870 1.368 . S
H855 C863 0.950 . S
H856 C861 0.950 . S
H857 C862 0.949 . S
H858 C864 0.950 . S
H859 C865 0.950 . S
H860 C866 0.949 . S
C861 H856 0.950 . S
C861 C863 1.327 . S
C861 C867 1.429 . S
C862 C854 1.574 . S
C862 H857 0.949 . S
C862 C868 1.368 . S
C863 C847 1.349 . S
C863 H855 0.950 . S
C863 C861 1.327 . S
C864 C852 1.349 1_455 S
C864 H858 0.950 . S
C864 C865 1.327 . S
C865 H859 0.950 . S
C865 C864 1.327 . S
C865 C869 1.429 . S
C866 C849 1.574 . S
C866 H860 0.949 . S
C866 C870 1.368 . S
C867 C848 1.429 . S
C867 C861 1.429 . S
C867 C868 1.523 . S
C868 C849 1.368 . S
C868 C862 1.368 . S
C868 C867 1.523 . S
C869 C853 1.429 . S
C869 C865 1.429 . S
C869 C870 1.523 . S
C870 C854 1.368 . S
C870 C866 1.368 . S
C870 C869 1.523 . S
H871 C846 0.950 . S
H872 C848 0.950 . S
H873 C849 0.949 . S
H874 C851 0.950 . S
H875 C853 0.950 1_655 S
C876 C877 1.349 . S
C876 C878 1.327 . S
C876 H901 0.950 . S
C877 C876 1.349 . S
C877 C893 1.349 . S
C878 C876 1.327 . S
C878 C897 1.429 . S
C878 H902 0.950 . S
C879 C896 1.574 . S
C879 C898 1.368 . S
C879 H903 0.949 . S
H880 C884 0.949 . S
C881 C882 1.349 . S
C881 C883 1.327 . S
C881 H904 0.950 . S
C882 C881 1.349 . S
C882 C894 1.349 . S
C883 C881 1.327 . S
C883 C899 1.429 . S
C883 H905 0.950 . S
C884 H880 0.949 . S
C884 C892 1.574 . S
C884 C900 1.368 . S
H885 C893 0.950 . S
H886 C891 0.950 . S
H887 C892 0.949 . S
H888 C894 0.950 . S
H889 C895 0.957 . S
H890 C896 0.949 . S
C891 H886 0.950 . S
C891 C893 1.327 . S
C891 C897 1.429 . S
C892 C884 1.574 . S
C892 H887 0.949 . S
C892 C898 1.368 . S
C893 C877 1.349 . S
C893 H885 0.950 . S
C893 C891 1.327 . S
C894 C882 1.349 . S
C894 H888 0.950 . S
C894 C895 1.327 . S
C895 H889 0.957 . S
C895 C894 1.327 . S
C895 C899 1.429 . S
C896 C879 1.574 . S
C896 H890 0.949 . S
C896 C900 1.368 . S
C897 C878 1.429 . S
C897 C891 1.429 . S
C897 C898 1.523 . S
C898 C879 1.368 . S
C898 C892 1.368 . S
C898 C897 1.523 . S
C899 C883 1.429 . S
C899 C895 1.429 . S
C899 C900 1.523 1_545 S
C900 C884 1.368 . S
C900 C896 1.368 . S
C900 C899 1.523 1_565 S
H901 C876 0.950 . S
H902 C878 0.950 . S
H903 C879 0.949 . S
H904 C881 0.950 . S
H905 C883 0.950 . S
C906 C907 1.349 . S
C906 C908 1.327 . S
C906 H931 0.950 . S
C907 C906 1.349 . S
C907 C923 1.349 . S
C908 C906 1.327 . S
C908 C927 1.429 . S
C908 H932 0.950 . S
C909 C926 1.574 . S
C909 C928 1.368 . S
C909 H933 0.949 . S
H910 C914 0.949 . S
C911 C912 1.349 . S
C911 C913 1.327 1_545 S
C911 H934 0.950 . S
C912 C911 1.349 . S
C912 C924 1.349 1_545 S
C913 C911 1.327 1_565 S
C913 C929 1.429 . S
C913 H935 0.950 . S
C914 H910 0.949 . S
C914 C922 1.574 . S
C914 C930 1.368 . S
H915 C923 0.950 . S
H916 C921 0.950 . S
H917 C922 0.949 . S
H918 C924 0.950 . S
H919 C925 0.950 . S
H920 C926 0.949 . S
C921 H916 0.950 . S
C921 C923 1.327 . S
C921 C927 1.429 . S
C922 C914 1.574 . S
C922 H917 0.949 . S
C922 C928 1.368 . S
C923 C907 1.349 . S
C923 H915 0.950 . S
C923 C921 1.327 . S
C924 C912 1.349 1_565 S
C924 H918 0.950 . S
C924 C925 1.327 . S
C925 H919 0.950 . S
C925 C924 1.327 . S
C925 C929 1.429 . S
C926 C909 1.574 . S
C926 H920 0.949 . S
C926 C930 1.368 . S
C927 C908 1.429 . S
C927 C921 1.429 . S
C927 C928 1.523 1_655 S
C928 C909 1.368 . S
C928 C922 1.368 . S
C928 C927 1.523 1_455 S
C929 C913 1.429 . S
C929 C925 1.429 . S
C929 C930 1.523 . S
C930 C914 1.368 . S
C930 C926 1.368 . S
C930 C929 1.523 . S
H931 C906 0.950 . S
H932 C908 0.950 . S
H933 C909 0.949 . S
H934 C911 0.950 . S
H935 C913 0.950 . S
C936 C937 1.349 . S
C936 C938 1.327 . S
C936 H961 0.950 . S
C937 C936 1.349 . S
C937 C953 1.349 . S
C938 C936 1.327 . S
C938 C957 1.429 . S
C938 H962 0.950 . S
C939 C956 1.574 . S
C939 C958 1.368 . S
C939 H963 0.949 . S
H940 C944 0.949 . S
C941 C942 1.349 . S
C941 C943 1.327 1_545 S
C941 H964 0.950 . S
C942 C941 1.349 . S
C942 C954 1.349 1_545 S
C943 C941 1.327 1_565 S
C943 C959 1.429 . S
C943 H965 0.950 . S
C944 H940 0.949 . S
C944 C952 1.574 . S
C944 C960 1.368 . S
H945 C953 0.950 . S
H946 C951 0.950 . S
H947 C952 0.949 . S
H948 C954 0.953 . S
H949 C955 0.950 . S
H950 C956 0.949 . S
C951 H946 0.950 . S
C951 C953 1.327 . S
C951 C957 1.429 . S
C952 C944 1.574 . S
C952 H947 0.949 . S
C952 C958 1.368 . S
C953 C937 1.349 . S
C953 H945 0.950 . S
C953 C951 1.327 . S
C954 C942 1.349 1_565 S
C954 H948 0.953 . S
C954 C955 1.327 . S
C955 H949 0.950 . S
C955 C954 1.327 . S
C955 C959 1.429 . S
C956 C939 1.574 . S
C956 H950 0.949 . S
C956 C960 1.368 . S
C957 C938 1.429 . S
C957 C951 1.429 . S
C957 C958 1.523 . S
C958 C939 1.368 . S
C958 C952 1.368 . S
C958 C957 1.523 . S
C959 C943 1.429 . S
C959 C955 1.429 . S
C959 C960 1.523 . S
C960 C944 1.368 . S
C960 C956 1.368 . S
C960 C959 1.523 . S
H961 C936 0.950 . S
H962 C938 0.950 . S
H963 C939 0.949 . S
H964 C941 0.950 . S
H965 C943 0.950 . S
C966 C967 1.349 . S
C966 C968 1.327 . S
C966 H991 0.950 . S
C967 C966 1.349 . S
C967 C983 1.349 . S
C968 C966 1.327 . S
C968 C987 1.429 . S
C968 H992 0.950 . S
C969 C986 1.574 . S
C969 C988 1.368 . S
C969 H993 0.949 . S
H970 C974 0.949 . S
C971 C972 1.349 1_455 S
C971 C973 1.327 . S
C971 H994 0.939 . S
C972 C971 1.349 1_655 S
C972 C984 1.349 . S
C973 C971 1.327 . S
C973 C989 1.429 . S
C973 H995 0.950 . S
C974 H970 0.949 . S
C974 C982 1.574 . S
C974 C990 1.368 . S
H975 C983 0.950 . S
H976 C981 0.950 1_565 S
H977 C982 0.949 . S
H978 C984 0.950 . S
H979 C985 0.950 . S
H980 C986 0.949 . S
C981 H976 0.950 1_545 S
C981 C983 1.327 . S
C981 C987 1.429 . S
C982 C974 1.574 . S
C982 H977 0.949 . S
C982 C988 1.368 . S
C983 C967 1.349 . S
C983 H975 0.950 . S
C983 C981 1.327 . S
C984 C972 1.349 . S
C984 H978 0.950 . S
C984 C985 1.327 1_655 S
C985 H979 0.950 . S
C985 C984 1.327 1_455 S
C985 C989 1.429 . S
C986 C969 1.574 . S
C986 H980 0.949 . S
C986 C990 1.368 . S
C987 C968 1.429 . S
C987 C981 1.429 . S
C987 C988 1.523 1_545 S
C988 C969 1.368 . S
C988 C982 1.368 . S
C988 C987 1.523 1_565 S
C989 C973 1.429 . S
C989 C985 1.429 . S
C989 C990 1.523 . S
C990 C974 1.368 . S
C990 C986 1.368 . S
C990 C989 1.523 . S
H991 C966 0.950 . S
H992 C968 0.950 . S
H993 C969 0.949 . S
H994 C971 0.939 . S
H995 C973 0.950 . S
C996 C997 1.349 . S
C996 C998 1.327 . S
C996 H1021 0.950 . S
C997 C996 1.349 . S
C997 C1013 1.349 . S
C998 C996 1.327 . S
C998 C1017 1.429 . S
C998 H1022 0.950 . S
C999 C1016 1.574 . S
C999 C1018 1.368 . S
C999 H1023 0.949 . S
H1000 C1004 0.949 . S
C1001 C1002 1.349 . S
C1001 C1003 1.327 . S
C1001 H1024 0.950 . S
C1002 C1001 1.349 . S
C1002 C1014 1.349 . S
C1003 C1001 1.327 . S
C1003 C1019 1.429 . S
C1003 H1025 0.950 . S
C1004 H1000 0.949 . S
C1004 C1012 1.574 . S
C1004 C1020 1.368 . S
H1005 C1013 0.950 . S
H1006 C1011 0.950 1_455 S
H1007 C1012 0.949 . S
H1008 C1014 0.950 . S
H1009 C1015 0.950 . S
H1010 C1016 0.949 . S
C1011 H1006 0.950 1_655 S
C1011 C1013 1.327 . S
C1011 C1017 1.429 . S
C1012 C1004 1.574 . S
C1012 H1007 0.949 . S
C1012 C1018 1.368 . S
C1013 C997 1.349 . S
C1013 H1005 0.950 . S
C1013 C1011 1.327 . S
C1014 C1002 1.349 . S
C1014 H1008 0.950 . S
C1014 C1015 1.327 . S
C1015 H1009 0.950 . S
C1015 C1014 1.327 . S
C1015 C1019 1.429 . S
C1016 C999 1.574 . S
C1016 H1010 0.949 . S
C1016 C1020 1.368 . S
C1017 C998 1.429 . S
C1017 C1011 1.429 . S
C1017 C1018 1.523 1_655 S
C1018 C999 1.368 . S
C1018 C1012 1.368 . S
C1018 C1017 1.523 1_455 S
C1019 C1003 1.429 . S
C1019 C1015 1.429 . S
C1019 C1020 1.523 . S
C1020 C1004 1.368 . S
C1020 C1016 1.368 . S
C1020 C1019 1.523 . S
H1021 C996 0.950 . S
H1022 C998 0.950 . S
H1023 C999 0.949 . S
H1024 C1001 0.950 . S
H1025 C1003 0.950 . S
C1026 C1027 1.349 . S
C1026 C1028 1.327 . S
C1026 H1051 0.950 . S
C1027 C1026 1.349 . S
C1027 C1043 1.349 . S
C1028 C1026 1.327 . S
C1028 C1047 1.429 . S
C1028 H1052 0.950 . S
C1029 C1046 1.574 . S
C1029 C1048 1.368 . S
C1029 H1053 0.949 . S
H1030 C1034 0.949 . S
C1031 C1032 1.349 . S
C1031 C1033 1.327 1_455 S
C1031 H1054 0.950 . S
C1032 C1031 1.349 . S
C1032 C1044 1.349 1_455 S
C1033 C1031 1.327 1_655 S
C1033 C1049 1.429 . S
C1033 H1055 0.950 . S
C1034 H1030 0.949 . S
C1034 C1042 1.574 . S
C1034 C1050 1.368 . S
H1035 C1043 0.950 . S
H1036 C1041 0.950 . S
H1037 C1042 0.949 . S
H1038 C1044 0.950 . S
H1039 C1045 0.950 . S
H1040 C1046 0.949 . S
C1041 H1036 0.950 . S
C1041 C1043 1.327 . S
C1041 C1047 1.429 . S
C1042 C1034 1.574 . S
C1042 H1037 0.949 . S
C1042 C1048 1.368 . S
C1043 C1027 1.349 . S
C1043 H1035 0.950 . S
C1043 C1041 1.327 . S
C1044 C1032 1.349 1_655 S
C1044 H1038 0.950 . S
C1044 C1045 1.327 . S
C1045 H1039 0.950 . S
C1045 C1044 1.327 . S
C1045 C1049 1.429 . S
C1046 C1029 1.574 . S
C1046 H1040 0.949 . S
C1046 C1050 1.368 . S
C1047 C1028 1.429 . S
C1047 C1041 1.429 . S
C1047 C1048 1.523 . S
C1048 C1029 1.368 . S
C1048 C1042 1.368 . S
C1048 C1047 1.523 . S
C1049 C1033 1.429 . S
C1049 C1045 1.429 . S
C1049 C1050 1.523 . S
C1050 C1034 1.368 . S
C1050 C1046 1.368 . S
C1050 C1049 1.523 . S
H1051 C1026 0.950 . S
H1052 C1028 0.950 . S
H1053 C1029 0.949 . S
H1054 C1031 0.950 . S
H1055 C1033 0.950 . S
C1056 C1057 1.349 . S
C1056 C1058 1.327 . S
C1056 H1081 0.950 . S
C1057 C1056 1.349 . S
C1057 C1073 1.349 . S
C1058 C1056 1.327 . S
C1058 C1077 1.429 . S
C1058 H1082 0.950 . S
C1059 C1076 1.574 . S
C1059 C1078 1.368 . S
C1059 H1083 0.949 . S
H1060 C1064 0.949 . S
C1061 C1062 1.349 . S
C1061 C1063 1.327 . S
C1061 H1084 0.950 . S
C1062 C1061 1.349 . S
C1062 C1074 1.349 . S
C1063 C1061 1.327 . S
C1063 C1079 1.429 . S
C1063 H1085 0.950 . S
C1064 H1060 0.949 . S
C1064 C1072 1.574 . S
C1064 C1080 1.368 . S
H1065 C1073 0.950 . S
H1066 C1071 0.950 . S
H1067 C1072 0.949 . S
H1068 C1074 0.950 . S
H1069 C1075 0.950 . S
H1070 C1076 0.949 . S
C1071 H1066 0.950 . S
C1071 C1073 1.327 . S
C1071 C1077 1.429 . S
C1072 C1064 1.574 . S
C1072 H1067 0.949 . S
C1072 C1078 1.368 . S
C1073 C1057 1.349 . S
C1073 H1065 0.950 . S
C1073 C1071 1.327 . S
C1074 C1062 1.349 . S
C1074 H1068 0.950 . S
C1074 C1075 1.327 . S
C1075 H1069 0.950 . S
C1075 C1074 1.327 . S
C1075 C1079 1.429 . S
C1076 C1059 1.574 . S
C1076 H1070 0.949 . S
C1076 C1080 1.368 . S
C1077 C1058 1.429 . S
C1077 C1071 1.429 . S
C1077 C1078 1.523 . S
C1078 C1059 1.368 . S
C1078 C1072 1.368 . S
C1078 C1077 1.523 . S
C1079 C1063 1.429 . S
C1079 C1075 1.429 . S
C1079 C1080 1.523 1_565 S
C1080 C1064 1.368 . S
C1080 C1076 1.368 . S
C1080 C1079 1.523 1_545 S
H1081 C1056 0.950 . S
H1082 C1058 0.950 . S
H1083 C1059 0.949 . S
H1084 C1061 0.950 . S
H1085 C1063 0.950 . S
C1086 C1087 1.349 . S
C1086 C1088 1.327 1_565 S
C1086 H1111 0.950 . S
C1087 C1086 1.349 . S
C1087 C1103 1.349 1_565 S
C1088 C1086 1.327 1_545 S
C1088 C1107 1.429 . S
C1088 H1112 0.950 . S
C1089 C1106 1.574 . S
C1089 C1108 1.368 . S
C1089 H1113 0.949 . S
H1090 C1094 0.949 . S
C1091 C1092 1.349 . S
C1091 C1093 1.327 . S
C1091 H1114 0.950 . S
C1092 C1091 1.349 . S
C1092 C1104 1.349 . S
C1093 C1091 1.327 . S
C1093 C1109 1.429 . S
C1093 H1115 0.950 . S
C1094 H1090 0.949 . S
C1094 C1102 1.574 . S
C1094 C1110 1.368 . S
H1095 C1103 0.950 . S
H1096 C1101 0.950 . S
H1097 C1102 0.949 . S
H1098 C1104 0.950 . S
H1099 C1105 0.950 . S
H1100 C1106 0.949 . S
C1101 H1096 0.950 . S
C1101 C1103 1.327 . S
C1101 C1107 1.429 . S
C1102 C1094 1.574 . S
C1102 H1097 0.949 . S
C1102 C1108 1.368 . S
C1103 C1087 1.349 1_545 S
C1103 H1095 0.950 . S
C1103 C1101 1.327 . S
C1104 C1092 1.349 . S
C1104 H1098 0.950 . S
C1104 C1105 1.327 . S
C1105 H1099 0.950 . S
C1105 C1104 1.327 . S
C1105 C1109 1.429 . S
C1106 C1089 1.574 . S
C1106 H1100 0.949 . S
C1106 C1110 1.368 . S
C1107 C1088 1.429 . S
C1107 C1101 1.429 . S
C1107 C1108 1.523 . S
C1108 C1089 1.368 . S
C1108 C1102 1.368 . S
C1108 C1107 1.523 . S
C1109 C1093 1.429 . S
C1109 C1105 1.429 . S
C1109 C1110 1.523 1_455 S
C1110 C1094 1.368 . S
C1110 C1106 1.368 . S
C1110 C1109 1.523 1_655 S
H1111 C1086 0.950 . S
H1112 C1088 0.950 . S
H1113 C1089 0.949 . S
H1114 C1091 0.950 . S
H1115 C1093 0.950 . S
C1116 C1117 1.349 . S
C1116 C1118 1.327 . S
C1116 H1141 0.950 . S
C1117 C1116 1.349 . S
C1117 C1133 1.349 . S
C1118 C1116 1.327 . S
C1118 C1137 1.429 . S
C1118 H1142 0.950 . S
C1119 C1136 1.574 . S
C1119 C1138 1.368 . S
C1119 H1143 0.949 . S
H1120 C1124 0.949 . S
C1121 C1122 1.349 . S
C1121 C1123 1.327 . S
C1121 H1144 0.950 . S
C1122 C1121 1.349 . S
C1122 C1134 1.349 . S
C1123 C1121 1.327 . S
C1123 C1139 1.429 . S
C1123 H1145 0.950 . S
C1124 H1120 0.949 . S
C1124 C1132 1.574 . S
C1124 C1140 1.368 . S
H1125 C1133 0.950 . S
H1126 C1131 0.950 . S
H1127 C1132 0.949 . S
H1128 C1134 0.950 . S
H1129 C1135 0.950 . S
H1130 C1136 0.949 . S
C1131 H1126 0.950 . S
C1131 C1133 1.327 . S
C1131 C1137 1.429 . S
C1132 C1124 1.574 . S
C1132 H1127 0.949 . S
C1132 C1138 1.368 . S
C1133 C1117 1.349 . S
C1133 H1125 0.950 . S
C1133 C1131 1.327 . S
C1134 C1122 1.349 . S
C1134 H1128 0.950 . S
C1134 C1135 1.327 . S
C1135 H1129 0.950 . S
C1135 C1134 1.327 . S
C1135 C1139 1.429 . S
C1136 C1119 1.574 . S
C1136 H1130 0.949 . S
C1136 C1140 1.368 . S
C1137 C1118 1.429 . S
C1137 C1131 1.429 . S
C1137 C1138 1.523 . S
C1138 C1119 1.368 . S
C1138 C1132 1.368 . S
C1138 C1137 1.523 . S
C1139 C1123 1.429 . S
C1139 C1135 1.429 . S
C1139 C1140 1.523 . S
C1140 C1124 1.368 . S
C1140 C1136 1.368 . S
C1140 C1139 1.523 . S
H1141 C1116 0.950 . S
H1142 C1118 0.950 . S
H1143 C1119 0.949 . S
H1144 C1121 0.950 . S
H1145 C1123 0.950 . S
C1146 C1147 1.349 . S
C1146 C1148 1.327 . S
C1146 H1171 0.950 . S
C1147 C1146 1.349 . S
C1147 C1163 1.349 . S
C1148 C1146 1.327 . S
C1148 C1167 1.429 . S
C1148 H1172 0.950 . S
C1149 C1166 1.574 . S
C1149 C1168 1.368 . S
C1149 H1173 0.949 . S
H1150 C1154 0.949 . S
C1151 C1152 1.349 . S
C1151 C1153 1.327 . S
C1151 H1174 0.950 . S
C1152 C1151 1.349 . S
C1152 C1164 1.349 . S
C1153 C1151 1.327 . S
C1153 C1169 1.429 . S
C1153 H1175 0.950 . S
C1154 H1150 0.949 . S
C1154 C1162 1.574 . S
C1154 C1170 1.368 . S
H1155 C1163 0.950 . S
H1156 C1161 0.950 . S
H1157 C1162 0.949 . S
H1158 C1164 0.950 . S
H1159 C1165 0.950 . S
H1160 C1166 0.949 . S
C1161 H1156 0.950 . S
C1161 C1163 1.327 . S
C1161 C1167 1.429 . S
C1162 C1154 1.574 . S
C1162 H1157 0.949 . S
C1162 C1168 1.368 . S
C1163 C1147 1.349 . S
C1163 H1155 0.950 . S
C1163 C1161 1.327 . S
C1164 C1152 1.349 . S
C1164 H1158 0.950 . S
C1164 C1165 1.327 . S
C1165 H1159 0.950 . S
C1165 C1164 1.327 . S
C1165 C1169 1.429 . S
C1166 C1149 1.574 . S
C1166 H1160 0.949 . S
C1166 C1170 1.368 . S
C1167 C1148 1.429 . S
C1167 C1161 1.429 . S
C1167 C1168 1.523 . S
C1168 C1149 1.368 . S
C1168 C1162 1.368 . S
C1168 C1167 1.523 . S
C1169 C1153 1.429 . S
C1169 C1165 1.429 . S
C1169 C1170 1.523 . S
C1170 C1154 1.368 . S
C1170 C1166 1.368 . S
C1170 C1169 1.523 . S
H1171 C1146 0.950 . S
H1172 C1148 0.950 . S
H1173 C1149 0.949 . S
H1174 C1151 0.950 . S
H1175 C1153 0.950 . S
C1176 C1177 1.349 . S
C1176 C1178 1.327 . S
C1176 H1201 0.950 . S
C1177 C1176 1.349 . S
C1177 C1193 1.349 . S
C1178 C1176 1.327 . S
C1178 C1197 1.429 . S
C1178 H1202 0.950 . S
C1179 C1196 1.574 . S
C1179 C1198 1.368 . S
C1179 H1203 0.949 . S
H1180 C1184 0.949 . S
C1181 C1182 1.349 . S
C1181 C1183 1.327 . S
C1181 H1204 0.950 . S
C1182 C1181 1.349 . S
C1182 C1194 1.349 . S
C1183 C1181 1.327 . S
C1183 C1199 1.429 . S
C1183 H1205 0.950 . S
C1184 H1180 0.949 . S
C1184 C1192 1.574 . S
C1184 C1200 1.368 . S
H1185 C1193 0.950 . S
H1186 C1191 0.950 . S
H1187 C1192 0.949 . S
H1188 C1194 0.950 . S
H1189 C1195 0.950 . S
H1190 C1196 0.949 . S
C1191 H1186 0.950 . S
C1191 C1193 1.327 . S
C1191 C1197 1.429 . S
C1192 C1184 1.574 . S
C1192 H1187 0.949 . S
C1192 C1198 1.368 . S
C1193 C1177 1.349 . S
C1193 H1185 0.950 . S
C1193 C1191 1.327 . S
C1194 C1182 1.349 . S
C1194 H1188 0.950 . S
C1194 C1195 1.327 . S
C1195 H1189 0.950 . S
C1195 C1194 1.327 . S
C1195 C1199 1.429 . S
C1196 C1179 1.574 . S
C1196 H1190 0.949 . S
C1196 C1200 1.368 . S
C1197 C1178 1.429 . S
C1197 C1191 1.429 . S
C1197 C1198 1.523 . S
C1198 C1179 1.368 . S
C1198 C1192 1.368 . S
C1198 C1197 1.523 . S
C1199 C1183 1.429 . S
C1199 C1195 1.429 . S
C1199 C1200 1.523 . S
C1200 C1184 1.368 . S
C1200 C1196 1.368 . S
C1200 C1199 1.523 . S
H1201 C1176 0.950 . S
H1202 C1178 0.950 . S
H1203 C1179 0.949 . S
H1204 C1181 0.950 . S
H1205 C1183 0.950 . S
C1206 C1207 1.349 . S
C1206 C1208 1.327 . S
C1206 H1231 0.950 . S
C1207 C1206 1.349 . S
C1207 C1223 1.349 . S
C1208 C1206 1.327 . S
C1208 C1227 1.429 . S
C1208 H1232 0.950 . S
C1209 C1226 1.574 . S
C1209 C1228 1.368 . S
C1209 H1233 0.949 . S
H1210 C1214 0.949 . S
C1211 C1212 1.349 . S
C1211 C1213 1.327 . S
C1211 H1234 0.950 . S
C1212 C1211 1.349 . S
C1212 C1224 1.349 . S
C1213 C1211 1.327 . S
C1213 C1229 1.429 . S
C1213 H1235 0.950 . S
C1214 H1210 0.949 . S
C1214 C1222 1.574 . S
C1214 C1230 1.368 . S
H1215 C1223 0.950 . S
H1216 C1221 0.950 . S
H1217 C1222 0.949 . S
H1218 C1224 0.950 . S
H1219 C1225 0.950 . S
H1220 C1226 0.949 . S
C1221 H1216 0.950 . S
C1221 C1223 1.327 . S
C1221 C1227 1.429 . S
C1222 C1214 1.574 . S
C1222 H1217 0.949 . S
C1222 C1228 1.368 . S
C1223 C1207 1.349 . S
C1223 H1215 0.950 . S
C1223 C1221 1.327 . S
C1224 C1212 1.349 . S
C1224 H1218 0.950 . S
C1224 C1225 1.327 . S
C1225 H1219 0.950 . S
C1225 C1224 1.327 . S
C1225 C1229 1.429 . S
C1226 C1209 1.574 . S
C1226 H1220 0.949 . S
C1226 C1230 1.368 . S
C1227 C1208 1.429 . S
C1227 C1221 1.429 . S
C1227 C1228 1.523 . S
C1228 C1209 1.368 . S
C1228 C1222 1.368 . S
C1228 C1227 1.523 . S
C1229 C1213 1.429 . S
C1229 C1225 1.429 . S
C1229 C1230 1.523 . S
C1230 C1214 1.368 . S
C1230 C1226 1.368 . S
C1230 C1229 1.523 . S
H1231 C1206 0.950 . S
H1232 C1208 0.950 . S
H1233 C1209 0.949 . S
H1234 C1211 0.950 . S
H1235 C1213 0.950 . S
C1236 C1237 1.349 . S
C1236 C1238 1.327 . S
C1236 H1261 0.950 . S
C1237 C1236 1.349 . S
C1237 C1253 1.349 . S
C1238 C1236 1.327 . S
C1238 C1257 1.429 . S
C1238 H1262 0.950 . S
C1239 C1256 1.574 . S
C1239 C1258 1.368 . S
C1239 H1263 0.949 . S
H1240 C1244 0.949 . S
C1241 C1242 1.349 . S
C1241 C1243 1.327 . S
C1241 H1264 0.950 . S
C1242 C1241 1.349 . S
C1242 C1254 1.349 . S
C1243 C1241 1.327 . S
C1243 C1259 1.429 . S
C1243 H1265 0.950 . S
C1244 H1240 0.949 . S
C1244 C1252 1.574 . S
C1244 C1260 1.368 . S
H1245 C1253 0.950 . S
H1246 C1251 0.950 . S
H1247 C1252 0.949 . S
H1248 C1254 0.950 . S
H1249 C1255 0.950 . S
H1250 C1256 0.949 . S
C1251 H1246 0.950 . S
C1251 C1253 1.327 . S
C1251 C1257 1.429 . S
C1252 C1244 1.574 . S
C1252 H1247 0.949 . S
C1252 C1258 1.368 . S
C1253 C1237 1.349 . S
C1253 H1245 0.950 . S
C1253 C1251 1.327 . S
C1254 C1242 1.349 . S
C1254 H1248 0.950 . S
C1254 C1255 1.327 . S
C1255 H1249 0.950 . S
C1255 C1254 1.327 . S
C1255 C1259 1.429 . S
C1256 C1239 1.574 . S
C1256 H1250 0.949 . S
C1256 C1260 1.368 . S
C1257 C1238 1.429 . S
C1257 C1251 1.429 . S
C1257 C1258 1.523 . S
C1258 C1239 1.368 . S
C1258 C1252 1.368 . S
C1258 C1257 1.523 . S
C1259 C1243 1.429 . S
C1259 C1255 1.429 . S
C1259 C1260 1.523 . S
C1260 C1244 1.368 . S
C1260 C1256 1.368 . S
C1260 C1259 1.523 . S
H1261 C1236 0.950 . S
H1262 C1238 0.950 . S
H1263 C1239 0.949 . S
H1264 C1241 0.950 . S
H1265 C1243 0.950 . S
C1266 C1267 1.349 . S
C1266 C1268 1.327 . S
C1266 H1291 0.950 . S
C1267 C1266 1.349 . S
C1267 C1283 1.349 . S
C1268 C1266 1.327 . S
C1268 C1287 1.429 . S
C1268 H1292 0.950 . S
C1269 C1286 1.574 . S
C1269 C1288 1.368 . S
C1269 H1293 0.949 . S
H1270 C1274 0.949 . S
C1271 C1272 1.349 . S
C1271 C1273 1.327 . S
C1271 H1294 0.950 . S
C1272 C1271 1.349 . S
C1272 C1284 1.349 . S
C1273 C1271 1.327 . S
C1273 C1289 1.429 . S
C1273 H1295 0.950 . S
C1274 H1270 0.949 . S
C1274 C1282 1.574 . S
C1274 C1290 1.368 . S
H1275 C1283 0.950 . S
H1276 C1281 0.950 . S
H1277 C1282 0.949 . S
H1278 C1284 0.950 . S
H1279 C1285 0.950 . S
H1280 C1286 0.949 . S
C1281 H1276 0.950 . S
C1281 C1283 1.327 . S
C1281 C1287 1.429 . S
C1282 C1274 1.574 . S
C1282 H1277 0.949 . S
C1282 C1288 1.368 . S
C1283 C1267 1.349 . S
C1283 H1275 0.950 . S
C1283 C1281 1.327 . S
C1284 C1272 1.349 . S
C1284 H1278 0.950 . S
C1284 C1285 1.327 . S
C1285 H1279 0.950 . S
C1285 C1284 1.327 . S
C1285 C1289 1.429 . S
C1286 C1269 1.574 . S
C1286 H1280 0.949 . S
C1286 C1290 1.368 . S
C1287 C1268 1.429 . S
C1287 C1281 1.429 . S
C1287 C1288 1.523 . S
C1288 C1269 1.368 . S
C1288 C1282 1.368 . S
C1288 C1287 1.523 . S
C1289 C1273 1.429 . S
C1289 C1285 1.429 . S
C1289 C1290 1.523 . S
C1290 C1274 1.368 . S
C1290 C1286 1.368 . S
C1290 C1289 1.523 . S
H1291 C1266 0.950 . S
H1292 C1268 0.950 . S
H1293 C1269 0.949 . S
H1294 C1271 0.950 . S
H1295 C1273 0.950 . S
C1296 C1297 1.349 . S
C1296 C1298 1.327 . S
C1296 H1321 0.950 . S
C1297 C1296 1.349 . S
C1297 C1313 1.349 . S
C1298 C1296 1.327 . S
C1298 C1317 1.429 . S
C1298 H1322 0.950 . S
C1299 C1316 1.574 . S
C1299 C1318 1.368 . S
C1299 H1323 0.949 . S
H1300 C1304 0.949 . S
C1301 C1302 1.349 . S
C1301 C1303 1.327 . S
C1301 H1324 0.950 . S
C1302 C1301 1.349 . S
C1302 C1314 1.349 . S
C1303 C1301 1.327 . S
C1303 C1319 1.429 . S
C1303 H1325 0.950 . S
C1304 H1300 0.949 . S
C1304 C1312 1.574 . S
C1304 C1320 1.368 . S
H1305 C1313 0.950 . S
H1306 C1311 0.950 . S
H1307 C1312 0.949 . S
H1308 C1314 0.950 . S
H1309 C1315 0.950 . S
H1310 C1316 0.949 . S
C1311 H1306 0.950 . S
C1311 C1313 1.327 . S
C1311 C1317 1.429 . S
C1312 C1304 1.574 . S
C1312 H1307 0.949 . S
C1312 C1318 1.368 . S
C1313 C1297 1.349 . S
C1313 H1305 0.950 . S
C1313 C1311 1.327 . S
C1314 C1302 1.349 . S
C1314 H1308 0.950 . S
C1314 C1315 1.327 . S
C1315 H1309 0.950 . S
C1315 C1314 1.327 . S
C1315 C1319 1.429 . S
C1316 C1299 1.574 . S
C1316 H1310 0.949 . S
C1316 C1320 1.368 . S
C1317 C1298 1.429 . S
C1317 C1311 1.429 . S
C1317 C1318 1.523 . S
C1318 C1299 1.368 . S
C1318 C1312 1.368 . S
C1318 C1317 1.523 . S
C1319 C1303 1.429 . S
C1319 C1315 1.429 . S
C1319 C1320 1.523 . S
C1320 C1304 1.368 . S
C1320 C1316 1.368 . S
C1320 C1319 1.523 . S
H1321 C1296 0.950 . S
H1322 C1298 0.950 . S
H1323 C1299 0.949 . S
H1324 C1301 0.950 . S
H1325 C1303 0.950 . S
C1326 C1327 1.349 . S
C1326 C1328 1.327 . S
C1326 H1351 0.950 . S
C1327 C1326 1.349 . S
C1327 C1343 1.349 . S
C1328 C1326 1.327 . S
C1328 C1347 1.429 . S
C1328 H1352 0.950 . S
C1329 C1346 1.574 . S
C1329 C1348 1.368 . S
C1329 H1353 0.949 . S
H1330 C1334 0.949 . S
C1331 C1332 1.349 . S
C1331 C1333 1.327 . S
C1331 H1354 0.950 . S
C1332 C1331 1.349 . S
C1332 C1344 1.349 . S
C1333 C1331 1.327 . S
C1333 C1349 1.429 . S
C1333 H1355 0.950 . S
C1334 H1330 0.949 . S
C1334 C1342 1.574 . S
C1334 C1350 1.368 . S
H1335 C1343 0.950 . S
H1336 C1341 0.950 . S
H1337 C1342 0.949 . S
H1338 C1344 0.950 . S
H1339 C1345 0.950 . S
H1340 C1346 0.949 . S
C1341 H1336 0.950 . S
C1341 C1343 1.327 . S
C1341 C1347 1.429 . S
C1342 C1334 1.574 . S
C1342 H1337 0.949 . S
C1342 C1348 1.368 . S
C1343 C1327 1.349 . S
C1343 H1335 0.950 . S
C1343 C1341 1.327 . S
C1344 C1332 1.349 . S
C1344 H1338 0.950 . S
C1344 C1345 1.327 . S
C1345 H1339 0.950 . S
C1345 C1344 1.327 . S
C1345 C1349 1.429 . S
C1346 C1329 1.574 . S
C1346 H1340 0.949 . S
C1346 C1350 1.368 . S
C1347 C1328 1.429 . S
C1347 C1341 1.429 . S
C1347 C1348 1.523 . S
C1348 C1329 1.368 . S
C1348 C1342 1.368 . S
C1348 C1347 1.523 . S
C1349 C1333 1.429 . S
C1349 C1345 1.429 . S
C1349 C1350 1.523 . S
C1350 C1334 1.368 . S
C1350 C1346 1.368 . S
C1350 C1349 1.523 . S
H1351 C1326 0.950 . S
H1352 C1328 0.950 . S
H1353 C1329 0.949 . S
H1354 C1331 0.950 . S
H1355 C1333 0.950 . S
C1356 C1357 1.349 . S
C1356 C1358 1.327 . S
C1356 H1381 0.950 . S
C1357 C1356 1.349 . S
C1357 C1373 1.349 . S
C1358 C1356 1.327 . S
C1358 C1377 1.429 . S
C1358 H1382 0.950 . S
C1359 C1376 1.574 . S
C1359 C1378 1.368 . S
C1359 H1383 0.949 . S
H1360 C1364 0.949 . S
C1361 C1362 1.349 . S
C1361 C1363 1.327 . S
C1361 H1384 0.950 . S
C1362 C1361 1.349 . S
C1362 C1374 1.349 . S
C1363 C1361 1.327 . S
C1363 C1379 1.429 . S
C1363 H1385 0.950 . S
C1364 H1360 0.949 . S
C1364 C1372 1.574 . S
C1364 C1380 1.368 . S
H1365 C1373 0.950 . S
H1366 C1371 0.950 . S
H1367 C1372 0.949 . S
H1368 C1374 0.950 . S
H1369 C1375 0.950 . S
H1370 C1376 0.949 . S
C1371 H1366 0.950 . S
C1371 C1373 1.327 . S
C1371 C1377 1.429 . S
C1372 C1364 1.574 . S
C1372 H1367 0.949 . S
C1372 C1378 1.368 . S
C1373 C1357 1.349 . S
C1373 H1365 0.950 . S
C1373 C1371 1.327 . S
C1374 C1362 1.349 . S
C1374 H1368 0.950 . S
C1374 C1375 1.327 . S
C1375 H1369 0.950 . S
C1375 C1374 1.327 . S
C1375 C1379 1.429 . S
C1376 C1359 1.574 . S
C1376 H1370 0.949 . S
C1376 C1380 1.368 . S
C1377 C1358 1.429 . S
C1377 C1371 1.429 . S
C1377 C1378 1.523 . S
C1378 C1359 1.368 . S
C1378 C1372 1.368 . S
C1378 C1377 1.523 . S
C1379 C1363 1.429 . S
C1379 C1375 1.429 . S
C1379 C1380 1.523 . S
C1380 C1364 1.368 . S
C1380 C1376 1.368 . S
C1380 C1379 1.523 . S
H1381 C1356 0.950 . S
H1382 C1358 0.950 . S
H1383 C1359 0.949 . S
H1384 C1361 0.950 . S
H1385 C1363 0.950 . S
C1386 C1387 1.349 . S
C1386 C1388 1.327 . S
C1386 H1411 0.950 . S
C1387 C1386 1.349 . S
C1387 C1403 1.349 1_556 S
C1388 C1386 1.327 . S
C1388 C1407 1.429 . S
C1388 H1412 0.950 . S
C1389 C1406 1.574 . S
C1389 C1408 1.368 1_554 S
C1389 H1413 0.949 . S
H1390 C1394 0.949 . S
C1391 C1392 1.349 . S
C1391 C1393 1.327 . S
C1391 H1414 0.950 . S
C1392 C1391 1.349 . S
C1392 C1404 1.349 1_554 S
C1393 C1391 1.327 . S
C1393 C1409 1.473 . S
C1393 H1415 0.950 . S
C1394 H1390 0.949 . S
C1394 C1402 1.574 . S
C1394 C1410 1.398 . S
H1395 C1403 0.950 . S
H1396 C1401 0.950 . S
H1397 C1402 0.949 . S
H1398 C1404 0.950 . S
H1399 C1405 0.950 . S
H1400 C1406 0.949 . S
C1401 H1396 0.950 . S
C1401 C1403 1.327 . S
C1401 C1407 1.429 1_554 S
C1402 C1394 1.574 . S
C1402 H1397 0.949 . S
C1402 C1408 1.368 . S
C1403 C1387 1.349 1_554 S
C1403 H1395 0.950 . S
C1403 C1401 1.327 . S
C1404 C1392 1.349 1_556 S
C1404 H1398 0.950 . S
C1404 C1405 1.327 . S
C1405 H1399 0.950 . S
C1405 C1404 1.327 . S
C1405 C1409 1.389 1_556 S
C1406 C1389 1.574 . S
C1406 H1400 0.949 . S
C1406 C1410 1.341 1_554 S
C1407 C1388 1.429 . S
C1407 C1401 1.429 1_556 S
C1407 C1408 1.523 . S
C1408 C1389 1.368 1_556 S
C1408 C1402 1.368 . S
C1408 C1407 1.523 . S
C1409 C1393 1.473 . S
C1409 C1405 1.389 1_554 S
C1409 C1410 1.519 1_554 S
C1410 C1394 1.398 . S
C1410 C1406 1.341 1_556 S
C1410 C1409 1.519 1_556 S
H1411 C1386 0.950 . S
H1412 C1388 0.950 . S
H1413 C1389 0.949 . S
H1414 C1391 0.950 . S
H1415 C1393 0.950 . S
C1416 C1417 1.349 . S
C1416 C1418 1.327 . S
C1416 H1441 0.950 . S
C1417 C1416 1.349 . S
C1417 C1433 1.349 1_554 S
C1418 C1416 1.327 . S
C1418 C1437 1.466 . S
C1418 H1442 0.950 . S
C1419 C1436 1.574 . S
C1419 C1438 1.393 . S
C1419 H1443 0.949 . S
H1420 C1424 0.949 . S
C1421 C1422 1.349 . S
C1421 C1423 1.327 . S
C1421 H1444 0.950 . S
C1422 C1421 1.349 . S
C1422 C1434 1.349 1_556 S
C1423 C1421 1.327 . S
C1423 C1439 1.429 . S
C1423 H1445 0.950 . S
C1424 H1420 0.949 . S
C1424 C1432 1.574 . S
C1424 C1440 1.368 1_554 S
H1425 C1433 0.950 . S
H1426 C1431 0.950 . S
H1427 C1432 0.949 . S
H1428 C1434 0.950 . S
H1429 C1435 0.950 . S
H1430 C1436 0.949 . S
C1431 H1426 0.950 . S
C1431 C1433 1.327 . S
C1431 C1437 1.397 1_556 S
C1432 C1424 1.574 . S
C1432 H1427 0.949 . S
C1432 C1438 1.346 1_554 S
C1433 C1417 1.349 1_556 S
C1433 H1425 0.950 . S
C1433 C1431 1.327 . S
C1434 C1422 1.349 1_554 S
C1434 H1428 0.950 . S
C1434 C1435 1.327 . S
C1435 H1429 0.950 . S
C1435 C1434 1.327 . S
C1435 C1439 1.429 1_554 S
C1436 C1419 1.574 . S
C1436 H1430 0.949 . S
C1436 C1440 1.368 . S
C1437 C1418 1.466 . S
C1437 C1431 1.397 1_554 S
C1437 C1438 1.519 1_554 S
C1438 C1419 1.393 . S
C1438 C1432 1.346 1_556 S
C1438 C1437 1.519 1_556 S
C1439 C1423 1.429 . S
C1439 C1435 1.429 1_556 S
C1439 C1440 1.523 . S
C1440 C1424 1.368 1_556 S
C1440 C1436 1.368 . S
C1440 C1439 1.523 . S
H1441 C1416 0.950 . S
H1442 C1418 0.950 . S
H1443 C1419 0.949 . S
H1444 C1421 0.950 . S
H1445 C1423 0.950 . S
C1446 C1447 1.349 1_554 S
C1446 C1448 1.327 . S
C1446 H1471 0.950 . S
C1447 C1446 1.349 1_556 S
C1447 C1463 1.349 . S
C1448 C1446 1.327 . S
C1448 C1467 1.429 1_554 S
C1448 H1472 0.950 . S
C1449 C1466 1.574 . S
C1449 C1468 1.368 . S
C1449 H1473 0.949 . S
H1450 C1454 0.949 . S
C1451 C1452 1.349 1_556 S
C1451 C1453 1.327 . S
C1451 H1474 0.950 . S
C1452 C1451 1.349 1_554 S
C1452 C1464 1.349 . S
C1453 C1451 1.327 . S
C1453 C1469 1.396 1_556 S
C1453 H1475 0.950 . S
C1454 H1450 0.949 . S
C1454 C1462 1.574 . S
C1454 C1470 1.345 1_554 S
H1455 C1463 0.950 . S
H1456 C1461 0.950 . S
H1457 C1462 0.949 . S
H1458 C1464 0.950 . S
H1459 C1465 0.950 . S
H1460 C1466 0.949 . S
C1461 H1456 0.950 . S
C1461 C1463 1.327 . S
C1461 C1467 1.429 . S
C1462 C1454 1.574 . S
C1462 H1457 0.949 . S
C1462 C1468 1.368 1_554 S
C1463 C1447 1.349 . S
C1463 H1455 0.950 . S
C1463 C1461 1.327 . S
C1464 C1452 1.349 . S
C1464 H1458 0.950 . S
C1464 C1465 1.327 . S
C1465 H1459 0.950 . S
C1465 C1464 1.327 . S
C1465 C1469 1.467 . S
C1466 C1449 1.574 . S
C1466 H1460 0.949 . S
C1466 C1470 1.393 . S
C1467 C1448 1.429 1_556 S
C1467 C1461 1.429 . S
C1467 C1468 1.523 . S
C1468 C1449 1.368 . S
C1468 C1462 1.368 1_556 S
C1468 C1467 1.523 . S
C1469 C1453 1.396 1_554 S
C1469 C1465 1.467 . S
C1469 C1470 1.519 1_554 S
C1470 C1454 1.345 1_556 S
C1470 C1466 1.393 . S
C1470 C1469 1.519 1_556 S
H1471 C1446 0.950 . S
H1472 C1448 0.950 . S
H1473 C1449 0.949 . S
H1474 C1451 0.950 . S
H1475 C1453 0.950 . S
C1476 C1477 1.349 . S
C1476 C1478 1.327 . S
C1476 H1501 0.950 . S
C1477 C1476 1.349 . S
C1477 C1493 1.349 . S
C1478 C1476 1.327 . S
C1478 C1497 1.429 . S
C1478 H1502 0.950 . S
C1479 C1496 1.574 . S
C1479 C1498 1.368 . S
C1479 H1503 0.949 . S
H1480 C1484 0.949 . S
C1481 C1482 1.349 . S
C1481 C1483 1.327 . S
C1481 H1504 0.950 . S
C1482 C1481 1.349 . S
C1482 C1494 1.349 . S
C1483 C1481 1.327 . S
C1483 C1499 1.429 . S
C1483 H1505 0.950 . S
C1484 H1480 0.949 . S
C1484 C1492 1.574 . S
C1484 C1500 1.368 . S
H1485 C1493 0.950 . S
H1486 C1491 0.950 . S
H1487 C1492 0.949 . S
H1488 C1494 0.950 . S
H1489 C1495 0.950 . S
H1490 C1496 0.949 . S
C1491 H1486 0.950 . S
C1491 C1493 1.327 . S
C1491 C1497 1.429 . S
C1492 C1484 1.574 . S
C1492 H1487 0.949 . S
C1492 C1498 1.368 . S
C1493 C1477 1.349 . S
C1493 H1485 0.950 . S
C1493 C1491 1.327 . S
C1494 C1482 1.349 . S
C1494 H1488 0.950 . S
C1494 C1495 1.327 . S
C1495 H1489 0.950 . S
C1495 C1494 1.327 . S
C1495 C1499 1.429 . S
C1496 C1479 1.574 . S
C1496 H1490 0.949 . S
C1496 C1500 1.368 . S
C1497 C1478 1.429 . S
C1497 C1491 1.429 . S
C1497 C1498 1.523 . S
C1498 C1479 1.368 . S
C1498 C1492 1.368 . S
C1498 C1497 1.523 . S
C1499 C1483 1.429 . S
C1499 C1495 1.429 . S
C1499 C1500 1.523 . S
C1500 C1484 1.368 . S
C1500 C1496 1.368 . S
C1500 C1499 1.523 . S
H1501 C1476 0.950 . S
H1502 C1478 0.950 . S
H1503 C1479 0.949 . S
H1504 C1481 0.950 . S
H1505 C1483 0.950 . S
C1506 C1507 1.349 . S
C1506 C1508 1.327 . S
C1506 H1531 0.950 . S
C1507 C1506 1.349 . S
C1507 C1523 1.349 . S
C1508 C1506 1.327 . S
C1508 C1527 1.429 . S
C1508 H1532 0.950 . S
C1509 C1526 1.574 . S
C1509 C1528 1.368 . S
C1509 H1533 0.949 . S
H1510 C1514 0.949 . S
C1511 C1512 1.349 . S
C1511 C1513 1.327 . S
C1511 H1534 0.950 . S
C1512 C1511 1.349 . S
C1512 C1524 1.349 . S
C1513 C1511 1.327 . S
C1513 C1529 1.429 . S
C1513 H1535 0.950 . S
C1514 H1510 0.949 . S
C1514 C1522 1.574 . S
C1514 C1530 1.368 . S
H1515 C1523 0.950 . S
H1516 C1521 0.950 . S
H1517 C1522 0.949 . S
H1518 C1524 0.950 . S
H1519 C1525 0.950 . S
H1520 C1526 0.949 . S
C1521 H1516 0.950 . S
C1521 C1523 1.327 . S
C1521 C1527 1.429 . S
C1522 C1514 1.574 . S
C1522 H1517 0.949 . S
C1522 C1528 1.368 . S
C1523 C1507 1.349 . S
C1523 H1515 0.950 . S
C1523 C1521 1.327 . S
C1524 C1512 1.349 . S
C1524 H1518 0.950 . S
C1524 C1525 1.327 . S
C1525 H1519 0.950 . S
C1525 C1524 1.327 . S
C1525 C1529 1.429 . S
C1526 C1509 1.574 . S
C1526 H1520 0.949 . S
C1526 C1530 1.368 . S
C1527 C1508 1.429 . S
C1527 C1521 1.429 . S
C1527 C1528 1.523 . S
C1528 C1509 1.368 . S
C1528 C1522 1.368 . S
C1528 C1527 1.523 . S
C1529 C1513 1.429 . S
C1529 C1525 1.429 . S
C1529 C1530 1.523 . S
C1530 C1514 1.368 . S
C1530 C1526 1.368 . S
C1530 C1529 1.523 . S
H1531 C1506 0.950 . S
H1532 C1508 0.950 . S
H1533 C1509 0.949 . S
H1534 C1511 0.950 . S
H1535 C1513 0.950 . S
C1536 C1537 1.349 . S
C1536 C1538 1.327 . S
C1536 H1561 0.950 . S
C1537 C1536 1.349 . S
C1537 C1553 1.349 . S
C1538 C1536 1.327 . S
C1538 C1557 1.429 . S
C1538 H1562 0.950 . S
C1539 C1556 1.574 . S
C1539 C1558 1.368 . S
C1539 H1563 0.949 . S
H1540 C1544 0.949 . S
C1541 C1542 1.349 . S
C1541 C1543 1.327 . S
C1541 H1564 0.950 . S
C1542 C1541 1.349 . S
C1542 C1554 1.349 . S
C1543 C1541 1.327 . S
C1543 C1559 1.429 . S
C1543 H1565 0.950 . S
C1544 H1540 0.949 . S
C1544 C1552 1.574 . S
C1544 C1560 1.368 . S
H1545 C1553 0.950 . S
H1546 C1551 0.950 . S
H1547 C1552 0.949 . S
H1548 C1554 0.950 . S
H1549 C1555 0.950 . S
H1550 C1556 0.949 . S
C1551 H1546 0.950 . S
C1551 C1553 1.327 . S
C1551 C1557 1.429 . S
C1552 C1544 1.574 . S
C1552 H1547 0.949 . S
C1552 C1558 1.368 . S
C1553 C1537 1.349 . S
C1553 H1545 0.950 . S
C1553 C1551 1.327 . S
C1554 C1542 1.349 . S
C1554 H1548 0.950 . S
C1554 C1555 1.327 . S
C1555 H1549 0.950 . S
C1555 C1554 1.327 . S
C1555 C1559 1.429 . S
C1556 C1539 1.574 . S
C1556 H1550 0.949 . S
C1556 C1560 1.368 . S
C1557 C1538 1.429 . S
C1557 C1551 1.429 . S
C1557 C1558 1.523 . S
C1558 C1539 1.368 . S
C1558 C1552 1.368 . S
C1558 C1557 1.523 . S
C1559 C1543 1.429 . S
C1559 C1555 1.429 . S
C1559 C1560 1.523 . S
C1560 C1544 1.368 . S
C1560 C1556 1.368 . S
C1560 C1559 1.523 . S
H1561 C1536 0.950 . S
H1562 C1538 0.950 . S
H1563 C1539 0.949 . S
H1564 C1541 0.950 . S
H1565 C1543 0.950 . S
C1566 C1567 1.349 . S
C1566 C1568 1.327 . S
C1566 H1591 0.950 . S
C1567 C1566 1.349 . S
C1567 C1583 1.349 1_556 S
C1568 C1566 1.327 . S
C1568 C1587 1.474 . S
C1568 H1592 0.950 . S
C1569 C1586 1.574 . S
C1569 C1588 1.398 . S
C1569 H1593 0.949 . S
H1570 C1574 0.949 . S
C1571 C1572 1.349 . S
C1571 C1573 1.327 . S
C1571 H1594 0.950 . S
C1572 C1571 1.349 . S
C1572 C1584 1.349 1_554 S
C1573 C1571 1.327 . S
C1573 C1589 1.429 . S
C1573 H1595 0.950 . S
C1574 H1570 0.949 . S
C1574 C1582 1.574 . S
C1574 C1590 1.368 1_556 S
H1575 C1583 0.950 . S
H1576 C1581 0.950 . S
H1577 C1582 0.949 . S
H1578 C1584 0.950 . S
H1579 C1585 0.950 . S
H1580 C1586 0.949 . S
C1581 H1576 0.950 . S
C1581 C1583 1.327 . S
C1581 C1587 1.388 1_554 S
C1582 C1574 1.574 . S
C1582 H1577 0.949 . S
C1582 C1588 1.340 1_556 S
C1583 C1567 1.349 1_554 S
C1583 H1575 0.950 . S
C1583 C1581 1.327 . S
C1584 C1572 1.349 1_556 S
C1584 H1578 0.950 . S
C1584 C1585 1.327 . S
C1585 H1579 0.950 . S
C1585 C1584 1.327 . S
C1585 C1589 1.429 1_556 S
C1586 C1569 1.574 . S
C1586 H1580 0.949 . S
C1586 C1590 1.368 . S
C1587 C1568 1.474 . S
C1587 C1581 1.388 1_556 S
C1587 C1588 1.519 1_556 S
C1588 C1569 1.398 . S
C1588 C1582 1.340 1_554 S
C1588 C1587 1.519 1_554 S
C1589 C1573 1.429 . S
C1589 C1585 1.429 1_554 S
C1589 C1590 1.523 . S
C1590 C1574 1.368 1_554 S
C1590 C1586 1.368 . S
C1590 C1589 1.523 . S
H1591 C1566 0.950 . S
H1592 C1568 0.950 . S
H1593 C1569 0.949 . S
H1594 C1571 0.950 . S
H1595 C1573 0.950 . S
C1596 C1597 1.349 1_554 S
C1596 C1598 1.327 . S
C1596 H1621 0.950 . S
C1597 C1596 1.349 1_556 S
C1597 C1613 1.349 . S
C1598 C1596 1.327 . S
C1598 C1617 1.394 1_554 S
C1598 H1622 0.950 . S
C1599 C1616 1.574 . S
C1599 C1618 1.344 1_556 S
C1599 H1623 0.949 . S
H1600 C1604 0.949 . S
C1601 C1602 1.349 1_556 S
C1601 C1603 1.327 . S
C1601 H1624 0.950 . S
C1602 C1601 1.349 1_554 S
C1602 C1614 1.349 . S
C1603 C1601 1.327 . S
C1603 C1619 1.429 1_556 S
C1603 H1625 0.950 . S
C1604 H1600 0.949 . S
C1604 C1612 1.574 . S
C1604 C1620 1.368 . S
H1605 C1613 0.950 . S
H1606 C1611 0.950 . S
H1607 C1612 0.949 . S
H1608 C1614 0.950 . S
H1609 C1615 0.950 . S
H1610 C1616 0.949 . S
C1611 H1606 0.950 . S
C1611 C1613 1.327 . S
C1611 C1617 1.468 . S
C1612 C1604 1.574 . S
C1612 H1607 0.949 . S
C1612 C1618 1.394 . S
C1613 C1597 1.349 . S
C1613 H1605 0.950 . S
C1613 C1611 1.327 . S
C1614 C1602 1.349 . S
C1614 H1608 0.950 . S
C1614 C1615 1.327 . S
C1615 H1609 0.950 . S
C1615 C1614 1.327 . S
C1615 C1619 1.429 . S
C1616 C1599 1.574 . S
C1616 H1610 0.949 . S
C1616 C1620 1.368 1_556 S
C1617 C1598 1.394 1_556 S
C1617 C1611 1.468 . S
C1617 C1618 1.519 1_556 S
C1618 C1599 1.344 1_554 S
C1618 C1612 1.394 . S
C1618 C1617 1.519 1_554 S
C1619 C1603 1.429 1_554 S
C1619 C1615 1.429 . S
C1619 C1620 1.523 . S
C1620 C1604 1.368 . S
C1620 C1616 1.368 1_554 S
C1620 C1619 1.523 . S
H1621 C1596 0.950 . S
H1622 C1598 0.950 . S
H1623 C1599 0.949 . S
H1624 C1601 0.950 . S
H1625 C1603 0.950 . S
C1626 C1627 1.349 1_554 S
C1626 C1628 1.327 . S
C1626 H1651 0.950 . S
C1627 C1626 1.349 1_556 S
C1627 C1643 1.349 . S
C1628 C1626 1.327 . S
C1628 C1647 1.397 1_554 S
C1628 H1652 0.950 . S
C1629 C1646 1.574 . S
C1629 C1648 1.346 1_556 S
C1629 H1653 0.949 . S
H1630 C1634 0.949 . S
C1631 C1632 1.349 1_556 S
C1631 C1633 1.327 . S
C1631 H1654 0.950 . S
C1632 C1631 1.349 1_554 S
C1632 C1644 1.349 . S
C1633 C1631 1.327 . S
C1633 C1649 1.429 1_556 S
C1633 H1655 0.950 . S
C1634 H1630 0.949 . S
C1634 C1642 1.574 . S
C1634 C1650 1.368 . S
H1635 C1643 0.950 . S
H1636 C1641 0.950 . S
H1637 C1642 0.949 . S
H1638 C1644 0.950 . S
H1639 C1645 0.950 . S
H1640 C1646 0.949 . S
C1641 H1636 0.950 . S
C1641 C1643 1.327 . S
C1641 C1647 1.465 . S
C1642 C1634 1.574 . S
C1642 H1637 0.949 . S
C1642 C1648 1.392 . S
C1643 C1627 1.349 . S
C1643 H1635 0.950 . S
C1643 C1641 1.327 . S
C1644 C1632 1.349 . S
C1644 H1638 0.950 . S
C1644 C1645 1.327 . S
C1645 H1639 0.950 . S
C1645 C1644 1.327 . S
C1645 C1649 1.429 . S
C1646 C1629 1.574 . S
C1646 H1640 0.949 . S
C1646 C1650 1.368 1_556 S
C1647 C1628 1.397 1_556 S
C1647 C1641 1.465 . S
C1647 C1648 1.519 1_556 S
C1648 C1629 1.346 1_554 S
C1648 C1642 1.392 . S
C1648 C1647 1.519 1_554 S
C1649 C1633 1.429 1_554 S
C1649 C1645 1.429 . S
C1649 C1650 1.523 . S
C1650 C1634 1.368 . S
C1650 C1646 1.368 1_554 S
C1650 C1649 1.523 . S
H1651 C1626 0.950 . S
H1652 C1628 0.950 . S
H1653 C1629 0.949 . S
H1654 C1631 0.950 . S
H1655 C1633 0.950 . S
C1656 C1657 1.349 . S
C1656 C1658 1.327 . S
C1656 H1681 0.950 . S
C1657 C1656 1.349 . S
C1657 C1673 1.349 . S
C1658 C1656 1.327 . S
C1658 C1677 1.429 . S
C1658 H1682 0.950 . S
C1659 C1676 1.574 . S
C1659 C1678 1.368 . S
C1659 H1683 0.949 . S
H1660 C1664 0.949 . S
C1661 C1662 1.349 . S
C1661 C1663 1.327 . S
C1661 H1684 0.950 . S
C1662 C1661 1.349 . S
C1662 C1674 1.349 . S
C1663 C1661 1.327 . S
C1663 C1679 1.429 . S
C1663 H1685 0.950 . S
C1664 H1660 0.949 . S
C1664 C1672 1.574 . S
C1664 C1680 1.368 . S
H1665 C1673 0.950 . S
H1666 C1671 0.950 . S
H1667 C1672 0.949 . S
H1668 C1674 0.950 . S
H1669 C1675 0.950 . S
H1670 C1676 0.949 . S
C1671 H1666 0.950 . S
C1671 C1673 1.327 . S
C1671 C1677 1.429 . S
C1672 C1664 1.574 . S
C1672 H1667 0.949 . S
C1672 C1678 1.368 . S
C1673 C1657 1.349 . S
C1673 H1665 0.950 . S
C1673 C1671 1.327 . S
C1674 C1662 1.349 . S
C1674 H1668 0.950 . S
C1674 C1675 1.327 . S
C1675 H1669 0.950 . S
C1675 C1674 1.327 . S
C1675 C1679 1.429 . S
C1676 C1659 1.574 . S
C1676 H1670 0.949 . S
C1676 C1680 1.368 . S
C1677 C1658 1.429 . S
C1677 C1671 1.429 . S
C1677 C1678 1.523 . S
C1678 C1659 1.368 . S
C1678 C1672 1.368 . S
C1678 C1677 1.523 . S
C1679 C1663 1.429 . S
C1679 C1675 1.429 . S
C1679 C1680 1.523 . S
C1680 C1664 1.368 . S
C1680 C1676 1.368 . S
C1680 C1679 1.523 . S
H1681 C1656 0.950 . S
H1682 C1658 0.950 . S
H1683 C1659 0.949 . S
H1684 C1661 0.950 . S
H1685 C1663 0.950 . S
C1686 C1687 1.349 . S
C1686 C1688 1.327 . S
C1686 H1711 0.950 . S
C1687 C1686 1.349 . S
C1687 C1703 1.349 . S
C1688 C1686 1.327 . S
C1688 C1707 1.429 . S
C1688 H1712 0.950 . S
C1689 C1706 1.574 . S
C1689 C1708 1.368 . S
C1689 H1713 0.949 . S
H1690 C1694 0.949 . S
C1691 C1692 1.349 . S
C1691 C1693 1.327 . S
C1691 H1714 0.950 . S
C1692 C1691 1.349 . S
C1692 C1704 1.349 . S
C1693 C1691 1.327 . S
C1693 C1709 1.429 . S
C1693 H1715 0.950 . S
C1694 H1690 0.949 . S
C1694 C1702 1.574 . S
C1694 C1710 1.368 . S
H1695 C1703 0.950 . S
H1696 C1701 0.950 . S
H1697 C1702 0.949 . S
H1698 C1704 0.950 . S
H1699 C1705 0.950 . S
H1700 C1706 0.949 . S
C1701 H1696 0.950 . S
C1701 C1703 1.327 . S
C1701 C1707 1.429 . S
C1702 C1694 1.574 . S
C1702 H1697 0.949 . S
C1702 C1708 1.368 . S
C1703 C1687 1.349 . S
C1703 H1695 0.950 . S
C1703 C1701 1.327 . S
C1704 C1692 1.349 . S
C1704 H1698 0.950 . S
C1704 C1705 1.327 . S
C1705 H1699 0.950 . S
C1705 C1704 1.327 . S
C1705 C1709 1.429 . S
C1706 C1689 1.574 . S
C1706 H1700 0.949 . S
C1706 C1710 1.368 . S
C1707 C1688 1.429 . S
C1707 C1701 1.429 . S
C1707 C1708 1.523 . S
C1708 C1689 1.368 . S
C1708 C1702 1.368 . S
C1708 C1707 1.523 . S
C1709 C1693 1.429 . S
C1709 C1705 1.429 . S
C1709 C1710 1.523 . S
C1710 C1694 1.368 . S
C1710 C1706 1.368 . S
C1710 C1709 1.523 . S
H1711 C1686 0.950 . S
H1712 C1688 0.950 . S
H1713 C1689 0.949 . S
H1714 C1691 0.950 . S
H1715 C1693 0.950 . S
C1716 C1717 1.349 . S
C1716 C1718 1.327 . S
C1716 H1741 0.950 . S
C1717 C1716 1.349 . S
C1717 C1733 1.349 . S
C1718 C1716 1.327 . S
C1718 C1737 1.429 . S
C1718 H1742 0.950 . S
C1719 C1736 1.574 . S
C1719 C1738 1.368 . S
C1719 H1743 0.949 . S
H1720 C1724 0.949 . S
C1721 C1722 1.349 . S
C1721 C1723 1.327 . S
C1721 H1744 0.950 . S
C1722 C1721 1.349 . S
C1722 C1734 1.349 . S
C1723 C1721 1.327 . S
C1723 C1739 1.429 . S
C1723 H1745 0.950 . S
C1724 H1720 0.949 . S
C1724 C1732 1.574 . S
C1724 C1740 1.368 . S
H1725 C1733 0.950 . S
H1726 C1731 0.950 . S
H1727 C1732 0.949 . S
H1728 C1734 0.950 . S
H1729 C1735 0.950 . S
H1730 C1736 0.949 . S
C1731 H1726 0.950 . S
C1731 C1733 1.327 . S
C1731 C1737 1.429 . S
C1732 C1724 1.574 . S
C1732 H1727 0.949 . S
C1732 C1738 1.368 . S
C1733 C1717 1.349 . S
C1733 H1725 0.950 . S
C1733 C1731 1.327 . S
C1734 C1722 1.349 . S
C1734 H1728 0.950 . S
C1734 C1735 1.327 . S
C1735 H1729 0.950 . S
C1735 C1734 1.327 . S
C1735 C1739 1.429 . S
C1736 C1719 1.574 . S
C1736 H1730 0.949 . S
C1736 C1740 1.368 . S
C1737 C1718 1.429 . S
C1737 C1731 1.429 . S
C1737 C1738 1.523 . S
C1738 C1719 1.368 . S
C1738 C1732 1.368 . S
C1738 C1737 1.523 . S
C1739 C1723 1.429 . S
C1739 C1735 1.429 . S
C1739 C1740 1.523 . S
C1740 C1724 1.368 . S
C1740 C1736 1.368 . S
C1740 C1739 1.523 . S
H1741 C1716 0.950 . S
H1742 C1718 0.950 . S
H1743 C1719 0.949 . S
H1744 C1721 0.950 . S
H1745 C1723 0.950 . S
C1746 C1747 1.349 . S
C1746 C1748 1.327 . S
C1746 H1771 0.950 . S
C1747 C1746 1.349 . S
C1747 C1763 1.349 . S
C1748 C1746 1.327 . S
C1748 C1767 1.429 . S
C1748 H1772 0.950 . S
C1749 C1766 1.574 . S
C1749 C1768 1.368 . S
C1749 H1773 0.949 . S
H1750 C1754 0.949 . S
C1751 C1752 1.349 . S
C1751 C1753 1.327 . S
C1751 H1774 0.950 . S
C1752 C1751 1.349 . S
C1752 C1764 1.349 . S
C1753 C1751 1.327 . S
C1753 C1769 1.429 . S
C1753 H1775 0.950 . S
C1754 H1750 0.949 . S
C1754 C1762 1.574 . S
C1754 C1770 1.368 . S
H1755 C1763 0.950 . S
H1756 C1761 0.950 . S
H1757 C1762 0.949 . S
H1758 C1764 0.950 . S
H1759 C1765 0.950 . S
H1760 C1766 0.949 . S
C1761 H1756 0.950 . S
C1761 C1763 1.327 . S
C1761 C1767 1.429 . S
C1762 C1754 1.574 . S
C1762 H1757 0.949 . S
C1762 C1768 1.368 . S
C1763 C1747 1.349 . S
C1763 H1755 0.950 . S
C1763 C1761 1.327 . S
C1764 C1752 1.349 . S
C1764 H1758 0.950 . S
C1764 C1765 1.327 . S
C1765 H1759 0.950 . S
C1765 C1764 1.327 . S
C1765 C1769 1.429 . S
C1766 C1749 1.574 . S
C1766 H1760 0.949 . S
C1766 C1770 1.368 . S
C1767 C1748 1.429 . S
C1767 C1761 1.429 . S
C1767 C1768 1.523 . S
C1768 C1749 1.368 . S
C1768 C1762 1.368 . S
C1768 C1767 1.523 . S
C1769 C1753 1.429 . S
C1769 C1765 1.429 . S
C1769 C1770 1.523 . S
C1770 C1754 1.368 . S
C1770 C1766 1.368 . S
C1770 C1769 1.523 . S
H1771 C1746 0.950 . S
H1772 C1748 0.950 . S
H1773 C1749 0.949 . S
H1774 C1751 0.950 . S
H1775 C1753 0.950 . S
C1776 C1777 1.349 . S
C1776 C1778 1.327 . S
C1776 H1801 0.950 . S
C1777 C1776 1.349 . S
C1777 C1793 1.349 . S
C1778 C1776 1.327 . S
C1778 C1797 1.429 . S
C1778 H1802 0.950 . S
C1779 C1796 1.574 . S
C1779 C1798 1.368 . S
C1779 H1803 0.949 . S
H1780 C1784 0.949 . S
C1781 C1782 1.349 . S
C1781 C1783 1.327 . S
C1781 H1804 0.950 . S
C1782 C1781 1.349 . S
C1782 C1794 1.349 . S
C1783 C1781 1.327 . S
C1783 C1799 1.429 . S
C1783 H1805 0.950 . S
C1784 H1780 0.949 . S
C1784 C1792 1.574 . S
C1784 C1800 1.368 . S
H1785 C1793 0.950 . S
H1786 C1791 0.950 . S
H1787 C1792 0.949 . S
H1788 C1794 0.950 . S
H1789 C1795 0.950 . S
H1790 C1796 0.949 . S
C1791 H1786 0.950 . S
C1791 C1793 1.327 . S
C1791 C1797 1.429 . S
C1792 C1784 1.574 . S
C1792 H1787 0.949 . S
C1792 C1798 1.368 . S
C1793 C1777 1.349 . S
C1793 H1785 0.950 . S
C1793 C1791 1.327 . S
C1794 C1782 1.349 . S
C1794 H1788 0.950 . S
C1794 C1795 1.327 . S
C1795 H1789 0.950 . S
C1795 C1794 1.327 . S
C1795 C1799 1.429 . S
C1796 C1779 1.574 . S
C1796 H1790 0.949 . S
C1796 C1800 1.368 . S
C1797 C1778 1.429 . S
C1797 C1791 1.429 . S
C1797 C1798 1.523 . S
C1798 C1779 1.368 . S
C1798 C1792 1.368 . S
C1798 C1797 1.523 . S
C1799 C1783 1.429 . S
C1799 C1795 1.429 . S
C1799 C1800 1.523 . S
C1800 C1784 1.368 . S
C1800 C1796 1.368 . S
C1800 C1799 1.523 . S
H1801 C1776 0.950 . S
H1802 C1778 0.950 . S
H1803 C1779 0.949 . S
H1804 C1781 0.950 . S
H1805 C1783 0.950 . S
C1806 C1807 1.349 . S
C1806 C1808 1.327 . S
C1806 H1831 0.950 . S
C1807 C1806 1.349 . S
C1807 C1823 1.349 . S
C1808 C1806 1.327 . S
C1808 C1827 1.429 . S
C1808 H1832 0.950 . S
C1809 C1826 1.574 . S
C1809 C1828 1.368 . S
C1809 H1833 0.949 . S
H1810 C1814 0.949 . S
C1811 C1812 1.349 . S
C1811 C1813 1.327 . S
C1811 H1834 0.950 . S
C1812 C1811 1.349 . S
C1812 C1824 1.349 . S
C1813 C1811 1.327 . S
C1813 C1829 1.429 . S
C1813 H1835 0.950 . S
C1814 H1810 0.949 . S
C1814 C1822 1.574 . S
C1814 C1830 1.368 . S
H1815 C1823 0.950 . S
H1816 C1821 0.950 . S
H1817 C1822 0.949 . S
H1818 C1824 0.950 . S
H1819 C1825 0.950 . S
H1820 C1826 0.949 . S
C1821 H1816 0.950 . S
C1821 C1823 1.327 . S
C1821 C1827 1.429 . S
C1822 C1814 1.574 . S
C1822 H1817 0.949 . S
C1822 C1828 1.368 . S
C1823 C1807 1.349 . S
C1823 H1815 0.950 . S
C1823 C1821 1.327 . S
C1824 C1812 1.349 . S
C1824 H1818 0.950 . S
C1824 C1825 1.327 . S
C1825 H1819 0.950 . S
C1825 C1824 1.327 . S
C1825 C1829 1.429 . S
C1826 C1809 1.574 . S
C1826 H1820 0.949 . S
C1826 C1830 1.368 . S
C1827 C1808 1.429 . S
C1827 C1821 1.429 . S
C1827 C1828 1.523 . S
C1828 C1809 1.368 . S
C1828 C1822 1.368 . S
C1828 C1827 1.523 . S
C1829 C1813 1.429 . S
C1829 C1825 1.429 . S
C1829 C1830 1.523 . S
C1830 C1814 1.368 . S
C1830 C1826 1.368 . S
C1830 C1829 1.523 . S
H1831 C1806 0.950 . S
H1832 C1808 0.950 . S
H1833 C1809 0.949 . S
H1834 C1811 0.950 . S
H1835 C1813 0.950 . S
C1836 C1837 1.349 . S
C1836 C1838 1.327 . S
C1836 H1861 0.950 . S
C1837 C1836 1.349 . S
C1837 C1853 1.349 . S
C1838 C1836 1.327 . S
C1838 C1857 1.429 . S
C1838 H1862 0.950 . S
C1839 C1856 1.574 . S
C1839 C1858 1.368 . S
C1839 H1863 0.949 . S
H1840 C1844 0.949 . S
C1841 C1842 1.349 . S
C1841 C1843 1.327 . S
C1841 H1864 0.950 . S
C1842 C1841 1.349 . S
C1842 C1854 1.349 . S
C1843 C1841 1.327 . S
C1843 C1859 1.429 . S
C1843 H1865 0.950 . S
C1844 H1840 0.949 . S
C1844 C1852 1.574 . S
C1844 C1860 1.368 . S
H1845 C1853 0.950 . S
H1846 C1851 0.950 . S
H1847 C1852 0.949 . S
H1848 C1854 0.950 . S
H1849 C1855 0.950 . S
H1850 C1856 0.949 . S
C1851 H1846 0.950 . S
C1851 C1853 1.327 . S
C1851 C1857 1.429 . S
C1852 C1844 1.574 . S
C1852 H1847 0.949 . S
C1852 C1858 1.368 . S
C1853 C1837 1.349 . S
C1853 H1845 0.950 . S
C1853 C1851 1.327 . S
C1854 C1842 1.349 . S
C1854 H1848 0.950 . S
C1854 C1855 1.327 . S
C1855 H1849 0.950 . S
C1855 C1854 1.327 . S
C1855 C1859 1.429 . S
C1856 C1839 1.574 . S
C1856 H1850 0.949 . S
C1856 C1860 1.368 . S
C1857 C1838 1.429 . S
C1857 C1851 1.429 . S
C1857 C1858 1.523 . S
C1858 C1839 1.368 . S
C1858 C1852 1.368 . S
C1858 C1857 1.523 . S
C1859 C1843 1.429 . S
C1859 C1855 1.429 . S
C1859 C1860 1.523 . S
C1860 C1844 1.368 . S
C1860 C1856 1.368 . S
C1860 C1859 1.523 . S
H1861 C1836 0.950 . S
H1862 C1838 0.950 . S
H1863 C1839 0.949 . S
H1864 C1841 0.950 . S
H1865 C1843 0.950 . S
C1866 C1867 1.349 . S
C1866 C1868 1.327 . S
C1866 H1891 0.950 . S
C1867 C1866 1.349 . S
C1867 C1883 1.349 1_545 S
C1868 C1866 1.327 . S
C1868 C1887 1.429 1_545 S
C1868 H1892 0.950 . S
C1869 C1886 1.574 . S
C1869 C1888 1.368 . S
C1869 H1893 0.949 . S
H1870 C1874 0.949 . S
C1871 C1872 1.349 . S
C1871 C1873 1.327 . S
C1871 H1894 0.950 . S
C1872 C1871 1.349 . S
C1872 C1884 1.349 . S
C1873 C1871 1.327 . S
C1873 C1889 1.429 . S
C1873 H1895 0.950 . S
C1874 H1870 0.949 . S
C1874 C1882 1.574 . S
C1874 C1890 1.368 . S
H1875 C1883 0.950 . S
H1876 C1881 0.950 . S
H1877 C1882 0.949 . S
H1878 C1884 0.950 . S
H1879 C1885 0.950 . S
H1880 C1886 0.949 . S
C1881 H1876 0.950 . S
C1881 C1883 1.327 . S
C1881 C1887 1.429 . S
C1882 C1874 1.574 . S
C1882 H1877 0.949 . S
C1882 C1888 1.368 . S
C1883 C1867 1.349 1_565 S
C1883 H1875 0.950 . S
C1883 C1881 1.327 . S
C1884 C1872 1.349 . S
C1884 H1878 0.950 . S
C1884 C1885 1.327 . S
C1885 H1879 0.950 . S
C1885 C1884 1.327 . S
C1885 C1889 1.429 . S
C1886 C1869 1.574 . S
C1886 H1880 0.949 . S
C1886 C1890 1.368 . S
C1887 C1868 1.429 1_565 S
C1887 C1881 1.429 . S
C1887 C1888 1.523 . S
C1888 C1869 1.368 . S
C1888 C1882 1.368 . S
C1888 C1887 1.523 . S
C1889 C1873 1.429 . S
C1889 C1885 1.429 . S
C1889 C1890 1.523 . S
C1890 C1874 1.368 . S
C1890 C1886 1.368 . S
C1890 C1889 1.523 . S
H1891 C1866 0.950 . S
H1892 C1868 0.950 . S
H1893 C1869 0.949 . S
H1894 C1871 0.950 . S
H1895 C1873 0.950 . S
C1896 C1897 1.349 . S
C1896 C1898 1.327 . S
C1896 H1921 0.950 . S
C1897 C1896 1.349 . S
C1897 C1913 1.349 . S
C1898 C1896 1.327 . S
C1898 C1917 1.429 . S
C1898 H1922 0.950 . S
C1899 C1916 1.574 . S
C1899 C1918 1.368 . S
C1899 H1923 0.949 . S
H1900 C1904 0.949 . S
C1901 C1902 1.349 . S
C1901 C1903 1.327 . S
C1901 H1924 0.950 . S
C1902 C1901 1.349 . S
C1902 C1914 1.349 1_655 S
C1903 C1901 1.327 . S
C1903 C1919 1.429 1_655 S
C1903 H1925 0.950 . S
C1904 H1900 0.949 . S
C1904 C1912 1.574 . S
C1904 C1920 1.368 . S
H1905 C1913 0.950 . S
H1906 C1911 0.950 . S
H1907 C1912 0.949 . S
H1908 C1914 0.950 . S
H1909 C1915 0.950 . S
H1910 C1916 0.949 . S
C1911 H1906 0.950 . S
C1911 C1913 1.327 . S
C1911 C1917 1.429 . S
C1912 C1904 1.574 . S
C1912 H1907 0.949 . S
C1912 C1918 1.368 . S
C1913 C1897 1.349 . S
C1913 H1905 0.950 . S
C1913 C1911 1.327 . S
C1914 C1902 1.349 1_455 S
C1914 H1908 0.950 . S
C1914 C1915 1.327 . S
C1915 H1909 0.950 . S
C1915 C1914 1.327 . S
C1915 C1919 1.429 . S
C1916 C1899 1.574 . S
C1916 H1910 0.949 . S
C1916 C1920 1.368 . S
C1917 C1898 1.429 . S
C1917 C1911 1.429 . S
C1917 C1918 1.523 . S
C1918 C1899 1.368 . S
C1918 C1912 1.368 . S
C1918 C1917 1.523 . S
C1919 C1903 1.429 1_455 S
C1919 C1915 1.429 . S
C1919 C1920 1.523 . S
C1920 C1904 1.368 . S
C1920 C1916 1.368 . S
C1920 C1919 1.523 . S
H1921 C1896 0.950 . S
H1922 C1898 0.950 . S
H1923 C1899 0.949 . S
H1924 C1901 0.950 . S
H1925 C1903 0.950 . S
C1926 C1927 1.349 . S
C1926 C1928 1.327 . S
C1926 H1951 0.950 . S
C1927 C1926 1.349 . S
C1927 C1943 1.349 . S
C1928 C1926 1.327 . S
C1928 C1947 1.429 . S
C1928 H1952 0.950 . S
C1929 C1946 1.574 . S
C1929 C1948 1.368 . S
C1929 H1953 0.949 . S
H1930 C1934 0.949 . S
C1931 C1932 1.349 . S
C1931 C1933 1.327 . S
C1931 H1954 0.950 . S
C1932 C1931 1.349 . S
C1932 C1944 1.349 . S
C1933 C1931 1.327 . S
C1933 C1949 1.429 . S
C1933 H1955 0.950 . S
C1934 H1930 0.949 . S
C1934 C1942 1.574 . S
C1934 C1950 1.368 . S
H1935 C1943 0.950 . S
H1936 C1941 0.950 . S
H1937 C1942 0.949 . S
H1938 C1944 0.950 . S
H1939 C1945 0.950 . S
H1940 C1946 0.949 . S
C1941 H1936 0.950 . S
C1941 C1943 1.327 . S
C1941 C1947 1.429 . S
C1942 C1934 1.574 . S
C1942 H1937 0.949 . S
C1942 C1948 1.368 . S
C1943 C1927 1.349 . S
C1943 H1935 0.950 . S
C1943 C1941 1.327 . S
C1944 C1932 1.349 . S
C1944 H1938 0.950 . S
C1944 C1945 1.327 . S
C1945 H1939 0.950 . S
C1945 C1944 1.327 . S
C1945 C1949 1.429 . S
C1946 C1929 1.574 . S
C1946 H1940 0.949 . S
C1946 C1950 1.368 . S
C1947 C1928 1.429 . S
C1947 C1941 1.429 . S
C1947 C1948 1.523 . S
C1948 C1929 1.368 . S
C1948 C1942 1.368 . S
C1948 C1947 1.523 . S
C1949 C1933 1.429 . S
C1949 C1945 1.429 . S
C1949 C1950 1.523 . S
C1950 C1934 1.368 . S
C1950 C1946 1.368 . S
C1950 C1949 1.523 . S
H1951 C1926 0.950 . S
H1952 C1928 0.950 . S
H1953 C1929 0.949 . S
H1954 C1931 0.950 . S
H1955 C1933 0.950 . S
C1956 C1957 1.349 1_545 S
C1956 C1958 1.327 . S
C1956 H1981 0.950 . S
C1957 C1956 1.349 1_565 S
C1957 C1973 1.349 . S
C1958 C1956 1.327 . S
C1958 C1977 1.429 . S
C1958 H1982 0.950 . S
C1959 C1976 1.574 . S
C1959 C1978 1.368 . S
C1959 H1983 0.949 . S
H1960 C1964 0.949 . S
C1961 C1962 1.349 . S
C1961 C1963 1.327 . S
C1961 H1984 0.950 . S
C1962 C1961 1.349 . S
C1962 C1974 1.349 . S
C1963 C1961 1.327 . S
C1963 C1979 1.429 . S
C1963 H1985 0.950 . S
C1964 H1960 0.949 . S
C1964 C1972 1.574 . S
C1964 C1980 1.368 . S
H1965 C1973 0.950 . S
H1966 C1971 0.950 . S
H1967 C1972 0.949 . S
H1968 C1974 0.950 . S
H1969 C1975 0.950 . S
H1970 C1976 0.949 . S
C1971 H1966 0.950 . S
C1971 C1973 1.327 . S
C1971 C1977 1.429 1_565 S
C1972 C1964 1.574 . S
C1972 H1967 0.949 . S
C1972 C1978 1.368 . S
C1973 C1957 1.349 . S
C1973 H1965 0.950 . S
C1973 C1971 1.327 . S
C1974 C1962 1.349 . S
C1974 H1968 0.950 . S
C1974 C1975 1.327 . S
C1975 H1969 0.950 . S
C1975 C1974 1.327 . S
C1975 C1979 1.429 . S
C1976 C1959 1.574 . S
C1976 H1970 0.949 . S
C1976 C1980 1.368 . S
C1977 C1958 1.429 . S
C1977 C1971 1.429 1_545 S
C1977 C1978 1.523 . S
C1978 C1959 1.368 . S
C1978 C1972 1.368 . S
C1978 C1977 1.523 . S
C1979 C1963 1.429 . S
C1979 C1975 1.429 . S
C1979 C1980 1.523 . S
C1980 C1964 1.368 . S
C1980 C1976 1.368 . S
C1980 C1979 1.523 . S
H1981 C1956 0.950 . S
H1982 C1958 0.950 . S
H1983 C1959 0.949 . S
H1984 C1961 0.950 . S
H1985 C1963 0.950 . S
C1986 C1987 1.349 . S
C1986 C1988 1.327 . S
C1986 H2011 0.950 . S
C1987 C1986 1.349 . S
C1987 C2003 1.349 . S
C1988 C1986 1.327 . S
C1988 C2007 1.429 . S
C1988 H2012 0.950 . S
C1989 C2006 1.574 . S
C1989 C2008 1.368 . S
C1989 H2013 0.949 . S
H1990 C1994 0.949 . S
C1991 C1992 1.349 . S
C1991 C1993 1.327 . S
C1991 H2014 0.950 . S
C1992 C1991 1.349 . S
C1992 C2004 1.349 1_455 S
C1993 C1991 1.327 . S
C1993 C2009 1.429 1_455 S
C1993 H2015 0.950 . S
C1994 H1990 0.949 . S
C1994 C2002 1.574 . S
C1994 C2010 1.368 . S
H1995 C2003 0.950 . S
H1996 C2001 0.950 . S
H1997 C2002 0.949 . S
H1998 C2004 0.950 . S
H1999 C2005 0.950 . S
H2000 C2006 0.949 . S
C2001 H1996 0.950 . S
C2001 C2003 1.327 . S
C2001 C2007 1.429 . S
C2002 C1994 1.574 . S
C2002 H1997 0.949 . S
C2002 C2008 1.368 . S
C2003 C1987 1.349 . S
C2003 H1995 0.950 . S
C2003 C2001 1.327 . S
C2004 C1992 1.349 1_655 S
C2004 H1998 0.950 . S
C2004 C2005 1.327 . S
C2005 H1999 0.950 . S
C2005 C2004 1.327 . S
C2005 C2009 1.429 . S
C2006 C1989 1.574 . S
C2006 H2000 0.949 . S
C2006 C2010 1.368 . S
C2007 C1988 1.429 . S
C2007 C2001 1.429 . S
C2007 C2008 1.523 . S
C2008 C1989 1.368 . S
C2008 C2002 1.368 . S
C2008 C2007 1.523 . S
C2009 C1993 1.429 1_655 S
C2009 C2005 1.429 . S
C2009 C2010 1.523 . S
C2010 C1994 1.368 . S
C2010 C2006 1.368 . S
C2010 C2009 1.523 . S
H2011 C1986 0.950 . S
H2012 C1988 0.950 . S
H2013 C1989 0.949 . S
H2014 C1991 0.950 . S
H2015 C1993 0.950 . S
C2016 C2017 1.349 . S
C2016 C2018 1.327 . S
C2016 H2041 0.950 . S
C2017 C2016 1.349 . S
C2017 C2033 1.349 . S
C2018 C2016 1.327 . S
C2018 C2037 1.429 . S
C2018 H2042 0.950 . S
C2019 C2036 1.574 . S
C2019 C2038 1.368 . S
C2019 H2043 0.949 . S
H2020 C2024 0.949 . S
C2021 C2022 1.349 . S
C2021 C2023 1.327 . S
C2021 H2044 0.950 . S
C2022 C2021 1.349 . S
C2022 C2034 1.349 . S
C2023 C2021 1.327 . S
C2023 C2039 1.429 . S
C2023 H2045 0.950 . S
C2024 H2020 0.949 . S
C2024 C2032 1.574 . S
C2024 C2040 1.368 . S
H2025 C2033 0.950 . S
H2026 C2031 0.950 . S
H2027 C2032 0.949 . S
H2028 C2034 0.950 . S
H2029 C2035 0.950 . S
H2030 C2036 0.949 . S
C2031 H2026 0.950 . S
C2031 C2033 1.327 . S
C2031 C2037 1.429 . S
C2032 C2024 1.574 . S
C2032 H2027 0.949 . S
C2032 C2038 1.368 . S
C2033 C2017 1.349 . S
C2033 H2025 0.950 . S
C2033 C2031 1.327 . S
C2034 C2022 1.349 . S
C2034 H2028 0.950 . S
C2034 C2035 1.327 . S
C2035 H2029 0.950 . S
C2035 C2034 1.327 . S
C2035 C2039 1.429 . S
C2036 C2019 1.574 . S
C2036 H2030 0.949 . S
C2036 C2040 1.368 . S
C2037 C2018 1.429 . S
C2037 C2031 1.429 . S
C2037 C2038 1.523 . S
C2038 C2019 1.368 . S
C2038 C2032 1.368 . S
C2038 C2037 1.523 . S
C2039 C2023 1.429 . S
C2039 C2035 1.429 . S
C2039 C2040 1.523 . S
C2040 C2024 1.368 . S
C2040 C2036 1.368 . S
C2040 C2039 1.523 . S
H2041 C2016 0.950 . S
H2042 C2018 0.950 . S
H2043 C2019 0.949 . S
H2044 C2021 0.950 . S
H2045 C2023 0.950 . S
C2046 C2047 1.349 . S
C2046 C2048 1.327 . S
C2046 H2071 0.950 . S
C2047 C2046 1.349 . S
C2047 C2063 1.349 . S
C2048 C2046 1.327 . S
C2048 C2067 1.429 . S
C2048 H2072 0.950 . S
C2049 C2066 1.574 . S
C2049 C2068 1.368 . S
C2049 H2073 0.949 . S
H2050 C2054 0.949 . S
C2051 C2052 1.349 . S
C2051 C2053 1.327 . S
C2051 H2074 0.950 . S
C2052 C2051 1.349 . S
C2052 C2064 1.349 1_565 S
C2053 C2051 1.327 . S
C2053 C2069 1.429 1_565 S
C2053 H2075 0.950 . S
C2054 H2050 0.949 . S
C2054 C2062 1.574 . S
C2054 C2070 1.368 . S
H2055 C2063 0.950 . S
H2056 C2061 0.950 . S
H2057 C2062 0.949 . S
H2058 C2064 0.950 . S
H2059 C2065 0.950 . S
H2060 C2066 0.949 . S
C2061 H2056 0.950 . S
C2061 C2063 1.327 . S
C2061 C2067 1.429 . S
C2062 C2054 1.574 . S
C2062 H2057 0.949 . S
C2062 C2068 1.368 . S
C2063 C2047 1.349 . S
C2063 H2055 0.950 . S
C2063 C2061 1.327 . S
C2064 C2052 1.349 1_545 S
C2064 H2058 0.950 . S
C2064 C2065 1.327 . S
C2065 H2059 0.950 . S
C2065 C2064 1.327 . S
C2065 C2069 1.429 . S
C2066 C2049 1.574 . S
C2066 H2060 0.949 . S
C2066 C2070 1.368 . S
C2067 C2048 1.429 . S
C2067 C2061 1.429 . S
C2067 C2068 1.523 . S
C2068 C2049 1.368 . S
C2068 C2062 1.368 . S
C2068 C2067 1.523 . S
C2069 C2053 1.429 1_545 S
C2069 C2065 1.429 . S
C2069 C2070 1.523 . S
C2070 C2054 1.368 . S
C2070 C2066 1.368 . S
C2070 C2069 1.523 . S
H2071 C2046 0.950 . S
H2072 C2048 0.950 . S
H2073 C2049 0.949 . S
H2074 C2051 0.950 . S
H2075 C2053 0.950 . S
C2076 C2077 1.349 . S
C2076 C2078 1.327 . S
C2076 H2101 0.950 . S
C2077 C2076 1.349 . S
C2077 C2093 1.349 . S
C2078 C2076 1.327 . S
C2078 C2097 1.429 . S
C2078 H2102 0.950 . S
C2079 C2096 1.574 . S
C2079 C2098 1.368 . S
C2079 H2103 0.949 . S
H2080 C2084 0.949 . S
C2081 C2082 1.349 1_655 S
C2081 C2083 1.327 . S
C2081 H2104 0.950 . S
C2082 C2081 1.349 1_455 S
C2082 C2094 1.349 . S
C2083 C2081 1.327 . S
C2083 C2099 1.429 . S
C2083 H2105 0.950 . S
C2084 H2080 0.949 . S
C2084 C2092 1.574 . S
C2084 C2100 1.368 . S
H2085 C2093 0.950 . S
H2086 C2091 0.950 . S
H2087 C2092 0.949 . S
H2088 C2094 0.950 . S
H2089 C2095 0.950 . S
H2090 C2096 0.949 . S
C2091 H2086 0.950 . S
C2091 C2093 1.327 . S
C2091 C2097 1.429 . S
C2092 C2084 1.574 . S
C2092 H2087 0.949 . S
C2092 C2098 1.368 . S
C2093 C2077 1.349 . S
C2093 H2085 0.950 . S
C2093 C2091 1.327 . S
C2094 C2082 1.349 . S
C2094 H2088 0.950 . S
C2094 C2095 1.327 . S
C2095 H2089 0.950 . S
C2095 C2094 1.327 . S
C2095 C2099 1.429 1_455 S
C2096 C2079 1.574 . S
C2096 H2090 0.949 . S
C2096 C2100 1.368 . S
C2097 C2078 1.429 . S
C2097 C2091 1.429 . S
C2097 C2098 1.523 . S
C2098 C2079 1.368 . S
C2098 C2092 1.368 . S
C2098 C2097 1.523 . S
C2099 C2083 1.429 . S
C2099 C2095 1.429 1_655 S
C2099 C2100 1.523 . S
C2100 C2084 1.368 . S
C2100 C2096 1.368 . S
C2100 C2099 1.523 . S
H2101 C2076 0.950 . S
H2102 C2078 0.950 . S
H2103 C2079 0.949 . S
H2104 C2081 0.950 . S
H2105 C2083 0.950 . S
C2106 C2107 1.349 . S
C2106 C2108 1.327 . S
C2106 H2131 0.950 . S
C2107 C2106 1.349 . S
C2107 C2123 1.349 . S
C2108 C2106 1.327 . S
C2108 C2127 1.429 . S
C2108 H2132 0.950 . S
C2109 C2126 1.574 . S
C2109 C2128 1.368 . S
C2109 H2133 0.949 . S
H2110 C2114 0.949 . S
C2111 C2112 1.349 . S
C2111 C2113 1.327 . S
C2111 H2134 0.950 . S
C2112 C2111 1.349 . S
C2112 C2124 1.349 . S
C2113 C2111 1.327 . S
C2113 C2129 1.429 . S
C2113 H2135 0.950 . S
C2114 H2110 0.949 . S
C2114 C2122 1.574 . S
C2114 C2130 1.368 . S
H2115 C2123 0.950 . S
H2116 C2121 0.950 . S
H2117 C2122 0.949 . S
H2118 C2124 0.950 . S
H2119 C2125 0.950 . S
H2120 C2126 0.949 . S
C2121 H2116 0.950 . S
C2121 C2123 1.327 . S
C2121 C2127 1.429 . S
C2122 C2114 1.574 . S
C2122 H2117 0.949 . S
C2122 C2128 1.368 . S
C2123 C2107 1.349 . S
C2123 H2115 0.950 . S
C2123 C2121 1.327 . S
C2124 C2112 1.349 . S
C2124 H2118 0.950 . S
C2124 C2125 1.327 . S
C2125 H2119 0.950 . S
C2125 C2124 1.327 . S
C2125 C2129 1.429 . S
C2126 C2109 1.574 . S
C2126 H2120 0.949 . S
C2126 C2130 1.368 . S
C2127 C2108 1.429 . S
C2127 C2121 1.429 . S
C2127 C2128 1.523 . S
C2128 C2109 1.368 . S
C2128 C2122 1.368 . S
C2128 C2127 1.523 . S
C2129 C2113 1.429 . S
C2129 C2125 1.429 . S
C2129 C2130 1.523 . S
C2130 C2114 1.368 . S
C2130 C2126 1.368 . S
C2130 C2129 1.523 . S
H2131 C2106 0.950 . S
H2132 C2108 0.950 . S
H2133 C2109 0.949 . S
H2134 C2111 0.950 . S
H2135 C2113 0.950 . S
C2136 C2137 1.349 1_565 S
C2136 C2138 1.327 . S
C2136 H2161 0.950 . S
C2137 C2136 1.349 1_545 S
C2137 C2153 1.349 . S
C2138 C2136 1.327 . S
C2138 C2157 1.429 . S
C2138 H2162 0.950 . S
C2139 C2156 1.574 . S
C2139 C2158 1.368 . S
C2139 H2163 0.949 . S
H2140 C2144 0.949 . S
C2141 C2142 1.349 . S
C2141 C2143 1.327 . S
C2141 H2164 0.950 . S
C2142 C2141 1.349 . S
C2142 C2154 1.349 . S
C2143 C2141 1.327 . S
C2143 C2159 1.429 . S
C2143 H2165 0.950 . S
C2144 H2140 0.949 . S
C2144 C2152 1.574 . S
C2144 C2160 1.368 . S
H2145 C2153 0.950 . S
H2146 C2151 0.950 . S
H2147 C2152 0.949 . S
H2148 C2154 0.950 . S
H2149 C2155 0.950 . S
H2150 C2156 0.949 . S
C2151 H2146 0.950 . S
C2151 C2153 1.327 . S
C2151 C2157 1.429 1_545 S
C2152 C2144 1.574 . S
C2152 H2147 0.949 . S
C2152 C2158 1.368 . S
C2153 C2137 1.349 . S
C2153 H2145 0.950 . S
C2153 C2151 1.327 . S
C2154 C2142 1.349 . S
C2154 H2148 0.950 . S
C2154 C2155 1.327 . S
C2155 H2149 0.950 . S
C2155 C2154 1.327 . S
C2155 C2159 1.429 . S
C2156 C2139 1.574 . S
C2156 H2150 0.949 . S
C2156 C2160 1.368 . S
C2157 C2138 1.429 . S
C2157 C2151 1.429 1_565 S
C2157 C2158 1.523 . S
C2158 C2139 1.368 . S
C2158 C2152 1.368 . S
C2158 C2157 1.523 . S
C2159 C2143 1.429 . S
C2159 C2155 1.429 . S
C2159 C2160 1.523 . S
C2160 C2144 1.368 . S
C2160 C2156 1.368 . S
C2160 C2159 1.523 . S
H2161 C2136 0.950 . S
H2162 C2138 0.950 . S
H2163 C2139 0.949 . S
H2164 C2141 0.950 . S
H2165 C2143 0.950 . S
C2166 C2167 1.349 1_455 S
C2166 C2168 1.327 . S
C2166 H2191 0.950 . S
C2167 C2166 1.349 1_655 S
C2167 C2183 1.349 . S
C2168 C2166 1.327 . S
C2168 C2187 1.429 . S
C2168 H2192 0.950 . S
C2169 C2186 1.574 . S
C2169 C2188 1.368 . S
C2169 H2193 0.949 . S
H2170 C2174 0.949 . S
C2171 C2172 1.349 . S
C2171 C2173 1.327 . S
C2171 H2194 0.950 . S
C2172 C2171 1.349 . S
C2172 C2184 1.349 . S
C2173 C2171 1.327 . S
C2173 C2189 1.429 . S
C2173 H2195 0.950 . S
C2174 H2170 0.949 . S
C2174 C2182 1.574 . S
C2174 C2190 1.368 . S
H2175 C2183 0.950 . S
H2176 C2181 0.950 . S
H2177 C2182 0.949 . S
H2178 C2184 0.950 . S
H2179 C2185 0.950 . S
H2180 C2186 0.949 . S
C2181 H2176 0.950 . S
C2181 C2183 1.327 . S
C2181 C2187 1.429 1_655 S
C2182 C2174 1.574 . S
C2182 H2177 0.949 . S
C2182 C2188 1.368 . S
C2183 C2167 1.349 . S
C2183 H2175 0.950 . S
C2183 C2181 1.327 . S
C2184 C2172 1.349 . S
C2184 H2178 0.950 . S
C2184 C2185 1.327 . S
C2185 H2179 0.950 . S
C2185 C2184 1.327 . S
C2185 C2189 1.429 . S
C2186 C2169 1.574 . S
C2186 H2180 0.949 . S
C2186 C2190 1.368 . S
C2187 C2168 1.429 . S
C2187 C2181 1.429 1_455 S
C2187 C2188 1.523 . S
C2188 C2169 1.368 . S
C2188 C2182 1.368 . S
C2188 C2187 1.523 . S
C2189 C2173 1.429 . S
C2189 C2185 1.429 . S
C2189 C2190 1.523 . S
C2190 C2174 1.368 . S
C2190 C2186 1.368 . S
C2190 C2189 1.523 . S
H2191 C2166 0.950 . S
H2192 C2168 0.950 . S
H2193 C2169 0.949 . S
H2194 C2171 0.950 . S
H2195 C2173 0.950 . S
C2196 C2197 1.349 . S
C2196 C2198 1.327 . S
C2196 H2221 0.950 . S
C2197 C2196 1.349 . S
C2197 C2213 1.349 . S
C2198 C2196 1.327 . S
C2198 C2217 1.429 . S
C2198 H2222 0.950 . S
C2199 C2216 1.574 . S
C2199 C2218 1.368 . S
C2199 H2223 0.949 . S
H2200 C2204 0.949 1_455 S
C2201 C2202 1.349 . S
C2201 C2203 1.327 . S
C2201 H2224 0.950 . S
C2202 C2201 1.349 . S
C2202 C2214 1.349 . S
C2203 C2201 1.327 . S
C2203 C2219 1.429 . S
C2203 H2225 0.950 . S
C2204 H2200 0.949 1_655 S
C2204 C2212 1.574 . S
C2204 C2220 1.368 1_655 S
H2205 C2213 0.950 . S
H2206 C2211 0.950 . S
H2207 C2212 0.949 . S
H2208 C2214 0.950 . S
H2209 C2215 0.950 . S
H2210 C2216 0.980 . S
C2211 H2206 0.950 . S
C2211 C2213 1.327 . S
C2211 C2217 1.429 . S
C2212 C2204 1.574 . S
C2212 H2207 0.949 . S
C2212 C2218 1.368 . S
C2213 C2197 1.349 . S
C2213 H2205 0.950 . S
C2213 C2211 1.327 . S
C2214 C2202 1.349 . S
C2214 H2208 0.950 . S
C2214 C2215 1.327 . S
C2215 H2209 0.950 . S
C2215 C2214 1.327 . S
C2215 C2219 1.429 . S
C2216 C2199 1.574 . S
C2216 H2210 0.980 . S
C2216 C2220 1.368 1_655 S
C2217 C2198 1.429 . S
C2217 C2211 1.429 . S
C2217 C2218 1.523 . S
C2218 C2199 1.368 . S
C2218 C2212 1.368 . S
C2218 C2217 1.523 . S
C2219 C2203 1.429 . S
C2219 C2215 1.429 . S
C2219 C2220 1.523 . S
C2220 C2204 1.368 1_455 S
C2220 C2216 1.368 1_455 S
C2220 C2219 1.523 . S
H2221 C2196 0.950 . S
H2222 C2198 0.950 . S
H2223 C2199 0.949 . S
H2224 C2201 0.950 . S
H2225 C2203 0.950 . S
C2226 C2227 1.349 . S
C2226 C2228 1.327 . S
C2226 H2251 0.950 . S
C2227 C2226 1.349 . S
C2227 C2243 1.349 . S
C2228 C2226 1.327 . S
C2228 C2247 1.429 . S
C2228 H2252 0.950 . S
C2229 C2246 1.574 . S
C2229 C2248 1.368 . S
C2229 H2253 0.949 . S
H2230 C2234 0.949 . S
C2231 C2232 1.349 . S
C2231 C2233 1.327 . S
C2231 H2254 0.950 . S
C2232 C2231 1.349 . S
C2232 C2244 1.349 . S
C2233 C2231 1.327 . S
C2233 C2249 1.429 . S
C2233 H2255 0.950 . S
C2234 H2230 0.949 . S
C2234 C2242 1.574 . S
C2234 C2250 1.368 . S
H2235 C2243 0.950 . S
H2236 C2241 0.950 . S
H2237 C2242 0.949 . S
H2238 C2244 0.950 . S
H2239 C2245 0.950 . S
H2240 C2246 0.949 . S
C2241 H2236 0.950 . S
C2241 C2243 1.327 . S
C2241 C2247 1.429 . S
C2242 C2234 1.574 . S
C2242 H2237 0.949 . S
C2242 C2248 1.368 . S
C2243 C2227 1.349 . S
C2243 H2235 0.950 . S
C2243 C2241 1.327 . S
C2244 C2232 1.349 . S
C2244 H2238 0.950 . S
C2244 C2245 1.327 . S
C2245 H2239 0.950 . S
C2245 C2244 1.327 . S
C2245 C2249 1.429 . S
C2246 C2229 1.574 . S
C2246 H2240 0.949 . S
C2246 C2250 1.368 . S
C2247 C2228 1.429 . S
C2247 C2241 1.429 . S
C2247 C2248 1.523 . S
C2248 C2229 1.368 . S
C2248 C2242 1.368 . S
C2248 C2247 1.523 . S
C2249 C2233 1.429 . S
C2249 C2245 1.429 . S
C2249 C2250 1.523 . S
C2250 C2234 1.368 . S
C2250 C2246 1.368 . S
C2250 C2249 1.523 . S
H2251 C2226 0.950 . S
H2252 C2228 0.950 . S
H2253 C2229 0.949 . S
H2254 C2231 0.950 . S
H2255 C2233 0.950 . S
C2256 C2257 1.349 . S
C2256 C2258 1.327 . S
C2256 H2281 0.950 . S
C2257 C2256 1.349 . S
C2257 C2273 1.349 . S
C2258 C2256 1.327 . S
C2258 C2277 1.429 . S
C2258 H2282 0.950 . S
C2259 C2276 1.574 . S
C2259 C2278 1.368 1_545 S
C2259 H2283 0.949 . S
H2260 C2264 0.949 . S
C2261 C2262 1.349 . S
C2261 C2263 1.327 . S
C2261 H2284 0.950 . S
C2262 C2261 1.349 . S
C2262 C2274 1.349 . S
C2263 C2261 1.327 . S
C2263 C2279 1.429 . S
C2263 H2285 0.950 . S
C2264 H2260 0.949 . S
C2264 C2272 1.574 . S
C2264 C2280 1.368 . S
H2265 C2273 0.950 . S
H2266 C2271 0.950 . S
H2267 C2272 0.949 1_565 S
H2268 C2274 0.950 . S
H2269 C2275 0.950 . S
H2270 C2276 0.949 . S
C2271 H2266 0.950 . S
C2271 C2273 1.327 . S
C2271 C2277 1.429 . S
C2272 C2264 1.574 . S
C2272 H2267 0.949 1_545 S
C2272 C2278 1.368 1_545 S
C2273 C2257 1.349 . S
C2273 H2265 0.950 . S
C2273 C2271 1.327 . S
C2274 C2262 1.349 . S
C2274 H2268 0.950 . S
C2274 C2275 1.327 . S
C2275 H2269 0.950 . S
C2275 C2274 1.327 . S
C2275 C2279 1.429 . S
C2276 C2259 1.574 . S
C2276 H2270 0.949 . S
C2276 C2280 1.368 . S
C2277 C2258 1.429 . S
C2277 C2271 1.429 . S
C2277 C2278 1.523 . S
C2278 C2259 1.368 1_565 S
C2278 C2272 1.368 1_565 S
C2278 C2277 1.523 . S
C2279 C2263 1.429 . S
C2279 C2275 1.429 . S
C2279 C2280 1.523 . S
C2280 C2264 1.368 . S
C2280 C2276 1.368 . S
C2280 C2279 1.523 . S
H2281 C2256 0.950 . S
H2282 C2258 0.950 . S
H2283 C2259 0.949 . S
H2284 C2261 0.950 . S
H2285 C2263 0.950 . S
C2286 C2287 1.349 . S
C2286 C2288 1.327 . S
C2286 H2311 0.950 . S
C2287 C2286 1.349 . S
C2287 C2303 1.349 . S
C2288 C2286 1.327 . S
C2288 C2307 1.429 . S
C2288 H2312 0.950 . S
C2289 C2306 1.574 . S
C2289 C2308 1.368 . S
C2289 H2313 0.949 . S
H2290 C2294 0.949 1_655 S
C2291 C2292 1.349 . S
C2291 C2293 1.327 1_655 S
C2291 H2314 0.950 1_655 S
C2292 C2291 1.349 . S
C2292 C2304 1.349 . S
C2293 C2291 1.327 1_455 S
C2293 C2309 1.429 . S
C2293 H2315 0.950 . S
C2294 H2290 0.949 1_455 S
C2294 C2302 1.574 . S
C2294 C2310 1.368 . S
H2295 C2303 0.950 . S
H2296 C2301 0.950 . S
H2297 C2302 0.949 . S
H2298 C2304 0.950 . S
H2299 C2305 0.950 . S
H2300 C2306 0.949 . S
C2301 H2296 0.950 . S
C2301 C2303 1.327 . S
C2301 C2307 1.429 . S
C2302 C2294 1.574 . S
C2302 H2297 0.949 . S
C2302 C2308 1.368 . S
C2303 C2287 1.349 . S
C2303 H2295 0.950 . S
C2303 C2301 1.327 . S
C2304 C2292 1.349 . S
C2304 H2298 0.950 . S
C2304 C2305 1.327 . S
C2305 H2299 0.950 . S
C2305 C2304 1.327 . S
C2305 C2309 1.429 1_655 S
C2306 C2289 1.574 . S
C2306 H2300 0.949 . S
C2306 C2310 1.368 . S
C2307 C2288 1.429 . S
C2307 C2301 1.429 . S
C2307 C2308 1.523 . S
C2308 C2289 1.368 . S
C2308 C2302 1.368 . S
C2308 C2307 1.523 . S
C2309 C2293 1.429 . S
C2309 C2305 1.429 1_455 S
C2309 C2310 1.523 . S
C2310 C2294 1.368 . S
C2310 C2306 1.368 . S
C2310 C2309 1.523 . S
H2311 C2286 0.950 . S
H2312 C2288 0.950 . S
H2313 C2289 0.949 . S
H2314 C2291 0.950 1_455 S
H2315 C2293 0.950 . S
C2316 C2317 1.349 . S
C2316 C2318 1.327 . S
C2316 H2341 0.950 . S
C2317 C2316 1.349 . S
C2317 C2333 1.349 . S
C2318 C2316 1.327 . S
C2318 C2337 1.429 . S
C2318 H2342 0.950 . S
C2319 C2336 1.574 . S
C2319 C2338 1.368 . S
C2319 H2343 0.949 . S
H2320 C2324 0.949 . S
C2321 C2322 1.349 . S
C2321 C2323 1.327 . S
C2321 H2344 0.950 . S
C2322 C2321 1.349 . S
C2322 C2334 1.349 . S
C2323 C2321 1.327 . S
C2323 C2339 1.429 . S
C2323 H2345 0.950 . S
C2324 H2320 0.949 . S
C2324 C2332 1.574 . S
C2324 C2340 1.368 . S
H2325 C2333 0.950 . S
H2326 C2331 0.950 . S
H2327 C2332 0.949 . S
H2328 C2334 0.950 . S
H2329 C2335 0.950 . S
H2330 C2336 0.949 . S
C2331 H2326 0.950 . S
C2331 C2333 1.327 . S
C2331 C2337 1.429 . S
C2332 C2324 1.574 . S
C2332 H2327 0.949 . S
C2332 C2338 1.368 . S
C2333 C2317 1.349 . S
C2333 H2325 0.950 . S
C2333 C2331 1.327 . S
C2334 C2322 1.349 . S
C2334 H2328 0.950 . S
C2334 C2335 1.327 . S
C2335 H2329 0.950 . S
C2335 C2334 1.327 . S
C2335 C2339 1.429 . S
C2336 C2319 1.574 . S
C2336 H2330 0.949 . S
C2336 C2340 1.368 . S
C2337 C2318 1.429 . S
C2337 C2331 1.429 . S
C2337 C2338 1.523 . S
C2338 C2319 1.368 . S
C2338 C2332 1.368 . S
C2338 C2337 1.523 . S
C2339 C2323 1.429 . S
C2339 C2335 1.429 . S
C2339 C2340 1.523 . S
C2340 C2324 1.368 . S
C2340 C2336 1.368 . S
C2340 C2339 1.523 . S
H2341 C2316 0.950 . S
H2342 C2318 0.950 . S
H2343 C2319 0.949 . S
H2344 C2321 0.950 . S
H2345 C2323 0.950 . S
C2346 C2347 1.349 . S
C2346 C2348 1.327 . S
C2346 H2371 0.950 . S
C2347 C2346 1.349 . S
C2347 C2363 1.349 . S
C2348 C2346 1.327 . S
C2348 C2367 1.429 . S
C2348 H2372 0.950 . S
C2349 C2366 1.574 . S
C2349 C2368 1.368 . S
C2349 H2373 0.949 . S
H2350 C2354 0.949 1_545 S
C2351 C2352 1.349 . S
C2351 C2353 1.327 1_545 S
C2351 H2374 0.950 1_545 S
C2352 C2351 1.349 . S
C2352 C2364 1.349 . S
C2353 C2351 1.327 1_565 S
C2353 C2369 1.429 . S
C2353 H2375 0.950 . S
C2354 H2350 0.949 1_565 S
C2354 C2362 1.574 . S
C2354 C2370 1.368 . S
H2355 C2363 0.950 . S
H2356 C2361 0.950 . S
H2357 C2362 0.949 . S
H2358 C2364 0.950 . S
H2359 C2365 0.950 . S
H2360 C2366 0.949 . S
C2361 H2356 0.950 . S
C2361 C2363 1.327 . S
C2361 C2367 1.429 . S
C2362 C2354 1.574 . S
C2362 H2357 0.949 . S
C2362 C2368 1.368 . S
C2363 C2347 1.349 . S
C2363 H2355 0.950 . S
C2363 C2361 1.327 . S
C2364 C2352 1.349 . S
C2364 H2358 0.950 . S
C2364 C2365 1.327 . S
C2365 H2359 0.950 . S
C2365 C2364 1.327 . S
C2365 C2369 1.429 1_545 S
C2366 C2349 1.574 . S
C2366 H2360 0.949 . S
C2366 C2370 1.368 . S
C2367 C2348 1.429 . S
C2367 C2361 1.429 . S
C2367 C2368 1.523 . S
C2368 C2349 1.368 . S
C2368 C2362 1.368 . S
C2368 C2367 1.523 . S
C2369 C2353 1.429 . S
C2369 C2365 1.429 1_565 S
C2369 C2370 1.523 . S
C2370 C2354 1.368 . S
C2370 C2366 1.368 . S
C2370 C2369 1.523 . S
H2371 C2346 0.950 . S
H2372 C2348 0.950 . S
H2373 C2349 0.949 . S
H2374 C2351 0.950 1_565 S
H2375 C2353 0.950 . S
C2376 C2377 1.349 . S
C2376 C2378 1.327 . S
C2376 H2401 0.950 . S
C2377 C2376 1.349 . S
C2377 C2393 1.349 . S
C2378 C2376 1.327 . S
C2378 C2397 1.429 . S
C2378 H2402 0.950 . S
C2379 C2396 1.574 . S
C2379 C2398 1.368 . S
C2379 H2403 0.949 . S
H2380 C2384 0.949 . S
C2381 C2382 1.349 . S
C2381 C2383 1.327 . S
C2381 H2404 0.950 . S
C2382 C2381 1.349 . S
C2382 C2394 1.349 . S
C2383 C2381 1.327 . S
C2383 C2399 1.429 1_545 S
C2383 H2405 0.950 . S
C2384 H2380 0.949 . S
C2384 C2392 1.574 . S
C2384 C2400 1.368 . S
H2385 C2393 0.950 . S
H2386 C2391 0.950 . S
H2387 C2392 0.949 . S
H2388 C2394 0.950 . S
H2389 C2395 0.950 . S
H2390 C2396 0.949 1_545 S
C2391 H2386 0.950 . S
C2391 C2393 1.327 . S
C2391 C2397 1.429 . S
C2392 C2384 1.574 . S
C2392 H2387 0.949 . S
C2392 C2398 1.368 . S
C2393 C2377 1.349 . S
C2393 H2385 0.950 . S
C2393 C2391 1.327 . S
C2394 C2382 1.349 . S
C2394 H2388 0.950 . S
C2394 C2395 1.327 1_545 S
C2395 H2389 0.950 . S
C2395 C2394 1.327 1_565 S
C2395 C2399 1.429 . S
C2396 C2379 1.574 . S
C2396 H2390 0.949 1_565 S
C2396 C2400 1.368 . S
C2397 C2378 1.429 . S
C2397 C2391 1.429 . S
C2397 C2398 1.523 . S
C2398 C2379 1.368 . S
C2398 C2392 1.368 . S
C2398 C2397 1.523 . S
C2399 C2383 1.429 1_565 S
C2399 C2395 1.429 . S
C2399 C2400 1.523 . S
C2400 C2384 1.368 . S
C2400 C2396 1.368 . S
C2400 C2399 1.523 . S
H2401 C2376 0.950 . S
H2402 C2378 0.950 . S
H2403 C2379 0.949 . S
H2404 C2381 0.950 . S
H2405 C2383 0.950 . S
C2406 C2407 1.349 . S
C2406 C2408 1.327 1_655 S
C2406 H2431 0.950 1_655 S
C2407 C2406 1.349 . S
C2407 C2423 1.349 . S
C2408 C2406 1.327 1_455 S
C2408 C2427 1.429 . S
C2408 H2432 0.950 . S
C2409 C2426 1.574 . S
C2409 C2428 1.368 . S
C2409 H2433 0.949 1_455 S
H2410 C2414 0.949 . S
C2411 C2412 1.349 . S
C2411 C2413 1.327 . S
C2411 H2434 0.950 . S
C2412 C2411 1.349 . S
C2412 C2424 1.349 . S
C2413 C2411 1.327 . S
C2413 C2429 1.429 . S
C2413 H2435 0.950 . S
C2414 H2410 0.949 . S
C2414 C2422 1.574 . S
C2414 C2430 1.368 . S
H2415 C2423 0.950 . S
H2416 C2421 0.950 . S
H2417 C2422 0.949 . S
H2418 C2424 0.950 . S
H2419 C2425 0.950 . S
H2420 C2426 0.949 . S
C2421 H2416 0.950 . S
C2421 C2423 1.327 . S
C2421 C2427 1.429 1_655 S
C2422 C2414 1.574 . S
C2422 H2417 0.949 . S
C2422 C2428 1.368 . S
C2423 C2407 1.349 . S
C2423 H2415 0.950 . S
C2423 C2421 1.327 . S
C2424 C2412 1.349 . S
C2424 H2418 0.950 . S
C2424 C2425 1.327 . S
C2425 H2419 0.950 . S
C2425 C2424 1.327 . S
C2425 C2429 1.429 . S
C2426 C2409 1.574 . S
C2426 H2420 0.949 . S
C2426 C2430 1.368 . S
C2427 C2408 1.429 . S
C2427 C2421 1.429 1_455 S
C2427 C2428 1.523 . S
C2428 C2409 1.368 . S
C2428 C2422 1.368 . S
C2428 C2427 1.523 . S
C2429 C2413 1.429 . S
C2429 C2425 1.429 . S
C2429 C2430 1.523 . S
C2430 C2414 1.368 . S
C2430 C2426 1.368 . S
C2430 C2429 1.523 . S
H2431 C2406 0.950 1_455 S
H2432 C2408 0.950 . S
H2433 C2409 0.949 1_655 S
H2434 C2411 0.950 . S
H2435 C2413 0.950 . S
C2436 C2437 1.349 . S
C2436 C2438 1.327 . S
C2436 H2461 0.950 . S
C2437 C2436 1.349 . S
C2437 C2453 1.349 . S
C2438 C2436 1.327 . S
C2438 C2457 1.429 . S
C2438 H2462 0.950 . S
C2439 C2456 1.574 . S
C2439 C2458 1.368 . S
C2439 H2463 0.949 . S
H2440 C2444 0.949 . S
C2441 C2442 1.349 . S
C2441 C2443 1.327 . S
C2441 H2464 0.950 . S
C2442 C2441 1.349 . S
C2442 C2454 1.349 . S
C2443 C2441 1.327 . S
C2443 C2459 1.429 . S
C2443 H2465 0.950 . S
C2444 H2440 0.949 . S
C2444 C2452 1.574 . S
C2444 C2460 1.368 . S
H2445 C2453 0.950 . S
H2446 C2451 0.950 . S
H2447 C2452 0.949 . S
H2448 C2454 0.950 . S
H2449 C2455 0.950 . S
H2450 C2456 0.949 . S
C2451 H2446 0.950 . S
C2451 C2453 1.327 . S
C2451 C2457 1.429 . S
C2452 C2444 1.574 . S
C2452 H2447 0.949 . S
C2452 C2458 1.368 . S
C2453 C2437 1.349 . S
C2453 H2445 0.950 . S
C2453 C2451 1.327 . S
C2454 C2442 1.349 . S
C2454 H2448 0.950 . S
C2454 C2455 1.327 . S
C2455 H2449 0.950 . S
C2455 C2454 1.327 . S
C2455 C2459 1.429 . S
C2456 C2439 1.574 . S
C2456 H2450 0.949 . S
C2456 C2460 1.368 . S
C2457 C2438 1.429 . S
C2457 C2451 1.429 . S
C2457 C2458 1.523 . S
C2458 C2439 1.368 . S
C2458 C2452 1.368 . S
C2458 C2457 1.523 . S
C2459 C2443 1.429 . S
C2459 C2455 1.429 . S
C2459 C2460 1.523 . S
C2460 C2444 1.368 . S
C2460 C2456 1.368 . S
C2460 C2459 1.523 . S
H2461 C2436 0.950 . S
H2462 C2438 0.950 . S
H2463 C2439 0.949 . S
H2464 C2441 0.950 . S
H2465 C2443 0.950 . S
C2466 C2467 1.349 1_556 S
C2466 C2468 1.327 . S
C2466 H2491 0.950 . S
C2467 C2466 1.349 1_554 S
C2467 C2483 1.349 . S
C2468 C2466 1.327 . S
C2468 C2487 1.429 1_556 S
C2468 H2492 0.950 . S
C2469 C2486 1.574 . S
C2469 C2488 1.364 1_545 S
C2469 H2493 0.949 . S
H2470 C2474 0.949 . S
C2471 C2472 1.349 . S
C2471 C2473 1.327 . S
C2471 H2494 0.950 . S
C2472 C2471 1.349 . S
C2472 C2484 1.349 1_554 S
C2473 C2471 1.327 . S
C2473 C2489 1.429 . S
C2473 H2495 0.950 . S
C2474 H2470 0.949 . S
C2474 C2482 1.574 . S
C2474 C2490 1.368 1_556 S
H2475 C2483 0.950 . S
H2476 C2481 0.950 . S
H2477 C2482 0.949 1_565 S
H2478 C2484 0.950 . S
H2479 C2485 0.950 . S
H2480 C2486 0.949 . S
C2481 H2476 0.950 . S
C2481 C2483 1.327 . S
C2481 C2487 1.429 . S
C2482 C2474 1.574 . S
C2482 H2477 0.949 1_545 S
C2482 C2488 1.351 1_546 S
C2483 C2467 1.349 . S
C2483 H2475 0.950 . S
C2483 C2481 1.327 . S
C2484 C2472 1.349 1_556 S
C2484 H2478 0.950 . S
C2484 C2485 1.327 . S
C2485 H2479 0.950 . S
C2485 C2484 1.327 . S
C2485 C2489 1.429 1_556 S
C2486 C2469 1.574 . S
C2486 H2480 0.949 . S
C2486 C2490 1.368 . S
C2487 C2468 1.429 1_554 S
C2487 C2481 1.429 . S
C2487 C2488 1.551 . S
C2488 C2469 1.364 1_565 S
C2488 C2482 1.351 1_564 S
C2488 C2487 1.551 . S
C2489 C2473 1.429 . S
C2489 C2485 1.429 1_554 S
C2489 C2490 1.523 . S
C2490 C2474 1.368 1_554 S
C2490 C2486 1.368 . S
C2490 C2489 1.523 . S
H2491 C2466 0.950 . S
H2492 C2468 0.950 . S
H2493 C2469 0.949 . S
H2494 C2471 0.950 . S
H2495 C2473 0.950 . S
C2496 C2497 1.349 . S
C2496 C2498 1.327 . S
C2496 H2521 0.950 . S
C2497 C2496 1.349 . S
C2497 C2513 1.349 1_554 S
C2498 C2496 1.327 . S
C2498 C2517 1.429 . S
C2498 H2522 0.950 . S
C2499 C2516 1.574 . S
C2499 C2518 1.369 1_656 S
C2499 H2523 0.949 1_655 S
H2500 C2504 0.949 . S
C2501 C2502 1.349 1_556 S
C2501 C2503 1.327 . S
C2501 H2524 0.950 . S
C2502 C2501 1.349 1_554 S
C2502 C2514 1.349 . S
C2503 C2501 1.327 . S
C2503 C2519 1.429 1_556 S
C2503 H2525 0.950 . S
C2504 H2500 0.949 . S
C2504 C2512 1.574 . S
C2504 C2520 1.368 . S
H2505 C2513 0.950 . S
H2506 C2511 0.950 . S
H2507 C2512 0.949 . S
H2508 C2514 0.950 . S
H2509 C2515 0.950 . S
H2510 C2516 0.949 . S
C2511 H2506 0.950 . S
C2511 C2513 1.327 . S
C2511 C2517 1.429 1_556 S
C2512 C2504 1.574 . S
C2512 H2507 0.949 . S
C2512 C2518 1.349 1_655 S
C2513 C2497 1.349 1_556 S
C2513 H2505 0.950 . S
C2513 C2511 1.327 . S
C2514 C2502 1.349 . S
C2514 H2508 0.950 . S
C2514 C2515 1.327 . S
C2515 H2509 0.950 . S
C2515 C2514 1.327 . S
C2515 C2519 1.429 . S
C2516 C2499 1.574 . S
C2516 H2510 0.949 . S
C2516 C2520 1.368 1_556 S
C2517 C2498 1.429 . S
C2517 C2511 1.429 1_554 S
C2517 C2518 1.548 . S
C2518 C2499 1.369 1_454 S
C2518 C2512 1.349 1_455 S
C2518 C2517 1.548 . S
C2519 C2503 1.429 1_554 S
C2519 C2515 1.429 . S
C2519 C2520 1.523 . S
C2520 C2504 1.368 . S
C2520 C2516 1.368 1_554 S
C2520 C2519 1.523 . S
H2521 C2496 0.950 . S
H2522 C2498 0.950 . S
H2523 C2499 0.949 1_455 S
H2524 C2501 0.950 . S
H2525 C2503 0.950 . S
C2526 C2527 1.349 . S
C2526 C2528 1.327 . S
C2526 H2551 0.950 . S
C2527 C2526 1.349 . S
C2527 C2543 1.349 1_554 S
C2528 C2526 1.327 . S
C2528 C2547 1.429 . S
C2528 H2552 0.950 . S
C2529 C2546 1.574 . S
C2529 C2548 1.368 1_556 S
C2529 H2553 0.949 . S
H2530 C2534 0.949 . S
C2531 C2532 1.349 1_556 S
C2531 C2533 1.327 . S
C2531 H2554 0.950 . S
C2532 C2531 1.349 1_554 S
C2532 C2544 1.349 . S
C2533 C2531 1.327 . S
C2533 C2549 1.429 1_556 S
C2533 H2555 0.950 . S
C2534 H2530 0.949 . S
C2534 C2542 1.574 . S
C2534 C2550 1.368 . S
H2535 C2543 0.950 . S
H2536 C2541 0.950 . S
H2537 C2542 0.949 . S
H2538 C2544 0.950 . S
H2539 C2545 0.950 . S
H2540 C2546 0.949 . S
C2541 H2536 0.950 . S
C2541 C2543 1.327 . S
C2541 C2547 1.429 1_556 S
C2542 C2534 1.574 . S
C2542 H2537 0.949 . S
C2542 C2548 1.368 . S
C2543 C2527 1.349 1_556 S
C2543 H2535 0.950 . S
C2543 C2541 1.327 . S
C2544 C2532 1.349 . S
C2544 H2538 0.950 . S
C2544 C2545 1.327 . S
C2545 H2539 0.950 . S
C2545 C2544 1.327 . S
C2545 C2549 1.429 . S
C2546 C2529 1.574 . S
C2546 H2540 0.949 . S
C2546 C2550 1.368 1_556 S
C2547 C2528 1.429 . S
C2547 C2541 1.429 1_554 S
C2547 C2548 1.523 . S
C2548 C2529 1.368 1_554 S
C2548 C2542 1.368 . S
C2548 C2547 1.523 . S
C2549 C2533 1.429 1_554 S
C2549 C2545 1.429 . S
C2549 C2550 1.523 . S
C2550 C2534 1.368 . S
C2550 C2546 1.368 1_554 S
C2550 C2549 1.523 . S
H2551 C2526 0.950 . S
H2552 C2528 0.950 . S
H2553 C2529 0.949 . S
H2554 C2531 0.950 . S
H2555 C2533 0.950 . S
C2556 C2557 1.349 . S
C2556 C2558 1.327 . S
C2556 H2581 0.950 . S
C2557 C2556 1.349 . S
C2557 C2573 1.349 . S
C2558 C2556 1.327 . S
C2558 C2577 1.429 . S
C2558 H2582 0.950 . S
C2559 C2576 1.574 . S
C2559 C2578 1.368 . S
C2559 H2583 0.949 . S
H2560 C2564 0.949 1_565 S
C2561 C2562 1.349 . S
C2561 C2563 1.327 1_565 S
C2561 H2584 0.950 1_565 S
C2562 C2561 1.349 . S
C2562 C2574 1.349 . S
C2563 C2561 1.327 1_545 S
C2563 C2579 1.429 . S
C2563 H2585 0.950 . S
C2564 H2560 0.949 1_545 S
C2564 C2572 1.574 . S
C2564 C2580 1.368 . S
H2565 C2573 0.950 . S
H2566 C2571 0.950 . S
H2567 C2572 0.949 . S
H2568 C2574 0.950 . S
H2569 C2575 0.950 . S
H2570 C2576 0.949 . S
C2571 H2566 0.950 . S
C2571 C2573 1.327 . S
C2571 C2577 1.429 . S
C2572 C2564 1.574 . S
C2572 H2567 0.949 . S
C2572 C2578 1.368 . S
C2573 C2557 1.349 . S
C2573 H2565 0.950 . S
C2573 C2571 1.327 . S
C2574 C2562 1.349 . S
C2574 H2568 0.950 . S
C2574 C2575 1.327 . S
C2575 H2569 0.950 . S
C2575 C2574 1.327 . S
C2575 C2579 1.429 1_565 S
C2576 C2559 1.574 . S
C2576 H2570 0.949 . S
C2576 C2580 1.368 . S
C2577 C2558 1.429 . S
C2577 C2571 1.429 . S
C2577 C2578 1.523 . S
C2578 C2559 1.368 . S
C2578 C2572 1.368 . S
C2578 C2577 1.523 . S
C2579 C2563 1.429 . S
C2579 C2575 1.429 1_545 S
C2579 C2580 1.523 . S
C2580 C2564 1.368 . S
C2580 C2576 1.368 . S
C2580 C2579 1.523 . S
H2581 C2556 0.950 . S
H2582 C2558 0.950 . S
H2583 C2559 0.949 . S
H2584 C2561 0.950 1_545 S
H2585 C2563 0.950 . S
C2586 C2587 1.349 . S
C2586 C2588 1.327 . S
C2586 H2611 0.950 . S
C2587 C2586 1.349 . S
C2587 C2603 1.349 . S
C2588 C2586 1.327 . S
C2588 C2607 1.429 . S
C2588 H2612 0.950 . S
C2589 C2606 1.557 1_655 S
C2589 C2608 1.368 . S
C2589 H2613 0.949 . S
H2590 C2594 0.949 . S
C2591 C2592 1.349 . S
C2591 C2593 1.327 . S
C2591 H2614 0.950 . S
C2592 C2591 1.349 . S
C2592 C2604 1.349 1_455 S
C2593 C2591 1.327 . S
C2593 C2609 1.429 1_455 S
C2593 H2615 0.950 . S
C2594 H2590 0.949 . S
C2594 C2602 1.574 . S
C2594 C2610 1.368 . S
H2595 C2603 0.950 . S
H2596 C2601 0.950 . S
H2597 C2602 0.949 . S
H2598 C2604 0.950 . S
H2599 C2605 0.950 . S
H2600 C2606 0.966 . S
C2601 H2596 0.950 . S
C2601 C2603 1.327 . S
C2601 C2607 1.429 . S
C2602 C2594 1.574 . S
C2602 H2597 0.949 . S
C2602 C2608 1.368 . S
C2603 C2587 1.349 . S
C2603 H2595 0.950 . S
C2603 C2601 1.327 . S
C2604 C2592 1.349 1_655 S
C2604 H2598 0.950 . S
C2604 C2605 1.327 . S
C2605 H2599 0.950 . S
C2605 C2604 1.327 . S
C2605 C2609 1.429 . S
C2606 C2589 1.557 1_455 S
C2606 H2600 0.966 . S
C2606 C2610 1.366 1_455 S
C2607 C2588 1.429 . S
C2607 C2601 1.429 . S
C2607 C2608 1.523 . S
C2608 C2589 1.368 . S
C2608 C2602 1.368 . S
C2608 C2607 1.523 . S
C2609 C2593 1.429 1_655 S
C2609 C2605 1.429 . S
C2609 C2610 1.523 . S
C2610 C2594 1.368 . S
C2610 C2606 1.366 1_655 S
C2610 C2609 1.523 . S
H2611 C2586 0.950 . S
H2612 C2588 0.950 . S
H2613 C2589 0.949 . S
H2614 C2591 0.950 . S
H2615 C2593 0.950 . S
C2616 C2617 1.349 . S
C2616 C2618 1.327 . S
C2616 H2641 0.950 . S
C2617 C2616 1.349 . S
C2617 C2633 1.349 . S
C2618 C2616 1.327 . S
C2618 C2637 1.429 . S
C2618 H2642 0.950 . S
C2619 C2636 1.574 . S
C2619 C2638 1.368 . S
C2619 H2643 0.949 . S
H2620 C2624 0.949 . S
C2621 C2622 1.349 . S
C2621 C2623 1.327 . S
C2621 H2644 0.950 . S
C2622 C2621 1.349 . S
C2622 C2634 1.349 . S
C2623 C2621 1.327 . S
C2623 C2639 1.429 . S
C2623 H2645 0.950 . S
C2624 H2620 0.949 . S
C2624 C2632 1.574 . S
C2624 C2640 1.368 . S
H2625 C2633 0.950 . S
H2626 C2631 0.950 . S
H2627 C2632 0.949 . S
H2628 C2634 0.950 . S
H2629 C2635 0.950 . S
H2630 C2636 0.949 . S
C2631 H2626 0.950 . S
C2631 C2633 1.327 . S
C2631 C2637 1.429 . S
C2632 C2624 1.574 . S
C2632 H2627 0.949 . S
C2632 C2638 1.368 . S
C2633 C2617 1.349 . S
C2633 H2625 0.950 . S
C2633 C2631 1.327 . S
C2634 C2622 1.349 . S
C2634 H2628 0.950 . S
C2634 C2635 1.327 . S
C2635 H2629 0.950 . S
C2635 C2634 1.327 . S
C2635 C2639 1.429 . S
C2636 C2619 1.574 . S
C2636 H2630 0.949 . S
C2636 C2640 1.368 . S
C2637 C2618 1.429 . S
C2637 C2631 1.429 . S
C2637 C2638 1.523 . S
C2638 C2619 1.368 . S
C2638 C2632 1.368 . S
C2638 C2637 1.523 . S
C2639 C2623 1.429 . S
C2639 C2635 1.429 . S
C2639 C2640 1.523 . S
C2640 C2624 1.368 . S
C2640 C2636 1.368 . S
C2640 C2639 1.523 . S
H2641 C2616 0.950 . S
H2642 C2618 0.950 . S
H2643 C2619 0.949 . S
H2644 C2621 0.950 . S
H2645 C2623 0.950 . S
C2646 C2647 1.349 1_554 S
C2646 C2648 1.327 . S
C2646 H2671 0.950 . S
C2647 C2646 1.349 1_556 S
C2647 C2663 1.349 . S
C2648 C2646 1.327 . S
C2648 C2667 1.429 1_554 S
C2648 H2672 0.950 . S
C2649 C2666 1.574 . S
C2649 C2668 1.368 . S
C2649 H2673 0.949 . S
H2650 C2654 0.949 1_545 S
C2651 C2652 1.349 . S
C2651 C2653 1.327 . S
C2651 H2674 0.950 . S
C2652 C2651 1.349 . S
C2652 C2664 1.349 1_556 S
C2653 C2651 1.327 . S
C2653 C2669 1.429 . S
C2653 H2675 0.950 . S
C2654 H2650 0.949 1_565 S
C2654 C2662 1.574 . S
C2654 C2670 1.351 1_564 S
H2655 C2663 0.950 . S
H2656 C2661 0.950 . S
H2657 C2662 0.949 . S
H2658 C2664 0.950 . S
H2659 C2665 0.950 . S
H2660 C2666 0.949 . S
C2661 H2656 0.950 . S
C2661 C2663 1.327 . S
C2661 C2667 1.429 . S
C2662 C2654 1.574 . S
C2662 H2657 0.949 . S
C2662 C2668 1.368 1_554 S
C2663 C2647 1.349 . S
C2663 H2655 0.950 . S
C2663 C2661 1.327 . S
C2664 C2652 1.349 1_554 S
C2664 H2658 0.950 . S
C2664 C2665 1.327 . S
C2665 H2659 0.950 . S
C2665 C2664 1.327 . S
C2665 C2669 1.429 1_554 S
C2666 C2649 1.574 . S
C2666 H2660 0.949 . S
C2666 C2670 1.364 1_565 S
C2667 C2648 1.429 1_556 S
C2667 C2661 1.429 . S
C2667 C2668 1.523 . S
C2668 C2649 1.368 . S
C2668 C2662 1.368 1_556 S
C2668 C2667 1.523 . S
C2669 C2653 1.429 . S
C2669 C2665 1.429 1_556 S
C2669 C2670 1.551 . S
C2670 C2654 1.351 1_546 S
C2670 C2666 1.364 1_545 S
C2670 C2669 1.551 . S
H2671 C2646 0.950 . S
H2672 C2648 0.950 . S
H2673 C2649 0.949 . S
H2674 C2651 0.950 . S
H2675 C2653 0.950 . S
C2676 C2677 1.349 1_554 S
C2676 C2678 1.327 . S
C2676 H2701 0.950 . S
C2677 C2676 1.349 1_556 S
C2677 C2693 1.349 . S
C2678 C2676 1.327 . S
C2678 C2697 1.429 1_554 S
C2678 H2702 0.950 . S
C2679 C2696 1.574 . S
C2679 C2698 1.369 1_455 S
C2679 H2703 0.949 1_455 S
H2680 C2684 0.949 . S
C2681 C2682 1.349 . S
C2681 C2683 1.327 . S
C2681 H2704 0.950 . S
C2682 C2681 1.349 . S
C2682 C2694 1.349 1_556 S
C2683 C2681 1.327 . S
C2683 C2699 1.429 . S
C2683 H2705 0.950 . S
C2684 H2680 0.949 . S
C2684 C2692 1.574 . S
C2684 C2700 1.368 1_554 S
H2685 C2693 0.950 . S
H2686 C2691 0.950 . S
H2687 C2692 0.949 . S
H2688 C2694 0.950 . S
H2689 C2695 0.950 . S
H2690 C2696 0.949 . S
C2691 H2686 0.950 . S
C2691 C2693 1.327 . S
C2691 C2697 1.429 . S
C2692 C2684 1.574 . S
C2692 H2687 0.949 . S
C2692 C2698 1.350 1_454 S
C2693 C2677 1.349 . S
C2693 H2685 0.950 . S
C2693 C2691 1.327 . S
C2694 C2682 1.349 1_554 S
C2694 H2688 0.950 . S
C2694 C2695 1.327 . S
C2695 H2689 0.950 . S
C2695 C2694 1.327 . S
C2695 C2699 1.429 1_554 S
C2696 C2679 1.574 . S
C2696 H2690 0.949 . S
C2696 C2700 1.368 . S
C2697 C2678 1.429 1_556 S
C2697 C2691 1.429 . S
C2697 C2698 1.548 . S
C2698 C2679 1.369 1_655 S
C2698 C2692 1.350 1_656 S
C2698 C2697 1.548 . S
C2699 C2683 1.429 . S
C2699 C2695 1.429 1_556 S
C2699 C2700 1.523 . S
C2700 C2684 1.368 1_556 S
C2700 C2696 1.368 . S
C2700 C2699 1.523 . S
H2701 C2676 0.950 . S
H2702 C2678 0.950 . S
H2703 C2679 0.949 1_655 S
H2704 C2681 0.950 . S
H2705 C2683 0.950 . S
C2706 C2707 1.349 . S
C2706 C2708 1.327 . S
C2706 H2731 0.950 . S
C2707 C2706 1.349 . S
C2707 C2723 1.349 1_556 S
C2708 C2706 1.327 . S
C2708 C2727 1.429 . S
C2708 H2732 0.950 . S
C2709 C2726 1.574 . S
C2709 C2728 1.368 1_554 S
C2709 H2733 0.949 . S
H2710 C2714 0.949 . S
C2711 C2712 1.349 1_554 S
C2711 C2713 1.327 . S
C2711 H2734 0.950 . S
C2712 C2711 1.349 1_556 S
C2712 C2724 1.349 . S
C2713 C2711 1.327 . S
C2713 C2729 1.429 1_554 S
C2713 H2735 0.950 . S
C2714 H2710 0.949 . S
C2714 C2722 1.574 . S
C2714 C2730 1.368 . S
H2715 C2723 0.950 . S
H2716 C2721 0.950 . S
H2717 C2722 0.949 . S
H2718 C2724 0.950 . S
H2719 C2725 0.950 . S
H2720 C2726 0.949 . S
C2721 H2716 0.950 . S
C2721 C2723 1.327 . S
C2721 C2727 1.429 1_554 S
C2722 C2714 1.574 . S
C2722 H2717 0.949 . S
C2722 C2728 1.368 . S
C2723 C2707 1.349 1_554 S
C2723 H2715 0.950 . S
C2723 C2721 1.327 . S
C2724 C2712 1.349 . S
C2724 H2718 0.950 . S
C2724 C2725 1.327 . S
C2725 H2719 0.950 . S
C2725 C2724 1.327 . S
C2725 C2729 1.429 . S
C2726 C2709 1.574 . S
C2726 H2720 0.949 . S
C2726 C2730 1.368 1_554 S
C2727 C2708 1.429 . S
C2727 C2721 1.429 1_556 S
C2727 C2728 1.523 . S
C2728 C2709 1.368 1_556 S
C2728 C2722 1.368 . S
C2728 C2727 1.523 . S
C2729 C2713 1.429 1_556 S
C2729 C2725 1.429 . S
C2729 C2730 1.523 . S
C2730 C2714 1.368 . S
C2730 C2726 1.368 1_556 S
C2730 C2729 1.523 . S
H2731 C2706 0.950 . S
H2732 C2708 0.950 . S
H2733 C2709 0.949 . S
H2734 C2711 0.950 . S
H2735 C2713 0.950 . S
C2736 C2737 1.349 . S
C2736 C2738 1.327 . S
C2736 H2761 0.950 . S
C2737 C2736 1.349 . S
C2737 C2753 1.349 . S
C2738 C2736 1.327 . S
C2738 C2757 1.429 . S
C2738 H2762 0.950 . S
C2739 C2756 1.574 . S
C2739 C2758 1.368 . S
C2739 H2763 0.949 . S
H2740 C2744 0.949 1_655 S
C2741 C2742 1.349 . S
C2741 C2743 1.327 . S
C2741 H2764 0.950 . S
C2742 C2741 1.349 . S
C2742 C2754 1.349 . S
C2743 C2741 1.327 . S
C2743 C2759 1.429 . S
C2743 H2765 0.950 . S
C2744 H2740 0.949 1_455 S
C2744 C2752 1.574 . S
C2744 C2760 1.368 1_455 S
H2745 C2753 0.950 . S
H2746 C2751 0.950 . S
H2747 C2752 0.949 . S
H2748 C2754 0.950 . S
H2749 C2755 0.950 . S
H2750 C2756 0.949 . S
C2751 H2746 0.950 . S
C2751 C2753 1.327 . S
C2751 C2757 1.429 . S
C2752 C2744 1.574 . S
C2752 H2747 0.949 . S
C2752 C2758 1.368 . S
C2753 C2737 1.349 . S
C2753 H2745 0.950 . S
C2753 C2751 1.327 . S
C2754 C2742 1.349 . S
C2754 H2748 0.950 . S
C2754 C2755 1.327 . S
C2755 H2749 0.950 . S
C2755 C2754 1.327 . S
C2755 C2759 1.429 . S
C2756 C2739 1.574 . S
C2756 H2750 0.949 . S
C2756 C2760 1.368 1_455 S
C2757 C2738 1.429 . S
C2757 C2751 1.429 . S
C2757 C2758 1.523 . S
C2758 C2739 1.368 . S
C2758 C2752 1.368 . S
C2758 C2757 1.523 . S
C2759 C2743 1.429 . S
C2759 C2755 1.429 . S
C2759 C2760 1.523 . S
C2760 C2744 1.368 1_655 S
C2760 C2756 1.368 1_655 S
C2760 C2759 1.523 . S
H2761 C2736 0.950 . S
H2762 C2738 0.950 . S
H2763 C2739 0.949 . S
H2764 C2741 0.950 . S
H2765 C2743 0.950 . S
C2766 C2767 1.349 . S
C2766 C2768 1.327 . S
C2766 H2791 0.950 . S
C2767 C2766 1.349 . S
C2767 C2783 1.349 . S
C2768 C2766 1.327 . S
C2768 C2787 1.429 . S
C2768 H2792 0.950 . S
C2769 C2786 1.574 . S
C2769 C2788 1.368 . S
C2769 H2793 0.949 . S
H2770 C2774 0.949 . S
C2771 C2772 1.349 . S
C2771 C2773 1.327 . S
C2771 H2794 0.950 . S
C2772 C2771 1.349 . S
C2772 C2784 1.349 . S
C2773 C2771 1.327 . S
C2773 C2789 1.429 . S
C2773 H2795 0.950 . S
C2774 H2770 0.949 . S
C2774 C2782 1.574 . S
C2774 C2790 1.368 . S
H2775 C2783 0.950 . S
H2776 C2781 0.950 . S
H2777 C2782 0.949 . S
H2778 C2784 0.950 . S
H2779 C2785 0.950 . S
H2780 C2786 0.949 . S
C2781 H2776 0.950 . S
C2781 C2783 1.327 . S
C2781 C2787 1.429 . S
C2782 C2774 1.574 . S
C2782 H2777 0.949 . S
C2782 C2788 1.368 . S
C2783 C2767 1.349 . S
C2783 H2775 0.950 . S
C2783 C2781 1.327 . S
C2784 C2772 1.349 . S
C2784 H2778 0.950 . S
C2784 C2785 1.327 . S
C2785 H2779 0.950 . S
C2785 C2784 1.327 . S
C2785 C2789 1.429 . S
C2786 C2769 1.574 . S
C2786 H2780 0.949 . S
C2786 C2790 1.368 . S
C2787 C2768 1.429 . S
C2787 C2781 1.429 . S
C2787 C2788 1.523 . S
C2788 C2769 1.368 . S
C2788 C2782 1.368 . S
C2788 C2787 1.523 . S
C2789 C2773 1.429 . S
C2789 C2785 1.429 . S
C2789 C2790 1.523 . S
C2790 C2774 1.368 . S
C2790 C2786 1.368 . S
C2790 C2789 1.523 . S
H2791 C2766 0.950 . S
H2792 C2768 0.950 . S
H2793 C2769 0.949 . S
H2794 C2771 0.950 . S
H2795 C2773 0.950 . S
C2796 C2797 1.349 . S
C2796 C2798 1.327 . S
C2796 H2821 0.950 . S
C2797 C2796 1.349 . S
C2797 C2813 1.349 . S
C2798 C2796 1.327 . S
C2798 C2817 1.429 . S
C2798 H2822 0.950 . S
C2799 C2816 1.574 . S
C2799 C2818 1.368 . S
C2799 H2823 0.949 . S
H2800 C2804 0.949 . S
C2801 C2802 1.349 . S
C2801 C2803 1.327 . S
C2801 H2824 0.950 . S
C2802 C2801 1.349 . S
C2802 C2814 1.349 . S
C2803 C2801 1.327 . S
C2803 C2819 1.429 . S
C2803 H2825 0.950 . S
C2804 H2800 0.949 . S
C2804 C2812 1.574 . S
C2804 C2820 1.368 1_565 S
H2805 C2813 0.950 . S
H2806 C2811 0.950 . S
H2807 C2812 0.949 . S
H2808 C2814 0.950 . S
H2809 C2815 0.950 . S
H2810 C2816 0.949 1_545 S
C2811 H2806 0.950 . S
C2811 C2813 1.327 . S
C2811 C2817 1.429 . S
C2812 C2804 1.574 . S
C2812 H2807 0.949 . S
C2812 C2818 1.368 . S
C2813 C2797 1.349 . S
C2813 H2805 0.950 . S
C2813 C2811 1.327 . S
C2814 C2802 1.349 . S
C2814 H2808 0.950 . S
C2814 C2815 1.327 . S
C2815 H2809 0.950 . S
C2815 C2814 1.327 . S
C2815 C2819 1.429 . S
C2816 C2799 1.574 . S
C2816 H2810 0.949 1_565 S
C2816 C2820 1.368 1_565 S
C2817 C2798 1.429 . S
C2817 C2811 1.429 . S
C2817 C2818 1.523 . S
C2818 C2799 1.368 . S
C2818 C2812 1.368 . S
C2818 C2817 1.523 . S
C2819 C2803 1.429 . S
C2819 C2815 1.429 . S
C2819 C2820 1.523 . S
C2820 C2804 1.368 1_545 S
C2820 C2816 1.368 1_545 S
C2820 C2819 1.523 . S
H2821 C2796 0.950 . S
H2822 C2798 0.950 . S
H2823 C2799 0.949 . S
H2824 C2801 0.950 . S
H2825 C2803 0.950 . S
C2826 C2827 1.349 . S
C2826 C2828 1.327 1_455 S
C2826 H2851 0.950 1_455 S
C2827 C2826 1.349 . S
C2827 C2843 1.349 . S
C2828 C2826 1.327 1_655 S
C2828 C2847 1.429 . S
C2828 H2852 0.950 . S
C2829 C2846 1.574 . S
C2829 C2848 1.368 . S
C2829 H2853 0.949 1_655 S
H2830 C2834 0.949 . S
C2831 C2832 1.349 . S
C2831 C2833 1.327 . S
C2831 H2854 0.950 . S
C2832 C2831 1.349 . S
C2832 C2844 1.349 . S
C2833 C2831 1.327 . S
C2833 C2849 1.429 . S
C2833 H2855 0.950 . S
C2834 H2830 0.949 . S
C2834 C2842 1.574 . S
C2834 C2850 1.368 . S
H2835 C2843 0.950 . S
H2836 C2841 0.950 . S
H2837 C2842 0.949 . S
H2838 C2844 0.950 . S
H2839 C2845 0.950 . S
H2840 C2846 0.949 . S
C2841 H2836 0.950 . S
C2841 C2843 1.327 . S
C2841 C2847 1.429 1_455 S
C2842 C2834 1.574 . S
C2842 H2837 0.949 . S
C2842 C2848 1.368 . S
C2843 C2827 1.349 . S
C2843 H2835 0.950 . S
C2843 C2841 1.327 . S
C2844 C2832 1.349 . S
C2844 H2838 0.950 . S
C2844 C2845 1.327 . S
C2845 H2839 0.950 . S
C2845 C2844 1.327 . S
C2845 C2849 1.429 . S
C2846 C2829 1.574 . S
C2846 H2840 0.949 . S
C2846 C2850 1.368 . S
C2847 C2828 1.429 . S
C2847 C2841 1.429 1_655 S
C2847 C2848 1.523 . S
C2848 C2829 1.368 . S
C2848 C2842 1.368 . S
C2848 C2847 1.523 . S
C2849 C2833 1.429 . S
C2849 C2845 1.429 . S
C2849 C2850 1.523 . S
C2850 C2834 1.368 . S
C2850 C2846 1.368 . S
C2850 C2849 1.523 . S
H2851 C2826 0.950 1_655 S
H2852 C2828 0.950 . S
H2853 C2829 0.949 1_455 S
H2854 C2831 0.950 . S
H2855 C2833 0.950 . S
C2856 C2857 1.349 . S
C2856 C2858 1.327 . S
C2856 H2881 0.950 . S
C2857 C2856 1.349 . S
C2857 C2873 1.349 . S
C2858 C2856 1.327 . S
C2858 C2877 1.429 . S
C2858 H2882 0.950 . S
C2859 C2876 1.574 . S
C2859 C2878 1.368 . S
C2859 H2883 0.949 . S
H2860 C2864 0.949 . S
C2861 C2862 1.349 . S
C2861 C2863 1.327 . S
C2861 H2884 0.950 . S
C2862 C2861 1.349 . S
C2862 C2874 1.349 . S
C2863 C2861 1.327 . S
C2863 C2879 1.429 . S
C2863 H2885 0.950 . S
C2864 H2860 0.949 . S
C2864 C2872 1.574 . S
C2864 C2880 1.368 . S
H2865 C2873 0.950 . S
H2866 C2871 0.950 . S
H2867 C2872 0.949 . S
H2868 C2874 0.950 . S
H2869 C2875 0.950 . S
H2870 C2876 0.949 . S
C2871 H2866 0.950 . S
C2871 C2873 1.327 . S
C2871 C2877 1.429 . S
C2872 C2864 1.574 . S
C2872 H2867 0.949 . S
C2872 C2878 1.368 . S
C2873 C2857 1.349 . S
C2873 H2865 0.950 . S
C2873 C2871 1.327 . S
C2874 C2862 1.349 . S
C2874 H2868 0.950 . S
C2874 C2875 1.327 . S
C2875 H2869 0.950 . S
C2875 C2874 1.327 . S
C2875 C2879 1.429 . S
C2876 C2859 1.574 . S
C2876 H2870 0.949 . S
C2876 C2880 1.368 . S
C2877 C2858 1.429 . S
C2877 C2871 1.429 . S
C2877 C2878 1.523 . S
C2878 C2859 1.368 . S
C2878 C2872 1.368 . S
C2878 C2877 1.523 . S
C2879 C2863 1.429 . S
C2879 C2875 1.429 . S
C2879 C2880 1.523 . S
C2880 C2864 1.368 . S
C2880 C2876 1.368 . S
C2880 C2879 1.523 . S
H2881 C2856 0.950 . S
H2882 C2858 0.950 . S
H2883 C2859 0.949 . S
H2884 C2861 0.950 . S
H2885 C2863 0.950 . S
C2886 C2887 1.349 . S
C2886 C2888 1.327 . S
C2886 H2911 0.950 . S
C2887 C2886 1.349 . S
C2887 C2903 1.349 . S
C2888 C2886 1.327 . S
C2888 C2907 1.429 . S
C2888 H2912 0.950 . S
C2889 C2906 1.574 . S
C2889 C2908 1.368 . S
C2889 H2913 0.949 . S
H2890 C2894 0.949 . S
C2891 C2892 1.349 . S
C2891 C2893 1.327 . S
C2891 H2914 0.950 . S
C2892 C2891 1.349 . S
C2892 C2904 1.349 . S
C2893 C2891 1.327 . S
C2893 C2909 1.429 1_565 S
C2893 H2915 0.950 . S
C2894 H2890 0.949 . S
C2894 C2902 1.574 . S
C2894 C2910 1.368 . S
H2895 C2903 0.950 . S
H2896 C2901 0.950 . S
H2897 C2902 0.949 . S
H2898 C2904 0.948 . S
H2899 C2905 0.950 . S
H2900 C2906 0.949 1_565 S
C2901 H2896 0.950 . S
C2901 C2903 1.327 . S
C2901 C2907 1.429 . S
C2902 C2894 1.574 . S
C2902 H2897 0.949 . S
C2902 C2908 1.368 . S
C2903 C2887 1.349 . S
C2903 H2895 0.950 . S
C2903 C2901 1.327 . S
C2904 C2892 1.349 . S
C2904 H2898 0.948 . S
C2904 C2905 1.327 1_565 S
C2905 H2899 0.950 . S
C2905 C2904 1.327 1_545 S
C2905 C2909 1.429 . S
C2906 C2889 1.574 . S
C2906 H2900 0.949 1_545 S
C2906 C2910 1.368 . S
C2907 C2888 1.429 . S
C2907 C2901 1.429 . S
C2907 C2908 1.523 . S
C2908 C2889 1.368 . S
C2908 C2902 1.368 . S
C2908 C2907 1.523 . S
C2909 C2893 1.429 1_545 S
C2909 C2905 1.429 . S
C2909 C2910 1.523 . S
C2910 C2894 1.368 . S
C2910 C2906 1.368 . S
C2910 C2909 1.523 . S
H2911 C2886 0.950 . S
H2912 C2888 0.950 . S
H2913 C2889 0.949 . S
H2914 C2891 0.950 . S
H2915 C2893 0.950 . S
C2916 C2917 1.349 . S
C2916 C2918 1.327 . S
C2916 H2941 0.950 . S
C2917 C2916 1.349 . S
C2917 C2933 1.349 . S
C2918 C2916 1.327 . S
C2918 C2937 1.429 . S
C2918 H2942 0.950 . S
C2919 C2936 1.574 . S
C2919 C2938 1.368 . S
C2919 H2943 0.949 . S
H2920 C2924 0.949 . S
C2921 C2922 1.349 . S
C2921 C2923 1.327 . S
C2921 H2944 0.950 . S
C2922 C2921 1.349 . S
C2922 C2934 1.349 . S
C2923 C2921 1.327 . S
C2923 C2939 1.429 . S
C2923 H2945 0.950 . S
C2924 H2920 0.949 . S
C2924 C2932 1.574 . S
C2924 C2940 1.368 . S
H2925 C2933 0.950 . S
H2926 C2931 0.950 . S
H2927 C2932 0.949 . S
H2928 C2934 0.950 . S
H2929 C2935 0.950 . S
H2930 C2936 0.949 . S
C2931 H2926 0.950 . S
C2931 C2933 1.327 . S
C2931 C2937 1.429 . S
C2932 C2924 1.574 . S
C2932 H2927 0.949 . S
C2932 C2938 1.368 . S
C2933 C2917 1.349 . S
C2933 H2925 0.950 . S
C2933 C2931 1.327 . S
C2934 C2922 1.349 . S
C2934 H2928 0.950 . S
C2934 C2935 1.327 . S
C2935 H2929 0.950 . S
C2935 C2934 1.327 . S
C2935 C2939 1.429 . S
C2936 C2919 1.574 . S
C2936 H2930 0.949 . S
C2936 C2940 1.368 . S
C2937 C2918 1.429 . S
C2937 C2931 1.429 . S
C2937 C2938 1.523 . S
C2938 C2919 1.368 . S
C2938 C2932 1.368 . S
C2938 C2937 1.523 . S
C2939 C2923 1.429 . S
C2939 C2935 1.429 . S
C2939 C2940 1.523 . S
C2940 C2924 1.368 . S
C2940 C2936 1.368 . S
C2940 C2939 1.523 . S
H2941 C2916 0.950 . S
H2942 C2918 0.950 . S
H2943 C2919 0.949 . S
H2944 C2921 0.950 . S
H2945 C2923 0.950 . S
C2946 C2947 1.349 . S
C2946 C2948 1.327 . S
C2946 H2971 0.950 . S
C2947 C2946 1.349 . S
C2947 C2963 1.349 . S
C2948 C2946 1.327 . S
C2948 C2967 1.429 . S
C2948 H2972 0.950 . S
C2949 C2966 1.574 . S
C2949 C2968 1.368 . S
C2949 H2973 0.949 . S
H2950 C2954 0.949 . S
C2951 C2952 1.349 . S
C2951 C2953 1.327 . S
C2951 H2974 0.950 . S
C2952 C2951 1.349 . S
C2952 C2964 1.349 . S
C2953 C2951 1.327 . S
C2953 C2969 1.429 . S
C2953 H2975 0.950 . S
C2954 H2950 0.949 . S
C2954 C2962 1.574 . S
C2954 C2970 1.368 . S
H2955 C2963 0.950 . S
H2956 C2961 0.950 . S
H2957 C2962 0.949 . S
H2958 C2964 0.950 . S
H2959 C2965 0.950 . S
H2960 C2966 0.949 . S
C2961 H2956 0.950 . S
C2961 C2963 1.327 . S
C2961 C2967 1.429 . S
C2962 C2954 1.574 . S
C2962 H2957 0.949 . S
C2962 C2968 1.368 . S
C2963 C2947 1.349 . S
C2963 H2955 0.950 . S
C2963 C2961 1.327 . S
C2964 C2952 1.349 . S
C2964 H2958 0.950 . S
C2964 C2965 1.327 . S
C2965 H2959 0.950 . S
C2965 C2964 1.327 . S
C2965 C2969 1.429 . S
C2966 C2949 1.574 . S
C2966 H2960 0.949 . S
C2966 C2970 1.368 . S
C2967 C2948 1.429 . S
C2967 C2961 1.429 . S
C2967 C2968 1.523 . S
C2968 C2949 1.368 . S
C2968 C2962 1.368 . S
C2968 C2967 1.523 . S
C2969 C2953 1.429 . S
C2969 C2965 1.429 . S
C2969 C2970 1.523 . S
C2970 C2954 1.368 . S
C2970 C2966 1.368 . S
C2970 C2969 1.523 . S
H2971 C2946 0.950 . S
H2972 C2948 0.950 . S
H2973 C2949 0.949 . S
H2974 C2951 0.950 . S
H2975 C2953 0.950 . S
C2976 C2977 1.349 . S
C2976 C2978 1.327 . S
C2976 H3001 0.950 . S
C2977 C2976 1.349 . S
C2977 C2993 1.349 . S
C2978 C2976 1.327 . S
C2978 C2997 1.429 . S
C2978 H3002 0.950 . S
C2979 C2996 1.574 . S
C2979 C2998 1.368 . S
C2979 H3003 0.949 . S
H2980 C2984 0.949 . S
C2981 C2982 1.349 . S
C2981 C2983 1.327 . S
C2981 H3004 0.950 . S
C2982 C2981 1.349 . S
C2982 C2994 1.349 . S
C2983 C2981 1.327 . S
C2983 C2999 1.429 . S
C2983 H3005 0.950 . S
C2984 H2980 0.949 . S
C2984 C2992 1.574 . S
C2984 C3000 1.368 . S
H2985 C2993 0.950 . S
H2986 C2991 0.950 . S
H2987 C2992 0.949 . S
H2988 C2994 0.950 . S
H2989 C2995 0.950 . S
H2990 C2996 0.949 . S
C2991 H2986 0.950 . S
C2991 C2993 1.327 . S
C2991 C2997 1.429 . S
C2992 C2984 1.574 . S
C2992 H2987 0.949 . S
C2992 C2998 1.368 . S
C2993 C2977 1.349 . S
C2993 H2985 0.950 . S
C2993 C2991 1.327 . S
C2994 C2982 1.349 . S
C2994 H2988 0.950 . S
C2994 C2995 1.327 . S
C2995 H2989 0.950 . S
C2995 C2994 1.327 . S
C2995 C2999 1.429 . S
C2996 C2979 1.574 . S
C2996 H2990 0.949 . S
C2996 C3000 1.368 . S
C2997 C2978 1.429 . S
C2997 C2991 1.429 . S
C2997 C2998 1.523 . S
C2998 C2979 1.368 . S
C2998 C2992 1.368 . S
C2998 C2997 1.523 . S
C2999 C2983 1.429 . S
C2999 C2995 1.429 . S
C2999 C3000 1.523 . S
C3000 C2984 1.368 . S
C3000 C2996 1.368 . S
C3000 C2999 1.523 . S
H3001 C2976 0.950 . S
H3002 C2978 0.950 . S
H3003 C2979 0.949 . S
H3004 C2981 0.950 . S
H3005 C2983 0.950 . S
C3006 C3007 1.349 . S
C3006 C3008 1.327 . S
C3006 H3031 0.950 . S
C3007 C3006 1.349 . S
C3007 C3023 1.349 . S
C3008 C3006 1.327 . S
C3008 C3027 1.429 . S
C3008 H3032 0.950 . S
C3009 C3026 1.574 . S
C3009 C3028 1.368 . S
C3009 H3033 0.949 . S
H3010 C3014 0.949 . S
C3011 C3012 1.349 . S
C3011 C3013 1.327 . S
C3011 H3034 0.950 . S
C3012 C3011 1.349 . S
C3012 C3024 1.349 . S
C3013 C3011 1.327 . S
C3013 C3029 1.429 . S
C3013 H3035 0.950 . S
C3014 H3010 0.949 . S
C3014 C3022 1.574 . S
C3014 C3030 1.368 . S
H3015 C3023 0.950 . S
H3016 C3021 0.950 . S
H3017 C3022 0.949 . S
H3018 C3024 0.950 . S
H3019 C3025 0.950 . S
H3020 C3026 0.949 . S
C3021 H3016 0.950 . S
C3021 C3023 1.327 . S
C3021 C3027 1.429 . S
C3022 C3014 1.574 . S
C3022 H3017 0.949 . S
C3022 C3028 1.368 . S
C3023 C3007 1.349 . S
C3023 H3015 0.950 . S
C3023 C3021 1.327 . S
C3024 C3012 1.349 . S
C3024 H3018 0.950 . S
C3024 C3025 1.327 . S
C3025 H3019 0.950 . S
C3025 C3024 1.327 . S
C3025 C3029 1.429 . S
C3026 C3009 1.574 . S
C3026 H3020 0.949 . S
C3026 C3030 1.368 . S
C3027 C3008 1.429 . S
C3027 C3021 1.429 . S
C3027 C3028 1.523 . S
C3028 C3009 1.368 . S
C3028 C3022 1.368 . S
C3028 C3027 1.523 . S
C3029 C3013 1.429 . S
C3029 C3025 1.429 . S
C3029 C3030 1.523 . S
C3030 C3014 1.368 . S
C3030 C3026 1.368 . S
C3030 C3029 1.523 . S
H3031 C3006 0.950 . S
H3032 C3008 0.950 . S
H3033 C3009 0.949 . S
H3034 C3011 0.950 . S
H3035 C3013 0.950 . S
C3036 C3037 1.349 . S
C3036 C3038 1.327 . S
C3036 H3061 0.950 . S
C3037 C3036 1.349 . S
C3037 C3053 1.349 . S
C3038 C3036 1.327 . S
C3038 C3057 1.429 . S
C3038 H3062 0.950 . S
C3039 C3056 1.574 . S
C3039 C3058 1.368 . S
C3039 H3063 0.949 . S
H3040 C3044 0.949 . S
C3041 C3042 1.349 . S
C3041 C3043 1.327 . S
C3041 H3064 0.950 . S
C3042 C3041 1.349 . S
C3042 C3054 1.349 . S
C3043 C3041 1.327 . S
C3043 C3059 1.429 . S
C3043 H3065 0.950 . S
C3044 H3040 0.949 . S
C3044 C3052 1.574 . S
C3044 C3060 1.368 . S
H3045 C3053 0.950 . S
H3046 C3051 0.950 . S
H3047 C3052 0.949 . S
H3048 C3054 0.950 . S
H3049 C3055 0.950 . S
H3050 C3056 0.949 . S
C3051 H3046 0.950 . S
C3051 C3053 1.327 . S
C3051 C3057 1.429 . S
C3052 C3044 1.574 . S
C3052 H3047 0.949 . S
C3052 C3058 1.368 . S
C3053 C3037 1.349 . S
C3053 H3045 0.950 . S
C3053 C3051 1.327 . S
C3054 C3042 1.349 . S
C3054 H3048 0.950 . S
C3054 C3055 1.327 . S
C3055 H3049 0.950 . S
C3055 C3054 1.327 . S
C3055 C3059 1.429 . S
C3056 C3039 1.574 . S
C3056 H3050 0.949 . S
C3056 C3060 1.368 . S
C3057 C3038 1.429 . S
C3057 C3051 1.429 . S
C3057 C3058 1.523 . S
C3058 C3039 1.368 . S
C3058 C3052 1.368 . S
C3058 C3057 1.523 . S
C3059 C3043 1.429 . S
C3059 C3055 1.429 . S
C3059 C3060 1.523 . S
C3060 C3044 1.368 . S
C3060 C3056 1.368 . S
C3060 C3059 1.523 . S
H3061 C3036 0.950 . S
H3062 C3038 0.950 . S
H3063 C3039 0.949 . S
H3064 C3041 0.950 . S
H3065 C3043 0.950 . S
C3066 C3067 1.349 . S
C3066 C3068 1.327 . S
C3066 H3091 0.950 . S
C3067 C3066 1.349 . S
C3067 C3083 1.349 . S
C3068 C3066 1.327 . S
C3068 C3087 1.429 . S
C3068 H3092 0.950 . S
C3069 C3086 1.574 . S
C3069 C3088 1.368 . S
C3069 H3093 0.949 . S
H3070 C3074 0.949 . S
C3071 C3072 1.349 . S
C3071 C3073 1.327 . S
C3071 H3094 0.950 . S
C3072 C3071 1.349 . S
C3072 C3084 1.349 . S
C3073 C3071 1.327 . S
C3073 C3089 1.429 . S
C3073 H3095 0.950 . S
C3074 H3070 0.949 . S
C3074 C3082 1.574 . S
C3074 C3090 1.368 . S
H3075 C3083 0.950 . S
H3076 C3081 0.950 . S
H3077 C3082 0.949 . S
H3078 C3084 0.950 . S
H3079 C3085 0.950 . S
H3080 C3086 0.949 . S
C3081 H3076 0.950 . S
C3081 C3083 1.327 . S
C3081 C3087 1.429 . S
C3082 C3074 1.574 . S
C3082 H3077 0.949 . S
C3082 C3088 1.368 . S
C3083 C3067 1.349 . S
C3083 H3075 0.950 . S
C3083 C3081 1.327 . S
C3084 C3072 1.349 . S
C3084 H3078 0.950 . S
C3084 C3085 1.327 . S
C3085 H3079 0.950 . S
C3085 C3084 1.327 . S
C3085 C3089 1.429 . S
C3086 C3069 1.574 . S
C3086 H3080 0.949 . S
C3086 C3090 1.368 . S
C3087 C3068 1.429 . S
C3087 C3081 1.429 . S
C3087 C3088 1.523 . S
C3088 C3069 1.368 . S
C3088 C3082 1.368 . S
C3088 C3087 1.523 . S
C3089 C3073 1.429 . S
C3089 C3085 1.429 . S
C3089 C3090 1.523 . S
C3090 C3074 1.368 . S
C3090 C3086 1.368 . S
C3090 C3089 1.523 . S
H3091 C3066 0.950 . S
H3092 C3068 0.950 . S
H3093 C3069 0.949 . S
H3094 C3071 0.950 . S
H3095 C3073 0.950 . S
C3096 C3097 1.349 . S
C3096 C3098 1.327 . S
C3096 H3121 0.950 . S
C3097 C3096 1.349 . S
C3097 C3113 1.349 . S
C3098 C3096 1.327 . S
C3098 C3117 1.429 . S
C3098 H3122 0.950 . S
C3099 C3116 1.574 . S
C3099 C3118 1.368 . S
C3099 H3123 0.949 . S
H3100 C3104 0.949 . S
C3101 C3102 1.349 . S
C3101 C3103 1.327 . S
C3101 H3124 0.950 . S
C3102 C3101 1.349 . S
C3102 C3114 1.349 . S
C3103 C3101 1.327 . S
C3103 C3119 1.429 . S
C3103 H3125 0.950 . S
C3104 H3100 0.949 . S
C3104 C3112 1.574 . S
C3104 C3120 1.368 . S
H3105 C3113 0.950 . S
H3106 C3111 0.950 . S
H3107 C3112 0.949 . S
H3108 C3114 0.950 . S
H3109 C3115 0.950 . S
H3110 C3116 0.949 . S
C3111 H3106 0.950 . S
C3111 C3113 1.327 . S
C3111 C3117 1.429 . S
C3112 C3104 1.574 . S
C3112 H3107 0.949 . S
C3112 C3118 1.368 . S
C3113 C3097 1.349 . S
C3113 H3105 0.950 . S
C3113 C3111 1.327 . S
C3114 C3102 1.349 . S
C3114 H3108 0.950 . S
C3114 C3115 1.327 . S
C3115 H3109 0.950 . S
C3115 C3114 1.327 . S
C3115 C3119 1.429 . S
C3116 C3099 1.574 . S
C3116 H3110 0.949 . S
C3116 C3120 1.368 . S
C3117 C3098 1.429 . S
C3117 C3111 1.429 . S
C3117 C3118 1.523 . S
C3118 C3099 1.368 . S
C3118 C3112 1.368 . S
C3118 C3117 1.523 . S
C3119 C3103 1.429 . S
C3119 C3115 1.429 . S
C3119 C3120 1.523 . S
C3120 C3104 1.368 . S
C3120 C3116 1.368 . S
C3120 C3119 1.523 . S
H3121 C3096 0.950 . S
H3122 C3098 0.950 . S
H3123 C3099 0.949 . S
H3124 C3101 0.950 . S
H3125 C3103 0.950 . S
C3126 C3127 1.349 . S
C3126 C3128 1.327 . S
C3126 H3151 0.950 . S
C3127 C3126 1.349 . S
C3127 C3143 1.349 . S
C3128 C3126 1.327 . S
C3128 C3147 1.429 . S
C3128 H3152 0.950 . S
C3129 C3146 1.574 . S
C3129 C3148 1.368 . S
C3129 H3153 0.949 . S
H3130 C3134 0.949 . S
C3131 C3132 1.349 . S
C3131 C3133 1.327 . S
C3131 H3154 0.950 . S
C3132 C3131 1.349 . S
C3132 C3144 1.349 . S
C3133 C3131 1.327 . S
C3133 C3149 1.429 . S
C3133 H3155 0.950 . S
C3134 H3130 0.949 . S
C3134 C3142 1.574 . S
C3134 C3150 1.368 . S
H3135 C3143 0.950 . S
H3136 C3141 0.950 . S
H3137 C3142 0.949 . S
H3138 C3144 0.950 . S
H3139 C3145 0.950 . S
H3140 C3146 0.949 . S
C3141 H3136 0.950 . S
C3141 C3143 1.327 . S
C3141 C3147 1.429 . S
C3142 C3134 1.574 . S
C3142 H3137 0.949 . S
C3142 C3148 1.368 . S
C3143 C3127 1.349 . S
C3143 H3135 0.950 . S
C3143 C3141 1.327 . S
C3144 C3132 1.349 . S
C3144 H3138 0.950 . S
C3144 C3145 1.327 . S
C3145 H3139 0.950 . S
C3145 C3144 1.327 . S
C3145 C3149 1.429 . S
C3146 C3129 1.574 . S
C3146 H3140 0.949 . S
C3146 C3150 1.368 . S
C3147 C3128 1.429 . S
C3147 C3141 1.429 . S
C3147 C3148 1.523 . S
C3148 C3129 1.368 . S
C3148 C3142 1.368 . S
C3148 C3147 1.523 . S
C3149 C3133 1.429 . S
C3149 C3145 1.429 . S
C3149 C3150 1.523 . S
C3150 C3134 1.368 . S
C3150 C3146 1.368 . S
C3150 C3149 1.523 . S
H3151 C3126 0.950 . S
H3152 C3128 0.950 . S
H3153 C3129 0.949 . S
H3154 C3131 0.950 . S
H3155 C3133 0.950 . S
C3156 C3157 1.349 . S
C3156 C3158 1.327 . S
C3156 H3181 0.950 . S
C3157 C3156 1.349 . S
C3157 C3173 1.349 . S
C3158 C3156 1.327 . S
C3158 C3177 1.429 . S
C3158 H3182 0.950 . S
C3159 C3176 1.574 . S
C3159 C3178 1.368 . S
C3159 H3183 0.949 . S
H3160 C3164 0.949 . S
C3161 C3162 1.349 . S
C3161 C3163 1.327 . S
C3161 H3184 0.950 . S
C3162 C3161 1.349 . S
C3162 C3174 1.349 . S
C3163 C3161 1.327 . S
C3163 C3179 1.429 . S
C3163 H3185 0.950 . S
C3164 H3160 0.949 . S
C3164 C3172 1.574 . S
C3164 C3180 1.368 . S
H3165 C3173 0.950 . S
H3166 C3171 0.950 . S
H3167 C3172 0.949 . S
H3168 C3174 0.950 . S
H3169 C3175 0.950 . S
H3170 C3176 0.949 . S
C3171 H3166 0.950 . S
C3171 C3173 1.327 . S
C3171 C3177 1.429 . S
C3172 C3164 1.574 . S
C3172 H3167 0.949 . S
C3172 C3178 1.368 . S
C3173 C3157 1.349 . S
C3173 H3165 0.950 . S
C3173 C3171 1.327 . S
C3174 C3162 1.349 . S
C3174 H3168 0.950 . S
C3174 C3175 1.327 . S
C3175 H3169 0.950 . S
C3175 C3174 1.327 . S
C3175 C3179 1.429 . S
C3176 C3159 1.574 . S
C3176 H3170 0.949 . S
C3176 C3180 1.368 . S
C3177 C3158 1.429 . S
C3177 C3171 1.429 . S
C3177 C3178 1.523 . S
C3178 C3159 1.368 . S
C3178 C3172 1.368 . S
C3178 C3177 1.523 . S
C3179 C3163 1.429 . S
C3179 C3175 1.429 . S
C3179 C3180 1.523 . S
C3180 C3164 1.368 . S
C3180 C3176 1.368 . S
C3180 C3179 1.523 . S
H3181 C3156 0.950 . S
H3182 C3158 0.950 . S
H3183 C3159 0.949 . S
H3184 C3161 0.950 . S
H3185 C3163 0.950 . S
C3186 C3187 1.349 . S
C3186 C3188 1.327 . S
C3186 H3211 0.950 . S
C3187 C3186 1.349 . S
C3187 C3203 1.349 . S
C3188 C3186 1.327 . S
C3188 C3207 1.429 . S
C3188 H3212 0.950 . S
C3189 C3206 1.574 . S
C3189 C3208 1.368 . S
C3189 H3213 0.949 . S
H3190 C3194 0.949 . S
C3191 C3192 1.349 . S
C3191 C3193 1.327 . S
C3191 H3214 0.950 . S
C3192 C3191 1.349 . S
C3192 C3204 1.349 . S
C3193 C3191 1.327 . S
C3193 C3209 1.429 . S
C3193 H3215 0.950 . S
C3194 H3190 0.949 . S
C3194 C3202 1.574 . S
C3194 C3210 1.368 . S
H3195 C3203 0.950 . S
H3196 C3201 0.950 . S
H3197 C3202 0.949 . S
H3198 C3204 0.950 . S
H3199 C3205 0.950 . S
H3200 C3206 0.949 . S
C3201 H3196 0.950 . S
C3201 C3203 1.327 . S
C3201 C3207 1.429 . S
C3202 C3194 1.574 . S
C3202 H3197 0.949 . S
C3202 C3208 1.368 . S
C3203 C3187 1.349 . S
C3203 H3195 0.950 . S
C3203 C3201 1.327 . S
C3204 C3192 1.349 . S
C3204 H3198 0.950 . S
C3204 C3205 1.327 . S
C3205 H3199 0.950 . S
C3205 C3204 1.327 . S
C3205 C3209 1.429 . S
C3206 C3189 1.574 . S
C3206 H3200 0.949 . S
C3206 C3210 1.368 . S
C3207 C3188 1.429 . S
C3207 C3201 1.429 . S
C3207 C3208 1.523 . S
C3208 C3189 1.368 . S
C3208 C3202 1.368 . S
C3208 C3207 1.523 . S
C3209 C3193 1.429 . S
C3209 C3205 1.429 . S
C3209 C3210 1.523 . S
C3210 C3194 1.368 . S
C3210 C3206 1.368 . S
C3210 C3209 1.523 . S
H3211 C3186 0.950 . S
H3212 C3188 0.950 . S
H3213 C3189 0.949 . S
H3214 C3191 0.950 . S
H3215 C3193 0.950 . S
C3216 C3217 1.349 . S
C3216 C3218 1.327 . S
C3216 H3241 0.950 . S
C3217 C3216 1.349 . S
C3217 C3233 1.349 . S
C3218 C3216 1.327 . S
C3218 C3237 1.429 . S
C3218 H3242 0.950 . S
C3219 C3236 1.574 . S
C3219 C3238 1.368 . S
C3219 H3243 0.949 . S
H3220 C3224 0.949 . S
C3221 C3222 1.349 . S
C3221 C3223 1.327 . S
C3221 H3244 0.950 . S
C3222 C3221 1.349 . S
C3222 C3234 1.349 . S
C3223 C3221 1.327 . S
C3223 C3239 1.429 . S
C3223 H3245 0.950 . S
C3224 H3220 0.949 . S
C3224 C3232 1.574 . S
C3224 C3240 1.368 . S
H3225 C3233 0.950 . S
H3226 C3231 0.950 . S
H3227 C3232 0.949 . S
H3228 C3234 0.950 . S
H3229 C3235 0.950 . S
H3230 C3236 0.949 . S
C3231 H3226 0.950 . S
C3231 C3233 1.327 . S
C3231 C3237 1.429 . S
C3232 C3224 1.574 . S
C3232 H3227 0.949 . S
C3232 C3238 1.368 . S
C3233 C3217 1.349 . S
C3233 H3225 0.950 . S
C3233 C3231 1.327 . S
C3234 C3222 1.349 . S
C3234 H3228 0.950 . S
C3234 C3235 1.327 . S
C3235 H3229 0.950 . S
C3235 C3234 1.327 . S
C3235 C3239 1.429 . S
C3236 C3219 1.574 . S
C3236 H3230 0.949 . S
C3236 C3240 1.368 . S
C3237 C3218 1.429 . S
C3237 C3231 1.429 . S
C3237 C3238 1.523 . S
C3238 C3219 1.368 . S
C3238 C3232 1.368 . S
C3238 C3237 1.523 . S
C3239 C3223 1.429 . S
C3239 C3235 1.429 . S
C3239 C3240 1.523 . S
C3240 C3224 1.368 . S
C3240 C3236 1.368 . S
C3240 C3239 1.523 . S
H3241 C3216 0.950 . S
H3242 C3218 0.950 . S
H3243 C3219 0.949 . S
H3244 C3221 0.950 . S
H3245 C3223 0.950 . S
C3246 C3247 1.349 . S
C3246 C3248 1.327 . S
C3246 H3271 0.950 . S
C3247 C3246 1.349 . S
C3247 C3263 1.349 . S
C3248 C3246 1.327 . S
C3248 C3267 1.429 . S
C3248 H3272 0.950 . S
C3249 C3266 1.574 . S
C3249 C3268 1.368 . S
C3249 H3273 0.949 . S
H3250 C3254 0.949 . S
C3251 C3252 1.349 . S
C3251 C3253 1.327 . S
C3251 H3274 0.950 . S
C3252 C3251 1.349 . S
C3252 C3264 1.349 . S
C3253 C3251 1.327 . S
C3253 C3269 1.429 . S
C3253 H3275 0.950 . S
C3254 H3250 0.949 . S
C3254 C3262 1.574 . S
C3254 C3270 1.368 . S
H3255 C3263 0.950 . S
H3256 C3261 0.950 . S
H3257 C3262 0.949 . S
H3258 C3264 0.950 . S
H3259 C3265 0.950 . S
H3260 C3266 0.949 . S
C3261 H3256 0.950 . S
C3261 C3263 1.327 . S
C3261 C3267 1.429 . S
C3262 C3254 1.574 . S
C3262 H3257 0.949 . S
C3262 C3268 1.368 . S
C3263 C3247 1.349 . S
C3263 H3255 0.950 . S
C3263 C3261 1.327 . S
C3264 C3252 1.349 . S
C3264 H3258 0.950 . S
C3264 C3265 1.327 . S
C3265 H3259 0.950 . S
C3265 C3264 1.327 . S
C3265 C3269 1.429 . S
C3266 C3249 1.574 . S
C3266 H3260 0.949 . S
C3266 C3270 1.368 . S
C3267 C3248 1.429 . S
C3267 C3261 1.429 . S
C3267 C3268 1.523 . S
C3268 C3249 1.368 . S
C3268 C3262 1.368 . S
C3268 C3267 1.523 . S
C3269 C3253 1.429 . S
C3269 C3265 1.429 . S
C3269 C3270 1.523 . S
C3270 C3254 1.368 . S
C3270 C3266 1.368 . S
C3270 C3269 1.523 . S
H3271 C3246 0.950 . S
H3272 C3248 0.950 . S
H3273 C3249 0.949 . S
H3274 C3251 0.950 . S
H3275 C3253 0.950 . S
C3276 C3277 1.349 . S
C3276 C3278 1.327 . S
C3276 H3301 0.950 . S
C3277 C3276 1.349 . S
C3277 C3293 1.349 . S
C3278 C3276 1.327 . S
C3278 C3297 1.429 . S
C3278 H3302 0.950 . S
C3279 C3296 1.574 1_655 S
C3279 C3298 1.368 . S
C3279 H3303 0.949 . S
H3280 C3284 0.949 . S
C3281 C3282 1.349 . S
C3281 C3283 1.327 . S
C3281 H3304 0.950 . S
C3282 C3281 1.349 . S
C3282 C3294 1.349 . S
C3283 C3281 1.327 . S
C3283 C3299 1.429 . S
C3283 H3305 0.950 . S
C3284 H3280 0.949 . S
C3284 C3292 1.574 1_455 S
C3284 C3300 1.368 . S
H3285 C3293 0.950 . S
H3286 C3291 0.950 . S
H3287 C3292 0.949 . S
H3288 C3294 0.950 . S
H3289 C3295 0.950 . S
H3290 C3296 0.949 . S
C3291 H3286 0.950 . S
C3291 C3293 1.327 . S
C3291 C3297 1.429 . S
C3292 C3284 1.574 1_655 S
C3292 H3287 0.949 . S
C3292 C3298 1.368 . S
C3293 C3277 1.349 . S
C3293 H3285 0.950 . S
C3293 C3291 1.327 . S
C3294 C3282 1.349 . S
C3294 H3288 0.950 . S
C3294 C3295 1.327 . S
C3295 H3289 0.950 . S
C3295 C3294 1.327 . S
C3295 C3299 1.429 . S
C3296 C3279 1.574 1_455 S
C3296 H3290 0.949 . S
C3296 C3300 1.368 . S
C3297 C3278 1.429 . S
C3297 C3291 1.429 . S
C3297 C3298 1.523 . S
C3298 C3279 1.368 . S
C3298 C3292 1.368 . S
C3298 C3297 1.523 . S
C3299 C3283 1.429 . S
C3299 C3295 1.429 . S
C3299 C3300 1.523 . S
C3300 C3284 1.368 . S
C3300 C3296 1.368 . S
C3300 C3299 1.523 . S
H3301 C3276 0.950 . S
H3302 C3278 0.950 . S
H3303 C3279 0.949 . S
H3304 C3281 0.950 . S
H3305 C3283 0.950 . S
C3306 C3307 1.349 . S
C3306 C3308 1.327 . S
C3306 H3331 0.950 . S
C3307 C3306 1.349 . S
C3307 C3323 1.349 . S
C3308 C3306 1.327 . S
C3308 C3327 1.429 . S
C3308 H3332 0.950 . S
C3309 C3326 1.574 . S
C3309 C3328 1.368 . S
C3309 H3333 0.949 . S
H3310 C3314 0.949 . S
C3311 C3312 1.349 . S
C3311 C3313 1.327 . S
C3311 H3334 0.950 . S
C3312 C3311 1.349 . S
C3312 C3324 1.349 . S
C3313 C3311 1.327 . S
C3313 C3329 1.429 . S
C3313 H3335 0.950 . S
C3314 H3310 0.949 . S
C3314 C3322 1.574 . S
C3314 C3330 1.368 . S
H3315 C3323 0.950 . S
H3316 C3321 0.950 . S
H3317 C3322 0.949 . S
H3318 C3324 0.950 . S
H3319 C3325 0.950 . S
H3320 C3326 0.949 . S
C3321 H3316 0.950 . S
C3321 C3323 1.327 . S
C3321 C3327 1.429 . S
C3322 C3314 1.574 . S
C3322 H3317 0.949 . S
C3322 C3328 1.368 . S
C3323 C3307 1.349 . S
C3323 H3315 0.950 . S
C3323 C3321 1.327 . S
C3324 C3312 1.349 . S
C3324 H3318 0.950 . S
C3324 C3325 1.327 . S
C3325 H3319 0.950 . S
C3325 C3324 1.327 . S
C3325 C3329 1.429 . S
C3326 C3309 1.574 . S
C3326 H3320 0.949 . S
C3326 C3330 1.368 . S
C3327 C3308 1.429 . S
C3327 C3321 1.429 . S
C3327 C3328 1.523 . S
C3328 C3309 1.368 . S
C3328 C3322 1.368 . S
C3328 C3327 1.523 . S
C3329 C3313 1.429 . S
C3329 C3325 1.429 . S
C3329 C3330 1.523 . S
C3330 C3314 1.368 . S
C3330 C3326 1.368 . S
C3330 C3329 1.523 . S
H3331 C3306 0.950 . S
H3332 C3308 0.950 . S
H3333 C3309 0.949 . S
H3334 C3311 0.950 . S
H3335 C3313 0.950 . S
C3336 C3337 1.349 . S
C3336 C3338 1.327 . S
C3336 H3361 0.950 . S
C3337 C3336 1.349 . S
C3337 C3353 1.349 . S
C3338 C3336 1.327 . S
C3338 C3357 1.429 . S
C3338 H3362 0.950 1_545 S
C3339 C3356 1.574 . S
C3339 C3358 1.368 . S
C3339 H3363 0.949 . S
H3340 C3344 0.949 . S
C3341 C3342 1.349 . S
C3341 C3343 1.327 . S
C3341 H3364 0.950 . S
C3342 C3341 1.349 . S
C3342 C3354 1.349 . S
C3343 C3341 1.327 . S
C3343 C3359 1.429 . S
C3343 H3365 0.950 1_565 S
C3344 H3340 0.949 . S
C3344 C3352 1.574 . S
C3344 C3360 1.368 . S
H3345 C3353 0.950 . S
H3346 C3351 0.950 . S
H3347 C3352 0.949 . S
H3348 C3354 0.950 . S
H3349 C3355 0.950 . S
H3350 C3356 0.949 . S
C3351 H3346 0.950 . S
C3351 C3353 1.327 . S
C3351 C3357 1.429 . S
C3352 C3344 1.574 . S
C3352 H3347 0.949 . S
C3352 C3358 1.368 1_565 S
C3353 C3337 1.349 . S
C3353 H3345 0.950 . S
C3353 C3351 1.327 . S
C3354 C3342 1.349 . S
C3354 H3348 0.950 . S
C3354 C3355 1.327 . S
C3355 H3349 0.950 . S
C3355 C3354 1.327 . S
C3355 C3359 1.429 . S
C3356 C3339 1.574 . S
C3356 H3350 0.949 . S
C3356 C3360 1.368 1_545 S
C3357 C3338 1.429 . S
C3357 C3351 1.429 . S
C3357 C3358 1.523 . S
C3358 C3339 1.368 . S
C3358 C3352 1.368 1_545 S
C3358 C3357 1.523 . S
C3359 C3343 1.429 . S
C3359 C3355 1.429 . S
C3359 C3360 1.523 . S
C3360 C3344 1.368 . S
C3360 C3356 1.368 1_565 S
C3360 C3359 1.523 . S
H3361 C3336 0.950 . S
H3362 C3338 0.950 1_565 S
H3363 C3339 0.949 . S
H3364 C3341 0.950 . S
H3365 C3343 0.950 1_545 S
C3366 C3367 1.349 . S
C3366 C3368 1.327 . S
C3366 H3391 0.950 . S
C3367 C3366 1.349 . S
C3367 C3383 1.349 . S
C3368 C3366 1.327 . S
C3368 C3387 1.429 . S
C3368 H3392 0.950 . S
C3369 C3386 1.574 . S
C3369 C3388 1.368 1_565 S
C3369 H3393 0.949 . S
H3370 C3374 0.949 . S
C3371 C3372 1.349 . S
C3371 C3373 1.327 . S
C3371 H3394 0.950 . S
C3372 C3371 1.349 . S
C3372 C3384 1.349 . S
C3373 C3371 1.327 . S
C3373 C3389 1.429 . S
C3373 H3395 0.950 . S
C3374 H3370 0.949 . S
C3374 C3382 1.574 . S
C3374 C3390 1.368 1_545 S
H3375 C3383 0.950 . S
H3376 C3381 0.950 . S
H3377 C3382 0.949 . S
H3378 C3384 0.950 . S
H3379 C3385 0.950 . S
H3380 C3386 0.949 . S
C3381 H3376 0.950 . S
C3381 C3383 1.327 . S
C3381 C3387 1.429 . S
C3382 C3374 1.574 . S
C3382 H3377 0.949 . S
C3382 C3388 1.368 . S
C3383 C3367 1.349 . S
C3383 H3375 0.950 . S
C3383 C3381 1.327 . S
C3384 C3372 1.349 . S
C3384 H3378 0.950 . S
C3384 C3385 1.327 . S
C3385 H3379 0.950 . S
C3385 C3384 1.327 . S
C3385 C3389 1.429 . S
C3386 C3369 1.574 . S
C3386 H3380 0.949 . S
C3386 C3390 1.368 . S
C3387 C3368 1.429 . S
C3387 C3381 1.429 . S
C3387 C3388 1.523 . S
C3388 C3369 1.368 1_545 S
C3388 C3382 1.368 . S
C3388 C3387 1.523 . S
C3389 C3373 1.429 . S
C3389 C3385 1.429 . S
C3389 C3390 1.523 . S
C3390 C3374 1.368 1_565 S
C3390 C3386 1.368 . S
C3390 C3389 1.523 . S
H3391 C3366 0.950 . S
H3392 C3368 0.950 . S
H3393 C3369 0.949 . S
H3394 C3371 0.950 . S
H3395 C3373 0.950 . S
C3396 C3397 1.349 . S
C3396 C3398 1.327 . S
C3396 H3421 0.950 . S
C3397 C3396 1.349 . S
C3397 C3413 1.349 . S
C3398 C3396 1.327 . S
C3398 C3417 1.429 . S
C3398 H3422 0.950 . S
C3399 C3416 1.574 . S
C3399 C3418 1.368 1_655 S
C3399 H3423 0.949 . S
H3400 C3404 0.949 . S
C3401 C3402 1.349 . S
C3401 C3403 1.327 . S
C3401 H3424 0.950 . S
C3402 C3401 1.349 . S
C3402 C3414 1.349 . S
C3403 C3401 1.327 . S
C3403 C3419 1.429 . S
C3403 H3425 0.950 . S
C3404 H3400 0.949 . S
C3404 C3412 1.574 . S
C3404 C3420 1.368 1_455 S
H3405 C3413 0.950 . S
H3406 C3411 0.956 . S
H3407 C3412 0.949 . S
H3408 C3414 0.950 . S
H3409 C3415 0.950 . S
H3410 C3416 0.949 . S
C3411 H3406 0.956 . S
C3411 C3413 1.327 . S
C3411 C3417 1.429 . S
C3412 C3404 1.574 . S
C3412 H3407 0.949 . S
C3412 C3418 1.368 . S
C3413 C3397 1.349 . S
C3413 H3405 0.950 . S
C3413 C3411 1.327 . S
C3414 C3402 1.349 . S
C3414 H3408 0.950 . S
C3414 C3415 1.327 . S
C3415 H3409 0.950 . S
C3415 C3414 1.327 . S
C3415 C3419 1.429 . S
C3416 C3399 1.574 . S
C3416 H3410 0.949 . S
C3416 C3420 1.368 . S
C3417 C3398 1.429 . S
C3417 C3411 1.429 . S
C3417 C3418 1.523 . S
C3418 C3399 1.368 1_455 S
C3418 C3412 1.368 . S
C3418 C3417 1.523 . S
C3419 C3403 1.429 . S
C3419 C3415 1.429 . S
C3419 C3420 1.523 . S
C3420 C3404 1.368 1_655 S
C3420 C3416 1.368 . S
C3420 C3419 1.523 . S
H3421 C3396 0.950 . S
H3422 C3398 0.950 . S
H3423 C3399 0.949 . S
H3424 C3401 0.950 . S
H3425 C3403 0.950 . S
C3426 C3427 1.349 . S
C3426 C3428 1.327 . S
C3426 H3451 0.950 . S
C3427 C3426 1.349 . S
C3427 C3443 1.349 . S
C3428 C3426 1.327 . S
C3428 C3447 1.429 . S
C3428 H3452 0.950 . S
C3429 C3446 1.574 . S
C3429 C3448 1.368 . S
C3429 H3453 0.949 . S
H3430 C3434 0.949 . S
C3431 C3432 1.349 . S
C3431 C3433 1.327 . S
C3431 H3454 0.950 . S
C3432 C3431 1.349 . S
C3432 C3444 1.349 . S
C3433 C3431 1.327 . S
C3433 C3449 1.429 . S
C3433 H3455 0.950 . S
C3434 H3430 0.949 . S
C3434 C3442 1.574 . S
C3434 C3450 1.368 . S
H3435 C3443 0.950 . S
H3436 C3441 0.950 . S
H3437 C3442 0.949 . S
H3438 C3444 0.950 . S
H3439 C3445 0.950 . S
H3440 C3446 0.949 . S
C3441 H3436 0.950 . S
C3441 C3443 1.327 . S
C3441 C3447 1.429 . S
C3442 C3434 1.574 . S
C3442 H3437 0.949 . S
C3442 C3448 1.368 . S
C3443 C3427 1.349 . S
C3443 H3435 0.950 . S
C3443 C3441 1.327 . S
C3444 C3432 1.349 . S
C3444 H3438 0.950 . S
C3444 C3445 1.327 . S
C3445 H3439 0.950 . S
C3445 C3444 1.327 . S
C3445 C3449 1.429 . S
C3446 C3429 1.574 . S
C3446 H3440 0.949 . S
C3446 C3450 1.368 . S
C3447 C3428 1.429 . S
C3447 C3441 1.429 . S
C3447 C3448 1.523 . S
C3448 C3429 1.368 . S
C3448 C3442 1.368 . S
C3448 C3447 1.523 . S
C3449 C3433 1.429 . S
C3449 C3445 1.429 . S
C3449 C3450 1.523 . S
C3450 C3434 1.368 . S
C3450 C3446 1.368 . S
C3450 C3449 1.523 . S
H3451 C3426 0.950 . S
H3452 C3428 0.950 . S
H3453 C3429 0.949 . S
H3454 C3431 0.950 . S
H3455 C3433 0.950 . S
C3456 C3457 1.349 . S
C3456 C3458 1.327 . S
C3456 H3481 0.950 . S
C3457 C3456 1.349 . S
C3457 C3473 1.349 . S
C3458 C3456 1.327 . S
C3458 C3477 1.429 . S
C3458 H3482 0.950 . S
C3459 C3476 1.574 . S
C3459 C3478 1.368 1_455 S
C3459 H3483 0.949 . S
H3460 C3464 0.949 . S
C3461 C3462 1.349 . S
C3461 C3463 1.327 . S
C3461 H3484 0.950 . S
C3462 C3461 1.349 . S
C3462 C3474 1.349 . S
C3463 C3461 1.327 . S
C3463 C3479 1.429 . S
C3463 H3485 0.950 . S
C3464 H3460 0.949 . S
C3464 C3472 1.574 . S
C3464 C3480 1.368 1_655 S
H3465 C3473 0.950 . S
H3466 C3471 0.950 . S
H3467 C3472 0.949 . S
H3468 C3474 0.950 . S
H3469 C3475 0.950 . S
H3470 C3476 0.949 . S
C3471 H3466 0.950 . S
C3471 C3473 1.327 . S
C3471 C3477 1.429 . S
C3472 C3464 1.574 . S
C3472 H3467 0.949 . S
C3472 C3478 1.368 . S
C3473 C3457 1.349 . S
C3473 H3465 0.950 . S
C3473 C3471 1.327 . S
C3474 C3462 1.349 . S
C3474 H3468 0.950 . S
C3474 C3475 1.327 . S
C3475 H3469 0.950 . S
C3475 C3474 1.327 . S
C3475 C3479 1.429 . S
C3476 C3459 1.574 . S
C3476 H3470 0.949 . S
C3476 C3480 1.368 . S
C3477 C3458 1.429 . S
C3477 C3471 1.429 . S
C3477 C3478 1.523 . S
C3478 C3459 1.368 1_655 S
C3478 C3472 1.368 . S
C3478 C3477 1.523 . S
C3479 C3463 1.429 . S
C3479 C3475 1.429 . S
C3479 C3480 1.523 . S
C3480 C3464 1.368 1_455 S
C3480 C3476 1.368 . S
C3480 C3479 1.523 . S
H3481 C3456 0.950 . S
H3482 C3458 0.950 . S
H3483 C3459 0.949 . S
H3484 C3461 0.950 . S
H3485 C3463 0.950 . S
C3486 C3487 1.349 . S
C3486 C3488 1.327 . S
C3486 H3511 0.950 . S
C3487 C3486 1.349 . S
C3487 C3503 1.349 . S
C3488 C3486 1.327 . S
C3488 C3507 1.429 . S
C3488 H3512 0.950 . S
C3489 C3506 1.574 . S
C3489 C3508 1.368 . S
C3489 H3513 0.949 . S
H3490 C3494 0.949 . S
C3491 C3492 1.349 . S
C3491 C3493 1.327 . S
C3491 H3514 0.950 . S
C3492 C3491 1.349 . S
C3492 C3504 1.349 . S
C3493 C3491 1.327 . S
C3493 C3509 1.429 . S
C3493 H3515 0.950 . S
C3494 H3490 0.949 . S
C3494 C3502 1.574 . S
C3494 C3510 1.368 . S
H3495 C3503 0.950 . S
H3496 C3501 0.950 . S
H3497 C3502 0.949 . S
H3498 C3504 0.950 . S
H3499 C3505 0.950 . S
H3500 C3506 0.949 . S
C3501 H3496 0.950 . S
C3501 C3503 1.327 . S
C3501 C3507 1.429 . S
C3502 C3494 1.574 . S
C3502 H3497 0.949 . S
C3502 C3508 1.368 . S
C3503 C3487 1.349 . S
C3503 H3495 0.950 . S
C3503 C3501 1.327 . S
C3504 C3492 1.349 . S
C3504 H3498 0.950 . S
C3504 C3505 1.327 . S
C3505 H3499 0.950 . S
C3505 C3504 1.327 . S
C3505 C3509 1.429 . S
C3506 C3489 1.574 . S
C3506 H3500 0.949 . S
C3506 C3510 1.368 . S
C3507 C3488 1.429 . S
C3507 C3501 1.429 . S
C3507 C3508 1.523 . S
C3508 C3489 1.368 . S
C3508 C3502 1.368 . S
C3508 C3507 1.523 . S
C3509 C3493 1.429 . S
C3509 C3505 1.429 . S
C3509 C3510 1.523 . S
C3510 C3494 1.368 . S
C3510 C3506 1.368 . S
C3510 C3509 1.523 . S
H3511 C3486 0.950 . S
H3512 C3488 0.950 . S
H3513 C3489 0.949 . S
H3514 C3491 0.950 . S
H3515 C3493 0.950 . S
C3516 C3517 1.349 . S
C3516 C3518 1.327 . S
C3516 H3541 0.950 . S
C3517 C3516 1.349 . S
C3517 C3533 1.349 . S
C3518 C3516 1.327 . S
C3518 C3537 1.429 . S
C3518 H3542 0.950 . S
C3519 C3536 1.574 . S
C3519 C3538 1.368 1_565 S
C3519 H3543 0.949 . S
H3520 C3524 0.949 . S
C3521 C3522 1.349 . S
C3521 C3523 1.327 . S
C3521 H3544 0.950 . S
C3522 C3521 1.349 . S
C3522 C3534 1.349 . S
C3523 C3521 1.327 . S
C3523 C3539 1.429 . S
C3523 H3545 0.950 . S
C3524 H3520 0.949 . S
C3524 C3532 1.574 . S
C3524 C3540 1.368 1_545 S
H3525 C3533 0.950 . S
H3526 C3531 0.950 . S
H3527 C3532 0.949 . S
H3528 C3534 0.950 . S
H3529 C3535 0.950 . S
H3530 C3536 0.949 . S
C3531 H3526 0.950 . S
C3531 C3533 1.327 . S
C3531 C3537 1.429 . S
C3532 C3524 1.574 . S
C3532 H3527 0.949 . S
C3532 C3538 1.368 . S
C3533 C3517 1.349 . S
C3533 H3525 0.950 . S
C3533 C3531 1.327 . S
C3534 C3522 1.349 . S
C3534 H3528 0.950 . S
C3534 C3535 1.327 . S
C3535 H3529 0.950 . S
C3535 C3534 1.327 . S
C3535 C3539 1.429 . S
C3536 C3519 1.574 . S
C3536 H3530 0.949 . S
C3536 C3540 1.368 . S
C3537 C3518 1.429 . S
C3537 C3531 1.429 . S
C3537 C3538 1.523 . S
C3538 C3519 1.368 1_545 S
C3538 C3532 1.368 . S
C3538 C3537 1.523 . S
C3539 C3523 1.429 . S
C3539 C3535 1.429 . S
C3539 C3540 1.523 . S
C3540 C3524 1.368 1_565 S
C3540 C3536 1.368 . S
C3540 C3539 1.523 . S
H3541 C3516 0.950 . S
H3542 C3518 0.950 . S
H3543 C3519 0.949 . S
H3544 C3521 0.950 . S
H3545 C3523 0.950 . S
C3546 C3547 1.349 . S
C3546 C3548 1.327 . S
C3546 H3571 0.950 . S
C3547 C3546 1.349 . S
C3547 C3563 1.349 . S
C3548 C3546 1.327 . S
C3548 C3567 1.429 . S
C3548 H3572 0.950 . S
C3549 C3566 1.574 . S
C3549 C3568 1.368 . S
C3549 H3573 0.949 . S
H3550 C3554 0.949 . S
C3551 C3552 1.349 . S
C3551 C3553 1.327 . S
C3551 H3574 0.950 . S
C3552 C3551 1.349 . S
C3552 C3564 1.349 . S
C3553 C3551 1.327 . S
C3553 C3569 1.429 . S
C3553 H3575 0.950 . S
C3554 H3550 0.949 . S
C3554 C3562 1.574 . S
C3554 C3570 1.368 . S
H3555 C3563 0.950 . S
H3556 C3561 0.950 . S
H3557 C3562 0.949 . S
H3558 C3564 0.950 . S
H3559 C3565 0.950 . S
H3560 C3566 0.949 . S
C3561 H3556 0.950 . S
C3561 C3563 1.327 . S
C3561 C3567 1.429 . S
C3562 C3554 1.574 . S
C3562 H3557 0.949 . S
C3562 C3568 1.368 1_455 S
C3563 C3547 1.349 . S
C3563 H3555 0.950 . S
C3563 C3561 1.327 . S
C3564 C3552 1.349 . S
C3564 H3558 0.950 . S
C3564 C3565 1.327 . S
C3565 H3559 0.950 . S
C3565 C3564 1.327 . S
C3565 C3569 1.429 . S
C3566 C3549 1.574 . S
C3566 H3560 0.949 . S
C3566 C3570 1.368 1_655 S
C3567 C3548 1.429 . S
C3567 C3561 1.429 . S
C3567 C3568 1.523 . S
C3568 C3549 1.368 . S
C3568 C3562 1.368 1_655 S
C3568 C3567 1.523 . S
C3569 C3553 1.429 . S
C3569 C3565 1.429 . S
C3569 C3570 1.523 . S
C3570 C3554 1.368 . S
C3570 C3566 1.368 1_455 S
C3570 C3569 1.523 . S
H3571 C3546 0.950 . S
H3572 C3548 0.950 . S
H3573 C3549 0.949 . S
H3574 C3551 0.950 . S
H3575 C3553 0.950 . S
C3576 C3577 1.349 . S
C3576 C3578 1.327 . S
C3576 H3601 0.950 . S
C3577 C3576 1.349 . S
C3577 C3593 1.349 . S
C3578 C3576 1.327 . S
C3578 C3597 1.429 . S
C3578 H3602 0.950 . S
C3579 C3596 1.574 . S
C3579 C3598 1.368 . S
C3579 H3603 0.949 . S
H3580 C3584 0.949 . S
C3581 C3582 1.349 . S
C3581 C3583 1.327 . S
C3581 H3604 0.950 . S
C3582 C3581 1.349 . S
C3582 C3594 1.349 . S
C3583 C3581 1.327 . S
C3583 C3599 1.429 . S
C3583 H3605 0.950 . S
C3584 H3580 0.949 . S
C3584 C3592 1.574 . S
C3584 C3600 1.368 . S
H3585 C3593 0.950 . S
H3586 C3591 0.950 . S
H3587 C3592 0.949 . S
H3588 C3594 0.950 . S
H3589 C3595 0.950 . S
H3590 C3596 0.949 . S
C3591 H3586 0.950 . S
C3591 C3593 1.327 . S
C3591 C3597 1.429 . S
C3592 C3584 1.574 . S
C3592 H3587 0.949 . S
C3592 C3598 1.368 . S
C3593 C3577 1.349 . S
C3593 H3585 0.950 . S
C3593 C3591 1.327 . S
C3594 C3582 1.349 . S
C3594 H3588 0.950 . S
C3594 C3595 1.327 . S
C3595 H3589 0.950 . S
C3595 C3594 1.327 . S
C3595 C3599 1.429 . S
C3596 C3579 1.574 . S
C3596 H3590 0.949 . S
C3596 C3600 1.368 . S
C3597 C3578 1.429 . S
C3597 C3591 1.429 . S
C3597 C3598 1.523 . S
C3598 C3579 1.368 . S
C3598 C3592 1.368 . S
C3598 C3597 1.523 . S
C3599 C3583 1.429 . S
C3599 C3595 1.429 . S
C3599 C3600 1.523 . S
C3600 C3584 1.368 . S
C3600 C3596 1.368 . S
C3600 C3599 1.523 . S
H3601 C3576 0.950 . S
H3602 C3578 0.950 . S
H3603 C3579 0.949 . S
H3604 C3581 0.950 . S
H3605 C3583 0.950 . S
C3606 C3607 1.349 . S
C3606 C3608 1.327 . S
C3606 H3631 0.950 . S
C3607 C3606 1.349 . S
C3607 C3623 1.349 . S
C3608 C3606 1.327 . S
C3608 C3627 1.429 . S
C3608 H3632 0.950 . S
C3609 C3626 1.574 . S
C3609 C3628 1.368 1_565 S
C3609 H3633 0.949 . S
H3610 C3614 0.949 . S
C3611 C3612 1.349 . S
C3611 C3613 1.327 . S
C3611 H3634 0.950 . S
C3612 C3611 1.349 . S
C3612 C3624 1.349 . S
C3613 C3611 1.327 . S
C3613 C3629 1.429 . S
C3613 H3635 0.950 . S
C3614 H3610 0.949 . S
C3614 C3622 1.574 . S
C3614 C3630 1.368 1_545 S
H3615 C3623 0.950 . S
H3616 C3621 0.950 . S
H3617 C3622 0.949 . S
H3618 C3624 0.950 . S
H3619 C3625 0.950 . S
H3620 C3626 0.949 . S
C3621 H3616 0.950 . S
C3621 C3623 1.327 . S
C3621 C3627 1.429 . S
C3622 C3614 1.574 . S
C3622 H3617 0.949 . S
C3622 C3628 1.368 . S
C3623 C3607 1.349 . S
C3623 H3615 0.950 . S
C3623 C3621 1.327 . S
C3624 C3612 1.349 . S
C3624 H3618 0.950 . S
C3624 C3625 1.327 . S
C3625 H3619 0.950 . S
C3625 C3624 1.327 . S
C3625 C3629 1.429 . S
C3626 C3609 1.574 . S
C3626 H3620 0.949 . S
C3626 C3630 1.368 . S
C3627 C3608 1.429 . S
C3627 C3621 1.429 . S
C3627 C3628 1.523 . S
C3628 C3609 1.368 1_545 S
C3628 C3622 1.368 . S
C3628 C3627 1.523 . S
C3629 C3613 1.429 . S
C3629 C3625 1.429 . S
C3629 C3630 1.523 . S
C3630 C3614 1.368 1_565 S
C3630 C3626 1.368 . S
C3630 C3629 1.523 . S
H3631 C3606 0.950 . S
H3632 C3608 0.950 . S
H3633 C3609 0.949 . S
H3634 C3611 0.950 . S
H3635 C3613 0.950 . S
C3636 C3637 1.349 . S
C3636 C3638 1.327 . S
C3636 H3661 0.950 . S
C3637 C3636 1.349 . S
C3637 C3653 1.349 . S
C3638 C3636 1.327 . S
C3638 C3657 1.429 . S
C3638 H3662 0.950 . S
C3639 C3656 1.574 . S
C3639 C3658 1.368 . S
C3639 H3663 0.949 . S
H3640 C3644 0.949 . S
C3641 C3642 1.349 . S
C3641 C3643 1.327 . S
C3641 H3664 0.950 . S
C3642 C3641 1.349 . S
C3642 C3654 1.349 . S
C3643 C3641 1.327 . S
C3643 C3659 1.429 . S
C3643 H3665 0.950 . S
C3644 H3640 0.949 . S
C3644 C3652 1.574 . S
C3644 C3660 1.368 . S
H3645 C3653 0.950 . S
H3646 C3651 0.950 . S
H3647 C3652 0.949 . S
H3648 C3654 0.950 . S
H3649 C3655 0.950 . S
H3650 C3656 0.949 . S
C3651 H3646 0.950 . S
C3651 C3653 1.327 . S
C3651 C3657 1.429 . S
C3652 C3644 1.574 . S
C3652 H3647 0.949 . S
C3652 C3658 1.368 . S
C3653 C3637 1.349 . S
C3653 H3645 0.950 . S
C3653 C3651 1.327 . S
C3654 C3642 1.349 . S
C3654 H3648 0.950 . S
C3654 C3655 1.327 . S
C3655 H3649 0.950 . S
C3655 C3654 1.327 . S
C3655 C3659 1.429 . S
C3656 C3639 1.574 . S
C3656 H3650 0.949 . S
C3656 C3660 1.368 . S
C3657 C3638 1.429 . S
C3657 C3651 1.429 . S
C3657 C3658 1.523 . S
C3658 C3639 1.368 . S
C3658 C3652 1.368 . S
C3658 C3657 1.523 . S
C3659 C3643 1.429 . S
C3659 C3655 1.429 . S
C3659 C3660 1.523 . S
C3660 C3644 1.368 . S
C3660 C3656 1.368 . S
C3660 C3659 1.523 . S
H3661 C3636 0.950 . S
H3662 C3638 0.950 . S
H3663 C3639 0.949 . S
H3664 C3641 0.950 . S
H3665 C3643 0.950 . S
C3666 C3667 1.349 . S
C3666 C3668 1.327 . S
C3666 H3691 0.950 . S
C3667 C3666 1.349 . S
C3667 C3683 1.349 . S
C3668 C3666 1.327 . S
C3668 C3687 1.429 . S
C3668 H3692 0.950 . S
C3669 C3686 1.574 . S
C3669 C3688 1.368 . S
C3669 H3693 0.949 . S
H3670 C3674 0.949 . S
C3671 C3672 1.349 . S
C3671 C3673 1.327 . S
C3671 H3694 0.950 . S
C3672 C3671 1.349 . S
C3672 C3684 1.349 . S
C3673 C3671 1.327 . S
C3673 C3689 1.429 . S
C3673 H3695 0.950 . S
C3674 H3670 0.949 . S
C3674 C3682 1.574 . S
C3674 C3690 1.368 . S
H3675 C3683 0.950 . S
H3676 C3681 0.950 . S
H3677 C3682 0.949 . S
H3678 C3684 0.950 . S
H3679 C3685 0.950 . S
H3680 C3686 0.949 . S
C3681 H3676 0.950 . S
C3681 C3683 1.327 . S
C3681 C3687 1.429 . S
C3682 C3674 1.574 . S
C3682 H3677 0.949 . S
C3682 C3688 1.368 . S
C3683 C3667 1.349 . S
C3683 H3675 0.950 . S
C3683 C3681 1.327 . S
C3684 C3672 1.349 . S
C3684 H3678 0.950 . S
C3684 C3685 1.327 . S
C3685 H3679 0.950 . S
C3685 C3684 1.327 . S
C3685 C3689 1.429 . S
C3686 C3669 1.574 . S
C3686 H3680 0.949 . S
C3686 C3690 1.368 . S
C3687 C3668 1.429 . S
C3687 C3681 1.429 . S
C3687 C3688 1.523 . S
C3688 C3669 1.368 . S
C3688 C3682 1.368 . S
C3688 C3687 1.523 . S
C3689 C3673 1.429 . S
C3689 C3685 1.429 . S
C3689 C3690 1.523 . S
C3690 C3674 1.368 . S
C3690 C3686 1.368 . S
C3690 C3689 1.523 . S
H3691 C3666 0.950 . S
H3692 C3668 0.950 . S
H3693 C3669 0.949 . S
H3694 C3671 0.950 . S
H3695 C3673 0.950 . S
C3696 C3697 1.349 . S
C3696 C3698 1.327 . S
C3696 H3721 0.950 . S
C3697 C3696 1.349 . S
C3697 C3713 1.349 . S
C3698 C3696 1.327 . S
C3698 C3717 1.429 . S
C3698 H3722 0.950 . S
C3699 C3716 1.574 . S
C3699 C3718 1.368 . S
C3699 H3723 0.949 . S
H3700 C3704 0.949 . S
C3701 C3702 1.349 . S
C3701 C3703 1.327 . S
C3701 H3724 0.950 . S
C3702 C3701 1.349 . S
C3702 C3714 1.349 . S
C3703 C3701 1.327 . S
C3703 C3719 1.429 . S
C3703 H3725 0.950 . S
C3704 H3700 0.949 . S
C3704 C3712 1.574 . S
C3704 C3720 1.368 . S
H3705 C3713 0.950 . S
H3706 C3711 0.950 . S
H3707 C3712 0.949 . S
H3708 C3714 0.950 . S
H3709 C3715 0.950 . S
H3710 C3716 0.949 . S
C3711 H3706 0.950 . S
C3711 C3713 1.327 . S
C3711 C3717 1.429 . S
C3712 C3704 1.574 . S
C3712 H3707 0.949 . S
C3712 C3718 1.368 . S
C3713 C3697 1.349 . S
C3713 H3705 0.950 . S
C3713 C3711 1.327 . S
C3714 C3702 1.349 . S
C3714 H3708 0.950 . S
C3714 C3715 1.327 . S
C3715 H3709 0.950 . S
C3715 C3714 1.327 . S
C3715 C3719 1.429 . S
C3716 C3699 1.574 . S
C3716 H3710 0.949 . S
C3716 C3720 1.368 . S
C3717 C3698 1.429 . S
C3717 C3711 1.429 . S
C3717 C3718 1.523 . S
C3718 C3699 1.368 . S
C3718 C3712 1.368 . S
C3718 C3717 1.523 . S
C3719 C3703 1.429 . S
C3719 C3715 1.429 . S
C3719 C3720 1.523 . S
C3720 C3704 1.368 . S
C3720 C3716 1.368 . S
C3720 C3719 1.523 . S
H3721 C3696 0.950 . S
H3722 C3698 0.950 . S
H3723 C3699 0.949 . S
H3724 C3701 0.950 . S
H3725 C3703 0.950 . S
C3726 C3727 1.349 . S
C3726 C3728 1.327 . S
C3726 H3751 0.950 . S
C3727 C3726 1.349 . S
C3727 C3743 1.349 . S
C3728 C3726 1.327 . S
C3728 C3747 1.429 . S
C3728 H3752 0.950 . S
C3729 C3746 1.574 . S
C3729 C3748 1.368 . S
C3729 H3753 0.949 . S
H3730 C3734 0.949 . S
C3731 C3732 1.349 . S
C3731 C3733 1.327 . S
C3731 H3754 0.950 . S
C3732 C3731 1.349 . S
C3732 C3744 1.349 . S
C3733 C3731 1.327 . S
C3733 C3749 1.429 . S
C3733 H3755 0.950 . S
C3734 H3730 0.949 . S
C3734 C3742 1.574 . S
C3734 C3750 1.368 . S
H3735 C3743 0.950 . S
H3736 C3741 0.950 . S
H3737 C3742 0.949 . S
H3738 C3744 0.950 . S
H3739 C3745 0.950 . S
H3740 C3746 0.949 . S
C3741 H3736 0.950 . S
C3741 C3743 1.327 . S
C3741 C3747 1.429 . S
C3742 C3734 1.574 . S
C3742 H3737 0.949 . S
C3742 C3748 1.368 . S
C3743 C3727 1.349 . S
C3743 H3735 0.950 . S
C3743 C3741 1.327 . S
C3744 C3732 1.349 . S
C3744 H3738 0.950 . S
C3744 C3745 1.327 . S
C3745 H3739 0.950 . S
C3745 C3744 1.327 . S
C3745 C3749 1.429 . S
C3746 C3729 1.574 . S
C3746 H3740 0.949 . S
C3746 C3750 1.368 . S
C3747 C3728 1.429 . S
C3747 C3741 1.429 . S
C3747 C3748 1.523 . S
C3748 C3729 1.368 . S
C3748 C3742 1.368 . S
C3748 C3747 1.523 . S
C3749 C3733 1.429 . S
C3749 C3745 1.429 . S
C3749 C3750 1.523 . S
C3750 C3734 1.368 . S
C3750 C3746 1.368 . S
C3750 C3749 1.523 . S
H3751 C3726 0.950 . S
H3752 C3728 0.950 . S
H3753 C3729 0.949 . S
H3754 C3731 0.950 . S
H3755 C3733 0.950 . S
C3756 C3757 1.349 . S
C3756 C3758 1.327 . S
C3756 H3781 0.950 . S
C3757 C3756 1.349 . S
C3757 C3773 1.349 . S
C3758 C3756 1.327 . S
C3758 C3777 1.429 . S
C3758 H3782 0.950 . S
C3759 C3776 1.574 . S
C3759 C3778 1.368 . S
C3759 H3783 0.949 . S
H3760 C3764 0.949 . S
C3761 C3762 1.349 . S
C3761 C3763 1.327 . S
C3761 H3784 0.950 . S
C3762 C3761 1.349 . S
C3762 C3774 1.349 . S
C3763 C3761 1.327 . S
C3763 C3779 1.429 . S
C3763 H3785 0.950 . S
C3764 H3760 0.949 . S
C3764 C3772 1.574 . S
C3764 C3780 1.368 . S
H3765 C3773 0.950 . S
H3766 C3771 0.950 . S
H3767 C3772 0.949 . S
H3768 C3774 0.950 . S
H3769 C3775 0.950 . S
H3770 C3776 0.949 . S
C3771 H3766 0.950 . S
C3771 C3773 1.327 . S
C3771 C3777 1.429 . S
C3772 C3764 1.574 . S
C3772 H3767 0.949 . S
C3772 C3778 1.368 . S
C3773 C3757 1.349 . S
C3773 H3765 0.950 . S
C3773 C3771 1.327 . S
C3774 C3762 1.349 . S
C3774 H3768 0.950 . S
C3774 C3775 1.327 . S
C3775 H3769 0.950 . S
C3775 C3774 1.327 . S
C3775 C3779 1.429 . S
C3776 C3759 1.574 . S
C3776 H3770 0.949 . S
C3776 C3780 1.368 . S
C3777 C3758 1.429 . S
C3777 C3771 1.429 . S
C3777 C3778 1.523 . S
C3778 C3759 1.368 . S
C3778 C3772 1.368 . S
C3778 C3777 1.523 . S
C3779 C3763 1.429 . S
C3779 C3775 1.429 . S
C3779 C3780 1.523 . S
C3780 C3764 1.368 . S
C3780 C3776 1.368 . S
C3780 C3779 1.523 . S
H3781 C3756 0.950 . S
H3782 C3758 0.950 . S
H3783 C3759 0.949 . S
H3784 C3761 0.950 . S
H3785 C3763 0.950 . S
C3786 C3787 1.349 . S
C3786 C3788 1.327 . S
C3786 H3811 0.950 . S
C3787 C3786 1.349 . S
C3787 C3803 1.349 . S
C3788 C3786 1.327 . S
C3788 C3807 1.429 . S
C3788 H3812 0.950 . S
C3789 C3806 1.574 . S
C3789 C3808 1.368 . S
C3789 H3813 0.949 . S
H3790 C3794 0.949 . S
C3791 C3792 1.349 . S
C3791 C3793 1.327 . S
C3791 H3814 0.950 . S
C3792 C3791 1.349 . S
C3792 C3804 1.349 . S
C3793 C3791 1.327 . S
C3793 C3809 1.429 . S
C3793 H3815 0.950 . S
C3794 H3790 0.949 . S
C3794 C3802 1.574 . S
C3794 C3810 1.368 . S
H3795 C3803 0.950 . S
H3796 C3801 0.950 . S
H3797 C3802 0.949 . S
H3798 C3804 0.950 . S
H3799 C3805 0.950 . S
H3800 C3806 0.949 . S
C3801 H3796 0.950 . S
C3801 C3803 1.327 . S
C3801 C3807 1.429 . S
C3802 C3794 1.574 . S
C3802 H3797 0.949 . S
C3802 C3808 1.368 . S
C3803 C3787 1.349 . S
C3803 H3795 0.950 . S
C3803 C3801 1.327 . S
C3804 C3792 1.349 . S
C3804 H3798 0.950 . S
C3804 C3805 1.327 . S
C3805 H3799 0.950 . S
C3805 C3804 1.327 . S
C3805 C3809 1.429 . S
C3806 C3789 1.574 . S
C3806 H3800 0.949 . S
C3806 C3810 1.368 . S
C3807 C3788 1.429 . S
C3807 C3801 1.429 . S
C3807 C3808 1.523 . S
C3808 C3789 1.368 . S
C3808 C3802 1.368 . S
C3808 C3807 1.523 . S
C3809 C3793 1.429 . S
C3809 C3805 1.429 . S
C3809 C3810 1.523 . S
C3810 C3794 1.368 . S
C3810 C3806 1.368 . S
C3810 C3809 1.523 . S
H3811 C3786 0.950 . S
H3812 C3788 0.950 . S
H3813 C3789 0.949 . S
H3814 C3791 0.950 . S
H3815 C3793 0.950 . S
C3816 C3817 1.349 . S
C3816 C3818 1.327 . S
C3816 H3841 0.950 . S
C3817 C3816 1.349 . S
C3817 C3833 1.349 . S
C3818 C3816 1.327 . S
C3818 C3837 1.429 . S
C3818 H3842 0.950 . S
C3819 C3836 1.574 . S
C3819 C3838 1.368 . S
C3819 H3843 0.949 . S
H3820 C3824 0.949 . S
C3821 C3822 1.349 . S
C3821 C3823 1.327 . S
C3821 H3844 0.950 . S
C3822 C3821 1.349 . S
C3822 C3834 1.349 . S
C3823 C3821 1.327 . S
C3823 C3839 1.429 . S
C3823 H3845 0.950 . S
C3824 H3820 0.949 . S
C3824 C3832 1.574 . S
C3824 C3840 1.368 . S
H3825 C3833 0.950 . S
H3826 C3831 0.950 . S
H3827 C3832 0.949 . S
H3828 C3834 0.950 . S
H3829 C3835 0.950 . S
H3830 C3836 0.949 . S
C3831 H3826 0.950 . S
C3831 C3833 1.327 . S
C3831 C3837 1.429 . S
C3832 C3824 1.574 . S
C3832 H3827 0.949 . S
C3832 C3838 1.368 . S
C3833 C3817 1.349 . S
C3833 H3825 0.950 . S
C3833 C3831 1.327 . S
C3834 C3822 1.349 . S
C3834 H3828 0.950 . S
C3834 C3835 1.327 . S
C3835 H3829 0.950 . S
C3835 C3834 1.327 . S
C3835 C3839 1.429 . S
C3836 C3819 1.574 . S
C3836 H3830 0.949 . S
C3836 C3840 1.368 . S
C3837 C3818 1.429 . S
C3837 C3831 1.429 . S
C3837 C3838 1.523 . S
C3838 C3819 1.368 . S
C3838 C3832 1.368 . S
C3838 C3837 1.523 . S
C3839 C3823 1.429 . S
C3839 C3835 1.429 . S
C3839 C3840 1.523 . S
C3840 C3824 1.368 . S
C3840 C3836 1.368 . S
C3840 C3839 1.523 . S
H3841 C3816 0.950 . S
H3842 C3818 0.950 . S
H3843 C3819 0.949 . S
H3844 C3821 0.950 . S
H3845 C3823 0.950 . S
C3846 C3847 1.349 . S
C3846 C3848 1.327 . S
C3846 H3871 0.950 . S
C3847 C3846 1.349 . S
C3847 C3863 1.349 . S
C3848 C3846 1.327 . S
C3848 C3867 1.429 . S
C3848 H3872 0.950 . S
C3849 C3866 1.574 . S
C3849 C3868 1.368 . S
C3849 H3873 0.949 . S
H3850 C3854 0.949 . S
C3851 C3852 1.349 . S
C3851 C3853 1.327 . S
C3851 H3874 0.950 . S
C3852 C3851 1.349 . S
C3852 C3864 1.349 . S
C3853 C3851 1.327 . S
C3853 C3869 1.429 . S
C3853 H3875 0.950 . S
C3854 H3850 0.949 . S
C3854 C3862 1.574 . S
C3854 C3870 1.368 . S
H3855 C3863 0.950 . S
H3856 C3861 0.950 . S
H3857 C3862 0.949 . S
H3858 C3864 0.950 . S
H3859 C3865 0.950 . S
H3860 C3866 0.949 . S
C3861 H3856 0.950 . S
C3861 C3863 1.327 . S
C3861 C3867 1.429 . S
C3862 C3854 1.574 . S
C3862 H3857 0.949 . S
C3862 C3868 1.368 . S
C3863 C3847 1.349 . S
C3863 H3855 0.950 . S
C3863 C3861 1.327 . S
C3864 C3852 1.349 . S
C3864 H3858 0.950 . S
C3864 C3865 1.327 . S
C3865 H3859 0.950 . S
C3865 C3864 1.327 . S
C3865 C3869 1.429 . S
C3866 C3849 1.574 . S
C3866 H3860 0.949 . S
C3866 C3870 1.368 . S
C3867 C3848 1.429 . S
C3867 C3861 1.429 . S
C3867 C3868 1.523 . S
C3868 C3849 1.368 . S
C3868 C3862 1.368 . S
C3868 C3867 1.523 . S
C3869 C3853 1.429 . S
C3869 C3865 1.429 . S
C3869 C3870 1.523 . S
C3870 C3854 1.368 . S
C3870 C3866 1.368 . S
C3870 C3869 1.523 . S
H3871 C3846 0.950 . S
H3872 C3848 0.950 . S
H3873 C3849 0.949 . S
H3874 C3851 0.950 . S
H3875 C3853 0.950 . S
C3876 C3877 1.349 . S
C3876 C3878 1.327 . S
C3876 H3901 0.950 . S
C3877 C3876 1.349 . S
C3877 C3893 1.349 . S
C3878 C3876 1.327 . S
C3878 C3897 1.429 . S
C3878 H3902 0.950 . S
C3879 C3896 1.574 . S
C3879 C3898 1.368 . S
C3879 H3903 0.949 . S
H3880 C3884 0.949 . S
C3881 C3882 1.349 . S
C3881 C3883 1.327 . S
C3881 H3904 0.950 . S
C3882 C3881 1.349 . S
C3882 C3894 1.349 . S
C3883 C3881 1.327 . S
C3883 C3899 1.429 . S
C3883 H3905 0.950 . S
C3884 H3880 0.949 . S
C3884 C3892 1.574 . S
C3884 C3900 1.368 . S
H3885 C3893 0.950 . S
H3886 C3891 0.950 . S
H3887 C3892 0.949 . S
H3888 C3894 0.950 . S
H3889 C3895 0.950 . S
H3890 C3896 0.949 . S
C3891 H3886 0.950 . S
C3891 C3893 1.327 . S
C3891 C3897 1.429 . S
C3892 C3884 1.574 . S
C3892 H3887 0.949 . S
C3892 C3898 1.368 . S
C3893 C3877 1.349 . S
C3893 H3885 0.950 . S
C3893 C3891 1.327 . S
C3894 C3882 1.349 . S
C3894 H3888 0.950 . S
C3894 C3895 1.327 . S
C3895 H3889 0.950 . S
C3895 C3894 1.327 . S
C3895 C3899 1.429 . S
C3896 C3879 1.574 . S
C3896 H3890 0.949 . S
C3896 C3900 1.368 . S
C3897 C3878 1.429 . S
C3897 C3891 1.429 . S
C3897 C3898 1.523 . S
C3898 C3879 1.368 . S
C3898 C3892 1.368 . S
C3898 C3897 1.523 . S
C3899 C3883 1.429 . S
C3899 C3895 1.429 . S
C3899 C3900 1.523 . S
C3900 C3884 1.368 . S
C3900 C3896 1.368 . S
C3900 C3899 1.523 . S
H3901 C3876 0.950 . S
H3902 C3878 0.950 . S
H3903 C3879 0.949 . S
H3904 C3881 0.950 . S
H3905 C3883 0.950 . S
C3906 C3907 1.349 . S
C3906 C3908 1.327 . S
C3906 H3931 0.950 . S
C3907 C3906 1.349 . S
C3907 C3923 1.349 . S
C3908 C3906 1.327 . S
C3908 C3927 1.429 . S
C3908 H3932 0.950 . S
C3909 C3926 1.574 . S
C3909 C3928 1.368 . S
C3909 H3933 0.949 . S
H3910 C3914 0.949 . S
C3911 C3912 1.349 . S
C3911 C3913 1.327 . S
C3911 H3934 0.950 . S
C3912 C3911 1.349 . S
C3912 C3924 1.349 . S
C3913 C3911 1.327 . S
C3913 C3929 1.429 . S
C3913 H3935 0.950 . S
C3914 H3910 0.949 . S
C3914 C3922 1.574 . S
C3914 C3930 1.368 . S
H3915 C3923 0.950 . S
H3916 C3921 0.950 . S
H3917 C3922 0.949 . S
H3918 C3924 0.950 . S
H3919 C3925 0.950 . S
H3920 C3926 0.949 . S
C3921 H3916 0.950 . S
C3921 C3923 1.327 . S
C3921 C3927 1.429 . S
C3922 C3914 1.574 . S
C3922 H3917 0.949 . S
C3922 C3928 1.368 . S
C3923 C3907 1.349 . S
C3923 H3915 0.950 . S
C3923 C3921 1.327 . S
C3924 C3912 1.349 . S
C3924 H3918 0.950 . S
C3924 C3925 1.327 . S
C3925 H3919 0.950 . S
C3925 C3924 1.327 . S
C3925 C3929 1.429 . S
C3926 C3909 1.574 . S
C3926 H3920 0.949 . S
C3926 C3930 1.368 . S
C3927 C3908 1.429 . S
C3927 C3921 1.429 . S
C3927 C3928 1.523 . S
C3928 C3909 1.368 . S
C3928 C3922 1.368 . S
C3928 C3927 1.523 . S
C3929 C3913 1.429 . S
C3929 C3925 1.429 . S
C3929 C3930 1.523 . S
C3930 C3914 1.368 . S
C3930 C3926 1.368 . S
C3930 C3929 1.523 . S
H3931 C3906 0.950 . S
H3932 C3908 0.950 . S
H3933 C3909 0.949 . S
H3934 C3911 0.950 . S
H3935 C3913 0.950 . S
C3936 C3937 1.349 . S
C3936 C3938 1.327 . S
C3936 H3961 0.950 . S
C3937 C3936 1.349 . S
C3937 C3953 1.349 . S
C3938 C3936 1.327 . S
C3938 C3957 1.429 . S
C3938 H3962 0.950 . S
C3939 C3956 1.574 . S
C3939 C3958 1.368 . S
C3939 H3963 0.949 . S
H3940 C3944 0.949 . S
C3941 C3942 1.349 . S
C3941 C3943 1.327 . S
C3941 H3964 0.950 . S
C3942 C3941 1.349 . S
C3942 C3954 1.349 . S
C3943 C3941 1.327 . S
C3943 C3959 1.429 . S
C3943 H3965 0.950 . S
C3944 H3940 0.949 . S
C3944 C3952 1.574 . S
C3944 C3960 1.368 . S
H3945 C3953 0.950 . S
H3946 C3951 0.950 . S
H3947 C3952 0.949 . S
H3948 C3954 0.950 . S
H3949 C3955 0.950 . S
H3950 C3956 0.949 . S
C3951 H3946 0.950 . S
C3951 C3953 1.327 . S
C3951 C3957 1.429 . S
C3952 C3944 1.574 . S
C3952 H3947 0.949 . S
C3952 C3958 1.368 . S
C3953 C3937 1.349 . S
C3953 H3945 0.950 . S
C3953 C3951 1.327 . S
C3954 C3942 1.349 . S
C3954 H3948 0.950 . S
C3954 C3955 1.327 . S
C3955 H3949 0.950 . S
C3955 C3954 1.327 . S
C3955 C3959 1.429 . S
C3956 C3939 1.574 . S
C3956 H3950 0.949 . S
C3956 C3960 1.368 . S
C3957 C3938 1.429 . S
C3957 C3951 1.429 . S
C3957 C3958 1.523 . S
C3958 C3939 1.368 . S
C3958 C3952 1.368 . S
C3958 C3957 1.523 . S
C3959 C3943 1.429 . S
C3959 C3955 1.429 . S
C3959 C3960 1.523 . S
C3960 C3944 1.368 . S
C3960 C3956 1.368 . S
C3960 C3959 1.523 . S
H3961 C3936 0.950 . S
H3962 C3938 0.950 . S
H3963 C3939 0.949 . S
H3964 C3941 0.950 . S
H3965 C3943 0.950 . S
C3966 C3967 1.349 . S
C3966 C3968 1.327 . S
C3966 H3991 0.950 . S
C3967 C3966 1.349 . S
C3967 C3983 1.349 . S
C3968 C3966 1.327 . S
C3968 C3987 1.429 . S
C3968 H3992 0.950 . S
C3969 C3986 1.574 . S
C3969 C3988 1.368 . S
C3969 H3993 0.949 . S
H3970 C3974 0.949 . S
C3971 C3972 1.349 . S
C3971 C3973 1.327 . S
C3971 H3994 0.950 . S
C3972 C3971 1.349 . S
C3972 C3984 1.349 . S
C3973 C3971 1.327 . S
C3973 C3989 1.429 . S
C3973 H3995 0.950 . S
C3974 H3970 0.949 . S
C3974 C3982 1.574 . S
C3974 C3990 1.368 . S
H3975 C3983 0.950 . S
H3976 C3981 0.950 . S
H3977 C3982 0.949 . S
H3978 C3984 0.950 . S
H3979 C3985 0.950 . S
H3980 C3986 0.949 . S
C3981 H3976 0.950 . S
C3981 C3983 1.327 . S
C3981 C3987 1.429 . S
C3982 C3974 1.574 . S
C3982 H3977 0.949 . S
C3982 C3988 1.368 . S
C3983 C3967 1.349 . S
C3983 H3975 0.950 . S
C3983 C3981 1.327 . S
C3984 C3972 1.349 . S
C3984 H3978 0.950 . S
C3984 C3985 1.327 . S
C3985 H3979 0.950 . S
C3985 C3984 1.327 . S
C3985 C3989 1.429 . S
C3986 C3969 1.574 . S
C3986 H3980 0.949 . S
C3986 C3990 1.368 . S
C3987 C3968 1.429 . S
C3987 C3981 1.429 . S
C3987 C3988 1.523 . S
C3988 C3969 1.368 . S
C3988 C3982 1.368 . S
C3988 C3987 1.523 . S
C3989 C3973 1.429 . S
C3989 C3985 1.429 . S
C3989 C3990 1.523 . S
C3990 C3974 1.368 . S
C3990 C3986 1.368 . S
C3990 C3989 1.523 . S
H3991 C3966 0.950 . S
H3992 C3968 0.950 . S
H3993 C3969 0.949 . S
H3994 C3971 0.950 . S
H3995 C3973 0.950 . S
C757 C14 1.241 . S
C762 C60 1.195 . S
C787 C18 1.195 . S
C792 C35 1.241 . S
C817 C56 1.241 . S
C822 C39 1.195 . S
C847 C77 1.254 . S
C852 C102 1.209 . S
C877 C123 1.209 . S
C882 C98 1.254 . S
C907 C119 1.254 . S
C912 C81 1.209 . S
C937 C143 1.241 . S
C942 C183 1.195 . S
C967 C164 1.241 . S
C972 C141 1.195 . S
C997 C185 1.241 . S
C1002 C162 1.195 . S
C1027 C203 1.254 . S
C1032 C228 1.209 . S
C1057 C249 1.209 . S
C1062 C224 1.254 . S
C1087 C207 1.209 . S
C1092 C245 1.254 . S
C1117 C312 1.205 . S
C1122 C266 1.251 . S
C1147 C287 1.251 . S
C1152 C270 1.205 . S
C1177 C291 1.205 . S
C1182 C308 1.251 . S
C1207 C329 1.258 . S
C1212 C354 1.212 . S
C1237 C375 1.212 . S
C1242 C350 1.258 . S
C1267 C333 1.212 . S
C1272 C371 1.258 . S
C1297 C395 1.247 . S
C1302 C435 1.201 . S
C1327 C416 1.247 . S
C1332 C393 1.200 . S
C1357 C414 1.201 . S
C1362 C437 1.247 . S
C1387 C480 1.199 . S
C1392 C455 1.242 . S
C1417 C476 1.241 . S
C1422 C501 1.199 . S
C1447 C459 1.199 . S
C1452 C497 1.242 . S
C1477 C518 1.247 . S
C1482 C564 1.200 . S
C1507 C539 1.247 . S
C1512 C522 1.200 . S
C1537 C560 1.247 . S
C1542 C543 1.201 . S
C1567 C581 1.242 . S
C1572 C606 1.199 . S
C1597 C602 1.241 . S
C1602 C627 1.199 . S
C1627 C623 1.242 . S
C1632 C585 1.199 . S
C1657 C647 1.251 . S
C1662 C687 1.205 . S
C1687 C668 1.251 . S
C1692 C645 1.205 . S
C1717 C666 1.205 . S
C1722 C689 1.251 . S
C1747 C707 1.258 . S
C1752 C732 1.212 . S
C1777 C728 1.258 . S
C1782 C753 1.212 . S
C1807 C711 1.212 . S
C1812 C749 1.258 . S
C1837 C15 0.813 . S
C1842 C433 0.895 . S
C1867 C391 0.895 . S
C1872 C36 0.813 . S
C1897 C57 0.813 . S
C1902 C412 0.895 . S
C1927 C78 0.806 . S
C1932 C730 0.884 . S
C1957 C751 0.884 . S
C1962 C99 0.806 . S
C1987 C120 0.806 . S
C1992 C709 0.885 . S
C2017 C562 0.895 . S
C2022 C144 0.813 . S
C2047 C165 0.813 . S
C2052 C520 0.895 . S
C2077 C186 0.813 . S
C2082 C541 0.895 . S
C2107 C352 0.884 . S
C2112 C204 0.806 . S
C2137 C373 0.884 . S
C2142 C225 0.806 . S
C2167 C331 0.885 . S
C2172 C246 0.806 . S
C2197 C267 0.810 . S
C2202 C685 0.890 . S
C2227 C288 0.810 . S
C2232 C643 0.890 . S
C2257 C664 0.890 . S
C2262 C309 0.810 . S
C2287 C226 0.889 . S
C2292 C330 0.808 . S
C2317 C247 0.889 . S
C2322 C351 0.808 . S
C2347 C205 0.889 . S
C2352 C372 0.808 . S
C2377 C58 0.894 . S
C2382 C396 0.813 . S
C2407 C417 0.812 . S
C2412 C16 0.894 . S
C2437 C438 0.812 . S
C2442 C37 0.894 . S
C2467 C604 0.896 . S
C2472 C456 0.797 . S
C2497 C625 0.897 . S
C2502 C477 0.797 . S
C2527 C498 0.809 . S
C2532 C583 0.903 . S
C2557 C181 0.894 . S
C2562 C519 0.813 . S
C2587 C139 0.894 . S
C2592 C540 0.812 . S
C2617 C160 0.894 . S
C2622 C561 0.812 . S
C2647 C582 0.809 . S
C2652 C478 0.902 . S
C2677 C499 0.897 . S
C2682 C603 0.797 . S
C2707 C624 0.809 . S
C2712 C457 0.903 . S
C2737 C648 0.810 . S
C2742 C310 0.890 . S
C2767 C669 0.810 . S
C2772 C268 0.890 . S
C2797 C690 0.810 . S
C2802 C289 0.890 . S
C2827 C708 0.808 . S
C2832 C100 0.889 . S
C2857 C121 0.889 . S
C2862 C729 0.808 . S
C2887 C79 0.889 . S
C2892 C750 0.808 . S
C2917 C626 1.772 . S
C2922 C17 1.762 . S
C2947 C584 1.773 . S
C2952 C38 1.763 . S
C2977 C59 1.772 . S
C2982 C605 1.763 . S
C3007 C290 1.828 . S
C3012 C80 1.828 . S
C3037 C101 1.828 . S
C3042 C311 1.828 . S
C3067 C122 1.828 . S
C3072 C269 1.828 . S
C3097 C140 1.772 . S
C3102 C500 1.763 . S
C3127 C161 1.772 . S
C3132 C458 1.763 . S
C3157 C182 1.772 . S
C3162 C479 1.763 . S
C3187 C665 1.828 . S
C3192 C206 1.828 . S
C3217 C686 1.828 . S
C3222 C227 1.828 . S
C3247 C644 1.828 . S
C3252 C248 1.828 . S
C3277 C332 1.851 . S
C3282 C542 1.851 . S
C3307 C353 1.851 . S
C3312 C563 1.851 . S
C3337 C374 1.850 . S
C3342 C521 1.851 . S
C3367 C392 1.851 . S
C3372 C752 1.850 . S
C3397 C710 1.851 . S
C3402 C413 1.851 . S
C3427 C434 1.851 . S
C3432 C731 1.851 . S
C3457 C97 1.636 . S
C3462 C13 1.636 . S
C3487 C118 1.636 . S
C3492 C34 1.636 . S
C3517 C76 1.636 . S
C3522 C55 1.636 . S
C3547 C142 1.636 . S
C3552 C223 1.636 . S
C3577 C244 1.636 . S
C3582 C163 1.636 . S
C3607 C184 1.636 . S
C3612 C202 1.636 . S
C3637 C349 1.658 . S
C3642 C265 1.658 . S
C3667 C370 1.658 . S
C3672 C286 1.658 . S
C3697 C328 1.658 . S
C3702 C307 1.658 . S
C3727 C475 1.708 . S
C3732 C394 1.717 . S
C3757 C415 1.708 . S
C3762 C496 1.717 . S
C3787 C436 1.708 . S
C3792 C454 1.717 . S
C3817 C517 1.708 . S
C3822 C601 1.717 . S
C3847 C622 1.707 . S
C3852 C538 1.717 . S
C3877 C559 1.708 . S
C3882 C580 1.717 . S
C3907 C646 1.658 . S
C3912 C727 1.658 . S
C3937 C748 1.658 . S
C3942 C667 1.658 . S
C3967 C688 1.658 . S
C3972 C706 1.658 . S
