# Generated by pormake.
# Topology cag, (4)-cn, num edge types: 1
# Building blocks:
#     Node 0, Type 0, BuildingBlock: TATPOV_clean_sbu_0, # of connection points: 4
#     Node 1, Type 0, BuildingBlock: TATPOV_clean_sbu_0, # of connection points: 4
#     Node 2, Type 0, BuildingBlock: TATPOV_clean_sbu_0, # of connection points: 4
#     Node 3, Type 0, BuildingBlock: TATPOV_clean_sbu_0, # of connection points: 4
#     Node 4, Type 0, BuildingBlock: TATPOV_clean_sbu_0, # of connection points: 4
#     Node 5, Type 0, BuildingBlock: TATPOV_clean_sbu_0, # of connection points: 4
#     Node 6, Type 0, BuildingBlock: TATPOV_clean_sbu_0, # of connection points: 4
#     Node 7, Type 0, BuildingBlock: TATPOV_clean_sbu_0, # of connection points: 4
#     Node 8, Type 0, BuildingBlock: TATPOV_clean_sbu_0, # of connection points: 4
#     Node 9, Type 0, BuildingBlock: TATPOV_clean_sbu_0, # of connection points: 4
#     Node 10, Type 0, BuildingBlock: TATPOV_clean_sbu_0, # of connection points: 4
#     Node 11, Type 0, BuildingBlock: TATPOV_clean_sbu_0, # of connection points: 4
#     Node 12, Type 0, BuildingBlock: TATPOV_clean_sbu_0, # of connection points: 4
#     Node 13, Type 0, BuildingBlock: TATPOV_clean_sbu_0, # of connection points: 4
#     Node 14, Type 0, BuildingBlock: TATPOV_clean_sbu_0, # of connection points: 4
#     Node 15, Type 0, BuildingBlock: TATPOV_clean_sbu_0, # of connection points: 4
#     Edge 16, Type (0, 0), BuildingBlock: TEMPAE_clean_linker_10, # of connection points: 2
#     Edge 17, Type (0, 0), BuildingBlock: TEMPAE_clean_linker_10, # of connection points: 2
#     Edge 18, Type (0, 0), BuildingBlock: TEMPAE_clean_linker_10, # of connection points: 2
#     Edge 19, Type (0, 0), BuildingBlock: TEMPAE_clean_linker_10, # of connection points: 2
#     Edge 20, Type (0, 0), BuildingBlock: TEMPAE_clean_linker_10, # of connection points: 2
#     Edge 21, Type (0, 0), BuildingBlock: TEMPAE_clean_linker_10, # of connection points: 2
#     Edge 22, Type (0, 0), BuildingBlock: TEMPAE_clean_linker_10, # of connection points: 2
#     Edge 23, Type (0, 0), BuildingBlock: TEMPAE_clean_linker_10, # of connection points: 2
#     Edge 24, Type (0, 0), BuildingBlock: TEMPAE_clean_linker_10, # of connection points: 2
#     Edge 25, Type (0, 0), BuildingBlock: TEMPAE_clean_linker_10, # of connection points: 2
#     Edge 26, Type (0, 0), BuildingBlock: TEMPAE_clean_linker_10, # of connection points: 2
#     Edge 27, Type (0, 0), BuildingBlock: TEMPAE_clean_linker_10, # of connection points: 2
#     Edge 28, Type (0, 0), BuildingBlock: TEMPAE_clean_linker_10, # of connection points: 2
#     Edge 29, Type (0, 0), BuildingBlock: TEMPAE_clean_linker_10, # of connection points: 2
#     Edge 30, Type (0, 0), BuildingBlock: TEMPAE_clean_linker_10, # of connection points: 2
#     Edge 31, Type (0, 0), BuildingBlock: TEMPAE_clean_linker_10, # of connection points: 2
#     Edge 32, Type (0, 0), BuildingBlock: TEMPAE_clean_linker_10, # of connection points: 2
#     Edge 33, Type (0, 0), BuildingBlock: TEMPAE_clean_linker_10, # of connection points: 2
#     Edge 34, Type (0, 0), BuildingBlock: TEMPAE_clean_linker_10, # of connection points: 2
#     Edge 35, Type (0, 0), BuildingBlock: TEMPAE_clean_linker_10, # of connection points: 2
#     Edge 36, Type (0, 0), BuildingBlock: TEMPAE_clean_linker_10, # of connection points: 2
#     Edge 37, Type (0, 0), BuildingBlock: TEMPAE_clean_linker_10, # of connection points: 2
#     Edge 38, Type (0, 0), BuildingBlock: TEMPAE_clean_linker_10, # of connection points: 2
#     Edge 39, Type (0, 0), BuildingBlock: TEMPAE_clean_linker_10, # of connection points: 2
#     Edge 40, Type (0, 0), BuildingBlock: TEMPAE_clean_linker_10, # of connection points: 2
#     Edge 41, Type (0, 0), BuildingBlock: TEMPAE_clean_linker_10, # of connection points: 2
#     Edge 42, Type (0, 0), BuildingBlock: TEMPAE_clean_linker_10, # of connection points: 2
#     Edge 43, Type (0, 0), BuildingBlock: TEMPAE_clean_linker_10, # of connection points: 2
#     Edge 44, Type (0, 0), BuildingBlock: TEMPAE_clean_linker_10, # of connection points: 2
#     Edge 45, Type (0, 0), BuildingBlock: TEMPAE_clean_linker_10, # of connection points: 2
#     Edge 46, Type (0, 0), BuildingBlock: TEMPAE_clean_linker_10, # of connection points: 2
#     Edge 47, Type (0, 0), BuildingBlock: TEMPAE_clean_linker_10, # of connection points: 2
# Relax obj value: 0.024
# Max RMSD: 0.072
# Mean RMSD: 0.062
data_MOF--net-cag--node1-TATPOV_clean_sbu_0--edge1-TEMPAE_clean_linker_10
_symmetry_space_group_name_H-M    P1
_symmetry_Int_Tables_number       1
_symmetry_cell_setting            triclinic
loop_
_symmetry_equiv_pos_as_xyz
'x, y, z'
_cell_length_a     43.654089
_cell_length_b     48.810713
_cell_length_c     43.50835
_cell_angle_alpha  89.961831
_cell_angle_beta   90.02699
_cell_angle_gamma 89.971455
loop_
_atom_site_label
_atom_site_type_symbol
_atom_site_fract_x
_atom_site_fract_y
_atom_site_fract_z
_atom_type_partial_charge
Zn0 Zn 0.29539 0.14134 0.02375 0.0
Zn1 Zn 0.27252 0.13833 0.0804 0.0
O2 O 0.31867 0.14478 0.08703 0.0
O3 O 0.33841 0.14154 0.04067 0.0
O4 O 0.25718 0.13672 0.12445 0.0
O5 O 0.27332 0.17681 0.01704 0.0
O6 O 0.24876 0.17091 0.06081 0.0
C7 C 0.34193 0.14431 0.06938 0.0
C8 C 0.26413 0.09089 0.03468 0.0
O9 O 0.2631 0.10003 0.06213 0.0
O10 O 0.27493 0.10548 0.01321 0.0
C11 C 0.27109 0.12146 0.14369 0.0
O12 O 0.29395 0.10623 0.13398 0.0
C13 C 0.25311 0.18441 0.03605 0.0
Zn14 Zn 0.19057 0.85267 0.5141 0.0
Zn15 Zn 0.21399 0.85466 0.57097 0.0
O16 O 0.1679 0.8462 0.57613 0.0
O17 O 0.14888 0.84218 0.52954 0.0
O18 O 0.22746 0.85391 0.61578 0.0
O19 O 0.22201 0.82464 0.50253 0.0
O20 O 0.24005 0.82443 0.54986 0.0
C21 C 0.14522 0.84169 0.55837 0.0
C22 C 0.21437 0.90582 0.52967 0.0
O23 O 0.22235 0.89411 0.5547 0.0
O24 O 0.20015 0.8925 0.5092 0.0
C25 C 0.23314 0.8749 0.63217 0.0
O26 O 0.23244 0.89929 0.61941 0.0
C27 C 0.24071 0.81552 0.52228 0.0
Zn28 Zn 0.3048 0.84754 0.9801 0.0
Zn29 Zn 0.28629 0.85018 0.92171 0.0
O30 O 0.33299 0.84472 0.91954 0.0
O31 O 0.3492 0.84819 0.96724 0.0
O32 O 0.27641 0.8517 0.87614 0.0
O33 O 0.283 0.81161 0.98447 0.0
O34 O 0.26148 0.81723 0.93901 0.0
C35 C 0.35489 0.84549 0.93888 0.0
C36 C 0.2726 0.89724 0.96642 0.0
O37 O 0.27394 0.88814 0.93896 0.0
O38 O 0.28242 0.88298 0.98865 0.0
C39 C 0.2523 0.86125 0.8637 0.0
O40 O 0.23025 0.87078 0.88125 0.0
C41 C 0.26436 0.80375 0.96402 0.0
Zn42 Zn 0.1898 0.15873 0.48642 0.0
Zn43 Zn 0.21612 0.15016 0.43171 0.0
O44 O 0.17005 0.15638 0.42261 0.0
O45 O 0.14796 0.161 0.46775 0.0
O46 O 0.23279 0.14507 0.3885 0.0
O47 O 0.21516 0.19262 0.49184 0.0
O48 O 0.24023 0.1833 0.44913 0.0
C49 C 0.14598 0.15965 0.43879 0.0
C50 C 0.21934 0.10596 0.48188 0.0
O51 O 0.22497 0.11369 0.45441 0.0
O52 O 0.20546 0.12187 0.50018 0.0
C53 C 0.21926 0.12846 0.37048 0.0
O54 O 0.19617 0.11402 0.38111 0.0
C55 C 0.23624 0.19819 0.4729 0.0
Zn56 Zn 0.6149 0.92287 0.85721 0.0
Zn57 Zn 0.63725 0.88158 0.8926 0.0
O58 O 0.59198 0.87118 0.88642 0.0
O59 O 0.57362 0.90425 0.85732 0.0
O60 O 0.6544 0.8514 0.91927 0.0
O61 O 0.64688 0.91389 0.82512 0.0
O62 O 0.66473 0.88059 0.85418 0.0
C63 C 0.56961 0.88225 0.87225 0.0
C64 C 0.63629 0.94072 0.91655 0.0
O65 O 0.6428 0.91544 0.9197 0.0
O66 O 0.62423 0.94931 0.89187 0.0
C67 C 0.63871 0.83861 0.93931 0.0
O68 O 0.60961 0.84468 0.94288 0.0
C69 C 0.66586 0.89464 0.8295 0.0
Zn70 Zn 0.88876 0.08178 0.34919 0.0
Zn71 Zn 0.86903 0.12385 0.38566 0.0
O72 O 0.91428 0.13279 0.3775 0.0
O73 O 0.93074 0.09926 0.34792 0.0
O74 O 0.85496 0.15542 0.41224 0.0
O75 O 0.85558 0.09213 0.31864 0.0
O76 O 0.84002 0.12566 0.34864 0.0
C77 C 0.93579 0.12124 0.36253 0.0
C78 C 0.86818 0.06434 0.40911 0.0
O79 O 0.86273 0.08979 0.41249 0.0
O80 O 0.87947 0.05551 0.38417 0.0
C81 C 0.85245 0.15421 0.44136 0.0
O82 O 0.85946 0.13137 0.45572 0.0
C83 C 0.83734 0.11177 0.324 0.0
Zn84 Zn 0.6038 0.07924 0.16054 0.0
Zn85 Zn 0.62311 0.12148 0.12425 0.0
O86 O 0.57721 0.12906 0.1301 0.0
O87 O 0.56121 0.09553 0.15995 0.0
O88 O 0.63719 0.15239 0.09683 0.0
O89 O 0.6355 0.09091 0.192 0.0
O90 O 0.65068 0.12479 0.16226 0.0
C91 C 0.55567 0.117 0.14453 0.0
C92 C 0.6274 0.06181 0.10195 0.0
O93 O 0.63197 0.08738 0.09854 0.0
O94 O 0.61532 0.05278 0.12642 0.0
C95 C 0.63501 0.15112 0.06769 0.0
O96 O 0.62268 0.12935 0.05497 0.0
C97 C 0.65309 0.11109 0.18709 0.0
Zn98 Zn 0.89109 0.92109 0.65098 0.0
Zn99 Zn 0.86724 0.88029 0.6156 0.0
O100 O 0.91247 0.86932 0.62056 0.0
O101 O 0.93212 0.90202 0.64934 0.0
O102 O 0.84987 0.84988 0.58926 0.0
O103 O 0.85976 0.91183 0.68367 0.0
O104 O 0.8407 0.87909 0.65463 0.0
C105 C 0.93535 0.88002 0.63425 0.0
C106 C 0.86801 0.9401 0.59281 0.0
O107 O 0.86113 0.91492 0.58953 0.0
O108 O 0.88107 0.94824 0.61716 0.0
C109 C 0.84804 0.85129 0.5601 0.0
O110 O 0.85792 0.87335 0.54592 0.0
C111 C 0.84039 0.89286 0.67951 0.0
Zn112 Zn 0.80173 0.64213 0.01675 0.0
Zn113 Zn 0.77887 0.63732 0.07365 0.0
O114 O 0.82502 0.64525 0.07909 0.0
O115 O 0.84368 0.65136 0.03265 0.0
O116 O 0.76631 0.63309 0.11843 0.0
O117 O 0.77037 0.67104 0.00796 0.0
O118 O 0.75312 0.66939 0.05557 0.0
C119 C 0.84759 0.65043 0.06144 0.0
C120 C 0.77734 0.5887 0.02839 0.0
O121 O 0.76988 0.59919 0.05422 0.0
O122 O 0.79167 0.60285 0.00871 0.0
C123 C 0.74472 0.64544 0.13235 0.0
O124 O 0.72697 0.66227 0.11689 0.0
C125 C 0.75227 0.67959 0.02855 0.0
Zn126 Zn 0.69183 0.3537 0.52107 0.0
Zn127 Zn 0.72032 0.35975 0.57513 0.0
O128 O 0.6743 0.35479 0.58524 0.0
O129 O 0.65063 0.35087 0.54085 0.0
O130 O 0.73798 0.36261 0.61825 0.0
O131 O 0.71638 0.31982 0.5129 0.0
O132 O 0.7421 0.32598 0.55595 0.0
C133 C 0.64965 0.35198 0.56986 0.0
C134 C 0.72261 0.4058 0.52709 0.0
O135 O 0.72998 0.39681 0.55367 0.0
O136 O 0.70708 0.391 0.50897 0.0
C137 C 0.72481 0.37831 0.63751 0.0
O138 O 0.70183 0.39357 0.62809 0.0
C139 C 0.73719 0.31239 0.53138 0.0
Zn140 Zn 0.80362 0.33734 0.98008 0.0
Zn141 Zn 0.77728 0.34593 0.92552 0.0
O142 O 0.82357 0.34081 0.9167 0.0
O143 O 0.84558 0.33584 0.96182 0.0
O144 O 0.76095 0.3513 0.88217 0.0
O145 O 0.77915 0.303 0.98519 0.0
O146 O 0.7539 0.31204 0.94247 0.0
C147 C 0.84766 0.33772 0.93291 0.0
C148 C 0.77309 0.38963 0.97607 0.0
O149 O 0.76752 0.38204 0.94854 0.0
O150 O 0.7873 0.37378 0.9942 0.0
C151 C 0.7746 0.36829 0.86467 0.0
O152 O 0.79733 0.38278 0.87599 0.0
C153 C 0.75829 0.29707 0.96614 0.0
Zn154 Zn 0.68581 0.65477 0.47981 0.0
Zn155 Zn 0.7113 0.64909 0.42464 0.0
O156 O 0.66453 0.65182 0.41682 0.0
O157 O 0.64334 0.65458 0.46254 0.0
O158 O 0.72697 0.64687 0.38076 0.0
O159 O 0.70791 0.69024 0.48616 0.0
O160 O 0.73257 0.6837 0.44259 0.0
C161 C 0.64068 0.65328 0.43364 0.0
C162 C 0.7196 0.60416 0.4732 0.0
O163 O 0.72406 0.61268 0.44579 0.0
O164 O 0.70488 0.61886 0.49209 0.0
C165 C 0.71538 0.62933 0.3625 0.0
O166 O 0.69523 0.6118 0.37331 0.0
C167 C 0.72786 0.69778 0.46685 0.0
Zn168 Zn 0.10921 0.41541 0.85027 0.0
Zn169 Zn 0.12522 0.37139 0.88543 0.0
O170 O 0.08035 0.36356 0.87543 0.0
O171 O 0.06568 0.40059 0.85041 0.0
O172 O 0.13802 0.33917 0.9118 0.0
O173 O 0.1399 0.40318 0.81847 0.0
O174 O 0.15522 0.36986 0.84895 0.0
C175 C 0.05947 0.3775 0.86222 0.0
C176 C 0.13002 0.43039 0.91026 0.0
O177 O 0.13056 0.40452 0.91384 0.0
O178 O 0.12311 0.4408 0.88452 0.0
C179 C 0.13702 0.33951 0.94104 0.0
O180 O 0.12675 0.36143 0.95519 0.0
C181 C 0.15783 0.38337 0.824 0.0
Zn182 Zn 0.37947 0.57081 0.35439 0.0
Zn183 Zn 0.36217 0.61552 0.38713 0.0
O184 O 0.4068 0.62477 0.37773 0.0
O185 O 0.42247 0.58716 0.35456 0.0
O186 O 0.34608 0.64691 0.41245 0.0
O187 O 0.34894 0.58089 0.32133 0.0
O188 O 0.33315 0.61535 0.34979 0.0
C189 C 0.42813 0.61074 0.36544 0.0
C190 C 0.35964 0.55758 0.41512 0.0
O191 O 0.35844 0.58354 0.41729 0.0
O192 O 0.36633 0.54627 0.38981 0.0
C193 C 0.36208 0.66222 0.42981 0.0
O194 O 0.39186 0.65858 0.43132 0.0
C195 C 0.33096 0.60092 0.32548 0.0
Zn196 Zn 0.10911 0.57623 0.146 0.0
Zn197 Zn 0.12816 0.61992 0.1124 0.0
O198 O 0.0829 0.62893 0.11947 0.0
O199 O 0.06614 0.592 0.14325 0.0
O200 O 0.14357 0.65169 0.08672 0.0
O201 O 0.13795 0.58734 0.17989 0.0
O202 O 0.156 0.62055 0.15084 0.0
C203 C 0.06101 0.61521 0.13119 0.0
C204 C 0.13237 0.56082 0.08736 0.0
O205 O 0.13384 0.5867 0.08411 0.0
O206 O 0.12402 0.55043 0.11266 0.0
C207 C 0.14294 0.65144 0.05746 0.0
O208 O 0.13141 0.63013 0.04313 0.0
C209 C 0.1567 0.60678 0.17577 0.0
Zn210 Zn 0.38795 0.42097 0.65961 0.0
Zn211 Zn 0.37346 0.376 0.62518 0.0
O212 O 0.41856 0.36929 0.6347 0.0
O213 O 0.43192 0.40689 0.65931 0.0
O214 O 0.36099 0.34379 0.59889 0.0
O215 O 0.35762 0.40816 0.69164 0.0
O216 O 0.34404 0.37374 0.66196 0.0
C217 C 0.43896 0.38392 0.64765 0.0
C218 C 0.36677 0.43467 0.59938 0.0
O219 O 0.36696 0.40874 0.59654 0.0
O220 O 0.37332 0.44572 0.62488 0.0
C221 C 0.36381 0.34392 0.56977 0.0
O222 O 0.37628 0.36521 0.55621 0.0
C223 C 0.34078 0.38751 0.68662 0.0
C224 C 0.20328 0.20999 0.03617 0.0
C225 C 0.2344 0.20868 0.02841 0.0
C226 C 0.18467 0.23134 0.02497 0.0
C227 C 0.19777 0.252 0.00622 0.0
C228 C 0.22956 0.2515 0.99989 0.0
C229 C 0.24738 0.2297 0.01077 0.0
C230 C 0.1508 0.23101 0.03185 0.0
C231 C 0.24462 0.27344 0.9806 0.0
C232 C 0.15352 0.29059 0.94502 0.0
C233 C 0.14944 0.31622 0.95894 0.0
C234 C 0.16754 0.26895 0.96094 0.0
C235 C 0.17829 0.27321 0.99128 0.0
C236 C 0.17324 0.29873 0.00585 0.0
C237 C 0.15861 0.31988 0.98957 0.0
C238 C 0.172 0.24187 0.94477 0.0
C239 C 0.18477 0.30421 0.03798 0.0
H240 H 0.1932 0.19363 0.04966 0.0
H241 H 0.27153 0.22885 0.005 0.0
H242 H 0.14319 0.25128 0.04047 0.0
H243 H 0.13789 0.22685 0.01037 0.0
H244 H 0.14469 0.21511 0.04908 0.0
H245 H 0.26996 0.27135 0.98012 0.0
H246 H 0.23597 0.27228 0.95666 0.0
H247 H 0.23876 0.29406 0.98958 0.0
H248 H 0.14614 0.28755 0.92147 0.0
H249 H 0.15554 0.33966 1.00046 0.0
H250 H 0.16427 0.22475 0.95966 0.0
H251 H 0.19672 0.23868 0.94002 0.0
H252 H 0.15933 0.24088 0.92265 0.0
H253 H 0.17779 0.28751 0.05378 0.0
H254 H 0.17619 0.32399 0.04722 0.0
H255 H 0.21018 0.30478 0.03783 0.0
C256 C 0.36407 0.70564 0.46053 0.0
C257 C 0.347 0.68404 0.44795 0.0
C258 C 0.34953 0.72731 0.47602 0.0
C259 C 0.31725 0.72711 0.4793 0.0
C260 C 0.30012 0.7047 0.46789 0.0
C261 C 0.31516 0.68356 0.45217 0.0
C262 C 0.36853 0.75099 0.48759 0.0
C263 C 0.2657 0.70354 0.47121 0.0
C264 C 0.27487 0.77527 0.53343 0.0
C265 C 0.26308 0.79448 0.51259 0.0
C266 C 0.29354 0.75359 0.5232 0.0
C267 C 0.30086 0.7515 0.49154 0.0
C268 C 0.29031 0.77173 0.47078 0.0
C269 C 0.27138 0.7928 0.48151 0.0
C270 C 0.30418 0.73226 0.54594 0.0
C271 C 0.29798 0.77055 0.43694 0.0
H272 H 0.3887 0.70609 0.45741 0.0
H273 H 0.30186 0.66674 0.44288 0.0
H274 H 0.36342 0.76953 0.47372 0.0
H275 H 0.36261 0.75578 0.51178 0.0
H276 H 0.39349 0.74675 0.48614 0.0
H277 H 0.25615 0.68351 0.4638 0.0
H278 H 0.259 0.70724 0.49545 0.0
H279 H 0.25507 0.71991 0.45707 0.0
H280 H 0.26848 0.77651 0.55746 0.0
H281 H 0.26268 0.80784 0.46536 0.0
H282 H 0.32914 0.72863 0.54353 0.0
H283 H 0.29246 0.71255 0.54112 0.0
H284 H 0.29923 0.73827 0.57005 0.0
H285 H 0.32305 0.76826 0.43368 0.0
H286 H 0.29024 0.78915 0.42441 0.0
H287 H 0.28684 0.75242 0.4264 0.0
C288 C 0.25795 0.75797 0.98785 0.0
C289 C 0.24541 0.77941 0.97051 0.0
C290 C 0.23965 0.7364 0.99847 0.0
C291 C 0.20782 0.73663 0.99225 0.0
C292 C 0.19521 0.75766 0.97364 0.0
C293 C 0.2143 0.77873 0.96265 0.0
C294 C 0.2542 0.71404 0.01757 0.0
C295 C 0.16133 0.75879 0.96687 0.0
C296 C 0.16597 0.67008 0.00912 0.0
C297 C 0.15687 0.67412 0.03972 0.0
C298 C 0.1816 0.69064 0.99286 0.0
C299 C 0.18777 0.71598 0.00738 0.0
C300 C 0.17728 0.72063 0.03774 0.0
C301 C 0.16224 0.69955 0.05366 0.0
C302 C 0.19285 0.68472 0.96073 0.0
C303 C 0.18293 0.74755 0.05387 0.0
H304 H 0.28209 0.7584 0.99374 0.0
H305 H 0.20457 0.79546 0.94945 0.0
H306 H 0.24597 0.7155 0.04163 0.0
H307 H 0.24746 0.69359 0.00873 0.0
H308 H 0.2796 0.71539 0.01767 0.0
H309 H 0.15564 0.77471 0.94951 0.0
H310 H 0.15305 0.73866 0.95848 0.0
H311 H 0.14867 0.76345 0.98835 0.0
H312 H 0.16193 0.65045 0.99823 0.0
H313 H 0.15496 0.70289 0.07718 0.0
H314 H 0.21824 0.68357 0.96079 0.0
H315 H 0.18627 0.70151 0.94486 0.0
H316 H 0.18368 0.6651 0.95163 0.0
H317 H 0.20781 0.75001 0.05832 0.0
H318 H 0.17059 0.74891 0.07614 0.0
H319 H 0.17563 0.76488 0.03907 0.0
C320 C 0.343 0.29645 0.56499 0.0
C321 C 0.35033 0.32157 0.55124 0.0
C322 C 0.32739 0.27607 0.54854 0.0
C323 C 0.31838 0.28115 0.51778 0.0
C324 C 0.32685 0.30601 0.50335 0.0
C325 C 0.34297 0.32586 0.52021 0.0
C326 C 0.31927 0.24961 0.56459 0.0
C327 C 0.31734 0.31234 0.47075 0.0
C328 C 0.28823 0.21986 0.47303 0.0
C329 C 0.2569 0.22128 0.47988 0.0
C330 C 0.30863 0.23977 0.48429 0.0
C331 C 0.29719 0.26176 0.50219 0.0
C332 C 0.26529 0.26414 0.50738 0.0
C333 C 0.24561 0.24371 0.49645 0.0
C334 C 0.34252 0.23641 0.47858 0.0
C335 C 0.25204 0.28758 0.52573 0.0
H336 H 0.34895 0.2929 0.58886 0.0
H337 H 0.34855 0.34526 0.50944 0.0
H338 H 0.29415 0.24871 0.56837 0.0
H339 H 0.32561 0.23181 0.55007 0.0
H340 H 0.33089 0.24758 0.5872 0.0
H341 H 0.32872 0.33103 0.46171 0.0
H342 H 0.32274 0.29489 0.45536 0.0
H343 H 0.29218 0.31552 0.46989 0.0
H344 H 0.29699 0.2024 0.46039 0.0
H345 H 0.22133 0.24495 0.50152 0.0
H346 H 0.3541 0.23094 0.50045 0.0
H347 H 0.3527 0.25592 0.47044 0.0
H348 H 0.34739 0.22013 0.46142 0.0
H349 H 0.25946 0.28587 0.55005 0.0
H350 H 0.2266 0.28786 0.52509 0.0
H351 H 0.26064 0.30745 0.51682 0.0
C352 C 0.71984 0.70327 0.99002 0.0
C353 C 0.73048 0.70156 0.02036 0.0
C354 C 0.70215 0.7255 0.98013 0.0
C355 C 0.69538 0.74691 1.00096 0.0
C356 C 0.70493 0.74479 0.03203 0.0
C357 C 0.7222 0.72191 0.04149 0.0
C358 C 0.69191 0.72662 0.94697 0.0
C359 C 0.69837 0.76734 0.0548 0.0
C360 C 0.68499 0.81459 0.95967 0.0
C361 C 0.65302 0.81655 0.95776 0.0
C362 C 0.69903 0.79286 0.97541 0.0
C363 C 0.68065 0.77232 0.98913 0.0
C364 C 0.64834 0.77471 0.98825 0.0
C365 C 0.63488 0.79694 0.97274 0.0
C366 C 0.73358 0.79129 0.97618 0.0
C367 C 0.62797 0.75307 0.00227 0.0
H368 H 0.72589 0.68735 0.97373 0.0
H369 H 0.7305 0.72063 0.06493 0.0
H370 H 0.66702 0.73105 0.94559 0.0
H371 H 0.70407 0.74344 0.93492 0.0
H372 H 0.69656 0.70716 0.93458 0.0
H373 H 0.70421 0.76124 0.0787 0.0
H374 H 0.712 0.78574 0.04869 0.0
H375 H 0.67386 0.77329 0.05392 0.0
H376 H 0.69914 0.82988 0.9485 0.0
H377 H 0.61014 0.79836 0.97139 0.0
H378 H 0.74143 0.77387 0.96183 0.0
H379 H 0.7417 0.78752 0.99997 0.0
H380 H 0.74448 0.81032 0.96744 0.0
H381 H 0.62982 0.7339 0.98869 0.0
H382 H 0.60355 0.75946 0.00276 0.0
H383 H 0.63544 0.74826 0.02604 0.0
C384 C 0.83885 0.20384 0.44506 0.0
C385 C 0.83992 0.1778 0.45863 0.0
C386 C 0.82489 0.22595 0.46016 0.0
C387 C 0.81119 0.2218 0.48929 0.0
C388 C 0.81321 0.19581 0.50362 0.0
C389 C 0.82777 0.17415 0.4882 0.0
C390 C 0.82363 0.25346 0.44429 0.0
C391 C 0.79854 0.19048 0.53446 0.0
C392 C 0.78604 0.28524 0.53361 0.0
C393 C 0.75568 0.28798 0.52356 0.0
C394 C 0.80439 0.2634 0.52324 0.0
C395 C 0.7918 0.24374 0.50288 0.0
C396 C 0.76072 0.2458 0.49391 0.0
C397 C 0.74317 0.26799 0.50414 0.0
C398 C 0.83753 0.262 0.53301 0.0
C399 C 0.7462 0.22501 0.4727 0.0
H400 H 0.84853 0.20688 0.42237 0.0
H401 H 0.82853 0.15407 0.49882 0.0
H402 H 0.79969 0.25801 0.4374 0.0
H403 H 0.83106 0.26991 0.46021 0.0
H404 H 0.83828 0.25411 0.42343 0.0
H405 H 0.80493 0.17012 0.54394 0.0
H406 H 0.8052 0.20652 0.55121 0.0
H407 H 0.77325 0.1913 0.53205 0.0
H408 H 0.7958 0.30073 0.54853 0.0
H409 H 0.71958 0.26985 0.4966 0.0
H410 H 0.85247 0.26548 0.51276 0.0
H411 H 0.84303 0.24135 0.54215 0.0
H412 H 0.84316 0.27752 0.5508 0.0
H413 H 0.75723 0.22603 0.44976 0.0
H414 H 0.72122 0.22847 0.46977 0.0
H415 H 0.74978 0.20399 0.48174 0.0
C416 C 0.75049 0.25118 0.98932 0.0
C417 C 0.73836 0.27344 0.97301 0.0
C418 C 0.73149 0.23047 1.00077 0.0
C419 C 0.69944 0.23233 0.99632 0.0
C420 C 0.68717 0.25401 0.97845 0.0
C421 C 0.70689 0.27428 0.96672 0.0
C422 C 0.74562 0.20739 0.0191 0.0
C423 C 0.65311 0.25679 0.97342 0.0
C424 C 0.65509 0.16808 0.01726 0.0
C425 C 0.64833 0.173 0.0483 0.0
C426 C 0.67053 0.18772 0.99947 0.0
C427 C 0.679 0.21298 0.01297 0.0
C428 C 0.67072 0.21861 0.0438 0.0
C429 C 0.65571 0.19847 0.06117 0.0
C430 C 0.67923 0.18085 0.9668 0.0
C431 C 0.67894 0.24547 0.05893 0.0
H432 H 0.77489 0.25039 0.99395 0.0
H433 H 0.69748 0.29158 0.95426 0.0
H434 H 0.73896 0.20936 0.0436 0.0
H435 H 0.73703 0.18732 0.01082 0.0
H436 H 0.77103 0.20738 0.01768 0.0
H437 H 0.64758 0.27258 0.95587 0.0
H438 H 0.64306 0.23696 0.96613 0.0
H439 H 0.64195 0.26265 0.99536 0.0
H440 H 0.64944 0.14842 0.00717 0.0
H441 H 0.65023 0.20252 0.08503 0.0
H442 H 0.70441 0.17796 0.96532 0.0
H443 H 0.67311 0.19791 0.9511 0.0
H444 H 0.6679 0.16183 0.95859 0.0
H445 H 0.70415 0.24678 0.06181 0.0
H446 H 0.66808 0.24777 0.08187 0.0
H447 H 0.67178 0.26291 0.04421 0.0
C448 C 0.82313 0.83325 0.51237 0.0
C449 C 0.83367 0.82878 0.54244 0.0
C450 C 0.80747 0.81265 0.49622 0.0
C451 C 0.80268 0.78687 0.51033 0.0
C452 C 0.81447 0.78188 0.54015 0.0
C453 C 0.82959 0.80296 0.55594 0.0
C454 C 0.79488 0.81888 0.46466 0.0
C455 C 0.81022 0.75453 0.55583 0.0
C456 C 0.73348 0.7432 0.49193 0.0
C457 C 0.74627 0.72239 0.47383 0.0
C458 C 0.75132 0.76509 0.50251 0.0
C459 C 0.78292 0.76591 0.49537 0.0
C460 C 0.79574 0.74557 0.47601 0.0
C461 C 0.77713 0.72411 0.46518 0.0
C462 C 0.73656 0.78667 0.52251 0.0
C463 C 0.82941 0.74562 0.46817 0.0
H464 H 0.82619 0.85318 0.5018 0.0
H465 H 0.83797 0.79928 0.57904 0.0
H466 H 0.80161 0.80266 0.44814 0.0
H467 H 0.76947 0.81915 0.46557 0.0
H468 H 0.80291 0.83898 0.4558 0.0
H469 H 0.8232 0.75313 0.57775 0.0
H470 H 0.78558 0.75124 0.56085 0.0
H471 H 0.81776 0.73769 0.54048 0.0
H472 H 0.70953 0.74206 0.49839 0.0
H473 H 0.78709 0.70794 0.45133 0.0
H474 H 0.74218 0.80745 0.51386 0.0
H475 H 0.74567 0.7851 0.54626 0.0
H476 H 0.71124 0.78451 0.52343 0.0
H477 H 0.83658 0.7661 0.4598 0.0
H478 H 0.83518 0.7301 0.45042 0.0
H479 H 0.84295 0.74114 0.48917 0.0
C480 C 0.27216 0.04123 0.04339 0.0
C481 C 0.25661 0.06215 0.02791 0.0
C482 C 0.27076 0.01408 0.03284 0.0
C483 C 0.25239 0.00766 0.00693 0.0
C484 C 0.23477 0.0285 0.99275 0.0
C485 C 0.23771 0.05568 0.00293 0.0
C486 C 0.29064 0.99268 0.04809 0.0
C487 C 0.21383 0.02232 0.96602 0.0
C488 C 0.27937 0.94722 0.95914 0.0
C489 C 0.26316 0.92563 0.9726 0.0
C490 C 0.27546 0.97421 0.96956 0.0
C491 C 0.25395 0.97975 0.99318 0.0
C492 C 0.23589 0.95816 0.00519 0.0
C493 C 0.2413 0.93119 0.9953 0.0
C494 C 0.29584 0.99645 0.95674 0.0
C495 C 0.21176 0.96335 0.02933 0.0
H496 H 0.28716 0.04642 0.06239 0.0
H497 H 0.22577 0.07199 0.99095 0.0
H498 H 0.2766 0.97493 0.0554 0.0
H499 H 0.30783 0.985 0.0314 0.0
H500 H 0.30292 0.00084 0.0685 0.0
H501 H 0.19803 0.03961 0.96106 0.0
H502 H 0.22768 0.01829 0.94515 0.0
H503 H 0.20008 0.00366 0.97072 0.0
H504 H 0.29664 0.94273 0.94194 0.0
H505 H 0.22887 0.91435 0.00574 0.0
H506 H 0.31044 0.00487 0.97537 0.0
H507 H 0.28181 0.01358 0.94767 0.0
H508 H 0.31092 0.98886 0.93803 0.0
H509 H 0.22292 0.96791 0.05164 0.0
H510 H 0.19646 0.94539 0.03249 0.0
H511 H 0.19763 0.98141 0.02303 0.0
C512 C 0.20077 0.94965 0.50411 0.0
C513 C 0.21996 0.93535 0.52441 0.0
C514 C 0.20481 0.97763 0.49851 0.0
C515 C 0.22914 0.99172 0.51303 0.0
C516 C 0.24907 0.97736 0.53313 0.0
C517 C 0.24399 0.94933 0.53894 0.0
C518 C 0.1825 0.99222 0.47752 0.0
C519 C 0.27565 0.99163 0.54846 0.0
C520 C 0.24392 0.05989 0.47386 0.0
C521 C 0.22631 0.07761 0.49205 0.0
C522 C 0.24728 0.03211 0.48184 0.0
C523 C 0.23212 0.02179 0.50821 0.0
C524 C 0.21575 0.03993 0.52752 0.0
C525 C 0.2133 0.06761 0.51936 0.0
C526 C 0.26557 0.01352 0.46109 0.0
C527 C 0.19873 0.02976 0.55552 0.0
H528 H 0.18198 0.93903 0.49298 0.0
H529 H 0.259 0.93829 0.55447 0.0
H530 H 0.17085 0.00894 0.49025 0.0
H531 H 0.19493 0.00172 0.45801 0.0
H532 H 0.16476 0.97823 0.46811 0.0
H533 H 0.29015 0.97723 0.56187 0.0
H534 H 0.29009 0.00189 0.53091 0.0
H535 H 0.26705 0.00778 0.56416 0.0
H536 H 0.25437 0.0675 0.45293 0.0
H537 H 0.19974 0.08112 0.5337 0.0
H538 H 0.24973 0.0005 0.44753 0.0
H539 H 0.28038 -0.00032 0.47484 0.0
H540 H 0.28014 0.02528 0.44484 0.0
H541 H 0.17901 0.01702 0.5481 0.0
H542 H 0.18992 0.04683 0.56989 0.0
H543 H 0.21373 0.01665 0.5699 0.0
C544 C 0.66074 0.9534 0.96661 0.0
C545 C 0.64035 0.95967 0.9427 0.0
C546 C 0.66267 0.97015 0.99277 0.0
C547 C 0.64314 0.9932 0.99534 0.0
C548 C 0.62306 -4e-05 0.97092 0.0
C549 C 0.6222 0.98329 0.94473 0.0
C550 C 0.68497 0.96278 0.01799 0.0
C551 C 0.60144 0.02407 0.97303 0.0
C552 C 0.61832 0.01801 0.07396 0.0
C553 C 0.63411 0.04291 0.07632 0.0
C554 C 0.62173 0.00124 0.04805 0.0
C555 C 0.64199 0.00927 0.02429 0.0
C556 C 0.65923 0.03368 0.0273 0.0
C557 C 0.65477 0.05042 0.05312 0.0
C558 C 0.60247 0.97564 0.04541 0.0
C559 C 0.68165 0.04252 0.00282 0.0
H560 H 0.67498 0.93526 0.96501 0.0
H561 H 0.60626 0.98813 0.9264 0.0
H562 H 0.69871 0.98097 0.0246 0.0
H563 H 0.67222 0.95605 0.0387 0.0
H564 H 0.70079 0.94607 0.01102 0.0
H565 H 0.5879 0.02699 0.95166 0.0
H566 H 0.58534 0.02097 0.99246 0.0
H567 H 0.6144 0.04315 0.97772 0.0
H568 H 0.6022 0.01219 0.09175 0.0
H569 H 0.66721 0.06957 0.05499 0.0
H570 H 0.61725 0.95757 0.04106 0.0
H571 H 0.58662 0.97759 0.02558 0.0
H572 H 0.58872 0.97173 0.06644 0.0
H573 H 0.69708 0.0253 0.99668 0.0
H574 H 0.69579 0.06023 0.01027 0.0
H575 H 0.66902 0.04842 0.98169 0.0
C576 C 0.84332 0.05214 0.45912 0.0
C577 C 0.86327 0.04528 0.43507 0.0
C578 C 0.84023 0.035 0.48488 0.0
C579 C 0.85814 0.01087 0.48692 0.0
C580 C 0.87782 0.00359 0.46239 0.0
C581 C 0.87986 0.02072 0.4366 0.0
C582 C 0.8184 0.04305 0.51022 0.0
C583 C 0.89778 0.97833 0.46395 0.0
C584 C 0.88064 0.98345 0.56524 0.0
C585 C 0.86301 0.95951 0.56717 0.0
C586 C 0.8787 0.00069 0.53954 0.0
C587 C 0.85809 0.99417 0.5155 0.0
C588 C 0.83914 0.97074 0.51798 0.0
C589 C 0.84211 0.95346 0.54364 0.0
C590 C 0.89976 0.02518 0.53749 0.0
C591 C 0.81634 0.96355 0.49318 0.0
H592 H 0.83026 0.07101 0.45791 0.0
H593 H 0.89545 0.0154 0.41815 0.0
H594 H 0.80331 0.02555 0.5162 0.0
H595 H 0.83152 0.04846 0.53119 0.0
H596 H 0.80389 0.06084 0.50372 0.0
H597 H 0.91116 0.97513 0.44254 0.0
H598 H 0.91401 0.98016 0.48349 0.0
H599 H 0.88355 0.9599 0.46815 0.0
H600 H 0.89696 0.98815 0.58326 0.0
H601 H 0.82828 0.93507 0.54513 0.0
H602 H 0.88631 0.04413 0.53356 0.0
H603 H 0.91545 0.02272 0.51761 0.0
H604 H 0.91376 0.02789 0.5586 0.0
H605 H 0.80199 0.98163 0.48747 0.0
H606 H 0.80111 0.94638 0.50008 0.0
H607 H 0.82867 0.95755 0.47194 0.0
C608 C 0.74747 0.43538 0.96874 0.0
C609 C 0.76582 0.41783 0.98646 0.0
C610 C 0.7438 0.46306 0.97693 0.0
C611 C 0.75944 0.47349 0.00297 0.0
C612 C 0.77665 0.45552 0.02176 0.0
C613 C 0.77935 0.42791 0.01347 0.0
C614 C 0.72455 0.48146 0.95681 0.0
C615 C 0.79424 0.46582 0.04936 0.0
C616 C 0.78967 0.54605 0.99983 0.0
C617 C 0.77118 0.55954 0.02141 0.0
C618 C 0.78555 0.51825 0.99325 0.0
C619 C 0.76184 0.50356 0.00806 0.0
C620 C 0.74236 0.51721 0.02914 0.0
C621 C 0.74755 0.54504 0.03594 0.0
C622 C 0.80736 0.5044 0.97118 0.0
C623 C 0.71636 0.50235 0.04474 0.0
H624 H 0.73664 0.42769 0.94805 0.0
H625 H 0.79351 0.41455 0.02742 0.0
H626 H 0.70989 0.49502 0.97104 0.0
H627 H 0.73971 0.49477 0.94283 0.0
H628 H 0.70972 0.46954 0.94094 0.0
H629 H 0.80417 0.44885 0.06317 0.0
H630 H 0.81321 0.47926 0.04153 0.0
H631 H 0.77923 0.47826 0.06443 0.0
H632 H 0.80811 0.55707 0.98863 0.0
H633 H 0.73304 0.55546 0.05242 0.0
H634 H 0.79445 0.49489 0.95201 0.0
H635 H 0.81991 0.48776 0.98321 0.0
H636 H 0.82438 0.51887 0.96134 0.0
H637 H 0.7022 0.49144 0.02745 0.0
H638 H 0.70141 0.51648 0.05799 0.0
H639 H 0.72564 0.48668 0.0607 0.0
C640 C 0.75319 0.44945 0.53125 0.0
C641 C 0.72926 0.43443 0.51792 0.0
C642 C 0.7579 0.47715 0.52342 0.0
C643 C 0.73751 0.49022 0.50269 0.0
C644 C 0.71378 0.4749 0.48873 0.0
C645 C 0.71026 0.44719 0.49618 0.0
C646 C 0.78408 0.49259 0.53796 0.0
C647 C 0.69098 0.48809 0.46714 0.0
C648 C 0.71682 0.56508 0.51003 0.0
C649 C 0.7287 0.57607 0.48268 0.0
C650 C 0.72112 0.53749 0.51771 0.0
C651 C 0.73837 0.52043 0.49794 0.0
C652 C 0.75245 0.53183 0.4715 0.0
C653 C 0.74711 0.55948 0.46393 0.0
C654 C 0.70516 0.52617 0.5458 0.0
C655 C 0.77183 0.51449 0.4504 0.0
H656 H 0.76811 0.43961 0.54785 0.0
H657 H 0.69159 0.43578 0.48587 0.0
H658 H 0.79635 0.50495 0.52045 0.0
H659 H 0.77507 0.50697 0.55549 0.0
H660 H 0.80069 0.4786 0.54932 0.0
H661 H 0.6744 0.47309 0.45755 0.0
H662 H 0.67796 0.50419 0.47954 0.0
H663 H 0.70305 0.49816 0.44778 0.0
H664 H 0.70267 0.57769 0.52482 0.0
H665 H 0.7567 0.56786 0.44296 0.0
H666 H 0.72149 0.51456 0.56034 0.0
H667 H 0.68691 0.51173 0.53854 0.0
H668 H 0.69455 0.54253 0.56001 0.0
H669 H 0.78742 0.50111 0.46388 0.0
H670 H 0.78571 0.52723 0.43446 0.0
H671 H 0.75682 0.50101 0.43648 0.0
C672 C 0.12232 0.54873 0.033 0.0
C673 C 0.13729 0.54291 0.06068 0.0
C674 C 0.12342 0.53025 0.00838 0.0
C675 C 0.14106 0.506 0.01117 0.0
C676 C 0.15768 0.50086 0.03855 0.0
C677 C 0.15496 0.5191 0.06335 0.0
C678 C 0.10444 0.536 0.98006 0.0
C679 C 0.17779 0.47586 0.04187 0.0
C680 C 0.11673 0.44503 0.96304 0.0
C681 C 0.13488 0.44837 0.93683 0.0
C682 C 0.11868 0.46359 0.98754 0.0
C683 C 0.14027 0.48522 0.98623 0.0
C684 C 0.15975 0.48779 0.96035 0.0
C685 C 0.15627 0.46967 0.93553 0.0
C686 C 0.0967 0.46073 0.01416 0.0
C687 C 0.18394 0.50983 0.95873 0.0
H688 H 0.1084 0.56708 0.03121 0.0
H689 H 0.16663 0.51478 0.08482 0.0
H690 H 0.11917 0.53621 0.95932 0.0
H691 H 0.0873 0.51944 0.9769 0.0
H692 H 0.09216 0.5559 0.9815 0.0
H693 H 0.1922 0.47675 0.06289 0.0
H694 H 0.16338 0.45719 0.04304 0.0
H695 H 0.19295 0.47374 0.02153 0.0
H696 H 0.10002 0.4286 0.96373 0.0
H697 H 0.17037 0.47201 0.91519 0.0
H698 H 0.08263 0.47959 0.01622 0.0
H699 H 0.10953 0.45833 0.03599 0.0
H700 H 0.08111 0.44291 0.01145 0.0
H701 H 0.17291 0.53023 0.95684 0.0
H702 H 0.19946 0.50706 0.93874 0.0
H703 H 0.19785 0.50986 0.98009 0.0
C704 C 0.37481 0.54617 0.46842 0.0
C705 C 0.35635 0.5407 0.44287 0.0
C706 C 0.37447 0.52883 0.4941 0.0
C707 C 0.35418 0.50619 0.49467 0.0
C708 C 0.33437 0.50141 0.46942 0.0
C709 C 0.33625 0.51839 0.4434 0.0
C710 C 0.3968 0.53403 0.51999 0.0
C711 C 0.31154 0.4782 0.46973 0.0
C712 C 0.37651 0.44573 0.54465 0.0
C713 C 0.36146 0.45192 0.57218 0.0
C714 C 0.37414 0.46315 0.51914 0.0
C715 C 0.35518 0.48666 0.52088 0.0
C716 C 0.33873 0.49224 0.54823 0.0
C717 C 0.34266 0.47511 0.57389 0.0
C718 C 0.39298 0.45703 0.49085 0.0
C719 C 0.31731 0.51644 0.5505 0.0
H720 H 0.39055 0.56335 0.46769 0.0
H721 H 0.32191 0.51437 0.42356 0.0
H722 H 0.38433 0.53676 0.54196 0.0
H723 H 0.41213 0.51605 0.52278 0.0
H724 H 0.41113 0.55248 0.51588 0.0
H725 H 0.29546 0.47923 0.44996 0.0
H726 H 0.32377 0.4583 0.46885 0.0
H727 H 0.2981 0.47855 0.49138 0.0
H728 H 0.39126 0.42787 0.54355 0.0
H729 H 0.33088 0.47969 0.59522 0.0
H730 H 0.40883 0.47432 0.48622 0.0
H731 H 0.3779 0.4549 0.47049 0.0
H732 H 0.40668 0.43796 0.49332 0.0
H733 H 0.33061 0.53577 0.54982 0.0
H734 H 0.30365 0.5161 0.57204 0.0
H735 H 0.30139 0.5167 0.5306 0.0
C736 C 0.49954 0.10774 0.14671 0.0
C737 C 0.52354 0.12594 0.14018 0.0
C738 C 0.46939 0.11367 0.13786 0.0
C739 C 0.46295 0.13868 0.12271 0.0
C740 C 0.48664 0.15807 0.11818 0.0
C741 C 0.51678 0.15134 0.12666 0.0
C742 C 0.44489 0.09224 0.14272 0.0
C743 C 0.48048 0.18528 0.10289 0.0
C744 C 0.39799 0.13549 0.06515 0.0
C745 C 0.3732 0.14522 0.08246 0.0
C746 C 0.42744 0.1339 0.07782 0.0
C747 C 0.43239 0.14285 0.10837 0.0
C748 C 0.40776 0.15384 0.12555 0.0
C749 C 0.3783 0.15458 0.11251 0.0
C750 C 0.45298 0.12158 0.05889 0.0
C751 C 0.41236 0.1642 0.1579 0.0
H752 H 0.50452 0.08807 0.15715 0.0
H753 H 0.53517 0.16563 0.12183 0.0
H754 H 0.42449 0.10139 0.15389 0.0
H755 H 0.43744 0.08406 0.12013 0.0
H756 H 0.45308 0.07487 0.15706 0.0
H757 H 0.50001 0.19967 0.10553 0.0
H758 H 0.47637 0.18206 0.07799 0.0
H759 H 0.45959 0.19492 0.1126 0.0
H760 H 0.39421 0.12811 0.04196 0.0
H761 H 0.35925 0.16232 0.12591 0.0
H762 H 0.46166 0.10277 0.0703 0.0
H763 H 0.4724 0.13613 0.0572 0.0
H764 H 0.44544 0.11617 0.03527 0.0
H765 H 0.41767 0.14678 0.17339 0.0
H766 H 0.39175 0.17491 0.16684 0.0
H767 H 0.43214 0.17846 0.15879 0.0
C768 C 0.97083 0.84186 0.61918 0.0
C769 C 0.96647 0.86882 0.62942 0.0
C770 C 0.0001 0.83247 0.61075 0.0
C771 C 0.02523 0.85079 0.61164 0.0
C772 C 0.02112 0.87763 0.62326 0.0
C773 C 0.99189 0.88616 0.63241 0.0
C774 C 0.00384 0.8034 0.59958 0.0
C775 C 0.04714 0.89804 0.62403 0.0
C776 C 0.10925 0.83275 0.60219 0.0
C777 C 0.11394 0.83935 0.57117 0.0
C778 C 0.07986 0.83423 0.61529 0.0
C779 C 0.05494 0.84341 0.59714 0.0
C780 C 0.05936 0.84882 0.56548 0.0
C781 C 0.08872 0.84634 0.55281 0.0
C782 C 0.0758 0.82728 0.64884 0.0
C783 C 0.03358 0.8592 0.54541 0.0
H784 H 0.95129 0.82828 0.61712 0.0
H785 H 0.98869 0.90705 0.64023 0.0
H786 H 0.00649 0.80333 0.57423 0.0
H787 H 0.02475 0.79399 0.60954 0.0
H788 H 0.98374 0.7905 0.60557 0.0
H789 H 0.04045 0.91766 0.63508 0.0
H790 H 0.067 0.88942 0.63664 0.0
H791 H 0.05482 0.90246 0.60022 0.0
H792 H 0.12863 0.82704 0.61641 0.0
H793 H 0.09217 0.85154 0.52884 0.0
H794 H 0.05474 0.81494 0.65234 0.0
H795 H 0.07322 0.84642 0.66232 0.0
H796 H 0.09572 0.81576 0.65811 0.0
H797 H 0.01353 0.84533 0.54691 0.0
H798 H 0.04043 0.86101 0.5209 0.0
H799 H 0.0261 0.87967 0.55361 0.0
C800 C 0.4102 0.85614 0.94666 0.0
C801 C 0.38701 0.84518 0.92808 0.0
C802 C 0.44024 0.85874 0.93572 0.0
C803 C 0.44745 0.84956 0.90571 0.0
C804 C 0.42453 0.83709 0.88745 0.0
C805 C 0.39443 0.83537 0.89871 0.0
C806 C 0.46389 0.87261 0.95574 0.0
C807 C 0.43156 0.8264 0.85568 0.0
C808 C 0.51297 0.88815 0.86887 0.0
C809 C 0.53813 0.87152 0.87633 0.0
C810 C 0.48314 0.88061 0.87715 0.0
C811 C 0.47822 0.85552 0.89269 0.0
C812 C 0.50321 0.83772 0.89835 0.0
C813 C 0.53298 0.84607 0.89041 0.0
C814 C 0.4572 0.90039 0.87105 0.0
C815 C 0.49871 0.81046 0.9141 0.0
H816 H 0.4046 0.86383 0.96934 0.0
H817 H 0.37663 0.82662 0.88437 0.0
H818 H 0.48436 0.85935 0.95834 0.0
H819 H 0.4715 0.89193 0.94466 0.0
H820 H 0.4549 0.87753 0.97898 0.0
H821 H 0.41239 0.81408 0.84615 0.0
H822 H 0.43598 0.84382 0.83993 0.0
H823 H 0.45255 0.81358 0.8561 0.0
H824 H 0.51668 0.90786 0.85799 0.0
H825 H 0.55228 0.833 0.89603 0.0
H826 H 0.44797 0.90802 0.89322 0.0
H827 H 0.4382 0.88993 0.85888 0.0
H828 H 0.46457 0.91828 0.85709 0.0
H829 H 0.49334 0.81384 0.93873 0.0
H830 H 0.51946 0.79734 0.91261 0.0
H831 H 0.47907 0.79931 0.90382 0.0
C832 C 0.08981 0.15167 0.44172 0.0
C833 C 0.11537 0.15932 0.42423 0.0
C834 C 0.061 0.1484 0.42812 0.0
C835 C 0.05739 0.15365 0.39631 0.0
C836 C 0.08275 0.16273 0.37876 0.0
C837 C 0.11165 0.16503 0.39285 0.0
C838 C 0.03473 0.1381 0.44758 0.0
C839 C 0.07953 0.16934 0.34503 0.0
C840 C 0.99212 0.11324 0.36175 0.0
C841 C 0.96755 0.13144 0.3655 0.0
C842 C 0.02198 0.12079 0.36999 0.0
C843 C 0.02751 0.14747 0.38147 0.0
C844 C 0.00325 0.16671 0.38273 0.0
C845 C 0.9734 0.15833 0.37519 0.0
C846 C 0.04703 0.09945 0.36887 0.0
C847 C 0.00846 0.19562 0.39381 0.0
H848 H 0.09256 0.14706 0.46595 0.0
H849 H 0.13132 0.17114 0.37928 0.0
H850 H 0.01526 0.15267 0.44654 0.0
H851 H 0.02649 0.11818 0.43848 0.0
H852 H 0.04132 0.13527 0.47204 0.0
H853 H 0.10023 0.17966 0.33573 0.0
H854 H 0.07573 0.1502 0.33185 0.0
H855 H 0.05934 0.18273 0.34112 0.0
H856 H 0.98777 0.0924 0.35432 0.0
H857 H 0.95452 0.17258 0.37777 0.0
H858 H 0.05386 0.0939 0.39265 0.0
H859 H 0.06762 0.10767 0.35717 0.0
H860 H 0.03964 0.08053 0.35679 0.0
H861 H 0.01143 0.19558 0.41914 0.0
H862 H 0.9889 0.20926 0.38806 0.0
H863 H 0.02966 0.20424 0.3836 0.0
C864 C 0.02264 0.65224 0.12028 0.0
C865 C 0.02905 0.62485 0.12767 0.0
C866 C 0.99269 0.66059 0.11301 0.0
C867 C 0.96889 0.6409 0.11228 0.0
C868 C 0.97502 0.61351 0.12108 0.0
C869 C 0.00494 0.60592 0.12904 0.0
C870 C 0.98681 0.69016 0.10472 0.0
C871 C 0.95043 0.59175 0.12011 0.0
C872 C 0.8839 0.65638 0.10567 0.0
C873 C 0.87898 0.65224 0.07414 0.0
C874 C 0.91349 0.65464 0.11826 0.0
C875 C 0.93849 0.64785 0.09898 0.0
C876 C 0.93379 0.64483 0.06696 0.0
C877 C 0.90418 0.64741 0.05491 0.0
C878 C 0.91779 0.65888 0.15235 0.0
C879 C 0.95971 0.63713 0.04563 0.0
H880 H 0.04114 0.66703 0.1195 0.0
H881 H 0.00971 0.5847 0.13466 0.0
H882 H 0.98331 0.69197 0.07955 0.0
H883 H 0.96568 0.69769 0.1161 0.0
H884 H 0.00625 0.7036 0.11135 0.0
H885 H 0.95854 0.57179 0.12933 0.0
H886 H 0.93014 0.59834 0.13352 0.0
H887 H 0.94284 0.58867 0.096 0.0
H888 H 0.86454 0.66039 0.12061 0.0
H889 H 0.90058 0.64413 0.03053 0.0
H890 H 0.93797 0.6721 0.15682 0.0
H891 H 0.92213 0.63886 0.16363 0.0
H892 H 0.8973 0.66832 0.16317 0.0
H893 H 0.97903 0.65168 0.04818 0.0
H894 H 0.95252 0.6369 0.02113 0.0
H895 H 0.96841 0.61646 0.05175 0.0
C896 C 0.61718 0.34833 0.61735 0.0
C897 C 0.61956 0.35223 0.58548 0.0
C898 C 0.58871 0.35044 0.63228 0.0
C899 C 0.56231 0.35728 0.61498 0.0
C900 C 0.56456 0.36075 0.58275 0.0
C901 C 0.59305 0.35788 0.5684 0.0
C902 C 0.58698 0.3459 0.66655 0.0
C903 C 0.53706 0.3685 0.56348 0.0
C904 C 0.4795 0.34863 0.63838 0.0
C905 C 0.4715 0.37569 0.64561 0.0
C906 C 0.50985 0.3417 0.63108 0.0
C907 C 0.53244 0.36248 0.63025 0.0
C908 C 0.52488 0.38943 0.6396 0.0
C909 C 0.49454 0.39563 0.64751 0.0
C910 C 0.51724 0.31255 0.62218 0.0
C911 C 0.54816 0.41229 0.63861 0.0
H912 H 0.63758 0.34381 0.63064 0.0
H913 H 0.59469 0.36106 0.5438 0.0
H914 H 0.58167 0.36552 0.67823 0.0
H915 H 0.56824 0.33138 0.67212 0.0
H916 H 0.6088 0.33777 0.67605 0.0
H917 H 0.54272 0.3703 0.53867 0.0
H918 H 0.51872 0.35297 0.56615 0.0
H919 H 0.52767 0.3884 0.57143 0.0
H920 H 0.46185 0.33304 0.6373 0.0
H921 H 0.48854 0.41659 0.65312 0.0
H922 H 0.53931 0.30598 0.63249 0.0
H923 H 0.51965 0.31118 0.59684 0.0
H924 H 0.49899 0.29809 0.62948 0.0
H925 H 0.56978 0.40594 0.64993 0.0
H926 H 0.53965 0.43123 0.64991 0.0
H927 H 0.55364 0.41717 0.6143 0.0
C928 C 0.00347 0.38744 0.86215 0.0
C929 C 0.02728 0.36821 0.86387 0.0
C930 C 0.97326 0.38005 0.86922 0.0
C931 C 0.96663 0.35263 0.87749 0.0
C932 C 0.99012 0.33264 0.87664 0.0
C933 C 0.02031 0.34075 0.87026 0.0
C934 C 0.949 0.40211 0.87037 0.0
C935 C 0.98375 0.30304 0.88437 0.0
C936 C 0.90401 0.34449 0.93681 0.0
C937 C 0.87833 0.3388 0.91853 0.0
C938 C 0.93292 0.34844 0.92368 0.0
C939 C 0.93648 0.346 0.89147 0.0
C940 C 0.91098 0.33899 0.87294 0.0
C941 C 0.88203 0.33582 0.88667 0.0
C942 C 0.95939 0.35636 0.94425 0.0
C943 C 0.91414 0.33548 0.83863 0.0
H944 H 0.00869 0.4087 0.85724 0.0
H945 H 0.03859 0.32573 0.87122 0.0
H946 H 0.92812 0.39553 0.85789 0.0
H947 H 0.94237 0.40584 0.89463 0.0
H948 H 0.95711 0.42174 0.86031 0.0
H949 H 0.00287 0.28941 0.87729 0.0
H950 H 0.9805 0.3009 0.90955 0.0
H951 H 0.96237 0.29601 0.87306 0.0
H952 H 0.90134 0.34696 0.96143 0.0
H953 H 0.86229 0.33127 0.87244 0.0
H954 H 0.96822 0.3768 0.93744 0.0
H955 H 0.97845 0.34152 0.94162 0.0
H956 H 0.9528 0.35713 0.96889 0.0
H957 H 0.91885 0.35561 0.82779 0.0
H958 H 0.89309 0.3268 0.82809 0.0
H959 H 0.93378 0.32187 0.83327 0.0
C960 C 0.60507 0.65532 0.38829 0.0
C961 C 0.60974 0.65131 0.41989 0.0
C962 C 0.57589 0.65176 0.37515 0.0
C963 C 0.55115 0.64335 0.39396 0.0
C964 C 0.55571 0.63972 0.42591 0.0
C965 C 0.58482 0.64403 0.43849 0.0
C966 C 0.57166 0.65648 0.34113 0.0
C967 C 0.53008 0.63028 0.44674 0.0
C968 C 0.46669 0.64783 0.37472 0.0
C969 C 0.46018 0.62053 0.3671 0.0
C970 C 0.49682 0.6562 0.38105 0.0
C971 C 0.52077 0.63665 0.38046 0.0
C972 C 0.51458 0.60947 0.37099 0.0
C973 C 0.4844 0.60182 0.36411 0.0
C974 C 0.50266 0.68555 0.39024 0.0
C975 C 0.53936 0.58786 0.3705 0.0
H976 H 0.62422 0.66109 0.37382 0.0
H977 H 0.58824 0.64075 0.4629 0.0
H978 H 0.56659 0.63676 0.32955 0.0
H979 H 0.55185 0.67026 0.337 0.0
H980 H 0.59234 0.66559 0.33031 0.0
H981 H 0.5374 0.62867 0.47114 0.0
H982 H 0.51051 0.64471 0.44537 0.0
H983 H 0.5217 0.60992 0.43914 0.0
H984 H 0.44813 0.66248 0.37673 0.0
H985 H 0.47959 0.58068 0.35822 0.0
H986 H 0.52351 0.69353 0.37872 0.0
H987 H 0.50663 0.68664 0.4154 0.0
H988 H 0.483 0.69908 0.38447 0.0
H989 H 0.5598 0.59536 0.35795 0.0
H990 H 0.53149 0.56852 0.35963 0.0
H991 H 0.54662 0.58327 0.39441 0.0
C992 C 0.24005 0.13943 0.18799 0.0
C993 C 0.26291 0.12181 0.17686 0.0
C994 C 0.23302 0.14054 0.21952 0.0
C995 C 0.24916 0.1236 0.24045 0.0
C996 C 0.27207 0.10563 0.22933 0.0
C997 C 0.27867 0.10497 0.19773 0.0
C998 C 0.20841 0.15997 0.23046 0.0
C999 C 0.28973 0.08716 0.25084 0.0
C1000 C 0.25062 0.14366 0.3251 0.0
C1001 C 0.22788 0.1266 0.33749 0.0
C1002 C 0.25782 0.14287 0.2936 0.0
C1003 C 0.24199 0.12454 0.27398 0.0
C1004 C 0.21927 0.10706 0.28641 0.0
C1005 C 0.21249 0.10832 0.31795 0.0
C1006 C 0.28221 0.16183 0.28125 0.0
C1007 C 0.20194 0.08714 0.26634 0.0
H1008 H 0.22778 0.15256 0.1721 0.0
H1009 H 0.29638 0.09128 0.18943 0.0
H1010 H 0.19009 0.14839 0.24243 0.0
H1011 H 0.21818 0.17463 0.24728 0.0
H1012 H 0.19794 0.17174 0.21128 0.0
H1013 H 0.30674 0.07426 0.23854 0.0
H1014 H 0.30197 0.09964 0.26825 0.0
H1015 H 0.27371 0.07353 0.26341 0.0
H1016 H 0.2626 0.1579 0.33996 0.0
H1017 H 0.19489 0.09503 0.32723 0.0
H1018 H 0.27225 0.17546 0.26343 0.0
H1019 H 0.30064 0.14975 0.27008 0.0
H1020 H 0.29258 0.17473 0.29952 0.0
H1021 H 0.18947 0.09844 0.24808 0.0
H1022 H 0.18519 0.07475 0.2796 0.0
H1023 H 0.2182 0.07305 0.25477 0.0
C1024 C 0.27462 0.8548 0.81103 0.0
C1025 C 0.24974 0.86243 0.82962 0.0
C1026 C 0.2729 0.85641 0.77882 0.0
C1027 C 0.24557 0.86572 0.76473 0.0
C1028 C 0.22028 0.87323 0.78331 0.0
C1029 C 0.22269 0.87157 0.8155 0.0
C1030 C 0.30044 0.84836 0.75988 0.0
C1031 C 0.19066 0.88309 0.76918 0.0
C1032 C 0.24827 0.8944 0.68331 0.0
C1033 C 0.23792 0.87208 0.66585 0.0
C1034 C 0.25132 0.89247 0.71542 0.0
C1035 C 0.24347 0.86774 0.73054 0.0
C1036 C 0.23329 0.84506 0.71302 0.0
C1037 C 0.23083 0.84744 0.6809 0.0
C1038 C 0.26266 0.91702 0.73319 0.0
C1039 C 0.22446 0.81841 0.72825 0.0
H1040 H 0.29567 0.84777 0.82165 0.0
H1041 H 0.20333 0.87748 0.8296 0.0
H1042 H 0.29428 0.83154 0.7439 0.0
H1043 H 0.308 0.86598 0.74565 0.0
H1044 H 0.31999 0.84153 0.77433 0.0
H1045 H 0.17295 0.88772 0.78676 0.0
H1046 H 0.19487 0.90186 0.75543 0.0
H1047 H 0.1815 0.86732 0.75328 0.0
H1048 H 0.25391 0.91348 0.6719 0.0
H1049 H 0.22264 0.83012 0.66766 0.0
H1050 H 0.28311 0.91134 0.74695 0.0
H1051 H 0.24477 0.92394 0.74954 0.0
H1052 H 0.26876 0.93444 0.71794 0.0
H1053 H 0.244 0.81031 0.7418 0.0
H1054 H 0.21731 0.80259 0.71136 0.0
H1055 H 0.2053 0.82195 0.74452 0.0
C1056 C 0.69152 0.90546 0.7796 0.0
C1057 C 0.69031 0.88962 0.8065 0.0
C1058 C 0.71585 0.90284 0.7588 0.0
C1059 C 0.7396 0.88386 0.76494 0.0
C1060 C 0.73794 0.86698 0.79137 0.0
C1061 C 0.71332 0.87008 0.81189 0.0
C1062 C 0.71673 0.9212 0.73084 0.0
C1063 C 0.76275 0.84639 0.79856 0.0
C1064 C 0.79249 0.8693 0.69752 0.0
C1065 C 0.81625 0.88807 0.7029 0.0
C1066 C 0.76795 0.86675 0.71824 0.0
C1067 C 0.76716 0.8834 0.74486 0.0
C1068 C 0.79173 0.90148 0.75106 0.0
C1069 C 0.81595 0.90357 0.73005 0.0
C1070 C 0.74226 0.8471 0.71098 0.0
C1071 C 0.7918 0.91958 0.77922 0.0
H1072 H 0.67379 0.92048 0.77507 0.0
H1073 H 0.71253 0.85766 0.83253 0.0
H1074 H 0.73659 0.93531 0.73249 0.0
H1075 H 0.71979 0.9088 0.70971 0.0
H1076 H 0.69556 0.93365 0.72838 0.0
H1077 H 0.75661 0.83301 0.81828 0.0
H1078 H 0.76737 0.83333 0.77822 0.0
H1079 H 0.78433 0.8573 0.80418 0.0
H1080 H 0.79257 0.85714 0.67669 0.0
H1081 H 0.83428 0.91799 0.73457 0.0
H1082 H 0.72121 0.85881 0.70533 0.0
H1083 H 0.73701 0.83416 0.73128 0.0
H1084 H 0.74784 0.83355 0.69124 0.0
H1085 H 0.7727 0.93454 0.77771 0.0
H1086 H 0.8136 0.93108 0.78183 0.0
H1087 H 0.78806 0.90712 0.80022 0.0
C1088 C 0.78896 0.13658 0.30976 0.0
C1089 C 0.81159 0.11715 0.30258 0.0
C1090 C 0.76281 0.13963 0.29122 0.0
C1091 C 0.75922 0.12282 0.26497 0.0
C1092 C 0.78262 0.10409 0.25685 0.0
C1093 C 0.80849 0.10151 0.27571 0.0
C1094 C 0.73845 0.15997 0.30046 0.0
C1095 C 0.77971 0.08584 0.22896 0.0
C1096 C 0.6808 0.10178 0.23629 0.0
C1097 C 0.67816 0.11708 0.2091 0.0
C1098 C 0.70644 0.10447 0.25545 0.0
C1099 C 0.73005 0.12296 0.24729 0.0
C1100 C 0.72679 0.13958 0.22082 0.0
C1101 C 0.70086 0.13644 0.202 0.0
C1102 C 0.70897 0.08645 0.28358 0.0
C1103 C 0.75138 0.15968 0.21154 0.0
H1104 H 0.79119 0.14886 0.33039 0.0
H1105 H 0.82591 0.08658 0.26981 0.0
H1106 H 0.73171 0.17282 0.28052 0.0
H1107 H 0.71768 0.14883 0.30818 0.0
H1108 H 0.74618 0.17358 0.31939 0.0
H1109 H 0.80082 0.07372 0.22466 0.0
H1110 H 0.76032 0.07144 0.23221 0.0
H1111 H 0.77465 0.09829 0.20824 0.0
H1112 H 0.66329 0.08693 0.24215 0.0
H1113 H 0.69899 0.14845 0.18112 0.0
H1114 H 0.71434 0.09898 0.30415 0.0
H1115 H 0.72802 0.07165 0.28049 0.0
H1116 H 0.68759 0.07477 0.28805 0.0
H1117 H 0.75832 0.17244 0.23145 0.0
H1118 H 0.74376 0.17338 0.19261 0.0
H1119 H 0.77198 0.14832 0.20375 0.0
C1120 C 0.70948 0.61044 0.30926 0.0
C1121 C 0.72212 0.63017 0.32901 0.0
C1122 C 0.71369 0.61197 0.27728 0.0
C1123 C 0.7309 0.63381 0.26462 0.0
C1124 C 0.74427 0.65348 0.28445 0.0
C1125 C 0.73978 0.6514 0.31639 0.0
C1126 C 0.69921 0.59048 0.25699 0.0
C1127 C 0.76279 0.67707 0.27188 0.0
C1128 C 0.76201 0.62662 0.18323 0.0
C1129 C 0.7407 0.64186 0.16607 0.0
C1130 C 0.75912 0.62383 0.21526 0.0
C1131 C 0.73425 0.63646 0.23059 0.0
C1132 C 0.7125 0.65163 0.21339 0.0
C1133 C 0.71602 0.6542 0.18139 0.0
C1134 C 0.78283 0.60753 0.23273 0.0
C1135 C 0.68553 0.66527 0.22883 0.0
H1136 H 0.69586 0.5939 0.31873 0.0
H1137 H 0.7496 0.66677 0.3314 0.0
H1138 H 0.68224 0.60022 0.24144 0.0
H1139 H 0.71688 0.58074 0.24229 0.0
H1140 H 0.68747 0.57425 0.27047 0.0
H1141 H 0.77252 0.69012 0.29037 0.0
H1142 H 0.78183 0.66924 0.25747 0.0
H1143 H 0.74813 0.69002 0.25692 0.0
H1144 H 0.78123 0.61705 0.17167 0.0
H1145 H 0.69941 0.66597 0.16839 0.0
H1146 H 0.77165 0.59047 0.24531 0.0
H1147 H 0.7941 0.62075 0.25011 0.0
H1148 H 0.80073 0.59886 0.21741 0.0
H1149 H 0.67164 0.64975 0.2412 0.0
H1150 H 0.67052 0.67615 0.2122 0.0
H1151 H 0.69377 0.68022 0.24616 0.0
C1152 C 0.71781 0.39477 0.6916 0.0
C1153 C 0.73333 0.3779 0.6706 0.0
C1154 C 0.72424 0.39367 0.72322 0.0
C1155 C 0.74676 0.37524 0.73425 0.0
C1156 C 0.76279 0.35839 0.71318 0.0
C1157 C 0.75591 0.35992 0.68163 0.0
C1158 C 0.7067 0.41206 0.74487 0.0
C1159 C 0.78702 0.33851 0.72401 0.0
C1160 C 0.78254 0.38895 0.81254 0.0
C1161 C 0.76658 0.37059 0.83155 0.0
C1162 C 0.7763 0.39068 0.78092 0.0
C1163 C 0.75353 0.37365 0.76785 0.0
C1164 C 0.73713 0.35523 0.78691 0.0
C1165 C 0.74384 0.35393 0.81852 0.0
C1166 C 0.79423 0.41065 0.76145 0.0
C1167 C 0.71264 0.33676 0.77387 0.0
H1168 H 0.70031 0.40873 0.68339 0.0
H1169 H 0.76799 0.34677 0.66564 0.0
H1170 H 0.69395 0.39948 0.76182 0.0
H1171 H 0.72283 0.42517 0.75797 0.0
H1172 H 0.69015 0.42549 0.73261 0.0
H1173 H 0.79764 0.32704 0.70471 0.0
H1174 H 0.80528 0.34965 0.73658 0.0
H1175 H 0.77681 0.32359 0.7403 0.0
H1176 H 0.80017 0.40192 0.82231 0.0
H1177 H 0.73142 0.33965 0.83296 0.0
H1178 H 0.77838 0.42519 0.74997 0.0
H1179 H 0.80669 0.39948 0.7431 0.0
H1180 H 0.81108 0.42256 0.77514 0.0
H1181 H 0.69451 0.34924 0.76274 0.0
H1182 H 0.70189 0.32366 0.79175 0.0
H1183 H 0.72261 0.32334 0.7559 0.0
C1184 C 0.29436 0.3603 0.70176 0.0
C1185 C 0.31591 0.38076 0.70855 0.0
C1186 C 0.26871 0.35612 0.7207 0.0
C1187 C 0.26455 0.37286 0.74693 0.0
C1188 C 0.28707 0.3925 0.75477 0.0
C1189 C 0.31246 0.39618 0.73553 0.0
C1190 C 0.24534 0.33477 0.7118 0.0
C1191 C 0.28354 0.41073 0.7826 0.0
C1192 C 0.18547 0.39238 0.77481 0.0
C1193 C 0.18324 0.37756 0.80236 0.0
C1194 C 0.2112 0.38992 0.75579 0.0
C1195 C 0.23532 0.37213 0.76443 0.0
C1196 C 0.23249 0.35591 0.79126 0.0
C1197 C 0.20646 0.35884 0.80998 0.0
C1198 C 0.21326 0.40754 0.72729 0.0
C1199 C 0.25762 0.3365 0.80102 0.0
H1200 H 0.29691 0.34815 0.68107 0.0
H1201 H 0.32911 0.41185 0.74118 0.0
H1202 H 0.23887 0.32218 0.73202 0.0
H1203 H 0.22424 0.34505 0.70345 0.0
H1204 H 0.25389 0.32101 0.69338 0.0
H1205 H 0.30424 0.4234 0.78688 0.0
H1206 H 0.26369 0.42464 0.77924 0.0
H1207 H 0.27886 0.39824 0.80337 0.0
H1208 H 0.16753 0.40669 0.76852 0.0
H1209 H 0.20487 0.34718 0.83113 0.0
H1210 H 0.21901 0.3948 0.70699 0.0
H1211 H 0.23188 0.4228 0.73012 0.0
H1212 H 0.19157 0.41868 0.72254 0.0
H1213 H 0.26526 0.32382 0.7813 0.0
H1214 H 0.2502 0.32273 0.81993 0.0
H1215 H 0.27771 0.34844 0.80903 0.0
C1216 C 0.28507 0.62758 0.30746 0.0
C1217 C 0.30663 0.60668 0.30255 0.0
C1218 C 0.26063 0.63167 0.28691 0.0
C1219 C 0.25767 0.6144 0.26095 0.0
C1220 C 0.27999 0.59398 0.25528 0.0
C1221 C 0.30417 0.5904 0.27609 0.0
C1222 C 0.23737 0.65377 0.29358 0.0
C1223 C 0.27767 0.57512 0.22786 0.0
C1224 C 0.18016 0.59734 0.22705 0.0
C1225 C 0.18072 0.61186 0.1992 0.0
C1226 C 0.20443 0.59909 0.24802 0.0
C1227 C 0.22997 0.61582 0.24108 0.0
C1228 C 0.23001 0.63171 0.21383 0.0
C1229 C 0.20535 0.62954 0.19316 0.0
C1230 C 0.20342 0.58188 0.27689 0.0
C1231 C 0.25674 0.64995 0.20578 0.0
H1232 H 0.28686 0.64037 0.32773 0.0
H1233 H 0.32079 0.57432 0.27193 0.0
H1234 H 0.23337 0.6665 0.27283 0.0
H1235 H 0.21517 0.64423 0.29983 0.0
H1236 H 0.24468 0.66732 0.31274 0.0
H1237 H 0.29795 0.5615 0.22563 0.0
H1238 H 0.25691 0.56214 0.23002 0.0
H1239 H 0.27529 0.58721 0.2064 0.0
H1240 H 0.16111 0.58384 0.23213 0.0
H1241 H 0.20594 0.64093 0.17177 0.0
H1242 H 0.20822 0.5947 0.29737 0.0
H1243 H 0.22142 0.56585 0.27579 0.0
H1244 H 0.1809 0.57168 0.2801 0.0
H1245 H 0.26316 0.66289 0.22572 0.0
H1246 H 0.25165 0.66345 0.18586 0.0
H1247 H 0.27692 0.63711 0.20002 0.0
loop_
_geom_bond_atom_site_label_1
_geom_bond_atom_site_label_2
_geom_bond_distance
_geom_bond_site_symmetry_2
_ccdc_geom_bond_type
Zn0 O3 2.031 . S
Zn0 O5 2.049 . S
Zn0 O10 2.067 . S
Zn1 O2 1.962 . S
Zn1 O4 1.986 . S
Zn1 O6 1.996 . S
Zn1 O9 1.943 . S
O2 Zn1 1.962 . S
O2 C7 1.254 . S
O3 Zn0 2.031 . S
O3 C7 1.269 . S
O4 Zn1 1.986 . S
O4 C11 1.262 . S
O5 Zn0 2.049 . S
O5 C13 1.260 . S
O6 Zn1 1.996 . S
O6 C13 1.257 . S
C7 O2 1.254 . S
C7 O3 1.269 . S
C8 O9 1.249 . S
C8 O10 1.270 . S
O9 Zn1 1.943 . S
O9 C8 1.249 . S
O10 Zn0 2.067 . S
O10 C8 1.270 . S
C11 O4 1.262 . S
C11 O12 1.232 . S
O12 C11 1.232 . S
C13 O5 1.260 . S
C13 O6 1.257 . S
Zn14 O17 2.031 . S
Zn14 O19 2.049 . S
Zn14 O24 2.067 . S
Zn15 O16 1.962 . S
Zn15 O18 1.986 . S
Zn15 O20 1.996 . S
Zn15 O23 1.943 . S
O16 Zn15 1.962 . S
O16 C21 1.254 . S
O17 Zn14 2.031 . S
O17 C21 1.269 . S
O18 Zn15 1.986 . S
O18 C25 1.262 . S
O19 Zn14 2.049 . S
O19 C27 1.260 . S
O20 Zn15 1.996 . S
O20 C27 1.257 . S
C21 O16 1.254 . S
C21 O17 1.269 . S
C22 O23 1.249 . S
C22 O24 1.270 . S
O23 Zn15 1.943 . S
O23 C22 1.249 . S
O24 Zn14 2.067 . S
O24 C22 1.270 . S
C25 O18 1.262 . S
C25 O26 1.232 . S
O26 C25 1.232 . S
C27 O19 1.260 . S
C27 O20 1.257 . S
Zn28 O31 2.031 . S
Zn28 O33 2.049 . S
Zn28 O38 2.067 . S
Zn29 O30 1.962 . S
Zn29 O32 1.986 . S
Zn29 O34 1.996 . S
Zn29 O37 1.943 . S
O30 Zn29 1.962 . S
O30 C35 1.254 . S
O31 Zn28 2.031 . S
O31 C35 1.269 . S
O32 Zn29 1.986 . S
O32 C39 1.262 . S
O33 Zn28 2.049 . S
O33 C41 1.260 . S
O34 Zn29 1.996 . S
O34 C41 1.257 . S
C35 O30 1.254 . S
C35 O31 1.269 . S
C36 O37 1.249 . S
C36 O38 1.270 . S
O37 Zn29 1.943 . S
O37 C36 1.249 . S
O38 Zn28 2.067 . S
O38 C36 1.270 . S
C39 O32 1.262 . S
C39 O40 1.232 . S
O40 C39 1.232 . S
C41 O33 1.260 . S
C41 O34 1.257 . S
Zn42 O45 2.031 . S
Zn42 O47 2.049 . S
Zn42 O52 2.067 . S
Zn43 O44 1.962 . S
Zn43 O46 1.986 . S
Zn43 O48 1.996 . S
Zn43 O51 1.943 . S
O44 Zn43 1.962 . S
O44 C49 1.254 . S
O45 Zn42 2.031 . S
O45 C49 1.269 . S
O46 Zn43 1.986 . S
O46 C53 1.262 . S
O47 Zn42 2.049 . S
O47 C55 1.260 . S
O48 Zn43 1.996 . S
O48 C55 1.257 . S
C49 O44 1.254 . S
C49 O45 1.269 . S
C50 O51 1.249 . S
C50 O52 1.270 . S
O51 Zn43 1.943 . S
O51 C50 1.249 . S
O52 Zn42 2.067 . S
O52 C50 1.270 . S
C53 O46 1.262 . S
C53 O54 1.232 . S
O54 C53 1.232 . S
C55 O47 1.260 . S
C55 O48 1.257 . S
Zn56 O59 2.031 . S
Zn56 O61 2.049 . S
Zn56 O66 2.067 . S
Zn57 O58 1.962 . S
Zn57 O60 1.986 . S
Zn57 O62 1.996 . S
Zn57 O65 1.943 . S
O58 Zn57 1.962 . S
O58 C63 1.254 . S
O59 Zn56 2.031 . S
O59 C63 1.269 . S
O60 Zn57 1.986 . S
O60 C67 1.262 . S
O61 Zn56 2.049 . S
O61 C69 1.260 . S
O62 Zn57 1.996 . S
O62 C69 1.257 . S
C63 O58 1.254 . S
C63 O59 1.269 . S
C64 O65 1.249 . S
C64 O66 1.270 . S
O65 Zn57 1.943 . S
O65 C64 1.249 . S
O66 Zn56 2.067 . S
O66 C64 1.270 . S
C67 O60 1.262 . S
C67 O68 1.232 . S
O68 C67 1.232 . S
C69 O61 1.260 . S
C69 O62 1.257 . S
Zn70 O73 2.031 . S
Zn70 O75 2.049 . S
Zn70 O80 2.067 . S
Zn71 O72 1.962 . S
Zn71 O74 1.986 . S
Zn71 O76 1.996 . S
Zn71 O79 1.943 . S
O72 Zn71 1.962 . S
O72 C77 1.254 . S
O73 Zn70 2.031 . S
O73 C77 1.269 . S
O74 Zn71 1.986 . S
O74 C81 1.262 . S
O75 Zn70 2.049 . S
O75 C83 1.260 . S
O76 Zn71 1.996 . S
O76 C83 1.257 . S
C77 O72 1.254 . S
C77 O73 1.269 . S
C78 O79 1.249 . S
C78 O80 1.270 . S
O79 Zn71 1.943 . S
O79 C78 1.249 . S
O80 Zn70 2.067 . S
O80 C78 1.270 . S
C81 O74 1.262 . S
C81 O82 1.232 . S
O82 C81 1.232 . S
C83 O75 1.260 . S
C83 O76 1.257 . S
Zn84 O87 2.031 . S
Zn84 O89 2.049 . S
Zn84 O94 2.067 . S
Zn85 O86 1.962 . S
Zn85 O88 1.986 . S
Zn85 O90 1.996 . S
Zn85 O93 1.943 . S
O86 Zn85 1.962 . S
O86 C91 1.254 . S
O87 Zn84 2.031 . S
O87 C91 1.269 . S
O88 Zn85 1.986 . S
O88 C95 1.262 . S
O89 Zn84 2.049 . S
O89 C97 1.260 . S
O90 Zn85 1.996 . S
O90 C97 1.257 . S
C91 O86 1.254 . S
C91 O87 1.269 . S
C92 O93 1.249 . S
C92 O94 1.270 . S
O93 Zn85 1.943 . S
O93 C92 1.249 . S
O94 Zn84 2.067 . S
O94 C92 1.270 . S
C95 O88 1.262 . S
C95 O96 1.232 . S
O96 C95 1.232 . S
C97 O89 1.260 . S
C97 O90 1.257 . S
Zn98 O101 2.031 . S
Zn98 O103 2.049 . S
Zn98 O108 2.067 . S
Zn99 O100 1.962 . S
Zn99 O102 1.986 . S
Zn99 O104 1.996 . S
Zn99 O107 1.943 . S
O100 Zn99 1.962 . S
O100 C105 1.254 . S
O101 Zn98 2.031 . S
O101 C105 1.269 . S
O102 Zn99 1.986 . S
O102 C109 1.262 . S
O103 Zn98 2.049 . S
O103 C111 1.260 . S
O104 Zn99 1.996 . S
O104 C111 1.257 . S
C105 O100 1.254 . S
C105 O101 1.269 . S
C106 O107 1.249 . S
C106 O108 1.270 . S
O107 Zn99 1.943 . S
O107 C106 1.249 . S
O108 Zn98 2.067 . S
O108 C106 1.270 . S
C109 O102 1.262 . S
C109 O110 1.232 . S
O110 C109 1.232 . S
C111 O103 1.260 . S
C111 O104 1.257 . S
Zn112 O115 2.031 . S
Zn112 O117 2.049 . S
Zn112 O122 2.067 . S
Zn113 O114 1.962 . S
Zn113 O116 1.986 . S
Zn113 O118 1.996 . S
Zn113 O121 1.943 . S
O114 Zn113 1.962 . S
O114 C119 1.254 . S
O115 Zn112 2.031 . S
O115 C119 1.269 . S
O116 Zn113 1.986 . S
O116 C123 1.262 . S
O117 Zn112 2.049 . S
O117 C125 1.260 . S
O118 Zn113 1.996 . S
O118 C125 1.257 . S
C119 O114 1.254 . S
C119 O115 1.269 . S
C120 O121 1.249 . S
C120 O122 1.270 . S
O121 Zn113 1.943 . S
O121 C120 1.249 . S
O122 Zn112 2.067 . S
O122 C120 1.270 . S
C123 O116 1.262 . S
C123 O124 1.232 . S
O124 C123 1.232 . S
C125 O117 1.260 . S
C125 O118 1.257 . S
Zn126 O129 2.031 . S
Zn126 O131 2.049 . S
Zn126 O136 2.067 . S
Zn127 O128 1.962 . S
Zn127 O130 1.986 . S
Zn127 O132 1.996 . S
Zn127 O135 1.943 . S
O128 Zn127 1.962 . S
O128 C133 1.254 . S
O129 Zn126 2.031 . S
O129 C133 1.269 . S
O130 Zn127 1.986 . S
O130 C137 1.262 . S
O131 Zn126 2.049 . S
O131 C139 1.260 . S
O132 Zn127 1.996 . S
O132 C139 1.257 . S
C133 O128 1.254 . S
C133 O129 1.269 . S
C134 O135 1.249 . S
C134 O136 1.270 . S
O135 Zn127 1.943 . S
O135 C134 1.249 . S
O136 Zn126 2.067 . S
O136 C134 1.270 . S
C137 O130 1.262 . S
C137 O138 1.232 . S
O138 C137 1.232 . S
C139 O131 1.260 . S
C139 O132 1.257 . S
Zn140 O143 2.031 . S
Zn140 O145 2.049 . S
Zn140 O150 2.067 . S
Zn141 O142 1.962 . S
Zn141 O144 1.986 . S
Zn141 O146 1.996 . S
Zn141 O149 1.943 . S
O142 Zn141 1.962 . S
O142 C147 1.254 . S
O143 Zn140 2.031 . S
O143 C147 1.269 . S
O144 Zn141 1.986 . S
O144 C151 1.262 . S
O145 Zn140 2.049 . S
O145 C153 1.260 . S
O146 Zn141 1.996 . S
O146 C153 1.257 . S
C147 O142 1.254 . S
C147 O143 1.269 . S
C148 O149 1.249 . S
C148 O150 1.270 . S
O149 Zn141 1.943 . S
O149 C148 1.249 . S
O150 Zn140 2.067 . S
O150 C148 1.270 . S
C151 O144 1.262 . S
C151 O152 1.232 . S
O152 C151 1.232 . S
C153 O145 1.260 . S
C153 O146 1.257 . S
Zn154 O157 2.031 . S
Zn154 O159 2.049 . S
Zn154 O164 2.067 . S
Zn155 O156 1.962 . S
Zn155 O158 1.986 . S
Zn155 O160 1.996 . S
Zn155 O163 1.943 . S
O156 Zn155 1.962 . S
O156 C161 1.254 . S
O157 Zn154 2.031 . S
O157 C161 1.269 . S
O158 Zn155 1.986 . S
O158 C165 1.262 . S
O159 Zn154 2.049 . S
O159 C167 1.260 . S
O160 Zn155 1.996 . S
O160 C167 1.257 . S
C161 O156 1.254 . S
C161 O157 1.269 . S
C162 O163 1.249 . S
C162 O164 1.270 . S
O163 Zn155 1.943 . S
O163 C162 1.249 . S
O164 Zn154 2.067 . S
O164 C162 1.270 . S
C165 O158 1.262 . S
C165 O166 1.232 . S
O166 C165 1.232 . S
C167 O159 1.260 . S
C167 O160 1.257 . S
Zn168 O171 2.031 . S
Zn168 O173 2.049 . S
Zn168 O178 2.067 . S
Zn169 O170 1.962 . S
Zn169 O172 1.986 . S
Zn169 O174 1.996 . S
Zn169 O177 1.943 . S
O170 Zn169 1.962 . S
O170 C175 1.254 . S
O171 Zn168 2.031 . S
O171 C175 1.269 . S
O172 Zn169 1.986 . S
O172 C179 1.262 . S
O173 Zn168 2.049 . S
O173 C181 1.260 . S
O174 Zn169 1.996 . S
O174 C181 1.257 . S
C175 O170 1.254 . S
C175 O171 1.269 . S
C176 O177 1.249 . S
C176 O178 1.270 . S
O177 Zn169 1.943 . S
O177 C176 1.249 . S
O178 Zn168 2.067 . S
O178 C176 1.270 . S
C179 O172 1.262 . S
C179 O180 1.232 . S
O180 C179 1.232 . S
C181 O173 1.260 . S
C181 O174 1.257 . S
Zn182 O185 2.031 . S
Zn182 O187 2.049 . S
Zn182 O192 2.067 . S
Zn183 O184 1.962 . S
Zn183 O186 1.986 . S
Zn183 O188 1.996 . S
Zn183 O191 1.943 . S
O184 Zn183 1.962 . S
O184 C189 1.254 . S
O185 Zn182 2.031 . S
O185 C189 1.269 . S
O186 Zn183 1.986 . S
O186 C193 1.262 . S
O187 Zn182 2.049 . S
O187 C195 1.260 . S
O188 Zn183 1.996 . S
O188 C195 1.257 . S
C189 O184 1.254 . S
C189 O185 1.269 . S
C190 O191 1.249 . S
C190 O192 1.270 . S
O191 Zn183 1.943 . S
O191 C190 1.249 . S
O192 Zn182 2.067 . S
O192 C190 1.270 . S
C193 O186 1.262 . S
C193 O194 1.232 . S
O194 C193 1.232 . S
C195 O187 1.260 . S
C195 O188 1.257 . S
Zn196 O199 2.031 . S
Zn196 O201 2.049 . S
Zn196 O206 2.067 . S
Zn197 O198 1.962 . S
Zn197 O200 1.986 . S
Zn197 O202 1.996 . S
Zn197 O205 1.943 . S
O198 Zn197 1.962 . S
O198 C203 1.254 . S
O199 Zn196 2.031 . S
O199 C203 1.269 . S
O200 Zn197 1.986 . S
O200 C207 1.262 . S
O201 Zn196 2.049 . S
O201 C209 1.260 . S
O202 Zn197 1.996 . S
O202 C209 1.257 . S
C203 O198 1.254 . S
C203 O199 1.269 . S
C204 O205 1.249 . S
C204 O206 1.270 . S
O205 Zn197 1.943 . S
O205 C204 1.249 . S
O206 Zn196 2.067 . S
O206 C204 1.270 . S
C207 O200 1.262 . S
C207 O208 1.232 . S
O208 C207 1.232 . S
C209 O201 1.260 . S
C209 O202 1.257 . S
Zn210 O213 2.031 . S
Zn210 O215 2.049 . S
Zn210 O220 2.067 . S
Zn211 O212 1.962 . S
Zn211 O214 1.986 . S
Zn211 O216 1.996 . S
Zn211 O219 1.943 . S
O212 Zn211 1.962 . S
O212 C217 1.254 . S
O213 Zn210 2.031 . S
O213 C217 1.269 . S
O214 Zn211 1.986 . S
O214 C221 1.262 . S
O215 Zn210 2.049 . S
O215 C223 1.260 . S
O216 Zn211 1.996 . S
O216 C223 1.257 . S
C217 O212 1.254 . S
C217 O213 1.269 . S
C218 O219 1.249 . S
C218 O220 1.270 . S
O219 Zn211 1.943 . S
O219 C218 1.249 . S
O220 Zn210 2.067 . S
O220 C218 1.270 . S
C221 O214 1.262 . S
C221 O222 1.232 . S
O222 C221 1.232 . S
C223 O215 1.260 . S
C223 O216 1.257 . S
C224 C225 1.391 . S
C224 C226 1.394 . S
C224 H240 0.931 . S
C225 C224 1.391 . S
C225 C229 1.376 . S
C226 C224 1.394 . S
C226 C227 1.369 . S
C226 C230 1.531 . S
C227 C226 1.369 . S
C227 C228 1.410 1_554 S
C227 C235 1.503 1_554 S
C228 C227 1.410 1_556 S
C228 C229 1.392 1_556 S
C228 C231 1.511 . S
C229 C225 1.376 . S
C229 C228 1.392 1_554 S
C229 H241 0.929 . S
C230 C226 1.531 . S
C230 H242 0.960 . S
C230 H243 0.962 . S
C230 H244 0.960 . S
C231 C228 1.511 . S
C231 H245 0.961 . S
C231 H246 0.961 . S
C231 H247 0.961 . S
C232 C233 1.370 . S
C232 C234 1.363 . S
C232 H248 0.931 . S
C233 C232 1.370 . S
C233 C237 1.408 . S
C234 C232 1.363 . S
C234 C235 1.370 . S
C234 C238 1.524 . S
C235 C227 1.503 1_556 S
C235 C234 1.370 . S
C235 C236 1.403 . S
C236 C235 1.403 . S
C236 C237 1.404 . S
C236 C239 1.539 1_556 S
C237 C233 1.408 . S
C237 C236 1.404 . S
C237 H249 0.930 . S
C238 C234 1.524 . S
C238 H250 0.956 . S
C238 H251 0.961 . S
C238 H252 0.961 . S
C239 C236 1.539 1_554 S
C239 H253 0.958 . S
C239 H254 0.961 . S
C239 H255 0.960 . S
H240 C224 0.931 . S
H241 C229 0.929 . S
H242 C230 0.960 . S
H243 C230 0.962 . S
H244 C230 0.960 . S
H245 C231 0.961 . S
H246 C231 0.961 . S
H247 C231 0.961 . S
H248 C232 0.931 . S
H249 C237 0.930 . S
H250 C238 0.956 . S
H251 C238 0.961 . S
H252 C238 0.961 . S
H253 C239 0.958 . S
H254 C239 0.961 . S
H255 C239 0.960 . S
C256 C257 1.391 . S
C256 C258 1.394 . S
C256 H272 0.931 . S
C257 C256 1.391 . S
C257 C261 1.376 . S
C258 C256 1.394 . S
C258 C259 1.369 . S
C258 C262 1.531 . S
C259 C258 1.369 . S
C259 C260 1.410 . S
C259 C267 1.503 . S
C260 C259 1.410 . S
C260 C261 1.392 . S
C260 C263 1.511 . S
C261 C257 1.376 . S
C261 C260 1.392 . S
C261 H273 0.929 . S
C262 C258 1.531 . S
C262 H274 0.960 . S
C262 H275 0.962 . S
C262 H276 0.960 . S
C263 C260 1.511 . S
C263 H277 0.961 . S
C263 H278 0.961 . S
C263 H279 0.961 . S
C264 C265 1.370 . S
C264 C266 1.363 . S
C264 H280 0.931 . S
C265 C264 1.370 . S
C265 C269 1.408 . S
C266 C264 1.363 . S
C266 C267 1.370 . S
C266 C270 1.524 . S
C267 C259 1.503 . S
C267 C266 1.370 . S
C267 C268 1.403 . S
C268 C267 1.403 . S
C268 C269 1.404 . S
C268 C271 1.539 . S
C269 C265 1.408 . S
C269 C268 1.404 . S
C269 H281 0.930 . S
C270 C266 1.524 . S
C270 H282 0.956 . S
C270 H283 0.961 . S
C270 H284 0.961 . S
C271 C268 1.539 . S
C271 H285 0.958 . S
C271 H286 0.961 . S
C271 H287 0.960 . S
H272 C256 0.931 . S
H273 C261 0.929 . S
H274 C262 0.960 . S
H275 C262 0.962 . S
H276 C262 0.960 . S
H277 C263 0.961 . S
H278 C263 0.961 . S
H279 C263 0.961 . S
H280 C264 0.931 . S
H281 C269 0.930 . S
H282 C270 0.956 . S
H283 C270 0.961 . S
H284 C270 0.961 . S
H285 C271 0.958 . S
H286 C271 0.961 . S
H287 C271 0.960 . S
C288 C289 1.391 . S
C288 C290 1.394 . S
C288 H304 0.931 . S
C289 C288 1.391 . S
C289 C293 1.376 . S
C290 C288 1.394 . S
C290 C291 1.369 . S
C290 C294 1.531 1_556 S
C291 C290 1.369 . S
C291 C292 1.410 . S
C291 C299 1.503 1_556 S
C292 C291 1.410 . S
C292 C293 1.392 . S
C292 C295 1.511 . S
C293 C289 1.376 . S
C293 C292 1.392 . S
C293 H305 0.929 . S
C294 C290 1.531 1_554 S
C294 H306 0.960 . S
C294 H307 0.962 . S
C294 H308 0.960 . S
C295 C292 1.511 . S
C295 H309 0.961 . S
C295 H310 0.961 . S
C295 H311 0.961 1_556 S
C296 C297 1.370 . S
C296 C298 1.363 1_554 S
C296 H312 0.931 1_554 S
C297 C296 1.370 . S
C297 C301 1.408 . S
C298 C296 1.363 1_556 S
C298 C299 1.370 1_556 S
C298 C302 1.524 . S
C299 C291 1.503 1_554 S
C299 C298 1.370 1_554 S
C299 C300 1.403 . S
C300 C299 1.403 . S
C300 C301 1.404 . S
C300 C303 1.539 . S
C301 C297 1.408 . S
C301 C300 1.404 . S
C301 H313 0.930 . S
C302 C298 1.524 . S
C302 H314 0.956 . S
C302 H315 0.961 . S
C302 H316 0.961 . S
C303 C300 1.539 . S
C303 H317 0.958 . S
C303 H318 0.961 . S
C303 H319 0.960 . S
H304 C288 0.931 . S
H305 C293 0.929 . S
H306 C294 0.960 . S
H307 C294 0.962 . S
H308 C294 0.960 . S
H309 C295 0.961 . S
H310 C295 0.961 . S
H311 C295 0.961 1_554 S
H312 C296 0.931 1_556 S
H313 C301 0.930 . S
H314 C302 0.956 . S
H315 C302 0.961 . S
H316 C302 0.961 . S
H317 C303 0.958 . S
H318 C303 0.961 . S
H319 C303 0.960 . S
C320 C321 1.391 . S
C320 C322 1.394 . S
C320 H336 0.931 . S
C321 C320 1.391 . S
C321 C325 1.376 . S
C322 C320 1.394 . S
C322 C323 1.369 . S
C322 C326 1.531 . S
C323 C322 1.369 . S
C323 C324 1.410 . S
C323 C331 1.503 . S
C324 C323 1.410 . S
C324 C325 1.392 . S
C324 C327 1.511 . S
C325 C321 1.376 . S
C325 C324 1.392 . S
C325 H337 0.929 . S
C326 C322 1.531 . S
C326 H338 0.960 . S
C326 H339 0.962 . S
C326 H340 0.960 . S
C327 C324 1.511 . S
C327 H341 0.961 . S
C327 H342 0.961 . S
C327 H343 0.961 . S
C328 C329 1.370 . S
C328 C330 1.363 . S
C328 H344 0.931 . S
C329 C328 1.370 . S
C329 C333 1.408 . S
C330 C328 1.363 . S
C330 C331 1.370 . S
C330 C334 1.524 . S
C331 C323 1.503 . S
C331 C330 1.370 . S
C331 C332 1.403 . S
C332 C331 1.403 . S
C332 C333 1.404 . S
C332 C335 1.539 . S
C333 C329 1.408 . S
C333 C332 1.404 . S
C333 H345 0.930 . S
C334 C330 1.524 . S
C334 H346 0.956 . S
C334 H347 0.961 . S
C334 H348 0.961 . S
C335 C332 1.539 . S
C335 H349 0.958 . S
C335 H350 0.961 . S
C335 H351 0.960 . S
H336 C320 0.931 . S
H337 C325 0.929 . S
H338 C326 0.960 . S
H339 C326 0.962 . S
H340 C326 0.960 . S
H341 C327 0.961 . S
H342 C327 0.961 . S
H343 C327 0.961 . S
H344 C328 0.931 . S
H345 C333 0.930 . S
H346 C334 0.956 . S
H347 C334 0.961 . S
H348 C334 0.961 . S
H349 C335 0.958 . S
H350 C335 0.961 . S
H351 C335 0.960 . S
C352 C353 1.391 . S
C352 C354 1.394 1_554 S
C352 H368 0.931 1_554 S
C353 C352 1.391 . S
C353 C357 1.376 . S
C354 C352 1.394 1_556 S
C354 C355 1.369 1_556 S
C354 C358 1.531 . S
C355 C354 1.369 1_554 S
C355 C356 1.410 . S
C355 C363 1.503 1_554 S
C356 C355 1.410 . S
C356 C357 1.392 . S
C356 C359 1.511 . S
C357 C353 1.376 . S
C357 C356 1.392 . S
C357 H369 0.929 . S
C358 C354 1.531 . S
C358 H370 0.960 . S
C358 H371 0.962 . S
C358 H372 0.960 . S
C359 C356 1.511 . S
C359 H373 0.961 . S
C359 H374 0.961 . S
C359 H375 0.961 . S
C360 C361 1.370 . S
C360 C362 1.363 . S
C360 H376 0.931 . S
C361 C360 1.370 . S
C361 C365 1.408 . S
C362 C360 1.363 . S
C362 C363 1.370 . S
C362 C366 1.524 . S
C363 C355 1.503 1_556 S
C363 C362 1.370 . S
C363 C364 1.403 . S
C364 C363 1.403 . S
C364 C365 1.404 . S
C364 C367 1.539 . S
C365 C361 1.408 . S
C365 C364 1.404 . S
C365 H377 0.930 . S
C366 C362 1.524 . S
C366 H378 0.956 . S
C366 H379 0.961 1_556 S
C366 H380 0.961 . S
C367 C364 1.539 . S
C367 H381 0.958 . S
C367 H382 0.961 . S
C367 H383 0.960 1_556 S
H368 C352 0.931 1_556 S
H369 C357 0.929 . S
H370 C358 0.960 . S
H371 C358 0.962 . S
H372 C358 0.960 . S
H373 C359 0.961 . S
H374 C359 0.961 . S
H375 C359 0.961 . S
H376 C360 0.931 . S
H377 C365 0.930 . S
H378 C366 0.956 . S
H379 C366 0.961 1_554 S
H380 C366 0.961 . S
H381 C367 0.958 . S
H382 C367 0.961 . S
H383 C367 0.960 1_554 S
C384 C385 1.391 . S
C384 C386 1.394 . S
C384 H400 0.931 . S
C385 C384 1.391 . S
C385 C389 1.376 . S
C386 C384 1.394 . S
C386 C387 1.369 . S
C386 C390 1.531 . S
C387 C386 1.369 . S
C387 C388 1.410 . S
C387 C395 1.503 . S
C388 C387 1.410 . S
C388 C389 1.392 . S
C388 C391 1.511 . S
C389 C385 1.376 . S
C389 C388 1.392 . S
C389 H401 0.929 . S
C390 C386 1.531 . S
C390 H402 0.960 . S
C390 H403 0.962 . S
C390 H404 0.960 . S
C391 C388 1.511 . S
C391 H405 0.961 . S
C391 H406 0.961 . S
C391 H407 0.961 . S
C392 C393 1.370 . S
C392 C394 1.363 . S
C392 H408 0.931 . S
C393 C392 1.370 . S
C393 C397 1.408 . S
C394 C392 1.363 . S
C394 C395 1.370 . S
C394 C398 1.524 . S
C395 C387 1.503 . S
C395 C394 1.370 . S
C395 C396 1.403 . S
C396 C395 1.403 . S
C396 C397 1.404 . S
C396 C399 1.539 . S
C397 C393 1.408 . S
C397 C396 1.404 . S
C397 H409 0.930 . S
C398 C394 1.524 . S
C398 H410 0.956 . S
C398 H411 0.961 . S
C398 H412 0.961 . S
C399 C396 1.539 . S
C399 H413 0.958 . S
C399 H414 0.961 . S
C399 H415 0.960 . S
H400 C384 0.931 . S
H401 C389 0.929 . S
H402 C390 0.960 . S
H403 C390 0.962 . S
H404 C390 0.960 . S
H405 C391 0.961 . S
H406 C391 0.961 . S
H407 C391 0.961 . S
H408 C392 0.931 . S
H409 C397 0.930 . S
H410 C398 0.956 . S
H411 C398 0.961 . S
H412 C398 0.961 . S
H413 C399 0.958 . S
H414 C399 0.961 . S
H415 C399 0.960 . S
C416 C417 1.391 . S
C416 C418 1.394 1_556 S
C416 H432 0.931 1_556 S
C417 C416 1.391 . S
C417 C421 1.376 . S
C418 C416 1.394 1_554 S
C418 C419 1.369 1_554 S
C418 C422 1.531 . S
C419 C418 1.369 1_556 S
C419 C420 1.410 . S
C419 C427 1.503 1_556 S
C420 C419 1.410 . S
C420 C421 1.392 . S
C420 C423 1.511 . S
C421 C417 1.376 . S
C421 C420 1.392 . S
C421 H433 0.929 . S
C422 C418 1.531 . S
C422 H434 0.960 . S
C422 H435 0.962 . S
C422 H436 0.960 . S
C423 C420 1.511 . S
C423 H437 0.961 . S
C423 H438 0.961 . S
C423 H439 0.961 . S
C424 C425 1.370 . S
C424 C426 1.363 . S
C424 H440 0.931 . S
C425 C424 1.370 . S
C425 C429 1.408 . S
C426 C424 1.363 . S
C426 C427 1.370 . S
C426 C430 1.524 1_554 S
C427 C419 1.503 1_554 S
C427 C426 1.370 . S
C427 C428 1.403 . S
C428 C427 1.403 . S
C428 C429 1.404 . S
C428 C431 1.539 . S
C429 C425 1.408 . S
C429 C428 1.404 . S
C429 H441 0.930 . S
C430 C426 1.524 1_556 S
C430 H442 0.949 1_556 S
C430 H443 0.961 . S
C430 H444 0.961 . S
C431 C428 1.539 . S
C431 H445 0.958 . S
C431 H446 0.961 . S
C431 H447 0.960 . S
H432 C416 0.931 1_554 S
H433 C421 0.929 . S
H434 C422 0.960 . S
H435 C422 0.962 . S
H436 C422 0.960 . S
H437 C423 0.961 . S
H438 C423 0.961 . S
H439 C423 0.961 . S
H440 C424 0.931 . S
H441 C429 0.930 . S
H442 C430 0.949 1_554 S
H443 C430 0.961 . S
H444 C430 0.961 . S
H445 C431 0.958 . S
H446 C431 0.961 . S
H447 C431 0.960 . S
C448 C449 1.391 . S
C448 C450 1.394 . S
C448 H464 0.931 . S
C449 C448 1.391 . S
C449 C453 1.376 . S
C450 C448 1.394 . S
C450 C451 1.369 . S
C450 C454 1.531 . S
C451 C450 1.369 . S
C451 C452 1.410 . S
C451 C459 1.503 . S
C452 C451 1.410 . S
C452 C453 1.392 . S
C452 C455 1.511 . S
C453 C449 1.376 . S
C453 C452 1.392 . S
C453 H465 0.929 . S
C454 C450 1.531 . S
C454 H466 0.960 . S
C454 H467 0.962 . S
C454 H468 0.960 . S
C455 C452 1.511 . S
C455 H469 0.961 . S
C455 H470 0.961 . S
C455 H471 0.961 . S
C456 C457 1.370 . S
C456 C458 1.363 . S
C456 H472 0.931 . S
C457 C456 1.370 . S
C457 C461 1.408 . S
C458 C456 1.363 . S
C458 C459 1.370 . S
C458 C462 1.524 . S
C459 C451 1.503 . S
C459 C458 1.370 . S
C459 C460 1.403 . S
C460 C459 1.403 . S
C460 C461 1.404 . S
C460 C463 1.539 . S
C461 C457 1.408 . S
C461 C460 1.404 . S
C461 H473 0.930 . S
C462 C458 1.524 . S
C462 H474 0.956 . S
C462 H475 0.961 . S
C462 H476 0.961 . S
C463 C460 1.539 . S
C463 H477 0.958 . S
C463 H478 0.961 . S
C463 H479 0.960 . S
H464 C448 0.931 . S
H465 C453 0.929 . S
H466 C454 0.960 . S
H467 C454 0.962 . S
H468 C454 0.960 . S
H469 C455 0.961 . S
H470 C455 0.961 . S
H471 C455 0.961 . S
H472 C456 0.931 . S
H473 C461 0.930 . S
H474 C462 0.956 . S
H475 C462 0.961 . S
H476 C462 0.961 . S
H477 C463 0.958 . S
H478 C463 0.961 . S
H479 C463 0.960 . S
C480 C481 1.391 . S
C480 C482 1.394 . S
C480 H496 0.931 . S
C481 C480 1.391 . S
C481 C485 1.376 . S
C482 C480 1.394 . S
C482 C483 1.369 . S
C482 C486 1.531 1_545 S
C483 C482 1.369 . S
C483 C484 1.410 . S
C483 C491 1.503 1_544 S
C484 C483 1.410 . S
C484 C485 1.392 . S
C484 C487 1.511 1_554 S
C485 C481 1.376 . S
C485 C484 1.392 . S
C485 H497 0.929 . S
C486 C482 1.531 1_565 S
C486 H498 0.960 . S
C486 H499 0.962 . S
C486 H500 0.960 . S
C487 C484 1.511 1_556 S
C487 H501 0.961 . S
C487 H502 0.961 . S
C487 H503 0.961 . S
C488 C489 1.370 . S
C488 C490 1.363 . S
C488 H504 0.931 . S
C489 C488 1.370 . S
C489 C493 1.408 . S
C490 C488 1.363 . S
C490 C491 1.370 . S
C490 C494 1.524 1_565 S
C491 C483 1.503 1_566 S
C491 C490 1.370 . S
C491 C492 1.403 1_556 S
C492 C491 1.403 1_554 S
C492 C493 1.404 1_554 S
C492 C495 1.539 . S
C493 C489 1.408 . S
C493 C492 1.404 1_556 S
C493 H505 0.930 . S
C494 C490 1.524 1_545 S
C494 H506 0.956 . S
C494 H507 0.961 . S
C494 H508 0.961 . S
C495 C492 1.539 . S
C495 H509 0.958 . S
C495 H510 0.961 . S
C495 H511 0.960 . S
H496 C480 0.931 . S
H497 C485 0.929 . S
H498 C486 0.960 . S
H499 C486 0.962 . S
H500 C486 0.960 . S
H501 C487 0.961 . S
H502 C487 0.961 . S
H503 C487 0.961 . S
H504 C488 0.931 . S
H505 C493 0.930 . S
H506 C494 0.956 . S
H507 C494 0.961 . S
H508 C494 0.961 . S
H509 C495 0.958 . S
H510 C495 0.961 . S
H511 C495 0.960 . S
C512 C513 1.391 . S
C512 C514 1.394 . S
C512 H528 0.931 . S
C513 C512 1.391 . S
C513 C517 1.376 . S
C514 C512 1.394 . S
C514 C515 1.369 . S
C514 C518 1.531 . S
C515 C514 1.369 . S
C515 C516 1.410 . S
C515 C523 1.503 1_565 S
C516 C515 1.410 . S
C516 C517 1.392 . S
C516 C519 1.511 . S
C517 C513 1.376 . S
C517 C516 1.392 . S
C517 H529 0.929 . S
C518 C514 1.531 . S
C518 H530 0.960 1_565 S
C518 H531 0.962 . S
C518 H532 0.960 . S
C519 C516 1.511 . S
C519 H533 0.961 . S
C519 H534 0.961 1_565 S
C519 H535 0.961 1_565 S
C520 C521 1.370 . S
C520 C522 1.363 . S
C520 H536 0.931 . S
C521 C520 1.370 . S
C521 C525 1.408 . S
C522 C520 1.363 . S
C522 C523 1.370 . S
C522 C526 1.524 1_545 S
C523 C515 1.503 1_545 S
C523 C522 1.370 . S
C523 C524 1.403 . S
C524 C523 1.403 . S
C524 C525 1.404 . S
C524 C527 1.539 . S
C525 C521 1.408 . S
C525 C524 1.404 . S
C525 H537 0.930 . S
C526 C522 1.524 1_565 S
C526 H538 0.956 . S
C526 H539 0.961 . S
C526 H540 0.961 . S
C527 C524 1.539 . S
C527 H541 0.958 . S
C527 H542 0.961 . S
C527 H543 0.960 . S
H528 C512 0.931 . S
H529 C517 0.929 . S
H530 C518 0.960 1_545 S
H531 C518 0.962 . S
H532 C518 0.960 . S
H533 C519 0.961 . S
H534 C519 0.961 1_545 S
H535 C519 0.961 1_545 S
H536 C520 0.931 . S
H537 C525 0.930 . S
H538 C526 0.956 . S
H539 C526 0.961 . S
H540 C526 0.961 . S
H541 C527 0.958 . S
H542 C527 0.961 . S
H543 C527 0.960 . S
C544 C545 1.391 . S
C544 C546 1.394 . S
C544 H560 0.931 . S
C545 C544 1.391 . S
C545 C549 1.376 . S
C546 C544 1.394 . S
C546 C547 1.369 . S
C546 C550 1.531 . S
C547 C546 1.369 . S
C547 C548 1.410 . S
C547 C555 1.503 1_566 S
C548 C547 1.410 . S
C548 C549 1.392 . S
C548 C551 1.511 . S
C549 C545 1.376 . S
C549 C548 1.392 . S
C549 H561 0.929 . S
C550 C546 1.531 . S
C550 H562 0.960 1_565 S
C550 H563 0.962 . S
C550 H564 0.960 . S
C551 C548 1.511 . S
C551 H565 0.961 . S
C551 H566 0.961 1_556 S
C551 H567 0.963 1_565 S
C552 C553 1.370 . S
C552 C554 1.363 . S
C552 H568 0.931 . S
C553 C552 1.370 . S
C553 C557 1.408 . S
C554 C552 1.363 . S
C554 C555 1.370 . S
C554 C558 1.524 1_545 S
C555 C547 1.503 1_544 S
C555 C554 1.370 . S
C555 C556 1.403 1_554 S
C556 C555 1.403 1_556 S
C556 C557 1.404 1_556 S
C556 C559 1.539 . S
C557 C553 1.408 . S
C557 C556 1.404 1_554 S
C557 H569 0.930 . S
C558 C554 1.524 1_565 S
C558 H570 0.956 . S
C558 H571 0.961 . S
C558 H572 0.961 . S
C559 C556 1.539 . S
C559 H573 0.958 . S
C559 H574 0.961 . S
C559 H575 0.960 . S
H560 C544 0.931 . S
H561 C549 0.929 . S
H562 C550 0.960 1_545 S
H563 C550 0.962 . S
H564 C550 0.960 . S
H565 C551 0.961 . S
H566 C551 0.961 1_554 S
H567 C551 0.963 1_545 S
H568 C552 0.931 . S
H569 C557 0.930 . S
H570 C558 0.956 . S
H571 C558 0.961 . S
H572 C558 0.961 . S
H573 C559 0.958 . S
H574 C559 0.961 . S
H575 C559 0.960 . S
C576 C577 1.391 . S
C576 C578 1.394 . S
C576 H592 0.931 . S
C577 C576 1.391 . S
C577 C581 1.376 . S
C578 C576 1.394 . S
C578 C579 1.369 . S
C578 C582 1.531 . S
C579 C578 1.369 . S
C579 C580 1.410 . S
C579 C587 1.503 1_545 S
C580 C579 1.410 . S
C580 C581 1.392 . S
C580 C583 1.511 1_545 S
C581 C577 1.376 . S
C581 C580 1.392 . S
C581 H593 0.929 . S
C582 C578 1.531 . S
C582 H594 0.960 . S
C582 H595 0.962 . S
C582 H596 0.960 . S
C583 C580 1.511 1_565 S
C583 H597 0.961 . S
C583 H598 0.961 . S
C583 H599 0.961 . S
C584 C585 1.370 . S
C584 C586 1.363 . S
C584 H600 0.931 . S
C585 C584 1.370 . S
C585 C589 1.408 . S
C586 C584 1.363 . S
C586 C587 1.370 . S
C586 C590 1.524 1_565 S
C587 C579 1.503 1_565 S
C587 C586 1.370 . S
C587 C588 1.403 . S
C588 C587 1.403 . S
C588 C589 1.404 . S
C588 C591 1.539 . S
C589 C585 1.408 . S
C589 C588 1.404 . S
C589 H601 0.930 . S
C590 C586 1.524 1_545 S
C590 H602 0.956 . S
C590 H603 0.961 . S
C590 H604 0.961 1_545 S
C591 C588 1.539 . S
C591 H605 0.958 . S
C591 H606 0.961 . S
C591 H607 0.960 . S
H592 C576 0.931 . S
H593 C581 0.929 . S
H594 C582 0.960 . S
H595 C582 0.962 . S
H596 C582 0.960 . S
H597 C583 0.961 . S
H598 C583 0.961 . S
H599 C583 0.961 . S
H600 C584 0.931 . S
H601 C589 0.930 . S
H602 C590 0.956 . S
H603 C590 0.961 . S
H604 C590 0.961 1_565 S
H605 C591 0.958 . S
H606 C591 0.961 . S
H607 C591 0.960 . S
C608 C609 1.391 . S
C608 C610 1.394 . S
C608 H624 0.931 . S
C609 C608 1.391 . S
C609 C613 1.376 . S
C610 C608 1.394 . S
C610 C611 1.369 . S
C610 C614 1.531 1_556 S
C611 C610 1.369 . S
C611 C612 1.410 . S
C611 C619 1.503 1_556 S
C612 C611 1.410 . S
C612 C613 1.392 . S
C612 C615 1.511 . S
C613 C609 1.376 . S
C613 C612 1.392 . S
C613 H625 0.929 . S
C614 C610 1.531 1_554 S
C614 H626 0.960 . S
C614 H627 0.962 1_554 S
C614 H628 0.960 . S
C615 C612 1.511 . S
C615 H629 0.961 . S
C615 H630 0.961 . S
C615 H631 0.961 1_556 S
C616 C617 1.370 . S
C616 C618 1.363 1_554 S
C616 H632 0.948 . S
C617 C616 1.370 . S
C617 C621 1.408 . S
C618 C616 1.363 1_556 S
C618 C619 1.370 1_556 S
C618 C622 1.524 . S
C619 C611 1.503 1_554 S
C619 C618 1.370 1_554 S
C619 C620 1.403 . S
C620 C619 1.403 . S
C620 C621 1.404 . S
C620 C623 1.539 . S
C621 C617 1.408 . S
C621 C620 1.404 . S
C621 H633 0.930 . S
C622 C618 1.524 . S
C622 H634 0.956 . S
C622 H635 0.961 . S
C622 H636 0.961 . S
C623 C620 1.539 . S
C623 H637 0.958 . S
C623 H638 0.961 . S
C623 H639 0.960 . S
H624 C608 0.931 . S
H625 C613 0.929 . S
H626 C614 0.960 . S
H627 C614 0.962 1_556 S
H628 C614 0.960 . S
H629 C615 0.961 . S
H630 C615 0.961 . S
H631 C615 0.961 1_554 S
H632 C616 0.948 . S
H633 C621 0.930 . S
H634 C622 0.956 . S
H635 C622 0.961 . S
H636 C622 0.961 . S
H637 C623 0.958 . S
H638 C623 0.961 . S
H639 C623 0.960 . S
C640 C641 1.391 . S
C640 C642 1.394 . S
C640 H656 0.931 . S
C641 C640 1.391 . S
C641 C645 1.376 . S
C642 C640 1.394 . S
C642 C643 1.369 . S
C642 C646 1.531 . S
C643 C642 1.369 . S
C643 C644 1.410 . S
C643 C651 1.503 . S
C644 C643 1.410 . S
C644 C645 1.392 . S
C644 C647 1.511 . S
C645 C641 1.376 . S
C645 C644 1.392 . S
C645 H657 0.929 . S
C646 C642 1.531 . S
C646 H658 0.960 . S
C646 H659 0.962 . S
C646 H660 0.960 . S
C647 C644 1.511 . S
C647 H661 0.961 . S
C647 H662 0.961 . S
C647 H663 0.961 . S
C648 C649 1.370 . S
C648 C650 1.363 . S
C648 H664 0.931 . S
C649 C648 1.370 . S
C649 C653 1.408 . S
C650 C648 1.363 . S
C650 C651 1.370 . S
C650 C654 1.524 . S
C651 C643 1.503 . S
C651 C650 1.370 . S
C651 C652 1.403 . S
C652 C651 1.403 . S
C652 C653 1.404 . S
C652 C655 1.539 . S
C653 C649 1.408 . S
C653 C652 1.404 . S
C653 H665 0.930 . S
C654 C650 1.524 . S
C654 H666 0.956 . S
C654 H667 0.961 . S
C654 H668 0.961 . S
C655 C652 1.539 . S
C655 H669 0.958 . S
C655 H670 0.961 . S
C655 H671 0.960 . S
H656 C640 0.931 . S
H657 C645 0.929 . S
H658 C646 0.960 . S
H659 C646 0.962 . S
H660 C646 0.960 . S
H661 C647 0.961 . S
H662 C647 0.961 . S
H663 C647 0.961 . S
H664 C648 0.931 . S
H665 C653 0.930 . S
H666 C654 0.956 . S
H667 C654 0.961 . S
H668 C654 0.961 . S
H669 C655 0.958 . S
H670 C655 0.961 . S
H671 C655 0.960 . S
C672 C673 1.391 . S
C672 C674 1.394 . S
C672 H688 0.931 . S
C673 C672 1.391 . S
C673 C677 1.376 . S
C674 C672 1.394 . S
C674 C675 1.369 . S
C674 C678 1.531 1_554 S
C675 C674 1.369 . S
C675 C676 1.410 . S
C675 C683 1.503 1_554 S
C676 C675 1.410 . S
C676 C677 1.392 . S
C676 C679 1.511 . S
C677 C673 1.376 . S
C677 C676 1.392 . S
C677 H689 0.929 . S
C678 C674 1.531 1_556 S
C678 H690 0.960 . S
C678 H691 0.962 . S
C678 H692 0.960 . S
C679 C676 1.511 . S
C679 H693 0.961 . S
C679 H694 0.961 . S
C679 H695 0.961 . S
C680 C681 1.370 . S
C680 C682 1.376 . S
C680 H696 0.931 . S
C681 C680 1.370 . S
C681 C685 1.408 . S
C682 C680 1.376 . S
C682 C683 1.381 . S
C682 C686 1.501 1_556 S
C683 C675 1.503 1_556 S
C683 C682 1.381 . S
C683 C684 1.403 . S
C684 C683 1.403 . S
C684 C685 1.404 . S
C684 C687 1.539 . S
C685 C681 1.408 . S
C685 C684 1.404 . S
C685 H697 0.930 . S
C686 C682 1.501 1_554 S
C686 H698 0.956 . S
C686 H699 0.961 . S
C686 H700 0.961 . S
C687 C684 1.539 . S
C687 H701 0.958 . S
C687 H702 0.961 . S
C687 H703 0.960 . S
H688 C672 0.931 . S
H689 C677 0.929 . S
H690 C678 0.960 . S
H691 C678 0.962 . S
H692 C678 0.960 . S
H693 C679 0.961 . S
H694 C679 0.961 . S
H695 C679 0.961 . S
H696 C680 0.931 . S
H697 C685 0.930 . S
H698 C686 0.956 . S
H699 C686 0.961 . S
H700 C686 0.961 . S
H701 C687 0.958 . S
H702 C687 0.961 . S
H703 C687 0.960 . S
C704 C705 1.391 . S
C704 C706 1.394 . S
C704 H720 0.931 . S
C705 C704 1.391 . S
C705 C709 1.376 . S
C706 C704 1.394 . S
C706 C707 1.369 . S
C706 C710 1.531 . S
C707 C706 1.369 . S
C707 C708 1.410 . S
C707 C715 1.503 . S
C708 C707 1.410 . S
C708 C709 1.392 . S
C708 C711 1.511 . S
C709 C705 1.376 . S
C709 C708 1.392 . S
C709 H721 0.929 . S
C710 C706 1.531 . S
C710 H722 0.960 . S
C710 H723 0.962 . S
C710 H724 0.960 . S
C711 C708 1.511 . S
C711 H725 0.961 . S
C711 H726 0.961 . S
C711 H727 0.961 . S
C712 C713 1.370 . S
C712 C714 1.363 . S
C712 H728 0.931 . S
C713 C712 1.370 . S
C713 C717 1.408 . S
C714 C712 1.363 . S
C714 C715 1.370 . S
C714 C718 1.524 . S
C715 C707 1.503 . S
C715 C714 1.370 . S
C715 C716 1.403 . S
C716 C715 1.403 . S
C716 C717 1.404 . S
C716 C719 1.539 . S
C717 C713 1.408 . S
C717 C716 1.404 . S
C717 H729 0.930 . S
C718 C714 1.524 . S
C718 H730 0.956 . S
C718 H731 0.961 . S
C718 H732 0.961 . S
C719 C716 1.539 . S
C719 H733 0.958 . S
C719 H734 0.961 . S
C719 H735 0.960 . S
H720 C704 0.931 . S
H721 C709 0.929 . S
H722 C710 0.960 . S
H723 C710 0.962 . S
H724 C710 0.960 . S
H725 C711 0.961 . S
H726 C711 0.961 . S
H727 C711 0.961 . S
H728 C712 0.931 . S
H729 C717 0.930 . S
H730 C718 0.956 . S
H731 C718 0.961 . S
H732 C718 0.961 . S
H733 C719 0.958 . S
H734 C719 0.961 . S
H735 C719 0.960 . S
C736 C737 1.391 . S
C736 C738 1.394 . S
C736 H752 0.931 . S
C737 C736 1.391 . S
C737 C741 1.376 . S
C738 C736 1.394 . S
C738 C739 1.369 . S
C738 C742 1.531 . S
C739 C738 1.369 . S
C739 C740 1.410 . S
C739 C747 1.503 . S
C740 C739 1.410 . S
C740 C741 1.392 . S
C740 C743 1.511 . S
C741 C737 1.376 . S
C741 C740 1.392 . S
C741 H753 0.929 . S
C742 C738 1.531 . S
C742 H754 0.960 . S
C742 H755 0.962 . S
C742 H756 0.960 . S
C743 C740 1.511 . S
C743 H757 0.961 . S
C743 H758 0.961 . S
C743 H759 0.961 . S
C744 C745 1.370 . S
C744 C746 1.363 . S
C744 H760 0.931 . S
C745 C744 1.370 . S
C745 C749 1.408 . S
C746 C744 1.363 . S
C746 C747 1.370 . S
C746 C750 1.524 . S
C747 C739 1.503 . S
C747 C746 1.370 . S
C747 C748 1.403 . S
C748 C747 1.403 . S
C748 C749 1.404 . S
C748 C751 1.539 . S
C749 C745 1.408 . S
C749 C748 1.404 . S
C749 H761 0.930 . S
C750 C746 1.524 . S
C750 H762 0.956 . S
C750 H763 0.961 . S
C750 H764 0.961 . S
C751 C748 1.539 . S
C751 H765 0.958 . S
C751 H766 0.961 . S
C751 H767 0.960 . S
H752 C736 0.931 . S
H753 C741 0.929 . S
H754 C742 0.960 . S
H755 C742 0.962 . S
H756 C742 0.960 . S
H757 C743 0.961 . S
H758 C743 0.961 . S
H759 C743 0.961 . S
H760 C744 0.931 . S
H761 C749 0.930 . S
H762 C750 0.956 . S
H763 C750 0.961 . S
H764 C750 0.961 . S
H765 C751 0.958 . S
H766 C751 0.961 . S
H767 C751 0.960 . S
C768 C769 1.391 . S
C768 C770 1.394 . S
C768 H784 0.931 . S
C769 C768 1.391 . S
C769 C773 1.376 . S
C770 C768 1.394 . S
C770 C771 1.369 . S
C770 C774 1.531 . S
C771 C770 1.369 . S
C771 C772 1.410 . S
C771 C779 1.503 1_655 S
C772 C771 1.410 . S
C772 C773 1.392 . S
C772 C775 1.511 . S
C773 C769 1.376 . S
C773 C772 1.392 . S
C773 H785 0.929 . S
C774 C770 1.531 . S
C774 H786 0.960 1_655 S
C774 H787 0.962 . S
C774 H788 0.960 . S
C775 C772 1.511 . S
C775 H789 0.961 . S
C775 H790 0.961 1_655 S
C775 H791 0.961 . S
C776 C777 1.370 . S
C776 C778 1.363 . S
C776 H792 0.931 . S
C777 C776 1.370 . S
C777 C781 1.408 . S
C778 C776 1.363 . S
C778 C779 1.370 . S
C778 C782 1.524 . S
C779 C771 1.503 1_455 S
C779 C778 1.370 . S
C779 C780 1.403 . S
C780 C779 1.403 . S
C780 C781 1.404 . S
C780 C783 1.539 . S
C781 C777 1.408 . S
C781 C780 1.404 . S
C781 H793 0.930 . S
C782 C778 1.524 . S
C782 H794 0.956 . S
C782 H795 0.961 1_455 S
C782 H796 0.961 . S
C783 C780 1.539 . S
C783 H797 0.958 . S
C783 H798 0.961 . S
C783 H799 0.978 . S
H784 C768 0.931 . S
H785 C773 0.929 . S
H786 C774 0.960 1_455 S
H787 C774 0.962 . S
H788 C774 0.960 . S
H789 C775 0.961 . S
H790 C775 0.961 1_455 S
H791 C775 0.961 . S
H792 C776 0.931 . S
H793 C781 0.930 . S
H794 C782 0.956 . S
H795 C782 0.961 1_655 S
H796 C782 0.961 . S
H797 C783 0.958 . S
H798 C783 0.961 . S
H799 C783 0.978 . S
C800 C801 1.391 . S
C800 C802 1.394 . S
C800 H816 0.931 . S
C801 C800 1.391 . S
C801 C805 1.376 . S
C802 C800 1.394 . S
C802 C803 1.369 . S
C802 C806 1.531 . S
C803 C802 1.369 . S
C803 C804 1.410 . S
C803 C811 1.503 . S
C804 C803 1.410 . S
C804 C805 1.392 . S
C804 C807 1.511 . S
C805 C801 1.376 . S
C805 C804 1.392 . S
C805 H817 0.929 . S
C806 C802 1.531 . S
C806 H818 0.960 . S
C806 H819 0.962 . S
C806 H820 0.960 . S
C807 C804 1.511 . S
C807 H821 0.961 . S
C807 H822 0.961 . S
C807 H823 0.961 . S
C808 C809 1.370 . S
C808 C810 1.363 . S
C808 H824 0.931 . S
C809 C808 1.370 . S
C809 C813 1.408 . S
C810 C808 1.363 . S
C810 C811 1.370 . S
C810 C814 1.524 . S
C811 C803 1.503 . S
C811 C810 1.370 . S
C811 C812 1.403 . S
C812 C811 1.403 . S
C812 C813 1.404 . S
C812 C815 1.539 . S
C813 C809 1.408 . S
C813 C812 1.404 . S
C813 H825 0.930 . S
C814 C810 1.524 . S
C814 H826 0.956 . S
C814 H827 0.961 . S
C814 H828 0.961 . S
C815 C812 1.539 . S
C815 H829 0.958 . S
C815 H830 0.961 . S
C815 H831 0.960 . S
H816 C800 0.931 . S
H817 C805 0.929 . S
H818 C806 0.960 . S
H819 C806 0.962 . S
H820 C806 0.960 . S
H821 C807 0.961 . S
H822 C807 0.961 . S
H823 C807 0.961 . S
H824 C808 0.931 . S
H825 C813 0.930 . S
H826 C814 0.956 . S
H827 C814 0.961 . S
H828 C814 0.961 . S
H829 C815 0.958 . S
H830 C815 0.961 . S
H831 C815 0.960 . S
C832 C833 1.391 . S
C832 C834 1.394 . S
C832 H848 0.931 . S
C833 C832 1.391 . S
C833 C837 1.376 . S
C834 C832 1.394 . S
C834 C835 1.369 . S
C834 C838 1.531 . S
C835 C834 1.369 . S
C835 C836 1.410 . S
C835 C843 1.503 1_455 S
C836 C835 1.410 . S
C836 C837 1.392 . S
C836 C839 1.511 . S
C837 C833 1.376 . S
C837 C836 1.392 . S
C837 H849 0.929 . S
C838 C834 1.531 . S
C838 H850 0.960 1_455 S
C838 H851 0.962 . S
C838 H852 0.960 . S
C839 C836 1.511 . S
C839 H853 0.961 . S
C839 H854 0.961 1_455 S
C839 H855 0.961 . S
C840 C841 1.370 . S
C840 C842 1.363 . S
C840 H856 0.931 . S
C841 C840 1.370 . S
C841 C845 1.408 . S
C842 C840 1.363 . S
C842 C843 1.370 . S
C842 C846 1.524 . S
C843 C835 1.503 1_655 S
C843 C842 1.370 . S
C843 C844 1.403 . S
C844 C843 1.403 . S
C844 C845 1.404 . S
C844 C847 1.539 . S
C845 C841 1.408 . S
C845 C844 1.404 . S
C845 H857 0.930 . S
C846 C842 1.524 . S
C846 H858 0.956 . S
C846 H859 0.961 1_655 S
C846 H860 0.961 . S
C847 C844 1.539 . S
C847 H861 0.958 . S
C847 H862 0.961 . S
C847 H863 0.959 1_655 S
H848 C832 0.931 . S
H849 C837 0.929 . S
H850 C838 0.960 1_655 S
H851 C838 0.962 . S
H852 C838 0.960 . S
H853 C839 0.961 . S
H854 C839 0.961 1_655 S
H855 C839 0.961 . S
H856 C840 0.931 . S
H857 C845 0.930 . S
H858 C846 0.956 . S
H859 C846 0.961 1_455 S
H860 C846 0.961 . S
H861 C847 0.958 . S
H862 C847 0.961 . S
H863 C847 0.959 1_455 S
C864 C865 1.391 . S
C864 C866 1.394 . S
C864 H880 0.931 . S
C865 C864 1.391 . S
C865 C869 1.376 . S
C866 C864 1.394 . S
C866 C867 1.369 . S
C866 C870 1.531 . S
C867 C866 1.369 . S
C867 C868 1.410 . S
C867 C875 1.503 1_455 S
C868 C867 1.410 . S
C868 C869 1.392 . S
C868 C871 1.511 . S
C869 C865 1.376 . S
C869 C868 1.392 . S
C869 H881 0.929 . S
C870 C866 1.531 . S
C870 H882 0.960 1_455 S
C870 H883 0.962 . S
C870 H884 0.960 . S
C871 C868 1.511 . S
C871 H885 0.961 . S
C871 H886 0.961 1_455 S
C871 H887 0.961 . S
C872 C873 1.370 . S
C872 C874 1.363 . S
C872 H888 0.931 . S
C873 C872 1.370 . S
C873 C877 1.408 . S
C874 C872 1.363 . S
C874 C875 1.370 . S
C874 C878 1.524 . S
C875 C867 1.503 1_655 S
C875 C874 1.370 . S
C875 C876 1.403 . S
C876 C875 1.403 . S
C876 C877 1.404 . S
C876 C879 1.539 . S
C877 C873 1.408 . S
C877 C876 1.404 . S
C877 H889 0.930 . S
C878 C874 1.524 . S
C878 H890 0.956 . S
C878 H891 0.961 1_655 S
C878 H892 0.961 . S
C879 C876 1.539 . S
C879 H893 0.958 . S
C879 H894 0.961 . S
C879 H895 0.950 1_655 S
H880 C864 0.931 . S
H881 C869 0.929 . S
H882 C870 0.960 1_655 S
H883 C870 0.962 . S
H884 C870 0.960 . S
H885 C871 0.961 . S
H886 C871 0.961 1_655 S
H887 C871 0.961 . S
H888 C872 0.931 . S
H889 C877 0.930 . S
H890 C878 0.956 . S
H891 C878 0.961 1_455 S
H892 C878 0.961 . S
H893 C879 0.958 . S
H894 C879 0.961 . S
H895 C879 0.950 1_455 S
C896 C897 1.391 . S
C896 C898 1.394 . S
C896 H912 0.931 . S
C897 C896 1.391 . S
C897 C901 1.376 . S
C898 C896 1.394 . S
C898 C899 1.369 . S
C898 C902 1.531 . S
C899 C898 1.369 . S
C899 C900 1.410 . S
C899 C907 1.503 . S
C900 C899 1.410 . S
C900 C901 1.392 . S
C900 C903 1.511 . S
C901 C897 1.376 . S
C901 C900 1.392 . S
C901 H913 0.929 . S
C902 C898 1.531 . S
C902 H914 0.960 . S
C902 H915 0.962 . S
C902 H916 0.960 . S
C903 C900 1.511 . S
C903 H917 0.961 . S
C903 H918 0.961 . S
C903 H919 0.961 . S
C904 C905 1.370 . S
C904 C906 1.363 . S
C904 H920 0.931 . S
C905 C904 1.370 . S
C905 C909 1.408 . S
C906 C904 1.363 . S
C906 C907 1.370 . S
C906 C910 1.524 . S
C907 C899 1.503 . S
C907 C906 1.370 . S
C907 C908 1.403 . S
C908 C907 1.403 . S
C908 C909 1.404 . S
C908 C911 1.539 . S
C909 C905 1.408 . S
C909 C908 1.404 . S
C909 H921 0.930 . S
C910 C906 1.524 . S
C910 H922 0.956 . S
C910 H923 0.961 . S
C910 H924 0.961 . S
C911 C908 1.539 . S
C911 H925 0.958 . S
C911 H926 0.961 . S
C911 H927 0.960 . S
H912 C896 0.931 . S
H913 C901 0.929 . S
H914 C902 0.960 . S
H915 C902 0.962 . S
H916 C902 0.960 . S
H917 C903 0.961 . S
H918 C903 0.961 . S
H919 C903 0.961 . S
H920 C904 0.931 . S
H921 C909 0.930 . S
H922 C910 0.956 . S
H923 C910 0.961 . S
H924 C910 0.961 . S
H925 C911 0.958 . S
H926 C911 0.961 . S
H927 C911 0.960 . S
C928 C929 1.391 . S
C928 C930 1.394 . S
C928 H944 0.931 . S
C929 C928 1.391 . S
C929 C933 1.376 . S
C930 C928 1.394 . S
C930 C931 1.369 . S
C930 C934 1.531 . S
C931 C930 1.369 . S
C931 C932 1.410 . S
C931 C939 1.503 1_455 S
C932 C931 1.410 . S
C932 C933 1.392 . S
C932 C935 1.511 . S
C933 C929 1.376 . S
C933 C932 1.392 . S
C933 H945 0.929 . S
C934 C930 1.531 . S
C934 H946 0.960 1_455 S
C934 H947 0.962 . S
C934 H948 0.960 . S
C935 C932 1.511 . S
C935 H949 0.961 . S
C935 H950 0.961 1_455 S
C935 H951 0.961 . S
C936 C937 1.370 . S
C936 C938 1.363 . S
C936 H952 0.931 . S
C937 C936 1.370 . S
C937 C941 1.408 . S
C938 C936 1.363 . S
C938 C939 1.370 . S
C938 C942 1.524 . S
C939 C931 1.503 1_655 S
C939 C938 1.370 . S
C939 C940 1.403 . S
C940 C939 1.403 . S
C940 C941 1.404 . S
C940 C943 1.539 . S
C941 C937 1.408 . S
C941 C940 1.404 . S
C941 H953 0.930 . S
C942 C938 1.524 . S
C942 H954 0.956 . S
C942 H955 0.945 1_655 S
C942 H956 0.961 . S
C943 C940 1.539 . S
C943 H957 0.958 . S
C943 H958 0.961 . S
C943 H959 0.939 1_655 S
H944 C928 0.931 . S
H945 C933 0.929 . S
H946 C934 0.960 1_655 S
H947 C934 0.962 . S
H948 C934 0.960 . S
H949 C935 0.961 . S
H950 C935 0.961 1_655 S
H951 C935 0.961 . S
H952 C936 0.931 . S
H953 C941 0.930 . S
H954 C942 0.956 . S
H955 C942 0.945 1_455 S
H956 C942 0.961 . S
H957 C943 0.958 . S
H958 C943 0.961 . S
H959 C943 0.939 1_455 S
C960 C961 1.391 . S
C960 C962 1.394 . S
C960 H976 0.931 . S
C961 C960 1.391 . S
C961 C965 1.376 . S
C962 C960 1.394 . S
C962 C963 1.369 . S
C962 C966 1.531 . S
C963 C962 1.369 . S
C963 C964 1.410 . S
C963 C971 1.503 . S
C964 C963 1.410 . S
C964 C965 1.392 . S
C964 C967 1.511 . S
C965 C961 1.376 . S
C965 C964 1.392 . S
C965 H977 0.929 . S
C966 C962 1.531 . S
C966 H978 0.960 . S
C966 H979 0.962 . S
C966 H980 0.960 . S
C967 C964 1.511 . S
C967 H981 0.961 . S
C967 H982 0.961 . S
C967 H983 0.961 . S
C968 C969 1.370 . S
C968 C970 1.363 . S
C968 H984 0.931 . S
C969 C968 1.370 . S
C969 C973 1.408 . S
C970 C968 1.363 . S
C970 C971 1.370 . S
C970 C974 1.524 . S
C971 C963 1.503 . S
C971 C970 1.370 . S
C971 C972 1.403 . S
C972 C971 1.403 . S
C972 C973 1.404 . S
C972 C975 1.539 . S
C973 C969 1.408 . S
C973 C972 1.404 . S
C973 H985 0.930 . S
C974 C970 1.524 . S
C974 H986 0.956 . S
C974 H987 0.961 . S
C974 H988 0.961 . S
C975 C972 1.539 . S
C975 H989 0.958 . S
C975 H990 0.961 . S
C975 H991 0.960 . S
H976 C960 0.931 . S
H977 C965 0.929 . S
H978 C966 0.960 . S
H979 C966 0.962 . S
H980 C966 0.960 . S
H981 C967 0.961 . S
H982 C967 0.961 . S
H983 C967 0.961 . S
H984 C968 0.931 . S
H985 C973 0.930 . S
H986 C974 0.956 . S
H987 C974 0.961 . S
H988 C974 0.961 . S
H989 C975 0.958 . S
H990 C975 0.961 . S
H991 C975 0.960 . S
C992 C993 1.391 . S
C992 C994 1.394 . S
C992 H1008 0.931 . S
C993 C992 1.391 . S
C993 C997 1.376 . S
C994 C992 1.394 . S
C994 C995 1.369 . S
C994 C998 1.531 . S
C995 C994 1.369 . S
C995 C996 1.410 . S
C995 C1003 1.503 . S
C996 C995 1.410 . S
C996 C997 1.392 . S
C996 C999 1.511 . S
C997 C993 1.376 . S
C997 C996 1.392 . S
C997 H1009 0.929 . S
C998 C994 1.531 . S
C998 H1010 0.960 . S
C998 H1011 0.962 . S
C998 H1012 0.960 . S
C999 C996 1.511 . S
C999 H1013 0.961 . S
C999 H1014 0.961 . S
C999 H1015 0.961 . S
C1000 C1001 1.370 . S
C1000 C1002 1.363 . S
C1000 H1016 0.931 . S
C1001 C1000 1.370 . S
C1001 C1005 1.408 . S
C1002 C1000 1.363 . S
C1002 C1003 1.370 . S
C1002 C1006 1.524 . S
C1003 C995 1.503 . S
C1003 C1002 1.370 . S
C1003 C1004 1.403 . S
C1004 C1003 1.403 . S
C1004 C1005 1.404 . S
C1004 C1007 1.539 . S
C1005 C1001 1.408 . S
C1005 C1004 1.404 . S
C1005 H1017 0.930 . S
C1006 C1002 1.524 . S
C1006 H1018 0.956 . S
C1006 H1019 0.961 . S
C1006 H1020 0.961 . S
C1007 C1004 1.539 . S
C1007 H1021 0.958 . S
C1007 H1022 0.961 . S
C1007 H1023 0.960 . S
H1008 C992 0.931 . S
H1009 C997 0.929 . S
H1010 C998 0.960 . S
H1011 C998 0.962 . S
H1012 C998 0.960 . S
H1013 C999 0.961 . S
H1014 C999 0.961 . S
H1015 C999 0.961 . S
H1016 C1000 0.931 . S
H1017 C1005 0.930 . S
H1018 C1006 0.956 . S
H1019 C1006 0.961 . S
H1020 C1006 0.961 . S
H1021 C1007 0.958 . S
H1022 C1007 0.961 . S
H1023 C1007 0.960 . S
C1024 C1025 1.391 . S
C1024 C1026 1.394 . S
C1024 H1040 0.931 . S
C1025 C1024 1.391 . S
C1025 C1029 1.376 . S
C1026 C1024 1.394 . S
C1026 C1027 1.369 . S
C1026 C1030 1.531 . S
C1027 C1026 1.369 . S
C1027 C1028 1.410 . S
C1027 C1035 1.503 . S
C1028 C1027 1.410 . S
C1028 C1029 1.392 . S
C1028 C1031 1.511 . S
C1029 C1025 1.376 . S
C1029 C1028 1.392 . S
C1029 H1041 0.929 . S
C1030 C1026 1.531 . S
C1030 H1042 0.960 . S
C1030 H1043 0.962 . S
C1030 H1044 0.960 . S
C1031 C1028 1.511 . S
C1031 H1045 0.961 . S
C1031 H1046 0.961 . S
C1031 H1047 0.961 . S
C1032 C1033 1.370 . S
C1032 C1034 1.363 . S
C1032 H1048 0.931 . S
C1033 C1032 1.370 . S
C1033 C1037 1.408 . S
C1034 C1032 1.363 . S
C1034 C1035 1.370 . S
C1034 C1038 1.524 . S
C1035 C1027 1.503 . S
C1035 C1034 1.370 . S
C1035 C1036 1.403 . S
C1036 C1035 1.403 . S
C1036 C1037 1.404 . S
C1036 C1039 1.539 . S
C1037 C1033 1.408 . S
C1037 C1036 1.404 . S
C1037 H1049 0.930 . S
C1038 C1034 1.524 . S
C1038 H1050 0.956 . S
C1038 H1051 0.961 . S
C1038 H1052 0.961 . S
C1039 C1036 1.539 . S
C1039 H1053 0.958 . S
C1039 H1054 0.961 . S
C1039 H1055 0.960 . S
H1040 C1024 0.931 . S
H1041 C1029 0.929 . S
H1042 C1030 0.960 . S
H1043 C1030 0.962 . S
H1044 C1030 0.960 . S
H1045 C1031 0.961 . S
H1046 C1031 0.961 . S
H1047 C1031 0.961 . S
H1048 C1032 0.931 . S
H1049 C1037 0.930 . S
H1050 C1038 0.956 . S
H1051 C1038 0.961 . S
H1052 C1038 0.961 . S
H1053 C1039 0.958 . S
H1054 C1039 0.961 . S
H1055 C1039 0.960 . S
C1056 C1057 1.391 . S
C1056 C1058 1.394 . S
C1056 H1072 0.931 . S
C1057 C1056 1.391 . S
C1057 C1061 1.376 . S
C1058 C1056 1.394 . S
C1058 C1059 1.369 . S
C1058 C1062 1.531 . S
C1059 C1058 1.369 . S
C1059 C1060 1.410 . S
C1059 C1067 1.503 . S
C1060 C1059 1.410 . S
C1060 C1061 1.392 . S
C1060 C1063 1.511 . S
C1061 C1057 1.376 . S
C1061 C1060 1.392 . S
C1061 H1073 0.929 . S
C1062 C1058 1.531 . S
C1062 H1074 0.960 . S
C1062 H1075 0.962 . S
C1062 H1076 0.960 . S
C1063 C1060 1.511 . S
C1063 H1077 0.961 . S
C1063 H1078 0.961 . S
C1063 H1079 0.961 . S
C1064 C1065 1.370 . S
C1064 C1066 1.363 . S
C1064 H1080 0.931 . S
C1065 C1064 1.370 . S
C1065 C1069 1.408 . S
C1066 C1064 1.363 . S
C1066 C1067 1.370 . S
C1066 C1070 1.524 . S
C1067 C1059 1.503 . S
C1067 C1066 1.370 . S
C1067 C1068 1.403 . S
C1068 C1067 1.403 . S
C1068 C1069 1.404 . S
C1068 C1071 1.539 . S
C1069 C1065 1.408 . S
C1069 C1068 1.404 . S
C1069 H1081 0.930 . S
C1070 C1066 1.524 . S
C1070 H1082 0.956 . S
C1070 H1083 0.961 . S
C1070 H1084 0.961 . S
C1071 C1068 1.539 . S
C1071 H1085 0.958 . S
C1071 H1086 0.961 . S
C1071 H1087 0.960 . S
H1072 C1056 0.931 . S
H1073 C1061 0.929 . S
H1074 C1062 0.960 . S
H1075 C1062 0.962 . S
H1076 C1062 0.960 . S
H1077 C1063 0.961 . S
H1078 C1063 0.961 . S
H1079 C1063 0.961 . S
H1080 C1064 0.931 . S
H1081 C1069 0.930 . S
H1082 C1070 0.956 . S
H1083 C1070 0.961 . S
H1084 C1070 0.961 . S
H1085 C1071 0.958 . S
H1086 C1071 0.961 . S
H1087 C1071 0.960 . S
C1088 C1089 1.391 . S
C1088 C1090 1.394 . S
C1088 H1104 0.931 . S
C1089 C1088 1.391 . S
C1089 C1093 1.376 . S
C1090 C1088 1.394 . S
C1090 C1091 1.369 . S
C1090 C1094 1.531 . S
C1091 C1090 1.369 . S
C1091 C1092 1.410 . S
C1091 C1099 1.503 . S
C1092 C1091 1.410 . S
C1092 C1093 1.392 . S
C1092 C1095 1.511 . S
C1093 C1089 1.376 . S
C1093 C1092 1.392 . S
C1093 H1105 0.929 . S
C1094 C1090 1.531 . S
C1094 H1106 0.960 . S
C1094 H1107 0.962 . S
C1094 H1108 0.960 . S
C1095 C1092 1.511 . S
C1095 H1109 0.961 . S
C1095 H1110 0.961 . S
C1095 H1111 0.961 . S
C1096 C1097 1.370 . S
C1096 C1098 1.363 . S
C1096 H1112 0.931 . S
C1097 C1096 1.370 . S
C1097 C1101 1.408 . S
C1098 C1096 1.363 . S
C1098 C1099 1.370 . S
C1098 C1102 1.524 . S
C1099 C1091 1.503 . S
C1099 C1098 1.370 . S
C1099 C1100 1.403 . S
C1100 C1099 1.403 . S
C1100 C1101 1.404 . S
C1100 C1103 1.539 . S
C1101 C1097 1.408 . S
C1101 C1100 1.404 . S
C1101 H1113 0.930 . S
C1102 C1098 1.524 . S
C1102 H1114 0.956 . S
C1102 H1115 0.961 . S
C1102 H1116 0.961 . S
C1103 C1100 1.539 . S
C1103 H1117 0.958 . S
C1103 H1118 0.961 . S
C1103 H1119 0.960 . S
H1104 C1088 0.931 . S
H1105 C1093 0.929 . S
H1106 C1094 0.960 . S
H1107 C1094 0.962 . S
H1108 C1094 0.960 . S
H1109 C1095 0.961 . S
H1110 C1095 0.961 . S
H1111 C1095 0.961 . S
H1112 C1096 0.931 . S
H1113 C1101 0.930 . S
H1114 C1102 0.956 . S
H1115 C1102 0.961 . S
H1116 C1102 0.961 . S
H1117 C1103 0.958 . S
H1118 C1103 0.961 . S
H1119 C1103 0.960 . S
C1120 C1121 1.391 . S
C1120 C1122 1.394 . S
C1120 H1136 0.931 . S
C1121 C1120 1.391 . S
C1121 C1125 1.376 . S
C1122 C1120 1.394 . S
C1122 C1123 1.369 . S
C1122 C1126 1.531 . S
C1123 C1122 1.369 . S
C1123 C1124 1.410 . S
C1123 C1131 1.503 . S
C1124 C1123 1.410 . S
C1124 C1125 1.392 . S
C1124 C1127 1.511 . S
C1125 C1121 1.376 . S
C1125 C1124 1.392 . S
C1125 H1137 0.929 . S
C1126 C1122 1.531 . S
C1126 H1138 0.960 . S
C1126 H1139 0.962 . S
C1126 H1140 0.960 . S
C1127 C1124 1.511 . S
C1127 H1141 0.961 . S
C1127 H1142 0.961 . S
C1127 H1143 0.961 . S
C1128 C1129 1.370 . S
C1128 C1130 1.363 . S
C1128 H1144 0.931 . S
C1129 C1128 1.370 . S
C1129 C1133 1.408 . S
C1130 C1128 1.363 . S
C1130 C1131 1.370 . S
C1130 C1134 1.524 . S
C1131 C1123 1.503 . S
C1131 C1130 1.370 . S
C1131 C1132 1.403 . S
C1132 C1131 1.403 . S
C1132 C1133 1.404 . S
C1132 C1135 1.539 . S
C1133 C1129 1.408 . S
C1133 C1132 1.404 . S
C1133 H1145 0.930 . S
C1134 C1130 1.524 . S
C1134 H1146 0.956 . S
C1134 H1147 0.961 . S
C1134 H1148 0.961 . S
C1135 C1132 1.539 . S
C1135 H1149 0.958 . S
C1135 H1150 0.961 . S
C1135 H1151 0.960 . S
H1136 C1120 0.931 . S
H1137 C1125 0.929 . S
H1138 C1126 0.960 . S
H1139 C1126 0.962 . S
H1140 C1126 0.960 . S
H1141 C1127 0.961 . S
H1142 C1127 0.961 . S
H1143 C1127 0.961 . S
H1144 C1128 0.931 . S
H1145 C1133 0.930 . S
H1146 C1134 0.956 . S
H1147 C1134 0.961 . S
H1148 C1134 0.961 . S
H1149 C1135 0.958 . S
H1150 C1135 0.961 . S
H1151 C1135 0.960 . S
C1152 C1153 1.391 . S
C1152 C1154 1.394 . S
C1152 H1168 0.931 . S
C1153 C1152 1.391 . S
C1153 C1157 1.376 . S
C1154 C1152 1.394 . S
C1154 C1155 1.369 . S
C1154 C1158 1.531 . S
C1155 C1154 1.369 . S
C1155 C1156 1.410 . S
C1155 C1163 1.503 . S
C1156 C1155 1.410 . S
C1156 C1157 1.392 . S
C1156 C1159 1.511 . S
C1157 C1153 1.376 . S
C1157 C1156 1.392 . S
C1157 H1169 0.929 . S
C1158 C1154 1.531 . S
C1158 H1170 0.960 . S
C1158 H1171 0.962 . S
C1158 H1172 0.960 . S
C1159 C1156 1.511 . S
C1159 H1173 0.961 . S
C1159 H1174 0.961 . S
C1159 H1175 0.961 . S
C1160 C1161 1.370 . S
C1160 C1162 1.363 . S
C1160 H1176 0.931 . S
C1161 C1160 1.370 . S
C1161 C1165 1.408 . S
C1162 C1160 1.363 . S
C1162 C1163 1.370 . S
C1162 C1166 1.524 . S
C1163 C1155 1.503 . S
C1163 C1162 1.370 . S
C1163 C1164 1.403 . S
C1164 C1163 1.403 . S
C1164 C1165 1.404 . S
C1164 C1167 1.539 . S
C1165 C1161 1.408 . S
C1165 C1164 1.404 . S
C1165 H1177 0.930 . S
C1166 C1162 1.524 . S
C1166 H1178 0.956 . S
C1166 H1179 0.961 . S
C1166 H1180 0.961 . S
C1167 C1164 1.539 . S
C1167 H1181 0.958 . S
C1167 H1182 0.961 . S
C1167 H1183 0.960 . S
H1168 C1152 0.931 . S
H1169 C1157 0.929 . S
H1170 C1158 0.960 . S
H1171 C1158 0.962 . S
H1172 C1158 0.960 . S
H1173 C1159 0.961 . S
H1174 C1159 0.961 . S
H1175 C1159 0.961 . S
H1176 C1160 0.931 . S
H1177 C1165 0.930 . S
H1178 C1166 0.956 . S
H1179 C1166 0.961 . S
H1180 C1166 0.961 . S
H1181 C1167 0.958 . S
H1182 C1167 0.961 . S
H1183 C1167 0.960 . S
C1184 C1185 1.391 . S
C1184 C1186 1.394 . S
C1184 H1200 0.931 . S
C1185 C1184 1.391 . S
C1185 C1189 1.376 . S
C1186 C1184 1.394 . S
C1186 C1187 1.369 . S
C1186 C1190 1.531 . S
C1187 C1186 1.369 . S
C1187 C1188 1.410 . S
C1187 C1195 1.503 . S
C1188 C1187 1.410 . S
C1188 C1189 1.392 . S
C1188 C1191 1.511 . S
C1189 C1185 1.376 . S
C1189 C1188 1.392 . S
C1189 H1201 0.929 . S
C1190 C1186 1.531 . S
C1190 H1202 0.960 . S
C1190 H1203 0.962 . S
C1190 H1204 0.960 . S
C1191 C1188 1.511 . S
C1191 H1205 0.961 . S
C1191 H1206 0.961 . S
C1191 H1207 0.961 . S
C1192 C1193 1.370 . S
C1192 C1194 1.363 . S
C1192 H1208 0.931 . S
C1193 C1192 1.370 . S
C1193 C1197 1.408 . S
C1194 C1192 1.363 . S
C1194 C1195 1.370 . S
C1194 C1198 1.524 . S
C1195 C1187 1.503 . S
C1195 C1194 1.370 . S
C1195 C1196 1.403 . S
C1196 C1195 1.403 . S
C1196 C1197 1.404 . S
C1196 C1199 1.539 . S
C1197 C1193 1.408 . S
C1197 C1196 1.404 . S
C1197 H1209 0.930 . S
C1198 C1194 1.524 . S
C1198 H1210 0.956 . S
C1198 H1211 0.961 . S
C1198 H1212 0.961 . S
C1199 C1196 1.539 . S
C1199 H1213 0.958 . S
C1199 H1214 0.961 . S
C1199 H1215 0.960 . S
H1200 C1184 0.931 . S
H1201 C1189 0.929 . S
H1202 C1190 0.960 . S
H1203 C1190 0.962 . S
H1204 C1190 0.960 . S
H1205 C1191 0.961 . S
H1206 C1191 0.961 . S
H1207 C1191 0.961 . S
H1208 C1192 0.931 . S
H1209 C1197 0.930 . S
H1210 C1198 0.956 . S
H1211 C1198 0.961 . S
H1212 C1198 0.961 . S
H1213 C1199 0.958 . S
H1214 C1199 0.961 . S
H1215 C1199 0.960 . S
C1216 C1217 1.391 . S
C1216 C1218 1.394 . S
C1216 H1232 0.931 . S
C1217 C1216 1.391 . S
C1217 C1221 1.376 . S
C1218 C1216 1.394 . S
C1218 C1219 1.369 . S
C1218 C1222 1.531 . S
C1219 C1218 1.369 . S
C1219 C1220 1.410 . S
C1219 C1227 1.503 . S
C1220 C1219 1.410 . S
C1220 C1221 1.392 . S
C1220 C1223 1.511 . S
C1221 C1217 1.376 . S
C1221 C1220 1.392 . S
C1221 H1233 0.929 . S
C1222 C1218 1.531 . S
C1222 H1234 0.960 . S
C1222 H1235 0.962 . S
C1222 H1236 0.960 . S
C1223 C1220 1.511 . S
C1223 H1237 0.961 . S
C1223 H1238 0.961 . S
C1223 H1239 0.961 . S
C1224 C1225 1.370 . S
C1224 C1226 1.363 . S
C1224 H1240 0.931 . S
C1225 C1224 1.370 . S
C1225 C1229 1.408 . S
C1226 C1224 1.363 . S
C1226 C1227 1.370 . S
C1226 C1230 1.524 . S
C1227 C1219 1.503 . S
C1227 C1226 1.370 . S
C1227 C1228 1.403 . S
C1228 C1227 1.403 . S
C1228 C1229 1.404 . S
C1228 C1231 1.539 . S
C1229 C1225 1.408 . S
C1229 C1228 1.404 . S
C1229 H1241 0.930 . S
C1230 C1226 1.524 . S
C1230 H1242 0.956 . S
C1230 H1243 0.961 . S
C1230 H1244 0.961 . S
C1231 C1228 1.539 . S
C1231 H1245 0.958 . S
C1231 H1246 0.961 . S
C1231 H1247 0.960 . S
H1232 C1216 0.931 . S
H1233 C1221 0.929 . S
H1234 C1222 0.960 . S
H1235 C1222 0.962 . S
H1236 C1222 0.960 . S
H1237 C1223 0.961 . S
H1238 C1223 0.961 . S
H1239 C1223 0.961 . S
H1240 C1224 0.931 . S
H1241 C1229 0.930 . S
H1242 C1230 0.956 . S
H1243 C1230 0.961 . S
H1244 C1230 0.961 . S
H1245 C1231 0.958 . S
H1246 C1231 0.961 . S
H1247 C1231 0.960 . S
C225 C13 1.337 . S
C233 C179 1.440 . S
C257 C193 1.438 . S
C265 C27 1.332 . S
C289 C41 1.324 . S
C297 C207 1.435 . S
C321 C221 1.443 . S
C329 C55 1.333 . S
C353 C125 1.372 . S
C361 C67 1.431 . S
C385 C81 1.441 . S
C393 C139 1.331 . S
C417 C153 1.363 . S
C425 C95 1.432 . S
C449 C109 1.422 . S
C457 C167 1.356 . S
C481 C8 1.382 . S
C489 C36 1.361 . S
C513 C22 1.388 . S
C521 C50 1.357 . S
C545 C64 1.489 . S
C553 C92 1.516 . S
C577 C78 1.501 . S
C585 C106 1.514 . S
C609 C148 1.338 . S
C617 C120 1.376 . S
C641 C134 1.341 . S
C649 C162 1.374 . S
C673 C204 1.522 . S
C681 C176 1.504 . S
C705 C190 1.517 . S
C713 C218 1.507 . S
C737 C91 1.489 . S
C745 C7 1.497 . S
C769 C105 1.499 . S
C777 C21 1.489 . S
C801 C35 1.476 . S
C809 C63 1.501 . S
C833 C49 1.496 . S
C841 C77 1.495 . S
C865 C203 1.487 . S
C873 C119 1.494 . S
C897 C133 1.505 . S
C905 C217 1.489 . S
C929 C175 1.476 . S
C937 C147 1.500 . S
C961 C161 1.505 . S
C969 C189 1.490 . S
C993 C11 1.318 . S
C1001 C53 1.327 . S
C1025 C39 1.328 . S
C1033 C25 1.320 . S
C1057 C69 1.420 . S
C1065 C111 1.434 . S
C1089 C83 1.450 . S
C1097 C97 1.461 . S
C1121 C165 1.311 . S
C1129 C123 1.329 . S
C1153 C137 1.320 . S
C1161 C151 1.323 . S
C1185 C223 1.432 . S
C1193 C181 1.463 . S
C1217 C195 1.453 . S
C1225 C209 1.461 . S
