# Generated by pormake.
# Topology ukm, (4)-cn, num edge types: 1
# Building blocks:
#     Node 0, Type 0, BuildingBlock: CEKHIL_clean_sbu_0, # of connection points: 4
#     Node 1, Type 0, BuildingBlock: CEKHIL_clean_sbu_0, # of connection points: 4
#     Node 2, Type 0, BuildingBlock: CEKHIL_clean_sbu_0, # of connection points: 4
#     Node 3, Type 0, BuildingBlock: CEKHIL_clean_sbu_0, # of connection points: 4
#     Node 4, Type 0, BuildingBlock: CEKHIL_clean_sbu_0, # of connection points: 4
#     Node 5, Type 0, BuildingBlock: CEKHIL_clean_sbu_0, # of connection points: 4
#     Node 6, Type 0, BuildingBlock: CEKHIL_clean_sbu_0, # of connection points: 4
#     Node 7, Type 0, BuildingBlock: CEKHIL_clean_sbu_0, # of connection points: 4
#     Node 8, Type 0, BuildingBlock: CEKHIL_clean_sbu_0, # of connection points: 4
#     Node 9, Type 0, BuildingBlock: CEKHIL_clean_sbu_0, # of connection points: 4
#     Node 10, Type 0, BuildingBlock: CEKHIL_clean_sbu_0, # of connection points: 4
#     Node 11, Type 0, BuildingBlock: CEKHIL_clean_sbu_0, # of connection points: 4
#     Node 12, Type 0, BuildingBlock: CEKHIL_clean_sbu_0, # of connection points: 4
#     Node 13, Type 0, BuildingBlock: CEKHIL_clean_sbu_0, # of connection points: 4
#     Node 14, Type 0, BuildingBlock: CEKHIL_clean_sbu_0, # of connection points: 4
#     Node 15, Type 0, BuildingBlock: CEKHIL_clean_sbu_0, # of connection points: 4
#     Node 16, Type 0, BuildingBlock: CEKHIL_clean_sbu_0, # of connection points: 4
#     Node 17, Type 0, BuildingBlock: CEKHIL_clean_sbu_0, # of connection points: 4
#     Node 18, Type 0, BuildingBlock: CEKHIL_clean_sbu_0, # of connection points: 4
#     Node 19, Type 0, BuildingBlock: CEKHIL_clean_sbu_0, # of connection points: 4
#     Node 20, Type 0, BuildingBlock: CEKHIL_clean_sbu_0, # of connection points: 4
#     Node 21, Type 0, BuildingBlock: CEKHIL_clean_sbu_0, # of connection points: 4
#     Node 22, Type 0, BuildingBlock: CEKHIL_clean_sbu_0, # of connection points: 4
#     Node 23, Type 0, BuildingBlock: CEKHIL_clean_sbu_0, # of connection points: 4
#     Node 24, Type 0, BuildingBlock: CEKHIL_clean_sbu_0, # of connection points: 4
#     Node 25, Type 0, BuildingBlock: CEKHIL_clean_sbu_0, # of connection points: 4
#     Node 26, Type 0, BuildingBlock: CEKHIL_clean_sbu_0, # of connection points: 4
#     Node 27, Type 0, BuildingBlock: CEKHIL_clean_sbu_0, # of connection points: 4
#     Node 28, Type 0, BuildingBlock: CEKHIL_clean_sbu_0, # of connection points: 4
#     Node 29, Type 0, BuildingBlock: CEKHIL_clean_sbu_0, # of connection points: 4
#     Node 30, Type 0, BuildingBlock: CEKHIL_clean_sbu_0, # of connection points: 4
#     Node 31, Type 0, BuildingBlock: CEKHIL_clean_sbu_0, # of connection points: 4
#     Edge 32, Type (0, 0), BuildingBlock: CIFDUS_clean_linker_0, # of connection points: 2
#     Edge 33, Type (0, 0), BuildingBlock: CIFDUS_clean_linker_0, # of connection points: 2
#     Edge 34, Type (0, 0), BuildingBlock: CIFDUS_clean_linker_0, # of connection points: 2
#     Edge 35, Type (0, 0), BuildingBlock: CIFDUS_clean_linker_0, # of connection points: 2
#     Edge 36, Type (0, 0), BuildingBlock: CIFDUS_clean_linker_0, # of connection points: 2
#     Edge 37, Type (0, 0), BuildingBlock: CIFDUS_clean_linker_0, # of connection points: 2
#     Edge 38, Type (0, 0), BuildingBlock: CIFDUS_clean_linker_0, # of connection points: 2
#     Edge 39, Type (0, 0), BuildingBlock: CIFDUS_clean_linker_0, # of connection points: 2
#     Edge 40, Type (0, 0), BuildingBlock: CIFDUS_clean_linker_0, # of connection points: 2
#     Edge 41, Type (0, 0), BuildingBlock: CIFDUS_clean_linker_0, # of connection points: 2
#     Edge 42, Type (0, 0), BuildingBlock: CIFDUS_clean_linker_0, # of connection points: 2
#     Edge 43, Type (0, 0), BuildingBlock: CIFDUS_clean_linker_0, # of connection points: 2
#     Edge 44, Type (0, 0), BuildingBlock: CIFDUS_clean_linker_0, # of connection points: 2
#     Edge 45, Type (0, 0), BuildingBlock: CIFDUS_clean_linker_0, # of connection points: 2
#     Edge 46, Type (0, 0), BuildingBlock: CIFDUS_clean_linker_0, # of connection points: 2
#     Edge 47, Type (0, 0), BuildingBlock: CIFDUS_clean_linker_0, # of connection points: 2
#     Edge 48, Type (0, 0), BuildingBlock: CIFDUS_clean_linker_0, # of connection points: 2
#     Edge 49, Type (0, 0), BuildingBlock: CIFDUS_clean_linker_0, # of connection points: 2
#     Edge 50, Type (0, 0), BuildingBlock: CIFDUS_clean_linker_0, # of connection points: 2
#     Edge 51, Type (0, 0), BuildingBlock: CIFDUS_clean_linker_0, # of connection points: 2
#     Edge 52, Type (0, 0), BuildingBlock: CIFDUS_clean_linker_0, # of connection points: 2
#     Edge 53, Type (0, 0), BuildingBlock: CIFDUS_clean_linker_0, # of connection points: 2
#     Edge 54, Type (0, 0), BuildingBlock: CIFDUS_clean_linker_0, # of connection points: 2
#     Edge 55, Type (0, 0), BuildingBlock: CIFDUS_clean_linker_0, # of connection points: 2
#     Edge 56, Type (0, 0), BuildingBlock: CIFDUS_clean_linker_0, # of connection points: 2
#     Edge 57, Type (0, 0), BuildingBlock: CIFDUS_clean_linker_0, # of connection points: 2
#     Edge 58, Type (0, 0), BuildingBlock: CIFDUS_clean_linker_0, # of connection points: 2
#     Edge 59, Type (0, 0), BuildingBlock: CIFDUS_clean_linker_0, # of connection points: 2
#     Edge 60, Type (0, 0), BuildingBlock: CIFDUS_clean_linker_0, # of connection points: 2
#     Edge 61, Type (0, 0), BuildingBlock: CIFDUS_clean_linker_0, # of connection points: 2
#     Edge 62, Type (0, 0), BuildingBlock: CIFDUS_clean_linker_0, # of connection points: 2
#     Edge 63, Type (0, 0), BuildingBlock: CIFDUS_clean_linker_0, # of connection points: 2
#     Edge 64, Type (0, 0), BuildingBlock: CIFDUS_clean_linker_0, # of connection points: 2
#     Edge 65, Type (0, 0), BuildingBlock: CIFDUS_clean_linker_0, # of connection points: 2
#     Edge 66, Type (0, 0), BuildingBlock: CIFDUS_clean_linker_0, # of connection points: 2
#     Edge 67, Type (0, 0), BuildingBlock: CIFDUS_clean_linker_0, # of connection points: 2
#     Edge 68, Type (0, 0), BuildingBlock: CIFDUS_clean_linker_0, # of connection points: 2
#     Edge 69, Type (0, 0), BuildingBlock: CIFDUS_clean_linker_0, # of connection points: 2
#     Edge 70, Type (0, 0), BuildingBlock: CIFDUS_clean_linker_0, # of connection points: 2
#     Edge 71, Type (0, 0), BuildingBlock: CIFDUS_clean_linker_0, # of connection points: 2
#     Edge 72, Type (0, 0), BuildingBlock: CIFDUS_clean_linker_0, # of connection points: 2
#     Edge 73, Type (0, 0), BuildingBlock: CIFDUS_clean_linker_0, # of connection points: 2
#     Edge 74, Type (0, 0), BuildingBlock: CIFDUS_clean_linker_0, # of connection points: 2
#     Edge 75, Type (0, 0), BuildingBlock: CIFDUS_clean_linker_0, # of connection points: 2
#     Edge 76, Type (0, 0), BuildingBlock: CIFDUS_clean_linker_0, # of connection points: 2
#     Edge 77, Type (0, 0), BuildingBlock: CIFDUS_clean_linker_0, # of connection points: 2
#     Edge 78, Type (0, 0), BuildingBlock: CIFDUS_clean_linker_0, # of connection points: 2
#     Edge 79, Type (0, 0), BuildingBlock: CIFDUS_clean_linker_0, # of connection points: 2
#     Edge 80, Type (0, 0), BuildingBlock: CIFDUS_clean_linker_0, # of connection points: 2
#     Edge 81, Type (0, 0), BuildingBlock: CIFDUS_clean_linker_0, # of connection points: 2
#     Edge 82, Type (0, 0), BuildingBlock: CIFDUS_clean_linker_0, # of connection points: 2
#     Edge 83, Type (0, 0), BuildingBlock: CIFDUS_clean_linker_0, # of connection points: 2
#     Edge 84, Type (0, 0), BuildingBlock: CIFDUS_clean_linker_0, # of connection points: 2
#     Edge 85, Type (0, 0), BuildingBlock: CIFDUS_clean_linker_0, # of connection points: 2
#     Edge 86, Type (0, 0), BuildingBlock: CIFDUS_clean_linker_0, # of connection points: 2
#     Edge 87, Type (0, 0), BuildingBlock: CIFDUS_clean_linker_0, # of connection points: 2
#     Edge 88, Type (0, 0), BuildingBlock: CIFDUS_clean_linker_0, # of connection points: 2
#     Edge 89, Type (0, 0), BuildingBlock: CIFDUS_clean_linker_0, # of connection points: 2
#     Edge 90, Type (0, 0), BuildingBlock: CIFDUS_clean_linker_0, # of connection points: 2
#     Edge 91, Type (0, 0), BuildingBlock: CIFDUS_clean_linker_0, # of connection points: 2
#     Edge 92, Type (0, 0), BuildingBlock: CIFDUS_clean_linker_0, # of connection points: 2
#     Edge 93, Type (0, 0), BuildingBlock: CIFDUS_clean_linker_0, # of connection points: 2
#     Edge 94, Type (0, 0), BuildingBlock: CIFDUS_clean_linker_0, # of connection points: 2
#     Edge 95, Type (0, 0), BuildingBlock: CIFDUS_clean_linker_0, # of connection points: 2
# Relax obj value: 0.249
# Max RMSD: 0.189
# Mean RMSD: 0.187
data_MOF--net-ukm--node1-CEKHIL_clean_sbu_0--edge1-CIFDUS_clean_linker_0
_symmetry_space_group_name_H-M    P1
_symmetry_Int_Tables_number       1
_symmetry_cell_setting            triclinic
loop_
_symmetry_equiv_pos_as_xyz
'x, y, z'
_cell_length_a     20.475573
_cell_length_b     90.279878
_cell_length_c     37.599594
_cell_angle_alpha  90.057209
_cell_angle_beta   89.974485
_cell_angle_gamma 89.952231
loop_
_atom_site_label
_atom_site_type_symbol
_atom_site_fract_x
_atom_site_fract_y
_atom_site_fract_z
_atom_type_partial_charge
Co0 Co 0.12095 0.31399 0.28077 0.0
O1 O 0.13149 0.29665 0.25192 0.0
O2 O 0.04054 0.30254 0.28049 0.0
C3 C 0.21681 0.31115 0.30911 0.0
O4 O 0.09354 0.33103 0.31336 0.0
Co5 Co 0.22326 0.33963 0.27303 0.0
O6 O 0.16996 0.34905 0.31034 0.0
C7 C 0.12605 0.33379 0.21696 0.0
C8 C 0.07167 0.29336 0.25976 0.0
C9 C 0.11646 0.34381 0.32214 0.0
O10 O 0.09292 0.3254 0.23781 0.0
O11 O 0.18199 0.33917 0.22495 0.0
O12 O 0.16522 0.30418 0.32037 0.0
O13 O 0.20931 0.31875 0.28052 0.0
Co14 Co 0.13071 0.93918 0.28414 0.0
O15 O 0.12094 0.9563 0.25456 0.0
O16 O 0.21555 0.94795 0.275 0.0
C17 C 0.04819 0.9454 0.32021 0.0
O18 O 0.15889 0.92195 0.31561 0.0
Co19 Co 0.01496 0.91671 0.29056 0.0
O20 O 0.07166 0.90737 0.32659 0.0
C21 C 0.09226 0.91887 0.2247 0.0
C22 C 0.18373 0.95778 0.2565 0.0
C23 C 0.13144 0.91082 0.33083 0.0
O24 O 0.13651 0.92644 0.24081 0.0
O25 O 0.03774 0.91526 0.23891 0.0
O26 O 0.10611 0.95078 0.32611 0.0
O27 O 0.04211 0.93715 0.29254 0.0
Co28 Co 0.12375 0.94486 0.96343 0.0
O29 O 0.13907 0.96295 0.98887 0.0
O30 O 0.04109 0.95356 0.978 0.0
C31 C 0.19409 0.94956 0.91923 0.0
O32 O 0.09053 0.92633 0.9379 0.0
Co33 Co 0.24273 0.92298 0.95371 0.0
O34 O 0.17696 0.91132 0.92723 0.0
C35 C 0.18108 0.92698 0.02323 0.0
C36 C 0.07627 0.96403 -0.00783 0.0
C37 C 0.11629 0.91439 0.92535 0.0
O38 O 0.13156 0.93347 0.00897 0.0
O39 O 0.23353 0.92372 0.00651 0.0
O40 O 0.1357 0.9552 0.91765 0.0
O41 O 0.20848 0.94267 0.94798 0.0
Co42 Co 0.12267 0.30369 0.95462 0.0
O43 O 0.11123 0.28707 0.98545 0.0
O44 O 0.20719 0.29499 0.96602 0.0
C45 C 0.04198 0.29727 0.91746 0.0
O46 O 0.15112 0.32072 0.92253 0.0
Co47 Co 0.0043 0.32569 0.94718 0.0
O48 O 0.06287 0.33516 0.91207 0.0
C49 C 0.08461 0.32543 0.01183 0.0
C50 C 0.17409 0.28564 0.98534 0.0
C51 C 0.12294 0.33189 0.90776 0.0
O52 O 0.12751 0.31711 -0.00316 0.0
O53 O 0.0292 0.32865 -0.00186 0.0
O54 O 0.09988 0.29166 0.91282 0.0
O55 O 0.03464 0.30553 0.94496 0.0
Co56 Co 0.89026 0.68822 0.70497 0.0
O57 O 0.94118 0.68196 0.74528 0.0
O58 O 0.84226 0.6921 0.74743 0.0
C59 C 0.90505 0.66779 0.67178 0.0
O60 O 0.82062 0.69545 0.67171 0.0
Co61 Co 0.94414 0.69349 0.62981 0.0
O62 O 0.8508 0.69197 0.61515 0.0
C63 C 0.96569 0.71603 0.68573 0.0
C64 C 0.89142 0.68633 0.76418 0.0
C65 C 0.80751 0.69471 0.63855 0.0
O66 O 0.92987 0.70852 0.70712 0.0
O67 O 0.98095 0.71152 0.65446 0.0
O68 O 0.86143 0.66808 0.69681 0.0
O69 O 0.94207 0.67938 0.66907 0.0
Co70 Co 0.87596 0.06284 0.69718 0.0
O71 O 0.83715 0.06827 0.74176 0.0
O72 O 0.93183 0.05654 0.73523 0.0
C73 C 0.86081 0.08462 0.66982 0.0
O74 O 0.93384 0.05598 0.65719 0.0
Co75 Co 0.80422 0.06133 0.62557 0.0
O76 O 0.89382 0.06491 0.60647 0.0
C77 C 0.78564 0.03735 0.67799 0.0
C78 C 0.8888 0.06243 0.75629 0.0
C79 C 0.94192 0.06081 0.62552 0.0
O80 O 0.82921 0.04332 0.69793 0.0
O81 O 0.76595 0.04318 0.64883 0.0
O82 O 0.90963 0.08269 0.69137 0.0
O83 O 0.81957 0.07376 0.66739 0.0
Co84 Co 0.88298 0.07182 0.02606 0.0
O85 O 0.93735 0.07169 0.98371 0.0
O86 O 0.82913 0.07013 0.98535 0.0
C87 C 0.92865 0.09098 0.05497 0.0
O88 O 0.80796 0.07246 0.06024 0.0
Co89 Co 0.92624 0.06534 0.1028 0.0
O90 O 0.83465 0.06966 0.1175 0.0
C91 C 0.92281 0.04115 0.05037 0.0
C92 C 0.882 0.07073 0.96662 0.0
C93 C 0.79289 0.07211 0.09316 0.0
O94 O 0.89005 0.04958 0.02935 0.0
O95 O 0.94727 0.0458 0.07966 0.0
O96 O 0.88861 0.09325 0.02872 0.0
O97 O 0.9452 0.07732 0.06063 0.0
Co98 Co 0.83306 0.67916 0.03044 0.0
O99 O 0.77241 0.67898 0.99084 0.0
O100 O 0.88008 0.68176 0.9876 0.0
C101 C 0.7953 0.65934 0.05987 0.0
O102 O 0.91295 0.67922 0.06132 0.0
Co103 Co 0.799 0.68449 0.10915 0.0
O104 O 0.8932 0.68123 0.11962 0.0
C105 C 0.79141 0.70917 0.0582 0.0
C106 C 0.8246 0.68074 0.97136 0.0
C107 C 0.9323 0.6796 0.09359 0.0
O108 O 0.82201 0.70123 0.03521 0.0
O109 O 0.7722 0.70405 0.08819 0.0
O110 O 0.83233 0.65769 0.03206 0.0
O111 O 0.77702 0.67276 0.06707 0.0
Co112 Co 0.11792 0.81322 0.79309 0.0
O113 O 0.12728 0.79352 0.77542 0.0
O114 O 0.03257 0.80374 0.78999 0.0
C115 C 0.20191 0.81135 0.83107 0.0
O116 O 0.09234 0.83365 0.81219 0.0
Co117 Co 0.23657 0.8345 0.78004 0.0
O118 O 0.17833 0.84897 0.80357 0.0
C119 C 0.15385 0.82466 0.72112 0.0
C120 C 0.06444 0.7924 0.7772 0.0
C121 C 0.12001 0.84647 0.81383 0.0
O122 O 0.10975 0.82048 0.74318 0.0
O123 O 0.21098 0.82886 0.73048 0.0
O124 O 0.14428 0.80684 0.84085 0.0
O125 O 0.20662 0.81587 0.79883 0.0
Co126 Co 0.13778 0.43846 0.79336 0.0
O127 O 0.13174 0.45672 0.76794 0.0
O128 O 0.22433 0.44709 0.78787 0.0
C129 C 0.05297 0.44346 0.82912 0.0
O130 O 0.16062 0.41962 0.82068 0.0
Co131 Co 0.0173 0.41705 0.78882 0.0
O132 O 0.07304 0.40437 0.81901 0.0
C133 C 0.1015 0.42229 0.72711 0.0
C134 C 0.19458 0.45765 0.77063 0.0
C135 C 0.13157 0.40735 0.82807 0.0
O136 O 0.14625 0.42769 0.7472 0.0
O137 O 0.04386 0.41917 0.73787 0.0
O138 O 0.1108 0.44828 0.83758 0.0
O139 O 0.04855 0.43672 0.79916 0.0
Co140 Co 0.11087 0.44761 0.45101 0.0
O141 O 0.11954 0.46653 0.47343 0.0
O142 O 0.02636 0.45746 0.45294 0.0
C143 C 0.19906 0.45021 0.41611 0.0
O144 O 0.08529 0.42834 0.42605 0.0
Co145 Co 0.22568 0.4248 0.46072 0.0
O146 O 0.16839 0.412 0.43184 0.0
C147 C 0.13542 0.43145 0.5196 0.0
C148 C 0.0573 0.46818 0.46895 0.0
C149 C 0.11129 0.41548 0.42125 0.0
O150 O 0.09601 0.4383 0.49868 0.0
O151 O 0.19193 0.42684 0.51016 0.0
O152 O 0.14335 0.45564 0.40578 0.0
O153 O 0.19993 0.4445 0.44733 0.0
Co154 Co 0.15254 0.80396 0.44162 0.0
O155 O 0.14416 0.78492 0.46302 0.0
O156 O 0.23745 0.79425 0.44319 0.0
C157 C 0.06395 0.80147 0.40703 0.0
O158 O 0.17738 0.82351 0.41789 0.0
Co159 Co 0.03675 0.82639 0.45339 0.0
O160 O 0.09311 0.83949 0.4248 0.0
C161 C 0.12515 0.81823 0.51181 0.0
C162 C 0.2066 0.78348 0.45901 0.0
C163 C 0.15034 0.8363 0.41384 0.0
O164 O 0.16688 0.81275 0.48991 0.0
O165 O 0.06798 0.82253 0.50273 0.0
O166 O 0.1197 0.79628 0.39597 0.0
O167 O 0.06367 0.80696 0.43847 0.0
Co168 Co 0.92766 0.18599 0.19697 0.0
O169 O 0.98266 0.18243 0.23809 0.0
O170 O 0.87867 0.18942 0.23892 0.0
C171 C 0.95372 0.16553 0.16581 0.0
O172 O 0.85259 0.19008 0.16429 0.0
Co173 Co 0.97172 0.19121 0.11974 0.0
O174 O 0.87792 0.18894 0.10651 0.0
C175 C 0.98698 0.21509 0.17309 0.0
C176 C 0.9304 0.18565 0.25643 0.0
C177 C 0.83642 0.19009 0.13153 0.0
O178 O 0.95469 0.20735 0.19569 0.0
O179 O 0.00321 0.21021 0.14229 0.0
O180 O 0.91262 0.16486 0.19208 0.0
O181 O 0.98202 0.17821 0.16088 0.0
Co182 Co 0.8372 0.56389 0.19535 0.0
O183 O 0.78448 0.56622 0.23737 0.0
O184 O 0.89094 0.56143 0.23643 0.0
C185 C 0.80032 0.58383 0.16596 0.0
O186 O 0.9094 0.56155 0.15934 0.0
Co187 Co 0.78171 0.55773 0.12048 0.0
O188 O 0.872 0.56147 0.10339 0.0
C189 C 0.78153 0.53402 0.17451 0.0
C190 C 0.8386 0.56406 0.25482 0.0
C191 C 0.91881 0.56174 0.12565 0.0
O192 O 0.81779 0.54206 0.19461 0.0
O193 O 0.75756 0.53872 0.14513 0.0
O194 O 0.8439 0.58521 0.19081 0.0
O195 O 0.77582 0.57071 0.16179 0.0
Co196 Co 0.90648 0.57566 0.5201 0.0
O197 O 0.96372 0.5769 0.4791 0.0
O198 O 0.85817 0.57127 0.47847 0.0
C199 C 0.93549 0.59674 0.54759 0.0
O200 O 0.82948 0.57398 0.55268 0.0
Co201 Co 0.94765 0.57223 0.59796 0.0
O202 O 0.85341 0.57428 0.6106 0.0
C203 C 0.96178 0.54693 0.5491 0.0
C204 C 0.91168 0.57341 0.4609 0.0
C205 C 0.81217 0.57421 0.58528 0.0
O206 O 0.92858 0.55407 0.52577 0.0
O207 O 0.97969 0.5527 0.57865 0.0
O208 O 0.8955 0.59695 0.52076 0.0
O209 O 0.9619 0.58404 0.55493 0.0
Co210 Co 0.83955 0.17599 0.52021 0.0
O211 O 0.78828 0.17543 0.47717 0.0
O212 O 0.89328 0.18145 0.48109 0.0
C213 C 0.80936 0.15423 0.54355 0.0
O214 O 0.91109 0.17697 0.5565 0.0
Co215 Co 0.78399 0.17736 0.59626 0.0
O216 O 0.87533 0.17375 0.61233 0.0
C217 C 0.77775 0.20386 0.55074 0.0
C218 C 0.84233 0.1793 0.46135 0.0
C219 C 0.92118 0.17487 0.58964 0.0
O220 O 0.81472 0.19732 0.528 0.0
O221 O 0.75551 0.19738 0.5785 0.0
O222 O 0.85253 0.1548 0.51825 0.0
O223 O 0.78009 0.16658 0.55117 0.0
Co224 Co 0.61821 0.30835 0.78701 0.0
O225 O 0.61907 0.29081 0.7584 0.0
O226 O 0.52969 0.30095 0.78106 0.0
C227 C 0.7019 0.30132 0.82147 0.0
O228 O 0.60035 0.32649 0.81806 0.0
Co229 Co 0.74255 0.32853 0.78614 0.0
O230 O 0.6932 0.33991 0.82218 0.0
C231 C 0.65457 0.32733 0.72453 0.0
C232 C 0.55625 0.29047 0.76205 0.0
C233 C 0.63352 0.33756 0.82992 0.0
O234 O 0.61087 0.32067 0.74308 0.0
O235 O 0.71257 0.32992 0.73556 0.0
O236 O 0.64304 0.29695 0.82908 0.0
O237 O 0.70825 0.30881 0.79261 0.0
Co238 Co 0.61758 0.94091 0.78508 0.0
O239 O 0.60746 0.95914 0.75958 0.0
O240 O 0.69924 0.95169 0.78521 0.0
C241 C 0.52469 0.94285 0.81589 0.0
O242 O 0.64522 0.92283 0.81403 0.0
Co243 Co 0.51316 0.91579 0.77393 0.0
O244 O 0.57103 0.90459 0.80606 0.0
C245 C 0.60417 0.92419 0.71716 0.0
C246 C 0.66847 0.96164 0.76656 0.0
C247 C 0.62407 0.90956 0.81912 0.0
O248 O 0.64156 0.93072 0.73964 0.0
O249 O 0.54757 0.91916 0.72495 0.0
O250 O 0.5765 0.94971 0.82719 0.0
O251 O 0.52957 0.93625 0.78576 0.0
Co252 Co 0.61564 0.95015 0.44334 0.0
O253 O 0.62344 0.96865 0.46764 0.0
O254 O 0.53009 0.9594 0.44787 0.0
C255 C 0.70117 0.95407 0.40748 0.0
O256 O 0.59126 0.93115 0.41685 0.0
Co257 Co 0.73394 0.92808 0.44929 0.0
O258 O 0.67805 0.91563 0.4186 0.0
C259 C 0.64638 0.93316 0.50994 0.0
C260 C 0.56081 0.96999 0.4645 0.0
C261 C 0.61968 0.91876 0.40953 0.0
O262 O 0.60483 0.93985 0.49002 0.0
O263 O 0.70336 0.92922 0.49964 0.0
O264 O 0.64417 0.95923 0.39854 0.0
O265 O 0.70471 0.94778 0.43801 0.0
Co266 Co 0.62687 0.30304 0.45436 0.0
O267 O 0.62117 0.28521 0.48169 0.0
O268 O 0.71159 0.29331 0.4559 0.0
C269 C 0.53555 0.29867 0.4234 0.0
O270 O 0.64979 0.32097 0.4237 0.0
Co271 Co 0.51378 0.32635 0.4604 0.0
O272 O 0.56419 0.33679 0.42342 0.0
C273 C 0.61006 0.32283 0.51819 0.0
C274 C 0.68265 0.28326 0.47516 0.0
C275 C 0.62133 0.33298 0.41362 0.0
O276 O 0.64647 0.31452 0.4987 0.0
O277 O 0.55336 0.32736 0.50886 0.0
O278 O 0.59042 0.29295 0.4127 0.0
O279 O 0.53707 0.30592 0.45279 0.0
Co280 Co 0.40222 0.68655 0.20166 0.0
O281 O 0.45975 0.68287 0.24145 0.0
O282 O 0.35491 0.68915 0.24451 0.0
C283 C 0.43 0.66662 0.16913 0.0
O284 O 0.32518 0.69051 0.17021 0.0
Co285 Co 0.44248 0.69295 0.12448 0.0
O286 O 0.34856 0.69015 0.11216 0.0
C287 C 0.45929 0.71605 0.17961 0.0
C288 C 0.40817 0.68552 0.26083 0.0
C289 C 0.30773 0.69074 0.13763 0.0
O290 O 0.42684 0.70807 0.20163 0.0
O291 O 0.47524 0.71155 0.14844 0.0
O292 O 0.38963 0.6654 0.19561 0.0
O293 O 0.4562 0.67955 0.16457 0.0
Co294 Co 0.32167 0.0645 0.19852 0.0
O295 O 0.26423 0.0669 0.23913 0.0
O296 O 0.36906 0.06059 0.2407 0.0
C297 C 0.29388 0.08536 0.16962 0.0
O298 O 0.3988 0.06159 0.16649 0.0
Co299 Co 0.28181 0.06059 0.1202 0.0
O300 O 0.37581 0.06388 0.10865 0.0
C301 C 0.2676 0.03557 0.17026 0.0
C302 C 0.31607 0.06376 0.25785 0.0
C303 C 0.41641 0.06243 0.13401 0.0
O304 O 0.29781 0.04305 0.1942 0.0
O305 O 0.25173 0.04095 0.13993 0.0
O306 O 0.33393 0.0858 0.19639 0.0
O307 O 0.26778 0.0726 0.16278 0.0
Co308 Co 0.4006 0.07571 0.52184 0.0
O309 O 0.45094 0.07705 0.47865 0.0
O310 O 0.34685 0.07025 0.48265 0.0
C311 C 0.42969 0.09749 0.54575 0.0
O312 O 0.33077 0.07343 0.55894 0.0
Co313 Co 0.45969 0.07372 0.59695 0.0
O314 O 0.36825 0.07426 0.61478 0.0
C315 C 0.46728 0.04791 0.54923 0.0
C316 C 0.39744 0.07281 0.46287 0.0
C317 C 0.32147 0.07338 0.59259 0.0
O318 O 0.42821 0.0545 0.52777 0.0
O319 O 0.4906 0.05418 0.57703 0.0
O320 O 0.38539 0.09688 0.5211 0.0
O321 O 0.45973 0.08519 0.55291 0.0
Co322 Co 0.34422 0.67724 0.52666 0.0
O323 O 0.28658 0.6763 0.486 0.0
O324 O 0.39394 0.67993 0.48471 0.0
C325 C 0.30755 0.65735 0.55612 0.0
O326 O 0.42133 0.67821 0.55931 0.0
Co327 Co 0.30277 0.683 0.60414 0.0
O328 O 0.39666 0.68097 0.61691 0.0
C329 C 0.29675 0.70722 0.55194 0.0
C330 C 0.33966 0.67843 0.46748 0.0
C331 C 0.43792 0.67928 0.59192 0.0
O332 O 0.3297 0.69924 0.53007 0.0
O333 O 0.27574 0.70227 0.58173 0.0
O334 O 0.34684 0.65583 0.52921 0.0
O335 O 0.28642 0.67065 0.56229 0.0
Co336 Co 0.61706 0.81093 0.2966 0.0
O337 O 0.62462 0.79228 0.27279 0.0
O338 O 0.53186 0.8014 0.29383 0.0
C339 C 0.70539 0.8074 0.3308 0.0
O340 O 0.59275 0.83002 0.32281 0.0
Co341 Co 0.73252 0.83343 0.28744 0.0
O342 O 0.67674 0.84614 0.31753 0.0
C343 C 0.64524 0.82622 0.22807 0.0
C344 C 0.5622 0.79085 0.27681 0.0
C345 C 0.61971 0.84272 0.32832 0.0
O346 O 0.60309 0.82073 0.24962 0.0
O347 O 0.70262 0.83023 0.23744 0.0
O348 O 0.6492 0.80218 0.34101 0.0
O349 O 0.7063 0.81364 0.30015 0.0
Co350 Co 0.63703 0.43948 0.295 0.0
O351 O 0.62964 0.45832 0.27251 0.0
O352 O 0.72292 0.44871 0.29151 0.0
C353 C 0.55082 0.44286 0.33089 0.0
O354 O 0.66034 0.42 0.31958 0.0
Co355 Co 0.51886 0.41783 0.28448 0.0
O356 O 0.57474 0.40442 0.3127 0.0
C357 C 0.60672 0.42481 0.22543 0.0
C358 C 0.69234 0.45947 0.27541 0.0
C359 C 0.63219 0.40735 0.32372 0.0
O360 O 0.64883 0.43011 0.24726 0.0
O361 O 0.5489 0.42099 0.23448 0.0
O362 O 0.60783 0.44782 0.34045 0.0
O363 O 0.5477 0.43714 0.29966 0.0
Co364 Co 0.61509 0.44523 0.94837 0.0
O365 O 0.61751 0.46398 0.97193 0.0
O366 O 0.52721 0.4534 0.95146 0.0
C367 C 0.70168 0.44974 0.91359 0.0
O368 O 0.59661 0.4257 0.92255 0.0
Co369 Co 0.73767 0.42463 0.95785 0.0
O370 O 0.68618 0.41114 0.92746 0.0
C371 C 0.6462 0.42967 0.01681 0.0
C372 C 0.55478 0.46438 0.96826 0.0
C373 C 0.62797 0.41352 0.91688 0.0
O374 O 0.60398 0.4353 -0.0045 0.0
O375 O 0.70459 0.42634 0.00765 0.0
O376 O 0.64419 0.45423 0.90352 0.0
O377 O 0.7047 0.44381 0.94454 0.0
Co378 Co 0.64109 0.806 0.95056 0.0
O379 O 0.63438 0.78732 0.97407 0.0
O380 O 0.72651 0.79659 0.95254 0.0
C381 C 0.55256 0.80276 0.91642 0.0
O382 O 0.66455 0.82506 0.92433 0.0
Co383 Co 0.52491 0.8285 0.96 0.0
O384 O 0.58013 0.8411 0.92949 0.0
C385 C 0.61394 0.82172 0.01902 0.0
C386 C 0.69675 0.78596 0.96945 0.0
C387 C 0.63718 0.83769 0.91864 0.0
O388 O 0.65556 0.8158 -0.00229 0.0
O389 O 0.55658 0.82576 0.00966 0.0
O390 O 0.60838 0.79739 0.90599 0.0
O391 O 0.55196 0.80876 0.94733 0.0
Co392 Co 0.38705 0.18649 0.70665 0.0
O393 O 0.44739 0.1848 0.74574 0.0
O394 O 0.34284 0.19126 0.74965 0.0
C395 C 0.41312 0.16499 0.68006 0.0
O396 O 0.30822 0.18881 0.67544 0.0
Co397 Co 0.42523 0.18896 0.62788 0.0
O398 O 0.33144 0.18473 0.61812 0.0
C399 C 0.44257 0.21472 0.6754 0.0
C400 C 0.39752 0.18836 0.76553 0.0
C401 C 0.29069 0.18677 0.64321 0.0
O402 O 0.41136 0.20779 0.69986 0.0
O403 O 0.45785 0.20876 0.64557 0.0
O404 O 0.37401 0.16523 0.70725 0.0
O405 O 0.43932 0.17753 0.67124 0.0
Co406 Co 0.33811 0.56266 0.69755 0.0
O407 O 0.27479 0.56565 0.73515 0.0
O408 O 0.38046 0.56079 0.74208 0.0
C409 C 0.3093 0.58219 0.66421 0.0
O410 O 0.42002 0.55984 0.66887 0.0
Co411 Co 0.30804 0.5558 0.61915 0.0
O412 O 0.40177 0.56042 0.6103 0.0
C413 C 0.29155 0.53246 0.67351 0.0
C414 C 0.32462 0.56398 0.75634 0.0
C415 C 0.44045 0.56033 0.63679 0.0
O416 O 0.31922 0.54085 0.69662 0.0
O417 O 0.27782 0.53677 0.64191 0.0
O418 O 0.34605 0.58391 0.69203 0.0
O419 O 0.28687 0.56896 0.6587 0.0
Co420 Co 0.3816 0.57436 0.02153 0.0
O421 O 0.43376 0.57854 0.98022 0.0
O422 O 0.3275 0.5735 0.98033 0.0
C423 C 0.41756 0.59284 0.05606 0.0
O424 O 0.31022 0.57009 0.05692 0.0
Co425 Co 0.43885 0.56426 0.09295 0.0
O426 O 0.3486 0.5661 0.11181 0.0
C427 C 0.43355 0.54306 0.03359 0.0
C428 C 0.37994 0.57653 0.9624 0.0
C429 C 0.30138 0.56773 0.09017 0.0
O430 O 0.40116 0.55271 0.01589 0.0
O431 O 0.45703 0.5457 0.06452 0.0
O432 O 0.37378 0.59524 0.03177 0.0
O433 O 0.44345 0.5797 0.05658 0.0
Co434 Co 0.35937 0.17968 0.03278 0.0
O435 O 0.29741 0.18026 -0.00598 0.0
O436 O 0.40559 0.18096 0.98928 0.0
C437 C 0.31625 0.16102 0.06411 0.0
O438 O 0.43959 0.1787 0.06324 0.0
Co439 Co 0.32703 0.1874 0.11044 0.0
O440 O 0.42052 0.18313 0.12092 0.0
C441 C 0.32814 0.21092 0.05678 0.0
C442 C 0.3491 0.18116 0.97383 0.0
C443 C 0.45886 0.17986 0.09541 0.0
O444 O 0.35702 0.20189 0.03561 0.0
O445 O 0.30569 0.20692 0.08707 0.0
O446 O 0.35131 0.15838 0.03599 0.0
O447 O 0.30211 0.1748 0.07026 0.0
H448 H 0.08966 0.38779 0.44366 0.0
H449 H 0.05716 0.41714 0.35518 0.0
H450 H 0.03698 0.39584 0.31624 0.0
H451 H 0.05868 0.36939 0.30527 0.0
H452 H 0.09932 0.34029 0.39317 0.0
H453 H 0.08424 0.36084 0.43496 0.0
C454 C 0.07552 0.38947 0.41614 0.0
C455 C 0.07578 0.40387 0.40192 0.0
C456 C 0.06633 0.37719 0.39391 0.0
C457 C 0.05715 0.4061 0.36649 0.0
C458 C 0.04638 0.39393 0.34422 0.0
C459 C 0.06096 0.36747 0.33374 0.0
C460 C 0.08027 0.3535 0.34641 0.0
C461 C 0.05509 0.37946 0.35723 0.0
C462 C 0.08392 0.35098 0.3831 0.0
C463 C 0.07625 0.36277 0.40685 0.0
H464 H 0.18796 0.88617 0.30637 0.0
H465 H 0.15604 0.91173 0.40151 0.0
H466 H 0.17894 0.88993 0.43809 0.0
H467 H 0.17711 0.86284 0.44131 0.0
H468 H 0.19691 0.83682 0.34591 0.0
H469 H 0.21185 0.85946 0.31085 0.0
C470 C 0.18934 0.88704 0.33515 0.0
C471 C 0.17065 0.90039 0.35151 0.0
C472 C 0.19907 0.87428 0.35574 0.0
C473 C 0.17108 0.90154 0.38864 0.0
C474 C 0.18333 0.88904 0.40944 0.0
C475 C 0.18763 0.86217 0.41305 0.0
C476 C 0.18529 0.84835 0.39592 0.0
C477 C 0.19288 0.8752 0.39313 0.0
C478 C 0.1988 0.84741 0.35946 0.0
C479 C 0.20642 0.86035 0.33945 0.0
H480 H 0.08364 0.91116 0.8566 0.0
H481 H 0.06485 0.89101 0.95968 0.0
H482 H 0.04734 0.86678 0.93221 0.0
H483 H 0.06893 0.85093 0.87979 0.0
H484 H 0.09508 0.87131 0.77729 0.0
H485 H 0.07619 0.89575 0.80301 0.0
C486 C 0.0719 0.90158 0.87282 0.0
C487 C 0.07529 0.90275 0.90991 0.0
C488 C 0.06483 0.88762 0.8568 0.0
C489 C 0.06159 0.8903 0.93096 0.0
C490 C 0.05266 0.8764 0.91525 0.0
C491 C 0.06724 0.86068 0.86299 0.0
C492 C 0.08396 0.85946 0.82692 0.0
C493 C 0.05878 0.8748 0.87829 0.0
C494 C 0.08254 0.87211 0.80524 0.0
C495 C 0.07229 0.88609 0.81997 0.0
H496 H 0.16392 0.38123 0.80009 0.0
H497 H 0.17253 0.40659 0.89696 0.0
H498 H 0.19013 0.38384 0.93123 0.0
H499 H 0.173 0.35685 0.93408 0.0
H500 H 0.15197 0.33176 0.83738 0.0
H501 H 0.17153 0.35412 0.80216 0.0
C502 C 0.17263 0.38175 0.82854 0.0
C503 C 0.16679 0.3954 0.84623 0.0
C504 C 0.1796 0.36861 0.84796 0.0
C505 C 0.17742 0.39615 0.88298 0.0
C506 C 0.18664 0.38313 0.90252 0.0
C507 C 0.17608 0.35623 0.90529 0.0
C508 C 0.1615 0.3428 0.8881 0.0
C509 C 0.1836 0.36927 0.88546 0.0
C510 C 0.164 0.34199 0.85093 0.0
C511 C 0.17421 0.35481 0.8309 0.0
H512 H 0.84786 0.6186 0.55776 0.0
H513 H 0.0387 0.60377 0.59051 0.0
H514 H 0.04906 0.62533 0.62993 0.0
H515 H 0.00147 0.64812 0.65647 0.0
H516 H 0.80528 0.66078 0.62856 0.0
H517 H 0.79929 0.64054 0.58542 0.0
C518 C 0.89194 0.62016 0.57332 0.0
C519 C 0.94275 0.60975 0.57105 0.0
C520 C 0.89648 0.63224 0.59664 0.0
C521 C -0.00096 0.6117 0.59185 0.0
C522 C 0.00496 0.62401 0.61431 0.0
C523 C 0.95792 0.64646 0.64055 0.0
C524 C 0.9043 0.65601 0.64484 0.0
C525 C 0.95379 0.63433 0.61707 0.0
C526 C 0.84732 0.65365 0.62501 0.0
C527 C 0.84382 0.64205 0.60057 0.0
H528 H 0.75639 0.10101 0.64877 0.0
H529 H 0.96447 0.09613 0.63541 0.0
H530 H 0.96592 0.11677 0.59349 0.0
H531 H 0.90873 0.13641 0.56155 0.0
H532 H 0.70308 0.14347 0.57913 0.0
H533 H 0.69951 0.12183 0.6187 0.0
C534 C 0.80178 0.10452 0.63652 0.0
C535 C 0.86018 0.09712 0.64485 0.0
C536 C 0.80257 0.11675 0.61337 0.0
C537 C 0.91906 0.10177 0.62938 0.0
C538 C 0.91989 0.11352 0.60539 0.0
C539 C 0.86302 0.13312 0.57383 0.0
C540 C 0.80598 0.14127 0.56713 0.0
C541 C 0.86205 0.1211 0.59731 0.0
C542 C 0.74741 0.13722 0.58386 0.0
C543 C 0.74545 0.12488 0.6064 0.0
H544 H 0.95346 0.13633 0.18129 0.0
H545 H 0.96907 0.16698 0.09389 0.0
H546 H 0.96501 0.14644 0.05149 0.0
H547 H 0.94829 0.11984 0.0394 0.0
H548 H 0.94368 0.08901 0.12683 0.0
H549 H 0.9531 0.10946 0.16919 0.0
C550 C 0.95671 0.13845 0.15295 0.0
C551 C 0.96036 0.15311 0.1406 0.0
C552 C 0.95619 0.12656 0.12883 0.0
C553 C 0.96578 0.15578 0.10395 0.0
C554 C 0.9633 0.14404 0.07972 0.0
C555 C 0.95024 0.11763 0.06773 0.0
C556 C 0.94436 0.10301 0.08008 0.0
C557 C 0.95717 0.12941 0.09185 0.0
C558 C 0.94792 0.10019 0.11674 0.0
C559 C 0.953 0.11189 0.14096 0.0
H560 H 0.79315 0.61268 0.18339 0.0
H561 H 0.77542 0.58266 0.09473 0.0
H562 H 0.76911 0.60364 0.05363 0.0
H563 H 0.77905 0.63051 0.04284 0.0
H564 H 0.78736 0.66048 0.13207 0.0
H565 H 0.78612 0.63956 0.17323 0.0
C566 C 0.787 0.61078 0.15509 0.0
C567 C 0.78591 0.59623 0.14188 0.0
C568 C 0.78203 0.62286 0.13185 0.0
C569 C 0.77677 0.5938 0.10537 0.0
C570 C 0.77341 0.60578 0.0819 0.0
C571 C 0.77968 0.63242 0.07133 0.0
C572 C 0.78433 0.64694 0.08451 0.0
C573 C 0.77762 0.62035 0.0948 0.0
C574 C 0.78403 0.64938 0.12138 0.0
C575 C 0.7836 0.63742 0.14489 0.0
H576 H 0.60804 0.38639 0.94281 0.0
H577 H 0.58213 0.41291 0.84877 0.0
H578 H 0.56599 0.39042 0.81312 0.0
H579 H 0.58488 0.36347 0.80747 0.0
H580 H 0.61797 0.33726 0.90135 0.0
H581 H 0.60415 0.35927 0.93877 0.0
C582 C 0.59632 0.3872 0.91473 0.0
C583 C 0.59651 0.40115 0.89818 0.0
C584 C 0.58923 0.37425 0.8945 0.0
C585 C 0.58167 0.40224 0.86191 0.0
C586 C 0.57323 0.38938 0.84155 0.0
C587 C 0.58604 0.36255 0.83624 0.0
C588 C 0.60187 0.34888 0.85192 0.0
C589 C 0.58048 0.37535 0.8573 0.0
C590 C 0.60483 0.34769 0.88901 0.0
C591 C 0.59774 0.36029 0.91027 0.0
H592 H 0.66552 0.86528 0.9397 0.0
H593 H 0.67928 0.83557 0.85033 0.0
H594 H 0.69336 0.85666 0.8101 0.0
H595 H 0.67218 0.88316 0.79998 0.0
H596 H 0.65245 0.91277 0.88921 0.0
H597 H 0.67211 0.8922 0.9303 0.0
C598 C 0.67452 0.86347 0.91158 0.0
C599 C 0.67077 0.84905 0.89766 0.0
C600 C 0.68039 0.87564 0.88873 0.0
C601 C 0.68234 0.84663 0.8614 0.0
C602 C 0.68953 0.85869 0.83844 0.0
C603 C 0.67515 0.88515 0.82841 0.0
C604 C 0.66039 0.89929 0.84186 0.0
C605 C 0.68434 0.87321 0.85164 0.0
C606 C 0.66404 0.90193 0.87852 0.0
C607 C 0.67445 0.89015 0.90192 0.0
H608 H 0.58103 0.86874 0.30174 0.0
H609 H 0.58536 0.84308 0.39815 0.0
H610 H 0.56869 0.86562 0.43342 0.0
H611 H 0.58177 0.89273 0.43637 0.0
H612 H 0.58472 0.91836 0.3399 0.0
H613 H 0.56783 0.89582 0.30473 0.0
C614 C 0.5753 0.86808 0.3304 0.0
C615 C 0.58459 0.85442 0.34757 0.0
C616 C 0.56814 0.88112 0.35031 0.0
C617 C 0.57776 0.85352 0.38457 0.0
C618 C 0.56911 0.86643 0.40466 0.0
C619 C 0.57564 0.89338 0.40774 0.0
C620 C 0.58449 0.90704 0.3905 0.0
C621 C 0.56837 0.88033 0.38786 0.0
C622 C 0.57735 0.90792 0.35353 0.0
C623 C 0.56858 0.89502 0.33349 0.0
H624 H 0.67435 0.35857 0.43481 0.0
H625 H 0.63961 0.33154 0.34234 0.0
H626 H 0.65691 0.35302 0.30373 0.0
H627 H 0.65398 0.38012 0.29838 0.0
H628 H 0.68079 0.40743 0.39117 0.0
H629 H 0.6966 0.38526 0.42781 0.0
C630 C 0.67367 0.35732 0.4061 0.0
C631 C 0.65598 0.34363 0.39115 0.0
C632 C 0.68111 0.36983 0.38438 0.0
C633 C 0.65399 0.342 0.35414 0.0
C634 C 0.66305 0.35431 0.33219 0.0
C635 C 0.66599 0.38116 0.32639 0.0
C636 C 0.66563 0.39524 0.34237 0.0
C637 C 0.67258 0.3684 0.34723 0.0
C638 C 0.68116 0.39665 0.37849 0.0
C639 C 0.68935 0.38397 0.39942 0.0
H640 H 0.43788 0.62156 0.04187 0.0
H641 H 0.43142 0.59014 0.12794 0.0
H642 H 0.43715 0.61045 0.17128 0.0
H643 H 0.43323 0.63733 0.1841 0.0
H644 H 0.44873 0.66849 0.09768 0.0
H645 H 0.45078 0.64811 0.05481 0.0
C646 C 0.43892 0.6192 0.07016 0.0
C647 C 0.43353 0.6045 0.08193 0.0
C648 C 0.44322 0.63087 0.09466 0.0
C649 C 0.43562 0.60142 0.11845 0.0
C650 C 0.43843 0.61302 0.14314 0.0
C651 C 0.43778 0.6396 0.15587 0.0
C652 C 0.43965 0.65434 0.14387 0.0
C653 C 0.44049 0.62781 0.1315 0.0
C654 C 0.44682 0.65722 0.10742 0.0
C655 C 0.44782 0.64558 0.08294 0.0
H656 H 0.28672 0.13283 0.04756 0.0
H657 H 0.31271 0.16234 0.13658 0.0
H658 H 0.30535 0.14138 0.17776 0.0
H659 H 0.30147 0.11434 0.18763 0.0
H660 H 0.26766 0.08517 0.09864 0.0
H661 H 0.2676 0.10631 0.05813 0.0
C662 C 0.28979 0.13466 0.07604 0.0
C663 C 0.30098 0.149 0.08916 0.0
C664 C 0.28465 0.12262 0.09941 0.0
C665 C 0.30404 0.15136 0.126 0.0
C666 C 0.30026 0.13937 0.14948 0.0
C667 C 0.29346 0.11267 0.1594 0.0
C668 C 0.28575 0.09824 0.14597 0.0
C669 C 0.29218 0.12491 0.13638 0.0
C670 C 0.27414 0.09618 0.10952 0.0
C671 C 0.27426 0.10825 0.08634 0.0
H672 H 0.4368 0.1005 0.61724 0.0
H673 H 0.4421 0.12514 0.51926 0.0
H674 H 0.445 0.14848 0.55247 0.0
H675 H 0.43616 0.16188 0.60936 0.0
H676 H 0.41572 0.13715 0.70673 0.0
H677 H 0.42846 0.11388 0.67412 0.0
C678 C 0.4397 0.11099 0.60333 0.0
C679 C 0.43985 0.11121 0.56604 0.0
C680 C 0.43781 0.12434 0.62255 0.0
C681 C 0.44224 0.12481 0.54807 0.0
C682 C 0.44364 0.13813 0.56701 0.0
C683 C 0.4353 0.15138 0.62337 0.0
C684 C 0.4252 0.15116 0.66028 0.0
C685 C 0.43994 0.13804 0.60425 0.0
C686 C 0.4232 0.13753 0.67822 0.0
C687 C 0.43056 0.12424 0.65962 0.0
H688 H 0.29963 0.62836 0.53936 0.0
H689 H 0.29025 0.65869 0.62787 0.0
H690 H 0.28726 0.63788 0.66944 0.0
H691 H 0.29682 0.61109 0.68053 0.0
H692 H 0.29776 0.58068 0.59208 0.0
H693 H 0.29401 0.60147 0.55035 0.0
C694 C 0.29611 0.63036 0.56776 0.0
C695 C 0.29606 0.64496 0.5807 0.0
C696 C 0.29333 0.61836 0.59137 0.0
C697 C 0.29047 0.64752 0.61739 0.0
C698 C 0.28909 0.63563 0.64113 0.0
C699 C 0.29554 0.60906 0.65209 0.0
C700 C 0.29865 0.59447 0.63922 0.0
C701 C 0.29201 0.62103 0.62842 0.0
C702 C 0.29572 0.59186 0.60247 0.0
C703 C 0.29379 0.60373 0.57866 0.0
H704 H 0.51092 0.30911 0.35783 0.0
H705 H 0.42411 0.28648 0.4468 0.0
H706 H 0.31641 0.28791 0.41875 0.0
H707 H 0.24637 0.29704 0.37064 0.0
H708 H 0.33239 0.32139 0.28372 0.0
H709 H 0.44076 0.31804 0.30927 0.0
C710 C 0.46842 0.30421 0.37044 0.0
C711 C 0.47464 0.29744 0.40368 0.0
C712 C 0.40655 0.30566 0.35491 0.0
C713 C 0.41968 0.29153 0.42076 0.0
C714 C 0.35832 0.29245 0.40494 0.0
C715 C 0.28888 0.3016 0.35736 0.0
C716 C 0.2815 0.30948 0.32553 0.0
C717 C 0.35098 0.29976 0.37234 0.0
C718 C 0.33686 0.31535 0.30848 0.0
C719 C 0.39891 0.31338 0.32293 0.0
H720 H 0.92561 0.94716 0.29621 0.0
H721 H 0.04266 0.95267 0.39067 0.0
H722 H 0.9435 0.95707 0.42584 0.0
H723 H 0.82393 0.95727 0.42988 0.0
H724 H 0.70723 0.95254 0.3351 0.0
H725 H 0.80678 0.95007 0.2992 0.0
C726 C 0.92932 0.94938 0.32451 0.0
C727 C 0.99066 0.94933 0.34124 0.0
C728 C 0.87266 0.95204 0.34414 0.0
C729 C 0.99556 0.95257 0.37755 0.0
C730 C 0.93909 0.95505 0.39752 0.0
C731 C 0.82053 0.95587 0.40126 0.0
C732 C 0.75906 0.9549 0.3849 0.0
C733 C 0.87749 0.95451 0.38114 0.0
C734 C 0.75445 0.95333 0.34796 0.0
C735 C 0.81113 0.95182 0.32762 0.0
H736 H 0.44247 0.96534 0.83104 0.0
H737 H 0.47062 0.91828 0.84259 0.0
H738 H 0.36358 0.91592 0.87072 0.0
H739 H 0.26539 0.92738 0.89412 0.0
H740 H 0.23431 0.97434 0.88378 0.0
H741 H 0.33809 0.97668 0.85126 0.0
C742 C 0.42504 0.95467 0.84027 0.0
C743 C 0.46414 0.94203 0.83598 0.0
C744 C 0.36275 0.95338 0.8555 0.0
C745 C 0.44121 0.92812 0.84657 0.0
C746 C 0.38004 0.92677 0.86223 0.0
C747 C 0.28077 0.93807 0.88411 0.0
C748 C 0.24303 0.95066 0.89113 0.0
C749 C 0.3407 0.93932 0.86688 0.0
C750 C 0.26263 0.96448 0.87799 0.0
C751 C 0.32232 0.96584 0.86008 0.0
H752 H 0.82674 0.29915 0.79993 0.0
H753 H 0.70328 0.29592 0.89263 0.0
H754 H 0.79971 0.2928 0.9304 0.0
H755 H 0.91848 0.29341 0.9372 0.0
H756 H 0.04264 0.29601 0.84483 0.0
H757 H 0.94596 0.2967 0.80616 0.0
C758 C 0.82111 0.29766 0.8284 0.0
C759 C 0.75858 0.29801 0.84381 0.0
C760 C 0.87647 0.29573 0.84968 0.0
C761 C 0.75124 0.29576 0.88045 0.0
C762 C 0.80618 0.29401 0.90193 0.0
C763 C 0.92417 0.29388 0.90851 0.0
C764 C 0.98682 0.2948 0.89358 0.0
C765 C 0.86889 0.29431 0.88687 0.0
C766 C 0.99446 0.29523 0.85659 0.0
C767 C 0.93937 0.29575 0.83467 0.0
H768 H 0.74414 0.67828 0.58947 0.0
H769 H 0.71585 0.71241 0.66829 0.0
H770 H 0.59748 0.70993 0.66296 0.0
H771 H 0.502 0.69715 0.63789 0.0
H772 H 0.53066 0.66272 0.55989 0.0
H773 H 0.64892 0.66579 0.56381 0.0
C774 C 0.71192 0.68537 0.60484 0.0
C775 C 0.7382 0.69554 0.62903 0.0
C776 C 0.64413 0.68347 0.60269 0.0
C777 C 0.69625 0.70454 0.64931 0.0
C778 C 0.62873 0.70302 0.6466 0.0
C779 C 0.53439 0.69016 0.62236 0.0
C780 C 0.50824 0.6796 0.59909 0.0
C781 C 0.60215 0.69226 0.62404 0.0
C782 C 0.55023 0.67083 0.57828 0.0
C783 C 0.61764 0.67268 0.58021 0.0
H784 H 0.05172 0.05957 0.66508 0.0
H785 H 0.98365 0.06689 0.55776 0.0
H786 H 0.09569 0.07194 0.53865 0.0
H787 H 0.21154 0.07447 0.55271 0.0
H788 H 0.27902 0.06765 0.66038 0.0
H789 H 0.16716 0.06244 0.6793 0.0
C790 C 0.06123 0.06209 0.63735 0.0
C791 C 0.00948 0.06266 0.61271 0.0
C792 C 0.12516 0.06526 0.62682 0.0
C793 C 0.02269 0.06624 0.57712 0.0
C794 C 0.0866 0.0692 0.56627 0.0
C795 C 0.20203 0.07187 0.5804 0.0
C796 C 0.25372 0.07139 0.60511 0.0
C797 C 0.13799 0.06881 0.59097 0.0
C798 C 0.24019 0.06814 0.64087 0.0
C799 C 0.17636 0.06507 0.65163 0.0
H800 H 0.4885 0.08002 0.09074 0.0
H801 H 0.50156 0.04366 0.1646 0.0
H802 H 0.62061 0.04442 0.16184 0.0
H803 H 0.72135 0.05545 0.13836 0.0
H804 H 0.70879 0.09169 0.06418 0.0
H805 H 0.58964 0.09132 0.0679 0.0
C806 C 0.51767 0.07212 0.1056 0.0
C807 C 0.48688 0.06168 0.12737 0.0
C808 C 0.58614 0.07288 0.10462 0.0
C809 C 0.52474 0.05171 0.14736 0.0
C810 C 0.59266 0.05222 0.14608 0.0
C811 C 0.69235 0.06346 0.12376 0.0
C812 C 0.72324 0.07367 0.10143 0.0
C813 C 0.62394 0.06286 0.12512 0.0
C814 C 0.68553 0.0838 0.08182 0.0
C815 C 0.61755 0.0835 0.08362 0.0
H816 H 0.00179 0.6942 0.14383 0.0
H817 H 0.02141 0.66441 0.05475 0.0
H818 H 0.14025 0.6661 0.05829 0.0
H819 H 0.23904 0.67627 0.08652 0.0
H820 H 0.2187 0.70615 0.1754 0.0
H821 H 0.10006 0.70452 0.1716 0.0
C822 C 0.03224 0.68791 0.12565 0.0
C823 C 0.00325 0.67912 0.09935 0.0
C824 C 0.10042 0.68921 0.12724 0.0
C825 C 0.04298 0.67122 0.07537 0.0
C826 C 0.11083 0.67225 0.07718 0.0
C827 C 0.2084 0.68262 0.10451 0.0
C828 C 0.23715 0.69138 0.13097 0.0
C829 C 0.14013 0.68137 0.10273 0.0
C830 C 0.19728 0.69935 0.15471 0.0
C831 C 0.12954 0.69835 0.15275 0.0
H832 H 0.43014 0.80415 0.94092 0.0
H833 H 0.54235 0.80128 0.84399 0.0
H834 H 0.4419 0.80383 0.80896 0.0
H835 H 0.32384 0.80796 0.80653 0.0
H836 H 0.21104 0.80975 0.90344 0.0
H837 H 0.31119 0.8066 0.93844 0.0
C838 C 0.43252 0.80402 0.91209 0.0
C839 C 0.49312 0.80269 0.89482 0.0
C840 C 0.37503 0.80542 0.89245 0.0
C841 C 0.49593 0.80228 0.85762 0.0
C842 C 0.43876 0.80382 0.83774 0.0
C843 C 0.32122 0.80772 0.83535 0.0
C844 C 0.26073 0.80932 0.85264 0.0
C845 C 0.37834 0.80562 0.85496 0.0
C846 C 0.25742 0.80864 0.8898 0.0
C847 C 0.31444 0.80683 0.90967 0.0
H848 H 0.82389 0.45205 0.93772 0.0
H849 H 0.7109 0.44979 0.84107 0.0
H850 H 0.81189 0.44819 0.80608 0.0
H851 H 0.93095 0.44551 0.80403 0.0
H852 H 0.04403 0.44849 0.90059 0.0
H853 H 0.94339 0.4518 0.93514 0.0
C854 C 0.8215 0.45133 0.90894 0.0
C855 C 0.76062 0.45083 0.89177 0.0
C856 C 0.87926 0.45044 0.88934 0.0
C857 C 0.75757 0.45018 0.8546 0.0
C858 C 0.81508 0.44917 0.83476 0.0
C859 C 0.9335 0.44692 0.83267 0.0
C860 C 0.99421 0.4465 0.85008 0.0
C861 C 0.87596 0.44896 0.852 0.0
C862 C 0.99749 0.44868 0.8869 0.0
C863 C 0.94017 0.45054 0.90652 0.0
H864 H 0.42837 0.44498 0.30609 0.0
H865 H 0.54135 0.44561 0.40292 0.0
H866 H 0.44089 0.44837 0.43782 0.0
H867 H 0.32168 0.44983 0.44039 0.0
H868 H 0.2088 0.45052 0.34356 0.0
H869 H 0.30943 0.44818 0.30849 0.0
C870 C 0.43089 0.4457 0.33486 0.0
C871 C 0.49161 0.4449 0.35218 0.0
C872 C 0.37345 0.44759 0.35443 0.0
C873 C 0.49483 0.44614 0.38927 0.0
C874 C 0.43761 0.44771 0.40909 0.0
C875 C 0.3192 0.44953 0.41157 0.0
C876 C 0.25838 0.45019 0.39436 0.0
C877 C 0.3768 0.44834 0.3919 0.0
C878 C 0.25539 0.45004 0.35715 0.0
C879 C 0.31269 0.44863 0.33725 0.0
H880 H 0.82578 0.80612 0.30292 0.0
H881 H 0.72073 0.80331 0.40221 0.0
H882 H 0.82422 0.80057 0.43436 0.0
H883 H 0.94359 0.80008 0.43396 0.0
H884 H 0.04889 0.80184 0.33466 0.0
H885 H 0.94515 0.80371 0.30216 0.0
C886 C 0.82562 0.80492 0.33163 0.0
C887 C 0.76627 0.80513 0.35047 0.0
C888 C 0.88479 0.80311 0.34959 0.0
C889 C 0.76614 0.80324 0.38742 0.0
C890 C 0.82509 0.80169 0.40566 0.0
C891 C 0.94376 0.8008 0.40515 0.0
C892 C 0.00326 0.80101 0.38651 0.0
C893 C 0.88452 0.80177 0.38699 0.0
C894 C 0.00334 0.80167 0.34931 0.0
C895 C 0.94427 0.80282 0.3309 0.0
H896 H 0.76404 0.17297 0.08738 0.0
H897 H 0.75255 0.20922 0.16178 0.0
H898 H 0.63346 0.20842 0.15995 0.0
H899 H 0.53249 0.19698 0.13836 0.0
H900 H 0.54294 0.16087 0.06352 0.0
H901 H 0.66228 0.16169 0.06505 0.0
C902 C 0.73517 0.18088 0.10241 0.0
C903 C 0.76637 0.19126 0.12423 0.0
C904 C 0.66669 0.18007 0.10201 0.0
C905 C 0.72899 0.20124 0.14448 0.0
C906 C 0.66108 0.20069 0.14376 0.0
C907 C 0.56108 0.18912 0.12302 0.0
C908 C 0.5295 0.17876 0.10133 0.0
C909 C 0.62941 0.18998 0.12313 0.0
C910 C 0.5667 0.16885 0.08073 0.0
C911 C 0.63476 0.16941 0.0813 0.0
H912 H 0.19166 0.56743 0.04997 0.0
H913 H 0.25817 0.56495 0.15889 0.0
H914 H 0.14525 0.56258 0.17912 0.0
H915 H 0.0287 0.56141 0.16585 0.0
H916 H 0.96234 0.56388 0.05688 0.0
H917 H 0.07529 0.56599 0.03665 0.0
C918 C 0.18173 0.56642 0.0782 0.0
C919 C 0.23341 0.56643 0.10291 0.0
C920 C 0.11702 0.56501 0.08957 0.0
C921 C 0.21938 0.56499 0.13931 0.0
C922 C 0.15487 0.56363 0.15088 0.0
C923 C 0.03866 0.56239 0.13761 0.0
C924 C 0.98696 0.56251 0.1129 0.0
C925 C 0.10345 0.56365 0.12622 0.0
C926 C 0.0011 0.56374 0.07647 0.0
C927 C 0.06564 0.56498 0.06489 0.0
H928 H 0.74812 0.56261 0.64249 0.0
H929 H 0.71747 0.58506 0.5426 0.0
H930 H 0.59989 0.58214 0.54859 0.0
H931 H 0.50536 0.57267 0.58131 0.0
H932 H 0.53497 0.5504 0.68149 0.0
H933 H 0.65279 0.55361 0.67606 0.0
C934 C 0.71552 0.56704 0.6224 0.0
C935 C 0.74136 0.57398 0.59219 0.0
C936 C 0.64768 0.56514 0.6257 0.0
C937 C 0.69868 0.57957 0.56607 0.0
C938 C 0.63141 0.57787 0.56935 0.0
C939 C 0.53773 0.56838 0.6017 0.0
C940 C 0.51164 0.56124 0.63154 0.0
C941 C 0.60537 0.57048 0.59876 0.0
C942 C 0.55401 0.55595 0.65815 0.0
C943 C 0.62139 0.55782 0.65518 0.0
H944 H 0.98399 0.19105 0.63955 0.0
H945 H 0.01073 0.15654 0.56169 0.0
H946 H 0.12904 0.15748 0.57006 0.0
H947 H 0.22526 0.16908 0.59734 0.0
H948 H 0.19873 0.20374 0.67499 0.0
H949 H 0.08032 0.2021 0.66838 0.0
C950 C 0.01592 0.18354 0.62518 0.0
C951 C 0.9895 0.17365 0.60043 0.0
C952 C 0.08388 0.18447 0.62934 0.0
C953 C 0.03076 0.16415 0.58114 0.0
C954 C 0.0982 0.16478 0.58564 0.0
C955 C 0.19338 0.17636 0.6124 0.0
C956 C 0.2202 0.18661 0.63622 0.0
C957 C 0.1254 0.17513 0.60906 0.0
C958 C 0.17874 0.1958 0.6563 0.0
C959 C 0.11115 0.19482 0.65273 0.0
H960 H 0.93592 0.23224 0.22598 0.0
H961 H 0.08233 0.23215 0.14321 0.0
H962 H 0.11885 0.25666 0.16192 0.0
H963 H 0.1128 0.27752 0.20329 0.0
H964 H 0.96533 0.27824 0.28522 0.0
H965 H 0.92507 0.25406 0.26508 0.0
C966 C 0.97578 0.23758 0.21199 0.0
C967 C 0.00678 0.23028 0.18343 0.0
C968 C 0.99625 0.25176 0.22271 0.0
C969 C 0.05766 0.23748 0.16528 0.0
C970 C 0.07869 0.25149 0.176 0.0
C971 C 0.07159 0.27243 0.21666 0.0
C972 C 0.04241 0.27956 0.24592 0.0
C973 C 0.04884 0.25864 0.2049 0.0
C974 C 0.98853 0.27295 0.26264 0.0
C975 C 0.96579 0.25911 0.25123 0.0
H976 H 0.13927 0.97358 0.20078 0.0
H977 H 0.29869 0.97099 0.27545 0.0
H978 H 0.34092 0.99473 0.25385 0.0
H979 H 0.32638 0.01715 0.21748 0.0
H980 H 0.16814 0.0193 0.14179 0.0
H981 H 0.13164 0.99468 0.15993 0.0
C982 C 0.18373 0.97814 0.21203 0.0
C983 C 0.2155 0.9707 0.23994 0.0
C984 C 0.20745 0.99173 0.19952 0.0
C985 C 0.2735 0.97655 0.25394 0.0
C986 C 0.29732 0.99016 0.24176 0.0
C987 C 0.2841 0.01219 0.20483 0.0
C988 C 0.24934 0.02013 0.17874 0.0
C989 C 0.2637 0.998 0.21521 0.0
C990 C 0.19551 0.01345 0.16205 0.0
C991 C 0.17452 0.9994 0.17248 0.0
H992 H 0.01688 0.02274 0.07551 0.0
H993 H 0.85873 0.02477 -0.00018 0.0
H994 H 0.88735 1.0001 0.97781 0.0
H995 H 0.96369 0.97881 0.97656 0.0
H996 H 0.12668 0.97817 0.0491 0.0
H997 H 0.08937 0.00126 0.07618 0.0
C998 C 0.98801 0.01773 0.05452 0.0
C999 C 0.93588 0.02565 0.03929 0.0
C1000 C 0.00586 0.00376 0.04132 0.0
C1001 C 0.89942 0.01898 0.0119 0.0
C1002 C 0.91574 0.00486 -0.00072 0.0
C1003 C 0.99015 0.98364 -0.0013 0.0
C1004 C 0.04773 0.97686 0.01088 0.0
C1005 C 0.96974 0.99726 0.01328 0.0
C1006 C 0.08232 0.98327 0.03923 0.0
C1007 C 0.06111 0.99648 0.05467 0.0
H1008 H 0.2379 0.23062 0.08083 0.0
H1009 H 0.39216 0.22554 0.00352 0.0
H1010 H 0.36347 0.24934 0.97693 0.0
H1011 H 0.2866 0.27036 0.97157 0.0
H1012 H 0.12804 0.27417 0.04656 0.0
H1013 H 0.16666 0.25232 0.07824 0.0
C1014 C 0.26605 0.23483 0.05858 0.0
C1015 C 0.31677 0.22625 0.0441 0.0
C1016 C 0.2481 0.24831 0.04274 0.0
C1017 C 0.35244 0.23186 0.01506 0.0
C1018 C 0.33604 0.24547 -0.00023 0.0
C1019 C 0.26147 0.26653 -0.00477 0.0
C1020 C 0.20447 0.27377 0.00661 0.0
C1021 C 0.28279 0.25362 0.01275 0.0
C1022 C 0.1718 0.26866 0.03712 0.0
C1023 C 0.19378 0.25617 0.05526 0.0
H1024 H 0.91244 0.734 0.73631 0.0
H1025 H 0.0731 0.73087 0.66219 0.0
H1026 H 0.11584 0.75447 0.68359 0.0
H1027 H 0.10994 0.77541 0.72445 0.0
H1028 H 0.94793 0.77961 0.79705 0.0
H1029 H 0.90261 0.75613 0.77487 0.0
C1030 C 0.95684 0.73849 0.72488 0.0
C1031 C 0.99002 0.7306 0.69794 0.0
C1032 C 0.98065 0.7522 0.73697 0.0
C1033 C 0.04677 0.73668 0.68294 0.0
C1034 C 0.07128 0.75016 0.69521 0.0
C1035 C 0.06459 0.7712 0.73544 0.0
C1036 C 0.03262 0.77906 0.76266 0.0
C1037 C 0.03896 0.75791 0.72237 0.0
C1038 C 0.97331 0.77369 0.77612 0.0
C1039 C 0.94771 0.76027 0.76355 0.0
H1040 H 0.62478 0.97983 0.71482 0.0
H1041 H 0.7847 0.97362 0.78801 0.0
H1042 H 0.83541 0.99652 0.76672 0.0
H1043 H 0.83269 0.01848 0.72823 0.0
H1044 H 0.67397 0.02414 0.65379 0.0
H1045 H 0.62446 0.00115 0.67463 0.0
C1046 C 0.67074 0.98349 0.72616 0.0
C1047 C 0.70074 0.97514 0.75317 0.0
C1048 C 0.69973 0.99653 0.71357 0.0
C1049 C 0.76067 0.97989 0.76723 0.0
C1050 C 0.78956 0.99298 0.75511 0.0
C1051 C 0.78724 0.01471 0.71654 0.0
C1052 C 0.75686 0.02311 0.68965 0.0
C1053 C 0.75926 0.00142 0.72845 0.0
C1054 C 0.69842 0.01793 0.67451 0.0
C1055 C 0.66997 0.00479 0.68647 0.0
H1056 H 0.66489 0.7714 0.02882 0.0
H1057 H 0.80401 0.77139 0.9428 0.0
H1058 H 0.84882 0.74771 0.96396 0.0
H1059 H 0.84134 0.72611 0.00432 0.0
H1060 H 0.70269 0.72705 0.09102 0.0
H1061 H 0.66511 0.75138 0.0723 0.0
C1062 C 0.70544 0.76626 0.01487 0.0
C1063 C 0.73065 0.77292 0.98407 0.0
C1064 C 0.73069 0.75281 0.02722 0.0
C1065 C 0.7839 0.76638 0.96656 0.0
C1066 C 0.80914 0.75284 0.97856 0.0
C1067 C 0.80328 0.73169 0.01928 0.0
C1068 C 0.77434 0.72463 0.04879 0.0
C1069 C 0.78186 0.74579 0.00843 0.0
C1070 C 0.72575 0.73214 0.06817 0.0
C1071 C 0.70399 0.74606 0.05743 0.0
H1072 H 0.3435 0.51584 0.72699 0.0
H1073 H 0.19623 0.51517 0.64479 0.0
H1074 H 0.15669 0.49136 0.66645 0.0
H1075 H 0.15833 0.47178 0.71126 0.0
H1076 H 0.30664 0.4716 0.79258 0.0
H1077 H 0.35225 0.49467 0.76844 0.0
C1078 C 0.30304 0.51042 0.71369 0.0
C1079 C 0.27231 0.51736 0.68459 0.0
C1080 C 0.28081 0.49664 0.72613 0.0
C1081 C 0.22068 0.5101 0.66725 0.0
C1082 C 0.19787 0.4965 0.67969 0.0
C1083 C 0.20105 0.47673 0.72352 0.0
C1084 C 0.22873 0.47019 0.75389 0.0
C1085 C 0.22675 0.48984 0.70947 0.0
C1086 C 0.28465 0.4765 0.76917 0.0
C1087 C 0.31035 0.4897 0.75551 0.0
H1088 H 0.09629 0.48507 0.52371 0.0
H1089 H 0.94604 0.48158 0.44387 0.0
H1090 H 0.90131 0.50562 0.46257 0.0
H1091 H 0.91002 0.52828 0.49927 0.0
H1092 H 0.05925 0.53094 0.58022 0.0
H1093 H 0.09912 0.50646 0.56352 0.0
C1094 C 0.05346 0.48953 0.51052 0.0
C1095 C 0.02488 0.48171 0.48218 0.0
C1096 C 0.02813 0.5032 0.52153 0.0
C1097 C 0.96881 0.48745 0.46573 0.0
C1098 C 0.94353 0.5012 0.47632 0.0
C1099 C 0.95106 0.52347 0.51338 0.0
C1100 C 0.98205 0.53154 0.54073 0.0
C1101 C 0.97357 0.50929 0.50379 0.0
C1102 C 0.03453 0.52503 0.55907 0.0
C1103 C 0.05754 0.51104 0.54946 0.0
H1104 H 0.34906 0.72376 0.498 0.0
H1105 H 0.20548 0.7252 0.58227 0.0
H1106 H 0.1687 0.74936 0.56187 0.0
H1107 H 0.17125 0.76913 0.5179 0.0
H1108 H 0.31498 0.76865 0.43415 0.0
H1109 H 0.35848 0.74506 0.4568 0.0
C1110 C 0.31005 0.72941 0.51205 0.0
C1111 C 0.27958 0.72255 0.54141 0.0
C1112 C 0.28908 0.74341 0.50023 0.0
C1113 C 0.22973 0.73014 0.55958 0.0
C1114 C 0.20845 0.74396 0.54788 0.0
C1115 C 0.21243 0.7639 0.50471 0.0
C1116 C 0.2394 0.7704 0.47415 0.0
C1117 C 0.23687 0.75052 0.5179 0.0
C1118 C 0.29349 0.76376 0.4577 0.0
C1119 C 0.31799 0.75027 0.47055 0.0
H1120 H 0.65493 0.47305 0.21592 0.0
H1121 H 0.80324 0.47423 0.29715 0.0
H1122 H 0.84675 0.49734 0.27178 0.0
H1123 H 0.83612 0.51808 0.22895 0.0
H1124 H 0.68736 0.51593 0.14754 0.0
H1125 H 0.65066 0.4922 0.17055 0.0
C1126 C 0.69712 0.47832 0.22797 0.0
C1127 C 0.72541 0.47215 0.2586 0.0
C1128 C 0.72143 0.49142 0.2133 0.0
C1129 C 0.78074 0.47885 0.27357 0.0
C1130 C 0.80523 0.49207 0.25917 0.0
C1131 C 0.79599 0.51237 0.21608 0.0
C1132 C 0.7641 0.51892 0.18674 0.0
C1133 C 0.775 0.49862 0.22944 0.0
C1134 C 0.71274 0.51125 0.17016 0.0
C1135 C 0.69152 0.49767 0.18335 0.0
H1136 H 0.83067 0.22315 0.50273 0.0
H1137 H 0.68057 0.21963 0.58311 0.0
H1138 H 0.64161 0.24437 0.56834 0.0
H1139 H 0.64473 0.26615 0.52992 0.0
H1140 H 0.7946 0.27022 0.44991 0.0
H1141 H 0.83971 0.24613 0.46756 0.0
C1142 C 0.78967 0.22782 0.51718 0.0
C1143 C 0.75814 0.21942 0.54373 0.0
C1144 C 0.76743 0.24211 0.50859 0.0
C1145 C 0.70567 0.22576 0.56249 0.0
C1146 C 0.68319 0.23992 0.55401 0.0
C1147 C 0.68764 0.26183 0.5165 0.0
C1148 C 0.7159 0.26983 0.48837 0.0
C1149 C 0.71291 0.24805 0.5267 0.0
C1150 C 0.77202 0.26423 0.47162 0.0
C1151 C 0.79751 0.25044 0.48158 0.0
H1152 H 0.58937 0.27468 0.70409 0.0
H1153 H 0.43968 0.2788 0.78419 0.0
H1154 H 0.38808 0.25599 0.76253 0.0
H1155 H 0.39238 0.23374 0.72452 0.0
H1156 H 0.54177 0.23008 0.64385 0.0
H1157 H 0.58644 0.254 0.66186 0.0
C1158 C 0.54497 0.27067 0.71654 0.0
C1159 C 0.5187 0.27824 0.74597 0.0
C1160 C 0.51595 0.25762 0.704 0.0
C1161 C 0.46069 0.27312 0.76152 0.0
C1162 C 0.43153 0.26005 0.74927 0.0
C1163 C 0.43438 0.23824 0.71066 0.0
C1164 C 0.46431 0.23002 0.68321 0.0
C1165 C 0.45978 0.25202 0.72113 0.0
C1166 C 0.51794 0.23613 0.66511 0.0
C1167 C 0.54368 0.24978 0.67549 0.0
H1168 H 0.41035 0.02887 0.50211 0.0
H1169 H 0.57009 0.03239 0.57671 0.0
H1170 H 0.60988 0.00809 0.55844 0.0
H1171 H 0.60413 0.98678 0.5185 0.0
H1172 H 0.44445 0.98265 0.44443 0.0
H1173 H 0.39918 0.00627 0.46561 0.0
C1174 C 0.45368 0.02429 0.51454 0.0
C1175 C 0.48767 0.03257 0.54046 0.0
C1176 C 0.4763 0.01026 0.50395 0.0
C1177 C 0.5431 0.02634 0.55664 0.0
C1178 C 0.56602 0.01245 0.54614 0.0
C1179 C 0.55912 0.991 0.50712 0.0
C1180 C 0.52803 0.98313 0.47961 0.0
C1181 C 0.53374 0.00447 0.51939 0.0
C1182 C 0.46921 0.98855 0.46558 0.0
C1183 C 0.44363 0.00207 0.47756 0.0
H1184 H 0.59984 0.77585 0.21881 0.0
H1185 H 0.45008 0.777 0.29939 0.0
H1186 H 0.40323 0.75398 0.27553 0.0
H1187 H 0.40963 0.73284 0.23371 0.0
H1188 H 0.55831 0.73265 0.15214 0.0
H1189 H 0.60072 0.75611 0.1744 0.0
C1190 C 0.55672 0.77109 0.23109 0.0
C1191 C 0.52883 0.77793 0.26108 0.0
C1192 C 0.53013 0.75805 0.2171 0.0
C1193 C 0.47233 0.77187 0.27631 0.0
C1194 C 0.44584 0.7587 0.26276 0.0
C1195 C 0.45112 0.73797 0.2207 0.0
C1196 C 0.48116 0.7309 0.19148 0.0
C1197 C 0.47505 0.75157 0.23349 0.0
C1198 C 0.53426 0.73781 0.17463 0.0
C1199 C 0.55872 0.75121 0.18742 0.0
H1200 H 0.48868 0.48697 0.93714 0.0
H1201 H 0.54486 0.46884 0.03848 0.0
H1202 H 0.50905 0.49147 0.06858 0.0
H1203 H 0.47266 0.51734 0.06526 0.0
H1204 H 0.41925 0.53584 0.96349 0.0
H1205 H 0.44303 0.5123 0.93449 0.0
C1206 C 0.49095 0.48788 0.96588 0.0
C1207 C 0.51819 0.4763 0.98578 0.0
C1208 C 0.47216 0.50112 0.98286 0.0
C1209 C 0.52297 0.47764 0.02288 0.0
C1210 C 0.50317 0.4906 0.04001 0.0
C1211 C 0.46589 0.5162 0.03678 0.0
C1212 C 0.44485 0.52842 0.01666 0.0
C1213 C 0.47961 0.5026 0.02015 0.0
C1214 C 0.43557 0.52666 0.97976 0.0
C1215 C 0.44914 0.51318 0.96305 0.0
H1216 H 0.19891 0.34108 0.16024 0.0
H1217 H 0.00148 0.33054 0.19174 0.0
H1218 H 0.96874 0.3293 0.12925 0.0
H1219 H 0.00048 0.32772 0.06641 0.0
H1220 H 0.20118 0.33511 0.03639 0.0
H1221 H 0.22873 0.34123 0.09789 0.0
C1222 C 0.14833 0.33884 0.15354 0.0
C1223 C 0.10273 0.33579 0.1804 0.0
C1224 C 0.13086 0.33742 0.1179 0.0
C1225 C 0.0375 0.33281 0.17135 0.0
C1226 C 0.01887 0.33206 0.13572 0.0
C1227 C 0.04986 0.33097 0.07339 0.0
C1228 C 0.099 0.33093 0.04743 0.0
C1229 C 0.06576 0.33379 0.10887 0.0
C1230 C 0.163 0.33497 0.05637 0.0
C1231 C 0.17864 0.33846 0.09135 0.0
H1232 H 0.07483 0.91814 0.05944 0.0
H1233 H 0.28065 0.92716 0.07072 0.0
H1234 H 0.27317 0.92322 0.13486 0.0
H1235 H 0.20549 0.92007 0.18777 0.0
H1236 H -0.00059 0.91096 0.17634 0.0
H1237 H 0.01013 0.91158 0.11188 0.0
C1238 C 0.11796 0.91913 0.07603 0.0
C1239 C 0.17775 0.92322 0.06092 0.0
C1240 C 0.11339 0.91676 0.11261 0.0
C1241 C 0.23396 0.92413 0.08216 0.0
C1242 C 0.22974 0.92189 0.1187 0.0
C1243 C 0.16313 0.91798 0.17117 0.0
C1244 C 0.10158 0.91583 0.1867 0.0
C1245 C 0.16932 0.9186 0.13425 0.0
C1246 C 0.04734 0.91279 0.16497 0.0
C1247 C 0.05323 0.91326 0.12812 0.0
H1248 H 0.78545 0.68886 0.80663 0.0
H1249 H 0.99238 0.67954 0.80831 0.0
H1250 H 0.98843 0.67663 0.87284 0.0
H1251 H 0.92708 0.67711 0.92809 0.0
H1252 H 0.71986 0.68594 0.92744 0.0
H1253 H 0.72277 0.68854 0.86245 0.0
C1254 C 0.82971 0.68623 0.82115 0.0
C1255 C 0.88929 0.68452 0.80293 0.0
C1256 C 0.82688 0.68443 0.85808 0.0
C1257 C 0.94608 0.68093 0.82187 0.0
C1258 C 0.94383 0.67927 0.85867 0.0
C1259 C 0.88238 0.67961 0.9138 0.0
C1260 C 0.82335 0.68146 0.93237 0.0
C1261 C 0.88459 0.68104 0.87692 0.0
C1262 C 0.76577 0.68447 0.91355 0.0
C1263 C 0.76756 0.686 0.87655 0.0
H1264 H 0.80231 0.07123 0.80585 0.0
H1265 H -0.00117 0.05479 0.79327 0.0
H1266 H 0.01627 0.05651 0.85754 0.0
H1267 H 0.97449 0.06263 0.91771 0.0
H1268 H 0.7763 0.07841 0.92851 0.0
H1269 H 0.76102 0.07711 0.86462 0.0
C1270 C 0.84898 0.06802 0.81714 0.0
C1271 C 0.89911 0.06292 0.79498 0.0
C1272 C 0.85851 0.06899 0.85384 0.0
C1273 C 0.95928 0.05872 0.80994 0.0
C1274 C 0.9694 0.05975 0.84663 0.0
C1275 C 0.92836 0.06589 0.90589 0.0
C1276 C 0.87673 0.0706 0.92768 0.0
C1277 C 0.91931 0.0649 0.86889 0.0
C1278 C 0.81679 0.07467 0.91225 0.0
C1279 C 0.80785 0.07394 0.87571 0.0
H1280 H 0.23919 0.82274 0.66651 0.0
H1281 H 0.03332 0.8254 0.69098 0.0
H1282 H 0.00697 0.82385 0.62789 0.0
H1283 H 0.04205 0.82135 0.56661 0.0
H1284 H 0.24731 0.8177 0.54141 0.0
H1285 H 0.27447 0.81997 0.60454 0.0
C1286 C 0.18862 0.82312 0.65796 0.0
C1287 C 0.13824 0.82427 0.68315 0.0
C1288 C 0.17381 0.82197 0.62182 0.0
C1289 C 0.07286 0.8245 0.67195 0.0
C1290 C 0.05777 0.82362 0.63597 0.0
C1291 C 0.09285 0.82115 0.57481 0.0
C1292 C 0.14268 0.81948 0.54949 0.0
C1293 C 0.10786 0.82229 0.61081 0.0
C1294 C 0.20814 0.81898 0.56054 0.0
C1295 C 0.22365 0.82031 0.59652 0.0
H1296 H 0.01773 0.42702 0.67344 0.0
H1297 H 0.21723 0.41499 0.69661 0.0
H1298 H 0.24374 0.41569 0.63324 0.0
H1299 H 0.21225 0.42163 0.57279 0.0
H1300 H 0.01478 0.43558 0.5496 0.0
H1301 H 0.98517 0.43225 0.61204 0.0
C1302 C 0.06666 0.4243 0.66444 0.0
C1303 C 0.11559 0.42092 0.68923 0.0
C1304 C 0.08192 0.42526 0.62835 0.0
C1305 C 0.17909 0.41765 0.67769 0.0
C1306 C 0.19418 0.41808 0.64164 0.0
C1307 C 0.16249 0.42385 0.58119 0.0
C1308 C 0.11583 0.42891 0.55667 0.0
C1309 C 0.1463 0.4222 0.61693 0.0
C1310 C 0.0517 0.43176 0.56808 0.0
C1311 C 0.03472 0.42984 0.60368 0.0
H1312 H 0.82104 0.18508 0.29562 0.0
H1313 H 0.03117 0.18341 0.30432 0.0
H1314 H 0.02172 0.18162 0.36925 0.0
H1315 H 0.95331 0.18046 0.4228 0.0
H1316 H 0.74316 0.18117 0.41315 0.0
H1317 H 0.7531 0.18345 0.34855 0.0
C1318 C 0.86497 0.1844 0.31165 0.0
C1319 C 0.92684 0.18449 0.29537 0.0
C1320 C 0.85901 0.1832 0.3485 0.0
C1321 C 0.98313 0.18338 0.3164 0.0
C1322 C 0.97767 0.18237 0.35339 0.0
C1323 C 0.90964 0.18118 0.40657 0.0
C1324 C 0.8475 0.18074 0.42256 0.0
C1325 C 0.91581 0.18228 0.36962 0.0
C1326 C 0.79139 0.18149 0.40131 0.0
C1327 C 0.7971 0.18281 0.3645 0.0
H1328 H 0.80554 0.57088 0.41967 0.0
H1329 H 0.01609 0.57252 0.41495 0.0
H1330 H 0.01174 0.56924 0.35018 0.0
H1331 H 0.94737 0.56598 0.29544 0.0
H1332 H 0.73672 0.56505 0.30122 0.0
H1333 H 0.74191 0.56789 0.36573 0.0
C1334 C 0.85069 0.5705 0.40458 0.0
C1335 C 0.91114 0.57189 0.42197 0.0
C1336 C 0.84766 0.5687 0.36778 0.0
C1337 C 0.96903 0.57151 0.40203 0.0
C1338 C 0.96649 0.56959 0.36513 0.0
C1339 C 0.90262 0.56631 0.31086 0.0
C1340 C 0.84168 0.56525 0.29374 0.0
C1341 C 0.906 0.56815 0.3478 0.0
C1342 C 0.7841 0.56584 0.31389 0.0
C1343 C 0.78706 0.56748 0.35068 0.0
H1344 H 0.53514 0.33193 0.5729 0.0
H1345 H 0.73461 0.32179 0.54434 0.0
H1346 H 0.76791 0.32485 0.60632 0.0
H1347 H 0.73742 0.3272 0.66901 0.0
H1348 H 0.53589 0.3347 0.69756 0.0
H1349 H 0.50618 0.33613 0.63474 0.0
C1350 C 0.58615 0.33063 0.58005 0.0
C1351 C 0.63228 0.32649 0.55426 0.0
C1352 C 0.60434 0.33187 0.61565 0.0
C1353 C 0.69811 0.32481 0.56392 0.0
C1354 C 0.71714 0.32656 0.59927 0.0
C1355 C 0.68731 0.3295 0.66141 0.0
C1356 C 0.63873 0.33078 0.68754 0.0
C1357 C 0.67026 0.32963 0.62545 0.0
C1358 C 0.57383 0.33358 0.67763 0.0
C1359 C 0.55689 0.33436 0.64185 0.0
H1360 H 0.72794 0.92961 0.56548 0.0
H1361 H 0.52379 0.9298 0.53659 0.0
H1362 H 0.49348 0.92543 0.5985 0.0
H1363 H 0.52479 0.92308 0.66056 0.0
H1364 H 0.72821 0.92485 0.69048 0.0
H1365 H 0.75946 0.92675 0.62783 0.0
C1366 C 0.67685 0.92854 0.57272 0.0
C1367 C 0.62806 0.93003 0.54677 0.0
C1368 C 0.65987 0.92639 0.60827 0.0
C1369 C 0.56205 0.92881 0.55635 0.0
C1370 C 0.54476 0.92626 0.5916 0.0
C1371 C 0.57606 0.92364 0.65336 0.0
C1372 C 0.62427 0.92377 0.67984 0.0
C1373 C 0.59326 0.92523 0.61774 0.0
C1374 C 0.6904 0.92475 0.67034 0.0
C1375 C 0.70818 0.92586 0.63466 0.0
H1376 H 0.44573 0.67809 0.42541 0.0
H1377 H 0.23515 0.6807 0.42245 0.0
H1378 H 0.23881 0.68324 0.35763 0.0
H1379 H 0.30195 0.6851 0.30278 0.0
H1380 H 0.51244 0.68209 0.30561 0.0
H1381 H 0.50874 0.67936 0.3704 0.0
C1382 C 0.4005 0.67921 0.41063 0.0
C1383 C 0.34015 0.67929 0.42853 0.0
C1384 C 0.40311 0.68064 0.37372 0.0
C1385 C 0.28205 0.6806 0.40911 0.0
C1386 C 0.2842 0.68209 0.37219 0.0
C1387 C 0.34717 0.6839 0.31753 0.0
C1388 C 0.40754 0.6839 0.29964 0.0
C1389 C 0.3445 0.68222 0.35437 0.0
C1390 C 0.46554 0.68215 0.31896 0.0
C1391 C 0.46337 0.68059 0.35586 0.0
H1392 H 0.28745 0.0704 0.42373 0.0
H1393 H 0.49782 0.07113 0.41551 0.0
H1394 H 0.49001 0.06775 0.35115 0.0
H1395 H 0.42397 0.06491 0.29797 0.0
H1396 H 0.21348 0.06534 0.30485 0.0
H1397 H 0.22072 0.0679 0.36974 0.0
C1398 C 0.3316 0.06978 0.40784 0.0
C1399 C 0.39321 0.07097 0.42417 0.0
C1400 C 0.32664 0.06803 0.37097 0.0
C1401 C 0.44998 0.07029 0.40339 0.0
C1402 C 0.4455 0.06832 0.36672 0.0
C1403 C 0.37947 0.06545 0.3136 0.0
C1404 C 0.31818 0.06483 0.29682 0.0
C1405 C 0.38414 0.0672 0.35035 0.0
C1406 C 0.26112 0.06576 0.31732 0.0
C1407 C 0.26532 0.06723 0.35428 0.0
H1408 H 0.53086 0.82436 0.07397 0.0
H1409 H 0.73626 0.82305 0.04787 0.0
H1410 H 0.76386 0.82554 0.11088 0.0
H1411 H 0.72915 0.82701 0.17292 0.0
H1412 H 0.52356 0.82681 0.19883 0.0
H1413 H 0.49624 0.82612 0.13566 0.0
C1414 C 0.58173 0.82477 0.08198 0.0
C1415 C 0.63155 0.82358 0.05649 0.0
C1416 C 0.59701 0.82592 0.11796 0.0
C1417 C 0.69717 0.82389 0.0672 0.0
C1418 C 0.71291 0.82534 0.10309 0.0
C1419 C 0.67835 0.82702 0.16473 0.0
C1420 C 0.62836 0.82703 0.1903 0.0
C1421 C 0.66314 0.82624 0.12863 0.0
C1422 C 0.56278 0.8268 0.17948 0.0
C1423 C 0.54718 0.82639 0.14348 0.0
H1424 H 0.72725 0.42591 0.07252 0.0
H1425 H 0.52297 0.42849 0.04443 0.0
H1426 H 0.49278 0.42595 0.10695 0.0
H1427 H 0.52481 0.42438 0.16936 0.0
H1428 H 0.72928 0.42338 0.19748 0.0
H1429 H 0.75918 0.42381 0.13465 0.0
C1430 C 0.67607 0.42576 0.07999 0.0
C1431 C 0.62739 0.42737 0.05402 0.0
C1432 C 0.65921 0.42461 0.11581 0.0
C1433 C 0.56132 0.42732 0.06407 0.0
C1434 C 0.54403 0.42586 0.09972 0.0
C1435 C 0.57589 0.42405 0.16172 0.0
C1436 C 0.62482 0.42382 0.18782 0.0
C1437 C 0.59265 0.42468 0.12578 0.0
C1438 C 0.69083 0.4236 0.1777 0.0
C1439 C 0.70792 0.42385 0.14188 0.0
H1440 H 0.29547 0.18991 0.81071 0.0
H1441 H 0.50551 0.18557 0.80746 0.0
H1442 H 0.50808 0.18302 0.87217 0.0
H1443 H 0.45064 0.18128 0.92862 0.0
H1444 H 0.2404 0.18492 0.93226 0.0
H1445 H 0.23778 0.18837 0.86763 0.0
C1446 C 0.34193 0.18854 0.82416 0.0
C1447 C 0.40033 0.18796 0.8045 0.0
C1448 C 0.34282 0.1868 0.86108 0.0
C1449 C 0.46003 0.18606 0.82215 0.0
C1450 C 0.46146 0.18456 0.85903 0.0
C1451 C 0.40408 0.18282 0.91537 0.0
C1452 C 0.34568 0.18282 0.93505 0.0
C1453 C 0.4031 0.18476 0.87859 0.0
C1454 C 0.28588 0.18481 0.91754 0.0
C1455 C 0.28445 0.18683 0.88072 0.0
H1456 H 0.27437 0.5729 0.91995 0.0
H1457 H 0.4832 0.57968 0.91748 0.0
H1458 H 0.48308 0.57662 0.85302 0.0
H1459 H 0.42522 0.57069 0.79854 0.0
H1460 H 0.21654 0.56404 0.79965 0.0
H1461 H 0.21491 0.56836 0.86416 0.0
C1462 C 0.31978 0.57383 0.90526 0.0
C1463 C 0.37886 0.57639 0.92336 0.0
C1464 C 0.31939 0.57194 0.86833 0.0
C1465 C 0.43722 0.57769 0.90408 0.0
C1466 C 0.43721 0.57588 0.86732 0.0
C1467 C 0.37926 0.57012 0.81286 0.0
C1468 C 0.32116 0.5668 0.79471 0.0
C1469 C 0.37884 0.57273 0.84939 0.0
C1470 C 0.26185 0.56646 0.81332 0.0
C1471 C 0.261 0.56894 0.85005 0.0
loop_
_geom_bond_atom_site_label_1
_geom_bond_atom_site_label_2
_geom_bond_distance
_geom_bond_site_symmetry_2
_ccdc_geom_bond_type
Co0 O1 2.216 . S
Co0 O2 2.091 . S
Co0 O4 2.004 . S
Co0 O10 2.021 . S
Co0 O12 2.137 . S
Co0 O13 2.244 . S
O1 Co0 2.216 . S
O1 C8 1.247 . S
O2 Co0 2.091 . S
O2 C8 1.261 . S
C3 O12 1.247 . S
C3 O13 1.272 . S
O4 Co0 2.004 . S
O4 C9 1.259 . S
Co5 O6 2.061 . S
Co5 O11 2.052 . S
Co5 O13 2.135 . S
O6 Co5 2.061 . S
O6 C9 1.235 . S
C7 O10 1.238 . S
C7 O11 1.241 . S
C8 O1 1.247 . S
C8 O2 1.261 . S
C9 O4 1.259 . S
C9 O6 1.235 . S
O10 Co0 2.021 . S
O10 C7 1.238 . S
O11 Co5 2.052 . S
O11 C7 1.241 . S
O12 Co0 2.137 . S
O12 C3 1.247 . S
O13 Co0 2.244 . S
O13 C3 1.272 . S
O13 Co5 2.135 . S
Co14 O15 2.216 . S
Co14 O16 2.091 . S
Co14 O18 2.004 . S
Co14 O24 2.021 . S
Co14 O26 2.137 . S
Co14 O27 2.244 . S
O15 Co14 2.216 . S
O15 C22 1.247 . S
O16 Co14 2.091 . S
O16 C22 1.261 . S
C17 O26 1.247 . S
C17 O27 1.272 . S
O18 Co14 2.004 . S
O18 C23 1.259 . S
Co19 O20 2.061 . S
Co19 O25 2.052 . S
Co19 O27 2.135 . S
O20 Co19 2.061 . S
O20 C23 1.235 . S
C21 O24 1.238 . S
C21 O25 1.241 . S
C22 O15 1.247 . S
C22 O16 1.261 . S
C23 O18 1.259 . S
C23 O20 1.235 . S
O24 Co14 2.021 . S
O24 C21 1.238 . S
O25 Co19 2.052 . S
O25 C21 1.241 . S
O26 Co14 2.137 . S
O26 C17 1.247 . S
O27 Co14 2.244 . S
O27 C17 1.272 . S
O27 Co19 2.135 . S
Co28 O29 2.216 . S
Co28 O30 2.091 . S
Co28 O32 2.004 . S
Co28 O38 2.021 1_556 S
Co28 O40 2.137 . S
Co28 O41 2.244 . S
O29 Co28 2.216 . S
O29 C36 1.247 . S
O30 Co28 2.091 . S
O30 C36 1.261 . S
C31 O40 1.247 . S
C31 O41 1.272 . S
O32 Co28 2.004 . S
O32 C37 1.259 . S
Co33 O34 2.061 . S
Co33 O39 2.052 1_556 S
Co33 O41 2.135 . S
O34 Co33 2.061 . S
O34 C37 1.235 . S
C35 O38 1.238 . S
C35 O39 1.241 . S
C36 O29 1.247 . S
C36 O30 1.261 . S
C37 O32 1.259 . S
C37 O34 1.235 . S
O38 Co28 2.021 1_554 S
O38 C35 1.238 . S
O39 Co33 2.052 1_554 S
O39 C35 1.241 . S
O40 Co28 2.137 . S
O40 C31 1.247 . S
O41 Co28 2.244 . S
O41 C31 1.272 . S
O41 Co33 2.135 . S
Co42 O43 2.216 . S
Co42 O44 2.091 . S
Co42 O46 2.004 . S
Co42 O52 2.021 1_556 S
Co42 O54 2.137 . S
Co42 O55 2.244 . S
O43 Co42 2.216 . S
O43 C50 1.247 . S
O44 Co42 2.091 . S
O44 C50 1.261 . S
C45 O54 1.247 . S
C45 O55 1.272 . S
O46 Co42 2.004 . S
O46 C51 1.259 . S
Co47 O48 2.061 . S
Co47 O53 2.052 1_556 S
Co47 O55 2.135 . S
O48 Co47 2.061 . S
O48 C51 1.235 . S
C49 O52 1.238 . S
C49 O53 1.241 . S
C50 O43 1.247 . S
C50 O44 1.261 . S
C51 O46 1.259 . S
C51 O48 1.235 . S
O52 Co42 2.021 1_554 S
O52 C49 1.238 . S
O53 Co47 2.052 1_554 S
O53 C49 1.241 . S
O54 Co42 2.137 . S
O54 C45 1.247 . S
O55 Co42 2.244 . S
O55 C45 1.272 . S
O55 Co47 2.135 . S
Co56 O57 2.216 . S
Co56 O58 2.091 . S
Co56 O60 2.004 . S
Co56 O66 2.021 . S
Co56 O68 2.137 . S
Co56 O69 2.244 . S
O57 Co56 2.216 . S
O57 C64 1.247 . S
O58 Co56 2.091 . S
O58 C64 1.261 . S
C59 O68 1.247 . S
C59 O69 1.272 . S
O60 Co56 2.004 . S
O60 C65 1.259 . S
Co61 O62 2.061 . S
Co61 O67 2.052 . S
Co61 O69 2.135 . S
O62 Co61 2.061 . S
O62 C65 1.235 . S
C63 O66 1.238 . S
C63 O67 1.241 . S
C64 O57 1.247 . S
C64 O58 1.261 . S
C65 O60 1.259 . S
C65 O62 1.235 . S
O66 Co56 2.021 . S
O66 C63 1.238 . S
O67 Co61 2.052 . S
O67 C63 1.241 . S
O68 Co56 2.137 . S
O68 C59 1.247 . S
O69 Co56 2.244 . S
O69 C59 1.272 . S
O69 Co61 2.135 . S
Co70 O71 2.216 . S
Co70 O72 2.091 . S
Co70 O74 2.004 . S
Co70 O80 2.021 . S
Co70 O82 2.137 . S
Co70 O83 2.244 . S
O71 Co70 2.216 . S
O71 C78 1.247 . S
O72 Co70 2.091 . S
O72 C78 1.261 . S
C73 O82 1.247 . S
C73 O83 1.272 . S
O74 Co70 2.004 . S
O74 C79 1.259 . S
Co75 O76 2.061 . S
Co75 O81 2.052 . S
Co75 O83 2.135 . S
O76 Co75 2.061 . S
O76 C79 1.235 . S
C77 O80 1.238 . S
C77 O81 1.241 . S
C78 O71 1.247 . S
C78 O72 1.261 . S
C79 O74 1.259 . S
C79 O76 1.235 . S
O80 Co70 2.021 . S
O80 C77 1.238 . S
O81 Co75 2.052 . S
O81 C77 1.241 . S
O82 Co70 2.137 . S
O82 C73 1.247 . S
O83 Co70 2.244 . S
O83 C73 1.272 . S
O83 Co75 2.135 . S
Co84 O85 2.216 1_554 S
Co84 O86 2.091 1_554 S
Co84 O88 2.004 . S
Co84 O94 2.021 . S
Co84 O96 2.137 . S
Co84 O97 2.244 . S
O85 Co84 2.216 1_556 S
O85 C92 1.247 . S
O86 Co84 2.091 1_556 S
O86 C92 1.261 . S
C87 O96 1.247 . S
C87 O97 1.272 . S
O88 Co84 2.004 . S
O88 C93 1.259 . S
Co89 O90 2.061 . S
Co89 O95 2.052 . S
Co89 O97 2.135 . S
O90 Co89 2.061 . S
O90 C93 1.235 . S
C91 O94 1.238 . S
C91 O95 1.241 . S
C92 O85 1.247 . S
C92 O86 1.261 . S
C93 O88 1.259 . S
C93 O90 1.235 . S
O94 Co84 2.021 . S
O94 C91 1.238 . S
O95 Co89 2.052 . S
O95 C91 1.241 . S
O96 Co84 2.137 . S
O96 C87 1.247 . S
O97 Co84 2.244 . S
O97 C87 1.272 . S
O97 Co89 2.135 . S
Co98 O99 2.216 1_554 S
Co98 O100 2.091 1_554 S
Co98 O102 2.004 . S
Co98 O108 2.021 . S
Co98 O110 2.137 . S
Co98 O111 2.244 . S
O99 Co98 2.216 1_556 S
O99 C106 1.247 . S
O100 Co98 2.091 1_556 S
O100 C106 1.261 . S
C101 O110 1.247 . S
C101 O111 1.272 . S
O102 Co98 2.004 . S
O102 C107 1.259 . S
Co103 O104 2.061 . S
Co103 O109 2.052 . S
Co103 O111 2.135 . S
O104 Co103 2.061 . S
O104 C107 1.235 . S
C105 O108 1.238 . S
C105 O109 1.241 . S
C106 O99 1.247 . S
C106 O100 1.261 . S
C107 O102 1.259 . S
C107 O104 1.235 . S
O108 Co98 2.021 . S
O108 C105 1.238 . S
O109 Co103 2.052 . S
O109 C105 1.241 . S
O110 Co98 2.137 . S
O110 C101 1.247 . S
O111 Co98 2.244 . S
O111 C101 1.272 . S
O111 Co103 2.135 . S
Co112 O113 2.216 . S
Co112 O114 2.091 . S
Co112 O116 2.004 . S
Co112 O122 2.021 . S
Co112 O124 2.137 . S
Co112 O125 2.244 . S
O113 Co112 2.216 . S
O113 C120 1.247 . S
O114 Co112 2.091 . S
O114 C120 1.261 . S
C115 O124 1.247 . S
C115 O125 1.272 . S
O116 Co112 2.004 . S
O116 C121 1.259 . S
Co117 O118 2.061 . S
Co117 O123 2.052 . S
Co117 O125 2.135 . S
O118 Co117 2.061 . S
O118 C121 1.235 . S
C119 O122 1.238 . S
C119 O123 1.241 . S
C120 O113 1.247 . S
C120 O114 1.261 . S
C121 O116 1.259 . S
C121 O118 1.235 . S
O122 Co112 2.021 . S
O122 C119 1.238 . S
O123 Co117 2.052 . S
O123 C119 1.241 . S
O124 Co112 2.137 . S
O124 C115 1.247 . S
O125 Co112 2.244 . S
O125 C115 1.272 . S
O125 Co117 2.135 . S
Co126 O127 2.216 . S
Co126 O128 2.091 . S
Co126 O130 2.004 . S
Co126 O136 2.021 . S
Co126 O138 2.137 . S
Co126 O139 2.244 . S
O127 Co126 2.216 . S
O127 C134 1.247 . S
O128 Co126 2.091 . S
O128 C134 1.261 . S
C129 O138 1.247 . S
C129 O139 1.272 . S
O130 Co126 2.004 . S
O130 C135 1.259 . S
Co131 O132 2.061 . S
Co131 O137 2.052 . S
Co131 O139 2.135 . S
O132 Co131 2.061 . S
O132 C135 1.235 . S
C133 O136 1.238 . S
C133 O137 1.241 . S
C134 O127 1.247 . S
C134 O128 1.261 . S
C135 O130 1.259 . S
C135 O132 1.235 . S
O136 Co126 2.021 . S
O136 C133 1.238 . S
O137 Co131 2.052 . S
O137 C133 1.241 . S
O138 Co126 2.137 . S
O138 C129 1.247 . S
O139 Co126 2.244 . S
O139 C129 1.272 . S
O139 Co131 2.135 . S
Co140 O141 2.216 . S
Co140 O142 2.091 . S
Co140 O144 2.004 . S
Co140 O150 2.021 . S
Co140 O152 2.137 . S
Co140 O153 2.244 . S
O141 Co140 2.216 . S
O141 C148 1.247 . S
O142 Co140 2.091 . S
O142 C148 1.261 . S
C143 O152 1.247 . S
C143 O153 1.272 . S
O144 Co140 2.004 . S
O144 C149 1.259 . S
Co145 O146 2.061 . S
Co145 O151 2.052 . S
Co145 O153 2.135 . S
O146 Co145 2.061 . S
O146 C149 1.235 . S
C147 O150 1.238 . S
C147 O151 1.241 . S
C148 O141 1.247 . S
C148 O142 1.261 . S
C149 O144 1.259 . S
C149 O146 1.235 . S
O150 Co140 2.021 . S
O150 C147 1.238 . S
O151 Co145 2.052 . S
O151 C147 1.241 . S
O152 Co140 2.137 . S
O152 C143 1.247 . S
O153 Co140 2.244 . S
O153 C143 1.272 . S
O153 Co145 2.135 . S
Co154 O155 2.216 . S
Co154 O156 2.091 . S
Co154 O158 2.004 . S
Co154 O164 2.021 . S
Co154 O166 2.137 . S
Co154 O167 2.244 . S
O155 Co154 2.216 . S
O155 C162 1.247 . S
O156 Co154 2.091 . S
O156 C162 1.261 . S
C157 O166 1.247 . S
C157 O167 1.272 . S
O158 Co154 2.004 . S
O158 C163 1.259 . S
Co159 O160 2.061 . S
Co159 O165 2.052 . S
Co159 O167 2.135 . S
O160 Co159 2.061 . S
O160 C163 1.235 . S
C161 O164 1.238 . S
C161 O165 1.241 . S
C162 O155 1.247 . S
C162 O156 1.261 . S
C163 O158 1.259 . S
C163 O160 1.235 . S
O164 Co154 2.021 . S
O164 C161 1.238 . S
O165 Co159 2.052 . S
O165 C161 1.241 . S
O166 Co154 2.137 . S
O166 C157 1.247 . S
O167 Co154 2.244 . S
O167 C157 1.272 . S
O167 Co159 2.135 . S
Co168 O169 2.216 . S
Co168 O170 2.091 . S
Co168 O172 2.004 . S
Co168 O178 2.021 . S
Co168 O180 2.137 . S
Co168 O181 2.244 . S
O169 Co168 2.216 . S
O169 C176 1.247 . S
O170 Co168 2.091 . S
O170 C176 1.261 . S
C171 O180 1.247 . S
C171 O181 1.272 . S
O172 Co168 2.004 . S
O172 C177 1.259 . S
Co173 O174 2.061 . S
Co173 O179 2.052 . S
Co173 O181 2.135 . S
O174 Co173 2.061 . S
O174 C177 1.235 . S
C175 O178 1.238 . S
C175 O179 1.241 . S
C176 O169 1.247 . S
C176 O170 1.261 . S
C177 O172 1.259 . S
C177 O174 1.235 . S
O178 Co168 2.021 . S
O178 C175 1.238 . S
O179 Co173 2.052 . S
O179 C175 1.241 . S
O180 Co168 2.137 . S
O180 C171 1.247 . S
O181 Co168 2.244 . S
O181 C171 1.272 . S
O181 Co173 2.135 . S
Co182 O183 2.216 . S
Co182 O184 2.091 . S
Co182 O186 2.004 . S
Co182 O192 2.021 . S
Co182 O194 2.137 . S
Co182 O195 2.244 . S
O183 Co182 2.216 . S
O183 C190 1.247 . S
O184 Co182 2.091 . S
O184 C190 1.261 . S
C185 O194 1.247 . S
C185 O195 1.272 . S
O186 Co182 2.004 . S
O186 C191 1.259 . S
Co187 O188 2.061 . S
Co187 O193 2.052 . S
Co187 O195 2.135 . S
O188 Co187 2.061 . S
O188 C191 1.235 . S
C189 O192 1.238 . S
C189 O193 1.241 . S
C190 O183 1.247 . S
C190 O184 1.261 . S
C191 O186 1.259 . S
C191 O188 1.235 . S
O192 Co182 2.021 . S
O192 C189 1.238 . S
O193 Co187 2.052 . S
O193 C189 1.241 . S
O194 Co182 2.137 . S
O194 C185 1.247 . S
O195 Co182 2.244 . S
O195 C185 1.272 . S
O195 Co187 2.135 . S
Co196 O197 2.216 . S
Co196 O198 2.091 . S
Co196 O200 2.004 . S
Co196 O206 2.021 . S
Co196 O208 2.137 . S
Co196 O209 2.244 . S
O197 Co196 2.216 . S
O197 C204 1.247 . S
O198 Co196 2.091 . S
O198 C204 1.261 . S
C199 O208 1.247 . S
C199 O209 1.272 . S
O200 Co196 2.004 . S
O200 C205 1.259 . S
Co201 O202 2.061 . S
Co201 O207 2.052 . S
Co201 O209 2.135 . S
O202 Co201 2.061 . S
O202 C205 1.235 . S
C203 O206 1.238 . S
C203 O207 1.241 . S
C204 O197 1.247 . S
C204 O198 1.261 . S
C205 O200 1.259 . S
C205 O202 1.235 . S
O206 Co196 2.021 . S
O206 C203 1.238 . S
O207 Co201 2.052 . S
O207 C203 1.241 . S
O208 Co196 2.137 . S
O208 C199 1.247 . S
O209 Co196 2.244 . S
O209 C199 1.272 . S
O209 Co201 2.135 . S
Co210 O211 2.216 . S
Co210 O212 2.091 . S
Co210 O214 2.004 . S
Co210 O220 2.021 . S
Co210 O222 2.137 . S
Co210 O223 2.244 . S
O211 Co210 2.216 . S
O211 C218 1.247 . S
O212 Co210 2.091 . S
O212 C218 1.261 . S
C213 O222 1.247 . S
C213 O223 1.272 . S
O214 Co210 2.004 . S
O214 C219 1.259 . S
Co215 O216 2.061 . S
Co215 O221 2.052 . S
Co215 O223 2.135 . S
O216 Co215 2.061 . S
O216 C219 1.235 . S
C217 O220 1.238 . S
C217 O221 1.241 . S
C218 O211 1.247 . S
C218 O212 1.261 . S
C219 O214 1.259 . S
C219 O216 1.235 . S
O220 Co210 2.021 . S
O220 C217 1.238 . S
O221 Co215 2.052 . S
O221 C217 1.241 . S
O222 Co210 2.137 . S
O222 C213 1.247 . S
O223 Co210 2.244 . S
O223 C213 1.272 . S
O223 Co215 2.135 . S
Co224 O225 2.216 . S
Co224 O226 2.091 . S
Co224 O228 2.004 . S
Co224 O234 2.021 . S
Co224 O236 2.137 . S
Co224 O237 2.244 . S
O225 Co224 2.216 . S
O225 C232 1.247 . S
O226 Co224 2.091 . S
O226 C232 1.261 . S
C227 O236 1.247 . S
C227 O237 1.272 . S
O228 Co224 2.004 . S
O228 C233 1.259 . S
Co229 O230 2.061 . S
Co229 O235 2.052 . S
Co229 O237 2.135 . S
O230 Co229 2.061 . S
O230 C233 1.235 . S
C231 O234 1.238 . S
C231 O235 1.241 . S
C232 O225 1.247 . S
C232 O226 1.261 . S
C233 O228 1.259 . S
C233 O230 1.235 . S
O234 Co224 2.021 . S
O234 C231 1.238 . S
O235 Co229 2.052 . S
O235 C231 1.241 . S
O236 Co224 2.137 . S
O236 C227 1.247 . S
O237 Co224 2.244 . S
O237 C227 1.272 . S
O237 Co229 2.135 . S
Co238 O239 2.216 . S
Co238 O240 2.091 . S
Co238 O242 2.004 . S
Co238 O248 2.021 . S
Co238 O250 2.137 . S
Co238 O251 2.244 . S
O239 Co238 2.216 . S
O239 C246 1.247 . S
O240 Co238 2.091 . S
O240 C246 1.261 . S
C241 O250 1.247 . S
C241 O251 1.272 . S
O242 Co238 2.004 . S
O242 C247 1.259 . S
Co243 O244 2.061 . S
Co243 O249 2.052 . S
Co243 O251 2.135 . S
O244 Co243 2.061 . S
O244 C247 1.235 . S
C245 O248 1.238 . S
C245 O249 1.241 . S
C246 O239 1.247 . S
C246 O240 1.261 . S
C247 O242 1.259 . S
C247 O244 1.235 . S
O248 Co238 2.021 . S
O248 C245 1.238 . S
O249 Co243 2.052 . S
O249 C245 1.241 . S
O250 Co238 2.137 . S
O250 C241 1.247 . S
O251 Co238 2.244 . S
O251 C241 1.272 . S
O251 Co243 2.135 . S
Co252 O253 2.216 . S
Co252 O254 2.091 . S
Co252 O256 2.004 . S
Co252 O262 2.021 . S
Co252 O264 2.137 . S
Co252 O265 2.244 . S
O253 Co252 2.216 . S
O253 C260 1.247 . S
O254 Co252 2.091 . S
O254 C260 1.261 . S
C255 O264 1.247 . S
C255 O265 1.272 . S
O256 Co252 2.004 . S
O256 C261 1.259 . S
Co257 O258 2.061 . S
Co257 O263 2.052 . S
Co257 O265 2.135 . S
O258 Co257 2.061 . S
O258 C261 1.235 . S
C259 O262 1.238 . S
C259 O263 1.241 . S
C260 O253 1.247 . S
C260 O254 1.261 . S
C261 O256 1.259 . S
C261 O258 1.235 . S
O262 Co252 2.021 . S
O262 C259 1.238 . S
O263 Co257 2.052 . S
O263 C259 1.241 . S
O264 Co252 2.137 . S
O264 C255 1.247 . S
O265 Co252 2.244 . S
O265 C255 1.272 . S
O265 Co257 2.135 . S
Co266 O267 2.216 . S
Co266 O268 2.091 . S
Co266 O270 2.004 . S
Co266 O276 2.021 . S
Co266 O278 2.137 . S
Co266 O279 2.244 . S
O267 Co266 2.216 . S
O267 C274 1.247 . S
O268 Co266 2.091 . S
O268 C274 1.261 . S
C269 O278 1.247 . S
C269 O279 1.272 . S
O270 Co266 2.004 . S
O270 C275 1.259 . S
Co271 O272 2.061 . S
Co271 O277 2.052 . S
Co271 O279 2.135 . S
O272 Co271 2.061 . S
O272 C275 1.235 . S
C273 O276 1.238 . S
C273 O277 1.241 . S
C274 O267 1.247 . S
C274 O268 1.261 . S
C275 O270 1.259 . S
C275 O272 1.235 . S
O276 Co266 2.021 . S
O276 C273 1.238 . S
O277 Co271 2.052 . S
O277 C273 1.241 . S
O278 Co266 2.137 . S
O278 C269 1.247 . S
O279 Co266 2.244 . S
O279 C269 1.272 . S
O279 Co271 2.135 . S
Co280 O281 2.216 . S
Co280 O282 2.091 . S
Co280 O284 2.004 . S
Co280 O290 2.021 . S
Co280 O292 2.137 . S
Co280 O293 2.244 . S
O281 Co280 2.216 . S
O281 C288 1.247 . S
O282 Co280 2.091 . S
O282 C288 1.261 . S
C283 O292 1.247 . S
C283 O293 1.272 . S
O284 Co280 2.004 . S
O284 C289 1.259 . S
Co285 O286 2.061 . S
Co285 O291 2.052 . S
Co285 O293 2.135 . S
O286 Co285 2.061 . S
O286 C289 1.235 . S
C287 O290 1.238 . S
C287 O291 1.241 . S
C288 O281 1.247 . S
C288 O282 1.261 . S
C289 O284 1.259 . S
C289 O286 1.235 . S
O290 Co280 2.021 . S
O290 C287 1.238 . S
O291 Co285 2.052 . S
O291 C287 1.241 . S
O292 Co280 2.137 . S
O292 C283 1.247 . S
O293 Co280 2.244 . S
O293 C283 1.272 . S
O293 Co285 2.135 . S
Co294 O295 2.216 . S
Co294 O296 2.091 . S
Co294 O298 2.004 . S
Co294 O304 2.021 . S
Co294 O306 2.137 . S
Co294 O307 2.244 . S
O295 Co294 2.216 . S
O295 C302 1.247 . S
O296 Co294 2.091 . S
O296 C302 1.261 . S
C297 O306 1.247 . S
C297 O307 1.272 . S
O298 Co294 2.004 . S
O298 C303 1.259 . S
Co299 O300 2.061 . S
Co299 O305 2.052 . S
Co299 O307 2.135 . S
O300 Co299 2.061 . S
O300 C303 1.235 . S
C301 O304 1.238 . S
C301 O305 1.241 . S
C302 O295 1.247 . S
C302 O296 1.261 . S
C303 O298 1.259 . S
C303 O300 1.235 . S
O304 Co294 2.021 . S
O304 C301 1.238 . S
O305 Co299 2.052 . S
O305 C301 1.241 . S
O306 Co294 2.137 . S
O306 C297 1.247 . S
O307 Co294 2.244 . S
O307 C297 1.272 . S
O307 Co299 2.135 . S
Co308 O309 2.216 . S
Co308 O310 2.091 . S
Co308 O312 2.004 . S
Co308 O318 2.021 . S
Co308 O320 2.137 . S
Co308 O321 2.244 . S
O309 Co308 2.216 . S
O309 C316 1.247 . S
O310 Co308 2.091 . S
O310 C316 1.261 . S
C311 O320 1.247 . S
C311 O321 1.272 . S
O312 Co308 2.004 . S
O312 C317 1.259 . S
Co313 O314 2.061 . S
Co313 O319 2.052 . S
Co313 O321 2.135 . S
O314 Co313 2.061 . S
O314 C317 1.235 . S
C315 O318 1.238 . S
C315 O319 1.241 . S
C316 O309 1.247 . S
C316 O310 1.261 . S
C317 O312 1.259 . S
C317 O314 1.235 . S
O318 Co308 2.021 . S
O318 C315 1.238 . S
O319 Co313 2.052 . S
O319 C315 1.241 . S
O320 Co308 2.137 . S
O320 C311 1.247 . S
O321 Co308 2.244 . S
O321 C311 1.272 . S
O321 Co313 2.135 . S
Co322 O323 2.216 . S
Co322 O324 2.091 . S
Co322 O326 2.004 . S
Co322 O332 2.021 . S
Co322 O334 2.137 . S
Co322 O335 2.244 . S
O323 Co322 2.216 . S
O323 C330 1.247 . S
O324 Co322 2.091 . S
O324 C330 1.261 . S
C325 O334 1.247 . S
C325 O335 1.272 . S
O326 Co322 2.004 . S
O326 C331 1.259 . S
Co327 O328 2.061 . S
Co327 O333 2.052 . S
Co327 O335 2.135 . S
O328 Co327 2.061 . S
O328 C331 1.235 . S
C329 O332 1.238 . S
C329 O333 1.241 . S
C330 O323 1.247 . S
C330 O324 1.261 . S
C331 O326 1.259 . S
C331 O328 1.235 . S
O332 Co322 2.021 . S
O332 C329 1.238 . S
O333 Co327 2.052 . S
O333 C329 1.241 . S
O334 Co322 2.137 . S
O334 C325 1.247 . S
O335 Co322 2.244 . S
O335 C325 1.272 . S
O335 Co327 2.135 . S
Co336 O337 2.216 . S
Co336 O338 2.091 . S
Co336 O340 2.004 . S
Co336 O346 2.021 . S
Co336 O348 2.137 . S
Co336 O349 2.244 . S
O337 Co336 2.216 . S
O337 C344 1.247 . S
O338 Co336 2.091 . S
O338 C344 1.261 . S
C339 O348 1.247 . S
C339 O349 1.272 . S
O340 Co336 2.004 . S
O340 C345 1.259 . S
Co341 O342 2.061 . S
Co341 O347 2.052 . S
Co341 O349 2.135 . S
O342 Co341 2.061 . S
O342 C345 1.235 . S
C343 O346 1.238 . S
C343 O347 1.241 . S
C344 O337 1.247 . S
C344 O338 1.261 . S
C345 O340 1.259 . S
C345 O342 1.235 . S
O346 Co336 2.021 . S
O346 C343 1.238 . S
O347 Co341 2.052 . S
O347 C343 1.241 . S
O348 Co336 2.137 . S
O348 C339 1.247 . S
O349 Co336 2.244 . S
O349 C339 1.272 . S
O349 Co341 2.135 . S
Co350 O351 2.216 . S
Co350 O352 2.091 . S
Co350 O354 2.004 . S
Co350 O360 2.021 . S
Co350 O362 2.137 . S
Co350 O363 2.244 . S
O351 Co350 2.216 . S
O351 C358 1.247 . S
O352 Co350 2.091 . S
O352 C358 1.261 . S
C353 O362 1.247 . S
C353 O363 1.272 . S
O354 Co350 2.004 . S
O354 C359 1.259 . S
Co355 O356 2.061 . S
Co355 O361 2.052 . S
Co355 O363 2.135 . S
O356 Co355 2.061 . S
O356 C359 1.235 . S
C357 O360 1.238 . S
C357 O361 1.241 . S
C358 O351 1.247 . S
C358 O352 1.261 . S
C359 O354 1.259 . S
C359 O356 1.235 . S
O360 Co350 2.021 . S
O360 C357 1.238 . S
O361 Co355 2.052 . S
O361 C357 1.241 . S
O362 Co350 2.137 . S
O362 C353 1.247 . S
O363 Co350 2.244 . S
O363 C353 1.272 . S
O363 Co355 2.135 . S
Co364 O365 2.216 . S
Co364 O366 2.091 . S
Co364 O368 2.004 . S
Co364 O374 2.021 1_556 S
Co364 O376 2.137 . S
Co364 O377 2.244 . S
O365 Co364 2.216 . S
O365 C372 1.247 . S
O366 Co364 2.091 . S
O366 C372 1.261 . S
C367 O376 1.247 . S
C367 O377 1.272 . S
O368 Co364 2.004 . S
O368 C373 1.259 . S
Co369 O370 2.061 . S
Co369 O375 2.052 1_556 S
Co369 O377 2.135 . S
O370 Co369 2.061 . S
O370 C373 1.235 . S
C371 O374 1.238 . S
C371 O375 1.241 . S
C372 O365 1.247 . S
C372 O366 1.261 . S
C373 O368 1.259 . S
C373 O370 1.235 . S
O374 Co364 2.021 1_554 S
O374 C371 1.238 . S
O375 Co369 2.052 1_554 S
O375 C371 1.241 . S
O376 Co364 2.137 . S
O376 C367 1.247 . S
O377 Co364 2.244 . S
O377 C367 1.272 . S
O377 Co369 2.135 . S
Co378 O379 2.216 . S
Co378 O380 2.091 . S
Co378 O382 2.004 . S
Co378 O388 2.021 1_556 S
Co378 O390 2.137 . S
Co378 O391 2.244 . S
O379 Co378 2.216 . S
O379 C386 1.247 . S
O380 Co378 2.091 . S
O380 C386 1.261 . S
C381 O390 1.247 . S
C381 O391 1.272 . S
O382 Co378 2.004 . S
O382 C387 1.259 . S
Co383 O384 2.061 . S
Co383 O389 2.052 1_556 S
Co383 O391 2.135 . S
O384 Co383 2.061 . S
O384 C387 1.235 . S
C385 O388 1.238 . S
C385 O389 1.241 . S
C386 O379 1.247 . S
C386 O380 1.261 . S
C387 O382 1.259 . S
C387 O384 1.235 . S
O388 Co378 2.021 1_554 S
O388 C385 1.238 . S
O389 Co383 2.052 1_554 S
O389 C385 1.241 . S
O390 Co378 2.137 . S
O390 C381 1.247 . S
O391 Co378 2.244 . S
O391 C381 1.272 . S
O391 Co383 2.135 . S
Co392 O393 2.216 . S
Co392 O394 2.091 . S
Co392 O396 2.004 . S
Co392 O402 2.021 . S
Co392 O404 2.137 . S
Co392 O405 2.244 . S
O393 Co392 2.216 . S
O393 C400 1.247 . S
O394 Co392 2.091 . S
O394 C400 1.261 . S
C395 O404 1.247 . S
C395 O405 1.272 . S
O396 Co392 2.004 . S
O396 C401 1.259 . S
Co397 O398 2.061 . S
Co397 O403 2.052 . S
Co397 O405 2.135 . S
O398 Co397 2.061 . S
O398 C401 1.235 . S
C399 O402 1.238 . S
C399 O403 1.241 . S
C400 O393 1.247 . S
C400 O394 1.261 . S
C401 O396 1.259 . S
C401 O398 1.235 . S
O402 Co392 2.021 . S
O402 C399 1.238 . S
O403 Co397 2.052 . S
O403 C399 1.241 . S
O404 Co392 2.137 . S
O404 C395 1.247 . S
O405 Co392 2.244 . S
O405 C395 1.272 . S
O405 Co397 2.135 . S
Co406 O407 2.216 . S
Co406 O408 2.091 . S
Co406 O410 2.004 . S
Co406 O416 2.021 . S
Co406 O418 2.137 . S
Co406 O419 2.244 . S
O407 Co406 2.216 . S
O407 C414 1.247 . S
O408 Co406 2.091 . S
O408 C414 1.261 . S
C409 O418 1.247 . S
C409 O419 1.272 . S
O410 Co406 2.004 . S
O410 C415 1.259 . S
Co411 O412 2.061 . S
Co411 O417 2.052 . S
Co411 O419 2.135 . S
O412 Co411 2.061 . S
O412 C415 1.235 . S
C413 O416 1.238 . S
C413 O417 1.241 . S
C414 O407 1.247 . S
C414 O408 1.261 . S
C415 O410 1.259 . S
C415 O412 1.235 . S
O416 Co406 2.021 . S
O416 C413 1.238 . S
O417 Co411 2.052 . S
O417 C413 1.241 . S
O418 Co406 2.137 . S
O418 C409 1.247 . S
O419 Co406 2.244 . S
O419 C409 1.272 . S
O419 Co411 2.135 . S
Co420 O421 2.216 1_554 S
Co420 O422 2.091 1_554 S
Co420 O424 2.004 . S
Co420 O430 2.021 . S
Co420 O432 2.137 . S
Co420 O433 2.244 . S
O421 Co420 2.216 1_556 S
O421 C428 1.247 . S
O422 Co420 2.091 1_556 S
O422 C428 1.261 . S
C423 O432 1.247 . S
C423 O433 1.272 . S
O424 Co420 2.004 . S
O424 C429 1.259 . S
Co425 O426 2.061 . S
Co425 O431 2.052 . S
Co425 O433 2.135 . S
O426 Co425 2.061 . S
O426 C429 1.235 . S
C427 O430 1.238 . S
C427 O431 1.241 . S
C428 O421 1.247 . S
C428 O422 1.261 . S
C429 O424 1.259 . S
C429 O426 1.235 . S
O430 Co420 2.021 . S
O430 C427 1.238 . S
O431 Co425 2.052 . S
O431 C427 1.241 . S
O432 Co420 2.137 . S
O432 C423 1.247 . S
O433 Co420 2.244 . S
O433 C423 1.272 . S
O433 Co425 2.135 . S
Co434 O435 2.216 1_554 S
Co434 O436 2.091 1_554 S
Co434 O438 2.004 . S
Co434 O444 2.021 . S
Co434 O446 2.137 . S
Co434 O447 2.244 . S
O435 Co434 2.216 1_556 S
O435 C442 1.247 . S
O436 Co434 2.091 1_556 S
O436 C442 1.261 . S
C437 O446 1.247 . S
C437 O447 1.272 . S
O438 Co434 2.004 . S
O438 C443 1.259 . S
Co439 O440 2.061 . S
Co439 O445 2.052 . S
Co439 O447 2.135 . S
O440 Co439 2.061 . S
O440 C443 1.235 . S
C441 O444 1.238 . S
C441 O445 1.241 . S
C442 O435 1.247 . S
C442 O436 1.261 . S
C443 O438 1.259 . S
C443 O440 1.235 . S
O444 Co434 2.021 . S
O444 C441 1.238 . S
O445 Co439 2.052 . S
O445 C441 1.241 . S
O446 Co434 2.137 . S
O446 C437 1.247 . S
O447 Co434 2.244 . S
O447 C437 1.272 . S
O447 Co439 2.135 . S
H448 C454 0.930 . S
H449 C457 0.930 1_655 S
H450 C458 0.930 1_655 S
H451 C459 0.937 . S
H452 C462 0.930 . S
H453 C463 0.930 . S
C454 H448 0.930 . S
C454 C455 1.355 . S
C454 C456 1.415 . S
C455 C454 1.355 . S
C455 C457 1.419 . S
C456 C454 1.415 . S
C456 C461 1.425 . S
C456 C463 1.409 . S
C457 H449 0.930 1_455 S
C457 C455 1.419 . S
C457 C458 1.362 . S
C458 H450 0.930 1_455 S
C458 C457 1.362 . S
C458 C461 1.409 . S
C459 H451 0.937 . S
C459 C460 1.355 . S
C459 C461 1.415 . S
C460 C459 1.355 . S
C460 C462 1.419 . S
C461 C456 1.425 . S
C461 C458 1.409 . S
C461 C459 1.415 . S
C462 H452 0.930 . S
C462 C460 1.419 . S
C462 C463 1.362 . S
C463 H453 0.930 . S
C463 C456 1.409 . S
C463 C462 1.362 . S
H464 C470 0.930 . S
H465 C473 0.930 . S
H466 C474 0.930 . S
H467 C475 0.930 . S
H468 C478 0.930 . S
H469 C479 0.930 . S
C470 H464 0.930 . S
C470 C471 1.355 . S
C470 C472 1.415 . S
C471 C470 1.355 . S
C471 C473 1.419 . S
C472 C470 1.415 . S
C472 C477 1.425 . S
C472 C479 1.409 . S
C473 H465 0.930 . S
C473 C471 1.419 . S
C473 C474 1.362 . S
C474 H466 0.930 . S
C474 C473 1.362 . S
C474 C477 1.409 . S
C475 H467 0.930 . S
C475 C476 1.355 . S
C475 C477 1.415 . S
C476 C475 1.355 . S
C476 C478 1.419 . S
C477 C472 1.425 . S
C477 C474 1.409 . S
C477 C475 1.415 . S
C478 H468 0.930 . S
C478 C476 1.419 . S
C478 C479 1.362 . S
C479 H469 0.930 . S
C479 C472 1.409 . S
C479 C478 1.362 . S
H480 C486 0.930 . S
H481 C489 0.930 . S
H482 C490 0.930 . S
H483 C491 0.930 1_655 S
H484 C494 0.930 . S
H485 C495 0.930 . S
C486 H480 0.930 . S
C486 C487 1.355 . S
C486 C488 1.415 . S
C487 C486 1.355 . S
C487 C489 1.419 1_455 S
C488 C486 1.415 . S
C488 C493 1.425 . S
C488 C495 1.409 . S
C489 H481 0.930 . S
C489 C487 1.419 1_655 S
C489 C490 1.362 . S
C490 H482 0.930 . S
C490 C489 1.362 . S
C490 C493 1.409 1_655 S
C491 H483 0.930 1_455 S
C491 C492 1.355 . S
C491 C493 1.415 . S
C492 C491 1.355 . S
C492 C494 1.419 . S
C493 C488 1.425 . S
C493 C490 1.409 1_455 S
C493 C491 1.415 . S
C494 H484 0.930 . S
C494 C492 1.419 . S
C494 C495 1.362 . S
C495 H485 0.930 . S
C495 C488 1.409 . S
C495 C494 1.362 . S
H496 C502 0.930 . S
H497 C505 0.930 . S
H498 C506 0.930 . S
H499 C507 0.930 . S
H500 C510 0.930 . S
H501 C511 0.930 . S
C502 H496 0.930 . S
C502 C503 1.355 . S
C502 C504 1.415 . S
C503 C502 1.355 . S
C503 C505 1.419 . S
C504 C502 1.415 . S
C504 C509 1.425 . S
C504 C511 1.409 . S
C505 H497 0.930 . S
C505 C503 1.419 . S
C505 C506 1.362 . S
C506 H498 0.930 . S
C506 C505 1.362 . S
C506 C509 1.409 . S
C507 H499 0.930 . S
C507 C508 1.355 . S
C507 C509 1.415 . S
C508 C507 1.355 . S
C508 C510 1.419 . S
C509 C504 1.425 . S
C509 C506 1.409 . S
C509 C507 1.415 . S
C510 H500 0.930 . S
C510 C508 1.419 . S
C510 C511 1.362 . S
C511 H501 0.930 . S
C511 C504 1.409 . S
C511 C510 1.362 . S
H512 C518 0.930 . S
H513 C521 0.930 . S
H514 C522 0.930 . S
H515 C523 0.930 1_455 S
H516 C526 0.930 . S
H517 C527 0.930 . S
C518 H512 0.930 . S
C518 C519 1.355 . S
C518 C520 1.415 . S
C519 C518 1.355 . S
C519 C521 1.419 1_655 S
C520 C518 1.415 . S
C520 C525 1.425 . S
C520 C527 1.409 . S
C521 H513 0.930 . S
C521 C519 1.419 1_455 S
C521 C522 1.362 . S
C522 H514 0.930 . S
C522 C521 1.362 . S
C522 C525 1.409 1_455 S
C523 H515 0.930 1_655 S
C523 C524 1.355 . S
C523 C525 1.415 . S
C524 C523 1.355 . S
C524 C526 1.419 . S
C525 C520 1.425 . S
C525 C522 1.409 1_655 S
C525 C523 1.415 . S
C526 H516 0.930 . S
C526 C524 1.419 . S
C526 C527 1.362 . S
C527 H517 0.930 . S
C527 C520 1.409 . S
C527 C526 1.362 . S
H528 C534 0.930 . S
H529 C537 0.930 . S
H530 C538 0.930 . S
H531 C539 0.930 . S
H532 C542 0.930 . S
H533 C543 0.930 . S
C534 H528 0.930 . S
C534 C535 1.355 . S
C534 C536 1.415 . S
C535 C534 1.355 . S
C535 C537 1.419 . S
C536 C534 1.415 . S
C536 C541 1.425 . S
C536 C543 1.409 . S
C537 H529 0.930 . S
C537 C535 1.419 . S
C537 C538 1.362 . S
C538 H530 0.930 . S
C538 C537 1.362 . S
C538 C541 1.409 . S
C539 H531 0.930 . S
C539 C540 1.355 . S
C539 C541 1.415 . S
C540 C539 1.355 . S
C540 C542 1.419 . S
C541 C536 1.425 . S
C541 C538 1.409 . S
C541 C539 1.415 . S
C542 H532 0.930 . S
C542 C540 1.419 . S
C542 C543 1.362 . S
C543 H533 0.930 . S
C543 C536 1.409 . S
C543 C542 1.362 . S
H544 C550 0.930 1_455 S
H545 C553 0.930 . S
H546 C554 0.930 . S
H547 C555 0.930 . S
H548 C558 0.930 . S
H549 C559 0.930 . S
C550 H544 0.930 1_655 S
C550 C551 1.355 . S
C550 C552 1.415 . S
C551 C550 1.355 . S
C551 C553 1.419 . S
C552 C550 1.415 . S
C552 C557 1.425 . S
C552 C559 1.409 1_655 S
C553 H545 0.930 . S
C553 C551 1.419 . S
C553 C554 1.362 . S
C554 H546 0.930 . S
C554 C553 1.362 . S
C554 C557 1.409 . S
C555 H547 0.930 . S
C555 C556 1.355 . S
C555 C557 1.415 . S
C556 C555 1.355 . S
C556 C558 1.419 1_655 S
C557 C552 1.425 . S
C557 C554 1.409 . S
C557 C555 1.415 . S
C558 H548 0.930 . S
C558 C556 1.419 1_455 S
C558 C559 1.362 . S
C559 H549 0.930 . S
C559 C552 1.409 1_455 S
C559 C558 1.362 . S
H560 C566 0.930 . S
H561 C569 0.930 . S
H562 C570 0.930 . S
H563 C571 0.930 . S
H564 C574 0.930 . S
H565 C575 0.930 . S
C566 H560 0.930 . S
C566 C567 1.355 . S
C566 C568 1.415 . S
C567 C566 1.355 . S
C567 C569 1.419 . S
C568 C566 1.415 . S
C568 C573 1.425 . S
C568 C575 1.409 . S
C569 H561 0.930 . S
C569 C567 1.419 . S
C569 C570 1.362 . S
C570 H562 0.930 . S
C570 C569 1.362 . S
C570 C573 1.409 . S
C571 H563 0.930 . S
C571 C572 1.355 . S
C571 C573 1.415 . S
C572 C571 1.355 . S
C572 C574 1.419 . S
C573 C568 1.425 . S
C573 C570 1.409 . S
C573 C571 1.415 . S
C574 H564 0.930 . S
C574 C572 1.419 . S
C574 C575 1.362 . S
C575 H565 0.930 . S
C575 C568 1.409 . S
C575 C574 1.362 . S
H576 C582 0.930 . S
H577 C585 0.930 . S
H578 C586 0.930 . S
H579 C587 0.930 . S
H580 C590 0.930 . S
H581 C591 0.930 . S
C582 H576 0.930 . S
C582 C583 1.355 . S
C582 C584 1.415 . S
C583 C582 1.355 . S
C583 C585 1.419 . S
C584 C582 1.415 . S
C584 C589 1.425 . S
C584 C591 1.409 . S
C585 H577 0.930 . S
C585 C583 1.419 . S
C585 C586 1.362 . S
C586 H578 0.930 . S
C586 C585 1.362 . S
C586 C589 1.409 . S
C587 H579 0.930 . S
C587 C588 1.355 . S
C587 C589 1.415 . S
C588 C587 1.355 . S
C588 C590 1.419 . S
C589 C584 1.425 . S
C589 C586 1.409 . S
C589 C587 1.415 . S
C590 H580 0.930 . S
C590 C588 1.419 . S
C590 C591 1.362 . S
C591 H581 0.930 . S
C591 C584 1.409 . S
C591 C590 1.362 . S
H592 C598 0.930 . S
H593 C601 0.930 . S
H594 C602 0.930 . S
H595 C603 0.930 . S
H596 C606 0.930 . S
H597 C607 0.930 . S
C598 H592 0.930 . S
C598 C599 1.355 . S
C598 C600 1.415 . S
C599 C598 1.355 . S
C599 C601 1.419 . S
C600 C598 1.415 . S
C600 C605 1.425 . S
C600 C607 1.409 . S
C601 H593 0.930 . S
C601 C599 1.419 . S
C601 C602 1.362 . S
C602 H594 0.930 . S
C602 C601 1.362 . S
C602 C605 1.409 . S
C603 H595 0.930 . S
C603 C604 1.355 . S
C603 C605 1.415 . S
C604 C603 1.355 . S
C604 C606 1.419 . S
C605 C600 1.425 . S
C605 C602 1.409 . S
C605 C603 1.415 . S
C606 H596 0.930 . S
C606 C604 1.419 . S
C606 C607 1.362 . S
C607 H597 0.930 . S
C607 C600 1.409 . S
C607 C606 1.362 . S
H608 C614 0.930 . S
H609 C617 0.930 . S
H610 C618 0.930 . S
H611 C619 0.930 . S
H612 C622 0.930 . S
H613 C623 0.930 . S
C614 H608 0.930 . S
C614 C615 1.355 . S
C614 C616 1.415 . S
C615 C614 1.355 . S
C615 C617 1.419 . S
C616 C614 1.415 . S
C616 C621 1.425 . S
C616 C623 1.409 . S
C617 H609 0.930 . S
C617 C615 1.419 . S
C617 C618 1.362 . S
C618 H610 0.930 . S
C618 C617 1.362 . S
C618 C621 1.409 . S
C619 H611 0.930 . S
C619 C620 1.355 . S
C619 C621 1.415 . S
C620 C619 1.355 . S
C620 C622 1.419 . S
C621 C616 1.425 . S
C621 C618 1.409 . S
C621 C619 1.415 . S
C622 H612 0.930 . S
C622 C620 1.419 . S
C622 C623 1.362 . S
C623 H613 0.930 . S
C623 C616 1.409 . S
C623 C622 1.362 . S
H624 C630 0.930 . S
H625 C633 0.930 . S
H626 C634 0.930 . S
H627 C635 0.930 . S
H628 C638 0.930 . S
H629 C639 0.930 . S
C630 H624 0.930 . S
C630 C631 1.355 . S
C630 C632 1.415 . S
C631 C630 1.355 . S
C631 C633 1.419 . S
C632 C630 1.415 . S
C632 C637 1.425 . S
C632 C639 1.409 . S
C633 H625 0.930 . S
C633 C631 1.419 . S
C633 C634 1.362 . S
C634 H626 0.930 . S
C634 C633 1.362 . S
C634 C637 1.409 . S
C635 H627 0.930 . S
C635 C636 1.355 . S
C635 C637 1.415 . S
C636 C635 1.355 . S
C636 C638 1.419 . S
C637 C632 1.425 . S
C637 C634 1.409 . S
C637 C635 1.415 . S
C638 H628 0.930 . S
C638 C636 1.419 . S
C638 C639 1.362 . S
C639 H629 0.930 . S
C639 C632 1.409 . S
C639 C638 1.362 . S
H640 C646 0.930 . S
H641 C649 0.930 . S
H642 C650 0.930 . S
H643 C651 0.930 . S
H644 C654 0.930 . S
H645 C655 0.930 . S
C646 H640 0.930 . S
C646 C647 1.355 . S
C646 C648 1.415 . S
C647 C646 1.355 . S
C647 C649 1.419 . S
C648 C646 1.415 . S
C648 C653 1.425 . S
C648 C655 1.409 . S
C649 H641 0.930 . S
C649 C647 1.419 . S
C649 C650 1.362 . S
C650 H642 0.930 . S
C650 C649 1.362 . S
C650 C653 1.409 . S
C651 H643 0.930 . S
C651 C652 1.355 . S
C651 C653 1.415 . S
C652 C651 1.355 . S
C652 C654 1.419 . S
C653 C648 1.425 . S
C653 C650 1.409 . S
C653 C651 1.415 . S
C654 H644 0.930 . S
C654 C652 1.419 . S
C654 C655 1.362 . S
C655 H645 0.930 . S
C655 C648 1.409 . S
C655 C654 1.362 . S
H656 C662 0.930 . S
H657 C665 0.930 . S
H658 C666 0.930 . S
H659 C667 0.930 . S
H660 C670 0.930 . S
H661 C671 0.930 . S
C662 H656 0.930 . S
C662 C663 1.355 . S
C662 C664 1.415 . S
C663 C662 1.355 . S
C663 C665 1.419 . S
C664 C662 1.415 . S
C664 C669 1.425 . S
C664 C671 1.409 . S
C665 H657 0.930 . S
C665 C663 1.419 . S
C665 C666 1.362 . S
C666 H658 0.930 . S
C666 C665 1.362 . S
C666 C669 1.409 . S
C667 H659 0.930 . S
C667 C668 1.355 . S
C667 C669 1.415 . S
C668 C667 1.355 . S
C668 C670 1.419 . S
C669 C664 1.425 . S
C669 C666 1.409 . S
C669 C667 1.415 . S
C670 H660 0.930 . S
C670 C668 1.419 . S
C670 C671 1.362 . S
C671 H661 0.930 . S
C671 C664 1.409 . S
C671 C670 1.362 . S
H672 C678 0.930 . S
H673 C681 0.930 . S
H674 C682 0.930 . S
H675 C683 0.930 . S
H676 C686 0.930 . S
H677 C687 0.930 . S
C678 H672 0.930 . S
C678 C679 1.355 . S
C678 C680 1.415 . S
C679 C678 1.355 . S
C679 C681 1.419 . S
C680 C678 1.415 . S
C680 C685 1.425 . S
C680 C687 1.409 . S
C681 H673 0.930 . S
C681 C679 1.419 . S
C681 C682 1.362 . S
C682 H674 0.930 . S
C682 C681 1.362 . S
C682 C685 1.409 . S
C683 H675 0.930 . S
C683 C684 1.355 . S
C683 C685 1.415 . S
C684 C683 1.355 . S
C684 C686 1.419 . S
C685 C680 1.425 . S
C685 C682 1.409 . S
C685 C683 1.415 . S
C686 H676 0.930 . S
C686 C684 1.419 . S
C686 C687 1.362 . S
C687 H677 0.930 . S
C687 C680 1.409 . S
C687 C686 1.362 . S
H688 C694 0.930 . S
H689 C697 0.930 . S
H690 C698 0.930 . S
H691 C699 0.930 . S
H692 C702 0.930 . S
H693 C703 0.930 . S
C694 H688 0.930 . S
C694 C695 1.355 . S
C694 C696 1.415 . S
C695 C694 1.355 . S
C695 C697 1.419 . S
C696 C694 1.415 . S
C696 C701 1.425 . S
C696 C703 1.409 . S
C697 H689 0.930 . S
C697 C695 1.419 . S
C697 C698 1.362 . S
C698 H690 0.930 . S
C698 C697 1.362 . S
C698 C701 1.409 . S
C699 H691 0.930 . S
C699 C700 1.355 . S
C699 C701 1.415 . S
C700 C699 1.355 . S
C700 C702 1.419 . S
C701 C696 1.425 . S
C701 C698 1.409 . S
C701 C699 1.415 . S
C702 H692 0.930 . S
C702 C700 1.419 . S
C702 C703 1.362 . S
C703 H693 0.930 . S
C703 C696 1.409 . S
C703 C702 1.362 . S
H704 C710 0.930 . S
H705 C713 0.930 . S
H706 C714 0.930 . S
H707 C715 0.930 . S
H708 C718 0.930 . S
H709 C719 0.930 . S
C710 H704 0.930 . S
C710 C711 1.355 . S
C710 C712 1.415 . S
C711 C710 1.355 . S
C711 C713 1.419 . S
C712 C710 1.415 . S
C712 C717 1.425 . S
C712 C719 1.409 . S
C713 H705 0.930 . S
C713 C711 1.419 . S
C713 C714 1.362 . S
C714 H706 0.930 . S
C714 C713 1.362 . S
C714 C717 1.409 . S
C715 H707 0.930 . S
C715 C716 1.355 . S
C715 C717 1.415 . S
C716 C715 1.355 . S
C716 C718 1.419 . S
C717 C712 1.425 . S
C717 C714 1.409 . S
C717 C715 1.415 . S
C718 H708 0.930 . S
C718 C716 1.419 . S
C718 C719 1.362 . S
C719 H709 0.930 . S
C719 C712 1.409 . S
C719 C718 1.362 . S
H720 C726 0.930 . S
H721 C729 0.930 . S
H722 C730 0.930 . S
H723 C731 0.930 . S
H724 C734 0.930 . S
H725 C735 0.930 . S
C726 H720 0.930 . S
C726 C727 1.355 . S
C726 C728 1.415 . S
C727 C726 1.355 . S
C727 C729 1.419 . S
C728 C726 1.415 . S
C728 C733 1.425 . S
C728 C735 1.409 . S
C729 H721 0.930 . S
C729 C727 1.419 . S
C729 C730 1.362 . S
C730 H722 0.930 . S
C730 C729 1.362 . S
C730 C733 1.409 . S
C731 H723 0.930 . S
C731 C732 1.355 . S
C731 C733 1.415 . S
C732 C731 1.355 . S
C732 C734 1.419 . S
C733 C728 1.425 . S
C733 C730 1.409 . S
C733 C731 1.415 . S
C734 H724 0.930 . S
C734 C732 1.419 . S
C734 C735 1.362 . S
C735 H725 0.930 . S
C735 C728 1.409 . S
C735 C734 1.362 . S
H736 C742 0.930 . S
H737 C745 0.930 . S
H738 C746 0.930 . S
H739 C747 0.930 . S
H740 C750 0.930 . S
H741 C751 0.930 . S
C742 H736 0.930 . S
C742 C743 1.355 . S
C742 C744 1.415 . S
C743 C742 1.355 . S
C743 C745 1.419 . S
C744 C742 1.415 . S
C744 C749 1.425 . S
C744 C751 1.409 . S
C745 H737 0.930 . S
C745 C743 1.419 . S
C745 C746 1.362 . S
C746 H738 0.930 . S
C746 C745 1.362 . S
C746 C749 1.409 . S
C747 H739 0.930 . S
C747 C748 1.355 . S
C747 C749 1.415 . S
C748 C747 1.355 . S
C748 C750 1.419 . S
C749 C744 1.425 . S
C749 C746 1.409 . S
C749 C747 1.415 . S
C750 H740 0.930 . S
C750 C748 1.419 . S
C750 C751 1.362 . S
C751 H741 0.930 . S
C751 C744 1.409 . S
C751 C750 1.362 . S
H752 C758 0.930 . S
H753 C761 0.930 . S
H754 C762 0.930 . S
H755 C763 0.930 . S
H756 C766 0.930 1_455 S
H757 C767 0.930 . S
C758 H752 0.930 . S
C758 C759 1.355 . S
C758 C760 1.415 . S
C759 C758 1.355 . S
C759 C761 1.419 . S
C760 C758 1.415 . S
C760 C765 1.425 . S
C760 C767 1.409 . S
C761 H753 0.930 . S
C761 C759 1.419 . S
C761 C762 1.362 . S
C762 H754 0.930 . S
C762 C761 1.362 . S
C762 C765 1.409 . S
C763 H755 0.930 . S
C763 C764 1.355 . S
C763 C765 1.415 . S
C764 C763 1.355 . S
C764 C766 1.419 . S
C765 C760 1.425 . S
C765 C762 1.409 . S
C765 C763 1.415 . S
C766 H756 0.930 1_655 S
C766 C764 1.419 . S
C766 C767 1.362 . S
C767 H757 0.930 . S
C767 C760 1.409 . S
C767 C766 1.362 . S
H768 C774 0.930 . S
H769 C777 0.930 . S
H770 C778 0.930 . S
H771 C779 0.930 . S
H772 C782 0.930 . S
H773 C783 0.930 . S
C774 H768 0.930 . S
C774 C775 1.355 . S
C774 C776 1.415 . S
C775 C774 1.355 . S
C775 C777 1.419 . S
C776 C774 1.415 . S
C776 C781 1.425 . S
C776 C783 1.409 . S
C777 H769 0.930 . S
C777 C775 1.419 . S
C777 C778 1.362 . S
C778 H770 0.930 . S
C778 C777 1.362 . S
C778 C781 1.409 . S
C779 H771 0.930 . S
C779 C780 1.355 . S
C779 C781 1.415 . S
C780 C779 1.355 . S
C780 C782 1.419 . S
C781 C776 1.425 . S
C781 C778 1.409 . S
C781 C779 1.415 . S
C782 H772 0.930 . S
C782 C780 1.419 . S
C782 C783 1.362 . S
C783 H773 0.930 . S
C783 C776 1.409 . S
C783 C782 1.362 . S
H784 C790 0.930 . S
H785 C793 0.930 1_655 S
H786 C794 0.930 . S
H787 C795 0.930 . S
H788 C798 0.930 . S
H789 C799 0.930 . S
C790 H784 0.930 . S
C790 C791 1.355 . S
C790 C792 1.415 . S
C791 C790 1.355 . S
C791 C793 1.419 . S
C792 C790 1.415 . S
C792 C797 1.425 . S
C792 C799 1.409 . S
C793 H785 0.930 1_455 S
C793 C791 1.419 . S
C793 C794 1.362 . S
C794 H786 0.930 . S
C794 C793 1.362 . S
C794 C797 1.409 . S
C795 H787 0.930 . S
C795 C796 1.355 . S
C795 C797 1.415 . S
C796 C795 1.355 . S
C796 C798 1.419 . S
C797 C792 1.425 . S
C797 C794 1.409 . S
C797 C795 1.415 . S
C798 H788 0.930 . S
C798 C796 1.419 . S
C798 C799 1.362 . S
C799 H789 0.930 . S
C799 C792 1.409 . S
C799 C798 1.362 . S
H800 C806 0.930 . S
H801 C809 0.930 . S
H802 C810 0.930 . S
H803 C811 0.930 . S
H804 C814 0.930 . S
H805 C815 0.930 . S
C806 H800 0.930 . S
C806 C807 1.355 . S
C806 C808 1.415 . S
C807 C806 1.355 . S
C807 C809 1.419 . S
C808 C806 1.415 . S
C808 C813 1.425 . S
C808 C815 1.409 . S
C809 H801 0.930 . S
C809 C807 1.419 . S
C809 C810 1.362 . S
C810 H802 0.930 . S
C810 C809 1.362 . S
C810 C813 1.409 . S
C811 H803 0.930 . S
C811 C812 1.355 . S
C811 C813 1.415 . S
C812 C811 1.355 . S
C812 C814 1.419 . S
C813 C808 1.425 . S
C813 C810 1.409 . S
C813 C811 1.415 . S
C814 H804 0.930 . S
C814 C812 1.419 . S
C814 C815 1.362 . S
C815 H805 0.930 . S
C815 C808 1.409 . S
C815 C814 1.362 . S
H816 C822 0.930 . S
H817 C825 0.930 . S
H818 C826 0.930 . S
H819 C827 0.930 . S
H820 C830 0.930 . S
H821 C831 0.930 . S
C822 H816 0.930 . S
C822 C823 1.355 . S
C822 C824 1.415 . S
C823 C822 1.355 . S
C823 C825 1.419 . S
C824 C822 1.415 . S
C824 C829 1.425 . S
C824 C831 1.409 . S
C825 H817 0.930 . S
C825 C823 1.419 . S
C825 C826 1.362 . S
C826 H818 0.930 . S
C826 C825 1.362 . S
C826 C829 1.409 . S
C827 H819 0.930 . S
C827 C828 1.355 . S
C827 C829 1.415 . S
C828 C827 1.355 . S
C828 C830 1.419 . S
C829 C824 1.425 . S
C829 C826 1.409 . S
C829 C827 1.415 . S
C830 H820 0.930 . S
C830 C828 1.419 . S
C830 C831 1.362 . S
C831 H821 0.930 . S
C831 C824 1.409 . S
C831 C830 1.362 . S
H832 C838 0.930 . S
H833 C841 0.930 . S
H834 C842 0.930 . S
H835 C843 0.930 . S
H836 C846 0.930 . S
H837 C847 0.930 . S
C838 H832 0.930 . S
C838 C839 1.355 . S
C838 C840 1.415 . S
C839 C838 1.355 . S
C839 C841 1.419 . S
C840 C838 1.415 . S
C840 C845 1.425 . S
C840 C847 1.409 . S
C841 H833 0.930 . S
C841 C839 1.419 . S
C841 C842 1.362 . S
C842 H834 0.930 . S
C842 C841 1.362 . S
C842 C845 1.409 . S
C843 H835 0.930 . S
C843 C844 1.355 . S
C843 C845 1.415 . S
C844 C843 1.355 . S
C844 C846 1.419 . S
C845 C840 1.425 . S
C845 C842 1.409 . S
C845 C843 1.415 . S
C846 H836 0.930 . S
C846 C844 1.419 . S
C846 C847 1.362 . S
C847 H837 0.930 . S
C847 C840 1.409 . S
C847 C846 1.362 . S
H848 C854 0.930 . S
H849 C857 0.930 . S
H850 C858 0.930 . S
H851 C859 0.930 . S
H852 C862 0.930 1_455 S
H853 C863 0.930 . S
C854 H848 0.930 . S
C854 C855 1.355 . S
C854 C856 1.415 . S
C855 C854 1.355 . S
C855 C857 1.419 . S
C856 C854 1.415 . S
C856 C861 1.425 . S
C856 C863 1.409 . S
C857 H849 0.930 . S
C857 C855 1.419 . S
C857 C858 1.362 . S
C858 H850 0.930 . S
C858 C857 1.362 . S
C858 C861 1.409 . S
C859 H851 0.930 . S
C859 C860 1.355 . S
C859 C861 1.415 . S
C860 C859 1.355 . S
C860 C862 1.419 . S
C861 C856 1.425 . S
C861 C858 1.409 . S
C861 C859 1.415 . S
C862 H852 0.930 1_655 S
C862 C860 1.419 . S
C862 C863 1.362 . S
C863 H853 0.930 . S
C863 C856 1.409 . S
C863 C862 1.362 . S
H864 C870 0.930 . S
H865 C873 0.930 . S
H866 C874 0.930 . S
H867 C875 0.930 . S
H868 C878 0.930 . S
H869 C879 0.930 . S
C870 H864 0.930 . S
C870 C871 1.355 . S
C870 C872 1.415 . S
C871 C870 1.355 . S
C871 C873 1.419 . S
C872 C870 1.415 . S
C872 C877 1.425 . S
C872 C879 1.409 . S
C873 H865 0.930 . S
C873 C871 1.419 . S
C873 C874 1.362 . S
C874 H866 0.930 . S
C874 C873 1.362 . S
C874 C877 1.409 . S
C875 H867 0.930 . S
C875 C876 1.355 . S
C875 C877 1.415 . S
C876 C875 1.355 . S
C876 C878 1.419 . S
C877 C872 1.425 . S
C877 C874 1.409 . S
C877 C875 1.415 . S
C878 H868 0.930 . S
C878 C876 1.419 . S
C878 C879 1.362 . S
C879 H869 0.930 . S
C879 C872 1.409 . S
C879 C878 1.362 . S
H880 C886 0.930 . S
H881 C889 0.930 . S
H882 C890 0.930 . S
H883 C891 0.930 . S
H884 C894 0.930 1_455 S
H885 C895 0.930 . S
C886 H880 0.930 . S
C886 C887 1.355 . S
C886 C888 1.415 . S
C887 C886 1.355 . S
C887 C889 1.419 . S
C888 C886 1.415 . S
C888 C893 1.425 . S
C888 C895 1.409 . S
C889 H881 0.930 . S
C889 C887 1.419 . S
C889 C890 1.362 . S
C890 H882 0.930 . S
C890 C889 1.362 . S
C890 C893 1.409 . S
C891 H883 0.930 . S
C891 C892 1.355 . S
C891 C893 1.415 . S
C892 C891 1.355 . S
C892 C894 1.419 . S
C893 C888 1.425 . S
C893 C890 1.409 . S
C893 C891 1.415 . S
C894 H884 0.930 1_655 S
C894 C892 1.419 . S
C894 C895 1.362 . S
C895 H885 0.930 . S
C895 C888 1.409 . S
C895 C894 1.362 . S
H896 C902 0.930 . S
H897 C905 0.930 . S
H898 C906 0.930 . S
H899 C907 0.930 . S
H900 C910 0.930 . S
H901 C911 0.930 . S
C902 H896 0.930 . S
C902 C903 1.355 . S
C902 C904 1.415 . S
C903 C902 1.355 . S
C903 C905 1.419 . S
C904 C902 1.415 . S
C904 C909 1.425 . S
C904 C911 1.409 . S
C905 H897 0.930 . S
C905 C903 1.419 . S
C905 C906 1.362 . S
C906 H898 0.930 . S
C906 C905 1.362 . S
C906 C909 1.409 . S
C907 H899 0.930 . S
C907 C908 1.355 . S
C907 C909 1.415 . S
C908 C907 1.355 . S
C908 C910 1.419 . S
C909 C904 1.425 . S
C909 C906 1.409 . S
C909 C907 1.415 . S
C910 H900 0.930 . S
C910 C908 1.419 . S
C910 C911 1.362 . S
C911 H901 0.930 . S
C911 C904 1.409 . S
C911 C910 1.362 . S
H912 C918 0.930 . S
H913 C921 0.930 . S
H914 C922 0.930 . S
H915 C923 0.930 . S
H916 C926 0.930 1_655 S
H917 C927 0.930 . S
C918 H912 0.930 . S
C918 C919 1.355 . S
C918 C920 1.415 . S
C919 C918 1.355 . S
C919 C921 1.419 . S
C920 C918 1.415 . S
C920 C925 1.425 . S
C920 C927 1.409 . S
C921 H913 0.930 . S
C921 C919 1.419 . S
C921 C922 1.362 . S
C922 H914 0.930 . S
C922 C921 1.362 . S
C922 C925 1.409 . S
C923 H915 0.930 . S
C923 C924 1.355 . S
C923 C925 1.415 . S
C924 C923 1.355 . S
C924 C926 1.419 . S
C925 C920 1.425 . S
C925 C922 1.409 . S
C925 C923 1.415 . S
C926 H916 0.930 1_455 S
C926 C924 1.419 . S
C926 C927 1.362 . S
C927 H917 0.930 . S
C927 C920 1.409 . S
C927 C926 1.362 . S
H928 C934 0.930 . S
H929 C937 0.930 . S
H930 C938 0.930 . S
H931 C939 0.930 . S
H932 C942 0.930 . S
H933 C943 0.930 . S
C934 H928 0.930 . S
C934 C935 1.355 . S
C934 C936 1.415 . S
C935 C934 1.355 . S
C935 C937 1.419 . S
C936 C934 1.415 . S
C936 C941 1.425 . S
C936 C943 1.409 . S
C937 H929 0.930 . S
C937 C935 1.419 . S
C937 C938 1.362 . S
C938 H930 0.930 . S
C938 C937 1.362 . S
C938 C941 1.409 . S
C939 H931 0.930 . S
C939 C940 1.355 . S
C939 C941 1.415 . S
C940 C939 1.355 . S
C940 C942 1.419 . S
C941 C936 1.425 . S
C941 C938 1.409 . S
C941 C939 1.415 . S
C942 H932 0.930 . S
C942 C940 1.419 . S
C942 C943 1.362 . S
C943 H933 0.930 . S
C943 C936 1.409 . S
C943 C942 1.362 . S
H944 C950 0.930 . S
H945 C953 0.930 . S
H946 C954 0.930 . S
H947 C955 0.930 . S
H948 C958 0.930 . S
H949 C959 0.930 . S
C950 H944 0.930 . S
C950 C951 1.355 . S
C950 C952 1.415 . S
C951 C950 1.355 . S
C951 C953 1.419 . S
C952 C950 1.415 . S
C952 C957 1.425 . S
C952 C959 1.409 . S
C953 H945 0.930 . S
C953 C951 1.419 . S
C953 C954 1.362 . S
C954 H946 0.930 . S
C954 C953 1.362 . S
C954 C957 1.409 . S
C955 H947 0.930 . S
C955 C956 1.355 . S
C955 C957 1.415 . S
C956 C955 1.355 . S
C956 C958 1.419 . S
C957 C952 1.425 . S
C957 C954 1.409 . S
C957 C955 1.415 . S
C958 H948 0.930 . S
C958 C956 1.419 . S
C958 C959 1.362 . S
C959 H949 0.930 . S
C959 C952 1.409 . S
C959 C958 1.362 . S
H960 C966 0.930 . S
H961 C969 0.930 . S
H962 C970 0.930 . S
H963 C971 0.930 . S
H964 C974 0.930 . S
H965 C975 0.930 . S
C966 H960 0.930 . S
C966 C967 1.355 . S
C966 C968 1.415 . S
C967 C966 1.355 . S
C967 C969 1.419 1_655 S
C968 C966 1.415 . S
C968 C973 1.425 1_655 S
C968 C975 1.409 . S
C969 H961 0.930 . S
C969 C967 1.419 1_455 S
C969 C970 1.362 . S
C970 H962 0.930 . S
C970 C969 1.362 . S
C970 C973 1.409 . S
C971 H963 0.930 . S
C971 C972 1.355 . S
C971 C973 1.415 . S
C972 C971 1.355 . S
C972 C974 1.419 1_455 S
C973 C968 1.425 1_455 S
C973 C970 1.409 . S
C973 C971 1.415 . S
C974 H964 0.930 . S
C974 C972 1.419 1_655 S
C974 C975 1.362 . S
C975 H965 0.930 . S
C975 C968 1.409 . S
C975 C974 1.362 . S
H976 C982 0.930 . S
H977 C985 0.930 . S
H978 C986 0.930 . S
H979 C987 0.930 . S
H980 C990 0.930 . S
H981 C991 0.930 . S
C982 H976 0.930 . S
C982 C983 1.355 . S
C982 C984 1.415 1_565 S
C983 C982 1.355 . S
C983 C985 1.419 . S
C984 C982 1.415 1_545 S
C984 C989 1.425 . S
C984 C991 1.409 . S
C985 H977 0.930 . S
C985 C983 1.419 . S
C985 C986 1.362 . S
C986 H978 0.930 . S
C986 C985 1.362 . S
C986 C989 1.409 1_565 S
C987 H979 0.930 . S
C987 C988 1.355 . S
C987 C989 1.415 . S
C988 C987 1.355 . S
C988 C990 1.419 . S
C989 C984 1.425 . S
C989 C986 1.409 1_545 S
C989 C987 1.415 . S
C990 H980 0.930 . S
C990 C988 1.419 . S
C990 C991 1.362 . S
C991 H981 0.930 . S
C991 C984 1.409 . S
C991 C990 1.362 . S
H992 C998 0.930 . S
H993 C1001 0.930 . S
H994 C1002 0.930 . S
H995 C1003 0.930 . S
H996 C1006 0.930 . S
H997 C1007 0.937 1_554 S
C998 H992 0.930 . S
C998 C999 1.355 1_455 S
C998 C1000 1.415 . S
C999 C998 1.355 1_655 S
C999 C1001 1.419 . S
C1000 C998 1.415 . S
C1000 C1005 1.429 1_444 S
C1000 C1007 1.416 1_554 S
C1001 H993 0.930 . S
C1001 C999 1.419 . S
C1001 C1002 1.362 . S
C1002 H994 0.930 . S
C1002 C1001 1.362 . S
C1002 C1005 1.413 1_544 S
C1003 H995 0.930 . S
C1003 C1004 1.355 1_655 S
C1003 C1005 1.407 . S
C1004 C1003 1.355 1_455 S
C1004 C1006 1.419 . S
C1005 C1000 1.429 1_666 S
C1005 C1002 1.413 1_566 S
C1005 C1003 1.407 . S
C1006 H996 0.930 . S
C1006 C1004 1.419 . S
C1006 C1007 1.349 1_565 S
C1007 H997 0.937 1_556 S
C1007 C1000 1.416 1_556 S
C1007 C1006 1.349 1_545 S
H1008 C1014 0.930 . S
H1009 C1017 0.930 . S
H1010 C1018 0.930 . S
H1011 C1019 0.930 . S
H1012 C1022 0.930 . S
H1013 C1023 0.930 . S
C1014 H1008 0.930 . S
C1014 C1015 1.355 . S
C1014 C1016 1.415 . S
C1015 C1014 1.355 . S
C1015 C1017 1.419 . S
C1016 C1014 1.415 . S
C1016 C1021 1.425 . S
C1016 C1023 1.409 1_554 S
C1017 H1009 0.930 . S
C1017 C1015 1.419 . S
C1017 C1018 1.362 . S
C1018 H1010 0.930 . S
C1018 C1017 1.362 . S
C1018 C1021 1.409 . S
C1019 H1011 0.930 . S
C1019 C1020 1.355 . S
C1019 C1021 1.415 1_556 S
C1020 C1019 1.355 . S
C1020 C1022 1.419 . S
C1021 C1016 1.425 . S
C1021 C1018 1.409 . S
C1021 C1019 1.415 1_554 S
C1022 H1012 0.930 . S
C1022 C1020 1.419 . S
C1022 C1023 1.362 . S
C1023 H1013 0.930 . S
C1023 C1016 1.409 1_556 S
C1023 C1022 1.362 . S
H1024 C1030 0.930 . S
H1025 C1033 0.930 . S
H1026 C1034 0.930 1_455 S
H1027 C1035 0.930 . S
H1028 C1038 0.930 . S
H1029 C1039 0.930 . S
C1030 H1024 0.930 . S
C1030 C1031 1.355 . S
C1030 C1032 1.415 . S
C1031 C1030 1.355 . S
C1031 C1033 1.419 . S
C1032 C1030 1.415 . S
C1032 C1037 1.425 1_655 S
C1032 C1039 1.409 . S
C1033 H1025 0.930 . S
C1033 C1031 1.419 . S
C1033 C1034 1.362 . S
C1034 H1026 0.930 1_655 S
C1034 C1033 1.362 . S
C1034 C1037 1.409 1_655 S
C1035 H1027 0.930 . S
C1035 C1036 1.355 . S
C1035 C1037 1.415 . S
C1036 C1035 1.355 . S
C1036 C1038 1.419 . S
C1037 C1032 1.425 1_455 S
C1037 C1034 1.409 1_455 S
C1037 C1035 1.415 . S
C1038 H1028 0.930 . S
C1038 C1036 1.419 . S
C1038 C1039 1.362 1_455 S
C1039 H1029 0.930 . S
C1039 C1032 1.409 . S
C1039 C1038 1.362 1_655 S
H1040 C1046 0.930 . S
H1041 C1049 0.930 . S
H1042 C1050 0.930 . S
H1043 C1051 0.930 . S
H1044 C1054 0.930 . S
H1045 C1055 0.930 . S
C1046 H1040 0.930 . S
C1046 C1047 1.355 . S
C1046 C1048 1.415 1_565 S
C1047 C1046 1.355 . S
C1047 C1049 1.419 . S
C1048 C1046 1.415 1_545 S
C1048 C1053 1.425 . S
C1048 C1055 1.409 . S
C1049 H1041 0.930 . S
C1049 C1047 1.419 . S
C1049 C1050 1.362 . S
C1050 H1042 0.930 . S
C1050 C1049 1.362 . S
C1050 C1053 1.409 1_565 S
C1051 H1043 0.930 . S
C1051 C1052 1.355 . S
C1051 C1053 1.415 . S
C1052 C1051 1.355 . S
C1052 C1054 1.419 . S
C1053 C1048 1.425 . S
C1053 C1050 1.409 1_545 S
C1053 C1051 1.415 . S
C1054 H1044 0.930 . S
C1054 C1052 1.419 . S
C1054 C1055 1.362 . S
C1055 H1045 0.930 . S
C1055 C1048 1.409 . S
C1055 C1054 1.362 . S
H1056 C1062 0.930 . S
H1057 C1065 0.930 . S
H1058 C1066 0.930 . S
H1059 C1067 0.930 1_556 S
H1060 C1070 0.930 . S
H1061 C1071 0.930 . S
C1062 H1056 0.930 . S
C1062 C1063 1.355 1_554 S
C1062 C1064 1.415 . S
C1063 C1062 1.355 1_556 S
C1063 C1065 1.419 . S
C1064 C1062 1.415 . S
C1064 C1069 1.425 1_554 S
C1064 C1071 1.409 . S
C1065 H1057 0.930 . S
C1065 C1063 1.419 . S
C1065 C1066 1.362 . S
C1066 H1058 0.930 . S
C1066 C1065 1.362 . S
C1066 C1069 1.409 . S
C1067 H1059 0.930 1_554 S
C1067 C1068 1.355 . S
C1067 C1069 1.415 1_554 S
C1068 C1067 1.355 . S
C1068 C1070 1.419 . S
C1069 C1064 1.425 1_556 S
C1069 C1066 1.409 . S
C1069 C1067 1.415 1_556 S
C1070 H1060 0.930 . S
C1070 C1068 1.419 . S
C1070 C1071 1.362 . S
C1071 H1061 0.930 . S
C1071 C1064 1.409 . S
C1071 C1070 1.362 . S
H1072 C1078 0.930 . S
H1073 C1081 0.930 . S
H1074 C1082 0.930 . S
H1075 C1083 0.930 . S
H1076 C1086 0.930 . S
H1077 C1087 0.930 . S
C1078 H1072 0.930 . S
C1078 C1079 1.355 . S
C1078 C1080 1.415 . S
C1079 C1078 1.355 . S
C1079 C1081 1.419 . S
C1080 C1078 1.415 . S
C1080 C1085 1.425 . S
C1080 C1087 1.409 . S
C1081 H1073 0.930 . S
C1081 C1079 1.419 . S
C1081 C1082 1.362 . S
C1082 H1074 0.930 . S
C1082 C1081 1.362 . S
C1082 C1085 1.409 . S
C1083 H1075 0.930 . S
C1083 C1084 1.355 . S
C1083 C1085 1.415 . S
C1084 C1083 1.355 . S
C1084 C1086 1.419 . S
C1085 C1080 1.425 . S
C1085 C1082 1.409 . S
C1085 C1083 1.415 . S
C1086 H1076 0.930 . S
C1086 C1084 1.419 . S
C1086 C1087 1.362 . S
C1087 H1077 0.930 . S
C1087 C1080 1.409 . S
C1087 C1086 1.362 . S
H1088 C1094 0.930 . S
H1089 C1097 0.930 . S
H1090 C1098 0.930 . S
H1091 C1099 0.930 . S
H1092 C1102 0.930 . S
H1093 C1103 0.930 . S
C1094 H1088 0.930 . S
C1094 C1095 1.355 1_655 S
C1094 C1096 1.415 . S
C1095 C1094 1.355 1_455 S
C1095 C1097 1.419 . S
C1096 C1094 1.415 . S
C1096 C1101 1.425 1_655 S
C1096 C1103 1.409 . S
C1097 H1089 0.930 . S
C1097 C1095 1.419 . S
C1097 C1098 1.362 . S
C1098 H1090 0.930 . S
C1098 C1097 1.362 . S
C1098 C1101 1.409 . S
C1099 H1091 0.930 . S
C1099 C1100 1.355 1_455 S
C1099 C1101 1.415 . S
C1100 C1099 1.355 1_655 S
C1100 C1102 1.419 . S
C1101 C1096 1.425 1_455 S
C1101 C1098 1.409 . S
C1101 C1099 1.415 . S
C1102 H1092 0.930 . S
C1102 C1100 1.419 . S
C1102 C1103 1.362 . S
C1103 H1093 0.930 . S
C1103 C1096 1.409 . S
C1103 C1102 1.362 . S
H1104 C1110 0.930 . S
H1105 C1113 0.930 . S
H1106 C1114 0.930 . S
H1107 C1115 0.930 . S
H1108 C1118 0.930 . S
H1109 C1119 0.930 . S
C1110 H1104 0.930 . S
C1110 C1111 1.355 . S
C1110 C1112 1.415 . S
C1111 C1110 1.355 . S
C1111 C1113 1.419 . S
C1112 C1110 1.415 . S
C1112 C1117 1.425 . S
C1112 C1119 1.409 . S
C1113 H1105 0.930 . S
C1113 C1111 1.419 . S
C1113 C1114 1.362 . S
C1114 H1106 0.930 . S
C1114 C1113 1.362 . S
C1114 C1117 1.409 . S
C1115 H1107 0.930 . S
C1115 C1116 1.355 . S
C1115 C1117 1.415 . S
C1116 C1115 1.355 . S
C1116 C1118 1.419 . S
C1117 C1112 1.425 . S
C1117 C1114 1.409 . S
C1117 C1115 1.415 . S
C1118 H1108 0.930 . S
C1118 C1116 1.419 . S
C1118 C1119 1.362 . S
C1119 H1109 0.930 . S
C1119 C1112 1.409 . S
C1119 C1118 1.362 . S
H1120 C1126 0.930 . S
H1121 C1129 0.930 . S
H1122 C1130 0.930 . S
H1123 C1131 0.930 . S
H1124 C1134 0.930 . S
H1125 C1135 0.930 . S
C1126 H1120 0.930 . S
C1126 C1127 1.355 . S
C1126 C1128 1.415 . S
C1127 C1126 1.355 . S
C1127 C1129 1.419 . S
C1128 C1126 1.415 . S
C1128 C1133 1.425 . S
C1128 C1135 1.409 . S
C1129 H1121 0.930 . S
C1129 C1127 1.419 . S
C1129 C1130 1.362 . S
C1130 H1122 0.930 . S
C1130 C1129 1.362 . S
C1130 C1133 1.409 . S
C1131 H1123 0.930 . S
C1131 C1132 1.355 . S
C1131 C1133 1.415 . S
C1132 C1131 1.355 . S
C1132 C1134 1.419 . S
C1133 C1128 1.425 . S
C1133 C1130 1.409 . S
C1133 C1131 1.415 . S
C1134 H1124 0.930 . S
C1134 C1132 1.419 . S
C1134 C1135 1.362 . S
C1135 H1125 0.930 . S
C1135 C1128 1.409 . S
C1135 C1134 1.362 . S
H1136 C1142 0.930 . S
H1137 C1145 0.930 . S
H1138 C1146 0.930 . S
H1139 C1147 0.930 . S
H1140 C1150 0.930 . S
H1141 C1151 0.930 . S
C1142 H1136 0.930 . S
C1142 C1143 1.355 . S
C1142 C1144 1.415 . S
C1143 C1142 1.355 . S
C1143 C1145 1.419 . S
C1144 C1142 1.415 . S
C1144 C1149 1.425 . S
C1144 C1151 1.409 . S
C1145 H1137 0.930 . S
C1145 C1143 1.419 . S
C1145 C1146 1.362 . S
C1146 H1138 0.930 . S
C1146 C1145 1.362 . S
C1146 C1149 1.409 . S
C1147 H1139 0.930 . S
C1147 C1148 1.355 . S
C1147 C1149 1.415 . S
C1148 C1147 1.355 . S
C1148 C1150 1.419 . S
C1149 C1144 1.425 . S
C1149 C1146 1.409 . S
C1149 C1147 1.415 . S
C1150 H1140 0.930 . S
C1150 C1148 1.419 . S
C1150 C1151 1.362 . S
C1151 H1141 0.930 . S
C1151 C1144 1.409 . S
C1151 C1150 1.362 . S
H1152 C1158 0.930 . S
H1153 C1161 0.930 . S
H1154 C1162 0.930 . S
H1155 C1163 0.930 . S
H1156 C1166 0.930 . S
H1157 C1167 0.930 . S
C1158 H1152 0.930 . S
C1158 C1159 1.355 . S
C1158 C1160 1.415 . S
C1159 C1158 1.355 . S
C1159 C1161 1.419 . S
C1160 C1158 1.415 . S
C1160 C1165 1.425 . S
C1160 C1167 1.409 . S
C1161 H1153 0.930 . S
C1161 C1159 1.419 . S
C1161 C1162 1.362 . S
C1162 H1154 0.930 . S
C1162 C1161 1.362 . S
C1162 C1165 1.409 . S
C1163 H1155 0.930 . S
C1163 C1164 1.355 . S
C1163 C1165 1.415 . S
C1164 C1163 1.355 . S
C1164 C1166 1.419 . S
C1165 C1160 1.425 . S
C1165 C1162 1.409 . S
C1165 C1163 1.415 . S
C1166 H1156 0.930 . S
C1166 C1164 1.419 . S
C1166 C1167 1.362 . S
C1167 H1157 0.930 . S
C1167 C1160 1.409 . S
C1167 C1166 1.362 . S
H1168 C1174 0.930 . S
H1169 C1177 0.930 . S
H1170 C1178 0.930 . S
H1171 C1179 0.930 . S
H1172 C1182 0.930 . S
H1173 C1183 0.939 . S
C1174 H1168 0.930 . S
C1174 C1175 1.355 . S
C1174 C1176 1.415 . S
C1175 C1174 1.355 . S
C1175 C1177 1.419 . S
C1176 C1174 1.415 . S
C1176 C1181 1.425 . S
C1176 C1183 1.409 1_545 S
C1177 H1169 0.930 . S
C1177 C1175 1.419 . S
C1177 C1178 1.362 . S
C1178 H1170 0.930 . S
C1178 C1177 1.362 . S
C1178 C1181 1.409 . S
C1179 H1171 0.930 . S
C1179 C1180 1.355 . S
C1179 C1181 1.415 1_565 S
C1180 C1179 1.355 . S
C1180 C1182 1.419 . S
C1181 C1176 1.425 . S
C1181 C1178 1.409 . S
C1181 C1179 1.415 1_545 S
C1182 H1172 0.930 . S
C1182 C1180 1.419 . S
C1182 C1183 1.362 . S
C1183 H1173 0.939 . S
C1183 C1176 1.409 1_565 S
C1183 C1182 1.362 . S
H1184 C1190 0.930 . S
H1185 C1193 0.930 . S
H1186 C1194 0.930 . S
H1187 C1195 0.930 . S
H1188 C1198 0.930 . S
H1189 C1199 0.930 . S
C1190 H1184 0.930 . S
C1190 C1191 1.355 . S
C1190 C1192 1.415 . S
C1191 C1190 1.355 . S
C1191 C1193 1.419 . S
C1192 C1190 1.415 . S
C1192 C1197 1.425 . S
C1192 C1199 1.409 . S
C1193 H1185 0.930 . S
C1193 C1191 1.419 . S
C1193 C1194 1.362 . S
C1194 H1186 0.930 . S
C1194 C1193 1.362 . S
C1194 C1197 1.409 . S
C1195 H1187 0.930 . S
C1195 C1196 1.355 . S
C1195 C1197 1.415 . S
C1196 C1195 1.355 . S
C1196 C1198 1.419 . S
C1197 C1192 1.425 . S
C1197 C1194 1.409 . S
C1197 C1195 1.415 . S
C1198 H1188 0.930 . S
C1198 C1196 1.419 . S
C1198 C1199 1.362 . S
C1199 H1189 0.930 . S
C1199 C1192 1.409 . S
C1199 C1198 1.362 . S
H1200 C1206 0.930 . S
H1201 C1209 0.930 . S
H1202 C1210 0.930 . S
H1203 C1211 0.930 . S
H1204 C1214 0.930 . S
H1205 C1215 0.930 . S
C1206 H1200 0.930 . S
C1206 C1207 1.355 . S
C1206 C1208 1.415 . S
C1207 C1206 1.355 . S
C1207 C1209 1.419 1_556 S
C1208 C1206 1.415 . S
C1208 C1213 1.425 1_556 S
C1208 C1215 1.409 . S
C1209 H1201 0.930 . S
C1209 C1207 1.419 1_554 S
C1209 C1210 1.362 . S
C1210 H1202 0.930 . S
C1210 C1209 1.362 . S
C1210 C1213 1.409 . S
C1211 H1203 0.930 . S
C1211 C1212 1.355 . S
C1211 C1213 1.415 . S
C1212 C1211 1.355 . S
C1212 C1214 1.419 1_554 S
C1213 C1208 1.425 1_554 S
C1213 C1210 1.409 . S
C1213 C1211 1.415 . S
C1214 H1204 0.930 . S
C1214 C1212 1.419 1_556 S
C1214 C1215 1.362 . S
C1215 H1205 0.930 . S
C1215 C1208 1.409 . S
C1215 C1214 1.362 . S
H1216 C1222 0.930 . S
H1217 C1225 0.930 . S
H1218 C1226 0.930 . S
H1219 C1227 0.930 . S
H1220 C1230 0.930 . S
H1221 C1231 0.930 . S
C1222 H1216 0.930 . S
C1222 C1223 1.355 . S
C1222 C1224 1.415 . S
C1223 C1222 1.355 . S
C1223 C1225 1.419 . S
C1224 C1222 1.415 . S
C1224 C1229 1.425 . S
C1224 C1231 1.409 . S
C1225 H1217 0.930 . S
C1225 C1223 1.419 . S
C1225 C1226 1.362 . S
C1226 H1218 0.930 . S
C1226 C1225 1.362 . S
C1226 C1229 1.409 . S
C1227 H1219 0.930 . S
C1227 C1228 1.355 . S
C1227 C1229 1.415 . S
C1228 C1227 1.355 . S
C1228 C1230 1.419 . S
C1229 C1224 1.425 . S
C1229 C1226 1.409 . S
C1229 C1227 1.415 . S
C1230 H1220 0.930 . S
C1230 C1228 1.419 . S
C1230 C1231 1.362 . S
C1231 H1221 0.930 . S
C1231 C1224 1.409 . S
C1231 C1230 1.362 . S
H1232 C1238 0.930 . S
H1233 C1241 0.930 . S
H1234 C1242 0.930 . S
H1235 C1243 0.930 . S
H1236 C1246 0.930 . S
H1237 C1247 0.930 . S
C1238 H1232 0.930 . S
C1238 C1239 1.355 . S
C1238 C1240 1.415 . S
C1239 C1238 1.355 . S
C1239 C1241 1.419 . S
C1240 C1238 1.415 . S
C1240 C1245 1.425 . S
C1240 C1247 1.409 . S
C1241 H1233 0.930 . S
C1241 C1239 1.419 . S
C1241 C1242 1.362 . S
C1242 H1234 0.930 . S
C1242 C1241 1.362 . S
C1242 C1245 1.409 . S
C1243 H1235 0.930 . S
C1243 C1244 1.355 . S
C1243 C1245 1.415 . S
C1244 C1243 1.355 . S
C1244 C1246 1.419 . S
C1245 C1240 1.425 . S
C1245 C1242 1.409 . S
C1245 C1243 1.415 . S
C1246 H1236 0.930 . S
C1246 C1244 1.419 . S
C1246 C1247 1.362 . S
C1247 H1237 0.930 . S
C1247 C1240 1.409 . S
C1247 C1246 1.362 . S
H1248 C1254 0.930 . S
H1249 C1257 0.930 . S
H1250 C1258 0.930 . S
H1251 C1259 0.930 . S
H1252 C1262 0.930 . S
H1253 C1263 0.930 . S
C1254 H1248 0.930 . S
C1254 C1255 1.355 . S
C1254 C1256 1.415 . S
C1255 C1254 1.355 . S
C1255 C1257 1.419 . S
C1256 C1254 1.415 . S
C1256 C1261 1.425 . S
C1256 C1263 1.409 . S
C1257 H1249 0.930 . S
C1257 C1255 1.419 . S
C1257 C1258 1.362 . S
C1258 H1250 0.930 . S
C1258 C1257 1.362 . S
C1258 C1261 1.409 . S
C1259 H1251 0.930 . S
C1259 C1260 1.355 . S
C1259 C1261 1.415 . S
C1260 C1259 1.355 . S
C1260 C1262 1.419 . S
C1261 C1256 1.425 . S
C1261 C1258 1.409 . S
C1261 C1259 1.415 . S
C1262 H1252 0.930 . S
C1262 C1260 1.419 . S
C1262 C1263 1.362 . S
C1263 H1253 0.930 . S
C1263 C1256 1.409 . S
C1263 C1262 1.362 . S
H1264 C1270 0.930 . S
H1265 C1273 0.930 . S
H1266 C1274 0.930 . S
H1267 C1275 0.930 . S
H1268 C1278 0.930 . S
H1269 C1279 0.930 . S
C1270 H1264 0.930 . S
C1270 C1271 1.355 . S
C1270 C1272 1.415 . S
C1271 C1270 1.355 . S
C1271 C1273 1.419 . S
C1272 C1270 1.415 . S
C1272 C1277 1.425 . S
C1272 C1279 1.409 . S
C1273 H1265 0.930 . S
C1273 C1271 1.419 . S
C1273 C1274 1.362 . S
C1274 H1266 0.930 . S
C1274 C1273 1.362 . S
C1274 C1277 1.409 . S
C1275 H1267 0.930 . S
C1275 C1276 1.355 . S
C1275 C1277 1.415 . S
C1276 C1275 1.355 . S
C1276 C1278 1.419 . S
C1277 C1272 1.425 . S
C1277 C1274 1.409 . S
C1277 C1275 1.415 . S
C1278 H1268 0.930 . S
C1278 C1276 1.419 . S
C1278 C1279 1.362 . S
C1279 H1269 0.930 . S
C1279 C1272 1.409 . S
C1279 C1278 1.362 . S
H1280 C1286 0.930 . S
H1281 C1289 0.930 . S
H1282 C1290 0.930 . S
H1283 C1291 0.930 . S
H1284 C1294 0.930 . S
H1285 C1295 0.930 . S
C1286 H1280 0.930 . S
C1286 C1287 1.355 . S
C1286 C1288 1.415 . S
C1287 C1286 1.355 . S
C1287 C1289 1.419 . S
C1288 C1286 1.415 . S
C1288 C1293 1.425 . S
C1288 C1295 1.409 . S
C1289 H1281 0.930 . S
C1289 C1287 1.419 . S
C1289 C1290 1.362 . S
C1290 H1282 0.930 . S
C1290 C1289 1.362 . S
C1290 C1293 1.409 . S
C1291 H1283 0.930 . S
C1291 C1292 1.355 . S
C1291 C1293 1.415 . S
C1292 C1291 1.355 . S
C1292 C1294 1.419 . S
C1293 C1288 1.425 . S
C1293 C1290 1.409 . S
C1293 C1291 1.415 . S
C1294 H1284 0.930 . S
C1294 C1292 1.419 . S
C1294 C1295 1.362 . S
C1295 H1285 0.930 . S
C1295 C1288 1.409 . S
C1295 C1294 1.362 . S
H1296 C1302 0.930 . S
H1297 C1305 0.930 . S
H1298 C1306 0.930 . S
H1299 C1307 0.930 . S
H1300 C1310 0.930 . S
H1301 C1311 0.930 . S
C1302 H1296 0.930 . S
C1302 C1303 1.355 . S
C1302 C1304 1.415 . S
C1303 C1302 1.355 . S
C1303 C1305 1.419 . S
C1304 C1302 1.415 . S
C1304 C1309 1.425 . S
C1304 C1311 1.409 . S
C1305 H1297 0.930 . S
C1305 C1303 1.419 . S
C1305 C1306 1.362 . S
C1306 H1298 0.930 . S
C1306 C1305 1.362 . S
C1306 C1309 1.409 . S
C1307 H1299 0.930 . S
C1307 C1308 1.355 . S
C1307 C1309 1.415 . S
C1308 C1307 1.355 . S
C1308 C1310 1.419 . S
C1309 C1304 1.425 . S
C1309 C1306 1.409 . S
C1309 C1307 1.415 . S
C1310 H1300 0.930 . S
C1310 C1308 1.419 . S
C1310 C1311 1.362 . S
C1311 H1301 0.930 . S
C1311 C1304 1.409 . S
C1311 C1310 1.362 . S
H1312 C1318 0.930 . S
H1313 C1321 0.930 . S
H1314 C1322 0.930 . S
H1315 C1323 0.930 . S
H1316 C1326 0.930 . S
H1317 C1327 0.930 . S
C1318 H1312 0.930 . S
C1318 C1319 1.355 . S
C1318 C1320 1.415 . S
C1319 C1318 1.355 . S
C1319 C1321 1.419 . S
C1320 C1318 1.415 . S
C1320 C1325 1.425 . S
C1320 C1327 1.409 . S
C1321 H1313 0.930 . S
C1321 C1319 1.419 . S
C1321 C1322 1.362 . S
C1322 H1314 0.930 . S
C1322 C1321 1.362 . S
C1322 C1325 1.409 . S
C1323 H1315 0.930 . S
C1323 C1324 1.355 . S
C1323 C1325 1.415 . S
C1324 C1323 1.355 . S
C1324 C1326 1.419 . S
C1325 C1320 1.425 . S
C1325 C1322 1.409 . S
C1325 C1323 1.415 . S
C1326 H1316 0.930 . S
C1326 C1324 1.419 . S
C1326 C1327 1.362 . S
C1327 H1317 0.930 . S
C1327 C1320 1.409 . S
C1327 C1326 1.362 . S
H1328 C1334 0.930 . S
H1329 C1337 0.930 . S
H1330 C1338 0.930 . S
H1331 C1339 0.930 . S
H1332 C1342 0.930 . S
H1333 C1343 0.930 . S
C1334 H1328 0.930 . S
C1334 C1335 1.355 . S
C1334 C1336 1.415 . S
C1335 C1334 1.355 . S
C1335 C1337 1.419 . S
C1336 C1334 1.415 . S
C1336 C1341 1.425 . S
C1336 C1343 1.409 . S
C1337 H1329 0.930 . S
C1337 C1335 1.419 . S
C1337 C1338 1.362 . S
C1338 H1330 0.930 . S
C1338 C1337 1.362 . S
C1338 C1341 1.409 . S
C1339 H1331 0.930 . S
C1339 C1340 1.355 . S
C1339 C1341 1.415 . S
C1340 C1339 1.355 . S
C1340 C1342 1.419 . S
C1341 C1336 1.425 . S
C1341 C1338 1.409 . S
C1341 C1339 1.415 . S
C1342 H1332 0.930 . S
C1342 C1340 1.419 . S
C1342 C1343 1.362 . S
C1343 H1333 0.930 . S
C1343 C1336 1.409 . S
C1343 C1342 1.362 . S
H1344 C1350 0.930 . S
H1345 C1353 0.930 . S
H1346 C1354 0.930 . S
H1347 C1355 0.930 . S
H1348 C1358 0.930 . S
H1349 C1359 0.930 . S
C1350 H1344 0.930 . S
C1350 C1351 1.355 . S
C1350 C1352 1.415 . S
C1351 C1350 1.355 . S
C1351 C1353 1.419 . S
C1352 C1350 1.415 . S
C1352 C1357 1.425 . S
C1352 C1359 1.409 . S
C1353 H1345 0.930 . S
C1353 C1351 1.419 . S
C1353 C1354 1.362 . S
C1354 H1346 0.930 . S
C1354 C1353 1.362 . S
C1354 C1357 1.409 . S
C1355 H1347 0.930 . S
C1355 C1356 1.355 . S
C1355 C1357 1.415 . S
C1356 C1355 1.355 . S
C1356 C1358 1.419 . S
C1357 C1352 1.425 . S
C1357 C1354 1.409 . S
C1357 C1355 1.415 . S
C1358 H1348 0.930 . S
C1358 C1356 1.419 . S
C1358 C1359 1.362 . S
C1359 H1349 0.930 . S
C1359 C1352 1.409 . S
C1359 C1358 1.362 . S
H1360 C1366 0.930 . S
H1361 C1369 0.930 . S
H1362 C1370 0.930 . S
H1363 C1371 0.930 . S
H1364 C1374 0.930 . S
H1365 C1375 0.930 . S
C1366 H1360 0.930 . S
C1366 C1367 1.355 . S
C1366 C1368 1.415 . S
C1367 C1366 1.355 . S
C1367 C1369 1.419 . S
C1368 C1366 1.415 . S
C1368 C1373 1.425 . S
C1368 C1375 1.409 . S
C1369 H1361 0.930 . S
C1369 C1367 1.419 . S
C1369 C1370 1.362 . S
C1370 H1362 0.930 . S
C1370 C1369 1.362 . S
C1370 C1373 1.409 . S
C1371 H1363 0.930 . S
C1371 C1372 1.355 . S
C1371 C1373 1.415 . S
C1372 C1371 1.355 . S
C1372 C1374 1.419 . S
C1373 C1368 1.425 . S
C1373 C1370 1.409 . S
C1373 C1371 1.415 . S
C1374 H1364 0.930 . S
C1374 C1372 1.419 . S
C1374 C1375 1.362 . S
C1375 H1365 0.930 . S
C1375 C1368 1.409 . S
C1375 C1374 1.362 . S
H1376 C1382 0.930 . S
H1377 C1385 0.930 . S
H1378 C1386 0.930 . S
H1379 C1387 0.930 . S
H1380 C1390 0.930 . S
H1381 C1391 0.930 . S
C1382 H1376 0.930 . S
C1382 C1383 1.355 . S
C1382 C1384 1.415 . S
C1383 C1382 1.355 . S
C1383 C1385 1.419 . S
C1384 C1382 1.415 . S
C1384 C1389 1.425 . S
C1384 C1391 1.409 . S
C1385 H1377 0.930 . S
C1385 C1383 1.419 . S
C1385 C1386 1.362 . S
C1386 H1378 0.930 . S
C1386 C1385 1.362 . S
C1386 C1389 1.409 . S
C1387 H1379 0.930 . S
C1387 C1388 1.355 . S
C1387 C1389 1.415 . S
C1388 C1387 1.355 . S
C1388 C1390 1.419 . S
C1389 C1384 1.425 . S
C1389 C1386 1.409 . S
C1389 C1387 1.415 . S
C1390 H1380 0.930 . S
C1390 C1388 1.419 . S
C1390 C1391 1.362 . S
C1391 H1381 0.930 . S
C1391 C1384 1.409 . S
C1391 C1390 1.362 . S
H1392 C1398 0.930 . S
H1393 C1401 0.930 . S
H1394 C1402 0.930 . S
H1395 C1403 0.930 . S
H1396 C1406 0.930 . S
H1397 C1407 0.930 . S
C1398 H1392 0.930 . S
C1398 C1399 1.355 . S
C1398 C1400 1.415 . S
C1399 C1398 1.355 . S
C1399 C1401 1.419 . S
C1400 C1398 1.415 . S
C1400 C1405 1.425 . S
C1400 C1407 1.409 . S
C1401 H1393 0.930 . S
C1401 C1399 1.419 . S
C1401 C1402 1.362 . S
C1402 H1394 0.930 . S
C1402 C1401 1.362 . S
C1402 C1405 1.409 . S
C1403 H1395 0.930 . S
C1403 C1404 1.355 . S
C1403 C1405 1.415 . S
C1404 C1403 1.355 . S
C1404 C1406 1.419 . S
C1405 C1400 1.425 . S
C1405 C1402 1.409 . S
C1405 C1403 1.415 . S
C1406 H1396 0.930 . S
C1406 C1404 1.419 . S
C1406 C1407 1.362 . S
C1407 H1397 0.930 . S
C1407 C1400 1.409 . S
C1407 C1406 1.362 . S
H1408 C1414 0.930 . S
H1409 C1417 0.930 . S
H1410 C1418 0.930 . S
H1411 C1419 0.930 . S
H1412 C1422 0.930 . S
H1413 C1423 0.930 . S
C1414 H1408 0.930 . S
C1414 C1415 1.355 . S
C1414 C1416 1.415 . S
C1415 C1414 1.355 . S
C1415 C1417 1.419 . S
C1416 C1414 1.415 . S
C1416 C1421 1.425 . S
C1416 C1423 1.409 . S
C1417 H1409 0.930 . S
C1417 C1415 1.419 . S
C1417 C1418 1.362 . S
C1418 H1410 0.930 . S
C1418 C1417 1.362 . S
C1418 C1421 1.409 . S
C1419 H1411 0.930 . S
C1419 C1420 1.355 . S
C1419 C1421 1.415 . S
C1420 C1419 1.355 . S
C1420 C1422 1.419 . S
C1421 C1416 1.425 . S
C1421 C1418 1.409 . S
C1421 C1419 1.415 . S
C1422 H1412 0.930 . S
C1422 C1420 1.419 . S
C1422 C1423 1.362 . S
C1423 H1413 0.930 . S
C1423 C1416 1.409 . S
C1423 C1422 1.362 . S
H1424 C1430 0.930 . S
H1425 C1433 0.930 . S
H1426 C1434 0.930 . S
H1427 C1435 0.930 . S
H1428 C1438 0.930 . S
H1429 C1439 0.930 . S
C1430 H1424 0.930 . S
C1430 C1431 1.355 . S
C1430 C1432 1.415 . S
C1431 C1430 1.355 . S
C1431 C1433 1.419 . S
C1432 C1430 1.415 . S
C1432 C1437 1.425 . S
C1432 C1439 1.409 . S
C1433 H1425 0.930 . S
C1433 C1431 1.419 . S
C1433 C1434 1.362 . S
C1434 H1426 0.930 . S
C1434 C1433 1.362 . S
C1434 C1437 1.409 . S
C1435 H1427 0.930 . S
C1435 C1436 1.355 . S
C1435 C1437 1.415 . S
C1436 C1435 1.355 . S
C1436 C1438 1.419 . S
C1437 C1432 1.425 . S
C1437 C1434 1.409 . S
C1437 C1435 1.415 . S
C1438 H1428 0.930 . S
C1438 C1436 1.419 . S
C1438 C1439 1.362 . S
C1439 H1429 0.930 . S
C1439 C1432 1.409 . S
C1439 C1438 1.362 . S
H1440 C1446 0.930 . S
H1441 C1449 0.930 . S
H1442 C1450 0.930 . S
H1443 C1451 0.930 . S
H1444 C1454 0.930 . S
H1445 C1455 0.930 . S
C1446 H1440 0.930 . S
C1446 C1447 1.355 . S
C1446 C1448 1.415 . S
C1447 C1446 1.355 . S
C1447 C1449 1.419 . S
C1448 C1446 1.415 . S
C1448 C1453 1.425 . S
C1448 C1455 1.409 . S
C1449 H1441 0.930 . S
C1449 C1447 1.419 . S
C1449 C1450 1.362 . S
C1450 H1442 0.930 . S
C1450 C1449 1.362 . S
C1450 C1453 1.409 . S
C1451 H1443 0.930 . S
C1451 C1452 1.355 . S
C1451 C1453 1.415 . S
C1452 C1451 1.355 . S
C1452 C1454 1.419 . S
C1453 C1448 1.425 . S
C1453 C1450 1.409 . S
C1453 C1451 1.415 . S
C1454 H1444 0.930 . S
C1454 C1452 1.419 . S
C1454 C1455 1.362 . S
C1455 H1445 0.930 . S
C1455 C1448 1.409 . S
C1455 C1454 1.362 . S
H1456 C1462 0.930 . S
H1457 C1465 0.930 . S
H1458 C1466 0.930 . S
H1459 C1467 0.930 . S
H1460 C1470 0.930 . S
H1461 C1471 0.930 . S
C1462 H1456 0.930 . S
C1462 C1463 1.355 . S
C1462 C1464 1.415 . S
C1463 C1462 1.355 . S
C1463 C1465 1.419 . S
C1464 C1462 1.415 . S
C1464 C1469 1.425 . S
C1464 C1471 1.409 . S
C1465 H1457 0.930 . S
C1465 C1463 1.419 . S
C1465 C1466 1.362 . S
C1466 H1458 0.930 . S
C1466 C1465 1.362 . S
C1466 C1469 1.409 . S
C1467 H1459 0.930 . S
C1467 C1468 1.355 . S
C1467 C1469 1.415 . S
C1468 C1467 1.355 . S
C1468 C1470 1.419 . S
C1469 C1464 1.425 . S
C1469 C1466 1.409 . S
C1469 C1467 1.415 . S
C1470 H1460 0.930 . S
C1470 C1468 1.419 . S
C1470 C1471 1.362 . S
C1471 H1461 0.930 . S
C1471 C1464 1.409 . S
C1471 C1470 1.362 . S
C455 C149 1.342 . S
C460 C9 1.317 . S
C471 C23 1.296 . S
C476 C163 1.374 . S
C487 C37 1.374 . S
C492 C121 1.296 . S
C503 C135 1.298 . S
C508 C51 1.364 . S
C519 C199 1.304 . S
C524 C59 1.247 . S
C535 C73 1.244 . S
C540 C213 1.302 . S
C551 C171 1.246 . S
C556 C87 1.298 . S
C567 C185 1.258 . S
C572 C101 1.282 . S
C583 C373 1.372 . S
C588 C233 1.295 . S
C599 C387 1.369 . S
C604 C247 1.296 . S
C615 C345 1.370 . S
C620 C261 1.295 . S
C631 C275 1.295 . S
C636 C359 1.372 . S
C647 C423 1.299 . S
C652 C283 1.246 . S
C663 C437 1.291 . S
C668 C297 1.251 . S
C679 C311 1.265 . S
C684 C395 1.292 . S
C695 C325 1.299 . S
C700 C409 1.246 . S
C711 C269 1.431 . S
C716 C3 1.436 . S
C727 C17 1.435 1_655 S
C732 C255 1.431 . S
C743 C241 1.429 . S
C748 C31 1.440 . S
C759 C227 1.447 . S
C764 C45 1.438 1_655 S
C775 C65 1.287 . S
C780 C331 1.271 . S
C791 C79 1.284 1_455 S
C796 C317 1.275 . S
C807 C303 1.286 . S
C812 C93 1.271 . S
C823 C107 1.271 1_455 S
C828 C289 1.286 . S
C839 C381 1.445 . S
C844 C115 1.441 . S
C855 C367 1.446 . S
C860 C129 1.439 1_655 S
C871 C353 1.445 . S
C876 C143 1.442 . S
C887 C339 1.445 . S
C892 C157 1.431 1_655 S
C903 C177 1.289 . S
C908 C443 1.269 . S
C919 C429 1.267 . S
C924 C191 1.292 1_455 S
C935 C205 1.277 . S
C940 C415 1.280 . S
C951 C219 1.268 1_455 S
C956 C401 1.289 . S
C967 C175 1.465 . S
C972 C8 1.428 . S
C983 C22 1.447 . S
C988 C301 1.473 . S
C999 C91 1.445 . S
C1004 C36 1.407 . S
C1015 C441 1.446 . S
C1020 C50 1.412 . S
C1031 C63 1.465 . S
C1036 C120 1.453 . S
C1047 C246 1.416 . S
C1052 C77 1.459 . S
C1063 C386 1.462 . S
C1068 C105 1.476 . S
C1079 C413 1.470 . S
C1084 C134 1.437 . S
C1095 C148 1.445 . S
C1100 C203 1.460 . S
C1111 C329 1.476 . S
C1116 C162 1.463 . S
C1127 C358 1.460 . S
C1132 C189 1.476 . S
C1143 C217 1.476 . S
C1148 C274 1.461 . S
C1159 C232 1.439 . S
C1164 C399 1.457 . S
C1175 C315 1.476 . S
C1180 C260 1.461 . S
C1191 C344 1.462 . S
C1196 C287 1.476 . S
C1207 C372 1.401 . S
C1212 C427 1.448 . S
C1223 C7 1.217 . S
C1228 C49 1.203 . S
C1239 C35 1.154 . S
C1244 C21 1.153 . S
C1255 C64 1.030 . S
C1260 C106 1.003 . S
C1271 C78 0.986 . S
C1276 C92 0.965 . S
C1287 C119 1.202 . S
C1292 C161 1.216 . S
C1303 C133 1.157 . S
C1308 C147 1.166 . S
C1319 C176 0.980 . S
C1324 C218 1.006 . S
C1335 C204 1.043 . S
C1340 C190 1.022 . S
C1351 C273 1.207 . S
C1356 C231 1.220 . S
C1367 C259 1.206 . S
C1372 C245 1.192 . S
C1383 C330 1.039 . S
C1388 C288 1.016 . S
C1399 C316 1.041 . S
C1404 C302 1.018 . S
C1415 C385 1.162 . S
C1420 C343 1.173 . S
C1431 C371 1.232 . S
C1436 C357 1.223 . S
C1447 C400 1.002 . S
C1452 C442 1.028 . S
C1463 C428 1.010 . S
C1468 C414 0.982 . S
