# Generated by pormake.
# Topology yfx, (5)-cn, num edge types: 1
# Building blocks:
#     Node 0, Type 0, BuildingBlock: BEQFEK_clean_sbu_0, # of connection points: 5
#     Node 1, Type 0, BuildingBlock: BEQFEK_clean_sbu_0, # of connection points: 5
#     Node 2, Type 0, BuildingBlock: BEQFEK_clean_sbu_0, # of connection points: 5
#     Node 3, Type 0, BuildingBlock: BEQFEK_clean_sbu_0, # of connection points: 5
#     Node 4, Type 0, BuildingBlock: BEQFEK_clean_sbu_0, # of connection points: 5
#     Node 5, Type 0, BuildingBlock: BEQFEK_clean_sbu_0, # of connection points: 5
#     Node 6, Type 0, BuildingBlock: BEQFEK_clean_sbu_0, # of connection points: 5
#     Node 7, Type 0, BuildingBlock: BEQFEK_clean_sbu_0, # of connection points: 5
#     Edge 8, Type (0, 0), BuildingBlock: KIFKEQ_clean_linker_1, # of connection points: 2
#     Edge 9, Type (0, 0), BuildingBlock: KIFKEQ_clean_linker_1, # of connection points: 2
#     Edge 10, Type (0, 0), BuildingBlock: KIFKEQ_clean_linker_1, # of connection points: 2
#     Edge 11, Type (0, 0), BuildingBlock: KIFKEQ_clean_linker_1, # of connection points: 2
#     Edge 12, Type (0, 0), BuildingBlock: KIFKEQ_clean_linker_1, # of connection points: 2
#     Edge 13, Type (0, 0), BuildingBlock: KIFKEQ_clean_linker_1, # of connection points: 2
#     Edge 14, Type (0, 0), BuildingBlock: KIFKEQ_clean_linker_1, # of connection points: 2
#     Edge 15, Type (0, 0), BuildingBlock: KIFKEQ_clean_linker_1, # of connection points: 2
#     Edge 16, Type (0, 0), BuildingBlock: KIFKEQ_clean_linker_1, # of connection points: 2
#     Edge 17, Type (0, 0), BuildingBlock: KIFKEQ_clean_linker_1, # of connection points: 2
#     Edge 18, Type (0, 0), BuildingBlock: KIFKEQ_clean_linker_1, # of connection points: 2
#     Edge 19, Type (0, 0), BuildingBlock: KIFKEQ_clean_linker_1, # of connection points: 2
#     Edge 20, Type (0, 0), BuildingBlock: KIFKEQ_clean_linker_1, # of connection points: 2
#     Edge 21, Type (0, 0), BuildingBlock: KIFKEQ_clean_linker_1, # of connection points: 2
#     Edge 22, Type (0, 0), BuildingBlock: KIFKEQ_clean_linker_1, # of connection points: 2
#     Edge 23, Type (0, 0), BuildingBlock: KIFKEQ_clean_linker_1, # of connection points: 2
#     Edge 24, Type (0, 0), BuildingBlock: KIFKEQ_clean_linker_1, # of connection points: 2
#     Edge 25, Type (0, 0), BuildingBlock: KIFKEQ_clean_linker_1, # of connection points: 2
#     Edge 26, Type (0, 0), BuildingBlock: KIFKEQ_clean_linker_1, # of connection points: 2
#     Edge 27, Type (0, 0), BuildingBlock: KIFKEQ_clean_linker_1, # of connection points: 2
# Relax obj value: 0.163
# Max RMSD: 0.153
# Mean RMSD: 0.153
data_MOF--net-yfx--node1-BEQFEK_clean_sbu_0--edge1-KIFKEQ_clean_linker_1
_symmetry_space_group_name_H-M    P1
_symmetry_Int_Tables_number       1
_symmetry_cell_setting            triclinic
loop_
_symmetry_equiv_pos_as_xyz
'x, y, z'
_cell_length_a     40.27412
_cell_length_b     40.204701
_cell_length_c     22.632099
_cell_angle_alpha  89.965395
_cell_angle_beta   89.95902
_cell_angle_gamma 90.018115
loop_
_atom_site_label
_atom_site_type_symbol
_atom_site_fract_x
_atom_site_fract_y
_atom_site_fract_z
_atom_type_partial_charge
Co0 Co 0.26179 0.35751 0.99423 0.0
Co1 Co 0.1868 0.37188 0.02686 0.0
C2 C 0.20738 0.32795 0.92432 0.0
O3 O 0.23764 0.33264 0.93667 0.0
O4 O 0.18391 0.34123 0.95441 0.0
C5 C 0.32177 0.33408 0.94037 0.0
O6 O 0.30197 0.32049 0.90112 0.0
C7 C 0.12305 0.41027 0.01448 0.0
C8 C 0.10391 0.40678 0.10559 0.0
C9 C 0.09778 0.42192 0.05157 0.0
N10 N 0.14323 0.38996 0.04586 0.0
N11 N 0.13108 0.38759 0.09991 0.0
C12 C 0.12979 0.42046 0.95205 0.0
H13 H 0.15572 0.41433 0.93946 0.0
H14 H 0.12515 0.44747 0.94613 0.0
H15 H 0.11272 0.40673 0.92232 0.0
C16 C 0.26501 0.42872 0.98465 0.0
N17 N 0.24743 0.40102 0.9942 0.0
N18 N 0.21731 0.40849 0.01258 0.0
C19 C 0.21551 0.44201 0.01781 0.0
C20 C 0.24563 0.45569 0.99993 0.0
C21 C 0.29959 0.4289 0.96022 0.0
H22 H 0.31742 0.42369 0.99642 0.0
H23 H 0.30218 0.40912 0.9264 0.0
H24 H 0.3058 0.45322 0.93981 0.0
O25 O 0.25602 0.33891 0.07205 0.0
O26 O 0.20317 0.34504 0.09782 0.0
H27 H 0.17468 0.44462 0.07899 0.0
H28 H 0.1968 0.48327 0.06857 0.0
C29 C 0.18752 0.46053 0.04619 0.0
H30 H 0.16965 0.46846 0.01178 0.0
H31 H 0.1423 0.37414 0.13392 0.0
O32 O 0.3097 0.35278 0.98016 0.0
C33 C 0.23263 0.33487 0.10874 0.0
Co34 Co 0.65218 0.26208 0.98003 0.0
Co35 Co 0.63706 0.18731 0.01538 0.0
C36 C 0.68234 0.20591 0.91422 0.0
O37 O 0.67762 0.23636 0.92529 0.0
O38 O 0.66844 0.18283 0.94438 0.0
C39 C 0.67996 0.31987 0.92634 0.0
O40 O 0.69611 0.29808 0.89407 0.0
C41 C 0.59895 0.12306 0.00601 0.0
C42 C 0.60255 0.10525 0.09795 0.0
C43 C 0.58762 0.09808 0.0442 0.0
N44 N 0.61888 0.14402 0.03651 0.0
N45 N 0.6213 0.13268 0.09112 0.0
C46 C 0.58897 0.12869 0.94316 0.0
H47 H 0.59498 0.15449 0.92927 0.0
H48 H 0.56205 0.1238 0.93728 0.0
H49 H 0.60288 0.1112 0.91445 0.0
C50 C 0.58108 0.26536 0.96806 0.0
N51 N 0.60861 0.2478 0.97898 0.0
N52 N 0.60086 0.21785 0.99824 0.0
C53 C 0.56737 0.21619 0.00269 0.0
C54 C 0.55394 0.24617 0.98328 0.0
C55 C 0.58127 0.29982 0.9429 0.0
H56 H 0.58633 0.3179 0.97882 0.0
H57 H 0.6013 0.3021 0.90948 0.0
H58 H 0.55717 0.306 0.92187 0.0
O59 O 0.66964 0.2576 0.05914 0.0
O60 O 0.66319 0.20486 0.08606 0.0
H61 H 0.56431 0.17624 0.06578 0.0
H62 H 0.52589 0.19837 0.05395 0.0
C63 C 0.54862 0.18867 0.03221 0.0
H64 H 0.54077 0.17028 0.99858 0.0
H65 H 0.63458 0.14454 0.1246 0.0
O66 O 0.65785 0.30982 0.96229 0.0
C67 C 0.67321 0.23446 0.09659 0.0
Co68 Co 0.74441 0.64468 0.00443 0.0
Co69 Co 0.82111 0.63577 0.02941 0.0
C70 C 0.79477 0.67862 0.92997 0.0
O71 O 0.76537 0.67139 0.94497 0.0
O72 O 0.82002 0.6672 0.9578 0.0
C73 C 0.68257 0.66346 0.95291 0.0
O74 O 0.70088 0.67439 0.90896 0.0
C75 C 0.88807 0.60413 0.0104 0.0
C76 C 0.9084 0.60665 0.10079 0.0
C77 C 0.9152 0.5944 0.04485 0.0
N78 N 0.86619 0.62064 0.04502 0.0
N79 N 0.87887 0.62228 0.09878 0.0
C80 C 0.88384 0.59966 0.94519 0.0
H81 H 0.86062 0.61174 0.92985 0.0
H82 H 0.88309 0.57294 0.93356 0.0
H83 H 0.90547 0.61069 0.92191 0.0
C84 C 0.74656 0.57356 0.98936 0.0
N85 N 0.76168 0.60231 0.0021 0.0
N86 N 0.79303 0.59702 0.01589 0.0
C87 C 0.79822 0.56373 0.01467 0.0
C88 C 0.76916 0.5482 0.99659 0.0
C89 C 0.71078 0.57075 0.97213 0.0
H90 H 0.69508 0.57998 0.00893 0.0
H91 H 0.706 0.58682 0.93316 0.0
H92 H 0.70363 0.54475 0.96184 0.0
O93 O 0.75098 0.66378 0.08157 0.0
O94 O 0.80478 0.6614 0.10199 0.0
H95 H 0.84243 0.5608 0.06754 0.0
H96 H 0.82424 0.52111 0.04901 0.0
C97 C 0.82956 0.54656 0.03251 0.0
H98 H 0.84596 0.5441 0.99353 0.0
H99 H 0.86685 0.63319 0.13473 0.0
O100 O 0.69605 0.64684 0.99415 0.0
C101 C 0.7751 0.66965 0.11583 0.0
Co102 Co 0.36101 0.74546 0.98742 0.0
Co103 Co 0.37176 0.82111 0.01961 0.0
C104 C 0.33172 0.79794 0.91333 0.0
O105 O 0.33777 0.7679 0.92589 0.0
O106 O 0.34243 0.82199 0.94518 0.0
C107 C 0.33877 0.68424 0.93798 0.0
O108 O 0.3245 0.70328 0.89827 0.0
C109 C 0.40748 0.88615 0.00481 0.0
C110 C 0.39908 0.90889 0.09221 0.0
C111 C 0.41549 0.91396 0.03905 0.0
N112 N 0.38786 0.86564 0.03692 0.0
N113 N 0.38282 0.87969 0.08891 0.0
C114 C 0.41679 0.8798 0.94181 0.0
H115 H 0.39959 0.86144 0.92172 0.0
H116 H 0.44229 0.86958 0.93946 0.0
H117 H 0.41633 0.90339 0.91632 0.0
C118 C 0.43224 0.74428 0.98659 0.0
N119 N 0.40383 0.76118 0.99183 0.0
N120 N 0.40971 0.79178 0.00978 0.0
C121 C 0.44283 0.79465 0.01903 0.0
C122 C 0.45793 0.76466 0.00429 0.0
C123 C 0.43433 0.70919 0.96472 0.0
H124 H 0.42826 0.69195 0.00149 0.0
H125 H 0.41601 0.70526 0.92883 0.0
H126 H 0.45952 0.70332 0.9478 0.0
O127 O 0.33924 0.75187 0.06251 0.0
O128 O 0.3438 0.80474 0.08918 0.0
H129 H 0.44171 0.83657 0.07815 0.0
H130 H 0.48097 0.81486 0.07514 0.0
C131 C 0.45937 0.82345 0.04877 0.0
H132 H 0.46881 0.84097 0.01493 0.0
H133 H 0.36888 0.86895 0.1228 0.0
O134 O 0.35798 0.69715 0.97607 0.0
C135 C 0.33362 0.77509 0.09893 0.0
Co136 Co 0.762 0.86262 0.50254 0.0
Co137 Co 0.68571 0.87345 0.52875 0.0
C138 C 0.71049 0.8296 0.42951 0.0
O139 O 0.74013 0.83617 0.44387 0.0
O140 O 0.68565 0.84175 0.45756 0.0
C141 C 0.82321 0.84068 0.45283 0.0
O142 O 0.80458 0.82845 0.41049 0.0
C143 C 0.61884 0.90577 0.5114 0.0
C144 C 0.59953 0.90389 0.60261 0.0
C145 C 0.59212 0.91574 0.54664 0.0
N146 N 0.64108 0.88944 0.54557 0.0
N147 N 0.62902 0.88823 0.59984 0.0
C148 C 0.62231 0.90977 0.44594 0.0
H149 H 0.64529 0.89747 0.42994 0.0
H150 H 0.62305 0.93641 0.43374 0.0
H151 H 0.60035 0.89871 0.42379 0.0
C152 C 0.76154 0.93371 0.48657 0.0
N153 N 0.74574 0.9054 0.49995 0.0
N154 N 0.71455 0.91151 0.51387 0.0
C155 C 0.71013 0.94491 0.51187 0.0
C156 C 0.73954 0.95966 0.49328 0.0
C157 C 0.79743 0.93552 0.46957 0.0
H158 H 0.81275 0.92558 0.50629 0.0
H159 H 0.80181 0.91955 0.43035 0.0
H160 H 0.80545 0.96133 0.45979 0.0
O161 O 0.75547 0.84402 0.58002 0.0
O162 O 0.7019 0.8478 0.60146 0.0
H163 H 0.66598 0.94934 0.56462 0.0
H164 H 0.68464 0.98848 0.54376 0.0
C165 C 0.67903 0.96281 0.52879 0.0
H166 H 0.66264 0.9647 0.48973 0.0
H167 H 0.64138 0.87747 0.63556 0.0
O168 O 0.81023 0.85927 0.49186 0.0
C169 C 0.73144 0.83891 0.61489 0.0
Co170 Co 0.14349 0.76281 0.49171 0.0
Co171 Co 0.13506 0.68643 0.52084 0.0
C172 C 0.17352 0.71213 0.41438 0.0
O173 O 0.16686 0.74178 0.42872 0.0
O174 O 0.16363 0.6873 0.44528 0.0
C175 C 0.16179 0.82514 0.44106 0.0
O176 O 0.17357 0.80698 0.39763 0.0
C177 C 0.09889 0.6216 0.50687 0.0
C178 C 0.10815 0.59894 0.59405 0.0
C179 C 0.0902 0.5944 0.54233 0.0
N180 N 0.12016 0.64129 0.53716 0.0
N181 N 0.12602 0.62706 0.5887 0.0
C182 C 0.08518 0.63044 0.44749 0.0
H183 H 0.09016 0.65695 0.43704 0.0
H184 H 0.05811 0.6254 0.44574 0.0
H185 H 0.09744 0.61482 0.41348 0.0
C186 C 0.07233 0.7622 0.493 0.0
N187 N 0.10118 0.74595 0.49673 0.0
N188 N 0.09625 0.71503 0.51388 0.0
C189 C 0.0633 0.71129 0.52426 0.0
C190 C 0.04734 0.74102 0.51093 0.0
C191 C 0.06916 0.79742 0.47212 0.0
H192 H 0.07498 0.81448 0.50922 0.0
H193 H 0.08713 0.80217 0.43594 0.0
H194 H 0.04372 0.80276 0.4559 0.0
O195 O 0.1659 0.75599 0.56596 0.0
O196 O 0.16332 0.70256 0.59009 0.0
H197 H 0.0659 0.66877 0.58191 0.0
H198 H 0.02623 0.68975 0.58117 0.0
C199 C 0.04766 0.68186 0.55365 0.0
H200 H 0.03809 0.66461 0.51953 0.0
H201 H 0.14091 0.63744 0.6216 0.0
O202 O 0.14528 0.8113 0.48208 0.0
C203 C 0.17256 0.73237 0.60101 0.0
Co204 Co 0.24365 0.15001 0.49088 0.0
Co205 Co 0.31824 0.13547 0.52626 0.0
C206 C 0.29945 0.17995 0.42411 0.0
O207 O 0.26909 0.17527 0.43557 0.0
O208 O 0.32256 0.16628 0.45439 0.0
C209 C 0.18592 0.17266 0.42936 0.0
O210 O 0.20741 0.18499 0.39156 0.0
C211 C 0.3821 0.09733 0.51598 0.0
C212 C 0.40041 0.10071 0.60758 0.0
C213 C 0.40717 0.0858 0.5536 0.0
N214 N 0.36148 0.11737 0.54699 0.0
N215 N 0.37311 0.11966 0.60138 0.0
C216 C 0.37597 0.08733 0.45329 0.0
H217 H 0.35013 0.0934 0.44008 0.0
H218 H 0.38074 0.06036 0.44727 0.0
H219 H 0.39324 0.10124 0.42411 0.0
C220 C 0.24032 0.07882 0.4818 0.0
N221 N 0.25798 0.10649 0.49112 0.0
N222 N 0.2879 0.09895 0.51041 0.0
C223 C 0.28949 0.06545 0.51627 0.0
C224 C 0.25944 0.05186 0.49804 0.0
C225 C 0.20572 0.07865 0.45755 0.0
H226 H 0.18802 0.08513 0.49334 0.0
H227 H 0.20349 0.09761 0.42217 0.0
H228 H 0.19903 0.05398 0.43913 0.0
O229 O 0.24795 0.16824 0.56938 0.0
O230 O 0.30064 0.16224 0.59638 0.0
H231 H 0.32948 0.06281 0.57905 0.0
H232 H 0.30764 0.0241 0.56756 0.0
C233 C 0.31713 0.04693 0.54569 0.0
H234 H 0.3355 0.03917 0.51195 0.0
H235 H 0.3615 0.13296 0.63516 0.0
O236 O 0.1962 0.15497 0.47214 0.0
C237 C 0.27104 0.17228 0.60667 0.0
Co238 Co 0.8597 0.24376 0.48367 0.0
Co239 Co 0.87227 0.31945 0.5159 0.0
C240 C 0.82707 0.29852 0.41682 0.0
O241 O 0.83286 0.26837 0.42904 0.0
O242 O 0.84042 0.32241 0.44563 0.0
C243 C 0.83655 0.18517 0.42527 0.0
O244 O 0.8236 0.20632 0.38754 0.0
C245 C 0.90545 0.38634 0.50284 0.0
C246 C 0.90599 0.40273 0.59584 0.0
C247 C 0.91678 0.41175 0.5399 0.0
N248 N 0.88943 0.3633 0.53592 0.0
N249 N 0.88966 0.37365 0.59132 0.0
C250 C 0.90811 0.38485 0.43693 0.0
H251 H 0.89036 0.3664 0.41876 0.0
H252 H 0.93352 0.37746 0.4237 0.0
H253 H 0.90319 0.40979 0.41776 0.0
C254 C 0.93072 0.24363 0.46657 0.0
N255 N 0.90268 0.25962 0.48075 0.0
N256 N 0.90936 0.29026 0.4977 0.0
C257 C 0.94277 0.29404 0.49708 0.0
C258 C 0.95703 0.2649 0.47601 0.0
C259 C 0.93198 0.2079 0.44808 0.0
H260 H 0.91644 0.20442 0.40808 0.0
H261 H 0.95768 0.19945 0.43891 0.0
H262 H 0.92129 0.19224 0.48371 0.0
O263 O 0.84259 0.24806 0.56292 0.0
O264 O 0.84693 0.30137 0.58746 0.0
H265 H 0.98645 0.31742 0.53358 0.0
H266 H 0.96364 0.34212 0.48212 0.0
C267 C 0.96108 0.32404 0.51868 0.0
H268 H 0.94753 0.33576 0.55581 0.0
H269 H 0.87946 0.36032 0.62651 0.0
O270 O 0.8554 0.19587 0.46607 0.0
C271 C 0.83812 0.27152 0.59937 0.0
H272 H 0.52904 0.30333 0.02817 0.0
H273 H 0.5005 0.21327 0.93796 0.0
H274 H 0.47342 0.32544 0.01564 0.0
H275 H 0.44372 0.23443 0.92844 0.0
H276 H 0.35798 0.29827 0.8603 0.0
H277 H 0.41375 0.2757 0.87354 0.0
H278 H 0.41836 0.3202 0.04727 0.0
H279 H 0.36367 0.34388 0.03293 0.0
C280 C 0.51059 0.28814 0.00619 0.0
C281 C 0.51899 0.25692 0.98308 0.0
C282 C 0.47861 0.30062 0.99952 0.0
C283 C 0.4541 0.28183 0.97058 0.0
C284 C 0.4622 0.24982 0.94985 0.0
C285 C 0.49447 0.23747 0.95602 0.0
C286 C 0.37117 0.30355 0.90092 0.0
C287 C 0.35653 0.32299 0.94537 0.0
C288 C 0.40293 0.29028 0.90885 0.0
C289 C 0.42046 0.29594 0.96164 0.0
C290 C 0.40584 0.31573 0.0057 0.0
C291 C 0.37439 0.32932 0.99747 0.0
H292 H 0.72852 0.34919 0.85993 0.0
H293 H 0.65936 0.36846 0.00214 0.0
H294 H 0.75413 0.40344 0.87631 0.0
H295 H 0.68487 0.42262 0.01803 0.0
H296 H 0.76091 0.4986 0.07639 0.0
H297 H 0.73981 0.44252 0.05615 0.0
H298 H 0.74044 0.46399 0.86898 0.0
H299 H 0.76172 0.51981 0.88969 0.0
C300 C 0.71849 0.36516 0.89409 0.0
C301 C 0.69205 0.35445 0.92997 0.0
C302 C 0.7332 0.39615 0.9035 0.0
C303 C 0.72185 0.41689 0.94913 0.0
C304 C 0.6946 0.40676 0.98343 0.0
C305 C 0.67975 0.3759 0.97382 0.0
C306 C 0.75732 0.4908 0.03103 0.0
C307 C 0.76308 0.51294 0.98443 0.0
C308 C 0.74491 0.45904 0.01942 0.0
C309 C 0.73815 0.44914 0.96102 0.0
C310 C 0.74559 0.47091 0.91431 0.0
C311 C 0.7578 0.50268 0.92602 0.0
H312 H 0.64543 0.66087 0.05339 0.0
H313 H 0.64426 0.69765 0.87385 0.0
H314 H 0.59378 0.68967 0.07341 0.0
H315 H 0.5915 0.72537 0.89318 0.0
H316 H 0.51176 0.79503 0.9553 0.0
H317 H 0.56763 0.77138 0.94603 0.0
H318 H 0.53694 0.68701 0.05161 0.0
H319 H 0.48223 0.71155 0.06291 0.0
C320 C 0.63378 0.67456 0.01775 0.0
C321 C 0.64889 0.6769 0.9619 0.0
C322 C 0.60414 0.69116 0.02932 0.0
C323 C 0.58859 0.71008 0.98507 0.0
C324 C 0.60323 0.71167 0.92868 0.0
C325 C 0.63318 0.69537 0.9173 0.0
C326 C 0.51755 0.77198 0.97787 0.0
C327 C 0.49295 0.75479 0.00921 0.0
C328 C 0.54923 0.75815 0.97185 0.0
C329 C 0.55656 0.72696 0.99708 0.0
C330 C 0.53232 0.71108 0.03178 0.0
C331 C 0.50092 0.72502 0.0381 0.0
H332 H 0.3017 0.48095 0.04771 0.0
H333 H 0.21358 0.50878 0.95144 0.0
H334 H 0.32492 0.53594 0.0319 0.0
H335 H 0.23582 0.56502 0.93843 0.0
H336 H 0.3027 0.64597 0.86164 0.0
H337 H 0.27824 0.59155 0.88134 0.0
H338 H 0.32157 0.59225 0.05616 0.0
H339 H 0.34719 0.64552 0.03541 0.0
C340 C 0.28709 0.49921 0.02401 0.0
C341 C 0.25621 0.4907 0.99984 0.0
C342 C 0.30023 0.53083 0.01534 0.0
C343 C 0.28242 0.55484 0.98324 0.0
C344 C 0.2505 0.54684 0.96215 0.0
C345 C 0.23751 0.51492 0.97034 0.0
C346 C 0.30735 0.63418 0.90389 0.0
C347 C 0.32703 0.64989 0.94677 0.0
C348 C 0.29296 0.60325 0.91553 0.0
C349 C 0.29767 0.58766 0.97056 0.0
C350 C 0.31776 0.60328 0.01302 0.0
C351 C 0.33251 0.63388 0.00107 0.0
H352 H 0.99447 0.70949 0.46131 0.0
H353 H 0.02151 0.79282 0.57104 0.0
H354 H 0.93821 0.732 0.45135 0.0
H355 H 0.96644 0.81633 0.55897 0.0
H356 H 0.85853 0.84276 0.55514 0.0
H357 H 0.90955 0.81352 0.57788 0.0
H358 H 0.91438 0.7775 0.39803 0.0
H359 H 0.86211 0.80555 0.3761 0.0
C360 C 0.98803 0.73222 0.48428 0.0
C361 C 0.01207 0.74977 0.51627 0.0
C362 C 0.95612 0.74542 0.47786 0.0
C363 C 0.94802 0.77635 0.50327 0.0
C364 C 0.97163 0.79244 0.53895 0.0
C365 C 0.00325 0.7791 0.54572 0.0
C366 C 0.87062 0.82889 0.52019 0.0
C367 C 0.85643 0.82664 0.46363 0.0
C368 C 0.89988 0.81202 0.53333 0.0
C369 C 0.91602 0.79298 0.48993 0.0
C370 C 0.90219 0.79131 0.43292 0.0
C371 C 0.87255 0.8078 0.42001 0.0
H372 H 0.20392 0.02777 0.54959 0.0
H373 H 0.28988 0.99815 0.44882 0.0
H374 H 0.17945 0.97309 0.53563 0.0
H375 H 0.26625 0.94235 0.43702 0.0
H376 H 0.19579 0.86393 0.3624 0.0
H377 H 0.22148 0.91781 0.38141 0.0
H378 H 0.18269 0.91619 0.5596 0.0
H379 H 0.15597 0.86332 0.53988 0.0
C380 C 0.21781 0.00914 0.52539 0.0
C381 C 0.24841 0.01703 0.49941 0.0
C382 C 0.20393 0.97776 0.51766 0.0
C383 C 0.22068 0.95347 0.48447 0.0
C384 C 0.25239 0.96081 0.46163 0.0
C385 C 0.26617 0.99244 0.46907 0.0
C386 C 0.19239 0.87537 0.4053 0.0
C387 C 0.17379 0.85944 0.44952 0.0
C388 C 0.20749 0.90599 0.41649 0.0
C389 C 0.20449 0.9211 0.47228 0.0
C390 C 0.18526 0.90543 0.51598 0.0
C391 C 0.16988 0.87508 0.5046 0.0
H392 H 0.13639 0.15489 0.50523 0.0
H393 H 0.15728 0.21756 0.35428 0.0
H394 H 0.08181 0.18024 0.51455 0.0
H395 H 0.10262 0.24316 0.36421 0.0
H396 H 0.98689 0.25246 0.37171 0.0
H397 H 0.0426 0.22974 0.35635 0.0
H398 H 0.06098 0.23584 0.54421 0.0
H399 H 0.00495 0.25799 0.5592 0.0
C400 C 0.12923 0.17385 0.47368 0.0
C401 C 0.15125 0.18441 0.42928 0.0
C402 C 0.09811 0.1886 0.47945 0.0
C403 C 0.0883 0.21411 0.44083 0.0
C404 C 0.10962 0.22359 0.39466 0.0
C405 C 0.14086 0.20888 0.38895 0.0
C406 C 0.00328 0.24953 0.40932 0.0
C407 C 0.99216 0.25706 0.46646 0.0
C408 C 0.03501 0.23655 0.40064 0.0
C409 C 0.05592 0.23073 0.44916 0.0
C410 C 0.04513 0.23963 0.50615 0.0
C411 C 0.0134 0.25269 0.51473 0.0
H412 H 0.7904 0.15587 0.35362 0.0
H413 H 0.85269 0.13718 0.50565 0.0
H414 H 0.76272 0.10259 0.36916 0.0
H415 H 0.82522 0.08391 0.52059 0.0
H416 H 0.7462 0.00991 0.57232 0.0
H417 H 0.76917 0.0653 0.55254 0.0
H418 H 0.77409 0.04205 0.36628 0.0
H419 H 0.75076 0.98702 0.38645 0.0
C420 C 0.79855 0.1402 0.38975 0.0
C421 C 0.82361 0.15085 0.42862 0.0
C422 C 0.78262 0.10975 0.3987 0.0
C423 C 0.7914 0.08945 0.44674 0.0
C424 C 0.81739 0.09946 0.48407 0.0
C425 C 0.83339 0.1298 0.47503 0.0
C426 C 0.75136 0.01721 0.52715 0.0
C427 C 0.74661 0.99474 0.48073 0.0
C428 C 0.76488 0.04856 0.51584 0.0
C429 C 0.7738 0.05775 0.45793 0.0
C430 C 0.7673 0.03573 0.41122 0.0
C431 C 0.75392 0.00438 0.42263 0.0
H432 H 0.31776 0.24484 0.42806 0.0
H433 H 0.28963 0.16582 0.30975 0.0
H434 H 0.30058 0.286 0.35423 0.0
H435 H 0.2723 0.20664 0.23612 0.0
H436 H 0.19975 0.28316 0.1622 0.0
H437 H 0.22288 0.24582 0.23767 0.0
H438 H 0.30971 0.30837 0.25118 0.0
H439 H 0.28669 0.34536 0.17617 0.0
C440 C 0.30975 0.23633 0.38495 0.0
C441 C 0.30575 0.2022 0.37398 0.0
C442 C 0.29923 0.25983 0.34315 0.0
C443 C 0.28418 0.24948 0.29013 0.0
C444 C 0.28305 0.21535 0.27716 0.0
C445 C 0.29383 0.19198 0.3186 0.0
C446 C 0.22324 0.28936 0.18272 0.0
C447 C 0.24137 0.31714 0.16369 0.0
C448 C 0.23679 0.26777 0.22507 0.0
C449 C 0.26845 0.27389 0.24945 0.0
C450 C 0.28539 0.30294 0.23318 0.0
C451 C 0.27211 0.32416 0.19045 0.0
H452 H 0.72139 0.19935 0.15534 0.0
H453 H 0.6654 0.29081 0.1599 0.0
H454 H 0.75826 0.22116 0.23261 0.0
H455 H 0.70186 0.31242 0.23703 0.0
H456 H 0.76233 0.31796 0.4189 0.0
H457 H 0.72125 0.3019 0.34399 0.0
H458 H 0.80042 0.26923 0.22925 0.0
H459 H 0.84112 0.28559 0.30359 0.0
C460 C 0.71642 0.22364 0.17406 0.0
C461 C 0.69062 0.24338 0.15178 0.0
C462 C 0.73772 0.23635 0.21756 0.0
C463 C 0.7332 0.26876 0.24001 0.0
C464 C 0.706 0.28748 0.22049 0.0
C465 C 0.68513 0.27504 0.17649 0.0
C466 C 0.77088 0.3091 0.37633 0.0
C467 C 0.80485 0.30374 0.36631 0.0
C468 C 0.74742 0.29928 0.33396 0.0
C469 C 0.75768 0.28346 0.28155 0.0
C470 C 0.79178 0.28066 0.26979 0.0
C471 C 0.8151 0.29078 0.31166 0.0
H472 H 0.81092 0.71924 0.17008 0.0
H473 H 0.71989 0.663 0.1826 0.0
H474 H 0.79006 0.75773 0.24567 0.0
H475 H 0.69901 0.70129 0.25717 0.0
H476 H 0.68952 0.76521 0.43076 0.0
H477 H 0.70654 0.72303 0.35856 0.0
H478 H 0.74538 0.80039 0.24547 0.0
H479 H 0.72852 0.84212 0.31766 0.0
C480 C 0.78692 0.7146 0.19011 0.0
C481 C 0.76705 0.68819 0.17046 0.0
C482 C 0.77469 0.73688 0.23262 0.0
C483 C 0.74255 0.73291 0.25656 0.0
C484 C 0.72376 0.70514 0.23968 0.0
C485 C 0.7358 0.68318 0.19698 0.0
C486 C 0.70014 0.77316 0.38908 0.0
C487 C 0.707 0.80691 0.37903 0.0
C488 C 0.71047 0.74904 0.3482 0.0
C489 C 0.72814 0.75833 0.297 0.0
C490 C 0.73263 0.79233 0.28513 0.0
C491 C 0.7222 0.8163 0.3257 0.0
H492 H 0.28784 0.81264 0.16023 0.0
H493 H 0.33463 0.71606 0.15593 0.0
H494 H 0.24882 0.79211 0.23535 0.0
H495 H 0.29581 0.69562 0.22988 0.0
H496 H 0.23561 0.68516 0.40773 0.0
H497 H 0.27753 0.70101 0.33412 0.0
H498 H 0.20202 0.75154 0.23269 0.0
H499 H 0.16057 0.73576 0.30603 0.0
C500 C 0.29024 0.78735 0.17621 0.0
C501 C 0.31413 0.76596 0.15201 0.0
C502 C 0.26768 0.7754 0.21853 0.0
C503 C 0.2689 0.742 0.23776 0.0
C504 C 0.29414 0.72137 0.21607 0.0
C505 C 0.31635 0.73315 0.1736 0.0
C506 C 0.22783 0.69818 0.36817 0.0
C507 C 0.19483 0.70874 0.36193 0.0
C508 C 0.25187 0.70782 0.32656 0.0
C509 C 0.24321 0.72838 0.27847 0.0
C510 C 0.20966 0.73651 0.27002 0.0
C511 C 0.18578 0.72678 0.31123 0.0
H512 H 0.78772 0.84377 0.67912 0.0
H513 H 0.69419 0.79147 0.67244 0.0
H514 H 0.80786 0.80541 0.75418 0.0
H515 H 0.7143 0.75297 0.74867 0.0
H516 H 0.77333 0.66655 0.82003 0.0
H517 H 0.75682 0.70845 0.74793 0.0
H518 H 0.80117 0.78484 0.85634 0.0
H519 H 0.81787 0.74244 0.92852 0.0
C520 C 0.77113 0.82447 0.69487 0.0
C521 C 0.73938 0.82052 0.66977 0.0
C522 C 0.78274 0.80248 0.73791 0.0
C523 C 0.76298 0.77577 0.75663 0.0
C524 C 0.73039 0.77297 0.73419 0.0
C525 C 0.71862 0.79526 0.69129 0.0
C526 C 0.78081 0.69214 0.82709 0.0
C527 C 0.79751 0.70122 0.8791 0.0
C528 C 0.77063 0.71624 0.78658 0.0
C529 C 0.77685 0.75008 0.79718 0.0
C530 C 0.79588 0.75896 0.84701 0.0
C531 C 0.806 0.7347 0.88785 0.0
H532 H 0.16667 0.78863 0.6649 0.0
H533 H 0.22309 0.69755 0.6548 0.0
H534 H 0.20519 0.81055 0.73795 0.0
H535 H 0.26185 0.71949 0.72898 0.0
H536 H 0.34551 0.78125 0.80126 0.0
H537 H 0.30431 0.76461 0.72809 0.0
H538 H 0.22645 0.80355 0.83959 0.0
H539 H 0.26804 0.82035 0.91273 0.0
C540 C 0.18702 0.77299 0.67937 0.0
C541 C 0.19197 0.74137 0.65409 0.0
C542 C 0.20909 0.78562 0.72122 0.0
C543 C 0.2369 0.76707 0.73848 0.0
C544 C 0.24095 0.73466 0.71557 0.0
C545 C 0.21855 0.72183 0.67389 0.0
C546 C 0.31972 0.78774 0.80866 0.0
C547 C 0.30998 0.80271 0.86198 0.0
C548 C 0.29605 0.77741 0.76754 0.0
C549 C 0.26206 0.78186 0.77884 0.0
C550 C 0.25247 0.79963 0.82972 0.0
C551 C 0.27627 0.80987 0.87112 0.0
H552 H 0.30597 0.22112 0.66424 0.0
H553 H 0.2146 0.16512 0.66976 0.0
H554 H 0.28397 0.25882 0.74016 0.0
H555 H 0.19274 0.20245 0.74531 0.0
H556 H 0.18595 0.26383 0.9252 0.0
H557 H 0.20186 0.2225 0.85064 0.0
H558 H 0.23708 0.30131 0.7371 0.0
H559 H 0.22097 0.34227 0.81128 0.0
C560 C 0.28165 0.21635 0.68287 0.0
C561 C 0.26202 0.19027 0.66126 0.0
C562 C 0.26881 0.23814 0.72555 0.0
C563 C 0.23635 0.23388 0.74781 0.0
C564 C 0.21771 0.20644 0.72894 0.0
C565 C 0.23031 0.18505 0.68583 0.0
C566 C 0.1953 0.2723 0.88289 0.0
C567 C 0.20153 0.30622 0.87332 0.0
C568 C 0.20506 0.24867 0.84071 0.0
C569 C 0.22159 0.25869 0.78883 0.0
C570 C 0.22512 0.29281 0.77727 0.0
C571 C 0.21512 0.31631 0.81902 0.0
H572 H 0.74709 0.18742 0.91943 0.0
H573 H 0.66893 0.21554 0.79954 0.0
H574 H 0.78864 0.20404 0.84582 0.0
H575 H 0.71013 0.2324 0.72627 0.0
H576 H 0.78722 0.3049 0.65376 0.0
H577 H 0.74981 0.28202 0.7293 0.0
H578 H 0.81095 0.19411 0.74166 0.0
H579 H 0.848 0.21683 0.66634 0.0
C580 C 0.73884 0.19532 0.87607 0.0
C581 C 0.70485 0.19946 0.86454 0.0
C582 C 0.76257 0.20551 0.83441 0.0
C583 C 0.75256 0.22042 0.78103 0.0
C584 C 0.71856 0.22172 0.76758 0.0
C585 C 0.69497 0.21124 0.80884 0.0
C586 C 0.79312 0.2812 0.67399 0.0
C587 C 0.82049 0.26268 0.65444 0.0
C588 C 0.77149 0.26782 0.71641 0.0
C589 C 0.77716 0.23595 0.74047 0.0
C590 C 0.80586 0.21859 0.72383 0.0
C591 C 0.82711 0.2317 0.68093 0.0
H592 H 0.97878 0.60216 0.08157 0.0
H593 H 0.91656 0.53569 0.98114 0.0
H594 H 0.0243 0.56236 0.07561 0.0
H595 H 0.96219 0.49573 0.97496 0.0
H596 H 0.06146 0.43772 0.95058 0.0
H597 H 0.01935 0.48146 0.93978 0.0
H598 H 0.0338 0.50919 0.1222 0.0
H599 H 0.07589 0.4665 0.13248 0.0
C600 C 0.97503 0.57933 0.05704 0.0
C601 C 0.9441 0.57252 0.03097 0.0
C602 C 1.00108 0.55633 0.05398 0.0
C603 C 0.99695 0.52553 0.02533 0.0
C604 C 0.96649 0.5193 0.99679 0.0
C605 C 0.94032 0.54245 0.99982 0.0
C606 C 0.05608 0.45356 0.98798 0.0
C607 C 0.07253 0.44873 0.04222 0.0
C608 C 0.03163 0.47843 0.98199 0.0
C609 C 0.02329 0.49924 0.02992 0.0
C610 C 0.03987 0.49425 0.08388 0.0
C611 C 0.06391 0.46941 0.08995 0.0
H612 H 0.54461 0.07509 0.12684 0.0
H613 H 0.57173 0.0609 0.94399 0.0
H614 H 0.50273 0.03211 0.11823 0.0
H615 H 0.52865 0.01803 0.93482 0.0
H616 H 0.47426 0.91535 0.97472 0.0
H617 H 0.51459 0.96076 0.96928 0.0
H618 H 0.44942 0.02242 0.07379 0.0
H619 H 0.40939 0.9772 0.07937 0.0
C620 C 0.54151 0.06299 0.08445 0.0
C621 C 0.56145 0.07203 0.03593 0.0
C622 C 0.51712 0.03841 0.07936 0.0
C623 C 0.5118 0.02174 0.02558 0.0
C624 C 0.53194 0.03037 0.97693 0.0
C625 C 0.55641 0.05531 0.98198 0.0
C626 C 0.46804 0.93887 0.99501 0.0
C627 C 0.43831 0.94255 0.02719 0.0
C628 C 0.49135 0.96495 0.99218 0.0
C629 C 0.48559 0.99525 0.02174 0.0
C630 C 0.45516 0.99929 0.05151 0.0
C631 C 0.43203 0.97335 0.05442 0.0
H632 H 0.4301 0.04206 0.63511 0.0
H633 H 0.44375 0.07027 0.45262 0.0
H634 H 0.47283 1.00002 0.62512 0.0
H635 H 0.48635 0.02708 0.44205 0.0
H636 H 0.58962 0.97391 0.48146 0.0
H637 H 0.54355 0.0134 0.47573 0.0
H638 H 0.48301 0.94689 0.57996 0.0
H639 H 0.529 0.90765 0.58562 0.0
C640 C 0.44202 0.03915 0.5925 0.0
C641 C 0.43294 0.05946 0.54451 0.0
C642 C 0.46643 0.01466 0.5866 0.0
C643 C 0.48291 0.00965 0.53252 0.0
C644 C 0.47417 0.03012 0.48436 0.0
C645 C 0.44939 0.05466 0.49022 0.0
C646 C 0.56611 0.96709 0.50112 0.0
C647 C 0.5629 0.93725 0.53319 0.0
C648 C 0.53969 0.98996 0.49833 0.0
C649 C 0.50954 0.98364 0.52797 0.0
C650 C 0.50598 0.95302 0.55753 0.0
C651 C 0.53229 0.93033 0.5604 0.0
H652 H 0.06767 0.5631 0.43975 0.0
H653 H 0.05269 0.5664 0.62858 0.0
H654 H 0.02355 0.52128 0.43152 0.0
H655 H 0.00987 0.52436 0.62064 0.0
H656 H 0.91399 0.47233 0.59227 0.0
H657 H 0.95396 0.51762 0.58639 0.0
H658 H 0.01046 0.46256 0.45715 0.0
H659 H 0.97012 0.41716 0.46284 0.0
C660 C 0.05481 0.55534 0.47938 0.0
C661 C 0.06353 0.56875 0.53475 0.0
C662 C 0.02974 0.53099 0.47474 0.0
C663 C 0.01267 0.51961 0.52531 0.0
C664 C 0.02176 0.53289 0.58046 0.0
C665 C 0.04673 0.55691 0.58508 0.0
C666 C 0.93462 0.47006 0.56177 0.0
C667 C 0.93853 0.44109 0.52771 0.0
C668 C 0.95775 0.49599 0.5587 0.0
C669 C 0.98587 0.4937 0.52193 0.0
C670 C 0.98904 0.4654 0.48562 0.0
C671 C 0.96568 0.43936 0.48858 0.0
loop_
_geom_bond_atom_site_label_1
_geom_bond_atom_site_label_2
_geom_bond_distance
_geom_bond_site_symmetry_2
_ccdc_geom_bond_type
Co0 O3 1.970 1_554 S
Co0 N17 1.989 . S
Co0 O25 1.967 . S
Co0 O32 1.920 . S
Co1 O4 1.966 1_554 S
Co1 N10 2.022 . S
Co1 N18 1.993 . S
Co1 O26 1.941 . S
C2 O3 1.258 . S
C2 O4 1.263 . S
O3 Co0 1.970 1_556 S
O3 C2 1.258 . S
O4 Co1 1.966 1_556 S
O4 C2 1.263 . S
C5 O6 1.235 . S
C5 O32 1.289 1_556 S
O6 C5 1.235 . S
C7 C9 1.400 . S
C7 N10 1.351 1_556 S
C7 C12 1.501 . S
C8 C9 1.387 1_554 S
C8 N11 1.341 . S
C9 C7 1.400 . S
C9 C8 1.387 1_556 S
N10 Co1 2.022 . S
N10 C7 1.351 1_554 S
N10 N11 1.365 . S
N11 C8 1.341 . S
N11 N10 1.365 . S
N11 H31 0.862 . S
C12 C7 1.501 . S
C12 H13 0.961 . S
C12 H14 0.961 . S
C12 H15 0.960 . S
H13 C12 0.961 . S
H14 C12 0.961 . S
H15 C12 0.960 . S
C16 N17 1.342 . S
C16 C20 1.401 . S
C16 C21 1.499 . S
N17 Co0 1.989 . S
N17 C16 1.342 . S
N17 N18 1.388 . S
N18 Co1 1.993 . S
N18 N17 1.388 . S
N18 C19 1.346 . S
C19 N18 1.346 . S
C19 C20 1.396 . S
C19 C29 1.510 . S
C20 C16 1.401 . S
C20 C19 1.396 . S
C21 C16 1.499 . S
C21 H22 0.959 . S
C21 H23 0.960 1_554 S
C21 H24 0.961 . S
H22 C21 0.959 . S
H23 C21 0.960 1_556 S
H24 C21 0.961 . S
O25 Co0 1.967 . S
O25 C33 1.258 . S
O26 Co1 1.941 . S
O26 C33 1.266 . S
H27 C29 0.959 . S
H28 C29 0.961 1_556 S
C29 C19 1.510 . S
C29 H27 0.959 . S
C29 H28 0.961 1_554 S
C29 H30 0.960 . S
H30 C29 0.960 . S
H31 N11 0.862 . S
O32 Co0 1.920 . S
O32 C5 1.289 1_554 S
C33 O25 1.258 . S
C33 O26 1.266 . S
Co34 O37 1.970 1_554 S
Co34 N51 1.989 . S
Co34 O59 1.967 . S
Co34 O66 1.920 . S
Co35 O38 1.966 1_554 S
Co35 N44 2.022 . S
Co35 N52 1.993 . S
Co35 O60 1.941 . S
C36 O37 1.258 . S
C36 O38 1.263 . S
O37 Co34 1.970 1_556 S
O37 C36 1.258 . S
O38 Co35 1.966 1_556 S
O38 C36 1.263 . S
C39 O40 1.235 . S
C39 O66 1.289 1_556 S
O40 C39 1.235 . S
C41 C43 1.400 . S
C41 N44 1.351 1_556 S
C41 C46 1.501 . S
C42 C43 1.387 1_554 S
C42 N45 1.341 . S
C43 C41 1.400 . S
C43 C42 1.387 1_556 S
N44 Co35 2.022 . S
N44 C41 1.351 1_554 S
N44 N45 1.365 . S
N45 C42 1.341 . S
N45 N44 1.365 . S
N45 H65 0.862 . S
C46 C41 1.501 . S
C46 H47 0.961 . S
C46 H48 0.961 . S
C46 H49 0.960 . S
H47 C46 0.961 . S
H48 C46 0.961 . S
H49 C46 0.960 . S
C50 N51 1.342 . S
C50 C54 1.401 . S
C50 C55 1.499 . S
N51 Co34 1.989 . S
N51 C50 1.342 . S
N51 N52 1.388 . S
N52 Co35 1.993 . S
N52 N51 1.388 . S
N52 C53 1.346 . S
C53 N52 1.346 . S
C53 C54 1.396 . S
C53 C63 1.510 . S
C54 C50 1.401 . S
C54 C53 1.396 . S
C55 C50 1.499 . S
C55 H56 0.959 . S
C55 H57 0.960 1_554 S
C55 H58 0.961 . S
H56 C55 0.959 . S
H57 C55 0.960 1_556 S
H58 C55 0.961 . S
O59 Co34 1.967 . S
O59 C67 1.258 . S
O60 Co35 1.941 . S
O60 C67 1.266 . S
H61 C63 0.959 . S
H62 C63 0.961 1_556 S
C63 C53 1.510 . S
C63 H61 0.959 . S
C63 H62 0.961 1_554 S
C63 H64 0.960 . S
H64 C63 0.960 . S
H65 N45 0.862 . S
O66 Co34 1.920 . S
O66 C39 1.289 1_554 S
C67 O59 1.258 . S
C67 O60 1.266 . S
Co68 O71 1.970 1_554 S
Co68 N85 1.989 . S
Co68 O93 1.967 . S
Co68 O100 1.920 . S
Co69 O72 1.966 1_554 S
Co69 N78 2.022 . S
Co69 N86 1.993 . S
Co69 O94 1.941 . S
C70 O71 1.258 . S
C70 O72 1.263 . S
O71 Co68 1.970 1_556 S
O71 C70 1.258 . S
O72 Co69 1.966 1_556 S
O72 C70 1.263 . S
C73 O74 1.235 . S
C73 O100 1.289 1_556 S
O74 C73 1.235 . S
C75 C77 1.400 . S
C75 N78 1.351 1_556 S
C75 C80 1.501 . S
C76 C77 1.387 1_554 S
C76 N79 1.341 . S
C77 C75 1.400 . S
C77 C76 1.387 1_556 S
N78 Co69 2.022 . S
N78 C75 1.351 1_554 S
N78 N79 1.365 . S
N79 C76 1.341 . S
N79 N78 1.365 . S
N79 H99 0.862 . S
C80 C75 1.501 . S
C80 H81 0.961 . S
C80 H82 0.961 . S
C80 H83 0.960 . S
H81 C80 0.961 . S
H82 C80 0.961 . S
H83 C80 0.960 . S
C84 N85 1.342 . S
C84 C88 1.401 . S
C84 C89 1.499 . S
N85 Co68 1.989 . S
N85 C84 1.342 . S
N85 N86 1.388 . S
N86 Co69 1.993 . S
N86 N85 1.388 . S
N86 C87 1.346 . S
C87 N86 1.346 . S
C87 C88 1.396 . S
C87 C97 1.510 . S
C88 C84 1.401 . S
C88 C87 1.396 . S
C89 C84 1.499 . S
C89 H90 0.959 . S
C89 H91 0.960 1_554 S
C89 H92 0.961 . S
H90 C89 0.959 . S
H91 C89 0.960 1_556 S
H92 C89 0.961 . S
O93 Co68 1.967 . S
O93 C101 1.258 . S
O94 Co69 1.941 . S
O94 C101 1.266 . S
H95 C97 0.959 . S
H96 C97 0.961 1_556 S
C97 C87 1.510 . S
C97 H95 0.959 . S
C97 H96 0.961 1_554 S
C97 H98 0.960 . S
H98 C97 0.960 . S
H99 N79 0.862 . S
O100 Co68 1.920 . S
O100 C73 1.289 1_554 S
C101 O93 1.258 . S
C101 O94 1.266 . S
Co102 O105 1.970 1_554 S
Co102 N119 1.989 . S
Co102 O127 1.967 . S
Co102 O134 1.920 . S
Co103 O106 1.966 1_554 S
Co103 N112 2.022 . S
Co103 N120 1.993 . S
Co103 O128 1.941 . S
C104 O105 1.258 . S
C104 O106 1.263 . S
O105 Co102 1.970 1_556 S
O105 C104 1.258 . S
O106 Co103 1.966 1_556 S
O106 C104 1.263 . S
C107 O108 1.235 . S
C107 O134 1.289 1_556 S
O108 C107 1.235 . S
C109 C111 1.400 . S
C109 N112 1.351 1_556 S
C109 C114 1.501 . S
C110 C111 1.387 1_554 S
C110 N113 1.341 . S
C111 C109 1.400 . S
C111 C110 1.387 1_556 S
N112 Co103 2.022 . S
N112 C109 1.351 1_554 S
N112 N113 1.365 . S
N113 C110 1.341 . S
N113 N112 1.365 . S
N113 H133 0.862 . S
C114 C109 1.501 . S
C114 H115 0.961 . S
C114 H116 0.961 . S
C114 H117 0.960 . S
H115 C114 0.961 . S
H116 C114 0.961 . S
H117 C114 0.960 . S
C118 N119 1.342 . S
C118 C122 1.401 . S
C118 C123 1.499 . S
N119 Co102 1.989 . S
N119 C118 1.342 . S
N119 N120 1.388 . S
N120 Co103 1.993 . S
N120 N119 1.388 . S
N120 C121 1.346 . S
C121 N120 1.346 . S
C121 C122 1.396 . S
C121 C131 1.510 . S
C122 C118 1.401 . S
C122 C121 1.396 . S
C123 C118 1.499 . S
C123 H124 0.959 . S
C123 H125 0.960 1_554 S
C123 H126 0.961 . S
H124 C123 0.959 . S
H125 C123 0.960 1_556 S
H126 C123 0.961 . S
O127 Co102 1.967 . S
O127 C135 1.258 . S
O128 Co103 1.941 . S
O128 C135 1.266 . S
H129 C131 0.959 . S
H130 C131 0.961 1_556 S
C131 C121 1.510 . S
C131 H129 0.959 . S
C131 H130 0.961 1_554 S
C131 H132 0.960 . S
H132 C131 0.960 . S
H133 N113 0.862 . S
O134 Co102 1.920 . S
O134 C107 1.289 1_554 S
C135 O127 1.258 . S
C135 O128 1.266 . S
Co136 O139 1.970 . S
Co136 N153 1.989 . S
Co136 O161 1.967 . S
Co136 O168 1.920 . S
Co137 O140 1.966 . S
Co137 N146 2.022 . S
Co137 N154 1.993 . S
Co137 O162 1.941 . S
C138 O139 1.258 . S
C138 O140 1.263 . S
O139 Co136 1.970 . S
O139 C138 1.258 . S
O140 Co137 1.966 . S
O140 C138 1.263 . S
C141 O142 1.235 . S
C141 O168 1.289 . S
O142 C141 1.235 . S
C143 C145 1.400 . S
C143 N146 1.351 . S
C143 C148 1.501 . S
C144 C145 1.387 . S
C144 N147 1.341 . S
C145 C143 1.400 . S
C145 C144 1.387 . S
N146 Co137 2.022 . S
N146 C143 1.351 . S
N146 N147 1.365 . S
N147 C144 1.341 . S
N147 N146 1.365 . S
N147 H167 0.862 . S
C148 C143 1.501 . S
C148 H149 0.961 . S
C148 H150 0.961 . S
C148 H151 0.960 . S
H149 C148 0.961 . S
H150 C148 0.961 . S
H151 C148 0.960 . S
C152 N153 1.342 . S
C152 C156 1.401 . S
C152 C157 1.499 . S
N153 Co136 1.989 . S
N153 C152 1.342 . S
N153 N154 1.388 . S
N154 Co137 1.993 . S
N154 N153 1.388 . S
N154 C155 1.346 . S
C155 N154 1.346 . S
C155 C156 1.396 . S
C155 C165 1.510 . S
C156 C152 1.401 . S
C156 C155 1.396 . S
C157 C152 1.499 . S
C157 H158 0.959 . S
C157 H159 0.960 . S
C157 H160 0.961 . S
H158 C157 0.959 . S
H159 C157 0.960 . S
H160 C157 0.961 . S
O161 Co136 1.967 . S
O161 C169 1.258 . S
O162 Co137 1.941 . S
O162 C169 1.266 . S
H163 C165 0.959 . S
H164 C165 0.961 . S
C165 C155 1.510 . S
C165 H163 0.959 . S
C165 H164 0.961 . S
C165 H166 0.960 . S
H166 C165 0.960 . S
H167 N147 0.862 . S
O168 Co136 1.920 . S
O168 C141 1.289 . S
C169 O161 1.258 . S
C169 O162 1.266 . S
Co170 O173 1.970 . S
Co170 N187 1.989 . S
Co170 O195 1.967 . S
Co170 O202 1.920 . S
Co171 O174 1.966 . S
Co171 N180 2.022 . S
Co171 N188 1.993 . S
Co171 O196 1.941 . S
C172 O173 1.258 . S
C172 O174 1.263 . S
O173 Co170 1.970 . S
O173 C172 1.258 . S
O174 Co171 1.966 . S
O174 C172 1.263 . S
C175 O176 1.235 . S
C175 O202 1.289 . S
O176 C175 1.235 . S
C177 C179 1.400 . S
C177 N180 1.351 . S
C177 C182 1.501 . S
C178 C179 1.387 . S
C178 N181 1.341 . S
C179 C177 1.400 . S
C179 C178 1.387 . S
N180 Co171 2.022 . S
N180 C177 1.351 . S
N180 N181 1.365 . S
N181 C178 1.341 . S
N181 N180 1.365 . S
N181 H201 0.862 . S
C182 C177 1.501 . S
C182 H183 0.961 . S
C182 H184 0.961 . S
C182 H185 0.960 . S
H183 C182 0.961 . S
H184 C182 0.961 . S
H185 C182 0.960 . S
C186 N187 1.342 . S
C186 C190 1.401 . S
C186 C191 1.499 . S
N187 Co170 1.989 . S
N187 C186 1.342 . S
N187 N188 1.388 . S
N188 Co171 1.993 . S
N188 N187 1.388 . S
N188 C189 1.346 . S
C189 N188 1.346 . S
C189 C190 1.396 . S
C189 C199 1.510 . S
C190 C186 1.401 . S
C190 C189 1.396 . S
C191 C186 1.499 . S
C191 H192 0.959 . S
C191 H193 0.960 . S
C191 H194 0.961 . S
H192 C191 0.959 . S
H193 C191 0.960 . S
H194 C191 0.961 . S
O195 Co170 1.967 . S
O195 C203 1.258 . S
O196 Co171 1.941 . S
O196 C203 1.266 . S
H197 C199 0.959 . S
H198 C199 0.961 . S
C199 C189 1.510 . S
C199 H197 0.959 . S
C199 H198 0.961 . S
C199 H200 0.960 . S
H200 C199 0.960 . S
H201 N181 0.862 . S
O202 Co170 1.920 . S
O202 C175 1.289 . S
C203 O195 1.258 . S
C203 O196 1.266 . S
Co204 O207 1.970 . S
Co204 N221 1.989 . S
Co204 O229 1.967 . S
Co204 O236 1.920 . S
Co205 O208 1.966 . S
Co205 N214 2.022 . S
Co205 N222 1.993 . S
Co205 O230 1.941 . S
C206 O207 1.258 . S
C206 O208 1.263 . S
O207 Co204 1.970 . S
O207 C206 1.258 . S
O208 Co205 1.966 . S
O208 C206 1.263 . S
C209 O210 1.235 . S
C209 O236 1.289 . S
O210 C209 1.235 . S
C211 C213 1.400 . S
C211 N214 1.351 . S
C211 C216 1.501 . S
C212 C213 1.387 . S
C212 N215 1.341 . S
C213 C211 1.400 . S
C213 C212 1.387 . S
N214 Co205 2.022 . S
N214 C211 1.351 . S
N214 N215 1.365 . S
N215 C212 1.341 . S
N215 N214 1.365 . S
N215 H235 0.862 . S
C216 C211 1.501 . S
C216 H217 0.961 . S
C216 H218 0.961 . S
C216 H219 0.960 . S
H217 C216 0.961 . S
H218 C216 0.961 . S
H219 C216 0.960 . S
C220 N221 1.342 . S
C220 C224 1.401 . S
C220 C225 1.499 . S
N221 Co204 1.989 . S
N221 C220 1.342 . S
N221 N222 1.388 . S
N222 Co205 1.993 . S
N222 N221 1.388 . S
N222 C223 1.346 . S
C223 N222 1.346 . S
C223 C224 1.396 . S
C223 C233 1.510 . S
C224 C220 1.401 . S
C224 C223 1.396 . S
C225 C220 1.499 . S
C225 H226 0.959 . S
C225 H227 0.960 . S
C225 H228 0.961 . S
H226 C225 0.959 . S
H227 C225 0.960 . S
H228 C225 0.961 . S
O229 Co204 1.967 . S
O229 C237 1.258 . S
O230 Co205 1.941 . S
O230 C237 1.266 . S
H231 C233 0.959 . S
H232 C233 0.961 . S
C233 C223 1.510 . S
C233 H231 0.959 . S
C233 H232 0.961 . S
C233 H234 0.960 . S
H234 C233 0.960 . S
H235 N215 0.862 . S
O236 Co204 1.920 . S
O236 C209 1.289 . S
C237 O229 1.258 . S
C237 O230 1.266 . S
Co238 O241 1.970 . S
Co238 N255 1.989 . S
Co238 O263 1.967 . S
Co238 O270 1.920 . S
Co239 O242 1.966 . S
Co239 N248 2.022 . S
Co239 N256 1.993 . S
Co239 O264 1.941 . S
C240 O241 1.258 . S
C240 O242 1.263 . S
O241 Co238 1.970 . S
O241 C240 1.258 . S
O242 Co239 1.966 . S
O242 C240 1.263 . S
C243 O244 1.235 . S
C243 O270 1.289 . S
O244 C243 1.235 . S
C245 C247 1.400 . S
C245 N248 1.351 . S
C245 C250 1.501 . S
C246 C247 1.387 . S
C246 N249 1.341 . S
C247 C245 1.400 . S
C247 C246 1.387 . S
N248 Co239 2.022 . S
N248 C245 1.351 . S
N248 N249 1.365 . S
N249 C246 1.341 . S
N249 N248 1.365 . S
N249 H269 0.862 . S
C250 C245 1.501 . S
C250 H251 0.961 . S
C250 H252 0.961 . S
C250 H253 0.960 . S
H251 C250 0.961 . S
H252 C250 0.961 . S
H253 C250 0.960 . S
C254 N255 1.342 . S
C254 C258 1.401 . S
C254 C259 1.499 . S
N255 Co238 1.989 . S
N255 C254 1.342 . S
N255 N256 1.388 . S
N256 Co239 1.993 . S
N256 N255 1.388 . S
N256 C257 1.346 . S
C257 N256 1.346 . S
C257 C258 1.396 . S
C257 C267 1.510 . S
C258 C254 1.401 . S
C258 C257 1.396 . S
C259 C254 1.499 . S
C259 H260 0.959 . S
C259 H261 0.960 . S
C259 H262 0.961 . S
H260 C259 0.959 . S
H261 C259 0.960 . S
H262 C259 0.961 . S
O263 Co238 1.967 . S
O263 C271 1.258 . S
O264 Co239 1.941 . S
O264 C271 1.266 . S
H265 C267 0.959 . S
H266 C267 0.961 . S
C267 C257 1.510 . S
C267 H265 0.959 . S
C267 H266 0.961 . S
C267 H268 0.960 . S
H268 C267 0.960 . S
H269 N249 0.862 . S
O270 Co238 1.920 . S
O270 C243 1.289 . S
C271 O263 1.258 . S
C271 O264 1.266 . S
H272 C280 0.950 . S
H273 C285 0.950 . S
H274 C282 0.950 . S
H275 C284 0.950 1_556 S
H276 C286 0.950 . S
H277 C288 0.950 . S
H278 C290 0.950 1_554 S
H279 C291 0.950 . S
C280 H272 0.950 . S
C280 C281 1.386 . S
C280 C282 1.391 . S
C281 C280 1.386 . S
C281 C285 1.393 . S
C282 H274 0.950 . S
C282 C280 1.391 . S
C282 C283 1.400 . S
C283 C282 1.400 . S
C283 C284 1.398 . S
C283 C289 1.491 1_554 S
C284 H275 0.950 1_554 S
C284 C283 1.398 . S
C284 C285 1.391 . S
C285 H273 0.950 . S
C285 C281 1.393 . S
C285 C284 1.391 . S
C286 H276 0.950 . S
C286 C287 1.386 . S
C286 C288 1.391 . S
C287 C286 1.386 . S
C287 C291 1.393 . S
C288 H277 0.950 . S
C288 C286 1.391 . S
C288 C289 1.400 . S
C289 C283 1.491 1_556 S
C289 C288 1.400 . S
C289 C290 1.398 . S
C290 H278 0.950 1_556 S
C290 C289 1.398 . S
C290 C291 1.390 . S
C291 H279 0.950 . S
C291 C287 1.393 . S
C291 C290 1.390 . S
H292 C300 0.950 . S
H293 C305 0.950 . S
H294 C302 0.950 . S
H295 C304 0.950 . S
H296 C306 0.950 . S
H297 C308 0.950 . S
H298 C310 0.950 . S
H299 C311 0.950 . S
C300 H292 0.950 . S
C300 C301 1.386 . S
C300 C302 1.391 . S
C301 C300 1.386 . S
C301 C305 1.393 1_556 S
C302 H294 0.950 . S
C302 C300 1.391 . S
C302 C303 1.400 . S
C303 C302 1.400 . S
C303 C304 1.398 1_556 S
C303 C309 1.491 1_556 S
C304 H295 0.950 . S
C304 C303 1.398 1_554 S
C304 C305 1.391 . S
C305 H293 0.950 . S
C305 C301 1.393 1_554 S
C305 C304 1.391 . S
C306 H296 0.950 . S
C306 C307 1.386 . S
C306 C308 1.391 . S
C307 C306 1.386 . S
C307 C311 1.393 1_554 S
C308 H297 0.950 . S
C308 C306 1.391 . S
C308 C309 1.400 . S
C309 C303 1.491 1_554 S
C309 C308 1.400 . S
C309 C310 1.398 1_554 S
C310 H298 0.950 . S
C310 C309 1.398 1_556 S
C310 C311 1.391 . S
C311 H299 0.950 . S
C311 C307 1.393 1_556 S
C311 C310 1.391 . S
H312 C320 0.950 . S
H313 C325 0.950 . S
H314 C322 0.950 . S
H315 C324 0.950 . S
H316 C326 0.950 . S
H317 C328 0.950 1_556 S
H318 C330 0.950 . S
H319 C331 0.950 . S
C320 H312 0.950 . S
C320 C321 1.386 . S
C320 C322 1.391 1_556 S
C321 C320 1.386 . S
C321 C325 1.393 . S
C322 H314 0.950 . S
C322 C320 1.391 1_554 S
C322 C323 1.400 1_554 S
C323 C322 1.400 1_556 S
C323 C324 1.398 . S
C323 C329 1.491 1_556 S
C324 H315 0.950 . S
C324 C323 1.398 . S
C324 C325 1.391 . S
C325 H313 0.950 . S
C325 C321 1.393 . S
C325 C324 1.391 . S
C326 H316 0.950 . S
C326 C327 1.386 . S
C326 C328 1.391 . S
C327 C326 1.386 . S
C327 C331 1.393 . S
C328 H317 0.950 1_554 S
C328 C326 1.391 . S
C328 C329 1.400 . S
C329 C323 1.491 1_554 S
C329 C328 1.400 . S
C329 C330 1.398 . S
C330 H318 0.950 . S
C330 C329 1.398 . S
C330 C331 1.391 . S
C331 H319 0.950 . S
C331 C327 1.393 . S
C331 C330 1.391 . S
H332 C340 0.950 . S
H333 C345 0.950 . S
H334 C342 0.950 . S
H335 C344 0.950 . S
H336 C346 0.950 . S
H337 C348 0.950 . S
H338 C350 0.950 . S
H339 C351 0.950 . S
C340 H332 0.950 . S
C340 C341 1.386 . S
C340 C342 1.391 . S
C341 C340 1.386 . S
C341 C345 1.393 1_554 S
C342 H334 0.950 . S
C342 C340 1.391 . S
C342 C343 1.400 . S
C343 C342 1.400 . S
C343 C344 1.398 1_554 S
C343 C349 1.491 1_554 S
C344 H335 0.950 . S
C344 C343 1.398 1_556 S
C344 C345 1.391 . S
C345 H333 0.950 . S
C345 C341 1.393 1_556 S
C345 C344 1.391 . S
C346 H336 0.950 . S
C346 C347 1.386 . S
C346 C348 1.391 . S
C347 C346 1.386 . S
C347 C351 1.393 1_556 S
C348 H337 0.950 . S
C348 C346 1.391 . S
C348 C349 1.400 . S
C349 C343 1.491 1_556 S
C349 C348 1.400 . S
C349 C350 1.398 1_556 S
C350 H338 0.950 . S
C350 C349 1.398 1_554 S
C350 C351 1.391 . S
C351 H339 0.950 . S
C351 C347 1.393 1_554 S
C351 C350 1.391 . S
H352 C360 0.950 . S
H353 C365 0.950 . S
H354 C362 0.950 . S
H355 C364 0.950 . S
H356 C366 0.950 . S
H357 C368 0.950 . S
H358 C370 0.950 . S
H359 C371 0.950 . S
C360 H352 0.950 . S
C360 C361 1.386 . S
C360 C362 1.391 1_455 S
C361 C360 1.386 . S
C361 C365 1.393 1_455 S
C362 H354 0.950 . S
C362 C360 1.391 1_655 S
C362 C363 1.400 . S
C363 C362 1.400 . S
C363 C364 1.398 . S
C363 C369 1.491 . S
C364 H355 0.950 . S
C364 C363 1.398 . S
C364 C365 1.391 . S
C365 H353 0.950 . S
C365 C361 1.393 1_655 S
C365 C364 1.391 . S
C366 H356 0.950 . S
C366 C367 1.386 . S
C366 C368 1.391 . S
C367 C366 1.386 . S
C367 C371 1.393 . S
C368 H357 0.950 . S
C368 C366 1.391 . S
C368 C369 1.400 . S
C369 C363 1.491 . S
C369 C368 1.400 . S
C369 C370 1.398 . S
C370 H358 0.950 . S
C370 C369 1.398 . S
C370 C371 1.391 . S
C371 H359 0.950 . S
C371 C367 1.393 . S
C371 C370 1.391 . S
H372 C380 0.950 . S
H373 C385 0.950 . S
H374 C382 0.950 . S
H375 C384 0.950 . S
H376 C386 0.950 . S
H377 C388 0.950 . S
H378 C390 0.950 . S
H379 C391 0.950 . S
C380 H372 0.950 . S
C380 C381 1.386 1_565 S
C380 C382 1.391 . S
C381 C380 1.386 1_545 S
C381 C385 1.393 . S
C382 H374 0.950 . S
C382 C380 1.391 . S
C382 C383 1.400 . S
C383 C382 1.400 . S
C383 C384 1.398 . S
C383 C389 1.491 . S
C384 H375 0.950 . S
C384 C383 1.398 . S
C384 C385 1.391 1_565 S
C385 H373 0.950 . S
C385 C381 1.393 . S
C385 C384 1.391 1_545 S
C386 H376 0.950 . S
C386 C387 1.386 . S
C386 C388 1.391 . S
C387 C386 1.386 . S
C387 C391 1.393 . S
C388 H377 0.950 . S
C388 C386 1.391 . S
C388 C389 1.400 . S
C389 C383 1.491 . S
C389 C388 1.400 . S
C389 C390 1.398 . S
C390 H378 0.950 . S
C390 C389 1.398 . S
C390 C391 1.391 . S
C391 H379 0.950 . S
C391 C387 1.393 . S
C391 C390 1.391 . S
H392 C400 0.950 . S
H393 C405 0.950 . S
H394 C402 0.950 . S
H395 C404 0.950 . S
H396 C406 0.950 1_655 S
H397 C408 0.950 . S
H398 C410 0.950 . S
H399 C411 0.950 . S
C400 H392 0.950 . S
C400 C401 1.386 . S
C400 C402 1.391 . S
C401 C400 1.386 . S
C401 C405 1.393 . S
C402 H394 0.950 . S
C402 C400 1.391 . S
C402 C403 1.400 . S
C403 C402 1.400 . S
C403 C404 1.398 . S
C403 C409 1.491 . S
C404 H395 0.950 . S
C404 C403 1.398 . S
C404 C405 1.391 . S
C405 H393 0.950 . S
C405 C401 1.393 . S
C405 C404 1.391 . S
C406 H396 0.950 1_455 S
C406 C407 1.386 1_455 S
C406 C408 1.391 . S
C407 C406 1.386 1_655 S
C407 C411 1.393 . S
C408 H397 0.950 . S
C408 C406 1.391 . S
C408 C409 1.400 . S
C409 C403 1.491 . S
C409 C408 1.400 . S
C409 C410 1.398 . S
C410 H398 0.950 . S
C410 C409 1.398 . S
C410 C411 1.391 1_455 S
C411 H399 0.950 . S
C411 C407 1.393 . S
C411 C410 1.391 1_655 S
H412 C420 0.950 . S
H413 C425 0.950 . S
H414 C422 0.950 . S
H415 C424 0.950 . S
H416 C426 0.950 . S
H417 C428 0.950 . S
H418 C430 0.950 . S
H419 C431 0.959 . S
C420 H412 0.950 . S
C420 C421 1.386 . S
C420 C422 1.391 . S
C421 C420 1.386 . S
C421 C425 1.393 . S
C422 H414 0.950 . S
C422 C420 1.391 . S
C422 C423 1.400 . S
C423 C422 1.400 . S
C423 C424 1.398 . S
C423 C429 1.491 . S
C424 H415 0.950 . S
C424 C423 1.398 . S
C424 C425 1.391 . S
C425 H413 0.950 . S
C425 C421 1.393 . S
C425 C424 1.391 . S
C426 H416 0.950 . S
C426 C427 1.386 . S
C426 C428 1.391 1_565 S
C427 C426 1.386 . S
C427 C431 1.410 . S
C428 H417 0.950 . S
C428 C426 1.391 1_545 S
C428 C429 1.400 . S
C429 C423 1.491 . S
C429 C428 1.400 . S
C429 C430 1.398 . S
C430 H418 0.950 . S
C430 C429 1.398 . S
C430 C431 1.365 1_545 S
C431 H419 0.959 . S
C431 C427 1.410 . S
C431 C430 1.365 1_565 S
H432 C440 0.950 . S
H433 C445 0.950 . S
H434 C442 0.950 . S
H435 C444 0.950 . S
H436 C446 0.950 . S
H437 C448 0.950 . S
H438 C450 0.950 . S
H439 C451 0.950 . S
C440 H432 0.950 . S
C440 C441 1.386 . S
C440 C442 1.391 . S
C441 C440 1.386 . S
C441 C445 1.393 . S
C442 H434 0.950 . S
C442 C440 1.391 . S
C442 C443 1.400 . S
C443 C442 1.400 . S
C443 C444 1.398 . S
C443 C449 1.491 . S
C444 H435 0.950 . S
C444 C443 1.398 . S
C444 C445 1.391 . S
C445 H433 0.950 . S
C445 C441 1.393 . S
C445 C444 1.391 . S
C446 H436 0.950 . S
C446 C447 1.386 . S
C446 C448 1.391 . S
C447 C446 1.386 . S
C447 C451 1.393 . S
C448 H437 0.950 . S
C448 C446 1.391 . S
C448 C449 1.400 . S
C449 C443 1.491 . S
C449 C448 1.400 . S
C449 C450 1.398 . S
C450 H438 0.950 . S
C450 C449 1.398 . S
C450 C451 1.391 . S
C451 H439 0.950 . S
C451 C447 1.393 . S
C451 C450 1.391 . S
H452 C460 0.950 . S
H453 C465 0.950 . S
H454 C462 0.950 . S
H455 C464 0.950 . S
H456 C466 0.950 . S
H457 C468 0.950 . S
H458 C470 0.950 . S
H459 C471 0.950 . S
C460 H452 0.950 . S
C460 C461 1.386 . S
C460 C462 1.391 . S
C461 C460 1.386 . S
C461 C465 1.393 . S
C462 H454 0.950 . S
C462 C460 1.391 . S
C462 C463 1.400 . S
C463 C462 1.400 . S
C463 C464 1.398 . S
C463 C469 1.491 . S
C464 H455 0.950 . S
C464 C463 1.398 . S
C464 C465 1.391 . S
C465 H453 0.950 . S
C465 C461 1.393 . S
C465 C464 1.391 . S
C466 H456 0.950 . S
C466 C467 1.386 . S
C466 C468 1.391 . S
C467 C466 1.386 . S
C467 C471 1.393 . S
C468 H457 0.950 . S
C468 C466 1.391 . S
C468 C469 1.400 . S
C469 C463 1.491 . S
C469 C468 1.400 . S
C469 C470 1.398 . S
C470 H458 0.950 . S
C470 C469 1.398 . S
C470 C471 1.391 . S
C471 H459 0.950 . S
C471 C467 1.393 . S
C471 C470 1.391 . S
H472 C480 0.950 . S
H473 C485 0.950 . S
H474 C482 0.950 . S
H475 C484 0.950 . S
H476 C486 0.950 . S
H477 C488 0.950 . S
H478 C490 0.950 . S
H479 C491 0.950 . S
C480 H472 0.950 . S
C480 C481 1.386 . S
C480 C482 1.391 . S
C481 C480 1.386 . S
C481 C485 1.393 . S
C482 H474 0.950 . S
C482 C480 1.391 . S
C482 C483 1.400 . S
C483 C482 1.400 . S
C483 C484 1.398 . S
C483 C489 1.491 . S
C484 H475 0.950 . S
C484 C483 1.398 . S
C484 C485 1.391 . S
C485 H473 0.950 . S
C485 C481 1.393 . S
C485 C484 1.391 . S
C486 H476 0.950 . S
C486 C487 1.386 . S
C486 C488 1.391 . S
C487 C486 1.386 . S
C487 C491 1.393 . S
C488 H477 0.950 . S
C488 C486 1.391 . S
C488 C489 1.400 . S
C489 C483 1.491 . S
C489 C488 1.400 . S
C489 C490 1.398 . S
C490 H478 0.950 . S
C490 C489 1.398 . S
C490 C491 1.391 . S
C491 H479 0.950 . S
C491 C487 1.393 . S
C491 C490 1.391 . S
H492 C500 0.950 . S
H493 C505 0.950 . S
H494 C502 0.950 . S
H495 C504 0.950 . S
H496 C506 0.950 . S
H497 C508 0.950 . S
H498 C510 0.950 . S
H499 C511 0.950 . S
C500 H492 0.950 . S
C500 C501 1.386 . S
C500 C502 1.391 . S
C501 C500 1.386 . S
C501 C505 1.393 . S
C502 H494 0.950 . S
C502 C500 1.391 . S
C502 C503 1.400 . S
C503 C502 1.400 . S
C503 C504 1.398 . S
C503 C509 1.491 . S
C504 H495 0.950 . S
C504 C503 1.398 . S
C504 C505 1.391 . S
C505 H493 0.950 . S
C505 C501 1.393 . S
C505 C504 1.391 . S
C506 H496 0.950 . S
C506 C507 1.386 . S
C506 C508 1.391 . S
C507 C506 1.386 . S
C507 C511 1.393 . S
C508 H497 0.950 . S
C508 C506 1.391 . S
C508 C509 1.400 . S
C509 C503 1.491 . S
C509 C508 1.400 . S
C509 C510 1.398 . S
C510 H498 0.950 . S
C510 C509 1.398 . S
C510 C511 1.391 . S
C511 H499 0.950 . S
C511 C507 1.393 . S
C511 C510 1.391 . S
H512 C520 0.950 . S
H513 C525 0.950 . S
H514 C522 0.950 . S
H515 C524 0.950 . S
H516 C526 0.950 . S
H517 C528 0.950 . S
H518 C530 0.950 . S
H519 C531 0.950 . S
C520 H512 0.950 . S
C520 C521 1.386 . S
C520 C522 1.391 . S
C521 C520 1.386 . S
C521 C525 1.393 . S
C522 H514 0.950 . S
C522 C520 1.391 . S
C522 C523 1.400 . S
C523 C522 1.400 . S
C523 C524 1.398 . S
C523 C529 1.491 . S
C524 H515 0.950 . S
C524 C523 1.398 . S
C524 C525 1.391 . S
C525 H513 0.950 . S
C525 C521 1.393 . S
C525 C524 1.391 . S
C526 H516 0.950 . S
C526 C527 1.386 . S
C526 C528 1.391 . S
C527 C526 1.386 . S
C527 C531 1.393 . S
C528 H517 0.950 . S
C528 C526 1.391 . S
C528 C529 1.400 . S
C529 C523 1.491 . S
C529 C528 1.400 . S
C529 C530 1.398 . S
C530 H518 0.950 . S
C530 C529 1.398 . S
C530 C531 1.391 . S
C531 H519 0.950 . S
C531 C527 1.393 . S
C531 C530 1.391 . S
H532 C540 0.950 . S
H533 C545 0.950 . S
H534 C542 0.950 . S
H535 C544 0.950 . S
H536 C546 0.950 . S
H537 C548 0.950 . S
H538 C550 0.950 . S
H539 C551 0.950 . S
C540 H532 0.950 . S
C540 C541 1.386 . S
C540 C542 1.391 . S
C541 C540 1.386 . S
C541 C545 1.393 . S
C542 H534 0.950 . S
C542 C540 1.391 . S
C542 C543 1.400 . S
C543 C542 1.400 . S
C543 C544 1.398 . S
C543 C549 1.491 . S
C544 H535 0.950 . S
C544 C543 1.398 . S
C544 C545 1.391 . S
C545 H533 0.950 . S
C545 C541 1.393 . S
C545 C544 1.391 . S
C546 H536 0.950 . S
C546 C547 1.386 . S
C546 C548 1.391 . S
C547 C546 1.386 . S
C547 C551 1.393 . S
C548 H537 0.950 . S
C548 C546 1.391 . S
C548 C549 1.400 . S
C549 C543 1.491 . S
C549 C548 1.400 . S
C549 C550 1.398 . S
C550 H538 0.950 . S
C550 C549 1.398 . S
C550 C551 1.391 . S
C551 H539 0.950 . S
C551 C547 1.393 . S
C551 C550 1.391 . S
H552 C560 0.950 . S
H553 C565 0.950 . S
H554 C562 0.950 . S
H555 C564 0.950 . S
H556 C566 0.950 . S
H557 C568 0.950 . S
H558 C570 0.950 . S
H559 C571 0.950 . S
C560 H552 0.950 . S
C560 C561 1.386 . S
C560 C562 1.391 . S
C561 C560 1.386 . S
C561 C565 1.393 . S
C562 H554 0.950 . S
C562 C560 1.391 . S
C562 C563 1.400 . S
C563 C562 1.400 . S
C563 C564 1.398 . S
C563 C569 1.491 . S
C564 H555 0.950 . S
C564 C563 1.398 . S
C564 C565 1.391 . S
C565 H553 0.950 . S
C565 C561 1.393 . S
C565 C564 1.391 . S
C566 H556 0.950 . S
C566 C567 1.386 . S
C566 C568 1.391 . S
C567 C566 1.386 . S
C567 C571 1.393 . S
C568 H557 0.950 . S
C568 C566 1.391 . S
C568 C569 1.400 . S
C569 C563 1.491 . S
C569 C568 1.400 . S
C569 C570 1.398 . S
C570 H558 0.950 . S
C570 C569 1.398 . S
C570 C571 1.391 . S
C571 H559 0.950 . S
C571 C567 1.393 . S
C571 C570 1.391 . S
H572 C580 0.950 . S
H573 C585 0.950 . S
H574 C582 0.950 . S
H575 C584 0.950 . S
H576 C586 0.950 . S
H577 C588 0.950 . S
H578 C590 0.950 . S
H579 C591 0.950 . S
C580 H572 0.950 . S
C580 C581 1.386 . S
C580 C582 1.391 . S
C581 C580 1.386 . S
C581 C585 1.393 . S
C582 H574 0.950 . S
C582 C580 1.391 . S
C582 C583 1.400 . S
C583 C582 1.400 . S
C583 C584 1.398 . S
C583 C589 1.491 . S
C584 H575 0.950 . S
C584 C583 1.398 . S
C584 C585 1.391 . S
C585 H573 0.950 . S
C585 C581 1.393 . S
C585 C584 1.391 . S
C586 H576 0.950 . S
C586 C587 1.386 . S
C586 C588 1.391 . S
C587 C586 1.386 . S
C587 C591 1.393 . S
C588 H577 0.950 . S
C588 C586 1.391 . S
C588 C589 1.400 . S
C589 C583 1.491 . S
C589 C588 1.400 . S
C589 C590 1.398 . S
C590 H578 0.950 . S
C590 C589 1.398 . S
C590 C591 1.391 . S
C591 H579 0.950 . S
C591 C587 1.393 . S
C591 C590 1.391 . S
H592 C600 0.950 . S
H593 C605 0.950 . S
H594 C602 0.950 1_455 S
H595 C604 0.950 . S
H596 C606 0.950 . S
H597 C608 0.950 1_655 S
H598 C610 0.950 . S
H599 C611 0.950 . S
C600 H592 0.950 . S
C600 C601 1.386 . S
C600 C602 1.391 . S
C601 C600 1.386 . S
C601 C605 1.393 . S
C602 H594 0.950 1_655 S
C602 C600 1.391 . S
C602 C603 1.400 . S
C603 C602 1.400 . S
C603 C604 1.398 . S
C603 C609 1.491 1_655 S
C604 H595 0.950 . S
C604 C603 1.398 . S
C604 C605 1.391 . S
C605 H593 0.950 . S
C605 C601 1.393 . S
C605 C604 1.391 . S
C606 H596 0.950 . S
C606 C607 1.386 . S
C606 C608 1.391 . S
C607 C606 1.386 . S
C607 C611 1.393 . S
C608 H597 0.950 1_455 S
C608 C606 1.391 . S
C608 C609 1.400 . S
C609 C603 1.491 1_455 S
C609 C608 1.400 . S
C609 C610 1.398 . S
C610 H598 0.950 . S
C610 C609 1.398 . S
C610 C611 1.391 . S
C611 H599 0.950 . S
C611 C607 1.393 . S
C611 C610 1.391 . S
H612 C620 0.950 . S
H613 C625 0.950 . S
H614 C622 0.950 . S
H615 C624 0.950 1_565 S
H616 C626 0.950 . S
H617 C628 0.950 . S
H618 C630 0.950 1_545 S
H619 C631 0.950 . S
C620 H612 0.950 . S
C620 C621 1.386 . S
C620 C622 1.391 . S
C621 C620 1.386 . S
C621 C625 1.393 . S
C622 H614 0.950 . S
C622 C620 1.391 . S
C622 C623 1.400 . S
C623 C622 1.400 . S
C623 C624 1.398 . S
C623 C629 1.491 1_545 S
C624 H615 0.950 1_545 S
C624 C623 1.398 . S
C624 C625 1.391 . S
C625 H613 0.950 . S
C625 C621 1.393 . S
C625 C624 1.391 . S
C626 H616 0.950 . S
C626 C627 1.386 . S
C626 C628 1.391 . S
C627 C626 1.386 . S
C627 C631 1.393 . S
C628 H617 0.950 . S
C628 C626 1.391 . S
C628 C629 1.400 . S
C629 C623 1.491 1_565 S
C629 C628 1.400 . S
C629 C630 1.398 . S
C630 H618 0.950 1_565 S
C630 C629 1.398 . S
C630 C631 1.391 . S
C631 H619 0.950 . S
C631 C627 1.393 . S
C631 C630 1.391 . S
H632 C640 0.955 . S
H633 C645 0.950 . S
H634 C642 0.950 . S
H635 C644 0.950 . S
H636 C646 0.955 . S
H637 C648 0.950 . S
H638 C650 0.950 . S
H639 C651 0.950 . S
C640 H632 0.955 . S
C640 C641 1.386 . S
C640 C642 1.391 1_545 S
C641 C640 1.386 . S
C641 C645 1.393 . S
C642 H634 0.950 . S
C642 C640 1.391 1_565 S
C642 C643 1.400 1_565 S
C643 C642 1.400 1_545 S
C643 C644 1.398 . S
C643 C649 1.491 1_545 S
C644 H635 0.950 . S
C644 C643 1.398 . S
C644 C645 1.391 . S
C645 H633 0.950 . S
C645 C641 1.393 . S
C645 C644 1.391 . S
C646 H636 0.955 . S
C646 C647 1.386 . S
C646 C648 1.391 1_565 S
C647 C646 1.386 . S
C647 C651 1.393 . S
C648 H637 0.950 . S
C648 C646 1.391 1_545 S
C648 C649 1.400 1_545 S
C649 C643 1.491 1_565 S
C649 C648 1.400 1_565 S
C649 C650 1.398 . S
C650 H638 0.950 . S
C650 C649 1.398 . S
C650 C651 1.391 . S
C651 H639 0.950 . S
C651 C647 1.393 . S
C651 C650 1.391 . S
H652 C660 0.950 . S
H653 C665 0.950 . S
H654 C662 0.950 . S
H655 C664 0.950 . S
H656 C666 0.950 . S
H657 C668 0.950 . S
H658 C670 0.950 . S
H659 C671 0.950 . S
C660 H652 0.950 . S
C660 C661 1.386 . S
C660 C662 1.391 . S
C661 C660 1.386 . S
C661 C665 1.393 . S
C662 H654 0.950 . S
C662 C660 1.391 . S
C662 C663 1.400 . S
C663 C662 1.400 . S
C663 C664 1.398 1_455 S
C663 C669 1.491 1_455 S
C664 H655 0.950 . S
C664 C663 1.398 1_655 S
C664 C665 1.391 1_655 S
C665 H653 0.950 . S
C665 C661 1.393 . S
C665 C664 1.391 1_455 S
C666 H656 0.950 . S
C666 C667 1.386 . S
C666 C668 1.391 . S
C667 C666 1.386 . S
C667 C671 1.393 . S
C668 H657 0.950 . S
C668 C666 1.391 . S
C668 C669 1.400 . S
C669 C663 1.491 1_655 S
C669 C668 1.400 . S
C669 C670 1.398 1_655 S
C670 H658 0.950 . S
C670 C669 1.398 1_455 S
C670 C671 1.391 1_455 S
C671 H659 0.950 . S
C671 C667 1.393 . S
C671 C670 1.391 1_655 S
C281 C54 0.689 . S
C287 C5 0.662 . S
C301 C39 0.669 . S
C307 C88 0.693 . S
C321 C73 0.663 . S
C327 C122 0.691 . S
C341 C20 0.679 . S
C347 C107 0.659 . S
C361 C190 0.674 . S
C367 C141 0.668 . S
C381 C224 0.681 . S
C387 C175 0.659 . S
C401 C209 0.658 . S
C407 C258 0.648 . S
C421 C243 0.669 . S
C427 C156 0.693 . S
C441 C206 1.529 . S
C447 C33 1.556 . S
C461 C67 1.550 . S
C467 C240 1.519 . S
C481 C101 1.550 . S
C487 C138 1.519 . S
C501 C135 1.554 . S
C507 C172 1.532 . S
C521 C169 1.558 . S
C527 C70 1.533 . S
C541 C203 1.555 . S
C547 C104 1.537 . S
C561 C237 1.550 . S
C567 C2 1.523 . S
C581 C36 1.531 . S
C587 C271 1.560 . S
C601 C77 2.075 . S
C607 C9 2.097 . S
C621 C43 2.097 . S
C627 C111 2.075 . S
C641 C213 2.097 . S
C647 C145 2.075 . S
C661 C179 2.076 . S
C667 C247 2.097 . S
