# Generated by pormake.
# Topology ukk, (4)-cn, num edge types: 1
# Building blocks:
#     Node 0, Type 0, BuildingBlock: CEKHIL_clean_sbu_0, # of connection points: 4
#     Node 1, Type 0, BuildingBlock: CEKHIL_clean_sbu_0, # of connection points: 4
#     Node 2, Type 0, BuildingBlock: CEKHIL_clean_sbu_0, # of connection points: 4
#     Node 3, Type 0, BuildingBlock: CEKHIL_clean_sbu_0, # of connection points: 4
#     Node 4, Type 0, BuildingBlock: CEKHIL_clean_sbu_0, # of connection points: 4
#     Node 5, Type 0, BuildingBlock: CEKHIL_clean_sbu_0, # of connection points: 4
#     Node 6, Type 0, BuildingBlock: CEKHIL_clean_sbu_0, # of connection points: 4
#     Node 7, Type 0, BuildingBlock: CEKHIL_clean_sbu_0, # of connection points: 4
#     Node 8, Type 0, BuildingBlock: CEKHIL_clean_sbu_0, # of connection points: 4
#     Node 9, Type 0, BuildingBlock: CEKHIL_clean_sbu_0, # of connection points: 4
#     Node 10, Type 0, BuildingBlock: CEKHIL_clean_sbu_0, # of connection points: 4
#     Node 11, Type 0, BuildingBlock: CEKHIL_clean_sbu_0, # of connection points: 4
#     Node 12, Type 0, BuildingBlock: CEKHIL_clean_sbu_0, # of connection points: 4
#     Node 13, Type 0, BuildingBlock: CEKHIL_clean_sbu_0, # of connection points: 4
#     Node 14, Type 0, BuildingBlock: CEKHIL_clean_sbu_0, # of connection points: 4
#     Node 15, Type 0, BuildingBlock: CEKHIL_clean_sbu_0, # of connection points: 4
#     Edge 16, Type (0, 0), BuildingBlock: OJICUG_clean_linker_0, # of connection points: 2
#     Edge 17, Type (0, 0), BuildingBlock: OJICUG_clean_linker_0, # of connection points: 2
#     Edge 18, Type (0, 0), BuildingBlock: OJICUG_clean_linker_0, # of connection points: 2
#     Edge 19, Type (0, 0), BuildingBlock: OJICUG_clean_linker_0, # of connection points: 2
#     Edge 20, Type (0, 0), BuildingBlock: OJICUG_clean_linker_0, # of connection points: 2
#     Edge 21, Type (0, 0), BuildingBlock: OJICUG_clean_linker_0, # of connection points: 2
#     Edge 22, Type (0, 0), BuildingBlock: OJICUG_clean_linker_0, # of connection points: 2
#     Edge 23, Type (0, 0), BuildingBlock: OJICUG_clean_linker_0, # of connection points: 2
#     Edge 24, Type (0, 0), BuildingBlock: OJICUG_clean_linker_0, # of connection points: 2
#     Edge 25, Type (0, 0), BuildingBlock: OJICUG_clean_linker_0, # of connection points: 2
#     Edge 26, Type (0, 0), BuildingBlock: OJICUG_clean_linker_0, # of connection points: 2
#     Edge 27, Type (0, 0), BuildingBlock: OJICUG_clean_linker_0, # of connection points: 2
#     Edge 28, Type (0, 0), BuildingBlock: OJICUG_clean_linker_0, # of connection points: 2
#     Edge 29, Type (0, 0), BuildingBlock: OJICUG_clean_linker_0, # of connection points: 2
#     Edge 30, Type (0, 0), BuildingBlock: OJICUG_clean_linker_0, # of connection points: 2
#     Edge 31, Type (0, 0), BuildingBlock: OJICUG_clean_linker_0, # of connection points: 2
#     Edge 32, Type (0, 0), BuildingBlock: OJICUG_clean_linker_0, # of connection points: 2
#     Edge 33, Type (0, 0), BuildingBlock: OJICUG_clean_linker_0, # of connection points: 2
#     Edge 34, Type (0, 0), BuildingBlock: OJICUG_clean_linker_0, # of connection points: 2
#     Edge 35, Type (0, 0), BuildingBlock: OJICUG_clean_linker_0, # of connection points: 2
#     Edge 36, Type (0, 0), BuildingBlock: OJICUG_clean_linker_0, # of connection points: 2
#     Edge 37, Type (0, 0), BuildingBlock: OJICUG_clean_linker_0, # of connection points: 2
#     Edge 38, Type (0, 0), BuildingBlock: OJICUG_clean_linker_0, # of connection points: 2
#     Edge 39, Type (0, 0), BuildingBlock: OJICUG_clean_linker_0, # of connection points: 2
#     Edge 40, Type (0, 0), BuildingBlock: OJICUG_clean_linker_0, # of connection points: 2
#     Edge 41, Type (0, 0), BuildingBlock: OJICUG_clean_linker_0, # of connection points: 2
#     Edge 42, Type (0, 0), BuildingBlock: OJICUG_clean_linker_0, # of connection points: 2
#     Edge 43, Type (0, 0), BuildingBlock: OJICUG_clean_linker_0, # of connection points: 2
#     Edge 44, Type (0, 0), BuildingBlock: OJICUG_clean_linker_0, # of connection points: 2
#     Edge 45, Type (0, 0), BuildingBlock: OJICUG_clean_linker_0, # of connection points: 2
#     Edge 46, Type (0, 0), BuildingBlock: OJICUG_clean_linker_0, # of connection points: 2
#     Edge 47, Type (0, 0), BuildingBlock: OJICUG_clean_linker_0, # of connection points: 2
# Relax obj value: 0.117
# Max RMSD: 0.292
# Mean RMSD: 0.292
data_MOF--net-ukk--node1-CEKHIL_clean_sbu_0--edge1-OJICUG_clean_linker_0
_symmetry_space_group_name_H-M    P1
_symmetry_Int_Tables_number       1
_symmetry_cell_setting            triclinic
loop_
_symmetry_equiv_pos_as_xyz
'x, y, z'
_cell_length_a     39.139681
_cell_length_b     39.12605
_cell_length_c     12.067766
_cell_angle_alpha  89.992656
_cell_angle_beta   90.000058
_cell_angle_gamma 90.003631
loop_
_atom_site_label
_atom_site_type_symbol
_atom_site_fract_x
_atom_site_fract_y
_atom_site_fract_z
_atom_type_partial_charge
Co0 Co 0.35487 0.10433 0.13165 0.0
O1 O 0.30631 0.09874 0.12636 0.0
O2 O 0.33964 0.10606 0.97961 0.0
C3 C 0.36558 0.06117 0.24813 0.0
O4 O 0.4062 0.11022 0.10768 0.0
Co5 Co 0.38701 0.12634 0.35348 0.0
O6 O 0.42961 0.11193 0.27804 0.0
C7 C 0.35619 0.17869 0.211 0.0
C8 C 0.30904 0.10178 0.01983 0.0
C9 C 0.43218 0.10994 0.17301 0.0
O10 O 0.34944 0.1551 0.14083 0.0
O11 O 0.36959 0.17262 0.30581 0.0
O12 O 0.3614 0.05566 0.1431 0.0
O13 O 0.35888 0.09182 0.2827 0.0
Co14 Co 0.1032 0.64853 0.85088 0.0
O15 O 0.09934 0.69722 0.86208 0.0
O16 O 0.10296 0.6618 0.00505 0.0
C17 C 0.06162 0.64105 0.7257 0.0
O18 O 0.10662 0.59664 0.86852 0.0
Co19 Co 0.12774 0.61859 0.62787 0.0
O20 O 0.11197 0.57527 0.69593 0.0
C21 C 0.17851 0.6469 0.78137 0.0
C22 C 0.10039 0.69304 0.96853 0.0
C23 C 0.10739 0.57148 0.79975 0.0
O24 O 0.15427 0.65215 0.85062 0.0
O25 O 0.17333 0.63564 0.68312 0.0
O26 O 0.05454 0.64423 0.8301 0.0
O27 O 0.09308 0.64675 0.69767 0.0
Co28 Co 0.64519 0.8952 0.13588 0.0
O29 O 0.69382 0.90058 0.13164 0.0
O30 O 0.66068 0.89353 0.98426 0.0
C31 C 0.63436 0.9383 0.25254 0.0
O32 O 0.59391 0.88955 0.11042 0.0
Co33 Co 0.61228 0.87318 0.35663 0.0
O34 O 0.5699 0.88761 0.27985 0.0
C35 C 0.6433 0.8208 0.21464 0.0
C36 C 0.69124 0.89763 0.02502 0.0
C37 C 0.56771 0.88974 0.17475 0.0
O38 O 0.65035 0.8444 0.14475 0.0
O39 O 0.62968 0.82689 0.30913 0.0
O40 O 0.63884 0.9439 0.14769 0.0
O41 O 0.64082 0.90757 0.28692 0.0
Co42 Co 0.89396 0.34948 0.85856 0.0
O43 O 0.89782 0.30083 0.87038 0.0
O44 O 0.89465 0.33641 0.01299 0.0
C45 C 0.9352 0.35668 0.73193 0.0
O46 O 0.89062 0.4014 0.87533 0.0
Co47 Co 0.86894 0.37909 0.63549 0.0
O48 O 0.88507 0.42246 0.70238 0.0
C49 C 0.81852 0.35101 0.79081 0.0
C50 C 0.89712 0.30513 0.97679 0.0
C51 C 0.88982 0.42643 0.80605 0.0
O52 O 0.84287 0.34591 0.8598 0.0
O53 O 0.82354 0.36205 0.6922 0.0
O54 O 0.94259 0.35371 0.83619 0.0
O55 O 0.90365 0.35098 0.70506 0.0
Co56 Co 0.35479 0.3933 0.12469 0.0
O57 O 0.30615 0.39733 0.13032 0.0
O58 O 0.33989 0.39368 0.27746 0.0
C59 C 0.36356 0.43483 0.00035 0.0
O60 O 0.40641 0.38962 0.1472 0.0
Co61 Co 0.38641 0.36873 0.90429 0.0
O62 O 0.42896 0.385 0.976 0.0
C63 C 0.35667 0.31806 0.05527 0.0
C64 C 0.30911 0.39632 0.23712 0.0
C65 C 0.43201 0.3892 0.08025 0.0
O66 O 0.351 0.34225 0.12433 0.0
O67 O 0.36862 0.32325 0.95788 0.0
O68 O 0.35957 0.44195 0.10443 0.0
O69 O 0.35783 0.40343 0.97172 0.0
Co70 Co 0.3924 0.64391 0.87647 0.0
O71 O 0.39789 0.6924 0.86587 0.0
O72 O 0.3932 0.65731 0.72238 0.0
C73 C 0.43356 0.63489 0.00193 0.0
O74 O 0.38734 0.59225 0.85823 0.0
Co75 Co 0.3668 0.61453 0.09863 0.0
O76 O 0.38194 0.57094 0.03081 0.0
C77 C 0.31702 0.6446 0.94532 0.0
C78 C 0.39672 0.68841 0.75937 0.0
C79 C 0.38623 0.56711 0.9269 0.0
O80 O 0.34147 0.64926 0.87635 0.0
O81 O 0.32179 0.63297 0.04333 0.0
O82 O 0.44086 0.63783 0.89758 0.0
O83 O 0.40234 0.64181 0.02985 0.0
Co84 Co 0.64188 0.60624 0.1295 0.0
O85 O 0.69039 0.60154 0.13694 0.0
O86 O 0.65628 0.60585 0.28296 0.0
C87 C 0.63304 0.56466 0.00548 0.0
O88 O 0.59022 0.61063 0.14962 0.0
Co89 Co 0.61172 0.63108 0.90755 0.0
O90 O 0.56863 0.61534 0.97711 0.0
C91 C 0.64155 0.68146 0.05904 0.0
C92 C 0.68715 0.60275 0.2436 0.0
C93 C 0.56499 0.61125 0.08121 0.0
O94 O 0.64645 0.65724 0.12863 0.0
O95 O 0.62998 0.67636 0.96115 0.0
O96 O 0.63647 0.55765 0.10984 0.0
O97 O 0.6394 0.59592 0.97651 0.0
Co98 Co 0.60482 0.35524 0.88446 0.0
O99 O 0.59904 0.30675 0.87431 0.0
O100 O 0.60433 0.34168 0.73059 0.0
C101 C 0.56346 0.36479 0.00871 0.0
O102 O 0.61024 0.40684 0.86547 0.0
Co103 Co 0.63024 0.38474 0.10658 0.0
O104 O 0.61591 0.42843 0.03759 0.0
C105 C 0.68008 0.35409 0.95491 0.0
C106 C 0.60056 0.31063 0.7678 0.0
C107 C 0.61168 0.4321 0.93359 0.0
O108 O 0.6557 0.34954 0.88565 0.0
O109 O 0.67524 0.3659 0.05265 0.0
O110 O 0.55638 0.36167 0.90425 0.0
O111 O 0.59455 0.35766 0.03759 0.0
Co112 Co 0.85369 0.60338 0.62839 0.0
O113 O 0.80514 0.59734 0.62416 0.0
O114 O 0.83809 0.60554 0.47694 0.0
C115 C 0.86519 0.55991 0.74294 0.0
O116 O 0.90484 0.60988 0.60291 0.0
Co117 Co 0.88642 0.62483 0.84982 0.0
O118 O 0.92893 0.61124 0.77225 0.0
C119 C 0.8547 0.67747 0.71043 0.0
C120 C 0.80761 0.60083 0.51769 0.0
C121 C 0.93109 0.60967 0.66705 0.0
O122 O 0.84782 0.65409 0.63963 0.0
O123 O 0.86849 0.67114 0.80448 0.0
O124 O 0.86076 0.55474 0.63783 0.0
O125 O 0.85827 0.59036 0.77886 0.0
Co126 Co 0.60409 0.14834 0.36374 0.0
O127 O 0.59976 0.19698 0.37381 0.0
O128 O 0.60351 0.16191 0.51765 0.0
C129 C 0.56272 0.14028 0.23813 0.0
O130 O 0.60796 0.09655 0.38248 0.0
Co131 Co 0.62901 0.11812 0.14153 0.0
O132 O 0.61321 0.0749 0.21025 0.0
C133 C 0.67944 0.14713 0.29502 0.0
C134 C 0.60069 0.19304 0.48036 0.0
C135 C 0.60875 0.07128 0.31419 0.0
O136 O 0.65514 0.1524 0.36401 0.0
O137 O 0.67439 0.13561 0.19701 0.0
O138 O 0.55547 0.14354 0.34239 0.0
O139 O 0.59416 0.14622 0.21044 0.0
Co140 Co 0.14271 0.39448 0.62256 0.0
O141 O 0.19114 0.40097 0.61694 0.0
O142 O 0.15796 0.39243 0.47052 0.0
C143 C 0.1312 0.4379 0.7373 0.0
O144 O 0.09151 0.38753 0.59912 0.0
Co145 Co 0.11121 0.37272 0.84548 0.0
O146 O 0.06826 0.38591 0.76973 0.0
C147 C 0.14291 0.3204 0.70506 0.0
C148 C 0.18849 0.39742 0.51058 0.0
C149 C 0.06558 0.38751 0.66466 0.0
O150 O 0.14911 0.34383 0.63377 0.0
O151 O 0.12952 0.32661 0.7998 0.0
O152 O 0.13521 0.44306 0.632 0.0
O153 O 0.13858 0.40754 0.77313 0.0
Co154 Co 0.39505 0.85083 0.35579 0.0
O155 O 0.3994 0.80217 0.36538 0.0
O156 O 0.39504 0.83708 0.50944 0.0
C157 C 0.43684 0.85921 0.23201 0.0
O158 O 0.39104 0.90258 0.37533 0.0
Co159 Co 0.37074 0.88141 0.13363 0.0
O160 O 0.38629 0.92456 0.20341 0.0
C161 C 0.31986 0.8521 0.28474 0.0
C162 C 0.39801 0.806 0.47194 0.0
C163 C 0.39044 0.92798 0.30755 0.0
O164 O 0.34403 0.84666 0.3541 0.0
O165 O 0.32513 0.86391 0.18721 0.0
O166 O 0.4437 0.85574 0.33649 0.0
O167 O 0.40552 0.85324 0.20287 0.0
Co168 Co 0.85655 0.8923 0.63487 0.0
O169 O 0.80811 0.89756 0.64317 0.0
O170 O 0.84233 0.89208 0.78852 0.0
C171 C 0.86578 0.93442 0.51295 0.0
O172 O 0.90818 0.88718 0.65414 0.0
Co173 Co 0.88619 0.86826 0.41142 0.0
O174 O 0.92953 0.88318 0.48117 0.0
C175 C 0.85606 0.81741 0.5607 0.0
C176 C 0.81145 0.89575 0.7497 0.0
C177 C 0.93333 0.88665 0.58543 0.0
O178 O 0.85137 0.84136 0.6314 0.0
O179 O 0.86766 0.82286 0.46303 0.0
O180 O 0.86257 0.94092 0.61773 0.0
O181 O 0.85897 0.90341 0.48239 0.0
Co182 Co 0.89326 0.14421 0.38686 0.0
O183 O 0.89876 0.1927 0.37475 0.0
O184 O 0.89357 0.15724 0.23242 0.0
C185 C 0.93479 0.13541 0.51117 0.0
O186 O 0.88811 0.09248 0.37011 0.0
Co187 Co 0.86817 0.11545 0.61042 0.0
O188 O 0.88268 0.07157 0.54323 0.0
C189 C 0.81806 0.14526 0.45789 0.0
C190 C 0.89721 0.18844 0.26841 0.0
C191 C 0.88686 0.06748 0.43936 0.0
O192 O 0.84235 0.14963 0.38821 0.0
O193 O 0.82303 0.13387 0.5561 0.0
O194 O 0.94176 0.13814 0.40653 0.0
O195 O 0.90366 0.14243 0.53998 0.0
Co196 Co 0.14341 0.10554 0.63081 0.0
O197 O 0.19196 0.10076 0.63795 0.0
O198 O 0.15796 0.10597 0.78398 0.0
C199 C 0.13424 0.06331 0.50923 0.0
O200 O 0.09181 0.11019 0.65177 0.0
Co201 Co 0.11267 0.12912 0.40824 0.0
O202 O 0.06973 0.11379 0.47971 0.0
C203 C 0.1428 0.18037 0.55625 0.0
C204 C 0.1888 0.1026 0.74457 0.0
C205 C 0.06638 0.11041 0.58417 0.0
O206 O 0.14807 0.15652 0.6269 0.0
O207 O 0.13087 0.17474 0.45911 0.0
O208 O 0.13783 0.05684 0.61391 0.0
O209 O 0.1406 0.0944 0.47848 0.0
Co210 Co 0.10585 0.85382 0.37897 0.0
O211 O 0.10049 0.80536 0.36629 0.0
O212 O 0.10506 0.84101 0.22425 0.0
C213 C 0.06467 0.86217 0.50492 0.0
O214 O 0.11078 0.90561 0.36327 0.0
Co215 Co 0.13144 0.88216 0.60269 0.0
O216 O 0.11639 0.92607 0.53691 0.0
C217 C 0.18124 0.85293 0.44776 0.0
C218 C 0.10163 0.80975 0.25998 0.0
C219 C 0.11201 0.93042 0.43324 0.0
O220 O 0.15681 0.84862 0.3785 0.0
O221 O 0.17644 0.864 0.54643 0.0
O222 O 0.05737 0.85966 0.40046 0.0
O223 O 0.09592 0.85522 0.53241 0.0
C224 C 0.35947 0.97734 0.3853 0.0
C225 C 0.39049 0.96328 0.34864 0.0
H226 H 0.32722 0.02169 0.38438 0.0
C227 C 0.41659 0.98523 0.31299 0.0
H228 H 0.33876 0.96077 0.41109 0.0
C229 C 0.41003 0.01997 0.29816 0.0
C230 C 0.37733 0.03311 0.3188 0.0
H231 H 0.4406 0.97501 0.28342 0.0
H232 H 0.42904 0.0355 0.25676 0.0
C233 C 0.35287 0.01223 0.37014 0.0
C234 C 0.01175 0.65438 0.60951 0.0
C235 C 0.03467 0.62978 0.64979 0.0
H236 H 0.95919 0.66631 0.57816 0.0
C237 C 0.02392 0.59571 0.65824 0.0
H238 H 0.01933 0.68098 0.60464 0.0
C239 C 0.98948 0.58737 0.64496 0.0
C240 C 0.96562 0.61304 0.62132 0.0
H241 H 0.04101 0.57652 0.69074 0.0
H242 H 0.98101 0.56193 0.66737 0.0
C243 C 0.97728 0.64596 0.59457 0.0
C244 C 0.64633 0.98702 0.3763 0.0
C245 C 0.62219 0.96622 0.32304 0.0
H246 H 0.66004 0.03838 0.41968 0.0
C247 C 0.58955 0.9793 0.30114 0.0
H248 H 0.67192 0.97759 0.39159 0.0
C249 C 0.58277 0.01397 0.31681 0.0
C250 C 0.60862 0.03589 0.35451 0.0
H251 H 0.5708 0.96383 0.25828 0.0
H252 H 0.55888 0.02419 0.28629 0.0
C253 C 0.63951 0.02183 0.39232 0.0
C254 C 0.00718 0.40992 0.6454 0.0
C255 C 0.03082 0.38412 0.62088 0.0
H256 H 0.95602 0.42105 0.69475 0.0
C257 C 0.01889 0.35115 0.59609 0.0
H258 H 0.01587 0.4354 0.66642 0.0
C259 C 0.98451 0.34288 0.61368 0.0
C260 C 0.96193 0.36766 0.65474 0.0
H261 H 0.03684 0.33071 0.57909 0.0
H262 H 0.97683 0.31629 0.61007 0.0
C263 C 0.97283 0.40171 0.66155 0.0
C264 C 0.40686 0.47548 0.93687 0.0
C265 C 0.37389 0.46205 0.92419 0.0
H266 H 0.43729 0.5208 0.94278 0.0
C267 C 0.34834 0.48244 0.87652 0.0
H268 H 0.42672 0.46034 0.97532 0.0
C269 C 0.35438 0.51724 0.85771 0.0
C270 C 0.38593 0.53171 0.88709 0.0
H271 H 0.32252 0.47276 0.86841 0.0
H272 H 0.33307 0.53351 0.83528 0.0
C273 C 0.41287 0.51019 0.91856 0.0
C274 C 0.47364 0.59107 0.06583 0.0
C275 C 0.46034 0.62407 0.07916 0.0
H276 H 0.51877 0.56036 0.06156 0.0
C277 C 0.48049 0.64921 0.13007 0.0
H278 H 0.45867 0.57154 0.02505 0.0
C279 C 0.5151 0.64281 0.15135 0.0
C280 C 0.5296 0.61133 0.12107 0.0
H281 H 0.47092 0.67505 0.13893 0.0
H282 H 0.53133 0.66391 0.17603 0.0
C283 C 0.50812 0.5847 0.08667 0.0
C284 C 0.64389 0.48199 0.86631 0.0
C285 C 0.61216 0.46742 0.89302 0.0
H286 H 0.6754 0.52666 0.8785 0.0
C287 C 0.58483 0.48889 0.92118 0.0
H288 H 0.66548 0.46576 0.84649 0.0
C289 C 0.59049 0.52369 0.93894 0.0
C290 C 0.62348 0.53726 0.92897 0.0
H291 H 0.56025 0.47821 0.94323 0.0
H292 H 0.5702 0.53884 0.97496 0.0
C293 C 0.64956 0.51687 0.88442 0.0
C294 C 0.48137 0.35778 0.15477 0.0
C295 C 0.46716 0.38918 0.12228 0.0
H296 H 0.52545 0.3253 0.146 0.0
C297 C 0.48894 0.41562 0.08823 0.0
H298 H 0.46491 0.33683 0.17934 0.0
C299 C 0.52351 0.40904 0.06979 0.0
C300 C 0.53658 0.37602 0.08491 0.0
H301 H 0.47853 0.43991 0.06158 0.0
H302 H 0.53878 0.42837 0.02917 0.0
C303 C 0.51606 0.35116 0.13572 0.0
C304 C 0.91627 0.48354 0.80457 0.0
C305 C 0.89047 0.46198 0.84486 0.0
H306 H 0.92838 0.5334 0.74374 0.0
C307 C 0.85998 0.47647 0.88435 0.0
H308 H 0.93986 0.47299 0.7728 0.0
C309 C 0.85343 0.51132 0.86787 0.0
C310 C 0.87742 0.53173 0.81233 0.0
H311 H 0.83949 0.4602 0.91373 0.0
H312 H 0.82806 0.52108 0.88489 0.0
C313 C 0.90974 0.51823 0.78829 0.0
C314 C 0.51363 0.15339 0.11793 0.0
C315 C 0.53596 0.12883 0.1618 0.0
H316 H 0.46144 0.16565 0.08164 0.0
C317 C 0.52478 0.09494 0.17192 0.0
H318 H 0.52154 0.17986 0.11172 0.0
C319 C 0.49039 0.08686 0.15612 0.0
C320 C 0.46697 0.11261 0.12888 0.0
H321 H 0.54141 0.0758 0.2073 0.0
H322 H 0.4815 0.06165 0.17955 0.0
C323 C 0.47919 0.14523 0.10082 0.0
C324 C 0.13752 0.52148 0.87698 0.0
C325 C 0.10683 0.536 0.8393 0.0
H326 H 0.16932 0.47679 0.87625 0.0
C327 C 0.08072 0.51444 0.8012 0.0
H328 H 0.15825 0.53774 0.90463 0.0
C329 C 0.08704 0.4797 0.78512 0.0
C330 C 0.11947 0.46615 0.80725 0.0
H331 H 0.05695 0.525 0.77089 0.0
H332 H 0.06808 0.46451 0.74213 0.0
C333 C 0.14386 0.48658 0.8608 0.0
C334 C 0.47502 0.90469 0.16876 0.0
C335 C 0.46391 0.87083 0.1571 0.0
H336 H 0.51825 0.93795 0.18017 0.0
C337 C 0.48651 0.84638 0.1141 0.0
H338 H 0.45818 0.92374 0.20349 0.0
C339 C 0.52105 0.85458 0.09948 0.0
C340 C 0.53309 0.88713 0.12913 0.0
H341 H 0.47865 0.81992 0.10677 0.0
H342 H 0.53892 0.83421 0.08086 0.0
C343 C 0.50951 0.91281 0.15554 0.0
C344 C 0.84945 0.9823 0.39153 0.0
C345 C 0.87544 0.96213 0.43766 0.0
H346 H 0.83345 0.03324 0.35147 0.0
C347 C 0.9083 0.97593 0.44918 0.0
H348 H 0.82371 0.97233 0.38445 0.0
C349 C 0.91387 0.0107 0.43067 0.0
C350 C 0.88659 0.03197 0.40044 0.0
H351 H 0.92849 0.96094 0.48649 0.0
H352 H 0.93831 0.02153 0.45348 0.0
C353 C 0.85503 0.01718 0.37279 0.0
C354 C 0.98251 0.14955 0.63631 0.0
C355 C 0.96176 0.12449 0.58753 0.0
H356 H 0.03377 0.1638 0.67872 0.0
C357 C 0.97462 0.09131 0.57442 0.0
H358 H 0.97328 0.17552 0.64494 0.0
C359 C 0.00917 0.08462 0.59299 0.0
C360 C 0.03113 0.1111 0.62532 0.0
H361 H 0.95918 0.07183 0.53526 0.0
H362 H 0.0194 0.0601 0.56788 0.0
C363 C 0.01716 0.14281 0.65561 0.0
C364 C 0.14356 0.98078 0.36579 0.0
C365 C 0.11215 0.96605 0.39542 0.0
H366 H 0.17521 0.02542 0.37662 0.0
C367 C 0.08524 0.98734 0.42879 0.0
H368 H 0.16488 0.96468 0.34204 0.0
C369 C 0.09115 0.022 0.44824 0.0
C370 C 0.12396 0.03568 0.43446 0.0
H371 H 0.06093 0.97654 0.45325 0.0
H372 H 0.07132 0.03693 0.48778 0.0
C373 C 0.14949 0.01556 0.38549 0.0
C374 C 0.99049 0.91254 0.59207 0.0
C375 C 0.96876 0.88593 0.62491 0.0
H376 H 0.04008 0.92559 0.53159 0.0
C377 C 0.98295 0.85414 0.65328 0.0
H378 H 0.98005 0.93711 0.56835 0.0
C379 C 0.0175 0.84753 0.63176 0.0
C380 C 0.03793 0.87279 0.58256 0.0
H381 H 0.9665 0.83306 0.67668 0.0
H382 H 0.02683 0.82156 0.6391 0.0
C383 C 0.02493 0.90597 0.57112 0.0
C384 C 0.35383 0.27553 0.20989 0.0
C385 C 0.35223 0.2826 0.09545 0.0
H386 H 0.35653 0.23721 0.33656 0.0
C387 C 0.34887 0.25535 0.02092 0.0
H388 H 0.35657 0.296 0.26968 0.0
C389 C 0.34824 0.2217 0.05961 0.0
C390 C 0.35168 0.2145 0.17362 0.0
H391 H 0.34741 0.25997 0.93253 0.0
H392 H 0.34656 0.20129 0.99925 0.0
C393 C 0.35388 0.24183 0.24848 0.0
C394 C 0.22049 0.65152 0.93732 0.0
C395 C 0.21399 0.65088 0.82241 0.0
H396 H 0.258 0.64987 0.06654 0.0
C397 C 0.24176 0.65133 0.74895 0.0
H398 H 0.1997 0.65116 0.99656 0.0
C399 C 0.27523 0.65109 0.78943 0.0
C400 C 0.28169 0.64979 0.90432 0.0
H401 H 0.23767 0.65102 0.66018 0.0
H402 H 0.29601 0.65043 0.7302 0.0
C403 C 0.25394 0.65068 0.97778 0.0
C404 C 0.65069 0.77777 0.06308 0.0
C405 C 0.64761 0.78499 0.17717 0.0
H406 H 0.6509 0.73952 0.936 0.0
C407 C 0.64554 0.75767 0.25213 0.0
H408 H 0.65226 0.79819 0.00267 0.0
C409 C 0.64529 0.72397 0.21357 0.0
C410 C 0.64645 0.71689 0.09908 0.0
H411 H 0.6432 0.76231 0.34029 0.0
H412 H 0.64264 0.70354 0.27352 0.0
C413 C 0.64977 0.74413 0.02444 0.0
C414 C 0.74319 0.34818 0.98781 0.0
C415 C 0.71542 0.34861 0.91435 0.0
H416 H 0.79746 0.34791 0.00641 0.0
C417 C 0.72187 0.3466 0.79956 0.0
H418 H 0.73914 0.34953 0.0765 0.0
C419 C 0.75531 0.34617 0.75904 0.0
C420 C 0.78309 0.34713 0.83236 0.0
H421 H 0.70108 0.34687 0.7403 0.0
H422 H 0.75938 0.34595 0.67025 0.0
C423 C 0.77664 0.34715 0.94731 0.0
C424 C 0.84704 0.72106 0.56066 0.0
C425 C 0.85006 0.7134 0.67446 0.0
H426 H 0.84684 0.75983 0.43517 0.0
C427 C 0.85189 0.74042 0.75057 0.0
H428 H 0.84565 0.70088 0.49939 0.0
C429 C 0.85202 0.77428 0.71343 0.0
C430 C 0.85101 0.78183 0.59922 0.0
H431 H 0.85416 0.73543 0.83856 0.0
H432 H 0.85453 0.79448 0.77427 0.0
C433 C 0.84786 0.75487 0.52343 0.0
C434 C 0.77609 0.15194 0.30262 0.0
C435 C 0.78266 0.15043 0.41742 0.0
H436 H 0.73846 0.15191 0.17365 0.0
C437 C 0.75495 0.15109 0.49113 0.0
H438 H 0.79682 0.15149 0.24317 0.0
C439 C 0.72146 0.15184 0.45091 0.0
C440 C 0.7149 0.15135 0.33603 0.0
H441 H 0.75908 0.15012 0.57983 0.0
H442 H 0.7007 0.15126 0.51024 0.0
C443 C 0.74261 0.15209 0.2624 0.0
C444 C 0.14672 0.25751 0.74546 0.0
C445 C 0.14787 0.28452 0.6691 0.0
H446 H 0.14491 0.20344 0.7696 0.0
C447 C 0.15054 0.27683 0.55523 0.0
H448 H 0.14474 0.26252 0.8335 0.0
C449 C 0.15004 0.24299 0.51825 0.0
C450 C 0.14756 0.21604 0.59434 0.0
H451 H 0.15141 0.29699 0.49378 0.0
H452 H 0.15076 0.238 0.42999 0.0
C453 C 0.1469 0.22364 0.70854 0.0
C454 C 0.22313 0.84777 0.29161 0.0
C455 C 0.21658 0.84806 0.40652 0.0
H456 H 0.26078 0.849 0.16269 0.0
C457 C 0.24428 0.84648 0.48007 0.0
H458 H 0.20238 0.84899 0.23233 0.0
C459 C 0.27776 0.84598 0.43981 0.0
C460 C 0.28434 0.84767 0.32505 0.0
H461 H 0.24015 0.84649 0.56883 0.0
H462 H 0.29849 0.84579 0.49924 0.0
C463 C 0.25663 0.84788 0.25136 0.0
C464 C 0.25207 0.10214 0.76746 0.0
C465 C 0.21935 0.10176 0.8158 0.0
H466 H 0.30614 0.10258 0.79404 0.0
C467 C 0.21637 0.10094 0.93149 0.0
H468 H 0.25519 0.10283 0.67829 0.0
C469 C 0.24564 0.10059 0.99765 0.0
C470 C 0.27835 0.1013 0.94922 0.0
H471 H 0.19151 0.10061 0.97089 0.0
H472 H 0.24257 0.10008 0.08685 0.0
C473 C 0.2813 0.10203 0.83356 0.0
C474 C 0.10028 0.78454 0.06951 0.0
C475 C 0.10016 0.7801 0.18477 0.0
H476 H 0.10027 0.76038 0.91068 0.0
C477 C 0.09935 0.74677 0.22861 0.0
H478 H 0.10087 0.80989 0.03345 0.0
C479 C 0.09917 0.7184 0.15854 0.0
C480 C 0.09961 0.72282 0.0433 0.0
H481 H 0.09924 0.74251 0.3173 0.0
H482 H 0.09887 0.69306 0.19467 0.0
C483 C 0.09992 0.75615 -0.00061 0.0
C484 C 0.71904 0.89731 0.83906 0.0
C485 C 0.72199 0.89795 0.95471 0.0
H486 H 0.74509 0.89631 0.68382 0.0
C487 C 0.75471 0.89831 0.00317 0.0
H488 H 0.6942 0.89704 0.79949 0.0
C489 C 0.78398 0.89767 0.93696 0.0
C490 C 0.78098 0.89693 0.82126 0.0
H491 H 0.75775 0.89874 0.09238 0.0
H492 H 0.80886 0.89773 0.9763 0.0
C493 C 0.74825 0.89693 0.77298 0.0
C494 C 0.89782 0.2137 0.07812 0.0
C495 C 0.89837 0.21814 0.19335 0.0
H496 H 0.89717 0.23782 0.9193 0.0
C497 C 0.89924 0.25147 0.23714 0.0
H498 H 0.89717 0.18835 0.04208 0.0
C499 C 0.89907 0.27984 0.167 0.0
C500 C 0.89821 0.2754 0.05178 0.0
H501 H 0.89966 0.25572 0.32583 0.0
H502 H 0.89944 0.30519 0.20304 0.0
C503 C 0.89783 0.24207 0.00797 0.0
C504 C 0.25185 0.39959 0.48896 0.0
C505 C 0.21922 0.39798 0.44018 0.0
H506 H 0.306 0.40017 0.463 0.0
C507 C 0.21644 0.39629 0.32458 0.0
H508 H 0.25479 0.40086 0.57812 0.0
C509 C 0.24577 0.39607 0.2589 0.0
C510 C 0.27842 0.39731 0.30768 0.0
H511 H 0.19166 0.39503 0.2848 0.0
H512 H 0.24281 0.39461 0.16978 0.0
C513 C 0.28121 0.39913 0.42328 0.0
C514 C 0.39902 0.78007 0.6611 0.0
C515 C 0.39881 0.776 0.54573 0.0
H516 H 0.39874 0.75546 0.81908 0.0
C517 C 0.39871 0.74282 0.50071 0.0
H518 H 0.39915 0.8053 0.69806 0.0
C519 C 0.39832 0.71422 0.56988 0.0
C520 C 0.39822 0.71831 0.68528 0.0
H521 H 0.39854 0.73888 0.41186 0.0
H522 H 0.3979 0.68899 0.53299 0.0
C523 C 0.39882 0.75148 0.73025 0.0
C524 C 0.71482 0.6001 0.43043 0.0
C525 C 0.7177 0.60152 0.31477 0.0
H526 H 0.74119 0.59851 0.58552 0.0
C527 C 0.75038 0.60216 0.26619 0.0
H528 H 0.68998 0.59954 0.46999 0.0
C529 C 0.77965 0.60176 0.33198 0.0
C530 C 0.77682 0.60047 0.44761 0.0
H531 H 0.75345 0.6033 0.17706 0.0
H532 H 0.80446 0.60254 0.29222 0.0
C533 C 0.74415 0.59945 0.49633 0.0
C534 C 0.59875 0.21892 0.66967 0.0
C535 C 0.5995 0.223 0.5543 0.0
H536 H 0.59825 0.24355 0.82765 0.0
C537 C 0.5997 0.25618 0.5093 0.0
H538 H 0.59851 0.19368 0.70659 0.0
C539 C 0.5997 0.28477 0.57846 0.0
C540 C 0.59931 0.28069 0.69384 0.0
H541 H 0.60026 0.26014 0.42049 0.0
H542 H 0.60025 0.31 0.54154 0.0
C543 C 0.59856 0.24751 0.73882 0.0
loop_
_geom_bond_atom_site_label_1
_geom_bond_atom_site_label_2
_geom_bond_distance
_geom_bond_site_symmetry_2
_ccdc_geom_bond_type
Co0 O1 2.216 . S
Co0 O2 2.091 1_554 S
Co0 O4 2.004 . S
Co0 O10 2.021 . S
Co0 O12 2.137 . S
Co0 O13 2.244 . S
O1 Co0 2.216 . S
O1 C8 1.247 1_554 S
O2 Co0 2.091 1_556 S
O2 C8 1.261 . S
C3 O12 1.247 . S
C3 O13 1.272 . S
O4 Co0 2.004 . S
O4 C9 1.259 . S
Co5 O6 2.061 . S
Co5 O11 2.052 . S
Co5 O13 2.135 . S
O6 Co5 2.061 . S
O6 C9 1.235 . S
C7 O10 1.238 . S
C7 O11 1.241 . S
C8 O1 1.247 1_556 S
C8 O2 1.261 . S
C9 O4 1.259 . S
C9 O6 1.235 . S
O10 Co0 2.021 . S
O10 C7 1.238 . S
O11 Co5 2.052 . S
O11 C7 1.241 . S
O12 Co0 2.137 . S
O12 C3 1.247 . S
O13 Co0 2.244 . S
O13 C3 1.272 . S
O13 Co5 2.135 . S
Co14 O15 2.216 . S
Co14 O16 2.091 1_556 S
Co14 O18 2.004 . S
Co14 O24 2.021 . S
Co14 O26 2.137 . S
Co14 O27 2.244 . S
O15 Co14 2.216 . S
O15 C22 1.247 1_556 S
O16 Co14 2.091 1_554 S
O16 C22 1.261 . S
C17 O26 1.247 . S
C17 O27 1.272 . S
O18 Co14 2.004 . S
O18 C23 1.259 . S
Co19 O20 2.061 . S
Co19 O25 2.052 . S
Co19 O27 2.135 . S
O20 Co19 2.061 . S
O20 C23 1.235 . S
C21 O24 1.238 . S
C21 O25 1.241 . S
C22 O15 1.247 1_554 S
C22 O16 1.261 . S
C23 O18 1.259 . S
C23 O20 1.235 . S
O24 Co14 2.021 . S
O24 C21 1.238 . S
O25 Co19 2.052 . S
O25 C21 1.241 . S
O26 Co14 2.137 . S
O26 C17 1.247 . S
O27 Co14 2.244 . S
O27 C17 1.272 . S
O27 Co19 2.135 . S
Co28 O29 2.216 . S
Co28 O30 2.091 1_554 S
Co28 O32 2.004 . S
Co28 O38 2.021 . S
Co28 O40 2.137 . S
Co28 O41 2.244 . S
O29 Co28 2.216 . S
O29 C36 1.247 1_554 S
O30 Co28 2.091 1_556 S
O30 C36 1.261 . S
C31 O40 1.247 . S
C31 O41 1.272 . S
O32 Co28 2.004 . S
O32 C37 1.259 . S
Co33 O34 2.061 . S
Co33 O39 2.052 . S
Co33 O41 2.135 . S
O34 Co33 2.061 . S
O34 C37 1.235 . S
C35 O38 1.238 . S
C35 O39 1.241 . S
C36 O29 1.247 1_556 S
C36 O30 1.261 . S
C37 O32 1.259 . S
C37 O34 1.235 . S
O38 Co28 2.021 . S
O38 C35 1.238 . S
O39 Co33 2.052 . S
O39 C35 1.241 . S
O40 Co28 2.137 . S
O40 C31 1.247 . S
O41 Co28 2.244 . S
O41 C31 1.272 . S
O41 Co33 2.135 . S
Co42 O43 2.216 . S
Co42 O44 2.091 1_556 S
Co42 O46 2.004 . S
Co42 O52 2.021 . S
Co42 O54 2.137 . S
Co42 O55 2.244 . S
O43 Co42 2.216 . S
O43 C50 1.247 1_556 S
O44 Co42 2.091 1_554 S
O44 C50 1.261 . S
C45 O54 1.247 . S
C45 O55 1.272 . S
O46 Co42 2.004 . S
O46 C51 1.259 . S
Co47 O48 2.061 . S
Co47 O53 2.052 . S
Co47 O55 2.135 . S
O48 Co47 2.061 . S
O48 C51 1.235 . S
C49 O52 1.238 . S
C49 O53 1.241 . S
C50 O43 1.247 1_554 S
C50 O44 1.261 . S
C51 O46 1.259 . S
C51 O48 1.235 . S
O52 Co42 2.021 . S
O52 C49 1.238 . S
O53 Co47 2.052 . S
O53 C49 1.241 . S
O54 Co42 2.137 . S
O54 C45 1.247 . S
O55 Co42 2.244 . S
O55 C45 1.272 . S
O55 Co47 2.135 . S
Co56 O57 2.216 . S
Co56 O58 2.091 . S
Co56 O60 2.004 . S
Co56 O66 2.021 . S
Co56 O68 2.137 . S
Co56 O69 2.244 1_554 S
O57 Co56 2.216 . S
O57 C64 1.247 . S
O58 Co56 2.091 . S
O58 C64 1.261 . S
C59 O68 1.244 1_556 S
C59 O69 1.272 . S
O60 Co56 2.004 . S
O60 C65 1.259 . S
Co61 O62 2.061 . S
Co61 O67 2.052 . S
Co61 O69 2.135 . S
O62 Co61 2.061 . S
O62 C65 1.235 1_556 S
C63 O66 1.238 . S
C63 O67 1.241 1_554 S
C64 O57 1.247 . S
C64 O58 1.261 . S
C65 O60 1.259 . S
C65 O62 1.235 1_554 S
O66 Co56 2.021 . S
O66 C63 1.238 . S
O67 Co61 2.052 . S
O67 C63 1.241 1_556 S
O68 Co56 2.137 . S
O68 C59 1.244 1_554 S
O69 Co56 2.244 1_556 S
O69 C59 1.272 . S
O69 Co61 2.135 . S
Co70 O71 2.216 . S
Co70 O72 2.091 . S
Co70 O74 2.004 . S
Co70 O80 2.021 . S
Co70 O82 2.137 . S
Co70 O83 2.244 1_556 S
O71 Co70 2.216 . S
O71 C78 1.247 . S
O72 Co70 2.091 . S
O72 C78 1.261 . S
C73 O82 1.245 1_554 S
C73 O83 1.272 . S
O74 Co70 2.004 . S
O74 C79 1.259 . S
Co75 O76 2.061 . S
Co75 O81 2.052 . S
Co75 O83 2.135 . S
O76 Co75 2.061 . S
O76 C79 1.235 1_554 S
C77 O80 1.238 . S
C77 O81 1.241 1_556 S
C78 O71 1.247 . S
C78 O72 1.261 . S
C79 O74 1.259 . S
C79 O76 1.235 1_556 S
O80 Co70 2.021 . S
O80 C77 1.238 . S
O81 Co75 2.052 . S
O81 C77 1.241 1_554 S
O82 Co70 2.137 . S
O82 C73 1.245 1_556 S
O83 Co70 2.244 1_554 S
O83 C73 1.272 . S
O83 Co75 2.135 . S
Co84 O85 2.216 . S
Co84 O86 2.091 . S
Co84 O88 2.004 . S
Co84 O94 2.021 . S
Co84 O96 2.137 . S
Co84 O97 2.244 1_554 S
O85 Co84 2.216 . S
O85 C92 1.247 . S
O86 Co84 2.091 . S
O86 C92 1.261 . S
C87 O96 1.245 1_556 S
C87 O97 1.272 . S
O88 Co84 2.004 . S
O88 C93 1.259 . S
Co89 O90 2.061 . S
Co89 O95 2.052 . S
Co89 O97 2.135 . S
O90 Co89 2.061 . S
O90 C93 1.235 1_556 S
C91 O94 1.238 . S
C91 O95 1.241 1_554 S
C92 O85 1.247 . S
C92 O86 1.261 . S
C93 O88 1.259 . S
C93 O90 1.235 1_554 S
O94 Co84 2.021 . S
O94 C91 1.238 . S
O95 Co89 2.052 . S
O95 C91 1.241 1_556 S
O96 Co84 2.137 . S
O96 C87 1.245 1_554 S
O97 Co84 2.244 1_556 S
O97 C87 1.272 . S
O97 Co89 2.135 . S
Co98 O99 2.216 . S
Co98 O100 2.091 . S
Co98 O102 2.004 . S
Co98 O108 2.021 . S
Co98 O110 2.137 . S
Co98 O111 2.244 1_556 S
O99 Co98 2.216 . S
O99 C106 1.247 . S
O100 Co98 2.091 . S
O100 C106 1.261 . S
C101 O110 1.244 1_554 S
C101 O111 1.272 . S
O102 Co98 2.004 . S
O102 C107 1.259 . S
Co103 O104 2.061 . S
Co103 O109 2.052 . S
Co103 O111 2.135 . S
O104 Co103 2.061 . S
O104 C107 1.235 1_554 S
C105 O108 1.238 . S
C105 O109 1.241 1_556 S
C106 O99 1.247 . S
C106 O100 1.261 . S
C107 O102 1.259 . S
C107 O104 1.235 1_556 S
O108 Co98 2.021 . S
O108 C105 1.238 . S
O109 Co103 2.052 . S
O109 C105 1.241 1_554 S
O110 Co98 2.137 . S
O110 C101 1.244 1_556 S
O111 Co98 2.244 1_554 S
O111 C101 1.272 . S
O111 Co103 2.135 . S
Co112 O113 2.216 . S
Co112 O114 2.091 . S
Co112 O116 2.004 . S
Co112 O122 2.021 . S
Co112 O124 2.137 . S
Co112 O125 2.244 . S
O113 Co112 2.216 . S
O113 C120 1.247 . S
O114 Co112 2.091 . S
O114 C120 1.261 . S
C115 O124 1.247 . S
C115 O125 1.272 . S
O116 Co112 2.004 . S
O116 C121 1.259 . S
Co117 O118 2.061 . S
Co117 O123 2.052 . S
Co117 O125 2.135 . S
O118 Co117 2.061 . S
O118 C121 1.235 . S
C119 O122 1.238 . S
C119 O123 1.241 . S
C120 O113 1.247 . S
C120 O114 1.261 . S
C121 O116 1.259 . S
C121 O118 1.235 . S
O122 Co112 2.021 . S
O122 C119 1.238 . S
O123 Co117 2.052 . S
O123 C119 1.241 . S
O124 Co112 2.137 . S
O124 C115 1.247 . S
O125 Co112 2.244 . S
O125 C115 1.272 . S
O125 Co117 2.135 . S
Co126 O127 2.216 . S
Co126 O128 2.091 . S
Co126 O130 2.004 . S
Co126 O136 2.021 . S
Co126 O138 2.137 . S
Co126 O139 2.244 . S
O127 Co126 2.216 . S
O127 C134 1.247 . S
O128 Co126 2.091 . S
O128 C134 1.261 . S
C129 O138 1.247 . S
C129 O139 1.272 . S
O130 Co126 2.004 . S
O130 C135 1.259 . S
Co131 O132 2.061 . S
Co131 O137 2.052 . S
Co131 O139 2.135 . S
O132 Co131 2.061 . S
O132 C135 1.235 . S
C133 O136 1.238 . S
C133 O137 1.241 . S
C134 O127 1.247 . S
C134 O128 1.261 . S
C135 O130 1.259 . S
C135 O132 1.235 . S
O136 Co126 2.021 . S
O136 C133 1.238 . S
O137 Co131 2.052 . S
O137 C133 1.241 . S
O138 Co126 2.137 . S
O138 C129 1.247 . S
O139 Co126 2.244 . S
O139 C129 1.272 . S
O139 Co131 2.135 . S
Co140 O141 2.216 . S
Co140 O142 2.091 . S
Co140 O144 2.004 . S
Co140 O150 2.021 . S
Co140 O152 2.137 . S
Co140 O153 2.244 . S
O141 Co140 2.216 . S
O141 C148 1.247 . S
O142 Co140 2.091 . S
O142 C148 1.261 . S
C143 O152 1.247 . S
C143 O153 1.272 . S
O144 Co140 2.004 . S
O144 C149 1.259 . S
Co145 O146 2.061 . S
Co145 O151 2.052 . S
Co145 O153 2.135 . S
O146 Co145 2.061 . S
O146 C149 1.235 . S
C147 O150 1.238 . S
C147 O151 1.241 . S
C148 O141 1.247 . S
C148 O142 1.261 . S
C149 O144 1.259 . S
C149 O146 1.235 . S
O150 Co140 2.021 . S
O150 C147 1.238 . S
O151 Co145 2.052 . S
O151 C147 1.241 . S
O152 Co140 2.137 . S
O152 C143 1.247 . S
O153 Co140 2.244 . S
O153 C143 1.272 . S
O153 Co145 2.135 . S
Co154 O155 2.216 . S
Co154 O156 2.091 . S
Co154 O158 2.004 . S
Co154 O164 2.021 . S
Co154 O166 2.137 . S
Co154 O167 2.244 . S
O155 Co154 2.216 . S
O155 C162 1.247 . S
O156 Co154 2.091 . S
O156 C162 1.261 . S
C157 O166 1.247 . S
C157 O167 1.272 . S
O158 Co154 2.004 . S
O158 C163 1.259 . S
Co159 O160 2.061 . S
Co159 O165 2.052 . S
Co159 O167 2.135 . S
O160 Co159 2.061 . S
O160 C163 1.235 . S
C161 O164 1.238 . S
C161 O165 1.241 . S
C162 O155 1.247 . S
C162 O156 1.261 . S
C163 O158 1.259 . S
C163 O160 1.235 . S
O164 Co154 2.021 . S
O164 C161 1.238 . S
O165 Co159 2.052 . S
O165 C161 1.241 . S
O166 Co154 2.137 . S
O166 C157 1.247 . S
O167 Co154 2.244 . S
O167 C157 1.272 . S
O167 Co159 2.135 . S
Co168 O169 2.216 . S
Co168 O170 2.091 . S
Co168 O172 2.004 . S
Co168 O178 2.021 . S
Co168 O180 2.137 . S
Co168 O181 2.244 . S
O169 Co168 2.216 . S
O169 C176 1.247 . S
O170 Co168 2.091 . S
O170 C176 1.261 . S
C171 O180 1.247 . S
C171 O181 1.272 . S
O172 Co168 2.004 . S
O172 C177 1.259 . S
Co173 O174 2.061 . S
Co173 O179 2.052 . S
Co173 O181 2.135 . S
O174 Co173 2.061 . S
O174 C177 1.235 . S
C175 O178 1.238 . S
C175 O179 1.241 . S
C176 O169 1.247 . S
C176 O170 1.261 . S
C177 O172 1.259 . S
C177 O174 1.235 . S
O178 Co168 2.021 . S
O178 C175 1.238 . S
O179 Co173 2.052 . S
O179 C175 1.241 . S
O180 Co168 2.137 . S
O180 C171 1.247 . S
O181 Co168 2.244 . S
O181 C171 1.272 . S
O181 Co173 2.135 . S
Co182 O183 2.216 . S
Co182 O184 2.091 . S
Co182 O186 2.004 . S
Co182 O192 2.021 . S
Co182 O194 2.137 . S
Co182 O195 2.244 . S
O183 Co182 2.216 . S
O183 C190 1.247 . S
O184 Co182 2.091 . S
O184 C190 1.261 . S
C185 O194 1.247 . S
C185 O195 1.272 . S
O186 Co182 2.004 . S
O186 C191 1.259 . S
Co187 O188 2.061 . S
Co187 O193 2.052 . S
Co187 O195 2.135 . S
O188 Co187 2.061 . S
O188 C191 1.235 . S
C189 O192 1.238 . S
C189 O193 1.241 . S
C190 O183 1.247 . S
C190 O184 1.261 . S
C191 O186 1.259 . S
C191 O188 1.235 . S
O192 Co182 2.021 . S
O192 C189 1.238 . S
O193 Co187 2.052 . S
O193 C189 1.241 . S
O194 Co182 2.137 . S
O194 C185 1.247 . S
O195 Co182 2.244 . S
O195 C185 1.272 . S
O195 Co187 2.135 . S
Co196 O197 2.216 . S
Co196 O198 2.091 . S
Co196 O200 2.004 . S
Co196 O206 2.021 . S
Co196 O208 2.137 . S
Co196 O209 2.244 . S
O197 Co196 2.216 . S
O197 C204 1.247 . S
O198 Co196 2.091 . S
O198 C204 1.261 . S
C199 O208 1.247 . S
C199 O209 1.272 . S
O200 Co196 2.004 . S
O200 C205 1.259 . S
Co201 O202 2.061 . S
Co201 O207 2.052 . S
Co201 O209 2.135 . S
O202 Co201 2.061 . S
O202 C205 1.235 . S
C203 O206 1.238 . S
C203 O207 1.241 . S
C204 O197 1.247 . S
C204 O198 1.261 . S
C205 O200 1.259 . S
C205 O202 1.235 . S
O206 Co196 2.021 . S
O206 C203 1.238 . S
O207 Co201 2.052 . S
O207 C203 1.241 . S
O208 Co196 2.137 . S
O208 C199 1.247 . S
O209 Co196 2.244 . S
O209 C199 1.272 . S
O209 Co201 2.135 . S
Co210 O211 2.216 . S
Co210 O212 2.091 . S
Co210 O214 2.004 . S
Co210 O220 2.021 . S
Co210 O222 2.137 . S
Co210 O223 2.244 . S
O211 Co210 2.216 . S
O211 C218 1.247 . S
O212 Co210 2.091 . S
O212 C218 1.261 . S
C213 O222 1.247 . S
C213 O223 1.272 . S
O214 Co210 2.004 . S
O214 C219 1.259 . S
Co215 O216 2.061 . S
Co215 O221 2.052 . S
Co215 O223 2.135 . S
O216 Co215 2.061 . S
O216 C219 1.235 . S
C217 O220 1.238 . S
C217 O221 1.241 . S
C218 O211 1.247 . S
C218 O212 1.261 . S
C219 O214 1.259 . S
C219 O216 1.235 . S
O220 Co210 2.021 . S
O220 C217 1.238 . S
O221 Co215 2.052 . S
O221 C217 1.241 . S
O222 Co210 2.137 . S
O222 C213 1.247 . S
O223 Co210 2.244 . S
O223 C213 1.272 . S
O223 Co215 2.135 . S
C224 C225 1.387 . S
C224 H228 0.950 . S
C224 C233 1.390 1_565 S
C225 C224 1.387 . S
C225 C227 1.387 . S
H226 C233 0.950 . S
C227 C225 1.387 . S
C227 C229 1.390 1_565 S
C227 H231 0.950 . S
H228 C224 0.950 . S
C229 C227 1.390 1_545 S
C229 C230 1.387 . S
C229 H232 0.950 . S
C230 C229 1.387 . S
C230 C233 1.387 . S
H231 C227 0.950 . S
H232 C229 0.950 . S
C233 C224 1.390 1_545 S
C233 H226 0.950 . S
C233 C230 1.387 . S
C234 C235 1.387 . S
C234 H238 0.950 . S
C234 C243 1.390 1_455 S
C235 C234 1.387 . S
C235 C237 1.387 . S
H236 C243 0.950 . S
C237 C235 1.387 . S
C237 C239 1.390 1_455 S
C237 H241 0.950 . S
H238 C234 0.950 . S
C239 C237 1.390 1_655 S
C239 C240 1.387 . S
C239 H242 0.950 . S
C240 C239 1.387 . S
C240 C243 1.387 . S
H241 C237 0.950 . S
H242 C239 0.950 . S
C243 C234 1.390 1_655 S
C243 H236 0.950 . S
C243 C240 1.387 . S
C244 C245 1.387 . S
C244 H248 0.950 . S
C244 C253 1.390 1_565 S
C245 C244 1.387 . S
C245 C247 1.387 . S
H246 C253 0.950 . S
C247 C245 1.387 . S
C247 C249 1.390 1_565 S
C247 H251 0.950 . S
H248 C244 0.950 . S
C249 C247 1.390 1_545 S
C249 C250 1.387 . S
C249 H252 0.950 . S
C250 C249 1.387 . S
C250 C253 1.387 . S
H251 C247 0.950 . S
H252 C249 0.950 . S
C253 C244 1.390 1_545 S
C253 H246 0.950 . S
C253 C250 1.387 . S
C254 C255 1.387 . S
C254 H258 0.950 . S
C254 C263 1.390 1_455 S
C255 C254 1.387 . S
C255 C257 1.387 . S
H256 C263 0.950 . S
C257 C255 1.387 . S
C257 C259 1.390 1_455 S
C257 H261 0.950 . S
H258 C254 0.950 . S
C259 C257 1.390 1_655 S
C259 C260 1.387 . S
C259 H262 0.950 . S
C260 C259 1.387 . S
C260 C263 1.387 . S
H261 C257 0.950 . S
H262 C259 0.950 . S
C263 C254 1.390 1_655 S
C263 H256 0.950 . S
C263 C260 1.387 . S
C264 C265 1.387 1_554 S
C264 H268 0.950 . S
C264 C273 1.390 . S
C265 C264 1.387 1_556 S
C265 C267 1.387 . S
H266 C273 0.950 . S
C267 C265 1.387 . S
C267 C269 1.390 . S
C267 H271 0.950 . S
H268 C264 0.950 . S
C269 C267 1.390 . S
C269 C270 1.387 . S
C269 H272 0.950 . S
C270 C269 1.387 . S
C270 C273 1.387 1_556 S
H271 C267 0.950 . S
H272 C269 0.950 . S
C273 C264 1.390 . S
C273 H266 0.950 . S
C273 C270 1.387 1_554 S
C274 C275 1.387 . S
C274 H278 0.950 . S
C274 C283 1.390 . S
C275 C274 1.387 . S
C275 C277 1.387 . S
H276 C283 0.950 . S
C277 C275 1.387 . S
C277 C279 1.390 . S
C277 H281 0.950 . S
H278 C274 0.950 . S
C279 C277 1.390 . S
C279 C280 1.387 . S
C279 H282 0.950 . S
C280 C279 1.387 . S
C280 C283 1.387 . S
H281 C277 0.950 . S
H282 C279 0.950 . S
C283 C274 1.390 . S
C283 H276 0.950 . S
C283 C280 1.387 . S
C284 C285 1.387 1_554 S
C284 H288 0.950 . S
C284 C293 1.390 . S
C285 C284 1.387 1_556 S
C285 C287 1.387 . S
H286 C293 0.950 . S
C287 C285 1.387 . S
C287 C289 1.390 . S
C287 H291 0.950 . S
H288 C284 0.950 . S
C289 C287 1.390 . S
C289 C290 1.387 . S
C289 H292 0.950 . S
C290 C289 1.387 . S
C290 C293 1.387 1_556 S
H291 C287 0.950 . S
H292 C289 0.950 . S
C293 C284 1.390 . S
C293 H286 0.950 . S
C293 C290 1.387 1_554 S
C294 C295 1.387 . S
C294 H298 0.950 . S
C294 C303 1.390 . S
C295 C294 1.387 . S
C295 C297 1.387 . S
H296 C303 0.950 . S
C297 C295 1.387 . S
C297 C299 1.390 1_554 S
C297 H301 0.950 1_554 S
H298 C294 0.950 . S
C299 C297 1.390 1_556 S
C299 C300 1.387 1_556 S
C299 H302 0.950 . S
C300 C299 1.387 1_554 S
C300 C303 1.387 . S
H301 C297 0.950 1_556 S
H302 C299 0.950 . S
C303 C294 1.390 . S
C303 H296 0.950 . S
C303 C300 1.387 . S
C304 C305 1.387 . S
C304 H308 0.950 . S
C304 C313 1.390 . S
C305 C304 1.387 . S
C305 C307 1.387 . S
H306 C313 0.950 . S
C307 C305 1.387 . S
C307 C309 1.390 . S
C307 H311 0.950 . S
H308 C304 0.950 . S
C309 C307 1.390 . S
C309 C310 1.387 . S
C309 H312 0.950 . S
C310 C309 1.387 . S
C310 C313 1.387 . S
H311 C307 0.950 . S
H312 C309 0.950 . S
C313 C304 1.390 . S
C313 H306 0.950 . S
C313 C310 1.387 . S
C314 C315 1.387 . S
C314 H318 0.950 . S
C314 C323 1.390 . S
C315 C314 1.387 . S
C315 C317 1.387 . S
H316 C323 0.950 . S
C317 C315 1.387 . S
C317 C319 1.390 . S
C317 H321 0.950 . S
H318 C314 0.950 . S
C319 C317 1.390 . S
C319 C320 1.387 . S
C319 H322 0.950 . S
C320 C319 1.387 . S
C320 C323 1.387 . S
H321 C317 0.950 . S
H322 C319 0.950 . S
C323 C314 1.390 . S
C323 H316 0.950 . S
C323 C320 1.387 . S
C324 C325 1.387 . S
C324 H328 0.950 . S
C324 C333 1.390 . S
C325 C324 1.387 . S
C325 C327 1.387 . S
H326 C333 0.950 . S
C327 C325 1.387 . S
C327 C329 1.390 . S
C327 H331 0.950 . S
H328 C324 0.950 . S
C329 C327 1.390 . S
C329 C330 1.387 . S
C329 H332 0.950 . S
C330 C329 1.387 . S
C330 C333 1.387 . S
H331 C327 0.950 . S
H332 C329 0.950 . S
C333 C324 1.390 . S
C333 H326 0.950 . S
C333 C330 1.387 . S
C334 C335 1.387 . S
C334 H338 0.950 . S
C334 C343 1.390 . S
C335 C334 1.387 . S
C335 C337 1.387 . S
H336 C343 0.950 . S
C337 C335 1.387 . S
C337 C339 1.390 . S
C337 H341 0.950 . S
H338 C334 0.950 . S
C339 C337 1.390 . S
C339 C340 1.387 . S
C339 H342 0.950 . S
C340 C339 1.387 . S
C340 C343 1.387 . S
H341 C337 0.950 . S
H342 C339 0.950 . S
C343 C334 1.390 . S
C343 H336 0.950 . S
C343 C340 1.387 . S
C344 C345 1.387 . S
C344 H348 0.950 . S
C344 C353 1.390 1_565 S
C345 C344 1.387 . S
C345 C347 1.387 . S
H346 C353 0.950 . S
C347 C345 1.387 . S
C347 C349 1.390 1_565 S
C347 H351 0.950 . S
H348 C344 0.950 . S
C349 C347 1.390 1_545 S
C349 C350 1.387 . S
C349 H352 0.950 . S
C350 C349 1.387 . S
C350 C353 1.387 . S
H351 C347 0.950 . S
H352 C349 0.950 . S
C353 C344 1.390 1_545 S
C353 H346 0.950 . S
C353 C350 1.387 . S
C354 C355 1.387 . S
C354 H358 0.950 . S
C354 C363 1.390 1_655 S
C355 C354 1.387 . S
C355 C357 1.387 . S
H356 C363 0.950 . S
C357 C355 1.387 . S
C357 C359 1.390 1_655 S
C357 H361 0.950 . S
H358 C354 0.950 . S
C359 C357 1.390 1_455 S
C359 C360 1.387 . S
C359 H362 0.950 . S
C360 C359 1.387 . S
C360 C363 1.387 . S
H361 C357 0.950 . S
H362 C359 0.950 . S
C363 C354 1.390 1_455 S
C363 H356 0.950 . S
C363 C360 1.387 . S
C364 C365 1.387 . S
C364 H368 0.950 . S
C364 C373 1.390 1_565 S
C365 C364 1.387 . S
C365 C367 1.387 . S
H366 C373 0.950 . S
C367 C365 1.387 . S
C367 C369 1.390 1_565 S
C367 H371 0.950 . S
H368 C364 0.950 . S
C369 C367 1.390 1_545 S
C369 C370 1.387 . S
C369 H372 0.950 . S
C370 C369 1.387 . S
C370 C373 1.387 . S
H371 C367 0.950 . S
H372 C369 0.950 . S
C373 C364 1.390 1_545 S
C373 H366 0.950 . S
C373 C370 1.387 . S
C374 C375 1.387 . S
C374 H378 0.950 . S
C374 C383 1.390 1_655 S
C375 C374 1.387 . S
C375 C377 1.387 . S
H376 C383 0.950 . S
C377 C375 1.387 . S
C377 C379 1.390 1_655 S
C377 H381 0.950 . S
H378 C374 0.950 . S
C379 C377 1.390 1_455 S
C379 C380 1.387 . S
C379 H382 0.950 . S
C380 C379 1.387 . S
C380 C383 1.387 . S
H381 C377 0.950 . S
H382 C379 0.950 . S
C383 C374 1.390 1_455 S
C383 H376 0.950 . S
C383 C380 1.387 . S
C384 C385 1.387 . S
C384 H388 0.950 . S
C384 C393 1.390 . S
C385 C384 1.387 . S
C385 C387 1.387 . S
H386 C393 0.950 . S
C387 C385 1.387 . S
C387 C389 1.390 . S
C387 H391 0.950 . S
H388 C384 0.950 . S
C389 C387 1.390 . S
C389 C390 1.387 . S
C389 H392 0.950 . S
C390 C389 1.387 . S
C390 C393 1.387 . S
H391 C387 0.950 . S
H392 C389 0.950 . S
C393 C384 1.390 . S
C393 H386 0.950 . S
C393 C390 1.387 . S
C394 C395 1.387 . S
C394 H398 0.950 . S
C394 C403 1.390 . S
C395 C394 1.387 . S
C395 C397 1.387 . S
H396 C403 0.950 . S
C397 C395 1.387 . S
C397 C399 1.390 . S
C397 H401 0.950 . S
H398 C394 0.950 . S
C399 C397 1.390 . S
C399 C400 1.387 . S
C399 H402 0.950 . S
C400 C399 1.387 . S
C400 C403 1.387 . S
H401 C397 0.950 . S
H402 C399 0.950 . S
C403 C394 1.390 . S
C403 H396 0.950 . S
C403 C400 1.387 . S
C404 C405 1.387 . S
C404 H408 0.950 . S
C404 C413 1.390 . S
C405 C404 1.387 . S
C405 C407 1.387 . S
H406 C413 0.950 . S
C407 C405 1.387 . S
C407 C409 1.390 . S
C407 H411 0.950 . S
H408 C404 0.950 . S
C409 C407 1.390 . S
C409 C410 1.387 . S
C409 H412 0.950 . S
C410 C409 1.387 . S
C410 C413 1.387 . S
H411 C407 0.950 . S
H412 C409 0.950 . S
C413 C404 1.390 . S
C413 H406 0.950 . S
C413 C410 1.387 . S
C414 C415 1.387 . S
C414 H418 0.950 . S
C414 C423 1.390 . S
C415 C414 1.387 . S
C415 C417 1.387 . S
H416 C423 0.950 . S
C417 C415 1.387 . S
C417 C419 1.390 . S
C417 H421 0.950 . S
H418 C414 0.950 . S
C419 C417 1.390 . S
C419 C420 1.387 . S
C419 H422 0.950 . S
C420 C419 1.387 . S
C420 C423 1.387 . S
H421 C417 0.950 . S
H422 C419 0.950 . S
C423 C414 1.390 . S
C423 H416 0.950 . S
C423 C420 1.387 . S
C424 C425 1.387 . S
C424 H428 0.950 . S
C424 C433 1.390 . S
C425 C424 1.387 . S
C425 C427 1.387 . S
H426 C433 0.950 . S
C427 C425 1.387 . S
C427 C429 1.390 . S
C427 H431 0.950 . S
H428 C424 0.950 . S
C429 C427 1.390 . S
C429 C430 1.387 . S
C429 H432 0.950 . S
C430 C429 1.387 . S
C430 C433 1.387 . S
H431 C427 0.950 . S
H432 C429 0.950 . S
C433 C424 1.390 . S
C433 H426 0.950 . S
C433 C430 1.387 . S
C434 C435 1.387 . S
C434 H438 0.950 . S
C434 C443 1.390 . S
C435 C434 1.387 . S
C435 C437 1.387 . S
H436 C443 0.950 . S
C437 C435 1.387 . S
C437 C439 1.390 . S
C437 H441 0.950 . S
H438 C434 0.950 . S
C439 C437 1.390 . S
C439 C440 1.387 . S
C439 H442 0.950 . S
C440 C439 1.387 . S
C440 C443 1.387 . S
H441 C437 0.950 . S
H442 C439 0.950 . S
C443 C434 1.390 . S
C443 H436 0.950 . S
C443 C440 1.387 . S
C444 C445 1.387 . S
C444 H448 0.950 . S
C444 C453 1.390 . S
C445 C444 1.387 . S
C445 C447 1.387 . S
H446 C453 0.950 . S
C447 C445 1.387 . S
C447 C449 1.390 . S
C447 H451 0.950 . S
H448 C444 0.950 . S
C449 C447 1.390 . S
C449 C450 1.387 . S
C449 H452 0.950 . S
C450 C449 1.387 . S
C450 C453 1.387 . S
H451 C447 0.950 . S
H452 C449 0.950 . S
C453 C444 1.390 . S
C453 H446 0.950 . S
C453 C450 1.387 . S
C454 C455 1.387 . S
C454 H458 0.950 . S
C454 C463 1.390 . S
C455 C454 1.387 . S
C455 C457 1.387 . S
H456 C463 0.950 . S
C457 C455 1.387 . S
C457 C459 1.390 . S
C457 H461 0.950 . S
H458 C454 0.950 . S
C459 C457 1.390 . S
C459 C460 1.387 . S
C459 H462 0.950 . S
C460 C459 1.387 . S
C460 C463 1.387 . S
H461 C457 0.950 . S
H462 C459 0.950 . S
C463 C454 1.390 . S
C463 H456 0.950 . S
C463 C460 1.387 . S
C464 C465 1.387 . S
C464 H468 0.950 . S
C464 C473 1.390 . S
C465 C464 1.387 . S
C465 C467 1.387 . S
H466 C473 0.950 . S
C467 C465 1.387 . S
C467 C469 1.390 . S
C467 H471 0.950 . S
H468 C464 0.950 . S
C469 C467 1.390 . S
C469 C470 1.387 . S
C469 H472 0.950 . S
C470 C469 1.387 . S
C470 C473 1.387 . S
H471 C467 0.950 . S
H472 C469 0.950 . S
C473 C464 1.390 . S
C473 H466 0.950 . S
C473 C470 1.387 . S
C474 C475 1.387 . S
C474 H478 0.950 . S
C474 C483 1.390 . S
C475 C474 1.387 . S
C475 C477 1.387 . S
H476 C483 0.950 . S
C477 C475 1.387 . S
C477 C479 1.390 . S
C477 H481 0.950 . S
H478 C474 0.950 . S
C479 C477 1.390 . S
C479 C480 1.387 . S
C479 H482 0.950 . S
C480 C479 1.387 . S
C480 C483 1.387 . S
H481 C477 0.950 . S
H482 C479 0.950 . S
C483 C474 1.390 . S
C483 H476 0.950 . S
C483 C480 1.387 . S
C484 C485 1.387 . S
C484 H488 0.950 . S
C484 C493 1.390 . S
C485 C484 1.387 . S
C485 C487 1.387 . S
H486 C493 0.950 . S
C487 C485 1.387 . S
C487 C489 1.390 . S
C487 H491 0.950 . S
H488 C484 0.950 . S
C489 C487 1.390 . S
C489 C490 1.387 . S
C489 H492 0.950 . S
C490 C489 1.387 . S
C490 C493 1.387 . S
H491 C487 0.950 . S
H492 C489 0.950 . S
C493 C484 1.390 . S
C493 H486 0.950 . S
C493 C490 1.387 . S
C494 C495 1.387 . S
C494 H498 0.950 . S
C494 C503 1.390 . S
C495 C494 1.387 . S
C495 C497 1.387 . S
H496 C503 0.950 . S
C497 C495 1.387 . S
C497 C499 1.390 . S
C497 H501 0.950 . S
H498 C494 0.950 . S
C499 C497 1.390 . S
C499 C500 1.387 . S
C499 H502 0.950 . S
C500 C499 1.387 . S
C500 C503 1.387 . S
H501 C497 0.950 . S
H502 C499 0.950 . S
C503 C494 1.390 . S
C503 H496 0.950 . S
C503 C500 1.387 . S
C504 C505 1.387 . S
C504 H508 0.950 . S
C504 C513 1.390 . S
C505 C504 1.387 . S
C505 C507 1.387 . S
H506 C513 0.950 . S
C507 C505 1.387 . S
C507 C509 1.390 . S
C507 H511 0.950 . S
H508 C504 0.950 . S
C509 C507 1.390 . S
C509 C510 1.387 . S
C509 H512 0.950 . S
C510 C509 1.387 . S
C510 C513 1.387 . S
H511 C507 0.950 . S
H512 C509 0.950 . S
C513 C504 1.390 . S
C513 H506 0.950 . S
C513 C510 1.387 . S
C514 C515 1.387 . S
C514 H518 0.950 . S
C514 C523 1.390 . S
C515 C514 1.387 . S
C515 C517 1.387 . S
H516 C523 0.950 . S
C517 C515 1.387 . S
C517 C519 1.390 . S
C517 H521 0.950 . S
H518 C514 0.950 . S
C519 C517 1.390 . S
C519 C520 1.387 . S
C519 H522 0.950 . S
C520 C519 1.387 . S
C520 C523 1.387 . S
H521 C517 0.950 . S
H522 C519 0.950 . S
C523 C514 1.390 . S
C523 H516 0.950 . S
C523 C520 1.387 . S
C524 C525 1.387 . S
C524 H528 0.950 . S
C524 C533 1.390 . S
C525 C524 1.387 . S
C525 C527 1.387 . S
H526 C533 0.950 . S
C527 C525 1.387 . S
C527 C529 1.390 . S
C527 H531 0.950 . S
H528 C524 0.950 . S
C529 C527 1.390 . S
C529 C530 1.387 . S
C529 H532 0.950 . S
C530 C529 1.387 . S
C530 C533 1.387 . S
H531 C527 0.950 . S
H532 C529 0.950 . S
C533 C524 1.390 . S
C533 H526 0.950 . S
C533 C530 1.387 . S
C534 C535 1.387 . S
C534 H538 0.950 . S
C534 C543 1.390 . S
C535 C534 1.387 . S
C535 C537 1.387 . S
H536 C543 0.950 . S
C537 C535 1.387 . S
C537 C539 1.390 . S
C537 H541 0.950 . S
H538 C534 0.950 . S
C539 C537 1.390 . S
C539 C540 1.387 . S
C539 H542 0.950 . S
C540 C539 1.387 . S
C540 C543 1.387 . S
H541 C537 0.950 . S
H542 C539 0.950 . S
C543 C534 1.390 . S
C543 H536 0.950 . S
C543 C540 1.387 . S
C225 C163 1.389 . S
C230 C3 1.364 . S
C235 C17 1.364 . S
C240 C121 1.391 . S
C245 C31 1.363 . S
C250 C135 1.389 . S
C255 C149 1.388 . S
C260 C45 1.364 . S
C265 C59 1.366 . S
C270 C79 1.391 . S
C275 C73 1.366 . S
C280 C93 1.388 . S
C285 C107 1.390 . S
C290 C87 1.367 . S
C295 C65 1.391 . S
C300 C101 1.365 . S
C305 C51 1.391 . S
C310 C115 1.365 . S
C315 C129 1.364 . S
C320 C9 1.391 . S
C325 C23 1.389 . S
C330 C143 1.363 . S
C335 C157 1.365 . S
C340 C37 1.388 . S
C345 C171 1.366 . S
C350 C191 1.390 . S
C355 C185 1.364 . S
C360 C205 1.391 . S
C365 C219 1.389 . S
C370 C199 1.363 . S
C375 C177 1.389 . S
C380 C213 1.365 . S
C385 C63 1.513 . S
C390 C7 1.513 . S
C395 C21 1.510 . S
C400 C77 1.510 . S
C405 C35 1.510 . S
C410 C91 1.510 . S
C415 C105 1.510 . S
C420 C49 1.510 . S
C425 C119 1.510 . S
C430 C175 1.510 . S
C435 C189 1.513 . S
C440 C133 1.513 . S
C445 C147 1.513 . S
C450 C203 1.513 . S
C455 C217 1.510 . S
C460 C161 1.510 . S
C465 C204 1.475 . S
C470 C8 1.475 . S
C475 C218 1.475 . S
C480 C22 1.475 . S
C485 C36 1.475 . S
C490 C176 1.475 . S
C495 C190 1.478 . S
C500 C50 1.478 . S
C505 C148 1.478 . S
C510 C64 1.478 . S
C515 C162 1.478 . S
C520 C78 1.478 . S
C525 C92 1.478 . S
C530 C120 1.478 . S
C535 C134 1.475 . S
C540 C106 1.475 . S
