# Generated by pormake.
# Topology upa, (4)-cn, num edge types: 1
# Building blocks:
#     Node 0, Type 0, BuildingBlock: QUQFOY_clean_sbu_3, # of connection points: 4
#     Node 1, Type 0, BuildingBlock: QUQFOY_clean_sbu_3, # of connection points: 4
#     Node 2, Type 0, BuildingBlock: QUQFOY_clean_sbu_3, # of connection points: 4
#     Node 3, Type 0, BuildingBlock: QUQFOY_clean_sbu_3, # of connection points: 4
#     Node 4, Type 0, BuildingBlock: QUQFOY_clean_sbu_3, # of connection points: 4
#     Node 5, Type 0, BuildingBlock: QUQFOY_clean_sbu_3, # of connection points: 4
#     Node 6, Type 0, BuildingBlock: QUQFOY_clean_sbu_3, # of connection points: 4
#     Node 7, Type 0, BuildingBlock: QUQFOY_clean_sbu_3, # of connection points: 4
#     Edge 8, Type (0, 0), BuildingBlock: AJUNOK_clean_linker_0, # of connection points: 2
#     Edge 9, Type (0, 0), BuildingBlock: AJUNOK_clean_linker_0, # of connection points: 2
#     Edge 10, Type (0, 0), BuildingBlock: AJUNOK_clean_linker_0, # of connection points: 2
#     Edge 11, Type (0, 0), BuildingBlock: AJUNOK_clean_linker_0, # of connection points: 2
#     Edge 12, Type (0, 0), BuildingBlock: AJUNOK_clean_linker_0, # of connection points: 2
#     Edge 13, Type (0, 0), BuildingBlock: AJUNOK_clean_linker_0, # of connection points: 2
#     Edge 14, Type (0, 0), BuildingBlock: AJUNOK_clean_linker_0, # of connection points: 2
#     Edge 15, Type (0, 0), BuildingBlock: AJUNOK_clean_linker_0, # of connection points: 2
#     Edge 16, Type (0, 0), BuildingBlock: AJUNOK_clean_linker_0, # of connection points: 2
#     Edge 17, Type (0, 0), BuildingBlock: AJUNOK_clean_linker_0, # of connection points: 2
#     Edge 18, Type (0, 0), BuildingBlock: AJUNOK_clean_linker_0, # of connection points: 2
#     Edge 19, Type (0, 0), BuildingBlock: AJUNOK_clean_linker_0, # of connection points: 2
#     Edge 20, Type (0, 0), BuildingBlock: AJUNOK_clean_linker_0, # of connection points: 2
#     Edge 21, Type (0, 0), BuildingBlock: AJUNOK_clean_linker_0, # of connection points: 2
#     Edge 22, Type (0, 0), BuildingBlock: AJUNOK_clean_linker_0, # of connection points: 2
#     Edge 23, Type (0, 0), BuildingBlock: AJUNOK_clean_linker_0, # of connection points: 2
# Relax obj value: 0.207
# Max RMSD: 0.129
# Mean RMSD: 0.129
data_MOF--net-upa--node1-QUQFOY_clean_sbu_3--edge1-AJUNOK_clean_linker_0
_symmetry_space_group_name_H-M    P1
_symmetry_Int_Tables_number       1
_symmetry_cell_setting            triclinic
loop_
_symmetry_equiv_pos_as_xyz
'x, y, z'
_cell_length_a     20.818953
_cell_length_b     20.826047
_cell_length_c     33.858382
_cell_angle_alpha  90.768512
_cell_angle_beta   89.960667
_cell_angle_gamma 89.898137
loop_
_atom_site_label
_atom_site_type_symbol
_atom_site_fract_x
_atom_site_fract_y
_atom_site_fract_z
_atom_type_partial_charge
C0 C 0.01339 0.26701 0.29417 0.0
O1 O 0.0033 0.28677 0.32928 0.0
Cd2 Cd 0.06164 0.24661 0.38512 0.0
O3 O 0.06441 0.23534 0.28569 0.0
Cd4 Cd 0.16547 0.19661 0.31984 0.0
C5 C 0.05606 0.08968 0.35165 0.0
O6 O 0.17425 0.2605 0.38112 0.0
O7 O 0.215 0.16535 0.38196 0.0
O8 O 0.25085 0.24729 0.28038 0.0
C9 C 0.2053 0.21821 0.40003 0.0
O10 O 0.03978 0.13221 0.37716 0.0
C11 C 0.27845 0.19513 0.27003 0.0
O12 O 0.09821 0.10064 0.32522 0.0
O13 O 0.25107 0.14354 0.28057 0.0
C14 C 0.18058 0.52182 0.79321 0.0
O15 O 0.15721 0.51394 0.82746 0.0
Cd16 Cd 0.19514 0.57243 0.88452 0.0
O17 O 0.21419 0.57162 0.78571 0.0
Cd18 Cd 0.25225 0.67373 0.8203 0.0
C19 C 0.35378 0.56144 0.85534 0.0
O20 O 0.18635 0.68534 0.87976 0.0
O21 O 0.28205 0.72407 0.88324 0.0
O22 O 0.20603 0.76071 0.78036 0.0
C23 C 0.22849 0.71493 0.90015 0.0
O24 O 0.30901 0.54634 0.87917 0.0
C25 C 0.25963 0.78455 0.77 0.0
O26 O 0.34574 0.60428 0.82916 0.0
O27 O 0.30975 0.75474 0.78105 0.0
C28 C 0.9291 0.68249 0.29157 0.0
O29 O 0.93594 0.65757 0.32533 0.0
Cd30 Cd 0.88293 0.70224 0.38221 0.0
O31 O 0.88173 0.7201 0.28487 0.0
Cd32 Cd 0.78161 0.76185 0.32018 0.0
C33 C 0.89962 0.86005 0.35222 0.0
O34 O 0.76948 0.69673 0.37942 0.0
O35 O 0.73484 0.79417 0.38363 0.0
O36 O 0.69461 0.71311 0.2807 0.0
C37 C 0.74174 0.74014 0.39999 0.0
O38 O 0.9149 0.81395 0.37477 0.0
C39 C 0.6679 0.76567 0.27117 0.0
O40 O 0.85319 0.85459 0.32776 0.0
O41 O 0.69664 0.81688 0.28193 0.0
C42 C 0.75815 0.44614 0.79392 0.0
O43 O 0.78049 0.45537 0.82843 0.0
Cd44 Cd 0.74275 0.3973 0.885 0.0
O45 O 0.72541 0.39568 0.78588 0.0
Cd46 Cd 0.68764 0.29452 0.81969 0.0
C47 C 0.58446 0.40631 0.85524 0.0
O48 O 0.75324 0.28424 0.87947 0.0
O49 O 0.6574 0.24493 0.88137 0.0
O50 O 0.73594 0.20821 0.77911 0.0
C51 C 0.71085 0.25342 0.89857 0.0
O52 O 0.62864 0.42205 0.87953 0.0
C53 C 0.68312 0.18184 0.76924 0.0
O54 O 0.59339 0.3633 0.82857 0.0
O55 O 0.6321 0.2106 0.78032 0.0
C56 C 0.51686 0.18882 0.17855 0.0
O57 O 0.5108 0.15884 0.14586 0.0
Cd58 Cd 0.56132 0.20336 0.08884 0.0
O59 O 0.56425 0.227 0.18411 0.0
Cd60 Cd 0.66649 0.26391 0.14966 0.0
C61 C 0.54883 0.36237 0.12135 0.0
O62 O 0.67522 0.19835 0.08937 0.0
O63 O 0.71326 0.29461 0.08691 0.0
O64 O 0.75301 0.21392 0.18818 0.0
C65 C 0.70352 0.24128 0.0694 0.0
O66 O 0.52933 0.31481 0.10057 0.0
C67 C 0.77927 0.26624 0.19931 0.0
O68 O 0.5994 0.35903 0.14249 0.0
O69 O 0.75078 0.31775 0.18957 0.0
C70 C 0.26057 0.01746 0.67614 0.0
O71 O 0.27853 0.00732 0.64075 0.0
Cd72 Cd 0.23748 0.06495 0.58528 0.0
O73 O 0.22851 0.06806 0.68529 0.0
Cd74 Cd 0.18818 0.16878 0.6511 0.0
C75 C 0.08053 0.06011 0.6177 0.0
O76 O 0.25313 0.17704 0.59101 0.0
O77 O 0.1582 0.21764 0.58817 0.0
O78 O 0.23801 0.25593 0.69048 0.0
C79 C 0.21165 0.2076 0.57115 0.0
O80 O 0.12287 0.04357 0.59232 0.0
C81 C 0.18558 0.28279 0.70084 0.0
O82 O 0.09199 0.10218 0.6445 0.0
O83 O 0.13422 0.25417 0.69049 0.0
C84 C 0.42976 0.77082 0.17985 0.0
O85 O 0.43757 0.79675 0.14646 0.0
Cd86 Cd 0.3849 0.75234 0.08941 0.0
O87 O 0.38107 0.73474 0.18599 0.0
Cd88 Cd 0.27964 0.69616 0.15067 0.0
C89 C 0.39537 0.59426 0.12038 0.0
O90 O 0.27112 0.76191 0.09123 0.0
O91 O 0.23217 0.66601 0.08763 0.0
O92 O 0.19059 0.74187 0.19055 0.0
C93 C 0.24101 0.71957 0.07113 0.0
O94 O 0.41501 0.64011 0.09894 0.0
C95 C 0.16641 0.68801 0.19981 0.0
O96 O 0.34633 0.60079 0.14268 0.0
O97 O 0.19694 0.63828 0.18824 0.0
C98 C 0.67499 0.94221 0.67763 0.0
O99 O 0.64918 0.94895 0.64397 0.0
Cd100 Cd 0.69067 0.89199 0.58718 0.0
O101 O 0.71061 0.89347 0.68443 0.0
Cd102 Cd 0.74951 0.79144 0.65049 0.0
C103 C 0.84896 0.90665 0.61757 0.0
O104 O 0.68498 0.77855 0.59038 0.0
O105 O 0.78181 0.74146 0.58826 0.0
O106 O 0.70053 0.70631 0.69027 0.0
C107 C 0.72842 0.74899 0.57087 0.0
O108 O 0.80318 0.92164 0.59447 0.0
C109 C 0.75314 0.68047 0.7008 0.0
O110 O 0.84273 0.86182 0.64267 0.0
O111 O 0.80438 0.70883 0.69032 0.0
C112 C -0.0174 0.01212 0.31847 0.0
C113 C 0.02074 0.02881 0.35119 0.0
C114 C 0.94232 0.95823 0.31936 0.0
C115 C 0.93979 0.91873 0.35278 0.0
H116 H -0.01743 0.04192 0.29248 0.0
H117 H 0.91356 0.94714 0.29351 0.0
S118 S 0.0338 0.94127 0.44521 0.0
N119 N 0.05504 0.00214 0.41735 0.0
N120 N -0.01897 0.89972 0.41901 0.0
C121 C -0.02102 0.93467 0.38541 0.0
C122 C 0.019 -0.00992 0.38463 0.0
C123 C 0.44244 0.50371 0.82041 0.0
C124 C 0.41378 0.52401 0.85607 0.0
C125 C 0.49642 0.46341 0.82036 0.0
C126 C 0.52422 0.44338 0.85598 0.0
H127 H 0.4222 0.5179 0.79237 0.0
H128 H 0.5174 0.44909 0.79229 0.0
S129 S 0.46772 0.48399 0.95716 0.0
N130 N 0.41666 0.5209 0.92779 0.0
N131 N 0.51951 0.4469 0.92771 0.0
C132 C 0.49637 0.46386 0.89179 0.0
C133 C 0.44069 0.5037 0.89183 0.0
C134 C 0.53784 0.481 0.11615 0.0
C135 C 0.50953 0.42095 0.12232 0.0
C136 C 0.50015 0.53672 0.11505 0.0
C137 C 0.43321 0.53431 0.12112 0.0
H138 H 0.58914 0.48471 0.11131 0.0
H139 H 0.52378 0.58215 0.10987 0.0
S140 S 0.33724 0.38844 0.14106 0.0
N141 N 0.41156 0.36184 0.13573 0.0
N142 N 0.34083 0.46694 0.13503 0.0
C143 C 0.40474 0.47455 0.12843 0.0
C144 C 0.44292 0.41771 0.12862 0.0
C145 C -0.00088 -0.00625 0.65206 0.0
C146 C 0.01938 0.02509 0.61777 0.0
C147 C 0.94477 0.95405 0.65153 0.0
C148 C 0.9083 0.94552 0.61686 0.0
H149 H 0.02647 -0.00145 0.67916 0.0
H150 H 0.93075 0.93068 0.6786 0.0
S151 S 0.94005 0.02072 0.51997 0.0
N152 N -0.00116 0.04666 0.54871 0.0
N153 N 0.8955 -0.02623 0.54773 0.0
C154 C 0.9276 -0.02205 0.58261 0.0
C155 C -0.01647 0.01726 0.58305 0.0
C156 C 0.17327 0.26069 0.46681 0.0
C157 C 0.21477 0.22276 0.44341 0.0
C158 C 0.17453 0.2574 0.5082 0.0
C159 C 0.218 0.21689 0.52785 0.0
H160 H 0.1373 0.29069 0.45309 0.0
H161 H 0.13977 0.28546 0.5249 0.0
S162 S 0.34191 0.11357 0.48003 0.0
N163 N 0.30399 0.14735 0.44284 0.0
N164 N 0.30734 0.14215 0.5205 0.0
C165 C 0.26247 0.1818 0.5048 0.0
C166 C 0.26053 0.18444 0.46264 0.0
C167 C 0.2674 0.76297 0.96391 0.0
C168 C 0.22303 0.72346 0.94368 0.0
C169 C 0.27034 0.76464 0.00533 0.0
C170 C 0.22972 0.72602 0.02813 0.0
H171 H 0.3017 0.79131 0.94757 0.0
H172 H 0.30701 0.79379 0.01944 0.0
S173 S 0.10037 0.61955 -0.00987 0.0
N174 N 0.13345 0.64941 0.95005 0.0
N175 N 0.14005 0.65145 0.02775 0.0
C176 C 0.18292 0.68891 0.00845 0.0
C177 C 0.17921 0.68798 0.96628 0.0
C178 C 0.68665 0.77992 0.50444 0.0
C179 C 0.72394 0.7385 0.52757 0.0
C180 C 0.6907 0.77813 0.46305 0.0
C181 C 0.73125 0.73408 0.44318 0.0
H182 H 0.65677 0.81635 0.51838 0.0
H183 H 0.6633 0.81293 0.44652 0.0
S184 S 0.83291 0.61017 0.49029 0.0
N185 N 0.79875 0.64881 0.52769 0.0
N186 N 0.80521 0.64432 0.44998 0.0
C187 C 0.76554 0.68961 0.46595 0.0
C188 C 0.76223 0.69218 0.50811 0.0
C189 C 0.75526 0.28227 0.96519 0.0
C190 C 0.71653 0.24205 0.94158 0.0
C191 C 0.75281 0.27954 0.00656 0.0
C192 C 0.71238 0.23578 0.02593 0.0
H193 H 0.78515 0.31849 0.95174 0.0
H194 H 0.78137 0.31348 0.02351 0.0
S195 S 0.6074 0.11457 0.97728 0.0
N196 N 0.64064 0.15347 0.94035 0.0
N197 N 0.637 0.14743 0.018 0.0
C198 C 0.67663 0.19242 0.00257 0.0
C199 C 0.67841 0.19587 0.96044 0.0
C200 C 0.42195 0.13454 0.20957 0.0
C201 C 0.46115 0.18924 0.20623 0.0
C202 C 0.36354 0.13673 0.23053 0.0
C203 C 0.34088 0.19417 0.24815 0.0
H204 H 0.43605 0.08982 0.19531 0.0
H205 H 0.33527 0.09323 0.23216 0.0
S206 S 0.42486 0.3515 0.24734 0.0
N207 N 0.47307 0.30265 0.22244 0.0
N208 N 0.36316 0.30724 0.26094 0.0
C209 C 0.37987 0.2492 0.24519 0.0
C210 C 0.43996 0.2466 0.22454 0.0
C211 C 0.21172 0.88973 0.74924 0.0
C212 C 0.26327 0.84578 0.74769 0.0
C213 C 0.21339 0.94767 0.72835 0.0
C214 C 0.26615 0.96354 0.70438 0.0
H215 H 0.16938 0.87916 0.76658 0.0
H216 H 0.17157 -0.02131 0.72945 0.0
S217 S 0.41473 0.86684 0.69139 0.0
N218 N 0.37018 0.82415 0.72169 0.0
N219 N 0.37224 0.9317 0.68146 0.0
C220 C 0.3186 0.9208 0.70324 0.0
C221 C 0.31748 0.8624 0.72513 0.0
C222 C 0.58513 0.82313 0.23026 0.0
C223 C 0.60502 0.76728 0.24991 0.0
C224 C 0.52676 0.82515 0.2093 0.0
C225 C 0.48485 0.77208 0.20801 0.0
H226 H 0.61572 0.86514 0.23011 0.0
H227 H 0.51496 0.86826 0.19326 0.0
S228 S 0.51266 0.61518 0.256 0.0
N229 N 0.57673 0.65805 0.26759 0.0
N230 N 0.467 0.66242 0.22907 0.0
C231 C 0.50306 0.71676 0.22873 0.0
C232 C 0.56307 0.7142 0.24936 0.0
C233 C 0.62471 0.09953 0.72756 0.0
C234 C 0.68096 0.11903 0.74749 0.0
C235 C 0.62193 0.04084 0.7065 0.0
C236 C 0.67462 -0.0017 0.70543 0.0
H237 H 0.58292 0.13058 0.72738 0.0
H238 H 0.57851 0.02917 0.69033 0.0
S239 S 0.83247 0.02518 0.75388 0.0
N240 N 0.79024 0.08993 0.76544 0.0
N241 N 0.78449 -0.02041 0.72675 0.0
C242 C 0.73042 0.01627 0.72629 0.0
C243 C 0.73374 0.07657 0.747 0.0
C244 C 0.91553 0.32193 0.26702 0.0
C245 C 0.95923 0.2702 0.26552 0.0
C246 C 0.85822 0.32092 0.24496 0.0
C247 C 0.84124 0.26726 0.22144 0.0
H248 H 0.92514 0.36308 0.28602 0.0
H249 H 0.82605 0.36174 0.24731 0.0
S250 S 0.93935 0.11967 0.20686 0.0
N251 N -0.01787 0.1645 0.23758 0.0
N252 N 0.87416 0.16183 0.1971 0.0
C253 C 0.88501 0.21565 0.21922 0.0
C254 C 0.94401 0.21735 0.24093 0.0
C255 C 0.12872 0.36507 0.74353 0.0
C256 C 0.18412 0.34569 0.72257 0.0
C257 C 0.12667 0.42359 0.76481 0.0
C258 C 0.1792 0.46617 0.76507 0.0
H259 H 0.0871 0.33398 0.74443 0.0
H260 H 0.08398 0.43507 0.78183 0.0
S261 S 0.33482 0.43974 0.71369 0.0
N262 N 0.29239 0.37501 0.70273 0.0
N263 N 0.28791 0.48515 0.7418 0.0
C264 C 0.23406 0.44842 0.74313 0.0
C265 C 0.23671 0.38821 0.7222 0.0
C266 C 0.06138 0.73611 0.22215 0.0
C267 C 0.10411 0.68353 0.22148 0.0
C268 C 0.00246 0.73353 0.24243 0.0
C269 C -0.01581 0.67864 0.26352 0.0
H270 H 0.07369 0.77997 0.20709 0.0
H271 H 0.9725 0.77613 0.24319 0.0
S272 S 0.07676 0.52665 0.26957 0.0
N273 N 0.12198 0.57348 0.24212 0.0
N274 N 0.0124 0.56946 0.28107 0.0
C275 C 0.02562 0.62517 0.26228 0.0
C276 C 0.08515 0.62737 0.24108 0.0
C277 C 0.81162 0.54407 0.76621 0.0
C278 C 0.75971 0.50073 0.76589 0.0
C279 C 0.80962 0.60141 0.74464 0.0
C280 C 0.7548 0.61881 0.72283 0.0
H281 H 0.85381 0.53408 0.78383 0.0
H282 H 0.85073 0.63316 0.74597 0.0
S283 S 0.60582 0.52213 0.71223 0.0
N284 N 0.65223 0.47894 0.74118 0.0
N285 N 0.64776 0.58687 0.70162 0.0
C286 C 0.70282 0.57554 0.72194 0.0
C287 C 0.70548 0.51653 0.74314 0.0
loop_
_geom_bond_atom_site_label_1
_geom_bond_atom_site_label_2
_geom_bond_distance
_geom_bond_site_symmetry_2
_ccdc_geom_bond_type
C0 O1 1.306 . S
C0 O3 1.160 . S
O1 C0 1.306 . S
O1 Cd2 2.228 . S
Cd2 O1 2.228 . S
Cd2 O6 2.273 . S
Cd2 O10 2.277 . S
O3 C0 1.160 . S
O3 Cd4 2.203 . S
Cd4 O3 2.203 . S
Cd4 O6 2.411 . S
Cd4 O7 2.333 . S
Cd4 O8 2.352 . S
Cd4 O12 2.277 . S
Cd4 O13 2.356 . S
C5 O10 1.209 . S
C5 O12 1.226 . S
O6 Cd2 2.273 . S
O6 Cd4 2.411 . S
O6 C9 1.320 . S
O7 Cd4 2.333 . S
O7 C9 1.214 . S
O8 Cd4 2.352 . S
O8 C11 1.258 . S
C9 O6 1.320 . S
C9 O7 1.214 . S
O10 Cd2 2.277 . S
O10 C5 1.209 . S
C11 O8 1.258 . S
C11 O13 1.282 . S
O12 Cd4 2.277 . S
O12 C5 1.226 . S
O13 Cd4 2.356 . S
O13 C11 1.282 . S
C14 O15 1.306 . S
C14 O17 1.160 . S
O15 C14 1.306 . S
O15 Cd16 2.228 . S
Cd16 O15 2.228 . S
Cd16 O20 2.273 . S
Cd16 O24 2.277 . S
O17 C14 1.160 . S
O17 Cd18 2.203 . S
Cd18 O17 2.203 . S
Cd18 O20 2.411 . S
Cd18 O21 2.333 . S
Cd18 O22 2.352 . S
Cd18 O26 2.277 . S
Cd18 O27 2.356 . S
C19 O24 1.209 . S
C19 O26 1.226 . S
O20 Cd16 2.273 . S
O20 Cd18 2.411 . S
O20 C23 1.320 . S
O21 Cd18 2.333 . S
O21 C23 1.214 . S
O22 Cd18 2.352 . S
O22 C25 1.258 . S
C23 O20 1.320 . S
C23 O21 1.214 . S
O24 Cd16 2.277 . S
O24 C19 1.209 . S
C25 O22 1.258 . S
C25 O27 1.282 . S
O26 Cd18 2.277 . S
O26 C19 1.226 . S
O27 Cd18 2.356 . S
O27 C25 1.282 . S
C28 O29 1.306 . S
C28 O31 1.160 . S
O29 C28 1.306 . S
O29 Cd30 2.228 . S
Cd30 O29 2.228 . S
Cd30 O34 2.273 . S
Cd30 O38 2.277 . S
O31 C28 1.160 . S
O31 Cd32 2.203 . S
Cd32 O31 2.203 . S
Cd32 O34 2.411 . S
Cd32 O35 2.333 . S
Cd32 O36 2.352 . S
Cd32 O40 2.277 . S
Cd32 O41 2.356 . S
C33 O38 1.209 . S
C33 O40 1.226 . S
O34 Cd30 2.273 . S
O34 Cd32 2.411 . S
O34 C37 1.320 . S
O35 Cd32 2.333 . S
O35 C37 1.214 . S
O36 Cd32 2.352 . S
O36 C39 1.258 . S
C37 O34 1.320 . S
C37 O35 1.214 . S
O38 Cd30 2.277 . S
O38 C33 1.209 . S
C39 O36 1.258 . S
C39 O41 1.282 . S
O40 Cd32 2.277 . S
O40 C33 1.226 . S
O41 Cd32 2.356 . S
O41 C39 1.282 . S
C42 O43 1.306 . S
C42 O45 1.160 . S
O43 C42 1.306 . S
O43 Cd44 2.228 . S
Cd44 O43 2.228 . S
Cd44 O48 2.273 . S
Cd44 O52 2.277 . S
O45 C42 1.160 . S
O45 Cd46 2.203 . S
Cd46 O45 2.203 . S
Cd46 O48 2.411 . S
Cd46 O49 2.333 . S
Cd46 O50 2.352 . S
Cd46 O54 2.277 . S
Cd46 O55 2.356 . S
C47 O52 1.209 . S
C47 O54 1.226 . S
O48 Cd44 2.273 . S
O48 Cd46 2.411 . S
O48 C51 1.320 . S
O49 Cd46 2.333 . S
O49 C51 1.214 . S
O50 Cd46 2.352 . S
O50 C53 1.258 . S
C51 O48 1.320 . S
C51 O49 1.214 . S
O52 Cd44 2.277 . S
O52 C47 1.209 . S
C53 O50 1.258 . S
C53 O55 1.282 . S
O54 Cd46 2.277 . S
O54 C47 1.226 . S
O55 Cd46 2.356 . S
O55 C53 1.282 . S
C56 O57 1.306 . S
C56 O59 1.160 . S
O57 C56 1.306 . S
O57 Cd58 2.228 . S
Cd58 O57 2.228 . S
Cd58 O62 2.273 . S
Cd58 O66 2.277 . S
O59 C56 1.160 . S
O59 Cd60 2.203 . S
Cd60 O59 2.203 . S
Cd60 O62 2.411 . S
Cd60 O63 2.333 . S
Cd60 O64 2.352 . S
Cd60 O68 2.277 . S
Cd60 O69 2.356 . S
C61 O66 1.209 . S
C61 O68 1.226 . S
O62 Cd58 2.273 . S
O62 Cd60 2.411 . S
O62 C65 1.320 . S
O63 Cd60 2.333 . S
O63 C65 1.214 . S
O64 Cd60 2.352 . S
O64 C67 1.258 . S
C65 O62 1.320 . S
C65 O63 1.214 . S
O66 Cd58 2.277 . S
O66 C61 1.209 . S
C67 O64 1.258 . S
C67 O69 1.282 . S
O68 Cd60 2.277 . S
O68 C61 1.226 . S
O69 Cd60 2.356 . S
O69 C67 1.282 . S
C70 O71 1.306 . S
C70 O73 1.160 . S
O71 C70 1.306 . S
O71 Cd72 2.228 . S
Cd72 O71 2.228 . S
Cd72 O76 2.273 . S
Cd72 O80 2.277 . S
O73 C70 1.160 . S
O73 Cd74 2.203 . S
Cd74 O73 2.203 . S
Cd74 O76 2.411 . S
Cd74 O77 2.333 . S
Cd74 O78 2.352 . S
Cd74 O82 2.277 . S
Cd74 O83 2.356 . S
C75 O80 1.209 . S
C75 O82 1.226 . S
O76 Cd72 2.273 . S
O76 Cd74 2.411 . S
O76 C79 1.320 . S
O77 Cd74 2.333 . S
O77 C79 1.214 . S
O78 Cd74 2.352 . S
O78 C81 1.258 . S
C79 O76 1.320 . S
C79 O77 1.214 . S
O80 Cd72 2.277 . S
O80 C75 1.209 . S
C81 O78 1.258 . S
C81 O83 1.282 . S
O82 Cd74 2.277 . S
O82 C75 1.226 . S
O83 Cd74 2.356 . S
O83 C81 1.282 . S
C84 O85 1.306 . S
C84 O87 1.160 . S
O85 C84 1.306 . S
O85 Cd86 2.228 . S
Cd86 O85 2.228 . S
Cd86 O90 2.273 . S
Cd86 O94 2.277 . S
O87 C84 1.160 . S
O87 Cd88 2.203 . S
Cd88 O87 2.203 . S
Cd88 O90 2.411 . S
Cd88 O91 2.333 . S
Cd88 O92 2.352 . S
Cd88 O96 2.277 . S
Cd88 O97 2.356 . S
C89 O94 1.209 . S
C89 O96 1.226 . S
O90 Cd86 2.273 . S
O90 Cd88 2.411 . S
O90 C93 1.320 . S
O91 Cd88 2.333 . S
O91 C93 1.214 . S
O92 Cd88 2.352 . S
O92 C95 1.258 . S
C93 O90 1.320 . S
C93 O91 1.214 . S
O94 Cd86 2.277 . S
O94 C89 1.209 . S
C95 O92 1.258 . S
C95 O97 1.282 . S
O96 Cd88 2.277 . S
O96 C89 1.226 . S
O97 Cd88 2.356 . S
O97 C95 1.282 . S
C98 O99 1.306 . S
C98 O101 1.160 . S
O99 C98 1.306 . S
O99 Cd100 2.228 . S
Cd100 O99 2.228 . S
Cd100 O104 2.273 . S
Cd100 O108 2.277 . S
O101 C98 1.160 . S
O101 Cd102 2.203 . S
Cd102 O101 2.203 . S
Cd102 O104 2.411 . S
Cd102 O105 2.333 . S
Cd102 O106 2.352 . S
Cd102 O110 2.277 . S
Cd102 O111 2.356 . S
C103 O108 1.209 . S
C103 O110 1.226 . S
O104 Cd100 2.273 . S
O104 Cd102 2.411 . S
O104 C107 1.320 . S
O105 Cd102 2.333 . S
O105 C107 1.214 . S
O106 Cd102 2.352 . S
O106 C109 1.258 . S
C107 O104 1.320 . S
C107 O105 1.214 . S
O108 Cd100 2.277 . S
O108 C103 1.209 . S
C109 O106 1.258 . S
C109 O111 1.282 . S
O110 Cd102 2.277 . S
O110 C103 1.226 . S
O111 Cd102 2.356 . S
O111 C109 1.282 . S
C112 C113 1.369 . S
C112 C114 1.419 1_445 S
C112 H116 0.930 . S
C113 C112 1.369 . S
C113 C122 1.429 . S
C114 C112 1.419 1_665 S
C114 C115 1.363 . S
C114 H117 0.929 . S
C115 C114 1.363 . S
C115 C121 1.428 . S
H116 C112 0.930 . S
H117 C114 0.929 . S
S118 N119 1.613 1_655 S
S118 N120 1.610 1_545 S
N119 S118 1.613 1_455 S
N119 C122 1.350 . S
N120 S118 1.610 1_565 S
N120 C121 1.351 . S
C121 C115 1.428 . S
C121 N120 1.351 . S
C121 C122 1.434 1_665 S
C122 C113 1.429 . S
C122 N119 1.350 . S
C122 C121 1.434 1_445 S
C123 C124 1.369 . S
C123 C125 1.419 . S
C123 H127 0.930 . S
C124 C123 1.369 . S
C124 C133 1.429 . S
C125 C123 1.419 . S
C125 C126 1.363 . S
C125 H128 0.929 . S
C126 C125 1.363 . S
C126 C132 1.428 . S
H127 C123 0.930 . S
H128 C125 0.929 . S
S129 N130 1.613 . S
S129 N131 1.610 . S
N130 S129 1.613 . S
N130 C133 1.350 . S
N131 S129 1.610 . S
N131 C132 1.351 . S
C132 C126 1.428 . S
C132 N131 1.351 . S
C132 C133 1.434 . S
C133 C124 1.429 . S
C133 N130 1.350 . S
C133 C132 1.434 . S
C134 C135 1.369 . S
C134 C136 1.419 . S
C134 H138 0.930 . S
C135 C134 1.369 . S
C135 C144 1.429 . S
C136 C134 1.419 . S
C136 C137 1.363 . S
C136 H139 0.929 . S
C137 C136 1.363 . S
C137 C143 1.428 . S
H138 C134 0.930 . S
H139 C136 0.929 . S
S140 N141 1.613 . S
S140 N142 1.610 . S
N141 S140 1.613 . S
N141 C144 1.350 . S
N142 S140 1.610 . S
N142 C143 1.351 . S
C143 C137 1.428 . S
C143 N142 1.351 . S
C143 C144 1.434 . S
C144 C135 1.429 . S
C144 N141 1.350 . S
C144 C143 1.434 . S
C145 C146 1.369 1_565 S
C145 C147 1.419 . S
C145 H149 0.930 . S
C146 C145 1.369 1_545 S
C146 C155 1.429 1_455 S
C147 C145 1.419 . S
C147 C148 1.363 1_455 S
C147 H150 0.929 . S
C148 C147 1.363 1_655 S
C148 C154 1.428 1_565 S
H149 C145 0.930 . S
H150 C147 0.929 . S
S151 N152 1.613 . S
S151 N153 1.610 . S
N152 S151 1.613 . S
N152 C155 1.350 . S
N153 S151 1.610 . S
N153 C154 1.351 . S
C154 C148 1.428 1_545 S
C154 N153 1.351 . S
C154 C155 1.434 . S
C155 C146 1.429 1_655 S
C155 N152 1.350 . S
C155 C154 1.434 . S
C156 C157 1.369 . S
C156 C158 1.419 . S
C156 H160 0.930 . S
C157 C156 1.369 . S
C157 C166 1.429 . S
C158 C156 1.419 . S
C158 C159 1.363 . S
C158 H161 0.929 . S
C159 C158 1.363 . S
C159 C165 1.428 . S
H160 C156 0.930 . S
H161 C158 0.929 . S
S162 N163 1.613 . S
S162 N164 1.610 . S
N163 S162 1.613 . S
N163 C166 1.350 . S
N164 S162 1.610 . S
N164 C165 1.351 . S
C165 C159 1.428 . S
C165 N164 1.351 . S
C165 C166 1.434 . S
C166 C157 1.429 . S
C166 N163 1.350 . S
C166 C165 1.434 . S
C167 C168 1.369 . S
C167 C169 1.419 1_556 S
C167 H171 0.930 . S
C168 C167 1.369 . S
C168 C177 1.429 . S
C169 C167 1.419 1_554 S
C169 C170 1.363 . S
C169 H172 0.929 . S
C170 C169 1.363 . S
C170 C176 1.428 . S
H171 C167 0.930 . S
H172 C169 0.929 . S
S173 N174 1.613 1_554 S
S173 N175 1.610 . S
N174 S173 1.613 1_556 S
N174 C177 1.350 . S
N175 S173 1.610 . S
N175 C176 1.351 . S
C176 C170 1.428 . S
C176 N175 1.351 . S
C176 C177 1.434 1_554 S
C177 C168 1.429 . S
C177 N174 1.350 . S
C177 C176 1.434 1_556 S
C178 C179 1.369 . S
C178 C180 1.419 . S
C178 H182 0.930 . S
C179 C178 1.369 . S
C179 C188 1.429 . S
C180 C178 1.419 . S
C180 C181 1.363 . S
C180 H183 0.929 . S
C181 C180 1.363 . S
C181 C187 1.428 . S
H182 C178 0.930 . S
H183 C180 0.929 . S
S184 N185 1.613 . S
S184 N186 1.610 . S
N185 S184 1.613 . S
N185 C188 1.350 . S
N186 S184 1.610 . S
N186 C187 1.351 . S
C187 C181 1.428 . S
C187 N186 1.351 . S
C187 C188 1.434 . S
C188 C179 1.429 . S
C188 N185 1.350 . S
C188 C187 1.434 . S
C189 C190 1.369 . S
C189 C191 1.419 1_556 S
C189 H193 0.930 . S
C190 C189 1.369 . S
C190 C199 1.429 . S
C191 C189 1.419 1_554 S
C191 C192 1.363 . S
C191 H194 0.929 . S
C192 C191 1.363 . S
C192 C198 1.428 . S
H193 C189 0.930 . S
H194 C191 0.929 . S
S195 N196 1.613 . S
S195 N197 1.610 1_556 S
N196 S195 1.613 . S
N196 C199 1.350 . S
N197 S195 1.610 1_554 S
N197 C198 1.351 . S
C198 C192 1.428 . S
C198 N197 1.351 . S
C198 C199 1.434 1_554 S
C199 C190 1.429 . S
C199 N196 1.350 . S
C199 C198 1.434 1_556 S
C200 C201 1.369 . S
C200 C202 1.419 . S
C200 H204 0.930 . S
C201 C200 1.369 . S
C201 C210 1.429 . S
C202 C200 1.419 . S
C202 C203 1.363 . S
C202 H205 0.929 . S
C203 C202 1.363 . S
C203 C209 1.428 . S
H204 C200 0.930 . S
H205 C202 0.929 . S
S206 N207 1.613 . S
S206 N208 1.610 . S
N207 S206 1.613 . S
N207 C210 1.350 . S
N208 S206 1.610 . S
N208 C209 1.351 . S
C209 C203 1.428 . S
C209 N208 1.351 . S
C209 C210 1.434 . S
C210 C201 1.429 . S
C210 N207 1.350 . S
C210 C209 1.434 . S
C211 C212 1.369 . S
C211 C213 1.419 . S
C211 H215 0.930 . S
C212 C211 1.369 . S
C212 C221 1.429 . S
C213 C211 1.419 . S
C213 C214 1.363 . S
C213 H216 0.929 . S
C214 C213 1.363 . S
C214 C220 1.428 . S
H215 C211 0.930 . S
H216 C213 0.929 . S
S217 N218 1.613 . S
S217 N219 1.610 . S
N218 S217 1.613 . S
N218 C221 1.350 . S
N219 S217 1.610 . S
N219 C220 1.351 . S
C220 C214 1.428 . S
C220 N219 1.351 . S
C220 C221 1.434 . S
C221 C212 1.429 . S
C221 N218 1.350 . S
C221 C220 1.434 . S
C222 C223 1.369 . S
C222 C224 1.419 . S
C222 H226 0.930 . S
C223 C222 1.369 . S
C223 C232 1.429 . S
C224 C222 1.419 . S
C224 C225 1.363 . S
C224 H227 0.929 . S
C225 C224 1.363 . S
C225 C231 1.428 . S
H226 C222 0.930 . S
H227 C224 0.929 . S
S228 N229 1.613 . S
S228 N230 1.610 . S
N229 S228 1.613 . S
N229 C232 1.350 . S
N230 S228 1.610 . S
N230 C231 1.351 . S
C231 C225 1.428 . S
C231 N230 1.351 . S
C231 C232 1.434 . S
C232 C223 1.429 . S
C232 N229 1.350 . S
C232 C231 1.434 . S
C233 C234 1.369 . S
C233 C235 1.419 . S
C233 H237 0.930 . S
C234 C233 1.369 . S
C234 C243 1.429 . S
C235 C233 1.419 . S
C235 C236 1.363 . S
C235 H238 0.929 . S
C236 C235 1.363 . S
C236 C242 1.428 . S
H237 C233 0.930 . S
H238 C235 0.929 . S
S239 N240 1.613 . S
S239 N241 1.610 . S
N240 S239 1.613 . S
N240 C243 1.350 . S
N241 S239 1.610 . S
N241 C242 1.351 . S
C242 C236 1.428 . S
C242 N241 1.351 . S
C242 C243 1.434 . S
C243 C234 1.429 . S
C243 N240 1.350 . S
C243 C242 1.434 . S
C244 C245 1.369 . S
C244 C246 1.419 . S
C244 H248 0.930 . S
C245 C244 1.369 . S
C245 C254 1.429 . S
C246 C244 1.419 . S
C246 C247 1.363 . S
C246 H249 0.929 . S
C247 C246 1.363 . S
C247 C253 1.428 . S
H248 C244 0.930 . S
H249 C246 0.929 . S
S250 N251 1.613 1_655 S
S250 N252 1.610 . S
N251 S250 1.613 1_455 S
N251 C254 1.350 1_455 S
N252 S250 1.610 . S
N252 C253 1.351 . S
C253 C247 1.428 . S
C253 N252 1.351 . S
C253 C254 1.434 . S
C254 C245 1.429 . S
C254 N251 1.350 1_655 S
C254 C253 1.434 . S
C255 C256 1.369 . S
C255 C257 1.419 . S
C255 H259 0.930 . S
C256 C255 1.369 . S
C256 C265 1.429 . S
C257 C255 1.419 . S
C257 C258 1.363 . S
C257 H260 0.929 . S
C258 C257 1.363 . S
C258 C264 1.428 . S
H259 C255 0.930 . S
H260 C257 0.929 . S
S261 N262 1.613 . S
S261 N263 1.610 . S
N262 S261 1.613 . S
N262 C265 1.350 . S
N263 S261 1.610 . S
N263 C264 1.351 . S
C264 C258 1.428 . S
C264 N263 1.351 . S
C264 C265 1.434 . S
C265 C256 1.429 . S
C265 N262 1.350 . S
C265 C264 1.434 . S
C266 C267 1.369 . S
C266 C268 1.419 . S
C266 H270 0.930 . S
C267 C266 1.369 . S
C267 C276 1.429 . S
C268 C266 1.419 . S
C268 C269 1.363 . S
C268 H271 0.929 . S
C269 C268 1.363 . S
C269 C275 1.428 . S
H270 C266 0.930 . S
H271 C268 0.929 . S
S272 N273 1.613 . S
S272 N274 1.610 . S
N273 S272 1.613 . S
N273 C276 1.350 . S
N274 S272 1.610 . S
N274 C275 1.351 . S
C275 C269 1.428 . S
C275 N274 1.351 . S
C275 C276 1.434 . S
C276 C267 1.429 . S
C276 N273 1.350 . S
C276 C275 1.434 . S
C277 C278 1.369 . S
C277 C279 1.419 . S
C277 H281 0.930 . S
C278 C277 1.369 . S
C278 C287 1.429 . S
C279 C277 1.419 . S
C279 C280 1.363 . S
C279 H282 0.929 . S
C280 C279 1.363 . S
C280 C286 1.428 . S
H281 C277 0.930 . S
H282 C279 0.929 . S
S283 N284 1.613 . S
S283 N285 1.610 . S
N284 S283 1.613 . S
N284 C287 1.350 . S
N285 S283 1.610 . S
N285 C286 1.351 . S
C286 C280 1.428 . S
C286 N285 1.351 . S
C286 C287 1.434 . S
C287 C278 1.429 . S
C287 N284 1.350 . S
C287 C286 1.434 . S
C113 C5 0.773 . S
C115 C33 0.772 . S
C124 C19 0.772 . S
C126 C47 0.772 . S
C135 C61 0.767 . S
C137 C89 0.776 . S
C146 C75 0.777 . S
C148 C103 0.768 . S
C157 C9 1.444 . S
C159 C79 1.449 . S
C168 C23 1.448 . S
C170 C93 1.446 . S
C179 C107 1.447 . S
C181 C37 1.446 . S
C190 C51 1.446 . S
C192 C65 1.446 . S
C201 C56 1.704 . S
C203 C11 1.771 . S
C212 C25 1.768 . S
C214 C70 1.711 1_565 S
C223 C39 1.770 . S
C225 C84 1.710 . S
C234 C53 1.768 . S
C236 C98 1.708 1_545 S
C245 C0 1.714 1_655 S
C247 C67 1.767 . S
C256 C81 1.771 . S
C258 C14 1.706 . S
C267 C95 1.767 . S
C269 C28 1.713 1_455 S
C278 C42 1.713 . S
C280 C109 1.767 . S
