# Generated by pormake.
# Topology smm, (6)-cn, num edge types: 1
# Building blocks:
#     Node 0, Type 0, BuildingBlock: INOVEN_clean_sbu_0, # of connection points: 6
#     Node 1, Type 0, BuildingBlock: INOVEN_clean_sbu_0, # of connection points: 6
#     Node 2, Type 0, BuildingBlock: INOVEN_clean_sbu_0, # of connection points: 6
#     Node 3, Type 0, BuildingBlock: INOVEN_clean_sbu_0, # of connection points: 6
#     Node 4, Type 0, BuildingBlock: INOVEN_clean_sbu_0, # of connection points: 6
#     Node 5, Type 0, BuildingBlock: INOVEN_clean_sbu_0, # of connection points: 6
#     Node 6, Type 0, BuildingBlock: INOVEN_clean_sbu_0, # of connection points: 6
#     Node 7, Type 0, BuildingBlock: INOVEN_clean_sbu_0, # of connection points: 6
#     Node 8, Type 0, BuildingBlock: INOVEN_clean_sbu_0, # of connection points: 6
#     Edge 9, Type (0, 0), BuildingBlock: KIFKEQ_clean_linker_1, # of connection points: 2
#     Edge 10, Type (0, 0), BuildingBlock: KIFKEQ_clean_linker_1, # of connection points: 2
#     Edge 11, Type (0, 0), BuildingBlock: KIFKEQ_clean_linker_1, # of connection points: 2
#     Edge 12, Type (0, 0), BuildingBlock: KIFKEQ_clean_linker_1, # of connection points: 2
#     Edge 13, Type (0, 0), BuildingBlock: KIFKEQ_clean_linker_1, # of connection points: 2
#     Edge 14, Type (0, 0), BuildingBlock: KIFKEQ_clean_linker_1, # of connection points: 2
#     Edge 15, Type (0, 0), BuildingBlock: KIFKEQ_clean_linker_1, # of connection points: 2
#     Edge 16, Type (0, 0), BuildingBlock: KIFKEQ_clean_linker_1, # of connection points: 2
#     Edge 17, Type (0, 0), BuildingBlock: KIFKEQ_clean_linker_1, # of connection points: 2
#     Edge 18, Type (0, 0), BuildingBlock: KIFKEQ_clean_linker_1, # of connection points: 2
#     Edge 19, Type (0, 0), BuildingBlock: KIFKEQ_clean_linker_1, # of connection points: 2
#     Edge 20, Type (0, 0), BuildingBlock: KIFKEQ_clean_linker_1, # of connection points: 2
#     Edge 21, Type (0, 0), BuildingBlock: KIFKEQ_clean_linker_1, # of connection points: 2
#     Edge 22, Type (0, 0), BuildingBlock: KIFKEQ_clean_linker_1, # of connection points: 2
#     Edge 23, Type (0, 0), BuildingBlock: KIFKEQ_clean_linker_1, # of connection points: 2
#     Edge 24, Type (0, 0), BuildingBlock: KIFKEQ_clean_linker_1, # of connection points: 2
#     Edge 25, Type (0, 0), BuildingBlock: KIFKEQ_clean_linker_1, # of connection points: 2
#     Edge 26, Type (0, 0), BuildingBlock: KIFKEQ_clean_linker_1, # of connection points: 2
#     Edge 27, Type (0, 0), BuildingBlock: KIFKEQ_clean_linker_1, # of connection points: 2
#     Edge 28, Type (0, 0), BuildingBlock: KIFKEQ_clean_linker_1, # of connection points: 2
#     Edge 29, Type (0, 0), BuildingBlock: KIFKEQ_clean_linker_1, # of connection points: 2
#     Edge 30, Type (0, 0), BuildingBlock: KIFKEQ_clean_linker_1, # of connection points: 2
#     Edge 31, Type (0, 0), BuildingBlock: KIFKEQ_clean_linker_1, # of connection points: 2
#     Edge 32, Type (0, 0), BuildingBlock: KIFKEQ_clean_linker_1, # of connection points: 2
#     Edge 33, Type (0, 0), BuildingBlock: KIFKEQ_clean_linker_1, # of connection points: 2
#     Edge 34, Type (0, 0), BuildingBlock: KIFKEQ_clean_linker_1, # of connection points: 2
#     Edge 35, Type (0, 0), BuildingBlock: KIFKEQ_clean_linker_1, # of connection points: 2
# Relax obj value: 0.049
# Max RMSD: 0.127
# Mean RMSD: 0.127
data_MOF--net-smm--node1-INOVEN_clean_sbu_0--edge1-KIFKEQ_clean_linker_1
_symmetry_space_group_name_H-M    P1
_symmetry_Int_Tables_number       1
_symmetry_cell_setting            triclinic
loop_
_symmetry_equiv_pos_as_xyz
'x, y, z'
_cell_length_a     71.457729
_cell_length_b     71.446632
_cell_length_c     14.508901
_cell_angle_alpha  89.976917
_cell_angle_beta   89.959784
_cell_angle_gamma 119.99346
loop_
_atom_site_label
_atom_site_type_symbol
_atom_site_fract_x
_atom_site_fract_y
_atom_site_fract_z
_atom_type_partial_charge
Gd0 Gd 0.06672 0.22536 -0.01354 0.0
Gd1 Gd 1.02635 0.18197 0.03277 0.0
C2 C 1.02106 0.22385 0.03263 0.0
C3 C 0.09436 0.26071 0.90373 0.0
C4 C 0.10038 0.28338 0.88385 0.0
C5 C 0.10166 0.29768 0.95334 0.0
C6 C 0.10659 0.29127 0.79385 0.0
C7 C 0.11643 0.32769 0.84344 0.0
C8 C 0.1145 0.31312 0.77378 0.0
C9 C 0.10961 0.3196 0.93331 0.0
C10 C 0.06105 0.21558 0.16751 0.0
C11 C 0.07314 0.18439 0.00825 0.0
C12 C 0.99753 0.14474 0.09807 0.0
C13 C 0.98978 0.12148 0.08531 0.0
C14 C 0.99106 0.11306 -0.00046 0.0
C15 C 0.98012 0.10731 0.15967 0.0
C16 C 0.97241 0.0764 0.06239 0.0
C17 C 0.97155 0.08504 0.14848 0.0
C18 C 0.9824 0.09073 -0.01187 0.0
C19 C 1.03342 0.192 0.85167 0.0
O20 O 0.03998 0.23405 -0.01056 0.0
O21 O 1.01385 0.20437 0.06845 0.0
O22 O 0.09685 0.25581 -0.01187 0.0
O23 O 0.07706 0.24542 0.86336 0.0
O24 O 0.07992 0.22705 0.12944 0.0
O25 O 0.04633 0.21178 0.11033 0.0
O26 O 0.05323 0.17385 0.04182 0.0
O27 O 0.0812 0.20387 0.97136 0.0
O28 O 0.99385 0.15462 0.03058 0.0
O29 O 1.01667 0.15645 0.13492 0.0
O30 O 1.01434 0.18177 0.88812 0.0
O31 O 0.04742 0.19506 0.91101 0.0
H32 H 0.09693 0.29203 0.02339 0.0
H33 H 0.10591 0.2806 0.73923 0.0
H34 H 0.11982 0.31871 0.70414 0.0
H35 H 0.11057 0.33025 -0.01155 0.0
H36 H 0.99854 0.12371 0.94119 0.0
H37 H 0.97889 0.11345 0.22632 0.0
H38 H 0.96377 0.07453 0.2069 0.0
H39 H 0.98362 0.08471 0.92124 0.0
Gd40 Gd 0.85906 0.8661 0.98216 0.0
Gd41 Gd 0.90214 0.86841 0.02724 0.0
C42 C 0.85995 0.8216 0.02831 0.0
C43 C 0.8237 0.85862 0.90038 0.0
C44 C 0.80104 0.84191 0.88084 0.0
C45 C 0.7868 0.82889 0.95059 0.0
C46 C 0.7931 0.84012 0.79094 0.0
C47 C 0.75675 0.81343 0.84115 0.0
C48 C 0.77126 0.82607 0.77122 0.0
C49 C 0.76489 0.81481 0.93093 0.0
C50 C 0.86897 0.8702 0.16284 0.0
C51 C 0.90039 0.91317 0.0043 0.0
C52 C 0.93955 0.87652 0.08866 0.0
C53 C 0.96294 0.89175 0.07322 0.0
C54 C 0.97613 0.8837 0.04145 0.0
C55 C 0.97254 0.91394 0.0931 0.0
C56 C 1.0081 0.91958 0.05049 0.0
C57 C 0.99486 0.92768 0.08199 0.0
C58 C 0.99839 0.89742 0.02989 0.0
C59 C 0.89193 0.86553 0.84648 0.0
O60 O 0.84997 0.83056 -0.01472 0.0
O61 O 0.87947 0.83364 0.06393 0.0
O62 O 0.82866 0.86589 -0.01511 0.0
O63 O 0.839 0.85673 0.85925 0.0
O64 O 0.85771 0.87785 0.12494 0.0
O65 O 0.87251 0.85906 0.10576 0.0
O66 O 0.91065 0.90347 0.03735 0.0
O67 O 0.88089 0.90205 0.96743 0.0
O68 O 0.92919 0.86266 0.02277 0.0
O69 O 0.92802 0.88399 0.12728 0.0
O70 O 0.90182 0.85632 0.88268 0.0
O71 O 0.88921 0.87669 0.90589 0.0
H72 H 0.79249 0.82986 0.02058 0.0
H73 H 0.80371 0.8501 0.7361 0.0
H74 H 0.76562 0.82571 0.70164 0.0
H75 H 0.75429 0.80511 -0.01373 0.0
H76 H 0.96924 0.86665 0.02653 0.0
H77 H 0.96286 0.9207 0.11784 0.0
H78 H 1.00175 0.94468 0.09766 0.0
H79 H 1.00807 0.89054 0.00682 0.0
Gd80 Gd 0.21868 1.0181 -0.01198 0.0
Gd81 Gd 0.21618 0.05878 0.0337 0.0
C82 C 0.26313 0.06354 0.0334 0.0
C83 C 0.22641 0.9902 0.90784 0.0
C84 C 0.24264 0.98319 0.89585 0.0
C85 C 0.23751 0.96243 0.92524 0.0
C86 C 0.26222 0.99588 0.84845 0.0
C87 C 0.27079 0.96681 0.85799 0.0
C88 C 0.27612 0.98777 0.82973 0.0
C89 C 0.25138 0.95436 0.90685 0.0
C90 C 0.21481 1.02397 0.16908 0.0
C91 C 0.17154 1.01235 0.00812 0.0
C92 C 0.20838 0.08799 0.0995 0.0
C93 C 0.19318 0.09613 0.08806 0.0
C94 C 0.17838 0.08935 0.01487 0.0
C95 C 0.19411 0.11161 0.14994 0.0
C96 C 0.16608 0.11415 0.0642 0.0
C97 C 0.18072 0.12052 0.1383 0.0
C98 C 0.16492 0.09826 0.0031 0.0
C99 C 0.21917 0.05166 0.85274 0.0
O100 O 0.2542 0.0445 -0.0087 0.0
O101 O 0.25109 0.07107 0.06864 0.0
O102 O 0.21696 0.98689 -0.01166 0.0
O103 O 0.23016 1.00835 0.86919 0.0
O104 O 0.20733 1.00507 0.13144 0.0
O105 O 0.22576 0.03861 0.11155 0.0
O106 O 0.18108 0.03218 0.0426 0.0
O107 O 0.18284 1.00423 0.9706 0.0
O108 O 0.22156 0.09139 0.03074 0.0
O109 O 0.20074 0.06878 0.13616 0.0
O110 O 0.22814 0.07074 0.88908 0.0
O111 O 0.20808 0.03768 0.91202 0.0
H112 H 0.2224 0.95214 0.96058 0.0
H113 H 0.26664 1.01192 0.82435 0.0
H114 H 0.29102 0.9979 0.79282 0.0
H115 H 0.24651 0.93804 0.92845 0.0
H116 H 0.17745 0.07741 0.96623 0.0
H117 H 0.20538 0.117 0.20703 0.0
H118 H 0.18181 0.13238 0.18772 0.0
H119 H 0.15398 0.09307 0.94493 0.0
Gd120 Gd 0.73349 0.55896 0.32004 0.0
Gd121 Gd 0.69297 0.51572 0.36542 0.0
C122 C 0.68798 0.55774 0.36624 0.0
C123 C 0.76127 0.59432 0.23781 0.0
C124 C 0.76717 0.61695 0.21788 0.0
C125 C 0.76822 0.63117 0.28726 0.0
C126 C 0.77345 0.62488 0.12798 0.0
C127 C 0.7829 0.6612 0.17746 0.0
C128 C 0.7812 0.6467 0.10789 0.0
C129 C 0.77601 0.65307 0.26722 0.0
C130 C 0.72778 0.54899 0.50075 0.0
C131 C 0.7396 0.5178 0.34175 0.0
C132 C 0.66377 0.47827 0.42725 0.0
C133 C 0.65532 0.45486 0.41084 0.0
C134 C 0.63434 0.44213 0.37572 0.0
C135 C 0.6673 0.44477 0.43356 0.0
C136 C 0.63721 0.40958 0.38789 0.0
C137 C 0.65835 0.4224 0.42213 0.0
C138 C 0.62544 0.41984 0.36399 0.0
C139 C 0.7002 0.52592 0.18453 0.0
O140 O 0.70693 0.56788 0.32333 0.0
O141 O 0.68065 0.53823 0.40191 0.0
O142 O 0.76362 0.58942 0.3224 0.0
O143 O 0.74408 0.57899 0.19694 0.0
O144 O 0.74666 0.56038 0.46268 0.0
O145 O 0.71306 0.54536 0.44383 0.0
O146 O 0.71967 0.50738 0.37523 0.0
O147 O 0.74778 0.5373 0.30488 0.0
O148 O 0.6601 0.48884 0.36279 0.0
O149 O 0.68295 0.48962 0.46445 0.0
O150 O 0.68111 0.51581 0.22079 0.0
O151 O 0.71412 0.52879 0.24392 0.0
H152 H 0.76342 0.62549 0.35722 0.0
H153 H 0.77294 0.61427 0.07345 0.0
H154 H 0.78658 0.65234 0.03835 0.0
H155 H 0.7768 0.66367 0.32227 0.0
H156 H 0.62466 0.44941 0.35796 0.0
H157 H 0.68348 0.45405 0.46133 0.0
H158 H 0.66784 0.41509 0.44229 0.0
H159 H 0.60928 0.41065 0.33594 0.0
Gd160 Gd 0.52645 0.19912 0.31677 0.0
Gd161 Gd 0.56967 0.2019 0.36297 0.0
C162 C 0.52778 0.15471 0.35896 0.0
C163 C 0.49076 0.19155 0.23778 0.0
C164 C 0.468 0.175 0.21909 0.0
C165 C 0.45371 0.16236 0.28942 0.0
C166 C 0.46006 0.173 0.12906 0.0
C167 C 0.42363 0.14679 0.1801 0.0
C168 C 0.43819 0.15909 0.1097 0.0
C169 C 0.43175 0.1484 0.27009 0.0
C170 C 0.53643 0.20296 0.49737 0.0
C171 C 0.56746 0.24636 0.33825 0.0
C172 C 0.60647 0.20994 0.43176 0.0
C173 C 0.62977 0.22531 0.42035 0.0
C174 C 0.63765 0.24022 0.34741 0.0
C175 C 0.64444 0.22438 0.48156 0.0
C176 C 0.67483 0.25262 0.39552 0.0
C177 C 0.6667 0.23788 0.46944 0.0
C178 C 0.65998 0.25379 0.33516 0.0
C179 C 0.56045 0.19958 0.18122 0.0
O180 O 0.51757 0.16366 0.31789 0.0
O181 O 0.5473 0.16674 0.3945 0.0
O182 O 0.49604 0.19892 0.32202 0.0
O183 O 0.50581 0.18942 0.19579 0.0
O184 O 0.52593 0.21146 0.45964 0.0
O185 O 0.53966 0.19172 0.43988 0.0
O186 O 0.57782 0.23689 0.37279 0.0
O187 O 0.54811 0.23501 0.30028 0.0
O188 O 0.59694 0.19658 0.36339 0.0
O189 O 0.59468 0.21749 0.4669 0.0
O190 O 0.57121 0.19131 0.21774 0.0
O191 O 0.55675 0.21005 0.24087 0.0
H192 H 0.45939 0.16353 0.35952 0.0
H193 H 0.47072 0.1827 0.07379 0.0
H194 H 0.43257 0.15856 0.03994 0.0
H195 H 0.42111 0.13897 0.32582 0.0
H196 H 0.62655 0.24113 0.29924 0.0
H197 H 0.63866 0.21301 0.53841 0.0
H198 H 0.67756 0.23678 0.51828 0.0
H199 H 0.66562 0.2648 0.27713 0.0
Gd200 Gd 0.88493 0.35147 0.31618 0.0
Gd201 Gd 0.88236 0.39205 0.36209 0.0
C202 C 0.92945 0.39705 0.35913 0.0
C203 C 0.89265 0.32319 0.23962 0.0
C204 C 0.90876 0.31596 0.22927 0.0
C205 C 0.9032 0.29503 0.25776 0.0
C206 C 0.92862 0.32863 0.18385 0.0
C207 C 0.93659 0.29915 0.19295 0.0
C208 C 0.94237 0.3203 0.16589 0.0
C209 C 0.91693 0.28674 0.24013 0.0
C210 C 0.8811 0.35768 0.49689 0.0
C211 C 0.83782 0.34564 0.33516 0.0
C212 C 0.87443 0.4209 0.431 0.0
C213 C 0.85913 0.42895 0.42056 0.0
C214 C 0.84421 0.42214 0.3478 0.0
C215 C 0.86013 0.44443 0.48267 0.0
C216 C 0.83197 0.44695 0.39788 0.0
C217 C 0.84671 0.45332 0.47161 0.0
C218 C 0.83072 0.43104 0.33662 0.0
C219 C 0.88498 0.38521 0.18047 0.0
O220 O 0.92045 0.37789 0.31813 0.0
O221 O 0.91746 0.40466 0.39421 0.0
O222 O 0.88307 0.32018 0.31965 0.0
O223 O 0.89665 0.34128 0.19974 0.0
O224 O 0.87268 0.33869 0.4594 0.0
O225 O 0.89234 0.3721 0.4392 0.0
O226 O 0.84732 0.36529 0.37147 0.0
O227 O 0.84919 0.33777 0.29616 0.0
O228 O 0.88766 0.42464 0.36211 0.0
O229 O 0.86688 0.40157 0.46633 0.0
O230 O 0.89321 0.40423 0.21705 0.0
O231 O 0.87433 0.37102 0.23983 0.0
H232 H 0.88788 0.28477 0.29162 0.0
H233 H 0.93337 0.34481 0.16057 0.0
H234 H 0.95748 0.33041 0.13038 0.0
H235 H 0.91174 0.2703 0.26083 0.0
H236 H 0.84324 0.41022 0.29896 0.0
H237 H 0.8715 0.44984 0.53941 0.0
H238 H 0.84787 0.46519 0.52114 0.0
H239 H 0.81971 0.42584 0.27872 0.0
Gd240 Gd 0.40037 0.89223 0.65076 0.0
Gd241 Gd 0.35963 0.84916 0.6961 0.0
C242 C 0.35511 0.89143 0.69686 0.0
C243 C 0.42876 0.9273 0.56859 0.0
C244 C 0.43513 0.94977 0.54337 0.0
C245 C 0.43289 0.96382 0.60435 0.0
C246 C 0.44517 0.95773 0.45791 0.0
C247 C 0.45203 0.99384 0.49646 0.0
C248 C 0.45351 0.97946 0.43465 0.0
C249 C 0.44122 0.98565 0.58095 0.0
C250 C 0.3946 0.88215 0.83137 0.0
C251 C 0.40612 0.85085 0.6739 0.0
C252 C 0.33018 0.81182 0.75786 0.0
C253 C 0.32161 0.78839 0.74179 0.0
C254 C 0.30057 0.77569 0.70723 0.0
C255 C 0.33355 0.77823 0.76427 0.0
C256 C 0.3033 0.74306 0.71952 0.0
C257 C 0.32451 0.75584 0.75319 0.0
C258 C 0.29157 0.75337 0.69585 0.0
C259 C 0.36696 0.85934 0.51525 0.0
O260 O 0.37393 0.90135 0.65275 0.0
O261 O 0.3478 0.872 0.73331 0.0
O262 O 0.43008 0.92306 0.6554 0.0
O263 O 0.41208 0.91168 0.52626 0.0
O264 O 0.4135 0.89332 0.7932 0.0
O265 O 0.37992 0.87873 0.77455 0.0
O266 O 0.38608 0.8405 0.70622 0.0
O267 O 0.41457 0.87043 0.63763 0.0
O268 O 0.32667 0.82244 0.69305 0.0
O269 O 0.34933 0.82308 0.79538 0.0
O270 O 0.34786 0.84943 0.55149 0.0
O271 O 0.38083 0.86208 0.57468 0.0
H272 H 0.4252 0.95806 0.67078 0.0
H273 H 0.44704 0.94719 0.40972 0.0
H274 H 0.46135 0.98507 0.36839 0.0
H275 H 0.43987 0.99627 0.63036 0.0
H276 H 0.29093 0.78302 0.68966 0.0
H277 H 0.34978 0.78749 0.7916 0.0
H278 H 0.33397 0.74849 0.77317 0.0
H279 H 0.27537 0.74421 0.66824 0.0
Gd280 Gd 0.1922 0.53246 0.64986 0.0
Gd281 Gd 0.23551 0.53529 0.69592 0.0
C282 C 0.19355 0.48819 0.69509 0.0
C283 C 0.15688 0.52484 0.56734 0.0
C284 C 0.13422 0.5082 0.54739 0.0
C285 C 0.11982 0.49534 0.617 0.0
C286 C 0.12643 0.5064 0.45718 0.0
C287 C 0.08992 0.48002 0.50677 0.0
C288 C 0.10459 0.49249 0.437 0.0
C289 C 0.0979 0.4814 0.59688 0.0
C290 C 0.2019 0.53641 0.83088 0.0
C291 C 0.23319 0.57976 0.67202 0.0
C292 C 0.27271 0.54364 0.76107 0.0
C293 C 0.296 0.55924 0.74898 0.0
C294 C 0.30464 0.56876 0.66312 0.0
C295 C 0.30997 0.564 0.82418 0.0
C296 C 0.34112 0.58707 0.7276 0.0
C297 C 0.33226 0.57776 0.81375 0.0
C298 C 0.32699 0.58249 0.65249 0.0
C299 C 0.22555 0.53245 0.51488 0.0
O300 O 0.18343 0.49704 0.65238 0.0
O301 O 0.21305 0.50033 0.73084 0.0
O302 O 0.16175 0.53217 0.65181 0.0
O303 O 0.1722 0.52288 0.52676 0.0
O304 O 0.1905 0.5439 0.79298 0.0
O305 O 0.20568 0.5255 0.77354 0.0
O306 O 0.2437 0.57031 0.70521 0.0
O307 O 0.21372 0.56841 0.63518 0.0
O308 O 0.26294 0.53025 0.693 0.0
O309 O 0.2609 0.5509 0.79858 0.0
O310 O 0.23571 0.52352 0.55119 0.0
O311 O 0.22251 0.54339 0.57433 0.0
H312 H 0.12537 0.49634 0.68723 0.0
H313 H 0.13718 0.51626 0.40244 0.0
H314 H 0.09908 0.49213 0.36717 0.0
H315 H 0.08718 0.47183 0.65212 0.0
H316 H 0.29416 0.56541 0.60409 0.0
H317 H 0.30366 0.55677 0.89094 0.0
H318 H 0.3426 0.58066 0.87286 0.0
H319 H 0.33318 0.58959 0.58548 0.0
Gd320 Gd 0.55165 0.68433 0.65167 0.0
Gd321 Gd 0.54925 0.72507 0.6974 0.0
C322 C 0.59615 0.72978 0.69594 0.0
C323 C 0.55851 0.65606 0.56949 0.0
C324 C 0.57464 0.64964 0.54546 0.0
C325 C 0.59114 0.65242 0.60629 0.0
C326 C 0.57241 0.63907 0.46136 0.0
C327 C 0.60199 0.6328 0.50103 0.0
C328 C 0.58589 0.63075 0.43933 0.0
C329 C 0.60474 0.64412 0.58411 0.0
C330 C 0.54764 0.69019 0.8325 0.0
C331 C 0.50451 0.67849 0.6745 0.0
C332 C 0.54115 0.75413 0.76232 0.0
C333 C 0.52556 0.76183 0.75022 0.0
C334 C 0.51581 0.76063 0.66469 0.0
C335 C 0.521 0.77133 0.82502 0.0
C336 C 0.49766 0.77904 0.72865 0.0
C337 C 0.50721 0.77981 0.8145 0.0
C338 C 0.50205 0.76921 0.65396 0.0
C339 C 0.55204 0.71784 0.51649 0.0
O340 O 0.58717 0.71081 0.65316 0.0
O341 O 0.58414 0.73726 0.73199 0.0
O342 O 0.55256 0.65449 0.65585 0.0
O343 O 0.55989 0.67294 0.52755 0.0
O344 O 0.53988 0.67127 0.79462 0.0
O345 O 0.55875 0.70484 0.77519 0.0
O346 O 0.51415 0.69852 0.70674 0.0
O347 O 0.51567 0.67007 0.63841 0.0
O348 O 0.55445 0.75761 0.69394 0.0
O349 O 0.53389 0.73512 0.80033 0.0
O350 O 0.56113 0.73695 0.55265 0.0
O351 O 0.54099 0.70391 0.57604 0.0
H352 H 0.59319 0.66054 0.67167 0.0
H353 H 0.55983 0.63678 0.4133 0.0
H354 H 0.58354 0.62251 0.37409 0.0
H355 H 0.6169 0.64592 0.63341 0.0
H356 H 0.519 0.75327 0.60599 0.0
H357 H 0.5284 0.77249 0.89151 0.0
H358 H 0.50445 0.78747 0.87326 0.0
H359 H 0.49477 0.76805 0.58722 0.0
H360 H 0.14461 0.36196 0.95034 0.0
H361 H 0.1112 0.34706 0.68927 0.0
H362 H 0.16235 0.40034 0.91383 0.0
H363 H 0.12966 0.38544 0.65104 0.0
H364 H 0.1516 0.45808 0.65171 0.0
H365 H 0.13224 0.41958 0.6887 0.0
H366 H 0.19003 0.42599 0.81345 0.0
H367 H 0.2092 0.46443 0.77837 0.0
C368 C 0.1409 0.36684 0.88539 0.0
C369 C 0.12644 0.3513 0.82283 0.0
C370 C 0.15134 0.3889 0.86381 0.0
C371 C 0.14765 0.39609 0.779 0.0
C372 C 0.13284 0.38058 0.7172 0.0
C373 C 0.12241 0.3585 0.73878 0.0
C374 C 0.16021 0.45126 0.68665 0.0
C375 C 0.18198 0.46446 0.7122 0.0
C376 C 0.14911 0.42913 0.70766 0.0
C377 C 0.15948 0.4196 0.75475 0.0
C378 C 0.18135 0.43277 0.77882 0.0
C379 C 0.19243 0.45486 0.75794 0.0
H380 H 0.73736 0.78864 0.68751 0.0
H381 H 0.72248 0.80727 0.94851 0.0
H382 H 0.69894 0.76854 0.65006 0.0
H383 H 0.6841 0.78648 0.91275 0.0
H384 H 0.62004 0.76925 0.77808 0.0
H385 H 0.65848 0.78851 0.81235 0.0
H386 H 0.66474 0.73693 0.68857 0.0
H387 H 0.62618 0.71777 0.65244 0.0
C388 C 0.72591 0.78839 0.73717 0.0
C389 C 0.73314 0.79972 0.82097 0.0
C390 C 0.70382 0.77664 0.71604 0.0
C391 C 0.68832 0.77594 0.77801 0.0
C392 C 0.69553 0.7869 0.86259 0.0
C393 C 0.7176 0.79861 0.88375 0.0
C394 C 0.62957 0.76199 0.75771 0.0
C395 C 0.6199 0.74189 0.71251 0.0
C396 C 0.65166 0.773 0.77813 0.0
C397 C 0.66479 0.76424 0.75413 0.0
C398 C 0.65521 0.74428 0.70752 0.0
C399 C 0.63305 0.73324 0.68698 0.0
H400 H 0.29261 0.97075 0.69612 0.0
H401 H 0.28097 0.94173 0.96656 0.0
H402 H 0.31348 0.95337 0.65474 0.0
H403 H 0.30171 0.92439 0.92523 0.0
H404 H 0.31683 0.87634 0.7887 0.0
H405 H 0.29767 0.89544 0.82594 0.0
H406 H 0.3467 0.9522 0.68548 0.0
H407 H 0.36588 0.93288 0.64675 0.0
C408 C 0.29474 0.96092 0.74726 0.0
C409 C 0.28491 0.95753 0.83455 0.0
C410 C 0.3067 0.95092 0.72342 0.0
C411 C 0.30911 0.93725 0.78618 0.0
C412 C 0.2998 0.93439 0.87429 0.0
C413 C 0.28789 0.94437 0.8981 0.0
C414 C 0.32358 0.89287 0.76525 0.0
C415 C 0.343 0.90304 0.71484 0.0
C416 C 0.31262 0.90391 0.78734 0.0
C417 C 0.32071 0.92548 0.75972 0.0
C418 C 0.33991 0.93557 0.70754 0.0
C419 C 0.35096 0.9245 0.68553 0.0
H420 H 0.38942 0.14118 0.28654 0.0
H421 H 0.40418 0.12163 0.02751 0.0
H422 H 0.35104 0.12051 0.25061 0.0
H423 H 0.3658 0.10171 -0.01025 0.0
H424 H 0.2931 0.05137 -0.00856 0.0
H425 H 0.33159 0.07043 0.02828 0.0
H426 H 0.32545 0.12231 0.14968 0.0
H427 H 0.28703 0.10311 0.11489 0.0
C428 C 0.38451 0.13235 0.22218 0.0
C429 C 0.40002 0.13316 0.15999 0.0
C430 C 0.36245 0.12072 0.2009 0.0
C431 C 0.35522 0.10955 0.11676 0.0
C432 C 0.37068 0.10997 0.0554 0.0
C433 C 0.39276 0.12162 0.07669 0.0
C434 C 0.29997 0.06688 0.02567 0.0
C435 C 0.28686 0.07562 0.05041 0.0
C436 C 0.3221 0.07787 0.04658 0.0
C437 C 0.33171 0.09789 0.09269 0.0
C438 C 0.31862 0.10675 0.11588 0.0
C439 C 0.29654 0.09578 0.09516 0.0
H440 H 0.95886 0.30336 0.03227 0.0
H441 H 0.94585 0.27325 0.30071 0.0
H442 H 0.97956 0.28583 -0.0089 0.0
H443 H 0.96648 0.25576 0.25963 0.0
H444 H 0.98247 0.20833 0.12264 0.0
H445 H 0.96309 0.22725 0.15979 0.0
H446 H 1.01242 0.28445 0.02293 0.0
H447 H 1.03178 0.26533 -0.0158 0.0
C448 C 0.96065 0.29325 0.08305 0.0
C449 C 0.95052 0.28964 0.16971 0.0
C450 C 0.97252 0.28316 0.05932 0.0
C451 C 0.97455 0.26917 0.12159 0.0
C452 C 0.96488 0.26602 0.20905 0.0
C453 C 0.95304 0.2761 0.23273 0.0
C454 C 0.98922 0.22492 0.09994 0.0
C455 C 1.00878 0.23528 0.05051 0.0
C456 C 0.97814 0.23585 0.12199 0.0
C457 C 0.98625 0.25749 0.09531 0.0
C458 C 1.0056 0.26776 0.04418 0.0
C459 C 1.01675 0.2568 0.02217 0.0
H460 H 0.81791 0.79159 -0.01469 0.0
H461 H 0.87545 0.79778 0.11189 0.0
H462 H 0.79846 0.75308 0.02261 0.0
H463 H 0.8562 0.75938 0.14733 0.0
H464 H 0.81083 0.69551 0.28466 0.0
H465 H 0.82845 0.73388 0.24813 0.0
H466 H 0.79592 0.71887 -0.01504 0.0
H467 H 0.77759 0.68047 0.02317 0.0
C468 C 0.82649 0.78474 0.02033 0.0
C469 C 0.84827 0.79788 0.04576 0.0
C470 C 0.81533 0.76261 0.04153 0.0
C471 C 0.82567 0.75306 0.08871 0.0
C472 C 0.84755 0.76618 0.11266 0.0
C473 C 0.85867 0.78825 0.09158 0.0
C474 C 0.80712 0.70036 0.21963 0.0
C475 C 0.79276 0.68479 0.15692 0.0
C476 C 0.81749 0.72241 0.19805 0.0
C477 C 0.81382 0.72956 0.11309 0.0
C478 C 0.79908 0.71403 0.05121 0.0
C479 C 0.78872 0.69195 0.07278 0.0
H480 H 0.07059 0.4552 0.35317 0.0
H481 H 0.05563 0.4743 0.61286 0.0
H482 H 1.03223 0.43537 0.31478 0.0
H483 H 1.01728 0.45376 0.57623 0.0
H484 H 0.9534 0.43664 0.44043 0.0
H485 H 0.99183 0.45581 0.47507 0.0
H486 H 0.99793 0.40399 0.35291 0.0
H487 H 0.95942 0.38493 0.31629 0.0
C488 C 0.05914 0.45511 0.40234 0.0
C489 C 0.06632 0.46649 0.48605 0.0
C490 C 0.03707 0.44353 0.38068 0.0
C491 C 1.02156 0.44302 0.44204 0.0
C492 C 1.02873 0.45403 0.52652 0.0
C493 C 0.05077 0.46559 0.54819 0.0
C494 C 0.9629 0.42932 0.42043 0.0
C495 C 0.9532 0.40917 0.3756 0.0
C496 C 0.98498 0.44027 0.44108 0.0
C497 C 0.99806 0.43141 0.41771 0.0
C498 C 0.98845 0.41142 0.37138 0.0
C499 C 0.96631 0.40044 0.35058 0.0
H500 H 0.58802 0.59277 0.42709 0.0
H501 H 0.6456 0.64889 0.52746 0.0
H502 H 0.60901 0.57539 0.39111 0.0
H503 H 0.66662 0.63118 0.49338 0.0
H504 H 0.70027 0.60021 0.33022 0.0
H505 H 0.67998 0.61875 0.36197 0.0
H506 H 0.62754 0.5596 0.47279 0.0
H507 H 0.64757 0.54107 0.44044 0.0
C508 C 0.60521 0.60148 0.44111 0.0
C509 C 0.6151 0.62231 0.47987 0.0
C510 C 0.61722 0.59139 0.42133 0.0
C511 C 0.63952 0.60183 0.43948 0.0
C512 C 0.64951 0.62273 0.47776 0.0
C513 C 0.63742 0.6328 0.49817 0.0
C514 C 0.68436 0.59113 0.36093 0.0
C515 C 0.67557 0.56909 0.38246 0.0
C516 C 0.6728 0.60182 0.3798 0.0
C517 C 0.65209 0.59069 0.41988 0.0
C518 C 0.6433 0.56864 0.44084 0.0
C519 C 0.65488 0.55802 0.4226 0.0
H520 H 0.54449 0.13065 0.42915 0.0
H521 H 0.48517 0.12481 0.32483 0.0
H522 H 0.52579 0.09207 0.46141 0.0
H523 H 0.46646 0.08597 0.35651 0.0
H524 H 0.43653 1.02179 0.52465 0.0
H525 H 0.45445 0.06045 0.48899 0.0
H526 H 0.50923 0.0576 0.38027 0.0
H527 H 0.49166 1.01931 0.4178 0.0
C528 C 0.52747 0.12114 0.41249 0.0
C529 C 0.51639 0.13092 0.37415 0.0
C530 C 0.51675 0.09893 0.43069 0.0
C531 C 0.4946 0.08585 0.41152 0.0
C532 C 0.48347 0.09559 0.37296 0.0
C533 C 0.49426 0.11784 0.35411 0.0
C534 C 0.45244 0.02946 0.49356 0.0
C535 C 0.4626 1.01737 0.47397 0.0
C536 C 0.46262 0.05157 0.47225 0.0
C537 C 0.48331 0.06218 0.43175 0.0
C538 C 0.49341 0.05005 0.41219 0.0
C539 C 0.48321 0.02799 0.43287 0.0
H540 H 0.17762 0.1567 0.08652 0.0
H541 H 0.12347 0.09476 0.01078 0.0
H542 H 0.15513 0.17321 0.07043 0.0
H543 H 0.10113 0.11149 -0.00877 0.0
H544 H 0.06175 0.14402 0.07334 0.0
H545 H 0.084 0.12709 0.0828 0.0
H546 H 0.13714 0.18352 0.95757 0.0
H547 H 0.11502 0.20066 0.94962 0.0
C548 C 0.1609 0.14657 0.06641 0.0
C549 C 0.15237 0.12432 0.05063 0.0
C550 C 0.14805 0.15612 0.056 0.0
C551 C 0.12626 0.14373 0.02948 0.0
C552 C 0.11776 0.12151 0.01273 0.0
C553 C 0.13065 0.11195 0.02297 0.0
C554 C 0.07816 0.15285 0.04756 0.0
C555 C 0.08656 0.17379 0.01097 0.0
C556 C 0.09091 0.14304 0.05246 0.0
C557 C 0.11243 0.1539 0.02109 0.0
C558 C 0.12075 0.17476 -0.01641 0.0
C559 C 0.10799 0.18456 0.97852 0.0
H560 H 0.94095 0.94136 0.06877 0.0
H561 H 0.88476 0.93957 0.94868 0.0
H562 H 0.95872 0.98054 0.07868 0.0
H563 H 0.90246 0.97886 0.96033 0.0
H564 H 0.9486 0.05138 0.91627 0.0
H565 H 0.93185 1.01228 0.89838 0.0
H566 H 0.95646 1.00815 0.16487 0.0
H567 H 0.9738 0.04724 0.18121 0.0
C568 C 0.93233 0.94928 0.04453 0.0
C569 C 0.91134 0.93719 0.00806 0.0
C570 C 0.94252 0.97182 0.05076 0.0
C571 C 0.93203 0.98295 0.02076 0.0
C572 C 0.91114 0.97089 0.9832 0.0
C573 C 0.90093 0.94831 0.97697 0.0
C574 C 0.95067 0.04217 0.97053 0.0
C575 C 0.96258 0.05254 0.05022 0.0
C576 C 0.94084 1.01969 0.96076 0.0
C577 C 0.94272 1.00697 0.03022 0.0
C578 C 0.95481 1.01739 0.10946 0.0
C579 C 0.96458 0.03983 0.11933 0.0
H580 H 1.03449 0.92023 0.91151 0.0
H581 H 1.03588 0.95148 0.16806 0.0
H582 H 0.07361 0.94285 0.89844 0.0
H583 H 0.07502 0.97395 0.15574 0.0
H584 H 0.14277 0.02471 0.06555 0.0
H585 H 0.10353 1.00304 0.07214 0.0
H586 H 0.10651 0.94817 0.96513 0.0
H587 H 0.14575 0.97002 0.95627 0.0
C588 C 0.04316 0.93185 0.96547 0.0
C589 C 1.03198 0.93398 0.04091 0.0
C590 C 0.06565 0.94482 0.95809 0.0
C591 C 0.07762 0.96026 0.02613 0.0
C592 C 0.06639 0.96252 0.10117 0.0
C593 C 0.04389 0.9496 0.10833 0.0
C594 C 0.13509 1.00804 0.04312 0.0
C595 C 0.14752 0.99916 0.01039 0.0
C596 C 0.11252 0.99554 0.04747 0.0
C597 C 0.10171 0.97376 0.0195 0.0
C598 C 0.11416 0.96493 -0.01388 0.0
C599 C 0.13674 0.97746 0.9815 0.0
H600 H 0.728 0.47743 0.4075 0.0
H601 H 0.78141 0.5338 0.28288 0.0
H602 H 0.75008 0.46031 0.41725 0.0
H603 H 0.80335 0.51647 0.29111 0.0
H604 H 0.84366 0.48953 0.42009 0.0
H605 H 0.82127 0.50615 0.40415 0.0
H606 H 0.76705 0.44447 0.32601 0.0
H607 H 0.7893 0.42764 0.34538 0.0
C608 C 0.74441 0.48615 0.38159 0.0
C609 C 0.7529 0.50708 0.34467 0.0
C610 C 0.75705 0.47624 0.38666 0.0
C611 C 0.77856 0.48698 0.35515 0.0
C612 C 0.78697 0.50781 0.31728 0.0
C613 C 0.77431 0.51772 0.31205 0.0
C614 C 0.82691 0.47943 0.40027 0.0
C615 C 0.8183 0.45716 0.38469 0.0
C616 C 0.81412 0.48905 0.38994 0.0
C617 C 0.7923 0.47671 0.36371 0.0
C618 C 0.78371 0.45446 0.34727 0.0
C619 C 0.79655 0.44483 0.35741 0.0
H620 H 0.65642 0.38633 0.33177 0.0
H621 H 0.59531 0.3783 0.42381 0.0
H622 H 0.63993 0.34718 0.31714 0.0
H623 H 0.57887 0.3393 0.40828 0.0
H624 H 0.55095 0.27195 0.28286 0.0
H625 H 0.56804 0.3112 0.29191 0.0
H626 H 0.62493 0.31447 0.41141 0.0
H627 H 0.60802 0.27528 0.40119 0.0
C628 C 0.63952 0.37626 0.34949 0.0
C629 C 0.62724 0.38561 0.3787 0.0
C630 C 0.63005 0.35378 0.34096 0.0
C631 C 0.60802 0.34003 0.36116 0.0
C632 C 0.59576 0.34937 0.39047 0.0
C633 C 0.60523 0.37181 0.3993 0.0
C634 C 0.56714 0.28101 0.31074 0.0
C635 C 0.57805 0.27036 0.34141 0.0
C636 C 0.5769 0.30355 0.31647 0.0
C637 C 0.59786 0.31606 0.35271 0.0
C638 C 0.60888 0.30542 0.38223 0.0
C639 C 0.59909 0.28288 0.37684 0.0
H640 H 0.70592 0.24114 0.41542 0.0
H641 H 0.69785 0.29531 0.34275 0.0
H642 H 0.74488 0.26372 0.3977 0.0
H643 H 0.73687 0.31775 0.32165 0.0
H644 H 0.80897 0.35702 0.40189 0.0
H645 H 0.7698 0.33477 0.4122 0.0
H646 H 0.77286 0.28189 0.28328 0.0
H647 H 0.81212 0.30401 0.27444 0.0
C648 C 0.71244 0.25788 0.39565 0.0
C649 C 0.69866 0.2664 0.38119 0.0
C650 C 0.73482 0.27079 0.3843 0.0
C651 C 0.74411 0.29261 0.35815 0.0
C652 C 0.73034 0.30109 0.34278 0.0
C653 C 0.70791 0.28815 0.35394 0.0
C654 C 0.80133 0.34066 0.37543 0.0
C655 C 0.8138 0.33232 0.33761 0.0
C656 C 0.77879 0.32793 0.38083 0.0
C657 C 0.76808 0.30647 0.34879 0.0
C658 C 0.78055 0.29823 0.30985 0.0
C659 C 0.80309 0.31098 0.30424 0.0
H660 H 0.49627 0.80297 0.58323 0.0
H661 H 0.4671 0.77738 0.84828 0.0
H662 H 0.47381 0.81963 0.56643 0.0
H663 H 0.44523 0.79464 0.833 0.0
H664 H 0.39381 0.81025 0.73848 0.0
H665 H 0.41528 0.7925 0.7478 0.0
H666 H 0.46977 0.84889 0.62919 0.0
H667 H 0.44814 0.86656 0.61816 0.0
C668 C 0.48499 0.80079 0.63775 0.0
C669 C 0.48354 0.7888 0.71716 0.0
C670 C 0.47228 0.81058 0.6286 0.0
C671 C 0.4577 0.80857 0.69842 0.0
C672 C 0.4561 0.79638 0.77734 0.0
C673 C 0.46884 0.78667 0.7866 0.0
C674 C 0.41036 0.8189 0.71408 0.0
C675 C 0.41921 0.83991 0.67767 0.0
C676 C 0.42273 0.80873 0.71996 0.0
C677 C 0.44434 0.81925 0.68964 0.0
C678 C 0.45313 0.84017 0.65226 0.0
C679 C 0.44074 0.85037 0.64641 0.0
H680 H 0.27383 0.60869 0.73425 0.0
H681 H 0.21663 0.60535 0.61736 0.0
H682 H 0.29079 0.64789 0.74404 0.0
H683 H 0.23377 0.6446 0.626 0.0
H684 H 0.26141 0.7119 0.7565 0.0
H685 H 0.24484 0.67288 0.7417 0.0
H686 H 0.30571 0.68048 0.64919 0.0
H687 H 0.32231 0.71964 0.6631 0.0
C688 C 0.26488 0.61628 0.71012 0.0
C689 C 0.24379 0.60376 0.6752 0.0
C690 C 0.27469 0.63883 0.71527 0.0
C691 C 0.26367 0.64947 0.68599 0.0
C692 C 0.24264 0.63696 0.65035 0.0
C693 C 0.23285 0.61441 0.64488 0.0
C694 C 0.27126 0.70534 0.73185 0.0
C695 C 0.29324 0.71907 0.71068 0.0
C696 C 0.26172 0.68289 0.72343 0.0
C697 C 0.27389 0.67346 0.69398 0.0
C698 C 0.29589 0.68714 0.67316 0.0
C699 C 0.30544 0.70963 0.68127 0.0
H700 H 0.47613 0.69088 0.73691 0.0
H701 H 0.47827 0.63635 0.62017 0.0
H702 H 0.43692 0.66943 0.74573 0.0
H703 H 0.43898 0.61473 0.63075 0.0
H704 H 0.36659 0.58809 0.58342 0.0
H705 H 0.40571 0.61049 0.56693 0.0
H706 H 0.40904 0.6397 0.8315 0.0
H707 H 0.36992 0.6179 0.84637 0.0
C708 C 0.46828 0.6743 0.71322 0.0
C709 C 0.48048 0.66539 0.67795 0.0
C710 C 0.44573 0.66192 0.71881 0.0
C711 C 0.43469 0.64026 0.68937 0.0
C712 C 0.44686 0.63141 0.65312 0.0
C713 C 0.46945 0.6438 0.64752 0.0
C714 C 0.37563 0.59949 0.63754 0.0
C715 C 0.36502 0.60114 0.71626 0.0
C716 C 0.39813 0.61217 0.62859 0.0
C717 C 0.41064 0.62692 0.69794 0.0
C718 C 0.39998 0.62871 0.77619 0.0
C719 C 0.37751 0.616 0.78523 0.0
H720 H 0.07021 0.20095 0.76002 0.0
H721 H 1.00655 0.19233 0.71994 0.0
H722 H 0.07692 0.20599 0.59488 0.0
H723 H 1.01358 0.1987 0.55522 0.0
H724 H 1.02305 0.18934 0.25469 0.0
H725 H 1.01665 0.18339 0.41964 0.0
H726 H 0.08416 0.22899 0.47087 0.0
H727 H 0.09065 0.23367 0.30542 0.0
C728 C 0.05775 0.20042 0.71569 0.0
C729 C 0.03782 0.19614 0.75233 0.0
C730 C 0.06163 0.20347 0.62093 0.0
C731 C 0.0458 0.20273 0.56082 0.0
C732 C 1.026 0.19889 0.59851 0.0
C733 C 1.02199 0.19543 0.69308 0.0
C734 C 0.03653 0.19788 0.30143 0.0
C735 C 0.05735 0.21185 0.26747 0.0
C736 C 1.03284 0.1947 0.39623 0.0
C737 C 0.04984 0.20579 0.45947 0.0
C738 C 0.07071 0.21983 0.42482 0.0
C739 C 0.07444 0.22266 0.32987 0.0
H740 H 0.88363 0.89384 0.75511 0.0
H741 H 0.89105 0.83807 0.71481 0.0
H742 H 0.87876 0.89569 0.58995 0.0
H743 H 0.88487 0.83894 0.55009 0.0
H744 H 0.89492 0.85809 0.24988 0.0
H745 H 0.9007 0.85748 0.4149 0.0
H746 H 0.85562 0.88009 0.46605 0.0
H747 H 0.85109 0.88201 0.3006 0.0
C748 C 0.88393 0.8818 0.71073 0.0
C749 C 0.88783 0.86589 0.74727 0.0
C750 C 0.88098 0.88274 0.61599 0.0
C751 C 0.88146 0.8675 0.55588 0.0
C752 C 0.8849 0.85128 0.59346 0.0
C753 C 0.88825 0.85062 0.688 0.0
C754 C 0.88645 0.86313 0.29664 0.0
C755 C 0.87266 0.87019 0.26271 0.0
C756 C 0.88954 0.86255 0.39142 0.0
C757 C 0.87853 0.8686 0.4546 0.0
C758 C 0.86469 0.87566 0.41998 0.0
C759 C 0.86196 0.87664 0.32506 0.0
H760 H 0.19109 1.01503 0.76125 0.0
H761 H 0.24659 0.0784 0.72108 0.0
H762 H 0.18938 1.00835 0.59615 0.0
H763 H 0.2459 0.07139 0.55636 0.0
H764 H 0.227 0.06209 0.25581 0.0
H765 H 0.22757 0.06854 0.42075 0.0
H766 H 0.20507 1.00089 0.47255 0.0
H767 H 0.20315 0.99438 0.3072 0.0
C768 C 0.20311 0.02742 0.7169 0.0
C769 C 0.2189 0.04727 0.75348 0.0
C770 C 0.20226 1.02356 0.62218 0.0
C771 C 0.21747 0.03932 0.56208 0.0
C772 C 0.23358 0.05903 0.59969 0.0
C773 C 0.23414 0.06302 0.69424 0.0
C774 C 0.22197 0.0486 0.30269 0.0
C775 C 0.21491 0.02773 0.26896 0.0
C776 C 0.22253 0.05231 0.39745 0.0
C777 C 0.21648 0.03528 0.46081 0.0
C778 C 0.20947 1.01437 0.42638 0.0
C779 C 0.2085 1.01062 0.3315 0.0
H780 H 0.75741 0.56717 0.63837 0.0
H781 H 0.68985 0.52263 0.58792 0.0
H782 H 0.75096 0.56258 0.80386 0.0
H783 H 0.68347 0.5168 0.75299 0.0
H784 H 0.67345 0.52636 0.05267 0.0
H785 H 0.68048 0.53253 0.88788 0.0
H786 H 0.74368 0.5395 0.92805 0.0
H787 H 0.73696 0.53463 0.09325 0.0
C788 C 0.74122 0.55613 0.66291 0.0
C789 C 0.72412 0.54526 0.60063 0.0
C790 C 0.73751 0.55336 0.75785 0.0
C791 C 0.71665 0.53931 0.79254 0.0
C792 C 0.69965 0.52813 0.72944 0.0
C793 C 0.70331 0.53124 0.63464 0.0
C794 C 0.68886 0.52934 0.02591 0.0
C795 C 0.70464 0.53001 0.08527 0.0
C796 C 0.69287 0.53269 0.93134 0.0
C797 C 0.71262 0.53637 0.89383 0.0
C798 C 0.72842 0.53709 0.95403 0.0
C799 C 0.72454 0.53414 0.04879 0.0
H800 H 0.54221 0.17368 0.59347 0.0
H801 H 0.53976 0.23245 0.62471 0.0
H802 H 0.54751 0.17277 0.75832 0.0
H803 H 0.54668 0.23263 0.78944 0.0
H804 H 0.53854 0.21665 0.09421 0.0
H805 H 0.53229 0.21712 0.92965 0.0
H806 H 0.57125 0.18737 0.878 0.0
H807 H 0.57571 0.18523 0.04296 0.0
C808 C 0.54315 0.18661 0.63584 0.0
C809 C 0.54052 0.2031 0.59681 0.0
C810 C 0.54638 0.18623 0.73051 0.0
C811 C 0.54765 0.20268 0.78823 0.0
C812 C 0.54536 0.21941 0.74817 0.0
C813 C 0.54157 0.21946 0.6536 0.0
C814 C 0.5454 0.20987 0.0475 0.0
C815 C 0.55722 0.2005 0.08132 0.0
C816 C 0.54214 0.21045 0.95279 0.0
C817 C 0.55118 0.20222 0.88948 0.0
C818 C 0.5635 0.19335 0.924 0.0
C819 C 0.56626 0.19228 0.01877 0.0
H820 H 0.9101 0.3931 0.59177 0.0
H821 H 0.85215 0.33127 0.62544 0.0
H822 H 0.91123 0.39938 0.75665 0.0
H823 H 0.8522 0.33804 0.7903 0.0
H824 H 0.86914 0.34633 0.09406 0.0
H825 H 0.86852 0.33962 0.92937 0.0
H826 H 0.89624 0.4081 0.87702 0.0
H827 H 0.89844 0.41476 0.04198 0.0
C828 C 0.8974 0.38098 0.63467 0.0
C829 C 0.88107 0.36168 0.59632 0.0
C830 C 0.89791 0.38463 0.72935 0.0
C831 C 0.88176 0.36928 0.78773 0.0
C832 C 0.86519 0.35007 0.7484 0.0
C833 C 0.865 0.34622 0.6538 0.0
C834 C 0.8754 0.35993 0.04712 0.0
C835 C 0.88417 0.38108 0.08066 0.0
C836 C 0.87475 0.35609 0.95241 0.0
C837 C 0.88236 0.37329 0.88893 0.0
C838 C 0.89072 0.39444 0.9232 0.0
C839 C 0.89184 0.39829 0.01794 0.0
H840 H 0.40353 0.86749 0.4239 0.0
H841 H 0.34043 0.86024 0.38342 0.0
H842 H 0.41026 0.87228 0.25868 0.0
H843 H 0.34749 0.86634 0.21862 0.0
H844 H 0.35657 0.85621 0.91865 0.0
H845 H 0.35017 0.85043 0.08372 0.0
H846 H 0.41787 0.89541 0.13443 0.0
H847 H 0.42432 0.89994 0.96892 0.0
C848 C 0.39122 0.86721 0.37946 0.0
C849 C 0.37142 0.86339 0.41597 0.0
C850 C 0.3951 0.87011 0.28469 0.0
C851 C 0.37942 0.86966 0.22451 0.0
C852 C 0.35978 0.86629 0.26205 0.0
C853 C 0.35576 0.86298 0.35664 0.0
C854 C 0.37007 0.86466 0.96533 0.0
C855 C 0.39093 0.87843 0.93126 0.0
C856 C 0.3664 0.86157 0.06014 0.0
C857 C 0.38346 0.87255 0.1232 0.0
C858 C 0.40437 0.88635 0.08845 0.0
C859 C 0.40809 0.88909 -0.0065 0.0
H860 H 0.18396 0.5481 0.96894 0.0
H861 H 0.22797 0.52443 0.91788 0.0
H862 H 0.18864 0.54632 0.13434 0.0
H863 H 0.23394 0.52401 0.08278 0.0
H864 H 0.22503 0.50513 0.38329 0.0
H865 H 0.21864 0.50575 0.21865 0.0
H866 H 0.21167 0.56202 0.25808 0.0
H867 H 0.21673 0.56037 0.4232 0.0
C868 C 0.1949 0.54282 -0.0067 0.0
C869 C 0.20561 0.53642 0.93082 0.0
C870 C 0.19773 0.54193 0.08823 0.0
C871 C 0.2117 0.53501 0.12278 0.0
C872 C 0.22269 0.52897 0.05946 0.0
C873 C 0.2195 0.52945 0.96468 0.0
C874 C 0.222 0.51752 0.35641 0.0
C875 C 0.22138 0.5327 0.41559 0.0
C876 C 0.21852 0.51804 0.26187 0.0
C877 C 0.21477 0.53405 0.22413 0.0
C878 C 0.21412 0.54921 0.28417 0.0
C879 C 0.21718 0.5484 0.37891 0.0
H880 H 0.57957 0.7444 0.38474 0.0
H881 H 0.52369 0.68129 0.42499 0.0
H882 H 0.5788 0.73736 0.22006 0.0
H883 H 0.52191 0.67459 0.25984 0.0
H884 H 0.53548 0.66047 0.97047 0.0
H885 H 0.53733 0.66693 0.13588 0.0
H886 H 0.56063 0.73474 0.08447 0.0
H887 H 0.56013 0.72834 0.91954 0.0
C888 C 0.56701 0.72907 0.35792 0.0
C889 C 0.5517 0.7134 0.4172 0.0
C890 C 0.5664 0.72506 0.26337 0.0
C891 C 0.55017 0.70543 0.22572 0.0
C892 C 0.53488 0.68975 0.28586 0.0
C893 C 0.53577 0.69361 0.38062 0.0
C894 C 0.54098 0.67674 -0.00514 0.0
C895 C 0.54765 0.69391 0.93242 0.0
C896 C 0.54192 0.68046 0.08979 0.0
C897 C 0.54915 0.7014 0.12438 0.0
C898 C 0.55543 0.71848 0.0611 0.0
C899 C 0.5549 0.7148 0.96632 0.0
loop_
_geom_bond_atom_site_label_1
_geom_bond_atom_site_label_2
_geom_bond_distance
_geom_bond_site_symmetry_2
_ccdc_geom_bond_type
Gd0 C3 2.818 1_554 S
Gd0 O20 2.377 . S
Gd0 O22 2.448 . S
Gd0 O23 2.506 1_554 S
Gd0 O24 2.435 . S
Gd0 O25 2.717 . S
Gd0 O27 2.395 . S
Gd0 O31 2.327 1_554 S
Gd1 C12 2.818 1_556 S
Gd1 O21 2.395 . S
Gd1 O25 2.327 1_656 S
Gd1 O26 2.377 1_655 S
Gd1 O28 2.448 . S
Gd1 O29 2.506 1_556 S
Gd1 O30 2.435 . S
Gd1 O31 2.717 1_655 S
C2 O20 1.240 1_655 S
C2 O21 1.240 1_554 S
C3 Gd0 2.818 1_556 S
C3 C4 1.510 . S
C3 O22 1.249 1_556 S
C3 O23 1.252 . S
C4 C3 1.510 . S
C4 C5 1.404 1_556 S
C4 C6 1.352 . S
C5 C4 1.404 1_554 S
C5 C9 1.389 . S
C5 H32 0.930 . S
C6 C4 1.352 . S
C6 C8 1.374 . S
C6 H33 0.931 . S
C7 C8 1.359 . S
C7 C9 1.364 1_556 S
C8 C6 1.374 . S
C8 C7 1.359 . S
C8 H34 0.931 . S
C9 C5 1.389 . S
C9 C7 1.364 1_554 S
C9 H35 0.931 . S
C10 O24 1.256 . S
C10 O25 1.257 . S
C11 O26 1.240 . S
C11 O27 1.240 1_556 S
C12 Gd1 2.818 1_554 S
C12 C13 1.510 . S
C12 O28 1.249 1_554 S
C12 O29 1.252 . S
C13 C12 1.510 . S
C13 C14 1.404 1_554 S
C13 C15 1.352 . S
C14 C13 1.404 1_556 S
C14 C18 1.389 . S
C14 H36 0.930 . S
C15 C13 1.352 . S
C15 C17 1.374 . S
C15 H37 0.931 . S
C16 C17 1.359 . S
C16 C18 1.364 1_554 S
C17 C15 1.374 . S
C17 C16 1.359 . S
C17 H38 0.931 . S
C18 C14 1.389 . S
C18 C16 1.364 1_556 S
C18 H39 0.931 . S
C19 O30 1.256 1_455 S
C19 O31 1.257 . S
O20 Gd0 2.377 . S
O20 C2 1.240 1_455 S
O21 Gd1 2.395 . S
O21 C2 1.240 1_556 S
O22 Gd0 2.448 . S
O22 C3 1.249 1_554 S
O23 Gd0 2.506 1_556 S
O23 C3 1.252 . S
O24 Gd0 2.435 . S
O24 C10 1.256 . S
O25 Gd0 2.717 . S
O25 Gd1 2.327 1_454 S
O25 C10 1.257 . S
O26 Gd1 2.377 1_455 S
O26 C11 1.240 . S
O27 Gd0 2.395 . S
O27 C11 1.240 1_554 S
O28 Gd1 2.448 . S
O28 C12 1.249 1_556 S
O29 Gd1 2.506 1_554 S
O29 C12 1.252 . S
O30 Gd1 2.435 . S
O30 C19 1.256 1_655 S
O31 Gd0 2.327 1_556 S
O31 Gd1 2.717 1_455 S
O31 C19 1.257 . S
H32 C5 0.930 . S
H33 C6 0.931 . S
H34 C8 0.931 . S
H35 C9 0.931 . S
H36 C14 0.930 . S
H37 C15 0.931 . S
H38 C17 0.931 . S
H39 C18 0.931 . S
Gd40 C43 2.818 1_554 S
Gd40 O60 2.377 . S
Gd40 O62 2.448 . S
Gd40 O63 2.506 1_554 S
Gd40 O64 2.435 . S
Gd40 O65 2.717 . S
Gd40 O67 2.395 . S
Gd40 O71 2.327 1_554 S
Gd41 C52 2.818 1_556 S
Gd41 O61 2.395 . S
Gd41 O65 2.327 1_556 S
Gd41 O66 2.377 . S
Gd41 O68 2.448 . S
Gd41 O69 2.506 1_556 S
Gd41 O70 2.435 . S
Gd41 O71 2.717 . S
C42 O60 1.240 . S
C42 O61 1.240 1_554 S
C43 Gd40 2.818 1_556 S
C43 C44 1.510 . S
C43 O62 1.249 1_556 S
C43 O63 1.252 . S
C44 C43 1.510 . S
C44 C45 1.404 1_556 S
C44 C46 1.352 . S
C45 C44 1.404 1_554 S
C45 C49 1.389 . S
C45 H72 0.930 . S
C46 C44 1.352 . S
C46 C48 1.374 . S
C46 H73 0.931 . S
C47 C48 1.359 . S
C47 C49 1.364 1_556 S
C48 C46 1.374 . S
C48 C47 1.359 . S
C48 H74 0.931 . S
C49 C45 1.389 . S
C49 C47 1.364 1_554 S
C49 H75 0.931 . S
C50 O64 1.256 . S
C50 O65 1.257 . S
C51 O66 1.240 . S
C51 O67 1.240 1_556 S
C52 Gd41 2.818 1_554 S
C52 C53 1.510 . S
C52 O68 1.249 1_554 S
C52 O69 1.252 . S
C53 C52 1.510 . S
C53 C54 1.404 1_554 S
C53 C55 1.352 . S
C54 C53 1.404 1_556 S
C54 C58 1.389 . S
C54 H76 0.930 . S
C55 C53 1.352 . S
C55 C57 1.374 . S
C55 H77 0.931 . S
C56 C57 1.359 . S
C56 C58 1.364 1_554 S
C57 C55 1.374 . S
C57 C56 1.359 . S
C57 H78 0.931 . S
C58 C54 1.389 . S
C58 C56 1.364 1_556 S
C58 H79 0.931 . S
C59 O70 1.256 . S
C59 O71 1.257 . S
O60 Gd40 2.377 . S
O60 C42 1.240 . S
O61 Gd41 2.395 . S
O61 C42 1.240 1_556 S
O62 Gd40 2.448 . S
O62 C43 1.249 1_554 S
O63 Gd40 2.506 1_556 S
O63 C43 1.252 . S
O64 Gd40 2.435 . S
O64 C50 1.256 . S
O65 Gd40 2.717 . S
O65 Gd41 2.327 1_554 S
O65 C50 1.257 . S
O66 Gd41 2.377 . S
O66 C51 1.240 . S
O67 Gd40 2.395 . S
O67 C51 1.240 1_554 S
O68 Gd41 2.448 . S
O68 C52 1.249 1_556 S
O69 Gd41 2.506 1_554 S
O69 C52 1.252 . S
O70 Gd41 2.435 . S
O70 C59 1.256 . S
O71 Gd40 2.327 1_556 S
O71 Gd41 2.717 . S
O71 C59 1.257 . S
H72 C45 0.930 . S
H73 C46 0.931 . S
H74 C48 0.931 . S
H75 C49 0.931 . S
H76 C54 0.930 . S
H77 C55 0.931 . S
H78 C57 0.931 . S
H79 C58 0.931 . S
Gd80 C83 2.818 1_554 S
Gd80 O100 2.377 1_565 S
Gd80 O102 2.448 . S
Gd80 O103 2.506 1_554 S
Gd80 O104 2.435 . S
Gd80 O105 2.717 1_565 S
Gd80 O107 2.395 . S
Gd80 O111 2.327 1_564 S
Gd81 C92 2.818 1_556 S
Gd81 O101 2.395 . S
Gd81 O105 2.327 1_556 S
Gd81 O106 2.377 . S
Gd81 O108 2.448 . S
Gd81 O109 2.506 1_556 S
Gd81 O110 2.435 . S
Gd81 O111 2.717 . S
C82 O100 1.240 . S
C82 O101 1.240 1_554 S
C83 Gd80 2.818 1_556 S
C83 C84 1.510 . S
C83 O102 1.249 1_556 S
C83 O103 1.252 . S
C84 C83 1.510 . S
C84 C85 1.404 1_556 S
C84 C86 1.352 . S
C85 C84 1.404 1_554 S
C85 C89 1.389 . S
C85 H112 0.930 . S
C86 C84 1.352 . S
C86 C88 1.374 . S
C86 H113 0.931 . S
C87 C88 1.359 . S
C87 C89 1.364 1_556 S
C88 C86 1.374 . S
C88 C87 1.359 . S
C88 H114 0.931 . S
C89 C85 1.389 . S
C89 C87 1.364 1_554 S
C89 H115 0.931 . S
C90 O104 1.256 1_545 S
C90 O105 1.257 . S
C91 O106 1.240 1_565 S
C91 O107 1.240 1_556 S
C92 Gd81 2.818 1_554 S
C92 C93 1.510 . S
C92 O108 1.249 1_554 S
C92 O109 1.252 . S
C93 C92 1.510 . S
C93 C94 1.404 1_554 S
C93 C95 1.352 . S
C94 C93 1.404 1_556 S
C94 C98 1.389 . S
C94 H116 0.930 . S
C95 C93 1.352 . S
C95 C97 1.374 . S
C95 H117 0.931 . S
C96 C97 1.359 . S
C96 C98 1.364 1_554 S
C97 C95 1.374 . S
C97 C96 1.359 . S
C97 H118 0.931 . S
C98 C94 1.389 . S
C98 C96 1.364 1_556 S
C98 H119 0.931 . S
C99 O110 1.256 . S
C99 O111 1.257 . S
O100 Gd80 2.377 1_545 S
O100 C82 1.240 . S
O101 Gd81 2.395 . S
O101 C82 1.240 1_556 S
O102 Gd80 2.448 . S
O102 C83 1.249 1_554 S
O103 Gd80 2.506 1_556 S
O103 C83 1.252 . S
O104 Gd80 2.435 . S
O104 C90 1.256 1_565 S
O105 Gd80 2.717 1_545 S
O105 Gd81 2.327 1_554 S
O105 C90 1.257 . S
O106 Gd81 2.377 . S
O106 C91 1.240 1_545 S
O107 Gd80 2.395 . S
O107 C91 1.240 1_554 S
O108 Gd81 2.448 . S
O108 C92 1.249 1_556 S
O109 Gd81 2.506 1_554 S
O109 C92 1.252 . S
O110 Gd81 2.435 . S
O110 C99 1.256 . S
O111 Gd80 2.327 1_546 S
O111 Gd81 2.717 . S
O111 C99 1.257 . S
H112 C85 0.930 . S
H113 C86 0.931 . S
H114 C88 0.931 . S
H115 C89 0.931 . S
H116 C94 0.930 . S
H117 C95 0.931 . S
H118 C97 0.931 . S
H119 C98 0.931 . S
Gd120 C123 2.818 . S
Gd120 O140 2.377 . S
Gd120 O142 2.448 . S
Gd120 O143 2.506 . S
Gd120 O144 2.435 . S
Gd120 O145 2.717 . S
Gd120 O147 2.395 . S
Gd120 O151 2.327 . S
Gd121 C132 2.818 . S
Gd121 O141 2.395 . S
Gd121 O145 2.327 . S
Gd121 O146 2.377 . S
Gd121 O148 2.448 . S
Gd121 O149 2.506 . S
Gd121 O150 2.435 . S
Gd121 O151 2.717 . S
C122 O140 1.240 . S
C122 O141 1.240 . S
C123 Gd120 2.818 . S
C123 C124 1.510 . S
C123 O142 1.249 . S
C123 O143 1.252 . S
C124 C123 1.510 . S
C124 C125 1.404 . S
C124 C126 1.352 . S
C125 C124 1.404 . S
C125 C129 1.389 . S
C125 H152 0.930 . S
C126 C124 1.352 . S
C126 C128 1.374 . S
C126 H153 0.931 . S
C127 C128 1.359 . S
C127 C129 1.364 . S
C128 C126 1.374 . S
C128 C127 1.359 . S
C128 H154 0.931 . S
C129 C125 1.389 . S
C129 C127 1.364 . S
C129 H155 0.931 . S
C130 O144 1.256 . S
C130 O145 1.257 . S
C131 O146 1.240 . S
C131 O147 1.240 . S
C132 Gd121 2.818 . S
C132 C133 1.510 . S
C132 O148 1.249 . S
C132 O149 1.252 . S
C133 C132 1.510 . S
C133 C134 1.404 . S
C133 C135 1.352 . S
C134 C133 1.404 . S
C134 C138 1.389 . S
C134 H156 0.930 . S
C135 C133 1.352 . S
C135 C137 1.374 . S
C135 H157 0.931 . S
C136 C137 1.359 . S
C136 C138 1.364 . S
C137 C135 1.374 . S
C137 C136 1.359 . S
C137 H158 0.931 . S
C138 C134 1.389 . S
C138 C136 1.364 . S
C138 H159 0.931 . S
C139 O150 1.256 . S
C139 O151 1.257 . S
O140 Gd120 2.377 . S
O140 C122 1.240 . S
O141 Gd121 2.395 . S
O141 C122 1.240 . S
O142 Gd120 2.448 . S
O142 C123 1.249 . S
O143 Gd120 2.506 . S
O143 C123 1.252 . S
O144 Gd120 2.435 . S
O144 C130 1.256 . S
O145 Gd120 2.717 . S
O145 Gd121 2.327 . S
O145 C130 1.257 . S
O146 Gd121 2.377 . S
O146 C131 1.240 . S
O147 Gd120 2.395 . S
O147 C131 1.240 . S
O148 Gd121 2.448 . S
O148 C132 1.249 . S
O149 Gd121 2.506 . S
O149 C132 1.252 . S
O150 Gd121 2.435 . S
O150 C139 1.256 . S
O151 Gd120 2.327 . S
O151 Gd121 2.717 . S
O151 C139 1.257 . S
H152 C125 0.930 . S
H153 C126 0.931 . S
H154 C128 0.931 . S
H155 C129 0.931 . S
H156 C134 0.930 . S
H157 C135 0.931 . S
H158 C137 0.931 . S
H159 C138 0.931 . S
Gd160 C163 2.818 . S
Gd160 O180 2.377 . S
Gd160 O182 2.448 . S
Gd160 O183 2.506 . S
Gd160 O184 2.435 . S
Gd160 O185 2.717 . S
Gd160 O187 2.395 . S
Gd160 O191 2.327 . S
Gd161 C172 2.818 . S
Gd161 O181 2.395 . S
Gd161 O185 2.327 . S
Gd161 O186 2.377 . S
Gd161 O188 2.448 . S
Gd161 O189 2.506 . S
Gd161 O190 2.435 . S
Gd161 O191 2.717 . S
C162 O180 1.240 . S
C162 O181 1.240 . S
C163 Gd160 2.818 . S
C163 C164 1.510 . S
C163 O182 1.249 . S
C163 O183 1.252 . S
C164 C163 1.510 . S
C164 C165 1.404 . S
C164 C166 1.352 . S
C165 C164 1.404 . S
C165 C169 1.389 . S
C165 H192 0.930 . S
C166 C164 1.352 . S
C166 C168 1.374 . S
C166 H193 0.931 . S
C167 C168 1.359 . S
C167 C169 1.364 . S
C168 C166 1.374 . S
C168 C167 1.359 . S
C168 H194 0.931 . S
C169 C165 1.389 . S
C169 C167 1.364 . S
C169 H195 0.931 . S
C170 O184 1.256 . S
C170 O185 1.257 . S
C171 O186 1.240 . S
C171 O187 1.240 . S
C172 Gd161 2.818 . S
C172 C173 1.510 . S
C172 O188 1.249 . S
C172 O189 1.252 . S
C173 C172 1.510 . S
C173 C174 1.404 . S
C173 C175 1.352 . S
C174 C173 1.404 . S
C174 C178 1.389 . S
C174 H196 0.930 . S
C175 C173 1.352 . S
C175 C177 1.374 . S
C175 H197 0.931 . S
C176 C177 1.359 . S
C176 C178 1.364 . S
C177 C175 1.374 . S
C177 C176 1.359 . S
C177 H198 0.931 . S
C178 C174 1.389 . S
C178 C176 1.364 . S
C178 H199 0.931 . S
C179 O190 1.256 . S
C179 O191 1.257 . S
O180 Gd160 2.377 . S
O180 C162 1.240 . S
O181 Gd161 2.395 . S
O181 C162 1.240 . S
O182 Gd160 2.448 . S
O182 C163 1.249 . S
O183 Gd160 2.506 . S
O183 C163 1.252 . S
O184 Gd160 2.435 . S
O184 C170 1.256 . S
O185 Gd160 2.717 . S
O185 Gd161 2.327 . S
O185 C170 1.257 . S
O186 Gd161 2.377 . S
O186 C171 1.240 . S
O187 Gd160 2.395 . S
O187 C171 1.240 . S
O188 Gd161 2.448 . S
O188 C172 1.249 . S
O189 Gd161 2.506 . S
O189 C172 1.252 . S
O190 Gd161 2.435 . S
O190 C179 1.256 . S
O191 Gd160 2.327 . S
O191 Gd161 2.717 . S
O191 C179 1.257 . S
H192 C165 0.930 . S
H193 C166 0.931 . S
H194 C168 0.931 . S
H195 C169 0.931 . S
H196 C174 0.930 . S
H197 C175 0.931 . S
H198 C177 0.931 . S
H199 C178 0.931 . S
Gd200 C203 2.818 . S
Gd200 O220 2.377 . S
Gd200 O222 2.448 . S
Gd200 O223 2.506 . S
Gd200 O224 2.435 . S
Gd200 O225 2.717 . S
Gd200 O227 2.395 . S
Gd200 O231 2.327 . S
Gd201 C212 2.818 . S
Gd201 O221 2.395 . S
Gd201 O225 2.327 . S
Gd201 O226 2.377 . S
Gd201 O228 2.448 . S
Gd201 O229 2.506 . S
Gd201 O230 2.435 . S
Gd201 O231 2.717 . S
C202 O220 1.240 . S
C202 O221 1.240 . S
C203 Gd200 2.818 . S
C203 C204 1.510 . S
C203 O222 1.249 . S
C203 O223 1.252 . S
C204 C203 1.510 . S
C204 C205 1.404 . S
C204 C206 1.352 . S
C205 C204 1.404 . S
C205 C209 1.389 . S
C205 H232 0.930 . S
C206 C204 1.352 . S
C206 C208 1.374 . S
C206 H233 0.931 . S
C207 C208 1.359 . S
C207 C209 1.364 . S
C208 C206 1.374 . S
C208 C207 1.359 . S
C208 H234 0.931 . S
C209 C205 1.389 . S
C209 C207 1.364 . S
C209 H235 0.931 . S
C210 O224 1.256 . S
C210 O225 1.257 . S
C211 O226 1.240 . S
C211 O227 1.240 . S
C212 Gd201 2.818 . S
C212 C213 1.510 . S
C212 O228 1.249 . S
C212 O229 1.252 . S
C213 C212 1.510 . S
C213 C214 1.404 . S
C213 C215 1.352 . S
C214 C213 1.404 . S
C214 C218 1.389 . S
C214 H236 0.930 . S
C215 C213 1.352 . S
C215 C217 1.374 . S
C215 H237 0.931 . S
C216 C217 1.359 . S
C216 C218 1.364 . S
C217 C215 1.374 . S
C217 C216 1.359 . S
C217 H238 0.931 . S
C218 C214 1.389 . S
C218 C216 1.364 . S
C218 H239 0.931 . S
C219 O230 1.256 . S
C219 O231 1.257 . S
O220 Gd200 2.377 . S
O220 C202 1.240 . S
O221 Gd201 2.395 . S
O221 C202 1.240 . S
O222 Gd200 2.448 . S
O222 C203 1.249 . S
O223 Gd200 2.506 . S
O223 C203 1.252 . S
O224 Gd200 2.435 . S
O224 C210 1.256 . S
O225 Gd200 2.717 . S
O225 Gd201 2.327 . S
O225 C210 1.257 . S
O226 Gd201 2.377 . S
O226 C211 1.240 . S
O227 Gd200 2.395 . S
O227 C211 1.240 . S
O228 Gd201 2.448 . S
O228 C212 1.249 . S
O229 Gd201 2.506 . S
O229 C212 1.252 . S
O230 Gd201 2.435 . S
O230 C219 1.256 . S
O231 Gd200 2.327 . S
O231 Gd201 2.717 . S
O231 C219 1.257 . S
H232 C205 0.930 . S
H233 C206 0.931 . S
H234 C208 0.931 . S
H235 C209 0.931 . S
H236 C214 0.930 . S
H237 C215 0.931 . S
H238 C217 0.931 . S
H239 C218 0.931 . S
Gd240 C243 2.818 . S
Gd240 O260 2.377 . S
Gd240 O262 2.448 . S
Gd240 O263 2.506 . S
Gd240 O264 2.435 . S
Gd240 O265 2.717 . S
Gd240 O267 2.395 . S
Gd240 O271 2.327 . S
Gd241 C252 2.818 . S
Gd241 O261 2.395 . S
Gd241 O265 2.327 . S
Gd241 O266 2.377 . S
Gd241 O268 2.448 . S
Gd241 O269 2.506 . S
Gd241 O270 2.435 . S
Gd241 O271 2.717 . S
C242 O260 1.240 . S
C242 O261 1.240 . S
C243 Gd240 2.818 . S
C243 C244 1.510 . S
C243 O262 1.249 . S
C243 O263 1.252 . S
C244 C243 1.510 . S
C244 C245 1.404 . S
C244 C246 1.352 . S
C245 C244 1.404 . S
C245 C249 1.389 . S
C245 H272 0.930 . S
C246 C244 1.352 . S
C246 C248 1.374 . S
C246 H273 0.931 . S
C247 C248 1.359 . S
C247 C249 1.364 . S
C248 C246 1.374 . S
C248 C247 1.359 . S
C248 H274 0.931 . S
C249 C245 1.389 . S
C249 C247 1.364 . S
C249 H275 0.931 . S
C250 O264 1.256 . S
C250 O265 1.257 . S
C251 O266 1.240 . S
C251 O267 1.240 . S
C252 Gd241 2.818 . S
C252 C253 1.510 . S
C252 O268 1.249 . S
C252 O269 1.252 . S
C253 C252 1.510 . S
C253 C254 1.404 . S
C253 C255 1.352 . S
C254 C253 1.404 . S
C254 C258 1.389 . S
C254 H276 0.930 . S
C255 C253 1.352 . S
C255 C257 1.374 . S
C255 H277 0.931 . S
C256 C257 1.359 . S
C256 C258 1.364 . S
C257 C255 1.374 . S
C257 C256 1.359 . S
C257 H278 0.931 . S
C258 C254 1.389 . S
C258 C256 1.364 . S
C258 H279 0.931 . S
C259 O270 1.256 . S
C259 O271 1.257 . S
O260 Gd240 2.377 . S
O260 C242 1.240 . S
O261 Gd241 2.395 . S
O261 C242 1.240 . S
O262 Gd240 2.448 . S
O262 C243 1.249 . S
O263 Gd240 2.506 . S
O263 C243 1.252 . S
O264 Gd240 2.435 . S
O264 C250 1.256 . S
O265 Gd240 2.717 . S
O265 Gd241 2.327 . S
O265 C250 1.257 . S
O266 Gd241 2.377 . S
O266 C251 1.240 . S
O267 Gd240 2.395 . S
O267 C251 1.240 . S
O268 Gd241 2.448 . S
O268 C252 1.249 . S
O269 Gd241 2.506 . S
O269 C252 1.252 . S
O270 Gd241 2.435 . S
O270 C259 1.256 . S
O271 Gd240 2.327 . S
O271 Gd241 2.717 . S
O271 C259 1.257 . S
H272 C245 0.930 . S
H273 C246 0.931 . S
H274 C248 0.931 . S
H275 C249 0.931 . S
H276 C254 0.930 . S
H277 C255 0.931 . S
H278 C257 0.931 . S
H279 C258 0.931 . S
Gd280 C283 2.818 . S
Gd280 O300 2.377 . S
Gd280 O302 2.448 . S
Gd280 O303 2.506 . S
Gd280 O304 2.435 . S
Gd280 O305 2.717 . S
Gd280 O307 2.395 . S
Gd280 O311 2.327 . S
Gd281 C292 2.818 . S
Gd281 O301 2.395 . S
Gd281 O305 2.327 . S
Gd281 O306 2.377 . S
Gd281 O308 2.448 . S
Gd281 O309 2.506 . S
Gd281 O310 2.435 . S
Gd281 O311 2.717 . S
C282 O300 1.240 . S
C282 O301 1.240 . S
C283 Gd280 2.818 . S
C283 C284 1.510 . S
C283 O302 1.249 . S
C283 O303 1.252 . S
C284 C283 1.510 . S
C284 C285 1.404 . S
C284 C286 1.352 . S
C285 C284 1.404 . S
C285 C289 1.389 . S
C285 H312 0.930 . S
C286 C284 1.352 . S
C286 C288 1.374 . S
C286 H313 0.931 . S
C287 C288 1.359 . S
C287 C289 1.364 . S
C288 C286 1.374 . S
C288 C287 1.359 . S
C288 H314 0.931 . S
C289 C285 1.389 . S
C289 C287 1.364 . S
C289 H315 0.931 . S
C290 O304 1.256 . S
C290 O305 1.257 . S
C291 O306 1.240 . S
C291 O307 1.240 . S
C292 Gd281 2.818 . S
C292 C293 1.510 . S
C292 O308 1.249 . S
C292 O309 1.252 . S
C293 C292 1.510 . S
C293 C294 1.404 . S
C293 C295 1.352 . S
C294 C293 1.404 . S
C294 C298 1.389 . S
C294 H316 0.930 . S
C295 C293 1.352 . S
C295 C297 1.374 . S
C295 H317 0.931 . S
C296 C297 1.359 . S
C296 C298 1.364 . S
C297 C295 1.374 . S
C297 C296 1.359 . S
C297 H318 0.931 . S
C298 C294 1.389 . S
C298 C296 1.364 . S
C298 H319 0.931 . S
C299 O310 1.256 . S
C299 O311 1.257 . S
O300 Gd280 2.377 . S
O300 C282 1.240 . S
O301 Gd281 2.395 . S
O301 C282 1.240 . S
O302 Gd280 2.448 . S
O302 C283 1.249 . S
O303 Gd280 2.506 . S
O303 C283 1.252 . S
O304 Gd280 2.435 . S
O304 C290 1.256 . S
O305 Gd280 2.717 . S
O305 Gd281 2.327 . S
O305 C290 1.257 . S
O306 Gd281 2.377 . S
O306 C291 1.240 . S
O307 Gd280 2.395 . S
O307 C291 1.240 . S
O308 Gd281 2.448 . S
O308 C292 1.249 . S
O309 Gd281 2.506 . S
O309 C292 1.252 . S
O310 Gd281 2.435 . S
O310 C299 1.256 . S
O311 Gd280 2.327 . S
O311 Gd281 2.717 . S
O311 C299 1.257 . S
H312 C285 0.930 . S
H313 C286 0.931 . S
H314 C288 0.931 . S
H315 C289 0.931 . S
H316 C294 0.930 . S
H317 C295 0.931 . S
H318 C297 0.931 . S
H319 C298 0.931 . S
Gd320 C323 2.818 . S
Gd320 O340 2.377 . S
Gd320 O342 2.448 . S
Gd320 O343 2.506 . S
Gd320 O344 2.435 . S
Gd320 O345 2.717 . S
Gd320 O347 2.395 . S
Gd320 O351 2.327 . S
Gd321 C332 2.818 . S
Gd321 O341 2.395 . S
Gd321 O345 2.327 . S
Gd321 O346 2.377 . S
Gd321 O348 2.448 . S
Gd321 O349 2.506 . S
Gd321 O350 2.435 . S
Gd321 O351 2.717 . S
C322 O340 1.240 . S
C322 O341 1.240 . S
C323 Gd320 2.818 . S
C323 C324 1.510 . S
C323 O342 1.249 . S
C323 O343 1.252 . S
C324 C323 1.510 . S
C324 C325 1.404 . S
C324 C326 1.352 . S
C325 C324 1.404 . S
C325 C329 1.389 . S
C325 H352 0.930 . S
C326 C324 1.352 . S
C326 C328 1.374 . S
C326 H353 0.931 . S
C327 C328 1.359 . S
C327 C329 1.364 . S
C328 C326 1.374 . S
C328 C327 1.359 . S
C328 H354 0.931 . S
C329 C325 1.389 . S
C329 C327 1.364 . S
C329 H355 0.931 . S
C330 O344 1.256 . S
C330 O345 1.257 . S
C331 O346 1.240 . S
C331 O347 1.240 . S
C332 Gd321 2.818 . S
C332 C333 1.510 . S
C332 O348 1.249 . S
C332 O349 1.252 . S
C333 C332 1.510 . S
C333 C334 1.404 . S
C333 C335 1.352 . S
C334 C333 1.404 . S
C334 C338 1.389 . S
C334 H356 0.930 . S
C335 C333 1.352 . S
C335 C337 1.374 . S
C335 H357 0.931 . S
C336 C337 1.359 . S
C336 C338 1.364 . S
C337 C335 1.374 . S
C337 C336 1.359 . S
C337 H358 0.931 . S
C338 C334 1.389 . S
C338 C336 1.364 . S
C338 H359 0.931 . S
C339 O350 1.256 . S
C339 O351 1.257 . S
O340 Gd320 2.377 . S
O340 C322 1.240 . S
O341 Gd321 2.395 . S
O341 C322 1.240 . S
O342 Gd320 2.448 . S
O342 C323 1.249 . S
O343 Gd320 2.506 . S
O343 C323 1.252 . S
O344 Gd320 2.435 . S
O344 C330 1.256 . S
O345 Gd320 2.717 . S
O345 Gd321 2.327 . S
O345 C330 1.257 . S
O346 Gd321 2.377 . S
O346 C331 1.240 . S
O347 Gd320 2.395 . S
O347 C331 1.240 . S
O348 Gd321 2.448 . S
O348 C332 1.249 . S
O349 Gd321 2.506 . S
O349 C332 1.252 . S
O350 Gd321 2.435 . S
O350 C339 1.256 . S
O351 Gd320 2.327 . S
O351 Gd321 2.717 . S
O351 C339 1.257 . S
H352 C325 0.930 . S
H353 C326 0.931 . S
H354 C328 0.931 . S
H355 C329 0.931 . S
H356 C334 0.930 . S
H357 C335 0.931 . S
H358 C337 0.931 . S
H359 C338 0.931 . S
H360 C368 0.950 1_554 S
H361 C373 0.950 . S
H362 C370 0.950 . S
H363 C372 0.950 . S
H364 C374 0.950 . S
H365 C376 0.950 . S
H366 C378 0.950 . S
H367 C379 0.950 . S
C368 H360 0.950 1_556 S
C368 C369 1.386 . S
C368 C370 1.391 . S
C369 C368 1.386 . S
C369 C373 1.393 . S
C370 H362 0.950 . S
C370 C368 1.391 . S
C370 C371 1.400 . S
C371 C370 1.400 . S
C371 C372 1.398 . S
C371 C377 1.491 . S
C372 H363 0.950 . S
C372 C371 1.398 . S
C372 C373 1.391 . S
C373 H361 0.950 . S
C373 C369 1.393 . S
C373 C372 1.391 . S
C374 H364 0.950 . S
C374 C375 1.386 . S
C374 C376 1.391 . S
C375 C374 1.386 . S
C375 C379 1.393 . S
C376 H365 0.950 . S
C376 C374 1.391 . S
C376 C377 1.400 . S
C377 C371 1.491 . S
C377 C376 1.400 . S
C377 C378 1.398 . S
C378 H366 0.950 . S
C378 C377 1.398 . S
C378 C379 1.391 . S
C379 H367 0.950 . S
C379 C375 1.393 . S
C379 C378 1.391 . S
H380 C388 0.950 . S
H381 C393 0.950 . S
H382 C390 0.950 . S
H383 C392 0.950 . S
H384 C394 0.950 . S
H385 C396 0.950 . S
H386 C398 0.950 . S
H387 C399 0.950 . S
C388 H380 0.950 . S
C388 C389 1.386 . S
C388 C390 1.391 . S
C389 C388 1.386 . S
C389 C393 1.393 . S
C390 H382 0.950 . S
C390 C388 1.391 . S
C390 C391 1.400 . S
C391 C390 1.400 . S
C391 C392 1.398 . S
C391 C397 1.491 . S
C392 H383 0.950 . S
C392 C391 1.398 . S
C392 C393 1.391 . S
C393 H381 0.950 . S
C393 C389 1.393 . S
C393 C392 1.391 . S
C394 H384 0.950 . S
C394 C395 1.386 . S
C394 C396 1.391 . S
C395 C394 1.386 . S
C395 C399 1.393 . S
C396 H385 0.950 . S
C396 C394 1.391 . S
C396 C397 1.400 . S
C397 C391 1.491 . S
C397 C396 1.400 . S
C397 C398 1.398 . S
C398 H386 0.950 . S
C398 C397 1.398 . S
C398 C399 1.391 . S
C399 H387 0.950 . S
C399 C395 1.393 . S
C399 C398 1.391 . S
H400 C408 0.950 . S
H401 C413 0.950 1_554 S
H402 C410 0.950 . S
H403 C412 0.950 . S
H404 C414 0.950 . S
H405 C416 0.950 . S
H406 C418 0.950 . S
H407 C419 0.950 . S
C408 H400 0.950 . S
C408 C409 1.386 . S
C408 C410 1.391 . S
C409 C408 1.386 . S
C409 C413 1.393 . S
C410 H402 0.950 . S
C410 C408 1.391 . S
C410 C411 1.400 . S
C411 C410 1.400 . S
C411 C412 1.398 . S
C411 C417 1.491 . S
C412 H403 0.950 . S
C412 C411 1.398 . S
C412 C413 1.391 . S
C413 H401 0.950 1_556 S
C413 C409 1.393 . S
C413 C412 1.391 . S
C414 H404 0.950 . S
C414 C415 1.386 . S
C414 C416 1.391 . S
C415 C414 1.386 . S
C415 C419 1.393 . S
C416 H405 0.950 . S
C416 C414 1.391 . S
C416 C417 1.400 . S
C417 C411 1.491 . S
C417 C416 1.400 . S
C417 C418 1.398 . S
C418 H406 0.950 . S
C418 C417 1.398 . S
C418 C419 1.391 . S
C419 H407 0.950 . S
C419 C415 1.393 . S
C419 C418 1.391 . S
H420 C428 0.950 . S
H421 C433 0.950 . S
H422 C430 0.950 . S
H423 C432 0.950 . S
H424 C434 0.950 . S
H425 C436 0.950 . S
H426 C438 0.950 . S
H427 C439 0.950 . S
C428 H420 0.950 . S
C428 C429 1.386 . S
C428 C430 1.391 . S
C429 C428 1.386 . S
C429 C433 1.393 . S
C430 H422 0.950 . S
C430 C428 1.391 . S
C430 C431 1.400 . S
C431 C430 1.400 . S
C431 C432 1.398 . S
C431 C437 1.491 . S
C432 H423 0.950 . S
C432 C431 1.398 . S
C432 C433 1.391 . S
C433 H421 0.950 . S
C433 C429 1.393 . S
C433 C432 1.391 . S
C434 H424 0.950 . S
C434 C435 1.386 . S
C434 C436 1.391 . S
C435 C434 1.386 . S
C435 C439 1.393 . S
C436 H425 0.950 . S
C436 C434 1.391 . S
C436 C437 1.400 . S
C437 C431 1.491 . S
C437 C436 1.400 . S
C437 C438 1.398 . S
C438 H426 0.950 . S
C438 C437 1.398 . S
C438 C439 1.391 . S
C439 H427 0.950 . S
C439 C435 1.393 . S
C439 C438 1.391 . S
H440 C448 0.950 . S
H441 C453 0.950 . S
H442 C450 0.950 . S
H443 C452 0.950 . S
H444 C454 0.950 . S
H445 C456 0.950 . S
H446 C458 0.950 1_556 S
H447 C459 0.950 . S
C448 H440 0.950 . S
C448 C449 1.386 . S
C448 C450 1.391 . S
C449 C448 1.386 . S
C449 C453 1.393 . S
C450 H442 0.950 . S
C450 C448 1.391 . S
C450 C451 1.400 . S
C451 C450 1.400 . S
C451 C452 1.398 . S
C451 C457 1.491 . S
C452 H443 0.950 . S
C452 C451 1.398 . S
C452 C453 1.391 . S
C453 H441 0.950 . S
C453 C449 1.393 . S
C453 C452 1.391 . S
C454 H444 0.950 . S
C454 C455 1.386 . S
C454 C456 1.391 . S
C455 C454 1.386 . S
C455 C459 1.393 1_554 S
C456 H445 0.950 . S
C456 C454 1.391 . S
C456 C457 1.400 . S
C457 C451 1.491 . S
C457 C456 1.400 . S
C457 C458 1.398 . S
C458 H446 0.950 1_554 S
C458 C457 1.398 . S
C458 C459 1.391 1_554 S
C459 H447 0.950 . S
C459 C455 1.393 1_556 S
C459 C458 1.391 1_556 S
H460 C468 0.950 . S
H461 C473 0.950 . S
H462 C470 0.950 . S
H463 C472 0.950 . S
H464 C474 0.950 . S
H465 C476 0.950 . S
H466 C478 0.950 . S
H467 C479 0.950 . S
C468 H460 0.950 . S
C468 C469 1.386 . S
C468 C470 1.391 . S
C469 C468 1.386 . S
C469 C473 1.393 . S
C470 H462 0.950 . S
C470 C468 1.391 . S
C470 C471 1.400 . S
C471 C470 1.400 . S
C471 C472 1.398 . S
C471 C477 1.491 . S
C472 H463 0.950 . S
C472 C471 1.398 . S
C472 C473 1.391 . S
C473 H461 0.950 . S
C473 C469 1.393 . S
C473 C472 1.391 . S
C474 H464 0.950 . S
C474 C475 1.386 . S
C474 C476 1.391 . S
C475 C474 1.386 . S
C475 C479 1.393 . S
C476 H465 0.950 . S
C476 C474 1.391 . S
C476 C477 1.400 . S
C477 C471 1.491 . S
C477 C476 1.400 . S
C477 C478 1.398 . S
C478 H466 0.950 . S
C478 C477 1.398 . S
C478 C479 1.391 . S
C479 H467 0.950 . S
C479 C475 1.393 . S
C479 C478 1.391 . S
H480 C488 0.950 . S
H481 C493 0.950 . S
H482 C490 0.950 . S
H483 C492 0.950 . S
H484 C494 0.950 . S
H485 C496 0.950 . S
H486 C498 0.950 . S
H487 C499 0.950 . S
C488 H480 0.950 . S
C488 C489 1.386 . S
C488 C490 1.391 1_455 S
C489 C488 1.386 . S
C489 C493 1.393 . S
C490 H482 0.950 . S
C490 C488 1.391 1_655 S
C490 C491 1.400 . S
C491 C490 1.400 . S
C491 C492 1.398 . S
C491 C497 1.491 . S
C492 H483 0.950 . S
C492 C491 1.398 . S
C492 C493 1.391 1_655 S
C493 H481 0.950 . S
C493 C489 1.393 . S
C493 C492 1.391 1_455 S
C494 H484 0.950 . S
C494 C495 1.386 . S
C494 C496 1.391 . S
C495 C494 1.386 . S
C495 C499 1.393 . S
C496 H485 0.950 . S
C496 C494 1.391 . S
C496 C497 1.400 . S
C497 C491 1.491 . S
C497 C496 1.400 . S
C497 C498 1.398 . S
C498 H486 0.950 . S
C498 C497 1.398 . S
C498 C499 1.391 . S
C499 H487 0.950 . S
C499 C495 1.393 . S
C499 C498 1.391 . S
H500 C508 0.950 . S
H501 C513 0.950 . S
H502 C510 0.950 . S
H503 C512 0.950 . S
H504 C514 0.950 . S
H505 C516 0.950 . S
H506 C518 0.950 . S
H507 C519 0.950 . S
C508 H500 0.950 . S
C508 C509 1.386 . S
C508 C510 1.391 . S
C509 C508 1.386 . S
C509 C513 1.393 . S
C510 H502 0.950 . S
C510 C508 1.391 . S
C510 C511 1.400 . S
C511 C510 1.400 . S
C511 C512 1.398 . S
C511 C517 1.491 . S
C512 H503 0.950 . S
C512 C511 1.398 . S
C512 C513 1.391 . S
C513 H501 0.950 . S
C513 C509 1.393 . S
C513 C512 1.391 . S
C514 H504 0.950 . S
C514 C515 1.386 . S
C514 C516 1.391 . S
C515 C514 1.386 . S
C515 C519 1.393 . S
C516 H505 0.950 . S
C516 C514 1.391 . S
C516 C517 1.400 . S
C517 C511 1.491 . S
C517 C516 1.400 . S
C517 C518 1.398 . S
C518 H506 0.950 . S
C518 C517 1.398 . S
C518 C519 1.391 . S
C519 H507 0.950 . S
C519 C515 1.393 . S
C519 C518 1.391 . S
H520 C528 0.950 . S
H521 C533 0.950 . S
H522 C530 0.950 . S
H523 C532 0.950 . S
H524 C534 0.950 . S
H525 C536 0.950 . S
H526 C538 0.950 . S
H527 C539 0.950 1_565 S
C528 H520 0.950 . S
C528 C529 1.386 . S
C528 C530 1.391 . S
C529 C528 1.386 . S
C529 C533 1.393 . S
C530 H522 0.950 . S
C530 C528 1.391 . S
C530 C531 1.400 . S
C531 C530 1.400 . S
C531 C532 1.398 . S
C531 C537 1.491 . S
C532 H523 0.950 . S
C532 C531 1.398 . S
C532 C533 1.391 . S
C533 H521 0.950 . S
C533 C529 1.393 . S
C533 C532 1.391 . S
C534 H524 0.950 . S
C534 C535 1.386 . S
C534 C536 1.391 . S
C535 C534 1.386 . S
C535 C539 1.393 . S
C536 H525 0.950 . S
C536 C534 1.391 . S
C536 C537 1.400 . S
C537 C531 1.491 . S
C537 C536 1.400 . S
C537 C538 1.398 . S
C538 H526 0.950 . S
C538 C537 1.398 . S
C538 C539 1.391 . S
C539 H527 0.950 1_545 S
C539 C535 1.393 . S
C539 C538 1.391 . S
H540 C548 0.950 . S
H541 C553 0.950 . S
H542 C550 0.950 . S
H543 C552 0.950 . S
H544 C554 0.950 . S
H545 C556 0.950 . S
H546 C558 0.950 . S
H547 C559 0.950 . S
C548 H540 0.950 . S
C548 C549 1.386 . S
C548 C550 1.391 . S
C549 C548 1.386 . S
C549 C553 1.393 1_554 S
C550 H542 0.950 . S
C550 C548 1.391 . S
C550 C551 1.400 . S
C551 C550 1.400 . S
C551 C552 1.398 1_554 S
C551 C557 1.491 . S
C552 H543 0.950 . S
C552 C551 1.398 1_556 S
C552 C553 1.391 . S
C553 H541 0.950 . S
C553 C549 1.393 1_556 S
C553 C552 1.391 . S
C554 H544 0.950 . S
C554 C555 1.386 1_556 S
C554 C556 1.391 . S
C555 C554 1.386 1_554 S
C555 C559 1.393 . S
C556 H545 0.950 . S
C556 C554 1.391 . S
C556 C557 1.400 1_556 S
C557 C551 1.491 . S
C557 C556 1.400 1_554 S
C557 C558 1.398 . S
C558 H546 0.950 . S
C558 C557 1.398 . S
C558 C559 1.391 . S
C559 H547 0.950 . S
C559 C555 1.393 . S
C559 C558 1.391 . S
H560 C568 0.950 . S
H561 C573 0.950 . S
H562 C570 0.950 . S
H563 C572 0.950 . S
H564 C574 0.950 . S
H565 C576 0.950 . S
H566 C578 0.950 . S
H567 C579 0.950 . S
C568 H560 0.950 . S
C568 C569 1.386 . S
C568 C570 1.391 . S
C569 C568 1.386 . S
C569 C573 1.393 1_554 S
C570 H562 0.950 . S
C570 C568 1.391 . S
C570 C571 1.400 . S
C571 C570 1.400 . S
C571 C572 1.398 1_554 S
C571 C577 1.491 . S
C572 H563 0.950 . S
C572 C571 1.398 1_556 S
C572 C573 1.391 . S
C573 H561 0.950 . S
C573 C569 1.393 1_556 S
C573 C572 1.391 . S
C574 H564 0.950 . S
C574 C575 1.386 1_556 S
C574 C576 1.391 1_545 S
C575 C574 1.386 1_554 S
C575 C579 1.393 . S
C576 H565 0.950 . S
C576 C574 1.391 1_565 S
C576 C577 1.400 1_556 S
C577 C571 1.491 . S
C577 C576 1.400 1_554 S
C577 C578 1.398 . S
C578 H566 0.950 . S
C578 C577 1.398 . S
C578 C579 1.391 1_565 S
C579 H567 0.950 . S
C579 C575 1.393 . S
C579 C578 1.391 1_545 S
H580 C588 0.950 . S
H581 C593 0.950 . S
H582 C590 0.950 . S
H583 C592 0.950 . S
H584 C594 0.950 . S
H585 C596 0.950 . S
H586 C598 0.950 . S
H587 C599 0.950 . S
C588 H580 0.950 . S
C588 C589 1.386 1_556 S
C588 C590 1.391 . S
C589 C588 1.386 1_554 S
C589 C593 1.393 . S
C590 H582 0.950 . S
C590 C588 1.391 . S
C590 C591 1.400 1_556 S
C591 C590 1.400 1_554 S
C591 C592 1.398 . S
C591 C597 1.491 . S
C592 H583 0.950 . S
C592 C591 1.398 . S
C592 C593 1.391 . S
C593 H581 0.950 . S
C593 C589 1.393 . S
C593 C592 1.391 . S
C594 H584 0.950 . S
C594 C595 1.386 . S
C594 C596 1.391 . S
C595 C594 1.386 . S
C595 C599 1.393 1_554 S
C596 H585 0.950 . S
C596 C594 1.391 . S
C596 C597 1.400 . S
C597 C591 1.491 . S
C597 C596 1.400 . S
C597 C598 1.398 1_554 S
C598 H586 0.950 . S
C598 C597 1.398 1_556 S
C598 C599 1.391 . S
C599 H587 0.950 . S
C599 C595 1.393 1_556 S
C599 C598 1.391 . S
H600 C608 0.950 . S
H601 C613 0.950 . S
H602 C610 0.950 . S
H603 C612 0.950 . S
H604 C614 0.950 . S
H605 C616 0.950 . S
H606 C618 0.950 . S
H607 C619 0.950 . S
C608 H600 0.950 . S
C608 C609 1.386 . S
C608 C610 1.391 . S
C609 C608 1.386 . S
C609 C613 1.393 . S
C610 H602 0.950 . S
C610 C608 1.391 . S
C610 C611 1.400 . S
C611 C610 1.400 . S
C611 C612 1.398 . S
C611 C617 1.491 . S
C612 H603 0.950 . S
C612 C611 1.398 . S
C612 C613 1.391 . S
C613 H601 0.950 . S
C613 C609 1.393 . S
C613 C612 1.391 . S
C614 H604 0.950 . S
C614 C615 1.386 . S
C614 C616 1.391 . S
C615 C614 1.386 . S
C615 C619 1.393 . S
C616 H605 0.950 . S
C616 C614 1.391 . S
C616 C617 1.400 . S
C617 C611 1.491 . S
C617 C616 1.400 . S
C617 C618 1.398 . S
C618 H606 0.950 . S
C618 C617 1.398 . S
C618 C619 1.391 . S
C619 H607 0.950 . S
C619 C615 1.393 . S
C619 C618 1.391 . S
H620 C628 0.950 . S
H621 C633 0.950 . S
H622 C630 0.950 . S
H623 C632 0.950 . S
H624 C634 0.950 . S
H625 C636 0.950 . S
H626 C638 0.950 . S
H627 C639 0.950 . S
C628 H620 0.950 . S
C628 C629 1.386 . S
C628 C630 1.391 . S
C629 C628 1.386 . S
C629 C633 1.393 . S
C630 H622 0.950 . S
C630 C628 1.391 . S
C630 C631 1.400 . S
C631 C630 1.400 . S
C631 C632 1.398 . S
C631 C637 1.491 . S
C632 H623 0.950 . S
C632 C631 1.398 . S
C632 C633 1.391 . S
C633 H621 0.950 . S
C633 C629 1.393 . S
C633 C632 1.391 . S
C634 H624 0.950 . S
C634 C635 1.386 . S
C634 C636 1.391 . S
C635 C634 1.386 . S
C635 C639 1.393 . S
C636 H625 0.950 . S
C636 C634 1.391 . S
C636 C637 1.400 . S
C637 C631 1.491 . S
C637 C636 1.400 . S
C637 C638 1.398 . S
C638 H626 0.950 . S
C638 C637 1.398 . S
C638 C639 1.391 . S
C639 H627 0.950 . S
C639 C635 1.393 . S
C639 C638 1.391 . S
H640 C648 0.950 . S
H641 C653 0.950 . S
H642 C650 0.950 . S
H643 C652 0.950 . S
H644 C654 0.950 . S
H645 C656 0.950 . S
H646 C658 0.950 . S
H647 C659 0.950 . S
C648 H640 0.950 . S
C648 C649 1.386 . S
C648 C650 1.391 . S
C649 C648 1.386 . S
C649 C653 1.393 . S
C650 H642 0.950 . S
C650 C648 1.391 . S
C650 C651 1.400 . S
C651 C650 1.400 . S
C651 C652 1.398 . S
C651 C657 1.491 . S
C652 H643 0.950 . S
C652 C651 1.398 . S
C652 C653 1.391 . S
C653 H641 0.950 . S
C653 C649 1.393 . S
C653 C652 1.391 . S
C654 H644 0.950 . S
C654 C655 1.386 . S
C654 C656 1.391 . S
C655 C654 1.386 . S
C655 C659 1.393 . S
C656 H645 0.950 . S
C656 C654 1.391 . S
C656 C657 1.400 . S
C657 C651 1.491 . S
C657 C656 1.400 . S
C657 C658 1.398 . S
C658 H646 0.950 . S
C658 C657 1.398 . S
C658 C659 1.391 . S
C659 H647 0.950 . S
C659 C655 1.393 . S
C659 C658 1.391 . S
H660 C668 0.950 . S
H661 C673 0.950 . S
H662 C670 0.950 . S
H663 C672 0.950 . S
H664 C674 0.950 . S
H665 C676 0.950 . S
H666 C678 0.950 . S
H667 C679 0.950 . S
C668 H660 0.950 . S
C668 C669 1.386 . S
C668 C670 1.391 . S
C669 C668 1.386 . S
C669 C673 1.393 . S
C670 H662 0.950 . S
C670 C668 1.391 . S
C670 C671 1.400 . S
C671 C670 1.400 . S
C671 C672 1.398 . S
C671 C677 1.491 . S
C672 H663 0.950 . S
C672 C671 1.398 . S
C672 C673 1.391 . S
C673 H661 0.950 . S
C673 C669 1.393 . S
C673 C672 1.391 . S
C674 H664 0.950 . S
C674 C675 1.386 . S
C674 C676 1.391 . S
C675 C674 1.386 . S
C675 C679 1.393 . S
C676 H665 0.950 . S
C676 C674 1.391 . S
C676 C677 1.400 . S
C677 C671 1.491 . S
C677 C676 1.400 . S
C677 C678 1.398 . S
C678 H666 0.950 . S
C678 C677 1.398 . S
C678 C679 1.391 . S
C679 H667 0.950 . S
C679 C675 1.393 . S
C679 C678 1.391 . S
H680 C688 0.950 . S
H681 C693 0.950 . S
H682 C690 0.950 . S
H683 C692 0.950 . S
H684 C694 0.950 . S
H685 C696 0.950 . S
H686 C698 0.950 . S
H687 C699 0.950 . S
C688 H680 0.950 . S
C688 C689 1.386 . S
C688 C690 1.391 . S
C689 C688 1.386 . S
C689 C693 1.393 . S
C690 H682 0.950 . S
C690 C688 1.391 . S
C690 C691 1.400 . S
C691 C690 1.400 . S
C691 C692 1.398 . S
C691 C697 1.491 . S
C692 H683 0.950 . S
C692 C691 1.398 . S
C692 C693 1.391 . S
C693 H681 0.950 . S
C693 C689 1.393 . S
C693 C692 1.391 . S
C694 H684 0.950 . S
C694 C695 1.386 . S
C694 C696 1.391 . S
C695 C694 1.386 . S
C695 C699 1.393 . S
C696 H685 0.950 . S
C696 C694 1.391 . S
C696 C697 1.400 . S
C697 C691 1.491 . S
C697 C696 1.400 . S
C697 C698 1.398 . S
C698 H686 0.950 . S
C698 C697 1.398 . S
C698 C699 1.391 . S
C699 H687 0.950 . S
C699 C695 1.393 . S
C699 C698 1.391 . S
H700 C708 0.950 . S
H701 C713 0.950 . S
H702 C710 0.950 . S
H703 C712 0.950 . S
H704 C714 0.950 . S
H705 C716 0.950 . S
H706 C718 0.950 . S
H707 C719 0.950 . S
C708 H700 0.950 . S
C708 C709 1.386 . S
C708 C710 1.391 . S
C709 C708 1.386 . S
C709 C713 1.393 . S
C710 H702 0.950 . S
C710 C708 1.391 . S
C710 C711 1.400 . S
C711 C710 1.400 . S
C711 C712 1.398 . S
C711 C717 1.491 . S
C712 H703 0.950 . S
C712 C711 1.398 . S
C712 C713 1.391 . S
C713 H701 0.950 . S
C713 C709 1.393 . S
C713 C712 1.391 . S
C714 H704 0.950 . S
C714 C715 1.386 . S
C714 C716 1.391 . S
C715 C714 1.386 . S
C715 C719 1.393 . S
C716 H705 0.950 . S
C716 C714 1.391 . S
C716 C717 1.400 . S
C717 C711 1.491 . S
C717 C716 1.400 . S
C717 C718 1.398 . S
C718 H706 0.950 . S
C718 C717 1.398 . S
C718 C719 1.391 . S
C719 H707 0.950 . S
C719 C715 1.393 . S
C719 C718 1.391 . S
H720 C728 0.950 . S
H721 C733 0.950 . S
H722 C730 0.950 . S
H723 C732 0.950 . S
H724 C734 0.950 . S
H725 C736 0.950 . S
H726 C738 0.950 . S
H727 C739 0.950 . S
C728 H720 0.950 . S
C728 C729 1.386 . S
C728 C730 1.391 . S
C729 C728 1.386 . S
C729 C733 1.393 1_455 S
C730 H722 0.950 . S
C730 C728 1.391 . S
C730 C731 1.400 . S
C731 C730 1.400 . S
C731 C732 1.398 1_455 S
C731 C737 1.491 . S
C732 H723 0.950 . S
C732 C731 1.398 1_655 S
C732 C733 1.391 . S
C733 H721 0.950 . S
C733 C729 1.393 1_655 S
C733 C732 1.391 . S
C734 H724 0.950 . S
C734 C735 1.386 1_655 S
C734 C736 1.391 . S
C735 C734 1.386 1_455 S
C735 C739 1.393 . S
C736 H725 0.950 . S
C736 C734 1.391 . S
C736 C737 1.400 1_655 S
C737 C731 1.491 . S
C737 C736 1.400 1_455 S
C737 C738 1.398 . S
C738 H726 0.950 . S
C738 C737 1.398 . S
C738 C739 1.391 . S
C739 H727 0.950 . S
C739 C735 1.393 . S
C739 C738 1.391 . S
H740 C748 0.950 . S
H741 C753 0.950 . S
H742 C750 0.950 . S
H743 C752 0.950 . S
H744 C754 0.950 . S
H745 C756 0.950 . S
H746 C758 0.950 . S
H747 C759 0.950 . S
C748 H740 0.950 . S
C748 C749 1.386 . S
C748 C750 1.391 . S
C749 C748 1.386 . S
C749 C753 1.393 . S
C750 H742 0.950 . S
C750 C748 1.391 . S
C750 C751 1.400 . S
C751 C750 1.400 . S
C751 C752 1.398 . S
C751 C757 1.491 . S
C752 H743 0.950 . S
C752 C751 1.398 . S
C752 C753 1.391 . S
C753 H741 0.950 . S
C753 C749 1.393 . S
C753 C752 1.391 . S
C754 H744 0.950 . S
C754 C755 1.386 . S
C754 C756 1.391 . S
C755 C754 1.386 . S
C755 C759 1.393 . S
C756 H745 0.950 . S
C756 C754 1.391 . S
C756 C757 1.400 . S
C757 C751 1.491 . S
C757 C756 1.400 . S
C757 C758 1.398 . S
C758 H746 0.950 . S
C758 C757 1.398 . S
C758 C759 1.391 . S
C759 H747 0.950 . S
C759 C755 1.393 . S
C759 C758 1.391 . S
H760 C768 0.950 . S
H761 C773 0.950 . S
H762 C770 0.950 . S
H763 C772 0.950 . S
H764 C774 0.950 . S
H765 C776 0.950 . S
H766 C778 0.950 . S
H767 C779 0.950 . S
C768 H760 0.950 . S
C768 C769 1.386 . S
C768 C770 1.391 . S
C769 C768 1.386 . S
C769 C773 1.393 . S
C770 H762 0.950 . S
C770 C768 1.391 . S
C770 C771 1.400 . S
C771 C770 1.400 . S
C771 C772 1.398 . S
C771 C777 1.491 . S
C772 H763 0.950 . S
C772 C771 1.398 . S
C772 C773 1.391 . S
C773 H761 0.950 . S
C773 C769 1.393 . S
C773 C772 1.391 . S
C774 H764 0.950 . S
C774 C775 1.386 . S
C774 C776 1.391 . S
C775 C774 1.386 . S
C775 C779 1.393 . S
C776 H765 0.950 . S
C776 C774 1.391 . S
C776 C777 1.400 . S
C777 C771 1.491 . S
C777 C776 1.400 . S
C777 C778 1.398 . S
C778 H766 0.950 . S
C778 C777 1.398 . S
C778 C779 1.391 . S
C779 H767 0.950 . S
C779 C775 1.393 . S
C779 C778 1.391 . S
H780 C788 0.950 . S
H781 C793 0.950 . S
H782 C790 0.950 . S
H783 C792 0.950 . S
H784 C794 0.950 . S
H785 C796 0.950 . S
H786 C798 0.950 . S
H787 C799 0.950 . S
C788 H780 0.950 . S
C788 C789 1.386 . S
C788 C790 1.391 . S
C789 C788 1.386 . S
C789 C793 1.393 . S
C790 H782 0.950 . S
C790 C788 1.391 . S
C790 C791 1.400 . S
C791 C790 1.400 . S
C791 C792 1.398 . S
C791 C797 1.491 . S
C792 H783 0.950 . S
C792 C791 1.398 . S
C792 C793 1.391 . S
C793 H781 0.950 . S
C793 C789 1.393 . S
C793 C792 1.391 . S
C794 H784 0.950 . S
C794 C795 1.386 . S
C794 C796 1.391 1_554 S
C795 C794 1.386 . S
C795 C799 1.393 . S
C796 H785 0.950 . S
C796 C794 1.391 1_556 S
C796 C797 1.400 . S
C797 C791 1.491 . S
C797 C796 1.400 . S
C797 C798 1.398 . S
C798 H786 0.950 . S
C798 C797 1.398 . S
C798 C799 1.391 1_556 S
C799 H787 0.950 . S
C799 C795 1.393 . S
C799 C798 1.391 1_554 S
H800 C808 0.950 . S
H801 C813 0.950 . S
H802 C810 0.950 . S
H803 C812 0.950 . S
H804 C814 0.950 . S
H805 C816 0.950 . S
H806 C818 0.950 . S
H807 C819 0.950 . S
C808 H800 0.950 . S
C808 C809 1.386 . S
C808 C810 1.391 . S
C809 C808 1.386 . S
C809 C813 1.393 . S
C810 H802 0.950 . S
C810 C808 1.391 . S
C810 C811 1.400 . S
C811 C810 1.400 . S
C811 C812 1.398 . S
C811 C817 1.491 . S
C812 H803 0.950 . S
C812 C811 1.398 . S
C812 C813 1.391 . S
C813 H801 0.950 . S
C813 C809 1.393 . S
C813 C812 1.391 . S
C814 H804 0.950 . S
C814 C815 1.386 . S
C814 C816 1.391 1_554 S
C815 C814 1.386 . S
C815 C819 1.393 . S
C816 H805 0.950 . S
C816 C814 1.391 1_556 S
C816 C817 1.400 . S
C817 C811 1.491 . S
C817 C816 1.400 . S
C817 C818 1.398 . S
C818 H806 0.950 . S
C818 C817 1.398 . S
C818 C819 1.391 1_556 S
C819 H807 0.950 . S
C819 C815 1.393 . S
C819 C818 1.391 1_554 S
H820 C828 0.950 . S
H821 C833 0.950 . S
H822 C830 0.950 . S
H823 C832 0.950 . S
H824 C834 0.950 . S
H825 C836 0.950 . S
H826 C838 0.950 . S
H827 C839 0.950 . S
C828 H820 0.950 . S
C828 C829 1.386 . S
C828 C830 1.391 . S
C829 C828 1.386 . S
C829 C833 1.393 . S
C830 H822 0.950 . S
C830 C828 1.391 . S
C830 C831 1.400 . S
C831 C830 1.400 . S
C831 C832 1.398 . S
C831 C837 1.491 . S
C832 H823 0.950 . S
C832 C831 1.398 . S
C832 C833 1.391 . S
C833 H821 0.950 . S
C833 C829 1.393 . S
C833 C832 1.391 . S
C834 H824 0.950 . S
C834 C835 1.386 . S
C834 C836 1.391 1_554 S
C835 C834 1.386 . S
C835 C839 1.393 . S
C836 H825 0.950 . S
C836 C834 1.391 1_556 S
C836 C837 1.400 . S
C837 C831 1.491 . S
C837 C836 1.400 . S
C837 C838 1.398 . S
C838 H826 0.950 . S
C838 C837 1.398 . S
C838 C839 1.391 1_556 S
C839 H827 0.950 . S
C839 C835 1.393 . S
C839 C838 1.391 1_554 S
H840 C848 0.950 . S
H841 C853 0.950 . S
H842 C850 0.950 . S
H843 C852 0.950 . S
H844 C854 0.950 . S
H845 C856 0.950 . S
H846 C858 0.950 . S
H847 C859 0.950 . S
C848 H840 0.950 . S
C848 C849 1.386 . S
C848 C850 1.391 . S
C849 C848 1.386 . S
C849 C853 1.393 . S
C850 H842 0.950 . S
C850 C848 1.391 . S
C850 C851 1.400 . S
C851 C850 1.400 . S
C851 C852 1.398 . S
C851 C857 1.491 . S
C852 H843 0.950 . S
C852 C851 1.398 . S
C852 C853 1.391 . S
C853 H841 0.950 . S
C853 C849 1.393 . S
C853 C852 1.391 . S
C854 H844 0.950 . S
C854 C855 1.386 . S
C854 C856 1.391 1_556 S
C855 C854 1.386 . S
C855 C859 1.393 . S
C856 H845 0.950 . S
C856 C854 1.391 1_554 S
C856 C857 1.400 . S
C857 C851 1.491 . S
C857 C856 1.400 . S
C857 C858 1.398 . S
C858 H846 0.950 . S
C858 C857 1.398 . S
C858 C859 1.391 1_554 S
C859 H847 0.950 . S
C859 C855 1.393 . S
C859 C858 1.391 1_556 S
H860 C868 0.950 . S
H861 C873 0.950 . S
H862 C870 0.950 . S
H863 C872 0.950 . S
H864 C874 0.950 . S
H865 C876 0.950 . S
H866 C878 0.950 . S
H867 C879 0.950 . S
C868 H860 0.950 . S
C868 C869 1.386 . S
C868 C870 1.391 1_556 S
C869 C868 1.386 . S
C869 C873 1.393 . S
C870 H862 0.950 . S
C870 C868 1.391 1_554 S
C870 C871 1.400 . S
C871 C870 1.400 . S
C871 C872 1.398 . S
C871 C877 1.491 . S
C872 H863 0.950 . S
C872 C871 1.398 . S
C872 C873 1.391 1_554 S
C873 H861 0.950 . S
C873 C869 1.393 . S
C873 C872 1.391 1_556 S
C874 H864 0.950 . S
C874 C875 1.386 . S
C874 C876 1.391 . S
C875 C874 1.386 . S
C875 C879 1.393 . S
C876 H865 0.950 . S
C876 C874 1.391 . S
C876 C877 1.400 . S
C877 C871 1.491 . S
C877 C876 1.400 . S
C877 C878 1.398 . S
C878 H866 0.950 . S
C878 C877 1.398 . S
C878 C879 1.391 . S
C879 H867 0.950 . S
C879 C875 1.393 . S
C879 C878 1.391 . S
H880 C888 0.950 . S
H881 C893 0.950 . S
H882 C890 0.950 . S
H883 C892 0.950 . S
H884 C894 0.950 . S
H885 C896 0.950 . S
H886 C898 0.950 . S
H887 C899 0.950 . S
C888 H880 0.950 . S
C888 C889 1.386 . S
C888 C890 1.391 . S
C889 C888 1.386 . S
C889 C893 1.393 . S
C890 H882 0.950 . S
C890 C888 1.391 . S
C890 C891 1.400 . S
C891 C890 1.400 . S
C891 C892 1.398 . S
C891 C897 1.491 . S
C892 H883 0.950 . S
C892 C891 1.398 . S
C892 C893 1.391 . S
C893 H881 0.950 . S
C893 C889 1.393 . S
C893 C892 1.391 . S
C894 H884 0.950 . S
C894 C895 1.386 . S
C894 C896 1.391 1_556 S
C895 C894 1.386 . S
C895 C899 1.393 . S
C896 H885 0.950 . S
C896 C894 1.391 1_554 S
C896 C897 1.400 . S
C897 C891 1.491 . S
C897 C896 1.400 . S
C897 C898 1.398 . S
C898 H886 0.950 . S
C898 C897 1.398 . S
C898 C899 1.391 1_554 S
C899 H887 0.950 . S
C899 C895 1.393 . S
C899 C898 1.391 1_556 S
C369 C7 1.896 . S
C375 C282 1.861 . S
C389 C47 1.910 . S
C395 C322 1.878 . S
C409 C87 1.907 . S
C415 C242 1.867 . S
C429 C167 1.896 . S
C435 C82 1.858 . S
C449 C207 1.910 . S
C455 C2 1.872 . S
C469 C42 1.877 . S
C475 C127 1.911 . S
C489 C287 1.911 . S
C495 C202 1.875 . S
C509 C327 1.903 . S
C515 C122 1.862 . S
C529 C162 1.861 . S
C535 C247 1.902 1_545 S
C549 C96 1.704 . S
C555 C11 1.718 1_554 S
C569 C51 1.716 1_554 S
C575 C16 1.708 . S
C589 C56 1.712 1_455 S
C595 C91 1.713 1_554 S
C609 C131 1.714 . S
C615 C216 1.713 . S
C629 C136 1.712 . S
C635 C171 1.714 . S
C649 C176 1.704 . S
C655 C211 1.717 . S
C669 C336 1.708 . S
C675 C251 1.715 . S
C689 C291 1.713 . S
C695 C256 1.712 . S
C709 C331 1.714 . S
C715 C296 1.711 . S
C729 C19 0.966 . S
C735 C10 0.966 . S
C749 C59 0.973 . S
C755 C50 0.973 . S
C769 C99 0.975 . S
C775 C90 0.975 . S
C789 C130 0.970 . S
C795 C139 0.970 . S
C809 C170 0.982 . S
C815 C179 0.982 . S
C829 C210 0.981 . S
C835 C219 0.981 . S
C849 C259 0.967 . S
C855 C250 0.967 . S
C869 C290 0.984 . S
C875 C299 0.984 . S
C889 C339 0.991 . S
C895 C330 0.991 . S
