# Generated by pormake.
# Topology sxa, (6)-cn, num edge types: 1
# Building blocks:
#     Node 0, Type 0, BuildingBlock: LEVNOQ01_clean_sbu_1, # of connection points: 6
#     Node 1, Type 0, BuildingBlock: LEVNOQ01_clean_sbu_1, # of connection points: 6
#     Node 2, Type 0, BuildingBlock: LEVNOQ01_clean_sbu_1, # of connection points: 6
#     Node 3, Type 0, BuildingBlock: LEVNOQ01_clean_sbu_1, # of connection points: 6
#     Edge 4, Type (0, 0), BuildingBlock: MIFKUJ_clean_linker_0, # of connection points: 2
#     Edge 5, Type (0, 0), BuildingBlock: MIFKUJ_clean_linker_0, # of connection points: 2
#     Edge 6, Type (0, 0), BuildingBlock: MIFKUJ_clean_linker_0, # of connection points: 2
#     Edge 7, Type (0, 0), BuildingBlock: MIFKUJ_clean_linker_0, # of connection points: 2
#     Edge 8, Type (0, 0), BuildingBlock: MIFKUJ_clean_linker_0, # of connection points: 2
#     Edge 9, Type (0, 0), BuildingBlock: MIFKUJ_clean_linker_0, # of connection points: 2
#     Edge 10, Type (0, 0), BuildingBlock: MIFKUJ_clean_linker_0, # of connection points: 2
#     Edge 11, Type (0, 0), BuildingBlock: MIFKUJ_clean_linker_0, # of connection points: 2
#     Edge 12, Type (0, 0), BuildingBlock: MIFKUJ_clean_linker_0, # of connection points: 2
#     Edge 13, Type (0, 0), BuildingBlock: MIFKUJ_clean_linker_0, # of connection points: 2
#     Edge 14, Type (0, 0), BuildingBlock: MIFKUJ_clean_linker_0, # of connection points: 2
#     Edge 15, Type (0, 0), BuildingBlock: MIFKUJ_clean_linker_0, # of connection points: 2
# Relax obj value: 0.189
# Max RMSD: 0.231
# Mean RMSD: 0.231
data_MOF--net-sxa--node1-LEVNOQ01_clean_sbu_1--edge1-MIFKUJ_clean_linker_0
_symmetry_space_group_name_H-M    P1
_symmetry_Int_Tables_number       1
_symmetry_cell_setting            triclinic
loop_
_symmetry_equiv_pos_as_xyz
'x, y, z'
_cell_length_a     32.718152
_cell_length_b     37.708495
_cell_length_c     20.333712
_cell_angle_alpha  90.002449
_cell_angle_beta   89.958168
_cell_angle_gamma 89.80716
loop_
_atom_site_label
_atom_site_type_symbol
_atom_site_fract_x
_atom_site_fract_y
_atom_site_fract_z
_atom_type_partial_charge
O0 O 0.06989 0.72504 0.0597 0.0
Mg1 Mg 0.05561 0.71017 0.15697 0.0
O2 O 0.04036 0.7721 0.10044 0.0
Mg3 Mg -0.00302 0.75938 0.18635 0.0
O4 O -0.00361 0.69458 0.17696 0.0
O5 O 0.04982 0.65757 0.16301 0.0
O6 O 0.94833 0.74958 0.274 0.0
O7 O 0.94742 0.75149 0.10689 0.0
Mg8 Mg 0.93524 0.81518 0.18929 0.0
O9 O -0.00334 0.82372 0.17841 0.0
O10 O 0.91231 0.79892 0.27977 0.0
O11 O 0.90521 0.79684 0.10373 0.0
O12 O 0.94945 0.86703 0.1884 0.0
C13 C 0.08622 0.751 0.27169 0.0
C14 C 0.06199 0.75769 0.05599 0.0
C15 C 0.01104 0.66229 0.17006 0.0
C16 C 0.92038 0.76836 0.3016 0.0
C17 C 0.917 0.76728 0.08106 0.0
C18 C 0.98676 0.85753 0.17768 0.0
O19 O 0.09567 0.72717 0.23074 0.0
O20 O 0.05091 0.76587 0.26776 0.0
O21 O 0.55279 0.2479 0.05304 0.0
Mg22 Mg 0.54526 0.22711 0.14905 0.0
O23 O 0.52586 0.29055 0.11037 0.0
Mg24 Mg 0.48738 0.27145 0.19787 0.0
O25 O 0.48924 0.20685 0.17788 0.0
O26 O 0.5436 0.17439 0.14466 0.0
O27 O 0.44561 0.25603 0.29247 0.0
O28 O 0.43246 0.26664 0.12769 0.0
Mg29 Mg 0.4272 0.32601 0.23159 0.0
O30 O 0.48499 0.33551 0.19833 0.0
O31 O 0.42114 0.30709 0.3275 0.0
O32 O 0.38721 0.3071 0.15693 0.0
O33 O 0.44083 0.37826 0.22764 0.0
C34 C 0.58076 0.262 0.26647 0.0
C35 C 0.54515 0.28043 0.05969 0.0
C36 C 0.50578 0.17615 0.16193 0.0
C37 C 0.42666 0.2743 0.33629 0.0
C38 C 0.39791 0.28161 0.11992 0.0
C39 C 0.47593 0.3693 0.20378 0.0
O40 O 0.58907 0.241 0.2199 0.0
O41 O 0.54504 0.2759 0.27009 0.0
O42 O 0.04504 0.29527 0.96075 0.0
Mg43 Mg 0.0387 0.30638 0.8604 0.0
O44 O 0.02844 0.24601 0.91254 0.0
Mg45 Mg 0.98811 0.26047 0.8204 0.0
O46 O 0.9837 0.32634 0.82866 0.0
O47 O 0.0389 0.35907 0.85371 0.0
O48 O 0.94344 0.26998 0.72695 0.0
O49 O 0.93541 0.26844 0.8948 0.0
Mg50 Mg 0.92985 0.20788 0.81938 0.0
O51 O 0.99122 0.19528 0.82283 0.0
O52 O 0.90248 0.22398 0.73204 0.0
O53 O 0.89897 0.22058 0.90736 0.0
O54 O 0.94008 0.15581 0.81367 0.0
C55 C 0.07998 0.26998 0.751 0.0
C56 C 0.04323 0.26199 0.96216 0.0
C57 C 0.00073 0.35738 0.83909 0.0
C58 C 0.91334 0.25218 0.70374 0.0
C59 C 0.90689 0.25203 0.92412 0.0
C60 C 0.97846 0.16225 0.82097 0.0
O61 O 0.08637 0.29096 0.79812 0.0
O62 O 0.04466 0.25582 0.74523 0.0
O63 O 0.4299 0.75156 0.94744 0.0
Mg64 Mg 0.44214 0.73037 0.85217 0.0
O65 O 0.45969 0.79142 0.88831 0.0
Mg66 Mg 0.50567 0.76902 0.81472 0.0
O67 O 0.49731 0.70477 0.83038 0.0
O68 O 0.43821 0.67752 0.85527 0.0
O69 O 0.55705 0.75416 0.73313 0.0
O70 O 0.55121 0.7587 0.8994 0.0
Mg71 Mg 0.57378 0.82238 0.81986 0.0
O72 O 0.51253 0.83203 0.82009 0.0
O73 O 0.59717 0.80119 0.73346 0.0
O74 O 0.59662 0.80117 0.90942 0.0
O75 O 0.55987 0.87482 0.81606 0.0
C76 C 0.41843 0.76837 0.72901 0.0
C77 C 0.43655 0.78386 0.93598 0.0
C78 C 0.47689 0.67566 0.84372 0.0
C79 C 0.58768 0.77136 0.70972 0.0
C80 C 0.5817 0.77207 0.92909 0.0
C81 C 0.52201 0.86574 0.82131 0.0
O82 O 0.40418 0.75043 0.77622 0.0
O83 O 0.45639 0.77676 0.72836 0.0
H84 H 0.92113 0.36721 0.88184 0.0
H85 H 0.8957 0.42104 0.93717 0.0
H86 H 0.00245 0.47769 0.87131 0.0
H87 H 0.02787 0.4243 0.81834 0.0
H88 H 0.93236 0.45127 0.03942 0.0
H89 H 0.9892 0.56428 0.86405 0.0
H90 H 0.98867 0.57779 0.74546 0.0
H91 H 0.88654 0.50814 0.71809 0.0
H92 H 0.88601 0.49459 0.83666 0.0
H93 H 0.0308 0.59308 0.1887 0.0
H94 H 0.00175 0.54256 0.13171 0.0
H95 H 0.90365 0.60848 0.05945 0.0
H96 H 0.93273 0.65957 0.11871 0.0
H97 H 0.94113 0.57516 0.95887 0.0
H98 H 0.8824 0.53699 0.15651 0.0
H99 H 0.87708 0.52395 0.27495 0.0
H100 H 0.9711 0.44482 0.25711 0.0
H101 H 0.97751 0.45774 0.13874 0.0
C102 C 0.93851 0.39136 0.87798 0.0
C103 C 0.97706 0.39102 0.84738 0.0
C104 C 0.92406 0.42221 0.90975 0.0
C105 C 0.9473 0.45364 0.9094 0.0
C106 C 0.98357 0.45416 0.8724 0.0
C107 C -0.00187 0.4234 0.84177 0.0
C108 C 0.93735 0.48442 0.95362 0.0
C109 C 0.93372 0.47835 0.02161 0.0
C110 C 0.93772 0.51998 0.9308 0.0
C111 C 0.93769 0.5283 0.85939 0.0
C112 C 0.96643 0.55202 0.83288 0.0
C113 C 0.96636 0.55964 0.76559 0.0
C114 C 0.93763 0.5438 0.72425 0.0
C115 C 0.90886 0.52033 0.75013 0.0
C116 C 0.90877 0.51262 0.81738 0.0
C117 C 0.0022 0.59675 0.16269 0.0
C118 C 0.98474 0.6308 0.1567 0.0
C119 C 0.98554 0.56763 0.12981 0.0
C120 C 0.95072 0.57151 0.09008 0.0
C121 C 0.93091 0.60477 0.08886 0.0
C122 C 0.94744 0.63401 0.12285 0.0
C123 C 0.93885 0.54185 0.04472 0.0
C124 C 0.93866 0.54813 0.97656 0.0
C125 C 0.9342 0.50652 0.06733 0.0
C126 C 0.93048 0.49842 0.13859 0.0
C127 C 0.90213 0.51694 0.17786 0.0
C128 C 0.8989 0.50955 0.24502 0.0
C129 C 0.92374 0.48357 0.27354 0.0
C130 C 0.95184 0.4649 0.23493 0.0
C131 C 0.95523 0.47221 0.16773 0.0
H132 H 0.9212 0.47789 0.32555 0.0
H133 H 0.93765 0.54973 0.67217 0.0
H134 H 0.47102 0.44023 0.22712 0.0
H135 H 0.49543 0.48804 0.15783 0.0
H136 H 0.56277 0.41268 0.0399 0.0
H137 H 0.53495 0.36416 0.10681 0.0
H138 H 0.55796 0.52043 0.11735 0.0
H139 H 0.56989 0.43897 0.88994 0.0
H140 H 0.5497 0.38028 0.84704 0.0
H141 H 0.4369 0.3864 0.95472 0.0
H142 H 0.45651 0.44514 0.99807 0.0
H143 H 0.55772 0.66022 0.87687 0.0
H144 H 0.58234 0.605 0.92855 0.0
H145 H 0.46483 0.55694 0.89374 0.0
H146 H 0.44094 0.61098 0.84207 0.0
H147 H 0.51778 0.50773 0.8836 0.0
H148 H 0.49701 0.60425 0.04404 0.0
H149 H 0.51354 0.66153 0.09621 0.0
H150 H 0.63659 0.6261 0.13023 0.0
H151 H 0.62093 0.56881 0.0772 0.0
C152 C 0.49154 0.43367 0.18706 0.0
C153 C 0.50074 0.39801 0.17236 0.0
C154 C 0.50578 0.46131 0.1473 0.0
C155 C 0.53015 0.4544 0.09177 0.0
C156 C 0.54291 0.41905 0.08085 0.0
C157 C 0.52778 0.39115 0.12008 0.0
C158 C 0.53763 0.48385 0.04299 0.0
C159 C 0.5497 0.51745 0.06599 0.0
C160 C 0.52764 0.48049 0.97541 0.0
C161 C 0.51462 0.44626 0.94705 0.0
C162 C 0.54062 0.42788 0.90381 0.0
C163 C 0.52937 0.39459 0.8797 0.0
C164 C 0.49204 0.37963 0.89814 0.0
C165 C 0.46578 0.39802 0.94046 0.0
C166 C 0.47692 0.43129 0.96477 0.0
C167 C 0.53758 0.63759 0.87908 0.0
C168 C 0.49698 0.64056 0.8567 0.0
C169 C 0.55155 0.60597 0.90913 0.0
C170 C 0.52514 0.57668 0.9172 0.0
C171 C 0.486 0.57883 0.88911 0.0
C172 C 0.47224 0.61008 0.85937 0.0
C173 C 0.53562 0.54484 0.95894 0.0
C174 C 0.52716 0.51067 0.93446 0.0
C175 C 0.54848 0.54784 0.02541 0.0
C176 C 0.55796 0.58249 0.05597 0.0
C177 C 0.52767 0.60882 0.06218 0.0
C178 C 0.53685 0.64123 0.09201 0.0
C179 C 0.57604 0.6474 0.1167 0.0
C180 C 0.6062 0.62122 0.11133 0.0
C181 C 0.59724 0.58885 0.08116 0.0
H182 H 0.5831 0.67252 0.13973 0.0
H183 H 0.48348 0.35378 0.87966 0.0
H184 H 0.47042 0.86415 0.9275 0.0
H185 H 0.44685 0.91641 0.98884 0.0
H186 H 0.48927 0.98392 0.83203 0.0
H187 H 0.51319 0.93192 0.77155 0.0
H188 H 0.52587 1.00066 0.94164 0.0
H189 H 0.38678 0.97894 0.87959 0.0
H190 H 0.32219 0.94591 0.8688 0.0
H191 H 0.31478 0.93549 0.07865 0.0
H192 H 0.37969 0.96791 0.09079 0.0
H193 H 0.43818 0.16621 0.0853 0.0
H194 H 0.42026 0.1101 0.03162 0.0
H195 H 0.50577 0.05498 0.15638 0.0
H196 H 0.52359 0.1109 0.2096 0.0
H197 H 0.39913 0.03369 0.06123 0.0
H198 H 0.57239 0.0155 0.05149 0.0
H199 H 0.63508 0.05124 0.06274 0.0
H200 H 0.57153 0.14273 0.9888 0.0
H201 H 0.50875 0.10736 0.976 0.0
C202 C 0.47259 0.88997 0.90452 0.0
C203 C 0.4933 0.8938 0.84422 0.0
C204 C 0.45948 0.92002 0.94007 0.0
C205 C 0.46667 0.95444 0.91572 0.0
C206 C 0.48361 0.95786 0.85245 0.0
C207 C 0.49689 0.928 0.81737 0.0
C208 C 0.46294 0.98659 0.95902 0.0
C209 C 0.49791 1.00771 0.96732 0.0
C210 C 0.42675 0.99612 0.99347 0.0
C211 C 0.38834 0.97568 0.98606 0.0
C212 C 0.37168 0.96924 0.92343 0.0
C213 C 0.33494 0.9507 0.91708 0.0
C214 C 0.31441 0.9387 0.97304 0.0
C215 C 0.33072 0.94487 0.0354 0.0
C216 C 0.36747 0.96334 0.04203 0.0
C217 C 0.45109 0.14188 0.10417 0.0
C218 C 0.48188 0.14309 0.15237 0.0
C219 C 0.44118 0.1097 0.07287 0.0
C220 C 0.46205 0.07823 0.08922 0.0
C221 C 0.48929 0.07881 0.14261 0.0
C222 C 0.49923 0.11086 0.17352 0.0
C223 C 0.46203 0.04708 0.0434 0.0
C224 C 0.42677 0.02631 0.03507 0.0
C225 C 0.49785 0.03767 0.00832 0.0
C226 C 0.53583 0.05887 0.01343 0.0
C227 C 0.57192 0.04319 0.03725 0.0
C228 C 0.60744 0.06338 0.04394 0.0
C229 C 0.60725 0.09926 0.02669 0.0
C230 C 0.57161 0.11496 0.00231 0.0
C231 C 0.53606 0.09486 0.99533 0.0
H232 H 0.63474 0.11487 0.03209 0.0
H233 H 0.28571 0.92484 0.96821 0.0
H234 H 0.02453 0.8594 0.05843 0.0
H235 H 0.04804 0.91271 0.00066 0.0
H236 H 0.02512 0.97467 0.17486 0.0
H237 H 0.00385 0.92109 0.23345 0.0
H238 H 0.97666 0.99171 0.06245 0.0
H239 H 0.11226 0.97346 0.1269 0.0
H240 H 0.17931 0.94503 0.14173 0.0
H241 H 0.20083 0.9497 0.9338 0.0
H242 H 0.13269 0.97611 0.91685 0.0
H243 H 0.05005 0.15994 0.89392 0.0
H244 H 0.07278 0.10807 0.95886 0.0
H245 H 0.99002 0.04185 0.84964 0.0
H246 H 0.96602 0.09326 0.78853 0.0
H247 H 0.10002 0.03304 0.94323 0.0
H248 H 0.92711 1.00429 0.9602 0.0
H249 H 0.86188 0.03695 0.95102 0.0
H250 H 0.9211 0.13272 0.01306 0.0
H251 H 0.98645 0.1005 0.02388 0.0
C252 C 0.0278 0.88378 0.08596 0.0
C253 C 0.0142 0.88556 0.15157 0.0
C254 C 0.04041 0.91454 0.05241 0.0
C255 C 0.03858 0.94787 0.08333 0.0
C256 C 0.0273 0.94932 0.15002 0.0
C257 C 0.01542 0.91857 0.18372 0.0
C258 C 0.04035 0.98133 0.04371 0.0
C259 C 0.0038 1.00057 0.03661 0.0
C260 C 0.07601 0.99357 0.01086 0.0
C261 C 0.11654 0.97616 0.02041 0.0
C262 C 0.13057 0.96752 0.08392 0.0
C263 C 0.16893 0.95178 0.09276 0.0
C264 C 0.19413 0.94521 0.03866 0.0
C265 C 0.18108 0.9545 0.97562 0.0
C266 C 0.1424 0.96963 0.96632 0.0
C267 C 0.03724 0.13423 0.8836 0.0
C268 C 0.00472 0.13118 0.83882 0.0
C269 C 0.05054 0.10447 0.92006 0.0
C270 C 0.03217 0.07113 0.91063 0.0
C271 C 0.00414 0.06732 0.85893 0.0
C272 C 0.99049 0.0969 0.82374 0.0
C273 C 0.036 0.04194 0.96033 0.0
C274 C 0.07319 0.02374 0.96927 0.0
C275 C 0.00127 0.03069 0.99626 0.0
C276 C 0.96173 0.05001 0.99228 0.0
C277 C 0.92613 0.03225 0.97235 0.0
C278 C 0.88914 0.0507 0.96681 0.0
C279 C 0.88737 0.0869 0.98128 0.0
C280 C 0.92253 0.1047 0.00172 0.0
C281 C 0.95954 0.08635 0.00756 0.0
H282 H 0.85874 0.10116 0.97675 0.0
H283 H 0.22388 0.93317 0.04567 0.0
H284 H 0.35275 0.81151 0.74377 0.0
H285 H 0.29604 0.82046 0.6671 0.0
H286 H 0.35841 0.75583 0.52317 0.0
H287 H 0.4163 0.74861 0.59909 0.0
H288 H 0.31864 0.80559 0.46155 0.0
H289 H 0.27943 0.72512 0.63904 0.0
H290 H 0.26842 0.71045 0.75599 0.0
H291 H 0.18205 0.79592 0.7731 0.0
H292 H 0.19319 0.81159 0.65661 0.0
H293 H 0.16513 0.72844 0.27543 0.0
H294 H 0.21863 0.7427 0.35272 0.0
H295 H 0.13595 0.81091 0.4593 0.0
H296 H 0.08086 0.79634 0.38069 0.0
H297 H 0.18176 0.77052 0.5436 0.0
H298 H 0.2117 0.84647 0.36651 0.0
H299 H 0.22323 0.86612 0.25241 0.0
H300 H 0.32579 0.79537 0.23604 0.0
H301 H 0.31438 0.77466 0.34961 0.0
C302 C 0.35487 0.80015 0.69493 0.0
C303 C 0.38923 0.77977 0.67708 0.0
C304 C 0.32205 0.80479 0.65134 0.0
C305 C 0.32192 0.78793 0.58957 0.0
C306 C 0.3573 0.76902 0.57046 0.0
C307 C 0.39062 0.76504 0.61369 0.0
C308 C 0.28455 0.78847 0.54621 0.0
C309 C 0.28886 0.79754 0.47949 0.0
C310 C 0.24486 0.7797 0.56972 0.0
C311 C 0.23742 0.76969 0.63927 0.0
C312 C 0.25821 0.74086 0.66783 0.0
C313 C 0.25201 0.73243 0.73407 0.0
C314 C 0.22471 0.75237 0.77204 0.0
C315 C 0.20334 0.78063 0.74372 0.0
C316 C 0.20958 0.78929 0.6776 0.0
C317 C 0.15777 0.74658 0.31504 0.0
C318 C 0.11815 0.76117 0.3213 0.0
C319 C 0.1889 0.75493 0.35929 0.0
C320 C 0.18194 0.77837 0.41166 0.0
C321 C 0.14235 0.79289 0.4191 0.0
C322 C 0.11082 0.78461 0.37405 0.0
C323 C 0.21629 0.78635 0.45847 0.0
C324 C 0.21145 0.7789 0.52575 0.0
C325 C 0.25541 0.79707 0.43569 0.0
C326 C 0.26199 0.80884 0.36667 0.0
C327 C 0.23645 0.83479 0.33842 0.0
C328 C 0.24301 0.84616 0.27383 0.0
C329 C 0.27523 0.83201 0.23703 0.0
C330 C 0.30085 0.80632 0.26465 0.0
C331 C 0.29435 0.79475 0.32915 0.0
H332 H 0.28036 0.84095 0.18712 0.0
H333 H 0.22004 0.74586 0.82335 0.0
H334 H 0.08936 0.21702 0.65603 0.0
H335 H 0.14983 0.20672 0.58546 0.0
H336 H 0.20929 0.29683 0.67362 0.0
H337 H 0.15018 0.30736 0.74222 0.0
H338 H 0.21545 0.29991 0.54463 0.0
H339 H 0.23941 0.21291 0.71431 0.0
H340 H 0.22227 0.16103 0.78262 0.0
H341 H 0.21177 0.09667 0.60924 0.0
H342 H 0.22924 0.14824 0.53987 0.0
H343 H 0.41596 0.30226 0.45782 0.0
H344 H 0.35939 0.28971 0.5321 0.0
H345 H 0.32579 0.1997 0.41339 0.0
H346 H 0.38522 0.21052 0.34191 0.0
H347 H 0.30111 0.19106 0.54423 0.0
H348 H 0.28835 0.28244 0.37893 0.0
H349 H 0.31098 0.33645 0.32033 0.0
H350 H 0.30074 0.39633 0.49913 0.0
H351 H 0.27935 0.34252 0.55877 0.0
C352 C 0.11525 0.23471 0.65973 0.0
C353 C 0.11458 0.26315 0.70466 0.0
C354 C 0.14996 0.22862 0.6199 0.0
C355 C 0.18432 0.251 0.6242 0.0
C356 C 0.18332 0.27924 0.66891 0.0
C357 C 0.1492 0.28519 0.70838 0.0
C358 C 0.22127 0.24666 0.58153 0.0
C359 C 0.23414 0.27608 0.54482 0.0
C360 C 0.24554 0.21547 0.58061 0.0
C361 C 0.23514 0.18446 0.62192 0.0
C362 C 0.23319 0.18774 0.69075 0.0
C363 C 0.22351 0.15839 0.72966 0.0
C364 C 0.21559 0.12563 0.70027 0.0
C365 C 0.21776 0.12209 0.63191 0.0
C366 C 0.22772 0.15133 0.59279 0.0
C367 C 0.39771 0.2788 0.4491 0.0
C368 C 0.40414 0.25813 0.3924 0.0
C369 C 0.36497 0.27186 0.4913 0.0
C370 C 0.33694 0.24484 0.47663 0.0
C371 C 0.34635 0.22125 0.42507 0.0
C372 C 0.38026 0.22753 0.38392 0.0
C373 C 0.29583 0.24483 0.50923 0.0
C374 C 0.28209 0.21467 0.54343 0.0
C375 C 0.27089 0.27574 0.50925 0.0
C376 C 0.28257 0.3084 0.47312 0.0
C377 C 0.29117 0.30713 0.40549 0.0
C378 C 0.30379 0.33766 0.37223 0.0
C379 C 0.30723 0.36977 0.40597 0.0
C380 C 0.29807 0.37143 0.47303 0.0
C381 C 0.28576 0.34091 0.50657 0.0
H382 H 0.31698 0.39338 0.38016 0.0
H383 H 0.20793 0.10297 0.73049 0.0
H384 H 0.90278 0.32029 0.65298 0.0
H385 H 0.85 0.33928 0.57336 0.0
H386 H 0.81075 0.23092 0.55262 0.0
H387 H 0.86342 0.21181 0.62889 0.0
H388 H 0.82519 0.28474 0.42649 0.0
H389 H 0.70569 0.27169 0.6327 0.0
H390 H 0.69069 0.29294 0.74513 0.0
H391 H 0.76858 0.38284 0.71458 0.0
H392 H 0.78311 0.36264 0.60165 0.0
H393 H 0.64687 0.22119 0.29371 0.0
H394 H 0.70549 0.23492 0.36195 0.0
H395 H 0.65062 0.33498 0.4156 0.0
H396 H 0.5905 0.32079 0.34737 0.0
H397 H 0.68732 0.30797 0.51914 0.0
H398 H 0.73125 0.33185 0.30501 0.0
H399 H 0.74133 0.32372 0.18577 0.0
H400 H 0.81512 0.23144 0.22225 0.0
H401 H 0.805 0.23866 0.34171 0.0
C402 C 0.88352 0.30051 0.63014 0.0
C403 C 0.88746 0.26451 0.64763 0.0
C404 C 0.85292 0.31144 0.58548 0.0
C405 C 0.82567 0.28656 0.5583 0.0
C406 C 0.83097 0.25065 0.57349 0.0
C407 C 0.86139 0.23978 0.61714 0.0
C408 C 0.79109 0.2966 0.51419 0.0
C409 C 0.79511 0.2904 0.44642 0.0
C410 C 0.75198 0.30497 0.5397 0.0
C411 C 0.7461 0.31529 0.60926 0.0
C412 C 0.71986 0.29582 0.65027 0.0
C413 C 0.71118 0.30783 0.71384 0.0
C414 C 0.72854 0.33931 0.73676 0.0
C415 C 0.75518 0.35848 0.6967 0.0
C416 C 0.76377 0.34668 0.63303 0.0
C417 C 0.64695 0.24615 0.32009 0.0
C418 C 0.61394 0.27001 0.31449 0.0
C419 C 0.68086 0.25412 0.35887 0.0
C420 C 0.68338 0.2865 0.39261 0.0
C421 C 0.64977 0.30997 0.38948 0.0
C422 C 0.61531 0.30179 0.35072 0.0
C423 C 0.72108 0.29478 0.4315 0.0
C424 C 0.71744 0.30348 0.49839 0.0
C425 C 0.76082 0.29036 0.40444 0.0
C426 C 0.7672 0.28574 0.33251 0.0
C427 C 0.74942 0.30968 0.28765 0.0
C428 C 0.75516 0.30525 0.21999 0.0
C429 C 0.77882 0.27707 0.19647 0.0
C430 C 0.79682 0.25328 0.24057 0.0
C431 C 0.79115 0.25756 0.3083 0.0
H432 H 0.78325 0.27369 0.14408 0.0
H433 H 0.72139 0.34892 0.78552 0.0
H434 H 0.90451 0.69839 0.3359 0.0
H435 H 0.84433 0.67726 0.39819 0.0
H436 H 0.81257 0.78536 0.4447 0.0
H437 H 0.87109 0.80633 0.38268 0.0
H438 H 0.81343 0.69558 0.54015 0.0
H439 H 0.73612 0.79813 0.39091 0.0
H440 H 0.729 0.82083 0.27741 0.0
H441 H 0.73975 0.71485 0.20226 0.0
H442 H 0.74914 0.69186 0.31486 0.0
H443 H 0.65852 0.80097 0.66853 0.0
H444 H 0.71066 0.77669 0.59796 0.0
H445 H 0.63702 0.68417 0.56281 0.0
H446 H 0.5835 0.70819 0.637 0.0
H447 H 0.68228 0.7388 0.44671 0.0
H448 H 0.70194 0.64923 0.60782 0.0
H449 H 0.70769 0.6217 0.71738 0.0
H450 H 0.80521 0.69272 0.7669 0.0
H451 H 0.80009 0.72069 0.65749 0.0
C452 C 0.88494 0.71746 0.36029 0.0
C453 C 0.89208 0.75405 0.35265 0.0
C454 C 0.85055 0.70541 0.39569 0.0
C455 C 0.8233 0.72986 0.42449 0.0
C456 C 0.83255 0.76605 0.42159 0.0
C457 C 0.86636 0.77798 0.38631 0.0
C458 C 0.78413 0.71902 0.45597 0.0
C459 C 0.78456 0.70413 0.51921 0.0
C460 C 0.74627 0.72941 0.42845 0.0
C461 C 0.74352 0.74341 0.36085 0.0
C462 C 0.73753 0.77982 0.3499 0.0
C463 C 0.7334 0.79273 0.28576 0.0
C464 C 0.73443 0.76931 0.23249 0.0
C465 C 0.73985 0.73301 0.24331 0.0
C466 C 0.74495 0.72007 0.30718 0.0
C467 C 0.65268 0.77542 0.64621 0.0
C468 C 0.61642 0.75648 0.65943 0.0
C469 C 0.68307 0.76144 0.60601 0.0
C470 C 0.67823 0.72838 0.57624 0.0
C471 C 0.64162 0.70957 0.58645 0.0
C472 C 0.61094 0.72345 0.62825 0.0
C473 C 0.71146 0.71612 0.53174 0.0
C474 C 0.71051 0.72807 0.46653 0.0
C475 C 0.74853 0.70236 0.55734 0.0
C476 C 0.7505 0.68714 0.6245 0.0
C477 C 0.72431 0.65925 0.64231 0.0
C478 C 0.72766 0.64339 0.7042 0.0
C479 C 0.75689 0.65535 0.74895 0.0
C480 C 0.78268 0.68338 0.73207 0.0
C481 C 0.77967 0.69917 0.67001 0.0
H482 H 0.75949 0.64292 0.79673 0.0
H483 H 0.73073 0.77923 0.18288 0.0
H484 H 0.40192 0.80026 0.05623 0.0
H485 H 0.33378 0.82681 0.06937 0.0
H486 H 0.32895 0.84606 0.85993 0.0
H487 H 0.39825 0.82561 0.84921 0.0
H488 H 0.27092 0.87607 0.89646 0.0
H489 H 0.3137 0.75748 0.94233 0.0
H490 H 0.35075 0.70886 0.99783 0.0
H491 H 0.29155 0.73498 0.18021 0.0
H492 H 0.25445 0.78395 0.12574 0.0
H493 H 0.09674 0.74001 0.93761 0.0
H494 H 0.15416 0.77143 0.88734 0.0
H495 H 0.13902 0.85659 0.02668 0.0
H496 H 0.08279 0.82563 0.07686 0.0
H497 H 0.20262 0.77978 0.0199 0.0
H498 H 0.14316 0.89009 0.92655 0.0
H499 H 0.10708 0.92152 0.83816 0.0
H500 H 0.19899 0.88884 0.69987 0.0
H501 H 0.23532 0.85649 0.78736 0.0
C502 C 0.38699 0.8122 0.01413 0.0
C503 C 0.40443 0.80974 0.95145 0.0
C504 C 0.34795 0.82701 0.02122 0.0
C505 C 0.32488 0.83563 0.96478 0.0
C506 C 0.34514 0.83863 0.9043 0.0
C507 C 0.38501 0.82644 0.89807 0.0
C508 C 0.27955 0.83273 0.96487 0.0
C509 C 0.25603 0.85522 0.92411 0.0
C510 C 0.25985 0.80423 0.9975 0.0
C511 C 0.28211 0.77485 0.03042 0.0
C512 C 0.30884 0.75297 0.99437 0.0
C513 C 0.32981 0.72535 0.02561 0.0
C514 C 0.32373 0.719 0.09262 0.0
C515 C 0.29647 0.74011 0.12843 0.0
C516 C 0.27555 0.76784 0.09747 0.0
C517 C 0.10423 0.76639 0.9548 0.0
C518 C 0.08541 0.78042 0.01114 0.0
C519 C 0.13652 0.78461 0.92532 0.0
C520 C 0.15046 0.81653 0.95284 0.0
C521 C 0.12793 0.83267 0.00318 0.0
C522 C 0.0957 0.81469 0.03225 0.0
C523 C 0.19453 0.82329 0.95269 0.0
C524 C 0.21765 0.80112 0.99342 0.0
C525 C 0.21376 0.85012 0.91582 0.0
C526 C 0.1918 0.87032 0.86385 0.0
C527 C 0.15542 0.88892 0.87731 0.0
C528 C 0.13499 0.90718 0.82727 0.0
C529 C 0.15064 0.90712 0.76335 0.0
C530 C 0.18687 0.88893 0.74942 0.0
C531 C 0.20746 0.87072 0.79934 0.0
H532 H 0.13476 0.92125 0.72468 0.0
H533 H 0.33997 0.6976 0.11671 0.0
H534 H 0.09827 0.28886 0.04903 0.0
H535 H 0.15752 0.25714 0.08881 0.0
H536 H 0.10564 0.15811 0.02344 0.0
H537 H 0.04438 0.1904 0.98612 0.0
H538 H 0.18725 0.20086 0.15965 0.0
H539 H 0.1779 0.11885 0.9545 0.0
H540 H 0.13975 0.10299 0.8539 0.0
H541 H 0.1298 0.21307 0.80289 0.0
H542 H 0.16822 0.22953 0.90269 0.0
H543 H 0.40076 0.21595 0.06351 0.0
H544 H 0.34117 0.18159 0.02923 0.0
H545 H 0.26687 0.27599 0.0403 0.0
H546 H 0.32568 0.30997 0.07741 0.0
H547 H 0.25485 0.1921 0.9414 0.0
H548 H 0.22436 0.26272 0.17908 0.0
H549 H 0.26832 0.29321 0.25895 0.0
H550 H 0.35913 0.21137 0.23794 0.0
H551 H 0.31465 0.17954 0.1609 0.0
C552 C 0.09841 0.26019 0.04562 0.0
C553 C 0.06822 0.24215 0.01012 0.0
C554 C 0.13245 0.2419 0.0686 0.0
C555 C 0.13677 0.20536 0.0565 0.0
C556 C 0.10348 0.18645 0.03122 0.0
C557 C 0.06893 0.20488 0.00908 0.0
C558 C 0.17876 0.19072 0.05645 0.0
C559 C 0.20238 0.19678 0.11272 0.0
C560 C 0.19875 0.18474 0.99554 0.0
C561 C 0.17578 0.17533 0.93566 0.0
C562 C 0.1676 0.13961 0.92155 0.0
C563 C 0.14602 0.13055 0.86469 0.0
C564 C 0.13234 0.15706 0.82194 0.0
C565 C 0.14038 0.19264 0.8359 0.0
C566 C 0.16219 0.20185 0.89242 0.0
C567 C 0.37207 0.2296 0.05624 0.0
C568 C 0.36739 0.26519 0.07596 0.0
C569 C 0.33816 0.20999 0.03573 0.0
C570 C 0.29962 0.22617 0.03371 0.0
C571 C 0.29649 0.26305 0.04215 0.0
C572 C 0.33005 0.2824 0.06402 0.0
C573 C 0.26228 0.20496 0.04378 0.0
C574 C 0.24049 0.19247 0.9895 0.0
C575 C 0.244 0.20441 0.10693 0.0
C576 C 0.26619 0.21873 0.16445 0.0
C577 C 0.25301 0.25056 0.1936 0.0
C578 C 0.27815 0.26817 0.23829 0.0
C579 C 0.3165 0.2542 0.25416 0.0
C580 C 0.32919 0.22197 0.22695 0.0
C581 C 0.30389 0.20398 0.18306 0.0
H582 H 0.33653 0.26857 0.28688 0.0
H583 H 0.11552 0.15005 0.77804 0.0
H584 H 0.59712 0.32095 0.12445 0.0
H585 H 0.6563 0.34962 0.08169 0.0
H586 H 0.6153 0.32848 0.88298 0.0
H587 H 0.55677 0.29579 0.92811 0.0
H588 H 0.68089 0.30637 0.88129 0.0
H589 H 0.65477 0.41725 0.94442 0.0
H590 H 0.62662 0.46962 0.00073 0.0
H591 H 0.70283 0.44876 0.16814 0.0
H592 H 0.73093 0.39577 0.1138 0.0
H593 H 0.90682 0.32303 0.95018 0.0
H594 H 0.84409 0.35817 0.96193 0.0
H595 H 0.77757 0.26253 0.00623 0.0
H596 H 0.83902 0.22735 0.98817 0.0
H597 H 0.77277 0.37401 0.02891 0.0
H598 H 0.71362 0.24703 0.88549 0.0
H599 H 0.74206 0.20495 0.80448 0.0
H600 H 0.83668 0.27917 0.75636 0.0
H601 H 0.8087 0.32167 0.83594 0.0
C602 C 0.59997 0.32344 0.0715 0.0
C603 C 0.57291 0.30594 0.02941 0.0
C604 C 0.63381 0.34069 0.04652 0.0
C605 C 0.64114 0.34157 0.97841 0.0
C606 C 0.61108 0.32771 0.93577 0.0
C607 C 0.57761 0.30909 0.96125 0.0
C608 C 0.68395 0.34725 0.95579 0.0
C609 C 0.70057 0.32192 0.9128 0.0
C610 C 0.71093 0.36976 0.99107 0.0
C611 C 0.69539 0.40242 0.02436 0.0
C612 C 0.66565 0.42371 0.99326 0.0
C613 C 0.64957 0.45354 0.02498 0.0
C614 C 0.66298 0.46257 0.08792 0.0
C615 C 0.69261 0.44182 0.11921 0.0
C616 C 0.70881 0.41191 0.08776 0.0
C617 C 0.87885 0.30975 0.96349 0.0
C618 C 0.87693 0.27245 0.96327 0.0
C619 C 0.84322 0.32989 0.97121 0.0
C620 C 0.80598 0.31264 0.98161 0.0
C621 C 0.80598 0.27613 0.99577 0.0
C622 C 0.84118 0.25598 0.98566 0.0
C623 C 0.76689 0.32969 0.96314 0.0
C624 C 0.75231 0.35964 0.99673 0.0
C625 C 0.74212 0.31364 0.91472 0.0
C626 C 0.75912 0.28753 0.86709 0.0
C627 C 0.74042 0.25441 0.85742 0.0
C628 C 0.75654 0.23041 0.81171 0.0
C629 C 0.79128 0.23927 0.77528 0.0
C630 C 0.80999 0.2721 0.78462 0.0
C631 C 0.7941 0.29612 0.83024 0.0
H632 H 0.80365 0.22073 0.73977 0.0
H633 H 0.65036 0.48561 0.11248 0.0
H634 H 0.84905 0.79171 0.0173 0.0
H635 H 0.79404 0.75476 0.97599 0.0
H636 H 0.86931 0.66159 0.99997 0.0
H637 H 0.92604 0.69911 0.03653 0.0
H638 H 0.77656 0.68748 0.88775 0.0
H639 H 0.80211 0.61616 0.10527 0.0
H640 H 0.85172 0.60912 0.19581 0.0
H641 H 0.8561 0.72222 0.22016 0.0
H642 H 0.80636 0.72975 0.12999 0.0
H643 H 0.57011 0.70193 0.95845 0.0
H644 H 0.6246 0.66132 0.99177 0.0
H645 H 0.70082 0.75055 0.04043 0.0
H646 H 0.64755 0.79111 0.00391 0.0
H647 H 0.71798 0.67713 0.11207 0.0
H648 H 0.71333 0.73156 0.85193 0.0
H649 H 0.66767 0.73093 0.75604 0.0
H650 H 0.62429 0.6276 0.81021 0.0
H651 H 0.67037 0.62749 0.90626 0.0
C652 C 0.85473 0.76366 0.01078 0.0
C653 C 0.89091 0.74793 0.0339 0.0
C654 C 0.82333 0.74248 0.98665 0.0
C655 C 0.82743 0.70541 0.98656 0.0
C656 C 0.86554 0.69012 1.00029 0.0
C657 C 0.89752 0.71154 0.02241 0.0
C658 C 0.78952 0.6846 0.99119 0.0
C659 C 0.76394 0.68303 0.93634 0.0
C660 C 0.77323 0.67735 0.05414 0.0
C661 C 0.80034 0.67343 0.11169 0.0
C662 C 0.81327 0.63944 0.13069 0.0
C663 C 0.84146 0.63537 0.18173 0.0
C664 C 0.85691 0.66517 0.2139 0.0
C665 C 0.844 0.69913 0.19545 0.0
C666 C 0.81577 0.70331 0.14444 0.0
C667 C 0.59801 0.71289 0.97818 0.0
C668 C 0.60545 0.74964 0.97519 0.0
C669 C 0.62896 0.68956 0.99802 0.0
C670 C 0.66703 0.7029 0.01724 0.0
C671 C 0.67164 0.73967 0.02546 0.0
C672 C 0.6412 0.76293 0.00409 0.0
C673 C 0.70486 0.68184 0.00863 0.0
C674 C 0.73072 0.67718 0.06285 0.0
C675 C 0.72163 0.67985 0.9446 0.0
C676 C 0.695 0.67962 0.88609 0.0
C677 C 0.69412 0.7087 0.84314 0.0
C678 C 0.66802 0.7085 0.78888 0.0
C679 C 0.64265 0.67939 0.77726 0.0
C680 C 0.64372 0.65022 0.8195 0.0
C681 C 0.66988 0.65023 0.87371 0.0
H682 H 0.62234 0.67921 0.73543 0.0
H683 H 0.87912 0.66179 0.25269 0.0
loop_
_geom_bond_atom_site_label_1
_geom_bond_atom_site_label_2
_geom_bond_distance
_geom_bond_site_symmetry_2
_ccdc_geom_bond_type
O0 Mg1 1.990 . S
O0 C14 1.253 . S
Mg1 O0 1.990 . S
Mg1 O4 2.180 . S
Mg1 O5 2.117 . S
Mg1 O19 2.030 . S
O2 Mg3 2.080 . S
O2 C14 1.260 . S
Mg3 O2 2.080 . S
Mg3 O4 2.101 . S
Mg3 O6 2.071 1_455 S
Mg3 O7 2.065 1_455 S
Mg3 O9 2.096 1_455 S
Mg3 O20 2.086 . S
O4 Mg1 2.180 . S
O4 Mg3 2.101 . S
O4 C15 1.279 . S
O5 Mg1 2.117 . S
O5 C15 1.250 . S
O6 Mg3 2.071 1_655 S
O6 C16 1.264 . S
O7 Mg3 2.065 1_655 S
O7 C17 1.260 . S
Mg8 O9 2.180 . S
Mg8 O10 2.030 . S
Mg8 O11 1.990 . S
Mg8 O12 2.117 . S
O9 Mg3 2.096 1_655 S
O9 Mg8 2.180 . S
O9 C18 1.279 . S
O10 Mg8 2.030 . S
O10 C16 1.248 . S
O11 Mg8 1.990 . S
O11 C17 1.253 . S
O12 Mg8 2.117 . S
O12 C18 1.250 . S
C13 O19 1.248 . S
C13 O20 1.264 . S
C14 O0 1.253 . S
C14 O2 1.260 . S
C15 O4 1.279 . S
C15 O5 1.250 . S
C16 O6 1.264 . S
C16 O10 1.248 . S
C17 O7 1.260 . S
C17 O11 1.253 . S
C18 O9 1.279 . S
C18 O12 1.250 . S
O19 Mg1 2.030 . S
O19 C13 1.248 . S
O20 Mg3 2.086 . S
O20 C13 1.264 . S
O21 Mg22 1.990 . S
O21 C35 1.253 . S
Mg22 O21 1.990 . S
Mg22 O25 2.180 . S
Mg22 O26 2.117 . S
Mg22 O40 2.030 . S
O23 Mg24 2.072 . S
O23 C35 1.260 . S
Mg24 O23 2.072 . S
Mg24 O25 2.099 . S
Mg24 O27 2.079 . S
Mg24 O28 2.072 . S
Mg24 O30 2.099 . S
Mg24 O41 2.079 . S
O25 Mg22 2.180 . S
O25 Mg24 2.099 . S
O25 C36 1.279 . S
O26 Mg22 2.117 . S
O26 C36 1.250 . S
O27 Mg24 2.079 . S
O27 C37 1.264 . S
O28 Mg24 2.072 . S
O28 C38 1.260 . S
Mg29 O30 2.180 . S
Mg29 O31 2.030 . S
Mg29 O32 1.990 . S
Mg29 O33 2.117 . S
O30 Mg24 2.099 . S
O30 Mg29 2.180 . S
O30 C39 1.279 . S
O31 Mg29 2.030 . S
O31 C37 1.248 . S
O32 Mg29 1.990 . S
O32 C38 1.253 . S
O33 Mg29 2.117 . S
O33 C39 1.250 . S
C34 O40 1.248 . S
C34 O41 1.264 . S
C35 O21 1.253 . S
C35 O23 1.260 . S
C36 O25 1.279 . S
C36 O26 1.250 . S
C37 O27 1.264 . S
C37 O31 1.248 . S
C38 O28 1.260 . S
C38 O32 1.253 . S
C39 O30 1.279 . S
C39 O33 1.250 . S
O40 Mg22 2.030 . S
O40 C34 1.248 . S
O41 Mg24 2.079 . S
O41 C34 1.264 . S
O42 Mg43 1.990 . S
O42 C56 1.253 . S
Mg43 O42 1.990 . S
Mg43 O46 2.180 . S
Mg43 O47 2.117 . S
Mg43 O61 2.030 . S
O44 Mg45 2.080 . S
O44 C56 1.260 . S
Mg45 O44 2.080 . S
Mg45 O46 2.101 . S
Mg45 O48 2.071 1_455 S
Mg45 O49 2.065 1_455 S
Mg45 O51 2.096 1_455 S
Mg45 O62 2.086 . S
O46 Mg43 2.180 . S
O46 Mg45 2.101 . S
O46 C57 1.279 . S
O47 Mg43 2.117 . S
O47 C57 1.250 . S
O48 Mg45 2.071 1_655 S
O48 C58 1.264 . S
O49 Mg45 2.065 1_655 S
O49 C59 1.260 . S
Mg50 O51 2.180 . S
Mg50 O52 2.030 . S
Mg50 O53 1.990 . S
Mg50 O54 2.117 . S
O51 Mg45 2.096 1_655 S
O51 Mg50 2.180 . S
O51 C60 1.279 . S
O52 Mg50 2.030 . S
O52 C58 1.248 . S
O53 Mg50 1.990 . S
O53 C59 1.253 . S
O54 Mg50 2.117 . S
O54 C60 1.250 . S
C55 O61 1.248 . S
C55 O62 1.264 . S
C56 O42 1.253 . S
C56 O44 1.260 . S
C57 O46 1.279 . S
C57 O47 1.250 . S
C58 O48 1.264 . S
C58 O52 1.248 . S
C59 O49 1.260 . S
C59 O53 1.253 . S
C60 O51 1.279 . S
C60 O54 1.250 . S
O61 Mg43 2.030 . S
O61 C55 1.248 . S
O62 Mg45 2.086 . S
O62 C55 1.264 . S
O63 Mg64 1.990 . S
O63 C77 1.253 . S
Mg64 O63 1.990 . S
Mg64 O67 2.180 . S
Mg64 O68 2.117 . S
Mg64 O82 2.030 . S
O65 Mg66 2.072 . S
O65 C77 1.260 . S
Mg66 O65 2.072 . S
Mg66 O67 2.099 . S
Mg66 O69 2.079 . S
Mg66 O70 2.072 . S
Mg66 O72 2.099 . S
Mg66 O83 2.079 . S
O67 Mg64 2.180 . S
O67 Mg66 2.099 . S
O67 C78 1.279 . S
O68 Mg64 2.117 . S
O68 C78 1.250 . S
O69 Mg66 2.079 . S
O69 C79 1.264 . S
O70 Mg66 2.072 . S
O70 C80 1.260 . S
Mg71 O72 2.180 . S
Mg71 O73 2.030 . S
Mg71 O74 1.990 . S
Mg71 O75 2.117 . S
O72 Mg66 2.099 . S
O72 Mg71 2.180 . S
O72 C81 1.279 . S
O73 Mg71 2.030 . S
O73 C79 1.248 . S
O74 Mg71 1.990 . S
O74 C80 1.253 . S
O75 Mg71 2.117 . S
O75 C81 1.250 . S
C76 O82 1.248 . S
C76 O83 1.264 . S
C77 O63 1.253 . S
C77 O65 1.260 . S
C78 O67 1.279 . S
C78 O68 1.250 . S
C79 O69 1.264 . S
C79 O73 1.248 . S
C80 O70 1.260 . S
C80 O74 1.253 . S
C81 O72 1.279 . S
C81 O75 1.250 . S
O82 Mg64 2.030 . S
O82 C76 1.248 . S
O83 Mg66 2.079 . S
O83 C76 1.264 . S
H84 C102 0.951 . S
H85 C104 0.951 . S
H86 C106 0.950 . S
H87 C107 0.950 . S
H88 C109 0.950 . S
H89 C112 0.950 1_455 S
H90 C113 0.950 1_455 S
H91 C115 0.950 . S
H92 C116 0.950 . S
H93 C117 0.951 . S
H94 C119 0.951 . S
H95 C121 0.950 . S
H96 C122 0.950 . S
H97 C124 0.950 . S
H98 C127 0.950 . S
H99 C128 0.950 . S
H100 C130 0.950 . S
H101 C131 0.950 . S
C102 H84 0.951 . S
C102 C103 1.366 . S
C102 C104 1.388 . S
C103 C102 1.366 . S
C103 C107 1.385 1_655 S
C104 H85 0.951 . S
C104 C102 1.388 . S
C104 C105 1.366 . S
C105 C104 1.366 . S
C105 C106 1.414 1_655 S
C105 C108 1.499 . S
C106 H86 0.950 . S
C106 C105 1.414 1_455 S
C106 C107 1.374 . S
C107 H87 0.950 . S
C107 C103 1.385 1_455 S
C107 C106 1.374 . S
C108 C105 1.499 . S
C108 C109 1.373 1_656 S
C108 C110 1.389 . S
C109 H88 0.950 . S
C109 C108 1.373 1_454 S
C109 C125 1.377 1_455 S
C110 C108 1.389 . S
C110 C111 1.524 . S
C110 C124 1.377 . S
C111 C110 1.524 . S
C111 C112 1.397 . S
C111 C116 1.363 . S
C112 H89 0.950 1_655 S
C112 C111 1.397 . S
C112 C113 1.334 . S
C113 H90 0.950 1_655 S
C113 C112 1.334 . S
C113 C114 1.287 . S
C114 C113 1.287 . S
C114 C115 1.524 . S
C114 H133 0.913 . S
C115 H91 0.950 . S
C115 C114 1.524 . S
C115 C116 1.415 . S
C116 H92 0.950 . S
C116 C111 1.363 . S
C116 C115 1.415 . S
C117 H93 0.951 . S
C117 C118 1.366 1_455 S
C117 C119 1.388 . S
C118 C117 1.366 1_655 S
C118 C122 1.385 . S
C119 H94 0.951 . S
C119 C117 1.388 . S
C119 C120 1.366 1_455 S
C120 C119 1.366 1_655 S
C120 C121 1.414 . S
C120 C123 1.499 . S
C121 H95 0.950 . S
C121 C120 1.414 . S
C121 C122 1.374 . S
C122 H96 0.950 . S
C122 C118 1.385 . S
C122 C121 1.374 . S
C123 C120 1.499 . S
C123 C124 1.373 1_554 S
C123 C125 1.389 . S
C124 H97 0.950 . S
C124 C110 1.377 . S
C124 C123 1.373 1_556 S
C125 C109 1.377 1_655 S
C125 C123 1.389 . S
C125 C126 1.524 1_655 S
C126 C125 1.524 1_455 S
C126 C127 1.397 1_455 S
C126 C131 1.363 . S
C127 H98 0.950 . S
C127 C126 1.397 1_655 S
C127 C128 1.334 . S
C128 H99 0.950 . S
C128 C127 1.334 . S
C128 C129 1.287 1_655 S
C129 C128 1.287 1_455 S
C129 C130 1.524 . S
C129 H132 0.999 . S
C130 H100 0.950 . S
C130 C129 1.524 . S
C130 C131 1.415 . S
C131 H101 0.950 . S
C131 C126 1.363 . S
C131 C130 1.415 . S
H132 C129 0.999 . S
H133 C114 0.913 . S
H134 C152 0.951 . S
H135 C154 0.951 . S
H136 C156 0.950 . S
H137 C157 0.950 . S
H138 C159 0.950 . S
H139 C162 0.950 . S
H140 C163 0.950 . S
H141 C165 0.950 . S
H142 C166 0.950 . S
H143 C167 0.951 . S
H144 C169 0.951 . S
H145 C171 0.950 . S
H146 C172 0.950 . S
H147 C174 0.950 . S
H148 C177 0.950 . S
H149 C178 0.950 . S
H150 C180 0.950 . S
H151 C181 0.950 . S
C152 H134 0.951 . S
C152 C153 1.366 . S
C152 C154 1.388 . S
C153 C152 1.366 . S
C153 C157 1.385 . S
C154 H135 0.951 . S
C154 C152 1.388 . S
C154 C155 1.366 . S
C155 C154 1.366 . S
C155 C156 1.414 . S
C155 C158 1.499 . S
C156 H136 0.950 . S
C156 C155 1.414 . S
C156 C157 1.374 . S
C157 H137 0.950 . S
C157 C153 1.385 . S
C157 C156 1.374 . S
C158 C155 1.499 . S
C158 C159 1.373 . S
C158 C160 1.389 1_554 S
C159 H138 0.950 . S
C159 C158 1.373 . S
C159 C175 1.377 . S
C160 C158 1.389 1_556 S
C160 C161 1.524 . S
C160 C174 1.377 . S
C161 C160 1.524 . S
C161 C162 1.397 . S
C161 C166 1.363 . S
C162 H139 0.950 . S
C162 C161 1.397 . S
C162 C163 1.334 . S
C163 H140 0.950 . S
C163 C162 1.334 . S
C163 C164 1.287 . S
C164 C163 1.287 . S
C164 C165 1.524 . S
C164 H183 0.913 . S
C165 H141 0.950 . S
C165 C164 1.524 . S
C165 C166 1.415 . S
C166 H142 0.950 . S
C166 C161 1.363 . S
C166 C165 1.415 . S
C167 H143 0.951 . S
C167 C168 1.366 . S
C167 C169 1.388 . S
C168 C167 1.366 . S
C168 C172 1.385 . S
C169 H144 0.951 . S
C169 C167 1.388 . S
C169 C170 1.366 . S
C170 C169 1.366 . S
C170 C171 1.414 . S
C170 C173 1.499 . S
C171 H145 0.950 . S
C171 C170 1.414 . S
C171 C172 1.374 . S
C172 H146 0.950 . S
C172 C168 1.385 . S
C172 C171 1.374 . S
C173 C170 1.499 . S
C173 C174 1.373 . S
C173 C175 1.389 1_556 S
C174 H147 0.950 . S
C174 C160 1.377 . S
C174 C173 1.373 . S
C175 C159 1.377 . S
C175 C173 1.389 1_554 S
C175 C176 1.524 . S
C176 C175 1.524 . S
C176 C177 1.397 . S
C176 C181 1.363 . S
C177 H148 0.950 . S
C177 C176 1.397 . S
C177 C178 1.334 . S
C178 H149 0.950 . S
C178 C177 1.334 . S
C178 C179 1.287 . S
C179 C178 1.287 . S
C179 C180 1.524 . S
C179 H182 0.999 . S
C180 H150 0.950 . S
C180 C179 1.524 . S
C180 C181 1.415 . S
C181 H151 0.950 . S
C181 C176 1.363 . S
C181 C180 1.415 . S
H182 C179 0.999 . S
H183 C164 0.913 . S
H184 C202 0.951 . S
H185 C204 0.951 1_554 S
H186 C206 0.950 . S
H187 C207 0.950 . S
H188 C209 0.950 . S
H189 C212 0.950 . S
H190 C213 0.950 . S
H191 C215 0.950 . S
H192 C216 0.950 . S
H193 C217 0.951 . S
H194 C219 0.951 1_556 S
H195 C221 0.950 . S
H196 C222 0.950 . S
H197 C224 0.950 . S
H198 C227 0.950 . S
H199 C228 0.950 . S
H200 C230 0.950 . S
H201 C231 0.950 . S
C202 H184 0.951 . S
C202 C203 1.366 . S
C202 C204 1.388 . S
C203 C202 1.366 . S
C203 C207 1.385 . S
C204 H185 0.951 1_556 S
C204 C202 1.388 . S
C204 C205 1.366 . S
C205 C204 1.366 . S
C205 C206 1.414 . S
C205 C208 1.499 . S
C206 H186 0.950 . S
C206 C205 1.414 . S
C206 C207 1.374 . S
C207 H187 0.950 . S
C207 C203 1.385 . S
C207 C206 1.374 . S
C208 C205 1.499 . S
C208 C209 1.373 . S
C208 C210 1.389 . S
C209 H188 0.950 . S
C209 C208 1.373 . S
C209 C225 1.377 1_566 S
C210 C208 1.389 . S
C210 C211 1.524 . S
C210 C224 1.377 1_566 S
C211 C210 1.524 . S
C211 C212 1.397 . S
C211 C216 1.363 1_556 S
C212 H189 0.950 . S
C212 C211 1.397 . S
C212 C213 1.334 . S
C213 H190 0.950 . S
C213 C212 1.334 . S
C213 C214 1.287 . S
C214 C213 1.287 . S
C214 C215 1.524 1_556 S
C214 H233 0.913 . S
C215 H191 0.950 . S
C215 C214 1.524 1_554 S
C215 C216 1.415 . S
C216 H192 0.950 . S
C216 C211 1.363 1_554 S
C216 C215 1.415 . S
C217 H193 0.951 . S
C217 C218 1.366 . S
C217 C219 1.388 . S
C218 C217 1.366 . S
C218 C222 1.385 . S
C219 H194 0.951 1_554 S
C219 C217 1.388 . S
C219 C220 1.366 . S
C220 C219 1.366 . S
C220 C221 1.414 . S
C220 C223 1.499 . S
C221 H195 0.950 . S
C221 C220 1.414 . S
C221 C222 1.374 . S
C222 H196 0.950 . S
C222 C218 1.385 . S
C222 C221 1.374 . S
C223 C220 1.499 . S
C223 C224 1.373 . S
C223 C225 1.389 . S
C224 H197 0.950 . S
C224 C210 1.377 1_544 S
C224 C223 1.373 . S
C225 C209 1.377 1_544 S
C225 C223 1.389 . S
C225 C226 1.524 . S
C226 C225 1.524 . S
C226 C227 1.397 . S
C226 C231 1.363 1_554 S
C227 H198 0.950 . S
C227 C226 1.397 . S
C227 C228 1.334 . S
C228 H199 0.950 . S
C228 C227 1.334 . S
C228 C229 1.287 . S
C229 C228 1.287 . S
C229 C230 1.524 1_554 S
C229 H232 0.999 . S
C230 H200 0.950 . S
C230 C229 1.524 1_556 S
C230 C231 1.415 . S
C231 H201 0.950 . S
C231 C226 1.363 1_556 S
C231 C230 1.415 . S
H232 C229 0.999 . S
H233 C214 0.913 . S
H234 C252 0.951 . S
H235 C254 0.951 1_556 S
H236 C256 0.950 . S
H237 C257 0.950 . S
H238 C259 0.950 . S
H239 C262 0.950 1_554 S
H240 C263 0.951 1_554 S
H241 C265 0.950 . S
H242 C266 0.950 . S
H243 C267 0.951 . S
H244 C269 0.951 1_554 S
H245 C271 0.950 . S
H246 C272 0.950 . S
H247 C274 0.950 . S
H248 C277 0.950 1_556 S
H249 C278 0.951 1_556 S
H250 C280 0.950 . S
H251 C281 0.950 . S
C252 H234 0.951 . S
C252 C253 1.366 . S
C252 C254 1.388 . S
C253 C252 1.366 . S
C253 C257 1.385 . S
C254 H235 0.951 1_554 S
C254 C252 1.388 . S
C254 C255 1.366 . S
C255 C254 1.366 . S
C255 C256 1.414 . S
C255 C258 1.499 . S
C256 H236 0.950 . S
C256 C255 1.414 . S
C256 C257 1.374 . S
C257 H237 0.950 . S
C257 C253 1.385 . S
C257 C256 1.374 . S
C258 C255 1.499 . S
C258 C259 1.373 1_455 S
C258 C260 1.389 1_554 S
C259 H238 0.950 . S
C259 C258 1.373 1_655 S
C259 C275 1.377 1_565 S
C260 C258 1.389 1_556 S
C260 C261 1.524 . S
C260 C274 1.377 1_565 S
C261 C260 1.524 . S
C261 C262 1.397 . S
C261 C266 1.363 . S
C262 H239 0.950 1_556 S
C262 C261 1.397 . S
C262 C263 1.334 . S
C263 H240 0.951 1_556 S
C263 C262 1.334 . S
C263 C264 1.287 . S
C264 C263 1.287 . S
C264 C265 1.524 . S
C264 H283 0.913 . S
C265 H241 0.950 . S
C265 C264 1.524 . S
C265 C266 1.415 . S
C266 H242 0.950 . S
C266 C261 1.363 . S
C266 C265 1.415 . S
C267 H243 0.951 . S
C267 C268 1.366 . S
C267 C269 1.388 . S
C268 C267 1.366 . S
C268 C272 1.385 . S
C269 H244 0.951 1_556 S
C269 C267 1.388 . S
C269 C270 1.366 . S
C270 C269 1.366 . S
C270 C271 1.414 . S
C270 C273 1.499 . S
C271 H245 0.950 . S
C271 C270 1.414 . S
C271 C272 1.374 . S
C272 H246 0.950 . S
C272 C268 1.385 . S
C272 C271 1.374 . S
C273 C270 1.499 . S
C273 C274 1.373 . S
C273 C275 1.389 1_456 S
C274 H247 0.950 . S
C274 C260 1.377 1_545 S
C274 C273 1.373 . S
C275 C259 1.377 1_545 S
C275 C273 1.389 1_654 S
C275 C276 1.524 . S
C276 C275 1.524 . S
C276 C277 1.397 . S
C276 C281 1.363 . S
C277 H248 0.950 1_554 S
C277 C276 1.397 . S
C277 C278 1.334 . S
C278 H249 0.951 1_554 S
C278 C277 1.334 . S
C278 C279 1.287 . S
C279 C278 1.287 . S
C279 C280 1.524 . S
C279 H282 0.999 . S
C280 H250 0.950 . S
C280 C279 1.524 . S
C280 C281 1.415 . S
C281 H251 0.950 . S
C281 C276 1.363 . S
C281 C280 1.415 . S
H282 C279 0.999 . S
H283 C264 0.913 . S
H284 C302 0.951 . S
H285 C304 0.951 . S
H286 C306 0.950 . S
H287 C307 0.950 . S
H288 C309 0.950 . S
H289 C312 0.950 . S
H290 C313 0.950 . S
H291 C315 0.950 . S
H292 C316 0.950 . S
H293 C317 0.951 . S
H294 C319 0.951 . S
H295 C321 0.950 . S
H296 C322 0.950 . S
H297 C324 0.950 . S
H298 C327 0.950 . S
H299 C328 0.950 . S
H300 C330 0.950 . S
H301 C331 0.950 . S
C302 H284 0.951 . S
C302 C303 1.366 . S
C302 C304 1.388 . S
C303 C302 1.366 . S
C303 C307 1.385 . S
C304 H285 0.951 . S
C304 C302 1.388 . S
C304 C305 1.366 . S
C305 C304 1.366 . S
C305 C306 1.414 . S
C305 C308 1.499 . S
C306 H286 0.950 . S
C306 C305 1.414 . S
C306 C307 1.374 . S
C307 H287 0.950 . S
C307 C303 1.385 . S
C307 C306 1.374 . S
C308 C305 1.499 . S
C308 C309 1.373 . S
C308 C310 1.389 . S
C309 H288 0.950 . S
C309 C308 1.373 . S
C309 C325 1.377 . S
C310 C308 1.389 . S
C310 C311 1.524 . S
C310 C324 1.377 . S
C311 C310 1.524 . S
C311 C312 1.397 . S
C311 C316 1.363 . S
C312 H289 0.950 . S
C312 C311 1.397 . S
C312 C313 1.334 . S
C313 H290 0.950 . S
C313 C312 1.334 . S
C313 C314 1.287 . S
C314 C313 1.287 . S
C314 C315 1.524 . S
C314 H333 0.913 . S
C315 H291 0.950 . S
C315 C314 1.524 . S
C315 C316 1.415 . S
C316 H292 0.950 . S
C316 C311 1.363 . S
C316 C315 1.415 . S
C317 H293 0.951 . S
C317 C318 1.366 . S
C317 C319 1.388 . S
C318 C317 1.366 . S
C318 C322 1.385 . S
C319 H294 0.951 . S
C319 C317 1.388 . S
C319 C320 1.366 . S
C320 C319 1.366 . S
C320 C321 1.414 . S
C320 C323 1.499 . S
C321 H295 0.950 . S
C321 C320 1.414 . S
C321 C322 1.374 . S
C322 H296 0.950 . S
C322 C318 1.385 . S
C322 C321 1.374 . S
C323 C320 1.499 . S
C323 C324 1.373 . S
C323 C325 1.389 . S
C324 H297 0.950 . S
C324 C310 1.377 . S
C324 C323 1.373 . S
C325 C309 1.377 . S
C325 C323 1.389 . S
C325 C326 1.524 . S
C326 C325 1.524 . S
C326 C327 1.397 . S
C326 C331 1.363 . S
C327 H298 0.950 . S
C327 C326 1.397 . S
C327 C328 1.334 . S
C328 H299 0.950 . S
C328 C327 1.334 . S
C328 C329 1.287 . S
C329 C328 1.287 . S
C329 C330 1.524 . S
C329 H332 0.999 . S
C330 H300 0.950 . S
C330 C329 1.524 . S
C330 C331 1.415 . S
C331 H301 0.950 . S
C331 C326 1.363 . S
C331 C330 1.415 . S
H332 C329 0.999 . S
H333 C314 0.913 . S
H334 C352 0.951 . S
H335 C354 0.951 . S
H336 C356 0.950 . S
H337 C357 0.950 . S
H338 C359 0.950 . S
H339 C362 0.950 . S
H340 C363 0.950 . S
H341 C365 0.950 . S
H342 C366 0.950 . S
H343 C367 0.951 . S
H344 C369 0.951 . S
H345 C371 0.950 . S
H346 C372 0.950 . S
H347 C374 0.950 . S
H348 C377 0.950 . S
H349 C378 0.950 . S
H350 C380 0.950 . S
H351 C381 0.950 . S
C352 H334 0.951 . S
C352 C353 1.366 . S
C352 C354 1.388 . S
C353 C352 1.366 . S
C353 C357 1.385 . S
C354 H335 0.951 . S
C354 C352 1.388 . S
C354 C355 1.366 . S
C355 C354 1.366 . S
C355 C356 1.414 . S
C355 C358 1.499 . S
C356 H336 0.950 . S
C356 C355 1.414 . S
C356 C357 1.374 . S
C357 H337 0.950 . S
C357 C353 1.385 . S
C357 C356 1.374 . S
C358 C355 1.499 . S
C358 C359 1.373 . S
C358 C360 1.389 . S
C359 H338 0.950 . S
C359 C358 1.373 . S
C359 C375 1.377 . S
C360 C358 1.389 . S
C360 C361 1.524 . S
C360 C374 1.377 . S
C361 C360 1.524 . S
C361 C362 1.397 . S
C361 C366 1.363 . S
C362 H339 0.950 . S
C362 C361 1.397 . S
C362 C363 1.334 . S
C363 H340 0.950 . S
C363 C362 1.334 . S
C363 C364 1.287 . S
C364 C363 1.287 . S
C364 C365 1.524 . S
C364 H383 0.913 . S
C365 H341 0.950 . S
C365 C364 1.524 . S
C365 C366 1.415 . S
C366 H342 0.950 . S
C366 C361 1.363 . S
C366 C365 1.415 . S
C367 H343 0.951 . S
C367 C368 1.366 . S
C367 C369 1.388 . S
C368 C367 1.366 . S
C368 C372 1.385 . S
C369 H344 0.951 . S
C369 C367 1.388 . S
C369 C370 1.366 . S
C370 C369 1.366 . S
C370 C371 1.414 . S
C370 C373 1.499 . S
C371 H345 0.950 . S
C371 C370 1.414 . S
C371 C372 1.374 . S
C372 H346 0.950 . S
C372 C368 1.385 . S
C372 C371 1.374 . S
C373 C370 1.499 . S
C373 C374 1.373 . S
C373 C375 1.389 . S
C374 H347 0.950 . S
C374 C360 1.377 . S
C374 C373 1.373 . S
C375 C359 1.377 . S
C375 C373 1.389 . S
C375 C376 1.524 . S
C376 C375 1.524 . S
C376 C377 1.397 . S
C376 C381 1.363 . S
C377 H348 0.950 . S
C377 C376 1.397 . S
C377 C378 1.334 . S
C378 H349 0.950 . S
C378 C377 1.334 . S
C378 C379 1.287 . S
C379 C378 1.287 . S
C379 C380 1.524 . S
C379 H382 0.999 . S
C380 H350 0.950 . S
C380 C379 1.524 . S
C380 C381 1.415 . S
C381 H351 0.950 . S
C381 C376 1.363 . S
C381 C380 1.415 . S
H382 C379 0.999 . S
H383 C364 0.913 . S
H384 C402 0.951 . S
H385 C404 0.951 . S
H386 C406 0.950 . S
H387 C407 0.950 . S
H388 C409 0.950 . S
H389 C412 0.950 . S
H390 C413 0.950 . S
H391 C415 0.950 . S
H392 C416 0.950 . S
H393 C417 0.951 . S
H394 C419 0.951 . S
H395 C421 0.950 . S
H396 C422 0.950 . S
H397 C424 0.950 . S
H398 C427 0.950 . S
H399 C428 0.950 . S
H400 C430 0.950 . S
H401 C431 0.950 . S
C402 H384 0.951 . S
C402 C403 1.366 . S
C402 C404 1.388 . S
C403 C402 1.366 . S
C403 C407 1.385 . S
C404 H385 0.951 . S
C404 C402 1.388 . S
C404 C405 1.366 . S
C405 C404 1.366 . S
C405 C406 1.414 . S
C405 C408 1.499 . S
C406 H386 0.950 . S
C406 C405 1.414 . S
C406 C407 1.374 . S
C407 H387 0.950 . S
C407 C403 1.385 . S
C407 C406 1.374 . S
C408 C405 1.499 . S
C408 C409 1.373 . S
C408 C410 1.389 . S
C409 H388 0.950 . S
C409 C408 1.373 . S
C409 C425 1.377 . S
C410 C408 1.389 . S
C410 C411 1.524 . S
C410 C424 1.377 . S
C411 C410 1.524 . S
C411 C412 1.397 . S
C411 C416 1.363 . S
C412 H389 0.950 . S
C412 C411 1.397 . S
C412 C413 1.334 . S
C413 H390 0.950 . S
C413 C412 1.334 . S
C413 C414 1.287 . S
C414 C413 1.287 . S
C414 C415 1.524 . S
C414 H433 0.913 . S
C415 H391 0.950 . S
C415 C414 1.524 . S
C415 C416 1.415 . S
C416 H392 0.950 . S
C416 C411 1.363 . S
C416 C415 1.415 . S
C417 H393 0.951 . S
C417 C418 1.366 . S
C417 C419 1.388 . S
C418 C417 1.366 . S
C418 C422 1.385 . S
C419 H394 0.951 . S
C419 C417 1.388 . S
C419 C420 1.366 . S
C420 C419 1.366 . S
C420 C421 1.414 . S
C420 C423 1.499 . S
C421 H395 0.950 . S
C421 C420 1.414 . S
C421 C422 1.374 . S
C422 H396 0.950 . S
C422 C418 1.385 . S
C422 C421 1.374 . S
C423 C420 1.499 . S
C423 C424 1.373 . S
C423 C425 1.389 . S
C424 H397 0.950 . S
C424 C410 1.377 . S
C424 C423 1.373 . S
C425 C409 1.377 . S
C425 C423 1.389 . S
C425 C426 1.524 . S
C426 C425 1.524 . S
C426 C427 1.397 . S
C426 C431 1.363 . S
C427 H398 0.950 . S
C427 C426 1.397 . S
C427 C428 1.334 . S
C428 H399 0.950 . S
C428 C427 1.334 . S
C428 C429 1.287 . S
C429 C428 1.287 . S
C429 C430 1.524 . S
C429 H432 0.999 . S
C430 H400 0.950 . S
C430 C429 1.524 . S
C430 C431 1.415 . S
C431 H401 0.950 . S
C431 C426 1.363 . S
C431 C430 1.415 . S
H432 C429 0.999 . S
H433 C414 0.913 . S
H434 C452 0.951 . S
H435 C454 0.951 . S
H436 C456 0.950 . S
H437 C457 0.950 . S
H438 C459 0.950 . S
H439 C462 0.950 . S
H440 C463 0.950 . S
H441 C465 0.950 . S
H442 C466 0.950 . S
H443 C467 0.951 . S
H444 C469 0.951 . S
H445 C471 0.950 . S
H446 C472 0.950 . S
H447 C474 0.950 . S
H448 C477 0.950 . S
H449 C478 0.950 . S
H450 C480 0.950 . S
H451 C481 0.950 . S
C452 H434 0.951 . S
C452 C453 1.366 . S
C452 C454 1.388 . S
C453 C452 1.366 . S
C453 C457 1.385 . S
C454 H435 0.951 . S
C454 C452 1.388 . S
C454 C455 1.366 . S
C455 C454 1.366 . S
C455 C456 1.414 . S
C455 C458 1.499 . S
C456 H436 0.950 . S
C456 C455 1.414 . S
C456 C457 1.374 . S
C457 H437 0.950 . S
C457 C453 1.385 . S
C457 C456 1.374 . S
C458 C455 1.499 . S
C458 C459 1.373 . S
C458 C460 1.389 . S
C459 H438 0.950 . S
C459 C458 1.373 . S
C459 C475 1.377 . S
C460 C458 1.389 . S
C460 C461 1.524 . S
C460 C474 1.377 . S
C461 C460 1.524 . S
C461 C462 1.397 . S
C461 C466 1.363 . S
C462 H439 0.950 . S
C462 C461 1.397 . S
C462 C463 1.334 . S
C463 H440 0.950 . S
C463 C462 1.334 . S
C463 C464 1.287 . S
C464 C463 1.287 . S
C464 C465 1.524 . S
C464 H483 0.913 . S
C465 H441 0.950 . S
C465 C464 1.524 . S
C465 C466 1.415 . S
C466 H442 0.950 . S
C466 C461 1.363 . S
C466 C465 1.415 . S
C467 H443 0.951 . S
C467 C468 1.366 . S
C467 C469 1.388 . S
C468 C467 1.366 . S
C468 C472 1.385 . S
C469 H444 0.951 . S
C469 C467 1.388 . S
C469 C470 1.366 . S
C470 C469 1.366 . S
C470 C471 1.414 . S
C470 C473 1.499 . S
C471 H445 0.950 . S
C471 C470 1.414 . S
C471 C472 1.374 . S
C472 H446 0.950 . S
C472 C468 1.385 . S
C472 C471 1.374 . S
C473 C470 1.499 . S
C473 C474 1.373 . S
C473 C475 1.389 . S
C474 H447 0.950 . S
C474 C460 1.377 . S
C474 C473 1.373 . S
C475 C459 1.377 . S
C475 C473 1.389 . S
C475 C476 1.524 . S
C476 C475 1.524 . S
C476 C477 1.397 . S
C476 C481 1.363 . S
C477 H448 0.950 . S
C477 C476 1.397 . S
C477 C478 1.334 . S
C478 H449 0.950 . S
C478 C477 1.334 . S
C478 C479 1.287 . S
C479 C478 1.287 . S
C479 C480 1.524 . S
C479 H482 0.999 . S
C480 H450 0.950 . S
C480 C479 1.524 . S
C480 C481 1.415 . S
C481 H451 0.950 . S
C481 C476 1.363 . S
C481 C480 1.415 . S
H482 C479 0.999 . S
H483 C464 0.913 . S
H484 C502 0.951 1_554 S
H485 C504 0.951 . S
H486 C506 0.950 . S
H487 C507 0.950 . S
H488 C509 0.950 . S
H489 C512 0.950 1_556 S
H490 C513 0.949 1_556 S
H491 C515 0.950 . S
H492 C516 0.950 . S
H493 C517 0.951 1_556 S
H494 C519 0.951 . S
H495 C521 0.950 . S
H496 C522 0.950 . S
H497 C524 0.950 . S
H498 C527 0.950 1_554 S
H499 C528 0.949 1_554 S
H500 C530 0.950 . S
H501 C531 0.950 . S
C502 H484 0.951 1_556 S
C502 C503 1.366 . S
C502 C504 1.388 1_556 S
C503 C502 1.366 . S
C503 C507 1.385 . S
C504 H485 0.951 . S
C504 C502 1.388 1_554 S
C504 C505 1.366 1_554 S
C505 C504 1.366 1_556 S
C505 C506 1.414 . S
C505 C508 1.499 . S
C506 H486 0.950 . S
C506 C505 1.414 . S
C506 C507 1.374 . S
C507 H487 0.950 . S
C507 C503 1.385 . S
C507 C506 1.374 . S
C508 C505 1.499 . S
C508 C509 1.373 . S
C508 C510 1.389 1_556 S
C509 H488 0.950 . S
C509 C508 1.373 . S
C509 C525 1.377 . S
C510 C508 1.389 1_554 S
C510 C511 1.524 . S
C510 C524 1.377 . S
C511 C510 1.524 . S
C511 C512 1.397 . S
C511 C516 1.363 . S
C512 H489 0.950 1_554 S
C512 C511 1.397 . S
C512 C513 1.334 . S
C513 H490 0.949 1_554 S
C513 C512 1.334 . S
C513 C514 1.287 . S
C514 C513 1.287 . S
C514 C515 1.524 . S
C514 H533 0.913 . S
C515 H491 0.950 . S
C515 C514 1.524 . S
C515 C516 1.415 . S
C516 H492 0.950 . S
C516 C511 1.363 . S
C516 C515 1.415 . S
C517 H493 0.951 1_554 S
C517 C518 1.366 . S
C517 C519 1.388 1_554 S
C518 C517 1.366 . S
C518 C522 1.385 . S
C519 H494 0.951 . S
C519 C517 1.388 1_556 S
C519 C520 1.366 1_556 S
C520 C519 1.366 1_554 S
C520 C521 1.414 . S
C520 C523 1.499 . S
C521 H495 0.950 . S
C521 C520 1.414 . S
C521 C522 1.374 . S
C522 H496 0.950 . S
C522 C518 1.385 . S
C522 C521 1.374 . S
C523 C520 1.499 . S
C523 C524 1.373 . S
C523 C525 1.389 1_554 S
C524 H497 0.950 . S
C524 C510 1.377 . S
C524 C523 1.373 . S
C525 C509 1.377 . S
C525 C523 1.389 1_556 S
C525 C526 1.524 . S
C526 C525 1.524 . S
C526 C527 1.397 . S
C526 C531 1.363 . S
C527 H498 0.950 1_556 S
C527 C526 1.397 . S
C527 C528 1.334 . S
C528 H499 0.949 1_556 S
C528 C527 1.334 . S
C528 C529 1.287 . S
C529 C528 1.287 . S
C529 C530 1.524 . S
C529 H532 0.999 . S
C530 H500 0.950 . S
C530 C529 1.524 . S
C530 C531 1.415 . S
C531 H501 0.950 . S
C531 C526 1.363 . S
C531 C530 1.415 . S
H532 C529 0.999 . S
H533 C514 0.913 . S
H534 C552 0.951 . S
H535 C554 0.951 . S
H536 C556 0.950 . S
H537 C557 0.950 1_554 S
H538 C559 0.950 . S
H539 C562 0.950 . S
H540 C563 0.950 . S
H541 C565 0.950 . S
H542 C566 0.950 . S
H543 C567 0.951 . S
H544 C569 0.951 . S
H545 C571 0.950 . S
H546 C572 0.950 1_556 S
H547 C574 0.950 . S
H548 C577 0.950 . S
H549 C578 0.950 . S
H550 C580 0.950 . S
H551 C581 0.950 . S
C552 H534 0.951 . S
C552 C553 1.366 . S
C552 C554 1.388 . S
C553 C552 1.366 . S
C553 C557 1.385 . S
C554 H535 0.951 . S
C554 C552 1.388 . S
C554 C555 1.366 . S
C555 C554 1.366 . S
C555 C556 1.414 1_556 S
C555 C558 1.499 . S
C556 H536 0.950 . S
C556 C555 1.414 1_554 S
C556 C557 1.374 1_554 S
C557 H537 0.950 1_556 S
C557 C553 1.385 . S
C557 C556 1.374 1_556 S
C558 C555 1.499 . S
C558 C559 1.373 1_556 S
C558 C560 1.389 . S
C559 H538 0.950 . S
C559 C558 1.373 1_554 S
C559 C575 1.377 . S
C560 C558 1.389 . S
C560 C561 1.524 . S
C560 C574 1.377 . S
C561 C560 1.524 . S
C561 C562 1.397 . S
C561 C566 1.363 . S
C562 H539 0.950 . S
C562 C561 1.397 . S
C562 C563 1.334 . S
C563 H540 0.950 . S
C563 C562 1.334 . S
C563 C564 1.287 . S
C564 C563 1.287 . S
C564 C565 1.524 . S
C564 H583 0.913 . S
C565 H541 0.950 . S
C565 C564 1.524 . S
C565 C566 1.415 . S
C566 H542 0.950 . S
C566 C561 1.363 . S
C566 C565 1.415 . S
C567 H543 0.951 . S
C567 C568 1.366 . S
C567 C569 1.388 . S
C568 C567 1.366 . S
C568 C572 1.385 . S
C569 H544 0.951 . S
C569 C567 1.388 . S
C569 C570 1.366 . S
C570 C569 1.366 . S
C570 C571 1.414 1_554 S
C570 C573 1.499 . S
C571 H545 0.950 . S
C571 C570 1.414 1_556 S
C571 C572 1.374 1_556 S
C572 H546 0.950 1_554 S
C572 C568 1.385 . S
C572 C571 1.374 1_554 S
C573 C570 1.499 . S
C573 C574 1.373 1_554 S
C573 C575 1.389 . S
C574 H547 0.950 . S
C574 C560 1.377 . S
C574 C573 1.373 1_556 S
C575 C559 1.377 . S
C575 C573 1.389 . S
C575 C576 1.524 . S
C576 C575 1.524 . S
C576 C577 1.397 . S
C576 C581 1.363 . S
C577 H548 0.950 . S
C577 C576 1.397 . S
C577 C578 1.334 . S
C578 H549 0.950 . S
C578 C577 1.334 . S
C578 C579 1.287 . S
C579 C578 1.287 . S
C579 C580 1.524 . S
C579 H582 0.999 . S
C580 H550 0.950 . S
C580 C579 1.524 . S
C580 C581 1.415 . S
C581 H551 0.950 . S
C581 C576 1.363 . S
C581 C580 1.415 . S
H582 C579 0.999 . S
H583 C564 0.913 . S
H584 C602 0.951 . S
H585 C604 0.951 . S
H586 C606 0.950 . S
H587 C607 0.950 1_556 S
H588 C609 0.950 . S
H589 C612 0.950 . S
H590 C613 0.950 . S
H591 C615 0.950 . S
H592 C616 0.950 . S
H593 C617 0.951 . S
H594 C619 0.951 . S
H595 C621 0.950 . S
H596 C622 0.950 1_554 S
H597 C624 0.950 . S
H598 C627 0.950 . S
H599 C628 0.950 . S
H600 C630 0.950 . S
H601 C631 0.950 . S
C602 H584 0.951 . S
C602 C603 1.366 . S
C602 C604 1.388 . S
C603 C602 1.366 . S
C603 C607 1.385 . S
C604 H585 0.951 . S
C604 C602 1.388 . S
C604 C605 1.366 . S
C605 C604 1.366 . S
C605 C606 1.414 1_554 S
C605 C608 1.499 . S
C606 H586 0.950 . S
C606 C605 1.414 1_556 S
C606 C607 1.374 1_556 S
C607 H587 0.950 1_554 S
C607 C603 1.385 . S
C607 C606 1.374 1_554 S
C608 C605 1.499 . S
C608 C609 1.373 1_554 S
C608 C610 1.389 . S
C609 H588 0.950 . S
C609 C608 1.373 1_556 S
C609 C625 1.377 . S
C610 C608 1.389 . S
C610 C611 1.524 . S
C610 C624 1.377 . S
C611 C610 1.524 . S
C611 C612 1.397 . S
C611 C616 1.363 . S
C612 H589 0.950 . S
C612 C611 1.397 . S
C612 C613 1.334 . S
C613 H590 0.950 . S
C613 C612 1.334 . S
C613 C614 1.287 . S
C614 C613 1.287 . S
C614 C615 1.524 . S
C614 H633 0.913 . S
C615 H591 0.950 . S
C615 C614 1.524 . S
C615 C616 1.415 . S
C616 H592 0.950 . S
C616 C611 1.363 . S
C616 C615 1.415 . S
C617 H593 0.951 . S
C617 C618 1.366 . S
C617 C619 1.388 . S
C618 C617 1.366 . S
C618 C622 1.385 . S
C619 H594 0.951 . S
C619 C617 1.388 . S
C619 C620 1.366 . S
C620 C619 1.366 . S
C620 C621 1.414 1_556 S
C620 C623 1.499 . S
C621 H595 0.950 . S
C621 C620 1.414 1_554 S
C621 C622 1.374 1_554 S
C622 H596 0.950 1_556 S
C622 C618 1.385 . S
C622 C621 1.374 1_556 S
C623 C620 1.499 . S
C623 C624 1.373 1_556 S
C623 C625 1.389 . S
C624 H597 0.950 . S
C624 C610 1.377 . S
C624 C623 1.373 1_554 S
C625 C609 1.377 . S
C625 C623 1.389 . S
C625 C626 1.524 . S
C626 C625 1.524 . S
C626 C627 1.397 . S
C626 C631 1.363 . S
C627 H598 0.950 . S
C627 C626 1.397 . S
C627 C628 1.334 . S
C628 H599 0.950 . S
C628 C627 1.334 . S
C628 C629 1.287 . S
C629 C628 1.287 . S
C629 C630 1.524 . S
C629 H632 0.999 . S
C630 H600 0.950 . S
C630 C629 1.524 . S
C630 C631 1.415 . S
C631 H601 0.950 . S
C631 C626 1.363 . S
C631 C630 1.415 . S
H632 C629 0.999 . S
H633 C614 0.913 . S
H634 C652 0.951 . S
H635 C654 0.951 . S
H636 C656 0.950 . S
H637 C657 0.950 . S
H638 C659 0.950 . S
H639 C662 0.950 . S
H640 C663 0.950 . S
H641 C665 0.950 . S
H642 C666 0.950 . S
H643 C667 0.951 . S
H644 C669 0.951 . S
H645 C671 0.950 . S
H646 C672 0.950 . S
H647 C674 0.950 . S
H648 C677 0.950 . S
H649 C678 0.950 . S
H650 C680 0.950 . S
H651 C681 0.950 . S
C652 H634 0.951 . S
C652 C653 1.366 . S
C652 C654 1.388 . S
C653 C652 1.366 . S
C653 C657 1.385 . S
C654 H635 0.951 . S
C654 C652 1.388 . S
C654 C655 1.366 . S
C655 C654 1.366 . S
C655 C656 1.414 . S
C655 C658 1.499 . S
C656 H636 0.950 . S
C656 C655 1.414 . S
C656 C657 1.374 . S
C657 H637 0.950 . S
C657 C653 1.385 . S
C657 C656 1.374 . S
C658 C655 1.499 . S
C658 C659 1.373 1_554 S
C658 C660 1.389 . S
C659 H638 0.950 . S
C659 C658 1.373 1_556 S
C659 C675 1.377 . S
C660 C658 1.389 . S
C660 C661 1.524 . S
C660 C674 1.377 . S
C661 C660 1.524 . S
C661 C662 1.397 . S
C661 C666 1.363 . S
C662 H639 0.950 . S
C662 C661 1.397 . S
C662 C663 1.334 . S
C663 H640 0.950 . S
C663 C662 1.334 . S
C663 C664 1.287 . S
C664 C663 1.287 . S
C664 C665 1.524 . S
C664 H683 0.913 . S
C665 H641 0.950 . S
C665 C664 1.524 . S
C665 C666 1.415 . S
C666 H642 0.950 . S
C666 C661 1.363 . S
C666 C665 1.415 . S
C667 H643 0.951 . S
C667 C668 1.366 . S
C667 C669 1.388 . S
C668 C667 1.366 . S
C668 C672 1.385 . S
C669 H644 0.951 . S
C669 C667 1.388 . S
C669 C670 1.366 . S
C670 C669 1.366 . S
C670 C671 1.414 . S
C670 C673 1.499 . S
C671 H645 0.950 . S
C671 C670 1.414 . S
C671 C672 1.374 . S
C672 H646 0.950 . S
C672 C668 1.385 . S
C672 C671 1.374 . S
C673 C670 1.499 . S
C673 C674 1.373 1_556 S
C673 C675 1.389 . S
C674 H647 0.950 . S
C674 C660 1.377 . S
C674 C673 1.373 1_554 S
C675 C659 1.377 . S
C675 C673 1.389 . S
C675 C676 1.524 . S
C676 C675 1.524 . S
C676 C677 1.397 . S
C676 C681 1.363 . S
C677 H648 0.950 . S
C677 C676 1.397 . S
C677 C678 1.334 . S
C678 H649 0.950 . S
C678 C677 1.334 . S
C678 C679 1.287 . S
C679 C678 1.287 . S
C679 C680 1.524 . S
C679 H682 0.999 . S
C680 H650 0.950 . S
C680 C679 1.524 . S
C680 C681 1.415 . S
C681 H651 0.950 . S
C681 C676 1.363 . S
C681 C680 1.415 . S
H682 C679 0.999 . S
H683 C664 0.913 . S
C103 C57 1.802 1_655 S
C118 C15 1.802 1_655 S
C153 C39 1.803 . S
C168 C78 1.802 . S
C203 C81 1.801 . S
C218 C36 1.803 . S
C253 C18 1.801 1_455 S
C268 C60 1.803 1_455 S
C303 C76 1.503 . S
C318 C13 1.503 . S
C353 C55 1.502 . S
C368 C37 1.503 . S
C403 C58 1.503 . S
C418 C34 1.503 . S
C453 C16 1.503 . S
C468 C79 1.503 . S
C503 C77 0.606 . S
C518 C14 0.603 . S
C553 C56 0.604 . S
C568 C38 0.607 . S
C603 C35 0.604 . S
C618 C59 0.607 . S
C653 C17 0.606 . S
C668 C80 0.606 . S
