# Generated by pormake.
# Topology crb, (4)-cn, num edge types: 1
# Building blocks:
#     Node 0, Type 0, BuildingBlock: GALJAG_clean_sbu_0, # of connection points: 4
#     Node 1, Type 0, BuildingBlock: GALJAG_clean_sbu_0, # of connection points: 4
#     Node 2, Type 0, BuildingBlock: GALJAG_clean_sbu_0, # of connection points: 4
#     Node 3, Type 0, BuildingBlock: GALJAG_clean_sbu_0, # of connection points: 4
#     Node 4, Type 0, BuildingBlock: GALJAG_clean_sbu_0, # of connection points: 4
#     Node 5, Type 0, BuildingBlock: GALJAG_clean_sbu_0, # of connection points: 4
#     Node 6, Type 0, BuildingBlock: GALJAG_clean_sbu_0, # of connection points: 4
#     Node 7, Type 0, BuildingBlock: GALJAG_clean_sbu_0, # of connection points: 4
#     Edge 8, Type (0, 0), BuildingBlock: OJICUG_clean_linker_0, # of connection points: 2
#     Edge 9, Type (0, 0), BuildingBlock: OJICUG_clean_linker_0, # of connection points: 2
#     Edge 10, Type (0, 0), BuildingBlock: OJICUG_clean_linker_0, # of connection points: 2
#     Edge 11, Type (0, 0), BuildingBlock: OJICUG_clean_linker_0, # of connection points: 2
#     Edge 12, Type (0, 0), BuildingBlock: OJICUG_clean_linker_0, # of connection points: 2
#     Edge 13, Type (0, 0), BuildingBlock: OJICUG_clean_linker_0, # of connection points: 2
#     Edge 14, Type (0, 0), BuildingBlock: OJICUG_clean_linker_0, # of connection points: 2
#     Edge 15, Type (0, 0), BuildingBlock: OJICUG_clean_linker_0, # of connection points: 2
#     Edge 16, Type (0, 0), BuildingBlock: OJICUG_clean_linker_0, # of connection points: 2
#     Edge 17, Type (0, 0), BuildingBlock: OJICUG_clean_linker_0, # of connection points: 2
#     Edge 18, Type (0, 0), BuildingBlock: OJICUG_clean_linker_0, # of connection points: 2
#     Edge 19, Type (0, 0), BuildingBlock: OJICUG_clean_linker_0, # of connection points: 2
#     Edge 20, Type (0, 0), BuildingBlock: OJICUG_clean_linker_0, # of connection points: 2
#     Edge 21, Type (0, 0), BuildingBlock: OJICUG_clean_linker_0, # of connection points: 2
#     Edge 22, Type (0, 0), BuildingBlock: OJICUG_clean_linker_0, # of connection points: 2
#     Edge 23, Type (0, 0), BuildingBlock: OJICUG_clean_linker_0, # of connection points: 2
# Relax obj value: 0.077
# Max RMSD: 0.151
# Mean RMSD: 0.151
data_MOF--net-crb--node1-GALJAG_clean_sbu_0--edge1-OJICUG_clean_linker_0
_symmetry_space_group_name_H-M    P1
_symmetry_Int_Tables_number       1
_symmetry_cell_setting            triclinic
loop_
_symmetry_equiv_pos_as_xyz
'x, y, z'
_cell_length_a     33.380433
_cell_length_b     33.379899
_cell_length_c     15.809848
_cell_angle_alpha  89.998786
_cell_angle_beta   90.027395
_cell_angle_gamma 89.339788
loop_
_atom_site_label
_atom_site_type_symbol
_atom_site_fract_x
_atom_site_fract_y
_atom_site_fract_z
_atom_type_partial_charge
In0 In 0.33687 0.33322 -0.0072 0.0
O1 O 0.28581 0.32894 0.89735 0.0
O2 O 0.32978 0.28243 0.89791 0.0
C3 C 0.33232 0.41411 -0.00758 0.0
C4 C 0.29811 0.29567 0.11935 0.0
C5 C 0.41748 0.32516 -0.0078 0.0
O6 O 0.33361 0.3937 0.92524 0.0
O7 O 0.33306 0.39371 0.05959 0.0
O8 O 0.39745 0.32946 0.05932 0.0
O9 O 0.39684 0.32463 0.92533 0.0
C10 C 0.29758 0.29595 0.86673 0.0
O11 O 0.33058 0.28257 0.08874 0.0
O12 O 0.28586 0.32829 0.08792 0.0
In13 In 0.67077 0.3341 0.98258 0.0
O14 O 0.69102 0.3218 0.11797 0.0
O15 O 0.68884 0.27244 0.03272 0.0
C16 C 0.68116 0.41454 0.97881 0.0
C17 C 0.71961 0.30826 0.85797 0.0
C18 C 0.59038 0.32357 0.98814 0.0
O19 O 0.69123 0.39333 0.04139 0.0
O20 O 0.6668 0.39516 0.91787 0.0
O21 O 0.61111 0.31444 0.92426 0.0
O22 O 0.61021 0.33706 0.0493 0.0
C23 C 0.69699 0.28479 0.1061 0.0
O24 O 0.68244 0.31365 0.84707 0.0
O25 O 0.73231 0.31685 0.93086 0.0
In26 In 0.67075 0.66799 0.98473 0.0
O27 O 0.67589 0.71993 0.07774 0.0
O28 O 0.72047 0.67406 0.0825 0.0
C29 C 0.58986 0.67238 0.98833 0.0
C30 C 0.7085 0.70679 0.8585 0.0
C31 C 0.67897 0.58743 0.98154 0.0
O32 O 0.61085 0.67061 0.05468 0.0
O33 O 0.60968 0.67223 0.9204 0.0
O34 O 0.68009 0.60741 0.04923 0.0
O35 O 0.67397 0.6081 0.91546 0.0
C36 C 0.70791 0.70716 0.11108 0.0
O37 O 0.72218 0.67497 0.89103 0.0
O38 O 0.67521 0.71835 0.88783 0.0
In39 In 0.33599 0.66802 -0.00547 0.0
O40 O 0.28551 0.67398 0.09109 0.0
O41 O 0.32995 0.71899 0.09004 0.0
C42 C 0.3311 0.58726 -0.00629 0.0
C43 C 0.29691 0.70698 0.86901 0.0
C44 C 0.41673 0.67301 -0.00688 0.0
O45 O 0.33255 0.60747 0.06107 0.0
O46 O 0.3316 0.60782 0.92674 0.0
O47 O 0.39668 0.67196 0.06071 0.0
O48 O 0.39604 0.67204 0.92636 0.0
C49 C 0.29773 0.70652 0.12171 0.0
O50 O 0.32966 0.71895 0.89909 0.0
O51 O 0.28448 0.6747 0.90046 0.0
In52 In 0.83349 0.83685 0.48487 0.0
O53 O 0.78398 0.83128 0.38613 0.0
O54 O 0.82769 0.78469 0.39266 0.0
C55 C 0.82551 0.91743 0.48153 0.0
C56 C 0.79604 0.7981 0.61139 0.0
C57 C 0.91434 0.8322 0.48848 0.0
O58 O 0.82244 0.89735 0.54879 0.0
O59 O 0.83235 0.89686 0.41604 0.0
O60 O 0.89347 0.83622 0.55454 0.0
O61 O 0.89443 0.83024 0.42078 0.0
C62 C 0.79606 0.79785 0.3584 0.0
O63 O 0.82969 0.78698 0.58309 0.0
O64 O 0.78189 0.82946 0.5777 0.0
In65 In 0.16822 0.83613 0.49434 0.0
O66 O 0.21937 0.82965 0.58926 0.0
O67 O 0.17377 0.78584 0.59159 0.0
C68 C 0.17312 0.91689 0.49315 0.0
C69 C 0.2072 0.79711 0.36887 0.0
C70 C 0.08747 0.83117 0.49323 0.0
O71 O 0.17277 0.89667 0.56058 0.0
O72 O 0.17153 0.89635 0.42626 0.0
O73 O 0.10817 0.83075 0.42646 0.0
O74 O 0.10753 0.83359 0.56068 0.0
C75 C 0.20657 0.79772 0.6216 0.0
O76 O 0.17505 0.78455 0.40065 0.0
O77 O 0.21905 0.82998 0.39858 0.0
In78 In 0.16753 0.17094 0.49264 0.0
O79 O 0.1735 0.22107 0.58989 0.0
O80 O 0.21905 0.17619 0.58658 0.0
C81 C 0.08694 0.17918 0.4924 0.0
C82 C 0.20676 0.20823 0.36658 0.0
C83 C 0.17199 0.09005 0.49201 0.0
O84 O 0.10701 0.17414 0.5593 0.0
O85 O 0.10754 0.18033 0.42556 0.0
O86 O 0.16982 0.11047 0.42493 0.0
O87 O 0.17217 0.11043 0.5592 0.0
C88 C 0.2064 0.20837 0.61928 0.0
O89 O 0.21809 0.17484 0.39599 0.0
O90 O 0.17502 0.22216 0.39895 0.0
In91 In 0.83368 0.17078 0.48275 0.0
O92 O 0.81379 0.18308 0.61837 0.0
O93 O 0.81548 0.23237 0.53289 0.0
C94 C 0.82342 0.09034 0.47862 0.0
C95 C 0.78491 0.1965 0.35781 0.0
C96 C 0.91405 0.18133 0.48871 0.0
O97 O 0.81246 0.11158 0.54049 0.0
O98 O 0.83858 0.10969 0.41857 0.0
O99 O 0.89329 0.19086 0.42504 0.0
O100 O 0.89423 0.16747 0.5495 0.0
C101 C 0.80758 0.22005 0.6064 0.0
O102 O 0.82209 0.19116 0.34711 0.0
O103 O 0.77217 0.18792 0.43065 0.0
C104 C 0.33069 0.47962 0.06936 0.0
C105 C 0.33084 0.45839 -0.00739 0.0
H106 H 0.33058 0.53703 0.12985 0.0
C107 C 0.33022 0.47987 0.91619 0.0
H108 H 0.33117 0.46389 0.12928 0.0
C109 C 0.32983 0.52177 0.91652 0.0
C110 C 0.3301 0.54299 -0.00672 0.0
H111 H 0.3303 0.46433 0.85604 0.0
H112 H 0.32967 0.53753 0.85661 0.0
C113 C 0.33034 0.5215 0.06969 0.0
C114 C 0.48343 0.32853 0.06665 0.0
C115 C 0.46168 0.32234 -0.0082 0.0
H116 H 0.54122 0.33374 0.12406 0.0
C117 C 0.48261 0.31466 0.91629 0.0
H118 H 0.46813 0.3345 0.12581 0.0
C119 C 0.52452 0.31387 0.91543 0.0
C120 C 0.54623 0.32111 -0.01009 0.0
H121 H 0.46662 0.3097 0.85765 0.0
H122 H 0.53989 0.30853 0.8561 0.0
C123 C 0.52528 0.3281 0.06564 0.0
C124 C 0.69156 0.47975 0.05341 0.0
C125 C 0.68347 0.4587 0.9785 0.0
H126 H 0.69622 0.53713 0.11322 0.0
C127 C 0.6755 0.4803 0.90399 0.0
H128 H 0.69767 0.46387 0.11184 0.0
C129 C 0.67493 0.52216 0.90463 0.0
C130 C 0.68194 0.54324 0.97999 0.0
H131 H 0.6692 0.46486 0.84529 0.0
H132 H 0.66819 0.53798 0.84643 0.0
C133 C 0.69061 0.52166 0.05423 0.0
C134 C 0.48283 0.67398 0.06812 0.0
C135 C 0.46099 0.67414 -0.00789 0.0
H136 H 0.54077 0.67334 0.12655 0.0
C137 C 0.48186 0.67446 0.91496 0.0
H138 H 0.46757 0.6737 0.12856 0.0
C139 C 0.52373 0.67427 0.91382 0.0
C140 C 0.54558 0.67371 -0.0102 0.0
H141 H 0.46585 0.67455 0.85534 0.0
H142 H 0.53896 0.67423 0.85334 0.0
C143 C 0.52473 0.67376 0.06698 0.0
C144 C 0.83139 0.9827 0.40532 0.0
C145 C 0.82265 0.96163 0.47984 0.0
H146 H 0.83843 0.03997 0.34662 0.0
C147 C 0.8123 0.98322 0.5531 0.0
H148 H 0.83945 0.96688 0.34786 0.0
C149 C 0.81138 0.02513 0.5522 0.0
C150 C 0.82114 0.04617 0.47821 0.0
H151 H 0.80533 0.96776 0.61142 0.0
H152 H 0.80394 0.04103 0.60992 0.0
C153 C 0.8308 0.02455 0.40461 0.0
C154 C 0.0214 0.83267 0.56816 0.0
C155 C 0.04321 0.83009 0.49232 0.0
H156 H 0.96349 0.83535 0.62641 0.0
C157 C 0.02232 0.82743 0.4154 0.0
H158 H 0.03668 0.8348 0.62843 0.0
C159 C 0.98044 0.82771 0.41425 0.0
C160 C 0.95862 0.83072 0.49 0.0
H161 H 0.03832 0.82543 0.35592 0.0
H162 H 0.96518 0.82591 0.35392 0.0
C163 C 0.9795 0.83301 0.56701 0.0
C164 C 0.17278 0.0243 0.41565 0.0
C165 C 0.17343 0.04576 0.49209 0.0
H166 H 0.1723 0.96667 0.35606 0.0
C167 C 0.17483 0.02451 0.56877 0.0
H168 H 0.17171 0.03987 0.35556 0.0
C169 C 0.17516 0.98263 0.56906 0.0
C170 C 0.17414 0.96116 0.49267 0.0
H171 H 0.17535 0.04022 0.6287 0.0
H172 H 0.17591 0.96708 0.6292 0.0
C173 C 0.17314 0.9824 0.41594 0.0
C174 C 0.9792 0.17601 0.56592 0.0
C175 C 0.9582 0.18369 0.4905 0.0
H176 H 0.03638 0.1689 0.62573 0.0
C177 C 0.97986 0.19149 0.41626 0.0
H178 H 0.96329 0.16993 0.62415 0.0
C179 C 0.02177 0.19055 0.41701 0.0
C180 C 0.04274 0.18215 0.49218 0.0
H181 H 0.96445 0.19737 0.35716 0.0
H182 H 0.03772 0.19595 0.35854 0.0
C183 C 0.02105 0.17542 0.56683 0.0
C184 C 0.26625 0.21455 0.27155 0.0
C185 C 0.22985 0.23024 0.30236 0.0
H186 H 0.31659 0.22315 0.18986 0.0
C187 C 0.21635 0.26782 0.27337 0.0
H188 H 0.27748 0.18573 0.29306 0.0
C189 C 0.23879 0.28928 0.21457 0.0
C190 C 0.27518 0.27361 0.18375 0.0
H191 H 0.18848 0.28074 0.29626 0.0
H192 H 0.22753 0.3181 0.19308 0.0
C193 C 0.28872 0.23605 0.2128 0.0
C194 C 0.74439 0.2298 0.14585 0.0
C195 C 0.71602 0.25897 0.17032 0.0
H196 H 0.78934 0.18756 0.18688 0.0
C197 C 0.70848 0.26531 0.25656 0.0
H198 H 0.75089 0.22468 0.07961 0.0
C199 C 0.72944 0.24321 0.31765 0.0
C200 C 0.75927 0.21553 0.29325 0.0
H201 H 0.68675 0.28774 0.27672 0.0
H202 H 0.72371 0.24914 0.38391 0.0
C203 C 0.76639 0.20874 0.20698 0.0
C204 C 0.73796 0.79033 0.25998 0.0
C205 C 0.77387 0.775 0.29405 0.0
H206 H 0.68876 0.78071 0.17571 0.0
C207 C 0.78766 0.73701 0.26825 0.0
H208 H 0.72653 0.81947 0.27894 0.0
C209 C 0.76597 0.71477 0.20946 0.0
C210 C 0.73005 0.73008 0.17541 0.0
H211 H 0.81515 0.72436 0.29373 0.0
H212 H 0.77741 0.68562 0.19051 0.0
C213 C 0.71625 0.76807 0.2012 0.0
C214 C 0.21626 0.73704 0.27596 0.0
C215 C 0.23011 0.7742 0.30485 0.0
H216 H 0.22697 0.68635 0.19576 0.0
C217 C 0.26666 0.78866 0.27401 0.0
H218 H 0.18827 0.72506 0.29888 0.0
C219 C 0.28891 0.76641 0.21528 0.0
C220 C 0.27503 0.72928 0.18627 0.0
H221 H 0.27817 0.81713 0.29542 0.0
H222 H 0.31689 0.7784 0.19229 0.0
C223 C 0.2385 0.7148 0.21721 0.0
C224 C 0.2665 0.78863 0.71495 0.0
C225 C 0.22925 0.77494 0.68622 0.0
H226 H 0.31724 0.77769 0.79494 0.0
C227 C 0.21457 0.73855 0.71751 0.0
H228 H 0.27865 0.81649 0.6917 0.0
C229 C 0.23676 0.71625 0.77631 0.0
C230 C 0.27404 0.72991 0.80494 0.0
H231 H 0.18602 0.72717 0.69626 0.0
H232 H 0.22464 0.68836 0.79951 0.0
C233 C 0.28867 0.76633 0.77376 0.0
C234 C 0.23753 0.28898 0.77342 0.0
C235 C 0.27451 0.27391 0.80247 0.0
H236 H 0.18678 0.27985 0.69305 0.0
C237 C 0.28866 0.2369 0.77168 0.0
H238 H 0.2258 0.31735 0.79635 0.0
C239 C 0.26628 0.21538 0.71282 0.0
C240 C 0.2293 0.23045 0.68374 0.0
H241 H 0.317 0.22446 0.7932 0.0
H242 H 0.27804 0.18702 0.6899 0.0
C243 C 0.21512 0.26743 0.71461 0.0
C244 C 0.73817 0.29605 0.70722 0.0
C245 C 0.74527 0.28924 0.7935 0.0
H246 H 0.75369 0.28016 0.57988 0.0
C247 C 0.7751 0.26156 0.81795 0.0
H248 H 0.71524 0.31725 0.68707 0.0
C249 C 0.79608 0.23947 0.7569 0.0
C250 C 0.78854 0.24583 0.67063 0.0
H251 H 0.78081 0.25561 0.88422 0.0
H252 H 0.8178 0.21704 0.77709 0.0
C253 C 0.76019 0.27502 0.64613 0.0
C254 C 0.71434 0.76547 0.76124 0.0
C255 C 0.73062 0.72976 0.79426 0.0
H256 H 0.72244 0.81524 0.6778 0.0
C257 C 0.76879 0.71695 0.76751 0.0
H258 H 0.68504 0.77616 0.78094 0.0
C259 C 0.79028 0.73942 0.70879 0.0
C260 C 0.77399 0.77512 0.67573 0.0
H261 H 0.78216 0.68963 0.79219 0.0
H262 H 0.81959 0.72874 0.68906 0.0
C263 C 0.73582 0.78793 0.70249 0.0
loop_
_geom_bond_atom_site_label_1
_geom_bond_atom_site_label_2
_geom_bond_distance
_geom_bond_site_symmetry_2
_ccdc_geom_bond_type
In0 O1 2.294 1_554 S
In0 O2 2.326 1_554 S
In0 O6 2.266 1_554 S
In0 O7 2.326 . S
In0 O8 2.266 . S
In0 O9 2.326 1_554 S
In0 O11 2.294 . S
In0 O12 2.326 . S
O1 In0 2.294 1_556 S
O1 C10 1.240 . S
O2 In0 2.326 1_556 S
O2 C10 1.252 . S
C3 O6 1.252 1_554 S
C3 O7 1.260 . S
C4 O11 1.240 . S
C4 O12 1.252 . S
C5 O8 1.252 1_556 S
C5 O9 1.260 . S
O6 In0 2.266 1_556 S
O6 C3 1.252 1_556 S
O7 In0 2.326 . S
O7 C3 1.260 . S
O8 In0 2.266 . S
O8 C5 1.252 1_554 S
O9 In0 2.326 1_556 S
O9 C5 1.260 . S
C10 O1 1.240 . S
C10 O2 1.252 . S
O11 In0 2.294 . S
O11 C4 1.240 . S
O12 In0 2.326 . S
O12 C4 1.252 . S
In13 O14 2.294 . S
In13 O15 2.326 . S
In13 O19 2.266 . S
In13 O20 2.326 1_554 S
In13 O21 2.266 1_554 S
In13 O22 2.326 . S
In13 O24 2.294 1_554 S
In13 O25 2.326 1_554 S
O14 In13 2.294 . S
O14 C23 1.240 . S
O15 In13 2.326 . S
O15 C23 1.252 . S
C16 O19 1.252 1_556 S
C16 O20 1.260 . S
C17 O24 1.240 . S
C17 O25 1.252 . S
C18 O21 1.252 1_554 S
C18 O22 1.260 . S
O19 In13 2.266 . S
O19 C16 1.252 1_554 S
O20 In13 2.326 1_556 S
O20 C16 1.260 . S
O21 In13 2.266 1_556 S
O21 C18 1.252 1_556 S
O22 In13 2.326 . S
O22 C18 1.260 . S
C23 O14 1.240 . S
C23 O15 1.252 . S
O24 In13 2.294 1_556 S
O24 C17 1.240 . S
O25 In13 2.326 1_556 S
O25 C17 1.252 . S
In26 O27 2.294 . S
In26 O28 2.326 . S
In26 O32 2.266 . S
In26 O33 2.326 1_554 S
In26 O34 2.266 1_554 S
In26 O35 2.326 . S
In26 O37 2.294 1_554 S
In26 O38 2.326 1_554 S
O27 In26 2.294 . S
O27 C36 1.240 . S
O28 In26 2.326 . S
O28 C36 1.252 . S
C29 O32 1.252 1_556 S
C29 O33 1.260 . S
C30 O37 1.240 . S
C30 O38 1.252 . S
C31 O34 1.252 1_554 S
C31 O35 1.260 . S
O32 In26 2.266 . S
O32 C29 1.252 1_554 S
O33 In26 2.326 1_556 S
O33 C29 1.260 . S
O34 In26 2.266 1_556 S
O34 C31 1.252 1_556 S
O35 In26 2.326 . S
O35 C31 1.260 . S
C36 O27 1.240 . S
C36 O28 1.252 . S
O37 In26 2.294 1_556 S
O37 C30 1.240 . S
O38 In26 2.326 1_556 S
O38 C30 1.252 . S
In39 O40 2.294 . S
In39 O41 2.326 . S
In39 O45 2.266 . S
In39 O46 2.326 1_554 S
In39 O47 2.266 1_554 S
In39 O48 2.326 . S
In39 O50 2.294 1_554 S
In39 O51 2.326 1_554 S
O40 In39 2.294 . S
O40 C49 1.240 . S
O41 In39 2.326 . S
O41 C49 1.252 . S
C42 O45 1.252 1_556 S
C42 O46 1.260 . S
C43 O50 1.240 . S
C43 O51 1.252 . S
C44 O47 1.252 1_554 S
C44 O48 1.260 . S
O45 In39 2.266 . S
O45 C42 1.252 1_554 S
O46 In39 2.326 1_556 S
O46 C42 1.260 . S
O47 In39 2.266 1_556 S
O47 C44 1.252 1_556 S
O48 In39 2.326 . S
O48 C44 1.260 . S
C49 O40 1.240 . S
C49 O41 1.252 . S
O50 In39 2.294 1_556 S
O50 C43 1.240 . S
O51 In39 2.326 1_556 S
O51 C43 1.252 . S
In52 O53 2.294 . S
In52 O54 2.326 . S
In52 O58 2.266 . S
In52 O59 2.326 . S
In52 O60 2.266 . S
In52 O61 2.326 . S
In52 O63 2.294 . S
In52 O64 2.326 . S
O53 In52 2.294 . S
O53 C62 1.240 . S
O54 In52 2.326 . S
O54 C62 1.252 . S
C55 O58 1.252 . S
C55 O59 1.260 . S
C56 O63 1.240 . S
C56 O64 1.252 . S
C57 O60 1.252 . S
C57 O61 1.260 . S
O58 In52 2.266 . S
O58 C55 1.252 . S
O59 In52 2.326 . S
O59 C55 1.260 . S
O60 In52 2.266 . S
O60 C57 1.252 . S
O61 In52 2.326 . S
O61 C57 1.260 . S
C62 O53 1.240 . S
C62 O54 1.252 . S
O63 In52 2.294 . S
O63 C56 1.240 . S
O64 In52 2.326 . S
O64 C56 1.252 . S
In65 O66 2.294 . S
In65 O67 2.326 . S
In65 O71 2.266 . S
In65 O72 2.326 . S
In65 O73 2.266 . S
In65 O74 2.326 . S
In65 O76 2.294 . S
In65 O77 2.326 . S
O66 In65 2.294 . S
O66 C75 1.240 . S
O67 In65 2.326 . S
O67 C75 1.252 . S
C68 O71 1.252 . S
C68 O72 1.260 . S
C69 O76 1.240 . S
C69 O77 1.252 . S
C70 O73 1.252 . S
C70 O74 1.260 . S
O71 In65 2.266 . S
O71 C68 1.252 . S
O72 In65 2.326 . S
O72 C68 1.260 . S
O73 In65 2.266 . S
O73 C70 1.252 . S
O74 In65 2.326 . S
O74 C70 1.260 . S
C75 O66 1.240 . S
C75 O67 1.252 . S
O76 In65 2.294 . S
O76 C69 1.240 . S
O77 In65 2.326 . S
O77 C69 1.252 . S
In78 O79 2.294 . S
In78 O80 2.326 . S
In78 O84 2.266 . S
In78 O85 2.326 . S
In78 O86 2.266 . S
In78 O87 2.326 . S
In78 O89 2.294 . S
In78 O90 2.326 . S
O79 In78 2.294 . S
O79 C88 1.240 . S
O80 In78 2.326 . S
O80 C88 1.252 . S
C81 O84 1.252 . S
C81 O85 1.260 . S
C82 O89 1.240 . S
C82 O90 1.252 . S
C83 O86 1.252 . S
C83 O87 1.260 . S
O84 In78 2.266 . S
O84 C81 1.252 . S
O85 In78 2.326 . S
O85 C81 1.260 . S
O86 In78 2.266 . S
O86 C83 1.252 . S
O87 In78 2.326 . S
O87 C83 1.260 . S
C88 O79 1.240 . S
C88 O80 1.252 . S
O89 In78 2.294 . S
O89 C82 1.240 . S
O90 In78 2.326 . S
O90 C82 1.252 . S
In91 O92 2.294 . S
In91 O93 2.326 . S
In91 O97 2.266 . S
In91 O98 2.326 . S
In91 O99 2.266 . S
In91 O100 2.326 . S
In91 O102 2.294 . S
In91 O103 2.326 . S
O92 In91 2.294 . S
O92 C101 1.240 . S
O93 In91 2.326 . S
O93 C101 1.252 . S
C94 O97 1.252 . S
C94 O98 1.260 . S
C95 O102 1.240 . S
C95 O103 1.252 . S
C96 O99 1.252 . S
C96 O100 1.260 . S
O97 In91 2.266 . S
O97 C94 1.252 . S
O98 In91 2.326 . S
O98 C94 1.260 . S
O99 In91 2.266 . S
O99 C96 1.252 . S
O100 In91 2.326 . S
O100 C96 1.260 . S
C101 O92 1.240 . S
C101 O93 1.252 . S
O102 In91 2.294 . S
O102 C95 1.240 . S
O103 In91 2.326 . S
O103 C95 1.252 . S
C104 C105 1.387 . S
C104 H108 0.950 . S
C104 C113 1.390 1_554 S
C105 C104 1.387 . S
C105 C107 1.387 . S
H106 C113 0.950 . S
C107 C105 1.387 . S
C107 C109 1.390 1_554 S
C107 H111 0.950 . S
H108 C104 0.950 . S
C109 C107 1.390 1_556 S
C109 C110 1.387 . S
C109 H112 0.950 . S
C110 C109 1.387 . S
C110 C113 1.387 . S
H111 C107 0.950 . S
H112 C109 0.950 . S
C113 C104 1.390 1_556 S
C113 H106 0.950 . S
C113 C110 1.387 . S
C114 C115 1.387 . S
C114 H118 0.950 . S
C114 C123 1.390 1_556 S
C115 C114 1.387 . S
C115 C117 1.387 . S
H116 C123 0.950 . S
C117 C115 1.387 . S
C117 C119 1.390 1_556 S
C117 H121 0.950 . S
H118 C114 0.950 . S
C119 C117 1.390 1_554 S
C119 C120 1.387 . S
C119 H122 0.950 . S
C120 C119 1.387 . S
C120 C123 1.387 . S
H121 C117 0.950 . S
H122 C119 0.950 . S
C123 C114 1.390 1_554 S
C123 H116 0.950 . S
C123 C120 1.387 . S
C124 C125 1.387 . S
C124 H128 0.950 . S
C124 C133 1.390 1_556 S
C125 C124 1.387 . S
C125 C127 1.387 . S
H126 C133 0.950 . S
C127 C125 1.387 . S
C127 C129 1.390 1_556 S
C127 H131 0.950 . S
H128 C124 0.950 . S
C129 C127 1.390 1_554 S
C129 C130 1.387 . S
C129 H132 0.950 . S
C130 C129 1.387 . S
C130 C133 1.387 . S
H131 C127 0.950 . S
H132 C129 0.950 . S
C133 C124 1.390 1_554 S
C133 H126 0.950 . S
C133 C130 1.387 . S
C134 C135 1.387 . S
C134 H138 0.950 . S
C134 C143 1.390 1_554 S
C135 C134 1.387 . S
C135 C137 1.387 . S
H136 C143 0.950 . S
C137 C135 1.387 . S
C137 C139 1.390 1_554 S
C137 H141 0.950 . S
H138 C134 0.950 . S
C139 C137 1.390 1_556 S
C139 C140 1.387 . S
C139 H142 0.950 . S
C140 C139 1.387 . S
C140 C143 1.387 . S
H141 C137 0.950 . S
H142 C139 0.950 . S
C143 C134 1.390 1_556 S
C143 H136 0.950 . S
C143 C140 1.387 . S
C144 C145 1.387 . S
C144 H148 0.950 . S
C144 C153 1.390 1_565 S
C145 C144 1.387 . S
C145 C147 1.387 . S
H146 C153 0.950 . S
C147 C145 1.387 . S
C147 C149 1.390 1_565 S
C147 H151 0.950 . S
H148 C144 0.950 . S
C149 C147 1.390 1_545 S
C149 C150 1.387 . S
C149 H152 0.950 . S
C150 C149 1.387 . S
C150 C153 1.387 . S
H151 C147 0.950 . S
H152 C149 0.950 . S
C153 C144 1.390 1_545 S
C153 H146 0.950 . S
C153 C150 1.387 . S
C154 C155 1.387 . S
C154 H158 0.950 . S
C154 C163 1.390 1_455 S
C155 C154 1.387 . S
C155 C157 1.387 . S
H156 C163 0.950 . S
C157 C155 1.387 . S
C157 C159 1.390 1_455 S
C157 H161 0.950 . S
H158 C154 0.950 . S
C159 C157 1.390 1_655 S
C159 C160 1.387 . S
C159 H162 0.950 . S
C160 C159 1.387 . S
C160 C163 1.387 . S
H161 C157 0.950 . S
H162 C159 0.950 . S
C163 C154 1.390 1_655 S
C163 H156 0.950 . S
C163 C160 1.387 . S
C164 C165 1.387 . S
C164 H168 0.950 . S
C164 C173 1.390 1_545 S
C165 C164 1.387 . S
C165 C167 1.387 . S
H166 C173 0.950 . S
C167 C165 1.387 . S
C167 C169 1.390 1_545 S
C167 H171 0.950 . S
H168 C164 0.950 . S
C169 C167 1.390 1_565 S
C169 C170 1.387 . S
C169 H172 0.950 . S
C170 C169 1.387 . S
C170 C173 1.387 . S
H171 C167 0.950 . S
H172 C169 0.950 . S
C173 C164 1.390 1_565 S
C173 H166 0.950 . S
C173 C170 1.387 . S
C174 C175 1.387 . S
C174 H178 0.950 . S
C174 C183 1.390 1_655 S
C175 C174 1.387 . S
C175 C177 1.387 . S
H176 C183 0.950 . S
C177 C175 1.387 . S
C177 C179 1.390 1_655 S
C177 H181 0.950 . S
H178 C174 0.950 . S
C179 C177 1.390 1_455 S
C179 C180 1.387 . S
C179 H182 0.950 . S
C180 C179 1.387 . S
C180 C183 1.387 . S
H181 C177 0.950 . S
H182 C179 0.950 . S
C183 C174 1.390 1_455 S
C183 H176 0.950 . S
C183 C180 1.387 . S
C184 C185 1.387 . S
C184 H188 0.950 . S
C184 C193 1.390 . S
C185 C184 1.387 . S
C185 C187 1.387 . S
H186 C193 0.950 . S
C187 C185 1.387 . S
C187 C189 1.390 . S
C187 H191 0.950 . S
H188 C184 0.950 . S
C189 C187 1.390 . S
C189 C190 1.387 . S
C189 H192 0.950 . S
C190 C189 1.387 . S
C190 C193 1.387 . S
H191 C187 0.950 . S
H192 C189 0.950 . S
C193 C184 1.390 . S
C193 H186 0.950 . S
C193 C190 1.387 . S
C194 C195 1.387 . S
C194 H198 0.950 . S
C194 C203 1.390 . S
C195 C194 1.387 . S
C195 C197 1.387 . S
H196 C203 0.950 . S
C197 C195 1.387 . S
C197 C199 1.390 . S
C197 H201 0.950 . S
H198 C194 0.950 . S
C199 C197 1.390 . S
C199 C200 1.387 . S
C199 H202 0.950 . S
C200 C199 1.387 . S
C200 C203 1.387 . S
H201 C197 0.950 . S
H202 C199 0.950 . S
C203 C194 1.390 . S
C203 H196 0.950 . S
C203 C200 1.387 . S
C204 C205 1.387 . S
C204 H208 0.950 . S
C204 C213 1.390 . S
C205 C204 1.387 . S
C205 C207 1.387 . S
H206 C213 0.950 . S
C207 C205 1.387 . S
C207 C209 1.390 . S
C207 H211 0.950 . S
H208 C204 0.950 . S
C209 C207 1.390 . S
C209 C210 1.387 . S
C209 H212 0.950 . S
C210 C209 1.387 . S
C210 C213 1.387 . S
H211 C207 0.950 . S
H212 C209 0.950 . S
C213 C204 1.390 . S
C213 H206 0.950 . S
C213 C210 1.387 . S
C214 C215 1.387 . S
C214 H218 0.950 . S
C214 C223 1.390 . S
C215 C214 1.387 . S
C215 C217 1.387 . S
H216 C223 0.950 . S
C217 C215 1.387 . S
C217 C219 1.390 . S
C217 H221 0.950 . S
H218 C214 0.950 . S
C219 C217 1.390 . S
C219 C220 1.387 . S
C219 H222 0.950 . S
C220 C219 1.387 . S
C220 C223 1.387 . S
H221 C217 0.950 . S
H222 C219 0.950 . S
C223 C214 1.390 . S
C223 H216 0.950 . S
C223 C220 1.387 . S
C224 C225 1.387 . S
C224 H228 0.950 . S
C224 C233 1.390 . S
C225 C224 1.387 . S
C225 C227 1.387 . S
H226 C233 0.950 . S
C227 C225 1.387 . S
C227 C229 1.390 . S
C227 H231 0.950 . S
H228 C224 0.950 . S
C229 C227 1.390 . S
C229 C230 1.387 . S
C229 H232 0.950 . S
C230 C229 1.387 . S
C230 C233 1.387 . S
H231 C227 0.950 . S
H232 C229 0.950 . S
C233 C224 1.390 . S
C233 H226 0.950 . S
C233 C230 1.387 . S
C234 C235 1.387 . S
C234 H238 0.950 . S
C234 C243 1.390 . S
C235 C234 1.387 . S
C235 C237 1.387 . S
H236 C243 0.950 . S
C237 C235 1.387 . S
C237 C239 1.390 . S
C237 H241 0.950 . S
H238 C234 0.950 . S
C239 C237 1.390 . S
C239 C240 1.387 . S
C239 H242 0.950 . S
C240 C239 1.387 . S
C240 C243 1.387 . S
H241 C237 0.950 . S
H242 C239 0.950 . S
C243 C234 1.390 . S
C243 H236 0.950 . S
C243 C240 1.387 . S
C244 C245 1.387 . S
C244 H248 0.950 . S
C244 C253 1.390 . S
C245 C244 1.387 . S
C245 C247 1.387 . S
H246 C253 0.950 . S
C247 C245 1.387 . S
C247 C249 1.390 . S
C247 H251 0.950 . S
H248 C244 0.950 . S
C249 C247 1.390 . S
C249 C250 1.387 . S
C249 H252 0.950 . S
C250 C249 1.387 . S
C250 C253 1.387 . S
H251 C247 0.950 . S
H252 C249 0.950 . S
C253 C244 1.390 . S
C253 H246 0.950 . S
C253 C250 1.387 . S
C254 C255 1.387 . S
C254 H258 0.950 . S
C254 C263 1.390 . S
C255 C254 1.387 . S
C255 C257 1.387 . S
H256 C263 0.950 . S
C257 C255 1.387 . S
C257 C259 1.390 . S
C257 H261 0.950 . S
H258 C254 0.950 . S
C259 C257 1.390 . S
C259 C260 1.387 . S
C259 H262 0.950 . S
C260 C259 1.387 . S
C260 C263 1.387 . S
H261 C257 0.950 . S
H262 C259 0.950 . S
C263 C254 1.390 . S
C263 H256 0.950 . S
C263 C260 1.387 . S
C105 C3 1.584 . S
C110 C42 1.584 . S
C115 C5 1.584 . S
C120 C18 1.584 . S
C125 C16 1.582 . S
C130 C31 1.582 . S
C135 C44 1.582 . S
C140 C29 1.582 . S
C145 C55 1.584 . S
C150 C94 1.584 . S
C155 C70 1.584 . S
C160 C57 1.584 . S
C165 C83 1.582 . S
C170 C68 1.582 . S
C175 C96 1.584 . S
C180 C81 1.584 . S
C185 C82 1.543 . S
C190 C4 1.542 . S
C195 C23 1.544 . S
C200 C95 1.542 . S
C205 C62 1.543 . S
C210 C36 1.542 . S
C215 C69 1.543 . S
C220 C49 1.542 . S
C225 C75 1.543 . S
C230 C43 1.544 . S
C235 C10 1.543 . S
C240 C88 1.545 . S
C245 C17 1.543 . S
C250 C101 1.545 . S
C255 C30 1.544 . S
C260 C56 1.544 . S
