# Generated by pormake.
# Topology rho, (4)-cn, num edge types: 1
# Building blocks:
#     Node 0, Type 0, BuildingBlock: ICAMEG_clean_sbu_1, # of connection points: 4
#     Node 1, Type 0, BuildingBlock: ICAMEG_clean_sbu_1, # of connection points: 4
#     Node 2, Type 0, BuildingBlock: ICAMEG_clean_sbu_1, # of connection points: 4
#     Node 3, Type 0, BuildingBlock: ICAMEG_clean_sbu_1, # of connection points: 4
#     Node 4, Type 0, BuildingBlock: ICAMEG_clean_sbu_1, # of connection points: 4
#     Node 5, Type 0, BuildingBlock: ICAMEG_clean_sbu_1, # of connection points: 4
#     Node 6, Type 0, BuildingBlock: ICAMEG_clean_sbu_1, # of connection points: 4
#     Node 7, Type 0, BuildingBlock: ICAMEG_clean_sbu_1, # of connection points: 4
#     Node 8, Type 0, BuildingBlock: ICAMEG_clean_sbu_1, # of connection points: 4
#     Node 9, Type 0, BuildingBlock: ICAMEG_clean_sbu_1, # of connection points: 4
#     Node 10, Type 0, BuildingBlock: ICAMEG_clean_sbu_1, # of connection points: 4
#     Node 11, Type 0, BuildingBlock: ICAMEG_clean_sbu_1, # of connection points: 4
#     Node 12, Type 0, BuildingBlock: ICAMEG_clean_sbu_1, # of connection points: 4
#     Node 13, Type 0, BuildingBlock: ICAMEG_clean_sbu_1, # of connection points: 4
#     Node 14, Type 0, BuildingBlock: ICAMEG_clean_sbu_1, # of connection points: 4
#     Node 15, Type 0, BuildingBlock: ICAMEG_clean_sbu_1, # of connection points: 4
#     Node 16, Type 0, BuildingBlock: ICAMEG_clean_sbu_1, # of connection points: 4
#     Node 17, Type 0, BuildingBlock: ICAMEG_clean_sbu_1, # of connection points: 4
#     Node 18, Type 0, BuildingBlock: ICAMEG_clean_sbu_1, # of connection points: 4
#     Node 19, Type 0, BuildingBlock: ICAMEG_clean_sbu_1, # of connection points: 4
#     Node 20, Type 0, BuildingBlock: ICAMEG_clean_sbu_1, # of connection points: 4
#     Node 21, Type 0, BuildingBlock: ICAMEG_clean_sbu_1, # of connection points: 4
#     Node 22, Type 0, BuildingBlock: ICAMEG_clean_sbu_1, # of connection points: 4
#     Node 23, Type 0, BuildingBlock: ICAMEG_clean_sbu_1, # of connection points: 4
#     Node 24, Type 0, BuildingBlock: ICAMEG_clean_sbu_1, # of connection points: 4
#     Node 25, Type 0, BuildingBlock: ICAMEG_clean_sbu_1, # of connection points: 4
#     Node 26, Type 0, BuildingBlock: ICAMEG_clean_sbu_1, # of connection points: 4
#     Node 27, Type 0, BuildingBlock: ICAMEG_clean_sbu_1, # of connection points: 4
#     Node 28, Type 0, BuildingBlock: ICAMEG_clean_sbu_1, # of connection points: 4
#     Node 29, Type 0, BuildingBlock: ICAMEG_clean_sbu_1, # of connection points: 4
#     Node 30, Type 0, BuildingBlock: ICAMEG_clean_sbu_1, # of connection points: 4
#     Node 31, Type 0, BuildingBlock: ICAMEG_clean_sbu_1, # of connection points: 4
#     Node 32, Type 0, BuildingBlock: ICAMEG_clean_sbu_1, # of connection points: 4
#     Node 33, Type 0, BuildingBlock: ICAMEG_clean_sbu_1, # of connection points: 4
#     Node 34, Type 0, BuildingBlock: ICAMEG_clean_sbu_1, # of connection points: 4
#     Node 35, Type 0, BuildingBlock: ICAMEG_clean_sbu_1, # of connection points: 4
#     Node 36, Type 0, BuildingBlock: ICAMEG_clean_sbu_1, # of connection points: 4
#     Node 37, Type 0, BuildingBlock: ICAMEG_clean_sbu_1, # of connection points: 4
#     Node 38, Type 0, BuildingBlock: ICAMEG_clean_sbu_1, # of connection points: 4
#     Node 39, Type 0, BuildingBlock: ICAMEG_clean_sbu_1, # of connection points: 4
#     Node 40, Type 0, BuildingBlock: ICAMEG_clean_sbu_1, # of connection points: 4
#     Node 41, Type 0, BuildingBlock: ICAMEG_clean_sbu_1, # of connection points: 4
#     Node 42, Type 0, BuildingBlock: ICAMEG_clean_sbu_1, # of connection points: 4
#     Node 43, Type 0, BuildingBlock: ICAMEG_clean_sbu_1, # of connection points: 4
#     Node 44, Type 0, BuildingBlock: ICAMEG_clean_sbu_1, # of connection points: 4
#     Node 45, Type 0, BuildingBlock: ICAMEG_clean_sbu_1, # of connection points: 4
#     Node 46, Type 0, BuildingBlock: ICAMEG_clean_sbu_1, # of connection points: 4
#     Node 47, Type 0, BuildingBlock: ICAMEG_clean_sbu_1, # of connection points: 4
#     Edge 48, Type (0, 0), BuildingBlock: OJICUG_clean_linker_0, # of connection points: 2
#     Edge 49, Type (0, 0), BuildingBlock: OJICUG_clean_linker_0, # of connection points: 2
#     Edge 50, Type (0, 0), BuildingBlock: OJICUG_clean_linker_0, # of connection points: 2
#     Edge 51, Type (0, 0), BuildingBlock: OJICUG_clean_linker_0, # of connection points: 2
#     Edge 52, Type (0, 0), BuildingBlock: OJICUG_clean_linker_0, # of connection points: 2
#     Edge 53, Type (0, 0), BuildingBlock: OJICUG_clean_linker_0, # of connection points: 2
#     Edge 54, Type (0, 0), BuildingBlock: OJICUG_clean_linker_0, # of connection points: 2
#     Edge 55, Type (0, 0), BuildingBlock: OJICUG_clean_linker_0, # of connection points: 2
#     Edge 56, Type (0, 0), BuildingBlock: OJICUG_clean_linker_0, # of connection points: 2
#     Edge 57, Type (0, 0), BuildingBlock: OJICUG_clean_linker_0, # of connection points: 2
#     Edge 58, Type (0, 0), BuildingBlock: OJICUG_clean_linker_0, # of connection points: 2
#     Edge 59, Type (0, 0), BuildingBlock: OJICUG_clean_linker_0, # of connection points: 2
#     Edge 60, Type (0, 0), BuildingBlock: OJICUG_clean_linker_0, # of connection points: 2
#     Edge 61, Type (0, 0), BuildingBlock: OJICUG_clean_linker_0, # of connection points: 2
#     Edge 62, Type (0, 0), BuildingBlock: OJICUG_clean_linker_0, # of connection points: 2
#     Edge 63, Type (0, 0), BuildingBlock: OJICUG_clean_linker_0, # of connection points: 2
#     Edge 64, Type (0, 0), BuildingBlock: OJICUG_clean_linker_0, # of connection points: 2
#     Edge 65, Type (0, 0), BuildingBlock: OJICUG_clean_linker_0, # of connection points: 2
#     Edge 66, Type (0, 0), BuildingBlock: OJICUG_clean_linker_0, # of connection points: 2
#     Edge 67, Type (0, 0), BuildingBlock: OJICUG_clean_linker_0, # of connection points: 2
#     Edge 68, Type (0, 0), BuildingBlock: OJICUG_clean_linker_0, # of connection points: 2
#     Edge 69, Type (0, 0), BuildingBlock: OJICUG_clean_linker_0, # of connection points: 2
#     Edge 70, Type (0, 0), BuildingBlock: OJICUG_clean_linker_0, # of connection points: 2
#     Edge 71, Type (0, 0), BuildingBlock: OJICUG_clean_linker_0, # of connection points: 2
#     Edge 72, Type (0, 0), BuildingBlock: OJICUG_clean_linker_0, # of connection points: 2
#     Edge 73, Type (0, 0), BuildingBlock: OJICUG_clean_linker_0, # of connection points: 2
#     Edge 74, Type (0, 0), BuildingBlock: OJICUG_clean_linker_0, # of connection points: 2
#     Edge 75, Type (0, 0), BuildingBlock: OJICUG_clean_linker_0, # of connection points: 2
#     Edge 76, Type (0, 0), BuildingBlock: OJICUG_clean_linker_0, # of connection points: 2
#     Edge 77, Type (0, 0), BuildingBlock: OJICUG_clean_linker_0, # of connection points: 2
#     Edge 78, Type (0, 0), BuildingBlock: OJICUG_clean_linker_0, # of connection points: 2
#     Edge 79, Type (0, 0), BuildingBlock: OJICUG_clean_linker_0, # of connection points: 2
#     Edge 80, Type (0, 0), BuildingBlock: OJICUG_clean_linker_0, # of connection points: 2
#     Edge 81, Type (0, 0), BuildingBlock: OJICUG_clean_linker_0, # of connection points: 2
#     Edge 82, Type (0, 0), BuildingBlock: OJICUG_clean_linker_0, # of connection points: 2
#     Edge 83, Type (0, 0), BuildingBlock: OJICUG_clean_linker_0, # of connection points: 2
#     Edge 84, Type (0, 0), BuildingBlock: OJICUG_clean_linker_0, # of connection points: 2
#     Edge 85, Type (0, 0), BuildingBlock: OJICUG_clean_linker_0, # of connection points: 2
#     Edge 86, Type (0, 0), BuildingBlock: OJICUG_clean_linker_0, # of connection points: 2
#     Edge 87, Type (0, 0), BuildingBlock: OJICUG_clean_linker_0, # of connection points: 2
#     Edge 88, Type (0, 0), BuildingBlock: OJICUG_clean_linker_0, # of connection points: 2
#     Edge 89, Type (0, 0), BuildingBlock: OJICUG_clean_linker_0, # of connection points: 2
#     Edge 90, Type (0, 0), BuildingBlock: OJICUG_clean_linker_0, # of connection points: 2
#     Edge 91, Type (0, 0), BuildingBlock: OJICUG_clean_linker_0, # of connection points: 2
#     Edge 92, Type (0, 0), BuildingBlock: OJICUG_clean_linker_0, # of connection points: 2
#     Edge 93, Type (0, 0), BuildingBlock: OJICUG_clean_linker_0, # of connection points: 2
#     Edge 94, Type (0, 0), BuildingBlock: OJICUG_clean_linker_0, # of connection points: 2
#     Edge 95, Type (0, 0), BuildingBlock: OJICUG_clean_linker_0, # of connection points: 2
#     Edge 96, Type (0, 0), BuildingBlock: OJICUG_clean_linker_0, # of connection points: 2
#     Edge 97, Type (0, 0), BuildingBlock: OJICUG_clean_linker_0, # of connection points: 2
#     Edge 98, Type (0, 0), BuildingBlock: OJICUG_clean_linker_0, # of connection points: 2
#     Edge 99, Type (0, 0), BuildingBlock: OJICUG_clean_linker_0, # of connection points: 2
#     Edge 100, Type (0, 0), BuildingBlock: OJICUG_clean_linker_0, # of connection points: 2
#     Edge 101, Type (0, 0), BuildingBlock: OJICUG_clean_linker_0, # of connection points: 2
#     Edge 102, Type (0, 0), BuildingBlock: OJICUG_clean_linker_0, # of connection points: 2
#     Edge 103, Type (0, 0), BuildingBlock: OJICUG_clean_linker_0, # of connection points: 2
#     Edge 104, Type (0, 0), BuildingBlock: OJICUG_clean_linker_0, # of connection points: 2
#     Edge 105, Type (0, 0), BuildingBlock: OJICUG_clean_linker_0, # of connection points: 2
#     Edge 106, Type (0, 0), BuildingBlock: OJICUG_clean_linker_0, # of connection points: 2
#     Edge 107, Type (0, 0), BuildingBlock: OJICUG_clean_linker_0, # of connection points: 2
#     Edge 108, Type (0, 0), BuildingBlock: OJICUG_clean_linker_0, # of connection points: 2
#     Edge 109, Type (0, 0), BuildingBlock: OJICUG_clean_linker_0, # of connection points: 2
#     Edge 110, Type (0, 0), BuildingBlock: OJICUG_clean_linker_0, # of connection points: 2
#     Edge 111, Type (0, 0), BuildingBlock: OJICUG_clean_linker_0, # of connection points: 2
#     Edge 112, Type (0, 0), BuildingBlock: OJICUG_clean_linker_0, # of connection points: 2
#     Edge 113, Type (0, 0), BuildingBlock: OJICUG_clean_linker_0, # of connection points: 2
#     Edge 114, Type (0, 0), BuildingBlock: OJICUG_clean_linker_0, # of connection points: 2
#     Edge 115, Type (0, 0), BuildingBlock: OJICUG_clean_linker_0, # of connection points: 2
#     Edge 116, Type (0, 0), BuildingBlock: OJICUG_clean_linker_0, # of connection points: 2
#     Edge 117, Type (0, 0), BuildingBlock: OJICUG_clean_linker_0, # of connection points: 2
#     Edge 118, Type (0, 0), BuildingBlock: OJICUG_clean_linker_0, # of connection points: 2
#     Edge 119, Type (0, 0), BuildingBlock: OJICUG_clean_linker_0, # of connection points: 2
#     Edge 120, Type (0, 0), BuildingBlock: OJICUG_clean_linker_0, # of connection points: 2
#     Edge 121, Type (0, 0), BuildingBlock: OJICUG_clean_linker_0, # of connection points: 2
#     Edge 122, Type (0, 0), BuildingBlock: OJICUG_clean_linker_0, # of connection points: 2
#     Edge 123, Type (0, 0), BuildingBlock: OJICUG_clean_linker_0, # of connection points: 2
#     Edge 124, Type (0, 0), BuildingBlock: OJICUG_clean_linker_0, # of connection points: 2
#     Edge 125, Type (0, 0), BuildingBlock: OJICUG_clean_linker_0, # of connection points: 2
#     Edge 126, Type (0, 0), BuildingBlock: OJICUG_clean_linker_0, # of connection points: 2
#     Edge 127, Type (0, 0), BuildingBlock: OJICUG_clean_linker_0, # of connection points: 2
#     Edge 128, Type (0, 0), BuildingBlock: OJICUG_clean_linker_0, # of connection points: 2
#     Edge 129, Type (0, 0), BuildingBlock: OJICUG_clean_linker_0, # of connection points: 2
#     Edge 130, Type (0, 0), BuildingBlock: OJICUG_clean_linker_0, # of connection points: 2
#     Edge 131, Type (0, 0), BuildingBlock: OJICUG_clean_linker_0, # of connection points: 2
#     Edge 132, Type (0, 0), BuildingBlock: OJICUG_clean_linker_0, # of connection points: 2
#     Edge 133, Type (0, 0), BuildingBlock: OJICUG_clean_linker_0, # of connection points: 2
#     Edge 134, Type (0, 0), BuildingBlock: OJICUG_clean_linker_0, # of connection points: 2
#     Edge 135, Type (0, 0), BuildingBlock: OJICUG_clean_linker_0, # of connection points: 2
#     Edge 136, Type (0, 0), BuildingBlock: OJICUG_clean_linker_0, # of connection points: 2
#     Edge 137, Type (0, 0), BuildingBlock: OJICUG_clean_linker_0, # of connection points: 2
#     Edge 138, Type (0, 0), BuildingBlock: OJICUG_clean_linker_0, # of connection points: 2
#     Edge 139, Type (0, 0), BuildingBlock: OJICUG_clean_linker_0, # of connection points: 2
#     Edge 140, Type (0, 0), BuildingBlock: OJICUG_clean_linker_0, # of connection points: 2
#     Edge 141, Type (0, 0), BuildingBlock: OJICUG_clean_linker_0, # of connection points: 2
#     Edge 142, Type (0, 0), BuildingBlock: OJICUG_clean_linker_0, # of connection points: 2
#     Edge 143, Type (0, 0), BuildingBlock: OJICUG_clean_linker_0, # of connection points: 2
# Relax obj value: 0.062
# Max RMSD: 0.094
# Mean RMSD: 0.094
data_MOF--net-rho--node1-ICAMEG_clean_sbu_1--edge1-OJICUG_clean_linker_0
_symmetry_space_group_name_H-M    P1
_symmetry_Int_Tables_number       1
_symmetry_cell_setting            triclinic
loop_
_symmetry_equiv_pos_as_xyz
'x, y, z'
_cell_length_a     57.871481
_cell_length_b     57.86806
_cell_length_c     57.870088
_cell_angle_alpha  90.020284
_cell_angle_beta   90.019704
_cell_angle_gamma 90.079082
loop_
_atom_site_label
_atom_site_type_symbol
_atom_site_fract_x
_atom_site_fract_y
_atom_site_fract_z
_atom_type_partial_charge
Co0 Co 0.09531 0.28037 0.40972 0.0
Co1 Co 0.09159 0.22118 0.40572 0.0
O2 O 0.10482 0.25083 0.39646 0.0
C3 C 0.08884 0.2892 0.35956 0.0
O4 O 0.07638 0.27026 0.35823 0.0
C5 C 0.14175 0.21236 0.41253 0.0
O6 O 0.14301 0.23109 0.42529 0.0
O7 O 0.09727 0.22793 0.43906 0.0
O8 O 0.09268 0.26637 0.44105 0.0
H9 H 0.04111 0.16863 0.453 0.0
H10 H 0.13821 0.27748 0.38192 0.0
O11 O 0.09791 0.29524 0.37869 0.0
H12 H 0.16293 0.30517 0.45866 0.0
H13 H 0.09894 0.36681 0.41921 0.0
H14 H 0.05969 0.29511 0.44346 0.0
H15 H 0.12179 0.29753 0.45057 0.0
H16 H 0.11084 0.32912 0.40326 0.0
O17 O 0.12269 0.20645 0.40324 0.0
H18 H 0.05764 0.20607 0.44102 0.0
H19 H 0.09833 0.17255 0.38998 0.0
H20 H 0.04738 0.3324 0.46002 0.0
H21 H 0.17953 0.28511 0.38919 0.0
H22 H 0.06706 0.36859 0.44789 0.0
H23 H 0.19213 0.299 0.42782 0.0
O24 O 0.06204 0.27347 0.40376 0.0
H25 H 0.11279 0.21709 0.32164 0.0
H26 H 0.05101 0.20398 0.37882 0.0
H27 H 0.04327 0.1966 0.33757 0.0
H28 H 0.07432 0.20312 0.30866 0.0
H29 H 0.11971 0.22446 0.36306 0.0
H30 H 0.08242 0.13473 0.40157 0.0
H31 H 0.05351 0.13262 0.43322 0.0
O32 O 0.06018 0.235 0.40818 0.0
C33 C 0.09521 0.24665 0.45052 0.0
C34 C 0.05364 0.16933 0.43914 0.0
C35 C 0.07684 0.1503 0.41029 0.0
N36 N 0.07879 0.19151 0.4147 0.0
C37 C 0.06302 0.19049 0.43223 0.0
C38 C 0.08583 0.17176 0.40384 0.0
C39 C 0.06062 0.14913 0.42804 0.0
C40 C 0.14355 0.28369 0.39871 0.0
N41 N 0.1276 0.28713 0.41577 0.0
C42 C 0.16697 0.28791 0.40275 0.0
C43 C 0.17403 0.29567 0.42444 0.0
C44 C 0.15766 0.29913 0.44175 0.0
C45 C 0.13439 0.29471 0.43709 0.0
C46 C 0.09026 0.35115 0.42467 0.0
C47 C 0.06843 0.31077 0.4382 0.0
C48 C 0.09689 0.32977 0.41565 0.0
N49 N 0.08608 0.30992 0.42255 0.0
C50 C 0.06134 0.33184 0.44759 0.0
C51 C 0.07238 0.35214 0.44076 0.0
C52 C 0.05064 0.25469 0.40565 0.0
C53 C 0.09914 0.21414 0.33407 0.0
C54 C 0.06458 0.20695 0.36634 0.0
C55 C 0.06011 0.20268 0.34301 0.0
C56 C 0.07754 0.20633 0.3268 0.0
N57 N 0.08582 0.21459 0.37335 0.0
C58 C 0.10299 0.21821 0.35756 0.0
Co59 Co 0.78006 0.09075 0.40575 0.0
Co60 Co 0.72092 0.09484 0.40958 0.0
O61 O 0.75055 0.1041 0.39632 0.0
C62 C 0.78921 0.14093 0.41203 0.0
O63 O 0.77039 0.14238 0.42463 0.0
C64 C 0.71196 0.08835 0.35942 0.0
O65 O 0.73072 0.07568 0.35809 0.0
O66 O 0.72751 0.06151 0.4037 0.0
O67 O 0.76593 0.05947 0.40847 0.0
H68 H 0.66842 0.04741 0.45996 0.0
H69 H 0.7771 0.11851 0.36282 0.0
O70 O 0.79508 0.12174 0.40302 0.0
H71 H 0.80425 0.04163 0.33811 0.0
H72 H 0.86642 0.08095 0.40183 0.0
H73 H 0.79481 0.05703 0.44138 0.0
H74 H 0.79689 0.04981 0.37926 0.0
H75 H 0.82877 0.09702 0.39004 0.0
O76 O 0.70606 0.0975 0.37853 0.0
H77 H 0.70582 0.05938 0.44337 0.0
H78 H 0.67233 0.11074 0.40308 0.0
H79 H 0.83207 0.04035 0.45358 0.0
H80 H 0.78446 0.11115 0.32147 0.0
H81 H 0.86822 0.05231 0.43375 0.0
H82 H 0.79807 0.07245 0.30889 0.0
O83 O 0.77333 0.09677 0.43903 0.0
H84 H 0.71705 0.17906 0.38887 0.0
H85 H 0.70404 0.12155 0.45037 0.0
H86 H 0.69686 0.16276 0.45837 0.0
H87 H 0.70332 0.19184 0.42747 0.0
H88 H 0.72422 0.13766 0.38168 0.0
H89 H 0.63454 0.09916 0.41906 0.0
H90 H 0.63244 0.06736 0.4478 0.0
O91 O 0.73488 0.09215 0.44092 0.0
C92 C 0.74619 0.05002 0.40585 0.0
C93 C 0.66912 0.06134 0.4475 0.0
C94 C 0.6501 0.09037 0.42453 0.0
N95 N 0.69128 0.08585 0.42241 0.0
C96 C 0.69025 0.06824 0.4381 0.0
C97 C 0.67154 0.09681 0.4155 0.0
C98 C 0.64893 0.07253 0.44066 0.0
C99 C 0.7832 0.10169 0.35748 0.0
N100 N 0.78663 0.08464 0.37344 0.0
C101 C 0.78726 0.09759 0.33405 0.0
C102 C 0.79487 0.07587 0.32699 0.0
C103 C 0.79833 0.05857 0.34337 0.0
C104 C 0.79407 0.06328 0.36665 0.0
C105 C 0.85079 0.07557 0.41058 0.0
C106 C 0.81045 0.06222 0.43258 0.0
C107 C 0.82942 0.08465 0.40401 0.0
N108 N 0.80959 0.07784 0.4149 0.0
C109 C 0.8315 0.05276 0.4396 0.0
C110 C 0.85178 0.0595 0.42848 0.0
C111 C 0.75459 0.09471 0.45045 0.0
C112 C 0.71412 0.16654 0.40246 0.0
C113 C 0.70699 0.13409 0.43686 0.0
C114 C 0.70283 0.15741 0.44148 0.0
C115 C 0.70645 0.17371 0.42413 0.0
N116 N 0.71448 0.12719 0.41555 0.0
C117 C 0.71808 0.14308 0.39846 0.0
Co118 Co 0.90488 0.72048 0.40947 0.0
Co119 Co 0.90877 0.77965 0.40571 0.0
O120 O 0.89556 0.75006 0.3962 0.0
C121 C 0.91159 0.71161 0.35932 0.0
O122 O 0.92423 0.73044 0.35805 0.0
C123 C 0.85857 0.78847 0.41193 0.0
O124 O 0.85718 0.76964 0.42452 0.0
O125 O 0.9027 0.77284 0.43897 0.0
O126 O 0.9074 0.73441 0.44084 0.0
H127 H 0.95883 0.83195 0.45378 0.0
H128 H 0.86216 0.72355 0.38139 0.0
O129 O 0.90238 0.70565 0.37839 0.0
H130 H 0.83689 0.69587 0.45792 0.0
H131 H 0.90089 0.63404 0.41877 0.0
H132 H 0.94028 0.70556 0.44338 0.0
H133 H 0.87811 0.70334 0.45011 0.0
H134 H 0.88921 0.67179 0.40282 0.0
O135 O 0.87774 0.79446 0.40293 0.0
H136 H 0.94235 0.79459 0.44147 0.0
H137 H 0.90234 0.82834 0.39005 0.0
H138 H 0.95235 0.66821 0.45995 0.0
H139 H 0.82076 0.71608 0.38839 0.0
H140 H 0.9326 0.63211 0.44764 0.0
H141 H 0.8079 0.7022 0.42691 0.0
O142 O 0.93821 0.7273 0.40373 0.0
H143 H 0.88855 0.78406 0.32139 0.0
H144 H 0.94971 0.79678 0.37938 0.0
H145 H 0.95795 0.80426 0.33826 0.0
H146 H 0.92722 0.79794 0.30894 0.0
H147 H 0.88112 0.77658 0.3627 0.0
H148 H 0.91821 0.86609 0.40196 0.0
H149 H 0.94675 0.86804 0.43397 0.0
O150 O 0.94009 0.76573 0.40852 0.0
C151 C 0.90477 0.75409 0.45037 0.0
C152 C 0.94646 0.83131 0.43976 0.0
C153 C 0.92364 0.85048 0.41069 0.0
N154 N 0.92154 0.80926 0.41495 0.0
C155 C 0.93711 0.8102 0.43267 0.0
C156 C 0.91467 0.82906 0.40406 0.0
C157 C 0.93966 0.85156 0.42865 0.0
C158 C 0.8567 0.71734 0.39814 0.0
N159 N 0.87254 0.71382 0.41529 0.0
C160 C 0.83324 0.71321 0.40203 0.0
C161 C 0.82603 0.70545 0.42365 0.0
C162 C 0.84228 0.70191 0.44106 0.0
C163 C 0.8656 0.70623 0.43656 0.0
C164 C 0.9096 0.64966 0.42431 0.0
C165 C 0.93151 0.68994 0.43804 0.0
C166 C 0.9031 0.67107 0.41529 0.0
N167 N 0.91394 0.69087 0.42229 0.0
C168 C 0.93846 0.66884 0.44744 0.0
C169 C 0.92739 0.64859 0.44051 0.0
C170 C 0.94962 0.74604 0.40594 0.0
C171 C 0.90206 0.78692 0.33401 0.0
C172 C 0.93627 0.79389 0.36673 0.0
C173 C 0.94102 0.79822 0.34347 0.0
C174 C 0.92377 0.79469 0.32703 0.0
N175 N 0.91493 0.78631 0.37344 0.0
C176 C 0.89793 0.78279 0.35742 0.0
Co177 Co 0.22023 0.90974 0.40453 0.0
Co178 Co 0.27939 0.90588 0.40852 0.0
O179 O 0.24981 0.89647 0.39521 0.0
C180 C 0.21128 0.85961 0.41117 0.0
O181 O 0.23014 0.85835 0.42372 0.0
C182 C 0.28849 0.9122 0.35833 0.0
O183 O 0.26977 0.92493 0.35686 0.0
O184 O 0.27267 0.93917 0.40256 0.0
O185 O 0.23423 0.9411 0.40716 0.0
H186 H 0.33165 0.95371 0.45884 0.0
H187 H 0.22333 0.88177 0.36174 0.0
O188 O 0.20534 0.87868 0.40196 0.0
H189 H 0.1959 0.95841 0.33663 0.0
H190 H 0.13383 0.91915 0.40044 0.0
H191 H 0.2053 0.94359 0.43999 0.0
H192 H 0.20327 0.95048 0.37784 0.0
H193 H 0.17157 0.9032 0.38876 0.0
O194 O 0.2943 0.90315 0.37751 0.0
H195 H 0.29431 0.9415 0.44225 0.0
H196 H 0.32805 0.89015 0.40215 0.0
H197 H 0.16796 0.96016 0.45207 0.0
H198 H 0.21597 0.88889 0.32035 0.0
H199 H 0.13188 0.94793 0.43224 0.0
H200 H 0.2022 0.92746 0.30757 0.0
O201 O 0.22694 0.90392 0.43785 0.0
H202 H 0.2836 0.82162 0.38801 0.0
H203 H 0.29633 0.87937 0.4494 0.0
H204 H 0.30367 0.8382 0.45751 0.0
H205 H 0.29734 0.809 0.42666 0.0
H206 H 0.27626 0.86296 0.38072 0.0
H207 H 0.36578 0.90195 0.41813 0.0
H208 H 0.36773 0.93388 0.44677 0.0
O209 O 0.26538 0.9086 0.43984 0.0
C210 C 0.25395 0.9506 0.40463 0.0
C211 C 0.33102 0.93973 0.44643 0.0
C212 C 0.35018 0.9107 0.42356 0.0
N213 N 0.30898 0.91502 0.42139 0.0
C214 C 0.30992 0.9327 0.43702 0.0
C215 C 0.32877 0.90413 0.41453 0.0
C216 C 0.35126 0.92861 0.43963 0.0
C217 C 0.21717 0.89854 0.35632 0.0
N218 N 0.21366 0.91566 0.37219 0.0
C219 C 0.21311 0.90249 0.33286 0.0
C220 C 0.20541 0.92415 0.32569 0.0
C221 C 0.20188 0.94153 0.34199 0.0
C222 C 0.20615 0.93696 0.36529 0.0
C223 C 0.14943 0.92465 0.40918 0.0
C224 C 0.18969 0.93829 0.43119 0.0
C225 C 0.17085 0.91563 0.40269 0.0
N226 N 0.19063 0.92258 0.41358 0.0
C227 C 0.16859 0.94768 0.43814 0.0
C228 C 0.14835 0.9408 0.42702 0.0
C229 C 0.24565 0.90602 0.44931 0.0
C230 C 0.28646 0.83418 0.40158 0.0
C231 C 0.29344 0.86677 0.43592 0.0
C232 C 0.29769 0.84348 0.44059 0.0
C233 C 0.29415 0.82711 0.42327 0.0
N234 N 0.28594 0.87357 0.41458 0.0
C235 C 0.28241 0.85762 0.39753 0.0
Co236 Co 0.09041 0.77989 0.59587 0.0
Co237 Co 0.09439 0.72073 0.59182 0.0
O238 O 0.10373 0.75032 0.60515 0.0
C239 C 0.14052 0.78888 0.58914 0.0
O240 O 0.14177 0.77001 0.57659 0.0
C241 C 0.08796 0.71165 0.64199 0.0
O242 O 0.07527 0.73039 0.64341 0.0
O243 O 0.06107 0.72738 0.59771 0.0
O244 O 0.05908 0.76584 0.5933 0.0
H245 H 0.04682 0.6684 0.54132 0.0
H246 H 0.11848 0.77681 0.63859 0.0
O247 O 0.12146 0.79482 0.59838 0.0
H248 H 0.04186 0.80411 0.66388 0.0
H249 H 0.08087 0.86628 0.60003 0.0
H250 H 0.05646 0.79479 0.5605 0.0
H251 H 0.0497 0.79677 0.62266 0.0
H252 H 0.09693 0.82856 0.61164 0.0
O253 O 0.09706 0.70581 0.62283 0.0
H254 H 0.05888 0.70575 0.558 0.0
H255 H 0.11019 0.67209 0.59821 0.0
H256 H 0.03979 0.83211 0.5485 0.0
H257 H 0.11145 0.78414 0.68 0.0
H258 H 0.052 0.8682 0.56832 0.0
H259 H 0.07288 0.79783 0.69288 0.0
O260 O 0.09618 0.77321 0.56253 0.0
H261 H 0.1786 0.71667 0.61253 0.0
H262 H 0.12104 0.70386 0.55099 0.0
H263 H 0.16224 0.69662 0.54298 0.0
H264 H 0.19135 0.70299 0.5739 0.0
H265 H 0.13723 0.72391 0.61973 0.0
H266 H 0.09853 0.63435 0.58214 0.0
H267 H 0.0667 0.63236 0.5534 0.0
O268 O 0.09172 0.73474 0.5605 0.0
C269 C 0.04961 0.74609 0.59575 0.0
C270 C 0.06076 0.66905 0.55378 0.0
C271 C 0.08977 0.64994 0.57671 0.0
N272 N 0.08533 0.69112 0.57892 0.0
C273 C 0.06771 0.69016 0.56323 0.0
C274 C 0.09626 0.67135 0.58579 0.0
C275 C 0.07191 0.64883 0.56058 0.0
C276 C 0.10171 0.78294 0.64406 0.0
N277 N 0.08455 0.78643 0.62822 0.0
C278 C 0.09781 0.78699 0.66753 0.0
C279 C 0.07615 0.79464 0.67474 0.0
C280 C 0.05874 0.79816 0.65849 0.0
C281 C 0.06326 0.79391 0.63517 0.0
C282 C 0.07538 0.85067 0.59129 0.0
C283 C 0.06175 0.8104 0.5693 0.0
C284 C 0.08445 0.82927 0.59775 0.0
N285 N 0.07751 0.80947 0.58686 0.0
C286 C 0.0523 0.83149 0.56239 0.0
C287 C 0.05918 0.85173 0.5735 0.0
C288 C 0.09419 0.75449 0.55105 0.0
C289 C 0.16608 0.71378 0.59894 0.0
C290 C 0.1336 0.70676 0.56451 0.0
C291 C 0.1569 0.70257 0.55989 0.0
C292 C 0.17322 0.70613 0.57725 0.0
N293 N 0.12672 0.71424 0.58584 0.0
C294 C 0.14262 0.71778 0.60294 0.0
Co295 Co 0.27966 0.09525 0.59156 0.0
Co296 Co 0.22048 0.09152 0.59527 0.0
O297 O 0.25009 0.10467 0.6048 0.0
C298 C 0.28851 0.08856 0.64172 0.0
O299 O 0.26971 0.07589 0.64298 0.0
C300 C 0.21177 0.14174 0.58906 0.0
O301 O 0.2306 0.1431 0.57648 0.0
O302 O 0.22733 0.09759 0.56203 0.0
O303 O 0.26573 0.09272 0.56017 0.0
H304 H 0.16808 0.04165 0.54711 0.0
H305 H 0.27667 0.13804 0.61956 0.0
O306 O 0.29446 0.09777 0.62264 0.0
H307 H 0.30451 0.16309 0.54302 0.0
H308 H 0.36611 0.09895 0.58237 0.0
H309 H 0.2945 0.05977 0.55771 0.0
H310 H 0.29689 0.12191 0.55089 0.0
H311 H 0.32838 0.1108 0.59823 0.0
O312 O 0.20574 0.12259 0.59807 0.0
H313 H 0.20548 0.05801 0.55947 0.0
H314 H 0.17181 0.09805 0.61092 0.0
H315 H 0.33183 0.04752 0.54124 0.0
H316 H 0.28429 0.1794 0.6125 0.0
H317 H 0.36798 0.06716 0.55358 0.0
H318 H 0.29825 0.19216 0.57398 0.0
O319 O 0.27275 0.06196 0.59733 0.0
H320 H 0.21607 0.11168 0.67961 0.0
H321 H 0.20325 0.05059 0.62156 0.0
H322 H 0.19572 0.04234 0.66267 0.0
H323 H 0.20209 0.07303 0.69202 0.0
H324 H 0.22359 0.11913 0.63831 0.0
H325 H 0.13402 0.0823 0.59896 0.0
H326 H 0.13201 0.0538 0.56691 0.0
O327 O 0.23433 0.06016 0.59243 0.0
C328 C 0.24606 0.09543 0.55063 0.0
C329 C 0.16874 0.054 0.56115 0.0
C330 C 0.14962 0.07684 0.59023 0.0
N331 N 0.19084 0.07883 0.58601 0.0
C332 C 0.18987 0.06327 0.56827 0.0
C333 C 0.17106 0.08574 0.59689 0.0
C334 C 0.14851 0.06084 0.57225 0.0
C335 C 0.28292 0.14345 0.60281 0.0
N336 N 0.2864 0.12757 0.58569 0.0
C337 C 0.28713 0.16689 0.59889 0.0
C338 C 0.29494 0.17404 0.57726 0.0
C339 C 0.29844 0.15775 0.55988 0.0
C340 C 0.29403 0.13445 0.56442 0.0
C341 C 0.35047 0.09029 0.57682 0.0
C342 C 0.31014 0.06849 0.56305 0.0
C343 C 0.32907 0.09689 0.58578 0.0
N344 N 0.30924 0.08609 0.57877 0.0
C345 C 0.33124 0.06144 0.55372 0.0
C346 C 0.35151 0.07246 0.56067 0.0
C347 C 0.25399 0.05059 0.59505 0.0
C348 C 0.21318 0.09818 0.66698 0.0
C349 C 0.20616 0.06401 0.63422 0.0
C350 C 0.2018 0.05925 0.65748 0.0
C351 C 0.20537 0.07648 0.67393 0.0
N352 N 0.21379 0.08535 0.62753 0.0
C353 C 0.21734 0.10232 0.64357 0.0
Co354 Co 0.90954 0.22027 0.59423 0.0
Co355 Co 0.90546 0.27942 0.59055 0.0
O356 O 0.89618 0.24976 0.60373 0.0
C357 C 0.85937 0.21109 0.58794 0.0
O358 O 0.85788 0.22991 0.57535 0.0
C359 C 0.91188 0.28829 0.64074 0.0
O360 O 0.92455 0.26952 0.64205 0.0
O361 O 0.93877 0.2728 0.5965 0.0
O362 O 0.94082 0.23441 0.59153 0.0
H363 H 0.95306 0.33203 0.54044 0.0
H364 H 0.88181 0.22312 0.63718 0.0
O365 O 0.87857 0.20523 0.59693 0.0
H366 H 0.95868 0.19584 0.66175 0.0
H367 H 0.91933 0.13389 0.59783 0.0
H368 H 0.94324 0.20564 0.55853 0.0
H369 H 0.95049 0.20334 0.62063 0.0
H370 H 0.90329 0.17151 0.60979 0.0
O371 O 0.90274 0.29421 0.62162 0.0
H372 H 0.94101 0.29459 0.55688 0.0
H373 H 0.88957 0.328 0.59713 0.0
H374 H 0.95989 0.16842 0.54617 0.0
H375 H 0.8892 0.21562 0.67849 0.0
H376 H 0.94793 0.1322 0.56587 0.0
H377 H 0.92789 0.20193 0.69101 0.0
O378 O 0.90349 0.22709 0.56097 0.0
H379 H 0.82121 0.28325 0.61107 0.0
H380 H 0.87886 0.29642 0.54974 0.0
H381 H 0.83767 0.30363 0.54167 0.0
H382 H 0.80851 0.29708 0.57248 0.0
H383 H 0.86259 0.27604 0.61834 0.0
H384 H 0.90121 0.36584 0.5813 0.0
H385 H 0.93311 0.368 0.55266 0.0
O386 O 0.90821 0.26554 0.55916 0.0
C387 C 0.95026 0.25414 0.59429 0.0
C388 C 0.93909 0.33131 0.55286 0.0
C389 C 0.91001 0.35028 0.57581 0.0
N390 N 0.91449 0.30909 0.57781 0.0
C391 C 0.93215 0.31015 0.56218 0.0
C392 C 0.90353 0.32882 0.58475 0.0
C393 C 0.9279 0.35148 0.55973 0.0
C394 C 0.89864 0.217 0.64249 0.0
N395 N 0.91567 0.2136 0.6265 0.0
C396 C 0.90274 0.21285 0.6659 0.0
C397 C 0.92446 0.2052 0.67292 0.0
C398 C 0.94175 0.20179 0.65652 0.0
C399 C 0.93703 0.20613 0.63325 0.0
C400 C 0.92471 0.14955 0.58914 0.0
C401 C 0.93806 0.18997 0.56728 0.0
C402 C 0.91565 0.1709 0.5958 0.0
N403 N 0.92245 0.19077 0.58497 0.0
C404 C 0.9475 0.16894 0.56016 0.0
C405 C 0.94076 0.14862 0.57121 0.0
C406 C 0.90561 0.24585 0.54959 0.0
C407 C 0.83375 0.28621 0.59752 0.0
C408 C 0.86628 0.29344 0.56321 0.0
C409 C 0.84298 0.29761 0.55856 0.0
C410 C 0.82664 0.29395 0.57586 0.0
N411 N 0.87313 0.28588 0.58452 0.0
C412 C 0.85721 0.28224 0.60156 0.0
Co413 Co 0.72012 0.90483 0.59114 0.0
Co414 Co 0.77931 0.90865 0.59515 0.0
O415 O 0.74966 0.89544 0.60446 0.0
C416 C 0.71124 0.91164 0.64125 0.0
O417 O 0.73013 0.92419 0.64252 0.0
C418 C 0.78806 0.85846 0.58854 0.0
O419 O 0.76928 0.85718 0.57584 0.0
O420 O 0.77258 0.90286 0.56181 0.0
O421 O 0.73412 0.90729 0.55981 0.0
H422 H 0.83186 0.959 0.54775 0.0
H423 H 0.72304 0.86213 0.61924 0.0
O424 O 0.70525 0.90241 0.62218 0.0
H425 H 0.69545 0.83683 0.54266 0.0
H426 H 0.6337 0.90098 0.58162 0.0
H427 H 0.70534 0.9402 0.55715 0.0
H428 H 0.70302 0.87804 0.55046 0.0
H429 H 0.67139 0.88927 0.59769 0.0
O430 O 0.79403 0.87755 0.59772 0.0
H431 H 0.79443 0.9425 0.55976 0.0
H432 H 0.82792 0.90196 0.61093 0.0
H433 H 0.66804 0.9523 0.54046 0.0
H434 H 0.71548 0.82075 0.61225 0.0
H435 H 0.63189 0.93264 0.55269 0.0
H436 H 0.70164 0.80786 0.57371 0.0
O437 O 0.72698 0.93816 0.59687 0.0
H438 H 0.78338 0.88771 0.6793 0.0
H439 H 0.79647 0.94932 0.62193 0.0
H440 H 0.80383 0.95719 0.66315 0.0
H441 H 0.79732 0.92624 0.69217 0.0
H442 H 0.77603 0.88065 0.6379 0.0
H443 H 0.86575 0.91785 0.59932 0.0
H444 H 0.86787 0.94667 0.56759 0.0
O445 O 0.76547 0.94003 0.59258 0.0
C446 C 0.75385 0.90481 0.55034 0.0
C447 C 0.83116 0.94651 0.56165 0.0
C448 C 0.85018 0.92339 0.59058 0.0
N449 N 0.80897 0.92142 0.58614 0.0
C450 C 0.81 0.93715 0.56857 0.0
C451 C 0.82872 0.91441 0.59704 0.0
C452 C 0.85135 0.93957 0.57277 0.0
C453 C 0.71685 0.85667 0.60248 0.0
N454 N 0.7134 0.87249 0.58531 0.0
C455 C 0.71267 0.83321 0.5986 0.0
C456 C 0.70494 0.82599 0.57696 0.0
C457 C 0.70147 0.84223 0.55953 0.0
C458 C 0.70585 0.86554 0.56403 0.0
C459 C 0.64934 0.90965 0.57611 0.0
C460 C 0.68969 0.93147 0.56246 0.0
C461 C 0.67073 0.90314 0.5852 0.0
N462 N 0.69056 0.91394 0.57824 0.0
C463 C 0.66862 0.93844 0.55299 0.0
C464 C 0.64834 0.92741 0.55988 0.0
C465 C 0.74577 0.94956 0.59499 0.0
C466 C 0.78633 0.90132 0.66682 0.0
C467 C 0.7935 0.93579 0.63445 0.0
C468 C 0.79776 0.94033 0.65777 0.0
C469 C 0.79412 0.92295 0.67403 0.0
N470 N 0.78589 0.91452 0.62751 0.0
C471 C 0.78227 0.8974 0.64335 0.0
Co472 Co 0.40963 0.09366 0.28041 0.0
Co473 Co 0.40554 0.09018 0.22125 0.0
O474 O 0.39629 0.10329 0.25094 0.0
C475 C 0.35942 0.08757 0.28942 0.0
O476 O 0.3579 0.07503 0.27056 0.0
C477 C 0.412 0.14039 0.21257 0.0
O478 O 0.42475 0.14166 0.2313 0.0
O479 O 0.43885 0.0961 0.22794 0.0
O480 O 0.4409 0.09092 0.2663 0.0
H481 H 0.45302 0.04019 0.16852 0.0
H482 H 0.38208 0.13672 0.27765 0.0
O483 O 0.37867 0.09643 0.29539 0.0
H484 H 0.45904 0.16099 0.30515 0.0
H485 H 0.41946 0.09703 0.36681 0.0
H486 H 0.44321 0.05784 0.29497 0.0
H487 H 0.45068 0.11991 0.2975 0.0
H488 H 0.40344 0.10911 0.32921 0.0
O489 O 0.40283 0.12129 0.20659 0.0
H490 H 0.44102 0.05654 0.206 0.0
H491 H 0.38962 0.09691 0.17268 0.0
H492 H 0.45983 0.04535 0.33217 0.0
H493 H 0.38962 0.17799 0.2853 0.0
H494 H 0.44795 0.065 0.36844 0.0
H495 H 0.42836 0.19036 0.29909 0.0
O496 O 0.40345 0.06044 0.27346 0.0
H497 H 0.3213 0.11074 0.21742 0.0
H498 H 0.37887 0.04943 0.20407 0.0
H499 H 0.33765 0.04139 0.19679 0.0
H500 H 0.30855 0.07219 0.20343 0.0
H501 H 0.3627 0.11797 0.22469 0.0
H502 H 0.40122 0.08118 0.13481 0.0
H503 H 0.43306 0.05252 0.13258 0.0
O504 O 0.40825 0.05876 0.23503 0.0
C505 C 0.45034 0.09376 0.2466 0.0
C506 C 0.43907 0.05261 0.16927 0.0
C507 C 0.41002 0.07563 0.15035 0.0
N508 N 0.41453 0.07752 0.19155 0.0
C509 C 0.43216 0.06188 0.19045 0.0
C510 C 0.40356 0.08452 0.17184 0.0
C511 C 0.42788 0.05955 0.14911 0.0
C512 C 0.39892 0.14195 0.28382 0.0
N513 N 0.41589 0.12591 0.28719 0.0
C514 C 0.40311 0.16535 0.28805 0.0
C515 C 0.42486 0.17228 0.29576 0.0
C516 C 0.44209 0.15582 0.29915 0.0
C517 C 0.43727 0.13258 0.29472 0.0
C518 C 0.4248 0.08836 0.35112 0.0
C519 C 0.43806 0.06657 0.31066 0.0
C520 C 0.41575 0.09509 0.32979 0.0
N521 N 0.42251 0.0843 0.3099 0.0
C522 C 0.44748 0.05938 0.33168 0.0
C523 C 0.44079 0.0704 0.35202 0.0
C524 C 0.40557 0.04913 0.25466 0.0
C525 C 0.33383 0.09719 0.21442 0.0
C526 C 0.36631 0.0629 0.2071 0.0
C527 C 0.343 0.05826 0.20288 0.0
C528 C 0.32668 0.07555 0.2066 0.0
N529 N 0.37319 0.08418 0.21474 0.0
C530 C 0.35729 0.10121 0.21843 0.0
Co531 Co 0.90877 0.40555 0.21995 0.0
Co532 Co 0.90459 0.40916 0.27913 0.0
O533 O 0.89538 0.396 0.24943 0.0
C534 C 0.85865 0.41205 0.21086 0.0
O535 O 0.85725 0.42456 0.22975 0.0
C536 C 0.91128 0.35899 0.28791 0.0
O537 O 0.92398 0.35779 0.26915 0.0
O538 O 0.93793 0.40343 0.27251 0.0
O539 O 0.94006 0.40815 0.23409 0.0
H540 H 0.95192 0.45939 0.33192 0.0
H541 H 0.88085 0.36267 0.22268 0.0
O542 O 0.87779 0.40298 0.20494 0.0
H543 H 0.95763 0.33794 0.19531 0.0
H544 H 0.91855 0.40208 0.13356 0.0
H545 H 0.94265 0.44118 0.20538 0.0
H546 H 0.94962 0.37907 0.20296 0.0
H547 H 0.90245 0.3901 0.17116 0.0
O548 O 0.90198 0.37803 0.29384 0.0
H549 H 0.93999 0.44298 0.29442 0.0
H550 H 0.88865 0.40238 0.32768 0.0
H551 H 0.95935 0.45356 0.16818 0.0
H552 H 0.88804 0.32135 0.21503 0.0
H553 H 0.9473 0.43396 0.13192 0.0
H554 H 0.92669 0.30876 0.2013 0.0
O555 O 0.90289 0.43882 0.22686 0.0
H556 H 0.82042 0.38813 0.2829 0.0
H557 H 0.8778 0.44978 0.29621 0.0
H558 H 0.83656 0.4576 0.30343 0.0
H559 H 0.80754 0.42662 0.29681 0.0
H560 H 0.86183 0.38112 0.27569 0.0
H561 H 0.90019 0.41817 0.36557 0.0
H562 H 0.93197 0.44698 0.36784 0.0
O563 O 0.90724 0.44058 0.26534 0.0
C564 C 0.94946 0.40556 0.25384 0.0
C565 C 0.938 0.44691 0.33115 0.0
C566 C 0.90898 0.42375 0.35004 0.0
N567 N 0.91353 0.42188 0.30884 0.0
C568 C 0.93113 0.4376 0.30996 0.0
C569 C 0.90256 0.41483 0.32854 0.0
C570 C 0.92681 0.43992 0.3513 0.0
C571 C 0.89765 0.35733 0.21654 0.0
N572 N 0.91476 0.37327 0.2132 0.0
C573 C 0.90165 0.33391 0.21231 0.0
C574 C 0.92335 0.32685 0.20463 0.0
C575 C 0.94072 0.34321 0.20128 0.0
C576 C 0.9361 0.36648 0.2057 0.0
C577 C 0.92397 0.41073 0.14924 0.0
C578 C 0.93742 0.43247 0.1897 0.0
C579 C 0.91488 0.40406 0.17058 0.0
N580 N 0.92173 0.41483 0.19046 0.0
C581 C 0.94689 0.4396 0.16867 0.0
C582 C 0.94011 0.42861 0.14834 0.0
C583 C 0.90484 0.45017 0.24566 0.0
C584 C 0.8329 0.40175 0.2859 0.0
C585 C 0.86528 0.43624 0.2932 0.0
C586 C 0.84195 0.44075 0.29738 0.0
C587 C 0.82569 0.42336 0.29367 0.0
N588 N 0.87222 0.41498 0.2856 0.0
C589 C 0.85638 0.39785 0.28192 0.0
Co590 Co 0.59494 0.90907 0.22039 0.0
Co591 Co 0.59101 0.90496 0.27954 0.0
O592 O 0.60434 0.89576 0.24993 0.0
C593 C 0.5886 0.8589 0.2113 0.0
O594 O 0.57598 0.85745 0.23011 0.0
C595 C 0.64114 0.91177 0.28858 0.0
O596 O 0.64245 0.92449 0.26983 0.0
O597 O 0.59675 0.93832 0.2729 0.0
O598 O 0.59222 0.94036 0.23445 0.0
H599 H 0.54035 0.9521 0.33192 0.0
H600 H 0.63786 0.88135 0.22345 0.0
O601 O 0.59766 0.87808 0.20543 0.0
H602 H 0.66261 0.95821 0.19613 0.0
H603 H 0.59891 0.91879 0.13401 0.0
H604 H 0.55933 0.94276 0.20555 0.0
H605 H 0.62145 0.95001 0.20348 0.0
H606 H 0.61068 0.90277 0.1717 0.0
O607 O 0.62206 0.90248 0.29442 0.0
H608 H 0.55702 0.9402 0.29455 0.0
H609 H 0.59757 0.88914 0.32817 0.0
H610 H 0.54716 0.95939 0.16824 0.0
H611 H 0.6792 0.88873 0.2161 0.0
H612 H 0.567 0.9474 0.13213 0.0
H613 H 0.69182 0.92742 0.2024 0.0
O614 O 0.56165 0.90302 0.22709 0.0
H615 H 0.61217 0.82088 0.28352 0.0
H616 H 0.55037 0.878 0.29648 0.0
H617 H 0.54259 0.83673 0.30372 0.0
H618 H 0.57365 0.80785 0.29728 0.0
H619 H 0.61913 0.86232 0.27629 0.0
H620 H 0.58152 0.90064 0.36593 0.0
H621 H 0.5526 0.93227 0.36795 0.0
O622 O 0.55966 0.90743 0.26556 0.0
C623 C 0.59473 0.94981 0.2542 0.0
C624 C 0.55288 0.93825 0.33126 0.0
C625 C 0.57601 0.90939 0.35035 0.0
N626 N 0.57811 0.91388 0.30916 0.0
C627 C 0.56234 0.9314 0.31014 0.0
C628 C 0.58508 0.90299 0.32892 0.0
C629 C 0.55978 0.92713 0.35147 0.0
C630 C 0.6432 0.89817 0.21732 0.0
N631 N 0.62725 0.9152 0.21383 0.0
C632 C 0.66664 0.90227 0.21326 0.0
C633 C 0.67371 0.92399 0.2056 0.0
C634 C 0.65734 0.94128 0.20209 0.0
C635 C 0.63405 0.93655 0.20634 0.0
C636 C 0.59016 0.92418 0.14963 0.0
C637 C 0.56814 0.93757 0.18992 0.0
C638 C 0.59671 0.91513 0.17101 0.0
N639 N 0.58581 0.92195 0.19082 0.0
C640 C 0.56113 0.94699 0.16884 0.0
C641 C 0.57226 0.94024 0.14859 0.0
C642 C 0.55019 0.9049 0.24582 0.0
C643 C 0.59852 0.8333 0.28644 0.0
C644 C 0.56394 0.86554 0.29354 0.0
C645 C 0.55945 0.8422 0.29774 0.0
C646 C 0.57689 0.826 0.29413 0.0
N647 N 0.58521 0.87257 0.28602 0.0
C648 C 0.60238 0.85679 0.28244 0.0
Co649 Co 0.09495 0.59154 0.28044 0.0
Co650 Co 0.09139 0.59557 0.22124 0.0
O651 O 0.10457 0.6048 0.25093 0.0
C652 C 0.08862 0.64171 0.28936 0.0
O653 O 0.07613 0.64307 0.27045 0.0
C654 C 0.14153 0.58863 0.21254 0.0
O655 O 0.14266 0.57596 0.23133 0.0
O656 O 0.09693 0.56221 0.22796 0.0
O657 O 0.09222 0.56023 0.26639 0.0
H658 H 0.04088 0.5484 0.16856 0.0
H659 H 0.13795 0.61928 0.27767 0.0
O660 O 0.09763 0.62256 0.29535 0.0
H661 H 0.16234 0.54244 0.30521 0.0
H662 H 0.09835 0.582 0.36686 0.0
H663 H 0.05916 0.55787 0.2951 0.0
H664 H 0.12124 0.55061 0.29753 0.0
H665 H 0.11041 0.59794 0.32921 0.0
O666 O 0.12254 0.59797 0.20656 0.0
H667 H 0.05736 0.56033 0.20603 0.0
H668 H 0.0983 0.61133 0.17265 0.0
H669 H 0.04671 0.54132 0.33235 0.0
H670 H 0.17923 0.61192 0.28534 0.0
H671 H 0.06635 0.5534 0.36857 0.0
H672 H 0.19165 0.57324 0.29916 0.0
O673 O 0.06172 0.59754 0.2735 0.0
H674 H 0.11289 0.67962 0.21726 0.0
H675 H 0.05093 0.62254 0.20406 0.0
H676 H 0.04334 0.6638 0.19672 0.0
H677 H 0.07447 0.69267 0.20328 0.0
H678 H 0.11966 0.63818 0.22459 0.0
H679 H 0.08244 0.5998 0.13479 0.0
H680 H 0.05343 0.56819 0.1326 0.0
O681 O 0.05994 0.59313 0.23502 0.0
C682 C 0.09475 0.55075 0.24667 0.0
C683 C 0.05346 0.56224 0.1693 0.0
C684 C 0.0768 0.59107 0.15034 0.0
N685 N 0.07863 0.58662 0.19155 0.0
C686 C 0.0628 0.56911 0.19047 0.0
C687 C 0.08576 0.59749 0.17183 0.0
C688 C 0.06052 0.57334 0.14913 0.0
C689 C 0.14321 0.60246 0.28385 0.0
N690 N 0.1272 0.58543 0.28723 0.0
C691 C 0.16661 0.59837 0.28809 0.0
C692 C 0.17358 0.57666 0.29582 0.0
C693 C 0.15714 0.55937 0.2992 0.0
C694 C 0.1339 0.56408 0.29477 0.0
C695 C 0.08969 0.57657 0.35119 0.0
C696 C 0.06789 0.5631 0.31077 0.0
C697 C 0.0964 0.58557 0.32983 0.0
N698 N 0.08561 0.57871 0.30996 0.0
C699 C 0.06072 0.55372 0.33182 0.0
C700 C 0.07174 0.56052 0.35214 0.0
C701 C 0.05036 0.59561 0.2547 0.0
C702 C 0.0992 0.6672 0.21429 0.0
C703 C 0.06453 0.63499 0.20705 0.0
C704 C 0.06016 0.65833 0.2028 0.0
C705 C 0.07763 0.67451 0.20647 0.0
N706 N 0.08574 0.62795 0.21468 0.0
C707 C 0.10296 0.64371 0.21833 0.0
Co708 Co 0.40872 0.90548 0.71985 0.0
Co709 Co 0.40469 0.90911 0.77904 0.0
O710 O 0.3954 0.89595 0.74937 0.0
C711 C 0.35857 0.91199 0.71089 0.0
O712 O 0.35723 0.92452 0.72977 0.0
C713 C 0.41133 0.85894 0.7878 0.0
O714 O 0.42399 0.85772 0.769 0.0
O715 O 0.43802 0.90336 0.77234 0.0
O716 O 0.44003 0.90807 0.73391 0.0
H717 H 0.45217 0.95936 0.83168 0.0
H718 H 0.38077 0.86262 0.72267 0.0
O719 O 0.37769 0.90291 0.70492 0.0
H720 H 0.45748 0.83781 0.69517 0.0
H721 H 0.41833 0.90189 0.63344 0.0
H722 H 0.44259 0.94107 0.70517 0.0
H723 H 0.44951 0.87895 0.7028 0.0
H724 H 0.40227 0.89 0.67109 0.0
O725 O 0.40209 0.87799 0.79376 0.0
H726 H 0.44015 0.94291 0.79422 0.0
H727 H 0.38886 0.90237 0.82763 0.0
H728 H 0.45925 0.95337 0.66792 0.0
H729 H 0.38792 0.82129 0.71505 0.0
H730 H 0.44712 0.93372 0.63171 0.0
H731 H 0.42653 0.80865 0.70126 0.0
O732 O 0.40287 0.93876 0.72675 0.0
H733 H 0.32051 0.88815 0.78301 0.0
H734 H 0.37798 0.94976 0.79615 0.0
H735 H 0.33676 0.95763 0.80345 0.0
H736 H 0.3077 0.92667 0.79692 0.0
H737 H 0.36191 0.8811 0.77572 0.0
H738 H 0.40048 0.9182 0.86548 0.0
H739 H 0.43228 0.94699 0.86765 0.0
O740 O 0.40734 0.94051 0.76522 0.0
C741 C 0.44949 0.9055 0.75364 0.0
C742 C 0.43825 0.94688 0.83095 0.0
C743 C 0.40925 0.92376 0.84992 0.0
N744 N 0.41371 0.92184 0.80872 0.0
C745 C 0.43132 0.93755 0.80979 0.0
C746 C 0.40278 0.91481 0.82845 0.0
C747 C 0.42709 0.93992 0.85113 0.0
C748 C 0.39756 0.85726 0.7165 0.0
N749 N 0.41467 0.87319 0.7131 0.0
C750 C 0.40153 0.83384 0.71229 0.0
C751 C 0.4232 0.82675 0.70457 0.0
C752 C 0.44058 0.8431 0.70117 0.0
C753 C 0.43599 0.86637 0.70558 0.0
C754 C 0.42378 0.91056 0.6491 0.0
C755 C 0.43732 0.93235 0.6895 0.0
C756 C 0.41471 0.90393 0.67047 0.0
N757 N 0.42161 0.91472 0.69033 0.0
C758 C 0.44677 0.93943 0.66846 0.0
C759 C 0.43994 0.92841 0.64815 0.0
C760 C 0.40489 0.95011 0.74555 0.0
C761 C 0.33301 0.90176 0.78597 0.0
C762 C 0.36544 0.93623 0.79318 0.0
C763 C 0.34212 0.94077 0.7974 0.0
C764 C 0.32583 0.92339 0.79375 0.0
N765 N 0.37235 0.91496 0.78558 0.0
C766 C 0.35648 0.89784 0.78195 0.0
Co767 Co 0.091 0.40543 0.78062 0.0
Co768 Co 0.09525 0.40924 0.72147 0.0
O769 O 0.10439 0.39598 0.75112 0.0
C770 C 0.14115 0.41179 0.78976 0.0
O771 O 0.14263 0.42435 0.77091 0.0
C772 C 0.08855 0.35909 0.71246 0.0
O773 O 0.07579 0.35778 0.73118 0.0
O774 O 0.06189 0.40345 0.72803 0.0
O775 O 0.05973 0.40808 0.76646 0.0
H776 H 0.04813 0.45972 0.66888 0.0
H777 H 0.11877 0.36253 0.7777 0.0
O778 O 0.12195 0.40277 0.79565 0.0
H779 H 0.04189 0.33775 0.80492 0.0
H780 H 0.0811 0.40165 0.86699 0.0
H781 H 0.05722 0.44102 0.7953 0.0
H782 H 0.05005 0.37891 0.7975 0.0
H783 H 0.09721 0.3898 0.82935 0.0
O784 O 0.09783 0.37818 0.70663 0.0
H785 H 0.05996 0.44312 0.70631 0.0
H786 H 0.11122 0.40266 0.67289 0.0
H787 H 0.04051 0.45326 0.83254 0.0
H788 H 0.11142 0.32119 0.78512 0.0
H789 H 0.05245 0.43353 0.86872 0.0
H790 H 0.07272 0.30856 0.79878 0.0
O791 O 0.09702 0.43871 0.77386 0.0
H792 H 0.17938 0.38827 0.71774 0.0
H793 H 0.12216 0.44993 0.70455 0.0
H794 H 0.16343 0.45779 0.69742 0.0
H795 H 0.19236 0.42681 0.70397 0.0
H796 H 0.13794 0.38122 0.72487 0.0
H797 H 0.09978 0.41863 0.63508 0.0
H798 H 0.06809 0.44746 0.63292 0.0
O799 O 0.09267 0.44062 0.73539 0.0
C800 C 0.05034 0.4055 0.74669 0.0
C801 C 0.06201 0.44722 0.6696 0.0
C802 C 0.09098 0.42414 0.65063 0.0
N803 N 0.08638 0.42208 0.6918 0.0
C804 C 0.06882 0.43781 0.69075 0.0
C805 C 0.09734 0.41511 0.67208 0.0
C806 C 0.0732 0.44032 0.64943 0.0
C807 C 0.10194 0.35718 0.78381 0.0
N808 N 0.08489 0.37312 0.78723 0.0
C809 C 0.09786 0.33374 0.78791 0.0
C810 C 0.07613 0.32667 0.79555 0.0
C811 C 0.05882 0.34303 0.79898 0.0
C812 C 0.06353 0.36631 0.79469 0.0
C813 C 0.07573 0.41035 0.85133 0.0
C814 C 0.0624 0.43225 0.81096 0.0
C815 C 0.08483 0.40376 0.82998 0.0
N816 N 0.07803 0.4146 0.81013 0.0
C817 C 0.05292 0.4393 0.832 0.0
C818 C 0.05965 0.42824 0.8523 0.0
C819 C 0.09515 0.45013 0.75511 0.0
C820 C 0.16694 0.40189 0.71477 0.0
C821 C 0.13464 0.43639 0.70754 0.0
C822 C 0.15799 0.44092 0.70341 0.0
C823 C 0.17421 0.42353 0.70707 0.0
N824 N 0.12764 0.41511 0.71506 0.0
C825 C 0.14344 0.39798 0.7187 0.0
Co826 Co 0.59493 0.09181 0.77994 0.0
Co827 Co 0.59107 0.09593 0.72076 0.0
O828 O 0.60436 0.10514 0.7504 0.0
C829 C 0.58839 0.14195 0.78898 0.0
O830 O 0.5758 0.14329 0.77015 0.0
C831 C 0.64118 0.08903 0.71189 0.0
O832 O 0.64237 0.0764 0.73071 0.0
O833 O 0.59664 0.06256 0.7274 0.0
O834 O 0.59229 0.06051 0.76587 0.0
H835 H 0.54033 0.04885 0.66823 0.0
H836 H 0.63778 0.11977 0.77701 0.0
O837 O 0.59754 0.12284 0.79488 0.0
H838 H 0.66268 0.04302 0.80432 0.0
H839 H 0.59881 0.08217 0.86633 0.0
H840 H 0.55938 0.05795 0.79473 0.0
H841 H 0.62151 0.051 0.79686 0.0
H842 H 0.61059 0.09823 0.82865 0.0
O843 O 0.62216 0.09835 0.70595 0.0
H844 H 0.55698 0.06072 0.70564 0.0
H845 H 0.59778 0.11175 0.67216 0.0
H846 H 0.5472 0.04128 0.83201 0.0
H847 H 0.67913 0.1126 0.78447 0.0
H848 H 0.56697 0.05339 0.86816 0.0
H849 H 0.69182 0.07397 0.79817 0.0
O850 O 0.56163 0.09766 0.77316 0.0
H851 H 0.61256 0.17999 0.71678 0.0
H852 H 0.55054 0.12293 0.70378 0.0
H853 H 0.54293 0.1642 0.69651 0.0
H854 H 0.57409 0.19305 0.70297 0.0
H855 H 0.61936 0.13854 0.72403 0.0
H856 H 0.58175 0.10028 0.63435 0.0
H857 H 0.55272 0.06869 0.63224 0.0
O858 O 0.55969 0.09348 0.73466 0.0
C859 C 0.59466 0.05107 0.74611 0.0
C860 C 0.55291 0.06269 0.66893 0.0
C861 C 0.57618 0.09153 0.64991 0.0
N862 N 0.5782 0.08702 0.6911 0.0
C863 C 0.56235 0.06952 0.69007 0.0
C864 C 0.58524 0.09791 0.67136 0.0
C865 C 0.55989 0.07381 0.64874 0.0
C866 C 0.64316 0.10297 0.78314 0.0
N867 N 0.62724 0.08586 0.78657 0.0
C868 C 0.6666 0.09899 0.78726 0.0
C869 C 0.6737 0.07731 0.79493 0.0
C870 C 0.65737 0.05993 0.79837 0.0
C871 C 0.63408 0.06453 0.79405 0.0
C872 C 0.59009 0.07672 0.8507 0.0
C873 C 0.56816 0.0632 0.81037 0.0
C874 C 0.59665 0.08579 0.82932 0.0
N875 N 0.58579 0.0789 0.80949 0.0
C876 C 0.56114 0.05375 0.83143 0.0
C877 C 0.57223 0.06057 0.85171 0.0
C878 C 0.55019 0.09583 0.7544 0.0
C879 C 0.59886 0.16758 0.71385 0.0
C880 C 0.56416 0.13538 0.70672 0.0
C881 C 0.55977 0.15872 0.70251 0.0
C882 C 0.57726 0.1749 0.70613 0.0
N883 N 0.5854 0.12832 0.71426 0.0
C884 C 0.60263 0.14408 0.71785 0.0
Co885 Co 0.90609 0.59056 0.72058 0.0
Co886 Co 0.90969 0.59447 0.77973 0.0
O887 O 0.89653 0.60381 0.7501 0.0
C888 C 0.91227 0.64077 0.71166 0.0
O889 O 0.92486 0.64223 0.73049 0.0
C890 C 0.85947 0.58806 0.78848 0.0
O891 O 0.85814 0.57533 0.76974 0.0
O892 O 0.90374 0.56117 0.77296 0.0
O893 O 0.90885 0.55925 0.73458 0.0
H894 H 0.95974 0.54681 0.83224 0.0
H895 H 0.86306 0.61813 0.72349 0.0
O896 O 0.90332 0.62156 0.70569 0.0
H897 H 0.83868 0.54125 0.69585 0.0
H898 H 0.90253 0.58097 0.63415 0.0
H899 H 0.94187 0.55701 0.70584 0.0
H900 H 0.87979 0.54956 0.70343 0.0
H901 H 0.89054 0.5969 0.67183 0.0
O902 O 0.8786 0.59716 0.79446 0.0
H903 H 0.94334 0.55893 0.79482 0.0
H904 H 0.90303 0.61023 0.82837 0.0
H905 H 0.95426 0.54048 0.66856 0.0
H906 H 0.82177 0.61063 0.71591 0.0
H907 H 0.93454 0.55247 0.63238 0.0
H908 H 0.80935 0.57193 0.70204 0.0
O909 O 0.93932 0.5967 0.72748 0.0
H910 H 0.88917 0.6787 0.78385 0.0
H911 H 0.95046 0.62106 0.79695 0.0
H912 H 0.95853 0.66225 0.80435 0.0
H913 H 0.92774 0.6914 0.79784 0.0
H914 H 0.88192 0.63734 0.77646 0.0
H915 H 0.91882 0.59851 0.86618 0.0
H916 H 0.94747 0.56665 0.86827 0.0
O917 O 0.94109 0.59178 0.7659 0.0
C918 C 0.90605 0.54974 0.75425 0.0
C919 C 0.94732 0.56076 0.83155 0.0
C920 C 0.92434 0.58976 0.8506 0.0
N921 N 0.92239 0.58538 0.80939 0.0
C922 C 0.93802 0.56774 0.8104 0.0
C923 C 0.91542 0.59628 0.82915 0.0
C924 C 0.94042 0.57189 0.85176 0.0
C925 C 0.8578 0.60131 0.71729 0.0
N926 N 0.87383 0.58434 0.71384 0.0
C927 C 0.8344 0.59714 0.7131 0.0
C928 C 0.82744 0.57541 0.70534 0.0
C929 C 0.84388 0.55819 0.70188 0.0
C930 C 0.86713 0.56298 0.70627 0.0
C931 C 0.91123 0.57558 0.64981 0.0
C932 C 0.93311 0.56221 0.69018 0.0
C933 C 0.90455 0.58458 0.67118 0.0
N934 N 0.91539 0.57776 0.69103 0.0
C935 C 0.94024 0.55284 0.66912 0.0
C936 C 0.92918 0.55958 0.64882 0.0
C937 C 0.95068 0.59452 0.74625 0.0
C938 C 0.90272 0.66616 0.7868 0.0
C939 C 0.937 0.63364 0.79398 0.0
C940 C 0.94166 0.65694 0.79827 0.0
C941 C 0.92437 0.67328 0.79462 0.0
N942 N 0.91571 0.62679 0.78634 0.0
C943 C 0.89868 0.64271 0.78272 0.0
Co944 Co 0.22048 0.40461 0.09226 0.0
Co945 Co 0.27967 0.40826 0.09612 0.0
O946 O 0.25002 0.39511 0.10551 0.0
C947 C 0.21161 0.41124 0.14241 0.0
O948 O 0.23048 0.42381 0.14372 0.0
C949 C 0.28835 0.35804 0.08962 0.0
O950 O 0.26956 0.35676 0.07695 0.0
O951 O 0.27285 0.40237 0.06282 0.0
O952 O 0.23443 0.40719 0.06091 0.0
H953 H 0.3322 0.45829 0.04835 0.0
H954 H 0.22335 0.36176 0.12014 0.0
O955 O 0.20564 0.40207 0.12331 0.0
H956 H 0.19555 0.33693 0.04347 0.0
H957 H 0.13403 0.40108 0.08292 0.0
H958 H 0.20573 0.44021 0.0585 0.0
H959 H 0.20325 0.37808 0.05148 0.0
H960 H 0.17172 0.38913 0.0988 0.0
O961 O 0.29436 0.37715 0.09876 0.0
H962 H 0.29476 0.44195 0.06056 0.0
H963 H 0.32831 0.40155 0.11181 0.0
H964 H 0.16844 0.45256 0.042 0.0
H965 H 0.21567 0.32043 0.11294 0.0
H966 H 0.13224 0.43294 0.05422 0.0
H967 H 0.20172 0.30778 0.07435 0.0
O968 O 0.22743 0.43788 0.09815 0.0
H969 H 0.28392 0.38762 0.18034 0.0
H970 H 0.29696 0.449 0.1227 0.0
H971 H 0.30446 0.45701 0.16387 0.0
H972 H 0.29797 0.42617 0.19302 0.0
H973 H 0.27644 0.38042 0.13898 0.0
H974 H 0.36614 0.41729 0.1 0.0
H975 H 0.36823 0.44595 0.06813 0.0
O976 O 0.26587 0.43967 0.09346 0.0
C977 C 0.25412 0.40453 0.0514 0.0
C978 C 0.3315 0.44587 0.06231 0.0
C979 C 0.35056 0.42283 0.09128 0.0
N980 N 0.30933 0.42095 0.08699 0.0
C981 C 0.31035 0.4366 0.06934 0.0
C982 C 0.32909 0.41394 0.09785 0.0
C983 C 0.35172 0.43892 0.0734 0.0
C984 C 0.21712 0.3564 0.10336 0.0
N985 N 0.21368 0.37232 0.08628 0.0
C986 C 0.21287 0.33297 0.09936 0.0
C987 C 0.20507 0.32588 0.0777 0.0
C988 C 0.20162 0.34223 0.06036 0.0
C989 C 0.20606 0.3655 0.06498 0.0
C990 C 0.14968 0.40973 0.07742 0.0
C991 C 0.19007 0.43149 0.06379 0.0
C992 C 0.17107 0.40308 0.0864 0.0
N993 N 0.19092 0.41385 0.07945 0.0
C994 C 0.169 0.4386 0.05444 0.0
C995 C 0.14869 0.42761 0.06131 0.0
C996 C 0.24621 0.44924 0.09606 0.0
C997 C 0.28686 0.40118 0.1678 0.0
C998 C 0.29401 0.43552 0.13527 0.0
C999 C 0.29834 0.44014 0.15856 0.0
C1000 C 0.29472 0.42282 0.1749 0.0
N1001 N 0.28633 0.41424 0.12843 0.0
C1002 C 0.28272 0.39718 0.14435 0.0
Co1003 Co 0.28027 0.59044 0.90643 0.0
Co1004 Co 0.22113 0.59438 0.91014 0.0
O1005 O 0.25075 0.60371 0.8969 0.0
C1006 C 0.28937 0.64066 0.91244 0.0
O1007 O 0.27058 0.64217 0.92507 0.0
C1008 C 0.21213 0.58802 0.85995 0.0
O1009 O 0.23086 0.57531 0.85855 0.0
O1010 O 0.22781 0.5611 0.90415 0.0
O1011 O 0.26618 0.55914 0.90931 0.0
H1012 H 0.16869 0.54662 0.96026 0.0
H1013 H 0.27732 0.61792 0.86332 0.0
O1014 O 0.29525 0.62142 0.90354 0.0
H1015 H 0.30472 0.54097 0.83914 0.0
H1016 H 0.36666 0.58081 0.9028 0.0
H1017 H 0.295 0.55695 0.94229 0.0
H1018 H 0.29724 0.54937 0.88023 0.0
H1019 H 0.329 0.59669 0.89077 0.0
O1020 O 0.20628 0.59713 0.8791 0.0
H1021 H 0.20608 0.55877 0.94378 0.0
H1022 H 0.17251 0.61021 0.90367 0.0
H1023 H 0.33227 0.54047 0.95472 0.0
H1024 H 0.2848 0.61033 0.82204 0.0
H1025 H 0.36845 0.55241 0.93492 0.0
H1026 H 0.29855 0.57159 0.80972 0.0
O1027 O 0.27347 0.59664 0.93965 0.0
H1028 H 0.21713 0.67866 0.8897 0.0
H1029 H 0.20416 0.62092 0.951 0.0
H1030 H 0.19688 0.66209 0.95912 0.0
H1031 H 0.20333 0.69129 0.92832 0.0
H1032 H 0.2244 0.6373 0.88239 0.0
H1033 H 0.13473 0.59847 0.91954 0.0
H1034 H 0.13267 0.56652 0.94813 0.0
O1035 O 0.23507 0.59162 0.9415 0.0
C1036 C 0.24648 0.54965 0.90651 0.0
C1037 C 0.16937 0.56061 0.94787 0.0
C1038 C 0.15031 0.58969 0.925 0.0
N1039 N 0.1915 0.58529 0.92292 0.0
C1040 C 0.1905 0.56761 0.93853 0.0
C1041 C 0.17175 0.59623 0.91603 0.0
C1042 C 0.14917 0.57177 0.94104 0.0
C1043 C 0.28347 0.60108 0.8581 0.0
N1044 N 0.28691 0.58414 0.87417 0.0
C1045 C 0.2876 0.59686 0.8347 0.0
C1046 C 0.29529 0.57511 0.8278 0.0
C1047 C 0.29874 0.55792 0.84429 0.0
C1048 C 0.29441 0.56276 0.86753 0.0
C1049 C 0.35102 0.57544 0.91153 0.0
C1050 C 0.31065 0.56212 0.93349 0.0
C1051 C 0.32965 0.58441 0.90483 0.0
N1052 N 0.30981 0.57762 0.91571 0.0
C1053 C 0.33171 0.55278 0.94065 0.0
C1054 C 0.352 0.5595 0.92955 0.0
C1055 C 0.25474 0.59438 0.95105 0.0
C1056 C 0.21421 0.6661 0.90324 0.0
C1057 C 0.2071 0.63351 0.93753 0.0
C1058 C 0.20289 0.65681 0.94222 0.0
C1059 C 0.20649 0.67317 0.92493 0.0
N1060 N 0.21464 0.6267 0.91621 0.0
C1061 C 0.21822 0.64265 0.89918 0.0
Co1062 Co 0.405 0.21987 0.91025 0.0
Co1063 Co 0.40865 0.27906 0.90653 0.0
O1064 O 0.39551 0.24943 0.89704 0.0
C1065 C 0.41151 0.21111 0.86007 0.0
O1066 O 0.42404 0.23 0.85879 0.0
C1067 C 0.35844 0.28781 0.91288 0.0
O1068 O 0.35709 0.26902 0.92552 0.0
O1069 O 0.40265 0.2722 0.93978 0.0
O1070 O 0.4076 0.2338 0.94163 0.0
H1071 H 0.45857 0.33148 0.95461 0.0
H1072 H 0.36214 0.22281 0.88238 0.0
O1073 O 0.40243 0.20506 0.87918 0.0
H1074 H 0.33733 0.19493 0.95899 0.0
H1075 H 0.40141 0.13342 0.91949 0.0
H1076 H 0.4406 0.20508 0.94401 0.0
H1077 H 0.37848 0.2026 0.951 0.0
H1078 H 0.3895 0.17113 0.90364 0.0
O1079 O 0.37757 0.29379 0.90379 0.0
H1080 H 0.44222 0.29408 0.94226 0.0
H1081 H 0.40206 0.32774 0.8909 0.0
H1082 H 0.45292 0.16777 0.96048 0.0
H1083 H 0.32081 0.21515 0.88955 0.0
H1084 H 0.43327 0.13159 0.94821 0.0
H1085 H 0.30817 0.20116 0.92811 0.0
O1086 O 0.43827 0.22682 0.90437 0.0
H1087 H 0.38831 0.28344 0.82224 0.0
H1088 H 0.4495 0.29634 0.88016 0.0
H1089 H 0.45766 0.30387 0.83903 0.0
H1090 H 0.42692 0.29746 0.80975 0.0
H1091 H 0.38096 0.27592 0.86355 0.0
H1092 H 0.4178 0.36554 0.90285 0.0
H1093 H 0.44635 0.36756 0.93485 0.0
O1094 O 0.44003 0.26524 0.90929 0.0
C1095 C 0.40486 0.25347 0.95118 0.0
C1096 C 0.44619 0.33082 0.9406 0.0
C1097 C 0.42329 0.34993 0.91156 0.0
N1098 N 0.42134 0.3087 0.91577 0.0
C1099 C 0.43693 0.30968 0.93349 0.0
C1100 C 0.4144 0.32849 0.90491 0.0
C1101 C 0.43931 0.35105 0.92952 0.0
C1102 C 0.35678 0.21656 0.89914 0.0
N1103 N 0.37271 0.21309 0.91622 0.0
C1104 C 0.33335 0.21232 0.90313 0.0
C1105 C 0.32627 0.2045 0.92478 0.0
C1106 C 0.34262 0.20102 0.94211 0.0
C1107 C 0.3659 0.20545 0.93751 0.0
C1108 C 0.41008 0.14906 0.92501 0.0
C1109 C 0.43187 0.18943 0.93869 0.0
C1110 C 0.40344 0.17046 0.91605 0.0
N1111 N 0.41423 0.1903 0.92302 0.0
C1112 C 0.43896 0.16835 0.94803 0.0
C1113 C 0.42795 0.14805 0.94112 0.0
C1114 C 0.44962 0.2456 0.90661 0.0
C1115 C 0.40183 0.28634 0.83484 0.0
C1116 C 0.43606 0.29342 0.86752 0.0
C1117 C 0.44077 0.29777 0.84426 0.0
C1118 C 0.42351 0.29419 0.82784 0.0
N1119 N 0.41475 0.28576 0.87426 0.0
C1120 C 0.39774 0.28219 0.85826 0.0
Co1121 Co 0.72009 0.41 0.90447 0.0
Co1122 Co 0.77925 0.40595 0.90833 0.0
O1123 O 0.74962 0.39666 0.89506 0.0
C1124 C 0.71107 0.35987 0.91097 0.0
O1125 O 0.72999 0.35854 0.92343 0.0
C1126 C 0.78828 0.41239 0.85814 0.0
O1127 O 0.76961 0.42517 0.85675 0.0
O1128 O 0.77263 0.43927 0.90245 0.0
O1129 O 0.7342 0.4413 0.90713 0.0
H1130 H 0.83175 0.4535 0.95866 0.0
H1131 H 0.72302 0.38211 0.86161 0.0
O1132 O 0.70511 0.37899 0.90186 0.0
H1133 H 0.69577 0.45889 0.83673 0.0
H1134 H 0.63372 0.41968 0.90059 0.0
H1135 H 0.70535 0.44381 0.94004 0.0
H1136 H 0.7032 0.45085 0.8779 0.0
H1137 H 0.67138 0.40363 0.88879 0.0
O1138 O 0.7941 0.40324 0.87729 0.0
H1139 H 0.79434 0.44145 0.94211 0.0
H1140 H 0.82785 0.39009 0.90183 0.0
H1141 H 0.66808 0.46047 0.95223 0.0
H1142 H 0.71559 0.38934 0.82025 0.0
H1143 H 0.63192 0.4484 0.93245 0.0
H1144 H 0.70192 0.42799 0.80758 0.0
O1145 O 0.72686 0.40408 0.93776 0.0
H1146 H 0.78316 0.32172 0.88762 0.0
H1147 H 0.7962 0.37929 0.94911 0.0
H1148 H 0.80342 0.33808 0.95711 0.0
H1149 H 0.79694 0.30897 0.92621 0.0
H1150 H 0.77594 0.36311 0.88044 0.0
H1151 H 0.86565 0.40174 0.91776 0.0
H1152 H 0.86775 0.43359 0.94648 0.0
O1153 O 0.76531 0.40864 0.93968 0.0
C1154 C 0.75394 0.45076 0.90456 0.0
C1155 C 0.83105 0.43955 0.94621 0.0
C1156 C 0.85008 0.41052 0.92324 0.0
N1157 N 0.80889 0.41497 0.92116 0.0
C1158 C 0.80992 0.43261 0.93683 0.0
C1159 C 0.82863 0.40403 0.91424 0.0
C1160 C 0.85125 0.42839 0.93935 0.0
C1161 C 0.7169 0.39892 0.85624 0.0
N1162 N 0.71348 0.41601 0.87216 0.0
C1163 C 0.7128 0.40293 0.83279 0.0
C1164 C 0.70515 0.42463 0.82569 0.0
C1165 C 0.70171 0.44198 0.84204 0.0
C1166 C 0.70601 0.43734 0.86533 0.0
C1167 C 0.64936 0.42511 0.90931 0.0
C1168 C 0.6897 0.43858 0.93125 0.0
C1169 C 0.67073 0.41604 0.90274 0.0
N1170 N 0.69056 0.42291 0.91361 0.0
C1171 C 0.66865 0.44802 0.93828 0.0
C1172 C 0.64836 0.44123 0.92718 0.0
C1173 C 0.7456 0.4061 0.94919 0.0
C1174 C 0.78609 0.33424 0.90121 0.0
C1175 C 0.79324 0.36673 0.93561 0.0
C1176 C 0.79742 0.34342 0.94022 0.0
C1177 C 0.7938 0.3271 0.92287 0.0
N1178 N 0.78571 0.37361 0.9143 0.0
C1179 C 0.78211 0.35771 0.89722 0.0
Co1180 Co 0.59533 0.78035 0.90869 0.0
Co1181 Co 0.59169 0.72117 0.90457 0.0
O1182 O 0.60485 0.75086 0.89534 0.0
C1183 C 0.58876 0.7893 0.85856 0.0
O1184 O 0.57627 0.77039 0.85719 0.0
C1185 C 0.64187 0.71247 0.91126 0.0
O1186 O 0.64311 0.73122 0.92399 0.0
O1187 O 0.59744 0.72786 0.93792 0.0
O1188 O 0.59278 0.76629 0.93998 0.0
H1189 H 0.54142 0.66844 0.95188 0.0
H1190 H 0.63817 0.77758 0.88078 0.0
O1191 O 0.59786 0.79529 0.87768 0.0
H1192 H 0.66304 0.80513 0.95752 0.0
H1193 H 0.59888 0.86677 0.91837 0.0
H1194 H 0.55977 0.79498 0.94254 0.0
H1195 H 0.62189 0.79746 0.94951 0.0
H1196 H 0.61079 0.82914 0.9023 0.0
O1197 O 0.62281 0.7065 0.90201 0.0
H1198 H 0.55785 0.70593 0.93992 0.0
H1199 H 0.59847 0.67258 0.88873 0.0
H1200 H 0.54746 0.83221 0.95922 0.0
H1201 H 0.6795 0.78525 0.88797 0.0
H1202 H 0.56707 0.86845 0.94713 0.0
H1203 H 0.69217 0.79906 0.9266 0.0
O1204 O 0.56206 0.77342 0.90279 0.0
H1205 H 0.6127 0.71728 0.82043 0.0
H1206 H 0.55107 0.70396 0.87774 0.0
H1207 H 0.54325 0.69665 0.8365 0.0
H1208 H 0.57421 0.70327 0.80752 0.0
H1209 H 0.61971 0.72458 0.86186 0.0
H1210 H 0.58266 0.63471 0.90028 0.0
H1211 H 0.55384 0.63249 0.932 0.0
O1212 O 0.56026 0.73494 0.90714 0.0
C1213 C 0.59537 0.74656 0.94942 0.0
C1214 C 0.55391 0.66919 0.93799 0.0
C1215 C 0.57708 0.65026 0.90905 0.0
N1216 N 0.57896 0.69146 0.91353 0.0
C1217 C 0.56323 0.69037 0.9311 0.0
C1218 C 0.58602 0.67175 0.90262 0.0
C1219 C 0.5609 0.64902 0.92684 0.0
C1220 C 0.64354 0.78376 0.89757 0.0
N1221 N 0.62762 0.78714 0.91467 0.0
C1222 C 0.66697 0.788 0.90157 0.0
C1223 C 0.67407 0.79573 0.92325 0.0
C1224 C 0.65773 0.79912 0.94062 0.0
C1225 C 0.63446 0.79469 0.936 0.0
C1226 C 0.59023 0.8511 0.92381 0.0
C1227 C 0.56848 0.81066 0.9373 0.0
C1228 C 0.59686 0.82974 0.91473 0.0
N1229 N 0.58609 0.80987 0.9216 0.0
C1230 C 0.56139 0.83169 0.94675 0.0
C1231 C 0.57239 0.85202 0.93995 0.0
C1232 C 0.55069 0.75461 0.90468 0.0
C1233 C 0.59908 0.71428 0.8329 0.0
C1234 C 0.56461 0.70697 0.86524 0.0
C1235 C 0.56009 0.70274 0.84191 0.0
C1236 C 0.57748 0.70645 0.82566 0.0
N1237 N 0.58585 0.71463 0.87221 0.0
C1238 C 0.60298 0.71831 0.85638 0.0
Co1239 Co 0.78036 0.59536 0.09071 0.0
Co1240 Co 0.72117 0.59166 0.09457 0.0
O1241 O 0.75082 0.60479 0.104 0.0
C1242 C 0.78917 0.58862 0.14086 0.0
O1243 O 0.77031 0.57604 0.1421 0.0
C1244 C 0.71248 0.64187 0.08822 0.0
O1245 O 0.73128 0.64318 0.07559 0.0
O1246 O 0.72796 0.59764 0.0613 0.0
O1247 O 0.76638 0.59292 0.05934 0.0
H1248 H 0.66862 0.54169 0.04668 0.0
H1249 H 0.77746 0.63808 0.11882 0.0
O1250 O 0.7952 0.59778 0.12178 0.0
H1251 H 0.8052 0.6633 0.0423 0.0
H1252 H 0.86679 0.59903 0.08137 0.0
H1253 H 0.79511 0.55996 0.05673 0.0
H1254 H 0.79755 0.62211 0.05007 0.0
H1255 H 0.8291 0.61084 0.09736 0.0
O1256 O 0.70647 0.62275 0.09731 0.0
H1257 H 0.70606 0.55806 0.0589 0.0
H1258 H 0.67254 0.59829 0.1103 0.0
H1259 H 0.83241 0.54776 0.04013 0.0
H1260 H 0.7851 0.67945 0.11186 0.0
H1261 H 0.86859 0.56735 0.05246 0.0
H1262 H 0.79902 0.69229 0.07334 0.0
O1263 O 0.77343 0.56205 0.09642 0.0
H1264 H 0.71699 0.61207 0.17886 0.0
H1265 H 0.70395 0.55083 0.12102 0.0
H1266 H 0.69652 0.5427 0.16217 0.0
H1267 H 0.703 0.57347 0.19141 0.0
H1268 H 0.72441 0.61939 0.13752 0.0
H1269 H 0.63471 0.58253 0.09848 0.0
H1270 H 0.63261 0.55394 0.06653 0.0
O1271 O 0.73498 0.56028 0.0918 0.0
C1272 C 0.74668 0.59557 0.04985 0.0
C1273 C 0.66932 0.55409 0.06068 0.0
C1274 C 0.65029 0.57703 0.08973 0.0
N1275 N 0.6915 0.57897 0.08541 0.0
C1276 C 0.69048 0.56337 0.06771 0.0
C1277 C 0.67175 0.58593 0.09631 0.0
C1278 C 0.64912 0.56098 0.07181 0.0
C1279 C 0.78368 0.64352 0.10207 0.0
N1280 N 0.78713 0.62769 0.08491 0.0
C1281 C 0.78791 0.66697 0.09821 0.0
C1282 C 0.79569 0.67417 0.07659 0.0
C1283 C 0.79915 0.65792 0.05916 0.0
C1284 C 0.79473 0.63462 0.06364 0.0
C1285 C 0.85114 0.59039 0.07583 0.0
C1286 C 0.81077 0.56866 0.06208 0.0
C1287 C 0.82976 0.59697 0.08486 0.0
N1288 N 0.80991 0.5862 0.07786 0.0
C1289 C 0.83184 0.56163 0.05266 0.0
C1290 C 0.85214 0.57262 0.05961 0.0
C1291 C 0.75464 0.55069 0.0943 0.0
C1292 C 0.71405 0.59854 0.16627 0.0
C1293 C 0.7069 0.56428 0.13364 0.0
C1294 C 0.7026 0.5596 0.15692 0.0
C1295 C 0.70623 0.57687 0.17331 0.0
N1296 N 0.71454 0.58559 0.12687 0.0
C1297 C 0.71815 0.60261 0.14284 0.0
Co1298 Co 0.41 0.7198 0.09387 0.0
Co1299 Co 0.40587 0.77894 0.09021 0.0
O1300 O 0.39665 0.74928 0.10343 0.0
C1301 C 0.3598 0.71065 0.08787 0.0
O1302 O 0.35827 0.72948 0.0753 0.0
C1303 C 0.41232 0.78788 0.1404 0.0
O1304 O 0.42505 0.76916 0.14173 0.0
O1305 O 0.43919 0.77236 0.09612 0.0
O1306 O 0.44126 0.73398 0.09102 0.0
H1307 H 0.45332 0.83157 0.03998 0.0
H1308 H 0.38248 0.72264 0.13697 0.0
O1309 O 0.37905 0.70475 0.09673 0.0
H1310 H 0.45949 0.69542 0.16116 0.0
H1311 H 0.41986 0.63343 0.09745 0.0
H1312 H 0.44355 0.70519 0.05803 0.0
H1313 H 0.45109 0.70292 0.12008 0.0
H1314 H 0.40385 0.67104 0.10947 0.0
O1315 O 0.40316 0.79375 0.12127 0.0
H1316 H 0.44136 0.79413 0.05649 0.0
H1317 H 0.38992 0.82751 0.09676 0.0
H1318 H 0.46017 0.66797 0.0456 0.0
H1319 H 0.39007 0.71515 0.17824 0.0
H1320 H 0.44832 0.63175 0.06537 0.0
H1321 H 0.42884 0.7015 0.19057 0.0
O1322 O 0.40379 0.72661 0.06064 0.0
H1323 H 0.32164 0.78265 0.11086 0.0
H1324 H 0.37918 0.79588 0.04944 0.0
H1325 H 0.33796 0.80301 0.04142 0.0
H1326 H 0.30887 0.79643 0.07228 0.0
H1327 H 0.36304 0.77552 0.11807 0.0
H1328 H 0.40148 0.86534 0.08086 0.0
H1329 H 0.43333 0.86752 0.05217 0.0
O1330 O 0.4086 0.76504 0.05883 0.0
C1331 C 0.45069 0.75371 0.0938 0.0
C1332 C 0.43937 0.83083 0.05242 0.0
C1333 C 0.41029 0.84979 0.07538 0.0
N1334 N 0.41484 0.80861 0.07743 0.0
C1335 C 0.43248 0.80968 0.06178 0.0
C1336 C 0.40386 0.82833 0.08437 0.0
C1337 C 0.42816 0.851 0.05928 0.0
C1338 C 0.39933 0.71653 0.14219 0.0
N1339 N 0.41629 0.71315 0.12612 0.0
C1340 C 0.40356 0.71239 0.16559 0.0
C1341 C 0.42532 0.70476 0.1725 0.0
C1342 C 0.44253 0.70136 0.15601 0.0
C1343 C 0.43769 0.7057 0.13277 0.0
C1344 C 0.4252 0.6491 0.08874 0.0
C1345 C 0.43842 0.68951 0.0668 0.0
C1346 C 0.41615 0.67044 0.09543 0.0
N1347 N 0.42289 0.69031 0.08457 0.0
C1348 C 0.44784 0.66849 0.05965 0.0
C1349 C 0.44117 0.64817 0.07074 0.0
C1350 C 0.40593 0.74537 0.04926 0.0
C1351 C 0.33416 0.78563 0.09729 0.0
C1352 C 0.36663 0.79288 0.06293 0.0
C1353 C 0.34331 0.79702 0.0583 0.0
C1354 C 0.327 0.79333 0.07563 0.0
N1355 N 0.37352 0.78535 0.08422 0.0
C1356 C 0.35763 0.7817 0.10129 0.0
Co1357 Co 0.59069 0.27985 0.0957 0.0
Co1358 Co 0.59484 0.22068 0.09171 0.0
O1359 O 0.60408 0.25032 0.10502 0.0
C1360 C 0.64078 0.28898 0.08899 0.0
O1361 O 0.64211 0.27009 0.07647 0.0
C1362 C 0.58828 0.21164 0.14187 0.0
O1363 O 0.57557 0.23038 0.14323 0.0
O1364 O 0.56149 0.22726 0.09754 0.0
O1365 O 0.55939 0.26572 0.09315 0.0
H1366 H 0.54748 0.16819 0.04119 0.0
H1367 H 0.61875 0.27689 0.13844 0.0
O1368 O 0.6217 0.29487 0.0982 0.0
H1369 H 0.54205 0.30403 0.16367 0.0
H1370 H 0.58093 0.36622 0.09974 0.0
H1371 H 0.55673 0.29461 0.06029 0.0
H1372 H 0.54993 0.29667 0.12245 0.0
H1373 H 0.59707 0.32855 0.11141 0.0
O1374 O 0.59747 0.20581 0.12275 0.0
H1375 H 0.55943 0.20559 0.05784 0.0
H1376 H 0.61073 0.17209 0.0982 0.0
H1377 H 0.53998 0.33188 0.04821 0.0
H1378 H 0.61168 0.28424 0.17983 0.0
H1379 H 0.55209 0.36802 0.068 0.0
H1380 H 0.57308 0.29786 0.19268 0.0
O1381 O 0.59649 0.27314 0.06237 0.0
H1382 H 0.67902 0.21683 0.1126 0.0
H1383 H 0.6216 0.20382 0.05096 0.0
H1384 H 0.66283 0.19664 0.04305 0.0
H1385 H 0.69186 0.20311 0.07402 0.0
H1386 H 0.63761 0.224 0.1197 0.0
H1387 H 0.59918 0.1343 0.08217 0.0
H1388 H 0.56741 0.1322 0.05336 0.0
O1389 O 0.5922 0.23465 0.06037 0.0
C1390 C 0.54998 0.24595 0.09561 0.0
C1391 C 0.5614 0.16889 0.05368 0.0
C1392 C 0.59039 0.14986 0.0767 0.0
N1393 N 0.58587 0.19104 0.07883 0.0
C1394 C 0.56828 0.19002 0.06311 0.0
C1395 C 0.59682 0.17131 0.08576 0.0
C1396 C 0.57257 0.1487 0.06053 0.0
C1397 C 0.60197 0.28298 0.14389 0.0
N1398 N 0.58481 0.28642 0.12804 0.0
C1399 C 0.59804 0.28704 0.16735 0.0
C1400 C 0.57637 0.29465 0.17455 0.0
C1401 C 0.55895 0.29811 0.15829 0.0
C1402 C 0.5635 0.29385 0.13497 0.0
C1403 C 0.57549 0.35058 0.09102 0.0
C1404 C 0.56198 0.31025 0.06907 0.0
C1405 C 0.58461 0.32921 0.09751 0.0
N1406 N 0.57772 0.30939 0.08665 0.0
C1407 C 0.55248 0.33131 0.06212 0.0
C1408 C 0.5593 0.35158 0.07321 0.0
C1409 C 0.5946 0.2544 0.05091 0.0
C1410 C 0.66653 0.2139 0.09899 0.0
C1411 C 0.63413 0.20676 0.0645 0.0
C1412 C 0.65745 0.20261 0.05994 0.0
C1413 C 0.67373 0.20623 0.07733 0.0
N1414 N 0.6272 0.21426 0.0858 0.0
C1415 C 0.64305 0.21785 0.10293 0.0
Co1416 Co 0.9047 0.72013 0.59132 0.0
Co1417 Co 0.90848 0.77932 0.59541 0.0
O1418 O 0.89526 0.74965 0.60465 0.0
C1419 C 0.91136 0.71123 0.64144 0.0
O1420 O 0.92385 0.73015 0.64275 0.0
C1421 C 0.85831 0.78808 0.5887 0.0
O1422 O 0.85705 0.76932 0.57598 0.0
O1423 O 0.90275 0.77262 0.56205 0.0
O1424 O 0.90723 0.73417 0.56001 0.0
H1425 H 0.95889 0.83194 0.54813 0.0
H1426 H 0.86193 0.72299 0.61931 0.0
O1427 O 0.90221 0.70522 0.62234 0.0
H1428 H 0.83686 0.69546 0.54263 0.0
H1429 H 0.90096 0.63371 0.5817 0.0
H1430 H 0.94017 0.70541 0.55741 0.0
H1431 H 0.87804 0.70305 0.55055 0.0
H1432 H 0.88916 0.67138 0.59777 0.0
O1433 O 0.87739 0.79404 0.59794 0.0
H1434 H 0.94238 0.79448 0.56008 0.0
H1435 H 0.90176 0.82792 0.61123 0.0
H1436 H 0.95236 0.66814 0.54072 0.0
H1437 H 0.82057 0.7154 0.6122 0.0
H1438 H 0.9327 0.63195 0.55288 0.0
H1439 H 0.8078 0.70159 0.5736 0.0
O1440 O 0.938 0.727 0.59715 0.0
H1441 H 0.88741 0.78328 0.67953 0.0
H1442 H 0.94911 0.79645 0.62227 0.0
H1443 H 0.95691 0.80376 0.66352 0.0
H1444 H 0.92591 0.79721 0.69247 0.0
H1445 H 0.88041 0.77598 0.63811 0.0
H1446 H 0.91766 0.86576 0.59968 0.0
H1447 H 0.94652 0.86792 0.56799 0.0
O1448 O 0.93988 0.76549 0.59287 0.0
C1449 C 0.90474 0.75391 0.55057 0.0
C1450 C 0.94638 0.83121 0.56201 0.0
C1451 C 0.92322 0.8502 0.59093 0.0
N1452 N 0.92126 0.80899 0.58645 0.0
C1453 C 0.93701 0.81005 0.5689 0.0
C1454 C 0.91424 0.82873 0.59736 0.0
C1455 C 0.93941 0.8514 0.57315 0.0
C1456 C 0.85651 0.71682 0.60253 0.0
N1457 N 0.87239 0.7134 0.5854 0.0
C1458 C 0.83307 0.71262 0.59858 0.0
C1459 C 0.82592 0.7049 0.57691 0.0
C1460 C 0.84221 0.70146 0.55952 0.0
C1461 C 0.8655 0.70586 0.56409 0.0
C1462 C 0.90963 0.64937 0.57624 0.0
C1463 C 0.93144 0.68975 0.56268 0.0
C1464 C 0.90306 0.67074 0.58532 0.0
N1465 N 0.91386 0.69059 0.57841 0.0
C1466 C 0.93846 0.66869 0.55322 0.0
C1467 C 0.92744 0.64839 0.56006 0.0
C1468 C 0.94941 0.74579 0.59529 0.0
C1469 C 0.90104 0.78625 0.66707 0.0
C1470 C 0.93556 0.79347 0.63476 0.0
C1471 C 0.94006 0.7977 0.65809 0.0
C1472 C 0.92265 0.79404 0.67433 0.0
N1473 N 0.9143 0.78586 0.62778 0.0
C1474 C 0.89715 0.78222 0.64359 0.0
Co1475 Co 0.21993 0.90962 0.59415 0.0
Co1476 Co 0.27907 0.90566 0.59043 0.0
O1477 O 0.24945 0.89631 0.60365 0.0
C1478 C 0.21083 0.85942 0.58796 0.0
O1479 O 0.22962 0.85795 0.57533 0.0
C1480 C 0.28805 0.91203 0.64061 0.0
O1481 O 0.2693 0.92471 0.64199 0.0
O1482 O 0.2724 0.93894 0.59645 0.0
O1483 O 0.23402 0.94093 0.5914 0.0
H1484 H 0.33153 0.95343 0.54033 0.0
H1485 H 0.22288 0.88197 0.63716 0.0
O1486 O 0.20495 0.87863 0.59693 0.0
H1487 H 0.19548 0.95883 0.66163 0.0
H1488 H 0.13354 0.91926 0.59782 0.0
H1489 H 0.20521 0.94325 0.55842 0.0
H1490 H 0.20295 0.95058 0.62051 0.0
H1491 H 0.1712 0.90332 0.60977 0.0
O1492 O 0.29392 0.9029 0.62148 0.0
H1493 H 0.29413 0.9413 0.55682 0.0
H1494 H 0.32769 0.88982 0.5969 0.0
H1495 H 0.16794 0.9598 0.54606 0.0
H1496 H 0.21541 0.88941 0.67846 0.0
H1497 H 0.13177 0.9478 0.56582 0.0
H1498 H 0.20166 0.9281 0.69093 0.0
O1499 O 0.22673 0.90354 0.5609 0.0
H1500 H 0.28306 0.82137 0.6108 0.0
H1501 H 0.29605 0.87915 0.54955 0.0
H1502 H 0.30331 0.83798 0.5414 0.0
H1503 H 0.29685 0.80876 0.57217 0.0
H1504 H 0.2758 0.86273 0.61815 0.0
H1505 H 0.36547 0.90155 0.58102 0.0
H1506 H 0.36754 0.93351 0.55244 0.0
O1507 O 0.26514 0.90845 0.55907 0.0
C1508 C 0.25373 0.9504 0.5942 0.0
C1509 C 0.33084 0.93944 0.55272 0.0
C1510 C 0.3499 0.91034 0.57558 0.0
N1511 N 0.30871 0.91476 0.57766 0.0
C1512 C 0.30971 0.93245 0.56206 0.0
C1513 C 0.32846 0.90381 0.58455 0.0
C1514 C 0.35105 0.92827 0.55954 0.0
C1515 C 0.21673 0.89879 0.64244 0.0
N1516 N 0.21329 0.91579 0.62643 0.0
C1517 C 0.2126 0.90293 0.66585 0.0
C1518 C 0.20492 0.92465 0.67284 0.0
C1519 C 0.20146 0.9419 0.65641 0.0
C1520 C 0.20578 0.93715 0.63315 0.0
C1521 C 0.14919 0.92466 0.58911 0.0
C1522 C 0.18955 0.93805 0.5672 0.0
C1523 C 0.17055 0.91565 0.59577 0.0
N1524 N 0.1904 0.92247 0.58491 0.0
C1525 C 0.1685 0.94743 0.56008 0.0
C1526 C 0.14821 0.94068 0.57116 0.0
C1527 C 0.24547 0.90575 0.54951 0.0
C1528 C 0.28598 0.83394 0.59727 0.0
C1529 C 0.29311 0.86655 0.563 0.0
C1530 C 0.29731 0.84326 0.5583 0.0
C1531 C 0.2937 0.82688 0.57558 0.0
N1532 N 0.28557 0.87334 0.58433 0.0
C1533 C 0.28198 0.85738 0.60135 0.0
Co1534 Co 0.09513 0.28013 0.59166 0.0
Co1535 Co 0.09135 0.22095 0.59536 0.0
O1536 O 0.10452 0.25055 0.60489 0.0
C1537 C 0.08845 0.28894 0.64183 0.0
O1538 O 0.07579 0.27013 0.64307 0.0
C1539 C 0.14156 0.21216 0.58913 0.0
O1540 O 0.14294 0.23099 0.57653 0.0
O1541 O 0.09742 0.2278 0.56212 0.0
O1542 O 0.0926 0.26622 0.56026 0.0
H1543 H 0.04142 0.16861 0.54721 0.0
H1544 H 0.13789 0.27711 0.61968 0.0
O1545 O 0.09764 0.29493 0.62275 0.0
H1546 H 0.16302 0.30494 0.54316 0.0
H1547 H 0.09893 0.36659 0.58248 0.0
H1548 H 0.05968 0.29502 0.55778 0.0
H1549 H 0.12183 0.29735 0.551 0.0
H1550 H 0.11071 0.32885 0.59835 0.0
O1551 O 0.1224 0.20618 0.59815 0.0
H1552 H 0.05782 0.20599 0.55956 0.0
H1553 H 0.09783 0.17227 0.61101 0.0
H1554 H 0.0475 0.33237 0.54129 0.0
H1555 H 0.17926 0.28469 0.61266 0.0
H1556 H 0.06717 0.3685 0.55365 0.0
H1557 H 0.19206 0.29865 0.57414 0.0
O1558 O 0.06182 0.27325 0.5974 0.0
H1559 H 0.11153 0.21653 0.67969 0.0
H1560 H 0.05042 0.20376 0.62166 0.0
H1561 H 0.04216 0.19624 0.66277 0.0
H1562 H 0.07287 0.20258 0.69211 0.0
H1563 H 0.11897 0.22404 0.63839 0.0
H1564 H 0.08204 0.1345 0.59906 0.0
H1565 H 0.05353 0.13252 0.56701 0.0
O1566 O 0.06001 0.23483 0.59253 0.0
C1567 C 0.09529 0.24654 0.55072 0.0
C1568 C 0.05377 0.16925 0.56124 0.0
C1569 C 0.07659 0.15011 0.59033 0.0
N1570 N 0.07863 0.19133 0.5861 0.0
C1571 C 0.06307 0.19037 0.56836 0.0
C1572 C 0.08551 0.17154 0.59698 0.0
C1573 C 0.06059 0.14901 0.57235 0.0
C1574 C 0.14331 0.28336 0.60294 0.0
N1575 N 0.12745 0.28686 0.58581 0.0
C1576 C 0.16676 0.28755 0.59904 0.0
C1577 C 0.17394 0.29535 0.57741 0.0
C1578 C 0.15766 0.29887 0.56002 0.0
C1579 C 0.13436 0.29448 0.56454 0.0
C1580 C 0.09025 0.35096 0.57693 0.0
C1581 C 0.06842 0.31065 0.56314 0.0
C1582 C 0.09681 0.32955 0.58589 0.0
N1583 N 0.086 0.30973 0.57887 0.0
C1584 C 0.0614 0.33175 0.55379 0.0
C1585 C 0.07244 0.35202 0.56075 0.0
C1586 C 0.05044 0.25449 0.59514 0.0
C1587 C 0.09802 0.21365 0.66706 0.0
C1588 C 0.06384 0.20665 0.63432 0.0
C1589 C 0.05908 0.2023 0.65757 0.0
C1590 C 0.07632 0.20585 0.67402 0.0
N1591 N 0.08518 0.21426 0.62762 0.0
C1592 C 0.10216 0.2178 0.64365 0.0
Co1593 Co 0.77989 0.09056 0.59545 0.0
Co1594 Co 0.72073 0.09457 0.59142 0.0
O1595 O 0.75033 0.10389 0.60475 0.0
C1596 C 0.78892 0.14067 0.58879 0.0
O1597 O 0.77005 0.14196 0.57623 0.0
C1598 C 0.71163 0.08814 0.64159 0.0
O1599 O 0.73035 0.07542 0.64302 0.0
O1600 O 0.72737 0.06124 0.59732 0.0
O1601 O 0.76583 0.05923 0.59287 0.0
H1602 H 0.66839 0.047 0.54094 0.0
H1603 H 0.77683 0.1186 0.6382 0.0
O1604 O 0.79484 0.12159 0.59799 0.0
H1605 H 0.80408 0.04194 0.66344 0.0
H1606 H 0.86626 0.08095 0.59962 0.0
H1607 H 0.79476 0.05662 0.56006 0.0
H1608 H 0.79675 0.04982 0.62222 0.0
H1609 H 0.82856 0.09703 0.61123 0.0
O1610 O 0.70581 0.09725 0.62243 0.0
H1611 H 0.70575 0.05906 0.5576 0.0
H1612 H 0.67211 0.11039 0.5978 0.0
H1613 H 0.83207 0.03992 0.54806 0.0
H1614 H 0.78415 0.11153 0.6796 0.0
H1615 H 0.86816 0.05209 0.5679 0.0
H1616 H 0.79782 0.07295 0.69245 0.0
O1617 O 0.77321 0.09636 0.56212 0.0
H1618 H 0.71673 0.17879 0.61212 0.0
H1619 H 0.70387 0.12122 0.5506 0.0
H1620 H 0.69665 0.16242 0.54258 0.0
H1621 H 0.70305 0.19153 0.57349 0.0
H1622 H 0.72395 0.13741 0.61932 0.0
H1623 H 0.63436 0.09874 0.58175 0.0
H1624 H 0.63236 0.0669 0.55301 0.0
O1625 O 0.73475 0.09189 0.56011 0.0
C1626 C 0.74607 0.04977 0.59534 0.0
C1627 C 0.66905 0.06095 0.55339 0.0
C1628 C 0.64995 0.08997 0.57632 0.0
N1629 N 0.69113 0.08552 0.57852 0.0
C1630 C 0.69016 0.06789 0.56284 0.0
C1631 C 0.67136 0.09645 0.58539 0.0
C1632 C 0.64883 0.07211 0.56019 0.0
C1633 C 0.78295 0.10182 0.64365 0.0
N1634 N 0.78643 0.08468 0.6278 0.0
C1635 C 0.78699 0.0979 0.66712 0.0
C1636 C 0.79464 0.07624 0.67432 0.0
C1637 C 0.79814 0.05883 0.65805 0.0
C1638 C 0.79389 0.06337 0.63474 0.0
C1639 C 0.85065 0.07547 0.59088 0.0
C1640 C 0.81038 0.0619 0.56886 0.0
C1641 C 0.82926 0.08457 0.59733 0.0
N1642 N 0.80946 0.07764 0.58644 0.0
C1643 C 0.83146 0.05243 0.56195 0.0
C1644 C 0.8517 0.05928 0.57308 0.0
C1645 C 0.75449 0.09437 0.55065 0.0
C1646 C 0.71383 0.16627 0.59852 0.0
C1647 C 0.70678 0.13378 0.56411 0.0
C1648 C 0.7026 0.15708 0.55948 0.0
C1649 C 0.70618 0.17341 0.57684 0.0
N1650 N 0.71426 0.1269 0.58543 0.0
C1651 C 0.71781 0.14281 0.60253 0.0
Co1652 Co 0.90964 0.22055 0.40463 0.0
Co1653 Co 0.90566 0.27972 0.40856 0.0
O1654 O 0.89632 0.2501 0.39528 0.0
C1655 C 0.85952 0.21149 0.41124 0.0
O1656 O 0.85819 0.23035 0.4238 0.0
C1657 C 0.91208 0.2887 0.35838 0.0
O1658 O 0.92479 0.26997 0.35699 0.0
O1659 O 0.93898 0.27306 0.40269 0.0
O1660 O 0.94096 0.23461 0.40725 0.0
H1661 H 0.95326 0.33214 0.45893 0.0
H1662 H 0.88168 0.22356 0.36183 0.0
O1663 O 0.87861 0.20559 0.40205 0.0
H1664 H 0.95837 0.19626 0.33676 0.0
H1665 H 0.91925 0.13417 0.4006 0.0
H1666 H 0.9435 0.20572 0.44011 0.0
H1667 H 0.95042 0.20365 0.37795 0.0
H1668 H 0.9032 0.17186 0.3889 0.0
O1669 O 0.90298 0.29458 0.37752 0.0
H1670 H 0.94117 0.29475 0.44236 0.0
H1671 H 0.88986 0.32834 0.40208 0.0
H1672 H 0.96016 0.16843 0.45221 0.0
H1673 H 0.88881 0.21618 0.32045 0.0
H1674 H 0.94803 0.1323 0.43239 0.0
H1675 H 0.92741 0.20248 0.30768 0.0
O1676 O 0.90379 0.22729 0.43794 0.0
H1677 H 0.82144 0.28376 0.38785 0.0
H1678 H 0.87902 0.29667 0.44936 0.0
H1679 H 0.83783 0.30395 0.45735 0.0
H1680 H 0.80871 0.29753 0.42645 0.0
H1681 H 0.86282 0.27648 0.38066 0.0
H1682 H 0.90156 0.36612 0.41803 0.0
H1683 H 0.93341 0.36817 0.44675 0.0
O1684 O 0.90833 0.26575 0.43991 0.0
C1685 C 0.95044 0.25435 0.40475 0.0
C1686 C 0.93932 0.33147 0.44648 0.0
C1687 C 0.91032 0.35054 0.4235 0.0
N1688 N 0.91472 0.30934 0.42141 0.0
C1689 C 0.93235 0.31034 0.43709 0.0
C1690 C 0.90381 0.3291 0.41449 0.0
C1691 C 0.92818 0.35168 0.43962 0.0
C1692 C 0.89846 0.21743 0.35642 0.0
N1693 N 0.91558 0.21397 0.3723 0.0
C1694 C 0.90242 0.21335 0.33296 0.0
C1695 C 0.92409 0.2057 0.3258 0.0
C1696 C 0.94147 0.20222 0.3421 0.0
C1697 C 0.93689 0.20649 0.36541 0.0
C1698 C 0.9247 0.14979 0.40933 0.0
C1699 C 0.93824 0.19009 0.43132 0.0
C1700 C 0.91563 0.17118 0.40282 0.0
N1701 N 0.92254 0.19099 0.41371 0.0
C1702 C 0.94769 0.16902 0.43828 0.0
C1703 C 0.94086 0.14876 0.42717 0.0
C1704 C 0.90581 0.24602 0.44939 0.0
C1705 C 0.83397 0.28666 0.40144 0.0
C1706 C 0.86646 0.29374 0.43585 0.0
C1707 C 0.84316 0.29796 0.44046 0.0
C1708 C 0.82684 0.29437 0.42311 0.0
N1709 N 0.87333 0.28622 0.41454 0.0
C1710 C 0.85742 0.28265 0.39745 0.0
Co1711 Co 0.72027 0.90507 0.40926 0.0
Co1712 Co 0.77945 0.90896 0.40544 0.0
O1713 O 0.74985 0.89575 0.39598 0.0
C1714 C 0.71138 0.91184 0.35912 0.0
O1715 O 0.73019 0.92451 0.35787 0.0
C1716 C 0.78824 0.85877 0.41176 0.0
O1717 O 0.7694 0.85741 0.42433 0.0
O1718 O 0.77267 0.90296 0.43872 0.0
O1719 O 0.73422 0.90753 0.44063 0.0
H1720 H 0.8318 0.95913 0.45333 0.0
H1721 H 0.72332 0.86239 0.38112 0.0
O1722 O 0.70543 0.90261 0.37819 0.0
H1723 H 0.69568 0.83699 0.45761 0.0
H1724 H 0.63385 0.90105 0.41863 0.0
H1725 H 0.70538 0.9404 0.44326 0.0
H1726 H 0.70316 0.87822 0.44987 0.0
H1727 H 0.67158 0.88942 0.40261 0.0
O1728 O 0.79424 0.87792 0.40271 0.0
H1729 H 0.79443 0.94261 0.44111 0.0
H1730 H 0.82811 0.90248 0.38974 0.0
H1731 H 0.66805 0.95243 0.4599 0.0
H1732 H 0.71585 0.82098 0.38804 0.0
H1733 H 0.63194 0.93269 0.44758 0.0
H1734 H 0.70198 0.80805 0.42655 0.0
O1735 O 0.72709 0.93841 0.40358 0.0
H1736 H 0.78374 0.88856 0.32115 0.0
H1737 H 0.79656 0.94984 0.379 0.0
H1738 H 0.80399 0.95799 0.33785 0.0
H1739 H 0.79762 0.9272 0.3086 0.0
H1740 H 0.77632 0.88122 0.36249 0.0
H1741 H 0.86588 0.91838 0.40156 0.0
H1742 H 0.86787 0.947 0.4335 0.0
O1743 O 0.76554 0.9403 0.40819 0.0
C1744 C 0.75393 0.90496 0.45014 0.0
C1745 C 0.83115 0.94672 0.43935 0.0
C1746 C 0.85028 0.92383 0.41031 0.0
N1747 N 0.80907 0.92174 0.41462 0.0
C1748 C 0.81003 0.93736 0.43231 0.0
C1749 C 0.82885 0.91485 0.40373 0.0
C1750 C 0.85138 0.9399 0.42823 0.0
C1751 C 0.71712 0.85691 0.39786 0.0
N1752 N 0.71361 0.87271 0.41504 0.0
C1753 C 0.71299 0.83343 0.4017 0.0
C1754 C 0.70523 0.82618 0.42332 0.0
C1755 C 0.70171 0.84241 0.44076 0.0
C1756 C 0.70604 0.86573 0.4363 0.0
C1757 C 0.64947 0.90975 0.42417 0.0
C1758 C 0.68976 0.93164 0.43792 0.0
C1759 C 0.67087 0.90328 0.41511 0.0
N1760 N 0.69068 0.91411 0.42212 0.0
C1761 C 0.66866 0.93857 0.44735 0.0
C1762 C 0.64841 0.9275 0.44041 0.0
C1763 C 0.74585 0.94982 0.40569 0.0
C1764 C 0.78663 0.9021 0.33374 0.0
C1765 C 0.79366 0.93638 0.36638 0.0
C1766 C 0.79796 0.94108 0.3431 0.0
C1767 C 0.79439 0.92379 0.3267 0.0
N1768 N 0.78608 0.91505 0.37315 0.0
C1769 C 0.78253 0.89802 0.35717 0.0
Co1770 Co 0.09055 0.78017 0.40619 0.0
Co1771 Co 0.0946 0.72103 0.40997 0.0
O1772 O 0.10388 0.75066 0.39672 0.0
C1773 C 0.14074 0.7893 0.41232 0.0
O1774 O 0.14223 0.7705 0.42494 0.0
C1775 C 0.08825 0.71206 0.35978 0.0
O1776 O 0.07557 0.73081 0.35841 0.0
O1777 O 0.06129 0.72764 0.40399 0.0
O1778 O 0.05927 0.76604 0.40899 0.0
H1779 H 0.04701 0.66854 0.46021 0.0
H1780 H 0.11818 0.77722 0.36317 0.0
O1781 O 0.12152 0.79519 0.40338 0.0
H1782 H 0.04125 0.80443 0.3387 0.0
H1783 H 0.08075 0.86654 0.40237 0.0
H1784 H 0.05692 0.7949 0.44192 0.0
H1785 H 0.04954 0.79703 0.37983 0.0
H1786 H 0.09678 0.82889 0.39049 0.0
O1787 O 0.09734 0.70617 0.37893 0.0
H1788 H 0.05904 0.70594 0.44365 0.0
H1789 H 0.1105 0.67244 0.40351 0.0
H1790 H 0.04029 0.83215 0.4542 0.0
H1791 H 0.11071 0.78462 0.32186 0.0
H1792 H 0.05221 0.86832 0.43438 0.0
H1793 H 0.07198 0.79826 0.30939 0.0
O1794 O 0.09665 0.77341 0.43945 0.0
H1795 H 0.17886 0.71718 0.38947 0.0
H1796 H 0.12119 0.70413 0.45082 0.0
H1797 H 0.16239 0.69695 0.45892 0.0
H1798 H 0.19155 0.70344 0.4281 0.0
H1799 H 0.13748 0.72435 0.38218 0.0
H1800 H 0.09887 0.63464 0.41946 0.0
H1801 H 0.06699 0.63255 0.44811 0.0
O1802 O 0.09183 0.73499 0.44131 0.0
C1803 C 0.04981 0.74631 0.40625 0.0
C1804 C 0.06098 0.66924 0.44779 0.0
C1805 C 0.09007 0.65021 0.4249 0.0
N1806 N 0.08557 0.69139 0.42278 0.0
C1807 C 0.06791 0.69037 0.43841 0.0
C1808 C 0.09654 0.67165 0.41589 0.0
C1809 C 0.07218 0.64905 0.44098 0.0
C1810 C 0.10135 0.78333 0.35789 0.0
N1811 N 0.08435 0.78676 0.37391 0.0
C1812 C 0.09719 0.78741 0.33447 0.0
C1813 C 0.07545 0.79504 0.32749 0.0
C1814 C 0.0582 0.79849 0.34392 0.0
C1815 C 0.06298 0.79421 0.36718 0.0
C1816 C 0.07539 0.8509 0.41112 0.0
C1817 C 0.06209 0.81054 0.43312 0.0
C1818 C 0.08444 0.82953 0.4045 0.0
N1819 N 0.07766 0.8097 0.4154 0.0
C1820 C 0.05266 0.8316 0.44019 0.0
C1821 C 0.05937 0.85188 0.42907 0.0
C1822 C 0.09449 0.75468 0.45085 0.0
C1823 C 0.16631 0.71424 0.40303 0.0
C1824 C 0.13377 0.70709 0.43734 0.0
C1825 C 0.15708 0.70293 0.44202 0.0
C1826 C 0.17342 0.70656 0.42471 0.0
N1827 N 0.12693 0.71459 0.41602 0.0
C1828 C 0.14286 0.7182 0.39897 0.0
Co1829 Co 0.27994 0.09545 0.40966 0.0
Co1830 Co 0.22075 0.09179 0.40562 0.0
O1831 O 0.25042 0.10499 0.39638 0.0
C1832 C 0.28883 0.08889 0.35952 0.0
O1833 O 0.26988 0.07645 0.35818 0.0
C1834 C 0.21201 0.14196 0.41247 0.0
O1835 O 0.23076 0.14318 0.42522 0.0
O1836 O 0.22749 0.09745 0.43897 0.0
O1837 O 0.26593 0.09285 0.44097 0.0
H1838 H 0.16812 0.04138 0.45289 0.0
H1839 H 0.27713 0.13834 0.38183 0.0
O1840 O 0.29484 0.09801 0.37864 0.0
H1841 H 0.30479 0.16307 0.45858 0.0
H1842 H 0.36637 0.09896 0.4192 0.0
H1843 H 0.29461 0.05982 0.44341 0.0
H1844 H 0.29711 0.12193 0.45051 0.0
H1845 H 0.32872 0.11093 0.40323 0.0
O1846 O 0.20606 0.12291 0.40317 0.0
H1847 H 0.20558 0.05784 0.4409 0.0
H1848 H 0.17214 0.09861 0.38988 0.0
H1849 H 0.33187 0.04745 0.45999 0.0
H1850 H 0.2848 0.17966 0.38909 0.0
H1851 H 0.36809 0.06708 0.44787 0.0
H1852 H 0.29868 0.19226 0.42773 0.0
O1853 O 0.27301 0.06219 0.40371 0.0
H1854 H 0.21669 0.11304 0.32155 0.0
H1855 H 0.2035 0.05124 0.3787 0.0
H1856 H 0.1961 0.04354 0.33745 0.0
H1857 H 0.20266 0.07459 0.30855 0.0
H1858 H 0.22408 0.11993 0.36298 0.0
H1859 H 0.13429 0.08277 0.40147 0.0
H1860 H 0.13213 0.05386 0.43312 0.0
O1861 O 0.23453 0.06035 0.40807 0.0
C1862 C 0.24621 0.09538 0.45044 0.0
C1863 C 0.16884 0.05392 0.43903 0.0
C1864 C 0.14985 0.07717 0.41019 0.0
N1865 N 0.19106 0.07903 0.41459 0.0
C1866 C 0.19001 0.06325 0.43212 0.0
C1867 C 0.17133 0.08612 0.40374 0.0
C1868 C 0.14865 0.06094 0.42794 0.0
C1869 C 0.28333 0.14368 0.39863 0.0
N1870 N 0.28674 0.12774 0.41569 0.0
C1871 C 0.28758 0.1671 0.40266 0.0
C1872 C 0.29534 0.17416 0.42435 0.0
C1873 C 0.29876 0.1578 0.44168 0.0
C1874 C 0.29432 0.13453 0.43702 0.0
C1875 C 0.35071 0.09031 0.42465 0.0
C1876 C 0.31029 0.06853 0.43816 0.0
C1877 C 0.32934 0.09697 0.41563 0.0
N1878 N 0.30947 0.08619 0.42251 0.0
C1879 C 0.33134 0.06142 0.44756 0.0
C1880 C 0.35166 0.07242 0.44074 0.0
C1881 C 0.25421 0.05081 0.40556 0.0
C1882 C 0.21372 0.09939 0.33398 0.0
C1883 C 0.20649 0.06481 0.36624 0.0
C1884 C 0.20221 0.06037 0.3429 0.0
C1885 C 0.20588 0.0778 0.3267 0.0
N1886 N 0.21416 0.08604 0.37325 0.0
C1887 C 0.2178 0.10321 0.35747 0.0
Co1888 Co 0.59435 0.91002 0.77949 0.0
Co1889 Co 0.59056 0.90614 0.72033 0.0
O1890 O 0.60381 0.89678 0.74992 0.0
C1891 C 0.5881 0.85982 0.78837 0.0
O1892 O 0.57549 0.8584 0.76954 0.0
C1893 C 0.64075 0.91256 0.71145 0.0
O1894 O 0.64213 0.92526 0.73021 0.0
O1895 O 0.5965 0.93944 0.7271 0.0
O1896 O 0.5916 0.94134 0.76551 0.0
H1897 H 0.54028 0.95375 0.668 0.0
H1898 H 0.63732 0.88238 0.77642 0.0
O1899 O 0.5971 0.879 0.79434 0.0
H1900 H 0.66191 0.9592 0.80405 0.0
H1901 H 0.59818 0.91955 0.8659 0.0
H1902 H 0.55867 0.94362 0.79435 0.0
H1903 H 0.62077 0.95096 0.79658 0.0
H1904 H 0.61002 0.90362 0.82818 0.0
O1905 O 0.6216 0.90348 0.70551 0.0
H1906 H 0.55683 0.94166 0.70536 0.0
H1907 H 0.59707 0.89039 0.67167 0.0
H1908 H 0.54642 0.96015 0.83167 0.0
H1909 H 0.67864 0.88981 0.78388 0.0
H1910 H 0.56623 0.94811 0.86779 0.0
H1911 H 0.69117 0.92847 0.79773 0.0
O1912 O 0.56109 0.90393 0.77267 0.0
H1913 H 0.61113 0.82192 0.71611 0.0
H1914 H 0.54975 0.87951 0.70324 0.0
H1915 H 0.54169 0.83832 0.69585 0.0
H1916 H 0.57253 0.8092 0.70225 0.0
H1917 H 0.61838 0.86329 0.7235 0.0
H1918 H 0.58113 0.90209 0.63391 0.0
H1919 H 0.55243 0.93392 0.63193 0.0
O1920 O 0.55921 0.90879 0.73426 0.0
C1921 C 0.59429 0.95087 0.74583 0.0
C1922 C 0.55272 0.93982 0.66864 0.0
C1923 C 0.57567 0.91084 0.64951 0.0
N1924 N 0.57776 0.91523 0.69072 0.0
C1925 C 0.5621 0.93285 0.68976 0.0
C1926 C 0.58467 0.90433 0.67093 0.0
C1927 C 0.55956 0.92869 0.64841 0.0
C1928 C 0.64262 0.89919 0.78262 0.0
N1929 N 0.62664 0.91618 0.78613 0.0
C1930 C 0.66605 0.90332 0.78674 0.0
C1931 C 0.67307 0.92503 0.79449 0.0
C1932 C 0.65667 0.94228 0.79802 0.0
C1933 C 0.6334 0.93753 0.7937 0.0
C1934 C 0.58944 0.92496 0.85028 0.0
C1935 C 0.56747 0.9384 0.80998 0.0
C1936 C 0.59604 0.91596 0.82888 0.0
N1937 N 0.58516 0.92282 0.80907 0.0
C1938 C 0.56041 0.94777 0.83107 0.0
C1939 C 0.57152 0.94099 0.85133 0.0
C1940 C 0.54968 0.90607 0.75393 0.0
C1941 C 0.59757 0.83445 0.71321 0.0
C1942 C 0.56323 0.86695 0.70616 0.0
C1943 C 0.55858 0.84364 0.70188 0.0
C1944 C 0.5759 0.82732 0.70546 0.0
N1945 N 0.58454 0.87381 0.71373 0.0
C1946 C 0.6016 0.8579 0.71729 0.0
Co1947 Co 0.09161 0.5951 0.78054 0.0
Co1948 Co 0.09573 0.59121 0.72136 0.0
O1949 O 0.10495 0.60451 0.751 0.0
C1950 C 0.14175 0.58854 0.78953 0.0
O1951 O 0.14307 0.576 0.77066 0.0
C1952 C 0.08886 0.64132 0.71243 0.0
O1953 O 0.07622 0.64255 0.73124 0.0
O1954 O 0.06237 0.59682 0.72802 0.0
O1955 O 0.0603 0.5925 0.76649 0.0
H1956 H 0.04856 0.54049 0.66888 0.0
H1957 H 0.11962 0.63792 0.77759 0.0
O1958 O 0.12265 0.59767 0.79548 0.0
H1959 H 0.04292 0.66293 0.80493 0.0
H1960 H 0.08201 0.59902 0.86694 0.0
H1961 H 0.05771 0.5596 0.79536 0.0
H1962 H 0.05084 0.62174 0.79748 0.0
H1963 H 0.09807 0.61077 0.82925 0.0
O1964 O 0.09817 0.62229 0.70653 0.0
H1965 H 0.06047 0.55715 0.70628 0.0
H1966 H 0.11154 0.59787 0.67275 0.0
H1967 H 0.04104 0.54746 0.83266 0.0
H1968 H 0.11251 0.67929 0.78503 0.0
H1969 H 0.0532 0.56722 0.86879 0.0
H1970 H 0.07391 0.69202 0.79875 0.0
O1971 O 0.09743 0.56179 0.77378 0.0
H1972 H 0.17979 0.61262 0.71734 0.0
H1973 H 0.12268 0.55064 0.7044 0.0
H1974 H 0.16394 0.54298 0.69713 0.0
H1975 H 0.19282 0.57412 0.70356 0.0
H1976 H 0.13836 0.61946 0.7246 0.0
H1977 H 0.10003 0.58182 0.63496 0.0
H1978 H 0.0684 0.55283 0.63288 0.0
O1979 O 0.09325 0.55984 0.73529 0.0
C1980 C 0.05087 0.59487 0.74672 0.0
C1981 C 0.06242 0.55306 0.66957 0.0
C1982 C 0.09129 0.57628 0.65053 0.0
N1983 N 0.08679 0.57832 0.69172 0.0
C1984 C 0.06927 0.5625 0.69071 0.0
C1985 C 0.09769 0.58534 0.67197 0.0
C1986 C 0.07354 0.56001 0.64937 0.0
C1987 C 0.10283 0.64332 0.78372 0.0
N1988 N 0.0857 0.62743 0.78717 0.0
C1989 C 0.09889 0.66677 0.78784 0.0
C1990 C 0.07721 0.67391 0.79551 0.0
C1991 C 0.05982 0.6576 0.79897 0.0
C1992 C 0.06439 0.6343 0.79466 0.0
C1993 C 0.07654 0.59031 0.85131 0.0
C1994 C 0.06298 0.56838 0.81099 0.0
C1995 C 0.08562 0.59685 0.82992 0.0
N1996 N 0.0787 0.58599 0.8101 0.0
C1997 C 0.05353 0.56139 0.83207 0.0
C1998 C 0.06037 0.57247 0.85234 0.0
C1999 C 0.09559 0.55035 0.75503 0.0
C2000 C 0.16737 0.59893 0.71443 0.0
C2001 C 0.13514 0.56425 0.70733 0.0
C2002 C 0.15848 0.55983 0.70312 0.0
C2003 C 0.17467 0.57732 0.70672 0.0
N2004 N 0.12811 0.5855 0.71486 0.0
C2005 C 0.14388 0.60272 0.71843 0.0
Co2006 Co 0.40533 0.09092 0.7801 0.0
Co2007 Co 0.40906 0.09528 0.72095 0.0
O2008 O 0.39583 0.10435 0.75064 0.0
C2009 C 0.41167 0.14105 0.78934 0.0
O2010 O 0.42421 0.14258 0.77049 0.0
C2011 C 0.3589 0.08852 0.71208 0.0
O2012 O 0.35766 0.07574 0.73079 0.0
O2013 O 0.40336 0.06188 0.72746 0.0
O2014 O 0.40801 0.05969 0.76589 0.0
H2015 H 0.45956 0.04837 0.66819 0.0
H2016 H 0.3624 0.11864 0.7773 0.0
O2017 O 0.40266 0.12184 0.79519 0.0
H2018 H 0.33775 0.04166 0.80438 0.0
H2019 H 0.40166 0.08083 0.86645 0.0
H2020 H 0.441 0.05717 0.79467 0.0
H2021 H 0.37889 0.0499 0.79692 0.0
H2022 H 0.38976 0.09701 0.82886 0.0
O2023 O 0.37797 0.09781 0.70618 0.0
H2024 H 0.44301 0.0601 0.70567 0.0
H2025 H 0.40234 0.11131 0.67242 0.0
H2026 H 0.4533 0.04038 0.83186 0.0
H2027 H 0.32108 0.11121 0.78475 0.0
H2028 H 0.43358 0.05222 0.86809 0.0
H2029 H 0.30852 0.07247 0.79834 0.0
O2030 O 0.4386 0.09701 0.77331 0.0
H2031 H 0.38789 0.17937 0.7174 0.0
H2032 H 0.44965 0.12231 0.70401 0.0
H2033 H 0.4574 0.16361 0.69692 0.0
H2034 H 0.42637 0.19246 0.70359 0.0
H2035 H 0.38095 0.1379 0.72447 0.0
H2036 H 0.41827 0.09997 0.63455 0.0
H2037 H 0.44718 0.06837 0.63229 0.0
O2038 O 0.44046 0.09275 0.73482 0.0
C2039 C 0.40545 0.05032 0.74611 0.0
C2040 C 0.44703 0.06222 0.66896 0.0
C2041 C 0.42383 0.09116 0.65008 0.0
N2042 N 0.42186 0.08648 0.69125 0.0
C2043 C 0.43764 0.06898 0.69013 0.0
C2044 C 0.41483 0.09746 0.67156 0.0
C2045 C 0.44006 0.07343 0.64882 0.0
C2046 C 0.35708 0.10179 0.78338 0.0
N2047 N 0.37305 0.08475 0.78674 0.0
C2048 C 0.33365 0.09766 0.7875 0.0
C2049 C 0.32662 0.07591 0.79509 0.0
C2050 C 0.34301 0.05862 0.79847 0.0
C2051 C 0.36628 0.06336 0.79416 0.0
C2052 C 0.41036 0.0755 0.85078 0.0
C2053 C 0.43224 0.0623 0.81035 0.0
C2054 C 0.40373 0.08465 0.82945 0.0
N2055 N 0.41457 0.07791 0.80958 0.0
C2056 C 0.43932 0.05278 0.83136 0.0
C2057 C 0.42826 0.05945 0.85168 0.0
C2058 C 0.45 0.0952 0.75453 0.0
C2059 C 0.40153 0.16696 0.71439 0.0
C2060 C 0.43609 0.13476 0.70704 0.0
C2061 C 0.44056 0.15812 0.70294 0.0
C2062 C 0.42314 0.1743 0.70666 0.0
N2063 N 0.41484 0.12769 0.71459 0.0
C2064 C 0.39768 0.14345 0.71829 0.0
Co2065 Co 0.90563 0.40878 0.72023 0.0
Co2066 Co 0.90903 0.40474 0.77942 0.0
O2067 O 0.89595 0.39548 0.7497 0.0
C2068 C 0.91198 0.35861 0.71121 0.0
O2069 O 0.92449 0.35719 0.7301 0.0
C2070 C 0.85885 0.41152 0.78799 0.0
O2071 O 0.85775 0.42421 0.76921 0.0
O2072 O 0.90338 0.43808 0.77271 0.0
O2073 O 0.9083 0.44008 0.7343 0.0
H2074 H 0.95918 0.4521 0.83226 0.0
H2075 H 0.86264 0.38102 0.72288 0.0
O2076 O 0.90298 0.37778 0.70526 0.0
H2077 H 0.83826 0.45785 0.69533 0.0
H2078 H 0.90242 0.41843 0.6338 0.0
H2079 H 0.94143 0.4425 0.70569 0.0
H2080 H 0.87934 0.4497 0.70309 0.0
H2081 H 0.89029 0.40244 0.67141 0.0
O2082 O 0.87784 0.40221 0.79401 0.0
H2083 H 0.94287 0.44011 0.79474 0.0
H2084 H 0.90205 0.38893 0.82798 0.0
H2085 H 0.95396 0.4591 0.66849 0.0
H2086 H 0.82137 0.38836 0.71512 0.0
H2087 H 0.9344 0.44706 0.6322 0.0
H2088 H 0.80895 0.42703 0.7013 0.0
O2089 O 0.93885 0.4028 0.72724 0.0
H2090 H 0.88785 0.3206 0.78333 0.0
H2091 H 0.94955 0.37793 0.79668 0.0
H2092 H 0.95728 0.33669 0.80404 0.0
H2093 H 0.92628 0.30771 0.7974 0.0
H2094 H 0.88093 0.36202 0.77599 0.0
H2095 H 0.91774 0.40052 0.8659 0.0
H2096 H 0.9466 0.43225 0.86819 0.0
O2097 O 0.9405 0.40731 0.76572 0.0
C2098 C 0.90565 0.44955 0.75402 0.0
C2099 C 0.94667 0.4382 0.83148 0.0
C2100 C 0.92339 0.40927 0.85036 0.0
N2101 N 0.92167 0.41372 0.80915 0.0
C2102 C 0.93742 0.43129 0.81028 0.0
C2103 C 0.91452 0.40282 0.82885 0.0
C2104 C 0.93959 0.42707 0.85163 0.0
C2105 C 0.85738 0.39783 0.7167 0.0
N2106 N 0.87339 0.41488 0.71337 0.0
C2107 C 0.83399 0.40191 0.71241 0.0
C2108 C 0.82703 0.42362 0.70468 0.0
C2109 C 0.84346 0.44093 0.70134 0.0
C2110 C 0.86669 0.43623 0.70582 0.0
C2111 C 0.91104 0.42384 0.6495 0.0
C2112 C 0.93274 0.43728 0.68999 0.0
C2113 C 0.90429 0.41481 0.67084 0.0
N2114 N 0.91503 0.42165 0.69074 0.0
C2115 C 0.93995 0.44669 0.66897 0.0
C2116 C 0.92899 0.43991 0.64861 0.0
C2117 C 0.95015 0.40481 0.74607 0.0
C2118 C 0.90148 0.33307 0.78633 0.0
C2119 C 0.936 0.36542 0.79366 0.0
C2120 C 0.94046 0.3421 0.79792 0.0
C2121 C 0.92306 0.32585 0.7942 0.0
N2122 N 0.91478 0.37238 0.78598 0.0
C2123 C 0.89764 0.35655 0.78228 0.0
Co2124 Co 0.5914 0.09464 0.28012 0.0
Co2125 Co 0.59523 0.09098 0.22094 0.0
O2126 O 0.60461 0.10419 0.25057 0.0
C2127 C 0.64158 0.08831 0.28902 0.0
O2128 O 0.64293 0.07573 0.27018 0.0
C2129 C 0.58855 0.14114 0.21213 0.0
O2130 O 0.57589 0.14238 0.23092 0.0
O2131 O 0.56192 0.09671 0.22774 0.0
O2132 O 0.56006 0.09188 0.26616 0.0
H2133 H 0.54763 0.04063 0.1685 0.0
H2134 H 0.61914 0.13763 0.27719 0.0
O2135 O 0.62244 0.09737 0.29498 0.0
H2136 H 0.54237 0.16211 0.30483 0.0
H2137 H 0.58201 0.09828 0.36656 0.0
H2138 H 0.55775 0.0589 0.29494 0.0
H2139 H 0.55052 0.121 0.29724 0.0
H2140 H 0.59788 0.11023 0.32885 0.0
O2141 O 0.59778 0.12208 0.20618 0.0
H2142 H 0.55977 0.05711 0.2059 0.0
H2143 H 0.6109 0.09769 0.17229 0.0
H2144 H 0.54127 0.04655 0.33225 0.0
H2145 H 0.6118 0.17894 0.28477 0.0
H2146 H 0.5534 0.06629 0.3684 0.0
H2147 H 0.57317 0.19141 0.29863 0.0
O2148 O 0.59737 0.06139 0.27324 0.0
H2149 H 0.67939 0.112 0.21667 0.0
H2150 H 0.62193 0.05033 0.20377 0.0
H2151 H 0.66312 0.0425 0.19633 0.0
H2152 H 0.69218 0.07348 0.20273 0.0
H2153 H 0.63801 0.11902 0.22411 0.0
H2154 H 0.59917 0.08182 0.13449 0.0
H2155 H 0.56739 0.05298 0.13245 0.0
O2156 O 0.59266 0.05958 0.2348 0.0
C2157 C 0.55052 0.09448 0.24647 0.0
C2158 C 0.56155 0.05312 0.16917 0.0
C2159 C 0.59046 0.07626 0.15008 0.0
N2160 N 0.58614 0.07821 0.1913 0.0
C2161 C 0.56854 0.06247 0.19031 0.0
C2162 C 0.59699 0.08523 0.17153 0.0
C2163 C 0.57263 0.06008 0.14895 0.0
C2164 C 0.60234 0.14292 0.28339 0.0
N2165 N 0.58531 0.12691 0.28685 0.0
C2166 C 0.59826 0.16633 0.28758 0.0
C2167 C 0.57657 0.17332 0.29533 0.0
C2168 C 0.55928 0.1569 0.2988 0.0
C2169 C 0.56398 0.13364 0.29441 0.0
C2170 C 0.57655 0.08957 0.35092 0.0
C2171 C 0.56301 0.06766 0.31058 0.0
C2172 C 0.58552 0.09622 0.32952 0.0
N2173 N 0.57862 0.08538 0.3097 0.0
C2174 C 0.55366 0.06055 0.33166 0.0
C2175 C 0.5605 0.07163 0.35194 0.0
C2176 C 0.59525 0.05001 0.25447 0.0
C2177 C 0.66689 0.09838 0.21376 0.0
C2178 C 0.63446 0.06387 0.20669 0.0
C2179 C 0.65777 0.05936 0.20239 0.0
C2180 C 0.67405 0.07675 0.20597 0.0
N2181 N 0.62756 0.08514 0.2143 0.0
C2182 C 0.64343 0.10227 0.21787 0.0
Co2183 Co 0.90537 0.59113 0.27981 0.0
Co2184 Co 0.90938 0.59522 0.22066 0.0
O2185 O 0.89604 0.60446 0.25025 0.0
C2186 C 0.91185 0.64129 0.28886 0.0
O2187 O 0.92449 0.64268 0.27007 0.0
C2188 C 0.85925 0.58857 0.21156 0.0
O2189 O 0.85786 0.57586 0.23031 0.0
O2190 O 0.90354 0.56188 0.2273 0.0
O2191 O 0.90801 0.55982 0.26576 0.0
H2192 H 0.95994 0.54789 0.16834 0.0
H2193 H 0.86254 0.61898 0.2767 0.0
O2194 O 0.90274 0.62214 0.29475 0.0
H2195 H 0.83753 0.54222 0.30405 0.0
H2196 H 0.90131 0.58148 0.3662 0.0
H2197 H 0.94085 0.55733 0.2947 0.0
H2198 H 0.87872 0.55028 0.29672 0.0
H2199 H 0.88961 0.59751 0.32848 0.0
O2200 O 0.87837 0.59779 0.20574 0.0
H2201 H 0.94327 0.55985 0.20569 0.0
H2202 H 0.90294 0.61106 0.17203 0.0
H2203 H 0.95295 0.54068 0.33202 0.0
H2204 H 0.82117 0.61173 0.28402 0.0
H2205 H 0.93312 0.55277 0.36811 0.0
H2206 H 0.80843 0.5731 0.29774 0.0
O2207 O 0.93869 0.59708 0.27314 0.0
H2208 H 0.88851 0.67937 0.21665 0.0
H2209 H 0.95014 0.62204 0.20378 0.0
H2210 H 0.95806 0.66328 0.19655 0.0
H2211 H 0.9271 0.69227 0.20295 0.0
H2212 H 0.8814 0.63795 0.22388 0.0
H2213 H 0.919 0.5995 0.13429 0.0
H2214 H 0.9478 0.56777 0.1323 0.0
O2215 O 0.94071 0.59265 0.23468 0.0
C2216 C 0.9055 0.55038 0.246 0.0
C2217 C 0.94745 0.56178 0.16899 0.0
C2218 C 0.92446 0.59073 0.14988 0.0
N2219 N 0.92229 0.58625 0.19106 0.0
C2220 C 0.938 0.56868 0.1901 0.0
C2221 C 0.91538 0.59717 0.17129 0.0
C2222 C 0.94062 0.57293 0.14877 0.0
C2223 C 0.85714 0.60218 0.28283 0.0
N2224 N 0.87304 0.5851 0.28634 0.0
C2225 C 0.83369 0.59815 0.28688 0.0
C2226 C 0.82655 0.57646 0.29455 0.0
C2227 C 0.84286 0.55913 0.29808 0.0
C2228 C 0.86617 0.56377 0.29384 0.0
C2229 C 0.91005 0.57604 0.35059 0.0
C2230 C 0.93205 0.56256 0.31031 0.0
C2231 C 0.90354 0.5851 0.32919 0.0
N2232 N 0.91443 0.57823 0.30939 0.0
C2233 C 0.93902 0.55313 0.3314 0.0
C2234 C 0.9279 0.55993 0.35165 0.0
C2235 C 0.95016 0.59516 0.25442 0.0
C2236 C 0.90213 0.6669 0.21375 0.0
C2237 C 0.9366 0.63455 0.2067 0.0
C2238 C 0.94117 0.65787 0.20251 0.0
C2239 C 0.92379 0.67413 0.20609 0.0
N2240 N 0.9153 0.62758 0.21419 0.0
C2241 C 0.89818 0.64342 0.21774 0.0
Co2242 Co 0.40531 0.90828 0.22001 0.0
Co2243 Co 0.40901 0.90399 0.2792 0.0
O2244 O 0.3958 0.89487 0.24949 0.0
C2245 C 0.4119 0.85816 0.21092 0.0
O2246 O 0.42439 0.85679 0.22982 0.0
C2247 C 0.35888 0.91093 0.28797 0.0
O2248 O 0.35775 0.92359 0.26918 0.0
O2249 O 0.40346 0.93738 0.27262 0.0
O2250 O 0.40785 0.93955 0.23416 0.0
H2251 H 0.45959 0.95094 0.332 0.0
H2252 H 0.36249 0.88026 0.22275 0.0
O2253 O 0.40279 0.87729 0.20499 0.0
H2254 H 0.33757 0.95702 0.19548 0.0
H2255 H 0.40172 0.91809 0.13363 0.0
H2256 H 0.44085 0.94224 0.20542 0.0
H2257 H 0.37873 0.94909 0.20308 0.0
H2258 H 0.38983 0.90194 0.17124 0.0
O2259 O 0.37787 0.90155 0.29392 0.0
H2260 H 0.44305 0.93917 0.2945 0.0
H2261 H 0.40216 0.88803 0.32774 0.0
H2262 H 0.45314 0.959 0.16821 0.0
H2263 H 0.32115 0.88738 0.21516 0.0
H2264 H 0.43352 0.94692 0.13197 0.0
H2265 H 0.30846 0.92601 0.20148 0.0
O2266 O 0.4386 0.90245 0.22687 0.0
H2267 H 0.38749 0.81993 0.28289 0.0
H2268 H 0.44949 0.87694 0.29621 0.0
H2269 H 0.45707 0.83564 0.30337 0.0
H2270 H 0.42592 0.80681 0.29675 0.0
H2271 H 0.38072 0.8614 0.27574 0.0
H2272 H 0.41808 0.8994 0.36562 0.0
H2273 H 0.4471 0.931 0.3679 0.0
O2274 O 0.44043 0.90648 0.26539 0.0
C2275 C 0.40544 0.94893 0.25395 0.0
C2276 C 0.44701 0.9371 0.33122 0.0
C2277 C 0.42369 0.90819 0.3501 0.0
N2278 N 0.4218 0.91282 0.30891 0.0
C2279 C 0.43763 0.93032 0.31004 0.0
C2280 C 0.4147 0.90187 0.3286 0.0
C2281 C 0.43998 0.92592 0.35136 0.0
C2282 C 0.35711 0.89706 0.21663 0.0
N2283 N 0.37301 0.9142 0.21329 0.0
C2284 C 0.33368 0.90101 0.21243 0.0
C2285 C 0.32656 0.9227 0.20478 0.0
C2286 C 0.34289 0.94011 0.20143 0.0
C2287 C 0.36616 0.93553 0.20582 0.0
C2288 C 0.41037 0.92353 0.1493 0.0
C2289 C 0.43213 0.937 0.18974 0.0
C2290 C 0.40375 0.9144 0.17064 0.0
N2291 N 0.41453 0.92127 0.19052 0.0
C2292 C 0.43921 0.9465 0.16872 0.0
C2293 C 0.42821 0.9397 0.14839 0.0
C2294 C 0.44998 0.90422 0.24567 0.0
C2295 C 0.40118 0.83233 0.28589 0.0
C2296 C 0.43587 0.8645 0.2932 0.0
C2297 C 0.44025 0.84114 0.29734 0.0
C2298 C 0.42276 0.82498 0.29364 0.0
N2299 N 0.41465 0.87158 0.28563 0.0
C2300 C 0.39743 0.85584 0.28195 0.0
Co2301 Co 0.09416 0.40976 0.28023 0.0
Co2302 Co 0.09068 0.40583 0.22107 0.0
O2303 O 0.10378 0.39648 0.25073 0.0
C2304 C 0.08803 0.35955 0.28921 0.0
O2305 O 0.07547 0.35804 0.27037 0.0
C2306 C 0.14093 0.41213 0.2124 0.0
O2307 O 0.14224 0.42485 0.23115 0.0
O2308 O 0.09669 0.43912 0.22783 0.0
O2309 O 0.09138 0.44105 0.26618 0.0
H2310 H 0.04082 0.45358 0.16846 0.0
H2311 H 0.13724 0.38225 0.27741 0.0
O2312 O 0.09695 0.37878 0.29516 0.0
H2313 H 0.16144 0.4592 0.30503 0.0
H2314 H 0.09751 0.41943 0.36665 0.0
H2315 H 0.05829 0.44326 0.29485 0.0
H2316 H 0.12036 0.45081 0.29739 0.0
H2317 H 0.10963 0.40351 0.32901 0.0
O2318 O 0.12178 0.40307 0.20639 0.0
H2319 H 0.05713 0.44144 0.20592 0.0
H2320 H 0.09737 0.39003 0.17245 0.0
H2321 H 0.04577 0.45978 0.33209 0.0
H2322 H 0.1785 0.38984 0.28505 0.0
H2323 H 0.06544 0.44786 0.36833 0.0
H2324 H 0.19083 0.42857 0.29891 0.0
O2325 O 0.06096 0.40356 0.27326 0.0
H2326 H 0.11102 0.32154 0.21701 0.0
H2327 H 0.04987 0.37931 0.20382 0.0
H2328 H 0.04172 0.33814 0.19641 0.0
H2329 H 0.07244 0.30893 0.20297 0.0
H2330 H 0.11836 0.3629 0.2244 0.0
H2331 H 0.08167 0.40177 0.13461 0.0
H2332 H 0.0531 0.43369 0.13247 0.0
O2333 O 0.05927 0.40859 0.23486 0.0
C2334 C 0.09428 0.45056 0.24652 0.0
C2335 C 0.05321 0.4396 0.16918 0.0
C2336 C 0.07615 0.41054 0.15018 0.0
N2337 N 0.07804 0.41493 0.19139 0.0
C2338 C 0.06245 0.4326 0.19034 0.0
C2339 C 0.08502 0.404 0.17165 0.0
C2340 C 0.06012 0.42845 0.14899 0.0
C2341 C 0.14246 0.39909 0.28361 0.0
N2342 N 0.1264 0.41604 0.28702 0.0
C2343 C 0.16585 0.40331 0.28783 0.0
C2344 C 0.17276 0.42505 0.29558 0.0
C2345 C 0.15628 0.44225 0.29901 0.0
C2346 C 0.13305 0.43742 0.29458 0.0
C2347 C 0.08884 0.42479 0.35097 0.0
C2348 C 0.06703 0.43809 0.31053 0.0
C2349 C 0.09559 0.41579 0.32962 0.0
N2350 N 0.08478 0.42258 0.30974 0.0
C2351 C 0.05982 0.44746 0.33157 0.0
C2352 C 0.07085 0.44075 0.3519 0.0
C2353 C 0.04964 0.40579 0.25448 0.0
C2354 C 0.09751 0.33411 0.21404 0.0
C2355 C 0.0633 0.36671 0.20681 0.0
C2356 C 0.0586 0.34342 0.20252 0.0
C2357 C 0.07585 0.32705 0.20619 0.0
N2358 N 0.0846 0.37351 0.21448 0.0
C2359 C 0.10159 0.35756 0.21812 0.0
Co2360 Co 0.7801 0.59563 0.90874 0.0
Co2361 Co 0.7209 0.59192 0.90497 0.0
O2362 O 0.75053 0.60508 0.89552 0.0
C2363 C 0.78889 0.5889 0.85859 0.0
O2364 O 0.77004 0.5763 0.85733 0.0
C2365 C 0.71218 0.64214 0.91148 0.0
O2366 O 0.73096 0.64345 0.92416 0.0
O2367 O 0.72777 0.59782 0.93825 0.0
O2368 O 0.7662 0.59311 0.94012 0.0
H2369 H 0.66848 0.54184 0.95281 0.0
H2370 H 0.77713 0.63841 0.88077 0.0
O2371 O 0.79488 0.59812 0.87766 0.0
H2372 H 0.80504 0.66345 0.95733 0.0
H2373 H 0.86656 0.59928 0.91796 0.0
H2374 H 0.79493 0.56013 0.94257 0.0
H2375 H 0.79738 0.62227 0.94944 0.0
H2376 H 0.82883 0.61113 0.90208 0.0
O2377 O 0.70619 0.62302 0.90234 0.0
H2378 H 0.70589 0.55822 0.94055 0.0
H2379 H 0.67223 0.59861 0.88937 0.0
H2380 H 0.83227 0.54788 0.95907 0.0
H2381 H 0.78478 0.67977 0.88786 0.0
H2382 H 0.86842 0.56751 0.94675 0.0
H2383 H 0.79878 0.69252 0.92639 0.0
O2384 O 0.77316 0.56234 0.90293 0.0
H2385 H 0.71651 0.61256 0.82076 0.0
H2386 H 0.70357 0.55118 0.87842 0.0
H2387 H 0.69601 0.54317 0.83726 0.0
H2388 H 0.70244 0.57401 0.8081 0.0
H2389 H 0.72406 0.61976 0.8621 0.0
H2390 H 0.63443 0.58284 0.90123 0.0
H2391 H 0.63241 0.55416 0.93309 0.0
O2392 O 0.73472 0.56053 0.9076 0.0
C2393 C 0.74652 0.59573 0.94966 0.0
C2394 C 0.66915 0.55427 0.93885 0.0
C2395 C 0.65003 0.5773 0.90992 0.0
N2396 N 0.69126 0.57921 0.91415 0.0
C2397 C 0.69028 0.56356 0.93179 0.0
C2398 C 0.67148 0.58621 0.90332 0.0
C2399 C 0.64891 0.56121 0.9278 0.0
C2400 C 0.78339 0.64382 0.89753 0.0
N2401 N 0.78688 0.62794 0.91464 0.0
C2402 C 0.78762 0.66726 0.90146 0.0
C2403 C 0.79545 0.67441 0.9231 0.0
C2404 C 0.79895 0.65811 0.94047 0.0
C2405 C 0.79452 0.63482 0.93591 0.0
C2406 C 0.85092 0.59063 0.9235 0.0
C2407 C 0.81058 0.56885 0.93724 0.0
C2408 C 0.82951 0.59722 0.91452 0.0
N2409 N 0.80968 0.58644 0.92152 0.0
C2410 C 0.83167 0.5618 0.94659 0.0
C2411 C 0.85195 0.5728 0.93966 0.0
C2412 C 0.75438 0.55096 0.90501 0.0
C2413 C 0.7136 0.599 0.8333 0.0
C2414 C 0.70651 0.56466 0.86584 0.0
C2415 C 0.70213 0.56004 0.84256 0.0
C2416 C 0.70573 0.57735 0.82621 0.0
N2417 N 0.71419 0.58594 0.87267 0.0
C2418 C 0.71777 0.603 0.85674 0.0
Co2419 Co 0.72018 0.40981 0.09409 0.0
Co2420 Co 0.77932 0.40565 0.09024 0.0
O2421 O 0.74969 0.39643 0.10352 0.0
C2422 C 0.71101 0.35964 0.08789 0.0
O2423 O 0.72982 0.35815 0.07529 0.0
C2424 C 0.78831 0.41213 0.1404 0.0
O2425 O 0.76956 0.42481 0.14174 0.0
O2426 O 0.77277 0.43898 0.09613 0.0
O2427 O 0.73435 0.44108 0.09134 0.0
H2428 H 0.83185 0.45303 0.03985 0.0
H2429 H 0.72312 0.38209 0.13705 0.0
O2430 O 0.70513 0.37885 0.09685 0.0
H2431 H 0.69603 0.45901 0.16168 0.0
H2432 H 0.63383 0.41971 0.09799 0.0
H2433 H 0.70547 0.44352 0.05843 0.0
H2434 H 0.7034 0.4508 0.12054 0.0
H2435 H 0.67147 0.40361 0.10981 0.0
O2436 O 0.79419 0.40297 0.12128 0.0
H2437 H 0.79444 0.44109 0.05645 0.0
H2438 H 0.82789 0.38968 0.09671 0.0
H2439 H 0.66823 0.46022 0.04621 0.0
H2440 H 0.71576 0.3895 0.17838 0.0
H2441 H 0.63207 0.44831 0.06604 0.0
H2442 H 0.70218 0.42822 0.19093 0.0
O2443 O 0.7269 0.40375 0.06082 0.0
H2444 H 0.78308 0.32143 0.11095 0.0
H2445 H 0.79614 0.37892 0.04944 0.0
H2446 H 0.80325 0.33769 0.04143 0.0
H2447 H 0.79676 0.30862 0.07234 0.0
H2448 H 0.77597 0.36284 0.11814 0.0
H2449 H 0.86569 0.40122 0.08071 0.0
H2450 H 0.86781 0.43303 0.05198 0.0
O2451 O 0.76535 0.40835 0.0589 0.0
C2452 C 0.75411 0.4505 0.09397 0.0
C2453 C 0.83114 0.43909 0.0523 0.0
C2454 C 0.85013 0.41003 0.07526 0.0
N2455 N 0.80896 0.4146 0.07739 0.0
C2456 C 0.81 0.43222 0.06171 0.0
C2457 C 0.82869 0.40362 0.08429 0.0
C2458 C 0.85131 0.42788 0.05913 0.0
C2459 C 0.71704 0.39893 0.14237 0.0
N2460 N 0.71362 0.41596 0.12639 0.0
C2461 C 0.71297 0.40304 0.1658 0.0
C2462 C 0.70538 0.42478 0.17283 0.0
C2463 C 0.70194 0.44207 0.15643 0.0
C2464 C 0.7062 0.43733 0.13316 0.0
C2465 C 0.64948 0.42507 0.08924 0.0
C2466 C 0.68983 0.43836 0.06724 0.0
C2467 C 0.67083 0.41597 0.09582 0.0
N2468 N 0.69067 0.42275 0.08493 0.0
C2469 C 0.66879 0.44783 0.0602 0.0
C2470 C 0.6485 0.44112 0.07132 0.0
C2471 C 0.74563 0.4058 0.04939 0.0
C2472 C 0.78602 0.33393 0.09736 0.0
C2473 C 0.79318 0.36638 0.06295 0.0
C2474 C 0.7973 0.34306 0.05833 0.0
C2475 C 0.79367 0.32676 0.07568 0.0
N2476 N 0.78571 0.37329 0.08426 0.0
C2477 C 0.7821 0.35741 0.10135 0.0
Co2478 Co 0.59551 0.77993 0.09054 0.0
Co2479 Co 0.59185 0.72074 0.09425 0.0
O2480 O 0.60497 0.75037 0.10376 0.0
C2481 C 0.58891 0.78871 0.14072 0.0
O2482 O 0.57635 0.76984 0.14198 0.0
C2483 C 0.64208 0.71208 0.08798 0.0
O2484 O 0.64341 0.73089 0.07535 0.0
O2485 O 0.59786 0.7276 0.061 0.0
O2486 O 0.59295 0.76601 0.05916 0.0
H2487 H 0.54197 0.66828 0.04618 0.0
H2488 H 0.63833 0.777 0.11849 0.0
O2489 O 0.59804 0.79474 0.12163 0.0
H2490 H 0.66325 0.80485 0.04191 0.0
H2491 H 0.59912 0.86639 0.08132 0.0
H2492 H 0.55996 0.79473 0.05674 0.0
H2493 H 0.62209 0.79719 0.04984 0.0
H2494 H 0.61101 0.82868 0.09719 0.0
O2495 O 0.62294 0.70605 0.09701 0.0
H2496 H 0.5583 0.7057 0.05851 0.0
H2497 H 0.59848 0.67208 0.10989 0.0
H2498 H 0.54767 0.83205 0.04025 0.0
H2499 H 0.67967 0.78465 0.11138 0.0
H2500 H 0.5673 0.86822 0.05255 0.0
H2501 H 0.69236 0.79863 0.07283 0.0
O2502 O 0.56223 0.77298 0.09636 0.0
H2503 H 0.61216 0.71636 0.17856 0.0
H2504 H 0.551 0.70346 0.12061 0.0
H2505 H 0.54282 0.69592 0.16173 0.0
H2506 H 0.57355 0.70233 0.19103 0.0
H2507 H 0.61953 0.72389 0.13725 0.0
H2508 H 0.58276 0.63427 0.09796 0.0
H2509 H 0.55421 0.63222 0.06595 0.0
O2510 O 0.56047 0.73455 0.09148 0.0
C2511 C 0.59566 0.74634 0.04961 0.0
C2512 C 0.55435 0.66895 0.06019 0.0
C2513 C 0.57726 0.64986 0.08924 0.0
N2514 N 0.57918 0.69109 0.08501 0.0
C2515 C 0.5636 0.6901 0.0673 0.0
C2516 C 0.58614 0.67132 0.09588 0.0
C2517 C 0.56124 0.64873 0.07128 0.0
C2518 C 0.64371 0.78325 0.10173 0.0
N2519 N 0.62781 0.78672 0.08463 0.0
C2520 C 0.66714 0.78748 0.09778 0.0
C2521 C 0.67426 0.79529 0.07614 0.0
C2522 C 0.65794 0.79878 0.05878 0.0
C2523 C 0.63465 0.79435 0.06335 0.0
C2524 C 0.59046 0.85074 0.07579 0.0
C2525 C 0.56868 0.81038 0.06207 0.0
C2526 C 0.59708 0.82934 0.08476 0.0
N2527 N 0.58629 0.80951 0.07777 0.0
C2528 C 0.5616 0.83147 0.05272 0.0
C2529 C 0.57261 0.85176 0.05965 0.0
C2530 C 0.55088 0.7542 0.09412 0.0
C2531 C 0.59865 0.71345 0.16595 0.0
C2532 C 0.56443 0.70638 0.13325 0.0
C2533 C 0.55972 0.70202 0.15651 0.0
C2534 C 0.57697 0.70561 0.17294 0.0
N2535 N 0.58575 0.71404 0.12653 0.0
C2536 C 0.60274 0.71761 0.14253 0.0
Co2537 Co 0.28023 0.59029 0.09596 0.0
Co2538 Co 0.22106 0.59417 0.09212 0.0
O2539 O 0.25068 0.60358 0.10536 0.0
C2540 C 0.28919 0.64042 0.08928 0.0
O2541 O 0.27029 0.6417 0.07678 0.0
C2542 C 0.21206 0.5878 0.14233 0.0
O2543 O 0.23076 0.57505 0.14374 0.0
O2544 O 0.22779 0.56089 0.09809 0.0
O2545 O 0.26621 0.55894 0.09339 0.0
H2546 H 0.16866 0.5463 0.04199 0.0
H2547 H 0.27725 0.61826 0.13876 0.0
O2548 O 0.29514 0.62134 0.09848 0.0
H2549 H 0.30478 0.54163 0.16378 0.0
H2550 H 0.36664 0.58089 0.09974 0.0
H2551 H 0.29503 0.55644 0.06045 0.0
H2552 H 0.29728 0.54955 0.1226 0.0
H2553 H 0.32895 0.59682 0.11157 0.0
O2554 O 0.20623 0.59691 0.12317 0.0
H2555 H 0.20605 0.55853 0.05845 0.0
H2556 H 0.17241 0.6099 0.09862 0.0
H2557 H 0.33234 0.5399 0.04822 0.0
H2558 H 0.28474 0.61114 0.18013 0.0
H2559 H 0.36849 0.55213 0.06792 0.0
H2560 H 0.29856 0.57257 0.19286 0.0
O2561 O 0.27342 0.59612 0.06267 0.0
H2562 H 0.21689 0.67844 0.11261 0.0
H2563 H 0.204 0.62066 0.05128 0.0
H2564 H 0.19662 0.66182 0.04318 0.0
H2565 H 0.20303 0.69103 0.07399 0.0
H2566 H 0.22426 0.6371 0.11989 0.0
H2567 H 0.13464 0.59807 0.08276 0.0
H2568 H 0.13262 0.56612 0.05415 0.0
O2569 O 0.23498 0.59144 0.06076 0.0
C2570 C 0.24649 0.54944 0.09601 0.0
C2571 C 0.16933 0.56029 0.05439 0.0
C2572 C 0.15023 0.58933 0.07729 0.0
N2573 N 0.19144 0.58502 0.07934 0.0
C2574 C 0.19045 0.56733 0.06372 0.0
C2575 C 0.17166 0.59591 0.08625 0.0
C2576 C 0.14911 0.5714 0.06123 0.0
C2577 C 0.28342 0.60149 0.14416 0.0
N2578 N 0.28689 0.58437 0.12828 0.0
C2579 C 0.28757 0.59754 0.16761 0.0
C2580 C 0.29529 0.57588 0.17475 0.0
C2581 C 0.29877 0.55851 0.15844 0.0
C2582 C 0.29443 0.56308 0.13515 0.0
C2583 C 0.35101 0.57539 0.09106 0.0
C2584 C 0.31067 0.56174 0.0692 0.0
C2585 C 0.32962 0.58439 0.09764 0.0
N2586 N 0.30979 0.57744 0.08682 0.0
C2587 C 0.33175 0.55236 0.06216 0.0
C2588 C 0.35203 0.55925 0.0732 0.0
C2589 C 0.25468 0.59403 0.05125 0.0
C2590 C 0.21399 0.66587 0.09906 0.0
C2591 C 0.20692 0.63327 0.06475 0.0
C2592 C 0.20265 0.65655 0.06008 0.0
C2593 C 0.20624 0.67293 0.07738 0.0
N2594 N 0.2145 0.62647 0.08606 0.0
C2595 C 0.21806 0.64243 0.10311 0.0
Co2596 Co 0.40513 0.21971 0.09219 0.0
Co2597 Co 0.40879 0.27889 0.0961 0.0
O2598 O 0.39566 0.24924 0.10548 0.0
C2599 C 0.41177 0.21084 0.14234 0.0
O2600 O 0.42437 0.22969 0.14365 0.0
C2601 C 0.35858 0.28763 0.08966 0.0
O2602 O 0.35726 0.26886 0.07697 0.0
O2603 O 0.40284 0.2721 0.06281 0.0
O2604 O 0.40766 0.23369 0.06085 0.0
H2605 H 0.45878 0.33145 0.04832 0.0
H2606 H 0.36233 0.22258 0.12014 0.0
O2607 O 0.40262 0.20485 0.12324 0.0
H2608 H 0.33737 0.19482 0.04351 0.0
H2609 H 0.40155 0.13326 0.08279 0.0
H2610 H 0.44065 0.20497 0.05834 0.0
H2611 H 0.37852 0.2025 0.05144 0.0
H2612 H 0.38966 0.17095 0.09874 0.0
O2613 O 0.3777 0.2936 0.09881 0.0
H2614 H 0.44242 0.29401 0.0605 0.0
H2615 H 0.40214 0.32753 0.11185 0.0
H2616 H 0.45294 0.16768 0.04177 0.0
H2617 H 0.32099 0.2149 0.11302 0.0
H2618 H 0.43333 0.13148 0.054 0.0
H2619 H 0.30827 0.20097 0.07445 0.0
O2620 O 0.43842 0.22665 0.09802 0.0
H2621 H 0.3883 0.28304 0.18035 0.0
H2622 H 0.44958 0.29614 0.12263 0.0
H2623 H 0.45766 0.30357 0.16381 0.0
H2624 H 0.42687 0.29706 0.19299 0.0
H2625 H 0.38103 0.27562 0.139 0.0
H2626 H 0.41789 0.36536 0.10008 0.0
H2627 H 0.4465 0.36747 0.06816 0.0
O2628 O 0.44019 0.26509 0.09337 0.0
C2629 C 0.40497 0.25338 0.05136 0.0
C2630 C 0.44638 0.33075 0.0623 0.0
C2631 C 0.4234 0.34978 0.09133 0.0
N2632 N 0.42148 0.30856 0.08698 0.0
C2633 C 0.4371 0.30959 0.06931 0.0
C2634 C 0.41451 0.32832 0.09788 0.0
C2635 C 0.43946 0.35095 0.07342 0.0
C2636 C 0.35694 0.21635 0.10337 0.0
N2637 N 0.37283 0.21292 0.08626 0.0
C2638 C 0.33351 0.21211 0.09941 0.0
C2639 C 0.32638 0.20432 0.07776 0.0
C2640 C 0.34269 0.20087 0.06039 0.0
C2641 C 0.36597 0.20532 0.06497 0.0
C2642 C 0.41019 0.14892 0.07729 0.0
C2643 C 0.43194 0.18931 0.06364 0.0
C2644 C 0.40357 0.1703 0.0863 0.0
N2645 N 0.41434 0.19015 0.07934 0.0
C2646 C 0.43902 0.16824 0.05425 0.0
C2647 C 0.42802 0.14793 0.06113 0.0
C2648 C 0.44978 0.24544 0.09592 0.0
C2649 C 0.40184 0.28599 0.1678 0.0
C2650 C 0.43612 0.29318 0.13523 0.0
C2651 C 0.44078 0.29747 0.15852 0.0
C2652 C 0.42349 0.29383 0.17488 0.0
N2653 N 0.41482 0.28552 0.12841 0.0
C2654 C 0.3978 0.2819 0.14435 0.0
Co2655 Co 0.2204 0.40483 0.91035 0.0
Co2656 Co 0.27959 0.40846 0.90651 0.0
O2657 O 0.24993 0.39533 0.89708 0.0
C2658 C 0.21151 0.41137 0.86019 0.0
O2659 O 0.2304 0.4239 0.85886 0.0
C2660 C 0.28825 0.35825 0.91288 0.0
O2661 O 0.26945 0.35695 0.92552 0.0
O2662 O 0.27279 0.4025 0.93978 0.0
O2663 O 0.23439 0.40742 0.9417 0.0
H2664 H 0.33213 0.4584 0.95443 0.0
H2665 H 0.22326 0.36196 0.88247 0.0
O2666 O 0.20552 0.40226 0.8793 0.0
H2667 H 0.19553 0.33718 0.95914 0.0
H2668 H 0.13397 0.40131 0.91974 0.0
H2669 H 0.2057 0.44045 0.94412 0.0
H2670 H 0.2032 0.37832 0.95113 0.0
H2671 H 0.17164 0.38934 0.90384 0.0
O2672 O 0.29427 0.37736 0.90379 0.0
H2673 H 0.29469 0.44207 0.94217 0.0
H2674 H 0.32822 0.4018 0.89082 0.0
H2675 H 0.16843 0.45282 0.96064 0.0
H2676 H 0.21561 0.32063 0.88967 0.0
H2677 H 0.13221 0.4332 0.94844 0.0
H2678 H 0.2017 0.30801 0.92826 0.0
O2679 O 0.22736 0.43809 0.90446 0.0
H2680 H 0.28383 0.38801 0.82224 0.0
H2681 H 0.29685 0.44927 0.88006 0.0
H2682 H 0.30434 0.45738 0.83891 0.0
H2683 H 0.29787 0.4266 0.80968 0.0
H2684 H 0.27635 0.38072 0.86357 0.0
H2685 H 0.36606 0.41751 0.90268 0.0
H2686 H 0.36816 0.44611 0.93463 0.0
O2687 O 0.26579 0.43987 0.90925 0.0
C2688 C 0.25407 0.40469 0.95121 0.0
C2689 C 0.33143 0.44601 0.94044 0.0
C2690 C 0.35048 0.42304 0.91141 0.0
N2691 N 0.30925 0.42114 0.91568 0.0
C2692 C 0.31028 0.43675 0.93338 0.0
C2693 C 0.32901 0.41416 0.9048 0.0
C2694 C 0.35164 0.43909 0.92933 0.0
C2695 C 0.21704 0.35661 0.89925 0.0
N2696 N 0.21361 0.37254 0.91633 0.0
C2697 C 0.21281 0.33318 0.90325 0.0
C2698 C 0.20503 0.32611 0.92491 0.0
C2699 C 0.20158 0.34246 0.94225 0.0
C2700 C 0.20602 0.36573 0.93763 0.0
C2701 C 0.14963 0.40996 0.92523 0.0
C2702 C 0.19003 0.43173 0.93884 0.0
C2703 C 0.171 0.4033 0.91624 0.0
N2704 N 0.19086 0.41408 0.92317 0.0
C2705 C 0.16897 0.43885 0.9482 0.0
C2706 C 0.14866 0.42785 0.94133 0.0
C2707 C 0.24614 0.44945 0.90662 0.0
C2708 C 0.28676 0.40155 0.83482 0.0
C2709 C 0.2939 0.43582 0.86744 0.0
C2710 C 0.29823 0.44049 0.84417 0.0
C2711 C 0.29461 0.42321 0.82778 0.0
N2712 N 0.28623 0.41452 0.87422 0.0
C2713 C 0.28263 0.3975 0.85825 0.0
Co2714 Co 0.59043 0.28021 0.90611 0.0
Co2715 Co 0.59472 0.22107 0.90974 0.0
O2716 O 0.60381 0.25077 0.8965 0.0
C2717 C 0.64062 0.28946 0.91202 0.0
O2718 O 0.64221 0.27059 0.92453 0.0
C2719 C 0.58806 0.21216 0.85957 0.0
O2720 O 0.57528 0.23085 0.85831 0.0
O2721 O 0.56135 0.22758 0.90401 0.0
O2722 O 0.55922 0.26597 0.90904 0.0
H2723 H 0.54767 0.16829 0.96018 0.0
H2724 H 0.61786 0.27747 0.86295 0.0
O2725 O 0.62134 0.29533 0.9032 0.0
H2726 H 0.54072 0.30449 0.83895 0.0
H2727 H 0.58035 0.36656 0.90258 0.0
H2728 H 0.55694 0.29474 0.94205 0.0
H2729 H 0.54924 0.297 0.88001 0.0
H2730 H 0.59643 0.32899 0.89051 0.0
O2731 O 0.59731 0.20629 0.87865 0.0
H2732 H 0.55945 0.20577 0.94363 0.0
H2733 H 0.61076 0.17255 0.90306 0.0
H2734 H 0.54027 0.33191 0.95453 0.0
H2735 H 0.61015 0.28496 0.8217 0.0
H2736 H 0.55198 0.36816 0.93474 0.0
H2737 H 0.57132 0.29851 0.80947 0.0
O2738 O 0.59673 0.2734 0.93932 0.0
H2739 H 0.67885 0.21757 0.88865 0.0
H2740 H 0.62166 0.20418 0.95037 0.0
H2741 H 0.66294 0.19713 0.95817 0.0
H2742 H 0.69186 0.2038 0.92715 0.0
H2743 H 0.63739 0.22461 0.88166 0.0
H2744 H 0.59938 0.13468 0.919 0.0
H2745 H 0.56769 0.1324 0.94785 0.0
O2746 O 0.59212 0.23495 0.94114 0.0
C2747 C 0.54982 0.24621 0.90635 0.0
C2748 C 0.56155 0.16907 0.94767 0.0
C2749 C 0.59055 0.1502 0.92454 0.0
N2750 N 0.58589 0.19137 0.92254 0.0
C2751 C 0.56834 0.19025 0.93829 0.0
C2752 C 0.59688 0.17169 0.91553 0.0
C2753 C 0.57278 0.14894 0.94073 0.0
C2754 C 0.60098 0.28354 0.85777 0.0
N2755 N 0.58405 0.28687 0.87388 0.0
C2756 C 0.59669 0.28768 0.83439 0.0
C2757 C 0.57489 0.29525 0.82753 0.0
C2758 C 0.55771 0.29859 0.84406 0.0
C2759 C 0.56262 0.29426 0.86729 0.0
C2760 C 0.57508 0.35088 0.91131 0.0
C2761 C 0.56202 0.31043 0.93327 0.0
C2762 C 0.58416 0.32956 0.90459 0.0
N2763 N 0.5775 0.30967 0.91546 0.0
C2764 C 0.55257 0.33143 0.94045 0.0
C2765 C 0.55916 0.35177 0.92935 0.0
C2766 C 0.59472 0.25463 0.9507 0.0
C2767 C 0.66641 0.21456 0.90228 0.0
C2768 C 0.63414 0.20721 0.93681 0.0
C2769 C 0.65749 0.20313 0.94131 0.0
C2770 C 0.6737 0.20686 0.9239 0.0
N2771 N 0.62712 0.21474 0.91556 0.0
C2772 C 0.64291 0.21844 0.89841 0.0
Co2773 Co 0.40972 0.72031 0.90422 0.0
Co2774 Co 0.40568 0.77947 0.90832 0.0
O2775 O 0.39635 0.74987 0.89499 0.0
C2776 C 0.35963 0.71126 0.91103 0.0
O2777 O 0.35837 0.73014 0.92357 0.0
C2778 C 0.41204 0.78853 0.85815 0.0
O2779 O 0.42472 0.76978 0.85672 0.0
O2780 O 0.439 0.77285 0.90239 0.0
O2781 O 0.44104 0.73438 0.90673 0.0
H2782 H 0.45328 0.8318 0.95877 0.0
H2783 H 0.38155 0.72339 0.86155 0.0
O2784 O 0.37868 0.70534 0.90176 0.0
H2785 H 0.45815 0.69621 0.83607 0.0
H2786 H 0.41932 0.63393 0.89996 0.0
H2787 H 0.44374 0.70541 0.93952 0.0
H2788 H 0.45038 0.70349 0.87732 0.0
H2789 H 0.40321 0.67165 0.88842 0.0
O2790 O 0.40297 0.79439 0.87731 0.0
H2791 H 0.44121 0.79445 0.94211 0.0
H2792 H 0.38985 0.8281 0.90195 0.0
H2793 H 0.46047 0.66809 0.95145 0.0
H2794 H 0.38851 0.71612 0.82013 0.0
H2795 H 0.44825 0.63201 0.93162 0.0
H2796 H 0.42706 0.70248 0.80715 0.0
O2797 O 0.40401 0.72696 0.93757 0.0
H2798 H 0.32145 0.78351 0.88769 0.0
H2799 H 0.37907 0.7963 0.94918 0.0
H2800 H 0.33788 0.80353 0.95723 0.0
H2801 H 0.30874 0.79718 0.92634 0.0
H2802 H 0.36282 0.77628 0.88045 0.0
H2803 H 0.40152 0.86584 0.91801 0.0
H2804 H 0.43338 0.86784 0.94671 0.0
O2805 O 0.40839 0.76544 0.93962 0.0
C2806 C 0.45049 0.75414 0.9043 0.0
C2807 C 0.43933 0.83115 0.94633 0.0
C2808 C 0.41029 0.85026 0.92343 0.0
N2809 N 0.41473 0.80907 0.92122 0.0
C2810 C 0.43238 0.81004 0.93688 0.0
C2811 C 0.4038 0.82884 0.91436 0.0
C2812 C 0.42817 0.85137 0.93954 0.0
C2813 C 0.39832 0.71729 0.85605 0.0
N2814 N 0.41551 0.71379 0.87185 0.0
C2815 C 0.40218 0.71327 0.83257 0.0
C2816 C 0.42382 0.70565 0.8253 0.0
C2817 C 0.44128 0.70214 0.84151 0.0
C2818 C 0.43679 0.70635 0.86485 0.0
C2819 C 0.42482 0.64954 0.9087 0.0
C2820 C 0.43845 0.6898 0.93071 0.0
C2821 C 0.41571 0.67094 0.90228 0.0
N2822 N 0.42266 0.69073 0.91318 0.0
C2823 C 0.44793 0.66871 0.93759 0.0
C2824 C 0.44105 0.64847 0.92646 0.0
C2825 C 0.40598 0.74568 0.94906 0.0
C2826 C 0.33398 0.78639 0.90128 0.0
C2827 C 0.3665 0.7934 0.93567 0.0
C2828 C 0.3432 0.79759 0.94032 0.0
C2829 C 0.32686 0.79403 0.92298 0.0
N2830 N 0.37335 0.78594 0.91434 0.0
C2831 C 0.35744 0.7824 0.89725 0.0
C2832 C 0.07614 0.32 0.30302 0.0
C2833 C 0.09026 0.33969 0.30517 0.0
H2834 H 0.06461 0.28833 0.3186 0.0
C2835 C 0.10552 0.34121 0.324 0.0
H2836 H 0.06426 0.31829 0.28866 0.0
C2837 C 0.10572 0.3242 0.341 0.0
C2838 C 0.09067 0.30517 0.33967 0.0
H2839 H 0.11688 0.35597 0.32605 0.0
H2840 H 0.11723 0.32639 0.35562 0.0
C2841 C 0.07634 0.30285 0.32016 0.0
C2842 C 0.67715 0.10558 0.34087 0.0
C2843 C 0.696 0.09035 0.33952 0.0
H2844 H 0.64552 0.11707 0.32592 0.0
C2845 C 0.69813 0.07604 0.31999 0.0
H2846 H 0.6751 0.11708 0.3555 0.0
C2847 C 0.68099 0.07603 0.30284 0.0
C2848 C 0.66148 0.09034 0.30499 0.0
H2849 H 0.7125 0.06417 0.31841 0.0
H2850 H 0.68255 0.06416 0.28845 0.0
C2851 C 0.66014 0.10557 0.32385 0.0
C2852 C 0.8944 0.67679 0.34065 0.0
C2853 C 0.90966 0.69566 0.3394 0.0
H2854 H 0.88295 0.64515 0.32562 0.0
C2855 C 0.92407 0.69784 0.31994 0.0
H2856 H 0.88283 0.67471 0.35522 0.0
C2857 C 0.92413 0.6807 0.30278 0.0
C2858 C 0.90979 0.66116 0.30484 0.0
H2859 H 0.93596 0.71223 0.31844 0.0
H2860 H 0.93607 0.68229 0.28846 0.0
C2861 C 0.89447 0.65979 0.32362 0.0
C2862 C 0.31963 0.9238 0.30171 0.0
C2863 C 0.33896 0.90925 0.30394 0.0
H2864 H 0.28827 0.93617 0.31721 0.0
C2865 C 0.3401 0.89412 0.32289 0.0
H2866 H 0.31822 0.93561 0.28726 0.0
C2867 C 0.32309 0.89444 0.3399 0.0
C2868 C 0.30445 0.90991 0.33846 0.0
H2869 H 0.35456 0.88245 0.32503 0.0
H2870 H 0.325 0.883 0.3546 0.0
C2871 C 0.30249 0.92413 0.31885 0.0
C2872 C 0.10575 0.65997 0.67749 0.0
C2873 C 0.09061 0.66121 0.69642 0.0
H2874 H 0.11697 0.67498 0.64577 0.0
C2875 C 0.07615 0.6806 0.69862 0.0
H2876 H 0.11736 0.64545 0.67538 0.0
C2877 C 0.07592 0.69773 0.68146 0.0
C2878 C 0.09015 0.69569 0.66186 0.0
H2879 H 0.06434 0.68209 0.71306 0.0
H2880 H 0.06395 0.71201 0.68308 0.0
C2881 C 0.10552 0.67696 0.66046 0.0
C2882 C 0.3024 0.07603 0.68104 0.0
C2883 C 0.30444 0.09054 0.66165 0.0
H2884 H 0.31808 0.06399 0.71244 0.0
C2885 C 0.32318 0.10596 0.66045 0.0
H2886 H 0.28811 0.06401 0.68249 0.0
C2887 C 0.3402 0.10595 0.67746 0.0
C2888 C 0.33897 0.09052 0.69616 0.0
H2889 H 0.32515 0.11762 0.64593 0.0
H2890 H 0.35474 0.1176 0.6755 0.0
C2891 C 0.31955 0.07602 0.69818 0.0
C2892 C 0.89471 0.32313 0.65929 0.0
C2893 C 0.90989 0.30425 0.66065 0.0
H2894 H 0.88329 0.35479 0.67425 0.0
C2895 C 0.92418 0.30206 0.6802 0.0
H2896 H 0.88324 0.32523 0.64465 0.0
C2897 C 0.9242 0.31919 0.69736 0.0
C2898 C 0.90995 0.33875 0.69521 0.0
H2899 H 0.936 0.28766 0.68178 0.0
H2900 H 0.93605 0.31759 0.71176 0.0
C2901 C 0.89474 0.34013 0.67632 0.0
C2902 C 0.69742 0.92441 0.68051 0.0
C2903 C 0.69526 0.90987 0.66114 0.0
H2904 H 0.68182 0.93668 0.71186 0.0
C2905 C 0.67636 0.89464 0.65992 0.0
H2906 H 0.71184 0.93627 0.68198 0.0
C2907 C 0.65932 0.89488 0.67689 0.0
C2908 C 0.66067 0.91034 0.69557 0.0
H2909 H 0.67429 0.88297 0.64542 0.0
H2910 H 0.64466 0.88337 0.67492 0.0
C2911 C 0.68024 0.92464 0.69761 0.0
C2912 C 0.34106 0.10521 0.32411 0.0
C2913 C 0.33953 0.0899 0.30532 0.0
H2914 H 0.32618 0.11709 0.35563 0.0
C2915 C 0.31978 0.07587 0.30314 0.0
H2916 H 0.35586 0.1165 0.32619 0.0
C2917 C 0.30257 0.07621 0.32021 0.0
C2918 C 0.30488 0.09059 0.33968 0.0
H2919 H 0.31807 0.06396 0.2888 0.0
H2920 H 0.28801 0.06455 0.31863 0.0
C2921 C 0.32398 0.10555 0.34105 0.0
C2922 C 0.89447 0.32332 0.33982 0.0
C2923 C 0.90989 0.30462 0.33847 0.0
H2924 H 0.88262 0.3548 0.32485 0.0
C2925 C 0.92417 0.3026 0.31891 0.0
H2926 H 0.88299 0.32528 0.35447 0.0
C2927 C 0.92396 0.31971 0.30174 0.0
C2928 C 0.90946 0.33909 0.30389 0.0
H2929 H 0.93618 0.28834 0.31733 0.0
H2930 H 0.93582 0.31824 0.28734 0.0
C2931 C 0.89426 0.3403 0.32278 0.0
C2932 C 0.69756 0.92432 0.31976 0.0
C2933 C 0.69546 0.90986 0.33918 0.0
H2934 H 0.68198 0.93627 0.28827 0.0
C2935 C 0.67669 0.89448 0.34039 0.0
H2936 H 0.71188 0.9363 0.3183 0.0
C2937 C 0.65972 0.89445 0.32333 0.0
C2938 C 0.66101 0.90982 0.30458 0.0
H2939 H 0.67467 0.88286 0.35493 0.0
H2940 H 0.64516 0.88282 0.32528 0.0
C2941 C 0.68045 0.9243 0.30257 0.0
C2942 C 0.07625 0.6811 0.30313 0.0
C2943 C 0.09055 0.66159 0.30535 0.0
H2944 H 0.06429 0.71261 0.31865 0.0
C2945 C 0.10568 0.66025 0.32429 0.0
H2946 H 0.06446 0.68267 0.28868 0.0
C2947 C 0.10559 0.67726 0.34132 0.0
C2948 C 0.09036 0.6961 0.33989 0.0
H2949 H 0.11716 0.64563 0.32641 0.0
H2950 H 0.11701 0.6752 0.35601 0.0
C2951 C 0.07615 0.69824 0.32029 0.0
C2952 C 0.33997 0.89481 0.67604 0.0
C2953 C 0.33866 0.91 0.69493 0.0
H2954 H 0.32496 0.88333 0.6444 0.0
C2955 C 0.31914 0.92429 0.69715 0.0
H2956 H 0.3546 0.88333 0.67392 0.0
C2957 C 0.30196 0.9243 0.68003 0.0
C2958 C 0.30406 0.91001 0.66047 0.0
H2959 H 0.31759 0.93613 0.71156 0.0
H2960 H 0.28758 0.93614 0.68166 0.0
C2961 C 0.32292 0.89481 0.65906 0.0
C2962 C 0.10587 0.34055 0.67769 0.0
C2963 C 0.09052 0.33923 0.69645 0.0
H2964 H 0.11744 0.32564 0.64606 0.0
C2965 C 0.07604 0.31978 0.69844 0.0
H2966 H 0.11749 0.35511 0.67575 0.0
C2967 C 0.07601 0.30269 0.68123 0.0
C2968 C 0.09045 0.30483 0.66179 0.0
H2969 H 0.06408 0.31823 0.71274 0.0
H2970 H 0.06403 0.28838 0.68267 0.0
C2971 C 0.10584 0.3236 0.66061 0.0
C2972 C 0.67694 0.10573 0.66002 0.0
C2973 C 0.69565 0.09034 0.66144 0.0
H2974 H 0.64541 0.11758 0.67489 0.0
C2975 C 0.69763 0.07607 0.68102 0.0
H2976 H 0.67501 0.1172 0.64535 0.0
C2977 C 0.68047 0.0763 0.69815 0.0
C2978 C 0.6611 0.09079 0.69593 0.0
H2979 H 0.71189 0.06408 0.68265 0.0
H2980 H 0.68192 0.06447 0.71258 0.0
C2981 C 0.65992 0.10596 0.67701 0.0
C2982 C 0.92398 0.69749 0.68077 0.0
C2983 C 0.90956 0.69524 0.66132 0.0
H2984 H 0.93616 0.68197 0.71219 0.0
C2985 C 0.89445 0.67626 0.66002 0.0
H2986 H 0.93576 0.71197 0.6823 0.0
C2987 C 0.89468 0.65922 0.67699 0.0
C2988 C 0.91003 0.66067 0.69576 0.0
H2989 H 0.88288 0.67412 0.64545 0.0
H2990 H 0.88327 0.6445 0.67496 0.0
C2991 C 0.92421 0.68032 0.69788 0.0
C2992 C 0.323 0.33936 0.10702 0.0
C2993 C 0.30423 0.3381 0.09166 0.0
H2994 H 0.35454 0.32433 0.11864 0.0
C2995 C 0.30211 0.31864 0.07723 0.0
H2996 H 0.32503 0.35393 0.11861 0.0
C2997 C 0.31922 0.30148 0.07725 0.0
C2998 C 0.33868 0.30356 0.09168 0.0
H2999 H 0.2878 0.31714 0.06526 0.0
H3000 H 0.31769 0.28717 0.06528 0.0
C3001 C 0.33997 0.32233 0.10704 0.0
C3002 C 0.34106 0.6761 0.89441 0.0
C3003 C 0.33976 0.69519 0.90937 0.0
H3004 H 0.32611 0.64423 0.88347 0.0
C3005 C 0.32032 0.69748 0.92378 0.0
H3006 H 0.35562 0.67391 0.88286 0.0
C3007 C 0.30321 0.68028 0.92413 0.0
C3008 C 0.30532 0.66055 0.91009 0.0
H3009 H 0.31878 0.71204 0.93544 0.0
H3010 H 0.2889 0.68199 0.93605 0.0
C3011 C 0.32409 0.65903 0.89477 0.0
C3012 C 0.32291 0.33957 0.89552 0.0
C3013 C 0.30412 0.3383 0.91084 0.0
H3014 H 0.35447 0.32454 0.88396 0.0
C3015 C 0.30197 0.31883 0.92522 0.0
H3016 H 0.32496 0.35415 0.88396 0.0
C3017 C 0.31907 0.30166 0.92522 0.0
C3018 C 0.33855 0.30374 0.91083 0.0
H3019 H 0.28763 0.31732 0.93715 0.0
H3020 H 0.31751 0.28733 0.93715 0.0
C3021 C 0.33988 0.32253 0.89551 0.0
C3022 C 0.68024 0.30329 0.92369 0.0
C3023 C 0.66045 0.30548 0.90975 0.0
H3024 H 0.71202 0.31882 0.93501 0.0
C3025 C 0.65883 0.32439 0.89461 0.0
H3026 H 0.68204 0.28886 0.93547 0.0
C3027 C 0.67586 0.3414 0.89434 0.0
C3028 C 0.69501 0.34 0.90921 0.0
H3029 H 0.64398 0.32649 0.88339 0.0
H3030 H 0.67359 0.35607 0.88293 0.0
C3031 C 0.69741 0.32044 0.92342 0.0
C3032 C 0.67759 0.66081 0.89397 0.0
C3033 C 0.69629 0.66206 0.90941 0.0
H3034 H 0.64608 0.67582 0.88224 0.0
C3035 C 0.69832 0.6815 0.92388 0.0
H3036 H 0.67563 0.64626 0.88234 0.0
C3037 C 0.68119 0.69864 0.92383 0.0
C3038 C 0.6618 0.69657 0.9093 0.0
H3039 H 0.71258 0.683 0.93592 0.0
H3040 H 0.68265 0.71294 0.93582 0.0
C3041 C 0.6606 0.67782 0.89391 0.0
C3042 C 0.68152 0.69834 0.07573 0.0
C3043 C 0.66202 0.69622 0.09009 0.0
H3044 H 0.71302 0.68276 0.06387 0.0
C3045 C 0.66073 0.67747 0.10545 0.0
H3046 H 0.68304 0.71265 0.06376 0.0
C3047 C 0.67776 0.66049 0.10551 0.0
C3048 C 0.69657 0.66178 0.09022 0.0
H3049 H 0.64613 0.67544 0.11699 0.0
H3050 H 0.67573 0.64593 0.1171 0.0
C3051 C 0.69868 0.68123 0.07579 0.0
C3052 C 0.34145 0.67591 0.10551 0.0
C3053 C 0.33991 0.69471 0.09022 0.0
H3054 H 0.32657 0.64437 0.11741 0.0
C3055 C 0.32016 0.69684 0.07622 0.0
H3056 H 0.35626 0.67387 0.11679 0.0
C3057 C 0.30295 0.67974 0.07658 0.0
C3058 C 0.30526 0.66028 0.09095 0.0
H3059 H 0.31843 0.71118 0.06432 0.0
H3060 H 0.28838 0.6813 0.06494 0.0
C3061 C 0.32437 0.65895 0.10588 0.0
C3062 C 0.6762 0.34125 0.10538 0.0
C3063 C 0.69504 0.33975 0.09014 0.0
H3064 H 0.64463 0.32634 0.11717 0.0
C3065 C 0.69721 0.32003 0.0761 0.0
H3066 H 0.67412 0.35604 0.11668 0.0
C3067 C 0.68011 0.30281 0.07638 0.0
C3068 C 0.66062 0.30508 0.09071 0.0
H3069 H 0.71158 0.31833 0.06423 0.0
H3070 H 0.68171 0.28826 0.06472 0.0
C3071 C 0.65924 0.32417 0.10567 0.0
C3072 C 0.60558 0.84133 0.82308 0.0
C3073 C 0.59028 0.83991 0.80427 0.0
H3074 H 0.61728 0.8264 0.85464 0.0
C3075 C 0.57607 0.82028 0.80211 0.0
H3076 H 0.617 0.85604 0.82515 0.0
C3077 C 0.57624 0.8031 0.81921 0.0
C3078 C 0.59061 0.80531 0.8387 0.0
H3079 H 0.56416 0.81865 0.78776 0.0
H3080 H 0.56445 0.78863 0.81764 0.0
C3081 C 0.60574 0.82428 0.84005 0.0
C3082 C 0.17735 0.60542 0.8415 0.0
C3083 C 0.19616 0.59015 0.84007 0.0
H3084 H 0.14575 0.61706 0.8266 0.0
C3085 C 0.19825 0.57593 0.82046 0.0
H3086 H 0.17532 0.61685 0.85619 0.0
C3087 C 0.18111 0.57606 0.80331 0.0
C3088 C 0.16163 0.59041 0.80553 0.0
H3089 H 0.2126 0.56404 0.81882 0.0
H3090 H 0.18265 0.56427 0.78886 0.0
C3091 C 0.16033 0.60554 0.82448 0.0
C3092 C 0.39445 0.15931 0.82431 0.0
C3093 C 0.40963 0.16085 0.80543 0.0
H3094 H 0.38295 0.17404 0.85605 0.0
C3095 C 0.42385 0.18047 0.80334 0.0
H3096 H 0.38302 0.1446 0.82633 0.0
C3097 C 0.42381 0.19754 0.82057 0.0
C3098 C 0.40955 0.19521 0.84012 0.0
H3099 H 0.43567 0.18219 0.78894 0.0
H3100 H 0.4356 0.212 0.81904 0.0
C3101 C 0.39441 0.17625 0.84141 0.0
C3102 C 0.83992 0.39445 0.82269 0.0
C3103 C 0.83886 0.40973 0.80386 0.0
H3104 H 0.82472 0.38311 0.85427 0.0
C3105 C 0.81956 0.42432 0.80167 0.0
H3106 H 0.85437 0.38274 0.82478 0.0
C3107 C 0.80237 0.42454 0.81877 0.0
C3108 C 0.80425 0.41017 0.83828 0.0
H3109 H 0.81821 0.43623 0.78731 0.0
H3110 H 0.78818 0.43661 0.81718 0.0
C3111 C 0.82287 0.39466 0.83965 0.0
C3112 C 0.57597 0.19767 0.18123 0.0
C3113 C 0.59034 0.19565 0.16173 0.0
H3114 H 0.56414 0.18197 0.21271 0.0
C3115 C 0.60568 0.1769 0.16038 0.0
H3116 H 0.56402 0.21197 0.18281 0.0
C3117 C 0.60575 0.15986 0.17737 0.0
C3118 C 0.59047 0.16107 0.1962 0.0
H3119 H 0.61722 0.17494 0.14577 0.0
H3120 H 0.61734 0.14532 0.1753 0.0
C3121 C 0.57604 0.1805 0.19835 0.0
C3122 C 0.81992 0.57615 0.1975 0.0
C3123 C 0.83941 0.59057 0.19552 0.0
H3124 H 0.7885 0.56422 0.18171 0.0
C3125 C 0.8408 0.6059 0.17674 0.0
H3126 H 0.81832 0.56421 0.21181 0.0
C3127 C 0.82387 0.6059 0.15965 0.0
C3128 C 0.80506 0.59058 0.16083 0.0
H3129 H 0.8554 0.61748 0.17481 0.0
H3130 H 0.82597 0.61748 0.14509 0.0
C3131 C 0.80286 0.57616 0.18027 0.0
C3132 C 0.39496 0.82265 0.15891 0.0
C3133 C 0.41022 0.80383 0.1603 0.0
H3134 H 0.38334 0.85424 0.17387 0.0
C3135 C 0.42447 0.8017 0.17988 0.0
H3136 H 0.38351 0.8247 0.14424 0.0
C3137 C 0.42436 0.81882 0.19706 0.0
C3138 C 0.41001 0.83831 0.19488 0.0
H3139 H 0.43635 0.78735 0.18149 0.0
H3140 H 0.43617 0.81726 0.2115 0.0
C3141 C 0.39486 0.83964 0.17596 0.0
C3142 C 0.17671 0.3942 0.16099 0.0
C3143 C 0.1956 0.40943 0.16227 0.0
H3144 H 0.14496 0.38292 0.17589 0.0
C3145 C 0.1977 0.42396 0.18166 0.0
H3146 H 0.17468 0.38254 0.14648 0.0
C3147 C 0.18047 0.42418 0.19871 0.0
C3148 C 0.16091 0.40989 0.1966 0.0
H3149 H 0.21211 0.43583 0.18317 0.0
H3150 H 0.18201 0.43622 0.21296 0.0
C3151 C 0.15961 0.39442 0.17791 0.0
C3152 C 0.82372 0.60599 0.83991 0.0
C3153 C 0.80487 0.59071 0.8387 0.0
H3154 H 0.85542 0.61732 0.82494 0.0
C3155 C 0.80277 0.57614 0.81935 0.0
H3156 H 0.82574 0.61769 0.8544 0.0
C3157 C 0.81998 0.57592 0.80227 0.0
C3158 C 0.83951 0.59028 0.80432 0.0
H3159 H 0.78839 0.56422 0.81788 0.0
H3160 H 0.81845 0.56385 0.78804 0.0
C3161 C 0.84079 0.60578 0.82297 0.0
C3162 C 0.42394 0.81961 0.80155 0.0
C3163 C 0.4095 0.83902 0.80376 0.0
H3164 H 0.43608 0.78817 0.81707 0.0
C3165 C 0.39433 0.84025 0.82267 0.0
H3166 H 0.43576 0.81812 0.78713 0.0
C3167 C 0.39452 0.82324 0.83968 0.0
C3168 C 0.40987 0.8045 0.83827 0.0
H3169 H 0.38275 0.85479 0.82479 0.0
H3170 H 0.38306 0.82521 0.85436 0.0
C3171 C 0.42412 0.80246 0.81869 0.0
C3172 C 0.19779 0.42377 0.82077 0.0
C3173 C 0.19552 0.40948 0.8403 0.0
H3174 H 0.18232 0.43572 0.78922 0.0
C3175 C 0.17653 0.39438 0.84165 0.0
H3176 H 0.21227 0.43553 0.81919 0.0
C3177 C 0.15952 0.39448 0.82463 0.0
C3178 C 0.161 0.40969 0.80576 0.0
H3179 H 0.17437 0.38289 0.85627 0.0
H3180 H 0.1448 0.38308 0.82669 0.0
C3181 C 0.18064 0.42388 0.80361 0.0
C3182 C 0.60554 0.1605 0.82387 0.0
C3183 C 0.5903 0.16181 0.80501 0.0
H3184 H 0.61698 0.17544 0.85556 0.0
C3185 C 0.57588 0.18125 0.80292 0.0
H3186 H 0.61711 0.14594 0.8259 0.0
C3187 C 0.5758 0.19835 0.82012 0.0
C3188 C 0.59013 0.19624 0.83964 0.0
H3189 H 0.564 0.18279 0.78854 0.0
H3190 H 0.56385 0.21266 0.81858 0.0
C3191 C 0.60546 0.17748 0.84093 0.0
C3192 C 0.81925 0.42436 0.19702 0.0
C3193 C 0.83879 0.41008 0.19484 0.0
H3194 H 0.78773 0.43621 0.18146 0.0
C3195 C 0.84016 0.39491 0.17593 0.0
H3196 H 0.81766 0.43618 0.21144 0.0
C3197 C 0.82316 0.39492 0.1589 0.0
C3198 C 0.80429 0.41012 0.16028 0.0
H3199 H 0.85479 0.38344 0.17385 0.0
H3200 H 0.82524 0.38346 0.14424 0.0
C3201 C 0.80212 0.42438 0.17985 0.0
C3202 C 0.57641 0.81947 0.19735 0.0
C3203 C 0.59069 0.83906 0.19529 0.0
H3204 H 0.56464 0.78794 0.18165 0.0
C3205 C 0.60596 0.84051 0.17647 0.0
H3206 H 0.56451 0.81782 0.21169 0.0
C3207 C 0.60604 0.82354 0.15941 0.0
C3208 C 0.59084 0.80463 0.16066 0.0
H3209 H 0.61744 0.85518 0.17448 0.0
H3210 H 0.61757 0.82569 0.14482 0.0
C3211 C 0.57648 0.80237 0.18015 0.0
C3212 C 0.16039 0.60567 0.17778 0.0
C3213 C 0.16149 0.59042 0.19663 0.0
H3214 H 0.17556 0.617 0.14618 0.0
C3215 C 0.18082 0.57586 0.19882 0.0
H3216 H 0.14593 0.61736 0.17569 0.0
C3217 C 0.198 0.57565 0.18171 0.0
C3218 C 0.19608 0.59 0.16219 0.0
H3219 H 0.1822 0.56396 0.2132 0.0
H3220 H 0.21222 0.5636 0.18331 0.0
C3221 C 0.17744 0.60547 0.16081 0.0
C3222 C 0.4243 0.19698 0.18166 0.0
C3223 C 0.40981 0.1949 0.16225 0.0
H3224 H 0.43638 0.18131 0.21305 0.0
C3225 C 0.39445 0.17612 0.161 0.0
H3226 H 0.43628 0.21131 0.18315 0.0
C3227 C 0.3945 0.15909 0.17799 0.0
C3228 C 0.40992 0.16034 0.1967 0.0
H3229 H 0.3828 0.17413 0.14647 0.0
H3230 H 0.3829 0.14451 0.17599 0.0
C3231 C 0.42436 0.17981 0.19877 0.0
C3232 C 0.83962 0.82273 0.60607 0.0
C3233 C 0.8384 0.804 0.59066 0.0
H3234 H 0.82461 0.85429 0.61767 0.0
C3235 C 0.81901 0.80195 0.57613 0.0
H3236 H 0.85413 0.8247 0.61774 0.0
C3237 C 0.80189 0.81911 0.57609 0.0
C3238 C 0.80394 0.83853 0.59058 0.0
H3239 H 0.81754 0.78767 0.56412 0.0
H3240 H 0.78763 0.81763 0.56405 0.0
C3241 C 0.82263 0.83975 0.60603 0.0
C3242 C 0.82015 0.19768 0.42376 0.0
C3243 C 0.83966 0.19543 0.40943 0.0
H3244 H 0.78866 0.18215 0.43582 0.0
C3245 C 0.84102 0.1764 0.39441 0.0
H3246 H 0.81857 0.21219 0.43547 0.0
C3247 C 0.82403 0.15934 0.39461 0.0
C3248 C 0.80519 0.16081 0.40985 0.0
H3249 H 0.85563 0.17425 0.38291 0.0
H3250 H 0.8261 0.14459 0.38326 0.0
C3251 C 0.80303 0.18048 0.42396 0.0
C3252 C 0.80198 0.81935 0.42407 0.0
C3253 C 0.80418 0.83888 0.40976 0.0
H3254 H 0.81751 0.78785 0.43599 0.0
C3255 C 0.82306 0.84023 0.39456 0.0
H3256 H 0.78758 0.81777 0.43591 0.0
C3257 C 0.84006 0.82324 0.3946 0.0
C3258 C 0.83868 0.80439 0.40985 0.0
H3259 H 0.82515 0.85486 0.38306 0.0
H3260 H 0.85472 0.82531 0.38314 0.0
C3261 C 0.81912 0.80222 0.42411 0.0
C3262 C 0.18032 0.80316 0.42412 0.0
C3263 C 0.16062 0.80526 0.41003 0.0
H3264 H 0.21204 0.81874 0.43552 0.0
C3265 C 0.15913 0.82405 0.39473 0.0
H3266 H 0.18201 0.78883 0.43603 0.0
C3267 C 0.17619 0.84103 0.39443 0.0
C3268 C 0.19524 0.83973 0.40943 0.0
H3269 H 0.14436 0.82607 0.38339 0.0
H3270 H 0.17402 0.85561 0.38288 0.0
C3271 C 0.19751 0.82028 0.42382 0.0
C3272 C 0.19815 0.18126 0.42508 0.0
C3273 C 0.19612 0.1619 0.41051 0.0
H3274 H 0.18249 0.21265 0.43717 0.0
C3275 C 0.17743 0.16074 0.39504 0.0
H3276 H 0.2124 0.18268 0.43714 0.0
C3277 C 0.16045 0.17776 0.39506 0.0
C3278 C 0.16166 0.19643 0.41054 0.0
H3279 H 0.17547 0.14625 0.38334 0.0
H3280 H 0.14595 0.17583 0.38337 0.0
C3281 C 0.18103 0.19841 0.4251 0.0
C3282 C 0.19808 0.18121 0.57685 0.0
C3283 C 0.19588 0.16167 0.59113 0.0
H3284 H 0.18257 0.21276 0.565 0.0
C3285 C 0.17703 0.16033 0.60637 0.0
H3286 H 0.21246 0.18278 0.56497 0.0
C3287 C 0.16006 0.17736 0.60639 0.0
C3288 C 0.16144 0.19622 0.59117 0.0
H3289 H 0.17493 0.14569 0.61786 0.0
H3290 H 0.14542 0.17529 0.61789 0.0
C3291 C 0.18097 0.19837 0.57686 0.0
C3292 C 0.82397 0.15924 0.6056 0.0
C3293 C 0.80495 0.16056 0.59057 0.0
H3294 H 0.85575 0.17423 0.61674 0.0
C3295 C 0.80267 0.18005 0.57623 0.0
H3296 H 0.82614 0.14464 0.61712 0.0
C3297 C 0.81983 0.1972 0.57601 0.0
C3298 C 0.83951 0.19509 0.59013 0.0
H3299 H 0.78816 0.1816 0.56451 0.0
H3300 H 0.81814 0.21156 0.56413 0.0
C3301 C 0.841 0.17626 0.60539 0.0
C3302 C 0.19695 0.81985 0.57614 0.0
C3303 C 0.19487 0.83954 0.59025 0.0
H3304 H 0.18135 0.78815 0.56472 0.0
C3305 C 0.17611 0.84102 0.60558 0.0
H3306 H 0.21127 0.81817 0.56421 0.0
C3307 C 0.15912 0.82396 0.60588 0.0
C3308 C 0.1604 0.80492 0.59086 0.0
H3309 H 0.1741 0.85577 0.61694 0.0
H3310 H 0.14456 0.82612 0.61745 0.0
C3311 C 0.17983 0.80266 0.57644 0.0
C3312 C 0.09341 0.2667 0.48864 0.0
C3313 C 0.09562 0.24598 0.47616 0.0
H3314 H 0.09158 0.2831 0.52143 0.0
C3315 C 0.09795 0.22512 0.48846 0.0
H3316 H 0.09151 0.28314 0.47992 0.0
C3317 C 0.09799 0.2251 0.51272 0.0
C3318 C 0.0957 0.24593 0.52509 0.0
H3319 H 0.09964 0.20884 0.47938 0.0
H3320 H 0.09969 0.2088 0.52175 0.0
C3321 C 0.09345 0.26668 0.51266 0.0
C3322 C 0.73444 0.09276 0.51252 0.0
C3323 C 0.75517 0.09483 0.52502 0.0
H3324 H 0.71802 0.0911 0.47973 0.0
C3325 C 0.77605 0.09708 0.51272 0.0
H3326 H 0.71798 0.09092 0.52123 0.0
C3327 C 0.77607 0.09718 0.48845 0.0
C3328 C 0.75522 0.09504 0.47608 0.0
H3329 H 0.79234 0.09866 0.5218 0.0
H3330 H 0.79238 0.09883 0.47943 0.0
C3331 C 0.73446 0.09287 0.48851 0.0
C3332 C 0.90211 0.77554 0.48838 0.0
C3333 C 0.90431 0.7547 0.47601 0.0
H3334 H 0.90051 0.79178 0.52174 0.0
C3335 C 0.90642 0.73393 0.48842 0.0
H3336 H 0.90051 0.79185 0.47936 0.0
C3337 C 0.90642 0.73389 0.51243 0.0
C3338 C 0.90431 0.75461 0.52494 0.0
H3339 H 0.90822 0.7175 0.47964 0.0
H3340 H 0.90822 0.71743 0.52114 0.0
C3341 C 0.90211 0.77549 0.51265 0.0
C3342 C 0.26567 0.90785 0.48745 0.0
C3343 C 0.24496 0.90558 0.47494 0.0
H3344 H 0.28204 0.90969 0.52026 0.0
C3345 C 0.2241 0.90316 0.48722 0.0
H3346 H 0.28211 0.90982 0.47875 0.0
C3347 C 0.22405 0.90308 0.51149 0.0
C3348 C 0.24487 0.90542 0.52388 0.0
H3349 H 0.20783 0.90143 0.47813 0.0
H3350 H 0.20775 0.9013 0.5205 0.0
C3351 C 0.26562 0.90777 0.51147 0.0
C3352 C 0.09695 0.77607 0.51314 0.0
C3353 C 0.09464 0.75519 0.52542 0.0
H3354 H 0.09872 0.79243 0.47986 0.0
C3355 C 0.09251 0.73447 0.51291 0.0
H3356 H 0.09857 0.79235 0.52224 0.0
C3357 C 0.0926 0.73452 0.48889 0.0
C3358 C 0.09483 0.75528 0.47649 0.0
H3359 H 0.09063 0.71801 0.52161 0.0
H3360 H 0.09078 0.71809 0.48011 0.0
C3361 C 0.09704 0.77612 0.48887 0.0
C3362 C 0.26623 0.09352 0.48857 0.0
C3363 C 0.24552 0.09578 0.47607 0.0
H3364 H 0.28262 0.09165 0.52136 0.0
C3365 C 0.22467 0.09815 0.48837 0.0
H3366 H 0.28267 0.09159 0.47985 0.0
C3367 C 0.22464 0.09818 0.51263 0.0
C3368 C 0.24546 0.09585 0.525 0.0
H3369 H 0.20839 0.09987 0.47928 0.0
H3370 H 0.20834 0.09992 0.52166 0.0
C3371 C 0.2662 0.09356 0.51258 0.0
C3372 C 0.90746 0.26603 0.51155 0.0
C3373 C 0.90525 0.24526 0.52396 0.0
H3374 H 0.90939 0.28252 0.47882 0.0
C3375 C 0.90302 0.22443 0.51157 0.0
H3376 H 0.90929 0.28245 0.52033 0.0
C3377 C 0.90308 0.22447 0.48731 0.0
C3378 C 0.90537 0.24534 0.47502 0.0
H3379 H 0.90134 0.20811 0.52059 0.0
H3380 H 0.90144 0.20818 0.47822 0.0
C3381 C 0.90752 0.26607 0.48753 0.0
C3382 C 0.7338 0.90643 0.48822 0.0
C3383 C 0.75456 0.90446 0.47578 0.0
H3384 H 0.71732 0.9081 0.52096 0.0
C3385 C 0.77542 0.90234 0.48813 0.0
H3386 H 0.71735 0.90816 0.47946 0.0
C3387 C 0.7754 0.90231 0.5124 0.0
C3388 C 0.75452 0.90438 0.52471 0.0
H3389 H 0.79173 0.90084 0.47909 0.0
H3390 H 0.7917 0.90078 0.52147 0.0
C3391 C 0.73378 0.9064 0.51223 0.0
C3392 C 0.48825 0.09692 0.22507 0.0
C3393 C 0.47597 0.09426 0.24591 0.0
H3394 H 0.52153 0.09909 0.20876 0.0
C3395 C 0.48847 0.09185 0.26659 0.0
H3396 H 0.47915 0.09877 0.20882 0.0
C3397 C 0.51249 0.09206 0.26656 0.0
C3398 C 0.52489 0.09467 0.24584 0.0
H3399 H 0.47977 0.08968 0.28301 0.0
H3400 H 0.52127 0.09004 0.28296 0.0
C3401 C 0.51251 0.09712 0.22504 0.0
C3402 C 0.90271 0.51249 0.22436 0.0
C3403 C 0.90496 0.52475 0.24527 0.0
H3404 H 0.90089 0.47923 0.20795 0.0
C3405 C 0.90693 0.51221 0.26598 0.0
H3406 H 0.9012 0.5216 0.20809 0.0
C3407 C 0.90673 0.48819 0.2659 0.0
C3408 C 0.90457 0.47581 0.24511 0.0
H3409 H 0.90876 0.5209 0.28246 0.0
H3410 H 0.90842 0.47938 0.28232 0.0
C3411 C 0.90252 0.48822 0.22428 0.0
C3412 C 0.51206 0.906 0.2659 0.0
C3413 C 0.52455 0.90427 0.24514 0.0
H3414 H 0.47927 0.9073 0.28232 0.0
C3415 C 0.51225 0.90224 0.22424 0.0
H3416 H 0.52078 0.90765 0.28238 0.0
C3417 C 0.48799 0.90206 0.22421 0.0
C3418 C 0.47562 0.90389 0.24508 0.0
H3419 H 0.52133 0.90093 0.20793 0.0
H3420 H 0.47896 0.90062 0.20787 0.0
C3421 C 0.48804 0.9058 0.26587 0.0
C3422 C 0.09234 0.51265 0.26664 0.0
C3423 C 0.09496 0.52512 0.24597 0.0
H3424 H 0.09003 0.47988 0.283 0.0
C3425 C 0.09749 0.5128 0.22514 0.0
H3426 H 0.09027 0.52138 0.28307 0.0
C3427 C 0.09738 0.48853 0.2251 0.0
C3428 C 0.09471 0.47619 0.24589 0.0
H3429 H 0.09949 0.52187 0.20889 0.0
H3430 H 0.09929 0.47949 0.20882 0.0
C3431 C 0.09221 0.48863 0.26661 0.0
C3432 C 0.48762 0.90753 0.73367 0.0
C3433 C 0.47512 0.90521 0.75436 0.0
H3434 H 0.52041 0.90965 0.71733 0.0
C3435 C 0.48741 0.90297 0.77525 0.0
H3436 H 0.47891 0.90937 0.71721 0.0
C3437 C 0.51167 0.90313 0.77532 0.0
C3438 C 0.52405 0.90553 0.75451 0.0
H3439 H 0.47832 0.90122 0.79151 0.0
H3440 H 0.52069 0.90148 0.79164 0.0
C3441 C 0.51163 0.90769 0.73374 0.0
C3442 C 0.09388 0.48821 0.73496 0.0
C3443 C 0.0957 0.47577 0.75573 0.0
H3444 H 0.09244 0.52096 0.71846 0.0
C3445 C 0.09775 0.48812 0.77661 0.0
H3446 H 0.09221 0.47945 0.7185 0.0
C3447 C 0.09787 0.51239 0.77658 0.0
C3448 C 0.09595 0.52471 0.75569 0.0
H3449 H 0.09912 0.47909 0.79293 0.0
H3450 H 0.09933 0.52146 0.7929 0.0
C3451 C 0.09401 0.51223 0.73493 0.0
C3452 C 0.48806 0.0941 0.73434 0.0
C3453 C 0.47563 0.09582 0.75514 0.0
H3454 H 0.52081 0.09278 0.71783 0.0
C3455 C 0.48799 0.09783 0.77601 0.0
H3456 H 0.47929 0.09247 0.71789 0.0
C3457 C 0.51225 0.098 0.77597 0.0
C3458 C 0.52456 0.09618 0.75507 0.0
H3459 H 0.47896 0.09913 0.79235 0.0
H3460 H 0.52132 0.09942 0.79229 0.0
C3461 C 0.51208 0.09428 0.73431 0.0
C3462 C 0.90807 0.51168 0.73413 0.0
C3463 C 0.90562 0.52411 0.75486 0.0
H3464 H 0.91001 0.47895 0.71763 0.0
C3465 C 0.903 0.51174 0.77565 0.0
H3466 H 0.91021 0.52045 0.71774 0.0
C3467 C 0.90289 0.48748 0.77559 0.0
C3468 C 0.9054 0.47518 0.75474 0.0
H3469 H 0.90112 0.52077 0.79193 0.0
H3470 H 0.90094 0.47839 0.79183 0.0
C3471 C 0.90796 0.48767 0.73407 0.0
C3472 C 0.2665 0.51132 0.09422 0.0
C3473 C 0.2458 0.52381 0.09645 0.0
H3474 H 0.28284 0.47853 0.09234 0.0
C3475 C 0.22492 0.51151 0.09876 0.0
H3476 H 0.28295 0.52005 0.09233 0.0
C3477 C 0.22485 0.48724 0.09877 0.0
C3478 C 0.24566 0.47488 0.09646 0.0
H3479 H 0.20865 0.52058 0.10046 0.0
H3480 H 0.20853 0.47822 0.10047 0.0
C3481 C 0.26643 0.4873 0.09422 0.0
C3482 C 0.2249 0.51172 0.90365 0.0
C3483 C 0.24576 0.52401 0.90618 0.0
H3484 H 0.20851 0.47844 0.9018 0.0
C3485 C 0.26642 0.51152 0.90869 0.0
H3486 H 0.20866 0.5208 0.90175 0.0
C3487 C 0.26634 0.4875 0.90871 0.0
C3488 C 0.2456 0.47508 0.90624 0.0
H3489 H 0.28287 0.52024 0.91076 0.0
H3490 H 0.28273 0.47871 0.91079 0.0
C3491 C 0.22482 0.48746 0.90369 0.0
C3492 C 0.48762 0.26587 0.90875 0.0
C3493 C 0.47526 0.24509 0.90623 0.0
H3494 H 0.52031 0.28248 0.91078 0.0
C3495 C 0.48768 0.22435 0.90361 0.0
H3496 H 0.47881 0.28222 0.91088 0.0
C3497 C 0.51195 0.2245 0.90355 0.0
C3498 C 0.52419 0.24539 0.9061 0.0
H3499 H 0.4787 0.20803 0.90169 0.0
H3500 H 0.52107 0.20829 0.90158 0.0
C3501 C 0.51164 0.26601 0.90869 0.0
C3502 C 0.73413 0.51292 0.9067 0.0
C3503 C 0.75491 0.52533 0.90452 0.0
H3504 H 0.71755 0.4802 0.90842 0.0
C3505 C 0.7757 0.51294 0.90214 0.0
H3506 H 0.71773 0.52171 0.90865 0.0
C3507 C 0.7756 0.48867 0.90201 0.0
C3508 C 0.7547 0.47639 0.90426 0.0
H3509 H 0.79204 0.52195 0.90047 0.0
H3510 H 0.79185 0.47958 0.90026 0.0
C3511 C 0.73402 0.4889 0.90657 0.0
C3512 C 0.48864 0.7342 0.90593 0.0
C3513 C 0.47612 0.7549 0.90392 0.0
H3514 H 0.52145 0.7179 0.90776 0.0
C3515 C 0.48839 0.77584 0.90194 0.0
H3516 H 0.47994 0.7177 0.90756 0.0
C3517 C 0.51266 0.77595 0.90205 0.0
C3518 C 0.52506 0.75513 0.90415 0.0
H3519 H 0.47929 0.79211 0.90043 0.0
H3520 H 0.52166 0.79231 0.90061 0.0
C3521 C 0.51266 0.73432 0.90605 0.0
C3522 C 0.73437 0.51269 0.09221 0.0
C3523 C 0.75516 0.52506 0.09457 0.0
H3524 H 0.71777 0.48 0.09014 0.0
C3525 C 0.77593 0.51264 0.0969 0.0
H3526 H 0.71798 0.5215 0.0903 0.0
C3527 C 0.77581 0.48837 0.09681 0.0
C3528 C 0.7549 0.47613 0.09439 0.0
H3529 H 0.79227 0.52162 0.09869 0.0
H3530 H 0.79204 0.47925 0.09854 0.0
C3531 C 0.73424 0.48867 0.09212 0.0
C3532 C 0.51283 0.77548 0.0969 0.0
C3533 C 0.52525 0.75472 0.09439 0.0
H3534 H 0.47946 0.79159 0.09869 0.0
C3535 C 0.51287 0.73396 0.09183 0.0
H3536 H 0.52182 0.79179 0.09884 0.0
C3537 C 0.48886 0.73384 0.09173 0.0
C3538 C 0.47632 0.75448 0.0942 0.0
H3539 H 0.52168 0.71758 0.08978 0.0
H3540 H 0.48017 0.71739 0.08961 0.0
C3541 C 0.48857 0.77536 0.09681 0.0
C3542 C 0.5121 0.22424 0.09834 0.0
C3543 C 0.52435 0.24516 0.09608 0.0
H3544 H 0.47884 0.20778 0.10008 0.0
C3545 C 0.5118 0.26584 0.09397 0.0
H3546 H 0.52122 0.20799 0.09994 0.0
C3547 C 0.48779 0.26572 0.09405 0.0
C3548 C 0.47541 0.24492 0.09624 0.0
H3549 H 0.52048 0.28233 0.09212 0.0
H3550 H 0.47898 0.28212 0.09226 0.0
C3551 C 0.48783 0.22412 0.09842 0.0
C3552 C 0.59833 0.72493 0.01159 0.0
C3553 C 0.59603 0.74575 0.02398 0.0
H3554 H 0.59993 0.70871 0.97822 0.0
C3555 C 0.59372 0.7665 0.01158 0.0
H3556 H 0.60008 0.70863 0.0206 0.0
C3557 C 0.59362 0.76655 0.98756 0.0
C3558 C 0.59584 0.74585 0.97505 0.0
H3559 H 0.59183 0.78291 0.02037 0.0
H3560 H 0.59167 0.783 0.97887 0.0
C3561 C 0.59824 0.72498 0.98732 0.0
C3562 C 0.23462 0.59234 0.98911 0.0
C3563 C 0.25535 0.59472 0.97668 0.0
H3564 H 0.21818 0.59022 0.02186 0.0
C3565 C 0.27619 0.59706 0.98905 0.0
H3566 H 0.2182 0.59042 0.98034 0.0
C3567 C 0.27617 0.59695 0.01331 0.0
C3568 C 0.25533 0.59449 0.02562 0.0
H3569 H 0.29248 0.59887 0.98002 0.0
H3570 H 0.29246 0.59869 0.02238 0.0
C3571 C 0.23461 0.59222 0.01313 0.0
C3572 C 0.40211 0.27489 0.01343 0.0
C3573 C 0.40451 0.25404 0.02573 0.0
H3574 H 0.40032 0.2912 0.98013 0.0
C3575 C 0.40679 0.23333 0.01325 0.0
H3576 H 0.40038 0.29117 0.0225 0.0
C3577 C 0.40676 0.23335 0.98923 0.0
C3578 C 0.40445 0.25408 0.97681 0.0
H3579 H 0.40875 0.21689 0.02198 0.0
H3580 H 0.4087 0.21693 0.98047 0.0
C3581 C 0.40208 0.27491 0.98916 0.0
C3582 C 0.76572 0.40762 0.0113 0.0
C3583 C 0.74498 0.40544 0.02375 0.0
H3584 H 0.78216 0.40956 0.97855 0.0
C3585 C 0.72411 0.40328 0.01141 0.0
H3586 H 0.78217 0.4094 0.02005 0.0
C3587 C 0.72411 0.40337 0.98714 0.0
C3588 C 0.74496 0.40563 0.97482 0.0
H3589 H 0.70781 0.40163 0.02046 0.0
H3590 H 0.7078 0.40178 0.97809 0.0
C3591 C 0.76571 0.40771 0.98729 0.0
C3592 C 0.59317 0.23442 0.98874 0.0
C3593 C 0.59517 0.25521 0.97634 0.0
H3594 H 0.5914 0.21789 0.02146 0.0
C3595 C 0.59722 0.27606 0.98873 0.0
H3596 H 0.59149 0.21798 0.97995 0.0
C3597 C 0.59717 0.276 0.013 0.0
C3598 C 0.59507 0.2551 0.02527 0.0
H3599 H 0.59873 0.29239 0.97972 0.0
H3600 H 0.59865 0.2923 0.02209 0.0
C3601 C 0.59312 0.23436 0.01276 0.0
C3602 C 0.72513 0.59834 0.01192 0.0
C3603 C 0.746 0.59607 0.02422 0.0
H3604 H 0.70878 0.60002 0.97862 0.0
C3605 C 0.76672 0.59394 0.01173 0.0
H3606 H 0.70885 0.59995 0.02099 0.0
C3607 C 0.76668 0.59398 0.98772 0.0
C3608 C 0.74593 0.59615 0.97529 0.0
H3609 H 0.78317 0.59209 0.02046 0.0
H3610 H 0.78311 0.59216 0.97895 0.0
C3611 C 0.72509 0.59837 0.98765 0.0
C3612 C 0.40334 0.72405 0.98695 0.0
C3613 C 0.40558 0.74495 0.9747 0.0
H3614 H 0.40166 0.70765 0.02022 0.0
C3615 C 0.40772 0.76566 0.98723 0.0
H3616 H 0.4017 0.70778 0.97785 0.0
C3617 C 0.40769 0.76558 0.01124 0.0
C3618 C 0.40552 0.7448 0.02363 0.0
H3619 H 0.40956 0.78213 0.97854 0.0
H3620 H 0.40951 0.782 0.02005 0.0
C3621 C 0.4033 0.72398 0.01122 0.0
C3622 C 0.27557 0.40175 0.01343 0.0
C3623 C 0.25475 0.40415 0.02577 0.0
H3624 H 0.29184 0.40002 0.98011 0.0
C3625 C 0.23402 0.40652 0.01332 0.0
H3626 H 0.29186 0.39994 0.02248 0.0
C3627 C 0.23401 0.40657 0.9893 0.0
C3628 C 0.25472 0.40424 0.97684 0.0
H3629 H 0.2176 0.40849 0.02207 0.0
H3630 H 0.21759 0.40857 0.98056 0.0
C3631 C 0.27556 0.40179 0.98917 0.0
C3632 C 0.0127 0.59297 0.76664 0.0
C3633 C 0.02524 0.59519 0.74596 0.0
H3634 H 0.97987 0.591 0.78292 0.0
C3635 C 0.01299 0.59739 0.72505 0.0
H3636 H 0.02138 0.59117 0.78312 0.0
C3637 C 0.98873 0.59731 0.72493 0.0
C3638 C 0.97631 0.59501 0.74573 0.0
H3639 H 0.02211 0.59907 0.70879 0.0
H3640 H 0.97974 0.59893 0.70859 0.0
C3641 C 0.98868 0.59288 0.76653 0.0
C3642 C 0.40692 0.98809 0.76583 0.0
C3643 C 0.40463 0.97575 0.74503 0.0
H3644 H 0.40902 0.02075 0.78245 0.0
C3645 C 0.40245 0.9882 0.72424 0.0
H3646 H 0.40871 0.97926 0.78223 0.0
C3647 C 0.40261 0.01247 0.72438 0.0
C3648 C 0.40497 0.02469 0.7453 0.0
H3649 H 0.40072 0.97924 0.7079 0.0
H3650 H 0.40099 0.02162 0.70813 0.0
C3651 C 0.40709 0.01211 0.76596 0.0
C3652 C 0.01212 0.407 0.76656 0.0
C3653 C 0.02472 0.40495 0.74589 0.0
H3654 H 0.97925 0.40852 0.78281 0.0
C3655 C 0.01252 0.40261 0.72496 0.0
H3656 H 0.02077 0.4089 0.78305 0.0
C3657 C 0.98825 0.40241 0.72482 0.0
C3658 C 0.97578 0.40453 0.7456 0.0
H3659 H 0.02167 0.40105 0.70872 0.0
H3660 H 0.97931 0.40072 0.70846 0.0
C3661 C 0.98811 0.40678 0.76642 0.0
C3662 C 0.59251 0.98892 0.76599 0.0
C3663 C 0.59473 0.9765 0.74523 0.0
H3664 H 0.59076 0.02164 0.78253 0.0
C3665 C 0.59711 0.98888 0.72442 0.0
H3666 H 0.59057 0.98014 0.7824 0.0
C3667 C 0.5972 0.01315 0.72449 0.0
C3668 C 0.59493 0.02544 0.74537 0.0
H3669 H 0.59879 0.97986 0.70811 0.0
H3670 H 0.59895 0.02224 0.70823 0.0
C3671 C 0.59262 0.01293 0.76606 0.0
C3672 C 0.98766 0.40758 0.234 0.0
C3673 C 0.97508 0.40521 0.25464 0.0
H3674 H 0.02052 0.40964 0.21778 0.0
C3675 C 0.98729 0.40283 0.27556 0.0
H3676 H 0.97901 0.40953 0.21752 0.0
C3677 C 0.01156 0.40289 0.27571 0.0
C3678 C 0.02401 0.40533 0.25495 0.0
H3679 H 0.97814 0.40103 0.29178 0.0
H3680 H 0.02051 0.40113 0.29205 0.0
C3681 C 0.01167 0.40765 0.23415 0.0
C3682 C 0.59328 0.01197 0.23428 0.0
C3683 C 0.59556 0.02438 0.25505 0.0
H3684 H 0.59119 0.97926 0.21776 0.0
C3685 C 0.59773 0.01199 0.27587 0.0
H3686 H 0.59148 0.02077 0.21786 0.0
C3687 C 0.59757 0.98772 0.27581 0.0
C3688 C 0.59522 0.97544 0.25493 0.0
H3689 H 0.59945 0.02099 0.29219 0.0
H3690 H 0.59919 0.97862 0.29208 0.0
C3691 C 0.59311 0.98796 0.23422 0.0
C3692 C 0.01233 0.59398 0.23446 0.0
C3693 C 0.02473 0.596 0.25526 0.0
H3694 H 0.97961 0.59211 0.21792 0.0
C3695 C 0.01233 0.59797 0.2761 0.0
H3696 H 0.02112 0.59236 0.21803 0.0
C3697 C 0.98807 0.59784 0.27604 0.0
C3698 C 0.97579 0.59572 0.25513 0.0
H3699 H 0.02134 0.59949 0.29244 0.0
H3700 H 0.97898 0.59927 0.29233 0.0
C3701 C 0.98831 0.59384 0.2344 0.0
C3702 C 0.40287 0.01102 0.27589 0.0
C3703 C 0.40513 0.02349 0.25513 0.0
H3704 H 0.40118 0.97759 0.29196 0.0
C3705 C 0.4073 0.01117 0.2343 0.0
H3706 H 0.40123 0.01996 0.29225 0.0
C3707 C 0.40727 0.98715 0.23413 0.0
C3708 C 0.40508 0.97456 0.25478 0.0
H3709 H 0.40915 0.02002 0.21792 0.0
H3710 H 0.4091 0.97852 0.21763 0.0
C3711 C 0.40284 0.98675 0.27572 0.0
C3712 C 0.76606 0.01165 0.59364 0.0
C3713 C 0.74534 0.02414 0.59569 0.0
H3714 H 0.78241 0.97886 0.59178 0.0
C3715 C 0.72443 0.01183 0.59771 0.0
H3716 H 0.78254 0.02037 0.59197 0.0
C3717 C 0.72436 0.98756 0.59761 0.0
C3718 C 0.74519 0.9752 0.59547 0.0
H3719 H 0.70815 0.02091 0.59926 0.0
H3720 H 0.70802 0.97853 0.59909 0.0
C3721 C 0.76598 0.98763 0.59353 0.0
C3722 C 0.76612 0.01189 0.40776 0.0
C3723 C 0.74543 0.02439 0.40546 0.0
H3724 H 0.78244 0.9791 0.40963 0.0
C3725 C 0.72455 0.0121 0.40308 0.0
H3726 H 0.78258 0.02059 0.40971 0.0
C3727 C 0.72447 0.98783 0.40304 0.0
C3728 C 0.74527 0.97546 0.40538 0.0
H3729 H 0.70829 0.02119 0.40134 0.0
H3730 H 0.70815 0.97881 0.40128 0.0
C3731 C 0.76603 0.98787 0.40771 0.0
C3732 C 0.98768 0.76619 0.40816 0.0
C3733 C 0.97525 0.74545 0.40567 0.0
H3734 H 0.02041 0.7827 0.41032 0.0
C3735 C 0.98762 0.72466 0.40322 0.0
H3736 H 0.97891 0.78259 0.41017 0.0
C3737 C 0.01188 0.72472 0.4033 0.0
C3738 C 0.02418 0.74558 0.40584 0.0
H3739 H 0.97859 0.70836 0.40133 0.0
H3740 H 0.02097 0.70847 0.40147 0.0
C3741 C 0.01169 0.76626 0.40825 0.0
C3742 C 0.23399 0.01273 0.4068 0.0
C3743 C 0.25477 0.02517 0.4049 0.0
H3744 H 0.21745 0.97996 0.40817 0.0
C3745 C 0.27561 0.01283 0.40265 0.0
H3746 H 0.21756 0.02148 0.40863 0.0
C3747 C 0.27554 0.98857 0.40239 0.0
C3748 C 0.25465 0.97624 0.40437 0.0
H3749 H 0.29194 0.02188 0.4012 0.0
H3750 H 0.29183 0.97951 0.40076 0.0
C3751 C 0.23393 0.98871 0.40653 0.0
C3752 C 0.01257 0.23445 0.40691 0.0
C3753 C 0.02501 0.25524 0.40501 0.0
H3754 H 0.97983 0.21789 0.4083 0.0
C3755 C 0.01266 0.27607 0.40275 0.0
H3756 H 0.02134 0.21803 0.40874 0.0
C3757 C 0.98839 0.27599 0.4025 0.0
C3758 C 0.97608 0.25508 0.4045 0.0
H3759 H 0.02169 0.29241 0.4013 0.0
H3760 H 0.97932 0.29227 0.40088 0.0
C3761 C 0.98856 0.23437 0.40666 0.0
C3762 C 0.23382 0.01255 0.5926 0.0
C3763 C 0.25456 0.02495 0.59521 0.0
H3764 H 0.21733 0.97982 0.59019 0.0
C3765 C 0.27535 0.01258 0.59763 0.0
H3766 H 0.21743 0.02133 0.59062 0.0
C3767 C 0.27529 0.98831 0.5974 0.0
C3768 C 0.25444 0.97603 0.59474 0.0
H3769 H 0.29164 0.02159 0.59961 0.0
H3770 H 0.29154 0.97923 0.59922 0.0
C3771 C 0.23376 0.98853 0.59236 0.0
C3772 C 0.98841 0.23422 0.59248 0.0
C3773 C 0.97589 0.25489 0.59482 0.0
H3774 H 0.02121 0.21791 0.59075 0.0
C3775 C 0.98815 0.27575 0.59745 0.0
H3776 H 0.97971 0.21777 0.59034 0.0
C3777 C 0.01241 0.27584 0.59768 0.0
C3778 C 0.02481 0.25505 0.5953 0.0
H3779 H 0.97905 0.292 0.59925 0.0
H3780 H 0.02142 0.29214 0.59964 0.0
C3781 C 0.01242 0.2343 0.59272 0.0
C3782 C 0.01149 0.76609 0.59406 0.0
C3783 C 0.02397 0.74537 0.59609 0.0
H3784 H 0.97871 0.78245 0.59219 0.0
C3785 C 0.01167 0.72445 0.59808 0.0
H3786 H 0.02021 0.78257 0.59242 0.0
C3787 C 0.9874 0.72438 0.59795 0.0
C3788 C 0.97504 0.74522 0.59582 0.0
H3789 H 0.02074 0.70817 0.59961 0.0
H3790 H 0.97837 0.70804 0.59939 0.0
C3791 C 0.98747 0.76601 0.59392 0.0
loop_
_geom_bond_atom_site_label_1
_geom_bond_atom_site_label_2
_geom_bond_distance
_geom_bond_site_symmetry_2
_ccdc_geom_bond_type
Co0 O2 2.143 . S
Co0 O8 2.074 . S
Co0 O11 2.093 . S
Co0 O24 2.097 . S
Co0 N41 2.151 . S
Co0 N49 2.214 . S
Co1 O2 2.160 . S
Co1 O7 2.058 . S
Co1 O17 2.057 . S
Co1 O32 2.037 . S
Co1 N36 2.145 . S
Co1 N57 2.257 . S
O2 Co0 2.143 . S
O2 Co1 2.160 . S
C3 O4 1.278 . S
C3 O11 1.224 . S
O4 C3 1.278 . S
C5 O6 1.245 . S
C5 O17 1.232 . S
O6 C5 1.245 . S
O7 Co1 2.058 . S
O7 C33 1.269 . S
O8 Co0 2.074 . S
O8 C33 1.257 . S
H9 C34 0.930 . S
H10 C40 0.930 . S
O11 Co0 2.093 . S
O11 C3 1.224 . S
H12 C44 0.929 . S
H13 C46 0.930 . S
H14 C47 0.930 . S
H15 C45 0.929 . S
H16 C48 0.928 . S
O17 Co1 2.057 . S
O17 C5 1.232 . S
H18 C37 0.929 . S
H19 C38 0.929 . S
H20 C50 0.931 . S
H21 C42 0.929 . S
H22 C51 0.930 . S
H23 C43 0.931 . S
O24 Co0 2.097 . S
O24 C52 1.214 . S
H25 C53 0.929 . S
H26 C54 0.929 . S
H27 C55 0.930 . S
H28 C56 0.929 . S
H29 C58 0.930 . S
H30 C35 0.930 . S
H31 C39 0.930 . S
O32 Co1 2.037 . S
O32 C52 1.234 . S
C33 O7 1.269 . S
C33 O8 1.257 . S
C34 H9 0.930 . S
C34 C37 1.388 . S
C34 C39 1.418 . S
C35 H30 0.930 . S
C35 C38 1.404 . S
C35 C39 1.353 . S
N36 Co1 2.145 . S
N36 C37 1.397 . S
N36 C38 1.334 . S
C37 H18 0.929 . S
C37 C34 1.388 . S
C37 N36 1.397 . S
C38 H19 0.929 . S
C38 C35 1.404 . S
C38 N36 1.334 . S
C39 H31 0.930 . S
C39 C34 1.418 . S
C39 C35 1.353 . S
C40 H10 0.930 . S
C40 N41 1.330 . S
C40 C42 1.446 . S
N41 Co0 2.151 . S
N41 C40 1.330 . S
N41 C45 1.418 . S
C42 H21 0.929 . S
C42 C40 1.446 . S
C42 C43 1.332 . S
C43 H23 0.931 . S
C43 C42 1.332 . S
C43 C44 1.267 . S
C44 H12 0.929 . S
C44 C43 1.267 . S
C44 C45 1.251 . S
C45 H15 0.929 . S
C45 N41 1.418 . S
C45 C44 1.251 . S
C46 H13 0.930 . S
C46 C48 1.406 . S
C46 C51 1.261 . S
C47 H14 0.930 . S
C47 N49 1.325 . S
C47 C50 1.357 . S
C48 H16 0.928 . S
C48 C46 1.406 . S
C48 N49 1.261 . S
N49 Co0 2.214 . S
N49 C47 1.325 . S
N49 C48 1.261 . S
C50 H20 0.931 . S
C50 C47 1.357 . S
C50 C51 1.312 . S
C51 H22 0.930 . S
C51 C46 1.261 . S
C51 C50 1.312 . S
C52 O24 1.214 . S
C52 O32 1.234 . S
C53 H25 0.929 . S
C53 C56 1.391 . S
C53 C58 1.391 . S
C54 H26 0.929 . S
C54 C55 1.390 . S
C54 N57 1.391 . S
C55 H27 0.930 . S
C55 C54 1.390 . S
C55 C56 1.392 . S
C56 H28 0.929 . S
C56 C53 1.391 . S
C56 C55 1.392 . S
N57 Co1 2.257 . S
N57 C54 1.391 . S
N57 C58 1.388 . S
C58 H29 0.930 . S
C58 C53 1.391 . S
C58 N57 1.388 . S
Co59 O61 2.143 . S
Co59 O67 2.074 . S
Co59 O70 2.093 . S
Co59 O83 2.097 . S
Co59 N100 2.151 . S
Co59 N108 2.214 . S
Co60 O61 2.160 . S
Co60 O66 2.058 . S
Co60 O76 2.057 . S
Co60 O91 2.037 . S
Co60 N95 2.145 . S
Co60 N116 2.257 . S
O61 Co59 2.143 . S
O61 Co60 2.160 . S
C62 O63 1.278 . S
C62 O70 1.224 . S
O63 C62 1.278 . S
C64 O65 1.245 . S
C64 O76 1.232 . S
O65 C64 1.245 . S
O66 Co60 2.058 . S
O66 C92 1.269 . S
O67 Co59 2.074 . S
O67 C92 1.257 . S
H68 C93 0.930 . S
H69 C99 0.930 . S
O70 Co59 2.093 . S
O70 C62 1.224 . S
H71 C103 0.929 . S
H72 C105 0.930 . S
H73 C106 0.930 . S
H74 C104 0.929 . S
H75 C107 0.928 . S
O76 Co60 2.057 . S
O76 C64 1.232 . S
H77 C96 0.929 . S
H78 C97 0.929 . S
H79 C109 0.931 . S
H80 C101 0.929 . S
H81 C110 0.930 . S
H82 C102 0.931 . S
O83 Co59 2.097 . S
O83 C111 1.214 . S
H84 C112 0.929 . S
H85 C113 0.929 . S
H86 C114 0.930 . S
H87 C115 0.929 . S
H88 C117 0.930 . S
H89 C94 0.930 . S
H90 C98 0.930 . S
O91 Co60 2.037 . S
O91 C111 1.234 . S
C92 O66 1.269 . S
C92 O67 1.257 . S
C93 H68 0.930 . S
C93 C96 1.388 . S
C93 C98 1.418 . S
C94 H89 0.930 . S
C94 C97 1.404 . S
C94 C98 1.353 . S
N95 Co60 2.145 . S
N95 C96 1.397 . S
N95 C97 1.334 . S
C96 H77 0.929 . S
C96 C93 1.388 . S
C96 N95 1.397 . S
C97 H78 0.929 . S
C97 C94 1.404 . S
C97 N95 1.334 . S
C98 H90 0.930 . S
C98 C93 1.418 . S
C98 C94 1.353 . S
C99 H69 0.930 . S
C99 N100 1.330 . S
C99 C101 1.446 . S
N100 Co59 2.151 . S
N100 C99 1.330 . S
N100 C104 1.418 . S
C101 H80 0.929 . S
C101 C99 1.446 . S
C101 C102 1.332 . S
C102 H82 0.931 . S
C102 C101 1.332 . S
C102 C103 1.267 . S
C103 H71 0.929 . S
C103 C102 1.267 . S
C103 C104 1.251 . S
C104 H74 0.929 . S
C104 N100 1.418 . S
C104 C103 1.251 . S
C105 H72 0.930 . S
C105 C107 1.406 . S
C105 C110 1.261 . S
C106 H73 0.930 . S
C106 N108 1.325 . S
C106 C109 1.357 . S
C107 H75 0.928 . S
C107 C105 1.406 . S
C107 N108 1.261 . S
N108 Co59 2.214 . S
N108 C106 1.325 . S
N108 C107 1.261 . S
C109 H79 0.931 . S
C109 C106 1.357 . S
C109 C110 1.312 . S
C110 H81 0.930 . S
C110 C105 1.261 . S
C110 C109 1.312 . S
C111 O83 1.214 . S
C111 O91 1.234 . S
C112 H84 0.929 . S
C112 C115 1.391 . S
C112 C117 1.391 . S
C113 H85 0.929 . S
C113 C114 1.390 . S
C113 N116 1.391 . S
C114 H86 0.930 . S
C114 C113 1.390 . S
C114 C115 1.392 . S
C115 H87 0.929 . S
C115 C112 1.391 . S
C115 C114 1.392 . S
N116 Co60 2.257 . S
N116 C113 1.391 . S
N116 C117 1.388 . S
C117 H88 0.930 . S
C117 C112 1.391 . S
C117 N116 1.388 . S
Co118 O120 2.143 . S
Co118 O126 2.074 . S
Co118 O129 2.093 . S
Co118 O142 2.097 . S
Co118 N159 2.151 . S
Co118 N167 2.214 . S
Co119 O120 2.160 . S
Co119 O125 2.058 . S
Co119 O135 2.057 . S
Co119 O150 2.037 . S
Co119 N154 2.145 . S
Co119 N175 2.257 . S
O120 Co118 2.143 . S
O120 Co119 2.160 . S
C121 O122 1.278 . S
C121 O129 1.224 . S
O122 C121 1.278 . S
C123 O124 1.245 . S
C123 O135 1.232 . S
O124 C123 1.245 . S
O125 Co119 2.058 . S
O125 C151 1.269 . S
O126 Co118 2.074 . S
O126 C151 1.257 . S
H127 C152 0.930 . S
H128 C158 0.930 . S
O129 Co118 2.093 . S
O129 C121 1.224 . S
H130 C162 0.929 . S
H131 C164 0.930 . S
H132 C165 0.930 . S
H133 C163 0.929 . S
H134 C166 0.928 . S
O135 Co119 2.057 . S
O135 C123 1.232 . S
H136 C155 0.929 . S
H137 C156 0.929 . S
H138 C168 0.931 . S
H139 C160 0.929 . S
H140 C169 0.930 . S
H141 C161 0.931 . S
O142 Co118 2.097 . S
O142 C170 1.214 . S
H143 C171 0.929 . S
H144 C172 0.929 . S
H145 C173 0.930 . S
H146 C174 0.929 . S
H147 C176 0.930 . S
H148 C153 0.930 . S
H149 C157 0.930 . S
O150 Co119 2.037 . S
O150 C170 1.234 . S
C151 O125 1.269 . S
C151 O126 1.257 . S
C152 H127 0.930 . S
C152 C155 1.388 . S
C152 C157 1.418 . S
C153 H148 0.930 . S
C153 C156 1.404 . S
C153 C157 1.353 . S
N154 Co119 2.145 . S
N154 C155 1.397 . S
N154 C156 1.334 . S
C155 H136 0.929 . S
C155 C152 1.388 . S
C155 N154 1.397 . S
C156 H137 0.929 . S
C156 C153 1.404 . S
C156 N154 1.334 . S
C157 H149 0.930 . S
C157 C152 1.418 . S
C157 C153 1.353 . S
C158 H128 0.930 . S
C158 N159 1.330 . S
C158 C160 1.446 . S
N159 Co118 2.151 . S
N159 C158 1.330 . S
N159 C163 1.418 . S
C160 H139 0.929 . S
C160 C158 1.446 . S
C160 C161 1.332 . S
C161 H141 0.931 . S
C161 C160 1.332 . S
C161 C162 1.267 . S
C162 H130 0.929 . S
C162 C161 1.267 . S
C162 C163 1.251 . S
C163 H133 0.929 . S
C163 N159 1.418 . S
C163 C162 1.251 . S
C164 H131 0.930 . S
C164 C166 1.406 . S
C164 C169 1.261 . S
C165 H132 0.930 . S
C165 N167 1.325 . S
C165 C168 1.357 . S
C166 H134 0.928 . S
C166 C164 1.406 . S
C166 N167 1.261 . S
N167 Co118 2.214 . S
N167 C165 1.325 . S
N167 C166 1.261 . S
C168 H138 0.931 . S
C168 C165 1.357 . S
C168 C169 1.312 . S
C169 H140 0.930 . S
C169 C164 1.261 . S
C169 C168 1.312 . S
C170 O142 1.214 . S
C170 O150 1.234 . S
C171 H143 0.929 . S
C171 C174 1.391 . S
C171 C176 1.391 . S
C172 H144 0.929 . S
C172 C173 1.390 . S
C172 N175 1.391 . S
C173 H145 0.930 . S
C173 C172 1.390 . S
C173 C174 1.392 . S
C174 H146 0.929 . S
C174 C171 1.391 . S
C174 C173 1.392 . S
N175 Co119 2.257 . S
N175 C172 1.391 . S
N175 C176 1.388 . S
C176 H147 0.930 . S
C176 C171 1.391 . S
C176 N175 1.388 . S
Co177 O179 2.143 . S
Co177 O185 2.074 . S
Co177 O188 2.093 . S
Co177 O201 2.097 . S
Co177 N218 2.151 . S
Co177 N226 2.214 . S
Co178 O179 2.160 . S
Co178 O184 2.058 . S
Co178 O194 2.057 . S
Co178 O209 2.037 . S
Co178 N213 2.145 . S
Co178 N234 2.257 . S
O179 Co177 2.143 . S
O179 Co178 2.160 . S
C180 O181 1.278 . S
C180 O188 1.224 . S
O181 C180 1.278 . S
C182 O183 1.245 . S
C182 O194 1.232 . S
O183 C182 1.245 . S
O184 Co178 2.058 . S
O184 C210 1.269 . S
O185 Co177 2.074 . S
O185 C210 1.257 . S
H186 C211 0.930 . S
H187 C217 0.930 . S
O188 Co177 2.093 . S
O188 C180 1.224 . S
H189 C221 0.929 . S
H190 C223 0.930 . S
H191 C224 0.930 . S
H192 C222 0.929 . S
H193 C225 0.928 . S
O194 Co178 2.057 . S
O194 C182 1.232 . S
H195 C214 0.929 . S
H196 C215 0.929 . S
H197 C227 0.931 . S
H198 C219 0.929 . S
H199 C228 0.930 . S
H200 C220 0.931 . S
O201 Co177 2.097 . S
O201 C229 1.214 . S
H202 C230 0.929 . S
H203 C231 0.929 . S
H204 C232 0.930 . S
H205 C233 0.929 . S
H206 C235 0.930 . S
H207 C212 0.930 . S
H208 C216 0.930 . S
O209 Co178 2.037 . S
O209 C229 1.234 . S
C210 O184 1.269 . S
C210 O185 1.257 . S
C211 H186 0.930 . S
C211 C214 1.388 . S
C211 C216 1.418 . S
C212 H207 0.930 . S
C212 C215 1.404 . S
C212 C216 1.353 . S
N213 Co178 2.145 . S
N213 C214 1.397 . S
N213 C215 1.334 . S
C214 H195 0.929 . S
C214 C211 1.388 . S
C214 N213 1.397 . S
C215 H196 0.929 . S
C215 C212 1.404 . S
C215 N213 1.334 . S
C216 H208 0.930 . S
C216 C211 1.418 . S
C216 C212 1.353 . S
C217 H187 0.930 . S
C217 N218 1.330 . S
C217 C219 1.446 . S
N218 Co177 2.151 . S
N218 C217 1.330 . S
N218 C222 1.418 . S
C219 H198 0.929 . S
C219 C217 1.446 . S
C219 C220 1.332 . S
C220 H200 0.931 . S
C220 C219 1.332 . S
C220 C221 1.267 . S
C221 H189 0.929 . S
C221 C220 1.267 . S
C221 C222 1.251 . S
C222 H192 0.929 . S
C222 N218 1.418 . S
C222 C221 1.251 . S
C223 H190 0.930 . S
C223 C225 1.406 . S
C223 C228 1.261 . S
C224 H191 0.930 . S
C224 N226 1.325 . S
C224 C227 1.357 . S
C225 H193 0.928 . S
C225 C223 1.406 . S
C225 N226 1.261 . S
N226 Co177 2.214 . S
N226 C224 1.325 . S
N226 C225 1.261 . S
C227 H197 0.931 . S
C227 C224 1.357 . S
C227 C228 1.312 . S
C228 H199 0.930 . S
C228 C223 1.261 . S
C228 C227 1.312 . S
C229 O201 1.214 . S
C229 O209 1.234 . S
C230 H202 0.929 . S
C230 C233 1.391 . S
C230 C235 1.391 . S
C231 H203 0.929 . S
C231 C232 1.390 . S
C231 N234 1.391 . S
C232 H204 0.930 . S
C232 C231 1.390 . S
C232 C233 1.392 . S
C233 H205 0.929 . S
C233 C230 1.391 . S
C233 C232 1.392 . S
N234 Co178 2.257 . S
N234 C231 1.391 . S
N234 C235 1.388 . S
C235 H206 0.930 . S
C235 C230 1.391 . S
C235 N234 1.388 . S
Co236 O238 2.143 . S
Co236 O244 2.074 . S
Co236 O247 2.093 . S
Co236 O260 2.097 . S
Co236 N277 2.151 . S
Co236 N285 2.214 . S
Co237 O238 2.160 . S
Co237 O243 2.058 . S
Co237 O253 2.057 . S
Co237 O268 2.037 . S
Co237 N272 2.145 . S
Co237 N293 2.257 . S
O238 Co236 2.143 . S
O238 Co237 2.160 . S
C239 O240 1.278 . S
C239 O247 1.224 . S
O240 C239 1.278 . S
C241 O242 1.245 . S
C241 O253 1.232 . S
O242 C241 1.245 . S
O243 Co237 2.058 . S
O243 C269 1.269 . S
O244 Co236 2.074 . S
O244 C269 1.257 . S
H245 C270 0.930 . S
H246 C276 0.930 . S
O247 Co236 2.093 . S
O247 C239 1.224 . S
H248 C280 0.929 . S
H249 C282 0.930 . S
H250 C283 0.930 . S
H251 C281 0.929 . S
H252 C284 0.928 . S
O253 Co237 2.057 . S
O253 C241 1.232 . S
H254 C273 0.929 . S
H255 C274 0.929 . S
H256 C286 0.931 . S
H257 C278 0.929 . S
H258 C287 0.930 . S
H259 C279 0.931 . S
O260 Co236 2.097 . S
O260 C288 1.214 . S
H261 C289 0.929 . S
H262 C290 0.929 . S
H263 C291 0.930 . S
H264 C292 0.929 . S
H265 C294 0.930 . S
H266 C271 0.930 . S
H267 C275 0.930 . S
O268 Co237 2.037 . S
O268 C288 1.234 . S
C269 O243 1.269 . S
C269 O244 1.257 . S
C270 H245 0.930 . S
C270 C273 1.388 . S
C270 C275 1.418 . S
C271 H266 0.930 . S
C271 C274 1.404 . S
C271 C275 1.353 . S
N272 Co237 2.145 . S
N272 C273 1.397 . S
N272 C274 1.334 . S
C273 H254 0.929 . S
C273 C270 1.388 . S
C273 N272 1.397 . S
C274 H255 0.929 . S
C274 C271 1.404 . S
C274 N272 1.334 . S
C275 H267 0.930 . S
C275 C270 1.418 . S
C275 C271 1.353 . S
C276 H246 0.930 . S
C276 N277 1.330 . S
C276 C278 1.446 . S
N277 Co236 2.151 . S
N277 C276 1.330 . S
N277 C281 1.418 . S
C278 H257 0.929 . S
C278 C276 1.446 . S
C278 C279 1.332 . S
C279 H259 0.931 . S
C279 C278 1.332 . S
C279 C280 1.267 . S
C280 H248 0.929 . S
C280 C279 1.267 . S
C280 C281 1.251 . S
C281 H251 0.929 . S
C281 N277 1.418 . S
C281 C280 1.251 . S
C282 H249 0.930 . S
C282 C284 1.406 . S
C282 C287 1.261 . S
C283 H250 0.930 . S
C283 N285 1.325 . S
C283 C286 1.357 . S
C284 H252 0.928 . S
C284 C282 1.406 . S
C284 N285 1.261 . S
N285 Co236 2.214 . S
N285 C283 1.325 . S
N285 C284 1.261 . S
C286 H256 0.931 . S
C286 C283 1.357 . S
C286 C287 1.312 . S
C287 H258 0.930 . S
C287 C282 1.261 . S
C287 C286 1.312 . S
C288 O260 1.214 . S
C288 O268 1.234 . S
C289 H261 0.929 . S
C289 C292 1.391 . S
C289 C294 1.391 . S
C290 H262 0.929 . S
C290 C291 1.390 . S
C290 N293 1.391 . S
C291 H263 0.930 . S
C291 C290 1.390 . S
C291 C292 1.392 . S
C292 H264 0.929 . S
C292 C289 1.391 . S
C292 C291 1.392 . S
N293 Co237 2.257 . S
N293 C290 1.391 . S
N293 C294 1.388 . S
C294 H265 0.930 . S
C294 C289 1.391 . S
C294 N293 1.388 . S
Co295 O297 2.143 . S
Co295 O303 2.074 . S
Co295 O306 2.093 . S
Co295 O319 2.097 . S
Co295 N336 2.151 . S
Co295 N344 2.214 . S
Co296 O297 2.160 . S
Co296 O302 2.058 . S
Co296 O312 2.057 . S
Co296 O327 2.037 . S
Co296 N331 2.145 . S
Co296 N352 2.257 . S
O297 Co295 2.143 . S
O297 Co296 2.160 . S
C298 O299 1.278 . S
C298 O306 1.224 . S
O299 C298 1.278 . S
C300 O301 1.245 . S
C300 O312 1.232 . S
O301 C300 1.245 . S
O302 Co296 2.058 . S
O302 C328 1.269 . S
O303 Co295 2.074 . S
O303 C328 1.257 . S
H304 C329 0.930 . S
H305 C335 0.930 . S
O306 Co295 2.093 . S
O306 C298 1.224 . S
H307 C339 0.929 . S
H308 C341 0.930 . S
H309 C342 0.930 . S
H310 C340 0.929 . S
H311 C343 0.928 . S
O312 Co296 2.057 . S
O312 C300 1.232 . S
H313 C332 0.929 . S
H314 C333 0.929 . S
H315 C345 0.931 . S
H316 C337 0.929 . S
H317 C346 0.930 . S
H318 C338 0.931 . S
O319 Co295 2.097 . S
O319 C347 1.214 . S
H320 C348 0.929 . S
H321 C349 0.929 . S
H322 C350 0.930 . S
H323 C351 0.929 . S
H324 C353 0.930 . S
H325 C330 0.930 . S
H326 C334 0.930 . S
O327 Co296 2.037 . S
O327 C347 1.234 . S
C328 O302 1.269 . S
C328 O303 1.257 . S
C329 H304 0.930 . S
C329 C332 1.388 . S
C329 C334 1.418 . S
C330 H325 0.930 . S
C330 C333 1.404 . S
C330 C334 1.353 . S
N331 Co296 2.145 . S
N331 C332 1.397 . S
N331 C333 1.334 . S
C332 H313 0.929 . S
C332 C329 1.388 . S
C332 N331 1.397 . S
C333 H314 0.929 . S
C333 C330 1.404 . S
C333 N331 1.334 . S
C334 H326 0.930 . S
C334 C329 1.418 . S
C334 C330 1.353 . S
C335 H305 0.930 . S
C335 N336 1.330 . S
C335 C337 1.446 . S
N336 Co295 2.151 . S
N336 C335 1.330 . S
N336 C340 1.418 . S
C337 H316 0.929 . S
C337 C335 1.446 . S
C337 C338 1.332 . S
C338 H318 0.931 . S
C338 C337 1.332 . S
C338 C339 1.267 . S
C339 H307 0.929 . S
C339 C338 1.267 . S
C339 C340 1.251 . S
C340 H310 0.929 . S
C340 N336 1.418 . S
C340 C339 1.251 . S
C341 H308 0.930 . S
C341 C343 1.406 . S
C341 C346 1.261 . S
C342 H309 0.930 . S
C342 N344 1.325 . S
C342 C345 1.357 . S
C343 H311 0.928 . S
C343 C341 1.406 . S
C343 N344 1.261 . S
N344 Co295 2.214 . S
N344 C342 1.325 . S
N344 C343 1.261 . S
C345 H315 0.931 . S
C345 C342 1.357 . S
C345 C346 1.312 . S
C346 H317 0.930 . S
C346 C341 1.261 . S
C346 C345 1.312 . S
C347 O319 1.214 . S
C347 O327 1.234 . S
C348 H320 0.929 . S
C348 C351 1.391 . S
C348 C353 1.391 . S
C349 H321 0.929 . S
C349 C350 1.390 . S
C349 N352 1.391 . S
C350 H322 0.930 . S
C350 C349 1.390 . S
C350 C351 1.392 . S
C351 H323 0.929 . S
C351 C348 1.391 . S
C351 C350 1.392 . S
N352 Co296 2.257 . S
N352 C349 1.391 . S
N352 C353 1.388 . S
C353 H324 0.930 . S
C353 C348 1.391 . S
C353 N352 1.388 . S
Co354 O356 2.143 . S
Co354 O362 2.074 . S
Co354 O365 2.093 . S
Co354 O378 2.097 . S
Co354 N395 2.151 . S
Co354 N403 2.214 . S
Co355 O356 2.160 . S
Co355 O361 2.058 . S
Co355 O371 2.057 . S
Co355 O386 2.037 . S
Co355 N390 2.145 . S
Co355 N411 2.257 . S
O356 Co354 2.143 . S
O356 Co355 2.160 . S
C357 O358 1.278 . S
C357 O365 1.224 . S
O358 C357 1.278 . S
C359 O360 1.245 . S
C359 O371 1.232 . S
O360 C359 1.245 . S
O361 Co355 2.058 . S
O361 C387 1.269 . S
O362 Co354 2.074 . S
O362 C387 1.257 . S
H363 C388 0.930 . S
H364 C394 0.930 . S
O365 Co354 2.093 . S
O365 C357 1.224 . S
H366 C398 0.929 . S
H367 C400 0.930 . S
H368 C401 0.930 . S
H369 C399 0.929 . S
H370 C402 0.928 . S
O371 Co355 2.057 . S
O371 C359 1.232 . S
H372 C391 0.929 . S
H373 C392 0.929 . S
H374 C404 0.931 . S
H375 C396 0.929 . S
H376 C405 0.930 . S
H377 C397 0.931 . S
O378 Co354 2.097 . S
O378 C406 1.214 . S
H379 C407 0.929 . S
H380 C408 0.929 . S
H381 C409 0.930 . S
H382 C410 0.929 . S
H383 C412 0.930 . S
H384 C389 0.930 . S
H385 C393 0.930 . S
O386 Co355 2.037 . S
O386 C406 1.234 . S
C387 O361 1.269 . S
C387 O362 1.257 . S
C388 H363 0.930 . S
C388 C391 1.388 . S
C388 C393 1.418 . S
C389 H384 0.930 . S
C389 C392 1.404 . S
C389 C393 1.353 . S
N390 Co355 2.145 . S
N390 C391 1.397 . S
N390 C392 1.334 . S
C391 H372 0.929 . S
C391 C388 1.388 . S
C391 N390 1.397 . S
C392 H373 0.929 . S
C392 C389 1.404 . S
C392 N390 1.334 . S
C393 H385 0.930 . S
C393 C388 1.418 . S
C393 C389 1.353 . S
C394 H364 0.930 . S
C394 N395 1.330 . S
C394 C396 1.446 . S
N395 Co354 2.151 . S
N395 C394 1.330 . S
N395 C399 1.418 . S
C396 H375 0.929 . S
C396 C394 1.446 . S
C396 C397 1.332 . S
C397 H377 0.931 . S
C397 C396 1.332 . S
C397 C398 1.267 . S
C398 H366 0.929 . S
C398 C397 1.267 . S
C398 C399 1.251 . S
C399 H369 0.929 . S
C399 N395 1.418 . S
C399 C398 1.251 . S
C400 H367 0.930 . S
C400 C402 1.406 . S
C400 C405 1.261 . S
C401 H368 0.930 . S
C401 N403 1.325 . S
C401 C404 1.357 . S
C402 H370 0.928 . S
C402 C400 1.406 . S
C402 N403 1.261 . S
N403 Co354 2.214 . S
N403 C401 1.325 . S
N403 C402 1.261 . S
C404 H374 0.931 . S
C404 C401 1.357 . S
C404 C405 1.312 . S
C405 H376 0.930 . S
C405 C400 1.261 . S
C405 C404 1.312 . S
C406 O378 1.214 . S
C406 O386 1.234 . S
C407 H379 0.929 . S
C407 C410 1.391 . S
C407 C412 1.391 . S
C408 H380 0.929 . S
C408 C409 1.390 . S
C408 N411 1.391 . S
C409 H381 0.930 . S
C409 C408 1.390 . S
C409 C410 1.392 . S
C410 H382 0.929 . S
C410 C407 1.391 . S
C410 C409 1.392 . S
N411 Co355 2.257 . S
N411 C408 1.391 . S
N411 C412 1.388 . S
C412 H383 0.930 . S
C412 C407 1.391 . S
C412 N411 1.388 . S
Co413 O415 2.143 . S
Co413 O421 2.074 . S
Co413 O424 2.093 . S
Co413 O437 2.097 . S
Co413 N454 2.151 . S
Co413 N462 2.214 . S
Co414 O415 2.160 . S
Co414 O420 2.058 . S
Co414 O430 2.057 . S
Co414 O445 2.037 . S
Co414 N449 2.145 . S
Co414 N470 2.257 . S
O415 Co413 2.143 . S
O415 Co414 2.160 . S
C416 O417 1.278 . S
C416 O424 1.224 . S
O417 C416 1.278 . S
C418 O419 1.245 . S
C418 O430 1.232 . S
O419 C418 1.245 . S
O420 Co414 2.058 . S
O420 C446 1.269 . S
O421 Co413 2.074 . S
O421 C446 1.257 . S
H422 C447 0.930 . S
H423 C453 0.930 . S
O424 Co413 2.093 . S
O424 C416 1.224 . S
H425 C457 0.929 . S
H426 C459 0.930 . S
H427 C460 0.930 . S
H428 C458 0.929 . S
H429 C461 0.928 . S
O430 Co414 2.057 . S
O430 C418 1.232 . S
H431 C450 0.929 . S
H432 C451 0.929 . S
H433 C463 0.931 . S
H434 C455 0.929 . S
H435 C464 0.930 . S
H436 C456 0.931 . S
O437 Co413 2.097 . S
O437 C465 1.214 . S
H438 C466 0.929 . S
H439 C467 0.929 . S
H440 C468 0.930 . S
H441 C469 0.929 . S
H442 C471 0.930 . S
H443 C448 0.930 . S
H444 C452 0.930 . S
O445 Co414 2.037 . S
O445 C465 1.234 . S
C446 O420 1.269 . S
C446 O421 1.257 . S
C447 H422 0.930 . S
C447 C450 1.388 . S
C447 C452 1.418 . S
C448 H443 0.930 . S
C448 C451 1.404 . S
C448 C452 1.353 . S
N449 Co414 2.145 . S
N449 C450 1.397 . S
N449 C451 1.334 . S
C450 H431 0.929 . S
C450 C447 1.388 . S
C450 N449 1.397 . S
C451 H432 0.929 . S
C451 C448 1.404 . S
C451 N449 1.334 . S
C452 H444 0.930 . S
C452 C447 1.418 . S
C452 C448 1.353 . S
C453 H423 0.930 . S
C453 N454 1.330 . S
C453 C455 1.446 . S
N454 Co413 2.151 . S
N454 C453 1.330 . S
N454 C458 1.418 . S
C455 H434 0.929 . S
C455 C453 1.446 . S
C455 C456 1.332 . S
C456 H436 0.931 . S
C456 C455 1.332 . S
C456 C457 1.267 . S
C457 H425 0.929 . S
C457 C456 1.267 . S
C457 C458 1.251 . S
C458 H428 0.929 . S
C458 N454 1.418 . S
C458 C457 1.251 . S
C459 H426 0.930 . S
C459 C461 1.406 . S
C459 C464 1.261 . S
C460 H427 0.930 . S
C460 N462 1.325 . S
C460 C463 1.357 . S
C461 H429 0.928 . S
C461 C459 1.406 . S
C461 N462 1.261 . S
N462 Co413 2.214 . S
N462 C460 1.325 . S
N462 C461 1.261 . S
C463 H433 0.931 . S
C463 C460 1.357 . S
C463 C464 1.312 . S
C464 H435 0.930 . S
C464 C459 1.261 . S
C464 C463 1.312 . S
C465 O437 1.214 . S
C465 O445 1.234 . S
C466 H438 0.929 . S
C466 C469 1.391 . S
C466 C471 1.391 . S
C467 H439 0.929 . S
C467 C468 1.390 . S
C467 N470 1.391 . S
C468 H440 0.930 . S
C468 C467 1.390 . S
C468 C469 1.392 . S
C469 H441 0.929 . S
C469 C466 1.391 . S
C469 C468 1.392 . S
N470 Co414 2.257 . S
N470 C467 1.391 . S
N470 C471 1.388 . S
C471 H442 0.930 . S
C471 C466 1.391 . S
C471 N470 1.388 . S
Co472 O474 2.143 . S
Co472 O480 2.074 . S
Co472 O483 2.093 . S
Co472 O496 2.097 . S
Co472 N513 2.151 . S
Co472 N521 2.214 . S
Co473 O474 2.160 . S
Co473 O479 2.058 . S
Co473 O489 2.057 . S
Co473 O504 2.037 . S
Co473 N508 2.145 . S
Co473 N529 2.257 . S
O474 Co472 2.143 . S
O474 Co473 2.160 . S
C475 O476 1.278 . S
C475 O483 1.224 . S
O476 C475 1.278 . S
C477 O478 1.245 . S
C477 O489 1.232 . S
O478 C477 1.245 . S
O479 Co473 2.058 . S
O479 C505 1.269 . S
O480 Co472 2.074 . S
O480 C505 1.257 . S
H481 C506 0.930 . S
H482 C512 0.930 . S
O483 Co472 2.093 . S
O483 C475 1.224 . S
H484 C516 0.929 . S
H485 C518 0.930 . S
H486 C519 0.930 . S
H487 C517 0.929 . S
H488 C520 0.928 . S
O489 Co473 2.057 . S
O489 C477 1.232 . S
H490 C509 0.929 . S
H491 C510 0.929 . S
H492 C522 0.931 . S
H493 C514 0.929 . S
H494 C523 0.930 . S
H495 C515 0.931 . S
O496 Co472 2.097 . S
O496 C524 1.214 . S
H497 C525 0.929 . S
H498 C526 0.929 . S
H499 C527 0.930 . S
H500 C528 0.929 . S
H501 C530 0.930 . S
H502 C507 0.930 . S
H503 C511 0.930 . S
O504 Co473 2.037 . S
O504 C524 1.234 . S
C505 O479 1.269 . S
C505 O480 1.257 . S
C506 H481 0.930 . S
C506 C509 1.388 . S
C506 C511 1.418 . S
C507 H502 0.930 . S
C507 C510 1.404 . S
C507 C511 1.353 . S
N508 Co473 2.145 . S
N508 C509 1.397 . S
N508 C510 1.334 . S
C509 H490 0.929 . S
C509 C506 1.388 . S
C509 N508 1.397 . S
C510 H491 0.929 . S
C510 C507 1.404 . S
C510 N508 1.334 . S
C511 H503 0.930 . S
C511 C506 1.418 . S
C511 C507 1.353 . S
C512 H482 0.930 . S
C512 N513 1.330 . S
C512 C514 1.446 . S
N513 Co472 2.151 . S
N513 C512 1.330 . S
N513 C517 1.418 . S
C514 H493 0.929 . S
C514 C512 1.446 . S
C514 C515 1.332 . S
C515 H495 0.931 . S
C515 C514 1.332 . S
C515 C516 1.267 . S
C516 H484 0.929 . S
C516 C515 1.267 . S
C516 C517 1.251 . S
C517 H487 0.929 . S
C517 N513 1.418 . S
C517 C516 1.251 . S
C518 H485 0.930 . S
C518 C520 1.406 . S
C518 C523 1.261 . S
C519 H486 0.930 . S
C519 N521 1.325 . S
C519 C522 1.357 . S
C520 H488 0.928 . S
C520 C518 1.406 . S
C520 N521 1.261 . S
N521 Co472 2.214 . S
N521 C519 1.325 . S
N521 C520 1.261 . S
C522 H492 0.931 . S
C522 C519 1.357 . S
C522 C523 1.312 . S
C523 H494 0.930 . S
C523 C518 1.261 . S
C523 C522 1.312 . S
C524 O496 1.214 . S
C524 O504 1.234 . S
C525 H497 0.929 . S
C525 C528 1.391 . S
C525 C530 1.391 . S
C526 H498 0.929 . S
C526 C527 1.390 . S
C526 N529 1.391 . S
C527 H499 0.930 . S
C527 C526 1.390 . S
C527 C528 1.392 . S
C528 H500 0.929 . S
C528 C525 1.391 . S
C528 C527 1.392 . S
N529 Co473 2.257 . S
N529 C526 1.391 . S
N529 C530 1.388 . S
C530 H501 0.930 . S
C530 C525 1.391 . S
C530 N529 1.388 . S
Co531 O533 2.143 . S
Co531 O539 2.074 . S
Co531 O542 2.093 . S
Co531 O555 2.097 . S
Co531 N572 2.151 . S
Co531 N580 2.214 . S
Co532 O533 2.160 . S
Co532 O538 2.058 . S
Co532 O548 2.057 . S
Co532 O563 2.037 . S
Co532 N567 2.145 . S
Co532 N588 2.257 . S
O533 Co531 2.143 . S
O533 Co532 2.160 . S
C534 O535 1.278 . S
C534 O542 1.224 . S
O535 C534 1.278 . S
C536 O537 1.245 . S
C536 O548 1.232 . S
O537 C536 1.245 . S
O538 Co532 2.058 . S
O538 C564 1.269 . S
O539 Co531 2.074 . S
O539 C564 1.257 . S
H540 C565 0.930 . S
H541 C571 0.930 . S
O542 Co531 2.093 . S
O542 C534 1.224 . S
H543 C575 0.929 . S
H544 C577 0.930 . S
H545 C578 0.930 . S
H546 C576 0.929 . S
H547 C579 0.928 . S
O548 Co532 2.057 . S
O548 C536 1.232 . S
H549 C568 0.929 . S
H550 C569 0.929 . S
H551 C581 0.931 . S
H552 C573 0.929 . S
H553 C582 0.930 . S
H554 C574 0.931 . S
O555 Co531 2.097 . S
O555 C583 1.214 . S
H556 C584 0.929 . S
H557 C585 0.929 . S
H558 C586 0.930 . S
H559 C587 0.929 . S
H560 C589 0.930 . S
H561 C566 0.930 . S
H562 C570 0.930 . S
O563 Co532 2.037 . S
O563 C583 1.234 . S
C564 O538 1.269 . S
C564 O539 1.257 . S
C565 H540 0.930 . S
C565 C568 1.388 . S
C565 C570 1.418 . S
C566 H561 0.930 . S
C566 C569 1.404 . S
C566 C570 1.353 . S
N567 Co532 2.145 . S
N567 C568 1.397 . S
N567 C569 1.334 . S
C568 H549 0.929 . S
C568 C565 1.388 . S
C568 N567 1.397 . S
C569 H550 0.929 . S
C569 C566 1.404 . S
C569 N567 1.334 . S
C570 H562 0.930 . S
C570 C565 1.418 . S
C570 C566 1.353 . S
C571 H541 0.930 . S
C571 N572 1.330 . S
C571 C573 1.446 . S
N572 Co531 2.151 . S
N572 C571 1.330 . S
N572 C576 1.418 . S
C573 H552 0.929 . S
C573 C571 1.446 . S
C573 C574 1.332 . S
C574 H554 0.931 . S
C574 C573 1.332 . S
C574 C575 1.267 . S
C575 H543 0.929 . S
C575 C574 1.267 . S
C575 C576 1.251 . S
C576 H546 0.929 . S
C576 N572 1.418 . S
C576 C575 1.251 . S
C577 H544 0.930 . S
C577 C579 1.406 . S
C577 C582 1.261 . S
C578 H545 0.930 . S
C578 N580 1.325 . S
C578 C581 1.357 . S
C579 H547 0.928 . S
C579 C577 1.406 . S
C579 N580 1.261 . S
N580 Co531 2.214 . S
N580 C578 1.325 . S
N580 C579 1.261 . S
C581 H551 0.931 . S
C581 C578 1.357 . S
C581 C582 1.312 . S
C582 H553 0.930 . S
C582 C577 1.261 . S
C582 C581 1.312 . S
C583 O555 1.214 . S
C583 O563 1.234 . S
C584 H556 0.929 . S
C584 C587 1.391 . S
C584 C589 1.391 . S
C585 H557 0.929 . S
C585 C586 1.390 . S
C585 N588 1.391 . S
C586 H558 0.930 . S
C586 C585 1.390 . S
C586 C587 1.392 . S
C587 H559 0.929 . S
C587 C584 1.391 . S
C587 C586 1.392 . S
N588 Co532 2.257 . S
N588 C585 1.391 . S
N588 C589 1.388 . S
C589 H560 0.930 . S
C589 C584 1.391 . S
C589 N588 1.388 . S
Co590 O592 2.143 . S
Co590 O598 2.074 . S
Co590 O601 2.093 . S
Co590 O614 2.097 . S
Co590 N631 2.151 . S
Co590 N639 2.214 . S
Co591 O592 2.160 . S
Co591 O597 2.058 . S
Co591 O607 2.057 . S
Co591 O622 2.037 . S
Co591 N626 2.145 . S
Co591 N647 2.257 . S
O592 Co590 2.143 . S
O592 Co591 2.160 . S
C593 O594 1.278 . S
C593 O601 1.224 . S
O594 C593 1.278 . S
C595 O596 1.245 . S
C595 O607 1.232 . S
O596 C595 1.245 . S
O597 Co591 2.058 . S
O597 C623 1.269 . S
O598 Co590 2.074 . S
O598 C623 1.257 . S
H599 C624 0.930 . S
H600 C630 0.930 . S
O601 Co590 2.093 . S
O601 C593 1.224 . S
H602 C634 0.929 . S
H603 C636 0.930 . S
H604 C637 0.930 . S
H605 C635 0.929 . S
H606 C638 0.928 . S
O607 Co591 2.057 . S
O607 C595 1.232 . S
H608 C627 0.929 . S
H609 C628 0.929 . S
H610 C640 0.931 . S
H611 C632 0.929 . S
H612 C641 0.930 . S
H613 C633 0.931 . S
O614 Co590 2.097 . S
O614 C642 1.214 . S
H615 C643 0.929 . S
H616 C644 0.929 . S
H617 C645 0.930 . S
H618 C646 0.929 . S
H619 C648 0.930 . S
H620 C625 0.930 . S
H621 C629 0.930 . S
O622 Co591 2.037 . S
O622 C642 1.234 . S
C623 O597 1.269 . S
C623 O598 1.257 . S
C624 H599 0.930 . S
C624 C627 1.388 . S
C624 C629 1.418 . S
C625 H620 0.930 . S
C625 C628 1.404 . S
C625 C629 1.353 . S
N626 Co591 2.145 . S
N626 C627 1.397 . S
N626 C628 1.334 . S
C627 H608 0.929 . S
C627 C624 1.388 . S
C627 N626 1.397 . S
C628 H609 0.929 . S
C628 C625 1.404 . S
C628 N626 1.334 . S
C629 H621 0.930 . S
C629 C624 1.418 . S
C629 C625 1.353 . S
C630 H600 0.930 . S
C630 N631 1.330 . S
C630 C632 1.446 . S
N631 Co590 2.151 . S
N631 C630 1.330 . S
N631 C635 1.418 . S
C632 H611 0.929 . S
C632 C630 1.446 . S
C632 C633 1.332 . S
C633 H613 0.931 . S
C633 C632 1.332 . S
C633 C634 1.267 . S
C634 H602 0.929 . S
C634 C633 1.267 . S
C634 C635 1.251 . S
C635 H605 0.929 . S
C635 N631 1.418 . S
C635 C634 1.251 . S
C636 H603 0.930 . S
C636 C638 1.406 . S
C636 C641 1.261 . S
C637 H604 0.930 . S
C637 N639 1.325 . S
C637 C640 1.357 . S
C638 H606 0.928 . S
C638 C636 1.406 . S
C638 N639 1.261 . S
N639 Co590 2.214 . S
N639 C637 1.325 . S
N639 C638 1.261 . S
C640 H610 0.931 . S
C640 C637 1.357 . S
C640 C641 1.312 . S
C641 H612 0.930 . S
C641 C636 1.261 . S
C641 C640 1.312 . S
C642 O614 1.214 . S
C642 O622 1.234 . S
C643 H615 0.929 . S
C643 C646 1.391 . S
C643 C648 1.391 . S
C644 H616 0.929 . S
C644 C645 1.390 . S
C644 N647 1.391 . S
C645 H617 0.930 . S
C645 C644 1.390 . S
C645 C646 1.392 . S
C646 H618 0.929 . S
C646 C643 1.391 . S
C646 C645 1.392 . S
N647 Co591 2.257 . S
N647 C644 1.391 . S
N647 C648 1.388 . S
C648 H619 0.930 . S
C648 C643 1.391 . S
C648 N647 1.388 . S
Co649 O651 2.143 . S
Co649 O657 2.074 . S
Co649 O660 2.093 . S
Co649 O673 2.097 . S
Co649 N690 2.151 . S
Co649 N698 2.214 . S
Co650 O651 2.160 . S
Co650 O656 2.058 . S
Co650 O666 2.057 . S
Co650 O681 2.037 . S
Co650 N685 2.145 . S
Co650 N706 2.257 . S
O651 Co649 2.143 . S
O651 Co650 2.160 . S
C652 O653 1.278 . S
C652 O660 1.224 . S
O653 C652 1.278 . S
C654 O655 1.245 . S
C654 O666 1.232 . S
O655 C654 1.245 . S
O656 Co650 2.058 . S
O656 C682 1.269 . S
O657 Co649 2.074 . S
O657 C682 1.257 . S
H658 C683 0.930 . S
H659 C689 0.930 . S
O660 Co649 2.093 . S
O660 C652 1.224 . S
H661 C693 0.929 . S
H662 C695 0.930 . S
H663 C696 0.930 . S
H664 C694 0.929 . S
H665 C697 0.928 . S
O666 Co650 2.057 . S
O666 C654 1.232 . S
H667 C686 0.929 . S
H668 C687 0.929 . S
H669 C699 0.931 . S
H670 C691 0.929 . S
H671 C700 0.930 . S
H672 C692 0.931 . S
O673 Co649 2.097 . S
O673 C701 1.214 . S
H674 C702 0.929 . S
H675 C703 0.929 . S
H676 C704 0.930 . S
H677 C705 0.929 . S
H678 C707 0.930 . S
H679 C684 0.930 . S
H680 C688 0.930 . S
O681 Co650 2.037 . S
O681 C701 1.234 . S
C682 O656 1.269 . S
C682 O657 1.257 . S
C683 H658 0.930 . S
C683 C686 1.388 . S
C683 C688 1.418 . S
C684 H679 0.930 . S
C684 C687 1.404 . S
C684 C688 1.353 . S
N685 Co650 2.145 . S
N685 C686 1.397 . S
N685 C687 1.334 . S
C686 H667 0.929 . S
C686 C683 1.388 . S
C686 N685 1.397 . S
C687 H668 0.929 . S
C687 C684 1.404 . S
C687 N685 1.334 . S
C688 H680 0.930 . S
C688 C683 1.418 . S
C688 C684 1.353 . S
C689 H659 0.930 . S
C689 N690 1.330 . S
C689 C691 1.446 . S
N690 Co649 2.151 . S
N690 C689 1.330 . S
N690 C694 1.418 . S
C691 H670 0.929 . S
C691 C689 1.446 . S
C691 C692 1.332 . S
C692 H672 0.931 . S
C692 C691 1.332 . S
C692 C693 1.267 . S
C693 H661 0.929 . S
C693 C692 1.267 . S
C693 C694 1.251 . S
C694 H664 0.929 . S
C694 N690 1.418 . S
C694 C693 1.251 . S
C695 H662 0.930 . S
C695 C697 1.406 . S
C695 C700 1.261 . S
C696 H663 0.930 . S
C696 N698 1.325 . S
C696 C699 1.357 . S
C697 H665 0.928 . S
C697 C695 1.406 . S
C697 N698 1.261 . S
N698 Co649 2.214 . S
N698 C696 1.325 . S
N698 C697 1.261 . S
C699 H669 0.931 . S
C699 C696 1.357 . S
C699 C700 1.312 . S
C700 H671 0.930 . S
C700 C695 1.261 . S
C700 C699 1.312 . S
C701 O673 1.214 . S
C701 O681 1.234 . S
C702 H674 0.929 . S
C702 C705 1.391 . S
C702 C707 1.391 . S
C703 H675 0.929 . S
C703 C704 1.390 . S
C703 N706 1.391 . S
C704 H676 0.930 . S
C704 C703 1.390 . S
C704 C705 1.392 . S
C705 H677 0.929 . S
C705 C702 1.391 . S
C705 C704 1.392 . S
N706 Co650 2.257 . S
N706 C703 1.391 . S
N706 C707 1.388 . S
C707 H678 0.930 . S
C707 C702 1.391 . S
C707 N706 1.388 . S
Co708 O710 2.143 . S
Co708 O716 2.074 . S
Co708 O719 2.093 . S
Co708 O732 2.097 . S
Co708 N749 2.151 . S
Co708 N757 2.214 . S
Co709 O710 2.160 . S
Co709 O715 2.058 . S
Co709 O725 2.057 . S
Co709 O740 2.037 . S
Co709 N744 2.145 . S
Co709 N765 2.257 . S
O710 Co708 2.143 . S
O710 Co709 2.160 . S
C711 O712 1.278 . S
C711 O719 1.224 . S
O712 C711 1.278 . S
C713 O714 1.245 . S
C713 O725 1.232 . S
O714 C713 1.245 . S
O715 Co709 2.058 . S
O715 C741 1.269 . S
O716 Co708 2.074 . S
O716 C741 1.257 . S
H717 C742 0.930 . S
H718 C748 0.930 . S
O719 Co708 2.093 . S
O719 C711 1.224 . S
H720 C752 0.929 . S
H721 C754 0.930 . S
H722 C755 0.930 . S
H723 C753 0.929 . S
H724 C756 0.928 . S
O725 Co709 2.057 . S
O725 C713 1.232 . S
H726 C745 0.929 . S
H727 C746 0.929 . S
H728 C758 0.931 . S
H729 C750 0.929 . S
H730 C759 0.930 . S
H731 C751 0.931 . S
O732 Co708 2.097 . S
O732 C760 1.214 . S
H733 C761 0.929 . S
H734 C762 0.929 . S
H735 C763 0.930 . S
H736 C764 0.929 . S
H737 C766 0.930 . S
H738 C743 0.930 . S
H739 C747 0.930 . S
O740 Co709 2.037 . S
O740 C760 1.234 . S
C741 O715 1.269 . S
C741 O716 1.257 . S
C742 H717 0.930 . S
C742 C745 1.388 . S
C742 C747 1.418 . S
C743 H738 0.930 . S
C743 C746 1.404 . S
C743 C747 1.353 . S
N744 Co709 2.145 . S
N744 C745 1.397 . S
N744 C746 1.334 . S
C745 H726 0.929 . S
C745 C742 1.388 . S
C745 N744 1.397 . S
C746 H727 0.929 . S
C746 C743 1.404 . S
C746 N744 1.334 . S
C747 H739 0.930 . S
C747 C742 1.418 . S
C747 C743 1.353 . S
C748 H718 0.930 . S
C748 N749 1.330 . S
C748 C750 1.446 . S
N749 Co708 2.151 . S
N749 C748 1.330 . S
N749 C753 1.418 . S
C750 H729 0.929 . S
C750 C748 1.446 . S
C750 C751 1.332 . S
C751 H731 0.931 . S
C751 C750 1.332 . S
C751 C752 1.267 . S
C752 H720 0.929 . S
C752 C751 1.267 . S
C752 C753 1.251 . S
C753 H723 0.929 . S
C753 N749 1.418 . S
C753 C752 1.251 . S
C754 H721 0.930 . S
C754 C756 1.406 . S
C754 C759 1.261 . S
C755 H722 0.930 . S
C755 N757 1.325 . S
C755 C758 1.357 . S
C756 H724 0.928 . S
C756 C754 1.406 . S
C756 N757 1.261 . S
N757 Co708 2.214 . S
N757 C755 1.325 . S
N757 C756 1.261 . S
C758 H728 0.931 . S
C758 C755 1.357 . S
C758 C759 1.312 . S
C759 H730 0.930 . S
C759 C754 1.261 . S
C759 C758 1.312 . S
C760 O732 1.214 . S
C760 O740 1.234 . S
C761 H733 0.929 . S
C761 C764 1.391 . S
C761 C766 1.391 . S
C762 H734 0.929 . S
C762 C763 1.390 . S
C762 N765 1.391 . S
C763 H735 0.930 . S
C763 C762 1.390 . S
C763 C764 1.392 . S
C764 H736 0.929 . S
C764 C761 1.391 . S
C764 C763 1.392 . S
N765 Co709 2.257 . S
N765 C762 1.391 . S
N765 C766 1.388 . S
C766 H737 0.930 . S
C766 C761 1.391 . S
C766 N765 1.388 . S
Co767 O769 2.143 . S
Co767 O775 2.074 . S
Co767 O778 2.093 . S
Co767 O791 2.097 . S
Co767 N808 2.151 . S
Co767 N816 2.214 . S
Co768 O769 2.160 . S
Co768 O774 2.058 . S
Co768 O784 2.057 . S
Co768 O799 2.037 . S
Co768 N803 2.145 . S
Co768 N824 2.257 . S
O769 Co767 2.143 . S
O769 Co768 2.160 . S
C770 O771 1.278 . S
C770 O778 1.224 . S
O771 C770 1.278 . S
C772 O773 1.245 . S
C772 O784 1.232 . S
O773 C772 1.245 . S
O774 Co768 2.058 . S
O774 C800 1.269 . S
O775 Co767 2.074 . S
O775 C800 1.257 . S
H776 C801 0.930 . S
H777 C807 0.930 . S
O778 Co767 2.093 . S
O778 C770 1.224 . S
H779 C811 0.929 . S
H780 C813 0.930 . S
H781 C814 0.930 . S
H782 C812 0.929 . S
H783 C815 0.928 . S
O784 Co768 2.057 . S
O784 C772 1.232 . S
H785 C804 0.929 . S
H786 C805 0.929 . S
H787 C817 0.931 . S
H788 C809 0.929 . S
H789 C818 0.930 . S
H790 C810 0.931 . S
O791 Co767 2.097 . S
O791 C819 1.214 . S
H792 C820 0.929 . S
H793 C821 0.929 . S
H794 C822 0.930 . S
H795 C823 0.929 . S
H796 C825 0.930 . S
H797 C802 0.930 . S
H798 C806 0.930 . S
O799 Co768 2.037 . S
O799 C819 1.234 . S
C800 O774 1.269 . S
C800 O775 1.257 . S
C801 H776 0.930 . S
C801 C804 1.388 . S
C801 C806 1.418 . S
C802 H797 0.930 . S
C802 C805 1.404 . S
C802 C806 1.353 . S
N803 Co768 2.145 . S
N803 C804 1.397 . S
N803 C805 1.334 . S
C804 H785 0.929 . S
C804 C801 1.388 . S
C804 N803 1.397 . S
C805 H786 0.929 . S
C805 C802 1.404 . S
C805 N803 1.334 . S
C806 H798 0.930 . S
C806 C801 1.418 . S
C806 C802 1.353 . S
C807 H777 0.930 . S
C807 N808 1.330 . S
C807 C809 1.446 . S
N808 Co767 2.151 . S
N808 C807 1.330 . S
N808 C812 1.418 . S
C809 H788 0.929 . S
C809 C807 1.446 . S
C809 C810 1.332 . S
C810 H790 0.931 . S
C810 C809 1.332 . S
C810 C811 1.267 . S
C811 H779 0.929 . S
C811 C810 1.267 . S
C811 C812 1.251 . S
C812 H782 0.929 . S
C812 N808 1.418 . S
C812 C811 1.251 . S
C813 H780 0.930 . S
C813 C815 1.406 . S
C813 C818 1.261 . S
C814 H781 0.930 . S
C814 N816 1.325 . S
C814 C817 1.357 . S
C815 H783 0.928 . S
C815 C813 1.406 . S
C815 N816 1.261 . S
N816 Co767 2.214 . S
N816 C814 1.325 . S
N816 C815 1.261 . S
C817 H787 0.931 . S
C817 C814 1.357 . S
C817 C818 1.312 . S
C818 H789 0.930 . S
C818 C813 1.261 . S
C818 C817 1.312 . S
C819 O791 1.214 . S
C819 O799 1.234 . S
C820 H792 0.929 . S
C820 C823 1.391 . S
C820 C825 1.391 . S
C821 H793 0.929 . S
C821 C822 1.390 . S
C821 N824 1.391 . S
C822 H794 0.930 . S
C822 C821 1.390 . S
C822 C823 1.392 . S
C823 H795 0.929 . S
C823 C820 1.391 . S
C823 C822 1.392 . S
N824 Co768 2.257 . S
N824 C821 1.391 . S
N824 C825 1.388 . S
C825 H796 0.930 . S
C825 C820 1.391 . S
C825 N824 1.388 . S
Co826 O828 2.143 . S
Co826 O834 2.074 . S
Co826 O837 2.093 . S
Co826 O850 2.097 . S
Co826 N867 2.151 . S
Co826 N875 2.214 . S
Co827 O828 2.160 . S
Co827 O833 2.058 . S
Co827 O843 2.057 . S
Co827 O858 2.037 . S
Co827 N862 2.145 . S
Co827 N883 2.257 . S
O828 Co826 2.143 . S
O828 Co827 2.160 . S
C829 O830 1.278 . S
C829 O837 1.224 . S
O830 C829 1.278 . S
C831 O832 1.245 . S
C831 O843 1.232 . S
O832 C831 1.245 . S
O833 Co827 2.058 . S
O833 C859 1.269 . S
O834 Co826 2.074 . S
O834 C859 1.257 . S
H835 C860 0.930 . S
H836 C866 0.930 . S
O837 Co826 2.093 . S
O837 C829 1.224 . S
H838 C870 0.929 . S
H839 C872 0.930 . S
H840 C873 0.930 . S
H841 C871 0.929 . S
H842 C874 0.928 . S
O843 Co827 2.057 . S
O843 C831 1.232 . S
H844 C863 0.929 . S
H845 C864 0.929 . S
H846 C876 0.931 . S
H847 C868 0.929 . S
H848 C877 0.930 . S
H849 C869 0.931 . S
O850 Co826 2.097 . S
O850 C878 1.214 . S
H851 C879 0.929 . S
H852 C880 0.929 . S
H853 C881 0.930 . S
H854 C882 0.929 . S
H855 C884 0.930 . S
H856 C861 0.930 . S
H857 C865 0.930 . S
O858 Co827 2.037 . S
O858 C878 1.234 . S
C859 O833 1.269 . S
C859 O834 1.257 . S
C860 H835 0.930 . S
C860 C863 1.388 . S
C860 C865 1.418 . S
C861 H856 0.930 . S
C861 C864 1.404 . S
C861 C865 1.353 . S
N862 Co827 2.145 . S
N862 C863 1.397 . S
N862 C864 1.334 . S
C863 H844 0.929 . S
C863 C860 1.388 . S
C863 N862 1.397 . S
C864 H845 0.929 . S
C864 C861 1.404 . S
C864 N862 1.334 . S
C865 H857 0.930 . S
C865 C860 1.418 . S
C865 C861 1.353 . S
C866 H836 0.930 . S
C866 N867 1.330 . S
C866 C868 1.446 . S
N867 Co826 2.151 . S
N867 C866 1.330 . S
N867 C871 1.418 . S
C868 H847 0.929 . S
C868 C866 1.446 . S
C868 C869 1.332 . S
C869 H849 0.931 . S
C869 C868 1.332 . S
C869 C870 1.267 . S
C870 H838 0.929 . S
C870 C869 1.267 . S
C870 C871 1.251 . S
C871 H841 0.929 . S
C871 N867 1.418 . S
C871 C870 1.251 . S
C872 H839 0.930 . S
C872 C874 1.406 . S
C872 C877 1.261 . S
C873 H840 0.930 . S
C873 N875 1.325 . S
C873 C876 1.357 . S
C874 H842 0.928 . S
C874 C872 1.406 . S
C874 N875 1.261 . S
N875 Co826 2.214 . S
N875 C873 1.325 . S
N875 C874 1.261 . S
C876 H846 0.931 . S
C876 C873 1.357 . S
C876 C877 1.312 . S
C877 H848 0.930 . S
C877 C872 1.261 . S
C877 C876 1.312 . S
C878 O850 1.214 . S
C878 O858 1.234 . S
C879 H851 0.929 . S
C879 C882 1.391 . S
C879 C884 1.391 . S
C880 H852 0.929 . S
C880 C881 1.390 . S
C880 N883 1.391 . S
C881 H853 0.930 . S
C881 C880 1.390 . S
C881 C882 1.392 . S
C882 H854 0.929 . S
C882 C879 1.391 . S
C882 C881 1.392 . S
N883 Co827 2.257 . S
N883 C880 1.391 . S
N883 C884 1.388 . S
C884 H855 0.930 . S
C884 C879 1.391 . S
C884 N883 1.388 . S
Co885 O887 2.143 . S
Co885 O893 2.074 . S
Co885 O896 2.093 . S
Co885 O909 2.097 . S
Co885 N926 2.151 . S
Co885 N934 2.214 . S
Co886 O887 2.160 . S
Co886 O892 2.058 . S
Co886 O902 2.057 . S
Co886 O917 2.037 . S
Co886 N921 2.145 . S
Co886 N942 2.257 . S
O887 Co885 2.143 . S
O887 Co886 2.160 . S
C888 O889 1.278 . S
C888 O896 1.224 . S
O889 C888 1.278 . S
C890 O891 1.245 . S
C890 O902 1.232 . S
O891 C890 1.245 . S
O892 Co886 2.058 . S
O892 C918 1.269 . S
O893 Co885 2.074 . S
O893 C918 1.257 . S
H894 C919 0.930 . S
H895 C925 0.930 . S
O896 Co885 2.093 . S
O896 C888 1.224 . S
H897 C929 0.929 . S
H898 C931 0.930 . S
H899 C932 0.930 . S
H900 C930 0.929 . S
H901 C933 0.928 . S
O902 Co886 2.057 . S
O902 C890 1.232 . S
H903 C922 0.929 . S
H904 C923 0.929 . S
H905 C935 0.931 . S
H906 C927 0.929 . S
H907 C936 0.930 . S
H908 C928 0.931 . S
O909 Co885 2.097 . S
O909 C937 1.214 . S
H910 C938 0.929 . S
H911 C939 0.929 . S
H912 C940 0.930 . S
H913 C941 0.929 . S
H914 C943 0.930 . S
H915 C920 0.930 . S
H916 C924 0.930 . S
O917 Co886 2.037 . S
O917 C937 1.234 . S
C918 O892 1.269 . S
C918 O893 1.257 . S
C919 H894 0.930 . S
C919 C922 1.388 . S
C919 C924 1.418 . S
C920 H915 0.930 . S
C920 C923 1.404 . S
C920 C924 1.353 . S
N921 Co886 2.145 . S
N921 C922 1.397 . S
N921 C923 1.334 . S
C922 H903 0.929 . S
C922 C919 1.388 . S
C922 N921 1.397 . S
C923 H904 0.929 . S
C923 C920 1.404 . S
C923 N921 1.334 . S
C924 H916 0.930 . S
C924 C919 1.418 . S
C924 C920 1.353 . S
C925 H895 0.930 . S
C925 N926 1.330 . S
C925 C927 1.446 . S
N926 Co885 2.151 . S
N926 C925 1.330 . S
N926 C930 1.418 . S
C927 H906 0.929 . S
C927 C925 1.446 . S
C927 C928 1.332 . S
C928 H908 0.931 . S
C928 C927 1.332 . S
C928 C929 1.267 . S
C929 H897 0.929 . S
C929 C928 1.267 . S
C929 C930 1.251 . S
C930 H900 0.929 . S
C930 N926 1.418 . S
C930 C929 1.251 . S
C931 H898 0.930 . S
C931 C933 1.406 . S
C931 C936 1.261 . S
C932 H899 0.930 . S
C932 N934 1.325 . S
C932 C935 1.357 . S
C933 H901 0.928 . S
C933 C931 1.406 . S
C933 N934 1.261 . S
N934 Co885 2.214 . S
N934 C932 1.325 . S
N934 C933 1.261 . S
C935 H905 0.931 . S
C935 C932 1.357 . S
C935 C936 1.312 . S
C936 H907 0.930 . S
C936 C931 1.261 . S
C936 C935 1.312 . S
C937 O909 1.214 . S
C937 O917 1.234 . S
C938 H910 0.929 . S
C938 C941 1.391 . S
C938 C943 1.391 . S
C939 H911 0.929 . S
C939 C940 1.390 . S
C939 N942 1.391 . S
C940 H912 0.930 . S
C940 C939 1.390 . S
C940 C941 1.392 . S
C941 H913 0.929 . S
C941 C938 1.391 . S
C941 C940 1.392 . S
N942 Co886 2.257 . S
N942 C939 1.391 . S
N942 C943 1.388 . S
C943 H914 0.930 . S
C943 C938 1.391 . S
C943 N942 1.388 . S
Co944 O946 2.143 . S
Co944 O952 2.074 . S
Co944 O955 2.093 . S
Co944 O968 2.097 . S
Co944 N985 2.151 . S
Co944 N993 2.214 . S
Co945 O946 2.160 . S
Co945 O951 2.058 . S
Co945 O961 2.057 . S
Co945 O976 2.037 . S
Co945 N980 2.145 . S
Co945 N1001 2.257 . S
O946 Co944 2.143 . S
O946 Co945 2.160 . S
C947 O948 1.278 . S
C947 O955 1.224 . S
O948 C947 1.278 . S
C949 O950 1.245 . S
C949 O961 1.232 . S
O950 C949 1.245 . S
O951 Co945 2.058 . S
O951 C977 1.269 . S
O952 Co944 2.074 . S
O952 C977 1.257 . S
H953 C978 0.930 . S
H954 C984 0.930 . S
O955 Co944 2.093 . S
O955 C947 1.224 . S
H956 C988 0.929 . S
H957 C990 0.930 . S
H958 C991 0.930 . S
H959 C989 0.929 . S
H960 C992 0.928 . S
O961 Co945 2.057 . S
O961 C949 1.232 . S
H962 C981 0.929 . S
H963 C982 0.929 . S
H964 C994 0.931 . S
H965 C986 0.929 . S
H966 C995 0.930 . S
H967 C987 0.931 . S
O968 Co944 2.097 . S
O968 C996 1.214 . S
H969 C997 0.929 . S
H970 C998 0.929 . S
H971 C999 0.930 . S
H972 C1000 0.929 . S
H973 C1002 0.930 . S
H974 C979 0.930 . S
H975 C983 0.930 . S
O976 Co945 2.037 . S
O976 C996 1.234 . S
C977 O951 1.269 . S
C977 O952 1.257 . S
C978 H953 0.930 . S
C978 C981 1.388 . S
C978 C983 1.418 . S
C979 H974 0.930 . S
C979 C982 1.404 . S
C979 C983 1.353 . S
N980 Co945 2.145 . S
N980 C981 1.397 . S
N980 C982 1.334 . S
C981 H962 0.929 . S
C981 C978 1.388 . S
C981 N980 1.397 . S
C982 H963 0.929 . S
C982 C979 1.404 . S
C982 N980 1.334 . S
C983 H975 0.930 . S
C983 C978 1.418 . S
C983 C979 1.353 . S
C984 H954 0.930 . S
C984 N985 1.330 . S
C984 C986 1.446 . S
N985 Co944 2.151 . S
N985 C984 1.330 . S
N985 C989 1.418 . S
C986 H965 0.929 . S
C986 C984 1.446 . S
C986 C987 1.332 . S
C987 H967 0.931 . S
C987 C986 1.332 . S
C987 C988 1.267 . S
C988 H956 0.929 . S
C988 C987 1.267 . S
C988 C989 1.251 . S
C989 H959 0.929 . S
C989 N985 1.418 . S
C989 C988 1.251 . S
C990 H957 0.930 . S
C990 C992 1.406 . S
C990 C995 1.261 . S
C991 H958 0.930 . S
C991 N993 1.325 . S
C991 C994 1.357 . S
C992 H960 0.928 . S
C992 C990 1.406 . S
C992 N993 1.261 . S
N993 Co944 2.214 . S
N993 C991 1.325 . S
N993 C992 1.261 . S
C994 H964 0.931 . S
C994 C991 1.357 . S
C994 C995 1.312 . S
C995 H966 0.930 . S
C995 C990 1.261 . S
C995 C994 1.312 . S
C996 O968 1.214 . S
C996 O976 1.234 . S
C997 H969 0.929 . S
C997 C1000 1.391 . S
C997 C1002 1.391 . S
C998 H970 0.929 . S
C998 C999 1.390 . S
C998 N1001 1.391 . S
C999 H971 0.930 . S
C999 C998 1.390 . S
C999 C1000 1.392 . S
C1000 H972 0.929 . S
C1000 C997 1.391 . S
C1000 C999 1.392 . S
N1001 Co945 2.257 . S
N1001 C998 1.391 . S
N1001 C1002 1.388 . S
C1002 H973 0.930 . S
C1002 C997 1.391 . S
C1002 N1001 1.388 . S
Co1003 O1005 2.143 . S
Co1003 O1011 2.074 . S
Co1003 O1014 2.093 . S
Co1003 O1027 2.097 . S
Co1003 N1044 2.151 . S
Co1003 N1052 2.214 . S
Co1004 O1005 2.160 . S
Co1004 O1010 2.058 . S
Co1004 O1020 2.057 . S
Co1004 O1035 2.037 . S
Co1004 N1039 2.145 . S
Co1004 N1060 2.257 . S
O1005 Co1003 2.143 . S
O1005 Co1004 2.160 . S
C1006 O1007 1.278 . S
C1006 O1014 1.224 . S
O1007 C1006 1.278 . S
C1008 O1009 1.245 . S
C1008 O1020 1.232 . S
O1009 C1008 1.245 . S
O1010 Co1004 2.058 . S
O1010 C1036 1.269 . S
O1011 Co1003 2.074 . S
O1011 C1036 1.257 . S
H1012 C1037 0.930 . S
H1013 C1043 0.930 . S
O1014 Co1003 2.093 . S
O1014 C1006 1.224 . S
H1015 C1047 0.929 . S
H1016 C1049 0.930 . S
H1017 C1050 0.930 . S
H1018 C1048 0.929 . S
H1019 C1051 0.928 . S
O1020 Co1004 2.057 . S
O1020 C1008 1.232 . S
H1021 C1040 0.929 . S
H1022 C1041 0.929 . S
H1023 C1053 0.931 . S
H1024 C1045 0.929 . S
H1025 C1054 0.930 . S
H1026 C1046 0.931 . S
O1027 Co1003 2.097 . S
O1027 C1055 1.214 . S
H1028 C1056 0.929 . S
H1029 C1057 0.929 . S
H1030 C1058 0.930 . S
H1031 C1059 0.929 . S
H1032 C1061 0.930 . S
H1033 C1038 0.930 . S
H1034 C1042 0.930 . S
O1035 Co1004 2.037 . S
O1035 C1055 1.234 . S
C1036 O1010 1.269 . S
C1036 O1011 1.257 . S
C1037 H1012 0.930 . S
C1037 C1040 1.388 . S
C1037 C1042 1.418 . S
C1038 H1033 0.930 . S
C1038 C1041 1.404 . S
C1038 C1042 1.353 . S
N1039 Co1004 2.145 . S
N1039 C1040 1.397 . S
N1039 C1041 1.334 . S
C1040 H1021 0.929 . S
C1040 C1037 1.388 . S
C1040 N1039 1.397 . S
C1041 H1022 0.929 . S
C1041 C1038 1.404 . S
C1041 N1039 1.334 . S
C1042 H1034 0.930 . S
C1042 C1037 1.418 . S
C1042 C1038 1.353 . S
C1043 H1013 0.930 . S
C1043 N1044 1.330 . S
C1043 C1045 1.446 . S
N1044 Co1003 2.151 . S
N1044 C1043 1.330 . S
N1044 C1048 1.418 . S
C1045 H1024 0.929 . S
C1045 C1043 1.446 . S
C1045 C1046 1.332 . S
C1046 H1026 0.931 . S
C1046 C1045 1.332 . S
C1046 C1047 1.267 . S
C1047 H1015 0.929 . S
C1047 C1046 1.267 . S
C1047 C1048 1.251 . S
C1048 H1018 0.929 . S
C1048 N1044 1.418 . S
C1048 C1047 1.251 . S
C1049 H1016 0.930 . S
C1049 C1051 1.406 . S
C1049 C1054 1.261 . S
C1050 H1017 0.930 . S
C1050 N1052 1.325 . S
C1050 C1053 1.357 . S
C1051 H1019 0.928 . S
C1051 C1049 1.406 . S
C1051 N1052 1.261 . S
N1052 Co1003 2.214 . S
N1052 C1050 1.325 . S
N1052 C1051 1.261 . S
C1053 H1023 0.931 . S
C1053 C1050 1.357 . S
C1053 C1054 1.312 . S
C1054 H1025 0.930 . S
C1054 C1049 1.261 . S
C1054 C1053 1.312 . S
C1055 O1027 1.214 . S
C1055 O1035 1.234 . S
C1056 H1028 0.929 . S
C1056 C1059 1.391 . S
C1056 C1061 1.391 . S
C1057 H1029 0.929 . S
C1057 C1058 1.390 . S
C1057 N1060 1.391 . S
C1058 H1030 0.930 . S
C1058 C1057 1.390 . S
C1058 C1059 1.392 . S
C1059 H1031 0.929 . S
C1059 C1056 1.391 . S
C1059 C1058 1.392 . S
N1060 Co1004 2.257 . S
N1060 C1057 1.391 . S
N1060 C1061 1.388 . S
C1061 H1032 0.930 . S
C1061 C1056 1.391 . S
C1061 N1060 1.388 . S
Co1062 O1064 2.143 . S
Co1062 O1070 2.074 . S
Co1062 O1073 2.093 . S
Co1062 O1086 2.097 . S
Co1062 N1103 2.151 . S
Co1062 N1111 2.214 . S
Co1063 O1064 2.160 . S
Co1063 O1069 2.058 . S
Co1063 O1079 2.057 . S
Co1063 O1094 2.037 . S
Co1063 N1098 2.145 . S
Co1063 N1119 2.257 . S
O1064 Co1062 2.143 . S
O1064 Co1063 2.160 . S
C1065 O1066 1.278 . S
C1065 O1073 1.224 . S
O1066 C1065 1.278 . S
C1067 O1068 1.245 . S
C1067 O1079 1.232 . S
O1068 C1067 1.245 . S
O1069 Co1063 2.058 . S
O1069 C1095 1.269 . S
O1070 Co1062 2.074 . S
O1070 C1095 1.257 . S
H1071 C1096 0.930 . S
H1072 C1102 0.930 . S
O1073 Co1062 2.093 . S
O1073 C1065 1.224 . S
H1074 C1106 0.929 . S
H1075 C1108 0.930 . S
H1076 C1109 0.930 . S
H1077 C1107 0.929 . S
H1078 C1110 0.928 . S
O1079 Co1063 2.057 . S
O1079 C1067 1.232 . S
H1080 C1099 0.929 . S
H1081 C1100 0.929 . S
H1082 C1112 0.931 . S
H1083 C1104 0.929 . S
H1084 C1113 0.930 . S
H1085 C1105 0.931 . S
O1086 Co1062 2.097 . S
O1086 C1114 1.214 . S
H1087 C1115 0.929 . S
H1088 C1116 0.929 . S
H1089 C1117 0.930 . S
H1090 C1118 0.929 . S
H1091 C1120 0.930 . S
H1092 C1097 0.930 . S
H1093 C1101 0.930 . S
O1094 Co1063 2.037 . S
O1094 C1114 1.234 . S
C1095 O1069 1.269 . S
C1095 O1070 1.257 . S
C1096 H1071 0.930 . S
C1096 C1099 1.388 . S
C1096 C1101 1.418 . S
C1097 H1092 0.930 . S
C1097 C1100 1.404 . S
C1097 C1101 1.353 . S
N1098 Co1063 2.145 . S
N1098 C1099 1.397 . S
N1098 C1100 1.334 . S
C1099 H1080 0.929 . S
C1099 C1096 1.388 . S
C1099 N1098 1.397 . S
C1100 H1081 0.929 . S
C1100 C1097 1.404 . S
C1100 N1098 1.334 . S
C1101 H1093 0.930 . S
C1101 C1096 1.418 . S
C1101 C1097 1.353 . S
C1102 H1072 0.930 . S
C1102 N1103 1.330 . S
C1102 C1104 1.446 . S
N1103 Co1062 2.151 . S
N1103 C1102 1.330 . S
N1103 C1107 1.418 . S
C1104 H1083 0.929 . S
C1104 C1102 1.446 . S
C1104 C1105 1.332 . S
C1105 H1085 0.931 . S
C1105 C1104 1.332 . S
C1105 C1106 1.267 . S
C1106 H1074 0.929 . S
C1106 C1105 1.267 . S
C1106 C1107 1.251 . S
C1107 H1077 0.929 . S
C1107 N1103 1.418 . S
C1107 C1106 1.251 . S
C1108 H1075 0.930 . S
C1108 C1110 1.406 . S
C1108 C1113 1.261 . S
C1109 H1076 0.930 . S
C1109 N1111 1.325 . S
C1109 C1112 1.357 . S
C1110 H1078 0.928 . S
C1110 C1108 1.406 . S
C1110 N1111 1.261 . S
N1111 Co1062 2.214 . S
N1111 C1109 1.325 . S
N1111 C1110 1.261 . S
C1112 H1082 0.931 . S
C1112 C1109 1.357 . S
C1112 C1113 1.312 . S
C1113 H1084 0.930 . S
C1113 C1108 1.261 . S
C1113 C1112 1.312 . S
C1114 O1086 1.214 . S
C1114 O1094 1.234 . S
C1115 H1087 0.929 . S
C1115 C1118 1.391 . S
C1115 C1120 1.391 . S
C1116 H1088 0.929 . S
C1116 C1117 1.390 . S
C1116 N1119 1.391 . S
C1117 H1089 0.930 . S
C1117 C1116 1.390 . S
C1117 C1118 1.392 . S
C1118 H1090 0.929 . S
C1118 C1115 1.391 . S
C1118 C1117 1.392 . S
N1119 Co1063 2.257 . S
N1119 C1116 1.391 . S
N1119 C1120 1.388 . S
C1120 H1091 0.930 . S
C1120 C1115 1.391 . S
C1120 N1119 1.388 . S
Co1121 O1123 2.143 . S
Co1121 O1129 2.074 . S
Co1121 O1132 2.093 . S
Co1121 O1145 2.097 . S
Co1121 N1162 2.151 . S
Co1121 N1170 2.214 . S
Co1122 O1123 2.160 . S
Co1122 O1128 2.058 . S
Co1122 O1138 2.057 . S
Co1122 O1153 2.037 . S
Co1122 N1157 2.145 . S
Co1122 N1178 2.257 . S
O1123 Co1121 2.143 . S
O1123 Co1122 2.160 . S
C1124 O1125 1.278 . S
C1124 O1132 1.224 . S
O1125 C1124 1.278 . S
C1126 O1127 1.245 . S
C1126 O1138 1.232 . S
O1127 C1126 1.245 . S
O1128 Co1122 2.058 . S
O1128 C1154 1.269 . S
O1129 Co1121 2.074 . S
O1129 C1154 1.257 . S
H1130 C1155 0.930 . S
H1131 C1161 0.930 . S
O1132 Co1121 2.093 . S
O1132 C1124 1.224 . S
H1133 C1165 0.929 . S
H1134 C1167 0.930 . S
H1135 C1168 0.930 . S
H1136 C1166 0.929 . S
H1137 C1169 0.928 . S
O1138 Co1122 2.057 . S
O1138 C1126 1.232 . S
H1139 C1158 0.929 . S
H1140 C1159 0.929 . S
H1141 C1171 0.931 . S
H1142 C1163 0.929 . S
H1143 C1172 0.930 . S
H1144 C1164 0.931 . S
O1145 Co1121 2.097 . S
O1145 C1173 1.214 . S
H1146 C1174 0.929 . S
H1147 C1175 0.929 . S
H1148 C1176 0.930 . S
H1149 C1177 0.929 . S
H1150 C1179 0.930 . S
H1151 C1156 0.930 . S
H1152 C1160 0.930 . S
O1153 Co1122 2.037 . S
O1153 C1173 1.234 . S
C1154 O1128 1.269 . S
C1154 O1129 1.257 . S
C1155 H1130 0.930 . S
C1155 C1158 1.388 . S
C1155 C1160 1.418 . S
C1156 H1151 0.930 . S
C1156 C1159 1.404 . S
C1156 C1160 1.353 . S
N1157 Co1122 2.145 . S
N1157 C1158 1.397 . S
N1157 C1159 1.334 . S
C1158 H1139 0.929 . S
C1158 C1155 1.388 . S
C1158 N1157 1.397 . S
C1159 H1140 0.929 . S
C1159 C1156 1.404 . S
C1159 N1157 1.334 . S
C1160 H1152 0.930 . S
C1160 C1155 1.418 . S
C1160 C1156 1.353 . S
C1161 H1131 0.930 . S
C1161 N1162 1.330 . S
C1161 C1163 1.446 . S
N1162 Co1121 2.151 . S
N1162 C1161 1.330 . S
N1162 C1166 1.418 . S
C1163 H1142 0.929 . S
C1163 C1161 1.446 . S
C1163 C1164 1.332 . S
C1164 H1144 0.931 . S
C1164 C1163 1.332 . S
C1164 C1165 1.267 . S
C1165 H1133 0.929 . S
C1165 C1164 1.267 . S
C1165 C1166 1.251 . S
C1166 H1136 0.929 . S
C1166 N1162 1.418 . S
C1166 C1165 1.251 . S
C1167 H1134 0.930 . S
C1167 C1169 1.406 . S
C1167 C1172 1.261 . S
C1168 H1135 0.930 . S
C1168 N1170 1.325 . S
C1168 C1171 1.357 . S
C1169 H1137 0.928 . S
C1169 C1167 1.406 . S
C1169 N1170 1.261 . S
N1170 Co1121 2.214 . S
N1170 C1168 1.325 . S
N1170 C1169 1.261 . S
C1171 H1141 0.931 . S
C1171 C1168 1.357 . S
C1171 C1172 1.312 . S
C1172 H1143 0.930 . S
C1172 C1167 1.261 . S
C1172 C1171 1.312 . S
C1173 O1145 1.214 . S
C1173 O1153 1.234 . S
C1174 H1146 0.929 . S
C1174 C1177 1.391 . S
C1174 C1179 1.391 . S
C1175 H1147 0.929 . S
C1175 C1176 1.390 . S
C1175 N1178 1.391 . S
C1176 H1148 0.930 . S
C1176 C1175 1.390 . S
C1176 C1177 1.392 . S
C1177 H1149 0.929 . S
C1177 C1174 1.391 . S
C1177 C1176 1.392 . S
N1178 Co1122 2.257 . S
N1178 C1175 1.391 . S
N1178 C1179 1.388 . S
C1179 H1150 0.930 . S
C1179 C1174 1.391 . S
C1179 N1178 1.388 . S
Co1180 O1182 2.143 . S
Co1180 O1188 2.074 . S
Co1180 O1191 2.093 . S
Co1180 O1204 2.097 . S
Co1180 N1221 2.151 . S
Co1180 N1229 2.214 . S
Co1181 O1182 2.160 . S
Co1181 O1187 2.058 . S
Co1181 O1197 2.057 . S
Co1181 O1212 2.037 . S
Co1181 N1216 2.145 . S
Co1181 N1237 2.257 . S
O1182 Co1180 2.143 . S
O1182 Co1181 2.160 . S
C1183 O1184 1.278 . S
C1183 O1191 1.224 . S
O1184 C1183 1.278 . S
C1185 O1186 1.245 . S
C1185 O1197 1.232 . S
O1186 C1185 1.245 . S
O1187 Co1181 2.058 . S
O1187 C1213 1.269 . S
O1188 Co1180 2.074 . S
O1188 C1213 1.257 . S
H1189 C1214 0.930 . S
H1190 C1220 0.930 . S
O1191 Co1180 2.093 . S
O1191 C1183 1.224 . S
H1192 C1224 0.929 . S
H1193 C1226 0.930 . S
H1194 C1227 0.930 . S
H1195 C1225 0.929 . S
H1196 C1228 0.928 . S
O1197 Co1181 2.057 . S
O1197 C1185 1.232 . S
H1198 C1217 0.929 . S
H1199 C1218 0.929 . S
H1200 C1230 0.931 . S
H1201 C1222 0.929 . S
H1202 C1231 0.930 . S
H1203 C1223 0.931 . S
O1204 Co1180 2.097 . S
O1204 C1232 1.214 . S
H1205 C1233 0.929 . S
H1206 C1234 0.929 . S
H1207 C1235 0.930 . S
H1208 C1236 0.929 . S
H1209 C1238 0.930 . S
H1210 C1215 0.930 . S
H1211 C1219 0.930 . S
O1212 Co1181 2.037 . S
O1212 C1232 1.234 . S
C1213 O1187 1.269 . S
C1213 O1188 1.257 . S
C1214 H1189 0.930 . S
C1214 C1217 1.388 . S
C1214 C1219 1.418 . S
C1215 H1210 0.930 . S
C1215 C1218 1.404 . S
C1215 C1219 1.353 . S
N1216 Co1181 2.145 . S
N1216 C1217 1.397 . S
N1216 C1218 1.334 . S
C1217 H1198 0.929 . S
C1217 C1214 1.388 . S
C1217 N1216 1.397 . S
C1218 H1199 0.929 . S
C1218 C1215 1.404 . S
C1218 N1216 1.334 . S
C1219 H1211 0.930 . S
C1219 C1214 1.418 . S
C1219 C1215 1.353 . S
C1220 H1190 0.930 . S
C1220 N1221 1.330 . S
C1220 C1222 1.446 . S
N1221 Co1180 2.151 . S
N1221 C1220 1.330 . S
N1221 C1225 1.418 . S
C1222 H1201 0.929 . S
C1222 C1220 1.446 . S
C1222 C1223 1.332 . S
C1223 H1203 0.931 . S
C1223 C1222 1.332 . S
C1223 C1224 1.267 . S
C1224 H1192 0.929 . S
C1224 C1223 1.267 . S
C1224 C1225 1.251 . S
C1225 H1195 0.929 . S
C1225 N1221 1.418 . S
C1225 C1224 1.251 . S
C1226 H1193 0.930 . S
C1226 C1228 1.406 . S
C1226 C1231 1.261 . S
C1227 H1194 0.930 . S
C1227 N1229 1.325 . S
C1227 C1230 1.357 . S
C1228 H1196 0.928 . S
C1228 C1226 1.406 . S
C1228 N1229 1.261 . S
N1229 Co1180 2.214 . S
N1229 C1227 1.325 . S
N1229 C1228 1.261 . S
C1230 H1200 0.931 . S
C1230 C1227 1.357 . S
C1230 C1231 1.312 . S
C1231 H1202 0.930 . S
C1231 C1226 1.261 . S
C1231 C1230 1.312 . S
C1232 O1204 1.214 . S
C1232 O1212 1.234 . S
C1233 H1205 0.929 . S
C1233 C1236 1.391 . S
C1233 C1238 1.391 . S
C1234 H1206 0.929 . S
C1234 C1235 1.390 . S
C1234 N1237 1.391 . S
C1235 H1207 0.930 . S
C1235 C1234 1.390 . S
C1235 C1236 1.392 . S
C1236 H1208 0.929 . S
C1236 C1233 1.391 . S
C1236 C1235 1.392 . S
N1237 Co1181 2.257 . S
N1237 C1234 1.391 . S
N1237 C1238 1.388 . S
C1238 H1209 0.930 . S
C1238 C1233 1.391 . S
C1238 N1237 1.388 . S
Co1239 O1241 2.143 . S
Co1239 O1247 2.074 . S
Co1239 O1250 2.093 . S
Co1239 O1263 2.097 . S
Co1239 N1280 2.151 . S
Co1239 N1288 2.214 . S
Co1240 O1241 2.160 . S
Co1240 O1246 2.058 . S
Co1240 O1256 2.057 . S
Co1240 O1271 2.037 . S
Co1240 N1275 2.145 . S
Co1240 N1296 2.257 . S
O1241 Co1239 2.143 . S
O1241 Co1240 2.160 . S
C1242 O1243 1.278 . S
C1242 O1250 1.224 . S
O1243 C1242 1.278 . S
C1244 O1245 1.245 . S
C1244 O1256 1.232 . S
O1245 C1244 1.245 . S
O1246 Co1240 2.058 . S
O1246 C1272 1.269 . S
O1247 Co1239 2.074 . S
O1247 C1272 1.257 . S
H1248 C1273 0.930 . S
H1249 C1279 0.930 . S
O1250 Co1239 2.093 . S
O1250 C1242 1.224 . S
H1251 C1283 0.929 . S
H1252 C1285 0.930 . S
H1253 C1286 0.930 . S
H1254 C1284 0.929 . S
H1255 C1287 0.928 . S
O1256 Co1240 2.057 . S
O1256 C1244 1.232 . S
H1257 C1276 0.929 . S
H1258 C1277 0.929 . S
H1259 C1289 0.931 . S
H1260 C1281 0.929 . S
H1261 C1290 0.930 . S
H1262 C1282 0.931 . S
O1263 Co1239 2.097 . S
O1263 C1291 1.214 . S
H1264 C1292 0.929 . S
H1265 C1293 0.929 . S
H1266 C1294 0.930 . S
H1267 C1295 0.929 . S
H1268 C1297 0.930 . S
H1269 C1274 0.930 . S
H1270 C1278 0.930 . S
O1271 Co1240 2.037 . S
O1271 C1291 1.234 . S
C1272 O1246 1.269 . S
C1272 O1247 1.257 . S
C1273 H1248 0.930 . S
C1273 C1276 1.388 . S
C1273 C1278 1.418 . S
C1274 H1269 0.930 . S
C1274 C1277 1.404 . S
C1274 C1278 1.353 . S
N1275 Co1240 2.145 . S
N1275 C1276 1.397 . S
N1275 C1277 1.334 . S
C1276 H1257 0.929 . S
C1276 C1273 1.388 . S
C1276 N1275 1.397 . S
C1277 H1258 0.929 . S
C1277 C1274 1.404 . S
C1277 N1275 1.334 . S
C1278 H1270 0.930 . S
C1278 C1273 1.418 . S
C1278 C1274 1.353 . S
C1279 H1249 0.930 . S
C1279 N1280 1.330 . S
C1279 C1281 1.446 . S
N1280 Co1239 2.151 . S
N1280 C1279 1.330 . S
N1280 C1284 1.418 . S
C1281 H1260 0.929 . S
C1281 C1279 1.446 . S
C1281 C1282 1.332 . S
C1282 H1262 0.931 . S
C1282 C1281 1.332 . S
C1282 C1283 1.267 . S
C1283 H1251 0.929 . S
C1283 C1282 1.267 . S
C1283 C1284 1.251 . S
C1284 H1254 0.929 . S
C1284 N1280 1.418 . S
C1284 C1283 1.251 . S
C1285 H1252 0.930 . S
C1285 C1287 1.406 . S
C1285 C1290 1.261 . S
C1286 H1253 0.930 . S
C1286 N1288 1.325 . S
C1286 C1289 1.357 . S
C1287 H1255 0.928 . S
C1287 C1285 1.406 . S
C1287 N1288 1.261 . S
N1288 Co1239 2.214 . S
N1288 C1286 1.325 . S
N1288 C1287 1.261 . S
C1289 H1259 0.931 . S
C1289 C1286 1.357 . S
C1289 C1290 1.312 . S
C1290 H1261 0.930 . S
C1290 C1285 1.261 . S
C1290 C1289 1.312 . S
C1291 O1263 1.214 . S
C1291 O1271 1.234 . S
C1292 H1264 0.929 . S
C1292 C1295 1.391 . S
C1292 C1297 1.391 . S
C1293 H1265 0.929 . S
C1293 C1294 1.390 . S
C1293 N1296 1.391 . S
C1294 H1266 0.930 . S
C1294 C1293 1.390 . S
C1294 C1295 1.392 . S
C1295 H1267 0.929 . S
C1295 C1292 1.391 . S
C1295 C1294 1.392 . S
N1296 Co1240 2.257 . S
N1296 C1293 1.391 . S
N1296 C1297 1.388 . S
C1297 H1268 0.930 . S
C1297 C1292 1.391 . S
C1297 N1296 1.388 . S
Co1298 O1300 2.143 . S
Co1298 O1306 2.074 . S
Co1298 O1309 2.093 . S
Co1298 O1322 2.097 . S
Co1298 N1339 2.151 . S
Co1298 N1347 2.214 . S
Co1299 O1300 2.160 . S
Co1299 O1305 2.058 . S
Co1299 O1315 2.057 . S
Co1299 O1330 2.037 . S
Co1299 N1334 2.145 . S
Co1299 N1355 2.257 . S
O1300 Co1298 2.143 . S
O1300 Co1299 2.160 . S
C1301 O1302 1.278 . S
C1301 O1309 1.224 . S
O1302 C1301 1.278 . S
C1303 O1304 1.245 . S
C1303 O1315 1.232 . S
O1304 C1303 1.245 . S
O1305 Co1299 2.058 . S
O1305 C1331 1.269 . S
O1306 Co1298 2.074 . S
O1306 C1331 1.257 . S
H1307 C1332 0.930 . S
H1308 C1338 0.930 . S
O1309 Co1298 2.093 . S
O1309 C1301 1.224 . S
H1310 C1342 0.929 . S
H1311 C1344 0.930 . S
H1312 C1345 0.930 . S
H1313 C1343 0.929 . S
H1314 C1346 0.928 . S
O1315 Co1299 2.057 . S
O1315 C1303 1.232 . S
H1316 C1335 0.929 . S
H1317 C1336 0.929 . S
H1318 C1348 0.931 . S
H1319 C1340 0.929 . S
H1320 C1349 0.930 . S
H1321 C1341 0.931 . S
O1322 Co1298 2.097 . S
O1322 C1350 1.214 . S
H1323 C1351 0.929 . S
H1324 C1352 0.929 . S
H1325 C1353 0.930 . S
H1326 C1354 0.929 . S
H1327 C1356 0.930 . S
H1328 C1333 0.930 . S
H1329 C1337 0.930 . S
O1330 Co1299 2.037 . S
O1330 C1350 1.234 . S
C1331 O1305 1.269 . S
C1331 O1306 1.257 . S
C1332 H1307 0.930 . S
C1332 C1335 1.388 . S
C1332 C1337 1.418 . S
C1333 H1328 0.930 . S
C1333 C1336 1.404 . S
C1333 C1337 1.353 . S
N1334 Co1299 2.145 . S
N1334 C1335 1.397 . S
N1334 C1336 1.334 . S
C1335 H1316 0.929 . S
C1335 C1332 1.388 . S
C1335 N1334 1.397 . S
C1336 H1317 0.929 . S
C1336 C1333 1.404 . S
C1336 N1334 1.334 . S
C1337 H1329 0.930 . S
C1337 C1332 1.418 . S
C1337 C1333 1.353 . S
C1338 H1308 0.930 . S
C1338 N1339 1.330 . S
C1338 C1340 1.446 . S
N1339 Co1298 2.151 . S
N1339 C1338 1.330 . S
N1339 C1343 1.418 . S
C1340 H1319 0.929 . S
C1340 C1338 1.446 . S
C1340 C1341 1.332 . S
C1341 H1321 0.931 . S
C1341 C1340 1.332 . S
C1341 C1342 1.267 . S
C1342 H1310 0.929 . S
C1342 C1341 1.267 . S
C1342 C1343 1.251 . S
C1343 H1313 0.929 . S
C1343 N1339 1.418 . S
C1343 C1342 1.251 . S
C1344 H1311 0.930 . S
C1344 C1346 1.406 . S
C1344 C1349 1.261 . S
C1345 H1312 0.930 . S
C1345 N1347 1.325 . S
C1345 C1348 1.357 . S
C1346 H1314 0.928 . S
C1346 C1344 1.406 . S
C1346 N1347 1.261 . S
N1347 Co1298 2.214 . S
N1347 C1345 1.325 . S
N1347 C1346 1.261 . S
C1348 H1318 0.931 . S
C1348 C1345 1.357 . S
C1348 C1349 1.312 . S
C1349 H1320 0.930 . S
C1349 C1344 1.261 . S
C1349 C1348 1.312 . S
C1350 O1322 1.214 . S
C1350 O1330 1.234 . S
C1351 H1323 0.929 . S
C1351 C1354 1.391 . S
C1351 C1356 1.391 . S
C1352 H1324 0.929 . S
C1352 C1353 1.390 . S
C1352 N1355 1.391 . S
C1353 H1325 0.930 . S
C1353 C1352 1.390 . S
C1353 C1354 1.392 . S
C1354 H1326 0.929 . S
C1354 C1351 1.391 . S
C1354 C1353 1.392 . S
N1355 Co1299 2.257 . S
N1355 C1352 1.391 . S
N1355 C1356 1.388 . S
C1356 H1327 0.930 . S
C1356 C1351 1.391 . S
C1356 N1355 1.388 . S
Co1357 O1359 2.143 . S
Co1357 O1365 2.074 . S
Co1357 O1368 2.093 . S
Co1357 O1381 2.097 . S
Co1357 N1398 2.151 . S
Co1357 N1406 2.214 . S
Co1358 O1359 2.160 . S
Co1358 O1364 2.058 . S
Co1358 O1374 2.057 . S
Co1358 O1389 2.037 . S
Co1358 N1393 2.145 . S
Co1358 N1414 2.257 . S
O1359 Co1357 2.143 . S
O1359 Co1358 2.160 . S
C1360 O1361 1.278 . S
C1360 O1368 1.224 . S
O1361 C1360 1.278 . S
C1362 O1363 1.245 . S
C1362 O1374 1.232 . S
O1363 C1362 1.245 . S
O1364 Co1358 2.058 . S
O1364 C1390 1.269 . S
O1365 Co1357 2.074 . S
O1365 C1390 1.257 . S
H1366 C1391 0.930 . S
H1367 C1397 0.930 . S
O1368 Co1357 2.093 . S
O1368 C1360 1.224 . S
H1369 C1401 0.929 . S
H1370 C1403 0.930 . S
H1371 C1404 0.930 . S
H1372 C1402 0.929 . S
H1373 C1405 0.928 . S
O1374 Co1358 2.057 . S
O1374 C1362 1.232 . S
H1375 C1394 0.929 . S
H1376 C1395 0.929 . S
H1377 C1407 0.931 . S
H1378 C1399 0.929 . S
H1379 C1408 0.930 . S
H1380 C1400 0.931 . S
O1381 Co1357 2.097 . S
O1381 C1409 1.214 . S
H1382 C1410 0.929 . S
H1383 C1411 0.929 . S
H1384 C1412 0.930 . S
H1385 C1413 0.929 . S
H1386 C1415 0.930 . S
H1387 C1392 0.930 . S
H1388 C1396 0.930 . S
O1389 Co1358 2.037 . S
O1389 C1409 1.234 . S
C1390 O1364 1.269 . S
C1390 O1365 1.257 . S
C1391 H1366 0.930 . S
C1391 C1394 1.388 . S
C1391 C1396 1.418 . S
C1392 H1387 0.930 . S
C1392 C1395 1.404 . S
C1392 C1396 1.353 . S
N1393 Co1358 2.145 . S
N1393 C1394 1.397 . S
N1393 C1395 1.334 . S
C1394 H1375 0.929 . S
C1394 C1391 1.388 . S
C1394 N1393 1.397 . S
C1395 H1376 0.929 . S
C1395 C1392 1.404 . S
C1395 N1393 1.334 . S
C1396 H1388 0.930 . S
C1396 C1391 1.418 . S
C1396 C1392 1.353 . S
C1397 H1367 0.930 . S
C1397 N1398 1.330 . S
C1397 C1399 1.446 . S
N1398 Co1357 2.151 . S
N1398 C1397 1.330 . S
N1398 C1402 1.418 . S
C1399 H1378 0.929 . S
C1399 C1397 1.446 . S
C1399 C1400 1.332 . S
C1400 H1380 0.931 . S
C1400 C1399 1.332 . S
C1400 C1401 1.267 . S
C1401 H1369 0.929 . S
C1401 C1400 1.267 . S
C1401 C1402 1.251 . S
C1402 H1372 0.929 . S
C1402 N1398 1.418 . S
C1402 C1401 1.251 . S
C1403 H1370 0.930 . S
C1403 C1405 1.406 . S
C1403 C1408 1.261 . S
C1404 H1371 0.930 . S
C1404 N1406 1.325 . S
C1404 C1407 1.357 . S
C1405 H1373 0.928 . S
C1405 C1403 1.406 . S
C1405 N1406 1.261 . S
N1406 Co1357 2.214 . S
N1406 C1404 1.325 . S
N1406 C1405 1.261 . S
C1407 H1377 0.931 . S
C1407 C1404 1.357 . S
C1407 C1408 1.312 . S
C1408 H1379 0.930 . S
C1408 C1403 1.261 . S
C1408 C1407 1.312 . S
C1409 O1381 1.214 . S
C1409 O1389 1.234 . S
C1410 H1382 0.929 . S
C1410 C1413 1.391 . S
C1410 C1415 1.391 . S
C1411 H1383 0.929 . S
C1411 C1412 1.390 . S
C1411 N1414 1.391 . S
C1412 H1384 0.930 . S
C1412 C1411 1.390 . S
C1412 C1413 1.392 . S
C1413 H1385 0.929 . S
C1413 C1410 1.391 . S
C1413 C1412 1.392 . S
N1414 Co1358 2.257 . S
N1414 C1411 1.391 . S
N1414 C1415 1.388 . S
C1415 H1386 0.930 . S
C1415 C1410 1.391 . S
C1415 N1414 1.388 . S
Co1416 O1418 2.143 . S
Co1416 O1424 2.074 . S
Co1416 O1427 2.093 . S
Co1416 O1440 2.097 . S
Co1416 N1457 2.151 . S
Co1416 N1465 2.214 . S
Co1417 O1418 2.160 . S
Co1417 O1423 2.058 . S
Co1417 O1433 2.057 . S
Co1417 O1448 2.037 . S
Co1417 N1452 2.145 . S
Co1417 N1473 2.257 . S
O1418 Co1416 2.143 . S
O1418 Co1417 2.160 . S
C1419 O1420 1.278 . S
C1419 O1427 1.224 . S
O1420 C1419 1.278 . S
C1421 O1422 1.245 . S
C1421 O1433 1.232 . S
O1422 C1421 1.245 . S
O1423 Co1417 2.058 . S
O1423 C1449 1.269 . S
O1424 Co1416 2.074 . S
O1424 C1449 1.257 . S
H1425 C1450 0.930 . S
H1426 C1456 0.930 . S
O1427 Co1416 2.093 . S
O1427 C1419 1.224 . S
H1428 C1460 0.929 . S
H1429 C1462 0.930 . S
H1430 C1463 0.930 . S
H1431 C1461 0.929 . S
H1432 C1464 0.928 . S
O1433 Co1417 2.057 . S
O1433 C1421 1.232 . S
H1434 C1453 0.929 . S
H1435 C1454 0.929 . S
H1436 C1466 0.931 . S
H1437 C1458 0.929 . S
H1438 C1467 0.930 . S
H1439 C1459 0.931 . S
O1440 Co1416 2.097 . S
O1440 C1468 1.214 . S
H1441 C1469 0.929 . S
H1442 C1470 0.929 . S
H1443 C1471 0.930 . S
H1444 C1472 0.929 . S
H1445 C1474 0.930 . S
H1446 C1451 0.930 . S
H1447 C1455 0.930 . S
O1448 Co1417 2.037 . S
O1448 C1468 1.234 . S
C1449 O1423 1.269 . S
C1449 O1424 1.257 . S
C1450 H1425 0.930 . S
C1450 C1453 1.388 . S
C1450 C1455 1.418 . S
C1451 H1446 0.930 . S
C1451 C1454 1.404 . S
C1451 C1455 1.353 . S
N1452 Co1417 2.145 . S
N1452 C1453 1.397 . S
N1452 C1454 1.334 . S
C1453 H1434 0.929 . S
C1453 C1450 1.388 . S
C1453 N1452 1.397 . S
C1454 H1435 0.929 . S
C1454 C1451 1.404 . S
C1454 N1452 1.334 . S
C1455 H1447 0.930 . S
C1455 C1450 1.418 . S
C1455 C1451 1.353 . S
C1456 H1426 0.930 . S
C1456 N1457 1.330 . S
C1456 C1458 1.446 . S
N1457 Co1416 2.151 . S
N1457 C1456 1.330 . S
N1457 C1461 1.418 . S
C1458 H1437 0.929 . S
C1458 C1456 1.446 . S
C1458 C1459 1.332 . S
C1459 H1439 0.931 . S
C1459 C1458 1.332 . S
C1459 C1460 1.267 . S
C1460 H1428 0.929 . S
C1460 C1459 1.267 . S
C1460 C1461 1.251 . S
C1461 H1431 0.929 . S
C1461 N1457 1.418 . S
C1461 C1460 1.251 . S
C1462 H1429 0.930 . S
C1462 C1464 1.406 . S
C1462 C1467 1.261 . S
C1463 H1430 0.930 . S
C1463 N1465 1.325 . S
C1463 C1466 1.357 . S
C1464 H1432 0.928 . S
C1464 C1462 1.406 . S
C1464 N1465 1.261 . S
N1465 Co1416 2.214 . S
N1465 C1463 1.325 . S
N1465 C1464 1.261 . S
C1466 H1436 0.931 . S
C1466 C1463 1.357 . S
C1466 C1467 1.312 . S
C1467 H1438 0.930 . S
C1467 C1462 1.261 . S
C1467 C1466 1.312 . S
C1468 O1440 1.214 . S
C1468 O1448 1.234 . S
C1469 H1441 0.929 . S
C1469 C1472 1.391 . S
C1469 C1474 1.391 . S
C1470 H1442 0.929 . S
C1470 C1471 1.390 . S
C1470 N1473 1.391 . S
C1471 H1443 0.930 . S
C1471 C1470 1.390 . S
C1471 C1472 1.392 . S
C1472 H1444 0.929 . S
C1472 C1469 1.391 . S
C1472 C1471 1.392 . S
N1473 Co1417 2.257 . S
N1473 C1470 1.391 . S
N1473 C1474 1.388 . S
C1474 H1445 0.930 . S
C1474 C1469 1.391 . S
C1474 N1473 1.388 . S
Co1475 O1477 2.143 . S
Co1475 O1483 2.074 . S
Co1475 O1486 2.093 . S
Co1475 O1499 2.097 . S
Co1475 N1516 2.151 . S
Co1475 N1524 2.214 . S
Co1476 O1477 2.160 . S
Co1476 O1482 2.058 . S
Co1476 O1492 2.057 . S
Co1476 O1507 2.037 . S
Co1476 N1511 2.145 . S
Co1476 N1532 2.257 . S
O1477 Co1475 2.143 . S
O1477 Co1476 2.160 . S
C1478 O1479 1.278 . S
C1478 O1486 1.224 . S
O1479 C1478 1.278 . S
C1480 O1481 1.245 . S
C1480 O1492 1.232 . S
O1481 C1480 1.245 . S
O1482 Co1476 2.058 . S
O1482 C1508 1.269 . S
O1483 Co1475 2.074 . S
O1483 C1508 1.257 . S
H1484 C1509 0.930 . S
H1485 C1515 0.930 . S
O1486 Co1475 2.093 . S
O1486 C1478 1.224 . S
H1487 C1519 0.929 . S
H1488 C1521 0.930 . S
H1489 C1522 0.930 . S
H1490 C1520 0.929 . S
H1491 C1523 0.928 . S
O1492 Co1476 2.057 . S
O1492 C1480 1.232 . S
H1493 C1512 0.929 . S
H1494 C1513 0.929 . S
H1495 C1525 0.931 . S
H1496 C1517 0.929 . S
H1497 C1526 0.930 . S
H1498 C1518 0.931 . S
O1499 Co1475 2.097 . S
O1499 C1527 1.214 . S
H1500 C1528 0.929 . S
H1501 C1529 0.929 . S
H1502 C1530 0.930 . S
H1503 C1531 0.929 . S
H1504 C1533 0.930 . S
H1505 C1510 0.930 . S
H1506 C1514 0.930 . S
O1507 Co1476 2.037 . S
O1507 C1527 1.234 . S
C1508 O1482 1.269 . S
C1508 O1483 1.257 . S
C1509 H1484 0.930 . S
C1509 C1512 1.388 . S
C1509 C1514 1.418 . S
C1510 H1505 0.930 . S
C1510 C1513 1.404 . S
C1510 C1514 1.353 . S
N1511 Co1476 2.145 . S
N1511 C1512 1.397 . S
N1511 C1513 1.334 . S
C1512 H1493 0.929 . S
C1512 C1509 1.388 . S
C1512 N1511 1.397 . S
C1513 H1494 0.929 . S
C1513 C1510 1.404 . S
C1513 N1511 1.334 . S
C1514 H1506 0.930 . S
C1514 C1509 1.418 . S
C1514 C1510 1.353 . S
C1515 H1485 0.930 . S
C1515 N1516 1.330 . S
C1515 C1517 1.446 . S
N1516 Co1475 2.151 . S
N1516 C1515 1.330 . S
N1516 C1520 1.418 . S
C1517 H1496 0.929 . S
C1517 C1515 1.446 . S
C1517 C1518 1.332 . S
C1518 H1498 0.931 . S
C1518 C1517 1.332 . S
C1518 C1519 1.267 . S
C1519 H1487 0.929 . S
C1519 C1518 1.267 . S
C1519 C1520 1.251 . S
C1520 H1490 0.929 . S
C1520 N1516 1.418 . S
C1520 C1519 1.251 . S
C1521 H1488 0.930 . S
C1521 C1523 1.406 . S
C1521 C1526 1.261 . S
C1522 H1489 0.930 . S
C1522 N1524 1.325 . S
C1522 C1525 1.357 . S
C1523 H1491 0.928 . S
C1523 C1521 1.406 . S
C1523 N1524 1.261 . S
N1524 Co1475 2.214 . S
N1524 C1522 1.325 . S
N1524 C1523 1.261 . S
C1525 H1495 0.931 . S
C1525 C1522 1.357 . S
C1525 C1526 1.312 . S
C1526 H1497 0.930 . S
C1526 C1521 1.261 . S
C1526 C1525 1.312 . S
C1527 O1499 1.214 . S
C1527 O1507 1.234 . S
C1528 H1500 0.929 . S
C1528 C1531 1.391 . S
C1528 C1533 1.391 . S
C1529 H1501 0.929 . S
C1529 C1530 1.390 . S
C1529 N1532 1.391 . S
C1530 H1502 0.930 . S
C1530 C1529 1.390 . S
C1530 C1531 1.392 . S
C1531 H1503 0.929 . S
C1531 C1528 1.391 . S
C1531 C1530 1.392 . S
N1532 Co1476 2.257 . S
N1532 C1529 1.391 . S
N1532 C1533 1.388 . S
C1533 H1504 0.930 . S
C1533 C1528 1.391 . S
C1533 N1532 1.388 . S
Co1534 O1536 2.143 . S
Co1534 O1542 2.074 . S
Co1534 O1545 2.093 . S
Co1534 O1558 2.097 . S
Co1534 N1575 2.151 . S
Co1534 N1583 2.214 . S
Co1535 O1536 2.160 . S
Co1535 O1541 2.058 . S
Co1535 O1551 2.057 . S
Co1535 O1566 2.037 . S
Co1535 N1570 2.145 . S
Co1535 N1591 2.257 . S
O1536 Co1534 2.143 . S
O1536 Co1535 2.160 . S
C1537 O1538 1.278 . S
C1537 O1545 1.224 . S
O1538 C1537 1.278 . S
C1539 O1540 1.245 . S
C1539 O1551 1.232 . S
O1540 C1539 1.245 . S
O1541 Co1535 2.058 . S
O1541 C1567 1.269 . S
O1542 Co1534 2.074 . S
O1542 C1567 1.257 . S
H1543 C1568 0.930 . S
H1544 C1574 0.930 . S
O1545 Co1534 2.093 . S
O1545 C1537 1.224 . S
H1546 C1578 0.929 . S
H1547 C1580 0.930 . S
H1548 C1581 0.930 . S
H1549 C1579 0.929 . S
H1550 C1582 0.928 . S
O1551 Co1535 2.057 . S
O1551 C1539 1.232 . S
H1552 C1571 0.929 . S
H1553 C1572 0.929 . S
H1554 C1584 0.931 . S
H1555 C1576 0.929 . S
H1556 C1585 0.930 . S
H1557 C1577 0.931 . S
O1558 Co1534 2.097 . S
O1558 C1586 1.214 . S
H1559 C1587 0.929 . S
H1560 C1588 0.929 . S
H1561 C1589 0.930 . S
H1562 C1590 0.929 . S
H1563 C1592 0.930 . S
H1564 C1569 0.930 . S
H1565 C1573 0.930 . S
O1566 Co1535 2.037 . S
O1566 C1586 1.234 . S
C1567 O1541 1.269 . S
C1567 O1542 1.257 . S
C1568 H1543 0.930 . S
C1568 C1571 1.388 . S
C1568 C1573 1.418 . S
C1569 H1564 0.930 . S
C1569 C1572 1.404 . S
C1569 C1573 1.353 . S
N1570 Co1535 2.145 . S
N1570 C1571 1.397 . S
N1570 C1572 1.334 . S
C1571 H1552 0.929 . S
C1571 C1568 1.388 . S
C1571 N1570 1.397 . S
C1572 H1553 0.929 . S
C1572 C1569 1.404 . S
C1572 N1570 1.334 . S
C1573 H1565 0.930 . S
C1573 C1568 1.418 . S
C1573 C1569 1.353 . S
C1574 H1544 0.930 . S
C1574 N1575 1.330 . S
C1574 C1576 1.446 . S
N1575 Co1534 2.151 . S
N1575 C1574 1.330 . S
N1575 C1579 1.418 . S
C1576 H1555 0.929 . S
C1576 C1574 1.446 . S
C1576 C1577 1.332 . S
C1577 H1557 0.931 . S
C1577 C1576 1.332 . S
C1577 C1578 1.267 . S
C1578 H1546 0.929 . S
C1578 C1577 1.267 . S
C1578 C1579 1.251 . S
C1579 H1549 0.929 . S
C1579 N1575 1.418 . S
C1579 C1578 1.251 . S
C1580 H1547 0.930 . S
C1580 C1582 1.406 . S
C1580 C1585 1.261 . S
C1581 H1548 0.930 . S
C1581 N1583 1.325 . S
C1581 C1584 1.357 . S
C1582 H1550 0.928 . S
C1582 C1580 1.406 . S
C1582 N1583 1.261 . S
N1583 Co1534 2.214 . S
N1583 C1581 1.325 . S
N1583 C1582 1.261 . S
C1584 H1554 0.931 . S
C1584 C1581 1.357 . S
C1584 C1585 1.312 . S
C1585 H1556 0.930 . S
C1585 C1580 1.261 . S
C1585 C1584 1.312 . S
C1586 O1558 1.214 . S
C1586 O1566 1.234 . S
C1587 H1559 0.929 . S
C1587 C1590 1.391 . S
C1587 C1592 1.391 . S
C1588 H1560 0.929 . S
C1588 C1589 1.390 . S
C1588 N1591 1.391 . S
C1589 H1561 0.930 . S
C1589 C1588 1.390 . S
C1589 C1590 1.392 . S
C1590 H1562 0.929 . S
C1590 C1587 1.391 . S
C1590 C1589 1.392 . S
N1591 Co1535 2.257 . S
N1591 C1588 1.391 . S
N1591 C1592 1.388 . S
C1592 H1563 0.930 . S
C1592 C1587 1.391 . S
C1592 N1591 1.388 . S
Co1593 O1595 2.143 . S
Co1593 O1601 2.074 . S
Co1593 O1604 2.093 . S
Co1593 O1617 2.097 . S
Co1593 N1634 2.151 . S
Co1593 N1642 2.214 . S
Co1594 O1595 2.160 . S
Co1594 O1600 2.058 . S
Co1594 O1610 2.057 . S
Co1594 O1625 2.037 . S
Co1594 N1629 2.145 . S
Co1594 N1650 2.257 . S
O1595 Co1593 2.143 . S
O1595 Co1594 2.160 . S
C1596 O1597 1.278 . S
C1596 O1604 1.224 . S
O1597 C1596 1.278 . S
C1598 O1599 1.245 . S
C1598 O1610 1.232 . S
O1599 C1598 1.245 . S
O1600 Co1594 2.058 . S
O1600 C1626 1.269 . S
O1601 Co1593 2.074 . S
O1601 C1626 1.257 . S
H1602 C1627 0.930 . S
H1603 C1633 0.930 . S
O1604 Co1593 2.093 . S
O1604 C1596 1.224 . S
H1605 C1637 0.929 . S
H1606 C1639 0.930 . S
H1607 C1640 0.930 . S
H1608 C1638 0.929 . S
H1609 C1641 0.928 . S
O1610 Co1594 2.057 . S
O1610 C1598 1.232 . S
H1611 C1630 0.929 . S
H1612 C1631 0.929 . S
H1613 C1643 0.931 . S
H1614 C1635 0.929 . S
H1615 C1644 0.930 . S
H1616 C1636 0.931 . S
O1617 Co1593 2.097 . S
O1617 C1645 1.214 . S
H1618 C1646 0.929 . S
H1619 C1647 0.929 . S
H1620 C1648 0.930 . S
H1621 C1649 0.929 . S
H1622 C1651 0.930 . S
H1623 C1628 0.930 . S
H1624 C1632 0.930 . S
O1625 Co1594 2.037 . S
O1625 C1645 1.234 . S
C1626 O1600 1.269 . S
C1626 O1601 1.257 . S
C1627 H1602 0.930 . S
C1627 C1630 1.388 . S
C1627 C1632 1.418 . S
C1628 H1623 0.930 . S
C1628 C1631 1.404 . S
C1628 C1632 1.353 . S
N1629 Co1594 2.145 . S
N1629 C1630 1.397 . S
N1629 C1631 1.334 . S
C1630 H1611 0.929 . S
C1630 C1627 1.388 . S
C1630 N1629 1.397 . S
C1631 H1612 0.929 . S
C1631 C1628 1.404 . S
C1631 N1629 1.334 . S
C1632 H1624 0.930 . S
C1632 C1627 1.418 . S
C1632 C1628 1.353 . S
C1633 H1603 0.930 . S
C1633 N1634 1.330 . S
C1633 C1635 1.446 . S
N1634 Co1593 2.151 . S
N1634 C1633 1.330 . S
N1634 C1638 1.418 . S
C1635 H1614 0.929 . S
C1635 C1633 1.446 . S
C1635 C1636 1.332 . S
C1636 H1616 0.931 . S
C1636 C1635 1.332 . S
C1636 C1637 1.267 . S
C1637 H1605 0.929 . S
C1637 C1636 1.267 . S
C1637 C1638 1.251 . S
C1638 H1608 0.929 . S
C1638 N1634 1.418 . S
C1638 C1637 1.251 . S
C1639 H1606 0.930 . S
C1639 C1641 1.406 . S
C1639 C1644 1.261 . S
C1640 H1607 0.930 . S
C1640 N1642 1.325 . S
C1640 C1643 1.357 . S
C1641 H1609 0.928 . S
C1641 C1639 1.406 . S
C1641 N1642 1.261 . S
N1642 Co1593 2.214 . S
N1642 C1640 1.325 . S
N1642 C1641 1.261 . S
C1643 H1613 0.931 . S
C1643 C1640 1.357 . S
C1643 C1644 1.312 . S
C1644 H1615 0.930 . S
C1644 C1639 1.261 . S
C1644 C1643 1.312 . S
C1645 O1617 1.214 . S
C1645 O1625 1.234 . S
C1646 H1618 0.929 . S
C1646 C1649 1.391 . S
C1646 C1651 1.391 . S
C1647 H1619 0.929 . S
C1647 C1648 1.390 . S
C1647 N1650 1.391 . S
C1648 H1620 0.930 . S
C1648 C1647 1.390 . S
C1648 C1649 1.392 . S
C1649 H1621 0.929 . S
C1649 C1646 1.391 . S
C1649 C1648 1.392 . S
N1650 Co1594 2.257 . S
N1650 C1647 1.391 . S
N1650 C1651 1.388 . S
C1651 H1622 0.930 . S
C1651 C1646 1.391 . S
C1651 N1650 1.388 . S
Co1652 O1654 2.143 . S
Co1652 O1660 2.074 . S
Co1652 O1663 2.093 . S
Co1652 O1676 2.097 . S
Co1652 N1693 2.151 . S
Co1652 N1701 2.214 . S
Co1653 O1654 2.160 . S
Co1653 O1659 2.058 . S
Co1653 O1669 2.057 . S
Co1653 O1684 2.037 . S
Co1653 N1688 2.145 . S
Co1653 N1709 2.257 . S
O1654 Co1652 2.143 . S
O1654 Co1653 2.160 . S
C1655 O1656 1.278 . S
C1655 O1663 1.224 . S
O1656 C1655 1.278 . S
C1657 O1658 1.245 . S
C1657 O1669 1.232 . S
O1658 C1657 1.245 . S
O1659 Co1653 2.058 . S
O1659 C1685 1.269 . S
O1660 Co1652 2.074 . S
O1660 C1685 1.257 . S
H1661 C1686 0.930 . S
H1662 C1692 0.930 . S
O1663 Co1652 2.093 . S
O1663 C1655 1.224 . S
H1664 C1696 0.929 . S
H1665 C1698 0.930 . S
H1666 C1699 0.930 . S
H1667 C1697 0.929 . S
H1668 C1700 0.928 . S
O1669 Co1653 2.057 . S
O1669 C1657 1.232 . S
H1670 C1689 0.929 . S
H1671 C1690 0.929 . S
H1672 C1702 0.931 . S
H1673 C1694 0.929 . S
H1674 C1703 0.930 . S
H1675 C1695 0.931 . S
O1676 Co1652 2.097 . S
O1676 C1704 1.214 . S
H1677 C1705 0.929 . S
H1678 C1706 0.929 . S
H1679 C1707 0.930 . S
H1680 C1708 0.929 . S
H1681 C1710 0.930 . S
H1682 C1687 0.930 . S
H1683 C1691 0.930 . S
O1684 Co1653 2.037 . S
O1684 C1704 1.234 . S
C1685 O1659 1.269 . S
C1685 O1660 1.257 . S
C1686 H1661 0.930 . S
C1686 C1689 1.388 . S
C1686 C1691 1.418 . S
C1687 H1682 0.930 . S
C1687 C1690 1.404 . S
C1687 C1691 1.353 . S
N1688 Co1653 2.145 . S
N1688 C1689 1.397 . S
N1688 C1690 1.334 . S
C1689 H1670 0.929 . S
C1689 C1686 1.388 . S
C1689 N1688 1.397 . S
C1690 H1671 0.929 . S
C1690 C1687 1.404 . S
C1690 N1688 1.334 . S
C1691 H1683 0.930 . S
C1691 C1686 1.418 . S
C1691 C1687 1.353 . S
C1692 H1662 0.930 . S
C1692 N1693 1.330 . S
C1692 C1694 1.446 . S
N1693 Co1652 2.151 . S
N1693 C1692 1.330 . S
N1693 C1697 1.418 . S
C1694 H1673 0.929 . S
C1694 C1692 1.446 . S
C1694 C1695 1.332 . S
C1695 H1675 0.931 . S
C1695 C1694 1.332 . S
C1695 C1696 1.267 . S
C1696 H1664 0.929 . S
C1696 C1695 1.267 . S
C1696 C1697 1.251 . S
C1697 H1667 0.929 . S
C1697 N1693 1.418 . S
C1697 C1696 1.251 . S
C1698 H1665 0.930 . S
C1698 C1700 1.406 . S
C1698 C1703 1.261 . S
C1699 H1666 0.930 . S
C1699 N1701 1.325 . S
C1699 C1702 1.357 . S
C1700 H1668 0.928 . S
C1700 C1698 1.406 . S
C1700 N1701 1.261 . S
N1701 Co1652 2.214 . S
N1701 C1699 1.325 . S
N1701 C1700 1.261 . S
C1702 H1672 0.931 . S
C1702 C1699 1.357 . S
C1702 C1703 1.312 . S
C1703 H1674 0.930 . S
C1703 C1698 1.261 . S
C1703 C1702 1.312 . S
C1704 O1676 1.214 . S
C1704 O1684 1.234 . S
C1705 H1677 0.929 . S
C1705 C1708 1.391 . S
C1705 C1710 1.391 . S
C1706 H1678 0.929 . S
C1706 C1707 1.390 . S
C1706 N1709 1.391 . S
C1707 H1679 0.930 . S
C1707 C1706 1.390 . S
C1707 C1708 1.392 . S
C1708 H1680 0.929 . S
C1708 C1705 1.391 . S
C1708 C1707 1.392 . S
N1709 Co1653 2.257 . S
N1709 C1706 1.391 . S
N1709 C1710 1.388 . S
C1710 H1681 0.930 . S
C1710 C1705 1.391 . S
C1710 N1709 1.388 . S
Co1711 O1713 2.143 . S
Co1711 O1719 2.074 . S
Co1711 O1722 2.093 . S
Co1711 O1735 2.097 . S
Co1711 N1752 2.151 . S
Co1711 N1760 2.214 . S
Co1712 O1713 2.160 . S
Co1712 O1718 2.058 . S
Co1712 O1728 2.057 . S
Co1712 O1743 2.037 . S
Co1712 N1747 2.145 . S
Co1712 N1768 2.257 . S
O1713 Co1711 2.143 . S
O1713 Co1712 2.160 . S
C1714 O1715 1.278 . S
C1714 O1722 1.224 . S
O1715 C1714 1.278 . S
C1716 O1717 1.245 . S
C1716 O1728 1.232 . S
O1717 C1716 1.245 . S
O1718 Co1712 2.058 . S
O1718 C1744 1.269 . S
O1719 Co1711 2.074 . S
O1719 C1744 1.257 . S
H1720 C1745 0.930 . S
H1721 C1751 0.930 . S
O1722 Co1711 2.093 . S
O1722 C1714 1.224 . S
H1723 C1755 0.929 . S
H1724 C1757 0.930 . S
H1725 C1758 0.930 . S
H1726 C1756 0.929 . S
H1727 C1759 0.928 . S
O1728 Co1712 2.057 . S
O1728 C1716 1.232 . S
H1729 C1748 0.929 . S
H1730 C1749 0.929 . S
H1731 C1761 0.931 . S
H1732 C1753 0.929 . S
H1733 C1762 0.930 . S
H1734 C1754 0.931 . S
O1735 Co1711 2.097 . S
O1735 C1763 1.214 . S
H1736 C1764 0.929 . S
H1737 C1765 0.929 . S
H1738 C1766 0.930 . S
H1739 C1767 0.929 . S
H1740 C1769 0.930 . S
H1741 C1746 0.930 . S
H1742 C1750 0.930 . S
O1743 Co1712 2.037 . S
O1743 C1763 1.234 . S
C1744 O1718 1.269 . S
C1744 O1719 1.257 . S
C1745 H1720 0.930 . S
C1745 C1748 1.388 . S
C1745 C1750 1.418 . S
C1746 H1741 0.930 . S
C1746 C1749 1.404 . S
C1746 C1750 1.353 . S
N1747 Co1712 2.145 . S
N1747 C1748 1.397 . S
N1747 C1749 1.334 . S
C1748 H1729 0.929 . S
C1748 C1745 1.388 . S
C1748 N1747 1.397 . S
C1749 H1730 0.929 . S
C1749 C1746 1.404 . S
C1749 N1747 1.334 . S
C1750 H1742 0.930 . S
C1750 C1745 1.418 . S
C1750 C1746 1.353 . S
C1751 H1721 0.930 . S
C1751 N1752 1.330 . S
C1751 C1753 1.446 . S
N1752 Co1711 2.151 . S
N1752 C1751 1.330 . S
N1752 C1756 1.418 . S
C1753 H1732 0.929 . S
C1753 C1751 1.446 . S
C1753 C1754 1.332 . S
C1754 H1734 0.931 . S
C1754 C1753 1.332 . S
C1754 C1755 1.267 . S
C1755 H1723 0.929 . S
C1755 C1754 1.267 . S
C1755 C1756 1.251 . S
C1756 H1726 0.929 . S
C1756 N1752 1.418 . S
C1756 C1755 1.251 . S
C1757 H1724 0.930 . S
C1757 C1759 1.406 . S
C1757 C1762 1.261 . S
C1758 H1725 0.930 . S
C1758 N1760 1.325 . S
C1758 C1761 1.357 . S
C1759 H1727 0.928 . S
C1759 C1757 1.406 . S
C1759 N1760 1.261 . S
N1760 Co1711 2.214 . S
N1760 C1758 1.325 . S
N1760 C1759 1.261 . S
C1761 H1731 0.931 . S
C1761 C1758 1.357 . S
C1761 C1762 1.312 . S
C1762 H1733 0.930 . S
C1762 C1757 1.261 . S
C1762 C1761 1.312 . S
C1763 O1735 1.214 . S
C1763 O1743 1.234 . S
C1764 H1736 0.929 . S
C1764 C1767 1.391 . S
C1764 C1769 1.391 . S
C1765 H1737 0.929 . S
C1765 C1766 1.390 . S
C1765 N1768 1.391 . S
C1766 H1738 0.930 . S
C1766 C1765 1.390 . S
C1766 C1767 1.392 . S
C1767 H1739 0.929 . S
C1767 C1764 1.391 . S
C1767 C1766 1.392 . S
N1768 Co1712 2.257 . S
N1768 C1765 1.391 . S
N1768 C1769 1.388 . S
C1769 H1740 0.930 . S
C1769 C1764 1.391 . S
C1769 N1768 1.388 . S
Co1770 O1772 2.143 . S
Co1770 O1778 2.074 . S
Co1770 O1781 2.093 . S
Co1770 O1794 2.097 . S
Co1770 N1811 2.151 . S
Co1770 N1819 2.214 . S
Co1771 O1772 2.160 . S
Co1771 O1777 2.058 . S
Co1771 O1787 2.057 . S
Co1771 O1802 2.037 . S
Co1771 N1806 2.145 . S
Co1771 N1827 2.257 . S
O1772 Co1770 2.143 . S
O1772 Co1771 2.160 . S
C1773 O1774 1.278 . S
C1773 O1781 1.224 . S
O1774 C1773 1.278 . S
C1775 O1776 1.245 . S
C1775 O1787 1.232 . S
O1776 C1775 1.245 . S
O1777 Co1771 2.058 . S
O1777 C1803 1.269 . S
O1778 Co1770 2.074 . S
O1778 C1803 1.257 . S
H1779 C1804 0.930 . S
H1780 C1810 0.930 . S
O1781 Co1770 2.093 . S
O1781 C1773 1.224 . S
H1782 C1814 0.929 . S
H1783 C1816 0.930 . S
H1784 C1817 0.930 . S
H1785 C1815 0.929 . S
H1786 C1818 0.928 . S
O1787 Co1771 2.057 . S
O1787 C1775 1.232 . S
H1788 C1807 0.929 . S
H1789 C1808 0.929 . S
H1790 C1820 0.931 . S
H1791 C1812 0.929 . S
H1792 C1821 0.930 . S
H1793 C1813 0.931 . S
O1794 Co1770 2.097 . S
O1794 C1822 1.214 . S
H1795 C1823 0.929 . S
H1796 C1824 0.929 . S
H1797 C1825 0.930 . S
H1798 C1826 0.929 . S
H1799 C1828 0.930 . S
H1800 C1805 0.930 . S
H1801 C1809 0.930 . S
O1802 Co1771 2.037 . S
O1802 C1822 1.234 . S
C1803 O1777 1.269 . S
C1803 O1778 1.257 . S
C1804 H1779 0.930 . S
C1804 C1807 1.388 . S
C1804 C1809 1.418 . S
C1805 H1800 0.930 . S
C1805 C1808 1.404 . S
C1805 C1809 1.353 . S
N1806 Co1771 2.145 . S
N1806 C1807 1.397 . S
N1806 C1808 1.334 . S
C1807 H1788 0.929 . S
C1807 C1804 1.388 . S
C1807 N1806 1.397 . S
C1808 H1789 0.929 . S
C1808 C1805 1.404 . S
C1808 N1806 1.334 . S
C1809 H1801 0.930 . S
C1809 C1804 1.418 . S
C1809 C1805 1.353 . S
C1810 H1780 0.930 . S
C1810 N1811 1.330 . S
C1810 C1812 1.446 . S
N1811 Co1770 2.151 . S
N1811 C1810 1.330 . S
N1811 C1815 1.418 . S
C1812 H1791 0.929 . S
C1812 C1810 1.446 . S
C1812 C1813 1.332 . S
C1813 H1793 0.931 . S
C1813 C1812 1.332 . S
C1813 C1814 1.267 . S
C1814 H1782 0.929 . S
C1814 C1813 1.267 . S
C1814 C1815 1.251 . S
C1815 H1785 0.929 . S
C1815 N1811 1.418 . S
C1815 C1814 1.251 . S
C1816 H1783 0.930 . S
C1816 C1818 1.406 . S
C1816 C1821 1.261 . S
C1817 H1784 0.930 . S
C1817 N1819 1.325 . S
C1817 C1820 1.357 . S
C1818 H1786 0.928 . S
C1818 C1816 1.406 . S
C1818 N1819 1.261 . S
N1819 Co1770 2.214 . S
N1819 C1817 1.325 . S
N1819 C1818 1.261 . S
C1820 H1790 0.931 . S
C1820 C1817 1.357 . S
C1820 C1821 1.312 . S
C1821 H1792 0.930 . S
C1821 C1816 1.261 . S
C1821 C1820 1.312 . S
C1822 O1794 1.214 . S
C1822 O1802 1.234 . S
C1823 H1795 0.929 . S
C1823 C1826 1.391 . S
C1823 C1828 1.391 . S
C1824 H1796 0.929 . S
C1824 C1825 1.390 . S
C1824 N1827 1.391 . S
C1825 H1797 0.930 . S
C1825 C1824 1.390 . S
C1825 C1826 1.392 . S
C1826 H1798 0.929 . S
C1826 C1823 1.391 . S
C1826 C1825 1.392 . S
N1827 Co1771 2.257 . S
N1827 C1824 1.391 . S
N1827 C1828 1.388 . S
C1828 H1799 0.930 . S
C1828 C1823 1.391 . S
C1828 N1827 1.388 . S
Co1829 O1831 2.143 . S
Co1829 O1837 2.074 . S
Co1829 O1840 2.093 . S
Co1829 O1853 2.097 . S
Co1829 N1870 2.151 . S
Co1829 N1878 2.214 . S
Co1830 O1831 2.160 . S
Co1830 O1836 2.058 . S
Co1830 O1846 2.057 . S
Co1830 O1861 2.037 . S
Co1830 N1865 2.145 . S
Co1830 N1886 2.257 . S
O1831 Co1829 2.143 . S
O1831 Co1830 2.160 . S
C1832 O1833 1.278 . S
C1832 O1840 1.224 . S
O1833 C1832 1.278 . S
C1834 O1835 1.245 . S
C1834 O1846 1.232 . S
O1835 C1834 1.245 . S
O1836 Co1830 2.058 . S
O1836 C1862 1.269 . S
O1837 Co1829 2.074 . S
O1837 C1862 1.257 . S
H1838 C1863 0.930 . S
H1839 C1869 0.930 . S
O1840 Co1829 2.093 . S
O1840 C1832 1.224 . S
H1841 C1873 0.929 . S
H1842 C1875 0.930 . S
H1843 C1876 0.930 . S
H1844 C1874 0.929 . S
H1845 C1877 0.928 . S
O1846 Co1830 2.057 . S
O1846 C1834 1.232 . S
H1847 C1866 0.929 . S
H1848 C1867 0.929 . S
H1849 C1879 0.931 . S
H1850 C1871 0.929 . S
H1851 C1880 0.930 . S
H1852 C1872 0.931 . S
O1853 Co1829 2.097 . S
O1853 C1881 1.214 . S
H1854 C1882 0.929 . S
H1855 C1883 0.929 . S
H1856 C1884 0.930 . S
H1857 C1885 0.929 . S
H1858 C1887 0.930 . S
H1859 C1864 0.930 . S
H1860 C1868 0.930 . S
O1861 Co1830 2.037 . S
O1861 C1881 1.234 . S
C1862 O1836 1.269 . S
C1862 O1837 1.257 . S
C1863 H1838 0.930 . S
C1863 C1866 1.388 . S
C1863 C1868 1.418 . S
C1864 H1859 0.930 . S
C1864 C1867 1.404 . S
C1864 C1868 1.353 . S
N1865 Co1830 2.145 . S
N1865 C1866 1.397 . S
N1865 C1867 1.334 . S
C1866 H1847 0.929 . S
C1866 C1863 1.388 . S
C1866 N1865 1.397 . S
C1867 H1848 0.929 . S
C1867 C1864 1.404 . S
C1867 N1865 1.334 . S
C1868 H1860 0.930 . S
C1868 C1863 1.418 . S
C1868 C1864 1.353 . S
C1869 H1839 0.930 . S
C1869 N1870 1.330 . S
C1869 C1871 1.446 . S
N1870 Co1829 2.151 . S
N1870 C1869 1.330 . S
N1870 C1874 1.418 . S
C1871 H1850 0.929 . S
C1871 C1869 1.446 . S
C1871 C1872 1.332 . S
C1872 H1852 0.931 . S
C1872 C1871 1.332 . S
C1872 C1873 1.267 . S
C1873 H1841 0.929 . S
C1873 C1872 1.267 . S
C1873 C1874 1.251 . S
C1874 H1844 0.929 . S
C1874 N1870 1.418 . S
C1874 C1873 1.251 . S
C1875 H1842 0.930 . S
C1875 C1877 1.406 . S
C1875 C1880 1.261 . S
C1876 H1843 0.930 . S
C1876 N1878 1.325 . S
C1876 C1879 1.357 . S
C1877 H1845 0.928 . S
C1877 C1875 1.406 . S
C1877 N1878 1.261 . S
N1878 Co1829 2.214 . S
N1878 C1876 1.325 . S
N1878 C1877 1.261 . S
C1879 H1849 0.931 . S
C1879 C1876 1.357 . S
C1879 C1880 1.312 . S
C1880 H1851 0.930 . S
C1880 C1875 1.261 . S
C1880 C1879 1.312 . S
C1881 O1853 1.214 . S
C1881 O1861 1.234 . S
C1882 H1854 0.929 . S
C1882 C1885 1.391 . S
C1882 C1887 1.391 . S
C1883 H1855 0.929 . S
C1883 C1884 1.390 . S
C1883 N1886 1.391 . S
C1884 H1856 0.930 . S
C1884 C1883 1.390 . S
C1884 C1885 1.392 . S
C1885 H1857 0.929 . S
C1885 C1882 1.391 . S
C1885 C1884 1.392 . S
N1886 Co1830 2.257 . S
N1886 C1883 1.391 . S
N1886 C1887 1.388 . S
C1887 H1858 0.930 . S
C1887 C1882 1.391 . S
C1887 N1886 1.388 . S
Co1888 O1890 2.143 . S
Co1888 O1896 2.074 . S
Co1888 O1899 2.093 . S
Co1888 O1912 2.097 . S
Co1888 N1929 2.151 . S
Co1888 N1937 2.214 . S
Co1889 O1890 2.160 . S
Co1889 O1895 2.058 . S
Co1889 O1905 2.057 . S
Co1889 O1920 2.037 . S
Co1889 N1924 2.145 . S
Co1889 N1945 2.257 . S
O1890 Co1888 2.143 . S
O1890 Co1889 2.160 . S
C1891 O1892 1.278 . S
C1891 O1899 1.224 . S
O1892 C1891 1.278 . S
C1893 O1894 1.245 . S
C1893 O1905 1.232 . S
O1894 C1893 1.245 . S
O1895 Co1889 2.058 . S
O1895 C1921 1.269 . S
O1896 Co1888 2.074 . S
O1896 C1921 1.257 . S
H1897 C1922 0.930 . S
H1898 C1928 0.930 . S
O1899 Co1888 2.093 . S
O1899 C1891 1.224 . S
H1900 C1932 0.929 . S
H1901 C1934 0.930 . S
H1902 C1935 0.930 . S
H1903 C1933 0.929 . S
H1904 C1936 0.928 . S
O1905 Co1889 2.057 . S
O1905 C1893 1.232 . S
H1906 C1925 0.929 . S
H1907 C1926 0.929 . S
H1908 C1938 0.931 . S
H1909 C1930 0.929 . S
H1910 C1939 0.930 . S
H1911 C1931 0.931 . S
O1912 Co1888 2.097 . S
O1912 C1940 1.214 . S
H1913 C1941 0.929 . S
H1914 C1942 0.929 . S
H1915 C1943 0.930 . S
H1916 C1944 0.929 . S
H1917 C1946 0.930 . S
H1918 C1923 0.930 . S
H1919 C1927 0.930 . S
O1920 Co1889 2.037 . S
O1920 C1940 1.234 . S
C1921 O1895 1.269 . S
C1921 O1896 1.257 . S
C1922 H1897 0.930 . S
C1922 C1925 1.388 . S
C1922 C1927 1.418 . S
C1923 H1918 0.930 . S
C1923 C1926 1.404 . S
C1923 C1927 1.353 . S
N1924 Co1889 2.145 . S
N1924 C1925 1.397 . S
N1924 C1926 1.334 . S
C1925 H1906 0.929 . S
C1925 C1922 1.388 . S
C1925 N1924 1.397 . S
C1926 H1907 0.929 . S
C1926 C1923 1.404 . S
C1926 N1924 1.334 . S
C1927 H1919 0.930 . S
C1927 C1922 1.418 . S
C1927 C1923 1.353 . S
C1928 H1898 0.930 . S
C1928 N1929 1.330 . S
C1928 C1930 1.446 . S
N1929 Co1888 2.151 . S
N1929 C1928 1.330 . S
N1929 C1933 1.418 . S
C1930 H1909 0.929 . S
C1930 C1928 1.446 . S
C1930 C1931 1.332 . S
C1931 H1911 0.931 . S
C1931 C1930 1.332 . S
C1931 C1932 1.267 . S
C1932 H1900 0.929 . S
C1932 C1931 1.267 . S
C1932 C1933 1.251 . S
C1933 H1903 0.929 . S
C1933 N1929 1.418 . S
C1933 C1932 1.251 . S
C1934 H1901 0.930 . S
C1934 C1936 1.406 . S
C1934 C1939 1.261 . S
C1935 H1902 0.930 . S
C1935 N1937 1.325 . S
C1935 C1938 1.357 . S
C1936 H1904 0.928 . S
C1936 C1934 1.406 . S
C1936 N1937 1.261 . S
N1937 Co1888 2.214 . S
N1937 C1935 1.325 . S
N1937 C1936 1.261 . S
C1938 H1908 0.931 . S
C1938 C1935 1.357 . S
C1938 C1939 1.312 . S
C1939 H1910 0.930 . S
C1939 C1934 1.261 . S
C1939 C1938 1.312 . S
C1940 O1912 1.214 . S
C1940 O1920 1.234 . S
C1941 H1913 0.929 . S
C1941 C1944 1.391 . S
C1941 C1946 1.391 . S
C1942 H1914 0.929 . S
C1942 C1943 1.390 . S
C1942 N1945 1.391 . S
C1943 H1915 0.930 . S
C1943 C1942 1.390 . S
C1943 C1944 1.392 . S
C1944 H1916 0.929 . S
C1944 C1941 1.391 . S
C1944 C1943 1.392 . S
N1945 Co1889 2.257 . S
N1945 C1942 1.391 . S
N1945 C1946 1.388 . S
C1946 H1917 0.930 . S
C1946 C1941 1.391 . S
C1946 N1945 1.388 . S
Co1947 O1949 2.143 . S
Co1947 O1955 2.074 . S
Co1947 O1958 2.093 . S
Co1947 O1971 2.097 . S
Co1947 N1988 2.151 . S
Co1947 N1996 2.214 . S
Co1948 O1949 2.160 . S
Co1948 O1954 2.058 . S
Co1948 O1964 2.057 . S
Co1948 O1979 2.037 . S
Co1948 N1983 2.145 . S
Co1948 N2004 2.257 . S
O1949 Co1947 2.143 . S
O1949 Co1948 2.160 . S
C1950 O1951 1.278 . S
C1950 O1958 1.224 . S
O1951 C1950 1.278 . S
C1952 O1953 1.245 . S
C1952 O1964 1.232 . S
O1953 C1952 1.245 . S
O1954 Co1948 2.058 . S
O1954 C1980 1.269 . S
O1955 Co1947 2.074 . S
O1955 C1980 1.257 . S
H1956 C1981 0.930 . S
H1957 C1987 0.930 . S
O1958 Co1947 2.093 . S
O1958 C1950 1.224 . S
H1959 C1991 0.929 . S
H1960 C1993 0.930 . S
H1961 C1994 0.930 . S
H1962 C1992 0.929 . S
H1963 C1995 0.928 . S
O1964 Co1948 2.057 . S
O1964 C1952 1.232 . S
H1965 C1984 0.929 . S
H1966 C1985 0.929 . S
H1967 C1997 0.931 . S
H1968 C1989 0.929 . S
H1969 C1998 0.930 . S
H1970 C1990 0.931 . S
O1971 Co1947 2.097 . S
O1971 C1999 1.214 . S
H1972 C2000 0.929 . S
H1973 C2001 0.929 . S
H1974 C2002 0.930 . S
H1975 C2003 0.929 . S
H1976 C2005 0.930 . S
H1977 C1982 0.930 . S
H1978 C1986 0.930 . S
O1979 Co1948 2.037 . S
O1979 C1999 1.234 . S
C1980 O1954 1.269 . S
C1980 O1955 1.257 . S
C1981 H1956 0.930 . S
C1981 C1984 1.388 . S
C1981 C1986 1.418 . S
C1982 H1977 0.930 . S
C1982 C1985 1.404 . S
C1982 C1986 1.353 . S
N1983 Co1948 2.145 . S
N1983 C1984 1.397 . S
N1983 C1985 1.334 . S
C1984 H1965 0.929 . S
C1984 C1981 1.388 . S
C1984 N1983 1.397 . S
C1985 H1966 0.929 . S
C1985 C1982 1.404 . S
C1985 N1983 1.334 . S
C1986 H1978 0.930 . S
C1986 C1981 1.418 . S
C1986 C1982 1.353 . S
C1987 H1957 0.930 . S
C1987 N1988 1.330 . S
C1987 C1989 1.446 . S
N1988 Co1947 2.151 . S
N1988 C1987 1.330 . S
N1988 C1992 1.418 . S
C1989 H1968 0.929 . S
C1989 C1987 1.446 . S
C1989 C1990 1.332 . S
C1990 H1970 0.931 . S
C1990 C1989 1.332 . S
C1990 C1991 1.267 . S
C1991 H1959 0.929 . S
C1991 C1990 1.267 . S
C1991 C1992 1.251 . S
C1992 H1962 0.929 . S
C1992 N1988 1.418 . S
C1992 C1991 1.251 . S
C1993 H1960 0.930 . S
C1993 C1995 1.406 . S
C1993 C1998 1.261 . S
C1994 H1961 0.930 . S
C1994 N1996 1.325 . S
C1994 C1997 1.357 . S
C1995 H1963 0.928 . S
C1995 C1993 1.406 . S
C1995 N1996 1.261 . S
N1996 Co1947 2.214 . S
N1996 C1994 1.325 . S
N1996 C1995 1.261 . S
C1997 H1967 0.931 . S
C1997 C1994 1.357 . S
C1997 C1998 1.312 . S
C1998 H1969 0.930 . S
C1998 C1993 1.261 . S
C1998 C1997 1.312 . S
C1999 O1971 1.214 . S
C1999 O1979 1.234 . S
C2000 H1972 0.929 . S
C2000 C2003 1.391 . S
C2000 C2005 1.391 . S
C2001 H1973 0.929 . S
C2001 C2002 1.390 . S
C2001 N2004 1.391 . S
C2002 H1974 0.930 . S
C2002 C2001 1.390 . S
C2002 C2003 1.392 . S
C2003 H1975 0.929 . S
C2003 C2000 1.391 . S
C2003 C2002 1.392 . S
N2004 Co1948 2.257 . S
N2004 C2001 1.391 . S
N2004 C2005 1.388 . S
C2005 H1976 0.930 . S
C2005 C2000 1.391 . S
C2005 N2004 1.388 . S
Co2006 O2008 2.143 . S
Co2006 O2014 2.074 . S
Co2006 O2017 2.093 . S
Co2006 O2030 2.097 . S
Co2006 N2047 2.151 . S
Co2006 N2055 2.214 . S
Co2007 O2008 2.160 . S
Co2007 O2013 2.058 . S
Co2007 O2023 2.057 . S
Co2007 O2038 2.037 . S
Co2007 N2042 2.145 . S
Co2007 N2063 2.257 . S
O2008 Co2006 2.143 . S
O2008 Co2007 2.160 . S
C2009 O2010 1.278 . S
C2009 O2017 1.224 . S
O2010 C2009 1.278 . S
C2011 O2012 1.245 . S
C2011 O2023 1.232 . S
O2012 C2011 1.245 . S
O2013 Co2007 2.058 . S
O2013 C2039 1.269 . S
O2014 Co2006 2.074 . S
O2014 C2039 1.257 . S
H2015 C2040 0.930 . S
H2016 C2046 0.930 . S
O2017 Co2006 2.093 . S
O2017 C2009 1.224 . S
H2018 C2050 0.929 . S
H2019 C2052 0.930 . S
H2020 C2053 0.930 . S
H2021 C2051 0.929 . S
H2022 C2054 0.928 . S
O2023 Co2007 2.057 . S
O2023 C2011 1.232 . S
H2024 C2043 0.929 . S
H2025 C2044 0.929 . S
H2026 C2056 0.931 . S
H2027 C2048 0.929 . S
H2028 C2057 0.930 . S
H2029 C2049 0.931 . S
O2030 Co2006 2.097 . S
O2030 C2058 1.214 . S
H2031 C2059 0.929 . S
H2032 C2060 0.929 . S
H2033 C2061 0.930 . S
H2034 C2062 0.929 . S
H2035 C2064 0.930 . S
H2036 C2041 0.930 . S
H2037 C2045 0.930 . S
O2038 Co2007 2.037 . S
O2038 C2058 1.234 . S
C2039 O2013 1.269 . S
C2039 O2014 1.257 . S
C2040 H2015 0.930 . S
C2040 C2043 1.388 . S
C2040 C2045 1.418 . S
C2041 H2036 0.930 . S
C2041 C2044 1.404 . S
C2041 C2045 1.353 . S
N2042 Co2007 2.145 . S
N2042 C2043 1.397 . S
N2042 C2044 1.334 . S
C2043 H2024 0.929 . S
C2043 C2040 1.388 . S
C2043 N2042 1.397 . S
C2044 H2025 0.929 . S
C2044 C2041 1.404 . S
C2044 N2042 1.334 . S
C2045 H2037 0.930 . S
C2045 C2040 1.418 . S
C2045 C2041 1.353 . S
C2046 H2016 0.930 . S
C2046 N2047 1.330 . S
C2046 C2048 1.446 . S
N2047 Co2006 2.151 . S
N2047 C2046 1.330 . S
N2047 C2051 1.418 . S
C2048 H2027 0.929 . S
C2048 C2046 1.446 . S
C2048 C2049 1.332 . S
C2049 H2029 0.931 . S
C2049 C2048 1.332 . S
C2049 C2050 1.267 . S
C2050 H2018 0.929 . S
C2050 C2049 1.267 . S
C2050 C2051 1.251 . S
C2051 H2021 0.929 . S
C2051 N2047 1.418 . S
C2051 C2050 1.251 . S
C2052 H2019 0.930 . S
C2052 C2054 1.406 . S
C2052 C2057 1.261 . S
C2053 H2020 0.930 . S
C2053 N2055 1.325 . S
C2053 C2056 1.357 . S
C2054 H2022 0.928 . S
C2054 C2052 1.406 . S
C2054 N2055 1.261 . S
N2055 Co2006 2.214 . S
N2055 C2053 1.325 . S
N2055 C2054 1.261 . S
C2056 H2026 0.931 . S
C2056 C2053 1.357 . S
C2056 C2057 1.312 . S
C2057 H2028 0.930 . S
C2057 C2052 1.261 . S
C2057 C2056 1.312 . S
C2058 O2030 1.214 . S
C2058 O2038 1.234 . S
C2059 H2031 0.929 . S
C2059 C2062 1.391 . S
C2059 C2064 1.391 . S
C2060 H2032 0.929 . S
C2060 C2061 1.390 . S
C2060 N2063 1.391 . S
C2061 H2033 0.930 . S
C2061 C2060 1.390 . S
C2061 C2062 1.392 . S
C2062 H2034 0.929 . S
C2062 C2059 1.391 . S
C2062 C2061 1.392 . S
N2063 Co2007 2.257 . S
N2063 C2060 1.391 . S
N2063 C2064 1.388 . S
C2064 H2035 0.930 . S
C2064 C2059 1.391 . S
C2064 N2063 1.388 . S
Co2065 O2067 2.143 . S
Co2065 O2073 2.074 . S
Co2065 O2076 2.093 . S
Co2065 O2089 2.097 . S
Co2065 N2106 2.151 . S
Co2065 N2114 2.214 . S
Co2066 O2067 2.160 . S
Co2066 O2072 2.058 . S
Co2066 O2082 2.057 . S
Co2066 O2097 2.037 . S
Co2066 N2101 2.145 . S
Co2066 N2122 2.257 . S
O2067 Co2065 2.143 . S
O2067 Co2066 2.160 . S
C2068 O2069 1.278 . S
C2068 O2076 1.224 . S
O2069 C2068 1.278 . S
C2070 O2071 1.245 . S
C2070 O2082 1.232 . S
O2071 C2070 1.245 . S
O2072 Co2066 2.058 . S
O2072 C2098 1.269 . S
O2073 Co2065 2.074 . S
O2073 C2098 1.257 . S
H2074 C2099 0.930 . S
H2075 C2105 0.930 . S
O2076 Co2065 2.093 . S
O2076 C2068 1.224 . S
H2077 C2109 0.929 . S
H2078 C2111 0.930 . S
H2079 C2112 0.930 . S
H2080 C2110 0.929 . S
H2081 C2113 0.928 . S
O2082 Co2066 2.057 . S
O2082 C2070 1.232 . S
H2083 C2102 0.929 . S
H2084 C2103 0.929 . S
H2085 C2115 0.931 . S
H2086 C2107 0.929 . S
H2087 C2116 0.930 . S
H2088 C2108 0.931 . S
O2089 Co2065 2.097 . S
O2089 C2117 1.214 . S
H2090 C2118 0.929 . S
H2091 C2119 0.929 . S
H2092 C2120 0.930 . S
H2093 C2121 0.929 . S
H2094 C2123 0.930 . S
H2095 C2100 0.930 . S
H2096 C2104 0.930 . S
O2097 Co2066 2.037 . S
O2097 C2117 1.234 . S
C2098 O2072 1.269 . S
C2098 O2073 1.257 . S
C2099 H2074 0.930 . S
C2099 C2102 1.388 . S
C2099 C2104 1.418 . S
C2100 H2095 0.930 . S
C2100 C2103 1.404 . S
C2100 C2104 1.353 . S
N2101 Co2066 2.145 . S
N2101 C2102 1.397 . S
N2101 C2103 1.334 . S
C2102 H2083 0.929 . S
C2102 C2099 1.388 . S
C2102 N2101 1.397 . S
C2103 H2084 0.929 . S
C2103 C2100 1.404 . S
C2103 N2101 1.334 . S
C2104 H2096 0.930 . S
C2104 C2099 1.418 . S
C2104 C2100 1.353 . S
C2105 H2075 0.930 . S
C2105 N2106 1.330 . S
C2105 C2107 1.446 . S
N2106 Co2065 2.151 . S
N2106 C2105 1.330 . S
N2106 C2110 1.418 . S
C2107 H2086 0.929 . S
C2107 C2105 1.446 . S
C2107 C2108 1.332 . S
C2108 H2088 0.931 . S
C2108 C2107 1.332 . S
C2108 C2109 1.267 . S
C2109 H2077 0.929 . S
C2109 C2108 1.267 . S
C2109 C2110 1.251 . S
C2110 H2080 0.929 . S
C2110 N2106 1.418 . S
C2110 C2109 1.251 . S
C2111 H2078 0.930 . S
C2111 C2113 1.406 . S
C2111 C2116 1.261 . S
C2112 H2079 0.930 . S
C2112 N2114 1.325 . S
C2112 C2115 1.357 . S
C2113 H2081 0.928 . S
C2113 C2111 1.406 . S
C2113 N2114 1.261 . S
N2114 Co2065 2.214 . S
N2114 C2112 1.325 . S
N2114 C2113 1.261 . S
C2115 H2085 0.931 . S
C2115 C2112 1.357 . S
C2115 C2116 1.312 . S
C2116 H2087 0.930 . S
C2116 C2111 1.261 . S
C2116 C2115 1.312 . S
C2117 O2089 1.214 . S
C2117 O2097 1.234 . S
C2118 H2090 0.929 . S
C2118 C2121 1.391 . S
C2118 C2123 1.391 . S
C2119 H2091 0.929 . S
C2119 C2120 1.390 . S
C2119 N2122 1.391 . S
C2120 H2092 0.930 . S
C2120 C2119 1.390 . S
C2120 C2121 1.392 . S
C2121 H2093 0.929 . S
C2121 C2118 1.391 . S
C2121 C2120 1.392 . S
N2122 Co2066 2.257 . S
N2122 C2119 1.391 . S
N2122 C2123 1.388 . S
C2123 H2094 0.930 . S
C2123 C2118 1.391 . S
C2123 N2122 1.388 . S
Co2124 O2126 2.143 . S
Co2124 O2132 2.074 . S
Co2124 O2135 2.093 . S
Co2124 O2148 2.097 . S
Co2124 N2165 2.151 . S
Co2124 N2173 2.214 . S
Co2125 O2126 2.160 . S
Co2125 O2131 2.058 . S
Co2125 O2141 2.057 . S
Co2125 O2156 2.037 . S
Co2125 N2160 2.145 . S
Co2125 N2181 2.257 . S
O2126 Co2124 2.143 . S
O2126 Co2125 2.160 . S
C2127 O2128 1.278 . S
C2127 O2135 1.224 . S
O2128 C2127 1.278 . S
C2129 O2130 1.245 . S
C2129 O2141 1.232 . S
O2130 C2129 1.245 . S
O2131 Co2125 2.058 . S
O2131 C2157 1.269 . S
O2132 Co2124 2.074 . S
O2132 C2157 1.257 . S
H2133 C2158 0.930 . S
H2134 C2164 0.930 . S
O2135 Co2124 2.093 . S
O2135 C2127 1.224 . S
H2136 C2168 0.929 . S
H2137 C2170 0.930 . S
H2138 C2171 0.930 . S
H2139 C2169 0.929 . S
H2140 C2172 0.928 . S
O2141 Co2125 2.057 . S
O2141 C2129 1.232 . S
H2142 C2161 0.929 . S
H2143 C2162 0.929 . S
H2144 C2174 0.931 . S
H2145 C2166 0.929 . S
H2146 C2175 0.930 . S
H2147 C2167 0.931 . S
O2148 Co2124 2.097 . S
O2148 C2176 1.214 . S
H2149 C2177 0.929 . S
H2150 C2178 0.929 . S
H2151 C2179 0.930 . S
H2152 C2180 0.929 . S
H2153 C2182 0.930 . S
H2154 C2159 0.930 . S
H2155 C2163 0.930 . S
O2156 Co2125 2.037 . S
O2156 C2176 1.234 . S
C2157 O2131 1.269 . S
C2157 O2132 1.257 . S
C2158 H2133 0.930 . S
C2158 C2161 1.388 . S
C2158 C2163 1.418 . S
C2159 H2154 0.930 . S
C2159 C2162 1.404 . S
C2159 C2163 1.353 . S
N2160 Co2125 2.145 . S
N2160 C2161 1.397 . S
N2160 C2162 1.334 . S
C2161 H2142 0.929 . S
C2161 C2158 1.388 . S
C2161 N2160 1.397 . S
C2162 H2143 0.929 . S
C2162 C2159 1.404 . S
C2162 N2160 1.334 . S
C2163 H2155 0.930 . S
C2163 C2158 1.418 . S
C2163 C2159 1.353 . S
C2164 H2134 0.930 . S
C2164 N2165 1.330 . S
C2164 C2166 1.446 . S
N2165 Co2124 2.151 . S
N2165 C2164 1.330 . S
N2165 C2169 1.418 . S
C2166 H2145 0.929 . S
C2166 C2164 1.446 . S
C2166 C2167 1.332 . S
C2167 H2147 0.931 . S
C2167 C2166 1.332 . S
C2167 C2168 1.267 . S
C2168 H2136 0.929 . S
C2168 C2167 1.267 . S
C2168 C2169 1.251 . S
C2169 H2139 0.929 . S
C2169 N2165 1.418 . S
C2169 C2168 1.251 . S
C2170 H2137 0.930 . S
C2170 C2172 1.406 . S
C2170 C2175 1.261 . S
C2171 H2138 0.930 . S
C2171 N2173 1.325 . S
C2171 C2174 1.357 . S
C2172 H2140 0.928 . S
C2172 C2170 1.406 . S
C2172 N2173 1.261 . S
N2173 Co2124 2.214 . S
N2173 C2171 1.325 . S
N2173 C2172 1.261 . S
C2174 H2144 0.931 . S
C2174 C2171 1.357 . S
C2174 C2175 1.312 . S
C2175 H2146 0.930 . S
C2175 C2170 1.261 . S
C2175 C2174 1.312 . S
C2176 O2148 1.214 . S
C2176 O2156 1.234 . S
C2177 H2149 0.929 . S
C2177 C2180 1.391 . S
C2177 C2182 1.391 . S
C2178 H2150 0.929 . S
C2178 C2179 1.390 . S
C2178 N2181 1.391 . S
C2179 H2151 0.930 . S
C2179 C2178 1.390 . S
C2179 C2180 1.392 . S
C2180 H2152 0.929 . S
C2180 C2177 1.391 . S
C2180 C2179 1.392 . S
N2181 Co2125 2.257 . S
N2181 C2178 1.391 . S
N2181 C2182 1.388 . S
C2182 H2153 0.930 . S
C2182 C2177 1.391 . S
C2182 N2181 1.388 . S
Co2183 O2185 2.143 . S
Co2183 O2191 2.074 . S
Co2183 O2194 2.093 . S
Co2183 O2207 2.097 . S
Co2183 N2224 2.151 . S
Co2183 N2232 2.214 . S
Co2184 O2185 2.160 . S
Co2184 O2190 2.058 . S
Co2184 O2200 2.057 . S
Co2184 O2215 2.037 . S
Co2184 N2219 2.145 . S
Co2184 N2240 2.257 . S
O2185 Co2183 2.143 . S
O2185 Co2184 2.160 . S
C2186 O2187 1.278 . S
C2186 O2194 1.224 . S
O2187 C2186 1.278 . S
C2188 O2189 1.245 . S
C2188 O2200 1.232 . S
O2189 C2188 1.245 . S
O2190 Co2184 2.058 . S
O2190 C2216 1.269 . S
O2191 Co2183 2.074 . S
O2191 C2216 1.257 . S
H2192 C2217 0.930 . S
H2193 C2223 0.930 . S
O2194 Co2183 2.093 . S
O2194 C2186 1.224 . S
H2195 C2227 0.929 . S
H2196 C2229 0.930 . S
H2197 C2230 0.930 . S
H2198 C2228 0.929 . S
H2199 C2231 0.928 . S
O2200 Co2184 2.057 . S
O2200 C2188 1.232 . S
H2201 C2220 0.929 . S
H2202 C2221 0.929 . S
H2203 C2233 0.931 . S
H2204 C2225 0.929 . S
H2205 C2234 0.930 . S
H2206 C2226 0.931 . S
O2207 Co2183 2.097 . S
O2207 C2235 1.214 . S
H2208 C2236 0.929 . S
H2209 C2237 0.929 . S
H2210 C2238 0.930 . S
H2211 C2239 0.929 . S
H2212 C2241 0.930 . S
H2213 C2218 0.930 . S
H2214 C2222 0.930 . S
O2215 Co2184 2.037 . S
O2215 C2235 1.234 . S
C2216 O2190 1.269 . S
C2216 O2191 1.257 . S
C2217 H2192 0.930 . S
C2217 C2220 1.388 . S
C2217 C2222 1.418 . S
C2218 H2213 0.930 . S
C2218 C2221 1.404 . S
C2218 C2222 1.353 . S
N2219 Co2184 2.145 . S
N2219 C2220 1.397 . S
N2219 C2221 1.334 . S
C2220 H2201 0.929 . S
C2220 C2217 1.388 . S
C2220 N2219 1.397 . S
C2221 H2202 0.929 . S
C2221 C2218 1.404 . S
C2221 N2219 1.334 . S
C2222 H2214 0.930 . S
C2222 C2217 1.418 . S
C2222 C2218 1.353 . S
C2223 H2193 0.930 . S
C2223 N2224 1.330 . S
C2223 C2225 1.446 . S
N2224 Co2183 2.151 . S
N2224 C2223 1.330 . S
N2224 C2228 1.418 . S
C2225 H2204 0.929 . S
C2225 C2223 1.446 . S
C2225 C2226 1.332 . S
C2226 H2206 0.931 . S
C2226 C2225 1.332 . S
C2226 C2227 1.267 . S
C2227 H2195 0.929 . S
C2227 C2226 1.267 . S
C2227 C2228 1.251 . S
C2228 H2198 0.929 . S
C2228 N2224 1.418 . S
C2228 C2227 1.251 . S
C2229 H2196 0.930 . S
C2229 C2231 1.406 . S
C2229 C2234 1.261 . S
C2230 H2197 0.930 . S
C2230 N2232 1.325 . S
C2230 C2233 1.357 . S
C2231 H2199 0.928 . S
C2231 C2229 1.406 . S
C2231 N2232 1.261 . S
N2232 Co2183 2.214 . S
N2232 C2230 1.325 . S
N2232 C2231 1.261 . S
C2233 H2203 0.931 . S
C2233 C2230 1.357 . S
C2233 C2234 1.312 . S
C2234 H2205 0.930 . S
C2234 C2229 1.261 . S
C2234 C2233 1.312 . S
C2235 O2207 1.214 . S
C2235 O2215 1.234 . S
C2236 H2208 0.929 . S
C2236 C2239 1.391 . S
C2236 C2241 1.391 . S
C2237 H2209 0.929 . S
C2237 C2238 1.390 . S
C2237 N2240 1.391 . S
C2238 H2210 0.930 . S
C2238 C2237 1.390 . S
C2238 C2239 1.392 . S
C2239 H2211 0.929 . S
C2239 C2236 1.391 . S
C2239 C2238 1.392 . S
N2240 Co2184 2.257 . S
N2240 C2237 1.391 . S
N2240 C2241 1.388 . S
C2241 H2212 0.930 . S
C2241 C2236 1.391 . S
C2241 N2240 1.388 . S
Co2242 O2244 2.143 . S
Co2242 O2250 2.074 . S
Co2242 O2253 2.093 . S
Co2242 O2266 2.097 . S
Co2242 N2283 2.151 . S
Co2242 N2291 2.214 . S
Co2243 O2244 2.160 . S
Co2243 O2249 2.058 . S
Co2243 O2259 2.057 . S
Co2243 O2274 2.037 . S
Co2243 N2278 2.145 . S
Co2243 N2299 2.257 . S
O2244 Co2242 2.143 . S
O2244 Co2243 2.160 . S
C2245 O2246 1.278 . S
C2245 O2253 1.224 . S
O2246 C2245 1.278 . S
C2247 O2248 1.245 . S
C2247 O2259 1.232 . S
O2248 C2247 1.245 . S
O2249 Co2243 2.058 . S
O2249 C2275 1.269 . S
O2250 Co2242 2.074 . S
O2250 C2275 1.257 . S
H2251 C2276 0.930 . S
H2252 C2282 0.930 . S
O2253 Co2242 2.093 . S
O2253 C2245 1.224 . S
H2254 C2286 0.929 . S
H2255 C2288 0.930 . S
H2256 C2289 0.930 . S
H2257 C2287 0.929 . S
H2258 C2290 0.928 . S
O2259 Co2243 2.057 . S
O2259 C2247 1.232 . S
H2260 C2279 0.929 . S
H2261 C2280 0.929 . S
H2262 C2292 0.931 . S
H2263 C2284 0.929 . S
H2264 C2293 0.930 . S
H2265 C2285 0.931 . S
O2266 Co2242 2.097 . S
O2266 C2294 1.214 . S
H2267 C2295 0.929 . S
H2268 C2296 0.929 . S
H2269 C2297 0.930 . S
H2270 C2298 0.929 . S
H2271 C2300 0.930 . S
H2272 C2277 0.930 . S
H2273 C2281 0.930 . S
O2274 Co2243 2.037 . S
O2274 C2294 1.234 . S
C2275 O2249 1.269 . S
C2275 O2250 1.257 . S
C2276 H2251 0.930 . S
C2276 C2279 1.388 . S
C2276 C2281 1.418 . S
C2277 H2272 0.930 . S
C2277 C2280 1.404 . S
C2277 C2281 1.353 . S
N2278 Co2243 2.145 . S
N2278 C2279 1.397 . S
N2278 C2280 1.334 . S
C2279 H2260 0.929 . S
C2279 C2276 1.388 . S
C2279 N2278 1.397 . S
C2280 H2261 0.929 . S
C2280 C2277 1.404 . S
C2280 N2278 1.334 . S
C2281 H2273 0.930 . S
C2281 C2276 1.418 . S
C2281 C2277 1.353 . S
C2282 H2252 0.930 . S
C2282 N2283 1.330 . S
C2282 C2284 1.446 . S
N2283 Co2242 2.151 . S
N2283 C2282 1.330 . S
N2283 C2287 1.418 . S
C2284 H2263 0.929 . S
C2284 C2282 1.446 . S
C2284 C2285 1.332 . S
C2285 H2265 0.931 . S
C2285 C2284 1.332 . S
C2285 C2286 1.267 . S
C2286 H2254 0.929 . S
C2286 C2285 1.267 . S
C2286 C2287 1.251 . S
C2287 H2257 0.929 . S
C2287 N2283 1.418 . S
C2287 C2286 1.251 . S
C2288 H2255 0.930 . S
C2288 C2290 1.406 . S
C2288 C2293 1.261 . S
C2289 H2256 0.930 . S
C2289 N2291 1.325 . S
C2289 C2292 1.357 . S
C2290 H2258 0.928 . S
C2290 C2288 1.406 . S
C2290 N2291 1.261 . S
N2291 Co2242 2.214 . S
N2291 C2289 1.325 . S
N2291 C2290 1.261 . S
C2292 H2262 0.931 . S
C2292 C2289 1.357 . S
C2292 C2293 1.312 . S
C2293 H2264 0.930 . S
C2293 C2288 1.261 . S
C2293 C2292 1.312 . S
C2294 O2266 1.214 . S
C2294 O2274 1.234 . S
C2295 H2267 0.929 . S
C2295 C2298 1.391 . S
C2295 C2300 1.391 . S
C2296 H2268 0.929 . S
C2296 C2297 1.390 . S
C2296 N2299 1.391 . S
C2297 H2269 0.930 . S
C2297 C2296 1.390 . S
C2297 C2298 1.392 . S
C2298 H2270 0.929 . S
C2298 C2295 1.391 . S
C2298 C2297 1.392 . S
N2299 Co2243 2.257 . S
N2299 C2296 1.391 . S
N2299 C2300 1.388 . S
C2300 H2271 0.930 . S
C2300 C2295 1.391 . S
C2300 N2299 1.388 . S
Co2301 O2303 2.143 . S
Co2301 O2309 2.074 . S
Co2301 O2312 2.093 . S
Co2301 O2325 2.097 . S
Co2301 N2342 2.151 . S
Co2301 N2350 2.214 . S
Co2302 O2303 2.160 . S
Co2302 O2308 2.058 . S
Co2302 O2318 2.057 . S
Co2302 O2333 2.037 . S
Co2302 N2337 2.145 . S
Co2302 N2358 2.257 . S
O2303 Co2301 2.143 . S
O2303 Co2302 2.160 . S
C2304 O2305 1.278 . S
C2304 O2312 1.224 . S
O2305 C2304 1.278 . S
C2306 O2307 1.245 . S
C2306 O2318 1.232 . S
O2307 C2306 1.245 . S
O2308 Co2302 2.058 . S
O2308 C2334 1.269 . S
O2309 Co2301 2.074 . S
O2309 C2334 1.257 . S
H2310 C2335 0.930 . S
H2311 C2341 0.930 . S
O2312 Co2301 2.093 . S
O2312 C2304 1.224 . S
H2313 C2345 0.929 . S
H2314 C2347 0.930 . S
H2315 C2348 0.930 . S
H2316 C2346 0.929 . S
H2317 C2349 0.928 . S
O2318 Co2302 2.057 . S
O2318 C2306 1.232 . S
H2319 C2338 0.929 . S
H2320 C2339 0.929 . S
H2321 C2351 0.931 . S
H2322 C2343 0.929 . S
H2323 C2352 0.930 . S
H2324 C2344 0.931 . S
O2325 Co2301 2.097 . S
O2325 C2353 1.214 . S
H2326 C2354 0.929 . S
H2327 C2355 0.929 . S
H2328 C2356 0.930 . S
H2329 C2357 0.929 . S
H2330 C2359 0.930 . S
H2331 C2336 0.930 . S
H2332 C2340 0.930 . S
O2333 Co2302 2.037 . S
O2333 C2353 1.234 . S
C2334 O2308 1.269 . S
C2334 O2309 1.257 . S
C2335 H2310 0.930 . S
C2335 C2338 1.388 . S
C2335 C2340 1.418 . S
C2336 H2331 0.930 . S
C2336 C2339 1.404 . S
C2336 C2340 1.353 . S
N2337 Co2302 2.145 . S
N2337 C2338 1.397 . S
N2337 C2339 1.334 . S
C2338 H2319 0.929 . S
C2338 C2335 1.388 . S
C2338 N2337 1.397 . S
C2339 H2320 0.929 . S
C2339 C2336 1.404 . S
C2339 N2337 1.334 . S
C2340 H2332 0.930 . S
C2340 C2335 1.418 . S
C2340 C2336 1.353 . S
C2341 H2311 0.930 . S
C2341 N2342 1.330 . S
C2341 C2343 1.446 . S
N2342 Co2301 2.151 . S
N2342 C2341 1.330 . S
N2342 C2346 1.418 . S
C2343 H2322 0.929 . S
C2343 C2341 1.446 . S
C2343 C2344 1.332 . S
C2344 H2324 0.931 . S
C2344 C2343 1.332 . S
C2344 C2345 1.267 . S
C2345 H2313 0.929 . S
C2345 C2344 1.267 . S
C2345 C2346 1.251 . S
C2346 H2316 0.929 . S
C2346 N2342 1.418 . S
C2346 C2345 1.251 . S
C2347 H2314 0.930 . S
C2347 C2349 1.406 . S
C2347 C2352 1.261 . S
C2348 H2315 0.930 . S
C2348 N2350 1.325 . S
C2348 C2351 1.357 . S
C2349 H2317 0.928 . S
C2349 C2347 1.406 . S
C2349 N2350 1.261 . S
N2350 Co2301 2.214 . S
N2350 C2348 1.325 . S
N2350 C2349 1.261 . S
C2351 H2321 0.931 . S
C2351 C2348 1.357 . S
C2351 C2352 1.312 . S
C2352 H2323 0.930 . S
C2352 C2347 1.261 . S
C2352 C2351 1.312 . S
C2353 O2325 1.214 . S
C2353 O2333 1.234 . S
C2354 H2326 0.929 . S
C2354 C2357 1.391 . S
C2354 C2359 1.391 . S
C2355 H2327 0.929 . S
C2355 C2356 1.390 . S
C2355 N2358 1.391 . S
C2356 H2328 0.930 . S
C2356 C2355 1.390 . S
C2356 C2357 1.392 . S
C2357 H2329 0.929 . S
C2357 C2354 1.391 . S
C2357 C2356 1.392 . S
N2358 Co2302 2.257 . S
N2358 C2355 1.391 . S
N2358 C2359 1.388 . S
C2359 H2330 0.930 . S
C2359 C2354 1.391 . S
C2359 N2358 1.388 . S
Co2360 O2362 2.143 . S
Co2360 O2368 2.074 . S
Co2360 O2371 2.093 . S
Co2360 O2384 2.097 . S
Co2360 N2401 2.151 . S
Co2360 N2409 2.214 . S
Co2361 O2362 2.160 . S
Co2361 O2367 2.058 . S
Co2361 O2377 2.057 . S
Co2361 O2392 2.037 . S
Co2361 N2396 2.145 . S
Co2361 N2417 2.257 . S
O2362 Co2360 2.143 . S
O2362 Co2361 2.160 . S
C2363 O2364 1.278 . S
C2363 O2371 1.224 . S
O2364 C2363 1.278 . S
C2365 O2366 1.245 . S
C2365 O2377 1.232 . S
O2366 C2365 1.245 . S
O2367 Co2361 2.058 . S
O2367 C2393 1.269 . S
O2368 Co2360 2.074 . S
O2368 C2393 1.257 . S
H2369 C2394 0.930 . S
H2370 C2400 0.930 . S
O2371 Co2360 2.093 . S
O2371 C2363 1.224 . S
H2372 C2404 0.929 . S
H2373 C2406 0.930 . S
H2374 C2407 0.930 . S
H2375 C2405 0.929 . S
H2376 C2408 0.928 . S
O2377 Co2361 2.057 . S
O2377 C2365 1.232 . S
H2378 C2397 0.929 . S
H2379 C2398 0.929 . S
H2380 C2410 0.931 . S
H2381 C2402 0.929 . S
H2382 C2411 0.930 . S
H2383 C2403 0.931 . S
O2384 Co2360 2.097 . S
O2384 C2412 1.214 . S
H2385 C2413 0.929 . S
H2386 C2414 0.929 . S
H2387 C2415 0.930 . S
H2388 C2416 0.929 . S
H2389 C2418 0.930 . S
H2390 C2395 0.930 . S
H2391 C2399 0.930 . S
O2392 Co2361 2.037 . S
O2392 C2412 1.234 . S
C2393 O2367 1.269 . S
C2393 O2368 1.257 . S
C2394 H2369 0.930 . S
C2394 C2397 1.388 . S
C2394 C2399 1.418 . S
C2395 H2390 0.930 . S
C2395 C2398 1.404 . S
C2395 C2399 1.353 . S
N2396 Co2361 2.145 . S
N2396 C2397 1.397 . S
N2396 C2398 1.334 . S
C2397 H2378 0.929 . S
C2397 C2394 1.388 . S
C2397 N2396 1.397 . S
C2398 H2379 0.929 . S
C2398 C2395 1.404 . S
C2398 N2396 1.334 . S
C2399 H2391 0.930 . S
C2399 C2394 1.418 . S
C2399 C2395 1.353 . S
C2400 H2370 0.930 . S
C2400 N2401 1.330 . S
C2400 C2402 1.446 . S
N2401 Co2360 2.151 . S
N2401 C2400 1.330 . S
N2401 C2405 1.418 . S
C2402 H2381 0.929 . S
C2402 C2400 1.446 . S
C2402 C2403 1.332 . S
C2403 H2383 0.931 . S
C2403 C2402 1.332 . S
C2403 C2404 1.267 . S
C2404 H2372 0.929 . S
C2404 C2403 1.267 . S
C2404 C2405 1.251 . S
C2405 H2375 0.929 . S
C2405 N2401 1.418 . S
C2405 C2404 1.251 . S
C2406 H2373 0.930 . S
C2406 C2408 1.406 . S
C2406 C2411 1.261 . S
C2407 H2374 0.930 . S
C2407 N2409 1.325 . S
C2407 C2410 1.357 . S
C2408 H2376 0.928 . S
C2408 C2406 1.406 . S
C2408 N2409 1.261 . S
N2409 Co2360 2.214 . S
N2409 C2407 1.325 . S
N2409 C2408 1.261 . S
C2410 H2380 0.931 . S
C2410 C2407 1.357 . S
C2410 C2411 1.312 . S
C2411 H2382 0.930 . S
C2411 C2406 1.261 . S
C2411 C2410 1.312 . S
C2412 O2384 1.214 . S
C2412 O2392 1.234 . S
C2413 H2385 0.929 . S
C2413 C2416 1.391 . S
C2413 C2418 1.391 . S
C2414 H2386 0.929 . S
C2414 C2415 1.390 . S
C2414 N2417 1.391 . S
C2415 H2387 0.930 . S
C2415 C2414 1.390 . S
C2415 C2416 1.392 . S
C2416 H2388 0.929 . S
C2416 C2413 1.391 . S
C2416 C2415 1.392 . S
N2417 Co2361 2.257 . S
N2417 C2414 1.391 . S
N2417 C2418 1.388 . S
C2418 H2389 0.930 . S
C2418 C2413 1.391 . S
C2418 N2417 1.388 . S
Co2419 O2421 2.143 . S
Co2419 O2427 2.074 . S
Co2419 O2430 2.093 . S
Co2419 O2443 2.097 . S
Co2419 N2460 2.151 . S
Co2419 N2468 2.214 . S
Co2420 O2421 2.160 . S
Co2420 O2426 2.058 . S
Co2420 O2436 2.057 . S
Co2420 O2451 2.037 . S
Co2420 N2455 2.145 . S
Co2420 N2476 2.257 . S
O2421 Co2419 2.143 . S
O2421 Co2420 2.160 . S
C2422 O2423 1.278 . S
C2422 O2430 1.224 . S
O2423 C2422 1.278 . S
C2424 O2425 1.245 . S
C2424 O2436 1.232 . S
O2425 C2424 1.245 . S
O2426 Co2420 2.058 . S
O2426 C2452 1.269 . S
O2427 Co2419 2.074 . S
O2427 C2452 1.257 . S
H2428 C2453 0.930 . S
H2429 C2459 0.930 . S
O2430 Co2419 2.093 . S
O2430 C2422 1.224 . S
H2431 C2463 0.929 . S
H2432 C2465 0.930 . S
H2433 C2466 0.930 . S
H2434 C2464 0.929 . S
H2435 C2467 0.928 . S
O2436 Co2420 2.057 . S
O2436 C2424 1.232 . S
H2437 C2456 0.929 . S
H2438 C2457 0.929 . S
H2439 C2469 0.931 . S
H2440 C2461 0.929 . S
H2441 C2470 0.930 . S
H2442 C2462 0.931 . S
O2443 Co2419 2.097 . S
O2443 C2471 1.214 . S
H2444 C2472 0.929 . S
H2445 C2473 0.929 . S
H2446 C2474 0.930 . S
H2447 C2475 0.929 . S
H2448 C2477 0.930 . S
H2449 C2454 0.930 . S
H2450 C2458 0.930 . S
O2451 Co2420 2.037 . S
O2451 C2471 1.234 . S
C2452 O2426 1.269 . S
C2452 O2427 1.257 . S
C2453 H2428 0.930 . S
C2453 C2456 1.388 . S
C2453 C2458 1.418 . S
C2454 H2449 0.930 . S
C2454 C2457 1.404 . S
C2454 C2458 1.353 . S
N2455 Co2420 2.145 . S
N2455 C2456 1.397 . S
N2455 C2457 1.334 . S
C2456 H2437 0.929 . S
C2456 C2453 1.388 . S
C2456 N2455 1.397 . S
C2457 H2438 0.929 . S
C2457 C2454 1.404 . S
C2457 N2455 1.334 . S
C2458 H2450 0.930 . S
C2458 C2453 1.418 . S
C2458 C2454 1.353 . S
C2459 H2429 0.930 . S
C2459 N2460 1.330 . S
C2459 C2461 1.446 . S
N2460 Co2419 2.151 . S
N2460 C2459 1.330 . S
N2460 C2464 1.418 . S
C2461 H2440 0.929 . S
C2461 C2459 1.446 . S
C2461 C2462 1.332 . S
C2462 H2442 0.931 . S
C2462 C2461 1.332 . S
C2462 C2463 1.267 . S
C2463 H2431 0.929 . S
C2463 C2462 1.267 . S
C2463 C2464 1.251 . S
C2464 H2434 0.929 . S
C2464 N2460 1.418 . S
C2464 C2463 1.251 . S
C2465 H2432 0.930 . S
C2465 C2467 1.406 . S
C2465 C2470 1.261 . S
C2466 H2433 0.930 . S
C2466 N2468 1.325 . S
C2466 C2469 1.357 . S
C2467 H2435 0.928 . S
C2467 C2465 1.406 . S
C2467 N2468 1.261 . S
N2468 Co2419 2.214 . S
N2468 C2466 1.325 . S
N2468 C2467 1.261 . S
C2469 H2439 0.931 . S
C2469 C2466 1.357 . S
C2469 C2470 1.312 . S
C2470 H2441 0.930 . S
C2470 C2465 1.261 . S
C2470 C2469 1.312 . S
C2471 O2443 1.214 . S
C2471 O2451 1.234 . S
C2472 H2444 0.929 . S
C2472 C2475 1.391 . S
C2472 C2477 1.391 . S
C2473 H2445 0.929 . S
C2473 C2474 1.390 . S
C2473 N2476 1.391 . S
C2474 H2446 0.930 . S
C2474 C2473 1.390 . S
C2474 C2475 1.392 . S
C2475 H2447 0.929 . S
C2475 C2472 1.391 . S
C2475 C2474 1.392 . S
N2476 Co2420 2.257 . S
N2476 C2473 1.391 . S
N2476 C2477 1.388 . S
C2477 H2448 0.930 . S
C2477 C2472 1.391 . S
C2477 N2476 1.388 . S
Co2478 O2480 2.143 . S
Co2478 O2486 2.074 . S
Co2478 O2489 2.093 . S
Co2478 O2502 2.097 . S
Co2478 N2519 2.151 . S
Co2478 N2527 2.214 . S
Co2479 O2480 2.160 . S
Co2479 O2485 2.058 . S
Co2479 O2495 2.057 . S
Co2479 O2510 2.037 . S
Co2479 N2514 2.145 . S
Co2479 N2535 2.257 . S
O2480 Co2478 2.143 . S
O2480 Co2479 2.160 . S
C2481 O2482 1.278 . S
C2481 O2489 1.224 . S
O2482 C2481 1.278 . S
C2483 O2484 1.245 . S
C2483 O2495 1.232 . S
O2484 C2483 1.245 . S
O2485 Co2479 2.058 . S
O2485 C2511 1.269 . S
O2486 Co2478 2.074 . S
O2486 C2511 1.257 . S
H2487 C2512 0.930 . S
H2488 C2518 0.930 . S
O2489 Co2478 2.093 . S
O2489 C2481 1.224 . S
H2490 C2522 0.929 . S
H2491 C2524 0.930 . S
H2492 C2525 0.930 . S
H2493 C2523 0.929 . S
H2494 C2526 0.928 . S
O2495 Co2479 2.057 . S
O2495 C2483 1.232 . S
H2496 C2515 0.929 . S
H2497 C2516 0.929 . S
H2498 C2528 0.931 . S
H2499 C2520 0.929 . S
H2500 C2529 0.930 . S
H2501 C2521 0.931 . S
O2502 Co2478 2.097 . S
O2502 C2530 1.214 . S
H2503 C2531 0.929 . S
H2504 C2532 0.929 . S
H2505 C2533 0.930 . S
H2506 C2534 0.929 . S
H2507 C2536 0.930 . S
H2508 C2513 0.930 . S
H2509 C2517 0.930 . S
O2510 Co2479 2.037 . S
O2510 C2530 1.234 . S
C2511 O2485 1.269 . S
C2511 O2486 1.257 . S
C2512 H2487 0.930 . S
C2512 C2515 1.388 . S
C2512 C2517 1.418 . S
C2513 H2508 0.930 . S
C2513 C2516 1.404 . S
C2513 C2517 1.353 . S
N2514 Co2479 2.145 . S
N2514 C2515 1.397 . S
N2514 C2516 1.334 . S
C2515 H2496 0.929 . S
C2515 C2512 1.388 . S
C2515 N2514 1.397 . S
C2516 H2497 0.929 . S
C2516 C2513 1.404 . S
C2516 N2514 1.334 . S
C2517 H2509 0.930 . S
C2517 C2512 1.418 . S
C2517 C2513 1.353 . S
C2518 H2488 0.930 . S
C2518 N2519 1.330 . S
C2518 C2520 1.446 . S
N2519 Co2478 2.151 . S
N2519 C2518 1.330 . S
N2519 C2523 1.418 . S
C2520 H2499 0.929 . S
C2520 C2518 1.446 . S
C2520 C2521 1.332 . S
C2521 H2501 0.931 . S
C2521 C2520 1.332 . S
C2521 C2522 1.267 . S
C2522 H2490 0.929 . S
C2522 C2521 1.267 . S
C2522 C2523 1.251 . S
C2523 H2493 0.929 . S
C2523 N2519 1.418 . S
C2523 C2522 1.251 . S
C2524 H2491 0.930 . S
C2524 C2526 1.406 . S
C2524 C2529 1.261 . S
C2525 H2492 0.930 . S
C2525 N2527 1.325 . S
C2525 C2528 1.357 . S
C2526 H2494 0.928 . S
C2526 C2524 1.406 . S
C2526 N2527 1.261 . S
N2527 Co2478 2.214 . S
N2527 C2525 1.325 . S
N2527 C2526 1.261 . S
C2528 H2498 0.931 . S
C2528 C2525 1.357 . S
C2528 C2529 1.312 . S
C2529 H2500 0.930 . S
C2529 C2524 1.261 . S
C2529 C2528 1.312 . S
C2530 O2502 1.214 . S
C2530 O2510 1.234 . S
C2531 H2503 0.929 . S
C2531 C2534 1.391 . S
C2531 C2536 1.391 . S
C2532 H2504 0.929 . S
C2532 C2533 1.390 . S
C2532 N2535 1.391 . S
C2533 H2505 0.930 . S
C2533 C2532 1.390 . S
C2533 C2534 1.392 . S
C2534 H2506 0.929 . S
C2534 C2531 1.391 . S
C2534 C2533 1.392 . S
N2535 Co2479 2.257 . S
N2535 C2532 1.391 . S
N2535 C2536 1.388 . S
C2536 H2507 0.930 . S
C2536 C2531 1.391 . S
C2536 N2535 1.388 . S
Co2537 O2539 2.143 . S
Co2537 O2545 2.074 . S
Co2537 O2548 2.093 . S
Co2537 O2561 2.097 . S
Co2537 N2578 2.151 . S
Co2537 N2586 2.214 . S
Co2538 O2539 2.160 . S
Co2538 O2544 2.058 . S
Co2538 O2554 2.057 . S
Co2538 O2569 2.037 . S
Co2538 N2573 2.145 . S
Co2538 N2594 2.257 . S
O2539 Co2537 2.143 . S
O2539 Co2538 2.160 . S
C2540 O2541 1.278 . S
C2540 O2548 1.224 . S
O2541 C2540 1.278 . S
C2542 O2543 1.245 . S
C2542 O2554 1.232 . S
O2543 C2542 1.245 . S
O2544 Co2538 2.058 . S
O2544 C2570 1.269 . S
O2545 Co2537 2.074 . S
O2545 C2570 1.257 . S
H2546 C2571 0.930 . S
H2547 C2577 0.930 . S
O2548 Co2537 2.093 . S
O2548 C2540 1.224 . S
H2549 C2581 0.929 . S
H2550 C2583 0.930 . S
H2551 C2584 0.930 . S
H2552 C2582 0.929 . S
H2553 C2585 0.928 . S
O2554 Co2538 2.057 . S
O2554 C2542 1.232 . S
H2555 C2574 0.929 . S
H2556 C2575 0.929 . S
H2557 C2587 0.931 . S
H2558 C2579 0.929 . S
H2559 C2588 0.930 . S
H2560 C2580 0.931 . S
O2561 Co2537 2.097 . S
O2561 C2589 1.214 . S
H2562 C2590 0.929 . S
H2563 C2591 0.929 . S
H2564 C2592 0.930 . S
H2565 C2593 0.929 . S
H2566 C2595 0.930 . S
H2567 C2572 0.930 . S
H2568 C2576 0.930 . S
O2569 Co2538 2.037 . S
O2569 C2589 1.234 . S
C2570 O2544 1.269 . S
C2570 O2545 1.257 . S
C2571 H2546 0.930 . S
C2571 C2574 1.388 . S
C2571 C2576 1.418 . S
C2572 H2567 0.930 . S
C2572 C2575 1.404 . S
C2572 C2576 1.353 . S
N2573 Co2538 2.145 . S
N2573 C2574 1.397 . S
N2573 C2575 1.334 . S
C2574 H2555 0.929 . S
C2574 C2571 1.388 . S
C2574 N2573 1.397 . S
C2575 H2556 0.929 . S
C2575 C2572 1.404 . S
C2575 N2573 1.334 . S
C2576 H2568 0.930 . S
C2576 C2571 1.418 . S
C2576 C2572 1.353 . S
C2577 H2547 0.930 . S
C2577 N2578 1.330 . S
C2577 C2579 1.446 . S
N2578 Co2537 2.151 . S
N2578 C2577 1.330 . S
N2578 C2582 1.418 . S
C2579 H2558 0.929 . S
C2579 C2577 1.446 . S
C2579 C2580 1.332 . S
C2580 H2560 0.931 . S
C2580 C2579 1.332 . S
C2580 C2581 1.267 . S
C2581 H2549 0.929 . S
C2581 C2580 1.267 . S
C2581 C2582 1.251 . S
C2582 H2552 0.929 . S
C2582 N2578 1.418 . S
C2582 C2581 1.251 . S
C2583 H2550 0.930 . S
C2583 C2585 1.406 . S
C2583 C2588 1.261 . S
C2584 H2551 0.930 . S
C2584 N2586 1.325 . S
C2584 C2587 1.357 . S
C2585 H2553 0.928 . S
C2585 C2583 1.406 . S
C2585 N2586 1.261 . S
N2586 Co2537 2.214 . S
N2586 C2584 1.325 . S
N2586 C2585 1.261 . S
C2587 H2557 0.931 . S
C2587 C2584 1.357 . S
C2587 C2588 1.312 . S
C2588 H2559 0.930 . S
C2588 C2583 1.261 . S
C2588 C2587 1.312 . S
C2589 O2561 1.214 . S
C2589 O2569 1.234 . S
C2590 H2562 0.929 . S
C2590 C2593 1.391 . S
C2590 C2595 1.391 . S
C2591 H2563 0.929 . S
C2591 C2592 1.390 . S
C2591 N2594 1.391 . S
C2592 H2564 0.930 . S
C2592 C2591 1.390 . S
C2592 C2593 1.392 . S
C2593 H2565 0.929 . S
C2593 C2590 1.391 . S
C2593 C2592 1.392 . S
N2594 Co2538 2.257 . S
N2594 C2591 1.391 . S
N2594 C2595 1.388 . S
C2595 H2566 0.930 . S
C2595 C2590 1.391 . S
C2595 N2594 1.388 . S
Co2596 O2598 2.143 . S
Co2596 O2604 2.074 . S
Co2596 O2607 2.093 . S
Co2596 O2620 2.097 . S
Co2596 N2637 2.151 . S
Co2596 N2645 2.214 . S
Co2597 O2598 2.160 . S
Co2597 O2603 2.058 . S
Co2597 O2613 2.057 . S
Co2597 O2628 2.037 . S
Co2597 N2632 2.145 . S
Co2597 N2653 2.257 . S
O2598 Co2596 2.143 . S
O2598 Co2597 2.160 . S
C2599 O2600 1.278 . S
C2599 O2607 1.224 . S
O2600 C2599 1.278 . S
C2601 O2602 1.245 . S
C2601 O2613 1.232 . S
O2602 C2601 1.245 . S
O2603 Co2597 2.058 . S
O2603 C2629 1.269 . S
O2604 Co2596 2.074 . S
O2604 C2629 1.257 . S
H2605 C2630 0.930 . S
H2606 C2636 0.930 . S
O2607 Co2596 2.093 . S
O2607 C2599 1.224 . S
H2608 C2640 0.929 . S
H2609 C2642 0.930 . S
H2610 C2643 0.930 . S
H2611 C2641 0.929 . S
H2612 C2644 0.928 . S
O2613 Co2597 2.057 . S
O2613 C2601 1.232 . S
H2614 C2633 0.929 . S
H2615 C2634 0.929 . S
H2616 C2646 0.931 . S
H2617 C2638 0.929 . S
H2618 C2647 0.930 . S
H2619 C2639 0.931 . S
O2620 Co2596 2.097 . S
O2620 C2648 1.214 . S
H2621 C2649 0.929 . S
H2622 C2650 0.929 . S
H2623 C2651 0.930 . S
H2624 C2652 0.929 . S
H2625 C2654 0.930 . S
H2626 C2631 0.930 . S
H2627 C2635 0.930 . S
O2628 Co2597 2.037 . S
O2628 C2648 1.234 . S
C2629 O2603 1.269 . S
C2629 O2604 1.257 . S
C2630 H2605 0.930 . S
C2630 C2633 1.388 . S
C2630 C2635 1.418 . S
C2631 H2626 0.930 . S
C2631 C2634 1.404 . S
C2631 C2635 1.353 . S
N2632 Co2597 2.145 . S
N2632 C2633 1.397 . S
N2632 C2634 1.334 . S
C2633 H2614 0.929 . S
C2633 C2630 1.388 . S
C2633 N2632 1.397 . S
C2634 H2615 0.929 . S
C2634 C2631 1.404 . S
C2634 N2632 1.334 . S
C2635 H2627 0.930 . S
C2635 C2630 1.418 . S
C2635 C2631 1.353 . S
C2636 H2606 0.930 . S
C2636 N2637 1.330 . S
C2636 C2638 1.446 . S
N2637 Co2596 2.151 . S
N2637 C2636 1.330 . S
N2637 C2641 1.418 . S
C2638 H2617 0.929 . S
C2638 C2636 1.446 . S
C2638 C2639 1.332 . S
C2639 H2619 0.931 . S
C2639 C2638 1.332 . S
C2639 C2640 1.267 . S
C2640 H2608 0.929 . S
C2640 C2639 1.267 . S
C2640 C2641 1.251 . S
C2641 H2611 0.929 . S
C2641 N2637 1.418 . S
C2641 C2640 1.251 . S
C2642 H2609 0.930 . S
C2642 C2644 1.406 . S
C2642 C2647 1.261 . S
C2643 H2610 0.930 . S
C2643 N2645 1.325 . S
C2643 C2646 1.357 . S
C2644 H2612 0.928 . S
C2644 C2642 1.406 . S
C2644 N2645 1.261 . S
N2645 Co2596 2.214 . S
N2645 C2643 1.325 . S
N2645 C2644 1.261 . S
C2646 H2616 0.931 . S
C2646 C2643 1.357 . S
C2646 C2647 1.312 . S
C2647 H2618 0.930 . S
C2647 C2642 1.261 . S
C2647 C2646 1.312 . S
C2648 O2620 1.214 . S
C2648 O2628 1.234 . S
C2649 H2621 0.929 . S
C2649 C2652 1.391 . S
C2649 C2654 1.391 . S
C2650 H2622 0.929 . S
C2650 C2651 1.390 . S
C2650 N2653 1.391 . S
C2651 H2623 0.930 . S
C2651 C2650 1.390 . S
C2651 C2652 1.392 . S
C2652 H2624 0.929 . S
C2652 C2649 1.391 . S
C2652 C2651 1.392 . S
N2653 Co2597 2.257 . S
N2653 C2650 1.391 . S
N2653 C2654 1.388 . S
C2654 H2625 0.930 . S
C2654 C2649 1.391 . S
C2654 N2653 1.388 . S
Co2655 O2657 2.143 . S
Co2655 O2663 2.074 . S
Co2655 O2666 2.093 . S
Co2655 O2679 2.097 . S
Co2655 N2696 2.151 . S
Co2655 N2704 2.214 . S
Co2656 O2657 2.160 . S
Co2656 O2662 2.058 . S
Co2656 O2672 2.057 . S
Co2656 O2687 2.037 . S
Co2656 N2691 2.145 . S
Co2656 N2712 2.257 . S
O2657 Co2655 2.143 . S
O2657 Co2656 2.160 . S
C2658 O2659 1.278 . S
C2658 O2666 1.224 . S
O2659 C2658 1.278 . S
C2660 O2661 1.245 . S
C2660 O2672 1.232 . S
O2661 C2660 1.245 . S
O2662 Co2656 2.058 . S
O2662 C2688 1.269 . S
O2663 Co2655 2.074 . S
O2663 C2688 1.257 . S
H2664 C2689 0.930 . S
H2665 C2695 0.930 . S
O2666 Co2655 2.093 . S
O2666 C2658 1.224 . S
H2667 C2699 0.929 . S
H2668 C2701 0.930 . S
H2669 C2702 0.930 . S
H2670 C2700 0.929 . S
H2671 C2703 0.928 . S
O2672 Co2656 2.057 . S
O2672 C2660 1.232 . S
H2673 C2692 0.929 . S
H2674 C2693 0.929 . S
H2675 C2705 0.931 . S
H2676 C2697 0.929 . S
H2677 C2706 0.930 . S
H2678 C2698 0.931 . S
O2679 Co2655 2.097 . S
O2679 C2707 1.214 . S
H2680 C2708 0.929 . S
H2681 C2709 0.929 . S
H2682 C2710 0.930 . S
H2683 C2711 0.929 . S
H2684 C2713 0.930 . S
H2685 C2690 0.930 . S
H2686 C2694 0.930 . S
O2687 Co2656 2.037 . S
O2687 C2707 1.234 . S
C2688 O2662 1.269 . S
C2688 O2663 1.257 . S
C2689 H2664 0.930 . S
C2689 C2692 1.388 . S
C2689 C2694 1.418 . S
C2690 H2685 0.930 . S
C2690 C2693 1.404 . S
C2690 C2694 1.353 . S
N2691 Co2656 2.145 . S
N2691 C2692 1.397 . S
N2691 C2693 1.334 . S
C2692 H2673 0.929 . S
C2692 C2689 1.388 . S
C2692 N2691 1.397 . S
C2693 H2674 0.929 . S
C2693 C2690 1.404 . S
C2693 N2691 1.334 . S
C2694 H2686 0.930 . S
C2694 C2689 1.418 . S
C2694 C2690 1.353 . S
C2695 H2665 0.930 . S
C2695 N2696 1.330 . S
C2695 C2697 1.446 . S
N2696 Co2655 2.151 . S
N2696 C2695 1.330 . S
N2696 C2700 1.418 . S
C2697 H2676 0.929 . S
C2697 C2695 1.446 . S
C2697 C2698 1.332 . S
C2698 H2678 0.931 . S
C2698 C2697 1.332 . S
C2698 C2699 1.267 . S
C2699 H2667 0.929 . S
C2699 C2698 1.267 . S
C2699 C2700 1.251 . S
C2700 H2670 0.929 . S
C2700 N2696 1.418 . S
C2700 C2699 1.251 . S
C2701 H2668 0.930 . S
C2701 C2703 1.406 . S
C2701 C2706 1.261 . S
C2702 H2669 0.930 . S
C2702 N2704 1.325 . S
C2702 C2705 1.357 . S
C2703 H2671 0.928 . S
C2703 C2701 1.406 . S
C2703 N2704 1.261 . S
N2704 Co2655 2.214 . S
N2704 C2702 1.325 . S
N2704 C2703 1.261 . S
C2705 H2675 0.931 . S
C2705 C2702 1.357 . S
C2705 C2706 1.312 . S
C2706 H2677 0.930 . S
C2706 C2701 1.261 . S
C2706 C2705 1.312 . S
C2707 O2679 1.214 . S
C2707 O2687 1.234 . S
C2708 H2680 0.929 . S
C2708 C2711 1.391 . S
C2708 C2713 1.391 . S
C2709 H2681 0.929 . S
C2709 C2710 1.390 . S
C2709 N2712 1.391 . S
C2710 H2682 0.930 . S
C2710 C2709 1.390 . S
C2710 C2711 1.392 . S
C2711 H2683 0.929 . S
C2711 C2708 1.391 . S
C2711 C2710 1.392 . S
N2712 Co2656 2.257 . S
N2712 C2709 1.391 . S
N2712 C2713 1.388 . S
C2713 H2684 0.930 . S
C2713 C2708 1.391 . S
C2713 N2712 1.388 . S
Co2714 O2716 2.143 . S
Co2714 O2722 2.074 . S
Co2714 O2725 2.093 . S
Co2714 O2738 2.097 . S
Co2714 N2755 2.151 . S
Co2714 N2763 2.214 . S
Co2715 O2716 2.160 . S
Co2715 O2721 2.058 . S
Co2715 O2731 2.057 . S
Co2715 O2746 2.037 . S
Co2715 N2750 2.145 . S
Co2715 N2771 2.257 . S
O2716 Co2714 2.143 . S
O2716 Co2715 2.160 . S
C2717 O2718 1.278 . S
C2717 O2725 1.224 . S
O2718 C2717 1.278 . S
C2719 O2720 1.245 . S
C2719 O2731 1.232 . S
O2720 C2719 1.245 . S
O2721 Co2715 2.058 . S
O2721 C2747 1.269 . S
O2722 Co2714 2.074 . S
O2722 C2747 1.257 . S
H2723 C2748 0.930 . S
H2724 C2754 0.930 . S
O2725 Co2714 2.093 . S
O2725 C2717 1.224 . S
H2726 C2758 0.929 . S
H2727 C2760 0.930 . S
H2728 C2761 0.930 . S
H2729 C2759 0.929 . S
H2730 C2762 0.928 . S
O2731 Co2715 2.057 . S
O2731 C2719 1.232 . S
H2732 C2751 0.929 . S
H2733 C2752 0.929 . S
H2734 C2764 0.931 . S
H2735 C2756 0.929 . S
H2736 C2765 0.930 . S
H2737 C2757 0.931 . S
O2738 Co2714 2.097 . S
O2738 C2766 1.214 . S
H2739 C2767 0.929 . S
H2740 C2768 0.929 . S
H2741 C2769 0.930 . S
H2742 C2770 0.929 . S
H2743 C2772 0.930 . S
H2744 C2749 0.930 . S
H2745 C2753 0.930 . S
O2746 Co2715 2.037 . S
O2746 C2766 1.234 . S
C2747 O2721 1.269 . S
C2747 O2722 1.257 . S
C2748 H2723 0.930 . S
C2748 C2751 1.388 . S
C2748 C2753 1.418 . S
C2749 H2744 0.930 . S
C2749 C2752 1.404 . S
C2749 C2753 1.353 . S
N2750 Co2715 2.145 . S
N2750 C2751 1.397 . S
N2750 C2752 1.334 . S
C2751 H2732 0.929 . S
C2751 C2748 1.388 . S
C2751 N2750 1.397 . S
C2752 H2733 0.929 . S
C2752 C2749 1.404 . S
C2752 N2750 1.334 . S
C2753 H2745 0.930 . S
C2753 C2748 1.418 . S
C2753 C2749 1.353 . S
C2754 H2724 0.930 . S
C2754 N2755 1.330 . S
C2754 C2756 1.446 . S
N2755 Co2714 2.151 . S
N2755 C2754 1.330 . S
N2755 C2759 1.418 . S
C2756 H2735 0.929 . S
C2756 C2754 1.446 . S
C2756 C2757 1.332 . S
C2757 H2737 0.931 . S
C2757 C2756 1.332 . S
C2757 C2758 1.267 . S
C2758 H2726 0.929 . S
C2758 C2757 1.267 . S
C2758 C2759 1.251 . S
C2759 H2729 0.929 . S
C2759 N2755 1.418 . S
C2759 C2758 1.251 . S
C2760 H2727 0.930 . S
C2760 C2762 1.406 . S
C2760 C2765 1.261 . S
C2761 H2728 0.930 . S
C2761 N2763 1.325 . S
C2761 C2764 1.357 . S
C2762 H2730 0.928 . S
C2762 C2760 1.406 . S
C2762 N2763 1.261 . S
N2763 Co2714 2.214 . S
N2763 C2761 1.325 . S
N2763 C2762 1.261 . S
C2764 H2734 0.931 . S
C2764 C2761 1.357 . S
C2764 C2765 1.312 . S
C2765 H2736 0.930 . S
C2765 C2760 1.261 . S
C2765 C2764 1.312 . S
C2766 O2738 1.214 . S
C2766 O2746 1.234 . S
C2767 H2739 0.929 . S
C2767 C2770 1.391 . S
C2767 C2772 1.391 . S
C2768 H2740 0.929 . S
C2768 C2769 1.390 . S
C2768 N2771 1.391 . S
C2769 H2741 0.930 . S
C2769 C2768 1.390 . S
C2769 C2770 1.392 . S
C2770 H2742 0.929 . S
C2770 C2767 1.391 . S
C2770 C2769 1.392 . S
N2771 Co2715 2.257 . S
N2771 C2768 1.391 . S
N2771 C2772 1.388 . S
C2772 H2743 0.930 . S
C2772 C2767 1.391 . S
C2772 N2771 1.388 . S
Co2773 O2775 2.143 . S
Co2773 O2781 2.074 . S
Co2773 O2784 2.093 . S
Co2773 O2797 2.097 . S
Co2773 N2814 2.151 . S
Co2773 N2822 2.214 . S
Co2774 O2775 2.160 . S
Co2774 O2780 2.058 . S
Co2774 O2790 2.057 . S
Co2774 O2805 2.037 . S
Co2774 N2809 2.145 . S
Co2774 N2830 2.257 . S
O2775 Co2773 2.143 . S
O2775 Co2774 2.160 . S
C2776 O2777 1.278 . S
C2776 O2784 1.224 . S
O2777 C2776 1.278 . S
C2778 O2779 1.245 . S
C2778 O2790 1.232 . S
O2779 C2778 1.245 . S
O2780 Co2774 2.058 . S
O2780 C2806 1.269 . S
O2781 Co2773 2.074 . S
O2781 C2806 1.257 . S
H2782 C2807 0.930 . S
H2783 C2813 0.930 . S
O2784 Co2773 2.093 . S
O2784 C2776 1.224 . S
H2785 C2817 0.929 . S
H2786 C2819 0.930 . S
H2787 C2820 0.930 . S
H2788 C2818 0.929 . S
H2789 C2821 0.928 . S
O2790 Co2774 2.057 . S
O2790 C2778 1.232 . S
H2791 C2810 0.929 . S
H2792 C2811 0.929 . S
H2793 C2823 0.931 . S
H2794 C2815 0.929 . S
H2795 C2824 0.930 . S
H2796 C2816 0.931 . S
O2797 Co2773 2.097 . S
O2797 C2825 1.214 . S
H2798 C2826 0.929 . S
H2799 C2827 0.929 . S
H2800 C2828 0.930 . S
H2801 C2829 0.929 . S
H2802 C2831 0.930 . S
H2803 C2808 0.930 . S
H2804 C2812 0.930 . S
O2805 Co2774 2.037 . S
O2805 C2825 1.234 . S
C2806 O2780 1.269 . S
C2806 O2781 1.257 . S
C2807 H2782 0.930 . S
C2807 C2810 1.388 . S
C2807 C2812 1.418 . S
C2808 H2803 0.930 . S
C2808 C2811 1.404 . S
C2808 C2812 1.353 . S
N2809 Co2774 2.145 . S
N2809 C2810 1.397 . S
N2809 C2811 1.334 . S
C2810 H2791 0.929 . S
C2810 C2807 1.388 . S
C2810 N2809 1.397 . S
C2811 H2792 0.929 . S
C2811 C2808 1.404 . S
C2811 N2809 1.334 . S
C2812 H2804 0.930 . S
C2812 C2807 1.418 . S
C2812 C2808 1.353 . S
C2813 H2783 0.930 . S
C2813 N2814 1.330 . S
C2813 C2815 1.446 . S
N2814 Co2773 2.151 . S
N2814 C2813 1.330 . S
N2814 C2818 1.418 . S
C2815 H2794 0.929 . S
C2815 C2813 1.446 . S
C2815 C2816 1.332 . S
C2816 H2796 0.931 . S
C2816 C2815 1.332 . S
C2816 C2817 1.267 . S
C2817 H2785 0.929 . S
C2817 C2816 1.267 . S
C2817 C2818 1.251 . S
C2818 H2788 0.929 . S
C2818 N2814 1.418 . S
C2818 C2817 1.251 . S
C2819 H2786 0.930 . S
C2819 C2821 1.406 . S
C2819 C2824 1.261 . S
C2820 H2787 0.930 . S
C2820 N2822 1.325 . S
C2820 C2823 1.357 . S
C2821 H2789 0.928 . S
C2821 C2819 1.406 . S
C2821 N2822 1.261 . S
N2822 Co2773 2.214 . S
N2822 C2820 1.325 . S
N2822 C2821 1.261 . S
C2823 H2793 0.931 . S
C2823 C2820 1.357 . S
C2823 C2824 1.312 . S
C2824 H2795 0.930 . S
C2824 C2819 1.261 . S
C2824 C2823 1.312 . S
C2825 O2797 1.214 . S
C2825 O2805 1.234 . S
C2826 H2798 0.929 . S
C2826 C2829 1.391 . S
C2826 C2831 1.391 . S
C2827 H2799 0.929 . S
C2827 C2828 1.390 . S
C2827 N2830 1.391 . S
C2828 H2800 0.930 . S
C2828 C2827 1.390 . S
C2828 C2829 1.392 . S
C2829 H2801 0.929 . S
C2829 C2826 1.391 . S
C2829 C2828 1.392 . S
N2830 Co2774 2.257 . S
N2830 C2827 1.391 . S
N2830 C2831 1.388 . S
C2831 H2802 0.930 . S
C2831 C2826 1.391 . S
C2831 N2830 1.388 . S
C2832 C2833 1.387 . S
C2832 H2836 0.950 . S
C2832 C2841 1.390 . S
C2833 C2832 1.387 . S
C2833 C2835 1.387 . S
H2834 C2841 0.950 . S
C2835 C2833 1.387 . S
C2835 C2837 1.390 . S
C2835 H2839 0.950 . S
H2836 C2832 0.950 . S
C2837 C2835 1.390 . S
C2837 C2838 1.387 . S
C2837 H2840 0.950 . S
C2838 C2837 1.387 . S
C2838 C2841 1.387 . S
H2839 C2835 0.950 . S
H2840 C2837 0.950 . S
C2841 C2832 1.390 . S
C2841 H2834 0.950 . S
C2841 C2838 1.387 . S
C2842 C2843 1.387 . S
C2842 H2846 0.950 . S
C2842 C2851 1.390 . S
C2843 C2842 1.387 . S
C2843 C2845 1.387 . S
H2844 C2851 0.950 . S
C2845 C2843 1.387 . S
C2845 C2847 1.390 . S
C2845 H2849 0.950 . S
H2846 C2842 0.950 . S
C2847 C2845 1.390 . S
C2847 C2848 1.387 . S
C2847 H2850 0.950 . S
C2848 C2847 1.387 . S
C2848 C2851 1.387 . S
H2849 C2845 0.950 . S
H2850 C2847 0.950 . S
C2851 C2842 1.390 . S
C2851 H2844 0.950 . S
C2851 C2848 1.387 . S
C2852 C2853 1.387 . S
C2852 H2856 0.950 . S
C2852 C2861 1.390 . S
C2853 C2852 1.387 . S
C2853 C2855 1.387 . S
H2854 C2861 0.950 . S
C2855 C2853 1.387 . S
C2855 C2857 1.390 . S
C2855 H2859 0.950 . S
H2856 C2852 0.950 . S
C2857 C2855 1.390 . S
C2857 C2858 1.387 . S
C2857 H2860 0.950 . S
C2858 C2857 1.387 . S
C2858 C2861 1.387 . S
H2859 C2855 0.950 . S
H2860 C2857 0.950 . S
C2861 C2852 1.390 . S
C2861 H2854 0.950 . S
C2861 C2858 1.387 . S
C2862 C2863 1.387 . S
C2862 H2866 0.950 . S
C2862 C2871 1.390 . S
C2863 C2862 1.387 . S
C2863 C2865 1.387 . S
H2864 C2871 0.950 . S
C2865 C2863 1.387 . S
C2865 C2867 1.390 . S
C2865 H2869 0.950 . S
H2866 C2862 0.950 . S
C2867 C2865 1.390 . S
C2867 C2868 1.387 . S
C2867 H2870 0.950 . S
C2868 C2867 1.387 . S
C2868 C2871 1.387 . S
H2869 C2865 0.950 . S
H2870 C2867 0.950 . S
C2871 C2862 1.390 . S
C2871 H2864 0.950 . S
C2871 C2868 1.387 . S
C2872 C2873 1.387 . S
C2872 H2876 0.950 . S
C2872 C2881 1.390 . S
C2873 C2872 1.387 . S
C2873 C2875 1.387 . S
H2874 C2881 0.950 . S
C2875 C2873 1.387 . S
C2875 C2877 1.390 . S
C2875 H2879 0.950 . S
H2876 C2872 0.950 . S
C2877 C2875 1.390 . S
C2877 C2878 1.387 . S
C2877 H2880 0.950 . S
C2878 C2877 1.387 . S
C2878 C2881 1.387 . S
H2879 C2875 0.950 . S
H2880 C2877 0.950 . S
C2881 C2872 1.390 . S
C2881 H2874 0.950 . S
C2881 C2878 1.387 . S
C2882 C2883 1.387 . S
C2882 H2886 0.950 . S
C2882 C2891 1.390 . S
C2883 C2882 1.387 . S
C2883 C2885 1.387 . S
H2884 C2891 0.950 . S
C2885 C2883 1.387 . S
C2885 C2887 1.390 . S
C2885 H2889 0.950 . S
H2886 C2882 0.950 . S
C2887 C2885 1.390 . S
C2887 C2888 1.387 . S
C2887 H2890 0.950 . S
C2888 C2887 1.387 . S
C2888 C2891 1.387 . S
H2889 C2885 0.950 . S
H2890 C2887 0.950 . S
C2891 C2882 1.390 . S
C2891 H2884 0.950 . S
C2891 C2888 1.387 . S
C2892 C2893 1.387 . S
C2892 H2896 0.950 . S
C2892 C2901 1.390 . S
C2893 C2892 1.387 . S
C2893 C2895 1.387 . S
H2894 C2901 0.950 . S
C2895 C2893 1.387 . S
C2895 C2897 1.390 . S
C2895 H2899 0.950 . S
H2896 C2892 0.950 . S
C2897 C2895 1.390 . S
C2897 C2898 1.387 . S
C2897 H2900 0.950 . S
C2898 C2897 1.387 . S
C2898 C2901 1.387 . S
H2899 C2895 0.950 . S
H2900 C2897 0.950 . S
C2901 C2892 1.390 . S
C2901 H2894 0.950 . S
C2901 C2898 1.387 . S
C2902 C2903 1.387 . S
C2902 H2906 0.950 . S
C2902 C2911 1.390 . S
C2903 C2902 1.387 . S
C2903 C2905 1.387 . S
H2904 C2911 0.950 . S
C2905 C2903 1.387 . S
C2905 C2907 1.390 . S
C2905 H2909 0.950 . S
H2906 C2902 0.950 . S
C2907 C2905 1.390 . S
C2907 C2908 1.387 . S
C2907 H2910 0.950 . S
C2908 C2907 1.387 . S
C2908 C2911 1.387 . S
H2909 C2905 0.950 . S
H2910 C2907 0.950 . S
C2911 C2902 1.390 . S
C2911 H2904 0.950 . S
C2911 C2908 1.387 . S
C2912 C2913 1.387 . S
C2912 H2916 0.950 . S
C2912 C2921 1.390 . S
C2913 C2912 1.387 . S
C2913 C2915 1.387 . S
H2914 C2921 0.950 . S
C2915 C2913 1.387 . S
C2915 C2917 1.390 . S
C2915 H2919 0.950 . S
H2916 C2912 0.950 . S
C2917 C2915 1.390 . S
C2917 C2918 1.387 . S
C2917 H2920 0.950 . S
C2918 C2917 1.387 . S
C2918 C2921 1.387 . S
H2919 C2915 0.950 . S
H2920 C2917 0.950 . S
C2921 C2912 1.390 . S
C2921 H2914 0.950 . S
C2921 C2918 1.387 . S
C2922 C2923 1.387 . S
C2922 H2926 0.950 . S
C2922 C2931 1.390 . S
C2923 C2922 1.387 . S
C2923 C2925 1.387 . S
H2924 C2931 0.950 . S
C2925 C2923 1.387 . S
C2925 C2927 1.390 . S
C2925 H2929 0.950 . S
H2926 C2922 0.950 . S
C2927 C2925 1.390 . S
C2927 C2928 1.387 . S
C2927 H2930 0.950 . S
C2928 C2927 1.387 . S
C2928 C2931 1.387 . S
H2929 C2925 0.950 . S
H2930 C2927 0.950 . S
C2931 C2922 1.390 . S
C2931 H2924 0.950 . S
C2931 C2928 1.387 . S
C2932 C2933 1.387 . S
C2932 H2936 0.950 . S
C2932 C2941 1.390 . S
C2933 C2932 1.387 . S
C2933 C2935 1.387 . S
H2934 C2941 0.950 . S
C2935 C2933 1.387 . S
C2935 C2937 1.390 . S
C2935 H2939 0.950 . S
H2936 C2932 0.950 . S
C2937 C2935 1.390 . S
C2937 C2938 1.387 . S
C2937 H2940 0.950 . S
C2938 C2937 1.387 . S
C2938 C2941 1.387 . S
H2939 C2935 0.950 . S
H2940 C2937 0.950 . S
C2941 C2932 1.390 . S
C2941 H2934 0.950 . S
C2941 C2938 1.387 . S
C2942 C2943 1.387 . S
C2942 H2946 0.950 . S
C2942 C2951 1.390 . S
C2943 C2942 1.387 . S
C2943 C2945 1.387 . S
H2944 C2951 0.950 . S
C2945 C2943 1.387 . S
C2945 C2947 1.390 . S
C2945 H2949 0.950 . S
H2946 C2942 0.950 . S
C2947 C2945 1.390 . S
C2947 C2948 1.387 . S
C2947 H2950 0.950 . S
C2948 C2947 1.387 . S
C2948 C2951 1.387 . S
H2949 C2945 0.950 . S
H2950 C2947 0.950 . S
C2951 C2942 1.390 . S
C2951 H2944 0.950 . S
C2951 C2948 1.387 . S
C2952 C2953 1.387 . S
C2952 H2956 0.950 . S
C2952 C2961 1.390 . S
C2953 C2952 1.387 . S
C2953 C2955 1.387 . S
H2954 C2961 0.950 . S
C2955 C2953 1.387 . S
C2955 C2957 1.390 . S
C2955 H2959 0.950 . S
H2956 C2952 0.950 . S
C2957 C2955 1.390 . S
C2957 C2958 1.387 . S
C2957 H2960 0.950 . S
C2958 C2957 1.387 . S
C2958 C2961 1.387 . S
H2959 C2955 0.950 . S
H2960 C2957 0.950 . S
C2961 C2952 1.390 . S
C2961 H2954 0.950 . S
C2961 C2958 1.387 . S
C2962 C2963 1.387 . S
C2962 H2966 0.950 . S
C2962 C2971 1.390 . S
C2963 C2962 1.387 . S
C2963 C2965 1.387 . S
H2964 C2971 0.950 . S
C2965 C2963 1.387 . S
C2965 C2967 1.390 . S
C2965 H2969 0.950 . S
H2966 C2962 0.950 . S
C2967 C2965 1.390 . S
C2967 C2968 1.387 . S
C2967 H2970 0.950 . S
C2968 C2967 1.387 . S
C2968 C2971 1.387 . S
H2969 C2965 0.950 . S
H2970 C2967 0.950 . S
C2971 C2962 1.390 . S
C2971 H2964 0.950 . S
C2971 C2968 1.387 . S
C2972 C2973 1.387 . S
C2972 H2976 0.950 . S
C2972 C2981 1.390 . S
C2973 C2972 1.387 . S
C2973 C2975 1.387 . S
H2974 C2981 0.950 . S
C2975 C2973 1.387 . S
C2975 C2977 1.390 . S
C2975 H2979 0.950 . S
H2976 C2972 0.950 . S
C2977 C2975 1.390 . S
C2977 C2978 1.387 . S
C2977 H2980 0.950 . S
C2978 C2977 1.387 . S
C2978 C2981 1.387 . S
H2979 C2975 0.950 . S
H2980 C2977 0.950 . S
C2981 C2972 1.390 . S
C2981 H2974 0.950 . S
C2981 C2978 1.387 . S
C2982 C2983 1.387 . S
C2982 H2986 0.950 . S
C2982 C2991 1.390 . S
C2983 C2982 1.387 . S
C2983 C2985 1.387 . S
H2984 C2991 0.950 . S
C2985 C2983 1.387 . S
C2985 C2987 1.390 . S
C2985 H2989 0.950 . S
H2986 C2982 0.950 . S
C2987 C2985 1.390 . S
C2987 C2988 1.387 . S
C2987 H2990 0.950 . S
C2988 C2987 1.387 . S
C2988 C2991 1.387 . S
H2989 C2985 0.950 . S
H2990 C2987 0.950 . S
C2991 C2982 1.390 . S
C2991 H2984 0.950 . S
C2991 C2988 1.387 . S
C2992 C2993 1.387 . S
C2992 H2996 0.950 . S
C2992 C3001 1.390 . S
C2993 C2992 1.387 . S
C2993 C2995 1.387 . S
H2994 C3001 0.950 . S
C2995 C2993 1.387 . S
C2995 C2997 1.390 . S
C2995 H2999 0.950 . S
H2996 C2992 0.950 . S
C2997 C2995 1.390 . S
C2997 C2998 1.387 . S
C2997 H3000 0.950 . S
C2998 C2997 1.387 . S
C2998 C3001 1.387 . S
H2999 C2995 0.950 . S
H3000 C2997 0.950 . S
C3001 C2992 1.390 . S
C3001 H2994 0.950 . S
C3001 C2998 1.387 . S
C3002 C3003 1.387 . S
C3002 H3006 0.950 . S
C3002 C3011 1.390 . S
C3003 C3002 1.387 . S
C3003 C3005 1.387 . S
H3004 C3011 0.950 . S
C3005 C3003 1.387 . S
C3005 C3007 1.390 . S
C3005 H3009 0.950 . S
H3006 C3002 0.950 . S
C3007 C3005 1.390 . S
C3007 C3008 1.387 . S
C3007 H3010 0.950 . S
C3008 C3007 1.387 . S
C3008 C3011 1.387 . S
H3009 C3005 0.950 . S
H3010 C3007 0.950 . S
C3011 C3002 1.390 . S
C3011 H3004 0.950 . S
C3011 C3008 1.387 . S
C3012 C3013 1.387 . S
C3012 H3016 0.950 . S
C3012 C3021 1.390 . S
C3013 C3012 1.387 . S
C3013 C3015 1.387 . S
H3014 C3021 0.950 . S
C3015 C3013 1.387 . S
C3015 C3017 1.390 . S
C3015 H3019 0.950 . S
H3016 C3012 0.950 . S
C3017 C3015 1.390 . S
C3017 C3018 1.387 . S
C3017 H3020 0.950 . S
C3018 C3017 1.387 . S
C3018 C3021 1.387 . S
H3019 C3015 0.950 . S
H3020 C3017 0.950 . S
C3021 C3012 1.390 . S
C3021 H3014 0.950 . S
C3021 C3018 1.387 . S
C3022 C3023 1.387 . S
C3022 H3026 0.950 . S
C3022 C3031 1.390 . S
C3023 C3022 1.387 . S
C3023 C3025 1.387 . S
H3024 C3031 0.950 . S
C3025 C3023 1.387 . S
C3025 C3027 1.390 . S
C3025 H3029 0.950 . S
H3026 C3022 0.950 . S
C3027 C3025 1.390 . S
C3027 C3028 1.387 . S
C3027 H3030 0.950 . S
C3028 C3027 1.387 . S
C3028 C3031 1.387 . S
H3029 C3025 0.950 . S
H3030 C3027 0.950 . S
C3031 C3022 1.390 . S
C3031 H3024 0.950 . S
C3031 C3028 1.387 . S
C3032 C3033 1.387 . S
C3032 H3036 0.950 . S
C3032 C3041 1.390 . S
C3033 C3032 1.387 . S
C3033 C3035 1.387 . S
H3034 C3041 0.950 . S
C3035 C3033 1.387 . S
C3035 C3037 1.390 . S
C3035 H3039 0.950 . S
H3036 C3032 0.950 . S
C3037 C3035 1.390 . S
C3037 C3038 1.387 . S
C3037 H3040 0.950 . S
C3038 C3037 1.387 . S
C3038 C3041 1.387 . S
H3039 C3035 0.950 . S
H3040 C3037 0.950 . S
C3041 C3032 1.390 . S
C3041 H3034 0.950 . S
C3041 C3038 1.387 . S
C3042 C3043 1.387 . S
C3042 H3046 0.950 . S
C3042 C3051 1.390 . S
C3043 C3042 1.387 . S
C3043 C3045 1.387 . S
H3044 C3051 0.950 . S
C3045 C3043 1.387 . S
C3045 C3047 1.390 . S
C3045 H3049 0.950 . S
H3046 C3042 0.950 . S
C3047 C3045 1.390 . S
C3047 C3048 1.387 . S
C3047 H3050 0.950 . S
C3048 C3047 1.387 . S
C3048 C3051 1.387 . S
H3049 C3045 0.950 . S
H3050 C3047 0.950 . S
C3051 C3042 1.390 . S
C3051 H3044 0.950 . S
C3051 C3048 1.387 . S
C3052 C3053 1.387 . S
C3052 H3056 0.950 . S
C3052 C3061 1.390 . S
C3053 C3052 1.387 . S
C3053 C3055 1.387 . S
H3054 C3061 0.950 . S
C3055 C3053 1.387 . S
C3055 C3057 1.390 . S
C3055 H3059 0.950 . S
H3056 C3052 0.950 . S
C3057 C3055 1.390 . S
C3057 C3058 1.387 . S
C3057 H3060 0.950 . S
C3058 C3057 1.387 . S
C3058 C3061 1.387 . S
H3059 C3055 0.950 . S
H3060 C3057 0.950 . S
C3061 C3052 1.390 . S
C3061 H3054 0.950 . S
C3061 C3058 1.387 . S
C3062 C3063 1.387 . S
C3062 H3066 0.950 . S
C3062 C3071 1.390 . S
C3063 C3062 1.387 . S
C3063 C3065 1.387 . S
H3064 C3071 0.950 . S
C3065 C3063 1.387 . S
C3065 C3067 1.390 . S
C3065 H3069 0.950 . S
H3066 C3062 0.950 . S
C3067 C3065 1.390 . S
C3067 C3068 1.387 . S
C3067 H3070 0.950 . S
C3068 C3067 1.387 . S
C3068 C3071 1.387 . S
H3069 C3065 0.950 . S
H3070 C3067 0.950 . S
C3071 C3062 1.390 . S
C3071 H3064 0.950 . S
C3071 C3068 1.387 . S
C3072 C3073 1.387 . S
C3072 H3076 0.950 . S
C3072 C3081 1.390 . S
C3073 C3072 1.387 . S
C3073 C3075 1.387 . S
H3074 C3081 0.950 . S
C3075 C3073 1.387 . S
C3075 C3077 1.390 . S
C3075 H3079 0.950 . S
H3076 C3072 0.950 . S
C3077 C3075 1.390 . S
C3077 C3078 1.387 . S
C3077 H3080 0.950 . S
C3078 C3077 1.387 . S
C3078 C3081 1.387 . S
H3079 C3075 0.950 . S
H3080 C3077 0.950 . S
C3081 C3072 1.390 . S
C3081 H3074 0.950 . S
C3081 C3078 1.387 . S
C3082 C3083 1.387 . S
C3082 H3086 0.950 . S
C3082 C3091 1.390 . S
C3083 C3082 1.387 . S
C3083 C3085 1.387 . S
H3084 C3091 0.950 . S
C3085 C3083 1.387 . S
C3085 C3087 1.390 . S
C3085 H3089 0.950 . S
H3086 C3082 0.950 . S
C3087 C3085 1.390 . S
C3087 C3088 1.387 . S
C3087 H3090 0.950 . S
C3088 C3087 1.387 . S
C3088 C3091 1.387 . S
H3089 C3085 0.950 . S
H3090 C3087 0.950 . S
C3091 C3082 1.390 . S
C3091 H3084 0.950 . S
C3091 C3088 1.387 . S
C3092 C3093 1.387 . S
C3092 H3096 0.950 . S
C3092 C3101 1.390 . S
C3093 C3092 1.387 . S
C3093 C3095 1.387 . S
H3094 C3101 0.950 . S
C3095 C3093 1.387 . S
C3095 C3097 1.390 . S
C3095 H3099 0.950 . S
H3096 C3092 0.950 . S
C3097 C3095 1.390 . S
C3097 C3098 1.387 . S
C3097 H3100 0.950 . S
C3098 C3097 1.387 . S
C3098 C3101 1.387 . S
H3099 C3095 0.950 . S
H3100 C3097 0.950 . S
C3101 C3092 1.390 . S
C3101 H3094 0.950 . S
C3101 C3098 1.387 . S
C3102 C3103 1.387 . S
C3102 H3106 0.950 . S
C3102 C3111 1.390 . S
C3103 C3102 1.387 . S
C3103 C3105 1.387 . S
H3104 C3111 0.950 . S
C3105 C3103 1.387 . S
C3105 C3107 1.390 . S
C3105 H3109 0.950 . S
H3106 C3102 0.950 . S
C3107 C3105 1.390 . S
C3107 C3108 1.387 . S
C3107 H3110 0.950 . S
C3108 C3107 1.387 . S
C3108 C3111 1.387 . S
H3109 C3105 0.950 . S
H3110 C3107 0.950 . S
C3111 C3102 1.390 . S
C3111 H3104 0.950 . S
C3111 C3108 1.387 . S
C3112 C3113 1.387 . S
C3112 H3116 0.950 . S
C3112 C3121 1.390 . S
C3113 C3112 1.387 . S
C3113 C3115 1.387 . S
H3114 C3121 0.950 . S
C3115 C3113 1.387 . S
C3115 C3117 1.390 . S
C3115 H3119 0.950 . S
H3116 C3112 0.950 . S
C3117 C3115 1.390 . S
C3117 C3118 1.387 . S
C3117 H3120 0.950 . S
C3118 C3117 1.387 . S
C3118 C3121 1.387 . S
H3119 C3115 0.950 . S
H3120 C3117 0.950 . S
C3121 C3112 1.390 . S
C3121 H3114 0.950 . S
C3121 C3118 1.387 . S
C3122 C3123 1.387 . S
C3122 H3126 0.950 . S
C3122 C3131 1.390 . S
C3123 C3122 1.387 . S
C3123 C3125 1.387 . S
H3124 C3131 0.950 . S
C3125 C3123 1.387 . S
C3125 C3127 1.390 . S
C3125 H3129 0.950 . S
H3126 C3122 0.950 . S
C3127 C3125 1.390 . S
C3127 C3128 1.387 . S
C3127 H3130 0.950 . S
C3128 C3127 1.387 . S
C3128 C3131 1.387 . S
H3129 C3125 0.950 . S
H3130 C3127 0.950 . S
C3131 C3122 1.390 . S
C3131 H3124 0.950 . S
C3131 C3128 1.387 . S
C3132 C3133 1.387 . S
C3132 H3136 0.950 . S
C3132 C3141 1.390 . S
C3133 C3132 1.387 . S
C3133 C3135 1.387 . S
H3134 C3141 0.950 . S
C3135 C3133 1.387 . S
C3135 C3137 1.390 . S
C3135 H3139 0.950 . S
H3136 C3132 0.950 . S
C3137 C3135 1.390 . S
C3137 C3138 1.387 . S
C3137 H3140 0.950 . S
C3138 C3137 1.387 . S
C3138 C3141 1.387 . S
H3139 C3135 0.950 . S
H3140 C3137 0.950 . S
C3141 C3132 1.390 . S
C3141 H3134 0.950 . S
C3141 C3138 1.387 . S
C3142 C3143 1.387 . S
C3142 H3146 0.950 . S
C3142 C3151 1.390 . S
C3143 C3142 1.387 . S
C3143 C3145 1.387 . S
H3144 C3151 0.950 . S
C3145 C3143 1.387 . S
C3145 C3147 1.390 . S
C3145 H3149 0.950 . S
H3146 C3142 0.950 . S
C3147 C3145 1.390 . S
C3147 C3148 1.387 . S
C3147 H3150 0.950 . S
C3148 C3147 1.387 . S
C3148 C3151 1.387 . S
H3149 C3145 0.950 . S
H3150 C3147 0.950 . S
C3151 C3142 1.390 . S
C3151 H3144 0.950 . S
C3151 C3148 1.387 . S
C3152 C3153 1.387 . S
C3152 H3156 0.950 . S
C3152 C3161 1.390 . S
C3153 C3152 1.387 . S
C3153 C3155 1.387 . S
H3154 C3161 0.950 . S
C3155 C3153 1.387 . S
C3155 C3157 1.390 . S
C3155 H3159 0.950 . S
H3156 C3152 0.950 . S
C3157 C3155 1.390 . S
C3157 C3158 1.387 . S
C3157 H3160 0.950 . S
C3158 C3157 1.387 . S
C3158 C3161 1.387 . S
H3159 C3155 0.950 . S
H3160 C3157 0.950 . S
C3161 C3152 1.390 . S
C3161 H3154 0.950 . S
C3161 C3158 1.387 . S
C3162 C3163 1.387 . S
C3162 H3166 0.950 . S
C3162 C3171 1.390 . S
C3163 C3162 1.387 . S
C3163 C3165 1.387 . S
H3164 C3171 0.950 . S
C3165 C3163 1.387 . S
C3165 C3167 1.390 . S
C3165 H3169 0.950 . S
H3166 C3162 0.950 . S
C3167 C3165 1.390 . S
C3167 C3168 1.387 . S
C3167 H3170 0.950 . S
C3168 C3167 1.387 . S
C3168 C3171 1.387 . S
H3169 C3165 0.950 . S
H3170 C3167 0.950 . S
C3171 C3162 1.390 . S
C3171 H3164 0.950 . S
C3171 C3168 1.387 . S
C3172 C3173 1.387 . S
C3172 H3176 0.950 . S
C3172 C3181 1.390 . S
C3173 C3172 1.387 . S
C3173 C3175 1.387 . S
H3174 C3181 0.950 . S
C3175 C3173 1.387 . S
C3175 C3177 1.390 . S
C3175 H3179 0.950 . S
H3176 C3172 0.950 . S
C3177 C3175 1.390 . S
C3177 C3178 1.387 . S
C3177 H3180 0.950 . S
C3178 C3177 1.387 . S
C3178 C3181 1.387 . S
H3179 C3175 0.950 . S
H3180 C3177 0.950 . S
C3181 C3172 1.390 . S
C3181 H3174 0.950 . S
C3181 C3178 1.387 . S
C3182 C3183 1.387 . S
C3182 H3186 0.950 . S
C3182 C3191 1.390 . S
C3183 C3182 1.387 . S
C3183 C3185 1.387 . S
H3184 C3191 0.950 . S
C3185 C3183 1.387 . S
C3185 C3187 1.390 . S
C3185 H3189 0.950 . S
H3186 C3182 0.950 . S
C3187 C3185 1.390 . S
C3187 C3188 1.387 . S
C3187 H3190 0.950 . S
C3188 C3187 1.387 . S
C3188 C3191 1.387 . S
H3189 C3185 0.950 . S
H3190 C3187 0.950 . S
C3191 C3182 1.390 . S
C3191 H3184 0.950 . S
C3191 C3188 1.387 . S
C3192 C3193 1.387 . S
C3192 H3196 0.950 . S
C3192 C3201 1.390 . S
C3193 C3192 1.387 . S
C3193 C3195 1.387 . S
H3194 C3201 0.950 . S
C3195 C3193 1.387 . S
C3195 C3197 1.390 . S
C3195 H3199 0.950 . S
H3196 C3192 0.950 . S
C3197 C3195 1.390 . S
C3197 C3198 1.387 . S
C3197 H3200 0.950 . S
C3198 C3197 1.387 . S
C3198 C3201 1.387 . S
H3199 C3195 0.950 . S
H3200 C3197 0.950 . S
C3201 C3192 1.390 . S
C3201 H3194 0.950 . S
C3201 C3198 1.387 . S
C3202 C3203 1.387 . S
C3202 H3206 0.950 . S
C3202 C3211 1.390 . S
C3203 C3202 1.387 . S
C3203 C3205 1.387 . S
H3204 C3211 0.950 . S
C3205 C3203 1.387 . S
C3205 C3207 1.390 . S
C3205 H3209 0.950 . S
H3206 C3202 0.950 . S
C3207 C3205 1.390 . S
C3207 C3208 1.387 . S
C3207 H3210 0.950 . S
C3208 C3207 1.387 . S
C3208 C3211 1.387 . S
H3209 C3205 0.950 . S
H3210 C3207 0.950 . S
C3211 C3202 1.390 . S
C3211 H3204 0.950 . S
C3211 C3208 1.387 . S
C3212 C3213 1.387 . S
C3212 H3216 0.950 . S
C3212 C3221 1.390 . S
C3213 C3212 1.387 . S
C3213 C3215 1.387 . S
H3214 C3221 0.950 . S
C3215 C3213 1.387 . S
C3215 C3217 1.390 . S
C3215 H3219 0.950 . S
H3216 C3212 0.950 . S
C3217 C3215 1.390 . S
C3217 C3218 1.387 . S
C3217 H3220 0.950 . S
C3218 C3217 1.387 . S
C3218 C3221 1.387 . S
H3219 C3215 0.950 . S
H3220 C3217 0.950 . S
C3221 C3212 1.390 . S
C3221 H3214 0.950 . S
C3221 C3218 1.387 . S
C3222 C3223 1.387 . S
C3222 H3226 0.950 . S
C3222 C3231 1.390 . S
C3223 C3222 1.387 . S
C3223 C3225 1.387 . S
H3224 C3231 0.950 . S
C3225 C3223 1.387 . S
C3225 C3227 1.390 . S
C3225 H3229 0.950 . S
H3226 C3222 0.950 . S
C3227 C3225 1.390 . S
C3227 C3228 1.387 . S
C3227 H3230 0.950 . S
C3228 C3227 1.387 . S
C3228 C3231 1.387 . S
H3229 C3225 0.950 . S
H3230 C3227 0.950 . S
C3231 C3222 1.390 . S
C3231 H3224 0.950 . S
C3231 C3228 1.387 . S
C3232 C3233 1.387 . S
C3232 H3236 0.950 . S
C3232 C3241 1.390 . S
C3233 C3232 1.387 . S
C3233 C3235 1.387 . S
H3234 C3241 0.950 . S
C3235 C3233 1.387 . S
C3235 C3237 1.390 . S
C3235 H3239 0.950 . S
H3236 C3232 0.950 . S
C3237 C3235 1.390 . S
C3237 C3238 1.387 . S
C3237 H3240 0.950 . S
C3238 C3237 1.387 . S
C3238 C3241 1.387 . S
H3239 C3235 0.950 . S
H3240 C3237 0.950 . S
C3241 C3232 1.390 . S
C3241 H3234 0.950 . S
C3241 C3238 1.387 . S
C3242 C3243 1.387 . S
C3242 H3246 0.950 . S
C3242 C3251 1.390 . S
C3243 C3242 1.387 . S
C3243 C3245 1.387 . S
H3244 C3251 0.950 . S
C3245 C3243 1.387 . S
C3245 C3247 1.390 . S
C3245 H3249 0.950 . S
H3246 C3242 0.950 . S
C3247 C3245 1.390 . S
C3247 C3248 1.387 . S
C3247 H3250 0.950 . S
C3248 C3247 1.387 . S
C3248 C3251 1.387 . S
H3249 C3245 0.950 . S
H3250 C3247 0.950 . S
C3251 C3242 1.390 . S
C3251 H3244 0.950 . S
C3251 C3248 1.387 . S
C3252 C3253 1.387 . S
C3252 H3256 0.950 . S
C3252 C3261 1.390 . S
C3253 C3252 1.387 . S
C3253 C3255 1.387 . S
H3254 C3261 0.950 . S
C3255 C3253 1.387 . S
C3255 C3257 1.390 . S
C3255 H3259 0.950 . S
H3256 C3252 0.950 . S
C3257 C3255 1.390 . S
C3257 C3258 1.387 . S
C3257 H3260 0.950 . S
C3258 C3257 1.387 . S
C3258 C3261 1.387 . S
H3259 C3255 0.950 . S
H3260 C3257 0.950 . S
C3261 C3252 1.390 . S
C3261 H3254 0.950 . S
C3261 C3258 1.387 . S
C3262 C3263 1.387 . S
C3262 H3266 0.950 . S
C3262 C3271 1.390 . S
C3263 C3262 1.387 . S
C3263 C3265 1.387 . S
H3264 C3271 0.950 . S
C3265 C3263 1.387 . S
C3265 C3267 1.390 . S
C3265 H3269 0.950 . S
H3266 C3262 0.950 . S
C3267 C3265 1.390 . S
C3267 C3268 1.387 . S
C3267 H3270 0.950 . S
C3268 C3267 1.387 . S
C3268 C3271 1.387 . S
H3269 C3265 0.950 . S
H3270 C3267 0.950 . S
C3271 C3262 1.390 . S
C3271 H3264 0.950 . S
C3271 C3268 1.387 . S
C3272 C3273 1.387 . S
C3272 H3276 0.950 . S
C3272 C3281 1.390 . S
C3273 C3272 1.387 . S
C3273 C3275 1.387 . S
H3274 C3281 0.950 . S
C3275 C3273 1.387 . S
C3275 C3277 1.390 . S
C3275 H3279 0.950 . S
H3276 C3272 0.950 . S
C3277 C3275 1.390 . S
C3277 C3278 1.387 . S
C3277 H3280 0.950 . S
C3278 C3277 1.387 . S
C3278 C3281 1.387 . S
H3279 C3275 0.950 . S
H3280 C3277 0.950 . S
C3281 C3272 1.390 . S
C3281 H3274 0.950 . S
C3281 C3278 1.387 . S
C3282 C3283 1.387 . S
C3282 H3286 0.950 . S
C3282 C3291 1.390 . S
C3283 C3282 1.387 . S
C3283 C3285 1.387 . S
H3284 C3291 0.950 . S
C3285 C3283 1.387 . S
C3285 C3287 1.390 . S
C3285 H3289 0.950 . S
H3286 C3282 0.950 . S
C3287 C3285 1.390 . S
C3287 C3288 1.387 . S
C3287 H3290 0.950 . S
C3288 C3287 1.387 . S
C3288 C3291 1.387 . S
H3289 C3285 0.950 . S
H3290 C3287 0.950 . S
C3291 C3282 1.390 . S
C3291 H3284 0.950 . S
C3291 C3288 1.387 . S
C3292 C3293 1.387 . S
C3292 H3296 0.950 . S
C3292 C3301 1.390 . S
C3293 C3292 1.387 . S
C3293 C3295 1.387 . S
H3294 C3301 0.950 . S
C3295 C3293 1.387 . S
C3295 C3297 1.390 . S
C3295 H3299 0.950 . S
H3296 C3292 0.950 . S
C3297 C3295 1.390 . S
C3297 C3298 1.387 . S
C3297 H3300 0.950 . S
C3298 C3297 1.387 . S
C3298 C3301 1.387 . S
H3299 C3295 0.950 . S
H3300 C3297 0.950 . S
C3301 C3292 1.390 . S
C3301 H3294 0.950 . S
C3301 C3298 1.387 . S
C3302 C3303 1.387 . S
C3302 H3306 0.950 . S
C3302 C3311 1.390 . S
C3303 C3302 1.387 . S
C3303 C3305 1.387 . S
H3304 C3311 0.950 . S
C3305 C3303 1.387 . S
C3305 C3307 1.390 . S
C3305 H3309 0.950 . S
H3306 C3302 0.950 . S
C3307 C3305 1.390 . S
C3307 C3308 1.387 . S
C3307 H3310 0.950 . S
C3308 C3307 1.387 . S
C3308 C3311 1.387 . S
H3309 C3305 0.950 . S
H3310 C3307 0.950 . S
C3311 C3302 1.390 . S
C3311 H3304 0.950 . S
C3311 C3308 1.387 . S
C3312 C3313 1.387 . S
C3312 H3316 0.950 . S
C3312 C3321 1.390 . S
C3313 C3312 1.387 . S
C3313 C3315 1.387 . S
H3314 C3321 0.950 . S
C3315 C3313 1.387 . S
C3315 C3317 1.390 . S
C3315 H3319 0.950 . S
H3316 C3312 0.950 . S
C3317 C3315 1.390 . S
C3317 C3318 1.387 . S
C3317 H3320 0.950 . S
C3318 C3317 1.387 . S
C3318 C3321 1.387 . S
H3319 C3315 0.950 . S
H3320 C3317 0.950 . S
C3321 C3312 1.390 . S
C3321 H3314 0.950 . S
C3321 C3318 1.387 . S
C3322 C3323 1.387 . S
C3322 H3326 0.950 . S
C3322 C3331 1.390 . S
C3323 C3322 1.387 . S
C3323 C3325 1.387 . S
H3324 C3331 0.950 . S
C3325 C3323 1.387 . S
C3325 C3327 1.390 . S
C3325 H3329 0.950 . S
H3326 C3322 0.950 . S
C3327 C3325 1.390 . S
C3327 C3328 1.387 . S
C3327 H3330 0.950 . S
C3328 C3327 1.387 . S
C3328 C3331 1.387 . S
H3329 C3325 0.950 . S
H3330 C3327 0.950 . S
C3331 C3322 1.390 . S
C3331 H3324 0.950 . S
C3331 C3328 1.387 . S
C3332 C3333 1.387 . S
C3332 H3336 0.950 . S
C3332 C3341 1.390 . S
C3333 C3332 1.387 . S
C3333 C3335 1.387 . S
H3334 C3341 0.950 . S
C3335 C3333 1.387 . S
C3335 C3337 1.390 . S
C3335 H3339 0.950 . S
H3336 C3332 0.950 . S
C3337 C3335 1.390 . S
C3337 C3338 1.387 . S
C3337 H3340 0.950 . S
C3338 C3337 1.387 . S
C3338 C3341 1.387 . S
H3339 C3335 0.950 . S
H3340 C3337 0.950 . S
C3341 C3332 1.390 . S
C3341 H3334 0.950 . S
C3341 C3338 1.387 . S
C3342 C3343 1.387 . S
C3342 H3346 0.950 . S
C3342 C3351 1.390 . S
C3343 C3342 1.387 . S
C3343 C3345 1.387 . S
H3344 C3351 0.950 . S
C3345 C3343 1.387 . S
C3345 C3347 1.390 . S
C3345 H3349 0.950 . S
H3346 C3342 0.950 . S
C3347 C3345 1.390 . S
C3347 C3348 1.387 . S
C3347 H3350 0.950 . S
C3348 C3347 1.387 . S
C3348 C3351 1.387 . S
H3349 C3345 0.950 . S
H3350 C3347 0.950 . S
C3351 C3342 1.390 . S
C3351 H3344 0.950 . S
C3351 C3348 1.387 . S
C3352 C3353 1.387 . S
C3352 H3356 0.950 . S
C3352 C3361 1.390 . S
C3353 C3352 1.387 . S
C3353 C3355 1.387 . S
H3354 C3361 0.950 . S
C3355 C3353 1.387 . S
C3355 C3357 1.390 . S
C3355 H3359 0.950 . S
H3356 C3352 0.950 . S
C3357 C3355 1.390 . S
C3357 C3358 1.387 . S
C3357 H3360 0.950 . S
C3358 C3357 1.387 . S
C3358 C3361 1.387 . S
H3359 C3355 0.950 . S
H3360 C3357 0.950 . S
C3361 C3352 1.390 . S
C3361 H3354 0.950 . S
C3361 C3358 1.387 . S
C3362 C3363 1.387 . S
C3362 H3366 0.950 . S
C3362 C3371 1.390 . S
C3363 C3362 1.387 . S
C3363 C3365 1.387 . S
H3364 C3371 0.950 . S
C3365 C3363 1.387 . S
C3365 C3367 1.390 . S
C3365 H3369 0.950 . S
H3366 C3362 0.950 . S
C3367 C3365 1.390 . S
C3367 C3368 1.387 . S
C3367 H3370 0.950 . S
C3368 C3367 1.387 . S
C3368 C3371 1.387 . S
H3369 C3365 0.950 . S
H3370 C3367 0.950 . S
C3371 C3362 1.390 . S
C3371 H3364 0.950 . S
C3371 C3368 1.387 . S
C3372 C3373 1.387 . S
C3372 H3376 0.950 . S
C3372 C3381 1.390 . S
C3373 C3372 1.387 . S
C3373 C3375 1.387 . S
H3374 C3381 0.950 . S
C3375 C3373 1.387 . S
C3375 C3377 1.390 . S
C3375 H3379 0.950 . S
H3376 C3372 0.950 . S
C3377 C3375 1.390 . S
C3377 C3378 1.387 . S
C3377 H3380 0.950 . S
C3378 C3377 1.387 . S
C3378 C3381 1.387 . S
H3379 C3375 0.950 . S
H3380 C3377 0.950 . S
C3381 C3372 1.390 . S
C3381 H3374 0.950 . S
C3381 C3378 1.387 . S
C3382 C3383 1.387 . S
C3382 H3386 0.950 . S
C3382 C3391 1.390 . S
C3383 C3382 1.387 . S
C3383 C3385 1.387 . S
H3384 C3391 0.950 . S
C3385 C3383 1.387 . S
C3385 C3387 1.390 . S
C3385 H3389 0.950 . S
H3386 C3382 0.950 . S
C3387 C3385 1.390 . S
C3387 C3388 1.387 . S
C3387 H3390 0.950 . S
C3388 C3387 1.387 . S
C3388 C3391 1.387 . S
H3389 C3385 0.950 . S
H3390 C3387 0.950 . S
C3391 C3382 1.390 . S
C3391 H3384 0.950 . S
C3391 C3388 1.387 . S
C3392 C3393 1.387 . S
C3392 H3396 0.950 . S
C3392 C3401 1.390 . S
C3393 C3392 1.387 . S
C3393 C3395 1.387 . S
H3394 C3401 0.950 . S
C3395 C3393 1.387 . S
C3395 C3397 1.390 . S
C3395 H3399 0.950 . S
H3396 C3392 0.950 . S
C3397 C3395 1.390 . S
C3397 C3398 1.387 . S
C3397 H3400 0.950 . S
C3398 C3397 1.387 . S
C3398 C3401 1.387 . S
H3399 C3395 0.950 . S
H3400 C3397 0.950 . S
C3401 C3392 1.390 . S
C3401 H3394 0.950 . S
C3401 C3398 1.387 . S
C3402 C3403 1.387 . S
C3402 H3406 0.950 . S
C3402 C3411 1.390 . S
C3403 C3402 1.387 . S
C3403 C3405 1.387 . S
H3404 C3411 0.950 . S
C3405 C3403 1.387 . S
C3405 C3407 1.390 . S
C3405 H3409 0.950 . S
H3406 C3402 0.950 . S
C3407 C3405 1.390 . S
C3407 C3408 1.387 . S
C3407 H3410 0.950 . S
C3408 C3407 1.387 . S
C3408 C3411 1.387 . S
H3409 C3405 0.950 . S
H3410 C3407 0.950 . S
C3411 C3402 1.390 . S
C3411 H3404 0.950 . S
C3411 C3408 1.387 . S
C3412 C3413 1.387 . S
C3412 H3416 0.950 . S
C3412 C3421 1.390 . S
C3413 C3412 1.387 . S
C3413 C3415 1.387 . S
H3414 C3421 0.950 . S
C3415 C3413 1.387 . S
C3415 C3417 1.390 . S
C3415 H3419 0.950 . S
H3416 C3412 0.950 . S
C3417 C3415 1.390 . S
C3417 C3418 1.387 . S
C3417 H3420 0.950 . S
C3418 C3417 1.387 . S
C3418 C3421 1.387 . S
H3419 C3415 0.950 . S
H3420 C3417 0.950 . S
C3421 C3412 1.390 . S
C3421 H3414 0.950 . S
C3421 C3418 1.387 . S
C3422 C3423 1.387 . S
C3422 H3426 0.950 . S
C3422 C3431 1.390 . S
C3423 C3422 1.387 . S
C3423 C3425 1.387 . S
H3424 C3431 0.950 . S
C3425 C3423 1.387 . S
C3425 C3427 1.390 . S
C3425 H3429 0.950 . S
H3426 C3422 0.950 . S
C3427 C3425 1.390 . S
C3427 C3428 1.387 . S
C3427 H3430 0.950 . S
C3428 C3427 1.387 . S
C3428 C3431 1.387 . S
H3429 C3425 0.950 . S
H3430 C3427 0.950 . S
C3431 C3422 1.390 . S
C3431 H3424 0.950 . S
C3431 C3428 1.387 . S
C3432 C3433 1.387 . S
C3432 H3436 0.950 . S
C3432 C3441 1.390 . S
C3433 C3432 1.387 . S
C3433 C3435 1.387 . S
H3434 C3441 0.950 . S
C3435 C3433 1.387 . S
C3435 C3437 1.390 . S
C3435 H3439 0.950 . S
H3436 C3432 0.950 . S
C3437 C3435 1.390 . S
C3437 C3438 1.387 . S
C3437 H3440 0.950 . S
C3438 C3437 1.387 . S
C3438 C3441 1.387 . S
H3439 C3435 0.950 . S
H3440 C3437 0.950 . S
C3441 C3432 1.390 . S
C3441 H3434 0.950 . S
C3441 C3438 1.387 . S
C3442 C3443 1.387 . S
C3442 H3446 0.950 . S
C3442 C3451 1.390 . S
C3443 C3442 1.387 . S
C3443 C3445 1.387 . S
H3444 C3451 0.950 . S
C3445 C3443 1.387 . S
C3445 C3447 1.390 . S
C3445 H3449 0.950 . S
H3446 C3442 0.950 . S
C3447 C3445 1.390 . S
C3447 C3448 1.387 . S
C3447 H3450 0.950 . S
C3448 C3447 1.387 . S
C3448 C3451 1.387 . S
H3449 C3445 0.950 . S
H3450 C3447 0.950 . S
C3451 C3442 1.390 . S
C3451 H3444 0.950 . S
C3451 C3448 1.387 . S
C3452 C3453 1.387 . S
C3452 H3456 0.950 . S
C3452 C3461 1.390 . S
C3453 C3452 1.387 . S
C3453 C3455 1.387 . S
H3454 C3461 0.950 . S
C3455 C3453 1.387 . S
C3455 C3457 1.390 . S
C3455 H3459 0.950 . S
H3456 C3452 0.950 . S
C3457 C3455 1.390 . S
C3457 C3458 1.387 . S
C3457 H3460 0.950 . S
C3458 C3457 1.387 . S
C3458 C3461 1.387 . S
H3459 C3455 0.950 . S
H3460 C3457 0.950 . S
C3461 C3452 1.390 . S
C3461 H3454 0.950 . S
C3461 C3458 1.387 . S
C3462 C3463 1.387 . S
C3462 H3466 0.950 . S
C3462 C3471 1.390 . S
C3463 C3462 1.387 . S
C3463 C3465 1.387 . S
H3464 C3471 0.950 . S
C3465 C3463 1.387 . S
C3465 C3467 1.390 . S
C3465 H3469 0.950 . S
H3466 C3462 0.950 . S
C3467 C3465 1.390 . S
C3467 C3468 1.387 . S
C3467 H3470 0.950 . S
C3468 C3467 1.387 . S
C3468 C3471 1.387 . S
H3469 C3465 0.950 . S
H3470 C3467 0.950 . S
C3471 C3462 1.390 . S
C3471 H3464 0.950 . S
C3471 C3468 1.387 . S
C3472 C3473 1.387 . S
C3472 H3476 0.950 . S
C3472 C3481 1.390 . S
C3473 C3472 1.387 . S
C3473 C3475 1.387 . S
H3474 C3481 0.950 . S
C3475 C3473 1.387 . S
C3475 C3477 1.390 . S
C3475 H3479 0.950 . S
H3476 C3472 0.950 . S
C3477 C3475 1.390 . S
C3477 C3478 1.387 . S
C3477 H3480 0.950 . S
C3478 C3477 1.387 . S
C3478 C3481 1.387 . S
H3479 C3475 0.950 . S
H3480 C3477 0.950 . S
C3481 C3472 1.390 . S
C3481 H3474 0.950 . S
C3481 C3478 1.387 . S
C3482 C3483 1.387 . S
C3482 H3486 0.950 . S
C3482 C3491 1.390 . S
C3483 C3482 1.387 . S
C3483 C3485 1.387 . S
H3484 C3491 0.950 . S
C3485 C3483 1.387 . S
C3485 C3487 1.390 . S
C3485 H3489 0.950 . S
H3486 C3482 0.950 . S
C3487 C3485 1.390 . S
C3487 C3488 1.387 . S
C3487 H3490 0.950 . S
C3488 C3487 1.387 . S
C3488 C3491 1.387 . S
H3489 C3485 0.950 . S
H3490 C3487 0.950 . S
C3491 C3482 1.390 . S
C3491 H3484 0.950 . S
C3491 C3488 1.387 . S
C3492 C3493 1.387 . S
C3492 H3496 0.950 . S
C3492 C3501 1.390 . S
C3493 C3492 1.387 . S
C3493 C3495 1.387 . S
H3494 C3501 0.950 . S
C3495 C3493 1.387 . S
C3495 C3497 1.390 . S
C3495 H3499 0.950 . S
H3496 C3492 0.950 . S
C3497 C3495 1.390 . S
C3497 C3498 1.387 . S
C3497 H3500 0.950 . S
C3498 C3497 1.387 . S
C3498 C3501 1.387 . S
H3499 C3495 0.950 . S
H3500 C3497 0.950 . S
C3501 C3492 1.390 . S
C3501 H3494 0.950 . S
C3501 C3498 1.387 . S
C3502 C3503 1.387 . S
C3502 H3506 0.950 . S
C3502 C3511 1.390 . S
C3503 C3502 1.387 . S
C3503 C3505 1.387 . S
H3504 C3511 0.950 . S
C3505 C3503 1.387 . S
C3505 C3507 1.390 . S
C3505 H3509 0.950 . S
H3506 C3502 0.950 . S
C3507 C3505 1.390 . S
C3507 C3508 1.387 . S
C3507 H3510 0.950 . S
C3508 C3507 1.387 . S
C3508 C3511 1.387 . S
H3509 C3505 0.950 . S
H3510 C3507 0.950 . S
C3511 C3502 1.390 . S
C3511 H3504 0.950 . S
C3511 C3508 1.387 . S
C3512 C3513 1.387 . S
C3512 H3516 0.950 . S
C3512 C3521 1.390 . S
C3513 C3512 1.387 . S
C3513 C3515 1.387 . S
H3514 C3521 0.950 . S
C3515 C3513 1.387 . S
C3515 C3517 1.390 . S
C3515 H3519 0.950 . S
H3516 C3512 0.950 . S
C3517 C3515 1.390 . S
C3517 C3518 1.387 . S
C3517 H3520 0.950 . S
C3518 C3517 1.387 . S
C3518 C3521 1.387 . S
H3519 C3515 0.950 . S
H3520 C3517 0.950 . S
C3521 C3512 1.390 . S
C3521 H3514 0.950 . S
C3521 C3518 1.387 . S
C3522 C3523 1.387 . S
C3522 H3526 0.950 . S
C3522 C3531 1.390 . S
C3523 C3522 1.387 . S
C3523 C3525 1.387 . S
H3524 C3531 0.950 . S
C3525 C3523 1.387 . S
C3525 C3527 1.390 . S
C3525 H3529 0.950 . S
H3526 C3522 0.950 . S
C3527 C3525 1.390 . S
C3527 C3528 1.387 . S
C3527 H3530 0.950 . S
C3528 C3527 1.387 . S
C3528 C3531 1.387 . S
H3529 C3525 0.950 . S
H3530 C3527 0.950 . S
C3531 C3522 1.390 . S
C3531 H3524 0.950 . S
C3531 C3528 1.387 . S
C3532 C3533 1.387 . S
C3532 H3536 0.950 . S
C3532 C3541 1.390 . S
C3533 C3532 1.387 . S
C3533 C3535 1.387 . S
H3534 C3541 0.950 . S
C3535 C3533 1.387 . S
C3535 C3537 1.390 . S
C3535 H3539 0.950 . S
H3536 C3532 0.950 . S
C3537 C3535 1.390 . S
C3537 C3538 1.387 . S
C3537 H3540 0.950 . S
C3538 C3537 1.387 . S
C3538 C3541 1.387 . S
H3539 C3535 0.950 . S
H3540 C3537 0.950 . S
C3541 C3532 1.390 . S
C3541 H3534 0.950 . S
C3541 C3538 1.387 . S
C3542 C3543 1.387 . S
C3542 H3546 0.950 . S
C3542 C3551 1.390 . S
C3543 C3542 1.387 . S
C3543 C3545 1.387 . S
H3544 C3551 0.950 . S
C3545 C3543 1.387 . S
C3545 C3547 1.390 . S
C3545 H3549 0.950 . S
H3546 C3542 0.950 . S
C3547 C3545 1.390 . S
C3547 C3548 1.387 . S
C3547 H3550 0.950 . S
C3548 C3547 1.387 . S
C3548 C3551 1.387 . S
H3549 C3545 0.950 . S
H3550 C3547 0.950 . S
C3551 C3542 1.390 . S
C3551 H3544 0.950 . S
C3551 C3548 1.387 . S
C3552 C3553 1.387 . S
C3552 H3556 0.950 . S
C3552 C3561 1.390 1_554 S
C3553 C3552 1.387 . S
C3553 C3555 1.387 . S
H3554 C3561 0.950 . S
C3555 C3553 1.387 . S
C3555 C3557 1.390 1_554 S
C3555 H3559 0.950 . S
H3556 C3552 0.950 . S
C3557 C3555 1.390 1_556 S
C3557 C3558 1.387 . S
C3557 H3560 0.950 . S
C3558 C3557 1.387 . S
C3558 C3561 1.387 . S
H3559 C3555 0.950 . S
H3560 C3557 0.950 . S
C3561 C3552 1.390 1_556 S
C3561 H3554 0.950 . S
C3561 C3558 1.387 . S
C3562 C3563 1.387 . S
C3562 H3566 0.950 . S
C3562 C3571 1.390 1_556 S
C3563 C3562 1.387 . S
C3563 C3565 1.387 . S
H3564 C3571 0.950 . S
C3565 C3563 1.387 . S
C3565 C3567 1.390 1_556 S
C3565 H3569 0.950 . S
H3566 C3562 0.950 . S
C3567 C3565 1.390 1_554 S
C3567 C3568 1.387 . S
C3567 H3570 0.950 . S
C3568 C3567 1.387 . S
C3568 C3571 1.387 . S
H3569 C3565 0.950 . S
H3570 C3567 0.950 . S
C3571 C3562 1.390 1_554 S
C3571 H3564 0.950 . S
C3571 C3568 1.387 . S
C3572 C3573 1.387 . S
C3572 H3576 0.950 . S
C3572 C3581 1.390 1_554 S
C3573 C3572 1.387 . S
C3573 C3575 1.387 . S
H3574 C3581 0.950 . S
C3575 C3573 1.387 . S
C3575 C3577 1.390 1_554 S
C3575 H3579 0.950 . S
H3576 C3572 0.950 . S
C3577 C3575 1.390 1_556 S
C3577 C3578 1.387 . S
C3577 H3580 0.950 . S
C3578 C3577 1.387 . S
C3578 C3581 1.387 . S
H3579 C3575 0.950 . S
H3580 C3577 0.950 . S
C3581 C3572 1.390 1_556 S
C3581 H3574 0.950 . S
C3581 C3578 1.387 . S
C3582 C3583 1.387 . S
C3582 H3586 0.950 . S
C3582 C3591 1.390 1_554 S
C3583 C3582 1.387 . S
C3583 C3585 1.387 . S
H3584 C3591 0.950 . S
C3585 C3583 1.387 . S
C3585 C3587 1.390 1_554 S
C3585 H3589 0.950 . S
H3586 C3582 0.950 . S
C3587 C3585 1.390 1_556 S
C3587 C3588 1.387 . S
C3587 H3590 0.950 . S
C3588 C3587 1.387 . S
C3588 C3591 1.387 . S
H3589 C3585 0.950 . S
H3590 C3587 0.950 . S
C3591 C3582 1.390 1_556 S
C3591 H3584 0.950 . S
C3591 C3588 1.387 . S
C3592 C3593 1.387 . S
C3592 H3596 0.950 . S
C3592 C3601 1.390 1_556 S
C3593 C3592 1.387 . S
C3593 C3595 1.387 . S
H3594 C3601 0.950 . S
C3595 C3593 1.387 . S
C3595 C3597 1.390 1_556 S
C3595 H3599 0.950 . S
H3596 C3592 0.950 . S
C3597 C3595 1.390 1_554 S
C3597 C3598 1.387 . S
C3597 H3600 0.950 . S
C3598 C3597 1.387 . S
C3598 C3601 1.387 . S
H3599 C3595 0.950 . S
H3600 C3597 0.950 . S
C3601 C3592 1.390 1_554 S
C3601 H3594 0.950 . S
C3601 C3598 1.387 . S
C3602 C3603 1.387 . S
C3602 H3606 0.950 . S
C3602 C3611 1.390 1_554 S
C3603 C3602 1.387 . S
C3603 C3605 1.387 . S
H3604 C3611 0.950 . S
C3605 C3603 1.387 . S
C3605 C3607 1.390 1_554 S
C3605 H3609 0.950 . S
H3606 C3602 0.950 . S
C3607 C3605 1.390 1_556 S
C3607 C3608 1.387 . S
C3607 H3610 0.950 . S
C3608 C3607 1.387 . S
C3608 C3611 1.387 . S
H3609 C3605 0.950 . S
H3610 C3607 0.950 . S
C3611 C3602 1.390 1_556 S
C3611 H3604 0.950 . S
C3611 C3608 1.387 . S
C3612 C3613 1.387 . S
C3612 H3616 0.950 . S
C3612 C3621 1.390 1_556 S
C3613 C3612 1.387 . S
C3613 C3615 1.387 . S
H3614 C3621 0.950 . S
C3615 C3613 1.387 . S
C3615 C3617 1.390 1_556 S
C3615 H3619 0.950 . S
H3616 C3612 0.950 . S
C3617 C3615 1.390 1_554 S
C3617 C3618 1.387 . S
C3617 H3620 0.950 . S
C3618 C3617 1.387 . S
C3618 C3621 1.387 . S
H3619 C3615 0.950 . S
H3620 C3617 0.950 . S
C3621 C3612 1.390 1_554 S
C3621 H3614 0.950 . S
C3621 C3618 1.387 . S
C3622 C3623 1.387 . S
C3622 H3626 0.950 . S
C3622 C3631 1.390 1_554 S
C3623 C3622 1.387 . S
C3623 C3625 1.387 . S
H3624 C3631 0.950 . S
C3625 C3623 1.387 . S
C3625 C3627 1.390 1_554 S
C3625 H3629 0.950 . S
H3626 C3622 0.950 . S
C3627 C3625 1.390 1_556 S
C3627 C3628 1.387 . S
C3627 H3630 0.950 . S
C3628 C3627 1.387 . S
C3628 C3631 1.387 . S
H3629 C3625 0.950 . S
H3630 C3627 0.950 . S
C3631 C3622 1.390 1_556 S
C3631 H3624 0.950 . S
C3631 C3628 1.387 . S
C3632 C3633 1.387 . S
C3632 H3636 0.950 . S
C3632 C3641 1.390 1_455 S
C3633 C3632 1.387 . S
C3633 C3635 1.387 . S
H3634 C3641 0.950 . S
C3635 C3633 1.387 . S
C3635 C3637 1.390 1_455 S
C3635 H3639 0.950 . S
H3636 C3632 0.950 . S
C3637 C3635 1.390 1_655 S
C3637 C3638 1.387 . S
C3637 H3640 0.950 . S
C3638 C3637 1.387 . S
C3638 C3641 1.387 . S
H3639 C3635 0.950 . S
H3640 C3637 0.950 . S
C3641 C3632 1.390 1_655 S
C3641 H3634 0.950 . S
C3641 C3638 1.387 . S
C3642 C3643 1.387 . S
C3642 H3646 0.950 . S
C3642 C3651 1.390 1_565 S
C3643 C3642 1.387 . S
C3643 C3645 1.387 . S
H3644 C3651 0.950 . S
C3645 C3643 1.387 . S
C3645 C3647 1.390 1_565 S
C3645 H3649 0.950 . S
H3646 C3642 0.950 . S
C3647 C3645 1.390 1_545 S
C3647 C3648 1.387 . S
C3647 H3650 0.950 . S
C3648 C3647 1.387 . S
C3648 C3651 1.387 . S
H3649 C3645 0.950 . S
H3650 C3647 0.950 . S
C3651 C3642 1.390 1_545 S
C3651 H3644 0.950 . S
C3651 C3648 1.387 . S
C3652 C3653 1.387 . S
C3652 H3656 0.950 . S
C3652 C3661 1.390 1_455 S
C3653 C3652 1.387 . S
C3653 C3655 1.387 . S
H3654 C3661 0.950 . S
C3655 C3653 1.387 . S
C3655 C3657 1.390 1_455 S
C3655 H3659 0.950 . S
H3656 C3652 0.950 . S
C3657 C3655 1.390 1_655 S
C3657 C3658 1.387 . S
C3657 H3660 0.950 . S
C3658 C3657 1.387 . S
C3658 C3661 1.387 . S
H3659 C3655 0.950 . S
H3660 C3657 0.950 . S
C3661 C3652 1.390 1_655 S
C3661 H3654 0.950 . S
C3661 C3658 1.387 . S
C3662 C3663 1.387 . S
C3662 H3666 0.950 . S
C3662 C3671 1.390 1_565 S
C3663 C3662 1.387 . S
C3663 C3665 1.387 . S
H3664 C3671 0.950 . S
C3665 C3663 1.387 . S
C3665 C3667 1.390 1_565 S
C3665 H3669 0.950 . S
H3666 C3662 0.950 . S
C3667 C3665 1.390 1_545 S
C3667 C3668 1.387 . S
C3667 H3670 0.950 . S
C3668 C3667 1.387 . S
C3668 C3671 1.387 . S
H3669 C3665 0.950 . S
H3670 C3667 0.950 . S
C3671 C3662 1.390 1_545 S
C3671 H3664 0.950 . S
C3671 C3668 1.387 . S
C3672 C3673 1.387 . S
C3672 H3676 0.950 . S
C3672 C3681 1.390 1_655 S
C3673 C3672 1.387 . S
C3673 C3675 1.387 . S
H3674 C3681 0.950 . S
C3675 C3673 1.387 . S
C3675 C3677 1.390 1_655 S
C3675 H3679 0.950 . S
H3676 C3672 0.950 . S
C3677 C3675 1.390 1_455 S
C3677 C3678 1.387 . S
C3677 H3680 0.950 . S
C3678 C3677 1.387 . S
C3678 C3681 1.387 . S
H3679 C3675 0.950 . S
H3680 C3677 0.950 . S
C3681 C3672 1.390 1_455 S
C3681 H3674 0.950 . S
C3681 C3678 1.387 . S
C3682 C3683 1.387 . S
C3682 H3686 0.950 . S
C3682 C3691 1.390 1_545 S
C3683 C3682 1.387 . S
C3683 C3685 1.387 . S
H3684 C3691 0.950 . S
C3685 C3683 1.387 . S
C3685 C3687 1.390 1_545 S
C3685 H3689 0.950 . S
H3686 C3682 0.950 . S
C3687 C3685 1.390 1_565 S
C3687 C3688 1.387 . S
C3687 H3690 0.950 . S
C3688 C3687 1.387 . S
C3688 C3691 1.387 . S
H3689 C3685 0.950 . S
H3690 C3687 0.950 . S
C3691 C3682 1.390 1_565 S
C3691 H3684 0.950 . S
C3691 C3688 1.387 . S
C3692 C3693 1.387 . S
C3692 H3696 0.950 . S
C3692 C3701 1.390 1_455 S
C3693 C3692 1.387 . S
C3693 C3695 1.387 . S
H3694 C3701 0.950 . S
C3695 C3693 1.387 . S
C3695 C3697 1.390 1_455 S
C3695 H3699 0.950 . S
H3696 C3692 0.950 . S
C3697 C3695 1.390 1_655 S
C3697 C3698 1.387 . S
C3697 H3700 0.950 . S
C3698 C3697 1.387 . S
C3698 C3701 1.387 . S
H3699 C3695 0.950 . S
H3700 C3697 0.950 . S
C3701 C3692 1.390 1_655 S
C3701 H3694 0.950 . S
C3701 C3698 1.387 . S
C3702 C3703 1.387 . S
C3702 H3706 0.950 . S
C3702 C3711 1.390 1_545 S
C3703 C3702 1.387 . S
C3703 C3705 1.387 . S
H3704 C3711 0.950 . S
C3705 C3703 1.387 . S
C3705 C3707 1.390 1_545 S
C3705 H3709 0.950 . S
H3706 C3702 0.950 . S
C3707 C3705 1.390 1_565 S
C3707 C3708 1.387 . S
C3707 H3710 0.950 . S
C3708 C3707 1.387 . S
C3708 C3711 1.387 . S
H3709 C3705 0.950 . S
H3710 C3707 0.950 . S
C3711 C3702 1.390 1_565 S
C3711 H3704 0.950 . S
C3711 C3708 1.387 . S
C3712 C3713 1.387 . S
C3712 H3716 0.950 . S
C3712 C3721 1.390 1_545 S
C3713 C3712 1.387 . S
C3713 C3715 1.387 . S
H3714 C3721 0.950 . S
C3715 C3713 1.387 . S
C3715 C3717 1.390 1_545 S
C3715 H3719 0.950 . S
H3716 C3712 0.950 . S
C3717 C3715 1.390 1_565 S
C3717 C3718 1.387 . S
C3717 H3720 0.950 . S
C3718 C3717 1.387 . S
C3718 C3721 1.387 . S
H3719 C3715 0.950 . S
H3720 C3717 0.950 . S
C3721 C3712 1.390 1_565 S
C3721 H3714 0.950 . S
C3721 C3718 1.387 . S
C3722 C3723 1.387 . S
C3722 H3726 0.950 . S
C3722 C3731 1.390 1_545 S
C3723 C3722 1.387 . S
C3723 C3725 1.387 . S
H3724 C3731 0.950 . S
C3725 C3723 1.387 . S
C3725 C3727 1.390 1_545 S
C3725 H3729 0.950 . S
H3726 C3722 0.950 . S
C3727 C3725 1.390 1_565 S
C3727 C3728 1.387 . S
C3727 H3730 0.950 . S
C3728 C3727 1.387 . S
C3728 C3731 1.387 . S
H3729 C3725 0.950 . S
H3730 C3727 0.950 . S
C3731 C3722 1.390 1_565 S
C3731 H3724 0.950 . S
C3731 C3728 1.387 . S
C3732 C3733 1.387 . S
C3732 H3736 0.950 . S
C3732 C3741 1.390 1_655 S
C3733 C3732 1.387 . S
C3733 C3735 1.387 . S
H3734 C3741 0.950 . S
C3735 C3733 1.387 . S
C3735 C3737 1.390 1_655 S
C3735 H3739 0.950 . S
H3736 C3732 0.950 . S
C3737 C3735 1.390 1_455 S
C3737 C3738 1.387 . S
C3737 H3740 0.950 . S
C3738 C3737 1.387 . S
C3738 C3741 1.387 . S
H3739 C3735 0.950 . S
H3740 C3737 0.950 . S
C3741 C3732 1.390 1_455 S
C3741 H3734 0.950 . S
C3741 C3738 1.387 . S
C3742 C3743 1.387 . S
C3742 H3746 0.950 . S
C3742 C3751 1.390 1_545 S
C3743 C3742 1.387 . S
C3743 C3745 1.387 . S
H3744 C3751 0.950 . S
C3745 C3743 1.387 . S
C3745 C3747 1.390 1_545 S
C3745 H3749 0.950 . S
H3746 C3742 0.950 . S
C3747 C3745 1.390 1_565 S
C3747 C3748 1.387 . S
C3747 H3750 0.950 . S
C3748 C3747 1.387 . S
C3748 C3751 1.387 . S
H3749 C3745 0.950 . S
H3750 C3747 0.950 . S
C3751 C3742 1.390 1_565 S
C3751 H3744 0.950 . S
C3751 C3748 1.387 . S
C3752 C3753 1.387 . S
C3752 H3756 0.950 . S
C3752 C3761 1.390 1_455 S
C3753 C3752 1.387 . S
C3753 C3755 1.387 . S
H3754 C3761 0.950 . S
C3755 C3753 1.387 . S
C3755 C3757 1.390 1_455 S
C3755 H3759 0.950 . S
H3756 C3752 0.950 . S
C3757 C3755 1.390 1_655 S
C3757 C3758 1.387 . S
C3757 H3760 0.950 . S
C3758 C3757 1.387 . S
C3758 C3761 1.387 . S
H3759 C3755 0.950 . S
H3760 C3757 0.950 . S
C3761 C3752 1.390 1_655 S
C3761 H3754 0.950 . S
C3761 C3758 1.387 . S
C3762 C3763 1.387 . S
C3762 H3766 0.950 . S
C3762 C3771 1.390 1_545 S
C3763 C3762 1.387 . S
C3763 C3765 1.387 . S
H3764 C3771 0.950 . S
C3765 C3763 1.387 . S
C3765 C3767 1.390 1_545 S
C3765 H3769 0.950 . S
H3766 C3762 0.950 . S
C3767 C3765 1.390 1_565 S
C3767 C3768 1.387 . S
C3767 H3770 0.950 . S
C3768 C3767 1.387 . S
C3768 C3771 1.387 . S
H3769 C3765 0.950 . S
H3770 C3767 0.950 . S
C3771 C3762 1.390 1_565 S
C3771 H3764 0.950 . S
C3771 C3768 1.387 . S
C3772 C3773 1.387 . S
C3772 H3776 0.950 . S
C3772 C3781 1.390 1_655 S
C3773 C3772 1.387 . S
C3773 C3775 1.387 . S
H3774 C3781 0.950 . S
C3775 C3773 1.387 . S
C3775 C3777 1.390 1_655 S
C3775 H3779 0.950 . S
H3776 C3772 0.950 . S
C3777 C3775 1.390 1_455 S
C3777 C3778 1.387 . S
C3777 H3780 0.950 . S
C3778 C3777 1.387 . S
C3778 C3781 1.387 . S
H3779 C3775 0.950 . S
H3780 C3777 0.950 . S
C3781 C3772 1.390 1_455 S
C3781 H3774 0.950 . S
C3781 C3778 1.387 . S
C3782 C3783 1.387 . S
C3782 H3786 0.950 . S
C3782 C3791 1.390 1_455 S
C3783 C3782 1.387 . S
C3783 C3785 1.387 . S
H3784 C3791 0.950 . S
C3785 C3783 1.387 . S
C3785 C3787 1.390 1_455 S
C3785 H3789 0.950 . S
H3786 C3782 0.950 . S
C3787 C3785 1.390 1_655 S
C3787 C3788 1.387 . S
C3787 H3790 0.950 . S
C3788 C3787 1.387 . S
C3788 C3791 1.387 . S
H3789 C3785 0.950 . S
H3790 C3787 0.950 . S
C3791 C3782 1.390 1_655 S
C3791 H3784 0.950 . S
C3791 C3788 1.387 . S
C2833 C2304 1.391 . S
C2838 C3 1.391 . S
C2843 C64 1.401 . S
C2848 C2127 1.385 . S
C2853 C121 1.388 . S
C2858 C2186 1.387 . S
C2863 C2247 1.397 . S
C2868 C182 1.396 . S
C2873 C1952 1.396 . S
C2878 C241 1.397 . S
C2883 C298 1.386 . S
C2888 C2011 1.402 . S
C2893 C359 1.401 . S
C2898 C2068 1.385 . S
C2903 C416 1.389 . S
C2908 C1893 1.406 . S
C2913 C475 1.392 . S
C2918 C1832 1.391 . S
C2923 C1657 1.396 . S
C2928 C536 1.397 . S
C2933 C1714 1.387 . S
C2938 C595 1.402 . S
C2943 C652 1.382 . S
C2948 C1775 1.398 . S
C2953 C711 1.386 . S
C2958 C1480 1.401 . S
C2963 C772 1.402 . S
C2968 C1537 1.386 . S
C2973 C1598 1.399 . S
C2978 C831 1.400 . S
C2983 C1419 1.391 . S
C2988 C888 1.391 . S
C2993 C949 1.403 . S
C2998 C2601 1.402 . S
C3003 C2776 1.383 . S
C3008 C1006 1.384 . S
C3013 C2660 1.404 . S
C3018 C1067 1.404 . S
C3023 C2717 1.385 . S
C3028 C1124 1.384 . S
C3033 C2365 1.404 . S
C3038 C1185 1.404 . S
C3043 C2483 1.403 . S
C3048 C1244 1.402 . S
C3053 C1301 1.384 . S
C3058 C2540 1.384 . S
C3063 C2422 1.384 . S
C3068 C1360 1.385 . S
C3073 C1891 1.390 . S
C3078 C1183 1.391 . S
C3083 C1008 1.398 . S
C3088 C1950 1.382 . S
C3093 C2009 1.388 . S
C3098 C1065 1.388 . S
C3103 C2070 1.400 . S
C3108 C1126 1.400 . S
C3113 C1362 1.400 . S
C3118 C2129 1.400 . S
C3123 C2188 1.403 . S
C3128 C1242 1.386 . S
C3133 C1303 1.398 . S
C3138 C2245 1.382 . S
C3143 C947 1.390 . S
C3148 C2306 1.405 . S
C3153 C2363 1.389 . S
C3158 C890 1.406 . S
C3163 C713 1.397 . S
C3168 C2778 1.397 . S
C3173 C2658 1.389 . S
C3178 C770 1.388 . S
C3183 C829 1.383 . S
C3188 C2719 1.398 . S
C3193 C534 1.385 . S
C3198 C2424 1.401 . S
C3203 C593 1.387 . S
C3208 C2481 1.388 . S
C3213 C654 1.400 . S
C3218 C2542 1.399 . S
C3223 C2599 1.390 . S
C3228 C477 1.405 . S
C3233 C1421 1.404 . S
C3238 C418 1.404 . S
C3243 C1655 1.385 . S
C3248 C62 1.384 . S
C3253 C1716 1.403 . S
C3258 C123 1.403 . S
C3263 C1773 1.384 . S
C3268 C180 1.384 . S
C3273 C1834 1.406 . S
C3278 C5 1.405 . S
C3283 C300 1.401 . S
C3288 C1539 1.402 . S
C3293 C1596 1.384 . S
C3298 C357 1.385 . S
C3303 C1478 1.384 . S
C3308 C239 1.384 . S
C3313 C33 1.584 . S
C3318 C1567 1.584 . S
C3323 C1645 1.581 . S
C3328 C111 1.581 . S
C3333 C151 1.584 . S
C3338 C1449 1.584 . S
C3343 C229 1.581 . S
C3348 C1527 1.581 . S
C3353 C288 1.580 . S
C3358 C1822 1.580 . S
C3363 C1862 1.584 . S
C3368 C328 1.584 . S
C3373 C406 1.581 . S
C3378 C1704 1.581 . S
C3383 C1744 1.584 . S
C3388 C446 1.584 . S
C3393 C505 1.583 . S
C3398 C2157 1.583 . S
C3403 C2216 1.582 . S
C3408 C583 1.581 . S
C3413 C642 1.581 . S
C3418 C2294 1.581 . S
C3423 C682 1.583 . S
C3428 C2334 1.583 . S
C3433 C741 1.584 . S
C3438 C1940 1.583 . S
C3443 C819 1.582 . S
C3448 C1999 1.582 . S
C3453 C2058 1.582 . S
C3458 C878 1.582 . S
C3463 C918 1.584 . S
C3468 C2098 1.584 . S
C3473 C2570 1.583 . S
C3478 C996 1.582 . S
C3483 C1036 1.582 . S
C3488 C2707 1.581 . S
C3493 C1114 1.582 . S
C3498 C2747 1.583 . S
C3503 C2412 1.582 . S
C3508 C1154 1.583 . S
C3513 C2806 1.583 . S
C3518 C1232 1.582 . S
C3523 C1291 1.581 . S
C3528 C2452 1.583 . S
C3533 C2530 1.581 . S
C3538 C1331 1.583 . S
C3543 C1390 1.583 . S
C3548 C2648 1.582 . S
C3553 C2511 1.584 . S
C3558 C1213 1.584 . S
C3563 C1055 1.581 . S
C3568 C2589 1.581 . S
C3573 C2629 1.584 . S
C3578 C1095 1.584 . S
C3583 C2471 1.581 . S
C3588 C1173 1.581 . S
C3593 C2766 1.581 . S
C3598 C1409 1.581 . S
C3603 C1272 1.584 . S
C3608 C2393 1.584 . S
C3613 C2825 1.580 . S
C3618 C1350 1.580 . S
C3623 C977 1.584 . S
C3628 C2688 1.584 . S
C3633 C1980 1.583 . S
C3638 C937 1.581 . S
C3643 C760 1.581 . S
C3648 C2039 1.582 . S
C3653 C800 1.583 . S
C3658 C2117 1.582 . S
C3663 C1921 1.583 . S
C3668 C859 1.583 . S
C3673 C564 1.584 . S
C3678 C2353 1.583 . S
C3683 C2176 1.582 . S
C3688 C623 1.583 . S
C3693 C701 1.582 . S
C3698 C2235 1.582 . S
C3703 C524 1.582 . S
C3708 C2275 1.583 . S
C3713 C1626 1.583 . S
C3718 C465 1.582 . S
C3723 C92 1.583 . S
C3728 C1763 1.582 . S
C3733 C170 1.582 . S
C3738 C1803 1.583 . S
C3743 C1881 1.582 . S
C3748 C210 1.583 . S
C3753 C52 1.582 . S
C3758 C1685 1.584 . S
C3763 C347 1.581 . S
C3768 C1508 1.582 . S
C3773 C387 1.583 . S
C3778 C1586 1.582 . S
C3783 C269 1.583 . S
C3788 C1468 1.582 . S
