# Generated by pormake.
# Topology unx, (4)-cn, num edge types: 1
# Building blocks:
#     Node 0, Type 0, BuildingBlock: CEKHIL_clean_sbu_0, # of connection points: 4
#     Node 1, Type 0, BuildingBlock: CEKHIL_clean_sbu_0, # of connection points: 4
#     Node 2, Type 0, BuildingBlock: CEKHIL_clean_sbu_0, # of connection points: 4
#     Node 3, Type 0, BuildingBlock: CEKHIL_clean_sbu_0, # of connection points: 4
#     Node 4, Type 0, BuildingBlock: CEKHIL_clean_sbu_0, # of connection points: 4
#     Node 5, Type 0, BuildingBlock: CEKHIL_clean_sbu_0, # of connection points: 4
#     Node 6, Type 0, BuildingBlock: CEKHIL_clean_sbu_0, # of connection points: 4
#     Node 7, Type 0, BuildingBlock: CEKHIL_clean_sbu_0, # of connection points: 4
#     Node 8, Type 0, BuildingBlock: CEKHIL_clean_sbu_0, # of connection points: 4
#     Node 9, Type 0, BuildingBlock: CEKHIL_clean_sbu_0, # of connection points: 4
#     Node 10, Type 0, BuildingBlock: CEKHIL_clean_sbu_0, # of connection points: 4
#     Node 11, Type 0, BuildingBlock: CEKHIL_clean_sbu_0, # of connection points: 4
#     Node 12, Type 0, BuildingBlock: CEKHIL_clean_sbu_0, # of connection points: 4
#     Node 13, Type 0, BuildingBlock: CEKHIL_clean_sbu_0, # of connection points: 4
#     Node 14, Type 0, BuildingBlock: CEKHIL_clean_sbu_0, # of connection points: 4
#     Node 15, Type 0, BuildingBlock: CEKHIL_clean_sbu_0, # of connection points: 4
#     Node 16, Type 0, BuildingBlock: CEKHIL_clean_sbu_0, # of connection points: 4
#     Node 17, Type 0, BuildingBlock: CEKHIL_clean_sbu_0, # of connection points: 4
#     Node 18, Type 0, BuildingBlock: CEKHIL_clean_sbu_0, # of connection points: 4
#     Node 19, Type 0, BuildingBlock: CEKHIL_clean_sbu_0, # of connection points: 4
#     Node 20, Type 0, BuildingBlock: CEKHIL_clean_sbu_0, # of connection points: 4
#     Node 21, Type 0, BuildingBlock: CEKHIL_clean_sbu_0, # of connection points: 4
#     Node 22, Type 0, BuildingBlock: CEKHIL_clean_sbu_0, # of connection points: 4
#     Node 23, Type 0, BuildingBlock: CEKHIL_clean_sbu_0, # of connection points: 4
#     Node 24, Type 0, BuildingBlock: CEKHIL_clean_sbu_0, # of connection points: 4
#     Node 25, Type 0, BuildingBlock: CEKHIL_clean_sbu_0, # of connection points: 4
#     Node 26, Type 0, BuildingBlock: CEKHIL_clean_sbu_0, # of connection points: 4
#     Node 27, Type 0, BuildingBlock: CEKHIL_clean_sbu_0, # of connection points: 4
#     Node 28, Type 0, BuildingBlock: CEKHIL_clean_sbu_0, # of connection points: 4
#     Node 29, Type 0, BuildingBlock: CEKHIL_clean_sbu_0, # of connection points: 4
#     Node 30, Type 0, BuildingBlock: CEKHIL_clean_sbu_0, # of connection points: 4
#     Node 31, Type 0, BuildingBlock: CEKHIL_clean_sbu_0, # of connection points: 4
#     Node 32, Type 0, BuildingBlock: CEKHIL_clean_sbu_0, # of connection points: 4
#     Node 33, Type 0, BuildingBlock: CEKHIL_clean_sbu_0, # of connection points: 4
#     Node 34, Type 0, BuildingBlock: CEKHIL_clean_sbu_0, # of connection points: 4
#     Node 35, Type 0, BuildingBlock: CEKHIL_clean_sbu_0, # of connection points: 4
#     Node 36, Type 0, BuildingBlock: CEKHIL_clean_sbu_0, # of connection points: 4
#     Node 37, Type 0, BuildingBlock: CEKHIL_clean_sbu_0, # of connection points: 4
#     Node 38, Type 0, BuildingBlock: CEKHIL_clean_sbu_0, # of connection points: 4
#     Node 39, Type 0, BuildingBlock: CEKHIL_clean_sbu_0, # of connection points: 4
#     Node 40, Type 0, BuildingBlock: CEKHIL_clean_sbu_0, # of connection points: 4
#     Node 41, Type 0, BuildingBlock: CEKHIL_clean_sbu_0, # of connection points: 4
#     Node 42, Type 0, BuildingBlock: CEKHIL_clean_sbu_0, # of connection points: 4
#     Node 43, Type 0, BuildingBlock: CEKHIL_clean_sbu_0, # of connection points: 4
#     Node 44, Type 0, BuildingBlock: CEKHIL_clean_sbu_0, # of connection points: 4
#     Node 45, Type 0, BuildingBlock: CEKHIL_clean_sbu_0, # of connection points: 4
#     Node 46, Type 0, BuildingBlock: CEKHIL_clean_sbu_0, # of connection points: 4
#     Node 47, Type 0, BuildingBlock: CEKHIL_clean_sbu_0, # of connection points: 4
#     Edge 48, Type (0, 0), BuildingBlock: EZIPEK_clean_linker_0, # of connection points: 2
#     Edge 49, Type (0, 0), BuildingBlock: EZIPEK_clean_linker_0, # of connection points: 2
#     Edge 50, Type (0, 0), BuildingBlock: EZIPEK_clean_linker_0, # of connection points: 2
#     Edge 51, Type (0, 0), BuildingBlock: EZIPEK_clean_linker_0, # of connection points: 2
#     Edge 52, Type (0, 0), BuildingBlock: EZIPEK_clean_linker_0, # of connection points: 2
#     Edge 53, Type (0, 0), BuildingBlock: EZIPEK_clean_linker_0, # of connection points: 2
#     Edge 54, Type (0, 0), BuildingBlock: EZIPEK_clean_linker_0, # of connection points: 2
#     Edge 55, Type (0, 0), BuildingBlock: EZIPEK_clean_linker_0, # of connection points: 2
#     Edge 56, Type (0, 0), BuildingBlock: EZIPEK_clean_linker_0, # of connection points: 2
#     Edge 57, Type (0, 0), BuildingBlock: EZIPEK_clean_linker_0, # of connection points: 2
#     Edge 58, Type (0, 0), BuildingBlock: EZIPEK_clean_linker_0, # of connection points: 2
#     Edge 59, Type (0, 0), BuildingBlock: EZIPEK_clean_linker_0, # of connection points: 2
#     Edge 60, Type (0, 0), BuildingBlock: EZIPEK_clean_linker_0, # of connection points: 2
#     Edge 61, Type (0, 0), BuildingBlock: EZIPEK_clean_linker_0, # of connection points: 2
#     Edge 62, Type (0, 0), BuildingBlock: EZIPEK_clean_linker_0, # of connection points: 2
#     Edge 63, Type (0, 0), BuildingBlock: EZIPEK_clean_linker_0, # of connection points: 2
#     Edge 64, Type (0, 0), BuildingBlock: EZIPEK_clean_linker_0, # of connection points: 2
#     Edge 65, Type (0, 0), BuildingBlock: EZIPEK_clean_linker_0, # of connection points: 2
#     Edge 66, Type (0, 0), BuildingBlock: EZIPEK_clean_linker_0, # of connection points: 2
#     Edge 67, Type (0, 0), BuildingBlock: EZIPEK_clean_linker_0, # of connection points: 2
#     Edge 68, Type (0, 0), BuildingBlock: EZIPEK_clean_linker_0, # of connection points: 2
#     Edge 69, Type (0, 0), BuildingBlock: EZIPEK_clean_linker_0, # of connection points: 2
#     Edge 70, Type (0, 0), BuildingBlock: EZIPEK_clean_linker_0, # of connection points: 2
#     Edge 71, Type (0, 0), BuildingBlock: EZIPEK_clean_linker_0, # of connection points: 2
#     Edge 72, Type (0, 0), BuildingBlock: EZIPEK_clean_linker_0, # of connection points: 2
#     Edge 73, Type (0, 0), BuildingBlock: EZIPEK_clean_linker_0, # of connection points: 2
#     Edge 74, Type (0, 0), BuildingBlock: EZIPEK_clean_linker_0, # of connection points: 2
#     Edge 75, Type (0, 0), BuildingBlock: EZIPEK_clean_linker_0, # of connection points: 2
#     Edge 76, Type (0, 0), BuildingBlock: EZIPEK_clean_linker_0, # of connection points: 2
#     Edge 77, Type (0, 0), BuildingBlock: EZIPEK_clean_linker_0, # of connection points: 2
#     Edge 78, Type (0, 0), BuildingBlock: EZIPEK_clean_linker_0, # of connection points: 2
#     Edge 79, Type (0, 0), BuildingBlock: EZIPEK_clean_linker_0, # of connection points: 2
#     Edge 80, Type (0, 0), BuildingBlock: EZIPEK_clean_linker_0, # of connection points: 2
#     Edge 81, Type (0, 0), BuildingBlock: EZIPEK_clean_linker_0, # of connection points: 2
#     Edge 82, Type (0, 0), BuildingBlock: EZIPEK_clean_linker_0, # of connection points: 2
#     Edge 83, Type (0, 0), BuildingBlock: EZIPEK_clean_linker_0, # of connection points: 2
#     Edge 84, Type (0, 0), BuildingBlock: EZIPEK_clean_linker_0, # of connection points: 2
#     Edge 85, Type (0, 0), BuildingBlock: EZIPEK_clean_linker_0, # of connection points: 2
#     Edge 86, Type (0, 0), BuildingBlock: EZIPEK_clean_linker_0, # of connection points: 2
#     Edge 87, Type (0, 0), BuildingBlock: EZIPEK_clean_linker_0, # of connection points: 2
#     Edge 88, Type (0, 0), BuildingBlock: EZIPEK_clean_linker_0, # of connection points: 2
#     Edge 89, Type (0, 0), BuildingBlock: EZIPEK_clean_linker_0, # of connection points: 2
#     Edge 90, Type (0, 0), BuildingBlock: EZIPEK_clean_linker_0, # of connection points: 2
#     Edge 91, Type (0, 0), BuildingBlock: EZIPEK_clean_linker_0, # of connection points: 2
#     Edge 92, Type (0, 0), BuildingBlock: EZIPEK_clean_linker_0, # of connection points: 2
#     Edge 93, Type (0, 0), BuildingBlock: EZIPEK_clean_linker_0, # of connection points: 2
#     Edge 94, Type (0, 0), BuildingBlock: EZIPEK_clean_linker_0, # of connection points: 2
#     Edge 95, Type (0, 0), BuildingBlock: EZIPEK_clean_linker_0, # of connection points: 2
#     Edge 96, Type (0, 0), BuildingBlock: EZIPEK_clean_linker_0, # of connection points: 2
#     Edge 97, Type (0, 0), BuildingBlock: EZIPEK_clean_linker_0, # of connection points: 2
#     Edge 98, Type (0, 0), BuildingBlock: EZIPEK_clean_linker_0, # of connection points: 2
#     Edge 99, Type (0, 0), BuildingBlock: EZIPEK_clean_linker_0, # of connection points: 2
#     Edge 100, Type (0, 0), BuildingBlock: EZIPEK_clean_linker_0, # of connection points: 2
#     Edge 101, Type (0, 0), BuildingBlock: EZIPEK_clean_linker_0, # of connection points: 2
#     Edge 102, Type (0, 0), BuildingBlock: EZIPEK_clean_linker_0, # of connection points: 2
#     Edge 103, Type (0, 0), BuildingBlock: EZIPEK_clean_linker_0, # of connection points: 2
#     Edge 104, Type (0, 0), BuildingBlock: EZIPEK_clean_linker_0, # of connection points: 2
#     Edge 105, Type (0, 0), BuildingBlock: EZIPEK_clean_linker_0, # of connection points: 2
#     Edge 106, Type (0, 0), BuildingBlock: EZIPEK_clean_linker_0, # of connection points: 2
#     Edge 107, Type (0, 0), BuildingBlock: EZIPEK_clean_linker_0, # of connection points: 2
#     Edge 108, Type (0, 0), BuildingBlock: EZIPEK_clean_linker_0, # of connection points: 2
#     Edge 109, Type (0, 0), BuildingBlock: EZIPEK_clean_linker_0, # of connection points: 2
#     Edge 110, Type (0, 0), BuildingBlock: EZIPEK_clean_linker_0, # of connection points: 2
#     Edge 111, Type (0, 0), BuildingBlock: EZIPEK_clean_linker_0, # of connection points: 2
#     Edge 112, Type (0, 0), BuildingBlock: EZIPEK_clean_linker_0, # of connection points: 2
#     Edge 113, Type (0, 0), BuildingBlock: EZIPEK_clean_linker_0, # of connection points: 2
#     Edge 114, Type (0, 0), BuildingBlock: EZIPEK_clean_linker_0, # of connection points: 2
#     Edge 115, Type (0, 0), BuildingBlock: EZIPEK_clean_linker_0, # of connection points: 2
#     Edge 116, Type (0, 0), BuildingBlock: EZIPEK_clean_linker_0, # of connection points: 2
#     Edge 117, Type (0, 0), BuildingBlock: EZIPEK_clean_linker_0, # of connection points: 2
#     Edge 118, Type (0, 0), BuildingBlock: EZIPEK_clean_linker_0, # of connection points: 2
#     Edge 119, Type (0, 0), BuildingBlock: EZIPEK_clean_linker_0, # of connection points: 2
#     Edge 120, Type (0, 0), BuildingBlock: EZIPEK_clean_linker_0, # of connection points: 2
#     Edge 121, Type (0, 0), BuildingBlock: EZIPEK_clean_linker_0, # of connection points: 2
#     Edge 122, Type (0, 0), BuildingBlock: EZIPEK_clean_linker_0, # of connection points: 2
#     Edge 123, Type (0, 0), BuildingBlock: EZIPEK_clean_linker_0, # of connection points: 2
#     Edge 124, Type (0, 0), BuildingBlock: EZIPEK_clean_linker_0, # of connection points: 2
#     Edge 125, Type (0, 0), BuildingBlock: EZIPEK_clean_linker_0, # of connection points: 2
#     Edge 126, Type (0, 0), BuildingBlock: EZIPEK_clean_linker_0, # of connection points: 2
#     Edge 127, Type (0, 0), BuildingBlock: EZIPEK_clean_linker_0, # of connection points: 2
#     Edge 128, Type (0, 0), BuildingBlock: EZIPEK_clean_linker_0, # of connection points: 2
#     Edge 129, Type (0, 0), BuildingBlock: EZIPEK_clean_linker_0, # of connection points: 2
#     Edge 130, Type (0, 0), BuildingBlock: EZIPEK_clean_linker_0, # of connection points: 2
#     Edge 131, Type (0, 0), BuildingBlock: EZIPEK_clean_linker_0, # of connection points: 2
#     Edge 132, Type (0, 0), BuildingBlock: EZIPEK_clean_linker_0, # of connection points: 2
#     Edge 133, Type (0, 0), BuildingBlock: EZIPEK_clean_linker_0, # of connection points: 2
#     Edge 134, Type (0, 0), BuildingBlock: EZIPEK_clean_linker_0, # of connection points: 2
#     Edge 135, Type (0, 0), BuildingBlock: EZIPEK_clean_linker_0, # of connection points: 2
#     Edge 136, Type (0, 0), BuildingBlock: EZIPEK_clean_linker_0, # of connection points: 2
#     Edge 137, Type (0, 0), BuildingBlock: EZIPEK_clean_linker_0, # of connection points: 2
#     Edge 138, Type (0, 0), BuildingBlock: EZIPEK_clean_linker_0, # of connection points: 2
#     Edge 139, Type (0, 0), BuildingBlock: EZIPEK_clean_linker_0, # of connection points: 2
#     Edge 140, Type (0, 0), BuildingBlock: EZIPEK_clean_linker_0, # of connection points: 2
#     Edge 141, Type (0, 0), BuildingBlock: EZIPEK_clean_linker_0, # of connection points: 2
#     Edge 142, Type (0, 0), BuildingBlock: EZIPEK_clean_linker_0, # of connection points: 2
#     Edge 143, Type (0, 0), BuildingBlock: EZIPEK_clean_linker_0, # of connection points: 2
# Relax obj value: 0.548
# Max RMSD: 0.353
# Mean RMSD: 0.245
data_MOF--net-unx--node1-CEKHIL_clean_sbu_0--edge1-EZIPEK_clean_linker_0
_symmetry_space_group_name_H-M    P1
_symmetry_Int_Tables_number       1
_symmetry_cell_setting            triclinic
loop_
_symmetry_equiv_pos_as_xyz
'x, y, z'
_cell_length_a     38.384471
_cell_length_b     37.306622
_cell_length_c     38.786749
_cell_angle_alpha  90.046817
_cell_angle_beta   90.040718
_cell_angle_gamma 91.334546
loop_
_atom_site_label
_atom_site_type_symbol
_atom_site_fract_x
_atom_site_fract_y
_atom_site_fract_z
_atom_type_partial_charge
Co0 Co 0.14039 0.50414 0.31622 0.0
O1 O 0.17062 0.48003 0.34854 0.0
O2 O 0.18016 0.53458 0.32771 0.0
C3 C 0.08688 0.49338 0.33789 0.0
O4 O 0.11505 0.53802 0.28384 0.0
Co5 Co 0.09196 0.45927 0.26841 0.0
O6 O 0.07742 0.50634 0.25072 0.0
C7 C 0.16529 0.46402 0.25079 0.0
C8 C 0.19154 0.50786 0.34563 0.0
C9 C 0.09091 0.53609 0.26069 0.0
O10 O 0.16888 0.48454 0.27715 0.0
O11 O 0.13612 0.44902 0.24282 0.0
O12 O 0.10756 0.51712 0.35234 0.0
O13 O 0.10203 0.47191 0.31647 0.0
Co14 Co 0.6793 0.19169 0.4975 0.0
O15 O 0.72125 0.2112 0.51899 0.0
O16 O 0.66836 0.23144 0.52663 0.0
C17 C 0.6882 0.13187 0.5049 0.0
O18 O 0.63016 0.18179 0.47992 0.0
Co19 Co 0.68108 0.14703 0.43079 0.0
O20 O 0.62971 0.14191 0.43694 0.0
C21 C 0.69044 0.22537 0.4267 0.0
C22 C 0.70164 0.23602 0.53165 0.0
C23 C 0.61386 0.16312 0.45689 0.0
O24 O 0.68579 0.22692 0.45924 0.0
O25 O 0.69153 0.19584 0.40987 0.0
O26 O 0.67582 0.15113 0.52986 0.0
O27 O 0.6983 0.14975 0.47797 0.0
Co28 Co 0.88363 0.95447 0.62731 0.0
O29 O 0.84417 0.97775 0.60687 0.0
O30 O 0.84407 0.95271 0.65858 0.0
C31 C 0.92655 0.99602 0.61513 0.0
O32 O 0.91986 0.92835 0.65572 0.0
Co33 Co 0.94166 0.93056 0.57614 0.0
O34 O 0.96609 0.92198 0.62043 0.0
C35 C 0.87954 0.88443 0.58586 0.0
C36 C 0.82699 0.96924 0.63455 0.0
C37 C 0.95146 0.91905 0.6499 0.0
O38 O 0.86796 0.90654 0.60825 0.0
O39 O 0.90666 0.89073 0.56742 0.0
O40 O 0.90543 1.00026 0.64091 0.0
O41 O 0.91672 0.97031 0.59475 0.0
Co42 Co 0.24927 0.96887 0.93734 0.0
O43 O 0.23194 0.92005 0.9435 0.0
O44 O 0.28771 0.93514 0.94019 0.0
C45 C 0.21612 0.99803 0.9771 0.0
O46 O 0.27481 0.01739 0.93173 0.0
Co47 Co 0.19471 0.02189 0.90829 0.0
O48 O 0.23185 0.0569 0.92337 0.0
C49 C 0.22794 0.97374 0.8614 0.0
C50 C 0.26392 0.90985 0.94359 0.0
C51 C 0.26376 0.04982 0.92926 0.0
O52 O 0.2493 0.96444 0.8852 0.0
O53 O 0.19885 0.98789 0.86834 0.0
O54 O 0.24325 0.98034 0.98668 0.0
O55 O 0.20691 0.99101 0.94578 0.0
Co56 Co 0.11858 0.4462 0.84998 0.0
O57 O 0.08785 0.48647 0.8444 0.0
O58 O 0.08398 0.44706 0.88669 0.0
C59 C 0.17108 0.47433 0.83921 0.0
O60 O 0.14465 0.40117 0.86409 0.0
Co61 Co 0.1585 0.41723 0.78693 0.0
O62 O 0.17792 0.38241 0.81998 0.0
C63 C 0.08444 0.40074 0.79262 0.0
C64 C 0.07047 0.47414 0.8708 0.0
C65 C 0.16658 0.37935 0.85071 0.0
O66 O 0.08525 0.41571 0.82237 0.0
O67 O 0.11058 0.4006 0.77228 0.0
O68 O 0.15628 0.47641 0.86937 0.0
O69 O 0.15154 0.45909 0.81601 0.0
Co70 Co 0.75623 0.53105 0.0624 0.0
O71 O 0.73636 0.57736 0.05301 0.0
O72 O 0.79238 0.56538 0.04928 0.0
C73 C 0.71795 0.49355 0.03323 0.0
O74 O 0.78547 0.48673 0.06904 0.0
Co75 Co 0.71276 0.47902 0.10815 0.0
O76 O 0.75204 0.44702 0.09879 0.0
C77 C 0.75259 0.53641 0.14221 0.0
C78 C 0.76802 0.58902 0.04753 0.0
C79 C 0.77977 0.45564 0.08257 0.0
O80 O 0.76525 0.54488 0.11249 0.0
O81 O 0.72848 0.51248 0.14539 0.0
O82 O 0.74215 0.51176 0.01699 0.0
O83 O 0.71403 0.50433 0.0647 0.0
Co84 Co 0.84963 0.99417 0.19675 0.0
O85 O 0.887 0.01015 0.1669 0.0
O86 O 0.88637 0.95944 0.19636 0.0
C87 C 0.80282 0.00677 0.16338 0.0
O88 O 0.81553 0.97049 0.23074 0.0
Co89 Co 0.80185 0.05428 0.22443 0.0
O90 O 0.77847 0.01309 0.24809 0.0
C91 C 0.87331 0.05027 0.24892 0.0
C92 C 0.90411 0.98293 0.17823 0.0
C93 C 0.78934 0.981 0.24868 0.0
O94 O 0.87475 0.01898 0.23565 0.0
O95 O 0.84775 0.07113 0.24436 0.0
O96 O 0.81971 0.97732 0.15854 0.0
O97 O 0.81822 0.02895 0.18423 0.0
Co98 Co 0.19643 0.30572 0.5021 0.0
O99 O 0.23772 0.29158 0.47709 0.0
O100 O 0.18548 0.26668 0.47103 0.0
C101 C 0.2024 0.36641 0.49877 0.0
O102 O 0.14743 0.31036 0.52279 0.0
Co103 Co 0.19901 0.34249 0.57159 0.0
O104 O 0.14808 0.34781 0.5678 0.0
C105 C 0.19832 0.26399 0.56819 0.0
C106 C 0.21873 0.26483 0.46539 0.0
C107 C 0.13175 0.32684 0.54731 0.0
O108 O 0.20737 0.2681 0.53686 0.0
O109 O 0.19357 0.29082 0.58802 0.0
O110 O 0.18937 0.34785 0.47319 0.0
O111 O 0.21527 0.34781 0.52387 0.0
Co112 Co 0.25943 0.05648 0.42793 0.0
O113 O 0.28112 0.10351 0.43488 0.0
O114 O 0.22545 0.09057 0.44426 0.0
C115 C 0.29973 0.01975 0.45276 0.0
O116 O 0.22852 0.01137 0.42416 0.0
Co117 Co 0.29618 0.00362 0.37839 0.0
O118 O 0.25953 0.97005 0.39552 0.0
C119 C 0.25095 0.05758 0.34884 0.0
C120 C 0.2504 0.11477 0.44295 0.0
C121 C 0.23296 0.97934 0.41268 0.0
O122 O 0.24612 0.07011 0.37925 0.0
O123 O 0.2718 0.0322 0.34248 0.0
O124 O 0.27783 0.0374 0.47155 0.0
O125 O 0.30038 0.03049 0.42103 0.0
Co126 Co 0.37152 0.50985 0.8007 0.0
O127 O 0.33755 0.52026 0.83615 0.0
O128 O 0.33686 0.47202 0.80373 0.0
C129 C 0.42199 0.52424 0.82944 0.0
O130 O 0.4003 0.48839 0.76229 0.0
Co131 Co 0.41695 0.56821 0.76598 0.0
O132 O 0.4418 0.52772 0.74491 0.0
C133 C 0.34524 0.55617 0.7411 0.0
C134 C 0.32138 0.49054 0.82728 0.0
C135 C 0.42744 0.49671 0.74441 0.0
O136 O 0.34112 0.53378 0.76589 0.0
O137 O 0.37388 0.57377 0.73635 0.0
O138 O 0.40562 0.49368 0.83409 0.0
O139 O 0.40494 0.54657 0.81046 0.0
Co140 Co 0.82803 0.78783 0.99153 0.0
O141 O 0.78857 0.76192 0.01155 0.0
O142 O 0.84363 0.74666 0.01681 0.0
C143 C 0.8142 0.84552 0.00429 0.0
O144 O 0.87545 0.80429 0.97354 0.0
Co145 Co 0.81895 0.83831 0.92902 0.0
O146 O 0.87013 0.84725 0.9338 0.0
C147 C 0.81423 0.76047 0.91854 0.0
C148 C 0.81095 0.73789 0.0207 0.0
C149 C 0.8888 0.8262 0.95135 0.0
O150 O 0.82286 0.7565 0.95005 0.0
O151 O 0.80866 0.79108 0.90489 0.0
O152 O 0.82891 0.82548 0.02735 0.0
O153 O 0.80477 0.82905 0.97637 0.0
Co154 Co 0.60216 0.05557 0.15548 0.0
O155 O 0.63577 0.02601 0.13258 0.0
O156 O 0.64014 0.04524 0.18649 0.0
C157 C 0.55125 0.02882 0.13937 0.0
O158 O 0.57338 0.08703 0.1872 0.0
Co159 Co 0.55271 0.10041 0.1088 0.0
O160 O 0.53068 0.10959 0.15421 0.0
C161 C 0.62558 0.12292 0.11618 0.0
C162 C 0.65464 0.02968 0.16029 0.0
C163 C 0.54518 0.10467 0.18345 0.0
O164 O 0.62915 0.09911 0.13956 0.0
O165 O 0.59786 0.12637 0.0983 0.0
O166 O 0.56959 0.01488 0.16404 0.0
O167 O 0.56754 0.05324 0.12183 0.0
Co168 Co 0.43419 0.26197 0.1312 0.0
O169 O 0.39727 0.25131 0.16387 0.0
O170 O 0.43584 0.29595 0.16881 0.0
C171 C 0.40485 0.25536 0.08007 0.0
O172 O 0.47594 0.28141 0.1044 0.0
Co173 Co 0.46018 0.20281 0.08161 0.0
O174 O 0.49491 0.24007 0.06704 0.0
C175 C 0.4746 0.19734 0.15513 0.0
C176 C 0.41127 0.27652 0.18301 0.0
C177 C 0.49745 0.27078 0.08139 0.0
O178 O 0.46512 0.22981 0.15879 0.0
O179 O 0.47105 0.17985 0.12696 0.0
O180 O 0.40302 0.28499 0.09785 0.0
O181 O 0.42047 0.23023 0.09626 0.0
Co182 Co 0.12018 0.78531 0.37417 0.0
O183 O 0.10364 0.74481 0.34668 0.0
O184 O 0.14991 0.77889 0.33492 0.0
C185 C 0.11657 0.76231 0.42773 0.0
O186 O 0.14607 0.82929 0.39423 0.0
Co187 Co 0.07213 0.82615 0.42173 0.0
O188 O 0.11107 0.86052 0.42896 0.0
C189 C 0.07771 0.84795 0.34932 0.0
C190 C 0.12739 0.75478 0.32445 0.0
C191 C 0.13986 0.85664 0.41345 0.0
O192 O 0.0907 0.81716 0.34464 0.0
O193 O 0.06888 0.85797 0.37951 0.0
O194 O 0.1427 0.75488 0.4078 0.0
O195 O 0.0909 0.77862 0.41309 0.0
Co196 Co 0.40414 0.31677 0.6301 0.0
O197 O 0.42424 0.2878 0.66633 0.0
O198 O 0.37176 0.31129 0.66793 0.0
C199 C 0.41815 0.28424 0.58222 0.0
O200 O 0.37426 0.34718 0.59939 0.0
Co201 Co 0.44988 0.35614 0.57573 0.0
O202 O 0.40481 0.37196 0.55628 0.0
C203 C 0.44599 0.38604 0.64498 0.0
C204 C 0.39575 0.29349 0.68353 0.0
C205 C 0.37595 0.36596 0.57166 0.0
O206 O 0.42326 0.36159 0.6526 0.0
O207 O 0.46204 0.38757 0.61615 0.0
O208 O 0.39187 0.27478 0.6017 0.0
O209 O 0.43743 0.30964 0.59544 0.0
Co210 Co 0.07127 0.73196 0.87224 0.0
O211 O 0.10662 0.70958 0.84449 0.0
O212 O 0.08369 0.76201 0.83372 0.0
C213 C 0.09155 0.72339 0.92671 0.0
O214 O 0.03509 0.76381 0.89432 0.0
Co215 Co 0.02437 0.68521 0.92109 0.0
O216 O 0.00681 0.7325 0.9356 0.0
C217 C 0.01532 0.67953 0.84621 0.0
C218 C 0.10406 0.73669 0.82361 0.0
C219 C 0.0134 0.76174 0.91956 0.0
O220 O 0.03472 0.70769 0.8422 0.0
O221 O 0.0106 0.66416 0.87534 0.0
O222 O 0.10538 0.74833 0.90727 0.0
O223 O 0.07138 0.70115 0.91019 0.0
Co224 Co 0.10153 0.70181 0.13201 0.0
O225 O 0.09096 0.74363 0.15895 0.0
O226 O 0.13825 0.71198 0.16466 0.0
C227 C 0.0878 0.72016 0.07767 0.0
O228 O 0.122 0.65781 0.11082 0.0
Co229 Co 0.04295 0.6568 0.09974 0.0
O230 O 0.08036 0.62526 0.08347 0.0
C231 C 0.05374 0.64919 0.17317 0.0
C232 C 0.11919 0.73754 0.17651 0.0
C233 C 0.11175 0.63073 0.09287 0.0
O234 O 0.07938 0.67118 0.16868 0.0
O235 O 0.03365 0.64014 0.14825 0.0
O236 O 0.11716 0.7297 0.09222 0.0
O237 O 0.0655 0.70457 0.09842 0.0
Co238 Co 0.54747 0.76953 0.10192 0.0
O239 O 0.58223 0.791 0.13263 0.0
O240 O 0.55231 0.74093 0.14335 0.0
C241 C 0.5766 0.7757 0.05023 0.0
O242 O 0.51103 0.73807 0.0771 0.0
Co243 Co 0.51122 0.81284 0.04461 0.0
O244 O 0.49516 0.76492 0.02822 0.0
C245 C 0.49499 0.82744 0.11675 0.0
C246 C 0.57453 0.76525 0.15416 0.0
C247 C 0.49617 0.73718 0.04731 0.0
O248 O 0.51041 0.79861 0.12575 0.0
O249 O 0.49498 0.83953 0.08597 0.0
O250 O 0.58336 0.74947 0.07123 0.0
O251 O 0.55564 0.79851 0.06331 0.0
Co252 Co 0.38796 0.22733 0.87923 0.0
O253 O 0.41026 0.25963 0.84685 0.0
O254 O 0.35551 0.23993 0.84325 0.0
C255 C 0.40642 0.25191 0.93019 0.0
O256 O 0.35682 0.19317 0.90678 0.0
Co257 Co 0.43454 0.17839 0.92267 0.0
O258 O 0.38955 0.16003 0.94179 0.0
C259 C 0.42393 0.16112 0.85052 0.0
C260 C 0.38173 0.25678 0.8288 0.0
C261 C 0.35988 0.16903 0.93026 0.0
O262 O 0.402 0.18631 0.84961 0.0
O263 O 0.44303 0.15487 0.87675 0.0
O264 O 0.38029 0.26509 0.91334 0.0
O265 O 0.42308 0.228 0.91292 0.0
Co266 Co 0.43531 0.26386 0.38116 0.0
O267 O 0.40194 0.28326 0.34862 0.0
O268 O 0.42656 0.23081 0.34445 0.0
C269 C 0.40951 0.27723 0.43264 0.0
O270 O 0.46974 0.23357 0.40729 0.0
Co271 Co 0.4784 0.31035 0.43262 0.0
O272 O 0.49564 0.26398 0.45024 0.0
C273 C 0.49361 0.31483 0.35849 0.0
C274 C 0.40724 0.25463 0.33015 0.0
C275 C 0.48979 0.23487 0.43376 0.0
O276 O 0.47395 0.28708 0.35296 0.0
O277 O 0.49631 0.33023 0.38787 0.0
O278 O 0.39911 0.24948 0.41461 0.0
O279 O 0.43183 0.29752 0.41663 0.0
Co280 Co 0.12637 0.05469 0.63988 0.0
O281 O 0.15781 0.02552 0.61354 0.0
O282 O 0.16773 0.04509 0.66665 0.0
C283 C 0.07553 0.02458 0.62755 0.0
O284 O 0.10031 0.08536 0.67482 0.0
Co285 Co 0.06784 0.09644 0.60186 0.0
O286 O 0.05037 0.10184 0.6495 0.0
C287 C 0.13994 0.12665 0.60465 0.0
C288 C 0.17907 0.02851 0.63949 0.0
C289 C 0.07018 0.09987 0.67582 0.0
O290 O 0.1504 0.09969 0.62205 0.0
O291 O 0.10891 0.12917 0.59287 0.0
O292 O 0.09627 0.01266 0.65128 0.0
O293 O 0.08834 0.05064 0.60953 0.0
Co294 Co 0.75021 0.02638 0.94539 0.0
O295 O 0.77477 0.07234 0.94719 0.0
O296 O 0.71799 0.06487 0.95411 0.0
C297 C 0.78478 0.99246 0.97917 0.0
O298 O 0.71662 0.98294 0.94598 0.0
Co299 Co 0.78639 0.96271 0.90899 0.0
O300 O 0.74601 0.93527 0.9278 0.0
C301 C 0.75054 0.01539 0.86666 0.0
C302 C 0.74477 0.08686 0.95227 0.0
C303 C 0.71915 0.94877 0.94149 0.0
O304 O 0.74227 0.03253 0.89413 0.0
O305 O 0.77004 0.98807 0.86679 0.0
O306 O 0.76324 0.01468 0.99286 0.0
O307 O 0.78933 0.997 0.94637 0.0
Co308 Co 0.88089 0.49181 0.31032 0.0
O309 O 0.85187 0.51401 0.34504 0.0
O310 O 0.84068 0.4616 0.32001 0.0
C311 C 0.93477 0.49913 0.33254 0.0
O312 O 0.90379 0.45966 0.27479 0.0
Co313 Co 0.9313 0.53601 0.26476 0.0
O314 O 0.94375 0.49006 0.24338 0.0
C315 C 0.85756 0.53383 0.2459 0.0
C316 C 0.83045 0.48679 0.34046 0.0
C317 C 0.92746 0.46116 0.25121 0.0
O318 O 0.85256 0.51573 0.27354 0.0
O319 O 0.88797 0.54503 0.237 0.0
O320 O 0.91354 0.47455 0.34468 0.0
O321 O 0.92054 0.52263 0.3125 0.0
Co322 Co 0.33337 0.80802 0.47967 0.0
O323 O 0.29083 0.78092 0.49082 0.0
O324 O 0.34188 0.77361 0.51578 0.0
C325 C 0.31313 0.8658 0.47572 0.0
O326 O 0.38288 0.82747 0.47567 0.0
Co327 Co 0.34315 0.84368 0.40855 0.0
O328 O 0.39336 0.83819 0.4199 0.0
C329 C 0.34064 0.76621 0.41265 0.0
C330 C 0.31034 0.76152 0.51074 0.0
C331 C 0.40393 0.83087 0.45017 0.0
O332 O 0.34369 0.76967 0.44526 0.0
O333 O 0.33635 0.79269 0.39233 0.0
O334 O 0.3202 0.85133 0.50549 0.0
O335 O 0.31487 0.84333 0.45046 0.0
Co336 Co 0.11236 0.00863 0.19145 0.0
O337 O 0.07529 0.98595 0.16486 0.0
O338 O 0.06957 0.03475 0.1965 0.0
C339 C 0.15582 0.00675 0.1518 0.0
O340 O 0.14461 0.03888 0.22282 0.0
Co341 Co 0.17871 0.96531 0.20996 0.0
O342 O 0.19661 0.01243 0.22629 0.0
C343 C 0.11157 0.94988 0.24521 0.0
C344 C 0.05472 0.00939 0.17819 0.0
C345 C 0.17673 0.03848 0.23276 0.0
O346 O 0.09787 0.97748 0.2316 0.0
O347 O 0.1422 0.93934 0.23776 0.0
O348 O 0.1331 0.03207 0.15047 0.0
O349 O 0.14874 0.98183 0.17377 0.0
Co350 Co 0.8148 0.69444 0.51025 0.0
O351 O 0.77305 0.72064 0.49947 0.0
O352 O 0.82349 0.72732 0.47263 0.0
C353 C 0.79282 0.63688 0.51632 0.0
O354 O 0.86363 0.67544 0.5147 0.0
Co355 Co 0.82235 0.66225 0.58335 0.0
O356 O 0.8726 0.6636 0.57065 0.0
C357 C 0.82803 0.73938 0.57516 0.0
C358 C 0.79272 0.73963 0.47861 0.0
C359 C 0.88403 0.67012 0.54037 0.0
O360 O 0.82794 0.73411 0.54267 0.0
O361 O 0.82259 0.71438 0.59718 0.0
O362 O 0.79968 0.65041 0.48601 0.0
O363 O 0.79536 0.66034 0.54079 0.0
Co364 Co 0.88219 0.55873 0.85363 0.0
O365 O 0.91149 0.51718 0.84923 0.0
O366 O 0.91866 0.55937 0.88861 0.0
C367 C 0.82809 0.53223 0.84761 0.0
O368 O 0.85804 0.60541 0.86541 0.0
Co369 Co 0.83967 0.58302 0.78966 0.0
O370 O 0.82014 0.61795 0.82273 0.0
C371 C 0.91439 0.60034 0.7925 0.0
C372 C 0.9307 0.5309 0.87377 0.0
C373 C 0.83389 0.62451 0.85205 0.0
O374 O 0.91484 0.58613 0.82258 0.0
O375 O 0.88714 0.60053 0.77348 0.0
O376 O 0.84469 0.53139 0.87683 0.0
O377 O 0.84706 0.54453 0.82246 0.0
Co378 Co 0.25392 0.45951 0.06728 0.0
O379 O 0.27693 0.41456 0.05844 0.0
O380 O 0.21991 0.42138 0.05907 0.0
C381 C 0.28506 0.49886 0.03259 0.0
O382 O 0.22058 0.49981 0.07433 0.0
Co383 Co 0.29422 0.52283 0.10312 0.0
O384 O 0.25051 0.54854 0.09373 0.0
C385 C 0.26696 0.46351 0.14573 0.0
C386 C 0.24589 0.39995 0.05581 0.0
C387 C 0.22269 0.53295 0.08299 0.0
O388 O 0.25208 0.44933 0.11894 0.0
O389 O 0.28812 0.49034 0.1435 0.0
O390 O 0.26144 0.47704 0.01982 0.0
O391 O 0.29297 0.49098 0.06401 0.0
Co392 Co 0.18825 0.20852 0.98939 0.0
O393 O 0.23051 0.22638 0.01126 0.0
O394 O 0.17843 0.24839 0.01932 0.0
C395 C 0.19632 0.14833 0.99638 0.0
O396 O 0.13889 0.19889 0.97139 0.0
Co397 Co 0.19083 0.16542 0.92207 0.0
O398 O 0.13982 0.15863 0.92839 0.0
C399 C 0.19537 0.24438 0.91863 0.0
C400 C 0.21186 0.2515 0.02455 0.0
C401 C 0.12342 0.17974 0.94806 0.0
O402 O 0.19478 0.24498 0.95161 0.0
O403 O 0.19498 0.21521 0.90118 0.0
O404 O 0.18412 0.16768 0.0213 0.0
O405 O 0.20704 0.16633 0.96966 0.0
Co406 Co 0.35735 0.97465 0.11881 0.0
O407 O 0.32066 0.0035 0.09978 0.0
O408 O 0.31479 0.96793 0.14517 0.0
C409 C 0.40177 0.01614 0.11854 0.0
O410 O 0.38927 0.94115 0.14558 0.0
Co411 Co 0.42291 0.9583 0.0746 0.0
O412 O 0.44178 0.94495 0.1201 0.0
C413 C 0.36186 0.90814 0.07629 0.0
C414 C 0.30058 0.98991 0.12355 0.0
C415 C 0.42202 0.93415 0.14456 0.0
O416 O 0.34299 0.93283 0.08892 0.0
O417 O 0.39412 0.91313 0.06897 0.0
O418 O 0.37839 0.01578 0.14277 0.0
O419 O 0.39408 0.9952 0.09298 0.0
Co420 Co 0.74029 0.94729 0.44477 0.0
O421 O 0.72163 0.90002 0.45708 0.0
O422 O 0.77722 0.91332 0.44843 0.0
C423 C 0.70999 0.98223 0.48222 0.0
O424 O 0.76977 0.99174 0.43371 0.0
Co425 Co 0.69362 0.00482 0.41191 0.0
O426 O 0.73379 0.03733 0.42325 0.0
C427 C 0.72187 0.94822 0.3675 0.0
C428 C 0.75351 0.88898 0.45549 0.0
C429 C 0.76401 0.02519 0.42894 0.0
O430 O 0.73727 0.93553 0.39408 0.0
O431 O 0.70176 0.97509 0.36948 0.0
O432 O 0.73683 0.96442 0.49249 0.0
O433 O 0.69972 0.97374 0.45142 0.0
Co434 Co 0.62297 0.52616 0.79804 0.0
O435 O 0.65571 0.50445 0.8299 0.0
O436 O 0.66644 0.5536 0.79962 0.0
C437 C 0.57224 0.52476 0.82778 0.0
O438 O 0.59758 0.55723 0.76395 0.0
Co439 Co 0.56195 0.48259 0.76449 0.0
O440 O 0.55408 0.52711 0.73736 0.0
C441 C 0.63279 0.46659 0.74535 0.0
C442 C 0.67811 0.52929 0.82026 0.0
C443 C 0.5725 0.55559 0.742 0.0
O444 O 0.6426 0.49626 0.75956 0.0
O445 O 0.60207 0.45317 0.74883 0.0
O446 O 0.59635 0.54875 0.83518 0.0
O447 O 0.58223 0.49915 0.8079 0.0
Co448 Co 0.61531 0.71543 0.60925 0.0
O449 O 0.60569 0.75977 0.6328 0.0
O450 O 0.6486 0.72442 0.646 0.0
C451 C 0.60964 0.73195 0.55276 0.0
O452 O 0.63386 0.66797 0.59268 0.0
Co453 Co 0.55572 0.67522 0.57348 0.0
O454 O 0.58837 0.63448 0.57338 0.0
C455 C 0.55832 0.67011 0.64744 0.0
C456 C 0.63084 0.75245 0.65407 0.0
C457 C 0.62032 0.63834 0.58159 0.0
O458 O 0.58635 0.68906 0.64443 0.0
O459 O 0.53964 0.66216 0.62119 0.0
O460 O 0.6379 0.73957 0.5701 0.0
O461 O 0.5837 0.72 0.57144 0.0
Co462 Co 0.93056 0.2601 0.86772 0.0
O463 O 0.89257 0.27613 0.8392 0.0
O464 O 0.9257 0.22989 0.82753 0.0
C465 C 0.90573 0.26411 0.92113 0.0
O466 O 0.9709 0.23496 0.89052 0.0
Co467 Co 0.96668 0.31219 0.92015 0.0
O468 O 0.99419 0.26957 0.93241 0.0
C469 C 0.98048 0.32095 0.84642 0.0
C470 C 0.90194 0.25177 0.81724 0.0
C471 C 0.99279 0.24045 0.91515 0.0
O472 O 0.96384 0.29141 0.84035 0.0
O473 O 0.98193 0.33581 0.87612 0.0
O474 O 0.89895 0.23673 0.90111 0.0
O475 O 0.92308 0.28949 0.9059 0.0
Co476 Co 0.90992 0.18685 0.37141 0.0
O477 O 0.9329 0.21801 0.33829 0.0
O478 O 0.87851 0.19746 0.33428 0.0
C479 C 0.92591 0.21313 0.4224 0.0
O480 O 0.87728 0.15355 0.39781 0.0
Co481 Co 0.95422 0.13975 0.41929 0.0
O482 O 0.90877 0.11553 0.4296 0.0
C483 C 0.9485 0.12013 0.34726 0.0
C484 C 0.90482 0.21368 0.31957 0.0
C485 C 0.87997 0.12574 0.41705 0.0
O486 O 0.92645 0.14514 0.34416 0.0
O487 O 0.96553 0.11469 0.37498 0.0
O488 O 0.90044 0.22556 0.404 0.0
O489 O 0.94347 0.18887 0.40667 0.0
Co490 Co 0.93895 0.2351 0.62492 0.0
O491 O 0.90165 0.21599 0.65354 0.0
O492 O 0.92762 0.26863 0.66085 0.0
C493 C 0.91629 0.22051 0.57185 0.0
O494 O 0.97767 0.26404 0.60111 0.0
Co495 Co 0.98235 0.18446 0.57853 0.0
O496 O 0.00567 0.22955 0.56299 0.0
C497 C 0.99349 0.18563 0.65372 0.0
C498 C 0.90485 0.24497 0.67198 0.0
C499 C 1.00103 0.25959 0.57778 0.0
O500 O 0.97391 0.21286 0.65687 0.0
O501 O 0.99777 0.16871 0.6254 0.0
O502 O 0.90646 0.24901 0.58826 0.0
O503 O 0.93631 0.20064 0.58995 0.0
Co504 Co 0.57463 0.74195 0.35485 0.0
O505 O 0.60961 0.73377 0.31978 0.0
O506 O 0.5677 0.77268 0.31551 0.0
C507 C 0.60904 0.74321 0.40315 0.0
O508 O 0.53438 0.7587 0.38464 0.0
Co509 Co 0.55817 0.68596 0.41247 0.0
O510 O 0.53481 0.7274 0.43411 0.0
C511 C 0.53099 0.67368 0.3422 0.0
C512 C 0.59382 0.75711 0.30085 0.0
C513 C 0.52391 0.75318 0.41577 0.0
O514 O 0.54346 0.70431 0.33251 0.0
O515 O 0.53597 0.66049 0.37222 0.0
O516 O 0.60704 0.77133 0.38344 0.0
O517 O 0.59395 0.715 0.39028 0.0
Co518 Co 0.59366 0.80135 0.85212 0.0
O519 O 0.58286 0.76763 0.81497 0.0
O520 O 0.63009 0.80248 0.81744 0.0
C521 C 0.57997 0.76807 0.90012 0.0
O522 O 0.61427 0.83871 0.88492 0.0
Co523 Co 0.53479 0.8311 0.8978 0.0
O524 O 0.57365 0.85543 0.92318 0.0
C525 C 0.54293 0.85957 0.829 0.0
C526 C 0.61093 0.77995 0.79975 0.0
C527 C 0.60456 0.85687 0.91133 0.0
O528 O 0.57006 0.84036 0.82595 0.0
O529 O 0.52285 0.85848 0.8552 0.0
O530 O 0.60922 0.76367 0.8837 0.0
O531 O 0.5584 0.7878 0.88339 0.0
Co532 Co 0.63042 0.43609 0.37291 0.0
O533 O 0.60138 0.47752 0.36808 0.0
O534 O 0.59338 0.43495 0.40703 0.0
C535 C 0.68394 0.46252 0.36873 0.0
O536 O 0.65411 0.38923 0.38499 0.0
Co537 Co 0.67413 0.41257 0.30957 0.0
O538 O 0.68696 0.3721 0.33982 0.0
C539 C 0.59977 0.39422 0.31108 0.0
C540 C 0.58189 0.4637 0.39229 0.0
C541 C 0.67435 0.36697 0.36984 0.0
O542 O 0.59857 0.40864 0.34104 0.0
O543 O 0.62721 0.39471 0.29239 0.0
O544 O 0.66678 0.46357 0.39763 0.0
O545 O 0.6661 0.45083 0.34253 0.0
Co546 Co 0.25557 0.5538 0.55459 0.0
O547 O 0.23717 0.60062 0.54398 0.0
O548 O 0.29306 0.58893 0.54791 0.0
C549 C 0.22204 0.51872 0.51843 0.0
O550 O 0.28345 0.50873 0.56347 0.0
Co551 Co 0.20628 0.4971 0.58931 0.0
O552 O 0.24335 0.46481 0.57333 0.0
C553 C 0.24301 0.55069 0.63305 0.0
C554 C 0.26916 0.6125 0.54239 0.0
C555 C 0.27455 0.47536 0.56702 0.0
O556 O 0.25715 0.56455 0.60589 0.0
O557 O 0.2202 0.52524 0.63131 0.0
O558 O 0.24854 0.53738 0.50691 0.0
O559 O 0.21354 0.5273 0.54958 0.0
Co560 Co 0.36999 0.01353 0.6908 0.0
O561 O 0.4074 0.0227 0.65853 0.0
O562 O 0.41078 0.98612 0.70319 0.0
C563 C 0.32489 0.00718 0.65341 0.0
O564 O 0.33604 0.99867 0.72957 0.0
Co565 Co 0.3119 0.07057 0.69538 0.0
O566 O 0.28781 0.03059 0.72023 0.0
C567 C 0.37726 0.08265 0.73337 0.0
C568 C 0.42643 0.00237 0.67756 0.0
C569 C 0.30411 0.00636 0.73642 0.0
O570 O 0.38856 0.05314 0.72128 0.0
O571 O 0.34797 0.09577 0.72489 0.0
O572 O 0.34545 0.98051 0.65887 0.0
O573 O 0.3358 0.03736 0.66609 0.0
Co574 Co 0.70068 0.27995 0.0124 0.0
O575 O 0.74136 0.26006 0.99068 0.0
O576 O 0.68742 0.24263 0.97996 0.0
C577 C 0.71583 0.3401 0.00992 0.0
O578 O 0.65208 0.29209 0.02929 0.0
Co579 Co 0.7056 0.3185 0.08214 0.0
O580 O 0.65646 0.33082 0.07347 0.0
C581 C 0.70827 0.24054 0.0814 0.0
C582 C 0.72044 0.2373 0.9752 0.0
C583 C 0.63834 0.31234 0.05217 0.0
O584 O 0.70281 0.24183 0.04878 0.0
O585 O 0.71236 0.26876 0.09972 0.0
O586 O 0.70225 0.32345 0.98337 0.0
O587 O 0.72293 0.31889 0.03515 0.0
Co588 Co 0.90971 0.27857 0.1244 0.0
O589 O 0.93378 0.24355 0.15178 0.0
O590 O 0.8803 0.26217 0.16174 0.0
C591 C 0.92275 0.25968 0.07008 0.0
O592 O 0.87694 0.31421 0.1028 0.0
Co593 Co 0.95455 0.33302 0.0837 0.0
O594 O 0.90954 0.35633 0.07537 0.0
C595 C 0.94693 0.34472 0.15729 0.0
C596 C 0.90704 0.24443 0.17234 0.0
C597 C 0.88044 0.34418 0.0866 0.0
O598 O 0.92682 0.31708 0.15656 0.0
O599 O 0.96303 0.35568 0.13029 0.0
O600 O 0.89798 0.2442 0.08802 0.0
O601 O 0.94193 0.28211 0.08783 0.0
Co602 Co 0.07343 0.75036 0.62524 0.0
O603 O 0.11279 0.76024 0.65523 0.0
O604 O 0.06876 0.72308 0.66752 0.0
C605 C 0.10272 0.74466 0.5747 0.0
O606 O 0.02867 0.73321 0.60089 0.0
Co607 Co 0.05516 0.80311 0.56607 0.0
O608 O 0.02736 0.76083 0.54953 0.0
C609 C 0.03592 0.82036 0.6378 0.0
C610 C 0.0972 0.73962 0.67767 0.0
C611 C 0.01564 0.73717 0.57051 0.0
O612 O 0.04713 0.79004 0.64803 0.0
O613 O 0.0388 0.83161 0.60672 0.0
O614 O 0.10086 0.71794 0.59625 0.0
O615 O 0.09094 0.77437 0.58631 0.0
Co616 Co 0.62982 0.99742 0.68217 0.0
O617 O 0.5926 0.98836 0.6493 0.0
O618 O 0.59391 0.03215 0.68721 0.0
C619 C 0.67799 0.99083 0.64943 0.0
O620 O 0.66288 0.01481 0.72033 0.0
Co621 Co 0.67756 0.93398 0.70189 0.0
O622 O 0.70038 0.97078 0.73196 0.0
C623 C 0.60611 0.93493 0.72749 0.0
C624 C 0.57625 0.01463 0.66374 0.0
C625 C 0.68886 0.00216 0.73713 0.0
O626 O 0.60369 0.96699 0.71634 0.0
O627 O 0.63238 0.91529 0.72191 0.0
O628 O 0.66044 0.02021 0.64745 0.0
O629 O 0.66191 0.96495 0.66532 0.0
Co630 Co 0.30575 0.71088 0.99881 0.0
O631 O 0.2636 0.7357 0.98628 0.0
O632 O 0.31493 0.74492 0.96201 0.0
C633 C 0.28512 0.65298 0.00581 0.0
O634 O 0.35483 0.69215 0.00466 0.0
Co635 Co 0.3134 0.6831 0.07253 0.0
O636 O 0.35902 0.66604 0.05635 0.0
C637 C 0.3221 0.75888 0.0618 0.0
C638 C 0.28351 0.75626 0.96712 0.0
C639 C 0.37214 0.67461 0.02729 0.0
O640 O 0.31792 0.75153 0.03 0.0
O641 O 0.31962 0.73515 0.08542 0.0
O642 O 0.29183 0.66608 0.97524 0.0
O643 O 0.28619 0.67702 0.03 0.0
Co644 Co 0.39451 0.54927 0.3728 0.0
O645 O 0.42224 0.50664 0.37012 0.0
O646 O 0.43236 0.55182 0.40592 0.0
C647 C 0.33992 0.52477 0.37143 0.0
O648 O 0.37296 0.59767 0.38245 0.0
Co649 Co 0.34949 0.56968 0.3091 0.0
O650 O 0.34107 0.6138 0.33626 0.0
C651 C 0.42445 0.58457 0.3072 0.0
C652 C 0.44281 0.52184 0.39278 0.0
C653 C 0.35428 0.6202 0.36585 0.0
O654 O 0.42617 0.57321 0.33833 0.0
O655 O 0.39646 0.58309 0.28932 0.0
O656 O 0.35775 0.525 0.40001 0.0
O657 O 0.35755 0.53378 0.34427 0.0
Co658 Co 0.74099 0.44596 0.56705 0.0
O659 O 0.7615 0.39928 0.56103 0.0
O660 O 0.70718 0.41184 0.54848 0.0
C661 C 0.78265 0.48367 0.54384 0.0
O662 O 0.71062 0.48972 0.56966 0.0
Co663 Co 0.7764 0.49953 0.61822 0.0
O664 O 0.73847 0.53102 0.60297 0.0
C665 C 0.7333 0.4413 0.6465 0.0
C666 C 0.73084 0.38768 0.5511 0.0
C667 C 0.7132 0.52089 0.58373 0.0
O668 O 0.72562 0.43223 0.61533 0.0
O669 O 0.75574 0.46615 0.65339 0.0
O670 O 0.76131 0.46521 0.52424 0.0
O671 O 0.78209 0.47308 0.57564 0.0
C672 C 0.25112 0.48358 0.20494 0.0
C673 C 0.25227 0.45525 0.18086 0.0
C674 C 0.20421 0.42585 0.21282 0.0
C675 C 0.1963 0.45962 0.22795 0.0
N676 N 0.21145 0.52331 0.23187 0.0
N677 N 0.23675 0.39401 0.16868 0.0
C678 C 0.21975 0.48922 0.22264 0.0
C679 C 0.23077 0.4245 0.18689 0.0
N680 N 0.27977 0.50487 0.21124 0.0
N681 N 0.18753 0.39531 0.22408 0.0
H682 H 0.25823 0.39201 0.15232 0.0
H683 H 0.22081 0.37112 0.16976 0.0
H684 H 0.16994 0.39521 0.24455 0.0
H685 H 0.19346 0.3697 0.21563 0.0
H686 H 0.27995 0.52488 0.23006 0.0
H687 H 0.30426 0.49878 0.20147 0.0
H688 H 0.22759 0.5454 0.22614 0.0
H689 H 0.18683 0.53028 0.24045 0.0
C690 C 0.65574 0.26992 0.39472 0.0
C691 C 0.68848 0.2599 0.40816 0.0
C692 C 0.71265 0.32006 0.39583 0.0
C693 C 0.67909 0.33097 0.38516 0.0
N694 N 0.61761 0.31747 0.37758 0.0
N695 N 0.74687 0.27598 0.42603 0.0
C696 C 0.65033 0.30623 0.38555 0.0
C697 C 0.71664 0.28514 0.40997 0.0
N698 N 0.62974 0.24455 0.39055 0.0
N699 N 0.74075 0.34289 0.39205 0.0
H700 H 0.75123 0.25014 0.43511 0.0
H701 H 0.76677 0.29434 0.43214 0.0
H702 H 0.73866 0.36894 0.38275 0.0
H703 H 0.7664 0.33533 0.39592 0.0
H704 H 0.60663 0.24897 0.37734 0.0
H705 H 0.63219 0.21794 0.39805 0.0
H706 H 0.595 0.30234 0.38232 0.0
H707 H 0.61243 0.34297 0.36837 0.0
C708 C 0.82921 0.84034 0.57965 0.0
C709 C 0.86498 0.84721 0.58659 0.0
C710 C 0.87375 0.78263 0.59593 0.0
C711 C 0.83855 0.77588 0.5863 0.0
N712 N 0.78183 0.79874 0.5715 0.0
N713 N 0.92093 0.82609 0.60551 0.0
C714 C 0.81608 0.80467 0.57937 0.0
C715 C 0.88714 0.81863 0.59612 0.0
N716 N 0.80754 0.86778 0.57206 0.0
N717 N 0.89423 0.75445 0.60467 0.0
H718 H 0.93075 0.85197 0.60971 0.0
H719 H 0.93977 0.80705 0.60949 0.0
H720 H 0.88508 0.72796 0.60503 0.0
H721 H 0.92 0.75659 0.6127 0.0
H722 H 0.78104 0.86362 0.56694 0.0
H723 H 0.81609 0.89444 0.57015 0.0
H724 H 0.76972 0.7734 0.57101 0.0
H725 H 0.76972 0.7734 0.57101 0.0
C726 C 0.2791 0.95858 0.77764 0.0
C727 C 0.28759 0.99483 0.76949 0.0
C728 C 0.24816 0.01507 0.8143 0.0
C729 C 0.24275 0.97926 0.82608 0.0
N730 N 0.25424 0.91647 0.81948 0.0
N731 N 0.29023 0.05607 0.78946 0.0
C732 C 0.25879 0.95079 0.80794 0.0
C733 C 0.27528 0.02249 0.79085 0.0
N734 N 0.28978 0.93192 0.75632 0.0
N735 N 0.22732 0.0424 0.82432 0.0
H736 H 0.31167 0.06221 0.77389 0.0
H737 H 0.28408 0.07632 0.80684 0.0
H738 H 0.20586 0.03976 0.84039 0.0
H739 H 0.22911 0.06775 0.81302 0.0
H740 H 0.28147 0.90527 0.75867 0.0
H741 H 0.30597 0.93696 0.73523 0.0
H742 H 0.268 0.8949 0.8099 0.0
H743 H 0.23723 0.90994 0.83961 0.0
C744 C 0.21691 0.30115 0.88886 0.0
C745 C 0.18893 0.27897 0.90081 0.0
C746 C 0.14696 0.32173 0.87833 0.0
C747 C 0.17468 0.34573 0.8694 0.0
N748 N 0.23613 0.3606 0.86991 0.0
N749 N 0.12764 0.27301 0.91467 0.0
C750 C 0.20979 0.33604 0.87561 0.0
C751 C 0.15409 0.29075 0.89789 0.0
N752 N 0.25011 0.28878 0.89005 0.0
N753 N 0.11389 0.32726 0.86655 0.0
H754 H 0.13157 0.25043 0.92963 0.0
H755 H 0.10247 0.28274 0.91648 0.0
H756 H 0.10731 0.34879 0.85095 0.0
H757 H 0.09366 0.30833 0.86916 0.0
H758 H 0.27138 0.30203 0.8788 0.0
H759 H 0.25598 0.26381 0.90039 0.0
H760 H 0.26196 0.35657 0.87676 0.0
H761 H 0.23165 0.38641 0.86082 0.0
C762 C 0.80104 0.57232 0.17365 0.0
C763 C 0.77184 0.54812 0.17443 0.0
C764 C 0.79638 0.51771 0.22375 0.0
C765 C 0.82665 0.54081 0.22311 0.0
N766 N 0.8483 0.59988 0.20655 0.0
N767 N 0.73427 0.51677 0.2148 0.0
C768 C 0.82629 0.57121 0.20075 0.0
C769 C 0.76686 0.52741 0.20456 0.0
N770 N 0.80432 0.59688 0.14782 0.0
N771 N 0.7959 0.48517 0.23989 0.0
H772 H 0.71196 0.52641 0.20289 0.0
H773 H 0.72983 0.50287 0.23779 0.0
H774 H 0.81785 0.47304 0.2497 0.0
H775 H 0.77429 0.46771 0.23873 0.0
H776 H 0.82724 0.61163 0.14319 0.0
H777 H 0.78388 0.60234 0.13115 0.0
H778 H 0.84734 0.62361 0.19249 0.0
H779 H 0.86419 0.60193 0.22829 0.0
C780 C 0.76802 0.92491 0.32791 0.0
C781 C 0.73349 0.93663 0.3323 0.0
C782 C 0.7334 0.95559 0.27188 0.0
C783 C 0.77044 0.95594 0.27242 0.0
N784 N 0.82349 0.93757 0.30078 0.0
N785 N 0.67944 0.9503 0.30481 0.0
C786 C 0.78798 0.93869 0.29989 0.0
C787 C 0.71474 0.94737 0.30275 0.0
N788 N 0.78136 0.90024 0.34992 0.0
N789 N 0.71662 0.96372 0.24193 0.0
H790 H 0.66559 0.94114 0.32638 0.0
H791 H 0.66405 0.96126 0.28562 0.0
H792 H 0.73031 0.96873 0.21915 0.0
H793 H 0.6897 0.96287 0.23885 0.0
H794 H 0.80583 0.88922 0.34657 0.0
H795 H 0.76588 0.88714 0.36833 0.0
H796 H 0.83719 0.92945 0.32252 0.0
H797 H 0.83945 0.94642 0.28072 0.0
C798 C 0.17029 0.20415 0.55431 0.0
C799 C 0.18792 0.2267 0.57879 0.0
C800 C 0.18003 0.17895 0.62187 0.0
C801 C 0.16461 0.15648 0.59609 0.0
N802 N 0.15915 0.14332 0.53568 0.0
N803 N 0.21732 0.2311 0.63374 0.0
C804 C 0.16531 0.16752 0.56151 0.0
C805 C 0.19533 0.21275 0.61202 0.0
N806 N 0.15441 0.21804 0.526 0.0
N807 N 0.17885 0.16894 0.65568 0.0
H808 H 0.22978 0.25515 0.6268 0.0
H809 H 0.22586 0.22064 0.65708 0.0
H810 H 0.16897 0.1441 0.66372 0.0
H811 H 0.186 0.18612 0.67579 0.0
H812 H 0.13961 0.20244 0.50884 0.0
H813 H 0.15102 0.24534 0.52288 0.0
H814 H 0.16173 0.15007 0.50968 0.0
H815 H 0.15539 0.11597 0.54059 0.0
C816 C 0.03681 0.2957 0.53552 0.0
C817 C 0.02714 0.28867 0.57023 0.0
C818 C 0.08442 0.30924 0.58986 0.0
C819 C 0.09462 0.31697 0.5552 0.0
N820 N 0.07681 0.32599 0.49614 0.0
N821 N 0.03676 0.30431 0.63009 0.0
C822 C 0.06958 0.31295 0.5283 0.0
C823 C 0.04905 0.30108 0.59723 0.0
N824 N 0.01482 0.28517 0.50952 0.0
N825 N 0.10855 0.30611 0.61559 0.0
H826 H 0.0107 0.30035 0.63665 0.0
H827 H 0.05161 0.31579 0.64992 0.0
H828 H 0.13528 0.30829 0.61187 0.0
H829 H 0.10215 0.29662 0.64011 0.0
H830 H 0.02189 0.28516 0.48361 0.0
H831 H 0.98962 0.27522 0.51429 0.0
H832 H 0.0585 0.32666 0.47635 0.0
H833 H 0.10021 0.33918 0.49007 0.0
C834 C 0.03179 0.32086 0.80639 0.0
C835 C 1.00126 0.33766 0.81846 0.0
C836 C 0.02032 0.3943 0.79234 0.0
C837 C 0.05278 0.37879 0.78512 0.0
N838 N 0.08276 0.32542 0.76947 0.0
N839 N 0.96095 0.38579 0.81304 0.0
C840 C 0.05598 0.3412 0.78633 0.0
C841 C 0.99349 0.37285 0.80764 0.0
N842 N 0.03915 0.28672 0.81636 0.0
N843 N 0.01667 0.43021 0.78715 0.0
H844 H 0.9413 0.37059 0.82505 0.0
H845 H 0.95279 0.41038 0.80378 0.0
H846 H 0.03607 0.44564 0.77493 0.0
H847 H 0.9954 0.44463 0.79558 0.0
H848 H 0.06305 0.27493 0.81186 0.0
H849 H 0.02222 0.27077 0.83106 0.0
H850 H 0.08528 0.29774 0.76761 0.0
H851 H 0.10002 0.34006 0.75389 0.0
C852 C 0.81951 0.41622 0.11422 0.0
C853 C 0.80709 0.4285 0.0821 0.0
C854 C 0.84009 0.38227 0.05222 0.0
C855 C 0.85075 0.36873 0.0847 0.0
N856 N 0.84371 0.368 0.14681 0.0
N857 N 0.80157 0.42124 0.02059 0.0
C858 C 0.83819 0.38404 0.11571 0.0
C859 C 0.81634 0.41106 0.051 0.0
N860 N 0.81491 0.43641 0.14329 0.0
N861 N 0.8528 0.36755 0.02264 0.0
H862 H 0.78532 0.44313 0.01867 0.0
H863 H 0.80385 0.40702 0.99764 0.0
H864 H 0.86766 0.34448 0.02269 0.0
H865 H 0.84964 0.3787 0.99827 0.0
H866 H 0.82672 0.43085 0.16681 0.0
H867 H 0.8023 0.4609 0.14312 0.0
H868 H 0.82985 0.37481 0.16883 0.0
H869 H 0.85899 0.34569 0.15034 0.0
C870 C 0.9469 0.10785 0.28486 0.0
C871 C 0.94843 0.09387 0.31873 0.0
C872 C 0.90778 0.0454 0.30353 0.0
C873 C 0.90246 0.06218 0.27117 0.0
N874 N 0.92477 0.10119 0.22644 0.0
N875 N 0.94463 0.04123 0.35418 0.0
C876 C 0.92491 0.09062 0.26016 0.0
C877 C 0.93399 0.05955 0.3258 0.0
N878 N 0.96443 0.13921 0.27765 0.0
N879 N 0.88635 0.01773 0.31399 0.0
H880 H 0.96488 0.05084 0.36983 0.0
H881 H 0.93656 0.01499 0.35962 0.0
H882 H 0.86646 0.0069 0.29862 0.0
H883 H 0.88658 0.00729 0.33888 0.0
H884 H 0.96137 0.15371 0.25498 0.0
H885 H 0.98148 0.15112 0.29552 0.0
H886 H 0.94212 0.12024 0.21627 0.0
H887 H 0.90881 0.0888 0.20794 0.0
C888 C 0.18795 0.94135 0.38458 0.0
C889 C 0.20478 0.95205 0.41541 0.0
C890 C 0.17807 0.90088 0.44592 0.0
C891 C 0.1647 0.88772 0.41394 0.0
N892 N 0.1599 0.89405 0.35183 0.0
N893 N 0.21675 0.94335 0.47557 0.0
C894 C 0.17052 0.90754 0.38298 0.0
C895 C 0.19984 0.93236 0.44627 0.0
N896 N 0.18804 0.96417 0.35696 0.0
N897 N 0.16985 0.88331 0.47587 0.0
H898 H 0.23094 0.96748 0.47693 0.0
H899 H 0.2177 0.92832 0.49811 0.0
H900 H 0.15583 0.85906 0.47645 0.0
H901 H 0.17544 0.89337 0.50032 0.0
H902 H 0.17284 0.96009 0.335 0.0
H903 H 0.20069 0.98923 0.35744 0.0
H904 H 0.16707 0.90529 0.32825 0.0
H905 H 0.14622 0.86999 0.34897 0.0
C906 C 0.46626 0.41644 0.69922 0.0
C907 C 0.44757 0.41766 0.66774 0.0
C908 C 0.42326 0.47532 0.68392 0.0
C909 C 0.43791 0.47154 0.71726 0.0
N910 N 0.47308 0.43936 0.75764 0.0
N911 N 0.40625 0.44645 0.63045 0.0
C912 C 0.45965 0.44246 0.72515 0.0
C913 C 0.42592 0.44689 0.65993 0.0
N914 N 0.49043 0.39058 0.70395 0.0
N915 N 0.40666 0.5061 0.67521 0.0
H916 H 0.40825 0.42687 0.61142 0.0
H917 H 0.38627 0.46419 0.6257 0.0
H918 H 0.40318 0.52723 0.69233 0.0
H919 H 0.39885 0.5121 0.6502 0.0
H920 H 0.50709 0.38967 0.72508 0.0
H921 H 0.49555 0.37133 0.68518 0.0
H922 H 0.48607 0.41693 0.76634 0.0
H923 H 0.46979 0.45886 0.77662 0.0
C924 C 0.98143 0.7971 0.96389 0.0
C925 C 0.99207 0.79317 0.92918 0.0
C926 C 0.93993 0.82277 0.90913 0.0
C927 C 0.92694 0.82339 0.94379 0.0
N928 N 0.94177 0.82367 0.00443 0.0
N929 N 0.99137 0.82104 0.87317 0.0
C930 C 0.94997 0.81488 0.9713 0.0
C931 C 0.97477 0.81242 0.90325 0.0
N932 N 1.00093 0.78264 0.9896 0.0
N933 N 0.91904 0.82891 0.88127 0.0
H934 H 0.01778 0.81673 0.86933 0.0
H935 H 0.98042 0.83736 0.85445 0.0
H936 H 0.89334 0.83672 0.88232 0.0
H937 H 0.9268 0.82338 0.8561 0.0
H938 H 0.99252 0.77985 0.01499 0.0
H939 H 0.02548 0.77233 0.98492 0.0
H940 H 0.95882 0.82119 0.02512 0.0
H941 H 0.91909 0.83671 0.01082 0.0
C942 C 0.47459 0.14864 0.19934 0.0
C943 C 0.49136 0.17915 0.18436 0.0
C944 C 0.54576 0.16138 0.21122 0.0
C945 C 0.53183 0.12632 0.21224 0.0
N946 N 0.48217 0.09685 0.2367 0.0
N947 N 0.54187 0.21926 0.18321 0.0
C948 C 0.49561 0.12346 0.21653 0.0
C949 C 0.52649 0.1878 0.19355 0.0
N950 N 0.43956 0.14314 0.19571 0.0
N951 N 0.57794 0.16802 0.22472 0.0
H952 H 0.52801 0.23904 0.17066 0.0
H953 H 0.56835 0.22511 0.18636 0.0
H954 H 0.59192 0.14738 0.23603 0.0
H955 H 0.5891 0.19367 0.22664 0.0
H956 H 0.42667 0.11967 0.20358 0.0
H957 H 0.42378 0.16219 0.1842 0.0
H958 H 0.45594 0.09509 0.24352 0.0
H959 H 0.49862 0.07883 0.24885 0.0
C960 C 0.09357 0.86506 0.2869 0.0
C961 C 0.07723 0.87372 0.3191 0.0
C962 C 0.07561 0.93624 0.29914 0.0
C963 C 0.09013 0.9257 0.26725 0.0
N964 N 0.09514 0.87811 0.22604 0.0
N965 N 0.0391 0.91648 0.34658 0.0
C966 C 0.09125 0.88914 0.25932 0.0
C967 C 0.06368 0.90899 0.32243 0.0
N968 N 0.11687 0.83833 0.2837 0.0
N969 N 0.07438 0.97156 0.30795 0.0
H970 H 0.02633 0.89657 0.36089 0.0
H971 H 0.02777 0.94155 0.3484 0.0
H972 H 0.0828 0.99206 0.29148 0.0
H973 H 0.06703 0.98002 0.33247 0.0
H974 H 0.12899 0.8323 0.2604 0.0
H975 H 0.13096 0.82941 0.30455 0.0
H976 H 0.0959 0.85109 0.21932 0.0
H977 H 0.09416 0.89601 0.20538 0.0
C978 C 0.31639 0.38744 0.58514 0.0
C979 C 0.34465 0.38719 0.56189 0.0
C980 C 0.32356 0.4433 0.53661 0.0
C981 C 0.30109 0.44707 0.5656 0.0
N982 N 0.28237 0.42513 0.62151 0.0
N983 N 0.36822 0.40863 0.50804 0.0
C984 C 0.29926 0.41977 0.59099 0.0
C985 C 0.34623 0.41338 0.53523 0.0
N986 N 0.30488 0.3565 0.60053 0.0
N987 N 0.32234 0.46735 0.51008 0.0
H988 H 0.37918 0.38386 0.50289 0.0
H989 H 0.37464 0.42829 0.48999 0.0
H990 H 0.30628 0.48941 0.51013 0.0
H991 H 0.33594 0.46493 0.48707 0.0
H992 H 0.28278 0.35529 0.61616 0.0
H993 H 0.3144 0.33154 0.59349 0.0
H994 H 0.28286 0.40659 0.64163 0.0
H995 H 0.27163 0.44961 0.62823 0.0
C996 C 0.94381 0.65903 0.78172 0.0
C997 C 0.94629 0.62134 0.78304 0.0
C998 C 0.0053 0.62831 0.80607 0.0
C999 C 0.9971 0.6636 0.81602 0.0
N1000 N 0.9615 0.71546 0.8084 0.0
N1001 N 0.9824 0.57007 0.78761 0.0
C1002 C 0.96771 0.6803 0.80149 0.0
C1003 C 0.97869 0.60615 0.79124 0.0
N1004 N 0.91827 0.67397 0.76243 0.0
N1005 N 0.03806 0.61613 0.81176 0.0
H1006 H 0.96301 0.55408 0.77596 0.0
H1007 H 0.00372 0.55618 0.79676 0.0
H1008 H 0.05763 0.63252 0.82255 0.0
H1009 H 0.04642 0.5912 0.8035 0.0
H1010 H 0.91628 0.70149 0.75872 0.0
H1011 H 0.9014 0.6583 0.74726 0.0
H1012 H 0.93877 0.72815 0.80116 0.0
H1013 H 0.9788 0.73175 0.82244 0.0
C1014 C 0.17408 0.55859 0.11615 0.0
C1015 C 0.1906 0.55332 0.08399 0.0
C1016 C 0.15295 0.59657 0.05629 0.0
C1017 C 0.13645 0.60183 0.08843 0.0
N1018 N 0.12456 0.58212 0.14662 0.0
N1019 N 0.19033 0.55897 0.02215 0.0
C1020 C 0.14491 0.58097 0.11769 0.0
C1021 C 0.17823 0.56964 0.05353 0.0
N1022 N 0.18678 0.5428 0.14527 0.0
N1023 N 0.14547 0.61822 0.02898 0.0
H1024 H 0.20788 0.53825 0.0196 0.0
H1025 H 0.1805 0.56794 0.99876 0.0
H1026 H 0.12669 0.63794 0.03025 0.0
H1027 H 0.15937 0.61829 0.00594 0.0
H1028 H 0.17861 0.54918 0.17006 0.0
H1029 H 0.20691 0.52449 0.14484 0.0
H1030 H 0.12736 0.56508 0.16763 0.0
H1031 H 0.10264 0.59798 0.14841 0.0
C1032 C 0.49362 0.8808 0.15565 0.0
C1033 C 0.47692 0.84904 0.14288 0.0
C1034 C 0.42069 0.87103 0.16243 0.0
C1035 C 0.43655 0.90524 0.16613 0.0
N1036 N 0.48679 0.93714 0.18649 0.0
N1037 N 0.42554 0.81087 0.13892 0.0
C1038 C 0.47284 0.90747 0.17085 0.0
C1039 C 0.44078 0.84267 0.14884 0.0
N1040 N 0.52834 0.88704 0.14993 0.0
N1041 N 0.38652 0.8665 0.17114 0.0
H1042 H 0.44008 0.78959 0.12973 0.0
H1043 H 0.39874 0.80591 0.13897 0.0
H1044 H 0.37264 0.88753 0.18186 0.0
H1045 H 0.37323 0.84187 0.17072 0.0
H1046 H 0.54112 0.91123 0.15571 0.0
H1047 H 0.54403 0.86857 0.13753 0.0
H1048 H 0.51319 0.94048 0.19221 0.0
H1049 H 0.47057 0.95681 0.1963 0.0
C1050 C 0.3319 0.11806 0.9642 0.0
C1051 C 0.32899 0.14533 0.93895 0.0
C1052 C 0.28387 0.11066 0.90929 0.0
C1053 C 0.28822 0.08146 0.93243 0.0
N1054 N 0.31616 0.05782 0.98336 0.0
N1055 N 0.28751 0.17487 0.90286 0.0
C1056 C 0.31209 0.08528 0.96053 0.0
C1057 C 0.30029 0.14405 0.91631 0.0
N1058 N 0.35142 0.12513 0.99298 0.0
N1059 N 0.26599 0.10599 0.87914 0.0
H1060 H 0.29633 0.20013 0.91112 0.0
H1061 H 0.26489 0.1753 0.88797 0.0
H1062 H 0.25647 0.08104 0.87112 0.0
H1063 H 0.26475 0.12581 0.86026 0.0
H1064 H 0.35355 0.10791 0.01389 0.0
H1065 H 0.3625 0.15052 0.99749 0.0
H1066 H 0.3357 0.05725 0.00192 0.0
H1067 H 0.30065 0.03463 0.98342 0.0
C1068 C 0.52452 0.19891 0.4763 0.0
C1069 C 0.51124 0.20311 0.44252 0.0
C1070 C 0.56019 0.17118 0.41853 0.0
C1071 C 0.57575 0.1695 0.45204 0.0
N1072 N 0.56512 0.16849 0.5135 0.0
N1073 N 0.50556 0.17264 0.38776 0.0
C1074 C 0.55535 0.17901 0.48126 0.0
C1075 C 0.5253 0.18232 0.41567 0.0
N1076 N 0.50768 0.2141 0.50344 0.0
N1077 N 0.57854 0.16518 0.38896 0.0
H1078 H 0.47878 0.17652 0.38678 0.0
H1079 H 0.51455 0.15564 0.36853 0.0
H1080 H 0.60455 0.15841 0.38778 0.0
H1081 H 0.56837 0.17057 0.36461 0.0
H1082 H 0.51826 0.21625 0.52811 0.0
H1083 H 0.48306 0.22512 0.50079 0.0
H1084 H 0.55004 0.17231 0.53544 0.0
H1085 H 0.58657 0.15249 0.51777 0.0
C1086 C 0.68349 0.02995 0.79561 0.0
C1087 C 0.70463 0.02236 0.7667 0.0
C1088 C 0.75635 0.02854 0.80369 0.0
C1089 C 0.73466 0.02543 0.83314 0.0
N1090 N 0.6761 0.02057 0.85669 0.0
N1091 N 0.76202 0.01819 0.74229 0.0
C1092 C 0.69779 0.02635 0.82919 0.0
C1093 C 0.74144 0.02354 0.77041 0.0
N1094 N 0.64975 0.03977 0.79128 0.0
N1095 N 0.79111 0.03603 0.80771 0.0
H1096 H 0.75172 0.01611 0.71751 0.0
H1097 H 0.78877 0.01432 0.7437 0.0
H1098 H 0.80233 0.04042 0.83193 0.0
H1099 H 0.80793 0.04139 0.7872 0.0
H1100 H 0.63416 0.04806 0.81165 0.0
H1101 H 0.63875 0.04408 0.76715 0.0
H1102 H 0.64925 0.0168 0.85406 0.0
H1103 H 0.6847 0.01621 0.88173 0.0
C1104 C 0.38064 0.68051 0.38037 0.0
C1105 C 0.35084 0.65703 0.37965 0.0
C1106 C 0.31435 0.70551 0.40084 0.0
C1107 C 0.34346 0.72955 0.39875 0.0
N1108 N 0.40355 0.74167 0.38421 0.0
N1109 N 0.28865 0.64782 0.38515 0.0
C1110 C 0.37643 0.7175 0.3879 0.0
C1111 C 0.31747 0.66974 0.38873 0.0
N1112 N 0.41302 0.66748 0.37386 0.0
N1113 N 0.28394 0.71667 0.41526 0.0
H1114 H 0.28994 0.62111 0.37751 0.0
H1115 H 0.26322 0.65663 0.38751 0.0
H1116 H 0.26332 0.69935 0.42175 0.0
H1117 H 0.28009 0.7431 0.42291 0.0
H1118 H 0.43611 0.68181 0.37854 0.0
H1119 H 0.41729 0.64139 0.36563 0.0
H1120 H 0.42736 0.73566 0.37307 0.0
H1121 H 0.40158 0.76879 0.39023 0.0
C1122 C 0.17279 0.06872 0.28976 0.0
C1123 C 0.19068 0.06514 0.25823 0.0
C1124 C 0.24569 0.07895 0.28808 0.0
C1125 C 0.22912 0.07033 0.31975 0.0
N1126 N 0.1751 0.05924 0.3512 0.0
N1127 N 0.24262 0.07629 0.22547 0.0
C1128 C 0.19201 0.06702 0.32103 0.0
C1129 C 0.22666 0.07434 0.25683 0.0
N1130 N 0.13761 0.07307 0.28977 0.0
N1131 N 0.27964 0.09072 0.2882 0.0
H1132 H 0.22821 0.07457 0.20269 0.0
H1133 H 0.26945 0.07887 0.22202 0.0
H1134 H 0.29352 0.09464 0.31112 0.0
H1135 H 0.29296 0.0994 0.26627 0.0
H1136 H 0.12339 0.07819 0.31203 0.0
H1137 H 0.1236 0.07642 0.26701 0.0
H1138 H 0.14881 0.05173 0.35223 0.0
H1139 H 0.1873 0.05791 0.37506 0.0
C1140 C 0.79952 0.66343 0.89204 0.0
C1141 C 0.82665 0.65976 0.86763 0.0
C1142 C 0.84255 0.72353 0.8732 0.0
C1143 C 0.81494 0.72769 0.89702 0.0
N1144 N 0.76406 0.70371 0.92594 0.0
N1145 N 0.86867 0.68728 0.82906 0.0
C1146 C 0.79239 0.69817 0.90542 0.0
C1147 C 0.84641 0.69015 0.85635 0.0
N1148 N 0.78104 0.63365 0.90259 0.0
N1149 N 0.86673 0.7506 0.86842 0.0
H1150 H 0.8736 0.66304 0.81686 0.0
H1151 H 0.87984 0.70944 0.81666 0.0
H1152 H 0.86502 0.77571 0.87995 0.0
H1153 H 0.89002 0.74734 0.85513 0.0
H1154 H 0.76277 0.63356 0.92238 0.0
H1155 H 0.78537 0.60815 0.89261 0.0
H1156 H 0.74511 0.68422 0.93154 0.0
H1157 H 0.75809 0.72898 0.93555 0.0
C1158 C 0.94658 0.66164 0.5576 0.0
C1159 C 0.92184 0.68 0.53736 0.0
C1160 C 0.95726 0.73473 0.54138 0.0
C1161 C 0.98339 0.71659 0.5601 0.0
N1162 N 0.00547 0.65991 0.58012 0.0
N1163 N 0.91381 0.72862 0.497 0.0
C1164 C 0.97894 0.67908 0.56644 0.0
C1165 C 0.93064 0.7146 0.52472 0.0
N1166 N 0.93875 0.62769 0.56871 0.0
N1167 N 0.95607 0.77132 0.54139 0.0
H1168 H 0.89704 0.71344 0.48141 0.0
H1169 H 0.9209 0.75342 0.4864 0.0
H1170 H 0.97258 0.78757 0.55635 0.0
H1171 H 0.9355 0.78512 0.53042 0.0
H1172 H 0.95325 0.61435 0.58719 0.0
H1173 H 0.91674 0.61341 0.55995 0.0
H1174 H 0.0049 0.63205 0.58176 0.0
H1175 H 0.02923 0.67139 0.58758 0.0
C1176 C 0.02817 0.20575 0.95757 0.0
C1177 C 0.01977 0.21345 0.92272 0.0
C1178 C 0.07748 0.19543 0.90446 0.0
C1179 C 0.08653 0.18762 0.93932 0.0
N1180 N 0.06764 0.178 0.998 0.0
N1181 N 0.03131 0.19978 0.86274 0.0
C1182 C 0.06089 0.19037 0.9656 0.0
C1183 C 0.04249 0.20268 0.8961 0.0
N1184 N 0.00489 0.2137 0.98294 0.0
N1185 N 0.1025 0.19959 0.87956 0.0
H1186 H 0.0056 0.20288 0.85517 0.0
H1187 H 0.0467 0.18923 0.84323 0.0
H1188 H 0.12911 0.19818 0.88414 0.0
H1189 H 0.09713 0.2094 0.85501 0.0
H1190 H 0.01079 0.21344 0.00914 0.0
H1191 H 0.97955 0.22154 0.97745 0.0
H1192 H 0.04903 0.17612 0.01745 0.0
H1193 H 0.09129 0.1669 0.0048 0.0
C1194 C 0.83354 0.08652 0.39009 0.0
C1195 C 0.84925 0.10129 0.42039 0.0
C1196 C 0.81264 0.06154 0.456 0.0
C1197 C 0.79408 0.05037 0.42608 0.0
N1198 N 0.78448 0.0543 0.36466 0.0
N1199 N 0.85017 0.10705 0.48229 0.0
C1200 C 0.80362 0.06377 0.39317 0.0
C1201 C 0.8378 0.08995 0.45344 0.0
N1202 N 0.84855 0.09202 0.35849 0.0
N1203 N 0.80691 0.04441 0.48663 0.0
H1204 H 0.86817 0.12842 0.48125 0.0
H1205 H 0.84019 0.10232 0.50688 0.0
H1206 H 0.78915 0.02305 0.48917 0.0
H1207 H 0.82204 0.04903 0.50855 0.0
H1208 H 0.84047 0.07867 0.33619 0.0
H1209 H 0.87138 0.10705 0.35482 0.0
H1210 H 0.78744 0.06692 0.34086 0.0
H1211 H 0.76415 0.03527 0.36512 0.0
C1212 C 0.58282 0.6482 0.70266 0.0
C1213 C 0.55357 0.64996 0.68069 0.0
C1214 C 0.53046 0.59643 0.71032 0.0
C1215 C 0.56492 0.58863 0.72173 0.0
N1216 N 0.62631 0.60706 0.71961 0.0
N1217 N 0.49493 0.62864 0.66932 0.0
C1218 C 0.5919 0.61462 0.71573 0.0
C1219 C 0.52581 0.62483 0.68613 0.0
N1220 N 0.60201 0.67818 0.71079 0.0
N1221 N 0.5022 0.57887 0.72414 0.0
H1222 H 0.48906 0.65196 0.6559 0.0
H1223 H 0.47548 0.60867 0.66886 0.0
H1224 H 0.50412 0.56103 0.74465 0.0
H1225 H 0.47666 0.58569 0.71852 0.0
H1226 H 0.62312 0.67757 0.72775 0.0
H1227 H 0.59345 0.70366 0.70433 0.0
H1228 H 0.64602 0.62581 0.71368 0.0
H1229 H 0.63525 0.5812 0.72338 0.0
C1230 C 0.46266 0.67834 0.05948 0.0
C1231 C 0.47513 0.7048 0.03591 0.0
C1232 C 0.42856 0.6882 0.99545 0.0
C1233 C 0.41079 0.67137 0.02325 0.0
N1234 N 0.41944 0.63081 0.07032 0.0
N1235 N 0.48281 0.71611 0.9754 0.0
C1236 C 0.43071 0.6599 0.0518 0.0
C1237 C 0.46221 0.70363 0.00161 0.0
N1238 N 0.48105 0.67077 0.08856 0.0
N1239 N 0.41324 0.6894 0.96375 0.0
H1240 H 0.50866 0.72417 0.97985 0.0
H1241 H 0.47588 0.715 0.94948 0.0
H1242 H 0.39098 0.67392 0.95797 0.0
H1243 H 0.4228 0.70482 0.94335 0.0
H1244 H 0.47089 0.65582 0.10901 0.0
H1245 H 0.50724 0.67818 0.09141 0.0
H1246 H 0.43335 0.61962 0.09051 0.0
H1247 H 0.39757 0.61564 0.06265 0.0
C1248 C 0.49758 0.81396 0.42604 0.0
C1249 C 0.49616 0.77603 0.4302 0.0
C1250 C 0.44422 0.78222 0.46571 0.0
C1251 C 0.44015 0.81765 0.45354 0.0
N1252 N 0.46475 0.86886 0.42401 0.0
N1253 N 0.46198 0.72371 0.44819 0.0
C1254 C 0.46761 0.83413 0.43442 0.0
C1255 C 0.46797 0.75996 0.44871 0.0
N1256 N 0.52761 0.83072 0.41517 0.0
N1257 N 0.4257 0.76958 0.49329 0.0
H1258 H 0.47634 0.70619 0.43319 0.0
H1259 H 0.43974 0.71175 0.45906 0.0
H1260 H 0.41124 0.78622 0.50906 0.0
H1261 H 0.42938 0.74412 0.50358 0.0
H1262 H 0.53087 0.8585 0.41431 0.0
H1263 H 0.55048 0.81697 0.41049 0.0
H1264 H 0.48185 0.8812 0.4066 0.0
H1265 H 0.44431 0.88478 0.43219 0.0
C1266 C 0.69227 0.88579 0.94662 0.0
C1267 C 0.68847 0.92381 0.94804 0.0
C1268 C 0.62649 0.91654 0.93501 0.0
C1269 C 0.63122 0.87933 0.92933 0.0
N1270 N 0.66376 0.82704 0.94351 0.0
N1271 N 0.64815 0.9693 0.96504 0.0
C1272 C 0.66267 0.86343 0.93956 0.0
C1273 C 0.65435 0.93746 0.94909 0.0
N1274 N 0.72403 0.87097 0.95174 0.0
N1275 N 0.59625 0.93247 0.92571 0.0
H1276 H 0.66703 0.98259 0.97993 0.0
H1277 H 0.6232 0.97922 0.96822 0.0
H1278 H 0.57476 0.9184 0.91588 0.0
H1279 H 0.59352 0.96021 0.9256 0.0
H1280 H 0.72962 0.84454 0.94561 0.0
H1281 H 0.74507 0.88529 0.96206 0.0
H1282 H 0.68483 0.81379 0.954 0.0
H1283 H 0.64198 0.81028 0.93957 0.0
C1284 C 0.71909 0.43517 0.70996 0.0
C1285 C 0.70958 0.42917 0.67511 0.0
C1286 C 0.64861 0.43805 0.68855 0.0
C1287 C 0.65801 0.44834 0.72266 0.0
N1288 N 0.6995 0.44361 0.7691 0.0
N1289 N 0.66493 0.40119 0.64034 0.0
C1290 C 0.69254 0.44255 0.73456 0.0
C1291 C 0.67412 0.42269 0.66733 0.0
N1292 N 0.75334 0.43366 0.7191 0.0
N1293 N 0.61653 0.44507 0.67524 0.0
H1294 H 0.68363 0.38626 0.62764 0.0
H1295 H 0.6391 0.39413 0.63467 0.0
H1296 H 0.59735 0.45858 0.68864 0.0
H1297 H 0.61041 0.44058 0.64936 0.0
H1298 H 0.76289 0.44026 0.74343 0.0
H1299 H 0.77223 0.42518 0.70172 0.0
H1300 H 0.72359 0.43789 0.7798 0.0
H1301 H 0.68009 0.44755 0.78744 0.0
C1302 C 0.32584 0.8542 0.09783 0.0
C1303 C 0.34713 0.87115 0.072 0.0
C1304 C 0.35792 0.81269 0.04694 0.0
C1305 C 0.33288 0.79643 0.06921 0.0
N1306 N 0.28668 0.80414 0.1106 0.0
N1307 N 0.37279 0.86638 0.01539 0.0
C1308 C 0.31484 0.81783 0.09314 0.0
C1309 C 0.35977 0.85033 0.04443 0.0
N1310 N 0.31767 0.87142 0.12773 0.0
N1311 N 0.38058 0.79225 0.02872 0.0
H1312 H 0.37227 0.89407 0.01162 0.0
H1313 H 0.37993 0.85185 0.99363 0.0
H1314 H 0.38165 0.76448 0.03157 0.0
H1315 H 0.40087 0.80342 0.01408 0.0
H1316 H 0.30502 0.85851 0.14817 0.0
H1317 H 0.32675 0.89698 0.13419 0.0
H1318 H 0.27053 0.82004 0.1255 0.0
H1319 H 0.27755 0.77779 0.10766 0.0
C1320 C 0.30604 0.59114 0.69998 0.0
C1321 C 0.31605 0.55828 0.71548 0.0
C1322 C 0.2642 0.52946 0.69044 0.0
C1323 C 0.25992 0.55845 0.66744 0.0
N1324 N 0.27435 0.61992 0.65361 0.0
N1325 N 0.30835 0.49333 0.7153 0.0
C1326 C 0.28023 0.59034 0.6732 0.0
C1327 C 0.29614 0.52659 0.70795 0.0
N1328 N 0.31976 0.62298 0.71167 0.0
N1329 N 0.238 0.5049 0.69628 0.0
H1330 H 0.33371 0.48907 0.72376 0.0
H1331 H 0.29486 0.46988 0.70813 0.0
H1332 H 0.21251 0.50885 0.68808 0.0
H1333 H 0.2405 0.4841 0.71401 0.0
H1334 H 0.31133 0.64781 0.70321 0.0
H1335 H 0.337 0.62474 0.7324 0.0
H1336 H 0.29097 0.6424 0.65326 0.0
H1337 H 0.25279 0.62141 0.63734 0.0
C1338 C 0.65887 0.17731 0.13616 0.0
C1339 C 0.65438 0.14921 0.11173 0.0
C1340 C 0.70272 0.17392 0.07769 0.0
C1341 C 0.70222 0.20512 0.0984 0.0
N1342 N 0.69616 0.22614 0.15665 0.0
N1343 N 0.67456 0.11718 0.06188 0.0
C1344 C 0.68551 0.20362 0.13079 0.0
C1345 C 0.67762 0.14599 0.08357 0.0
N1346 N 0.63651 0.17998 0.16337 0.0
N1347 N 0.72784 0.17126 0.05305 0.0
H1348 H 0.65718 0.09578 0.06643 0.0
H1349 H 0.68826 0.11481 0.03888 0.0
H1350 H 0.74707 0.19127 0.04989 0.0
H1351 H 0.73162 0.14834 0.03845 0.0
H1352 H 0.63597 0.20227 0.17953 0.0
H1353 H 0.61678 0.16101 0.16827 0.0
H1354 H 0.68637 0.22473 0.18166 0.0
H1355 H 0.71834 0.24264 0.15429 0.0
C1356 C 0.55419 0.29687 0.10161 0.0
C1357 C 0.5297 0.29236 0.07451 0.0
C1358 C 0.57521 0.31075 0.03308 0.0
C1359 C 0.60057 0.30767 0.05952 0.0
N1360 N 0.61371 0.28726 0.11741 0.0
N1361 N 0.51627 0.29578 0.01398 0.0
C1362 C 0.59 0.29822 0.09348 0.0
C1363 C 0.54002 0.29977 0.04001 0.0
N1364 N 0.54381 0.29916 0.1352 0.0
N1365 N 0.58464 0.32455 0.00176 0.0
H1366 H 0.48989 0.29029 0.01867 0.0
H1367 H 0.52289 0.29661 0.98795 0.0
H1368 H 0.61009 0.3332 0.99629 0.0
H1369 H 0.56684 0.33025 0.98237 0.0
H1370 H 0.5612 0.30518 0.15517 0.0
H1371 H 0.5179 0.29959 0.14289 0.0
H1372 H 0.60637 0.27664 0.14127 0.0
H1373 H 0.64007 0.28413 0.11212 0.0
C1374 C 0.50776 0.36612 0.31978 0.0
C1375 C 0.51452 0.33054 0.32997 0.0
C1376 C 0.57129 0.33461 0.30147 0.0
C1377 C 0.56848 0.37238 0.30131 0.0
N1378 N 0.53246 0.42394 0.30236 0.0
N1379 N 0.55012 0.27834 0.32615 0.0
C1380 C 0.53564 0.38787 0.30684 0.0
C1381 C 0.54511 0.31359 0.31853 0.0
N1382 N 0.47497 0.37899 0.3236 0.0
N1383 N 0.59947 0.3193 0.28655 0.0
H1384 H 0.53107 0.26219 0.33793 0.0
H1385 H 0.57347 0.2654 0.32199 0.0
H1386 H 0.61815 0.33442 0.27311 0.0
H1387 H 0.60236 0.29174 0.28416 0.0
H1388 H 0.46755 0.40417 0.31516 0.0
H1389 H 0.45442 0.36297 0.33298 0.0
H1390 H 0.5107 0.43822 0.30971 0.0
H1391 H 0.55266 0.43963 0.29179 0.0
C1392 C 0.42876 0.15077 0.78743 0.0
C1393 C 0.42278 0.13631 0.82079 0.0
C1394 C 0.39613 0.0823 0.7951 0.0
C1395 C 0.39677 0.09946 0.76234 0.0
N1396 N 0.41422 0.14925 0.7264 0.0
N1397 N 0.39834 0.08948 0.85702 0.0
C1398 C 0.41362 0.13337 0.75815 0.0
C1399 C 0.40664 0.10198 0.82481 0.0
N1400 N 0.44871 0.1814 0.78412 0.0
N1401 N 0.38466 0.04746 0.79814 0.0
H1402 H 0.40599 0.10237 0.87971 0.0
H1403 H 0.38178 0.06745 0.86142 0.0
H1404 H 0.37422 0.03249 0.77782 0.0
H1405 H 0.38784 0.03234 0.82044 0.0
H1406 H 0.45623 0.19245 0.76058 0.0
H1407 H 0.4602 0.19423 0.80535 0.0
H1408 H 0.42241 0.17566 0.72211 0.0
H1409 H 0.40488 0.13633 0.70426 0.0
C1410 C 0.96957 0.41988 0.22123 0.0
C1411 C 0.93491 0.42822 0.23115 0.0
C1412 C 0.91507 0.3707 0.20806 0.0
C1413 C 0.94662 0.3676 0.18916 0.0
N1414 N 0.00665 0.38672 0.18245 0.0
N1415 N 0.87324 0.41352 0.22626 0.0
C1416 C 0.9748 0.39157 0.19711 0.0
C1417 C 0.90722 0.40414 0.22253 0.0
N1418 N 0.99739 0.43758 0.23598 0.0
N1419 N 0.89302 0.34206 0.21352 0.0
H1420 H 0.86583 0.4396 0.23157 0.0
H1421 H 0.85241 0.39654 0.21957 0.0
H1422 H 0.89964 0.31583 0.20818 0.0
H1423 H 0.87078 0.34374 0.22883 0.0
H1424 H 0.02315 0.43057 0.23183 0.0
H1425 H 0.99475 0.4567 0.25534 0.0
H1426 H 0.02686 0.40582 0.18356 0.0
H1427 H 0.01254 0.36353 0.16879 0.0
C1428 C 0.07329 0.15863 0.69933 0.0
C1429 C 0.0609 0.12337 0.7049 0.0
C1430 C 1.00135 0.14361 0.70267 0.0
C1431 C 0.01393 0.17348 0.68349 0.0
N1432 N 0.06103 0.21528 0.67122 0.0
N1433 N 0.01731 0.09141 0.73674 0.0
C1434 C 0.04973 0.18364 0.68535 0.0
C1435 C 0.02611 0.11937 0.71583 0.0
N1436 N 0.10781 0.16622 0.70377 0.0
N1437 N 0.96636 0.13752 0.70593 0.0
H1438 H 0.03636 0.07391 0.74528 0.0
H1439 H 0.99246 0.08721 0.74693 0.0
H1440 H 0.9484 0.1558 0.69668 0.0
H1441 H 0.95546 0.11476 0.71756 0.0
H1442 H 0.11888 0.1918 0.70096 0.0
H1443 H 0.12453 0.14651 0.71265 0.0
H1444 H 0.08723 0.22274 0.66885 0.0
H1445 H 0.04358 0.23378 0.66145 0.0
C1446 C 0.58417 0.93453 0.78775 0.0
C1447 C 0.58022 0.92285 0.75311 0.0
C1448 C 0.53263 0.8819 0.76997 0.0
C1449 C 0.54088 0.88953 0.80462 0.0
N1450 N 0.56033 0.93337 0.84568 0.0
N1451 N 0.54481 0.89417 0.70936 0.0
C1452 C 0.56162 0.91982 0.81307 0.0
C1453 C 0.55209 0.89958 0.74346 0.0
N1454 N 0.61077 0.95769 0.79676 0.0
N1455 N 0.50677 0.85722 0.76318 0.0
H1456 H 0.55885 0.90721 0.68983 0.0
H1457 H 0.52428 0.87809 0.70032 0.0
H1458 H 0.49259 0.84503 0.78314 0.0
H1459 H 0.49896 0.84937 0.73858 0.0
H1460 H 0.6172 0.96389 0.82219 0.0
H1461 H 0.62796 0.96909 0.77886 0.0
H1462 H 0.57323 0.95694 0.85329 0.0
H1463 H 0.54297 0.92275 0.8639 0.0
C1464 C 0.48859 0.59201 0.30251 0.0
C1465 C 0.45532 0.60559 0.29506 0.0
C1466 C 0.47628 0.66661 0.30642 0.0
C1467 C 0.50828 0.65263 0.31834 0.0
N1468 N 0.54944 0.60501 0.31598 0.0
N1469 N 0.42364 0.65547 0.27305 0.0
C1470 C 0.51606 0.61622 0.31207 0.0
C1471 C 0.45148 0.64289 0.29083 0.0
N1472 N 0.4928 0.55578 0.30278 0.0
N1473 N 0.4681 0.7015 0.31256 0.0
H1474 H 0.40608 0.63837 0.26028 0.0
H1475 H 0.42065 0.6825 0.2673 0.0
H1476 H 0.48494 0.71998 0.32441 0.0
H1477 H 0.44337 0.71151 0.30821 0.0
H1478 H 0.515 0.54342 0.31197 0.0
H1479 H 0.47299 0.5381 0.29452 0.0
H1480 H 0.55736 0.57926 0.30992 0.0
H1481 H 0.56987 0.62268 0.32261 0.0
C1482 C 0.66146 0.55096 0.60784 0.0
C1483 C 0.68458 0.54606 0.57983 0.0
C1484 C 0.66502 0.60089 0.55259 0.0
C1485 C 0.64209 0.60641 0.58064 0.0
N1486 N 0.61365 0.58405 0.63213 0.0
N1487 N 0.7043 0.56237 0.52291 0.0
C1488 C 0.63871 0.58049 0.60739 0.0
C1489 C 0.68473 0.56955 0.55131 0.0
N1490 N 0.66221 0.52797 0.6353 0.0
N1491 N 0.66892 0.6252 0.52663 0.0
H1492 H 0.71797 0.53869 0.52033 0.0
H1493 H 0.70515 0.57923 0.50145 0.0
H1494 H 0.65615 0.64956 0.52566 0.0
H1495 H 0.65615 0.64956 0.52566 0.0
H1496 H 0.64936 0.53225 0.65851 0.0
H1497 H 0.67701 0.50485 0.63537 0.0
H1498 H 0.60726 0.56434 0.65016 0.0
H1499 H 0.59752 0.60607 0.63351 0.0
C1500 C 0.03042 0.8784 0.66889 0.0
C1501 C 0.01711 0.84333 0.66236 0.0
C1502 C 0.95892 0.86182 0.67956 0.0
C1503 C 0.9707 0.89761 0.67536 0.0
N1504 N 0.01698 0.93974 0.68516 0.0
N1505 N 0.97167 0.79863 0.67187 0.0
C1506 C 0.00663 0.90553 0.67752 0.0
C1507 C 0.9824 0.83379 0.6721 0.0
N1508 N 0.06514 0.88578 0.66465 0.0
N1509 N 0.92492 0.85535 0.68818 0.0
H1510 H 0.98862 0.77782 0.66704 0.0
H1511 H 0.94628 0.78979 0.67681 0.0
H1512 H 0.90845 0.87634 0.69415 0.0
H1513 H 0.91363 0.82997 0.69134 0.0
H1514 H 0.07632 0.91141 0.66621 0.0
H1515 H 0.08279 0.86561 0.65934 0.0
H1516 H 0.04286 0.94821 0.6879 0.0
H1517 H 0.99844 0.95882 0.6912 0.0
C1518 C 0.08297 0.63205 0.22796 0.0
C1519 C 0.05353 0.62821 0.20626 0.0
C1520 C 0.04121 0.57085 0.23486 0.0
C1521 C 0.07696 0.56963 0.24535 0.0
N1522 N 0.13339 0.60119 0.24693 0.0
N1523 N 0.99869 0.59717 0.19658 0.0
C1524 C 0.09829 0.601 0.24116 0.0
C1525 C 0.03061 0.59854 0.21202 0.0
N1526 N 0.09614 0.6652 0.23594 0.0
N1527 N 0.01712 0.54711 0.24812 0.0
H1528 H 0.98809 0.61953 0.18474 0.0
H1529 H 0.98291 0.57407 0.19586 0.0
H1530 H 0.02302 0.52859 0.2672 0.0
H1531 H 0.9905 0.54876 0.24345 0.0
H1532 H 0.11676 0.6691 0.25318 0.0
H1533 H 0.08294 0.68822 0.22895 0.0
H1534 H 0.14925 0.62362 0.24166 0.0
H1535 H 0.14738 0.57838 0.2524 0.0
C1536 C 0.25246 0.48372 0.34202 0.0
C1537 C 0.22867 0.50766 0.35755 0.0
C1538 C 0.27751 0.53738 0.38863 0.0
C1539 C 0.30157 0.51646 0.36976 0.0
N1540 N 0.31247 0.46902 0.32931 0.0
N1541 N 0.21795 0.5572 0.39551 0.0
C1542 C 0.28909 0.48926 0.34691 0.0
C1543 C 0.24108 0.53424 0.38107 0.0
N1544 N 0.24016 0.4556 0.32248 0.0
N1545 N 0.28932 0.56029 0.41381 0.0
H1546 H 0.19103 0.55399 0.39266 0.0
H1547 H 0.22523 0.58025 0.40909 0.0
H1548 H 0.31558 0.56559 0.41872 0.0
H1549 H 0.27315 0.57286 0.43137 0.0
H1550 H 0.25548 0.43485 0.31374 0.0
H1551 H 0.21399 0.45122 0.31662 0.0
H1552 H 0.306 0.45269 0.30841 0.0
H1553 H 0.33908 0.46942 0.33482 0.0
C1554 C 0.69236 0.29278 0.5639 0.0
C1555 C 0.71522 0.27194 0.54413 0.0
C1556 C 0.74803 0.32708 0.52809 0.0
C1557 C 0.72327 0.34823 0.54577 0.0
N1558 N 0.66595 0.34982 0.57254 0.0
N1559 N 0.7724 0.26839 0.51876 0.0
C1560 C 0.69384 0.3308 0.56157 0.0
C1561 C 0.74536 0.28876 0.52945 0.0
N1562 N 0.66999 0.2759 0.58634 0.0
N1563 N 0.7726 0.3437 0.50774 0.0
H1564 H 0.77365 0.24108 0.52378 0.0
H1565 H 0.79591 0.27903 0.50965 0.0
H1566 H 0.77395 0.37142 0.50432 0.0
H1567 H 0.78899 0.33013 0.49111 0.0
H1568 H 0.6551 0.28947 0.60437 0.0
H1569 H 0.66983 0.24813 0.58982 0.0
H1570 H 0.64255 0.33767 0.58036 0.0
H1571 H 0.66397 0.37738 0.57057 0.0
C1572 C 0.76459 0.94701 0.63356 0.0
C1573 C 0.78894 0.97593 0.63711 0.0
C1574 C 0.74062 0.01707 0.64626 0.0
C1575 C 0.71602 0.98823 0.64061 0.0
N1576 N 0.70607 0.92913 0.61671 0.0
N1577 N 0.79989 0.03979 0.63855 0.0
C1578 C 0.72851 0.95421 0.63058 0.0
C1579 C 0.77682 0.0114 0.64038 0.0
N1580 N 0.77569 0.9125 0.63323 0.0
N1581 N 0.73049 0.04898 0.65991 0.0
H1582 H 0.82676 0.03678 0.63653 0.0
H1583 H 0.7921 0.06626 0.63635 0.0
H1584 H 0.7052 0.05464 0.66713 0.0
H1585 H 0.74813 0.06892 0.66798 0.0
H1586 H 0.75866 0.89035 0.63429 0.0
H1587 H 0.80187 0.90592 0.63483 0.0
H1588 H 0.7143 0.90509 0.6061 0.0
H1589 H 0.67992 0.93428 0.61185 0.0
C1590 C 0.27774 0.84777 0.92094 0.0
C1591 C 0.27198 0.87109 0.94925 0.0
C1592 C 0.26725 0.81887 0.98795 0.0
C1593 C 0.27538 0.79516 0.96006 0.0
N1594 N 0.29076 0.78791 0.90027 0.0
N1595 N 0.26926 0.87972 0.01048 0.0
C1596 C 0.28144 0.81001 0.92665 0.0
C1597 C 0.26904 0.8568 0.9829 0.0
N1598 N 0.27889 0.86175 0.88841 0.0
N1599 N 0.25712 0.80575 0.01939 0.0
H1600 H 0.27059 0.90755 0.00777 0.0
H1601 H 0.27184 0.87134 0.03595 0.0
H1602 H 0.25593 0.77886 0.02599 0.0
H1603 H 0.24667 0.82168 0.03867 0.0
H1604 H 0.27875 0.84631 0.86605 0.0
H1605 H 0.27846 0.88926 0.88376 0.0
H1606 H 0.29983 0.79706 0.8765 0.0
H1607 H 0.29061 0.76005 0.90255 0.0
C1608 C 0.22907 0.46204 0.8108 0.0
C1609 C 0.20955 0.48243 0.83438 0.0
C1610 C 0.26521 0.50555 0.85912 0.0
C1611 C 0.28386 0.48238 0.83693 0.0
N1612 N 0.28005 0.4265 0.80533 0.0
N1613 N 0.20949 0.5315 0.87462 0.0
C1614 C 0.26475 0.45676 0.81714 0.0
C1615 C 0.22782 0.50638 0.85707 0.0
N1616 N 0.21493 0.45075 0.78035 0.0
N1617 N 0.28318 0.52509 0.88333 0.0
H1618 H 0.18298 0.53523 0.87046 0.0
H1619 H 0.22059 0.55112 0.89041 0.0
H1620 H 0.30904 0.51993 0.88946 0.0
H1621 H 0.27231 0.54395 0.89948 0.0
H1622 H 0.22921 0.43687 0.76199 0.0
H1623 H 0.19184 0.46113 0.77093 0.0
H1624 H 0.26602 0.40645 0.79218 0.0
H1625 H 0.30475 0.41902 0.81344 0.0
C1626 C 0.76492 0.65562 0.06167 0.0
C1627 C 0.77639 0.62757 0.03972 0.0
C1628 C 0.81228 0.67119 0.00717 0.0
C1629 C 0.79971 0.6998 0.0281 0.0
N1630 N 0.76059 0.71954 0.0725 0.0
N1631 N 0.80316 0.61035 0.98637 0.0
C1632 C 0.77475 0.69206 0.0543 0.0
C1633 C 0.79796 0.63588 0.01112 0.0
N1634 N 0.7461 0.64746 0.09065 0.0
N1635 N 0.83788 0.67727 0.98322 0.0
H1636 H 0.79157 0.5848 0.98727 0.0
H1637 H 0.81575 0.61542 0.96307 0.0
H1638 H 0.84755 0.70237 0.97622 0.0
H1639 H 0.85148 0.65677 0.97143 0.0
H1640 H 0.74092 0.66591 0.11002 0.0
H1641 H 0.73762 0.62161 0.09695 0.0
H1642 H 0.73885 0.71639 0.08833 0.0
H1643 H 0.76942 0.74608 0.0705 0.0
C1644 C 0.74175 0.98345 0.14601 0.0
C1645 C 0.76562 0.01234 0.15278 0.0
C1646 C 0.71699 0.05275 0.16178 0.0
C1647 C 0.6929 0.02317 0.15912 0.0
N1648 N 0.68223 0.95993 0.15053 0.0
N1649 N 0.77487 0.07598 0.14853 0.0
C1650 C 0.70524 0.98846 0.15118 0.0
C1651 C 0.75285 0.04748 0.15514 0.0
N1652 N 0.75351 0.9523 0.13219 0.0
N1653 N 0.70618 0.08589 0.17159 0.0
H1654 H 0.8006 0.0726 0.14067 0.0
H1655 H 0.76665 0.10228 0.14619 0.0
H1656 H 0.68045 0.09201 0.17653 0.0
H1657 H 0.72332 0.10692 0.17795 0.0
H1658 H 0.73728 0.93108 0.12442 0.0
H1659 H 0.77896 0.94962 0.12355 0.0
H1660 H 0.68971 0.93335 0.14896 0.0
H1661 H 0.65556 0.96259 0.15461 0.0
C1662 C 0.21696 0.20989 0.4274 0.0
C1663 C 0.23349 0.22937 0.45465 0.0
C1664 C 0.25982 0.17321 0.47492 0.0
C1665 C 0.24384 0.15402 0.44736 0.0
N1666 N 0.21185 0.15504 0.39383 0.0
N1667 N 0.27842 0.23037 0.49888 0.0
C1668 C 0.22369 0.17266 0.42261 0.0
C1669 C 0.25744 0.21137 0.4766 0.0
N1670 N 0.19436 0.22713 0.40617 0.0
N1671 N 0.27602 0.15468 0.50053 0.0
H1672 H 0.27961 0.25812 0.50036 0.0
H1673 H 0.29804 0.21891 0.51339 0.0
H1674 H 0.27829 0.12686 0.5002 0.0
H1675 H 0.28425 0.16622 0.52368 0.0
H1676 H 0.17743 0.214 0.38913 0.0
H1677 H 0.1918 0.25492 0.40641 0.0
H1678 H 0.20075 0.16771 0.37276 0.0
H1679 H 0.21513 0.12776 0.38983 0.0
C1680 C 0.1758 0.42707 0.50948 0.0
C1681 C 0.20439 0.40662 0.49812 0.0
C1682 C 0.23507 0.46293 0.483 0.0
C1683 C 0.21135 0.48261 0.50339 0.0
N1684 N 0.15492 0.48405 0.53042 0.0
N1685 N 0.26187 0.40559 0.47319 0.0
C1686 C 0.18033 0.4648 0.51487 0.0
C1687 C 0.23424 0.42472 0.48457 0.0
N1688 N 0.14392 0.41073 0.51348 0.0
N1689 N 0.25669 0.48035 0.46036 0.0
H1690 H 0.26185 0.37762 0.47305 0.0
H1691 H 0.28557 0.41759 0.46607 0.0
H1692 H 0.25448 0.50754 0.45507 0.0
H1693 H 0.27282 0.46706 0.44321 0.0
H1694 H 0.12125 0.4243 0.51921 0.0
H1695 H 0.13955 0.38398 0.50701 0.0
H1696 H 0.1341 0.47236 0.54384 0.0
H1697 H 0.15502 0.51202 0.53007 0.0
C1698 C 0.00499 0.46477 0.88036 0.0
C1699 C 0.03499 0.48809 0.87941 0.0
C1700 C 0.99668 0.54023 0.88064 0.0
C1701 C 0.9666 0.51694 0.88091 0.0
N1702 N 0.9429 0.45791 0.89214 0.0
N1703 N 0.05927 0.54701 0.88985 0.0
C1704 C 0.9711 0.47945 0.88436 0.0
C1705 C 0.03069 0.52552 0.88323 0.0
N1706 N 0.0084 0.42873 0.87558 0.0
N1707 N 0.99328 0.57623 0.87579 0.0
H1708 H 0.08428 0.5369 0.89226 0.0
H1709 H 0.0579 0.57393 0.89669 0.0
H1710 H 0.96965 0.58861 0.87186 0.0
H1711 H 0.01439 0.59388 0.87293 0.0
H1712 H 0.98733 0.41088 0.87331 0.0
H1713 H 0.0321 0.41651 0.87141 0.0
H1714 H 0.94462 0.43091 0.89853 0.0
H1715 H 0.91807 0.468 0.89596 0.0
C1716 C 0.71665 0.44223 0.98885 0.0
C1717 C 0.70717 0.45602 0.02174 0.0
C1718 C 0.70923 0.39637 0.04577 0.0
C1719 C 0.71678 0.3807 0.01337 0.0
N1720 N 0.7278 0.39015 0.95266 0.0
N1721 N 0.67415 0.44097 0.0727 0.0
C1722 C 0.71996 0.40405 0.9842 0.0
C1723 C 0.69613 0.43125 0.04701 0.0
N1724 N 0.72224 0.46559 0.96227 0.0
N1725 N 0.71881 0.38053 0.07575 0.0
H1726 H 0.66227 0.46586 0.07271 0.0
H1727 H 0.66503 0.42264 0.09111 0.0
H1728 H 0.73897 0.36229 0.07616 0.0
H1729 H 0.71238 0.39085 0.09987 0.0
H1730 H 0.73317 0.45866 0.93873 0.0
H1731 H 0.71507 0.49234 0.96391 0.0
H1732 H 0.72666 0.40453 0.92974 0.0
H1733 H 0.73592 0.36392 0.94937 0.0
C1734 C 0.96216 0.98638 0.20936 0.0
C1735 C 0.94324 0.98448 0.17767 0.0
C1736 C 0.99788 0.99824 0.14598 0.0
C1737 C 0.01595 0.0031 0.17777 0.0
N1738 N 0.01392 0.00565 0.24021 0.0
N1739 N 0.94264 0.98958 0.11582 0.0
C1740 C 0.99769 0.99833 0.20948 0.0
C1741 C 0.9611 0.99063 0.14599 0.0
N1742 N 0.94676 0.97613 0.23975 0.0
N1743 N 0.01593 1.00105 0.11568 0.0
H1744 H 0.91661 0.98097 0.11455 0.0
H1745 H 0.95251 0.99822 0.09221 0.0
H1746 H 0.0419 0.00977 0.11443 0.0
H1747 H 0.00577 0.99355 0.0918 0.0
H1748 H 0.96068 0.97149 0.2623 0.0
H1749 H 0.92067 0.96912 0.24273 0.0
H1750 H 1.00053 0.00944 0.26323 0.0
H1751 H 0.04052 0.0103 0.24303 0.0
C1752 C 0.32467 0.95974 0.43712 0.0
C1753 C 0.31154 0.98256 0.46284 0.0
C1754 C 0.29986 0.92888 0.49898 0.0
C1755 C 0.30866 0.90602 0.47076 0.0
N1756 N 0.31303 0.9041 0.40831 0.0
N1757 N 0.30063 0.98922 0.52345 0.0
C1758 C 0.31681 0.92249 0.43852 0.0
C1759 C 0.3032 0.96722 0.49546 0.0
N1760 N 0.34528 0.97338 0.41147 0.0
N1761 N 0.28472 0.91428 0.52775 0.0
H1762 H 0.30648 0.01663 0.52203 0.0
H1763 H 0.29743 0.98009 0.54862 0.0
H1764 H 0.27732 0.88731 0.52942 0.0
H1765 H 0.27496 0.92935 0.548 0.0
H1766 H 0.35715 0.95708 0.39326 0.0
H1767 H 0.3541 1.00006 0.41152 0.0
H1768 H 0.3175 0.91605 0.38436 0.0
H1769 H 0.29884 0.88007 0.4066 0.0
C1770 C 0.47905 0.5611 0.82947 0.0
C1771 C 0.46011 0.52951 0.83896 0.0
C1772 C 0.51546 0.49996 0.85158 0.0
C1773 C 0.53433 0.52905 0.8362 0.0
N1774 N 0.53358 0.58836 0.81069 0.0
N1775 N 0.46128 0.47883 0.87735 0.0
C1776 C 0.51609 0.56022 0.82583 0.0
C1777 C 0.47855 0.50162 0.85535 0.0
N1778 N 0.46204 0.59276 0.82697 0.0
N1779 N 0.53279 0.47037 0.8623 0.0
H1780 H 0.43566 0.48292 0.88501 0.0
H1781 H 0.4735 0.4595 0.89212 0.0
H1782 H 0.55991 0.46934 0.86316 0.0
H1783 H 0.52027 0.44628 0.86891 0.0
H1784 H 0.47457 0.61745 0.82298 0.0
H1785 H 0.43605 0.59521 0.83417 0.0
H1786 H 0.52118 0.60887 0.79767 0.0
H1787 H 0.56055 0.59055 0.80913 0.0
C1788 C 0.83723 0.90897 0.99696 0.0
C1789 C 0.81029 0.88524 0.00825 0.0
C1790 C 0.77291 0.93714 0.01708 0.0
C1791 C 0.79639 0.95877 0.99683 0.0
N1792 N 0.85366 0.96652 0.97214 0.0
N1793 N 0.75303 0.87673 0.0322 0.0
C1794 C 0.82951 0.94503 0.9884 0.0
C1795 C 0.77849 0.89946 0.01984 0.0
N1796 N 0.87052 0.8973 0.99598 0.0
N1797 N 0.74596 0.95223 0.03439 0.0
H1798 H 0.757 0.84943 0.03598 0.0
H1799 H 0.72749 0.8844 0.03658 0.0
H1800 H 0.74254 0.97969 0.03612 0.0
H1801 H 0.72973 0.93799 0.05125 0.0
H1802 H 0.8922 0.91356 0.99044 0.0
H1803 H 0.8764 0.87203 0.00513 0.0
H1804 H 0.87632 0.95693 0.96103 0.0
H1805 H 0.85053 0.99405 0.96911 0.0
C1806 C 0.45293 0.0311 0.15845 0.0
C1807 C 0.43917 0.02781 0.12457 0.0
C1808 C 0.49851 0.02293 0.10155 0.0
C1809 C 0.51248 0.02407 0.1355 0.0
N1810 N 0.50199 0.02549 0.19719 0.0
N1811 N 0.4499 0.03591 0.06406 0.0
C1812 C 0.48943 0.02687 0.16425 0.0
C1813 C 0.46235 0.02826 0.09617 0.0
N1814 N 0.43169 0.04164 0.18463 0.0
N1815 N 0.51955 0.01455 0.07442 0.0
H1816 H 0.42403 0.0428 0.05991 0.0
H1817 H 0.46582 0.04001 0.04263 0.0
H1818 H 0.54577 0.00848 0.07742 0.0
H1819 H 0.51022 0.0096 0.0496 0.0
H1820 H 0.43931 0.04428 0.2102 0.0
H1821 H 0.40753 0.05287 0.18011 0.0
H1822 H 0.48622 0.02086 0.2186 0.0
H1823 H 0.52819 0.02643 0.2037 0.0
C1824 C 0.3772 0.2817 0.23925 0.0
C1825 C 0.40849 0.27409 0.22135 0.0
C1826 C 0.42776 0.23989 0.27083 0.0
C1827 C 0.40122 0.25407 0.29181 0.0
N1828 N 0.34834 0.28752 0.29491 0.0
N1829 N 0.46887 0.25689 0.22727 0.0
C1830 C 0.37515 0.27491 0.27569 0.0
C1831 C 0.43549 0.25676 0.23931 0.0
N1832 N 0.34978 0.29539 0.22161 0.0
N1833 N 0.44495 0.20969 0.27985 0.0
H1834 H 0.47719 0.27241 0.20646 0.0
H1835 H 0.48916 0.24566 0.24121 0.0
H1836 H 0.43626 0.19269 0.29949 0.0
H1837 H 0.46374 0.19846 0.26396 0.0
H1838 H 0.32518 0.29847 0.23239 0.0
H1839 H 0.3514 0.30198 0.1955 0.0
H1840 H 0.33072 0.30606 0.28571 0.0
H1841 H 0.34424 0.27962 0.32041 0.0
C1842 C 0.15482 0.73897 0.26774 0.0
C1843 C 0.12432 0.74766 0.28648 0.0
C1844 C 0.09565 0.76357 0.23183 0.0
C1845 C 0.12437 0.75072 0.21299 0.0
N1846 N 0.18587 0.74055 0.21308 0.0
N1847 N 0.0631 0.76321 0.28492 0.0
C1848 C 0.15536 0.74244 0.23104 0.0
C1849 C 0.09393 0.75823 0.26814 0.0
N1850 N 0.18269 0.72565 0.28508 0.0
N1851 N 0.07137 0.78374 0.21553 0.0
H1852 H 0.05966 0.76084 0.31133 0.0
H1853 H 0.03957 0.76636 0.272 0.0
H1854 H 0.0748 0.79298 0.19039 0.0
H1855 H 0.05131 0.79654 0.22833 0.0
H1856 H 0.20451 0.71535 0.27303 0.0
H1857 H 0.18257 0.7217 0.31172 0.0
H1858 H 0.21014 0.73741 0.22449 0.0
H1859 H 0.18733 0.7467 0.18686 0.0
C1860 C 0.38863 0.25265 0.49169 0.0
C1861 C 0.40588 0.27974 0.47148 0.0
C1862 C 0.43882 0.2988 0.52226 0.0
C1863 C 0.4189 0.27594 0.54399 0.0
N1864 N 0.37891 0.22539 0.54824 0.0
N1865 N 0.43353 0.33871 0.4744 0.0
C1866 C 0.39488 0.25106 0.52831 0.0
C1867 C 0.42661 0.30599 0.48885 0.0
N1868 N 0.36565 0.22925 0.47621 0.0
N1869 N 0.47049 0.31227 0.53245 0.0
H1870 H 0.42103 0.3472 0.45205 0.0
H1871 H 0.44751 0.35885 0.48747 0.0
H1872 H 0.48272 0.30359 0.55488 0.0
H1873 H 0.48629 0.32781 0.51611 0.0
H1874 H 0.35622 0.20568 0.48747 0.0
H1875 H 0.35462 0.23436 0.45223 0.0
H1876 H 0.3582 0.20901 0.54015 0.0
H1877 H 0.38763 0.21944 0.573 0.0
C1878 C 0.11369 0.70529 0.73126 0.0
C1879 C 0.10856 0.73872 0.71455 0.0
C1880 C 0.11923 0.76983 0.7696 0.0
C1881 C 0.11723 0.73667 0.78709 0.0
N1882 N 0.12924 0.67369 0.7838 0.0
N1883 N 0.10423 0.80341 0.71887 0.0
C1884 C 0.11947 0.70443 0.76773 0.0
C1885 C 0.11165 0.77126 0.73378 0.0
N1886 N 0.11242 0.67441 0.71225 0.0
N1887 N 0.12914 0.79995 0.78746 0.0
H1888 H 0.09744 0.8064 0.69311 0.0
H1889 H 0.10173 0.82706 0.73285 0.0
H1890 H 0.13622 0.7989 0.81344 0.0
H1891 H 0.13437 0.82464 0.77581 0.0
H1892 H 0.1115 0.6488 0.72282 0.0
H1893 H 0.11123 0.67439 0.68537 0.0
H1894 H 0.13263 0.64934 0.77135 0.0
H1895 H 0.13862 0.67356 0.80898 0.0
C1896 C 0.09588 0.75707 0.98506 0.0
C1897 C 0.09176 0.72447 0.96571 0.0
C1898 C 0.07118 0.69523 0.01871 0.0
C1899 C 0.08294 0.72449 0.0392 0.0
N1900 N 0.10731 0.78474 0.04067 0.0
N1901 N 0.08505 0.65974 0.96903 0.0
C1902 C 0.09615 0.75564 0.02198 0.0
C1903 C 0.08255 0.69267 0.98408 0.0
N1904 N 0.09615 0.78972 0.96909 0.0
N1905 N 0.04705 0.67126 0.03095 0.0
H1906 H 0.09663 0.65603 0.94502 0.0
H1907 H 0.0799 0.63603 0.98253 0.0
H1908 H 0.03223 0.67719 0.05251 0.0
H1909 H 0.03709 0.65005 0.0161 0.0
H1910 H 0.09587 0.81387 0.98259 0.0
H1911 H 0.09159 0.79341 0.94299 0.0
H1912 H 0.12159 0.806 0.02983 0.0
H1913 H 0.10307 0.78713 0.06712 0.0
C1914 C 0.61264 0.7349 0.24096 0.0
C1915 C 0.601 0.76287 0.26293 0.0
C1916 C 0.57928 0.79531 0.21261 0.0
C1917 C 0.58698 0.76575 0.19088 0.0
N1918 N 0.61231 0.70781 0.18366 0.0
N1919 N 0.5899 0.82575 0.26695 0.0
C1920 C 0.60434 0.73575 0.20488 0.0
C1921 C 0.58965 0.79502 0.24777 0.0
N1922 N 0.63355 0.70902 0.25396 0.0
N1923 N 0.55916 0.82234 0.20071 0.0
H1924 H 0.59942 0.82656 0.29217 0.0
H1925 H 0.58503 0.85092 0.25664 0.0
H1926 H 0.54908 0.82268 0.17591 0.0
H1927 H 0.54934 0.84234 0.21647 0.0
H1928 H 0.64418 0.68862 0.23938 0.0
H1929 H 0.64446 0.71052 0.27845 0.0
H1930 H 0.62071 0.68308 0.19228 0.0
H1931 H 0.60925 0.70888 0.15696 0.0
C1932 C 0.4139 0.22463 0.02293 0.0
C1933 C 0.39963 0.25361 0.04144 0.0
C1934 C 0.39294 0.28542 0.98599 0.0
C1935 C 0.41017 0.2571 0.96867 0.0
N1936 N 0.45271 0.2111 0.97668 0.0
N1937 N 0.36495 0.30647 0.03844 0.0
C1938 C 0.42536 0.23003 0.98879 0.0
C1939 C 0.3863 0.2829 0.02238 0.0
N1940 N 0.41436 0.19104 0.03673 0.0
N1941 N 0.38546 0.31583 0.96812 0.0
H1942 H 0.35584 0.3023 0.06345 0.0
H1943 H 0.35264 0.32741 0.02607 0.0
H1944 H 0.39369 0.31994 0.94278 0.0
H1945 H 0.37509 0.33863 0.97917 0.0
H1946 H 0.4232 0.16903 0.0229 0.0
H1947 H 0.40111 0.1844 0.05939 0.0
H1948 H 0.46538 0.19225 0.99177 0.0
H1949 H 0.46613 0.21857 0.95436 0.0
C1950 C 0.27596 0.0296 0.61728 0.0
C1951 C 0.28821 0.00335 0.64048 0.0
C1952 C 0.22809 0.98924 0.65848 0.0
C1953 C 0.21595 0.01705 0.63698 0.0
N1954 N 0.22702 0.05835 0.58997 0.0
N1955 N 0.27479 0.94902 0.67205 0.0
C1956 C 0.23945 0.03524 0.61416 0.0
C1957 C 0.26393 0.9801 0.65747 0.0
N1958 N 0.29964 0.04987 0.599 0.0
N1959 N 0.2055 0.97202 0.68048 0.0
H1960 H 0.30023 0.94029 0.67011 0.0
H1961 H 0.25783 0.92967 0.68237 0.0
H1962 H 0.17875 0.97637 0.68046 0.0
H1963 H 0.21355 0.95503 0.70009 0.0
H1964 H 0.29352 0.07267 0.58504 0.0
H1965 H 0.32612 0.04406 0.59851 0.0
H1966 H 0.24211 0.06949 0.57027 0.0
H1967 H 0.20091 0.06496 0.588 0.0
C1968 C 0.70992 0.1816 0.93827 0.0
C1969 C 0.73261 0.2024 0.95984 0.0
C1970 C 0.76471 0.14813 0.97414 0.0
C1971 C 0.74123 0.12686 0.95391 0.0
N1972 N 0.69882 0.12545 0.90789 0.0
N1973 N 0.79115 0.20692 0.98268 0.0
C1974 C 0.71585 0.14419 0.93339 0.0
C1975 C 0.76313 0.18622 0.97277 0.0
N1976 N 0.68307 0.19784 0.92185 0.0
N1977 N 0.78737 0.13219 0.99624 0.0
H1978 H 0.79325 0.23418 0.97709 0.0
H1979 H 0.81444 0.19626 0.99124 0.0
H1980 H 0.78821 0.10453 0.99973 0.0
H1981 H 0.80242 0.14656 0.0141 0.0
H1982 H 0.66247 0.18387 0.9101 0.0
H1983 H 0.68147 0.22568 0.92023 0.0
H1984 H 0.68238 0.13713 0.88998 0.0
H1985 H 0.70375 0.09873 0.90223 0.0
C1986 C 0.76869 0.50754 0.33696 0.0
C1987 C 0.79389 0.48615 0.35354 0.0
C1988 C 0.74716 0.45537 0.38632 0.0
C1989 C 0.72174 0.47292 0.36595 0.0
N1990 N 0.70796 0.51653 0.32245 0.0
N1991 N 0.80782 0.43947 0.39355 0.0
C1992 C 0.73248 0.49936 0.34153 0.0
C1993 C 0.78329 0.4603 0.3784 0.0
N1994 N 0.7794 0.53597 0.31706 0.0
N1995 N 0.73697 0.43378 0.41312 0.0
H1996 H 0.83452 0.44388 0.38995 0.0
H1997 H 0.80186 0.41685 0.4083 0.0
H1998 H 0.71114 0.42669 0.41828 0.0
H1999 H 0.75411 0.4242 0.43158 0.0
H2000 H 0.76269 0.55467 0.30668 0.0
H2001 H 0.8055 0.54296 0.31324 0.0
H2002 H 0.71373 0.53205 0.30083 0.0
H2003 H 0.68131 0.51425 0.32741 0.0
C2004 C 0.30551 0.6588 0.51031 0.0
C2005 C 0.27814 0.65092 0.53381 0.0
C2006 C 0.2699 0.7163 0.54077 0.0
C2007 C 0.30008 0.72366 0.52048 0.0
N2008 N 0.34898 0.6979 0.48869 0.0
N2009 N 0.23783 0.67333 0.57622 0.0
C2010 C 0.31866 0.69408 0.50667 0.0
C2011 C 0.26102 0.68001 0.55016 0.0
N2012 N 0.31975 0.63318 0.48993 0.0
N2013 N 0.24967 0.74391 0.55126 0.0
H2014 H 0.23123 0.64765 0.58481 0.0
H2015 H 0.22755 0.69338 0.59161 0.0
H2016 H 0.25645 0.77077 0.54697 0.0
H2017 H 0.22509 0.74008 0.56222 0.0
H2018 H 0.31056 0.60673 0.48827 0.0
H2019 H 0.31056 0.60673 0.48827 0.0
H2020 H 0.36279 0.72187 0.48514 0.0
H2021 H 0.36279 0.72187 0.48514 0.0
C2022 C 0.20202 0.97363 0.12094 0.0
C2023 C 0.1902 0.00692 0.13352 0.0
C2024 C 0.25022 0.03149 0.13202 0.0
C2025 C 0.26245 0.99676 0.12409 0.0
N2026 N 0.25057 0.93548 0.10719 0.0
N2027 N 0.20091 0.07075 0.13787 0.0
C2028 C 0.23842 0.96812 0.11701 0.0
C2029 C 0.21358 0.03699 0.13482 0.0
N2030 N 0.17788 0.94788 0.11153 0.0
N2031 N 0.27373 0.05867 0.13893 0.0
H2032 H 0.17446 0.07602 0.1386 0.0
H2033 H 0.21624 0.09402 0.13587 0.0
H2034 H 0.3006 0.05572 0.13701 0.0
H2035 H 0.26701 0.08356 0.14867 0.0
H2036 H 0.18378 0.92357 0.10007 0.0
H2037 H 0.15114 0.95231 0.11249 0.0
H2038 H 0.2353 0.91217 0.1054 0.0
H2039 H 0.27664 0.93131 0.1014 0.0
C2040 C 0.74244 0.82163 0.44675 0.0
C2041 C 0.76286 0.85044 0.4611 0.0
C2042 C 0.806 0.80698 0.48036 0.0
C2043 C 0.78384 0.77761 0.46949 0.0
N2044 N 0.72859 0.75776 0.44568 0.0
N2045 N 0.81313 0.86929 0.49481 0.0
C2046 C 0.75124 0.78526 0.45394 0.0
C2047 C 0.79419 0.84262 0.4787 0.0
N2048 N 0.71624 0.82871 0.42402 0.0
N2049 N 0.8383 0.8026 0.49412 0.0
H2050 H 0.80362 0.89476 0.49949 0.0
H2051 H 0.83739 0.86516 0.50613 0.0
H2052 H 0.85092 0.77844 0.49699 0.0
H2053 H 0.85092 0.77844 0.49699 0.0
H2054 H 0.70276 0.80888 0.41017 0.0
H2055 H 0.71043 0.85445 0.41583 0.0
H2056 H 0.70268 0.76166 0.4389 0.0
H2057 H 0.73511 0.73085 0.44743 0.0
C2058 C 0.76468 0.52747 0.87079 0.0
C2059 C 0.78929 0.52436 0.84326 0.0
C2060 C 0.74074 0.52184 0.80153 0.0
C2061 C 0.71631 0.52742 0.82853 0.0
N2062 N 0.70501 0.53946 0.88831 0.0
N2063 N 0.79836 0.50259 0.78564 0.0
C2064 C 0.7283 0.53094 0.86307 0.0
C2065 C 0.77656 0.51709 0.80952 0.0
N2066 N 0.77536 0.52469 0.90429 0.0
N2067 N 0.73001 0.52168 0.76791 0.0
H2068 H 0.82329 0.49413 0.79187 0.0
H2069 H 0.79057 0.49451 0.7611 0.0
H2070 H 0.70407 0.52285 0.76041 0.0
H2071 H 0.74712 0.52284 0.74709 0.0
H2072 H 0.75872 0.52518 0.92539 0.0
H2073 H 0.80003 0.51677 0.91152 0.0
H2074 H 0.71205 0.54715 0.91319 0.0
H2075 H 0.6784 0.54181 0.88366 0.0
C2076 C 0.20855 0.30393 0.06543 0.0
C2077 C 0.22732 0.28561 0.03953 0.0
C2078 C 0.25886 0.3418 0.02506 0.0
C2079 C 0.24014 0.36034 0.05085 0.0
N2080 N 0.20233 0.35716 0.10062 0.0
N2081 N 0.28023 0.28497 0.00533 0.0
C2082 C 0.21644 0.34083 0.07251 0.0
C2083 C 0.25569 0.30373 0.02278 0.0
N2084 N 0.18316 0.28577 0.08346 0.0
N2085 N 0.27815 0.36059 0.00126 0.0
H2086 H 0.2817 0.25722 0.00608 0.0
H2087 H 0.30237 0.29697 0.99443 0.0
H2088 H 0.28006 0.38849 1.00085 0.0
H2089 H 0.28908 0.34873 0.9796 0.0
H2090 H 0.16469 0.29812 0.09878 0.0
H2091 H 0.18019 0.25791 0.08245 0.0
H2092 H 0.18763 0.34376 0.11931 0.0
H2093 H 0.20754 0.3838 0.10711 0.0
C2094 C 0.30905 0.56174 0.04051 0.0
C2095 C 0.29113 0.53682 0.01902 0.0
C2096 C 0.26869 0.5888 0.98645 0.0
C2097 C 0.28214 0.61276 0.01223 0.0
N2098 N 0.29917 0.61554 0.07216 0.0
N2099 N 0.25764 0.52734 0.96714 0.0
C2100 C 0.29808 0.59763 0.04162 0.0
C2101 C 0.27231 0.55061 0.99038 0.0
N2102 N 0.33632 0.55129 0.06032 0.0
N2103 N 0.2513 0.60241 0.95885 0.0
H2104 H 0.26582 0.50102 0.96463 0.0
H2105 H 0.23782 0.53414 0.95024 0.0
H2106 H 0.24327 0.6289 0.95792 0.0
H2107 H 0.24431 0.58758 0.93715 0.0
H2108 H 0.35069 0.56936 0.07554 0.0
H2109 H 0.34677 0.5258 0.05806 0.0
H2110 H 0.30997 0.6046 0.09439 0.0
H2111 H 0.28291 0.63694 0.07679 0.0
C2112 C 0.80419 0.54603 0.55974 0.0
C2113 C 0.79457 0.52122 0.53377 0.0
C2114 C 0.78375 0.57208 0.49474 0.0
C2115 C 0.78911 0.59674 0.52266 0.0
N2116 N 0.78848 0.60186 0.58508 0.0
N2117 N 0.78987 0.51126 0.47278 0.0
C2118 C 0.79517 0.58243 0.55613 0.0
C2119 C 0.78876 0.53446 0.49999 0.0
N2120 N 0.82299 0.53527 0.58752 0.0
N2121 N 0.76989 0.58384 0.46444 0.0
H2122 H 0.79649 0.48449 0.47591 0.0
H2123 H 0.78886 0.51922 0.44708 0.0
H2124 H 0.76052 0.60961 0.46139 0.0
H2125 H 0.7627 0.56696 0.44416 0.0
H2126 H 0.83249 0.55324 0.6061 0.0
H2127 H 0.83288 0.50949 0.58918 0.0
H2128 H 0.79116 0.59133 0.60982 0.0
H2129 H 0.77415 0.62519 0.58453 0.0
C2130 C 0.2284 0.09182 0.01217 0.0
C2131 C 0.19824 0.1082 0.99878 0.0
C2132 C 0.1737 0.04856 0.98398 0.0
C2133 C 0.2054 0.03264 0.99401 0.0
N2134 N 0.25257 0.03712 0.03499 0.0
N2135 N 0.13715 0.10067 0.98636 0.0
C2136 C 0.2297 0.05357 0.0136 0.0
C2137 C 0.16925 0.08608 0.98905 0.0
N2138 N 0.25585 0.11266 0.02336 0.0
N2139 N 0.14778 0.02768 0.96976 0.0
H2140 H 0.13307 0.12721 0.99302 0.0
H2141 H 0.11429 0.08589 0.98178 0.0
H2142 H 0.14845 0.99972 0.97001 0.0
H2143 H 0.12609 0.03799 0.95742 0.0
H2144 H 0.27968 0.10223 0.03066 0.0
H2145 H 0.2554 0.14062 0.02346 0.0
H2146 H 0.26932 0.0511 0.05163 0.0
H2147 H 0.25117 0.00962 0.03968 0.0
C2148 C 0.72059 0.07543 0.5198 0.0
C2149 C 0.69029 0.09182 0.50684 0.0
C2150 C 0.66707 0.0326 0.48902 0.0
C2151 C 0.69892 0.01681 0.49892 0.0
N2152 N 0.74469 0.02043 0.54164 0.0
N2153 N 0.62955 0.0839 0.49326 0.0
C2154 C 0.72239 0.03726 0.51992 0.0
C2155 C 0.66187 0.06974 0.49567 0.0
N2156 N 0.74775 0.09616 0.53181 0.0
N2157 N 0.64152 0.01194 0.47389 0.0
H2158 H 0.62492 0.10997 0.50117 0.0
H2159 H 0.607 0.06901 0.48761 0.0
H2160 H 0.64217 0.98399 0.47369 0.0
H2161 H 0.61994 0.02245 0.46154 0.0
H2162 H 0.77175 0.0857 0.53853 0.0
H2163 H 0.74686 0.12407 0.53312 0.0
H2164 H 0.7607 0.03418 0.55915 0.0
H2165 H 0.74341 0.99283 0.54573 0.0
C2166 C 0.59491 0.78843 0.73702 0.0
C2167 C 0.6179 0.77409 0.76202 0.0
C2168 C 0.6572 0.75642 0.71469 0.0
C2169 C 0.63249 0.7683 0.69006 0.0
N2170 N 0.58939 0.81261 0.67952 0.0
N2171 N 0.6707 0.74322 0.77481 0.0
C2172 C 0.60472 0.78935 0.7017 0.0
C2173 C 0.64934 0.75821 0.75087 0.0
N2174 N 0.56305 0.80048 0.7465 0.0
N2175 N 0.6891 0.74596 0.70344 0.0
H2176 H 0.6654 0.74376 0.80118 0.0
H2177 H 0.69225 0.72806 0.76871 0.0
H2178 H 0.69668 0.74873 0.67774 0.0
H2179 H 0.70942 0.73881 0.71958 0.0
H2180 H 0.54376 0.80601 0.72849 0.0
H2181 H 0.5545 0.8016 0.77188 0.0
H2182 H 0.57056 0.83061 0.68713 0.0
H2183 H 0.59939 0.81776 0.65497 0.0
C2184 C 0.89135 0.28239 0.72373 0.0
C2185 C 0.8889 0.24871 0.70724 0.0
C2186 C 0.88034 0.21976 0.76368 0.0
C2187 C 0.89099 0.25233 0.78017 0.0
N2188 N 0.90803 0.31531 0.77469 0.0
N2189 N 0.86305 0.18942 0.71052 0.0
C2190 C 0.89588 0.28411 0.76004 0.0
C2191 C 0.87793 0.21837 0.72687 0.0
N2192 N 0.88824 0.31282 0.70453 0.0
N2193 N 0.87335 0.19004 0.78331 0.0
H2194 H 0.8562 0.19006 0.68454 0.0
H2195 H 0.85312 0.16679 0.72308 0.0
H2196 H 0.8719 0.19106 0.81016 0.0
H2197 H 0.86988 0.16431 0.77333 0.0
H2198 H 0.88655 0.33833 0.71527 0.0
H2199 H 0.88275 0.3118 0.67817 0.0
H2200 H 0.91664 0.33736 0.7603 0.0
H2201 H 0.91226 0.31877 0.8009 0.0
C2202 C 0.56222 0.79598 0.99009 0.0
C2203 C 0.58294 0.77438 0.01157 0.0
C2204 C 0.6019 0.74323 0.95832 0.0
C2205 C 0.57685 0.76242 0.93877 0.0
N2206 N 0.52094 0.7904 0.94412 0.0
N2207 N 0.62627 0.72857 0.01463 0.0
C2208 C 0.55304 0.78345 0.9571 0.0
C2209 C 0.60386 0.74804 0.99526 0.0
N2210 N 0.55282 0.82949 0.99982 0.0
N2211 N 0.62322 0.72003 0.9418 0.0
H2212 H 0.63312 0.73576 0.03973 0.0
H2213 H 0.63872 0.70588 0.00574 0.0
H2214 H 0.6185 0.71147 0.9166 0.0
H2215 H 0.64504 0.70881 0.95302 0.0
H2216 H 0.53804 0.84576 0.98383 0.0
H2217 H 0.56385 0.8425 0.02114 0.0
H2218 H 0.50275 0.80491 0.95807 0.0
H2219 H 0.51128 0.77755 0.92208 0.0
C2220 C 0.92425 0.25087 0.26841 0.0
C2221 C 0.90497 0.22105 0.28154 0.0
C2222 C 0.88677 0.20582 0.22213 0.0
C2223 C 0.90937 0.23307 0.20912 0.0
N2224 N 0.95731 0.27491 0.22057 0.0
N2225 N 0.87625 0.16376 0.26831 0.0
C2226 C 0.93074 0.25329 0.23242 0.0
C2227 C 0.88833 0.19671 0.25777 0.0
N2228 N 0.93488 0.27805 0.28989 0.0
N2229 N 0.86423 0.18808 0.20044 0.0
H2230 H 0.88012 0.15352 0.29289 0.0
H2231 H 0.8664 0.14441 0.25132 0.0
H2232 H 0.86405 0.19229 0.17384 0.0
H2233 H 0.84431 0.17095 0.2092 0.0
H2234 H 0.94606 0.302 0.2809 0.0
H2235 H 0.9286 0.27864 0.31603 0.0
H2236 H 0.97519 0.28776 0.23693 0.0
H2237 H 0.96397 0.277 0.19467 0.0
C2238 C 0.93248 0.18894 0.51648 0.0
C2239 C 0.91358 0.21631 0.53314 0.0
C2240 C 0.9079 0.24631 0.47671 0.0
C2241 C 0.9279 0.21919 0.4609 0.0
N2242 N 0.97174 0.17476 0.47106 0.0
N2243 N 0.87261 0.26372 0.52556 0.0
C2244 C 0.94406 0.19373 0.48234 0.0
C2245 C 0.89837 0.2432 0.5123 0.0
N2246 N 0.93827 0.15672 0.5316 0.0
N2247 N 0.90031 0.27639 0.4584 0.0
H2248 H 0.86127 0.25845 0.54948 0.0
H2249 H 0.859 0.28231 0.51117 0.0
H2250 H 0.9102 0.28108 0.43373 0.0
H2251 H 0.88856 0.29868 0.46909 0.0
H2252 H 0.92677 0.14836 0.55469 0.0
H2253 H 0.92677 0.14836 0.55469 0.0
H2254 H 0.98352 0.15543 0.48635 0.0
H2255 H 0.98571 0.182 0.44901 0.0
C2256 C 0.40573 0.30677 0.74645 0.0
C2257 C 0.39188 0.28356 0.72055 0.0
C2258 C 0.37041 0.2423 0.76545 0.0
C2259 C 0.38163 0.26718 0.79151 0.0
N2260 N 0.40245 0.32678 0.8058 0.0
N2261 N 0.35568 0.23247 0.70521 0.0
C2262 C 0.39711 0.3005 0.78165 0.0
C2263 C 0.37234 0.25246 0.73004 0.0
N2264 N 0.42779 0.33448 0.73759 0.0
N2265 N 0.3601 0.20811 0.77397 0.0
H2266 H 0.35789 0.23811 0.67894 0.0
H2267 H 0.33762 0.21202 0.71078 0.0
H2268 H 0.35932 0.19832 0.79901 0.0
H2269 H 0.35536 0.18804 0.75578 0.0
H2270 H 0.4415 0.35007 0.75554 0.0
H2271 H 0.43506 0.33964 0.71222 0.0
H2272 H 0.41047 0.35287 0.79965 0.0
H2273 H 0.39519 0.32365 0.83156 0.0
C2274 C 0.61526 0.77156 0.4992 0.0
C2275 C 0.60841 0.73716 0.51414 0.0
C2276 C 0.61915 0.71014 0.45778 0.0
C2277 C 0.61808 0.74381 0.44119 0.0
N2278 N 0.61981 0.80836 0.44754 0.0
N2279 N 0.59354 0.67507 0.50304 0.0
C2280 C 0.61769 0.77522 0.46229 0.0
C2281 C 0.60747 0.70685 0.49213 0.0
N2282 N 0.61946 0.80072 0.52025 0.0
N2283 N 0.63156 0.68106 0.44076 0.0
H2284 H 0.58017 0.67326 0.52604 0.0
H2285 H 0.59056 0.65274 0.48701 0.0
H2286 H 0.64273 0.68321 0.41628 0.0
H2287 H 0.63478 0.65634 0.45278 0.0
H2288 H 0.62858 0.82567 0.51173 0.0
H2289 H 0.61518 0.79952 0.54678 0.0
H2290 H 0.61387 0.83186 0.46056 0.0
H2291 H 0.62826 0.81254 0.42237 0.0
C2292 C 0.5088 0.53057 0.39743 0.0
C2293 C 0.4785 0.50773 0.39946 0.0
C2294 C 0.51613 0.45525 0.39965 0.0
C2295 C 0.54643 0.47814 0.39943 0.0
N2296 N 0.57073 0.53741 0.40891 0.0
N2297 N 0.45457 0.44924 0.41322 0.0
C2298 C 0.54241 0.51575 0.4019 0.0
C2299 C 0.48263 0.47036 0.40411 0.0
N2300 N 0.50613 0.56592 0.38883 0.0
N2301 N 0.51863 0.4194 0.39321 0.0
H2302 H 0.42993 0.45959 0.41755 0.0
H2303 H 0.45662 0.42241 0.42025 0.0
H2304 H 0.54192 0.40683 0.38789 0.0
H2305 H 0.4969 0.40258 0.38969 0.0
H2306 H 0.52771 0.58248 0.38369 0.0
H2307 H 0.48274 0.57814 0.38321 0.0
H2308 H 0.56887 0.56467 0.41432 0.0
H2309 H 0.59549 0.52734 0.41321 0.0
C2310 C 0.48119 0.98845 0.64426 0.0
C2311 C 0.46518 0.00394 0.67358 0.0
C2312 C 0.51922 0.03796 0.6858 0.0
C2313 C 0.53718 0.01803 0.6606 0.0
N2314 N 0.53266 0.9849 0.60755 0.0
N2315 N 0.47138 0.03868 0.72596 0.0
C2316 C 0.51739 0.99604 0.63737 0.0
C2317 C 0.48493 0.02722 0.69544 0.0
N2318 N 0.46188 0.96573 0.62375 0.0
N2319 N 0.53377 0.06896 0.69859 0.0
H2320 H 0.44713 0.03007 0.73507 0.0
H2321 H 0.48597 0.05321 0.74409 0.0
H2322 H 0.55646 0.08049 0.68824 0.0
H2323 H 0.52063 0.08601 0.71515 0.0
H2324 H 0.47178 0.95142 0.6031 0.0
H2325 H 0.4357 0.95955 0.62865 0.0
H2326 H 0.52025 0.96944 0.58871 0.0
H2327 H 0.55716 0.99454 0.59984 0.0
C2328 C 0.0276 0.46298 0.34072 0.0
C2329 C 0.04787 0.49526 0.34038 0.0
C2330 C 0.99342 0.52905 0.34324 0.0
C2331 C 0.97353 0.49719 0.33715 0.0
N2332 N 0.97376 0.43348 0.32384 0.0
N2333 N 0.04826 0.56034 0.33472 0.0
C2334 C 0.99109 0.46398 0.33438 0.0
C2335 C 0.0304 0.52873 0.34016 0.0
N2336 N 0.04295 0.43122 0.34821 0.0
N2337 N 0.9772 0.55966 0.35301 0.0
H2338 H 0.07497 0.56256 0.33096 0.0
H2339 H 0.03581 0.5844 0.33008 0.0
H2340 H 0.95036 0.56081 0.35683 0.0
H2341 H 0.99079 0.58266 0.36118 0.0
H2342 H 0.02876 0.40741 0.35214 0.0
H2343 H 0.06926 0.42945 0.35456 0.0
H2344 H 0.98651 0.40999 0.31757 0.0
H2345 H 0.94745 0.43225 0.31764 0.0
C2346 C 0.02329 0.00496 0.59236 0.0
C2347 C 0.0375 0.01496 0.62496 0.0
C2348 C 0.97831 0.02424 0.64673 0.0
C2349 C 0.96381 0.01005 0.61581 0.0
N2350 N 0.9723 1.00058 0.55513 0.0
N2351 N 0.02734 0.02643 0.68548 0.0
C2352 C 0.98632 0.00407 0.58738 0.0
C2353 C 0.01472 0.02223 0.6528 0.0
N2354 N 0.04526 0.99461 0.56665 0.0
N2355 N 0.95802 0.04296 0.66898 0.0
H2356 H 0.05363 0.02585 0.69178 0.0
H2357 H 0.01105 0.02616 0.70696 0.0
H2358 H 0.93296 0.05084 0.66262 0.0
H2359 H 0.96788 0.05587 0.69083 0.0
H2360 H 0.0369 0.98349 0.54339 0.0
H2361 H 0.07225 0.99411 0.5698 0.0
H2362 H 0.98692 0.99883 0.53265 0.0
H2363 H 0.94583 0.00399 0.55036 0.0
C2364 C 0.89633 0.23031 0.97849 0.0
C2365 C 0.90408 0.26267 0.96013 0.0
C2366 C 0.93351 0.28703 0.01128 0.0
C2367 C 0.92304 0.25697 0.03118 0.0
N2368 N 0.89961 0.19655 0.03225 0.0
N2369 N 0.91518 0.32645 0.96624 0.0
C2370 C 0.90588 0.2275 0.01424 0.0
C2371 C 0.91795 0.29248 0.97878 0.0
N2372 N 0.87908 0.20273 0.96218 0.0
N2373 N 0.9602 0.30911 0.02181 0.0
H2374 H 0.90015 0.33213 0.94458 0.0
H2375 H 0.9235 0.34899 0.98021 0.0
H2376 H 0.9768 0.30202 0.04182 0.0
H2377 H 0.96945 0.33055 0.0069 0.0
H2378 H 0.87705 0.17668 0.97156 0.0
H2379 H 0.86443 0.20657 0.93994 0.0
H2380 H 0.88392 0.17528 0.02368 0.0
H2381 H 0.91141 0.19166 0.05597 0.0
C2382 C 0.09155 0.72881 0.47884 0.0
C2383 C 0.11673 0.75346 0.46528 0.0
C2384 C 0.13838 0.76566 0.524 0.0
C2385 C 0.11275 0.74152 0.53754 0.0
N2386 N 0.07374 0.69118 0.52688 0.0
N2387 N 0.17 0.78818 0.47417 0.0
C2388 C 0.09211 0.72021 0.51465 0.0
C2389 C 0.14217 0.76944 0.48759 0.0
N2390 N 0.06691 0.71363 0.45757 0.0
N2391 N 0.15865 0.78567 0.54612 0.0
H2392 H 0.17304 0.79341 0.448 0.0
H2393 H 0.19145 0.79663 0.48876 0.0
H2394 H 0.15868 0.78138 0.57271 0.0
H2395 H 0.17438 0.8073 0.53838 0.0
H2396 H 0.04515 0.69931 0.46658 0.0
H2397 H 0.06705 0.71705 0.43089 0.0
H2398 H 0.06023 0.67296 0.51118 0.0
H2399 H 0.07553 0.68273 0.55231 0.0
loop_
_geom_bond_atom_site_label_1
_geom_bond_atom_site_label_2
_geom_bond_distance
_geom_bond_site_symmetry_2
_ccdc_geom_bond_type
Co0 O1 2.216 . S
Co0 O2 2.091 . S
Co0 O4 2.004 . S
Co0 O10 2.021 . S
Co0 O12 2.137 . S
Co0 O13 2.244 . S
O1 Co0 2.216 . S
O1 C8 1.247 . S
O2 Co0 2.091 . S
O2 C8 1.261 . S
C3 O12 1.247 . S
C3 O13 1.272 . S
O4 Co0 2.004 . S
O4 C9 1.259 . S
Co5 O6 2.061 . S
Co5 O11 2.052 . S
Co5 O13 2.135 . S
O6 Co5 2.061 . S
O6 C9 1.235 . S
C7 O10 1.238 . S
C7 O11 1.241 . S
C8 O1 1.247 . S
C8 O2 1.261 . S
C9 O4 1.259 . S
C9 O6 1.235 . S
O10 Co0 2.021 . S
O10 C7 1.238 . S
O11 Co5 2.052 . S
O11 C7 1.241 . S
O12 Co0 2.137 . S
O12 C3 1.247 . S
O13 Co0 2.244 . S
O13 C3 1.272 . S
O13 Co5 2.135 . S
Co14 O15 2.216 . S
Co14 O16 2.091 . S
Co14 O18 2.004 . S
Co14 O24 2.021 . S
Co14 O26 2.137 . S
Co14 O27 2.244 . S
O15 Co14 2.216 . S
O15 C22 1.247 . S
O16 Co14 2.091 . S
O16 C22 1.261 . S
C17 O26 1.247 . S
C17 O27 1.272 . S
O18 Co14 2.004 . S
O18 C23 1.259 . S
Co19 O20 2.061 . S
Co19 O25 2.052 . S
Co19 O27 2.135 . S
O20 Co19 2.061 . S
O20 C23 1.235 . S
C21 O24 1.238 . S
C21 O25 1.241 . S
C22 O15 1.247 . S
C22 O16 1.261 . S
C23 O18 1.259 . S
C23 O20 1.235 . S
O24 Co14 2.021 . S
O24 C21 1.238 . S
O25 Co19 2.052 . S
O25 C21 1.241 . S
O26 Co14 2.137 . S
O26 C17 1.247 . S
O27 Co14 2.244 . S
O27 C17 1.272 . S
O27 Co19 2.135 . S
Co28 O29 2.216 . S
Co28 O30 2.091 . S
Co28 O32 2.004 . S
Co28 O38 2.021 . S
Co28 O40 2.137 . S
Co28 O41 2.244 . S
O29 Co28 2.216 . S
O29 C36 1.247 . S
O30 Co28 2.091 . S
O30 C36 1.261 . S
C31 O40 1.247 . S
C31 O41 1.272 . S
O32 Co28 2.004 . S
O32 C37 1.259 . S
Co33 O34 2.061 . S
Co33 O39 2.052 . S
Co33 O41 2.135 . S
O34 Co33 2.061 . S
O34 C37 1.235 . S
C35 O38 1.238 . S
C35 O39 1.241 . S
C36 O29 1.247 . S
C36 O30 1.261 . S
C37 O32 1.259 . S
C37 O34 1.235 . S
O38 Co28 2.021 . S
O38 C35 1.238 . S
O39 Co33 2.052 . S
O39 C35 1.241 . S
O40 Co28 2.137 . S
O40 C31 1.247 . S
O41 Co28 2.244 . S
O41 C31 1.272 . S
O41 Co33 2.135 . S
Co42 O43 2.216 . S
Co42 O44 2.091 . S
Co42 O46 2.004 1_565 S
Co42 O52 2.021 . S
Co42 O54 2.137 1_565 S
Co42 O55 2.244 1_565 S
O43 Co42 2.216 . S
O43 C50 1.247 . S
O44 Co42 2.091 . S
O44 C50 1.261 . S
C45 O54 1.247 . S
C45 O55 1.272 . S
O46 Co42 2.004 1_545 S
O46 C51 1.259 . S
Co47 O48 2.061 . S
Co47 O53 2.052 . S
Co47 O55 2.135 . S
O48 Co47 2.061 . S
O48 C51 1.235 . S
C49 O52 1.238 . S
C49 O53 1.241 1_565 S
C50 O43 1.247 . S
C50 O44 1.261 . S
C51 O46 1.259 . S
C51 O48 1.235 . S
O52 Co42 2.021 . S
O52 C49 1.238 . S
O53 Co47 2.052 . S
O53 C49 1.241 1_545 S
O54 Co42 2.137 1_545 S
O54 C45 1.247 . S
O55 Co42 2.244 1_545 S
O55 C45 1.272 . S
O55 Co47 2.135 . S
Co56 O57 2.216 . S
Co56 O58 2.091 . S
Co56 O60 2.004 . S
Co56 O66 2.021 . S
Co56 O68 2.137 . S
Co56 O69 2.244 . S
O57 Co56 2.216 . S
O57 C64 1.247 . S
O58 Co56 2.091 . S
O58 C64 1.261 . S
C59 O68 1.247 . S
C59 O69 1.272 . S
O60 Co56 2.004 . S
O60 C65 1.259 . S
Co61 O62 2.061 . S
Co61 O67 2.052 . S
Co61 O69 2.135 . S
O62 Co61 2.061 . S
O62 C65 1.235 . S
C63 O66 1.238 . S
C63 O67 1.241 . S
C64 O57 1.247 . S
C64 O58 1.261 . S
C65 O60 1.259 . S
C65 O62 1.235 . S
O66 Co56 2.021 . S
O66 C63 1.238 . S
O67 Co61 2.052 . S
O67 C63 1.241 . S
O68 Co56 2.137 . S
O68 C59 1.247 . S
O69 Co56 2.244 . S
O69 C59 1.272 . S
O69 Co61 2.135 . S
Co70 O71 2.216 . S
Co70 O72 2.091 . S
Co70 O74 2.004 . S
Co70 O80 2.021 . S
Co70 O82 2.137 . S
Co70 O83 2.244 . S
O71 Co70 2.216 . S
O71 C78 1.247 . S
O72 Co70 2.091 . S
O72 C78 1.261 . S
C73 O82 1.247 . S
C73 O83 1.272 . S
O74 Co70 2.004 . S
O74 C79 1.259 . S
Co75 O76 2.061 . S
Co75 O81 2.052 . S
Co75 O83 2.135 . S
O76 Co75 2.061 . S
O76 C79 1.235 . S
C77 O80 1.238 . S
C77 O81 1.241 . S
C78 O71 1.247 . S
C78 O72 1.261 . S
C79 O74 1.259 . S
C79 O76 1.235 . S
O80 Co70 2.021 . S
O80 C77 1.238 . S
O81 Co75 2.052 . S
O81 C77 1.241 . S
O82 Co70 2.137 . S
O82 C73 1.247 . S
O83 Co70 2.244 . S
O83 C73 1.272 . S
O83 Co75 2.135 . S
Co84 O85 2.216 1_565 S
Co84 O86 2.091 . S
Co84 O88 2.004 . S
Co84 O94 2.021 1_565 S
Co84 O96 2.137 . S
Co84 O97 2.244 1_565 S
O85 Co84 2.216 1_545 S
O85 C92 1.247 1_545 S
O86 Co84 2.091 . S
O86 C92 1.261 . S
C87 O96 1.241 1_545 S
C87 O97 1.276 . S
O88 Co84 2.004 . S
O88 C93 1.259 . S
Co89 O90 2.061 . S
Co89 O95 2.052 . S
Co89 O97 2.135 . S
O90 Co89 2.061 . S
O90 C93 1.235 1_545 S
C91 O94 1.238 . S
C91 O95 1.241 . S
C92 O85 1.247 1_565 S
C92 O86 1.261 . S
C93 O88 1.259 . S
C93 O90 1.235 1_565 S
O94 Co84 2.021 1_545 S
O94 C91 1.238 . S
O95 Co89 2.052 . S
O95 C91 1.241 . S
O96 Co84 2.137 . S
O96 C87 1.241 1_565 S
O97 Co84 2.244 1_545 S
O97 C87 1.276 . S
O97 Co89 2.135 . S
Co98 O99 2.216 . S
Co98 O100 2.091 . S
Co98 O102 2.004 . S
Co98 O108 2.021 . S
Co98 O110 2.137 . S
Co98 O111 2.244 . S
O99 Co98 2.216 . S
O99 C106 1.247 . S
O100 Co98 2.091 . S
O100 C106 1.261 . S
C101 O110 1.247 . S
C101 O111 1.272 . S
O102 Co98 2.004 . S
O102 C107 1.259 . S
Co103 O104 2.061 . S
Co103 O109 2.052 . S
Co103 O111 2.135 . S
O104 Co103 2.061 . S
O104 C107 1.235 . S
C105 O108 1.238 . S
C105 O109 1.241 . S
C106 O99 1.247 . S
C106 O100 1.261 . S
C107 O102 1.259 . S
C107 O104 1.235 . S
O108 Co98 2.021 . S
O108 C105 1.238 . S
O109 Co103 2.052 . S
O109 C105 1.241 . S
O110 Co98 2.137 . S
O110 C101 1.247 . S
O111 Co98 2.244 . S
O111 C101 1.272 . S
O111 Co103 2.135 . S
Co112 O113 2.216 . S
Co112 O114 2.091 . S
Co112 O116 2.004 1_545 S
Co112 O122 2.021 . S
Co112 O124 2.137 1_545 S
Co112 O125 2.244 1_545 S
O113 Co112 2.216 . S
O113 C120 1.247 . S
O114 Co112 2.091 . S
O114 C120 1.261 . S
C115 O124 1.247 . S
C115 O125 1.272 . S
O116 Co112 2.004 1_565 S
O116 C121 1.259 . S
Co117 O118 2.061 . S
Co117 O123 2.052 . S
Co117 O125 2.135 . S
O118 Co117 2.061 . S
O118 C121 1.235 . S
C119 O122 1.238 . S
C119 O123 1.241 1_545 S
C120 O113 1.247 . S
C120 O114 1.261 . S
C121 O116 1.259 . S
C121 O118 1.235 . S
O122 Co112 2.021 . S
O122 C119 1.238 . S
O123 Co117 2.052 . S
O123 C119 1.241 1_565 S
O124 Co112 2.137 1_565 S
O124 C115 1.247 . S
O125 Co112 2.244 1_565 S
O125 C115 1.272 . S
O125 Co117 2.135 . S
Co126 O127 2.216 . S
Co126 O128 2.091 . S
Co126 O130 2.004 . S
Co126 O136 2.021 . S
Co126 O138 2.137 . S
Co126 O139 2.244 . S
O127 Co126 2.216 . S
O127 C134 1.247 . S
O128 Co126 2.091 . S
O128 C134 1.261 . S
C129 O138 1.247 . S
C129 O139 1.272 . S
O130 Co126 2.004 . S
O130 C135 1.259 . S
Co131 O132 2.061 . S
Co131 O137 2.052 . S
Co131 O139 2.135 . S
O132 Co131 2.061 . S
O132 C135 1.235 . S
C133 O136 1.238 . S
C133 O137 1.241 . S
C134 O127 1.247 . S
C134 O128 1.261 . S
C135 O130 1.259 . S
C135 O132 1.235 . S
O136 Co126 2.021 . S
O136 C133 1.238 . S
O137 Co131 2.052 . S
O137 C133 1.241 . S
O138 Co126 2.137 . S
O138 C129 1.247 . S
O139 Co126 2.244 . S
O139 C129 1.272 . S
O139 Co131 2.135 . S
Co140 O141 2.216 . S
Co140 O142 2.091 . S
Co140 O144 2.004 . S
Co140 O150 2.021 1_554 S
Co140 O152 2.137 . S
Co140 O153 2.244 1_554 S
O141 Co140 2.216 . S
O141 C148 1.247 . S
O142 Co140 2.091 . S
O142 C148 1.261 . S
C143 O152 1.247 1_556 S
C143 O153 1.272 . S
O144 Co140 2.004 . S
O144 C149 1.259 1_554 S
Co145 O146 2.061 . S
Co145 O151 2.052 . S
Co145 O153 2.135 . S
O146 Co145 2.061 . S
O146 C149 1.235 . S
C147 O150 1.238 . S
C147 O151 1.241 . S
C148 O141 1.247 . S
C148 O142 1.261 . S
C149 O144 1.259 1_556 S
C149 O146 1.235 . S
O150 Co140 2.021 1_556 S
O150 C147 1.238 . S
O151 Co145 2.052 . S
O151 C147 1.241 . S
O152 Co140 2.137 . S
O152 C143 1.247 1_554 S
O153 Co140 2.244 1_556 S
O153 C143 1.272 . S
O153 Co145 2.135 . S
Co154 O155 2.216 . S
Co154 O156 2.091 . S
Co154 O158 2.004 . S
Co154 O164 2.021 . S
Co154 O166 2.137 . S
Co154 O167 2.244 . S
O155 Co154 2.216 . S
O155 C162 1.247 . S
O156 Co154 2.091 . S
O156 C162 1.261 . S
C157 O166 1.247 . S
C157 O167 1.272 . S
O158 Co154 2.004 . S
O158 C163 1.259 . S
Co159 O160 2.061 . S
Co159 O165 2.052 . S
Co159 O167 2.135 . S
O160 Co159 2.061 . S
O160 C163 1.235 . S
C161 O164 1.238 . S
C161 O165 1.241 . S
C162 O155 1.247 . S
C162 O156 1.261 . S
C163 O158 1.259 . S
C163 O160 1.235 . S
O164 Co154 2.021 . S
O164 C161 1.238 . S
O165 Co159 2.052 . S
O165 C161 1.241 . S
O166 Co154 2.137 . S
O166 C157 1.247 . S
O167 Co154 2.244 . S
O167 C157 1.272 . S
O167 Co159 2.135 . S
Co168 O169 2.216 . S
Co168 O170 2.091 . S
Co168 O172 2.004 . S
Co168 O178 2.021 . S
Co168 O180 2.137 . S
Co168 O181 2.244 . S
O169 Co168 2.216 . S
O169 C176 1.247 . S
O170 Co168 2.091 . S
O170 C176 1.261 . S
C171 O180 1.247 . S
C171 O181 1.272 . S
O172 Co168 2.004 . S
O172 C177 1.259 . S
Co173 O174 2.061 . S
Co173 O179 2.052 . S
Co173 O181 2.135 . S
O174 Co173 2.061 . S
O174 C177 1.235 . S
C175 O178 1.238 . S
C175 O179 1.241 . S
C176 O169 1.247 . S
C176 O170 1.261 . S
C177 O172 1.259 . S
C177 O174 1.235 . S
O178 Co168 2.021 . S
O178 C175 1.238 . S
O179 Co173 2.052 . S
O179 C175 1.241 . S
O180 Co168 2.137 . S
O180 C171 1.247 . S
O181 Co168 2.244 . S
O181 C171 1.272 . S
O181 Co173 2.135 . S
Co182 O183 2.216 . S
Co182 O184 2.091 . S
Co182 O186 2.004 . S
Co182 O192 2.021 . S
Co182 O194 2.137 . S
Co182 O195 2.244 . S
O183 Co182 2.216 . S
O183 C190 1.247 . S
O184 Co182 2.091 . S
O184 C190 1.261 . S
C185 O194 1.247 . S
C185 O195 1.272 . S
O186 Co182 2.004 . S
O186 C191 1.259 . S
Co187 O188 2.061 . S
Co187 O193 2.052 . S
Co187 O195 2.135 . S
O188 Co187 2.061 . S
O188 C191 1.235 . S
C189 O192 1.238 . S
C189 O193 1.241 . S
C190 O183 1.247 . S
C190 O184 1.261 . S
C191 O186 1.259 . S
C191 O188 1.235 . S
O192 Co182 2.021 . S
O192 C189 1.238 . S
O193 Co187 2.052 . S
O193 C189 1.241 . S
O194 Co182 2.137 . S
O194 C185 1.247 . S
O195 Co182 2.244 . S
O195 C185 1.272 . S
O195 Co187 2.135 . S
Co196 O197 2.216 . S
Co196 O198 2.091 . S
Co196 O200 2.004 . S
Co196 O206 2.021 . S
Co196 O208 2.137 . S
Co196 O209 2.244 . S
O197 Co196 2.216 . S
O197 C204 1.247 . S
O198 Co196 2.091 . S
O198 C204 1.261 . S
C199 O208 1.247 . S
C199 O209 1.272 . S
O200 Co196 2.004 . S
O200 C205 1.259 . S
Co201 O202 2.061 . S
Co201 O207 2.052 . S
Co201 O209 2.135 . S
O202 Co201 2.061 . S
O202 C205 1.235 . S
C203 O206 1.238 . S
C203 O207 1.241 . S
C204 O197 1.247 . S
C204 O198 1.261 . S
C205 O200 1.259 . S
C205 O202 1.235 . S
O206 Co196 2.021 . S
O206 C203 1.238 . S
O207 Co201 2.052 . S
O207 C203 1.241 . S
O208 Co196 2.137 . S
O208 C199 1.247 . S
O209 Co196 2.244 . S
O209 C199 1.272 . S
O209 Co201 2.135 . S
Co210 O211 2.216 . S
Co210 O212 2.091 . S
Co210 O214 2.004 1_455 S
Co210 O220 2.021 1_455 S
Co210 O222 2.137 . S
Co210 O223 2.244 . S
O211 Co210 2.216 . S
O211 C218 1.247 . S
O212 Co210 2.091 . S
O212 C218 1.261 . S
C213 O222 1.247 . S
C213 O223 1.272 . S
O214 Co210 2.004 1_655 S
O214 C219 1.259 . S
Co215 O216 2.061 . S
Co215 O221 2.052 . S
Co215 O223 2.135 1_655 S
O216 Co215 2.061 . S
O216 C219 1.235 . S
C217 O220 1.238 . S
C217 O221 1.241 . S
C218 O211 1.247 . S
C218 O212 1.261 . S
C219 O214 1.259 . S
C219 O216 1.235 . S
O220 Co210 2.021 1_655 S
O220 C217 1.238 . S
O221 Co215 2.052 . S
O221 C217 1.241 . S
O222 Co210 2.137 . S
O222 C213 1.247 . S
O223 Co210 2.244 . S
O223 C213 1.272 . S
O223 Co215 2.135 1_455 S
Co224 O225 2.216 . S
Co224 O226 2.091 . S
Co224 O228 2.004 . S
Co224 O234 2.021 . S
Co224 O236 2.137 . S
Co224 O237 2.244 . S
O225 Co224 2.216 . S
O225 C232 1.247 . S
O226 Co224 2.091 . S
O226 C232 1.261 . S
C227 O236 1.247 . S
C227 O237 1.272 . S
O228 Co224 2.004 . S
O228 C233 1.259 . S
Co229 O230 2.061 . S
Co229 O235 2.052 . S
Co229 O237 2.135 . S
O230 Co229 2.061 . S
O230 C233 1.235 . S
C231 O234 1.238 . S
C231 O235 1.241 . S
C232 O225 1.247 . S
C232 O226 1.261 . S
C233 O228 1.259 . S
C233 O230 1.235 . S
O234 Co224 2.021 . S
O234 C231 1.238 . S
O235 Co229 2.052 . S
O235 C231 1.241 . S
O236 Co224 2.137 . S
O236 C227 1.247 . S
O237 Co224 2.244 . S
O237 C227 1.272 . S
O237 Co229 2.135 . S
Co238 O239 2.216 . S
Co238 O240 2.091 . S
Co238 O242 2.004 . S
Co238 O248 2.021 . S
Co238 O250 2.137 . S
Co238 O251 2.244 . S
O239 Co238 2.216 . S
O239 C246 1.247 . S
O240 Co238 2.091 . S
O240 C246 1.261 . S
C241 O250 1.247 . S
C241 O251 1.272 . S
O242 Co238 2.004 . S
O242 C247 1.259 . S
Co243 O244 2.061 . S
Co243 O249 2.052 . S
Co243 O251 2.135 . S
O244 Co243 2.061 . S
O244 C247 1.235 . S
C245 O248 1.238 . S
C245 O249 1.241 . S
C246 O239 1.247 . S
C246 O240 1.261 . S
C247 O242 1.259 . S
C247 O244 1.235 . S
O248 Co238 2.021 . S
O248 C245 1.238 . S
O249 Co243 2.052 . S
O249 C245 1.241 . S
O250 Co238 2.137 . S
O250 C241 1.247 . S
O251 Co238 2.244 . S
O251 C241 1.272 . S
O251 Co243 2.135 . S
Co252 O253 2.216 . S
Co252 O254 2.091 . S
Co252 O256 2.004 . S
Co252 O262 2.021 . S
Co252 O264 2.137 . S
Co252 O265 2.244 . S
O253 Co252 2.216 . S
O253 C260 1.247 . S
O254 Co252 2.091 . S
O254 C260 1.261 . S
C255 O264 1.247 . S
C255 O265 1.272 . S
O256 Co252 2.004 . S
O256 C261 1.259 . S
Co257 O258 2.061 . S
Co257 O263 2.052 . S
Co257 O265 2.135 . S
O258 Co257 2.061 . S
O258 C261 1.235 . S
C259 O262 1.238 . S
C259 O263 1.241 . S
C260 O253 1.247 . S
C260 O254 1.261 . S
C261 O256 1.259 . S
C261 O258 1.235 . S
O262 Co252 2.021 . S
O262 C259 1.238 . S
O263 Co257 2.052 . S
O263 C259 1.241 . S
O264 Co252 2.137 . S
O264 C255 1.247 . S
O265 Co252 2.244 . S
O265 C255 1.272 . S
O265 Co257 2.135 . S
Co266 O267 2.216 . S
Co266 O268 2.091 . S
Co266 O270 2.004 . S
Co266 O276 2.021 . S
Co266 O278 2.137 . S
Co266 O279 2.244 . S
O267 Co266 2.216 . S
O267 C274 1.247 . S
O268 Co266 2.091 . S
O268 C274 1.261 . S
C269 O278 1.247 . S
C269 O279 1.272 . S
O270 Co266 2.004 . S
O270 C275 1.259 . S
Co271 O272 2.061 . S
Co271 O277 2.052 . S
Co271 O279 2.135 . S
O272 Co271 2.061 . S
O272 C275 1.235 . S
C273 O276 1.238 . S
C273 O277 1.241 . S
C274 O267 1.247 . S
C274 O268 1.261 . S
C275 O270 1.259 . S
C275 O272 1.235 . S
O276 Co266 2.021 . S
O276 C273 1.238 . S
O277 Co271 2.052 . S
O277 C273 1.241 . S
O278 Co266 2.137 . S
O278 C269 1.247 . S
O279 Co266 2.244 . S
O279 C269 1.272 . S
O279 Co271 2.135 . S
Co280 O281 2.216 . S
Co280 O282 2.091 . S
Co280 O284 2.004 . S
Co280 O290 2.021 . S
Co280 O292 2.137 . S
Co280 O293 2.244 . S
O281 Co280 2.216 . S
O281 C288 1.247 . S
O282 Co280 2.091 . S
O282 C288 1.261 . S
C283 O292 1.247 . S
C283 O293 1.272 . S
O284 Co280 2.004 . S
O284 C289 1.259 . S
Co285 O286 2.061 . S
Co285 O291 2.052 . S
Co285 O293 2.135 . S
O286 Co285 2.061 . S
O286 C289 1.235 . S
C287 O290 1.238 . S
C287 O291 1.241 . S
C288 O281 1.247 . S
C288 O282 1.261 . S
C289 O284 1.259 . S
C289 O286 1.235 . S
O290 Co280 2.021 . S
O290 C287 1.238 . S
O291 Co285 2.052 . S
O291 C287 1.241 . S
O292 Co280 2.137 . S
O292 C283 1.247 . S
O293 Co280 2.244 . S
O293 C283 1.272 . S
O293 Co285 2.135 . S
Co294 O295 2.216 . S
Co294 O296 2.091 . S
Co294 O298 2.004 1_545 S
Co294 O304 2.021 . S
Co294 O306 2.137 1_545 S
Co294 O307 2.244 1_545 S
O295 Co294 2.216 . S
O295 C302 1.247 . S
O296 Co294 2.091 . S
O296 C302 1.261 . S
C297 O306 1.247 . S
C297 O307 1.272 . S
O298 Co294 2.004 1_565 S
O298 C303 1.259 . S
Co299 O300 2.061 . S
Co299 O305 2.052 . S
Co299 O307 2.135 . S
O300 Co299 2.061 . S
O300 C303 1.235 . S
C301 O304 1.238 . S
C301 O305 1.241 1_545 S
C302 O295 1.247 . S
C302 O296 1.261 . S
C303 O298 1.259 . S
C303 O300 1.235 . S
O304 Co294 2.021 . S
O304 C301 1.238 . S
O305 Co299 2.052 . S
O305 C301 1.241 1_565 S
O306 Co294 2.137 1_565 S
O306 C297 1.247 . S
O307 Co294 2.244 1_565 S
O307 C297 1.272 . S
O307 Co299 2.135 . S
Co308 O309 2.216 . S
Co308 O310 2.091 . S
Co308 O312 2.004 . S
Co308 O318 2.021 . S
Co308 O320 2.137 . S
Co308 O321 2.244 . S
O309 Co308 2.216 . S
O309 C316 1.247 . S
O310 Co308 2.091 . S
O310 C316 1.261 . S
C311 O320 1.247 . S
C311 O321 1.272 . S
O312 Co308 2.004 . S
O312 C317 1.259 . S
Co313 O314 2.061 . S
Co313 O319 2.052 . S
Co313 O321 2.135 . S
O314 Co313 2.061 . S
O314 C317 1.235 . S
C315 O318 1.238 . S
C315 O319 1.241 . S
C316 O309 1.247 . S
C316 O310 1.261 . S
C317 O312 1.259 . S
C317 O314 1.235 . S
O318 Co308 2.021 . S
O318 C315 1.238 . S
O319 Co313 2.052 . S
O319 C315 1.241 . S
O320 Co308 2.137 . S
O320 C311 1.247 . S
O321 Co308 2.244 . S
O321 C311 1.272 . S
O321 Co313 2.135 . S
Co322 O323 2.216 . S
Co322 O324 2.091 . S
Co322 O326 2.004 . S
Co322 O332 2.021 . S
Co322 O334 2.137 . S
Co322 O335 2.244 . S
O323 Co322 2.216 . S
O323 C330 1.247 . S
O324 Co322 2.091 . S
O324 C330 1.261 . S
C325 O334 1.247 . S
C325 O335 1.272 . S
O326 Co322 2.004 . S
O326 C331 1.259 . S
Co327 O328 2.061 . S
Co327 O333 2.052 . S
Co327 O335 2.135 . S
O328 Co327 2.061 . S
O328 C331 1.235 . S
C329 O332 1.238 . S
C329 O333 1.241 . S
C330 O323 1.247 . S
C330 O324 1.261 . S
C331 O326 1.259 . S
C331 O328 1.235 . S
O332 Co322 2.021 . S
O332 C329 1.238 . S
O333 Co327 2.052 . S
O333 C329 1.241 . S
O334 Co322 2.137 . S
O334 C325 1.247 . S
O335 Co322 2.244 . S
O335 C325 1.272 . S
O335 Co327 2.135 . S
Co336 O337 2.216 1_545 S
Co336 O338 2.091 . S
Co336 O340 2.004 . S
Co336 O346 2.021 1_545 S
Co336 O348 2.137 . S
Co336 O349 2.244 1_545 S
O337 Co336 2.216 1_565 S
O337 C344 1.247 1_565 S
O338 Co336 2.091 . S
O338 C344 1.261 . S
C339 O348 1.241 1_565 S
C339 O349 1.276 . S
O340 Co336 2.004 . S
O340 C345 1.259 . S
Co341 O342 2.061 . S
Co341 O347 2.052 . S
Co341 O349 2.135 . S
O342 Co341 2.061 . S
O342 C345 1.235 1_565 S
C343 O346 1.238 . S
C343 O347 1.241 . S
C344 O337 1.247 1_545 S
C344 O338 1.261 . S
C345 O340 1.259 . S
C345 O342 1.235 1_545 S
O346 Co336 2.021 1_565 S
O346 C343 1.238 . S
O347 Co341 2.052 . S
O347 C343 1.241 . S
O348 Co336 2.137 . S
O348 C339 1.241 1_545 S
O349 Co336 2.244 1_565 S
O349 C339 1.276 . S
O349 Co341 2.135 . S
Co350 O351 2.216 . S
Co350 O352 2.091 . S
Co350 O354 2.004 . S
Co350 O360 2.021 . S
Co350 O362 2.137 . S
Co350 O363 2.244 . S
O351 Co350 2.216 . S
O351 C358 1.247 . S
O352 Co350 2.091 . S
O352 C358 1.261 . S
C353 O362 1.247 . S
C353 O363 1.272 . S
O354 Co350 2.004 . S
O354 C359 1.259 . S
Co355 O356 2.061 . S
Co355 O361 2.052 . S
Co355 O363 2.135 . S
O356 Co355 2.061 . S
O356 C359 1.235 . S
C357 O360 1.238 . S
C357 O361 1.241 . S
C358 O351 1.247 . S
C358 O352 1.261 . S
C359 O354 1.259 . S
C359 O356 1.235 . S
O360 Co350 2.021 . S
O360 C357 1.238 . S
O361 Co355 2.052 . S
O361 C357 1.241 . S
O362 Co350 2.137 . S
O362 C353 1.247 . S
O363 Co350 2.244 . S
O363 C353 1.272 . S
O363 Co355 2.135 . S
Co364 O365 2.216 . S
Co364 O366 2.091 . S
Co364 O368 2.004 . S
Co364 O374 2.021 . S
Co364 O376 2.137 . S
Co364 O377 2.244 . S
O365 Co364 2.216 . S
O365 C372 1.247 . S
O366 Co364 2.091 . S
O366 C372 1.261 . S
C367 O376 1.247 . S
C367 O377 1.272 . S
O368 Co364 2.004 . S
O368 C373 1.259 . S
Co369 O370 2.061 . S
Co369 O375 2.052 . S
Co369 O377 2.135 . S
O370 Co369 2.061 . S
O370 C373 1.235 . S
C371 O374 1.238 . S
C371 O375 1.241 . S
C372 O365 1.247 . S
C372 O366 1.261 . S
C373 O368 1.259 . S
C373 O370 1.235 . S
O374 Co364 2.021 . S
O374 C371 1.238 . S
O375 Co369 2.052 . S
O375 C371 1.241 . S
O376 Co364 2.137 . S
O376 C367 1.247 . S
O377 Co364 2.244 . S
O377 C367 1.272 . S
O377 Co369 2.135 . S
Co378 O379 2.216 . S
Co378 O380 2.091 . S
Co378 O382 2.004 . S
Co378 O388 2.021 . S
Co378 O390 2.137 . S
Co378 O391 2.244 . S
O379 Co378 2.216 . S
O379 C386 1.247 . S
O380 Co378 2.091 . S
O380 C386 1.261 . S
C381 O390 1.247 . S
C381 O391 1.272 . S
O382 Co378 2.004 . S
O382 C387 1.259 . S
Co383 O384 2.061 . S
Co383 O389 2.052 . S
Co383 O391 2.135 . S
O384 Co383 2.061 . S
O384 C387 1.235 . S
C385 O388 1.238 . S
C385 O389 1.241 . S
C386 O379 1.247 . S
C386 O380 1.261 . S
C387 O382 1.259 . S
C387 O384 1.235 . S
O388 Co378 2.021 . S
O388 C385 1.238 . S
O389 Co383 2.052 . S
O389 C385 1.241 . S
O390 Co378 2.137 . S
O390 C381 1.247 . S
O391 Co378 2.244 . S
O391 C381 1.272 . S
O391 Co383 2.135 . S
Co392 O393 2.216 . S
Co392 O394 2.091 . S
Co392 O396 2.004 . S
Co392 O402 2.021 1_554 S
Co392 O404 2.137 . S
Co392 O405 2.244 1_554 S
O393 Co392 2.216 . S
O393 C400 1.247 . S
O394 Co392 2.091 . S
O394 C400 1.261 . S
C395 O404 1.247 1_556 S
C395 O405 1.272 . S
O396 Co392 2.004 . S
O396 C401 1.259 1_554 S
Co397 O398 2.061 . S
Co397 O403 2.052 . S
Co397 O405 2.135 . S
O398 Co397 2.061 . S
O398 C401 1.235 . S
C399 O402 1.238 . S
C399 O403 1.241 . S
C400 O393 1.247 . S
C400 O394 1.261 . S
C401 O396 1.259 1_556 S
C401 O398 1.235 . S
O402 Co392 2.021 1_556 S
O402 C399 1.238 . S
O403 Co397 2.052 . S
O403 C399 1.241 . S
O404 Co392 2.137 . S
O404 C395 1.247 1_554 S
O405 Co392 2.244 1_556 S
O405 C395 1.272 . S
O405 Co397 2.135 . S
Co406 O407 2.216 . S
Co406 O408 2.091 . S
Co406 O410 2.004 . S
Co406 O416 2.021 . S
Co406 O418 2.137 . S
Co406 O419 2.244 . S
O407 Co406 2.216 . S
O407 C414 1.247 . S
O408 Co406 2.091 . S
O408 C414 1.261 . S
C409 O418 1.247 . S
C409 O419 1.272 . S
O410 Co406 2.004 . S
O410 C415 1.259 . S
Co411 O412 2.061 . S
Co411 O417 2.052 . S
Co411 O419 2.135 . S
O412 Co411 2.061 . S
O412 C415 1.235 . S
C413 O416 1.238 . S
C413 O417 1.241 . S
C414 O407 1.247 . S
C414 O408 1.261 . S
C415 O410 1.259 . S
C415 O412 1.235 . S
O416 Co406 2.021 . S
O416 C413 1.238 . S
O417 Co411 2.052 . S
O417 C413 1.241 . S
O418 Co406 2.137 . S
O418 C409 1.247 . S
O419 Co406 2.244 . S
O419 C409 1.272 . S
O419 Co411 2.135 . S
Co420 O421 2.216 . S
Co420 O422 2.091 . S
Co420 O424 2.004 1_565 S
Co420 O430 2.021 . S
Co420 O432 2.137 1_565 S
Co420 O433 2.244 1_565 S
O421 Co420 2.216 . S
O421 C428 1.247 . S
O422 Co420 2.091 . S
O422 C428 1.261 . S
C423 O432 1.247 . S
C423 O433 1.272 . S
O424 Co420 2.004 1_545 S
O424 C429 1.259 . S
Co425 O426 2.061 . S
Co425 O431 2.052 . S
Co425 O433 2.135 . S
O426 Co425 2.061 . S
O426 C429 1.235 . S
C427 O430 1.238 . S
C427 O431 1.241 1_565 S
C428 O421 1.247 . S
C428 O422 1.261 . S
C429 O424 1.259 . S
C429 O426 1.235 . S
O430 Co420 2.021 . S
O430 C427 1.238 . S
O431 Co425 2.052 . S
O431 C427 1.241 1_545 S
O432 Co420 2.137 1_545 S
O432 C423 1.247 . S
O433 Co420 2.244 1_545 S
O433 C423 1.272 . S
O433 Co425 2.135 . S
Co434 O435 2.216 . S
Co434 O436 2.091 . S
Co434 O438 2.004 . S
Co434 O444 2.021 . S
Co434 O446 2.137 . S
Co434 O447 2.244 . S
O435 Co434 2.216 . S
O435 C442 1.247 . S
O436 Co434 2.091 . S
O436 C442 1.261 . S
C437 O446 1.247 . S
C437 O447 1.272 . S
O438 Co434 2.004 . S
O438 C443 1.259 . S
Co439 O440 2.061 . S
Co439 O445 2.052 . S
Co439 O447 2.135 . S
O440 Co439 2.061 . S
O440 C443 1.235 . S
C441 O444 1.238 . S
C441 O445 1.241 . S
C442 O435 1.247 . S
C442 O436 1.261 . S
C443 O438 1.259 . S
C443 O440 1.235 . S
O444 Co434 2.021 . S
O444 C441 1.238 . S
O445 Co439 2.052 . S
O445 C441 1.241 . S
O446 Co434 2.137 . S
O446 C437 1.247 . S
O447 Co434 2.244 . S
O447 C437 1.272 . S
O447 Co439 2.135 . S
Co448 O449 2.216 . S
Co448 O450 2.091 . S
Co448 O452 2.004 . S
Co448 O458 2.021 . S
Co448 O460 2.137 . S
Co448 O461 2.244 . S
O449 Co448 2.216 . S
O449 C456 1.247 . S
O450 Co448 2.091 . S
O450 C456 1.261 . S
C451 O460 1.247 . S
C451 O461 1.272 . S
O452 Co448 2.004 . S
O452 C457 1.259 . S
Co453 O454 2.061 . S
Co453 O459 2.052 . S
Co453 O461 2.135 . S
O454 Co453 2.061 . S
O454 C457 1.235 . S
C455 O458 1.238 . S
C455 O459 1.241 . S
C456 O449 1.247 . S
C456 O450 1.261 . S
C457 O452 1.259 . S
C457 O454 1.235 . S
O458 Co448 2.021 . S
O458 C455 1.238 . S
O459 Co453 2.052 . S
O459 C455 1.241 . S
O460 Co448 2.137 . S
O460 C451 1.247 . S
O461 Co448 2.244 . S
O461 C451 1.272 . S
O461 Co453 2.135 . S
Co462 O463 2.216 . S
Co462 O464 2.091 . S
Co462 O466 2.004 1_655 S
Co462 O472 2.021 1_655 S
Co462 O474 2.137 . S
Co462 O475 2.244 . S
O463 Co462 2.216 . S
O463 C470 1.247 . S
O464 Co462 2.091 . S
O464 C470 1.261 . S
C465 O474 1.247 . S
C465 O475 1.272 . S
O466 Co462 2.004 1_455 S
O466 C471 1.259 . S
Co467 O468 2.061 . S
Co467 O473 2.052 . S
Co467 O475 2.135 1_455 S
O468 Co467 2.061 . S
O468 C471 1.235 . S
C469 O472 1.238 . S
C469 O473 1.241 . S
C470 O463 1.247 . S
C470 O464 1.261 . S
C471 O466 1.259 . S
C471 O468 1.235 . S
O472 Co462 2.021 1_455 S
O472 C469 1.238 . S
O473 Co467 2.052 . S
O473 C469 1.241 . S
O474 Co462 2.137 . S
O474 C465 1.247 . S
O475 Co462 2.244 . S
O475 C465 1.272 . S
O475 Co467 2.135 1_655 S
Co476 O477 2.216 . S
Co476 O478 2.091 . S
Co476 O480 2.004 . S
Co476 O486 2.021 . S
Co476 O488 2.137 . S
Co476 O489 2.244 . S
O477 Co476 2.216 . S
O477 C484 1.247 . S
O478 Co476 2.091 . S
O478 C484 1.261 . S
C479 O488 1.247 . S
C479 O489 1.272 . S
O480 Co476 2.004 . S
O480 C485 1.259 . S
Co481 O482 2.061 . S
Co481 O487 2.052 . S
Co481 O489 2.135 . S
O482 Co481 2.061 . S
O482 C485 1.235 . S
C483 O486 1.238 . S
C483 O487 1.241 . S
C484 O477 1.247 . S
C484 O478 1.261 . S
C485 O480 1.259 . S
C485 O482 1.235 . S
O486 Co476 2.021 . S
O486 C483 1.238 . S
O487 Co481 2.052 . S
O487 C483 1.241 . S
O488 Co476 2.137 . S
O488 C479 1.247 . S
O489 Co476 2.244 . S
O489 C479 1.272 . S
O489 Co481 2.135 . S
Co490 O491 2.216 . S
Co490 O492 2.091 . S
Co490 O494 2.004 1_655 S
Co490 O500 2.021 1_655 S
Co490 O502 2.137 . S
Co490 O503 2.244 . S
O491 Co490 2.216 . S
O491 C498 1.247 . S
O492 Co490 2.091 . S
O492 C498 1.261 . S
C493 O502 1.247 . S
C493 O503 1.272 . S
O494 Co490 2.004 1_455 S
O494 C499 1.259 . S
Co495 O496 2.061 . S
Co495 O501 2.052 . S
Co495 O503 2.135 1_455 S
O496 Co495 2.061 . S
O496 C499 1.235 . S
C497 O500 1.238 . S
C497 O501 1.241 . S
C498 O491 1.247 . S
C498 O492 1.261 . S
C499 O494 1.259 . S
C499 O496 1.235 . S
O500 Co490 2.021 1_455 S
O500 C497 1.238 . S
O501 Co495 2.052 . S
O501 C497 1.241 . S
O502 Co490 2.137 . S
O502 C493 1.247 . S
O503 Co490 2.244 . S
O503 C493 1.272 . S
O503 Co495 2.135 1_655 S
Co504 O505 2.216 . S
Co504 O506 2.091 . S
Co504 O508 2.004 . S
Co504 O514 2.021 . S
Co504 O516 2.137 . S
Co504 O517 2.244 . S
O505 Co504 2.216 . S
O505 C512 1.247 . S
O506 Co504 2.091 . S
O506 C512 1.261 . S
C507 O516 1.247 . S
C507 O517 1.272 . S
O508 Co504 2.004 . S
O508 C513 1.259 . S
Co509 O510 2.061 . S
Co509 O515 2.052 . S
Co509 O517 2.135 . S
O510 Co509 2.061 . S
O510 C513 1.235 . S
C511 O514 1.238 . S
C511 O515 1.241 . S
C512 O505 1.247 . S
C512 O506 1.261 . S
C513 O508 1.259 . S
C513 O510 1.235 . S
O514 Co504 2.021 . S
O514 C511 1.238 . S
O515 Co509 2.052 . S
O515 C511 1.241 . S
O516 Co504 2.137 . S
O516 C507 1.247 . S
O517 Co504 2.244 . S
O517 C507 1.272 . S
O517 Co509 2.135 . S
Co518 O519 2.216 . S
Co518 O520 2.091 . S
Co518 O522 2.004 . S
Co518 O528 2.021 . S
Co518 O530 2.137 . S
Co518 O531 2.244 . S
O519 Co518 2.216 . S
O519 C526 1.247 . S
O520 Co518 2.091 . S
O520 C526 1.261 . S
C521 O530 1.247 . S
C521 O531 1.272 . S
O522 Co518 2.004 . S
O522 C527 1.259 . S
Co523 O524 2.061 . S
Co523 O529 2.052 . S
Co523 O531 2.135 . S
O524 Co523 2.061 . S
O524 C527 1.235 . S
C525 O528 1.238 . S
C525 O529 1.241 . S
C526 O519 1.247 . S
C526 O520 1.261 . S
C527 O522 1.259 . S
C527 O524 1.235 . S
O528 Co518 2.021 . S
O528 C525 1.238 . S
O529 Co523 2.052 . S
O529 C525 1.241 . S
O530 Co518 2.137 . S
O530 C521 1.247 . S
O531 Co518 2.244 . S
O531 C521 1.272 . S
O531 Co523 2.135 . S
Co532 O533 2.216 . S
Co532 O534 2.091 . S
Co532 O536 2.004 . S
Co532 O542 2.021 . S
Co532 O544 2.137 . S
Co532 O545 2.244 . S
O533 Co532 2.216 . S
O533 C540 1.247 . S
O534 Co532 2.091 . S
O534 C540 1.261 . S
C535 O544 1.247 . S
C535 O545 1.272 . S
O536 Co532 2.004 . S
O536 C541 1.259 . S
Co537 O538 2.061 . S
Co537 O543 2.052 . S
Co537 O545 2.135 . S
O538 Co537 2.061 . S
O538 C541 1.235 . S
C539 O542 1.238 . S
C539 O543 1.241 . S
C540 O533 1.247 . S
C540 O534 1.261 . S
C541 O536 1.259 . S
C541 O538 1.235 . S
O542 Co532 2.021 . S
O542 C539 1.238 . S
O543 Co537 2.052 . S
O543 C539 1.241 . S
O544 Co532 2.137 . S
O544 C535 1.247 . S
O545 Co532 2.244 . S
O545 C535 1.272 . S
O545 Co537 2.135 . S
Co546 O547 2.216 . S
Co546 O548 2.091 . S
Co546 O550 2.004 . S
Co546 O556 2.021 . S
Co546 O558 2.137 . S
Co546 O559 2.244 . S
O547 Co546 2.216 . S
O547 C554 1.247 . S
O548 Co546 2.091 . S
O548 C554 1.261 . S
C549 O558 1.247 . S
C549 O559 1.272 . S
O550 Co546 2.004 . S
O550 C555 1.259 . S
Co551 O552 2.061 . S
Co551 O557 2.052 . S
Co551 O559 2.135 . S
O552 Co551 2.061 . S
O552 C555 1.235 . S
C553 O556 1.238 . S
C553 O557 1.241 . S
C554 O547 1.247 . S
C554 O548 1.261 . S
C555 O550 1.259 . S
C555 O552 1.235 . S
O556 Co546 2.021 . S
O556 C553 1.238 . S
O557 Co551 2.052 . S
O557 C553 1.241 . S
O558 Co546 2.137 . S
O558 C549 1.247 . S
O559 Co546 2.244 . S
O559 C549 1.272 . S
O559 Co551 2.135 . S
Co560 O561 2.216 1_565 S
Co560 O562 2.091 . S
Co560 O564 2.004 . S
Co560 O570 2.021 1_565 S
Co560 O572 2.137 . S
Co560 O573 2.244 1_565 S
O561 Co560 2.216 1_545 S
O561 C568 1.247 1_545 S
O562 Co560 2.091 . S
O562 C568 1.261 . S
C563 O572 1.247 . S
C563 O573 1.272 1_565 S
O564 Co560 2.004 . S
O564 C569 1.259 . S
Co565 O566 2.061 1_545 S
Co565 O571 2.052 . S
Co565 O573 2.135 . S
O566 Co565 2.061 1_565 S
O566 C569 1.235 . S
C567 O570 1.238 . S
C567 O571 1.241 . S
C568 O561 1.247 1_565 S
C568 O562 1.261 . S
C569 O564 1.259 . S
C569 O566 1.235 . S
O570 Co560 2.021 1_545 S
O570 C567 1.238 . S
O571 Co565 2.052 . S
O571 C567 1.241 . S
O572 Co560 2.137 . S
O572 C563 1.247 . S
O573 Co560 2.244 1_545 S
O573 C563 1.272 1_545 S
O573 Co565 2.135 . S
Co574 O575 2.216 . S
Co574 O576 2.091 . S
Co574 O578 2.004 . S
Co574 O584 2.021 1_556 S
Co574 O586 2.137 . S
Co574 O587 2.244 1_556 S
O575 Co574 2.216 . S
O575 C582 1.247 . S
O576 Co574 2.091 . S
O576 C582 1.261 . S
C577 O586 1.230 1_554 S
C577 O587 1.286 . S
O578 Co574 2.004 . S
O578 C583 1.259 1_556 S
Co579 O580 2.061 . S
Co579 O585 2.052 . S
Co579 O587 2.135 . S
O580 Co579 2.061 . S
O580 C583 1.235 . S
C581 O584 1.238 . S
C581 O585 1.241 . S
C582 O575 1.247 . S
C582 O576 1.261 . S
C583 O578 1.259 1_554 S
C583 O580 1.235 . S
O584 Co574 2.021 1_554 S
O584 C581 1.238 . S
O585 Co579 2.052 . S
O585 C581 1.241 . S
O586 Co574 2.137 . S
O586 C577 1.230 1_556 S
O587 Co574 2.244 1_554 S
O587 C577 1.286 . S
O587 Co579 2.135 . S
Co588 O589 2.216 . S
Co588 O590 2.091 . S
Co588 O592 2.004 . S
Co588 O598 2.021 . S
Co588 O600 2.137 . S
Co588 O601 2.244 . S
O589 Co588 2.216 . S
O589 C596 1.247 . S
O590 Co588 2.091 . S
O590 C596 1.261 . S
C591 O600 1.247 . S
C591 O601 1.272 . S
O592 Co588 2.004 . S
O592 C597 1.259 . S
Co593 O594 2.061 . S
Co593 O599 2.052 . S
Co593 O601 2.135 . S
O594 Co593 2.061 . S
O594 C597 1.235 . S
C595 O598 1.238 . S
C595 O599 1.241 . S
C596 O589 1.247 . S
C596 O590 1.261 . S
C597 O592 1.259 . S
C597 O594 1.235 . S
O598 Co588 2.021 . S
O598 C595 1.238 . S
O599 Co593 2.052 . S
O599 C595 1.241 . S
O600 Co588 2.137 . S
O600 C591 1.247 . S
O601 Co588 2.244 . S
O601 C591 1.272 . S
O601 Co593 2.135 . S
Co602 O603 2.216 . S
Co602 O604 2.091 . S
Co602 O606 2.004 1_455 S
Co602 O612 2.021 1_455 S
Co602 O614 2.137 . S
Co602 O615 2.244 . S
O603 Co602 2.216 . S
O603 C610 1.247 . S
O604 Co602 2.091 . S
O604 C610 1.261 . S
C605 O614 1.247 . S
C605 O615 1.272 . S
O606 Co602 2.004 1_655 S
O606 C611 1.259 . S
Co607 O608 2.061 . S
Co607 O613 2.052 . S
Co607 O615 2.135 1_655 S
O608 Co607 2.061 . S
O608 C611 1.235 . S
C609 O612 1.238 . S
C609 O613 1.241 . S
C610 O603 1.247 . S
C610 O604 1.261 . S
C611 O606 1.259 . S
C611 O608 1.235 . S
O612 Co602 2.021 1_655 S
O612 C609 1.238 . S
O613 Co607 2.052 . S
O613 C609 1.241 . S
O614 Co602 2.137 . S
O614 C605 1.247 . S
O615 Co602 2.244 . S
O615 C605 1.272 . S
O615 Co607 2.135 1_455 S
Co616 O617 2.216 1_545 S
Co616 O618 2.091 . S
Co616 O620 2.004 . S
Co616 O626 2.021 1_545 S
Co616 O628 2.137 . S
Co616 O629 2.244 1_545 S
O617 Co616 2.216 1_565 S
O617 C624 1.247 1_565 S
O618 Co616 2.091 . S
O618 C624 1.261 . S
C619 O628 1.247 . S
C619 O629 1.272 1_545 S
O620 Co616 2.004 . S
O620 C625 1.259 . S
Co621 O622 2.061 1_565 S
Co621 O627 2.052 . S
Co621 O629 2.135 . S
O622 Co621 2.061 1_545 S
O622 C625 1.235 . S
C623 O626 1.238 . S
C623 O627 1.241 . S
C624 O617 1.247 1_545 S
C624 O618 1.261 . S
C625 O620 1.259 . S
C625 O622 1.235 . S
O626 Co616 2.021 1_565 S
O626 C623 1.238 . S
O627 Co621 2.052 . S
O627 C623 1.241 . S
O628 Co616 2.137 . S
O628 C619 1.247 . S
O629 Co616 2.244 1_565 S
O629 C619 1.272 1_565 S
O629 Co621 2.135 . S
Co630 O631 2.216 . S
Co630 O632 2.091 . S
Co630 O634 2.004 . S
Co630 O640 2.021 1_556 S
Co630 O642 2.137 . S
Co630 O643 2.244 1_556 S
O631 Co630 2.216 . S
O631 C638 1.247 . S
O632 Co630 2.091 . S
O632 C638 1.261 . S
C633 O642 1.230 1_554 S
C633 O643 1.286 . S
O634 Co630 2.004 . S
O634 C639 1.259 1_556 S
Co635 O636 2.061 . S
Co635 O641 2.052 . S
Co635 O643 2.135 . S
O636 Co635 2.061 . S
O636 C639 1.235 . S
C637 O640 1.238 . S
C637 O641 1.241 . S
C638 O631 1.247 . S
C638 O632 1.261 . S
C639 O634 1.259 1_554 S
C639 O636 1.235 . S
O640 Co630 2.021 1_554 S
O640 C637 1.238 . S
O641 Co635 2.052 . S
O641 C637 1.241 . S
O642 Co630 2.137 . S
O642 C633 1.230 1_556 S
O643 Co630 2.244 1_554 S
O643 C633 1.286 . S
O643 Co635 2.135 . S
Co644 O645 2.216 . S
Co644 O646 2.091 . S
Co644 O648 2.004 . S
Co644 O654 2.021 . S
Co644 O656 2.137 . S
Co644 O657 2.244 . S
O645 Co644 2.216 . S
O645 C652 1.247 . S
O646 Co644 2.091 . S
O646 C652 1.261 . S
C647 O656 1.247 . S
C647 O657 1.272 . S
O648 Co644 2.004 . S
O648 C653 1.259 . S
Co649 O650 2.061 . S
Co649 O655 2.052 . S
Co649 O657 2.135 . S
O650 Co649 2.061 . S
O650 C653 1.235 . S
C651 O654 1.238 . S
C651 O655 1.241 . S
C652 O645 1.247 . S
C652 O646 1.261 . S
C653 O648 1.259 . S
C653 O650 1.235 . S
O654 Co644 2.021 . S
O654 C651 1.238 . S
O655 Co649 2.052 . S
O655 C651 1.241 . S
O656 Co644 2.137 . S
O656 C647 1.247 . S
O657 Co644 2.244 . S
O657 C647 1.272 . S
O657 Co649 2.135 . S
Co658 O659 2.216 . S
Co658 O660 2.091 . S
Co658 O662 2.004 . S
Co658 O668 2.021 . S
Co658 O670 2.137 . S
Co658 O671 2.244 . S
O659 Co658 2.216 . S
O659 C666 1.247 . S
O660 Co658 2.091 . S
O660 C666 1.261 . S
C661 O670 1.247 . S
C661 O671 1.272 . S
O662 Co658 2.004 . S
O662 C667 1.259 . S
Co663 O664 2.061 . S
Co663 O669 2.052 . S
Co663 O671 2.135 . S
O664 Co663 2.061 . S
O664 C667 1.235 . S
C665 O668 1.238 . S
C665 O669 1.241 . S
C666 O659 1.247 . S
C666 O660 1.261 . S
C667 O662 1.259 . S
C667 O664 1.235 . S
O668 Co658 2.021 . S
O668 C665 1.238 . S
O669 Co663 2.052 . S
O669 C665 1.241 . S
O670 Co658 2.137 . S
O670 C661 1.247 . S
O671 Co658 2.244 . S
O671 C661 1.272 . S
O671 Co663 2.135 . S
C672 C673 1.363 . S
C672 C678 1.379 . S
C672 N680 1.356 . S
C673 C672 1.363 . S
C673 C679 1.363 . S
C674 C675 1.363 . S
C674 C679 1.379 . S
C674 N681 1.356 . S
C675 C674 1.363 . S
C675 C678 1.363 . S
N676 C678 1.356 . S
N676 H688 0.984 . S
N676 H689 0.985 . S
N677 C679 1.356 . S
N677 H682 0.984 . S
N677 H683 0.985 . S
C678 C672 1.379 . S
C678 C675 1.363 . S
C678 N676 1.356 . S
C679 C673 1.363 . S
C679 C674 1.379 . S
C679 N677 1.356 . S
N680 C672 1.356 . S
N680 H686 0.984 . S
N680 H687 0.984 . S
N681 C674 1.356 . S
N681 H684 0.984 . S
N681 H685 0.985 . S
H682 N677 0.984 . S
H683 N677 0.985 . S
H684 N681 0.984 . S
H685 N681 0.985 . S
H686 N680 0.984 . S
H687 N680 0.984 . S
H688 N676 0.984 . S
H689 N676 0.985 . S
C690 C691 1.363 . S
C690 C696 1.379 . S
C690 N698 1.356 . S
C691 C690 1.363 . S
C691 C697 1.363 . S
C692 C693 1.363 . S
C692 C697 1.379 . S
C692 N699 1.356 . S
C693 C692 1.363 . S
C693 C696 1.363 . S
N694 C696 1.356 . S
N694 H706 0.984 . S
N694 H707 0.985 . S
N695 C697 1.356 . S
N695 H700 0.984 . S
N695 H701 0.985 . S
C696 C690 1.379 . S
C696 C693 1.363 . S
C696 N694 1.356 . S
C697 C691 1.363 . S
C697 C692 1.379 . S
C697 N695 1.356 . S
N698 C690 1.356 . S
N698 H704 0.984 . S
N698 H705 0.984 . S
N699 C692 1.356 . S
N699 H702 0.984 . S
N699 H703 0.985 . S
H700 N695 0.984 . S
H701 N695 0.985 . S
H702 N699 0.984 . S
H703 N699 0.985 . S
H704 N698 0.984 . S
H705 N698 0.984 . S
H706 N694 0.984 . S
H707 N694 0.985 . S
C708 C709 1.363 . S
C708 C714 1.379 . S
C708 N716 1.356 . S
C709 C708 1.363 . S
C709 C715 1.363 . S
C710 C711 1.363 . S
C710 C715 1.379 . S
C710 N717 1.356 . S
C711 C710 1.363 . S
C711 C714 1.363 . S
N712 C714 1.356 . S
N712 H724 0.984 . S
N712 H725 0.985 . S
N713 C715 1.356 . S
N713 H718 0.984 . S
N713 H719 0.985 . S
C714 C708 1.379 . S
C714 C711 1.363 . S
C714 N712 1.356 . S
C715 C709 1.363 . S
C715 C710 1.379 . S
C715 N713 1.356 . S
N716 C708 1.356 . S
N716 H722 0.984 . S
N716 H723 0.984 . S
N717 C710 1.356 . S
N717 H720 0.984 . S
N717 H721 0.985 . S
H718 N713 0.984 . S
H719 N713 0.985 . S
H720 N717 0.984 . S
H721 N717 0.985 . S
H722 N716 0.984 . S
H723 N716 0.984 . S
H724 N712 0.984 . S
H725 N712 0.985 . S
C726 C727 1.363 . S
C726 C732 1.379 . S
C726 N734 1.356 . S
C727 C726 1.363 . S
C727 C733 1.363 . S
C728 C729 1.363 . S
C728 C733 1.379 . S
C728 N735 1.356 1_565 S
C729 C728 1.363 . S
C729 C732 1.363 . S
N730 C732 1.356 . S
N730 H742 0.984 . S
N730 H743 0.985 . S
N731 C733 1.356 1_545 S
N731 H736 0.984 . S
N731 H737 0.985 . S
C732 C726 1.379 . S
C732 C729 1.363 . S
C732 N730 1.356 . S
C733 C727 1.363 . S
C733 C728 1.379 . S
C733 N731 1.356 1_565 S
N734 C726 1.356 . S
N734 H740 0.984 . S
N734 H741 0.984 . S
N735 C728 1.356 1_545 S
N735 H738 0.984 . S
N735 H739 0.985 . S
H736 N731 0.984 . S
H737 N731 0.985 . S
H738 N735 0.984 . S
H739 N735 0.985 . S
H740 N734 0.984 . S
H741 N734 0.984 . S
H742 N730 0.984 . S
H743 N730 0.985 . S
C744 C745 1.363 . S
C744 C750 1.379 . S
C744 N752 1.356 . S
C745 C744 1.363 . S
C745 C751 1.363 . S
C746 C747 1.363 . S
C746 C751 1.379 . S
C746 N753 1.356 . S
C747 C746 1.363 . S
C747 C750 1.363 . S
N748 C750 1.356 . S
N748 H760 0.984 . S
N748 H761 0.985 . S
N749 C751 1.356 . S
N749 H754 0.984 . S
N749 H755 0.985 1_556 S
C750 C744 1.379 . S
C750 C747 1.363 . S
C750 N748 1.356 . S
C751 C745 1.363 . S
C751 C746 1.379 . S
C751 N749 1.356 . S
N752 C744 1.356 . S
N752 H758 0.984 . S
N752 H759 0.984 . S
N753 C746 1.356 . S
N753 H756 0.984 . S
N753 H757 0.994 . S
H754 N749 0.984 . S
H755 N749 0.985 1_554 S
H756 N753 0.984 . S
H757 N753 0.994 . S
H758 N752 0.984 . S
H759 N752 0.984 . S
H760 N748 0.984 . S
H761 N748 0.985 . S
C762 C763 1.363 . S
C762 C768 1.379 . S
C762 N770 1.356 . S
C763 C762 1.363 . S
C763 C769 1.363 . S
C764 C765 1.363 . S
C764 C769 1.379 . S
C764 N771 1.356 . S
C765 C764 1.363 . S
C765 C768 1.363 . S
N766 C768 1.356 . S
N766 H778 0.984 . S
N766 H779 0.985 . S
N767 C769 1.356 . S
N767 H772 0.984 . S
N767 H773 0.985 . S
C768 C762 1.379 . S
C768 C765 1.363 . S
C768 N766 1.356 . S
C769 C763 1.363 . S
C769 C764 1.379 . S
C769 N767 1.356 . S
N770 C762 1.356 . S
N770 H776 0.984 . S
N770 H777 0.984 . S
N771 C764 1.356 . S
N771 H774 0.984 . S
N771 H775 0.985 . S
H772 N767 0.984 . S
H773 N767 0.985 . S
H774 N771 0.984 . S
H775 N771 0.985 . S
H776 N770 0.984 . S
H777 N770 0.984 . S
H778 N766 0.984 . S
H779 N766 0.985 . S
C780 C781 1.363 . S
C780 C786 1.379 . S
C780 N788 1.356 . S
C781 C780 1.363 . S
C781 C787 1.363 . S
C782 C783 1.363 . S
C782 C787 1.379 . S
C782 N789 1.356 1_565 S
C783 C782 1.363 . S
C783 C786 1.363 . S
N784 C786 1.356 . S
N784 H796 0.984 . S
N784 H797 0.985 . S
N785 C787 1.356 1_545 S
N785 H790 0.984 . S
N785 H791 0.985 . S
C786 C780 1.379 . S
C786 C783 1.363 . S
C786 N784 1.356 . S
C787 C781 1.363 . S
C787 C782 1.379 . S
C787 N785 1.356 1_565 S
N788 C780 1.356 . S
N788 H794 0.984 . S
N788 H795 0.984 . S
N789 C782 1.356 1_545 S
N789 H792 0.984 1_545 S
N789 H793 0.985 . S
H790 N785 0.984 . S
H791 N785 0.985 . S
H792 N789 0.984 1_565 S
H793 N789 0.985 . S
H794 N788 0.984 . S
H795 N788 0.984 . S
H796 N784 0.984 . S
H797 N784 0.985 . S
C798 C799 1.363 . S
C798 C804 1.379 . S
C798 N806 1.356 . S
C799 C798 1.363 . S
C799 C805 1.363 . S
C800 C801 1.363 . S
C800 C805 1.379 . S
C800 N807 1.356 . S
C801 C800 1.363 . S
C801 C804 1.363 . S
N802 C804 1.356 . S
N802 H814 0.984 . S
N802 H815 0.985 . S
N803 C805 1.356 . S
N803 H808 0.984 . S
N803 H809 0.985 . S
C804 C798 1.379 . S
C804 C801 1.363 . S
C804 N802 1.356 . S
C805 C799 1.363 . S
C805 C800 1.379 . S
C805 N803 1.356 . S
N806 C798 1.356 . S
N806 H812 0.984 . S
N806 H813 0.984 . S
N807 C800 1.356 . S
N807 H810 0.984 . S
N807 H811 0.985 . S
H808 N803 0.984 . S
H809 N803 0.985 . S
H810 N807 0.984 . S
H811 N807 0.985 . S
H812 N806 0.984 . S
H813 N806 0.984 . S
H814 N802 0.984 . S
H815 N802 0.985 . S
C816 C817 1.363 . S
C816 C822 1.379 . S
C816 N824 1.356 . S
C817 C816 1.363 . S
C817 C823 1.363 . S
C818 C819 1.363 . S
C818 C823 1.379 . S
C818 N825 1.356 . S
C819 C818 1.363 . S
C819 C822 1.363 . S
N820 C822 1.356 . S
N820 H832 0.984 . S
N820 H833 0.985 . S
N821 C823 1.356 . S
N821 H826 0.984 . S
N821 H827 0.985 . S
C822 C816 1.379 . S
C822 C819 1.363 . S
C822 N820 1.356 . S
C823 C817 1.363 . S
C823 C818 1.379 . S
C823 N821 1.356 . S
N824 C816 1.356 . S
N824 H830 0.984 . S
N824 H831 0.984 . S
N825 C818 1.356 . S
N825 H828 0.984 . S
N825 H829 0.985 . S
H826 N821 0.984 . S
H827 N821 0.985 . S
H828 N825 0.984 . S
H829 N825 0.985 . S
H830 N824 0.984 . S
H831 N824 0.984 . S
H832 N820 0.984 . S
H833 N820 0.985 . S
C834 C835 1.363 . S
C834 C840 1.379 . S
C834 N842 1.356 . S
C835 C834 1.363 . S
C835 C841 1.363 . S
C836 C837 1.363 . S
C836 C841 1.379 . S
C836 N843 1.356 . S
C837 C836 1.363 . S
C837 C840 1.363 . S
N838 C840 1.356 . S
N838 H850 0.984 . S
N838 H851 0.985 . S
N839 C841 1.356 . S
N839 H844 0.984 . S
N839 H845 0.985 . S
C840 C834 1.379 . S
C840 C837 1.363 . S
C840 N838 1.356 . S
C841 C835 1.363 . S
C841 C836 1.379 . S
C841 N839 1.356 . S
N842 C834 1.356 . S
N842 H848 0.984 . S
N842 H849 0.984 . S
N843 C836 1.356 . S
N843 H846 0.984 . S
N843 H847 0.985 . S
H844 N839 0.984 . S
H845 N839 0.985 . S
H846 N843 0.984 . S
H847 N843 0.985 . S
H848 N842 0.984 . S
H849 N842 0.984 . S
H850 N838 0.984 . S
H851 N838 0.985 . S
C852 C853 1.363 . S
C852 C858 1.379 . S
C852 N860 1.356 . S
C853 C852 1.363 . S
C853 C859 1.363 . S
C854 C855 1.363 . S
C854 C859 1.379 . S
C854 N861 1.356 . S
C855 C854 1.363 . S
C855 C858 1.363 . S
N856 C858 1.356 . S
N856 H868 0.984 . S
N856 H869 0.985 . S
N857 C859 1.356 . S
N857 H862 0.984 . S
N857 H863 0.985 . S
C858 C852 1.379 . S
C858 C855 1.363 . S
C858 N856 1.356 . S
C859 C853 1.363 . S
C859 C854 1.379 . S
C859 N857 1.356 . S
N860 C852 1.356 . S
N860 H866 0.984 . S
N860 H867 0.984 . S
N861 C854 1.356 . S
N861 H864 0.984 . S
N861 H865 0.985 . S
H862 N857 0.984 . S
H863 N857 0.985 . S
H864 N861 0.984 . S
H865 N861 0.985 . S
H866 N860 0.984 . S
H867 N860 0.984 . S
H868 N856 0.984 . S
H869 N856 0.985 . S
C870 C871 1.363 . S
C870 C876 1.379 . S
C870 N878 1.356 . S
C871 C870 1.363 . S
C871 C877 1.363 . S
C872 C873 1.363 . S
C872 C877 1.379 . S
C872 N879 1.356 . S
C873 C872 1.363 . S
C873 C876 1.363 . S
N874 C876 1.356 . S
N874 H886 0.984 . S
N874 H887 0.985 . S
N875 C877 1.356 . S
N875 H880 0.984 . S
N875 H881 0.985 . S
C876 C870 1.379 . S
C876 C873 1.363 . S
C876 N874 1.356 . S
C877 C871 1.363 . S
C877 C872 1.379 . S
C877 N875 1.356 . S
N878 C870 1.356 . S
N878 H884 0.984 . S
N878 H885 0.984 . S
N879 C872 1.356 . S
N879 H882 0.984 . S
N879 H883 0.985 . S
H880 N875 0.984 . S
H881 N875 0.985 . S
H882 N879 0.984 . S
H883 N879 0.985 . S
H884 N878 0.984 . S
H885 N878 0.984 . S
H886 N874 0.984 . S
H887 N874 0.985 . S
C888 C889 1.363 . S
C888 C894 1.379 . S
C888 N896 1.356 . S
C889 C888 1.363 . S
C889 C895 1.363 . S
C890 C891 1.363 . S
C890 C895 1.379 . S
C890 N897 1.356 . S
C891 C890 1.363 . S
C891 C894 1.363 . S
N892 C894 1.356 . S
N892 H904 0.984 . S
N892 H905 0.985 . S
N893 C895 1.356 . S
N893 H898 0.984 . S
N893 H899 0.985 . S
C894 C888 1.379 . S
C894 C891 1.363 . S
C894 N892 1.356 . S
C895 C889 1.363 . S
C895 C890 1.379 . S
C895 N893 1.356 . S
N896 C888 1.356 . S
N896 H902 0.984 . S
N896 H903 0.984 . S
N897 C890 1.356 . S
N897 H900 0.984 . S
N897 H901 0.985 . S
H898 N893 0.984 . S
H899 N893 0.985 . S
H900 N897 0.984 . S
H901 N897 0.985 . S
H902 N896 0.984 . S
H903 N896 0.984 . S
H904 N892 0.984 . S
H905 N892 0.985 . S
C906 C907 1.363 . S
C906 C912 1.379 . S
C906 N914 1.356 . S
C907 C906 1.363 . S
C907 C913 1.363 . S
C908 C909 1.363 . S
C908 C913 1.379 . S
C908 N915 1.356 . S
C909 C908 1.363 . S
C909 C912 1.363 . S
N910 C912 1.356 . S
N910 H922 0.984 . S
N910 H923 0.985 . S
N911 C913 1.356 . S
N911 H916 0.984 . S
N911 H917 0.985 . S
C912 C906 1.379 . S
C912 C909 1.363 . S
C912 N910 1.356 . S
C913 C907 1.363 . S
C913 C908 1.379 . S
C913 N911 1.356 . S
N914 C906 1.356 . S
N914 H920 0.984 . S
N914 H921 0.984 . S
N915 C908 1.356 . S
N915 H918 0.984 . S
N915 H919 0.985 . S
H916 N911 0.984 . S
H917 N911 0.985 . S
H918 N915 0.984 . S
H919 N915 0.985 . S
H920 N914 0.984 . S
H921 N914 0.984 . S
H922 N910 0.984 . S
H923 N910 0.985 . S
C924 C925 1.363 . S
C924 C930 1.379 . S
C924 N932 1.356 . S
C925 C924 1.363 . S
C925 C931 1.363 . S
C926 C927 1.363 . S
C926 C931 1.379 . S
C926 N933 1.356 . S
C927 C926 1.363 . S
C927 C930 1.363 . S
N928 C930 1.352 1_554 S
N928 H940 0.985 . S
N928 H941 0.988 . S
N929 C931 1.356 . S
N929 H934 0.984 . S
N929 H935 0.985 . S
C930 C924 1.379 . S
C930 C927 1.363 . S
C930 N928 1.352 1_556 S
C931 C925 1.363 . S
C931 C926 1.379 . S
C931 N929 1.356 . S
N932 C924 1.356 . S
N932 H938 0.984 . S
N932 H939 0.984 . S
N933 C926 1.356 . S
N933 H936 0.984 . S
N933 H937 0.985 . S
H934 N929 0.984 . S
H935 N929 0.985 . S
H936 N933 0.984 . S
H937 N933 0.985 . S
H938 N932 0.984 . S
H939 N932 0.984 . S
H940 N928 0.985 . S
H941 N928 0.988 . S
C942 C943 1.363 . S
C942 C948 1.379 . S
C942 N950 1.356 . S
C943 C942 1.363 . S
C943 C949 1.363 . S
C944 C945 1.363 . S
C944 C949 1.379 . S
C944 N951 1.356 . S
C945 C944 1.363 . S
C945 C948 1.363 . S
N946 C948 1.356 . S
N946 H958 0.984 . S
N946 H959 0.985 . S
N947 C949 1.356 . S
N947 H952 0.984 . S
N947 H953 0.985 . S
C948 C942 1.379 . S
C948 C945 1.363 . S
C948 N946 1.356 . S
C949 C943 1.363 . S
C949 C944 1.379 . S
C949 N947 1.356 . S
N950 C942 1.356 . S
N950 H956 0.984 . S
N950 H957 0.984 . S
N951 C944 1.356 . S
N951 H954 0.984 . S
N951 H955 0.985 . S
H952 N947 0.984 . S
H953 N947 0.985 . S
H954 N951 0.984 . S
H955 N951 0.985 . S
H956 N950 0.984 . S
H957 N950 0.984 . S
H958 N946 0.984 . S
H959 N946 0.985 . S
C960 C961 1.363 . S
C960 C966 1.379 . S
C960 N968 1.356 . S
C961 C960 1.363 . S
C961 C967 1.363 . S
C962 C963 1.363 . S
C962 C967 1.379 . S
C962 N969 1.356 . S
C963 C962 1.363 . S
C963 C966 1.363 . S
N964 C966 1.356 . S
N964 H976 0.984 . S
N964 H977 0.985 . S
N965 C967 1.356 . S
N965 H970 0.984 . S
N965 H971 0.985 . S
C966 C960 1.379 . S
C966 C963 1.363 . S
C966 N964 1.356 . S
C967 C961 1.363 . S
C967 C962 1.379 . S
C967 N965 1.356 . S
N968 C960 1.356 . S
N968 H974 0.984 . S
N968 H975 0.984 . S
N969 C962 1.356 . S
N969 H972 0.984 . S
N969 H973 0.985 . S
H970 N965 0.984 . S
H971 N965 0.985 . S
H972 N969 0.984 . S
H973 N969 0.985 . S
H974 N968 0.984 . S
H975 N968 0.984 . S
H976 N964 0.984 . S
H977 N964 0.985 . S
C978 C979 1.363 . S
C978 C984 1.379 . S
C978 N986 1.356 . S
C979 C978 1.363 . S
C979 C985 1.363 . S
C980 C981 1.363 . S
C980 C985 1.379 . S
C980 N987 1.356 . S
C981 C980 1.363 . S
C981 C984 1.363 . S
N982 C984 1.356 . S
N982 H994 0.984 . S
N982 H995 0.985 . S
N983 C985 1.356 . S
N983 H988 0.984 . S
N983 H989 0.985 . S
C984 C978 1.379 . S
C984 C981 1.363 . S
C984 N982 1.356 . S
C985 C979 1.363 . S
C985 C980 1.379 . S
C985 N983 1.356 . S
N986 C978 1.356 . S
N986 H992 0.984 . S
N986 H993 0.984 . S
N987 C980 1.356 . S
N987 H990 0.984 . S
N987 H991 0.985 . S
H988 N983 0.984 . S
H989 N983 0.985 . S
H990 N987 0.984 . S
H991 N987 0.985 . S
H992 N986 0.984 . S
H993 N986 0.984 . S
H994 N982 0.984 . S
H995 N982 0.985 . S
C996 C997 1.363 . S
C996 C1002 1.379 . S
C996 N1004 1.356 . S
C997 C996 1.363 . S
C997 C1003 1.363 . S
C998 C999 1.363 . S
C998 C1003 1.379 . S
C998 N1005 1.356 . S
C999 C998 1.363 . S
C999 C1002 1.363 . S
N1000 C1002 1.356 . S
N1000 H1012 0.984 . S
N1000 H1013 0.985 . S
N1001 C1003 1.356 . S
N1001 H1006 0.984 . S
N1001 H1007 0.985 . S
C1002 C996 1.379 . S
C1002 C999 1.363 . S
C1002 N1000 1.356 . S
C1003 C997 1.363 . S
C1003 C998 1.379 . S
C1003 N1001 1.356 . S
N1004 C996 1.356 . S
N1004 H1010 0.984 . S
N1004 H1011 0.984 . S
N1005 C998 1.356 . S
N1005 H1008 0.984 . S
N1005 H1009 0.985 . S
H1006 N1001 0.984 . S
H1007 N1001 0.985 . S
H1008 N1005 0.984 . S
H1009 N1005 0.985 . S
H1010 N1004 0.984 . S
H1011 N1004 0.984 . S
H1012 N1000 0.984 . S
H1013 N1000 0.985 . S
C1014 C1015 1.363 . S
C1014 C1020 1.379 . S
C1014 N1022 1.356 . S
C1015 C1014 1.363 . S
C1015 C1021 1.363 . S
C1016 C1017 1.363 . S
C1016 C1021 1.379 . S
C1016 N1023 1.356 . S
C1017 C1016 1.363 . S
C1017 C1020 1.363 . S
N1018 C1020 1.356 . S
N1018 H1030 0.984 . S
N1018 H1031 0.985 . S
N1019 C1021 1.356 . S
N1019 H1024 0.984 . S
N1019 H1025 0.985 . S
C1020 C1014 1.379 . S
C1020 C1017 1.363 . S
C1020 N1018 1.356 . S
C1021 C1015 1.363 . S
C1021 C1016 1.379 . S
C1021 N1019 1.356 . S
N1022 C1014 1.356 . S
N1022 H1028 0.984 . S
N1022 H1029 0.984 . S
N1023 C1016 1.356 . S
N1023 H1026 0.984 . S
N1023 H1027 0.985 . S
H1024 N1019 0.984 . S
H1025 N1019 0.985 . S
H1026 N1023 0.984 . S
H1027 N1023 0.985 . S
H1028 N1022 0.984 . S
H1029 N1022 0.984 . S
H1030 N1018 0.984 . S
H1031 N1018 0.985 . S
C1032 C1033 1.363 . S
C1032 C1038 1.379 . S
C1032 N1040 1.356 . S
C1033 C1032 1.363 . S
C1033 C1039 1.363 . S
C1034 C1035 1.363 . S
C1034 C1039 1.379 . S
C1034 N1041 1.356 . S
C1035 C1034 1.363 . S
C1035 C1038 1.363 . S
N1036 C1038 1.356 . S
N1036 H1048 0.984 . S
N1036 H1049 0.985 . S
N1037 C1039 1.356 . S
N1037 H1042 0.984 . S
N1037 H1043 0.985 . S
C1038 C1032 1.379 . S
C1038 C1035 1.363 . S
C1038 N1036 1.356 . S
C1039 C1033 1.363 . S
C1039 C1034 1.379 . S
C1039 N1037 1.356 . S
N1040 C1032 1.356 . S
N1040 H1046 0.984 . S
N1040 H1047 0.984 . S
N1041 C1034 1.356 . S
N1041 H1044 0.984 . S
N1041 H1045 0.985 . S
H1042 N1037 0.984 . S
H1043 N1037 0.985 . S
H1044 N1041 0.984 . S
H1045 N1041 0.985 . S
H1046 N1040 0.984 . S
H1047 N1040 0.984 . S
H1048 N1036 0.984 . S
H1049 N1036 0.985 . S
C1050 C1051 1.363 . S
C1050 C1056 1.379 . S
C1050 N1058 1.356 . S
C1051 C1050 1.363 . S
C1051 C1057 1.363 . S
C1052 C1053 1.363 . S
C1052 C1057 1.379 . S
C1052 N1059 1.356 . S
C1053 C1052 1.363 . S
C1053 C1056 1.363 . S
N1054 C1056 1.356 . S
N1054 H1066 0.984 . S
N1054 H1067 0.985 . S
N1055 C1057 1.356 . S
N1055 H1060 0.984 . S
N1055 H1061 0.985 . S
C1056 C1050 1.379 . S
C1056 C1053 1.363 . S
C1056 N1054 1.356 . S
C1057 C1051 1.363 . S
C1057 C1052 1.379 . S
C1057 N1055 1.356 . S
N1058 C1050 1.356 . S
N1058 H1064 0.984 . S
N1058 H1065 0.984 . S
N1059 C1052 1.356 . S
N1059 H1062 0.984 . S
N1059 H1063 0.985 . S
H1060 N1055 0.984 . S
H1061 N1055 0.985 . S
H1062 N1059 0.984 . S
H1063 N1059 0.985 . S
H1064 N1058 0.984 . S
H1065 N1058 0.984 . S
H1066 N1054 0.984 . S
H1067 N1054 0.985 . S
C1068 C1069 1.363 . S
C1068 C1074 1.379 . S
C1068 N1076 1.356 . S
C1069 C1068 1.363 . S
C1069 C1075 1.363 . S
C1070 C1071 1.363 . S
C1070 C1075 1.379 . S
C1070 N1077 1.356 . S
C1071 C1070 1.363 . S
C1071 C1074 1.363 . S
N1072 C1074 1.356 . S
N1072 H1084 0.984 . S
N1072 H1085 0.985 . S
N1073 C1075 1.356 . S
N1073 H1078 0.984 . S
N1073 H1079 0.985 . S
C1074 C1068 1.379 . S
C1074 C1071 1.363 . S
C1074 N1072 1.356 . S
C1075 C1069 1.363 . S
C1075 C1070 1.379 . S
C1075 N1073 1.356 . S
N1076 C1068 1.356 . S
N1076 H1082 0.984 . S
N1076 H1083 0.984 . S
N1077 C1070 1.356 . S
N1077 H1080 0.984 . S
N1077 H1081 0.985 . S
H1078 N1073 0.984 . S
H1079 N1073 0.985 . S
H1080 N1077 0.984 . S
H1081 N1077 0.985 . S
H1082 N1076 0.984 . S
H1083 N1076 0.984 . S
H1084 N1072 0.984 . S
H1085 N1072 0.985 . S
C1086 C1087 1.363 . S
C1086 C1092 1.379 . S
C1086 N1094 1.356 1_545 S
C1087 C1086 1.363 . S
C1087 C1093 1.363 . S
C1088 C1089 1.363 . S
C1088 C1093 1.379 . S
C1088 N1095 1.356 . S
C1089 C1088 1.363 . S
C1089 C1092 1.363 . S
N1090 C1092 1.356 1_565 S
N1090 H1102 0.984 . S
N1090 H1103 0.985 . S
N1091 C1093 1.356 . S
N1091 H1096 0.984 . S
N1091 H1097 0.985 . S
C1092 C1086 1.379 . S
C1092 C1089 1.363 . S
C1092 N1090 1.356 1_545 S
C1093 C1087 1.363 . S
C1093 C1088 1.379 . S
C1093 N1091 1.356 . S
N1094 C1086 1.356 1_565 S
N1094 H1100 0.984 . S
N1094 H1101 0.984 . S
N1095 C1088 1.356 . S
N1095 H1098 0.984 . S
N1095 H1099 0.985 . S
H1096 N1091 0.984 . S
H1097 N1091 0.985 . S
H1098 N1095 0.984 . S
H1099 N1095 0.985 . S
H1100 N1094 0.984 . S
H1101 N1094 0.984 . S
H1102 N1090 0.984 . S
H1103 N1090 0.985 . S
C1104 C1105 1.363 . S
C1104 C1110 1.379 . S
C1104 N1112 1.356 . S
C1105 C1104 1.363 . S
C1105 C1111 1.363 . S
C1106 C1107 1.363 . S
C1106 C1111 1.379 . S
C1106 N1113 1.356 . S
C1107 C1106 1.363 . S
C1107 C1110 1.363 . S
N1108 C1110 1.356 . S
N1108 H1120 0.984 . S
N1108 H1121 0.985 . S
N1109 C1111 1.356 . S
N1109 H1114 0.984 . S
N1109 H1115 0.985 . S
C1110 C1104 1.379 . S
C1110 C1107 1.363 . S
C1110 N1108 1.356 . S
C1111 C1105 1.363 . S
C1111 C1106 1.379 . S
C1111 N1109 1.356 . S
N1112 C1104 1.356 . S
N1112 H1118 0.984 . S
N1112 H1119 0.984 . S
N1113 C1106 1.356 . S
N1113 H1116 0.984 . S
N1113 H1117 0.985 . S
H1114 N1109 0.984 . S
H1115 N1109 0.985 . S
H1116 N1113 0.984 . S
H1117 N1113 0.985 . S
H1118 N1112 0.984 . S
H1119 N1112 0.984 . S
H1120 N1108 0.984 . S
H1121 N1108 0.985 . S
C1122 C1123 1.363 . S
C1122 C1128 1.376 1_545 S
C1122 N1130 1.356 1_545 S
C1123 C1122 1.363 . S
C1123 C1129 1.363 . S
C1124 C1125 1.363 . S
C1124 C1129 1.379 . S
C1124 N1131 1.356 . S
C1125 C1124 1.363 . S
C1125 C1128 1.353 1_545 S
N1126 C1128 1.368 . S
N1126 H1138 0.984 . S
N1126 H1139 0.985 . S
N1127 C1129 1.356 . S
N1127 H1132 0.984 . S
N1127 H1133 0.985 . S
C1128 C1122 1.376 1_565 S
C1128 C1125 1.353 1_565 S
C1128 N1126 1.368 . S
C1129 C1123 1.363 . S
C1129 C1124 1.379 . S
C1129 N1127 1.356 . S
N1130 C1122 1.356 1_565 S
N1130 H1136 0.984 . S
N1130 H1137 0.984 1_565 S
N1131 C1124 1.356 . S
N1131 H1134 0.984 . S
N1131 H1135 0.985 . S
H1132 N1127 0.984 . S
H1133 N1127 0.985 . S
H1134 N1131 0.984 . S
H1135 N1131 0.985 . S
H1136 N1130 0.984 . S
H1137 N1130 0.984 1_545 S
H1138 N1126 0.984 . S
H1139 N1126 0.985 . S
C1140 C1141 1.363 . S
C1140 C1146 1.379 . S
C1140 N1148 1.356 . S
C1141 C1140 1.363 . S
C1141 C1147 1.363 . S
C1142 C1143 1.363 . S
C1142 C1147 1.379 . S
C1142 N1149 1.356 . S
C1143 C1142 1.363 . S
C1143 C1146 1.363 . S
N1144 C1146 1.356 . S
N1144 H1156 0.984 1_556 S
N1144 H1157 0.985 . S
N1145 C1147 1.356 . S
N1145 H1150 0.984 . S
N1145 H1151 0.985 . S
C1146 C1140 1.379 . S
C1146 C1143 1.363 . S
C1146 N1144 1.356 . S
C1147 C1141 1.363 . S
C1147 C1142 1.379 . S
C1147 N1145 1.356 . S
N1148 C1140 1.356 . S
N1148 H1154 0.984 1_556 S
N1148 H1155 0.984 . S
N1149 C1142 1.356 . S
N1149 H1152 0.984 . S
N1149 H1153 0.985 . S
H1150 N1145 0.984 . S
H1151 N1145 0.985 . S
H1152 N1149 0.984 . S
H1153 N1149 0.985 . S
H1154 N1148 0.984 1_554 S
H1155 N1148 0.984 . S
H1156 N1144 0.984 1_554 S
H1157 N1144 0.985 . S
C1158 C1159 1.363 . S
C1158 C1164 1.379 . S
C1158 N1166 1.356 . S
C1159 C1158 1.363 . S
C1159 C1165 1.363 . S
C1160 C1161 1.363 . S
C1160 C1165 1.379 . S
C1160 N1167 1.356 . S
C1161 C1160 1.363 . S
C1161 C1164 1.363 . S
N1162 C1164 1.356 . S
N1162 H1174 0.984 . S
N1162 H1175 0.985 . S
N1163 C1165 1.356 . S
N1163 H1168 0.984 . S
N1163 H1169 0.985 . S
C1164 C1158 1.379 . S
C1164 C1161 1.363 . S
C1164 N1162 1.356 . S
C1165 C1159 1.363 . S
C1165 C1160 1.379 . S
C1165 N1163 1.356 . S
N1166 C1158 1.356 . S
N1166 H1172 0.984 . S
N1166 H1173 0.984 . S
N1167 C1160 1.356 . S
N1167 H1170 0.984 . S
N1167 H1171 0.985 . S
H1168 N1163 0.984 . S
H1169 N1163 0.985 . S
H1170 N1167 0.984 . S
H1171 N1167 0.985 . S
H1172 N1166 0.984 . S
H1173 N1166 0.984 . S
H1174 N1162 0.984 . S
H1175 N1162 0.985 . S
C1176 C1177 1.363 . S
C1176 C1182 1.379 . S
C1176 N1184 1.356 . S
C1177 C1176 1.363 . S
C1177 C1183 1.363 . S
C1178 C1179 1.363 . S
C1178 C1183 1.379 . S
C1178 N1185 1.356 . S
C1179 C1178 1.363 . S
C1179 C1182 1.363 . S
N1180 C1182 1.356 1_554 S
N1180 H1192 0.984 . S
N1180 H1193 0.985 . S
N1181 C1183 1.356 . S
N1181 H1186 0.984 . S
N1181 H1187 0.985 . S
C1182 C1176 1.379 . S
C1182 C1179 1.363 . S
C1182 N1180 1.356 1_556 S
C1183 C1177 1.363 . S
C1183 C1178 1.379 . S
C1183 N1181 1.356 . S
N1184 C1176 1.356 . S
N1184 H1190 0.984 . S
N1184 H1191 0.984 . S
N1185 C1178 1.356 . S
N1185 H1188 0.984 . S
N1185 H1189 0.985 . S
H1186 N1181 0.984 . S
H1187 N1181 0.985 . S
H1188 N1185 0.984 . S
H1189 N1185 0.985 . S
H1190 N1184 0.984 . S
H1191 N1184 0.984 . S
H1192 N1180 0.984 . S
H1193 N1180 0.985 . S
C1194 C1195 1.363 . S
C1194 C1200 1.379 . S
C1194 N1202 1.356 . S
C1195 C1194 1.363 . S
C1195 C1201 1.363 . S
C1196 C1197 1.363 . S
C1196 C1201 1.379 . S
C1196 N1203 1.356 . S
C1197 C1196 1.363 . S
C1197 C1200 1.363 . S
N1198 C1200 1.356 . S
N1198 H1210 0.984 . S
N1198 H1211 0.985 . S
N1199 C1201 1.356 . S
N1199 H1204 0.984 . S
N1199 H1205 0.985 . S
C1200 C1194 1.379 . S
C1200 C1197 1.363 . S
C1200 N1198 1.356 . S
C1201 C1195 1.363 . S
C1201 C1196 1.379 . S
C1201 N1199 1.356 . S
N1202 C1194 1.356 . S
N1202 H1208 0.984 . S
N1202 H1209 0.984 . S
N1203 C1196 1.356 . S
N1203 H1206 0.984 . S
N1203 H1207 0.985 . S
H1204 N1199 0.984 . S
H1205 N1199 0.985 . S
H1206 N1203 0.984 . S
H1207 N1203 0.985 . S
H1208 N1202 0.984 . S
H1209 N1202 0.984 . S
H1210 N1198 0.984 . S
H1211 N1198 0.985 . S
C1212 C1213 1.363 . S
C1212 C1218 1.379 . S
C1212 N1220 1.356 . S
C1213 C1212 1.363 . S
C1213 C1219 1.363 . S
C1214 C1215 1.363 . S
C1214 C1219 1.379 . S
C1214 N1221 1.356 . S
C1215 C1214 1.363 . S
C1215 C1218 1.363 . S
N1216 C1218 1.356 . S
N1216 H1228 0.984 . S
N1216 H1229 0.985 . S
N1217 C1219 1.356 . S
N1217 H1222 0.984 . S
N1217 H1223 0.985 . S
C1218 C1212 1.379 . S
C1218 C1215 1.363 . S
C1218 N1216 1.356 . S
C1219 C1213 1.363 . S
C1219 C1214 1.379 . S
C1219 N1217 1.356 . S
N1220 C1212 1.356 . S
N1220 H1226 0.984 . S
N1220 H1227 0.984 . S
N1221 C1214 1.356 . S
N1221 H1224 0.984 . S
N1221 H1225 0.985 . S
H1222 N1217 0.984 . S
H1223 N1217 0.985 . S
H1224 N1221 0.984 . S
H1225 N1221 0.985 . S
H1226 N1220 0.984 . S
H1227 N1220 0.984 . S
H1228 N1216 0.984 . S
H1229 N1216 0.985 . S
C1230 C1231 1.363 . S
C1230 C1236 1.379 . S
C1230 N1238 1.356 . S
C1231 C1230 1.363 . S
C1231 C1237 1.363 . S
C1232 C1233 1.363 . S
C1232 C1237 1.379 . S
C1232 N1239 1.356 1_554 S
C1233 C1232 1.363 . S
C1233 C1236 1.363 . S
N1234 C1236 1.356 . S
N1234 H1246 0.984 . S
N1234 H1247 0.985 . S
N1235 C1237 1.356 . S
N1235 H1240 0.984 . S
N1235 H1241 0.985 . S
C1236 C1230 1.379 . S
C1236 C1233 1.363 . S
C1236 N1234 1.356 . S
C1237 C1231 1.363 . S
C1237 C1232 1.379 . S
C1237 N1235 1.356 . S
N1238 C1230 1.356 . S
N1238 H1244 0.984 . S
N1238 H1245 0.984 . S
N1239 C1232 1.356 1_556 S
N1239 H1242 0.984 . S
N1239 H1243 0.985 . S
H1240 N1235 0.984 . S
H1241 N1235 0.985 . S
H1242 N1239 0.984 . S
H1243 N1239 0.985 . S
H1244 N1238 0.984 . S
H1245 N1238 0.984 . S
H1246 N1234 0.984 . S
H1247 N1234 0.985 . S
C1248 C1249 1.363 . S
C1248 C1254 1.379 . S
C1248 N1256 1.356 . S
C1249 C1248 1.363 . S
C1249 C1255 1.363 . S
C1250 C1251 1.363 . S
C1250 C1255 1.379 . S
C1250 N1257 1.356 . S
C1251 C1250 1.363 . S
C1251 C1254 1.363 . S
N1252 C1254 1.356 . S
N1252 H1264 0.984 . S
N1252 H1265 0.985 . S
N1253 C1255 1.356 . S
N1253 H1258 0.984 . S
N1253 H1259 0.985 . S
C1254 C1248 1.379 . S
C1254 C1251 1.363 . S
C1254 N1252 1.356 . S
C1255 C1249 1.363 . S
C1255 C1250 1.379 . S
C1255 N1253 1.356 . S
N1256 C1248 1.356 . S
N1256 H1262 0.984 . S
N1256 H1263 0.984 . S
N1257 C1250 1.356 . S
N1257 H1260 0.984 . S
N1257 H1261 0.985 . S
H1258 N1253 0.984 . S
H1259 N1253 0.985 . S
H1260 N1257 0.984 . S
H1261 N1257 0.985 . S
H1262 N1256 0.984 . S
H1263 N1256 0.984 . S
H1264 N1252 0.984 . S
H1265 N1252 0.985 . S
C1266 C1267 1.363 . S
C1266 C1272 1.379 . S
C1266 N1274 1.356 . S
C1267 C1266 1.363 . S
C1267 C1273 1.363 . S
C1268 C1269 1.363 . S
C1268 C1273 1.379 . S
C1268 N1275 1.356 . S
C1269 C1268 1.363 . S
C1269 C1272 1.363 . S
N1270 C1272 1.356 . S
N1270 H1282 0.984 . S
N1270 H1283 0.985 . S
N1271 C1273 1.356 . S
N1271 H1276 0.984 . S
N1271 H1277 0.985 . S
C1272 C1266 1.379 . S
C1272 C1269 1.363 . S
C1272 N1270 1.356 . S
C1273 C1267 1.363 . S
C1273 C1268 1.379 . S
C1273 N1271 1.356 . S
N1274 C1266 1.356 . S
N1274 H1280 0.984 . S
N1274 H1281 0.984 . S
N1275 C1268 1.356 . S
N1275 H1278 0.984 . S
N1275 H1279 0.985 . S
H1276 N1271 0.984 . S
H1277 N1271 0.985 . S
H1278 N1275 0.984 . S
H1279 N1275 0.985 . S
H1280 N1274 0.984 . S
H1281 N1274 0.984 . S
H1282 N1270 0.984 . S
H1283 N1270 0.985 . S
C1284 C1285 1.363 . S
C1284 C1290 1.379 . S
C1284 N1292 1.356 . S
C1285 C1284 1.363 . S
C1285 C1291 1.363 . S
C1286 C1287 1.363 . S
C1286 C1291 1.379 . S
C1286 N1293 1.356 . S
C1287 C1286 1.363 . S
C1287 C1290 1.363 . S
N1288 C1290 1.356 . S
N1288 H1300 0.984 . S
N1288 H1301 0.985 . S
N1289 C1291 1.356 . S
N1289 H1294 0.984 . S
N1289 H1295 0.985 . S
C1290 C1284 1.379 . S
C1290 C1287 1.363 . S
C1290 N1288 1.356 . S
C1291 C1285 1.363 . S
C1291 C1286 1.379 . S
C1291 N1289 1.356 . S
N1292 C1284 1.356 . S
N1292 H1298 0.984 . S
N1292 H1299 0.984 . S
N1293 C1286 1.356 . S
N1293 H1296 0.984 . S
N1293 H1297 0.985 . S
H1294 N1289 0.984 . S
H1295 N1289 0.985 . S
H1296 N1293 0.984 . S
H1297 N1293 0.985 . S
H1298 N1292 0.984 . S
H1299 N1292 0.984 . S
H1300 N1288 0.984 . S
H1301 N1288 0.985 . S
C1302 C1303 1.363 . S
C1302 C1308 1.379 . S
C1302 N1310 1.356 . S
C1303 C1302 1.363 . S
C1303 C1309 1.363 . S
C1304 C1305 1.363 . S
C1304 C1309 1.379 . S
C1304 N1311 1.356 . S
C1305 C1304 1.363 . S
C1305 C1308 1.363 . S
N1306 C1308 1.356 . S
N1306 H1318 0.984 . S
N1306 H1319 0.985 . S
N1307 C1309 1.356 . S
N1307 H1312 0.984 . S
N1307 H1313 0.985 . S
C1308 C1302 1.379 . S
C1308 C1305 1.363 . S
C1308 N1306 1.356 . S
C1309 C1303 1.363 . S
C1309 C1304 1.379 . S
C1309 N1307 1.356 . S
N1310 C1302 1.356 . S
N1310 H1316 0.984 . S
N1310 H1317 0.984 . S
N1311 C1304 1.356 . S
N1311 H1314 0.984 . S
N1311 H1315 0.985 1_554 S
H1312 N1307 0.984 . S
H1313 N1307 0.985 . S
H1314 N1311 0.984 . S
H1315 N1311 0.985 1_556 S
H1316 N1310 0.984 . S
H1317 N1310 0.984 . S
H1318 N1306 0.984 . S
H1319 N1306 0.985 . S
C1320 C1321 1.363 . S
C1320 C1326 1.379 . S
C1320 N1328 1.356 . S
C1321 C1320 1.363 . S
C1321 C1327 1.363 . S
C1322 C1323 1.363 . S
C1322 C1327 1.379 . S
C1322 N1329 1.356 . S
C1323 C1322 1.363 . S
C1323 C1326 1.363 . S
N1324 C1326 1.356 . S
N1324 H1336 0.984 . S
N1324 H1337 0.985 . S
N1325 C1327 1.356 . S
N1325 H1330 0.984 . S
N1325 H1331 0.985 . S
C1326 C1320 1.379 . S
C1326 C1323 1.363 . S
C1326 N1324 1.356 . S
C1327 C1321 1.363 . S
C1327 C1322 1.379 . S
C1327 N1325 1.356 . S
N1328 C1320 1.356 . S
N1328 H1334 0.984 . S
N1328 H1335 0.984 . S
N1329 C1322 1.356 . S
N1329 H1332 0.984 . S
N1329 H1333 0.985 . S
H1330 N1325 0.984 . S
H1331 N1325 0.985 . S
H1332 N1329 0.984 . S
H1333 N1329 0.985 . S
H1334 N1328 0.984 . S
H1335 N1328 0.984 . S
H1336 N1324 0.984 . S
H1337 N1324 0.985 . S
C1338 C1339 1.363 . S
C1338 C1344 1.379 . S
C1338 N1346 1.356 . S
C1339 C1338 1.363 . S
C1339 C1345 1.363 . S
C1340 C1341 1.363 . S
C1340 C1345 1.379 . S
C1340 N1347 1.356 . S
C1341 C1340 1.363 . S
C1341 C1344 1.363 . S
N1342 C1344 1.356 . S
N1342 H1354 0.984 . S
N1342 H1355 0.985 . S
N1343 C1345 1.356 . S
N1343 H1348 0.984 . S
N1343 H1349 0.985 . S
C1344 C1338 1.379 . S
C1344 C1341 1.363 . S
C1344 N1342 1.356 . S
C1345 C1339 1.363 . S
C1345 C1340 1.379 . S
C1345 N1343 1.356 . S
N1346 C1338 1.356 . S
N1346 H1352 0.984 . S
N1346 H1353 0.984 . S
N1347 C1340 1.356 . S
N1347 H1350 0.984 . S
N1347 H1351 0.985 . S
H1348 N1343 0.984 . S
H1349 N1343 0.985 . S
H1350 N1347 0.984 . S
H1351 N1347 0.985 . S
H1352 N1346 0.984 . S
H1353 N1346 0.984 . S
H1354 N1342 0.984 . S
H1355 N1342 0.985 . S
C1356 C1357 1.363 . S
C1356 C1362 1.379 . S
C1356 N1364 1.356 . S
C1357 C1356 1.363 . S
C1357 C1363 1.363 . S
C1358 C1359 1.354 1_556 S
C1358 C1363 1.363 1_556 S
C1358 N1365 1.381 . S
C1359 C1358 1.354 1_554 S
C1359 C1362 1.363 . S
N1360 C1362 1.356 . S
N1360 H1372 0.984 . S
N1360 H1373 0.985 . S
N1361 C1363 1.356 . S
N1361 H1366 0.984 . S
N1361 H1367 0.985 1_554 S
C1362 C1356 1.379 . S
C1362 C1359 1.363 . S
C1362 N1360 1.356 . S
C1363 C1357 1.363 . S
C1363 C1358 1.363 1_554 S
C1363 N1361 1.356 . S
N1364 C1356 1.356 . S
N1364 H1370 0.984 . S
N1364 H1371 0.984 . S
N1365 C1358 1.381 . S
N1365 H1368 0.984 . S
N1365 H1369 0.985 . S
H1366 N1361 0.984 . S
H1367 N1361 0.985 1_556 S
H1368 N1365 0.984 . S
H1369 N1365 0.985 . S
H1370 N1364 0.984 . S
H1371 N1364 0.984 . S
H1372 N1360 0.984 . S
H1373 N1360 0.985 . S
C1374 C1375 1.363 . S
C1374 C1380 1.379 . S
C1374 N1382 1.356 . S
C1375 C1374 1.363 . S
C1375 C1381 1.363 . S
C1376 C1377 1.363 . S
C1376 C1381 1.379 . S
C1376 N1383 1.356 . S
C1377 C1376 1.363 . S
C1377 C1380 1.363 . S
N1378 C1380 1.356 . S
N1378 H1390 0.984 . S
N1378 H1391 0.985 . S
N1379 C1381 1.356 . S
N1379 H1384 0.984 . S
N1379 H1385 0.985 . S
C1380 C1374 1.379 . S
C1380 C1377 1.363 . S
C1380 N1378 1.356 . S
C1381 C1375 1.363 . S
C1381 C1376 1.379 . S
C1381 N1379 1.356 . S
N1382 C1374 1.356 . S
N1382 H1388 0.984 . S
N1382 H1389 0.984 . S
N1383 C1376 1.356 . S
N1383 H1386 0.984 . S
N1383 H1387 0.985 . S
H1384 N1379 0.984 . S
H1385 N1379 0.985 . S
H1386 N1383 0.984 . S
H1387 N1383 0.985 . S
H1388 N1382 0.984 . S
H1389 N1382 0.984 . S
H1390 N1378 0.984 . S
H1391 N1378 0.985 . S
C1392 C1393 1.363 . S
C1392 C1398 1.379 . S
C1392 N1400 1.356 . S
C1393 C1392 1.363 . S
C1393 C1399 1.363 . S
C1394 C1395 1.363 . S
C1394 C1399 1.379 . S
C1394 N1401 1.356 . S
C1395 C1394 1.363 . S
C1395 C1398 1.363 . S
N1396 C1398 1.356 . S
N1396 H1408 0.984 . S
N1396 H1409 0.985 . S
N1397 C1399 1.356 . S
N1397 H1402 0.984 . S
N1397 H1403 0.985 . S
C1398 C1392 1.379 . S
C1398 C1395 1.363 . S
C1398 N1396 1.356 . S
C1399 C1393 1.363 . S
C1399 C1394 1.379 . S
C1399 N1397 1.356 . S
N1400 C1392 1.356 . S
N1400 H1406 0.984 . S
N1400 H1407 0.984 . S
N1401 C1394 1.356 . S
N1401 H1404 0.984 . S
N1401 H1405 0.985 . S
H1402 N1397 0.984 . S
H1403 N1397 0.985 . S
H1404 N1401 0.984 . S
H1405 N1401 0.985 . S
H1406 N1400 0.984 . S
H1407 N1400 0.984 . S
H1408 N1396 0.984 . S
H1409 N1396 0.985 . S
C1410 C1411 1.363 . S
C1410 C1416 1.379 . S
C1410 N1418 1.356 . S
C1411 C1410 1.363 . S
C1411 C1417 1.363 . S
C1412 C1413 1.363 . S
C1412 C1417 1.379 . S
C1412 N1419 1.356 . S
C1413 C1412 1.363 . S
C1413 C1416 1.363 . S
N1414 C1416 1.356 . S
N1414 H1426 0.984 . S
N1414 H1427 0.985 . S
N1415 C1417 1.356 . S
N1415 H1420 0.984 . S
N1415 H1421 0.985 . S
C1416 C1410 1.379 . S
C1416 C1413 1.363 . S
C1416 N1414 1.356 . S
C1417 C1411 1.363 . S
C1417 C1412 1.379 . S
C1417 N1415 1.356 . S
N1418 C1410 1.356 . S
N1418 H1424 0.984 . S
N1418 H1425 0.984 . S
N1419 C1412 1.356 . S
N1419 H1422 0.984 . S
N1419 H1423 0.985 . S
H1420 N1415 0.984 . S
H1421 N1415 0.985 . S
H1422 N1419 0.984 . S
H1423 N1419 0.985 . S
H1424 N1418 0.984 . S
H1425 N1418 0.984 . S
H1426 N1414 0.984 . S
H1427 N1414 0.985 . S
C1428 C1429 1.363 . S
C1428 C1434 1.379 . S
C1428 N1436 1.356 . S
C1429 C1428 1.363 . S
C1429 C1435 1.363 . S
C1430 C1431 1.363 . S
C1430 C1435 1.379 . S
C1430 N1437 1.356 . S
C1431 C1430 1.363 . S
C1431 C1434 1.363 . S
N1432 C1434 1.356 . S
N1432 H1444 0.984 . S
N1432 H1445 0.985 . S
N1433 C1435 1.356 . S
N1433 H1438 0.984 . S
N1433 H1439 0.985 . S
C1434 C1428 1.379 . S
C1434 C1431 1.363 . S
C1434 N1432 1.356 . S
C1435 C1429 1.363 . S
C1435 C1430 1.379 . S
C1435 N1433 1.356 . S
N1436 C1428 1.356 . S
N1436 H1442 0.984 . S
N1436 H1443 0.984 . S
N1437 C1430 1.356 . S
N1437 H1440 0.984 . S
N1437 H1441 0.985 . S
H1438 N1433 0.984 . S
H1439 N1433 0.985 . S
H1440 N1437 0.984 . S
H1441 N1437 0.985 . S
H1442 N1436 0.984 . S
H1443 N1436 0.984 . S
H1444 N1432 0.984 . S
H1445 N1432 0.985 . S
C1446 C1447 1.363 . S
C1446 C1452 1.379 . S
C1446 N1454 1.356 . S
C1447 C1446 1.363 . S
C1447 C1453 1.363 . S
C1448 C1449 1.363 . S
C1448 C1453 1.379 . S
C1448 N1455 1.356 . S
C1449 C1448 1.363 . S
C1449 C1452 1.363 . S
N1450 C1452 1.356 . S
N1450 H1462 0.984 . S
N1450 H1463 0.985 . S
N1451 C1453 1.356 . S
N1451 H1456 0.984 . S
N1451 H1457 0.985 . S
C1452 C1446 1.379 . S
C1452 C1449 1.363 . S
C1452 N1450 1.356 . S
C1453 C1447 1.363 . S
C1453 C1448 1.379 . S
C1453 N1451 1.356 . S
N1454 C1446 1.356 . S
N1454 H1460 0.984 . S
N1454 H1461 0.984 . S
N1455 C1448 1.356 . S
N1455 H1458 0.984 . S
N1455 H1459 0.985 . S
H1456 N1451 0.984 . S
H1457 N1451 0.985 . S
H1458 N1455 0.984 . S
H1459 N1455 0.985 . S
H1460 N1454 0.984 . S
H1461 N1454 0.984 . S
H1462 N1450 0.984 . S
H1463 N1450 0.985 . S
C1464 C1465 1.363 . S
C1464 C1470 1.379 . S
C1464 N1472 1.356 . S
C1465 C1464 1.363 . S
C1465 C1471 1.363 . S
C1466 C1467 1.363 . S
C1466 C1471 1.379 . S
C1466 N1473 1.356 . S
C1467 C1466 1.363 . S
C1467 C1470 1.363 . S
N1468 C1470 1.356 . S
N1468 H1480 0.984 . S
N1468 H1481 0.985 . S
N1469 C1471 1.356 . S
N1469 H1474 0.984 . S
N1469 H1475 0.985 . S
C1470 C1464 1.379 . S
C1470 C1467 1.363 . S
C1470 N1468 1.356 . S
C1471 C1465 1.363 . S
C1471 C1466 1.379 . S
C1471 N1469 1.356 . S
N1472 C1464 1.356 . S
N1472 H1478 0.984 . S
N1472 H1479 0.984 . S
N1473 C1466 1.356 . S
N1473 H1476 0.984 . S
N1473 H1477 0.985 . S
H1474 N1469 0.984 . S
H1475 N1469 0.985 . S
H1476 N1473 0.984 . S
H1477 N1473 0.985 . S
H1478 N1472 0.984 . S
H1479 N1472 0.984 . S
H1480 N1468 0.984 . S
H1481 N1468 0.985 . S
C1482 C1483 1.363 . S
C1482 C1488 1.379 . S
C1482 N1490 1.356 . S
C1483 C1482 1.363 . S
C1483 C1489 1.363 . S
C1484 C1485 1.363 . S
C1484 C1489 1.379 . S
C1484 N1491 1.356 . S
C1485 C1484 1.363 . S
C1485 C1488 1.363 . S
N1486 C1488 1.356 . S
N1486 H1498 0.984 . S
N1486 H1499 0.985 . S
N1487 C1489 1.356 . S
N1487 H1492 0.984 . S
N1487 H1493 0.985 . S
C1488 C1482 1.379 . S
C1488 C1485 1.363 . S
C1488 N1486 1.356 . S
C1489 C1483 1.363 . S
C1489 C1484 1.379 . S
C1489 N1487 1.356 . S
N1490 C1482 1.356 . S
N1490 H1496 0.984 . S
N1490 H1497 0.984 . S
N1491 C1484 1.356 . S
N1491 H1494 0.984 . S
N1491 H1495 0.985 . S
H1492 N1487 0.984 . S
H1493 N1487 0.985 . S
H1494 N1491 0.984 . S
H1495 N1491 0.985 . S
H1496 N1490 0.984 . S
H1497 N1490 0.984 . S
H1498 N1486 0.984 . S
H1499 N1486 0.985 . S
C1500 C1501 1.363 . S
C1500 C1506 1.379 . S
C1500 N1508 1.356 . S
C1501 C1500 1.363 . S
C1501 C1507 1.363 . S
C1502 C1503 1.363 . S
C1502 C1507 1.379 . S
C1502 N1509 1.356 . S
C1503 C1502 1.363 . S
C1503 C1506 1.363 . S
N1504 C1506 1.356 . S
N1504 H1516 0.984 . S
N1504 H1517 0.985 . S
N1505 C1507 1.356 . S
N1505 H1510 0.984 . S
N1505 H1511 0.985 . S
C1506 C1500 1.379 . S
C1506 C1503 1.363 . S
C1506 N1504 1.356 . S
C1507 C1501 1.363 . S
C1507 C1502 1.379 . S
C1507 N1505 1.356 . S
N1508 C1500 1.356 . S
N1508 H1514 0.984 . S
N1508 H1515 0.984 . S
N1509 C1502 1.356 . S
N1509 H1512 0.984 . S
N1509 H1513 0.985 . S
H1510 N1505 0.984 . S
H1511 N1505 0.985 . S
H1512 N1509 0.984 . S
H1513 N1509 0.985 . S
H1514 N1508 0.984 . S
H1515 N1508 0.984 . S
H1516 N1504 0.984 . S
H1517 N1504 0.985 . S
C1518 C1519 1.363 . S
C1518 C1524 1.379 . S
C1518 N1526 1.356 . S
C1519 C1518 1.363 . S
C1519 C1525 1.363 . S
C1520 C1521 1.363 . S
C1520 C1525 1.379 . S
C1520 N1527 1.356 . S
C1521 C1520 1.363 . S
C1521 C1524 1.363 . S
N1522 C1524 1.356 . S
N1522 H1534 0.984 . S
N1522 H1535 0.985 . S
N1523 C1525 1.356 . S
N1523 H1528 0.984 . S
N1523 H1529 0.985 . S
C1524 C1518 1.379 . S
C1524 C1521 1.363 . S
C1524 N1522 1.356 . S
C1525 C1519 1.363 . S
C1525 C1520 1.379 . S
C1525 N1523 1.356 . S
N1526 C1518 1.356 . S
N1526 H1532 0.984 . S
N1526 H1533 0.984 . S
N1527 C1520 1.356 . S
N1527 H1530 0.984 . S
N1527 H1531 0.985 . S
H1528 N1523 0.984 . S
H1529 N1523 0.985 . S
H1530 N1527 0.984 . S
H1531 N1527 0.985 . S
H1532 N1526 0.984 . S
H1533 N1526 0.984 . S
H1534 N1522 0.984 . S
H1535 N1522 0.985 . S
C1536 C1537 1.363 . S
C1536 C1542 1.379 . S
C1536 N1544 1.356 . S
C1537 C1536 1.363 . S
C1537 C1543 1.363 . S
C1538 C1539 1.363 . S
C1538 C1543 1.379 . S
C1538 N1545 1.356 . S
C1539 C1538 1.363 . S
C1539 C1542 1.363 . S
N1540 C1542 1.356 . S
N1540 H1552 0.984 . S
N1540 H1553 0.985 . S
N1541 C1543 1.356 . S
N1541 H1546 0.984 . S
N1541 H1547 0.985 . S
C1542 C1536 1.379 . S
C1542 C1539 1.363 . S
C1542 N1540 1.356 . S
C1543 C1537 1.363 . S
C1543 C1538 1.379 . S
C1543 N1541 1.356 . S
N1544 C1536 1.356 . S
N1544 H1550 0.984 . S
N1544 H1551 0.984 . S
N1545 C1538 1.356 . S
N1545 H1548 0.984 . S
N1545 H1549 0.985 . S
H1546 N1541 0.984 . S
H1547 N1541 0.985 . S
H1548 N1545 0.984 . S
H1549 N1545 0.985 . S
H1550 N1544 0.984 . S
H1551 N1544 0.984 . S
H1552 N1540 0.984 . S
H1553 N1540 0.985 . S
C1554 C1555 1.363 . S
C1554 C1560 1.379 . S
C1554 N1562 1.356 . S
C1555 C1554 1.363 . S
C1555 C1561 1.363 . S
C1556 C1557 1.363 . S
C1556 C1561 1.379 . S
C1556 N1563 1.356 . S
C1557 C1556 1.363 . S
C1557 C1560 1.363 . S
N1558 C1560 1.356 . S
N1558 H1570 0.984 . S
N1558 H1571 0.985 . S
N1559 C1561 1.356 . S
N1559 H1564 0.984 . S
N1559 H1565 0.985 . S
C1560 C1554 1.379 . S
C1560 C1557 1.363 . S
C1560 N1558 1.356 . S
C1561 C1555 1.363 . S
C1561 C1556 1.379 . S
C1561 N1559 1.356 . S
N1562 C1554 1.356 . S
N1562 H1568 0.984 . S
N1562 H1569 0.984 . S
N1563 C1556 1.356 . S
N1563 H1566 0.984 . S
N1563 H1567 0.985 . S
H1564 N1559 0.984 . S
H1565 N1559 0.985 . S
H1566 N1563 0.984 . S
H1567 N1563 0.985 . S
H1568 N1562 0.984 . S
H1569 N1562 0.984 . S
H1570 N1558 0.984 . S
H1571 N1558 0.985 . S
C1572 C1573 1.363 . S
C1572 C1578 1.379 . S
C1572 N1580 1.356 . S
C1573 C1572 1.363 . S
C1573 C1579 1.366 . S
C1574 C1575 1.363 1_545 S
C1574 C1579 1.377 1_545 S
C1574 N1581 1.356 . S
C1575 C1574 1.363 1_565 S
C1575 C1578 1.363 . S
N1576 C1578 1.356 . S
N1576 H1588 0.984 . S
N1576 H1589 0.985 . S
N1577 C1579 1.355 1_545 S
N1577 H1582 0.984 1_545 S
N1577 H1583 0.985 . S
C1578 C1572 1.379 . S
C1578 C1575 1.363 . S
C1578 N1576 1.356 . S
C1579 C1573 1.366 . S
C1579 C1574 1.377 1_565 S
C1579 N1577 1.355 1_565 S
N1580 C1572 1.356 . S
N1580 H1586 0.984 . S
N1580 H1587 0.984 . S
N1581 C1574 1.356 . S
N1581 H1584 0.984 . S
N1581 H1585 0.985 . S
H1582 N1577 0.984 1_565 S
H1583 N1577 0.985 . S
H1584 N1581 0.984 . S
H1585 N1581 0.985 . S
H1586 N1580 0.984 . S
H1587 N1580 0.984 . S
H1588 N1576 0.984 . S
H1589 N1576 0.985 . S
C1590 C1591 1.363 . S
C1590 C1596 1.379 . S
C1590 N1598 1.356 . S
C1591 C1590 1.363 . S
C1591 C1597 1.363 . S
C1592 C1593 1.363 . S
C1592 C1597 1.379 . S
C1592 N1599 1.356 . S
C1593 C1592 1.363 . S
C1593 C1596 1.363 . S
N1594 C1596 1.356 . S
N1594 H1606 0.984 . S
N1594 H1607 0.985 . S
N1595 C1597 1.356 1_554 S
N1595 H1600 0.984 . S
N1595 H1601 0.985 . S
C1596 C1590 1.379 . S
C1596 C1593 1.363 . S
C1596 N1594 1.356 . S
C1597 C1591 1.363 . S
C1597 C1592 1.379 . S
C1597 N1595 1.356 1_556 S
N1598 C1590 1.356 . S
N1598 H1604 0.984 . S
N1598 H1605 0.984 . S
N1599 C1592 1.356 . S
N1599 H1602 0.984 . S
N1599 H1603 0.985 1_556 S
H1600 N1595 0.984 . S
H1601 N1595 0.985 . S
H1602 N1599 0.984 . S
H1603 N1599 0.985 1_554 S
H1604 N1598 0.984 . S
H1605 N1598 0.984 . S
H1606 N1594 0.984 . S
H1607 N1594 0.985 . S
C1608 C1609 1.363 . S
C1608 C1614 1.379 . S
C1608 N1616 1.356 . S
C1609 C1608 1.363 . S
C1609 C1615 1.363 . S
C1610 C1611 1.363 . S
C1610 C1615 1.379 . S
C1610 N1617 1.356 . S
C1611 C1610 1.363 . S
C1611 C1614 1.363 . S
N1612 C1614 1.356 . S
N1612 H1624 0.984 . S
N1612 H1625 0.985 . S
N1613 C1615 1.356 . S
N1613 H1618 0.984 . S
N1613 H1619 0.985 . S
C1614 C1608 1.379 . S
C1614 C1611 1.363 . S
C1614 N1612 1.356 . S
C1615 C1609 1.363 . S
C1615 C1610 1.379 . S
C1615 N1613 1.356 . S
N1616 C1608 1.356 . S
N1616 H1622 0.984 . S
N1616 H1623 0.984 . S
N1617 C1610 1.356 . S
N1617 H1620 0.984 . S
N1617 H1621 0.985 . S
H1618 N1613 0.984 . S
H1619 N1613 0.985 . S
H1620 N1617 0.984 . S
H1621 N1617 0.985 . S
H1622 N1616 0.984 . S
H1623 N1616 0.984 . S
H1624 N1612 0.984 . S
H1625 N1612 0.985 . S
C1626 C1627 1.363 . S
C1626 C1632 1.379 . S
C1626 N1634 1.356 . S
C1627 C1626 1.363 . S
C1627 C1633 1.363 . S
C1628 C1629 1.363 . S
C1628 C1633 1.379 . S
C1628 N1635 1.356 . S
C1629 C1628 1.363 . S
C1629 C1632 1.363 . S
N1630 C1632 1.356 . S
N1630 H1642 0.984 . S
N1630 H1643 0.985 . S
N1631 C1633 1.356 . S
N1631 H1636 0.984 . S
N1631 H1637 0.985 1_554 S
C1632 C1626 1.379 . S
C1632 C1629 1.363 . S
C1632 N1630 1.356 . S
C1633 C1627 1.363 . S
C1633 C1628 1.379 . S
C1633 N1631 1.356 . S
N1634 C1626 1.356 . S
N1634 H1640 0.984 . S
N1634 H1641 0.984 . S
N1635 C1628 1.356 . S
N1635 H1638 0.984 . S
N1635 H1639 0.985 . S
H1636 N1631 0.984 . S
H1637 N1631 0.985 1_556 S
H1638 N1635 0.984 . S
H1639 N1635 0.985 . S
H1640 N1634 0.984 . S
H1641 N1634 0.984 . S
H1642 N1630 0.984 . S
H1643 N1630 0.985 . S
C1644 C1645 1.363 1_565 S
C1644 C1650 1.379 1_565 S
C1644 N1652 1.356 . S
C1645 C1644 1.363 1_545 S
C1645 C1651 1.363 . S
C1646 C1647 1.363 . S
C1646 C1651 1.379 . S
C1646 N1653 1.356 . S
C1647 C1646 1.363 . S
C1647 C1650 1.363 . S
N1648 C1650 1.360 . S
N1648 H1660 0.974 1_545 S
N1648 H1661 0.992 . S
N1649 C1651 1.356 . S
N1649 H1654 0.984 . S
N1649 H1655 0.985 . S
C1650 C1644 1.379 1_545 S
C1650 C1647 1.363 . S
C1650 N1648 1.360 . S
C1651 C1645 1.363 . S
C1651 C1646 1.379 . S
C1651 N1649 1.356 . S
N1652 C1644 1.356 . S
N1652 H1658 0.984 . S
N1652 H1659 0.984 . S
N1653 C1646 1.356 . S
N1653 H1656 0.984 . S
N1653 H1657 0.985 . S
H1654 N1649 0.984 . S
H1655 N1649 0.985 . S
H1656 N1653 0.984 . S
H1657 N1653 0.985 . S
H1658 N1652 0.984 . S
H1659 N1652 0.984 . S
H1660 N1648 0.974 1_565 S
H1661 N1648 0.992 . S
C1662 C1663 1.363 . S
C1662 C1668 1.379 . S
C1662 N1670 1.356 . S
C1663 C1662 1.363 . S
C1663 C1669 1.363 . S
C1664 C1665 1.363 . S
C1664 C1669 1.379 . S
C1664 N1671 1.356 . S
C1665 C1664 1.363 . S
C1665 C1668 1.363 . S
N1666 C1668 1.356 . S
N1666 H1678 0.984 . S
N1666 H1679 0.985 . S
N1667 C1669 1.356 . S
N1667 H1672 0.984 . S
N1667 H1673 0.985 . S
C1668 C1662 1.379 . S
C1668 C1665 1.363 . S
C1668 N1666 1.356 . S
C1669 C1663 1.363 . S
C1669 C1664 1.379 . S
C1669 N1667 1.356 . S
N1670 C1662 1.356 . S
N1670 H1676 0.984 . S
N1670 H1677 0.984 . S
N1671 C1664 1.356 . S
N1671 H1674 0.984 . S
N1671 H1675 0.985 . S
H1672 N1667 0.984 . S
H1673 N1667 0.985 . S
H1674 N1671 0.984 . S
H1675 N1671 0.985 . S
H1676 N1670 0.984 . S
H1677 N1670 0.984 . S
H1678 N1666 0.984 . S
H1679 N1666 0.985 . S
C1680 C1681 1.363 . S
C1680 C1686 1.379 . S
C1680 N1688 1.356 . S
C1681 C1680 1.363 . S
C1681 C1687 1.363 . S
C1682 C1683 1.363 . S
C1682 C1687 1.379 . S
C1682 N1689 1.356 . S
C1683 C1682 1.363 . S
C1683 C1686 1.363 . S
N1684 C1686 1.356 . S
N1684 H1696 0.984 . S
N1684 H1697 0.985 . S
N1685 C1687 1.356 . S
N1685 H1690 0.984 . S
N1685 H1691 0.985 . S
C1686 C1680 1.379 . S
C1686 C1683 1.363 . S
C1686 N1684 1.356 . S
C1687 C1681 1.363 . S
C1687 C1682 1.379 . S
C1687 N1685 1.356 . S
N1688 C1680 1.356 . S
N1688 H1694 0.984 . S
N1688 H1695 0.984 . S
N1689 C1682 1.356 . S
N1689 H1692 0.984 . S
N1689 H1693 0.985 . S
H1690 N1685 0.984 . S
H1691 N1685 0.985 . S
H1692 N1689 0.984 . S
H1693 N1689 0.985 . S
H1694 N1688 0.984 . S
H1695 N1688 0.984 . S
H1696 N1684 0.984 . S
H1697 N1684 0.985 . S
C1698 C1699 1.363 . S
C1698 C1704 1.379 1_455 S
C1698 N1706 1.356 . S
C1699 C1698 1.363 . S
C1699 C1705 1.363 . S
C1700 C1701 1.363 . S
C1700 C1705 1.379 1_655 S
C1700 N1707 1.356 . S
C1701 C1700 1.363 . S
C1701 C1704 1.363 . S
N1702 C1704 1.356 . S
N1702 H1714 0.984 . S
N1702 H1715 0.985 . S
N1703 C1705 1.356 . S
N1703 H1708 0.984 . S
N1703 H1709 0.985 . S
C1704 C1698 1.379 1_655 S
C1704 C1701 1.363 . S
C1704 N1702 1.356 . S
C1705 C1699 1.363 . S
C1705 C1700 1.379 1_455 S
C1705 N1703 1.356 . S
N1706 C1698 1.356 . S
N1706 H1712 0.984 . S
N1706 H1713 0.984 . S
N1707 C1700 1.356 . S
N1707 H1710 0.984 . S
N1707 H1711 0.985 . S
H1708 N1703 0.984 . S
H1709 N1703 0.985 . S
H1710 N1707 0.984 . S
H1711 N1707 0.985 . S
H1712 N1706 0.984 . S
H1713 N1706 0.984 . S
H1714 N1702 0.984 . S
H1715 N1702 0.985 . S
C1716 C1717 1.363 . S
C1716 C1722 1.379 1_554 S
C1716 N1724 1.356 1_554 S
C1717 C1716 1.363 . S
C1717 C1723 1.363 . S
C1718 C1719 1.363 . S
C1718 C1723 1.379 . S
C1718 N1725 1.356 . S
C1719 C1718 1.363 . S
C1719 C1722 1.363 1_554 S
N1720 C1722 1.356 . S
N1720 H1732 0.984 . S
N1720 H1733 0.985 . S
N1721 C1723 1.356 . S
N1721 H1726 0.984 . S
N1721 H1727 0.985 . S
C1722 C1716 1.379 1_556 S
C1722 C1719 1.363 1_556 S
C1722 N1720 1.356 . S
C1723 C1717 1.363 . S
C1723 C1718 1.379 . S
C1723 N1721 1.356 . S
N1724 C1716 1.356 1_556 S
N1724 H1730 0.984 . S
N1724 H1731 0.984 1_556 S
N1725 C1718 1.356 . S
N1725 H1728 0.984 . S
N1725 H1729 0.985 . S
H1726 N1721 0.984 . S
H1727 N1721 0.985 . S
H1728 N1725 0.984 . S
H1729 N1725 0.985 . S
H1730 N1724 0.984 . S
H1731 N1724 0.984 1_554 S
H1732 N1720 0.984 . S
H1733 N1720 0.985 . S
C1734 C1735 1.363 1_545 S
C1734 C1740 1.379 1_655 S
C1734 N1742 1.356 . S
C1735 C1734 1.363 1_565 S
C1735 C1741 1.363 . S
C1736 C1737 1.363 1_565 S
C1736 C1741 1.379 1_455 S
C1736 N1743 1.356 . S
C1737 C1736 1.363 1_545 S
C1737 C1740 1.363 . S
N1738 C1740 1.356 . S
N1738 H1750 0.984 . S
N1738 H1751 0.985 . S
N1739 C1741 1.356 . S
N1739 H1744 0.984 . S
N1739 H1745 0.985 . S
C1740 C1734 1.379 1_455 S
C1740 C1737 1.363 . S
C1740 N1738 1.356 . S
C1741 C1735 1.363 . S
C1741 C1736 1.379 1_655 S
C1741 N1739 1.356 . S
N1742 C1734 1.356 . S
N1742 H1748 0.984 . S
N1742 H1749 0.984 1_545 S
N1743 C1736 1.356 . S
N1743 H1746 0.984 1_565 S
N1743 H1747 0.985 . S
H1744 N1739 0.984 . S
H1745 N1739 0.985 . S
H1746 N1743 0.984 1_545 S
H1747 N1743 0.985 . S
H1748 N1742 0.984 . S
H1749 N1742 0.984 1_565 S
H1750 N1738 0.984 . S
H1751 N1738 0.985 . S
C1752 C1753 1.363 . S
C1752 C1758 1.379 . S
C1752 N1760 1.356 . S
C1753 C1752 1.363 . S
C1753 C1759 1.363 . S
C1754 C1755 1.363 . S
C1754 C1759 1.379 . S
C1754 N1761 1.356 . S
C1755 C1754 1.363 . S
C1755 C1758 1.363 . S
N1756 C1758 1.356 . S
N1756 H1768 0.984 . S
N1756 H1769 0.985 . S
N1757 C1759 1.356 . S
N1757 H1762 0.984 . S
N1757 H1763 0.985 . S
C1758 C1752 1.379 . S
C1758 C1755 1.363 . S
C1758 N1756 1.356 . S
C1759 C1753 1.363 . S
C1759 C1754 1.379 . S
C1759 N1757 1.356 . S
N1760 C1752 1.356 . S
N1760 H1766 0.984 . S
N1760 H1767 0.984 . S
N1761 C1754 1.356 . S
N1761 H1764 0.984 . S
N1761 H1765 0.985 . S
H1762 N1757 0.984 . S
H1763 N1757 0.985 . S
H1764 N1761 0.984 . S
H1765 N1761 0.985 . S
H1766 N1760 0.984 . S
H1767 N1760 0.984 . S
H1768 N1756 0.984 . S
H1769 N1756 0.985 . S
C1770 C1771 1.363 . S
C1770 C1776 1.379 . S
C1770 N1778 1.356 . S
C1771 C1770 1.363 . S
C1771 C1777 1.363 . S
C1772 C1773 1.363 . S
C1772 C1777 1.379 . S
C1772 N1779 1.356 . S
C1773 C1772 1.363 . S
C1773 C1776 1.363 . S
N1774 C1776 1.356 . S
N1774 H1786 0.984 . S
N1774 H1787 0.985 . S
N1775 C1777 1.356 . S
N1775 H1780 0.984 . S
N1775 H1781 0.985 . S
C1776 C1770 1.379 . S
C1776 C1773 1.363 . S
C1776 N1774 1.356 . S
C1777 C1771 1.363 . S
C1777 C1772 1.379 . S
C1777 N1775 1.356 . S
N1778 C1770 1.356 . S
N1778 H1784 0.984 . S
N1778 H1785 0.984 . S
N1779 C1772 1.356 . S
N1779 H1782 0.984 . S
N1779 H1783 0.985 . S
H1780 N1775 0.984 . S
H1781 N1775 0.985 . S
H1782 N1779 0.984 . S
H1783 N1779 0.985 . S
H1784 N1778 0.984 . S
H1785 N1778 0.984 . S
H1786 N1774 0.984 . S
H1787 N1774 0.985 . S
C1788 C1789 1.363 . S
C1788 C1794 1.379 . S
C1788 N1796 1.356 . S
C1789 C1788 1.363 . S
C1789 C1795 1.363 1_556 S
C1790 C1791 1.363 . S
C1790 C1795 1.379 1_556 S
C1790 N1797 1.356 1_556 S
C1791 C1790 1.363 . S
C1791 C1794 1.363 . S
N1792 C1794 1.356 . S
N1792 H1804 0.984 . S
N1792 H1805 0.985 . S
N1793 C1795 1.356 . S
N1793 H1798 0.984 . S
N1793 H1799 0.985 . S
C1794 C1788 1.379 . S
C1794 C1791 1.363 . S
C1794 N1792 1.356 . S
C1795 C1789 1.363 1_554 S
C1795 C1790 1.379 1_554 S
C1795 N1793 1.356 . S
N1796 C1788 1.356 . S
N1796 H1802 0.984 . S
N1796 H1803 0.984 . S
N1797 C1790 1.356 1_554 S
N1797 H1800 0.979 1_554 S
N1797 H1801 0.985 . S
H1798 N1793 0.984 . S
H1799 N1793 0.985 . S
H1800 N1797 0.979 1_556 S
H1801 N1797 0.985 . S
H1802 N1796 0.984 . S
H1803 N1796 0.984 . S
H1804 N1792 0.984 . S
H1805 N1792 0.985 . S
C1806 C1807 1.363 1_545 S
C1806 C1812 1.379 . S
C1806 N1814 1.356 . S
C1807 C1806 1.363 1_565 S
C1807 C1813 1.363 . S
C1808 C1809 1.363 1_565 S
C1808 C1813 1.379 . S
C1808 N1815 1.356 . S
C1809 C1808 1.363 1_545 S
C1809 C1812 1.363 . S
N1810 C1812 1.356 . S
N1810 H1822 0.984 . S
N1810 H1823 0.985 . S
N1811 C1813 1.356 . S
N1811 H1816 0.984 . S
N1811 H1817 0.985 . S
C1812 C1806 1.379 . S
C1812 C1809 1.363 . S
C1812 N1810 1.356 . S
C1813 C1807 1.363 . S
C1813 C1808 1.379 . S
C1813 N1811 1.356 . S
N1814 C1806 1.356 . S
N1814 H1820 0.984 . S
N1814 H1821 0.984 1_545 S
N1815 C1808 1.356 . S
N1815 H1818 0.984 1_565 S
N1815 H1819 0.985 . S
H1816 N1811 0.984 . S
H1817 N1811 0.985 . S
H1818 N1815 0.984 1_545 S
H1819 N1815 0.985 . S
H1820 N1814 0.984 . S
H1821 N1814 0.984 1_565 S
H1822 N1810 0.984 . S
H1823 N1810 0.985 . S
C1824 C1825 1.363 . S
C1824 C1830 1.379 . S
C1824 N1832 1.356 . S
C1825 C1824 1.363 . S
C1825 C1831 1.363 . S
C1826 C1827 1.363 . S
C1826 C1831 1.379 . S
C1826 N1833 1.356 . S
C1827 C1826 1.363 . S
C1827 C1830 1.363 . S
N1828 C1830 1.356 . S
N1828 H1840 0.984 . S
N1828 H1841 0.985 . S
N1829 C1831 1.356 . S
N1829 H1834 0.984 . S
N1829 H1835 0.985 . S
C1830 C1824 1.379 . S
C1830 C1827 1.363 . S
C1830 N1828 1.356 . S
C1831 C1825 1.363 . S
C1831 C1826 1.379 . S
C1831 N1829 1.356 . S
N1832 C1824 1.356 . S
N1832 H1838 0.984 . S
N1832 H1839 0.984 . S
N1833 C1826 1.356 . S
N1833 H1836 0.984 . S
N1833 H1837 0.985 . S
H1834 N1829 0.984 . S
H1835 N1829 0.985 . S
H1836 N1833 0.984 . S
H1837 N1833 0.985 . S
H1838 N1832 0.984 . S
H1839 N1832 0.984 . S
H1840 N1828 0.984 . S
H1841 N1828 0.985 . S
C1842 C1843 1.363 . S
C1842 C1848 1.379 . S
C1842 N1850 1.356 . S
C1843 C1842 1.363 . S
C1843 C1849 1.363 . S
C1844 C1845 1.363 . S
C1844 C1849 1.379 . S
C1844 N1851 1.356 . S
C1845 C1844 1.363 . S
C1845 C1848 1.363 . S
N1846 C1848 1.356 . S
N1846 H1858 0.984 . S
N1846 H1859 0.985 . S
N1847 C1849 1.356 . S
N1847 H1852 0.984 . S
N1847 H1853 0.985 . S
C1848 C1842 1.379 . S
C1848 C1845 1.363 . S
C1848 N1846 1.356 . S
C1849 C1843 1.363 . S
C1849 C1844 1.379 . S
C1849 N1847 1.356 . S
N1850 C1842 1.356 . S
N1850 H1856 0.984 . S
N1850 H1857 0.984 . S
N1851 C1844 1.356 . S
N1851 H1854 0.984 . S
N1851 H1855 0.985 . S
H1852 N1847 0.984 . S
H1853 N1847 0.985 . S
H1854 N1851 0.984 . S
H1855 N1851 0.985 . S
H1856 N1850 0.984 . S
H1857 N1850 0.984 . S
H1858 N1846 0.984 . S
H1859 N1846 0.985 . S
C1860 C1861 1.363 . S
C1860 C1866 1.379 . S
C1860 N1868 1.356 . S
C1861 C1860 1.363 . S
C1861 C1867 1.363 . S
C1862 C1863 1.363 . S
C1862 C1867 1.379 . S
C1862 N1869 1.356 . S
C1863 C1862 1.363 . S
C1863 C1866 1.363 . S
N1864 C1866 1.356 . S
N1864 H1876 0.984 . S
N1864 H1877 0.985 . S
N1865 C1867 1.356 . S
N1865 H1870 0.984 . S
N1865 H1871 0.985 . S
C1866 C1860 1.379 . S
C1866 C1863 1.363 . S
C1866 N1864 1.356 . S
C1867 C1861 1.363 . S
C1867 C1862 1.379 . S
C1867 N1865 1.356 . S
N1868 C1860 1.356 . S
N1868 H1874 0.984 . S
N1868 H1875 0.984 . S
N1869 C1862 1.356 . S
N1869 H1872 0.984 . S
N1869 H1873 0.985 . S
H1870 N1865 0.984 . S
H1871 N1865 0.985 . S
H1872 N1869 0.984 . S
H1873 N1869 0.985 . S
H1874 N1868 0.984 . S
H1875 N1868 0.984 . S
H1876 N1864 0.984 . S
H1877 N1864 0.985 . S
C1878 C1879 1.363 . S
C1878 C1884 1.379 . S
C1878 N1886 1.356 . S
C1879 C1878 1.363 . S
C1879 C1885 1.363 . S
C1880 C1881 1.363 . S
C1880 C1885 1.379 . S
C1880 N1887 1.356 . S
C1881 C1880 1.363 . S
C1881 C1884 1.363 . S
N1882 C1884 1.356 . S
N1882 H1894 0.984 . S
N1882 H1895 0.985 . S
N1883 C1885 1.356 . S
N1883 H1888 0.984 . S
N1883 H1889 0.985 . S
C1884 C1878 1.379 . S
C1884 C1881 1.363 . S
C1884 N1882 1.356 . S
C1885 C1879 1.363 . S
C1885 C1880 1.379 . S
C1885 N1883 1.356 . S
N1886 C1878 1.356 . S
N1886 H1892 0.984 . S
N1886 H1893 0.984 . S
N1887 C1880 1.356 . S
N1887 H1890 0.984 . S
N1887 H1891 0.985 . S
H1888 N1883 0.984 . S
H1889 N1883 0.985 . S
H1890 N1887 0.984 . S
H1891 N1887 0.985 . S
H1892 N1886 0.984 . S
H1893 N1886 0.984 . S
H1894 N1882 0.984 . S
H1895 N1882 0.985 . S
C1896 C1897 1.363 1_554 S
C1896 C1902 1.379 . S
C1896 N1904 1.355 1_554 S
C1897 C1896 1.363 1_556 S
C1897 C1903 1.363 . S
C1898 C1899 1.363 1_556 S
C1898 C1903 1.379 . S
C1898 N1905 1.356 . S
C1899 C1898 1.363 1_554 S
C1899 C1902 1.363 . S
N1900 C1902 1.356 . S
N1900 H1912 0.984 . S
N1900 H1913 0.985 . S
N1901 C1903 1.356 . S
N1901 H1906 0.984 . S
N1901 H1907 0.985 . S
C1902 C1896 1.379 . S
C1902 C1899 1.363 . S
C1902 N1900 1.356 . S
C1903 C1897 1.363 . S
C1903 C1898 1.379 . S
C1903 N1901 1.356 . S
N1904 C1896 1.355 1_556 S
N1904 H1910 0.979 1_556 S
N1904 H1911 0.991 . S
N1905 C1898 1.356 . S
N1905 H1908 0.984 1_556 S
N1905 H1909 0.985 . S
H1906 N1901 0.984 . S
H1907 N1901 0.985 . S
H1908 N1905 0.984 1_554 S
H1909 N1905 0.985 . S
H1910 N1904 0.979 1_554 S
H1911 N1904 0.991 . S
H1912 N1900 0.984 . S
H1913 N1900 0.985 . S
C1914 C1915 1.363 . S
C1914 C1920 1.379 . S
C1914 N1922 1.356 . S
C1915 C1914 1.363 . S
C1915 C1921 1.363 . S
C1916 C1917 1.363 . S
C1916 C1921 1.379 . S
C1916 N1923 1.356 . S
C1917 C1916 1.363 . S
C1917 C1920 1.363 . S
N1918 C1920 1.356 . S
N1918 H1930 0.984 . S
N1918 H1931 0.985 . S
N1919 C1921 1.356 . S
N1919 H1924 0.984 . S
N1919 H1925 0.985 . S
C1920 C1914 1.379 . S
C1920 C1917 1.363 . S
C1920 N1918 1.356 . S
C1921 C1915 1.363 . S
C1921 C1916 1.379 . S
C1921 N1919 1.356 . S
N1922 C1914 1.356 . S
N1922 H1928 0.984 . S
N1922 H1929 0.984 . S
N1923 C1916 1.356 . S
N1923 H1926 0.984 . S
N1923 H1927 0.985 . S
H1924 N1919 0.984 . S
H1925 N1919 0.985 . S
H1926 N1923 0.984 . S
H1927 N1923 0.985 . S
H1928 N1922 0.984 . S
H1929 N1922 0.984 . S
H1930 N1918 0.984 . S
H1931 N1918 0.985 . S
C1932 C1933 1.363 . S
C1932 C1938 1.379 1_554 S
C1932 N1940 1.356 . S
C1933 C1932 1.363 . S
C1933 C1939 1.334 1_554 S
C1934 C1935 1.363 . S
C1934 C1939 1.410 . S
C1934 N1941 1.356 . S
C1935 C1934 1.363 . S
C1935 C1938 1.363 . S
N1936 C1938 1.356 . S
N1936 H1948 0.984 . S
N1936 H1949 0.985 . S
N1937 C1939 1.344 1_554 S
N1937 H1942 0.984 . S
N1937 H1943 0.985 1_554 S
C1938 C1932 1.379 1_556 S
C1938 C1935 1.363 . S
C1938 N1936 1.356 . S
C1939 C1933 1.334 1_556 S
C1939 C1934 1.410 . S
C1939 N1937 1.344 1_556 S
N1940 C1932 1.356 . S
N1940 H1946 0.984 . S
N1940 H1947 0.984 . S
N1941 C1934 1.356 . S
N1941 H1944 0.984 . S
N1941 H1945 0.985 . S
H1942 N1937 0.984 . S
H1943 N1937 0.985 1_556 S
H1944 N1941 0.984 . S
H1945 N1941 0.985 . S
H1946 N1940 0.984 . S
H1947 N1940 0.984 . S
H1948 N1936 0.984 . S
H1949 N1936 0.985 . S
C1950 C1951 1.363 . S
C1950 C1956 1.379 . S
C1950 N1958 1.356 . S
C1951 C1950 1.363 . S
C1951 C1957 1.365 . S
C1952 C1953 1.363 . S
C1952 C1957 1.384 . S
C1952 N1959 1.356 . S
C1953 C1952 1.363 . S
C1953 C1956 1.363 . S
N1954 C1956 1.356 . S
N1954 H1966 0.984 . S
N1954 H1967 0.985 . S
N1955 C1957 1.349 1_565 S
N1955 H1960 0.984 . S
N1955 H1961 0.985 . S
C1956 C1950 1.379 . S
C1956 C1953 1.363 . S
C1956 N1954 1.356 . S
C1957 C1951 1.365 . S
C1957 C1952 1.384 . S
C1957 N1955 1.349 1_545 S
N1958 C1950 1.356 . S
N1958 H1964 0.984 . S
N1958 H1965 0.984 . S
N1959 C1952 1.356 . S
N1959 H1962 0.984 . S
N1959 H1963 0.985 . S
H1960 N1955 0.984 . S
H1961 N1955 0.985 . S
H1962 N1959 0.984 . S
H1963 N1959 0.985 . S
H1964 N1958 0.984 . S
H1965 N1958 0.984 . S
H1966 N1954 0.984 . S
H1967 N1954 0.985 . S
C1968 C1969 1.363 . S
C1968 C1974 1.379 . S
C1968 N1976 1.356 . S
C1969 C1968 1.363 . S
C1969 C1975 1.363 . S
C1970 C1971 1.363 . S
C1970 C1975 1.379 . S
C1970 N1977 1.356 1_556 S
C1971 C1970 1.363 . S
C1971 C1974 1.363 . S
N1972 C1974 1.356 . S
N1972 H1984 0.984 . S
N1972 H1985 0.985 . S
N1973 C1975 1.356 . S
N1973 H1978 0.984 . S
N1973 H1979 0.985 1_556 S
C1974 C1968 1.379 . S
C1974 C1971 1.363 . S
C1974 N1972 1.356 . S
C1975 C1969 1.363 . S
C1975 C1970 1.379 . S
C1975 N1973 1.356 . S
N1976 C1968 1.356 . S
N1976 H1982 0.984 . S
N1976 H1983 0.984 . S
N1977 C1970 1.356 1_554 S
N1977 H1980 0.986 . S
N1977 H1981 0.985 . S
H1978 N1973 0.984 . S
H1979 N1973 0.985 1_554 S
H1980 N1977 0.986 . S
H1981 N1977 0.985 . S
H1982 N1976 0.984 . S
H1983 N1976 0.984 . S
H1984 N1972 0.984 . S
H1985 N1972 0.985 . S
C1986 C1987 1.363 . S
C1986 C1992 1.379 . S
C1986 N1994 1.356 . S
C1987 C1986 1.363 . S
C1987 C1993 1.363 . S
C1988 C1989 1.363 . S
C1988 C1993 1.379 . S
C1988 N1995 1.356 . S
C1989 C1988 1.363 . S
C1989 C1992 1.363 . S
N1990 C1992 1.356 . S
N1990 H2002 0.984 . S
N1990 H2003 0.985 . S
N1991 C1993 1.356 . S
N1991 H1996 0.984 . S
N1991 H1997 0.985 . S
C1992 C1986 1.379 . S
C1992 C1989 1.363 . S
C1992 N1990 1.356 . S
C1993 C1987 1.363 . S
C1993 C1988 1.379 . S
C1993 N1991 1.356 . S
N1994 C1986 1.356 . S
N1994 H2000 0.984 . S
N1994 H2001 0.984 . S
N1995 C1988 1.356 . S
N1995 H1998 0.984 . S
N1995 H1999 0.985 . S
H1996 N1991 0.984 . S
H1997 N1991 0.985 . S
H1998 N1995 0.984 . S
H1999 N1995 0.985 . S
H2000 N1994 0.984 . S
H2001 N1994 0.984 . S
H2002 N1990 0.984 . S
H2003 N1990 0.985 . S
C2004 C2005 1.363 . S
C2004 C2010 1.379 . S
C2004 N2012 1.356 . S
C2005 C2004 1.363 . S
C2005 C2011 1.363 . S
C2006 C2007 1.363 . S
C2006 C2011 1.379 . S
C2006 N2013 1.356 . S
C2007 C2006 1.363 . S
C2007 C2010 1.363 . S
N2008 C2010 1.356 . S
N2008 H2020 0.984 . S
N2008 H2021 0.985 . S
N2009 C2011 1.356 . S
N2009 H2014 0.984 . S
N2009 H2015 0.985 . S
C2010 C2004 1.379 . S
C2010 C2007 1.363 . S
C2010 N2008 1.356 . S
C2011 C2005 1.363 . S
C2011 C2006 1.379 . S
C2011 N2009 1.356 . S
N2012 C2004 1.356 . S
N2012 H2018 0.984 . S
N2012 H2019 0.984 . S
N2013 C2006 1.356 . S
N2013 H2016 0.984 . S
N2013 H2017 0.985 . S
H2014 N2009 0.984 . S
H2015 N2009 0.985 . S
H2016 N2013 0.984 . S
H2017 N2013 0.985 . S
H2018 N2012 0.984 . S
H2019 N2012 0.984 . S
H2020 N2008 0.984 . S
H2021 N2008 0.985 . S
C2022 C2023 1.363 . S
C2022 C2028 1.379 . S
C2022 N2030 1.356 . S
C2023 C2022 1.363 . S
C2023 C2029 1.363 1_565 S
C2024 C2025 1.363 . S
C2024 C2029 1.379 1_565 S
C2024 N2031 1.360 . S
C2025 C2024 1.363 . S
C2025 C2028 1.363 . S
N2026 C2028 1.356 . S
N2026 H2038 0.984 . S
N2026 H2039 0.985 . S
N2027 C2029 1.356 . S
N2027 H2032 0.984 . S
N2027 H2033 0.985 . S
C2028 C2022 1.379 . S
C2028 C2025 1.363 . S
C2028 N2026 1.356 . S
C2029 C2023 1.363 1_545 S
C2029 C2024 1.379 1_545 S
C2029 N2027 1.356 . S
N2030 C2022 1.356 . S
N2030 H2036 0.984 . S
N2030 H2037 0.984 . S
N2031 C2024 1.360 . S
N2031 H2034 0.993 . S
N2031 H2035 0.973 1_565 S
H2032 N2027 0.984 . S
H2033 N2027 0.985 . S
H2034 N2031 0.993 . S
H2035 N2031 0.973 1_545 S
H2036 N2030 0.984 . S
H2037 N2030 0.984 . S
H2038 N2026 0.984 . S
H2039 N2026 0.985 . S
C2040 C2041 1.363 . S
C2040 C2046 1.379 . S
C2040 N2048 1.356 . S
C2041 C2040 1.363 . S
C2041 C2047 1.363 . S
C2042 C2043 1.363 . S
C2042 C2047 1.379 . S
C2042 N2049 1.356 . S
C2043 C2042 1.363 . S
C2043 C2046 1.363 . S
N2044 C2046 1.356 . S
N2044 H2056 0.984 . S
N2044 H2057 0.985 . S
N2045 C2047 1.356 . S
N2045 H2050 0.984 . S
N2045 H2051 0.985 . S
C2046 C2040 1.379 . S
C2046 C2043 1.363 . S
C2046 N2044 1.356 . S
C2047 C2041 1.363 . S
C2047 C2042 1.379 . S
C2047 N2045 1.356 . S
N2048 C2040 1.356 . S
N2048 H2054 0.984 . S
N2048 H2055 0.984 . S
N2049 C2042 1.356 . S
N2049 H2052 0.984 . S
N2049 H2053 0.985 . S
H2050 N2045 0.984 . S
H2051 N2045 0.985 . S
H2052 N2049 0.984 . S
H2053 N2049 0.985 . S
H2054 N2048 0.984 . S
H2055 N2048 0.984 . S
H2056 N2044 0.984 . S
H2057 N2044 0.985 . S
C2058 C2059 1.363 . S
C2058 C2064 1.379 . S
C2058 N2066 1.356 . S
C2059 C2058 1.363 . S
C2059 C2065 1.363 . S
C2060 C2061 1.363 . S
C2060 C2065 1.379 . S
C2060 N2067 1.356 . S
C2061 C2060 1.363 . S
C2061 C2064 1.363 . S
N2062 C2064 1.356 . S
N2062 H2074 0.984 . S
N2062 H2075 0.985 . S
N2063 C2065 1.356 . S
N2063 H2068 0.984 . S
N2063 H2069 0.985 . S
C2064 C2058 1.379 . S
C2064 C2061 1.363 . S
C2064 N2062 1.356 . S
C2065 C2059 1.363 . S
C2065 C2060 1.379 . S
C2065 N2063 1.356 . S
N2066 C2058 1.356 . S
N2066 H2072 0.984 . S
N2066 H2073 0.984 . S
N2067 C2060 1.356 . S
N2067 H2070 0.984 . S
N2067 H2071 0.985 . S
H2068 N2063 0.984 . S
H2069 N2063 0.985 . S
H2070 N2067 0.984 . S
H2071 N2067 0.985 . S
H2072 N2066 0.984 . S
H2073 N2066 0.984 . S
H2074 N2062 0.984 . S
H2075 N2062 0.985 . S
C2076 C2077 1.363 . S
C2076 C2082 1.379 . S
C2076 N2084 1.356 . S
C2077 C2076 1.363 . S
C2077 C2083 1.363 . S
C2078 C2079 1.363 . S
C2078 C2083 1.379 . S
C2078 N2085 1.356 . S
C2079 C2078 1.363 . S
C2079 C2082 1.363 . S
N2080 C2082 1.356 . S
N2080 H2092 0.984 . S
N2080 H2093 0.985 . S
N2081 C2083 1.356 . S
N2081 H2086 0.984 . S
N2081 H2087 0.985 . S
C2082 C2076 1.379 . S
C2082 C2079 1.363 . S
C2082 N2080 1.356 . S
C2083 C2077 1.363 . S
C2083 C2078 1.379 . S
C2083 N2081 1.356 . S
N2084 C2076 1.356 . S
N2084 H2090 0.984 . S
N2084 H2091 0.984 . S
N2085 C2078 1.356 . S
N2085 H2088 0.984 . S
N2085 H2089 0.985 1_554 S
H2086 N2081 0.984 . S
H2087 N2081 0.985 . S
H2088 N2085 0.984 . S
H2089 N2085 0.985 1_556 S
H2090 N2084 0.984 . S
H2091 N2084 0.984 . S
H2092 N2080 0.984 . S
H2093 N2080 0.985 . S
C2094 C2095 1.363 . S
C2094 C2100 1.379 . S
C2094 N2102 1.356 . S
C2095 C2094 1.363 . S
C2095 C2101 1.394 . S
C2096 C2097 1.363 1_556 S
C2096 C2101 1.369 1_556 S
C2096 N2103 1.356 . S
C2097 C2096 1.363 1_554 S
C2097 C2100 1.363 . S
N2098 C2100 1.356 . S
N2098 H2110 0.984 . S
N2098 H2111 0.985 . S
N2099 C2101 1.344 1_556 S
N2099 H2104 0.984 1_556 S
N2099 H2105 0.985 . S
C2100 C2094 1.379 . S
C2100 C2097 1.363 . S
C2100 N2098 1.356 . S
C2101 C2095 1.394 . S
C2101 C2096 1.369 1_554 S
C2101 N2099 1.344 1_554 S
N2102 C2094 1.356 . S
N2102 H2108 0.984 . S
N2102 H2109 0.984 . S
N2103 C2096 1.356 . S
N2103 H2106 0.984 . S
N2103 H2107 0.985 . S
H2104 N2099 0.984 1_554 S
H2105 N2099 0.985 . S
H2106 N2103 0.984 . S
H2107 N2103 0.985 . S
H2108 N2102 0.984 . S
H2109 N2102 0.984 . S
H2110 N2098 0.984 . S
H2111 N2098 0.985 . S
C2112 C2113 1.363 . S
C2112 C2118 1.379 . S
C2112 N2120 1.356 . S
C2113 C2112 1.363 . S
C2113 C2119 1.363 . S
C2114 C2115 1.363 . S
C2114 C2119 1.379 . S
C2114 N2121 1.356 . S
C2115 C2114 1.363 . S
C2115 C2118 1.363 . S
N2116 C2118 1.356 . S
N2116 H2128 0.984 . S
N2116 H2129 0.985 . S
N2117 C2119 1.356 . S
N2117 H2122 0.984 . S
N2117 H2123 0.985 . S
C2118 C2112 1.379 . S
C2118 C2115 1.363 . S
C2118 N2116 1.356 . S
C2119 C2113 1.363 . S
C2119 C2114 1.379 . S
C2119 N2117 1.356 . S
N2120 C2112 1.356 . S
N2120 H2126 0.984 . S
N2120 H2127 0.984 . S
N2121 C2114 1.356 . S
N2121 H2124 0.984 . S
N2121 H2125 0.985 . S
H2122 N2117 0.984 . S
H2123 N2117 0.985 . S
H2124 N2121 0.984 . S
H2125 N2121 0.985 . S
H2126 N2120 0.984 . S
H2127 N2120 0.984 . S
H2128 N2116 0.984 . S
H2129 N2116 0.985 . S
C2130 C2131 1.363 1_554 S
C2130 C2136 1.379 . S
C2130 N2138 1.356 . S
C2131 C2130 1.363 1_556 S
C2131 C2137 1.363 . S
C2132 C2133 1.363 . S
C2132 C2137 1.379 . S
C2132 N2139 1.356 . S
C2133 C2132 1.363 . S
C2133 C2136 1.363 1_556 S
N2134 C2136 1.356 . S
N2134 H2146 0.984 . S
N2134 H2147 0.985 . S
N2135 C2137 1.356 . S
N2135 H2140 0.984 . S
N2135 H2141 0.985 . S
C2136 C2130 1.379 . S
C2136 C2133 1.363 1_554 S
C2136 N2134 1.356 . S
C2137 C2131 1.363 . S
C2137 C2132 1.379 . S
C2137 N2135 1.356 . S
N2138 C2130 1.356 . S
N2138 H2144 0.984 . S
N2138 H2145 0.984 . S
N2139 C2132 1.356 . S
N2139 H2142 0.984 . S
N2139 H2143 0.985 . S
H2140 N2135 0.984 . S
H2141 N2135 0.985 . S
H2142 N2139 0.984 . S
H2143 N2139 0.985 . S
H2144 N2138 0.984 . S
H2145 N2138 0.984 . S
H2146 N2134 0.984 . S
H2147 N2134 0.985 . S
C2148 C2149 1.363 . S
C2148 C2154 1.379 . S
C2148 N2156 1.356 . S
C2149 C2148 1.363 . S
C2149 C2155 1.363 . S
C2150 C2151 1.363 . S
C2150 C2155 1.379 . S
C2150 N2157 1.356 . S
C2151 C2150 1.363 . S
C2151 C2154 1.363 . S
N2152 C2154 1.356 . S
N2152 H2164 0.984 . S
N2152 H2165 0.985 . S
N2153 C2155 1.356 . S
N2153 H2158 0.984 . S
N2153 H2159 0.985 . S
C2154 C2148 1.379 . S
C2154 C2151 1.363 . S
C2154 N2152 1.356 . S
C2155 C2149 1.363 . S
C2155 C2150 1.379 . S
C2155 N2153 1.356 . S
N2156 C2148 1.356 . S
N2156 H2162 0.984 . S
N2156 H2163 0.984 . S
N2157 C2150 1.356 . S
N2157 H2160 0.984 . S
N2157 H2161 0.985 . S
H2158 N2153 0.984 . S
H2159 N2153 0.985 . S
H2160 N2157 0.984 . S
H2161 N2157 0.985 . S
H2162 N2156 0.984 . S
H2163 N2156 0.984 . S
H2164 N2152 0.984 . S
H2165 N2152 0.985 . S
C2166 C2167 1.363 . S
C2166 C2172 1.379 . S
C2166 N2174 1.356 . S
C2167 C2166 1.363 . S
C2167 C2173 1.363 . S
C2168 C2169 1.363 . S
C2168 C2173 1.379 . S
C2168 N2175 1.356 . S
C2169 C2168 1.363 . S
C2169 C2172 1.363 . S
N2170 C2172 1.356 . S
N2170 H2182 0.984 . S
N2170 H2183 0.985 . S
N2171 C2173 1.356 . S
N2171 H2176 0.984 . S
N2171 H2177 0.985 . S
C2172 C2166 1.379 . S
C2172 C2169 1.363 . S
C2172 N2170 1.356 . S
C2173 C2167 1.363 . S
C2173 C2168 1.379 . S
C2173 N2171 1.356 . S
N2174 C2166 1.356 . S
N2174 H2180 0.984 . S
N2174 H2181 0.984 . S
N2175 C2168 1.356 . S
N2175 H2178 0.984 . S
N2175 H2179 0.985 . S
H2176 N2171 0.984 . S
H2177 N2171 0.985 . S
H2178 N2175 0.984 . S
H2179 N2175 0.985 . S
H2180 N2174 0.984 . S
H2181 N2174 0.984 . S
H2182 N2170 0.984 . S
H2183 N2170 0.985 . S
C2184 C2185 1.363 . S
C2184 C2190 1.379 . S
C2184 N2192 1.356 . S
C2185 C2184 1.363 . S
C2185 C2191 1.363 . S
C2186 C2187 1.363 . S
C2186 C2191 1.379 . S
C2186 N2193 1.356 . S
C2187 C2186 1.363 . S
C2187 C2190 1.363 . S
N2188 C2190 1.356 . S
N2188 H2200 0.984 . S
N2188 H2201 0.985 . S
N2189 C2191 1.356 . S
N2189 H2194 0.984 . S
N2189 H2195 0.985 . S
C2190 C2184 1.379 . S
C2190 C2187 1.363 . S
C2190 N2188 1.356 . S
C2191 C2185 1.363 . S
C2191 C2186 1.379 . S
C2191 N2189 1.356 . S
N2192 C2184 1.356 . S
N2192 H2198 0.984 . S
N2192 H2199 0.984 . S
N2193 C2186 1.356 . S
N2193 H2196 0.984 . S
N2193 H2197 0.985 . S
H2194 N2189 0.984 . S
H2195 N2189 0.985 . S
H2196 N2193 0.984 . S
H2197 N2193 0.985 . S
H2198 N2192 0.984 . S
H2199 N2192 0.984 . S
H2200 N2188 0.984 . S
H2201 N2188 0.985 . S
C2202 C2203 1.363 . S
C2202 C2208 1.379 1_554 S
C2202 N2210 1.356 . S
C2203 C2202 1.363 . S
C2203 C2209 1.335 1_554 S
C2204 C2205 1.363 . S
C2204 C2209 1.408 . S
C2204 N2211 1.356 . S
C2205 C2204 1.363 . S
C2205 C2208 1.363 . S
N2206 C2208 1.356 . S
N2206 H2218 0.984 . S
N2206 H2219 0.985 . S
N2207 C2209 1.345 1_554 S
N2207 H2212 0.984 . S
N2207 H2213 0.985 1_554 S
C2208 C2202 1.379 1_556 S
C2208 C2205 1.363 . S
C2208 N2206 1.356 . S
C2209 C2203 1.335 1_556 S
C2209 C2204 1.408 . S
C2209 N2207 1.345 1_556 S
N2210 C2202 1.356 . S
N2210 H2216 0.984 . S
N2210 H2217 0.984 . S
N2211 C2204 1.356 . S
N2211 H2214 0.984 . S
N2211 H2215 0.985 . S
H2212 N2207 0.984 . S
H2213 N2207 0.985 1_556 S
H2214 N2211 0.984 . S
H2215 N2211 0.985 . S
H2216 N2210 0.984 . S
H2217 N2210 0.984 . S
H2218 N2206 0.984 . S
H2219 N2206 0.985 . S
C2220 C2221 1.363 . S
C2220 C2226 1.379 . S
C2220 N2228 1.356 . S
C2221 C2220 1.363 . S
C2221 C2227 1.363 . S
C2222 C2223 1.363 . S
C2222 C2227 1.379 . S
C2222 N2229 1.356 . S
C2223 C2222 1.363 . S
C2223 C2226 1.363 . S
N2224 C2226 1.356 . S
N2224 H2236 0.984 . S
N2224 H2237 0.985 . S
N2225 C2227 1.356 . S
N2225 H2230 0.984 . S
N2225 H2231 0.985 . S
C2226 C2220 1.379 . S
C2226 C2223 1.363 . S
C2226 N2224 1.356 . S
C2227 C2221 1.363 . S
C2227 C2222 1.379 . S
C2227 N2225 1.356 . S
N2228 C2220 1.356 . S
N2228 H2234 0.984 . S
N2228 H2235 0.984 . S
N2229 C2222 1.356 . S
N2229 H2232 0.984 . S
N2229 H2233 0.985 . S
H2230 N2225 0.984 . S
H2231 N2225 0.985 . S
H2232 N2229 0.984 . S
H2233 N2229 0.985 . S
H2234 N2228 0.984 . S
H2235 N2228 0.984 . S
H2236 N2224 0.984 . S
H2237 N2224 0.985 . S
C2238 C2239 1.363 . S
C2238 C2244 1.379 . S
C2238 N2246 1.356 . S
C2239 C2238 1.363 . S
C2239 C2245 1.363 . S
C2240 C2241 1.363 . S
C2240 C2245 1.379 . S
C2240 N2247 1.356 . S
C2241 C2240 1.363 . S
C2241 C2244 1.363 . S
N2242 C2244 1.356 . S
N2242 H2254 0.984 1_655 S
N2242 H2255 0.985 . S
N2243 C2245 1.356 . S
N2243 H2248 0.984 . S
N2243 H2249 0.985 . S
C2244 C2238 1.379 . S
C2244 C2241 1.363 . S
C2244 N2242 1.356 . S
C2245 C2239 1.363 . S
C2245 C2240 1.379 . S
C2245 N2243 1.356 . S
N2246 C2238 1.356 . S
N2246 H2252 0.984 . S
N2246 H2253 0.984 . S
N2247 C2240 1.356 . S
N2247 H2250 0.984 . S
N2247 H2251 0.985 . S
H2248 N2243 0.984 . S
H2249 N2243 0.985 . S
H2250 N2247 0.984 . S
H2251 N2247 0.985 . S
H2252 N2246 0.984 . S
H2253 N2246 0.984 . S
H2254 N2242 0.984 1_455 S
H2255 N2242 0.985 . S
C2256 C2257 1.363 . S
C2256 C2262 1.379 . S
C2256 N2264 1.356 . S
C2257 C2256 1.363 . S
C2257 C2263 1.363 . S
C2258 C2259 1.363 . S
C2258 C2263 1.379 . S
C2258 N2265 1.356 . S
C2259 C2258 1.363 . S
C2259 C2262 1.363 . S
N2260 C2262 1.356 . S
N2260 H2272 0.984 . S
N2260 H2273 0.985 . S
N2261 C2263 1.356 . S
N2261 H2266 0.984 . S
N2261 H2267 0.985 . S
C2262 C2256 1.379 . S
C2262 C2259 1.363 . S
C2262 N2260 1.356 . S
C2263 C2257 1.363 . S
C2263 C2258 1.379 . S
C2263 N2261 1.356 . S
N2264 C2256 1.356 . S
N2264 H2270 0.984 . S
N2264 H2271 0.984 . S
N2265 C2258 1.356 . S
N2265 H2268 0.984 . S
N2265 H2269 0.985 . S
H2266 N2261 0.984 . S
H2267 N2261 0.985 . S
H2268 N2265 0.984 . S
H2269 N2265 0.985 . S
H2270 N2264 0.984 . S
H2271 N2264 0.984 . S
H2272 N2260 0.984 . S
H2273 N2260 0.985 . S
C2274 C2275 1.363 . S
C2274 C2280 1.379 . S
C2274 N2282 1.356 . S
C2275 C2274 1.363 . S
C2275 C2281 1.363 . S
C2276 C2277 1.363 . S
C2276 C2281 1.379 . S
C2276 N2283 1.356 . S
C2277 C2276 1.363 . S
C2277 C2280 1.363 . S
N2278 C2280 1.356 . S
N2278 H2290 0.984 . S
N2278 H2291 0.985 . S
N2279 C2281 1.356 . S
N2279 H2284 0.984 . S
N2279 H2285 0.985 . S
C2280 C2274 1.379 . S
C2280 C2277 1.363 . S
C2280 N2278 1.356 . S
C2281 C2275 1.363 . S
C2281 C2276 1.379 . S
C2281 N2279 1.356 . S
N2282 C2274 1.356 . S
N2282 H2288 0.984 . S
N2282 H2289 0.984 . S
N2283 C2276 1.356 . S
N2283 H2286 0.984 . S
N2283 H2287 0.985 . S
H2284 N2279 0.984 . S
H2285 N2279 0.985 . S
H2286 N2283 0.984 . S
H2287 N2283 0.985 . S
H2288 N2282 0.984 . S
H2289 N2282 0.984 . S
H2290 N2278 0.984 . S
H2291 N2278 0.985 . S
C2292 C2293 1.363 . S
C2292 C2298 1.379 . S
C2292 N2300 1.356 . S
C2293 C2292 1.363 . S
C2293 C2299 1.363 . S
C2294 C2295 1.363 . S
C2294 C2299 1.379 . S
C2294 N2301 1.356 . S
C2295 C2294 1.363 . S
C2295 C2298 1.363 . S
N2296 C2298 1.356 . S
N2296 H2308 0.984 . S
N2296 H2309 0.985 . S
N2297 C2299 1.356 . S
N2297 H2302 0.984 . S
N2297 H2303 0.985 . S
C2298 C2292 1.379 . S
C2298 C2295 1.363 . S
C2298 N2296 1.356 . S
C2299 C2293 1.363 . S
C2299 C2294 1.379 . S
C2299 N2297 1.356 . S
N2300 C2292 1.356 . S
N2300 H2306 0.984 . S
N2300 H2307 0.984 . S
N2301 C2294 1.356 . S
N2301 H2304 0.984 . S
N2301 H2305 0.985 . S
H2302 N2297 0.984 . S
H2303 N2297 0.985 . S
H2304 N2301 0.984 . S
H2305 N2301 0.985 . S
H2306 N2300 0.984 . S
H2307 N2300 0.984 . S
H2308 N2296 0.984 . S
H2309 N2296 0.985 . S
C2310 C2311 1.363 . S
C2310 C2316 1.379 . S
C2310 N2318 1.356 . S
C2311 C2310 1.363 . S
C2311 C2317 1.363 1_565 S
C2312 C2313 1.363 . S
C2312 C2317 1.379 . S
C2312 N2319 1.356 . S
C2313 C2312 1.363 . S
C2313 C2316 1.363 1_545 S
N2314 C2316 1.356 . S
N2314 H2326 0.984 . S
N2314 H2327 0.985 . S
N2315 C2317 1.356 . S
N2315 H2320 0.984 . S
N2315 H2321 0.985 . S
C2316 C2310 1.379 . S
C2316 C2313 1.363 1_565 S
C2316 N2314 1.356 . S
C2317 C2311 1.363 1_545 S
C2317 C2312 1.379 . S
C2317 N2315 1.356 . S
N2318 C2310 1.356 . S
N2318 H2324 0.984 . S
N2318 H2325 0.984 . S
N2319 C2312 1.356 . S
N2319 H2322 0.984 . S
N2319 H2323 0.985 . S
H2320 N2315 0.984 . S
H2321 N2315 0.985 . S
H2322 N2319 0.984 . S
H2323 N2319 0.985 . S
H2324 N2318 0.984 . S
H2325 N2318 0.984 . S
H2326 N2314 0.984 . S
H2327 N2314 0.985 . S
C2328 C2329 1.363 . S
C2328 C2334 1.379 1_455 S
C2328 N2336 1.356 . S
C2329 C2328 1.363 . S
C2329 C2335 1.363 . S
C2330 C2331 1.363 . S
C2330 C2335 1.379 1_655 S
C2330 N2337 1.356 . S
C2331 C2330 1.363 . S
C2331 C2334 1.363 . S
N2332 C2334 1.356 . S
N2332 H2344 0.984 . S
N2332 H2345 0.985 . S
N2333 C2335 1.356 . S
N2333 H2338 0.984 . S
N2333 H2339 0.985 . S
C2334 C2328 1.379 1_655 S
C2334 C2331 1.363 . S
C2334 N2332 1.356 . S
C2335 C2329 1.363 . S
C2335 C2330 1.379 1_455 S
C2335 N2333 1.356 . S
N2336 C2328 1.356 . S
N2336 H2342 0.984 . S
N2336 H2343 0.984 . S
N2337 C2330 1.356 . S
N2337 H2340 0.984 . S
N2337 H2341 0.985 . S
H2338 N2333 0.984 . S
H2339 N2333 0.985 . S
H2340 N2337 0.984 . S
H2341 N2337 0.985 . S
H2342 N2336 0.984 . S
H2343 N2336 0.984 . S
H2344 N2332 0.984 . S
H2345 N2332 0.985 . S
C2346 C2347 1.363 . S
C2346 C2352 1.379 1_455 S
C2346 N2354 1.356 . S
C2347 C2346 1.363 . S
C2347 C2353 1.363 1_545 S
C2348 C2349 1.363 . S
C2348 C2353 1.379 1_655 S
C2348 N2355 1.356 . S
C2349 C2348 1.363 . S
C2349 C2352 1.363 1_565 S
N2350 C2352 1.356 . S
N2350 H2362 0.984 . S
N2350 H2363 0.985 . S
N2351 C2353 1.356 . S
N2351 H2356 0.984 . S
N2351 H2357 0.985 . S
C2352 C2346 1.379 1_655 S
C2352 C2349 1.363 1_545 S
C2352 N2350 1.356 . S
C2353 C2347 1.363 1_565 S
C2353 C2348 1.379 1_455 S
C2353 N2351 1.356 . S
N2354 C2346 1.356 . S
N2354 H2360 0.984 . S
N2354 H2361 0.984 . S
N2355 C2348 1.356 . S
N2355 H2358 0.984 . S
N2355 H2359 0.985 . S
H2356 N2351 0.984 . S
H2357 N2351 0.985 . S
H2358 N2355 0.984 . S
H2359 N2355 0.985 . S
H2360 N2354 0.984 . S
H2361 N2354 0.984 . S
H2362 N2350 0.984 . S
H2363 N2350 0.985 . S
C2364 C2365 1.363 1_554 S
C2364 C2370 1.379 . S
C2364 N2372 1.356 1_554 S
C2365 C2364 1.363 1_556 S
C2365 C2371 1.363 . S
C2366 C2367 1.363 1_556 S
C2366 C2371 1.379 . S
C2366 N2373 1.356 . S
C2367 C2366 1.363 1_554 S
C2367 C2370 1.363 . S
N2368 C2370 1.356 . S
N2368 H2380 0.984 . S
N2368 H2381 0.985 . S
N2369 C2371 1.356 . S
N2369 H2374 0.984 . S
N2369 H2375 0.985 . S
C2370 C2364 1.379 . S
C2370 C2367 1.363 . S
C2370 N2368 1.356 . S
C2371 C2365 1.363 . S
C2371 C2366 1.379 . S
C2371 N2369 1.356 . S
N2372 C2364 1.356 1_556 S
N2372 H2378 0.984 1_556 S
N2372 H2379 0.984 . S
N2373 C2366 1.356 . S
N2373 H2376 0.984 1_556 S
N2373 H2377 0.985 1_655 S
H2374 N2369 0.984 . S
H2375 N2369 0.985 . S
H2376 N2373 0.984 1_554 S
H2377 N2373 0.985 1_455 S
H2378 N2372 0.984 1_554 S
H2379 N2372 0.984 . S
H2380 N2368 0.984 . S
H2381 N2368 0.985 . S
C2382 C2383 1.363 . S
C2382 C2388 1.379 . S
C2382 N2390 1.356 1_455 S
C2383 C2382 1.363 . S
C2383 C2389 1.363 . S
C2384 C2385 1.363 . S
C2384 C2389 1.379 . S
C2384 N2391 1.356 . S
C2385 C2384 1.363 . S
C2385 C2388 1.363 . S
N2386 C2388 1.356 . S
N2386 H2398 0.984 1_455 S
N2386 H2399 0.985 . S
N2387 C2389 1.356 . S
N2387 H2392 0.984 . S
N2387 H2393 0.985 . S
C2388 C2382 1.379 . S
C2388 C2385 1.363 . S
C2388 N2386 1.356 . S
C2389 C2383 1.363 . S
C2389 C2384 1.379 . S
C2389 N2387 1.356 . S
N2390 C2382 1.356 1_655 S
N2390 H2396 0.984 . S
N2390 H2397 0.984 . S
N2391 C2384 1.356 . S
N2391 H2394 0.984 . S
N2391 H2395 0.985 . S
H2392 N2387 0.984 . S
H2393 N2387 0.985 . S
H2394 N2391 0.984 . S
H2395 N2391 0.985 . S
H2396 N2390 0.984 . S
H2397 N2390 0.984 . S
H2398 N2386 0.984 1_655 S
H2399 N2386 0.985 . S
C673 C385 1.328 . S
C675 C7 1.341 . S
C691 C21 0.806 . S
C693 C541 0.792 . S
C709 C35 1.029 . S
C711 C357 1.093 . S
C727 C569 1.377 . S
C729 C49 1.398 . S
C745 C399 0.993 . S
C747 C65 0.923 . S
C763 C77 1.328 . S
C765 C315 1.341 . S
C781 C427 1.177 . S
C783 C93 1.138 . S
C799 C105 1.093 . S
C801 C287 1.029 . S
C817 C499 1.148 . S
C819 C107 1.137 . S
C835 C469 0.618 . S
C837 C63 0.627 . S
C853 C79 0.888 . S
C855 C597 0.878 . S
C871 C483 0.935 . S
C873 C91 0.955 . S
C889 C121 0.968 . S
C891 C191 0.951 . S
C907 C203 0.750 . S
C909 C135 0.750 . S
C925 C219 1.009 . S
C927 C149 1.035 . S
C943 C175 1.024 . S
C945 C163 0.953 . S
C961 C189 0.935 . S
C963 C343 0.955 . S
C979 C205 0.632 . S
C981 C555 0.607 . S
C997 C371 0.630 . S
C999 C217 0.617 . S
C1015 C387 0.888 . S
C1017 C233 0.878 . S
C1033 C245 1.024 . S
C1035 C415 0.953 . S
C1051 C261 0.677 . S
C1053 C51 0.645 . S
C1069 C275 1.366 . S
C1071 C23 1.337 . S
C1087 C625 1.377 . S
C1089 C301 1.398 . S
C1105 C653 0.792 . S
C1107 C329 0.806 . S
C1123 C345 1.138 . S
C1125 C119 1.177 . S
C1141 C373 0.926 . S
C1143 C147 0.992 . S
C1159 C359 1.140 . S
C1161 C611 1.145 . S
C1177 C471 1.009 . S
C1179 C401 1.035 . S
C1195 C485 0.952 . S
C1197 C429 0.965 . S
C1213 C455 0.750 . S
C1215 C443 0.750 . S
C1231 C247 1.249 . S
C1233 C639 1.285 . S
C1249 C513 1.366 . S
C1251 C331 1.337 . S
C1267 C303 0.647 . S
C1269 C527 0.676 . S
C1285 C665 1.636 . S
C1287 C441 1.656 . S
C1303 C413 0.730 . S
C1305 C637 0.722 . S
C1321 C133 1.656 . S
C1323 C553 1.636 . S
C1339 C161 0.730 . S
C1341 C581 0.722 . S
C1357 C177 1.249 . S
C1359 C583 1.285 . S
C1375 C273 0.942 . S
C1377 C539 0.926 . S
C1393 C259 0.931 . S
C1395 C567 0.921 . S
C1411 C317 0.990 . S
C1413 C595 0.966 . S
C1429 C289 0.686 . S
C1431 C497 0.692 . S
C1447 C623 0.924 . S
C1449 C525 0.929 . S
C1465 C651 0.926 . S
C1467 C511 0.942 . S
C1483 C667 0.607 . S
C1485 C457 0.632 . S
C1501 C609 0.693 . S
C1503 C37 0.684 . S
C1519 C231 0.966 . S
C1521 C9 0.990 . S
C1537 C8 1.942 . S
C1539 C647 2.050 . S
C1555 C22 1.823 . S
C1557 C666 1.956 . S
C1573 C36 1.629 . S
C1575 C619 1.523 1_565 S
C1591 C50 2.113 . S
C1593 C638 2.036 . S
C1609 C59 1.838 . S
C1611 C134 1.665 . S
C1627 C78 1.790 . S
C1629 C148 1.579 . S
C1645 C87 1.773 . S
C1647 C162 1.933 . S
C1663 C106 2.015 . S
C1665 C120 2.298 . S
C1681 C101 2.280 . S
C1683 C549 2.079 . S
C1699 C64 1.756 . S
C1701 C372 1.756 . S
C1717 C73 1.504 . S
C1719 C577 1.624 . S
C1735 C92 2.015 . S
C1737 C344 2.014 . S
C1753 C115 1.316 . S
C1755 C325 1.412 . S
C1771 C129 2.302 . S
C1773 C437 2.302 . S
C1789 C143 1.920 . S
C1791 C297 1.642 . S
C1807 C409 1.511 . S
C1809 C157 1.511 . S
C1825 C176 2.200 . S
C1827 C274 2.184 . S
C1843 C190 1.600 . S
C1845 C232 1.590 . S
C1861 C269 1.854 . S
C1863 C199 1.966 . S
C1879 C610 2.320 . S
C1881 C218 2.303 . S
C1897 C213 2.048 . S
C1899 C227 2.182 . S
C1915 C512 2.184 . S
C1917 C246 2.200 . S
C1933 C171 1.748 . S
C1935 C255 1.846 . S
C1951 C563 1.524 1_545 S
C1953 C288 1.628 . S
C1969 C582 2.033 . S
C1971 C302 2.117 . S
C1987 C316 1.942 . S
C1989 C535 2.050 . S
C2005 C554 1.956 . S
C2007 C330 1.823 . S
C2023 C339 1.773 . S
C2025 C414 1.933 . S
C2041 C428 2.294 . S
C2043 C358 2.018 . S
C2059 C367 1.838 . S
C2061 C442 1.665 . S
C2077 C400 1.578 . S
C2079 C386 1.790 . S
C2095 C381 1.504 . S
C2097 C633 1.624 . S
C2113 C661 2.079 . S
C2115 C353 2.280 . S
C2131 C395 1.920 . S
C2133 C45 1.642 . S
C2149 C17 1.415 . S
C2151 C423 1.313 . S
C2167 C526 1.543 . S
C2169 C456 1.552 . S
C2185 C498 2.320 . S
C2187 C470 2.303 . S
C2203 C241 1.748 . S
C2205 C521 1.846 . S
C2221 C484 1.600 . S
C2223 C596 1.590 . S
C2239 C493 1.858 . S
C2241 C479 2.008 . S
C2257 C204 1.552 . S
C2259 C260 1.543 . S
C2275 C451 1.966 . S
C2277 C507 1.854 . S
C2293 C652 1.567 . S
C2295 C540 1.567 . S
C2311 C568 1.913 . S
C2313 C624 1.912 . S
C2329 C3 2.136 . S
C2331 C311 2.136 . S
C2347 C283 1.916 . S
C2349 C31 1.916 . S
C2365 C465 2.048 . S
C2367 C591 2.182 . S
C2383 C185 2.008 . S
C2385 C605 1.858 . S
