# Generated by pormake.
# Topology sgn, (3)-cn, num edge types: 1
# Building blocks:
#     Node 0, Type 0, BuildingBlock: OLANEW_clean_sbu_2, # of connection points: 3
#     Node 1, Type 0, BuildingBlock: OLANEW_clean_sbu_2, # of connection points: 3
#     Node 2, Type 0, BuildingBlock: OLANEW_clean_sbu_2, # of connection points: 3
#     Node 3, Type 0, BuildingBlock: OLANEW_clean_sbu_2, # of connection points: 3
#     Node 4, Type 0, BuildingBlock: OLANEW_clean_sbu_2, # of connection points: 3
#     Node 5, Type 0, BuildingBlock: OLANEW_clean_sbu_2, # of connection points: 3
#     Node 6, Type 0, BuildingBlock: OLANEW_clean_sbu_2, # of connection points: 3
#     Node 7, Type 0, BuildingBlock: OLANEW_clean_sbu_2, # of connection points: 3
#     Node 8, Type 0, BuildingBlock: OLANEW_clean_sbu_2, # of connection points: 3
#     Node 9, Type 0, BuildingBlock: OLANEW_clean_sbu_2, # of connection points: 3
#     Node 10, Type 0, BuildingBlock: OLANEW_clean_sbu_2, # of connection points: 3
#     Node 11, Type 0, BuildingBlock: OLANEW_clean_sbu_2, # of connection points: 3
#     Node 12, Type 0, BuildingBlock: OLANEW_clean_sbu_2, # of connection points: 3
#     Node 13, Type 0, BuildingBlock: OLANEW_clean_sbu_2, # of connection points: 3
#     Node 14, Type 0, BuildingBlock: OLANEW_clean_sbu_2, # of connection points: 3
#     Node 15, Type 0, BuildingBlock: OLANEW_clean_sbu_2, # of connection points: 3
#     Node 16, Type 0, BuildingBlock: OLANEW_clean_sbu_2, # of connection points: 3
#     Node 17, Type 0, BuildingBlock: OLANEW_clean_sbu_2, # of connection points: 3
#     Node 18, Type 0, BuildingBlock: OLANEW_clean_sbu_2, # of connection points: 3
#     Node 19, Type 0, BuildingBlock: OLANEW_clean_sbu_2, # of connection points: 3
#     Node 20, Type 0, BuildingBlock: OLANEW_clean_sbu_2, # of connection points: 3
#     Node 21, Type 0, BuildingBlock: OLANEW_clean_sbu_2, # of connection points: 3
#     Node 22, Type 0, BuildingBlock: OLANEW_clean_sbu_2, # of connection points: 3
#     Node 23, Type 0, BuildingBlock: OLANEW_clean_sbu_2, # of connection points: 3
#     Edge 24, Type (0, 0), BuildingBlock: EZIPEK_clean_linker_0, # of connection points: 2
#     Edge 25, Type (0, 0), BuildingBlock: EZIPEK_clean_linker_0, # of connection points: 2
#     Edge 26, Type (0, 0), BuildingBlock: EZIPEK_clean_linker_0, # of connection points: 2
#     Edge 27, Type (0, 0), BuildingBlock: EZIPEK_clean_linker_0, # of connection points: 2
#     Edge 28, Type (0, 0), BuildingBlock: EZIPEK_clean_linker_0, # of connection points: 2
#     Edge 29, Type (0, 0), BuildingBlock: EZIPEK_clean_linker_0, # of connection points: 2
#     Edge 30, Type (0, 0), BuildingBlock: EZIPEK_clean_linker_0, # of connection points: 2
#     Edge 31, Type (0, 0), BuildingBlock: EZIPEK_clean_linker_0, # of connection points: 2
#     Edge 32, Type (0, 0), BuildingBlock: EZIPEK_clean_linker_0, # of connection points: 2
#     Edge 33, Type (0, 0), BuildingBlock: EZIPEK_clean_linker_0, # of connection points: 2
#     Edge 34, Type (0, 0), BuildingBlock: EZIPEK_clean_linker_0, # of connection points: 2
#     Edge 35, Type (0, 0), BuildingBlock: EZIPEK_clean_linker_0, # of connection points: 2
#     Edge 36, Type (0, 0), BuildingBlock: EZIPEK_clean_linker_0, # of connection points: 2
#     Edge 37, Type (0, 0), BuildingBlock: EZIPEK_clean_linker_0, # of connection points: 2
#     Edge 38, Type (0, 0), BuildingBlock: EZIPEK_clean_linker_0, # of connection points: 2
#     Edge 39, Type (0, 0), BuildingBlock: EZIPEK_clean_linker_0, # of connection points: 2
#     Edge 40, Type (0, 0), BuildingBlock: EZIPEK_clean_linker_0, # of connection points: 2
#     Edge 41, Type (0, 0), BuildingBlock: EZIPEK_clean_linker_0, # of connection points: 2
#     Edge 42, Type (0, 0), BuildingBlock: EZIPEK_clean_linker_0, # of connection points: 2
#     Edge 43, Type (0, 0), BuildingBlock: EZIPEK_clean_linker_0, # of connection points: 2
#     Edge 44, Type (0, 0), BuildingBlock: EZIPEK_clean_linker_0, # of connection points: 2
#     Edge 45, Type (0, 0), BuildingBlock: EZIPEK_clean_linker_0, # of connection points: 2
#     Edge 46, Type (0, 0), BuildingBlock: EZIPEK_clean_linker_0, # of connection points: 2
#     Edge 47, Type (0, 0), BuildingBlock: EZIPEK_clean_linker_0, # of connection points: 2
#     Edge 48, Type (0, 0), BuildingBlock: EZIPEK_clean_linker_0, # of connection points: 2
#     Edge 49, Type (0, 0), BuildingBlock: EZIPEK_clean_linker_0, # of connection points: 2
#     Edge 50, Type (0, 0), BuildingBlock: EZIPEK_clean_linker_0, # of connection points: 2
#     Edge 51, Type (0, 0), BuildingBlock: EZIPEK_clean_linker_0, # of connection points: 2
#     Edge 52, Type (0, 0), BuildingBlock: EZIPEK_clean_linker_0, # of connection points: 2
#     Edge 53, Type (0, 0), BuildingBlock: EZIPEK_clean_linker_0, # of connection points: 2
#     Edge 54, Type (0, 0), BuildingBlock: EZIPEK_clean_linker_0, # of connection points: 2
#     Edge 55, Type (0, 0), BuildingBlock: EZIPEK_clean_linker_0, # of connection points: 2
#     Edge 56, Type (0, 0), BuildingBlock: EZIPEK_clean_linker_0, # of connection points: 2
#     Edge 57, Type (0, 0), BuildingBlock: EZIPEK_clean_linker_0, # of connection points: 2
#     Edge 58, Type (0, 0), BuildingBlock: EZIPEK_clean_linker_0, # of connection points: 2
#     Edge 59, Type (0, 0), BuildingBlock: EZIPEK_clean_linker_0, # of connection points: 2
# Relax obj value: 0.098
# Max RMSD: 0.302
# Mean RMSD: 0.084
data_MOF--net-sgn--node1-OLANEW_clean_sbu_2--edge1-EZIPEK_clean_linker_0
_symmetry_space_group_name_H-M    P1
_symmetry_Int_Tables_number       1
_symmetry_cell_setting            triclinic
loop_
_symmetry_equiv_pos_as_xyz
'x, y, z'
_cell_length_a     26.78469
_cell_length_b     57.528129
_cell_length_c     26.002138
_cell_angle_alpha  89.012479
_cell_angle_beta   102.16853
_cell_angle_gamma 88.594158
loop_
_atom_site_label
_atom_site_type_symbol
_atom_site_fract_x
_atom_site_fract_y
_atom_site_fract_z
_atom_type_partial_charge
O0 O 0.25375 0.2299 0.08714 0.0
Cd1 Cd 0.29406 0.24896 0.0227 0.0
O2 O 0.20605 0.26158 0.08471 0.0
Cd3 Cd 0.14153 0.28199 0.10163 0.0
O4 O 0.08141 0.30827 0.10371 0.0
C5 C 0.07687 0.32515 0.07072 0.0
O6 O 0.10744 0.32591 0.03734 0.0
C7 C 0.21688 0.24071 0.10079 0.0
C8 C 0.31729 0.21681 0.95137 0.0
O9 O 0.35237 0.22445 0.98805 0.0
O10 O 0.27141 0.2244 0.94849 0.0
O11 O 0.12405 0.70832 0.27129 0.0
Cd12 Cd 0.15226 0.71529 0.18862 0.0
O13 O 0.18934 0.68445 0.3033 0.0
Cd14 Cd 0.2056 0.67965 0.22544 0.0
O15 O 0.16881 0.65723 0.16255 0.0
C16 C 0.12247 0.65383 0.1642 0.0
O17 O 0.10209 0.66499 0.19871 0.0
C18 C 0.14967 0.69585 0.30911 0.0
C19 C 0.18377 0.7609 0.18069 0.0
O20 O 0.13887 0.75512 0.15741 0.0
O21 O 0.21376 0.74511 0.20671 0.0
O22 O 0.34107 0.62752 0.66287 0.0
Cd23 Cd 0.36618 0.6121 0.75329 0.0
O24 O 0.38633 0.65902 0.68036 0.0
Cd25 Cd 0.4059 0.65339 0.76543 0.0
O26 O 0.41113 0.66919 0.842 0.0
C27 C 0.38364 0.68758 0.84114 0.0
O28 O 0.35362 0.69465 0.79666 0.0
C29 C 0.35743 0.64646 0.6477 0.0
C30 C 0.42646 0.57178 0.75625 0.0
O31 O 0.37768 0.57087 0.74813 0.0
O32 O 0.44697 0.59166 0.76405 0.0
O33 O 0.27074 0.24679 0.61832 0.0
Cd34 Cd 0.17945 0.24674 0.61999 0.0
O35 O 0.27325 0.26539 0.69128 0.0
Cd36 Cd 0.31086 0.27919 0.76661 0.0
O37 O 0.32549 0.28921 0.84874 0.0
C38 C 0.35137 0.30677 0.86547 0.0
O39 O 0.37137 0.3194 0.83282 0.0
C40 C 0.2967 0.25631 0.6586 0.0
C41 C 0.143 0.20176 0.62504 0.0
O42 O 0.13403 0.21369 0.58182 0.0
O43 O 0.16905 0.21111 0.66613 0.0
O44 O 0.03251 0.67038 0.49716 0.0
Cd45 Cd -0.00197 0.65453 0.56995 0.0
O46 O 0.09384 0.69184 0.54146 0.0
Cd47 Cd 0.06941 0.69246 0.61662 0.0
O48 O 0.06098 0.71083 0.68768 0.0
C49 C 0.09345 0.72629 0.70368 0.0
O50 O 0.13069 0.72961 0.67883 0.0
C51 C 0.07113 0.683 0.49863 0.0
C52 C 0.92829 0.61974 0.53274 0.0
O53 O 0.97656 0.6161 0.53875 0.0
O54 O 0.91287 0.63975 0.54501 0.0
O55 O 0.30975 0.69144 0.40541 0.0
Cd56 Cd 0.29058 0.71843 0.32958 0.0
O57 O 0.27795 0.71513 0.45708 0.0
Cd58 Cd 0.25699 0.74445 0.40183 0.0
O59 O 0.2434 0.78156 0.38374 0.0
C60 C 0.21296 0.78978 0.34295 0.0
O61 O 0.18836 0.77562 0.30798 0.0
C62 C 0.29962 0.69591 0.44989 0.0
C63 C 0.35583 0.71033 0.26072 0.0
O64 O 0.36804 0.7242 0.2991 0.0
O65 O 0.31286 0.7003 0.25468 0.0
O66 O 0.53882 0.23293 0.68439 0.0
Cd67 Cd 0.63016 0.22224 0.70572 0.0
O68 O 0.5433 0.25976 0.74481 0.0
Cd69 Cd 0.6231 0.25024 0.77765 0.0
O70 O 0.67116 0.22052 0.81274 0.0
C71 C 0.64535 0.20442 0.82749 0.0
O72 O 0.5958 0.20764 0.82221 0.0
C73 C 0.51748 0.2487 0.70672 0.0
C74 C 0.68605 0.24532 0.64269 0.0
O75 O 0.67599 0.25471 0.68383 0.0
O76 O 0.67008 0.22483 0.63137 0.0
O77 O 0.09235 0.18655 0.25805 0.0
Cd78 Cd 0.03855 0.16457 0.30527 0.0
O79 O 0.03489 0.19265 0.18387 0.0
Cd80 Cd 0.96567 0.17932 0.20429 0.0
O81 O 0.88198 0.18191 0.18406 0.0
C82 C 0.86014 0.18131 0.13566 0.0
O83 O 0.88783 0.17758 0.10035 0.0
C84 C 0.07996 0.19455 0.21105 0.0
C85 C 0.09819 0.13248 0.37591 0.0
O86 O 0.08116 0.12745 0.32768 0.0
O87 O 0.08688 0.15264 0.39114 0.0
O88 O 0.31198 0.97304 0.53258 0.0
Cd89 Cd 0.2971 -0.00518 0.60826 0.0
O90 O 0.34274 0.0031 0.49711 0.0
Cd91 Cd 0.31577 0.03032 0.54319 0.0
O92 O 0.26918 0.06169 0.515 0.0
C93 C 0.22218 0.06378 0.51649 0.0
O94 O 0.2015 0.04787 0.54156 0.0
C95 C 0.33234 0.98166 0.49689 0.0
C96 C 0.29692 0.96512 0.69429 0.0
O97 O 0.33859 0.97351 0.6863 0.0
O98 O 0.25515 0.97089 0.66198 0.0
O99 O 0.09791 0.8925 0.02676 0.0
Cd100 Cd 0.01855 0.91592 0.00757 0.0
O101 O 0.06646 0.86932 0.96245 0.0
Cd102 Cd 0.07337 0.84001 0.91141 0.0
O103 O 0.07575 0.81251 0.85468 0.0
C104 C 0.08337 0.79124 0.86886 0.0
O105 O 0.0898 0.78528 0.91886 0.0
C106 C 0.10347 0.87515 -0.00131 0.0
C107 C 0.01473 0.94292 0.91687 0.0
O108 O 0.03544 0.95054 0.96217 0.0
O109 O -0.00501 0.9228 0.91436 0.0
O110 O 0.12692 0.95815 0.35768 0.0
Cd111 Cd 0.17951 0.9386 0.30382 0.0
O112 O 0.1648 0.99027 0.34319 0.0
Cd113 Cd 0.19072 0.02567 0.36118 0.0
O114 O 0.24485 0.05136 0.39897 0.0
C115 C 0.28616 0.05535 0.38408 0.0
O116 O 0.29547 0.04512 0.34217 0.0
C117 C 0.13445 0.9796 0.36634 0.0
C118 C 0.18853 0.89018 0.31816 0.0
O119 O 0.21181 0.90375 0.3533 0.0
O120 O 0.16014 0.89944 0.27663 0.0
O121 O 0.62183 0.00875 0.95947 0.0
Cd122 Cd 0.66515 0.98238 0.03035 0.0
O123 O 0.67858 0.03561 0.98322 0.0
Cd124 Cd 0.70491 0.07055 0.97206 0.0
O125 O 0.70174 0.10685 0.94635 0.0
C126 C 0.71497 0.11232 0.90375 0.0
O127 O 0.73342 0.09621 0.87716 0.0
C128 C 0.63804 0.02894 0.95293 0.0
C129 C 0.59539 0.95893 0.07649 0.0
O130 O 0.61189 0.97873 0.09315 0.0
O131 O 0.61183 0.9501 0.03806 0.0
O132 O 0.38221 0.91365 0.31025 0.0
Cd133 Cd 0.38306 0.89177 0.23068 0.0
O134 O 0.30149 0.92471 0.28254 0.0
Cd135 Cd 0.28707 0.90206 0.21453 0.0
O136 O 0.25344 0.87108 0.17531 0.0
C137 C 0.26918 0.85221 0.20014 0.0
O138 O 0.30726 0.85282 0.2411 0.0
C139 C 0.34311 0.92524 0.31679 0.0
C140 C 0.45122 0.91193 0.17704 0.0
O141 O 0.40431 0.91889 0.16818 0.0
O142 O 0.46569 0.89514 0.21029 0.0
O143 O 0.31032 0.81007 0.06336 0.0
Cd144 Cd 0.39009 0.78709 0.08189 0.0
O145 O 0.3283 0.82886 -0.00432 0.0
Cd146 Cd 0.31192 0.85468 0.93089 0.0
O147 O 0.30889 0.87949 0.86533 0.0
C148 C 0.30136 0.90116 0.87042 0.0
O149 O 0.29321 0.90877 0.91536 0.0
C150 C 0.29791 0.82507 0.02624 0.0
C151 C 0.38887 0.75209 0.00941 0.0
O152 O 0.37155 0.74854 0.05111 0.0
O153 O 0.40688 0.77203 0.00211 0.0
O154 O 0.07451 0.04048 0.55504 0.0
Cd155 Cd 0.04807 0.06032 0.62825 0.0
O156 O 0.01925 0.01232 0.54985 0.0
Cd157 Cd -0.00318 0.02057 0.62359 0.0
O158 O 0.99145 0.00951 0.70308 0.0
C159 C 0.01588 0.99071 0.71981 0.0
O160 O 0.04263 0.98006 0.68984 0.0
C161 C 0.05395 0.0226 0.53245 0.0
C162 C 0.07512 0.10691 0.63076 0.0
O163 O 0.10582 0.0912 0.65605 0.0
O164 O 0.03153 0.10081 0.60468 0.0
O165 O 0.46924 0.09302 0.79703 0.0
Cd166 Cd 0.4035 0.11775 0.74093 0.0
O167 O 0.52047 0.08847 0.74146 0.0
Cd168 Cd 0.46422 0.10177 0.67287 0.0
O169 O 0.41257 0.09635 0.59677 0.0
C170 C 0.431 0.09248 0.55639 0.0
O171 O 0.48057 0.0934 0.55996 0.0
C172 C 0.51096 0.08533 0.78695 0.0
C173 C 0.36939 0.15049 0.80444 0.0
O174 O 0.34817 0.13078 0.79689 0.0
O175 O 0.40588 0.15505 0.78131 0.0
O176 O 0.51926 0.23969 0.09919 0.0
Cd177 Cd 0.54706 0.22473 0.02243 0.0
O178 O 0.50395 0.27644 0.07263 0.0
Cd179 Cd 0.51923 0.27527 -0.00691 0.0
O180 O 0.52489 0.29391 0.9201 0.0
C181 C 0.5016 0.31361 0.9129 0.0
O182 O 0.47674 0.32089 0.94833 0.0
C183 C 0.50566 0.26038 0.10729 0.0
C184 C 0.64763 0.2084 0.05671 0.0
O185 O 0.63757 0.22879 0.03586 0.0
O186 O 0.6102 0.19543 0.0601 0.0
O187 O 0.74559 0.49202 0.3365 0.0
Cd188 Cd 0.71658 0.51391 0.40511 0.0
O189 O 0.67032 0.47748 0.30465 0.0
Cd190 Cd 0.6413 0.48286 0.37587 0.0
O191 O 0.61009 0.45491 0.41617 0.0
C192 C 0.59017 0.43963 0.38408 0.0
O193 O 0.58942 0.44282 0.33376 0.0
C194 C 0.71623 0.48077 0.30136 0.0
C195 C 0.7858 0.54799 0.44737 0.0
O196 O 0.75663 0.55069 0.40171 0.0
O197 O 0.78246 0.5291 0.47313 0.0
O198 O 0.61366 0.65395 0.06634 0.0
Cd199 Cd 0.54706 0.68435 0.03966 0.0
O200 O 0.59213 0.63528 -0.00799 0.0
Cd201 Cd 0.60981 0.60556 0.94723 0.0
O202 O 0.64161 0.57043 0.94544 0.0
C203 C 0.6381 0.55807 0.90492 0.0
O204 O 0.61467 0.56647 0.85858 0.0
C205 C 0.62135 0.6374 0.03691 0.0
C206 C 0.48753 0.69253 0.114 0.0
O207 O 0.53252 0.70057 0.11978 0.0
O208 O 0.47086 0.68032 0.07353 0.0
O209 O 0.8295 0.4513 0.11343 0.0
Cd210 Cd 0.8638 0.44063 0.03677 0.0
O211 O 0.76167 0.42964 0.09353 0.0
Cd212 Cd 0.77513 0.42535 0.01453 0.0
O213 O 0.75417 0.45466 0.95938 0.0
C214 C 0.71543 0.46599 0.96774 0.0
O215 O 0.6913 0.45804 0.00315 0.0
C216 C 0.78918 0.44329 0.12473 0.0
C217 C 0.92935 0.4016 0.05304 0.0
O218 O 0.88118 0.39954 0.03605 0.0
O219 O 0.94649 0.42198 0.0634 0.0
O220 O 0.5423 0.40546 0.59323 0.0
Cd221 Cd 0.48936 0.41233 0.65802 0.0
O222 O 0.60478 0.42596 0.63758 0.0
Cd223 Cd 0.55896 0.44136 0.68895 0.0
O224 O 0.5169 0.47098 0.71207 0.0
C225 C 0.54066 0.48648 0.74095 0.0
O226 O 0.59004 0.48382 0.75963 0.0
C227 C 0.58751 0.41285 0.5994 0.0
C228 C 0.49884 0.378 0.73762 0.0
O229 O 0.53149 0.39407 0.74 0.0
O230 O 0.46233 0.37766 0.69689 0.0
O231 O 0.46862 0.28818 0.34309 0.0
Cd232 Cd 0.4508 0.31074 0.41656 0.0
O233 O 0.43393 0.31589 0.28619 0.0
Cd234 Cd 0.41873 0.32669 0.20313 0.0
O235 O 0.4132 0.3235 0.11847 0.0
C236 C 0.37192 0.32837 0.08546 0.0
O237 O 0.33191 0.33639 0.10205 0.0
C238 C 0.45689 0.29623 0.29615 0.0
C239 C 0.50059 0.35273 0.42027 0.0
O240 O 0.5233 0.3346 0.44461 0.0
O241 O 0.45416 0.35124 0.39537 0.0
O242 O 0.81664 0.56673 0.13346 0.0
Cd243 Cd 0.89285 0.54062 0.15331 0.0
O244 O 0.81757 0.56892 0.04887 0.0
Cd245 Cd 0.89607 0.55549 0.06244 0.0
O246 O 0.96772 0.5732 0.08876 0.0
C247 C 0.98073 0.58804 0.05763 0.0
O248 O 0.95438 0.59016 0.00899 0.0
C249 C 0.7961 0.5736 0.0868 0.0
C250 C 0.88691 0.50391 0.22369 0.0
O251 O 0.90997 0.52252 0.23986 0.0
O252 O 0.86697 0.50267 0.17453 0.0
O253 O 0.7539 0.39793 0.44486 0.0
Cd254 Cd 0.83053 0.38737 0.41188 0.0
O255 O 0.76672 0.37065 0.50739 0.0
Cd256 Cd 0.8286 0.34897 0.48931 0.0
O257 O 0.82472 0.31389 0.5223 0.0
C258 C 0.77859 0.30853 0.52033 0.0
O259 O 0.742 0.32228 0.49385 0.0
C260 C 0.7414 0.38823 0.48442 0.0
C261 C 0.85893 0.42495 0.35571 0.0
O262 O 0.88043 0.42125 0.40415 0.0
O263 O 0.82551 0.41065 0.33392 0.0
C264 C 0.13026 0.19545 0.14051 0.0
C265 C 0.11869 0.20548 0.18617 0.0
C266 C 0.17781 0.23684 0.18026 0.0
C267 C 0.18416 0.22837 0.13105 0.0
N268 N 0.15892 0.20195 0.05947 0.0
N269 N 0.12607 0.23731 0.24635 0.0
C270 C 0.15857 0.20823 0.1099 0.0
C271 C 0.14122 0.22656 0.20548 0.0
N272 N 0.11531 0.17342 0.1271 0.0
N273 N 0.20775 0.25425 0.2036 0.0
H274 H 0.0994 0.23035 0.26585 0.0
H275 H 0.13681 0.25398 0.2582 0.0
H276 H 0.2352 0.26204 0.18644 0.0
H277 H 0.20862 0.25951 0.24189 0.0
H278 H 0.1273 0.1643 0.09739 0.0
H279 H 0.09519 0.16332 0.14909 0.0
H280 H 0.13626 0.18895 0.04023 0.0
H281 H 0.17783 0.21116 0.03481 0.0
C282 C 0.10403 0.66682 0.42272 0.0
C283 C 0.09149 0.68647 0.45029 0.0
C284 C 0.12342 0.71218 0.38886 0.0
C285 C 0.13047 0.69272 0.35816 0.0
N286 N 0.11736 0.65195 0.34022 0.0
N287 N 0.08073 0.72817 0.45426 0.0
C288 C 0.11795 0.67014 0.37348 0.0
C289 C 0.09896 0.70928 0.432 0.0
N290 N 0.10541 0.645 0.44477 0.0
N291 N 0.14154 0.73329 0.37785 0.0
H292 H 0.06132 0.72679 0.48493 0.0
H293 H 0.08046 0.74505 0.43902 0.0
H294 H 0.16017 0.73591 0.34692 0.0
H295 H 0.14244 0.74754 0.40216 0.0
H296 H 0.11977 0.6304 0.42893 0.0
H297 H 0.09763 0.64175 0.48183 0.0
H298 H 0.10295 0.63579 0.34707 0.0
H299 H 0.1265 0.65352 0.30333 0.0
C300 C 0.36603 0.67323 0.5161 0.0
C301 C 0.31386 0.67912 0.49479 0.0
C302 C 0.28916 0.66111 0.57149 0.0
C303 C 0.3412 0.65486 0.59238 0.0
N304 N 0.42691 0.64946 0.57891 0.0
N305 N 0.22515 0.67338 0.49474 0.0
C306 C 0.3789 0.65912 0.5627 0.0
C307 C 0.27523 0.67128 0.52014 0.0
N308 N 0.40352 0.68227 0.49396 0.0
N309 N 0.2535 0.65872 0.60175 0.0
H310 H 0.21387 0.6805 0.45677 0.0
H311 H 0.19555 0.666 0.50908 0.0
H312 H 0.26185 0.65145 0.63968 0.0
H313 H 0.21636 0.66561 0.59091 0.0
H314 H 0.44222 0.68084 0.51149 0.0
H315 H 0.39603 0.69279 0.46004 0.0
H316 H 0.45473 0.65002 0.55637 0.0
H317 H 0.43726 0.63886 0.61267 0.0
C318 C 0.43295 0.23731 0.72301 0.0
C319 C 0.46115 0.25127 0.69446 0.0
C320 C 0.3815 0.2677 0.64 0.0
C321 C 0.35335 0.25459 0.67038 0.0
N322 N 0.35131 0.22835 0.74314 0.0
N323 N 0.46435 0.28128 0.62981 0.0
C324 C 0.37889 0.23989 0.71268 0.0
C325 C 0.43599 0.2669 0.65396 0.0
N326 N 0.45787 0.22087 0.75862 0.0
N327 N 0.35603 0.28073 0.59765 0.0
H328 H 0.50423 0.2807 0.63856 0.0
H329 H 0.44892 0.29477 0.60369 0.0
H330 H 0.3163 0.28255 0.58787 0.0
H331 H 0.37375 0.2888 0.57045 0.0
H332 H 0.43952 0.20812 0.77598 0.0
H333 H 0.49755 0.21884 0.76853 0.0
H334 H 0.36751 0.22041 0.77925 0.0
H335 H 0.31163 0.22766 0.73356 0.0
C336 C 0.31833 0.97598 0.39931 0.0
C337 C 0.33864 0.96744 0.45132 0.0
C338 C 0.36183 0.93046 0.41551 0.0
C339 C 0.34568 0.93997 0.36361 0.0
N340 N 0.32263 0.97412 0.30764 0.0
N341 N 0.38992 0.93838 0.50828 0.0
C342 C 0.32835 0.96347 0.35602 0.0
C343 C 0.36346 0.94519 0.45929 0.0
N344 N 0.28662 -0.00476 0.39067 0.0
N345 N 0.37333 0.90723 0.42333 0.0
H346 H 0.41294 0.92332 0.51537 0.0
H347 H 0.39306 0.94893 0.54096 0.0
H348 H 0.37238 0.89573 0.39267 0.0
H349 H 0.37956 0.89901 0.46023 0.0
H350 H 0.26694 0.00052 0.3532 0.0
H351 H 0.27513 0.00434 0.42067 0.0
H352 H 0.31499 -0.00808 0.30139 0.0
H353 H 0.33128 0.96577 0.27516 0.0
C354 C 0.24647 0.86265 0.01716 0.0
C355 C 0.24822 0.83797 0.01928 0.0
C356 C 0.15616 0.83801 0.01659 0.0
C357 C 0.1534 0.86239 0.00689 0.0
N358 N 0.19501 0.89743 0.98826 0.0
N359 N 0.20293 0.80191 0.01167 0.0
C360 C 0.19832 0.87462 0.00455 0.0
C361 C 0.20256 0.82554 0.01655 0.0
N362 N 0.29056 0.87473 0.02941 0.0
N363 N 0.11508 0.82685 0.02768 0.0
H364 H 0.23555 0.79212 0.0091 0.0
H365 H 0.16985 0.79228 0.00481 0.0
H366 H 0.08067 0.83546 0.02903 0.0
H367 H 0.11686 0.80955 0.04069 0.0
H368 H 0.291 0.8927 0.03375 0.0
H369 H 0.32661 0.86666 0.04053 0.0
H370 H 0.22617 0.9065 0.98122 0.0
H371 H 0.16042 0.90672 0.97676 0.0
C372 C 0.0633 0.00088 0.39694 0.0
C373 C 0.11356 0.99099 0.40822 0.0
C374 C 0.123 0.00053 0.5013 0.0
C375 C 0.0744 0.01207 0.48933 0.0
N376 N 0.00036 0.02585 0.42564 0.0
N377 N 0.19389 0.98373 0.46907 0.0
C378 C 0.04491 0.01287 0.4371 0.0
C379 C 0.14412 -0.00852 0.45982 0.0
N380 N 0.03305 -0.00145 0.34803 0.0
N381 N 0.14809 -0.00265 0.55263 0.0
H382 H 0.21021 0.97565 0.44074 0.0
H383 H 0.21991 0.98695 0.50375 0.0
H384 H 0.13417 0.00382 0.58428 0.0
H385 H 0.18067 0.98672 0.56437 0.0
H386 H -0.00569 0.00314 0.33864 0.0
H387 H 0.046 0.99057 0.31735 0.0
H388 H 0.97968 0.02928 0.38756 0.0
H389 H 0.98589 0.03477 0.45418 0.0
C390 C 0.56423 0.08126 0.87872 0.0
C391 C 0.54754 0.07178 0.82814 0.0
C392 C 0.59939 0.03641 0.85743 0.0
C393 C 0.60957 0.04443 0.90977 0.0
N394 N 0.59485 0.07328 0.97184 0.0
N395 N 0.54222 0.0384 0.77206 0.0
C396 C 0.59043 0.06661 0.92091 0.0
C397 C 0.56347 0.04888 0.818 0.0
N398 N 0.55638 0.10442 0.88616 0.0
N399 N 0.62499 0.01717 0.84498 0.0
H400 H 0.51431 0.04642 0.74267 0.0
H401 H 0.54851 0.02088 0.76534 0.0
H402 H 0.65249 0.00785 0.87255 0.0
H403 H 0.62286 0.01194 0.80643 0.0
H404 H 0.57251 0.11274 0.92075 0.0
H405 H 0.53837 0.11582 0.8559 0.0
H406 H 0.57676 0.08818 0.98223 0.0
H407 H 0.61275 0.06293 0.00407 0.0
C408 C 0.4505 0.25971 0.17439 0.0
C409 C 0.49613 0.26651 0.15953 0.0
C410 C 0.52125 0.28752 0.2419 0.0
C411 C 0.47245 0.28357 0.25278 0.0
N412 N 0.38912 0.2671 0.22927 0.0
N413 N 0.57573 0.2866 0.17827 0.0
C414 C 0.43677 0.2698 0.21923 0.0
C415 C 0.5319 0.28024 0.19325 0.0
N416 N 0.42041 0.24362 0.14572 0.0
N417 N 0.55748 0.29804 0.27846 0.0
H418 H 0.58675 0.28022 0.1449 0.0
H419 H 0.60024 0.29896 0.19745 0.0
H420 H 0.55068 0.30369 0.31432 0.0
H421 H 0.59541 0.29952 0.2755 0.0
H422 H 0.38931 0.23625 0.15732 0.0
H423 H 0.42864 0.23631 0.11193 0.0
H424 H 0.35915 0.25978 0.20299 0.0
H425 H 0.37862 0.27344 0.26295 0.0
C426 C 0.74756 0.48625 0.21784 0.0
C427 C 0.73555 0.47104 0.25667 0.0
C428 C 0.76104 0.4373 0.21033 0.0
C429 C 0.77044 0.45253 0.17022 0.0
N430 N 0.759 0.49064 0.12844 0.0
N431 N 0.72406 0.43205 0.28719 0.0
C432 C 0.76017 0.4768 0.17201 0.0
C433 C 0.73993 0.44651 0.25189 0.0
N434 N 0.74665 0.50978 0.2244 0.0
N435 N 0.77411 0.41419 0.20963 0.0
H436 H 0.71263 0.43796 0.32071 0.0
H437 H 0.71986 0.41424 0.28214 0.0
H438 H 0.79095 0.40704 0.18059 0.0
H439 H 0.7717 0.40226 0.23944 0.0
H440 H 0.76146 0.52145 0.20082 0.0
H441 H 0.73451 0.51761 0.25566 0.0
H442 H 0.74613 0.50791 0.12542 0.0
H443 H 0.76593 0.48439 0.09313 0.0
C444 C 0.65882 0.59745 0.06466 0.0
C445 C 0.66618 0.62125 0.0535 0.0
C446 C 0.75867 0.61374 0.06567 0.0
C447 C 0.75137 0.58999 0.07738 0.0
N448 N 0.69687 0.55937 0.09396 0.0
N449 N 0.72245 0.65289 0.04786 0.0
C450 C 0.70206 0.5819 0.07877 0.0
C451 C 0.71599 0.62964 0.05552 0.0
N452 N 0.61029 0.58973 0.06082 0.0
N453 N 0.80653 0.62096 0.06337 0.0
H454 H 0.69216 0.6649 0.03665 0.0
H455 H 0.75771 0.66075 0.05498 0.0
H456 H 0.8394 0.61041 0.07453 0.0
H457 H 0.81406 0.63709 0.04846 0.0
H458 H 0.60124 0.57229 0.0624 0.0
H459 H 0.57811 0.60084 0.05364 0.0
H460 H 0.66315 0.55265 0.10091 0.0
H461 H 0.72753 0.54743 0.1025 0.0
C462 C 0.68858 0.41937 0.51814 0.0
C463 C 0.69521 0.39609 0.50323 0.0
C464 C 0.62744 0.38377 0.54704 0.0
C465 C 0.62016 0.4071 0.56144 0.0
N466 N 0.63118 0.44784 0.54431 0.0
N467 N 0.65772 0.35867 0.48581 0.0
C468 C 0.64674 0.42517 0.54171 0.0
C469 C 0.66028 0.37909 0.51204 0.0
N470 N 0.72338 0.4357 0.51263 0.0
N471 N 0.60575 0.36587 0.56884 0.0
H472 H 0.67859 0.35565 0.4568 0.0
H473 H 0.63033 0.3463 0.48763 0.0
H474 H 0.58308 0.36817 0.59643 0.0
H475 H 0.6144 0.34845 0.56335 0.0
H476 H 0.72315 0.45222 0.52837 0.0
H477 H 0.75491 0.43226 0.49612 0.0
H478 H 0.64643 0.46156 0.52656 0.0
H479 H 0.59909 0.45263 0.55891 0.0
C480 C 0.36274 0.1801 0.9323 0.0
C481 C 0.32942 0.19946 0.91358 0.0
C482 C 0.31565 0.18415 0.82416 0.0
C483 C 0.35454 0.16698 0.84193 0.0
N484 N 0.42019 0.15022 0.91162 0.0
N485 N 0.28076 0.22202 0.83958 0.0
C486 C 0.37975 0.1655 0.8956 0.0
C487 C 0.30728 0.20201 0.85889 0.0
N488 N 0.37562 0.1747 0.98494 0.0
N489 N 0.28693 0.18344 0.77412 0.0
H490 H 0.27817 0.23651 0.86243 0.0
H491 H 0.26549 0.22528 0.79985 0.0
H492 H 0.29325 0.17102 0.74724 0.0
H493 H 0.25441 0.19395 0.76068 0.0
H494 H 0.39579 0.15952 0.00011 0.0
H495 H 0.36115 0.18385 0.0131 0.0
H496 H 0.44364 0.15031 0.94908 0.0
H497 H 0.4328 0.13865 0.88629 0.0
C498 C 0.17235 0.80435 0.1903 0.0
C499 C 0.20144 0.78511 0.1775 0.0
C500 C 0.27307 0.81048 0.17483 0.0
C501 C 0.24373 0.82987 0.18603 0.0
N502 N 0.1618 0.84618 0.19458 0.0
N503 N 0.27224 0.77148 0.14127 0.0
C504 C 0.19194 0.82715 0.18977 0.0
C505 C 0.24972 0.78866 0.16497 0.0
N506 N 0.1279 0.80077 0.2069 0.0
N507 N 0.32362 0.81275 0.17423 0.0
H508 H 0.25519 0.75561 0.1312 0.0
H509 H 0.30491 0.77388 0.12633 0.0
H510 H 0.34131 0.82875 0.17612 0.0
H511 H 0.34839 0.79856 0.17365 0.0
H512 H 0.10776 0.81377 0.22196 0.0
H513 H 0.11308 0.78441 0.21042 0.0
H514 H 0.12237 0.84555 0.19066 0.0
H515 H 0.1752 0.863 0.19904 0.0
C516 C 0.43466 0.72611 0.95714 0.0
C517 C 0.38817 0.73366 0.97024 0.0
C518 C 0.3412 0.70666 0.90703 0.0
C519 C 0.38652 0.70171 0.88871 0.0
N520 N 0.47552 0.70909 0.89161 0.0
N521 N 0.29598 0.73329 0.95352 0.0
C522 C 0.43321 0.71187 0.9128 0.0
C523 C 0.34106 0.72437 0.94444 0.0
N524 N 0.48031 0.73213 0.98777 0.0
N525 N 0.29858 0.69406 0.8894 0.0
H526 H 0.29395 0.74663 0.97971 0.0
H527 H 0.26032 0.72886 0.93188 0.0
H528 H 0.29762 0.68074 0.86251 0.0
H529 H 0.26595 0.69522 0.90513 0.0
H530 H 0.51537 0.72506 0.98359 0.0
H531 H 0.48296 0.74254 0.0206 0.0
H532 H 0.50874 0.71833 0.90386 0.0
H533 H 0.47622 0.69911 0.85869 0.0
C534 C 0.10816 0.13985 0.58493 0.0
C535 C 0.0909 0.13136 0.62931 0.0
C536 C 0.10126 0.16995 0.66819 0.0
C537 C 0.12493 0.17752 0.62692 0.0
N538 N 0.16159 0.16729 0.55269 0.0
N539 N 0.07649 0.13726 0.7166 0.0
C540 C 0.13101 0.16189 0.58688 0.0
C541 C 0.0894 0.14606 0.67218 0.0
N542 N 0.10261 0.12699 0.54056 0.0
N543 N 0.08728 0.18571 0.70166 0.0
H544 H 0.06546 0.12013 0.71997 0.0
H545 H 0.08028 0.14646 0.75131 0.0
H546 H 0.09244 0.20353 0.69831 0.0
H547 H 0.06557 0.1815 0.72917 0.0
H548 H 0.10681 0.13417 0.50478 0.0
H549 H 0.08891 0.11013 0.53811 0.0
H550 H 0.1707 0.15551 0.52598 0.0
H551 H 0.18273 0.18234 0.55498 0.0
C552 C 0.04458 0.75593 0.74526 0.0
C553 C 0.08866 0.7413 0.74836 0.0
C554 C 0.12991 0.75977 0.83023 0.0
C555 C 0.08458 0.77328 0.82888 0.0
N556 N -0.0049 0.78061 0.79172 0.0
N557 N 0.16876 0.72575 0.79915 0.0
C558 C 0.04077 0.77027 0.78835 0.0
C559 C 0.13002 0.74217 0.7925 0.0
N560 N 0.00753 0.75715 0.70011 0.0
N561 N 0.17362 0.76446 0.8659 0.0
H562 H 0.16969 0.71236 0.77277 0.0
H563 H 0.19728 0.72405 0.8332 0.0
H564 H 0.17533 0.77724 0.89414 0.0
H565 H 0.20923 0.75714 0.86447 0.0
H566 H 0.97758 0.76946 0.69349 0.0
H567 H 0.00899 0.74728 0.66719 0.0
H568 H 0.96069 0.77706 0.7663 0.0
H569 H 0.99068 0.79103 0.82298 0.0
C570 C 0.15713 0.82608 0.33096 0.0
C571 C 0.20609 0.81534 0.335 0.0
C572 C 0.24423 0.85365 0.33385 0.0
C573 C 0.19463 0.86442 0.32507 0.0
N574 N 0.10307 0.86085 0.31182 0.0
N575 N 0.29494 0.81824 0.33185 0.0
C576 C 0.15082 0.85059 0.32217 0.0
C577 C 0.24936 0.82896 0.33451 0.0
N578 N 0.1172 0.81305 0.33876 0.0
N579 N 0.28663 0.86694 0.34095 0.0
H580 H 0.29951 0.80027 0.32933 0.0
H581 H 0.32733 0.82703 0.32753 0.0
H582 H 0.28522 0.88486 0.33458 0.0
H583 H 0.32354 0.86029 0.35526 0.0
H584 H 0.082 0.82012 0.34239 0.0
H585 H 0.12029 0.79514 0.3461 0.0
H586 H 0.06967 0.85159 0.30137 0.0
H587 H 0.09651 0.87879 0.31137 0.0
C588 C 0.66301 0.139 0.83472 0.0
C589 C 0.70219 0.13592 0.88064 0.0
C590 C 0.70669 0.17816 0.8907 0.0
C591 C 0.66876 0.18119 0.84376 0.0
N592 N 0.62075 0.16506 0.76397 0.0
N593 N 0.76936 0.15208 0.9455 0.0
C594 C 0.65 0.16176 0.81356 0.0
C595 C 0.72662 0.15539 0.9065 0.0
N596 N 0.6364 0.12037 0.81272 0.0
N597 N 0.72182 0.19681 0.92144 0.0
H598 H 0.78475 0.13558 0.95795 0.0
H599 H 0.79177 0.16559 0.96259 0.0
H600 H 0.70807 0.21374 0.91114 0.0
H601 H 0.74514 0.19533 0.9589 0.0
H602 H 0.6034 0.122 0.78326 0.0
H603 H 0.64449 0.10331 0.82673 0.0
H604 H 0.61036 0.15156 0.73802 0.0
H605 H 0.61117 0.1815 0.74667 0.0
C606 C 0.17691 0.12146 0.44524 0.0
C607 C 0.12955 0.11521 0.41315 0.0
C608 C 0.14602 0.07496 0.44494 0.0
C609 C 0.18951 0.08173 0.4824 0.0
N610 N 0.24099 0.11265 0.52456 0.0
N611 N 0.06347 0.08686 0.39311 0.0
C612 C 0.20333 0.1054 0.48458 0.0
C613 C 0.11238 0.09222 0.41619 0.0
N614 N 0.19782 0.14224 0.43681 0.0
N615 N 0.13846 0.05208 0.43373 0.0
H616 H 0.03662 0.09917 0.37345 0.0
H617 H 0.04816 0.07074 0.39863 0.0
H618 H 0.16411 0.03885 0.45087 0.0
H619 H 0.11053 0.0467 0.40229 0.0
H620 H 0.23425 0.14679 0.45618 0.0
H621 H 0.18086 0.15405 0.40702 0.0
H622 H 0.24955 0.13009 0.53064 0.0
H623 H 0.26054 0.10145 0.55444 0.0
C624 C 0.51141 0.93935 0.07111 0.0
C625 C 0.55877 0.94641 0.10174 0.0
C626 C 0.53313 0.93289 0.18196 0.0
C627 C 0.48831 0.9236 0.15093 0.0
N628 N 0.43959 0.91402 0.06515 0.0
N629 N 0.61935 0.94521 0.18501 0.0
C630 C 0.47874 0.92571 0.0952 0.0
C631 C 0.57098 0.94185 0.15683 0.0
N632 N 0.49652 0.94651 0.01961 0.0
N633 N 0.53862 0.93421 0.23531 0.0
H634 H 0.64875 0.9511 0.16794 0.0
H635 H 0.63166 0.93985 0.22423 0.0
H636 H 0.5111 0.92861 0.25535 0.0
H637 H 0.56801 0.94308 0.25902 0.0
H638 H 0.46011 0.94394 -0.00292 0.0
H639 H 0.51869 0.95698 0.00074 0.0
H640 H 0.43411 0.91302 0.02439 0.0
H641 H 0.41549 0.90342 0.08123 0.0
C642 C 0.50873 0.36913 0.83445 0.0
C643 C 0.50174 0.36102 0.78219 0.0
C644 C 0.4926 0.32134 0.81502 0.0
C645 C 0.50495 0.32922 0.86756 0.0
N646 N 0.5392 0.3596 0.92671 0.0
N647 N 0.49883 0.32835 0.72452 0.0
C648 C 0.51741 0.35281 0.8771 0.0
C649 C 0.49709 0.33679 0.77291 0.0
N650 N 0.5043 0.39234 0.84363 0.0
N651 N 0.47422 0.29957 0.80481 0.0
H652 H 0.50381 0.33893 0.69312 0.0
H653 H 0.50086 0.31064 0.7173 0.0
H654 H 0.46902 0.28788 0.83417 0.0
H655 H 0.45937 0.29399 0.76688 0.0
H656 H 0.50415 0.39876 0.88084 0.0
H657 H 0.49484 0.40497 0.8137 0.0
H658 H 0.55331 0.37617 0.9347 0.0
H659 H 0.54867 0.34798 0.95874 0.0
C660 C 0.5936 0.39636 0.38657 0.0
C661 C 0.57282 0.41729 0.40237 0.0
C662 C 0.51292 0.39484 0.44142 0.0
C663 C 0.5282 0.37454 0.41791 0.0
N664 N 0.57978 0.35615 0.3635 0.0
N665 N 0.51097 0.437 0.4429 0.0
C666 C 0.56793 0.37528 0.38955 0.0
C667 C 0.53244 0.41671 0.43002 0.0
N668 N 0.63887 0.39655 0.37021 0.0
N669 N 0.48031 0.39309 0.47518 0.0
H670 H 0.52429 0.45333 0.43552 0.0
H671 H 0.47777 0.43781 0.45768 0.0
H672 H 0.46571 0.37727 0.48448 0.0
H673 H 0.47119 0.40683 0.49738 0.0
H674 H 0.65857 0.3815 0.36317 0.0
H675 H 0.6597 0.4116 0.36947 0.0
H676 H 0.60424 0.35652 0.33724 0.0
H677 H 0.5622 0.34025 0.36483 0.0
C678 C 0.62767 0.51479 0.90083 0.0
C679 C 0.66005 0.53408 0.91119 0.0
C680 C 0.7315 0.50821 0.9536 0.0
C681 C 0.69944 0.48887 0.94195 0.0
N682 N 0.62149 0.47294 0.8938 0.0
N683 N 0.74511 0.54875 0.93528 0.0
C684 C 0.64895 0.49194 0.91194 0.0
C685 C 0.71281 0.53062 0.93362 0.0
N686 N 0.57613 0.51828 0.88386 0.0
N687 N 0.77847 0.50553 0.98649 0.0
H688 H 0.73262 0.56536 0.92057 0.0
H689 H 0.78471 0.54681 0.94637 0.0
H690 H 0.79394 0.48946 0.00199 0.0
H691 H 0.80057 0.51946 0.00171 0.0
H692 H 0.55017 0.50504 0.88296 0.0
H693 H 0.55873 0.53467 0.87487 0.0
H694 H 0.58616 0.47407 0.86772 0.0
H695 H 0.63635 0.45597 0.90094 0.0
C696 C 0.06129 0.97644 0.80931 0.0
C697 C 0.01465 0.9806 0.77234 0.0
C698 C 0.96764 0.96359 0.83448 0.0
C699 C 0.0147 0.95675 0.86828 0.0
N700 N 0.10681 0.95353 0.88433 0.0
N701 N 0.92371 0.97524 0.74628 0.0
C702 C 0.06174 0.96244 0.85495 0.0
C703 C 0.96776 0.97356 0.78407 0.0
N704 N 0.10499 0.98643 0.8015 0.0
N705 N 0.92288 0.96113 0.85112 0.0
H706 H 0.92206 0.98219 0.70866 0.0
H707 H 0.88962 0.96793 0.75067 0.0
H708 H 0.92136 0.9541 0.88799 0.0
H709 H 0.88791 0.96804 0.83053 0.0
H710 H 0.13903 0.98598 0.82967 0.0
H711 H 0.10593 -0.00284 0.76899 0.0
H712 H 0.14169 0.95491 0.87301 0.0
H713 H 0.10894 0.94291 0.91768 0.0
C714 C 0.40608 0.72464 0.19565 0.0
C715 C 0.39076 0.70587 0.22434 0.0
C716 C 0.43828 0.67828 0.18016 0.0
C717 C 0.45553 0.69718 0.15319 0.0
N718 N 0.46236 0.73866 0.141 0.0
N719 N 0.40021 0.66553 0.25227 0.0
C720 C 0.44175 0.72046 0.16305 0.0
C721 C 0.40878 0.68284 0.21867 0.0
N722 N 0.38433 0.74631 0.1972 0.0
N723 N 0.45058 0.65591 0.16949 0.0
H724 H 0.37996 0.66827 0.28187 0.0
H725 H 0.41695 0.64893 0.25424 0.0
H726 H 0.47639 0.6517 0.14595 0.0
H727 H 0.43343 0.64143 0.18204 0.0
H728 H 0.38987 0.76019 0.17308 0.0
H729 H 0.35709 0.75008 0.21941 0.0
H730 H 0.45962 0.75582 0.15242 0.0
H731 H 0.48482 0.73667 0.11315 0.0
C732 C 0.78223 0.28612 0.60569 0.0
C733 C 0.76438 0.28844 0.55029 0.0
C734 C 0.69667 0.26104 0.55441 0.0
C735 C 0.71561 0.25807 0.60948 0.0
N736 N 0.78586 0.26201 0.6837 0.0
N737 N 0.71531 0.27276 0.47069 0.0
C738 C 0.76154 0.26873 0.63386 0.0
C739 C 0.72521 0.27402 0.52429 0.0
N740 N 0.81605 0.30141 0.63228 0.0
N741 N 0.64989 0.25298 0.53119 0.0
H742 H 0.73643 0.28173 0.4477 0.0
H743 H 0.69024 0.26097 0.44986 0.0
H744 H 0.62635 0.24425 0.55175 0.0
H745 H 0.63218 0.25698 0.49228 0.0
H746 H 0.82521 0.30201 0.67322 0.0
H747 H 0.83174 0.31481 0.61409 0.0
H748 H 0.82193 0.26769 0.70146 0.0
H749 H 0.7726 0.24882 0.70493 0.0
C750 C 0.77146 0.17148 0.08849 0.0
C751 C 0.80494 0.18744 0.11824 0.0
C752 C 0.73322 0.21508 0.11462 0.0
C753 C 0.70125 0.2006 0.07891 0.0
N754 N 0.69099 0.16592 0.02712 0.0
N755 N 0.81954 0.22626 0.15123 0.0
C756 C 0.72052 0.17892 0.06475 0.0
C757 C 0.78634 0.20972 0.12918 0.0
N758 N 0.78815 0.14912 0.08383 0.0
N759 N 0.71259 0.23341 0.13665 0.0
H760 H 0.859 0.22339 0.16158 0.0
H761 H 0.80837 0.24356 0.15449 0.0
H762 H 0.6735 0.2374 0.12903 0.0
H763 H 0.7335 0.24304 0.16695 0.0
H764 H 0.76441 0.13597 0.06715 0.0
H765 H 0.8251 0.14313 0.10091 0.0
H766 H 0.70369 0.15059 0.01288 0.0
H767 H 0.65471 0.17135 0.00667 0.0
C768 C 0.87202 0.56016 0.49866 0.0
C769 C 0.82212 0.56633 0.4698 0.0
C770 C 0.84481 0.60737 0.47572 0.0
C771 C 0.89142 0.60138 0.51153 0.0
N772 N 0.94146 0.57152 0.56796 0.0
N773 N 0.75717 0.59687 0.44459 0.0
C774 C 0.90282 0.5776 0.52626 0.0
C775 C 0.80727 0.59025 0.4623 0.0
N776 N 0.89132 0.53799 0.49799 0.0
N777 N 0.83694 0.62895 0.45218 0.0
H778 H 0.72763 0.58511 0.43808 0.0
H779 H 0.7445 0.61421 0.44283 0.0
H780 H 0.86477 0.64153 0.45711 0.0
H781 H 0.80511 0.63322 0.42254 0.0
H782 H 0.92917 0.53338 0.51498 0.0
H783 H 0.87191 0.525 0.47516 0.0
H784 H 0.94809 0.55445 0.58245 0.0
H785 H 0.96255 0.58367 0.59208 0.0
C786 C 0.37702 0.30009 0.01429 0.0
C787 C 0.3677 0.32315 0.0291 0.0
C788 C 0.3444 0.33533 0.93613 0.0
C789 C 0.35865 0.3128 0.92171 0.0
N790 N 0.39973 0.27535 0.94798 0.0
N791 N 0.35201 0.36375 0.00487 0.0
C792 C 0.37818 0.2956 0.96108 0.0
C793 C 0.35413 0.3411 0.99023 0.0
N794 N 0.38234 0.28224 0.05053 0.0
N795 N 0.31927 0.35086 0.89856 0.0
H796 H 0.3593 0.36867 0.04411 0.0
H797 H 0.34773 0.37776 0.97824 0.0
H798 H 0.30998 0.34717 0.85863 0.0
H799 H 0.30322 0.36657 0.90746 0.0
H800 H 0.38483 0.26484 0.04081 0.0
H801 H 0.37911 0.2846 0.08936 0.0
H802 H 0.41924 0.26328 0.97583 0.0
H803 H 0.40307 0.27174 0.90966 0.0
C804 C 0.03601 0.35789 0.11188 0.0
C805 C 0.03645 0.34349 0.06815 0.0
C806 C 0.96759 0.36758 0.01417 0.0
C807 C 0.96476 0.38105 0.05877 0.0
N808 N 0.9887 0.38612 0.15255 0.0
N809 N -0.00499 0.33126 0.98173 0.0
C810 C -0.00323 0.37534 0.10843 0.0
C811 C -9e-05 0.34734 0.02048 0.0
N812 N 0.07435 0.35567 0.15579 0.0
N813 N 0.94149 0.37474 0.96523 0.0
H814 H 0.01733 0.31596 0.9853 0.0
H815 H 0.9655 0.33192 0.94842 0.0
H816 H 0.91813 0.38971 0.95846 0.0
H817 H 0.94672 0.36704 0.9307 0.0
H818 H 0.0792 0.36739 0.18641 0.0
H819 H 0.10398 0.34324 0.15983 0.0
H820 H 0.00727 0.381 0.19053 0.0
H821 H 0.95991 0.39876 0.15163 0.0
C822 C 0.04399 0.6454 0.09768 0.0
C823 C 0.0911 0.63726 0.12915 0.0
C824 C 0.07009 0.59731 0.10292 0.0
C825 C 0.01992 0.60515 0.07858 0.0
N826 N 0.95639 0.63653 0.06005 0.0
N827 N 0.14751 0.60507 0.16661 0.0
C828 C 0.00618 0.62921 0.0773 0.0
C829 C 0.10418 0.61311 0.13265 0.0
N830 N 0.03559 0.66868 0.08691 0.0
N831 N 0.08536 0.57485 0.09696 0.0
H832 H 0.17353 0.61596 0.18926 0.0
H833 H 0.15575 0.58748 0.1754 0.0
H834 H 0.06136 0.56289 0.07517 0.0
H835 H 0.12298 0.56873 0.10932 0.0
H836 H 0.00395 0.67548 0.05998 0.0
H837 H 0.06293 0.68099 0.10073 0.0
H838 H 0.94357 0.65353 0.06389 0.0
H839 H 0.92673 0.62531 0.04661 0.0
C840 C 0.52278 0.52881 0.71899 0.0
C841 C 0.51391 0.50866 0.74767 0.0
C842 C 0.45364 0.53099 0.7879 0.0
C843 C 0.45813 0.55038 0.75481 0.0
N844 N 0.49024 0.56647 0.68206 0.0
N845 N 0.46707 0.48948 0.80499 0.0
C846 C 0.49128 0.54906 0.71884 0.0
C847 C 0.47801 0.5094 0.78066 0.0
N848 N 0.56088 0.52856 0.69128 0.0
N849 N 0.42809 0.53349 0.82786 0.0
H850 H 0.48618 0.47361 0.803 0.0
H851 H 0.43699 0.48837 0.8245 0.0
H852 H 0.41101 0.54921 0.83534 0.0
H853 H 0.42805 0.52072 0.85672 0.0
H854 H 0.57328 0.54351 0.67519 0.0
H855 H 0.58273 0.51371 0.68735 0.0
H856 H 0.50918 0.56527 0.65106 0.0
H857 H 0.46653 0.58128 0.67913 0.0
C858 C 0.89918 0.46127 0.24768 0.0
C859 C 0.8842 0.48399 0.26032 0.0
C860 C 0.86182 0.46832 0.34068 0.0
C861 C 0.87163 0.44532 0.32533 0.0
N862 N 0.8977 0.41961 0.26282 0.0
N863 N 0.85157 0.50925 0.32005 0.0
C864 C 0.88972 0.44174 0.27836 0.0
C865 C 0.86637 0.48754 0.30738 0.0
N866 N 0.92556 0.4585 0.20838 0.0
N867 N 0.84499 0.47262 0.38564 0.0
H868 H 0.84954 0.52383 0.29533 0.0
H869 H 0.83942 0.51254 0.35491 0.0
H870 H 0.83799 0.45988 0.41202 0.0
H871 H 0.83799 0.45988 0.41202 0.0
H872 H 0.94209 0.44277 0.20045 0.0
H873 H 0.9356 0.4724 0.18677 0.0
H874 H 0.90313 0.41568 0.22541 0.0
H875 H 0.89641 0.40491 0.28647 0.0
C876 C 0.27544 0.9267 0.73093 0.0
C877 C 0.29726 0.94894 0.73953 0.0
C878 C 0.32771 0.93872 0.83314 0.0
C879 C 0.30096 0.91764 0.82556 0.0
N880 N 0.24277 0.89328 0.77111 0.0
N881 N 0.33492 0.97793 0.80085 0.0
C882 C 0.27293 0.91217 0.77511 0.0
C883 C 0.32082 0.95548 0.79124 0.0
N884 N 0.25985 0.91894 0.68084 0.0
N885 N 0.36174 0.94227 0.87927 0.0
H886 H 0.32916 0.99094 0.77161 0.0
H887 H 0.34745 0.98416 0.83864 0.0
H888 H 0.36993 0.92992 0.90991 0.0
H889 H 0.38596 0.95633 0.88487 0.0
H890 H 0.24931 0.9019 0.67237 0.0
H891 H 0.26244 0.92876 0.64748 0.0
H892 H 0.21735 0.88869 0.73687 0.0
H893 H 0.21735 0.88869 0.73687 0.0
C894 C 0.40461 0.06114 0.49072 0.0
C895 C 0.39758 0.08416 0.50766 0.0
C896 C 0.32164 0.0899 0.4368 0.0
C897 C 0.3277 0.06676 0.42097 0.0
N898 N 0.38014 0.03295 0.42118 0.0
N899 N 0.35273 0.12145 0.49317 0.0
C900 C 0.37148 0.05326 0.44443 0.0
C901 C 0.35731 0.09882 0.47943 0.0
N902 N 0.44007 0.04631 0.52099 0.0
N903 N 0.28266 0.1041 0.41106 0.0
H904 H 0.37859 0.12904 0.52352 0.0
H905 H 0.32371 0.13271 0.47309 0.0
H906 H 0.25527 0.09911 0.37856 0.0
H907 H 0.25527 0.09911 0.37856 0.0
H908 H 0.44267 0.02856 0.51458 0.0
H909 H 0.46429 0.05121 0.55571 0.0
H910 H 0.41275 0.02225 0.43261 0.0
H911 H 0.41275 0.02225 0.43261 0.0
loop_
_geom_bond_atom_site_label_1
_geom_bond_atom_site_label_2
_geom_bond_distance
_geom_bond_site_symmetry_2
_ccdc_geom_bond_type
O0 Cd1 2.300 . S
O0 C7 1.275 . S
Cd1 O0 2.300 . S
Cd1 O9 2.381 . S
Cd1 O10 2.378 1_554 S
O2 Cd3 2.385 . S
O2 C7 1.255 . S
Cd3 O2 2.385 . S
Cd3 O4 2.317 . S
O4 Cd3 2.317 . S
O4 C5 1.232 . S
C5 O4 1.232 . S
C5 O6 1.218 . S
O6 C5 1.218 . S
C7 O0 1.275 . S
C7 O2 1.255 . S
C8 O9 1.258 1_556 S
C8 O10 1.256 . S
O9 Cd1 2.381 . S
O9 C8 1.258 1_554 S
O10 Cd1 2.378 1_556 S
O10 C8 1.256 . S
O11 Cd12 2.300 1_655 S
O11 C18 1.275 . S
Cd12 O11 2.300 1_455 S
Cd12 O20 2.381 . S
Cd12 O21 2.378 . S
O13 Cd14 2.385 . S
O13 C18 1.255 1_455 S
Cd14 O13 2.385 . S
Cd14 O15 2.317 1_455 S
O15 Cd14 2.317 1_655 S
O15 C16 1.232 . S
C16 O15 1.232 . S
C16 O17 1.218 . S
O17 C16 1.218 . S
C18 O11 1.275 . S
C18 O13 1.255 1_655 S
C19 O20 1.258 . S
C19 O21 1.256 . S
O20 Cd12 2.381 . S
O20 C19 1.258 . S
O21 Cd12 2.378 . S
O21 C19 1.256 . S
O22 Cd23 2.300 . S
O22 C29 1.275 . S
Cd23 O22 2.300 . S
Cd23 O31 2.381 . S
Cd23 O32 2.378 . S
O24 Cd25 2.385 . S
O24 C29 1.255 . S
Cd25 O24 2.385 . S
Cd25 O26 2.317 . S
O26 Cd25 2.317 . S
O26 C27 1.232 . S
C27 O26 1.232 . S
C27 O28 1.218 . S
O28 C27 1.218 . S
C29 O22 1.275 . S
C29 O24 1.255 . S
C30 O31 1.258 . S
C30 O32 1.256 . S
O31 Cd23 2.381 . S
O31 C30 1.258 . S
O32 Cd23 2.378 . S
O32 C30 1.256 . S
O33 Cd34 2.300 . S
O33 C40 1.275 . S
Cd34 O33 2.300 . S
Cd34 O42 2.381 . S
Cd34 O43 2.378 . S
O35 Cd36 2.385 . S
O35 C40 1.255 . S
Cd36 O35 2.385 . S
Cd36 O37 2.317 . S
O37 Cd36 2.317 . S
O37 C38 1.232 . S
C38 O37 1.232 . S
C38 O39 1.218 . S
O39 C38 1.218 . S
C40 O33 1.275 . S
C40 O35 1.255 . S
C41 O42 1.258 . S
C41 O43 1.256 . S
O42 Cd34 2.381 . S
O42 C41 1.258 . S
O43 Cd34 2.378 . S
O43 C41 1.256 . S
O44 Cd45 2.300 1_655 S
O44 C51 1.275 1_655 S
Cd45 O44 2.300 1_455 S
Cd45 O53 2.381 1_455 S
Cd45 O54 2.378 1_455 S
O46 Cd47 2.385 . S
O46 C51 1.255 . S
Cd47 O46 2.385 . S
Cd47 O48 2.317 . S
O48 Cd47 2.317 . S
O48 C49 1.232 . S
C49 O48 1.232 . S
C49 O50 1.218 . S
O50 C49 1.218 . S
C51 O44 1.275 1_455 S
C51 O46 1.255 . S
C52 O53 1.258 . S
C52 O54 1.256 . S
O53 Cd45 2.381 1_655 S
O53 C52 1.258 . S
O54 Cd45 2.378 1_655 S
O54 C52 1.256 . S
O55 Cd56 2.300 . S
O55 C62 1.275 . S
Cd56 O55 2.300 . S
Cd56 O64 2.381 . S
Cd56 O65 2.378 . S
O57 Cd58 2.385 . S
O57 C62 1.255 . S
Cd58 O57 2.385 . S
Cd58 O59 2.317 . S
O59 Cd58 2.317 . S
O59 C60 1.232 . S
C60 O59 1.232 . S
C60 O61 1.218 . S
O61 C60 1.218 . S
C62 O55 1.275 . S
C62 O57 1.255 . S
C63 O64 1.258 . S
C63 O65 1.256 . S
O64 Cd56 2.381 . S
O64 C63 1.258 . S
O65 Cd56 2.378 . S
O65 C63 1.256 . S
O66 Cd67 2.300 . S
O66 C73 1.275 . S
Cd67 O66 2.300 . S
Cd67 O75 2.381 . S
Cd67 O76 2.378 . S
O68 Cd69 2.385 . S
O68 C73 1.255 . S
Cd69 O68 2.385 . S
Cd69 O70 2.317 . S
O70 Cd69 2.317 . S
O70 C71 1.232 . S
C71 O70 1.232 . S
C71 O72 1.218 . S
O72 C71 1.218 . S
C73 O66 1.275 . S
C73 O68 1.255 . S
C74 O75 1.258 . S
C74 O76 1.256 . S
O75 Cd67 2.381 . S
O75 C74 1.258 . S
O76 Cd67 2.378 . S
O76 C74 1.256 . S
O77 Cd78 2.300 . S
O77 C84 1.275 . S
Cd78 O77 2.300 . S
Cd78 O86 2.381 . S
Cd78 O87 2.378 . S
O79 Cd80 2.385 1_455 S
O79 C84 1.255 . S
Cd80 O79 2.385 1_655 S
Cd80 O81 2.317 . S
O81 Cd80 2.317 . S
O81 C82 1.232 . S
C82 O81 1.232 . S
C82 O83 1.218 . S
O83 C82 1.218 . S
C84 O77 1.275 . S
C84 O79 1.255 . S
C85 O86 1.258 . S
C85 O87 1.256 . S
O86 Cd78 2.381 . S
O86 C85 1.258 . S
O87 Cd78 2.378 . S
O87 C85 1.256 . S
O88 Cd89 2.300 1_565 S
O88 C95 1.275 1_565 S
Cd89 O88 2.300 1_545 S
Cd89 O97 2.381 1_545 S
Cd89 O98 2.378 . S
O90 Cd91 2.385 . S
O90 C95 1.255 . S
Cd91 O90 2.385 . S
Cd91 O92 2.317 . S
O92 Cd91 2.317 . S
O92 C93 1.232 . S
C93 O92 1.232 . S
C93 O94 1.218 . S
O94 C93 1.218 . S
C95 O88 1.275 1_545 S
C95 O90 1.255 . S
C96 O97 1.258 . S
C96 O98 1.256 1_565 S
O97 Cd89 2.381 1_565 S
O97 C96 1.258 . S
O98 Cd89 2.378 . S
O98 C96 1.256 1_545 S
O99 Cd100 2.300 . S
O99 C106 1.275 . S
Cd100 O99 2.300 . S
Cd100 O108 2.381 1_455 S
Cd100 O109 2.378 1_455 S
O101 Cd102 2.385 . S
O101 C106 1.255 . S
Cd102 O101 2.385 . S
Cd102 O103 2.317 1_455 S
O103 Cd102 2.317 1_655 S
O103 C104 1.232 . S
C104 O103 1.232 . S
C104 O105 1.218 1_655 S
O105 C104 1.218 1_455 S
C106 O99 1.275 . S
C106 O101 1.255 . S
C107 O108 1.258 . S
C107 O109 1.256 . S
O108 Cd100 2.381 1_655 S
O108 C107 1.258 . S
O109 Cd100 2.378 1_655 S
O109 C107 1.256 . S
O110 Cd111 2.300 . S
O110 C117 1.275 . S
Cd111 O110 2.300 . S
Cd111 O119 2.381 . S
Cd111 O120 2.378 . S
O112 Cd113 2.385 1_565 S
O112 C117 1.255 . S
Cd113 O112 2.385 1_545 S
Cd113 O114 2.317 . S
O114 Cd113 2.317 . S
O114 C115 1.232 . S
C115 O114 1.232 . S
C115 O116 1.218 . S
O116 C115 1.218 . S
C117 O110 1.275 . S
C117 O112 1.255 . S
C118 O119 1.258 . S
C118 O120 1.256 . S
O119 Cd111 2.381 . S
O119 C118 1.258 . S
O120 Cd111 2.378 . S
O120 C118 1.256 . S
O121 Cd122 2.300 1_556 S
O121 C128 1.275 . S
Cd122 O121 2.300 1_554 S
Cd122 O130 2.381 . S
Cd122 O131 2.378 . S
O123 Cd124 2.385 . S
O123 C128 1.255 . S
Cd124 O123 2.385 . S
Cd124 O125 2.317 . S
O125 Cd124 2.317 . S
O125 C126 1.232 . S
C126 O125 1.232 . S
C126 O127 1.218 . S
O127 C126 1.218 . S
C128 O121 1.275 . S
C128 O123 1.255 . S
C129 O130 1.258 . S
C129 O131 1.256 . S
O130 Cd122 2.381 . S
O130 C129 1.258 . S
O131 Cd122 2.378 . S
O131 C129 1.256 . S
O132 Cd133 2.300 . S
O132 C139 1.275 . S
Cd133 O132 2.300 . S
Cd133 O141 2.381 . S
Cd133 O142 2.378 . S
O134 Cd135 2.385 . S
O134 C139 1.255 . S
Cd135 O134 2.385 . S
Cd135 O136 2.317 . S
O136 Cd135 2.317 . S
O136 C137 1.232 . S
C137 O136 1.232 . S
C137 O138 1.218 . S
O138 C137 1.218 . S
C139 O132 1.275 . S
C139 O134 1.255 . S
C140 O141 1.258 . S
C140 O142 1.256 . S
O141 Cd133 2.381 . S
O141 C140 1.258 . S
O142 Cd133 2.378 . S
O142 C140 1.256 . S
O143 Cd144 2.300 . S
O143 C150 1.275 . S
Cd144 O143 2.300 . S
Cd144 O152 2.381 . S
Cd144 O153 2.378 . S
O145 Cd146 2.385 . S
O145 C150 1.255 . S
Cd146 O145 2.385 . S
Cd146 O147 2.317 . S
O147 Cd146 2.317 . S
O147 C148 1.232 . S
C148 O147 1.232 . S
C148 O149 1.218 . S
O149 C148 1.218 . S
C150 O143 1.275 . S
C150 O145 1.255 . S
C151 O152 1.258 . S
C151 O153 1.256 . S
O152 Cd144 2.381 . S
O152 C151 1.258 . S
O153 Cd144 2.378 . S
O153 C151 1.256 . S
O154 Cd155 2.300 1_455 S
O154 C161 1.275 . S
Cd155 O154 2.300 1_655 S
Cd155 O163 2.381 1_655 S
Cd155 O164 2.378 . S
O156 Cd157 2.385 . S
O156 C161 1.255 1_655 S
Cd157 O156 2.385 . S
Cd157 O158 2.317 . S
O158 Cd157 2.317 . S
O158 C159 1.232 1_545 S
C159 O158 1.232 1_565 S
C159 O160 1.218 . S
O160 C159 1.218 . S
C161 O154 1.275 . S
C161 O156 1.255 1_455 S
C162 O163 1.258 . S
C162 O164 1.256 1_455 S
O163 Cd155 2.381 1_455 S
O163 C162 1.258 . S
O164 Cd155 2.378 . S
O164 C162 1.256 1_655 S
O165 Cd166 2.300 . S
O165 C172 1.275 . S
Cd166 O165 2.300 . S
Cd166 O174 2.381 . S
Cd166 O175 2.378 . S
O167 Cd168 2.385 . S
O167 C172 1.255 . S
Cd168 O167 2.385 . S
Cd168 O169 2.317 . S
O169 Cd168 2.317 . S
O169 C170 1.232 . S
C170 O169 1.232 . S
C170 O171 1.218 . S
O171 C170 1.218 . S
C172 O165 1.275 . S
C172 O167 1.255 . S
C173 O174 1.258 . S
C173 O175 1.256 . S
O174 Cd166 2.381 . S
O174 C173 1.258 . S
O175 Cd166 2.378 . S
O175 C173 1.256 . S
O176 Cd177 2.300 . S
O176 C183 1.275 . S
Cd177 O176 2.300 . S
Cd177 O185 2.381 . S
Cd177 O186 2.378 . S
O178 Cd179 2.385 . S
O178 C183 1.255 1_556 S
Cd179 O178 2.385 . S
Cd179 O180 2.317 . S
O180 Cd179 2.317 . S
O180 C181 1.232 . S
C181 O180 1.232 . S
C181 O182 1.218 . S
O182 C181 1.218 . S
C183 O176 1.275 . S
C183 O178 1.255 1_554 S
C184 O185 1.258 . S
C184 O186 1.256 . S
O185 Cd177 2.381 . S
O185 C184 1.258 . S
O186 Cd177 2.378 . S
O186 C184 1.256 . S
O187 Cd188 2.300 . S
O187 C194 1.275 . S
Cd188 O187 2.300 . S
Cd188 O196 2.381 . S
Cd188 O197 2.378 . S
O189 Cd190 2.385 . S
O189 C194 1.255 . S
Cd190 O189 2.385 . S
Cd190 O191 2.317 . S
O191 Cd190 2.317 . S
O191 C192 1.232 . S
C192 O191 1.232 . S
C192 O193 1.218 . S
O193 C192 1.218 . S
C194 O187 1.275 . S
C194 O189 1.255 . S
C195 O196 1.258 . S
C195 O197 1.256 . S
O196 Cd188 2.381 . S
O196 C195 1.258 . S
O197 Cd188 2.378 . S
O197 C195 1.256 . S
O198 Cd199 2.300 1_554 S
O198 C205 1.275 . S
Cd199 O198 2.300 1_556 S
Cd199 O207 2.381 1_556 S
Cd199 O208 2.378 . S
O200 Cd201 2.385 . S
O200 C205 1.255 1_556 S
Cd201 O200 2.385 . S
Cd201 O202 2.317 . S
O202 Cd201 2.317 . S
O202 C203 1.232 . S
C203 O202 1.232 . S
C203 O204 1.218 . S
O204 C203 1.218 . S
C205 O198 1.275 . S
C205 O200 1.255 1_554 S
C206 O207 1.258 . S
C206 O208 1.256 1_554 S
O207 Cd199 2.381 1_554 S
O207 C206 1.258 . S
O208 Cd199 2.378 . S
O208 C206 1.256 1_556 S
O209 Cd210 2.300 . S
O209 C216 1.275 . S
Cd210 O209 2.300 . S
Cd210 O218 2.381 . S
Cd210 O219 2.378 1_554 S
O211 Cd212 2.385 . S
O211 C216 1.255 . S
Cd212 O211 2.385 . S
Cd212 O213 2.317 1_554 S
O213 Cd212 2.317 1_556 S
O213 C214 1.232 . S
C214 O213 1.232 . S
C214 O215 1.218 1_556 S
O215 C214 1.218 1_554 S
C216 O209 1.275 . S
C216 O211 1.255 . S
C217 O218 1.258 . S
C217 O219 1.256 1_554 S
O218 Cd210 2.381 . S
O218 C217 1.258 . S
O219 Cd210 2.378 1_556 S
O219 C217 1.256 1_556 S
O220 Cd221 2.300 . S
O220 C227 1.275 . S
Cd221 O220 2.300 . S
Cd221 O229 2.381 . S
Cd221 O230 2.378 . S
O222 Cd223 2.385 . S
O222 C227 1.255 . S
Cd223 O222 2.385 . S
Cd223 O224 2.317 . S
O224 Cd223 2.317 . S
O224 C225 1.232 . S
C225 O224 1.232 . S
C225 O226 1.218 . S
O226 C225 1.218 . S
C227 O220 1.275 . S
C227 O222 1.255 . S
C228 O229 1.258 . S
C228 O230 1.256 . S
O229 Cd221 2.381 . S
O229 C228 1.258 . S
O230 Cd221 2.378 . S
O230 C228 1.256 . S
O231 Cd232 2.300 . S
O231 C238 1.275 . S
Cd232 O231 2.300 . S
Cd232 O240 2.381 . S
Cd232 O241 2.378 . S
O233 Cd234 2.385 . S
O233 C238 1.255 . S
Cd234 O233 2.385 . S
Cd234 O235 2.317 . S
O235 Cd234 2.317 . S
O235 C236 1.232 . S
C236 O235 1.232 . S
C236 O237 1.218 . S
O237 C236 1.218 . S
C238 O231 1.275 . S
C238 O233 1.255 . S
C239 O240 1.258 . S
C239 O241 1.256 . S
O240 Cd232 2.381 . S
O240 C239 1.258 . S
O241 Cd232 2.378 . S
O241 C239 1.256 . S
O242 Cd243 2.300 . S
O242 C249 1.275 . S
Cd243 O242 2.300 . S
Cd243 O251 2.381 . S
Cd243 O252 2.378 . S
O244 Cd245 2.385 1_655 S
O244 C249 1.255 . S
Cd245 O244 2.385 1_455 S
Cd245 O246 2.317 . S
O246 Cd245 2.317 . S
O246 C247 1.232 1_455 S
C247 O246 1.232 1_655 S
C247 O248 1.219 . S
O248 C247 1.219 . S
C249 O242 1.275 . S
C249 O244 1.255 . S
C250 O251 1.258 . S
C250 O252 1.256 . S
O251 Cd243 2.381 . S
O251 C250 1.258 . S
O252 Cd243 2.378 . S
O252 C250 1.256 . S
O253 Cd254 2.300 . S
O253 C260 1.275 . S
Cd254 O253 2.300 . S
Cd254 O262 2.381 . S
Cd254 O263 2.378 . S
O255 Cd256 2.385 . S
O255 C260 1.255 . S
Cd256 O255 2.385 . S
Cd256 O257 2.317 . S
O257 Cd256 2.317 . S
O257 C258 1.232 . S
C258 O257 1.232 . S
C258 O259 1.218 . S
O259 C258 1.218 . S
C260 O253 1.275 . S
C260 O255 1.255 . S
C261 O262 1.258 . S
C261 O263 1.256 . S
O262 Cd254 2.381 . S
O262 C261 1.258 . S
O263 Cd254 2.378 . S
O263 C261 1.256 . S
C264 C265 1.363 . S
C264 C270 1.379 . S
C264 N272 1.356 . S
C265 C264 1.363 . S
C265 C271 1.363 . S
C266 C267 1.363 . S
C266 C271 1.379 . S
C266 N273 1.356 . S
C267 C266 1.363 . S
C267 C270 1.363 . S
N268 C270 1.356 . S
N268 H280 0.984 . S
N268 H281 0.985 . S
N269 C271 1.356 . S
N269 H274 0.984 . S
N269 H275 0.985 . S
C270 C264 1.379 . S
C270 C267 1.363 . S
C270 N268 1.356 . S
C271 C265 1.363 . S
C271 C266 1.379 . S
C271 N269 1.356 . S
N272 C264 1.356 . S
N272 H278 0.984 . S
N272 H279 0.984 . S
N273 C266 1.356 . S
N273 H276 0.984 . S
N273 H277 0.985 . S
H274 N269 0.984 . S
H275 N269 0.985 . S
H276 N273 0.984 . S
H277 N273 0.985 . S
H278 N272 0.984 . S
H279 N272 0.984 . S
H280 N268 0.984 . S
H281 N268 0.985 . S
C282 C283 1.363 . S
C282 C288 1.379 . S
C282 N290 1.356 . S
C283 C282 1.363 . S
C283 C289 1.363 1_455 S
C284 C285 1.363 . S
C284 C289 1.379 . S
C284 N291 1.356 . S
C285 C284 1.363 . S
C285 C288 1.363 1_655 S
N286 C288 1.356 . S
N286 H298 0.984 . S
N286 H299 0.985 1_455 S
N287 C289 1.356 . S
N287 H292 0.984 1_655 S
N287 H293 0.985 . S
C288 C282 1.379 . S
C288 C285 1.363 1_455 S
C288 N286 1.356 . S
C289 C283 1.363 1_655 S
C289 C284 1.379 . S
C289 N287 1.356 . S
N290 C282 1.356 . S
N290 H296 0.984 . S
N290 H297 0.984 . S
N291 C284 1.356 . S
N291 H294 0.984 . S
N291 H295 0.985 . S
H292 N287 0.984 1_455 S
H293 N287 0.985 . S
H294 N291 0.984 . S
H295 N291 0.985 . S
H296 N290 0.984 . S
H297 N290 0.984 . S
H298 N286 0.984 . S
H299 N286 0.985 1_655 S
C300 C301 1.363 . S
C300 C306 1.379 . S
C300 N308 1.356 . S
C301 C300 1.363 . S
C301 C307 1.363 . S
C302 C303 1.363 . S
C302 C307 1.379 . S
C302 N309 1.356 . S
C303 C302 1.363 . S
C303 C306 1.363 . S
N304 C306 1.356 . S
N304 H316 0.984 . S
N304 H317 0.985 . S
N305 C307 1.356 . S
N305 H310 0.984 . S
N305 H311 0.985 . S
C306 C300 1.379 . S
C306 C303 1.363 . S
C306 N304 1.356 . S
C307 C301 1.363 . S
C307 C302 1.379 . S
C307 N305 1.356 . S
N308 C300 1.356 . S
N308 H314 0.984 . S
N308 H315 0.984 . S
N309 C302 1.356 . S
N309 H312 0.984 . S
N309 H313 0.985 . S
H310 N305 0.984 . S
H311 N305 0.985 . S
H312 N309 0.984 . S
H313 N309 0.985 . S
H314 N308 0.984 . S
H315 N308 0.984 . S
H316 N304 0.984 . S
H317 N304 0.985 . S
C318 C319 1.363 . S
C318 C324 1.379 . S
C318 N326 1.356 . S
C319 C318 1.363 . S
C319 C325 1.363 . S
C320 C321 1.363 . S
C320 C325 1.379 . S
C320 N327 1.356 . S
C321 C320 1.363 . S
C321 C324 1.363 . S
N322 C324 1.356 . S
N322 H334 0.984 . S
N322 H335 0.985 . S
N323 C325 1.356 . S
N323 H328 0.984 . S
N323 H329 0.985 . S
C324 C318 1.379 . S
C324 C321 1.363 . S
C324 N322 1.356 . S
C325 C319 1.363 . S
C325 C320 1.379 . S
C325 N323 1.356 . S
N326 C318 1.356 . S
N326 H332 0.984 . S
N326 H333 0.984 . S
N327 C320 1.356 . S
N327 H330 0.984 . S
N327 H331 0.985 . S
H328 N323 0.984 . S
H329 N323 0.985 . S
H330 N327 0.984 . S
H331 N327 0.985 . S
H332 N326 0.984 . S
H333 N326 0.984 . S
H334 N322 0.984 . S
H335 N322 0.985 . S
C336 C337 1.363 . S
C336 C342 1.379 . S
C336 N344 1.356 1_565 S
C337 C336 1.363 . S
C337 C343 1.363 . S
C338 C339 1.363 . S
C338 C343 1.379 . S
C338 N345 1.356 . S
C339 C338 1.363 . S
C339 C342 1.363 . S
N340 C342 1.356 . S
N340 H352 0.984 . S
N340 H353 0.985 . S
N341 C343 1.356 . S
N341 H346 0.984 . S
N341 H347 0.985 . S
C342 C336 1.379 . S
C342 C339 1.363 . S
C342 N340 1.356 . S
C343 C337 1.363 . S
C343 C338 1.379 . S
C343 N341 1.356 . S
N344 C336 1.356 1_545 S
N344 H350 0.984 . S
N344 H351 0.984 . S
N345 C338 1.356 . S
N345 H348 0.984 . S
N345 H349 0.985 . S
H346 N341 0.984 . S
H347 N341 0.985 . S
H348 N345 0.984 . S
H349 N345 0.985 . S
H350 N344 0.984 . S
H351 N344 0.984 . S
H352 N340 0.984 . S
H353 N340 0.985 . S
C354 C355 1.363 . S
C354 C360 1.379 . S
C354 N362 1.356 1_556 S
C355 C354 1.363 . S
C355 C361 1.363 . S
C356 C357 1.363 . S
C356 C361 1.379 . S
C356 N363 1.356 . S
C357 C356 1.363 . S
C357 C360 1.363 . S
N358 C360 1.356 . S
N358 H370 0.984 . S
N358 H371 0.985 . S
N359 C361 1.356 . S
N359 H364 0.984 . S
N359 H365 0.985 . S
C360 C354 1.379 . S
C360 C357 1.363 . S
C360 N358 1.356 . S
C361 C355 1.363 . S
C361 C356 1.379 . S
C361 N359 1.356 . S
N362 C354 1.356 1_554 S
N362 H368 0.984 . S
N362 H369 0.984 . S
N363 C356 1.356 . S
N363 H366 0.984 . S
N363 H367 0.985 . S
H364 N359 0.984 . S
H365 N359 0.985 . S
H366 N363 0.984 . S
H367 N363 0.985 . S
H368 N362 0.984 . S
H369 N362 0.984 . S
H370 N358 0.984 . S
H371 N358 0.985 . S
C372 C373 1.363 1_545 S
C372 C378 1.379 . S
C372 N380 1.356 . S
C373 C372 1.363 1_565 S
C373 C379 1.363 . S
C374 C375 1.363 1_565 S
C374 C379 1.379 . S
C374 N381 1.356 . S
C375 C374 1.363 1_545 S
C375 C378 1.363 . S
N376 C378 1.356 . S
N376 H388 0.984 . S
N376 H389 0.985 . S
N377 C379 1.356 . S
N377 H382 0.984 . S
N377 H383 0.985 . S
C378 C372 1.379 . S
C378 C375 1.363 . S
C378 N376 1.356 . S
C379 C373 1.363 . S
C379 C374 1.379 . S
C379 N377 1.356 . S
N380 C372 1.356 . S
N380 H386 0.984 . S
N380 H387 0.984 . S
N381 C374 1.356 . S
N381 H384 0.984 1_565 S
N381 H385 0.985 . S
H382 N377 0.984 . S
H383 N377 0.985 . S
H384 N381 0.984 1_545 S
H385 N381 0.985 . S
H386 N380 0.984 . S
H387 N380 0.984 . S
H388 N376 0.984 . S
H389 N376 0.985 . S
C390 C391 1.363 . S
C390 C396 1.379 . S
C390 N398 1.356 . S
C391 C390 1.363 . S
C391 C397 1.363 . S
C392 C393 1.363 . S
C392 C397 1.379 . S
C392 N399 1.356 . S
C393 C392 1.363 . S
C393 C396 1.363 . S
N394 C396 1.356 . S
N394 H406 0.984 . S
N394 H407 0.985 . S
N395 C397 1.356 . S
N395 H400 0.984 . S
N395 H401 0.985 . S
C396 C390 1.379 . S
C396 C393 1.363 . S
C396 N394 1.356 . S
C397 C391 1.363 . S
C397 C392 1.379 . S
C397 N395 1.356 . S
N398 C390 1.356 . S
N398 H404 0.984 . S
N398 H405 0.984 . S
N399 C392 1.356 . S
N399 H402 0.984 . S
N399 H403 0.985 . S
H400 N395 0.984 . S
H401 N395 0.985 . S
H402 N399 0.984 . S
H403 N399 0.985 . S
H404 N398 0.984 . S
H405 N398 0.984 . S
H406 N394 0.984 . S
H407 N394 0.985 . S
C408 C409 1.363 . S
C408 C414 1.379 . S
C408 N416 1.356 . S
C409 C408 1.363 . S
C409 C415 1.363 . S
C410 C411 1.363 . S
C410 C415 1.379 . S
C410 N417 1.356 . S
C411 C410 1.363 . S
C411 C414 1.363 . S
N412 C414 1.356 . S
N412 H424 0.984 . S
N412 H425 0.985 . S
N413 C415 1.356 . S
N413 H418 0.984 . S
N413 H419 0.985 . S
C414 C408 1.379 . S
C414 C411 1.363 . S
C414 N412 1.356 . S
C415 C409 1.363 . S
C415 C410 1.379 . S
C415 N413 1.356 . S
N416 C408 1.356 . S
N416 H422 0.984 . S
N416 H423 0.984 . S
N417 C410 1.356 . S
N417 H420 0.984 . S
N417 H421 0.985 . S
H418 N413 0.984 . S
H419 N413 0.985 . S
H420 N417 0.984 . S
H421 N417 0.985 . S
H422 N416 0.984 . S
H423 N416 0.984 . S
H424 N412 0.984 . S
H425 N412 0.985 . S
C426 C427 1.363 . S
C426 C432 1.379 . S
C426 N434 1.356 . S
C427 C426 1.363 . S
C427 C433 1.363 . S
C428 C429 1.363 . S
C428 C433 1.379 . S
C428 N435 1.356 . S
C429 C428 1.363 . S
C429 C432 1.363 . S
N430 C432 1.356 . S
N430 H442 0.984 . S
N430 H443 0.985 . S
N431 C433 1.356 . S
N431 H436 0.984 . S
N431 H437 0.985 . S
C432 C426 1.379 . S
C432 C429 1.363 . S
C432 N430 1.356 . S
C433 C427 1.363 . S
C433 C428 1.379 . S
C433 N431 1.356 . S
N434 C426 1.356 . S
N434 H440 0.984 . S
N434 H441 0.984 . S
N435 C428 1.356 . S
N435 H438 0.984 . S
N435 H439 0.985 . S
H436 N431 0.984 . S
H437 N431 0.985 . S
H438 N435 0.984 . S
H439 N435 0.985 . S
H440 N434 0.984 . S
H441 N434 0.984 . S
H442 N430 0.984 . S
H443 N430 0.985 . S
C444 C445 1.363 . S
C444 C450 1.379 . S
C444 N452 1.356 . S
C445 C444 1.363 . S
C445 C451 1.363 . S
C446 C447 1.363 . S
C446 C451 1.379 . S
C446 N453 1.356 . S
C447 C446 1.363 . S
C447 C450 1.363 . S
N448 C450 1.356 . S
N448 H460 0.984 . S
N448 H461 0.985 . S
N449 C451 1.356 . S
N449 H454 0.984 . S
N449 H455 0.985 . S
C450 C444 1.379 . S
C450 C447 1.363 . S
C450 N448 1.356 . S
C451 C445 1.363 . S
C451 C446 1.379 . S
C451 N449 1.356 . S
N452 C444 1.356 . S
N452 H458 0.984 . S
N452 H459 0.984 . S
N453 C446 1.356 . S
N453 H456 0.984 . S
N453 H457 0.985 . S
H454 N449 0.984 . S
H455 N449 0.985 . S
H456 N453 0.984 . S
H457 N453 0.985 . S
H458 N452 0.984 . S
H459 N452 0.984 . S
H460 N448 0.984 . S
H461 N448 0.985 . S
C462 C463 1.363 . S
C462 C468 1.379 . S
C462 N470 1.356 . S
C463 C462 1.363 . S
C463 C469 1.363 . S
C464 C465 1.363 . S
C464 C469 1.379 . S
C464 N471 1.356 . S
C465 C464 1.363 . S
C465 C468 1.363 . S
N466 C468 1.356 . S
N466 H478 0.984 . S
N466 H479 0.985 . S
N467 C469 1.356 . S
N467 H472 0.984 . S
N467 H473 0.985 . S
C468 C462 1.379 . S
C468 C465 1.363 . S
C468 N466 1.356 . S
C469 C463 1.363 . S
C469 C464 1.379 . S
C469 N467 1.356 . S
N470 C462 1.356 . S
N470 H476 0.984 . S
N470 H477 0.984 . S
N471 C464 1.356 . S
N471 H474 0.984 . S
N471 H475 0.985 . S
H472 N467 0.984 . S
H473 N467 0.985 . S
H474 N471 0.984 . S
H475 N471 0.985 . S
H476 N470 0.984 . S
H477 N470 0.984 . S
H478 N466 0.984 . S
H479 N466 0.985 . S
C480 C481 1.363 . S
C480 C486 1.379 . S
C480 N488 1.356 . S
C481 C480 1.363 . S
C481 C487 1.363 . S
C482 C483 1.363 . S
C482 C487 1.379 . S
C482 N489 1.356 . S
C483 C482 1.363 . S
C483 C486 1.363 . S
N484 C486 1.356 . S
N484 H496 0.984 . S
N484 H497 0.985 . S
N485 C487 1.356 . S
N485 H490 0.984 . S
N485 H491 0.985 . S
C486 C480 1.379 . S
C486 C483 1.363 . S
C486 N484 1.356 . S
C487 C481 1.363 . S
C487 C482 1.379 . S
C487 N485 1.356 . S
N488 C480 1.356 . S
N488 H494 0.984 1_556 S
N488 H495 0.984 1_556 S
N489 C482 1.356 . S
N489 H492 0.984 . S
N489 H493 0.985 . S
H490 N485 0.984 . S
H491 N485 0.985 . S
H492 N489 0.984 . S
H493 N489 0.985 . S
H494 N488 0.984 1_554 S
H495 N488 0.984 1_554 S
H496 N484 0.984 . S
H497 N484 0.985 . S
C498 C499 1.363 . S
C498 C504 1.379 . S
C498 N506 1.356 . S
C499 C498 1.363 . S
C499 C505 1.363 . S
C500 C501 1.363 . S
C500 C505 1.379 . S
C500 N507 1.356 . S
C501 C500 1.363 . S
C501 C504 1.363 . S
N502 C504 1.356 . S
N502 H514 0.984 . S
N502 H515 0.985 . S
N503 C505 1.356 . S
N503 H508 0.984 . S
N503 H509 0.985 . S
C504 C498 1.379 . S
C504 C501 1.363 . S
C504 N502 1.356 . S
C505 C499 1.363 . S
C505 C500 1.379 . S
C505 N503 1.356 . S
N506 C498 1.356 . S
N506 H512 0.984 . S
N506 H513 0.984 . S
N507 C500 1.356 . S
N507 H510 0.984 . S
N507 H511 0.985 . S
H508 N503 0.984 . S
H509 N503 0.985 . S
H510 N507 0.984 . S
H511 N507 0.985 . S
H512 N506 0.984 . S
H513 N506 0.984 . S
H514 N502 0.984 . S
H515 N502 0.985 . S
C516 C517 1.363 . S
C516 C522 1.379 . S
C516 N524 1.356 . S
C517 C516 1.363 . S
C517 C523 1.363 . S
C518 C519 1.363 . S
C518 C523 1.379 . S
C518 N525 1.356 . S
C519 C518 1.363 . S
C519 C522 1.363 . S
N520 C522 1.356 . S
N520 H532 0.984 . S
N520 H533 0.985 . S
N521 C523 1.356 . S
N521 H526 0.984 . S
N521 H527 0.985 . S
C522 C516 1.379 . S
C522 C519 1.363 . S
C522 N520 1.356 . S
C523 C517 1.363 . S
C523 C518 1.379 . S
C523 N521 1.356 . S
N524 C516 1.356 . S
N524 H530 0.984 . S
N524 H531 0.984 . S
N525 C518 1.356 . S
N525 H528 0.984 . S
N525 H529 0.985 . S
H526 N521 0.984 . S
H527 N521 0.985 . S
H528 N525 0.984 . S
H529 N525 0.985 . S
H530 N524 0.984 . S
H531 N524 0.984 . S
H532 N520 0.984 . S
H533 N520 0.985 . S
C534 C535 1.363 . S
C534 C540 1.379 . S
C534 N542 1.356 . S
C535 C534 1.363 . S
C535 C541 1.363 . S
C536 C537 1.363 . S
C536 C541 1.379 . S
C536 N543 1.356 . S
C537 C536 1.363 . S
C537 C540 1.363 . S
N538 C540 1.356 . S
N538 H550 0.984 . S
N538 H551 0.985 . S
N539 C541 1.356 . S
N539 H544 0.984 1_455 S
N539 H545 0.985 1_455 S
C540 C534 1.379 . S
C540 C537 1.363 . S
C540 N538 1.356 . S
C541 C535 1.363 . S
C541 C536 1.379 . S
C541 N539 1.356 . S
N542 C534 1.356 . S
N542 H548 0.984 . S
N542 H549 0.984 . S
N543 C536 1.356 . S
N543 H546 0.984 . S
N543 H547 0.985 . S
H544 N539 0.984 1_655 S
H545 N539 0.985 1_655 S
H546 N543 0.984 . S
H547 N543 0.985 . S
H548 N542 0.984 . S
H549 N542 0.984 . S
H550 N538 0.984 . S
H551 N538 0.985 . S
C552 C553 1.363 . S
C552 C558 1.387 . S
C552 N560 1.356 . S
C553 C552 1.363 . S
C553 C559 1.363 1_455 S
C554 C555 1.363 . S
C554 C559 1.379 . S
C554 N561 1.356 . S
C555 C554 1.363 . S
C555 C558 1.350 1_655 S
N556 C558 1.357 . S
N556 H568 0.984 . S
N556 H569 0.985 1_455 S
N557 C559 1.356 . S
N557 H562 0.981 1_655 S
N557 H563 0.985 . S
C558 C552 1.387 . S
C558 C555 1.350 1_455 S
C558 N556 1.357 . S
C559 C553 1.363 1_655 S
C559 C554 1.379 . S
C559 N557 1.356 . S
N560 C552 1.356 . S
N560 H566 0.984 . S
N560 H567 0.984 . S
N561 C554 1.356 . S
N561 H564 0.984 . S
N561 H565 0.985 . S
H562 N557 0.981 1_455 S
H563 N557 0.985 . S
H564 N561 0.984 . S
H565 N561 0.985 . S
H566 N560 0.984 . S
H567 N560 0.984 . S
H568 N556 0.984 . S
H569 N556 0.985 1_655 S
C570 C571 1.363 . S
C570 C576 1.379 . S
C570 N578 1.356 . S
C571 C570 1.363 . S
C571 C577 1.363 . S
C572 C573 1.363 . S
C572 C577 1.379 . S
C572 N579 1.356 . S
C573 C572 1.363 . S
C573 C576 1.363 . S
N574 C576 1.356 . S
N574 H586 0.984 . S
N574 H587 0.985 . S
N575 C577 1.356 . S
N575 H580 0.984 . S
N575 H581 0.985 . S
C576 C570 1.379 . S
C576 C573 1.363 . S
C576 N574 1.356 . S
C577 C571 1.363 . S
C577 C572 1.379 . S
C577 N575 1.356 . S
N578 C570 1.356 . S
N578 H584 0.984 . S
N578 H585 0.984 . S
N579 C572 1.356 . S
N579 H582 0.984 . S
N579 H583 0.985 . S
H580 N575 0.984 . S
H581 N575 0.985 . S
H582 N579 0.984 . S
H583 N579 0.985 . S
H584 N578 0.984 . S
H585 N578 0.984 . S
H586 N574 0.984 . S
H587 N574 0.985 . S
C588 C589 1.363 . S
C588 C594 1.379 . S
C588 N596 1.356 . S
C589 C588 1.363 . S
C589 C595 1.363 . S
C590 C591 1.363 . S
C590 C595 1.379 . S
C590 N597 1.356 . S
C591 C590 1.363 . S
C591 C594 1.363 . S
N592 C594 1.356 . S
N592 H604 0.984 . S
N592 H605 0.985 . S
N593 C595 1.355 . S
N593 H598 0.985 1_556 S
N593 H599 0.985 1_556 S
C594 C588 1.379 . S
C594 C591 1.363 . S
C594 N592 1.356 . S
C595 C589 1.363 . S
C595 C590 1.379 . S
C595 N593 1.355 . S
N596 C588 1.356 . S
N596 H602 0.984 . S
N596 H603 0.984 . S
N597 C590 1.356 . S
N597 H600 0.984 . S
N597 H601 0.985 . S
H598 N593 0.985 1_554 S
H599 N593 0.985 1_554 S
H600 N597 0.984 . S
H601 N597 0.985 . S
H602 N596 0.984 . S
H603 N596 0.984 . S
H604 N592 0.984 . S
H605 N592 0.985 . S
C606 C607 1.363 . S
C606 C612 1.379 . S
C606 N614 1.356 . S
C607 C606 1.363 . S
C607 C613 1.363 . S
C608 C609 1.363 . S
C608 C613 1.379 . S
C608 N615 1.356 . S
C609 C608 1.363 . S
C609 C612 1.363 . S
N610 C612 1.356 . S
N610 H622 0.984 . S
N610 H623 0.985 . S
N611 C613 1.356 . S
N611 H616 0.984 . S
N611 H617 0.985 . S
C612 C606 1.379 . S
C612 C609 1.363 . S
C612 N610 1.356 . S
C613 C607 1.363 . S
C613 C608 1.379 . S
C613 N611 1.356 . S
N614 C606 1.356 . S
N614 H620 0.984 . S
N614 H621 0.984 . S
N615 C608 1.356 . S
N615 H618 0.984 . S
N615 H619 0.985 . S
H616 N611 0.984 . S
H617 N611 0.985 . S
H618 N615 0.984 . S
H619 N615 0.985 . S
H620 N614 0.984 . S
H621 N614 0.984 . S
H622 N610 0.984 . S
H623 N610 0.985 . S
C624 C625 1.363 . S
C624 C630 1.379 . S
C624 N632 1.356 . S
C625 C624 1.363 . S
C625 C631 1.363 . S
C626 C627 1.363 . S
C626 C631 1.379 . S
C626 N633 1.356 . S
C627 C626 1.363 . S
C627 C630 1.363 . S
N628 C630 1.356 . S
N628 H640 0.984 . S
N628 H641 0.985 . S
N629 C631 1.356 1_545 S
N629 H634 0.984 . S
N629 H635 0.985 . S
C630 C624 1.379 . S
C630 C627 1.363 . S
C630 N628 1.356 . S
C631 C625 1.363 . S
C631 C626 1.379 . S
C631 N629 1.356 1_565 S
N632 C624 1.356 . S
N632 H638 0.984 . S
N632 H639 0.984 . S
N633 C626 1.356 . S
N633 H636 0.984 . S
N633 H637 0.985 . S
H634 N629 0.984 . S
H635 N629 0.985 . S
H636 N633 0.984 . S
H637 N633 0.985 . S
H638 N632 0.984 . S
H639 N632 0.984 . S
H640 N628 0.984 . S
H641 N628 0.985 . S
C642 C643 1.363 . S
C642 C648 1.379 . S
C642 N650 1.356 . S
C643 C642 1.363 . S
C643 C649 1.363 . S
C644 C645 1.363 . S
C644 C649 1.379 . S
C644 N651 1.356 . S
C645 C644 1.363 . S
C645 C648 1.363 . S
N646 C648 1.356 . S
N646 H658 0.984 . S
N646 H659 0.985 . S
N647 C649 1.356 . S
N647 H652 0.984 . S
N647 H653 0.985 . S
C648 C642 1.379 . S
C648 C645 1.363 . S
C648 N646 1.356 . S
C649 C643 1.363 . S
C649 C644 1.379 . S
C649 N647 1.356 . S
N650 C642 1.356 . S
N650 H656 0.984 . S
N650 H657 0.984 . S
N651 C644 1.356 . S
N651 H654 0.984 . S
N651 H655 0.985 . S
H652 N647 0.984 . S
H653 N647 0.985 . S
H654 N651 0.984 . S
H655 N651 0.985 . S
H656 N650 0.984 . S
H657 N650 0.984 . S
H658 N646 0.984 . S
H659 N646 0.985 . S
C660 C661 1.363 . S
C660 C666 1.379 . S
C660 N668 1.356 . S
C661 C660 1.363 . S
C661 C667 1.363 . S
C662 C663 1.363 . S
C662 C667 1.379 . S
C662 N669 1.356 . S
C663 C662 1.363 . S
C663 C666 1.363 . S
N664 C666 1.356 . S
N664 H676 0.984 . S
N664 H677 0.985 . S
N665 C667 1.356 . S
N665 H670 0.984 . S
N665 H671 0.985 . S
C666 C660 1.379 . S
C666 C663 1.363 . S
C666 N664 1.356 . S
C667 C661 1.363 . S
C667 C662 1.379 . S
C667 N665 1.356 . S
N668 C660 1.356 . S
N668 H674 0.984 . S
N668 H675 0.984 . S
N669 C662 1.356 . S
N669 H672 0.984 . S
N669 H673 0.985 . S
H670 N665 0.984 . S
H671 N665 0.985 . S
H672 N669 0.984 . S
H673 N669 0.985 . S
H674 N668 0.984 . S
H675 N668 0.984 . S
H676 N664 0.984 . S
H677 N664 0.985 . S
C678 C679 1.363 . S
C678 C684 1.379 . S
C678 N686 1.356 . S
C679 C678 1.363 . S
C679 C685 1.363 . S
C680 C681 1.363 . S
C680 C685 1.379 . S
C680 N687 1.356 1_556 S
C681 C680 1.363 . S
C681 C684 1.363 . S
N682 C684 1.356 . S
N682 H694 0.984 . S
N682 H695 0.985 . S
N683 C685 1.356 . S
N683 H688 0.984 . S
N683 H689 0.985 1_556 S
C684 C678 1.379 . S
C684 C681 1.363 . S
C684 N682 1.356 . S
C685 C679 1.363 . S
C685 C680 1.379 . S
C685 N683 1.356 . S
N686 C678 1.356 . S
N686 H692 0.984 . S
N686 H693 0.984 . S
N687 C680 1.356 1_554 S
N687 H690 0.984 . S
N687 H691 0.985 . S
H688 N683 0.984 . S
H689 N683 0.985 1_554 S
H690 N687 0.984 . S
H691 N687 0.985 . S
H692 N686 0.984 . S
H693 N686 0.984 . S
H694 N682 0.984 . S
H695 N682 0.985 . S
C696 C697 1.363 . S
C696 C702 1.379 . S
C696 N704 1.356 1_565 S
C697 C696 1.363 . S
C697 C703 1.363 . S
C698 C699 1.363 . S
C698 C703 1.379 . S
C698 N705 1.356 . S
C699 C698 1.363 . S
C699 C702 1.363 . S
N700 C702 1.356 . S
N700 H712 0.984 1_655 S
N700 H713 0.985 . S
N701 C703 1.356 . S
N701 H706 0.984 . S
N701 H707 0.985 . S
C702 C696 1.379 . S
C702 C699 1.363 . S
C702 N700 1.356 . S
C703 C697 1.363 . S
C703 C698 1.379 . S
C703 N701 1.356 . S
N704 C696 1.356 1_545 S
N704 H710 0.984 1_655 S
N704 H711 0.984 . S
N705 C698 1.356 . S
N705 H708 0.984 . S
N705 H709 0.985 . S
H706 N701 0.984 . S
H707 N701 0.985 . S
H708 N705 0.984 . S
H709 N705 0.985 . S
H710 N704 0.984 1_455 S
H711 N704 0.984 . S
H712 N700 0.984 1_455 S
H713 N700 0.985 . S
C714 C715 1.363 . S
C714 C720 1.379 . S
C714 N722 1.356 . S
C715 C714 1.363 . S
C715 C721 1.363 . S
C716 C717 1.363 . S
C716 C721 1.379 . S
C716 N723 1.356 . S
C717 C716 1.363 . S
C717 C720 1.363 . S
N718 C720 1.356 . S
N718 H730 0.984 . S
N718 H731 0.985 . S
N719 C721 1.356 . S
N719 H724 0.984 . S
N719 H725 0.985 . S
C720 C714 1.379 . S
C720 C717 1.363 . S
C720 N718 1.356 . S
C721 C715 1.363 . S
C721 C716 1.379 . S
C721 N719 1.356 . S
N722 C714 1.356 . S
N722 H728 0.984 . S
N722 H729 0.984 . S
N723 C716 1.356 . S
N723 H726 0.984 . S
N723 H727 0.985 . S
H724 N719 0.984 . S
H725 N719 0.985 . S
H726 N723 0.984 . S
H727 N723 0.985 . S
H728 N722 0.984 . S
H729 N722 0.984 . S
H730 N718 0.984 . S
H731 N718 0.985 . S
C732 C733 1.363 . S
C732 C738 1.379 . S
C732 N740 1.356 . S
C733 C732 1.363 . S
C733 C739 1.363 . S
C734 C735 1.363 . S
C734 C739 1.379 . S
C734 N741 1.356 . S
C735 C734 1.363 . S
C735 C738 1.363 . S
N736 C738 1.356 . S
N736 H748 0.984 . S
N736 H749 0.985 . S
N737 C739 1.356 . S
N737 H742 0.984 . S
N737 H743 0.985 . S
C738 C732 1.379 . S
C738 C735 1.363 . S
C738 N736 1.356 . S
C739 C733 1.363 . S
C739 C734 1.379 . S
C739 N737 1.356 . S
N740 C732 1.356 . S
N740 H746 0.984 . S
N740 H747 0.984 . S
N741 C734 1.356 . S
N741 H744 0.984 . S
N741 H745 0.985 . S
H742 N737 0.984 . S
H743 N737 0.985 . S
H744 N741 0.984 . S
H745 N741 0.985 . S
H746 N740 0.984 . S
H747 N740 0.984 . S
H748 N736 0.984 . S
H749 N736 0.985 . S
C750 C751 1.363 . S
C750 C756 1.379 . S
C750 N758 1.356 . S
C751 C750 1.363 . S
C751 C757 1.363 . S
C752 C753 1.363 . S
C752 C757 1.379 . S
C752 N759 1.356 . S
C753 C752 1.363 . S
C753 C756 1.363 . S
N754 C756 1.356 . S
N754 H766 0.984 . S
N754 H767 0.985 . S
N755 C757 1.356 . S
N755 H760 0.984 . S
N755 H761 0.985 . S
C756 C750 1.379 . S
C756 C753 1.363 . S
C756 N754 1.356 . S
C757 C751 1.363 . S
C757 C752 1.379 . S
C757 N755 1.356 . S
N758 C750 1.356 . S
N758 H764 0.984 . S
N758 H765 0.984 . S
N759 C752 1.356 . S
N759 H762 0.984 . S
N759 H763 0.985 . S
H760 N755 0.984 . S
H761 N755 0.985 . S
H762 N759 0.984 . S
H763 N759 0.985 . S
H764 N758 0.984 . S
H765 N758 0.984 . S
H766 N754 0.984 . S
H767 N754 0.985 . S
C768 C769 1.363 . S
C768 C774 1.379 . S
C768 N776 1.356 . S
C769 C768 1.363 . S
C769 C775 1.363 . S
C770 C771 1.363 . S
C770 C775 1.379 . S
C770 N777 1.356 . S
C771 C770 1.363 . S
C771 C774 1.363 . S
N772 C774 1.356 . S
N772 H784 0.984 1_655 S
N772 H785 0.985 1_655 S
N773 C775 1.356 . S
N773 H778 0.984 . S
N773 H779 0.985 . S
C774 C768 1.379 . S
C774 C771 1.363 . S
C774 N772 1.356 . S
C775 C769 1.363 . S
C775 C770 1.379 . S
C775 N773 1.356 . S
N776 C768 1.356 . S
N776 H782 0.984 . S
N776 H783 0.984 . S
N777 C770 1.356 . S
N777 H780 0.984 . S
N777 H781 0.985 . S
H778 N773 0.984 . S
H779 N773 0.985 . S
H780 N777 0.984 . S
H781 N777 0.985 . S
H782 N776 0.984 . S
H783 N776 0.984 . S
H784 N772 0.984 1_455 S
H785 N772 0.985 1_455 S
C786 C787 1.363 . S
C786 C792 1.379 1_554 S
C786 N794 1.356 . S
C787 C786 1.363 . S
C787 C793 1.363 1_554 S
C788 C789 1.363 . S
C788 C793 1.379 . S
C788 N795 1.356 . S
C789 C788 1.363 . S
C789 C792 1.363 . S
N790 C792 1.356 . S
N790 H802 0.984 . S
N790 H803 0.985 . S
N791 C793 1.356 . S
N791 H796 0.984 1_556 S
N791 H797 0.985 . S
C792 C786 1.379 1_556 S
C792 C789 1.363 . S
C792 N790 1.356 . S
C793 C787 1.363 1_556 S
C793 C788 1.379 . S
C793 N791 1.356 . S
N794 C786 1.356 . S
N794 H800 0.984 . S
N794 H801 0.984 . S
N795 C788 1.356 . S
N795 H798 0.984 . S
N795 H799 0.985 . S
H796 N791 0.984 1_554 S
H797 N791 0.985 . S
H798 N795 0.984 . S
H799 N795 0.985 . S
H800 N794 0.984 . S
H801 N794 0.984 . S
H802 N790 0.984 . S
H803 N790 0.985 . S
C804 C805 1.363 . S
C804 C810 1.379 1_455 S
C804 N812 1.356 . S
C805 C804 1.363 . S
C805 C811 1.363 1_554 S
C806 C807 1.363 1_556 S
C806 C811 1.379 1_655 S
C806 N813 1.356 . S
C807 C806 1.363 1_554 S
C807 C810 1.363 . S
N808 C810 1.356 . S
N808 H820 0.984 . S
N808 H821 0.985 . S
N809 C811 1.356 . S
N809 H814 0.984 . S
N809 H815 0.985 . S
C810 C804 1.379 1_655 S
C810 C807 1.363 . S
C810 N808 1.356 . S
C811 C805 1.363 1_556 S
C811 C806 1.379 1_455 S
C811 N809 1.356 . S
N812 C804 1.356 . S
N812 H818 0.984 . S
N812 H819 0.984 . S
N813 C806 1.356 . S
N813 H816 0.984 . S
N813 H817 0.985 . S
H814 N809 0.984 . S
H815 N809 0.985 . S
H816 N813 0.984 . S
H817 N813 0.985 . S
H818 N812 0.984 . S
H819 N812 0.984 . S
H820 N808 0.984 . S
H821 N808 0.985 . S
C822 C823 1.363 . S
C822 C828 1.379 . S
C822 N830 1.356 . S
C823 C822 1.363 . S
C823 C829 1.363 . S
C824 C825 1.363 1_455 S
C824 C829 1.379 1_455 S
C824 N831 1.356 . S
C825 C824 1.363 1_655 S
C825 C828 1.363 . S
N826 C828 1.356 . S
N826 H838 0.984 . S
N826 H839 0.985 . S
N827 C829 1.356 . S
N827 H832 0.984 . S
N827 H833 0.985 1_655 S
C828 C822 1.379 . S
C828 C825 1.363 . S
C828 N826 1.356 . S
C829 C823 1.363 . S
C829 C824 1.379 1_655 S
C829 N827 1.356 . S
N830 C822 1.356 . S
N830 H836 0.984 . S
N830 H837 0.984 . S
N831 C824 1.356 . S
N831 H834 0.984 . S
N831 H835 0.985 . S
H832 N827 0.984 . S
H833 N827 0.985 1_455 S
H834 N831 0.984 . S
H835 N831 0.985 . S
H836 N830 0.984 . S
H837 N830 0.984 . S
H838 N826 0.984 . S
H839 N826 0.985 . S
C840 C841 1.363 . S
C840 C846 1.379 . S
C840 N848 1.356 . S
C841 C840 1.363 . S
C841 C847 1.363 . S
C842 C843 1.363 . S
C842 C847 1.379 . S
C842 N849 1.356 . S
C843 C842 1.363 . S
C843 C846 1.363 . S
N844 C846 1.356 . S
N844 H856 0.984 . S
N844 H857 0.985 . S
N845 C847 1.356 . S
N845 H850 0.984 . S
N845 H851 0.985 . S
C846 C840 1.379 . S
C846 C843 1.363 . S
C846 N844 1.356 . S
C847 C841 1.363 . S
C847 C842 1.379 . S
C847 N845 1.356 . S
N848 C840 1.356 . S
N848 H854 0.984 . S
N848 H855 0.984 . S
N849 C842 1.356 . S
N849 H852 0.984 . S
N849 H853 0.985 . S
H850 N845 0.984 . S
H851 N845 0.985 . S
H852 N849 0.984 . S
H853 N849 0.985 . S
H854 N848 0.984 . S
H855 N848 0.984 . S
H856 N844 0.984 . S
H857 N844 0.985 . S
C858 C859 1.363 . S
C858 C864 1.379 . S
C858 N866 1.356 1_655 S
C859 C858 1.363 . S
C859 C865 1.363 . S
C860 C861 1.363 . S
C860 C865 1.379 . S
C860 N867 1.356 . S
C861 C860 1.363 . S
C861 C864 1.363 . S
N862 C864 1.356 . S
N862 H874 0.984 1_655 S
N862 H875 0.985 . S
N863 C865 1.356 . S
N863 H868 0.984 . S
N863 H869 0.985 . S
C864 C858 1.379 . S
C864 C861 1.363 . S
C864 N862 1.356 . S
C865 C859 1.363 . S
C865 C860 1.379 . S
C865 N863 1.356 . S
N866 C858 1.356 1_455 S
N866 H872 0.984 . S
N866 H873 0.984 . S
N867 C860 1.356 . S
N867 H870 0.984 . S
N867 H871 0.985 . S
H868 N863 0.984 . S
H869 N863 0.985 . S
H870 N867 0.984 . S
H871 N867 0.985 . S
H872 N866 0.984 . S
H873 N866 0.984 . S
H874 N862 0.984 1_455 S
H875 N862 0.985 . S
C876 C877 1.363 . S
C876 C882 1.379 . S
C876 N884 1.356 . S
C877 C876 1.363 . S
C877 C883 1.363 . S
C878 C879 1.363 . S
C878 C883 1.379 . S
C878 N885 1.356 . S
C879 C878 1.363 . S
C879 C882 1.363 . S
N880 C882 1.356 . S
N880 H892 0.984 . S
N880 H893 0.985 . S
N881 C883 1.356 . S
N881 H886 0.984 . S
N881 H887 0.985 . S
C882 C876 1.379 . S
C882 C879 1.363 . S
C882 N880 1.356 . S
C883 C877 1.363 . S
C883 C878 1.379 . S
C883 N881 1.356 . S
N884 C876 1.356 . S
N884 H890 0.984 . S
N884 H891 0.984 . S
N885 C878 1.356 . S
N885 H888 0.984 . S
N885 H889 0.985 . S
H886 N881 0.984 . S
H887 N881 0.985 . S
H888 N885 0.984 . S
H889 N885 0.985 . S
H890 N884 0.984 . S
H891 N884 0.984 . S
H892 N880 0.984 . S
H893 N880 0.985 . S
C894 C895 1.363 . S
C894 C900 1.379 . S
C894 N902 1.356 . S
C895 C894 1.363 . S
C895 C901 1.363 . S
C896 C897 1.363 . S
C896 C901 1.379 . S
C896 N903 1.356 . S
C897 C896 1.363 . S
C897 C900 1.363 . S
N898 C900 1.356 . S
N898 H910 0.984 1_545 S
N898 H911 0.985 1_545 S
N899 C901 1.356 . S
N899 H904 0.984 . S
N899 H905 0.985 . S
C900 C894 1.379 . S
C900 C897 1.363 . S
C900 N898 1.356 . S
C901 C895 1.363 . S
C901 C896 1.379 . S
C901 N899 1.356 . S
N902 C894 1.356 . S
N902 H908 0.984 . S
N902 H909 0.984 . S
N903 C896 1.356 . S
N903 H906 0.984 . S
N903 H907 0.985 . S
H904 N899 0.984 . S
H905 N899 0.985 . S
H906 N903 0.984 . S
H907 N903 0.985 . S
H908 N902 0.984 . S
H909 N902 0.984 . S
H910 N898 0.984 1_565 S
H911 N898 0.985 1_565 S
C265 C84 1.563 . S
C267 C7 1.504 . S
C283 C51 1.794 . S
C285 C18 1.560 . S
C301 C62 1.848 . S
C303 C29 1.908 . S
C319 C73 1.946 . S
C321 C40 1.833 . S
C337 C95 1.577 1_565 S
C339 C139 1.581 . S
C355 C150 1.356 . S
C357 C106 1.348 . S
C373 C117 1.629 . S
C375 C161 1.609 . S
C391 C172 1.218 . S
C393 C128 1.221 . S
C409 C183 1.358 . S
C411 C238 1.284 . S
C427 C194 1.497 . S
C429 C216 1.578 . S
C445 C205 1.393 . S
C447 C249 1.432 . S
C463 C260 1.421 . S
C465 C227 1.222 . S
C481 C8 1.634 . S
C483 C173 1.663 . S
C499 C19 1.817 . S
C501 C137 1.874 . S
C517 C151 1.527 . S
C519 C27 1.516 . S
C535 C162 1.878 . S
C537 C41 1.851 . S
C553 C49 1.671 . S
C555 C104 1.120 . S
C571 C60 1.701 . S
C573 C118 1.806 . S
C589 C126 1.747 . S
C591 C71 1.776 . S
C607 C85 1.603 . S
C609 C93 1.556 . S
C625 C129 1.747 1_565 S
C627 C140 1.786 . S
C643 C228 1.682 . S
C645 C181 1.632 . S
C661 C192 1.384 . S
C663 C239 1.700 . S
C679 C203 1.563 . S
C681 C214 1.433 . S
C697 C159 1.814 . S
C699 C107 1.731 . S
C715 C63 1.895 . S
C717 C206 1.858 . S
C733 C258 1.342 . S
C735 C74 1.605 . S
C751 C82 1.666 . S
C753 C184 1.740 . S
C769 C195 1.685 . S
C771 C52 1.749 . S
C787 C236 1.245 . S
C789 C38 1.687 . S
C805 C5 1.228 . S
C807 C217 1.633 . S
C823 C16 1.107 . S
C825 C247 1.700 . S
C841 C225 1.222 . S
C843 C30 1.684 . S
C859 C250 1.738 . S
C861 C261 1.737 . S
C877 C96 1.715 . S
C879 C148 1.316 . S
C895 C170 1.464 . S
C897 C115 1.380 . S
