# Generated by pormake.
# Topology lvt, (4)-cn, num edge types: 1
# Building blocks:
#     Node 0, Type 0, BuildingBlock: MUDLON_clean_sbu_0, # of connection points: 4
#     Node 1, Type 0, BuildingBlock: MUDLON_clean_sbu_0, # of connection points: 4
#     Node 2, Type 0, BuildingBlock: MUDLON_clean_sbu_0, # of connection points: 4
#     Node 3, Type 0, BuildingBlock: MUDLON_clean_sbu_0, # of connection points: 4
#     Node 4, Type 0, BuildingBlock: MUDLON_clean_sbu_0, # of connection points: 4
#     Node 5, Type 0, BuildingBlock: MUDLON_clean_sbu_0, # of connection points: 4
#     Node 6, Type 0, BuildingBlock: MUDLON_clean_sbu_0, # of connection points: 4
#     Node 7, Type 0, BuildingBlock: MUDLON_clean_sbu_0, # of connection points: 4
#     Edge 8, Type (0, 0), BuildingBlock: CIFDUS_clean_linker_0, # of connection points: 2
#     Edge 9, Type (0, 0), BuildingBlock: CIFDUS_clean_linker_0, # of connection points: 2
#     Edge 10, Type (0, 0), BuildingBlock: CIFDUS_clean_linker_0, # of connection points: 2
#     Edge 11, Type (0, 0), BuildingBlock: CIFDUS_clean_linker_0, # of connection points: 2
#     Edge 12, Type (0, 0), BuildingBlock: CIFDUS_clean_linker_0, # of connection points: 2
#     Edge 13, Type (0, 0), BuildingBlock: CIFDUS_clean_linker_0, # of connection points: 2
#     Edge 14, Type (0, 0), BuildingBlock: CIFDUS_clean_linker_0, # of connection points: 2
#     Edge 15, Type (0, 0), BuildingBlock: CIFDUS_clean_linker_0, # of connection points: 2
#     Edge 16, Type (0, 0), BuildingBlock: CIFDUS_clean_linker_0, # of connection points: 2
#     Edge 17, Type (0, 0), BuildingBlock: CIFDUS_clean_linker_0, # of connection points: 2
#     Edge 18, Type (0, 0), BuildingBlock: CIFDUS_clean_linker_0, # of connection points: 2
#     Edge 19, Type (0, 0), BuildingBlock: CIFDUS_clean_linker_0, # of connection points: 2
#     Edge 20, Type (0, 0), BuildingBlock: CIFDUS_clean_linker_0, # of connection points: 2
#     Edge 21, Type (0, 0), BuildingBlock: CIFDUS_clean_linker_0, # of connection points: 2
#     Edge 22, Type (0, 0), BuildingBlock: CIFDUS_clean_linker_0, # of connection points: 2
#     Edge 23, Type (0, 0), BuildingBlock: CIFDUS_clean_linker_0, # of connection points: 2
# Relax obj value: 0.001
# Max RMSD: 0.037
# Mean RMSD: 0.026
data_MOF--net-lvt--node1-MUDLON_clean_sbu_0--edge1-CIFDUS_clean_linker_0
_symmetry_space_group_name_H-M    P1
_symmetry_Int_Tables_number       1
_symmetry_cell_setting            triclinic
loop_
_symmetry_equiv_pos_as_xyz
'x, y, z'
_cell_length_a     36.922027
_cell_length_b     36.870665
_cell_length_c     8.3552521
_cell_angle_alpha  90.305064
_cell_angle_beta   90.374811
_cell_angle_gamma 90.408233
loop_
_atom_site_label
_atom_site_type_symbol
_atom_site_fract_x
_atom_site_fract_y
_atom_site_fract_z
_atom_type_partial_charge
Mg0 Mg 0.05813 0.04092 0.67154 0.0
C1 C 0.11631 0.09391 0.60562 0.0
O2 O 0.11805 0.0892 0.76129 0.0
C3 C 1.00963 0.97865 0.65145 0.0
O4 O 1.01754 0.98276 0.8041 0.0
C5 C 0.99347 0.08291 0.67259 0.0
O6 O 0.99934 0.07107 0.52645 0.0
O7 O 1.0167 0.07536 0.78069 0.0
O8 O 0.09251 0.07609 0.52604 0.0
O9 O 0.09475 1.00831 0.81606 0.0
C10 C 0.11503 0.98845 0.72964 0.0
O11 O 0.11248 0.9913 0.57324 0.0
O12 O 0.02478 0.99978 0.5514 0.0
Mg13 Mg 0.28792 0.76367 0.05164 0.0
C14 C 0.24291 0.6939 0.07363 0.0
O15 O 0.27528 0.68008 0.05521 0.0
C16 C 0.34567 0.81279 0.15711 0.0
O17 O 0.35694 0.79689 0.02579 0.0
C18 C 0.24394 0.82361 0.96805 0.0
O19 O 0.24056 0.81728 0.12193 0.0
O20 O 0.26457 0.80294 0.88692 0.0
O21 O 0.24025 0.72809 0.09628 0.0
O22 O 0.33255 0.72778 0.98591 0.0
C23 C 0.34856 0.71524 0.10943 0.0
O24 O 0.33634 0.72447 0.25123 0.0
O25 O 0.315 0.80317 0.21396 0.0
Mg26 Mg 0.54071 0.02407 0.97974 0.0
C27 C 0.48133 0.97905 0.15035 0.0
O28 O 0.46241 1.00881 0.13278 0.0
C29 C 0.59855 0.08065 0.0645 0.0
O30 O 0.6033 0.07811 0.90913 0.0
C31 C 0.56944 0.96669 0.7478 0.0
O32 O 0.5365 0.95366 0.76554 0.0
O33 O 0.57762 0.99695 0.81366 0.0
O34 O 0.51458 0.97913 0.10915 0.0
O35 O 0.49574 0.05362 0.8701 0.0
C36 C 0.49515 0.08754 0.84229 0.0
O37 O 0.52474 0.1069 0.86545 0.0
O38 O 0.57401 0.06112 0.12917 0.0
Mg39 Mg 0.29077 0.2851 0.00311 0.0
C40 C 0.23235 0.23283 0.07554 0.0
O41 O 0.22672 0.24165 0.92524 0.0
C42 C 0.35516 0.33209 0.03312 0.0
O43 O 0.35197 0.32593 0.87861 0.0
C44 C 0.25105 0.35626 0.95761 0.0
O45 O 0.27947 0.36792 0.03841 0.0
O46 O 0.25003 0.32319 0.91176 0.0
O47 O 0.25906 0.24746 0.14949 0.0
O48 O 0.32387 0.25279 0.83852 0.0
C49 C 0.3261 0.21857 0.85657 0.0
O50 O 0.30331 0.20237 0.95316 0.0
O51 O 0.33219 0.31751 0.12678 0.0
Mg52 Mg 0.7943 0.27531 0.58191 0.0
C53 C 0.86052 0.32184 0.59298 0.0
O54 O 0.86007 0.30584 0.73285 0.0
C55 C 0.73847 0.22323 0.46465 0.0
O56 O 0.73555 0.22251 0.62129 0.0
C57 C 0.83971 0.22822 0.8384 0.0
O58 O 0.83596 0.25304 0.95032 0.0
O59 O 0.82457 0.23235 0.70235 0.0
O60 O 0.83558 0.31373 0.49221 0.0
O61 O 0.75349 0.30831 0.70264 0.0
C62 C 0.75971 0.34123 0.74197 0.0
O63 O 0.79334 0.35301 0.74473 0.0
O64 O 0.76217 0.24439 0.40384 0.0
Mg65 Mg 0.78741 0.78105 0.5589 0.0
C66 C 0.84434 0.83886 0.55738 0.0
O67 O 0.82635 0.84508 0.42417 0.0
C68 C 0.76911 0.70987 0.72371 0.0
O69 O 0.79391 0.69848 0.62379 0.0
C70 C 0.84091 0.74648 0.3241 0.0
O71 O 0.85994 0.77571 0.35806 0.0
O72 O 0.80818 0.74455 0.37157 0.0
O73 O 0.83402 0.81279 0.64632 0.0
O74 O 0.74462 0.82071 0.50481 0.0
C75 C 0.7446 0.84768 0.60117 0.0
O76 O 0.76942 0.8492 0.71434 0.0
O77 O 0.76279 0.74378 0.7326 0.0
Mg78 Mg 0.57262 0.52806 0.25148 0.0
C79 C 0.513 0.47711 0.20699 0.0
O80 O 0.51178 0.48788 0.35707 0.0
C81 C 0.61935 0.59144 0.18127 0.0
O82 O 0.60176 0.60096 0.31086 0.0
C83 C 0.60235 0.46181 0.40542 0.0
O84 O 0.58793 0.44944 0.27178 0.0
O85 O 0.60036 0.49566 0.43611 0.0
O86 O 0.53788 0.49003 0.11816 0.0
O87 O 0.53192 0.56749 0.3227 0.0
C88 C 0.51676 0.58111 0.19949 0.0
O89 O 0.52807 0.57087 0.05754 0.0
O90 O 0.6132 0.56009 0.12124 0.0
Mg91 Mg 0.04915 0.54296 0.39494 0.0
C92 C 0.98987 0.48762 0.33924 0.0
O93 O 0.99066 0.50473 0.20166 0.0
C94 C 0.07244 0.60107 0.64055 0.0
O95 O 0.04617 0.61842 0.5678 0.0
C96 C 0.09109 0.48993 0.17722 0.0
O97 O 0.06137 0.4705 0.19051 0.0
O98 O 0.09248 0.52134 0.24187 0.0
O99 O 1.01184 0.49773 0.44975 0.0
O100 O 1.01653 0.58589 0.28397 0.0
C101 C 0.98328 0.58838 0.32284 0.0
O102 O 0.96971 0.56465 0.42303 0.0
O103 O 0.07829 0.56813 0.60108 0.0
H104 H 0.11813 0.11415 0.29094 0.0
H105 H 0.17094 0.13289 0.74667 0.0
H106 H 0.21156 0.17702 0.62484 0.0
H107 H 0.23208 0.21106 0.3887 0.0
H108 H 0.17866 0.1928 0.93392 0.0
H109 H 0.13879 0.14793 0.05492 0.0
C110 C 0.13858 0.1278 0.36349 0.0
C111 C 0.14133 0.12011 0.52785 0.0
C112 C 0.16193 0.1534 0.29269 0.0
C113 C 0.16804 0.1382 0.6199 0.0
C114 C 0.19139 0.16353 0.5503 0.0
C115 C 0.21174 0.19725 0.31612 0.0
C116 C 0.20846 0.20546 0.1524 0.0
C117 C 0.18856 0.17146 0.38682 0.0
C118 C 0.18185 0.18722 0.06034 0.0
C119 C 0.15895 0.16145 0.12942 0.0
H120 H 0.15953 0.94216 0.57125 0.0
H121 H 0.12523 0.97245 0.04651 0.0
H122 H 0.16295 0.92473 0.16028 0.0
H123 H 0.20381 0.87348 0.12449 0.0
H124 H 0.2381 0.84242 0.6504 0.0
H125 H 0.20212 0.89167 0.53607 0.0
C126 C 0.16038 0.9385 0.69991 0.0
C127 C 0.1394 0.96088 0.80023 0.0
C128 C 0.18198 0.91085 0.76439 0.0
C129 C 0.141 0.95569 0.96653 0.0
C130 C 0.16253 0.92834 0.0316 0.0
C131 C 0.20355 0.87739 -0.00408 0.0
C132 C 0.22351 0.85405 0.89597 0.0
C133 C 0.18282 0.90559 0.93154 0.0
C134 C 0.22297 0.85986 0.72998 0.0
C135 C 0.20237 0.88801 0.66471 0.0
H136 H 0.41142 0.96881 0.25168 0.0
H137 H 0.50893 0.91058 0.13503 0.0
H138 H 0.47602 0.85322 0.15118 0.0
H139 H 0.41816 0.82026 0.16126 0.0
H140 H 0.32023 0.87723 0.27723 0.0
H141 H 0.35472 0.93421 0.30209 0.0
C142 C 0.42564 0.94355 0.23252 0.0
C143 C 0.4626 0.94424 0.18944 0.0
C144 C 0.4064 0.91038 0.24135 0.0
C145 C 0.48056 0.9111 0.16706 0.0
C146 C 0.46169 0.87817 0.17581 0.0
C147 C 0.40452 0.84502 0.1962 0.0
C148 C 0.36669 0.84459 0.2167 0.0
C149 C 0.42442 0.87758 0.20755 0.0
C150 C 0.34935 0.87677 0.26233 0.0
C151 C 0.36905 0.90943 0.27451 0.0
H152 H 0.3353 0.14562 0.84283 0.0
H153 H 0.39095 0.24685 0.7563 0.0
H154 H 0.44822 0.2146 0.72868 0.0
H155 H 0.48358 0.15854 0.76392 0.0
H156 H 0.42734 0.05753 0.85075 0.0
H157 H 0.36944 0.08876 0.84218 0.0
C158 C 0.35983 0.16059 0.81484 0.0
C159 C 0.35882 0.19867 0.80368 0.0
C160 C 0.39276 0.14193 0.80124 0.0
C161 C 0.39084 0.21755 0.76564 0.0
C162 C 0.42372 0.19913 0.75114 0.0
C163 C 0.45864 0.14325 0.77859 0.0
C164 C 0.46002 0.10577 0.8105 0.0
C165 C 0.42521 0.16146 0.77422 0.0
C166 C 0.42729 0.08639 0.82717 0.0
C167 C 0.39405 0.10427 0.82278 0.0
H168 H 0.97699 0.92821 0.83777 0.0
H169 H 0.97776 0.9699 0.3559 0.0
H170 H 0.92703 0.92976 0.28439 0.0
H171 H 0.88089 0.88487 0.36231 0.0
H172 H 0.88062 0.84294 0.84375 0.0
H173 H 0.93278 0.88139 0.91214 0.0
C174 C 0.96626 0.92844 0.71665 0.0
C175 C 0.9811 0.95223 0.60251 0.0
C176 C 0.93702 0.90547 0.67681 0.0
C177 C 0.96692 0.9519 0.44604 0.0
C178 C 0.9378 0.92906 0.40533 0.0
C179 C 0.89222 0.8841 0.48232 0.0
C180 C 0.87665 0.86125 0.59826 0.0
C181 C 0.92235 0.9061 0.52037 0.0
C182 C 0.892 0.8603 0.75243 0.0
C183 C 0.92182 0.8823 0.79157 0.0
H184 H 0.97818 0.1295 0.92398 0.0
H185 H 0.93316 0.08317 0.4897 0.0
H186 H 0.88001 0.12094 0.51422 0.0
H187 H 0.84852 0.17056 0.64223 0.0
H188 H 0.89249 0.22005 0.07078 0.0
H189 H 0.94304 0.17723 0.06743 0.0
C190 C 0.95648 0.12743 0.83627 0.0
C191 C 0.96002 0.10383 0.70397 0.0
C192 C 0.9257 0.14986 0.84962 0.0
C193 C 0.93157 0.10143 0.59142 0.0
C194 C 0.90098 0.12299 0.60532 0.0
C195 C 0.86888 0.17184 0.73634 0.0
C196 C 0.86684 0.19882 0.85538 0.0
C197 C 0.89814 0.14786 0.73143 0.0
C198 C 0.89334 0.19963 0.97727 0.0
C199 C 0.92244 0.17527 0.97475 0.0
H200 H 0.68563 0.17722 0.56706 0.0
H201 H 0.73764 0.21482 0.13685 0.0
H202 H 0.69891 0.17431 0.97604 0.0
H203 H 0.65059 0.12774 0.95809 0.0
H204 H 0.59883 0.09061 0.38986 0.0
H205 H 0.6372 0.13144 0.5492 0.0
C206 C 0.68859 0.1767 0.43803 0.0
C207 C 0.7147 0.19917 0.36454 0.0
C208 C 0.66624 0.15332 0.34645 0.0
C209 C 0.71788 0.19794 0.19699 0.0
C210 C 0.69572 0.17472 0.10491 0.0
C211 C 0.64763 0.12853 0.08709 0.0
C212 C 0.62173 0.10592 0.1615 0.0
C213 C 0.66985 0.1522 0.17839 0.0
C214 C 0.61839 0.10756 0.32893 0.0
C215 C 0.64039 0.13095 0.42032 0.0
H216 H 0.64235 0.97892 0.74734 0.0
H217 H 0.56104 0.90185 0.58953 0.0
H218 H 0.60831 0.85949 0.50962 0.0
H219 H 0.67295 0.84142 0.51355 0.0
H220 H 0.75317 0.9179 0.68664 0.0
H221 H 0.70646 0.96324 0.72916 0.0
C222 C 0.63489 0.95313 0.69302 0.0
C223 C 0.59809 0.94357 0.67621 0.0
C224 C 0.66221 0.9285 0.65077 0.0
C225 C 0.5891 0.90993 0.60529 0.0
C226 C 0.61618 0.88557 0.55974 0.0
C227 C 0.68019 0.86829 0.55703 0.0
C228 C 0.71648 0.87621 0.59746 0.0
C229 C 0.65286 0.8941 0.58604 0.0
C230 C 0.72541 0.91103 0.65556 0.0
C231 C 0.69868 0.937 0.68034 0.0
H232 H 0.67492 0.57763 0.97359 0.0
H233 H 0.62197 0.66432 0.22774 0.0
H234 H 0.66404 0.70834 0.11495 0.0
H235 H 0.71538 0.72281 0.94028 0.0
H236 H 0.76984 0.63612 0.69226 0.0
H237 H 0.72822 0.59191 0.80733 0.0
C238 C 0.67256 0.60616 0.00369 0.0
C239 C 0.64515 0.61758 0.10834 0.0
C240 C 0.69734 0.6315 0.94017 0.0
C241 C 0.64278 0.65466 0.14764 0.0
C242 C 0.66687 0.67996 0.08318 0.0
C243 C 0.71834 0.69423 0.91229 0.0
C244 C 0.74572 0.683 0.80708 0.0
C245 C 0.69426 0.66875 0.97915 0.0
C246 C 0.7491 0.64572 0.77286 0.0
C247 C 0.72516 0.62031 0.83814 0.0
H248 H 0.68886 0.32907 0.6639 0.0
H249 H 0.76337 0.41405 0.80741 0.0
H250 H 0.71852 0.45983 0.73797 0.0
H251 H 0.66182 0.47584 0.59524 0.0
H252 H 0.58961 0.39009 0.43875 0.0
H253 H 0.62945 0.34486 0.55559 0.0
C254 C 0.69507 0.35754 0.68378 0.0
C255 C 0.72974 0.36799 0.73847 0.0
C256 C 0.66957 0.38381 0.63882 0.0
C257 C 0.73706 0.40512 0.76397 0.0
C258 C 0.71145 0.43142 0.7234 0.0
C259 C 0.65444 0.44733 0.59068 0.0
C260 C 0.62303 0.43631 0.50686 0.0
C261 C 0.67816 0.42115 0.65437 0.0
C262 C 0.61387 0.39924 0.501 0.0
C263 C 0.63668 0.37329 0.56759 0.0
H264 H 0.86915 0.36426 0.32563 0.0
H265 H 0.9136 0.3451 0.79672 0.0
H266 H 0.95703 0.39419 0.76153 0.0
H267 H 0.98236 0.44355 0.59972 0.0
H268 H 0.93867 0.46279 0.12765 0.0
H269 H 0.89555 0.41307 0.16066 0.0
C270 C 0.88846 0.37071 0.4201 0.0
C271 C 0.88789 0.35085 0.5635 0.0
C272 C 0.91367 0.39924 0.39943 0.0
C273 C 0.91322 0.35974 0.6847 0.0
C274 C 0.93818 0.38797 0.66507 0.0
C275 C 0.96341 0.43689 0.50408 0.0
C276 C 0.96383 0.4571 0.36183 0.0
C277 C 0.93859 0.40806 0.5234 0.0
C278 C 0.93906 0.44786 0.23894 0.0
C279 C 0.91428 0.41933 0.2575 0.0
H280 H 0.91113 0.74059 0.22928 0.0
H281 H 0.81469 0.67668 0.3125 0.0
H282 H 0.85036 0.62126 0.30287 0.0
H283 H 0.91001 0.59192 0.31102 0.0
H284 H 1.00647 0.65552 0.2274 0.0
H285 H 0.96968 0.71001 0.19562 0.0
C286 C 0.89771 0.71451 0.24195 0.0
C287 C 0.86033 0.713 0.27556 0.0
C288 C 0.91851 0.68269 0.23852 0.0
C289 C 0.84342 0.67884 0.28878 0.0
C290 C 0.86388 0.64707 0.28421 0.0
C291 C 0.92293 0.61762 0.28333 0.0
C292 C 0.96097 0.6198 0.27427 0.0
C293 C 0.90162 0.64882 0.2659 0.0
C294 C 0.97728 0.65313 0.23561 0.0
C295 C 0.95624 0.68433 0.21821 0.0
H296 H 0.4635 0.4402 0.38213 0.0
H297 H 0.50274 0.45224 0.8995 0.0
H298 H 0.4578 0.40778 0.80469 0.0
H299 H 0.40683 0.36649 0.85866 0.0
H300 H 0.36784 0.35456 0.34188 0.0
H301 H 0.41358 0.398 0.43697 0.0
C302 C 0.46231 0.43318 0.25598 0.0
C303 C 0.48641 0.44972 0.14784 0.0
C304 C 0.43652 0.4076 0.20268 0.0
C305 C 0.48454 0.43999 0.98521 0.0
C306 C 0.45884 0.41458 0.93102 0.0
C307 C 0.40832 0.37326 0.98501 0.0
C308 C 0.38377 0.35729 0.09297 0.0
C309 C 0.43461 0.39835 0.03866 0.0
C310 C 0.3863 0.3664 0.25617 0.0
C311 C 0.41242 0.3913 0.31054 0.0
H312 H 0.38693 0.68605 0.35453 0.0
H313 H 0.38135 0.68938 0.83837 0.0
H314 H 0.4333 0.64871 0.82228 0.0
H315 H 0.47966 0.61191 0.9546 0.0
H316 H 0.48503 0.60827 0.47074 0.0
H317 H 0.43363 0.64965 0.48689 0.0
C318 C 0.39701 0.67794 0.23818 0.0
C319 C 0.38014 0.69075 0.09763 0.0
C320 C 0.42682 0.65457 0.23 0.0
C321 C 0.39372 0.67994 0.94828 0.0
C322 C 0.42344 0.65669 0.9391 0.0
C323 C 0.46972 0.62017 0.07097 0.0
C324 C 0.48624 0.60693 0.21149 0.0
C325 C 0.44011 0.6438 0.07918 0.0
C326 C 0.47289 0.61801 0.36086 0.0
C327 C 0.44347 0.64164 0.37007 0.0
H328 H 0.17377 0.71522 -0.00368 0.0
H329 H 0.23978 0.62012 0.05642 0.0
H330 H 0.19182 0.58221 0.94116 0.0
H331 H 0.1338 0.57679 0.79416 0.0
H332 H 0.06807 0.67208 0.7318 0.0
H333 H 0.11277 0.70861 0.87681 0.0
C334 C 0.17738 0.68612 0.98754 0.0
C335 C 0.21065 0.67077 0.03406 0.0
C336 C 0.14978 0.66433 0.91789 0.0
C337 C 0.21469 0.63289 0.02075 0.0
C338 C 0.18725 0.61109 0.95397 0.0
C339 C 0.12898 0.60543 0.81415 0.0
C340 C 0.09766 0.62155 0.74943 0.0
C341 C 0.1551 0.62662 0.89726 0.0
C342 C 0.09195 0.65877 0.77825 0.0
C343 C 0.11762 0.67985 0.86137 0.0
H344 H 0.24603 0.42817 0.02878 0.0
H345 H 0.18175 0.33597 0.87532 0.0
H346 H 0.12642 0.3708 0.91477 0.0
H347 H 0.09621 0.42483 0.02306 0.0
H348 H 0.16056 0.51676 0.17954 0.0
H349 H 0.21583 0.48474 0.10711 0.0
C350 C 0.21996 0.41582 0.00139 0.0
C351 C 0.21814 0.37927 0.95097 0.0
C352 C 0.18818 0.43586 0.02656 0.0
C353 C 0.18407 0.36394 0.91455 0.0
C354 C 0.15235 0.38381 0.93812 0.0
C355 C 0.12228 0.43811 0.03948 0.0
C356 C 0.12413 0.473 0.10935 0.0
C357 C 0.15405 0.41939 -0.00113 0.0
C358 C 0.15821 0.48987 0.12745 0.0
C359 C 0.1899 0.4715 0.08646 0.0
loop_
_geom_bond_atom_site_label_1
_geom_bond_atom_site_label_2
_geom_bond_distance
_geom_bond_site_symmetry_2
_ccdc_geom_bond_type
Mg0 O7 2.141 1_455 S
Mg0 O8 2.048 . S
Mg0 O9 2.048 1_545 S
Mg0 O12 2.141 1_445 S
C1 O2 1.313 . S
C1 O8 1.195 . S
O2 C1 1.313 . S
C3 O4 1.245 . S
C3 O12 1.289 . S
O4 C3 1.245 . S
C5 O6 1.245 . S
C5 O7 1.289 . S
O6 C5 1.245 . S
O7 Mg0 2.141 1_655 S
O7 C5 1.289 . S
O8 Mg0 2.048 . S
O8 C1 1.195 . S
O9 Mg0 2.048 1_565 S
O9 C10 1.195 . S
C10 O9 1.195 . S
C10 O11 1.313 . S
O11 C10 1.313 . S
O12 Mg0 2.141 1_665 S
O12 C3 1.289 . S
Mg13 O20 2.141 . S
Mg13 O21 2.048 . S
Mg13 O22 2.048 . S
Mg13 O25 2.141 . S
C14 O15 1.313 . S
C14 O21 1.195 . S
O15 C14 1.313 . S
C16 O17 1.245 1_556 S
C16 O25 1.289 . S
O17 C16 1.245 1_554 S
C18 O19 1.245 . S
C18 O20 1.289 . S
O19 C18 1.245 . S
O20 Mg13 2.141 . S
O20 C18 1.289 . S
O21 Mg13 2.048 . S
O21 C14 1.195 . S
O22 Mg13 2.048 . S
O22 C23 1.195 . S
C23 O22 1.195 . S
C23 O24 1.313 1_556 S
O24 C23 1.313 1_554 S
O25 Mg13 2.141 . S
O25 C16 1.289 . S
Mg26 O33 2.154 . S
Mg26 O34 2.061 . S
Mg26 O35 2.034 1_565 S
Mg26 O38 2.129 1_565 S
C27 O28 1.313 1_554 S
C27 O34 1.195 . S
O28 C27 1.313 1_556 S
C29 O30 1.245 . S
C29 O38 1.289 . S
O30 C29 1.245 . S
C31 O32 1.245 1_554 S
C31 O33 1.289 . S
O32 C31 1.245 1_556 S
O33 Mg26 2.154 . S
O33 C31 1.289 . S
O34 Mg26 2.061 . S
O34 C27 1.195 . S
O35 Mg26 2.034 1_545 S
O35 C36 1.195 . S
C36 O35 1.195 . S
C36 O37 1.313 . S
O37 C36 1.313 . S
O38 Mg26 2.129 1_545 S
O38 C29 1.289 . S
Mg39 O46 2.141 . S
Mg39 O47 2.048 . S
Mg39 O48 2.048 . S
Mg39 O51 2.141 . S
C40 O41 1.313 . S
C40 O47 1.195 . S
O41 C40 1.313 . S
C42 O43 1.245 . S
C42 O51 1.289 . S
O43 C42 1.245 . S
C44 O45 1.245 . S
C44 O46 1.289 . S
O45 C44 1.245 . S
O46 Mg39 2.141 . S
O46 C44 1.289 . S
O47 Mg39 2.048 . S
O47 C40 1.195 . S
O48 Mg39 2.048 . S
O48 C49 1.195 . S
C49 O48 1.195 . S
C49 O50 1.313 . S
O50 C49 1.313 . S
O51 Mg39 2.141 . S
O51 C42 1.289 . S
Mg52 O59 2.141 . S
Mg52 O60 2.048 . S
Mg52 O61 2.048 . S
Mg52 O64 2.141 . S
C53 O54 1.313 . S
C53 O60 1.195 . S
O54 C53 1.313 . S
C55 O56 1.245 . S
C55 O64 1.289 . S
O56 C55 1.245 . S
C57 O58 1.245 . S
C57 O59 1.289 . S
O58 C57 1.245 . S
O59 Mg52 2.141 . S
O59 C57 1.289 . S
O60 Mg52 2.048 . S
O60 C53 1.195 . S
O61 Mg52 2.048 . S
O61 C62 1.195 . S
C62 O61 1.195 . S
C62 O63 1.313 . S
O63 C62 1.313 . S
O64 Mg52 2.141 . S
O64 C55 1.289 . S
Mg65 O72 2.141 . S
Mg65 O73 2.048 . S
Mg65 O74 2.048 . S
Mg65 O77 2.141 . S
C66 O67 1.313 . S
C66 O73 1.195 . S
O67 C66 1.313 . S
C68 O69 1.245 1_556 S
C68 O77 1.289 . S
O69 C68 1.245 1_554 S
C70 O71 1.245 . S
C70 O72 1.289 . S
O71 C70 1.245 . S
O72 Mg65 2.141 . S
O72 C70 1.289 . S
O73 Mg65 2.048 . S
O73 C66 1.195 . S
O74 Mg65 2.048 . S
O74 C75 1.195 . S
C75 O74 1.195 . S
C75 O76 1.313 1_556 S
O76 C75 1.313 1_554 S
O77 Mg65 2.141 . S
O77 C68 1.289 . S
Mg78 O85 2.141 . S
Mg78 O86 2.048 . S
Mg78 O87 2.048 . S
Mg78 O90 2.141 . S
C79 O80 1.313 1_554 S
C79 O86 1.195 . S
O80 C79 1.313 1_556 S
C81 O82 1.245 . S
C81 O90 1.289 1_556 S
O82 C81 1.245 . S
C83 O84 1.245 1_554 S
C83 O85 1.289 . S
O84 C83 1.245 1_556 S
O85 Mg78 2.141 . S
O85 C83 1.289 . S
O86 Mg78 2.048 . S
O86 C79 1.195 . S
O87 Mg78 2.048 . S
O87 C88 1.195 1_554 S
C88 O87 1.195 1_556 S
C88 O89 1.313 . S
O89 C88 1.313 . S
O90 Mg78 2.141 . S
O90 C81 1.289 1_554 S
Mg91 O98 2.141 . S
Mg91 O99 2.048 1_455 S
Mg91 O100 2.048 1_455 S
Mg91 O103 2.141 . S
C92 O93 1.313 . S
C92 O99 1.195 . S
O93 C92 1.313 . S
C94 O95 1.245 . S
C94 O103 1.289 . S
O95 C94 1.245 . S
C96 O97 1.245 . S
C96 O98 1.289 . S
O97 C96 1.245 . S
O98 Mg91 2.141 . S
O98 C96 1.289 . S
O99 Mg91 2.048 1_655 S
O99 C92 1.195 . S
O100 Mg91 2.048 1_655 S
O100 C101 1.195 . S
C101 O100 1.195 . S
C101 O102 1.313 . S
O102 C101 1.313 . S
O103 Mg91 2.141 . S
O103 C94 1.289 . S
H104 C110 0.930 . S
H105 C113 0.930 . S
H106 C114 0.930 . S
H107 C115 0.930 . S
H108 C118 0.930 . S
H109 C119 0.930 . S
C110 H104 0.930 . S
C110 C111 1.355 . S
C110 C112 1.415 . S
C111 C110 1.355 . S
C111 C113 1.419 . S
C112 C110 1.415 . S
C112 C117 1.425 . S
C112 C119 1.409 . S
C113 H105 0.930 . S
C113 C111 1.419 . S
C113 C114 1.362 . S
C114 H106 0.930 . S
C114 C113 1.362 . S
C114 C117 1.409 . S
C115 H107 0.930 . S
C115 C116 1.355 . S
C115 C117 1.415 . S
C116 C115 1.355 . S
C116 C118 1.419 . S
C117 C112 1.425 . S
C117 C114 1.409 . S
C117 C115 1.415 . S
C118 H108 0.930 . S
C118 C116 1.419 . S
C118 C119 1.362 . S
C119 H109 0.930 . S
C119 C112 1.409 . S
C119 C118 1.362 . S
H120 C126 0.930 . S
H121 C129 0.930 . S
H122 C130 0.930 . S
H123 C131 0.930 . S
H124 C134 0.930 . S
H125 C135 0.930 . S
C126 H120 0.930 . S
C126 C127 1.355 . S
C126 C128 1.415 . S
C127 C126 1.355 . S
C127 C129 1.419 . S
C128 C126 1.415 . S
C128 C133 1.425 . S
C128 C135 1.409 . S
C129 H121 0.930 . S
C129 C127 1.419 . S
C129 C130 1.362 . S
C130 H122 0.930 . S
C130 C129 1.362 . S
C130 C133 1.409 . S
C131 H123 0.930 . S
C131 C132 1.355 . S
C131 C133 1.415 . S
C132 C131 1.355 . S
C132 C134 1.419 . S
C133 C128 1.425 . S
C133 C130 1.409 . S
C133 C131 1.415 . S
C134 H124 0.930 . S
C134 C132 1.419 . S
C134 C135 1.362 . S
C135 H125 0.930 . S
C135 C128 1.409 . S
C135 C134 1.362 . S
H136 C142 0.930 . S
H137 C145 0.930 . S
H138 C146 0.930 . S
H139 C147 0.930 . S
H140 C150 0.930 1_554 S
H141 C151 0.930 . S
C142 H136 0.930 . S
C142 C143 1.355 . S
C142 C144 1.415 . S
C143 C142 1.355 . S
C143 C145 1.419 1_554 S
C144 C142 1.415 . S
C144 C149 1.425 1_554 S
C144 C151 1.409 . S
C145 H137 0.930 . S
C145 C143 1.419 1_556 S
C145 C146 1.362 . S
C146 H138 0.930 . S
C146 C145 1.362 . S
C146 C149 1.409 . S
C147 H139 0.930 . S
C147 C148 1.355 . S
C147 C149 1.415 . S
C148 C147 1.355 . S
C148 C150 1.419 . S
C149 C144 1.425 1_556 S
C149 C146 1.409 . S
C149 C147 1.415 . S
C150 H140 0.930 1_556 S
C150 C148 1.419 . S
C150 C151 1.362 1_556 S
C151 H141 0.930 . S
C151 C144 1.409 . S
C151 C150 1.362 1_554 S
H152 C158 0.930 . S
H153 C161 0.930 1_556 S
H154 C162 0.930 1_556 S
H155 C163 0.930 . S
H156 C166 0.930 . S
H157 C167 0.930 . S
C158 H152 0.930 . S
C158 C159 1.355 . S
C158 C160 1.415 . S
C159 C158 1.355 . S
C159 C161 1.419 . S
C160 C158 1.415 . S
C160 C165 1.425 . S
C160 C167 1.409 . S
C161 H153 0.930 1_554 S
C161 C159 1.419 . S
C161 C162 1.362 . S
C162 H154 0.930 1_554 S
C162 C161 1.362 . S
C162 C165 1.409 . S
C163 H155 0.930 . S
C163 C164 1.355 . S
C163 C165 1.415 . S
C164 C163 1.355 . S
C164 C166 1.419 . S
C165 C160 1.425 . S
C165 C162 1.409 . S
C165 C163 1.415 . S
C166 H156 0.930 . S
C166 C164 1.419 . S
C166 C167 1.362 . S
C167 H157 0.930 . S
C167 C160 1.409 . S
C167 C166 1.362 . S
H168 C174 0.930 . S
H169 C177 0.930 . S
H170 C178 0.930 . S
H171 C179 0.930 . S
H172 C182 0.930 . S
H173 C183 0.930 1_554 S
C174 H168 0.930 . S
C174 C175 1.355 . S
C174 C176 1.415 . S
C175 C174 1.355 . S
C175 C177 1.419 . S
C176 C174 1.415 . S
C176 C181 1.425 . S
C176 C183 1.409 . S
C177 H169 0.930 . S
C177 C175 1.419 . S
C177 C178 1.362 . S
C178 H170 0.930 . S
C178 C177 1.362 . S
C178 C181 1.409 . S
C179 H171 0.930 . S
C179 C180 1.355 . S
C179 C181 1.415 . S
C180 C179 1.355 . S
C180 C182 1.419 . S
C181 C176 1.425 . S
C181 C178 1.409 . S
C181 C179 1.415 . S
C182 H172 0.930 . S
C182 C180 1.419 . S
C182 C183 1.362 . S
C183 H173 0.930 1_556 S
C183 C176 1.409 . S
C183 C182 1.362 . S
H184 C190 0.930 . S
H185 C193 0.930 . S
H186 C194 0.930 . S
H187 C195 0.930 . S
H188 C198 0.930 . S
H189 C199 0.930 . S
C190 H184 0.930 . S
C190 C191 1.355 . S
C190 C192 1.415 . S
C191 C190 1.355 . S
C191 C193 1.419 . S
C192 C190 1.415 . S
C192 C197 1.425 . S
C192 C199 1.409 . S
C193 H185 0.930 . S
C193 C191 1.419 . S
C193 C194 1.362 . S
C194 H186 0.930 . S
C194 C193 1.362 . S
C194 C197 1.409 . S
C195 H187 0.930 . S
C195 C196 1.355 . S
C195 C197 1.415 . S
C196 C195 1.355 . S
C196 C198 1.419 . S
C197 C192 1.425 . S
C197 C194 1.409 . S
C197 C195 1.415 . S
C198 H188 0.930 . S
C198 C196 1.419 . S
C198 C199 1.362 . S
C199 H189 0.930 . S
C199 C192 1.409 . S
C199 C198 1.362 . S
H200 C206 0.930 . S
H201 C209 0.930 . S
H202 C210 0.930 . S
H203 C211 0.930 . S
H204 C214 0.930 . S
H205 C215 0.930 . S
C206 H200 0.930 . S
C206 C207 1.355 . S
C206 C208 1.415 . S
C207 C206 1.355 . S
C207 C209 1.419 . S
C208 C206 1.415 . S
C208 C213 1.425 . S
C208 C215 1.409 . S
C209 H201 0.930 . S
C209 C207 1.419 . S
C209 C210 1.362 . S
C210 H202 0.930 . S
C210 C209 1.362 . S
C210 C213 1.409 . S
C211 H203 0.930 . S
C211 C212 1.355 . S
C211 C213 1.415 . S
C212 C211 1.355 . S
C212 C214 1.419 . S
C213 C208 1.425 . S
C213 C210 1.409 . S
C213 C211 1.415 . S
C214 H204 0.930 . S
C214 C212 1.419 . S
C214 C215 1.362 . S
C215 H205 0.930 . S
C215 C208 1.409 . S
C215 C214 1.362 . S
H216 C222 0.930 . S
H217 C225 0.930 . S
H218 C226 0.930 . S
H219 C227 0.930 . S
H220 C230 0.930 . S
H221 C231 0.930 . S
C222 H216 0.930 . S
C222 C223 1.355 . S
C222 C224 1.415 . S
C223 C222 1.355 . S
C223 C225 1.419 1_554 S
C224 C222 1.415 . S
C224 C229 1.425 1_554 S
C224 C231 1.409 . S
C225 H217 0.930 . S
C225 C223 1.419 1_556 S
C225 C226 1.362 . S
C226 H218 0.930 . S
C226 C225 1.362 . S
C226 C229 1.409 . S
C227 H219 0.930 . S
C227 C228 1.355 . S
C227 C229 1.415 . S
C228 C227 1.355 . S
C228 C230 1.419 1_556 S
C229 C224 1.425 1_556 S
C229 C226 1.409 . S
C229 C227 1.415 . S
C230 H220 0.930 . S
C230 C228 1.419 1_554 S
C230 C231 1.362 . S
C231 H221 0.930 . S
C231 C224 1.409 . S
C231 C230 1.362 . S
H232 C238 0.930 1_554 S
H233 C241 0.930 . S
H234 C242 0.930 . S
H235 C243 0.930 . S
H236 C246 0.930 . S
H237 C247 0.930 1_554 S
C238 H232 0.930 1_556 S
C238 C239 1.355 . S
C238 C240 1.415 . S
C239 C238 1.355 . S
C239 C241 1.419 . S
C240 C238 1.415 . S
C240 C245 1.425 . S
C240 C247 1.409 . S
C241 H233 0.930 . S
C241 C239 1.419 . S
C241 C242 1.362 . S
C242 H234 0.930 . S
C242 C241 1.362 . S
C242 C245 1.409 . S
C243 H235 0.930 . S
C243 C244 1.355 . S
C243 C245 1.415 . S
C244 C243 1.355 . S
C244 C246 1.419 . S
C245 C240 1.425 . S
C245 C242 1.409 . S
C245 C243 1.415 . S
C246 H236 0.930 . S
C246 C244 1.419 . S
C246 C247 1.362 . S
C247 H237 0.930 1_556 S
C247 C240 1.409 . S
C247 C246 1.362 . S
H248 C254 0.930 . S
H249 C257 0.930 . S
H250 C258 0.930 . S
H251 C259 0.930 . S
H252 C262 0.930 1_556 S
H253 C263 0.930 . S
C254 H248 0.930 . S
C254 C255 1.355 . S
C254 C256 1.415 . S
C255 C254 1.355 . S
C255 C257 1.419 . S
C256 C254 1.415 . S
C256 C261 1.425 . S
C256 C263 1.409 . S
C257 H249 0.930 . S
C257 C255 1.419 . S
C257 C258 1.362 . S
C258 H250 0.930 . S
C258 C257 1.362 . S
C258 C261 1.409 . S
C259 H251 0.930 . S
C259 C260 1.355 . S
C259 C261 1.415 . S
C260 C259 1.355 . S
C260 C262 1.419 . S
C261 C256 1.425 . S
C261 C258 1.409 . S
C261 C259 1.415 . S
C262 H252 0.930 1_554 S
C262 C260 1.419 . S
C262 C263 1.362 . S
C263 H253 0.930 . S
C263 C256 1.409 . S
C263 C262 1.362 . S
H264 C270 0.930 . S
H265 C273 0.930 . S
H266 C274 0.930 . S
H267 C275 0.930 . S
H268 C278 0.930 . S
H269 C279 0.930 . S
C270 H264 0.930 . S
C270 C271 1.355 . S
C270 C272 1.415 . S
C271 C270 1.355 . S
C271 C273 1.419 . S
C272 C270 1.415 . S
C272 C277 1.425 . S
C272 C279 1.409 . S
C273 H265 0.930 . S
C273 C271 1.419 . S
C273 C274 1.362 . S
C274 H266 0.930 . S
C274 C273 1.362 . S
C274 C277 1.409 . S
C275 H267 0.930 . S
C275 C276 1.355 . S
C275 C277 1.415 . S
C276 C275 1.355 . S
C276 C278 1.419 . S
C277 C272 1.425 . S
C277 C274 1.409 . S
C277 C275 1.415 . S
C278 H268 0.930 . S
C278 C276 1.419 . S
C278 C279 1.362 . S
C279 H269 0.930 . S
C279 C272 1.409 . S
C279 C278 1.362 . S
H280 C286 0.930 . S
H281 C289 0.930 . S
H282 C290 0.930 . S
H283 C291 0.930 . S
H284 C294 0.930 . S
H285 C295 0.930 . S
C286 H280 0.930 . S
C286 C287 1.355 . S
C286 C288 1.415 . S
C287 C286 1.355 . S
C287 C289 1.419 . S
C288 C286 1.415 . S
C288 C293 1.425 . S
C288 C295 1.409 . S
C289 H281 0.930 . S
C289 C287 1.419 . S
C289 C290 1.362 . S
C290 H282 0.930 . S
C290 C289 1.362 . S
C290 C293 1.409 . S
C291 H283 0.930 . S
C291 C292 1.355 . S
C291 C293 1.415 . S
C292 C291 1.355 . S
C292 C294 1.419 . S
C293 C288 1.425 . S
C293 C290 1.409 . S
C293 C291 1.415 . S
C294 H284 0.930 . S
C294 C292 1.419 . S
C294 C295 1.362 . S
C295 H285 0.930 . S
C295 C288 1.409 . S
C295 C294 1.362 . S
H296 C302 0.930 . S
H297 C305 0.930 . S
H298 C306 0.930 . S
H299 C307 0.930 . S
H300 C310 0.930 . S
H301 C311 0.930 . S
C302 H296 0.930 . S
C302 C303 1.355 1_556 S
C302 C304 1.415 1_556 S
C303 C302 1.355 1_554 S
C303 C305 1.419 . S
C304 C302 1.415 1_554 S
C304 C309 1.425 . S
C304 C311 1.409 1_554 S
C305 H297 0.930 . S
C305 C303 1.419 . S
C305 C306 1.362 . S
C306 H298 0.930 . S
C306 C305 1.362 . S
C306 C309 1.409 . S
C307 H299 0.930 . S
C307 C308 1.355 . S
C307 C309 1.415 . S
C308 C307 1.355 . S
C308 C310 1.419 1_554 S
C309 C304 1.425 . S
C309 C306 1.409 . S
C309 C307 1.415 . S
C310 H300 0.930 . S
C310 C308 1.419 1_556 S
C310 C311 1.362 . S
C311 H301 0.930 . S
C311 C304 1.409 1_556 S
C311 C310 1.362 . S
H312 C318 0.930 . S
H313 C321 0.930 . S
H314 C322 0.930 . S
H315 C323 0.930 . S
H316 C326 0.930 . S
H317 C327 0.930 . S
C318 H312 0.930 . S
C318 C319 1.355 . S
C318 C320 1.415 . S
C319 C318 1.355 . S
C319 C321 1.419 . S
C320 C318 1.415 . S
C320 C325 1.425 . S
C320 C327 1.409 . S
C321 H313 0.930 . S
C321 C319 1.419 . S
C321 C322 1.362 . S
C322 H314 0.930 . S
C322 C321 1.362 . S
C322 C325 1.409 . S
C323 H315 0.930 . S
C323 C324 1.355 . S
C323 C325 1.415 . S
C324 C323 1.355 . S
C324 C326 1.419 . S
C325 C320 1.425 . S
C325 C322 1.409 . S
C325 C323 1.415 . S
C326 H316 0.930 . S
C326 C324 1.419 . S
C326 C327 1.362 . S
C327 H317 0.930 . S
C327 C320 1.409 . S
C327 C326 1.362 . S
H328 C334 0.930 . S
H329 C337 0.930 . S
H330 C338 0.930 . S
H331 C339 0.930 . S
H332 C342 0.930 . S
H333 C343 0.930 . S
C334 H328 0.930 . S
C334 C335 1.355 . S
C334 C336 1.415 . S
C335 C334 1.355 . S
C335 C337 1.419 . S
C336 C334 1.415 . S
C336 C341 1.425 . S
C336 C343 1.409 . S
C337 H329 0.930 . S
C337 C335 1.419 . S
C337 C338 1.362 . S
C338 H330 0.930 . S
C338 C337 1.362 . S
C338 C341 1.409 . S
C339 H331 0.930 . S
C339 C340 1.355 . S
C339 C341 1.415 . S
C340 C339 1.355 . S
C340 C342 1.419 . S
C341 C336 1.425 . S
C341 C338 1.409 . S
C341 C339 1.415 . S
C342 H332 0.930 . S
C342 C340 1.419 . S
C342 C343 1.362 . S
C343 H333 0.930 . S
C343 C336 1.409 . S
C343 C342 1.362 . S
H344 C350 0.930 . S
H345 C353 0.930 . S
H346 C354 0.930 . S
H347 C355 0.930 . S
H348 C358 0.930 . S
H349 C359 0.930 . S
C350 H344 0.930 . S
C350 C351 1.355 . S
C350 C352 1.415 . S
C351 C350 1.355 . S
C351 C353 1.419 . S
C352 C350 1.415 . S
C352 C357 1.425 . S
C352 C359 1.409 . S
C353 H345 0.930 . S
C353 C351 1.419 . S
C353 C354 1.362 . S
C354 H346 0.930 . S
C354 C353 1.362 . S
C354 C357 1.409 . S
C355 H347 0.930 . S
C355 C356 1.355 . S
C355 C357 1.415 . S
C356 C355 1.355 . S
C356 C358 1.419 . S
C357 C352 1.425 . S
C357 C354 1.409 . S
C357 C355 1.415 . S
C358 H348 0.930 . S
C358 C356 1.419 . S
C358 C359 1.362 . S
C359 H349 0.930 . S
C359 C352 1.409 . S
C359 C358 1.362 . S
C111 C1 1.532 . S
C116 C40 1.543 . S
C127 C10 1.476 . S
C132 C18 1.470 . S
C143 C27 1.471 . S
C148 C16 1.456 . S
C159 C49 1.546 . S
C164 C36 1.542 . S
C175 C3 1.471 . S
C180 C66 1.489 . S
C191 C5 1.432 . S
C196 C57 1.445 . S
C207 C55 1.484 . S
C212 C29 1.483 . S
C223 C31 1.492 . S
C228 C75 1.506 . S
C239 C81 1.431 . S
C244 C68 1.417 . S
C255 C62 1.518 . S
C260 C83 1.519 . S
C271 C53 1.547 . S
C276 C92 1.554 . S
C287 C70 1.473 . S
C292 C101 1.476 . S
C303 C79 1.517 . S
C308 C42 1.511 . S
C319 C23 1.553 . S
C324 C88 1.566 . S
C335 C14 1.514 . S
C340 C94 1.516 . S
C351 C44 1.470 . S
C356 C96 1.467 . S
