# Generated by pormake.
# Topology wme, (6)-cn, num edge types: 1
# Building blocks:
#     Node 0, Type 0, BuildingBlock: GEDQOX_clean_sbu_0, # of connection points: 6
#     Node 1, Type 0, BuildingBlock: GEDQOX_clean_sbu_0, # of connection points: 6
#     Node 2, Type 0, BuildingBlock: GEDQOX_clean_sbu_0, # of connection points: 6
#     Node 3, Type 0, BuildingBlock: GEDQOX_clean_sbu_0, # of connection points: 6
#     Node 4, Type 0, BuildingBlock: GEDQOX_clean_sbu_0, # of connection points: 6
#     Node 5, Type 0, BuildingBlock: GEDQOX_clean_sbu_0, # of connection points: 6
#     Node 6, Type 0, BuildingBlock: GEDQOX_clean_sbu_0, # of connection points: 6
#     Node 7, Type 0, BuildingBlock: GEDQOX_clean_sbu_0, # of connection points: 6
#     Node 8, Type 0, BuildingBlock: GEDQOX_clean_sbu_0, # of connection points: 6
#     Node 9, Type 0, BuildingBlock: GEDQOX_clean_sbu_0, # of connection points: 6
#     Node 10, Type 0, BuildingBlock: GEDQOX_clean_sbu_0, # of connection points: 6
#     Node 11, Type 0, BuildingBlock: GEDQOX_clean_sbu_0, # of connection points: 6
#     Edge 12, Type (0, 0), BuildingBlock: XIVTED_clean_linker_0, # of connection points: 2
#     Edge 13, Type (0, 0), BuildingBlock: XIVTED_clean_linker_0, # of connection points: 2
#     Edge 14, Type (0, 0), BuildingBlock: XIVTED_clean_linker_0, # of connection points: 2
#     Edge 15, Type (0, 0), BuildingBlock: XIVTED_clean_linker_0, # of connection points: 2
#     Edge 16, Type (0, 0), BuildingBlock: XIVTED_clean_linker_0, # of connection points: 2
#     Edge 17, Type (0, 0), BuildingBlock: XIVTED_clean_linker_0, # of connection points: 2
#     Edge 18, Type (0, 0), BuildingBlock: XIVTED_clean_linker_0, # of connection points: 2
#     Edge 19, Type (0, 0), BuildingBlock: XIVTED_clean_linker_0, # of connection points: 2
#     Edge 20, Type (0, 0), BuildingBlock: XIVTED_clean_linker_0, # of connection points: 2
#     Edge 21, Type (0, 0), BuildingBlock: XIVTED_clean_linker_0, # of connection points: 2
#     Edge 22, Type (0, 0), BuildingBlock: XIVTED_clean_linker_0, # of connection points: 2
#     Edge 23, Type (0, 0), BuildingBlock: XIVTED_clean_linker_0, # of connection points: 2
#     Edge 24, Type (0, 0), BuildingBlock: XIVTED_clean_linker_0, # of connection points: 2
#     Edge 25, Type (0, 0), BuildingBlock: XIVTED_clean_linker_0, # of connection points: 2
#     Edge 26, Type (0, 0), BuildingBlock: XIVTED_clean_linker_0, # of connection points: 2
#     Edge 27, Type (0, 0), BuildingBlock: XIVTED_clean_linker_0, # of connection points: 2
#     Edge 28, Type (0, 0), BuildingBlock: XIVTED_clean_linker_0, # of connection points: 2
#     Edge 29, Type (0, 0), BuildingBlock: XIVTED_clean_linker_0, # of connection points: 2
#     Edge 30, Type (0, 0), BuildingBlock: XIVTED_clean_linker_0, # of connection points: 2
#     Edge 31, Type (0, 0), BuildingBlock: XIVTED_clean_linker_0, # of connection points: 2
#     Edge 32, Type (0, 0), BuildingBlock: XIVTED_clean_linker_0, # of connection points: 2
#     Edge 33, Type (0, 0), BuildingBlock: XIVTED_clean_linker_0, # of connection points: 2
#     Edge 34, Type (0, 0), BuildingBlock: XIVTED_clean_linker_0, # of connection points: 2
#     Edge 35, Type (0, 0), BuildingBlock: XIVTED_clean_linker_0, # of connection points: 2
#     Edge 36, Type (0, 0), BuildingBlock: XIVTED_clean_linker_0, # of connection points: 2
#     Edge 37, Type (0, 0), BuildingBlock: XIVTED_clean_linker_0, # of connection points: 2
#     Edge 38, Type (0, 0), BuildingBlock: XIVTED_clean_linker_0, # of connection points: 2
#     Edge 39, Type (0, 0), BuildingBlock: XIVTED_clean_linker_0, # of connection points: 2
#     Edge 40, Type (0, 0), BuildingBlock: XIVTED_clean_linker_0, # of connection points: 2
#     Edge 41, Type (0, 0), BuildingBlock: XIVTED_clean_linker_0, # of connection points: 2
#     Edge 42, Type (0, 0), BuildingBlock: XIVTED_clean_linker_0, # of connection points: 2
#     Edge 43, Type (0, 0), BuildingBlock: XIVTED_clean_linker_0, # of connection points: 2
#     Edge 44, Type (0, 0), BuildingBlock: XIVTED_clean_linker_0, # of connection points: 2
#     Edge 45, Type (0, 0), BuildingBlock: XIVTED_clean_linker_0, # of connection points: 2
#     Edge 46, Type (0, 0), BuildingBlock: XIVTED_clean_linker_0, # of connection points: 2
#     Edge 47, Type (0, 0), BuildingBlock: XIVTED_clean_linker_0, # of connection points: 2
# Relax obj value: 0.100
# Max RMSD: 0.209
# Mean RMSD: 0.209
data_MOF--net-wme--node1-GEDQOX_clean_sbu_0--edge1-XIVTED_clean_linker_0
_symmetry_space_group_name_H-M    P1
_symmetry_Int_Tables_number       1
_symmetry_cell_setting            triclinic
loop_
_symmetry_equiv_pos_as_xyz
'x, y, z'
_cell_length_a     40.543973
_cell_length_b     40.53811
_cell_length_c     51.843536
_cell_angle_alpha  90.020982
_cell_angle_beta   90.122831
_cell_angle_gamma 119.96889
loop_
_atom_site_label
_atom_site_type_symbol
_atom_site_fract_x
_atom_site_fract_y
_atom_site_fract_z
_atom_type_partial_charge
Nd0 Nd 0.27802 0.37931 0.13856 0.0
Nd1 Nd 0.19372 0.3237 0.11788 0.0
C2 C 0.34106 0.43377 0.16048 0.0
C3 C 0.36841 0.4747 0.15634 0.0
C4 C 0.35639 0.50049 0.1492 0.0
C5 C 0.38315 0.53864 0.14388 0.0
C6 C 0.42247 0.5517 0.14544 0.0
C7 C 0.43425 0.52581 0.15299 0.0
C8 C 0.40753 0.48782 0.15837 0.0
C9 C 0.27448 0.3488 0.09094 0.0
C10 C 0.22603 0.41542 0.11539 0.0
C11 C 0.13085 0.27515 0.09315 0.0
C12 C 0.09404 0.2432 0.10185 0.0
C13 C 0.06085 0.23232 0.08744 0.0
C14 C 1.02547 0.2035 0.09638 0.0
C15 C 1.02261 0.18496 0.11994 0.0
C16 C 0.05607 0.19602 0.1343 0.0
C17 C 0.09136 0.2249 0.12539 0.0
C18 C 0.19335 0.33365 0.1709 0.0
C19 C 0.24321 0.28851 0.14371 0.0
O20 O 0.30681 0.42414 0.16853 0.0
O21 O 0.34086 0.41067 0.14285 0.0
O22 O 0.30167 0.35811 0.10747 0.0
O23 O 0.25134 0.35959 0.09829 0.0
O24 O 0.25822 0.42147 0.12621 0.0
O25 O 0.19878 0.38115 0.10843 0.0
O26 O 0.16057 0.27057 0.09522 0.0
O27 O 0.138 0.30898 0.10049 0.0
O28 O 0.16284 0.31282 0.15756 0.0
O29 O 0.22104 0.34744 0.15582 0.0
O30 O 0.21766 0.28441 0.12623 0.0
O31 O 0.26633 0.32157 0.15509 0.0
H32 H 0.32638 0.49104 0.1474 0.0
H33 H 0.37302 0.55765 0.13795 0.0
H34 H 0.46422 0.53494 0.15484 0.0
H35 H 0.41749 0.46848 0.16385 0.0
H36 H 0.06226 0.2463 0.06933 0.0
H37 H 1.00042 0.19543 0.08466 0.0
H38 H 0.05494 0.18277 0.15266 0.0
H39 H 0.11655 0.23323 0.13705 0.0
Nd40 Nd 0.91774 0.26695 0.63849 0.0
Nd41 Nd 0.88154 0.17937 0.62366 0.0
C42 C 0.94277 0.33672 0.65628 0.0
C43 C 0.9331 0.36708 0.651 0.0
C44 C 0.91367 0.3761 0.66961 0.0
C45 C 0.90287 0.40337 0.66453 0.0
C46 C 0.91143 0.42262 0.64073 0.0
C47 C 0.93152 0.4141 0.62228 0.0
C48 C 0.94214 0.38665 0.62731 0.0
C49 C 0.9223 0.25273 0.58669 0.0
C50 C 0.82927 0.21915 0.62092 0.0
C51 C 0.85931 0.11318 0.60052 0.0
C52 C 0.84956 0.07459 0.60887 0.0
C53 C 0.83177 0.04389 0.59166 0.0
C54 C 0.82323 1.00729 0.59925 0.0
C55 C 0.83242 1.00071 0.62423 0.0
C56 C 0.8497 0.0316 0.64155 0.0
C57 C 0.85815 0.06814 0.63395 0.0
C58 C 0.86903 0.18593 0.67537 0.0
C59 C 0.96856 0.22429 0.64685 0.0
O60 O 0.91683 0.30617 0.6681 0.0
O61 O 0.95997 0.32878 0.63799 0.0
O62 O 0.91318 0.27722 0.59533 0.0
O63 O 0.92573 0.23501 0.60552 0.0
O64 O 0.85416 0.24661 0.63596 0.0
O65 O 0.83763 0.19537 0.60903 0.0
O66 O 0.89502 0.13965 0.60305 0.0
O67 O 0.83577 0.12476 0.6075 0.0
O68 O 0.8575 0.15352 0.66398 0.0
O69 O 0.88594 0.21213 0.65926 0.0
O70 O 0.94064 0.19271 0.63665 0.0
O71 O 0.96621 0.25549 0.65079 0.0
H72 H 0.90651 0.36178 0.68811 0.0
H73 H 0.888 0.40956 0.67939 0.0
H74 H 0.93834 0.42804 0.60366 0.0
H75 H 0.95704 0.38051 0.61245 0.0
H76 H 0.82489 0.04831 0.57223 0.0
H77 H 0.81038 0.98436 0.5853 0.0
H78 H 0.85674 0.02755 0.66102 0.0
H79 H 0.87167 0.09145 0.6476 0.0
Nd80 Nd 0.6759 0.91214 0.14318 0.0
Nd81 Nd 0.72353 0.87541 0.12351 0.0
C82 C 0.6242 0.92901 0.16008 0.0
C83 C 0.58263 0.91317 0.15758 0.0
C84 C 0.56011 0.87988 0.14325 0.0
C85 C 0.52177 0.86789 0.13807 0.0
C86 C 0.5053 0.8893 0.14679 0.0
C87 C 0.52783 0.92221 0.16163 0.0
C88 C 0.56605 0.93396 0.16697 0.0
C89 C 0.71008 0.93749 0.09623 0.0
C90 C 0.6318 0.8224 0.12218 0.0
C91 C 0.76767 0.8561 0.09786 0.0
C92 C 0.79895 0.8484 0.1043 0.0
C93 C 0.83668 0.87492 0.0977 0.0
C94 C 0.86645 0.86824 0.10396 0.0
C95 C 0.85924 0.83472 0.11685 0.0
C96 C 0.8214 0.8079 0.12311 0.0
C97 C 0.79163 0.81465 0.11695 0.0
C98 C 0.71339 0.86427 0.17637 0.0
C99 C 0.76692 0.96059 0.15021 0.0
O100 O 0.63639 0.91016 0.17392 0.0
O101 O 0.64322 0.94201 0.13869 0.0
O102 O 0.70718 0.95864 0.1137 0.0
O103 O 0.69334 0.90265 0.10302 0.0
O104 O 0.62975 0.85001 0.13431 0.0
O105 O 0.66422 0.82689 0.11332 0.0
O106 O 0.77509 0.89142 0.09992 0.0
O107 O 0.73348 0.8314 0.10594 0.0
O108 O 0.7323 0.85287 0.16252 0.0
O109 O 0.70117 0.88081 0.16204 0.0
O110 O 0.76835 0.93683 0.13337 0.0
O111 O 0.73446 0.9549 0.16044 0.0
H112 H 0.57249 0.86388 0.13529 0.0
H113 H 0.50546 0.84267 0.12637 0.0
H114 H 0.51601 0.93913 0.16893 0.0
H115 H 0.58299 0.95997 0.17782 0.0
H116 H 0.84322 0.90095 0.0877 0.0
H117 H 0.89515 0.88924 0.09842 0.0
H118 H 0.81483 0.78193 0.13319 0.0
H119 H 0.7629 0.79344 0.12226 0.0
Nd120 Nd 0.78006 0.65548 0.6381 0.0
Nd121 Nd 0.86884 0.71619 0.61982 0.0
C122 C 0.71916 0.60202 0.66196 0.0
C123 C 0.69027 0.56211 0.65557 0.0
C124 C 0.70057 0.53803 0.64274 0.0
C125 C 0.67312 0.50041 0.6367 0.0
C126 C 0.63459 0.48603 0.64308 0.0
C127 C 0.62432 0.51038 0.65568 0.0
C128 C 0.65188 0.54796 0.6619 0.0
C129 C 0.78298 0.67493 0.58637 0.0
C130 C 0.83729 0.62409 0.61748 0.0
C131 C 0.93255 0.76638 0.59698 0.0
C132 C 0.97072 0.79611 0.60599 0.0
C133 C 0.98604 0.83358 0.59703 0.0
C134 C 1.02134 0.86242 0.60607 0.0
C135 C 0.04228 0.85442 0.62422 0.0
C136 C 1.02715 0.81674 0.63292 0.0
C137 C 0.99167 0.78793 0.62402 0.0
C138 C 0.86338 0.70109 0.6724 0.0
C139 C 0.81309 0.74764 0.64158 0.0
O140 O 0.75379 0.60874 0.66661 0.0
O141 O 0.71858 0.62866 0.64797 0.0
O142 O 0.75241 0.65002 0.59815 0.0
O143 O 0.81078 0.68508 0.60161 0.0
O144 O 0.80575 0.6172 0.62964 0.0
O145 O 0.8625 0.65827 0.60867 0.0
O146 O 0.90438 0.77269 0.60148 0.0
O147 O 0.92328 0.73079 0.60073 0.0
O148 O 0.89543 0.72296 0.66088 0.0
O149 O 0.83749 0.68913 0.65575 0.0
O150 O 0.84259 0.75368 0.62726 0.0
O151 O 0.78756 0.71367 0.65078 0.0
H152 H 0.72987 0.5483 0.63728 0.0
H153 H 0.68203 0.48273 0.62669 0.0
H154 H 0.59501 0.50022 0.6611 0.0
H155 H 0.64319 0.56598 0.67171 0.0
H156 H 0.97052 0.84062 0.58314 0.0
H157 H 0.03237 0.89102 0.5987 0.0
H158 H 0.04235 0.80968 0.64704 0.0
H159 H 0.9805 0.75937 0.63149 0.0
Nd160 Nd 0.14569 0.77248 0.13259 0.0
Nd161 Nd 0.17903 0.86204 0.11278 0.0
C162 C 0.13485 0.71103 0.15755 0.0
C163 C 0.14476 0.68134 0.15154 0.0
C164 C 0.17494 0.68914 0.13474 0.0
C165 C 0.18444 0.66112 0.12907 0.0
C166 C 0.16372 0.62448 0.13988 0.0
C167 C 0.13319 0.61666 0.15649 0.0
C168 C 0.12389 0.64485 0.1623 0.0
C169 C 0.13168 0.77575 0.08041 0.0
C170 C 0.23528 0.82542 0.11268 0.0
C171 C 0.19658 0.926 0.08844 0.0
C172 C 0.20344 0.96353 0.0972 0.0
C173 C 0.21961 0.99486 0.08049 0.0
C174 C 0.22721 0.03078 0.0891 0.0
C175 C 0.21876 0.036 0.11461 0.0
C176 C 0.20265 1.00439 0.13128 0.0
C177 C 0.1951 0.96856 0.12266 0.0
C178 C 0.18716 0.85653 0.16556 0.0
C179 C 0.09129 0.81143 0.13515 0.0
O180 O 0.16362 0.74519 0.16215 0.0
O181 O 0.10865 0.71152 0.14296 0.0
O182 O 0.12342 0.74467 0.09266 0.0
O183 O 0.15014 0.80339 0.09556 0.0
O184 O 0.20943 0.79501 0.12526 0.0
O185 O 0.22815 0.85135 0.10269 0.0
O186 O 0.16157 0.89761 0.09061 0.0
O187 O 0.22203 0.91704 0.0958 0.0
O188 O 0.19941 0.88884 0.15382 0.0
O189 O 0.17196 0.83065 0.14904 0.0
O190 O 0.11625 0.8404 0.12102 0.0
O191 O 0.0972 0.78406 0.14428 0.0
H192 H 0.19119 0.71695 0.12593 0.0
H193 H 0.20772 0.66803 0.11593 0.0
H194 H 0.11683 0.5889 0.16533 0.0
H195 H 0.10043 0.63817 0.17524 0.0
H196 H 0.22637 0.99154 0.06079 0.0
H197 H 0.23915 0.05433 0.07563 0.0
H198 H 0.19623 1.00739 0.15111 0.0
H199 H 0.18288 0.94477 0.13593 0.0
Nd200 Nd 0.38458 0.12634 0.63923 0.0
Nd201 Nd 0.33491 0.16197 0.61999 0.0
C202 C 0.43738 0.10956 0.65316 0.0
C203 C 0.47912 0.12666 0.65407 0.0
C204 C 0.50308 0.16151 0.64187 0.0
C205 C 0.54186 0.17396 0.63856 0.0
C206 C 0.55726 0.15149 0.64709 0.0
C207 C 0.53338 0.11735 0.66024 0.0
C208 C 0.49472 0.1051 0.66369 0.0
C209 C 0.34117 0.0927 0.5964 0.0
C210 C 0.42585 0.215 0.61615 0.0
C211 C 0.28714 0.17805 0.59587 0.0
C212 C 0.25596 0.18423 0.6044 0.0
C213 C 0.24375 0.20417 0.58863 0.0
C214 C 0.21486 0.21105 0.59692 0.0
C215 C 0.19759 0.19808 0.62118 0.0
C216 C 0.21014 0.17823 0.63696 0.0
C217 C 0.2391 0.17149 0.62869 0.0
C218 C 0.35435 0.17986 0.6716 0.0
C219 C 0.29485 0.081 0.65268 0.0
O220 O 0.42088 0.12124 0.6697 0.0
O221 O 0.42308 0.10457 0.62991 0.0
O222 O 0.3468 0.07508 0.61515 0.0
O223 O 0.35956 0.12879 0.59975 0.0
O224 O 0.4287 0.1892 0.63011 0.0
O225 O 0.39318 0.20826 0.60604 0.0
O226 O 0.28134 0.14334 0.59819 0.0
O227 O 0.32137 0.20407 0.60307 0.0
O228 O 0.33411 0.19094 0.65886 0.0
O229 O 0.36294 0.16111 0.65668 0.0
O230 O 0.29115 0.10362 0.63595 0.0
O231 O 0.3285 0.08626 0.66029 0.0
H232 H 0.49142 0.17815 0.63383 0.0
H233 H 0.55934 0.20022 0.62819 0.0
H234 H 0.54442 0.09965 0.66739 0.0
H235 H 0.47664 0.07792 0.6729 0.0
H236 H 0.25657 0.21441 0.56989 0.0
H237 H 0.20562 0.22599 0.58413 0.0
H238 H 0.19787 0.16825 0.65586 0.0
H239 H 0.24846 0.15644 0.6413 0.0
Nd240 Nd 0.65904 0.77072 0.40095 0.0
Nd241 Nd 0.72228 0.85655 0.42283 0.0
C242 C 0.60665 0.71217 0.37463 0.0
C243 C 0.56673 0.68329 0.38045 0.0
C244 C 0.54298 0.69329 0.39399 0.0
C245 C 0.50562 0.66569 0.40019 0.0
C246 C 0.49126 0.62734 0.39328 0.0
C247 C 0.51519 0.61737 0.37984 0.0
C248 C 0.55251 0.6451 0.37344 0.0
C249 C 0.67435 0.76958 0.4534 0.0
C250 C 0.63065 0.8306 0.42031 0.0
C251 C 0.7711 0.91836 0.44824 0.0
C252 C 0.80122 0.95617 0.43953 0.0
C253 C 0.81155 0.98864 0.45461 0.0
C254 C 0.83964 0.02463 0.44603 0.0
C255 C 0.85794 0.02872 0.42221 0.0
C256 C 0.84708 0.99606 0.40706 0.0
C257 C 0.81899 0.96023 0.41559 0.0
C258 C 0.71587 0.85445 0.36931 0.0
C259 C 0.74847 0.79591 0.40469 0.0
O260 O 0.61368 0.74718 0.37126 0.0
O261 O 0.63283 0.71034 0.38843 0.0
O262 O 0.65004 0.74009 0.44023 0.0
O263 O 0.68531 0.79816 0.4389 0.0
O264 O 0.62249 0.79822 0.40879 0.0
O265 O 0.66509 0.85511 0.42931 0.0
O266 O 0.77693 0.88987 0.44366 0.0
O267 O 0.73609 0.91011 0.44326 0.0
O268 O 0.74029 0.88433 0.38201 0.0
O269 O 0.69764 0.82851 0.3853 0.0
O270 O 0.75313 0.8223 0.42169 0.0
O271 O 0.71735 0.77711 0.39026 0.0
H272 H 0.55338 0.72243 0.40002 0.0
H273 H 0.4882 0.67429 0.41085 0.0
H274 H 0.50493 0.58816 0.37402 0.0
H275 H 0.57037 0.63669 0.36314 0.0
H276 H 0.79797 0.98614 0.47305 0.0
H277 H 0.84758 0.04913 0.45829 0.0
H278 H 0.86015 0.99821 0.38847 0.0
H279 H 0.81116 0.93564 0.40345 0.0
Nd280 Nd 0.91219 0.65573 0.89579 0.0
Nd281 Nd 0.88295 0.71438 0.91688 0.0
C282 C 0.92057 0.6041 0.87026 0.0
C283 C 0.91104 0.56487 0.87694 0.0
C284 C 0.88028 0.54255 0.89335 0.0
C285 C 0.87164 0.50569 0.90013 0.0
C286 C 0.89385 0.49044 0.89092 0.0
C287 C 0.92492 0.51304 0.87471 0.0
C288 C 0.93336 0.54987 0.86774 0.0
C289 C 0.93043 0.6741 0.94751 0.0
C290 C 0.82453 0.62187 0.91868 0.0
C291 C 0.86904 0.76254 0.94223 0.0
C292 C 0.86146 0.79334 0.93462 0.0
C293 C 0.88562 0.83058 0.94344 0.0
C294 C 0.88017 0.86045 0.93539 0.0
C295 C 0.85026 0.85368 0.91845 0.0
C296 C 0.82559 0.81625 0.91002 0.0
C297 C 0.83123 0.7864 0.91791 0.0
C298 C 0.87158 0.70047 0.86418 0.0
C299 C 0.96916 0.74831 0.89277 0.0
O300 O 0.89159 0.60955 0.86676 0.0
O301 O 0.94817 0.63138 0.88367 0.0
O302 O 0.93654 0.65009 0.93482 0.0
O303 O 0.9115 0.68372 0.93313 0.0
O304 O 0.8489 0.61595 0.90526 0.0
O305 O 0.83322 0.65562 0.92824 0.0
O306 O 0.90361 0.76886 0.93804 0.0
O307 O 0.84265 0.72754 0.93677 0.0
O308 O 0.86121 0.72167 0.87653 0.0
O309 O 0.88651 0.68869 0.88014 0.0
O310 O 0.94586 0.75355 0.90788 0.0
O311 O 0.9612 0.71468 0.88311 0.0
H312 H 0.86299 0.55368 0.90108 0.0
H313 H 0.84789 0.48934 0.91293 0.0
H314 H 0.94242 0.50205 0.86711 0.0
H315 H 0.95737 0.56669 0.85522 0.0
H316 H 0.90903 0.83666 0.95636 0.0
H317 H 0.89935 0.88889 0.94252 0.0
H318 H 0.80248 0.81017 0.89682 0.0
H319 H 0.8122 0.75804 0.91061 0.0
Nd320 Nd 0.27247 0.90899 0.39511 0.0
Nd321 Nd 0.18453 0.87351 0.40798 0.0
C322 C 0.34313 0.93467 0.37882 0.0
C323 C 0.37264 0.92444 0.38474 0.0
C324 C 0.36341 0.8912 0.39863 0.0
C325 C 0.39143 0.88168 0.40441 0.0
C326 C 0.42944 0.90526 0.39652 0.0
C327 C 0.43854 0.93871 0.38273 0.0
C328 C 0.41042 0.94815 0.3769 0.0
C329 C 0.25542 0.9161 0.44593 0.0
C330 C 0.22404 0.82091 0.41308 0.0
C331 C 0.11957 0.85303 0.43216 0.0
C332 C 0.07943 0.84062 0.42654 0.0
C333 C 0.05628 0.8408 0.44645 0.0
C334 C 1.01809 0.82932 0.44179 0.0
C335 C 1.00211 0.81725 0.41705 0.0
C336 C 1.02558 0.81735 0.39701 0.0
C337 C 0.06395 0.82893 0.40173 0.0
C338 C 0.19193 0.85879 0.357 0.0
C339 C 0.23021 0.9596 0.38361 0.0
O340 O 0.31302 0.90906 0.36636 0.0
O341 O 0.33446 0.95053 0.39758 0.0
O342 O 0.28072 0.90698 0.43922 0.0
O343 O 0.23933 0.9188 0.42597 0.0
O344 O 0.25219 0.84547 0.39844 0.0
O345 O 0.20004 0.8298 0.42404 0.0
O346 O 0.14444 0.88836 0.42663 0.0
O347 O 0.13144 0.82927 0.4264 0.0
O348 O 0.1593 0.84782 0.36793 0.0
O349 O 0.21816 0.87628 0.3732 0.0
O350 O 0.19827 0.93209 0.39359 0.0
O351 O 0.26148 0.957 0.38084 0.0
H352 H 0.33448 0.87262 0.40509 0.0
H353 H 0.38335 0.85602 0.41536 0.0
H354 H 0.4673 0.95735 0.37604 0.0
H355 H 0.41819 0.97397 0.36621 0.0
H356 H 0.06781 0.85001 0.46568 0.0
H357 H 1.00122 0.83045 0.45757 0.0
H358 H 1.01422 0.80806 0.37778 0.0
H359 H 0.08149 0.82871 0.38607 0.0
Nd360 Nd 0.38836 0.26247 0.90068 0.0
Nd361 Nd 0.33565 0.17559 0.91518 0.0
C362 C 0.43353 0.3322 0.88304 0.0
C363 C 0.47374 0.36097 0.88818 0.0
C364 C 0.4984 0.35041 0.89984 0.0
C365 C 0.53637 0.37773 0.90501 0.0
C366 C 0.55052 0.41632 0.89879 0.0
C367 C 0.52554 0.42676 0.88728 0.0
C368 C 0.48756 0.39934 0.88201 0.0
C369 C 0.36885 0.24852 0.95239 0.0
C370 C 0.42728 0.2131 0.91812 0.0
C371 C 0.29076 0.10977 0.93818 0.0
C372 C 0.26163 0.07155 0.92945 0.0
C373 C 0.24932 0.04026 0.946 0.0
C374 C 0.22119 1.00394 0.93797 0.0
C375 C 0.2048 0.9983 0.91323 0.0
C376 C 0.21777 0.02977 0.89657 0.0
C377 C 0.24596 0.06602 0.90459 0.0
C378 C 0.35435 0.1813 0.86345 0.0
C379 C 0.2953 0.22189 0.89168 0.0
O380 O 0.42766 0.30141 0.87086 0.0
O381 O 0.40997 0.32476 0.90225 0.0
O382 O 0.40287 0.27208 0.94398 0.0
O383 O 0.34766 0.23139 0.93342 0.0
O384 O 0.43044 0.24055 0.90285 0.0
O385 O 0.39506 0.19041 0.93022 0.0
O386 O 0.28218 0.13674 0.93567 0.0
O387 O 0.32581 0.12074 0.93143 0.0
O388 O 0.33306 0.14913 0.87494 0.0
O389 O 0.36443 0.20779 0.87951 0.0
O390 O 0.29079 0.19006 0.90197 0.0
O391 O 0.32922 0.25257 0.88796 0.0
H392 H 0.48824 0.321 0.90504 0.0
H393 H 0.55451 0.36866 0.91421 0.0
H394 H 0.53547 0.45607 0.88196 0.0
H395 H 0.46898 0.40811 0.8731 0.0
H396 H 0.26117 0.04399 0.96524 0.0
H397 H 0.21157 0.98048 0.9514 0.0
H398 H 0.20614 0.0264 0.8773 0.0
H399 H 0.25534 0.08982 0.89145 0.0
Nd400 Nd 0.13339 0.37555 0.39808 0.0
Nd401 Nd 0.17096 0.33299 0.41399 0.0
C402 C 0.11818 0.42797 0.38029 0.0
C403 C 0.1319 0.46888 0.38552 0.0
C404 C 0.14485 0.49516 0.36514 0.0
C405 C 0.15716 0.53372 0.36968 0.0
C406 C 0.15655 0.54689 0.39472 0.0
C407 C 0.14376 0.52054 0.41514 0.0
C408 C 0.13174 0.48206 0.41062 0.0
C409 C 0.11228 0.34647 0.44658 0.0
C410 C 0.22111 0.42116 0.42101 0.0
C411 C 0.19294 0.28487 0.43052 0.0
C412 C 0.19727 0.25275 0.42068 0.0
C413 C 0.16747 0.21488 0.42288 0.0
C414 C 0.17236 0.18466 0.4147 0.0
C415 C 0.20723 0.19146 0.40419 0.0
C416 C 0.23695 0.22938 0.40191 0.0
C417 C 0.23208 0.25958 0.41011 0.0
C418 C 0.1828 0.35503 0.36265 0.0
C419 C 0.08267 0.28534 0.39295 0.0
O420 O 0.1418 0.41956 0.3689 0.0
O421 O 0.09872 0.40385 0.39851 0.0
O422 O 0.09001 0.3487 0.42972 0.0
O423 O 0.14657 0.36211 0.43868 0.0
O424 O 0.19623 0.42178 0.40493 0.0
O425 O 0.21359 0.38929 0.43244 0.0
O426 O 0.15851 0.27921 0.43376 0.0
O427 O 0.2162 0.31869 0.4214 0.0
O428 O 0.20887 0.35653 0.37777 0.0
O429 O 0.15171 0.34132 0.37443 0.0
O430 O 0.10937 0.28527 0.4075 0.0
O431 O 0.08694 0.31724 0.38292 0.0
H432 H 0.14521 0.4858 0.34562 0.0
H433 H 0.16646 0.55309 0.35345 0.0
H434 H 0.14338 0.52971 0.4347 0.0
H435 H 0.12223 0.46266 0.42684 0.0
H436 H 0.14046 0.2085 0.43125 0.0
H437 H 0.14902 0.15585 0.41719 0.0
H438 H 0.26404 0.23582 0.39368 0.0
H439 H 0.2558 0.28834 0.40834 0.0
Nd440 Nd 0.783 0.13259 0.90239 0.0
Nd441 Nd 0.87032 0.16878 0.91829 0.0
C442 C 0.7142 0.10774 0.88297 0.0
C443 C 0.68357 0.11679 0.88801 0.0
C444 C 0.66777 0.12679 0.86744 0.0
C445 C 0.64055 0.13778 0.87196 0.0
C446 C 0.62834 0.13885 0.8972 0.0
C447 C 0.64376 0.1282 0.91776 0.0
C448 C 0.67121 0.1175 0.91325 0.0
C449 C 0.79592 0.12604 0.95419 0.0
C450 C 0.83029 0.2207 0.9214 0.0
C451 C 0.93587 0.18882 0.94146 0.0
C452 C 0.97372 0.19515 0.93335 0.0
C453 C 0.98388 0.16736 0.9385 0.0
C454 C 1.01889 0.17231 0.93028 0.0
C455 C 0.04482 0.20533 0.91684 0.0
C456 C 0.03504 0.23355 0.91216 0.0
C457 C 0.99988 0.22851 0.92029 0.0
C458 C 0.86471 0.18266 0.86668 0.0
C459 C 0.82684 0.08333 0.89262 0.0
O460 O 0.74513 0.13482 0.87224 0.0
O461 O 0.72144 0.08976 0.90114 0.0
O462 O 0.77087 0.13443 0.94556 0.0
O463 O 0.81428 0.1236 0.9354 0.0
O464 O 0.80288 0.196 0.90621 0.0
O465 O 0.85421 0.21238 0.93318 0.0
O466 O 0.90753 0.15368 0.94074 0.0
O467 O 0.92605 0.21342 0.93359 0.0
O468 O 0.89697 0.19408 0.87831 0.0
O469 O 0.83833 0.16527 0.88257 0.0
O470 O 0.85809 0.11096 0.90337 0.0
O471 O 0.79542 0.08534 0.889 0.0
H472 H 0.67686 0.12657 0.84783 0.0
H473 H 0.62897 0.14535 0.85564 0.0
H474 H 0.63534 0.12909 0.93744 0.0
H475 H 0.68315 0.11038 0.92958 0.0
H476 H 0.96461 0.14158 0.9488 0.0
H477 H 1.02579 0.15033 0.93467 0.0
H478 H 0.05425 0.25923 0.90177 0.0
H479 H 0.99313 0.25065 0.9161 0.0
H480 H 0.17346 0.05161 0.14557 0.0
H481 H 0.30434 0.27861 0.1358 0.0
H482 H 0.28001 0.10709 0.10432 0.0
H483 H 0.18742 0.22036 0.16057 0.0
H484 H 0.30184 0.21679 0.13241 0.0
H485 H 0.18394 0.11383 0.15894 0.0
C486 C 0.1993 0.07684 0.13953 0.0
C487 C 0.22577 0.07395 0.12365 0.0
C488 C 0.27704 0.21765 0.13919 0.0
C489 C 0.23782 0.14567 0.13879 0.0
C490 C 0.27868 0.25291 0.1415 0.0
C491 C 0.2462 0.2544 0.14886 0.0
C492 C 0.24271 0.18389 0.1444 0.0
C493 C 0.21318 0.2203 0.15515 0.0
C494 C 0.20517 0.11244 0.14708 0.0
C495 C 0.2585 0.10788 0.11622 0.0
N496 N 0.21221 0.18647 0.15266 0.0
N497 N 0.26354 0.1423 0.12377 0.0
H498 H 0.13191 0.14823 0.6464 0.0
H499 H 0.04151 0.28474 0.64239 0.0
H500 H 0.19098 0.26214 0.61534 0.0
H501 H 0.97839 0.16469 0.65958 0.0
H502 H 0.10008 0.28092 0.64002 0.0
H503 H 0.07907 0.15768 0.65845 0.0
C504 C 0.13401 0.17542 0.64236 0.0
C505 C 0.16598 0.20434 0.62967 0.0
C506 C 0.07347 0.25558 0.64472 0.0
C507 C 0.10509 0.21528 0.64328 0.0
C508 C 0.04014 0.25785 0.64636 0.0
C509 C 1.00503 0.22495 0.65109 0.0
C510 C 0.07161 0.22023 0.64805 0.0
C511 C 1.00481 0.19071 0.65571 0.0
C512 C 0.10367 0.18074 0.64914 0.0
C513 C 0.16669 0.23881 0.62469 0.0
N514 N 0.03745 0.1892 0.6539 0.0
N515 N 0.13668 0.24327 0.63141 0.0
H516 H 0.78102 0.03432 0.15047 0.0
H517 H 1.00674 0.11773 0.14302 0.0
H518 H 0.83567 0.96707 0.15888 0.0
H519 H 0.95267 0.18095 0.11828 0.0
H520 H 0.94491 0.06594 0.15679 0.0
H521 H 0.84421 0.09193 0.14709 0.0
C522 C 0.80632 0.03189 0.15249 0.0
C523 C 0.80326 0.99603 0.15508 0.0
C524 C 0.94653 0.09122 0.14849 0.0
C525 C 0.87526 0.06129 0.15072 0.0
C526 C 0.98195 0.12095 0.14071 0.0
C527 C 0.98505 0.15379 0.1293 0.0
C528 C 0.9137 0.09413 0.14494 0.0
C529 C 0.95163 0.15596 0.12658 0.0
C530 C 0.84232 0.06463 0.1502 0.0
C531 C 0.83686 0.99425 0.15694 0.0
N532 N 0.91738 0.12652 0.13425 0.0
N533 N 0.87135 0.02629 0.15458 0.0
H534 H 0.75085 0.75704 0.63522 0.0
H535 H 0.87911 0.98356 0.65245 0.0
H536 H 0.86882 0.81604 0.65821 0.0
H537 H 0.77073 0.93007 0.61302 0.0
H538 H 0.87002 0.92081 0.66238 0.0
H539 H 0.75193 0.81845 0.63484 0.0
C540 C 0.77656 0.78275 0.64094 0.0
C541 C 0.80976 0.78164 0.64686 0.0
C542 C 0.84805 0.92271 0.6517 0.0
C543 C 0.81146 0.8516 0.64612 0.0
C544 C 0.85312 0.95863 0.64615 0.0
C545 C 0.82576 0.96229 0.63174 0.0
C546 C 0.81534 0.88988 0.64284 0.0
C547 C 0.79289 0.92871 0.62383 0.0
C548 C 0.77734 0.81777 0.64043 0.0
C549 C 0.84262 0.81576 0.65357 0.0
N550 N 0.78867 0.89393 0.62938 0.0
N551 N 0.84269 0.84926 0.65291 0.0
H552 H 0.08326 0.87123 0.14875 0.0
H553 H 0.86173 0.768 0.114 0.0
H554 H 1.01767 0.75125 0.13177 0.0
H555 H 0.92967 0.88619 0.13583 0.0
H556 H 0.91594 0.75902 0.12387 0.0
H557 H 1.02507 0.87477 0.1484 0.0
C558 C 0.05633 0.8454 0.14542 0.0
C559 C 0.0552 0.8109 0.1403 0.0
C560 C 0.91885 0.78683 0.12666 0.0
C561 C 0.9882 0.81488 0.13907 0.0
C562 C 0.88788 0.79199 0.12109 0.0
C563 C 0.89119 0.82806 0.1238 0.0
C564 C 0.9534 0.81794 0.13506 0.0
C565 C 0.92592 0.85808 0.13289 0.0
C566 C 1.02307 0.84746 0.14508 0.0
C567 C 1.01963 0.77832 0.13604 0.0
N568 N 0.95557 0.85237 0.13804 0.0
N569 N 0.98749 0.7812 0.13513 0.0
H570 H 0.10884 0.85312 0.63241 0.0
H571 H 0.22752 0.07561 0.66485 0.0
H572 H 0.06059 0.92652 0.63888 0.0
H573 H 0.2805 1.00727 0.65388 0.0
H574 H 0.16512 1.01817 0.66319 0.0
H575 H 0.17048 0.90602 0.64665 0.0
C576 C 0.11108 0.88022 0.63707 0.0
C577 C 0.07952 0.88547 0.63414 0.0
C578 C 0.19027 1.01544 0.66164 0.0
C579 C 0.14999 0.9461 0.65049 0.0
C580 C 0.22595 0.04824 0.66288 0.0
C581 C 0.25916 0.04613 0.65962 0.0
C582 C 0.18759 0.98012 0.65662 0.0
C583 C 0.25555 1.01003 0.65682 0.0
C584 C 0.14631 0.91042 0.64514 0.0
C585 C 0.08423 0.92129 0.64034 0.0
N586 N 0.22032 0.97842 0.65492 0.0
N587 N 0.11871 0.95014 0.64808 0.0
H588 H 0.94119 0.77521 0.44871 0.0
H589 H 0.78946 0.79763 0.36208 0.0
H590 H 0.96959 0.83156 0.37477 0.0
H591 H 0.77923 0.7767 0.44393 0.0
H592 H 0.84948 0.79592 0.3625 0.0
H593 H 0.87585 0.76164 0.44322 0.0
C594 C 0.93373 0.78472 0.43128 0.0
C595 C 0.96129 0.80527 0.41242 0.0
C596 C 0.83366 0.79102 0.38025 0.0
C597 C 0.88599 0.7892 0.40583 0.0
C598 C 0.79934 0.79162 0.37994 0.0
C599 C 0.77958 0.7872 0.40301 0.0
C600 C 0.84772 0.78551 0.40373 0.0
C601 C 0.79376 0.78025 0.42577 0.0
C602 C 0.8963 0.77675 0.42809 0.0
C603 C 0.94942 0.8157 0.38985 0.0
N604 N 0.82696 0.77972 0.42558 0.0
N605 N 0.91274 0.80788 0.38728 0.0
H606 H 0.98039 0.81676 0.87754 0.0
H607 H 0.19715 0.92768 0.92183 0.0
H608 H 0.04112 0.75834 0.89752 0.0
H609 H 0.13982 0.98185 0.88672 0.0
H610 H 0.1422 0.86536 0.9113 0.0
H611 H 0.04023 0.87714 0.87792 0.0
C612 C 1.00663 0.81668 0.88144 0.0
C613 C 1.00599 0.78265 0.88737 0.0
C614 C 0.14189 0.89091 0.90564 0.0
C615 C 0.07465 0.85189 0.88876 0.0
C616 C 0.17312 0.92651 0.91182 0.0
C617 C 0.17309 0.96016 0.90531 0.0
C618 C 0.11019 0.8889 0.89308 0.0
C619 C 0.14137 0.95682 0.89197 0.0
C620 C 0.0408 0.85118 0.88178 0.0
C621 C 0.04061 0.78402 0.89254 0.0
N622 N 0.11118 0.92194 0.88655 0.0
N623 N 0.07358 0.81825 0.89355 0.0
H624 H 0.1562 0.12462 0.38012 0.0
H625 H 0.29106 0.03248 0.38736 0.0
H626 H 0.27101 0.18432 0.40999 0.0
H627 H 0.17109 0.96962 0.36958 0.0
H628 H 0.28787 0.09145 0.3883 0.0
H629 H 0.16447 0.07048 0.36968 0.0
C630 C 0.18317 0.12641 0.38452 0.0
C631 C 0.21277 0.15911 0.39624 0.0
C632 C 0.26241 0.0648 0.38378 0.0
C633 C 0.22266 0.09706 0.38395 0.0
C634 C 0.26432 0.03121 0.38296 0.0
C635 C 0.23126 0.99608 0.37848 0.0
C636 C 0.22723 0.06316 0.37995 0.0
C637 C 0.19723 0.99605 0.37329 0.0
C638 C 0.18797 0.09551 0.37838 0.0
C639 C 0.24741 0.15992 0.40084 0.0
N640 N 0.19605 0.02892 0.37436 0.0
N641 N 0.2513 0.12932 0.39486 0.0
H642 H 0.28516 0.28408 0.89396 0.0
H643 H 0.05806 0.1517 0.89474 0.0
H644 H 0.22498 0.16298 0.87995 0.0
H645 H 0.11587 0.26971 0.91806 0.0
H646 H 0.11917 0.15831 0.8827 0.0
H647 H 0.22381 0.28254 0.89555 0.0
C648 C 0.25915 0.25739 0.89055 0.0
C649 C 0.26013 0.22356 0.88701 0.0
C650 C 0.11857 0.18288 0.89032 0.0
C651 C 0.19004 0.22146 0.88916 0.0
C652 C 0.08364 0.17904 0.89736 0.0
C653 C 0.08179 0.21003 0.9078 0.0
C654 C 0.1522 0.21796 0.89378 0.0
C655 C 0.11589 0.24504 0.91008 0.0
C656 C 0.22414 0.25645 0.89172 0.0
C657 C 0.22554 0.18968 0.88299 0.0
N658 N 0.14972 0.24797 0.90337 0.0
N659 N 0.192 0.18946 0.88439 0.0
H660 H 1.00872 0.27079 0.3923 0.0
H661 H 0.92527 0.04515 0.39948 0.0
H662 H 0.07643 0.21617 0.38718 0.0
H663 H 0.86196 0.0986 0.42517 0.0
H664 H 0.97729 0.10731 0.38663 0.0
H665 H 0.95111 0.20756 0.39581 0.0
C666 C 1.0113 0.24549 0.3912 0.0
C667 C 0.04725 0.24856 0.38947 0.0
C668 C 0.95195 0.1055 0.39494 0.0
C669 C 0.98203 0.17666 0.39372 0.0
C670 C 0.92209 0.06992 0.40217 0.0
C671 C 0.88916 0.06656 0.41353 0.0
C672 C 0.94907 0.13822 0.39899 0.0
C673 C 0.88703 0.0999 0.41683 0.0
C674 C 0.97857 0.20952 0.39349 0.0
C675 C 0.04921 0.215 0.38858 0.0
N676 N 0.91662 0.13437 0.40966 0.0
N677 N 1.01716 0.18056 0.39081 0.0
H678 H 0.9053 0.92393 0.90214 0.0
H679 H 0.76611 1.01008 0.89286 0.0
H680 H 0.784 0.85641 0.9138 0.0
H681 H 0.88772 0.07477 0.88182 0.0
H682 H 0.76995 0.95153 0.89444 0.0
H683 H 0.89763 0.97763 0.88951 0.0
C684 C 0.87701 0.92043 0.90207 0.0
C685 C 0.84533 0.88577 0.90938 0.0
C686 C 0.79567 0.9785 0.89122 0.0
C687 C 0.83617 0.94728 0.89473 0.0
C688 C 0.79343 1.01187 0.89007 0.0
C689 C 0.8267 0.04736 0.88746 0.0
C690 C 0.83142 0.9808 0.8897 0.0
C691 C 0.8614 0.04806 0.88418 0.0
C692 C 0.87257 0.95106 0.89468 0.0
C693 C 0.80922 0.88263 0.90832 0.0
N694 N 0.86288 1.01542 0.88567 0.0
N695 N 0.80565 0.91312 0.9014 0.0
H696 H 0.2351 0.63259 0.13639 0.0
H697 H 0.15849 0.41252 0.10392 0.0
H698 H 0.11601 0.54836 0.12964 0.0
H699 H 0.27546 0.49193 0.12367 0.0
H700 H 0.14384 0.46386 0.10775 0.0
H701 H 0.25139 0.58328 0.12693 0.0
C702 C 0.21234 0.60379 0.13275 0.0
C703 C 0.17406 0.5947 0.1339 0.0
C704 C 0.17279 0.47015 0.11106 0.0
C705 C 0.19263 0.53791 0.12308 0.0
C706 C 0.18132 0.44084 0.10868 0.0
C707 C 0.21833 0.44767 0.11366 0.0
C708 C 0.20144 0.5068 0.11835 0.0
C709 C 0.2465 0.48511 0.11988 0.0
C710 C 0.2217 0.57559 0.12746 0.0
C711 C 0.14587 0.55669 0.1293 0.0
N712 N 0.23745 0.51314 0.12217 0.0
N713 N 0.15571 0.52979 0.12408 0.0
H714 H 0.80362 0.26691 0.63673 0.0
H715 H 0.58437 0.10558 0.62995 0.0
H716 H 0.76451 0.15565 0.60368 0.0
H717 H 0.62167 0.22231 0.65011 0.0
H718 H 0.6502 0.12351 0.62035 0.0
H719 H 0.7375 0.25178 0.641 0.0
C720 C 0.78117 0.23945 0.63005 0.0
C721 C 0.78976 0.21246 0.6199 0.0
C722 C 0.64404 0.14527 0.62679 0.0
C723 C 0.71372 0.19472 0.62516 0.0
C724 C 0.60645 0.13498 0.63252 0.0
C725 C 0.59742 0.1624 0.64111 0.0
C726 C 0.67312 0.18327 0.62983 0.0
C727 C 0.62723 0.20023 0.64349 0.0
C728 C 0.74336 0.23081 0.63256 0.0
C729 C 0.75936 0.1774 0.61156 0.0
N730 N 0.66372 0.20948 0.63807 0.0
N731 N 0.72275 0.16941 0.61464 0.0
H732 H 0.56061 0.79853 0.14242 0.0
H733 H 0.48896 0.57772 0.11831 0.0
H734 H 0.62454 0.75749 0.10005 0.0
H735 H 0.42175 0.61759 0.15764 0.0
H736 H 0.53727 0.64362 0.10955 0.0
H737 H 0.50765 0.73319 0.14556 0.0
C738 C 0.56339 0.77597 0.13338 0.0
C739 C 0.59735 0.78379 0.12098 0.0
C740 C 0.5119 0.63804 0.12 0.0
C741 C 0.53674 0.70847 0.12495 0.0
C742 C 0.48435 0.60033 0.12519 0.0
C743 C 0.45127 0.59193 0.13899 0.0
C744 C 0.50665 0.66791 0.12873 0.0
C745 C 0.44665 0.62258 0.14685 0.0
C746 C 0.53311 0.73853 0.13534 0.0
C747 C 0.59911 0.75306 0.10986 0.0
N748 N 0.4741 0.65914 0.14179 0.0
N749 N 0.56946 0.71687 0.1123 0.0
H750 H 0.9023 0.62639 0.59908 0.0
H751 H 0.84362 0.41868 0.65304 0.0
H752 H 0.79353 0.55001 0.63362 0.0
H753 H 0.9508 0.49157 0.61549 0.0
H754 H 0.82431 0.4659 0.64465 0.0
H755 H 0.91953 0.57662 0.60269 0.0
C756 C 0.88178 0.59907 0.60708 0.0
C757 C 0.84636 0.59266 0.61611 0.0
C758 C 0.85203 0.4716 0.63816 0.0
C759 C 0.86626 0.53551 0.62064 0.0
C760 C 0.86323 0.44469 0.64313 0.0
C761 C 0.89907 0.4511 0.63515 0.0
C762 C 0.87682 0.50552 0.62517 0.0
C763 C 0.92281 0.48515 0.62188 0.0
C764 C 0.89176 0.57066 0.60926 0.0
C765 C 0.82117 0.55655 0.62642 0.0
N766 N 0.91138 0.51109 0.61744 0.0
N767 N 0.83169 0.52961 0.62854 0.0
H768 H 0.44174 0.81768 0.1459 0.0
H769 H 0.30055 0.89088 0.09858 0.0
H770 H 0.47757 0.93558 0.13112 0.0
H771 H 0.26152 0.77728 0.12718 0.0
H772 H 0.36629 0.9055 0.10483 0.0
H773 H 0.37646 0.80056 0.1342 0.0
C774 C 0.43596 0.83997 0.14009 0.0
C775 C 0.46529 0.87821 0.1397 0.0
C776 C 0.34334 0.87726 0.10953 0.0
C777 C 0.39045 0.85873 0.12617 0.0
C778 C 0.30568 0.86875 0.10576 0.0
C779 C 0.27518 0.83278 0.11244 0.0
C780 C 0.35079 0.84962 0.11994 0.0
C781 C 0.28393 0.80546 0.12184 0.0
C782 C 0.39863 0.83017 0.13349 0.0
C783 C 0.45589 0.90583 0.13215 0.0
N784 N 0.32081 0.81449 0.12541 0.0
N785 N 0.41942 0.89556 0.12568 0.0
H786 H 0.64033 0.42149 0.64783 0.0
H787 H 0.42881 0.27932 0.5962 0.0
H788 H 0.56211 0.45857 0.62385 0.0
H789 H 0.49871 0.24143 0.63434 0.0
H790 H 0.48056 0.34514 0.60063 0.0
H791 H 0.59185 0.35573 0.63794 0.0
C792 C 0.61307 0.41589 0.6403 0.0
C793 C 0.60537 0.44578 0.63676 0.0
C794 C 0.4847 0.32238 0.60781 0.0
C795 C 0.54949 0.37021 0.62539 0.0
C796 C 0.45521 0.28465 0.60511 0.0
C797 C 0.45916 0.25446 0.61493 0.0
C798 C 0.51866 0.33024 0.62031 0.0
C799 C 0.49416 0.26351 0.62643 0.0
C800 C 0.5853 0.37825 0.63477 0.0
C801 C 0.56925 0.43652 0.62722 0.0
N802 N 0.52238 0.30047 0.62889 0.0
N803 N 0.54275 0.39968 0.62186 0.0
H804 H 0.50455 0.95215 0.4107 0.0
H805 H 0.55428 0.78392 0.41155 0.0
H806 H 0.42263 0.8342 0.39566 0.0
H807 H 0.63667 0.90037 0.4304 0.0
H808 H 0.50542 0.80186 0.40769 0.0
H809 H 0.5529 0.93409 0.41919 0.0
C810 C 0.49667 0.92247 0.40909 0.0
C811 C 0.45925 0.89473 0.40235 0.0
C812 C 0.53408 0.82353 0.41286 0.0
C813 C 0.51469 0.87376 0.41235 0.0
C814 C 0.56214 0.81327 0.41513 0.0
C815 C 0.59992 0.84065 0.42124 0.0
C816 C 0.54361 0.86162 0.41651 0.0
C817 C 0.60801 0.8782 0.42573 0.0
C818 C 0.5243 0.91215 0.41414 0.0
C819 C 0.45081 0.85663 0.40106 0.0
N820 N 0.58022 0.88762 0.42307 0.0
N821 N 0.47823 0.84738 0.40588 0.0
H822 H 0.76164 0.62378 0.93673 0.0
H823 H 0.61426 0.40955 0.89261 0.0
H824 H 0.79553 0.54701 0.9045 0.0
H825 H 0.57983 0.48959 0.91711 0.0
H826 H 0.68059 0.45766 0.90082 0.0
H827 H 0.69506 0.57305 0.93407 0.0
C828 C 0.75525 0.59616 0.92945 0.0
C829 C 0.7845 0.58991 0.92074 0.0
C830 C 0.65855 0.46471 0.90448 0.0
C831 C 0.70794 0.5316 0.91737 0.0
C832 C 0.62054 0.43713 0.89991 0.0
C833 C 0.59119 0.4454 0.9041 0.0
C834 C 0.66755 0.50101 0.91342 0.0
C835 C 0.6014 0.48197 0.91324 0.0
C836 C 0.7171 0.56722 0.92778 0.0
C837 C 0.77415 0.5534 0.91137 0.0
N838 N 0.63862 0.50834 0.91757 0.0
N839 N 0.73685 0.52582 0.90982 0.0
H840 H 0.16534 0.75889 0.43742 0.0
H841 H 0.2177 0.61043 0.37407 0.0
H842 H 0.26634 0.79192 0.39214 0.0
H843 H 0.12351 0.57693 0.42625 0.0
H844 H 0.23628 0.67713 0.38114 0.0
H845 H 0.1505 0.69249 0.43496 0.0
C846 C 0.18469 0.75235 0.42725 0.0
C847 C 0.2171 0.78124 0.41488 0.0
C848 C 0.21162 0.65524 0.39115 0.0
C849 C 0.1999 0.70497 0.41167 0.0
C850 C 0.20083 0.61705 0.38697 0.0
C851 C 0.16885 0.58784 0.39947 0.0
C852 C 0.19018 0.66456 0.40783 0.0
C853 C 0.14854 0.5984 0.41633 0.0
C854 C 0.17609 0.71433 0.42576 0.0
C855 C 0.24095 0.77078 0.40191 0.0
N856 N 0.15937 0.63578 0.41988 0.0
N857 N 0.23172 0.73362 0.40048 0.0
H858 H 0.62533 0.19874 0.87506 0.0
H859 H 0.43057 0.15499 0.94344 0.0
H860 H 0.56736 0.10857 0.93054 0.0
H861 H 0.49711 0.25264 0.89493 0.0
H862 H 0.48076 0.13831 0.94021 0.0
H863 H 0.57862 0.21896 0.88262 0.0
C864 C 0.60266 0.18305 0.88876 0.0
C865 C 0.60022 0.15172 0.90204 0.0
C866 C 0.4845 0.16358 0.93048 0.0
C867 C 0.54653 0.175 0.91101 0.0
C868 C 0.45588 0.17323 0.93239 0.0
C869 C 0.45939 0.20522 0.91935 0.0
C870 C 0.51683 0.1859 0.91528 0.0
C871 C 0.49291 0.22763 0.90525 0.0
C872 C 0.57611 0.19481 0.89323 0.0
C873 C 0.57055 0.13301 0.91996 0.0
N874 N 0.52006 0.21739 0.90344 0.0
N875 N 0.54477 0.14476 0.92379 0.0
H876 H 0.24546 0.49374 0.40398 0.0
H877 H 0.46562 0.55533 0.41232 0.0
H878 H 0.28599 0.42484 0.44032 0.0
H879 H 0.42627 0.63235 0.38992 0.0
H880 H 0.40004 0.50722 0.42276 0.0
H881 H 0.3113 0.54539 0.39967 0.0
C882 C 0.26814 0.48965 0.41143 0.0
C883 C 0.26008 0.45477 0.42246 0.0
C884 C 0.40576 0.53472 0.4157 0.0
C885 C 0.33577 0.51368 0.4171 0.0
C886 C 0.44319 0.56211 0.40953 0.0
C887 C 0.45154 0.59794 0.40011 0.0
C888 C 0.37624 0.54296 0.41219 0.0
C889 C 0.42128 0.60525 0.39729 0.0
C890 C 0.30579 0.51916 0.40887 0.0
C891 C 0.29075 0.4512 0.43174 0.0
N892 N 0.38503 0.57797 0.40312 0.0
N893 N 0.3272 0.48007 0.42856 0.0
H894 H 0.94262 0.46495 0.90525 0.0
H895 H 0.78106 0.24568 0.90818 0.0
H896 H 0.82344 0.42609 0.89304 0.0
H897 H 0.89536 0.28602 0.93597 0.0
H898 H 0.79585 0.31159 0.90321 0.0
H899 H 0.9262 0.39976 0.91636 0.0
C900 C 0.91301 0.44271 0.90484 0.0
C901 C 0.88439 0.45106 0.89811 0.0
C902 C 0.8176 0.30609 0.91069 0.0
C903 C 0.86534 0.3763 0.91095 0.0
C904 C 0.80914 0.26839 0.9136 0.0
C905 C 0.83702 0.2602 0.92246 0.0
C906 C 0.85442 0.336 0.91632 0.0
C907 C 0.8729 0.29091 0.92918 0.0
C908 C 0.90362 0.40554 0.91139 0.0
C909 C 0.84644 0.42111 0.8983 0.0
N910 N 0.88071 0.32742 0.92567 0.0
N911 N 0.83808 0.38512 0.90442 0.0
H912 H 0.12667 0.33995 0.32777 0.0
H913 H 0.25547 0.36954 0.20311 0.0
H914 H 0.24583 0.37455 0.33299 0.0
H915 H 0.13284 0.31306 0.20223 0.0
H916 H 0.25457 0.37889 0.24996 0.0
H917 H 0.13053 0.338 0.28084 0.0
C918 C 0.15374 0.34739 0.31899 0.0
C919 C 0.1859 0.3571 0.33425 0.0
C920 C 0.22791 0.36458 0.23945 0.0
C921 C 0.19058 0.35483 0.2805 0.0
C922 C 0.22845 0.35936 0.21277 0.0
C923 C 0.19419 0.34054 0.19889 0.0
C924 C 0.19286 0.35112 0.25214 0.0
C925 C 0.1599 0.32765 0.21225 0.0
C926 C 0.15592 0.34616 0.2922 0.0
C927 C 0.22031 0.36669 0.32188 0.0
N928 N 0.16011 0.3332 0.23808 0.0
N929 N 0.22174 0.36517 0.29569 0.0
H930 H 0.90949 0.24895 0.70598 0.0
H931 H 0.80211 0.14204 0.83581 0.0
H932 H 0.81815 0.1323 0.70776 0.0
H933 H 0.91856 0.23379 0.83445 0.0
H934 H 0.79938 0.14656 0.78861 0.0
H935 H 0.90487 0.25206 0.75317 0.0
C936 C 0.88812 0.22426 0.71627 0.0
C937 C 0.86435 0.19025 0.70313 0.0
C938 C 0.82535 0.16596 0.79874 0.0
C939 C 0.85868 0.19362 0.75669 0.0
C940 C 0.82683 0.1635 0.8256 0.0
C941 C 0.86067 0.18741 0.83888 0.0
C942 C 0.85776 0.19291 0.78527 0.0
C943 C 0.89203 0.21463 0.82482 0.0
C944 C 0.88559 0.22597 0.74312 0.0
C945 C 0.8372 0.15896 0.71729 0.0
N946 N 0.88987 0.21663 0.79876 0.0
N947 N 0.83512 0.16136 0.74331 0.0
H948 H 0.66002 0.86567 0.20876 0.0
H949 H 0.77444 0.88898 0.3361 0.0
H950 H 0.76097 0.85556 0.20848 0.0
H951 H 0.65265 0.8155 0.33819 0.0
H952 H 0.77168 0.88957 0.28893 0.0
H953 H 0.65773 0.85943 0.25632 0.0
C954 C 0.68166 0.86227 0.2187 0.0
C955 C 0.71077 0.86119 0.20479 0.0
C956 C 0.74558 0.87318 0.29971 0.0
C957 C 0.70863 0.85469 0.2586 0.0
C958 C 0.74711 0.87279 0.32655 0.0
C959 C 0.71377 0.85182 0.34091 0.0
C960 C 0.71029 0.85351 0.28711 0.0
C961 C 0.67901 0.83154 0.32766 0.0
C962 C 0.68017 0.85843 0.24567 0.0
C963 C 0.73802 0.85649 0.21848 0.0
N964 N 0.67803 0.83327 0.30137 0.0
N965 N 0.7366 0.85394 0.2446 0.0
H966 H 0.80074 0.67783 0.70353 0.0
H967 H 0.90929 0.67595 0.83261 0.0
H968 H 0.91798 0.70495 0.70447 0.0
H969 H 0.82189 0.70695 0.83229 0.0
H970 H 0.90361 0.66908 0.78535 0.0
H971 H 0.79901 0.67103 0.75087 0.0
C972 C 0.82583 0.68169 0.71367 0.0
C973 C 0.85961 0.69219 0.70023 0.0
C974 C 0.88541 0.67695 0.79573 0.0
C975 C 0.85776 0.68406 0.75392 0.0
C976 C 0.88854 0.68072 0.82262 0.0
C977 C 0.8662 0.69227 0.83623 0.0
C978 C 0.85922 0.68406 0.78255 0.0
C979 C 0.83983 0.69827 0.82242 0.0
C980 C 0.82491 0.67801 0.74059 0.0
C981 C 0.89145 0.69708 0.7142 0.0
N982 N 0.83703 0.69409 0.79634 0.0
N983 N 0.88976 0.69296 0.74026 0.0
H984 H 0.14767 0.79316 0.1959 0.0
H985 H 0.25457 0.90016 0.32639 0.0
H986 H 0.23711 0.91062 0.19836 0.0
H987 H 0.13889 0.80685 0.32457 0.0
H988 H 0.25718 0.89613 0.27911 0.0
H989 H 0.1527 0.7898 0.24307 0.0
C990 C 0.1687 0.81799 0.20634 0.0
C991 C 0.19184 0.85227 0.19338 0.0
C992 C 0.23144 0.87626 0.28916 0.0
C993 C 0.19801 0.84862 0.24693 0.0
C994 C 0.23004 0.87843 0.31607 0.0
C995 C 0.19639 0.85397 0.32924 0.0
C996 C 0.19918 0.84903 0.27554 0.0
C997 C 0.16527 0.82642 0.31503 0.0
C998 C 0.17148 0.81614 0.23317 0.0
C999 C 0.21854 0.88374 0.20773 0.0
N1000 N 0.16736 0.82472 0.28895 0.0
N1001 N 0.2209 0.8812 0.23373 0.0
H1002 H 0.35169 0.12738 0.83134 0.0
H1003 H 0.34838 0.2302 0.70324 0.0
H1004 H 0.37463 0.24329 0.83225 0.0
H1005 H 0.37725 0.14127 0.70346 0.0
H1006 H 0.35548 0.23483 0.75031 0.0
H1007 H 0.35858 0.13072 0.78442 0.0
C1008 C 0.35857 0.15369 0.82161 0.0
C1009 C 0.36256 0.1851 0.83558 0.0
C1010 C 0.36076 0.21466 0.74002 0.0
C1011 C 0.36976 0.1889 0.78188 0.0
C1012 C 0.35659 0.21192 0.71322 0.0
C1013 C 0.36215 0.18523 0.69955 0.0
C1014 C 0.36972 0.18994 0.75326 0.0
C1015 C 0.37278 0.16224 0.71332 0.0
C1016 C 0.3626 0.15562 0.79487 0.0
C1017 C 0.37149 0.21853 0.82211 0.0
N1018 N 0.37569 0.16473 0.73949 0.0
N1019 N 0.37421 0.21939 0.79589 0.0
H1020 H 0.40729 0.30783 0.98607 0.0
H1021 H 0.22883 0.2798 0.06758 0.0
H1022 H 0.29468 0.2149 0.96903 0.0
H1023 H 0.33171 0.38743 0.05766 0.0
H1024 H 0.25034 0.25239 0.03349 0.0
H1025 H 0.37968 0.33287 1.01674 0.0
C1026 C 0.3768 0.29225 0.9891 0.0
C1027 C 0.35332 0.25924 0.97483 0.0
C1028 C 0.26766 0.28227 0.03831 0.0
C1029 C 0.32126 0.28823 1.00983 0.0
C1030 C 0.25503 0.29807 0.05738 0.0
C1031 C 0.27813 0.33618 0.06496 0.0
C1032 C 0.30397 0.30462 0.02736 0.0
C1033 C 0.31271 0.35815 0.052 0.0
C1034 C 0.36095 0.30687 1.00641 0.0
C1035 C 0.31387 0.24044 0.97963 0.0
N1036 N 0.32479 0.342 0.03418 0.0
N1037 N 0.29904 0.25522 0.99668 0.0
H1038 H 0.1023 0.39042 0.48112 0.0
H1039 H 0.95676 0.21419 0.56793 0.0
H1040 H 0.08602 0.27801 0.47015 0.0
H1041 H 0.94999 0.31594 0.55584 0.0
H1042 H 1.00979 0.23817 0.53713 0.0
H1043 H 0.0554 0.36607 0.51595 0.0
C1044 C 0.09019 0.36095 0.48697 0.0
C1045 C 0.0988 0.33641 0.47328 0.0
C1046 C 0.99644 0.25503 0.54111 0.0
C1047 C 0.04346 0.30773 0.51213 0.0
C1048 C 0.96593 0.24121 0.55846 0.0
C1049 C 0.9487 0.26296 0.56444 0.0
C1050 C 1.01026 0.29116 0.52998 0.0
C1051 C 0.96213 0.29802 0.5518 0.0
C1052 C 0.06275 0.34684 0.50642 0.0
C1053 C 0.08098 0.29806 0.4808 0.0
N1054 N 0.99227 0.31113 0.53544 0.0
N1055 N 0.05386 0.28475 0.49959 0.0
H1056 H 0.66516 0.94252 0.05973 0.0
H1057 H 0.83826 0.09654 0.97449 0.0
H1058 H 0.78099 0.97204 0.0754 0.0
H1059 H 0.73147 0.09428 0.98393 0.0
H1060 H 0.81725 0.04484 1.00624 0.0
H1061 H 0.68754 0.98912 0.02457 0.0
C1062 C 0.69517 0.95756 0.05491 0.0
C1063 C 0.72117 0.95263 0.06992 0.0
C1064 C 0.79861 0.05592 1.00146 0.0
C1065 C 0.7473 1.00742 0.03061 0.0
C1066 C 0.81069 0.08564 0.98354 0.0
C1067 C 0.78673 0.10002 0.97662 0.0
C1068 C 0.76198 0.03992 1.01215 0.0
C1069 C 0.75108 0.08441 0.98874 0.0
C1070 C 0.70804 0.98477 0.03525 0.0
C1071 C 0.75997 0.9742 0.06371 0.0
N1072 N 0.73969 0.05503 1.00565 0.0
N1073 N 0.77195 1.00082 0.0446 0.0
H1074 H 0.81963 0.75234 0.57475 0.0
H1075 H 0.64401 0.7106 0.48599 0.0
H1076 H 0.73651 0.64171 0.54608 0.0
H1077 H 0.74855 0.81584 0.47282 0.0
H1078 H 0.67687 0.69151 0.51644 0.0
H1079 H 0.79629 0.78177 0.543 0.0
C1080 C 0.79761 0.73435 0.56115 0.0
C1081 C 0.78015 0.69443 0.56291 0.0
C1082 C 0.69279 0.71895 0.50708 0.0
C1083 C 0.75236 0.72766 0.52765 0.0
C1084 C 0.67388 0.73013 0.48986 0.0
C1085 C 0.69352 0.76468 0.47647 0.0
C1086 C 0.73198 0.74239 0.51138 0.0
C1087 C 0.73228 0.78884 0.48256 0.0
C1088 C 0.78398 0.75114 0.54331 0.0
C1089 C 0.75095 0.67251 0.54534 0.0
N1090 N 0.75045 0.77711 0.49948 0.0
N1091 N 0.7377 0.68928 0.52887 0.0
H1092 H 0.96143 0.74989 0.96307 0.0
H1093 H 0.11969 0.73044 0.03972 0.0
H1094 H 0.95515 0.64376 0.98319 0.0
H1095 H 0.09291 0.81413 0.06823 0.0
H1096 H 0.06851 0.70983 1.00814 0.0
H1097 H 1.01477 0.783 0.99416 0.0
C1098 C 0.97032 0.73342 0.97459 0.0
C1099 C 0.95372 0.69391 0.97061 0.0
C1100 C 0.07423 0.73327 0.02091 0.0
C1101 C 1.01534 0.7316 1.00496 0.0
C1102 C 0.10387 0.74547 0.03869 0.0
C1103 C 0.11084 0.77423 0.05649 0.0
C1104 C 0.05088 0.7497 0.02082 0.0
C1105 C 0.08886 0.79224 0.05454 0.0
C1106 C 1.00102 0.75238 0.99204 0.0
C1107 C 0.96703 0.67416 0.9856 0.0
N1108 N 0.05941 0.77936 0.03718 0.0
N1109 N 0.99724 0.69318 1.00166 0.0
H1110 H 0.25749 0.98447 0.44538 0.0
H1111 H 0.28647 0.01952 0.59569 0.0
H1112 H 0.27175 0.9083 0.49622 0.0
H1113 H 0.34941 0.11445 0.54444 0.0
H1114 H 0.26289 0.97677 0.55874 0.0
H1115 H 0.27508 0.03039 0.48093 0.0
C1116 C 0.26375 0.97712 0.46414 0.0
C1117 C 0.26283 0.94227 0.46797 0.0
C1118 C 0.28144 1.00698 0.55551 0.0
C1119 C 0.28252 0.9946 0.50858 0.0
C1120 C 0.29477 0.03156 0.57654 0.0
C1121 C 0.3204 0.07065 0.57319 0.0
C1122 C 0.29312 0.02141 0.53067 0.0
C1123 C 0.32969 0.08457 0.54788 0.0
C1124 C 0.27409 1.00353 0.48427 0.0
C1125 C 0.27187 0.93464 0.49251 0.0
N1126 N 0.31618 0.05982 0.52745 0.0
N1127 N 0.28094 0.96042 0.51197 0.0
loop_
_geom_bond_atom_site_label_1
_geom_bond_atom_site_label_2
_geom_bond_distance
_geom_bond_site_symmetry_2
_ccdc_geom_bond_type
Nd0 C2 2.836 . S
Nd0 O20 2.500 . S
Nd0 O21 2.492 . S
Nd0 O22 2.487 . S
Nd0 O23 2.682 . S
Nd0 O24 2.410 . S
Nd0 O29 2.414 . S
Nd0 O31 2.424 . S
Nd1 C11 2.836 . S
Nd1 O23 2.414 . S
Nd1 O25 2.424 . S
Nd1 O26 2.500 . S
Nd1 O27 2.492 . S
Nd1 O28 2.487 . S
Nd1 O29 2.682 . S
Nd1 O30 2.410 . S
C2 Nd0 2.836 . S
C2 C3 1.498 . S
C2 O20 1.258 . S
C2 O21 1.239 . S
C3 C2 1.498 . S
C3 C4 1.366 . S
C3 C8 1.407 . S
C4 C3 1.366 . S
C4 C5 1.392 . S
C4 H32 0.930 . S
C5 C4 1.392 . S
C5 C6 1.398 . S
C5 H33 0.929 . S
C6 C5 1.398 . S
C6 C7 1.352 . S
C7 C6 1.352 . S
C7 C8 1.384 . S
C7 H34 0.930 . S
C8 C3 1.407 . S
C8 C7 1.384 . S
C8 H35 0.929 . S
C9 O22 1.241 . S
C9 O23 1.273 . S
C10 O24 1.251 . S
C10 O25 1.268 . S
C11 Nd1 2.836 . S
C11 C12 1.498 . S
C11 O26 1.258 . S
C11 O27 1.239 . S
C12 C11 1.498 . S
C12 C13 1.366 . S
C12 C17 1.407 . S
C13 C12 1.366 . S
C13 C14 1.392 . S
C13 H36 0.930 . S
C14 C13 1.392 . S
C14 C15 1.398 1_455 S
C14 H37 0.929 . S
C15 C14 1.398 1_655 S
C15 C16 1.352 . S
C16 C15 1.352 . S
C16 C17 1.384 1_655 S
C16 H38 0.930 . S
C17 C12 1.407 . S
C17 C16 1.384 1_455 S
C17 H39 0.929 . S
C18 O28 1.241 . S
C18 O29 1.273 . S
C19 O30 1.251 . S
C19 O31 1.268 . S
O20 Nd0 2.500 . S
O20 C2 1.258 . S
O21 Nd0 2.492 . S
O21 C2 1.239 . S
O22 Nd0 2.487 . S
O22 C9 1.241 . S
O23 Nd0 2.682 . S
O23 Nd1 2.414 . S
O23 C9 1.273 . S
O24 Nd0 2.410 . S
O24 C10 1.251 . S
O25 Nd1 2.424 . S
O25 C10 1.268 . S
O26 Nd1 2.500 . S
O26 C11 1.258 . S
O27 Nd1 2.492 . S
O27 C11 1.239 . S
O28 Nd1 2.487 . S
O28 C18 1.241 . S
O29 Nd0 2.414 . S
O29 Nd1 2.682 . S
O29 C18 1.273 . S
O30 Nd1 2.410 . S
O30 C19 1.251 . S
O31 Nd0 2.424 . S
O31 C19 1.268 . S
H32 C4 0.930 . S
H33 C5 0.929 . S
H34 C7 0.930 . S
H35 C8 0.929 . S
H36 C13 0.930 . S
H37 C14 0.929 . S
H38 C16 0.930 . S
H39 C17 0.929 . S
Nd40 C42 2.836 . S
Nd40 O60 2.500 . S
Nd40 O61 2.492 . S
Nd40 O62 2.487 . S
Nd40 O63 2.682 . S
Nd40 O64 2.410 . S
Nd40 O69 2.414 . S
Nd40 O71 2.424 . S
Nd41 C51 2.836 . S
Nd41 O63 2.414 . S
Nd41 O65 2.424 . S
Nd41 O66 2.500 . S
Nd41 O67 2.492 . S
Nd41 O68 2.487 . S
Nd41 O69 2.682 . S
Nd41 O70 2.410 . S
C42 Nd40 2.836 . S
C42 C43 1.498 . S
C42 O60 1.258 . S
C42 O61 1.239 . S
C43 C42 1.498 . S
C43 C44 1.366 . S
C43 C48 1.407 . S
C44 C43 1.366 . S
C44 C45 1.392 . S
C44 H72 0.930 . S
C45 C44 1.392 . S
C45 C46 1.398 . S
C45 H73 0.929 . S
C46 C45 1.398 . S
C46 C47 1.352 . S
C47 C46 1.352 . S
C47 C48 1.384 . S
C47 H74 0.930 . S
C48 C43 1.407 . S
C48 C47 1.384 . S
C48 H75 0.929 . S
C49 O62 1.241 . S
C49 O63 1.273 . S
C50 O64 1.251 . S
C50 O65 1.268 . S
C51 Nd41 2.836 . S
C51 C52 1.498 . S
C51 O66 1.258 . S
C51 O67 1.239 . S
C52 C51 1.498 . S
C52 C53 1.366 . S
C52 C57 1.407 . S
C53 C52 1.366 . S
C53 C54 1.392 . S
C53 H76 0.930 . S
C54 C53 1.392 . S
C54 C55 1.398 1_545 S
C54 H77 0.929 . S
C55 C54 1.398 1_565 S
C55 C56 1.352 . S
C56 C55 1.352 . S
C56 C57 1.384 1_565 S
C56 H78 0.930 . S
C57 C52 1.407 . S
C57 C56 1.384 1_545 S
C57 H79 0.929 . S
C58 O68 1.241 . S
C58 O69 1.273 . S
C59 O70 1.251 . S
C59 O71 1.268 . S
O60 Nd40 2.500 . S
O60 C42 1.258 . S
O61 Nd40 2.492 . S
O61 C42 1.239 . S
O62 Nd40 2.487 . S
O62 C49 1.241 . S
O63 Nd40 2.682 . S
O63 Nd41 2.414 . S
O63 C49 1.273 . S
O64 Nd40 2.410 . S
O64 C50 1.251 . S
O65 Nd41 2.424 . S
O65 C50 1.268 . S
O66 Nd41 2.500 . S
O66 C51 1.258 . S
O67 Nd41 2.492 . S
O67 C51 1.239 . S
O68 Nd41 2.487 . S
O68 C58 1.241 . S
O69 Nd40 2.414 . S
O69 Nd41 2.682 . S
O69 C58 1.273 . S
O70 Nd41 2.410 . S
O70 C59 1.251 . S
O71 Nd40 2.424 . S
O71 C59 1.268 . S
H72 C44 0.930 . S
H73 C45 0.929 . S
H74 C47 0.930 . S
H75 C48 0.929 . S
H76 C53 0.930 . S
H77 C54 0.929 . S
H78 C56 0.930 . S
H79 C57 0.929 . S
Nd80 C82 2.836 . S
Nd80 O100 2.500 . S
Nd80 O101 2.492 . S
Nd80 O102 2.487 . S
Nd80 O103 2.682 . S
Nd80 O104 2.410 . S
Nd80 O109 2.414 . S
Nd80 O111 2.424 . S
Nd81 C91 2.836 . S
Nd81 O103 2.414 . S
Nd81 O105 2.424 . S
Nd81 O106 2.500 . S
Nd81 O107 2.492 . S
Nd81 O108 2.487 . S
Nd81 O109 2.682 . S
Nd81 O110 2.410 . S
C82 Nd80 2.836 . S
C82 C83 1.498 . S
C82 O100 1.258 . S
C82 O101 1.239 . S
C83 C82 1.498 . S
C83 C84 1.366 . S
C83 C88 1.407 . S
C84 C83 1.366 . S
C84 C85 1.392 . S
C84 H112 0.930 . S
C85 C84 1.392 . S
C85 C86 1.398 . S
C85 H113 0.929 . S
C86 C85 1.398 . S
C86 C87 1.352 . S
C87 C86 1.352 . S
C87 C88 1.384 . S
C87 H114 0.930 . S
C88 C83 1.407 . S
C88 C87 1.384 . S
C88 H115 0.929 . S
C89 O102 1.241 . S
C89 O103 1.273 . S
C90 O104 1.251 . S
C90 O105 1.268 . S
C91 Nd81 2.836 . S
C91 C92 1.498 . S
C91 O106 1.258 . S
C91 O107 1.239 . S
C92 C91 1.498 . S
C92 C93 1.366 . S
C92 C97 1.407 . S
C93 C92 1.366 . S
C93 C94 1.392 . S
C93 H116 0.930 . S
C94 C93 1.392 . S
C94 C95 1.398 . S
C94 H117 0.929 . S
C95 C94 1.398 . S
C95 C96 1.352 . S
C96 C95 1.352 . S
C96 C97 1.384 . S
C96 H118 0.930 . S
C97 C92 1.407 . S
C97 C96 1.384 . S
C97 H119 0.929 . S
C98 O108 1.241 . S
C98 O109 1.273 . S
C99 O110 1.251 . S
C99 O111 1.268 . S
O100 Nd80 2.500 . S
O100 C82 1.258 . S
O101 Nd80 2.492 . S
O101 C82 1.239 . S
O102 Nd80 2.487 . S
O102 C89 1.241 . S
O103 Nd80 2.682 . S
O103 Nd81 2.414 . S
O103 C89 1.273 . S
O104 Nd80 2.410 . S
O104 C90 1.251 . S
O105 Nd81 2.424 . S
O105 C90 1.268 . S
O106 Nd81 2.500 . S
O106 C91 1.258 . S
O107 Nd81 2.492 . S
O107 C91 1.239 . S
O108 Nd81 2.487 . S
O108 C98 1.241 . S
O109 Nd80 2.414 . S
O109 Nd81 2.682 . S
O109 C98 1.273 . S
O110 Nd81 2.410 . S
O110 C99 1.251 . S
O111 Nd80 2.424 . S
O111 C99 1.268 . S
H112 C84 0.930 . S
H113 C85 0.929 . S
H114 C87 0.930 . S
H115 C88 0.929 . S
H116 C93 0.930 . S
H117 C94 0.929 . S
H118 C96 0.930 . S
H119 C97 0.929 . S
Nd120 C122 2.836 . S
Nd120 O140 2.500 . S
Nd120 O141 2.492 . S
Nd120 O142 2.487 . S
Nd120 O143 2.682 . S
Nd120 O144 2.410 . S
Nd120 O149 2.414 . S
Nd120 O151 2.424 . S
Nd121 C131 2.836 . S
Nd121 O143 2.414 . S
Nd121 O145 2.424 . S
Nd121 O146 2.500 . S
Nd121 O147 2.492 . S
Nd121 O148 2.487 . S
Nd121 O149 2.682 . S
Nd121 O150 2.410 . S
C122 Nd120 2.836 . S
C122 C123 1.498 . S
C122 O140 1.258 . S
C122 O141 1.239 . S
C123 C122 1.498 . S
C123 C124 1.366 . S
C123 C128 1.407 . S
C124 C123 1.366 . S
C124 C125 1.392 . S
C124 H152 0.930 . S
C125 C124 1.392 . S
C125 C126 1.398 . S
C125 H153 0.929 . S
C126 C125 1.398 . S
C126 C127 1.352 . S
C127 C126 1.352 . S
C127 C128 1.384 . S
C127 H154 0.930 . S
C128 C123 1.407 . S
C128 C127 1.384 . S
C128 H155 0.929 . S
C129 O142 1.241 . S
C129 O143 1.273 . S
C130 O144 1.251 . S
C130 O145 1.268 . S
C131 Nd121 2.836 . S
C131 C132 1.498 . S
C131 O146 1.258 . S
C131 O147 1.239 . S
C132 C131 1.498 . S
C132 C133 1.366 . S
C132 C137 1.407 . S
C133 C132 1.366 . S
C133 C134 1.392 . S
C133 H156 0.930 . S
C134 C133 1.392 . S
C134 C135 1.398 1_655 S
C134 H157 0.929 . S
C135 C134 1.398 1_455 S
C135 C136 1.352 . S
C136 C135 1.352 . S
C136 C137 1.384 1_455 S
C136 H158 0.930 . S
C137 C132 1.407 . S
C137 C136 1.384 1_655 S
C137 H159 0.929 . S
C138 O148 1.241 . S
C138 O149 1.273 . S
C139 O150 1.251 . S
C139 O151 1.268 . S
O140 Nd120 2.500 . S
O140 C122 1.258 . S
O141 Nd120 2.492 . S
O141 C122 1.239 . S
O142 Nd120 2.487 . S
O142 C129 1.241 . S
O143 Nd120 2.682 . S
O143 Nd121 2.414 . S
O143 C129 1.273 . S
O144 Nd120 2.410 . S
O144 C130 1.251 . S
O145 Nd121 2.424 . S
O145 C130 1.268 . S
O146 Nd121 2.500 . S
O146 C131 1.258 . S
O147 Nd121 2.492 . S
O147 C131 1.239 . S
O148 Nd121 2.487 . S
O148 C138 1.241 . S
O149 Nd120 2.414 . S
O149 Nd121 2.682 . S
O149 C138 1.273 . S
O150 Nd121 2.410 . S
O150 C139 1.251 . S
O151 Nd120 2.424 . S
O151 C139 1.268 . S
H152 C124 0.930 . S
H153 C125 0.929 . S
H154 C127 0.930 . S
H155 C128 0.929 . S
H156 C133 0.930 . S
H157 C134 0.929 . S
H158 C136 0.930 . S
H159 C137 0.929 . S
Nd160 C162 2.836 . S
Nd160 O180 2.500 . S
Nd160 O181 2.492 . S
Nd160 O182 2.487 . S
Nd160 O183 2.682 . S
Nd160 O184 2.410 . S
Nd160 O189 2.414 . S
Nd160 O191 2.424 . S
Nd161 C171 2.836 . S
Nd161 O183 2.414 . S
Nd161 O185 2.424 . S
Nd161 O186 2.500 . S
Nd161 O187 2.492 . S
Nd161 O188 2.487 . S
Nd161 O189 2.682 . S
Nd161 O190 2.410 . S
C162 Nd160 2.836 . S
C162 C163 1.498 . S
C162 O180 1.258 . S
C162 O181 1.239 . S
C163 C162 1.498 . S
C163 C164 1.366 . S
C163 C168 1.407 . S
C164 C163 1.366 . S
C164 C165 1.392 . S
C164 H192 0.930 . S
C165 C164 1.392 . S
C165 C166 1.398 . S
C165 H193 0.929 . S
C166 C165 1.398 . S
C166 C167 1.352 . S
C167 C166 1.352 . S
C167 C168 1.384 . S
C167 H194 0.930 . S
C168 C163 1.407 . S
C168 C167 1.384 . S
C168 H195 0.929 . S
C169 O182 1.241 . S
C169 O183 1.273 . S
C170 O184 1.251 . S
C170 O185 1.268 . S
C171 Nd161 2.836 . S
C171 C172 1.498 . S
C171 O186 1.258 . S
C171 O187 1.239 . S
C172 C171 1.498 . S
C172 C173 1.366 . S
C172 C177 1.407 . S
C173 C172 1.366 . S
C173 C174 1.392 . S
C173 H196 0.930 . S
C174 C173 1.392 . S
C174 C175 1.398 1_565 S
C174 H197 0.929 . S
C175 C174 1.398 1_545 S
C175 C176 1.352 . S
C176 C175 1.352 . S
C176 C177 1.384 1_545 S
C176 H198 0.930 . S
C177 C172 1.407 . S
C177 C176 1.384 1_565 S
C177 H199 0.929 . S
C178 O188 1.241 . S
C178 O189 1.273 . S
C179 O190 1.251 . S
C179 O191 1.268 . S
O180 Nd160 2.500 . S
O180 C162 1.258 . S
O181 Nd160 2.492 . S
O181 C162 1.239 . S
O182 Nd160 2.487 . S
O182 C169 1.241 . S
O183 Nd160 2.682 . S
O183 Nd161 2.414 . S
O183 C169 1.273 . S
O184 Nd160 2.410 . S
O184 C170 1.251 . S
O185 Nd161 2.424 . S
O185 C170 1.268 . S
O186 Nd161 2.500 . S
O186 C171 1.258 . S
O187 Nd161 2.492 . S
O187 C171 1.239 . S
O188 Nd161 2.487 . S
O188 C178 1.241 . S
O189 Nd160 2.414 . S
O189 Nd161 2.682 . S
O189 C178 1.273 . S
O190 Nd161 2.410 . S
O190 C179 1.251 . S
O191 Nd160 2.424 . S
O191 C179 1.268 . S
H192 C164 0.930 . S
H193 C165 0.929 . S
H194 C167 0.930 . S
H195 C168 0.929 . S
H196 C173 0.930 . S
H197 C174 0.929 . S
H198 C176 0.930 . S
H199 C177 0.929 . S
Nd200 C202 2.836 . S
Nd200 O220 2.500 . S
Nd200 O221 2.492 . S
Nd200 O222 2.487 . S
Nd200 O223 2.682 . S
Nd200 O224 2.410 . S
Nd200 O229 2.414 . S
Nd200 O231 2.424 . S
Nd201 C211 2.836 . S
Nd201 O223 2.414 . S
Nd201 O225 2.424 . S
Nd201 O226 2.500 . S
Nd201 O227 2.492 . S
Nd201 O228 2.487 . S
Nd201 O229 2.682 . S
Nd201 O230 2.410 . S
C202 Nd200 2.836 . S
C202 C203 1.498 . S
C202 O220 1.258 . S
C202 O221 1.239 . S
C203 C202 1.498 . S
C203 C204 1.366 . S
C203 C208 1.407 . S
C204 C203 1.366 . S
C204 C205 1.392 . S
C204 H232 0.930 . S
C205 C204 1.392 . S
C205 C206 1.398 . S
C205 H233 0.929 . S
C206 C205 1.398 . S
C206 C207 1.352 . S
C207 C206 1.352 . S
C207 C208 1.384 . S
C207 H234 0.930 . S
C208 C203 1.407 . S
C208 C207 1.384 . S
C208 H235 0.929 . S
C209 O222 1.241 . S
C209 O223 1.273 . S
C210 O224 1.251 . S
C210 O225 1.268 . S
C211 Nd201 2.836 . S
C211 C212 1.498 . S
C211 O226 1.258 . S
C211 O227 1.239 . S
C212 C211 1.498 . S
C212 C213 1.366 . S
C212 C217 1.407 . S
C213 C212 1.366 . S
C213 C214 1.392 . S
C213 H236 0.930 . S
C214 C213 1.392 . S
C214 C215 1.398 . S
C214 H237 0.929 . S
C215 C214 1.398 . S
C215 C216 1.352 . S
C216 C215 1.352 . S
C216 C217 1.384 . S
C216 H238 0.930 . S
C217 C212 1.407 . S
C217 C216 1.384 . S
C217 H239 0.929 . S
C218 O228 1.241 . S
C218 O229 1.273 . S
C219 O230 1.251 . S
C219 O231 1.268 . S
O220 Nd200 2.500 . S
O220 C202 1.258 . S
O221 Nd200 2.492 . S
O221 C202 1.239 . S
O222 Nd200 2.487 . S
O222 C209 1.241 . S
O223 Nd200 2.682 . S
O223 Nd201 2.414 . S
O223 C209 1.273 . S
O224 Nd200 2.410 . S
O224 C210 1.251 . S
O225 Nd201 2.424 . S
O225 C210 1.268 . S
O226 Nd201 2.500 . S
O226 C211 1.258 . S
O227 Nd201 2.492 . S
O227 C211 1.239 . S
O228 Nd201 2.487 . S
O228 C218 1.241 . S
O229 Nd200 2.414 . S
O229 Nd201 2.682 . S
O229 C218 1.273 . S
O230 Nd201 2.410 . S
O230 C219 1.251 . S
O231 Nd200 2.424 . S
O231 C219 1.268 . S
H232 C204 0.930 . S
H233 C205 0.929 . S
H234 C207 0.930 . S
H235 C208 0.929 . S
H236 C213 0.930 . S
H237 C214 0.929 . S
H238 C216 0.930 . S
H239 C217 0.929 . S
Nd240 C242 2.836 . S
Nd240 O260 2.500 . S
Nd240 O261 2.492 . S
Nd240 O262 2.487 . S
Nd240 O263 2.682 . S
Nd240 O264 2.410 . S
Nd240 O269 2.414 . S
Nd240 O271 2.424 . S
Nd241 C251 2.836 . S
Nd241 O263 2.414 . S
Nd241 O265 2.424 . S
Nd241 O266 2.500 . S
Nd241 O267 2.492 . S
Nd241 O268 2.487 . S
Nd241 O269 2.682 . S
Nd241 O270 2.410 . S
C242 Nd240 2.836 . S
C242 C243 1.498 . S
C242 O260 1.258 . S
C242 O261 1.239 . S
C243 C242 1.498 . S
C243 C244 1.366 . S
C243 C248 1.407 . S
C244 C243 1.366 . S
C244 C245 1.392 . S
C244 H272 0.930 . S
C245 C244 1.392 . S
C245 C246 1.398 . S
C245 H273 0.929 . S
C246 C245 1.398 . S
C246 C247 1.352 . S
C247 C246 1.352 . S
C247 C248 1.384 . S
C247 H274 0.930 . S
C248 C243 1.407 . S
C248 C247 1.384 . S
C248 H275 0.929 . S
C249 O262 1.241 . S
C249 O263 1.273 . S
C250 O264 1.251 . S
C250 O265 1.268 . S
C251 Nd241 2.836 . S
C251 C252 1.498 . S
C251 O266 1.258 . S
C251 O267 1.239 . S
C252 C251 1.498 . S
C252 C253 1.366 . S
C252 C257 1.407 . S
C253 C252 1.366 . S
C253 C254 1.392 . S
C253 H276 0.930 . S
C254 C253 1.392 . S
C254 C255 1.398 1_565 S
C254 H277 0.929 . S
C255 C254 1.398 1_545 S
C255 C256 1.352 . S
C256 C255 1.352 . S
C256 C257 1.384 1_545 S
C256 H278 0.930 . S
C257 C252 1.407 . S
C257 C256 1.384 1_565 S
C257 H279 0.929 . S
C258 O268 1.241 . S
C258 O269 1.273 . S
C259 O270 1.251 . S
C259 O271 1.268 . S
O260 Nd240 2.500 . S
O260 C242 1.258 . S
O261 Nd240 2.492 . S
O261 C242 1.239 . S
O262 Nd240 2.487 . S
O262 C249 1.241 . S
O263 Nd240 2.682 . S
O263 Nd241 2.414 . S
O263 C249 1.273 . S
O264 Nd240 2.410 . S
O264 C250 1.251 . S
O265 Nd241 2.424 . S
O265 C250 1.268 . S
O266 Nd241 2.500 . S
O266 C251 1.258 . S
O267 Nd241 2.492 . S
O267 C251 1.239 . S
O268 Nd241 2.487 . S
O268 C258 1.241 . S
O269 Nd240 2.414 . S
O269 Nd241 2.682 . S
O269 C258 1.273 . S
O270 Nd241 2.410 . S
O270 C259 1.251 . S
O271 Nd240 2.424 . S
O271 C259 1.268 . S
H272 C244 0.930 . S
H273 C245 0.929 . S
H274 C247 0.930 . S
H275 C248 0.929 . S
H276 C253 0.930 . S
H277 C254 0.929 . S
H278 C256 0.930 . S
H279 C257 0.929 . S
Nd280 C282 2.836 . S
Nd280 O300 2.500 . S
Nd280 O301 2.492 . S
Nd280 O302 2.487 . S
Nd280 O303 2.682 . S
Nd280 O304 2.410 . S
Nd280 O309 2.414 . S
Nd280 O311 2.424 . S
Nd281 C291 2.836 . S
Nd281 O303 2.414 . S
Nd281 O305 2.424 . S
Nd281 O306 2.500 . S
Nd281 O307 2.492 . S
Nd281 O308 2.487 . S
Nd281 O309 2.682 . S
Nd281 O310 2.410 . S
C282 Nd280 2.836 . S
C282 C283 1.498 . S
C282 O300 1.258 . S
C282 O301 1.239 . S
C283 C282 1.498 . S
C283 C284 1.366 . S
C283 C288 1.407 . S
C284 C283 1.366 . S
C284 C285 1.392 . S
C284 H312 0.930 . S
C285 C284 1.392 . S
C285 C286 1.398 . S
C285 H313 0.929 . S
C286 C285 1.398 . S
C286 C287 1.352 . S
C287 C286 1.352 . S
C287 C288 1.384 . S
C287 H314 0.930 . S
C288 C283 1.407 . S
C288 C287 1.384 . S
C288 H315 0.929 . S
C289 O302 1.241 . S
C289 O303 1.273 . S
C290 O304 1.251 . S
C290 O305 1.268 . S
C291 Nd281 2.836 . S
C291 C292 1.498 . S
C291 O306 1.258 . S
C291 O307 1.239 . S
C292 C291 1.498 . S
C292 C293 1.366 . S
C292 C297 1.407 . S
C293 C292 1.366 . S
C293 C294 1.392 . S
C293 H316 0.930 . S
C294 C293 1.392 . S
C294 C295 1.398 . S
C294 H317 0.929 . S
C295 C294 1.398 . S
C295 C296 1.352 . S
C296 C295 1.352 . S
C296 C297 1.384 . S
C296 H318 0.930 . S
C297 C292 1.407 . S
C297 C296 1.384 . S
C297 H319 0.929 . S
C298 O308 1.241 . S
C298 O309 1.273 . S
C299 O310 1.251 . S
C299 O311 1.268 . S
O300 Nd280 2.500 . S
O300 C282 1.258 . S
O301 Nd280 2.492 . S
O301 C282 1.239 . S
O302 Nd280 2.487 . S
O302 C289 1.241 . S
O303 Nd280 2.682 . S
O303 Nd281 2.414 . S
O303 C289 1.273 . S
O304 Nd280 2.410 . S
O304 C290 1.251 . S
O305 Nd281 2.424 . S
O305 C290 1.268 . S
O306 Nd281 2.500 . S
O306 C291 1.258 . S
O307 Nd281 2.492 . S
O307 C291 1.239 . S
O308 Nd281 2.487 . S
O308 C298 1.241 . S
O309 Nd280 2.414 . S
O309 Nd281 2.682 . S
O309 C298 1.273 . S
O310 Nd281 2.410 . S
O310 C299 1.251 . S
O311 Nd280 2.424 . S
O311 C299 1.268 . S
H312 C284 0.930 . S
H313 C285 0.929 . S
H314 C287 0.930 . S
H315 C288 0.929 . S
H316 C293 0.930 . S
H317 C294 0.929 . S
H318 C296 0.930 . S
H319 C297 0.929 . S
Nd320 C322 2.836 . S
Nd320 O340 2.500 . S
Nd320 O341 2.492 . S
Nd320 O342 2.487 . S
Nd320 O343 2.682 . S
Nd320 O344 2.410 . S
Nd320 O349 2.414 . S
Nd320 O351 2.424 . S
Nd321 C331 2.836 . S
Nd321 O343 2.414 . S
Nd321 O345 2.424 . S
Nd321 O346 2.500 . S
Nd321 O347 2.492 . S
Nd321 O348 2.487 . S
Nd321 O349 2.682 . S
Nd321 O350 2.410 . S
C322 Nd320 2.836 . S
C322 C323 1.498 . S
C322 O340 1.258 . S
C322 O341 1.239 . S
C323 C322 1.498 . S
C323 C324 1.366 . S
C323 C328 1.407 . S
C324 C323 1.366 . S
C324 C325 1.392 . S
C324 H352 0.930 . S
C325 C324 1.392 . S
C325 C326 1.398 . S
C325 H353 0.929 . S
C326 C325 1.398 . S
C326 C327 1.352 . S
C327 C326 1.352 . S
C327 C328 1.384 . S
C327 H354 0.930 . S
C328 C323 1.407 . S
C328 C327 1.384 . S
C328 H355 0.929 . S
C329 O342 1.241 . S
C329 O343 1.273 . S
C330 O344 1.251 . S
C330 O345 1.268 . S
C331 Nd321 2.836 . S
C331 C332 1.498 . S
C331 O346 1.258 . S
C331 O347 1.239 . S
C332 C331 1.498 . S
C332 C333 1.366 . S
C332 C337 1.407 . S
C333 C332 1.366 . S
C333 C334 1.392 . S
C333 H356 0.930 . S
C334 C333 1.392 . S
C334 C335 1.398 1_455 S
C334 H357 0.929 . S
C335 C334 1.398 1_655 S
C335 C336 1.352 . S
C336 C335 1.352 . S
C336 C337 1.384 1_655 S
C336 H358 0.930 . S
C337 C332 1.407 . S
C337 C336 1.384 1_455 S
C337 H359 0.929 . S
C338 O348 1.241 . S
C338 O349 1.273 . S
C339 O350 1.251 . S
C339 O351 1.268 . S
O340 Nd320 2.500 . S
O340 C322 1.258 . S
O341 Nd320 2.492 . S
O341 C322 1.239 . S
O342 Nd320 2.487 . S
O342 C329 1.241 . S
O343 Nd320 2.682 . S
O343 Nd321 2.414 . S
O343 C329 1.273 . S
O344 Nd320 2.410 . S
O344 C330 1.251 . S
O345 Nd321 2.424 . S
O345 C330 1.268 . S
O346 Nd321 2.500 . S
O346 C331 1.258 . S
O347 Nd321 2.492 . S
O347 C331 1.239 . S
O348 Nd321 2.487 . S
O348 C338 1.241 . S
O349 Nd320 2.414 . S
O349 Nd321 2.682 . S
O349 C338 1.273 . S
O350 Nd321 2.410 . S
O350 C339 1.251 . S
O351 Nd320 2.424 . S
O351 C339 1.268 . S
H352 C324 0.930 . S
H353 C325 0.929 . S
H354 C327 0.930 . S
H355 C328 0.929 . S
H356 C333 0.930 . S
H357 C334 0.929 . S
H358 C336 0.930 . S
H359 C337 0.929 . S
Nd360 C362 2.836 . S
Nd360 O380 2.500 . S
Nd360 O381 2.492 . S
Nd360 O382 2.487 . S
Nd360 O383 2.682 . S
Nd360 O384 2.410 . S
Nd360 O389 2.414 . S
Nd360 O391 2.424 . S
Nd361 C371 2.836 . S
Nd361 O383 2.414 . S
Nd361 O385 2.424 . S
Nd361 O386 2.500 . S
Nd361 O387 2.492 . S
Nd361 O388 2.487 . S
Nd361 O389 2.682 . S
Nd361 O390 2.410 . S
C362 Nd360 2.836 . S
C362 C363 1.498 . S
C362 O380 1.258 . S
C362 O381 1.239 . S
C363 C362 1.498 . S
C363 C364 1.366 . S
C363 C368 1.407 . S
C364 C363 1.366 . S
C364 C365 1.392 . S
C364 H392 0.930 . S
C365 C364 1.392 . S
C365 C366 1.398 . S
C365 H393 0.929 . S
C366 C365 1.398 . S
C366 C367 1.352 . S
C367 C366 1.352 . S
C367 C368 1.384 . S
C367 H394 0.930 . S
C368 C363 1.407 . S
C368 C367 1.384 . S
C368 H395 0.929 . S
C369 O382 1.241 . S
C369 O383 1.273 . S
C370 O384 1.251 . S
C370 O385 1.268 . S
C371 Nd361 2.836 . S
C371 C372 1.498 . S
C371 O386 1.258 . S
C371 O387 1.239 . S
C372 C371 1.498 . S
C372 C373 1.366 . S
C372 C377 1.407 . S
C373 C372 1.366 . S
C373 C374 1.392 . S
C373 H396 0.930 . S
C374 C373 1.392 . S
C374 C375 1.398 1_545 S
C374 H397 0.929 . S
C375 C374 1.398 1_565 S
C375 C376 1.352 . S
C376 C375 1.352 . S
C376 C377 1.384 1_565 S
C376 H398 0.930 . S
C377 C372 1.407 . S
C377 C376 1.384 1_545 S
C377 H399 0.929 . S
C378 O388 1.241 . S
C378 O389 1.273 . S
C379 O390 1.251 . S
C379 O391 1.268 . S
O380 Nd360 2.500 . S
O380 C362 1.258 . S
O381 Nd360 2.492 . S
O381 C362 1.239 . S
O382 Nd360 2.487 . S
O382 C369 1.241 . S
O383 Nd360 2.682 . S
O383 Nd361 2.414 . S
O383 C369 1.273 . S
O384 Nd360 2.410 . S
O384 C370 1.251 . S
O385 Nd361 2.424 . S
O385 C370 1.268 . S
O386 Nd361 2.500 . S
O386 C371 1.258 . S
O387 Nd361 2.492 . S
O387 C371 1.239 . S
O388 Nd361 2.487 . S
O388 C378 1.241 . S
O389 Nd360 2.414 . S
O389 Nd361 2.682 . S
O389 C378 1.273 . S
O390 Nd361 2.410 . S
O390 C379 1.251 . S
O391 Nd360 2.424 . S
O391 C379 1.268 . S
H392 C364 0.930 . S
H393 C365 0.929 . S
H394 C367 0.930 . S
H395 C368 0.929 . S
H396 C373 0.930 . S
H397 C374 0.929 . S
H398 C376 0.930 . S
H399 C377 0.929 . S
Nd400 C402 2.836 . S
Nd400 O420 2.500 . S
Nd400 O421 2.492 . S
Nd400 O422 2.487 . S
Nd400 O423 2.682 . S
Nd400 O424 2.410 . S
Nd400 O429 2.414 . S
Nd400 O431 2.424 . S
Nd401 C411 2.836 . S
Nd401 O423 2.414 . S
Nd401 O425 2.424 . S
Nd401 O426 2.500 . S
Nd401 O427 2.492 . S
Nd401 O428 2.487 . S
Nd401 O429 2.682 . S
Nd401 O430 2.410 . S
C402 Nd400 2.836 . S
C402 C403 1.498 . S
C402 O420 1.258 . S
C402 O421 1.239 . S
C403 C402 1.498 . S
C403 C404 1.366 . S
C403 C408 1.407 . S
C404 C403 1.366 . S
C404 C405 1.392 . S
C404 H432 0.930 . S
C405 C404 1.392 . S
C405 C406 1.398 . S
C405 H433 0.929 . S
C406 C405 1.398 . S
C406 C407 1.352 . S
C407 C406 1.352 . S
C407 C408 1.384 . S
C407 H434 0.930 . S
C408 C403 1.407 . S
C408 C407 1.384 . S
C408 H435 0.929 . S
C409 O422 1.241 . S
C409 O423 1.273 . S
C410 O424 1.251 . S
C410 O425 1.268 . S
C411 Nd401 2.836 . S
C411 C412 1.498 . S
C411 O426 1.258 . S
C411 O427 1.239 . S
C412 C411 1.498 . S
C412 C413 1.366 . S
C412 C417 1.407 . S
C413 C412 1.366 . S
C413 C414 1.392 . S
C413 H436 0.930 . S
C414 C413 1.392 . S
C414 C415 1.398 . S
C414 H437 0.929 . S
C415 C414 1.398 . S
C415 C416 1.352 . S
C416 C415 1.352 . S
C416 C417 1.384 . S
C416 H438 0.930 . S
C417 C412 1.407 . S
C417 C416 1.384 . S
C417 H439 0.929 . S
C418 O428 1.241 . S
C418 O429 1.273 . S
C419 O430 1.251 . S
C419 O431 1.268 . S
O420 Nd400 2.500 . S
O420 C402 1.258 . S
O421 Nd400 2.492 . S
O421 C402 1.239 . S
O422 Nd400 2.487 . S
O422 C409 1.241 . S
O423 Nd400 2.682 . S
O423 Nd401 2.414 . S
O423 C409 1.273 . S
O424 Nd400 2.410 . S
O424 C410 1.251 . S
O425 Nd401 2.424 . S
O425 C410 1.268 . S
O426 Nd401 2.500 . S
O426 C411 1.258 . S
O427 Nd401 2.492 . S
O427 C411 1.239 . S
O428 Nd401 2.487 . S
O428 C418 1.241 . S
O429 Nd400 2.414 . S
O429 Nd401 2.682 . S
O429 C418 1.273 . S
O430 Nd401 2.410 . S
O430 C419 1.251 . S
O431 Nd400 2.424 . S
O431 C419 1.268 . S
H432 C404 0.930 . S
H433 C405 0.929 . S
H434 C407 0.930 . S
H435 C408 0.929 . S
H436 C413 0.930 . S
H437 C414 0.929 . S
H438 C416 0.930 . S
H439 C417 0.929 . S
Nd440 C442 2.836 . S
Nd440 O460 2.500 . S
Nd440 O461 2.492 . S
Nd440 O462 2.487 . S
Nd440 O463 2.682 . S
Nd440 O464 2.410 . S
Nd440 O469 2.414 . S
Nd440 O471 2.424 . S
Nd441 C451 2.836 . S
Nd441 O463 2.414 . S
Nd441 O465 2.424 . S
Nd441 O466 2.500 . S
Nd441 O467 2.492 . S
Nd441 O468 2.487 . S
Nd441 O469 2.682 . S
Nd441 O470 2.410 . S
C442 Nd440 2.836 . S
C442 C443 1.498 . S
C442 O460 1.258 . S
C442 O461 1.239 . S
C443 C442 1.498 . S
C443 C444 1.366 . S
C443 C448 1.407 . S
C444 C443 1.366 . S
C444 C445 1.392 . S
C444 H472 0.930 . S
C445 C444 1.392 . S
C445 C446 1.398 . S
C445 H473 0.929 . S
C446 C445 1.398 . S
C446 C447 1.352 . S
C447 C446 1.352 . S
C447 C448 1.384 . S
C447 H474 0.930 . S
C448 C443 1.407 . S
C448 C447 1.384 . S
C448 H475 0.929 . S
C449 O462 1.241 . S
C449 O463 1.273 . S
C450 O464 1.251 . S
C450 O465 1.268 . S
C451 Nd441 2.836 . S
C451 C452 1.498 . S
C451 O466 1.258 . S
C451 O467 1.239 . S
C452 C451 1.498 . S
C452 C453 1.366 . S
C452 C457 1.407 . S
C453 C452 1.366 . S
C453 C454 1.392 . S
C453 H476 0.930 . S
C454 C453 1.392 . S
C454 C455 1.398 1_655 S
C454 H477 0.929 . S
C455 C454 1.398 1_455 S
C455 C456 1.352 . S
C456 C455 1.352 . S
C456 C457 1.384 1_455 S
C456 H478 0.930 . S
C457 C452 1.407 . S
C457 C456 1.384 1_655 S
C457 H479 0.929 . S
C458 O468 1.241 . S
C458 O469 1.273 . S
C459 O470 1.251 . S
C459 O471 1.268 . S
O460 Nd440 2.500 . S
O460 C442 1.258 . S
O461 Nd440 2.492 . S
O461 C442 1.239 . S
O462 Nd440 2.487 . S
O462 C449 1.241 . S
O463 Nd440 2.682 . S
O463 Nd441 2.414 . S
O463 C449 1.273 . S
O464 Nd440 2.410 . S
O464 C450 1.251 . S
O465 Nd441 2.424 . S
O465 C450 1.268 . S
O466 Nd441 2.500 . S
O466 C451 1.258 . S
O467 Nd441 2.492 . S
O467 C451 1.239 . S
O468 Nd441 2.487 . S
O468 C458 1.241 . S
O469 Nd440 2.414 . S
O469 Nd441 2.682 . S
O469 C458 1.273 . S
O470 Nd441 2.410 . S
O470 C459 1.251 . S
O471 Nd440 2.424 . S
O471 C459 1.268 . S
H472 C444 0.930 . S
H473 C445 0.929 . S
H474 C447 0.930 . S
H475 C448 0.929 . S
H476 C453 0.930 . S
H477 C454 0.929 . S
H478 C456 0.930 . S
H479 C457 0.929 . S
H480 C486 0.930 . S
H481 C490 0.930 . S
H482 C495 0.929 . S
H483 C493 0.929 . S
H484 C488 0.929 . S
H485 C494 0.929 . S
C486 H480 0.930 . S
C486 C487 1.367 . S
C486 C494 1.378 . S
C487 C486 1.367 . S
C487 C495 1.433 . S
C488 H484 0.929 . S
C488 C490 1.378 . S
C488 C492 1.350 . S
C489 C492 1.463 . S
C489 C494 1.350 . S
C489 N497 1.427 . S
C490 H481 0.930 . S
C490 C488 1.378 . S
C490 C491 1.367 . S
C491 C490 1.367 . S
C491 C493 1.433 . S
C492 C488 1.350 . S
C492 C489 1.463 . S
C492 N496 1.427 . S
C493 H483 0.929 . S
C493 C491 1.433 . S
C493 N496 1.384 . S
C494 H485 0.929 . S
C494 C486 1.378 . S
C494 C489 1.350 . S
C495 H482 0.929 . S
C495 C487 1.433 . S
C495 N497 1.384 . S
N496 C492 1.427 . S
N496 C493 1.384 . S
N497 C489 1.427 . S
N497 C495 1.384 . S
H498 C504 0.930 . S
H499 C508 0.930 . S
H500 C513 0.929 . S
H501 C511 0.929 . S
H502 C506 0.929 . S
H503 C512 0.929 . S
C504 H498 0.930 . S
C504 C505 1.367 . S
C504 C512 1.378 . S
C505 C504 1.367 . S
C505 C513 1.433 . S
C506 H502 0.929 . S
C506 C508 1.378 1_455 S
C506 C510 1.350 . S
C507 C510 1.463 . S
C507 C512 1.350 . S
C507 N515 1.427 . S
C508 H499 0.930 . S
C508 C506 1.378 1_655 S
C508 C509 1.367 . S
C509 C508 1.367 . S
C509 C511 1.433 . S
C510 C506 1.350 . S
C510 C507 1.463 . S
C510 N514 1.427 1_455 S
C511 H501 0.929 . S
C511 C509 1.433 . S
C511 N514 1.384 . S
C512 H503 0.929 . S
C512 C504 1.378 . S
C512 C507 1.350 . S
C513 H500 0.929 . S
C513 C505 1.433 . S
C513 N515 1.384 . S
N514 C510 1.427 1_655 S
N514 C511 1.384 . S
N515 C507 1.427 . S
N515 C513 1.384 . S
H516 C522 0.930 . S
H517 C526 0.930 . S
H518 C531 0.929 . S
H519 C529 0.929 . S
H520 C524 0.929 . S
H521 C530 0.929 . S
C522 H516 0.930 . S
C522 C523 1.367 . S
C522 C530 1.378 1_565 S
C523 C522 1.367 . S
C523 C531 1.433 . S
C524 H520 0.929 . S
C524 C526 1.378 . S
C524 C528 1.350 . S
C525 C528 1.463 . S
C525 C530 1.350 . S
C525 N533 1.427 1_545 S
C526 H517 0.930 . S
C526 C524 1.378 . S
C526 C527 1.367 . S
C527 C526 1.367 . S
C527 C529 1.433 . S
C528 C524 1.350 . S
C528 C525 1.463 . S
C528 N532 1.427 . S
C529 H519 0.929 . S
C529 C527 1.433 . S
C529 N532 1.384 . S
C530 H521 0.929 . S
C530 C522 1.378 1_545 S
C530 C525 1.350 . S
C531 H518 0.929 . S
C531 C523 1.433 . S
C531 N533 1.384 . S
N532 C528 1.427 . S
N532 C529 1.384 . S
N533 C525 1.427 1_565 S
N533 C531 1.384 . S
H534 C540 0.930 . S
H535 C544 0.930 . S
H536 C549 0.929 . S
H537 C547 0.929 . S
H538 C542 0.929 . S
H539 C548 0.929 . S
C540 H534 0.930 . S
C540 C541 1.367 . S
C540 C548 1.378 . S
C541 C540 1.367 . S
C541 C549 1.433 . S
C542 H538 0.929 . S
C542 C544 1.378 . S
C542 C546 1.350 . S
C543 C546 1.463 . S
C543 C548 1.350 . S
C543 N551 1.427 . S
C544 H535 0.930 . S
C544 C542 1.378 . S
C544 C545 1.367 . S
C545 C544 1.367 . S
C545 C547 1.433 . S
C546 C542 1.350 . S
C546 C543 1.463 . S
C546 N550 1.427 . S
C547 H537 0.929 . S
C547 C545 1.433 . S
C547 N550 1.384 . S
C548 H539 0.929 . S
C548 C540 1.378 . S
C548 C543 1.350 . S
C549 H536 0.929 . S
C549 C541 1.433 . S
C549 N551 1.384 . S
N550 C546 1.427 . S
N550 C547 1.384 . S
N551 C543 1.427 . S
N551 C549 1.384 . S
H552 C558 0.930 . S
H553 C562 0.930 . S
H554 C567 0.929 . S
H555 C565 0.929 . S
H556 C560 0.929 . S
H557 C566 0.929 . S
C558 H552 0.930 . S
C558 C559 1.367 . S
C558 C566 1.378 . S
C559 C558 1.367 . S
C559 C567 1.433 . S
C560 H556 0.929 . S
C560 C562 1.378 . S
C560 C564 1.350 . S
C561 C564 1.463 . S
C561 C566 1.350 1_655 S
C561 N569 1.427 . S
C562 H553 0.930 . S
C562 C560 1.378 . S
C562 C563 1.367 . S
C563 C562 1.367 . S
C563 C565 1.433 . S
C564 C560 1.350 . S
C564 C561 1.463 . S
C564 N568 1.427 . S
C565 H555 0.929 . S
C565 C563 1.433 . S
C565 N568 1.384 . S
C566 H557 0.929 . S
C566 C558 1.378 . S
C566 C561 1.350 1_455 S
C567 H554 0.929 . S
C567 C559 1.433 . S
C567 N569 1.384 1_455 S
N568 C564 1.427 . S
N568 C565 1.384 . S
N569 C561 1.427 . S
N569 C567 1.384 1_655 S
H570 C576 0.930 . S
H571 C580 0.930 . S
H572 C585 0.929 . S
H573 C583 0.929 . S
H574 C578 0.929 . S
H575 C584 0.929 . S
C576 H570 0.930 . S
C576 C577 1.367 . S
C576 C584 1.378 . S
C577 C576 1.367 . S
C577 C585 1.433 . S
C578 H574 0.929 . S
C578 C580 1.378 . S
C578 C582 1.350 1_545 S
C579 C582 1.463 . S
C579 C584 1.350 . S
C579 N587 1.427 . S
C580 H571 0.930 . S
C580 C578 1.378 . S
C580 C581 1.367 . S
C581 C580 1.367 . S
C581 C583 1.433 . S
C582 C578 1.350 1_565 S
C582 C579 1.463 . S
C582 N586 1.427 . S
C583 H573 0.929 . S
C583 C581 1.433 . S
C583 N586 1.384 1_545 S
C584 H575 0.929 . S
C584 C576 1.378 . S
C584 C579 1.350 . S
C585 H572 0.929 . S
C585 C577 1.433 . S
C585 N587 1.384 . S
N586 C582 1.427 . S
N586 C583 1.384 1_565 S
N587 C579 1.427 . S
N587 C585 1.384 . S
H588 C594 0.930 . S
H589 C598 0.930 . S
H590 C603 0.929 . S
H591 C601 0.929 . S
H592 C596 0.929 . S
H593 C602 0.929 . S
C594 H588 0.930 . S
C594 C595 1.367 . S
C594 C602 1.378 . S
C595 C594 1.367 . S
C595 C603 1.433 . S
C596 H592 0.929 . S
C596 C598 1.378 . S
C596 C600 1.350 . S
C597 C600 1.463 . S
C597 C602 1.350 . S
C597 N605 1.427 . S
C598 H589 0.930 . S
C598 C596 1.378 . S
C598 C599 1.367 . S
C599 C598 1.367 . S
C599 C601 1.433 . S
C600 C596 1.350 . S
C600 C597 1.463 . S
C600 N604 1.427 . S
C601 H591 0.929 . S
C601 C599 1.433 . S
C601 N604 1.384 . S
C602 H593 0.929 . S
C602 C594 1.378 . S
C602 C597 1.350 . S
C603 H590 0.929 . S
C603 C595 1.433 . S
C603 N605 1.384 . S
N604 C600 1.427 . S
N604 C601 1.384 . S
N605 C597 1.427 . S
N605 C603 1.384 . S
H606 C612 0.930 . S
H607 C616 0.930 . S
H608 C621 0.929 . S
H609 C619 0.929 . S
H610 C614 0.929 . S
H611 C620 0.929 1_455 S
C612 H606 0.930 . S
C612 C613 1.367 . S
C612 C620 1.378 . S
C613 C612 1.367 . S
C613 C621 1.433 . S
C614 H610 0.929 . S
C614 C616 1.378 . S
C614 C618 1.350 . S
C615 C618 1.463 . S
C615 C620 1.350 1_455 S
C615 N623 1.427 1_455 S
C616 H607 0.930 . S
C616 C614 1.378 . S
C616 C617 1.367 . S
C617 C616 1.367 . S
C617 C619 1.433 . S
C618 C614 1.350 . S
C618 C615 1.463 . S
C618 N622 1.427 . S
C619 H609 0.929 . S
C619 C617 1.433 . S
C619 N622 1.384 . S
C620 H611 0.929 1_655 S
C620 C612 1.378 . S
C620 C615 1.350 1_655 S
C621 H608 0.929 . S
C621 C613 1.433 . S
C621 N623 1.384 . S
N622 C618 1.427 . S
N622 C619 1.384 . S
N623 C615 1.427 1_655 S
N623 C621 1.384 . S
H624 C630 0.930 . S
H625 C634 0.930 . S
H626 C639 0.929 . S
H627 C637 0.929 . S
H628 C632 0.929 . S
H629 C638 0.929 1_565 S
C630 H624 0.930 . S
C630 C631 1.367 . S
C630 C638 1.378 . S
C631 C630 1.367 . S
C631 C639 1.433 . S
C632 H628 0.929 . S
C632 C634 1.378 1_545 S
C632 C636 1.350 . S
C633 C636 1.463 . S
C633 C638 1.350 . S
C633 N641 1.427 . S
C634 H625 0.930 . S
C634 C632 1.378 1_565 S
C634 C635 1.367 . S
C635 C634 1.367 . S
C635 C637 1.433 . S
C636 C632 1.350 . S
C636 C633 1.463 . S
C636 N640 1.427 1_545 S
C637 H627 0.929 . S
C637 C635 1.433 . S
C637 N640 1.384 . S
C638 H629 0.929 1_545 S
C638 C630 1.378 . S
C638 C633 1.350 . S
C639 H626 0.929 . S
C639 C631 1.433 . S
C639 N641 1.384 . S
N640 C636 1.427 1_565 S
N640 C637 1.384 . S
N641 C633 1.427 . S
N641 C639 1.384 . S
H642 C648 0.930 . S
H643 C652 0.930 . S
H644 C657 0.929 . S
H645 C655 0.929 . S
H646 C650 0.929 . S
H647 C656 0.929 . S
C648 H642 0.930 . S
C648 C649 1.367 . S
C648 C656 1.378 . S
C649 C648 1.367 . S
C649 C657 1.433 . S
C650 H646 0.929 . S
C650 C652 1.378 . S
C650 C654 1.350 . S
C651 C654 1.463 . S
C651 C656 1.350 . S
C651 N659 1.427 . S
C652 H643 0.930 . S
C652 C650 1.378 . S
C652 C653 1.367 . S
C653 C652 1.367 . S
C653 C655 1.433 . S
C654 C650 1.350 . S
C654 C651 1.463 . S
C654 N658 1.427 . S
C655 H645 0.929 . S
C655 C653 1.433 . S
C655 N658 1.384 . S
C656 H647 0.929 . S
C656 C648 1.378 . S
C656 C651 1.350 . S
C657 H644 0.929 . S
C657 C649 1.433 . S
C657 N659 1.384 . S
N658 C654 1.427 . S
N658 C655 1.384 . S
N659 C651 1.427 . S
N659 C657 1.384 . S
H660 C666 0.930 . S
H661 C670 0.930 . S
H662 C675 0.929 . S
H663 C673 0.929 . S
H664 C668 0.929 . S
H665 C674 0.929 . S
C666 H660 0.930 . S
C666 C667 1.367 . S
C666 C674 1.378 1_455 S
C667 C666 1.367 . S
C667 C675 1.433 . S
C668 H664 0.929 . S
C668 C670 1.378 . S
C668 C672 1.350 . S
C669 C672 1.463 . S
C669 C674 1.350 . S
C669 N677 1.427 1_655 S
C670 H661 0.930 . S
C670 C668 1.378 . S
C670 C671 1.367 . S
C671 C670 1.367 . S
C671 C673 1.433 . S
C672 C668 1.350 . S
C672 C669 1.463 . S
C672 N676 1.427 . S
C673 H663 0.929 . S
C673 C671 1.433 . S
C673 N676 1.384 . S
C674 H665 0.929 . S
C674 C666 1.378 1_655 S
C674 C669 1.350 . S
C675 H662 0.929 . S
C675 C667 1.433 . S
C675 N677 1.384 . S
N676 C672 1.427 . S
N676 C673 1.384 . S
N677 C669 1.427 1_455 S
N677 C675 1.384 . S
H678 C684 0.930 . S
H679 C688 0.930 . S
H680 C693 0.929 . S
H681 C691 0.929 . S
H682 C686 0.929 . S
H683 C692 0.929 1_545 S
C684 H678 0.930 . S
C684 C685 1.367 . S
C684 C692 1.378 . S
C685 C684 1.367 . S
C685 C693 1.433 . S
C686 H682 0.929 . S
C686 C688 1.378 1_565 S
C686 C690 1.350 . S
C687 C690 1.463 . S
C687 C692 1.350 . S
C687 N695 1.427 . S
C688 H679 0.930 . S
C688 C686 1.378 1_545 S
C688 C689 1.367 . S
C689 C688 1.367 . S
C689 C691 1.433 . S
C690 C686 1.350 . S
C690 C687 1.463 . S
C690 N694 1.427 1_565 S
C691 H681 0.929 . S
C691 C689 1.433 . S
C691 N694 1.384 . S
C692 H683 0.929 1_565 S
C692 C684 1.378 . S
C692 C687 1.350 . S
C693 H680 0.929 . S
C693 C685 1.433 . S
C693 N695 1.384 . S
N694 C690 1.427 1_545 S
N694 C691 1.384 . S
N695 C687 1.427 . S
N695 C693 1.384 . S
H696 C702 0.930 . S
H697 C706 0.930 . S
H698 C711 0.929 . S
H699 C709 0.929 . S
H700 C704 0.929 . S
H701 C710 0.929 . S
C702 H696 0.930 . S
C702 C703 1.367 . S
C702 C710 1.378 . S
C703 C702 1.367 . S
C703 C711 1.433 . S
C704 H700 0.929 . S
C704 C706 1.378 . S
C704 C708 1.350 . S
C705 C708 1.463 . S
C705 C710 1.350 . S
C705 N713 1.427 . S
C706 H697 0.930 . S
C706 C704 1.378 . S
C706 C707 1.367 . S
C707 C706 1.367 . S
C707 C709 1.433 . S
C708 C704 1.350 . S
C708 C705 1.463 . S
C708 N712 1.427 . S
C709 H699 0.929 . S
C709 C707 1.433 . S
C709 N712 1.384 . S
C710 H701 0.929 . S
C710 C702 1.378 . S
C710 C705 1.350 . S
C711 H698 0.929 . S
C711 C703 1.433 . S
C711 N713 1.384 . S
N712 C708 1.427 . S
N712 C709 1.384 . S
N713 C705 1.427 . S
N713 C711 1.384 . S
H714 C720 0.930 . S
H715 C724 0.930 . S
H716 C729 0.929 . S
H717 C727 0.929 . S
H718 C722 0.929 . S
H719 C728 0.929 . S
C720 H714 0.930 . S
C720 C721 1.367 . S
C720 C728 1.378 . S
C721 C720 1.367 . S
C721 C729 1.433 . S
C722 H718 0.929 . S
C722 C724 1.378 . S
C722 C726 1.350 . S
C723 C726 1.463 . S
C723 C728 1.350 . S
C723 N731 1.427 . S
C724 H715 0.930 . S
C724 C722 1.378 . S
C724 C725 1.367 . S
C725 C724 1.367 . S
C725 C727 1.433 . S
C726 C722 1.350 . S
C726 C723 1.463 . S
C726 N730 1.427 . S
C727 H717 0.929 . S
C727 C725 1.433 . S
C727 N730 1.384 . S
C728 H719 0.929 . S
C728 C720 1.378 . S
C728 C723 1.350 . S
C729 H716 0.929 . S
C729 C721 1.433 . S
C729 N731 1.384 . S
N730 C726 1.427 . S
N730 C727 1.384 . S
N731 C723 1.427 . S
N731 C729 1.384 . S
H732 C738 0.930 . S
H733 C742 0.930 . S
H734 C747 0.929 . S
H735 C745 0.929 . S
H736 C740 0.929 . S
H737 C746 0.929 . S
C738 H732 0.930 . S
C738 C739 1.367 . S
C738 C746 1.378 . S
C739 C738 1.367 . S
C739 C747 1.433 . S
C740 H736 0.929 . S
C740 C742 1.378 . S
C740 C744 1.350 . S
C741 C744 1.463 . S
C741 C746 1.350 . S
C741 N749 1.427 . S
C742 H733 0.930 . S
C742 C740 1.378 . S
C742 C743 1.367 . S
C743 C742 1.367 . S
C743 C745 1.433 . S
C744 C740 1.350 . S
C744 C741 1.463 . S
C744 N748 1.427 . S
C745 H735 0.929 . S
C745 C743 1.433 . S
C745 N748 1.384 . S
C746 H737 0.929 . S
C746 C738 1.378 . S
C746 C741 1.350 . S
C747 H734 0.929 . S
C747 C739 1.433 . S
C747 N749 1.384 . S
N748 C744 1.427 . S
N748 C745 1.384 . S
N749 C741 1.427 . S
N749 C747 1.384 . S
H750 C756 0.930 . S
H751 C760 0.930 . S
H752 C765 0.929 . S
H753 C763 0.929 . S
H754 C758 0.929 . S
H755 C764 0.929 . S
C756 H750 0.930 . S
C756 C757 1.367 . S
C756 C764 1.378 . S
C757 C756 1.367 . S
C757 C765 1.433 . S
C758 H754 0.929 . S
C758 C760 1.378 . S
C758 C762 1.350 . S
C759 C762 1.463 . S
C759 C764 1.350 . S
C759 N767 1.427 . S
C760 H751 0.930 . S
C760 C758 1.378 . S
C760 C761 1.367 . S
C761 C760 1.367 . S
C761 C763 1.433 . S
C762 C758 1.350 . S
C762 C759 1.463 . S
C762 N766 1.427 . S
C763 H753 0.929 . S
C763 C761 1.433 . S
C763 N766 1.384 . S
C764 H755 0.929 . S
C764 C756 1.378 . S
C764 C759 1.350 . S
C765 H752 0.929 . S
C765 C757 1.433 . S
C765 N767 1.384 . S
N766 C762 1.427 . S
N766 C763 1.384 . S
N767 C759 1.427 . S
N767 C765 1.384 . S
H768 C774 0.930 . S
H769 C778 0.930 . S
H770 C783 0.929 . S
H771 C781 0.929 . S
H772 C776 0.929 . S
H773 C782 0.929 . S
C774 H768 0.930 . S
C774 C775 1.367 . S
C774 C782 1.378 . S
C775 C774 1.367 . S
C775 C783 1.433 . S
C776 H772 0.929 . S
C776 C778 1.378 . S
C776 C780 1.350 . S
C777 C780 1.463 . S
C777 C782 1.350 . S
C777 N785 1.427 . S
C778 H769 0.930 . S
C778 C776 1.378 . S
C778 C779 1.367 . S
C779 C778 1.367 . S
C779 C781 1.433 . S
C780 C776 1.350 . S
C780 C777 1.463 . S
C780 N784 1.427 . S
C781 H771 0.929 . S
C781 C779 1.433 . S
C781 N784 1.384 . S
C782 H773 0.929 . S
C782 C774 1.378 . S
C782 C777 1.350 . S
C783 H770 0.929 . S
C783 C775 1.433 . S
C783 N785 1.384 . S
N784 C780 1.427 . S
N784 C781 1.384 . S
N785 C777 1.427 . S
N785 C783 1.384 . S
H786 C792 0.930 . S
H787 C796 0.930 . S
H788 C801 0.929 . S
H789 C799 0.929 . S
H790 C794 0.929 . S
H791 C800 0.929 . S
C792 H786 0.930 . S
C792 C793 1.367 . S
C792 C800 1.378 . S
C793 C792 1.367 . S
C793 C801 1.433 . S
C794 H790 0.929 . S
C794 C796 1.378 . S
C794 C798 1.350 . S
C795 C798 1.463 . S
C795 C800 1.350 . S
C795 N803 1.427 . S
C796 H787 0.930 . S
C796 C794 1.378 . S
C796 C797 1.367 . S
C797 C796 1.367 . S
C797 C799 1.433 . S
C798 C794 1.350 . S
C798 C795 1.463 . S
C798 N802 1.427 . S
C799 H789 0.929 . S
C799 C797 1.433 . S
C799 N802 1.384 . S
C800 H791 0.929 . S
C800 C792 1.378 . S
C800 C795 1.350 . S
C801 H788 0.929 . S
C801 C793 1.433 . S
C801 N803 1.384 . S
N802 C798 1.427 . S
N802 C799 1.384 . S
N803 C795 1.427 . S
N803 C801 1.384 . S
H804 C810 0.930 . S
H805 C814 0.930 . S
H806 C819 0.929 . S
H807 C817 0.929 . S
H808 C812 0.929 . S
H809 C818 0.929 . S
C810 H804 0.930 . S
C810 C811 1.367 . S
C810 C818 1.378 . S
C811 C810 1.367 . S
C811 C819 1.433 . S
C812 H808 0.929 . S
C812 C814 1.378 . S
C812 C816 1.350 . S
C813 C816 1.463 . S
C813 C818 1.350 . S
C813 N821 1.427 . S
C814 H805 0.930 . S
C814 C812 1.378 . S
C814 C815 1.367 . S
C815 C814 1.367 . S
C815 C817 1.433 . S
C816 C812 1.350 . S
C816 C813 1.463 . S
C816 N820 1.427 . S
C817 H807 0.929 . S
C817 C815 1.433 . S
C817 N820 1.384 . S
C818 H809 0.929 . S
C818 C810 1.378 . S
C818 C813 1.350 . S
C819 H806 0.929 . S
C819 C811 1.433 . S
C819 N821 1.384 . S
N820 C816 1.427 . S
N820 C817 1.384 . S
N821 C813 1.427 . S
N821 C819 1.384 . S
H822 C828 0.930 . S
H823 C832 0.930 . S
H824 C837 0.929 . S
H825 C835 0.929 . S
H826 C830 0.929 . S
H827 C836 0.929 . S
C828 H822 0.930 . S
C828 C829 1.367 . S
C828 C836 1.378 . S
C829 C828 1.367 . S
C829 C837 1.433 . S
C830 H826 0.929 . S
C830 C832 1.378 . S
C830 C834 1.350 . S
C831 C834 1.463 . S
C831 C836 1.350 . S
C831 N839 1.427 . S
C832 H823 0.930 . S
C832 C830 1.378 . S
C832 C833 1.367 . S
C833 C832 1.367 . S
C833 C835 1.433 . S
C834 C830 1.350 . S
C834 C831 1.463 . S
C834 N838 1.427 . S
C835 H825 0.929 . S
C835 C833 1.433 . S
C835 N838 1.384 . S
C836 H827 0.929 . S
C836 C828 1.378 . S
C836 C831 1.350 . S
C837 H824 0.929 . S
C837 C829 1.433 . S
C837 N839 1.384 . S
N838 C834 1.427 . S
N838 C835 1.384 . S
N839 C831 1.427 . S
N839 C837 1.384 . S
H840 C846 0.930 . S
H841 C850 0.930 . S
H842 C855 0.929 . S
H843 C853 0.929 . S
H844 C848 0.929 . S
H845 C854 0.929 . S
C846 H840 0.930 . S
C846 C847 1.367 . S
C846 C854 1.378 . S
C847 C846 1.367 . S
C847 C855 1.433 . S
C848 H844 0.929 . S
C848 C850 1.378 . S
C848 C852 1.350 . S
C849 C852 1.463 . S
C849 C854 1.350 . S
C849 N857 1.427 . S
C850 H841 0.930 . S
C850 C848 1.378 . S
C850 C851 1.367 . S
C851 C850 1.367 . S
C851 C853 1.433 . S
C852 C848 1.350 . S
C852 C849 1.463 . S
C852 N856 1.427 . S
C853 H843 0.929 . S
C853 C851 1.433 . S
C853 N856 1.384 . S
C854 H845 0.929 . S
C854 C846 1.378 . S
C854 C849 1.350 . S
C855 H842 0.929 . S
C855 C847 1.433 . S
C855 N857 1.384 . S
N856 C852 1.427 . S
N856 C853 1.384 . S
N857 C849 1.427 . S
N857 C855 1.384 . S
H858 C864 0.930 . S
H859 C868 0.930 . S
H860 C873 0.929 . S
H861 C871 0.929 . S
H862 C866 0.929 . S
H863 C872 0.929 . S
C864 H858 0.930 . S
C864 C865 1.367 . S
C864 C872 1.378 . S
C865 C864 1.367 . S
C865 C873 1.433 . S
C866 H862 0.929 . S
C866 C868 1.378 . S
C866 C870 1.350 . S
C867 C870 1.463 . S
C867 C872 1.350 . S
C867 N875 1.427 . S
C868 H859 0.930 . S
C868 C866 1.378 . S
C868 C869 1.367 . S
C869 C868 1.367 . S
C869 C871 1.433 . S
C870 C866 1.350 . S
C870 C867 1.463 . S
C870 N874 1.427 . S
C871 H861 0.929 . S
C871 C869 1.433 . S
C871 N874 1.384 . S
C872 H863 0.929 . S
C872 C864 1.378 . S
C872 C867 1.350 . S
C873 H860 0.929 . S
C873 C865 1.433 . S
C873 N875 1.384 . S
N874 C870 1.427 . S
N874 C871 1.384 . S
N875 C867 1.427 . S
N875 C873 1.384 . S
H876 C882 0.930 . S
H877 C886 0.930 . S
H878 C891 0.929 . S
H879 C889 0.929 . S
H880 C884 0.929 . S
H881 C890 0.929 . S
C882 H876 0.930 . S
C882 C883 1.367 . S
C882 C890 1.378 . S
C883 C882 1.367 . S
C883 C891 1.433 . S
C884 H880 0.929 . S
C884 C886 1.378 . S
C884 C888 1.350 . S
C885 C888 1.463 . S
C885 C890 1.350 . S
C885 N893 1.427 . S
C886 H877 0.930 . S
C886 C884 1.378 . S
C886 C887 1.367 . S
C887 C886 1.367 . S
C887 C889 1.433 . S
C888 C884 1.350 . S
C888 C885 1.463 . S
C888 N892 1.427 . S
C889 H879 0.929 . S
C889 C887 1.433 . S
C889 N892 1.384 . S
C890 H881 0.929 . S
C890 C882 1.378 . S
C890 C885 1.350 . S
C891 H878 0.929 . S
C891 C883 1.433 . S
C891 N893 1.384 . S
N892 C888 1.427 . S
N892 C889 1.384 . S
N893 C885 1.427 . S
N893 C891 1.384 . S
H894 C900 0.930 . S
H895 C904 0.930 . S
H896 C909 0.929 . S
H897 C907 0.929 . S
H898 C902 0.929 . S
H899 C908 0.929 . S
C900 H894 0.930 . S
C900 C901 1.367 . S
C900 C908 1.378 . S
C901 C900 1.367 . S
C901 C909 1.433 . S
C902 H898 0.929 . S
C902 C904 1.378 . S
C902 C906 1.350 . S
C903 C906 1.463 . S
C903 C908 1.350 . S
C903 N911 1.427 . S
C904 H895 0.930 . S
C904 C902 1.378 . S
C904 C905 1.367 . S
C905 C904 1.367 . S
C905 C907 1.433 . S
C906 C902 1.350 . S
C906 C903 1.463 . S
C906 N910 1.427 . S
C907 H897 0.929 . S
C907 C905 1.433 . S
C907 N910 1.384 . S
C908 H899 0.929 . S
C908 C900 1.378 . S
C908 C903 1.350 . S
C909 H896 0.929 . S
C909 C901 1.433 . S
C909 N911 1.384 . S
N910 C906 1.427 . S
N910 C907 1.384 . S
N911 C903 1.427 . S
N911 C909 1.384 . S
H912 C918 0.930 . S
H913 C922 0.930 . S
H914 C927 0.929 . S
H915 C925 0.929 . S
H916 C920 0.929 . S
H917 C926 0.929 . S
C918 H912 0.930 . S
C918 C919 1.367 . S
C918 C926 1.378 . S
C919 C918 1.367 . S
C919 C927 1.433 . S
C920 H916 0.929 . S
C920 C922 1.378 . S
C920 C924 1.350 . S
C921 C924 1.463 . S
C921 C926 1.350 . S
C921 N929 1.427 . S
C922 H913 0.930 . S
C922 C920 1.378 . S
C922 C923 1.367 . S
C923 C922 1.367 . S
C923 C925 1.433 . S
C924 C920 1.350 . S
C924 C921 1.463 . S
C924 N928 1.427 . S
C925 H915 0.929 . S
C925 C923 1.433 . S
C925 N928 1.384 . S
C926 H917 0.929 . S
C926 C918 1.378 . S
C926 C921 1.350 . S
C927 H914 0.929 . S
C927 C919 1.433 . S
C927 N929 1.384 . S
N928 C924 1.427 . S
N928 C925 1.384 . S
N929 C921 1.427 . S
N929 C927 1.384 . S
H930 C936 0.930 . S
H931 C940 0.930 . S
H932 C945 0.929 . S
H933 C943 0.929 . S
H934 C938 0.929 . S
H935 C944 0.929 . S
C936 H930 0.930 . S
C936 C937 1.367 . S
C936 C944 1.378 . S
C937 C936 1.367 . S
C937 C945 1.433 . S
C938 H934 0.929 . S
C938 C940 1.378 . S
C938 C942 1.350 . S
C939 C942 1.463 . S
C939 C944 1.350 . S
C939 N947 1.427 . S
C940 H931 0.930 . S
C940 C938 1.378 . S
C940 C941 1.367 . S
C941 C940 1.367 . S
C941 C943 1.433 . S
C942 C938 1.350 . S
C942 C939 1.463 . S
C942 N946 1.427 . S
C943 H933 0.929 . S
C943 C941 1.433 . S
C943 N946 1.384 . S
C944 H935 0.929 . S
C944 C936 1.378 . S
C944 C939 1.350 . S
C945 H932 0.929 . S
C945 C937 1.433 . S
C945 N947 1.384 . S
N946 C942 1.427 . S
N946 C943 1.384 . S
N947 C939 1.427 . S
N947 C945 1.384 . S
H948 C954 0.930 . S
H949 C958 0.930 . S
H950 C963 0.929 . S
H951 C961 0.929 . S
H952 C956 0.929 . S
H953 C962 0.929 . S
C954 H948 0.930 . S
C954 C955 1.367 . S
C954 C962 1.378 . S
C955 C954 1.367 . S
C955 C963 1.433 . S
C956 H952 0.929 . S
C956 C958 1.378 . S
C956 C960 1.350 . S
C957 C960 1.463 . S
C957 C962 1.350 . S
C957 N965 1.427 . S
C958 H949 0.930 . S
C958 C956 1.378 . S
C958 C959 1.367 . S
C959 C958 1.367 . S
C959 C961 1.433 . S
C960 C956 1.350 . S
C960 C957 1.463 . S
C960 N964 1.427 . S
C961 H951 0.929 . S
C961 C959 1.433 . S
C961 N964 1.384 . S
C962 H953 0.929 . S
C962 C954 1.378 . S
C962 C957 1.350 . S
C963 H950 0.929 . S
C963 C955 1.433 . S
C963 N965 1.384 . S
N964 C960 1.427 . S
N964 C961 1.384 . S
N965 C957 1.427 . S
N965 C963 1.384 . S
H966 C972 0.930 . S
H967 C976 0.930 . S
H968 C981 0.929 . S
H969 C979 0.929 . S
H970 C974 0.929 . S
H971 C980 0.929 . S
C972 H966 0.930 . S
C972 C973 1.367 . S
C972 C980 1.378 . S
C973 C972 1.367 . S
C973 C981 1.433 . S
C974 H970 0.929 . S
C974 C976 1.378 . S
C974 C978 1.350 . S
C975 C978 1.463 . S
C975 C980 1.350 . S
C975 N983 1.427 . S
C976 H967 0.930 . S
C976 C974 1.378 . S
C976 C977 1.367 . S
C977 C976 1.367 . S
C977 C979 1.433 . S
C978 C974 1.350 . S
C978 C975 1.463 . S
C978 N982 1.427 . S
C979 H969 0.929 . S
C979 C977 1.433 . S
C979 N982 1.384 . S
C980 H971 0.929 . S
C980 C972 1.378 . S
C980 C975 1.350 . S
C981 H968 0.929 . S
C981 C973 1.433 . S
C981 N983 1.384 . S
N982 C978 1.427 . S
N982 C979 1.384 . S
N983 C975 1.427 . S
N983 C981 1.384 . S
H984 C990 0.930 . S
H985 C994 0.930 . S
H986 C999 0.929 . S
H987 C997 0.929 . S
H988 C992 0.929 . S
H989 C998 0.929 . S
C990 H984 0.930 . S
C990 C991 1.367 . S
C990 C998 1.378 . S
C991 C990 1.367 . S
C991 C999 1.433 . S
C992 H988 0.929 . S
C992 C994 1.378 . S
C992 C996 1.350 . S
C993 C996 1.463 . S
C993 C998 1.350 . S
C993 N1001 1.427 . S
C994 H985 0.930 . S
C994 C992 1.378 . S
C994 C995 1.367 . S
C995 C994 1.367 . S
C995 C997 1.433 . S
C996 C992 1.350 . S
C996 C993 1.463 . S
C996 N1000 1.427 . S
C997 H987 0.929 . S
C997 C995 1.433 . S
C997 N1000 1.384 . S
C998 H989 0.929 . S
C998 C990 1.378 . S
C998 C993 1.350 . S
C999 H986 0.929 . S
C999 C991 1.433 . S
C999 N1001 1.384 . S
N1000 C996 1.427 . S
N1000 C997 1.384 . S
N1001 C993 1.427 . S
N1001 C999 1.384 . S
H1002 C1008 0.930 . S
H1003 C1012 0.930 . S
H1004 C1017 0.929 . S
H1005 C1015 0.929 . S
H1006 C1010 0.929 . S
H1007 C1016 0.929 . S
C1008 H1002 0.930 . S
C1008 C1009 1.367 . S
C1008 C1016 1.378 . S
C1009 C1008 1.367 . S
C1009 C1017 1.433 . S
C1010 H1006 0.929 . S
C1010 C1012 1.378 . S
C1010 C1014 1.350 . S
C1011 C1014 1.463 . S
C1011 C1016 1.350 . S
C1011 N1019 1.427 . S
C1012 H1003 0.930 . S
C1012 C1010 1.378 . S
C1012 C1013 1.367 . S
C1013 C1012 1.367 . S
C1013 C1015 1.433 . S
C1014 C1010 1.350 . S
C1014 C1011 1.463 . S
C1014 N1018 1.427 . S
C1015 H1005 0.929 . S
C1015 C1013 1.433 . S
C1015 N1018 1.384 . S
C1016 H1007 0.929 . S
C1016 C1008 1.378 . S
C1016 C1011 1.350 . S
C1017 H1004 0.929 . S
C1017 C1009 1.433 . S
C1017 N1019 1.384 . S
N1018 C1014 1.427 . S
N1018 C1015 1.384 . S
N1019 C1011 1.427 . S
N1019 C1017 1.384 . S
H1020 C1026 0.930 . S
H1021 C1030 0.930 . S
H1022 C1035 0.929 . S
H1023 C1033 0.929 . S
H1024 C1028 0.929 . S
H1025 C1034 0.929 . S
C1026 H1020 0.930 . S
C1026 C1027 1.367 . S
C1026 C1034 1.378 1_556 S
C1027 C1026 1.367 . S
C1027 C1035 1.433 . S
C1028 H1024 0.929 . S
C1028 C1030 1.378 1_556 S
C1028 C1032 1.350 1_556 S
C1029 C1032 1.463 1_556 S
C1029 C1034 1.350 1_556 S
C1029 N1037 1.427 . S
C1030 H1021 0.930 . S
C1030 C1028 1.378 1_554 S
C1030 C1031 1.367 . S
C1031 C1030 1.367 . S
C1031 C1033 1.433 . S
C1032 C1028 1.350 1_554 S
C1032 C1029 1.463 1_554 S
C1032 N1036 1.427 . S
C1033 H1023 0.929 . S
C1033 C1031 1.433 . S
C1033 N1036 1.384 . S
C1034 H1025 0.929 . S
C1034 C1026 1.378 1_554 S
C1034 C1029 1.350 1_554 S
C1035 H1022 0.929 . S
C1035 C1027 1.433 . S
C1035 N1037 1.384 . S
N1036 C1032 1.427 . S
N1036 C1033 1.384 . S
N1037 C1029 1.427 . S
N1037 C1035 1.384 . S
H1038 C1044 0.930 . S
H1039 C1048 0.930 . S
H1040 C1053 0.929 . S
H1041 C1051 0.929 . S
H1042 C1046 0.929 . S
H1043 C1052 0.929 . S
C1044 H1038 0.930 . S
C1044 C1045 1.367 . S
C1044 C1052 1.378 . S
C1045 C1044 1.367 . S
C1045 C1053 1.433 . S
C1046 H1042 0.929 . S
C1046 C1048 1.378 . S
C1046 C1050 1.350 . S
C1047 C1050 1.463 1_455 S
C1047 C1052 1.350 . S
C1047 N1055 1.427 . S
C1048 H1039 0.930 . S
C1048 C1046 1.378 . S
C1048 C1049 1.367 . S
C1049 C1048 1.367 . S
C1049 C1051 1.433 . S
C1050 C1046 1.350 . S
C1050 C1047 1.463 1_655 S
C1050 N1054 1.427 . S
C1051 H1041 0.929 . S
C1051 C1049 1.433 . S
C1051 N1054 1.384 . S
C1052 H1043 0.929 . S
C1052 C1044 1.378 . S
C1052 C1047 1.350 . S
C1053 H1040 0.929 . S
C1053 C1045 1.433 . S
C1053 N1055 1.384 . S
N1054 C1050 1.427 . S
N1054 C1051 1.384 . S
N1055 C1047 1.427 . S
N1055 C1053 1.384 . S
H1056 C1062 0.930 . S
H1057 C1066 0.930 . S
H1058 C1071 0.929 . S
H1059 C1069 0.929 . S
H1060 C1064 0.929 . S
H1061 C1070 0.929 . S
C1062 H1056 0.930 . S
C1062 C1063 1.367 . S
C1062 C1070 1.378 1_554 S
C1063 C1062 1.367 . S
C1063 C1071 1.433 . S
C1064 H1060 0.929 . S
C1064 C1066 1.378 1_554 S
C1064 C1068 1.350 1_554 S
C1065 C1068 1.463 1_564 S
C1065 C1070 1.350 1_554 S
C1065 N1073 1.427 . S
C1066 H1057 0.930 . S
C1066 C1064 1.378 1_556 S
C1066 C1067 1.367 . S
C1067 C1066 1.367 . S
C1067 C1069 1.433 . S
C1068 C1064 1.350 1_556 S
C1068 C1065 1.463 1_546 S
C1068 N1072 1.427 . S
C1069 H1059 0.929 . S
C1069 C1067 1.433 . S
C1069 N1072 1.384 . S
C1070 H1061 0.929 . S
C1070 C1062 1.378 1_556 S
C1070 C1065 1.350 1_556 S
C1071 H1058 0.929 . S
C1071 C1063 1.433 . S
C1071 N1073 1.384 . S
N1072 C1068 1.427 . S
N1072 C1069 1.384 . S
N1073 C1065 1.427 . S
N1073 C1071 1.384 . S
H1074 C1080 0.930 . S
H1075 C1084 0.930 . S
H1076 C1089 0.929 . S
H1077 C1087 0.929 . S
H1078 C1082 0.929 . S
H1079 C1088 0.929 . S
C1080 H1074 0.930 . S
C1080 C1081 1.367 . S
C1080 C1088 1.378 . S
C1081 C1080 1.367 . S
C1081 C1089 1.433 . S
C1082 H1078 0.929 . S
C1082 C1084 1.378 . S
C1082 C1086 1.350 . S
C1083 C1086 1.463 . S
C1083 C1088 1.350 . S
C1083 N1091 1.427 . S
C1084 H1075 0.930 . S
C1084 C1082 1.378 . S
C1084 C1085 1.367 . S
C1085 C1084 1.367 . S
C1085 C1087 1.433 . S
C1086 C1082 1.350 . S
C1086 C1083 1.463 . S
C1086 N1090 1.427 . S
C1087 H1077 0.929 . S
C1087 C1085 1.433 . S
C1087 N1090 1.384 . S
C1088 H1079 0.929 . S
C1088 C1080 1.378 . S
C1088 C1083 1.350 . S
C1089 H1076 0.929 . S
C1089 C1081 1.433 . S
C1089 N1091 1.384 . S
N1090 C1086 1.427 . S
N1090 C1087 1.384 . S
N1091 C1083 1.427 . S
N1091 C1089 1.384 . S
H1092 C1098 0.930 . S
H1093 C1102 0.930 . S
H1094 C1107 0.929 . S
H1095 C1105 0.929 . S
H1096 C1100 0.929 . S
H1097 C1106 0.929 . S
C1098 H1092 0.930 . S
C1098 C1099 1.367 . S
C1098 C1106 1.378 . S
C1099 C1098 1.367 . S
C1099 C1107 1.433 . S
C1100 H1096 0.929 . S
C1100 C1102 1.378 . S
C1100 C1104 1.350 . S
C1101 C1104 1.463 1_656 S
C1101 C1106 1.350 . S
C1101 N1109 1.427 . S
C1102 H1093 0.930 . S
C1102 C1100 1.378 . S
C1102 C1103 1.367 . S
C1103 C1102 1.367 . S
C1103 C1105 1.433 . S
C1104 C1100 1.350 . S
C1104 C1101 1.463 1_454 S
C1104 N1108 1.427 . S
C1105 H1095 0.929 . S
C1105 C1103 1.433 . S
C1105 N1108 1.384 . S
C1106 H1097 0.929 . S
C1106 C1098 1.378 . S
C1106 C1101 1.350 . S
C1107 H1094 0.929 . S
C1107 C1099 1.433 . S
C1107 N1109 1.384 . S
N1108 C1104 1.427 . S
N1108 C1105 1.384 . S
N1109 C1101 1.427 . S
N1109 C1107 1.384 . S
H1110 C1116 0.930 . S
H1111 C1120 0.930 . S
H1112 C1125 0.929 . S
H1113 C1123 0.929 . S
H1114 C1118 0.929 1_565 S
H1115 C1124 0.929 1_545 S
C1116 H1110 0.930 . S
C1116 C1117 1.367 . S
C1116 C1124 1.378 . S
C1117 C1116 1.367 . S
C1117 C1125 1.433 . S
C1118 H1114 0.929 1_545 S
C1118 C1120 1.378 . S
C1118 C1122 1.350 . S
C1119 C1122 1.463 1_565 S
C1119 C1124 1.350 . S
C1119 N1127 1.427 . S
C1120 H1111 0.930 . S
C1120 C1118 1.378 . S
C1120 C1121 1.367 . S
C1121 C1120 1.367 . S
C1121 C1123 1.433 . S
C1122 C1118 1.350 . S
C1122 C1119 1.463 1_545 S
C1122 N1126 1.427 . S
C1123 H1113 0.929 . S
C1123 C1121 1.433 . S
C1123 N1126 1.384 . S
C1124 H1115 0.929 1_565 S
C1124 C1116 1.378 . S
C1124 C1119 1.350 . S
C1125 H1112 0.929 . S
C1125 C1117 1.433 . S
C1125 N1127 1.384 . S
N1126 C1122 1.427 . S
N1126 C1123 1.384 . S
N1127 C1119 1.427 . S
N1127 C1125 1.384 . S
C487 C175 1.377 . S
C491 C19 1.419 . S
C505 C215 1.381 . S
C509 C59 1.420 . S
C523 C99 1.421 . S
C527 C15 1.382 . S
C541 C139 1.420 . S
C545 C55 1.381 . S
C559 C179 1.418 . S
C563 C95 1.372 . S
C577 C135 1.374 . S
C581 C219 1.418 . S
C595 C335 1.386 . S
C599 C259 1.422 . S
C613 C299 1.421 . S
C617 C375 1.383 . S
C631 C415 1.386 . S
C635 C339 1.422 . S
C649 C379 1.422 . S
C653 C455 1.386 . S
C667 C419 1.421 . S
C671 C255 1.383 . S
C685 C295 1.385 . S
C689 C459 1.422 . S
C703 C166 1.709 . S
C707 C10 1.699 . S
C721 C50 1.699 . S
C725 C206 1.703 . S
C739 C90 1.701 . S
C743 C6 1.703 . S
C757 C130 1.697 . S
C761 C46 1.708 . S
C775 C86 1.709 . S
C779 C170 1.700 . S
C793 C126 1.709 . S
C797 C210 1.699 . S
C811 C326 1.703 . S
C815 C250 1.699 . S
C829 C290 1.701 . S
C833 C366 1.709 . S
C847 C330 1.697 . S
C851 C406 1.708 . S
C865 C446 1.708 . S
C869 C370 1.697 . S
C883 C410 1.699 . S
C887 C246 1.703 . S
C901 C286 1.703 . S
C905 C450 1.700 . S
C919 C418 1.712 . S
C923 C18 1.719 . S
C937 C58 1.716 . S
C941 C458 1.717 . S
C955 C98 1.719 . S
C959 C258 1.709 . S
C973 C138 1.712 . S
C977 C298 1.719 . S
C991 C178 1.719 . S
C995 C338 1.710 . S
C1009 C378 1.709 . S
C1013 C218 1.718 . S
C1027 C369 2.020 . S
C1031 C9 2.017 . S
C1045 C409 2.015 . S
C1049 C49 2.020 . S
C1063 C89 2.015 . S
C1067 C449 2.020 . S
C1081 C129 2.014 . S
C1085 C249 2.005 . S
C1099 C289 2.015 . S
C1103 C169 2.006 . S
C1117 C329 2.003 . S
C1121 C209 2.004 . S
