# Generated by pormake.
# Topology wgi, (5)-cn, num edge types: 1
# Building blocks:
#     Node 0, Type 0, BuildingBlock: BEQFEK_clean_sbu_0, # of connection points: 5
#     Node 1, Type 0, BuildingBlock: BEQFEK_clean_sbu_0, # of connection points: 5
#     Node 2, Type 0, BuildingBlock: BEQFEK_clean_sbu_0, # of connection points: 5
#     Node 3, Type 0, BuildingBlock: BEQFEK_clean_sbu_0, # of connection points: 5
#     Node 4, Type 0, BuildingBlock: BEQFEK_clean_sbu_0, # of connection points: 5
#     Node 5, Type 0, BuildingBlock: BEQFEK_clean_sbu_0, # of connection points: 5
#     Node 6, Type 0, BuildingBlock: BEQFEK_clean_sbu_0, # of connection points: 5
#     Node 7, Type 0, BuildingBlock: BEQFEK_clean_sbu_0, # of connection points: 5
#     Node 8, Type 0, BuildingBlock: BEQFEK_clean_sbu_0, # of connection points: 5
#     Node 9, Type 0, BuildingBlock: BEQFEK_clean_sbu_0, # of connection points: 5
#     Node 10, Type 0, BuildingBlock: BEQFEK_clean_sbu_0, # of connection points: 5
#     Node 11, Type 0, BuildingBlock: BEQFEK_clean_sbu_0, # of connection points: 5
#     Node 12, Type 0, BuildingBlock: BEQFEK_clean_sbu_0, # of connection points: 5
#     Node 13, Type 0, BuildingBlock: BEQFEK_clean_sbu_0, # of connection points: 5
#     Node 14, Type 0, BuildingBlock: BEQFEK_clean_sbu_0, # of connection points: 5
#     Node 15, Type 0, BuildingBlock: BEQFEK_clean_sbu_0, # of connection points: 5
#     Node 16, Type 0, BuildingBlock: BEQFEK_clean_sbu_0, # of connection points: 5
#     Node 17, Type 0, BuildingBlock: BEQFEK_clean_sbu_0, # of connection points: 5
#     Node 18, Type 0, BuildingBlock: BEQFEK_clean_sbu_0, # of connection points: 5
#     Node 19, Type 0, BuildingBlock: BEQFEK_clean_sbu_0, # of connection points: 5
#     Node 20, Type 0, BuildingBlock: BEQFEK_clean_sbu_0, # of connection points: 5
#     Node 21, Type 0, BuildingBlock: BEQFEK_clean_sbu_0, # of connection points: 5
#     Node 22, Type 0, BuildingBlock: BEQFEK_clean_sbu_0, # of connection points: 5
#     Node 23, Type 0, BuildingBlock: BEQFEK_clean_sbu_0, # of connection points: 5
#     Node 24, Type 0, BuildingBlock: BEQFEK_clean_sbu_0, # of connection points: 5
#     Node 25, Type 0, BuildingBlock: BEQFEK_clean_sbu_0, # of connection points: 5
#     Node 26, Type 0, BuildingBlock: BEQFEK_clean_sbu_0, # of connection points: 5
#     Node 27, Type 0, BuildingBlock: BEQFEK_clean_sbu_0, # of connection points: 5
#     Node 28, Type 0, BuildingBlock: BEQFEK_clean_sbu_0, # of connection points: 5
#     Node 29, Type 0, BuildingBlock: BEQFEK_clean_sbu_0, # of connection points: 5
#     Node 30, Type 0, BuildingBlock: BEQFEK_clean_sbu_0, # of connection points: 5
#     Node 31, Type 0, BuildingBlock: BEQFEK_clean_sbu_0, # of connection points: 5
#     Edge 32, Type (0, 0), BuildingBlock: ZUJKAS_clean_linker_0, # of connection points: 2
#     Edge 33, Type (0, 0), BuildingBlock: ZUJKAS_clean_linker_0, # of connection points: 2
#     Edge 34, Type (0, 0), BuildingBlock: ZUJKAS_clean_linker_0, # of connection points: 2
#     Edge 35, Type (0, 0), BuildingBlock: ZUJKAS_clean_linker_0, # of connection points: 2
#     Edge 36, Type (0, 0), BuildingBlock: ZUJKAS_clean_linker_0, # of connection points: 2
#     Edge 37, Type (0, 0), BuildingBlock: ZUJKAS_clean_linker_0, # of connection points: 2
#     Edge 38, Type (0, 0), BuildingBlock: ZUJKAS_clean_linker_0, # of connection points: 2
#     Edge 39, Type (0, 0), BuildingBlock: ZUJKAS_clean_linker_0, # of connection points: 2
#     Edge 40, Type (0, 0), BuildingBlock: ZUJKAS_clean_linker_0, # of connection points: 2
#     Edge 41, Type (0, 0), BuildingBlock: ZUJKAS_clean_linker_0, # of connection points: 2
#     Edge 42, Type (0, 0), BuildingBlock: ZUJKAS_clean_linker_0, # of connection points: 2
#     Edge 43, Type (0, 0), BuildingBlock: ZUJKAS_clean_linker_0, # of connection points: 2
#     Edge 44, Type (0, 0), BuildingBlock: ZUJKAS_clean_linker_0, # of connection points: 2
#     Edge 45, Type (0, 0), BuildingBlock: ZUJKAS_clean_linker_0, # of connection points: 2
#     Edge 46, Type (0, 0), BuildingBlock: ZUJKAS_clean_linker_0, # of connection points: 2
#     Edge 47, Type (0, 0), BuildingBlock: ZUJKAS_clean_linker_0, # of connection points: 2
#     Edge 48, Type (0, 0), BuildingBlock: ZUJKAS_clean_linker_0, # of connection points: 2
#     Edge 49, Type (0, 0), BuildingBlock: ZUJKAS_clean_linker_0, # of connection points: 2
#     Edge 50, Type (0, 0), BuildingBlock: ZUJKAS_clean_linker_0, # of connection points: 2
#     Edge 51, Type (0, 0), BuildingBlock: ZUJKAS_clean_linker_0, # of connection points: 2
#     Edge 52, Type (0, 0), BuildingBlock: ZUJKAS_clean_linker_0, # of connection points: 2
#     Edge 53, Type (0, 0), BuildingBlock: ZUJKAS_clean_linker_0, # of connection points: 2
#     Edge 54, Type (0, 0), BuildingBlock: ZUJKAS_clean_linker_0, # of connection points: 2
#     Edge 55, Type (0, 0), BuildingBlock: ZUJKAS_clean_linker_0, # of connection points: 2
#     Edge 56, Type (0, 0), BuildingBlock: ZUJKAS_clean_linker_0, # of connection points: 2
#     Edge 57, Type (0, 0), BuildingBlock: ZUJKAS_clean_linker_0, # of connection points: 2
#     Edge 58, Type (0, 0), BuildingBlock: ZUJKAS_clean_linker_0, # of connection points: 2
#     Edge 59, Type (0, 0), BuildingBlock: ZUJKAS_clean_linker_0, # of connection points: 2
#     Edge 60, Type (0, 0), BuildingBlock: ZUJKAS_clean_linker_0, # of connection points: 2
#     Edge 61, Type (0, 0), BuildingBlock: ZUJKAS_clean_linker_0, # of connection points: 2
#     Edge 62, Type (0, 0), BuildingBlock: ZUJKAS_clean_linker_0, # of connection points: 2
#     Edge 63, Type (0, 0), BuildingBlock: ZUJKAS_clean_linker_0, # of connection points: 2
#     Edge 64, Type (0, 0), BuildingBlock: ZUJKAS_clean_linker_0, # of connection points: 2
#     Edge 65, Type (0, 0), BuildingBlock: ZUJKAS_clean_linker_0, # of connection points: 2
#     Edge 66, Type (0, 0), BuildingBlock: ZUJKAS_clean_linker_0, # of connection points: 2
#     Edge 67, Type (0, 0), BuildingBlock: ZUJKAS_clean_linker_0, # of connection points: 2
#     Edge 68, Type (0, 0), BuildingBlock: ZUJKAS_clean_linker_0, # of connection points: 2
#     Edge 69, Type (0, 0), BuildingBlock: ZUJKAS_clean_linker_0, # of connection points: 2
#     Edge 70, Type (0, 0), BuildingBlock: ZUJKAS_clean_linker_0, # of connection points: 2
#     Edge 71, Type (0, 0), BuildingBlock: ZUJKAS_clean_linker_0, # of connection points: 2
#     Edge 72, Type (0, 0), BuildingBlock: ZUJKAS_clean_linker_0, # of connection points: 2
#     Edge 73, Type (0, 0), BuildingBlock: ZUJKAS_clean_linker_0, # of connection points: 2
#     Edge 74, Type (0, 0), BuildingBlock: ZUJKAS_clean_linker_0, # of connection points: 2
#     Edge 75, Type (0, 0), BuildingBlock: ZUJKAS_clean_linker_0, # of connection points: 2
#     Edge 76, Type (0, 0), BuildingBlock: ZUJKAS_clean_linker_0, # of connection points: 2
#     Edge 77, Type (0, 0), BuildingBlock: ZUJKAS_clean_linker_0, # of connection points: 2
#     Edge 78, Type (0, 0), BuildingBlock: ZUJKAS_clean_linker_0, # of connection points: 2
#     Edge 79, Type (0, 0), BuildingBlock: ZUJKAS_clean_linker_0, # of connection points: 2
#     Edge 80, Type (0, 0), BuildingBlock: ZUJKAS_clean_linker_0, # of connection points: 2
#     Edge 81, Type (0, 0), BuildingBlock: ZUJKAS_clean_linker_0, # of connection points: 2
#     Edge 82, Type (0, 0), BuildingBlock: ZUJKAS_clean_linker_0, # of connection points: 2
#     Edge 83, Type (0, 0), BuildingBlock: ZUJKAS_clean_linker_0, # of connection points: 2
#     Edge 84, Type (0, 0), BuildingBlock: ZUJKAS_clean_linker_0, # of connection points: 2
#     Edge 85, Type (0, 0), BuildingBlock: ZUJKAS_clean_linker_0, # of connection points: 2
#     Edge 86, Type (0, 0), BuildingBlock: ZUJKAS_clean_linker_0, # of connection points: 2
#     Edge 87, Type (0, 0), BuildingBlock: ZUJKAS_clean_linker_0, # of connection points: 2
#     Edge 88, Type (0, 0), BuildingBlock: ZUJKAS_clean_linker_0, # of connection points: 2
#     Edge 89, Type (0, 0), BuildingBlock: ZUJKAS_clean_linker_0, # of connection points: 2
#     Edge 90, Type (0, 0), BuildingBlock: ZUJKAS_clean_linker_0, # of connection points: 2
#     Edge 91, Type (0, 0), BuildingBlock: ZUJKAS_clean_linker_0, # of connection points: 2
#     Edge 92, Type (0, 0), BuildingBlock: ZUJKAS_clean_linker_0, # of connection points: 2
#     Edge 93, Type (0, 0), BuildingBlock: ZUJKAS_clean_linker_0, # of connection points: 2
#     Edge 94, Type (0, 0), BuildingBlock: ZUJKAS_clean_linker_0, # of connection points: 2
#     Edge 95, Type (0, 0), BuildingBlock: ZUJKAS_clean_linker_0, # of connection points: 2
#     Edge 96, Type (0, 0), BuildingBlock: ZUJKAS_clean_linker_0, # of connection points: 2
#     Edge 97, Type (0, 0), BuildingBlock: ZUJKAS_clean_linker_0, # of connection points: 2
#     Edge 98, Type (0, 0), BuildingBlock: ZUJKAS_clean_linker_0, # of connection points: 2
#     Edge 99, Type (0, 0), BuildingBlock: ZUJKAS_clean_linker_0, # of connection points: 2
#     Edge 100, Type (0, 0), BuildingBlock: ZUJKAS_clean_linker_0, # of connection points: 2
#     Edge 101, Type (0, 0), BuildingBlock: ZUJKAS_clean_linker_0, # of connection points: 2
#     Edge 102, Type (0, 0), BuildingBlock: ZUJKAS_clean_linker_0, # of connection points: 2
#     Edge 103, Type (0, 0), BuildingBlock: ZUJKAS_clean_linker_0, # of connection points: 2
#     Edge 104, Type (0, 0), BuildingBlock: ZUJKAS_clean_linker_0, # of connection points: 2
#     Edge 105, Type (0, 0), BuildingBlock: ZUJKAS_clean_linker_0, # of connection points: 2
#     Edge 106, Type (0, 0), BuildingBlock: ZUJKAS_clean_linker_0, # of connection points: 2
#     Edge 107, Type (0, 0), BuildingBlock: ZUJKAS_clean_linker_0, # of connection points: 2
#     Edge 108, Type (0, 0), BuildingBlock: ZUJKAS_clean_linker_0, # of connection points: 2
#     Edge 109, Type (0, 0), BuildingBlock: ZUJKAS_clean_linker_0, # of connection points: 2
#     Edge 110, Type (0, 0), BuildingBlock: ZUJKAS_clean_linker_0, # of connection points: 2
#     Edge 111, Type (0, 0), BuildingBlock: ZUJKAS_clean_linker_0, # of connection points: 2
# Relax obj value: 0.193
# Max RMSD: 0.125
# Mean RMSD: 0.125
data_MOF--net-wgi--node1-BEQFEK_clean_sbu_0--edge1-ZUJKAS_clean_linker_0
_symmetry_space_group_name_H-M    P1
_symmetry_Int_Tables_number       1
_symmetry_cell_setting            triclinic
loop_
_symmetry_equiv_pos_as_xyz
'x, y, z'
_cell_length_a     95.230186
_cell_length_b     95.214506
_cell_length_c     37.280695
_cell_angle_alpha  90.011981
_cell_angle_beta   90.006393
_cell_angle_gamma 90.017424
loop_
_atom_site_label
_atom_site_type_symbol
_atom_site_fract_x
_atom_site_fract_y
_atom_site_fract_z
_atom_type_partial_charge
Co0 Co 0.11888 0.16737 0.3504 0.0
Co1 Co 0.15165 0.17237 0.34983 0.0
C2 C 0.13714 0.15652 0.29075 0.0
O3 O 0.12536 0.15877 0.30576 0.0
O4 O 0.1486 0.16087 0.30479 0.0
C5 C 0.09289 0.15187 0.34342 0.0
O6 O 0.10026 0.14377 0.32197 0.0
C7 C 0.18168 0.16584 0.36484 0.0
C8 C 0.18948 0.18709 0.37777 0.0
C9 C 0.19337 0.17306 0.37792 0.0
N10 N 0.17133 0.17519 0.35861 0.0
N11 N 0.17623 0.18788 0.36563 0.0
C12 C 0.18045 0.15047 0.35686 0.0
H13 H 0.1734 0.14883 0.33352 0.0
H14 H 0.17578 0.14488 0.37998 0.0
H15 H 0.19093 0.14587 0.3512 0.0
C16 C 0.12561 0.1547 0.42004 0.0
N17 N 0.12971 0.16074 0.38918 0.0
N18 N 0.14322 0.16366 0.3908 0.0
C19 C 0.14796 0.16019 0.42385 0.0
C20 C 0.13703 0.15408 0.44284 0.0
C21 C 0.11071 0.15104 0.42883 0.0
H22 H 0.10409 0.16058 0.42648 0.0
H23 H 0.10682 0.14318 0.40926 0.0
H24 H 0.10963 0.14674 0.45633 0.0
O25 O 0.12029 0.18808 0.3474 0.0
O26 O 0.14333 0.19153 0.34482 0.0
H27 H 0.16567 0.17413 0.42741 0.0
H28 H 0.16189 0.1648 0.46824 0.0
C29 C 0.16209 0.16398 0.43861 0.0
H30 H 0.16975 0.15568 0.43175 0.0
H31 H 0.17027 0.19705 0.36396 0.0
O32 O 0.09874 0.16246 0.35788 0.0
C33 C 0.13081 0.19629 0.34512 0.0
Co34 Co 0.0865 0.86819 0.60171 0.0
Co35 Co 0.08079 0.90083 0.60671 0.0
C36 C 0.09726 0.888 0.5458 0.0
O37 O 0.09566 0.87578 0.55895 0.0
O38 O 0.09202 0.89886 0.56089 0.0
C39 C 0.1023 0.8424 0.59387 0.0
O40 O 0.11151 0.85049 0.57771 0.0
C41 C 0.08748 0.93043 0.62619 0.0
C42 C 0.0662 0.93847 0.63766 0.0
C43 C 0.08027 0.94209 0.63933 0.0
N44 N 0.07805 0.92033 0.6182 0.0
N45 N 0.06536 0.92535 0.62453 0.0
C46 C 0.10293 0.92902 0.6197 0.0
H47 H 0.10775 0.92239 0.64075 0.0
H48 H 0.10816 0.93944 0.6195 0.0
H49 H 0.10472 0.92365 0.59367 0.0
C50 C 0.09929 0.87341 0.67209 0.0
N51 N 0.09285 0.87809 0.64233 0.0
N52 N 0.08977 0.8915 0.64614 0.0
C53 C 0.09362 0.89556 0.67951 0.0
C54 C 0.09996 0.8843 0.69656 0.0
C55 C 0.10485 0.85881 0.67655 0.0
H56 H 0.09598 0.85125 0.67661 0.0
H57 H 0.11179 0.85628 0.65361 0.0
H58 H 0.11101 0.85759 0.70159 0.0
O59 O 0.06577 0.86965 0.59831 0.0
O60 O 0.06172 0.89258 0.60064 0.0
H61 H 0.07948 0.91308 0.68537 0.0
H62 H 0.08758 0.90731 0.72645 0.0
C63 C 0.0893 0.90899 0.69731 0.0
H64 H 0.09777 0.91689 0.69458 0.0
H65 H 0.05611 0.91959 0.62137 0.0
O66 O 0.09105 0.84782 0.606 0.0
C67 C 0.05728 0.87999 0.5983 0.0
Co68 Co 0.38596 0.83422 0.84991 0.0
Co69 Co 0.35293 0.83078 0.85316 0.0
C70 C 0.36678 0.84585 0.79244 0.0
O71 O 0.37868 0.84311 0.80633 0.0
O72 O 0.35535 0.84202 0.80758 0.0
C73 C 0.41138 0.85054 0.84632 0.0
O74 O 0.40286 0.86054 0.83551 0.0
C75 C 0.3224 0.83677 0.86811 0.0
C76 C 0.3163 0.81613 0.89019 0.0
C77 C 0.31131 0.82959 0.88442 0.0
N78 N 0.33347 0.82796 0.86549 0.0
N79 N 0.32957 0.8156 0.87815 0.0
C80 C 0.32227 0.85145 0.85366 0.0
H81 H 0.33042 0.85268 0.83263 0.0
H82 H 0.32451 0.85908 0.87531 0.0
H83 H 0.31176 0.85396 0.84248 0.0
C84 C 0.38106 0.84689 0.92081 0.0
N85 N 0.37624 0.84106 0.89033 0.0
N86 N 0.3625 0.83956 0.89246 0.0
C87 C 0.35823 0.84422 0.92493 0.0
C88 C 0.36982 0.8492 0.9435 0.0
C89 C 0.39629 0.84892 0.92944 0.0
H90 H 0.40236 0.83958 0.92087 0.0
H91 H 0.40027 0.85822 0.9147 0.0
H92 H 0.398 0.8506 0.95857 0.0
O93 O 0.38388 0.81371 0.84708 0.0
O94 O 0.36071 0.81134 0.84728 0.0
H95 H 0.3393 0.83278 0.93542 0.0
H96 H 0.34265 0.84677 0.96699 0.0
C97 C 0.34346 0.84358 0.93849 0.0
H98 H 0.3369 0.85084 0.92263 0.0
H99 H 0.33619 0.8069 0.88004 0.0
O100 O 0.40636 0.8385 0.85361 0.0
C101 C 0.37298 0.806 0.8461 0.0
Co102 Co 0.41616 0.13359 0.10175 0.0
Co103 Co 0.42096 0.10072 0.10549 0.0
C104 C 0.40395 0.11384 0.04683 0.0
O105 O 0.40601 0.12594 0.06035 0.0
O106 O 0.40925 0.10276 0.06062 0.0
C107 C 0.39943 0.15886 0.09991 0.0
O108 O 0.38929 0.15025 0.09051 0.0
C109 C 0.41566 0.07015 0.12097 0.0
C110 C 0.43655 0.0644 0.14209 0.0
C111 C 0.42311 0.05921 0.13708 0.0
N112 N 0.42429 0.08134 0.11775 0.0
N113 N 0.4368 0.07766 0.12982 0.0
C114 C 0.40088 0.06978 0.10725 0.0
H115 H 0.39944 0.0777 0.08576 0.0
H116 H 0.3934 0.0722 0.12911 0.0
H117 H 0.39835 0.05914 0.09688 0.0
C118 C 0.40485 0.12857 0.17408 0.0
N119 N 0.41052 0.12386 0.14331 0.0
N120 N 0.41244 0.11017 0.14546 0.0
C121 C 0.4082 0.10582 0.17825 0.0
C122 C 0.40306 0.1173 0.197 0.0
C123 C 0.40223 0.14372 0.18249 0.0
H124 H 0.41118 0.15018 0.17306 0.0
H125 H 0.39259 0.14721 0.16841 0.0
H126 H 0.40083 0.14546 0.21169 0.0
O127 O 0.43671 0.13199 0.09573 0.0
O128 O 0.44004 0.10895 0.09809 0.0
H129 H 0.42001 0.08706 0.18785 0.0
H130 H 0.40634 0.09018 0.22042 0.0
C131 C 0.40919 0.09105 0.19171 0.0
H132 H 0.40186 0.08439 0.17638 0.0
H133 H 0.44541 0.08442 0.1312 0.0
O134 O 0.41163 0.15394 0.10576 0.0
C135 C 0.44484 0.12138 0.09515 0.0
Co136 Co 0.11974 0.83855 0.14301 0.0
Co137 Co 0.15236 0.83248 0.14259 0.0
C138 C 0.13856 0.84971 0.20056 0.0
O139 O 0.12662 0.84819 0.18583 0.0
O140 O 0.14963 0.8441 0.18751 0.0
C141 C 0.09431 0.85499 0.1465 0.0
O142 O 0.1024 0.8642 0.16269 0.0
C143 C 0.1821 0.83899 0.12506 0.0
C144 C 0.19033 0.81761 0.11594 0.0
C145 C 0.19388 0.83169 0.1129 0.0
N146 N 0.17202 0.82961 0.13357 0.0
N147 N 0.17716 0.81687 0.12877 0.0
C148 C 0.18048 0.85453 0.12981 0.0
H149 H 0.17336 0.85673 0.15269 0.0
H150 H 0.17571 0.85923 0.10555 0.0
H151 H 0.19084 0.85955 0.13452 0.0
C152 C 0.12636 0.85007 0.07194 0.0
N153 N 0.13044 0.8443 0.10315 0.0
N154 N 0.14389 0.84108 0.10142 0.0
C155 C 0.14858 0.84414 0.06807 0.0
C156 C 0.13771 0.85019 0.04885 0.0
C157 C 0.11178 0.85512 0.06433 0.0
H158 H 0.10439 0.84612 0.06534 0.0
H159 H 0.10865 0.86278 0.08524 0.0
H160 H 0.11098 0.86032 0.0378 0.0
O161 O 0.1209 0.81779 0.14817 0.0
O162 O 0.14383 0.81355 0.14842 0.0
H163 H 0.16564 0.8293 0.06586 0.0
H164 H 0.16077 0.83667 0.02322 0.0
C165 C 0.16209 0.83899 0.05221 0.0
H166 H 0.17023 0.84723 0.05451 0.0
H167 H 0.17143 0.80764 0.13248 0.0
O168 O 0.09958 0.84342 0.13599 0.0
C169 C 0.13117 0.80922 0.14967 0.0
Co170 Co 0.41732 0.8674 0.39482 0.0
Co171 Co 0.42249 0.90015 0.39457 0.0
C172 C 0.40581 0.88601 0.45283 0.0
O173 O 0.40806 0.87414 0.4383 0.0
O174 O 0.41055 0.89733 0.43893 0.0
C175 C 0.40056 0.84216 0.39611 0.0
O176 O 0.39088 0.85054 0.40922 0.0
C177 C 0.41594 0.93009 0.37862 0.0
C178 C 0.43721 0.93798 0.3664 0.0
C179 C 0.42317 0.94179 0.36564 0.0
N180 N 0.42531 0.91981 0.3854 0.0
N181 N 0.43801 0.92476 0.37878 0.0
C182 C 0.40053 0.9288 0.38594 0.0
H183 H 0.3988 0.92202 0.40975 0.0
H184 H 0.39516 0.92377 0.36296 0.0
H185 H 0.39578 0.93929 0.39056 0.0
C186 C 0.40548 0.87381 0.32381 0.0
N187 N 0.41126 0.87798 0.35496 0.0
N188 N 0.41418 0.8915 0.35325 0.0
C189 C 0.41091 0.89617 0.32 0.0
C190 C 0.40495 0.8852 0.30092 0.0
C191 C 0.40185 0.85892 0.31484 0.0
H192 H 0.41091 0.85202 0.32095 0.0
H193 H 0.39282 0.85555 0.33153 0.0
H194 H 0.39903 0.85765 0.28615 0.0
O195 O 0.43795 0.86883 0.39952 0.0
O196 O 0.44158 0.89186 0.40116 0.0
H197 H 0.42471 0.914 0.31684 0.0
H198 H 0.41574 0.91001 0.27563 0.0
C199 C 0.41467 0.9103 0.30522 0.0
H200 H 0.40625 0.9179 0.31147 0.0
H201 H 0.4472 0.91885 0.38093 0.0
O202 O 0.41257 0.84719 0.38837 0.0
C203 C 0.44623 0.8793 0.40183 0.0
Co204 Co 0.38248 0.16574 0.64426 0.0
Co205 Co 0.34998 0.17202 0.64396 0.0
C206 C 0.3638 0.15539 0.70308 0.0
O207 O 0.37574 0.15683 0.68822 0.0
O208 O 0.3527 0.16071 0.68937 0.0
C209 C 0.4119 0.16186 0.65988 0.0
O210 O 0.40872 0.16783 0.6906 0.0
C211 C 0.31998 0.16596 0.62828 0.0
C212 C 0.31246 0.18728 0.61515 0.0
C213 C 0.30843 0.17329 0.6148 0.0
N214 N 0.33039 0.17521 0.6349 0.0
N215 N 0.32566 0.18795 0.62776 0.0
C216 C 0.32107 0.15057 0.63608 0.0
H217 H 0.32795 0.14886 0.65972 0.0
H218 H 0.3259 0.14501 0.6131 0.0
H219 H 0.31054 0.146 0.6412 0.0
C220 C 0.37554 0.15306 0.57497 0.0
N221 N 0.37157 0.15952 0.60535 0.0
N222 N 0.3582 0.16296 0.60322 0.0
C223 C 0.35348 0.15945 0.57018 0.0
C224 C 0.36421 0.15272 0.55186 0.0
C225 C 0.3903 0.14861 0.56701 0.0
H226 H 0.39721 0.15799 0.56717 0.0
H227 H 0.39399 0.14136 0.5883 0.0
H228 H 0.39121 0.14336 0.54056 0.0
O229 O 0.38174 0.18656 0.64779 0.0
O230 O 0.35882 0.19085 0.64893 0.0
H231 H 0.33617 0.17388 0.5662 0.0
H232 H 0.34018 0.16479 0.52515 0.0
C233 C 0.3396 0.16373 0.55471 0.0
H234 H 0.33166 0.15556 0.5605 0.0
H235 H 0.33171 0.19706 0.62962 0.0
O236 O 0.40231 0.16005 0.63664 0.0
C237 C 0.3715 0.19515 0.64943 0.0
Co238 Co 0.08514 0.13616 0.89442 0.0
Co239 Co 0.08148 0.10316 0.89054 0.0
C240 C 0.09689 0.11669 0.95118 0.0
O241 O 0.0942 0.12862 0.93745 0.0
O242 O 0.09283 0.10532 0.93609 0.0
C243 C 0.10178 0.16131 0.89819 0.0
O244 O 0.11174 0.15256 0.90792 0.0
C245 C 0.08701 0.0725 0.87548 0.0
C246 C 0.06637 0.06677 0.85275 0.0
C247 C 0.07968 0.06152 0.85915 0.0
N248 N 0.07842 0.08376 0.87765 0.0
N249 N 0.06606 0.0801 0.8645 0.0
C250 C 0.10161 0.0721 0.89036 0.0
H251 H 0.10307 0.08053 0.91057 0.0
H252 H 0.10939 0.07369 0.86867 0.0
H253 H 0.1037 0.06169 0.90267 0.0
C254 C 0.09761 0.13142 0.82325 0.0
N255 N 0.09175 0.12655 0.85362 0.0
N256 N 0.09028 0.11281 0.85136 0.0
C257 C 0.09506 0.10858 0.81898 0.0
C258 C 0.10004 0.12021 0.80055 0.0
C259 C 0.09968 0.14666 0.81481 0.0
H260 H 0.09046 0.15279 0.82402 0.0
H261 H 0.10914 0.15053 0.82905 0.0
H262 H 0.10111 0.14842 0.78562 0.0
O263 O 0.06466 0.13424 0.89782 0.0
O264 O 0.06211 0.11109 0.89698 0.0
H265 H 0.08391 0.08956 0.80768 0.0
H266 H 0.09833 0.09294 0.7774 0.0
C267 C 0.09472 0.09378 0.80558 0.0
H268 H 0.10176 0.0873 0.8223 0.0
H269 H 0.05751 0.08689 0.86225 0.0
O270 O 0.0896 0.15653 0.89134 0.0
C271 C 0.05687 0.1234 0.89869 0.0
Co272 Co 0.88413 0.83787 0.64766 0.0
Co273 Co 0.85136 0.83251 0.64667 0.0
C274 C 0.86544 0.84858 0.70639 0.0
O275 O 0.87732 0.84644 0.69185 0.0
O276 O 0.85409 0.84414 0.69186 0.0
C277 C 0.91077 0.8523 0.65753 0.0
O278 O 0.904 0.85973 0.68165 0.0
C279 C 0.82142 0.83807 0.62654 0.0
C280 C 0.81419 0.81622 0.61927 0.0
C281 C 0.8102 0.83005 0.6138 0.0
N282 N 0.83168 0.82927 0.63754 0.0
N283 N 0.82703 0.81626 0.63416 0.0
C284 C 0.82297 0.8537 0.62537 0.0
H285 H 0.83417 0.85675 0.62789 0.0
H286 H 0.81843 0.85802 0.60028 0.0
H287 H 0.81709 0.85831 0.64821 0.0
C288 C 0.87789 0.85034 0.57774 0.0
N289 N 0.87352 0.84437 0.60843 0.0
N290 N 0.8601 0.8411 0.60576 0.0
C291 C 0.8558 0.84415 0.57205 0.0
C292 C 0.86681 0.85047 0.55384 0.0
C293 C 0.89281 0.85431 0.57017 0.0
H294 H 0.89948 0.84478 0.57134 0.0
H295 H 0.89653 0.86173 0.59105 0.0
H296 H 0.89403 0.85924 0.54339 0.0
O297 O 0.88285 0.8172 0.65072 0.0
O298 O 0.85985 0.81345 0.65226 0.0
H299 H 0.83813 0.83009 0.56922 0.0
H300 H 0.84329 0.83741 0.52683 0.0
C301 C 0.84214 0.83966 0.55584 0.0
H302 H 0.83442 0.84829 0.55829 0.0
H303 H 0.83299 0.80733 0.63972 0.0
O304 O 0.90433 0.84264 0.64068 0.0
C305 C 0.87242 0.80885 0.65255 0.0
Co306 Co 0.91787 0.13332 0.39509 0.0
Co307 Co 0.92329 0.10068 0.39713 0.0
C308 C 0.90676 0.11546 0.45491 0.0
O309 O 0.90884 0.12715 0.43934 0.0
O310 O 0.91153 0.10401 0.44174 0.0
C311 C 0.90153 0.15885 0.39565 0.0
O312 O 0.89181 0.15086 0.41011 0.0
C313 C 0.91641 0.07081 0.38193 0.0
C314 C 0.93765 0.06239 0.37187 0.0
C315 C 0.92353 0.0589 0.36984 0.0
N316 N 0.92593 0.0809 0.38936 0.0
N317 N 0.93859 0.07563 0.38408 0.0
C318 C 0.90094 0.07254 0.38766 0.0
H319 H 0.89905 0.07939 0.41128 0.0
H320 H 0.8961 0.07774 0.36416 0.0
H321 H 0.89581 0.0622 0.3918 0.0
C322 C 0.90582 0.12611 0.32491 0.0
N323 N 0.91166 0.12229 0.35626 0.0
N324 N 0.91487 0.10883 0.35521 0.0
C325 C 0.91182 0.10389 0.32206 0.0
C326 C 0.90562 0.11458 0.30245 0.0
C327 C 0.90194 0.14088 0.31529 0.0
H328 H 0.91107 0.14788 0.31986 0.0
H329 H 0.89322 0.1444 0.33281 0.0
H330 H 0.89861 0.14182 0.28687 0.0
O331 O 0.93849 0.13193 0.39922 0.0
O332 O 0.94245 0.109 0.40279 0.0
H333 H 0.92602 0.08631 0.32073 0.0
H334 H 0.918 0.09032 0.2783 0.0
C335 C 0.91622 0.08987 0.30765 0.0
H336 H 0.90778 0.08209 0.31227 0.0
H337 H 0.94788 0.08134 0.3869 0.0
O338 O 0.9133 0.15346 0.38729 0.0
C339 C 0.94693 0.12162 0.40225 0.0
Co340 Co 0.61776 0.16384 0.14468 0.0
Co341 Co 0.65051 0.16928 0.14383 0.0
C342 C 0.63642 0.15328 0.20358 0.0
O343 O 0.62453 0.15531 0.18894 0.0
O344 O 0.64774 0.15782 0.18917 0.0
C345 C 0.5918 0.14811 0.1504 0.0
O346 O 0.59949 0.13901 0.16815 0.0
C347 C 0.68043 0.1636 0.12393 0.0
C348 C 0.68778 0.18541 0.11669 0.0
C349 C 0.69172 0.17156 0.11135 0.0
N350 N 0.6702 0.17246 0.13476 0.0
N351 N 0.6749 0.18544 0.13136 0.0
C352 C 0.67882 0.14798 0.12272 0.0
H353 H 0.6676 0.14497 0.12533 0.0
H354 H 0.68329 0.14365 0.09757 0.0
H355 H 0.6847 0.14333 0.14549 0.0
C356 C 0.62421 0.1508 0.07533 0.0
N357 N 0.62841 0.1572 0.10564 0.0
N358 N 0.64183 0.16043 0.10315 0.0
C359 C 0.64635 0.15686 0.06998 0.0
C360 C 0.63543 0.15038 0.05181 0.0
C361 C 0.60971 0.14522 0.06926 0.0
H362 H 0.6022 0.1541 0.06763 0.0
H363 H 0.60668 0.1385 0.09222 0.0
H364 H 0.60901 0.13885 0.04442 0.0
O365 O 0.61907 0.18454 0.14735 0.0
O366 O 0.64204 0.18834 0.14919 0.0
H367 H 0.66362 0.17143 0.06658 0.0
H368 H 0.65805 0.16424 0.02428 0.0
C369 C 0.65972 0.16184 0.05311 0.0
H370 H 0.6677 0.15341 0.05452 0.0
H371 H 0.66896 0.19439 0.13681 0.0
O372 O 0.59751 0.1592 0.13824 0.0
C373 C 0.62947 0.19291 0.14925 0.0
Co374 Co 0.58744 0.87039 0.89258 0.0
Co375 Co 0.58083 0.90295 0.89237 0.0
C376 C 0.59763 0.88926 0.95142 0.0
O377 O 0.59637 0.87734 0.93638 0.0
O378 O 0.59211 0.90031 0.93793 0.0
C379 C 0.59952 0.84286 0.90686 0.0
O380 O 0.60312 0.84825 0.93796 0.0
C381 C 0.58643 0.93322 0.87743 0.0
C382 C 0.56503 0.94028 0.86353 0.0
C383 C 0.5789 0.94467 0.86408 0.0
N384 N 0.5774 0.92254 0.88319 0.0
N385 N 0.56461 0.92699 0.87553 0.0
C386 C 0.60177 0.93253 0.88607 0.0
H387 H 0.60355 0.92522 0.9088 0.0
H388 H 0.60773 0.92847 0.86277 0.0
H389 H 0.60586 0.94311 0.89291 0.0
C390 C 0.59982 0.87745 0.82305 0.0
N391 N 0.59346 0.88137 0.85361 0.0
N392 N 0.59 0.89474 0.8517 0.0
C393 C 0.59344 0.89954 0.81869 0.0
C394 C 0.60008 0.88883 0.80005 0.0
C395 C 0.60418 0.86268 0.81483 0.0
H396 H 0.59478 0.8558 0.81514 0.0
H397 H 0.61149 0.85893 0.83593 0.0
H398 H 0.60933 0.86179 0.78826 0.0
O399 O 0.56665 0.87109 0.89641 0.0
O400 O 0.56205 0.89395 0.89724 0.0
H401 H 0.57891 0.91673 0.81435 0.0
H402 H 0.58879 0.91336 0.77409 0.0
C403 C 0.5893 0.91355 0.80377 0.0
H404 H 0.59723 0.9215 0.81127 0.0
H405 H 0.55563 0.92071 0.87677 0.0
O406 O 0.59283 0.85039 0.88448 0.0
C407 C 0.55792 0.88122 0.8979 0.0
Co408 Co 0.88518 0.16904 0.85497 0.0
Co409 Co 0.85218 0.17188 0.85873 0.0
C410 C 0.86614 0.15833 0.79601 0.0
O411 O 0.878 0.16107 0.81011 0.0
O412 O 0.85467 0.16148 0.81187 0.0
C413 C 0.91016 0.15251 0.84937 0.0
O414 O 0.90129 0.14292 0.83794 0.0
C415 C 0.82219 0.16462 0.87431 0.0
C416 C 0.81454 0.18526 0.89305 0.0
C417 C 0.81055 0.17137 0.88907 0.0
N418 N 0.83262 0.17411 0.87063 0.0
N419 N 0.82783 0.18644 0.88134 0.0
C420 C 0.82323 0.14967 0.86223 0.0
H421 H 0.83437 0.14674 0.85748 0.0
H422 H 0.81845 0.14244 0.88204 0.0
H423 H 0.81733 0.14847 0.83675 0.0
C424 C 0.88058 0.15506 0.92438 0.0
N425 N 0.87559 0.1613 0.89461 0.0
N426 N 0.86183 0.16247 0.897 0.0
C427 C 0.8577 0.15711 0.9289 0.0
C428 C 0.86943 0.15206 0.94681 0.0
C429 C 0.89586 0.15334 0.93287 0.0
H430 H 0.90172 0.16288 0.92472 0.0
H431 H 0.90004 0.14421 0.91779 0.0
H432 H 0.89761 0.15151 0.96192 0.0
O433 O 0.88295 0.18955 0.85479 0.0
O434 O 0.85973 0.19156 0.85514 0.0
H435 H 0.83816 0.16755 0.93896 0.0
H436 H 0.84233 0.15406 0.97122 0.0
C437 C 0.84293 0.15704 0.94254 0.0
H438 H 0.83679 0.14922 0.9272 0.0
H439 H 0.83383 0.19561 0.88203 0.0
O440 O 0.90554 0.16459 0.8578 0.0
C441 C 0.87193 0.19711 0.85461 0.0
Co442 Co 0.58595 0.1377 0.60526 0.0
Co443 Co 0.58022 0.105 0.60735 0.0
C444 C 0.59575 0.11874 0.5462 0.0
O445 O 0.59392 0.13076 0.56036 0.0
O446 O 0.59134 0.10753 0.56143 0.0
C447 C 0.59923 0.1648 0.59265 0.0
O448 O 0.60556 0.15842 0.56592 0.0
C449 C 0.58652 0.07506 0.62481 0.0
C450 C 0.56512 0.06739 0.6365 0.0
C451 C 0.57911 0.06345 0.6377 0.0
N452 N 0.57727 0.08541 0.61751 0.0
N453 N 0.5645 0.0806 0.62394 0.0
C454 C 0.60196 0.07621 0.61796 0.0
H455 H 0.60396 0.08373 0.59579 0.0
H456 H 0.60739 0.08023 0.64213 0.0
H457 H 0.60643 0.06578 0.61118 0.0
C458 C 0.60013 0.13122 0.67296 0.0
N459 N 0.59302 0.12705 0.64372 0.0
N460 N 0.58962 0.1137 0.64692 0.0
C461 C 0.5938 0.10919 0.6796 0.0
C462 C 0.60081 0.12007 0.69672 0.0
C463 C 0.60628 0.14558 0.67752 0.0
H464 H 0.59776 0.15312 0.68396 0.0
H465 H 0.6113 0.14894 0.65211 0.0
H466 H 0.61426 0.14582 0.69919 0.0
O467 O 0.56525 0.13644 0.60407 0.0
O468 O 0.56112 0.11352 0.6028 0.0
H469 H 0.5791 0.0921 0.68503 0.0
H470 H 0.58738 0.09746 0.72621 0.0
C471 C 0.58905 0.09583 0.69703 0.0
H472 H 0.59725 0.08768 0.69409 0.0
H473 H 0.55536 0.08657 0.62133 0.0
O474 O 0.59066 0.15794 0.61209 0.0
C475 C 0.55672 0.12616 0.6028 0.0
Co476 Co 0.61856 0.83491 0.35192 0.0
Co477 Co 0.65143 0.83055 0.35459 0.0
C478 C 0.63768 0.84708 0.29578 0.0
O479 O 0.6257 0.8449 0.30978 0.0
O480 O 0.64891 0.84202 0.30942 0.0
C481 C 0.59314 0.85128 0.34983 0.0
O482 O 0.60161 0.86133 0.33907 0.0
C483 C 0.68132 0.8375 0.37052 0.0
C484 C 0.68928 0.81657 0.3859 0.0
C485 C 0.69305 0.83059 0.38426 0.0
N486 N 0.67104 0.82798 0.36529 0.0
N487 N 0.67601 0.81547 0.37392 0.0
C488 C 0.67996 0.85271 0.36088 0.0
H489 H 0.66876 0.85596 0.36156 0.0
H490 H 0.68632 0.85949 0.3787 0.0
H491 H 0.68386 0.85418 0.33309 0.0
C492 C 0.62382 0.84696 0.4233 0.0
N493 N 0.62845 0.84102 0.39279 0.0
N494 N 0.64216 0.8392 0.39476 0.0
C495 C 0.64658 0.84374 0.42727 0.0
C496 C 0.63513 0.84902 0.44586 0.0
C497 C 0.60869 0.84962 0.43186 0.0
H498 H 0.60225 0.84048 0.4236 0.0
H499 H 0.60508 0.85901 0.41685 0.0
H500 H 0.60706 0.85151 0.46093 0.0
O501 O 0.62046 0.81434 0.34684 0.0
O502 O 0.64354 0.81123 0.34848 0.0
H503 H 0.66588 0.83248 0.43432 0.0
H504 H 0.66195 0.84455 0.47018 0.0
C505 C 0.66134 0.84288 0.44081 0.0
H506 H 0.66767 0.85121 0.42792 0.0
H507 H 0.67012 0.80622 0.37317 0.0
O508 O 0.59819 0.8392 0.35658 0.0
C509 C 0.63113 0.80629 0.34627 0.0
Co510 Co 0.91938 0.86788 0.09963 0.0
Co511 Co 0.92245 0.90091 0.10466 0.0
C512 C 0.90653 0.88751 0.04472 0.0
O513 O 0.90962 0.87554 0.05768 0.0
O514 O 0.91057 0.89885 0.05997 0.0
C515 C 0.90296 0.84263 0.09648 0.0
O516 O 0.89288 0.85137 0.08752 0.0
C517 C 0.91662 0.93135 0.1218 0.0
C518 C 0.93739 0.9371 0.14374 0.0
C519 C 0.92394 0.94223 0.1386 0.0
N520 N 0.92535 0.92024 0.11826 0.0
N521 N 0.93778 0.92394 0.1309 0.0
C522 C 0.90189 0.93171 0.10775 0.0
H523 H 0.90046 0.92366 0.08656 0.0
H524 H 0.89433 0.92951 0.12958 0.0
H525 H 0.89948 0.9423 0.09691 0.0
C526 C 0.90775 0.87192 0.17205 0.0
N527 N 0.91314 0.87709 0.14143 0.0
N528 N 0.91433 0.89085 0.14412 0.0
C529 C 0.90984 0.89479 0.17702 0.0
C530 C 0.90535 0.88294 0.19536 0.0
C531 C 0.90605 0.8566 0.18006 0.0
H532 H 0.91524 0.85068 0.16983 0.0
H533 H 0.89646 0.85266 0.16652 0.0
H534 H 0.90504 0.85465 0.20928 0.0
O535 O 0.9398 0.87015 0.0947 0.0
O536 O 0.94186 0.89336 0.09645 0.0
H537 H 0.92062 0.91402 0.1883 0.0
H538 H 0.90658 0.91014 0.2193 0.0
C539 C 0.90994 0.90952 0.1909 0.0
H540 H 0.90258 0.9159 0.17484 0.0
H541 H 0.94643 0.91724 0.13217 0.0
O542 O 0.91519 0.84744 0.10245 0.0
C543 C 0.94734 0.88118 0.0938 0.0
Co544 Co 0.61792 0.66845 0.8498 0.0
Co545 Co 0.65077 0.67329 0.85318 0.0
C546 C 0.63773 0.65667 0.79392 0.0
O547 O 0.62567 0.65867 0.80777 0.0
O548 O 0.64883 0.66184 0.80796 0.0
C549 C 0.5934 0.65085 0.84973 0.0
O550 O 0.60252 0.64095 0.84203 0.0
C551 C 0.68157 0.66853 0.86726 0.0
C552 C 0.68671 0.68895 0.89212 0.0
C553 C 0.69231 0.67588 0.88452 0.0
N554 N 0.67009 0.67684 0.86583 0.0
N555 N 0.67341 0.6891 0.88014 0.0
C556 C 0.6824 0.65415 0.85109 0.0
H557 H 0.67415 0.65279 0.83037 0.0
H558 H 0.68084 0.64603 0.87196 0.0
H559 H 0.69294 0.65247 0.83909 0.0
C560 C 0.623 0.65773 0.92266 0.0
N561 N 0.62771 0.66293 0.89133 0.0
N562 N 0.64146 0.66437 0.89279 0.0
C563 C 0.64592 0.65994 0.92529 0.0
C564 C 0.63438 0.6555 0.94505 0.0
C565 C 0.6078 0.65636 0.93229 0.0
H566 H 0.60172 0.66513 0.92047 0.0
H567 H 0.6037 0.6463 0.92149 0.0
H568 H 0.60624 0.65644 0.96178 0.0
O569 O 0.61923 0.68897 0.84426 0.0
O570 O 0.64227 0.6924 0.84638 0.0
H571 H 0.66507 0.67067 0.9376 0.0
H572 H 0.66228 0.65496 0.96392 0.0
C573 C 0.66092 0.65979 0.93712 0.0
H574 H 0.66711 0.65356 0.91784 0.0
H575 H 0.66638 0.69741 0.8832 0.0
O576 O 0.59772 0.66339 0.85381 0.0
C577 C 0.62979 0.69716 0.84371 0.0
Co578 Co 0.58815 0.36657 0.10584 0.0
Co579 Co 0.58111 0.39895 0.10909 0.0
C580 C 0.59736 0.38601 0.04768 0.0
O581 O 0.59644 0.37386 0.0617 0.0
O582 O 0.59184 0.39679 0.06251 0.0
C583 C 0.60123 0.33953 0.09153 0.0
O584 O 0.60634 0.34569 0.06285 0.0
C585 C 0.58726 0.42885 0.1261 0.0
C586 C 0.5659 0.43665 0.13761 0.0
C587 C 0.57991 0.44055 0.13845 0.0
N588 N 0.57799 0.41848 0.11931 0.0
N589 N 0.56523 0.42334 0.12569 0.0
C590 C 0.60271 0.42767 0.1193 0.0
H591 H 0.60474 0.4198 0.09796 0.0
H592 H 0.60818 0.42413 0.14387 0.0
H593 H 0.60711 0.43801 0.11141 0.0
C594 C 0.60233 0.37324 0.17331 0.0
N595 N 0.59484 0.37724 0.14457 0.0
N596 N 0.59102 0.39045 0.1482 0.0
C597 C 0.5953 0.39501 0.18077 0.0
C598 C 0.60282 0.38433 0.19728 0.0
C599 C 0.60912 0.35913 0.17707 0.0
H600 H 0.601 0.35123 0.18413 0.0
H601 H 0.61393 0.35603 0.15118 0.0
H602 H 0.61738 0.35918 0.19804 0.0
O603 O 0.56734 0.36726 0.10433 0.0
O604 O 0.56225 0.39 0.10533 0.0
H605 H 0.58031 0.41181 0.18679 0.0
H606 H 0.58869 0.40634 0.22778 0.0
C607 C 0.59032 0.40818 0.19867 0.0
H608 H 0.59838 0.41649 0.19608 0.0
H609 H 0.55608 0.41737 0.12332 0.0
O610 O 0.59336 0.34647 0.11264 0.0
C611 C 0.55838 0.3772 0.1043 0.0
Co612 Co 0.88606 0.33441 0.3493 0.0
Co613 Co 0.85332 0.32914 0.3535 0.0
C614 C 0.86621 0.34658 0.29491 0.0
O615 O 0.8784 0.34455 0.30792 0.0
O616 O 0.85528 0.34118 0.30925 0.0
C617 C 0.91136 0.35113 0.3472 0.0
O618 O 0.90281 0.36117 0.33687 0.0
C619 C 0.82319 0.33505 0.37059 0.0
C620 C 0.81639 0.31384 0.38709 0.0
C621 C 0.81191 0.32766 0.38526 0.0
N622 N 0.83389 0.326 0.3652 0.0
N623 N 0.82959 0.31332 0.37448 0.0
C624 C 0.82366 0.35025 0.36033 0.0
H625 H 0.83103 0.35182 0.33762 0.0
H626 H 0.82746 0.35666 0.38313 0.0
H627 H 0.81303 0.35401 0.3528 0.0
C628 C 0.88106 0.34527 0.42214 0.0
N629 N 0.87632 0.33982 0.39112 0.0
N630 N 0.86275 0.33729 0.39389 0.0
C631 C 0.85858 0.34067 0.42747 0.0
C632 C 0.86998 0.34609 0.44595 0.0
C633 C 0.89616 0.34845 0.42993 0.0
H634 H 0.90281 0.33951 0.42131 0.0
H635 H 0.89935 0.35791 0.41465 0.0
H636 H 0.89798 0.3504 0.4589 0.0
O637 O 0.88452 0.31383 0.34278 0.0
O638 O 0.86151 0.31018 0.34506 0.0
H639 H 0.8405 0.32751 0.43442 0.0
H640 H 0.84408 0.33882 0.47212 0.0
C641 C 0.84423 0.33807 0.44247 0.0
H642 H 0.83689 0.34606 0.43201 0.0
H643 H 0.8359 0.30436 0.37374 0.0
O644 O 0.9064 0.33898 0.35362 0.0
C645 C 0.87401 0.30556 0.34187 0.0
Co646 Co 0.91566 0.63623 0.59997 0.0
Co647 Co 0.92043 0.60343 0.60523 0.0
C648 C 0.90484 0.61672 0.54344 0.0
O649 O 0.90668 0.6289 0.55669 0.0
O650 O 0.90964 0.60572 0.55884 0.0
C651 C 0.9006 0.66245 0.59162 0.0
O652 O 0.89141 0.6547 0.57433 0.0
C653 C 0.91309 0.57401 0.62499 0.0
C654 C 0.93424 0.56513 0.63366 0.0
C655 C 0.92009 0.562 0.63662 0.0
N656 N 0.92272 0.58383 0.61641 0.0
N657 N 0.93532 0.57833 0.62114 0.0
C658 C 0.8976 0.57598 0.62024 0.0
H659 H 0.89506 0.58729 0.617 0.0
H660 H 0.89164 0.57152 0.64303 0.0
H661 H 0.89424 0.57031 0.5957 0.0
C662 C 0.90197 0.63129 0.66942 0.0
N663 N 0.90869 0.62647 0.6402 0.0
N664 N 0.91129 0.61296 0.64407 0.0
C665 C 0.90682 0.60895 0.67694 0.0
C666 C 0.90061 0.62037 0.69365 0.0
C667 C 0.89656 0.64598 0.67331 0.0
H668 H 0.90554 0.6534 0.67436 0.0
H669 H 0.89004 0.6486 0.64966 0.0
H670 H 0.89 0.6473 0.69763 0.0
O671 O 0.93637 0.63429 0.59741 0.0
O672 O 0.93972 0.61125 0.60041 0.0
H673 H 0.92009 0.59087 0.68401 0.0
H674 H 0.91096 0.5964 0.72391 0.0
C675 C 0.91008 0.59518 0.69438 0.0
H676 H 0.90142 0.58771 0.68902 0.0
H677 H 0.94471 0.58377 0.61711 0.0
O678 O 0.91156 0.65668 0.60438 0.0
C679 C 0.94454 0.6237 0.59803 0.0
Co680 Co 0.61992 0.34107 0.64078 0.0
Co681 Co 0.6521 0.33338 0.64156 0.0
C682 C 0.63863 0.35086 0.69977 0.0
O683 O 0.62673 0.35004 0.68445 0.0
O684 O 0.64952 0.34483 0.68691 0.0
C685 C 0.59044 0.34476 0.6544 0.0
O686 O 0.59328 0.33794 0.68417 0.0
C687 C 0.68216 0.33865 0.62548 0.0
C688 C 0.68952 0.31699 0.61582 0.0
C689 C 0.69369 0.33091 0.61346 0.0
N690 N 0.67165 0.32966 0.63328 0.0
N691 N 0.67626 0.31674 0.62816 0.0
C692 C 0.68116 0.35421 0.63072 0.0
H693 H 0.67396 0.35659 0.65331 0.0
H694 H 0.67678 0.35923 0.60639 0.0
H695 H 0.69168 0.35876 0.63613 0.0
C696 C 0.62768 0.35349 0.57192 0.0
N697 N 0.63122 0.34679 0.60228 0.0
N698 N 0.64442 0.34272 0.60046 0.0
C699 C 0.64942 0.34603 0.56756 0.0
C700 C 0.63906 0.35318 0.54888 0.0
C701 C 0.61363 0.36006 0.5654 0.0
H702 H 0.60583 0.35169 0.55968 0.0
H703 H 0.6102 0.3658 0.58976 0.0
H704 H 0.61393 0.36751 0.54253 0.0
O705 O 0.61997 0.32023 0.64481 0.0
O706 O 0.64265 0.31486 0.64645 0.0
H707 H 0.66576 0.3304 0.56492 0.0
H708 H 0.66116 0.33813 0.52247 0.0
C709 C 0.66265 0.34028 0.55149 0.0
H710 H 0.67119 0.34811 0.55387 0.0
H711 H 0.67011 0.30774 0.63128 0.0
O712 O 0.60028 0.34718 0.63225 0.0
C713 C 0.62979 0.31116 0.64677 0.0
Co714 Co 0.91595 0.36904 0.90249 0.0
Co715 Co 0.92178 0.40164 0.89477 0.0
C716 C 0.90411 0.39014 0.95438 0.0
O717 O 0.90587 0.37772 0.9426 0.0
O718 O 0.90976 0.40078 0.9393 0.0
C719 C 0.89849 0.34429 0.90758 0.0
O720 O 0.88875 0.35326 0.91748 0.0
C721 C 0.9171 0.43159 0.87305 0.0
C722 C 0.93863 0.43695 0.85578 0.0
C723 C 0.925 0.44202 0.85612 0.0
N724 N 0.9257 0.42076 0.88103 0.0
N725 N 0.93859 0.42427 0.87151 0.0
C726 C 0.90155 0.43129 0.87855 0.0
H727 H 0.8979 0.42039 0.88365 0.0
H728 H 0.89603 0.43575 0.85494 0.0
H729 H 0.8989 0.43785 0.9022 0.0
C730 C 0.90535 0.37289 0.8291 0.0
N731 N 0.91082 0.37814 0.85956 0.0
N732 N 0.91332 0.39167 0.85543 0.0
C733 C 0.90978 0.39531 0.82154 0.0
C734 C 0.9044 0.3836 0.80424 0.0
C735 C 0.90228 0.35766 0.82284 0.0
H736 H 0.91114 0.35118 0.83272 0.0
H737 H 0.89267 0.35471 0.83786 0.0
H738 H 0.90061 0.35533 0.79399 0.0
O739 O 0.93656 0.37015 0.90898 0.0
O740 O 0.94051 0.39303 0.90403 0.0
H741 H 0.92238 0.41365 0.81264 0.0
H742 H 0.91091 0.40936 0.77579 0.0
C743 C 0.91188 0.40954 0.80539 0.0
H744 H 0.9037 0.41672 0.81569 0.0
H745 H 0.94727 0.41764 0.8737 0.0
O746 O 0.91075 0.3488 0.90044 0.0
C747 C 0.94497 0.38055 0.90861 0.0
Co748 Co 0.88423 0.66661 0.13995 0.0
Co749 Co 0.85162 0.67277 0.13982 0.0
C750 C 0.86545 0.65533 0.19736 0.0
O751 O 0.8774 0.65689 0.18272 0.0
O752 O 0.85439 0.66098 0.18438 0.0
C753 C 0.90989 0.65045 0.14354 0.0
O754 O 0.90194 0.64118 0.15993 0.0
C755 C 0.82187 0.66627 0.12247 0.0
C756 C 0.81352 0.68766 0.1142 0.0
C757 C 0.81003 0.67359 0.11084 0.0
N758 N 0.83194 0.67565 0.13106 0.0
N759 N 0.82674 0.6884 0.12676 0.0
C760 C 0.82354 0.65072 0.12665 0.0
H761 H 0.83059 0.64842 0.14962 0.0
H762 H 0.82843 0.64618 0.10235 0.0
H763 H 0.81318 0.64562 0.13089 0.0
C764 C 0.87738 0.6548 0.06924 0.0
N765 N 0.87345 0.66087 0.10021 0.0
N766 N 0.86005 0.66426 0.0985 0.0
C767 C 0.85526 0.66109 0.06532 0.0
C768 C 0.86599 0.65473 0.04623 0.0
C769 C 0.89179 0.64915 0.06213 0.0
H770 H 0.89942 0.65796 0.06156 0.0
H771 H 0.89479 0.64194 0.08415 0.0
H772 H 0.89233 0.64329 0.03647 0.0
O773 O 0.88304 0.68735 0.14527 0.0
O774 O 0.86013 0.69166 0.14606 0.0
H775 H 0.83822 0.67598 0.06337 0.0
H776 H 0.84324 0.66886 0.02056 0.0
C777 C 0.84181 0.66637 0.04942 0.0
H778 H 0.83364 0.65813 0.05113 0.0
H779 H 0.83244 0.69763 0.13066 0.0
O780 O 0.90444 0.66189 0.13273 0.0
C781 C 0.8728 0.69594 0.14713 0.0
Co782 Co 0.58471 0.63508 0.40066 0.0
Co783 Co 0.57999 0.60229 0.39226 0.0
C784 C 0.59718 0.61436 0.45238 0.0
O785 O 0.59507 0.62672 0.44068 0.0
O786 O 0.59186 0.60357 0.43714 0.0
C787 C 0.60146 0.66019 0.40641 0.0
O788 O 0.61121 0.65139 0.41721 0.0
C789 C 0.58556 0.57267 0.36882 0.0
C790 C 0.56388 0.56623 0.3557 0.0
C791 C 0.57772 0.56187 0.35325 0.0
N792 N 0.57669 0.58303 0.37874 0.0
N793 N 0.56374 0.57886 0.37168 0.0
C794 C 0.60119 0.57375 0.37131 0.0
H795 H 0.60443 0.58482 0.37576 0.0
H796 H 0.60622 0.56954 0.34671 0.0
H797 H 0.60486 0.56736 0.39436 0.0
C798 C 0.59549 0.63165 0.32719 0.0
N799 N 0.59016 0.62617 0.35756 0.0
N800 N 0.58817 0.61256 0.35321 0.0
C801 C 0.59189 0.60912 0.31931 0.0
C802 C 0.59687 0.62102 0.30237 0.0
C803 C 0.59874 0.64687 0.32153 0.0
H804 H 0.58961 0.65335 0.32967 0.0
H805 H 0.60786 0.64982 0.33842 0.0
H806 H 0.60135 0.64916 0.29312 0.0
O807 O 0.56411 0.63331 0.40763 0.0
O808 O 0.56101 0.61034 0.40064 0.0
H809 H 0.57934 0.59062 0.31141 0.0
H810 H 0.58856 0.59649 0.27198 0.0
C811 C 0.58926 0.59528 0.30155 0.0
H812 H 0.59812 0.58812 0.30728 0.0
H813 H 0.55482 0.58501 0.37578 0.0
O814 O 0.58935 0.65547 0.39849 0.0
C815 C 0.55613 0.6226 0.40613 0.0
Co816 Co 0.38431 0.33556 0.14384 0.0
Co817 Co 0.3516 0.3301 0.14404 0.0
C818 C 0.36595 0.34588 0.20366 0.0
O819 O 0.37777 0.34385 0.18866 0.0
O820 O 0.35454 0.34153 0.18936 0.0
C821 C 0.41375 0.33882 0.15979 0.0
O822 O 0.4104 0.33257 0.19002 0.0
C823 C 0.32154 0.33584 0.1262 0.0
C824 C 0.31433 0.31415 0.11629 0.0
C825 C 0.31026 0.32806 0.11288 0.0
N826 N 0.33189 0.32686 0.13555 0.0
N827 N 0.32726 0.31393 0.13062 0.0
C828 C 0.32305 0.35148 0.12689 0.0
H829 H 0.33428 0.3545 0.12912 0.0
H830 H 0.31829 0.35628 0.10267 0.0
H831 H 0.31739 0.35563 0.15064 0.0
C832 C 0.37753 0.34864 0.07501 0.0
N833 N 0.37341 0.34225 0.10537 0.0
N834 N 0.35998 0.33902 0.10315 0.0
C835 C 0.35538 0.34256 0.07001 0.0
C836 C 0.36625 0.34911 0.05177 0.0
C837 C 0.39237 0.35279 0.06711 0.0
H838 H 0.39909 0.34327 0.06714 0.0
H839 H 0.39622 0.35993 0.0885 0.0
H840 H 0.39339 0.35807 0.04073 0.0
O841 O 0.38328 0.31484 0.14611 0.0
O842 O 0.36029 0.31107 0.14882 0.0
H843 H 0.33757 0.32871 0.06679 0.0
H844 H 0.34222 0.33689 0.02503 0.0
C845 C 0.34147 0.33851 0.05439 0.0
H846 H 0.33387 0.34713 0.05874 0.0
H847 H 0.33331 0.30493 0.13464 0.0
O848 O 0.40423 0.34107 0.1366 0.0
C849 C 0.37287 0.30648 0.14832 0.0
Co850 Co 0.41819 0.6352 0.90139 0.0
Co851 Co 0.42233 0.60238 0.8931 0.0
C852 C 0.40673 0.61428 0.95534 0.0
O853 O 0.40892 0.62657 0.94305 0.0
O854 O 0.4114 0.60334 0.93937 0.0
C855 C 0.40082 0.65977 0.90635 0.0
O856 O 0.39101 0.65058 0.91434 0.0
C857 C 0.41789 0.57174 0.8746 0.0
C858 C 0.43804 0.56783 0.84698 0.0
C859 C 0.42531 0.56162 0.8552 0.0
N860 N 0.42586 0.58346 0.87678 0.0
N861 N 0.43794 0.58087 0.86065 0.0
C862 C 0.40386 0.57007 0.89219 0.0
H863 H 0.40235 0.57821 0.91312 0.0
H864 H 0.39535 0.57115 0.87211 0.0
H865 H 0.40298 0.55944 0.90421 0.0
C866 C 0.40584 0.63174 0.82959 0.0
N867 N 0.41186 0.62638 0.85922 0.0
N868 N 0.41299 0.61265 0.85582 0.0
C869 C 0.40756 0.60888 0.82375 0.0
C870 C 0.40273 0.62083 0.80641 0.0
C871 C 0.40421 0.64712 0.82221 0.0
H872 H 0.41327 0.653 0.83328 0.0
H873 H 0.39444 0.65095 0.83511 0.0
H874 H 0.40352 0.64923 0.793 0.0
O875 O 0.43875 0.63362 0.90482 0.0
O876 O 0.44154 0.61057 0.9 0.0
H877 H 0.41737 0.58969 0.80757 0.0
H878 H 0.40114 0.59339 0.78423 0.0
C879 C 0.40665 0.59411 0.81034 0.0
H880 H 0.40077 0.58776 0.83001 0.0
H881 H 0.44598 0.58823 0.85775 0.0
O882 O 0.41325 0.65547 0.90048 0.0
C883 C 0.44666 0.62286 0.90369 0.0
Co884 Co 0.11759 0.66666 0.6442 0.0
Co885 Co 0.15041 0.67135 0.64266 0.0
C886 C 0.1362 0.65577 0.70285 0.0
O887 O 0.12431 0.65805 0.68849 0.0
O888 O 0.14756 0.66001 0.6881 0.0
C889 C 0.09161 0.65121 0.65073 0.0
O890 O 0.09941 0.64215 0.66827 0.0
C891 C 0.18013 0.66441 0.62454 0.0
C892 C 0.18852 0.68574 0.61555 0.0
C893 C 0.19197 0.67166 0.61254 0.0
N894 N 0.1701 0.67385 0.63303 0.0
N895 N 0.17534 0.68656 0.62827 0.0
C896 C 0.17848 0.64889 0.62943 0.0
H897 H 0.17108 0.64672 0.65175 0.0
H898 H 0.17407 0.64408 0.60486 0.0
H899 H 0.1888 0.64393 0.63502 0.0
C900 C 0.12361 0.65356 0.57451 0.0
N901 N 0.128 0.65976 0.6049 0.0
N902 N 0.14151 0.66262 0.60236 0.0
C903 C 0.14593 0.65895 0.56919 0.0
C904 C 0.13482 0.65282 0.55098 0.0
C905 C 0.10891 0.64857 0.56821 0.0
H906 H 0.10172 0.65773 0.56727 0.0
H907 H 0.10566 0.64173 0.59076 0.0
H908 H 0.10795 0.64249 0.54295 0.0
O909 O 0.11935 0.68734 0.64685 0.0
O910 O 0.14242 0.69063 0.64777 0.0
H911 H 0.1635 0.67316 0.56569 0.0
H912 H 0.15781 0.66603 0.52346 0.0
C913 C 0.15942 0.66363 0.55231 0.0
H914 H 0.16727 0.65509 0.55379 0.0
H915 H 0.1697 0.69583 0.63206 0.0
O916 O 0.09726 0.66229 0.63826 0.0
C917 C 0.12995 0.69548 0.64825 0.0
Co918 Co 0.08763 0.36906 0.39446 0.0
Co919 Co 0.08142 0.40167 0.39138 0.0
C920 C 0.09836 0.38853 0.45104 0.0
O921 O 0.09697 0.3764 0.43719 0.0
O922 O 0.0928 0.39943 0.43696 0.0
C923 C 0.10349 0.34321 0.40103 0.0
O924 O 0.11259 0.3511 0.4182 0.0
C925 C 0.08775 0.43152 0.37339 0.0
C926 C 0.06639 0.43922 0.3614 0.0
C927 C 0.08041 0.44313 0.36024 0.0
N928 N 0.07846 0.42122 0.38078 0.0
N929 N 0.06571 0.42605 0.37417 0.0
C930 C 0.10319 0.4303 0.38026 0.0
H931 H 0.10515 0.42278 0.40245 0.0
H932 H 0.1086 0.42626 0.3561 0.0
H933 H 0.10771 0.44072 0.38706 0.0
C934 C 0.10038 0.37515 0.32442 0.0
N935 N 0.09377 0.3794 0.35437 0.0
N936 N 0.09043 0.39278 0.35138 0.0
C937 C 0.09418 0.39723 0.31829 0.0
C938 C 0.10082 0.38628 0.30058 0.0
C939 C 0.10646 0.36078 0.31942 0.0
H940 H 0.09783 0.35299 0.31763 0.0
H941 H 0.11304 0.35814 0.34296 0.0
H942 H 0.1131 0.36009 0.29507 0.0
O943 O 0.06686 0.37027 0.39856 0.0
O944 O 0.06248 0.39316 0.39704 0.0
H945 H 0.07949 0.41431 0.31333 0.0
H946 H 0.08792 0.40929 0.27206 0.0
C947 C 0.08949 0.4107 0.30135 0.0
H948 H 0.09766 0.41884 0.30494 0.0
H949 H 0.05656 0.42011 0.37681 0.0
O950 O 0.09232 0.34876 0.3888 0.0
C951 C 0.05823 0.38049 0.39901 0.0
Co952 Co 0.3846 0.66726 0.3512 0.0
Co953 Co 0.35166 0.67154 0.35422 0.0
C954 C 0.36472 0.65383 0.29764 0.0
O955 O 0.37673 0.65622 0.31131 0.0
O956 O 0.35355 0.65929 0.31049 0.0
C957 C 0.40871 0.64974 0.36133 0.0
O958 O 0.39917 0.63995 0.36611 0.0
C959 C 0.32083 0.66688 0.36878 0.0
C960 C 0.31591 0.68734 0.39372 0.0
C961 C 0.3102 0.67428 0.38633 0.0
N962 N 0.33236 0.67513 0.36707 0.0
N963 N 0.32916 0.68741 0.38141 0.0
C964 C 0.31989 0.65249 0.35272 0.0
H965 H 0.3276 0.65135 0.33061 0.0
H966 H 0.32226 0.64442 0.37323 0.0
H967 H 0.30911 0.65053 0.34253 0.0
C968 C 0.37975 0.65898 0.42661 0.0
N969 N 0.37502 0.66288 0.39408 0.0
N970 N 0.36119 0.66358 0.3948 0.0
C971 C 0.35674 0.65968 0.42774 0.0
C972 C 0.36835 0.65656 0.44873 0.0
C973 C 0.39484 0.65937 0.43794 0.0
H974 H 0.40081 0.66697 0.42141 0.0
H975 H 0.39948 0.64876 0.43496 0.0
H976 H 0.39575 0.66242 0.46659 0.0
O977 O 0.38304 0.68756 0.34231 0.0
O978 O 0.35995 0.69061 0.34507 0.0
H979 H 0.33704 0.66936 0.43982 0.0
H980 H 0.34041 0.65357 0.46529 0.0
C981 C 0.34168 0.65869 0.4388 0.0
H982 H 0.33592 0.65238 0.41885 0.0
H983 H 0.33626 0.69569 0.3843 0.0
O984 O 0.40486 0.66224 0.35458 0.0
C985 C 0.37232 0.69554 0.34127 0.0
Co986 Co 0.086 0.63662 0.10119 0.0
Co987 Co 0.08166 0.60371 0.1043 0.0
C988 C 0.09745 0.61759 0.04397 0.0
O989 O 0.09496 0.62957 0.05766 0.0
O990 O 0.09319 0.6063 0.05906 0.0
C991 C 0.10118 0.66279 0.09385 0.0
O992 O 0.11032 0.65503 0.07642 0.0
C993 C 0.08846 0.57385 0.12241 0.0
C994 C 0.06714 0.56594 0.13399 0.0
C995 C 0.08117 0.56214 0.1352 0.0
N996 N 0.0791 0.5841 0.11511 0.0
N997 N 0.06639 0.57915 0.12152 0.0
C998 C 0.1039 0.57515 0.11556 0.0
H999 H 0.10586 0.58298 0.0941 0.0
H1000 H 0.10934 0.57879 0.14009 0.0
H1001 H 0.10837 0.56482 0.10779 0.0
C1002 C 0.09904 0.63124 0.17124 0.0
N1003 N 0.09277 0.62658 0.14122 0.0
N1004 N 0.09018 0.61303 0.1443 0.0
C1005 C 0.09414 0.60884 0.17746 0.0
C1006 C 0.10007 0.62019 0.19519 0.0
C1007 C 0.10421 0.64596 0.17631 0.0
H1008 H 0.09513 0.65324 0.17736 0.0
H1009 H 0.11087 0.64892 0.15316 0.0
H1010 H 0.11056 0.64714 0.20105 0.0
O1011 O 0.06536 0.63466 0.09781 0.0
O1012 O 0.06237 0.61155 0.098 0.0
H1013 H 0.08054 0.59089 0.18253 0.0
H1014 H 0.08879 0.59634 0.22369 0.0
C1015 C 0.09033 0.59509 0.19435 0.0
H1016 H 0.09898 0.58748 0.19044 0.0
H1017 H 0.05718 0.585 0.11883 0.0
O1018 O 0.09016 0.65706 0.10641 0.0
C1019 C 0.05737 0.62395 0.09663 0.0
Co1020 Co 0.11776 0.33777 0.85542 0.0
Co1021 Co 0.15048 0.33235 0.85757 0.0
C1022 C 0.13652 0.34853 0.79745 0.0
O1023 O 0.12449 0.34683 0.81164 0.0
O1024 O 0.14763 0.3435 0.81185 0.0
C1025 C 0.0912 0.35259 0.84943 0.0
O1026 O 0.09841 0.36165 0.83029 0.0
C1027 C 0.18015 0.3394 0.87557 0.0
C1028 C 0.18872 0.31812 0.88426 0.0
C1029 C 0.19209 0.33224 0.88721 0.0
N1030 N 0.17016 0.3299 0.86724 0.0
N1031 N 0.17549 0.31722 0.87189 0.0
C1032 C 0.17839 0.35492 0.87083 0.0
H1033 H 0.17061 0.35707 0.84935 0.0
H1034 H 0.17443 0.35972 0.89588 0.0
H1035 H 0.1886 0.35989 0.86412 0.0
C1036 C 0.12397 0.35113 0.92461 0.0
N1037 N 0.12822 0.34446 0.89476 0.0
N1038 N 0.14162 0.34121 0.89773 0.0
C1039 C 0.14606 0.34498 0.9308 0.0
C1040 C 0.1351 0.35163 0.94846 0.0
C1041 C 0.1096 0.35719 0.92955 0.0
H1042 H 0.10191 0.34853 0.933 0.0
H1043 H 0.10668 0.36325 0.90532 0.0
H1044 H 0.10906 0.36431 0.95303 0.0
O1045 O 0.11945 0.31701 0.85205 0.0
O1046 O 0.14243 0.3132 0.85245 0.0
H1047 H 0.16339 0.33049 0.93476 0.0
H1048 H 0.15765 0.33778 0.97683 0.0
C1049 C 0.15942 0.3401 0.948 0.0
H1050 H 0.16743 0.3485 0.9466 0.0
H1051 H 0.16989 0.30791 0.86815 0.0
O1052 O 0.09741 0.34189 0.86231 0.0
C1053 C 0.12987 0.30863 0.85119 0.0
Co1054 Co 0.4169 0.36743 0.60221 0.0
Co1055 Co 0.42146 0.40028 0.60332 0.0
C1056 C 0.40547 0.38634 0.54409 0.0
O1057 O 0.40786 0.37449 0.55866 0.0
O1058 O 0.40991 0.39774 0.55825 0.0
C1059 C 0.40005 0.3423 0.6005 0.0
O1060 O 0.39009 0.35093 0.59009 0.0
C1061 C 0.41558 0.43053 0.61852 0.0
C1062 C 0.43678 0.43754 0.63466 0.0
C1063 C 0.42295 0.44195 0.63259 0.0
N1064 N 0.42466 0.41983 0.61363 0.0
N1065 N 0.43734 0.42425 0.62265 0.0
C1066 C 0.40041 0.42985 0.60812 0.0
H1067 H 0.39643 0.41894 0.61073 0.0
H1068 H 0.39389 0.43719 0.62401 0.0
H1069 H 0.39947 0.43289 0.57948 0.0
C1070 C 0.40467 0.37329 0.67303 0.0
N1071 N 0.41059 0.37769 0.64228 0.0
N1072 N 0.41256 0.39139 0.6437 0.0
C1073 C 0.4081 0.39605 0.67605 0.0
C1074 C 0.40276 0.38477 0.69518 0.0
C1075 C 0.40213 0.35821 0.68239 0.0
H1076 H 0.41123 0.35175 0.67396 0.0
H1077 H 0.39266 0.35445 0.66799 0.0
H1078 H 0.40048 0.35676 0.71161 0.0
O1079 O 0.4374 0.36891 0.59855 0.0
O1080 O 0.4407 0.39197 0.59734 0.0
H1081 H 0.41975 0.41513 0.68309 0.0
H1082 H 0.40716 0.41177 0.71817 0.0
C1083 C 0.40917 0.41089 0.68899 0.0
H1084 H 0.40117 0.41734 0.67513 0.0
H1085 H 0.44631 0.41796 0.62226 0.0
O1086 O 0.41223 0.34715 0.60703 0.0
C1087 C 0.44554 0.37948 0.59671 0.0
H1088 H 0.10473 0.13927 0.99083 0.0
H1089 H 0.11742 0.13981 0.04685 0.0
H1090 H 0.1204 0.09461 0.04624 0.0
H1091 H 0.10717 0.0939 0.98943 0.0
H1092 H 0.11264 0.10402 0.11072 0.0
H1093 H 0.15815 0.1354 0.06928 0.0
H1094 H 0.1426 0.14434 0.05497 0.0
H1095 H 0.14662 0.12719 0.037 0.0
C1096 C 0.10814 0.12936 0.00215 0.0
C1097 C 0.10493 0.11651 0.98535 0.0
C1098 C 0.1156 0.12973 0.03418 0.0
C1099 C 0.12031 0.1173 0.05029 0.0
C1100 C 0.11709 0.10437 0.03394 0.0
H1101 H 0.15951 0.14505 0.25333 0.0
H1102 H 0.1584 0.13169 0.19677 0.0
C1103 C 0.10949 0.10397 0.00159 0.0
C1104 C 0.12737 0.11818 0.0858 0.0
H1105 H 0.15005 0.13939 0.1316 0.0
C1106 C 0.12112 0.11143 0.1152 0.0
C1107 C 0.13877 0.12745 0.09189 0.0
C1108 C 0.147 0.13385 0.06144 0.0
C1109 C 0.12485 0.11498 0.1505 0.0
C1110 C 0.13474 0.12585 0.15648 0.0
C1111 C 0.14217 0.13134 0.12717 0.0
C1112 C 0.13579 0.13315 0.19166 0.0
C1113 C 0.11765 0.10747 0.18101 0.0
C1114 C 0.12357 0.13871 0.20702 0.0
C1115 C 0.12416 0.14624 0.23897 0.0
C1116 C 0.13706 0.14866 0.25634 0.0
C1117 C 0.14942 0.14335 0.24068 0.0
C1118 C 0.14878 0.13567 0.20849 0.0
H1119 H 0.11545 0.09636 0.17376 0.0
H1120 H 0.12409 0.10766 0.20585 0.0
H1121 H 0.10742 0.1126 0.18654 0.0
H1122 H 0.11349 0.13746 0.19393 0.0
H1123 H 0.11442 0.15031 0.2498 0.0
H1124 H 0.1184 0.87114 0.52341 0.0
H1125 H 0.12895 0.87008 0.46396 0.0
H1126 H 0.10441 0.90587 0.431 0.0
H1127 H 0.09377 0.90707 0.49112 0.0
H1128 H 0.10103 0.88062 0.3893 0.0
H1129 H 0.1573 0.89403 0.406 0.0
H1130 H 0.15067 0.88191 0.43881 0.0
H1131 H 0.14394 0.89953 0.43748 0.0
C1132 C 0.11546 0.879 0.5038 0.0
C1133 C 0.10518 0.88914 0.51181 0.0
C1134 C 0.12161 0.87845 0.4699 0.0
C1135 C 0.11759 0.88798 0.44318 0.0
C1136 C 0.10776 0.89852 0.45145 0.0
H1137 H 0.1256 0.87444 0.21287 0.0
H1138 H 0.12212 0.88604 0.27066 0.0
C1139 C 0.10172 0.89921 0.48573 0.0
C1140 C 0.12213 0.88546 0.4057 0.0
H1141 H 0.15115 0.8812 0.35289 0.0
C1142 C 0.11195 0.88102 0.38105 0.0
C1143 C 0.13642 0.88572 0.39535 0.0
C1144 C 0.14772 0.89067 0.42069 0.0
C1145 C 0.1157 0.87624 0.34678 0.0
C1146 C 0.13002 0.87636 0.33639 0.0
C1147 C 0.14019 0.88114 0.36079 0.0
C1148 C 0.13453 0.87107 0.3007 0.0
C1149 C 0.10431 0.87041 0.32281 0.0
C1150 C 0.14359 0.85945 0.29793 0.0
C1151 C 0.14592 0.85301 0.2646 0.0
C1152 C 0.13908 0.85805 0.23384 0.0
C1153 C 0.13087 0.87027 0.23633 0.0
C1154 C 0.1288 0.87685 0.26934 0.0
H1155 H 0.09475 0.86752 0.33825 0.0
H1156 H 0.10125 0.87849 0.30286 0.0
H1157 H 0.10801 0.86096 0.30812 0.0
H1158 H 0.14821 0.85488 0.32177 0.0
H1159 H 0.15224 0.84357 0.26332 0.0
H1160 H 0.38907 0.8507 0.74895 0.0
H1161 H 0.38984 0.8637 0.6933 0.0
H1162 H 0.34545 0.87214 0.70119 0.0
H1163 H 0.34448 0.85864 0.75757 0.0
H1164 H 0.35246 0.86439 0.63448 0.0
H1165 H 0.38989 0.90512 0.67598 0.0
H1166 H 0.39712 0.88835 0.68734 0.0
H1167 H 0.38098 0.89407 0.70815 0.0
C1168 C 0.37941 0.85537 0.73926 0.0
C1169 C 0.36671 0.8537 0.75803 0.0
C1170 C 0.37993 0.86297 0.70744 0.0
C1171 C 0.36782 0.86935 0.69361 0.0
C1172 C 0.35499 0.86752 0.71174 0.0
H1173 H 0.39702 0.90885 0.49307 0.0
H1174 H 0.38394 0.90826 0.55002 0.0
C1175 C 0.35443 0.85977 0.74381 0.0
C1176 C 0.36878 0.87687 0.65876 0.0
H1177 H 0.39148 0.89785 0.61243 0.0
C1178 C 0.36071 0.87204 0.62981 0.0
C1179 C 0.37917 0.88725 0.65255 0.0
C1180 C 0.38714 0.8941 0.68285 0.0
C1181 C 0.36389 0.87604 0.59447 0.0
C1182 C 0.37571 0.88472 0.58794 0.0
C1183 C 0.38266 0.89088 0.61717 0.0
C1184 C 0.38239 0.88557 0.55193 0.0
C1185 C 0.35491 0.87041 0.56441 0.0
C1186 C 0.38606 0.87308 0.53438 0.0
C1187 C 0.39342 0.87339 0.50217 0.0
C1188 C 0.39759 0.88621 0.4867 0.0
C1189 C 0.39396 0.8988 0.50421 0.0
C1190 C 0.38645 0.89847 0.53667 0.0
H1191 H 0.34378 0.86955 0.57305 0.0
H1192 H 0.35545 0.87718 0.54021 0.0
H1193 H 0.35852 0.85969 0.55722 0.0
H1194 H 0.38358 0.86298 0.54614 0.0
H1195 H 0.39607 0.86344 0.48979 0.0
H1196 H 0.34407 0.15714 0.75695 0.0
H1197 H 0.34568 0.14661 0.81711 0.0
H1198 H 0.38403 0.12573 0.78672 0.0
H1199 H 0.38256 0.13613 0.72714 0.0
H1200 H 0.36387 0.10912 0.83164 0.0
H1201 H 0.37808 0.16206 0.88431 0.0
H1202 H 0.3622 0.16051 0.85847 0.0
H1203 H 0.37887 0.15794 0.83711 0.0
C1204 C 0.35267 0.15009 0.76294 0.0
C1205 C 0.36329 0.14763 0.73749 0.0
C1206 C 0.35359 0.14411 0.79726 0.0
C1207 C 0.36504 0.13549 0.80633 0.0
C1208 C 0.37512 0.13234 0.78024 0.0
H1209 H 0.40887 0.09903 0.98504 0.0
H1210 H 0.39712 0.10262 0.92714 0.0
C1211 C 0.3743 0.13838 0.74626 0.0
C1212 C 0.36753 0.13092 0.84377 0.0
H1213 H 0.37967 0.14315 0.9239 0.0
C1214 C 0.36712 0.11655 0.8521 0.0
C1215 C 0.37187 0.14063 0.87019 0.0
C1216 C 0.3729 0.15616 0.86228 0.0
C1217 C 0.37104 0.11161 0.88625 0.0
C1218 C 0.37586 0.1213 0.91232 0.0
C1219 C 0.37594 0.1357 0.90405 0.0
C1220 C 0.3814 0.11694 0.94795 0.0
C1221 C 0.36994 0.09611 0.894 0.0
C1222 C 0.37645 0.12363 0.97902 0.0
C1223 C 0.38336 0.12186 0.01168 0.0
C1224 C 0.39523 0.11316 0.01419 0.0
C1225 C 0.39963 0.10564 0.98383 0.0
C1226 C 0.39286 0.10765 0.95079 0.0
H1227 H 0.36188 0.09103 0.87678 0.0
H1228 H 0.38017 0.09103 0.88813 0.0
H1229 H 0.36727 0.09413 0.92254 0.0
H1230 H 0.36765 0.13082 0.97763 0.0
H1231 H 0.37976 0.12776 0.03478 0.0
H1232 H 0.84282 0.85984 0.74352 0.0
H1233 H 0.84368 0.87305 0.8004 0.0
H1234 H 0.8886 0.86748 0.80412 0.0
H1235 H 0.88792 0.85476 0.74813 0.0
H1236 H 0.85212 0.8652 0.86606 0.0
H1237 H 0.88622 0.90866 0.82416 0.0
H1238 H 0.87758 0.89739 0.79202 0.0
H1239 H 0.89435 0.89252 0.8109 0.0
C1240 C 0.85286 0.86156 0.75645 0.0
C1241 C 0.8653 0.85635 0.74096 0.0
C1242 C 0.85335 0.86915 0.78881 0.0
C1243 C 0.86628 0.87169 0.80596 0.0
C1244 C 0.87857 0.86621 0.79079 0.0
H1245 H 0.89807 0.86502 0.00549 0.0
H1246 H 0.88488 0.86464 0.95022 0.0
C1247 C 0.87812 0.85876 0.75874 0.0
C1248 C 0.86723 0.87896 0.84119 0.0
H1249 H 0.88932 0.90079 0.88697 0.0
C1250 C 0.85994 0.8733 0.87052 0.0
C1251 C 0.87704 0.8899 0.84723 0.0
C1252 C 0.88409 0.89756 0.81673 0.0
C1253 C 0.86344 0.87709 0.90583 0.0
C1254 C 0.87481 0.88641 0.9119 0.0
C1255 C 0.88087 0.89334 0.88253 0.0
C1256 C 0.88205 0.88717 0.94722 0.0
C1257 C 0.85535 0.87053 0.93629 0.0
C1258 C 0.88545 0.90005 0.96361 0.0
C1259 C 0.89334 0.90035 0.99549 0.0
C1260 C 0.89804 0.88776 0.01125 0.0
C1261 C 0.89459 0.87496 0.99452 0.0
C1262 C 0.88683 0.87469 0.96293 0.0
H1263 H 0.84417 0.86902 0.92874 0.0
H1264 H 0.85978 0.86 0.94223 0.0
H1265 H 0.85585 0.87704 0.96097 0.0
H1266 H 0.88207 0.90985 0.95163 0.0
H1267 H 0.89583 0.91039 0.00761 0.0
H1268 H 0.88724 0.15857 0.74754 0.0
H1269 H 0.88889 0.14593 0.69125 0.0
H1270 H 0.84736 0.12896 0.70744 0.0
H1271 H 0.84548 0.14205 0.76432 0.0
H1272 H 0.88804 0.11745 0.68124 0.0
H1273 H 0.84529 0.14394 0.60485 0.0
H1274 H 0.85199 0.15103 0.64635 0.0
H1275 H 0.84081 0.13586 0.64693 0.0
C1276 C 0.87837 0.15224 0.7392 0.0
C1277 C 0.86622 0.1513 0.76052 0.0
C1278 C 0.87936 0.14496 0.70696 0.0
C1279 C 0.86829 0.13645 0.69507 0.0
C1280 C 0.85599 0.13558 0.71589 0.0
H1281 H 0.89878 0.09315 0.49819 0.0
H1282 H 0.8865 0.09449 0.55621 0.0
C1283 C 0.85492 0.14305 0.74833 0.0
C1284 C 0.87012 0.12863 0.66084 0.0
H1285 H 0.86052 0.12938 0.57266 0.0
C1286 C 0.88186 0.11979 0.65755 0.0
C1287 C 0.86197 0.13165 0.63009 0.0
C1288 C 0.84934 0.14118 0.6319 0.0
C1289 C 0.88646 0.11495 0.62394 0.0
C1290 C 0.87884 0.11874 0.59282 0.0
C1291 C 0.86636 0.12651 0.59655 0.0
C1292 C 0.88497 0.1172 0.55632 0.0
C1293 C 0.90007 0.10687 0.62183 0.0
C1294 C 0.88777 0.1294 0.53659 0.0
C1295 C 0.89458 0.12866 0.50362 0.0
C1296 C 0.89887 0.11566 0.48933 0.0
C1297 C 0.89574 0.10333 0.50856 0.0
C1298 C 0.88877 0.10409 0.54177 0.0
H1299 H 0.90568 0.10662 0.64795 0.0
H1300 H 0.89786 0.09589 0.61371 0.0
H1301 H 0.90715 0.11159 0.60146 0.0
H1302 H 0.88502 0.13964 0.54719 0.0
H1303 H 0.8967 0.13842 0.4897 0.0
H1304 H 0.65923 0.14518 0.24498 0.0
H1305 H 0.65854 0.13289 0.3031 0.0
H1306 H 0.61329 0.13226 0.29846 0.0
H1307 H 0.61384 0.14397 0.24111 0.0
H1308 H 0.64776 0.14129 0.36472 0.0
H1309 H 0.62004 0.09282 0.3288 0.0
H1310 H 0.62779 0.10407 0.29518 0.0
H1311 H 0.61018 0.10727 0.31123 0.0
C1312 C 0.64917 0.14222 0.25622 0.0
C1313 C 0.63661 0.14554 0.23819 0.0
C1314 C 0.64879 0.13517 0.28934 0.0
C1315 C 0.63586 0.13125 0.30472 0.0
C1316 C 0.62341 0.13462 0.28666 0.0
H1317 H 0.60007 0.14039 0.50039 0.0
H1318 H 0.6131 0.14053 0.44466 0.0
C1319 C 0.62377 0.14153 0.25384 0.0
C1320 C 0.63491 0.12506 0.34126 0.0
H1321 H 0.61445 0.10237 0.38916 0.0
C1322 C 0.64083 0.13249 0.37004 0.0
C1323 C 0.62627 0.11328 0.34857 0.0
C1324 C 0.62088 0.10383 0.31916 0.0
C1325 C 0.637 0.1295 0.40558 0.0
C1326 C 0.62665 0.11914 0.41235 0.0
C1327 C 0.62206 0.1106 0.38401 0.0
C1328 C 0.61896 0.11858 0.44702 0.0
C1329 C 0.64359 0.13796 0.43536 0.0
C1330 C 0.61721 0.10598 0.46622 0.0
C1331 C 0.60944 0.10579 0.49828 0.0
C1332 C 0.60331 0.11822 0.51144 0.0
C1333 C 0.60483 0.13067 0.49151 0.0
C1334 C 0.61244 0.13081 0.45967 0.0
H1335 H 0.65462 0.14073 0.42864 0.0
H1336 H 0.63771 0.14794 0.43874 0.0
H1337 H 0.64349 0.13216 0.46121 0.0
H1338 H 0.62193 0.09634 0.45658 0.0
H1339 H 0.60843 0.09604 0.51299 0.0
H1340 H 0.65317 0.84294 0.23454 0.0
H1341 H 0.64965 0.85479 0.17668 0.0
H1342 H 0.61956 0.88266 0.2259 0.0
H1343 H 0.62259 0.8705 0.28292 0.0
H1344 H 0.6085 0.87038 0.17037 0.0
H1345 H 0.66038 0.89107 0.12943 0.0
H1346 H 0.66096 0.87269 0.1399 0.0
H1347 H 0.65683 0.88519 0.17457 0.0
C1348 C 0.64611 0.85185 0.23307 0.0
C1349 C 0.63809 0.85577 0.26302 0.0
C1350 C 0.64414 0.85867 0.20006 0.0
C1351 C 0.63438 0.86971 0.19688 0.0
C1352 C 0.62711 0.87418 0.22756 0.0
H1353 H 0.59451 0.90801 0.00712 0.0
H1354 H 0.60463 0.90587 0.06764 0.0
C1355 C 0.62886 0.86722 0.26015 0.0
C1356 C 0.63028 0.87538 0.16117 0.0
H1357 H 0.64292 0.88917 0.08289 0.0
C1358 C 0.61602 0.87473 0.15156 0.0
C1359 C 0.64007 0.881 0.13646 0.0
C1360 C 0.65539 0.88267 0.14573 0.0
C1361 C 0.61135 0.87909 0.11769 0.0
C1362 C 0.62117 0.88434 0.09267 0.0
C1363 C 0.6354 0.88525 0.1023 0.0
C1364 C 0.61694 0.88739 0.05521 0.0
C1365 C 0.596 0.87747 0.10831 0.0
C1366 C 0.62094 0.87805 0.02807 0.0
C1367 C 0.61515 0.87919 0.99385 0.0
C1368 C 0.60531 0.88978 0.98593 0.0
C1369 C 0.60205 0.89975 0.01245 0.0
C1370 C 0.60778 0.89851 0.04698 0.0
H1371 H 0.59012 0.87148 0.12901 0.0
H1372 H 0.59114 0.88801 0.10577 0.0
H1373 H 0.59483 0.87202 0.08214 0.0
H1374 H 0.62799 0.86941 0.03386 0.0
H1375 H 0.61802 0.87144 0.97387 0.0
H1376 H 0.59049 0.60143 0.51557 0.0
H1377 H 0.60231 0.6052 0.57346 0.0
H1378 H 0.63519 0.62824 0.51985 0.0
H1379 H 0.62308 0.62507 0.46256 0.0
H1380 H 0.62828 0.60091 0.60515 0.0
H1381 H 0.61867 0.65788 0.58443 0.0
H1382 H 0.61123 0.64465 0.55558 0.0
H1383 H 0.62922 0.65002 0.55003 0.0
C1384 C 0.60045 0.60694 0.51617 0.0
C1385 C 0.60588 0.61304 0.48485 0.0
C1386 C 0.60716 0.60914 0.54919 0.0
C1387 C 0.61943 0.61735 0.55109 0.0
C1388 C 0.62554 0.62222 0.51919 0.0
H1389 H 0.65712 0.65837 0.73936 0.0
H1390 H 0.6555 0.64714 0.68003 0.0
C1391 C 0.6187 0.62029 0.48645 0.0
C1392 C 0.62499 0.62205 0.58638 0.0
H1393 H 0.63089 0.65148 0.63668 0.0
C1394 C 0.62894 0.61197 0.61197 0.0
C1395 C 0.62579 0.6365 0.59538 0.0
C1396 C 0.62089 0.64789 0.57009 0.0
C1397 C 0.63354 0.61596 0.64636 0.0
C1398 C 0.63416 0.63038 0.65535 0.0
C1399 C 0.6306 0.64044 0.6295 0.0
C1400 C 0.63671 0.63531 0.69253 0.0
C1401 C 0.63755 0.60474 0.67297 0.0
C1402 C 0.6268 0.63226 0.71917 0.0
C1403 C 0.6276 0.63876 0.75263 0.0
C1404 C 0.63837 0.64842 0.76029 0.0
C1405 C 0.64876 0.65093 0.73427 0.0
C1406 C 0.64783 0.64453 0.70043 0.0
H1407 H 0.6404 0.59476 0.65935 0.0
H1408 H 0.64651 0.60819 0.6899 0.0
H1409 H 0.62848 0.60261 0.69085 0.0
H1410 H 0.61799 0.6254 0.71349 0.0
H1411 H 0.61948 0.63654 0.77218 0.0
H1412 H 0.65194 0.34367 0.76233 0.0
H1413 H 0.64792 0.35438 0.82153 0.0
H1414 H 0.62278 0.38673 0.77218 0.0
H1415 H 0.62628 0.37578 0.7136 0.0
H1416 H 0.65117 0.38064 0.85457 0.0
H1417 H 0.59475 0.36743 0.83733 0.0
H1418 H 0.60813 0.36102 0.80734 0.0
H1419 H 0.60158 0.37865 0.80286 0.0
C1420 C 0.64585 0.35325 0.76416 0.0
C1421 C 0.63927 0.35882 0.73364 0.0
C1422 C 0.64352 0.35934 0.79791 0.0
C1423 C 0.63471 0.37113 0.80132 0.0
C1424 C 0.62927 0.37742 0.7703 0.0
H1425 H 0.5934 0.40517 0.99333 0.0
H1426 H 0.60395 0.4044 0.93307 0.0
C1427 C 0.63136 0.37121 0.73685 0.0
C1428 C 0.6301 0.37603 0.83723 0.0
H1429 H 0.6009 0.3798 0.88964 0.0
C1430 C 0.64018 0.38053 0.8622 0.0
C1431 C 0.61573 0.37585 0.84721 0.0
C1432 C 0.60443 0.37036 0.82245 0.0
C1433 C 0.63627 0.38476 0.89694 0.0
C1434 C 0.62195 0.38441 0.90692 0.0
C1435 C 0.61186 0.38025 0.8817 0.0
C1436 C 0.61728 0.38653 0.94444 0.0
C1437 C 0.6475 0.38946 0.92283 0.0
C1438 C 0.62137 0.37685 0.9707 0.0
C1439 C 0.61528 0.37716 0.00467 0.0
C1440 C 0.60496 0.38719 0.01321 0.0
C1441 C 0.60135 0.39736 0.98752 0.0
C1442 C 0.60736 0.39693 0.95317 0.0
H1443 H 0.65707 0.3931 0.90854 0.0
H1444 H 0.64363 0.39806 0.94034 0.0
H1445 H 0.6505 0.38048 0.94018 0.0
H1446 H 0.62878 0.36858 0.96438 0.0
H1447 H 0.61837 0.36924 0.02399 0.0
H1448 H 0.91139 0.40259 0.01768 0.0
H1449 H 0.89967 0.39889 0.07568 0.0
H1450 H 0.86582 0.37729 0.02203 0.0
H1451 H 0.87784 0.38036 0.96457 0.0
H1452 H 0.87397 0.40368 0.10852 0.0
H1453 H 0.88195 0.34665 0.08421 0.0
H1454 H 0.88958 0.35992 0.05584 0.0
H1455 H 0.8714 0.35514 0.05079 0.0
C1456 C 0.90125 0.39744 0.01831 0.0
C1457 C 0.89551 0.39167 0.98692 0.0
C1458 C 0.89458 0.39528 0.05138 0.0
C1459 C 0.88206 0.38746 0.05327 0.0
C1460 C 0.87565 0.383 0.02134 0.0
H1461 H 0.84605 0.34546 0.24212 0.0
H1462 H 0.84689 0.3572 0.18336 0.0
C1463 C 0.88245 0.38487 0.98852 0.0
C1464 C 0.8766 0.38262 0.08849 0.0
H1465 H 0.8706 0.35294 0.13768 0.0
C1466 C 0.87312 0.39259 0.11481 0.0
C1467 C 0.87555 0.36812 0.09678 0.0
C1468 C 0.87994 0.35683 0.07059 0.0
C1469 C 0.86881 0.38843 0.1493 0.0
C1470 C 0.86801 0.37396 0.15763 0.0
C1471 C 0.87104 0.36402 0.13102 0.0
C1472 C 0.86592 0.3688 0.19477 0.0
C1473 C 0.86533 0.39953 0.17673 0.0
C1474 C 0.87624 0.37156 0.22062 0.0
C1475 C 0.87588 0.36478 0.25375 0.0
C1476 C 0.86517 0.35511 0.26183 0.0
C1477 C 0.85439 0.35289 0.23668 0.0
C1478 C 0.85487 0.35958 0.20317 0.0
H1479 H 0.86237 0.40961 0.16377 0.0
H1480 H 0.8566 0.39608 0.19442 0.0
H1481 H 0.87469 0.40148 0.19374 0.0
H1482 H 0.88501 0.37841 0.2145 0.0
H1483 H 0.88429 0.36678 0.27263 0.0
H1484 H 0.87961 0.63132 0.21044 0.0
H1485 H 0.88238 0.61931 0.26778 0.0
H1486 H 0.85377 0.64872 0.31695 0.0
H1487 H 0.85048 0.66039 0.25885 0.0
H1488 H 0.89427 0.63124 0.32225 0.0
H1489 H 0.84178 0.61342 0.36634 0.0
H1490 H 0.84526 0.61885 0.3208 0.0
H1491 H 0.84183 0.63173 0.35511 0.0
C1492 C 0.87359 0.63497 0.23329 0.0
C1493 C 0.86486 0.64679 0.23035 0.0
C1494 C 0.87519 0.6281 0.26606 0.0
C1495 C 0.86826 0.63303 0.2968 0.0
C1496 C 0.85898 0.64447 0.29354 0.0
H1497 H 0.88549 0.63503 0.51791 0.0
H1498 H 0.8755 0.63599 0.45781 0.0
C1499 C 0.85715 0.6512 0.26039 0.0
C1500 C 0.87232 0.62745 0.33261 0.0
H1501 H 0.85944 0.61555 0.41263 0.0
C1502 C 0.88665 0.62753 0.34169 0.0
C1503 C 0.86241 0.62264 0.35812 0.0
C1504 C 0.84698 0.62151 0.34946 0.0
C1505 C 0.89128 0.62351 0.37586 0.0
C1506 C 0.88134 0.61922 0.40175 0.0
C1507 C 0.86704 0.61876 0.39257 0.0
C1508 C 0.88554 0.61694 0.43953 0.0
C1509 C 0.90672 0.62456 0.38466 0.0
C1510 C 0.89416 0.60561 0.44954 0.0
C1511 C 0.8999 0.60499 0.48417 0.0
C1512 C 0.89721 0.61579 0.50894 0.0
C1513 C 0.88793 0.62664 0.49929 0.0
C1514 C 0.88211 0.62718 0.46501 0.0
H1515 H 0.91283 0.62966 0.36286 0.0
H1516 H 0.90828 0.63063 0.40978 0.0
H1517 H 0.91104 0.61387 0.38901 0.0
H1518 H 0.89687 0.59758 0.43017 0.0
H1519 H 0.907 0.59649 0.49089 0.0
H1520 H 0.39637 0.40899 0.50355 0.0
H1521 H 0.38335 0.40811 0.44651 0.0
H1522 H 0.38387 0.36284 0.45054 0.0
H1523 H 0.39633 0.36357 0.50691 0.0
H1524 H 0.39104 0.39762 0.38388 0.0
H1525 H 0.3438 0.36876 0.42446 0.0
H1526 H 0.35543 0.37669 0.45695 0.0
H1527 H 0.35876 0.35921 0.4402 0.0
C1528 C 0.39353 0.39888 0.4924 0.0
C1529 C 0.39738 0.38638 0.50999 0.0
C1530 C 0.38605 0.39838 0.4599 0.0
C1531 C 0.38223 0.38539 0.44469 0.0
C1532 C 0.38616 0.37299 0.46226 0.0
H1533 H 0.38837 0.35054 0.24679 0.0
H1534 H 0.38934 0.36332 0.3028 0.0
C1535 C 0.3935 0.37346 0.49449 0.0
C1536 C 0.37549 0.38438 0.40879 0.0
H1537 H 0.35229 0.36374 0.3629 0.0
C1538 C 0.38228 0.39055 0.37937 0.0
C1539 C 0.36375 0.37554 0.40258 0.0
C1540 C 0.35494 0.36984 0.43288 0.0
C1541 C 0.37871 0.38683 0.34408 0.0
C1542 C 0.36839 0.37635 0.33816 0.0
C1543 C 0.36049 0.37146 0.36734 0.0
C1544 C 0.3673 0.36885 0.30328 0.0
C1545 C 0.38651 0.39372 0.31356 0.0
C1546 C 0.35439 0.36701 0.28552 0.0
C1547 C 0.35372 0.35938 0.25325 0.0
C1548 C 0.36597 0.35347 0.23845 0.0
C1549 C 0.37875 0.35512 0.25692 0.0
C1550 C 0.37937 0.36259 0.28895 0.0
H1551 H 0.38924 0.40475 0.32036 0.0
H1552 H 0.39649 0.38801 0.30877 0.0
H1553 H 0.38024 0.39366 0.28844 0.0
H1554 H 0.34487 0.37154 0.29646 0.0
H1555 H 0.34371 0.35826 0.23974 0.0
H1556 H 0.38721 0.6325 0.9803 0.0
H1557 H 0.37676 0.63328 0.03992 0.0
H1558 H 0.39786 0.59474 0.06775 0.0
H1559 H 0.40841 0.59382 0.00746 0.0
H1560 H 0.36037 0.61242 0.08417 0.0
H1561 H 0.41332 0.62693 0.13627 0.0
H1562 H 0.40903 0.62812 0.08921 0.0
H1563 H 0.41175 0.61127 0.10951 0.0
C1564 C 0.38947 0.62403 -0.00116 0.0
C1565 C 0.39879 0.61318 0.98937 0.0
C1566 C 0.3834 0.62446 0.03284 0.0
C1567 C 0.38662 0.61414 0.05827 0.0
C1568 C 0.39529 0.60283 0.04842 0.0
H1569 H 0.37932 0.6299 0.28676 0.0
H1570 H 0.38253 0.61732 0.23031 0.0
C1571 C 0.40128 0.60229 0.01403 0.0
C1572 C 0.38215 0.61634 0.09592 0.0
H1573 H 0.39443 0.62868 0.17579 0.0
C1574 C 0.36781 0.61574 0.10452 0.0
C1575 C 0.39188 0.62076 0.12222 0.0
C1576 C 0.40736 0.62191 0.11407 0.0
C1577 C 0.36291 0.61963 0.13873 0.0
C1578 C 0.37259 0.62464 0.1646 0.0
C1579 C 0.38698 0.62482 0.15613 0.0
C1580 C 0.36822 0.63042 0.20003 0.0
C1581 C 0.34744 0.61832 0.14672 0.0
C1582 C 0.35866 0.64167 0.20237 0.0
C1583 C 0.35655 0.64868 0.23503 0.0
C1584 C 0.36425 0.64478 0.26553 0.0
C1585 C 0.37327 0.63313 0.26356 0.0
C1586 C 0.37513 0.62595 0.23128 0.0
H1587 H 0.34252 0.60997 0.13009 0.0
H1588 H 0.34554 0.6159 0.17544 0.0
H1589 H 0.34216 0.62838 0.14014 0.0
H1590 H 0.35346 0.64559 0.17858 0.0
H1591 H 0.34969 0.65776 0.23578 0.0
H1592 H 0.10752 0.5946 0.00625 0.0
H1593 H 0.12065 0.59496 0.94932 0.0
H1594 H 0.11803 0.64018 0.94757 0.0
H1595 H 0.10543 0.63997 0.00374 0.0
H1596 H 0.11283 0.604 0.88496 0.0
H1597 H 0.15857 0.63548 0.92402 0.0
H1598 H 0.14713 0.62755 0.95693 0.0
H1599 H 0.14313 0.6446 0.93835 0.0
C1600 C 0.1099 0.6046 0.99382 0.0
C1601 C 0.10546 0.61724 0.00978 0.0
C1602 C 0.11745 0.6048 0.9614 0.0
C1603 C 0.12073 0.61764 0.94467 0.0
C1604 C 0.11616 0.63017 0.96052 0.0
H1605 H 0.11377 0.64959 0.7448 0.0
H1606 H 0.11322 0.63696 0.80098 0.0
C1607 C 0.10875 0.63 0.99265 0.0
C1608 C 0.12766 0.61829 0.90896 0.0
H1609 H 0.15016 0.63922 0.86178 0.0
C1610 C 0.12129 0.61137 0.87999 0.0
C1611 C 0.13905 0.6275 0.90223 0.0
C1612 C 0.14745 0.63404 0.93221 0.0
C1613 C 0.12487 0.61471 0.84447 0.0
C1614 C 0.13473 0.62556 0.83783 0.0
C1615 C 0.1423 0.6312 0.86672 0.0
C1616 C 0.13554 0.63271 0.80244 0.0
C1617 C 0.11753 0.60704 0.81443 0.0
C1618 C 0.14842 0.6352 0.78502 0.0
C1619 C 0.14883 0.64276 0.75264 0.0
C1620 C 0.13637 0.64799 0.73737 0.0
C1621 C 0.12359 0.64559 0.75532 0.0
C1622 C 0.12321 0.63819 0.78744 0.0
H1623 H 0.11541 0.59597 0.82209 0.0
H1624 H 0.10725 0.61211 0.80911 0.0
H1625 H 0.12384 0.60713 0.78937 0.0
H1626 H 0.15812 0.63129 0.79644 0.0
H1627 H 0.15884 0.64444 0.73955 0.0
H1628 H 0.11755 0.36734 0.7721 0.0
H1629 H 0.11636 0.37758 0.71234 0.0
H1630 H 0.15546 0.35758 0.68442 0.0
H1631 H 0.15677 0.34716 0.74475 0.0
H1632 H 0.13603 0.39464 0.66877 0.0
H1633 H 0.12463 0.3412 0.61498 0.0
H1634 H 0.12339 0.3452 0.66219 0.0
H1635 H 0.14029 0.34337 0.64142 0.0
C1636 C 0.12603 0.36523 0.75349 0.0
C1637 C 0.13716 0.35625 0.76299 0.0
C1638 C 0.12536 0.37119 0.7194 0.0
C1639 C 0.13574 0.36824 0.69392 0.0
C1640 C 0.1473 0.35991 0.70376 0.0
H1641 H 0.12302 0.37567 0.46453 0.0
H1642 H 0.13468 0.37302 0.52241 0.0
C1643 C 0.14805 0.354 0.73819 0.0
C1644 C 0.13348 0.37271 0.6563 0.0
H1645 H 0.12274 0.36005 0.5753 0.0
C1646 C 0.13333 0.3871 0.64806 0.0
C1647 C 0.12986 0.36284 0.62954 0.0
C1648 C 0.12943 0.34728 0.63727 0.0
C1649 C 0.12954 0.3919 0.6137 0.0
C1650 C 0.12543 0.38204 0.58727 0.0
C1651 C 0.12593 0.36763 0.59543 0.0
C1652 C 0.12002 0.38619 0.55135 0.0
C1653 C 0.13 0.40745 0.60611 0.0
C1654 C 0.10817 0.39495 0.54789 0.0
C1655 C 0.10165 0.39673 0.51445 0.0
C1656 C 0.10669 0.38949 0.4843 0.0
C1657 C 0.11891 0.38133 0.48746 0.0
C1658 C 0.12557 0.3798 0.52054 0.0
H1659 H 0.13766 0.41286 0.62386 0.0
H1660 H 0.13286 0.40958 0.57776 0.0
H1661 H 0.1195 0.41204 0.61137 0.0
H1662 H 0.10346 0.39973 0.57132 0.0
H1663 H 0.09213 0.40291 0.51271 0.0
H1664 H 0.13984 0.17035 0.50214 0.0
H1665 H 0.13667 0.16305 0.56475 0.0
H1666 H 0.1296 0.1204 0.5299 0.0
H1667 H 0.13303 0.12769 0.46736 0.0
H1668 H 0.11161 0.15134 0.58869 0.0
H1669 H 0.15653 0.11568 0.61559 0.0
H1670 H 0.15646 0.12811 0.57897 0.0
H1671 H 0.147 0.11185 0.57515 0.0
C1672 C 0.13803 0.15937 0.50813 0.0
C1673 C 0.13687 0.14949 0.48043 0.0
C1674 C 0.13616 0.15522 0.54369 0.0
C1675 C 0.13311 0.14116 0.55188 0.0
C1676 C 0.13228 0.13122 0.52416 0.0
H1677 H 0.08764 0.11194 0.73834 0.0
H1678 H 0.09641 0.11582 0.6772 0.0
C1679 C 0.13415 0.13538 0.4886 0.0
C1680 C 0.12927 0.13721 0.58885 0.0
H1681 H 0.13795 0.11563 0.65849 0.0
C1682 C 0.11741 0.14359 0.60404 0.0
C1683 C 0.1369 0.12713 0.60869 0.0
C1684 C 0.15001 0.12036 0.59397 0.0
C1685 C 0.11284 0.14003 0.63853 0.0
C1686 C 0.12023 0.12967 0.65799 0.0
C1687 C 0.13223 0.12343 0.64312 0.0
C1688 C 0.1158 0.1256 0.69439 0.0
C1689 C 0.10025 0.1475 0.65406 0.0
C1690 C 0.12406 0.12939 0.72396 0.0
C1691 C 0.11911 0.12711 0.75868 0.0
C1692 C 0.10592 0.12092 0.76414 0.0
C1693 C 0.09792 0.11658 0.73458 0.0
C1694 C 0.10286 0.11887 0.69983 0.0
H1695 H 0.09759 0.15715 0.63876 0.0
H1696 H 0.09103 0.14037 0.65321 0.0
H1697 H 0.10214 0.15041 0.6825 0.0
H1698 H 0.13406 0.13462 0.72015 0.0
H1699 H 0.12539 0.13055 0.78128 0.0
H1700 H 0.09246 0.86601 0.74866 0.0
H1701 H 0.10335 0.86314 0.80766 0.0
H1702 H 0.13073 0.89826 0.78615 0.0
H1703 H 0.11975 0.90117 0.72682 0.0
H1704 H 0.13345 0.85816 0.81618 0.0
H1705 H 0.11404 0.90561 0.8887 0.0
H1706 H 0.10518 0.89885 0.84947 0.0
H1707 H 0.12166 0.90777 0.84482 0.0
C1708 C 0.10072 0.87317 0.75674 0.0
C1709 C 0.10544 0.88368 0.7334 0.0
C1710 C 0.10691 0.87154 0.79028 0.0
C1711 C 0.11785 0.88046 0.80103 0.0
C1712 C 0.12224 0.89135 0.7783 0.0
H1713 H 0.15431 0.86975 0.01702 0.0
H1714 H 0.15292 0.87803 0.95448 0.0
C1715 C 0.11599 0.893 0.74461 0.0
C1716 C 0.12494 0.87772 0.83544 0.0
H1717 H 0.12634 0.88877 0.92235 0.0
C1718 C 0.13214 0.86497 0.83929 0.0
C1719 C 0.12331 0.88673 0.86526 0.0
C1720 C 0.1156 0.90051 0.8622 0.0
C1721 C 0.13704 0.86056 0.87283 0.0
C1722 C 0.13451 0.86907 0.90311 0.0
C1723 C 0.12821 0.88229 0.89889 0.0
C1724 C 0.13637 0.86356 0.93969 0.0
C1725 C 0.14433 0.84655 0.87595 0.0
C1726 C 0.12756 0.85273 0.95164 0.0
C1727 C 0.12825 0.84814 0.98703 0.0
C1728 C 0.13776 0.85435 0.01092 0.0
C1729 C 0.1469 0.86489 -0.00121 0.0
C1730 C 0.14611 0.8696 0.96333 0.0
H1731 H 0.14896 0.84324 0.84994 0.0
H1732 H 0.15276 0.84692 0.89653 0.0
H1733 H 0.13658 0.83847 0.88421 0.0
H1734 H 0.11987 0.84808 0.93377 0.0
H1735 H 0.12121 0.83992 0.99596 0.0
H1736 H 0.36175 0.83622 0.00501 0.0
H1737 H 0.36512 0.84473 0.06654 0.0
H1738 H 0.38364 0.88286 0.02555 0.0
H1739 H 0.37998 0.87448 0.96404 0.0
H1740 H 0.3915 0.8507 0.09412 0.0
H1741 H 0.35658 0.89726 0.10325 0.0
H1742 H 0.35456 0.88393 0.06912 0.0
H1743 H 0.36792 0.89716 0.06473 0.0
C1744 C 0.36617 0.84657 0.00929 0.0
C1745 C 0.37047 0.85483 0.98017 0.0
C1746 C 0.36814 0.85139 0.04427 0.0
C1747 C 0.37444 0.8645 0.05046 0.0
C1748 C 0.37847 0.87287 0.02127 0.0
H1749 H 0.42069 0.88817 0.24065 0.0
H1750 H 0.41287 0.88455 0.17854 0.0
C1751 C 0.37648 0.86805 0.9863 0.0
C1752 C 0.37813 0.86875 0.08731 0.0
H1753 H 0.37341 0.8944 0.15012 0.0
C1754 C 0.38749 0.86021 0.10646 0.0
C1755 C 0.37281 0.88113 0.10321 0.0
C1756 C 0.36231 0.89036 0.08419 0.0
C1757 C 0.39185 0.86383 0.14107 0.0
C1758 C 0.38688 0.87642 0.15657 0.0
C1759 C 0.37733 0.88486 0.13775 0.0
C1760 C 0.3912 0.88062 0.19294 0.0
C1761 C 0.40163 0.85407 0.16097 0.0
C1762 C 0.38146 0.88008 0.2211 0.0
C1763 C 0.3859 0.88222 0.25633 0.0
C1764 C 0.40006 0.88506 0.26362 0.0
C1765 C 0.40968 0.8862 0.23534 0.0
C1766 C 0.40525 0.88405 0.20009 0.0
H1767 H 0.40212 0.84352 0.14832 0.0
H1768 H 0.41238 0.85859 0.16092 0.0
H1769 H 0.39827 0.85285 0.18932 0.0
H1770 H 0.37059 0.87739 0.21596 0.0
H1771 H 0.37839 0.88118 0.27801 0.0
H1772 H 0.41578 0.10927 0.25901 0.0
H1773 H 0.40678 0.11226 0.3202 0.0
H1774 H 0.3687 0.13038 0.27784 0.0
H1775 H 0.37751 0.12699 0.21671 0.0
H1776 H 0.4007 0.13786 0.34871 0.0
H1777 H 0.35362 0.10363 0.35399 0.0
H1778 H 0.36697 0.10187 0.31986 0.0
H1779 H 0.35377 0.11529 0.31616 0.0
C1780 C 0.40533 0.1135 0.2629 0.0
C1781 C 0.39722 0.11776 0.23349 0.0
C1782 C 0.40024 0.11526 0.29771 0.0
C1783 C 0.38699 0.12133 0.30345 0.0
C1784 C 0.37878 0.12535 0.27395 0.0
H1785 H 0.36267 0.16838 0.49118 0.0
H1786 H 0.36673 0.16021 0.42957 0.0
C1787 C 0.38385 0.12353 0.23918 0.0
C1788 C 0.38245 0.12491 0.34018 0.0
H1789 H 0.35586 0.12077 0.40068 0.0
C1790 C 0.39095 0.13403 0.36018 0.0
C1791 C 0.36976 0.11984 0.35503 0.0
C1792 C 0.36056 0.1095 0.3353 0.0
C1793 C 0.38698 0.13846 0.39448 0.0
C1794 C 0.37404 0.13384 0.40878 0.0
C1795 C 0.36566 0.12445 0.38922 0.0
C1796 C 0.36936 0.1384 0.44459 0.0
C1797 C 0.39674 0.14795 0.4153 0.0
C1798 C 0.36892 0.12872 0.47287 0.0
C1799 C 0.36648 0.13335 0.50782 0.0
C1800 C 0.36436 0.14767 0.51468 0.0
C1801 C 0.36409 0.15726 0.48619 0.0
C1802 C 0.36651 0.15263 0.45123 0.0
H1803 H 0.40754 0.14792 0.40401 0.0
H1804 H 0.39271 0.15887 0.41424 0.0
H1805 H 0.39728 0.14472 0.44389 0.0
H1806 H 0.37113 0.11771 0.46814 0.0
H1807 H 0.36683 0.12586 0.52969 0.0
H1808 H 0.91778 0.89135 0.25748 0.0
H1809 H 0.90912 0.88747 0.31874 0.0
H1810 H 0.87183 0.86779 0.27628 0.0
H1811 H 0.88036 0.8719 0.21505 0.0
H1812 H 0.86718 0.88673 0.33595 0.0
H1813 H 0.90887 0.847 0.36064 0.0
H1814 H 0.91502 0.86387 0.34579 0.0
H1815 H 0.90455 0.85324 0.31628 0.0
C1816 C 0.90761 0.88647 0.26138 0.0
C1817 C 0.89965 0.88194 0.23192 0.0
C1818 C 0.90274 0.88418 0.2962 0.0
C1819 C 0.88993 0.87723 0.30182 0.0
C1820 C 0.88174 0.87317 0.27235 0.0
H1821 H 0.86594 0.83349 0.49546 0.0
H1822 H 0.86977 0.84033 0.43276 0.0
C1823 C 0.88661 0.87546 0.23757 0.0
C1824 C 0.88543 0.87343 0.33837 0.0
H1825 H 0.89432 0.8529 0.40971 0.0
C1826 C 0.87307 0.87934 0.35218 0.0
C1827 C 0.89307 0.8636 0.359 0.0
C1828 C 0.90605 0.85644 0.34467 0.0
C1829 C 0.86825 0.87583 0.38659 0.0
C1830 C 0.87611 0.86629 0.40757 0.0
C1831 C 0.88836 0.86025 0.3935 0.0
C1832 C 0.87202 0.86249 0.44448 0.0
C1833 C 0.85473 0.88218 0.40001 0.0
C1834 C 0.87191 0.87272 0.47157 0.0
C1835 C 0.86962 0.86883 0.50717 0.0
C1836 C 0.86745 0.85469 0.51601 0.0
C1837 C 0.8673 0.84449 0.48892 0.0
C1838 C 0.86955 0.84837 0.45332 0.0
H1839 H 0.8482 0.88629 0.37764 0.0
H1840 H 0.84849 0.87435 0.4153 0.0
H1841 H 0.85719 0.89106 0.41823 0.0
H1842 H 0.87413 0.88361 0.46538 0.0
H1843 H 0.86999 0.87677 0.52797 0.0
H1844 H 0.92186 0.11222 0.24282 0.0
H1845 H 0.91432 0.11564 0.18041 0.0
H1846 H 0.87155 0.12101 0.21606 0.0
H1847 H 0.87907 0.11739 0.27837 0.0
H1848 H 0.87516 0.10466 0.15008 0.0
H1849 H 0.9026 0.15626 0.15065 0.0
H1850 H 0.91321 0.14138 0.16267 0.0
H1851 H 0.89895 0.14659 0.19123 0.0
C1852 C 0.91082 0.11372 0.23705 0.0
C1853 C 0.90097 0.11443 0.26492 0.0
C1854 C 0.90654 0.11577 0.20162 0.0
C1855 C 0.89242 0.11868 0.19387 0.0
C1856 C 0.88248 0.11873 0.22162 0.0
H1857 H 0.86133 0.16397 0.00971 0.0
H1858 H 0.86535 0.1548 0.07033 0.0
C1859 C 0.88676 0.11668 0.25701 0.0
C1860 C 0.88818 0.12292 0.15744 0.0
H1861 H 0.89207 0.14923 0.09627 0.0
C1862 C 0.87885 0.11438 0.13817 0.0
C1863 C 0.89284 0.13574 0.1425 0.0
C1864 C 0.90236 0.14562 0.16285 0.0
C1865 C 0.8742 0.11826 0.10385 0.0
C1866 C 0.87913 0.13092 0.0886 0.0
C1867 C 0.88834 0.13951 0.1081 0.0
C1868 C 0.87507 0.13551 0.05224 0.0
C1869 C 0.8639 0.10892 0.08443 0.0
C1870 C 0.8791 0.12761 0.02219 0.0
C1871 C 0.87672 0.13279 0.98772 0.0
C1872 C 0.87031 0.14592 0.98293 0.0
C1873 C 0.86602 0.15368 0.01292 0.0
C1874 C 0.86838 0.1485 0.0474 0.0
H1875 H 0.85848 0.10161 0.10309 0.0
H1876 H 0.85588 0.11527 0.07012 0.0
H1877 H 0.86962 0.10255 0.06425 0.0
H1878 H 0.88457 0.11772 0.02541 0.0
H1879 H 0.88025 0.12675 0.96479 0.0
H1880 H 0.61838 0.10084 0.72702 0.0
H1881 H 0.62883 0.10175 0.78742 0.0
H1882 H 0.60667 0.14039 0.80843 0.0
H1883 H 0.59608 0.1394 0.74874 0.0
H1884 H 0.63896 0.1387 0.82095 0.0
H1885 H 0.60557 0.09813 0.88739 0.0
H1886 H 0.61291 0.09497 0.84349 0.0
H1887 H 0.5992 0.10768 0.84883 0.0
C1888 C 0.61569 0.10943 0.74479 0.0
C1889 C 0.60661 0.12016 0.73333 0.0
C1890 C 0.62167 0.10996 0.77902 0.0
C1891 C 0.61855 0.12118 0.80198 0.0
C1892 C 0.60927 0.13172 0.79078 0.0
H1893 H 0.61728 0.15785 -0.00078 0.0
H1894 H 0.61622 0.14861 0.93797 0.0
C1895 C 0.60328 0.13118 0.75677 0.0
C1896 C 0.62489 0.12227 0.83783 0.0
H1897 H 0.61901 0.1129 0.92475 0.0
C1898 C 0.63494 0.1328 0.84363 0.0
C1899 C 0.61954 0.11453 0.86706 0.0
C1900 C 0.6087 0.10317 0.86172 0.0
C1901 C 0.63911 0.13641 0.87844 0.0
C1902 C 0.63299 0.12936 0.90778 0.0
C1903 C 0.62368 0.11819 0.90191 0.0
C1904 C 0.63424 0.13501 0.94429 0.0
C1905 C 0.64927 0.14837 0.88398 0.0
C1906 C 0.64485 0.13046 0.96757 0.0
C1907 C 0.64546 0.13573 0.00256 0.0
C1908 C 0.63537 0.14543 0.01444 0.0
C1909 C 0.625 0.15018 0.99071 0.0
C1910 C 0.62441 0.14497 0.95587 0.0
H1911 H 0.65433 0.15169 0.8585 0.0
H1912 H 0.64358 0.1575 0.89549 0.0
H1913 H 0.65754 0.14527 0.90341 0.0
H1914 H 0.65252 0.1228 0.9588 0.0
H1915 H 0.65356 0.13199 0.02058 0.0
H1916 H 0.62668 0.88529 0.77659 0.0
H1917 H 0.63434 0.88156 0.7145 0.0
H1918 H 0.59182 0.88799 0.67789 0.0
H1919 H 0.58413 0.89134 0.7401 0.0
H1920 H 0.60327 0.86318 0.65538 0.0
H1921 H 0.63991 0.90717 0.62765 0.0
H1922 H 0.64369 0.89783 0.66837 0.0
H1923 H 0.62754 0.90747 0.66438 0.0
C1924 C 0.6191 0.88623 0.75505 0.0
C1925 C 0.60491 0.88875 0.76266 0.0
C1926 C 0.62346 0.88419 0.71972 0.0
C1927 C 0.61367 0.88472 0.69163 0.0
C1928 C 0.59954 0.8877 0.69922 0.0
H1929 H 0.62645 0.87511 0.46352 0.0
H1930 H 0.62238 0.88439 0.52405 0.0
C1931 C 0.59518 0.88968 0.73457 0.0
C1932 C 0.61782 0.8805 0.65505 0.0
H1933 H 0.64024 0.888 0.58626 0.0
C1934 C 0.61128 0.86866 0.64016 0.0
C1935 C 0.62825 0.88771 0.63535 0.0
C1936 C 0.63517 0.90083 0.64957 0.0
C1937 C 0.61501 0.8637 0.60617 0.0
C1938 C 0.62577 0.87062 0.58694 0.0
C1939 C 0.63216 0.88262 0.60147 0.0
C1940 C 0.63002 0.86578 0.55101 0.0
C1941 C 0.60728 0.8512 0.59089 0.0
C1942 C 0.63602 0.85244 0.54644 0.0
C1943 C 0.63828 0.84714 0.51202 0.0
C1944 C 0.63469 0.8552 0.48194 0.0
C1945 C 0.62931 0.86879 0.48655 0.0
C1946 C 0.62704 0.87408 0.52093 0.0
H1947 H 0.59731 0.84912 0.60542 0.0
H1948 H 0.60487 0.85282 0.56205 0.0
H1949 H 0.614 0.84173 0.59326 0.0
H1950 H 0.63847 0.84595 0.56947 0.0
H1951 H 0.64226 0.83655 0.5089 0.0
H1952 H 0.64626 0.66734 0.00437 0.0
H1953 H 0.64391 0.65951 0.06663 0.0
H1954 H 0.61786 0.625 0.03172 0.0
H1955 H 0.62105 0.63224 0.96939 0.0
H1956 H 0.62095 0.65913 0.10304 0.0
H1957 H 0.64167 0.60501 0.10277 0.0
H1958 H 0.64459 0.61696 0.06592 0.0
H1959 H 0.62851 0.60701 0.06881 0.0
C1960 C 0.64046 0.6578 0.01 0.0
C1961 C 0.63396 0.65027 0.98225 0.0
C1962 C 0.63903 0.6534 0.04552 0.0
C1963 C 0.63091 0.64152 0.05384 0.0
C1964 C 0.62454 0.63392 0.02597 0.0
H1965 H 0.58231 0.63036 0.24494 0.0
H1966 H 0.59148 0.6348 0.18448 0.0
C1967 C 0.62619 0.63817 0.99044 0.0
C1968 C 0.62778 0.638 0.09167 0.0
H1969 H 0.62546 0.61071 0.15072 0.0
C1970 C 0.62216 0.64858 0.11359 0.0
C1971 C 0.62953 0.6243 0.10569 0.0
C1972 C 0.63656 0.61273 0.08463 0.0
C1973 C 0.61771 0.64573 0.1486 0.0
C1974 C 0.61843 0.63179 0.16157 0.0
C1975 C 0.62463 0.62132 0.14035 0.0
C1976 C 0.61262 0.62792 0.19693 0.0
C1977 C 0.61231 0.65769 0.17132 0.0
C1978 C 0.62128 0.6219 0.22323 0.0
C1979 C 0.61597 0.61914 0.25741 0.0
C1980 C 0.60197 0.62236 0.26548 0.0
C1981 C 0.59316 0.62786 0.23894 0.0
C1982 C 0.59842 0.6305 0.20471 0.0
H1983 H 0.61657 0.66794 0.16211 0.0
H1984 H 0.6007 0.65818 0.16912 0.0
H1985 H 0.61513 0.65625 0.2 0.0
H1986 H 0.63224 0.61975 0.21763 0.0
H1987 H 0.62286 0.61491 0.27784 0.0
H1988 H 0.62037 0.34709 0.49645 0.0
H1989 H 0.61973 0.3566 0.43553 0.0
H1990 H 0.658 0.3795 0.45572 0.0
H1991 H 0.65862 0.37003 0.5173 0.0
H1992 H 0.62412 0.39144 0.42345 0.0
H1993 H 0.65799 0.35212 0.35439 0.0
H1994 H 0.64744 0.34647 0.39192 0.0
H1995 H 0.66177 0.35834 0.39921 0.0
C1996 C 0.62863 0.35415 0.48788 0.0
C1997 C 0.63943 0.35804 0.51143 0.0
C1998 C 0.62828 0.35953 0.45321 0.0
C1999 C 0.63876 0.36878 0.44155 0.0
C2000 C 0.64983 0.37239 0.46456 0.0
H2001 H 0.62021 0.40398 0.22665 0.0
H2002 H 0.63161 0.40304 0.28592 0.0
C2003 C 0.65019 0.36696 0.49942 0.0
C2004 C 0.63761 0.37476 0.40535 0.0
H2005 H 0.64255 0.36553 0.31804 0.0
C2006 C 0.6285 0.38614 0.40024 0.0
C2007 C 0.64334 0.3677 0.37552 0.0
C2008 C 0.65324 0.35549 0.38023 0.0
C2009 C 0.62407 0.38996 0.36574 0.0
C2010 C 0.62894 0.38216 0.33604 0.0
C2011 C 0.63889 0.37148 0.34104 0.0
C2012 C 0.62208 0.38326 0.30079 0.0
C2013 C 0.61336 0.4015 0.36135 0.0
C2014 C 0.6129 0.37254 0.29013 0.0
C2015 C 0.60637 0.3731 0.25678 0.0
C2016 C 0.60904 0.38433 0.23344 0.0
C2017 C 0.618 0.39524 0.24438 0.0
C2018 C 0.62454 0.3947 0.27796 0.0
H2019 H 0.61045 0.40639 0.38737 0.0
H2020 H 0.61759 0.40977 0.34339 0.0
H2021 H 0.60372 0.39722 0.34859 0.0
H2022 H 0.61079 0.36372 0.3077 0.0
H2023 H 0.59929 0.36471 0.24914 0.0
H2024 H 0.91926 0.38824 0.74319 0.0
H2025 H 0.91148 0.38399 0.68138 0.0
H2026 H 0.87093 0.37081 0.72061 0.0
H2027 H 0.87861 0.37541 0.78232 0.0
H2028 H 0.90305 0.35793 0.65658 0.0
H2029 H 0.86077 0.39742 0.63807 0.0
H2030 H 0.87365 0.39866 0.67349 0.0
H2031 H 0.85901 0.38687 0.67775 0.0
C2032 C 0.90858 0.38482 0.73837 0.0
C2033 C 0.89941 0.38234 0.76708 0.0
C2034 C 0.90418 0.38231 0.70326 0.0
C2035 C 0.89057 0.37729 0.69651 0.0
C2036 C 0.88135 0.37499 0.72524 0.0
H2037 H 0.86533 0.331 0.5067 0.0
H2038 H 0.86909 0.33886 0.56875 0.0
C2039 C 0.88574 0.37753 0.76034 0.0
C2040 C 0.88648 0.37327 0.65976 0.0
H2041 H 0.86266 0.37964 0.59336 0.0
C2042 C 0.89425 0.3627 0.64267 0.0
C2043 C 0.87504 0.37959 0.64181 0.0
C2044 C 0.86669 0.39135 0.65853 0.0
C2045 C 0.89082 0.35818 0.60806 0.0
C2046 C 0.87916 0.36423 0.59045 0.0
C2047 C 0.87147 0.37492 0.6073 0.0
C2048 C 0.87525 0.35995 0.55382 0.0
C2049 C 0.89982 0.34711 0.59037 0.0
C2050 C 0.87703 0.36938 0.52533 0.0
C2051 C 0.8748 0.36495 0.49014 0.0
C2052 C 0.87064 0.35109 0.48317 0.0
C2053 C 0.86835 0.34179 0.51172 0.0
C2054 C 0.87059 0.34623 0.54695 0.0
H2055 H 0.91002 0.34572 0.60439 0.0
H2056 H 0.89418 0.33691 0.59084 0.0
H2057 H 0.90191 0.34986 0.56192 0.0
H2058 H 0.88064 0.38 0.53023 0.0
H2059 H 0.87668 0.37221 0.46828 0.0
H2060 H 0.88077 0.60329 0.72326 0.0
H2061 H 0.86958 0.60598 0.78249 0.0
H2062 H 0.89611 0.6417 0.80433 0.0
H2063 H 0.90738 0.63893 0.74582 0.0
H2064 H 0.88381 0.60797 0.85521 0.0
H2065 H 0.85387 0.65537 0.81512 0.0
H2066 H 0.86043 0.64271 0.78307 0.0
H2067 H 0.872 0.65571 0.8018 0.0
C2068 C 0.88425 0.6116 0.74102 0.0
C2069 C 0.8947 0.62109 0.73006 0.0
C2070 C 0.87785 0.61315 0.77456 0.0
C2071 C 0.88185 0.62422 0.79716 0.0
C2072 C 0.89271 0.63328 0.78679 0.0
H2073 H 0.88341 0.66265 0.99249 0.0
H2074 H 0.8839 0.65358 0.93101 0.0
C2075 C 0.89912 0.63171 0.75351 0.0
C2076 C 0.87485 0.62658 0.83181 0.0
H2077 H 0.85807 0.65238 0.87841 0.0
C2078 C 0.87779 0.61743 0.86027 0.0
C2079 C 0.86697 0.63891 0.83797 0.0
C2080 C 0.863 0.64869 0.8078 0.0
C2081 C 0.87407 0.62098 0.89552 0.0
C2082 C 0.86724 0.6339 0.90197 0.0
C2083 C 0.86335 0.6425 0.87317 0.0
C2084 C 0.86615 0.63968 0.93842 0.0
C2085 C 0.87837 0.61149 0.92598 0.0
C2086 C 0.85583 0.63498 0.96239 0.0
C2087 C 0.85554 0.64017 0.99745 0.0
C2088 C 0.86565 0.64996 0.00874 0.0
C2089 C 0.87568 0.65493 0.98435 0.0
C2090 C 0.87591 0.64982 0.94938 0.0
H2091 H 0.88354 0.60173 0.91637 0.0
H2092 H 0.88573 0.61715 0.94403 0.0
H2093 H 0.869 0.60858 0.94204 0.0
H2094 H 0.84819 0.6272 0.95411 0.0
H2095 H 0.84769 0.63629 0.01601 0.0
H2096 H 0.36965 0.37586 0.02924 0.0
H2097 H 0.37327 0.3839 0.96739 0.0
H2098 H 0.36748 0.34148 0.92932 0.0
H2099 H 0.36423 0.33341 0.99125 0.0
H2100 H 0.39206 0.35371 0.90662 0.0
H2101 H 0.3469 0.38925 0.88155 0.0
H2102 H 0.3564 0.39294 0.92212 0.0
H2103 H 0.3471 0.37661 0.91767 0.0
C2104 C 0.36886 0.36837 0.00744 0.0
C2105 C 0.36648 0.35411 0.01453 0.0
C2106 C 0.37083 0.37296 0.97225 0.0
C2107 C 0.37041 0.36331 0.94383 0.0
C2108 C 0.36768 0.34909 0.95093 0.0
H2109 H 0.37702 0.37587 0.71555 0.0
H2110 H 0.36868 0.372 0.77703 0.0
C2111 C 0.36575 0.34451 0.98611 0.0
C2112 C 0.37432 0.36774 0.90725 0.0
H2113 H 0.36553 0.38986 0.83883 0.0
C2114 C 0.38623 0.36157 0.89172 0.0
C2115 C 0.36665 0.37796 0.88799 0.0
C2116 C 0.35347 0.3845 0.90299 0.0
C2117 C 0.39074 0.3654 0.85739 0.0
C2118 C 0.3833 0.37589 0.83847 0.0
C2119 C 0.3713 0.38197 0.85377 0.0
C2120 C 0.38754 0.38009 0.802 0.0
C2121 C 0.40329 0.35799 0.84139 0.0
C2122 C 0.4007 0.38629 0.79597 0.0
C2123 C 0.40548 0.38841 0.761 0.0
C2124 C 0.39705 0.38452 0.7318 0.0
C2125 C 0.38362 0.37898 0.73787 0.0
C2126 C 0.37886 0.37681 0.7728 0.0
H2127 H 0.40581 0.34813 0.85594 0.0
H2128 H 0.40143 0.35544 0.81271 0.0
H2129 H 0.41259 0.36499 0.84298 0.0
H2130 H 0.40747 0.38899 0.81829 0.0
H2131 H 0.41596 0.39252 0.75678 0.0
H2132 H 0.37841 0.63416 0.79028 0.0
H2133 H 0.36876 0.63874 0.73039 0.0
H2134 H 0.40253 0.61494 0.68299 0.0
H2135 H 0.41242 0.61065 0.74278 0.0
H2136 H 0.38705 0.65253 0.67499 0.0
H2137 H 0.36449 0.60115 0.63332 0.0
H2138 H 0.3665 0.60613 0.67985 0.0
H2139 H 0.38152 0.60078 0.65428 0.0
C2140 C 0.38364 0.62978 0.76703 0.0
C2141 C 0.39609 0.62203 0.77088 0.0
C2142 C 0.37811 0.63234 0.73302 0.0
C2143 C 0.38487 0.62702 0.70255 0.0
C2144 C 0.39705 0.61889 0.70639 0.0
H2145 H 0.38299 0.63457 0.47538 0.0
H2146 H 0.38544 0.62762 0.5382 0.0
C2147 C 0.40266 0.61643 0.7404 0.0
C2148 C 0.38015 0.63127 0.66658 0.0
H2149 H 0.36674 0.61861 0.58825 0.0
C2150 C 0.38243 0.6452 0.65605 0.0
C2151 C 0.37425 0.62159 0.64223 0.0
C2152 C 0.37143 0.60657 0.65288 0.0
C2153 C 0.37951 0.64963 0.62102 0.0
C2154 C 0.37374 0.63991 0.59635 0.0
C2155 C 0.3711 0.62604 0.6073 0.0
C2156 C 0.37139 0.64366 0.55839 0.0
C2157 C 0.38329 0.66446 0.61036 0.0
C2158 C 0.3625 0.65482 0.54893 0.0
C2159 C 0.36133 0.65898 0.51313 0.0
C2160 C 0.3688 0.65181 0.48633 0.0
C2161 C 0.37726 0.64033 0.4957 0.0
C2162 C 0.37856 0.63629 0.53146 0.0
H2163 H 0.39072 0.66935 0.62965 0.0
H2164 H 0.3881 0.66472 0.58324 0.0
H2165 H 0.37363 0.67096 0.6098 0.0
H2166 H 0.35667 0.66047 0.56928 0.0
H2167 H 0.35485 0.66796 0.50651 0.0
H2168 H 0.11723 0.66151 0.49839 0.0
H2169 H 0.11592 0.65275 0.43671 0.0
H2170 H 0.15075 0.62493 0.4573 0.0
H2171 H 0.15204 0.6337 0.51943 0.0
H2172 H 0.14083 0.65139 0.38331 0.0
H2173 H 0.11509 0.60062 0.41913 0.0
H2174 H 0.11362 0.61576 0.44811 0.0
H2175 H 0.13008 0.60679 0.44422 0.0
C2176 C 0.12457 0.65351 0.4897 0.0
C2177 C 0.13458 0.64807 0.51345 0.0
C2178 C 0.12386 0.64858 0.4546 0.0
C2179 C 0.13316 0.63814 0.44284 0.0
C2180 C 0.14344 0.63293 0.4662 0.0
H2181 H 0.11942 0.60296 0.22617 0.0
H2182 H 0.12983 0.60541 0.28636 0.0
C2183 C 0.1442 0.63794 0.5014 0.0
C2184 C 0.13172 0.63273 0.40608 0.0
H2185 H 0.11515 0.60709 0.35817 0.0
C2186 C 0.13552 0.64156 0.37766 0.0
C2187 C 0.12486 0.61986 0.39907 0.0
C2188 C 0.12062 0.61013 0.42909 0.0
C2189 C 0.13188 0.63822 0.34231 0.0
C2190 C 0.12405 0.62589 0.33558 0.0
C2191 C 0.12111 0.61656 0.36366 0.0
C2192 C 0.11734 0.62356 0.30051 0.0
C2193 C 0.13586 0.6482 0.31258 0.0
C2194 C 0.1066 0.63264 0.28948 0.0
C2195 C 0.10064 0.63121 0.2556 0.0
C2196 C 0.1054 0.62071 0.23222 0.0
C2197 C 0.11569 0.61118 0.24386 0.0
C2198 C 0.12164 0.61259 0.27797 0.0
H2199 H 0.14492 0.65491 0.32031 0.0
H2200 H 0.13855 0.64238 0.28769 0.0
H2201 H 0.12682 0.65517 0.30665 0.0
H2202 H 0.10298 0.64099 0.30694 0.0
H2203 H 0.09249 0.63846 0.24738 0.0
H2204 H 0.09485 0.36747 0.24821 0.0
H2205 H 0.10529 0.36612 0.1883 0.0
H2206 H 0.12917 0.40371 0.20945 0.0
H2207 H 0.11889 0.40497 0.27005 0.0
H2208 H 0.10942 0.39721 0.13501 0.0
H2209 H 0.15271 0.36129 0.17565 0.0
H2210 H 0.13582 0.35875 0.19648 0.0
H2211 H 0.14557 0.37448 0.20544 0.0
C2212 C 0.10236 0.3754 0.24008 0.0
C2213 C 0.10629 0.38618 0.26366 0.0
C2214 C 0.10825 0.37466 0.20599 0.0
C2215 C 0.11805 0.38474 0.19494 0.0
C2216 C 0.12166 0.39583 0.21786 0.0
H2217 H 0.154 0.36938 0.97943 0.0
H2218 H 0.15261 0.37987 0.03977 0.0
C2219 C 0.11577 0.39655 0.25218 0.0
C2220 C 0.12447 0.38331 0.15932 0.0
H2221 H 0.14697 0.36204 0.11343 0.0
C2222 C 0.11792 0.38987 0.13018 0.0
C2223 C 0.13555 0.37373 0.15347 0.0
C2224 C 0.14294 0.36667 0.18435 0.0
C2225 C 0.12151 0.38625 0.09495 0.0
C2226 C 0.13179 0.37581 0.08913 0.0
C2227 C 0.1391 0.37006 0.11822 0.0
C2228 C 0.13334 0.36918 0.05377 0.0
C2229 C 0.11369 0.39289 0.06414 0.0
C2230 C 0.12318 0.35948 0.04258 0.0
C2231 C 0.12402 0.35344 0.00867 0.0
C2232 C 0.13497 0.35712 0.98537 0.0
C2233 C 0.14545 0.36645 0.99707 0.0
C2234 C 0.14464 0.37246 0.03124 0.0
H2235 H 0.10821 0.40267 0.07243 0.0
H2236 H 0.121 0.39536 0.04179 0.0
H2237 H 0.10573 0.38538 0.05389 0.0
H2238 H 0.11449 0.35672 0.06 0.0
H2239 H 0.11601 0.34603 0.00045 0.0
H2240 H 0.30483 0.14893 0.57529 0.0
H2241 H 0.28504 0.14315 0.53628 0.0
H2242 H 0.26387 0.18098 0.56973 0.0
H2243 H 0.28327 0.18645 0.61009 0.0
H2244 H 0.24548 0.15976 0.56108 0.0
H2245 H 0.28039 0.16332 0.44191 0.0
H2246 H 0.28517 0.15008 0.47395 0.0
H2247 H 0.28611 0.16833 0.48619 0.0
C2248 C 0.29576 0.15575 0.57552 0.0
C2249 C 0.29561 0.16811 0.59623 0.0
C2250 C 0.28453 0.15256 0.55254 0.0
C2251 C 0.27308 0.16179 0.54937 0.0
C2252 C 0.27259 0.17371 0.5715 0.0
H2253 H 0.21869 0.18599 0.3815 0.0
H2254 H 0.23815 0.18055 0.42167 0.0
C2255 C 0.28372 0.17684 0.59459 0.0
C2256 C 0.26198 0.15971 0.52169 0.0
H2257 H 0.25644 0.15934 0.43105 0.0
C2258 C 0.24787 0.15949 0.53264 0.0
C2259 C 0.2651 0.15952 0.48452 0.0
C2260 C 0.27999 0.16044 0.47078 0.0
C2261 C 0.23682 0.15961 0.50762 0.0
C2262 C 0.23994 0.15955 0.47044 0.0
C2263 C 0.25405 0.15925 0.4595 0.0
C2264 C 0.22884 0.16152 0.4427 0.0
C2265 C 0.22194 0.16064 0.52132 0.0
C2266 C 0.21733 0.15234 0.43991 0.0
C2267 C 0.20607 0.1555 0.41702 0.0
C2268 C 0.20624 0.1678 0.39606 0.0
C2269 C 0.21822 0.17643 0.39722 0.0
C2270 C 0.22938 0.17332 0.42021 0.0
H2271 H 0.22154 0.16367 0.55009 0.0
H2272 H 0.21584 0.16846 0.50565 0.0
H2273 H 0.21672 0.15028 0.5185 0.0
H2274 H 0.21679 0.143 0.45643 0.0
H2275 H 0.19694 0.14876 0.41757 0.0
H2276 H 0.06897 0.9682 0.63781 0.0
H2277 H 0.07461 0.98807 0.67661 0.0
H2278 H 0.10861 0.9645 0.7236 0.0
H2279 H 0.10279 0.94441 0.68523 0.0
H2280 H 0.09121 0.97564 0.77422 0.0
H2281 H 0.10565 0.01716 0.67763 0.0
H2282 H 0.08922 0.00914 0.66607 0.0
H2283 H 0.10507 0.99881 0.6654 0.0
C2284 C 0.07789 0.96738 0.65573 0.0
C2285 C 0.0856 0.95482 0.65789 0.0
C2286 C 0.08115 0.97878 0.67783 0.0
C2287 C 0.0922 0.97791 0.70268 0.0
C2288 C 0.10016 0.96549 0.70431 0.0
H2289 H 0.10519 0.05512 0.82813 0.0
H2290 H 0.11111 0.03381 0.79465 0.0
C2291 C 0.09693 0.95406 0.68203 0.0
C2292 C 0.09437 0.98943 0.72913 0.0
H2293 H 0.09746 0.02508 0.73559 0.0
C2294 C 0.09285 0.98642 0.76582 0.0
C2295 C 0.09674 0.00349 0.71839 0.0
C2296 C 0.09942 0.00733 0.67974 0.0
C2297 C 0.09274 0.99716 0.79172 0.0
C2298 C 0.09394 0.01133 0.78063 0.0
C2299 C 0.09637 0.01426 0.7442 0.0
C2300 C 0.09142 0.02331 0.80557 0.0
C2301 C 0.0911 0.99321 0.83067 0.0
C2302 C 0.0785 0.02444 0.82346 0.0
C2303 C 0.07518 0.03652 0.84298 0.0
C2304 C 0.08467 0.04781 0.84503 0.0
C2305 C 0.09782 0.04649 0.82821 0.0
C2306 C 0.10115 0.03436 0.80859 0.0
H2307 H 0.09535 0.98254 0.83594 0.0
H2308 H 0.0965 1.00082 0.84854 0.0
H2309 H 0.07977 0.99307 0.83762 0.0
H2310 H 0.07064 0.01628 0.82085 0.0
H2311 H 0.06489 0.03728 0.85521 0.0
H2312 H 0.1967 0.85482 0.06855 0.0
H2313 H 0.21648 0.86022 0.02914 0.0
H2314 H 0.23903 0.82454 0.07098 0.0
H2315 H 0.21957 0.81944 0.11151 0.0
H2316 H 0.25646 0.84673 0.05915 0.0
H2317 H 0.22296 0.83707 0.93944 0.0
H2318 H 0.21713 0.85093 0.96853 0.0
H2319 H 0.21717 0.83309 0.98435 0.0
C2320 C 0.20604 0.84843 0.07044 0.0
C2321 C 0.20657 0.83676 0.0936 0.0
C2322 C 0.21728 0.85138 0.04729 0.0
C2323 C 0.22915 0.84262 0.04649 0.0
C2324 C 0.22998 0.83143 0.07093 0.0
H2325 H 0.28689 0.81522 0.8902 0.0
H2326 H 0.2666 0.82114 0.92715 0.0
C2327 C 0.21883 0.82852 0.09411 0.0
C2328 C 0.24039 0.84438 0.01905 0.0
H2329 H 0.2468 0.84178 0.92903 0.0
C2330 C 0.25434 0.84584 0.03064 0.0
C2331 C 0.23763 0.84307 0.98184 0.0
C2332 C 0.22294 0.84084 0.96766 0.0
C2333 C 0.26563 0.84551 0.00632 0.0
C2334 C 0.26288 0.84401 0.96915 0.0
C2335 C 0.24889 0.84307 0.95744 0.0
C2336 C 0.27436 0.84162 0.94268 0.0
C2337 C 0.28041 0.84594 0.0209 0.0
C2338 C 0.28526 0.8514 0.93774 0.0
C2339 C 0.29696 0.84799 0.91658 0.0
C2340 C 0.29788 0.83481 0.89968 0.0
C2341 C 0.2865 0.82547 0.9028 0.0
C2342 C 0.27488 0.82884 0.92395 0.0
H2343 H 0.28071 0.84424 0.05038 0.0
H2344 H 0.28706 0.83784 0.00786 0.0
H2345 H 0.28509 0.85638 0.01526 0.0
H2346 H 0.28498 0.86143 0.95139 0.0
H2347 H 0.30562 0.85532 0.91553 0.0
H2348 H 0.3994 0.94488 0.32387 0.0
H2349 H 0.39367 0.96472 0.28489 0.0
H2350 H 0.43013 0.98692 0.32353 0.0
H2351 H 0.4356 0.96738 0.36352 0.0
H2352 H 0.40778 0.00456 0.31343 0.0
H2353 H 0.41603 0.97086 0.19338 0.0
H2354 H 0.40252 0.96513 0.22363 0.0
H2355 H 0.42053 0.96514 0.23803 0.0
C2356 C 0.4059 0.95417 0.32516 0.0
C2357 C 0.4179 0.95458 0.34719 0.0
C2358 C 0.40275 0.96544 0.30228 0.0
C2359 C 0.41163 0.97721 0.30069 0.0
C2360 C 0.42314 0.97794 0.32412 0.0
H2361 H 0.43775 0.03493 0.14271 0.0
H2362 H 0.43224 0.01466 0.18021 0.0
C2363 C 0.42626 0.96675 0.347 0.0
C2364 C 0.40965 0.98843 0.27331 0.0
H2365 H 0.41147 0.99474 0.18311 0.0
C2366 C 0.40838 0.00241 0.2849 0.0
C2367 C 0.41061 0.98562 0.23606 0.0
C2368 C 0.41261 0.97091 0.22187 0.0
C2369 C 0.40853 0.01367 0.26047 0.0
C2370 C 0.40968 0.01087 0.22325 0.0
C2371 C 0.41045 0.99687 0.21158 0.0
C2372 C 0.41183 0.02231 0.19657 0.0
C2373 C 0.40828 0.02847 0.27494 0.0
C2374 C 0.40195 0.03313 0.19197 0.0
C2375 C 0.40511 0.04481 0.17048 0.0
C2376 C 0.41815 0.04578 0.15292 0.0
C2377 C 0.4276 0.0345 0.1558 0.0
C2378 C 0.42446 0.02289 0.17726 0.0
H2379 H 0.41022 0.02881 0.30432 0.0
H2380 H 0.41631 0.03507 0.26141 0.0
H2381 H 0.39783 0.03319 0.26978 0.0
H2382 H 0.39202 0.03282 0.20613 0.0
H2383 H 0.39771 0.05341 0.16965 0.0
H2384 H 0.695 0.85195 0.4334 0.0
H2385 H 0.71542 0.85804 0.47011 0.0
H2386 H 0.73987 0.8266 0.41503 0.0
H2387 H 0.71964 0.8209 0.3774 0.0
H2388 H 0.72776 0.84051 0.51634 0.0
H2389 H 0.76795 0.85806 0.41958 0.0
H2390 H 0.74958 0.8569 0.40793 0.0
H2391 H 0.7606 0.84152 0.40637 0.0
C2392 C 0.70493 0.84688 0.42776 0.0
C2393 C 0.70586 0.8363 0.40153 0.0
C2394 C 0.71655 0.85021 0.44923 0.0
C2395 C 0.72931 0.84299 0.44498 0.0
C2396 C 0.73032 0.83265 0.41819 0.0
H2397 H 0.80072 0.81627 0.55521 0.0
H2398 H 0.7811 0.82224 0.51625 0.0
C2399 C 0.71873 0.82935 0.39674 0.0
C2400 C 0.74105 0.84498 0.47097 0.0
H2401 H 0.77669 0.84873 0.47592 0.0
C2402 C 0.73841 0.84266 0.50762 0.0
C2403 C 0.75496 0.84783 0.45973 0.0
C2404 C 0.75841 0.85137 0.42129 0.0
C2405 C 0.74941 0.84217 0.5328 0.0
C2406 C 0.76339 0.84413 0.52109 0.0
C2407 C 0.76595 0.84719 0.48484 0.0
C2408 C 0.77554 0.84117 0.54491 0.0
C2409 C 0.74612 0.83869 0.57137 0.0
C2410 C 0.779 0.8499 0.57405 0.0
C2411 C 0.79034 0.8465 0.59661 0.0
C2412 C 0.7983 0.83429 0.59038 0.0
C2413 C 0.79476 0.82569 0.56103 0.0
C2414 C 0.78359 0.82913 0.53852 0.0
H2415 H 0.73483 0.83628 0.57555 0.0
H2416 H 0.75245 0.82953 0.58023 0.0
H2417 H 0.74899 0.84773 0.58868 0.0
H2418 H 0.77292 0.85928 0.57938 0.0
H2419 H 0.79269 0.85324 0.61921 0.0
H2420 H 0.93856 0.96649 0.14509 0.0
H2421 H 0.93294 0.98662 0.18292 0.0
H2422 H 0.89259 0.96844 0.20739 0.0
H2423 H 0.8984 0.94795 0.17064 0.0
H2424 H 0.91247 0.00656 0.18574 0.0
H2425 H 0.9101 0.97218 0.30619 0.0
H2426 H 0.91633 0.96595 0.26338 0.0
H2427 H 0.89782 0.96803 0.27118 0.0
C2428 C 0.92836 0.96688 0.15795 0.0
C2429 C 0.91891 0.95561 0.15459 0.0
C2430 C 0.92516 0.97842 0.1796 0.0
C2431 C 0.91246 0.97895 0.19862 0.0
C2432 C 0.90257 0.96815 0.19351 0.0
H2433 H 0.90012 0.05625 0.32643 0.0
H2434 H 0.89444 0.03657 0.28692 0.0
C2435 C 0.9058 0.95653 0.17185 0.0
C2436 C 0.91023 0.99033 0.22546 0.0
H2437 H 0.9078 0.99642 0.31567 0.0
C2438 C 0.91124 0.00436 0.21411 0.0
C2439 C 0.90881 0.98745 0.26257 0.0
C2440 C 0.90831 0.9726 0.27676 0.0
C2441 C 0.91138 0.01553 0.23882 0.0
C2442 C 0.91014 0.01263 0.27597 0.0
C2443 C 0.90863 0.99864 0.28721 0.0
C2444 C 0.91203 0.02376 0.30366 0.0
C2445 C 0.91369 0.03026 0.22499 0.0
C2446 C 0.92329 0.02281 0.32784 0.0
C2447 C 0.92637 0.03391 0.35108 0.0
C2448 C 0.91822 0.04623 0.35088 0.0
C2449 C 0.90646 0.04686 0.32806 0.0
C2450 C 0.90334 0.03568 0.30486 0.0
H2451 H 0.91738 0.03032 0.19672 0.0
H2452 H 0.90364 0.03614 0.22617 0.0
H2453 H 0.92151 0.03591 0.24171 0.0
H2454 H 0.93013 0.01372 0.32759 0.0
H2455 H 0.93552 0.03309 0.36821 0.0
H2456 H 0.80797 0.1492 0.93548 0.0
H2457 H 0.7872 0.14287 0.9707 0.0
H2458 H 0.76357 0.17542 0.91756 0.0
H2459 H 0.78415 0.18143 0.88158 0.0
H2460 H 0.77477 0.1603 0.01793 0.0
H2461 H 0.7351 0.14409 0.91824 0.0
H2462 H 0.75358 0.14503 0.90767 0.0
H2463 H 0.74285 0.1606 0.90631 0.0
C2464 C 0.79815 0.15448 0.92992 0.0
C2465 C 0.79755 0.16548 0.90482 0.0
C2466 C 0.78633 0.15101 0.95053 0.0
C2467 C 0.7737 0.15848 0.94641 0.0
C2468 C 0.77301 0.1692 0.92058 0.0
H2469 H 0.70171 0.18532 0.0533 0.0
H2470 H 0.72155 0.17923 0.0152 0.0
C2471 C 0.78481 0.17267 0.90007 0.0
C2472 C 0.76177 0.15635 0.97171 0.0
H2473 H 0.72606 0.15308 0.97462 0.0
C2474 C 0.76416 0.15836 0.00858 0.0
C2475 C 0.74792 0.15377 0.95962 0.0
C2476 C 0.74473 0.1506 0.92082 0.0
C2477 C 0.75297 0.15886 0.03321 0.0
C2478 C 0.73906 0.1572 0.02068 0.0
C2479 C 0.73674 0.1544 0.98418 0.0
C2480 C 0.72676 0.16022 0.04395 0.0
C2481 C 0.756 0.16207 0.07208 0.0
C2482 C 0.72301 0.15149 0.07284 0.0
C2483 C 0.71155 0.15496 0.09491 0.0
C2484 C 0.70374 0.16724 0.08841 0.0
C2485 C 0.70755 0.17585 0.05931 0.0
C2486 C 0.71885 0.17234 0.03729 0.0
H2487 H 0.76728 0.16438 0.07687 0.0
H2488 H 0.74967 0.17121 0.08107 0.0
H2489 H 0.75297 0.15293 0.08884 0.0
H2490 H 0.72897 0.14205 0.07836 0.0
H2491 H 0.70901 0.14822 0.11735 0.0
H2492 H 0.56601 0.03819 0.63952 0.0
H2493 H 0.57122 0.01823 0.67828 0.0
H2494 H 0.60858 0.03912 0.7161 0.0
H2495 H 0.60307 0.05944 0.67853 0.0
H2496 H 0.59266 0.99987 0.68614 0.0
H2497 H 0.58742 0.03274 0.80869 0.0
H2498 H 0.58273 0.03911 0.76476 0.0
H2499 H 0.60086 0.03821 0.77796 0.0
C2500 C 0.57546 0.03847 0.65565 0.0
C2501 C 0.58414 0.05043 0.65562 0.0
C2502 C 0.57844 0.02702 0.67782 0.0
C2503 C 0.59015 0.02725 0.70068 0.0
C2504 C 0.59933 0.0388 0.69922 0.0
H2505 H 0.60337 0.94941 0.82591 0.0
H2506 H 0.60891 0.96989 0.789 0.0
C2507 C 0.59631 0.05034 0.67709 0.0
C2508 C 0.59206 0.01571 0.72727 0.0
H2509 H 0.59148 0.00866 0.81723 0.0
C2510 C 0.59259 0.00179 0.71482 0.0
C2511 C 0.59179 0.01821 0.76475 0.0
C2512 C 0.59055 0.03285 0.77999 0.0
C2513 C 0.59236 0.99033 0.73862 0.0
C2514 C 0.59196 0.99283 0.77609 0.0
C2515 C 0.59192 0.00675 0.78857 0.0
C2516 C 0.58993 0.98123 0.80246 0.0
C2517 C 0.59174 0.97567 0.72328 0.0
C2518 C 0.57787 0.98111 0.82407 0.0
C2519 C 0.57485 0.96956 0.8459 0.0
C2520 C 0.58385 0.95786 0.84682 0.0
C2521 C 0.59634 0.95831 0.82665 0.0
C2522 C 0.5994 0.96994 0.80489 0.0
H2523 H 0.58906 0.9757 0.69427 0.0
H2524 H 0.60215 0.97057 0.72638 0.0
H2525 H 0.58385 0.96919 0.73769 0.0
H2526 H 0.57041 0.98969 0.82285 0.0
H2527 H 0.56513 0.96956 0.861 0.0
H2528 H 0.71649 0.6907 0.89008 0.0
H2529 H 0.73719 0.68483 0.92564 0.0
H2530 H 0.71938 0.64431 0.95004 0.0
H2531 H 0.69843 0.65031 0.91525 0.0
H2532 H 0.72744 0.65817 0.01002 0.0
H2533 H 0.77099 0.65974 0.91232 0.0
H2534 H 0.76045 0.67531 0.90984 0.0
H2535 H 0.75283 0.65856 0.89866 0.0
C2536 C 0.71716 0.68037 0.90214 0.0
C2537 C 0.70591 0.67088 0.89918 0.0
C2538 C 0.72904 0.677 0.92237 0.0
C2539 C 0.72998 0.66403 0.94014 0.0
C2540 C 0.71898 0.6543 0.93621 0.0
H2541 H 0.80757 0.65126 0.06411 0.0
H2542 H 0.78766 0.64593 0.02496 0.0
C2543 C 0.70707 0.65767 0.91584 0.0
C2544 C 0.74167 0.66143 0.96586 0.0
H2545 H 0.77732 0.66357 0.97441 0.0
C2546 C 0.73836 0.65908 0.0021 0.0
C2547 C 0.75595 0.66242 0.95562 0.0
C2548 C 0.76027 0.66399 0.91691 0.0
C2549 C 0.74887 0.65854 0.02856 0.0
C2550 C 0.76306 0.66064 0.01866 0.0
C2551 C 0.76644 0.66212 0.98216 0.0
C2552 C 0.7744 0.66249 0.04577 0.0
C2553 C 0.74461 0.65593 0.06696 0.0
C2554 C 0.77355 0.67343 0.07093 0.0
C2555 C 0.78486 0.67639 0.09362 0.0
C2556 C 0.79732 0.66851 0.09169 0.0
C2557 C 0.79802 0.65726 0.06725 0.0
C2558 C 0.78668 0.65431 0.04445 0.0
H2559 H 0.73466 0.64987 0.06845 0.0
H2560 H 0.75288 0.65012 0.08183 0.0
H2561 H 0.74285 0.66615 0.08052 0.0
H2562 H 0.76437 0.68013 0.07193 0.0
H2563 H 0.78405 0.68524 0.11178 0.0
H2564 H 0.59995 0.54356 0.36438 0.0
H2565 H 0.60653 0.52331 0.32679 0.0
H2566 H 0.57225 0.53261 0.2551 0.0
H2567 H 0.5658 0.55271 0.29178 0.0
H2568 H 0.58895 0.49984 0.30911 0.0
H2569 H 0.60572 0.52792 0.18662 0.0
H2570 H 0.60459 0.53641 0.22989 0.0
H2571 H 0.58908 0.534 0.20297 0.0
C2572 C 0.59401 0.54142 0.34025 0.0
C2573 C 0.58243 0.54983 0.33093 0.0
C2574 C 0.59773 0.52982 0.31892 0.0
C2575 C 0.59004 0.52661 0.28773 0.0
C2576 C 0.57853 0.53504 0.27853 0.0
H2577 H 0.56784 0.46629 0.13514 0.0
H2578 H 0.57347 0.48699 0.17116 0.0
C2579 C 0.57477 0.54647 0.29982 0.0
C2580 C 0.59323 0.51403 0.26557 0.0
H2581 H 0.59806 0.50393 0.17848 0.0
C2582 C 0.59131 0.50067 0.28073 0.0
C2583 C 0.59629 0.51515 0.22854 0.0
C2584 C 0.59918 0.52915 0.2111 0.0
C2585 C 0.59134 0.48849 0.25933 0.0
C2586 C 0.59357 0.48971 0.22188 0.0
C2587 C 0.5963 0.503 0.20713 0.0
C2588 C 0.59148 0.47762 0.19719 0.0
C2589 C 0.58806 0.47453 0.27656 0.0
C2590 C 0.60002 0.46561 0.19891 0.0
C2591 C 0.59684 0.45373 0.17815 0.0
C2592 C 0.5851 0.45371 0.15522 0.0
C2593 C 0.57699 0.466 0.15242 0.0
C2594 C 0.58019 0.47784 0.173 0.0
H2595 H 0.5844 0.47571 0.3047 0.0
H2596 H 0.57985 0.46888 0.26106 0.0
H2597 H 0.59765 0.46792 0.27667 0.0
H2598 H 0.60886 0.46526 0.21714 0.0
H2599 H 0.6031 0.44437 0.1817 0.0
H2600 H 0.6978 0.35427 0.57053 0.0
H2601 H 0.71804 0.35913 0.53224 0.0
H2602 H 0.73869 0.32206 0.57257 0.0
H2603 H 0.71879 0.31749 0.61213 0.0
H2604 H 0.75719 0.34338 0.56278 0.0
H2605 H 0.72397 0.33672 0.44131 0.0
H2606 H 0.71861 0.35056 0.47101 0.0
H2607 H 0.71771 0.3326 0.48571 0.0
C2608 C 0.70683 0.34743 0.57238 0.0
C2609 C 0.7067 0.33555 0.59484 0.0
C2610 C 0.71832 0.35009 0.54984 0.0
C2611 C 0.72978 0.34079 0.5489 0.0
C2612 C 0.72996 0.32936 0.57264 0.0
H2613 H 0.7871 0.31382 0.38992 0.0
H2614 H 0.76704 0.31954 0.42789 0.0
C2615 C 0.71856 0.32675 0.59526 0.0
C2616 C 0.74125 0.34232 0.52199 0.0
H2617 H 0.74803 0.34072 0.432 0.0
C2618 C 0.75519 0.34298 0.53415 0.0
C2619 C 0.73863 0.34162 0.4846 0.0
C2620 C 0.72395 0.34021 0.46974 0.0
C2621 C 0.76658 0.34249 0.51017 0.0
C2622 C 0.76397 0.34167 0.4728 0.0
C2623 C 0.75002 0.34148 0.46058 0.0
C2624 C 0.77548 0.33936 0.4464 0.0
C2625 C 0.78129 0.34207 0.52525 0.0
C2626 C 0.78672 0.34884 0.44297 0.0
C2627 C 0.7983 0.34554 0.4213 0.0
C2628 C 0.79875 0.33278 0.40227 0.0
C2629 C 0.78709 0.32374 0.40415 0.0
C2630 C 0.77559 0.32701 0.42587 0.0
H2631 H 0.78135 0.33975 0.55446 0.0
H2632 H 0.78771 0.334 0.51135 0.0
H2633 H 0.78637 0.35243 0.5212 0.0
H2634 H 0.78677 0.35856 0.45804 0.0
H2635 H 0.80718 0.35261 0.42129 0.0
H2636 H 0.93548 0.45075 0.79254 0.0
H2637 H 0.92886 0.4712 0.75725 0.0
H2638 H 0.89724 0.48187 0.8354 0.0
H2639 H 0.90399 0.46129 0.87152 0.0
H2640 H 0.90132 0.4785 0.72805 0.0
H2641 H 0.92253 0.51783 0.82473 0.0
H2642 H 0.92767 0.49959 0.8263 0.0
H2643 H 0.91052 0.50472 0.8412 0.0
C2644 C 0.92711 0.45742 0.8024 0.0
C2645 C 0.92025 0.45435 0.83489 0.0
C2646 C 0.92328 0.46908 0.78201 0.0
C2647 C 0.9126 0.47809 0.7937 0.0
C2648 C 0.90557 0.47506 0.82597 0.0
H2649 H 0.90135 0.56063 0.69234 0.0
H2650 H 0.89598 0.54014 0.7295 0.0
C2651 C 0.90935 0.46325 0.84642 0.0
C2652 C 0.90934 0.49077 0.77204 0.0
H2653 H 0.91528 0.52611 0.76855 0.0
C2654 C 0.90414 0.48896 0.73709 0.0
C2655 C 0.91297 0.5044 0.7839 0.0
C2656 C 0.9188 0.50687 0.821 0.0
C2657 C 0.90297 0.50033 0.71325 0.0
C2658 C 0.90741 0.51383 0.72436 0.0
C2659 C 0.9119 0.51576 0.75996 0.0
C2660 C 0.90882 0.52576 0.69878 0.0
C2661 C 0.89718 0.49771 0.67619 0.0
C2662 C 0.91768 0.52452 0.6688 0.0
C2663 C 0.92058 0.53617 0.64722 0.0
C2664 C 0.91466 0.54933 0.65502 0.0
C2665 C 0.90553 0.55052 0.68451 0.0
C2666 C 0.90263 0.53884 0.70617 0.0
H2667 H 0.88989 0.4886 0.67605 0.0
H2668 H 0.89153 0.50706 0.66575 0.0
H2669 H 0.90597 0.49525 0.65769 0.0
H2670 H 0.92293 0.51468 0.66308 0.0
H2671 H 0.92792 0.53504 0.62521 0.0
H2672 H 0.21813 0.32085 0.88447 0.0
H2673 H 0.23819 0.32615 0.92298 0.0
H2674 H 0.21521 0.36036 0.9709 0.0
H2675 H 0.19491 0.35484 0.9331 0.0
H2676 H 0.25482 0.34991 0.93475 0.0
H2677 H 0.2245 0.33538 0.05703 0.0
H2678 H 0.21817 0.33164 0.01242 0.0
H2679 H 0.21733 0.34921 0.02982 0.0
C2680 C 0.21742 0.32968 0.90273 0.0
C2681 C 0.20494 0.33748 0.90542 0.0
C2682 C 0.22891 0.3327 0.92475 0.0
C2683 C 0.22815 0.34352 0.95025 0.0
C2684 C 0.21597 0.35184 0.95177 0.0
H2685 H 0.29251 0.35084 0.12237 0.0
H2686 H 0.27267 0.35774 0.08364 0.0
C2687 C 0.20444 0.34882 0.92964 0.0
C2688 C 0.23984 0.3453 0.97637 0.0
H2689 H 0.24852 0.33991 0.06437 0.0
C2690 C 0.2534 0.34796 0.96319 0.0
C2691 C 0.238 0.34279 0.01356 0.0
C2692 C 0.22376 0.33949 0.02921 0.0
C2693 C 0.26519 0.34759 0.98582 0.0
C2694 C 0.26343 0.3443 0.02255 0.0
C2695 C 0.24983 0.34246 0.03621 0.0
C2696 C 0.27561 0.34076 0.04577 0.0
C2697 C 0.27952 0.35026 0.97001 0.0
C2698 C 0.28366 0.32887 0.03763 0.0
C2699 C 0.29482 0.32491 0.05959 0.0
C2700 C 0.29829 0.33277 0.09029 0.0
C2701 C 0.29023 0.34471 0.09862 0.0
C2702 C 0.27888 0.34862 0.07663 0.0
H2703 H 0.27884 0.35666 0.94516 0.0
H2704 H 0.28645 0.35571 0.98952 0.0
H2705 H 0.28445 0.34006 0.96296 0.0
H2706 H 0.28118 0.3225 0.01437 0.0
H2707 H 0.30081 0.31567 0.05228 0.0
H2708 H 0.4413 0.53841 0.8458 0.0
H2709 H 0.43587 0.51775 0.80961 0.0
H2710 H 0.39384 0.53322 0.79263 0.0
H2711 H 0.39938 0.55421 0.82787 0.0
H2712 H 0.41629 0.49662 0.81242 0.0
H2713 H 0.4088 0.52949 0.69061 0.0
H2714 H 0.41603 0.53644 0.73167 0.0
H2715 H 0.39745 0.5335 0.72772 0.0
C2716 C 0.4308 0.5373 0.83496 0.0
C2717 C 0.42075 0.54792 0.84008 0.0
C2718 C 0.42771 0.52547 0.81423 0.0
C2719 C 0.41452 0.52402 0.79784 0.0
C2720 C 0.40416 0.53421 0.80454 0.0
H2721 H 0.40102 0.44475 0.67994 0.0
H2722 H 0.39601 0.46501 0.71822 0.0
C2723 C 0.40727 0.5461 0.82535 0.0
C2724 C 0.41214 0.51226 0.77219 0.0
H2725 H 0.40723 0.50504 0.68318 0.0
C2726 C 0.41412 0.49843 0.78424 0.0
C2727 C 0.40951 0.51466 0.73529 0.0
C2728 C 0.40793 0.52931 0.72033 0.0
C2729 C 0.41394 0.487 0.76037 0.0
C2730 C 0.4114 0.4894 0.72341 0.0
C2731 C 0.40903 0.50319 0.71152 0.0
C2732 C 0.41262 0.47795 0.69632 0.0
C2733 C 0.41725 0.47254 0.77472 0.0
C2734 C 0.42302 0.47877 0.66972 0.0
C2735 C 0.42563 0.46734 0.64711 0.0
C2736 C 0.41779 0.4549 0.65031 0.0
C2737 C 0.40688 0.45435 0.6757 0.0
C2738 C 0.40422 0.46583 0.69825 0.0
H2739 H 0.42197 0.47297 0.80196 0.0
H2740 H 0.40741 0.46634 0.77646 0.0
H2741 H 0.42461 0.46692 0.75664 0.0
H2742 H 0.42964 0.48799 0.66765 0.0
H2743 H 0.43424 0.46799 0.62818 0.0
H2744 H 0.28648 0.68963 0.39479 0.0
H2745 H 0.26595 0.68379 0.43103 0.0
H2746 H 0.28262 0.64232 0.44956 0.0
H2747 H 0.30346 0.64828 0.41435 0.0
H2748 H 0.24532 0.66355 0.42956 0.0
H2749 H 0.27885 0.65787 0.55088 0.0
H2750 H 0.28545 0.66499 0.50935 0.0
H2751 H 0.28301 0.64637 0.51418 0.0
C2752 C 0.28566 0.67916 0.40597 0.0
C2753 C 0.2966 0.66941 0.40136 0.0
C2754 C 0.2739 0.67583 0.42672 0.0
C2755 C 0.27283 0.6627 0.44359 0.0
C2756 C 0.28331 0.6526 0.43728 0.0
H2757 H 0.19464 0.64889 0.56703 0.0
H2758 H 0.21447 0.6437 0.52747 0.0
C2759 C 0.29514 0.65595 0.41651 0.0
C2760 C 0.26122 0.66017 0.46958 0.0
H2761 H 0.25451 0.65592 0.55905 0.0
C2762 C 0.2473 0.66168 0.4578 0.0
C2763 C 0.26384 0.65789 0.50655 0.0
C2764 C 0.27858 0.65679 0.52121 0.0
C2765 C 0.23597 0.66144 0.48202 0.0
C2766 C 0.2386 0.65936 0.51905 0.0
C2767 C 0.25249 0.65738 0.53066 0.0
C2768 C 0.22734 0.6609 0.54649 0.0
C2769 C 0.22137 0.66423 0.46795 0.0
C2770 C 0.22826 0.67178 0.5718 0.0
C2771 C 0.21706 0.67459 0.59492 0.0
C2772 C 0.20469 0.66654 0.5935 0.0
C2773 C 0.20408 0.65513 0.56954 0.0
C2774 C 0.21534 0.65229 0.54637 0.0
H2775 H 0.22151 0.66838 0.4401 0.0
H2776 H 0.21529 0.65429 0.46793 0.0
H2777 H 0.21578 0.67188 0.48532 0.0
H2778 H 0.2374 0.67854 0.57255 0.0
H2779 H 0.21786 0.68348 0.61296 0.0
H2780 H 0.06815 0.53684 0.13651 0.0
H2781 H 0.07347 0.51676 0.1747 0.0
H2782 H 0.11091 0.53754 0.21241 0.0
H2783 H 0.10527 0.558 0.17549 0.0
H2784 H 0.09468 0.49836 0.18193 0.0
H2785 H 0.09021 0.5309 0.30524 0.0
H2786 H 0.08545 0.53747 0.26156 0.0
H2787 H 0.10362 0.53632 0.27437 0.0
C2788 C 0.07765 0.53708 0.15251 0.0
C2789 C 0.0863 0.54906 0.15268 0.0
C2790 C 0.08069 0.52556 0.17435 0.0
C2791 C 0.09245 0.52571 0.19704 0.0
C2792 C 0.10162 0.53728 0.19569 0.0
H2793 H 0.10467 0.44722 0.32054 0.0
H2794 H 0.11052 0.46761 0.28364 0.0
C2795 C 0.09852 0.5489 0.17393 0.0
C2796 C 0.0944 0.51408 0.22337 0.0
H2797 H 0.094 0.50676 0.31318 0.0
C2798 C 0.09471 0.50019 0.21064 0.0
C2799 C 0.09427 0.51646 0.2609 0.0
C2800 C 0.09325 0.53107 0.27648 0.0
C2801 C 0.09438 0.48866 0.23421 0.0
C2802 C 0.0941 0.49105 0.27174 0.0
C2803 C 0.09433 0.50493 0.28448 0.0
C2804 C 0.09192 0.47942 0.29794 0.0
C2805 C 0.09348 0.47406 0.21857 0.0
C2806 C 0.07998 0.47956 0.32001 0.0
C2807 C 0.07681 0.46807 0.34189 0.0
C2808 C 0.08552 0.45614 0.3424 0.0
C2809 C 0.09787 0.45629 0.32165 0.0
C2810 C 0.10109 0.46788 0.29987 0.0
H2811 H 0.09068 0.47423 0.18963 0.0
H2812 H 0.10382 0.4688 0.22126 0.0
H2813 H 0.08555 0.46765 0.23302 0.0
H2814 H 0.07274 0.48833 0.31919 0.0
H2815 H 0.06721 0.46832 0.35746 0.0
H2816 H 0.10594 0.21038 0.33709 0.0
H2817 H 0.10182 0.23563 0.34325 0.0
H2818 H 0.14604 0.24234 0.36101 0.0
H2819 H 0.15032 0.21712 0.35471 0.0
H2820 H 0.12597 0.25403 0.415 0.0
H2821 H 0.11373 0.26881 0.27404 0.0
H2822 H 0.10514 0.2534 0.29144 0.0
H2823 H 0.12383 0.25336 0.28531 0.0
C2824 C 0.11483 0.21723 0.34185 0.0
C2825 C 0.12847 0.2117 0.34542 0.0
C2826 C 0.11245 0.23166 0.34524 0.0
C2827 C 0.12364 0.24083 0.35237 0.0
C2828 C 0.13728 0.23542 0.35534 0.0
H2829 H 0.12794 0.32903 0.41406 0.0
H2830 H 0.13303 0.30432 0.40204 0.0
C2831 C 0.1397 0.221 0.35163 0.0
C2832 C 0.12095 0.25593 0.35895 0.0
H2833 H 0.11033 0.28624 0.31836 0.0
C2834 C 0.12263 0.26112 0.39389 0.0
C2835 C 0.11647 0.26505 0.33138 0.0
C2836 C 0.11475 0.25997 0.29332 0.0
C2837 C 0.11968 0.2752 0.4022 0.0
C2838 C 0.11533 0.28442 0.37454 0.0
C2839 C 0.11369 0.27919 0.33953 0.0
C2840 C 0.11233 0.2995 0.3814 0.0
C2841 C 0.12085 0.27992 0.44074 0.0
C2842 C 0.09915 0.30516 0.37273 0.0
C2843 C 0.09626 0.31935 0.37911 0.0
C2844 C 0.10651 0.32816 0.39435 0.0
C2845 C 0.11975 0.3225 0.40269 0.0
C2846 C 0.12266 0.30834 0.39601 0.0
H2847 H 0.12019 0.27092 0.45961 0.0
H2848 H 0.13117 0.2851 0.44486 0.0
H2849 H 0.11246 0.28756 0.44763 0.0
H2850 H 0.09104 0.29857 0.36125 0.0
H2851 H 0.08597 0.32338 0.37225 0.0
H2852 H 0.92689 0.84129 0.60365 0.0
H2853 H 0.95165 0.84609 0.59091 0.0
H2854 H 0.95322 0.87489 0.68006 0.0
H2855 H 0.92848 0.87016 0.69311 0.0
H2856 H 0.96494 0.87307 0.57642 0.0
H2857 H 0.98589 0.84647 0.69791 0.0
H2858 H 0.96834 0.8434 0.68125 0.0
H2859 H 0.97224 0.85915 0.70582 0.0
C2860 C 0.9325 0.84862 0.62063 0.0
C2861 C 0.92573 0.85527 0.64957 0.0
C2862 C 0.94663 0.85138 0.61322 0.0
C2863 C 0.95428 0.86073 0.63476 0.0
C2864 C 0.94753 0.8675 0.6634 0.0
H2865 H 0.03579 0.89919 0.59948 0.0
H2866 H 0.01066 0.89447 0.60565 0.0
C2867 C 0.93338 0.86482 0.67073 0.0
C2868 C 0.96933 0.86336 0.62734 0.0
H2869 H 0.00217 0.85909 0.6624 0.0
C2870 C 0.9731 0.87001 0.59514 0.0
C2871 C 0.97993 0.8592 0.65167 0.0
C2872 C 0.97648 0.85155 0.686 0.0
C2873 C 0.98723 0.87282 0.58691 0.0
C2874 C 0.9978 0.86896 0.61165 0.0
C2875 C 0.99403 0.86211 0.64357 0.0
C2876 C 0.01288 0.87185 0.60505 0.0
C2877 C 0.99076 0.87974 0.55165 0.0
C2878 C 0.02246 0.86071 0.6027 0.0
C2879 C 0.03683 0.86335 0.5992 0.0
C2880 C 0.04194 0.87723 0.59832 0.0
C2881 C 0.03225 0.88838 0.59992 0.0
C2882 C 0.01786 0.88571 0.60332 0.0
H2883 H 0.98191 0.87906 0.53228 0.0
H2884 H 0.99307 0.89102 0.55638 0.0
H2885 H 1.0002 0.87486 0.53942 0.0
H2886 H 0.01882 0.84994 0.60409 0.0
H2887 H 0.04395 0.8545 0.59811 0.0
H2888 H 0.41849 0.6813 0.88844 0.0
H2889 H 0.41234 0.70578 0.87649 0.0
H2890 H 0.36882 0.69655 0.89809 0.0
H2891 H 0.37489 0.67209 0.91068 0.0
H2892 H 0.39421 0.71611 0.82437 0.0
H2893 H 0.376 0.73094 0.9608 0.0
H2894 H 0.38595 0.71516 0.95226 0.0
H2895 H 0.3675 0.71576 0.94221 0.0
C2896 C 0.40762 0.68449 0.89101 0.0
C2897 C 0.39719 0.67474 0.90073 0.0
C2898 C 0.40412 0.69848 0.88405 0.0
C2899 C 0.39015 0.70303 0.8868 0.0
C2900 C 0.37971 0.69334 0.8965 0.0
H2901 H 0.35261 0.78589 0.85487 0.0
H2902 H 0.35597 0.76052 0.86152 0.0
C2903 C 0.3832 0.67934 0.90355 0.0
C2904 C 0.38651 0.71782 0.87852 0.0
H2905 H 0.37291 0.7478 0.91488 0.0
C2906 C 0.38955 0.72304 0.84415 0.0
C2907 C 0.38037 0.72683 0.90432 0.0
C2908 C 0.37736 0.72197 0.94207 0.0
C2909 C 0.38663 0.73703 0.8349 0.0
C2910 C 0.38069 0.74608 0.86085 0.0
C2911 C 0.37742 0.74081 0.895 0.0
C2912 C 0.37847 0.76124 0.85383 0.0
C2913 C 0.38985 0.742 0.79736 0.0
C2914 C 0.39 0.77002 0.84712 0.0
C2915 C 0.38814 0.7845 0.84336 0.0
C2916 C 0.37469 0.79051 0.84638 0.0
C2917 C 0.3631 0.78162 0.85224 0.0
C2918 C 0.365 0.76713 0.85615 0.0
H2919 H 0.39063 0.73307 0.77825 0.0
H2920 H 0.38168 0.74939 0.78763 0.0
H2921 H 0.40008 0.74758 0.79738 0.0
H2922 H 0.40052 0.76573 0.84585 0.0
H2923 H 0.39731 0.79101 0.83896 0.0
H2924 H 0.46567 0.10212 0.10752 0.0
H2925 H 0.49082 0.10664 0.11397 0.0
H2926 H 0.48416 0.15018 0.08718 0.0
H2927 H 0.45897 0.14587 0.08156 0.0
H2928 H 0.5112 0.11675 0.06907 0.0
H2929 H 0.50351 0.15316 0.18361 0.0
H2930 H 0.48956 0.14226 0.16634 0.0
H2931 H 0.49419 0.15835 0.14393 0.0
C2932 C 0.46955 0.11264 0.10267 0.0
C2933 C 0.46026 0.12367 0.09444 0.0
C2934 C 0.48394 0.1152 0.10642 0.0
C2935 C 0.48933 0.12882 0.10194 0.0
C2936 C 0.48019 0.13968 0.09178 0.0
H2937 H 0.57248 0.16554 0.11931 0.0
H2938 H 0.54776 0.16055 0.10656 0.0
C2939 C 0.46579 0.13716 0.08832 0.0
C2940 C 0.50441 0.13171 0.10879 0.0
H2941 H 0.52661 0.15151 0.16015 0.0
C2942 C 0.51457 0.12431 0.08906 0.0
C2943 C 0.50881 0.14152 0.13508 0.0
C2944 C 0.49846 0.14918 0.15872 0.0
C2945 C 0.52899 0.12665 0.09447 0.0
C2946 C 0.53333 0.13658 0.1204 0.0
C2947 C 0.52321 0.14396 0.14014 0.0
C2948 C 0.54835 0.13941 0.12765 0.0
C2949 C 0.5395 0.11867 0.07212 0.0
C2950 C 0.55679 0.12921 0.14412 0.0
C2951 C 0.5709 0.13205 0.15171 0.0
C2952 C 0.5768 0.14515 0.14287 0.0
C2953 C 0.56827 0.15534 0.12641 0.0
C2954 C 0.55415 0.15252 0.11909 0.0
H2955 H 0.53449 0.11338 0.04884 0.0
H2956 H 0.54784 0.12583 0.06212 0.0
H2957 H 0.5446 0.11053 0.08898 0.0
H2958 H 0.55243 0.11909 0.15136 0.0
H2959 H 0.57716 0.12397 0.1644 0.0
H2960 H 0.15006 0.78777 0.14137 0.0
H2961 H 0.145 0.7627 0.13493 0.0
H2962 H 0.10094 0.77075 0.15123 0.0
H2963 H 0.10582 0.79589 0.15756 0.0
H2964 H 0.11476 0.74585 0.19085 0.0
H2965 H 0.12254 0.74764 0.04289 0.0
H2966 H 0.13576 0.7558 0.07047 0.0
H2967 H 0.11842 0.76312 0.06888 0.0
C2968 C 0.1393 0.78423 0.14404 0.0
C2969 C 0.12833 0.79389 0.14979 0.0
C2970 C 0.13644 0.7699 0.14021 0.0
C2971 C 0.1226 0.76495 0.14226 0.0
C2972 C 0.11169 0.77442 0.14946 0.0
H2973 H 0.08385 0.68228 0.12481 0.0
H2974 H 0.08896 0.70697 0.13722 0.0
C2975 C 0.11451 0.78878 0.15303 0.0
C2976 C 0.11945 0.74996 0.13542 0.0
H2977 H 0.11802 0.72551 0.06856 0.0
C2978 C 0.11543 0.74136 0.16416 0.0
C2979 C 0.12041 0.7442 0.10057 0.0
C2980 C 0.12443 0.75313 0.06875 0.0
C2981 C 0.11256 0.72701 0.15904 0.0
C2982 C 0.11337 0.72125 0.12405 0.0
C2983 C 0.11739 0.72991 0.09534 0.0
C2984 C 0.11018 0.70625 0.11651 0.0
C2985 C 0.10905 0.71811 0.19131 0.0
C2986 C 0.12022 0.69772 0.0996 0.0
C2987 C 0.11725 0.68365 0.09194 0.0
C2988 C 0.10417 0.67781 0.10106 0.0
C2989 C 0.09407 0.68641 0.11766 0.0
C2990 C 0.09701 0.70052 0.12506 0.0
H2991 H 0.11286 0.723 0.21657 0.0
H2992 H 0.09748 0.717 0.19337 0.0
H2993 H 0.1137 0.70746 0.18895 0.0
H2994 H 0.13043 0.70193 0.09254 0.0
H2995 H 0.12528 0.67733 0.07916 0.0
H2996 H 0.45991 0.85418 0.40883 0.0
H2997 H 0.4851 0.84977 0.404 0.0
H2998 H 0.49257 0.8941 0.38991 0.0
H2999 H 0.46741 0.89867 0.39543 0.0
H3000 H 0.50134 0.85525 0.34568 0.0
H3001 H 0.52215 0.88402 0.46364 0.0
H3002 H 0.50374 0.87994 0.45851 0.0
H3003 H 0.51131 0.89461 0.43504 0.0
C3004 C 0.46691 0.86304 0.40527 0.0
C3005 C 0.46161 0.87679 0.40255 0.0
C3006 C 0.48132 0.86048 0.40245 0.0
C3007 C 0.49075 0.8716 0.39695 0.0
C3008 C 0.48554 0.88538 0.39494 0.0
H3009 H 0.57941 0.87642 0.34369 0.0
H3010 H 0.55455 0.88122 0.35505 0.0
C3011 C 0.47112 0.88796 0.39794 0.0
C3012 C 0.50587 0.86865 0.39079 0.0
H3013 H 0.53895 0.87619 0.42068 0.0
C3014 C 0.50956 0.85975 0.36226 0.0
C3015 C 0.51658 0.87458 0.41233 0.0
C3016 C 0.51327 0.88371 0.4443 0.0
C3017 C 0.52365 0.85678 0.35435 0.0
C3018 C 0.53435 0.86275 0.37577 0.0
C3019 C 0.5307 0.87166 0.40427 0.0
C3020 C 0.54939 0.85979 0.36905 0.0
C3021 C 0.52702 0.84749 0.32269 0.0
C3022 C 0.55473 0.84617 0.37347 0.0
C3023 C 0.56892 0.84338 0.36705 0.0
C3024 C 0.57805 0.85419 0.35611 0.0
C3025 C 0.57267 0.86784 0.3519 0.0
C3026 C 0.55847 0.87062 0.35848 0.0
H3027 H 0.5179 0.84635 0.3043 0.0
H3028 H 0.53605 0.85175 0.30729 0.0
H3029 H 0.52993 0.83688 0.33249 0.0
H3030 H 0.54793 0.8377 0.38212 0.0
H3031 H 0.57274 0.83277 0.37075 0.0
H3032 H 0.39701 0.20846 0.65305 0.0
H3033 H 0.40169 0.23363 0.64772 0.0
H3034 H 0.35727 0.24176 0.63982 0.0
H3035 H 0.35244 0.21663 0.64501 0.0
H3036 H 0.37421 0.25409 0.58441 0.0
H3037 H 0.3947 0.26582 0.72075 0.0
H3038 H 0.40262 0.25105 0.69854 0.0
H3039 H 0.38442 0.25034 0.71099 0.0
C3040 C 0.38821 0.21559 0.65063 0.0
C3041 C 0.37434 0.21048 0.64946 0.0
C3042 C 0.39091 0.22999 0.64774 0.0
C3043 C 0.37982 0.23956 0.64368 0.0
C3044 C 0.36597 0.23454 0.64308 0.0
H3045 H 0.37458 0.32906 0.59696 0.0
H3046 H 0.36954 0.30423 0.60758 0.0
C3047 C 0.36325 0.22017 0.64614 0.0
C3048 C 0.38268 0.25469 0.6379 0.0
H3049 H 0.39664 0.28389 0.67734 0.0
C3050 C 0.37904 0.26065 0.60476 0.0
C3051 C 0.38908 0.26315 0.66443 0.0
C3052 C 0.39285 0.25734 0.70082 0.0
C3053 C 0.38185 0.27482 0.59716 0.0
C3054 C 0.38816 0.28334 0.62379 0.0
C3055 C 0.39179 0.27736 0.65697 0.0
C3056 C 0.39116 0.29845 0.61768 0.0
C3057 C 0.37839 0.2804 0.56032 0.0
C3058 C 0.40494 0.30356 0.62084 0.0
C3059 C 0.40783 0.31779 0.61517 0.0
C3060 C 0.397 0.3272 0.60625 0.0
C3061 C 0.38319 0.32208 0.60341 0.0
C3062 C 0.38029 0.30786 0.60931 0.0
H3063 H 0.37741 0.27181 0.54031 0.0
H3064 H 0.36819 0.28601 0.56139 0.0
H3065 H 0.38653 0.28789 0.55091 0.0
H3066 H 0.41348 0.29651 0.62746 0.0
H3067 H 0.41858 0.32139 0.6177 0.0
H3068 H 0.92292 0.12701 0.84024 0.0
H3069 H 0.94743 0.12094 0.85217 0.0
H3070 H 0.95584 0.1638 0.88288 0.0
H3071 H 0.9313 0.16991 0.87172 0.0
H3072 H 0.97154 0.13119 0.82186 0.0
H3073 H 0.97131 0.14212 0.9679 0.0
H3074 H 0.95537 0.14079 0.94189 0.0
H3075 H 0.96551 0.15674 0.94139 0.0
C3076 C 0.92997 0.13515 0.84958 0.0
C3077 C 0.92513 0.14893 0.85519 0.0
C3078 C 0.94398 0.13165 0.85642 0.0
C3079 C 0.9534 0.14185 0.86909 0.0
C3080 C 0.94867 0.15568 0.87401 0.0
H3081 H 0.04213 0.14781 0.90738 0.0
H3082 H 0.01682 0.15127 0.90174 0.0
C3083 C 0.93466 0.15918 0.86732 0.0
C3084 C 0.96827 0.13811 0.8762 0.0
H3085 H 0.99375 0.13869 0.94075 0.0
C3086 C 0.97636 0.13269 0.84794 0.0
C3087 C 0.97453 0.14005 0.91029 0.0
C3088 C 0.9662 0.14511 0.94221 0.0
C3089 C 0.99067 0.12959 0.85252 0.0
C3090 C 0.99698 0.1318 0.8864 0.0
C3091 C 0.98886 0.13702 0.91481 0.0
C3092 C 0.01216 0.12935 0.89233 0.0
C3093 C 0.99903 0.12439 0.8208 0.0
C3094 C 0.01788 0.1158 0.88986 0.0
C3095 C 0.03237 0.11375 0.89318 0.0
C3096 C 0.0414 0.12524 0.89898 0.0
C3097 C 0.03552 0.13873 0.90273 0.0
C3098 C 0.02105 0.14074 0.89956 0.0
H3099 H 0.9933 0.12585 0.79511 0.0
H3100 H 0.00926 0.12995 0.81907 0.0
H3101 H 1.00121 0.11302 0.82417 0.0
H3102 H 0.01115 0.10684 0.88483 0.0
H3103 H 0.03652 0.10322 0.89024 0.0
H3104 H 0.9181 0.68184 0.62229 0.0
H3105 H 0.91303 0.70652 0.63542 0.0
H3106 H 0.87154 0.70175 0.59085 0.0
H3107 H 0.8765 0.67707 0.5774 0.0
H3108 H 0.90343 0.72795 0.58212 0.0
H3109 H 0.86619 0.71893 0.69482 0.0
H3110 H 0.87884 0.70589 0.6808 0.0
H3111 H 0.86334 0.7089 0.65453 0.0
C3112 C 0.9079 0.68603 0.61524 0.0
C3113 C 0.8977 0.67748 0.5988 0.0
C3114 C 0.90503 0.70012 0.62279 0.0
C3115 C 0.89187 0.70587 0.61446 0.0
C3116 C 0.8817 0.69743 0.59787 0.0
H3117 H 0.85343 0.78777 0.64018 0.0
H3118 H 0.85832 0.76276 0.63214 0.0
C3119 C 0.88459 0.68336 0.59005 0.0
C3120 C 0.8889 0.72081 0.62235 0.0
H3121 H 0.86914 0.74237 0.67534 0.0
C3122 C 0.89598 0.73114 0.60259 0.0
C3123 C 0.87912 0.72487 0.64889 0.0
C3124 C 0.87146 0.71411 0.67125 0.0
C3125 C 0.89335 0.74548 0.60821 0.0
C3126 C 0.88367 0.74959 0.6351 0.0
C3127 C 0.87659 0.73921 0.65487 0.0
C3128 C 0.8806 0.76459 0.64262 0.0
C3129 C 0.90067 0.75605 0.58452 0.0
C3130 C 0.89141 0.77386 0.65239 0.0
C3131 C 0.88867 0.78819 0.65673 0.0
C3132 C 0.87501 0.7935 0.65195 0.0
C3133 C 0.86407 0.78406 0.64404 0.0
C3134 C 0.86685 0.76974 0.63937 0.0
H3135 H 0.90447 0.75119 0.55922 0.0
H3136 H 0.89358 0.76491 0.57763 0.0
H3137 H 0.90992 0.76035 0.59892 0.0
H3138 H 0.90203 0.77006 0.65608 0.0
H3139 H 0.89732 0.79513 0.66323 0.0
H3140 H 0.96856 0.10253 0.40457 0.0
H3141 H 0.99372 0.10733 0.39857 0.0
H3142 H 0.98519 0.15174 0.3936 0.0
H3143 H 0.9601 0.14712 0.39945 0.0
H3144 H 0.00201 0.14123 0.33665 0.0
H3145 H 0.02213 0.12496 0.47035 0.0
H3146 H 0.01105 0.11244 0.44789 0.0
H3147 H 0.00384 0.12892 0.46233 0.0
C3148 C 0.97204 0.11333 0.40275 0.0
C3149 C 0.96227 0.12443 0.40243 0.0
C3150 C 0.98643 0.11605 0.39944 0.0
C3151 C 0.99131 0.1299 0.39586 0.0
C3152 C 0.98164 0.14099 0.3964 0.0
H3153 H 0.07584 0.16394 0.39386 0.0
H3154 H 0.05125 0.15833 0.40675 0.0
C3155 C 0.96728 0.1383 0.3998 0.0
C3156 C 0.00637 0.13284 0.38911 0.0
H3157 H 0.0391 0.13077 0.42621 0.0
C3158 C 0.01013 0.13895 0.35622 0.0
C3159 C 0.01689 0.12994 0.41482 0.0
C3160 C 0.01333 0.1238 0.45099 0.0
C3161 C 0.02417 0.14212 0.3482 0.0
C3162 C 0.03472 0.13901 0.37363 0.0
C3163 C 0.03097 0.13304 0.4067 0.0
C3164 C 0.0497 0.14208 0.36641 0.0
C3165 C 0.02761 0.14898 0.31278 0.0
C3166 C 0.05699 0.13469 0.3397 0.0
C3167 C 0.07103 0.13783 0.3323 0.0
C3168 C 0.07804 0.14847 0.35143 0.0
C3169 C 0.07073 0.15576 0.37845 0.0
C3170 C 0.0567 0.15253 0.38597 0.0
H3171 H 0.0181 0.1532 0.29932 0.0
H3172 H 0.03525 0.15767 0.31659 0.0
H3173 H 0.03249 0.1411 0.29472 0.0
H3174 H 0.05179 0.12648 0.32457 0.0
H3175 H 0.07636 0.13199 0.31143 0.0
H3176 H 0.60413 0.20651 0.15019 0.0
H3177 H 0.5998 0.23165 0.14335 0.0
H3178 H 0.64439 0.23934 0.13952 0.0
H3179 H 0.64888 0.2142 0.14678 0.0
H3180 H 0.6294 0.25893 0.1817 0.0
H3181 H 0.60538 0.25199 0.04712 0.0
H3182 H 0.59741 0.24163 0.08185 0.0
H3183 H 0.6153 0.2383 0.069 0.0
C3184 C 0.61305 0.21353 0.1482 0.0
C3185 C 0.62687 0.20828 0.14872 0.0
C3186 C 0.61054 0.2279 0.14409 0.0
C3187 C 0.62177 0.23731 0.14021 0.0
C3188 C 0.63557 0.23222 0.14223 0.0
H3189 H 0.61712 0.32147 0.05139 0.0
H3190 H 0.62263 0.29691 0.06438 0.0
C3191 C 0.63811 0.21784 0.14639 0.0
C3192 C 0.6191 0.25239 0.13307 0.0
H3193 H 0.60406 0.27475 0.07266 0.0
C3194 C 0.62388 0.26241 0.15785 0.0
C3195 C 0.61209 0.25691 0.10165 0.0
C3196 C 0.60735 0.24668 0.07317 0.0
C3197 C 0.6216 0.27683 0.15236 0.0
C3198 C 0.61419 0.2813 0.1215 0.0
C3199 C 0.60963 0.27129 0.09645 0.0
C3200 C 0.61114 0.29633 0.11442 0.0
C3201 C 0.62733 0.28717 0.17933 0.0
C3202 C 0.60275 0.30412 0.1381 0.0
C3203 C 0.59958 0.31817 0.13078 0.0
C3204 C 0.60467 0.32467 0.09947 0.0
C3205 C 0.61304 0.31681 0.07575 0.0
C3206 C 0.6162 0.30276 0.08312 0.0
H3207 H 0.63575 0.28244 0.19606 0.0
H3208 H 0.6316 0.29664 0.16577 0.0
H3209 H 0.61873 0.29056 0.19746 0.0
H3210 H 0.5985 0.29928 0.16205 0.0
H3211 H 0.59307 0.3239 0.14958 0.0
H3212 H 0.42505 0.8757 0.83948 0.0
H3213 H 0.44992 0.8806 0.85049 0.0
H3214 H 0.45673 0.83715 0.87794 0.0
H3215 H 0.4319 0.83211 0.86695 0.0
H3216 H 0.46546 0.87565 0.91641 0.0
H3217 H 0.48683 0.84592 0.80022 0.0
H3218 H 0.46867 0.85125 0.80294 0.0
H3219 H 0.47478 0.83646 0.82839 0.0
C3220 C 0.43184 0.86716 0.84767 0.0
C3221 C 0.42649 0.85349 0.85215 0.0
C3222 C 0.44604 0.86999 0.85404 0.0
C3223 C 0.45517 0.85921 0.86467 0.0
C3224 C 0.44988 0.84558 0.86926 0.0
H3225 H 0.54508 0.85555 0.90375 0.0
H3226 H 0.52003 0.85032 0.89872 0.0
C3227 C 0.43568 0.84273 0.86306 0.0
C3228 C 0.4702 0.86228 0.87146 0.0
H3229 H 0.50329 0.85525 0.84122 0.0
C3230 C 0.47375 0.87123 0.89997 0.0
C3231 C 0.48096 0.85642 0.85006 0.0
C3232 C 0.47769 0.84706 0.81848 0.0
C3233 C 0.48783 0.87435 0.90795 0.0
C3234 C 0.49861 0.86862 0.88629 0.0
C3235 C 0.49503 0.85962 0.85786 0.0
C3236 C 0.51368 0.87198 0.89208 0.0
C3237 C 0.49102 0.88352 0.93995 0.0
C3238 C 0.51845 0.88592 0.89021 0.0
C3239 C 0.53277 0.88896 0.89333 0.0
C3240 C 0.54264 0.87811 0.89792 0.0
C3241 C 0.53779 0.86418 0.90026 0.0
C3242 C 0.52347 0.86116 0.89733 0.0
H3243 H 0.48223 0.8835 0.95954 0.0
H3244 H 0.50072 0.88001 0.95384 0.0
H3245 H 0.4926 0.89449 0.93079 0.0
H3246 H 0.51115 0.89442 0.88533 0.0
H3247 H 0.53612 0.8998 0.89109 0.0
H3248 H 0.91616 0.32307 0.8874 0.0
H3249 H 0.91024 0.29849 0.87629 0.0
H3250 H 0.86701 0.30689 0.90314 0.0
H3251 H 0.87288 0.3315 0.91498 0.0
H3252 H 0.87699 0.28269 0.93456 0.0
H3253 H 0.8896 0.283 0.78945 0.0
H3254 H 0.90387 0.28896 0.81697 0.0
H3255 H 0.88783 0.29893 0.81532 0.0
C3256 C 0.90539 0.31972 0.89098 0.0
C3257 C 0.89498 0.32928 0.90195 0.0
C3258 C 0.902 0.30567 0.88433 0.0
C3259 C 0.88812 0.30092 0.88814 0.0
C3260 C 0.87776 0.31036 0.89975 0.0
H3261 H 0.85124 0.2169 0.86367 0.0
H3262 H 0.85419 0.24233 0.87046 0.0
C3263 C 0.88114 0.32442 0.90652 0.0
C3264 C 0.88453 0.28602 0.88079 0.0
H3265 H 0.88627 0.2605 0.81648 0.0
C3266 C 0.87887 0.27787 0.90864 0.0
C3267 C 0.88694 0.27976 0.84689 0.0
C3268 C 0.89226 0.28814 0.81533 0.0
C3269 C 0.87605 0.2635 0.90391 0.0
C3270 C 0.8788 0.25718 0.87029 0.0
C3271 C 0.8842 0.26538 0.84224 0.0
C3272 C 0.87678 0.24192 0.86426 0.0
C3273 C 0.87062 0.25508 0.93526 0.0
C3274 C 0.88844 0.23335 0.85742 0.0
C3275 C 0.8868 0.21885 0.85345 0.0
C3276 C 0.87343 0.21262 0.85598 0.0
C3277 C 0.86169 0.22132 0.86166 0.0
C3278 C 0.86336 0.23585 0.86577 0.0
H3279 H 0.87166 0.26086 0.96101 0.0
H3280 H 0.85933 0.25269 0.93098 0.0
H3281 H 0.87633 0.24495 0.93752 0.0
H3282 H 0.89887 0.23785 0.85597 0.0
H3283 H 0.89608 0.21251 0.84895 0.0
H3284 H 0.53503 0.10715 0.60051 0.0
H3285 H 0.50986 0.11202 0.60544 0.0
H3286 H 0.5186 0.15636 0.61288 0.0
H3287 H 0.54366 0.15167 0.60728 0.0
H3288 H 0.49609 0.12435 0.66124 0.0
H3289 H 0.4879 0.15562 0.53784 0.0
H3290 H 0.50352 0.14528 0.54524 0.0
H3291 H 0.50184 0.16242 0.56515 0.0
C3292 C 0.53159 0.11796 0.6027 0.0
C3293 C 0.5414 0.12902 0.60335 0.0
C3294 C 0.5172 0.12072 0.60559 0.0
C3295 C 0.51233 0.13457 0.609 0.0
C3296 C 0.52207 0.14562 0.6094 0.0
H3297 H 0.43507 0.16462 0.70283 0.0
H3298 H 0.45912 0.15722 0.68981 0.0
C3299 C 0.53644 0.14289 0.6064 0.0
C3300 C 0.49715 0.13748 0.61427 0.0
H3301 H 0.46982 0.15705 0.58236 0.0
C3302 C 0.49031 0.13139 0.64379 0.0
C3303 C 0.48955 0.14652 0.59124 0.0
C3304 C 0.49604 0.15272 0.55789 0.0
C3305 C 0.47621 0.13446 0.65158 0.0
C3306 C 0.46884 0.14409 0.62964 0.0
C3307 C 0.47554 0.14981 0.59944 0.0
C3308 C 0.45422 0.14846 0.6377 0.0
C3309 C 0.46932 0.12729 0.68309 0.0
C3310 C 0.44353 0.14633 0.61236 0.0
C3311 C 0.42979 0.15065 0.61959 0.0
C3312 C 0.42647 0.15726 0.65228 0.0
C3313 C 0.43723 0.15948 0.6775 0.0
C3314 C 0.45098 0.15517 0.6702 0.0
H3315 H 0.47488 0.11745 0.69049 0.0
H3316 H 0.46962 0.13441 0.70664 0.0
H3317 H 0.45817 0.12475 0.67722 0.0
H3318 H 0.44582 0.14125 0.58702 0.0
H3319 H 0.42178 0.1488 0.59952 0.0
H3320 H 0.65075 0.78559 0.35653 0.0
H3321 H 0.64654 0.76036 0.36322 0.0
H3322 H 0.60239 0.76681 0.34377 0.0
H3323 H 0.60645 0.79199 0.3369 0.0
H3324 H 0.62826 0.74852 0.41583 0.0
H3325 H 0.61244 0.73345 0.27776 0.0
H3326 H 0.62185 0.74948 0.28749 0.0
H3327 H 0.60329 0.74839 0.29569 0.0
C3328 C 0.64018 0.78163 0.35304 0.0
C3329 C 0.62894 0.79085 0.34618 0.0
C3330 C 0.63779 0.76721 0.35699 0.0
C3331 C 0.62418 0.76171 0.3537 0.0
C3332 C 0.61301 0.7708 0.34586 0.0
H3333 H 0.5838 0.68118 0.3844 0.0
H3334 H 0.58971 0.70575 0.37256 0.0
C3335 C 0.61536 0.78522 0.34209 0.0
C3336 C 0.62146 0.74664 0.36098 0.0
H3337 H 0.60843 0.71659 0.32365 0.0
C3338 C 0.62404 0.74148 0.39562 0.0
C3339 C 0.61586 0.73755 0.33463 0.0
C3340 C 0.61329 0.74243 0.29669 0.0
C3341 C 0.62084 0.72755 0.40491 0.0
C3342 C 0.61519 0.71844 0.37858 0.0
C3343 C 0.61273 0.72358 0.34382 0.0
C3344 C 0.61165 0.70358 0.38658 0.0
C3345 C 0.62312 0.72285 0.44314 0.0
C3346 C 0.62204 0.69417 0.39825 0.0
C3347 C 0.61868 0.68014 0.4053 0.0
C3348 C 0.60488 0.6752 0.40044 0.0
C3349 C 0.59452 0.68464 0.38858 0.0
C3350 C 0.59788 0.69868 0.38169 0.0
H3351 H 0.62379 0.73192 0.46184 0.0
H3352 H 0.61452 0.71582 0.45221 0.0
H3353 H 0.63315 0.71697 0.44488 0.0
H3354 H 0.6328 0.69763 0.40145 0.0
H3355 H 0.62695 0.67313 0.41407 0.0
H3356 H 0.07443 0.83798 0.11604 0.0
H3357 H 0.04989 0.84361 0.10335 0.0
H3358 H 0.05596 0.88527 0.14608 0.0
H3359 H 0.08044 0.87962 0.15963 0.0
H3360 H 0.03216 0.87319 0.17124 0.0
H3361 H 0.03417 0.86759 0.02338 0.0
H3362 H 0.04018 0.85222 0.04657 0.0
H3363 H 0.0498 0.86841 0.05068 0.0
C3364 C 0.07057 0.84836 0.12266 0.0
C3365 C 0.07942 0.85836 0.13879 0.0
C3366 C 0.05656 0.8516 0.1151 0.0
C3367 C 0.05116 0.86496 0.12308 0.0
C3368 C 0.05993 0.87493 0.13944 0.0
H3369 H 0.96724 0.90164 0.10399 0.0
H3370 H 0.99269 0.89849 0.10911 0.0
C3371 C 0.07393 0.87167 0.14719 0.0
C3372 C 0.03621 0.86834 0.11577 0.0
H3373 H 0.01133 0.86907 0.04968 0.0
C3374 C 0.02764 0.87243 0.14459 0.0
C3375 C 0.03032 0.86737 0.08096 0.0
C3376 C 0.03912 0.8638 0.04856 0.0
C3377 C 0.01328 0.87518 0.13976 0.0
C3378 C 0.00737 0.87393 0.10512 0.0
C3379 C 0.01592 0.87001 0.07619 0.0
C3380 C 0.99217 0.87614 0.09885 0.0
C3381 C 0.00444 0.87901 0.17189 0.0
C3382 C 0.98355 0.86469 0.09024 0.0
C3383 C 0.96903 0.86643 0.08734 0.0
C3384 C 0.96285 0.8797 0.09272 0.0
C3385 C 0.97162 0.89128 0.09975 0.0
C3386 C 0.98616 0.8895 0.10286 0.0
H3387 H 0.01006 0.87714 0.19757 0.0
H3388 H 0.00164 0.89031 0.17046 0.0
H3389 H 0.99452 0.87287 0.17201 0.0
H3390 H 0.98803 0.85431 0.0869 0.0
H3391 H 0.96261 0.8573 0.08173 0.0
H3392 H 0.59448 0.82873 0.84413 0.0
H3393 H 0.60008 0.80425 0.83013 0.0
H3394 H 0.61864 0.79924 0.93483 0.0
H3395 H 0.61297 0.82364 0.94926 0.0
H3396 H 0.62628 0.79015 0.82946 0.0
H3397 H 0.5896 0.7673 0.92944 0.0
H3398 H 0.58878 0.78546 0.91576 0.0
H3399 H 0.60178 0.77982 0.94762 0.0
C3400 C 0.59973 0.82243 0.86424 0.0
C3401 C 0.60316 0.82812 0.89796 0.0
C3402 C 0.60296 0.80845 0.85612 0.0
C3403 C 0.6096 0.79988 0.88161 0.0
C3404 C 0.61329 0.8056 0.915 0.0
H3405 H 0.6491 0.71828 0.85296 0.0
H3406 H 0.64443 0.74343 0.85919 0.0
C3407 C 0.61008 0.81957 0.92315 0.0
C3408 C 0.61256 0.78493 0.87339 0.0
H3409 H 0.60513 0.75151 0.90048 0.0
C3410 C 0.62164 0.78168 0.84489 0.0
C3411 C 0.60634 0.77391 0.89327 0.0
C3412 C 0.59598 0.77674 0.92303 0.0
C3413 C 0.62486 0.76768 0.83613 0.0
C3414 C 0.61896 0.75668 0.85671 0.0
C3415 C 0.60972 0.75995 0.88485 0.0
C3416 C 0.62208 0.74166 0.8496 0.0
C3417 C 0.63436 0.76479 0.80461 0.0
C3418 C 0.61109 0.73229 0.84217 0.0
C3419 C 0.61369 0.71791 0.83884 0.0
C3420 C 0.62737 0.71256 0.84301 0.0
C3421 C 0.63845 0.72203 0.84936 0.0
C3422 C 0.63582 0.73644 0.85279 0.0
H3423 H 0.63495 0.77393 0.78615 0.0
H3424 H 0.64512 0.76259 0.81455 0.0
H3425 H 0.63069 0.75548 0.78926 0.0
H3426 H 0.60041 0.73609 0.83965 0.0
H3427 H 0.6049 0.71096 0.8339 0.0
H3428 H 0.42401 0.35246 0.10067 0.0
H3429 H 0.44825 0.35955 0.08891 0.0
H3430 H 0.46102 0.34206 0.19049 0.0
H3431 H 0.43676 0.33512 0.20278 0.0
H3432 H 0.47215 0.36844 0.17818 0.0
H3433 H 0.48059 0.33375 0.06048 0.0
H3434 H 0.46563 0.34511 0.05656 0.0
H3435 H 0.46586 0.33169 0.09047 0.0
C3436 C 0.43196 0.35009 0.12052 0.0
C3437 C 0.42844 0.34315 0.15262 0.0
C3438 C 0.44584 0.35408 0.11363 0.0
C3439 C 0.45648 0.35113 0.13855 0.0
C3440 C 0.45298 0.34438 0.1708 0.0
H3441 H 0.54634 0.35115 0.10868 0.0
H3442 H 0.52151 0.34548 0.1159 0.0
C3443 C 0.4391 0.3404 0.17776 0.0
C3444 C 0.47125 0.35526 0.13132 0.0
H3445 H 0.49858 0.35021 0.07339 0.0
C3446 C 0.47794 0.36446 0.15527 0.0
C3447 C 0.47882 0.34994 0.10162 0.0
C3448 C 0.47243 0.33947 0.07595 0.0
C3449 C 0.49198 0.36853 0.1503 0.0
C3450 C 0.49946 0.36346 0.12014 0.0
C3451 C 0.49278 0.35421 0.09626 0.0
C3452 C 0.51444 0.36706 0.11389 0.0
C3453 C 0.49879 0.3779 0.17796 0.0
C3454 C 0.51871 0.38107 0.10947 0.0
C3455 C 0.53295 0.38438 0.1055 0.0
C3456 C 0.54318 0.37371 0.10551 0.0
C3457 C 0.53878 0.35965 0.10861 0.0
C3458 C 0.52457 0.35638 0.11274 0.0
H3459 H 0.49285 0.37793 0.20362 0.0
H3460 H 0.50974 0.37452 0.18349 0.0
H3461 H 0.49909 0.38883 0.16768 0.0
H3462 H 0.51104 0.38947 0.10942 0.0
H3463 H 0.53594 0.39531 0.10293 0.0
H3464 H 0.89887 0.29183 0.33021 0.0
H3465 H 0.9033 0.2666 0.33399 0.0
H3466 H 0.85939 0.25927 0.35526 0.0
H3467 H 0.85479 0.28442 0.35074 0.0
H3468 H 0.89935 0.2505 0.39291 0.0
H3469 H 0.86737 0.22944 0.28092 0.0
H3470 H 0.87155 0.24787 0.28504 0.0
H3471 H 0.8575 0.24035 0.31098 0.0
C3472 C 0.89009 0.28484 0.33507 0.0
C3473 C 0.87646 0.29018 0.34016 0.0
C3474 C 0.89266 0.27042 0.33728 0.0
C3475 C 0.88167 0.26101 0.34454 0.0
C3476 C 0.86799 0.26627 0.34881 0.0
H3477 H 0.8769 0.17322 0.40506 0.0
H3478 H 0.87228 0.19801 0.39206 0.0
C3479 C 0.86539 0.28069 0.3464 0.0
C3480 C 0.8847 0.2459 0.35047 0.0
H3481 H 0.87582 0.21274 0.32358 0.0
C3482 C 0.8943 0.24225 0.37751 0.0
C3483 C 0.87805 0.23514 0.33048 0.0
C3484 C 0.86815 0.23838 0.3 0.0
C3485 C 0.89725 0.22816 0.38555 0.0
C3486 C 0.8905 0.21743 0.36582 0.0
C3487 C 0.88093 0.22103 0.33872 0.0
C3488 C 0.89328 0.20239 0.37302 0.0
C3489 C 0.90731 0.22484 0.41565 0.0
C3490 C 0.90658 0.19665 0.36624 0.0
C3491 C 0.90926 0.1825 0.37357 0.0
C3492 C 0.89867 0.17384 0.38784 0.0
C3493 C 0.88531 0.17961 0.39427 0.0
C3494 C 0.88263 0.19376 0.38676 0.0
H3495 H 0.90928 0.23411 0.43304 0.0
H3496 H 0.90322 0.21614 0.4325 0.0
H3497 H 0.9175 0.22143 0.40413 0.0
H3498 H 0.91488 0.20311 0.3552 0.0
H3499 H 0.91964 0.17838 0.36812 0.0
H3500 H 0.96521 0.60426 0.61025 0.0
H3501 H 0.99043 0.6085 0.61657 0.0
H3502 H 0.9841 0.65242 0.59379 0.0
H3503 H 0.95884 0.64835 0.5875 0.0
H3504 H 0.0081 0.6377 0.55649 0.0
H3505 H 0.00683 0.63137 0.7049 0.0
H3506 H 0.99847 0.61787 0.67868 0.0
H3507 H 0.99128 0.63528 0.67897 0.0
C3508 C 0.96916 0.61481 0.60623 0.0
C3509 C 0.95996 0.62598 0.59856 0.0
C3510 C 0.98358 0.61721 0.61 0.0
C3511 C 0.98906 0.63079 0.60604 0.0
C3512 C 0.98002 0.64187 0.59709 0.0
H3513 H 0.07211 0.66841 0.6194 0.0
H3514 H 0.04736 0.66334 0.60782 0.0
C3515 C 0.96559 0.63951 0.59354 0.0
C3516 C 0.00416 0.63352 0.61228 0.0
H3517 H 0.02897 0.63499 0.67827 0.0
C3518 C 0.01271 0.63712 0.58306 0.0
C3519 C 0.01008 0.63271 0.64699 0.0
C3520 C 1.00123 0.62919 0.67934 0.0
C3521 C 0.02712 0.63976 0.58758 0.0
C3522 C 0.03303 0.63913 0.62242 0.0
C3523 C 0.02444 0.63548 0.6516 0.0
C3524 C 0.04807 0.64224 0.62934 0.0
C3525 C 0.03592 0.64287 0.55487 0.0
C3526 C 0.05662 0.63224 0.64637 0.0
C3527 C 0.07073 0.63519 0.65351 0.0
C3528 C 0.07658 0.6482 0.64378 0.0
C3529 C 0.06797 0.65825 0.62701 0.0
C3530 C 0.05383 0.65532 0.6201 0.0
H3531 H 0.03087 0.63891 0.52998 0.0
H3532 H 0.03718 0.6544 0.55213 0.0
H3533 H 0.04652 0.63809 0.55719 0.0
H3534 H 0.05238 0.62211 0.65395 0.0
H3535 H 0.07706 0.62722 0.66647 0.0
H3536 H 0.58915 0.18072 0.64817 0.0
H3537 H 0.59372 0.20558 0.66021 0.0
H3538 H 0.62057 0.20764 0.56725 0.0
H3539 H 0.61597 0.18285 0.55474 0.0
H3540 H 0.61951 0.21937 0.67268 0.0
H3541 H 0.59263 0.24004 0.55158 0.0
H3542 H 0.59019 0.22228 0.5674 0.0
H3543 H 0.60566 0.22688 0.54238 0.0
C3544 C 0.59599 0.18647 0.63018 0.0
C3545 C 0.60211 0.17981 0.6003 0.0
C3546 C 0.59862 0.20066 0.63718 0.0
C3547 C 0.60732 0.2085 0.61434 0.0
C3548 C 0.61361 0.20185 0.58483 0.0
H3549 H 0.64782 0.28873 0.64856 0.0
H3550 H 0.64195 0.26383 0.6435 0.0
C3551 C 0.61102 0.18765 0.57783 0.0
C3552 C 0.60991 0.22361 0.62152 0.0
H3553 H 0.6062 0.25632 0.58523 0.0
C3554 C 0.61655 0.22747 0.65366 0.0
C3555 C 0.60586 0.23416 0.59689 0.0
C3556 C 0.59807 0.23069 0.56276 0.0
C3557 C 0.61957 0.2416 0.66144 0.0
C3558 C 0.61598 0.2521 0.63619 0.0
C3559 C 0.60904 0.24825 0.60445 0.0
C3560 C 0.61948 0.26713 0.6418 0.0
C3561 C 0.62644 0.24518 0.69674 0.0
C3562 C 0.60881 0.27729 0.64226 0.0
C3563 C 0.61212 0.29156 0.645 0.0
C3564 C 0.62621 0.29598 0.64705 0.0
C3565 C 0.63686 0.28573 0.64721 0.0
C3566 C 0.63353 0.27146 0.6445 0.0
H3567 H 0.62501 0.23667 0.71679 0.0
H3568 H 0.63788 0.24664 0.69246 0.0
H3569 H 0.62212 0.25509 0.70793 0.0
H3570 H 0.5979 0.27417 0.64006 0.0
H3571 H 0.60364 0.29913 0.64473 0.0
H3572 H 0.95852 0.35588 0.92415 0.0
H3573 H 0.98369 0.35107 0.92015 0.0
H3574 H 0.99127 0.39421 0.89063 0.0
H3575 H 0.96624 0.39921 0.89554 0.0
H3576 H 0.99951 0.35281 0.8611 0.0
H3577 H 0.0216 0.38848 0.9639 0.0
H3578 H 0.0031 0.38451 0.96143 0.0
H3579 H 0.01068 0.39758 0.93237 0.0
C3580 C 0.96556 0.36442 0.91746 0.0
C3581 C 0.96033 0.37794 0.91022 0.0
C3582 C 0.97996 0.36164 0.91512 0.0
C3583 C 0.98942 0.37231 0.9055 0.0
C3584 C 0.98425 0.38588 0.89899 0.0
H3585 H 0.07556 0.37584 0.83317 0.0
H3586 H 0.05087 0.38021 0.8478 0.0
C3587 C 0.96988 0.3887 0.90162 0.0
C3588 C 0.00449 0.369 0.89946 0.0
H3589 H 0.03788 0.37912 0.92105 0.0
C3590 C 0.00789 0.35846 0.87455 0.0
C3591 C 0.01544 0.37639 0.91693 0.0
C3592 C 0.01253 0.38727 0.94541 0.0
C3593 C 0.0219 0.35536 0.86597 0.0
C3594 C 0.0328 0.36296 0.88285 0.0
C3595 C 0.02946 0.37339 0.90802 0.0
C3596 C 0.04775 0.36028 0.8744 0.0
C3597 C 0.02498 0.34423 0.83826 0.0
C3598 C 0.05416 0.34766 0.88478 0.0
C3599 C 0.06827 0.34514 0.8766 0.0
C3600 C 0.07621 0.35519 0.85777 0.0
C3601 C 0.06974 0.36785 0.84753 0.0
C3602 C 0.05565 0.37039 0.85595 0.0
H3603 H 0.01542 0.34106 0.82323 0.0
H3604 H 0.03298 0.34803 0.81887 0.0
H3605 H 0.0293 0.33479 0.85178 0.0
H3606 H 0.04825 0.33979 0.89936 0.0
H3607 H 0.07293 0.3353 0.88501 0.0
H3608 H 0.87749 0.82943 0.0925 0.0
H3609 H 0.8723 0.80471 0.10446 0.0
H3610 H 0.91618 0.79694 0.12504 0.0
H3611 H 0.92143 0.82169 0.11386 0.0
H3612 H 0.88188 0.7811 0.07057 0.0
H3613 H 0.89784 0.78031 0.21366 0.0
H3614 H 0.89539 0.79643 0.18899 0.0
H3615 H 0.91134 0.7865 0.18401 0.0
C3616 C 0.88604 0.82247 0.09962 0.0
C3617 C 0.89987 0.82755 0.10237 0.0
C3618 C 0.88305 0.80835 0.10648 0.0
C3619 C 0.8938 0.79903 0.11631 0.0
C3620 C 0.90766 0.80401 0.1184 0.0
H3621 H 0.89836 0.70916 0.15081 0.0
H3622 H 0.90313 0.7343 0.14478 0.0
C3623 C 0.91066 0.81814 0.1117 0.0
C3624 C 0.89055 0.78403 0.12338 0.0
H3625 H 0.89303 0.75816 0.18664 0.0
C3626 C 0.88423 0.77611 0.09603 0.0
C3627 C 0.89364 0.77754 0.15663 0.0
C3628 C 0.8998 0.78565 0.18764 0.0
C3629 C 0.88115 0.76181 0.10076 0.0
C3630 C 0.88432 0.75531 0.13389 0.0
C3631 C 0.89063 0.7632 0.16128 0.0
C3632 C 0.8813 0.74025 0.14029 0.0
C3633 C 0.87479 0.75369 0.07002 0.0
C3634 C 0.86741 0.73534 0.14081 0.0
C3635 C 0.86462 0.72099 0.14438 0.0
C3636 C 0.87569 0.71127 0.14748 0.0
C3637 C 0.88958 0.71632 0.14834 0.0
C3638 C 0.89234 0.73069 0.1449 0.0
H3639 H 0.87578 0.7594 0.04416 0.0
H3640 H 0.87988 0.74325 0.06726 0.0
H3641 H 0.86346 0.75196 0.07536 0.0
H3642 H 0.85873 0.7426 0.13785 0.0
H3643 H 0.85379 0.71751 0.14372 0.0
H3644 H 0.41961 0.63231 0.4119 0.0
H3645 H 0.44439 0.6282 0.4255 0.0
H3646 H 0.45619 0.65513 0.33729 0.0
H3647 H 0.43141 0.66018 0.32578 0.0
H3648 H 0.46405 0.61645 0.39441 0.0
H3649 H 0.48113 0.67146 0.40902 0.0
H3650 H 0.46288 0.66681 0.40452 0.0
H3651 H 0.47381 0.66891 0.3653 0.0
C3652 C 0.42754 0.63742 0.39563 0.0
C3653 C 0.42366 0.64664 0.368 0.0
C3654 C 0.44171 0.63507 0.40339 0.0
C3655 C 0.45229 0.64162 0.38306 0.0
C3656 C 0.44834 0.65041 0.35445 0.0
H3657 H 0.53663 0.60864 0.36704 0.0
H3658 H 0.51148 0.61316 0.36386 0.0
C3659 C 0.43416 0.65315 0.34753 0.0
C3660 C 0.46739 0.63881 0.39101 0.0
H3661 H 0.49946 0.65455 0.39901 0.0
C3662 C 0.47174 0.62483 0.39592 0.0
C3663 C 0.4775 0.64969 0.39402 0.0
C3664 C 0.47354 0.66504 0.39337 0.0
C3665 C 0.48583 0.62142 0.40271 0.0
C3666 C 0.49611 0.63219 0.40247 0.0
C3667 C 0.49172 0.6462 0.39862 0.0
C3668 C 0.51145 0.6292 0.40517 0.0
C3669 C 0.48938 0.6063 0.4109 0.0
C3670 C 0.52009 0.63712 0.42822 0.0
C3671 C 0.53463 0.63493 0.42891 0.0
C3672 C 0.54075 0.62455 0.40724 0.0
C3673 C 0.53213 0.6165 0.38463 0.0
C3674 C 0.5177 0.619 0.38305 0.0
H3675 H 0.48039 0.60088 0.42391 0.0
H3676 H 0.49162 0.60068 0.38547 0.0
H3677 H 0.49865 0.60543 0.42884 0.0
H3678 H 0.51561 0.6451 0.44546 0.0
H3679 H 0.54108 0.64132 0.44644 0.0
H3680 H 0.41819 0.17958 0.11702 0.0
H3681 H 0.41331 0.20447 0.12753 0.0
H3682 H 0.36938 0.19734 0.10644 0.0
H3683 H 0.37412 0.17241 0.09593 0.0
H3684 H 0.4004 0.22394 0.0785 0.0
H3685 H 0.37002 0.21788 0.20487 0.0
H3686 H 0.38128 0.20421 0.18749 0.0
H3687 H 0.36431 0.20718 0.16791 0.0
C3688 C 0.40748 0.18328 0.11464 0.0
C3689 C 0.39653 0.17399 0.10569 0.0
C3690 C 0.40472 0.19751 0.12068 0.0
C3691 C 0.39097 0.20269 0.11823 0.0
C3692 C 0.38003 0.19349 0.10905 0.0
H3693 H 0.35348 0.28528 0.1426 0.0
H3694 H 0.358 0.26013 0.13597 0.0
C3695 C 0.38278 0.17926 0.10284 0.0
C3696 C 0.38815 0.21781 0.12438 0.0
H3697 H 0.37102 0.24069 0.17976 0.0
C3698 C 0.39402 0.22763 0.1007 0.0
C3699 C 0.37977 0.22255 0.15327 0.0
C3700 C 0.37354 0.21245 0.18008 0.0
C3701 C 0.39157 0.24208 0.10478 0.0
C3702 C 0.3833 0.24686 0.13389 0.0
C3703 C 0.37739 0.23702 0.15754 0.0
C3704 C 0.38058 0.26203 0.14 0.0
C3705 C 0.39758 0.25206 0.07732 0.0
C3706 C 0.39175 0.2714 0.14554 0.0
C3707 C 0.38922 0.2858 0.14918 0.0
C3708 C 0.37544 0.2911 0.14777 0.0
C3709 C 0.36422 0.28159 0.14375 0.0
C3710 C 0.36678 0.2672 0.13992 0.0
H3711 H 0.40025 0.24659 0.05189 0.0
H3712 H 0.3901 0.26068 0.07124 0.0
H3713 H 0.40737 0.25679 0.08805 0.0
H3714 H 0.40246 0.26761 0.14663 0.0
H3715 H 0.3981 0.29278 0.15258 0.0
H3716 H 0.46708 0.60284 0.89472 0.0
H3717 H 0.49243 0.60655 0.88949 0.0
H3718 H 0.4866 0.65094 0.90666 0.0
H3719 H 0.46132 0.64737 0.91229 0.0
H3720 H 0.5055 0.62348 0.83793 0.0
H3721 H 0.51877 0.64146 0.97532 0.0
H3722 H 0.50252 0.63256 0.96491 0.0
H3723 H 0.50452 0.65094 0.95513 0.0
C3724 C 0.4712 0.61337 0.89797 0.0
C3725 C 0.46213 0.62481 0.90397 0.0
C3726 C 0.48569 0.61547 0.89487 0.0
C3727 C 0.49142 0.62899 0.89807 0.0
C3728 C 0.48244 0.64038 0.90479 0.0
H3729 H 0.57197 0.66875 0.86704 0.0
H3730 H 0.54738 0.66284 0.87835 0.0
C3731 C 0.46796 0.63831 0.90782 0.0
C3732 C 0.50662 0.63138 0.89196 0.0
H3733 H 0.53622 0.64497 0.93035 0.0
C3734 C 0.51226 0.62804 0.85824 0.0
C3735 C 0.51539 0.6374 0.91845 0.0
C3736 C 0.51005 0.64069 0.95561 0.0
C3737 C 0.52635 0.63094 0.8499 0.0
C3738 C 0.53509 0.63711 0.87626 0.0
C3739 C 0.52949 0.64028 0.91015 0.0
C3740 C 0.55002 0.64057 0.86903 0.0
C3741 C 0.53163 0.62781 0.81257 0.0
C3742 C 0.55969 0.62999 0.86028 0.0
C3743 C 0.57375 0.63334 0.85363 0.0
C3744 C 0.57843 0.64733 0.85588 0.0
C3745 C 0.56872 0.65789 0.86492 0.0
C3746 C 0.55466 0.65453 0.87149 0.0
H3747 H 0.52286 0.62645 0.79321 0.0
H3748 H 0.5386 0.63633 0.80277 0.0
H3749 H 0.53777 0.61791 0.81304 0.0
H3750 H 0.55639 0.61912 0.85894 0.0
H3751 H 0.58097 0.62494 0.84703 0.0
H3752 H 0.12682 0.82839 0.58054 0.0
H3753 H 0.13203 0.80367 0.59201 0.0
H3754 H 0.08999 0.79752 0.63209 0.0
H3755 H 0.0848 0.82234 0.6216 0.0
H3756 H 0.10942 0.78537 0.67524 0.0
H3757 H 0.11948 0.77021 0.53393 0.0
H3758 H 0.13029 0.78449 0.54887 0.0
H3759 H 0.11156 0.78676 0.54597 0.0
C3760 C 0.11865 0.82177 0.59161 0.0
C3761 C 0.10536 0.82733 0.59994 0.0
C3762 C 0.12163 0.80761 0.59797 0.0
C3763 C 0.11132 0.79867 0.61228 0.0
C3764 C 0.09808 0.80421 0.62085 0.0
H3765 H 0.10522 0.70969 0.65752 0.0
H3766 H 0.10115 0.73493 0.65134 0.0
C3767 C 0.09512 0.8184 0.61476 0.0
C3768 C 0.11443 0.78361 0.61906 0.0
H3769 H 0.12525 0.75331 0.57845 0.0
C3770 C 0.11283 0.77835 0.65404 0.0
C3771 C 0.11885 0.77444 0.59136 0.0
C3772 C 0.12002 0.77921 0.55287 0.0
C3773 C 0.1157 0.76423 0.66213 0.0
C3774 C 0.12022 0.75514 0.63451 0.0
C3775 C 0.12188 0.76037 0.5996 0.0
C3776 C 0.12291 0.74003 0.64098 0.0
C3777 C 0.11403 0.75914 0.7002 0.0
C3778 C 0.1365 0.73456 0.63726 0.0
C3779 C 0.1389 0.72014 0.64094 0.0
C3780 C 0.12768 0.7109 0.6479 0.0
C3781 C 0.1141 0.71649 0.65219 0.0
C3782 C 0.11175 0.73092 0.6488 0.0
H3783 H 0.11324 0.76799 0.71954 0.0
H3784 H 0.1043 0.75277 0.70227 0.0
H3785 H 0.12301 0.75236 0.708 0.0
H3786 H 0.14523 0.74144 0.63104 0.0
H3787 H 0.14947 0.7162 0.63728 0.0
H3788 H 0.93193 0.33266 0.36732 0.0
H3789 H 0.9567 0.33775 0.37905 0.0
H3790 H 0.94974 0.38134 0.3533 0.0
H3791 H 0.92494 0.37638 0.34161 0.0
H3792 H 0.97671 0.34985 0.33061 0.0
H3793 H 0.96918 0.3824 0.45283 0.0
H3794 H 0.9557 0.37089 0.43555 0.0
H3795 H 0.95893 0.38756 0.41457 0.0
C3796 C 0.93565 0.34334 0.36417 0.0
C3797 C 0.92643 0.35412 0.35358 0.0
C3798 C 0.94981 0.34622 0.3709 0.0
C3799 C 0.955 0.35995 0.36754 0.0
C3800 C 0.94588 0.37072 0.35667 0.0
H3801 H 0.0366 0.3992 0.39049 0.0
H3802 H 0.0116 0.39392 0.38401 0.0
C3803 C 0.93173 0.36784 0.34978 0.0
C3804 C 0.97004 0.36293 0.37447 0.0
H3805 H 0.99223 0.38139 0.42891 0.0
C3806 C 0.98013 0.35668 0.3522 0.0
C3807 C 0.97443 0.37189 0.40259 0.0
C3808 C 0.96403 0.37851 0.42801 0.0
C3809 C 0.99452 0.35939 0.3568 0.0
C3810 C 0.99894 0.36831 0.38503 0.0
C3811 C 0.98883 0.37453 0.40736 0.0
C3812 C 0.014 0.37151 0.39132 0.0
C3813 C 0.00481 0.35297 0.33073 0.0
C3814 C 0.02361 0.36071 0.39869 0.0
C3815 C 0.03793 0.36367 0.40226 0.0
C3816 C 0.04292 0.37753 0.39892 0.0
C3817 C 0.03316 0.3884 0.39315 0.0
C3818 C 0.01885 0.38541 0.38941 0.0
H3819 H 0.99958 0.34961 0.3055 0.0
H3820 H 0.01331 0.36049 0.32392 0.0
H3821 H 0.00965 0.34355 0.34312 0.0
H3822 H 0.02006 0.34995 0.40119 0.0
H3823 H 0.04511 0.35505 0.40701 0.0
H3824 H 0.41833 0.82193 0.37045 0.0
H3825 H 0.41285 0.79737 0.35719 0.0
H3826 H 0.37007 0.80398 0.39109 0.0
H3827 H 0.37542 0.82858 0.40435 0.0
H3828 H 0.40214 0.77693 0.40632 0.0
H3829 H 0.36622 0.78545 0.29083 0.0
H3830 H 0.37815 0.79882 0.30676 0.0
H3831 H 0.36216 0.79529 0.33066 0.0
C3832 C 0.40774 0.81819 0.37503 0.0
C3833 C 0.39731 0.82724 0.38844 0.0
C3834 C 0.40463 0.80415 0.36739 0.0
C3835 C 0.39101 0.79892 0.37267 0.0
C3836 C 0.38059 0.80788 0.3862 0.0
H3837 H 0.35292 0.71638 0.35256 0.0
H3838 H 0.35741 0.74159 0.35837 0.0
C3839 C 0.3837 0.82191 0.394 0.0
C3840 C 0.38788 0.78394 0.36529 0.0
H3841 H 0.36823 0.76213 0.31252 0.0
C3842 C 0.39478 0.77368 0.38571 0.0
C3843 C 0.37821 0.77976 0.33853 0.0
C3844 C 0.37081 0.79037 0.31517 0.0
C3845 C 0.39212 0.75932 0.38048 0.0
C3846 C 0.38255 0.75511 0.35345 0.0
C3847 C 0.3756 0.76538 0.3331 0.0
C3848 C 0.37957 0.74006 0.3463 0.0
C3849 C 0.39933 0.74883 0.4046 0.0
C3850 C 0.39043 0.73092 0.33619 0.0
C3851 C 0.38793 0.71651 0.33299 0.0
C3852 C 0.37446 0.71096 0.33945 0.0
C3853 C 0.36342 0.72027 0.34745 0.0
C3854 C 0.36596 0.73469 0.35086 0.0
H3855 H 0.40324 0.7538 0.42965 0.0
H3856 H 0.39212 0.74011 0.4119 0.0
H3857 H 0.40849 0.74429 0.3903 0.0
H3858 H 0.40094 0.73489 0.33164 0.0
H3859 H 0.39665 0.70968 0.32641 0.0
H3860 H 0.04289 0.64856 0.08751 0.0
H3861 H 0.01753 0.65223 0.09225 0.0
H3862 H 0.01146 0.6079 0.10982 0.0
H3863 H 0.0368 0.60406 0.10509 0.0
H3864 H 0.99417 0.63828 0.05187 0.0
H3865 H 0.99377 0.62874 0.19918 0.0
H3866 H 0.00961 0.63311 0.17498 0.0
H3867 H 0.00237 0.61576 0.17182 0.0
C3868 C 0.03618 0.63955 0.09209 0.0
C3869 C 0.04192 0.62602 0.09614 0.0
C3870 C 0.02169 0.64168 0.09474 0.0
C3871 C 0.01268 0.63036 0.1018 0.0
C3872 C 0.01828 0.61679 0.10474 0.0
H3873 H 0.92402 0.62593 0.15603 0.0
H3874 H 0.94873 0.62082 0.1439 0.0
C3875 C 0.03277 0.61462 0.10187 0.0
C3876 C 0.99748 0.63285 0.10724 0.0
H3877 H 0.97195 0.63293 0.17147 0.0
C3878 C 0.98927 0.63711 0.07797 0.0
C3879 C 0.99118 0.63128 0.14132 0.0
C3880 C 0.99965 0.62707 0.17379 0.0
C3881 C 0.97482 0.63969 0.0818 0.0
C3882 C 0.96852 0.63831 0.11605 0.0
C3883 C 0.97677 0.63398 0.14525 0.0
C3884 C 0.95343 0.6414 0.12236 0.0
C3885 C 0.9664 0.64356 0.04897 0.0
C3886 C 0.94787 0.65472 0.11466 0.0
C3887 C 0.93372 0.65765 0.12135 0.0
C3888 C 0.92489 0.64737 0.13638 0.0
C3889 C 0.93053 0.63409 0.14445 0.0
C3890 C 0.94465 0.63114 0.13752 0.0
H3891 H 0.97169 0.64008 0.02393 0.0
H3892 H 0.95574 0.63884 0.04987 0.0
H3893 H 0.96526 0.65514 0.04774 0.0
H3894 H 0.95452 0.66292 0.10385 0.0
H3895 H 0.92975 0.66801 0.11505 0.0
H3896 H 0.14924 0.28748 0.85739 0.0
H3897 H 0.14476 0.26227 0.86243 0.0
H3898 H 0.10033 0.26967 0.85099 0.0
H3899 H 0.10466 0.29489 0.84577 0.0
H3900 H 0.12753 0.24959 0.9163 0.0
H3901 H 0.10846 0.23766 0.7788 0.0
H3902 H 0.11832 0.25335 0.7893 0.0
H3903 H 0.1 0.25225 0.8004 0.0
C3904 C 0.13852 0.28376 0.85545 0.0
C3905 C 0.12731 0.29325 0.85114 0.0
C3906 C 0.13599 0.26934 0.85843 0.0
C3907 C 0.12223 0.2641 0.85676 0.0
C3908 C 0.11104 0.27348 0.85177 0.0
H3909 H 0.08339 0.18234 0.88097 0.0
H3910 H 0.08861 0.20723 0.87178 0.0
C3911 C 0.11355 0.28791 0.84895 0.0
C3912 C 0.11951 0.24893 0.86235 0.0
H3913 H 0.10594 0.21967 0.82233 0.0
C3914 C 0.1229 0.243 0.89571 0.0
C3915 C 0.11338 0.24042 0.8355 0.0
C3916 C 0.10992 0.24617 0.79885 0.0
C3917 C 0.12005 0.22884 0.90324 0.0
C3918 C 0.11395 0.22029 0.87635 0.0
C3919 C 0.11061 0.22623 0.84292 0.0
C3920 C 0.11086 0.20519 0.8824 0.0
C3921 C 0.12324 0.22327 0.94026 0.0
C3922 C 0.12165 0.19575 0.89114 0.0
C3923 C 0.11868 0.18153 0.89668 0.0
C3924 C 0.10488 0.17644 0.89316 0.0
C3925 C 0.09412 0.18591 0.88402 0.0
C3926 C 0.09709 0.20014 0.87868 0.0
H3927 H 0.12414 0.23188 0.96025 0.0
H3928 H 0.11498 0.21585 0.94935 0.0
H3929 H 0.1334 0.21759 0.93967 0.0
H3930 H 0.1324 0.19935 0.89334 0.0
H3931 H 0.12724 0.1745 0.90333 0.0
H3932 H 0.45935 0.35434 0.59783 0.0
H3933 H 0.48449 0.35029 0.60395 0.0
H3934 H 0.49198 0.39494 0.60113 0.0
H3935 H 0.46669 0.39917 0.59572 0.0
H3936 H 0.50703 0.3572 0.56171 0.0
H3937 H 0.51072 0.38323 0.69486 0.0
H3938 H 0.49412 0.37896 0.67421 0.0
H3939 H 0.50388 0.39405 0.6595 0.0
C3940 C 0.4663 0.36334 0.59828 0.0
C3941 C 0.46094 0.3771 0.59661 0.0
C3942 C 0.4807 0.36098 0.60175 0.0
C3943 C 0.49009 0.37231 0.60365 0.0
C3944 C 0.48489 0.38605 0.6005 0.0
H3945 H 0.58126 0.35982 0.59639 0.0
H3946 H 0.55726 0.36728 0.58306 0.0
C3947 C 0.47043 0.38844 0.59715 0.0
C3948 C 0.50524 0.36956 0.60983 0.0
H3949 H 0.53177 0.37439 0.67029 0.0
C3950 C 0.51248 0.36102 0.58532 0.0
C3951 C 0.51225 0.37441 0.64094 0.0
C3952 C 0.50485 0.38307 0.6691 0.0
C3953 C 0.5265 0.35708 0.59122 0.0
C3954 C 0.53355 0.36204 0.62215 0.0
C3955 C 0.52636 0.37068 0.64649 0.0
C3956 C 0.5482 0.35788 0.63055 0.0
C3957 C 0.53347 0.34725 0.56494 0.0
C3958 C 0.55114 0.35045 0.66219 0.0
C3959 C 0.56487 0.34625 0.67006 0.0
C3960 C 0.57593 0.34944 0.64645 0.0
C3961 C 0.57298 0.35709 0.61503 0.0
C3962 C 0.55925 0.36131 0.60725 0.0
H3963 H 0.52568 0.34177 0.54772 0.0
H3964 H 0.54056 0.35336 0.54721 0.0
H3965 H 0.53987 0.33924 0.57915 0.0
H3966 H 0.54277 0.34775 0.68062 0.0
H3967 H 0.56678 0.34042 0.69452 0.0
loop_
_geom_bond_atom_site_label_1
_geom_bond_atom_site_label_2
_geom_bond_distance
_geom_bond_site_symmetry_2
_ccdc_geom_bond_type
Co0 O3 1.970 . S
Co0 N17 1.989 . S
Co0 O25 1.967 . S
Co0 O32 1.920 . S
Co1 O4 1.966 . S
Co1 N10 2.022 . S
Co1 N18 1.993 . S
Co1 O26 1.941 . S
C2 O3 1.258 . S
C2 O4 1.263 . S
O3 Co0 1.970 . S
O3 C2 1.258 . S
O4 Co1 1.966 . S
O4 C2 1.263 . S
C5 O6 1.235 . S
C5 O32 1.289 . S
O6 C5 1.235 . S
C7 C9 1.400 . S
C7 N10 1.351 . S
C7 C12 1.501 . S
C8 C9 1.387 . S
C8 N11 1.341 . S
C9 C7 1.400 . S
C9 C8 1.387 . S
N10 Co1 2.022 . S
N10 C7 1.351 . S
N10 N11 1.365 . S
N11 C8 1.341 . S
N11 N10 1.365 . S
N11 H31 0.862 . S
C12 C7 1.501 . S
C12 H13 0.961 . S
C12 H14 0.961 . S
C12 H15 0.960 . S
H13 C12 0.961 . S
H14 C12 0.961 . S
H15 C12 0.960 . S
C16 N17 1.342 . S
C16 C20 1.401 . S
C16 C21 1.499 . S
N17 Co0 1.989 . S
N17 C16 1.342 . S
N17 N18 1.388 . S
N18 Co1 1.993 . S
N18 N17 1.388 . S
N18 C19 1.346 . S
C19 N18 1.346 . S
C19 C20 1.396 . S
C19 C29 1.510 . S
C20 C16 1.401 . S
C20 C19 1.396 . S
C21 C16 1.499 . S
C21 H22 0.959 . S
C21 H23 0.960 . S
C21 H24 0.961 . S
H22 C21 0.959 . S
H23 C21 0.960 . S
H24 C21 0.961 . S
O25 Co0 1.967 . S
O25 C33 1.258 . S
O26 Co1 1.941 . S
O26 C33 1.266 . S
H27 C29 0.959 . S
H28 C29 0.961 . S
C29 C19 1.510 . S
C29 H27 0.959 . S
C29 H28 0.961 . S
C29 H30 0.960 . S
H30 C29 0.960 . S
H31 N11 0.862 . S
O32 Co0 1.920 . S
O32 C5 1.289 . S
C33 O25 1.258 . S
C33 O26 1.266 . S
Co34 O37 1.970 . S
Co34 N51 1.989 . S
Co34 O59 1.967 . S
Co34 O66 1.920 . S
Co35 O38 1.966 . S
Co35 N44 2.022 . S
Co35 N52 1.993 . S
Co35 O60 1.941 . S
C36 O37 1.258 . S
C36 O38 1.263 . S
O37 Co34 1.970 . S
O37 C36 1.258 . S
O38 Co35 1.966 . S
O38 C36 1.263 . S
C39 O40 1.235 . S
C39 O66 1.289 . S
O40 C39 1.235 . S
C41 C43 1.400 . S
C41 N44 1.351 . S
C41 C46 1.501 . S
C42 C43 1.387 . S
C42 N45 1.341 . S
C43 C41 1.400 . S
C43 C42 1.387 . S
N44 Co35 2.022 . S
N44 C41 1.351 . S
N44 N45 1.365 . S
N45 C42 1.341 . S
N45 N44 1.365 . S
N45 H65 0.862 . S
C46 C41 1.501 . S
C46 H47 0.961 . S
C46 H48 0.961 . S
C46 H49 0.960 . S
H47 C46 0.961 . S
H48 C46 0.961 . S
H49 C46 0.960 . S
C50 N51 1.342 . S
C50 C54 1.401 . S
C50 C55 1.499 . S
N51 Co34 1.989 . S
N51 C50 1.342 . S
N51 N52 1.388 . S
N52 Co35 1.993 . S
N52 N51 1.388 . S
N52 C53 1.346 . S
C53 N52 1.346 . S
C53 C54 1.396 . S
C53 C63 1.510 . S
C54 C50 1.401 . S
C54 C53 1.396 . S
C55 C50 1.499 . S
C55 H56 0.959 . S
C55 H57 0.960 . S
C55 H58 0.961 . S
H56 C55 0.959 . S
H57 C55 0.960 . S
H58 C55 0.961 . S
O59 Co34 1.967 . S
O59 C67 1.258 . S
O60 Co35 1.941 . S
O60 C67 1.266 . S
H61 C63 0.959 . S
H62 C63 0.961 . S
C63 C53 1.510 . S
C63 H61 0.959 . S
C63 H62 0.961 . S
C63 H64 0.960 . S
H64 C63 0.960 . S
H65 N45 0.862 . S
O66 Co34 1.920 . S
O66 C39 1.289 . S
C67 O59 1.258 . S
C67 O60 1.266 . S
Co68 O71 1.970 . S
Co68 N85 1.989 . S
Co68 O93 1.967 . S
Co68 O100 1.920 . S
Co69 O72 1.966 . S
Co69 N78 2.022 . S
Co69 N86 1.993 . S
Co69 O94 1.941 . S
C70 O71 1.258 . S
C70 O72 1.263 . S
O71 Co68 1.970 . S
O71 C70 1.258 . S
O72 Co69 1.966 . S
O72 C70 1.263 . S
C73 O74 1.235 . S
C73 O100 1.289 . S
O74 C73 1.235 . S
C75 C77 1.400 . S
C75 N78 1.351 . S
C75 C80 1.501 . S
C76 C77 1.387 . S
C76 N79 1.341 . S
C77 C75 1.400 . S
C77 C76 1.387 . S
N78 Co69 2.022 . S
N78 C75 1.351 . S
N78 N79 1.365 . S
N79 C76 1.341 . S
N79 N78 1.365 . S
N79 H99 0.862 . S
C80 C75 1.501 . S
C80 H81 0.961 . S
C80 H82 0.961 . S
C80 H83 0.960 . S
H81 C80 0.961 . S
H82 C80 0.961 . S
H83 C80 0.960 . S
C84 N85 1.342 . S
C84 C88 1.401 . S
C84 C89 1.499 . S
N85 Co68 1.989 . S
N85 C84 1.342 . S
N85 N86 1.388 . S
N86 Co69 1.993 . S
N86 N85 1.388 . S
N86 C87 1.346 . S
C87 N86 1.346 . S
C87 C88 1.396 . S
C87 C97 1.510 . S
C88 C84 1.401 . S
C88 C87 1.396 . S
C89 C84 1.499 . S
C89 H90 0.959 . S
C89 H91 0.960 . S
C89 H92 0.961 . S
H90 C89 0.959 . S
H91 C89 0.960 . S
H92 C89 0.961 . S
O93 Co68 1.967 . S
O93 C101 1.258 . S
O94 Co69 1.941 . S
O94 C101 1.266 . S
H95 C97 0.959 . S
H96 C97 0.961 . S
C97 C87 1.510 . S
C97 H95 0.959 . S
C97 H96 0.961 . S
C97 H98 0.960 . S
H98 C97 0.960 . S
H99 N79 0.862 . S
O100 Co68 1.920 . S
O100 C73 1.289 . S
C101 O93 1.258 . S
C101 O94 1.266 . S
Co102 O105 1.970 . S
Co102 N119 1.989 . S
Co102 O127 1.967 . S
Co102 O134 1.920 . S
Co103 O106 1.966 . S
Co103 N112 2.022 . S
Co103 N120 1.993 . S
Co103 O128 1.941 . S
C104 O105 1.258 . S
C104 O106 1.263 . S
O105 Co102 1.970 . S
O105 C104 1.258 . S
O106 Co103 1.966 . S
O106 C104 1.263 . S
C107 O108 1.235 . S
C107 O134 1.289 . S
O108 C107 1.235 . S
C109 C111 1.400 . S
C109 N112 1.351 . S
C109 C114 1.501 . S
C110 C111 1.387 . S
C110 N113 1.341 . S
C111 C109 1.400 . S
C111 C110 1.387 . S
N112 Co103 2.022 . S
N112 C109 1.351 . S
N112 N113 1.365 . S
N113 C110 1.341 . S
N113 N112 1.365 . S
N113 H133 0.862 . S
C114 C109 1.501 . S
C114 H115 0.961 . S
C114 H116 0.961 . S
C114 H117 0.960 . S
H115 C114 0.961 . S
H116 C114 0.961 . S
H117 C114 0.960 . S
C118 N119 1.342 . S
C118 C122 1.401 . S
C118 C123 1.499 . S
N119 Co102 1.989 . S
N119 C118 1.342 . S
N119 N120 1.388 . S
N120 Co103 1.993 . S
N120 N119 1.388 . S
N120 C121 1.346 . S
C121 N120 1.346 . S
C121 C122 1.396 . S
C121 C131 1.510 . S
C122 C118 1.401 . S
C122 C121 1.396 . S
C123 C118 1.499 . S
C123 H124 0.959 . S
C123 H125 0.960 . S
C123 H126 0.961 . S
H124 C123 0.959 . S
H125 C123 0.960 . S
H126 C123 0.961 . S
O127 Co102 1.967 . S
O127 C135 1.258 . S
O128 Co103 1.941 . S
O128 C135 1.266 . S
H129 C131 0.959 . S
H130 C131 0.961 . S
C131 C121 1.510 . S
C131 H129 0.959 . S
C131 H130 0.961 . S
C131 H132 0.960 . S
H132 C131 0.960 . S
H133 N113 0.862 . S
O134 Co102 1.920 . S
O134 C107 1.289 . S
C135 O127 1.258 . S
C135 O128 1.266 . S
Co136 O139 1.970 . S
Co136 N153 1.989 . S
Co136 O161 1.967 . S
Co136 O168 1.920 . S
Co137 O140 1.966 . S
Co137 N146 2.022 . S
Co137 N154 1.993 . S
Co137 O162 1.941 . S
C138 O139 1.258 . S
C138 O140 1.263 . S
O139 Co136 1.970 . S
O139 C138 1.258 . S
O140 Co137 1.966 . S
O140 C138 1.263 . S
C141 O142 1.235 . S
C141 O168 1.289 . S
O142 C141 1.235 . S
C143 C145 1.400 . S
C143 N146 1.351 . S
C143 C148 1.501 . S
C144 C145 1.387 . S
C144 N147 1.341 . S
C145 C143 1.400 . S
C145 C144 1.387 . S
N146 Co137 2.022 . S
N146 C143 1.351 . S
N146 N147 1.365 . S
N147 C144 1.341 . S
N147 N146 1.365 . S
N147 H167 0.862 . S
C148 C143 1.501 . S
C148 H149 0.961 . S
C148 H150 0.961 . S
C148 H151 0.960 . S
H149 C148 0.961 . S
H150 C148 0.961 . S
H151 C148 0.960 . S
C152 N153 1.342 . S
C152 C156 1.401 . S
C152 C157 1.499 . S
N153 Co136 1.989 . S
N153 C152 1.342 . S
N153 N154 1.388 . S
N154 Co137 1.993 . S
N154 N153 1.388 . S
N154 C155 1.346 . S
C155 N154 1.346 . S
C155 C156 1.396 . S
C155 C165 1.510 . S
C156 C152 1.401 . S
C156 C155 1.396 . S
C157 C152 1.499 . S
C157 H158 0.959 . S
C157 H159 0.960 . S
C157 H160 0.961 . S
H158 C157 0.959 . S
H159 C157 0.960 . S
H160 C157 0.961 . S
O161 Co136 1.967 . S
O161 C169 1.258 . S
O162 Co137 1.941 . S
O162 C169 1.266 . S
H163 C165 0.959 . S
H164 C165 0.961 . S
C165 C155 1.510 . S
C165 H163 0.959 . S
C165 H164 0.961 . S
C165 H166 0.960 . S
H166 C165 0.960 . S
H167 N147 0.862 . S
O168 Co136 1.920 . S
O168 C141 1.289 . S
C169 O161 1.258 . S
C169 O162 1.266 . S
Co170 O173 1.970 . S
Co170 N187 1.989 . S
Co170 O195 1.967 . S
Co170 O202 1.920 . S
Co171 O174 1.966 . S
Co171 N180 2.022 . S
Co171 N188 1.993 . S
Co171 O196 1.941 . S
C172 O173 1.258 . S
C172 O174 1.263 . S
O173 Co170 1.970 . S
O173 C172 1.258 . S
O174 Co171 1.966 . S
O174 C172 1.263 . S
C175 O176 1.235 . S
C175 O202 1.289 . S
O176 C175 1.235 . S
C177 C179 1.400 . S
C177 N180 1.351 . S
C177 C182 1.501 . S
C178 C179 1.387 . S
C178 N181 1.341 . S
C179 C177 1.400 . S
C179 C178 1.387 . S
N180 Co171 2.022 . S
N180 C177 1.351 . S
N180 N181 1.365 . S
N181 C178 1.341 . S
N181 N180 1.365 . S
N181 H201 0.862 . S
C182 C177 1.501 . S
C182 H183 0.961 . S
C182 H184 0.961 . S
C182 H185 0.960 . S
H183 C182 0.961 . S
H184 C182 0.961 . S
H185 C182 0.960 . S
C186 N187 1.342 . S
C186 C190 1.401 . S
C186 C191 1.499 . S
N187 Co170 1.989 . S
N187 C186 1.342 . S
N187 N188 1.388 . S
N188 Co171 1.993 . S
N188 N187 1.388 . S
N188 C189 1.346 . S
C189 N188 1.346 . S
C189 C190 1.396 . S
C189 C199 1.510 . S
C190 C186 1.401 . S
C190 C189 1.396 . S
C191 C186 1.499 . S
C191 H192 0.959 . S
C191 H193 0.960 . S
C191 H194 0.961 . S
H192 C191 0.959 . S
H193 C191 0.960 . S
H194 C191 0.961 . S
O195 Co170 1.967 . S
O195 C203 1.258 . S
O196 Co171 1.941 . S
O196 C203 1.266 . S
H197 C199 0.959 . S
H198 C199 0.961 . S
C199 C189 1.510 . S
C199 H197 0.959 . S
C199 H198 0.961 . S
C199 H200 0.960 . S
H200 C199 0.960 . S
H201 N181 0.862 . S
O202 Co170 1.920 . S
O202 C175 1.289 . S
C203 O195 1.258 . S
C203 O196 1.266 . S
Co204 O207 1.970 . S
Co204 N221 1.989 . S
Co204 O229 1.967 . S
Co204 O236 1.920 . S
Co205 O208 1.966 . S
Co205 N214 2.022 . S
Co205 N222 1.993 . S
Co205 O230 1.941 . S
C206 O207 1.258 . S
C206 O208 1.263 . S
O207 Co204 1.970 . S
O207 C206 1.258 . S
O208 Co205 1.966 . S
O208 C206 1.263 . S
C209 O210 1.235 . S
C209 O236 1.289 . S
O210 C209 1.235 . S
C211 C213 1.400 . S
C211 N214 1.351 . S
C211 C216 1.501 . S
C212 C213 1.387 . S
C212 N215 1.341 . S
C213 C211 1.400 . S
C213 C212 1.387 . S
N214 Co205 2.022 . S
N214 C211 1.351 . S
N214 N215 1.365 . S
N215 C212 1.341 . S
N215 N214 1.365 . S
N215 H235 0.862 . S
C216 C211 1.501 . S
C216 H217 0.961 . S
C216 H218 0.961 . S
C216 H219 0.960 . S
H217 C216 0.961 . S
H218 C216 0.961 . S
H219 C216 0.960 . S
C220 N221 1.342 . S
C220 C224 1.401 . S
C220 C225 1.499 . S
N221 Co204 1.989 . S
N221 C220 1.342 . S
N221 N222 1.388 . S
N222 Co205 1.993 . S
N222 N221 1.388 . S
N222 C223 1.346 . S
C223 N222 1.346 . S
C223 C224 1.396 . S
C223 C233 1.510 . S
C224 C220 1.401 . S
C224 C223 1.396 . S
C225 C220 1.499 . S
C225 H226 0.959 . S
C225 H227 0.960 . S
C225 H228 0.961 . S
H226 C225 0.959 . S
H227 C225 0.960 . S
H228 C225 0.961 . S
O229 Co204 1.967 . S
O229 C237 1.258 . S
O230 Co205 1.941 . S
O230 C237 1.266 . S
H231 C233 0.959 . S
H232 C233 0.961 . S
C233 C223 1.510 . S
C233 H231 0.959 . S
C233 H232 0.961 . S
C233 H234 0.960 . S
H234 C233 0.960 . S
H235 N215 0.862 . S
O236 Co204 1.920 . S
O236 C209 1.289 . S
C237 O229 1.258 . S
C237 O230 1.266 . S
Co238 O241 1.970 . S
Co238 N255 1.989 . S
Co238 O263 1.967 . S
Co238 O270 1.920 . S
Co239 O242 1.966 . S
Co239 N248 2.022 . S
Co239 N256 1.993 . S
Co239 O264 1.941 . S
C240 O241 1.258 . S
C240 O242 1.263 . S
O241 Co238 1.970 . S
O241 C240 1.258 . S
O242 Co239 1.966 . S
O242 C240 1.263 . S
C243 O244 1.235 . S
C243 O270 1.289 . S
O244 C243 1.235 . S
C245 C247 1.400 . S
C245 N248 1.351 . S
C245 C250 1.501 . S
C246 C247 1.387 . S
C246 N249 1.341 . S
C247 C245 1.400 . S
C247 C246 1.387 . S
N248 Co239 2.022 . S
N248 C245 1.351 . S
N248 N249 1.365 . S
N249 C246 1.341 . S
N249 N248 1.365 . S
N249 H269 0.862 . S
C250 C245 1.501 . S
C250 H251 0.961 . S
C250 H252 0.961 . S
C250 H253 0.960 . S
H251 C250 0.961 . S
H252 C250 0.961 . S
H253 C250 0.960 . S
C254 N255 1.342 . S
C254 C258 1.401 . S
C254 C259 1.499 . S
N255 Co238 1.989 . S
N255 C254 1.342 . S
N255 N256 1.388 . S
N256 Co239 1.993 . S
N256 N255 1.388 . S
N256 C257 1.346 . S
C257 N256 1.346 . S
C257 C258 1.396 . S
C257 C267 1.510 . S
C258 C254 1.401 . S
C258 C257 1.396 . S
C259 C254 1.499 . S
C259 H260 0.959 . S
C259 H261 0.960 . S
C259 H262 0.961 . S
H260 C259 0.959 . S
H261 C259 0.960 . S
H262 C259 0.961 . S
O263 Co238 1.967 . S
O263 C271 1.258 . S
O264 Co239 1.941 . S
O264 C271 1.266 . S
H265 C267 0.959 . S
H266 C267 0.961 . S
C267 C257 1.510 . S
C267 H265 0.959 . S
C267 H266 0.961 . S
C267 H268 0.960 . S
H268 C267 0.960 . S
H269 N249 0.862 . S
O270 Co238 1.920 . S
O270 C243 1.289 . S
C271 O263 1.258 . S
C271 O264 1.266 . S
Co272 O275 1.970 . S
Co272 N289 1.989 . S
Co272 O297 1.967 . S
Co272 O304 1.920 . S
Co273 O276 1.966 . S
Co273 N282 2.022 . S
Co273 N290 1.993 . S
Co273 O298 1.941 . S
C274 O275 1.258 . S
C274 O276 1.263 . S
O275 Co272 1.970 . S
O275 C274 1.258 . S
O276 Co273 1.966 . S
O276 C274 1.263 . S
C277 O278 1.235 . S
C277 O304 1.289 . S
O278 C277 1.235 . S
C279 C281 1.400 . S
C279 N282 1.351 . S
C279 C284 1.501 . S
C280 C281 1.387 . S
C280 N283 1.341 . S
C281 C279 1.400 . S
C281 C280 1.387 . S
N282 Co273 2.022 . S
N282 C279 1.351 . S
N282 N283 1.365 . S
N283 C280 1.341 . S
N283 N282 1.365 . S
N283 H303 0.862 . S
C284 C279 1.501 . S
C284 H285 0.961 . S
C284 H286 0.961 . S
C284 H287 0.960 . S
H285 C284 0.961 . S
H286 C284 0.961 . S
H287 C284 0.960 . S
C288 N289 1.342 . S
C288 C292 1.401 . S
C288 C293 1.499 . S
N289 Co272 1.989 . S
N289 C288 1.342 . S
N289 N290 1.388 . S
N290 Co273 1.993 . S
N290 N289 1.388 . S
N290 C291 1.346 . S
C291 N290 1.346 . S
C291 C292 1.396 . S
C291 C301 1.510 . S
C292 C288 1.401 . S
C292 C291 1.396 . S
C293 C288 1.499 . S
C293 H294 0.959 . S
C293 H295 0.960 . S
C293 H296 0.961 . S
H294 C293 0.959 . S
H295 C293 0.960 . S
H296 C293 0.961 . S
O297 Co272 1.967 . S
O297 C305 1.258 . S
O298 Co273 1.941 . S
O298 C305 1.266 . S
H299 C301 0.959 . S
H300 C301 0.961 . S
C301 C291 1.510 . S
C301 H299 0.959 . S
C301 H300 0.961 . S
C301 H302 0.960 . S
H302 C301 0.960 . S
H303 N283 0.862 . S
O304 Co272 1.920 . S
O304 C277 1.289 . S
C305 O297 1.258 . S
C305 O298 1.266 . S
Co306 O309 1.970 . S
Co306 N323 1.989 . S
Co306 O331 1.967 . S
Co306 O338 1.920 . S
Co307 O310 1.966 . S
Co307 N316 2.022 . S
Co307 N324 1.993 . S
Co307 O332 1.941 . S
C308 O309 1.258 . S
C308 O310 1.263 . S
O309 Co306 1.970 . S
O309 C308 1.258 . S
O310 Co307 1.966 . S
O310 C308 1.263 . S
C311 O312 1.235 . S
C311 O338 1.289 . S
O312 C311 1.235 . S
C313 C315 1.400 . S
C313 N316 1.351 . S
C313 C318 1.501 . S
C314 C315 1.387 . S
C314 N317 1.341 . S
C315 C313 1.400 . S
C315 C314 1.387 . S
N316 Co307 2.022 . S
N316 C313 1.351 . S
N316 N317 1.365 . S
N317 C314 1.341 . S
N317 N316 1.365 . S
N317 H337 0.862 . S
C318 C313 1.501 . S
C318 H319 0.961 . S
C318 H320 0.961 . S
C318 H321 0.960 . S
H319 C318 0.961 . S
H320 C318 0.961 . S
H321 C318 0.960 . S
C322 N323 1.342 . S
C322 C326 1.401 . S
C322 C327 1.499 . S
N323 Co306 1.989 . S
N323 C322 1.342 . S
N323 N324 1.388 . S
N324 Co307 1.993 . S
N324 N323 1.388 . S
N324 C325 1.346 . S
C325 N324 1.346 . S
C325 C326 1.396 . S
C325 C335 1.510 . S
C326 C322 1.401 . S
C326 C325 1.396 . S
C327 C322 1.499 . S
C327 H328 0.959 . S
C327 H329 0.960 . S
C327 H330 0.961 . S
H328 C327 0.959 . S
H329 C327 0.960 . S
H330 C327 0.961 . S
O331 Co306 1.967 . S
O331 C339 1.258 . S
O332 Co307 1.941 . S
O332 C339 1.266 . S
H333 C335 0.959 . S
H334 C335 0.961 . S
C335 C325 1.510 . S
C335 H333 0.959 . S
C335 H334 0.961 . S
C335 H336 0.960 . S
H336 C335 0.960 . S
H337 N317 0.862 . S
O338 Co306 1.920 . S
O338 C311 1.289 . S
C339 O331 1.258 . S
C339 O332 1.266 . S
Co340 O343 1.970 . S
Co340 N357 1.989 . S
Co340 O365 1.967 . S
Co340 O372 1.920 . S
Co341 O344 1.966 . S
Co341 N350 2.022 . S
Co341 N358 1.993 . S
Co341 O366 1.941 . S
C342 O343 1.258 . S
C342 O344 1.263 . S
O343 Co340 1.970 . S
O343 C342 1.258 . S
O344 Co341 1.966 . S
O344 C342 1.263 . S
C345 O346 1.235 . S
C345 O372 1.289 . S
O346 C345 1.235 . S
C347 C349 1.400 . S
C347 N350 1.351 . S
C347 C352 1.501 . S
C348 C349 1.387 . S
C348 N351 1.341 . S
C349 C347 1.400 . S
C349 C348 1.387 . S
N350 Co341 2.022 . S
N350 C347 1.351 . S
N350 N351 1.365 . S
N351 C348 1.341 . S
N351 N350 1.365 . S
N351 H371 0.862 . S
C352 C347 1.501 . S
C352 H353 0.961 . S
C352 H354 0.961 . S
C352 H355 0.960 . S
H353 C352 0.961 . S
H354 C352 0.961 . S
H355 C352 0.960 . S
C356 N357 1.342 . S
C356 C360 1.401 . S
C356 C361 1.499 . S
N357 Co340 1.989 . S
N357 C356 1.342 . S
N357 N358 1.388 . S
N358 Co341 1.993 . S
N358 N357 1.388 . S
N358 C359 1.346 . S
C359 N358 1.346 . S
C359 C360 1.396 . S
C359 C369 1.510 . S
C360 C356 1.401 . S
C360 C359 1.396 . S
C361 C356 1.499 . S
C361 H362 0.959 . S
C361 H363 0.960 . S
C361 H364 0.961 . S
H362 C361 0.959 . S
H363 C361 0.960 . S
H364 C361 0.961 . S
O365 Co340 1.967 . S
O365 C373 1.258 . S
O366 Co341 1.941 . S
O366 C373 1.266 . S
H367 C369 0.959 . S
H368 C369 0.961 . S
C369 C359 1.510 . S
C369 H367 0.959 . S
C369 H368 0.961 . S
C369 H370 0.960 . S
H370 C369 0.960 . S
H371 N351 0.862 . S
O372 Co340 1.920 . S
O372 C345 1.289 . S
C373 O365 1.258 . S
C373 O366 1.266 . S
Co374 O377 1.970 . S
Co374 N391 1.989 . S
Co374 O399 1.967 . S
Co374 O406 1.920 . S
Co375 O378 1.966 . S
Co375 N384 2.022 . S
Co375 N392 1.993 . S
Co375 O400 1.941 . S
C376 O377 1.258 . S
C376 O378 1.263 . S
O377 Co374 1.970 . S
O377 C376 1.258 . S
O378 Co375 1.966 . S
O378 C376 1.263 . S
C379 O380 1.235 . S
C379 O406 1.289 . S
O380 C379 1.235 . S
C381 C383 1.400 . S
C381 N384 1.351 . S
C381 C386 1.501 . S
C382 C383 1.387 . S
C382 N385 1.341 . S
C383 C381 1.400 . S
C383 C382 1.387 . S
N384 Co375 2.022 . S
N384 C381 1.351 . S
N384 N385 1.365 . S
N385 C382 1.341 . S
N385 N384 1.365 . S
N385 H405 0.862 . S
C386 C381 1.501 . S
C386 H387 0.961 . S
C386 H388 0.961 . S
C386 H389 0.960 . S
H387 C386 0.961 . S
H388 C386 0.961 . S
H389 C386 0.960 . S
C390 N391 1.342 . S
C390 C394 1.401 . S
C390 C395 1.499 . S
N391 Co374 1.989 . S
N391 C390 1.342 . S
N391 N392 1.388 . S
N392 Co375 1.993 . S
N392 N391 1.388 . S
N392 C393 1.346 . S
C393 N392 1.346 . S
C393 C394 1.396 . S
C393 C403 1.510 . S
C394 C390 1.401 . S
C394 C393 1.396 . S
C395 C390 1.499 . S
C395 H396 0.959 . S
C395 H397 0.960 . S
C395 H398 0.961 . S
H396 C395 0.959 . S
H397 C395 0.960 . S
H398 C395 0.961 . S
O399 Co374 1.967 . S
O399 C407 1.258 . S
O400 Co375 1.941 . S
O400 C407 1.266 . S
H401 C403 0.959 . S
H402 C403 0.961 . S
C403 C393 1.510 . S
C403 H401 0.959 . S
C403 H402 0.961 . S
C403 H404 0.960 . S
H404 C403 0.960 . S
H405 N385 0.862 . S
O406 Co374 1.920 . S
O406 C379 1.289 . S
C407 O399 1.258 . S
C407 O400 1.266 . S
Co408 O411 1.970 . S
Co408 N425 1.989 . S
Co408 O433 1.967 . S
Co408 O440 1.920 . S
Co409 O412 1.966 . S
Co409 N418 2.022 . S
Co409 N426 1.993 . S
Co409 O434 1.941 . S
C410 O411 1.258 . S
C410 O412 1.263 . S
O411 Co408 1.970 . S
O411 C410 1.258 . S
O412 Co409 1.966 . S
O412 C410 1.263 . S
C413 O414 1.235 . S
C413 O440 1.289 . S
O414 C413 1.235 . S
C415 C417 1.400 . S
C415 N418 1.351 . S
C415 C420 1.501 . S
C416 C417 1.387 . S
C416 N419 1.341 . S
C417 C415 1.400 . S
C417 C416 1.387 . S
N418 Co409 2.022 . S
N418 C415 1.351 . S
N418 N419 1.365 . S
N419 C416 1.341 . S
N419 N418 1.365 . S
N419 H439 0.862 . S
C420 C415 1.501 . S
C420 H421 0.961 . S
C420 H422 0.961 . S
C420 H423 0.960 . S
H421 C420 0.961 . S
H422 C420 0.961 . S
H423 C420 0.960 . S
C424 N425 1.342 . S
C424 C428 1.401 . S
C424 C429 1.499 . S
N425 Co408 1.989 . S
N425 C424 1.342 . S
N425 N426 1.388 . S
N426 Co409 1.993 . S
N426 N425 1.388 . S
N426 C427 1.346 . S
C427 N426 1.346 . S
C427 C428 1.396 . S
C427 C437 1.510 . S
C428 C424 1.401 . S
C428 C427 1.396 . S
C429 C424 1.499 . S
C429 H430 0.959 . S
C429 H431 0.960 . S
C429 H432 0.961 . S
H430 C429 0.959 . S
H431 C429 0.960 . S
H432 C429 0.961 . S
O433 Co408 1.967 . S
O433 C441 1.258 . S
O434 Co409 1.941 . S
O434 C441 1.266 . S
H435 C437 0.959 . S
H436 C437 0.961 . S
C437 C427 1.510 . S
C437 H435 0.959 . S
C437 H436 0.961 . S
C437 H438 0.960 . S
H438 C437 0.960 . S
H439 N419 0.862 . S
O440 Co408 1.920 . S
O440 C413 1.289 . S
C441 O433 1.258 . S
C441 O434 1.266 . S
Co442 O445 1.970 . S
Co442 N459 1.989 . S
Co442 O467 1.967 . S
Co442 O474 1.920 . S
Co443 O446 1.966 . S
Co443 N452 2.022 . S
Co443 N460 1.993 . S
Co443 O468 1.941 . S
C444 O445 1.258 . S
C444 O446 1.263 . S
O445 Co442 1.970 . S
O445 C444 1.258 . S
O446 Co443 1.966 . S
O446 C444 1.263 . S
C447 O448 1.235 . S
C447 O474 1.289 . S
O448 C447 1.235 . S
C449 C451 1.400 . S
C449 N452 1.351 . S
C449 C454 1.501 . S
C450 C451 1.387 . S
C450 N453 1.341 . S
C451 C449 1.400 . S
C451 C450 1.387 . S
N452 Co443 2.022 . S
N452 C449 1.351 . S
N452 N453 1.365 . S
N453 C450 1.341 . S
N453 N452 1.365 . S
N453 H473 0.862 . S
C454 C449 1.501 . S
C454 H455 0.961 . S
C454 H456 0.961 . S
C454 H457 0.960 . S
H455 C454 0.961 . S
H456 C454 0.961 . S
H457 C454 0.960 . S
C458 N459 1.342 . S
C458 C462 1.401 . S
C458 C463 1.499 . S
N459 Co442 1.989 . S
N459 C458 1.342 . S
N459 N460 1.388 . S
N460 Co443 1.993 . S
N460 N459 1.388 . S
N460 C461 1.346 . S
C461 N460 1.346 . S
C461 C462 1.396 . S
C461 C471 1.510 . S
C462 C458 1.401 . S
C462 C461 1.396 . S
C463 C458 1.499 . S
C463 H464 0.959 . S
C463 H465 0.960 . S
C463 H466 0.961 . S
H464 C463 0.959 . S
H465 C463 0.960 . S
H466 C463 0.961 . S
O467 Co442 1.967 . S
O467 C475 1.258 . S
O468 Co443 1.941 . S
O468 C475 1.266 . S
H469 C471 0.959 . S
H470 C471 0.961 . S
C471 C461 1.510 . S
C471 H469 0.959 . S
C471 H470 0.961 . S
C471 H472 0.960 . S
H472 C471 0.960 . S
H473 N453 0.862 . S
O474 Co442 1.920 . S
O474 C447 1.289 . S
C475 O467 1.258 . S
C475 O468 1.266 . S
Co476 O479 1.970 . S
Co476 N493 1.989 . S
Co476 O501 1.967 . S
Co476 O508 1.920 . S
Co477 O480 1.966 . S
Co477 N486 2.022 . S
Co477 N494 1.993 . S
Co477 O502 1.941 . S
C478 O479 1.258 . S
C478 O480 1.263 . S
O479 Co476 1.970 . S
O479 C478 1.258 . S
O480 Co477 1.966 . S
O480 C478 1.263 . S
C481 O482 1.235 . S
C481 O508 1.289 . S
O482 C481 1.235 . S
C483 C485 1.400 . S
C483 N486 1.351 . S
C483 C488 1.501 . S
C484 C485 1.387 . S
C484 N487 1.341 . S
C485 C483 1.400 . S
C485 C484 1.387 . S
N486 Co477 2.022 . S
N486 C483 1.351 . S
N486 N487 1.365 . S
N487 C484 1.341 . S
N487 N486 1.365 . S
N487 H507 0.862 . S
C488 C483 1.501 . S
C488 H489 0.961 . S
C488 H490 0.961 . S
C488 H491 0.960 . S
H489 C488 0.961 . S
H490 C488 0.961 . S
H491 C488 0.960 . S
C492 N493 1.342 . S
C492 C496 1.401 . S
C492 C497 1.499 . S
N493 Co476 1.989 . S
N493 C492 1.342 . S
N493 N494 1.388 . S
N494 Co477 1.993 . S
N494 N493 1.388 . S
N494 C495 1.346 . S
C495 N494 1.346 . S
C495 C496 1.396 . S
C495 C505 1.510 . S
C496 C492 1.401 . S
C496 C495 1.396 . S
C497 C492 1.499 . S
C497 H498 0.959 . S
C497 H499 0.960 . S
C497 H500 0.961 . S
H498 C497 0.959 . S
H499 C497 0.960 . S
H500 C497 0.961 . S
O501 Co476 1.967 . S
O501 C509 1.258 . S
O502 Co477 1.941 . S
O502 C509 1.266 . S
H503 C505 0.959 . S
H504 C505 0.961 . S
C505 C495 1.510 . S
C505 H503 0.959 . S
C505 H504 0.961 . S
C505 H506 0.960 . S
H506 C505 0.960 . S
H507 N487 0.862 . S
O508 Co476 1.920 . S
O508 C481 1.289 . S
C509 O501 1.258 . S
C509 O502 1.266 . S
Co510 O513 1.970 . S
Co510 N527 1.989 . S
Co510 O535 1.967 . S
Co510 O542 1.920 . S
Co511 O514 1.966 . S
Co511 N520 2.022 . S
Co511 N528 1.993 . S
Co511 O536 1.941 . S
C512 O513 1.258 . S
C512 O514 1.263 . S
O513 Co510 1.970 . S
O513 C512 1.258 . S
O514 Co511 1.966 . S
O514 C512 1.263 . S
C515 O516 1.235 . S
C515 O542 1.289 . S
O516 C515 1.235 . S
C517 C519 1.400 . S
C517 N520 1.351 . S
C517 C522 1.501 . S
C518 C519 1.387 . S
C518 N521 1.341 . S
C519 C517 1.400 . S
C519 C518 1.387 . S
N520 Co511 2.022 . S
N520 C517 1.351 . S
N520 N521 1.365 . S
N521 C518 1.341 . S
N521 N520 1.365 . S
N521 H541 0.862 . S
C522 C517 1.501 . S
C522 H523 0.961 . S
C522 H524 0.961 . S
C522 H525 0.960 . S
H523 C522 0.961 . S
H524 C522 0.961 . S
H525 C522 0.960 . S
C526 N527 1.342 . S
C526 C530 1.401 . S
C526 C531 1.499 . S
N527 Co510 1.989 . S
N527 C526 1.342 . S
N527 N528 1.388 . S
N528 Co511 1.993 . S
N528 N527 1.388 . S
N528 C529 1.346 . S
C529 N528 1.346 . S
C529 C530 1.396 . S
C529 C539 1.510 . S
C530 C526 1.401 . S
C530 C529 1.396 . S
C531 C526 1.499 . S
C531 H532 0.959 . S
C531 H533 0.960 . S
C531 H534 0.961 . S
H532 C531 0.959 . S
H533 C531 0.960 . S
H534 C531 0.961 . S
O535 Co510 1.967 . S
O535 C543 1.258 . S
O536 Co511 1.941 . S
O536 C543 1.266 . S
H537 C539 0.959 . S
H538 C539 0.961 . S
C539 C529 1.510 . S
C539 H537 0.959 . S
C539 H538 0.961 . S
C539 H540 0.960 . S
H540 C539 0.960 . S
H541 N521 0.862 . S
O542 Co510 1.920 . S
O542 C515 1.289 . S
C543 O535 1.258 . S
C543 O536 1.266 . S
Co544 O547 1.970 . S
Co544 N561 1.989 . S
Co544 O569 1.967 . S
Co544 O576 1.920 . S
Co545 O548 1.966 . S
Co545 N554 2.022 . S
Co545 N562 1.993 . S
Co545 O570 1.941 . S
C546 O547 1.258 . S
C546 O548 1.263 . S
O547 Co544 1.970 . S
O547 C546 1.258 . S
O548 Co545 1.966 . S
O548 C546 1.263 . S
C549 O550 1.235 . S
C549 O576 1.289 . S
O550 C549 1.235 . S
C551 C553 1.400 . S
C551 N554 1.351 . S
C551 C556 1.501 . S
C552 C553 1.387 . S
C552 N555 1.341 . S
C553 C551 1.400 . S
C553 C552 1.387 . S
N554 Co545 2.022 . S
N554 C551 1.351 . S
N554 N555 1.365 . S
N555 C552 1.341 . S
N555 N554 1.365 . S
N555 H575 0.862 . S
C556 C551 1.501 . S
C556 H557 0.961 . S
C556 H558 0.961 . S
C556 H559 0.960 . S
H557 C556 0.961 . S
H558 C556 0.961 . S
H559 C556 0.960 . S
C560 N561 1.342 . S
C560 C564 1.401 . S
C560 C565 1.499 . S
N561 Co544 1.989 . S
N561 C560 1.342 . S
N561 N562 1.388 . S
N562 Co545 1.993 . S
N562 N561 1.388 . S
N562 C563 1.346 . S
C563 N562 1.346 . S
C563 C564 1.396 . S
C563 C573 1.510 . S
C564 C560 1.401 . S
C564 C563 1.396 . S
C565 C560 1.499 . S
C565 H566 0.959 . S
C565 H567 0.960 . S
C565 H568 0.961 . S
H566 C565 0.959 . S
H567 C565 0.960 . S
H568 C565 0.961 . S
O569 Co544 1.967 . S
O569 C577 1.258 . S
O570 Co545 1.941 . S
O570 C577 1.266 . S
H571 C573 0.959 . S
H572 C573 0.961 . S
C573 C563 1.510 . S
C573 H571 0.959 . S
C573 H572 0.961 . S
C573 H574 0.960 . S
H574 C573 0.960 . S
H575 N555 0.862 . S
O576 Co544 1.920 . S
O576 C549 1.289 . S
C577 O569 1.258 . S
C577 O570 1.266 . S
Co578 O581 1.970 . S
Co578 N595 1.989 . S
Co578 O603 1.967 . S
Co578 O610 1.920 . S
Co579 O582 1.966 . S
Co579 N588 2.022 . S
Co579 N596 1.993 . S
Co579 O604 1.941 . S
C580 O581 1.258 . S
C580 O582 1.263 . S
O581 Co578 1.970 . S
O581 C580 1.258 . S
O582 Co579 1.966 . S
O582 C580 1.263 . S
C583 O584 1.235 . S
C583 O610 1.289 . S
O584 C583 1.235 . S
C585 C587 1.400 . S
C585 N588 1.351 . S
C585 C590 1.501 . S
C586 C587 1.387 . S
C586 N589 1.341 . S
C587 C585 1.400 . S
C587 C586 1.387 . S
N588 Co579 2.022 . S
N588 C585 1.351 . S
N588 N589 1.365 . S
N589 C586 1.341 . S
N589 N588 1.365 . S
N589 H609 0.862 . S
C590 C585 1.501 . S
C590 H591 0.961 . S
C590 H592 0.961 . S
C590 H593 0.960 . S
H591 C590 0.961 . S
H592 C590 0.961 . S
H593 C590 0.960 . S
C594 N595 1.342 . S
C594 C598 1.401 . S
C594 C599 1.499 . S
N595 Co578 1.989 . S
N595 C594 1.342 . S
N595 N596 1.388 . S
N596 Co579 1.993 . S
N596 N595 1.388 . S
N596 C597 1.346 . S
C597 N596 1.346 . S
C597 C598 1.396 . S
C597 C607 1.510 . S
C598 C594 1.401 . S
C598 C597 1.396 . S
C599 C594 1.499 . S
C599 H600 0.959 . S
C599 H601 0.960 . S
C599 H602 0.961 . S
H600 C599 0.959 . S
H601 C599 0.960 . S
H602 C599 0.961 . S
O603 Co578 1.967 . S
O603 C611 1.258 . S
O604 Co579 1.941 . S
O604 C611 1.266 . S
H605 C607 0.959 . S
H606 C607 0.961 . S
C607 C597 1.510 . S
C607 H605 0.959 . S
C607 H606 0.961 . S
C607 H608 0.960 . S
H608 C607 0.960 . S
H609 N589 0.862 . S
O610 Co578 1.920 . S
O610 C583 1.289 . S
C611 O603 1.258 . S
C611 O604 1.266 . S
Co612 O615 1.970 . S
Co612 N629 1.989 . S
Co612 O637 1.967 . S
Co612 O644 1.920 . S
Co613 O616 1.966 . S
Co613 N622 2.022 . S
Co613 N630 1.993 . S
Co613 O638 1.941 . S
C614 O615 1.258 . S
C614 O616 1.263 . S
O615 Co612 1.970 . S
O615 C614 1.258 . S
O616 Co613 1.966 . S
O616 C614 1.263 . S
C617 O618 1.235 . S
C617 O644 1.289 . S
O618 C617 1.235 . S
C619 C621 1.400 . S
C619 N622 1.351 . S
C619 C624 1.501 . S
C620 C621 1.387 . S
C620 N623 1.341 . S
C621 C619 1.400 . S
C621 C620 1.387 . S
N622 Co613 2.022 . S
N622 C619 1.351 . S
N622 N623 1.365 . S
N623 C620 1.341 . S
N623 N622 1.365 . S
N623 H643 0.862 . S
C624 C619 1.501 . S
C624 H625 0.961 . S
C624 H626 0.961 . S
C624 H627 0.960 . S
H625 C624 0.961 . S
H626 C624 0.961 . S
H627 C624 0.960 . S
C628 N629 1.342 . S
C628 C632 1.401 . S
C628 C633 1.499 . S
N629 Co612 1.989 . S
N629 C628 1.342 . S
N629 N630 1.388 . S
N630 Co613 1.993 . S
N630 N629 1.388 . S
N630 C631 1.346 . S
C631 N630 1.346 . S
C631 C632 1.396 . S
C631 C641 1.510 . S
C632 C628 1.401 . S
C632 C631 1.396 . S
C633 C628 1.499 . S
C633 H634 0.959 . S
C633 H635 0.960 . S
C633 H636 0.961 . S
H634 C633 0.959 . S
H635 C633 0.960 . S
H636 C633 0.961 . S
O637 Co612 1.967 . S
O637 C645 1.258 . S
O638 Co613 1.941 . S
O638 C645 1.266 . S
H639 C641 0.959 . S
H640 C641 0.961 . S
C641 C631 1.510 . S
C641 H639 0.959 . S
C641 H640 0.961 . S
C641 H642 0.960 . S
H642 C641 0.960 . S
H643 N623 0.862 . S
O644 Co612 1.920 . S
O644 C617 1.289 . S
C645 O637 1.258 . S
C645 O638 1.266 . S
Co646 O649 1.970 . S
Co646 N663 1.989 . S
Co646 O671 1.967 . S
Co646 O678 1.920 . S
Co647 O650 1.966 . S
Co647 N656 2.022 . S
Co647 N664 1.993 . S
Co647 O672 1.941 . S
C648 O649 1.258 . S
C648 O650 1.263 . S
O649 Co646 1.970 . S
O649 C648 1.258 . S
O650 Co647 1.966 . S
O650 C648 1.263 . S
C651 O652 1.235 . S
C651 O678 1.289 . S
O652 C651 1.235 . S
C653 C655 1.400 . S
C653 N656 1.351 . S
C653 C658 1.501 . S
C654 C655 1.387 . S
C654 N657 1.341 . S
C655 C653 1.400 . S
C655 C654 1.387 . S
N656 Co647 2.022 . S
N656 C653 1.351 . S
N656 N657 1.365 . S
N657 C654 1.341 . S
N657 N656 1.365 . S
N657 H677 0.862 . S
C658 C653 1.501 . S
C658 H659 0.961 . S
C658 H660 0.961 . S
C658 H661 0.960 . S
H659 C658 0.961 . S
H660 C658 0.961 . S
H661 C658 0.960 . S
C662 N663 1.342 . S
C662 C666 1.401 . S
C662 C667 1.499 . S
N663 Co646 1.989 . S
N663 C662 1.342 . S
N663 N664 1.388 . S
N664 Co647 1.993 . S
N664 N663 1.388 . S
N664 C665 1.346 . S
C665 N664 1.346 . S
C665 C666 1.396 . S
C665 C675 1.510 . S
C666 C662 1.401 . S
C666 C665 1.396 . S
C667 C662 1.499 . S
C667 H668 0.959 . S
C667 H669 0.960 . S
C667 H670 0.961 . S
H668 C667 0.959 . S
H669 C667 0.960 . S
H670 C667 0.961 . S
O671 Co646 1.967 . S
O671 C679 1.258 . S
O672 Co647 1.941 . S
O672 C679 1.266 . S
H673 C675 0.959 . S
H674 C675 0.961 . S
C675 C665 1.510 . S
C675 H673 0.959 . S
C675 H674 0.961 . S
C675 H676 0.960 . S
H676 C675 0.960 . S
H677 N657 0.862 . S
O678 Co646 1.920 . S
O678 C651 1.289 . S
C679 O671 1.258 . S
C679 O672 1.266 . S
Co680 O683 1.970 . S
Co680 N697 1.989 . S
Co680 O705 1.967 . S
Co680 O712 1.920 . S
Co681 O684 1.966 . S
Co681 N690 2.022 . S
Co681 N698 1.993 . S
Co681 O706 1.941 . S
C682 O683 1.258 . S
C682 O684 1.263 . S
O683 Co680 1.970 . S
O683 C682 1.258 . S
O684 Co681 1.966 . S
O684 C682 1.263 . S
C685 O686 1.235 . S
C685 O712 1.289 . S
O686 C685 1.235 . S
C687 C689 1.400 . S
C687 N690 1.351 . S
C687 C692 1.501 . S
C688 C689 1.387 . S
C688 N691 1.341 . S
C689 C687 1.400 . S
C689 C688 1.387 . S
N690 Co681 2.022 . S
N690 C687 1.351 . S
N690 N691 1.365 . S
N691 C688 1.341 . S
N691 N690 1.365 . S
N691 H711 0.862 . S
C692 C687 1.501 . S
C692 H693 0.961 . S
C692 H694 0.961 . S
C692 H695 0.960 . S
H693 C692 0.961 . S
H694 C692 0.961 . S
H695 C692 0.960 . S
C696 N697 1.342 . S
C696 C700 1.401 . S
C696 C701 1.499 . S
N697 Co680 1.989 . S
N697 C696 1.342 . S
N697 N698 1.388 . S
N698 Co681 1.993 . S
N698 N697 1.388 . S
N698 C699 1.346 . S
C699 N698 1.346 . S
C699 C700 1.396 . S
C699 C709 1.510 . S
C700 C696 1.401 . S
C700 C699 1.396 . S
C701 C696 1.499 . S
C701 H702 0.959 . S
C701 H703 0.960 . S
C701 H704 0.961 . S
H702 C701 0.959 . S
H703 C701 0.960 . S
H704 C701 0.961 . S
O705 Co680 1.967 . S
O705 C713 1.258 . S
O706 Co681 1.941 . S
O706 C713 1.266 . S
H707 C709 0.959 . S
H708 C709 0.961 . S
C709 C699 1.510 . S
C709 H707 0.959 . S
C709 H708 0.961 . S
C709 H710 0.960 . S
H710 C709 0.960 . S
H711 N691 0.862 . S
O712 Co680 1.920 . S
O712 C685 1.289 . S
C713 O705 1.258 . S
C713 O706 1.266 . S
Co714 O717 1.970 . S
Co714 N731 1.989 . S
Co714 O739 1.967 . S
Co714 O746 1.920 . S
Co715 O718 1.966 . S
Co715 N724 2.022 . S
Co715 N732 1.993 . S
Co715 O740 1.941 . S
C716 O717 1.258 . S
C716 O718 1.263 . S
O717 Co714 1.970 . S
O717 C716 1.258 . S
O718 Co715 1.966 . S
O718 C716 1.263 . S
C719 O720 1.235 . S
C719 O746 1.289 . S
O720 C719 1.235 . S
C721 C723 1.400 . S
C721 N724 1.351 . S
C721 C726 1.501 . S
C722 C723 1.387 . S
C722 N725 1.341 . S
C723 C721 1.400 . S
C723 C722 1.387 . S
N724 Co715 2.022 . S
N724 C721 1.351 . S
N724 N725 1.365 . S
N725 C722 1.341 . S
N725 N724 1.365 . S
N725 H745 0.862 . S
C726 C721 1.501 . S
C726 H727 0.961 . S
C726 H728 0.961 . S
C726 H729 0.960 . S
H727 C726 0.961 . S
H728 C726 0.961 . S
H729 C726 0.960 . S
C730 N731 1.342 . S
C730 C734 1.401 . S
C730 C735 1.499 . S
N731 Co714 1.989 . S
N731 C730 1.342 . S
N731 N732 1.388 . S
N732 Co715 1.993 . S
N732 N731 1.388 . S
N732 C733 1.346 . S
C733 N732 1.346 . S
C733 C734 1.396 . S
C733 C743 1.510 . S
C734 C730 1.401 . S
C734 C733 1.396 . S
C735 C730 1.499 . S
C735 H736 0.959 . S
C735 H737 0.960 . S
C735 H738 0.961 . S
H736 C735 0.959 . S
H737 C735 0.960 . S
H738 C735 0.961 . S
O739 Co714 1.967 . S
O739 C747 1.258 . S
O740 Co715 1.941 . S
O740 C747 1.266 . S
H741 C743 0.959 . S
H742 C743 0.961 . S
C743 C733 1.510 . S
C743 H741 0.959 . S
C743 H742 0.961 . S
C743 H744 0.960 . S
H744 C743 0.960 . S
H745 N725 0.862 . S
O746 Co714 1.920 . S
O746 C719 1.289 . S
C747 O739 1.258 . S
C747 O740 1.266 . S
Co748 O751 1.970 . S
Co748 N765 1.989 . S
Co748 O773 1.967 . S
Co748 O780 1.920 . S
Co749 O752 1.966 . S
Co749 N758 2.022 . S
Co749 N766 1.993 . S
Co749 O774 1.941 . S
C750 O751 1.258 . S
C750 O752 1.263 . S
O751 Co748 1.970 . S
O751 C750 1.258 . S
O752 Co749 1.966 . S
O752 C750 1.263 . S
C753 O754 1.235 . S
C753 O780 1.289 . S
O754 C753 1.235 . S
C755 C757 1.400 . S
C755 N758 1.351 . S
C755 C760 1.501 . S
C756 C757 1.387 . S
C756 N759 1.341 . S
C757 C755 1.400 . S
C757 C756 1.387 . S
N758 Co749 2.022 . S
N758 C755 1.351 . S
N758 N759 1.365 . S
N759 C756 1.341 . S
N759 N758 1.365 . S
N759 H779 0.862 . S
C760 C755 1.501 . S
C760 H761 0.961 . S
C760 H762 0.961 . S
C760 H763 0.960 . S
H761 C760 0.961 . S
H762 C760 0.961 . S
H763 C760 0.960 . S
C764 N765 1.342 . S
C764 C768 1.401 . S
C764 C769 1.499 . S
N765 Co748 1.989 . S
N765 C764 1.342 . S
N765 N766 1.388 . S
N766 Co749 1.993 . S
N766 N765 1.388 . S
N766 C767 1.346 . S
C767 N766 1.346 . S
C767 C768 1.396 . S
C767 C777 1.510 . S
C768 C764 1.401 . S
C768 C767 1.396 . S
C769 C764 1.499 . S
C769 H770 0.959 . S
C769 H771 0.960 . S
C769 H772 0.961 . S
H770 C769 0.959 . S
H771 C769 0.960 . S
H772 C769 0.961 . S
O773 Co748 1.967 . S
O773 C781 1.258 . S
O774 Co749 1.941 . S
O774 C781 1.266 . S
H775 C777 0.959 . S
H776 C777 0.961 . S
C777 C767 1.510 . S
C777 H775 0.959 . S
C777 H776 0.961 . S
C777 H778 0.960 . S
H778 C777 0.960 . S
H779 N759 0.862 . S
O780 Co748 1.920 . S
O780 C753 1.289 . S
C781 O773 1.258 . S
C781 O774 1.266 . S
Co782 O785 1.970 . S
Co782 N799 1.989 . S
Co782 O807 1.967 . S
Co782 O814 1.920 . S
Co783 O786 1.966 . S
Co783 N792 2.022 . S
Co783 N800 1.993 . S
Co783 O808 1.941 . S
C784 O785 1.258 . S
C784 O786 1.263 . S
O785 Co782 1.970 . S
O785 C784 1.258 . S
O786 Co783 1.966 . S
O786 C784 1.263 . S
C787 O788 1.235 . S
C787 O814 1.289 . S
O788 C787 1.235 . S
C789 C791 1.400 . S
C789 N792 1.351 . S
C789 C794 1.501 . S
C790 C791 1.387 . S
C790 N793 1.341 . S
C791 C789 1.400 . S
C791 C790 1.387 . S
N792 Co783 2.022 . S
N792 C789 1.351 . S
N792 N793 1.365 . S
N793 C790 1.341 . S
N793 N792 1.365 . S
N793 H813 0.862 . S
C794 C789 1.501 . S
C794 H795 0.961 . S
C794 H796 0.961 . S
C794 H797 0.960 . S
H795 C794 0.961 . S
H796 C794 0.961 . S
H797 C794 0.960 . S
C798 N799 1.342 . S
C798 C802 1.401 . S
C798 C803 1.499 . S
N799 Co782 1.989 . S
N799 C798 1.342 . S
N799 N800 1.388 . S
N800 Co783 1.993 . S
N800 N799 1.388 . S
N800 C801 1.346 . S
C801 N800 1.346 . S
C801 C802 1.396 . S
C801 C811 1.510 . S
C802 C798 1.401 . S
C802 C801 1.396 . S
C803 C798 1.499 . S
C803 H804 0.959 . S
C803 H805 0.960 . S
C803 H806 0.961 . S
H804 C803 0.959 . S
H805 C803 0.960 . S
H806 C803 0.961 . S
O807 Co782 1.967 . S
O807 C815 1.258 . S
O808 Co783 1.941 . S
O808 C815 1.266 . S
H809 C811 0.959 . S
H810 C811 0.961 . S
C811 C801 1.510 . S
C811 H809 0.959 . S
C811 H810 0.961 . S
C811 H812 0.960 . S
H812 C811 0.960 . S
H813 N793 0.862 . S
O814 Co782 1.920 . S
O814 C787 1.289 . S
C815 O807 1.258 . S
C815 O808 1.266 . S
Co816 O819 1.970 . S
Co816 N833 1.989 . S
Co816 O841 1.967 . S
Co816 O848 1.920 . S
Co817 O820 1.966 . S
Co817 N826 2.022 . S
Co817 N834 1.993 . S
Co817 O842 1.941 . S
C818 O819 1.258 . S
C818 O820 1.263 . S
O819 Co816 1.970 . S
O819 C818 1.258 . S
O820 Co817 1.966 . S
O820 C818 1.263 . S
C821 O822 1.235 . S
C821 O848 1.289 . S
O822 C821 1.235 . S
C823 C825 1.400 . S
C823 N826 1.351 . S
C823 C828 1.501 . S
C824 C825 1.387 . S
C824 N827 1.341 . S
C825 C823 1.400 . S
C825 C824 1.387 . S
N826 Co817 2.022 . S
N826 C823 1.351 . S
N826 N827 1.365 . S
N827 C824 1.341 . S
N827 N826 1.365 . S
N827 H847 0.862 . S
C828 C823 1.501 . S
C828 H829 0.961 . S
C828 H830 0.961 . S
C828 H831 0.960 . S
H829 C828 0.961 . S
H830 C828 0.961 . S
H831 C828 0.960 . S
C832 N833 1.342 . S
C832 C836 1.401 . S
C832 C837 1.499 . S
N833 Co816 1.989 . S
N833 C832 1.342 . S
N833 N834 1.388 . S
N834 Co817 1.993 . S
N834 N833 1.388 . S
N834 C835 1.346 . S
C835 N834 1.346 . S
C835 C836 1.396 . S
C835 C845 1.510 . S
C836 C832 1.401 . S
C836 C835 1.396 . S
C837 C832 1.499 . S
C837 H838 0.959 . S
C837 H839 0.960 . S
C837 H840 0.961 . S
H838 C837 0.959 . S
H839 C837 0.960 . S
H840 C837 0.961 . S
O841 Co816 1.967 . S
O841 C849 1.258 . S
O842 Co817 1.941 . S
O842 C849 1.266 . S
H843 C845 0.959 . S
H844 C845 0.961 . S
C845 C835 1.510 . S
C845 H843 0.959 . S
C845 H844 0.961 . S
C845 H846 0.960 . S
H846 C845 0.960 . S
H847 N827 0.862 . S
O848 Co816 1.920 . S
O848 C821 1.289 . S
C849 O841 1.258 . S
C849 O842 1.266 . S
Co850 O853 1.970 . S
Co850 N867 1.989 . S
Co850 O875 1.967 . S
Co850 O882 1.920 . S
Co851 O854 1.966 . S
Co851 N860 2.022 . S
Co851 N868 1.993 . S
Co851 O876 1.941 . S
C852 O853 1.258 . S
C852 O854 1.263 . S
O853 Co850 1.970 . S
O853 C852 1.258 . S
O854 Co851 1.966 . S
O854 C852 1.263 . S
C855 O856 1.235 . S
C855 O882 1.289 . S
O856 C855 1.235 . S
C857 C859 1.400 . S
C857 N860 1.351 . S
C857 C862 1.501 . S
C858 C859 1.387 . S
C858 N861 1.341 . S
C859 C857 1.400 . S
C859 C858 1.387 . S
N860 Co851 2.022 . S
N860 C857 1.351 . S
N860 N861 1.365 . S
N861 C858 1.341 . S
N861 N860 1.365 . S
N861 H881 0.862 . S
C862 C857 1.501 . S
C862 H863 0.961 . S
C862 H864 0.961 . S
C862 H865 0.960 . S
H863 C862 0.961 . S
H864 C862 0.961 . S
H865 C862 0.960 . S
C866 N867 1.342 . S
C866 C870 1.401 . S
C866 C871 1.499 . S
N867 Co850 1.989 . S
N867 C866 1.342 . S
N867 N868 1.388 . S
N868 Co851 1.993 . S
N868 N867 1.388 . S
N868 C869 1.346 . S
C869 N868 1.346 . S
C869 C870 1.396 . S
C869 C879 1.510 . S
C870 C866 1.401 . S
C870 C869 1.396 . S
C871 C866 1.499 . S
C871 H872 0.959 . S
C871 H873 0.960 . S
C871 H874 0.961 . S
H872 C871 0.959 . S
H873 C871 0.960 . S
H874 C871 0.961 . S
O875 Co850 1.967 . S
O875 C883 1.258 . S
O876 Co851 1.941 . S
O876 C883 1.266 . S
H877 C879 0.959 . S
H878 C879 0.961 . S
C879 C869 1.510 . S
C879 H877 0.959 . S
C879 H878 0.961 . S
C879 H880 0.960 . S
H880 C879 0.960 . S
H881 N861 0.862 . S
O882 Co850 1.920 . S
O882 C855 1.289 . S
C883 O875 1.258 . S
C883 O876 1.266 . S
Co884 O887 1.970 . S
Co884 N901 1.989 . S
Co884 O909 1.967 . S
Co884 O916 1.920 . S
Co885 O888 1.966 . S
Co885 N894 2.022 . S
Co885 N902 1.993 . S
Co885 O910 1.941 . S
C886 O887 1.258 . S
C886 O888 1.263 . S
O887 Co884 1.970 . S
O887 C886 1.258 . S
O888 Co885 1.966 . S
O888 C886 1.263 . S
C889 O890 1.235 . S
C889 O916 1.289 . S
O890 C889 1.235 . S
C891 C893 1.400 . S
C891 N894 1.351 . S
C891 C896 1.501 . S
C892 C893 1.387 . S
C892 N895 1.341 . S
C893 C891 1.400 . S
C893 C892 1.387 . S
N894 Co885 2.022 . S
N894 C891 1.351 . S
N894 N895 1.365 . S
N895 C892 1.341 . S
N895 N894 1.365 . S
N895 H915 0.862 . S
C896 C891 1.501 . S
C896 H897 0.961 . S
C896 H898 0.961 . S
C896 H899 0.960 . S
H897 C896 0.961 . S
H898 C896 0.961 . S
H899 C896 0.960 . S
C900 N901 1.342 . S
C900 C904 1.401 . S
C900 C905 1.499 . S
N901 Co884 1.989 . S
N901 C900 1.342 . S
N901 N902 1.388 . S
N902 Co885 1.993 . S
N902 N901 1.388 . S
N902 C903 1.346 . S
C903 N902 1.346 . S
C903 C904 1.396 . S
C903 C913 1.510 . S
C904 C900 1.401 . S
C904 C903 1.396 . S
C905 C900 1.499 . S
C905 H906 0.959 . S
C905 H907 0.960 . S
C905 H908 0.961 . S
H906 C905 0.959 . S
H907 C905 0.960 . S
H908 C905 0.961 . S
O909 Co884 1.967 . S
O909 C917 1.258 . S
O910 Co885 1.941 . S
O910 C917 1.266 . S
H911 C913 0.959 . S
H912 C913 0.961 . S
C913 C903 1.510 . S
C913 H911 0.959 . S
C913 H912 0.961 . S
C913 H914 0.960 . S
H914 C913 0.960 . S
H915 N895 0.862 . S
O916 Co884 1.920 . S
O916 C889 1.289 . S
C917 O909 1.258 . S
C917 O910 1.266 . S
Co918 O921 1.970 . S
Co918 N935 1.989 . S
Co918 O943 1.967 . S
Co918 O950 1.920 . S
Co919 O922 1.966 . S
Co919 N928 2.022 . S
Co919 N936 1.993 . S
Co919 O944 1.941 . S
C920 O921 1.258 . S
C920 O922 1.263 . S
O921 Co918 1.970 . S
O921 C920 1.258 . S
O922 Co919 1.966 . S
O922 C920 1.263 . S
C923 O924 1.235 . S
C923 O950 1.289 . S
O924 C923 1.235 . S
C925 C927 1.400 . S
C925 N928 1.351 . S
C925 C930 1.501 . S
C926 C927 1.387 . S
C926 N929 1.341 . S
C927 C925 1.400 . S
C927 C926 1.387 . S
N928 Co919 2.022 . S
N928 C925 1.351 . S
N928 N929 1.365 . S
N929 C926 1.341 . S
N929 N928 1.365 . S
N929 H949 0.862 . S
C930 C925 1.501 . S
C930 H931 0.961 . S
C930 H932 0.961 . S
C930 H933 0.960 . S
H931 C930 0.961 . S
H932 C930 0.961 . S
H933 C930 0.960 . S
C934 N935 1.342 . S
C934 C938 1.401 . S
C934 C939 1.499 . S
N935 Co918 1.989 . S
N935 C934 1.342 . S
N935 N936 1.388 . S
N936 Co919 1.993 . S
N936 N935 1.388 . S
N936 C937 1.346 . S
C937 N936 1.346 . S
C937 C938 1.396 . S
C937 C947 1.510 . S
C938 C934 1.401 . S
C938 C937 1.396 . S
C939 C934 1.499 . S
C939 H940 0.959 . S
C939 H941 0.960 . S
C939 H942 0.961 . S
H940 C939 0.959 . S
H941 C939 0.960 . S
H942 C939 0.961 . S
O943 Co918 1.967 . S
O943 C951 1.258 . S
O944 Co919 1.941 . S
O944 C951 1.266 . S
H945 C947 0.959 . S
H946 C947 0.961 . S
C947 C937 1.510 . S
C947 H945 0.959 . S
C947 H946 0.961 . S
C947 H948 0.960 . S
H948 C947 0.960 . S
H949 N929 0.862 . S
O950 Co918 1.920 . S
O950 C923 1.289 . S
C951 O943 1.258 . S
C951 O944 1.266 . S
Co952 O955 1.970 . S
Co952 N969 1.989 . S
Co952 O977 1.967 . S
Co952 O984 1.920 . S
Co953 O956 1.966 . S
Co953 N962 2.022 . S
Co953 N970 1.993 . S
Co953 O978 1.941 . S
C954 O955 1.258 . S
C954 O956 1.263 . S
O955 Co952 1.970 . S
O955 C954 1.258 . S
O956 Co953 1.966 . S
O956 C954 1.263 . S
C957 O958 1.235 . S
C957 O984 1.289 . S
O958 C957 1.235 . S
C959 C961 1.400 . S
C959 N962 1.351 . S
C959 C964 1.501 . S
C960 C961 1.387 . S
C960 N963 1.341 . S
C961 C959 1.400 . S
C961 C960 1.387 . S
N962 Co953 2.022 . S
N962 C959 1.351 . S
N962 N963 1.365 . S
N963 C960 1.341 . S
N963 N962 1.365 . S
N963 H983 0.862 . S
C964 C959 1.501 . S
C964 H965 0.961 . S
C964 H966 0.961 . S
C964 H967 0.960 . S
H965 C964 0.961 . S
H966 C964 0.961 . S
H967 C964 0.960 . S
C968 N969 1.342 . S
C968 C972 1.401 . S
C968 C973 1.499 . S
N969 Co952 1.989 . S
N969 C968 1.342 . S
N969 N970 1.388 . S
N970 Co953 1.993 . S
N970 N969 1.388 . S
N970 C971 1.346 . S
C971 N970 1.346 . S
C971 C972 1.396 . S
C971 C981 1.510 . S
C972 C968 1.401 . S
C972 C971 1.396 . S
C973 C968 1.499 . S
C973 H974 0.959 . S
C973 H975 0.960 . S
C973 H976 0.961 . S
H974 C973 0.959 . S
H975 C973 0.960 . S
H976 C973 0.961 . S
O977 Co952 1.967 . S
O977 C985 1.258 . S
O978 Co953 1.941 . S
O978 C985 1.266 . S
H979 C981 0.959 . S
H980 C981 0.961 . S
C981 C971 1.510 . S
C981 H979 0.959 . S
C981 H980 0.961 . S
C981 H982 0.960 . S
H982 C981 0.960 . S
H983 N963 0.862 . S
O984 Co952 1.920 . S
O984 C957 1.289 . S
C985 O977 1.258 . S
C985 O978 1.266 . S
Co986 O989 1.970 . S
Co986 N1003 1.989 . S
Co986 O1011 1.967 . S
Co986 O1018 1.920 . S
Co987 O990 1.966 . S
Co987 N996 2.022 . S
Co987 N1004 1.993 . S
Co987 O1012 1.941 . S
C988 O989 1.258 . S
C988 O990 1.263 . S
O989 Co986 1.970 . S
O989 C988 1.258 . S
O990 Co987 1.966 . S
O990 C988 1.263 . S
C991 O992 1.235 . S
C991 O1018 1.289 . S
O992 C991 1.235 . S
C993 C995 1.400 . S
C993 N996 1.351 . S
C993 C998 1.501 . S
C994 C995 1.387 . S
C994 N997 1.341 . S
C995 C993 1.400 . S
C995 C994 1.387 . S
N996 Co987 2.022 . S
N996 C993 1.351 . S
N996 N997 1.365 . S
N997 C994 1.341 . S
N997 N996 1.365 . S
N997 H1017 0.862 . S
C998 C993 1.501 . S
C998 H999 0.961 . S
C998 H1000 0.961 . S
C998 H1001 0.960 . S
H999 C998 0.961 . S
H1000 C998 0.961 . S
H1001 C998 0.960 . S
C1002 N1003 1.342 . S
C1002 C1006 1.401 . S
C1002 C1007 1.499 . S
N1003 Co986 1.989 . S
N1003 C1002 1.342 . S
N1003 N1004 1.388 . S
N1004 Co987 1.993 . S
N1004 N1003 1.388 . S
N1004 C1005 1.346 . S
C1005 N1004 1.346 . S
C1005 C1006 1.396 . S
C1005 C1015 1.510 . S
C1006 C1002 1.401 . S
C1006 C1005 1.396 . S
C1007 C1002 1.499 . S
C1007 H1008 0.959 . S
C1007 H1009 0.960 . S
C1007 H1010 0.961 . S
H1008 C1007 0.959 . S
H1009 C1007 0.960 . S
H1010 C1007 0.961 . S
O1011 Co986 1.967 . S
O1011 C1019 1.258 . S
O1012 Co987 1.941 . S
O1012 C1019 1.266 . S
H1013 C1015 0.959 . S
H1014 C1015 0.961 . S
C1015 C1005 1.510 . S
C1015 H1013 0.959 . S
C1015 H1014 0.961 . S
C1015 H1016 0.960 . S
H1016 C1015 0.960 . S
H1017 N997 0.862 . S
O1018 Co986 1.920 . S
O1018 C991 1.289 . S
C1019 O1011 1.258 . S
C1019 O1012 1.266 . S
Co1020 O1023 1.970 . S
Co1020 N1037 1.989 . S
Co1020 O1045 1.967 . S
Co1020 O1052 1.920 . S
Co1021 O1024 1.966 . S
Co1021 N1030 2.022 . S
Co1021 N1038 1.993 . S
Co1021 O1046 1.941 . S
C1022 O1023 1.258 . S
C1022 O1024 1.263 . S
O1023 Co1020 1.970 . S
O1023 C1022 1.258 . S
O1024 Co1021 1.966 . S
O1024 C1022 1.263 . S
C1025 O1026 1.235 . S
C1025 O1052 1.289 . S
O1026 C1025 1.235 . S
C1027 C1029 1.400 . S
C1027 N1030 1.351 . S
C1027 C1032 1.501 . S
C1028 C1029 1.387 . S
C1028 N1031 1.341 . S
C1029 C1027 1.400 . S
C1029 C1028 1.387 . S
N1030 Co1021 2.022 . S
N1030 C1027 1.351 . S
N1030 N1031 1.365 . S
N1031 C1028 1.341 . S
N1031 N1030 1.365 . S
N1031 H1051 0.862 . S
C1032 C1027 1.501 . S
C1032 H1033 0.961 . S
C1032 H1034 0.961 . S
C1032 H1035 0.960 . S
H1033 C1032 0.961 . S
H1034 C1032 0.961 . S
H1035 C1032 0.960 . S
C1036 N1037 1.342 . S
C1036 C1040 1.401 . S
C1036 C1041 1.499 . S
N1037 Co1020 1.989 . S
N1037 C1036 1.342 . S
N1037 N1038 1.388 . S
N1038 Co1021 1.993 . S
N1038 N1037 1.388 . S
N1038 C1039 1.346 . S
C1039 N1038 1.346 . S
C1039 C1040 1.396 . S
C1039 C1049 1.510 . S
C1040 C1036 1.401 . S
C1040 C1039 1.396 . S
C1041 C1036 1.499 . S
C1041 H1042 0.959 . S
C1041 H1043 0.960 . S
C1041 H1044 0.961 . S
H1042 C1041 0.959 . S
H1043 C1041 0.960 . S
H1044 C1041 0.961 . S
O1045 Co1020 1.967 . S
O1045 C1053 1.258 . S
O1046 Co1021 1.941 . S
O1046 C1053 1.266 . S
H1047 C1049 0.959 . S
H1048 C1049 0.961 . S
C1049 C1039 1.510 . S
C1049 H1047 0.959 . S
C1049 H1048 0.961 . S
C1049 H1050 0.960 . S
H1050 C1049 0.960 . S
H1051 N1031 0.862 . S
O1052 Co1020 1.920 . S
O1052 C1025 1.289 . S
C1053 O1045 1.258 . S
C1053 O1046 1.266 . S
Co1054 O1057 1.970 . S
Co1054 N1071 1.989 . S
Co1054 O1079 1.967 . S
Co1054 O1086 1.920 . S
Co1055 O1058 1.966 . S
Co1055 N1064 2.022 . S
Co1055 N1072 1.993 . S
Co1055 O1080 1.941 . S
C1056 O1057 1.258 . S
C1056 O1058 1.263 . S
O1057 Co1054 1.970 . S
O1057 C1056 1.258 . S
O1058 Co1055 1.966 . S
O1058 C1056 1.263 . S
C1059 O1060 1.235 . S
C1059 O1086 1.289 . S
O1060 C1059 1.235 . S
C1061 C1063 1.400 . S
C1061 N1064 1.351 . S
C1061 C1066 1.501 . S
C1062 C1063 1.387 . S
C1062 N1065 1.341 . S
C1063 C1061 1.400 . S
C1063 C1062 1.387 . S
N1064 Co1055 2.022 . S
N1064 C1061 1.351 . S
N1064 N1065 1.365 . S
N1065 C1062 1.341 . S
N1065 N1064 1.365 . S
N1065 H1085 0.862 . S
C1066 C1061 1.501 . S
C1066 H1067 0.961 . S
C1066 H1068 0.961 . S
C1066 H1069 0.960 . S
H1067 C1066 0.961 . S
H1068 C1066 0.961 . S
H1069 C1066 0.960 . S
C1070 N1071 1.342 . S
C1070 C1074 1.401 . S
C1070 C1075 1.499 . S
N1071 Co1054 1.989 . S
N1071 C1070 1.342 . S
N1071 N1072 1.388 . S
N1072 Co1055 1.993 . S
N1072 N1071 1.388 . S
N1072 C1073 1.346 . S
C1073 N1072 1.346 . S
C1073 C1074 1.396 . S
C1073 C1083 1.510 . S
C1074 C1070 1.401 . S
C1074 C1073 1.396 . S
C1075 C1070 1.499 . S
C1075 H1076 0.959 . S
C1075 H1077 0.960 . S
C1075 H1078 0.961 . S
H1076 C1075 0.959 . S
H1077 C1075 0.960 . S
H1078 C1075 0.961 . S
O1079 Co1054 1.967 . S
O1079 C1087 1.258 . S
O1080 Co1055 1.941 . S
O1080 C1087 1.266 . S
H1081 C1083 0.959 . S
H1082 C1083 0.961 . S
C1083 C1073 1.510 . S
C1083 H1081 0.959 . S
C1083 H1082 0.961 . S
C1083 H1084 0.960 . S
H1084 C1083 0.960 . S
H1085 N1065 0.862 . S
O1086 Co1054 1.920 . S
O1086 C1059 1.289 . S
C1087 O1079 1.258 . S
C1087 O1080 1.266 . S
H1088 C1096 0.929 . S
H1089 C1098 0.930 . S
H1090 C1100 0.930 . S
H1091 C1103 0.929 . S
H1092 C1106 0.930 . S
H1093 C1108 0.960 . S
H1094 C1108 0.960 . S
H1095 C1108 0.960 . S
C1096 H1088 0.929 . S
C1096 C1097 1.377 . S
C1096 C1098 1.384 1_556 S
C1097 C1096 1.377 . S
C1097 C1103 1.390 . S
C1098 H1089 0.930 . S
C1098 C1096 1.384 1_554 S
C1098 C1099 1.372 . S
C1099 C1098 1.372 . S
C1099 C1100 1.400 . S
C1099 C1104 1.490 . S
C1100 H1090 0.930 . S
C1100 C1099 1.400 . S
C1100 C1103 1.386 1_554 S
H1101 C1117 0.930 . S
H1102 C1118 0.931 . S
C1103 H1091 0.929 . S
C1103 C1097 1.390 . S
C1103 C1100 1.386 1_556 S
C1104 C1099 1.490 . S
C1104 C1106 1.395 . S
C1104 C1107 1.403 . S
H1105 C1111 0.930 . S
C1106 H1092 0.930 . S
C1106 C1104 1.395 . S
C1106 C1109 1.403 . S
C1107 C1104 1.403 . S
C1107 C1108 1.524 . S
C1107 C1111 1.400 . S
C1108 H1093 0.960 . S
C1108 H1094 0.960 . S
C1108 H1095 0.960 . S
C1108 C1107 1.524 . S
C1109 C1106 1.403 . S
C1109 C1110 1.392 . S
C1109 C1113 1.495 . S
C1110 C1109 1.392 . S
C1110 C1111 1.385 . S
C1110 C1112 1.478 . S
C1111 H1105 0.930 . S
C1111 C1107 1.400 . S
C1111 C1110 1.385 . S
C1112 C1110 1.478 . S
C1112 C1114 1.381 . S
C1112 C1118 1.383 . S
C1113 C1109 1.495 . S
C1113 H1119 0.959 . S
C1113 H1120 0.961 . S
C1113 H1121 0.960 . S
C1114 C1112 1.381 . S
C1114 C1115 1.394 . S
C1114 H1122 0.930 . S
C1115 C1114 1.394 . S
C1115 C1116 1.383 . S
C1115 H1123 0.929 . S
C1116 C1115 1.383 . S
C1116 C1117 1.377 . S
C1117 H1101 0.930 . S
C1117 C1116 1.377 . S
C1117 C1118 1.379 . S
C1118 H1102 0.931 . S
C1118 C1112 1.383 . S
C1118 C1117 1.379 . S
H1119 C1113 0.959 . S
H1120 C1113 0.961 . S
H1121 C1113 0.960 . S
H1122 C1114 0.930 . S
H1123 C1115 0.929 . S
H1124 C1132 0.929 . S
H1125 C1134 0.930 . S
H1126 C1136 0.930 . S
H1127 C1139 0.929 . S
H1128 C1142 0.930 . S
H1129 C1144 0.960 . S
H1130 C1144 0.960 . S
H1131 C1144 0.960 . S
C1132 H1124 0.929 . S
C1132 C1133 1.377 . S
C1132 C1134 1.384 . S
C1133 C1132 1.377 . S
C1133 C1139 1.390 . S
C1134 H1125 0.930 . S
C1134 C1132 1.384 . S
C1134 C1135 1.372 . S
C1135 C1134 1.372 . S
C1135 C1136 1.400 . S
C1135 C1140 1.490 . S
C1136 H1126 0.930 . S
C1136 C1135 1.400 . S
C1136 C1139 1.386 . S
H1137 C1153 0.930 . S
H1138 C1154 0.931 . S
C1139 H1127 0.929 . S
C1139 C1133 1.390 . S
C1139 C1136 1.386 . S
C1140 C1135 1.490 . S
C1140 C1142 1.395 . S
C1140 C1143 1.403 . S
H1141 C1147 0.930 . S
C1142 H1128 0.930 . S
C1142 C1140 1.395 . S
C1142 C1145 1.403 . S
C1143 C1140 1.403 . S
C1143 C1144 1.524 . S
C1143 C1147 1.400 . S
C1144 H1129 0.960 . S
C1144 H1130 0.960 . S
C1144 H1131 0.960 . S
C1144 C1143 1.524 . S
C1145 C1142 1.403 . S
C1145 C1146 1.392 . S
C1145 C1149 1.495 . S
C1146 C1145 1.392 . S
C1146 C1147 1.385 . S
C1146 C1148 1.478 . S
C1147 H1141 0.930 . S
C1147 C1143 1.400 . S
C1147 C1146 1.385 . S
C1148 C1146 1.478 . S
C1148 C1150 1.381 . S
C1148 C1154 1.383 . S
C1149 C1145 1.495 . S
C1149 H1155 0.959 . S
C1149 H1156 0.961 . S
C1149 H1157 0.960 . S
C1150 C1148 1.381 . S
C1150 C1151 1.394 . S
C1150 H1158 0.930 . S
C1151 C1150 1.394 . S
C1151 C1152 1.383 . S
C1151 H1159 0.929 . S
C1152 C1151 1.383 . S
C1152 C1153 1.377 . S
C1153 H1137 0.930 . S
C1153 C1152 1.377 . S
C1153 C1154 1.379 . S
C1154 H1138 0.931 . S
C1154 C1148 1.383 . S
C1154 C1153 1.379 . S
H1155 C1149 0.959 . S
H1156 C1149 0.961 . S
H1157 C1149 0.960 . S
H1158 C1150 0.930 . S
H1159 C1151 0.929 . S
H1160 C1168 0.929 . S
H1161 C1170 0.930 . S
H1162 C1172 0.930 . S
H1163 C1175 0.929 . S
H1164 C1178 0.930 . S
H1165 C1180 0.960 . S
H1166 C1180 0.960 . S
H1167 C1180 0.960 . S
C1168 H1160 0.929 . S
C1168 C1169 1.377 . S
C1168 C1170 1.384 . S
C1169 C1168 1.377 . S
C1169 C1175 1.390 . S
C1170 H1161 0.930 . S
C1170 C1168 1.384 . S
C1170 C1171 1.372 . S
C1171 C1170 1.372 . S
C1171 C1172 1.400 . S
C1171 C1176 1.490 . S
C1172 H1162 0.930 . S
C1172 C1171 1.400 . S
C1172 C1175 1.386 . S
H1173 C1189 0.930 . S
H1174 C1190 0.931 . S
C1175 H1163 0.929 . S
C1175 C1169 1.390 . S
C1175 C1172 1.386 . S
C1176 C1171 1.490 . S
C1176 C1178 1.395 . S
C1176 C1179 1.403 . S
H1177 C1183 0.930 . S
C1178 H1164 0.930 . S
C1178 C1176 1.395 . S
C1178 C1181 1.403 . S
C1179 C1176 1.403 . S
C1179 C1180 1.524 . S
C1179 C1183 1.400 . S
C1180 H1165 0.960 . S
C1180 H1166 0.960 . S
C1180 H1167 0.960 . S
C1180 C1179 1.524 . S
C1181 C1178 1.403 . S
C1181 C1182 1.392 . S
C1181 C1185 1.495 . S
C1182 C1181 1.392 . S
C1182 C1183 1.385 . S
C1182 C1184 1.478 . S
C1183 H1177 0.930 . S
C1183 C1179 1.400 . S
C1183 C1182 1.385 . S
C1184 C1182 1.478 . S
C1184 C1186 1.381 . S
C1184 C1190 1.383 . S
C1185 C1181 1.495 . S
C1185 H1191 0.959 . S
C1185 H1192 0.961 . S
C1185 H1193 0.960 . S
C1186 C1184 1.381 . S
C1186 C1187 1.394 . S
C1186 H1194 0.930 . S
C1187 C1186 1.394 . S
C1187 C1188 1.383 . S
C1187 H1195 0.929 . S
C1188 C1187 1.383 . S
C1188 C1189 1.377 . S
C1189 H1173 0.930 . S
C1189 C1188 1.377 . S
C1189 C1190 1.379 . S
C1190 H1174 0.931 . S
C1190 C1184 1.383 . S
C1190 C1189 1.379 . S
H1191 C1185 0.959 . S
H1192 C1185 0.961 . S
H1193 C1185 0.960 . S
H1194 C1186 0.930 . S
H1195 C1187 0.929 . S
H1196 C1204 0.929 . S
H1197 C1206 0.930 . S
H1198 C1208 0.930 . S
H1199 C1211 0.929 . S
H1200 C1214 0.930 . S
H1201 C1216 0.960 . S
H1202 C1216 0.960 . S
H1203 C1216 0.960 . S
C1204 H1196 0.929 . S
C1204 C1205 1.377 . S
C1204 C1206 1.384 . S
C1205 C1204 1.377 . S
C1205 C1211 1.390 . S
C1206 H1197 0.930 . S
C1206 C1204 1.384 . S
C1206 C1207 1.372 . S
C1207 C1206 1.372 . S
C1207 C1208 1.400 . S
C1207 C1212 1.490 . S
C1208 H1198 0.930 . S
C1208 C1207 1.400 . S
C1208 C1211 1.386 . S
H1209 C1225 0.922 1_554 S
H1210 C1226 0.931 . S
C1211 H1199 0.929 . S
C1211 C1205 1.390 . S
C1211 C1208 1.386 . S
C1212 C1207 1.490 . S
C1212 C1214 1.395 . S
C1212 C1215 1.403 . S
H1213 C1219 0.930 . S
C1214 H1200 0.930 . S
C1214 C1212 1.395 . S
C1214 C1217 1.403 . S
C1215 C1212 1.403 . S
C1215 C1216 1.524 . S
C1215 C1219 1.400 . S
C1216 H1201 0.960 . S
C1216 H1202 0.960 . S
C1216 H1203 0.960 . S
C1216 C1215 1.524 . S
C1217 C1214 1.403 . S
C1217 C1218 1.392 . S
C1217 C1221 1.495 . S
C1218 C1217 1.392 . S
C1218 C1219 1.385 . S
C1218 C1220 1.478 . S
C1219 H1213 0.930 . S
C1219 C1215 1.400 . S
C1219 C1218 1.385 . S
C1220 C1218 1.478 . S
C1220 C1222 1.381 . S
C1220 C1226 1.383 . S
C1221 C1217 1.495 . S
C1221 H1227 0.959 . S
C1221 H1228 0.961 . S
C1221 H1229 0.960 . S
C1222 C1220 1.381 . S
C1222 C1223 1.394 1_556 S
C1222 H1230 0.930 . S
C1223 C1222 1.394 1_554 S
C1223 C1224 1.383 . S
C1223 H1231 0.929 . S
C1224 C1223 1.383 . S
C1224 C1225 1.357 1_554 S
C1225 H1209 0.922 1_556 S
C1225 C1224 1.357 1_556 S
C1225 C1226 1.408 . S
C1226 H1210 0.931 . S
C1226 C1220 1.383 . S
C1226 C1225 1.408 . S
H1227 C1221 0.959 . S
H1228 C1221 0.961 . S
H1229 C1221 0.960 . S
H1230 C1222 0.930 . S
H1231 C1223 0.929 . S
H1232 C1240 0.929 . S
H1233 C1242 0.930 . S
H1234 C1244 0.930 . S
H1235 C1247 0.929 . S
H1236 C1250 0.930 . S
H1237 C1252 0.960 . S
H1238 C1252 0.960 . S
H1239 C1252 0.960 . S
C1240 H1232 0.929 . S
C1240 C1241 1.377 . S
C1240 C1242 1.384 . S
C1241 C1240 1.377 . S
C1241 C1247 1.390 . S
C1242 H1233 0.930 . S
C1242 C1240 1.384 . S
C1242 C1243 1.372 . S
C1243 C1242 1.372 . S
C1243 C1244 1.400 . S
C1243 C1248 1.490 . S
C1244 H1234 0.930 . S
C1244 C1243 1.400 . S
C1244 C1247 1.386 . S
H1245 C1261 0.930 . S
H1246 C1262 0.931 . S
C1247 H1235 0.929 . S
C1247 C1241 1.390 . S
C1247 C1244 1.386 . S
C1248 C1243 1.490 . S
C1248 C1250 1.395 . S
C1248 C1251 1.403 . S
H1249 C1255 0.930 . S
C1250 H1236 0.930 . S
C1250 C1248 1.395 . S
C1250 C1253 1.403 . S
C1251 C1248 1.403 . S
C1251 C1252 1.524 . S
C1251 C1255 1.400 . S
C1252 H1237 0.960 . S
C1252 H1238 0.960 . S
C1252 H1239 0.960 . S
C1252 C1251 1.524 . S
C1253 C1250 1.403 . S
C1253 C1254 1.392 . S
C1253 C1257 1.495 . S
C1254 C1253 1.392 . S
C1254 C1255 1.385 . S
C1254 C1256 1.478 . S
C1255 H1249 0.930 . S
C1255 C1251 1.400 . S
C1255 C1254 1.385 . S
C1256 C1254 1.478 . S
C1256 C1258 1.381 . S
C1256 C1262 1.383 . S
C1257 C1253 1.495 . S
C1257 H1263 0.959 . S
C1257 H1264 0.961 . S
C1257 H1265 0.960 . S
C1258 C1256 1.381 . S
C1258 C1259 1.394 1_556 S
C1258 H1266 0.930 . S
C1259 C1258 1.394 1_554 S
C1259 C1260 1.383 . S
C1259 H1267 0.929 . S
C1260 C1259 1.383 . S
C1260 C1261 1.377 . S
C1261 H1245 0.930 . S
C1261 C1260 1.377 . S
C1261 C1262 1.379 1_554 S
C1262 H1246 0.931 . S
C1262 C1256 1.383 . S
C1262 C1261 1.379 1_556 S
H1263 C1257 0.959 . S
H1264 C1257 0.961 . S
H1265 C1257 0.960 . S
H1266 C1258 0.930 . S
H1267 C1259 0.929 . S
H1268 C1276 0.929 . S
H1269 C1278 0.930 . S
H1270 C1280 0.930 . S
H1271 C1283 0.929 . S
H1272 C1286 0.930 . S
H1273 C1288 0.960 . S
H1274 C1288 0.960 . S
H1275 C1288 0.960 . S
C1276 H1268 0.929 . S
C1276 C1277 1.377 . S
C1276 C1278 1.384 . S
C1277 C1276 1.377 . S
C1277 C1283 1.390 . S
C1278 H1269 0.930 . S
C1278 C1276 1.384 . S
C1278 C1279 1.372 . S
C1279 C1278 1.372 . S
C1279 C1280 1.400 . S
C1279 C1284 1.490 . S
C1280 H1270 0.930 . S
C1280 C1279 1.400 . S
C1280 C1283 1.386 . S
H1281 C1297 0.930 . S
H1282 C1298 0.931 . S
C1283 H1271 0.929 . S
C1283 C1277 1.390 . S
C1283 C1280 1.386 . S
C1284 C1279 1.490 . S
C1284 C1286 1.395 . S
C1284 C1287 1.403 . S
H1285 C1291 0.930 . S
C1286 H1272 0.930 . S
C1286 C1284 1.395 . S
C1286 C1289 1.403 . S
C1287 C1284 1.403 . S
C1287 C1288 1.524 . S
C1287 C1291 1.400 . S
C1288 H1273 0.960 . S
C1288 H1274 0.960 . S
C1288 H1275 0.960 . S
C1288 C1287 1.524 . S
C1289 C1286 1.403 . S
C1289 C1290 1.392 . S
C1289 C1293 1.495 . S
C1290 C1289 1.392 . S
C1290 C1291 1.385 . S
C1290 C1292 1.478 . S
C1291 H1285 0.930 . S
C1291 C1287 1.400 . S
C1291 C1290 1.385 . S
C1292 C1290 1.478 . S
C1292 C1294 1.381 . S
C1292 C1298 1.383 . S
C1293 C1289 1.495 . S
C1293 H1299 0.959 . S
C1293 H1300 0.961 . S
C1293 H1301 0.960 . S
C1294 C1292 1.381 . S
C1294 C1295 1.394 . S
C1294 H1302 0.930 . S
C1295 C1294 1.394 . S
C1295 C1296 1.383 . S
C1295 H1303 0.929 . S
C1296 C1295 1.383 . S
C1296 C1297 1.377 . S
C1297 H1281 0.930 . S
C1297 C1296 1.377 . S
C1297 C1298 1.379 . S
C1298 H1282 0.931 . S
C1298 C1292 1.383 . S
C1298 C1297 1.379 . S
H1299 C1293 0.959 . S
H1300 C1293 0.961 . S
H1301 C1293 0.960 . S
H1302 C1294 0.930 . S
H1303 C1295 0.929 . S
H1304 C1312 0.929 . S
H1305 C1314 0.930 . S
H1306 C1316 0.930 . S
H1307 C1319 0.929 . S
H1308 C1322 0.930 . S
H1309 C1324 0.960 . S
H1310 C1324 0.960 . S
H1311 C1324 0.960 . S
C1312 H1304 0.929 . S
C1312 C1313 1.377 . S
C1312 C1314 1.384 . S
C1313 C1312 1.377 . S
C1313 C1319 1.390 . S
C1314 H1305 0.930 . S
C1314 C1312 1.384 . S
C1314 C1315 1.372 . S
C1315 C1314 1.372 . S
C1315 C1316 1.400 . S
C1315 C1320 1.490 . S
C1316 H1306 0.930 . S
C1316 C1315 1.400 . S
C1316 C1319 1.386 . S
H1317 C1333 0.930 . S
H1318 C1334 0.931 . S
C1319 H1307 0.929 . S
C1319 C1313 1.390 . S
C1319 C1316 1.386 . S
C1320 C1315 1.490 . S
C1320 C1322 1.395 . S
C1320 C1323 1.403 . S
H1321 C1327 0.930 . S
C1322 H1308 0.930 . S
C1322 C1320 1.395 . S
C1322 C1325 1.403 . S
C1323 C1320 1.403 . S
C1323 C1324 1.524 . S
C1323 C1327 1.400 . S
C1324 H1309 0.960 . S
C1324 H1310 0.960 . S
C1324 H1311 0.960 . S
C1324 C1323 1.524 . S
C1325 C1322 1.403 . S
C1325 C1326 1.392 . S
C1325 C1329 1.495 . S
C1326 C1325 1.392 . S
C1326 C1327 1.385 . S
C1326 C1328 1.478 . S
C1327 H1321 0.930 . S
C1327 C1323 1.400 . S
C1327 C1326 1.385 . S
C1328 C1326 1.478 . S
C1328 C1330 1.381 . S
C1328 C1334 1.383 . S
C1329 C1325 1.495 . S
C1329 H1335 0.959 . S
C1329 H1336 0.961 . S
C1329 H1337 0.960 . S
C1330 C1328 1.381 . S
C1330 C1331 1.394 . S
C1330 H1338 0.930 . S
C1331 C1330 1.394 . S
C1331 C1332 1.383 . S
C1331 H1339 0.929 . S
C1332 C1331 1.383 . S
C1332 C1333 1.377 . S
C1333 H1317 0.930 . S
C1333 C1332 1.377 . S
C1333 C1334 1.379 . S
C1334 H1318 0.931 . S
C1334 C1328 1.383 . S
C1334 C1333 1.379 . S
H1335 C1329 0.959 . S
H1336 C1329 0.961 . S
H1337 C1329 0.960 . S
H1338 C1330 0.930 . S
H1339 C1331 0.929 . S
H1340 C1348 0.929 . S
H1341 C1350 0.930 . S
H1342 C1352 0.930 . S
H1343 C1355 0.929 . S
H1344 C1358 0.930 . S
H1345 C1360 0.960 . S
H1346 C1360 0.960 . S
H1347 C1360 0.960 . S
C1348 H1340 0.929 . S
C1348 C1349 1.377 . S
C1348 C1350 1.384 . S
C1349 C1348 1.377 . S
C1349 C1355 1.390 . S
C1350 H1341 0.930 . S
C1350 C1348 1.384 . S
C1350 C1351 1.372 . S
C1351 C1350 1.372 . S
C1351 C1352 1.400 . S
C1351 C1356 1.490 . S
C1352 H1342 0.930 . S
C1352 C1351 1.400 . S
C1352 C1355 1.386 . S
H1353 C1369 0.922 1_556 S
H1354 C1370 0.931 . S
C1355 H1343 0.929 . S
C1355 C1349 1.390 . S
C1355 C1352 1.386 . S
C1356 C1351 1.490 . S
C1356 C1358 1.395 . S
C1356 C1359 1.403 . S
H1357 C1363 0.930 . S
C1358 H1344 0.930 . S
C1358 C1356 1.395 . S
C1358 C1361 1.403 . S
C1359 C1356 1.403 . S
C1359 C1360 1.524 . S
C1359 C1363 1.400 . S
C1360 H1345 0.960 . S
C1360 H1346 0.960 . S
C1360 H1347 0.960 . S
C1360 C1359 1.524 . S
C1361 C1358 1.403 . S
C1361 C1362 1.392 . S
C1361 C1365 1.495 . S
C1362 C1361 1.392 . S
C1362 C1363 1.385 . S
C1362 C1364 1.478 . S
C1363 H1357 0.930 . S
C1363 C1359 1.400 . S
C1363 C1362 1.385 . S
C1364 C1362 1.478 . S
C1364 C1366 1.381 . S
C1364 C1370 1.383 . S
C1365 C1361 1.495 . S
C1365 H1371 0.959 . S
C1365 H1372 0.961 . S
C1365 H1373 0.960 . S
C1366 C1364 1.381 . S
C1366 C1367 1.394 1_554 S
C1366 H1374 0.930 . S
C1367 C1366 1.394 1_556 S
C1367 C1368 1.383 . S
C1367 H1375 0.929 . S
C1368 C1367 1.383 . S
C1368 C1369 1.358 1_556 S
C1369 H1353 0.922 1_554 S
C1369 C1368 1.358 1_554 S
C1369 C1370 1.406 . S
C1370 H1354 0.931 . S
C1370 C1364 1.383 . S
C1370 C1369 1.406 . S
H1371 C1365 0.959 . S
H1372 C1365 0.961 . S
H1373 C1365 0.960 . S
H1374 C1366 0.930 . S
H1375 C1367 0.929 . S
H1376 C1384 0.929 . S
H1377 C1386 0.930 . S
H1378 C1388 0.930 . S
H1379 C1391 0.929 . S
H1380 C1394 0.930 . S
H1381 C1396 0.960 . S
H1382 C1396 0.960 . S
H1383 C1396 0.960 . S
C1384 H1376 0.929 . S
C1384 C1385 1.377 . S
C1384 C1386 1.384 . S
C1385 C1384 1.377 . S
C1385 C1391 1.390 . S
C1386 H1377 0.930 . S
C1386 C1384 1.384 . S
C1386 C1387 1.372 . S
C1387 C1386 1.372 . S
C1387 C1388 1.400 . S
C1387 C1392 1.490 . S
C1388 H1378 0.930 . S
C1388 C1387 1.400 . S
C1388 C1391 1.386 . S
H1389 C1405 0.930 . S
H1390 C1406 0.931 . S
C1391 H1379 0.929 . S
C1391 C1385 1.390 . S
C1391 C1388 1.386 . S
C1392 C1387 1.490 . S
C1392 C1394 1.395 . S
C1392 C1395 1.403 . S
H1393 C1399 0.930 . S
C1394 H1380 0.930 . S
C1394 C1392 1.395 . S
C1394 C1397 1.403 . S
C1395 C1392 1.403 . S
C1395 C1396 1.524 . S
C1395 C1399 1.400 . S
C1396 H1381 0.960 . S
C1396 H1382 0.960 . S
C1396 H1383 0.960 . S
C1396 C1395 1.524 . S
C1397 C1394 1.403 . S
C1397 C1398 1.392 . S
C1397 C1401 1.495 . S
C1398 C1397 1.392 . S
C1398 C1399 1.385 . S
C1398 C1400 1.478 . S
C1399 H1393 0.930 . S
C1399 C1395 1.400 . S
C1399 C1398 1.385 . S
C1400 C1398 1.478 . S
C1400 C1402 1.381 . S
C1400 C1406 1.383 . S
C1401 C1397 1.495 . S
C1401 H1407 0.959 . S
C1401 H1408 0.961 . S
C1401 H1409 0.960 . S
C1402 C1400 1.381 . S
C1402 C1403 1.394 . S
C1402 H1410 0.930 . S
C1403 C1402 1.394 . S
C1403 C1404 1.383 . S
C1403 H1411 0.929 . S
C1404 C1403 1.383 . S
C1404 C1405 1.377 . S
C1405 H1389 0.930 . S
C1405 C1404 1.377 . S
C1405 C1406 1.379 . S
C1406 H1390 0.931 . S
C1406 C1400 1.383 . S
C1406 C1405 1.379 . S
H1407 C1401 0.959 . S
H1408 C1401 0.961 . S
H1409 C1401 0.960 . S
H1410 C1402 0.930 . S
H1411 C1403 0.929 . S
H1412 C1420 0.929 . S
H1413 C1422 0.930 . S
H1414 C1424 0.930 . S
H1415 C1427 0.929 . S
H1416 C1430 0.930 . S
H1417 C1432 0.960 . S
H1418 C1432 0.960 . S
H1419 C1432 0.960 . S
C1420 H1412 0.929 . S
C1420 C1421 1.377 . S
C1420 C1422 1.384 . S
C1421 C1420 1.377 . S
C1421 C1427 1.390 . S
C1422 H1413 0.930 . S
C1422 C1420 1.384 . S
C1422 C1423 1.372 . S
C1423 C1422 1.372 . S
C1423 C1424 1.400 . S
C1423 C1428 1.490 . S
C1424 H1414 0.930 . S
C1424 C1423 1.400 . S
C1424 C1427 1.386 . S
H1425 C1441 0.932 . S
H1426 C1442 0.931 . S
C1427 H1415 0.929 . S
C1427 C1421 1.390 . S
C1427 C1424 1.386 . S
C1428 C1423 1.490 . S
C1428 C1430 1.395 . S
C1428 C1431 1.403 . S
H1429 C1435 0.930 . S
C1430 H1416 0.930 . S
C1430 C1428 1.395 . S
C1430 C1433 1.403 . S
C1431 C1428 1.403 . S
C1431 C1432 1.524 . S
C1431 C1435 1.400 . S
C1432 H1417 0.960 . S
C1432 H1418 0.960 . S
C1432 H1419 0.960 . S
C1432 C1431 1.524 . S
C1433 C1430 1.403 . S
C1433 C1434 1.392 . S
C1433 C1437 1.495 . S
C1434 C1433 1.392 . S
C1434 C1435 1.385 . S
C1434 C1436 1.478 . S
C1435 H1429 0.930 . S
C1435 C1431 1.400 . S
C1435 C1434 1.385 . S
C1436 C1434 1.478 . S
C1436 C1438 1.381 . S
C1436 C1442 1.383 . S
C1437 C1433 1.495 . S
C1437 H1443 0.959 . S
C1437 H1444 0.961 . S
C1437 H1445 0.960 . S
C1438 C1436 1.381 . S
C1438 C1439 1.394 1_556 S
C1438 H1446 0.930 . S
C1439 C1438 1.394 1_554 S
C1439 C1440 1.383 . S
C1439 H1447 0.929 . S
C1440 C1439 1.383 . S
C1440 C1441 1.381 . S
C1441 H1425 0.932 . S
C1441 C1440 1.381 . S
C1441 C1442 1.373 1_554 S
C1442 H1426 0.931 . S
C1442 C1436 1.383 . S
C1442 C1441 1.373 1_556 S
H1443 C1437 0.959 . S
H1444 C1437 0.961 . S
H1445 C1437 0.960 . S
H1446 C1438 0.930 . S
H1447 C1439 0.929 . S
H1448 C1456 0.931 1_556 S
H1449 C1458 0.930 . S
H1450 C1460 0.930 . S
H1451 C1463 0.929 . S
H1452 C1466 0.930 . S
H1453 C1468 0.960 . S
H1454 C1468 0.960 . S
H1455 C1468 0.960 . S
C1456 H1448 0.931 1_554 S
C1456 C1457 1.380 1_554 S
C1456 C1458 1.380 . S
C1457 C1456 1.380 1_556 S
C1457 C1463 1.390 . S
C1458 H1449 0.930 . S
C1458 C1456 1.380 . S
C1458 C1459 1.372 . S
C1459 C1458 1.372 . S
C1459 C1460 1.400 . S
C1459 C1464 1.490 . S
C1460 H1450 0.930 . S
C1460 C1459 1.400 . S
C1460 C1463 1.386 1_554 S
H1461 C1477 0.930 . S
H1462 C1478 0.931 . S
C1463 H1451 0.929 . S
C1463 C1457 1.390 . S
C1463 C1460 1.386 1_556 S
C1464 C1459 1.490 . S
C1464 C1466 1.395 . S
C1464 C1467 1.403 . S
H1465 C1471 0.930 . S
C1466 H1452 0.930 . S
C1466 C1464 1.395 . S
C1466 C1469 1.403 . S
C1467 C1464 1.403 . S
C1467 C1468 1.524 . S
C1467 C1471 1.400 . S
C1468 H1453 0.960 . S
C1468 H1454 0.960 . S
C1468 H1455 0.960 . S
C1468 C1467 1.524 . S
C1469 C1466 1.403 . S
C1469 C1470 1.392 . S
C1469 C1473 1.495 . S
C1470 C1469 1.392 . S
C1470 C1471 1.385 . S
C1470 C1472 1.478 . S
C1471 H1465 0.930 . S
C1471 C1467 1.400 . S
C1471 C1470 1.385 . S
C1472 C1470 1.478 . S
C1472 C1474 1.381 . S
C1472 C1478 1.383 . S
C1473 C1469 1.495 . S
C1473 H1479 0.959 . S
C1473 H1480 0.961 . S
C1473 H1481 0.960 . S
C1474 C1472 1.381 . S
C1474 C1475 1.394 . S
C1474 H1482 0.930 . S
C1475 C1474 1.394 . S
C1475 C1476 1.383 . S
C1475 H1483 0.929 . S
C1476 C1475 1.383 . S
C1476 C1477 1.377 . S
C1477 H1461 0.930 . S
C1477 C1476 1.377 . S
C1477 C1478 1.379 . S
C1478 H1462 0.931 . S
C1478 C1472 1.383 . S
C1478 C1477 1.379 . S
H1479 C1473 0.959 . S
H1480 C1473 0.961 . S
H1481 C1473 0.960 . S
H1482 C1474 0.930 . S
H1483 C1475 0.929 . S
H1484 C1492 0.929 . S
H1485 C1494 0.930 . S
H1486 C1496 0.930 . S
H1487 C1499 0.929 . S
H1488 C1502 0.930 . S
H1489 C1504 0.960 . S
H1490 C1504 0.960 . S
H1491 C1504 0.960 . S
C1492 H1484 0.929 . S
C1492 C1493 1.377 . S
C1492 C1494 1.384 . S
C1493 C1492 1.377 . S
C1493 C1499 1.390 . S
C1494 H1485 0.930 . S
C1494 C1492 1.384 . S
C1494 C1495 1.372 . S
C1495 C1494 1.372 . S
C1495 C1496 1.400 . S
C1495 C1500 1.490 . S
C1496 H1486 0.930 . S
C1496 C1495 1.400 . S
C1496 C1499 1.386 . S
H1497 C1513 0.930 . S
H1498 C1514 0.931 . S
C1499 H1487 0.929 . S
C1499 C1493 1.390 . S
C1499 C1496 1.386 . S
C1500 C1495 1.490 . S
C1500 C1502 1.395 . S
C1500 C1503 1.403 . S
H1501 C1507 0.930 . S
C1502 H1488 0.930 . S
C1502 C1500 1.395 . S
C1502 C1505 1.403 . S
C1503 C1500 1.403 . S
C1503 C1504 1.524 . S
C1503 C1507 1.400 . S
C1504 H1489 0.960 . S
C1504 H1490 0.960 . S
C1504 H1491 0.960 . S
C1504 C1503 1.524 . S
C1505 C1502 1.403 . S
C1505 C1506 1.392 . S
C1505 C1509 1.495 . S
C1506 C1505 1.392 . S
C1506 C1507 1.385 . S
C1506 C1508 1.478 . S
C1507 H1501 0.930 . S
C1507 C1503 1.400 . S
C1507 C1506 1.385 . S
C1508 C1506 1.478 . S
C1508 C1510 1.381 . S
C1508 C1514 1.383 . S
C1509 C1505 1.495 . S
C1509 H1515 0.959 . S
C1509 H1516 0.961 . S
C1509 H1517 0.960 . S
C1510 C1508 1.381 . S
C1510 C1511 1.394 . S
C1510 H1518 0.930 . S
C1511 C1510 1.394 . S
C1511 C1512 1.383 . S
C1511 H1519 0.929 . S
C1512 C1511 1.383 . S
C1512 C1513 1.377 . S
C1513 H1497 0.930 . S
C1513 C1512 1.377 . S
C1513 C1514 1.379 . S
C1514 H1498 0.931 . S
C1514 C1508 1.383 . S
C1514 C1513 1.379 . S
H1515 C1509 0.959 . S
H1516 C1509 0.961 . S
H1517 C1509 0.960 . S
H1518 C1510 0.930 . S
H1519 C1511 0.929 . S
H1520 C1528 0.929 . S
H1521 C1530 0.930 . S
H1522 C1532 0.930 . S
H1523 C1535 0.929 . S
H1524 C1538 0.930 . S
H1525 C1540 0.960 . S
H1526 C1540 0.960 . S
H1527 C1540 0.960 . S
C1528 H1520 0.929 . S
C1528 C1529 1.377 . S
C1528 C1530 1.384 . S
C1529 C1528 1.377 . S
C1529 C1535 1.390 . S
C1530 H1521 0.930 . S
C1530 C1528 1.384 . S
C1530 C1531 1.372 . S
C1531 C1530 1.372 . S
C1531 C1532 1.400 . S
C1531 C1536 1.490 . S
C1532 H1522 0.930 . S
C1532 C1531 1.400 . S
C1532 C1535 1.386 . S
H1533 C1549 0.930 . S
H1534 C1550 0.931 . S
C1535 H1523 0.929 . S
C1535 C1529 1.390 . S
C1535 C1532 1.386 . S
C1536 C1531 1.490 . S
C1536 C1538 1.395 . S
C1536 C1539 1.403 . S
H1537 C1543 0.930 . S
C1538 H1524 0.930 . S
C1538 C1536 1.395 . S
C1538 C1541 1.403 . S
C1539 C1536 1.403 . S
C1539 C1540 1.524 . S
C1539 C1543 1.400 . S
C1540 H1525 0.960 . S
C1540 H1526 0.960 . S
C1540 H1527 0.960 . S
C1540 C1539 1.524 . S
C1541 C1538 1.403 . S
C1541 C1542 1.392 . S
C1541 C1545 1.495 . S
C1542 C1541 1.392 . S
C1542 C1543 1.385 . S
C1542 C1544 1.478 . S
C1543 H1537 0.930 . S
C1543 C1539 1.400 . S
C1543 C1542 1.385 . S
C1544 C1542 1.478 . S
C1544 C1546 1.381 . S
C1544 C1550 1.383 . S
C1545 C1541 1.495 . S
C1545 H1551 0.959 . S
C1545 H1552 0.961 . S
C1545 H1553 0.960 . S
C1546 C1544 1.381 . S
C1546 C1547 1.394 . S
C1546 H1554 0.930 . S
C1547 C1546 1.394 . S
C1547 C1548 1.383 . S
C1547 H1555 0.929 . S
C1548 C1547 1.383 . S
C1548 C1549 1.377 . S
C1549 H1533 0.930 . S
C1549 C1548 1.377 . S
C1549 C1550 1.379 . S
C1550 H1534 0.931 . S
C1550 C1544 1.383 . S
C1550 C1549 1.379 . S
H1551 C1545 0.959 . S
H1552 C1545 0.961 . S
H1553 C1545 0.960 . S
H1554 C1546 0.930 . S
H1555 C1547 0.929 . S
H1556 C1564 0.929 . S
H1557 C1566 0.930 . S
H1558 C1568 0.930 . S
H1559 C1571 0.929 1_556 S
H1560 C1574 0.930 . S
H1561 C1576 0.960 . S
H1562 C1576 0.960 . S
H1563 C1576 0.960 . S
C1564 H1556 0.929 . S
C1564 C1565 1.377 . S
C1564 C1566 1.384 1_556 S
C1565 C1564 1.377 . S
C1565 C1571 1.390 1_556 S
C1566 H1557 0.930 . S
C1566 C1564 1.384 1_554 S
C1566 C1567 1.372 . S
C1567 C1566 1.372 . S
C1567 C1568 1.400 . S
C1567 C1572 1.490 . S
C1568 H1558 0.930 . S
C1568 C1567 1.400 . S
C1568 C1571 1.386 . S
H1569 C1585 0.930 . S
H1570 C1586 0.931 . S
C1571 H1559 0.929 1_554 S
C1571 C1565 1.390 1_554 S
C1571 C1568 1.386 . S
C1572 C1567 1.490 . S
C1572 C1574 1.395 . S
C1572 C1575 1.403 . S
H1573 C1579 0.930 . S
C1574 H1560 0.930 . S
C1574 C1572 1.395 . S
C1574 C1577 1.403 . S
C1575 C1572 1.403 . S
C1575 C1576 1.524 . S
C1575 C1579 1.400 . S
C1576 H1561 0.960 . S
C1576 H1562 0.960 . S
C1576 H1563 0.960 . S
C1576 C1575 1.524 . S
C1577 C1574 1.403 . S
C1577 C1578 1.392 . S
C1577 C1581 1.495 . S
C1578 C1577 1.392 . S
C1578 C1579 1.385 . S
C1578 C1580 1.478 . S
C1579 H1573 0.930 . S
C1579 C1575 1.400 . S
C1579 C1578 1.385 . S
C1580 C1578 1.478 . S
C1580 C1582 1.381 . S
C1580 C1586 1.383 . S
C1581 C1577 1.495 . S
C1581 H1587 0.959 . S
C1581 H1588 0.961 . S
C1581 H1589 0.960 . S
C1582 C1580 1.381 . S
C1582 C1583 1.394 . S
C1582 H1590 0.930 . S
C1583 C1582 1.394 . S
C1583 C1584 1.383 . S
C1583 H1591 0.929 . S
C1584 C1583 1.383 . S
C1584 C1585 1.377 . S
C1585 H1569 0.930 . S
C1585 C1584 1.377 . S
C1585 C1586 1.379 . S
C1586 H1570 0.931 . S
C1586 C1580 1.383 . S
C1586 C1585 1.379 . S
H1587 C1581 0.959 . S
H1588 C1581 0.961 . S
H1589 C1581 0.960 . S
H1590 C1582 0.930 . S
H1591 C1583 0.929 . S
H1592 C1600 0.929 . S
H1593 C1602 0.930 . S
H1594 C1604 0.930 . S
H1595 C1607 0.929 . S
H1596 C1610 0.930 . S
H1597 C1612 0.960 . S
H1598 C1612 0.960 . S
H1599 C1612 0.960 . S
C1600 H1592 0.929 . S
C1600 C1601 1.377 . S
C1600 C1602 1.384 1_554 S
C1601 C1600 1.377 . S
C1601 C1607 1.390 . S
C1602 H1593 0.930 . S
C1602 C1600 1.384 1_556 S
C1602 C1603 1.372 . S
C1603 C1602 1.372 . S
C1603 C1604 1.400 . S
C1603 C1608 1.490 . S
C1604 H1594 0.930 . S
C1604 C1603 1.400 . S
C1604 C1607 1.386 1_556 S
H1605 C1621 0.930 . S
H1606 C1622 0.931 . S
C1607 H1595 0.929 . S
C1607 C1601 1.390 . S
C1607 C1604 1.386 1_554 S
C1608 C1603 1.490 . S
C1608 C1610 1.395 . S
C1608 C1611 1.403 . S
H1609 C1615 0.930 . S
C1610 H1596 0.930 . S
C1610 C1608 1.395 . S
C1610 C1613 1.403 . S
C1611 C1608 1.403 . S
C1611 C1612 1.524 . S
C1611 C1615 1.400 . S
C1612 H1597 0.960 . S
C1612 H1598 0.960 . S
C1612 H1599 0.960 . S
C1612 C1611 1.524 . S
C1613 C1610 1.403 . S
C1613 C1614 1.392 . S
C1613 C1617 1.495 . S
C1614 C1613 1.392 . S
C1614 C1615 1.385 . S
C1614 C1616 1.478 . S
C1615 H1609 0.930 . S
C1615 C1611 1.400 . S
C1615 C1614 1.385 . S
C1616 C1614 1.478 . S
C1616 C1618 1.381 . S
C1616 C1622 1.383 . S
C1617 C1613 1.495 . S
C1617 H1623 0.959 . S
C1617 H1624 0.961 . S
C1617 H1625 0.960 . S
C1618 C1616 1.381 . S
C1618 C1619 1.394 . S
C1618 H1626 0.930 . S
C1619 C1618 1.394 . S
C1619 C1620 1.383 . S
C1619 H1627 0.929 . S
C1620 C1619 1.383 . S
C1620 C1621 1.377 . S
C1621 H1605 0.930 . S
C1621 C1620 1.377 . S
C1621 C1622 1.379 . S
C1622 H1606 0.931 . S
C1622 C1616 1.383 . S
C1622 C1621 1.379 . S
H1623 C1617 0.959 . S
H1624 C1617 0.961 . S
H1625 C1617 0.960 . S
H1626 C1618 0.930 . S
H1627 C1619 0.929 . S
H1628 C1636 0.929 . S
H1629 C1638 0.930 . S
H1630 C1640 0.930 . S
H1631 C1643 0.929 . S
H1632 C1646 0.930 . S
H1633 C1648 0.960 . S
H1634 C1648 0.960 . S
H1635 C1648 0.960 . S
C1636 H1628 0.929 . S
C1636 C1637 1.377 . S
C1636 C1638 1.384 . S
C1637 C1636 1.377 . S
C1637 C1643 1.390 . S
C1638 H1629 0.930 . S
C1638 C1636 1.384 . S
C1638 C1639 1.372 . S
C1639 C1638 1.372 . S
C1639 C1640 1.400 . S
C1639 C1644 1.490 . S
C1640 H1630 0.930 . S
C1640 C1639 1.400 . S
C1640 C1643 1.386 . S
H1641 C1657 0.930 . S
H1642 C1658 0.931 . S
C1643 H1631 0.929 . S
C1643 C1637 1.390 . S
C1643 C1640 1.386 . S
C1644 C1639 1.490 . S
C1644 C1646 1.395 . S
C1644 C1647 1.403 . S
H1645 C1651 0.930 . S
C1646 H1632 0.930 . S
C1646 C1644 1.395 . S
C1646 C1649 1.403 . S
C1647 C1644 1.403 . S
C1647 C1648 1.524 . S
C1647 C1651 1.400 . S
C1648 H1633 0.960 . S
C1648 H1634 0.960 . S
C1648 H1635 0.960 . S
C1648 C1647 1.524 . S
C1649 C1646 1.403 . S
C1649 C1650 1.392 . S
C1649 C1653 1.495 . S
C1650 C1649 1.392 . S
C1650 C1651 1.385 . S
C1650 C1652 1.478 . S
C1651 H1645 0.930 . S
C1651 C1647 1.400 . S
C1651 C1650 1.385 . S
C1652 C1650 1.478 . S
C1652 C1654 1.381 . S
C1652 C1658 1.383 . S
C1653 C1649 1.495 . S
C1653 H1659 0.959 . S
C1653 H1660 0.961 . S
C1653 H1661 0.960 . S
C1654 C1652 1.381 . S
C1654 C1655 1.394 . S
C1654 H1662 0.930 . S
C1655 C1654 1.394 . S
C1655 C1656 1.383 . S
C1655 H1663 0.929 . S
C1656 C1655 1.383 . S
C1656 C1657 1.377 . S
C1657 H1641 0.930 . S
C1657 C1656 1.377 . S
C1657 C1658 1.379 . S
C1658 H1642 0.931 . S
C1658 C1652 1.383 . S
C1658 C1657 1.379 . S
H1659 C1653 0.959 . S
H1660 C1653 0.961 . S
H1661 C1653 0.960 . S
H1662 C1654 0.930 . S
H1663 C1655 0.929 . S
H1664 C1672 0.929 . S
H1665 C1674 0.930 . S
H1666 C1676 0.930 . S
H1667 C1679 0.929 . S
H1668 C1682 0.930 . S
H1669 C1684 0.960 . S
H1670 C1684 0.960 . S
H1671 C1684 0.960 . S
C1672 H1664 0.929 . S
C1672 C1673 1.377 . S
C1672 C1674 1.384 . S
C1673 C1672 1.377 . S
C1673 C1679 1.390 . S
C1674 H1665 0.930 . S
C1674 C1672 1.384 . S
C1674 C1675 1.372 . S
C1675 C1674 1.372 . S
C1675 C1676 1.400 . S
C1675 C1680 1.490 . S
C1676 H1666 0.930 . S
C1676 C1675 1.400 . S
C1676 C1679 1.386 . S
H1677 C1693 0.930 . S
H1678 C1694 0.931 . S
C1679 H1667 0.929 . S
C1679 C1673 1.390 . S
C1679 C1676 1.386 . S
C1680 C1675 1.490 . S
C1680 C1682 1.395 . S
C1680 C1683 1.403 . S
H1681 C1687 0.930 . S
C1682 H1668 0.930 . S
C1682 C1680 1.395 . S
C1682 C1685 1.403 . S
C1683 C1680 1.403 . S
C1683 C1684 1.524 . S
C1683 C1687 1.400 . S
C1684 H1669 0.960 . S
C1684 H1670 0.960 . S
C1684 H1671 0.960 . S
C1684 C1683 1.524 . S
C1685 C1682 1.403 . S
C1685 C1686 1.392 . S
C1685 C1689 1.495 . S
C1686 C1685 1.392 . S
C1686 C1687 1.385 . S
C1686 C1688 1.478 . S
C1687 H1681 0.930 . S
C1687 C1683 1.400 . S
C1687 C1686 1.385 . S
C1688 C1686 1.478 . S
C1688 C1690 1.381 . S
C1688 C1694 1.383 . S
C1689 C1685 1.495 . S
C1689 H1695 0.959 . S
C1689 H1696 0.961 . S
C1689 H1697 0.960 . S
C1690 C1688 1.381 . S
C1690 C1691 1.394 . S
C1690 H1698 0.930 . S
C1691 C1690 1.394 . S
C1691 C1692 1.383 . S
C1691 H1699 0.929 . S
C1692 C1691 1.383 . S
C1692 C1693 1.377 . S
C1693 H1677 0.930 . S
C1693 C1692 1.377 . S
C1693 C1694 1.379 . S
C1694 H1678 0.931 . S
C1694 C1688 1.383 . S
C1694 C1693 1.379 . S
H1695 C1689 0.959 . S
H1696 C1689 0.961 . S
H1697 C1689 0.960 . S
H1698 C1690 0.930 . S
H1699 C1691 0.929 . S
H1700 C1708 0.929 . S
H1701 C1710 0.930 . S
H1702 C1712 0.930 . S
H1703 C1715 0.929 . S
H1704 C1718 0.930 . S
H1705 C1720 0.960 . S
H1706 C1720 0.960 . S
H1707 C1720 0.960 . S
C1708 H1700 0.929 . S
C1708 C1709 1.377 . S
C1708 C1710 1.384 . S
C1709 C1708 1.377 . S
C1709 C1715 1.390 . S
C1710 H1701 0.930 . S
C1710 C1708 1.384 . S
C1710 C1711 1.372 . S
C1711 C1710 1.372 . S
C1711 C1712 1.400 . S
C1711 C1716 1.490 . S
C1712 H1702 0.930 . S
C1712 C1711 1.400 . S
C1712 C1715 1.386 . S
H1713 C1729 0.930 . S
H1714 C1730 0.931 . S
C1715 H1703 0.929 . S
C1715 C1709 1.390 . S
C1715 C1712 1.386 . S
C1716 C1711 1.490 . S
C1716 C1718 1.395 . S
C1716 C1719 1.403 . S
H1717 C1723 0.930 . S
C1718 H1704 0.930 . S
C1718 C1716 1.395 . S
C1718 C1721 1.403 . S
C1719 C1716 1.403 . S
C1719 C1720 1.524 . S
C1719 C1723 1.400 . S
C1720 H1705 0.960 . S
C1720 H1706 0.960 . S
C1720 H1707 0.960 . S
C1720 C1719 1.524 . S
C1721 C1718 1.403 . S
C1721 C1722 1.392 . S
C1721 C1725 1.495 . S
C1722 C1721 1.392 . S
C1722 C1723 1.385 . S
C1722 C1724 1.478 . S
C1723 H1717 0.930 . S
C1723 C1719 1.400 . S
C1723 C1722 1.385 . S
C1724 C1722 1.478 . S
C1724 C1726 1.381 . S
C1724 C1730 1.383 . S
C1725 C1721 1.495 . S
C1725 H1731 0.959 . S
C1725 H1732 0.961 . S
C1725 H1733 0.960 . S
C1726 C1724 1.381 . S
C1726 C1727 1.394 1_556 S
C1726 H1734 0.930 . S
C1727 C1726 1.394 1_554 S
C1727 C1728 1.383 . S
C1727 H1735 0.929 . S
C1728 C1727 1.383 . S
C1728 C1729 1.377 . S
C1729 H1713 0.930 . S
C1729 C1728 1.377 . S
C1729 C1730 1.379 1_554 S
C1730 H1714 0.931 . S
C1730 C1724 1.383 . S
C1730 C1729 1.379 1_556 S
H1731 C1725 0.959 . S
H1732 C1725 0.961 . S
H1733 C1725 0.960 . S
H1734 C1726 0.930 . S
H1735 C1727 0.929 . S
H1736 C1744 0.929 . S
H1737 C1746 0.930 . S
H1738 C1748 0.930 . S
H1739 C1751 0.929 . S
H1740 C1754 0.930 . S
H1741 C1756 0.960 . S
H1742 C1756 0.960 . S
H1743 C1756 0.960 . S
C1744 H1736 0.929 . S
C1744 C1745 1.377 . S
C1744 C1746 1.384 1_556 S
C1745 C1744 1.377 . S
C1745 C1751 1.390 . S
C1746 H1737 0.930 . S
C1746 C1744 1.384 1_554 S
C1746 C1747 1.372 . S
C1747 C1746 1.372 . S
C1747 C1748 1.400 . S
C1747 C1752 1.490 . S
C1748 H1738 0.930 . S
C1748 C1747 1.400 . S
C1748 C1751 1.386 1_554 S
H1749 C1765 0.930 . S
H1750 C1766 0.931 . S
C1751 H1739 0.929 . S
C1751 C1745 1.390 . S
C1751 C1748 1.386 1_556 S
C1752 C1747 1.490 . S
C1752 C1754 1.395 . S
C1752 C1755 1.403 . S
H1753 C1759 0.930 . S
C1754 H1740 0.930 . S
C1754 C1752 1.395 . S
C1754 C1757 1.403 . S
C1755 C1752 1.403 . S
C1755 C1756 1.524 . S
C1755 C1759 1.400 . S
C1756 H1741 0.960 . S
C1756 H1742 0.960 . S
C1756 H1743 0.960 . S
C1756 C1755 1.524 . S
C1757 C1754 1.403 . S
C1757 C1758 1.392 . S
C1757 C1761 1.495 . S
C1758 C1757 1.392 . S
C1758 C1759 1.385 . S
C1758 C1760 1.478 . S
C1759 H1753 0.930 . S
C1759 C1755 1.400 . S
C1759 C1758 1.385 . S
C1760 C1758 1.478 . S
C1760 C1762 1.381 . S
C1760 C1766 1.383 . S
C1761 C1757 1.495 . S
C1761 H1767 0.959 . S
C1761 H1768 0.961 . S
C1761 H1769 0.960 . S
C1762 C1760 1.381 . S
C1762 C1763 1.394 . S
C1762 H1770 0.930 . S
C1763 C1762 1.394 . S
C1763 C1764 1.383 . S
C1763 H1771 0.929 . S
C1764 C1763 1.383 . S
C1764 C1765 1.377 . S
C1765 H1749 0.930 . S
C1765 C1764 1.377 . S
C1765 C1766 1.379 . S
C1766 H1750 0.931 . S
C1766 C1760 1.383 . S
C1766 C1765 1.379 . S
H1767 C1761 0.959 . S
H1768 C1761 0.961 . S
H1769 C1761 0.960 . S
H1770 C1762 0.930 . S
H1771 C1763 0.929 . S
H1772 C1780 0.929 . S
H1773 C1782 0.930 . S
H1774 C1784 0.930 . S
H1775 C1787 0.929 . S
H1776 C1790 0.930 . S
H1777 C1792 0.960 . S
H1778 C1792 0.960 . S
H1779 C1792 0.960 . S
C1780 H1772 0.929 . S
C1780 C1781 1.377 . S
C1780 C1782 1.384 . S
C1781 C1780 1.377 . S
C1781 C1787 1.390 . S
C1782 H1773 0.930 . S
C1782 C1780 1.384 . S
C1782 C1783 1.372 . S
C1783 C1782 1.372 . S
C1783 C1784 1.400 . S
C1783 C1788 1.490 . S
C1784 H1774 0.930 . S
C1784 C1783 1.400 . S
C1784 C1787 1.386 . S
H1785 C1801 0.930 . S
H1786 C1802 0.931 . S
C1787 H1775 0.929 . S
C1787 C1781 1.390 . S
C1787 C1784 1.386 . S
C1788 C1783 1.490 . S
C1788 C1790 1.395 . S
C1788 C1791 1.403 . S
H1789 C1795 0.930 . S
C1790 H1776 0.930 . S
C1790 C1788 1.395 . S
C1790 C1793 1.403 . S
C1791 C1788 1.403 . S
C1791 C1792 1.524 . S
C1791 C1795 1.400 . S
C1792 H1777 0.960 . S
C1792 H1778 0.960 . S
C1792 H1779 0.960 . S
C1792 C1791 1.524 . S
C1793 C1790 1.403 . S
C1793 C1794 1.392 . S
C1793 C1797 1.495 . S
C1794 C1793 1.392 . S
C1794 C1795 1.385 . S
C1794 C1796 1.478 . S
C1795 H1789 0.930 . S
C1795 C1791 1.400 . S
C1795 C1794 1.385 . S
C1796 C1794 1.478 . S
C1796 C1798 1.381 . S
C1796 C1802 1.383 . S
C1797 C1793 1.495 . S
C1797 H1803 0.959 . S
C1797 H1804 0.961 . S
C1797 H1805 0.960 . S
C1798 C1796 1.381 . S
C1798 C1799 1.394 . S
C1798 H1806 0.930 . S
C1799 C1798 1.394 . S
C1799 C1800 1.383 . S
C1799 H1807 0.929 . S
C1800 C1799 1.383 . S
C1800 C1801 1.377 . S
C1801 H1785 0.930 . S
C1801 C1800 1.377 . S
C1801 C1802 1.379 . S
C1802 H1786 0.931 . S
C1802 C1796 1.383 . S
C1802 C1801 1.379 . S
H1803 C1797 0.959 . S
H1804 C1797 0.961 . S
H1805 C1797 0.960 . S
H1806 C1798 0.930 . S
H1807 C1799 0.929 . S
H1808 C1816 0.929 . S
H1809 C1818 0.930 . S
H1810 C1820 0.930 . S
H1811 C1823 0.929 . S
H1812 C1826 0.930 . S
H1813 C1828 0.960 . S
H1814 C1828 0.960 . S
H1815 C1828 0.960 . S
C1816 H1808 0.929 . S
C1816 C1817 1.377 . S
C1816 C1818 1.384 . S
C1817 C1816 1.377 . S
C1817 C1823 1.390 . S
C1818 H1809 0.930 . S
C1818 C1816 1.384 . S
C1818 C1819 1.372 . S
C1819 C1818 1.372 . S
C1819 C1820 1.400 . S
C1819 C1824 1.490 . S
C1820 H1810 0.930 . S
C1820 C1819 1.400 . S
C1820 C1823 1.386 . S
H1821 C1837 0.930 . S
H1822 C1838 0.931 . S
C1823 H1811 0.929 . S
C1823 C1817 1.390 . S
C1823 C1820 1.386 . S
C1824 C1819 1.490 . S
C1824 C1826 1.395 . S
C1824 C1827 1.403 . S
H1825 C1831 0.930 . S
C1826 H1812 0.930 . S
C1826 C1824 1.395 . S
C1826 C1829 1.403 . S
C1827 C1824 1.403 . S
C1827 C1828 1.524 . S
C1827 C1831 1.400 . S
C1828 H1813 0.960 . S
C1828 H1814 0.960 . S
C1828 H1815 0.960 . S
C1828 C1827 1.524 . S
C1829 C1826 1.403 . S
C1829 C1830 1.392 . S
C1829 C1833 1.495 . S
C1830 C1829 1.392 . S
C1830 C1831 1.385 . S
C1830 C1832 1.478 . S
C1831 H1825 0.930 . S
C1831 C1827 1.400 . S
C1831 C1830 1.385 . S
C1832 C1830 1.478 . S
C1832 C1834 1.381 . S
C1832 C1838 1.383 . S
C1833 C1829 1.495 . S
C1833 H1839 0.959 . S
C1833 H1840 0.961 . S
C1833 H1841 0.960 . S
C1834 C1832 1.381 . S
C1834 C1835 1.394 . S
C1834 H1842 0.930 . S
C1835 C1834 1.394 . S
C1835 C1836 1.383 . S
C1835 H1843 0.929 . S
C1836 C1835 1.383 . S
C1836 C1837 1.377 . S
C1837 H1821 0.930 . S
C1837 C1836 1.377 . S
C1837 C1838 1.379 . S
C1838 H1822 0.931 . S
C1838 C1832 1.383 . S
C1838 C1837 1.379 . S
H1839 C1833 0.959 . S
H1840 C1833 0.961 . S
H1841 C1833 0.960 . S
H1842 C1834 0.930 . S
H1843 C1835 0.929 . S
H1844 C1852 0.929 . S
H1845 C1854 0.930 . S
H1846 C1856 0.930 . S
H1847 C1859 0.929 . S
H1848 C1862 0.930 . S
H1849 C1864 0.960 . S
H1850 C1864 0.960 . S
H1851 C1864 0.960 . S
C1852 H1844 0.929 . S
C1852 C1853 1.377 . S
C1852 C1854 1.384 . S
C1853 C1852 1.377 . S
C1853 C1859 1.390 . S
C1854 H1845 0.930 . S
C1854 C1852 1.384 . S
C1854 C1855 1.372 . S
C1855 C1854 1.372 . S
C1855 C1856 1.400 . S
C1855 C1860 1.490 . S
C1856 H1846 0.930 . S
C1856 C1855 1.400 . S
C1856 C1859 1.386 . S
H1857 C1873 0.930 . S
H1858 C1874 0.931 . S
C1859 H1847 0.929 . S
C1859 C1853 1.390 . S
C1859 C1856 1.386 . S
C1860 C1855 1.490 . S
C1860 C1862 1.395 . S
C1860 C1863 1.403 . S
H1861 C1867 0.930 . S
C1862 H1848 0.930 . S
C1862 C1860 1.395 . S
C1862 C1865 1.403 . S
C1863 C1860 1.403 . S
C1863 C1864 1.524 . S
C1863 C1867 1.400 . S
C1864 H1849 0.960 . S
C1864 H1850 0.960 . S
C1864 H1851 0.960 . S
C1864 C1863 1.524 . S
C1865 C1862 1.403 . S
C1865 C1866 1.392 . S
C1865 C1869 1.495 . S
C1866 C1865 1.392 . S
C1866 C1867 1.385 . S
C1866 C1868 1.478 . S
C1867 H1861 0.930 . S
C1867 C1863 1.400 . S
C1867 C1866 1.385 . S
C1868 C1866 1.478 . S
C1868 C1870 1.381 . S
C1868 C1874 1.383 . S
C1869 C1865 1.495 . S
C1869 H1875 0.959 . S
C1869 H1876 0.961 . S
C1869 H1877 0.960 . S
C1870 C1868 1.381 . S
C1870 C1871 1.394 1_554 S
C1870 H1878 0.930 . S
C1871 C1870 1.394 1_556 S
C1871 C1872 1.383 . S
C1871 H1879 0.929 . S
C1872 C1871 1.383 . S
C1872 C1873 1.377 . S
C1873 H1857 0.930 . S
C1873 C1872 1.377 . S
C1873 C1874 1.379 1_556 S
C1874 H1858 0.931 . S
C1874 C1868 1.383 . S
C1874 C1873 1.379 1_554 S
H1875 C1869 0.959 . S
H1876 C1869 0.961 . S
H1877 C1869 0.960 . S
H1878 C1870 0.930 . S
H1879 C1871 0.929 . S
H1880 C1888 0.929 . S
H1881 C1890 0.930 . S
H1882 C1892 0.930 . S
H1883 C1895 0.929 . S
H1884 C1898 0.930 . S
H1885 C1900 0.960 . S
H1886 C1900 0.960 . S
H1887 C1900 0.960 . S
C1888 H1880 0.929 . S
C1888 C1889 1.377 . S
C1888 C1890 1.384 . S
C1889 C1888 1.377 . S
C1889 C1895 1.390 . S
C1890 H1881 0.930 . S
C1890 C1888 1.384 . S
C1890 C1891 1.372 . S
C1891 C1890 1.372 . S
C1891 C1892 1.400 . S
C1891 C1896 1.490 . S
C1892 H1882 0.930 . S
C1892 C1891 1.400 . S
C1892 C1895 1.386 . S
H1893 C1909 0.930 . S
H1894 C1910 0.931 . S
C1895 H1883 0.929 . S
C1895 C1889 1.390 . S
C1895 C1892 1.386 . S
C1896 C1891 1.490 . S
C1896 C1898 1.395 . S
C1896 C1899 1.403 . S
H1897 C1903 0.930 . S
C1898 H1884 0.930 . S
C1898 C1896 1.395 . S
C1898 C1901 1.403 . S
C1899 C1896 1.403 . S
C1899 C1900 1.524 . S
C1899 C1903 1.400 . S
C1900 H1885 0.960 . S
C1900 H1886 0.960 . S
C1900 H1887 0.960 . S
C1900 C1899 1.524 . S
C1901 C1898 1.403 . S
C1901 C1902 1.392 . S
C1901 C1905 1.495 . S
C1902 C1901 1.392 . S
C1902 C1903 1.385 . S
C1902 C1904 1.478 . S
C1903 H1897 0.930 . S
C1903 C1899 1.400 . S
C1903 C1902 1.385 . S
C1904 C1902 1.478 . S
C1904 C1906 1.381 . S
C1904 C1910 1.383 . S
C1905 C1901 1.495 . S
C1905 H1911 0.959 . S
C1905 H1912 0.961 . S
C1905 H1913 0.960 . S
C1906 C1904 1.381 . S
C1906 C1907 1.394 1_556 S
C1906 H1914 0.930 . S
C1907 C1906 1.394 1_554 S
C1907 C1908 1.383 . S
C1907 H1915 0.929 . S
C1908 C1907 1.383 . S
C1908 C1909 1.377 . S
C1909 H1893 0.930 . S
C1909 C1908 1.377 . S
C1909 C1910 1.379 1_554 S
C1910 H1894 0.931 . S
C1910 C1904 1.383 . S
C1910 C1909 1.379 1_556 S
H1911 C1905 0.959 . S
H1912 C1905 0.961 . S
H1913 C1905 0.960 . S
H1914 C1906 0.930 . S
H1915 C1907 0.929 . S
H1916 C1924 0.929 . S
H1917 C1926 0.930 . S
H1918 C1928 0.930 . S
H1919 C1931 0.929 . S
H1920 C1934 0.930 . S
H1921 C1936 0.960 . S
H1922 C1936 0.960 . S
H1923 C1936 0.960 . S
C1924 H1916 0.929 . S
C1924 C1925 1.377 . S
C1924 C1926 1.384 . S
C1925 C1924 1.377 . S
C1925 C1931 1.390 . S
C1926 H1917 0.930 . S
C1926 C1924 1.384 . S
C1926 C1927 1.372 . S
C1927 C1926 1.372 . S
C1927 C1928 1.400 . S
C1927 C1932 1.490 . S
C1928 H1918 0.930 . S
C1928 C1927 1.400 . S
C1928 C1931 1.386 . S
H1929 C1945 0.930 . S
H1930 C1946 0.931 . S
C1931 H1919 0.929 . S
C1931 C1925 1.390 . S
C1931 C1928 1.386 . S
C1932 C1927 1.490 . S
C1932 C1934 1.395 . S
C1932 C1935 1.403 . S
H1933 C1939 0.930 . S
C1934 H1920 0.930 . S
C1934 C1932 1.395 . S
C1934 C1937 1.403 . S
C1935 C1932 1.403 . S
C1935 C1936 1.524 . S
C1935 C1939 1.400 . S
C1936 H1921 0.960 . S
C1936 H1922 0.960 . S
C1936 H1923 0.960 . S
C1936 C1935 1.524 . S
C1937 C1934 1.403 . S
C1937 C1938 1.392 . S
C1937 C1941 1.495 . S
C1938 C1937 1.392 . S
C1938 C1939 1.385 . S
C1938 C1940 1.478 . S
C1939 H1933 0.930 . S
C1939 C1935 1.400 . S
C1939 C1938 1.385 . S
C1940 C1938 1.478 . S
C1940 C1942 1.381 . S
C1940 C1946 1.383 . S
C1941 C1937 1.495 . S
C1941 H1947 0.959 . S
C1941 H1948 0.961 . S
C1941 H1949 0.960 . S
C1942 C1940 1.381 . S
C1942 C1943 1.394 . S
C1942 H1950 0.930 . S
C1943 C1942 1.394 . S
C1943 C1944 1.383 . S
C1943 H1951 0.929 . S
C1944 C1943 1.383 . S
C1944 C1945 1.377 . S
C1945 H1929 0.930 . S
C1945 C1944 1.377 . S
C1945 C1946 1.379 . S
C1946 H1930 0.931 . S
C1946 C1940 1.383 . S
C1946 C1945 1.379 . S
H1947 C1941 0.959 . S
H1948 C1941 0.961 . S
H1949 C1941 0.960 . S
H1950 C1942 0.930 . S
H1951 C1943 0.929 . S
H1952 C1960 0.929 . S
H1953 C1962 0.930 . S
H1954 C1964 0.930 . S
H1955 C1967 0.929 . S
H1956 C1970 0.930 . S
H1957 C1972 0.960 . S
H1958 C1972 0.960 . S
H1959 C1972 0.960 . S
C1960 H1952 0.929 . S
C1960 C1961 1.377 . S
C1960 C1962 1.384 1_556 S
C1961 C1960 1.377 . S
C1961 C1967 1.390 . S
C1962 H1953 0.930 . S
C1962 C1960 1.384 1_554 S
C1962 C1963 1.372 . S
C1963 C1962 1.372 . S
C1963 C1964 1.400 . S
C1963 C1968 1.490 . S
C1964 H1954 0.930 . S
C1964 C1963 1.400 . S
C1964 C1967 1.386 1_554 S
H1965 C1981 0.930 . S
H1966 C1982 0.931 . S
C1967 H1955 0.929 . S
C1967 C1961 1.390 . S
C1967 C1964 1.386 1_556 S
C1968 C1963 1.490 . S
C1968 C1970 1.395 . S
C1968 C1971 1.403 . S
H1969 C1975 0.930 . S
C1970 H1956 0.930 . S
C1970 C1968 1.395 . S
C1970 C1973 1.403 . S
C1971 C1968 1.403 . S
C1971 C1972 1.524 . S
C1971 C1975 1.400 . S
C1972 H1957 0.960 . S
C1972 H1958 0.960 . S
C1972 H1959 0.960 . S
C1972 C1971 1.524 . S
C1973 C1970 1.403 . S
C1973 C1974 1.392 . S
C1973 C1977 1.495 . S
C1974 C1973 1.392 . S
C1974 C1975 1.385 . S
C1974 C1976 1.478 . S
C1975 H1969 0.930 . S
C1975 C1971 1.400 . S
C1975 C1974 1.385 . S
C1976 C1974 1.478 . S
C1976 C1978 1.381 . S
C1976 C1982 1.383 . S
C1977 C1973 1.495 . S
C1977 H1983 0.959 . S
C1977 H1984 0.961 . S
C1977 H1985 0.960 . S
C1978 C1976 1.381 . S
C1978 C1979 1.394 . S
C1978 H1986 0.930 . S
C1979 C1978 1.394 . S
C1979 C1980 1.383 . S
C1979 H1987 0.929 . S
C1980 C1979 1.383 . S
C1980 C1981 1.377 . S
C1981 H1965 0.930 . S
C1981 C1980 1.377 . S
C1981 C1982 1.379 . S
C1982 H1966 0.931 . S
C1982 C1976 1.383 . S
C1982 C1981 1.379 . S
H1983 C1977 0.959 . S
H1984 C1977 0.961 . S
H1985 C1977 0.960 . S
H1986 C1978 0.930 . S
H1987 C1979 0.929 . S
H1988 C1996 0.929 . S
H1989 C1998 0.930 . S
H1990 C2000 0.930 . S
H1991 C2003 0.929 . S
H1992 C2006 0.930 . S
H1993 C2008 0.960 . S
H1994 C2008 0.960 . S
H1995 C2008 0.960 . S
C1996 H1988 0.929 . S
C1996 C1997 1.377 . S
C1996 C1998 1.384 . S
C1997 C1996 1.377 . S
C1997 C2003 1.390 . S
C1998 H1989 0.930 . S
C1998 C1996 1.384 . S
C1998 C1999 1.372 . S
C1999 C1998 1.372 . S
C1999 C2000 1.400 . S
C1999 C2004 1.490 . S
C2000 H1990 0.930 . S
C2000 C1999 1.400 . S
C2000 C2003 1.386 . S
H2001 C2017 0.930 . S
H2002 C2018 0.931 . S
C2003 H1991 0.929 . S
C2003 C1997 1.390 . S
C2003 C2000 1.386 . S
C2004 C1999 1.490 . S
C2004 C2006 1.395 . S
C2004 C2007 1.403 . S
H2005 C2011 0.930 . S
C2006 H1992 0.930 . S
C2006 C2004 1.395 . S
C2006 C2009 1.403 . S
C2007 C2004 1.403 . S
C2007 C2008 1.524 . S
C2007 C2011 1.400 . S
C2008 H1993 0.960 . S
C2008 H1994 0.960 . S
C2008 H1995 0.960 . S
C2008 C2007 1.524 . S
C2009 C2006 1.403 . S
C2009 C2010 1.392 . S
C2009 C2013 1.495 . S
C2010 C2009 1.392 . S
C2010 C2011 1.385 . S
C2010 C2012 1.478 . S
C2011 H2005 0.930 . S
C2011 C2007 1.400 . S
C2011 C2010 1.385 . S
C2012 C2010 1.478 . S
C2012 C2014 1.381 . S
C2012 C2018 1.383 . S
C2013 C2009 1.495 . S
C2013 H2019 0.959 . S
C2013 H2020 0.961 . S
C2013 H2021 0.960 . S
C2014 C2012 1.381 . S
C2014 C2015 1.394 . S
C2014 H2022 0.930 . S
C2015 C2014 1.394 . S
C2015 C2016 1.383 . S
C2015 H2023 0.929 . S
C2016 C2015 1.383 . S
C2016 C2017 1.377 . S
C2017 H2001 0.930 . S
C2017 C2016 1.377 . S
C2017 C2018 1.379 . S
C2018 H2002 0.931 . S
C2018 C2012 1.383 . S
C2018 C2017 1.379 . S
H2019 C2013 0.959 . S
H2020 C2013 0.961 . S
H2021 C2013 0.960 . S
H2022 C2014 0.930 . S
H2023 C2015 0.929 . S
H2024 C2032 0.929 . S
H2025 C2034 0.930 . S
H2026 C2036 0.930 . S
H2027 C2039 0.929 . S
H2028 C2042 0.930 . S
H2029 C2044 0.960 . S
H2030 C2044 0.960 . S
H2031 C2044 0.960 . S
C2032 H2024 0.929 . S
C2032 C2033 1.377 . S
C2032 C2034 1.384 . S
C2033 C2032 1.377 . S
C2033 C2039 1.390 . S
C2034 H2025 0.930 . S
C2034 C2032 1.384 . S
C2034 C2035 1.372 . S
C2035 C2034 1.372 . S
C2035 C2036 1.400 . S
C2035 C2040 1.490 . S
C2036 H2026 0.930 . S
C2036 C2035 1.400 . S
C2036 C2039 1.386 . S
H2037 C2053 0.930 . S
H2038 C2054 0.931 . S
C2039 H2027 0.929 . S
C2039 C2033 1.390 . S
C2039 C2036 1.386 . S
C2040 C2035 1.490 . S
C2040 C2042 1.395 . S
C2040 C2043 1.403 . S
H2041 C2047 0.930 . S
C2042 H2028 0.930 . S
C2042 C2040 1.395 . S
C2042 C2045 1.403 . S
C2043 C2040 1.403 . S
C2043 C2044 1.524 . S
C2043 C2047 1.400 . S
C2044 H2029 0.960 . S
C2044 H2030 0.960 . S
C2044 H2031 0.960 . S
C2044 C2043 1.524 . S
C2045 C2042 1.403 . S
C2045 C2046 1.392 . S
C2045 C2049 1.495 . S
C2046 C2045 1.392 . S
C2046 C2047 1.385 . S
C2046 C2048 1.478 . S
C2047 H2041 0.930 . S
C2047 C2043 1.400 . S
C2047 C2046 1.385 . S
C2048 C2046 1.478 . S
C2048 C2050 1.381 . S
C2048 C2054 1.383 . S
C2049 C2045 1.495 . S
C2049 H2055 0.959 . S
C2049 H2056 0.961 . S
C2049 H2057 0.960 . S
C2050 C2048 1.381 . S
C2050 C2051 1.394 . S
C2050 H2058 0.930 . S
C2051 C2050 1.394 . S
C2051 C2052 1.383 . S
C2051 H2059 0.929 . S
C2052 C2051 1.383 . S
C2052 C2053 1.377 . S
C2053 H2037 0.930 . S
C2053 C2052 1.377 . S
C2053 C2054 1.379 . S
C2054 H2038 0.931 . S
C2054 C2048 1.383 . S
C2054 C2053 1.379 . S
H2055 C2049 0.959 . S
H2056 C2049 0.961 . S
H2057 C2049 0.960 . S
H2058 C2050 0.930 . S
H2059 C2051 0.929 . S
H2060 C2068 0.929 . S
H2061 C2070 0.930 . S
H2062 C2072 0.930 . S
H2063 C2075 0.929 . S
H2064 C2078 0.930 . S
H2065 C2080 0.960 . S
H2066 C2080 0.960 . S
H2067 C2080 0.960 . S
C2068 H2060 0.929 . S
C2068 C2069 1.377 . S
C2068 C2070 1.384 . S
C2069 C2068 1.377 . S
C2069 C2075 1.390 . S
C2070 H2061 0.930 . S
C2070 C2068 1.384 . S
C2070 C2071 1.372 . S
C2071 C2070 1.372 . S
C2071 C2072 1.400 . S
C2071 C2076 1.490 . S
C2072 H2062 0.930 . S
C2072 C2071 1.400 . S
C2072 C2075 1.386 . S
H2073 C2089 0.930 . S
H2074 C2090 0.931 . S
C2075 H2063 0.929 . S
C2075 C2069 1.390 . S
C2075 C2072 1.386 . S
C2076 C2071 1.490 . S
C2076 C2078 1.395 . S
C2076 C2079 1.403 . S
H2077 C2083 0.930 . S
C2078 H2064 0.930 . S
C2078 C2076 1.395 . S
C2078 C2081 1.403 . S
C2079 C2076 1.403 . S
C2079 C2080 1.524 . S
C2079 C2083 1.400 . S
C2080 H2065 0.960 . S
C2080 H2066 0.960 . S
C2080 H2067 0.960 . S
C2080 C2079 1.524 . S
C2081 C2078 1.403 . S
C2081 C2082 1.392 . S
C2081 C2085 1.495 . S
C2082 C2081 1.392 . S
C2082 C2083 1.385 . S
C2082 C2084 1.478 . S
C2083 H2077 0.930 . S
C2083 C2079 1.400 . S
C2083 C2082 1.385 . S
C2084 C2082 1.478 . S
C2084 C2086 1.381 . S
C2084 C2090 1.383 . S
C2085 C2081 1.495 . S
C2085 H2091 0.959 . S
C2085 H2092 0.961 . S
C2085 H2093 0.960 . S
C2086 C2084 1.381 . S
C2086 C2087 1.394 1_556 S
C2086 H2094 0.930 . S
C2087 C2086 1.394 1_554 S
C2087 C2088 1.383 . S
C2087 H2095 0.929 . S
C2088 C2087 1.383 . S
C2088 C2089 1.377 . S
C2089 H2073 0.930 . S
C2089 C2088 1.377 . S
C2089 C2090 1.379 1_554 S
C2090 H2074 0.931 . S
C2090 C2084 1.383 . S
C2090 C2089 1.379 1_556 S
H2091 C2085 0.959 . S
H2092 C2085 0.961 . S
H2093 C2085 0.960 . S
H2094 C2086 0.930 . S
H2095 C2087 0.929 . S
H2096 C2104 0.929 . S
H2097 C2106 0.930 . S
H2098 C2108 0.930 . S
H2099 C2111 0.929 . S
H2100 C2114 0.930 . S
H2101 C2116 0.960 . S
H2102 C2116 0.960 . S
H2103 C2116 0.960 . S
C2104 H2096 0.929 . S
C2104 C2105 1.377 . S
C2104 C2106 1.384 1_554 S
C2105 C2104 1.377 . S
C2105 C2111 1.390 . S
C2106 H2097 0.930 . S
C2106 C2104 1.384 1_556 S
C2106 C2107 1.372 . S
C2107 C2106 1.372 . S
C2107 C2108 1.400 . S
C2107 C2112 1.490 . S
C2108 H2098 0.930 . S
C2108 C2107 1.400 . S
C2108 C2111 1.386 1_556 S
H2109 C2125 0.930 . S
H2110 C2126 0.931 . S
C2111 H2099 0.929 . S
C2111 C2105 1.390 . S
C2111 C2108 1.386 1_554 S
C2112 C2107 1.490 . S
C2112 C2114 1.395 . S
C2112 C2115 1.403 . S
H2113 C2119 0.930 . S
C2114 H2100 0.930 . S
C2114 C2112 1.395 . S
C2114 C2117 1.403 . S
C2115 C2112 1.403 . S
C2115 C2116 1.524 . S
C2115 C2119 1.400 . S
C2116 H2101 0.960 . S
C2116 H2102 0.960 . S
C2116 H2103 0.960 . S
C2116 C2115 1.524 . S
C2117 C2114 1.403 . S
C2117 C2118 1.392 . S
C2117 C2121 1.495 . S
C2118 C2117 1.392 . S
C2118 C2119 1.385 . S
C2118 C2120 1.478 . S
C2119 H2113 0.930 . S
C2119 C2115 1.400 . S
C2119 C2118 1.385 . S
C2120 C2118 1.478 . S
C2120 C2122 1.381 . S
C2120 C2126 1.383 . S
C2121 C2117 1.495 . S
C2121 H2127 0.959 . S
C2121 H2128 0.961 . S
C2121 H2129 0.960 . S
C2122 C2120 1.381 . S
C2122 C2123 1.394 . S
C2122 H2130 0.930 . S
C2123 C2122 1.394 . S
C2123 C2124 1.383 . S
C2123 H2131 0.929 . S
C2124 C2123 1.383 . S
C2124 C2125 1.377 . S
C2125 H2109 0.930 . S
C2125 C2124 1.377 . S
C2125 C2126 1.379 . S
C2126 H2110 0.931 . S
C2126 C2120 1.383 . S
C2126 C2125 1.379 . S
H2127 C2121 0.959 . S
H2128 C2121 0.961 . S
H2129 C2121 0.960 . S
H2130 C2122 0.930 . S
H2131 C2123 0.929 . S
H2132 C2140 0.929 . S
H2133 C2142 0.930 . S
H2134 C2144 0.930 . S
H2135 C2147 0.929 . S
H2136 C2150 0.930 . S
H2137 C2152 0.960 . S
H2138 C2152 0.960 . S
H2139 C2152 0.960 . S
C2140 H2132 0.929 . S
C2140 C2141 1.377 . S
C2140 C2142 1.384 . S
C2141 C2140 1.377 . S
C2141 C2147 1.390 . S
C2142 H2133 0.930 . S
C2142 C2140 1.384 . S
C2142 C2143 1.372 . S
C2143 C2142 1.372 . S
C2143 C2144 1.400 . S
C2143 C2148 1.490 . S
C2144 H2134 0.930 . S
C2144 C2143 1.400 . S
C2144 C2147 1.386 . S
H2145 C2161 0.930 . S
H2146 C2162 0.931 . S
C2147 H2135 0.929 . S
C2147 C2141 1.390 . S
C2147 C2144 1.386 . S
C2148 C2143 1.490 . S
C2148 C2150 1.395 . S
C2148 C2151 1.403 . S
H2149 C2155 0.930 . S
C2150 H2136 0.930 . S
C2150 C2148 1.395 . S
C2150 C2153 1.403 . S
C2151 C2148 1.403 . S
C2151 C2152 1.524 . S
C2151 C2155 1.400 . S
C2152 H2137 0.960 . S
C2152 H2138 0.960 . S
C2152 H2139 0.960 . S
C2152 C2151 1.524 . S
C2153 C2150 1.403 . S
C2153 C2154 1.392 . S
C2153 C2157 1.495 . S
C2154 C2153 1.392 . S
C2154 C2155 1.385 . S
C2154 C2156 1.478 . S
C2155 H2149 0.930 . S
C2155 C2151 1.400 . S
C2155 C2154 1.385 . S
C2156 C2154 1.478 . S
C2156 C2158 1.381 . S
C2156 C2162 1.383 . S
C2157 C2153 1.495 . S
C2157 H2163 0.959 . S
C2157 H2164 0.961 . S
C2157 H2165 0.960 . S
C2158 C2156 1.381 . S
C2158 C2159 1.394 . S
C2158 H2166 0.930 . S
C2159 C2158 1.394 . S
C2159 C2160 1.383 . S
C2159 H2167 0.929 . S
C2160 C2159 1.383 . S
C2160 C2161 1.377 . S
C2161 H2145 0.930 . S
C2161 C2160 1.377 . S
C2161 C2162 1.379 . S
C2162 H2146 0.931 . S
C2162 C2156 1.383 . S
C2162 C2161 1.379 . S
H2163 C2157 0.959 . S
H2164 C2157 0.961 . S
H2165 C2157 0.960 . S
H2166 C2158 0.930 . S
H2167 C2159 0.929 . S
H2168 C2176 0.929 . S
H2169 C2178 0.930 . S
H2170 C2180 0.930 . S
H2171 C2183 0.929 . S
H2172 C2186 0.930 . S
H2173 C2188 0.960 . S
H2174 C2188 0.960 . S
H2175 C2188 0.960 . S
C2176 H2168 0.929 . S
C2176 C2177 1.377 . S
C2176 C2178 1.384 . S
C2177 C2176 1.377 . S
C2177 C2183 1.390 . S
C2178 H2169 0.930 . S
C2178 C2176 1.384 . S
C2178 C2179 1.372 . S
C2179 C2178 1.372 . S
C2179 C2180 1.400 . S
C2179 C2184 1.490 . S
C2180 H2170 0.930 . S
C2180 C2179 1.400 . S
C2180 C2183 1.386 . S
H2181 C2197 0.930 . S
H2182 C2198 0.931 . S
C2183 H2171 0.929 . S
C2183 C2177 1.390 . S
C2183 C2180 1.386 . S
C2184 C2179 1.490 . S
C2184 C2186 1.395 . S
C2184 C2187 1.403 . S
H2185 C2191 0.930 . S
C2186 H2172 0.930 . S
C2186 C2184 1.395 . S
C2186 C2189 1.403 . S
C2187 C2184 1.403 . S
C2187 C2188 1.524 . S
C2187 C2191 1.400 . S
C2188 H2173 0.960 . S
C2188 H2174 0.960 . S
C2188 H2175 0.960 . S
C2188 C2187 1.524 . S
C2189 C2186 1.403 . S
C2189 C2190 1.392 . S
C2189 C2193 1.495 . S
C2190 C2189 1.392 . S
C2190 C2191 1.385 . S
C2190 C2192 1.478 . S
C2191 H2185 0.930 . S
C2191 C2187 1.400 . S
C2191 C2190 1.385 . S
C2192 C2190 1.478 . S
C2192 C2194 1.381 . S
C2192 C2198 1.383 . S
C2193 C2189 1.495 . S
C2193 H2199 0.959 . S
C2193 H2200 0.961 . S
C2193 H2201 0.960 . S
C2194 C2192 1.381 . S
C2194 C2195 1.394 . S
C2194 H2202 0.930 . S
C2195 C2194 1.394 . S
C2195 C2196 1.383 . S
C2195 H2203 0.929 . S
C2196 C2195 1.383 . S
C2196 C2197 1.377 . S
C2197 H2181 0.930 . S
C2197 C2196 1.377 . S
C2197 C2198 1.379 . S
C2198 H2182 0.931 . S
C2198 C2192 1.383 . S
C2198 C2197 1.379 . S
H2199 C2193 0.959 . S
H2200 C2193 0.961 . S
H2201 C2193 0.960 . S
H2202 C2194 0.930 . S
H2203 C2195 0.929 . S
H2204 C2212 0.929 . S
H2205 C2214 0.930 . S
H2206 C2216 0.930 . S
H2207 C2219 0.929 . S
H2208 C2222 0.930 . S
H2209 C2224 0.960 . S
H2210 C2224 0.960 . S
H2211 C2224 0.960 . S
C2212 H2204 0.929 . S
C2212 C2213 1.377 . S
C2212 C2214 1.384 . S
C2213 C2212 1.377 . S
C2213 C2219 1.390 . S
C2214 H2205 0.930 . S
C2214 C2212 1.384 . S
C2214 C2215 1.372 . S
C2215 C2214 1.372 . S
C2215 C2216 1.400 . S
C2215 C2220 1.490 . S
C2216 H2206 0.930 . S
C2216 C2215 1.400 . S
C2216 C2219 1.386 . S
H2217 C2233 0.930 . S
H2218 C2234 0.931 . S
C2219 H2207 0.929 . S
C2219 C2213 1.390 . S
C2219 C2216 1.386 . S
C2220 C2215 1.490 . S
C2220 C2222 1.395 . S
C2220 C2223 1.403 . S
H2221 C2227 0.930 . S
C2222 H2208 0.930 . S
C2222 C2220 1.395 . S
C2222 C2225 1.403 . S
C2223 C2220 1.403 . S
C2223 C2224 1.524 . S
C2223 C2227 1.400 . S
C2224 H2209 0.960 . S
C2224 H2210 0.960 . S
C2224 H2211 0.960 . S
C2224 C2223 1.524 . S
C2225 C2222 1.403 . S
C2225 C2226 1.392 . S
C2225 C2229 1.495 . S
C2226 C2225 1.392 . S
C2226 C2227 1.385 . S
C2226 C2228 1.478 . S
C2227 H2221 0.930 . S
C2227 C2223 1.400 . S
C2227 C2226 1.385 . S
C2228 C2226 1.478 . S
C2228 C2230 1.381 . S
C2228 C2234 1.383 . S
C2229 C2225 1.495 . S
C2229 H2235 0.959 . S
C2229 H2236 0.961 . S
C2229 H2237 0.960 . S
C2230 C2228 1.381 . S
C2230 C2231 1.394 1_554 S
C2230 H2238 0.930 . S
C2231 C2230 1.394 1_556 S
C2231 C2232 1.383 . S
C2231 H2239 0.929 . S
C2232 C2231 1.383 . S
C2232 C2233 1.377 . S
C2233 H2217 0.930 . S
C2233 C2232 1.377 . S
C2233 C2234 1.379 1_556 S
C2234 H2218 0.931 . S
C2234 C2228 1.383 . S
C2234 C2233 1.379 1_554 S
H2235 C2229 0.959 . S
H2236 C2229 0.961 . S
H2237 C2229 0.960 . S
H2238 C2230 0.930 . S
H2239 C2231 0.929 . S
H2240 C2248 0.929 . S
H2241 C2250 0.930 . S
H2242 C2252 0.930 . S
H2243 C2255 0.929 . S
H2244 C2258 0.930 . S
H2245 C2260 0.960 . S
H2246 C2260 0.960 . S
H2247 C2260 0.960 . S
C2248 H2240 0.929 . S
C2248 C2249 1.377 . S
C2248 C2250 1.384 . S
C2249 C2248 1.377 . S
C2249 C2255 1.390 . S
C2250 H2241 0.930 . S
C2250 C2248 1.384 . S
C2250 C2251 1.372 . S
C2251 C2250 1.372 . S
C2251 C2252 1.400 . S
C2251 C2256 1.490 . S
C2252 H2242 0.930 . S
C2252 C2251 1.400 . S
C2252 C2255 1.386 . S
H2253 C2269 0.930 . S
H2254 C2270 0.931 . S
C2255 H2243 0.929 . S
C2255 C2249 1.390 . S
C2255 C2252 1.386 . S
C2256 C2251 1.490 . S
C2256 C2258 1.395 . S
C2256 C2259 1.403 . S
H2257 C2263 0.930 . S
C2258 H2244 0.930 . S
C2258 C2256 1.395 . S
C2258 C2261 1.403 . S
C2259 C2256 1.403 . S
C2259 C2260 1.524 . S
C2259 C2263 1.400 . S
C2260 H2245 0.960 . S
C2260 H2246 0.960 . S
C2260 H2247 0.960 . S
C2260 C2259 1.524 . S
C2261 C2258 1.403 . S
C2261 C2262 1.392 . S
C2261 C2265 1.495 . S
C2262 C2261 1.392 . S
C2262 C2263 1.385 . S
C2262 C2264 1.478 . S
C2263 H2257 0.930 . S
C2263 C2259 1.400 . S
C2263 C2262 1.385 . S
C2264 C2262 1.478 . S
C2264 C2266 1.381 . S
C2264 C2270 1.383 . S
C2265 C2261 1.495 . S
C2265 H2271 0.959 . S
C2265 H2272 0.961 . S
C2265 H2273 0.960 . S
C2266 C2264 1.381 . S
C2266 C2267 1.394 . S
C2266 H2274 0.930 . S
C2267 C2266 1.394 . S
C2267 C2268 1.383 . S
C2267 H2275 0.929 . S
C2268 C2267 1.383 . S
C2268 C2269 1.377 . S
C2269 H2253 0.930 . S
C2269 C2268 1.377 . S
C2269 C2270 1.379 . S
C2270 H2254 0.931 . S
C2270 C2264 1.383 . S
C2270 C2269 1.379 . S
H2271 C2265 0.959 . S
H2272 C2265 0.961 . S
H2273 C2265 0.960 . S
H2274 C2266 0.930 . S
H2275 C2267 0.929 . S
H2276 C2284 0.929 . S
H2277 C2286 0.930 . S
H2278 C2288 0.930 . S
H2279 C2291 0.929 . S
H2280 C2294 0.930 . S
H2281 C2296 0.960 1_545 S
H2282 C2296 0.960 . S
H2283 C2296 0.960 . S
C2284 H2276 0.929 . S
C2284 C2285 1.377 . S
C2284 C2286 1.384 . S
C2285 C2284 1.377 . S
C2285 C2291 1.390 . S
C2286 H2277 0.930 . S
C2286 C2284 1.384 . S
C2286 C2287 1.372 . S
C2287 C2286 1.372 . S
C2287 C2288 1.400 . S
C2287 C2292 1.490 . S
C2288 H2278 0.930 . S
C2288 C2287 1.400 . S
C2288 C2291 1.386 . S
H2289 C2305 0.930 . S
H2290 C2306 0.931 . S
C2291 H2279 0.929 . S
C2291 C2285 1.390 . S
C2291 C2288 1.386 . S
C2292 C2287 1.490 . S
C2292 C2294 1.395 . S
C2292 C2295 1.403 . S
H2293 C2299 0.930 . S
C2294 H2280 0.930 . S
C2294 C2292 1.395 . S
C2294 C2297 1.356 1_565 S
C2295 C2292 1.403 . S
C2295 C2296 1.524 . S
C2295 C2299 1.400 1_565 S
C2296 H2281 0.960 1_565 S
C2296 H2282 0.960 . S
C2296 H2283 0.960 . S
C2296 C2295 1.524 . S
C2297 C2294 1.356 1_545 S
C2297 C2298 1.438 . S
C2297 C2301 1.498 . S
C2298 C2297 1.438 . S
C2298 C2299 1.385 . S
C2298 C2300 1.478 . S
C2299 H2293 0.930 . S
C2299 C2295 1.400 1_545 S
C2299 C2298 1.385 . S
C2300 C2298 1.478 . S
C2300 C2302 1.381 . S
C2300 C2306 1.383 . S
C2301 C2297 1.498 . S
C2301 H2307 0.959 1_545 S
C2301 H2308 0.961 . S
C2301 H2309 0.960 . S
C2302 C2300 1.381 . S
C2302 C2303 1.394 . S
C2302 H2310 0.930 . S
C2303 C2302 1.394 . S
C2303 C2304 1.383 . S
C2303 H2311 0.929 . S
C2304 C2303 1.383 . S
C2304 C2305 1.377 . S
C2305 H2289 0.930 . S
C2305 C2304 1.377 . S
C2305 C2306 1.379 . S
C2306 H2290 0.931 . S
C2306 C2300 1.383 . S
C2306 C2305 1.379 . S
H2307 C2301 0.959 1_565 S
H2308 C2301 0.961 . S
H2309 C2301 0.960 . S
H2310 C2302 0.930 . S
H2311 C2303 0.929 . S
H2312 C2320 0.929 . S
H2313 C2322 0.930 . S
H2314 C2324 0.930 . S
H2315 C2327 0.929 . S
H2316 C2330 0.930 . S
H2317 C2332 0.960 . S
H2318 C2332 0.960 . S
H2319 C2332 0.960 . S
C2320 H2312 0.929 . S
C2320 C2321 1.377 . S
C2320 C2322 1.384 . S
C2321 C2320 1.377 . S
C2321 C2327 1.390 . S
C2322 H2313 0.930 . S
C2322 C2320 1.384 . S
C2322 C2323 1.372 . S
C2323 C2322 1.372 . S
C2323 C2324 1.400 . S
C2323 C2328 1.490 . S
C2324 H2314 0.930 . S
C2324 C2323 1.400 . S
C2324 C2327 1.386 . S
H2325 C2341 0.930 . S
H2326 C2342 0.931 . S
C2327 H2315 0.929 . S
C2327 C2321 1.390 . S
C2327 C2324 1.386 . S
C2328 C2323 1.490 . S
C2328 C2330 1.395 . S
C2328 C2331 1.403 1_554 S
H2329 C2335 0.930 . S
C2330 H2316 0.930 . S
C2330 C2328 1.395 . S
C2330 C2333 1.403 . S
C2331 C2328 1.403 1_556 S
C2331 C2332 1.524 . S
C2331 C2335 1.400 . S
C2332 H2317 0.960 . S
C2332 H2318 0.960 . S
C2332 H2319 0.960 . S
C2332 C2331 1.524 . S
C2333 C2330 1.403 . S
C2333 C2334 1.392 1_554 S
C2333 C2337 1.495 . S
C2334 C2333 1.392 1_556 S
C2334 C2335 1.385 . S
C2334 C2336 1.478 . S
C2335 H2329 0.930 . S
C2335 C2331 1.400 . S
C2335 C2334 1.385 . S
C2336 C2334 1.478 . S
C2336 C2338 1.381 . S
C2336 C2342 1.383 . S
C2337 C2333 1.495 . S
C2337 H2343 0.959 . S
C2337 H2344 0.961 . S
C2337 H2345 0.960 . S
C2338 C2336 1.381 . S
C2338 C2339 1.394 . S
C2338 H2346 0.930 . S
C2339 C2338 1.394 . S
C2339 C2340 1.383 . S
C2339 H2347 0.929 . S
C2340 C2339 1.383 . S
C2340 C2341 1.377 . S
C2341 H2325 0.930 . S
C2341 C2340 1.377 . S
C2341 C2342 1.379 . S
C2342 H2326 0.931 . S
C2342 C2336 1.383 . S
C2342 C2341 1.379 . S
H2343 C2337 0.959 . S
H2344 C2337 0.961 . S
H2345 C2337 0.960 . S
H2346 C2338 0.930 . S
H2347 C2339 0.929 . S
H2348 C2356 0.929 . S
H2349 C2358 0.930 . S
H2350 C2360 0.930 . S
H2351 C2363 0.929 . S
H2352 C2366 0.927 1_565 S
H2353 C2368 0.960 . S
H2354 C2368 0.960 . S
H2355 C2368 0.960 . S
C2356 H2348 0.929 . S
C2356 C2357 1.377 . S
C2356 C2358 1.384 . S
C2357 C2356 1.377 . S
C2357 C2363 1.390 . S
C2358 H2349 0.930 . S
C2358 C2356 1.384 . S
C2358 C2359 1.372 . S
C2359 C2358 1.372 . S
C2359 C2360 1.400 . S
C2359 C2364 1.490 . S
C2360 H2350 0.930 . S
C2360 C2359 1.400 . S
C2360 C2363 1.386 . S
H2361 C2377 0.930 . S
H2362 C2378 0.931 . S
C2363 H2351 0.929 . S
C2363 C2357 1.390 . S
C2363 C2360 1.386 . S
C2364 C2359 1.490 . S
C2364 C2366 1.401 1_565 S
C2364 C2367 1.403 . S
H2365 C2371 0.930 . S
C2366 H2352 0.927 1_545 S
C2366 C2364 1.401 1_545 S
C2366 C2369 1.397 . S
C2367 C2364 1.403 . S
C2367 C2368 1.524 . S
C2367 C2371 1.400 1_565 S
C2368 H2353 0.960 . S
C2368 H2354 0.960 . S
C2368 H2355 0.960 . S
C2368 C2367 1.524 . S
C2369 C2366 1.397 . S
C2369 C2370 1.392 . S
C2369 C2373 1.495 . S
C2370 C2369 1.392 . S
C2370 C2371 1.385 . S
C2370 C2372 1.478 . S
C2371 H2365 0.930 . S
C2371 C2367 1.400 1_545 S
C2371 C2370 1.385 . S
C2372 C2370 1.478 . S
C2372 C2374 1.381 . S
C2372 C2378 1.383 . S
C2373 C2369 1.495 . S
C2373 H2379 0.959 . S
C2373 H2380 0.961 . S
C2373 H2381 0.960 . S
C2374 C2372 1.381 . S
C2374 C2375 1.394 . S
C2374 H2382 0.930 . S
C2375 C2374 1.394 . S
C2375 C2376 1.383 . S
C2375 H2383 0.929 . S
C2376 C2375 1.383 . S
C2376 C2377 1.377 . S
C2377 H2361 0.930 . S
C2377 C2376 1.377 . S
C2377 C2378 1.379 . S
C2378 H2362 0.931 . S
C2378 C2372 1.383 . S
C2378 C2377 1.379 . S
H2379 C2373 0.959 . S
H2380 C2373 0.961 . S
H2381 C2373 0.960 . S
H2382 C2374 0.930 . S
H2383 C2375 0.929 . S
H2384 C2392 0.929 . S
H2385 C2394 0.930 . S
H2386 C2396 0.930 . S
H2387 C2399 0.929 . S
H2388 C2402 0.930 . S
H2389 C2404 0.960 . S
H2390 C2404 0.960 . S
H2391 C2404 0.960 . S
C2392 H2384 0.929 . S
C2392 C2393 1.377 . S
C2392 C2394 1.384 . S
C2393 C2392 1.377 . S
C2393 C2399 1.390 . S
C2394 H2385 0.930 . S
C2394 C2392 1.384 . S
C2394 C2395 1.372 . S
C2395 C2394 1.372 . S
C2395 C2396 1.400 . S
C2395 C2400 1.490 . S
C2396 H2386 0.930 . S
C2396 C2395 1.400 . S
C2396 C2399 1.386 . S
H2397 C2413 0.930 . S
H2398 C2414 0.931 . S
C2399 H2387 0.929 . S
C2399 C2393 1.390 . S
C2399 C2396 1.386 . S
C2400 C2395 1.490 . S
C2400 C2402 1.395 . S
C2400 C2403 1.403 . S
H2401 C2407 0.930 . S
C2402 H2388 0.930 . S
C2402 C2400 1.395 . S
C2402 C2405 1.403 . S
C2403 C2400 1.403 . S
C2403 C2404 1.524 . S
C2403 C2407 1.400 . S
C2404 H2389 0.960 . S
C2404 H2390 0.960 . S
C2404 H2391 0.960 . S
C2404 C2403 1.524 . S
C2405 C2402 1.403 . S
C2405 C2406 1.392 . S
C2405 C2409 1.495 . S
C2406 C2405 1.392 . S
C2406 C2407 1.385 . S
C2406 C2408 1.478 . S
C2407 H2401 0.930 . S
C2407 C2403 1.400 . S
C2407 C2406 1.385 . S
C2408 C2406 1.478 . S
C2408 C2410 1.381 . S
C2408 C2414 1.383 . S
C2409 C2405 1.495 . S
C2409 H2415 0.959 . S
C2409 H2416 0.961 . S
C2409 H2417 0.960 . S
C2410 C2408 1.381 . S
C2410 C2411 1.394 . S
C2410 H2418 0.930 . S
C2411 C2410 1.394 . S
C2411 C2412 1.383 . S
C2411 H2419 0.929 . S
C2412 C2411 1.383 . S
C2412 C2413 1.377 . S
C2413 H2397 0.930 . S
C2413 C2412 1.377 . S
C2413 C2414 1.379 . S
C2414 H2398 0.931 . S
C2414 C2408 1.383 . S
C2414 C2413 1.379 . S
H2415 C2409 0.959 . S
H2416 C2409 0.961 . S
H2417 C2409 0.960 . S
H2418 C2410 0.930 . S
H2419 C2411 0.929 . S
H2420 C2428 0.929 . S
H2421 C2430 0.930 . S
H2422 C2432 0.930 . S
H2423 C2435 0.929 . S
H2424 C2438 0.931 . S
H2425 C2440 0.960 . S
H2426 C2440 0.960 . S
H2427 C2440 0.960 . S
C2428 H2420 0.929 . S
C2428 C2429 1.377 . S
C2428 C2430 1.384 . S
C2429 C2428 1.377 . S
C2429 C2435 1.390 . S
C2430 H2421 0.930 . S
C2430 C2428 1.384 . S
C2430 C2431 1.372 . S
C2431 C2430 1.372 . S
C2431 C2432 1.400 . S
C2431 C2436 1.490 . S
C2432 H2422 0.930 . S
C2432 C2431 1.400 . S
C2432 C2435 1.386 . S
H2433 C2449 0.930 . S
H2434 C2450 0.931 . S
C2435 H2423 0.929 . S
C2435 C2429 1.390 . S
C2435 C2432 1.386 . S
C2436 C2431 1.490 . S
C2436 C2438 1.407 . S
C2436 C2439 1.403 . S
H2437 C2443 0.930 . S
C2438 H2424 0.931 . S
C2438 C2436 1.407 . S
C2438 C2441 1.390 1_565 S
C2439 C2436 1.403 . S
C2439 C2440 1.524 . S
C2439 C2443 1.400 1_565 S
C2440 H2425 0.960 . S
C2440 H2426 0.960 . S
C2440 H2427 0.960 . S
C2440 C2439 1.524 . S
C2441 C2438 1.390 1_545 S
C2441 C2442 1.392 . S
C2441 C2445 1.495 . S
C2442 C2441 1.392 . S
C2442 C2443 1.385 . S
C2442 C2444 1.478 . S
C2443 H2437 0.930 . S
C2443 C2439 1.400 1_545 S
C2443 C2442 1.385 . S
C2444 C2442 1.478 . S
C2444 C2446 1.381 . S
C2444 C2450 1.383 . S
C2445 C2441 1.495 . S
C2445 H2451 0.959 . S
C2445 H2452 0.961 . S
C2445 H2453 0.960 . S
C2446 C2444 1.381 . S
C2446 C2447 1.394 . S
C2446 H2454 0.930 . S
C2447 C2446 1.394 . S
C2447 C2448 1.383 . S
C2447 H2455 0.929 . S
C2448 C2447 1.383 . S
C2448 C2449 1.377 . S
C2449 H2433 0.930 . S
C2449 C2448 1.377 . S
C2449 C2450 1.379 . S
C2450 H2434 0.931 . S
C2450 C2444 1.383 . S
C2450 C2449 1.379 . S
H2451 C2445 0.959 . S
H2452 C2445 0.961 . S
H2453 C2445 0.960 . S
H2454 C2446 0.930 . S
H2455 C2447 0.929 . S
H2456 C2464 0.929 . S
H2457 C2466 0.930 1_554 S
H2458 C2468 0.930 . S
H2459 C2471 0.929 . S
H2460 C2474 0.930 . S
H2461 C2476 0.960 . S
H2462 C2476 0.960 . S
H2463 C2476 0.960 . S
C2464 H2456 0.929 . S
C2464 C2465 1.377 . S
C2464 C2466 1.384 . S
C2465 C2464 1.377 . S
C2465 C2471 1.390 . S
C2466 H2457 0.930 1_556 S
C2466 C2464 1.384 . S
C2466 C2467 1.372 . S
C2467 C2466 1.372 . S
C2467 C2468 1.400 . S
C2467 C2472 1.490 . S
C2468 H2458 0.930 . S
C2468 C2467 1.400 . S
C2468 C2471 1.386 . S
H2469 C2485 0.930 . S
H2470 C2486 0.931 1_556 S
C2471 H2459 0.929 . S
C2471 C2465 1.390 . S
C2471 C2468 1.386 . S
C2472 C2467 1.490 . S
C2472 C2474 1.395 . S
C2472 C2475 1.403 . S
H2473 C2479 0.930 . S
C2474 H2460 0.930 . S
C2474 C2472 1.395 . S
C2474 C2477 1.403 1_556 S
C2475 C2472 1.403 . S
C2475 C2476 1.524 . S
C2475 C2479 1.400 1_556 S
C2476 H2461 0.960 . S
C2476 H2462 0.960 . S
C2476 H2463 0.960 . S
C2476 C2475 1.524 . S
C2477 C2474 1.403 1_554 S
C2477 C2478 1.392 . S
C2477 C2481 1.495 . S
C2478 C2477 1.392 . S
C2478 C2479 1.385 . S
C2478 C2480 1.478 . S
C2479 H2473 0.930 . S
C2479 C2475 1.400 1_554 S
C2479 C2478 1.385 . S
C2480 C2478 1.478 . S
C2480 C2482 1.381 . S
C2480 C2486 1.383 . S
C2481 C2477 1.495 . S
C2481 H2487 0.959 . S
C2481 H2488 0.961 . S
C2481 H2489 0.960 . S
C2482 C2480 1.381 . S
C2482 C2483 1.394 . S
C2482 H2490 0.930 . S
C2483 C2482 1.394 . S
C2483 C2484 1.383 . S
C2483 H2491 0.929 . S
C2484 C2483 1.383 . S
C2484 C2485 1.377 . S
C2485 H2469 0.930 . S
C2485 C2484 1.377 . S
C2485 C2486 1.379 . S
C2486 H2470 0.931 1_554 S
C2486 C2480 1.383 . S
C2486 C2485 1.379 . S
H2487 C2481 0.959 . S
H2488 C2481 0.961 . S
H2489 C2481 0.960 . S
H2490 C2482 0.930 . S
H2491 C2483 0.929 . S
H2492 C2500 0.929 . S
H2493 C2502 0.930 . S
H2494 C2504 0.930 . S
H2495 C2507 0.929 . S
H2496 C2510 0.927 . S
H2497 C2512 0.960 . S
H2498 C2512 0.960 . S
H2499 C2512 0.960 . S
C2500 H2492 0.929 . S
C2500 C2501 1.377 . S
C2500 C2502 1.384 . S
C2501 C2500 1.377 . S
C2501 C2507 1.390 . S
C2502 H2493 0.930 . S
C2502 C2500 1.384 . S
C2502 C2503 1.372 . S
C2503 C2502 1.372 . S
C2503 C2504 1.400 . S
C2503 C2508 1.490 . S
C2504 H2494 0.930 . S
C2504 C2503 1.400 . S
C2504 C2507 1.386 . S
H2505 C2521 0.930 . S
H2506 C2522 0.931 . S
C2507 H2495 0.929 . S
C2507 C2501 1.390 . S
C2507 C2504 1.386 . S
C2508 C2503 1.490 . S
C2508 C2510 1.392 . S
C2508 C2511 1.403 . S
H2509 C2515 0.930 . S
C2510 H2496 0.927 . S
C2510 C2508 1.392 . S
C2510 C2513 1.406 1_545 S
C2511 C2508 1.403 . S
C2511 C2512 1.524 . S
C2511 C2515 1.400 1_545 S
C2512 H2497 0.960 . S
C2512 H2498 0.960 . S
C2512 H2499 0.960 . S
C2512 C2511 1.524 . S
C2513 C2510 1.406 1_565 S
C2513 C2514 1.392 . S
C2513 C2517 1.495 . S
C2514 C2513 1.392 . S
C2514 C2515 1.385 . S
C2514 C2516 1.478 . S
C2515 H2509 0.930 . S
C2515 C2511 1.400 1_565 S
C2515 C2514 1.385 . S
C2516 C2514 1.478 . S
C2516 C2518 1.381 . S
C2516 C2522 1.383 . S
C2517 C2513 1.495 . S
C2517 H2523 0.959 . S
C2517 H2524 0.961 . S
C2517 H2525 0.960 . S
C2518 C2516 1.381 . S
C2518 C2519 1.394 . S
C2518 H2526 0.930 . S
C2519 C2518 1.394 . S
C2519 C2520 1.383 . S
C2519 H2527 0.929 . S
C2520 C2519 1.383 . S
C2520 C2521 1.377 . S
C2521 H2505 0.930 . S
C2521 C2520 1.377 . S
C2521 C2522 1.379 . S
C2522 H2506 0.931 . S
C2522 C2516 1.383 . S
C2522 C2521 1.379 . S
H2523 C2517 0.959 . S
H2524 C2517 0.961 . S
H2525 C2517 0.960 . S
H2526 C2518 0.930 . S
H2527 C2519 0.929 . S
H2528 C2536 0.929 . S
H2529 C2538 0.930 . S
H2530 C2540 0.930 . S
H2531 C2543 0.929 . S
H2532 C2546 0.930 . S
H2533 C2548 0.960 . S
H2534 C2548 0.960 . S
H2535 C2548 0.960 . S
C2536 H2528 0.929 . S
C2536 C2537 1.377 . S
C2536 C2538 1.384 . S
C2537 C2536 1.377 . S
C2537 C2543 1.390 . S
C2538 H2529 0.930 . S
C2538 C2536 1.384 . S
C2538 C2539 1.372 . S
C2539 C2538 1.372 . S
C2539 C2540 1.400 . S
C2539 C2544 1.490 . S
C2540 H2530 0.930 . S
C2540 C2539 1.400 . S
C2540 C2543 1.386 . S
H2541 C2557 0.930 . S
H2542 C2558 0.931 . S
C2543 H2531 0.929 . S
C2543 C2537 1.390 . S
C2543 C2540 1.386 . S
C2544 C2539 1.490 . S
C2544 C2546 1.395 1_556 S
C2544 C2547 1.403 . S
H2545 C2551 0.930 . S
C2546 H2532 0.930 . S
C2546 C2544 1.395 1_554 S
C2546 C2549 1.403 . S
C2547 C2544 1.403 . S
C2547 C2548 1.524 . S
C2547 C2551 1.400 . S
C2548 H2533 0.960 . S
C2548 H2534 0.960 . S
C2548 H2535 0.960 . S
C2548 C2547 1.524 . S
C2549 C2546 1.403 . S
C2549 C2550 1.392 . S
C2549 C2553 1.495 . S
C2550 C2549 1.392 . S
C2550 C2551 1.385 1_554 S
C2550 C2552 1.478 . S
C2551 H2545 0.930 . S
C2551 C2547 1.400 . S
C2551 C2550 1.385 1_556 S
C2552 C2550 1.478 . S
C2552 C2554 1.381 . S
C2552 C2558 1.383 . S
C2553 C2549 1.495 . S
C2553 H2559 0.959 . S
C2553 H2560 0.961 . S
C2553 H2561 0.960 . S
C2554 C2552 1.381 . S
C2554 C2555 1.394 . S
C2554 H2562 0.930 . S
C2555 C2554 1.394 . S
C2555 C2556 1.383 . S
C2555 H2563 0.929 . S
C2556 C2555 1.383 . S
C2556 C2557 1.377 . S
C2557 H2541 0.930 . S
C2557 C2556 1.377 . S
C2557 C2558 1.379 . S
C2558 H2542 0.931 . S
C2558 C2552 1.383 . S
C2558 C2557 1.379 . S
H2559 C2553 0.959 . S
H2560 C2553 0.961 . S
H2561 C2553 0.960 . S
H2562 C2554 0.930 . S
H2563 C2555 0.929 . S
H2564 C2572 0.929 . S
H2565 C2574 0.930 . S
H2566 C2576 0.930 . S
H2567 C2579 0.929 . S
H2568 C2582 0.930 . S
H2569 C2584 0.960 . S
H2570 C2584 0.960 . S
H2571 C2584 0.960 . S
C2572 H2564 0.929 . S
C2572 C2573 1.377 . S
C2572 C2574 1.384 . S
C2573 C2572 1.377 . S
C2573 C2579 1.390 . S
C2574 H2565 0.930 . S
C2574 C2572 1.384 . S
C2574 C2575 1.372 . S
C2575 C2574 1.372 . S
C2575 C2576 1.400 . S
C2575 C2580 1.490 . S
C2576 H2566 0.930 . S
C2576 C2575 1.400 . S
C2576 C2579 1.386 . S
H2577 C2593 0.930 . S
H2578 C2594 0.931 . S
C2579 H2567 0.929 . S
C2579 C2573 1.390 . S
C2579 C2576 1.386 . S
C2580 C2575 1.490 . S
C2580 C2582 1.395 . S
C2580 C2583 1.403 . S
H2581 C2587 0.930 . S
C2582 H2568 0.930 . S
C2582 C2580 1.395 . S
C2582 C2585 1.403 . S
C2583 C2580 1.403 . S
C2583 C2584 1.524 . S
C2583 C2587 1.400 . S
C2584 H2569 0.960 . S
C2584 H2570 0.960 . S
C2584 H2571 0.960 . S
C2584 C2583 1.524 . S
C2585 C2582 1.403 . S
C2585 C2586 1.392 . S
C2585 C2589 1.495 . S
C2586 C2585 1.392 . S
C2586 C2587 1.385 . S
C2586 C2588 1.478 . S
C2587 H2581 0.930 . S
C2587 C2583 1.400 . S
C2587 C2586 1.385 . S
C2588 C2586 1.478 . S
C2588 C2590 1.381 . S
C2588 C2594 1.383 . S
C2589 C2585 1.495 . S
C2589 H2595 0.959 . S
C2589 H2596 0.961 . S
C2589 H2597 0.960 . S
C2590 C2588 1.381 . S
C2590 C2591 1.394 . S
C2590 H2598 0.930 . S
C2591 C2590 1.394 . S
C2591 C2592 1.383 . S
C2591 H2599 0.929 . S
C2592 C2591 1.383 . S
C2592 C2593 1.377 . S
C2593 H2577 0.930 . S
C2593 C2592 1.377 . S
C2593 C2594 1.379 . S
C2594 H2578 0.931 . S
C2594 C2588 1.383 . S
C2594 C2593 1.379 . S
H2595 C2589 0.959 . S
H2596 C2589 0.961 . S
H2597 C2589 0.960 . S
H2598 C2590 0.930 . S
H2599 C2591 0.929 . S
H2600 C2608 0.929 . S
H2601 C2610 0.930 . S
H2602 C2612 0.930 . S
H2603 C2615 0.929 . S
H2604 C2618 0.930 . S
H2605 C2620 0.960 . S
H2606 C2620 0.960 . S
H2607 C2620 0.960 . S
C2608 H2600 0.929 . S
C2608 C2609 1.377 . S
C2608 C2610 1.384 . S
C2609 C2608 1.377 . S
C2609 C2615 1.390 . S
C2610 H2601 0.930 . S
C2610 C2608 1.384 . S
C2610 C2611 1.372 . S
C2611 C2610 1.372 . S
C2611 C2612 1.400 . S
C2611 C2616 1.490 . S
C2612 H2602 0.930 . S
C2612 C2611 1.400 . S
C2612 C2615 1.386 . S
H2613 C2629 0.930 . S
H2614 C2630 0.931 . S
C2615 H2603 0.929 . S
C2615 C2609 1.390 . S
C2615 C2612 1.386 . S
C2616 C2611 1.490 . S
C2616 C2618 1.395 . S
C2616 C2619 1.403 . S
H2617 C2623 0.930 . S
C2618 H2604 0.930 . S
C2618 C2616 1.395 . S
C2618 C2621 1.403 . S
C2619 C2616 1.403 . S
C2619 C2620 1.524 . S
C2619 C2623 1.400 . S
C2620 H2605 0.960 . S
C2620 H2606 0.960 . S
C2620 H2607 0.960 . S
C2620 C2619 1.524 . S
C2621 C2618 1.403 . S
C2621 C2622 1.392 . S
C2621 C2625 1.495 . S
C2622 C2621 1.392 . S
C2622 C2623 1.385 . S
C2622 C2624 1.478 . S
C2623 H2617 0.930 . S
C2623 C2619 1.400 . S
C2623 C2622 1.385 . S
C2624 C2622 1.478 . S
C2624 C2626 1.381 . S
C2624 C2630 1.383 . S
C2625 C2621 1.495 . S
C2625 H2631 0.959 . S
C2625 H2632 0.961 . S
C2625 H2633 0.960 . S
C2626 C2624 1.381 . S
C2626 C2627 1.394 . S
C2626 H2634 0.930 . S
C2627 C2626 1.394 . S
C2627 C2628 1.383 . S
C2627 H2635 0.929 . S
C2628 C2627 1.383 . S
C2628 C2629 1.377 . S
C2629 H2613 0.930 . S
C2629 C2628 1.377 . S
C2629 C2630 1.379 . S
C2630 H2614 0.931 . S
C2630 C2624 1.383 . S
C2630 C2629 1.379 . S
H2631 C2625 0.959 . S
H2632 C2625 0.961 . S
H2633 C2625 0.960 . S
H2634 C2626 0.930 . S
H2635 C2627 0.929 . S
H2636 C2644 0.929 . S
H2637 C2646 0.930 . S
H2638 C2648 0.930 . S
H2639 C2651 0.929 . S
H2640 C2654 0.930 . S
H2641 C2656 0.960 . S
H2642 C2656 0.960 . S
H2643 C2656 0.960 . S
C2644 H2636 0.929 . S
C2644 C2645 1.377 . S
C2644 C2646 1.384 . S
C2645 C2644 1.377 . S
C2645 C2651 1.390 . S
C2646 H2637 0.930 . S
C2646 C2644 1.384 . S
C2646 C2647 1.372 . S
C2647 C2646 1.372 . S
C2647 C2648 1.400 . S
C2647 C2652 1.490 . S
C2648 H2638 0.930 . S
C2648 C2647 1.400 . S
C2648 C2651 1.386 . S
H2649 C2665 0.930 . S
H2650 C2666 0.931 . S
C2651 H2639 0.929 . S
C2651 C2645 1.390 . S
C2651 C2648 1.386 . S
C2652 C2647 1.490 . S
C2652 C2654 1.395 . S
C2652 C2655 1.403 . S
H2653 C2659 0.930 . S
C2654 H2640 0.930 . S
C2654 C2652 1.395 . S
C2654 C2657 1.403 . S
C2655 C2652 1.403 . S
C2655 C2656 1.524 . S
C2655 C2659 1.400 . S
C2656 H2641 0.960 . S
C2656 H2642 0.960 . S
C2656 H2643 0.960 . S
C2656 C2655 1.524 . S
C2657 C2654 1.403 . S
C2657 C2658 1.392 . S
C2657 C2661 1.495 . S
C2658 C2657 1.392 . S
C2658 C2659 1.385 . S
C2658 C2660 1.478 . S
C2659 H2653 0.930 . S
C2659 C2655 1.400 . S
C2659 C2658 1.385 . S
C2660 C2658 1.478 . S
C2660 C2662 1.381 . S
C2660 C2666 1.383 . S
C2661 C2657 1.495 . S
C2661 H2667 0.959 . S
C2661 H2668 0.961 . S
C2661 H2669 0.960 . S
C2662 C2660 1.381 . S
C2662 C2663 1.394 . S
C2662 H2670 0.930 . S
C2663 C2662 1.394 . S
C2663 C2664 1.383 . S
C2663 H2671 0.929 . S
C2664 C2663 1.383 . S
C2664 C2665 1.377 . S
C2665 H2649 0.930 . S
C2665 C2664 1.377 . S
C2665 C2666 1.379 . S
C2666 H2650 0.931 . S
C2666 C2660 1.383 . S
C2666 C2665 1.379 . S
H2667 C2661 0.959 . S
H2668 C2661 0.961 . S
H2669 C2661 0.960 . S
H2670 C2662 0.930 . S
H2671 C2663 0.929 . S
H2672 C2680 0.929 . S
H2673 C2682 0.930 . S
H2674 C2684 0.901 1_554 S
H2675 C2687 0.929 . S
H2676 C2690 0.930 . S
H2677 C2692 0.960 . S
H2678 C2692 0.960 . S
H2679 C2692 0.960 . S
C2680 H2672 0.929 . S
C2680 C2681 1.377 . S
C2680 C2682 1.384 . S
C2681 C2680 1.377 . S
C2681 C2687 1.390 . S
C2682 H2673 0.930 . S
C2682 C2680 1.384 . S
C2682 C2683 1.372 . S
C2683 C2682 1.372 . S
C2683 C2684 1.400 . S
C2683 C2688 1.490 . S
C2684 H2674 0.901 1_556 S
C2684 C2683 1.400 . S
C2684 C2687 1.386 . S
H2685 C2701 0.930 . S
H2686 C2702 0.931 . S
C2687 H2675 0.929 . S
C2687 C2681 1.390 . S
C2687 C2684 1.386 . S
C2688 C2683 1.490 . S
C2688 C2690 1.395 . S
C2688 C2691 1.403 1_556 S
H2689 C2695 0.930 . S
C2690 H2676 0.930 . S
C2690 C2688 1.395 . S
C2690 C2693 1.403 . S
C2691 C2688 1.403 1_554 S
C2691 C2692 1.524 . S
C2691 C2695 1.400 . S
C2692 H2677 0.960 . S
C2692 H2678 0.960 . S
C2692 H2679 0.960 . S
C2692 C2691 1.524 . S
C2693 C2690 1.403 . S
C2693 C2694 1.392 1_556 S
C2693 C2697 1.495 . S
C2694 C2693 1.392 1_554 S
C2694 C2695 1.385 . S
C2694 C2696 1.478 . S
C2695 H2689 0.930 . S
C2695 C2691 1.400 . S
C2695 C2694 1.385 . S
C2696 C2694 1.478 . S
C2696 C2698 1.381 . S
C2696 C2702 1.383 . S
C2697 C2693 1.495 . S
C2697 H2703 0.959 . S
C2697 H2704 0.961 . S
C2697 H2705 0.960 . S
C2698 C2696 1.381 . S
C2698 C2699 1.394 . S
C2698 H2706 0.930 1_554 S
C2699 C2698 1.394 . S
C2699 C2700 1.383 . S
C2699 H2707 0.929 . S
C2700 C2699 1.383 . S
C2700 C2701 1.377 . S
C2701 H2685 0.930 . S
C2701 C2700 1.377 . S
C2701 C2702 1.379 . S
C2702 H2686 0.931 . S
C2702 C2696 1.383 . S
C2702 C2701 1.379 . S
H2703 C2697 0.959 . S
H2704 C2697 0.961 . S
H2705 C2697 0.960 . S
H2706 C2698 0.930 1_556 S
H2707 C2699 0.929 . S
H2708 C2716 0.929 . S
H2709 C2718 0.930 . S
H2710 C2720 0.930 . S
H2711 C2723 0.929 . S
H2712 C2726 0.930 . S
H2713 C2728 0.960 . S
H2714 C2728 0.960 . S
H2715 C2728 0.960 . S
C2716 H2708 0.929 . S
C2716 C2717 1.377 . S
C2716 C2718 1.384 . S
C2717 C2716 1.377 . S
C2717 C2723 1.390 . S
C2718 H2709 0.930 . S
C2718 C2716 1.384 . S
C2718 C2719 1.372 . S
C2719 C2718 1.372 . S
C2719 C2720 1.400 . S
C2719 C2724 1.490 . S
C2720 H2710 0.930 . S
C2720 C2719 1.400 . S
C2720 C2723 1.386 . S
H2721 C2737 0.930 . S
H2722 C2738 0.931 . S
C2723 H2711 0.929 . S
C2723 C2717 1.390 . S
C2723 C2720 1.386 . S
C2724 C2719 1.490 . S
C2724 C2726 1.395 . S
C2724 C2727 1.403 . S
H2725 C2731 0.930 . S
C2726 H2712 0.930 . S
C2726 C2724 1.395 . S
C2726 C2729 1.403 . S
C2727 C2724 1.403 . S
C2727 C2728 1.524 . S
C2727 C2731 1.400 . S
C2728 H2713 0.960 . S
C2728 H2714 0.960 . S
C2728 H2715 0.960 . S
C2728 C2727 1.524 . S
C2729 C2726 1.403 . S
C2729 C2730 1.392 . S
C2729 C2733 1.495 . S
C2730 C2729 1.392 . S
C2730 C2731 1.385 . S
C2730 C2732 1.478 . S
C2731 H2725 0.930 . S
C2731 C2727 1.400 . S
C2731 C2730 1.385 . S
C2732 C2730 1.478 . S
C2732 C2734 1.381 . S
C2732 C2738 1.383 . S
C2733 C2729 1.495 . S
C2733 H2739 0.959 . S
C2733 H2740 0.961 . S
C2733 H2741 0.960 . S
C2734 C2732 1.381 . S
C2734 C2735 1.394 . S
C2734 H2742 0.930 . S
C2735 C2734 1.394 . S
C2735 C2736 1.383 . S
C2735 H2743 0.929 . S
C2736 C2735 1.383 . S
C2736 C2737 1.377 . S
C2737 H2721 0.930 . S
C2737 C2736 1.377 . S
C2737 C2738 1.379 . S
C2738 H2722 0.931 . S
C2738 C2732 1.383 . S
C2738 C2737 1.379 . S
H2739 C2733 0.959 . S
H2740 C2733 0.961 . S
H2741 C2733 0.960 . S
H2742 C2734 0.930 . S
H2743 C2735 0.929 . S
H2744 C2752 0.929 . S
H2745 C2754 0.930 . S
H2746 C2756 0.930 . S
H2747 C2759 0.929 . S
H2748 C2762 0.930 . S
H2749 C2764 0.960 . S
H2750 C2764 0.960 . S
H2751 C2764 0.960 . S
C2752 H2744 0.929 . S
C2752 C2753 1.377 . S
C2752 C2754 1.384 . S
C2753 C2752 1.377 . S
C2753 C2759 1.390 . S
C2754 H2745 0.930 . S
C2754 C2752 1.384 . S
C2754 C2755 1.372 . S
C2755 C2754 1.372 . S
C2755 C2756 1.400 . S
C2755 C2760 1.490 . S
C2756 H2746 0.930 . S
C2756 C2755 1.400 . S
C2756 C2759 1.386 . S
H2757 C2773 0.930 . S
H2758 C2774 0.931 . S
C2759 H2747 0.929 . S
C2759 C2753 1.390 . S
C2759 C2756 1.386 . S
C2760 C2755 1.490 . S
C2760 C2762 1.395 . S
C2760 C2763 1.403 . S
H2761 C2767 0.930 . S
C2762 H2748 0.930 . S
C2762 C2760 1.395 . S
C2762 C2765 1.403 . S
C2763 C2760 1.403 . S
C2763 C2764 1.524 . S
C2763 C2767 1.400 . S
C2764 H2749 0.960 . S
C2764 H2750 0.960 . S
C2764 H2751 0.960 . S
C2764 C2763 1.524 . S
C2765 C2762 1.403 . S
C2765 C2766 1.392 . S
C2765 C2769 1.495 . S
C2766 C2765 1.392 . S
C2766 C2767 1.385 . S
C2766 C2768 1.478 . S
C2767 H2761 0.930 . S
C2767 C2763 1.400 . S
C2767 C2766 1.385 . S
C2768 C2766 1.478 . S
C2768 C2770 1.381 . S
C2768 C2774 1.383 . S
C2769 C2765 1.495 . S
C2769 H2775 0.959 . S
C2769 H2776 0.961 . S
C2769 H2777 0.960 . S
C2770 C2768 1.381 . S
C2770 C2771 1.394 . S
C2770 H2778 0.930 . S
C2771 C2770 1.394 . S
C2771 C2772 1.383 . S
C2771 H2779 0.929 . S
C2772 C2771 1.383 . S
C2772 C2773 1.377 . S
C2773 H2757 0.930 . S
C2773 C2772 1.377 . S
C2773 C2774 1.379 . S
C2774 H2758 0.931 . S
C2774 C2768 1.383 . S
C2774 C2773 1.379 . S
H2775 C2769 0.959 . S
H2776 C2769 0.961 . S
H2777 C2769 0.960 . S
H2778 C2770 0.930 . S
H2779 C2771 0.929 . S
H2780 C2788 0.929 . S
H2781 C2790 0.930 . S
H2782 C2792 0.930 . S
H2783 C2795 0.929 . S
H2784 C2798 0.930 . S
H2785 C2800 0.960 . S
H2786 C2800 0.960 . S
H2787 C2800 0.960 . S
C2788 H2780 0.929 . S
C2788 C2789 1.377 . S
C2788 C2790 1.384 . S
C2789 C2788 1.377 . S
C2789 C2795 1.390 . S
C2790 H2781 0.930 . S
C2790 C2788 1.384 . S
C2790 C2791 1.372 . S
C2791 C2790 1.372 . S
C2791 C2792 1.400 . S
C2791 C2796 1.490 . S
C2792 H2782 0.930 . S
C2792 C2791 1.400 . S
C2792 C2795 1.386 . S
H2793 C2809 0.930 . S
H2794 C2810 0.931 . S
C2795 H2783 0.929 . S
C2795 C2789 1.390 . S
C2795 C2792 1.386 . S
C2796 C2791 1.490 . S
C2796 C2798 1.395 . S
C2796 C2799 1.403 . S
H2797 C2803 0.930 . S
C2798 H2784 0.930 . S
C2798 C2796 1.395 . S
C2798 C2801 1.403 . S
C2799 C2796 1.403 . S
C2799 C2800 1.524 . S
C2799 C2803 1.400 . S
C2800 H2785 0.960 . S
C2800 H2786 0.960 . S
C2800 H2787 0.960 . S
C2800 C2799 1.524 . S
C2801 C2798 1.403 . S
C2801 C2802 1.392 . S
C2801 C2805 1.495 . S
C2802 C2801 1.392 . S
C2802 C2803 1.385 . S
C2802 C2804 1.478 . S
C2803 H2797 0.930 . S
C2803 C2799 1.400 . S
C2803 C2802 1.385 . S
C2804 C2802 1.478 . S
C2804 C2806 1.381 . S
C2804 C2810 1.383 . S
C2805 C2801 1.495 . S
C2805 H2811 0.959 . S
C2805 H2812 0.961 . S
C2805 H2813 0.960 . S
C2806 C2804 1.381 . S
C2806 C2807 1.394 . S
C2806 H2814 0.930 . S
C2807 C2806 1.394 . S
C2807 C2808 1.383 . S
C2807 H2815 0.929 . S
C2808 C2807 1.383 . S
C2808 C2809 1.377 . S
C2809 H2793 0.930 . S
C2809 C2808 1.377 . S
C2809 C2810 1.379 . S
C2810 H2794 0.931 . S
C2810 C2804 1.383 . S
C2810 C2809 1.379 . S
H2811 C2805 0.959 . S
H2812 C2805 0.961 . S
H2813 C2805 0.960 . S
H2814 C2806 0.930 . S
H2815 C2807 0.929 . S
H2816 C2824 0.929 . S
H2817 C2826 0.930 . S
H2818 C2828 0.930 . S
H2819 C2831 0.929 . S
H2820 C2834 0.930 . S
H2821 C2836 0.960 . S
H2822 C2836 0.960 . S
H2823 C2836 0.960 . S
C2824 H2816 0.929 . S
C2824 C2825 1.377 . S
C2824 C2826 1.384 . S
C2825 C2824 1.377 . S
C2825 C2831 1.390 . S
C2826 H2817 0.930 . S
C2826 C2824 1.384 . S
C2826 C2827 1.372 . S
C2827 C2826 1.372 . S
C2827 C2828 1.400 . S
C2827 C2832 1.490 . S
C2828 H2818 0.930 . S
C2828 C2827 1.400 . S
C2828 C2831 1.386 . S
H2829 C2845 0.930 . S
H2830 C2846 0.931 . S
C2831 H2819 0.929 . S
C2831 C2825 1.390 . S
C2831 C2828 1.386 . S
C2832 C2827 1.490 . S
C2832 C2834 1.395 . S
C2832 C2835 1.403 . S
H2833 C2839 0.930 . S
C2834 H2820 0.930 . S
C2834 C2832 1.395 . S
C2834 C2837 1.403 . S
C2835 C2832 1.403 . S
C2835 C2836 1.524 . S
C2835 C2839 1.400 . S
C2836 H2821 0.960 . S
C2836 H2822 0.960 . S
C2836 H2823 0.960 . S
C2836 C2835 1.524 . S
C2837 C2834 1.403 . S
C2837 C2838 1.392 . S
C2837 C2841 1.495 . S
C2838 C2837 1.392 . S
C2838 C2839 1.385 . S
C2838 C2840 1.478 . S
C2839 H2833 0.930 . S
C2839 C2835 1.400 . S
C2839 C2838 1.385 . S
C2840 C2838 1.478 . S
C2840 C2842 1.381 . S
C2840 C2846 1.383 . S
C2841 C2837 1.495 . S
C2841 H2847 0.959 . S
C2841 H2848 0.961 . S
C2841 H2849 0.960 . S
C2842 C2840 1.381 . S
C2842 C2843 1.394 . S
C2842 H2850 0.930 . S
C2843 C2842 1.394 . S
C2843 C2844 1.383 . S
C2843 H2851 0.929 . S
C2844 C2843 1.383 . S
C2844 C2845 1.377 . S
C2845 H2829 0.930 . S
C2845 C2844 1.377 . S
C2845 C2846 1.379 . S
C2846 H2830 0.931 . S
C2846 C2840 1.383 . S
C2846 C2845 1.379 . S
H2847 C2841 0.959 . S
H2848 C2841 0.961 . S
H2849 C2841 0.960 . S
H2850 C2842 0.930 . S
H2851 C2843 0.929 . S
H2852 C2860 0.929 . S
H2853 C2862 0.930 . S
H2854 C2864 0.930 . S
H2855 C2867 0.929 . S
H2856 C2870 0.930 . S
H2857 C2872 0.960 . S
H2858 C2872 0.960 . S
H2859 C2872 0.960 . S
C2860 H2852 0.929 . S
C2860 C2861 1.377 . S
C2860 C2862 1.384 . S
C2861 C2860 1.377 . S
C2861 C2867 1.390 . S
C2862 H2853 0.930 . S
C2862 C2860 1.384 . S
C2862 C2863 1.372 . S
C2863 C2862 1.372 . S
C2863 C2864 1.400 . S
C2863 C2868 1.490 . S
C2864 H2854 0.930 . S
C2864 C2863 1.400 . S
C2864 C2867 1.386 . S
H2865 C2881 0.930 . S
H2866 C2882 0.931 . S
C2867 H2855 0.929 . S
C2867 C2861 1.390 . S
C2867 C2864 1.386 . S
C2868 C2863 1.490 . S
C2868 C2870 1.395 . S
C2868 C2871 1.403 . S
H2869 C2875 0.930 . S
C2870 H2856 0.930 . S
C2870 C2868 1.395 . S
C2870 C2873 1.338 1_655 S
C2871 C2868 1.403 . S
C2871 C2872 1.524 . S
C2871 C2875 1.400 1_655 S
C2872 H2857 0.960 . S
C2872 H2858 0.960 . S
C2872 H2859 0.960 . S
C2872 C2871 1.524 . S
C2873 C2870 1.338 1_455 S
C2873 C2874 1.433 . S
C2873 C2877 1.520 . S
C2874 C2873 1.433 . S
C2874 C2875 1.385 . S
C2874 C2876 1.478 . S
C2875 H2869 0.930 . S
C2875 C2871 1.400 1_455 S
C2875 C2874 1.385 . S
C2876 C2874 1.478 . S
C2876 C2878 1.381 . S
C2876 C2882 1.383 . S
C2877 C2873 1.520 . S
C2877 H2883 0.959 1_455 S
C2877 H2884 0.961 . S
C2877 H2885 0.960 . S
C2878 C2876 1.381 . S
C2878 C2879 1.394 . S
C2878 H2886 0.930 . S
C2879 C2878 1.394 . S
C2879 C2880 1.383 . S
C2879 H2887 0.929 . S
C2880 C2879 1.383 . S
C2880 C2881 1.377 . S
C2881 H2865 0.930 . S
C2881 C2880 1.377 . S
C2881 C2882 1.379 . S
C2882 H2866 0.931 . S
C2882 C2876 1.383 . S
C2882 C2881 1.379 . S
H2883 C2877 0.959 1_655 S
H2884 C2877 0.961 . S
H2885 C2877 0.960 . S
H2886 C2878 0.930 . S
H2887 C2879 0.929 . S
H2888 C2896 0.929 . S
H2889 C2898 0.930 . S
H2890 C2900 0.930 . S
H2891 C2903 0.929 . S
H2892 C2906 0.930 . S
H2893 C2908 0.960 . S
H2894 C2908 0.960 . S
H2895 C2908 0.960 . S
C2896 H2888 0.929 . S
C2896 C2897 1.377 . S
C2896 C2898 1.384 . S
C2897 C2896 1.377 . S
C2897 C2903 1.390 . S
C2898 H2889 0.930 . S
C2898 C2896 1.384 . S
C2898 C2899 1.372 . S
C2899 C2898 1.372 . S
C2899 C2900 1.400 . S
C2899 C2904 1.490 . S
C2900 H2890 0.930 . S
C2900 C2899 1.400 . S
C2900 C2903 1.386 . S
H2901 C2917 0.930 . S
H2902 C2918 0.931 . S
C2903 H2891 0.929 . S
C2903 C2897 1.390 . S
C2903 C2900 1.386 . S
C2904 C2899 1.490 . S
C2904 C2906 1.395 . S
C2904 C2907 1.403 . S
H2905 C2911 0.930 . S
C2906 H2892 0.930 . S
C2906 C2904 1.395 . S
C2906 C2909 1.403 . S
C2907 C2904 1.403 . S
C2907 C2908 1.524 . S
C2907 C2911 1.400 . S
C2908 H2893 0.960 . S
C2908 H2894 0.960 . S
C2908 H2895 0.960 . S
C2908 C2907 1.524 . S
C2909 C2906 1.403 . S
C2909 C2910 1.392 . S
C2909 C2913 1.495 . S
C2910 C2909 1.392 . S
C2910 C2911 1.385 . S
C2910 C2912 1.478 . S
C2911 H2905 0.930 . S
C2911 C2907 1.400 . S
C2911 C2910 1.385 . S
C2912 C2910 1.478 . S
C2912 C2914 1.381 . S
C2912 C2918 1.383 . S
C2913 C2909 1.495 . S
C2913 H2919 0.959 . S
C2913 H2920 0.961 . S
C2913 H2921 0.960 . S
C2914 C2912 1.381 . S
C2914 C2915 1.394 . S
C2914 H2922 0.930 . S
C2915 C2914 1.394 . S
C2915 C2916 1.383 . S
C2915 H2923 0.929 . S
C2916 C2915 1.383 . S
C2916 C2917 1.377 . S
C2917 H2901 0.930 . S
C2917 C2916 1.377 . S
C2917 C2918 1.379 . S
C2918 H2902 0.931 . S
C2918 C2912 1.383 . S
C2918 C2917 1.379 . S
H2919 C2913 0.959 . S
H2920 C2913 0.961 . S
H2921 C2913 0.960 . S
H2922 C2914 0.930 . S
H2923 C2915 0.929 . S
H2924 C2932 0.929 . S
H2925 C2934 0.930 . S
H2926 C2936 0.930 . S
H2927 C2939 0.929 . S
H2928 C2942 0.930 . S
H2929 C2944 0.960 . S
H2930 C2944 0.960 . S
H2931 C2944 0.960 . S
C2932 H2924 0.929 . S
C2932 C2933 1.377 . S
C2932 C2934 1.384 . S
C2933 C2932 1.377 . S
C2933 C2939 1.390 . S
C2934 H2925 0.930 . S
C2934 C2932 1.384 . S
C2934 C2935 1.372 . S
C2935 C2934 1.372 . S
C2935 C2936 1.400 . S
C2935 C2940 1.490 . S
C2936 H2926 0.930 . S
C2936 C2935 1.400 . S
C2936 C2939 1.386 . S
H2937 C2953 0.930 . S
H2938 C2954 0.931 . S
C2939 H2927 0.929 . S
C2939 C2933 1.390 . S
C2939 C2936 1.386 . S
C2940 C2935 1.490 . S
C2940 C2942 1.395 . S
C2940 C2943 1.403 . S
H2941 C2947 0.930 . S
C2942 H2928 0.930 . S
C2942 C2940 1.395 . S
C2942 C2945 1.403 . S
C2943 C2940 1.403 . S
C2943 C2944 1.524 . S
C2943 C2947 1.400 . S
C2944 H2929 0.960 . S
C2944 H2930 0.960 . S
C2944 H2931 0.960 . S
C2944 C2943 1.524 . S
C2945 C2942 1.403 . S
C2945 C2946 1.392 . S
C2945 C2949 1.495 . S
C2946 C2945 1.392 . S
C2946 C2947 1.385 . S
C2946 C2948 1.478 . S
C2947 H2941 0.930 . S
C2947 C2943 1.400 . S
C2947 C2946 1.385 . S
C2948 C2946 1.478 . S
C2948 C2950 1.381 . S
C2948 C2954 1.383 . S
C2949 C2945 1.495 . S
C2949 H2955 0.959 . S
C2949 H2956 0.961 . S
C2949 H2957 0.960 . S
C2950 C2948 1.381 . S
C2950 C2951 1.394 . S
C2950 H2958 0.930 . S
C2951 C2950 1.394 . S
C2951 C2952 1.383 . S
C2951 H2959 0.929 . S
C2952 C2951 1.383 . S
C2952 C2953 1.377 . S
C2953 H2937 0.930 . S
C2953 C2952 1.377 . S
C2953 C2954 1.379 . S
C2954 H2938 0.931 . S
C2954 C2948 1.383 . S
C2954 C2953 1.379 . S
H2955 C2949 0.959 . S
H2956 C2949 0.961 . S
H2957 C2949 0.960 . S
H2958 C2950 0.930 . S
H2959 C2951 0.929 . S
H2960 C2968 0.929 . S
H2961 C2970 0.930 . S
H2962 C2972 0.930 . S
H2963 C2975 0.929 . S
H2964 C2978 0.930 . S
H2965 C2980 0.960 . S
H2966 C2980 0.960 . S
H2967 C2980 0.960 . S
C2968 H2960 0.929 . S
C2968 C2969 1.377 . S
C2968 C2970 1.384 . S
C2969 C2968 1.377 . S
C2969 C2975 1.390 . S
C2970 H2961 0.930 . S
C2970 C2968 1.384 . S
C2970 C2971 1.372 . S
C2971 C2970 1.372 . S
C2971 C2972 1.400 . S
C2971 C2976 1.490 . S
C2972 H2962 0.930 . S
C2972 C2971 1.400 . S
C2972 C2975 1.386 . S
H2973 C2989 0.930 . S
H2974 C2990 0.931 . S
C2975 H2963 0.929 . S
C2975 C2969 1.390 . S
C2975 C2972 1.386 . S
C2976 C2971 1.490 . S
C2976 C2978 1.395 . S
C2976 C2979 1.403 . S
H2977 C2983 0.930 . S
C2978 H2964 0.930 . S
C2978 C2976 1.395 . S
C2978 C2981 1.403 . S
C2979 C2976 1.403 . S
C2979 C2980 1.524 . S
C2979 C2983 1.400 . S
C2980 H2965 0.960 . S
C2980 H2966 0.960 . S
C2980 H2967 0.960 . S
C2980 C2979 1.524 . S
C2981 C2978 1.403 . S
C2981 C2982 1.392 . S
C2981 C2985 1.495 . S
C2982 C2981 1.392 . S
C2982 C2983 1.385 . S
C2982 C2984 1.478 . S
C2983 H2977 0.930 . S
C2983 C2979 1.400 . S
C2983 C2982 1.385 . S
C2984 C2982 1.478 . S
C2984 C2986 1.381 . S
C2984 C2990 1.383 . S
C2985 C2981 1.495 . S
C2985 H2991 0.959 . S
C2985 H2992 0.961 . S
C2985 H2993 0.960 . S
C2986 C2984 1.381 . S
C2986 C2987 1.394 . S
C2986 H2994 0.930 . S
C2987 C2986 1.394 . S
C2987 C2988 1.383 . S
C2987 H2995 0.929 . S
C2988 C2987 1.383 . S
C2988 C2989 1.377 . S
C2989 H2973 0.930 . S
C2989 C2988 1.377 . S
C2989 C2990 1.379 . S
C2990 H2974 0.931 . S
C2990 C2984 1.383 . S
C2990 C2989 1.379 . S
H2991 C2985 0.959 . S
H2992 C2985 0.961 . S
H2993 C2985 0.960 . S
H2994 C2986 0.930 . S
H2995 C2987 0.929 . S
H2996 C3004 0.929 . S
H2997 C3006 0.930 . S
H2998 C3008 0.930 . S
H2999 C3011 0.929 . S
H3000 C3014 0.930 . S
H3001 C3016 0.960 . S
H3002 C3016 0.960 . S
H3003 C3016 0.960 . S
C3004 H2996 0.929 . S
C3004 C3005 1.377 . S
C3004 C3006 1.384 . S
C3005 C3004 1.377 . S
C3005 C3011 1.390 . S
C3006 H2997 0.930 . S
C3006 C3004 1.384 . S
C3006 C3007 1.372 . S
C3007 C3006 1.372 . S
C3007 C3008 1.400 . S
C3007 C3012 1.490 . S
C3008 H2998 0.930 . S
C3008 C3007 1.400 . S
C3008 C3011 1.386 . S
H3009 C3025 0.930 . S
H3010 C3026 0.931 . S
C3011 H2999 0.929 . S
C3011 C3005 1.390 . S
C3011 C3008 1.386 . S
C3012 C3007 1.490 . S
C3012 C3014 1.395 . S
C3012 C3015 1.403 . S
H3013 C3019 0.930 . S
C3014 H3000 0.930 . S
C3014 C3012 1.395 . S
C3014 C3017 1.403 . S
C3015 C3012 1.403 . S
C3015 C3016 1.524 . S
C3015 C3019 1.400 . S
C3016 H3001 0.960 . S
C3016 H3002 0.960 . S
C3016 H3003 0.960 . S
C3016 C3015 1.524 . S
C3017 C3014 1.403 . S
C3017 C3018 1.392 . S
C3017 C3021 1.495 . S
C3018 C3017 1.392 . S
C3018 C3019 1.385 . S
C3018 C3020 1.478 . S
C3019 H3013 0.930 . S
C3019 C3015 1.400 . S
C3019 C3018 1.385 . S
C3020 C3018 1.478 . S
C3020 C3022 1.381 . S
C3020 C3026 1.383 . S
C3021 C3017 1.495 . S
C3021 H3027 0.959 . S
C3021 H3028 0.961 . S
C3021 H3029 0.960 . S
C3022 C3020 1.381 . S
C3022 C3023 1.394 . S
C3022 H3030 0.930 . S
C3023 C3022 1.394 . S
C3023 C3024 1.383 . S
C3023 H3031 0.929 . S
C3024 C3023 1.383 . S
C3024 C3025 1.377 . S
C3025 H3009 0.930 . S
C3025 C3024 1.377 . S
C3025 C3026 1.379 . S
C3026 H3010 0.931 . S
C3026 C3020 1.383 . S
C3026 C3025 1.379 . S
H3027 C3021 0.959 . S
H3028 C3021 0.961 . S
H3029 C3021 0.960 . S
H3030 C3022 0.930 . S
H3031 C3023 0.929 . S
H3032 C3040 0.929 . S
H3033 C3042 0.930 . S
H3034 C3044 0.930 . S
H3035 C3047 0.929 . S
H3036 C3050 0.930 . S
H3037 C3052 0.960 . S
H3038 C3052 0.960 . S
H3039 C3052 0.960 . S
C3040 H3032 0.929 . S
C3040 C3041 1.377 . S
C3040 C3042 1.384 . S
C3041 C3040 1.377 . S
C3041 C3047 1.390 . S
C3042 H3033 0.930 . S
C3042 C3040 1.384 . S
C3042 C3043 1.372 . S
C3043 C3042 1.372 . S
C3043 C3044 1.400 . S
C3043 C3048 1.490 . S
C3044 H3034 0.930 . S
C3044 C3043 1.400 . S
C3044 C3047 1.386 . S
H3045 C3061 0.930 . S
H3046 C3062 0.931 . S
C3047 H3035 0.929 . S
C3047 C3041 1.390 . S
C3047 C3044 1.386 . S
C3048 C3043 1.490 . S
C3048 C3050 1.395 . S
C3048 C3051 1.403 . S
H3049 C3055 0.930 . S
C3050 H3036 0.930 . S
C3050 C3048 1.395 . S
C3050 C3053 1.403 . S
C3051 C3048 1.403 . S
C3051 C3052 1.524 . S
C3051 C3055 1.400 . S
C3052 H3037 0.960 . S
C3052 H3038 0.960 . S
C3052 H3039 0.960 . S
C3052 C3051 1.524 . S
C3053 C3050 1.403 . S
C3053 C3054 1.392 . S
C3053 C3057 1.495 . S
C3054 C3053 1.392 . S
C3054 C3055 1.385 . S
C3054 C3056 1.478 . S
C3055 H3049 0.930 . S
C3055 C3051 1.400 . S
C3055 C3054 1.385 . S
C3056 C3054 1.478 . S
C3056 C3058 1.381 . S
C3056 C3062 1.383 . S
C3057 C3053 1.495 . S
C3057 H3063 0.959 . S
C3057 H3064 0.961 . S
C3057 H3065 0.960 . S
C3058 C3056 1.381 . S
C3058 C3059 1.394 . S
C3058 H3066 0.930 . S
C3059 C3058 1.394 . S
C3059 C3060 1.383 . S
C3059 H3067 0.929 . S
C3060 C3059 1.383 . S
C3060 C3061 1.377 . S
C3061 H3045 0.930 . S
C3061 C3060 1.377 . S
C3061 C3062 1.379 . S
C3062 H3046 0.931 . S
C3062 C3056 1.383 . S
C3062 C3061 1.379 . S
H3063 C3057 0.959 . S
H3064 C3057 0.961 . S
H3065 C3057 0.960 . S
H3066 C3058 0.930 . S
H3067 C3059 0.929 . S
H3068 C3076 0.929 . S
H3069 C3078 0.930 . S
H3070 C3080 0.930 . S
H3071 C3083 0.929 . S
H3072 C3086 0.930 . S
H3073 C3088 0.960 . S
H3074 C3088 0.960 . S
H3075 C3088 0.960 . S
C3076 H3068 0.929 . S
C3076 C3077 1.377 . S
C3076 C3078 1.384 . S
C3077 C3076 1.377 . S
C3077 C3083 1.390 . S
C3078 H3069 0.930 . S
C3078 C3076 1.384 . S
C3078 C3079 1.372 . S
C3079 C3078 1.372 . S
C3079 C3080 1.400 . S
C3079 C3084 1.490 . S
C3080 H3070 0.930 . S
C3080 C3079 1.400 . S
C3080 C3083 1.386 . S
H3081 C3097 0.930 . S
H3082 C3098 0.931 . S
C3083 H3071 0.929 . S
C3083 C3077 1.390 . S
C3083 C3080 1.386 . S
C3084 C3079 1.490 . S
C3084 C3086 1.395 . S
C3084 C3087 1.403 . S
H3085 C3091 0.930 . S
C3086 H3072 0.930 . S
C3086 C3084 1.395 . S
C3086 C3089 1.369 1_655 S
C3087 C3084 1.403 . S
C3087 C3088 1.524 . S
C3087 C3091 1.400 1_655 S
C3088 H3073 0.960 . S
C3088 H3074 0.960 . S
C3088 H3075 0.960 . S
C3088 C3087 1.524 . S
C3089 C3086 1.369 1_455 S
C3089 C3090 1.414 . S
C3089 C3093 1.507 . S
C3090 C3089 1.414 . S
C3090 C3091 1.385 . S
C3090 C3092 1.478 . S
C3091 H3085 0.930 . S
C3091 C3087 1.400 1_455 S
C3091 C3090 1.385 . S
C3092 C3090 1.478 . S
C3092 C3094 1.381 . S
C3092 C3098 1.383 . S
C3093 C3089 1.507 . S
C3093 H3099 0.959 1_455 S
C3093 H3100 0.961 . S
C3093 H3101 0.960 . S
C3094 C3092 1.381 . S
C3094 C3095 1.394 . S
C3094 H3102 0.930 . S
C3095 C3094 1.394 . S
C3095 C3096 1.383 . S
C3095 H3103 0.929 . S
C3096 C3095 1.383 . S
C3096 C3097 1.377 . S
C3097 H3081 0.930 . S
C3097 C3096 1.377 . S
C3097 C3098 1.379 . S
C3098 H3082 0.931 . S
C3098 C3092 1.383 . S
C3098 C3097 1.379 . S
H3099 C3093 0.959 1_655 S
H3100 C3093 0.961 . S
H3101 C3093 0.960 . S
H3102 C3094 0.930 . S
H3103 C3095 0.929 . S
H3104 C3112 0.929 . S
H3105 C3114 0.930 . S
H3106 C3116 0.930 . S
H3107 C3119 0.929 . S
H3108 C3122 0.930 . S
H3109 C3124 0.960 . S
H3110 C3124 0.960 . S
H3111 C3124 0.960 . S
C3112 H3104 0.929 . S
C3112 C3113 1.377 . S
C3112 C3114 1.384 . S
C3113 C3112 1.377 . S
C3113 C3119 1.390 . S
C3114 H3105 0.930 . S
C3114 C3112 1.384 . S
C3114 C3115 1.372 . S
C3115 C3114 1.372 . S
C3115 C3116 1.400 . S
C3115 C3120 1.490 . S
C3116 H3106 0.930 . S
C3116 C3115 1.400 . S
C3116 C3119 1.386 . S
H3117 C3133 0.930 . S
H3118 C3134 0.931 . S
C3119 H3107 0.929 . S
C3119 C3113 1.390 . S
C3119 C3116 1.386 . S
C3120 C3115 1.490 . S
C3120 C3122 1.395 . S
C3120 C3123 1.403 . S
H3121 C3127 0.930 . S
C3122 H3108 0.930 . S
C3122 C3120 1.395 . S
C3122 C3125 1.403 . S
C3123 C3120 1.403 . S
C3123 C3124 1.524 . S
C3123 C3127 1.400 . S
C3124 H3109 0.960 . S
C3124 H3110 0.960 . S
C3124 H3111 0.960 . S
C3124 C3123 1.524 . S
C3125 C3122 1.403 . S
C3125 C3126 1.392 . S
C3125 C3129 1.495 . S
C3126 C3125 1.392 . S
C3126 C3127 1.385 . S
C3126 C3128 1.478 . S
C3127 H3121 0.930 . S
C3127 C3123 1.400 . S
C3127 C3126 1.385 . S
C3128 C3126 1.478 . S
C3128 C3130 1.381 . S
C3128 C3134 1.383 . S
C3129 C3125 1.495 . S
C3129 H3135 0.959 . S
C3129 H3136 0.961 . S
C3129 H3137 0.960 . S
C3130 C3128 1.381 . S
C3130 C3131 1.394 . S
C3130 H3138 0.930 . S
C3131 C3130 1.394 . S
C3131 C3132 1.383 . S
C3131 H3139 0.929 . S
C3132 C3131 1.383 . S
C3132 C3133 1.377 . S
C3133 H3117 0.930 . S
C3133 C3132 1.377 . S
C3133 C3134 1.379 . S
C3134 H3118 0.931 . S
C3134 C3128 1.383 . S
C3134 C3133 1.379 . S
H3135 C3129 0.959 . S
H3136 C3129 0.961 . S
H3137 C3129 0.960 . S
H3138 C3130 0.930 . S
H3139 C3131 0.929 . S
H3140 C3148 0.929 . S
H3141 C3150 0.930 . S
H3142 C3152 0.930 . S
H3143 C3155 0.929 . S
H3144 C3158 0.930 . S
H3145 C3160 0.960 1_455 S
H3146 C3160 0.960 . S
H3147 C3160 0.960 . S
C3148 H3140 0.929 . S
C3148 C3149 1.377 . S
C3148 C3150 1.384 . S
C3149 C3148 1.377 . S
C3149 C3155 1.390 . S
C3150 H3141 0.930 . S
C3150 C3148 1.384 . S
C3150 C3151 1.372 . S
C3151 C3150 1.372 . S
C3151 C3152 1.400 . S
C3151 C3156 1.490 . S
C3152 H3142 0.930 . S
C3152 C3151 1.400 . S
C3152 C3155 1.386 . S
H3153 C3169 0.930 . S
H3154 C3170 0.931 . S
C3155 H3143 0.929 . S
C3155 C3149 1.390 . S
C3155 C3152 1.386 . S
C3156 C3151 1.490 . S
C3156 C3158 1.395 . S
C3156 C3159 1.429 . S
H3157 C3163 0.930 . S
C3158 H3144 0.930 . S
C3158 C3156 1.395 . S
C3158 C3161 1.403 1_655 S
C3159 C3156 1.429 . S
C3159 C3160 1.538 . S
C3159 C3163 1.358 1_655 S
C3160 H3145 0.960 1_655 S
C3160 H3146 0.960 . S
C3160 H3147 0.960 . S
C3160 C3159 1.538 . S
C3161 C3158 1.403 1_455 S
C3161 C3162 1.392 . S
C3161 C3165 1.495 . S
C3162 C3161 1.392 . S
C3162 C3163 1.385 . S
C3162 C3164 1.478 . S
C3163 H3157 0.930 . S
C3163 C3159 1.358 1_455 S
C3163 C3162 1.385 . S
C3164 C3162 1.478 . S
C3164 C3166 1.381 . S
C3164 C3170 1.383 . S
C3165 C3161 1.495 . S
C3165 H3171 0.959 . S
C3165 H3172 0.961 . S
C3165 H3173 0.960 . S
C3166 C3164 1.381 . S
C3166 C3167 1.394 . S
C3166 H3174 0.930 . S
C3167 C3166 1.394 . S
C3167 C3168 1.383 . S
C3167 H3175 0.929 . S
C3168 C3167 1.383 . S
C3168 C3169 1.377 . S
C3169 H3153 0.930 . S
C3169 C3168 1.377 . S
C3169 C3170 1.379 . S
C3170 H3154 0.931 . S
C3170 C3164 1.383 . S
C3170 C3169 1.379 . S
H3171 C3165 0.959 . S
H3172 C3165 0.961 . S
H3173 C3165 0.960 . S
H3174 C3166 0.930 . S
H3175 C3167 0.929 . S
H3176 C3184 0.929 . S
H3177 C3186 0.930 . S
H3178 C3188 0.930 . S
H3179 C3191 0.929 . S
H3180 C3194 0.930 . S
H3181 C3196 0.960 . S
H3182 C3196 0.960 . S
H3183 C3196 0.960 . S
C3184 H3176 0.929 . S
C3184 C3185 1.377 . S
C3184 C3186 1.384 . S
C3185 C3184 1.377 . S
C3185 C3191 1.390 . S
C3186 H3177 0.930 . S
C3186 C3184 1.384 . S
C3186 C3187 1.372 . S
C3187 C3186 1.372 . S
C3187 C3188 1.400 . S
C3187 C3192 1.490 . S
C3188 H3178 0.930 . S
C3188 C3187 1.400 . S
C3188 C3191 1.386 . S
H3189 C3205 0.930 . S
H3190 C3206 0.931 . S
C3191 H3179 0.929 . S
C3191 C3185 1.390 . S
C3191 C3188 1.386 . S
C3192 C3187 1.490 . S
C3192 C3194 1.395 . S
C3192 C3195 1.403 . S
H3193 C3199 0.930 . S
C3194 H3180 0.930 . S
C3194 C3192 1.395 . S
C3194 C3197 1.403 . S
C3195 C3192 1.403 . S
C3195 C3196 1.524 . S
C3195 C3199 1.400 . S
C3196 H3181 0.960 . S
C3196 H3182 0.960 . S
C3196 H3183 0.960 . S
C3196 C3195 1.524 . S
C3197 C3194 1.403 . S
C3197 C3198 1.392 . S
C3197 C3201 1.495 . S
C3198 C3197 1.392 . S
C3198 C3199 1.385 . S
C3198 C3200 1.478 . S
C3199 H3193 0.930 . S
C3199 C3195 1.400 . S
C3199 C3198 1.385 . S
C3200 C3198 1.478 . S
C3200 C3202 1.381 . S
C3200 C3206 1.383 . S
C3201 C3197 1.495 . S
C3201 H3207 0.959 . S
C3201 H3208 0.961 . S
C3201 H3209 0.960 . S
C3202 C3200 1.381 . S
C3202 C3203 1.394 . S
C3202 H3210 0.930 . S
C3203 C3202 1.394 . S
C3203 C3204 1.383 . S
C3203 H3211 0.929 . S
C3204 C3203 1.383 . S
C3204 C3205 1.377 . S
C3205 H3189 0.930 . S
C3205 C3204 1.377 . S
C3205 C3206 1.379 . S
C3206 H3190 0.931 . S
C3206 C3200 1.383 . S
C3206 C3205 1.379 . S
H3207 C3201 0.959 . S
H3208 C3201 0.961 . S
H3209 C3201 0.960 . S
H3210 C3202 0.930 . S
H3211 C3203 0.929 . S
H3212 C3220 0.929 . S
H3213 C3222 0.930 . S
H3214 C3224 0.930 . S
H3215 C3227 0.929 . S
H3216 C3230 0.930 . S
H3217 C3232 0.960 . S
H3218 C3232 0.960 . S
H3219 C3232 0.960 . S
C3220 H3212 0.929 . S
C3220 C3221 1.377 . S
C3220 C3222 1.384 . S
C3221 C3220 1.377 . S
C3221 C3227 1.390 . S
C3222 H3213 0.930 . S
C3222 C3220 1.384 . S
C3222 C3223 1.372 . S
C3223 C3222 1.372 . S
C3223 C3224 1.400 . S
C3223 C3228 1.490 . S
C3224 H3214 0.930 . S
C3224 C3223 1.400 . S
C3224 C3227 1.386 . S
H3225 C3241 0.930 . S
H3226 C3242 0.931 . S
C3227 H3215 0.929 . S
C3227 C3221 1.390 . S
C3227 C3224 1.386 . S
C3228 C3223 1.490 . S
C3228 C3230 1.395 . S
C3228 C3231 1.403 . S
H3229 C3235 0.930 . S
C3230 H3216 0.930 . S
C3230 C3228 1.395 . S
C3230 C3233 1.403 . S
C3231 C3228 1.403 . S
C3231 C3232 1.524 . S
C3231 C3235 1.400 . S
C3232 H3217 0.960 . S
C3232 H3218 0.960 . S
C3232 H3219 0.960 . S
C3232 C3231 1.524 . S
C3233 C3230 1.403 . S
C3233 C3234 1.392 . S
C3233 C3237 1.495 . S
C3234 C3233 1.392 . S
C3234 C3235 1.385 . S
C3234 C3236 1.478 . S
C3235 H3229 0.930 . S
C3235 C3231 1.400 . S
C3235 C3234 1.385 . S
C3236 C3234 1.478 . S
C3236 C3238 1.381 . S
C3236 C3242 1.383 . S
C3237 C3233 1.495 . S
C3237 H3243 0.959 . S
C3237 H3244 0.961 . S
C3237 H3245 0.960 . S
C3238 C3236 1.381 . S
C3238 C3239 1.394 . S
C3238 H3246 0.930 . S
C3239 C3238 1.394 . S
C3239 C3240 1.383 . S
C3239 H3247 0.929 . S
C3240 C3239 1.383 . S
C3240 C3241 1.377 . S
C3241 H3225 0.930 . S
C3241 C3240 1.377 . S
C3241 C3242 1.379 . S
C3242 H3226 0.931 . S
C3242 C3236 1.383 . S
C3242 C3241 1.379 . S
H3243 C3237 0.959 . S
H3244 C3237 0.961 . S
H3245 C3237 0.960 . S
H3246 C3238 0.930 . S
H3247 C3239 0.929 . S
H3248 C3256 0.929 . S
H3249 C3258 0.930 . S
H3250 C3260 0.930 . S
H3251 C3263 0.929 . S
H3252 C3266 0.930 . S
H3253 C3268 0.960 . S
H3254 C3268 0.960 . S
H3255 C3268 0.960 . S
C3256 H3248 0.929 . S
C3256 C3257 1.377 . S
C3256 C3258 1.384 . S
C3257 C3256 1.377 . S
C3257 C3263 1.390 . S
C3258 H3249 0.930 . S
C3258 C3256 1.384 . S
C3258 C3259 1.372 . S
C3259 C3258 1.372 . S
C3259 C3260 1.400 . S
C3259 C3264 1.490 . S
C3260 H3250 0.930 . S
C3260 C3259 1.400 . S
C3260 C3263 1.386 . S
H3261 C3277 0.930 . S
H3262 C3278 0.931 . S
C3263 H3251 0.929 . S
C3263 C3257 1.390 . S
C3263 C3260 1.386 . S
C3264 C3259 1.490 . S
C3264 C3266 1.395 . S
C3264 C3267 1.403 . S
H3265 C3271 0.930 . S
C3266 H3252 0.930 . S
C3266 C3264 1.395 . S
C3266 C3269 1.403 . S
C3267 C3264 1.403 . S
C3267 C3268 1.524 . S
C3267 C3271 1.400 . S
C3268 H3253 0.960 . S
C3268 H3254 0.960 . S
C3268 H3255 0.960 . S
C3268 C3267 1.524 . S
C3269 C3266 1.403 . S
C3269 C3270 1.392 . S
C3269 C3273 1.495 . S
C3270 C3269 1.392 . S
C3270 C3271 1.385 . S
C3270 C3272 1.478 . S
C3271 H3265 0.930 . S
C3271 C3267 1.400 . S
C3271 C3270 1.385 . S
C3272 C3270 1.478 . S
C3272 C3274 1.381 . S
C3272 C3278 1.383 . S
C3273 C3269 1.495 . S
C3273 H3279 0.959 . S
C3273 H3280 0.961 . S
C3273 H3281 0.960 . S
C3274 C3272 1.381 . S
C3274 C3275 1.394 . S
C3274 H3282 0.930 . S
C3275 C3274 1.394 . S
C3275 C3276 1.383 . S
C3275 H3283 0.929 . S
C3276 C3275 1.383 . S
C3276 C3277 1.377 . S
C3277 H3261 0.930 . S
C3277 C3276 1.377 . S
C3277 C3278 1.379 . S
C3278 H3262 0.931 . S
C3278 C3272 1.383 . S
C3278 C3277 1.379 . S
H3279 C3273 0.959 . S
H3280 C3273 0.961 . S
H3281 C3273 0.960 . S
H3282 C3274 0.930 . S
H3283 C3275 0.929 . S
H3284 C3292 0.929 . S
H3285 C3294 0.930 . S
H3286 C3296 0.930 . S
H3287 C3299 0.929 . S
H3288 C3302 0.930 . S
H3289 C3304 0.960 . S
H3290 C3304 0.960 . S
H3291 C3304 0.960 . S
C3292 H3284 0.929 . S
C3292 C3293 1.377 . S
C3292 C3294 1.384 . S
C3293 C3292 1.377 . S
C3293 C3299 1.390 . S
C3294 H3285 0.930 . S
C3294 C3292 1.384 . S
C3294 C3295 1.372 . S
C3295 C3294 1.372 . S
C3295 C3296 1.400 . S
C3295 C3300 1.490 . S
C3296 H3286 0.930 . S
C3296 C3295 1.400 . S
C3296 C3299 1.386 . S
H3297 C3313 0.930 . S
H3298 C3314 0.931 . S
C3299 H3287 0.929 . S
C3299 C3293 1.390 . S
C3299 C3296 1.386 . S
C3300 C3295 1.490 . S
C3300 C3302 1.395 . S
C3300 C3303 1.403 . S
H3301 C3307 0.930 . S
C3302 H3288 0.930 . S
C3302 C3300 1.395 . S
C3302 C3305 1.403 . S
C3303 C3300 1.403 . S
C3303 C3304 1.524 . S
C3303 C3307 1.400 . S
C3304 H3289 0.960 . S
C3304 H3290 0.960 . S
C3304 H3291 0.960 . S
C3304 C3303 1.524 . S
C3305 C3302 1.403 . S
C3305 C3306 1.392 . S
C3305 C3309 1.495 . S
C3306 C3305 1.392 . S
C3306 C3307 1.385 . S
C3306 C3308 1.478 . S
C3307 H3301 0.930 . S
C3307 C3303 1.400 . S
C3307 C3306 1.385 . S
C3308 C3306 1.478 . S
C3308 C3310 1.381 . S
C3308 C3314 1.383 . S
C3309 C3305 1.495 . S
C3309 H3315 0.959 . S
C3309 H3316 0.961 . S
C3309 H3317 0.960 . S
C3310 C3308 1.381 . S
C3310 C3311 1.394 . S
C3310 H3318 0.930 . S
C3311 C3310 1.394 . S
C3311 C3312 1.383 . S
C3311 H3319 0.929 . S
C3312 C3311 1.383 . S
C3312 C3313 1.377 . S
C3313 H3297 0.930 . S
C3313 C3312 1.377 . S
C3313 C3314 1.379 . S
C3314 H3298 0.931 . S
C3314 C3308 1.383 . S
C3314 C3313 1.379 . S
H3315 C3309 0.959 . S
H3316 C3309 0.961 . S
H3317 C3309 0.960 . S
H3318 C3310 0.930 . S
H3319 C3311 0.929 . S
H3320 C3328 0.929 . S
H3321 C3330 0.930 . S
H3322 C3332 0.930 . S
H3323 C3335 0.929 . S
H3324 C3338 0.930 . S
H3325 C3340 0.960 . S
H3326 C3340 0.960 . S
H3327 C3340 0.960 . S
C3328 H3320 0.929 . S
C3328 C3329 1.377 . S
C3328 C3330 1.384 . S
C3329 C3328 1.377 . S
C3329 C3335 1.390 . S
C3330 H3321 0.930 . S
C3330 C3328 1.384 . S
C3330 C3331 1.372 . S
C3331 C3330 1.372 . S
C3331 C3332 1.400 . S
C3331 C3336 1.490 . S
C3332 H3322 0.930 . S
C3332 C3331 1.400 . S
C3332 C3335 1.386 . S
H3333 C3349 0.930 . S
H3334 C3350 0.931 . S
C3335 H3323 0.929 . S
C3335 C3329 1.390 . S
C3335 C3332 1.386 . S
C3336 C3331 1.490 . S
C3336 C3338 1.395 . S
C3336 C3339 1.403 . S
H3337 C3343 0.930 . S
C3338 H3324 0.930 . S
C3338 C3336 1.395 . S
C3338 C3341 1.403 . S
C3339 C3336 1.403 . S
C3339 C3340 1.524 . S
C3339 C3343 1.400 . S
C3340 H3325 0.960 . S
C3340 H3326 0.960 . S
C3340 H3327 0.960 . S
C3340 C3339 1.524 . S
C3341 C3338 1.403 . S
C3341 C3342 1.392 . S
C3341 C3345 1.495 . S
C3342 C3341 1.392 . S
C3342 C3343 1.385 . S
C3342 C3344 1.478 . S
C3343 H3337 0.930 . S
C3343 C3339 1.400 . S
C3343 C3342 1.385 . S
C3344 C3342 1.478 . S
C3344 C3346 1.381 . S
C3344 C3350 1.383 . S
C3345 C3341 1.495 . S
C3345 H3351 0.959 . S
C3345 H3352 0.961 . S
C3345 H3353 0.960 . S
C3346 C3344 1.381 . S
C3346 C3347 1.394 . S
C3346 H3354 0.930 . S
C3347 C3346 1.394 . S
C3347 C3348 1.383 . S
C3347 H3355 0.929 . S
C3348 C3347 1.383 . S
C3348 C3349 1.377 . S
C3349 H3333 0.930 . S
C3349 C3348 1.377 . S
C3349 C3350 1.379 . S
C3350 H3334 0.931 . S
C3350 C3344 1.383 . S
C3350 C3349 1.379 . S
H3351 C3345 0.959 . S
H3352 C3345 0.961 . S
H3353 C3345 0.960 . S
H3354 C3346 0.930 . S
H3355 C3347 0.929 . S
H3356 C3364 0.929 . S
H3357 C3366 0.930 . S
H3358 C3368 0.930 . S
H3359 C3371 0.929 . S
H3360 C3374 0.930 . S
H3361 C3376 0.960 . S
H3362 C3376 0.960 . S
H3363 C3376 0.960 . S
C3364 H3356 0.929 . S
C3364 C3365 1.377 . S
C3364 C3366 1.384 . S
C3365 C3364 1.377 . S
C3365 C3371 1.390 . S
C3366 H3357 0.930 . S
C3366 C3364 1.384 . S
C3366 C3367 1.372 . S
C3367 C3366 1.372 . S
C3367 C3368 1.400 . S
C3367 C3372 1.490 . S
C3368 H3358 0.930 . S
C3368 C3367 1.400 . S
C3368 C3371 1.386 . S
H3369 C3385 0.930 . S
H3370 C3386 0.931 . S
C3371 H3359 0.929 . S
C3371 C3365 1.390 . S
C3371 C3368 1.386 . S
C3372 C3367 1.490 . S
C3372 C3374 1.395 . S
C3372 C3375 1.403 . S
H3373 C3379 0.930 . S
C3374 H3360 0.930 . S
C3374 C3372 1.395 . S
C3374 C3377 1.403 1_455 S
C3375 C3372 1.403 . S
C3375 C3376 1.524 . S
C3375 C3379 1.400 1_455 S
C3376 H3361 0.960 . S
C3376 H3362 0.960 . S
C3376 H3363 0.960 . S
C3376 C3375 1.524 . S
C3377 C3374 1.403 1_655 S
C3377 C3378 1.392 . S
C3377 C3381 1.495 . S
C3378 C3377 1.392 . S
C3378 C3379 1.385 . S
C3378 C3380 1.478 . S
C3379 H3373 0.930 . S
C3379 C3375 1.400 1_655 S
C3379 C3378 1.385 . S
C3380 C3378 1.478 . S
C3380 C3382 1.381 . S
C3380 C3386 1.383 . S
C3381 C3377 1.495 . S
C3381 H3387 0.985 . S
C3381 H3388 0.961 . S
C3381 H3389 0.960 . S
C3382 C3380 1.381 . S
C3382 C3383 1.394 . S
C3382 H3390 0.930 . S
C3383 C3382 1.394 . S
C3383 C3384 1.383 . S
C3383 H3391 0.929 . S
C3384 C3383 1.383 . S
C3384 C3385 1.377 . S
C3385 H3369 0.930 . S
C3385 C3384 1.377 . S
C3385 C3386 1.379 . S
C3386 H3370 0.931 . S
C3386 C3380 1.383 . S
C3386 C3385 1.379 . S
H3387 C3381 0.985 . S
H3388 C3381 0.961 . S
H3389 C3381 0.960 . S
H3390 C3382 0.930 . S
H3391 C3383 0.929 . S
H3392 C3400 0.929 . S
H3393 C3402 0.930 . S
H3394 C3404 0.930 . S
H3395 C3407 0.929 . S
H3396 C3410 0.930 . S
H3397 C3412 0.960 . S
H3398 C3412 0.960 . S
H3399 C3412 0.960 . S
C3400 H3392 0.929 . S
C3400 C3401 1.377 . S
C3400 C3402 1.384 . S
C3401 C3400 1.377 . S
C3401 C3407 1.390 . S
C3402 H3393 0.930 . S
C3402 C3400 1.384 . S
C3402 C3403 1.372 . S
C3403 C3402 1.372 . S
C3403 C3404 1.400 . S
C3403 C3408 1.490 . S
C3404 H3394 0.930 . S
C3404 C3403 1.400 . S
C3404 C3407 1.386 . S
H3405 C3421 0.930 . S
H3406 C3422 0.931 . S
C3407 H3395 0.929 . S
C3407 C3401 1.390 . S
C3407 C3404 1.386 . S
C3408 C3403 1.490 . S
C3408 C3410 1.395 . S
C3408 C3411 1.403 . S
H3409 C3415 0.930 . S
C3410 H3396 0.930 . S
C3410 C3408 1.395 . S
C3410 C3413 1.403 . S
C3411 C3408 1.403 . S
C3411 C3412 1.524 . S
C3411 C3415 1.400 . S
C3412 H3397 0.960 . S
C3412 H3398 0.960 . S
C3412 H3399 0.960 . S
C3412 C3411 1.524 . S
C3413 C3410 1.403 . S
C3413 C3414 1.392 . S
C3413 C3417 1.495 . S
C3414 C3413 1.392 . S
C3414 C3415 1.385 . S
C3414 C3416 1.478 . S
C3415 H3409 0.930 . S
C3415 C3411 1.400 . S
C3415 C3414 1.385 . S
C3416 C3414 1.478 . S
C3416 C3418 1.381 . S
C3416 C3422 1.383 . S
C3417 C3413 1.495 . S
C3417 H3423 0.959 . S
C3417 H3424 0.961 . S
C3417 H3425 0.960 . S
C3418 C3416 1.381 . S
C3418 C3419 1.394 . S
C3418 H3426 0.930 . S
C3419 C3418 1.394 . S
C3419 C3420 1.383 . S
C3419 H3427 0.929 . S
C3420 C3419 1.383 . S
C3420 C3421 1.377 . S
C3421 H3405 0.930 . S
C3421 C3420 1.377 . S
C3421 C3422 1.379 . S
C3422 H3406 0.931 . S
C3422 C3416 1.383 . S
C3422 C3421 1.379 . S
H3423 C3417 0.959 . S
H3424 C3417 0.961 . S
H3425 C3417 0.960 . S
H3426 C3418 0.930 . S
H3427 C3419 0.929 . S
H3428 C3436 0.929 . S
H3429 C3438 0.930 . S
H3430 C3440 0.930 . S
H3431 C3443 0.929 . S
H3432 C3446 0.930 . S
H3433 C3448 0.960 . S
H3434 C3448 0.960 . S
H3435 C3448 0.960 . S
C3436 H3428 0.929 . S
C3436 C3437 1.377 . S
C3436 C3438 1.384 . S
C3437 C3436 1.377 . S
C3437 C3443 1.390 . S
C3438 H3429 0.930 . S
C3438 C3436 1.384 . S
C3438 C3439 1.372 . S
C3439 C3438 1.372 . S
C3439 C3440 1.400 . S
C3439 C3444 1.490 . S
C3440 H3430 0.930 . S
C3440 C3439 1.400 . S
C3440 C3443 1.386 . S
H3441 C3457 0.930 . S
H3442 C3458 0.931 . S
C3443 H3431 0.929 . S
C3443 C3437 1.390 . S
C3443 C3440 1.386 . S
C3444 C3439 1.490 . S
C3444 C3446 1.395 . S
C3444 C3447 1.403 . S
H3445 C3451 0.930 . S
C3446 H3432 0.930 . S
C3446 C3444 1.395 . S
C3446 C3449 1.403 . S
C3447 C3444 1.403 . S
C3447 C3448 1.524 . S
C3447 C3451 1.400 . S
C3448 H3433 0.960 . S
C3448 H3434 0.960 . S
C3448 H3435 0.960 . S
C3448 C3447 1.524 . S
C3449 C3446 1.403 . S
C3449 C3450 1.392 . S
C3449 C3453 1.495 . S
C3450 C3449 1.392 . S
C3450 C3451 1.385 . S
C3450 C3452 1.478 . S
C3451 H3445 0.930 . S
C3451 C3447 1.400 . S
C3451 C3450 1.385 . S
C3452 C3450 1.478 . S
C3452 C3454 1.381 . S
C3452 C3458 1.383 . S
C3453 C3449 1.495 . S
C3453 H3459 0.959 . S
C3453 H3460 0.961 . S
C3453 H3461 0.960 . S
C3454 C3452 1.381 . S
C3454 C3455 1.394 . S
C3454 H3462 0.930 . S
C3455 C3454 1.394 . S
C3455 C3456 1.383 . S
C3455 H3463 0.929 . S
C3456 C3455 1.383 . S
C3456 C3457 1.377 . S
C3457 H3441 0.930 . S
C3457 C3456 1.377 . S
C3457 C3458 1.379 . S
C3458 H3442 0.931 . S
C3458 C3452 1.383 . S
C3458 C3457 1.379 . S
H3459 C3453 0.959 . S
H3460 C3453 0.961 . S
H3461 C3453 0.960 . S
H3462 C3454 0.930 . S
H3463 C3455 0.929 . S
H3464 C3472 0.929 . S
H3465 C3474 0.930 . S
H3466 C3476 0.930 . S
H3467 C3479 0.929 . S
H3468 C3482 0.930 . S
H3469 C3484 0.960 . S
H3470 C3484 0.960 . S
H3471 C3484 0.960 . S
C3472 H3464 0.929 . S
C3472 C3473 1.377 . S
C3472 C3474 1.384 . S
C3473 C3472 1.377 . S
C3473 C3479 1.390 . S
C3474 H3465 0.930 . S
C3474 C3472 1.384 . S
C3474 C3475 1.372 . S
C3475 C3474 1.372 . S
C3475 C3476 1.400 . S
C3475 C3480 1.490 . S
C3476 H3466 0.930 . S
C3476 C3475 1.400 . S
C3476 C3479 1.386 . S
H3477 C3493 0.930 . S
H3478 C3494 0.931 . S
C3479 H3467 0.929 . S
C3479 C3473 1.390 . S
C3479 C3476 1.386 . S
C3480 C3475 1.490 . S
C3480 C3482 1.395 . S
C3480 C3483 1.403 . S
H3481 C3487 0.930 . S
C3482 H3468 0.930 . S
C3482 C3480 1.395 . S
C3482 C3485 1.403 . S
C3483 C3480 1.403 . S
C3483 C3484 1.524 . S
C3483 C3487 1.400 . S
C3484 H3469 0.960 . S
C3484 H3470 0.960 . S
C3484 H3471 0.960 . S
C3484 C3483 1.524 . S
C3485 C3482 1.403 . S
C3485 C3486 1.392 . S
C3485 C3489 1.495 . S
C3486 C3485 1.392 . S
C3486 C3487 1.385 . S
C3486 C3488 1.478 . S
C3487 H3481 0.930 . S
C3487 C3483 1.400 . S
C3487 C3486 1.385 . S
C3488 C3486 1.478 . S
C3488 C3490 1.381 . S
C3488 C3494 1.383 . S
C3489 C3485 1.495 . S
C3489 H3495 0.959 . S
C3489 H3496 0.961 . S
C3489 H3497 0.960 . S
C3490 C3488 1.381 . S
C3490 C3491 1.394 . S
C3490 H3498 0.930 . S
C3491 C3490 1.394 . S
C3491 C3492 1.383 . S
C3491 H3499 0.929 . S
C3492 C3491 1.383 . S
C3492 C3493 1.377 . S
C3493 H3477 0.930 . S
C3493 C3492 1.377 . S
C3493 C3494 1.379 . S
C3494 H3478 0.931 . S
C3494 C3488 1.383 . S
C3494 C3493 1.379 . S
H3495 C3489 0.959 . S
H3496 C3489 0.961 . S
H3497 C3489 0.960 . S
H3498 C3490 0.930 . S
H3499 C3491 0.929 . S
H3500 C3508 0.929 . S
H3501 C3510 0.930 . S
H3502 C3512 0.930 . S
H3503 C3515 0.929 . S
H3504 C3518 0.930 . S
H3505 C3520 0.960 1_455 S
H3506 C3520 0.960 . S
H3507 C3520 0.960 . S
C3508 H3500 0.929 . S
C3508 C3509 1.377 . S
C3508 C3510 1.384 . S
C3509 C3508 1.377 . S
C3509 C3515 1.390 . S
C3510 H3501 0.930 . S
C3510 C3508 1.384 . S
C3510 C3511 1.372 . S
C3511 C3510 1.372 . S
C3511 C3512 1.400 . S
C3511 C3516 1.490 . S
C3512 H3502 0.930 . S
C3512 C3511 1.400 . S
C3512 C3515 1.386 . S
H3513 C3529 0.930 . S
H3514 C3530 0.931 . S
C3515 H3503 0.929 . S
C3515 C3509 1.390 . S
C3515 C3512 1.386 . S
C3516 C3511 1.490 . S
C3516 C3518 1.395 . S
C3516 C3519 1.445 . S
H3517 C3523 0.930 . S
C3518 H3504 0.930 . S
C3518 C3516 1.395 . S
C3518 C3521 1.403 1_655 S
C3519 C3516 1.445 . S
C3519 C3520 1.550 . S
C3519 C3523 1.330 1_655 S
C3520 H3505 0.960 1_655 S
C3520 H3506 0.960 . S
C3520 H3507 0.960 . S
C3520 C3519 1.550 . S
C3521 C3518 1.403 1_455 S
C3521 C3522 1.392 . S
C3521 C3525 1.495 . S
C3522 C3521 1.392 . S
C3522 C3523 1.385 . S
C3522 C3524 1.478 . S
C3523 H3517 0.930 . S
C3523 C3519 1.330 1_455 S
C3523 C3522 1.385 . S
C3524 C3522 1.478 . S
C3524 C3526 1.381 . S
C3524 C3530 1.383 . S
C3525 C3521 1.495 . S
C3525 H3531 0.959 . S
C3525 H3532 0.961 . S
C3525 H3533 0.960 . S
C3526 C3524 1.381 . S
C3526 C3527 1.394 . S
C3526 H3534 0.930 . S
C3527 C3526 1.394 . S
C3527 C3528 1.383 . S
C3527 H3535 0.929 . S
C3528 C3527 1.383 . S
C3528 C3529 1.377 . S
C3529 H3513 0.930 . S
C3529 C3528 1.377 . S
C3529 C3530 1.379 . S
C3530 H3514 0.931 . S
C3530 C3524 1.383 . S
C3530 C3529 1.379 . S
H3531 C3525 0.959 . S
H3532 C3525 0.961 . S
H3533 C3525 0.960 . S
H3534 C3526 0.930 . S
H3535 C3527 0.929 . S
H3536 C3544 0.929 . S
H3537 C3546 0.930 . S
H3538 C3548 0.930 . S
H3539 C3551 0.929 . S
H3540 C3554 0.930 . S
H3541 C3556 0.960 . S
H3542 C3556 0.960 . S
H3543 C3556 0.960 . S
C3544 H3536 0.929 . S
C3544 C3545 1.377 . S
C3544 C3546 1.384 . S
C3545 C3544 1.377 . S
C3545 C3551 1.390 . S
C3546 H3537 0.930 . S
C3546 C3544 1.384 . S
C3546 C3547 1.372 . S
C3547 C3546 1.372 . S
C3547 C3548 1.400 . S
C3547 C3552 1.490 . S
C3548 H3538 0.930 . S
C3548 C3547 1.400 . S
C3548 C3551 1.386 . S
H3549 C3565 0.930 . S
H3550 C3566 0.931 . S
C3551 H3539 0.929 . S
C3551 C3545 1.390 . S
C3551 C3548 1.386 . S
C3552 C3547 1.490 . S
C3552 C3554 1.395 . S
C3552 C3555 1.403 . S
H3553 C3559 0.930 . S
C3554 H3540 0.930 . S
C3554 C3552 1.395 . S
C3554 C3557 1.403 . S
C3555 C3552 1.403 . S
C3555 C3556 1.524 . S
C3555 C3559 1.400 . S
C3556 H3541 0.960 . S
C3556 H3542 0.960 . S
C3556 H3543 0.960 . S
C3556 C3555 1.524 . S
C3557 C3554 1.403 . S
C3557 C3558 1.392 . S
C3557 C3561 1.495 . S
C3558 C3557 1.392 . S
C3558 C3559 1.385 . S
C3558 C3560 1.478 . S
C3559 H3553 0.930 . S
C3559 C3555 1.400 . S
C3559 C3558 1.385 . S
C3560 C3558 1.478 . S
C3560 C3562 1.381 . S
C3560 C3566 1.383 . S
C3561 C3557 1.495 . S
C3561 H3567 0.959 . S
C3561 H3568 0.961 . S
C3561 H3569 0.960 . S
C3562 C3560 1.381 . S
C3562 C3563 1.394 . S
C3562 H3570 0.930 . S
C3563 C3562 1.394 . S
C3563 C3564 1.383 . S
C3563 H3571 0.929 . S
C3564 C3563 1.383 . S
C3564 C3565 1.377 . S
C3565 H3549 0.930 . S
C3565 C3564 1.377 . S
C3565 C3566 1.379 . S
C3566 H3550 0.931 . S
C3566 C3560 1.383 . S
C3566 C3565 1.379 . S
H3567 C3561 0.959 . S
H3568 C3561 0.961 . S
H3569 C3561 0.960 . S
H3570 C3562 0.930 . S
H3571 C3563 0.929 . S
H3572 C3580 0.929 . S
H3573 C3582 0.930 . S
H3574 C3584 0.930 . S
H3575 C3587 0.929 . S
H3576 C3590 0.930 . S
H3577 C3592 0.960 1_455 S
H3578 C3592 0.960 . S
H3579 C3592 0.960 . S
C3580 H3572 0.929 . S
C3580 C3581 1.377 . S
C3580 C3582 1.384 . S
C3581 C3580 1.377 . S
C3581 C3587 1.390 . S
C3582 H3573 0.930 . S
C3582 C3580 1.384 . S
C3582 C3583 1.372 . S
C3583 C3582 1.372 . S
C3583 C3584 1.400 . S
C3583 C3588 1.490 . S
C3584 H3574 0.930 . S
C3584 C3583 1.400 . S
C3584 C3587 1.386 . S
H3585 C3601 0.930 . S
H3586 C3602 0.931 . S
C3587 H3575 0.929 . S
C3587 C3581 1.390 . S
C3587 C3584 1.386 . S
C3588 C3583 1.490 . S
C3588 C3590 1.395 . S
C3588 C3591 1.420 . S
H3589 C3595 0.930 . S
C3590 H3576 0.930 . S
C3590 C3588 1.395 . S
C3590 C3593 1.403 1_655 S
C3591 C3588 1.420 . S
C3591 C3592 1.533 . S
C3591 C3595 1.373 1_655 S
C3592 H3577 0.960 1_655 S
C3592 H3578 0.960 . S
C3592 H3579 0.960 . S
C3592 C3591 1.533 . S
C3593 C3590 1.403 1_455 S
C3593 C3594 1.392 . S
C3593 C3597 1.495 . S
C3594 C3593 1.392 . S
C3594 C3595 1.385 . S
C3594 C3596 1.478 . S
C3595 H3589 0.930 . S
C3595 C3591 1.373 1_455 S
C3595 C3594 1.385 . S
C3596 C3594 1.478 . S
C3596 C3598 1.381 . S
C3596 C3602 1.383 . S
C3597 C3593 1.495 . S
C3597 H3603 0.959 . S
C3597 H3604 0.961 . S
C3597 H3605 0.960 . S
C3598 C3596 1.381 . S
C3598 C3599 1.394 . S
C3598 H3606 0.930 . S
C3599 C3598 1.394 . S
C3599 C3600 1.383 . S
C3599 H3607 0.929 . S
C3600 C3599 1.383 . S
C3600 C3601 1.377 . S
C3601 H3585 0.930 . S
C3601 C3600 1.377 . S
C3601 C3602 1.379 . S
C3602 H3586 0.931 . S
C3602 C3596 1.383 . S
C3602 C3601 1.379 . S
H3603 C3597 0.959 . S
H3604 C3597 0.961 . S
H3605 C3597 0.960 . S
H3606 C3598 0.930 . S
H3607 C3599 0.929 . S
H3608 C3616 0.929 . S
H3609 C3618 0.930 . S
H3610 C3620 0.930 . S
H3611 C3623 0.929 . S
H3612 C3626 0.930 . S
H3613 C3628 0.960 . S
H3614 C3628 0.960 . S
H3615 C3628 0.960 . S
C3616 H3608 0.929 . S
C3616 C3617 1.377 . S
C3616 C3618 1.384 . S
C3617 C3616 1.377 . S
C3617 C3623 1.390 . S
C3618 H3609 0.930 . S
C3618 C3616 1.384 . S
C3618 C3619 1.372 . S
C3619 C3618 1.372 . S
C3619 C3620 1.400 . S
C3619 C3624 1.490 . S
C3620 H3610 0.930 . S
C3620 C3619 1.400 . S
C3620 C3623 1.386 . S
H3621 C3637 0.930 . S
H3622 C3638 0.931 . S
C3623 H3611 0.929 . S
C3623 C3617 1.390 . S
C3623 C3620 1.386 . S
C3624 C3619 1.490 . S
C3624 C3626 1.395 . S
C3624 C3627 1.403 . S
H3625 C3631 0.930 . S
C3626 H3612 0.930 . S
C3626 C3624 1.395 . S
C3626 C3629 1.403 . S
C3627 C3624 1.403 . S
C3627 C3628 1.524 . S
C3627 C3631 1.400 . S
C3628 H3613 0.960 . S
C3628 H3614 0.960 . S
C3628 H3615 0.960 . S
C3628 C3627 1.524 . S
C3629 C3626 1.403 . S
C3629 C3630 1.392 . S
C3629 C3633 1.495 . S
C3630 C3629 1.392 . S
C3630 C3631 1.385 . S
C3630 C3632 1.478 . S
C3631 H3625 0.930 . S
C3631 C3627 1.400 . S
C3631 C3630 1.385 . S
C3632 C3630 1.478 . S
C3632 C3634 1.381 . S
C3632 C3638 1.383 . S
C3633 C3629 1.495 . S
C3633 H3639 0.959 . S
C3633 H3640 0.961 . S
C3633 H3641 0.960 . S
C3634 C3632 1.381 . S
C3634 C3635 1.394 . S
C3634 H3642 0.930 . S
C3635 C3634 1.394 . S
C3635 C3636 1.383 . S
C3635 H3643 0.929 . S
C3636 C3635 1.383 . S
C3636 C3637 1.377 . S
C3637 H3621 0.930 . S
C3637 C3636 1.377 . S
C3637 C3638 1.379 . S
C3638 H3622 0.931 . S
C3638 C3632 1.383 . S
C3638 C3637 1.379 . S
H3639 C3633 0.959 . S
H3640 C3633 0.961 . S
H3641 C3633 0.960 . S
H3642 C3634 0.930 . S
H3643 C3635 0.929 . S
H3644 C3652 0.929 . S
H3645 C3654 0.930 . S
H3646 C3656 0.930 . S
H3647 C3659 0.929 . S
H3648 C3662 0.930 . S
H3649 C3664 0.960 . S
H3650 C3664 0.960 . S
H3651 C3664 0.960 . S
C3652 H3644 0.929 . S
C3652 C3653 1.377 . S
C3652 C3654 1.384 . S
C3653 C3652 1.377 . S
C3653 C3659 1.390 . S
C3654 H3645 0.930 . S
C3654 C3652 1.384 . S
C3654 C3655 1.372 . S
C3655 C3654 1.372 . S
C3655 C3656 1.400 . S
C3655 C3660 1.490 . S
C3656 H3646 0.930 . S
C3656 C3655 1.400 . S
C3656 C3659 1.386 . S
H3657 C3673 0.930 . S
H3658 C3674 0.931 . S
C3659 H3647 0.929 . S
C3659 C3653 1.390 . S
C3659 C3656 1.386 . S
C3660 C3655 1.490 . S
C3660 C3662 1.395 . S
C3660 C3663 1.403 . S
H3661 C3667 0.930 . S
C3662 H3648 0.930 . S
C3662 C3660 1.395 . S
C3662 C3665 1.403 . S
C3663 C3660 1.403 . S
C3663 C3664 1.524 . S
C3663 C3667 1.400 . S
C3664 H3649 0.960 . S
C3664 H3650 0.960 . S
C3664 H3651 0.960 . S
C3664 C3663 1.524 . S
C3665 C3662 1.403 . S
C3665 C3666 1.392 . S
C3665 C3669 1.495 . S
C3666 C3665 1.392 . S
C3666 C3667 1.385 . S
C3666 C3668 1.478 . S
C3667 H3661 0.930 . S
C3667 C3663 1.400 . S
C3667 C3666 1.385 . S
C3668 C3666 1.478 . S
C3668 C3670 1.381 . S
C3668 C3674 1.383 . S
C3669 C3665 1.495 . S
C3669 H3675 0.959 . S
C3669 H3676 0.961 . S
C3669 H3677 0.960 . S
C3670 C3668 1.381 . S
C3670 C3671 1.394 . S
C3670 H3678 0.930 . S
C3671 C3670 1.394 . S
C3671 C3672 1.383 . S
C3671 H3679 0.929 . S
C3672 C3671 1.383 . S
C3672 C3673 1.377 . S
C3673 H3657 0.930 . S
C3673 C3672 1.377 . S
C3673 C3674 1.379 . S
C3674 H3658 0.931 . S
C3674 C3668 1.383 . S
C3674 C3673 1.379 . S
H3675 C3669 0.959 . S
H3676 C3669 0.961 . S
H3677 C3669 0.960 . S
H3678 C3670 0.930 . S
H3679 C3671 0.929 . S
H3680 C3688 0.929 . S
H3681 C3690 0.930 . S
H3682 C3692 0.930 . S
H3683 C3695 0.929 . S
H3684 C3698 0.930 . S
H3685 C3700 0.960 . S
H3686 C3700 0.960 . S
H3687 C3700 0.960 . S
C3688 H3680 0.929 . S
C3688 C3689 1.377 . S
C3688 C3690 1.384 . S
C3689 C3688 1.377 . S
C3689 C3695 1.390 . S
C3690 H3681 0.930 . S
C3690 C3688 1.384 . S
C3690 C3691 1.372 . S
C3691 C3690 1.372 . S
C3691 C3692 1.400 . S
C3691 C3696 1.490 . S
C3692 H3682 0.930 . S
C3692 C3691 1.400 . S
C3692 C3695 1.386 . S
H3693 C3709 0.930 . S
H3694 C3710 0.931 . S
C3695 H3683 0.929 . S
C3695 C3689 1.390 . S
C3695 C3692 1.386 . S
C3696 C3691 1.490 . S
C3696 C3698 1.395 . S
C3696 C3699 1.403 . S
H3697 C3703 0.930 . S
C3698 H3684 0.930 . S
C3698 C3696 1.395 . S
C3698 C3701 1.403 . S
C3699 C3696 1.403 . S
C3699 C3700 1.524 . S
C3699 C3703 1.400 . S
C3700 H3685 0.960 . S
C3700 H3686 0.960 . S
C3700 H3687 0.960 . S
C3700 C3699 1.524 . S
C3701 C3698 1.403 . S
C3701 C3702 1.392 . S
C3701 C3705 1.495 . S
C3702 C3701 1.392 . S
C3702 C3703 1.385 . S
C3702 C3704 1.478 . S
C3703 H3697 0.930 . S
C3703 C3699 1.400 . S
C3703 C3702 1.385 . S
C3704 C3702 1.478 . S
C3704 C3706 1.381 . S
C3704 C3710 1.383 . S
C3705 C3701 1.495 . S
C3705 H3711 0.959 . S
C3705 H3712 0.961 . S
C3705 H3713 0.960 . S
C3706 C3704 1.381 . S
C3706 C3707 1.394 . S
C3706 H3714 0.930 . S
C3707 C3706 1.394 . S
C3707 C3708 1.383 . S
C3707 H3715 0.929 . S
C3708 C3707 1.383 . S
C3708 C3709 1.377 . S
C3709 H3693 0.930 . S
C3709 C3708 1.377 . S
C3709 C3710 1.379 . S
C3710 H3694 0.931 . S
C3710 C3704 1.383 . S
C3710 C3709 1.379 . S
H3711 C3705 0.959 . S
H3712 C3705 0.961 . S
H3713 C3705 0.960 . S
H3714 C3706 0.930 . S
H3715 C3707 0.929 . S
H3716 C3724 0.929 . S
H3717 C3726 0.930 . S
H3718 C3728 0.930 . S
H3719 C3731 0.929 . S
H3720 C3734 0.930 . S
H3721 C3736 0.960 . S
H3722 C3736 0.960 . S
H3723 C3736 0.960 . S
C3724 H3716 0.929 . S
C3724 C3725 1.377 . S
C3724 C3726 1.384 . S
C3725 C3724 1.377 . S
C3725 C3731 1.390 . S
C3726 H3717 0.930 . S
C3726 C3724 1.384 . S
C3726 C3727 1.372 . S
C3727 C3726 1.372 . S
C3727 C3728 1.400 . S
C3727 C3732 1.490 . S
C3728 H3718 0.930 . S
C3728 C3727 1.400 . S
C3728 C3731 1.386 . S
H3729 C3745 0.930 . S
H3730 C3746 0.931 . S
C3731 H3719 0.929 . S
C3731 C3725 1.390 . S
C3731 C3728 1.386 . S
C3732 C3727 1.490 . S
C3732 C3734 1.395 . S
C3732 C3735 1.403 . S
H3733 C3739 0.930 . S
C3734 H3720 0.930 . S
C3734 C3732 1.395 . S
C3734 C3737 1.403 . S
C3735 C3732 1.403 . S
C3735 C3736 1.524 . S
C3735 C3739 1.400 . S
C3736 H3721 0.960 . S
C3736 H3722 0.960 . S
C3736 H3723 0.960 . S
C3736 C3735 1.524 . S
C3737 C3734 1.403 . S
C3737 C3738 1.392 . S
C3737 C3741 1.495 . S
C3738 C3737 1.392 . S
C3738 C3739 1.385 . S
C3738 C3740 1.478 . S
C3739 H3733 0.930 . S
C3739 C3735 1.400 . S
C3739 C3738 1.385 . S
C3740 C3738 1.478 . S
C3740 C3742 1.381 . S
C3740 C3746 1.383 . S
C3741 C3737 1.495 . S
C3741 H3747 0.959 . S
C3741 H3748 0.961 . S
C3741 H3749 0.960 . S
C3742 C3740 1.381 . S
C3742 C3743 1.394 . S
C3742 H3750 0.930 . S
C3743 C3742 1.394 . S
C3743 C3744 1.383 . S
C3743 H3751 0.929 . S
C3744 C3743 1.383 . S
C3744 C3745 1.377 . S
C3745 H3729 0.930 . S
C3745 C3744 1.377 . S
C3745 C3746 1.379 . S
C3746 H3730 0.931 . S
C3746 C3740 1.383 . S
C3746 C3745 1.379 . S
H3747 C3741 0.959 . S
H3748 C3741 0.961 . S
H3749 C3741 0.960 . S
H3750 C3742 0.930 . S
H3751 C3743 0.929 . S
H3752 C3760 0.929 . S
H3753 C3762 0.930 . S
H3754 C3764 0.930 . S
H3755 C3767 0.929 . S
H3756 C3770 0.930 . S
H3757 C3772 0.960 . S
H3758 C3772 0.960 . S
H3759 C3772 0.960 . S
C3760 H3752 0.929 . S
C3760 C3761 1.377 . S
C3760 C3762 1.384 . S
C3761 C3760 1.377 . S
C3761 C3767 1.390 . S
C3762 H3753 0.930 . S
C3762 C3760 1.384 . S
C3762 C3763 1.372 . S
C3763 C3762 1.372 . S
C3763 C3764 1.400 . S
C3763 C3768 1.490 . S
C3764 H3754 0.930 . S
C3764 C3763 1.400 . S
C3764 C3767 1.386 . S
H3765 C3781 0.930 . S
H3766 C3782 0.931 . S
C3767 H3755 0.929 . S
C3767 C3761 1.390 . S
C3767 C3764 1.386 . S
C3768 C3763 1.490 . S
C3768 C3770 1.395 . S
C3768 C3771 1.403 . S
H3769 C3775 0.930 . S
C3770 H3756 0.930 . S
C3770 C3768 1.395 . S
C3770 C3773 1.403 . S
C3771 C3768 1.403 . S
C3771 C3772 1.524 . S
C3771 C3775 1.400 . S
C3772 H3757 0.960 . S
C3772 H3758 0.960 . S
C3772 H3759 0.960 . S
C3772 C3771 1.524 . S
C3773 C3770 1.403 . S
C3773 C3774 1.392 . S
C3773 C3777 1.495 . S
C3774 C3773 1.392 . S
C3774 C3775 1.385 . S
C3774 C3776 1.478 . S
C3775 H3769 0.930 . S
C3775 C3771 1.400 . S
C3775 C3774 1.385 . S
C3776 C3774 1.478 . S
C3776 C3778 1.381 . S
C3776 C3782 1.383 . S
C3777 C3773 1.495 . S
C3777 H3783 0.959 . S
C3777 H3784 0.961 . S
C3777 H3785 0.960 . S
C3778 C3776 1.381 . S
C3778 C3779 1.394 . S
C3778 H3786 0.930 . S
C3779 C3778 1.394 . S
C3779 C3780 1.383 . S
C3779 H3787 0.929 . S
C3780 C3779 1.383 . S
C3780 C3781 1.377 . S
C3781 H3765 0.930 . S
C3781 C3780 1.377 . S
C3781 C3782 1.379 . S
C3782 H3766 0.931 . S
C3782 C3776 1.383 . S
C3782 C3781 1.379 . S
H3783 C3777 0.959 . S
H3784 C3777 0.961 . S
H3785 C3777 0.960 . S
H3786 C3778 0.930 . S
H3787 C3779 0.929 . S
H3788 C3796 0.929 . S
H3789 C3798 0.930 . S
H3790 C3800 0.930 . S
H3791 C3803 0.929 . S
H3792 C3806 0.930 . S
H3793 C3808 0.960 . S
H3794 C3808 0.960 . S
H3795 C3808 0.960 . S
C3796 H3788 0.929 . S
C3796 C3797 1.377 . S
C3796 C3798 1.384 . S
C3797 C3796 1.377 . S
C3797 C3803 1.390 . S
C3798 H3789 0.930 . S
C3798 C3796 1.384 . S
C3798 C3799 1.372 . S
C3799 C3798 1.372 . S
C3799 C3800 1.400 . S
C3799 C3804 1.490 . S
C3800 H3790 0.930 . S
C3800 C3799 1.400 . S
C3800 C3803 1.386 . S
H3801 C3817 0.930 . S
H3802 C3818 0.931 . S
C3803 H3791 0.929 . S
C3803 C3797 1.390 . S
C3803 C3800 1.386 . S
C3804 C3799 1.490 . S
C3804 C3806 1.395 . S
C3804 C3807 1.403 . S
H3805 C3811 0.930 . S
C3806 H3792 0.930 . S
C3806 C3804 1.395 . S
C3806 C3809 1.403 1_655 S
C3807 C3804 1.403 . S
C3807 C3808 1.524 . S
C3807 C3811 1.400 1_655 S
C3808 H3793 0.960 . S
C3808 H3794 0.960 . S
C3808 H3795 0.960 . S
C3808 C3807 1.524 . S
C3809 C3806 1.403 1_455 S
C3809 C3810 1.392 . S
C3809 C3813 1.495 . S
C3810 C3809 1.392 . S
C3810 C3811 1.385 . S
C3810 C3812 1.478 . S
C3811 H3805 0.930 . S
C3811 C3807 1.400 1_455 S
C3811 C3810 1.385 . S
C3812 C3810 1.478 . S
C3812 C3814 1.381 . S
C3812 C3818 1.383 . S
C3813 C3809 1.495 . S
C3813 H3819 0.959 . S
C3813 H3820 0.961 . S
C3813 H3821 0.960 . S
C3814 C3812 1.381 . S
C3814 C3815 1.394 . S
C3814 H3822 0.930 . S
C3815 C3814 1.394 . S
C3815 C3816 1.383 . S
C3815 H3823 0.929 . S
C3816 C3815 1.383 . S
C3816 C3817 1.377 . S
C3817 H3801 0.930 . S
C3817 C3816 1.377 . S
C3817 C3818 1.379 . S
C3818 H3802 0.931 . S
C3818 C3812 1.383 . S
C3818 C3817 1.379 . S
H3819 C3813 0.959 . S
H3820 C3813 0.961 . S
H3821 C3813 0.960 . S
H3822 C3814 0.930 . S
H3823 C3815 0.929 . S
H3824 C3832 0.929 . S
H3825 C3834 0.930 . S
H3826 C3836 0.930 . S
H3827 C3839 0.929 . S
H3828 C3842 0.930 . S
H3829 C3844 0.960 . S
H3830 C3844 0.960 . S
H3831 C3844 0.960 . S
C3832 H3824 0.929 . S
C3832 C3833 1.377 . S
C3832 C3834 1.384 . S
C3833 C3832 1.377 . S
C3833 C3839 1.390 . S
C3834 H3825 0.930 . S
C3834 C3832 1.384 . S
C3834 C3835 1.372 . S
C3835 C3834 1.372 . S
C3835 C3836 1.400 . S
C3835 C3840 1.490 . S
C3836 H3826 0.930 . S
C3836 C3835 1.400 . S
C3836 C3839 1.386 . S
H3837 C3853 0.930 . S
H3838 C3854 0.931 . S
C3839 H3827 0.929 . S
C3839 C3833 1.390 . S
C3839 C3836 1.386 . S
C3840 C3835 1.490 . S
C3840 C3842 1.395 . S
C3840 C3843 1.403 . S
H3841 C3847 0.930 . S
C3842 H3828 0.930 . S
C3842 C3840 1.395 . S
C3842 C3845 1.403 . S
C3843 C3840 1.403 . S
C3843 C3844 1.524 . S
C3843 C3847 1.400 . S
C3844 H3829 0.960 . S
C3844 H3830 0.960 . S
C3844 H3831 0.960 . S
C3844 C3843 1.524 . S
C3845 C3842 1.403 . S
C3845 C3846 1.392 . S
C3845 C3849 1.495 . S
C3846 C3845 1.392 . S
C3846 C3847 1.385 . S
C3846 C3848 1.478 . S
C3847 H3841 0.930 . S
C3847 C3843 1.400 . S
C3847 C3846 1.385 . S
C3848 C3846 1.478 . S
C3848 C3850 1.381 . S
C3848 C3854 1.383 . S
C3849 C3845 1.495 . S
C3849 H3855 0.959 . S
C3849 H3856 0.961 . S
C3849 H3857 0.960 . S
C3850 C3848 1.381 . S
C3850 C3851 1.394 . S
C3850 H3858 0.930 . S
C3851 C3850 1.394 . S
C3851 C3852 1.383 . S
C3851 H3859 0.929 . S
C3852 C3851 1.383 . S
C3852 C3853 1.377 . S
C3853 H3837 0.930 . S
C3853 C3852 1.377 . S
C3853 C3854 1.379 . S
C3854 H3838 0.931 . S
C3854 C3848 1.383 . S
C3854 C3853 1.379 . S
H3855 C3849 0.959 . S
H3856 C3849 0.961 . S
H3857 C3849 0.960 . S
H3858 C3850 0.930 . S
H3859 C3851 0.929 . S
H3860 C3868 0.929 . S
H3861 C3870 0.930 . S
H3862 C3872 0.930 . S
H3863 C3875 0.929 . S
H3864 C3878 0.930 . S
H3865 C3880 0.960 1_655 S
H3866 C3880 0.960 . S
H3867 C3880 0.960 . S
C3868 H3860 0.929 . S
C3868 C3869 1.377 . S
C3868 C3870 1.384 . S
C3869 C3868 1.377 . S
C3869 C3875 1.390 . S
C3870 H3861 0.930 . S
C3870 C3868 1.384 . S
C3870 C3871 1.372 . S
C3871 C3870 1.372 . S
C3871 C3872 1.400 . S
C3871 C3876 1.490 . S
C3872 H3862 0.930 . S
C3872 C3871 1.400 . S
C3872 C3875 1.386 . S
H3873 C3889 0.930 . S
H3874 C3890 0.931 . S
C3875 H3863 0.929 . S
C3875 C3869 1.390 . S
C3875 C3872 1.386 . S
C3876 C3871 1.490 . S
C3876 C3878 1.395 . S
C3876 C3879 1.424 . S
H3877 C3883 0.930 . S
C3878 H3864 0.930 . S
C3878 C3876 1.395 . S
C3878 C3881 1.403 1_455 S
C3879 C3876 1.424 . S
C3879 C3880 1.535 . S
C3879 C3883 1.366 1_455 S
C3880 H3865 0.960 1_455 S
C3880 H3866 0.960 . S
C3880 H3867 0.960 . S
C3880 C3879 1.535 . S
C3881 C3878 1.403 1_655 S
C3881 C3882 1.392 . S
C3881 C3885 1.495 . S
C3882 C3881 1.392 . S
C3882 C3883 1.385 . S
C3882 C3884 1.478 . S
C3883 H3877 0.930 . S
C3883 C3879 1.366 1_655 S
C3883 C3882 1.385 . S
C3884 C3882 1.478 . S
C3884 C3886 1.381 . S
C3884 C3890 1.383 . S
C3885 C3881 1.495 . S
C3885 H3891 0.959 . S
C3885 H3892 0.961 . S
C3885 H3893 0.960 . S
C3886 C3884 1.381 . S
C3886 C3887 1.394 . S
C3886 H3894 0.930 . S
C3887 C3886 1.394 . S
C3887 C3888 1.383 . S
C3887 H3895 0.929 . S
C3888 C3887 1.383 . S
C3888 C3889 1.377 . S
C3889 H3873 0.930 . S
C3889 C3888 1.377 . S
C3889 C3890 1.379 . S
C3890 H3874 0.931 . S
C3890 C3884 1.383 . S
C3890 C3889 1.379 . S
H3891 C3885 0.959 . S
H3892 C3885 0.961 . S
H3893 C3885 0.960 . S
H3894 C3886 0.930 . S
H3895 C3887 0.929 . S
H3896 C3904 0.929 . S
H3897 C3906 0.930 . S
H3898 C3908 0.930 . S
H3899 C3911 0.929 . S
H3900 C3914 0.930 . S
H3901 C3916 0.960 . S
H3902 C3916 0.960 . S
H3903 C3916 0.960 . S
C3904 H3896 0.929 . S
C3904 C3905 1.377 . S
C3904 C3906 1.384 . S
C3905 C3904 1.377 . S
C3905 C3911 1.390 . S
C3906 H3897 0.930 . S
C3906 C3904 1.384 . S
C3906 C3907 1.372 . S
C3907 C3906 1.372 . S
C3907 C3908 1.400 . S
C3907 C3912 1.490 . S
C3908 H3898 0.930 . S
C3908 C3907 1.400 . S
C3908 C3911 1.386 . S
H3909 C3925 0.930 . S
H3910 C3926 0.931 . S
C3911 H3899 0.929 . S
C3911 C3905 1.390 . S
C3911 C3908 1.386 . S
C3912 C3907 1.490 . S
C3912 C3914 1.395 . S
C3912 C3915 1.403 . S
H3913 C3919 0.930 . S
C3914 H3900 0.930 . S
C3914 C3912 1.395 . S
C3914 C3917 1.403 . S
C3915 C3912 1.403 . S
C3915 C3916 1.524 . S
C3915 C3919 1.400 . S
C3916 H3901 0.960 . S
C3916 H3902 0.960 . S
C3916 H3903 0.960 . S
C3916 C3915 1.524 . S
C3917 C3914 1.403 . S
C3917 C3918 1.392 . S
C3917 C3921 1.495 . S
C3918 C3917 1.392 . S
C3918 C3919 1.385 . S
C3918 C3920 1.478 . S
C3919 H3913 0.930 . S
C3919 C3915 1.400 . S
C3919 C3918 1.385 . S
C3920 C3918 1.478 . S
C3920 C3922 1.381 . S
C3920 C3926 1.383 . S
C3921 C3917 1.495 . S
C3921 H3927 0.959 . S
C3921 H3928 0.961 . S
C3921 H3929 0.960 . S
C3922 C3920 1.381 . S
C3922 C3923 1.394 . S
C3922 H3930 0.930 . S
C3923 C3922 1.394 . S
C3923 C3924 1.383 . S
C3923 H3931 0.929 . S
C3924 C3923 1.383 . S
C3924 C3925 1.377 . S
C3925 H3909 0.930 . S
C3925 C3924 1.377 . S
C3925 C3926 1.379 . S
C3926 H3910 0.931 . S
C3926 C3920 1.383 . S
C3926 C3925 1.379 . S
H3927 C3921 0.959 . S
H3928 C3921 0.961 . S
H3929 C3921 0.960 . S
H3930 C3922 0.930 . S
H3931 C3923 0.929 . S
H3932 C3940 0.929 . S
H3933 C3942 0.930 . S
H3934 C3944 0.930 . S
H3935 C3947 0.929 . S
H3936 C3950 0.930 . S
H3937 C3952 0.960 . S
H3938 C3952 0.960 . S
H3939 C3952 0.960 . S
C3940 H3932 0.929 . S
C3940 C3941 1.377 . S
C3940 C3942 1.384 . S
C3941 C3940 1.377 . S
C3941 C3947 1.390 . S
C3942 H3933 0.930 . S
C3942 C3940 1.384 . S
C3942 C3943 1.372 . S
C3943 C3942 1.372 . S
C3943 C3944 1.400 . S
C3943 C3948 1.490 . S
C3944 H3934 0.930 . S
C3944 C3943 1.400 . S
C3944 C3947 1.386 . S
H3945 C3961 0.930 . S
H3946 C3962 0.931 . S
C3947 H3935 0.929 . S
C3947 C3941 1.390 . S
C3947 C3944 1.386 . S
C3948 C3943 1.490 . S
C3948 C3950 1.395 . S
C3948 C3951 1.403 . S
H3949 C3955 0.930 . S
C3950 H3936 0.930 . S
C3950 C3948 1.395 . S
C3950 C3953 1.403 . S
C3951 C3948 1.403 . S
C3951 C3952 1.524 . S
C3951 C3955 1.400 . S
C3952 H3937 0.960 . S
C3952 H3938 0.960 . S
C3952 H3939 0.960 . S
C3952 C3951 1.524 . S
C3953 C3950 1.403 . S
C3953 C3954 1.392 . S
C3953 C3957 1.495 . S
C3954 C3953 1.392 . S
C3954 C3955 1.385 . S
C3954 C3956 1.478 . S
C3955 H3949 0.930 . S
C3955 C3951 1.400 . S
C3955 C3954 1.385 . S
C3956 C3954 1.478 . S
C3956 C3958 1.381 . S
C3956 C3962 1.383 . S
C3957 C3953 1.495 . S
C3957 H3963 0.959 . S
C3957 H3964 0.961 . S
C3957 H3965 0.960 . S
C3958 C3956 1.381 . S
C3958 C3959 1.394 . S
C3958 H3966 0.930 . S
C3959 C3958 1.394 . S
C3959 C3960 1.383 . S
C3959 H3967 0.929 . S
C3960 C3959 1.383 . S
C3960 C3961 1.377 . S
C3961 H3945 0.930 . S
C3961 C3960 1.377 . S
C3961 C3962 1.379 . S
C3962 H3946 0.931 . S
C3962 C3956 1.383 . S
C3962 C3961 1.379 . S
H3963 C3957 0.959 . S
H3964 C3957 0.961 . S
H3965 C3957 0.960 . S
H3966 C3958 0.930 . S
H3967 C3959 0.929 . S
C1097 C240 1.935 . S
C1116 C2 1.928 . S
C1133 C36 1.937 . S
C1152 C138 1.920 . S
C1169 C70 1.935 . S
C1188 C172 1.934 . S
C1205 C206 1.937 . S
C1224 C104 1.946 . S
C1241 C274 1.939 . S
C1260 C512 1.931 . S
C1277 C410 1.938 . S
C1296 C308 1.927 . S
C1313 C342 1.939 . S
C1332 C444 1.928 . S
C1349 C478 1.939 . S
C1368 C376 1.921 . S
C1385 C784 1.935 . S
C1404 C546 1.941 . S
C1421 C682 1.935 . S
C1440 C580 1.938 . S
C1457 C716 1.935 . S
C1476 C614 1.940 . S
C1493 C750 1.937 . S
C1512 C648 1.921 . S
C1529 C1056 1.940 . S
C1548 C818 1.924 . S
C1565 C852 1.935 . S
C1584 C954 1.946 . S
C1601 C988 1.940 . S
C1620 C886 1.925 . S
C1637 C1022 1.935 . S
C1656 C920 1.946 . S
C1673 C20 0.323 . S
C1692 C258 0.301 . S
C1709 C54 0.318 . S
C1728 C156 0.302 . S
C1745 C88 0.331 . S
C1764 C190 0.328 . S
C1781 C122 0.333 . S
C1800 C224 0.335 . S
C1817 C530 0.319 . S
C1836 C292 0.377 . S
C1853 C326 0.318 . S
C1872 C428 0.391 . S
C1889 C462 0.326 . S
C1908 C360 0.347 . S
C1925 C394 0.336 . S
C1944 C496 0.302 . S
C1961 C564 0.336 . S
C1980 C802 0.359 . S
C1997 C700 0.317 . S
C2016 C598 0.314 . S
C2033 C734 0.329 . S
C2052 C632 0.318 . S
C2069 C666 0.337 . S
C2088 C768 0.387 . S
C2105 C836 0.336 . S
C2124 C1074 0.303 . S
C2141 C870 0.337 . S
C2160 C972 0.299 . S
C2177 C904 0.331 . S
C2196 C1006 0.340 . S
C2213 C938 0.324 . S
C2232 C1040 0.370 . S
C2249 C213 1.625 . S
C2268 C9 1.607 . S
C2285 C43 1.627 . S
C2304 C247 1.622 . S
C2321 C145 1.627 . S
C2340 C77 1.600 . S
C2357 C179 1.628 . S
C2376 C111 1.597 . S
C2393 C485 1.629 . S
C2412 C281 1.623 . S
C2429 C519 1.617 . S
C2448 C315 1.595 . S
C2465 C417 1.624 . S
C2484 C349 1.597 . S
C2501 C451 1.617 . S
C2520 C383 1.598 . S
C2537 C553 1.625 . S
C2556 C757 1.630 . S
C2573 C791 1.631 . S
C2592 C587 1.586 . S
C2609 C689 1.622 . S
C2628 C621 1.624 . S
C2645 C723 1.618 . S
C2664 C655 1.646 . S
C2681 C1029 1.620 . S
C2700 C825 1.623 . S
C2717 C859 1.617 . S
C2736 C1063 1.592 . S
C2753 C961 1.617 . S
C2772 C893 1.593 . S
C2789 C995 1.617 . S
C2808 C927 1.595 . S
C2825 C33 1.570 . S
C2844 C923 1.560 . S
C2861 C277 1.567 . S
C2880 C67 1.566 . S
C2897 C855 1.567 . S
C2916 C101 1.573 . S
C2933 C135 1.568 . S
C2952 C345 1.561 . S
C2969 C169 1.568 . S
C2988 C991 1.565 . S
C3005 C203 1.571 . S
C3024 C481 1.568 . S
C3041 C237 1.570 . S
C3060 C1059 1.556 . S
C3077 C413 1.566 . S
C3096 C271 1.562 . S
C3113 C651 1.564 . S
C3132 C305 1.567 . S
C3149 C339 1.568 . S
C3168 C5 1.571 . S
C3185 C373 1.570 . S
C3204 C583 1.553 . S
C3221 C73 1.567 . S
C3240 C407 1.560 . S
C3257 C719 1.567 . S
C3276 C441 1.559 . S
C3293 C475 1.571 . S
C3312 C209 1.552 . S
C3329 C509 1.570 . S
C3348 C787 1.554 . S
C3365 C141 1.567 . S
C3384 C543 1.559 . S
C3401 C379 1.566 . S
C3420 C577 1.563 . S
C3437 C821 1.566 . S
C3456 C611 1.563 . S
C3473 C645 1.570 . S
C3492 C311 1.572 . S
C3509 C679 1.568 . S
C3528 C889 1.565 . S
C3545 C447 1.567 . S
C3564 C713 1.570 . S
C3581 C747 1.569 . S
C3600 C1025 1.570 . S
C3617 C515 1.565 . S
C3636 C781 1.560 . S
C3653 C957 1.566 . S
C3672 C815 1.564 . S
C3689 C107 1.566 . S
C3708 C849 1.562 . S
C3725 C883 1.571 . S
C3744 C549 1.553 . S
C3761 C39 1.563 . S
C3780 C917 1.573 . S
C3797 C617 1.564 . S
C3816 C951 1.568 . S
C3833 C175 1.565 . S
C3852 C985 1.564 . S
C3869 C1019 1.568 . S
C3888 C753 1.569 . S
C3905 C1053 1.571 . S
C3924 C243 1.552 . S
C3941 C1087 1.568 . S
C3960 C685 1.571 . S
