# Generated by pormake.
# Topology wkf, (6)-cn, num edge types: 1
# Building blocks:
#     Node 0, Type 0, BuildingBlock: CUKXOW_clean_sbu_0, # of connection points: 6
#     Node 1, Type 0, BuildingBlock: CUKXOW_clean_sbu_0, # of connection points: 6
#     Node 2, Type 0, BuildingBlock: CUKXOW_clean_sbu_0, # of connection points: 6
#     Node 3, Type 0, BuildingBlock: CUKXOW_clean_sbu_0, # of connection points: 6
#     Node 4, Type 0, BuildingBlock: CUKXOW_clean_sbu_0, # of connection points: 6
#     Node 5, Type 0, BuildingBlock: CUKXOW_clean_sbu_0, # of connection points: 6
#     Node 6, Type 0, BuildingBlock: CUKXOW_clean_sbu_0, # of connection points: 6
#     Node 7, Type 0, BuildingBlock: CUKXOW_clean_sbu_0, # of connection points: 6
#     Node 8, Type 0, BuildingBlock: CUKXOW_clean_sbu_0, # of connection points: 6
#     Node 9, Type 0, BuildingBlock: CUKXOW_clean_sbu_0, # of connection points: 6
#     Node 10, Type 0, BuildingBlock: CUKXOW_clean_sbu_0, # of connection points: 6
#     Node 11, Type 0, BuildingBlock: CUKXOW_clean_sbu_0, # of connection points: 6
#     Edge 12, Type (0, 0), BuildingBlock: TEMPAE_clean_linker_10, # of connection points: 2
#     Edge 13, Type (0, 0), BuildingBlock: TEMPAE_clean_linker_10, # of connection points: 2
#     Edge 14, Type (0, 0), BuildingBlock: TEMPAE_clean_linker_10, # of connection points: 2
#     Edge 15, Type (0, 0), BuildingBlock: TEMPAE_clean_linker_10, # of connection points: 2
#     Edge 16, Type (0, 0), BuildingBlock: TEMPAE_clean_linker_10, # of connection points: 2
#     Edge 17, Type (0, 0), BuildingBlock: TEMPAE_clean_linker_10, # of connection points: 2
#     Edge 18, Type (0, 0), BuildingBlock: TEMPAE_clean_linker_10, # of connection points: 2
#     Edge 19, Type (0, 0), BuildingBlock: TEMPAE_clean_linker_10, # of connection points: 2
#     Edge 20, Type (0, 0), BuildingBlock: TEMPAE_clean_linker_10, # of connection points: 2
#     Edge 21, Type (0, 0), BuildingBlock: TEMPAE_clean_linker_10, # of connection points: 2
#     Edge 22, Type (0, 0), BuildingBlock: TEMPAE_clean_linker_10, # of connection points: 2
#     Edge 23, Type (0, 0), BuildingBlock: TEMPAE_clean_linker_10, # of connection points: 2
#     Edge 24, Type (0, 0), BuildingBlock: TEMPAE_clean_linker_10, # of connection points: 2
#     Edge 25, Type (0, 0), BuildingBlock: TEMPAE_clean_linker_10, # of connection points: 2
#     Edge 26, Type (0, 0), BuildingBlock: TEMPAE_clean_linker_10, # of connection points: 2
#     Edge 27, Type (0, 0), BuildingBlock: TEMPAE_clean_linker_10, # of connection points: 2
#     Edge 28, Type (0, 0), BuildingBlock: TEMPAE_clean_linker_10, # of connection points: 2
#     Edge 29, Type (0, 0), BuildingBlock: TEMPAE_clean_linker_10, # of connection points: 2
#     Edge 30, Type (0, 0), BuildingBlock: TEMPAE_clean_linker_10, # of connection points: 2
#     Edge 31, Type (0, 0), BuildingBlock: TEMPAE_clean_linker_10, # of connection points: 2
#     Edge 32, Type (0, 0), BuildingBlock: TEMPAE_clean_linker_10, # of connection points: 2
#     Edge 33, Type (0, 0), BuildingBlock: TEMPAE_clean_linker_10, # of connection points: 2
#     Edge 34, Type (0, 0), BuildingBlock: TEMPAE_clean_linker_10, # of connection points: 2
#     Edge 35, Type (0, 0), BuildingBlock: TEMPAE_clean_linker_10, # of connection points: 2
#     Edge 36, Type (0, 0), BuildingBlock: TEMPAE_clean_linker_10, # of connection points: 2
#     Edge 37, Type (0, 0), BuildingBlock: TEMPAE_clean_linker_10, # of connection points: 2
#     Edge 38, Type (0, 0), BuildingBlock: TEMPAE_clean_linker_10, # of connection points: 2
#     Edge 39, Type (0, 0), BuildingBlock: TEMPAE_clean_linker_10, # of connection points: 2
#     Edge 40, Type (0, 0), BuildingBlock: TEMPAE_clean_linker_10, # of connection points: 2
#     Edge 41, Type (0, 0), BuildingBlock: TEMPAE_clean_linker_10, # of connection points: 2
#     Edge 42, Type (0, 0), BuildingBlock: TEMPAE_clean_linker_10, # of connection points: 2
#     Edge 43, Type (0, 0), BuildingBlock: TEMPAE_clean_linker_10, # of connection points: 2
#     Edge 44, Type (0, 0), BuildingBlock: TEMPAE_clean_linker_10, # of connection points: 2
#     Edge 45, Type (0, 0), BuildingBlock: TEMPAE_clean_linker_10, # of connection points: 2
#     Edge 46, Type (0, 0), BuildingBlock: TEMPAE_clean_linker_10, # of connection points: 2
#     Edge 47, Type (0, 0), BuildingBlock: TEMPAE_clean_linker_10, # of connection points: 2
# Relax obj value: 0.112
# Max RMSD: 0.281
# Mean RMSD: 0.281
data_MOF--net-wkf--node1-CUKXOW_clean_sbu_0--edge1-TEMPAE_clean_linker_10
_symmetry_space_group_name_H-M    P1
_symmetry_Int_Tables_number       1
_symmetry_cell_setting            triclinic
loop_
_symmetry_equiv_pos_as_xyz
'x, y, z'
_cell_length_a     27.165843
_cell_length_b     27.137182
_cell_length_c     78.232245
_cell_angle_alpha  90.129455
_cell_angle_beta   89.832398
_cell_angle_gamma 119.97174
loop_
_atom_site_label
_atom_site_type_symbol
_atom_site_fract_x
_atom_site_fract_y
_atom_site_fract_z
_atom_type_partial_charge
Tb0 Tb 0.34941 0.16827 0.402 0.0
C1 C 0.33681 0.05151 0.41427 0.0
Tb2 Tb 0.415 0.12009 0.38253 0.0
O3 O 0.29266 0.14973 0.37969 0.0
O4 O 0.33051 0.10134 0.38481 0.0
O5 O 0.33038 0.09554 0.41815 0.0
C6 C 0.4495 0.05525 0.3672 0.0
O7 O 0.36647 0.05145 0.40076 0.0
C8 C 0.48 0.21196 0.40006 0.0
C9 C 0.4148 0.22941 0.36884 0.0
O10 O 0.46118 0.07376 0.38281 0.0
O11 O 0.41922 0.07438 0.35997 0.0
O12 O 0.49648 0.19467 0.38697 0.0
O13 O 0.43025 0.17356 0.40436 0.0
O14 O 0.41773 0.18338 0.36435 0.0
O15 O 0.39733 0.23586 0.38409 0.0
C16 C 0.3087 0.2083 0.42612 0.0
O17 O 0.36026 0.23506 0.4201 0.0
O18 O 0.28013 0.15998 0.41825 0.0
C19 C 0.30066 0.10901 0.37414 0.0
Tb20 Tb 0.19891 0.34772 0.56927 0.0
C21 C 0.306 0.33538 0.57832 0.0
Tb22 Tb 0.30922 0.4162 0.54916 0.0
O23 O 0.15902 0.29447 0.54657 0.0
O24 O 0.2459 0.33041 0.55129 0.0
O25 O 0.25982 0.3347 0.58431 0.0
C26 C 0.39608 0.4551 0.52715 0.0
O27 O 0.32981 0.3608 0.56371 0.0
C28 C 0.29797 0.46978 0.57633 0.0
C29 C 0.19859 0.42244 0.53887 0.0
O30 O 0.39476 0.48039 0.54107 0.0
O31 O 0.3475 0.40893 0.52524 0.0
O32 O 0.34546 0.47493 0.57081 0.0
O33 O 0.26049 0.43502 0.56633 0.0
O34 O 0.24955 0.43135 0.53391 0.0
O35 O 0.17326 0.39595 0.55326 0.0
C36 C 0.12004 0.30569 0.59392 0.0
O37 O 0.15152 0.35918 0.59016 0.0
O38 O 0.13254 0.27581 0.58368 0.0
C39 C 0.2073 0.3024 0.54066 0.0
Tb40 Tb 0.85334 0.18742 0.734 0.0
C41 C 0.97942 0.29109 0.73928 0.0
Tb42 Tb 0.8912 0.29885 0.71455 0.0
O43 O 0.86435 0.14641 0.71103 0.0
O44 O 0.91219 0.23406 0.71473 0.0
O45 O 0.93754 0.24207 0.74518 0.0
C46 C 0.9346 0.3911 0.69447 0.0
O47 O 0.97182 0.31817 0.72634 0.0
C48 C 0.83681 0.28795 0.74393 0.0
C49 C 0.76802 0.19179 0.70775 0.0
O50 O 0.91021 0.38555 0.70915 0.0
O51 O 0.93198 0.34321 0.69058 0.0
O52 O 0.87783 0.3354 0.73795 0.0
O53 O 0.82942 0.25041 0.73323 0.0
O54 O 0.81045 0.24006 0.70118 0.0
O55 O 0.77404 0.16903 0.72209 0.0
C56 C 0.82461 0.11876 0.76117 0.0
O57 O 0.8174 0.1019 0.7453 0.0
O58 O 0.8473 0.17364 0.76159 0.0
C59 C 0.89986 0.19509 0.70409 0.0
Tb60 Tb 0.66847 0.84916 0.90125 0.0
C61 C 0.68663 0.97143 0.90887 0.0
Tb62 Tb 0.59738 0.88958 0.88148 0.0
O63 O 0.72596 0.86707 0.87915 0.0
O64 O 0.68305 0.91189 0.88297 0.0
O65 O 0.68844 0.92711 0.91521 0.0
C66 C 0.55373 0.94252 0.86372 0.0
O67 O 0.66083 0.96758 0.89415 0.0
C68 C 0.54453 0.82148 0.90824 0.0
C69 C 0.59355 0.77412 0.87074 0.0
O70 O 0.56494 0.94796 0.87986 0.0
O71 O 0.56589 0.90555 0.85722 0.0
O72 O 0.5352 0.86069 0.90246 0.0
O73 O 0.58114 0.82243 0.89828 0.0
O74 O 0.58624 0.81705 0.86544 0.0
O75 O 0.61761 0.7747 0.8856 0.0
C76 C 0.70134 0.81124 0.92796 0.0
O77 O 0.73005 0.83096 0.91383 0.0
O78 O 0.6541 0.81201 0.92679 0.0
C79 C 0.71304 0.90324 0.87251 0.0
Tb80 Tb 0.82415 0.67059 0.06858 0.0
C81 C 0.71336 0.67923 0.07503 0.0
Tb82 Tb 0.71664 0.59401 0.0477 0.0
O83 O 0.86387 0.73097 0.0473 0.0
O84 O 0.77548 0.68117 0.04964 0.0
O85 O 0.76173 0.68652 0.0814 0.0
C86 C 0.62566 0.54513 0.02722 0.0
O87 O 0.69105 0.64917 0.06088 0.0
C88 C 0.73274 0.54618 0.07521 0.0
C89 C 0.83442 0.59791 0.03873 0.0
O90 O 0.62981 0.52714 0.04217 0.0
O91 O 0.67421 0.58926 0.02331 0.0
O92 O 0.6836 0.53622 0.06971 0.0
O93 O 0.76887 0.58213 0.06517 0.0
O94 O 0.78129 0.58194 0.03365 0.0
O95 O 0.85708 0.62751 0.053 0.0
C96 C 0.88934 0.70483 0.09655 0.0
O97 O 0.89946 0.73437 0.08257 0.0
O98 O 0.8435 0.656 0.09454 0.0
C99 C 0.81514 0.71386 0.0398 0.0
Tb100 Tb 0.16638 0.82722 0.23523 0.0
C101 C 0.03876 0.73285 0.23642 0.0
Tb102 Tb 0.12786 0.71828 0.21306 0.0
O103 O 0.11289 0.85108 0.21969 0.0
O104 O 0.14444 0.80167 0.20977 0.0
O105 O 0.08073 0.77545 0.24474 0.0
C106 C 0.06738 0.62025 0.19643 0.0
O107 O 0.04759 0.7085 0.22293 0.0
C108 C 0.19348 0.7278 0.23859 0.0
C109 C 0.25229 0.82131 0.20835 0.0
O110 O 0.07814 0.62613 0.21266 0.0
O111 O 0.09208 0.67026 0.18917 0.0
O112 O 0.18578 0.69672 0.22517 0.0
O113 O 0.1581 0.74561 0.23837 0.0
O114 O 0.21028 0.77486 0.20083 0.0
O115 O 0.24466 0.84486 0.22234 0.0
C116 C 0.20514 0.8979 0.26198 0.0
O117 O 0.21507 0.91388 0.24603 0.0
O118 O 0.17497 0.84295 0.26265 0.0
C119 C 0.11186 0.82051 0.20667 0.0
Tb120 Tb 0.85891 0.66121 0.44194 0.0
C121 C 0.98562 0.69323 0.44264 0.0
Tb122 Tb 0.89334 0.58975 0.46514 0.0
O123 O 0.91354 0.73892 0.45722 0.0
O124 O 0.87871 0.65825 0.46772 0.0
O125 O 0.94481 0.69148 0.43302 0.0
C126 C 0.9556 0.5575 0.48297 0.0
O127 O 0.97454 0.66228 0.45673 0.0
C128 C 0.83224 0.53417 0.43864 0.0
C129 C 0.77087 0.57516 0.46961 0.0
O130 O 0.96266 0.57212 0.46703 0.0
O131 O 0.91223 0.56001 0.48914 0.0
O132 O 0.84012 0.51022 0.45185 0.0
O133 O 0.86647 0.58734 0.43968 0.0
O134 O 0.81126 0.56779 0.47697 0.0
O135 O 0.78013 0.60729 0.45577 0.0
C136 C 0.81993 0.68859 0.41431 0.0
O137 O 0.82811 0.71304 0.42921 0.0
O138 O 0.83256 0.64852 0.41521 0.0
C139 C 0.91216 0.70983 0.47066 0.0
Tb140 Tb 0.1984 0.85546 0.60931 0.0
C141 C 0.30727 0.97885 0.60434 0.0
Tb142 Tb 0.30208 0.89147 0.63229 0.0
O143 O 0.15295 0.86915 0.63068 0.0
O144 O 0.2412 0.91601 0.62842 0.0
O145 O 0.25922 0.93751 0.59775 0.0
C146 C 0.38428 0.93711 0.65585 0.0
O147 O 0.33013 0.97089 0.6183 0.0
C148 C 0.29813 0.83289 0.60463 0.0
C149 C 0.18632 0.77394 0.63935 0.0
O150 O 0.38055 0.90266 0.64374 0.0
O151 O 0.33985 0.94311 0.65527 0.0
O152 O 0.34442 0.87374 0.61129 0.0
O153 O 0.25756 0.82747 0.61378 0.0
O154 O 0.23568 0.81481 0.64587 0.0
O155 O 0.16755 0.77836 0.62407 0.0
C156 C 0.13669 0.82415 0.5806 0.0
O157 O 0.12289 0.83995 0.59469 0.0
O158 O 0.18443 0.82503 0.58286 0.0
C159 C 0.20027 0.90638 0.63796 0.0
Tb160 Tb 0.34874 0.18731 0.77622 0.0
C161 C 0.33487 0.29151 0.76734 0.0
Tb162 Tb 0.41986 0.29979 0.79551 0.0
O163 O 0.29327 0.14815 0.79874 0.0
O164 O 0.33423 0.23549 0.79467 0.0
O165 O 0.33947 0.24917 0.76064 0.0
C166 C 0.4606 0.39648 0.81334 0.0
O167 O 0.35479 0.31065 0.78282 0.0
C168 C 0.47266 0.28559 0.7684 0.0
C169 C 0.42299 0.18866 0.80697 0.0
O170 O 0.44078 0.38788 0.79799 0.0
O171 O 0.45854 0.35029 0.81896 0.0
O172 O 0.48074 0.33371 0.77427 0.0
O173 O 0.43647 0.24943 0.77836 0.0
O174 O 0.43112 0.23958 0.81184 0.0
O175 O 0.39749 0.16309 0.79248 0.0
C176 C 0.30465 0.10832 0.7515 0.0
O177 O 0.35705 0.13355 0.75666 0.0
O178 O 0.27694 0.12673 0.76052 0.0
C179 C 0.30549 0.19714 0.80531 0.0
Tb180 Tb 0.16025 0.33795 0.94393 0.0
C181 C 0.03854 0.32465 0.93803 0.0
Tb182 Tb 0.1272 0.41363 0.96432 0.0
O183 O 0.14043 0.27877 0.96561 0.0
O184 O 0.10052 0.32659 0.96288 0.0
O185 O 0.08003 0.31787 0.93159 0.0
C186 C 0.08618 0.46601 0.98397 0.0
O187 O 0.04598 0.35479 0.95217 0.0
C188 C 0.18579 0.45909 0.93573 0.0
C189 C 0.24488 0.41817 0.97216 0.0
O190 O 0.10261 0.47797 0.96824 0.0
O191 O 0.09561 0.42588 0.98912 0.0
O192 O 0.14613 0.46755 0.94171 0.0
O193 O 0.1905 0.42639 0.94606 0.0
O194 O 0.20491 0.42889 0.97821 0.0
O195 O 0.23888 0.39117 0.95743 0.0
C196 C 0.18938 0.29881 0.91654 0.0
O197 O 0.194 0.28669 0.93234 0.0
O198 O 0.16886 0.33287 0.9163 0.0
C199 C 0.10774 0.29495 0.97296 0.0
Tb200 Tb 0.83 0.15671 0.11239 0.0
C201 C 0.72099 0.03586 0.10377 0.0
Tb202 Tb 0.71907 0.1196 0.13175 0.0
O203 O 0.8669 0.13629 0.13446 0.0
O204 O 0.77957 0.09331 0.12998 0.0
O205 O 0.77295 0.07628 0.09938 0.0
C206 C 0.63243 0.0737 0.15384 0.0
O207 O 0.69304 0.04246 0.11669 0.0
C208 C 0.73591 0.1861 0.10482 0.0
C209 C 0.83182 0.23523 0.1421 0.0
O210 O 0.63533 0.10279 0.14036 0.0
O211 O 0.67951 0.07281 0.1553 0.0
O212 O 0.68662 0.1454 0.10989 0.0
O213 O 0.77182 0.18679 0.11506 0.0
O214 O 0.78008 0.19435 0.14704 0.0
O215 O 0.85566 0.23254 0.12752 0.0
C216 C 0.89825 0.1875 0.08516 0.0
O217 O 0.91465 0.18882 0.10086 0.0
O218 O 0.84426 0.16991 0.08494 0.0
C219 C 0.81701 0.10014 0.14057 0.0
Tb220 Tb 0.66138 0.81889 0.27716 0.0
C221 C 0.67502 0.71657 0.26771 0.0
Tb222 Tb 0.58656 0.70436 0.29616 0.0
O223 O 0.73829 0.83199 0.29145 0.0
O224 O 0.65817 0.78289 0.30108 0.0
O225 O 0.67022 0.7587 0.26111 0.0
C226 C 0.54862 0.60346 0.31094 0.0
O227 O 0.65109 0.69347 0.28253 0.0
C228 C 0.53081 0.72976 0.27411 0.0
C229 C 0.58497 0.81573 0.30852 0.0
O230 O 0.54108 0.61182 0.29509 0.0
O231 O 0.57642 0.6522 0.31876 0.0
O232 O 0.50768 0.6932 0.28643 0.0
O233 O 0.58275 0.74256 0.27278 0.0
O234 O 0.57149 0.76223 0.31242 0.0
O235 O 0.6164 0.84405 0.295 0.0
C236 C 0.70413 0.90544 0.25493 0.0
O237 O 0.65179 0.87855 0.26032 0.0
O238 O 0.73217 0.8849 0.26258 0.0
C239 C 0.70869 0.7969 0.30357 0.0
C240 C 0.17957 0.91716 0.29066 0.0
C241 C 0.21874 0.93493 0.27716 0.0
C242 C 0.1914 0.94924 0.30571 0.0
C243 C 0.24477 0.99934 0.30764 0.0
C244 C 0.2844 0.0179 0.29393 0.0
C245 C 0.27044 0.98591 0.27867 0.0
C246 C 0.14722 0.92859 0.31974 0.0
C247 C 0.34242 0.07001 0.29567 0.0
C248 C 0.2629 0.1004 0.3443 0.0
C249 C 0.28487 0.08109 0.35718 0.0
C250 C 0.25003 0.07463 0.32802 0.0
C251 C 0.26033 0.02924 0.3245 0.0
C252 C 0.28265 0.00987 0.33752 0.0
C253 C 0.29361 0.03534 0.35373 0.0
C254 C 0.22468 0.09536 0.31466 0.0
C255 C 0.29471 0.96194 0.33438 0.0
H256 H 0.13929 0.87793 0.28941 0.0
H257 H 0.30084 0.99938 0.26826 0.0
H258 H 0.16224 0.91456 0.33089 0.0
H259 H 0.14045 0.96366 0.32415 0.0
H260 H 0.10581 0.89246 0.31553 0.0
H261 H 0.36704 0.08076 0.28355 0.0
H262 H 0.33854 0.10709 0.29975 0.0
H263 H 0.36673 0.06259 0.30573 0.0
H264 H 0.25586 0.13563 0.34695 0.0
H265 H 0.30929 0.01937 0.36378 0.0
H266 H 0.18239 0.06004 0.31078 0.0
H267 H 0.25189 0.10927 0.30307 0.0
H268 H 0.21969 0.13131 0.31934 0.0
H269 H 0.31587 0.95476 0.34545 0.0
H270 H 0.32219 0.97124 0.32293 0.0
H271 H 0.25446 0.92194 0.33179 0.0
C272 C 0.18512 0.28649 0.50945 0.0
C273 C 0.21789 0.2878 0.5234 0.0
C274 C 0.19814 0.27669 0.4928 0.0
C275 C 0.24378 0.26617 0.49022 0.0
C276 C 0.27643 0.2668 0.50439 0.0
C277 C 0.26345 0.27824 0.52077 0.0
C278 C 0.16375 0.27854 0.47796 0.0
C279 C 0.32457 0.25453 0.50232 0.0
C280 C 0.24438 0.18257 0.45127 0.0
C281 C 0.28863 0.22474 0.4415 0.0
C282 C 0.22868 0.19568 0.46701 0.0
C283 C 0.25662 0.25273 0.47283 0.0
C284 C 0.29942 0.29599 0.46254 0.0
C285 C 0.31576 0.28125 0.44714 0.0
C286 C 0.18408 0.14801 0.47776 0.0
C287 C 0.32953 0.35755 0.46802 0.0
H288 H 0.15041 0.29476 0.51149 0.0
H289 H 0.2888 0.27935 0.53161 0.0
H290 H 0.19239 0.30976 0.46832 0.0
H291 H 0.14138 0.2364 0.47159 0.0
H292 H 0.13177 0.29039 0.482 0.0
H293 H 0.34713 0.25879 0.51453 0.0
H294 H 0.30774 0.21063 0.49739 0.0
H295 H 0.35575 0.28388 0.49282 0.0
H296 H 0.22373 0.13869 0.447 0.0
H297 H 0.35001 0.31389 0.43958 0.0
H298 H 0.14937 0.1567 0.48098 0.0
H299 H 0.20321 0.14525 0.48998 0.0
H300 H 0.16544 0.10614 0.4712 0.0
H301 H 0.29949 0.36901 0.47399 0.0
H302 H 0.35104 0.38661 0.45709 0.0
H303 H 0.36229 0.36463 0.47763 0.0
C304 C 0.89964 0.17547 0.67285 0.0
C305 C 0.92931 0.20396 0.68759 0.0
C306 C 0.92691 0.18872 0.65681 0.0
C307 C 0.98558 0.22975 0.65572 0.0
C308 C 0.01597 0.25689 0.67078 0.0
C309 C 0.98715 0.24453 0.68646 0.0
C310 C 0.89258 0.16049 0.64099 0.0
C311 C 0.07885 0.29952 0.67035 0.0
C312 C 0.07217 0.23355 0.61689 0.0
C313 C 0.08124 0.28328 0.60871 0.0
C314 C 0.04029 0.21496 0.63207 0.0
C315 C 0.01525 0.24579 0.63885 0.0
C316 C 0.0221 0.29453 0.63011 0.0
C317 C 0.05598 0.31334 0.61532 0.0
C318 C 0.03587 0.16411 0.64131 0.0
C319 C 0.99488 0.32769 0.63663 0.0
H320 H 0.85465 0.14475 0.67377 0.0
H321 H 1.01001 0.2665 0.69793 0.0
H322 H 0.89353 0.19327 0.63232 0.0
H323 H 0.91146 0.13848 0.63391 0.0
H324 H 0.84759 0.12913 0.64403 0.0
H325 H 0.09712 0.31248 0.68338 0.0
H326 H 0.10202 0.28143 0.66348 0.0
H327 H 0.08644 0.33813 0.66332 0.0
H328 H 0.09224 0.21064 0.61185 0.0
H329 H 0.06286 0.3517 0.60893 0.0
H330 H 0.99073 0.13211 0.64372 0.0
H331 H 0.05702 0.17765 0.65394 0.0
H332 H 0.05592 0.14352 0.63402 0.0
H333 H 0.94887 0.29867 0.63898 0.0
H334 H 1.00006 0.36147 0.62759 0.0
H335 H 0.01433 0.34791 0.649 0.0
C336 C 0.83793 0.10678 0.792 0.0
C337 C 0.81048 0.08252 0.77655 0.0
C338 C 0.82398 0.07446 0.80706 0.0
C339 C 0.78024 0.01675 0.80679 0.0
C340 C 0.75278 0.99177 0.79113 0.0
C341 C 0.76884 0.02483 0.77611 0.0
C342 C 0.85527 0.10254 0.82335 0.0
C343 C 0.70495 0.93088 0.79038 0.0
C344 C 0.76824 0.92404 0.84504 0.0
C345 C 0.72954 0.93015 0.85543 0.0
C346 C 0.78475 0.95135 0.82903 0.0
C347 C 0.76081 0.98424 0.82316 0.0
C348 C 0.72052 0.98908 0.83347 0.0
C349 C 0.70628 0.96292 0.84957 0.0
C350 C 0.82893 0.94638 0.81863 0.0
C351 C 0.69295 0.02265 0.82765 0.0
H352 H 0.87051 0.15132 0.79234 0.0
H353 H 0.74742 1.00612 0.76416 0.0
H354 H 0.82578 0.10568 0.83254 0.0
H355 H 0.87135 0.07647 0.82946 0.0
H356 H 0.89167 0.14598 0.82108 0.0
H357 H 0.6899 0.91691 0.77711 0.0
H358 H 0.71869 0.90209 0.7959 0.0
H359 H 0.66868 0.92617 0.7982 0.0
H360 H 0.7865 0.89895 0.84957 0.0
H361 H 0.67692 0.9684 0.85763 0.0
H362 H 0.86705 0.98909 0.81704 0.0
H363 H 0.81239 0.93002 0.80566 0.0
H364 H 0.84207 0.91779 0.8247 0.0
H365 H 0.72541 0.06839 0.82671 0.0
H366 H 0.65897 0.01821 0.83653 0.0
H367 H 0.67429 0.00841 0.81474 0.0
C368 C 0.68472 0.77457 0.95784 0.0
C369 C 0.72083 0.7955 0.9436 0.0
C370 C 0.70301 0.76228 0.9732 0.0
C371 C 0.759 0.77143 0.9744 0.0
C372 C 0.79549 0.79201 0.95998 0.0
C373 C 0.77592 0.80373 0.94473 0.0
C374 C 0.66251 0.73995 0.98819 0.0
C375 C 0.85531 0.80202 0.96073 0.0
C376 C 0.81774 0.78602 0.01952 0.0
C377 C 0.80674 0.73069 0.02263 0.0
C378 C 0.80393 0.80049 1.00367 0.0
C379 C 0.77869 0.75851 0.99071 0.0
C380 C 0.76947 0.70309 0.9937 0.0
C381 C 0.78396 0.69007 0.00959 0.0
C382 C 0.81448 0.86006 1.00101 0.0
C383 C 0.74256 0.65695 0.98033 0.0
H384 H 0.64208 0.76818 0.95704 0.0
H385 H 0.804 0.8201 0.93376 0.0
H386 H 0.65787 0.69911 0.99269 0.0
H387 H 0.67987 0.77047 0.99899 0.0
H388 H 0.61972 0.73307 0.98497 0.0
H389 H 0.87829 0.81792 0.94841 0.0
H390 H 0.87952 0.83342 0.97089 0.0
H391 H 0.85449 0.76191 0.96409 0.0
H392 H 0.8354 0.81741 0.02966 0.0
H393 H 0.77683 0.64774 0.01186 0.0
H394 H 0.77333 0.85888 0.99943 0.0
H395 H 0.83941 0.87844 0.98914 0.0
H396 H 0.83761 0.88861 0.0119 0.0
H397 H 0.69873 0.64791 0.97765 0.0
H398 H 0.74053 0.61677 0.9844 0.0
H399 H 0.76682 0.6713 0.96818 0.0
C400 C 0.09367 0.78545 0.17679 0.0
C401 C 0.07921 0.80872 0.19062 0.0
C402 C 0.06247 0.77049 0.16157 0.0
C403 C 0.01555 0.77928 0.16002 0.0
C404 C 1.00109 0.80359 0.17387 0.0
C405 C 0.03328 0.8182 0.18905 0.0
C406 C 0.0793 0.74439 0.14724 0.0
C407 C 0.95106 0.81317 0.17275 0.0
C408 C 0.96672 0.78037 0.11447 0.0
C409 C 0.92172 0.72445 0.11271 0.0
C410 C 0.9966 0.79938 0.12998 0.0
C411 C 0.98119 0.76146 0.14401 0.0
C412 C 0.93546 0.70501 0.14228 0.0
C413 C 0.90625 0.68728 0.12668 0.0
C414 C 0.04528 0.85974 0.13127 0.0
C415 C 0.9181 0.66295 0.15682 0.0
H416 H 0.12961 0.77866 0.17787 0.0
H417 H 0.02191 0.83594 0.19977 0.0
H418 H 0.04402 0.70079 0.14452 0.0
H419 H 0.08748 0.76968 0.13538 0.0
H420 H 0.11787 0.74188 0.15034 0.0
H421 H 0.94626 0.83379 0.18442 0.0
H422 H 0.95596 0.84021 0.16153 0.0
H423 H 0.91142 0.7719 0.17085 0.0
H424 H 0.97856 0.80929 0.10373 0.0
H425 H 0.87134 0.64402 0.12539 0.0
H426 H 0.08553 0.85958 0.13347 0.0
H427 H 0.03881 0.88147 0.14235 0.0
H428 H 0.05006 0.88475 0.11953 0.0
H429 H 0.9532 0.65461 0.15979 0.0
H430 H 0.87949 0.62179 0.15378 0.0
H431 H 0.90982 0.68083 0.16853 0.0
C432 C 0.05789 0.81755 0.56237 0.0
C433 C 0.10533 0.81058 0.56421 0.0
C434 C 0.02845 0.80548 0.54676 0.0
C435 C 0.04666 0.78557 0.53268 0.0
C436 C 0.09496 0.779 0.53445 0.0
C437 C 0.12378 0.79175 0.55017 0.0
C438 C 0.9772 0.81306 0.54541 0.0
C439 C 0.11542 0.75723 0.51986 0.0
C440 C 0.93522 0.69328 0.5 0.0
C441 C 0.94674 0.73107 0.48639 0.0
C442 C 0.96759 0.71048 0.51501 0.0
C443 C 0.01256 0.76727 0.5166 0.0
C444 C 0.02449 0.80588 0.50289 0.0
C445 C 0.99135 0.78727 0.48789 0.0
C446 C 0.95366 0.66761 0.52914 0.0
C447 C 0.07234 0.86665 0.50404 0.0
H448 H 0.04374 0.83247 0.57316 0.0
H449 H 0.16058 0.78645 0.55151 0.0
H450 H 0.98202 0.8407 0.53436 0.0
H451 H 0.93859 0.77124 0.54313 0.0
H452 H 0.97052 0.8321 0.55716 0.0
H453 H 0.15544 0.75752 0.52298 0.0
H454 H 0.08243 0.71303 0.51663 0.0
H455 H 0.12257 0.78348 0.50827 0.0
H456 H 0.90054 0.64987 0.49894 0.0
H457 H 1.00058 0.81644 0.47734 0.0
H458 H 0.94271 0.68251 0.54101 0.0
H459 H 0.99129 0.66325 0.53199 0.0
H460 H 0.9176 0.62496 0.52581 0.0
H461 H 0.0655 0.88797 0.51517 0.0
H462 H 0.07612 0.89133 0.49231 0.0
H463 H 0.1132 0.86762 0.50612 0.0
C464 C 0.25131 0.98981 0.65704 0.0
C465 C 0.20742 0.93358 0.65483 0.0
C466 C 0.26338 0.01586 0.67318 0.0
C467 C 0.23194 0.98427 0.68762 0.0
C468 C 0.18733 0.92731 0.68542 0.0
C469 C 0.17497 0.90286 0.66896 0.0
C470 C 0.31031 0.07704 0.67476 0.0
C471 C 0.15414 0.89159 0.70054 0.0
C472 C 0.30946 0.04292 0.7298 0.0
C473 C 0.28252 0.07173 0.73616 0.0
C474 C 0.2914 0.0117 0.71446 0.0
C475 C 0.24668 0.01104 0.70496 0.0
C476 C 0.21896 0.03962 0.71148 0.0
C477 C 0.23661 0.06881 0.72715 0.0
C478 C 0.32111 0.98057 0.70823 0.0
C479 C 0.17256 0.04179 0.70152 0.0
H480 H 0.27653 0.01348 0.64607 0.0
H481 H 0.14174 0.859 0.66725 0.0
H482 H 0.29419 0.1025 0.68132 0.0
H483 H 0.34535 0.07956 0.68265 0.0
H484 H 0.32798 0.09669 0.66213 0.0
H485 H 0.12056 0.84825 0.69669 0.0
H486 H 0.18343 0.88768 0.70957 0.0
H487 H 0.13399 0.91251 0.70755 0.0
H488 H 0.3449 0.04506 0.73678 0.0
H489 H 0.21612 0.09159 0.73195 0.0
H490 H 0.34542 1.001 0.69643 0.0
H491 H 0.28945 0.93593 0.70495 0.0
H492 H 0.35095 0.98044 0.71788 0.0
H493 H 0.19005 0.06429 0.68924 0.0
H494 H 0.15388 0.06404 0.70864 0.0
H495 H 0.13817 0.99817 0.69839 0.0
C496 C 0.24458 0.2597 0.9017 0.0
C497 C 0.20436 0.27759 0.90109 0.0
C498 C 0.26155 0.24341 0.88668 0.0
C499 C 0.23637 0.24345 0.87082 0.0
C500 C 0.1941 0.25943 0.87034 0.0
C501 C 0.17929 0.27712 0.88542 0.0
C502 C 0.30788 0.22825 0.88768 0.0
C503 C 0.16516 0.25887 0.85382 0.0
C504 C 0.31368 0.26341 0.82862 0.0
C505 C 0.28895 0.20759 0.8224 0.0
C506 C 0.29874 0.27526 0.84466 0.0
C507 C 0.2564 0.23032 0.85454 0.0
C508 C 0.23121 0.17369 0.84833 0.0
C509 C 0.24838 0.1629 0.83241 0.0
C510 C 0.3277 0.33612 0.85087 0.0
C511 C 0.1849 0.12481 0.85826 0.0
H512 H 0.2642 0.26037 0.91381 0.0
H513 H 0.14783 0.29055 0.88495 0.0
H514 H 0.29324 0.18574 0.88196 0.0
H515 H 0.34528 0.25939 0.88018 0.0
H516 H 0.32155 0.22807 0.90104 0.0
H517 H 0.12971 0.26756 0.85587 0.0
H518 H 0.1964 0.29154 0.845 0.0
H519 H 0.14819 0.21699 0.8474 0.0
H520 H 0.34478 0.29812 0.82089 0.0
H521 H 0.22902 0.11971 0.8276 0.0
H522 H 0.34459 0.33905 0.86396 0.0
H523 H 0.29651 0.35112 0.85152 0.0
H524 H 0.36323 0.36526 0.84237 0.0
H525 H 0.19979 0.12351 0.87135 0.0
H526 H 0.17088 0.08314 0.85197 0.0
H527 H 0.14768 0.13104 0.85958 0.0
C528 C 0.98957 0.24481 0.06922 0.0
C529 C 0.93345 0.19978 0.06967 0.0
C530 C 0.02095 0.25946 0.05387 0.0
C531 C 0.99614 0.22675 0.03892 0.0
C532 C 0.94042 0.17931 0.03966 0.0
C533 C 0.90935 0.16719 0.05494 0.0
C534 C 0.07945 0.31146 0.05346 0.0
C535 C 0.91293 0.14225 0.0242 0.0
C536 C 0.04093 0.29368 0.99498 0.0
C537 C 0.07943 0.27644 0.98979 0.0
C538 C 0.01503 0.27924 0.01111 0.0
C539 C 0.02615 0.2447 0.02214 0.0
C540 C 0.06384 0.22571 0.0168 0.0
C541 C 0.0906 0.24239 1.00071 0.0
C542 C 0.97584 0.30118 0.01633 0.0
C543 C 0.07514 0.18715 0.02794 0.0
H544 H 1.00793 0.27012 0.08063 0.0
H545 H 0.86601 0.13196 0.05538 0.0
H546 H 0.11076 0.30061 0.04816 0.0
H547 H 0.07918 0.34392 0.04491 0.0
H548 H 0.09387 0.33054 0.06634 0.0
H549 H 0.87223 0.10334 0.02743 0.0
H550 H 0.90427 0.16654 0.01445 0.0
H551 H 0.94199 0.12935 0.01831 0.0
H552 H 0.03084 0.31855 0.98638 0.0
H553 H 0.11996 0.22854 0.99666 0.0
H554 H 0.93274 0.26514 0.01909 0.0
H555 H 0.97218 0.32805 0.00629 0.0
H556 H 0.99172 0.32664 0.02823 0.0
H557 H 0.09283 0.20797 0.04041 0.0
H558 H 0.10528 0.17588 0.0219 0.0
H559 H 0.03466 0.1474 0.03064 0.0
C560 C 0.77136 0.94622 0.23056 0.0
C561 C 0.7252 0.94255 0.23971 0.0
C562 C 0.78793 0.97449 0.21479 0.0
C563 C 0.75904 1.00173 0.20829 0.0
C564 C 0.71414 1.00063 0.21794 0.0
C565 C 0.69696 0.96994 0.23338 0.0
C566 C 0.8345 0.97265 0.2047 0.0
C567 C 0.68235 0.02955 0.21177 0.0
C568 C 0.8348 0.10676 0.17203 0.0
C569 C 0.80437 0.07489 0.1578 0.0
C570 C 0.81927 0.08425 0.18864 0.0
C571 C 0.77368 0.0279 0.19092 0.0
C572 C 0.74336 0.9955 0.17646 0.0
C573 C 0.75857 0.01975 0.16011 0.0
C574 C 0.8507 0.12108 0.20377 0.0
C575 C 0.69546 0.93489 0.17823 0.0
H576 H 0.79286 0.92444 0.2353 0.0
H577 H 0.66107 0.96692 0.2404 0.0
H578 H 0.81732 0.9508 0.19231 0.0
H579 H 0.86905 0.0164 0.20178 0.0
H580 H 0.853 0.95001 0.21162 0.0
H581 H 0.66495 0.0424 0.22267 0.0
H582 H 0.70964 0.06771 0.20392 0.0
H583 H 0.64595 0.99925 0.20383 0.0
H584 H 0.86941 0.14992 0.17022 0.0
H585 H 0.73487 0.99534 0.14904 0.0
H586 H 0.87212 0.10188 0.21092 0.0
H587 H 0.82008 0.12357 0.21266 0.0
H588 H 0.88311 0.16489 0.1999 0.0
H589 H 0.71208 0.90829 0.18364 0.0
H590 H 0.67468 0.91631 0.1658 0.0
H591 H 0.66288 0.93278 0.18722 0.0
C592 C 0.78708 0.66962 0.3841 0.0
C593 C 0.80417 0.70604 0.39829 0.0
C594 C 0.77457 0.68596 0.36842 0.0
C595 C 0.78025 0.74053 0.3668 0.0
C596 C 0.7979 0.77767 0.3811 0.0
C597 C 0.80919 0.75976 0.39674 0.0
C598 C 0.75432 0.6444 0.35368 0.0
C599 C 0.80457 0.8362 0.37988 0.0
C600 C 0.78552 0.79718 0.32169 0.0
C601 C 0.72916 0.78434 0.31959 0.0
C602 C 0.80322 0.78382 0.33708 0.0
C603 C 0.76347 0.75686 0.35055 0.0
C604 C 0.70669 0.74426 0.34842 0.0
C605 C 0.69057 0.75871 0.3331 0.0
C606 C 0.86421 0.79811 0.33892 0.0
C607 C 0.6626 0.71491 0.36226 0.0
H608 H 0.7831 0.62797 0.38528 0.0
H609 H 0.82293 0.78817 0.40767 0.0
H610 H 0.71052 0.63342 0.35007 0.0
H611 H 0.78179 0.66406 0.34233 0.0
H612 H 0.75427 0.60448 0.35683 0.0
H613 H 0.82161 0.86109 0.39185 0.0
H614 H 0.83354 0.86014 0.36917 0.0
H615 H 0.76284 0.83255 0.3771 0.0
H616 H 0.8155 0.81721 0.3113 0.0
H617 H 0.64733 0.75003 0.33176 0.0
H618 H 0.866 0.75861 0.341 0.0
H619 H 0.8835 0.82561 0.35029 0.0
H620 H 0.89015 0.82024 0.32748 0.0
H621 H 0.65832 0.67298 0.36523 0.0
H622 H 0.62019 0.70806 0.35854 0.0
H623 H 0.67614 0.74054 0.37417 0.0
C624 C 0.51476 0.81758 0.32909 0.0
C625 C 0.56466 0.84654 0.31939 0.0
C626 C 0.49207 0.84761 0.33755 0.0
C627 C 0.5207 0.90777 0.33648 0.0
C628 C 0.57229 0.9371 0.32729 0.0
C629 C 0.59344 0.90615 0.31882 0.0
C630 C 0.43662 0.815 0.34711 0.0
C631 C 0.60466 1.00128 0.32606 0.0
C632 C 0.448 0.9948 0.3429 0.0
C633 C 0.46566 0.01592 0.35944 0.0
C634 C 0.46324 0.9571 0.33553 0.0
C635 C 0.49746 0.94089 0.34491 0.0
C636 C 0.51448 0.96142 0.36174 0.0
C637 C 0.49818 0.99857 0.36882 0.0
C638 C 0.44357 0.93537 0.31763 0.0
C639 C 0.55158 0.94574 0.37205 0.0
H640 H 0.49219 0.77149 0.32945 0.0
H641 H 0.63247 0.9289 0.31152 0.0
H642 H 0.44131 0.83115 0.36039 0.0
H643 H 0.40372 0.82149 0.34084 0.0
H644 H 0.42135 0.76865 0.34753 0.0
H645 H 0.64516 0.01757 0.31887 0.0
H646 H 0.57816 0.01614 0.31958 0.0
H647 H 0.61441 0.02032 0.33904 0.0
H648 H 0.42267 0.0081 0.33568 0.0
H649 H 0.51162 0.0147 0.38167 0.0
H650 H 0.41833 0.88825 0.31776 0.0
H651 H 0.48071 0.94763 0.30914 0.0
H652 H 0.41708 0.95196 0.31209 0.0
H653 H 0.53268 0.89886 0.37245 0.0
H654 H 0.55774 0.96205 0.38536 0.0
H655 H 0.59387 0.96352 0.36585 0.0
C656 C 0.497 0.52306 0.51991 0.0
C657 C 0.44802 0.47034 0.51727 0.0
C658 C 0.54847 0.53634 0.51193 0.0
C659 C 0.55105 0.4956 0.50118 0.0
C660 C 0.50147 0.44234 0.49835 0.0
C661 C 0.45042 0.43038 0.50644 0.0
C662 C 0.60013 0.59397 0.51503 0.0
C663 C 0.50261 0.39775 0.48704 0.0
C664 C 0.67097 0.55588 0.46889 0.0
C665 C 0.71329 0.54979 0.47731 0.0
C666 C 0.61746 0.53669 0.47627 0.0
C667 C 0.60535 0.51005 0.49243 0.0
C668 C 0.64667 0.50111 0.50068 0.0
C669 C 0.70036 0.52131 0.49304 0.0
C670 C 0.57476 0.54719 0.46704 0.0
C671 C 0.63472 0.47176 0.5178 0.0
H672 H 0.49522 0.55381 0.52838 0.0
H673 H 0.41279 0.38911 0.50472 0.0
H674 H 0.63464 0.58882 0.52072 0.0
H675 H 0.61624 0.6167 0.50271 0.0
H676 H 0.59092 0.62086 0.5237 0.0
H677 H 0.46012 0.35901 0.48586 0.0
H678 H 0.51797 0.41519 0.47407 0.0
H679 H 0.53277 0.38539 0.49232 0.0
H680 H 0.67986 0.57694 0.45659 0.0
H681 H 0.73246 0.51585 0.49956 0.0
H682 H 0.5669 0.57736 0.47454 0.0
H683 H 0.53356 0.50706 0.46584 0.0
H684 H 0.58946 0.56516 0.45405 0.0
H685 H 0.63022 0.49863 0.52768 0.0
H686 H 0.6691 0.46338 0.52177 0.0
H687 H 0.59402 0.4308 0.51737 0.0
C688 C 0.09472 0.68335 0.64317 0.0
C689 C 0.15094 0.71943 0.64857 0.0
C690 C 0.0605 0.62986 0.6506 0.0
C691 C 0.08266 0.61141 0.66386 0.0
C692 C 0.13913 0.64768 0.66958 0.0
C693 C 0.17264 0.70146 0.6619 0.0
C694 C 1.00046 0.593 0.64418 0.0
C695 C 0.16422 0.62939 0.68371 0.0
C696 C 0.97274 0.49566 0.69262 0.0
C697 C 0.97001 0.44645 0.68585 0.0
C698 C 1.01012 0.54962 0.68583 0.0
C699 C 0.04569 0.55464 0.67189 0.0
C700 C 0.0429 0.50497 0.66494 0.0
C701 C 1.00506 0.45143 0.67202 0.0
C702 C 0.01137 0.60129 0.69356 0.0
C703 C 0.0798 0.50839 0.65 0.0
H704 H 0.07709 0.6968 0.633 0.0
H705 H 0.21601 0.72882 0.6661 0.0
H706 H 0.9946 0.55182 0.63947 0.0
H707 H 0.96981 0.58341 0.65479 0.0
H708 H 0.98976 0.6135 0.63368 0.0
H709 H 0.20866 0.66234 0.6867 0.0
H710 H 0.13813 0.62008 0.69547 0.0
H711 H 0.16357 0.5896 0.67998 0.0
H712 H 0.94607 0.49209 0.70342 0.0
H713 H 1.00354 0.41358 0.66693 0.0
H714 H 0.99869 0.62252 0.68383 0.0
H715 H 0.05516 0.63251 0.69767 0.0
H716 H 0.98248 0.59038 0.70474 0.0
H717 H 0.06932 0.52595 0.63869 0.0
H718 H 0.07431 0.46619 0.64655 0.0
H719 H 0.12519 0.53775 0.65305 0.0
C720 C 0.42196 0.131 0.83183 0.0
C721 C 0.44788 0.16055 0.81682 0.0
C722 C 0.43898 0.09485 0.83938 0.0
C723 C 0.48354 0.08927 0.83183 0.0
C724 C 0.51085 0.12065 0.81694 0.0
C725 C 0.49192 0.15507 0.80945 0.0
C726 C 0.40799 0.0611 0.85504 0.0
C727 C 0.55967 0.11744 0.8088 0.0
C728 C 0.55995 0.03579 0.86014 0.0
C729 C 0.53761 0.97956 0.85451 0.0
C730 C 0.54355 0.07216 0.85265 0.0
C731 C 0.50218 0.05117 0.83957 0.0
C732 C 0.4795 0.99427 0.83376 0.0
C733 C 0.49834 0.95927 0.84113 0.0
C734 C 0.57045 0.13301 0.85876 0.0
C735 C 0.43453 0.97011 0.82005 0.0
H736 H 0.38674 0.1341 0.83718 0.0
H737 H 0.51071 0.17675 0.79755 0.0
H738 H 0.38851 0.01494 0.85231 0.0
H739 H 0.43829 0.07104 0.86572 0.0
H740 H 0.37408 0.06995 0.85926 0.0
H741 H 0.57504 0.14316 0.79695 0.0
H742 H 0.59551 0.13295 0.81796 0.0
H743 H 0.54673 0.07274 0.80564 0.0
H744 H 0.59078 0.05154 0.87043 0.0
H745 H 0.48085 0.91561 0.83691 0.0
H746 H 0.53756 0.14104 0.86436 0.0
H747 H 0.58973 0.16255 0.84781 0.0
H748 H 0.60386 0.14329 0.86852 0.0
H749 H 0.39722 0.97366 0.82408 0.0
H750 H 0.42022 0.92476 0.81727 0.0
H751 H 0.4511 0.99491 0.80808 0.0
C752 C 0.31906 0.48088 0.99383 0.0
C753 C 0.30024 0.43931 0.98099 0.0
C754 C 0.37299 0.50155 1.0014 0.0
C755 C 0.40843 0.47979 0.99604 0.0
C756 C 0.38937 0.43777 0.98314 0.0
C757 C 0.33582 0.41816 0.97583 0.0
C758 C 0.39206 0.54653 0.01511 0.0
C759 C 0.42537 0.41294 0.97712 0.0
C760 C 0.56797 0.55701 1.00438 0.0
C761 C 0.57108 0.52683 0.01845 0.0
C762 C 0.51516 0.54337 0.99722 0.0
C763 C 0.46445 0.49844 1.00431 0.0
C764 C 0.46762 0.46783 0.01849 0.0
C765 C 0.52083 0.48238 0.02536 0.0
C766 C 0.5136 0.57689 0.98206 0.0
C767 C 0.41476 0.41932 0.02634 0.0
H768 H 0.29208 0.49768 0.99783 0.0
H769 H 0.3218 0.38567 0.96602 0.0
H770 H 0.39967 0.53011 0.0272 0.0
H771 H 0.4329 0.58431 0.01135 0.0
H772 H 0.3603 0.56013 0.01755 0.0
H773 H 0.40484 0.38146 0.96666 0.0
H774 H 0.46716 0.44731 0.9725 0.0
H775 H 0.43361 0.39165 0.98793 0.0
H776 H 0.60672 0.59183 0.99913 0.0
H777 H 0.52303 0.45928 0.03635 0.0
H778 H 0.48663 0.59586 0.98502 0.0
H779 H 0.49423 0.54818 0.97093 0.0
H780 H 0.55663 0.61149 0.97835 0.0
H781 H 0.38462 0.43386 0.03005 0.0
H782 H 0.42431 0.40153 0.03782 0.0
H783 H 0.39294 0.38472 0.01682 0.0
C784 C 0.01205 0.515 0.19787 0.0
C785 C 0.02995 0.56469 0.18828 0.0
C786 C 0.97588 0.46121 0.19089 0.0
C787 C 0.95667 0.45684 0.17388 0.0
C788 C 0.97348 0.50699 0.1642 0.0
C789 C 1.01029 0.56054 0.17151 0.0
C790 C 0.95948 0.40896 0.20161 0.0
C791 C 0.95327 0.50398 0.14608 0.0
C792 C 0.92187 0.32067 0.1506 0.0
C793 C 0.86242 0.28929 0.15166 0.0
C794 C 0.95273 0.37526 0.15764 0.0
C795 C 0.92346 0.39958 0.16586 0.0
C796 C 0.86333 0.36797 0.16713 0.0
C797 C 0.83341 0.31285 0.16009 0.0
C798 C 0.01678 0.40697 0.15623 0.0
C799 C 0.83069 0.39274 0.17569 0.0
H800 H 0.02689 0.51805 0.21089 0.0
H801 H 0.02347 0.599 0.16417 0.0
H802 H 0.91259 0.38154 0.20202 0.0
H803 H 0.9769 0.38358 0.19575 0.0
H804 H 0.97551 0.41979 0.21492 0.0
H805 H 0.96719 0.5468 0.14067 0.0
H806 H 0.96991 0.4822 0.13785 0.0
H807 H 0.90621 0.47851 0.14558 0.0
H808 H 0.94444 0.30254 0.14409 0.0
H809 H 0.78739 0.28911 0.16063 0.0
H810 H 0.03594 0.41716 0.16917 0.0
H811 H 0.03155 0.44788 0.14945 0.0
H812 H 0.03296 0.38218 0.14927 0.0
H813 H 0.84503 0.40436 0.1891 0.0
H814 H 0.78413 0.36271 0.17566 0.0
H815 H 0.83929 0.43234 0.16904 0.0
C816 C 0.97237 0.5011 0.50508 0.0
C817 C 0.99314 0.54212 0.49216 0.0
C818 C 1.00742 0.48234 0.51237 0.0
C819 C 0.06481 0.50675 0.50694 0.0
C820 C 0.08634 0.54997 0.49438 0.0
C821 C 0.04994 0.56642 0.48695 0.0
C822 C 0.98276 0.43549 0.52554 0.0
C823 C 0.14768 0.57855 0.4887 0.0
C824 C 0.16524 0.49174 0.53722 0.0
C825 C 0.17101 0.4485 0.52938 0.0
C826 C 0.13216 0.51229 0.52978 0.0
C827 C 0.10253 0.4874 0.51445 0.0
C828 C 0.10866 0.44383 0.5064 0.0
C829 C 0.14351 0.42525 0.51392 0.0
C830 C 0.12833 0.56007 0.53845 0.0
C831 C 0.07677 0.41543 0.49024 0.0
H832 H 0.92827 0.48212 0.50897 0.0
H833 H 0.06599 0.59856 0.477 0.0
H834 H 0.98701 0.39895 0.52106 0.0
H835 H 1.00668 0.45061 0.53769 0.0
H836 H 0.93718 0.42035 0.52816 0.0
H837 H 0.15839 0.61358 0.47948 0.0
H838 H 0.17618 0.59613 0.49993 0.0
H839 H 0.15665 0.54694 0.48259 0.0
H840 H 0.1858 0.50875 0.54938 0.0
H841 H 0.1472 0.39086 0.50814 0.0
H842 H 0.08345 0.54655 0.5415 0.0
H843 H 0.14418 0.59703 0.52968 0.0
H844 H 0.15336 0.57409 0.55044 0.0
H845 H 0.03036 0.39529 0.49258 0.0
H846 H 0.08629 0.38236 0.48559 0.0
H847 H 0.08769 0.44751 0.48002 0.0
C848 C 0.48182 0.96343 0.6654 0.0
C849 C 0.43727 0.9753 0.66509 0.0
C850 C 0.53507 1.00271 0.67219 0.0
C851 C 0.54426 0.05558 0.67857 0.0
C852 C 0.49912 0.06756 0.67842 0.0
C853 C 0.44602 0.02708 0.67176 0.0
C854 C 0.58158 0.98763 0.6725 0.0
C855 C 0.50725 0.12355 0.68495 0.0
C856 C 0.66393 0.12634 0.71059 0.0
C857 C 0.71014 0.16343 0.70026 0.0
C858 C 0.60944 0.09286 0.70382 0.0
C859 C 0.60031 0.09666 0.68622 0.0
C860 C 0.64586 0.1365 0.67587 0.0
C861 C 0.70048 0.16949 0.68302 0.0
C862 C 0.56231 0.05125 0.71538 0.0
C863 C 0.63738 0.1426 0.65711 0.0
H864 H 0.47523 0.92361 0.66011 0.0
H865 H 0.41197 0.0369 0.67118 0.0
H866 H 0.61882 0.01939 0.66508 0.0
H867 H 0.59594 0.98881 0.68584 0.0
H868 H 0.56752 0.94473 0.6671 0.0
H869 H 0.46761 0.12586 0.68419 0.0
H870 H 0.52178 0.13028 0.69842 0.0
H871 H 0.5408 0.15898 0.67736 0.0
H872 H 0.67051 0.1222 0.72405 0.0
H873 H 0.73583 0.19827 0.675 0.0
H874 H 0.54899 1.00712 0.71133 0.0
H875 H 0.5246 0.0567 0.71437 0.0
H876 H 0.57551 0.05631 0.72899 0.0
H877 H 0.62918 0.10345 0.65022 0.0
H878 H 0.67506 0.17949 0.65126 0.0
H879 H 0.59972 0.14775 0.65523 0.0
C880 C 0.53349 0.66947 0.87021 0.0
C881 C 0.56807 0.71999 0.86128 0.0
C882 C 0.51394 0.61626 0.86252 0.0
C883 C 0.53141 0.6134 0.84568 0.0
C884 C 0.5662 0.66445 0.83652 0.0
C885 C 0.58348 0.71739 0.84438 0.0
C886 C 0.47498 0.56314 0.87249 0.0
C887 C 0.58683 0.66311 0.81869 0.0
C888 C 0.52529 0.47434 0.8333 0.0
C889 C 0.47732 0.44949 0.82279 0.0
C890 C 0.54419 0.52839 0.84058 0.0
C891 C 0.51302 0.55685 0.83773 0.0
C892 C 0.46326 0.53053 0.82763 0.0
C893 C 0.4467 0.47771 0.82003 0.0
C894 C 0.59807 0.5556 0.851 0.0
C895 C 0.42746 0.5581 0.82485 0.0
H896 H 0.5222 0.6716 0.88338 0.0
H897 H 0.61125 0.75657 0.83765 0.0
H898 H 0.4342 0.53828 0.86556 0.0
H899 H 0.49422 0.53564 0.8737 0.0
H900 H 0.46577 0.57289 0.88551 0.0
H901 H 0.6138 0.70644 0.81334 0.0
H902 H 0.6118 0.6409 0.81883 0.0
H903 H 0.55018 0.63882 0.81004 0.0
H904 H 0.54922 0.45264 0.83523 0.0
H905 H 0.40934 0.45814 0.81194 0.0
H906 H 0.58877 0.56313 0.86426 0.0
H907 H 0.62874 0.59764 0.8455 0.0
H908 H 0.61848 0.52892 0.85149 0.0
H909 H 0.41447 0.5675 0.83735 0.0
H910 H 0.38864 0.53079 0.81727 0.0
H911 H 0.45264 0.59917 0.81808 0.0
C912 C 0.92804 0.60564 0.03268 0.0
C913 C 0.86931 0.57816 0.02952 0.0
C914 C 0.96232 0.58576 0.02563 0.0
C915 C 0.93763 0.53709 0.01501 0.0
C916 C 0.87848 0.50935 0.01154 0.0
C917 C 0.84493 0.53031 0.01881 0.0
C918 C 0.02517 0.617 0.02958 0.0
C919 C 0.85067 0.45734 1.00025 0.0
C920 C 0.03957 0.52487 0.98431 0.0
C921 C 0.05108 0.48615 0.99272 0.0
C922 C 1.00176 0.54065 0.99124 0.0
C923 C 0.97473 0.51729 0.00705 0.0
C924 C 0.98642 0.47835 0.01569 0.0
C925 C 0.02464 0.46331 0.00842 0.0
C926 C 0.99087 0.58251 0.98164 0.0
C927 C 0.95864 0.45272 0.03261 0.0
H928 H 0.94753 0.64291 0.04084 0.0
H929 H 0.79958 0.50851 0.01645 0.0
H930 H 0.03732 0.58753 0.03551 0.0
H931 H 0.05 0.63306 0.01758 0.0
H932 H 0.03755 0.65358 0.03835 0.0
H933 H 0.80427 0.44047 0.99885 0.0
H934 H 0.87052 0.46769 0.98737 0.0
H935 H 0.85744 0.42341 1.00564 0.0
H936 H 0.0596 0.54239 0.9721 0.0
H937 H 0.03323 0.43316 0.01491 0.0
H938 H 1.00466 0.62136 0.98947 0.0
H939 H 0.94471 0.56381 0.97924 0.0
H940 H 0.01365 0.59512 0.9692 0.0
H941 H 0.97177 0.48679 0.04234 0.0
H942 H 0.96998 0.42103 0.03727 0.0
H943 H 0.91174 0.43169 0.03143 0.0
C944 C 0.57439 0.99015 0.17261 0.0
C945 C 0.57961 0.03654 0.16326 0.0
C946 C 0.52217 0.95036 0.17993 0.0
C947 C 0.47445 0.95777 0.17802 0.0
C948 C 0.47995 1.00524 0.16884 0.0
C949 C 0.5324 0.04381 0.16145 0.0
C950 C 0.51792 0.90019 0.18956 0.0
C951 C 0.4304 0.01535 0.16684 0.0
C952 C 0.32185 0.8384 0.18452 0.0
C953 C 0.31035 0.85107 0.20091 0.0
C954 C 0.37608 0.87123 0.17712 0.0
C955 C 0.41934 0.91782 0.18632 0.0
C956 C 0.40859 0.929 0.20314 0.0
C957 C 0.35456 0.89538 0.21024 0.0
C958 C 0.38656 0.85735 0.15927 0.0
C959 C 0.45335 0.97824 0.2134 0.0
H960 H 0.61069 0.98395 0.17372 0.0
H961 H 0.53638 0.07948 0.15412 0.0
H962 H 0.50911 0.90318 0.20326 0.0
H963 H 0.48206 0.85993 0.18458 0.0
H964 H 0.55752 0.89789 0.18862 0.0
H965 H 0.44175 0.05431 0.15933 0.0
H966 H 0.39467 0.97844 0.16038 0.0
H967 H 0.41496 0.01953 0.17961 0.0
H968 H 0.2882 0.80404 0.17728 0.0
H969 H 0.34671 0.90517 0.22304 0.0
H970 H 0.42602 0.85472 0.1589 0.0
H971 H 0.39267 0.89185 0.15042 0.0
H972 H 0.3507 0.81659 0.15452 0.0
H973 H 0.49212 0.97466 0.21452 0.0
H974 H 0.43844 0.98043 0.22647 0.0
H975 H 0.46566 0.01886 0.20674 0.0
C976 C 0.54882 0.54231 0.33474 0.0
C977 C 0.53168 0.54725 0.31829 0.0
C978 C 0.53299 0.48862 0.34163 0.0
C979 C 0.49898 0.439 0.33182 0.0
C980 C 0.48278 0.44407 0.31504 0.0
C981 C 0.49946 0.49819 0.30847 0.0
C982 C 0.55154 0.48491 0.35953 0.0
C983 C 0.44625 0.39225 0.30424 0.0
C984 C 0.48194 0.29808 0.34718 0.0
C985 C 0.43218 0.27717 0.35691 0.0
C986 C 0.50417 0.35062 0.33866 0.0
C987 C 0.47517 0.38185 0.33976 0.0
C988 C 0.42323 0.35901 0.34881 0.0
C989 C 0.40259 0.30715 0.35733 0.0
C990 C 0.55985 0.37389 0.3292 0.0
C991 C 0.39046 0.3904 0.35008 0.0
H992 H 0.57445 0.58035 0.34224 0.0
H993 H 0.48657 0.50202 0.29566 0.0
H994 H 0.51379 0.46293 0.36798 0.0
H995 H 0.5731 0.45938 0.35952 0.0
H996 H 0.58088 0.52749 0.36502 0.0
H997 H 0.44101 0.40361 0.291 0.0
H998 H 0.46505 0.3642 0.30365 0.0
H999 H 0.40356 0.36732 0.31016 0.0
H1000 H 0.50513 0.27516 0.34706 0.0
H1001 H 0.36386 0.29071 0.36481 0.0
H1002 H 0.5928 0.41246 0.33585 0.0
H1003 H 0.55581 0.3868 0.31607 0.0
H1004 H 0.57467 0.3425 0.3284 0.0
H1005 H 0.41621 0.43118 0.35698 0.0
H1006 H 0.34937 0.36537 0.35693 0.0
H1007 H 0.38177 0.40079 0.33714 0.0
C1008 C 0.05742 0.77287 0.42459 0.0
C1009 C 0.04518 0.73791 0.43899 0.0
C1010 C 0.11126 0.82091 0.42225 0.0
C1011 C 0.15441 0.83431 0.43452 0.0
C1012 C 0.14342 0.79751 0.44861 0.0
C1013 C 0.08885 0.74987 0.45072 0.0
C1014 C 0.12103 0.85889 0.40701 0.0
C1015 C 0.18828 0.80975 0.4619 0.0
C1016 C 0.29809 0.94649 0.41761 0.0
C1017 C 0.29982 0.99663 0.42314 0.0
C1018 C 0.25335 0.89274 0.42247 0.0
C1019 C 0.20915 0.88907 0.433 0.0
C1020 C 0.21366 0.93938 0.43996 0.0
C1021 C 0.25907 0.9925 0.43503 0.0
C1022 C 0.25103 0.84009 0.41519 0.0
C1023 C 0.16777 0.93746 0.45137 0.0
H1024 H 0.02424 0.76401 0.41539 0.0
H1025 H 0.07997 0.72326 0.46193 0.0
H1026 H 0.12988 0.90142 0.41145 0.0
H1027 H 0.15865 0.86506 0.39965 0.0
H1028 H 0.08386 0.8413 0.39828 0.0
H1029 H 0.17705 0.77196 0.46999 0.0
H1030 H 0.23015 0.82382 0.45579 0.0
H1031 H 0.19286 0.84469 0.47034 0.0
H1032 H 0.32964 0.94895 0.40861 0.0
H1033 H 0.26015 0.03079 0.43958 0.0
H1034 H 0.2192 0.82281 0.40476 0.0
H1035 H 0.23758 0.80659 0.42511 0.0
H1036 H 0.29275 0.84921 0.4099 0.0
H1037 H 0.12885 0.92453 0.44371 0.0
H1038 H 0.18077 0.97938 0.45734 0.0
H1039 H 0.15656 0.90545 0.46163 0.0
C1040 C 0.28756 0.25374 0.59741 0.0
C1041 C 0.32294 0.29546 0.58561 0.0
C1042 C 0.29462 0.2069 0.601 0.0
C1043 C 0.33828 0.20177 0.59268 0.0
C1044 C 0.37707 0.24615 0.58192 0.0
C1045 C 0.36896 0.29243 0.57851 0.0
C1046 C 0.25269 0.16084 0.61274 0.0
C1047 C 0.42475 0.2429 0.57302 0.0
C1048 C 0.36238 0.08406 0.60954 0.0
C1049 C 0.32631 0.03823 0.59894 0.0
C1050 C 0.36909 0.13844 0.60719 0.0
C1051 C 0.33927 0.14736 0.59387 0.0
C1052 C 0.3064 0.10247 0.58233 0.0
C1053 C 0.30037 0.04854 0.58499 0.0
C1054 C 0.40497 0.18516 0.61968 0.0
C1055 C 0.27446 0.11031 0.5678 0.0
H1056 H 0.25198 0.25557 0.60302 0.0
H1057 H 0.39694 0.3246 0.56949 0.0
H1058 H 0.22549 0.12188 0.60519 0.0
H1059 H 0.27533 0.14968 0.6224 0.0
H1060 H 0.22482 0.1737 0.61949 0.0
H1061 H 0.456 0.2842 0.56719 0.0
H1062 H 0.4473 0.22968 0.58209 0.0
H1063 H 0.40692 0.21038 0.56275 0.0
H1064 H 0.38265 0.07682 0.6204 0.0
H1065 H 0.27268 0.01367 0.57666 0.0
H1066 H 0.37683 0.19211 0.62845 0.0
H1067 H 0.43223 0.2258 0.6129 0.0
H1068 H 0.43243 0.17444 0.62749 0.0
H1069 H 0.2406 0.11758 0.57303 0.0
H1070 H 0.25449 0.07272 0.55919 0.0
H1071 H 0.30343 0.14827 0.56013 0.0
C1072 C 0.25561 0.27295 0.74737 0.0
C1073 C 0.29488 0.30752 0.7598 0.0
C1074 C 0.20893 0.27948 0.74321 0.0
C1075 C 0.20169 0.32179 0.7516 0.0
C1076 C 0.24386 0.35995 0.76302 0.0
C1077 C 0.28994 0.35232 0.767 0.0
C1078 C 0.16513 0.23824 0.73081 0.0
C1079 C 0.23824 0.40619 0.77201 0.0
C1080 C 0.08451 0.34528 0.73421 0.0
C1081 C 0.03823 0.30808 0.74447 0.0
C1082 C 0.13878 0.35223 0.73679 0.0
C1083 C 0.14692 0.3214 0.74997 0.0
C1084 C 0.10127 0.28677 0.76106 0.0
C1085 C 0.04754 0.28057 0.75819 0.0
C1086 C 0.18643 0.38989 0.72478 0.0
C1087 C 0.10833 0.25365 0.77541 0.0
H1088 H 0.25911 0.23834 0.74171 0.0
H1089 H 0.32049 0.3797 0.77648 0.0
H1090 H 0.12548 0.20939 0.73785 0.0
H1091 H 0.15443 0.26137 0.7212 0.0
H1092 H 0.1799 0.21194 0.72404 0.0
H1093 H 0.27833 0.43733 0.77844 0.0
H1094 H 0.22589 0.42925 0.76285 0.0
H1095 H 0.20423 0.38681 0.78182 0.0
H1096 H 0.07784 0.36663 0.72353 0.0
H1097 H 0.01218 0.25207 0.76625 0.0
H1098 H 0.1953 0.36303 0.71602 0.0
H1099 H 0.22602 0.41738 0.73198 0.0
H1100 H 0.1757 0.4173 0.71694 0.0
H1101 H 0.11773 0.22138 0.77002 0.0
H1102 H 0.06969 0.23153 0.78354 0.0
H1103 H 0.14475 0.28243 0.78362 0.0
C1104 C 0.72931 0.07724 0.90811 0.0
C1105 C 0.72573 0.02884 0.91583 0.0
C1106 C 0.77422 0.13197 0.91191 0.0
C1107 C 0.81659 0.13831 0.92361 0.0
C1108 C 0.81061 0.09011 0.93246 0.0
C1109 C 0.76508 0.03598 0.92852 0.0
C1110 C 0.77837 0.18238 0.90249 0.0
C1111 C 0.85467 0.09508 0.94516 0.0
C1112 C 0.97098 0.25038 0.91785 0.0
C1113 C 0.97993 0.28604 0.93191 0.0
C1114 C 0.91698 0.20408 0.91437 0.0
C1115 C 0.87064 0.19344 0.92511 0.0
C1116 C 0.87828 0.23225 0.93834 0.0
C1117 C 0.93294 0.27814 0.94162 0.0
C1118 C 0.91058 0.16405 0.89998 0.0
C1119 C 0.82972 0.22307 0.94984 0.0
H1120 H 0.69871 0.07231 0.89843 0.0
H1121 H 0.76248 0.99901 0.93468 0.0
H1122 H 0.79123 0.21896 0.91127 0.0
H1123 H 0.81138 0.19597 0.89239 0.0
H1124 H 0.73751 0.17207 0.89633 0.0
H1125 H 0.84114 0.05458 0.95209 0.0
H1126 H 0.89505 0.10721 0.93835 0.0
H1127 H 0.86354 0.12891 0.95466 0.0
H1128 H 1.00681 0.25652 0.91013 0.0
H1129 H 0.93922 0.30564 0.95245 0.0
H1130 H 0.8741 0.1558 0.89173 0.0
H1131 H 0.90178 0.12263 0.90538 0.0
H1132 H 0.94936 0.18103 0.8919 0.0
H1133 H 0.79053 0.20997 0.94232 0.0
H1134 H 0.83981 0.26197 0.95725 0.0
H1135 H 0.8206 0.18839 0.95901 0.0
C1136 C 0.65469 0.93024 0.1046 0.0
C1137 C 0.7001 0.97783 0.09673 0.0
C1138 C 0.64358 0.87484 0.10094 0.0
C1139 C 0.67884 0.86691 0.08922 0.0
C1140 C 0.72145 0.91432 0.08017 0.0
C1141 C 0.73137 0.96909 0.08398 0.0
C1142 C 0.59689 0.82538 0.11058 0.0
C1143 C 0.75974 0.90784 0.06742 0.0
C1144 C 0.71947 0.75345 0.09528 0.0
C1145 C 0.6928 0.71756 0.08128 0.0
C1146 C 0.71215 0.80017 0.09869 0.0
C1147 C 0.67678 0.81107 0.08794 0.0
C1148 C 0.64544 0.77193 0.07482 0.0
C1149 C 0.6539 0.72565 0.0716 0.0
C1150 C 0.74601 0.84046 0.11296 0.0
C1151 C 0.60627 0.78119 0.06333 0.0
H1152 H 0.62991 0.93628 0.1144 0.0
H1153 H 0.76608 1.00538 0.07766 0.0
H1154 H 0.57311 0.78821 0.10203 0.0
H1155 H 0.61586 0.8123 0.12091 0.0
H1156 H 0.56656 0.83664 0.11649 0.0
H1157 H 0.78712 0.94788 0.06033 0.0
H1158 H 0.78753 0.89522 0.07422 0.0
H1159 H 0.73419 0.87381 0.05807 0.0
H1160 H 0.74906 0.74729 0.10299 0.0
H1161 H 0.63268 0.69805 0.06081 0.0
H1162 H 0.71813 0.84956 0.12116 0.0
H1163 H 0.77901 0.88148 0.10744 0.0
H1164 H 0.76736 0.82326 0.12111 0.0
H1165 H 0.58082 0.79535 0.07082 0.0
H1166 H 0.57693 0.742 0.05615 0.0
H1167 H 0.63192 0.81513 0.05395 0.0
C1168 C 0.75278 0.73651 0.2468 0.0
C1169 C 0.71689 0.70281 0.26007 0.0
C1170 C 0.80062 0.73278 0.24196 0.0
C1171 C 0.81264 0.69393 0.25043 0.0
C1172 C 0.77402 0.65647 0.26282 0.0
C1173 C 0.72675 0.66153 0.26755 0.0
C1174 C 0.84066 0.7736 0.22869 0.0
C1175 C 0.78462 0.61368 0.27192 0.0
C1176 C 0.9331 0.67752 0.23143 0.0
C1177 C 0.97957 0.7167 0.24123 0.0
C1178 C 0.87789 0.66766 0.23468 0.0
C1179 C 0.86906 0.69807 0.24794 0.0
C1180 C 0.91539 0.73587 0.2583 0.0
C1181 C 0.96984 0.74448 0.25488 0.0
C1182 C 0.82948 0.62637 0.22352 0.0
C1183 C 0.908 0.76927 0.27257 0.0
H1184 H 0.74559 0.7684 0.24086 0.0
H1185 H 0.69913 0.63492 0.27772 0.0
H1186 H 0.88089 0.80508 0.23494 0.0
H1187 H 0.85145 0.75061 0.21899 0.0
H1188 H 0.82243 0.79701 0.22206 0.0
H1189 H 0.74643 0.5817 0.27898 0.0
H1190 H 0.79775 0.59122 0.26271 0.0
H1191 H 0.81978 0.63607 0.2812 0.0
H1192 H 0.93998 0.65573 0.22086 0.0
H1193 H 1.00519 0.77464 0.26262 0.0
H1194 H 0.81562 0.65012 0.21517 0.0
H1195 H 0.79244 0.59706 0.23148 0.0
H1196 H 0.84175 0.60081 0.21529 0.0
H1197 H 0.89406 0.79813 0.26721 0.0
H1198 H 0.94784 0.79523 0.27988 0.0
H1199 H 0.8745 0.74007 0.28158 0.0
C1200 C 0.74017 0.519 0.42595 0.0
C1201 C 0.78067 0.50182 0.42804 0.0
C1202 C 0.68345 0.47938 0.42161 0.0
C1203 C 0.66765 0.42178 0.41867 0.0
C1204 C 0.70985 0.40567 0.41922 0.0
C1205 C 0.76535 0.44561 0.42409 0.0
C1206 C 0.64 0.49854 0.42143 0.0
C1207 C 0.69593 0.34541 0.41544 0.0
C1208 C 0.52508 0.28666 0.42298 0.0
C1209 C 0.51314 0.27182 0.40574 0.0
C1210 C 0.57216 0.33965 0.42761 0.0
C1211 C 0.60784 0.37748 0.41467 0.0
C1212 C 0.59124 0.36521 0.39738 0.0
C1213 C 0.54419 0.31263 0.39318 0.0
C1214 C 0.58699 0.35266 0.44625 0.0
C1215 C 0.62706 0.40428 0.38313 0.0
H1216 H 0.75122 0.56213 0.42874 0.0
H1217 H 0.79642 0.43199 0.42571 0.0
H1218 H 0.60912 0.47825 0.41087 0.0
H1219 H 0.61574 0.48567 0.43361 0.0
H1220 H 0.66033 0.54549 0.42022 0.0
H1221 H 0.73429 0.34074 0.41549 0.0
H1222 H 0.66565 0.31612 0.42515 0.0
H1223 H 0.67519 0.33177 0.40276 0.0
H1224 H 0.50116 0.25531 0.43272 0.0
H1225 H 0.53484 0.3014 0.37981 0.0
H1226 H 0.60153 0.39804 0.44901 0.0
H1227 H 0.62235 0.34494 0.44944 0.0
H1228 H 0.55026 0.32553 0.45466 0.0
H1229 H 0.63861 0.44885 0.38594 0.0
H1230 H 0.60489 0.39175 0.37062 0.0
H1231 H 0.66716 0.40302 0.38202 0.0
C1232 C 0.34832 0.78243 0.59393 0.0
C1233 C 0.29733 0.78202 0.59724 0.0
C1234 C 0.34864 0.73174 0.59036 0.0
C1235 C 0.29672 0.67932 0.59001 0.0
C1236 C 0.24491 0.67905 0.59253 0.0
C1237 C 0.24584 0.73034 0.59607 0.0
C1238 C 0.40476 0.73403 0.58756 0.0
C1239 C 0.18853 0.62433 0.59215 0.0
C1240 C 0.29438 0.55487 0.56688 0.0
C1241 C 0.29753 0.52274 0.58041 0.0
C1242 C 0.29346 0.60537 0.56984 0.0
C1243 C 0.2966 0.62493 0.5868 0.0
C1244 C 0.30002 0.59269 0.60057 0.0
C1245 C 0.30053 0.54181 0.5972 0.0
C1246 C 0.28964 0.638 0.55477 0.0
C1247 C 0.30319 0.61203 0.61883 0.0
H1248 H 0.38829 0.82209 0.59485 0.0
H1249 H 0.20623 0.72956 0.59864 0.0
H1250 H 0.41116 0.70904 0.59762 0.0
H1251 H 0.40465 0.7145 0.57508 0.0
H1252 H 0.44125 0.77824 0.58782 0.0
H1253 H 0.15201 0.63203 0.59222 0.0
H1254 H 0.18546 0.5989 0.58067 0.0
H1255 H 0.18499 0.59836 0.60352 0.0
H1256 H 0.29275 0.54035 0.55386 0.0
H1257 H 0.30311 0.51698 0.60763 0.0
H1258 H 0.33007 0.6789 0.55346 0.0
H1259 H 0.25535 0.6483 0.5568 0.0
H1260 H 0.28139 0.61399 0.54259 0.0
H1261 H 0.34091 0.65495 0.62051 0.0
H1262 H 0.30589 0.58245 0.62807 0.0
H1263 H 0.26513 0.61546 0.62193 0.0
C1264 C 0.55566 0.28115 0.77907 0.0
C1265 C 0.5244 0.28243 0.76501 0.0
C1266 C 0.60616 0.27988 0.77689 0.0
C1267 C 0.62666 0.28096 0.7602 0.0
C1268 C 0.59506 0.2819 0.74588 0.0
C1269 C 0.54406 0.28272 0.74847 0.0
C1270 C 0.63797 0.2783 0.7925 0.0
C1271 C 0.6155 0.28266 0.72787 0.0
C1272 C 0.78499 0.33661 0.75453 0.0
C1273 C 0.78635 0.28619 0.75185 0.0
C1274 C 0.73334 0.33542 0.75746 0.0
C1275 C 0.68191 0.28254 0.75785 0.0
C1276 C 0.6835 0.23138 0.75623 0.0
C1277 C 0.73572 0.23385 0.75333 0.0
C1278 C 0.73351 0.3909 0.7593 0.0
C1279 C 0.62989 0.174 0.7566 0.0
H1280 H 0.54064 0.28167 0.7919 0.0
H1281 H 0.51991 0.28399 0.73764 0.0
H1282 H 0.64929 0.24445 0.7912 0.0
H1283 H 0.67823 0.31937 0.79376 0.0
H1284 H 0.61292 0.27074 0.80444 0.0
H1285 H 0.58611 0.28325 0.71814 0.0
H1286 H 0.65813 0.32065 0.72603 0.0
H1287 H 0.61991 0.24464 0.72566 0.0
H1288 H 0.82384 0.37724 0.75334 0.0
H1289 H 0.73645 0.19469 0.7513 0.0
H1290 H 0.71239 0.39131 0.77141 0.0
H1291 H 0.70899 0.39536 0.74868 0.0
H1292 H 0.77717 0.4283 0.75916 0.0
H1293 H 0.60068 0.17214 0.76684 0.0
H1294 H 0.6391 0.13886 0.75857 0.0
H1295 H 0.60737 0.16674 0.74424 0.0
C1296 C 0.47257 0.75105 0.9287 0.0
C1297 C 0.49432 0.76606 0.91214 0.0
C1298 C 0.42277 0.69871 0.93177 0.0
C1299 C 0.39446 0.66124 0.91792 0.0
C1300 C 0.41699 0.67634 0.90122 0.0
C1301 C 0.46628 0.72873 0.89854 0.0
C1302 C 0.3999 0.68382 0.94976 0.0
C1303 C 0.38843 0.63774 0.88611 0.0
C1304 C 0.28851 0.50656 0.9279 0.0
C1305 C 0.23691 0.50667 0.92779 0.0
C1306 C 0.34014 0.55635 0.92446 0.0
C1307 C 0.34003 0.60728 0.92069 0.0
C1308 C 0.28773 0.60672 0.91948 0.0
C1309 C 0.23676 0.55635 0.923 0.0
C1310 C 0.39493 0.55501 0.9257 0.0
C1311 C 0.28579 0.65998 0.91523 0.0
H1312 H 0.49414 0.78028 0.93914 0.0
H1313 H 0.4825 0.74111 0.88565 0.0
H1314 H 0.3569 0.67902 0.95038 0.0
H1315 H 0.39556 0.64244 0.95354 0.0
H1316 H 0.42768 0.71669 0.95917 0.0
H1317 H 0.41334 0.65435 0.87412 0.0
H1318 H 0.38217 0.59475 0.88861 0.0
H1319 H 0.34578 0.63282 0.88414 0.0
H1320 H 0.28892 0.46824 0.93152 0.0
H1321 H 0.19703 0.55669 0.92287 0.0
H1322 H 0.41929 0.57999 0.937 0.0
H1323 H 0.4218 0.57497 0.91426 0.0
H1324 H 0.3874 0.51101 0.92698 0.0
H1325 H 0.3081 0.69248 0.9253 0.0
H1326 H 0.2416 0.65193 0.91417 0.0
H1327 H 0.30821 0.67824 0.90299 0.0
C1328 C 0.70481 0.24142 0.08646 0.0
C1329 C 0.74118 0.24047 0.09893 0.0
C1330 C 0.70519 0.2923 0.08254 0.0
C1331 C 0.74107 0.34269 0.09184 0.0
C1332 C 0.77796 0.34183 0.10439 0.0
C1333 C 0.77835 0.29121 0.1075 0.0
C1334 C 0.66683 0.29206 0.06859 0.0
C1335 C 0.81565 0.39384 0.11502 0.0
C1336 C 0.7801 0.4877 0.0739 0.0
C1337 C 0.73905 0.49803 0.08141 0.0
C1338 C 0.78058 0.43706 0.07694 0.0
C1339 C 0.74059 0.39653 0.08842 0.0
C1340 C 0.70087 0.40795 0.09676 0.0
C1341 C 0.69982 0.45809 0.09288 0.0
C1342 C 0.82266 0.42615 0.06738 0.0
C1343 C 0.65906 0.36687 0.10961 0.0
H1344 H 0.6758 0.20232 0.07989 0.0
H1345 H 0.80613 0.29106 0.11732 0.0
H1346 H 0.63461 0.30123 0.07411 0.0
H1347 H 0.69195 0.32604 0.05916 0.0
H1348 H 0.64448 0.25059 0.06179 0.0
H1349 H 0.84086 0.38562 0.12459 0.0
H1350 H 0.84542 0.42927 0.10666 0.0
H1351 H 0.7893 0.40831 0.12188 0.0
H1352 H 0.81035 0.51792 0.0649 0.0
H1353 H 0.66789 0.46576 0.09863 0.0
H1354 H 0.79972 0.38582 0.06006 0.0
H1355 H 0.85102 0.42122 0.07652 0.0
H1356 H 0.84936 0.46102 0.05834 0.0
H1357 H 0.62957 0.3261 0.10323 0.0
H1358 H 0.63365 0.38373 0.11582 0.0
H1359 H 0.68191 0.3574 0.11966 0.0
C1360 C 0.47435 0.77425 0.28232 0.0
C1361 C 0.50437 0.76428 0.26938 0.0
C1362 C 0.43112 0.78621 0.27862 0.0
C1363 C 0.41605 0.78693 0.26143 0.0
C1364 C 0.45088 0.7844 0.24822 0.0
C1365 C 0.49474 0.7727 0.25235 0.0
C1366 C 0.3959 0.78864 0.29324 0.0
C1367 C 0.43765 0.7875 0.22969 0.0
C1368 C 0.25811 0.70231 0.25236 0.0
C1369 C 0.2439 0.74456 0.24947 0.0
C1370 C 0.31349 0.71591 0.25657 0.0
C1371 C 0.35672 0.77371 0.25767 0.0
C1372 C 0.34199 0.81684 0.25602 0.0
C1373 C 0.28518 0.80162 0.25231 0.0
C1374 C 0.32602 0.66799 0.25904 0.0
C1375 C 0.38666 0.87891 0.25713 0.0
H1376 H 0.47992 0.76618 0.29549 0.0
H1377 H 0.51727 0.76468 0.24226 0.0
H1378 H 0.38135 0.81945 0.29067 0.0
H1379 H 0.35764 0.74608 0.29492 0.0
H1380 H 0.41999 0.80049 0.30542 0.0
H1381 H 0.47468 0.79777 0.22132 0.0
H1382 H 0.40166 0.74577 0.22565 0.0
H1383 H 0.42473 0.81999 0.22779 0.0
H1384 H 0.22625 0.65811 0.25025 0.0
H1385 H 0.27434 0.83453 0.25059 0.0
H1386 H 0.34647 0.67212 0.27163 0.0
H1387 H 0.356 0.67007 0.24903 0.0
H1388 H 0.28708 0.62544 0.2584 0.0
H1389 H 0.41312 0.88743 0.26873 0.0
H1390 H 0.36774 0.90696 0.25728 0.0
H1391 H 0.41548 0.89031 0.24593 0.0
loop_
_geom_bond_atom_site_label_1
_geom_bond_atom_site_label_2
_geom_bond_distance
_geom_bond_site_symmetry_2
_ccdc_geom_bond_type
Tb0 O3 2.453 . S
Tb0 O4 2.596 . S
Tb0 O5 2.374 . S
Tb0 O13 2.343 . S
Tb0 O15 2.353 . S
Tb0 O17 2.427 . S
Tb0 O18 2.513 . S
C1 O5 1.251 1_565 S
C1 O7 1.263 1_565 S
Tb2 O4 2.343 . S
Tb2 O7 2.353 . S
Tb2 O10 2.427 1_545 S
Tb2 O11 2.513 . S
Tb2 O12 2.453 . S
Tb2 O13 2.596 . S
Tb2 O14 2.374 . S
O3 Tb0 2.453 . S
O3 C19 1.245 . S
O4 Tb0 2.596 . S
O4 Tb2 2.343 . S
O4 C19 1.259 . S
O5 Tb0 2.374 . S
O5 C1 1.251 1_545 S
C6 O10 1.271 1_545 S
C6 O11 1.258 . S
O7 C1 1.263 1_545 S
O7 Tb2 2.353 . S
C8 O12 1.245 . S
C8 O13 1.259 . S
C9 O14 1.250 . S
C9 O15 1.263 . S
O10 Tb2 2.427 1_565 S
O10 C6 1.271 1_565 S
O11 Tb2 2.513 . S
O11 C6 1.258 . S
O12 Tb2 2.453 . S
O12 C8 1.245 . S
O13 Tb0 2.343 . S
O13 Tb2 2.596 . S
O13 C8 1.259 . S
O14 Tb2 2.374 . S
O14 C9 1.250 . S
O15 Tb0 2.353 . S
O15 C9 1.263 . S
C16 O17 1.275 . S
C16 O18 1.246 . S
O17 Tb0 2.427 . S
O17 C16 1.275 . S
O18 Tb0 2.513 . S
O18 C16 1.246 . S
C19 O3 1.245 . S
C19 O4 1.259 . S
Tb20 O23 2.453 . S
Tb20 O24 2.596 . S
Tb20 O25 2.374 . S
Tb20 O33 2.343 . S
Tb20 O35 2.353 . S
Tb20 O37 2.427 . S
Tb20 O38 2.513 . S
C21 O25 1.251 . S
C21 O27 1.263 . S
Tb22 O24 2.343 . S
Tb22 O27 2.353 . S
Tb22 O30 2.427 . S
Tb22 O31 2.513 . S
Tb22 O32 2.453 . S
Tb22 O33 2.596 . S
Tb22 O34 2.374 . S
O23 Tb20 2.453 . S
O23 C39 1.245 . S
O24 Tb20 2.596 . S
O24 Tb22 2.343 . S
O24 C39 1.259 . S
O25 Tb20 2.374 . S
O25 C21 1.251 . S
C26 O30 1.275 . S
C26 O31 1.246 . S
O27 C21 1.263 . S
O27 Tb22 2.353 . S
C28 O32 1.245 . S
C28 O33 1.259 . S
C29 O34 1.250 . S
C29 O35 1.263 . S
O30 Tb22 2.427 . S
O30 C26 1.275 . S
O31 Tb22 2.513 . S
O31 C26 1.246 . S
O32 Tb22 2.453 . S
O32 C28 1.245 . S
O33 Tb20 2.343 . S
O33 Tb22 2.596 . S
O33 C28 1.259 . S
O34 Tb22 2.374 . S
O34 C29 1.250 . S
O35 Tb20 2.353 . S
O35 C29 1.263 . S
C36 O37 1.275 . S
C36 O38 1.246 . S
O37 Tb20 2.427 . S
O37 C36 1.275 . S
O38 Tb20 2.513 . S
O38 C36 1.246 . S
C39 O23 1.245 . S
C39 O24 1.259 . S
Tb40 O43 2.453 . S
Tb40 O44 2.596 . S
Tb40 O45 2.374 . S
Tb40 O53 2.343 . S
Tb40 O55 2.353 . S
Tb40 O57 2.427 . S
Tb40 O58 2.513 . S
C41 O45 1.251 1_455 S
C41 O47 1.263 1_455 S
Tb42 O44 2.343 . S
Tb42 O47 2.353 . S
Tb42 O50 2.427 1_655 S
Tb42 O51 2.513 . S
Tb42 O52 2.453 . S
Tb42 O53 2.596 . S
Tb42 O54 2.374 . S
O43 Tb40 2.453 . S
O43 C59 1.245 . S
O44 Tb40 2.596 . S
O44 Tb42 2.343 . S
O44 C59 1.259 . S
O45 Tb40 2.374 . S
O45 C41 1.251 1_655 S
C46 O50 1.271 1_655 S
C46 O51 1.255 . S
O47 C41 1.263 1_655 S
O47 Tb42 2.353 . S
C48 O52 1.245 . S
C48 O53 1.259 . S
C49 O54 1.250 . S
C49 O55 1.263 . S
O50 Tb42 2.427 1_455 S
O50 C46 1.271 1_455 S
O51 Tb42 2.513 . S
O51 C46 1.255 . S
O52 Tb42 2.453 . S
O52 C48 1.245 . S
O53 Tb40 2.343 . S
O53 Tb42 2.596 . S
O53 C48 1.259 . S
O54 Tb42 2.374 . S
O54 C49 1.250 . S
O55 Tb40 2.353 . S
O55 C49 1.263 . S
C56 O57 1.275 . S
C56 O58 1.246 . S
O57 Tb40 2.427 . S
O57 C56 1.275 . S
O58 Tb40 2.513 . S
O58 C56 1.246 . S
C59 O43 1.245 . S
C59 O44 1.259 . S
Tb60 O63 2.453 . S
Tb60 O64 2.596 . S
Tb60 O65 2.374 . S
Tb60 O73 2.343 . S
Tb60 O75 2.353 . S
Tb60 O77 2.427 . S
Tb60 O78 2.513 . S
C61 O65 1.251 1_545 S
C61 O67 1.263 1_545 S
Tb62 O64 2.343 . S
Tb62 O67 2.353 . S
Tb62 O70 2.427 1_565 S
Tb62 O71 2.513 . S
Tb62 O72 2.453 . S
Tb62 O73 2.596 . S
Tb62 O74 2.374 . S
O63 Tb60 2.453 . S
O63 C79 1.245 . S
O64 Tb60 2.596 . S
O64 Tb62 2.343 . S
O64 C79 1.259 . S
O65 Tb60 2.374 . S
O65 C61 1.251 1_565 S
C66 O70 1.271 1_565 S
C66 O71 1.258 . S
O67 C61 1.263 1_565 S
O67 Tb62 2.353 . S
C68 O72 1.245 . S
C68 O73 1.259 . S
C69 O74 1.250 . S
C69 O75 1.263 . S
O70 Tb62 2.427 1_545 S
O70 C66 1.271 1_545 S
O71 Tb62 2.513 . S
O71 C66 1.258 . S
O72 Tb62 2.453 . S
O72 C68 1.245 . S
O73 Tb60 2.343 . S
O73 Tb62 2.596 . S
O73 C68 1.259 . S
O74 Tb62 2.374 . S
O74 C69 1.250 . S
O75 Tb60 2.353 . S
O75 C69 1.263 . S
C76 O77 1.275 . S
C76 O78 1.246 . S
O77 Tb60 2.427 . S
O77 C76 1.275 . S
O78 Tb60 2.513 . S
O78 C76 1.246 . S
C79 O63 1.245 . S
C79 O64 1.259 . S
Tb80 O83 2.453 . S
Tb80 O84 2.596 . S
Tb80 O85 2.374 . S
Tb80 O93 2.343 . S
Tb80 O95 2.353 . S
Tb80 O97 2.427 . S
Tb80 O98 2.513 . S
C81 O85 1.251 . S
C81 O87 1.263 . S
Tb82 O84 2.343 . S
Tb82 O87 2.353 . S
Tb82 O90 2.427 . S
Tb82 O91 2.513 . S
Tb82 O92 2.453 . S
Tb82 O93 2.596 . S
Tb82 O94 2.374 . S
O83 Tb80 2.453 . S
O83 C99 1.245 . S
O84 Tb80 2.596 . S
O84 Tb82 2.343 . S
O84 C99 1.259 . S
O85 Tb80 2.374 . S
O85 C81 1.251 . S
C86 O90 1.275 . S
C86 O91 1.246 . S
O87 C81 1.263 . S
O87 Tb82 2.353 . S
C88 O92 1.245 . S
C88 O93 1.259 . S
C89 O94 1.250 . S
C89 O95 1.263 . S
O90 Tb82 2.427 . S
O90 C86 1.275 . S
O91 Tb82 2.513 . S
O91 C86 1.246 . S
O92 Tb82 2.453 . S
O92 C88 1.245 . S
O93 Tb80 2.343 . S
O93 Tb82 2.596 . S
O93 C88 1.259 . S
O94 Tb82 2.374 . S
O94 C89 1.250 . S
O95 Tb80 2.353 . S
O95 C89 1.263 . S
C96 O97 1.275 . S
C96 O98 1.246 . S
O97 Tb80 2.427 . S
O97 C96 1.275 . S
O98 Tb80 2.513 . S
O98 C96 1.246 . S
C99 O83 1.245 . S
C99 O84 1.259 . S
Tb100 O103 2.453 . S
Tb100 O104 2.596 . S
Tb100 O105 2.374 . S
Tb100 O113 2.343 . S
Tb100 O115 2.353 . S
Tb100 O117 2.427 . S
Tb100 O118 2.513 . S
C101 O105 1.251 1_655 S
C101 O107 1.263 1_655 S
Tb102 O104 2.343 . S
Tb102 O107 2.353 . S
Tb102 O110 2.427 1_455 S
Tb102 O111 2.513 . S
Tb102 O112 2.453 . S
Tb102 O113 2.596 . S
Tb102 O114 2.374 . S
O103 Tb100 2.453 . S
O103 C119 1.245 . S
O104 Tb100 2.596 . S
O104 Tb102 2.343 . S
O104 C119 1.259 . S
O105 Tb100 2.374 . S
O105 C101 1.251 1_455 S
C106 O110 1.271 1_455 S
C106 O111 1.255 . S
O107 C101 1.263 1_455 S
O107 Tb102 2.353 . S
C108 O112 1.245 . S
C108 O113 1.259 . S
C109 O114 1.250 . S
C109 O115 1.263 . S
O110 Tb102 2.427 1_655 S
O110 C106 1.271 1_655 S
O111 Tb102 2.513 . S
O111 C106 1.255 . S
O112 Tb102 2.453 . S
O112 C108 1.245 . S
O113 Tb100 2.343 . S
O113 Tb102 2.596 . S
O113 C108 1.259 . S
O114 Tb102 2.374 . S
O114 C109 1.250 . S
O115 Tb100 2.353 . S
O115 C109 1.263 . S
C116 O117 1.275 . S
C116 O118 1.246 . S
O117 Tb100 2.427 . S
O117 C116 1.275 . S
O118 Tb100 2.513 . S
O118 C116 1.246 . S
C119 O103 1.245 . S
C119 O104 1.259 . S
Tb120 O123 2.453 . S
Tb120 O124 2.596 . S
Tb120 O125 2.374 . S
Tb120 O133 2.343 . S
Tb120 O135 2.353 . S
Tb120 O137 2.427 . S
Tb120 O138 2.513 . S
C121 O125 1.251 1_455 S
C121 O127 1.263 1_455 S
Tb122 O124 2.343 . S
Tb122 O127 2.353 . S
Tb122 O130 2.427 1_655 S
Tb122 O131 2.513 . S
Tb122 O132 2.453 . S
Tb122 O133 2.596 . S
Tb122 O134 2.374 . S
O123 Tb120 2.453 . S
O123 C139 1.245 . S
O124 Tb120 2.596 . S
O124 Tb122 2.343 . S
O124 C139 1.259 . S
O125 Tb120 2.374 . S
O125 C121 1.251 1_655 S
C126 O130 1.271 1_655 S
C126 O131 1.258 . S
O127 C121 1.263 1_655 S
O127 Tb122 2.353 . S
C128 O132 1.245 . S
C128 O133 1.259 . S
C129 O134 1.250 . S
C129 O135 1.263 . S
O130 Tb122 2.427 1_455 S
O130 C126 1.271 1_455 S
O131 Tb122 2.513 . S
O131 C126 1.258 . S
O132 Tb122 2.453 . S
O132 C128 1.245 . S
O133 Tb120 2.343 . S
O133 Tb122 2.596 . S
O133 C128 1.259 . S
O134 Tb122 2.374 . S
O134 C129 1.250 . S
O135 Tb120 2.353 . S
O135 C129 1.263 . S
C136 O137 1.275 . S
C136 O138 1.246 . S
O137 Tb120 2.427 . S
O137 C136 1.275 . S
O138 Tb120 2.513 . S
O138 C136 1.246 . S
C139 O123 1.245 . S
C139 O124 1.259 . S
Tb140 O143 2.453 . S
Tb140 O144 2.596 . S
Tb140 O145 2.374 . S
Tb140 O153 2.343 . S
Tb140 O155 2.353 . S
Tb140 O157 2.427 . S
Tb140 O158 2.513 . S
C141 O145 1.251 1_545 S
C141 O147 1.263 1_545 S
Tb142 O144 2.343 . S
Tb142 O147 2.353 . S
Tb142 O150 2.427 1_565 S
Tb142 O151 2.513 . S
Tb142 O152 2.453 . S
Tb142 O153 2.596 . S
Tb142 O154 2.374 . S
O143 Tb140 2.453 . S
O143 C159 1.245 . S
O144 Tb140 2.596 . S
O144 Tb142 2.343 . S
O144 C159 1.259 . S
O145 Tb140 2.374 . S
O145 C141 1.251 1_565 S
C146 O150 1.271 1_565 S
C146 O151 1.255 . S
O147 C141 1.263 1_565 S
O147 Tb142 2.353 . S
C148 O152 1.245 . S
C148 O153 1.259 . S
C149 O154 1.250 . S
C149 O155 1.263 . S
O150 Tb142 2.427 1_545 S
O150 C146 1.271 1_545 S
O151 Tb142 2.513 . S
O151 C146 1.255 . S
O152 Tb142 2.453 . S
O152 C148 1.245 . S
O153 Tb140 2.343 . S
O153 Tb142 2.596 . S
O153 C148 1.259 . S
O154 Tb142 2.374 . S
O154 C149 1.250 . S
O155 Tb140 2.353 . S
O155 C149 1.263 . S
C156 O157 1.275 . S
C156 O158 1.246 . S
O157 Tb140 2.427 . S
O157 C156 1.275 . S
O158 Tb140 2.513 . S
O158 C156 1.246 . S
C159 O143 1.245 . S
C159 O144 1.259 . S
Tb160 O163 2.453 . S
Tb160 O164 2.596 . S
Tb160 O165 2.374 . S
Tb160 O173 2.343 . S
Tb160 O175 2.353 . S
Tb160 O177 2.427 . S
Tb160 O178 2.513 . S
C161 O165 1.251 . S
C161 O167 1.263 . S
Tb162 O164 2.343 . S
Tb162 O167 2.353 . S
Tb162 O170 2.427 . S
Tb162 O171 2.513 . S
Tb162 O172 2.453 . S
Tb162 O173 2.596 . S
Tb162 O174 2.374 . S
O163 Tb160 2.453 . S
O163 C179 1.245 . S
O164 Tb160 2.596 . S
O164 Tb162 2.343 . S
O164 C179 1.259 . S
O165 Tb160 2.374 . S
O165 C161 1.251 . S
C166 O170 1.275 . S
C166 O171 1.246 . S
O167 C161 1.263 . S
O167 Tb162 2.353 . S
C168 O172 1.245 . S
C168 O173 1.259 . S
C169 O174 1.250 . S
C169 O175 1.263 . S
O170 Tb162 2.427 . S
O170 C166 1.275 . S
O171 Tb162 2.513 . S
O171 C166 1.246 . S
O172 Tb162 2.453 . S
O172 C168 1.245 . S
O173 Tb160 2.343 . S
O173 Tb162 2.596 . S
O173 C168 1.259 . S
O174 Tb162 2.374 . S
O174 C169 1.250 . S
O175 Tb160 2.353 . S
O175 C169 1.263 . S
C176 O177 1.275 . S
C176 O178 1.246 . S
O177 Tb160 2.427 . S
O177 C176 1.275 . S
O178 Tb160 2.513 . S
O178 C176 1.246 . S
C179 O163 1.245 . S
C179 O164 1.259 . S
Tb180 O183 2.453 . S
Tb180 O184 2.596 . S
Tb180 O185 2.374 . S
Tb180 O193 2.343 . S
Tb180 O195 2.353 . S
Tb180 O197 2.427 . S
Tb180 O198 2.513 . S
C181 O185 1.251 1_655 S
C181 O187 1.263 1_655 S
Tb182 O184 2.343 . S
Tb182 O187 2.353 . S
Tb182 O190 2.427 1_455 S
Tb182 O191 2.513 . S
Tb182 O192 2.453 . S
Tb182 O193 2.596 . S
Tb182 O194 2.374 . S
O183 Tb180 2.453 . S
O183 C199 1.245 . S
O184 Tb180 2.596 . S
O184 Tb182 2.343 . S
O184 C199 1.259 . S
O185 Tb180 2.374 . S
O185 C181 1.251 1_455 S
C186 O190 1.271 1_455 S
C186 O191 1.258 . S
O187 C181 1.263 1_455 S
O187 Tb182 2.353 . S
C188 O192 1.245 . S
C188 O193 1.259 . S
C189 O194 1.250 . S
C189 O195 1.263 . S
O190 Tb182 2.427 1_655 S
O190 C186 1.271 1_655 S
O191 Tb182 2.513 . S
O191 C186 1.258 . S
O192 Tb182 2.453 . S
O192 C188 1.245 . S
O193 Tb180 2.343 . S
O193 Tb182 2.596 . S
O193 C188 1.259 . S
O194 Tb182 2.374 . S
O194 C189 1.250 . S
O195 Tb180 2.353 . S
O195 C189 1.263 . S
C196 O197 1.275 . S
C196 O198 1.246 . S
O197 Tb180 2.427 . S
O197 C196 1.275 . S
O198 Tb180 2.513 . S
O198 C196 1.246 . S
C199 O183 1.245 . S
C199 O184 1.259 . S
Tb200 O203 2.453 . S
Tb200 O204 2.596 . S
Tb200 O205 2.374 . S
Tb200 O213 2.343 . S
Tb200 O215 2.353 . S
Tb200 O217 2.427 . S
Tb200 O218 2.513 . S
C201 O205 1.251 1_565 S
C201 O207 1.263 1_565 S
Tb202 O204 2.343 . S
Tb202 O207 2.353 . S
Tb202 O210 2.427 1_545 S
Tb202 O211 2.513 . S
Tb202 O212 2.453 . S
Tb202 O213 2.596 . S
Tb202 O214 2.374 . S
O203 Tb200 2.453 . S
O203 C219 1.245 . S
O204 Tb200 2.596 . S
O204 Tb202 2.343 . S
O204 C219 1.259 . S
O205 Tb200 2.374 . S
O205 C201 1.251 1_545 S
C206 O210 1.271 1_545 S
C206 O211 1.255 . S
O207 C201 1.263 1_545 S
O207 Tb202 2.353 . S
C208 O212 1.245 . S
C208 O213 1.259 . S
C209 O214 1.250 . S
C209 O215 1.263 . S
O210 Tb202 2.427 1_565 S
O210 C206 1.271 1_565 S
O211 Tb202 2.513 . S
O211 C206 1.255 . S
O212 Tb202 2.453 . S
O212 C208 1.245 . S
O213 Tb200 2.343 . S
O213 Tb202 2.596 . S
O213 C208 1.259 . S
O214 Tb202 2.374 . S
O214 C209 1.250 . S
O215 Tb200 2.353 . S
O215 C209 1.263 . S
C216 O217 1.275 . S
C216 O218 1.246 . S
O217 Tb200 2.427 . S
O217 C216 1.275 . S
O218 Tb200 2.513 . S
O218 C216 1.246 . S
C219 O203 1.245 . S
C219 O204 1.259 . S
Tb220 O223 2.453 . S
Tb220 O224 2.596 . S
Tb220 O225 2.374 . S
Tb220 O233 2.343 . S
Tb220 O235 2.353 . S
Tb220 O237 2.427 . S
Tb220 O238 2.513 . S
C221 O225 1.251 . S
C221 O227 1.263 . S
Tb222 O224 2.343 . S
Tb222 O227 2.353 . S
Tb222 O230 2.427 . S
Tb222 O231 2.513 . S
Tb222 O232 2.453 . S
Tb222 O233 2.596 . S
Tb222 O234 2.374 . S
O223 Tb220 2.453 . S
O223 C239 1.245 . S
O224 Tb220 2.596 . S
O224 Tb222 2.343 . S
O224 C239 1.259 . S
O225 Tb220 2.374 . S
O225 C221 1.251 . S
C226 O230 1.275 . S
C226 O231 1.246 . S
O227 C221 1.263 . S
O227 Tb222 2.353 . S
C228 O232 1.245 . S
C228 O233 1.259 . S
C229 O234 1.250 . S
C229 O235 1.263 . S
O230 Tb222 2.427 . S
O230 C226 1.275 . S
O231 Tb222 2.513 . S
O231 C226 1.246 . S
O232 Tb222 2.453 . S
O232 C228 1.245 . S
O233 Tb220 2.343 . S
O233 Tb222 2.596 . S
O233 C228 1.259 . S
O234 Tb222 2.374 . S
O234 C229 1.250 . S
O235 Tb220 2.353 . S
O235 C229 1.263 . S
C236 O237 1.275 . S
C236 O238 1.246 . S
O237 Tb220 2.427 . S
O237 C236 1.275 . S
O238 Tb220 2.513 . S
O238 C236 1.246 . S
C239 O223 1.245 . S
C239 O224 1.259 . S
C240 C241 1.391 . S
C240 C242 1.394 . S
C240 H256 0.931 . S
C241 C240 1.391 . S
C241 C245 1.376 . S
C242 C240 1.394 . S
C242 C243 1.369 . S
C242 C246 1.531 . S
C243 C242 1.369 . S
C243 C244 1.410 . S
C243 C251 1.503 . S
C244 C243 1.410 . S
C244 C245 1.392 . S
C244 C247 1.511 . S
C245 C241 1.376 . S
C245 C244 1.392 . S
C245 H257 0.929 . S
C246 C242 1.531 . S
C246 H258 0.960 . S
C246 H259 0.962 . S
C246 H260 0.960 . S
C247 C244 1.511 . S
C247 H261 0.961 1_565 S
C247 H262 0.961 1_565 S
C247 H263 0.961 1_565 S
C248 C249 1.370 . S
C248 C250 1.363 . S
C248 H264 0.931 . S
C249 C248 1.370 . S
C249 C253 1.408 . S
C250 C248 1.363 . S
C250 C251 1.370 . S
C250 C254 1.524 . S
C251 C243 1.503 . S
C251 C250 1.370 . S
C251 C252 1.403 . S
C252 C251 1.403 . S
C252 C253 1.404 . S
C252 C255 1.539 . S
C253 C249 1.408 . S
C253 C252 1.404 . S
C253 H265 0.930 . S
C254 C250 1.524 . S
C254 H266 0.956 . S
C254 H267 0.961 . S
C254 H268 0.961 . S
C255 C252 1.539 . S
C255 H269 0.958 . S
C255 H270 0.961 . S
C255 H271 0.960 . S
H256 C240 0.931 . S
H257 C245 0.929 . S
H258 C246 0.960 . S
H259 C246 0.962 . S
H260 C246 0.960 . S
H261 C247 0.961 1_545 S
H262 C247 0.961 1_545 S
H263 C247 0.961 1_545 S
H264 C248 0.931 . S
H265 C253 0.930 . S
H266 C254 0.956 . S
H267 C254 0.961 . S
H268 C254 0.961 . S
H269 C255 0.958 . S
H270 C255 0.961 . S
H271 C255 0.960 . S
C272 C273 1.391 . S
C272 C274 1.394 . S
C272 H288 0.931 . S
C273 C272 1.391 . S
C273 C277 1.376 . S
C274 C272 1.394 . S
C274 C275 1.369 . S
C274 C278 1.531 . S
C275 C274 1.369 . S
C275 C276 1.410 . S
C275 C283 1.503 . S
C276 C275 1.410 . S
C276 C277 1.392 . S
C276 C279 1.511 . S
C277 C273 1.376 . S
C277 C276 1.392 . S
C277 H289 0.929 . S
C278 C274 1.531 . S
C278 H290 0.960 . S
C278 H291 0.962 . S
C278 H292 0.960 . S
C279 C276 1.511 . S
C279 H293 0.961 . S
C279 H294 0.961 . S
C279 H295 0.961 . S
C280 C281 1.370 . S
C280 C282 1.363 . S
C280 H296 0.931 . S
C281 C280 1.370 . S
C281 C285 1.408 . S
C282 C280 1.363 . S
C282 C283 1.370 . S
C282 C286 1.524 . S
C283 C275 1.503 . S
C283 C282 1.370 . S
C283 C284 1.403 . S
C284 C283 1.403 . S
C284 C285 1.404 . S
C284 C287 1.539 . S
C285 C281 1.408 . S
C285 C284 1.404 . S
C285 H297 0.930 . S
C286 C282 1.524 . S
C286 H298 0.956 . S
C286 H299 0.961 . S
C286 H300 0.961 . S
C287 C284 1.539 . S
C287 H301 0.958 . S
C287 H302 0.961 . S
C287 H303 0.960 . S
H288 C272 0.931 . S
H289 C277 0.929 . S
H290 C278 0.960 . S
H291 C278 0.962 . S
H292 C278 0.960 . S
H293 C279 0.961 . S
H294 C279 0.961 . S
H295 C279 0.961 . S
H296 C280 0.931 . S
H297 C285 0.930 . S
H298 C286 0.956 . S
H299 C286 0.961 . S
H300 C286 0.961 . S
H301 C287 0.958 . S
H302 C287 0.961 . S
H303 C287 0.960 . S
C304 C305 1.391 1_655 S
C304 C306 1.394 1_655 S
C304 H320 0.931 . S
C305 C304 1.391 1_455 S
C305 C309 1.376 . S
C306 C304 1.394 1_455 S
C306 C307 1.369 . S
C306 C310 1.531 1_455 S
C307 C306 1.369 . S
C307 C308 1.410 . S
C307 C315 1.503 . S
C308 C307 1.410 . S
C308 C309 1.392 . S
C308 C311 1.511 . S
C309 C305 1.376 . S
C309 C308 1.392 . S
C309 H321 0.929 . S
C310 C306 1.531 1_655 S
C310 H322 0.960 1_655 S
C310 H323 0.962 . S
C310 H324 0.960 . S
C311 C308 1.511 . S
C311 H325 0.961 . S
C311 H326 0.961 . S
C311 H327 0.961 . S
C312 C313 1.370 . S
C312 C314 1.363 . S
C312 H328 0.931 . S
C313 C312 1.370 . S
C313 C317 1.408 . S
C314 C312 1.363 . S
C314 C315 1.370 . S
C314 C318 1.524 . S
C315 C307 1.503 . S
C315 C314 1.370 . S
C315 C316 1.403 . S
C316 C315 1.403 . S
C316 C317 1.404 . S
C316 C319 1.539 . S
C317 C313 1.408 . S
C317 C316 1.404 . S
C317 H329 0.930 . S
C318 C314 1.524 . S
C318 H330 0.956 . S
C318 H331 0.961 . S
C318 H332 0.961 . S
C319 C316 1.539 . S
C319 H333 0.958 . S
C319 H334 0.961 . S
C319 H335 0.960 . S
H320 C304 0.931 . S
H321 C309 0.929 . S
H322 C310 0.960 1_455 S
H323 C310 0.962 . S
H324 C310 0.960 . S
H325 C311 0.961 . S
H326 C311 0.961 . S
H327 C311 0.961 . S
H328 C312 0.931 . S
H329 C317 0.930 . S
H330 C318 0.956 . S
H331 C318 0.961 . S
H332 C318 0.961 . S
H333 C319 0.958 . S
H334 C319 0.961 . S
H335 C319 0.960 . S
C336 C337 1.391 . S
C336 C338 1.394 . S
C336 H352 0.931 . S
C337 C336 1.391 . S
C337 C341 1.376 . S
C338 C336 1.394 . S
C338 C339 1.369 . S
C338 C342 1.531 . S
C339 C338 1.369 . S
C339 C340 1.410 . S
C339 C347 1.503 . S
C340 C339 1.410 . S
C340 C341 1.392 . S
C340 C343 1.511 . S
C341 C337 1.376 . S
C341 C340 1.392 . S
C341 H353 0.929 . S
C342 C338 1.531 . S
C342 H354 0.960 . S
C342 H355 0.962 . S
C342 H356 0.960 . S
C343 C340 1.511 . S
C343 H357 0.961 . S
C343 H358 0.961 . S
C343 H359 0.961 . S
C344 C345 1.370 1_565 S
C344 C346 1.363 1_565 S
C344 H360 0.931 . S
C345 C344 1.370 1_545 S
C345 C349 1.408 . S
C346 C344 1.363 1_545 S
C346 C347 1.370 . S
C346 C350 1.524 . S
C347 C339 1.503 . S
C347 C346 1.370 . S
C347 C348 1.403 . S
C348 C347 1.403 . S
C348 C349 1.404 . S
C348 C351 1.539 . S
C349 C345 1.408 . S
C349 C348 1.404 . S
C349 H361 0.930 . S
C350 C346 1.524 . S
C350 H362 0.956 . S
C350 H363 0.960 . S
C350 H364 0.961 1_545 S
C351 C348 1.539 . S
C351 H365 0.958 . S
C351 H366 0.961 . S
C351 H367 0.960 . S
H352 C336 0.931 . S
H353 C341 0.929 . S
H354 C342 0.960 . S
H355 C342 0.962 . S
H356 C342 0.960 . S
H357 C343 0.961 . S
H358 C343 0.961 . S
H359 C343 0.961 . S
H360 C344 0.931 . S
H361 C349 0.930 . S
H362 C350 0.956 . S
H363 C350 0.960 . S
H364 C350 0.961 1_565 S
H365 C351 0.958 . S
H366 C351 0.961 . S
H367 C351 0.960 . S
C368 C369 1.391 . S
C368 C370 1.394 . S
C368 H384 0.931 . S
C369 C368 1.391 . S
C369 C373 1.376 . S
C370 C368 1.394 . S
C370 C371 1.369 . S
C370 C374 1.531 . S
C371 C370 1.369 . S
C371 C372 1.410 . S
C371 C379 1.503 . S
C372 C371 1.410 . S
C372 C373 1.392 . S
C372 C375 1.511 . S
C373 C369 1.376 . S
C373 C372 1.392 . S
C373 H385 0.929 . S
C374 C370 1.531 . S
C374 H386 0.960 . S
C374 H387 0.962 . S
C374 H388 0.960 . S
C375 C372 1.511 . S
C375 H389 0.961 . S
C375 H390 0.961 . S
C375 H391 0.961 . S
C376 C377 1.370 . S
C376 C378 1.363 1_554 S
C376 H392 0.931 . S
C377 C376 1.370 . S
C377 C381 1.408 1_554 S
C378 C376 1.363 1_556 S
C378 C379 1.370 . S
C378 C382 1.524 . S
C379 C371 1.503 . S
C379 C378 1.370 . S
C379 C380 1.403 . S
C380 C379 1.403 . S
C380 C381 1.404 . S
C380 C383 1.539 . S
C381 C377 1.408 1_556 S
C381 C380 1.404 . S
C381 H393 0.939 . S
C382 C378 1.524 . S
C382 H394 0.956 . S
C382 H395 0.961 . S
C382 H396 0.961 . S
C383 C380 1.539 . S
C383 H397 0.958 . S
C383 H398 0.961 . S
C383 H399 0.960 . S
H384 C368 0.931 . S
H385 C373 0.929 . S
H386 C374 0.960 . S
H387 C374 0.962 . S
H388 C374 0.960 . S
H389 C375 0.961 . S
H390 C375 0.961 . S
H391 C375 0.961 . S
H392 C376 0.931 . S
H393 C381 0.939 . S
H394 C382 0.956 . S
H395 C382 0.961 . S
H396 C382 0.961 . S
H397 C383 0.958 . S
H398 C383 0.961 . S
H399 C383 0.960 . S
C400 C401 1.391 1_455 S
C400 C402 1.394 1_455 S
C400 H416 0.931 . S
C401 C400 1.391 1_655 S
C401 C405 1.376 . S
C402 C400 1.394 1_655 S
C402 C403 1.369 . S
C402 C406 1.531 . S
C403 C402 1.369 . S
C403 C404 1.410 . S
C403 C411 1.503 . S
C404 C403 1.410 . S
C404 C405 1.392 . S
C404 C407 1.511 . S
C405 C401 1.376 . S
C405 C404 1.392 . S
C405 H417 0.929 . S
C406 C402 1.531 . S
C406 H418 0.960 . S
C406 H419 0.962 1_655 S
C406 H420 0.960 1_655 S
C407 C404 1.511 . S
C407 H421 0.961 . S
C407 H422 0.961 . S
C407 H423 0.961 . S
C408 C409 1.370 . S
C408 C410 1.363 . S
C408 H424 0.931 . S
C409 C408 1.370 . S
C409 C413 1.408 . S
C410 C408 1.363 . S
C410 C411 1.370 . S
C410 C414 1.524 . S
C411 C403 1.503 . S
C411 C410 1.370 . S
C411 C412 1.403 . S
C412 C411 1.403 . S
C412 C413 1.404 . S
C412 C415 1.539 . S
C413 C409 1.408 . S
C413 C412 1.404 . S
C413 H425 0.930 . S
C414 C410 1.524 . S
C414 H426 0.956 . S
C414 H427 0.961 . S
C414 H428 0.961 . S
C415 C412 1.539 . S
C415 H429 0.958 . S
C415 H430 0.961 . S
C415 H431 0.960 . S
H416 C400 0.931 . S
H417 C405 0.929 . S
H418 C406 0.960 . S
H419 C406 0.962 1_455 S
H420 C406 0.960 1_455 S
H421 C407 0.961 . S
H422 C407 0.961 . S
H423 C407 0.961 . S
H424 C408 0.931 . S
H425 C413 0.930 . S
H426 C414 0.956 . S
H427 C414 0.961 . S
H428 C414 0.961 . S
H429 C415 0.958 . S
H430 C415 0.961 . S
H431 C415 0.960 . S
C432 C433 1.391 . S
C432 C434 1.394 . S
C432 H448 0.931 . S
C433 C432 1.391 . S
C433 C437 1.376 . S
C434 C432 1.394 . S
C434 C435 1.369 . S
C434 C438 1.531 . S
C435 C434 1.369 . S
C435 C436 1.410 . S
C435 C443 1.503 . S
C436 C435 1.410 . S
C436 C437 1.392 . S
C436 C439 1.511 . S
C437 C433 1.376 . S
C437 C436 1.392 . S
C437 H449 0.929 . S
C438 C434 1.531 . S
C438 H450 0.960 . S
C438 H451 0.962 . S
C438 H452 0.960 . S
C439 C436 1.511 . S
C439 H453 0.961 . S
C439 H454 0.961 . S
C439 H455 0.961 . S
C440 C441 1.370 . S
C440 C442 1.363 . S
C440 H456 0.931 1_455 S
C441 C440 1.370 . S
C441 C445 1.408 . S
C442 C440 1.363 . S
C442 C443 1.370 . S
C442 C446 1.524 . S
C443 C435 1.503 . S
C443 C442 1.370 . S
C443 C444 1.403 . S
C444 C443 1.403 . S
C444 C445 1.404 . S
C444 C447 1.539 . S
C445 C441 1.408 . S
C445 C444 1.404 . S
C445 H457 0.930 . S
C446 C442 1.524 . S
C446 H458 0.956 1_455 S
C446 H459 0.961 . S
C446 H460 0.961 1_455 S
C447 C444 1.539 . S
C447 H461 0.958 . S
C447 H462 0.961 . S
C447 H463 0.960 . S
H448 C432 0.931 . S
H449 C437 0.929 . S
H450 C438 0.960 . S
H451 C438 0.962 . S
H452 C438 0.960 . S
H453 C439 0.961 . S
H454 C439 0.961 . S
H455 C439 0.961 . S
H456 C440 0.931 1_655 S
H457 C445 0.930 . S
H458 C446 0.956 1_655 S
H459 C446 0.961 . S
H460 C446 0.961 1_655 S
H461 C447 0.958 . S
H462 C447 0.961 . S
H463 C447 0.960 . S
C464 C465 1.391 . S
C464 C466 1.394 . S
C464 H480 0.931 . S
C465 C464 1.391 . S
C465 C469 1.376 1_545 S
C466 C464 1.394 . S
C466 C467 1.369 . S
C466 C470 1.531 . S
C467 C466 1.369 . S
C467 C468 1.410 . S
C467 C475 1.503 . S
C468 C467 1.410 . S
C468 C469 1.392 1_545 S
C468 C471 1.511 1_545 S
C469 C465 1.376 1_565 S
C469 C468 1.392 1_565 S
C469 H481 0.929 . S
C470 C466 1.531 . S
C470 H482 0.960 . S
C470 H483 0.962 . S
C470 H484 0.960 . S
C471 C468 1.511 1_565 S
C471 H485 0.961 . S
C471 H486 0.961 . S
C471 H487 0.961 . S
C472 C473 1.370 . S
C472 C474 1.363 . S
C472 H488 0.931 . S
C473 C472 1.370 . S
C473 C477 1.408 . S
C474 C472 1.363 . S
C474 C475 1.370 . S
C474 C478 1.524 . S
C475 C467 1.503 . S
C475 C474 1.370 . S
C475 C476 1.403 . S
C476 C475 1.403 . S
C476 C477 1.404 . S
C476 C479 1.539 . S
C477 C473 1.408 . S
C477 C476 1.404 . S
C477 H489 0.930 . S
C478 C474 1.524 . S
C478 H490 0.956 . S
C478 H491 0.961 . S
C478 H492 0.961 . S
C479 C476 1.539 . S
C479 H493 0.958 . S
C479 H494 0.961 . S
C479 H495 0.960 . S
H480 C464 0.931 . S
H481 C469 0.929 . S
H482 C470 0.960 . S
H483 C470 0.962 . S
H484 C470 0.960 . S
H485 C471 0.961 . S
H486 C471 0.961 . S
H487 C471 0.961 . S
H488 C472 0.931 . S
H489 C477 0.930 . S
H490 C478 0.956 . S
H491 C478 0.961 . S
H492 C478 0.961 . S
H493 C479 0.958 . S
H494 C479 0.961 . S
H495 C479 0.960 . S
C496 C497 1.391 . S
C496 C498 1.394 . S
C496 H512 0.931 . S
C497 C496 1.391 . S
C497 C501 1.376 . S
C498 C496 1.394 . S
C498 C499 1.369 . S
C498 C502 1.531 . S
C499 C498 1.369 . S
C499 C500 1.410 . S
C499 C507 1.503 . S
C500 C499 1.410 . S
C500 C501 1.392 . S
C500 C503 1.511 . S
C501 C497 1.376 . S
C501 C500 1.392 . S
C501 H513 0.929 . S
C502 C498 1.531 . S
C502 H514 0.960 . S
C502 H515 0.962 . S
C502 H516 0.960 . S
C503 C500 1.511 . S
C503 H517 0.961 . S
C503 H518 0.961 . S
C503 H519 0.961 . S
C504 C505 1.370 . S
C504 C506 1.363 . S
C504 H520 0.931 . S
C505 C504 1.370 . S
C505 C509 1.408 . S
C506 C504 1.363 . S
C506 C507 1.370 . S
C506 C510 1.524 . S
C507 C499 1.503 . S
C507 C506 1.370 . S
C507 C508 1.403 . S
C508 C507 1.403 . S
C508 C509 1.404 . S
C508 C511 1.539 . S
C509 C505 1.408 . S
C509 C508 1.404 . S
C509 H521 0.930 . S
C510 C506 1.524 . S
C510 H522 0.956 . S
C510 H523 0.961 . S
C510 H524 0.961 . S
C511 C508 1.539 . S
C511 H525 0.958 . S
C511 H526 0.961 . S
C511 H527 0.960 . S
H512 C496 0.931 . S
H513 C501 0.929 . S
H514 C502 0.960 . S
H515 C502 0.962 . S
H516 C502 0.960 . S
H517 C503 0.961 . S
H518 C503 0.961 . S
H519 C503 0.961 . S
H520 C504 0.931 . S
H521 C509 0.930 . S
H522 C510 0.956 . S
H523 C510 0.961 . S
H524 C510 0.961 . S
H525 C511 0.958 . S
H526 C511 0.961 . S
H527 C511 0.960 . S
C528 C529 1.391 . S
C528 C530 1.394 . S
C528 H544 0.931 . S
C529 C528 1.391 . S
C529 C533 1.376 . S
C530 C528 1.394 . S
C530 C531 1.369 . S
C530 C534 1.531 . S
C531 C530 1.369 . S
C531 C532 1.410 . S
C531 C539 1.503 . S
C532 C531 1.410 . S
C532 C533 1.392 . S
C532 C535 1.511 . S
C533 C529 1.376 . S
C533 C532 1.392 . S
C533 H545 0.929 . S
C534 C530 1.531 . S
C534 H546 0.960 1_655 S
C534 H547 0.970 1_655 S
C534 H548 0.960 1_655 S
C535 C532 1.511 . S
C535 H549 0.961 . S
C535 H550 0.961 . S
C535 H551 0.961 . S
C536 C537 1.370 . S
C536 C538 1.363 1_556 S
C536 H552 0.931 . S
C537 C536 1.370 . S
C537 C541 1.408 . S
C538 C536 1.363 1_554 S
C538 C539 1.370 . S
C538 C542 1.524 . S
C539 C531 1.503 . S
C539 C538 1.370 . S
C539 C540 1.403 . S
C540 C539 1.403 . S
C540 C541 1.404 1_554 S
C540 C543 1.539 . S
C541 C537 1.408 . S
C541 C540 1.404 1_556 S
C541 H553 0.930 1_655 S
C542 C538 1.524 . S
C542 H554 0.956 . S
C542 H555 0.961 . S
C542 H556 0.961 . S
C543 C540 1.539 . S
C543 H557 0.958 . S
C543 H558 0.961 . S
C543 H559 0.960 . S
H544 C528 0.931 . S
H545 C533 0.929 . S
H546 C534 0.960 1_455 S
H547 C534 0.970 1_455 S
H548 C534 0.960 1_455 S
H549 C535 0.961 . S
H550 C535 0.961 . S
H551 C535 0.961 . S
H552 C536 0.931 . S
H553 C541 0.930 1_455 S
H554 C542 0.956 . S
H555 C542 0.961 . S
H556 C542 0.961 . S
H557 C543 0.958 . S
H558 C543 0.961 . S
H559 C543 0.960 . S
C560 C561 1.391 . S
C560 C562 1.394 . S
C560 H576 0.931 . S
C561 C560 1.391 . S
C561 C565 1.376 . S
C562 C560 1.394 . S
C562 C563 1.369 . S
C562 C566 1.531 . S
C563 C562 1.369 . S
C563 C564 1.410 . S
C563 C571 1.503 . S
C564 C563 1.410 . S
C564 C565 1.392 . S
C564 C567 1.511 . S
C565 C561 1.376 . S
C565 C564 1.392 . S
C565 H577 0.929 . S
C566 C562 1.531 . S
C566 H578 0.960 . S
C566 H579 0.962 . S
C566 H580 0.960 . S
C567 C564 1.511 . S
C567 H581 0.961 . S
C567 H582 0.961 . S
C567 H583 0.961 . S
C568 C569 1.370 1_545 S
C568 C570 1.363 1_545 S
C568 H584 0.931 . S
C569 C568 1.370 1_565 S
C569 C573 1.408 . S
C570 C568 1.363 1_565 S
C570 C571 1.370 . S
C570 C574 1.524 1_565 S
C571 C563 1.503 . S
C571 C570 1.370 . S
C571 C572 1.403 . S
C572 C571 1.403 . S
C572 C573 1.404 . S
C572 C575 1.539 . S
C573 C569 1.408 . S
C573 C572 1.404 . S
C573 H585 0.930 . S
C574 C570 1.524 1_545 S
C574 H586 0.956 . S
C574 H587 0.959 . S
C574 H588 0.961 . S
C575 C572 1.539 . S
C575 H589 0.958 . S
C575 H590 0.961 . S
C575 H591 0.960 . S
H576 C560 0.931 . S
H577 C565 0.929 . S
H578 C566 0.960 . S
H579 C566 0.962 . S
H580 C566 0.960 . S
H581 C567 0.961 . S
H582 C567 0.961 . S
H583 C567 0.961 . S
H584 C568 0.931 . S
H585 C573 0.930 . S
H586 C574 0.956 . S
H587 C574 0.959 . S
H588 C574 0.961 . S
H589 C575 0.958 . S
H590 C575 0.961 . S
H591 C575 0.960 . S
C592 C593 1.391 . S
C592 C594 1.394 . S
C592 H608 0.931 . S
C593 C592 1.391 . S
C593 C597 1.376 . S
C594 C592 1.394 . S
C594 C595 1.369 . S
C594 C598 1.531 . S
C595 C594 1.369 . S
C595 C596 1.410 . S
C595 C603 1.503 . S
C596 C595 1.410 . S
C596 C597 1.392 . S
C596 C599 1.511 . S
C597 C593 1.376 . S
C597 C596 1.392 . S
C597 H609 0.929 . S
C598 C594 1.531 . S
C598 H610 0.960 . S
C598 H611 0.962 . S
C598 H612 0.960 . S
C599 C596 1.511 . S
C599 H613 0.961 . S
C599 H614 0.961 . S
C599 H615 0.961 . S
C600 C601 1.370 . S
C600 C602 1.363 . S
C600 H616 0.931 . S
C601 C600 1.370 . S
C601 C605 1.408 . S
C602 C600 1.363 . S
C602 C603 1.370 . S
C602 C606 1.524 . S
C603 C595 1.503 . S
C603 C602 1.370 . S
C603 C604 1.403 . S
C604 C603 1.403 . S
C604 C605 1.404 . S
C604 C607 1.539 . S
C605 C601 1.408 . S
C605 C604 1.404 . S
C605 H617 0.930 . S
C606 C602 1.524 . S
C606 H618 0.956 . S
C606 H619 0.961 . S
C606 H620 0.961 . S
C607 C604 1.539 . S
C607 H621 0.958 . S
C607 H622 0.961 . S
C607 H623 0.960 . S
H608 C592 0.931 . S
H609 C597 0.929 . S
H610 C598 0.960 . S
H611 C598 0.962 . S
H612 C598 0.960 . S
H613 C599 0.961 . S
H614 C599 0.961 . S
H615 C599 0.961 . S
H616 C600 0.931 . S
H617 C605 0.930 . S
H618 C606 0.956 . S
H619 C606 0.961 . S
H620 C606 0.961 . S
H621 C607 0.958 . S
H622 C607 0.961 . S
H623 C607 0.960 . S
C624 C625 1.391 . S
C624 C626 1.394 . S
C624 H640 0.931 . S
C625 C624 1.391 . S
C625 C629 1.376 . S
C626 C624 1.394 . S
C626 C627 1.369 . S
C626 C630 1.531 . S
C627 C626 1.369 . S
C627 C628 1.410 . S
C627 C635 1.503 . S
C628 C627 1.410 . S
C628 C629 1.392 . S
C628 C631 1.511 . S
C629 C625 1.376 . S
C629 C628 1.392 . S
C629 H641 0.929 . S
C630 C626 1.531 . S
C630 H642 0.960 . S
C630 H643 0.962 . S
C630 H644 0.960 . S
C631 C628 1.511 . S
C631 H645 0.961 . S
C631 H646 0.961 . S
C631 H647 0.961 . S
C632 C633 1.370 . S
C632 C634 1.363 . S
C632 H648 0.931 . S
C633 C632 1.370 . S
C633 C637 1.408 . S
C634 C632 1.363 . S
C634 C635 1.370 . S
C634 C638 1.524 . S
C635 C627 1.503 . S
C635 C634 1.370 . S
C635 C636 1.403 . S
C636 C635 1.403 . S
C636 C637 1.404 . S
C636 C639 1.539 . S
C637 C633 1.408 . S
C637 C636 1.404 . S
C637 H649 0.930 1_565 S
C638 C634 1.524 . S
C638 H650 0.956 . S
C638 H651 0.961 . S
C638 H652 0.961 . S
C639 C636 1.539 . S
C639 H653 0.958 . S
C639 H654 0.961 . S
C639 H655 0.960 . S
H640 C624 0.931 . S
H641 C629 0.929 . S
H642 C630 0.960 . S
H643 C630 0.962 . S
H644 C630 0.960 . S
H645 C631 0.961 . S
H646 C631 0.961 . S
H647 C631 0.961 . S
H648 C632 0.931 . S
H649 C637 0.930 1_545 S
H650 C638 0.956 . S
H651 C638 0.961 . S
H652 C638 0.961 . S
H653 C639 0.958 . S
H654 C639 0.961 . S
H655 C639 0.960 . S
C656 C657 1.391 . S
C656 C658 1.394 . S
C656 H672 0.931 . S
C657 C656 1.391 . S
C657 C661 1.376 . S
C658 C656 1.394 . S
C658 C659 1.369 . S
C658 C662 1.531 . S
C659 C658 1.369 . S
C659 C660 1.410 . S
C659 C667 1.503 . S
C660 C659 1.410 . S
C660 C661 1.392 . S
C660 C663 1.511 . S
C661 C657 1.376 . S
C661 C660 1.392 . S
C661 H673 0.929 . S
C662 C658 1.531 . S
C662 H674 0.960 . S
C662 H675 0.962 . S
C662 H676 0.960 . S
C663 C660 1.511 . S
C663 H677 0.961 . S
C663 H678 0.961 . S
C663 H679 0.961 . S
C664 C665 1.370 . S
C664 C666 1.363 . S
C664 H680 0.931 . S
C665 C664 1.370 . S
C665 C669 1.408 . S
C666 C664 1.363 . S
C666 C667 1.370 . S
C666 C670 1.524 . S
C667 C659 1.503 . S
C667 C666 1.370 . S
C667 C668 1.403 . S
C668 C667 1.403 . S
C668 C669 1.404 . S
C668 C671 1.539 . S
C669 C665 1.408 . S
C669 C668 1.404 . S
C669 H681 0.930 . S
C670 C666 1.524 . S
C670 H682 0.956 . S
C670 H683 0.961 . S
C670 H684 0.961 . S
C671 C668 1.539 . S
C671 H685 0.958 . S
C671 H686 0.961 . S
C671 H687 0.960 . S
H672 C656 0.931 . S
H673 C661 0.929 . S
H674 C662 0.960 . S
H675 C662 0.962 . S
H676 C662 0.960 . S
H677 C663 0.961 . S
H678 C663 0.961 . S
H679 C663 0.961 . S
H680 C664 0.931 . S
H681 C669 0.930 . S
H682 C670 0.956 . S
H683 C670 0.961 . S
H684 C670 0.961 . S
H685 C671 0.958 . S
H686 C671 0.961 . S
H687 C671 0.960 . S
C688 C689 1.391 . S
C688 C690 1.394 . S
C688 H704 0.931 . S
C689 C688 1.391 . S
C689 C693 1.376 . S
C690 C688 1.394 . S
C690 C691 1.369 . S
C690 C694 1.531 . S
C691 C690 1.369 . S
C691 C692 1.410 . S
C691 C699 1.503 . S
C692 C691 1.410 . S
C692 C693 1.392 . S
C692 C695 1.511 . S
C693 C689 1.376 . S
C693 C692 1.392 . S
C693 H705 0.929 . S
C694 C690 1.531 . S
C694 H706 0.960 . S
C694 H707 0.962 . S
C694 H708 0.960 . S
C695 C692 1.511 . S
C695 H709 0.961 . S
C695 H710 0.961 . S
C695 H711 0.961 . S
C696 C697 1.370 . S
C696 C698 1.363 . S
C696 H712 0.931 . S
C697 C696 1.370 . S
C697 C701 1.408 . S
C698 C696 1.363 . S
C698 C699 1.370 . S
C698 C702 1.524 . S
C699 C691 1.503 . S
C699 C698 1.370 . S
C699 C700 1.403 . S
C700 C699 1.403 . S
C700 C701 1.404 . S
C700 C703 1.539 . S
C701 C697 1.408 . S
C701 C700 1.404 . S
C701 H713 0.930 . S
C702 C698 1.524 . S
C702 H714 0.956 . S
C702 H715 0.961 . S
C702 H716 0.961 . S
C703 C700 1.539 . S
C703 H717 0.958 . S
C703 H718 0.961 . S
C703 H719 0.960 . S
H704 C688 0.931 . S
H705 C693 0.929 . S
H706 C694 0.960 . S
H707 C694 0.962 . S
H708 C694 0.960 . S
H709 C695 0.961 . S
H710 C695 0.961 . S
H711 C695 0.961 . S
H712 C696 0.931 . S
H713 C701 0.930 . S
H714 C702 0.956 . S
H715 C702 0.961 . S
H716 C702 0.961 . S
H717 C703 0.958 . S
H718 C703 0.961 . S
H719 C703 0.960 . S
C720 C721 1.391 . S
C720 C722 1.394 . S
C720 H736 0.931 . S
C721 C720 1.391 . S
C721 C725 1.376 . S
C722 C720 1.394 . S
C722 C723 1.369 . S
C722 C726 1.531 . S
C723 C722 1.369 . S
C723 C724 1.410 . S
C723 C731 1.503 . S
C724 C723 1.410 . S
C724 C725 1.392 . S
C724 C727 1.511 . S
C725 C721 1.376 . S
C725 C724 1.392 . S
C725 H737 0.929 . S
C726 C722 1.531 . S
C726 H738 0.960 . S
C726 H739 0.962 . S
C726 H740 0.960 . S
C727 C724 1.511 . S
C727 H741 0.961 . S
C727 H742 0.961 . S
C727 H743 0.961 . S
C728 C729 1.370 . S
C728 C730 1.363 . S
C728 H744 0.931 . S
C729 C728 1.370 . S
C729 C733 1.408 . S
C730 C728 1.363 . S
C730 C731 1.370 . S
C730 C734 1.524 . S
C731 C723 1.503 . S
C731 C730 1.370 . S
C731 C732 1.403 . S
C732 C731 1.403 . S
C732 C733 1.404 . S
C732 C735 1.539 . S
C733 C729 1.408 . S
C733 C732 1.404 . S
C733 H745 0.930 1_545 S
C734 C730 1.524 . S
C734 H746 0.956 . S
C734 H747 0.961 . S
C734 H748 0.961 . S
C735 C732 1.539 . S
C735 H749 0.958 . S
C735 H750 0.961 . S
C735 H751 0.960 . S
H736 C720 0.931 . S
H737 C725 0.929 . S
H738 C726 0.960 . S
H739 C726 0.962 . S
H740 C726 0.960 . S
H741 C727 0.961 . S
H742 C727 0.961 . S
H743 C727 0.961 . S
H744 C728 0.931 . S
H745 C733 0.930 1_565 S
H746 C734 0.956 . S
H747 C734 0.961 . S
H748 C734 0.961 . S
H749 C735 0.958 . S
H750 C735 0.961 . S
H751 C735 0.960 . S
C752 C753 1.391 . S
C752 C754 1.394 . S
C752 H768 0.931 . S
C753 C752 1.391 . S
C753 C757 1.376 . S
C754 C752 1.394 . S
C754 C755 1.369 . S
C754 C758 1.531 . S
C755 C754 1.369 . S
C755 C756 1.410 . S
C755 C763 1.503 . S
C756 C755 1.410 . S
C756 C757 1.392 . S
C756 C759 1.511 1_556 S
C757 C753 1.376 . S
C757 C756 1.392 . S
C757 H769 0.929 . S
C758 C754 1.531 . S
C758 H770 0.960 . S
C758 H771 0.962 . S
C758 H772 0.960 . S
C759 C756 1.511 1_554 S
C759 H773 0.961 . S
C759 H774 0.961 . S
C759 H775 0.961 . S
C760 C761 1.370 1_556 S
C760 C762 1.363 . S
C760 H776 0.931 . S
C761 C760 1.370 1_554 S
C761 C765 1.408 . S
C762 C760 1.363 . S
C762 C763 1.370 . S
C762 C766 1.524 . S
C763 C755 1.503 . S
C763 C762 1.370 . S
C763 C764 1.403 1_556 S
C764 C763 1.403 1_554 S
C764 C765 1.404 . S
C764 C767 1.539 . S
C765 C761 1.408 . S
C765 C764 1.404 . S
C765 H777 0.930 . S
C766 C762 1.524 . S
C766 H778 0.956 . S
C766 H779 0.961 . S
C766 H780 0.961 . S
C767 C764 1.539 . S
C767 H781 0.958 . S
C767 H782 0.961 . S
C767 H783 0.960 . S
H768 C752 0.931 . S
H769 C757 0.929 . S
H770 C758 0.960 . S
H771 C758 0.962 . S
H772 C758 0.960 . S
H773 C759 0.961 . S
H774 C759 0.961 . S
H775 C759 0.961 . S
H776 C760 0.931 . S
H777 C765 0.930 . S
H778 C766 0.956 . S
H779 C766 0.961 . S
H780 C766 0.961 . S
H781 C767 0.958 . S
H782 C767 0.961 . S
H783 C767 0.960 . S
C784 C785 1.391 . S
C784 C786 1.394 . S
C784 H800 0.931 . S
C785 C784 1.391 . S
C785 C789 1.376 . S
C786 C784 1.394 . S
C786 C787 1.369 . S
C786 C790 1.531 . S
C787 C786 1.369 . S
C787 C788 1.410 . S
C787 C795 1.503 . S
C788 C787 1.410 . S
C788 C789 1.392 . S
C788 C791 1.511 . S
C789 C785 1.376 . S
C789 C788 1.392 . S
C789 H801 0.929 . S
C790 C786 1.531 . S
C790 H802 0.960 . S
C790 H803 0.962 . S
C790 H804 0.960 . S
C791 C788 1.511 . S
C791 H805 0.961 . S
C791 H806 0.961 . S
C791 H807 0.961 . S
C792 C793 1.370 . S
C792 C794 1.363 . S
C792 H808 0.931 . S
C793 C792 1.370 . S
C793 C797 1.408 . S
C794 C792 1.363 . S
C794 C795 1.370 . S
C794 C798 1.524 . S
C795 C787 1.503 . S
C795 C794 1.370 . S
C795 C796 1.403 . S
C796 C795 1.403 . S
C796 C797 1.404 . S
C796 C799 1.539 . S
C797 C793 1.408 . S
C797 C796 1.404 . S
C797 H809 0.930 . S
C798 C794 1.524 . S
C798 H810 0.956 . S
C798 H811 0.961 . S
C798 H812 0.961 . S
C799 C796 1.539 . S
C799 H813 0.958 . S
C799 H814 0.961 . S
C799 H815 0.960 . S
H800 C784 0.931 . S
H801 C789 0.929 . S
H802 C790 0.960 . S
H803 C790 0.962 . S
H804 C790 0.960 . S
H805 C791 0.961 . S
H806 C791 0.961 . S
H807 C791 0.961 . S
H808 C792 0.931 . S
H809 C797 0.930 . S
H810 C798 0.956 . S
H811 C798 0.961 . S
H812 C798 0.961 . S
H813 C799 0.958 . S
H814 C799 0.961 . S
H815 C799 0.960 . S
C816 C817 1.391 . S
C816 C818 1.394 . S
C816 H832 0.931 1_455 S
C817 C816 1.391 . S
C817 C821 1.376 . S
C818 C816 1.394 . S
C818 C819 1.369 . S
C818 C822 1.531 . S
C819 C818 1.369 . S
C819 C820 1.410 . S
C819 C827 1.503 . S
C820 C819 1.410 . S
C820 C821 1.392 . S
C820 C823 1.511 . S
C821 C817 1.376 . S
C821 C820 1.392 . S
C821 H833 0.929 . S
C822 C818 1.531 . S
C822 H834 0.960 . S
C822 H835 0.962 . S
C822 H836 0.960 . S
C823 C820 1.511 . S
C823 H837 0.961 . S
C823 H838 0.961 . S
C823 H839 0.961 . S
C824 C825 1.370 . S
C824 C826 1.363 . S
C824 H840 0.931 . S
C825 C824 1.370 . S
C825 C829 1.408 . S
C826 C824 1.363 . S
C826 C827 1.370 . S
C826 C830 1.524 . S
C827 C819 1.503 . S
C827 C826 1.370 . S
C827 C828 1.403 . S
C828 C827 1.403 . S
C828 C829 1.404 . S
C828 C831 1.539 . S
C829 C825 1.408 . S
C829 C828 1.404 . S
C829 H841 0.930 . S
C830 C826 1.524 . S
C830 H842 0.956 . S
C830 H843 0.961 . S
C830 H844 0.961 . S
C831 C828 1.539 . S
C831 H845 0.958 . S
C831 H846 0.961 . S
C831 H847 0.960 . S
H832 C816 0.931 1_655 S
H833 C821 0.929 . S
H834 C822 0.960 . S
H835 C822 0.962 . S
H836 C822 0.960 . S
H837 C823 0.961 . S
H838 C823 0.961 . S
H839 C823 0.961 . S
H840 C824 0.931 . S
H841 C829 0.930 . S
H842 C830 0.956 . S
H843 C830 0.961 . S
H844 C830 0.961 . S
H845 C831 0.958 . S
H846 C831 0.961 . S
H847 C831 0.960 . S
C848 C849 1.391 . S
C848 C850 1.394 . S
C848 H864 0.934 . S
C849 C848 1.391 . S
C849 C853 1.376 . S
C850 C848 1.394 . S
C850 C851 1.369 . S
C850 C854 1.531 . S
C851 C850 1.369 . S
C851 C852 1.410 . S
C851 C859 1.503 . S
C852 C851 1.410 . S
C852 C853 1.392 . S
C852 C855 1.511 . S
C853 C849 1.376 . S
C853 C852 1.392 . S
C853 H865 0.929 . S
C854 C850 1.531 . S
C854 H866 0.960 . S
C854 H867 0.962 . S
C854 H868 0.960 . S
C855 C852 1.511 . S
C855 H869 0.961 . S
C855 H870 0.961 . S
C855 H871 0.961 . S
C856 C857 1.370 . S
C856 C858 1.363 . S
C856 H872 0.931 . S
C857 C856 1.370 . S
C857 C861 1.408 . S
C858 C856 1.363 . S
C858 C859 1.370 . S
C858 C862 1.524 . S
C859 C851 1.503 . S
C859 C858 1.370 . S
C859 C860 1.403 . S
C860 C859 1.403 . S
C860 C861 1.404 . S
C860 C863 1.539 . S
C861 C857 1.408 . S
C861 C860 1.404 . S
C861 H873 0.930 . S
C862 C858 1.524 . S
C862 H874 0.956 . S
C862 H875 0.961 . S
C862 H876 0.961 . S
C863 C860 1.539 . S
C863 H877 0.958 . S
C863 H878 0.961 . S
C863 H879 0.960 . S
H864 C848 0.934 . S
H865 C853 0.929 . S
H866 C854 0.960 . S
H867 C854 0.962 . S
H868 C854 0.960 . S
H869 C855 0.961 . S
H870 C855 0.961 . S
H871 C855 0.961 . S
H872 C856 0.931 . S
H873 C861 0.930 . S
H874 C862 0.956 . S
H875 C862 0.961 . S
H876 C862 0.961 . S
H877 C863 0.958 . S
H878 C863 0.961 . S
H879 C863 0.960 . S
C880 C881 1.391 . S
C880 C882 1.394 . S
C880 H896 0.931 . S
C881 C880 1.391 . S
C881 C885 1.376 . S
C882 C880 1.394 . S
C882 C883 1.369 . S
C882 C886 1.531 . S
C883 C882 1.369 . S
C883 C884 1.410 . S
C883 C891 1.503 . S
C884 C883 1.410 . S
C884 C885 1.392 . S
C884 C887 1.511 . S
C885 C881 1.376 . S
C885 C884 1.392 . S
C885 H897 0.929 . S
C886 C882 1.531 . S
C886 H898 0.960 . S
C886 H899 0.962 . S
C886 H900 0.960 . S
C887 C884 1.511 . S
C887 H901 0.961 . S
C887 H902 0.961 . S
C887 H903 0.961 . S
C888 C889 1.370 . S
C888 C890 1.363 . S
C888 H904 0.931 . S
C889 C888 1.370 . S
C889 C893 1.408 . S
C890 C888 1.363 . S
C890 C891 1.370 . S
C890 C894 1.524 . S
C891 C883 1.503 . S
C891 C890 1.370 . S
C891 C892 1.403 . S
C892 C891 1.403 . S
C892 C893 1.404 . S
C892 C895 1.539 . S
C893 C889 1.408 . S
C893 C892 1.404 . S
C893 H905 0.930 . S
C894 C890 1.524 . S
C894 H906 0.956 . S
C894 H907 0.961 . S
C894 H908 0.961 . S
C895 C892 1.539 . S
C895 H909 0.958 . S
C895 H910 0.961 . S
C895 H911 0.960 . S
H896 C880 0.931 . S
H897 C885 0.929 . S
H898 C886 0.960 . S
H899 C886 0.962 . S
H900 C886 0.960 . S
H901 C887 0.961 . S
H902 C887 0.961 . S
H903 C887 0.961 . S
H904 C888 0.931 . S
H905 C893 0.930 . S
H906 C894 0.956 . S
H907 C894 0.961 . S
H908 C894 0.961 . S
H909 C895 0.958 . S
H910 C895 0.961 . S
H911 C895 0.960 . S
C912 C913 1.391 . S
C912 C914 1.394 . S
C912 H928 0.931 . S
C913 C912 1.391 . S
C913 C917 1.376 . S
C914 C912 1.394 . S
C914 C915 1.369 . S
C914 C918 1.531 . S
C915 C914 1.369 . S
C915 C916 1.446 . S
C915 C923 1.503 . S
C916 C915 1.446 . S
C916 C917 1.412 . S
C916 C919 1.457 1_554 S
C917 C913 1.376 . S
C917 C916 1.412 . S
C917 H929 0.905 1_554 S
C918 C914 1.531 . S
C918 H930 0.960 . S
C918 H931 0.962 . S
C918 H932 0.960 . S
C919 C916 1.457 1_556 S
C919 H933 0.961 . S
C919 H934 0.961 . S
C919 H935 0.961 . S
C920 C921 1.370 . S
C920 C922 1.348 1_556 S
C920 H936 0.931 . S
C921 C920 1.370 . S
C921 C925 1.408 . S
C922 C920 1.348 1_554 S
C922 C923 1.385 . S
C922 C926 1.527 . S
C923 C915 1.503 . S
C923 C922 1.385 . S
C923 C924 1.403 . S
C924 C923 1.403 . S
C924 C925 1.404 1_554 S
C924 C927 1.539 . S
C925 C921 1.408 . S
C925 C924 1.404 1_556 S
C925 H937 0.930 . S
C926 C922 1.527 . S
C926 H938 0.956 . S
C926 H939 0.961 1_554 S
C926 H940 0.961 1_554 S
C927 C924 1.539 . S
C927 H941 0.958 . S
C927 H942 0.961 . S
C927 H943 0.960 . S
H928 C912 0.931 . S
H929 C917 0.905 1_556 S
H930 C918 0.960 . S
H931 C918 0.962 . S
H932 C918 0.960 . S
H933 C919 0.961 . S
H934 C919 0.961 . S
H935 C919 0.961 . S
H936 C920 0.931 . S
H937 C925 0.930 . S
H938 C926 0.956 . S
H939 C926 0.961 1_556 S
H940 C926 0.961 1_556 S
H941 C927 0.958 . S
H942 C927 0.961 . S
H943 C927 0.960 . S
C944 C945 1.391 . S
C944 C946 1.394 . S
C944 H960 0.931 . S
C945 C944 1.391 . S
C945 C949 1.376 . S
C946 C944 1.394 . S
C946 C947 1.369 . S
C946 C950 1.531 . S
C947 C946 1.369 . S
C947 C948 1.410 . S
C947 C955 1.503 . S
C948 C947 1.410 . S
C948 C949 1.392 . S
C948 C951 1.511 . S
C949 C945 1.376 . S
C949 C948 1.392 . S
C949 H961 0.929 1_565 S
C950 C946 1.531 . S
C950 H962 0.960 . S
C950 H963 0.962 . S
C950 H964 0.960 . S
C951 C948 1.511 . S
C951 H965 0.961 . S
C951 H966 0.961 . S
C951 H967 0.961 . S
C952 C953 1.370 . S
C952 C954 1.363 . S
C952 H968 0.931 . S
C953 C952 1.370 . S
C953 C957 1.408 . S
C954 C952 1.363 . S
C954 C955 1.370 . S
C954 C958 1.524 . S
C955 C947 1.503 . S
C955 C954 1.370 . S
C955 C956 1.403 . S
C956 C955 1.403 . S
C956 C957 1.404 . S
C956 C959 1.539 . S
C957 C953 1.408 . S
C957 C956 1.404 . S
C957 H969 0.930 . S
C958 C954 1.524 . S
C958 H970 0.956 . S
C958 H971 0.961 . S
C958 H972 0.961 . S
C959 C956 1.539 . S
C959 H973 0.958 . S
C959 H974 0.961 . S
C959 H975 0.960 . S
H960 C944 0.931 . S
H961 C949 0.929 1_545 S
H962 C950 0.960 . S
H963 C950 0.962 . S
H964 C950 0.960 . S
H965 C951 0.961 . S
H966 C951 0.961 . S
H967 C951 0.961 . S
H968 C952 0.931 . S
H969 C957 0.930 . S
H970 C958 0.956 . S
H971 C958 0.961 . S
H972 C958 0.961 . S
H973 C959 0.958 . S
H974 C959 0.961 . S
H975 C959 0.960 . S
C976 C977 1.391 . S
C976 C978 1.394 . S
C976 H992 0.931 . S
C977 C976 1.391 . S
C977 C981 1.376 . S
C978 C976 1.394 . S
C978 C979 1.369 . S
C978 C982 1.531 . S
C979 C978 1.369 . S
C979 C980 1.410 . S
C979 C987 1.503 . S
C980 C979 1.410 . S
C980 C981 1.392 . S
C980 C983 1.511 . S
C981 C977 1.376 . S
C981 C980 1.392 . S
C981 H993 0.929 . S
C982 C978 1.531 . S
C982 H994 0.960 . S
C982 H995 0.962 . S
C982 H996 0.960 . S
C983 C980 1.511 . S
C983 H997 0.961 . S
C983 H998 0.961 . S
C983 H999 0.961 . S
C984 C985 1.370 . S
C984 C986 1.363 . S
C984 H1000 0.931 . S
C985 C984 1.370 . S
C985 C989 1.408 . S
C986 C984 1.363 . S
C986 C987 1.370 . S
C986 C990 1.524 . S
C987 C979 1.503 . S
C987 C986 1.370 . S
C987 C988 1.403 . S
C988 C987 1.403 . S
C988 C989 1.404 . S
C988 C991 1.539 . S
C989 C985 1.408 . S
C989 C988 1.404 . S
C989 H1001 0.930 . S
C990 C986 1.524 . S
C990 H1002 0.956 . S
C990 H1003 0.961 . S
C990 H1004 0.961 . S
C991 C988 1.539 . S
C991 H1005 0.958 . S
C991 H1006 0.961 . S
C991 H1007 0.960 . S
H992 C976 0.931 . S
H993 C981 0.929 . S
H994 C982 0.960 . S
H995 C982 0.962 . S
H996 C982 0.960 . S
H997 C983 0.961 . S
H998 C983 0.961 . S
H999 C983 0.961 . S
H1000 C984 0.931 . S
H1001 C989 0.930 . S
H1002 C990 0.956 . S
H1003 C990 0.961 . S
H1004 C990 0.961 . S
H1005 C991 0.958 . S
H1006 C991 0.961 . S
H1007 C991 0.960 . S
C1008 C1009 1.391 . S
C1008 C1010 1.394 . S
C1008 H1024 0.931 . S
C1009 C1008 1.391 . S
C1009 C1013 1.376 . S
C1010 C1008 1.394 . S
C1010 C1011 1.369 . S
C1010 C1014 1.531 . S
C1011 C1010 1.369 . S
C1011 C1012 1.410 . S
C1011 C1019 1.503 . S
C1012 C1011 1.410 . S
C1012 C1013 1.392 . S
C1012 C1015 1.511 . S
C1013 C1009 1.376 . S
C1013 C1012 1.392 . S
C1013 H1025 0.929 . S
C1014 C1010 1.531 . S
C1014 H1026 0.960 . S
C1014 H1027 0.962 . S
C1014 H1028 0.960 . S
C1015 C1012 1.511 . S
C1015 H1029 0.961 . S
C1015 H1030 0.961 . S
C1015 H1031 0.961 . S
C1016 C1017 1.370 . S
C1016 C1018 1.363 . S
C1016 H1032 0.931 . S
C1017 C1016 1.370 . S
C1017 C1021 1.408 . S
C1018 C1016 1.363 . S
C1018 C1019 1.370 . S
C1018 C1022 1.524 . S
C1019 C1011 1.503 . S
C1019 C1018 1.370 . S
C1019 C1020 1.403 . S
C1020 C1019 1.403 . S
C1020 C1021 1.404 . S
C1020 C1023 1.539 . S
C1021 C1017 1.408 . S
C1021 C1020 1.404 . S
C1021 H1033 0.930 . S
C1022 C1018 1.524 . S
C1022 H1034 0.956 . S
C1022 H1035 0.961 . S
C1022 H1036 0.961 . S
C1023 C1020 1.539 . S
C1023 H1037 0.958 . S
C1023 H1038 0.961 . S
C1023 H1039 0.960 . S
H1024 C1008 0.931 . S
H1025 C1013 0.929 . S
H1026 C1014 0.960 . S
H1027 C1014 0.962 . S
H1028 C1014 0.960 . S
H1029 C1015 0.961 . S
H1030 C1015 0.961 . S
H1031 C1015 0.961 . S
H1032 C1016 0.931 . S
H1033 C1021 0.930 . S
H1034 C1022 0.956 . S
H1035 C1022 0.961 . S
H1036 C1022 0.961 . S
H1037 C1023 0.958 . S
H1038 C1023 0.961 . S
H1039 C1023 0.960 . S
C1040 C1041 1.391 . S
C1040 C1042 1.394 . S
C1040 H1056 0.931 . S
C1041 C1040 1.391 . S
C1041 C1045 1.376 . S
C1042 C1040 1.394 . S
C1042 C1043 1.369 . S
C1042 C1046 1.531 . S
C1043 C1042 1.369 . S
C1043 C1044 1.410 . S
C1043 C1051 1.503 . S
C1044 C1043 1.410 . S
C1044 C1045 1.392 . S
C1044 C1047 1.511 . S
C1045 C1041 1.376 . S
C1045 C1044 1.392 . S
C1045 H1057 0.929 . S
C1046 C1042 1.531 . S
C1046 H1058 0.960 . S
C1046 H1059 0.962 . S
C1046 H1060 0.960 . S
C1047 C1044 1.511 . S
C1047 H1061 0.961 . S
C1047 H1062 0.961 . S
C1047 H1063 0.961 . S
C1048 C1049 1.370 . S
C1048 C1050 1.363 . S
C1048 H1064 0.931 . S
C1049 C1048 1.370 . S
C1049 C1053 1.408 . S
C1050 C1048 1.363 . S
C1050 C1051 1.370 . S
C1050 C1054 1.524 . S
C1051 C1043 1.503 . S
C1051 C1050 1.370 . S
C1051 C1052 1.403 . S
C1052 C1051 1.403 . S
C1052 C1053 1.404 . S
C1052 C1055 1.539 . S
C1053 C1049 1.408 . S
C1053 C1052 1.404 . S
C1053 H1065 0.930 . S
C1054 C1050 1.524 . S
C1054 H1066 0.956 . S
C1054 H1067 0.961 . S
C1054 H1068 0.961 . S
C1055 C1052 1.539 . S
C1055 H1069 0.958 . S
C1055 H1070 0.961 . S
C1055 H1071 0.960 . S
H1056 C1040 0.931 . S
H1057 C1045 0.929 . S
H1058 C1046 0.960 . S
H1059 C1046 0.962 . S
H1060 C1046 0.960 . S
H1061 C1047 0.961 . S
H1062 C1047 0.961 . S
H1063 C1047 0.961 . S
H1064 C1048 0.931 . S
H1065 C1053 0.930 . S
H1066 C1054 0.956 . S
H1067 C1054 0.961 . S
H1068 C1054 0.961 . S
H1069 C1055 0.958 . S
H1070 C1055 0.961 . S
H1071 C1055 0.960 . S
C1072 C1073 1.391 . S
C1072 C1074 1.394 . S
C1072 H1088 0.931 . S
C1073 C1072 1.391 . S
C1073 C1077 1.376 . S
C1074 C1072 1.394 . S
C1074 C1075 1.369 . S
C1074 C1078 1.531 . S
C1075 C1074 1.369 . S
C1075 C1076 1.410 . S
C1075 C1083 1.503 . S
C1076 C1075 1.410 . S
C1076 C1077 1.392 . S
C1076 C1079 1.511 . S
C1077 C1073 1.376 . S
C1077 C1076 1.392 . S
C1077 H1089 0.929 . S
C1078 C1074 1.531 . S
C1078 H1090 0.960 . S
C1078 H1091 0.962 . S
C1078 H1092 0.960 . S
C1079 C1076 1.511 . S
C1079 H1093 0.961 . S
C1079 H1094 0.961 . S
C1079 H1095 0.961 . S
C1080 C1081 1.370 . S
C1080 C1082 1.363 . S
C1080 H1096 0.931 . S
C1081 C1080 1.370 . S
C1081 C1085 1.408 . S
C1082 C1080 1.363 . S
C1082 C1083 1.370 . S
C1082 C1086 1.524 . S
C1083 C1075 1.503 . S
C1083 C1082 1.370 . S
C1083 C1084 1.403 . S
C1084 C1083 1.403 . S
C1084 C1085 1.404 . S
C1084 C1087 1.539 . S
C1085 C1081 1.408 . S
C1085 C1084 1.404 . S
C1085 H1097 0.930 . S
C1086 C1082 1.524 . S
C1086 H1098 0.956 . S
C1086 H1099 0.961 . S
C1086 H1100 0.961 . S
C1087 C1084 1.539 . S
C1087 H1101 0.958 . S
C1087 H1102 0.961 . S
C1087 H1103 0.960 . S
H1088 C1072 0.931 . S
H1089 C1077 0.929 . S
H1090 C1078 0.960 . S
H1091 C1078 0.962 . S
H1092 C1078 0.960 . S
H1093 C1079 0.961 . S
H1094 C1079 0.961 . S
H1095 C1079 0.961 . S
H1096 C1080 0.931 . S
H1097 C1085 0.930 . S
H1098 C1086 0.956 . S
H1099 C1086 0.961 . S
H1100 C1086 0.961 . S
H1101 C1087 0.958 . S
H1102 C1087 0.961 . S
H1103 C1087 0.960 . S
C1104 C1105 1.391 . S
C1104 C1106 1.394 . S
C1104 H1120 0.931 . S
C1105 C1104 1.391 . S
C1105 C1109 1.376 . S
C1106 C1104 1.394 . S
C1106 C1107 1.369 . S
C1106 C1110 1.531 . S
C1107 C1106 1.369 . S
C1107 C1108 1.410 . S
C1107 C1115 1.503 . S
C1108 C1107 1.410 . S
C1108 C1109 1.392 . S
C1108 C1111 1.511 . S
C1109 C1105 1.376 . S
C1109 C1108 1.392 . S
C1109 H1121 0.929 . S
C1110 C1106 1.531 . S
C1110 H1122 0.960 . S
C1110 H1123 0.962 . S
C1110 H1124 0.960 . S
C1111 C1108 1.511 . S
C1111 H1125 0.961 . S
C1111 H1126 0.961 . S
C1111 H1127 0.961 . S
C1112 C1113 1.370 . S
C1112 C1114 1.363 . S
C1112 H1128 0.931 . S
C1113 C1112 1.370 . S
C1113 C1117 1.408 . S
C1114 C1112 1.363 . S
C1114 C1115 1.370 . S
C1114 C1118 1.524 . S
C1115 C1107 1.503 . S
C1115 C1114 1.370 . S
C1115 C1116 1.403 . S
C1116 C1115 1.403 . S
C1116 C1117 1.404 . S
C1116 C1119 1.539 . S
C1117 C1113 1.408 . S
C1117 C1116 1.404 . S
C1117 H1129 0.930 . S
C1118 C1114 1.524 . S
C1118 H1130 0.956 . S
C1118 H1131 0.961 . S
C1118 H1132 0.961 . S
C1119 C1116 1.539 . S
C1119 H1133 0.958 . S
C1119 H1134 0.961 . S
C1119 H1135 0.960 . S
H1120 C1104 0.931 . S
H1121 C1109 0.929 . S
H1122 C1110 0.960 . S
H1123 C1110 0.962 . S
H1124 C1110 0.960 . S
H1125 C1111 0.961 . S
H1126 C1111 0.961 . S
H1127 C1111 0.961 . S
H1128 C1112 0.931 . S
H1129 C1117 0.930 . S
H1130 C1118 0.956 . S
H1131 C1118 0.961 . S
H1132 C1118 0.961 . S
H1133 C1119 0.958 . S
H1134 C1119 0.961 . S
H1135 C1119 0.960 . S
C1136 C1137 1.391 . S
C1136 C1138 1.394 . S
C1136 H1152 0.931 . S
C1137 C1136 1.391 . S
C1137 C1141 1.376 . S
C1138 C1136 1.394 . S
C1138 C1139 1.369 . S
C1138 C1142 1.531 . S
C1139 C1138 1.369 . S
C1139 C1140 1.410 . S
C1139 C1147 1.503 . S
C1140 C1139 1.410 . S
C1140 C1141 1.392 . S
C1140 C1143 1.511 . S
C1141 C1137 1.376 . S
C1141 C1140 1.392 . S
C1141 H1153 0.929 . S
C1142 C1138 1.531 . S
C1142 H1154 0.960 . S
C1142 H1155 0.962 . S
C1142 H1156 0.960 . S
C1143 C1140 1.511 . S
C1143 H1157 0.961 . S
C1143 H1158 0.961 . S
C1143 H1159 0.961 . S
C1144 C1145 1.370 . S
C1144 C1146 1.363 . S
C1144 H1160 0.931 . S
C1145 C1144 1.370 . S
C1145 C1149 1.408 . S
C1146 C1144 1.363 . S
C1146 C1147 1.370 . S
C1146 C1150 1.524 . S
C1147 C1139 1.503 . S
C1147 C1146 1.370 . S
C1147 C1148 1.403 . S
C1148 C1147 1.403 . S
C1148 C1149 1.404 . S
C1148 C1151 1.539 . S
C1149 C1145 1.408 . S
C1149 C1148 1.404 . S
C1149 H1161 0.930 . S
C1150 C1146 1.524 . S
C1150 H1162 0.956 . S
C1150 H1163 0.961 . S
C1150 H1164 0.961 . S
C1151 C1148 1.539 . S
C1151 H1165 0.958 . S
C1151 H1166 0.961 . S
C1151 H1167 0.960 . S
H1152 C1136 0.931 . S
H1153 C1141 0.929 . S
H1154 C1142 0.960 . S
H1155 C1142 0.962 . S
H1156 C1142 0.960 . S
H1157 C1143 0.961 . S
H1158 C1143 0.961 . S
H1159 C1143 0.961 . S
H1160 C1144 0.931 . S
H1161 C1149 0.930 . S
H1162 C1150 0.956 . S
H1163 C1150 0.961 . S
H1164 C1150 0.961 . S
H1165 C1151 0.958 . S
H1166 C1151 0.961 . S
H1167 C1151 0.960 . S
C1168 C1169 1.391 . S
C1168 C1170 1.394 . S
C1168 H1184 0.931 . S
C1169 C1168 1.391 . S
C1169 C1173 1.376 . S
C1170 C1168 1.394 . S
C1170 C1171 1.369 . S
C1170 C1174 1.531 . S
C1171 C1170 1.369 . S
C1171 C1172 1.410 . S
C1171 C1179 1.503 . S
C1172 C1171 1.410 . S
C1172 C1173 1.392 . S
C1172 C1175 1.511 . S
C1173 C1169 1.376 . S
C1173 C1172 1.392 . S
C1173 H1185 0.929 . S
C1174 C1170 1.531 . S
C1174 H1186 0.960 . S
C1174 H1187 0.962 . S
C1174 H1188 0.960 . S
C1175 C1172 1.511 . S
C1175 H1189 0.961 . S
C1175 H1190 0.961 . S
C1175 H1191 0.961 . S
C1176 C1177 1.370 . S
C1176 C1178 1.363 . S
C1176 H1192 0.931 . S
C1177 C1176 1.370 . S
C1177 C1181 1.408 . S
C1178 C1176 1.363 . S
C1178 C1179 1.370 . S
C1178 C1182 1.524 . S
C1179 C1171 1.503 . S
C1179 C1178 1.370 . S
C1179 C1180 1.403 . S
C1180 C1179 1.403 . S
C1180 C1181 1.404 . S
C1180 C1183 1.539 . S
C1181 C1177 1.408 . S
C1181 C1180 1.404 . S
C1181 H1193 0.930 . S
C1182 C1178 1.524 . S
C1182 H1194 0.956 . S
C1182 H1195 0.961 . S
C1182 H1196 0.961 . S
C1183 C1180 1.539 . S
C1183 H1197 0.958 . S
C1183 H1198 0.961 . S
C1183 H1199 0.960 . S
H1184 C1168 0.931 . S
H1185 C1173 0.929 . S
H1186 C1174 0.960 . S
H1187 C1174 0.962 . S
H1188 C1174 0.960 . S
H1189 C1175 0.961 . S
H1190 C1175 0.961 . S
H1191 C1175 0.961 . S
H1192 C1176 0.931 . S
H1193 C1181 0.930 . S
H1194 C1182 0.956 . S
H1195 C1182 0.961 . S
H1196 C1182 0.961 . S
H1197 C1183 0.958 . S
H1198 C1183 0.961 . S
H1199 C1183 0.960 . S
C1200 C1201 1.391 . S
C1200 C1202 1.394 . S
C1200 H1216 0.931 . S
C1201 C1200 1.391 . S
C1201 C1205 1.376 . S
C1202 C1200 1.394 . S
C1202 C1203 1.369 . S
C1202 C1206 1.531 . S
C1203 C1202 1.369 . S
C1203 C1204 1.410 . S
C1203 C1211 1.503 . S
C1204 C1203 1.410 . S
C1204 C1205 1.392 . S
C1204 C1207 1.511 . S
C1205 C1201 1.376 . S
C1205 C1204 1.392 . S
C1205 H1217 0.929 . S
C1206 C1202 1.531 . S
C1206 H1218 0.960 . S
C1206 H1219 0.962 . S
C1206 H1220 0.960 . S
C1207 C1204 1.511 . S
C1207 H1221 0.961 . S
C1207 H1222 0.961 . S
C1207 H1223 0.961 . S
C1208 C1209 1.370 . S
C1208 C1210 1.363 . S
C1208 H1224 0.931 . S
C1209 C1208 1.370 . S
C1209 C1213 1.408 . S
C1210 C1208 1.363 . S
C1210 C1211 1.370 . S
C1210 C1214 1.524 . S
C1211 C1203 1.503 . S
C1211 C1210 1.370 . S
C1211 C1212 1.403 . S
C1212 C1211 1.403 . S
C1212 C1213 1.404 . S
C1212 C1215 1.539 . S
C1213 C1209 1.408 . S
C1213 C1212 1.404 . S
C1213 H1225 0.930 . S
C1214 C1210 1.524 . S
C1214 H1226 0.956 . S
C1214 H1227 0.961 . S
C1214 H1228 0.961 . S
C1215 C1212 1.539 . S
C1215 H1229 0.958 . S
C1215 H1230 0.961 . S
C1215 H1231 0.960 . S
H1216 C1200 0.931 . S
H1217 C1205 0.929 . S
H1218 C1206 0.960 . S
H1219 C1206 0.962 . S
H1220 C1206 0.960 . S
H1221 C1207 0.961 . S
H1222 C1207 0.961 . S
H1223 C1207 0.961 . S
H1224 C1208 0.931 . S
H1225 C1213 0.930 . S
H1226 C1214 0.956 . S
H1227 C1214 0.961 . S
H1228 C1214 0.961 . S
H1229 C1215 0.958 . S
H1230 C1215 0.961 . S
H1231 C1215 0.960 . S
C1232 C1233 1.391 . S
C1232 C1234 1.394 . S
C1232 H1248 0.931 . S
C1233 C1232 1.391 . S
C1233 C1237 1.376 . S
C1234 C1232 1.394 . S
C1234 C1235 1.369 . S
C1234 C1238 1.531 . S
C1235 C1234 1.369 . S
C1235 C1236 1.410 . S
C1235 C1243 1.503 . S
C1236 C1235 1.410 . S
C1236 C1237 1.392 . S
C1236 C1239 1.511 . S
C1237 C1233 1.376 . S
C1237 C1236 1.392 . S
C1237 H1249 0.929 . S
C1238 C1234 1.531 . S
C1238 H1250 0.960 . S
C1238 H1251 0.962 . S
C1238 H1252 0.960 . S
C1239 C1236 1.511 . S
C1239 H1253 0.961 . S
C1239 H1254 0.961 . S
C1239 H1255 0.961 . S
C1240 C1241 1.370 . S
C1240 C1242 1.363 . S
C1240 H1256 0.931 . S
C1241 C1240 1.370 . S
C1241 C1245 1.408 . S
C1242 C1240 1.363 . S
C1242 C1243 1.370 . S
C1242 C1246 1.524 . S
C1243 C1235 1.503 . S
C1243 C1242 1.370 . S
C1243 C1244 1.403 . S
C1244 C1243 1.403 . S
C1244 C1245 1.404 . S
C1244 C1247 1.539 . S
C1245 C1241 1.408 . S
C1245 C1244 1.404 . S
C1245 H1257 0.930 . S
C1246 C1242 1.524 . S
C1246 H1258 0.956 . S
C1246 H1259 0.961 . S
C1246 H1260 0.961 . S
C1247 C1244 1.539 . S
C1247 H1261 0.958 . S
C1247 H1262 0.961 . S
C1247 H1263 0.960 . S
H1248 C1232 0.931 . S
H1249 C1237 0.929 . S
H1250 C1238 0.960 . S
H1251 C1238 0.962 . S
H1252 C1238 0.960 . S
H1253 C1239 0.961 . S
H1254 C1239 0.961 . S
H1255 C1239 0.961 . S
H1256 C1240 0.931 . S
H1257 C1245 0.930 . S
H1258 C1246 0.956 . S
H1259 C1246 0.961 . S
H1260 C1246 0.961 . S
H1261 C1247 0.958 . S
H1262 C1247 0.961 . S
H1263 C1247 0.960 . S
C1264 C1265 1.391 . S
C1264 C1266 1.394 . S
C1264 H1280 0.931 . S
C1265 C1264 1.391 . S
C1265 C1269 1.376 . S
C1266 C1264 1.394 . S
C1266 C1267 1.369 . S
C1266 C1270 1.531 . S
C1267 C1266 1.369 . S
C1267 C1268 1.410 . S
C1267 C1275 1.503 . S
C1268 C1267 1.410 . S
C1268 C1269 1.392 . S
C1268 C1271 1.511 . S
C1269 C1265 1.376 . S
C1269 C1268 1.392 . S
C1269 H1281 0.929 . S
C1270 C1266 1.531 . S
C1270 H1282 0.960 . S
C1270 H1283 0.962 . S
C1270 H1284 0.960 . S
C1271 C1268 1.511 . S
C1271 H1285 0.961 . S
C1271 H1286 0.961 . S
C1271 H1287 0.961 . S
C1272 C1273 1.370 . S
C1272 C1274 1.363 . S
C1272 H1288 0.931 . S
C1273 C1272 1.370 . S
C1273 C1277 1.408 . S
C1274 C1272 1.363 . S
C1274 C1275 1.370 . S
C1274 C1278 1.524 . S
C1275 C1267 1.503 . S
C1275 C1274 1.370 . S
C1275 C1276 1.403 . S
C1276 C1275 1.403 . S
C1276 C1277 1.404 . S
C1276 C1279 1.539 . S
C1277 C1273 1.408 . S
C1277 C1276 1.404 . S
C1277 H1289 0.930 . S
C1278 C1274 1.524 . S
C1278 H1290 0.956 . S
C1278 H1291 0.961 . S
C1278 H1292 0.961 . S
C1279 C1276 1.539 . S
C1279 H1293 0.958 . S
C1279 H1294 0.961 . S
C1279 H1295 0.960 . S
H1280 C1264 0.931 . S
H1281 C1269 0.929 . S
H1282 C1270 0.960 . S
H1283 C1270 0.962 . S
H1284 C1270 0.960 . S
H1285 C1271 0.961 . S
H1286 C1271 0.961 . S
H1287 C1271 0.961 . S
H1288 C1272 0.931 . S
H1289 C1277 0.930 . S
H1290 C1278 0.956 . S
H1291 C1278 0.961 . S
H1292 C1278 0.961 . S
H1293 C1279 0.958 . S
H1294 C1279 0.961 . S
H1295 C1279 0.960 . S
C1296 C1297 1.391 . S
C1296 C1298 1.394 . S
C1296 H1312 0.931 . S
C1297 C1296 1.391 . S
C1297 C1301 1.376 . S
C1298 C1296 1.394 . S
C1298 C1299 1.369 . S
C1298 C1302 1.531 . S
C1299 C1298 1.369 . S
C1299 C1300 1.410 . S
C1299 C1307 1.503 . S
C1300 C1299 1.410 . S
C1300 C1301 1.392 . S
C1300 C1303 1.511 . S
C1301 C1297 1.376 . S
C1301 C1300 1.392 . S
C1301 H1313 0.929 . S
C1302 C1298 1.531 . S
C1302 H1314 0.960 . S
C1302 H1315 0.962 . S
C1302 H1316 0.960 . S
C1303 C1300 1.511 . S
C1303 H1317 0.961 . S
C1303 H1318 0.961 . S
C1303 H1319 0.961 . S
C1304 C1305 1.370 . S
C1304 C1306 1.363 . S
C1304 H1320 0.931 . S
C1305 C1304 1.370 . S
C1305 C1309 1.408 . S
C1306 C1304 1.363 . S
C1306 C1307 1.370 . S
C1306 C1310 1.524 . S
C1307 C1299 1.503 . S
C1307 C1306 1.370 . S
C1307 C1308 1.403 . S
C1308 C1307 1.403 . S
C1308 C1309 1.404 . S
C1308 C1311 1.539 . S
C1309 C1305 1.408 . S
C1309 C1308 1.404 . S
C1309 H1321 0.930 . S
C1310 C1306 1.524 . S
C1310 H1322 0.956 . S
C1310 H1323 0.961 . S
C1310 H1324 0.961 . S
C1311 C1308 1.539 . S
C1311 H1325 0.958 . S
C1311 H1326 0.961 . S
C1311 H1327 0.960 . S
H1312 C1296 0.931 . S
H1313 C1301 0.929 . S
H1314 C1302 0.960 . S
H1315 C1302 0.962 . S
H1316 C1302 0.960 . S
H1317 C1303 0.961 . S
H1318 C1303 0.961 . S
H1319 C1303 0.961 . S
H1320 C1304 0.931 . S
H1321 C1309 0.930 . S
H1322 C1310 0.956 . S
H1323 C1310 0.961 . S
H1324 C1310 0.961 . S
H1325 C1311 0.958 . S
H1326 C1311 0.961 . S
H1327 C1311 0.960 . S
C1328 C1329 1.391 . S
C1328 C1330 1.394 . S
C1328 H1344 0.931 . S
C1329 C1328 1.391 . S
C1329 C1333 1.376 . S
C1330 C1328 1.394 . S
C1330 C1331 1.369 . S
C1330 C1334 1.531 . S
C1331 C1330 1.369 . S
C1331 C1332 1.410 . S
C1331 C1339 1.503 . S
C1332 C1331 1.410 . S
C1332 C1333 1.392 . S
C1332 C1335 1.511 . S
C1333 C1329 1.376 . S
C1333 C1332 1.392 . S
C1333 H1345 0.929 . S
C1334 C1330 1.531 . S
C1334 H1346 0.960 . S
C1334 H1347 0.962 . S
C1334 H1348 0.960 . S
C1335 C1332 1.511 . S
C1335 H1349 0.961 . S
C1335 H1350 0.961 . S
C1335 H1351 0.961 . S
C1336 C1337 1.370 . S
C1336 C1338 1.363 . S
C1336 H1352 0.931 . S
C1337 C1336 1.370 . S
C1337 C1341 1.408 . S
C1338 C1336 1.363 . S
C1338 C1339 1.370 . S
C1338 C1342 1.524 . S
C1339 C1331 1.503 . S
C1339 C1338 1.370 . S
C1339 C1340 1.403 . S
C1340 C1339 1.403 . S
C1340 C1341 1.404 . S
C1340 C1343 1.539 . S
C1341 C1337 1.408 . S
C1341 C1340 1.404 . S
C1341 H1353 0.930 . S
C1342 C1338 1.524 . S
C1342 H1354 0.956 . S
C1342 H1355 0.961 . S
C1342 H1356 0.961 . S
C1343 C1340 1.539 . S
C1343 H1357 0.958 . S
C1343 H1358 0.961 . S
C1343 H1359 0.960 . S
H1344 C1328 0.931 . S
H1345 C1333 0.929 . S
H1346 C1334 0.960 . S
H1347 C1334 0.962 . S
H1348 C1334 0.960 . S
H1349 C1335 0.961 . S
H1350 C1335 0.961 . S
H1351 C1335 0.961 . S
H1352 C1336 0.931 . S
H1353 C1341 0.930 . S
H1354 C1342 0.956 . S
H1355 C1342 0.961 . S
H1356 C1342 0.961 . S
H1357 C1343 0.958 . S
H1358 C1343 0.961 . S
H1359 C1343 0.960 . S
C1360 C1361 1.391 . S
C1360 C1362 1.394 . S
C1360 H1376 0.931 . S
C1361 C1360 1.391 . S
C1361 C1365 1.376 . S
C1362 C1360 1.394 . S
C1362 C1363 1.369 . S
C1362 C1366 1.531 . S
C1363 C1362 1.369 . S
C1363 C1364 1.410 . S
C1363 C1371 1.503 . S
C1364 C1363 1.410 . S
C1364 C1365 1.392 . S
C1364 C1367 1.511 . S
C1365 C1361 1.376 . S
C1365 C1364 1.392 . S
C1365 H1377 0.929 . S
C1366 C1362 1.531 . S
C1366 H1378 0.960 . S
C1366 H1379 0.962 . S
C1366 H1380 0.960 . S
C1367 C1364 1.511 . S
C1367 H1381 0.961 . S
C1367 H1382 0.961 . S
C1367 H1383 0.961 . S
C1368 C1369 1.370 . S
C1368 C1370 1.363 . S
C1368 H1384 0.931 . S
C1369 C1368 1.370 . S
C1369 C1373 1.408 . S
C1370 C1368 1.363 . S
C1370 C1371 1.370 . S
C1370 C1374 1.524 . S
C1371 C1363 1.503 . S
C1371 C1370 1.370 . S
C1371 C1372 1.403 . S
C1372 C1371 1.403 . S
C1372 C1373 1.404 . S
C1372 C1375 1.539 . S
C1373 C1369 1.408 . S
C1373 C1372 1.404 . S
C1373 H1385 0.930 . S
C1374 C1370 1.524 . S
C1374 H1386 0.956 . S
C1374 H1387 0.961 . S
C1374 H1388 0.961 . S
C1375 C1372 1.539 . S
C1375 H1389 0.958 . S
C1375 H1390 0.961 . S
C1375 H1391 0.960 . S
H1376 C1360 0.931 . S
H1377 C1365 0.929 . S
H1378 C1366 0.960 . S
H1379 C1366 0.962 . S
H1380 C1366 0.960 . S
H1381 C1367 0.961 . S
H1382 C1367 0.961 . S
H1383 C1367 0.961 . S
H1384 C1368 0.931 . S
H1385 C1373 0.930 . S
H1386 C1374 0.956 . S
H1387 C1374 0.961 . S
H1388 C1374 0.961 . S
H1389 C1375 0.958 . S
H1390 C1375 0.961 . S
H1391 C1375 0.960 . S
C241 C116 1.771 . S
C249 C19 1.722 1_565 S
C273 C39 1.728 . S
C281 C16 1.764 . S
C305 C59 1.732 1_455 S
C313 C36 1.763 . S
C337 C56 1.758 . S
C345 C79 1.729 1_545 S
C369 C76 1.771 . S
C377 C99 1.714 . S
C401 C119 1.739 1_655 S
C409 C96 1.760 . S
C433 C156 1.736 . S
C441 C139 1.725 1_455 S
C465 C159 1.702 1_545 S
C473 C176 1.751 . S
C497 C196 1.735 . S
C505 C179 1.716 . S
C529 C216 1.738 . S
C537 C199 1.712 1_655 S
C561 C236 1.747 . S
C569 C219 1.730 1_565 S
C593 C136 1.772 . S
C601 C239 1.717 . S
C625 C229 1.332 . S
C633 C6 1.338 1_565 S
C657 C26 1.378 . S
C665 C129 1.376 . S
C689 C149 1.383 . S
C697 C46 1.365 1_455 S
C721 C169 1.338 . S
C729 C66 1.350 1_545 S
C753 C189 1.374 . S
C761 C86 1.347 . S
C785 C106 1.352 1_655 S
C793 C209 1.378 . S
C817 C126 1.309 1_455 S
C825 C29 1.361 . S
C849 C146 1.322 1_545 S
C857 C49 1.369 . S
C881 C69 1.382 . S
C889 C166 1.351 . S
C913 C89 1.392 . S
C921 C186 1.352 1_655 S
C945 C206 1.374 1_565 S
C953 C109 1.362 . S
C977 C226 1.369 . S
C985 C9 1.357 . S
C1009 C121 1.578 . S
C1017 C1 1.582 . S
C1041 C21 1.575 . S
C1049 C141 1.581 . S
C1073 C161 1.552 . S
C1081 C41 1.569 . S
C1105 C61 1.590 . S
C1113 C181 1.581 . S
C1137 C201 1.592 . S
C1145 C81 1.584 . S
C1169 C221 1.559 . S
C1177 C101 1.568 . S
C1201 C128 1.624 . S
C1209 C8 1.594 . S
C1233 C148 1.561 . S
C1241 C28 1.602 . S
C1265 C168 1.606 . S
C1273 C48 1.604 . S
C1297 C68 1.557 . S
C1305 C188 1.579 . S
C1329 C208 1.553 . S
C1337 C88 1.581 . S
C1361 C228 1.622 . S
C1369 C108 1.597 . S
