# Generated by pormake.
# Topology sod, (4)-cn, num edge types: 1
# Building blocks:
#     Node 0, Type 0, BuildingBlock: QUQFOY_clean_sbu_3, # of connection points: 4
#     Node 1, Type 0, BuildingBlock: QUQFOY_clean_sbu_3, # of connection points: 4
#     Node 2, Type 0, BuildingBlock: QUQFOY_clean_sbu_3, # of connection points: 4
#     Node 3, Type 0, BuildingBlock: QUQFOY_clean_sbu_3, # of connection points: 4
#     Node 4, Type 0, BuildingBlock: QUQFOY_clean_sbu_3, # of connection points: 4
#     Node 5, Type 0, BuildingBlock: QUQFOY_clean_sbu_3, # of connection points: 4
#     Node 6, Type 0, BuildingBlock: QUQFOY_clean_sbu_3, # of connection points: 4
#     Node 7, Type 0, BuildingBlock: QUQFOY_clean_sbu_3, # of connection points: 4
#     Node 8, Type 0, BuildingBlock: QUQFOY_clean_sbu_3, # of connection points: 4
#     Node 9, Type 0, BuildingBlock: QUQFOY_clean_sbu_3, # of connection points: 4
#     Node 10, Type 0, BuildingBlock: QUQFOY_clean_sbu_3, # of connection points: 4
#     Node 11, Type 0, BuildingBlock: QUQFOY_clean_sbu_3, # of connection points: 4
#     Edge 12, Type (0, 0), BuildingBlock: TEMPAE_clean_linker_10, # of connection points: 2
#     Edge 13, Type (0, 0), BuildingBlock: TEMPAE_clean_linker_10, # of connection points: 2
#     Edge 14, Type (0, 0), BuildingBlock: TEMPAE_clean_linker_10, # of connection points: 2
#     Edge 15, Type (0, 0), BuildingBlock: TEMPAE_clean_linker_10, # of connection points: 2
#     Edge 16, Type (0, 0), BuildingBlock: TEMPAE_clean_linker_10, # of connection points: 2
#     Edge 17, Type (0, 0), BuildingBlock: TEMPAE_clean_linker_10, # of connection points: 2
#     Edge 18, Type (0, 0), BuildingBlock: TEMPAE_clean_linker_10, # of connection points: 2
#     Edge 19, Type (0, 0), BuildingBlock: TEMPAE_clean_linker_10, # of connection points: 2
#     Edge 20, Type (0, 0), BuildingBlock: TEMPAE_clean_linker_10, # of connection points: 2
#     Edge 21, Type (0, 0), BuildingBlock: TEMPAE_clean_linker_10, # of connection points: 2
#     Edge 22, Type (0, 0), BuildingBlock: TEMPAE_clean_linker_10, # of connection points: 2
#     Edge 23, Type (0, 0), BuildingBlock: TEMPAE_clean_linker_10, # of connection points: 2
#     Edge 24, Type (0, 0), BuildingBlock: TEMPAE_clean_linker_10, # of connection points: 2
#     Edge 25, Type (0, 0), BuildingBlock: TEMPAE_clean_linker_10, # of connection points: 2
#     Edge 26, Type (0, 0), BuildingBlock: TEMPAE_clean_linker_10, # of connection points: 2
#     Edge 27, Type (0, 0), BuildingBlock: TEMPAE_clean_linker_10, # of connection points: 2
#     Edge 28, Type (0, 0), BuildingBlock: TEMPAE_clean_linker_10, # of connection points: 2
#     Edge 29, Type (0, 0), BuildingBlock: TEMPAE_clean_linker_10, # of connection points: 2
#     Edge 30, Type (0, 0), BuildingBlock: TEMPAE_clean_linker_10, # of connection points: 2
#     Edge 31, Type (0, 0), BuildingBlock: TEMPAE_clean_linker_10, # of connection points: 2
#     Edge 32, Type (0, 0), BuildingBlock: TEMPAE_clean_linker_10, # of connection points: 2
#     Edge 33, Type (0, 0), BuildingBlock: TEMPAE_clean_linker_10, # of connection points: 2
#     Edge 34, Type (0, 0), BuildingBlock: TEMPAE_clean_linker_10, # of connection points: 2
#     Edge 35, Type (0, 0), BuildingBlock: TEMPAE_clean_linker_10, # of connection points: 2
# Relax obj value: 0.139
# Max RMSD: 0.178
# Mean RMSD: 0.168
data_MOF--net-sod--node1-QUQFOY_clean_sbu_3--edge1-TEMPAE_clean_linker_10
_symmetry_space_group_name_H-M    P1
_symmetry_Int_Tables_number       1
_symmetry_cell_setting            triclinic
loop_
_symmetry_equiv_pos_as_xyz
'x, y, z'
_cell_length_a     44.682031
_cell_length_b     45.3418
_cell_length_c     44.940745
_cell_angle_alpha  92.84687
_cell_angle_beta   89.801522
_cell_angle_gamma 91.424862
loop_
_atom_site_label
_atom_site_type_symbol
_atom_site_fract_x
_atom_site_fract_y
_atom_site_fract_z
_atom_type_partial_charge
C0 C 0.96307 0.1949 0.52029 0.0
O1 O 0.97307 0.20064 0.54642 0.0
Cd2 Cd 0.01392 0.23279 0.55948 0.0
O3 O 0.97443 0.20737 0.4978 0.0
Cd4 Cd 0.01455 0.24614 0.48951 0.0
C5 C 0.06798 0.2011 0.51475 0.0
O6 O -0.00056 0.27446 0.53323 0.0
O7 O 0.03819 0.2928 0.51187 0.0
O8 O -0.01501 0.26787 0.45082 0.0
C9 C 0.01824 0.29554 0.53188 0.0
O10 O 0.05714 0.20557 0.54075 0.0
C11 C 0.00599 0.26826 0.43171 0.0
O12 O 0.05669 0.21303 0.4925 0.0
O13 O 0.03043 0.25685 0.43889 0.0
C14 C 0.68837 0.03572 0.44717 0.0
O15 O 0.69162 0.06179 0.45861 0.0
Cd16 Cd 0.72296 0.07547 0.50038 0.0
O17 O 0.70283 0.01431 0.45695 0.0
Cd18 Cd 0.74118 0.00758 0.49576 0.0
C19 C 0.69319 0.02942 0.55114 0.0
O20 O 0.76864 0.05272 0.48564 0.0
O21 O 0.78503 0.02959 0.5228 0.0
O22 O 0.76769 0.97018 0.46564 0.0
C23 C 0.78852 0.05047 0.50527 0.0
O24 O 0.69768 0.05605 0.54418 0.0
C25 C 0.76583 0.95073 0.48502 0.0
O26 O 0.70524 0.0083 0.53628 0.0
O27 O 0.75147 0.95737 0.50872 0.0
C28 C 0.90344 0.7803 0.47084 0.0
O29 O 0.91222 0.77501 0.44425 0.0
Cd30 Cd 0.9547 0.74707 0.42999 0.0
O31 O 0.91658 0.76934 0.49279 0.0
Cd32 Cd 0.95825 0.73416 0.4991 0.0
C33 C 0.00963 0.78282 0.47223 0.0
O34 O 0.94564 0.70273 0.45551 0.0
O35 O -0.01298 0.69267 0.47671 0.0
O36 O 0.93325 0.70683 0.53805 0.0
C37 C 0.96741 0.68562 0.45715 0.0
O38 O -0.00159 0.77748 0.44646 0.0
C39 C 0.95394 0.71156 0.55714 0.0
O40 O -0.00121 0.77044 0.49478 0.0
O41 O 0.97576 0.72812 0.54976 0.0
C42 C 0.28588 0.94923 0.4408 0.0
O43 O 0.28709 0.92511 0.45396 0.0
Cd44 Cd 0.25158 0.90804 0.49014 0.0
O45 O 0.26659 0.96848 0.44837 0.0
Cd46 Cd 0.22947 0.97308 0.48944 0.0
C47 C 0.27313 0.95278 0.54765 0.0
O48 O 0.2045 0.92625 0.47482 0.0
O49 O 0.18522 0.94974 0.5128 0.0
O50 O 0.20017 0.00976 0.46444 0.0
C51 C 0.18359 0.92814 0.4938 0.0
O52 O 0.2686 0.92587 0.53928 0.0
C53 C 0.20375 0.02984 0.48494 0.0
O54 O 0.26382 0.9734 0.53215 0.0
O55 O 0.21984 0.02375 0.5069 0.0
C56 C 0.53962 -0.00907 0.28362 0.0
O57 O 0.53577 0.96339 0.27784 0.0
Cd58 Cd 0.49925 0.9411 0.24485 0.0
O59 O 0.52408 0.00991 0.2709 0.0
Cd60 Cd 0.48455 0.00875 0.23173 0.0
C61 C 0.43662 0.97161 0.27655 0.0
O62 O 0.50779 0.96984 0.20283 0.0
O63 O 0.46478 -0.01919 0.18606 0.0
O64 O 0.5063 0.05226 0.20932 0.0
C65 C 0.48842 0.9661 0.18258 0.0
O66 O 0.45091 0.94823 0.26994 0.0
C67 C 0.48214 0.06644 0.20935 0.0
O68 O 0.44511 -0.00363 0.2669 0.0
O69 O 0.45937 0.05437 0.22112 0.0
C70 C 0.04124 0.50633 0.20007 0.0
O71 O 0.02584 0.52955 0.20165 0.0
Cd72 Cd -0.01176 0.54224 0.23772 0.0
O73 O 0.03585 0.48519 0.21721 0.0
Cd74 Cd -0.00449 0.47593 0.25439 0.0
C75 C 0.93621 0.49375 0.21087 0.0
O76 O 0.0065 0.52209 0.28194 0.0
O77 O 0.96889 0.49751 0.29875 0.0
O78 O 0.02556 0.44086 0.28047 0.0
C79 C -0.0129 0.51929 0.30216 0.0
O80 O 0.94143 0.52081 0.21823 0.0
C81 C 0.00586 0.42015 0.2791 0.0
O82 O 0.95381 0.47389 0.21867 0.0
O83 O -0.01798 0.42493 0.26504 0.0
C84 C 0.52616 0.00607 0.69774 0.0
O85 O 0.51064 0.0292 0.69889 0.0
Cd86 Cd 0.47515 0.04221 0.73684 0.0
O87 O 0.5214 -0.01438 0.71583 0.0
Cd88 Cd 0.48174 0.97768 0.75412 0.0
C89 C 0.42187 -0.00507 0.71169 0.0
O90 O 0.49771 0.02363 0.78021 0.0
O91 O 0.46053 0.00133 0.80038 0.0
O92 O 0.51247 0.93626 0.76894 0.0
C93 C 0.48029 0.02183 0.80224 0.0
O94 O 0.42695 0.02191 0.71946 0.0
C95 C 0.49033 0.92189 0.77932 0.0
O96 O 0.43987 0.9752 0.71886 0.0
O97 O 0.46472 0.93289 0.77683 0.0
C98 C 0.0395 0.49049 0.78915 0.0
O99 O 0.03137 0.46343 0.78672 0.0
Cd100 Cd -0.00067 0.44073 0.74932 0.0
O101 O 0.02906 0.50924 0.7719 0.0
Cd102 Cd -0.00993 0.50681 0.73246 0.0
C103 C 0.93689 0.47292 0.77511 0.0
O104 O 0.01353 0.46598 0.70588 0.0
O105 O 0.97183 0.4784 0.68696 0.0
O106 O 0.01156 0.54973 0.70838 0.0
C107 C -0.00486 0.46305 0.68461 0.0
O108 O 0.94889 0.44832 0.76841 0.0
C109 C -0.01264 0.56389 0.70871 0.0
O110 O 0.94872 0.49697 0.76682 0.0
O111 O 0.96488 0.552 0.72113 0.0
C112 C 0.19408 0.53926 0.94714 0.0
O113 O 0.19461 0.56373 0.96222 0.0
Cd114 Cd 0.23021 0.57799 0.00052 0.0
O115 O 0.21201 0.51887 0.95294 0.0
Cd116 Cd 0.25005 0.51222 -0.00827 0.0
C117 C 0.20548 0.53142 0.05145 0.0
O118 O 0.27635 0.55828 -0.01813 0.0
O119 O 0.29492 0.5337 0.01697 0.0
O120 O 0.27691 0.47522 0.96126 0.0
C121 C 0.29746 0.55514 1e-05 0.0
O122 O 0.21024 0.55846 0.04632 0.0
C123 C 0.27475 0.45548 -0.01968 0.0
O124 O 0.21562 0.51116 0.03394 0.0
O125 O 0.26017 0.46184 0.00393 0.0
C126 C 0.4121 0.2848 0.96916 0.0
O127 O 0.42175 0.2794 0.9429 0.0
Cd128 Cd 0.46423 0.25089 0.93058 0.0
O129 O 0.42425 0.27362 -0.00844 0.0
Cd130 Cd 0.46497 0.23771 -0.00058 0.0
C131 C 0.51803 0.28582 0.97483 0.0
O132 O 0.45298 0.20672 0.95561 0.0
O133 O 0.49348 0.19535 0.97752 0.0
O134 O 0.43744 0.21096 0.03721 0.0
C135 C 0.47417 0.18901 0.95745 0.0
O136 O 0.50758 0.28078 0.9487 0.0
C137 C 0.45733 0.21507 0.05721 0.0
O138 O 0.50635 0.27337 -0.00306 0.0
O139 O 0.48 0.23095 0.05081 0.0
C140 C 0.79101 0.45343 0.94289 0.0
O141 O 0.79258 0.4288 0.95506 0.0
Cd142 Cd 0.75896 0.41067 -0.00765 0.0
O143 O 0.77232 0.47267 0.95206 0.0
Cd144 Cd 0.73691 0.47642 -0.00533 0.0
C145 C 0.7833 0.45412 0.04993 0.0
O146 O 0.71159 0.42996 0.97975 0.0
O147 O 0.6933 0.45255 0.01877 0.0
O148 O 0.70741 0.51385 0.9712 0.0
C149 C 0.69133 0.43126 -0.00056 0.0
O150 O 0.77847 0.42744 0.04087 0.0
C151 C 0.71129 0.53344 -0.00787 0.0
O152 O 0.77315 0.47528 0.0357 0.0
O153 O 0.72756 0.52673 0.01373 0.0
C154 C 0.47302 0.69795 0.01631 0.0
O155 O 0.48165 0.70397 0.04287 0.0
Cd156 Cd 0.52011 0.73803 0.05761 0.0
O157 O 0.48513 0.71068 -0.00567 0.0
Cd158 Cd 0.52516 0.75028 -0.01161 0.0
C159 C 0.57774 0.70697 0.01755 0.0
O160 O 0.50337 0.778 0.0298 0.0
O161 O 0.54265 0.79882 0.0121 0.0
O162 O 0.4986 0.76134 0.94231 0.0
C163 C 0.52048 0.80048 0.02966 0.0
O164 O 0.56531 0.71183 0.04277 0.0
C165 C 0.52183 0.77179 0.92981 0.0
O166 O 0.5675 0.71809 -0.00563 0.0
O167 O 0.54632 0.77064 0.94382 0.0
C168 C -0.01766 0.30666 0.40246 0.0
C169 C 0.00347 0.28447 0.40411 0.0
C170 C -0.01705 0.32592 0.37898 0.0
C171 C 0.00473 0.32241 0.35618 0.0
C172 C 0.02472 0.29869 0.3566 0.0
C173 C 0.02414 0.28023 0.38083 0.0
C174 C 0.9615 0.35118 0.37963 0.0
C175 C 0.04758 0.29361 0.3322 0.0
C176 C -0.00938 0.36811 0.28929 0.0
C177 C 0.00894 0.39314 0.29586 0.0
C178 C -0.0096 0.34395 0.3077 0.0
C179 C 0.00826 0.3453 0.33371 0.0
C180 C 0.02771 0.37002 0.33973 0.0
C181 C 0.02809 0.39346 0.3205 0.0
C182 C 0.97012 0.31757 0.3 0.0
C183 C 0.04678 0.37256 0.36747 0.0
H184 H 0.96639 0.31012 0.42046 0.0
H185 H 0.04039 0.26295 0.38191 0.0
H186 H 0.97425 0.37246 0.3824 0.0
H187 H 0.94919 0.35139 0.35827 0.0
H188 H 0.94497 0.34994 0.39808 0.0
H189 H 0.05821 0.27181 0.33338 0.0
H190 H 0.03707 0.29493 0.30999 0.0
H191 H 0.06538 0.31109 0.33414 0.0
H192 H 0.97593 0.36769 0.27012 0.0
H193 H 0.04219 0.41282 0.32576 0.0
H194 H 0.9509 0.31734 0.31568 0.0
H195 H -0.01776 0.29674 0.3023 0.0
H196 H 0.96125 0.31795 0.27696 0.0
H197 H 0.03214 0.37352 0.38748 0.0
H198 H 0.06168 0.39257 0.36819 0.0
H199 H 0.0608 0.35284 0.36885 0.0
C200 C 0.64818 0.00523 0.42172 0.0
C201 C 0.66722 0.03021 0.42243 0.0
C202 C 0.62705 0.00035 0.3989 0.0
C203 C 0.62589 0.02035 0.37572 0.0
C204 C 0.64557 0.04531 0.37607 0.0
C205 C 0.66565 0.05026 0.39981 0.0
C206 C 0.6058 0.97397 0.39975 0.0
C207 C 0.64574 0.06648 0.35116 0.0
C208 C 0.59071 -0.01175 0.30437 0.0
C209 C 0.56236 0.00068 0.30568 0.0
C210 C 0.61211 -0.00446 0.32639 0.0
C211 C 0.60442 0.01475 0.35086 0.0
C212 C 0.57581 0.02757 0.35211 0.0
C213 C 0.55523 0.02077 0.3291 0.0
C214 C 0.64274 -0.01772 0.32373 0.0
C215 C 0.5665 0.0474 0.37833 0.0
H216 H 0.64928 -0.01006 0.43947 0.0
H217 H 0.6806 0.06949 0.40039 0.0
H218 H 0.58232 -0.01874 0.39863 0.0
H219 H 0.60961 0.95872 0.38012 0.0
H220 H 0.6085 0.96156 0.42024 0.0
H221 H 0.663 0.0844 0.35445 0.0
H222 H 0.65007 0.05432 0.32959 0.0
H223 H 0.62353 0.07663 0.34947 0.0
H224 H 0.59611 0.9728 0.28605 0.0
H225 H 0.5331 0.03005 0.33012 0.0
H226 H 0.64589 0.96679 0.34173 0.0
H227 H 0.66039 -0.00013 0.32639 0.0
H228 H 0.64603 0.97007 0.30196 0.0
H229 H 0.567 0.03498 0.39898 0.0
H230 H 0.54364 0.05597 0.37562 0.0
H231 H 0.58246 0.06641 0.38142 0.0
C232 C 0.96518 0.53769 0.35087 0.0
C233 C -0.01543 0.54194 0.32679 0.0
C234 C 0.96259 0.55952 0.37398 0.0
C235 C -0.02049 0.58627 0.37268 0.0
C236 C -0.00065 0.59048 0.34858 0.0
C237 C 0.00175 0.56822 0.32604 0.0
C238 C 0.94147 0.55419 0.39955 0.0
C239 C 0.01753 0.61882 0.3462 0.0
C240 C 0.95102 0.65612 0.4116 0.0
C241 C 0.97021 0.65965 0.43621 0.0
C242 C 0.95345 0.63199 0.39111 0.0
C243 C 0.97538 0.61067 0.39551 0.0
C244 C -0.00559 0.61373 0.42067 0.0
C245 C -0.00827 0.63834 0.44067 0.0
C246 C 0.933 0.62971 0.36434 0.0
C247 C 0.01786 0.59124 0.42621 0.0
H248 H 0.95203 0.51732 0.35164 0.0
H249 H 0.0168 0.57167 0.3075 0.0
H250 H 0.95346 0.55763 0.42106 0.0
H251 H 0.92318 0.5703 0.39963 0.0
H252 H 0.93137 0.53152 0.39822 0.0
H253 H 0.03257 0.61824 0.32646 0.0
H254 H 0.00231 0.63765 0.34461 0.0
H255 H 0.03132 0.62317 0.36649 0.0
H256 H 0.93433 0.67252 0.40802 0.0
H257 H 0.00645 0.64087 0.4598 0.0
H258 H 0.92068 0.60815 0.36334 0.0
H259 H 0.94649 0.63079 0.34362 0.0
H260 H 0.91649 0.64764 0.3647 0.0
H261 H 0.00744 0.56876 0.42605 0.0
H262 H 0.02952 0.59579 0.4478 0.0
H263 H 0.03476 0.5912 0.40807 0.0
C264 C 0.29769 0.96943 0.39129 0.0
C265 C 0.30691 0.95464 0.41619 0.0
C266 C 0.31707 0.97309 0.367 0.0
C267 C 0.34661 0.96259 0.3682 0.0
C268 C 0.35624 0.9484 0.39373 0.0
C269 C 0.33608 0.94414 0.4172 0.0
C270 C 0.30575 -0.01246 0.3398 0.0
C271 C 0.38783 0.93771 0.39629 0.0
C272 C 0.39322 0.94496 0.29912 0.0
C273 C 0.4115 0.97041 0.29791 0.0
C274 C 0.37088 0.94275 0.321 0.0
C275 C 0.36756 0.96613 0.34277 0.0
C276 C 0.38566 -0.0079 0.34131 0.0
C277 C 0.40711 -0.0059 0.31858 0.0
C278 C 0.35136 0.9151 0.32126 0.0
C279 C 0.38343 0.01714 0.3646 0.0
H280 H 0.27501 0.9773 0.39042 0.0
H281 H 0.34326 0.93289 0.43658 0.0
H282 H 0.31981 0.00732 0.33528 0.0
H283 H 0.30745 0.97201 0.32001 0.0
H284 H 0.28211 -0.00571 0.34232 0.0
H285 H 0.39222 0.92865 0.41833 0.0
H286 H 0.39204 0.92024 0.37873 0.0
H287 H 0.4041 0.95613 0.3928 0.0
H288 H 0.39649 0.92671 0.28302 0.0
H289 H 0.42146 0.0137 0.31785 0.0
H290 H 0.32741 0.92093 0.32286 0.0
H291 H 0.35662 0.90259 0.34109 0.0
H292 H 0.35459 0.90044 0.30102 0.0
H293 H 0.36006 0.02469 0.36646 0.0
H294 H 0.39824 0.0363 0.35955 0.0
H295 H 0.38975 0.00929 0.38667 0.0
C296 C 0.00322 0.59638 0.66821 0.0
C297 C -0.01558 0.59119 0.69249 0.0
C298 C -0.00241 0.61924 0.64925 0.0
C299 C 0.97307 0.63786 0.65527 0.0
C300 C 0.95537 0.63407 0.68104 0.0
C301 C 0.96096 0.61043 0.69912 0.0
C302 C 0.01671 0.62219 0.62172 0.0
C303 C 0.92974 0.65413 0.6888 0.0
C304 C 0.97371 0.70517 0.60836 0.0
C305 C 0.95471 0.69547 0.5849 0.0
C306 C 0.97833 0.6875 0.63265 0.0
C307 C 0.96436 0.65915 0.6329 0.0
C308 C 0.94405 0.6499 0.60996 0.0
C309 C 0.93916 0.66838 0.58644 0.0
C310 C -0.00073 0.69857 0.65724 0.0
C311 C 0.92905 0.61964 0.60911 0.0
H312 H 0.02128 0.58145 0.66294 0.0
H313 H 0.94653 0.60659 0.71805 0.0
H314 H 0.00279 0.61746 0.60155 0.0
H315 H 0.02575 0.64511 0.62064 0.0
H316 H 0.03574 0.60686 0.62102 0.0
H317 H 0.92136 0.65128 0.71181 0.0
H318 H 0.93671 0.67759 0.68662 0.0
H319 H 0.91099 0.64922 0.67308 0.0
H320 H -0.01439 0.72623 0.60732 0.0
H321 H 0.92458 0.66073 0.56828 0.0
H322 H 0.02065 0.6867 0.65526 0.0
H323 H -0.01048 0.69414 0.67937 0.0
H324 H 0.00431 0.72262 0.65633 0.0
H325 H 0.94628 0.60247 0.60643 0.0
H326 H 0.91278 0.61641 0.59053 0.0
H327 H 0.91715 0.61607 0.63036 0.0
C328 C 0.40034 0.96488 0.66882 0.0
C329 C 0.39674 -0.01306 0.6914 0.0
C330 C 0.37836 0.95935 0.64692 0.0
C331 C 0.35165 0.97555 0.64829 0.0
C332 C 0.34722 -0.00322 0.672 0.0
C333 C 0.37013 0.00266 0.69297 0.0
C334 C 0.38437 0.93716 0.62154 0.0
C335 C 0.3186 0.01371 0.67483 0.0
C336 C 0.31164 -0.01601 0.57497 0.0
C337 C 0.29114 0.96011 0.57458 0.0
C338 C 0.33117 -0.01044 0.59909 0.0
C339 C 0.32935 0.97143 0.62385 0.0
C340 C 0.30756 0.94822 0.6242 0.0
C341 C 0.2891 0.94244 0.59925 0.0
C342 C 0.35467 0.01396 0.59742 0.0
C343 C 0.30418 0.92913 0.65065 0.0
H344 H 0.42106 0.95293 0.66739 0.0
H345 H 0.36728 0.01963 0.71055 0.0
H346 H 0.36633 0.91991 0.62019 0.0
H347 H 0.38449 0.94836 0.60013 0.0
H348 H 0.40614 0.92622 0.62394 0.0
H349 H 0.31726 0.02682 0.69632 0.0
H350 H 0.31711 0.02899 0.65641 0.0
H351 H 0.29893 -0.0017 0.67299 0.0
H352 H 0.31337 -0.00249 0.55577 0.0
H353 H 0.27303 0.92412 0.59902 0.0
H354 H 0.3773 0.00446 0.59808 0.0
H355 H 0.35279 0.02977 0.61692 0.0
H356 H 0.35279 0.02631 0.5768 0.0
H357 H 0.32415 0.91529 0.65246 0.0
H358 H 0.284 0.91435 0.64887 0.0
H359 H 0.3027 0.94314 0.67154 0.0
C360 C -0.00231 0.32025 0.57784 0.0
C361 C 0.01652 0.32156 0.55288 0.0
C362 C -0.00536 0.34468 0.59778 0.0
C363 C 0.01057 0.37126 0.59251 0.0
C364 C 0.02951 0.37287 0.56725 0.0
C365 C 0.03242 0.34786 0.54777 0.0
C366 C 0.97456 0.34191 0.62468 0.0
C367 C 0.04661 0.40099 0.56085 0.0
C368 C -0.01925 0.4388 0.63516 0.0
C369 C -0.00018 0.44087 0.65991 0.0
C370 C -0.01519 0.41704 0.61222 0.0
C371 C 0.00824 0.39676 0.61438 0.0
C372 C 0.02795 0.39925 0.63897 0.0
C373 C 0.02358 0.42134 0.66133 0.0
C374 C 0.96354 0.41519 0.58613 0.0
C375 C 0.05297 0.37784 0.64228 0.0
H376 H -0.01463 0.29995 0.58195 0.0
H377 H 0.04679 0.34901 0.52835 0.0
H378 H -0.01218 0.34604 0.64537 0.0
H379 H 0.95699 0.35876 0.62471 0.0
H380 H 0.9635 0.31973 0.62535 0.0
H381 H 0.05952 0.39895 0.53971 0.0
H382 H 0.03091 0.41945 0.55949 0.0
H383 H 0.06236 0.40695 0.57932 0.0
H384 H 0.96254 0.454 0.63382 0.0
H385 H 0.0385 0.42284 0.68037 0.0
H386 H 0.94972 0.39455 0.58664 0.0
H387 H 0.97625 0.41434 0.56486 0.0
H388 H 0.94835 0.43422 0.58634 0.0
H389 H 0.04339 0.35531 0.64498 0.0
H390 H 0.06745 0.38392 0.66179 0.0
H391 H 0.06712 0.3769 0.62195 0.0
C392 C 0.57817 -0.00811 0.68361 0.0
C393 C 0.55089 0.00408 0.67602 0.0
C394 C 0.60308 -0.00627 0.66455 0.0
C395 C 0.60023 0.00738 0.63706 0.0
C396 C 0.57223 0.01832 0.62871 0.0
C397 C 0.54803 0.01692 0.6485 0.0
C398 C 0.63273 -0.01765 0.67442 0.0
C399 C 0.56803 0.03227 0.59922 0.0
C400 C 0.66541 0.04398 0.59778 0.0
C401 C 0.67181 0.02267 0.57517 0.0
C402 C 0.64326 0.03856 0.61918 0.0
C403 C 0.62662 0.01152 0.61737 0.0
C404 C 0.63358 -0.01039 0.59509 0.0
C405 C 0.65636 -0.00468 0.57446 0.0
C406 C 0.63696 0.06219 0.64309 0.0
C407 C 0.61591 0.9608 0.59201 0.0
H408 H 0.58043 -0.01777 0.70505 0.0
H409 H 0.52684 0.02618 0.64258 0.0
H410 H 0.64205 0.96699 0.657 0.0
H411 H 0.64901 0.00111 0.67769 0.0
H412 H 0.63079 0.97075 0.69557 0.0
H413 H 0.54427 0.03745 0.59512 0.0
H414 H 0.58163 0.05304 0.59872 0.0
H415 H 0.57592 0.0173 0.5807 0.0
H416 H 0.6775 0.06504 0.59855 0.0
H417 H 0.66111 -0.02117 0.5569 0.0
H418 H 0.63635 0.05258 0.66532 0.0
H419 H 0.61467 0.07155 0.63926 0.0
H420 H 0.65399 0.08048 0.64342 0.0
H421 H 0.6148 0.95004 0.61363 0.0
H422 H 0.62566 0.94516 0.57503 0.0
H423 H 0.59257 0.96519 0.58545 0.0
C424 C 0.36498 0.30622 0.9518 0.0
C425 C 0.38748 0.30558 0.97339 0.0
C426 C 0.34347 0.32822 0.95325 0.0
C427 C 0.3452 0.35061 0.97628 0.0
C428 C 0.36727 0.34944 -0.00124 0.0
C429 C 0.38793 0.32659 -0.00273 0.0
C430 C 0.31969 0.32816 0.92945 0.0
C431 C 0.37018 0.37326 0.02334 0.0
C432 C 0.31692 0.42612 0.95947 0.0
C433 C 0.29078 0.4275 0.9767 0.0
C434 C 0.33472 0.40108 0.959 0.0
C435 C 0.32564 0.37655 0.97548 0.0
C436 C 0.29847 0.37729 -0.00825 0.0
C437 C 0.28157 0.40299 -0.00746 0.0
C438 C 0.36382 0.40133 0.94179 0.0
C439 C 0.28761 0.35119 0.00877 0.0
H440 H 0.36453 0.28976 0.93345 0.0
H441 H 0.4055 0.32617 0.01381 0.0
H442 H 0.2973 0.33143 0.93969 0.0
H443 H 0.3241 0.34673 0.91476 0.0
H444 H 0.31906 0.30725 0.91547 0.0
H445 H 0.38747 0.36826 0.03995 0.0
H446 H 0.37631 0.39462 0.01361 0.0
H447 H 0.34849 0.37616 0.03504 0.0
H448 H 0.32421 0.44517 0.94744 0.0
H449 H 0.26125 0.40401 0.00578 0.0
H450 H 0.36402 0.38256 0.92501 0.0
H451 H 0.3828 0.39854 0.95718 0.0
H452 H 0.36762 0.42216 0.93016 0.0
H453 H 0.28737 0.33081 -0.00597 0.0
H454 H 0.26479 0.35435 0.0181 0.0
H455 H 0.30314 0.34765 0.02738 0.0
C456 C 0.32202 0.60321 -0.01122 0.0
C457 C 0.32383 0.57536 0.00077 0.0
C458 C 0.34676 0.62285 -0.0107 0.0
C459 C 0.37409 0.61412 0.00156 0.0
C460 C 0.37628 0.58569 0.01295 0.0
C461 C 0.35096 0.56674 0.01275 0.0
C462 C 0.34335 0.65324 0.97761 0.0
C463 C 0.40524 0.57547 0.02574 0.0
C464 C 0.44442 0.65955 -0.01496 0.0
C465 C 0.44765 0.67679 0.01163 0.0
C466 C 0.42074 0.63866 -0.01852 0.0
C467 C 0.39958 0.63566 0.00476 0.0
C468 C 0.40248 0.6535 0.03135 0.0
C469 C 0.42663 0.67358 0.03456 0.0
C470 C 0.41858 0.61957 0.95305 0.0
C471 C 0.37998 0.65147 0.05641 0.0
H472 H 0.30103 0.60993 0.97952 0.0
H473 H 0.35249 0.54506 0.02169 0.0
H474 H 0.34672 0.67021 -0.00397 0.0
H475 H 0.36066 0.65746 0.9605 0.0
H476 H 0.32093 0.65613 0.9677 0.0
H477 H 0.40394 0.55187 0.03127 0.0
H478 H 0.42384 0.57861 0.00969 0.0
H479 H 0.41088 0.58897 0.04631 0.0
H480 H 0.46075 0.66191 0.96737 0.0
H481 H 0.42886 0.68713 0.05505 0.0
H482 H 0.39694 0.62299 0.94187 0.0
H483 H 0.41915 0.59592 0.95826 0.0
H484 H 0.43706 0.62436 0.93727 0.0
H485 H 0.35718 0.65557 0.04809 0.0
H486 H 0.38505 0.66757 0.07528 0.0
H487 H 0.37962 0.62892 0.06492 0.0
C488 C 0.55027 0.32807 0.95885 0.0
C489 C 0.54357 0.3069 0.97973 0.0
C490 C 0.57395 0.34866 0.96357 0.0
C491 C 0.59174 0.34766 -0.0105 0.0
C492 C 0.58521 0.32623 0.01059 0.0
C493 C 0.56101 0.30628 0.00559 0.0
C494 C 0.57994 0.3715 0.94079 0.0
C495 C 0.60405 0.32409 0.0382 0.0
C496 C 0.66972 0.38182 -0.01626 0.0
C497 C 0.66639 0.40925 -0.00097 0.0
C498 C 0.64585 0.36121 -0.01867 0.0
C499 C 0.61777 0.36846 -0.00602 0.0
C500 C 0.61439 0.39596 0.00987 0.0
C501 C 0.63889 0.41595 0.0125 0.0
C502 C 0.65054 0.33187 0.96476 0.0
C503 C 0.58465 0.40465 0.02325 0.0
H504 H 0.5367 0.32885 0.93897 0.0
H505 H 0.55601 0.28988 0.02177 0.0
H506 H 0.57966 0.394 0.95168 0.0
H507 H 0.60252 0.36851 0.93094 0.0
H508 H 0.56321 0.37014 0.92251 0.0
H509 H 0.59589 0.30627 0.05249 0.0
H510 H 0.6276 0.31976 0.03176 0.0
H511 H 0.60408 0.34535 0.05151 0.0
H512 H 0.69105 0.37648 0.97351 0.0
H513 H 0.63624 0.43722 0.02419 0.0
H514 H 0.63639 0.33015 0.94449 0.0
H515 H 0.64361 0.3135 0.97888 0.0
H516 H 0.67425 0.32889 0.95796 0.0
H517 H 0.56774 0.40567 0.00533 0.0
H518 H 0.58596 0.42643 0.0357 0.0
H519 H 0.57654 0.38776 0.0386 0.0
C520 C 0.66867 0.56403 0.97745 0.0
C521 C 0.69584 0.56188 -0.00744 0.0
C522 C 0.65173 0.58965 -0.01926 0.0
C523 C 0.66268 0.61397 -0.0011 0.0
C524 C 0.69097 0.61252 0.01278 0.0
C525 C 0.70701 0.58629 0.00983 0.0
C526 C 0.62139 0.59005 0.96608 0.0
C527 C 0.70382 0.6383 0.03154 0.0
C528 C 0.62183 0.6856 -0.00971 0.0
C529 C 0.60207 0.68547 0.0146 0.0
C530 C 0.64282 0.66324 -0.01433 0.0
C531 C 0.64334 0.63977 0.0053 0.0
C532 C 0.62395 0.63999 0.0303 0.0
C533 C 0.60385 0.66304 0.03486 0.0
C534 C 0.66381 0.66426 0.95933 0.0
C535 C 0.62336 0.6151 0.05145 0.0
H536 H 0.65991 0.54513 0.96423 0.0
H537 H 0.72815 0.58475 0.02134 0.0
H538 H 0.60372 0.59191 -0.01656 0.0
H539 H 0.61982 0.60956 0.95229 0.0
H540 H 0.61667 0.56982 0.95173 0.0
H541 H 0.72754 0.63503 0.03762 0.0
H542 H 0.70242 0.65899 0.01947 0.0
H543 H 0.69058 0.64132 0.05234 0.0
H544 H 0.62064 0.703 0.97467 0.0
H545 H 0.58846 0.66268 0.05355 0.0
H546 H 0.65778 0.6462 0.94273 0.0
H547 H 0.68716 0.66078 0.96646 0.0
H548 H 0.66297 0.68561 0.94829 0.0
H549 H 0.61682 0.59408 0.03919 0.0
H550 H 0.60742 0.61894 0.07019 0.0
H551 H 0.64598 0.61223 0.06079 0.0
C552 C 0.49813 0.78118 0.8808 0.0
C553 C 0.51998 0.78829 0.90243 0.0
C554 C 0.49434 0.79919 0.85656 0.0
C555 C 0.51183 0.82558 0.85489 0.0
C556 C 0.53452 0.83228 0.87625 0.0
C557 C 0.53871 0.81321 0.89939 0.0
C558 C 0.47087 0.7906 0.83346 0.0
C559 C 0.55295 0.86067 0.87602 0.0
C560 C 0.51596 0.87468 0.7887 0.0
C561 C 0.49426 0.89544 0.79655 0.0
C562 C 0.52059 0.85049 0.80643 0.0
C563 C 0.50417 0.84804 0.83328 0.0
C564 C 0.482 0.86887 0.84099 0.0
C565 C 0.4769 0.89193 0.82218 0.0
C566 C 0.54342 0.82796 0.79678 0.0
C567 C 0.46474 0.8678 0.86992 0.0
H568 H 0.48379 0.76177 0.88304 0.0
H569 H 0.55546 0.81887 0.91626 0.0
H570 H 0.45112 0.80471 0.8369 0.0
H571 H 0.47963 0.79408 0.81072 0.0
H572 H 0.46335 0.76716 0.83473 0.0
H573 H 0.57045 0.862 0.89357 0.0
H574 H 0.56397 0.86286 0.85409 0.0
H575 H 0.53807 0.87977 0.87963 0.0
H576 H 0.5292 0.87732 0.7687 0.0
H577 H 0.46027 0.90817 0.82835 0.0
H578 H 0.53414 0.80525 0.79911 0.0
H579 H 0.56343 0.83057 0.81127 0.0
H580 H 0.55065 0.83033 0.77332 0.0
H581 H 0.45257 0.8463 0.87116 0.0
H582 H 0.44829 0.88573 0.87255 0.0
H583 H 0.48051 0.86983 0.88899 0.0
C584 C 0.17725 0.5135 0.89951 0.0
C585 C 0.17195 0.5342 0.92301 0.0
C586 C 0.15611 0.50808 0.87679 0.0
C587 C 0.12876 0.52321 0.87807 0.0
C588 C 0.12337 0.54427 0.90165 0.0
C589 C 0.14522 0.54977 0.92368 0.0
C590 C 0.16286 0.48588 0.85164 0.0
C591 C 0.09417 0.5603 0.90412 0.0
C592 C 0.08109 0.52405 0.80832 0.0
C593 C 0.06147 0.49998 0.81232 0.0
C594 C 0.10322 0.53193 0.82956 0.0
C595 C 0.10514 0.51577 0.85563 0.0
C596 C 0.08477 0.492 0.86013 0.0
C597 C 0.06342 0.48417 0.83823 0.0
C598 C 0.12498 0.55702 0.82379 0.0
C599 C 0.08566 0.4747 0.88798 0.0
H600 H 0.19803 0.50163 0.8988 0.0
H601 H 0.14098 0.56567 0.94193 0.0
H602 H 0.14697 0.46674 0.85237 0.0
H603 H 0.15982 0.49592 0.82987 0.0
H604 H 0.18602 0.47766 0.85277 0.0
H605 H 0.09386 0.57664 0.92337 0.0
H606 H 0.09001 0.57196 0.88347 0.0
H607 H 0.0754 0.54412 0.90666 0.0
H608 H 0.07971 0.53615 0.78818 0.0
H609 H 0.04806 0.46571 0.84149 0.0
H610 H 0.14814 0.54873 0.82292 0.0
H611 H 0.12412 0.57411 0.84229 0.0
H612 H 0.12026 0.56754 0.80256 0.0
H613 H 0.1073 0.46335 0.88922 0.0
H614 H 0.06722 0.45786 0.88872 0.0
H615 H 0.08408 0.48988 0.90803 0.0
C616 C 0.46292 0.04149 0.85227 0.0
C617 C 0.48146 0.04422 0.82728 0.0
C618 C 0.46312 0.06345 0.87546 0.0
C619 C 0.48208 0.08876 0.87337 0.0
C620 C 0.50144 0.09119 0.84859 0.0
C621 C 0.50098 0.06883 0.82592 0.0
C622 C 0.44238 0.06 0.90172 0.0
C623 C 0.52181 0.11795 0.84543 0.0
C624 C 0.45757 0.16052 0.91145 0.0
C625 C 0.47654 0.16317 0.93629 0.0
C626 C 0.45906 0.13629 0.89101 0.0
C627 C 0.47984 0.11394 0.89563 0.0
C628 C 0.49889 0.11627 0.92081 0.0
C629 C 0.49714 0.14101 0.94081 0.0
C630 C 0.4386 0.13481 0.86424 0.0
C631 C 0.52113 0.09269 0.92653 0.0
H632 H 0.44799 0.02239 0.85356 0.0
H633 H 0.51548 0.07103 0.80673 0.0
H634 H 0.45497 0.06351 0.92289 0.0
H635 H 0.42495 0.077 0.90162 0.0
H636 H 0.43113 0.03786 0.90134 0.0
H637 H 0.53688 0.11555 0.82579 0.0
H638 H 0.50815 0.1378 0.84305 0.0
H639 H 0.53571 0.12196 0.8657 0.0
H640 H 0.44163 0.17761 0.90778 0.0
H641 H 0.51171 0.14289 0.96008 0.0
H642 H 0.42466 0.11421 0.86391 0.0
H643 H 0.45211 0.13425 0.84346 0.0
H644 H 0.42353 0.15392 0.86406 0.0
H645 H 0.5094 0.0709 0.92752 0.0
H646 H 0.53361 0.0973 0.94766 0.0
H647 H 0.53745 0.09095 0.90791 0.0
C648 C 0.89106 0.44954 0.79667 0.0
C649 C 0.91113 0.4737 0.79577 0.0
C650 C 0.86898 0.44835 0.8189 0.0
C651 C 0.86768 0.47142 0.84127 0.0
C652 C 0.88717 0.4964 0.83977 0.0
C653 C 0.9084 0.49743 0.81674 0.0
C654 C 0.84795 0.42178 0.8192 0.0
C655 C 0.88702 0.5211 0.86359 0.0
C656 C 0.80085 0.47558 0.89387 0.0
C657 C 0.81089 0.45941 0.91751 0.0
C658 C 0.819 0.47961 0.86872 0.0
C659 C 0.84812 0.46797 0.86776 0.0
C660 C 0.85864 0.45244 0.89208 0.0
C661 C 0.83969 0.44794 0.91643 0.0
C662 C 0.80674 0.49555 0.84287 0.0
C663 C 0.88987 0.44042 0.89232 0.0
H664 H 0.89302 0.43127 0.78033 0.0
H665 H 0.92408 0.51604 0.81625 0.0
H666 H 0.85371 0.40804 0.838 0.0
H667 H 0.82453 0.42884 0.82262 0.0
H668 H 0.84916 0.40787 0.7982 0.0
H669 H 0.90176 0.54008 0.85782 0.0
H670 H 0.864 0.52908 0.86737 0.0
H671 H 0.89487 0.5127 0.88492 0.0
H672 H 0.77844 0.48422 0.89461 0.0
H673 H 0.84752 0.43562 0.93483 0.0
H674 H 0.80613 0.48047 0.82265 0.0
H675 H 0.8216 0.51462 0.83784 0.0
H676 H 0.78382 0.50365 0.84731 0.0
H677 H 0.8923 0.42328 0.87405 0.0
H678 H 0.8952 0.43051 0.91372 0.0
H679 H 0.9066 0.45832 0.88837 0.0
C680 C 0.45592 0.11298 0.19898 0.0
C681 C 0.47972 0.09391 0.19327 0.0
C682 C 0.45116 0.13683 0.1809 0.0
C683 C 0.47005 0.14098 0.15602 0.0
C684 C 0.49483 0.12248 0.15096 0.0
C685 C 0.49961 0.09945 0.16993 0.0
C686 C 0.42521 0.15678 0.18768 0.0
C687 C 0.51522 0.12578 0.12437 0.0
C688 C 0.44018 0.1721 0.08569 0.0
C689 C 0.45621 0.199 0.085 0.0
C690 C 0.44343 0.15355 0.10945 0.0
C691 C 0.4625 0.16256 0.13351 0.0
C692 C 0.47679 0.1908 0.13407 0.0
C693 C 0.47388 0.20852 0.10953 0.0
C694 C 0.42821 0.12339 0.10768 0.0
C695 C 0.49638 0.20165 0.15984 0.0
H696 H 0.44063 0.10888 0.21718 0.0
H697 H 0.51796 0.08467 0.16536 0.0
H698 H 0.43224 0.18028 0.18596 0.0
H699 H 0.40715 0.15193 0.17116 0.0
H700 H 0.41585 0.15373 0.21029 0.0
H701 H 0.53413 0.11031 0.12426 0.0
H702 H 0.50223 0.1215 0.10353 0.0
H703 H 0.52452 0.14866 0.12411 0.0
H704 H 0.42661 0.16461 0.0667 0.0
H705 H 0.48612 0.22945 0.10916 0.0
H706 H 0.4153 0.1197 0.12833 0.0
H707 H 0.44538 0.10612 0.10561 0.0
H708 H 0.41279 0.12045 0.08836 0.0
H709 H 0.48547 0.19696 0.18138 0.0
H710 H 0.50143 0.22575 0.15941 0.0
H711 H 0.51784 0.18988 0.15884 0.0
C712 C 0.88422 0.5012 0.19295 0.0
C713 C 0.91097 0.48575 0.19075 0.0
C714 C 0.86105 0.4954 0.17228 0.0
C715 C 0.86533 0.47454 0.14822 0.0
C716 C 0.89219 0.4586 0.1462 0.0
C717 C 0.91448 0.46404 0.16783 0.0
C718 C 0.8323 0.51202 0.17582 0.0
C719 C 0.89801 0.43683 0.12041 0.0
C720 C 0.80144 0.44224 0.10036 0.0
C721 C 0.80253 0.46058 0.07617 0.0
C722 C 0.82085 0.44734 0.1247 0.0
C723 C 0.84259 0.47057 0.12416 0.0
C724 C 0.8436 0.48926 0.09981 0.0
C725 C 0.82316 0.48435 0.07635 0.0
C726 C 0.81835 0.42767 0.15077 0.0
C727 C 0.86702 0.51371 0.09794 0.0
H728 H 0.88147 0.5179 0.21081 0.0
H729 H 0.93531 0.45232 0.16595 0.0
H730 H 0.83029 0.52748 0.15761 0.0
H731 H 0.81276 0.49644 0.17418 0.0
H732 H 0.83121 0.52492 0.19746 0.0
H733 H 0.91989 0.42598 0.12236 0.0
H734 H 0.88006 0.4195 0.119 0.0
H735 H 0.89778 0.44839 0.09921 0.0
H736 H 0.7853 0.42398 0.10028 0.0
H737 H 0.82416 0.49837 0.05749 0.0
H738 H 0.81697 0.44127 0.17193 0.0
H739 H 0.83863 0.41418 0.15198 0.0
H740 H 0.79842 0.41253 0.14907 0.0
H741 H 0.86541 0.52937 0.11759 0.0
H742 H 0.86475 0.52623 0.07747 0.0
H743 H 0.88969 0.50426 0.09815 0.0
C744 C 0.49385 0.82436 0.07281 0.0
C745 C 0.51513 0.82646 0.04995 0.0
C746 C 0.48844 0.8484 0.0927 0.0
C747 C 0.50446 0.87535 0.08944 0.0
C748 C 0.52538 0.87792 0.0659 0.0
C749 C 0.53066 0.85331 0.04651 0.0
C750 C 0.46629 0.84461 0.11779 0.0
C751 C 0.54258 0.90647 0.06157 0.0
C752 C 0.47404 0.94229 0.1329 0.0
C753 C 0.49246 0.94356 0.15813 0.0
C754 C 0.47825 0.92075 0.10976 0.0
C755 C 0.50105 0.89985 0.11228 0.0
C756 C 0.51975 0.90121 0.13766 0.0
C757 C 0.51536 0.92315 0.16013 0.0
C758 C 0.45816 0.92013 0.08279 0.0
C759 C 0.54398 0.87904 0.14145 0.0
H760 H 0.48172 0.80367 0.07556 0.0
H761 H 0.54689 0.8551 0.02866 0.0
H762 H 0.47807 0.84721 0.13949 0.0
H763 H 0.44921 0.86193 0.1176 0.0
H764 H 0.4547 0.82263 0.11637 0.0
H765 H 0.55606 0.90563 0.04074 0.0
H766 H 0.52695 0.92507 0.06091 0.0
H767 H 0.55787 0.91131 0.08068 0.0
H768 H 0.45648 0.95818 0.13119 0.0
H769 H 0.52965 0.92396 0.17961 0.0
H770 H 0.44454 0.89933 0.08151 0.0
H771 H 0.47186 0.92056 0.06216 0.0
H772 H 0.44281 0.93906 0.08334 0.0
H773 H 0.53384 0.85648 0.14196 0.0
H774 H 0.55702 0.88359 0.16225 0.0
H775 H 0.55965 0.87914 0.12226 0.0
C776 C 0.16951 0.4965 0.07491 0.0
C777 C 0.18566 0.52347 0.07636 0.0
C778 C 0.14745 0.49031 0.09615 0.0
C779 C 0.14192 0.51133 0.11973 0.0
C780 C 0.15958 0.5377 0.12242 0.0
C781 C 0.181 0.54364 0.10047 0.0
C782 C 0.12874 0.4622 0.09219 0.0
C783 C 0.15485 0.56035 0.14767 0.0
C784 C 0.06387 0.5189 0.15166 0.0
C785 C 0.06615 0.50469 0.17849 0.0
C786 C 0.08806 0.52013 0.13186 0.0
C787 C 0.1155 0.50751 0.13946 0.0
C788 C 0.11777 0.49254 0.16626 0.0
C789 C 0.09285 0.49097 0.18536 0.0
C790 C 0.08445 0.53562 0.10313 0.0
C791 C 0.14683 0.47931 0.17533 0.0
H792 H 0.17295 0.48086 0.05625 0.0
H793 H 0.19367 0.56436 0.10185 0.0
H794 H 0.1271 0.45078 0.11341 0.0
H795 H 0.10566 0.46768 0.08571 0.0
H796 H 0.13798 0.44673 0.07475 0.0
H797 H 0.17287 0.57769 0.14874 0.0
H798 H 0.13313 0.57117 0.1447 0.0
H799 H 0.15388 0.54954 0.16929 0.0
H800 H 0.04312 0.52929 0.14623 0.0
H801 H 0.09467 0.48019 0.20625 0.0
H802 H 0.0914 0.52103 0.08391 0.0
H803 H 0.09914 0.55572 0.10339 0.0
H804 H 0.06102 0.54224 0.09954 0.0
H805 H 0.15543 0.46439 0.15713 0.0
H806 H 0.14436 0.46673 0.19582 0.0
H807 H 0.16394 0.4972 0.17944 0.0
C808 C 0.80759 0.92116 0.46363 0.0
C809 C 0.78191 0.92275 0.48152 0.0
C810 C 0.8254 0.89611 0.46294 0.0
C811 C 0.8168 0.87178 0.47991 0.0
C812 C 0.79012 0.87275 0.49696 0.0
C813 C 0.7732 0.89846 0.49793 0.0
C814 C 0.85399 0.89614 0.44489 0.0
C815 C 0.77975 0.84686 0.51454 0.0
C816 C 0.85548 0.80138 0.45519 0.0
C817 C 0.87875 0.80088 0.47597 0.0
C818 C 0.8339 0.8233 0.45736 0.0
C819 C 0.83633 0.84577 0.48026 0.0
C820 C 0.85916 0.84471 0.50198 0.0
C821 C 0.8799 0.82194 0.49981 0.0
C822 C 0.80931 0.82311 0.43438 0.0
C823 C 0.86285 0.86862 0.52639 0.0
H824 H 0.81452 0.94003 0.45115 0.0
H825 H 0.75325 0.89965 0.5117 0.0
H826 H 0.87341 0.8933 0.45972 0.0
H827 H 0.8536 0.87732 0.42816 0.0
H828 H 0.85753 0.91691 0.43309 0.0
H829 H 0.75728 0.85022 0.52463 0.0
H830 H 0.77892 0.82638 0.49996 0.0
H831 H 0.79591 0.84336 0.53263 0.0
H832 H 0.85449 0.78488 0.43688 0.0
H833 H 0.89806 0.82164 0.51572 0.0
H834 H 0.81327 0.84152 0.41937 0.0
H835 H 0.78729 0.82655 0.44533 0.0
H836 H 0.80818 0.80208 0.4206 0.0
H837 H 0.86882 0.88989 0.5164 0.0
H838 H 0.88056 0.86359 0.54254 0.0
H839 H 0.8415 0.87172 0.53866 0.0
C840 C 0.93376 0.15606 0.49048 0.0
C841 C 0.93743 0.17395 0.51659 0.0
C842 C 0.91011 0.13508 0.48785 0.0
C843 C 0.88934 0.13265 0.51157 0.0
C844 C 0.89265 0.15117 0.53767 0.0
C845 C 0.91685 0.17132 0.53999 0.0
C846 C 0.90757 0.11525 0.45994 0.0
C847 C 0.87053 0.14981 0.56311 0.0
C848 C 0.8122 0.09923 0.49537 0.0
C849 C 0.8143 0.07138 0.50731 0.0
C850 C 0.83654 0.11933 0.49645 0.0
C851 C 0.86383 0.11108 0.50914 0.0
C852 C 0.86623 0.08278 0.52083 0.0
C853 C 0.84124 0.06336 0.52012 0.0
C854 C 0.83287 0.14959 0.48451 0.0
C855 C 0.89518 0.07305 0.53404 0.0
H856 H 0.94981 0.15794 0.47248 0.0
H857 H 0.91949 0.18535 0.56011 0.0
H858 H 0.90806 0.09177 0.46579 0.0
H859 H 0.88584 0.1185 0.44885 0.0
H860 H 0.92591 0.1195 0.44384 0.0
H861 H 0.87588 0.16636 0.58149 0.0
H862 H 0.84761 0.15371 0.55497 0.0
H863 H 0.87027 0.12751 0.5722 0.0
H864 H 0.79131 0.1055 0.48554 0.0
H865 H 0.84296 0.04169 0.52906 0.0
H866 H 0.84968 0.15345 0.46682 0.0
H867 H 0.83687 0.1668 0.50258 0.0
H868 H 0.81019 0.15245 0.47519 0.0
H869 H 0.91371 0.07547 0.51777 0.0
H870 H 0.89386 0.04973 0.54055 0.0
H871 H 0.90097 0.08734 0.55403 0.0
C872 C 0.04147 0.82482 0.45487 0.0
C873 C 0.03521 0.80402 0.47625 0.0
C874 C 0.06523 0.84547 0.4588 0.0
C875 C 0.0835 0.84493 0.48445 0.0
C876 C 0.07742 0.82386 0.50601 0.0
C877 C 0.05317 0.80384 0.50179 0.0
C878 C 0.07075 0.8679 0.43553 0.0
C879 C 0.09676 0.82222 0.53335 0.0
C880 C 0.16151 0.87892 0.47782 0.0
C881 C 0.15839 0.9064 0.49308 0.0
C882 C 0.13751 0.85845 0.47549 0.0
C883 C 0.10951 0.86587 0.48822 0.0
C884 C 0.10628 0.89349 0.50393 0.0
C885 C 0.1309 0.91334 0.50644 0.0
C886 C 0.14203 0.82899 0.45909 0.0
C887 C 0.07664 0.90234 0.51742 0.0
H888 H 0.02751 0.82525 0.43522 0.0
H889 H 0.04853 0.78773 0.51835 0.0
H890 H 0.07049 0.89057 0.44604 0.0
H891 H 0.09322 0.86487 0.42543 0.0
H892 H 0.05378 0.86614 0.41749 0.0
H893 H 0.08897 0.80457 0.54803 0.0
H894 H 0.12023 0.81795 0.52659 0.0
H895 H 0.09686 0.84365 0.54638 0.0
H896 H 0.18281 0.8734 0.46763 0.0
H897 H 0.12838 0.93464 0.51811 0.0
H898 H 0.12742 0.82696 0.43915 0.0
H899 H 0.13555 0.81075 0.47356 0.0
H900 H 0.1656 0.82606 0.4518 0.0
H901 H 0.05949 0.90278 0.49966 0.0
H902 H 0.07795 0.92441 0.5293 0.0
H903 H 0.06886 0.88583 0.53332 0.0
C904 C 0.09481 0.15663 0.52961 0.0
C905 C 0.09198 0.17946 0.50996 0.0
C906 C 0.11505 0.13391 0.52384 0.0
C907 C 0.13354 0.13444 0.49821 0.0
C908 C 0.13178 0.15815 0.47898 0.0
C909 C 0.11066 0.18018 0.48484 0.0
C910 C 0.11579 0.10873 0.54461 0.0
C911 C 0.15178 0.15994 0.45196 0.0
C912 C 0.19888 0.0829 0.50147 0.0
C913 C 0.18795 0.05806 0.48472 0.0
C914 C 0.18225 0.10875 0.50442 0.0
C915 C 0.15363 0.10936 0.49109 0.0
C916 C 0.143 0.08469 0.47324 0.0
C917 C 0.16052 0.05945 0.46992 0.0
C918 C 0.19477 0.13493 0.52284 0.0
C919 C 0.11234 0.0842 0.45917 0.0
H920 H 0.08025 0.15581 0.54891 0.0
H921 H 0.10865 0.19789 0.46968 0.0
H922 H 0.10989 0.08764 0.53216 0.0
H923 H 0.13868 0.10665 0.55358 0.0
H924 H 0.10001 0.11171 0.56362 0.0
H925 H 0.14963 0.18116 0.44091 0.0
H926 H 0.17552 0.15747 0.45838 0.0
H927 H 0.14603 0.14158 0.4356 0.0
H928 H 0.22023 0.08194 0.51273 0.0
H929 H 0.15195 0.0402 0.4571 0.0
H930 H 0.18215 0.1374 0.54408 0.0
H931 H 0.19216 0.15557 0.51093 0.0
H932 H 0.21882 0.13249 0.52812 0.0
H933 H 0.09498 0.085 0.4769 0.0
H934 H 0.10815 0.06407 0.44451 0.0
H935 H 0.10964 0.10389 0.44586 0.0
loop_
_geom_bond_atom_site_label_1
_geom_bond_atom_site_label_2
_geom_bond_distance
_geom_bond_site_symmetry_2
_ccdc_geom_bond_type
C0 O1 1.306 . S
C0 O3 1.160 . S
O1 C0 1.306 . S
O1 Cd2 2.228 . S
Cd2 O1 2.228 . S
Cd2 O6 2.273 . S
Cd2 O10 2.277 1_655 S
O3 C0 1.160 . S
O3 Cd4 2.203 1_655 S
Cd4 O3 2.203 1_455 S
Cd4 O6 2.411 1_455 S
Cd4 O7 2.333 . S
Cd4 O8 2.352 1_455 S
Cd4 O12 2.277 . S
Cd4 O13 2.356 . S
C5 O10 1.209 . S
C5 O12 1.226 . S
O6 Cd2 2.273 . S
O6 Cd4 2.411 1_655 S
O6 C9 1.320 1_655 S
O7 Cd4 2.333 . S
O7 C9 1.214 . S
O8 Cd4 2.352 1_655 S
O8 C11 1.258 . S
C9 O6 1.320 1_455 S
C9 O7 1.214 . S
O10 Cd2 2.277 1_455 S
O10 C5 1.209 . S
C11 O8 1.258 . S
C11 O13 1.282 1_655 S
O12 Cd4 2.277 . S
O12 C5 1.226 . S
O13 Cd4 2.356 . S
O13 C11 1.282 1_455 S
C14 O15 1.306 . S
C14 O17 1.160 1_545 S
O15 C14 1.306 . S
O15 Cd16 2.228 . S
Cd16 O15 2.228 . S
Cd16 O20 2.273 . S
Cd16 O24 2.277 . S
O17 C14 1.160 1_565 S
O17 Cd18 2.203 1_565 S
Cd18 O17 2.203 1_545 S
Cd18 O20 2.411 . S
Cd18 O21 2.333 . S
Cd18 O22 2.352 1_545 S
Cd18 O26 2.275 1_545 S
Cd18 O27 2.356 1_545 S
C19 O24 1.209 . S
C19 O26 1.205 1_545 S
O20 Cd16 2.273 . S
O20 Cd18 2.411 . S
O20 C23 1.320 . S
O21 Cd18 2.333 . S
O21 C23 1.214 . S
O22 Cd18 2.352 1_565 S
O22 C25 1.258 . S
C23 O20 1.320 . S
C23 O21 1.214 . S
O24 Cd16 2.277 . S
O24 C19 1.209 . S
C25 O22 1.258 . S
C25 O27 1.282 . S
O26 Cd18 2.275 1_565 S
O26 C19 1.205 1_565 S
O27 Cd18 2.356 1_565 S
O27 C25 1.282 . S
C28 O29 1.306 . S
C28 O31 1.160 . S
O29 C28 1.306 . S
O29 Cd30 2.228 1_655 S
Cd30 O29 2.228 1_455 S
Cd30 O34 2.273 . S
Cd30 O38 2.277 . S
O31 C28 1.160 . S
O31 Cd32 2.203 1_655 S
Cd32 O31 2.203 1_455 S
Cd32 O34 2.411 . S
Cd32 O35 2.333 . S
Cd32 O36 2.352 1_455 S
Cd32 O40 2.277 . S
Cd32 O41 2.356 . S
C33 O38 1.209 . S
C33 O40 1.226 . S
O34 Cd30 2.273 . S
O34 Cd32 2.411 . S
O34 C37 1.320 . S
O35 Cd32 2.333 . S
O35 C37 1.214 . S
O36 Cd32 2.352 1_655 S
O36 C39 1.258 1_655 S
C37 O34 1.320 . S
C37 O35 1.214 . S
O38 Cd30 2.277 . S
O38 C33 1.209 . S
C39 O36 1.258 1_455 S
C39 O41 1.282 . S
O40 Cd32 2.277 . S
O40 C33 1.226 . S
O41 Cd32 2.356 . S
O41 C39 1.282 . S
C42 O43 1.306 1_545 S
C42 O45 1.160 . S
O43 C42 1.306 1_565 S
O43 Cd44 2.228 . S
Cd44 O43 2.228 . S
Cd44 O48 2.273 . S
Cd44 O52 2.277 . S
O45 C42 1.160 . S
O45 Cd46 2.203 . S
Cd46 O45 2.203 . S
Cd46 O48 2.411 1_545 S
Cd46 O49 2.333 1_545 S
Cd46 O50 2.352 . S
Cd46 O54 2.277 . S
Cd46 O55 2.356 . S
C47 O52 1.209 1_545 S
C47 O54 1.226 . S
O48 Cd44 2.273 . S
O48 Cd46 2.411 1_565 S
O48 C51 1.320 . S
O49 Cd46 2.333 1_565 S
O49 C51 1.214 . S
O50 Cd46 2.352 . S
O50 C53 1.258 . S
C51 O48 1.320 . S
C51 O49 1.214 . S
O52 Cd44 2.277 . S
O52 C47 1.209 1_565 S
C53 O50 1.258 . S
C53 O55 1.282 . S
O54 Cd46 2.277 . S
O54 C47 1.226 . S
O55 Cd46 2.356 . S
O55 C53 1.282 . S
C56 O57 1.306 1_545 S
C56 O59 1.160 . S
O57 C56 1.306 1_565 S
O57 Cd58 2.228 . S
Cd58 O57 2.228 . S
Cd58 O62 2.273 . S
Cd58 O66 2.277 . S
O59 C56 1.160 . S
O59 Cd60 2.203 . S
Cd60 O59 2.203 . S
Cd60 O62 2.411 1_545 S
Cd60 O63 2.333 1_545 S
Cd60 O64 2.352 . S
Cd60 O68 2.277 . S
Cd60 O69 2.356 . S
C61 O66 1.209 1_545 S
C61 O68 1.226 . S
O62 Cd58 2.273 . S
O62 Cd60 2.411 1_565 S
O62 C65 1.320 . S
O63 Cd60 2.333 1_565 S
O63 C65 1.214 . S
O64 Cd60 2.352 . S
O64 C67 1.258 . S
C65 O62 1.320 . S
C65 O63 1.214 . S
O66 Cd58 2.277 . S
O66 C61 1.209 1_565 S
C67 O64 1.258 . S
C67 O69 1.282 . S
O68 Cd60 2.277 . S
O68 C61 1.226 . S
O69 Cd60 2.356 . S
O69 C67 1.282 . S
C70 O71 1.306 . S
C70 O73 1.160 . S
O71 C70 1.306 . S
O71 Cd72 2.228 . S
Cd72 O71 2.228 . S
Cd72 O76 2.273 . S
Cd72 O80 2.277 1_455 S
O73 C70 1.160 . S
O73 Cd74 2.203 . S
Cd74 O73 2.203 . S
Cd74 O76 2.411 . S
Cd74 O77 2.333 1_455 S
Cd74 O78 2.352 . S
Cd74 O82 2.277 1_455 S
Cd74 O83 2.356 1_455 S
C75 O80 1.209 . S
C75 O82 1.226 . S
O76 Cd72 2.273 . S
O76 Cd74 2.411 . S
O76 C79 1.340 . S
O77 Cd74 2.333 1_655 S
O77 C79 1.197 1_655 S
O78 Cd74 2.352 . S
O78 C81 1.258 . S
C79 O76 1.340 . S
C79 O77 1.197 1_455 S
O80 Cd72 2.277 1_655 S
O80 C75 1.209 . S
C81 O78 1.258 . S
C81 O83 1.282 1_455 S
O82 Cd74 2.277 1_655 S
O82 C75 1.226 . S
O83 Cd74 2.356 1_655 S
O83 C81 1.282 1_655 S
C84 O85 1.306 . S
C84 O87 1.160 1_545 S
O85 C84 1.306 . S
O85 Cd86 2.228 . S
Cd86 O85 2.228 . S
Cd86 O90 2.273 . S
Cd86 O94 2.277 . S
O87 C84 1.160 1_565 S
O87 Cd88 2.203 1_565 S
Cd88 O87 2.203 1_545 S
Cd88 O90 2.411 . S
Cd88 O91 2.333 . S
Cd88 O92 2.352 1_545 S
Cd88 O96 2.277 . S
Cd88 O97 2.356 1_545 S
C89 O94 1.209 . S
C89 O96 1.226 . S
O90 Cd86 2.273 . S
O90 Cd88 2.411 . S
O90 C93 1.320 . S
O91 Cd88 2.333 . S
O91 C93 1.214 . S
O92 Cd88 2.352 1_565 S
O92 C95 1.258 . S
C93 O90 1.320 . S
C93 O91 1.214 . S
O94 Cd86 2.277 . S
O94 C89 1.209 . S
C95 O92 1.258 . S
C95 O97 1.282 . S
O96 Cd88 2.277 . S
O96 C89 1.226 . S
O97 Cd88 2.356 1_565 S
O97 C95 1.282 . S
C98 O99 1.306 . S
C98 O101 1.160 . S
O99 C98 1.306 . S
O99 Cd100 2.228 . S
Cd100 O99 2.228 . S
Cd100 O104 2.273 . S
Cd100 O108 2.277 1_455 S
O101 C98 1.160 . S
O101 Cd102 2.203 . S
Cd102 O101 2.203 . S
Cd102 O104 2.411 . S
Cd102 O105 2.333 1_455 S
Cd102 O106 2.352 . S
Cd102 O110 2.277 1_455 S
Cd102 O111 2.356 1_455 S
C103 O108 1.209 . S
C103 O110 1.226 . S
O104 Cd100 2.273 . S
O104 Cd102 2.411 . S
O104 C107 1.320 1_455 S
O105 Cd102 2.333 1_655 S
O105 C107 1.214 . S
O106 Cd102 2.352 . S
O106 C109 1.258 . S
C107 O104 1.320 1_655 S
C107 O105 1.214 . S
O108 Cd100 2.277 1_655 S
O108 C103 1.209 . S
C109 O106 1.258 . S
C109 O111 1.282 1_455 S
O110 Cd102 2.277 1_655 S
O110 C103 1.226 . S
O111 Cd102 2.356 1_655 S
O111 C109 1.282 1_655 S
C112 O113 1.306 . S
C112 O115 1.160 . S
O113 C112 1.306 . S
O113 Cd114 2.229 1_556 S
Cd114 O113 2.229 1_554 S
Cd114 O118 2.272 . S
Cd114 O122 2.276 . S
O115 C112 1.160 . S
O115 Cd116 2.203 1_556 S
Cd116 O115 2.203 1_554 S
Cd116 O118 2.420 . S
Cd116 O119 2.333 . S
Cd116 O120 2.352 1_554 S
Cd116 O124 2.277 . S
Cd116 O125 2.356 . S
C117 O122 1.209 . S
C117 O124 1.226 . S
O118 Cd114 2.272 . S
O118 Cd116 2.420 . S
O118 C121 1.341 . S
O119 Cd116 2.333 . S
O119 C121 1.214 . S
O120 Cd116 2.352 1_556 S
O120 C123 1.258 1_556 S
C121 O118 1.341 . S
C121 O119 1.214 . S
O122 Cd114 2.276 . S
O122 C117 1.209 . S
C123 O120 1.258 1_554 S
C123 O125 1.282 . S
O124 Cd116 2.277 . S
O124 C117 1.226 . S
O125 Cd116 2.356 . S
O125 C123 1.282 . S
C126 O127 1.306 1_554 S
C126 O129 1.160 . S
O127 C126 1.306 1_556 S
O127 Cd128 2.228 . S
Cd128 O127 2.228 . S
Cd128 O132 2.273 . S
Cd128 O136 2.277 . S
O129 C126 1.160 . S
O129 Cd130 2.203 . S
Cd130 O129 2.203 . S
Cd130 O132 2.411 1_554 S
Cd130 O133 2.333 1_554 S
Cd130 O134 2.352 . S
Cd130 O138 2.277 . S
Cd130 O139 2.356 . S
C131 O136 1.218 . S
C131 O138 1.215 1_556 S
O132 Cd128 2.273 . S
O132 Cd130 2.411 1_556 S
O132 C135 1.320 . S
O133 Cd130 2.333 1_556 S
O133 C135 1.214 . S
O134 Cd130 2.352 . S
O134 C137 1.258 . S
C135 O132 1.320 . S
C135 O133 1.214 . S
O136 Cd128 2.277 . S
O136 C131 1.218 . S
C137 O134 1.258 . S
C137 O139 1.282 . S
O138 Cd130 2.277 . S
O138 C131 1.215 1_554 S
O139 Cd130 2.356 . S
O139 C137 1.282 . S
C140 O141 1.306 . S
C140 O143 1.160 . S
O141 C140 1.306 . S
O141 Cd142 2.228 . S
Cd142 O141 2.228 . S
Cd142 O146 2.274 . S
Cd142 O150 2.277 1_556 S
O143 C140 1.160 . S
O143 Cd144 2.203 1_556 S
Cd144 O143 2.203 1_554 S
Cd144 O146 2.401 1_554 S
Cd144 O147 2.333 . S
Cd144 O148 2.352 1_554 S
Cd144 O152 2.277 . S
Cd144 O153 2.356 . S
C145 O150 1.209 . S
C145 O152 1.226 . S
O146 Cd142 2.274 . S
O146 Cd144 2.401 1_556 S
O146 C149 1.293 1_556 S
O147 Cd144 2.333 . S
O147 C149 1.214 . S
O148 Cd144 2.352 1_556 S
O148 C151 1.258 1_556 S
C149 O146 1.293 1_554 S
C149 O147 1.214 . S
O150 Cd142 2.277 1_554 S
O150 C145 1.209 . S
C151 O148 1.258 1_554 S
C151 O153 1.282 . S
O152 Cd144 2.277 . S
O152 C145 1.226 . S
O153 Cd144 2.356 . S
O153 C151 1.282 . S
C154 O155 1.306 . S
C154 O157 1.160 1_554 S
O155 C154 1.306 . S
O155 Cd156 2.228 . S
Cd156 O155 2.228 . S
Cd156 O160 2.273 . S
Cd156 O164 2.277 . S
O157 C154 1.160 1_556 S
O157 Cd158 2.203 1_556 S
Cd158 O157 2.203 1_554 S
Cd158 O160 2.411 . S
Cd158 O161 2.333 . S
Cd158 O162 2.352 1_554 S
Cd158 O166 2.277 . S
Cd158 O167 2.356 1_554 S
C159 O164 1.209 . S
C159 O166 1.226 . S
O160 Cd156 2.273 . S
O160 Cd158 2.411 . S
O160 C163 1.320 . S
O161 Cd158 2.333 . S
O161 C163 1.214 . S
O162 Cd158 2.352 1_556 S
O162 C165 1.258 . S
C163 O160 1.320 . S
C163 O161 1.214 . S
O164 Cd156 2.277 . S
O164 C159 1.209 . S
C165 O162 1.258 . S
C165 O167 1.282 . S
O166 Cd158 2.277 . S
O166 C159 1.226 . S
O167 Cd158 2.356 1_556 S
O167 C165 1.282 . S
C168 C169 1.391 . S
C168 C170 1.394 . S
C168 H184 0.931 . S
C169 C168 1.391 . S
C169 C173 1.376 1_655 S
C170 C168 1.394 . S
C170 C171 1.369 1_655 S
C170 C174 1.531 . S
C171 C170 1.369 1_455 S
C171 C172 1.410 . S
C171 C179 1.503 . S
C172 C171 1.410 . S
C172 C173 1.392 . S
C172 C175 1.511 . S
C173 C169 1.376 1_455 S
C173 C172 1.392 . S
C173 H185 0.929 . S
C174 C170 1.531 . S
C174 H186 0.960 . S
C174 H187 0.962 . S
C174 H188 0.960 . S
C175 C172 1.511 . S
C175 H189 0.961 . S
C175 H190 0.961 . S
C175 H191 0.961 . S
C176 C177 1.370 1_655 S
C176 C178 1.363 . S
C176 H192 0.931 . S
C177 C176 1.370 1_455 S
C177 C181 1.408 . S
C178 C176 1.363 . S
C178 C179 1.370 1_655 S
C178 C182 1.524 . S
C179 C171 1.503 . S
C179 C178 1.370 1_455 S
C179 C180 1.403 . S
C180 C179 1.403 . S
C180 C181 1.404 . S
C180 C183 1.539 . S
C181 C177 1.408 . S
C181 C180 1.404 . S
C181 H193 0.930 . S
C182 C178 1.524 . S
C182 H194 0.956 . S
C182 H195 0.961 . S
C182 H196 0.961 . S
C183 C180 1.539 . S
C183 H197 0.958 . S
C183 H198 0.961 . S
C183 H199 0.960 . S
H184 C168 0.931 . S
H185 C173 0.929 . S
H186 C174 0.960 . S
H187 C174 0.962 . S
H188 C174 0.960 . S
H189 C175 0.961 . S
H190 C175 0.961 . S
H191 C175 0.961 . S
H192 C176 0.931 . S
H193 C181 0.930 . S
H194 C182 0.956 . S
H195 C182 0.961 . S
H196 C182 0.961 . S
H197 C183 0.958 . S
H198 C183 0.961 . S
H199 C183 0.960 . S
C200 C201 1.391 1_565 S
C200 C202 1.394 . S
C200 H216 0.931 . S
C201 C200 1.391 1_545 S
C201 C205 1.376 . S
C202 C200 1.394 . S
C202 C203 1.369 1_565 S
C202 C206 1.531 . S
C203 C202 1.369 1_545 S
C203 C204 1.410 . S
C203 C211 1.503 . S
C204 C203 1.410 . S
C204 C205 1.392 . S
C204 C207 1.511 . S
C205 C201 1.376 . S
C205 C204 1.392 . S
C205 H217 0.929 . S
C206 C202 1.531 . S
C206 H218 0.960 . S
C206 H219 0.962 . S
C206 H220 0.960 . S
C207 C204 1.511 . S
C207 H221 0.961 . S
C207 H222 0.961 . S
C207 H223 0.961 . S
C208 C209 1.370 . S
C208 C210 1.363 . S
C208 H224 0.939 . S
C209 C208 1.370 . S
C209 C213 1.408 . S
C210 C208 1.363 . S
C210 C211 1.370 . S
C210 C214 1.524 1_545 S
C211 C203 1.503 . S
C211 C210 1.370 . S
C211 C212 1.403 . S
C212 C211 1.403 . S
C212 C213 1.404 . S
C212 C215 1.539 . S
C213 C209 1.408 . S
C213 C212 1.404 . S
C213 H225 0.930 . S
C214 C210 1.524 1_565 S
C214 H226 0.956 . S
C214 H227 0.961 1_565 S
C214 H228 0.961 . S
C215 C212 1.539 . S
C215 H229 0.958 . S
C215 H230 0.961 . S
C215 H231 0.960 . S
H216 C200 0.931 . S
H217 C205 0.929 . S
H218 C206 0.960 . S
H219 C206 0.962 . S
H220 C206 0.960 . S
H221 C207 0.961 . S
H222 C207 0.961 . S
H223 C207 0.961 . S
H224 C208 0.939 . S
H225 C213 0.930 . S
H226 C214 0.956 . S
H227 C214 0.961 1_545 S
H228 C214 0.961 . S
H229 C215 0.958 . S
H230 C215 0.961 . S
H231 C215 0.960 . S
C232 C233 1.361 1_655 S
C232 C234 1.394 . S
C232 H248 0.931 . S
C233 C232 1.361 1_455 S
C233 C237 1.409 . S
C234 C232 1.394 . S
C234 C235 1.369 1_655 S
C234 C238 1.531 . S
C235 C234 1.369 1_455 S
C235 C236 1.410 . S
C235 C243 1.503 . S
C236 C235 1.410 . S
C236 C237 1.392 . S
C236 C239 1.511 . S
C237 C233 1.409 . S
C237 C236 1.392 . S
C237 H249 0.929 . S
C238 C234 1.531 . S
C238 H250 0.960 . S
C238 H251 0.962 . S
C238 H252 0.960 . S
C239 C236 1.511 . S
C239 H253 0.961 . S
C239 H254 0.961 . S
C239 H255 0.961 . S
C240 C241 1.370 . S
C240 C242 1.363 . S
C240 H256 0.931 . S
C241 C240 1.370 . S
C241 C245 1.408 . S
C242 C240 1.363 . S
C242 C243 1.370 . S
C242 C246 1.524 . S
C243 C235 1.503 . S
C243 C242 1.370 . S
C243 C244 1.403 . S
C244 C243 1.403 . S
C244 C245 1.404 . S
C244 C247 1.539 1_455 S
C245 C241 1.408 . S
C245 C244 1.404 . S
C245 H257 0.930 . S
C246 C242 1.524 . S
C246 H258 0.956 . S
C246 H259 0.961 . S
C246 H260 0.961 . S
C247 C244 1.539 1_655 S
C247 H261 0.958 . S
C247 H262 0.961 1_655 S
C247 H263 0.960 1_655 S
H248 C232 0.931 . S
H249 C237 0.929 . S
H250 C238 0.960 . S
H251 C238 0.962 . S
H252 C238 0.960 . S
H253 C239 0.961 . S
H254 C239 0.961 . S
H255 C239 0.961 . S
H256 C240 0.931 . S
H257 C245 0.930 . S
H258 C246 0.956 . S
H259 C246 0.961 . S
H260 C246 0.961 . S
H261 C247 0.958 . S
H262 C247 0.961 1_455 S
H263 C247 0.960 1_455 S
C264 C265 1.391 . S
C264 C266 1.394 . S
C264 H280 0.931 . S
C265 C264 1.391 . S
C265 C269 1.376 . S
C266 C264 1.394 . S
C266 C267 1.369 . S
C266 C270 1.531 . S
C267 C266 1.369 . S
C267 C268 1.410 . S
C267 C275 1.503 . S
C268 C267 1.410 . S
C268 C269 1.392 . S
C268 C271 1.511 . S
C269 C265 1.376 . S
C269 C268 1.392 . S
C269 H281 0.929 . S
C270 C266 1.531 . S
C270 H282 0.960 . S
C270 H283 0.962 . S
C270 H284 0.960 . S
C271 C268 1.511 . S
C271 H285 0.961 1_545 S
C271 H286 0.961 1_545 S
C271 H287 0.961 . S
C272 C273 1.370 1_565 S
C272 C274 1.363 . S
C272 H288 0.931 . S
C273 C272 1.370 1_545 S
C273 C277 1.408 . S
C274 C272 1.363 . S
C274 C275 1.370 1_565 S
C274 C278 1.524 . S
C275 C267 1.503 . S
C275 C274 1.370 1_545 S
C275 C276 1.403 . S
C276 C275 1.403 . S
C276 C277 1.404 . S
C276 C279 1.539 . S
C277 C273 1.408 . S
C277 C276 1.404 . S
C277 H289 0.930 . S
C278 C274 1.524 . S
C278 H290 0.956 . S
C278 H291 0.961 . S
C278 H292 0.961 . S
C279 C276 1.539 . S
C279 H293 0.958 . S
C279 H294 0.961 . S
C279 H295 0.960 . S
H280 C264 0.931 . S
H281 C269 0.929 . S
H282 C270 0.960 . S
H283 C270 0.962 . S
H284 C270 0.960 . S
H285 C271 0.961 1_565 S
H286 C271 0.961 1_565 S
H287 C271 0.961 . S
H288 C272 0.931 . S
H289 C277 0.930 . S
H290 C278 0.956 . S
H291 C278 0.961 . S
H292 C278 0.961 . S
H293 C279 0.958 . S
H294 C279 0.961 . S
H295 C279 0.960 . S
C296 C297 1.391 . S
C296 C298 1.394 . S
C296 H312 0.931 . S
C297 C296 1.391 . S
C297 C301 1.376 1_455 S
C298 C296 1.394 . S
C298 C299 1.369 . S
C298 C302 1.531 . S
C299 C298 1.369 . S
C299 C300 1.410 1_455 S
C299 C307 1.503 . S
C300 C299 1.410 1_655 S
C300 C301 1.392 . S
C300 C303 1.511 . S
C301 C297 1.376 1_655 S
C301 C300 1.392 . S
C301 H313 0.929 . S
C302 C298 1.531 . S
C302 H314 0.960 . S
C302 H315 0.962 . S
C302 H316 0.960 . S
C303 C300 1.511 . S
C303 H317 0.961 . S
C303 H318 0.961 . S
C303 H319 0.961 . S
C304 C305 1.370 . S
C304 C306 1.363 . S
C304 H320 0.931 . S
C305 C304 1.370 . S
C305 C309 1.408 1_455 S
C306 C304 1.363 . S
C306 C307 1.370 . S
C306 C310 1.524 . S
C307 C299 1.503 . S
C307 C306 1.370 . S
C307 C308 1.403 1_455 S
C308 C307 1.403 1_655 S
C308 C309 1.404 . S
C308 C311 1.539 . S
C309 C305 1.408 1_655 S
C309 C308 1.404 . S
C309 H321 0.930 . S
C310 C306 1.524 . S
C310 H322 0.956 . S
C310 H323 0.961 . S
C310 H324 0.961 . S
C311 C308 1.539 . S
C311 H325 0.958 . S
C311 H326 0.961 . S
C311 H327 0.960 . S
H312 C296 0.931 . S
H313 C301 0.929 . S
H314 C302 0.960 . S
H315 C302 0.962 . S
H316 C302 0.960 . S
H317 C303 0.961 . S
H318 C303 0.961 . S
H319 C303 0.961 . S
H320 C304 0.931 . S
H321 C309 0.930 . S
H322 C310 0.956 . S
H323 C310 0.961 . S
H324 C310 0.961 . S
H325 C311 0.958 . S
H326 C311 0.961 . S
H327 C311 0.960 . S
C328 C329 1.391 . S
C328 C330 1.394 . S
C328 H344 0.931 . S
C329 C328 1.391 . S
C329 C333 1.376 . S
C330 C328 1.394 . S
C330 C331 1.369 . S
C330 C334 1.531 1_545 S
C331 C330 1.369 . S
C331 C332 1.410 . S
C331 C339 1.503 . S
C332 C331 1.410 . S
C332 C333 1.392 . S
C332 C335 1.511 . S
C333 C329 1.376 . S
C333 C332 1.392 . S
C333 H345 0.929 . S
C334 C330 1.531 1_565 S
C334 H346 0.960 . S
C334 H347 0.962 1_565 S
C334 H348 0.960 . S
C335 C332 1.511 . S
C335 H349 0.961 . S
C335 H350 0.961 . S
C335 H351 0.961 . S
C336 C337 1.370 . S
C336 C338 1.363 . S
C336 H352 0.931 . S
C337 C336 1.370 . S
C337 C341 1.408 1_545 S
C338 C336 1.363 . S
C338 C339 1.370 . S
C338 C342 1.524 . S
C339 C331 1.503 . S
C339 C338 1.370 . S
C339 C340 1.403 1_545 S
C340 C339 1.403 1_565 S
C340 C341 1.404 . S
C340 C343 1.539 . S
C341 C337 1.408 1_565 S
C341 C340 1.404 . S
C341 H353 0.930 . S
C342 C338 1.524 . S
C342 H354 0.956 . S
C342 H355 0.961 . S
C342 H356 0.961 . S
C343 C340 1.539 . S
C343 H357 0.958 . S
C343 H358 0.961 . S
C343 H359 0.960 . S
H344 C328 0.931 . S
H345 C333 0.929 . S
H346 C334 0.960 . S
H347 C334 0.962 1_545 S
H348 C334 0.960 . S
H349 C335 0.961 . S
H350 C335 0.961 . S
H351 C335 0.961 . S
H352 C336 0.931 . S
H353 C341 0.930 . S
H354 C342 0.956 . S
H355 C342 0.961 . S
H356 C342 0.961 . S
H357 C343 0.958 . S
H358 C343 0.961 . S
H359 C343 0.960 . S
C360 C361 1.391 1_655 S
C360 C362 1.394 . S
C360 H376 0.931 . S
C361 C360 1.391 1_455 S
C361 C365 1.376 . S
C362 C360 1.394 . S
C362 C363 1.369 1_655 S
C362 C366 1.531 . S
C363 C362 1.369 1_455 S
C363 C364 1.410 . S
C363 C371 1.503 . S
C364 C363 1.410 . S
C364 C365 1.392 . S
C364 C367 1.511 . S
C365 C361 1.376 . S
C365 C364 1.392 . S
C365 H377 0.929 . S
C366 C362 1.531 . S
C366 H378 0.960 . S
C366 H379 0.962 . S
C366 H380 0.960 . S
C367 C364 1.511 . S
C367 H381 0.961 . S
C367 H382 0.961 . S
C367 H383 0.961 . S
C368 C369 1.370 . S
C368 C370 1.363 . S
C368 H384 0.931 . S
C369 C368 1.370 . S
C369 C373 1.408 1_655 S
C370 C368 1.363 . S
C370 C371 1.370 1_655 S
C370 C374 1.524 . S
C371 C363 1.503 . S
C371 C370 1.370 1_455 S
C371 C372 1.403 . S
C372 C371 1.403 . S
C372 C373 1.404 . S
C372 C375 1.539 . S
C373 C369 1.408 1_455 S
C373 C372 1.404 . S
C373 H385 0.930 . S
C374 C370 1.524 . S
C374 H386 0.956 . S
C374 H387 0.961 1_655 S
C374 H388 0.961 . S
C375 C372 1.539 . S
C375 H389 0.958 . S
C375 H390 0.961 . S
C375 H391 0.960 . S
H376 C360 0.931 . S
H377 C365 0.929 . S
H378 C366 0.960 . S
H379 C366 0.962 . S
H380 C366 0.960 . S
H381 C367 0.961 . S
H382 C367 0.961 . S
H383 C367 0.961 . S
H384 C368 0.931 . S
H385 C373 0.930 . S
H386 C374 0.956 . S
H387 C374 0.961 1_455 S
H388 C374 0.961 . S
H389 C375 0.958 . S
H390 C375 0.961 . S
H391 C375 0.960 . S
C392 C393 1.391 1_565 S
C392 C394 1.394 . S
C392 H408 0.931 . S
C393 C392 1.391 1_545 S
C393 C397 1.376 . S
C394 C392 1.394 . S
C394 C395 1.369 1_565 S
C394 C398 1.531 . S
C395 C394 1.369 1_545 S
C395 C396 1.410 . S
C395 C403 1.503 . S
C396 C395 1.410 . S
C396 C397 1.392 . S
C396 C399 1.511 . S
C397 C393 1.376 . S
C397 C396 1.392 . S
C397 H409 0.929 . S
C398 C394 1.531 . S
C398 H410 0.960 . S
C398 H411 0.962 . S
C398 H412 0.960 . S
C399 C396 1.511 . S
C399 H413 0.961 . S
C399 H414 0.961 . S
C399 H415 0.961 . S
C400 C401 1.370 . S
C400 C402 1.363 . S
C400 H416 0.931 . S
C401 C400 1.370 . S
C401 C405 1.409 1_545 S
C402 C400 1.363 . S
C402 C403 1.370 . S
C402 C406 1.524 . S
C403 C395 1.503 . S
C403 C402 1.370 . S
C403 C404 1.403 1_545 S
C404 C403 1.403 1_565 S
C404 C405 1.404 . S
C404 C407 1.539 . S
C405 C401 1.409 1_565 S
C405 C404 1.404 . S
C405 H417 0.930 . S
C406 C402 1.524 . S
C406 H418 0.956 . S
C406 H419 0.961 . S
C406 H420 0.961 . S
C407 C404 1.539 . S
C407 H421 0.958 . S
C407 H422 0.961 . S
C407 H423 0.960 . S
H408 C392 0.931 . S
H409 C397 0.929 . S
H410 C398 0.960 . S
H411 C398 0.962 . S
H412 C398 0.960 . S
H413 C399 0.961 . S
H414 C399 0.961 . S
H415 C399 0.961 . S
H416 C400 0.931 . S
H417 C405 0.930 . S
H418 C406 0.956 . S
H419 C406 0.961 . S
H420 C406 0.961 . S
H421 C407 0.958 . S
H422 C407 0.961 . S
H423 C407 0.960 . S
C424 C425 1.391 1_556 S
C424 C426 1.394 . S
C424 H440 0.931 . S
C425 C424 1.391 1_554 S
C425 C429 1.376 . S
C426 C424 1.394 . S
C426 C427 1.369 1_556 S
C426 C430 1.531 . S
C427 C426 1.369 1_554 S
C427 C428 1.410 . S
C427 C435 1.503 . S
C428 C427 1.410 . S
C428 C429 1.392 . S
C428 C431 1.511 . S
C429 C425 1.376 . S
C429 C428 1.392 . S
C429 H441 0.929 . S
C430 C426 1.531 . S
C430 H442 0.960 . S
C430 H443 0.962 . S
C430 H444 0.960 . S
C431 C428 1.511 . S
C431 H445 0.961 . S
C431 H446 0.961 . S
C431 H447 0.961 . S
C432 C433 1.367 1_554 S
C432 C434 1.363 . S
C432 H448 0.931 . S
C433 C432 1.367 1_556 S
C433 C437 1.410 . S
C434 C432 1.363 . S
C434 C435 1.370 . S
C434 C438 1.524 . S
C435 C427 1.503 . S
C435 C434 1.370 . S
C435 C436 1.403 1_554 S
C436 C435 1.403 1_556 S
C436 C437 1.404 . S
C436 C439 1.539 . S
C437 C433 1.410 . S
C437 C436 1.404 . S
C437 H449 0.930 . S
C438 C434 1.524 . S
C438 H450 0.956 . S
C438 H451 0.961 . S
C438 H452 0.961 . S
C439 C436 1.539 . S
C439 H453 0.958 . S
C439 H454 0.961 1_556 S
C439 H455 0.960 1_556 S
H440 C424 0.931 . S
H441 C429 0.929 . S
H442 C430 0.960 . S
H443 C430 0.962 . S
H444 C430 0.960 . S
H445 C431 0.961 . S
H446 C431 0.961 . S
H447 C431 0.961 . S
H448 C432 0.931 . S
H449 C437 0.930 . S
H450 C438 0.956 . S
H451 C438 0.961 . S
H452 C438 0.961 . S
H453 C439 0.958 . S
H454 C439 0.961 1_554 S
H455 C439 0.960 1_554 S
C456 C457 1.391 . S
C456 C458 1.394 . S
C456 H472 0.931 . S
C457 C456 1.391 . S
C457 C461 1.376 . S
C458 C456 1.394 . S
C458 C459 1.369 . S
C458 C462 1.531 . S
C459 C458 1.369 . S
C459 C460 1.410 . S
C459 C467 1.503 . S
C460 C459 1.410 . S
C460 C461 1.392 . S
C460 C463 1.511 . S
C461 C457 1.376 . S
C461 C460 1.392 . S
C461 H473 0.929 . S
C462 C458 1.531 . S
C462 H474 0.960 . S
C462 H475 0.962 . S
C462 H476 0.960 . S
C463 C460 1.511 . S
C463 H477 0.961 1_554 S
C463 H478 0.961 1_554 S
C463 H479 0.961 . S
C464 C465 1.370 1_556 S
C464 C466 1.363 . S
C464 H480 0.931 . S
C465 C464 1.370 1_554 S
C465 C469 1.408 . S
C466 C464 1.363 . S
C466 C467 1.370 1_556 S
C466 C470 1.524 . S
C467 C459 1.503 . S
C467 C466 1.370 1_554 S
C467 C468 1.403 . S
C468 C467 1.403 . S
C468 C469 1.404 . S
C468 C471 1.539 . S
C469 C465 1.408 . S
C469 C468 1.404 . S
C469 H481 0.930 . S
C470 C466 1.524 . S
C470 H482 0.956 . S
C470 H483 0.961 . S
C470 H484 0.961 . S
C471 C468 1.539 . S
C471 H485 0.958 . S
C471 H486 0.961 . S
C471 H487 0.960 . S
H472 C456 0.931 . S
H473 C461 0.929 . S
H474 C462 0.960 . S
H475 C462 0.962 . S
H476 C462 0.960 . S
H477 C463 0.961 1_556 S
H478 C463 0.961 1_556 S
H479 C463 0.961 . S
H480 C464 0.931 . S
H481 C469 0.930 . S
H482 C470 0.956 . S
H483 C470 0.961 . S
H484 C470 0.961 . S
H485 C471 0.958 . S
H486 C471 0.961 . S
H487 C471 0.960 . S
C488 C489 1.391 . S
C488 C490 1.394 . S
C488 H504 0.931 . S
C489 C488 1.391 . S
C489 C493 1.376 . S
C490 C488 1.394 . S
C490 C491 1.369 . S
C490 C494 1.531 . S
C491 C490 1.369 . S
C491 C492 1.410 . S
C491 C499 1.503 . S
C492 C491 1.410 . S
C492 C493 1.392 . S
C492 C495 1.511 . S
C493 C489 1.376 . S
C493 C492 1.392 . S
C493 H505 0.929 1_554 S
C494 C490 1.531 . S
C494 H506 0.960 . S
C494 H507 0.962 . S
C494 H508 0.960 . S
C495 C492 1.511 . S
C495 H509 0.961 1_554 S
C495 H510 0.961 . S
C495 H511 0.961 . S
C496 C497 1.370 1_556 S
C496 C498 1.363 . S
C496 H512 0.931 . S
C497 C496 1.370 1_554 S
C497 C501 1.408 . S
C498 C496 1.363 . S
C498 C499 1.370 1_556 S
C498 C502 1.524 . S
C499 C491 1.503 . S
C499 C498 1.370 1_554 S
C499 C500 1.403 . S
C500 C499 1.403 . S
C500 C501 1.404 . S
C500 C503 1.539 . S
C501 C497 1.408 . S
C501 C500 1.404 . S
C501 H513 0.930 . S
C502 C498 1.524 . S
C502 H514 0.956 . S
C502 H515 0.961 . S
C502 H516 0.961 . S
C503 C500 1.539 . S
C503 H517 0.958 . S
C503 H518 0.961 . S
C503 H519 0.960 . S
H504 C488 0.931 . S
H505 C493 0.929 1_556 S
H506 C494 0.960 . S
H507 C494 0.962 . S
H508 C494 0.960 . S
H509 C495 0.961 1_556 S
H510 C495 0.961 . S
H511 C495 0.961 . S
H512 C496 0.931 . S
H513 C501 0.930 . S
H514 C502 0.956 . S
H515 C502 0.961 . S
H516 C502 0.961 . S
H517 C503 0.958 . S
H518 C503 0.961 . S
H519 C503 0.960 . S
C520 C521 1.391 1_556 S
C520 C522 1.394 1_556 S
C520 H536 0.931 . S
C521 C520 1.391 1_554 S
C521 C525 1.376 . S
C522 C520 1.394 1_554 S
C522 C523 1.369 . S
C522 C526 1.531 1_554 S
C523 C522 1.369 . S
C523 C524 1.410 . S
C523 C531 1.503 . S
C524 C523 1.410 . S
C524 C525 1.392 . S
C524 C527 1.511 . S
C525 C521 1.376 . S
C525 C524 1.392 . S
C525 H537 0.929 . S
C526 C522 1.531 1_556 S
C526 H538 0.960 1_556 S
C526 H539 0.962 . S
C526 H540 0.960 . S
C527 C524 1.511 . S
C527 H541 0.961 . S
C527 H542 0.961 . S
C527 H543 0.961 . S
C528 C529 1.379 . S
C528 C530 1.363 1_554 S
C528 H544 0.922 1_554 S
C529 C528 1.379 . S
C529 C533 1.408 . S
C530 C528 1.363 1_556 S
C530 C531 1.370 1_556 S
C530 C534 1.524 . S
C531 C523 1.503 . S
C531 C530 1.370 1_554 S
C531 C532 1.403 . S
C532 C531 1.403 . S
C532 C533 1.404 . S
C532 C535 1.539 . S
C533 C529 1.408 . S
C533 C532 1.404 . S
C533 H545 0.930 . S
C534 C530 1.524 . S
C534 H546 0.956 . S
C534 H547 0.961 . S
C534 H548 0.961 . S
C535 C532 1.539 . S
C535 H549 0.958 . S
C535 H550 0.961 . S
C535 H551 0.960 . S
H536 C520 0.931 . S
H537 C525 0.929 . S
H538 C526 0.960 1_554 S
H539 C526 0.962 . S
H540 C526 0.960 . S
H541 C527 0.961 . S
H542 C527 0.961 . S
H543 C527 0.961 . S
H544 C528 0.922 1_556 S
H545 C533 0.930 . S
H546 C534 0.956 . S
H547 C534 0.961 . S
H548 C534 0.961 . S
H549 C535 0.958 . S
H550 C535 0.961 . S
H551 C535 0.960 . S
C552 C553 1.391 . S
C552 C554 1.394 . S
C552 H568 0.931 . S
C553 C552 1.391 . S
C553 C557 1.376 . S
C554 C552 1.394 . S
C554 C555 1.369 . S
C554 C558 1.531 . S
C555 C554 1.369 . S
C555 C556 1.410 . S
C555 C563 1.503 . S
C556 C555 1.410 . S
C556 C557 1.392 . S
C556 C559 1.511 . S
C557 C553 1.376 . S
C557 C556 1.392 . S
C557 H569 0.929 . S
C558 C554 1.531 . S
C558 H570 0.960 . S
C558 H571 0.962 . S
C558 H572 0.960 . S
C559 C556 1.511 . S
C559 H573 0.961 . S
C559 H574 0.961 . S
C559 H575 0.961 . S
C560 C561 1.370 . S
C560 C562 1.363 . S
C560 H576 0.931 . S
C561 C560 1.370 . S
C561 C565 1.408 . S
C562 C560 1.363 . S
C562 C563 1.370 . S
C562 C566 1.524 . S
C563 C555 1.503 . S
C563 C562 1.370 . S
C563 C564 1.403 . S
C564 C563 1.403 . S
C564 C565 1.404 . S
C564 C567 1.539 . S
C565 C561 1.408 . S
C565 C564 1.404 . S
C565 H577 0.930 . S
C566 C562 1.524 . S
C566 H578 0.956 . S
C566 H579 0.961 . S
C566 H580 0.961 . S
C567 C564 1.539 . S
C567 H581 0.958 . S
C567 H582 0.961 . S
C567 H583 0.960 . S
H568 C552 0.931 . S
H569 C557 0.929 . S
H570 C558 0.960 . S
H571 C558 0.962 . S
H572 C558 0.960 . S
H573 C559 0.961 . S
H574 C559 0.961 . S
H575 C559 0.961 . S
H576 C560 0.931 . S
H577 C565 0.930 . S
H578 C566 0.956 . S
H579 C566 0.961 . S
H580 C566 0.961 . S
H581 C567 0.958 . S
H582 C567 0.961 . S
H583 C567 0.960 . S
C584 C585 1.391 . S
C584 C586 1.394 . S
C584 H600 0.931 . S
C585 C584 1.391 . S
C585 C589 1.376 . S
C586 C584 1.394 . S
C586 C587 1.369 . S
C586 C590 1.531 . S
C587 C586 1.369 . S
C587 C588 1.410 . S
C587 C595 1.503 . S
C588 C587 1.410 . S
C588 C589 1.392 . S
C588 C591 1.511 . S
C589 C585 1.376 . S
C589 C588 1.392 . S
C589 H601 0.929 . S
C590 C586 1.531 . S
C590 H602 0.960 . S
C590 H603 0.962 . S
C590 H604 0.960 . S
C591 C588 1.511 . S
C591 H605 0.961 . S
C591 H606 0.961 . S
C591 H607 0.961 . S
C592 C593 1.370 . S
C592 C594 1.363 . S
C592 H608 0.931 . S
C593 C592 1.370 . S
C593 C597 1.408 . S
C594 C592 1.363 . S
C594 C595 1.370 . S
C594 C598 1.524 . S
C595 C587 1.503 . S
C595 C594 1.370 . S
C595 C596 1.403 . S
C596 C595 1.403 . S
C596 C597 1.404 . S
C596 C599 1.539 . S
C597 C593 1.408 . S
C597 C596 1.404 . S
C597 H609 0.930 . S
C598 C594 1.524 . S
C598 H610 0.956 . S
C598 H611 0.961 . S
C598 H612 0.961 . S
C599 C596 1.539 . S
C599 H613 0.958 . S
C599 H614 0.961 . S
C599 H615 0.960 . S
H600 C584 0.931 . S
H601 C589 0.929 . S
H602 C590 0.960 . S
H603 C590 0.962 . S
H604 C590 0.960 . S
H605 C591 0.961 . S
H606 C591 0.961 . S
H607 C591 0.961 . S
H608 C592 0.931 . S
H609 C597 0.930 . S
H610 C598 0.956 . S
H611 C598 0.961 . S
H612 C598 0.961 . S
H613 C599 0.958 . S
H614 C599 0.961 . S
H615 C599 0.960 . S
C616 C617 1.391 . S
C616 C618 1.394 . S
C616 H632 0.931 . S
C617 C616 1.391 . S
C617 C621 1.376 . S
C618 C616 1.394 . S
C618 C619 1.369 . S
C618 C622 1.531 . S
C619 C618 1.369 . S
C619 C620 1.410 . S
C619 C627 1.503 . S
C620 C619 1.410 . S
C620 C621 1.392 . S
C620 C623 1.511 . S
C621 C617 1.376 . S
C621 C620 1.392 . S
C621 H633 0.929 . S
C622 C618 1.531 . S
C622 H634 0.960 . S
C622 H635 0.962 . S
C622 H636 0.960 . S
C623 C620 1.511 . S
C623 H637 0.961 . S
C623 H638 0.961 . S
C623 H639 0.961 . S
C624 C625 1.370 . S
C624 C626 1.363 . S
C624 H640 0.931 . S
C625 C624 1.370 . S
C625 C629 1.408 . S
C626 C624 1.363 . S
C626 C627 1.370 . S
C626 C630 1.524 . S
C627 C619 1.503 . S
C627 C626 1.370 . S
C627 C628 1.403 . S
C628 C627 1.403 . S
C628 C629 1.404 . S
C628 C631 1.539 . S
C629 C625 1.408 . S
C629 C628 1.404 . S
C629 H641 0.930 . S
C630 C626 1.524 . S
C630 H642 0.956 . S
C630 H643 0.961 . S
C630 H644 0.961 . S
C631 C628 1.539 . S
C631 H645 0.958 . S
C631 H646 0.961 . S
C631 H647 0.960 . S
H632 C616 0.931 . S
H633 C621 0.929 . S
H634 C622 0.960 . S
H635 C622 0.962 . S
H636 C622 0.960 . S
H637 C623 0.961 . S
H638 C623 0.961 . S
H639 C623 0.961 . S
H640 C624 0.931 . S
H641 C629 0.930 . S
H642 C630 0.956 . S
H643 C630 0.961 . S
H644 C630 0.961 . S
H645 C631 0.958 . S
H646 C631 0.961 . S
H647 C631 0.960 . S
C648 C649 1.391 . S
C648 C650 1.394 . S
C648 H664 0.931 . S
C649 C648 1.391 . S
C649 C653 1.376 . S
C650 C648 1.394 . S
C650 C651 1.369 . S
C650 C654 1.531 . S
C651 C650 1.369 . S
C651 C652 1.410 . S
C651 C659 1.503 . S
C652 C651 1.410 . S
C652 C653 1.392 . S
C652 C655 1.511 . S
C653 C649 1.376 . S
C653 C652 1.392 . S
C653 H665 0.929 . S
C654 C650 1.531 . S
C654 H666 0.960 . S
C654 H667 0.962 . S
C654 H668 0.960 . S
C655 C652 1.511 . S
C655 H669 0.961 . S
C655 H670 0.961 . S
C655 H671 0.961 . S
C656 C657 1.370 . S
C656 C658 1.363 . S
C656 H672 0.931 . S
C657 C656 1.370 . S
C657 C661 1.408 . S
C658 C656 1.363 . S
C658 C659 1.370 . S
C658 C662 1.524 . S
C659 C651 1.503 . S
C659 C658 1.370 . S
C659 C660 1.403 . S
C660 C659 1.403 . S
C660 C661 1.404 . S
C660 C663 1.539 . S
C661 C657 1.408 . S
C661 C660 1.404 . S
C661 H673 0.930 . S
C662 C658 1.524 . S
C662 H674 0.956 . S
C662 H675 0.961 . S
C662 H676 0.961 . S
C663 C660 1.539 . S
C663 H677 0.958 . S
C663 H678 0.961 . S
C663 H679 0.960 . S
H664 C648 0.931 . S
H665 C653 0.929 . S
H666 C654 0.960 . S
H667 C654 0.962 . S
H668 C654 0.960 . S
H669 C655 0.961 . S
H670 C655 0.961 . S
H671 C655 0.961 . S
H672 C656 0.931 . S
H673 C661 0.930 . S
H674 C662 0.956 . S
H675 C662 0.961 . S
H676 C662 0.961 . S
H677 C663 0.958 . S
H678 C663 0.961 . S
H679 C663 0.960 . S
C680 C681 1.391 . S
C680 C682 1.394 . S
C680 H696 0.931 . S
C681 C680 1.391 . S
C681 C685 1.376 . S
C682 C680 1.394 . S
C682 C683 1.369 . S
C682 C686 1.531 . S
C683 C682 1.369 . S
C683 C684 1.410 . S
C683 C691 1.503 . S
C684 C683 1.410 . S
C684 C685 1.392 . S
C684 C687 1.511 . S
C685 C681 1.376 . S
C685 C684 1.392 . S
C685 H697 0.929 . S
C686 C682 1.531 . S
C686 H698 0.960 . S
C686 H699 0.962 . S
C686 H700 0.960 . S
C687 C684 1.511 . S
C687 H701 0.961 . S
C687 H702 0.961 . S
C687 H703 0.961 . S
C688 C689 1.370 . S
C688 C690 1.363 . S
C688 H704 0.931 . S
C689 C688 1.370 . S
C689 C693 1.408 . S
C690 C688 1.363 . S
C690 C691 1.370 . S
C690 C694 1.524 . S
C691 C683 1.503 . S
C691 C690 1.370 . S
C691 C692 1.403 . S
C692 C691 1.403 . S
C692 C693 1.404 . S
C692 C695 1.539 . S
C693 C689 1.408 . S
C693 C692 1.404 . S
C693 H705 0.930 . S
C694 C690 1.524 . S
C694 H706 0.956 . S
C694 H707 0.961 . S
C694 H708 0.961 . S
C695 C692 1.539 . S
C695 H709 0.958 . S
C695 H710 0.961 . S
C695 H711 0.960 . S
H696 C680 0.931 . S
H697 C685 0.929 . S
H698 C686 0.960 . S
H699 C686 0.962 . S
H700 C686 0.960 . S
H701 C687 0.961 . S
H702 C687 0.961 . S
H703 C687 0.961 . S
H704 C688 0.931 . S
H705 C693 0.930 . S
H706 C694 0.956 . S
H707 C694 0.961 . S
H708 C694 0.961 . S
H709 C695 0.958 . S
H710 C695 0.961 . S
H711 C695 0.960 . S
C712 C713 1.391 . S
C712 C714 1.394 . S
C712 H728 0.931 . S
C713 C712 1.391 . S
C713 C717 1.376 . S
C714 C712 1.394 . S
C714 C715 1.369 . S
C714 C718 1.531 . S
C715 C714 1.369 . S
C715 C716 1.410 . S
C715 C723 1.503 . S
C716 C715 1.410 . S
C716 C717 1.392 . S
C716 C719 1.511 . S
C717 C713 1.376 . S
C717 C716 1.392 . S
C717 H729 0.929 . S
C718 C714 1.531 . S
C718 H730 0.960 . S
C718 H731 0.962 . S
C718 H732 0.960 . S
C719 C716 1.511 . S
C719 H733 0.961 . S
C719 H734 0.961 . S
C719 H735 0.961 . S
C720 C721 1.370 . S
C720 C722 1.363 . S
C720 H736 0.931 . S
C721 C720 1.370 . S
C721 C725 1.408 . S
C722 C720 1.363 . S
C722 C723 1.370 . S
C722 C726 1.524 . S
C723 C715 1.503 . S
C723 C722 1.370 . S
C723 C724 1.403 . S
C724 C723 1.403 . S
C724 C725 1.404 . S
C724 C727 1.539 . S
C725 C721 1.408 . S
C725 C724 1.404 . S
C725 H737 0.930 . S
C726 C722 1.524 . S
C726 H738 0.956 . S
C726 H739 0.961 . S
C726 H740 0.961 . S
C727 C724 1.539 . S
C727 H741 0.958 . S
C727 H742 0.961 . S
C727 H743 0.960 . S
H728 C712 0.931 . S
H729 C717 0.929 . S
H730 C718 0.960 . S
H731 C718 0.962 . S
H732 C718 0.960 . S
H733 C719 0.961 . S
H734 C719 0.961 . S
H735 C719 0.961 . S
H736 C720 0.931 . S
H737 C725 0.930 . S
H738 C726 0.956 . S
H739 C726 0.961 . S
H740 C726 0.961 . S
H741 C727 0.958 . S
H742 C727 0.961 . S
H743 C727 0.960 . S
C744 C745 1.391 . S
C744 C746 1.394 . S
C744 H760 0.931 . S
C745 C744 1.391 . S
C745 C749 1.376 . S
C746 C744 1.394 . S
C746 C747 1.369 . S
C746 C750 1.531 . S
C747 C746 1.369 . S
C747 C748 1.410 . S
C747 C755 1.503 . S
C748 C747 1.410 . S
C748 C749 1.392 . S
C748 C751 1.511 . S
C749 C745 1.376 . S
C749 C748 1.392 . S
C749 H761 0.929 . S
C750 C746 1.531 . S
C750 H762 0.960 . S
C750 H763 0.962 . S
C750 H764 0.960 . S
C751 C748 1.511 . S
C751 H765 0.961 . S
C751 H766 0.961 . S
C751 H767 0.961 . S
C752 C753 1.370 . S
C752 C754 1.363 . S
C752 H768 0.931 . S
C753 C752 1.370 . S
C753 C757 1.408 . S
C754 C752 1.363 . S
C754 C755 1.370 . S
C754 C758 1.524 . S
C755 C747 1.503 . S
C755 C754 1.370 . S
C755 C756 1.403 . S
C756 C755 1.403 . S
C756 C757 1.404 . S
C756 C759 1.539 . S
C757 C753 1.408 . S
C757 C756 1.404 . S
C757 H769 0.930 . S
C758 C754 1.524 . S
C758 H770 0.956 . S
C758 H771 0.961 . S
C758 H772 0.961 . S
C759 C756 1.539 . S
C759 H773 0.958 . S
C759 H774 0.961 . S
C759 H775 0.960 . S
H760 C744 0.931 . S
H761 C749 0.929 . S
H762 C750 0.960 . S
H763 C750 0.962 . S
H764 C750 0.960 . S
H765 C751 0.961 . S
H766 C751 0.961 . S
H767 C751 0.961 . S
H768 C752 0.931 . S
H769 C757 0.930 . S
H770 C758 0.956 . S
H771 C758 0.961 . S
H772 C758 0.961 . S
H773 C759 0.958 . S
H774 C759 0.961 . S
H775 C759 0.960 . S
C776 C777 1.391 . S
C776 C778 1.394 . S
C776 H792 0.931 . S
C777 C776 1.391 . S
C777 C781 1.376 . S
C778 C776 1.394 . S
C778 C779 1.369 . S
C778 C782 1.531 . S
C779 C778 1.369 . S
C779 C780 1.410 . S
C779 C787 1.503 . S
C780 C779 1.410 . S
C780 C781 1.392 . S
C780 C783 1.511 . S
C781 C777 1.376 . S
C781 C780 1.392 . S
C781 H793 0.929 . S
C782 C778 1.531 . S
C782 H794 0.960 . S
C782 H795 0.962 . S
C782 H796 0.960 . S
C783 C780 1.511 . S
C783 H797 0.961 . S
C783 H798 0.961 . S
C783 H799 0.961 . S
C784 C785 1.370 . S
C784 C786 1.363 . S
C784 H800 0.931 . S
C785 C784 1.370 . S
C785 C789 1.408 . S
C786 C784 1.363 . S
C786 C787 1.370 . S
C786 C790 1.524 . S
C787 C779 1.503 . S
C787 C786 1.370 . S
C787 C788 1.403 . S
C788 C787 1.403 . S
C788 C789 1.404 . S
C788 C791 1.539 . S
C789 C785 1.408 . S
C789 C788 1.404 . S
C789 H801 0.930 . S
C790 C786 1.524 . S
C790 H802 0.956 . S
C790 H803 0.961 . S
C790 H804 0.961 . S
C791 C788 1.539 . S
C791 H805 0.958 . S
C791 H806 0.961 . S
C791 H807 0.960 . S
H792 C776 0.931 . S
H793 C781 0.929 . S
H794 C782 0.960 . S
H795 C782 0.962 . S
H796 C782 0.960 . S
H797 C783 0.961 . S
H798 C783 0.961 . S
H799 C783 0.961 . S
H800 C784 0.931 . S
H801 C789 0.930 . S
H802 C790 0.956 . S
H803 C790 0.961 . S
H804 C790 0.961 . S
H805 C791 0.958 . S
H806 C791 0.961 . S
H807 C791 0.960 . S
C808 C809 1.391 . S
C808 C810 1.394 . S
C808 H824 0.931 . S
C809 C808 1.391 . S
C809 C813 1.376 . S
C810 C808 1.394 . S
C810 C811 1.369 . S
C810 C814 1.531 . S
C811 C810 1.369 . S
C811 C812 1.410 . S
C811 C819 1.503 . S
C812 C811 1.410 . S
C812 C813 1.392 . S
C812 C815 1.511 . S
C813 C809 1.376 . S
C813 C812 1.392 . S
C813 H825 0.929 . S
C814 C810 1.531 . S
C814 H826 0.960 . S
C814 H827 0.962 . S
C814 H828 0.960 . S
C815 C812 1.511 . S
C815 H829 0.961 . S
C815 H830 0.961 . S
C815 H831 0.961 . S
C816 C817 1.370 . S
C816 C818 1.363 . S
C816 H832 0.931 . S
C817 C816 1.370 . S
C817 C821 1.408 . S
C818 C816 1.363 . S
C818 C819 1.370 . S
C818 C822 1.524 . S
C819 C811 1.503 . S
C819 C818 1.370 . S
C819 C820 1.403 . S
C820 C819 1.403 . S
C820 C821 1.404 . S
C820 C823 1.539 . S
C821 C817 1.408 . S
C821 C820 1.404 . S
C821 H833 0.930 . S
C822 C818 1.524 . S
C822 H834 0.956 . S
C822 H835 0.961 . S
C822 H836 0.961 . S
C823 C820 1.539 . S
C823 H837 0.958 . S
C823 H838 0.961 . S
C823 H839 0.960 . S
H824 C808 0.931 . S
H825 C813 0.929 . S
H826 C814 0.960 . S
H827 C814 0.962 . S
H828 C814 0.960 . S
H829 C815 0.961 . S
H830 C815 0.961 . S
H831 C815 0.961 . S
H832 C816 0.931 . S
H833 C821 0.930 . S
H834 C822 0.956 . S
H835 C822 0.961 . S
H836 C822 0.961 . S
H837 C823 0.958 . S
H838 C823 0.961 . S
H839 C823 0.960 . S
C840 C841 1.391 . S
C840 C842 1.394 . S
C840 H856 0.931 . S
C841 C840 1.391 . S
C841 C845 1.376 . S
C842 C840 1.394 . S
C842 C843 1.369 . S
C842 C846 1.531 . S
C843 C842 1.369 . S
C843 C844 1.410 . S
C843 C851 1.503 . S
C844 C843 1.410 . S
C844 C845 1.392 . S
C844 C847 1.511 . S
C845 C841 1.376 . S
C845 C844 1.392 . S
C845 H857 0.929 . S
C846 C842 1.531 . S
C846 H858 0.960 . S
C846 H859 0.962 . S
C846 H860 0.960 . S
C847 C844 1.511 . S
C847 H861 0.961 . S
C847 H862 0.961 . S
C847 H863 0.961 . S
C848 C849 1.370 . S
C848 C850 1.363 . S
C848 H864 0.931 . S
C849 C848 1.370 . S
C849 C853 1.408 . S
C850 C848 1.363 . S
C850 C851 1.370 . S
C850 C854 1.524 . S
C851 C843 1.503 . S
C851 C850 1.370 . S
C851 C852 1.403 . S
C852 C851 1.403 . S
C852 C853 1.404 . S
C852 C855 1.539 . S
C853 C849 1.408 . S
C853 C852 1.404 . S
C853 H865 0.930 . S
C854 C850 1.524 . S
C854 H866 0.956 . S
C854 H867 0.961 . S
C854 H868 0.961 . S
C855 C852 1.539 . S
C855 H869 0.958 . S
C855 H870 0.961 . S
C855 H871 0.960 . S
H856 C840 0.931 . S
H857 C845 0.929 . S
H858 C846 0.960 . S
H859 C846 0.962 . S
H860 C846 0.960 . S
H861 C847 0.961 . S
H862 C847 0.961 . S
H863 C847 0.961 . S
H864 C848 0.931 . S
H865 C853 0.930 . S
H866 C854 0.956 . S
H867 C854 0.961 . S
H868 C854 0.961 . S
H869 C855 0.958 . S
H870 C855 0.961 . S
H871 C855 0.960 . S
C872 C873 1.391 . S
C872 C874 1.394 . S
C872 H888 0.931 . S
C873 C872 1.391 . S
C873 C877 1.376 . S
C874 C872 1.394 . S
C874 C875 1.369 . S
C874 C878 1.531 . S
C875 C874 1.369 . S
C875 C876 1.410 . S
C875 C883 1.503 . S
C876 C875 1.410 . S
C876 C877 1.392 . S
C876 C879 1.511 . S
C877 C873 1.376 . S
C877 C876 1.392 . S
C877 H889 0.929 . S
C878 C874 1.531 . S
C878 H890 0.960 . S
C878 H891 0.962 . S
C878 H892 0.960 . S
C879 C876 1.511 . S
C879 H893 0.961 . S
C879 H894 0.961 . S
C879 H895 0.961 . S
C880 C881 1.370 . S
C880 C882 1.363 . S
C880 H896 0.931 . S
C881 C880 1.370 . S
C881 C885 1.408 . S
C882 C880 1.363 . S
C882 C883 1.370 . S
C882 C886 1.524 . S
C883 C875 1.503 . S
C883 C882 1.370 . S
C883 C884 1.403 . S
C884 C883 1.403 . S
C884 C885 1.404 . S
C884 C887 1.539 . S
C885 C881 1.408 . S
C885 C884 1.404 . S
C885 H897 0.930 . S
C886 C882 1.524 . S
C886 H898 0.956 . S
C886 H899 0.961 . S
C886 H900 0.961 . S
C887 C884 1.539 . S
C887 H901 0.958 . S
C887 H902 0.961 . S
C887 H903 0.960 . S
H888 C872 0.931 . S
H889 C877 0.929 . S
H890 C878 0.960 . S
H891 C878 0.962 . S
H892 C878 0.960 . S
H893 C879 0.961 . S
H894 C879 0.961 . S
H895 C879 0.961 . S
H896 C880 0.931 . S
H897 C885 0.930 . S
H898 C886 0.956 . S
H899 C886 0.961 . S
H900 C886 0.961 . S
H901 C887 0.958 . S
H902 C887 0.961 . S
H903 C887 0.960 . S
C904 C905 1.391 . S
C904 C906 1.394 . S
C904 H920 0.931 . S
C905 C904 1.391 . S
C905 C909 1.376 . S
C906 C904 1.394 . S
C906 C907 1.369 . S
C906 C910 1.531 . S
C907 C906 1.369 . S
C907 C908 1.410 . S
C907 C915 1.503 . S
C908 C907 1.410 . S
C908 C909 1.392 . S
C908 C911 1.511 . S
C909 C905 1.376 . S
C909 C908 1.392 . S
C909 H921 0.929 . S
C910 C906 1.531 . S
C910 H922 0.960 . S
C910 H923 0.962 . S
C910 H924 0.960 . S
C911 C908 1.511 . S
C911 H925 0.961 . S
C911 H926 0.961 . S
C911 H927 0.961 . S
C912 C913 1.370 . S
C912 C914 1.363 . S
C912 H928 0.931 . S
C913 C912 1.370 . S
C913 C917 1.408 . S
C914 C912 1.363 . S
C914 C915 1.370 . S
C914 C918 1.524 . S
C915 C907 1.503 . S
C915 C914 1.370 . S
C915 C916 1.403 . S
C916 C915 1.403 . S
C916 C917 1.404 . S
C916 C919 1.539 . S
C917 C913 1.408 . S
C917 C916 1.404 . S
C917 H929 0.930 . S
C918 C914 1.524 . S
C918 H930 0.956 . S
C918 H931 0.961 . S
C918 H932 0.961 . S
C919 C916 1.539 . S
C919 H933 0.958 . S
C919 H934 0.961 . S
C919 H935 0.960 . S
H920 C904 0.931 . S
H921 C909 0.929 . S
H922 C910 0.960 . S
H923 C910 0.962 . S
H924 C910 0.960 . S
H925 C911 0.961 . S
H926 C911 0.961 . S
H927 C911 0.961 . S
H928 C912 0.931 . S
H929 C917 0.930 . S
H930 C918 0.956 . S
H931 C918 0.961 . S
H932 C918 0.961 . S
H933 C919 0.958 . S
H934 C919 0.961 . S
H935 C919 0.960 . S
C169 C11 1.440 . S
C177 C81 1.478 . S
C201 C14 1.403 . S
C209 C56 1.433 . S
C233 C79 1.383 . S
C241 C37 1.389 . S
C265 C42 1.442 . S
C273 C61 1.439 . S
C297 C109 1.449 . S
C305 C39 1.476 . S
C329 C89 1.415 . S
C337 C47 1.439 . S
C361 C9 1.411 . S
C369 C107 1.398 . S
C393 C84 1.433 . S
C401 C19 1.441 . S
C425 C126 1.449 . S
C433 C123 1.456 1_556 S
C457 C121 1.428 . S
C465 C154 1.393 . S
C489 C131 1.397 1_554 S
C497 C149 1.421 . S
C521 C151 1.419 . S
C529 C159 1.465 . S
C553 C165 1.478 . S
C561 C95 1.462 . S
C585 C112 1.448 . S
C593 C98 1.419 . S
C617 C93 1.376 . S
C625 C135 1.393 . S
C649 C103 1.449 . S
C657 C140 1.415 . S
C681 C67 1.472 . S
C689 C137 1.470 . S
C713 C75 1.433 . S
C721 C145 1.429 . S
C745 C163 1.412 . S
C753 C65 1.396 . S
C777 C117 1.442 . S
C785 C70 1.430 . S
C809 C25 1.433 . S
C817 C28 1.454 . S
C841 C0 1.374 . S
C849 C23 1.428 . S
C873 C33 1.398 . S
C881 C51 1.421 . S
C905 C5 1.441 . S
C913 C53 1.453 . S
