# Generated by pormake.
# Topology bsn, (6)-cn, num edge types: 1
# Building blocks:
#     Node 0, Type 0, BuildingBlock: VOLQOD_clean_sbu_1, # of connection points: 6
#     Node 1, Type 0, BuildingBlock: VOLQOD_clean_sbu_1, # of connection points: 6
#     Node 2, Type 0, BuildingBlock: VOLQOD_clean_sbu_1, # of connection points: 6
#     Node 3, Type 0, BuildingBlock: VOLQOD_clean_sbu_1, # of connection points: 6
#     Edge 4, Type (0, 0), BuildingBlock: FUNLAD_clean_linker_1, # of connection points: 2
#     Edge 5, Type (0, 0), BuildingBlock: FUNLAD_clean_linker_1, # of connection points: 2
#     Edge 6, Type (0, 0), BuildingBlock: FUNLAD_clean_linker_1, # of connection points: 2
#     Edge 7, Type (0, 0), BuildingBlock: FUNLAD_clean_linker_1, # of connection points: 2
#     Edge 8, Type (0, 0), BuildingBlock: FUNLAD_clean_linker_1, # of connection points: 2
#     Edge 9, Type (0, 0), BuildingBlock: FUNLAD_clean_linker_1, # of connection points: 2
#     Edge 10, Type (0, 0), BuildingBlock: FUNLAD_clean_linker_1, # of connection points: 2
#     Edge 11, Type (0, 0), BuildingBlock: FUNLAD_clean_linker_1, # of connection points: 2
#     Edge 12, Type (0, 0), BuildingBlock: FUNLAD_clean_linker_1, # of connection points: 2
#     Edge 13, Type (0, 0), BuildingBlock: FUNLAD_clean_linker_1, # of connection points: 2
#     Edge 14, Type (0, 0), BuildingBlock: FUNLAD_clean_linker_1, # of connection points: 2
#     Edge 15, Type (0, 0), BuildingBlock: FUNLAD_clean_linker_1, # of connection points: 2
# Relax obj value: 0.019
# Max RMSD: 0.063
# Mean RMSD: 0.061
data_MOF--net-bsn--node1-VOLQOD_clean_sbu_1--edge1-FUNLAD_clean_linker_1
_symmetry_space_group_name_H-M    P1
_symmetry_Int_Tables_number       1
_symmetry_cell_setting            triclinic
loop_
_symmetry_equiv_pos_as_xyz
'x, y, z'
_cell_length_a     33.927683
_cell_length_b     34.025203
_cell_length_c     17.624071
_cell_angle_alpha  90.203223
_cell_angle_beta   89.919341
_cell_angle_gamma 90.562419
loop_
_atom_site_label
_atom_site_type_symbol
_atom_site_fract_x
_atom_site_fract_y
_atom_site_fract_z
_atom_type_partial_charge
O0 O 0.04132 0.25888 0.5322 0.0
Zn1 Zn 0.04196 0.27644 0.42364 0.0
O2 O 0.00433 0.24623 0.36377 0.0
Zn3 Zn 0.03338 0.21229 0.29405 0.0
Zn4 Zn 0.97155 0.21502 0.43192 0.0
Zn5 Zn 0.9704 0.28182 0.30801 0.0
O6 O 0.01452 0.22129 0.18728 0.0
O7 O 0.98073 0.27701 0.19617 0.0
O8 O 0.09703 0.27306 0.38127 0.0
O9 O 0.0915 0.2273 0.29157 0.0
O10 O 0.02709 0.15459 0.32371 0.0
O11 O 0.98533 0.15815 0.4209 0.0
O12 O 0.91322 0.21996 0.40838 0.0
O13 O 0.0268 0.33331 0.42569 0.0
O14 O 0.91336 0.26646 0.3204 0.0
O15 O 0.97703 0.3381 0.34447 0.0
C16 C 0.0138 0.24345 0.5715 0.0
C17 C 0.99632 0.24981 0.15682 0.0
C18 C 0.00717 0.13824 0.37659 0.0
C19 C 0.11208 0.25233 0.32867 0.0
C20 C 0.89501 0.24159 0.36146 0.0
C21 C 1.00076 0.35358 0.3922 0.0
O22 O 0.98279 0.22904 0.54099 0.0
O23 O 0.03747 0.73568 0.4383 0.0
Zn24 Zn 0.05222 0.72331 0.54652 0.0
O25 O 0.01437 0.74601 0.61673 0.0
Zn26 Zn 0.0406 0.78538 0.67873 0.0
Zn27 Zn 0.97255 0.77092 0.55992 0.0
Zn28 Zn 0.99215 0.70516 0.6813 0.0
O29 O 0.0294 0.77619 0.78889 0.0
O30 O 0.00812 0.71399 0.79069 0.0
O31 O 0.10829 0.73929 0.57227 0.0
O32 O 0.099 0.77977 0.66969 0.0
O33 O 0.02664 0.84054 0.64641 0.0
O34 O 0.98105 0.82978 0.55801 0.0
O35 O 0.91887 0.75801 0.60533 0.0
O36 O 0.04977 0.66444 0.55245 0.0
O37 O 0.93344 0.70858 0.68232 0.0
O38 O 0.0061 0.65081 0.6431 0.0
C39 C 1.00385 0.74338 0.40985 0.0
C40 C 0.01949 0.74524 0.82484 0.0
C41 C 1.00325 0.85311 0.59569 0.0
C42 C 0.12178 0.76107 0.62532 0.0
C43 C 0.90851 0.73136 0.65227 0.0
C44 C 0.02985 0.63985 0.59124 0.0
O45 O 0.97469 0.75332 0.451 0.0
O46 O 0.49103 0.73771 0.68715 0.0
Zn47 Zn 0.48017 0.73031 0.79804 0.0
O48 O 0.5131 0.76493 0.85894 0.0
Zn49 Zn 0.55229 0.7336 0.91139 0.0
Zn50 Zn 0.53962 0.80284 0.7936 0.0
Zn51 Zn 0.47996 0.79228 0.93226 0.0
O52 O 0.55304 0.74812 0.02211 0.0
O53 O 0.49531 0.77766 0.03905 0.0
O54 O 0.48598 0.67361 0.82929 0.0
O55 O 0.53685 0.67619 0.90857 0.0
O56 O 0.60703 0.74143 0.86619 0.0
O57 O 0.59752 0.79373 0.79342 0.0
O58 O 0.53138 0.85869 0.82958 0.0
O59 O 0.42368 0.74427 0.81118 0.0
O60 O 0.4897 0.8504 0.92576 0.0
O61 O 0.4216 0.78383 0.91153 0.0
C62 C 0.50676 0.76604 0.65073 0.0
C63 C 0.52699 0.76306 0.06527 0.0
C64 C 0.62002 0.76799 0.82147 0.0
C65 C 0.5097 0.65692 0.87457 0.0
C66 C 0.51057 0.87255 0.88337 0.0
C67 C 0.40441 0.76497 0.85829 0.0
O68 O 0.52369 0.79484 0.68433 0.0
O69 O 0.51052 0.23607 0.27155 0.0
Zn70 Zn 0.52755 0.22536 0.16376 0.0
O71 O 0.5047 0.26497 0.09711 0.0
Zn72 Zn 0.46852 0.24098 0.0249 0.0
Zn73 Zn 0.47487 0.30375 0.15452 0.0
Zn74 Zn 0.54746 0.29037 0.04204 0.0
O75 O 0.48358 0.25428 0.91756 0.0
O76 O 0.54511 0.27651 0.93104 0.0
O77 O 0.51289 0.16995 0.12792 0.0
O78 O 0.47223 0.18286 0.03233 0.0
O79 O 0.41154 0.25324 0.0467 0.0
O80 O 0.4161 0.2944 0.14424 0.0
O81 O 0.48852 0.35933 0.11914 0.0
O82 O 0.58708 0.23001 0.16743 0.0
O83 O 0.54165 0.3487 0.04786 0.0
O84 O 0.60089 0.27686 0.08395 0.0
C85 C 0.49722 0.26694 0.30362 0.0
C86 C 0.51652 0.26519 0.8894 0.0
C87 C 0.39548 0.2738 0.09837 0.0
C88 C 0.49037 0.15862 0.07393 0.0
C89 C 0.5168 0.37188 0.07758 0.0
C90 C 0.61184 0.25222 0.13357 0.0
O91 O 0.48557 0.29649 0.2658 0.0
H92 H 0.97217 0.4117 0.38752 0.0
C93 C 0.99652 0.39556 0.41201 0.0
H94 H 0.04445 0.39725 0.48825 0.0
H95 H 1.00338 0.58691 0.43306 0.0
H96 H 0.01824 0.57581 0.3003 0.0
H97 H 0.03367 0.50936 0.25311 0.0
H98 H 0.03301 0.45352 0.33803 0.0
C99 C 0.02083 0.41358 0.4617 0.0
C100 C 0.01393 0.45434 0.48954 0.0
C101 C 0.01672 0.48692 0.43971 0.0
C102 C 0.01057 0.52562 0.46791 0.0
C103 C 0.01024 0.55724 0.41576 0.0
C104 C 0.01834 0.55123 0.33914 0.0
C105 C 0.02681 0.5138 0.31252 0.0
C106 C 0.02605 0.48192 0.36191 0.0
H107 H 0.05938 0.58874 0.54074 0.0
C108 C 0.03301 0.59802 0.57075 0.0
H109 H 0.97581 0.5817 0.60694 0.0
H110 H 1.00314 0.39829 0.59925 0.0
H111 H 0.98964 0.40979 0.73249 0.0
H112 H 0.98405 0.4772 0.78295 0.0
H113 H 0.99097 0.53356 0.70004 0.0
C114 C 1.00264 0.57269 0.57824 0.0
C115 C 0.00466 0.53197 0.54687 0.0
C116 C 1.00123 0.49939 0.59636 0.0
C117 C 0.00551 0.46054 0.56757 0.0
C118 C 1.00101 0.42849 0.61813 0.0
C119 C 0.99319 0.43464 0.69484 0.0
C120 C 0.98991 0.47259 0.72319 0.0
C121 C 0.99391 0.50469 0.67488 0.0
H122 H 0.67119 0.79418 0.76385 0.0
C123 C 0.66164 0.76924 0.79797 0.0
H124 H 0.6781 0.71419 0.84247 0.0
H125 H 0.80811 0.69811 0.58282 0.0
H126 H 0.76127 0.64709 0.54668 0.0
H127 H 0.69843 0.63892 0.61569 0.0
H128 H 0.68203 0.68173 0.72122 0.0
C129 C 0.6873 0.74046 0.81206 0.0
C130 C 0.72731 0.74221 0.7774 0.0
C131 C 0.73678 0.71635 0.71697 0.0
C132 C 0.77319 0.72078 0.67769 0.0
C133 C 0.7813 0.69546 0.61576 0.0
C134 C 0.75455 0.66621 0.59408 0.0
C135 C 0.71915 0.66165 0.63287 0.0
C136 C 0.71012 0.68643 0.69342 0.0
H137 H 0.85972 0.702 0.71226 0.0
C138 C 0.86719 0.72705 0.67663 0.0
H139 H 0.84677 0.78039 0.63082 0.0
H140 H 0.72019 0.79374 0.89621 0.0
H141 H 0.76716 0.84456 0.9328 0.0
H142 H 0.82975 0.85312 0.86311 0.0
H143 H 0.84581 0.81083 0.75663 0.0
C144 C 0.83955 0.75392 0.66247 0.0
C145 C 0.80031 0.75065 0.6998 0.0
C146 C 0.79105 0.7762 0.76084 0.0
C147 C 0.75472 0.77168 0.80027 0.0
C148 C 0.74686 0.79663 0.86289 0.0
C149 C 0.7737 0.82572 0.88488 0.0
C150 C 0.80896 0.8305 0.84572 0.0
C151 C 0.81778 0.80603 0.7846 0.0
H152 H 0.54928 0.42391 0.03748 0.0
C153 C 0.52083 0.41387 0.05884 0.0
H154 H 0.46137 0.4292 0.07742 0.0
H155 H 0.49724 0.61302 0.0785 0.0
H156 H 0.47326 0.60272 0.20654 0.0
H157 H 0.46015 0.53585 0.25451 0.0
H158 H 0.47 0.47882 0.17391 0.0
C159 C 0.49023 0.43858 0.05725 0.0
C160 C 0.49528 0.47914 0.02644 0.0
C161 C 0.4899 0.51208 0.07455 0.0
C162 C 0.4984 0.5506 0.04742 0.0
C163 C 0.49201 0.58304 0.09642 0.0
C164 C 0.47821 0.57757 0.17014 0.0
C165 C 0.4707 0.53992 0.19705 0.0
C166 C 0.47648 0.50744 0.15015 0.0
H167 H 0.4796 0.59933 0.86291 0.0
C168 C 0.50329 0.6149 0.8921 0.0
H169 H 0.54607 0.61232 0.97871 0.0
H170 H 0.49975 0.42356 0.91366 0.0
H171 H 0.52422 0.43346 0.78579 0.0
H172 H 0.54575 0.49921 0.74296 0.0
H173 H 0.54189 0.55554 0.82704 0.0
C174 C 0.52365 0.59645 0.94663 0.0
C175 C 0.51279 0.55609 0.97247 0.0
C176 C 0.51719 0.52319 0.92361 0.0
C177 C 0.50712 0.48487 0.94983 0.0
C178 C 0.50906 0.45294 0.89814 0.0
C179 C 0.52271 0.45827 0.82429 0.0
C180 C 0.53465 0.49531 0.80009 0.0
C181 C 0.53202 0.52748 0.84888 0.0
H182 H 0.83687 0.21423 0.38621 0.0
C183 C 0.85201 0.23593 0.35134 0.0
H184 H 0.84717 0.27557 0.25997 0.0
H185 H 0.70271 0.19392 0.10122 0.0
H186 H 0.75598 0.17368 0.01842 0.0
H187 H 0.82532 0.18608 0.0538 0.0
H188 H 0.84182 0.21852 0.17244 0.0
C189 C 0.83191 0.2551 0.29729 0.0
C190 C 0.78996 0.24568 0.27916 0.0
C191 C 0.78074 0.22713 0.20908 0.0
C192 C 0.74073 0.22053 0.18806 0.0
C193 C 0.73252 0.20076 0.11893 0.0
C194 C 0.76283 0.18868 0.07111 0.0
C195 C 0.80187 0.19563 0.09107 0.0
C196 C 0.81091 0.21445 0.15925 0.0
H197 H 0.67425 0.27014 0.12275 0.0
C198 C 0.65405 0.2512 0.15407 0.0
H199 H 0.64786 0.21195 0.24608 0.0
H200 H 0.79715 0.28229 0.41724 0.0
H201 H 0.7439 0.30147 0.50091 0.0
H202 H 0.67455 0.28955 0.46498 0.0
H203 H 0.65804 0.25855 0.34499 0.0
C204 C 0.66789 0.22972 0.21203 0.0
C205 C 0.70989 0.23322 0.23647 0.0
C206 C 0.7191 0.25049 0.30778 0.0
C207 C 0.75916 0.257 0.32893 0.0
C208 C 0.76737 0.27585 0.39899 0.0
C209 C 0.73704 0.28722 0.44745 0.0
C210 C 0.698 0.28054 0.4272 0.0
C211 C 0.68895 0.2626 0.35814 0.0
H212 H 0.33566 0.2529 0.0681 0.0
C213 C 0.35239 0.27 0.10941 0.0
H214 H 0.35035 0.29979 0.2149 0.0
H215 H 0.16347 0.31716 0.20463 0.0
H216 H 0.18294 0.38309 0.16764 0.0
H217 H 0.25255 0.39937 0.14051 0.0
H218 H 0.3031 0.34962 0.14958 0.0
C219 C 0.33425 0.28274 0.17267 0.0
C220 C 0.2922 0.27268 0.1889 0.0
C221 C 0.26312 0.30219 0.18497 0.0
C222 C 0.22306 0.29295 0.20212 0.0
C223 C 0.19447 0.32274 0.19461 0.0
C224 C 0.2052 0.36069 0.17286 0.0
C225 C 0.24439 0.36984 0.15747 0.0
C226 C 0.27311 0.34104 0.16307 0.0
H227 H 0.17097 0.27922 0.34469 0.0
C228 C 0.15389 0.25943 0.30868 0.0
H229 H 0.15428 0.22445 0.20929 0.0
H230 H 0.34085 0.20948 0.20687 0.0
H231 H 0.32139 0.14354 0.24348 0.0
H232 H 0.25188 0.12737 0.27162 0.0
H233 H 0.20142 0.17719 0.26375 0.0
C234 C 0.17064 0.24462 0.24568 0.0
C235 C 0.21228 0.25431 0.22499 0.0
C236 C 0.24131 0.22469 0.22811 0.0
C237 C 0.28135 0.23392 0.2108 0.0
C238 C 0.30989 0.20401 0.21748 0.0
C239 C 0.29916 0.16602 0.23891 0.0
C240 C 0.26004 0.15692 0.25483 0.0
C241 C 0.23136 0.18581 0.24991 0.0
H242 H 0.3449 0.78645 0.88846 0.0
C243 C 0.36156 0.76945 0.84733 0.0
H244 H 0.35982 0.73795 0.74362 0.0
H245 H 0.17716 0.70438 0.74442 0.0
H246 H 0.20098 0.64089 0.78456 0.0
H247 H 0.27091 0.63182 0.81775 0.0
H248 H 0.31734 0.6864 0.81164 0.0
C249 C 0.34359 0.75534 0.78475 0.0
C250 C 0.30118 0.76179 0.76897 0.0
C251 C 0.27458 0.72947 0.7716 0.0
C252 C 0.23444 0.73455 0.7512 0.0
C253 C 0.20821 0.70203 0.7571 0.0
C254 C 0.22144 0.66541 0.7806 0.0
C255 C 0.26079 0.66031 0.79936 0.0
C256 C 0.28716 0.69187 0.79532 0.0
H257 H 0.18365 0.74478 0.60284 0.0
C258 C 0.1645 0.76119 0.64069 0.0
H259 H 0.16081 0.79389 0.74291 0.0
H260 H 0.34486 0.8297 0.7543 0.0
H261 H 0.32083 0.89335 0.71551 0.0
H262 H 0.25093 0.90231 0.68195 0.0
H263 H 0.20471 0.84747 0.68642 0.0
C264 C 0.17942 0.77725 0.7045 0.0
C265 C 0.22124 0.77185 0.72663 0.0
C266 C 0.24763 0.80436 0.72547 0.0
C267 C 0.28778 0.79929 0.74598 0.0
C268 C 0.31386 0.83196 0.74117 0.0
C269 C 0.30049 0.86869 0.71857 0.0
C270 C 0.26115 0.87373 0.6996 0.0
C271 C 0.23492 0.84202 0.70259 0.0
H272 H 0.53973 0.93076 0.88271 0.0
C273 C 0.51364 0.91478 0.90165 0.0
H274 H 0.46047 0.91666 0.96306 0.0
H275 H 0.50118 0.0506 0.19371 0.0
H276 H 0.48402 0.99564 0.27509 0.0
H277 H 0.47157 0.92973 0.22098 0.0
H278 H 0.47737 0.918 0.08628 0.0
C279 C 0.48649 0.93292 0.94467 0.0
C280 C 0.49303 0.97323 0.9762 0.0
C281 C 0.49144 0.9791 0.05608 0.0
C282 C 0.49876 0.01707 0.08745 0.0
C283 C 0.49601 0.02233 0.16704 0.0
C284 C 0.48624 0.99105 0.21442 0.0
C285 C 0.47937 0.95393 0.18402 0.0
C286 C 0.48245 0.94771 0.10612 0.0
H287 H 0.46095 0.10879 0.01805 0.0
C288 C 0.48554 0.11676 0.05476 0.0
H289 H 0.53736 0.09632 0.1076 0.0
H290 H 0.48972 0.97489 0.82041 0.0
H291 H 0.50745 0.02973 0.73957 0.0
H292 H 0.52835 0.09331 0.79475 0.0
H293 H 0.53046 0.10264 0.93115 0.0
C294 C 0.51226 0.08937 0.07159 0.0
C295 C 0.50805 0.04902 0.03922 0.0
C296 C 0.51023 0.0431 0.95949 0.0
C297 C 0.50105 0.00563 0.92778 0.0
C298 C 0.49917 1.00185 0.84776 0.0
C299 C 0.50882 0.03327 0.80058 0.0
C300 C 0.52037 0.06912 0.83163 0.0
C301 C 0.52114 0.07414 0.91007 0.0
H302 H 0.01771 0.91556 0.6182 0.0
C303 C 1.00362 0.89555 0.57812 0.0
H304 H 0.97567 0.88976 0.47163 0.0
H305 H 0.92023 0.06448 0.43786 0.0
H306 H 0.85793 0.0295 0.44847 0.0
H307 H 0.85587 0.95901 0.48058 0.0
H308 H 0.91611 0.92301 0.50168 0.0
C309 C 0.98975 0.90955 0.51209 0.0
C310 C 0.99151 0.95226 0.49304 0.0
C311 C 0.95598 0.97301 0.48164 0.0
C312 C 0.95715 0.01387 0.46469 0.0
C313 C 0.92114 0.03363 0.45236 0.0
C314 C 0.88512 0.01388 0.45798 0.0
C315 C 0.88396 0.97419 0.47592 0.0
C316 C 0.91884 0.95385 0.48772 0.0
H317 H 0.0243 0.07766 0.34436 0.0
C318 C 0.00948 0.09519 0.38723 0.0
H319 H 0.9787 0.09506 0.49145 0.0
H320 H 0.06539 0.92022 0.49718 0.0
H321 H 0.12763 0.95559 0.49141 0.0
H322 H 0.12946 0.02757 0.47539 0.0
H323 H 0.06914 0.0644 0.46293 0.0
C324 C 0.99404 0.07763 0.4491 0.0
C325 C 0.99381 0.03418 0.46023 0.0
C326 C 0.02942 0.0134 0.47119 0.0
C327 C 0.0283 0.97218 0.48521 0.0
C328 C 0.06437 0.95176 0.49054 0.0
C329 C 0.10037 0.97167 0.48666 0.0
C330 C 0.10141 0.01216 0.4773 0.0
C331 C 0.06647 0.03293 0.46969 0.0
H332 H 0.97293 0.27345 0.05002 0.0
C333 C 0.99259 0.25166 0.0738 0.0
H334 H 0.03238 0.20583 0.05007 0.0
H335 H 0.96642 0.16464 0.72571 0.0
H336 H 0.95191 0.10496 0.79538 0.0
H337 H 0.96195 0.10196 0.93382 0.0
H338 H 0.98706 0.15845 0.00321 0.0
C339 C 0.01306 0.22814 0.02718 0.0
C340 C 0.0078 0.23007 0.94355 0.0
C341 C 0.99245 0.19693 0.90412 0.0
C342 C 0.98581 0.19895 0.82463 0.0
C343 C 0.9714 0.16506 0.78631 0.0
C344 C 0.963 0.13052 0.82559 0.0
C345 C 0.9687 0.12881 0.90349 0.0
C346 C 0.98321 0.1615 0.94261 0.0
H347 H 0.04756 0.24882 0.67761 0.0
C348 C 0.01849 0.24252 0.65435 0.0
H349 H 0.95898 0.22896 0.67893 0.0
H350 H 0.04424 0.29664 -0.00109 0.0
H351 H 0.05546 0.35752 0.93092 0.0
H352 H 0.03611 0.36374 0.79673 0.0
H353 H 0.00624 0.30888 0.72939 0.0
C354 C 0.9881 0.23562 0.70145 0.0
C355 C 0.99389 0.23434 0.78502 0.0
C356 C 0.00843 0.26781 0.82484 0.0
C357 C 0.01698 0.26512 0.90353 0.0
C358 C 0.03497 0.29776 0.9403 0.0
C359 C 0.04191 0.33281 0.90176 0.0
C360 C 0.03116 0.33627 0.82614 0.0
C361 C 0.01446 0.30433 0.78792 0.0
H362 H 0.03853 0.77036 0.93391 0.0
C363 C 0.022 0.74625 0.90812 0.0
H364 H 0.987 0.69565 0.9279 0.0
H365 H 0.05033 0.66409 0.25865 0.0
H366 H 0.06755 0.60413 0.19237 0.0
H367 H 0.05804 0.59798 0.05411 0.0
H368 H 0.03069 0.65152 0.98146 0.0
C369 C 1.00348 0.72001 0.95278 0.0
C370 C 0.00664 0.72277 0.03699 0.0
C371 C 0.02335 0.69139 0.07832 0.0
C372 C 0.02976 0.6953 0.15775 0.0
C373 C 0.04553 0.66308 0.198 0.0
C374 C 0.05547 0.6284 0.16071 0.0
C375 C 0.05007 0.62492 0.08288 0.0
C376 C 0.03428 0.65594 0.04186 0.0
H377 H 0.96794 0.7435 0.30588 0.0
C378 C 0.99779 0.74045 0.32733 0.0
H379 H 0.05742 0.73076 0.29904 0.0
H380 H 0.96476 0.78451 0.97943 0.0
H381 H 0.95023 0.84573 0.04398 0.0
H382 H 0.97042 0.85641 0.17697 0.0
H383 H 1.00378 0.80542 0.24677 0.0
C384 C 0.02757 0.73476 0.27835 0.0
C385 C 0.02032 0.73093 0.19536 0.0
C386 C 1.00355 0.76233 0.15396 0.0
C387 C 0.99491 0.75746 0.0756 0.0
C388 C 0.97445 0.78768 0.03757 0.0
C389 C 0.96555 0.82283 0.07418 0.0
C390 C 0.97669 0.82875 0.14914 0.0
C391 C 0.99552 0.79901 0.1888 0.0
H392 H 0.56138 0.75007 0.16807 0.0
C393 C 0.53427 0.76312 0.14763 0.0
H394 H 0.48227 0.79301 0.17819 0.0
H395 H 0.54128 0.70673 0.49789 0.0
H396 H 0.53071 0.64481 0.43224 0.0
H397 H 0.51137 0.64343 0.29748 0.0
H398 H 0.50356 0.70386 0.22705 0.0
C399 C 0.50876 0.77846 0.19765 0.0
C400 C 0.51731 0.77881 0.28036 0.0
C401 C 0.51877 0.74314 0.32171 0.0
C402 C 0.52705 0.74397 0.40074 0.0
C403 C 0.53232 0.70788 0.43909 0.0
C404 C 0.52681 0.67209 0.40186 0.0
C405 C 0.51608 0.67131 0.3259 0.0
C406 C 0.512 0.7063 0.28601 0.0
H407 H 0.48092 0.74851 0.54124 0.0
C408 C 0.50484 0.76511 0.56749 0.0
H409 H 0.55697 0.79807 0.55017 0.0
H410 H 0.52234 0.85184 0.21602 0.0
H411 H 0.53461 0.91353 0.28195 0.0
H412 H 0.54185 0.91549 0.42091 0.0
H413 H 0.53928 0.85568 0.49475 0.0
C414 C 0.53272 0.78197 0.52392 0.0
C415 C 0.53031 0.78054 0.43951 0.0
C416 C 0.53014 0.81608 0.39774 0.0
C417 C 0.52423 0.81514 0.31788 0.0
C418 C 0.52581 0.85092 0.27702 0.0
C419 C 0.53266 0.88656 0.31408 0.0
C420 C 0.53703 0.88764 0.39234 0.0
C421 C 0.53559 0.85297 0.43404 0.0
H422 H 0.47622 0.29136 0.41199 0.0
C423 C 0.49484 0.26895 0.38687 0.0
H424 H 0.5346 0.22288 0.40743 0.0
H425 H 0.5105 0.32938 0.72768 0.0
H426 H 0.5379 0.38425 0.65733 0.0
H427 H 0.55697 0.37662 0.52296 0.0
H428 H 0.54735 0.31443 0.4577 0.0
C429 C 0.51591 0.24536 0.43199 0.0
C430 C 0.51258 0.24786 0.51614 0.0
C431 C 0.52125 0.28362 0.55477 0.0
C432 C 0.51316 0.28714 0.63362 0.0
C433 C 0.51836 0.3243 0.66903 0.0
C434 C 0.53377 0.3562 0.62912 0.0
C435 C 0.54429 0.35197 0.5534 0.0
C436 C 0.53821 0.31619 0.5164 0.0
H437 H 0.55181 0.27031 0.78475 0.0
C438 C 0.52239 0.26432 0.80667 0.0
H439 H 0.46347 0.24957 0.77935 0.0
H440 H 0.49482 0.17437 0.46045 0.0
H441 H 0.47373 0.11773 0.53342 0.0
H442 H 0.46523 0.1223 0.67219 0.0
H443 H 0.47705 0.18377 0.73856 0.0
C444 C 0.49281 0.25656 0.75818 0.0
C445 C 0.49982 0.25386 0.67504 0.0
C446 C 0.49342 0.21749 0.63729 0.0
C447 C 0.49937 0.21459 0.5576 0.0
C448 C 0.49153 0.17817 0.52106 0.0
C449 C 0.47932 0.14536 0.56226 0.0
C450 C 0.47446 0.14795 0.64035 0.0
C451 C 0.48129 0.1835 0.67771 0.0
loop_
_geom_bond_atom_site_label_1
_geom_bond_atom_site_label_2
_geom_bond_distance
_geom_bond_site_symmetry_2
_ccdc_geom_bond_type
O0 Zn1 1.953 . S
O0 C16 1.225 . S
Zn1 O0 1.953 . S
Zn1 O2 1.949 . S
Zn1 O8 1.919 . S
Zn1 O13 1.924 . S
O2 Zn1 1.949 . S
O2 Zn3 1.923 . S
O2 Zn4 1.950 1_455 S
O2 Zn5 1.945 1_455 S
Zn3 O2 1.923 . S
Zn3 O6 1.933 . S
Zn3 O9 1.941 . S
Zn3 O10 1.965 . S
Zn4 O2 1.950 1_655 S
Zn4 O11 1.938 . S
Zn4 O12 1.906 . S
Zn4 O22 1.953 . S
Zn5 O2 1.945 1_655 S
Zn5 O7 1.932 . S
Zn5 O14 1.977 . S
Zn5 O15 1.910 . S
O6 Zn3 1.933 . S
O6 C17 1.226 . S
O7 Zn5 1.932 . S
O7 C17 1.307 1_655 S
O8 Zn1 1.919 . S
O8 C19 1.253 . S
O9 Zn3 1.941 . S
O9 C19 1.283 . S
O10 Zn3 1.965 . S
O10 C18 1.303 . S
O11 Zn4 1.938 . S
O11 C18 1.247 1_655 S
O12 Zn4 1.906 . S
O12 C20 1.304 . S
O13 Zn1 1.924 . S
O13 C21 1.311 . S
O14 Zn5 1.977 . S
O14 C20 1.272 . S
O15 Zn5 1.910 . S
O15 C21 1.231 1_655 S
C16 O0 1.225 . S
C16 O22 1.298 1_455 S
C17 O6 1.226 . S
C17 O7 1.307 1_455 S
C18 O10 1.303 . S
C18 O11 1.247 1_455 S
C19 O8 1.253 . S
C19 O9 1.283 . S
C20 O12 1.304 . S
C20 O14 1.272 . S
C21 O13 1.311 . S
C21 O15 1.231 1_455 S
O22 Zn4 1.953 . S
O22 C16 1.298 1_655 S
O23 Zn24 1.953 . S
O23 C39 1.225 . S
Zn24 O23 1.953 . S
Zn24 O25 1.949 . S
Zn24 O31 1.919 . S
Zn24 O36 1.924 . S
O25 Zn24 1.949 . S
O25 Zn26 1.923 . S
O25 Zn27 1.950 1_455 S
O25 Zn28 1.945 1_455 S
Zn26 O25 1.923 . S
Zn26 O29 1.933 . S
Zn26 O32 1.941 . S
Zn26 O33 1.965 . S
Zn27 O25 1.950 1_655 S
Zn27 O34 1.938 . S
Zn27 O35 1.906 . S
Zn27 O45 1.953 . S
Zn28 O25 1.945 1_655 S
Zn28 O30 1.932 . S
Zn28 O37 1.977 . S
Zn28 O38 1.910 . S
O29 Zn26 1.933 . S
O29 C40 1.226 . S
O30 Zn28 1.932 . S
O30 C40 1.307 1_655 S
O31 Zn24 1.919 . S
O31 C42 1.253 . S
O32 Zn26 1.941 . S
O32 C42 1.283 . S
O33 Zn26 1.965 . S
O33 C41 1.303 1_455 S
O34 Zn27 1.938 . S
O34 C41 1.247 . S
O35 Zn27 1.906 . S
O35 C43 1.304 . S
O36 Zn24 1.924 . S
O36 C44 1.311 . S
O37 Zn28 1.977 . S
O37 C43 1.272 . S
O38 Zn28 1.910 . S
O38 C44 1.231 1_655 S
C39 O23 1.225 . S
C39 O45 1.298 1_455 S
C40 O29 1.226 . S
C40 O30 1.307 1_455 S
C41 O33 1.303 1_655 S
C41 O34 1.247 . S
C42 O31 1.253 . S
C42 O32 1.283 . S
C43 O35 1.304 . S
C43 O37 1.272 . S
C44 O36 1.311 . S
C44 O38 1.231 1_455 S
O45 Zn27 1.953 . S
O45 C39 1.298 1_655 S
O46 Zn47 1.953 . S
O46 C62 1.225 . S
Zn47 O46 1.953 . S
Zn47 O48 1.949 . S
Zn47 O54 1.919 . S
Zn47 O59 1.924 . S
O48 Zn47 1.949 . S
O48 Zn49 1.923 . S
O48 Zn50 1.950 . S
O48 Zn51 1.945 . S
Zn49 O48 1.923 . S
Zn49 O52 1.933 1_556 S
Zn49 O55 1.941 . S
Zn49 O56 1.965 . S
Zn50 O48 1.950 . S
Zn50 O57 1.938 . S
Zn50 O58 1.906 . S
Zn50 O68 1.953 . S
Zn51 O48 1.945 . S
Zn51 O53 1.932 1_556 S
Zn51 O60 1.977 . S
Zn51 O61 1.910 . S
O52 Zn49 1.933 1_554 S
O52 C63 1.226 . S
O53 Zn51 1.932 1_554 S
O53 C63 1.307 . S
O54 Zn47 1.919 . S
O54 C65 1.253 . S
O55 Zn49 1.941 . S
O55 C65 1.283 . S
O56 Zn49 1.965 . S
O56 C64 1.303 . S
O57 Zn50 1.938 . S
O57 C64 1.247 . S
O58 Zn50 1.906 . S
O58 C66 1.304 . S
O59 Zn47 1.924 . S
O59 C67 1.311 . S
O60 Zn51 1.977 . S
O60 C66 1.272 . S
O61 Zn51 1.910 . S
O61 C67 1.231 . S
C62 O46 1.225 . S
C62 O68 1.298 . S
C63 O52 1.226 . S
C63 O53 1.307 . S
C64 O56 1.303 . S
C64 O57 1.247 . S
C65 O54 1.253 . S
C65 O55 1.283 . S
C66 O58 1.304 . S
C66 O60 1.272 . S
C67 O59 1.311 . S
C67 O61 1.231 . S
O68 Zn50 1.953 . S
O68 C62 1.298 . S
O69 Zn70 1.953 . S
O69 C85 1.225 . S
Zn70 O69 1.953 . S
Zn70 O71 1.949 . S
Zn70 O77 1.919 . S
Zn70 O82 1.924 . S
O71 Zn70 1.949 . S
O71 Zn72 1.923 . S
O71 Zn73 1.950 . S
O71 Zn74 1.945 . S
Zn72 O71 1.923 . S
Zn72 O75 1.933 1_554 S
Zn72 O78 1.941 . S
Zn72 O79 1.965 . S
Zn73 O71 1.950 . S
Zn73 O80 1.938 . S
Zn73 O81 1.906 . S
Zn73 O91 1.953 . S
Zn74 O71 1.945 . S
Zn74 O76 1.932 1_554 S
Zn74 O83 1.977 . S
Zn74 O84 1.910 . S
O75 Zn72 1.933 1_556 S
O75 C86 1.226 . S
O76 Zn74 1.932 1_556 S
O76 C86 1.307 . S
O77 Zn70 1.919 . S
O77 C88 1.253 . S
O78 Zn72 1.941 . S
O78 C88 1.283 . S
O79 Zn72 1.965 . S
O79 C87 1.303 . S
O80 Zn73 1.938 . S
O80 C87 1.247 . S
O81 Zn73 1.906 . S
O81 C89 1.304 . S
O82 Zn70 1.924 . S
O82 C90 1.311 . S
O83 Zn74 1.977 . S
O83 C89 1.272 . S
O84 Zn74 1.910 . S
O84 C90 1.231 . S
C85 O69 1.225 . S
C85 O91 1.298 . S
C86 O75 1.226 . S
C86 O76 1.307 . S
C87 O79 1.303 . S
C87 O80 1.247 . S
C88 O77 1.253 . S
C88 O78 1.283 . S
C89 O81 1.304 . S
C89 O83 1.272 . S
C90 O82 1.311 . S
C90 O84 1.231 . S
O91 Zn73 1.953 . S
O91 C85 1.298 . S
H92 C93 0.979 . S
C93 H92 0.979 . S
C93 C99 1.247 1_655 S
H94 C99 0.950 . S
H95 C103 0.949 . S
H96 C104 0.950 . S
H97 C105 0.951 . S
H98 C106 0.951 . S
C99 C93 1.247 1_455 S
C99 H94 0.950 . S
C99 C100 1.478 . S
C100 C99 1.478 . S
C100 C101 1.397 . S
C100 C117 1.394 1_455 S
C101 C100 1.397 . S
C101 C102 1.438 . S
C101 C106 1.429 . S
C102 C101 1.438 . S
C102 C103 1.428 . S
C102 C115 1.394 1_455 S
C103 H95 0.949 . S
C103 C102 1.428 . S
C103 C104 1.345 . S
C104 H96 0.950 . S
C104 C103 1.345 . S
C104 C105 1.424 . S
C105 H97 0.951 . S
C105 C104 1.424 . S
C105 C106 1.347 . S
C106 H98 0.951 . S
C106 C101 1.429 . S
C106 C105 1.347 . S
H107 C108 0.951 . S
C108 H107 0.951 . S
C108 C114 1.265 1_455 S
H109 C114 0.950 . S
H110 C118 0.949 . S
H111 C119 0.950 . S
H112 C120 0.951 . S
H113 C121 0.951 . S
C114 C108 1.265 1_655 S
C114 H109 0.950 . S
C114 C115 1.478 . S
C115 C102 1.394 1_655 S
C115 C114 1.478 . S
C115 C116 1.397 . S
C116 C115 1.397 . S
C116 C117 1.438 . S
C116 C121 1.429 . S
C117 C100 1.394 1_655 S
C117 C116 1.438 . S
C117 C118 1.428 . S
C118 H110 0.949 . S
C118 C117 1.428 . S
C118 C119 1.345 . S
C119 H111 0.950 . S
C119 C118 1.345 . S
C119 C120 1.424 . S
C120 H112 0.951 . S
C120 C119 1.424 . S
C120 C121 1.347 . S
C121 H113 0.951 . S
C121 C116 1.429 . S
C121 C120 1.347 . S
H122 C123 0.951 . S
C123 H122 0.951 . S
C123 C129 1.265 . S
H124 C129 0.950 . S
H125 C133 0.949 . S
H126 C134 0.950 . S
H127 C135 0.951 . S
H128 C136 0.951 . S
C129 C123 1.265 . S
C129 H124 0.950 . S
C129 C130 1.478 . S
C130 C129 1.478 . S
C130 C131 1.397 . S
C130 C147 1.394 . S
C131 C130 1.397 . S
C131 C132 1.438 . S
C131 C136 1.429 . S
C132 C131 1.438 . S
C132 C133 1.428 . S
C132 C145 1.394 . S
C133 H125 0.949 . S
C133 C132 1.428 . S
C133 C134 1.345 . S
C134 H126 0.950 . S
C134 C133 1.345 . S
C134 C135 1.424 . S
C135 H127 0.951 . S
C135 C134 1.424 . S
C135 C136 1.347 . S
C136 H128 0.951 . S
C136 C131 1.429 . S
C136 C135 1.347 . S
H137 C138 0.951 . S
C138 H137 0.951 . S
C138 C144 1.265 . S
H139 C144 0.950 . S
H140 C148 0.949 . S
H141 C149 0.950 . S
H142 C150 0.951 . S
H143 C151 0.951 . S
C144 C138 1.265 . S
C144 H139 0.950 . S
C144 C145 1.478 . S
C145 C132 1.394 . S
C145 C144 1.478 . S
C145 C146 1.397 . S
C146 C145 1.397 . S
C146 C147 1.438 . S
C146 C151 1.429 . S
C147 C130 1.394 . S
C147 C146 1.438 . S
C147 C148 1.428 . S
C148 H140 0.949 . S
C148 C147 1.428 . S
C148 C149 1.345 . S
C149 H141 0.950 . S
C149 C148 1.345 . S
C149 C150 1.424 . S
C150 H142 0.951 . S
C150 C149 1.424 . S
C150 C151 1.347 . S
C151 H143 0.951 . S
C151 C146 1.429 . S
C151 C150 1.347 . S
H152 C153 0.951 . S
C153 H152 0.951 . S
C153 C159 1.265 . S
H154 C159 0.950 . S
H155 C163 0.949 . S
H156 C164 0.950 . S
H157 C165 0.951 . S
H158 C166 0.951 . S
C159 C153 1.265 . S
C159 H154 0.950 . S
C159 C160 1.478 . S
C160 C159 1.478 . S
C160 C161 1.397 . S
C160 C177 1.394 1_554 S
C161 C160 1.397 . S
C161 C162 1.438 . S
C161 C166 1.429 . S
C162 C161 1.438 . S
C162 C163 1.428 . S
C162 C175 1.394 1_554 S
C163 H155 0.949 . S
C163 C162 1.428 . S
C163 C164 1.345 . S
C164 H156 0.950 . S
C164 C163 1.345 . S
C164 C165 1.424 . S
C165 H157 0.951 . S
C165 C164 1.424 . S
C165 C166 1.347 . S
C166 H158 0.951 . S
C166 C161 1.429 . S
C166 C165 1.347 . S
H167 C168 0.951 . S
C168 H167 0.951 . S
C168 C174 1.265 . S
H169 C174 0.950 . S
H170 C178 0.949 . S
H171 C179 0.950 . S
H172 C180 0.951 . S
H173 C181 0.951 . S
C174 C168 1.265 . S
C174 H169 0.950 . S
C174 C175 1.478 . S
C175 C162 1.394 1_556 S
C175 C174 1.478 . S
C175 C176 1.397 . S
C176 C175 1.397 . S
C176 C177 1.438 . S
C176 C181 1.429 . S
C177 C160 1.394 1_556 S
C177 C176 1.438 . S
C177 C178 1.428 . S
C178 H170 0.949 . S
C178 C177 1.428 . S
C178 C179 1.345 . S
C179 H171 0.950 . S
C179 C178 1.345 . S
C179 C180 1.424 . S
C180 H172 0.951 . S
C180 C179 1.424 . S
C180 C181 1.347 . S
C181 H173 0.951 . S
C181 C176 1.429 . S
C181 C180 1.347 . S
H182 C183 0.951 . S
C183 H182 0.951 . S
C183 C189 1.265 . S
H184 C189 0.950 . S
H185 C193 0.949 . S
H186 C194 0.950 1_556 S
H187 C195 0.951 . S
H188 C196 0.951 . S
C189 C183 1.265 . S
C189 H184 0.950 . S
C189 C190 1.478 . S
C190 C189 1.478 . S
C190 C191 1.397 . S
C190 C207 1.394 . S
C191 C190 1.397 . S
C191 C192 1.438 . S
C191 C196 1.429 . S
C192 C191 1.438 . S
C192 C193 1.428 . S
C192 C205 1.394 . S
C193 H185 0.949 . S
C193 C192 1.428 . S
C193 C194 1.345 . S
C194 H186 0.950 1_554 S
C194 C193 1.345 . S
C194 C195 1.424 . S
C195 H187 0.951 . S
C195 C194 1.424 . S
C195 C196 1.347 . S
C196 H188 0.951 . S
C196 C191 1.429 . S
C196 C195 1.347 . S
H197 C198 0.951 . S
C198 H197 0.951 . S
C198 C204 1.265 . S
H199 C204 0.950 . S
H200 C208 0.949 . S
H201 C209 0.950 . S
H202 C210 0.951 . S
H203 C211 0.951 . S
C204 C198 1.265 . S
C204 H199 0.950 . S
C204 C205 1.478 . S
C205 C192 1.394 . S
C205 C204 1.478 . S
C205 C206 1.397 . S
C206 C205 1.397 . S
C206 C207 1.438 . S
C206 C211 1.429 . S
C207 C190 1.394 . S
C207 C206 1.438 . S
C207 C208 1.428 . S
C208 H200 0.949 . S
C208 C207 1.428 . S
C208 C209 1.345 . S
C209 H201 0.950 . S
C209 C208 1.345 . S
C209 C210 1.424 . S
C210 H202 0.951 . S
C210 C209 1.424 . S
C210 C211 1.347 . S
C211 H203 0.951 . S
C211 C206 1.429 . S
C211 C210 1.347 . S
H212 C213 0.951 . S
C213 H212 0.951 . S
C213 C219 1.265 . S
H214 C219 0.950 . S
H215 C223 0.949 . S
H216 C224 0.950 . S
H217 C225 0.951 . S
H218 C226 0.951 . S
C219 C213 1.265 . S
C219 H214 0.950 . S
C219 C220 1.478 . S
C220 C219 1.478 . S
C220 C221 1.397 . S
C220 C237 1.394 . S
C221 C220 1.397 . S
C221 C222 1.438 . S
C221 C226 1.429 . S
C222 C221 1.438 . S
C222 C223 1.428 . S
C222 C235 1.394 . S
C223 H215 0.949 . S
C223 C222 1.428 . S
C223 C224 1.345 . S
C224 H216 0.950 . S
C224 C223 1.345 . S
C224 C225 1.424 . S
C225 H217 0.951 . S
C225 C224 1.424 . S
C225 C226 1.347 . S
C226 H218 0.951 . S
C226 C221 1.429 . S
C226 C225 1.347 . S
H227 C228 0.951 . S
C228 H227 0.951 . S
C228 C234 1.265 . S
H229 C234 0.950 . S
H230 C238 0.949 . S
H231 C239 0.950 . S
H232 C240 0.951 . S
H233 C241 0.951 . S
C234 C228 1.265 . S
C234 H229 0.950 . S
C234 C235 1.478 . S
C235 C222 1.394 . S
C235 C234 1.478 . S
C235 C236 1.397 . S
C236 C235 1.397 . S
C236 C237 1.438 . S
C236 C241 1.429 . S
C237 C220 1.394 . S
C237 C236 1.438 . S
C237 C238 1.428 . S
C238 H230 0.949 . S
C238 C237 1.428 . S
C238 C239 1.345 . S
C239 H231 0.950 . S
C239 C238 1.345 . S
C239 C240 1.424 . S
C240 H232 0.951 . S
C240 C239 1.424 . S
C240 C241 1.347 . S
C241 H233 0.951 . S
C241 C236 1.429 . S
C241 C240 1.347 . S
H242 C243 0.951 . S
C243 H242 0.951 . S
C243 C249 1.265 . S
H244 C249 0.950 . S
H245 C253 0.949 . S
H246 C254 0.950 . S
H247 C255 0.951 . S
H248 C256 0.951 . S
C249 C243 1.265 . S
C249 H244 0.950 . S
C249 C250 1.478 . S
C250 C249 1.478 . S
C250 C251 1.397 . S
C250 C267 1.394 . S
C251 C250 1.397 . S
C251 C252 1.438 . S
C251 C256 1.429 . S
C252 C251 1.438 . S
C252 C253 1.428 . S
C252 C265 1.394 . S
C253 H245 0.949 . S
C253 C252 1.428 . S
C253 C254 1.345 . S
C254 H246 0.950 . S
C254 C253 1.345 . S
C254 C255 1.424 . S
C255 H247 0.951 . S
C255 C254 1.424 . S
C255 C256 1.347 . S
C256 H248 0.951 . S
C256 C251 1.429 . S
C256 C255 1.347 . S
H257 C258 0.951 . S
C258 H257 0.951 . S
C258 C264 1.265 . S
H259 C264 0.950 . S
H260 C268 0.949 . S
H261 C269 0.950 . S
H262 C270 0.951 . S
H263 C271 0.951 . S
C264 C258 1.265 . S
C264 H259 0.950 . S
C264 C265 1.478 . S
C265 C252 1.394 . S
C265 C264 1.478 . S
C265 C266 1.397 . S
C266 C265 1.397 . S
C266 C267 1.438 . S
C266 C271 1.429 . S
C267 C250 1.394 . S
C267 C266 1.438 . S
C267 C268 1.428 . S
C268 H260 0.949 . S
C268 C267 1.428 . S
C268 C269 1.345 . S
C269 H261 0.950 . S
C269 C268 1.345 . S
C269 C270 1.424 . S
C270 H262 0.951 . S
C270 C269 1.424 . S
C270 C271 1.347 . S
C271 H263 0.951 . S
C271 C266 1.429 . S
C271 C270 1.347 . S
H272 C273 0.951 . S
C273 H272 0.951 . S
C273 C279 1.265 . S
H274 C279 0.950 . S
H275 C283 0.949 . S
H276 C284 0.950 . S
H277 C285 0.951 . S
H278 C286 0.951 . S
C279 C273 1.265 . S
C279 H274 0.950 . S
C279 C280 1.478 . S
C280 C279 1.478 . S
C280 C281 1.397 1_556 S
C280 C297 1.394 . S
C281 C280 1.397 1_554 S
C281 C282 1.438 1_565 S
C281 C286 1.429 . S
C282 C281 1.438 1_545 S
C282 C283 1.428 . S
C282 C295 1.394 . S
C283 H275 0.949 . S
C283 C282 1.428 . S
C283 C284 1.345 . S
C284 H276 0.950 . S
C284 C283 1.345 . S
C284 C285 1.424 1_545 S
C285 H277 0.951 . S
C285 C284 1.424 1_565 S
C285 C286 1.347 . S
C286 H278 0.951 . S
C286 C281 1.429 . S
C286 C285 1.347 . S
H287 C288 0.951 . S
C288 H287 0.951 . S
C288 C294 1.265 . S
H289 C294 0.950 . S
H290 C298 0.949 . S
H291 C299 0.950 1_565 S
H292 C300 0.951 . S
H293 C301 0.951 . S
C294 C288 1.265 . S
C294 H289 0.950 . S
C294 C295 1.478 . S
C295 C282 1.394 . S
C295 C294 1.478 . S
C295 C296 1.397 1_554 S
C296 C295 1.397 1_556 S
C296 C297 1.438 1_545 S
C296 C301 1.429 . S
C297 C280 1.394 . S
C297 C296 1.438 1_565 S
C297 C298 1.428 . S
C298 H290 0.949 . S
C298 C297 1.428 . S
C298 C299 1.345 1_565 S
C299 H291 0.950 1_545 S
C299 C298 1.345 1_545 S
C299 C300 1.424 . S
C300 H292 0.951 . S
C300 C299 1.424 . S
C300 C301 1.347 . S
C301 H293 0.951 . S
C301 C296 1.429 . S
C301 C300 1.347 . S
H302 C303 0.951 . S
C303 H302 0.951 . S
C303 C309 1.265 . S
H304 C309 0.950 1_655 S
H305 C313 0.949 . S
H306 C314 0.950 . S
H307 C315 0.951 . S
H308 C316 0.951 . S
C309 C303 1.265 . S
C309 H304 0.950 1_455 S
C309 C310 1.478 . S
C310 C309 1.478 . S
C310 C311 1.397 1_455 S
C310 C327 1.394 . S
C311 C310 1.397 1_655 S
C311 C312 1.438 1_565 S
C311 C316 1.429 . S
C312 C311 1.438 1_545 S
C312 C313 1.428 . S
C312 C325 1.394 1_655 S
C313 H305 0.949 . S
C313 C312 1.428 . S
C313 C314 1.345 . S
C314 H306 0.950 . S
C314 C313 1.345 . S
C314 C315 1.424 1_545 S
C315 H307 0.951 . S
C315 C314 1.424 1_565 S
C315 C316 1.347 . S
C316 H308 0.951 . S
C316 C311 1.429 . S
C316 C315 1.347 . S
H317 C318 0.951 . S
C318 H317 0.951 . S
C318 C324 1.265 . S
H319 C324 0.950 . S
H320 C328 0.949 . S
H321 C329 0.950 . S
H322 C330 0.951 . S
H323 C331 0.951 . S
C324 C318 1.265 . S
C324 H319 0.950 . S
C324 C325 1.478 . S
C325 C312 1.394 1_455 S
C325 C324 1.478 . S
C325 C326 1.397 . S
C326 C325 1.397 . S
C326 C327 1.438 1_545 S
C326 C331 1.429 . S
C327 C310 1.394 . S
C327 C326 1.438 1_565 S
C327 C328 1.428 . S
C328 H320 0.949 . S
C328 C327 1.428 . S
C328 C329 1.345 . S
C329 H321 0.950 . S
C329 C328 1.345 . S
C329 C330 1.424 1_565 S
C330 H322 0.951 . S
C330 C329 1.424 1_545 S
C330 C331 1.347 . S
C331 H323 0.951 . S
C331 C326 1.429 . S
C331 C330 1.347 . S
H332 C333 0.951 1_655 S
C333 H332 0.951 1_455 S
C333 C339 1.265 . S
H334 C339 0.950 . S
H335 C343 0.949 . S
H336 C344 0.950 . S
H337 C345 0.951 . S
H338 C346 0.951 . S
C339 C333 1.265 . S
C339 H334 0.950 . S
C339 C340 1.478 1_554 S
C340 C339 1.478 1_556 S
C340 C341 1.397 . S
C340 C357 1.394 1_455 S
C341 C340 1.397 . S
C341 C342 1.438 . S
C341 C346 1.429 . S
C342 C341 1.438 . S
C342 C343 1.428 . S
C342 C355 1.394 1_455 S
C343 H335 0.949 . S
C343 C342 1.428 . S
C343 C344 1.345 . S
C344 H336 0.950 . S
C344 C343 1.345 . S
C344 C345 1.424 . S
C345 H337 0.951 . S
C345 C344 1.424 . S
C345 C346 1.347 . S
C346 H338 0.951 . S
C346 C341 1.429 . S
C346 C345 1.347 . S
H347 C348 0.951 . S
C348 H347 0.951 . S
C348 C354 1.265 1_455 S
H349 C354 0.950 . S
H350 C358 0.949 1_554 S
H351 C359 0.950 . S
H352 C360 0.951 . S
H353 C361 0.951 . S
C354 C348 1.265 1_655 S
C354 H349 0.950 . S
C354 C355 1.478 . S
C355 C342 1.394 1_655 S
C355 C354 1.478 . S
C355 C356 1.397 . S
C356 C355 1.397 . S
C356 C357 1.438 . S
C356 C361 1.429 . S
C357 C340 1.394 1_655 S
C357 C356 1.438 . S
C357 C358 1.428 . S
C358 H350 0.949 1_556 S
C358 C357 1.428 . S
C358 C359 1.345 . S
C359 H351 0.950 . S
C359 C358 1.345 . S
C359 C360 1.424 . S
C360 H352 0.951 . S
C360 C359 1.424 . S
C360 C361 1.347 . S
C361 H353 0.951 . S
C361 C356 1.429 . S
C361 C360 1.347 . S
H362 C363 0.951 . S
C363 H362 0.951 . S
C363 C369 1.265 1_455 S
H364 C369 0.950 . S
H365 C373 0.949 . S
H366 C374 0.950 . S
H367 C375 0.951 . S
H368 C376 0.951 . S
C369 C363 1.265 1_655 S
C369 H364 0.950 . S
C369 C370 1.478 1_556 S
C370 C369 1.478 1_554 S
C370 C371 1.397 . S
C370 C387 1.394 1_655 S
C371 C370 1.397 . S
C371 C372 1.438 . S
C371 C376 1.429 . S
C372 C371 1.438 . S
C372 C373 1.428 . S
C372 C385 1.394 1_655 S
C373 H365 0.949 . S
C373 C372 1.428 . S
C373 C374 1.345 . S
C374 H366 0.950 . S
C374 C373 1.345 . S
C374 C375 1.424 . S
C375 H367 0.951 . S
C375 C374 1.424 . S
C375 C376 1.347 . S
C376 H368 0.951 . S
C376 C371 1.429 . S
C376 C375 1.347 . S
H377 C378 0.951 . S
C378 H377 0.951 . S
C378 C384 1.265 1_655 S
H379 C384 0.950 . S
H380 C388 0.949 1_556 S
H381 C389 0.950 . S
H382 C390 0.951 . S
H383 C391 0.951 . S
C384 C378 1.265 1_455 S
C384 H379 0.950 . S
C384 C385 1.478 . S
C385 C372 1.394 1_455 S
C385 C384 1.478 . S
C385 C386 1.397 . S
C386 C385 1.397 . S
C386 C387 1.438 . S
C386 C391 1.429 . S
C387 C370 1.394 1_455 S
C387 C386 1.438 . S
C387 C388 1.428 . S
C388 H380 0.949 1_554 S
C388 C387 1.428 . S
C388 C389 1.345 . S
C389 H381 0.950 . S
C389 C388 1.345 . S
C389 C390 1.424 . S
C390 H382 0.951 . S
C390 C389 1.424 . S
C390 C391 1.347 . S
C391 H383 0.951 . S
C391 C386 1.429 . S
C391 C390 1.347 . S
H392 C393 0.951 . S
C393 H392 0.951 . S
C393 C399 1.265 . S
H394 C399 0.950 . S
H395 C403 0.949 . S
H396 C404 0.950 . S
H397 C405 0.951 . S
H398 C406 0.951 . S
C399 C393 1.265 . S
C399 H394 0.950 . S
C399 C400 1.478 . S
C400 C399 1.478 . S
C400 C401 1.397 . S
C400 C417 1.394 . S
C401 C400 1.397 . S
C401 C402 1.438 . S
C401 C406 1.429 . S
C402 C401 1.438 . S
C402 C403 1.428 . S
C402 C415 1.394 . S
C403 H395 0.949 . S
C403 C402 1.428 . S
C403 C404 1.345 . S
C404 H396 0.950 . S
C404 C403 1.345 . S
C404 C405 1.424 . S
C405 H397 0.951 . S
C405 C404 1.424 . S
C405 C406 1.347 . S
C406 H398 0.951 . S
C406 C401 1.429 . S
C406 C405 1.347 . S
H407 C408 0.951 . S
C408 H407 0.951 . S
C408 C414 1.265 . S
H409 C414 0.950 . S
H410 C418 0.949 . S
H411 C419 0.950 . S
H412 C420 0.951 . S
H413 C421 0.951 . S
C414 C408 1.265 . S
C414 H409 0.950 . S
C414 C415 1.478 . S
C415 C402 1.394 . S
C415 C414 1.478 . S
C415 C416 1.397 . S
C416 C415 1.397 . S
C416 C417 1.438 . S
C416 C421 1.429 . S
C417 C400 1.394 . S
C417 C416 1.438 . S
C417 C418 1.428 . S
C418 H410 0.949 . S
C418 C417 1.428 . S
C418 C419 1.345 . S
C419 H411 0.950 . S
C419 C418 1.345 . S
C419 C420 1.424 . S
C420 H412 0.951 . S
C420 C419 1.424 . S
C420 C421 1.347 . S
C421 H413 0.951 . S
C421 C416 1.429 . S
C421 C420 1.347 . S
H422 C423 0.951 . S
C423 H422 0.951 . S
C423 C429 1.265 . S
H424 C429 0.950 . S
H425 C433 0.949 . S
H426 C434 0.950 . S
H427 C435 0.951 . S
H428 C436 0.951 . S
C429 C423 1.265 . S
C429 H424 0.950 . S
C429 C430 1.478 . S
C430 C429 1.478 . S
C430 C431 1.397 . S
C430 C447 1.394 . S
C431 C430 1.397 . S
C431 C432 1.438 . S
C431 C436 1.429 . S
C432 C431 1.438 . S
C432 C433 1.428 . S
C432 C445 1.394 . S
C433 H425 0.949 . S
C433 C432 1.428 . S
C433 C434 1.345 . S
C434 H426 0.950 . S
C434 C433 1.345 . S
C434 C435 1.424 . S
C435 H427 0.951 . S
C435 C434 1.424 . S
C435 C436 1.347 . S
C436 H428 0.951 . S
C436 C431 1.429 . S
C436 C435 1.347 . S
H437 C438 0.951 . S
C438 H437 0.951 . S
C438 C444 1.265 . S
H439 C444 0.950 . S
H440 C448 0.949 . S
H441 C449 0.950 . S
H442 C450 0.951 . S
H443 C451 0.951 . S
C444 C438 1.265 . S
C444 H439 0.950 . S
C444 C445 1.478 . S
C445 C432 1.394 . S
C445 C444 1.478 . S
C445 C446 1.397 . S
C446 C445 1.397 . S
C446 C447 1.438 . S
C446 C451 1.429 . S
C447 C430 1.394 . S
C447 C446 1.438 . S
C447 C448 1.428 . S
C448 H440 0.949 . S
C448 C447 1.428 . S
C448 C449 1.345 . S
C449 H441 0.950 . S
C449 C448 1.345 . S
C449 C450 1.424 . S
C450 H442 0.951 . S
C450 C449 1.424 . S
C450 C451 1.347 . S
C451 H443 0.951 . S
C451 C446 1.429 . S
C451 C450 1.347 . S
C93 C21 1.584 1_655 S
C108 C44 1.564 . S
C123 C64 1.609 . S
C138 C43 1.623 . S
C153 C89 1.590 . S
C168 C65 1.614 . S
C183 C20 1.574 . S
C198 C90 1.570 . S
C213 C87 1.607 . S
C228 C19 1.613 . S
C243 C67 1.553 . S
C258 C42 1.549 . S
C273 C66 1.560 . S
C288 C88 1.532 . S
C303 C41 1.621 1_455 S
C318 C18 1.614 . S
C333 C17 1.263 . S
C348 C16 1.264 . S
C363 C40 1.272 . S
C378 C39 1.272 1_655 S
C393 C63 1.260 . S
C408 C62 1.265 . S
C423 C85 1.270 . S
C438 C86 1.274 . S
