# Generated by pormake.
# Topology rob, (6)-cn, num edge types: 1
# Building blocks:
#     Node 0, Type 0, BuildingBlock: BETGAK_clean_sbu_0, # of connection points: 6
#     Node 1, Type 0, BuildingBlock: BETGAK_clean_sbu_0, # of connection points: 6
#     Node 2, Type 0, BuildingBlock: BETGAK_clean_sbu_0, # of connection points: 6
#     Node 3, Type 0, BuildingBlock: BETGAK_clean_sbu_0, # of connection points: 6
#     Edge 4, Type (0, 0), BuildingBlock: EZIPEK_clean_linker_0, # of connection points: 2
#     Edge 5, Type (0, 0), BuildingBlock: EZIPEK_clean_linker_0, # of connection points: 2
#     Edge 6, Type (0, 0), BuildingBlock: EZIPEK_clean_linker_0, # of connection points: 2
#     Edge 7, Type (0, 0), BuildingBlock: EZIPEK_clean_linker_0, # of connection points: 2
#     Edge 8, Type (0, 0), BuildingBlock: EZIPEK_clean_linker_0, # of connection points: 2
#     Edge 9, Type (0, 0), BuildingBlock: EZIPEK_clean_linker_0, # of connection points: 2
#     Edge 10, Type (0, 0), BuildingBlock: EZIPEK_clean_linker_0, # of connection points: 2
#     Edge 11, Type (0, 0), BuildingBlock: EZIPEK_clean_linker_0, # of connection points: 2
#     Edge 12, Type (0, 0), BuildingBlock: EZIPEK_clean_linker_0, # of connection points: 2
#     Edge 13, Type (0, 0), BuildingBlock: EZIPEK_clean_linker_0, # of connection points: 2
#     Edge 14, Type (0, 0), BuildingBlock: EZIPEK_clean_linker_0, # of connection points: 2
#     Edge 15, Type (0, 0), BuildingBlock: EZIPEK_clean_linker_0, # of connection points: 2
# Relax obj value: 0.258
# Max RMSD: 0.249
# Mean RMSD: 0.249
data_MOF--net-rob--node1-BETGAK_clean_sbu_0--edge1-EZIPEK_clean_linker_0
_symmetry_space_group_name_H-M    P1
_symmetry_Int_Tables_number       1
_symmetry_cell_setting            triclinic
loop_
_symmetry_equiv_pos_as_xyz
'x, y, z'
_cell_length_a     13.849839
_cell_length_b     15.774448
_cell_length_c     29.045445
_cell_angle_alpha  90.119193
_cell_angle_beta   131.02081
_cell_angle_gamma 90.310041
loop_
_atom_site_label
_atom_site_type_symbol
_atom_site_fract_x
_atom_site_fract_y
_atom_site_fract_z
_atom_type_partial_charge
La0 La 0.20647 0.31766 1.00585 0.0
La1 La 0.39954 0.2054 0.02374 0.0
C2 C 1.0527 0.37567 0.01644 0.0
C3 C 1.05235 0.37575 0.06752 0.0
C4 C 0.11688 0.43989 0.11246 0.0
C5 C 0.12083 0.43822 0.16179 0.0
C6 C 0.05918 0.37308 0.1671 0.0
C7 C 0.99544 0.30851 0.12257 0.0
C8 C 0.99105 0.31021 0.07301 0.0
C9 C 0.37125 0.39689 1.00205 0.0
C10 C 0.45648 0.26121 0.14123 0.0
C11 C 0.55162 0.14882 1.01175 0.0
C12 C 0.54873 0.15085 0.95964 0.0
C13 C 0.48515 0.08671 0.91466 0.0
C14 C 0.47747 0.09068 0.86422 0.0
C15 C 0.53437 0.15814 0.85781 0.0
C16 C 0.59719 0.22265 0.9024 0.0
C17 C 0.60514 0.21877 0.95297 0.0
C18 C 0.23816 0.12569 0.02927 0.0
C19 C 0.14899 0.26338 0.88829 0.0
O20 O 0.1414 0.42147 0.02403 0.0
O21 O 1.0377 0.3019 0.99157 0.0
O22 O 0.25403 0.4198 0.97233 0.0
O23 O 0.39558 0.33746 0.03747 0.0
O24 O 0.3396 0.2927 0.10422 0.0
O25 O 0.51 0.22968 0.12053 0.0
O26 O 0.46431 0.10213 1.00482 0.0
O27 O 0.5676 0.22188 0.03757 0.0
O28 O 0.3565 0.10492 0.05974 0.0
O29 O 0.21099 0.18453 0.99271 0.0
O30 O 0.26435 0.22954 0.92507 0.0
O31 O 0.09658 0.29646 0.90905 0.0
H32 H 0.16576 0.49109 0.11 0.0
H33 H 0.17376 0.48734 0.19631 0.0
H34 H 0.94793 0.25727 0.1259 0.0
H35 H 0.94036 0.2598 0.03924 0.0
H36 H 0.4401 0.03369 0.91803 0.0
H37 H 0.42583 0.04136 0.82974 0.0
H38 H 0.64142 0.27554 0.89838 0.0
H39 H 0.65484 0.26936 0.98664 0.0
La40 La 0.70394 0.81463 1.00876 0.0
La41 La 0.90912 0.70828 0.02846 0.0
C42 C 0.54426 0.86525 0.0182 0.0
C43 C 0.54082 0.86326 0.06814 0.0
C44 C 0.45595 0.91496 0.06612 0.0
C45 C 0.45645 0.91519 0.11466 0.0
C46 C 0.54195 0.86367 0.16583 0.0
C47 C 0.62377 0.81013 0.16686 0.0
C48 C 0.62274 0.80984 0.11847 0.0
C49 C 0.87228 0.90033 1.00996 0.0
C50 C 0.95565 0.76097 0.14401 0.0
C51 C 0.06953 0.66137 0.01889 0.0
C52 C 0.07145 0.66645 0.96861 0.0
C53 C 0.1495 0.61216 0.96728 0.0
C54 C 0.14671 0.6141 0.91812 0.0
C55 C 0.06544 0.6703 0.86954 0.0
C56 C 0.99035 0.72638 0.87178 0.0
C57 C 0.99397 0.72478 0.92103 0.0
C58 C 0.74893 0.62197 0.03189 0.0
C59 C 0.65442 0.76325 0.89293 0.0
O60 O 0.63189 0.91413 0.02704 0.0
O61 O 0.53788 0.79148 0.99561 0.0
O62 O 0.75346 0.92185 0.97846 0.0
O63 O 0.89345 0.83769 0.04243 0.0
O64 O 0.8358 0.78635 0.10598 0.0
O65 O 1.01423 0.73428 0.12466 0.0
O66 O 0.98293 0.61083 1.00974 0.0
O67 O 0.07555 0.73398 0.04256 0.0
O68 O 0.8672 0.60124 0.06126 0.0
O69 O 0.7213 0.6831 0.99672 0.0
O70 O 0.77385 0.73618 0.93046 0.0
O71 O 0.59705 0.78977 0.91277 0.0
H72 H 0.38954 0.95505 0.02709 0.0
H73 H 0.39069 0.95551 0.11257 0.0
H74 H 0.68916 0.76894 0.20542 0.0
H75 H 0.68607 0.76761 0.1206 0.0
H76 H 0.21213 0.56822 1.00415 0.0
H77 H 0.20713 0.57153 0.91764 0.0
H78 H 0.9283 0.771 0.83519 0.0
H79 H 0.93598 0.76914 0.92174 0.0
La80 La 0.40338 0.82008 0.52841 0.0
La81 La 0.20915 0.70282 0.50924 0.0
C82 C 0.56224 0.87736 0.52051 0.0
C83 C 0.56811 0.87587 0.47122 0.0
C84 C 0.50483 0.93783 0.4253 0.0
C85 C 0.50454 0.93388 0.37713 0.0
C86 C 0.5673 0.86799 0.37377 0.0
C87 C 0.63241 0.80673 0.41987 0.0
C88 C 0.63367 0.81098 0.46843 0.0
C89 C 0.23545 0.8971 0.52959 0.0
C90 C 0.16033 0.75441 0.39316 0.0
C91 C 1.04956 0.6456 0.51662 0.0
C92 C 1.04109 0.64947 0.56502 0.0
C93 C 0.09812 0.58639 0.61002 0.0
C94 C 0.09711 0.59233 0.65772 0.0
C95 C 1.03862 0.66112 0.66135 0.0
C96 C 0.97966 0.72361 0.61613 0.0
C97 C 0.98 0.71754 0.56811 0.0
C98 C 0.37693 0.6262 0.5076 0.0
C99 C 0.45223 0.76767 0.64444 0.0
O100 O 0.47133 0.9227 0.51062 0.0
O101 O 0.57515 0.80445 0.54551 0.0
O102 O 0.35191 0.92326 0.55882 0.0
O103 O 0.21278 0.83555 0.49529 0.0
O104 O 0.27032 0.79609 0.42995 0.0
O105 O 0.10804 0.71656 0.41278 0.0
O106 O 0.14335 0.60099 0.52879 0.0
O107 O 1.03473 0.71709 0.48978 0.0
O108 O 0.26138 0.59911 0.47949 0.0
O109 O 0.39937 0.6875 0.54198 0.0
O110 O 0.3401 0.72859 0.60736 0.0
O111 O 0.5056 0.80415 0.62492 0.0
H112 H 0.45366 0.98879 0.42594 0.0
H113 H 0.4533 0.98144 0.34179 0.0
H114 H 0.68181 0.75558 0.4181 0.0
H115 H 0.68402 0.76255 0.50317 0.0
H116 H 0.14579 0.53306 0.60912 0.0
H117 H 0.14454 0.54415 0.69264 0.0
H118 H 0.93402 0.7772 0.61822 0.0
H119 H 0.93443 0.767 0.53408 0.0
La120 La 0.90261 0.32036 0.52539 0.0
La121 La 0.704 0.20594 0.50442 0.0
C122 C 0.06017 0.37939 0.51707 0.0
C123 C 0.06593 0.3789 0.46763 0.0
C124 C 1.01768 0.4475 0.42716 0.0
C125 C 1.01971 0.44662 0.37964 0.0
C126 C 0.068 0.3765 0.37074 0.0
C127 C 0.11715 0.30803 0.41124 0.0
C128 C 0.11725 0.30951 0.45952 0.0
C129 C 0.74141 0.39806 0.53148 0.0
C130 C 0.65403 0.2633 0.38904 0.0
C131 C 0.54462 0.14745 0.5117 0.0
C132 C 0.53553 0.14915 0.55999 0.0
C133 C 0.58724 0.08307 0.6026 0.0
C134 C 0.58109 0.08509 0.64876 0.0
C135 C 0.52514 0.15392 0.65412 0.0
C136 C 0.47331 0.22013 0.61175 0.0
C137 C 0.47697 0.21729 0.5647 0.0
C138 C 0.86665 0.12836 0.49923 0.0
C139 C 0.95335 0.26282 0.64092 0.0
O140 O 0.96892 0.42407 0.50732 0.0
O141 O 0.07432 0.3064 0.54227 0.0
O142 O 0.85838 0.42209 0.5602 0.0
O143 O 0.71431 0.33907 0.49474 0.0
O144 O 0.77053 0.29645 0.42687 0.0
O145 O 0.59862 0.22999 0.4084 0.0
O146 O 0.63745 0.10286 0.52287 0.0
O147 O 0.5308 0.21992 0.48607 0.0
O148 O 0.74896 0.10474 0.46942 0.0
O149 O 0.89245 0.18734 0.53567 0.0
O150 O 0.83711 0.22906 0.6031 0.0
O151 O 1.00856 0.29648 0.62152 0.0
H152 H 0.97662 0.50163 0.43161 0.0
H153 H 0.98123 0.5001 0.34899 0.0
H154 H 0.15533 0.25337 0.4054 0.0
H155 H 0.15607 0.25575 0.48995 0.0
H156 H 0.63428 0.03016 0.60092 0.0
H157 H 0.62259 0.03369 0.68123 0.0
H158 H 0.43009 0.274 0.61518 0.0
H159 H 0.43561 0.26918 0.53262 0.0
C160 C 0.58536 0.50201 0.97648 0.0
C161 C 0.65363 0.56289 0.02458 0.0
C162 C 0.53902 0.51366 0.05823 0.0
C163 C 0.46974 0.45312 1.01004 0.0
N164 N 0.41438 0.39706 0.91806 0.0
N165 N 0.72529 0.6049 0.1225 0.0
C166 C 0.48987 0.44925 0.96782 0.0
C167 C 0.63861 0.5627 0.06854 0.0
N168 N 0.6189 0.49024 0.94193 0.0
N169 N 0.505 0.52805 0.09232 0.0
H170 H 0.80156 0.63878 0.13248 0.0
H171 H 0.72934 0.59914 0.15946 0.0
H172 H 0.43041 0.4954 0.08513 0.0
H173 H 0.54174 0.57805 0.1234 0.0
H174 H 0.58381 0.44137 0.91029 0.0
H175 H 0.69202 0.52486 0.949 0.0
H176 H 0.41159 0.39789 0.88139 0.0
H177 H 0.3472 0.35622 0.9114 0.0
C178 C 0.50724 0.58121 0.47845 0.0
C179 C 0.47631 0.57102 0.51629 0.0
C180 C 0.61765 0.44649 0.56347 0.0
C181 C 0.6459 0.45533 0.52453 0.0
N182 N 0.63612 0.54015 0.45279 0.0
N183 N 0.48619 0.4856 0.58791 0.0
C184 C 0.59515 0.52505 0.48398 0.0
C185 C 0.52737 0.50132 0.55689 0.0
N186 N 0.44768 0.6425 0.43491 0.0
N187 N 0.68306 0.38879 0.60951 0.0
H188 H 0.42508 0.52584 0.58669 0.0
H189 H 0.5053 0.4299 0.61165 0.0
H190 H 0.74942 0.34814 0.61593 0.0
H191 H 0.68043 0.38593 0.64447 0.0
H192 H 0.44946 0.6464 0.39972 0.0
H193 H 0.38938 0.68727 0.43181 0.0
H194 H 0.61745 0.5955 0.42883 0.0
H195 H 0.69709 0.49965 0.45408 0.0
C196 C 0.14969 0.05747 0.07429 0.0
C197 C 0.14408 0.06796 0.02398 0.0
C198 C 0.96135 0.96833 0.96466 0.0
C199 C 0.97198 0.95339 1.01623 0.0
N200 N 0.10446 0.96781 0.12564 0.0
N201 N 0.07191 1.00954 0.92932 0.0
C202 C 0.07501 0.99277 0.07277 0.0
C203 C 0.05729 0.01683 0.97127 0.0
N204 N 0.2234 0.11116 0.12318 0.0
N205 N 0.86074 0.93516 0.90918 0.0
H206 H 0.14754 0.03847 0.93546 0.0
H207 H 1.01907 0.96705 0.8927 0.0
H208 H 0.79518 0.89387 0.90356 0.0
H209 H 0.83948 0.95216 0.86873 0.0
H210 H 0.22083 0.11301 0.15822 0.0
H211 H 0.2776 0.1595 0.12555 0.0
H212 H 0.18702 0.98769 0.16866 0.0
H213 H 0.05506 0.92016 0.12733 0.0
C214 C 0.99133 0.07619 0.46874 0.0
C215 C 0.96339 0.07042 0.5079 0.0
C216 C 0.10613 0.94686 0.55812 0.0
C217 C 0.13586 0.95351 0.51966 0.0
N218 N 0.12388 0.03366 0.44556 0.0
N219 N 0.97414 0.99008 0.58153 0.0
C220 C 0.08264 0.02057 0.4768 0.0
C221 C 1.01606 1.00319 0.55058 0.0
N222 N 0.92484 0.13175 0.42128 0.0
N223 N 0.16852 0.88877 0.60394 0.0
H224 H 0.9096 0.02993 0.57784 0.0
H225 H 0.99503 0.93642 0.60733 0.0
H226 H 0.22971 0.84429 0.60908 0.0
H227 H 0.16652 0.88769 0.63912 0.0
H228 H 0.92731 0.13213 0.38624 0.0
H229 H 0.8582 0.17328 0.41399 0.0
H230 H 0.10285 0.08759 0.41994 0.0
H231 H 0.18733 0.99338 0.44863 0.0
C232 C 0.57043 0.18417 0.29367 0.0
C233 C 0.58971 0.26209 0.32316 0.0
C234 C 0.54305 0.33926 0.23699 0.0
C235 C 0.52378 0.26094 0.20759 0.0
N236 N 0.53899 0.10721 0.21438 0.0
N237 N 0.57313 0.41388 0.3191 0.0
C238 C 0.54355 0.18361 0.23758 0.0
C239 C 0.57062 0.33983 0.29376 0.0
N240 N 0.57699 0.10907 0.31872 0.0
N241 N 0.54068 0.41287 0.21157 0.0
H242 H 0.58812 0.41536 0.3593 0.0
H243 H 0.54919 0.47267 0.29813 0.0
H244 H 0.5268 0.4132 0.17172 0.0
H245 H 0.56417 0.47223 0.23226 0.0
H246 H 0.55917 0.05102 0.29711 0.0
H247 H 0.59091 0.10491 0.35834 0.0
H248 H 0.52703 0.09943 0.1753 0.0
H249 H 0.52703 0.09943 0.1753 0.0
C250 C 0.65596 0.90017 0.27537 0.0
C251 C 0.54691 0.86537 0.21873 0.0
C252 C 0.45088 0.83181 0.26391 0.0
C253 C 0.5629 0.86303 0.32122 0.0
N254 N 0.77647 0.92404 0.3816 0.0
N255 N 0.35132 0.78363 0.16184 0.0
C256 C 0.66675 0.89492 0.32719 0.0
C257 C 0.44679 0.82765 0.2136 0.0
N258 N 0.75002 0.94001 0.28008 0.0
N259 N 0.34732 0.80743 0.25722 0.0
H260 H 0.34463 0.77905 0.124 0.0
H261 H 0.28544 0.74537 0.15847 0.0
H262 H 0.34889 0.80431 0.29358 0.0
H263 H 0.25731 0.79538 0.21503 0.0
H264 H 0.8311 0.96673 0.32094 0.0
H265 H 0.74468 0.94911 0.2429 0.0
H266 H 0.7935 0.92376 0.42233 0.0
H267 H 0.7935 0.92376 0.42233 0.0
C268 C 0.54925 0.84184 0.79434 0.0
C269 C 0.58818 0.76427 0.82677 0.0
C270 C 0.5555 0.69191 0.74219 0.0
C271 C 0.51582 0.76945 0.71002 0.0
N272 N 0.4797 0.91988 0.70658 0.0
N273 N 0.6013 0.61239 0.82597 0.0
C274 C 0.51419 0.84447 0.73643 0.0
C275 C 0.58409 0.68838 0.79906 0.0
N276 N 0.54545 0.91559 0.8174 0.0
N277 N 0.56985 0.62234 0.71905 0.0
H278 H 0.61592 0.60807 0.86593 0.0
H279 H 0.58836 0.55373 0.80607 0.0
H280 H 0.55263 0.62393 0.67829 0.0
H281 H 0.60971 0.56562 0.74245 0.0
H282 H 0.56827 0.92128 0.8593 0.0
H283 H 0.56827 0.92128 0.8593 0.0
H284 H 0.47508 0.97612 0.72401 0.0
H285 H 0.45954 0.92662 0.66552 0.0
C286 C 0.41013 0.15469 0.69501 0.0
C287 C 0.52628 0.15783 0.70587 0.0
C288 C 0.64776 0.15614 0.81637 0.0
C289 C 0.5315 0.15978 0.80538 0.0
N290 N 0.30072 0.1721 0.73291 0.0
N291 N 0.75478 0.18235 0.77721 0.0
C292 C 0.41278 0.16235 0.74442 0.0
C293 C 0.64497 0.16461 0.76672 0.0
N294 N 0.29449 0.1433 0.63793 0.0
N295 N 0.76052 0.14038 0.87379 0.0
H296 H 0.75671 0.19103 0.74223 0.0
H297 H 0.84153 0.19713 0.82026 0.0
H298 H 0.76669 0.12967 0.91106 0.0
H299 H 0.84612 0.12949 0.88331 0.0
H300 H 0.28217 0.13385 0.59878 0.0
H301 H 0.28217 0.13385 0.59878 0.0
H302 H 0.21201 0.17355 0.68864 0.0
H303 H 0.29706 0.18291 0.76717 0.0
C304 C 1.01561 0.83466 0.23663 0.0
C305 C 1.01901 0.76021 0.20976 0.0
C306 C 0.10066 0.67929 0.3008 0.0
C307 C 0.09616 0.75289 0.32752 0.0
N308 N 1.03133 0.89723 0.31806 0.0
N309 N 0.06334 0.61024 0.21692 0.0
C310 C 1.04894 0.82982 0.2946 0.0
C311 C 0.06191 0.68274 0.24218 0.0
N312 N 0.98385 0.91059 0.20734 0.0
N313 N 0.14073 0.60343 0.32979 0.0
H314 H 1.03655 0.60744 0.17419 0.0
H315 H 0.09163 0.55211 0.23922 0.0
H316 H 0.16799 0.59284 0.37223 0.0
H317 H 0.16799 0.59284 0.37223 0.0
H318 H 0.99303 0.96883 0.22677 0.0
H319 H 0.95614 0.91678 0.16445 0.0
H320 H 0.98778 0.95359 0.29501 0.0
H321 H 1.05081 0.89424 0.35934 0.0
C322 C 0.1826 0.37456 0.3299 0.0
C323 C 0.066 0.37458 0.31863 0.0
C324 C 0.94568 0.38102 0.20853 0.0
C325 C 0.06132 0.37289 0.21927 0.0
N326 N 0.28801 0.34424 0.29044 0.0
N327 N 0.83426 0.36946 0.24578 0.0
C328 C 0.17946 0.36476 0.28013 0.0
C329 C 0.94733 0.3749 0.25764 0.0
N330 N 0.29625 0.38766 0.38783 0.0
N331 N 0.83139 0.39579 0.15182 0.0
H332 H 0.82913 0.36047 0.27969 0.0
H333 H 0.74557 0.36975 0.20145 0.0
H334 H 0.8199 0.40513 0.11292 0.0
H335 H 0.8199 0.40513 0.11292 0.0
H336 H 0.38283 0.39709 0.39785 0.0
H337 H 0.30262 0.39735 0.42529 0.0
H338 H 0.37387 0.32908 0.33338 0.0
H339 H 0.28936 0.33413 0.25537 0.0
C340 C 1.03227 0.18734 0.73548 0.0
C341 C 1.01726 0.26483 0.70682 0.0
C342 C 0.07176 0.34374 0.7946 0.0
C343 C 0.08228 0.26598 0.82206 0.0
N344 N 1.04246 0.11616 0.81243 0.0
N345 N 1.01569 0.4176 0.70722 0.0
C346 C 0.05424 0.1884 0.79066 0.0
C347 C 1.03633 0.34322 0.73618 0.0
N348 N 1.02946 0.11263 0.7107 0.0
N349 N 0.09858 0.41834 0.82502 0.0
H350 H 1.00559 0.42115 0.66866 0.0
H351 H 1.00624 0.47577 0.72065 0.0
H352 H 0.10566 0.42272 0.86278 0.0
H353 H 0.11601 0.47554 0.81371 0.0
H354 H 1.05198 0.05429 0.7322 0.0
H355 H 1.01727 0.11026 0.67128 0.0
H356 H 1.01092 0.05826 0.78931 0.0
H357 H 1.04983 0.11727 0.85047 0.0
C358 C 0.1568 0.69672 0.77148 0.0
C359 C 1.04281 0.66831 0.71379 0.0
C360 C 0.94669 0.6369 0.75894 0.0
C361 C 0.0576 0.67007 0.81579 0.0
N362 N 0.25783 0.74644 0.87342 0.0
N363 N 0.8212 0.62536 0.64972 0.0
C364 C 0.16 0.70398 0.82135 0.0
C365 C 0.93497 0.64329 0.70658 0.0
N366 N 0.26264 0.71596 0.77883 0.0
N367 N 0.85544 0.59523 0.75563 0.0
H368 H 0.81018 0.62448 0.61059 0.0
H369 H 0.73553 0.61804 0.64081 0.0
H370 H 0.86095 0.58844 0.79301 0.0
H371 H 0.78019 0.56094 0.71736 0.0
H372 H 0.35305 0.72594 0.82129 0.0
H373 H 0.26218 0.71688 0.74277 0.0
H374 H 0.32679 0.78155 0.87732 0.0
H375 H 0.26373 0.75306 0.91095 0.0
loop_
_geom_bond_atom_site_label_1
_geom_bond_atom_site_label_2
_geom_bond_distance
_geom_bond_site_symmetry_2
_ccdc_geom_bond_type
La0 C2 2.928 1_556 S
La0 O20 2.521 1_556 S
La0 O21 2.628 1_556 S
La0 O22 2.554 1_556 S
La0 O23 2.757 . S
La0 O24 2.470 1_556 S
La0 O29 2.482 1_556 S
La0 O31 2.503 . S
La1 C11 2.928 1_554 S
La1 O23 2.482 1_554 S
La1 O25 2.503 . S
La1 O26 2.521 1_554 S
La1 O27 2.628 1_554 S
La1 O28 2.554 1_554 S
La1 O29 2.757 . S
La1 O30 2.470 1_554 S
C2 La0 2.928 1_554 S
C2 C3 1.503 . S
C2 O20 1.261 . S
C2 O21 1.243 . S
C3 C2 1.503 . S
C3 C4 1.394 . S
C3 C8 1.373 . S
C4 C3 1.394 . S
C4 C5 1.380 . S
C4 H32 0.930 . S
C5 C4 1.380 . S
C5 C6 1.376 . S
C5 H33 0.930 . S
C6 C5 1.376 . S
C6 C7 1.370 . S
C7 C6 1.370 . S
C7 C8 1.396 . S
C7 H34 0.929 . S
C8 C3 1.373 . S
C8 C7 1.396 . S
C8 H35 0.929 . S
C9 O22 1.240 . S
C9 O23 1.289 1_554 S
C10 O24 1.258 . S
C10 O25 1.256 . S
C11 La1 2.928 1_556 S
C11 C12 1.503 . S
C11 O26 1.261 . S
C11 O27 1.243 . S
C12 C11 1.503 . S
C12 C13 1.394 . S
C12 C17 1.373 . S
C13 C12 1.394 . S
C13 C14 1.380 . S
C13 H36 0.930 . S
C14 C13 1.380 . S
C14 C15 1.376 . S
C14 H37 0.930 1_545 S
C15 C14 1.376 . S
C15 C16 1.370 . S
C16 C15 1.370 . S
C16 C17 1.396 . S
C16 H38 0.929 . S
C17 C12 1.373 . S
C17 C16 1.396 . S
C17 H39 0.929 . S
C18 O28 1.240 . S
C18 O29 1.289 1_556 S
C19 O30 1.258 . S
C19 O31 1.256 . S
O20 La0 2.521 1_554 S
O20 C2 1.261 . S
O21 La0 2.628 1_554 S
O21 C2 1.243 . S
O22 La0 2.554 1_554 S
O22 C9 1.240 . S
O23 La0 2.757 . S
O23 La1 2.482 1_556 S
O23 C9 1.289 1_556 S
O24 La0 2.470 1_554 S
O24 C10 1.258 . S
O25 La1 2.503 . S
O25 C10 1.256 . S
O26 La1 2.521 1_556 S
O26 C11 1.261 . S
O27 La1 2.628 1_556 S
O27 C11 1.243 . S
O28 La1 2.554 1_556 S
O28 C18 1.240 . S
O29 La0 2.482 1_554 S
O29 La1 2.757 . S
O29 C18 1.289 1_554 S
O30 La1 2.470 1_556 S
O30 C19 1.258 . S
O31 La0 2.503 . S
O31 C19 1.256 . S
H32 C4 0.930 . S
H33 C5 0.930 . S
H34 C7 0.929 . S
H35 C8 0.929 . S
H36 C13 0.930 . S
H37 C14 0.930 1_565 S
H38 C16 0.929 . S
H39 C17 0.929 . S
La40 C42 2.928 1_556 S
La40 O60 2.521 1_556 S
La40 O61 2.628 1_556 S
La40 O62 2.554 1_556 S
La40 O63 2.757 . S
La40 O64 2.470 1_556 S
La40 O69 2.482 1_556 S
La40 O71 2.503 . S
La41 C51 2.928 1_554 S
La41 O63 2.482 1_554 S
La41 O65 2.503 . S
La41 O66 2.521 1_554 S
La41 O67 2.628 1_554 S
La41 O68 2.554 1_554 S
La41 O69 2.757 . S
La41 O70 2.470 1_554 S
C42 La40 2.928 1_554 S
C42 C43 1.503 . S
C42 O60 1.261 . S
C42 O61 1.243 . S
C43 C42 1.503 . S
C43 C44 1.394 . S
C43 C48 1.373 . S
C44 C43 1.394 . S
C44 C45 1.380 . S
C44 H72 0.930 . S
C45 C44 1.380 . S
C45 C46 1.376 . S
C45 H73 0.930 1_565 S
C46 C45 1.376 . S
C46 C47 1.370 . S
C47 C46 1.370 . S
C47 C48 1.396 . S
C47 H74 0.929 . S
C48 C43 1.373 . S
C48 C47 1.396 . S
C48 H75 0.929 . S
C49 O62 1.240 . S
C49 O63 1.289 1_554 S
C50 O64 1.258 . S
C50 O65 1.256 . S
C51 La41 2.928 1_556 S
C51 C52 1.503 . S
C51 O66 1.261 . S
C51 O67 1.243 . S
C52 C51 1.503 . S
C52 C53 1.394 . S
C52 C57 1.373 . S
C53 C52 1.394 . S
C53 C54 1.380 . S
C53 H76 0.930 . S
C54 C53 1.380 . S
C54 C55 1.376 . S
C54 H77 0.930 . S
C55 C54 1.376 . S
C55 C56 1.370 . S
C56 C55 1.370 . S
C56 C57 1.396 . S
C56 H78 0.929 . S
C57 C52 1.373 . S
C57 C56 1.396 . S
C57 H79 0.929 . S
C58 O68 1.240 . S
C58 O69 1.289 1_556 S
C59 O70 1.258 . S
C59 O71 1.256 . S
O60 La40 2.521 1_554 S
O60 C42 1.261 . S
O61 La40 2.628 1_554 S
O61 C42 1.243 . S
O62 La40 2.554 1_554 S
O62 C49 1.240 . S
O63 La40 2.757 . S
O63 La41 2.482 1_556 S
O63 C49 1.289 1_556 S
O64 La40 2.470 1_554 S
O64 C50 1.258 . S
O65 La41 2.503 . S
O65 C50 1.256 . S
O66 La41 2.521 1_556 S
O66 C51 1.261 . S
O67 La41 2.628 1_556 S
O67 C51 1.243 . S
O68 La41 2.554 1_556 S
O68 C58 1.240 . S
O69 La40 2.482 1_554 S
O69 La41 2.757 . S
O69 C58 1.289 1_554 S
O70 La41 2.470 1_556 S
O70 C59 1.258 . S
O71 La40 2.503 . S
O71 C59 1.256 . S
H72 C44 0.930 . S
H73 C45 0.930 1_545 S
H74 C47 0.929 . S
H75 C48 0.929 . S
H76 C53 0.930 . S
H77 C54 0.930 . S
H78 C56 0.929 . S
H79 C57 0.929 . S
La80 C82 2.928 . S
La80 O100 2.521 . S
La80 O101 2.628 . S
La80 O102 2.554 . S
La80 O103 2.757 . S
La80 O104 2.470 . S
La80 O109 2.482 . S
La80 O111 2.503 . S
La81 C91 2.928 . S
La81 O103 2.482 . S
La81 O105 2.503 . S
La81 O106 2.521 . S
La81 O107 2.628 . S
La81 O108 2.554 . S
La81 O109 2.757 . S
La81 O110 2.470 . S
C82 La80 2.928 . S
C82 C83 1.503 . S
C82 O100 1.261 . S
C82 O101 1.243 . S
C83 C82 1.503 . S
C83 C84 1.394 . S
C83 C88 1.373 . S
C84 C83 1.394 . S
C84 C85 1.380 . S
C84 H112 0.930 . S
C85 C84 1.380 . S
C85 C86 1.376 . S
C85 H113 0.930 1_565 S
C86 C85 1.376 . S
C86 C87 1.370 . S
C87 C86 1.370 . S
C87 C88 1.396 . S
C87 H114 0.929 . S
C88 C83 1.373 . S
C88 C87 1.396 . S
C88 H115 0.929 . S
C89 O102 1.240 . S
C89 O103 1.289 . S
C90 O104 1.258 . S
C90 O105 1.256 . S
C91 La81 2.928 . S
C91 C92 1.503 . S
C91 O106 1.261 . S
C91 O107 1.243 . S
C92 C91 1.503 . S
C92 C93 1.394 . S
C92 C97 1.373 . S
C93 C92 1.394 . S
C93 C94 1.380 . S
C93 H116 0.930 . S
C94 C93 1.380 . S
C94 C95 1.376 . S
C94 H117 0.930 . S
C95 C94 1.376 . S
C95 C96 1.370 . S
C96 C95 1.370 . S
C96 C97 1.396 . S
C96 H118 0.929 . S
C97 C92 1.373 . S
C97 C96 1.396 . S
C97 H119 0.929 . S
C98 O108 1.240 . S
C98 O109 1.289 . S
C99 O110 1.258 . S
C99 O111 1.256 . S
O100 La80 2.521 . S
O100 C82 1.261 . S
O101 La80 2.628 . S
O101 C82 1.243 . S
O102 La80 2.554 . S
O102 C89 1.240 . S
O103 La80 2.757 . S
O103 La81 2.482 . S
O103 C89 1.289 . S
O104 La80 2.470 . S
O104 C90 1.258 . S
O105 La81 2.503 . S
O105 C90 1.256 . S
O106 La81 2.521 . S
O106 C91 1.261 . S
O107 La81 2.628 . S
O107 C91 1.243 . S
O108 La81 2.554 . S
O108 C98 1.240 . S
O109 La80 2.482 . S
O109 La81 2.757 . S
O109 C98 1.289 . S
O110 La81 2.470 . S
O110 C99 1.258 . S
O111 La80 2.503 . S
O111 C99 1.256 . S
H112 C84 0.930 . S
H113 C85 0.930 1_545 S
H114 C87 0.929 . S
H115 C88 0.929 . S
H116 C93 0.930 . S
H117 C94 0.930 . S
H118 C96 0.929 . S
H119 C97 0.929 . S
La120 C122 2.928 . S
La120 O140 2.521 . S
La120 O141 2.628 . S
La120 O142 2.554 . S
La120 O143 2.757 . S
La120 O144 2.470 . S
La120 O149 2.482 . S
La120 O151 2.503 . S
La121 C131 2.928 . S
La121 O143 2.482 . S
La121 O145 2.503 . S
La121 O146 2.521 . S
La121 O147 2.628 . S
La121 O148 2.554 . S
La121 O149 2.757 . S
La121 O150 2.470 . S
C122 La120 2.928 . S
C122 C123 1.503 . S
C122 O140 1.261 . S
C122 O141 1.243 . S
C123 C122 1.503 . S
C123 C124 1.394 . S
C123 C128 1.373 . S
C124 C123 1.394 . S
C124 C125 1.380 . S
C124 H152 0.930 . S
C125 C124 1.380 . S
C125 C126 1.376 . S
C125 H153 0.930 . S
C126 C125 1.376 . S
C126 C127 1.370 . S
C127 C126 1.370 . S
C127 C128 1.396 . S
C127 H154 0.929 . S
C128 C123 1.373 . S
C128 C127 1.396 . S
C128 H155 0.929 . S
C129 O142 1.240 . S
C129 O143 1.289 . S
C130 O144 1.258 . S
C130 O145 1.256 . S
C131 La121 2.928 . S
C131 C132 1.503 . S
C131 O146 1.261 . S
C131 O147 1.243 . S
C132 C131 1.503 . S
C132 C133 1.394 . S
C132 C137 1.373 . S
C133 C132 1.394 . S
C133 C134 1.380 . S
C133 H156 0.930 . S
C134 C133 1.380 . S
C134 C135 1.376 . S
C134 H157 0.930 1_545 S
C135 C134 1.376 . S
C135 C136 1.370 . S
C136 C135 1.370 . S
C136 C137 1.396 . S
C136 H158 0.929 . S
C137 C132 1.373 . S
C137 C136 1.396 . S
C137 H159 0.929 . S
C138 O148 1.240 . S
C138 O149 1.289 . S
C139 O150 1.258 . S
C139 O151 1.256 . S
O140 La120 2.521 . S
O140 C122 1.261 . S
O141 La120 2.628 . S
O141 C122 1.243 . S
O142 La120 2.554 . S
O142 C129 1.240 . S
O143 La120 2.757 . S
O143 La121 2.482 . S
O143 C129 1.289 . S
O144 La120 2.470 . S
O144 C130 1.258 . S
O145 La121 2.503 . S
O145 C130 1.256 . S
O146 La121 2.521 . S
O146 C131 1.261 . S
O147 La121 2.628 . S
O147 C131 1.243 . S
O148 La121 2.554 . S
O148 C138 1.240 . S
O149 La120 2.482 . S
O149 La121 2.757 . S
O149 C138 1.289 . S
O150 La121 2.470 . S
O150 C139 1.258 . S
O151 La120 2.503 . S
O151 C139 1.256 . S
H152 C124 0.930 . S
H153 C125 0.930 . S
H154 C127 0.929 . S
H155 C128 0.929 . S
H156 C133 0.930 . S
H157 C134 0.930 1_565 S
H158 C136 0.929 . S
H159 C137 0.929 . S
C160 C161 1.363 . S
C160 C166 1.379 . S
C160 N168 1.356 . S
C161 C160 1.363 . S
C161 C167 1.363 1_556 S
C162 C163 1.363 . S
C162 C167 1.379 . S
C162 N169 1.356 . S
C163 C162 1.363 . S
C163 C166 1.363 1_554 S
N164 C166 1.356 . S
N164 H176 0.984 . S
N164 H177 0.985 . S
N165 C167 1.356 . S
N165 H170 0.984 . S
N165 H171 0.985 . S
C166 C160 1.379 . S
C166 C163 1.363 1_556 S
C166 N164 1.356 . S
C167 C161 1.363 1_554 S
C167 C162 1.379 . S
C167 N165 1.356 . S
N168 C160 1.356 . S
N168 H174 0.984 . S
N168 H175 0.984 . S
N169 C162 1.356 . S
N169 H172 0.984 . S
N169 H173 0.985 . S
H170 N165 0.984 . S
H171 N165 0.985 . S
H172 N169 0.984 . S
H173 N169 0.985 . S
H174 N168 0.984 . S
H175 N168 0.984 . S
H176 N164 0.984 . S
H177 N164 0.985 . S
C178 C179 1.363 . S
C178 C184 1.379 . S
C178 N186 1.356 . S
C179 C178 1.363 . S
C179 C185 1.363 . S
C180 C181 1.363 . S
C180 C185 1.379 . S
C180 N187 1.356 . S
C181 C180 1.363 . S
C181 C184 1.363 . S
N182 C184 1.356 . S
N182 H194 0.984 . S
N182 H195 0.985 . S
N183 C185 1.356 . S
N183 H188 0.984 . S
N183 H189 0.985 . S
C184 C178 1.379 . S
C184 C181 1.363 . S
C184 N182 1.356 . S
C185 C179 1.363 . S
C185 C180 1.379 . S
C185 N183 1.356 . S
N186 C178 1.356 . S
N186 H192 0.984 . S
N186 H193 0.984 . S
N187 C180 1.356 . S
N187 H190 0.984 . S
N187 H191 0.985 . S
H188 N183 0.984 . S
H189 N183 0.985 . S
H190 N187 0.984 . S
H191 N187 0.985 . S
H192 N186 0.984 . S
H193 N186 0.984 . S
H194 N182 0.984 . S
H195 N182 0.985 . S
C196 C197 1.363 1_554 S
C196 C202 1.379 . S
C196 N204 1.356 . S
C197 C196 1.363 1_556 S
C197 C203 1.363 1_445 S
C198 C199 1.363 1_556 S
C198 C203 1.379 . S
C198 N205 1.356 . S
C199 C198 1.363 1_554 S
C199 C202 1.363 1_665 S
N200 C202 1.356 . S
N200 H212 0.984 . S
N200 H213 0.985 1_445 S
N201 C203 1.356 . S
N201 H206 0.984 1_665 S
N201 H207 0.985 . S
C202 C196 1.379 . S
C202 C199 1.363 1_445 S
C202 N200 1.356 . S
C203 C197 1.363 1_665 S
C203 C198 1.379 . S
C203 N201 1.356 . S
N204 C196 1.356 . S
N204 H210 0.984 . S
N204 H211 0.984 . S
N205 C198 1.356 . S
N205 H208 0.984 . S
N205 H209 0.985 . S
H206 N201 0.984 1_445 S
H207 N201 0.985 . S
H208 N205 0.984 . S
H209 N205 0.985 . S
H210 N204 0.984 . S
H211 N204 0.984 . S
H212 N200 0.984 . S
H213 N200 0.985 1_665 S
C214 C215 1.363 . S
C214 C220 1.379 . S
C214 N222 1.356 . S
C215 C214 1.363 . S
C215 C221 1.363 1_645 S
C216 C217 1.363 . S
C216 C221 1.379 . S
C216 N223 1.356 . S
C217 C216 1.363 . S
C217 C220 1.363 1_465 S
N218 C220 1.356 1_565 S
N218 H230 0.984 1_565 S
N218 H231 0.985 1_655 S
N219 C221 1.356 1_545 S
N219 H224 0.984 1_455 S
N219 H225 0.985 1_545 S
C220 C214 1.379 . S
C220 C217 1.363 1_645 S
C220 N218 1.356 1_545 S
C221 C215 1.363 1_465 S
C221 C216 1.379 . S
C221 N219 1.356 1_565 S
N222 C214 1.356 . S
N222 H228 0.984 . S
N222 H229 0.984 . S
N223 C216 1.356 . S
N223 H226 0.984 . S
N223 H227 0.985 . S
H224 N219 0.984 1_655 S
H225 N219 0.985 1_565 S
H226 N223 0.984 . S
H227 N223 0.985 . S
H228 N222 0.984 . S
H229 N222 0.984 . S
H230 N218 0.984 1_545 S
H231 N218 0.985 1_455 S
C232 C233 1.363 . S
C232 C238 1.379 . S
C232 N240 1.356 . S
C233 C232 1.363 . S
C233 C239 1.363 . S
C234 C235 1.363 . S
C234 C239 1.379 . S
C234 N241 1.356 . S
C235 C234 1.363 . S
C235 C238 1.363 . S
N236 C238 1.356 . S
N236 H248 0.984 . S
N236 H249 0.985 . S
N237 C239 1.356 . S
N237 H242 0.984 . S
N237 H243 0.985 . S
C238 C232 1.379 . S
C238 C235 1.363 . S
C238 N236 1.356 . S
C239 C233 1.363 . S
C239 C234 1.379 . S
C239 N237 1.356 . S
N240 C232 1.356 . S
N240 H246 0.984 . S
N240 H247 0.984 . S
N241 C234 1.356 . S
N241 H244 0.984 . S
N241 H245 0.985 . S
H242 N237 0.984 . S
H243 N237 0.985 . S
H244 N241 0.984 . S
H245 N241 0.985 . S
H246 N240 0.984 . S
H247 N240 0.984 . S
H248 N236 0.984 . S
H249 N236 0.985 . S
C250 C251 1.363 . S
C250 C256 1.379 . S
C250 N258 1.356 1_565 S
C251 C250 1.363 . S
C251 C257 1.363 . S
C252 C253 1.363 . S
C252 C257 1.379 . S
C252 N259 1.356 . S
C253 C252 1.363 . S
C253 C256 1.363 . S
N254 C256 1.356 1_545 S
N254 H266 0.984 . S
N254 H267 0.985 . S
N255 C257 1.356 . S
N255 H260 0.984 . S
N255 H261 0.985 . S
C256 C250 1.379 . S
C256 C253 1.363 . S
C256 N254 1.356 1_565 S
C257 C251 1.363 . S
C257 C252 1.379 . S
C257 N255 1.356 . S
N258 C250 1.356 1_545 S
N258 H264 0.984 . S
N258 H265 0.984 . S
N259 C252 1.356 . S
N259 H262 0.984 . S
N259 H263 0.985 . S
H260 N255 0.984 . S
H261 N255 0.985 . S
H262 N259 0.984 . S
H263 N259 0.985 . S
H264 N258 0.984 . S
H265 N258 0.984 . S
H266 N254 0.984 . S
H267 N254 0.985 . S
C268 C269 1.363 . S
C268 C274 1.379 . S
C268 N276 1.356 . S
C269 C268 1.363 . S
C269 C275 1.363 . S
C270 C271 1.363 . S
C270 C275 1.379 . S
C270 N277 1.356 . S
C271 C270 1.363 . S
C271 C274 1.363 . S
N272 C274 1.356 . S
N272 H284 0.984 . S
N272 H285 0.985 . S
N273 C275 1.356 . S
N273 H278 0.984 . S
N273 H279 0.985 . S
C274 C268 1.379 . S
C274 C271 1.363 . S
C274 N272 1.356 . S
C275 C269 1.363 . S
C275 C270 1.379 . S
C275 N273 1.356 . S
N276 C268 1.356 . S
N276 H282 0.984 . S
N276 H283 0.984 . S
N277 C270 1.356 . S
N277 H280 0.984 . S
N277 H281 0.985 . S
H278 N273 0.984 . S
H279 N273 0.985 . S
H280 N277 0.984 . S
H281 N277 0.985 . S
H282 N276 0.984 . S
H283 N276 0.984 . S
H284 N272 0.984 . S
H285 N272 0.985 . S
C286 C287 1.363 . S
C286 C292 1.379 . S
C286 N294 1.356 1_545 S
C287 C286 1.363 . S
C287 C293 1.363 . S
C288 C289 1.363 . S
C288 C293 1.379 . S
C288 N295 1.356 . S
C289 C288 1.363 . S
C289 C292 1.363 . S
N290 C292 1.356 1_565 S
N290 H302 0.984 . S
N290 H303 0.985 . S
N291 C293 1.356 . S
N291 H296 0.984 . S
N291 H297 0.985 . S
C292 C286 1.379 . S
C292 C289 1.363 . S
C292 N290 1.356 1_545 S
C293 C287 1.363 . S
C293 C288 1.379 . S
C293 N291 1.356 . S
N294 C286 1.356 1_565 S
N294 H300 0.984 . S
N294 H301 0.984 . S
N295 C288 1.356 . S
N295 H298 0.984 . S
N295 H299 0.985 . S
H296 N291 0.984 . S
H297 N291 0.985 . S
H298 N295 0.984 . S
H299 N295 0.985 . S
H300 N294 0.984 . S
H301 N294 0.984 . S
H302 N290 0.984 . S
H303 N290 0.985 . S
C304 C305 1.363 1_455 S
C304 C310 1.379 . S
C304 N312 1.356 . S
C305 C304 1.363 1_655 S
C305 C311 1.363 . S
C306 C307 1.363 1_655 S
C306 C311 1.379 . S
C306 N313 1.356 . S
C307 C306 1.363 1_455 S
C307 C310 1.363 . S
N308 C310 1.356 . S
N308 H320 0.984 . S
N308 H321 0.985 . S
N309 C311 1.356 . S
N309 H314 0.984 . S
N309 H315 0.985 . S
C310 C304 1.379 . S
C310 C307 1.363 . S
C310 N308 1.356 . S
C311 C305 1.363 . S
C311 C306 1.379 . S
C311 N309 1.356 . S
N312 C304 1.356 . S
N312 H318 0.984 . S
N312 H319 0.984 . S
N313 C306 1.356 . S
N313 H316 0.984 . S
N313 H317 0.985 . S
H314 N309 0.984 . S
H315 N309 0.985 . S
H316 N313 0.984 . S
H317 N313 0.985 . S
H318 N312 0.984 . S
H319 N312 0.984 . S
H320 N308 0.984 . S
H321 N308 0.985 . S
C322 C323 1.363 . S
C322 C328 1.379 . S
C322 N330 1.356 . S
C323 C322 1.363 . S
C323 C329 1.363 1_455 S
C324 C325 1.363 . S
C324 C329 1.379 . S
C324 N331 1.356 . S
C325 C324 1.363 . S
C325 C328 1.363 1_655 S
N326 C328 1.356 . S
N326 H338 0.984 . S
N326 H339 0.985 . S
N327 C329 1.356 . S
N327 H332 0.984 . S
N327 H333 0.985 . S
C328 C322 1.379 . S
C328 C325 1.363 1_455 S
C328 N326 1.356 . S
C329 C323 1.363 1_655 S
C329 C324 1.379 . S
C329 N327 1.356 . S
N330 C322 1.356 . S
N330 H336 0.984 . S
N330 H337 0.984 . S
N331 C324 1.356 . S
N331 H334 0.984 . S
N331 H335 0.985 . S
H332 N327 0.984 . S
H333 N327 0.985 . S
H334 N331 0.984 . S
H335 N331 0.985 . S
H336 N330 0.984 . S
H337 N330 0.984 . S
H338 N326 0.984 . S
H339 N326 0.985 . S
C340 C341 1.363 . S
C340 C346 1.379 . S
C340 N348 1.356 . S
C341 C340 1.363 . S
C341 C347 1.363 1_655 S
C342 C343 1.363 . S
C342 C347 1.379 . S
C342 N349 1.356 . S
C343 C342 1.363 . S
C343 C346 1.363 1_455 S
N344 C346 1.356 . S
N344 H356 0.984 . S
N344 H357 0.985 . S
N345 C347 1.356 . S
N345 H350 0.984 . S
N345 H351 0.985 . S
C346 C340 1.379 . S
C346 C343 1.363 1_655 S
C346 N344 1.356 . S
C347 C341 1.363 1_455 S
C347 C342 1.379 . S
C347 N345 1.356 . S
N348 C340 1.356 . S
N348 H354 0.984 . S
N348 H355 0.984 . S
N349 C342 1.356 . S
N349 H352 0.984 . S
N349 H353 0.985 . S
H350 N345 0.984 . S
H351 N345 0.985 . S
H352 N349 0.984 . S
H353 N349 0.985 . S
H354 N348 0.984 . S
H355 N348 0.984 . S
H356 N344 0.984 . S
H357 N344 0.985 . S
C358 C359 1.363 1_455 S
C358 C364 1.379 . S
C358 N366 1.356 . S
C359 C358 1.363 1_655 S
C359 C365 1.363 . S
C360 C361 1.363 1_655 S
C360 C365 1.379 . S
C360 N367 1.356 . S
C361 C360 1.363 1_455 S
C361 C364 1.363 . S
N362 C364 1.356 . S
N362 H374 0.984 . S
N362 H375 0.985 . S
N363 C365 1.356 . S
N363 H368 0.984 . S
N363 H369 0.985 . S
C364 C358 1.379 . S
C364 C361 1.363 . S
C364 N362 1.356 . S
C365 C359 1.363 . S
C365 C360 1.379 . S
C365 N363 1.356 . S
N366 C358 1.356 . S
N366 H372 0.984 . S
N366 H373 0.984 . S
N367 C360 1.356 . S
N367 H370 0.984 . S
N367 H371 0.985 . S
H368 N363 0.984 . S
H369 N363 0.985 . S
H370 N367 0.984 . S
H371 N367 0.985 . S
H372 N366 0.984 . S
H373 N366 0.984 . S
H374 N362 0.984 . S
H375 N362 0.985 . S
C161 C58 1.740 . S
C163 C9 1.740 . S
C179 C98 1.740 . S
C181 C129 1.740 . S
C197 C18 1.740 . S
C199 C49 1.740 . S
C215 C138 1.740 . S
C217 C89 1.740 . S
C233 C130 1.861 . S
C235 C10 1.861 . S
C251 C46 1.187 . S
C253 C86 1.187 . S
C269 C59 1.861 . S
C271 C99 1.861 . S
C287 C135 1.187 . S
C289 C15 1.187 . S
C305 C50 1.861 . S
C307 C90 1.861 . S
C323 C126 1.187 1_455 S
C325 C6 1.187 1_655 S
C341 C139 1.861 . S
C343 C19 1.861 . S
C359 C95 1.187 1_655 S
C361 C55 1.187 1_455 S
