# Generated by pormake.
# Topology umb, (4)-cn, num edge types: 1
# Building blocks:
#     Node 0, Type 0, BuildingBlock: QUQFOY_clean_sbu_3, # of connection points: 4
#     Node 1, Type 0, BuildingBlock: QUQFOY_clean_sbu_3, # of connection points: 4
#     Node 2, Type 0, BuildingBlock: QUQFOY_clean_sbu_3, # of connection points: 4
#     Node 3, Type 0, BuildingBlock: QUQFOY_clean_sbu_3, # of connection points: 4
#     Node 4, Type 0, BuildingBlock: QUQFOY_clean_sbu_3, # of connection points: 4
#     Node 5, Type 0, BuildingBlock: QUQFOY_clean_sbu_3, # of connection points: 4
#     Node 6, Type 0, BuildingBlock: QUQFOY_clean_sbu_3, # of connection points: 4
#     Node 7, Type 0, BuildingBlock: QUQFOY_clean_sbu_3, # of connection points: 4
#     Node 8, Type 0, BuildingBlock: QUQFOY_clean_sbu_3, # of connection points: 4
#     Node 9, Type 0, BuildingBlock: QUQFOY_clean_sbu_3, # of connection points: 4
#     Node 10, Type 0, BuildingBlock: QUQFOY_clean_sbu_3, # of connection points: 4
#     Node 11, Type 0, BuildingBlock: QUQFOY_clean_sbu_3, # of connection points: 4
#     Edge 12, Type (0, 0), BuildingBlock: TEMPAE_clean_linker_10, # of connection points: 2
#     Edge 13, Type (0, 0), BuildingBlock: TEMPAE_clean_linker_10, # of connection points: 2
#     Edge 14, Type (0, 0), BuildingBlock: TEMPAE_clean_linker_10, # of connection points: 2
#     Edge 15, Type (0, 0), BuildingBlock: TEMPAE_clean_linker_10, # of connection points: 2
#     Edge 16, Type (0, 0), BuildingBlock: TEMPAE_clean_linker_10, # of connection points: 2
#     Edge 17, Type (0, 0), BuildingBlock: TEMPAE_clean_linker_10, # of connection points: 2
#     Edge 18, Type (0, 0), BuildingBlock: TEMPAE_clean_linker_10, # of connection points: 2
#     Edge 19, Type (0, 0), BuildingBlock: TEMPAE_clean_linker_10, # of connection points: 2
#     Edge 20, Type (0, 0), BuildingBlock: TEMPAE_clean_linker_10, # of connection points: 2
#     Edge 21, Type (0, 0), BuildingBlock: TEMPAE_clean_linker_10, # of connection points: 2
#     Edge 22, Type (0, 0), BuildingBlock: TEMPAE_clean_linker_10, # of connection points: 2
#     Edge 23, Type (0, 0), BuildingBlock: TEMPAE_clean_linker_10, # of connection points: 2
#     Edge 24, Type (0, 0), BuildingBlock: TEMPAE_clean_linker_10, # of connection points: 2
#     Edge 25, Type (0, 0), BuildingBlock: TEMPAE_clean_linker_10, # of connection points: 2
#     Edge 26, Type (0, 0), BuildingBlock: TEMPAE_clean_linker_10, # of connection points: 2
#     Edge 27, Type (0, 0), BuildingBlock: TEMPAE_clean_linker_10, # of connection points: 2
#     Edge 28, Type (0, 0), BuildingBlock: TEMPAE_clean_linker_10, # of connection points: 2
#     Edge 29, Type (0, 0), BuildingBlock: TEMPAE_clean_linker_10, # of connection points: 2
#     Edge 30, Type (0, 0), BuildingBlock: TEMPAE_clean_linker_10, # of connection points: 2
#     Edge 31, Type (0, 0), BuildingBlock: TEMPAE_clean_linker_10, # of connection points: 2
#     Edge 32, Type (0, 0), BuildingBlock: TEMPAE_clean_linker_10, # of connection points: 2
#     Edge 33, Type (0, 0), BuildingBlock: TEMPAE_clean_linker_10, # of connection points: 2
#     Edge 34, Type (0, 0), BuildingBlock: TEMPAE_clean_linker_10, # of connection points: 2
#     Edge 35, Type (0, 0), BuildingBlock: TEMPAE_clean_linker_10, # of connection points: 2
# Relax obj value: 0.254
# Max RMSD: 0.247
# Mean RMSD: 0.247
data_MOF--net-umb--node1-QUQFOY_clean_sbu_3--edge1-TEMPAE_clean_linker_10
_symmetry_space_group_name_H-M    P1
_symmetry_Int_Tables_number       1
_symmetry_cell_setting            triclinic
loop_
_symmetry_equiv_pos_as_xyz
'x, y, z'
_cell_length_a     51.151695
_cell_length_b     51.248668
_cell_length_c     39.06976
_cell_angle_alpha  90.41789
_cell_angle_beta   89.83673
_cell_angle_gamma 119.895
loop_
_atom_site_label
_atom_site_type_symbol
_atom_site_fract_x
_atom_site_fract_y
_atom_site_fract_z
_atom_type_partial_charge
C0 C 0.44496 0.15404 0.26422 0.0
O1 O 0.43202 0.15252 0.29246 0.0
Cd2 Cd 0.45952 0.15108 0.34293 0.0
O3 O 0.46641 0.1483 0.26365 0.0
Cd4 Cd 0.48932 0.12899 0.30486 0.0
C5 C 0.53218 0.20015 0.32135 0.0
O6 O 0.46769 0.11113 0.36391 0.0
O7 O 0.51622 0.13573 0.35631 0.0
O8 O 0.46573 0.08034 0.27673 0.0
C9 C 0.49417 0.12023 0.37597 0.0
O10 O 0.50959 0.19486 0.33993 0.0
C11 C 0.49018 0.08038 0.27093 0.0
O12 O 0.53109 0.17994 0.30125 0.0
O13 O 0.51462 0.10377 0.27956 0.0
C14 C 0.27876 0.47924 0.58696 0.0
O15 O 0.27742 0.45969 0.60779 0.0
Cd16 Cd 0.32213 0.4985 0.63954 0.0
O17 O 0.30092 0.50575 0.59005 0.0
Cd18 Cd 0.3439 0.51621 0.6318 0.0
C19 C 0.32744 0.56316 0.63974 0.0
O20 O 0.33772 0.49676 0.69506 0.0
O21 O 0.36925 0.54325 0.68296 0.0
O22 O 0.35643 0.48116 0.6038 0.0
C23 C 0.35828 0.52272 0.70536 0.0
O24 O 0.30903 0.53744 0.65152 0.0
C25 C 0.38339 0.50115 0.59709 0.0
O26 O 0.35005 0.56595 0.62316 0.0
O27 O 0.3915 0.52818 0.60536 0.0
C28 C 0.76611 0.27943 0.92489 0.0
O29 O 0.78005 0.27518 0.9491 0.0
Cd30 Cd 0.78817 0.32156 0.97853 0.0
O31 O 0.76502 0.30363 0.92567 0.0
Cd32 Cd 0.79408 0.34439 0.97187 0.0
C33 C 0.73184 0.33233 0.97076 0.0
O34 O 0.80197 0.33337 0.03554 0.0
O35 O 0.78462 0.36325 0.02484 0.0
O36 O 0.84421 0.35897 0.94924 0.0
C37 C 0.79381 0.35164 0.04691 0.0
O38 O 0.73633 0.31218 0.98336 0.0
C39 C 0.85183 0.38648 0.94575 0.0
O40 O 0.75411 0.35497 0.95731 0.0
O41 O 0.83237 0.39407 0.95342 0.0
C42 C 0.466 0.78205 0.27586 0.0
O43 O 0.47682 0.78169 0.30489 0.0
Cd44 Cd 0.44556 0.78346 0.35137 0.0
O45 O 0.44668 0.79068 0.27408 0.0
Cd46 Cd 0.427 0.81468 0.31415 0.0
C47 C 0.37456 0.74503 0.31884 0.0
O48 O 0.44211 0.82515 0.37665 0.0
O49 O 0.39584 0.80963 0.36124 0.0
O50 O 0.46084 0.86434 0.29133 0.0
C51 C 0.41557 0.81986 0.38471 0.0
O52 O 0.39419 0.74488 0.33867 0.0
C53 C 0.43991 0.86926 0.28212 0.0
O54 O 0.38039 0.76869 0.30242 0.0
O55 O 0.41288 0.84842 0.28691 0.0
C56 C 0.64913 0.48148 0.60658 0.0
O57 O 0.65922 0.49121 0.63638 0.0
Cd58 Cd 0.62666 0.46129 0.68371 0.0
O59 O 0.62183 0.46096 0.60313 0.0
Cd60 Cd 0.57697 0.43402 0.63955 0.0
C61 C 0.60591 0.39093 0.65558 0.0
O62 O 0.57673 0.45235 0.69979 0.0
O63 O 0.55 0.4048 0.68683 0.0
O64 O 0.55545 0.4599 0.60979 0.0
C65 C 0.55658 0.42567 0.70853 0.0
O66 O 0.62147 0.41202 0.67677 0.0
C67 C 0.53198 0.43621 0.59979 0.0
O68 O 0.58799 0.39325 0.63486 0.0
O69 O 0.52959 0.41105 0.60753 0.0
C70 C 0.13909 0.66479 0.94073 0.0
O71 O 0.13959 0.6763 0.96974 0.0
Cd72 Cd 0.13713 0.64687 0.01989 0.0
O73 O 0.13171 0.63719 0.93894 0.0
Cd74 Cd 0.11256 0.59375 0.97814 0.0
C75 C 0.18445 0.62144 -0.00392 0.0
O76 O 0.0944 0.59903 0.03644 0.0
O77 O 0.11181 0.56828 0.02864 0.0
O78 O 0.06469 0.57033 0.9483 0.0
C79 C 0.09869 0.57811 0.04797 0.0
O80 O 0.17977 0.63887 0.01528 0.0
C81 C 0.06467 0.54606 0.94141 0.0
O82 O 0.16383 0.60272 0.97615 0.0
O83 O 0.08781 0.54452 0.95002 0.0
C84 C 0.76881 0.47319 0.40891 0.0
O85 O 0.78266 0.49086 0.3843 0.0
Cd86 Cd 0.78979 0.45137 0.35593 0.0
O87 O 0.76759 0.44786 0.40884 0.0
Cd88 Cd 0.79575 0.43381 0.36439 0.0
C89 C 0.73209 0.38576 0.36425 0.0
O90 O 0.80283 0.44854 0.29945 0.0
O91 O 0.78947 0.40299 0.31456 0.0
O92 O 0.8477 0.47013 0.37836 0.0
C93 C 0.79683 0.42204 0.29067 0.0
O94 O 0.73759 0.41068 0.35159 0.0
C95 C 0.85338 0.45118 0.39229 0.0
O96 O 0.75377 0.38424 0.37787 0.0
O97 O 0.8319 0.42414 0.39421 0.0
C98 C 0.25282 0.78318 0.73454 0.0
O99 O 0.24121 0.78371 0.70611 0.0
Cd100 Cd 0.27181 0.7848 0.65727 0.0
O101 O 0.28042 0.79034 0.73531 0.0
Cd102 Cd 0.32305 0.81174 0.69456 0.0
C103 C 0.29981 0.74079 0.68464 0.0
O104 O 0.31853 0.82496 0.63346 0.0
O105 O 0.3456 0.80431 0.64544 0.0
O106 O 0.34364 0.86159 0.71954 0.0
C107 C 0.33758 0.81711 0.62359 0.0
O108 O 0.28125 0.74337 0.66529 0.0
C109 C 0.36897 0.86417 0.72707 0.0
O110 O 0.31846 0.76295 0.70292 0.0
O111 O 0.37261 0.84183 0.72065 0.0
C112 C 0.44066 0.26775 0.05747 0.0
O113 O 0.42936 0.25576 0.02878 0.0
Cd114 Cd 0.45555 0.28577 0.97858 0.0
O115 O 0.45994 0.29567 0.05868 0.0
Cd116 Cd 0.48089 0.33829 0.01804 0.0
C117 C 0.52907 0.31578 0.00257 0.0
O118 O 0.45916 0.33223 0.95875 0.0
O119 O 0.50753 0.35966 0.96671 0.0
O120 O 0.4534 0.36018 0.04495 0.0
C121 C 0.48518 0.35105 0.94681 0.0
O122 O 0.50753 0.29736 0.98343 0.0
C123 C 0.47662 0.38541 0.05138 0.0
O124 O 0.52559 0.33354 0.02262 0.0
O125 O 0.50213 0.38838 0.04366 0.0
C126 C 0.1522 0.4617 0.38221 0.0
O127 O 0.15892 0.45709 0.35233 0.0
Cd128 Cd 0.14786 0.4781 0.30181 0.0
O129 O 0.13674 0.47473 0.38574 0.0
Cd130 Cd 0.11239 0.49507 0.34828 0.0
C131 C 0.17987 0.55126 0.32689 0.0
O132 O 0.09962 0.47347 0.28882 0.0
O133 O 0.10483 0.51766 0.29955 0.0
O134 O 0.06223 0.46216 0.36879 0.0
C135 C 0.09789 0.49626 0.27852 0.0
O136 O 0.17985 0.53158 0.30682 0.0
C137 C 0.05921 0.48243 0.38414 0.0
O138 O 0.15886 0.54412 0.34879 0.0
O139 O 0.08192 0.50892 0.38454 0.0
C140 C 0.64992 0.15061 0.7244 0.0
O141 O 0.6611 0.15078 0.69534 0.0
Cd142 Cd 0.63012 0.14806 0.64618 0.0
O143 O 0.62231 0.14326 0.72624 0.0
Cd144 Cd 0.57895 0.12379 0.68672 0.0
C145 C 0.60672 0.19584 0.6736 0.0
O146 O 0.58143 0.1077 0.62599 0.0
O147 O 0.55427 0.12829 0.63836 0.0
O148 O 0.55703 0.07508 0.7138 0.0
C149 C 0.56171 0.11473 0.61656 0.0
O150 O 0.62362 0.19131 0.65336 0.0
C151 C 0.53268 0.0743 0.72232 0.0
O152 O 0.58799 0.17484 0.69289 0.0
O153 O 0.53015 0.09714 0.71534 0.0
C154 C 0.47028 0.66889 0.06606 0.0
O155 O 0.48331 0.68127 0.0383 0.0
Cd156 Cd 0.45507 0.6531 0.98761 0.0
O157 O 0.44951 0.64149 0.06534 0.0
Cd158 Cd 0.42871 0.60022 0.02218 0.0
C159 C 0.38264 0.62593 0.01373 0.0
O160 O 0.44888 0.607 0.96185 0.0
O161 O 0.40064 0.58048 0.97105 0.0
O162 O 0.45617 0.57767 0.04688 0.0
C163 C 0.42239 0.58899 0.95023 0.0
O164 O 0.40439 0.64475 -0.00469 0.0
C165 C 0.43293 0.55233 0.05253 0.0
O166 O 0.38514 0.60617 0.03072 0.0
O167 O 0.40743 0.54948 0.04515 0.0
C168 C 0.48085 0.08995 0.43067 0.0
C169 C 0.50054 0.11545 0.41177 0.0
C170 C 0.48891 0.0852 0.46367 0.0
C171 C 0.51696 0.10678 0.47826 0.0
C172 C 0.53663 0.13264 0.45924 0.0
C173 C 0.52831 0.13647 0.42634 0.0
C174 C 0.46753 0.05713 0.48294 0.0
C175 C 0.56633 0.15673 0.47391 0.0
C176 C 0.52816 0.11961 0.57402 0.0
C177 C 0.54832 0.10925 0.58156 0.0
C178 C 0.51664 0.11746 0.54099 0.0
C179 C 0.52501 0.10422 0.51442 0.0
C180 C 0.54412 0.09228 0.52204 0.0
C181 C 0.55575 0.09511 0.5555 0.0
C182 C 0.49687 0.13106 0.53418 0.0
C183 C 0.55319 0.07755 0.49453 0.0
H184 H 0.45955 0.07346 0.41939 0.0
H185 H 0.54364 0.15635 0.41201 0.0
H186 H 0.47939 0.04504 0.49107 0.0
H187 H 0.45961 0.06327 0.50649 0.0
H188 H 0.44757 0.04162 0.46732 0.0
H189 H 0.57933 0.17519 0.4555 0.0
H190 H 0.56223 0.16656 0.49732 0.0
H191 H 0.58039 0.14681 0.48143 0.0
H192 H 0.52197 0.13042 0.59385 0.0
H193 H 0.57106 0.08682 0.56104 0.0
H194 H 0.47599 0.11469 0.52063 0.0
H195 H 0.50902 0.15093 0.51735 0.0
H196 H 0.49048 0.13837 0.55808 0.0
H197 H 0.53316 0.06123 0.47962 0.0
H198 H 0.56446 0.06568 0.5053 0.0
H199 H 0.56896 0.0949 0.47646 0.0
C200 C 0.38676 0.56078 0.75082 0.0
C201 C 0.36906 0.53031 0.74142 0.0
C202 C 0.39735 0.56953 0.78436 0.0
C203 C 0.39053 0.54733 0.8095 0.0
C204 C 0.3733 0.51644 0.80014 0.0
C205 C 0.36253 0.50826 0.76624 0.0
C206 C 0.41497 0.6027 0.79313 0.0
C207 C 0.36585 0.49207 0.82609 0.0
C208 C 0.43595 0.57579 0.89275 0.0
C209 C 0.41562 0.57919 0.91385 0.0
C210 C 0.42777 0.56433 0.85906 0.0
C211 C 0.39892 0.55682 0.84604 0.0
C212 C 0.3786 0.56062 0.86726 0.0
C213 C 0.38707 0.57142 0.9008 0.0
C214 C 0.44992 0.56019 0.83741 0.0
C215 C 0.348 0.55385 0.85435 0.0
H216 H 0.39195 0.57811 0.73198 0.0
H217 H 0.34911 0.4847 0.75919 0.0
H218 H 0.40213 0.60827 0.81191 0.0
H219 H 0.43676 0.60838 0.80525 0.0
H220 H 0.4196 0.61715 0.7703 0.0
H221 H 0.35485 0.46929 0.8142 0.0
H222 H 0.38665 0.49603 0.83943 0.0
H223 H 0.35047 0.49263 0.84579 0.0
H224 H 0.45789 0.58141 0.9028 0.0
H225 H 0.37124 0.57413 0.91686 0.0
H226 H 0.45652 0.57516 0.81484 0.0
H227 H 0.4392 0.53671 0.82764 0.0
H228 H 0.47061 0.56524 0.85186 0.0
H229 H 0.35076 0.56842 0.83219 0.0
H230 H 0.33463 0.55752 0.87431 0.0
H231 H 0.33497 0.53017 0.84534 0.0
C232 C 0.78123 0.38172 0.24636 0.0
C233 C 0.79733 0.41252 0.25472 0.0
C234 C 0.78153 0.37136 0.21309 0.0
C235 C 0.79881 0.39218 0.18737 0.0
C236 C 0.81541 0.42335 0.19564 0.0
C237 C 0.81423 0.4332 0.22916 0.0
C238 C 0.76281 0.33808 0.20536 0.0
C239 C 0.83439 0.44625 0.16905 0.0
C240 C 0.81563 0.3603 0.10658 0.0
C241 C 0.79437 0.35975 0.0836 0.0
C242 C 0.81778 0.37131 0.14031 0.0
C243 C 0.79778 0.38136 0.15142 0.0
C244 C 0.7758 0.38001 0.12846 0.0
C245 C 0.77458 0.36954 0.0949 0.0
C246 C 0.84174 0.37269 0.1639 0.0
C247 C 0.75345 0.38961 0.13931 0.0
H248 H 0.76794 0.36554 0.26587 0.0
H249 H 0.8269 0.45697 0.2355 0.0
H250 H 0.74574 0.33415 0.18551 0.0
H251 H 0.77733 0.32951 0.19496 0.0
H252 H 0.75096 0.32476 0.22836 0.0
H253 H 0.84734 0.46935 0.17994 0.0
H254 H 0.85044 0.44013 0.15739 0.0
H255 H 0.81977 0.44632 0.14818 0.0
H256 H 0.83119 0.3531 0.09787 0.0
H257 H 0.75797 0.36905 0.07731 0.0
H258 H 0.83112 0.35876 0.18687 0.0
H259 H 0.85649 0.39618 0.17289 0.0
H260 H 0.85594 0.36466 0.15126 0.0
H261 H 0.74032 0.37626 0.16169 0.0
H262 H 0.73745 0.38672 0.1185 0.0
H263 H 0.76557 0.4136 0.14734 0.0
C264 C 0.42717 0.84014 0.44557 0.0
C265 C 0.40631 0.82324 0.41991 0.0
C266 C 0.41735 0.84281 0.47861 0.0
C267 C 0.38602 0.82774 0.48626 0.0
C268 C 0.36502 0.81093 0.46028 0.0
C269 C 0.37536 0.8091 0.42759 0.0
C270 C 0.44044 0.8613 0.50551 0.0
C271 C 0.3315 0.79379 0.46729 0.0
C272 C 0.35942 0.80094 0.57673 0.0
C273 C 0.34929 0.82047 0.58805 0.0
C274 C 0.37192 0.80356 0.54411 0.0
C275 C 0.37499 0.82668 0.52205 0.0
C276 C 0.36512 0.84678 0.53333 0.0
C277 C 0.35205 0.84324 0.56614 0.0
C278 C 0.3812 0.78102 0.53302 0.0
C279 C 0.36836 0.87194 0.51072 0.0
H280 H 0.45107 0.85132 0.43984 0.0
H281 H 0.35894 0.79584 0.40809 0.0
H282 H 0.43466 0.87742 0.51765 0.0
H283 H 0.44033 0.84634 0.52596 0.0
H284 H 0.46358 0.87403 0.49475 0.0
H285 H 0.31805 0.78289 0.44389 0.0
H286 H 0.32639 0.77608 0.48657 0.0
H287 H 0.32405 0.80908 0.47809 0.0
H288 H 0.35723 0.78312 0.59339 0.0
H289 H 0.34459 0.85858 0.57484 0.0
H290 H 0.40526 0.79283 0.52531 0.0
H291 H 0.36778 0.76819 0.51037 0.0
H292 H 0.37795 0.76479 0.55354 0.0
H293 H 0.39208 0.88563 0.50205 0.0
H294 H 0.36161 0.88691 0.52401 0.0
H295 H 0.35419 0.86246 0.48751 0.0
C296 C 0.47286 0.36966 0.89287 0.0
C297 C 0.49097 0.36092 0.91066 0.0
C298 C 0.48136 0.3827 0.86006 0.0
C299 C 0.50816 0.38638 0.84459 0.0
C300 C 0.52598 0.37684 0.86234 0.0
C301 C 0.51735 0.3646 0.89513 0.0
C302 C 0.46204 0.39303 0.84219 0.0
C303 C 0.55419 0.37938 0.84663 0.0
C304 C 0.51901 0.38777 0.74854 0.0
C305 C 0.5418 0.41767 0.74278 0.0
C306 C 0.50667 0.37781 0.78113 0.0
C307 C 0.51696 0.39824 0.80901 0.0
C308 C 0.5386 0.42893 0.80313 0.0
C309 C 0.55092 0.43829 0.77007 0.0
C310 C 0.48404 0.34484 0.78604 0.0
C311 C 0.54979 0.45154 0.83208 0.0
H312 H 0.45275 0.36732 0.90507 0.0
H313 H 0.53141 0.35784 0.90882 0.0
H314 H 0.47568 0.4174 0.83649 0.0
H315 H 0.45391 0.38104 0.81737 0.0
H316 H 0.44223 0.3891 0.85781 0.0
H317 H 0.56547 0.37082 0.86382 0.0
H318 H 0.54854 0.36644 0.82225 0.0
H319 H 0.57043 0.40321 0.84055 0.0
H320 H 0.51141 0.37159 0.72766 0.0
H321 H 0.5683 0.46143 0.7659 0.0
H322 H 0.46413 0.3421 0.80045 0.0
H323 H 0.49446 0.33422 0.80131 0.0
H324 H 0.47621 0.33249 0.76132 0.0
H325 H 0.53057 0.44931 0.84758 0.0
H326 H 0.56301 0.47503 0.82269 0.0
H327 H 0.56439 0.44715 0.84926 0.0
C328 C 0.109 0.50152 0.21596 0.0
C329 C 0.09032 0.49986 0.24308 0.0
C330 C 0.10712 0.51304 0.18399 0.0
C331 C 0.0856 0.52246 0.17892 0.0
C332 C 0.0654 0.51891 0.2057 0.0
C333 C 0.06839 0.50819 0.23762 0.0
C334 C 0.12942 0.51686 0.15636 0.0
C335 C 0.04153 0.52772 0.20119 0.0
C336 C 0.10462 0.58284 0.1114 0.0
C337 C 0.08987 0.56533 0.08259 0.0
C338 C 0.10277 0.56923 0.14322 0.0
C339 C 0.08531 0.53744 0.14629 0.0
C340 C 0.06886 0.51996 0.11763 0.0
C341 C 0.07177 0.53407 0.08601 0.0
C342 C 0.12102 0.58871 0.17296 0.0
C343 C 0.0493 0.4862 0.1199 0.0
H344 H 0.12648 0.49584 0.22048 0.0
H345 H 0.05423 0.5073 0.25881 0.0
H346 H 0.11741 0.50579 0.13231 0.0
H347 H 0.14412 0.54116 0.15084 0.0
H348 H 0.1439 0.50734 0.16377 0.0
H349 H 0.02541 0.52026 0.22294 0.0
H350 H 0.05237 0.55254 0.19913 0.0
H351 H 0.02874 0.51788 0.17715 0.0
H352 H 0.11925 0.60691 0.1085 0.0
H353 H 0.06077 0.5205 0.06352 0.0
H354 H 0.13846 0.58287 0.18015 0.0
H355 H 0.10636 0.58447 0.19561 0.0
H356 H 0.13239 0.61308 0.16688 0.0
H357 H 0.06372 0.47589 0.12322 0.0
H358 H 0.03527 0.47636 0.0966 0.0
H359 H 0.03423 0.48002 0.1425 0.0
C360 C 0.69511 0.33142 0.37449 0.0
C361 C 0.70189 0.35911 0.36029 0.0
C362 C 0.66712 0.30561 0.36834 0.0
C363 C 0.64575 0.30766 0.34726 0.0
C364 C 0.65233 0.33563 0.33329 0.0
C365 C 0.68026 0.36106 0.34015 0.0
C366 C 0.66053 0.2761 0.38402 0.0
C367 C 0.63009 0.33858 0.31057 0.0
C368 C 0.58545 0.2363 0.30474 0.0
C369 C 0.56066 0.22878 0.32609 0.0
C370 C 0.61333 0.26214 0.31117 0.0
C371 C 0.6164 0.28057 0.33978 0.0
C372 C 0.59137 0.27336 0.36109 0.0
C373 C 0.56374 0.24765 0.35385 0.0
C374 C 0.63956 0.26956 0.28762 0.0
C375 C 0.59393 0.29249 0.3919 0.0
H376 H 0.71177 0.32985 0.39006 0.0
H377 H 0.68539 0.38239 0.32897 0.0
H378 H 0.63962 0.26679 0.39953 0.0
H379 H 0.65665 0.25946 0.36351 0.0
H380 H 0.67923 0.27851 0.4006 0.0
H381 H 0.6387 0.36207 0.30189 0.0
H382 H 0.62496 0.32386 0.28769 0.0
H383 H 0.60856 0.33104 0.32441 0.0
H384 H 0.58319 0.22182 0.28325 0.0
H385 H 0.54473 0.24191 0.37062 0.0
H386 H 0.65815 0.26959 0.3022 0.0
H387 H 0.64843 0.29246 0.27698 0.0
H388 H 0.63322 0.25327 0.26604 0.0
H389 H 0.57223 0.28374 0.40586 0.0
H390 H 0.60149 0.31591 0.38388 0.0
H391 H 0.61115 0.29341 0.40984 0.0
C392 C 0.28363 0.69046 0.65892 0.0
C393 C 0.30176 0.71305 0.68253 0.0
C394 C 0.28775 0.66583 0.65291 0.0
C395 C 0.3103 0.66356 0.67124 0.0
C396 C 0.32783 0.68553 0.69616 0.0
C397 C 0.32342 0.71016 0.70145 0.0
C398 C 0.26861 0.64275 0.62614 0.0
C399 C 0.35173 0.68341 0.71655 0.0
C400 C 0.30259 0.58639 0.67263 0.0
C401 C 0.32324 0.58902 0.64729 0.0
C402 C 0.29872 0.61076 0.68131 0.0
C403 C 0.31562 0.63826 0.66386 0.0
C404 C 0.33655 0.64114 0.63826 0.0
C405 C 0.34028 0.61645 0.63042 0.0
C406 C 0.27642 0.60701 0.70897 0.0
C407 C 0.35465 0.67014 0.61888 0.0
H408 H 0.26679 0.69245 0.64421 0.0
H409 H 0.33746 0.7275 0.71977 0.0
H410 H 0.28322 0.64226 0.60539 0.0
H411 H 0.25667 0.61997 0.63755 0.0
H412 H 0.25162 0.64754 0.61464 0.0
H413 H 0.36224 0.70144 0.73628 0.0
H414 H 0.34186 0.66125 0.72938 0.0
H415 H 0.36965 0.68508 0.69912 0.0
H416 H 0.28959 0.5653 0.68606 0.0
H417 H 0.3563 0.61853 0.61089 0.0
H418 H 0.25813 0.61004 0.698 0.0
H419 H 0.28771 0.62452 0.72906 0.0
H420 H 0.26612 0.58452 0.72117 0.0
H421 H 0.33922 0.67567 0.60486 0.0
H422 H 0.37041 0.66886 0.60022 0.0
H423 H 0.36786 0.68894 0.63702 0.0
C424 C 0.58242 0.3357 0.0217 0.0
C425 C 0.55884 0.31799 -0.00095 0.0
C426 C 0.61112 0.33896 0.01717 0.0
C427 C 0.61626 0.32439 0.98919 0.0
C428 C 0.59258 0.30655 0.96624 0.0
C429 C 0.56413 0.30343 0.97157 0.0
C430 C 0.63588 0.35785 0.04235 0.0
C431 C 0.59732 0.29081 0.93601 0.0
C432 C 0.69634 0.35156 0.95944 0.0
C433 C 0.70208 0.33008 0.97417 0.0
C434 C 0.66845 0.35012 0.96423 0.0
C435 C 0.64609 0.32681 0.98444 0.0
C436 C 0.6518 0.30511 -0.00065 0.0
C437 C 0.67967 0.30692 -0.00612 0.0
C438 C 0.66286 0.37342 0.94766 0.0
C439 C 0.62849 0.27998 0.02113 0.0
H440 H 0.57848 0.34703 0.04293 0.0
H441 H 0.54611 0.2899 0.95374 0.0
H442 H 0.6441 0.34386 0.05474 0.0
H443 H 0.65531 0.37627 0.02875 0.0
H444 H 0.62824 0.36787 0.0626 0.0
H445 H 0.57672 0.27846 0.92002 0.0
H446 H 0.61586 0.30744 0.91969 0.0
H447 H 0.6041 0.27458 0.94506 0.0
H448 H 0.71362 0.36953 0.94426 0.0
H449 H 0.68403 0.29032 0.00554 0.0
H450 H 0.6573 0.38549 0.96749 0.0
H451 H 0.6432 0.36226 0.93016 0.0
H452 H 0.68267 0.39018 0.93288 0.0
H453 H 0.62177 0.28949 0.04281 0.0
H454 H 0.63684 0.26537 0.0316 0.0
H455 H 0.60791 0.26579 0.00578 0.0
C456 C 0.31954 0.71981 0.30488 0.0
C457 C 0.34438 0.71806 0.31708 0.0
C458 C 0.29042 0.69464 0.30595 0.0
C459 C 0.28632 0.66724 0.31922 0.0
C460 C 0.31137 0.6653 0.33113 0.0
C461 C 0.34008 0.69075 0.32997 0.0
C462 C 0.26408 0.69737 0.29312 0.0
C463 C 0.30792 0.63628 0.34501 0.0
C464 C 0.21213 0.6032 0.35084 0.0
C465 C 0.20473 0.58254 0.32388 0.0
C466 C 0.23784 0.6319 0.3489 0.0
C467 C 0.25619 0.63987 0.31926 0.0
C468 C 0.24763 0.61979 0.29114 0.0
C469 C 0.22205 0.59135 0.29384 0.0
C470 C 0.24633 0.65293 0.37928 0.0
C471 C 0.26653 0.62755 0.25902 0.0
H472 H 0.32275 0.74098 0.2952 0.0
H473 H 0.35921 0.68925 0.33934 0.0
H474 H 0.2527 0.68121 0.2718 0.0
H475 H 0.24721 0.69152 0.31384 0.0
H476 H 0.27106 0.72042 0.28401 0.0
H477 H 0.32969 0.63878 0.35382 0.0
H478 H 0.29191 0.62839 0.36681 0.0
H479 H 0.29843 0.61851 0.32494 0.0
H480 H 0.19864 0.59653 0.37396 0.0
H481 H 0.21604 0.57567 0.27258 0.0
H482 H 0.25251 0.67594 0.37091 0.0
H483 H 0.26637 0.65445 0.39212 0.0
H484 H 0.22776 0.64514 0.39827 0.0
H485 H 0.27228 0.6502 0.24979 0.0
H486 H 0.25488 0.61095 0.23809 0.0
H487 H 0.28803 0.6281 0.26474 0.0
C488 C 0.5891 0.33839 0.63572 0.0
C489 C 0.60743 0.36295 0.65696 0.0
C490 C 0.58901 0.3111 0.63868 0.0
C491 C 0.60766 0.30845 0.66347 0.0
C492 C 0.6265 0.33324 0.68464 0.0
C493 C 0.62621 0.36022 0.68107 0.0
C494 C 0.56881 0.28506 0.61553 0.0
C495 C 0.64676 0.33118 0.71127 0.0
C496 C 0.58789 0.23032 0.6924 0.0
C497 C 0.60791 0.2252 0.67279 0.0
C498 C 0.58764 0.25747 0.68976 0.0
C499 C 0.60785 0.27983 0.66697 0.0
C500 C 0.62842 0.27501 0.64757 0.0
C501 C 0.62824 0.24777 0.65076 0.0
C502 C 0.56556 0.26209 0.71101 0.0
C503 C 0.65036 0.29846 0.6231 0.0
H504 H 0.57452 0.34032 0.61707 0.0
H505 H 0.64047 0.37908 0.69762 0.0
H506 H 0.58249 0.27772 0.60054 0.0
H507 H 0.5527 0.2656 0.63111 0.0
H508 H 0.55581 0.29088 0.59744 0.0
H509 H 0.66007 0.35261 0.72567 0.0
H510 H 0.63303 0.31309 0.72974 0.0
H511 H 0.6626 0.32516 0.69889 0.0
H512 H 0.57212 0.21298 0.70944 0.0
H513 H 0.64384 0.24405 0.63552 0.0
H514 H 0.55029 0.26564 0.69399 0.0
H515 H 0.57783 0.28259 0.72716 0.0
H516 H 0.55166 0.24264 0.72788 0.0
H517 H 0.63785 0.30326 0.6033 0.0
H518 H 0.66507 0.29124 0.61009 0.0
H519 H 0.66487 0.31985 0.63702 0.0
C520 C 0.235 0.64092 0.02285 0.0
C521 C 0.21366 0.6223 -0.00162 0.0
C522 C 0.2624 0.64137 0.0265 0.0
C523 C 0.26868 0.62288 0.00502 0.0
C524 C 0.2474 0.60412 0.98015 0.0
C525 C 0.22003 0.604 0.97715 0.0
C526 C 0.28465 0.66166 0.0533 0.0
C527 C 0.25359 0.5843 0.95666 0.0
C528 C 0.35052 0.64591 0.99155 0.0
C529 C 0.35383 0.626 0.01318 0.0
C530 C 0.32286 0.64505 0.98863 0.0
C531 C 0.29799 0.62391 0.00797 0.0
C532 C 0.30122 0.60408 0.03031 0.0
C533 C 0.32917 0.60532 0.03261 0.0
C534 C 0.32019 0.66655 0.96455 0.0
C535 C 0.27511 0.58144 0.05153 0.0
H536 H 0.23024 0.65507 0.03948 0.0
H537 H 0.20364 0.58955 0.95823 0.0
H538 H 0.28996 0.64818 0.07111 0.0
H539 H 0.30609 0.67816 0.04091 0.0
H540 H 0.27599 0.6742 0.06842 0.0
H541 H 0.23453 0.57079 0.93893 0.0
H542 H 0.27413 0.59832 0.94128 0.0
H543 H 0.25798 0.56873 0.97196 0.0
H544 H 0.36943 0.66194 0.97637 0.0
H545 H 0.33158 0.58987 0.04935 0.0
H546 H 0.31298 0.68066 0.97887 0.0
H547 H 0.30267 0.65373 0.94494 0.0
H548 H 0.34175 0.68161 0.9513 0.0
H549 H 0.26651 0.59316 0.06814 0.0
H550 H 0.28146 0.56786 0.06794 0.0
H551 H 0.2563 0.56596 0.03453 0.0
C552 C 0.46859 0.03326 0.23621 0.0
C553 C 0.48946 0.05242 0.2606 0.0
C554 C 0.46283 0.00363 0.232 0.0
C555 C 0.47704 -0.00732 0.25407 0.0
C556 C 0.49951 0.01262 0.27726 0.0
C557 C 0.50591 0.04253 0.27969 0.0
C558 C 0.44002 -0.01647 0.20564 0.0
C559 C 0.51456 0.00171 0.30203 0.0
C560 C 0.43097 0.91237 0.28468 0.0
C561 C 0.44683 0.89924 0.27055 0.0
C562 C 0.44025 0.94268 0.27885 0.0
C563 C 0.46515 0.95979 0.25702 0.0
C564 C 0.47986 0.94591 0.24066 0.0
C565 C 0.47104 0.91591 0.24841 0.0
C566 C 0.42452 0.95681 0.29773 0.0
C567 C 0.50547 0.96293 0.21591 0.0
H568 H 0.45599 0.04108 0.22137 0.0
H569 H 0.5218 0.05736 0.29882 0.0
H570 H 0.44747 -0.03106 0.19283 0.0
H571 H 0.41817 0.96864 0.21835 0.0
H572 H 0.43623 -0.00321 0.1859 0.0
H573 H 0.53306 0.02049 0.31662 0.0
H574 H 0.49758 -0.01402 0.32051 0.0
H575 H 0.5239 -0.01082 0.28832 0.0
H576 H 0.41246 0.89945 0.30212 0.0
H577 H 0.48318 0.90555 0.23741 0.0
H578 H 0.41522 0.96642 0.2793 0.0
H579 H 0.44096 -0.02444 0.31418 0.0
H580 H 0.40581 0.94041 0.3141 0.0
H581 H 0.50042 -0.02305 0.19862 0.0
H582 H 0.51002 0.94749 0.20016 0.0
H583 H 0.52629 -0.02176 0.23028 0.0
C584 C 0.43403 0.50656 0.60035 0.0
C585 C 0.40542 0.49263 0.58531 0.0
C586 C 0.45344 0.49502 0.59534 0.0
C587 C 0.4445 0.4698 0.57342 0.0
C588 C 0.41667 0.45736 0.55572 0.0
C589 C 0.39699 0.46841 0.56268 0.0
C590 C 0.4825 0.50849 0.61556 0.0
C591 C 0.40701 0.43159 0.53071 0.0
C592 C 0.51168 0.45944 0.56009 0.0
C593 C 0.50666 0.43831 0.58547 0.0
C594 C 0.48964 0.46721 0.5526 0.0
C595 C 0.463 0.45488 0.57249 0.0
C596 C 0.45699 0.43185 0.59635 0.0
C597 C 0.47876 0.42337 0.60199 0.0
C598 C 0.4959 0.49032 0.52536 0.0
C599 C 0.42921 0.41856 0.61867 0.0
H600 H 0.44035 0.52513 0.6181 0.0
H601 H 0.37484 0.45779 0.55091 0.0
H602 H 0.48247 0.49112 0.6324 0.0
H603 H 0.50203 0.51629 0.59804 0.0
H604 H 0.48588 0.52785 0.63174 0.0
H605 H 0.39041 0.43097 0.51196 0.0
H606 H 0.4266 0.43319 0.51657 0.0
H607 H 0.39609 0.41 0.54479 0.0
H608 H 0.53332 0.47082 0.54721 0.0
H609 H 0.47515 0.40722 0.62184 0.0
H610 H 0.5042 0.51272 0.53748 0.0
H611 H 0.47501 0.48467 0.511 0.0
H612 H 0.51332 0.49202 0.50703 0.0
H613 H 0.43024 0.43623 0.63615 0.0
H614 H 0.42703 0.39959 0.63438 0.0
H615 H 0.40863 0.41036 0.60282 0.0
C616 C 0.89947 0.40276 0.91297 0.0
C617 C 0.88289 0.40919 0.93676 0.0
C618 C 0.92986 0.4238 0.90639 0.0
C619 C 0.94412 0.45105 0.92537 0.0
C620 C 0.92724 0.45761 0.94923 0.0
C621 C 0.89664 0.43685 0.95404 0.0
C622 C 0.94677 0.41667 0.87964 0.0
C623 C 0.94175 0.48597 0.97082 0.0
C624 C 0.0272 0.49197 0.9466 0.0
C625 C 0.03679 0.51933 0.92991 0.0
C626 C -0.00269 0.46848 0.94359 0.0
C627 C -0.02295 0.47217 0.92225 0.0
C628 C -0.01231 0.49854 0.90238 0.0
C629 C 0.01732 0.52221 0.90713 0.0
C630 C -0.01327 0.4412 0.9661 0.0
C631 C -0.03281 0.5027 0.87808 0.0
H632 H 0.88866 0.38134 0.8995 0.0
H633 H 0.88379 0.44161 0.9727 0.0
H634 H -0.04046 0.43627 0.8626 0.0
H635 H -0.03664 0.41194 0.89221 0.0
H636 H 0.93142 0.39681 0.86377 0.0
H637 H 0.92557 0.48719 0.98889 0.0
H638 H -0.03931 0.48709 0.9858 0.0
H639 H 0.95122 0.50607 0.95418 0.0
H640 H 0.04222 0.48994 0.96454 0.0
H641 H 0.02488 0.54341 0.89412 0.0
H642 H -0.02668 0.42019 0.95116 0.0
H643 H -0.02813 0.44179 0.98649 0.0
H644 H 0.00583 0.44034 0.97844 0.0
H645 H 0.95252 0.48153 0.86384 0.0
H646 H -0.0198 0.52094 0.85943 0.0
H647 H 0.95234 0.50871 0.8928 0.0
C648 C 0.02637 0.49528 0.41991 0.0
C649 C 0.02935 0.47614 0.3964 0.0
C650 C -0.00214 0.49166 0.42741 0.0
C651 C -0.02783 0.46927 0.40984 0.0
C652 C -0.02499 0.44904 0.38733 0.0
C653 C 0.0035 0.45241 0.38141 0.0
C654 C -0.00452 0.5127 0.45281 0.0
C655 C 0.94836 0.42528 0.36738 0.0
C656 C 0.88989 0.44301 0.42649 0.0
C657 C 0.8844 0.45947 0.4019 0.0
C658 C 0.91919 0.44806 0.43192 0.0
C659 C 0.94307 0.46905 0.41116 0.0
C660 C 0.93781 0.48682 0.3876 0.0
C661 C 0.90859 0.48216 0.38374 0.0
C662 C 0.92422 0.42975 0.45843 0.0
C663 C -0.03756 0.50891 0.3643 0.0
H664 H 0.04634 0.51347 0.4318 0.0
H665 H 0.00571 0.43761 0.36313 0.0
H666 H -0.00663 0.53035 0.4389 0.0
H667 H -0.02487 0.5004 0.46906 0.0
H668 H 0.01569 0.52397 0.46957 0.0
H669 H 0.95427 0.41078 0.35173 0.0
H670 H 0.9298 0.41073 0.38497 0.0
H671 H 0.93965 0.43627 0.35002 0.0
H672 H 0.87119 0.4257 0.44087 0.0
H673 H 0.90434 0.49486 0.36465 0.0
H674 H 0.94568 0.44383 0.4724 0.0
H675 H 0.92582 0.4112 0.44566 0.0
H676 H 0.90544 0.4197 0.47721 0.0
H677 H -0.01748 0.52476 0.37941 0.0
H678 H -0.04497 0.52216 0.34881 0.0
H679 H -0.03049 0.49654 0.34659 0.0
C680 C 0.51118 0.02854 0.75871 0.0
C681 C 0.50697 0.04619 0.7346 0.0
C682 C 0.4881 -0.0009 0.76557 0.0
C683 C 0.46104 -0.0133 0.74637 0.0
C684 C 0.45627 0.00505 0.72315 0.0
C685 C 0.47913 0.03487 0.71814 0.0
C686 C 0.49334 -0.0192 0.79191 0.0
C687 C 0.42818 -0.0075 0.70131 0.0
C688 C 0.42199 0.90447 0.72099 0.0
C689 C 0.39428 0.89345 0.73765 0.0
C690 C 0.44448 0.93466 0.72467 0.0
C691 C 0.43952 0.9538 0.74681 0.0
C692 C 0.41255 0.94196 0.76609 0.0
C693 C 0.3898 0.91202 0.76053 0.0
C694 C 0.47246 0.94656 0.70276 0.0
C695 C 0.40712 0.96119 0.79131 0.0
H696 H 0.53279 0.03748 0.77149 0.0
H697 H 0.47614 0.04853 0.6992 0.0
H698 H 0.47262 0.96708 0.80715 0.0
H699 H 0.49923 0.96513 0.77889 0.0
H700 H 0.51208 -0.00464 0.80958 0.0
H701 H 0.42753 0.01006 0.68543 0.0
H702 H 0.42719 -0.02527 0.68404 0.0
H703 H 0.40773 -0.01806 0.71757 0.0
H704 H 0.4252 0.89009 0.703 0.0
H705 H 0.3683 0.90332 0.77348 0.0
H706 H 0.49297 0.95752 0.71896 0.0
H707 H 0.47346 0.96388 0.68506 0.0
H708 H 0.47303 0.92855 0.68733 0.0
H709 H 0.42787 -0.02417 0.80621 0.0
H710 H 0.38859 0.94727 0.80936 0.0
H711 H 0.40084 -0.02398 0.77734 0.0
C712 C 0.45788 0.52982 0.08643 0.0
C713 C 0.43598 0.5264 0.06259 0.0
C714 C 0.46417 0.50646 0.09201 0.0
C715 C 0.44934 0.4799 0.07189 0.0
C716 C 0.4264 0.47603 0.04868 0.0
C717 C 0.41956 0.49914 0.04489 0.0
C718 C 0.4876 0.51078 0.11827 0.0
C719 C 0.41069 0.4485 0.02591 0.0
C720 C 0.49077 0.43893 0.04603 0.0
C721 C 0.47351 0.41125 0.06228 0.0
C722 C 0.48385 0.46201 0.05001 0.0
C723 C 0.45992 0.45765 0.07197 0.0
C724 C 0.44419 0.43066 0.0908 0.0
C725 C 0.45065 0.40738 0.08502 0.0
C726 C 0.50057 0.49003 0.02859 0.0
C727 C 0.4196 0.42577 0.11575 0.0
H728 H 0.47046 0.55096 0.1002 0.0
H729 H 0.40286 0.49673 0.02617 0.0
H730 H 0.48004 0.4899 0.13325 0.0
H731 H 0.50888 0.51586 0.10519 0.0
H732 H 0.4925 0.52961 0.13618 0.0
H733 H 0.39288 0.44866 0.00986 0.0
H734 H 0.42743 0.44733 0.00877 0.0
H735 H 0.40025 0.42777 0.04152 0.0
H736 H 0.50821 0.44171 0.02812 0.0
H737 H 0.4374 0.38592 0.09767 0.0
H738 H 0.51019 0.51042 0.04508 0.0
H739 H 0.48465 0.49153 0.01055 0.0
H740 H 0.51916 0.49026 0.01356 0.0
H741 H 0.42638 0.44636 0.13136 0.0
H742 H 0.41404 0.40665 0.13316 0.0
H743 H 0.39889 0.4208 0.1015 0.0
C744 C 0.41532 0.17377 0.2327 0.0
C745 C 0.43766 0.16544 0.23268 0.0
C746 C 0.41112 0.18799 0.20415 0.0
C747 C 0.42991 0.19439 0.17503 0.0
C748 C 0.45159 0.18488 0.17436 0.0
C749 C 0.45506 0.17044 0.20299 0.0
C750 C 0.38739 0.19726 0.20572 0.0
C751 C 0.47226 0.19131 0.14403 0.0
C752 C 0.4146 0.21786 0.08812 0.0
C753 C 0.43427 0.24913 0.0889 0.0
C754 C 0.41165 0.19983 0.1166 0.0
C755 C 0.42902 0.21329 0.14648 0.0
C756 C 0.44786 0.24497 0.1479 0.0
C757 C 0.45012 0.26243 0.11929 0.0
C758 C 0.39093 0.16623 0.11417 0.0
C759 C 0.46695 0.26036 0.17906 0.0
H760 H 0.40165 0.16995 0.25537 0.0
H761 H 0.47234 0.16409 0.20249 0.0
H762 H 0.39845 0.22214 0.20753 0.0
H763 H 0.3736 0.19023 0.18201 0.0
H764 H 0.3722 0.18744 0.2281 0.0
H765 H 0.48668 0.18088 0.1466 0.0
H766 H 0.45892 0.18284 0.12011 0.0
H767 H 0.4871 0.21599 0.14132 0.0
H768 H 0.40215 0.20729 0.06489 0.0
H769 H 0.46533 0.28654 0.12037 0.0
H770 H 0.37657 0.15782 0.13735 0.0
H771 H 0.40453 0.15485 0.11279 0.0
H772 H 0.37615 0.15967 0.09123 0.0
H773 H 0.45276 0.2537 0.20241 0.0
H774 H 0.47892 0.28528 0.17703 0.0
H775 H 0.48397 0.25317 0.18241 0.0
C776 C 0.18923 0.44968 0.4102 0.0
C777 C 0.16521 0.45545 0.41313 0.0
C778 C 0.20514 0.4491 0.4393 0.0
C779 C 0.19676 0.4542 0.47224 0.0
C780 C 0.1712 0.45788 0.47552 0.0
C781 C 0.15585 0.45858 0.44601 0.0
C782 C 0.23224 0.44511 0.43453 0.0
C783 C 0.1612 0.46309 0.51004 0.0
C784 C 0.23322 0.44266 0.55207 0.0
C785 C 0.25656 0.47211 0.55874 0.0
C786 C 0.21339 0.43632 0.52414 0.0
C787 C 0.21705 0.45996 0.50236 0.0
C788 C 0.24039 0.48971 0.5093 0.0
C789 C 0.25968 0.49537 0.53726 0.0
C790 C 0.1887 0.40435 0.51774 0.0
C791 C 0.24522 0.51569 0.48695 0.0
H792 H 0.19669 0.4472 0.38501 0.0
H793 H 0.13717 0.46279 0.44871 0.0
H794 H 0.2531 0.46684 0.43958 0.0
H795 H 0.23171 0.42853 0.45302 0.0
H796 H 0.23351 0.43753 0.40818 0.0
H797 H 0.13866 0.46129 0.50888 0.0
H798 H 0.1604 0.44667 0.52895 0.0
H799 H 0.17773 0.48592 0.51954 0.0
H800 H 0.23062 0.42453 0.56842 0.0
H801 H 0.27754 0.51825 0.54208 0.0
H802 H 0.1918 0.39665 0.49222 0.0
H803 H 0.16644 0.40317 0.5175 0.0
H804 H 0.18831 0.38863 0.53742 0.0
H805 H 0.24958 0.51156 0.46018 0.0
H806 H 0.26444 0.53749 0.49575 0.0
H807 H 0.22459 0.51768 0.48674 0.0
C808 C 0.73806 0.26493 0.86936 0.0
C809 C 0.75145 0.25758 0.89615 0.0
C810 C 0.72342 0.24494 0.84211 0.0
C811 C 0.72188 0.21658 0.84134 0.0
C812 C 0.73569 0.20905 0.868 0.0
C813 C 0.75034 0.22965 0.8951 0.0
C814 C 0.7091 0.25407 0.81435 0.0
C815 C 0.73454 0.17906 0.86814 0.0
C816 C 0.65574 0.15994 0.78773 0.0
C817 C 0.66919 0.16252 0.75559 0.0
C818 C 0.67297 0.1757 0.8165 0.0
C819 C 0.70454 0.19471 0.81325 0.0
C820 C 0.71855 0.19573 0.78151 0.0
C821 C 0.70074 0.1796 0.75308 0.0
C822 C 0.65699 0.17368 0.84978 0.0
C823 C 0.75213 0.21553 0.77689 0.0
H824 H 0.73882 0.28645 0.8697 0.0
H825 H 0.76063 0.22374 0.91559 0.0
H826 H 0.71813 0.25271 0.78895 0.0
H827 H 0.6844 0.23834 0.81383 0.0
H828 H 0.71314 0.2773 0.8181 0.0
H829 H 0.74774 0.17722 0.88958 0.0
H830 H 0.7108 0.16066 0.8704 0.0
H831 H 0.74339 0.17555 0.84364 0.0
H832 H 0.63143 0.14659 0.79014 0.0
H833 H 0.71142 0.18177 0.72845 0.0
H834 H 0.65714 0.19514 0.85449 0.0
H835 H 0.66885 0.17027 0.87151 0.0
H836 H 0.6332 0.15507 0.84949 0.0
H837 H 0.75787 0.23946 0.77646 0.0
H838 H 0.76014 0.21042 0.75265 0.0
H839 H 0.76452 0.21289 0.79861 0.0
C840 C 0.49802 0.71743 0.09991 0.0
C841 C 0.4764 0.68666 0.09846 0.0
C842 C 0.50094 0.73497 0.1292 0.0
C843 C 0.48153 0.72157 0.15758 0.0
C844 C 0.46062 0.69028 0.15679 0.0
C845 C 0.45845 0.67326 0.12746 0.0
C846 C 0.5239 0.76812 0.12917 0.0
C847 C 0.43931 0.67497 0.18625 0.0
C848 C 0.49345 0.75887 0.24571 0.0
C849 C 0.47322 0.76989 0.2446 0.0
C850 C 0.49757 0.74436 0.21706 0.0
C851 C 0.48082 0.74042 0.1867 0.0
C852 C 0.46126 0.75249 0.18508 0.0
C853 C 0.45786 0.76715 0.21384 0.0
C854 C 0.51902 0.73228 0.21973 0.0
C855 C 0.44275 0.74869 0.15344 0.0
H856 H 0.51211 0.72806 0.07779 0.0
H857 H 0.4417 0.64953 0.12683 0.0
H858 H 0.51219 0.78136 0.12749 0.0
H859 H 0.53699 0.77468 0.15338 0.0
H860 H 0.53981 0.77433 0.10731 0.0
H861 H 0.42577 0.65018 0.18268 0.0
H862 H 0.45203 0.6798 0.2106 0.0
H863 H 0.42362 0.68394 0.18885 0.0
H864 H 0.50553 0.7609 0.26922 0.0
H865 H 0.4422 0.77556 0.21251 0.0
H866 H 0.53419 0.73913 0.19717 0.0
H867 H 0.50605 0.70732 0.21993 0.0
H868 H 0.53297 0.74023 0.24333 0.0
H869 H 0.45755 0.75711 0.13062 0.0
H870 H 0.42983 0.76078 0.15556 0.0
H871 H 0.4266 0.72444 0.14902 0.0
C872 C 0.65686 0.48154 0.54328 0.0
C873 C 0.66935 0.49079 0.57612 0.0
C874 C 0.67495 0.48438 0.51485 0.0
C875 C 0.70642 0.49679 0.51919 0.0
C876 C 0.7195 0.50853 0.55167 0.0
C877 C 0.70082 0.5054 0.57977 0.0
C878 C 0.65993 0.47169 0.48078 0.0
C879 C 0.75297 0.52222 0.55742 0.0
C880 C 0.74034 0.46001 0.46394 0.0
C881 C 0.75424 0.4808 0.43738 0.0
C882 C 0.7255 0.46543 0.49087 0.0
C883 C 0.72435 0.49246 0.49165 0.0
C884 C 0.73881 0.51395 0.46537 0.0
C885 C 0.75359 0.50787 0.43847 0.0
C886 C 0.71042 0.44177 0.51819 0.0
C887 C 0.7382 0.54307 0.46537 0.0
H888 H 0.63261 0.47057 0.54 0.0
H889 H 0.71076 0.51276 0.60495 0.0
H890 H 0.67255 0.48746 0.45978 0.0
H891 H 0.65987 0.45035 0.47554 0.0
H892 H 0.63624 0.46696 0.4803 0.0
H893 H 0.76029 0.53504 0.5819 0.0
H894 H 0.75877 0.50405 0.55818 0.0
H895 H 0.76588 0.53743 0.5361 0.0
H896 H 0.74074 0.43906 0.46361 0.0
H897 H 0.7643 0.52411 0.41817 0.0
H898 H 0.68576 0.43318 0.51805 0.0
H899 H 0.71903 0.45173 0.54384 0.0
H900 H 0.71422 0.4224 0.51446 0.0
H901 H 0.71472 0.53828 0.46163 0.0
H902 H 0.75253 0.55849 0.44483 0.0
H903 H 0.746 0.5547 0.49044 0.0
C904 C 0.15946 0.7146 0.91046 0.0
C905 C 0.15011 0.68376 0.90941 0.0
C906 C 0.17349 0.73321 0.88199 0.0
C907 C 0.17869 0.72081 0.85192 0.0
C908 C 0.16805 0.68948 0.85023 0.0
C909 C 0.15377 0.6714 0.87879 0.0
C910 C 0.18393 0.76636 0.88466 0.0
C911 C 0.17324 0.67524 0.81887 0.0
C912 C 0.203 0.76088 0.76584 0.0
C913 C 0.2341 0.77116 0.76604 0.0
C914 C 0.1848 0.74589 0.79435 0.0
C915 C 0.19791 0.74068 0.82357 0.0
C916 C 0.22947 0.75221 0.82444 0.0
C917 C 0.24711 0.76741 0.79589 0.0
C918 C 0.15136 0.73451 0.79261 0.0
C919 C 0.24448 0.74708 0.85486 0.0
H920 H 0.15664 0.72443 0.93385 0.0
H921 H 0.14661 0.64763 0.8775 0.0
H922 H 0.20889 0.77934 0.88634 0.0
H923 H 0.17731 0.77406 0.86146 0.0
H924 H 0.17452 0.77175 0.90756 0.0
H925 H 0.16183 0.65033 0.82069 0.0
H926 H 0.16496 0.68116 0.79563 0.0
H927 H 0.19778 0.68408 0.81548 0.0
H928 H 0.19268 0.76372 0.74304 0.0
H929 H 0.27109 0.77529 0.79653 0.0
H930 H 0.14353 0.74035 0.81645 0.0
H931 H 0.13901 0.70961 0.79026 0.0
H932 H 0.1453 0.74388 0.77043 0.0
H933 H 0.23855 0.75475 0.87875 0.0
H934 H 0.26944 0.75903 0.85244 0.0
H935 H 0.23624 0.72265 0.8575 0.0
loop_
_geom_bond_atom_site_label_1
_geom_bond_atom_site_label_2
_geom_bond_distance
_geom_bond_site_symmetry_2
_ccdc_geom_bond_type
C0 O1 1.306 . S
C0 O3 1.160 . S
O1 C0 1.306 . S
O1 Cd2 2.228 . S
Cd2 O1 2.228 . S
Cd2 O6 2.273 . S
Cd2 O10 2.277 . S
O3 C0 1.160 . S
O3 Cd4 2.203 . S
Cd4 O3 2.203 . S
Cd4 O6 2.411 . S
Cd4 O7 2.333 . S
Cd4 O8 2.352 . S
Cd4 O12 2.277 . S
Cd4 O13 2.356 . S
C5 O10 1.209 . S
C5 O12 1.226 . S
O6 Cd2 2.273 . S
O6 Cd4 2.411 . S
O6 C9 1.320 . S
O7 Cd4 2.333 . S
O7 C9 1.214 . S
O8 Cd4 2.352 . S
O8 C11 1.258 . S
C9 O6 1.320 . S
C9 O7 1.214 . S
O10 Cd2 2.277 . S
O10 C5 1.209 . S
C11 O8 1.258 . S
C11 O13 1.282 . S
O12 Cd4 2.277 . S
O12 C5 1.226 . S
O13 Cd4 2.356 . S
O13 C11 1.282 . S
C14 O15 1.306 . S
C14 O17 1.160 . S
O15 C14 1.306 . S
O15 Cd16 2.228 . S
Cd16 O15 2.228 . S
Cd16 O20 2.273 . S
Cd16 O24 2.277 . S
O17 C14 1.160 . S
O17 Cd18 2.203 . S
Cd18 O17 2.203 . S
Cd18 O20 2.411 . S
Cd18 O21 2.333 . S
Cd18 O22 2.352 . S
Cd18 O26 2.277 . S
Cd18 O27 2.356 . S
C19 O24 1.209 . S
C19 O26 1.226 . S
O20 Cd16 2.273 . S
O20 Cd18 2.411 . S
O20 C23 1.320 . S
O21 Cd18 2.333 . S
O21 C23 1.214 . S
O22 Cd18 2.352 . S
O22 C25 1.258 . S
C23 O20 1.320 . S
C23 O21 1.214 . S
O24 Cd16 2.277 . S
O24 C19 1.209 . S
C25 O22 1.258 . S
C25 O27 1.282 . S
O26 Cd18 2.277 . S
O26 C19 1.226 . S
O27 Cd18 2.356 . S
O27 C25 1.282 . S
C28 O29 1.306 . S
C28 O31 1.160 . S
O29 C28 1.306 . S
O29 Cd30 2.228 1_556 S
Cd30 O29 2.228 1_554 S
Cd30 O34 2.273 . S
Cd30 O38 2.277 . S
O31 C28 1.160 . S
O31 Cd32 2.203 . S
Cd32 O31 2.203 . S
Cd32 O34 2.411 1_556 S
Cd32 O35 2.333 1_556 S
Cd32 O36 2.352 . S
Cd32 O40 2.277 . S
Cd32 O41 2.356 . S
C33 O38 1.209 1_556 S
C33 O40 1.226 . S
O34 Cd30 2.273 . S
O34 Cd32 2.411 1_554 S
O34 C37 1.320 . S
O35 Cd32 2.333 1_554 S
O35 C37 1.214 . S
O36 Cd32 2.352 . S
O36 C39 1.258 . S
C37 O34 1.320 . S
C37 O35 1.214 . S
O38 Cd30 2.277 . S
O38 C33 1.209 1_554 S
C39 O36 1.258 . S
C39 O41 1.282 . S
O40 Cd32 2.277 . S
O40 C33 1.226 . S
O41 Cd32 2.356 . S
O41 C39 1.282 . S
C42 O43 1.306 . S
C42 O45 1.160 . S
O43 C42 1.306 . S
O43 Cd44 2.228 . S
Cd44 O43 2.228 . S
Cd44 O48 2.273 . S
Cd44 O52 2.277 . S
O45 C42 1.160 . S
O45 Cd46 2.203 . S
Cd46 O45 2.203 . S
Cd46 O48 2.411 . S
Cd46 O49 2.333 . S
Cd46 O50 2.352 . S
Cd46 O54 2.277 . S
Cd46 O55 2.356 . S
C47 O52 1.209 . S
C47 O54 1.226 . S
O48 Cd44 2.273 . S
O48 Cd46 2.411 . S
O48 C51 1.320 . S
O49 Cd46 2.333 . S
O49 C51 1.214 . S
O50 Cd46 2.352 . S
O50 C53 1.258 . S
C51 O48 1.320 . S
C51 O49 1.214 . S
O52 Cd44 2.277 . S
O52 C47 1.209 . S
C53 O50 1.258 . S
C53 O55 1.282 . S
O54 Cd46 2.277 . S
O54 C47 1.226 . S
O55 Cd46 2.356 . S
O55 C53 1.282 . S
C56 O57 1.306 . S
C56 O59 1.160 . S
O57 C56 1.306 . S
O57 Cd58 2.228 . S
Cd58 O57 2.228 . S
Cd58 O62 2.273 . S
Cd58 O66 2.277 . S
O59 C56 1.160 . S
O59 Cd60 2.203 . S
Cd60 O59 2.203 . S
Cd60 O62 2.411 . S
Cd60 O63 2.333 . S
Cd60 O64 2.352 . S
Cd60 O68 2.277 . S
Cd60 O69 2.356 . S
C61 O66 1.209 . S
C61 O68 1.226 . S
O62 Cd58 2.273 . S
O62 Cd60 2.411 . S
O62 C65 1.320 . S
O63 Cd60 2.333 . S
O63 C65 1.214 . S
O64 Cd60 2.352 . S
O64 C67 1.258 . S
C65 O62 1.320 . S
C65 O63 1.214 . S
O66 Cd58 2.277 . S
O66 C61 1.209 . S
C67 O64 1.258 . S
C67 O69 1.282 . S
O68 Cd60 2.277 . S
O68 C61 1.226 . S
O69 Cd60 2.356 . S
O69 C67 1.282 . S
C70 O71 1.306 . S
C70 O73 1.160 . S
O71 C70 1.306 . S
O71 Cd72 2.228 1_556 S
Cd72 O71 2.228 1_554 S
Cd72 O76 2.273 . S
Cd72 O80 2.277 . S
O73 C70 1.160 . S
O73 Cd74 2.203 . S
Cd74 O73 2.203 . S
Cd74 O76 2.411 1_556 S
Cd74 O77 2.333 1_556 S
Cd74 O78 2.352 . S
Cd74 O82 2.277 . S
Cd74 O83 2.356 . S
C75 O80 1.209 1_556 S
C75 O82 1.226 . S
O76 Cd72 2.273 . S
O76 Cd74 2.411 1_554 S
O76 C79 1.320 . S
O77 Cd74 2.333 1_554 S
O77 C79 1.214 . S
O78 Cd74 2.352 . S
O78 C81 1.258 . S
C79 O76 1.320 . S
C79 O77 1.214 . S
O80 Cd72 2.277 . S
O80 C75 1.209 1_554 S
C81 O78 1.258 . S
C81 O83 1.282 . S
O82 Cd74 2.277 . S
O82 C75 1.226 . S
O83 Cd74 2.356 . S
O83 C81 1.282 . S
C84 O85 1.306 . S
C84 O87 1.160 . S
O85 C84 1.306 . S
O85 Cd86 2.228 . S
Cd86 O85 2.228 . S
Cd86 O90 2.273 . S
Cd86 O94 2.277 . S
O87 C84 1.160 . S
O87 Cd88 2.203 . S
Cd88 O87 2.203 . S
Cd88 O90 2.411 . S
Cd88 O91 2.333 . S
Cd88 O92 2.352 . S
Cd88 O96 2.277 . S
Cd88 O97 2.356 . S
C89 O94 1.209 . S
C89 O96 1.226 . S
O90 Cd86 2.273 . S
O90 Cd88 2.411 . S
O90 C93 1.320 . S
O91 Cd88 2.333 . S
O91 C93 1.214 . S
O92 Cd88 2.352 . S
O92 C95 1.258 . S
C93 O90 1.320 . S
C93 O91 1.214 . S
O94 Cd86 2.277 . S
O94 C89 1.209 . S
C95 O92 1.258 . S
C95 O97 1.282 . S
O96 Cd88 2.277 . S
O96 C89 1.226 . S
O97 Cd88 2.356 . S
O97 C95 1.282 . S
C98 O99 1.306 . S
C98 O101 1.160 . S
O99 C98 1.306 . S
O99 Cd100 2.228 . S
Cd100 O99 2.228 . S
Cd100 O104 2.273 . S
Cd100 O108 2.277 . S
O101 C98 1.160 . S
O101 Cd102 2.203 . S
Cd102 O101 2.203 . S
Cd102 O104 2.411 . S
Cd102 O105 2.333 . S
Cd102 O106 2.352 . S
Cd102 O110 2.277 . S
Cd102 O111 2.356 . S
C103 O108 1.209 . S
C103 O110 1.226 . S
O104 Cd100 2.273 . S
O104 Cd102 2.411 . S
O104 C107 1.320 . S
O105 Cd102 2.333 . S
O105 C107 1.214 . S
O106 Cd102 2.352 . S
O106 C109 1.258 . S
C107 O104 1.320 . S
C107 O105 1.214 . S
O108 Cd100 2.277 . S
O108 C103 1.209 . S
C109 O106 1.258 . S
C109 O111 1.282 . S
O110 Cd102 2.277 . S
O110 C103 1.226 . S
O111 Cd102 2.356 . S
O111 C109 1.282 . S
C112 O113 1.306 . S
C112 O115 1.160 . S
O113 C112 1.306 . S
O113 Cd114 2.228 1_554 S
Cd114 O113 2.228 1_556 S
Cd114 O118 2.273 . S
Cd114 O122 2.277 1_556 S
O115 C112 1.160 . S
O115 Cd116 2.203 . S
Cd116 O115 2.203 . S
Cd116 O118 2.411 1_554 S
Cd116 O119 2.333 1_554 S
Cd116 O120 2.352 . S
Cd116 O124 2.277 . S
Cd116 O125 2.356 . S
C117 O122 1.209 . S
C117 O124 1.226 . S
O118 Cd114 2.273 . S
O118 Cd116 2.411 1_556 S
O118 C121 1.320 . S
O119 Cd116 2.333 1_556 S
O119 C121 1.214 . S
O120 Cd116 2.352 . S
O120 C123 1.258 . S
C121 O118 1.320 . S
C121 O119 1.214 . S
O122 Cd114 2.277 1_554 S
O122 C117 1.209 . S
C123 O120 1.258 . S
C123 O125 1.282 . S
O124 Cd116 2.277 . S
O124 C117 1.226 . S
O125 Cd116 2.356 . S
O125 C123 1.282 . S
C126 O127 1.306 . S
C126 O129 1.160 . S
O127 C126 1.306 . S
O127 Cd128 2.228 . S
Cd128 O127 2.228 . S
Cd128 O132 2.273 . S
Cd128 O136 2.277 . S
O129 C126 1.160 . S
O129 Cd130 2.203 . S
Cd130 O129 2.203 . S
Cd130 O132 2.411 . S
Cd130 O133 2.333 . S
Cd130 O134 2.352 . S
Cd130 O138 2.277 . S
Cd130 O139 2.356 . S
C131 O136 1.209 . S
C131 O138 1.226 . S
O132 Cd128 2.273 . S
O132 Cd130 2.411 . S
O132 C135 1.320 . S
O133 Cd130 2.333 . S
O133 C135 1.214 . S
O134 Cd130 2.352 . S
O134 C137 1.258 . S
C135 O132 1.320 . S
C135 O133 1.214 . S
O136 Cd128 2.277 . S
O136 C131 1.209 . S
C137 O134 1.258 . S
C137 O139 1.282 . S
O138 Cd130 2.277 . S
O138 C131 1.226 . S
O139 Cd130 2.356 . S
O139 C137 1.282 . S
C140 O141 1.306 . S
C140 O143 1.160 . S
O141 C140 1.306 . S
O141 Cd142 2.228 . S
Cd142 O141 2.228 . S
Cd142 O146 2.273 . S
Cd142 O150 2.277 . S
O143 C140 1.160 . S
O143 Cd144 2.203 . S
Cd144 O143 2.203 . S
Cd144 O146 2.411 . S
Cd144 O147 2.333 . S
Cd144 O148 2.352 . S
Cd144 O152 2.277 . S
Cd144 O153 2.356 . S
C145 O150 1.209 . S
C145 O152 1.226 . S
O146 Cd142 2.273 . S
O146 Cd144 2.411 . S
O146 C149 1.320 . S
O147 Cd144 2.333 . S
O147 C149 1.214 . S
O148 Cd144 2.352 . S
O148 C151 1.258 . S
C149 O146 1.320 . S
C149 O147 1.214 . S
O150 Cd142 2.277 . S
O150 C145 1.209 . S
C151 O148 1.258 . S
C151 O153 1.282 . S
O152 Cd144 2.277 . S
O152 C145 1.226 . S
O153 Cd144 2.356 . S
O153 C151 1.282 . S
C154 O155 1.306 . S
C154 O157 1.160 . S
O155 C154 1.306 . S
O155 Cd156 2.228 1_554 S
Cd156 O155 2.228 1_556 S
Cd156 O160 2.273 . S
Cd156 O164 2.277 1_556 S
O157 C154 1.160 . S
O157 Cd158 2.203 . S
Cd158 O157 2.203 . S
Cd158 O160 2.411 1_554 S
Cd158 O161 2.333 1_554 S
Cd158 O162 2.352 . S
Cd158 O166 2.277 . S
Cd158 O167 2.356 . S
C159 O164 1.209 . S
C159 O166 1.226 . S
O160 Cd156 2.273 . S
O160 Cd158 2.411 1_556 S
O160 C163 1.320 . S
O161 Cd158 2.333 1_556 S
O161 C163 1.214 . S
O162 Cd158 2.352 . S
O162 C165 1.258 . S
C163 O160 1.320 . S
C163 O161 1.214 . S
O164 Cd156 2.277 1_554 S
O164 C159 1.209 . S
C165 O162 1.258 . S
C165 O167 1.282 . S
O166 Cd158 2.277 . S
O166 C159 1.226 . S
O167 Cd158 2.356 . S
O167 C165 1.282 . S
C168 C169 1.391 . S
C168 C170 1.394 . S
C168 H184 0.931 . S
C169 C168 1.391 . S
C169 C173 1.376 . S
C170 C168 1.394 . S
C170 C171 1.369 . S
C170 C174 1.531 . S
C171 C170 1.369 . S
C171 C172 1.410 . S
C171 C179 1.503 . S
C172 C171 1.410 . S
C172 C173 1.392 . S
C172 C175 1.511 . S
C173 C169 1.376 . S
C173 C172 1.392 . S
C173 H185 0.929 . S
C174 C170 1.531 . S
C174 H186 0.960 . S
C174 H187 0.962 . S
C174 H188 0.960 . S
C175 C172 1.511 . S
C175 H189 0.961 . S
C175 H190 0.961 . S
C175 H191 0.961 . S
C176 C177 1.370 . S
C176 C178 1.363 . S
C176 H192 0.931 . S
C177 C176 1.370 . S
C177 C181 1.408 . S
C178 C176 1.363 . S
C178 C179 1.370 . S
C178 C182 1.524 . S
C179 C171 1.503 . S
C179 C178 1.370 . S
C179 C180 1.403 . S
C180 C179 1.403 . S
C180 C181 1.404 . S
C180 C183 1.539 . S
C181 C177 1.408 . S
C181 C180 1.404 . S
C181 H193 0.930 . S
C182 C178 1.524 . S
C182 H194 0.956 . S
C182 H195 0.961 . S
C182 H196 0.961 . S
C183 C180 1.539 . S
C183 H197 0.958 . S
C183 H198 0.961 . S
C183 H199 0.960 . S
H184 C168 0.931 . S
H185 C173 0.929 . S
H186 C174 0.960 . S
H187 C174 0.962 . S
H188 C174 0.960 . S
H189 C175 0.961 . S
H190 C175 0.961 . S
H191 C175 0.961 . S
H192 C176 0.931 . S
H193 C181 0.930 . S
H194 C182 0.956 . S
H195 C182 0.961 . S
H196 C182 0.961 . S
H197 C183 0.958 . S
H198 C183 0.961 . S
H199 C183 0.960 . S
C200 C201 1.391 . S
C200 C202 1.394 . S
C200 H216 0.931 . S
C201 C200 1.391 . S
C201 C205 1.376 . S
C202 C200 1.394 . S
C202 C203 1.369 . S
C202 C206 1.531 . S
C203 C202 1.369 . S
C203 C204 1.410 . S
C203 C211 1.503 . S
C204 C203 1.410 . S
C204 C205 1.392 . S
C204 C207 1.511 . S
C205 C201 1.376 . S
C205 C204 1.392 . S
C205 H217 0.929 . S
C206 C202 1.531 . S
C206 H218 0.960 . S
C206 H219 0.962 . S
C206 H220 0.960 . S
C207 C204 1.511 . S
C207 H221 0.961 . S
C207 H222 0.961 . S
C207 H223 0.961 . S
C208 C209 1.370 . S
C208 C210 1.363 . S
C208 H224 0.931 . S
C209 C208 1.370 . S
C209 C213 1.408 . S
C210 C208 1.363 . S
C210 C211 1.370 . S
C210 C214 1.524 . S
C211 C203 1.503 . S
C211 C210 1.370 . S
C211 C212 1.403 . S
C212 C211 1.403 . S
C212 C213 1.404 . S
C212 C215 1.539 . S
C213 C209 1.408 . S
C213 C212 1.404 . S
C213 H225 0.930 . S
C214 C210 1.524 . S
C214 H226 0.956 . S
C214 H227 0.961 . S
C214 H228 0.961 . S
C215 C212 1.539 . S
C215 H229 0.958 . S
C215 H230 0.961 . S
C215 H231 0.960 . S
H216 C200 0.931 . S
H217 C205 0.929 . S
H218 C206 0.960 . S
H219 C206 0.962 . S
H220 C206 0.960 . S
H221 C207 0.961 . S
H222 C207 0.961 . S
H223 C207 0.961 . S
H224 C208 0.931 . S
H225 C213 0.930 . S
H226 C214 0.956 . S
H227 C214 0.961 . S
H228 C214 0.961 . S
H229 C215 0.958 . S
H230 C215 0.961 . S
H231 C215 0.960 . S
C232 C233 1.391 . S
C232 C234 1.394 . S
C232 H248 0.931 . S
C233 C232 1.391 . S
C233 C237 1.376 . S
C234 C232 1.394 . S
C234 C235 1.369 . S
C234 C238 1.531 . S
C235 C234 1.369 . S
C235 C236 1.410 . S
C235 C243 1.503 . S
C236 C235 1.410 . S
C236 C237 1.392 . S
C236 C239 1.511 . S
C237 C233 1.376 . S
C237 C236 1.392 . S
C237 H249 0.929 . S
C238 C234 1.531 . S
C238 H250 0.960 . S
C238 H251 0.962 . S
C238 H252 0.960 . S
C239 C236 1.511 . S
C239 H253 0.961 . S
C239 H254 0.961 . S
C239 H255 0.961 . S
C240 C241 1.370 . S
C240 C242 1.363 . S
C240 H256 0.931 . S
C241 C240 1.370 . S
C241 C245 1.408 . S
C242 C240 1.363 . S
C242 C243 1.370 . S
C242 C246 1.524 . S
C243 C235 1.503 . S
C243 C242 1.370 . S
C243 C244 1.403 . S
C244 C243 1.403 . S
C244 C245 1.404 . S
C244 C247 1.539 . S
C245 C241 1.408 . S
C245 C244 1.404 . S
C245 H257 0.930 . S
C246 C242 1.524 . S
C246 H258 0.956 . S
C246 H259 0.961 . S
C246 H260 0.961 . S
C247 C244 1.539 . S
C247 H261 0.958 . S
C247 H262 0.961 . S
C247 H263 0.960 . S
H248 C232 0.931 . S
H249 C237 0.929 . S
H250 C238 0.960 . S
H251 C238 0.962 . S
H252 C238 0.960 . S
H253 C239 0.961 . S
H254 C239 0.961 . S
H255 C239 0.961 . S
H256 C240 0.931 . S
H257 C245 0.930 . S
H258 C246 0.956 . S
H259 C246 0.961 . S
H260 C246 0.961 . S
H261 C247 0.958 . S
H262 C247 0.961 . S
H263 C247 0.960 . S
C264 C265 1.391 . S
C264 C266 1.394 . S
C264 H280 0.931 . S
C265 C264 1.391 . S
C265 C269 1.376 . S
C266 C264 1.394 . S
C266 C267 1.369 . S
C266 C270 1.531 . S
C267 C266 1.369 . S
C267 C268 1.410 . S
C267 C275 1.503 . S
C268 C267 1.410 . S
C268 C269 1.392 . S
C268 C271 1.511 . S
C269 C265 1.376 . S
C269 C268 1.392 . S
C269 H281 0.929 . S
C270 C266 1.531 . S
C270 H282 0.960 . S
C270 H283 0.962 . S
C270 H284 0.960 . S
C271 C268 1.511 . S
C271 H285 0.961 . S
C271 H286 0.961 . S
C271 H287 0.961 . S
C272 C273 1.370 . S
C272 C274 1.363 . S
C272 H288 0.931 . S
C273 C272 1.370 . S
C273 C277 1.408 . S
C274 C272 1.363 . S
C274 C275 1.370 . S
C274 C278 1.524 . S
C275 C267 1.503 . S
C275 C274 1.370 . S
C275 C276 1.403 . S
C276 C275 1.403 . S
C276 C277 1.404 . S
C276 C279 1.539 . S
C277 C273 1.408 . S
C277 C276 1.404 . S
C277 H289 0.930 . S
C278 C274 1.524 . S
C278 H290 0.956 . S
C278 H291 0.961 . S
C278 H292 0.961 . S
C279 C276 1.539 . S
C279 H293 0.958 . S
C279 H294 0.961 . S
C279 H295 0.960 . S
H280 C264 0.931 . S
H281 C269 0.929 . S
H282 C270 0.960 . S
H283 C270 0.962 . S
H284 C270 0.960 . S
H285 C271 0.961 . S
H286 C271 0.961 . S
H287 C271 0.961 . S
H288 C272 0.931 . S
H289 C277 0.930 . S
H290 C278 0.956 . S
H291 C278 0.961 . S
H292 C278 0.961 . S
H293 C279 0.958 . S
H294 C279 0.961 . S
H295 C279 0.960 . S
C296 C297 1.391 . S
C296 C298 1.394 . S
C296 H312 0.931 . S
C297 C296 1.391 . S
C297 C301 1.376 . S
C298 C296 1.394 . S
C298 C299 1.369 . S
C298 C302 1.531 . S
C299 C298 1.369 . S
C299 C300 1.410 . S
C299 C307 1.503 . S
C300 C299 1.410 . S
C300 C301 1.392 . S
C300 C303 1.511 . S
C301 C297 1.376 . S
C301 C300 1.392 . S
C301 H313 0.929 . S
C302 C298 1.531 . S
C302 H314 0.960 . S
C302 H315 0.962 . S
C302 H316 0.960 . S
C303 C300 1.511 . S
C303 H317 0.961 . S
C303 H318 0.961 . S
C303 H319 0.961 . S
C304 C305 1.370 . S
C304 C306 1.363 . S
C304 H320 0.931 . S
C305 C304 1.370 . S
C305 C309 1.408 . S
C306 C304 1.363 . S
C306 C307 1.370 . S
C306 C310 1.524 . S
C307 C299 1.503 . S
C307 C306 1.370 . S
C307 C308 1.403 . S
C308 C307 1.403 . S
C308 C309 1.404 . S
C308 C311 1.539 . S
C309 C305 1.408 . S
C309 C308 1.404 . S
C309 H321 0.930 . S
C310 C306 1.524 . S
C310 H322 0.956 . S
C310 H323 0.961 . S
C310 H324 0.961 . S
C311 C308 1.539 . S
C311 H325 0.958 . S
C311 H326 0.961 . S
C311 H327 0.960 . S
H312 C296 0.931 . S
H313 C301 0.929 . S
H314 C302 0.960 . S
H315 C302 0.962 . S
H316 C302 0.960 . S
H317 C303 0.961 . S
H318 C303 0.961 . S
H319 C303 0.961 . S
H320 C304 0.931 . S
H321 C309 0.930 . S
H322 C310 0.956 . S
H323 C310 0.961 . S
H324 C310 0.961 . S
H325 C311 0.958 . S
H326 C311 0.961 . S
H327 C311 0.960 . S
C328 C329 1.391 . S
C328 C330 1.394 . S
C328 H344 0.931 . S
C329 C328 1.391 . S
C329 C333 1.376 . S
C330 C328 1.394 . S
C330 C331 1.369 . S
C330 C334 1.531 . S
C331 C330 1.369 . S
C331 C332 1.410 . S
C331 C339 1.503 . S
C332 C331 1.410 . S
C332 C333 1.392 . S
C332 C335 1.511 . S
C333 C329 1.376 . S
C333 C332 1.392 . S
C333 H345 0.929 . S
C334 C330 1.531 . S
C334 H346 0.960 . S
C334 H347 0.962 . S
C334 H348 0.960 . S
C335 C332 1.511 . S
C335 H349 0.961 . S
C335 H350 0.961 . S
C335 H351 0.961 . S
C336 C337 1.370 . S
C336 C338 1.363 . S
C336 H352 0.931 . S
C337 C336 1.370 . S
C337 C341 1.408 . S
C338 C336 1.363 . S
C338 C339 1.370 . S
C338 C342 1.524 . S
C339 C331 1.503 . S
C339 C338 1.370 . S
C339 C340 1.403 . S
C340 C339 1.403 . S
C340 C341 1.404 . S
C340 C343 1.539 . S
C341 C337 1.408 . S
C341 C340 1.404 . S
C341 H353 0.930 . S
C342 C338 1.524 . S
C342 H354 0.956 . S
C342 H355 0.961 . S
C342 H356 0.961 . S
C343 C340 1.539 . S
C343 H357 0.958 . S
C343 H358 0.961 . S
C343 H359 0.960 . S
H344 C328 0.931 . S
H345 C333 0.929 . S
H346 C334 0.960 . S
H347 C334 0.962 . S
H348 C334 0.960 . S
H349 C335 0.961 . S
H350 C335 0.961 . S
H351 C335 0.961 . S
H352 C336 0.931 . S
H353 C341 0.930 . S
H354 C342 0.956 . S
H355 C342 0.961 . S
H356 C342 0.961 . S
H357 C343 0.958 . S
H358 C343 0.961 . S
H359 C343 0.960 . S
C360 C361 1.391 . S
C360 C362 1.394 . S
C360 H376 0.931 . S
C361 C360 1.391 . S
C361 C365 1.376 . S
C362 C360 1.394 . S
C362 C363 1.369 . S
C362 C366 1.531 . S
C363 C362 1.369 . S
C363 C364 1.410 . S
C363 C371 1.503 . S
C364 C363 1.410 . S
C364 C365 1.392 . S
C364 C367 1.511 . S
C365 C361 1.376 . S
C365 C364 1.392 . S
C365 H377 0.929 . S
C366 C362 1.531 . S
C366 H378 0.960 . S
C366 H379 0.962 . S
C366 H380 0.960 . S
C367 C364 1.511 . S
C367 H381 0.961 . S
C367 H382 0.961 . S
C367 H383 0.961 . S
C368 C369 1.370 . S
C368 C370 1.363 . S
C368 H384 0.931 . S
C369 C368 1.370 . S
C369 C373 1.408 . S
C370 C368 1.363 . S
C370 C371 1.370 . S
C370 C374 1.524 . S
C371 C363 1.503 . S
C371 C370 1.370 . S
C371 C372 1.403 . S
C372 C371 1.403 . S
C372 C373 1.404 . S
C372 C375 1.539 . S
C373 C369 1.408 . S
C373 C372 1.404 . S
C373 H385 0.930 . S
C374 C370 1.524 . S
C374 H386 0.956 . S
C374 H387 0.961 . S
C374 H388 0.961 . S
C375 C372 1.539 . S
C375 H389 0.958 . S
C375 H390 0.961 . S
C375 H391 0.960 . S
H376 C360 0.931 . S
H377 C365 0.929 . S
H378 C366 0.960 . S
H379 C366 0.962 . S
H380 C366 0.960 . S
H381 C367 0.961 . S
H382 C367 0.961 . S
H383 C367 0.961 . S
H384 C368 0.931 . S
H385 C373 0.930 . S
H386 C374 0.956 . S
H387 C374 0.961 . S
H388 C374 0.961 . S
H389 C375 0.958 . S
H390 C375 0.961 . S
H391 C375 0.960 . S
C392 C393 1.391 . S
C392 C394 1.394 . S
C392 H408 0.931 . S
C393 C392 1.391 . S
C393 C397 1.376 . S
C394 C392 1.394 . S
C394 C395 1.369 . S
C394 C398 1.531 . S
C395 C394 1.369 . S
C395 C396 1.410 . S
C395 C403 1.503 . S
C396 C395 1.410 . S
C396 C397 1.392 . S
C396 C399 1.511 . S
C397 C393 1.376 . S
C397 C396 1.392 . S
C397 H409 0.929 . S
C398 C394 1.531 . S
C398 H410 0.960 . S
C398 H411 0.962 . S
C398 H412 0.960 . S
C399 C396 1.511 . S
C399 H413 0.961 . S
C399 H414 0.961 . S
C399 H415 0.961 . S
C400 C401 1.370 . S
C400 C402 1.363 . S
C400 H416 0.931 . S
C401 C400 1.370 . S
C401 C405 1.408 . S
C402 C400 1.363 . S
C402 C403 1.370 . S
C402 C406 1.524 . S
C403 C395 1.503 . S
C403 C402 1.370 . S
C403 C404 1.403 . S
C404 C403 1.403 . S
C404 C405 1.404 . S
C404 C407 1.539 . S
C405 C401 1.408 . S
C405 C404 1.404 . S
C405 H417 0.930 . S
C406 C402 1.524 . S
C406 H418 0.956 . S
C406 H419 0.961 . S
C406 H420 0.961 . S
C407 C404 1.539 . S
C407 H421 0.958 . S
C407 H422 0.961 . S
C407 H423 0.960 . S
H408 C392 0.931 . S
H409 C397 0.929 . S
H410 C398 0.960 . S
H411 C398 0.962 . S
H412 C398 0.960 . S
H413 C399 0.961 . S
H414 C399 0.961 . S
H415 C399 0.961 . S
H416 C400 0.931 . S
H417 C405 0.930 . S
H418 C406 0.956 . S
H419 C406 0.961 . S
H420 C406 0.961 . S
H421 C407 0.958 . S
H422 C407 0.961 . S
H423 C407 0.960 . S
C424 C425 1.391 . S
C424 C426 1.394 . S
C424 H440 0.931 . S
C425 C424 1.391 . S
C425 C429 1.376 1_554 S
C426 C424 1.394 . S
C426 C427 1.369 . S
C426 C430 1.531 . S
C427 C426 1.369 . S
C427 C428 1.410 1_554 S
C427 C435 1.503 1_554 S
C428 C427 1.410 1_556 S
C428 C429 1.392 . S
C428 C431 1.511 . S
C429 C425 1.376 1_556 S
C429 C428 1.392 . S
C429 H441 0.929 . S
C430 C426 1.531 . S
C430 H442 0.960 . S
C430 H443 0.962 . S
C430 H444 0.960 . S
C431 C428 1.511 . S
C431 H445 0.961 . S
C431 H446 0.961 . S
C431 H447 0.961 . S
C432 C433 1.370 1_554 S
C432 C434 1.363 . S
C432 H448 0.931 . S
C433 C432 1.370 1_556 S
C433 C437 1.408 . S
C434 C432 1.363 . S
C434 C435 1.370 1_554 S
C434 C438 1.524 . S
C435 C427 1.503 1_556 S
C435 C434 1.370 1_556 S
C435 C436 1.403 . S
C436 C435 1.403 . S
C436 C437 1.404 . S
C436 C439 1.539 . S
C437 C433 1.408 . S
C437 C436 1.404 . S
C437 H449 0.930 . S
C438 C434 1.524 . S
C438 H450 0.956 . S
C438 H451 0.961 . S
C438 H452 0.961 . S
C439 C436 1.539 . S
C439 H453 0.958 . S
C439 H454 0.961 . S
C439 H455 0.960 . S
H440 C424 0.931 . S
H441 C429 0.929 . S
H442 C430 0.960 . S
H443 C430 0.962 . S
H444 C430 0.960 . S
H445 C431 0.961 . S
H446 C431 0.961 . S
H447 C431 0.961 . S
H448 C432 0.931 . S
H449 C437 0.930 . S
H450 C438 0.956 . S
H451 C438 0.961 . S
H452 C438 0.961 . S
H453 C439 0.958 . S
H454 C439 0.961 . S
H455 C439 0.960 . S
C456 C457 1.391 . S
C456 C458 1.394 . S
C456 H472 0.931 . S
C457 C456 1.391 . S
C457 C461 1.376 . S
C458 C456 1.394 . S
C458 C459 1.369 . S
C458 C462 1.531 . S
C459 C458 1.369 . S
C459 C460 1.410 . S
C459 C467 1.503 . S
C460 C459 1.410 . S
C460 C461 1.392 . S
C460 C463 1.511 . S
C461 C457 1.376 . S
C461 C460 1.392 . S
C461 H473 0.929 . S
C462 C458 1.531 . S
C462 H474 0.960 . S
C462 H475 0.962 . S
C462 H476 0.960 . S
C463 C460 1.511 . S
C463 H477 0.961 . S
C463 H478 0.961 . S
C463 H479 0.961 . S
C464 C465 1.370 . S
C464 C466 1.363 . S
C464 H480 0.931 . S
C465 C464 1.370 . S
C465 C469 1.408 . S
C466 C464 1.363 . S
C466 C467 1.370 . S
C466 C470 1.524 . S
C467 C459 1.503 . S
C467 C466 1.370 . S
C467 C468 1.403 . S
C468 C467 1.403 . S
C468 C469 1.404 . S
C468 C471 1.539 . S
C469 C465 1.408 . S
C469 C468 1.404 . S
C469 H481 0.930 . S
C470 C466 1.524 . S
C470 H482 0.956 . S
C470 H483 0.961 . S
C470 H484 0.961 . S
C471 C468 1.539 . S
C471 H485 0.958 . S
C471 H486 0.961 . S
C471 H487 0.960 . S
H472 C456 0.931 . S
H473 C461 0.929 . S
H474 C462 0.960 . S
H475 C462 0.962 . S
H476 C462 0.960 . S
H477 C463 0.961 . S
H478 C463 0.961 . S
H479 C463 0.961 . S
H480 C464 0.931 . S
H481 C469 0.930 . S
H482 C470 0.956 . S
H483 C470 0.961 . S
H484 C470 0.961 . S
H485 C471 0.958 . S
H486 C471 0.961 . S
H487 C471 0.960 . S
C488 C489 1.391 . S
C488 C490 1.394 . S
C488 H504 0.931 . S
C489 C488 1.391 . S
C489 C493 1.376 . S
C490 C488 1.394 . S
C490 C491 1.369 . S
C490 C494 1.531 . S
C491 C490 1.369 . S
C491 C492 1.410 . S
C491 C499 1.503 . S
C492 C491 1.410 . S
C492 C493 1.392 . S
C492 C495 1.511 . S
C493 C489 1.376 . S
C493 C492 1.392 . S
C493 H505 0.929 . S
C494 C490 1.531 . S
C494 H506 0.960 . S
C494 H507 0.962 . S
C494 H508 0.960 . S
C495 C492 1.511 . S
C495 H509 0.961 . S
C495 H510 0.961 . S
C495 H511 0.961 . S
C496 C497 1.370 . S
C496 C498 1.363 . S
C496 H512 0.931 . S
C497 C496 1.370 . S
C497 C501 1.408 . S
C498 C496 1.363 . S
C498 C499 1.370 . S
C498 C502 1.524 . S
C499 C491 1.503 . S
C499 C498 1.370 . S
C499 C500 1.403 . S
C500 C499 1.403 . S
C500 C501 1.404 . S
C500 C503 1.539 . S
C501 C497 1.408 . S
C501 C500 1.404 . S
C501 H513 0.930 . S
C502 C498 1.524 . S
C502 H514 0.956 . S
C502 H515 0.961 . S
C502 H516 0.961 . S
C503 C500 1.539 . S
C503 H517 0.958 . S
C503 H518 0.961 . S
C503 H519 0.960 . S
H504 C488 0.931 . S
H505 C493 0.929 . S
H506 C494 0.960 . S
H507 C494 0.962 . S
H508 C494 0.960 . S
H509 C495 0.961 . S
H510 C495 0.961 . S
H511 C495 0.961 . S
H512 C496 0.931 . S
H513 C501 0.930 . S
H514 C502 0.956 . S
H515 C502 0.961 . S
H516 C502 0.961 . S
H517 C503 0.958 . S
H518 C503 0.961 . S
H519 C503 0.960 . S
C520 C521 1.391 1_554 S
C520 C522 1.394 . S
C520 H536 0.931 . S
C521 C520 1.391 1_556 S
C521 C525 1.376 . S
C522 C520 1.394 . S
C522 C523 1.369 . S
C522 C526 1.531 . S
C523 C522 1.369 . S
C523 C524 1.410 1_554 S
C523 C531 1.503 . S
C524 C523 1.410 1_556 S
C524 C525 1.392 . S
C524 C527 1.511 . S
C525 C521 1.376 . S
C525 C524 1.392 . S
C525 H537 0.929 . S
C526 C522 1.531 . S
C526 H538 0.960 . S
C526 H539 0.962 . S
C526 H540 0.960 . S
C527 C524 1.511 . S
C527 H541 0.961 . S
C527 H542 0.961 . S
C527 H543 0.961 . S
C528 C529 1.370 . S
C528 C530 1.358 1_554 S
C528 H544 0.931 1_554 S
C529 C528 1.370 . S
C529 C533 1.408 . S
C530 C528 1.358 1_556 S
C530 C531 1.360 1_556 S
C530 C534 1.540 . S
C531 C523 1.503 . S
C531 C530 1.360 1_554 S
C531 C532 1.403 . S
C532 C531 1.403 . S
C532 C533 1.404 . S
C532 C535 1.539 . S
C533 C529 1.408 . S
C533 C532 1.404 . S
C533 H545 0.930 . S
C534 C530 1.540 . S
C534 H546 0.956 . S
C534 H547 0.961 . S
C534 H548 0.961 . S
C535 C532 1.539 . S
C535 H549 0.958 . S
C535 H550 0.961 . S
C535 H551 0.960 . S
H536 C520 0.931 . S
H537 C525 0.929 . S
H538 C526 0.960 . S
H539 C526 0.962 . S
H540 C526 0.960 . S
H541 C527 0.961 . S
H542 C527 0.961 . S
H543 C527 0.961 . S
H544 C528 0.931 1_556 S
H545 C533 0.930 . S
H546 C534 0.956 . S
H547 C534 0.961 . S
H548 C534 0.961 . S
H549 C535 0.958 . S
H550 C535 0.961 . S
H551 C535 0.960 . S
C552 C553 1.391 . S
C552 C554 1.394 . S
C552 H568 0.931 . S
C553 C552 1.391 . S
C553 C557 1.376 . S
C554 C552 1.394 . S
C554 C555 1.369 . S
C554 C558 1.531 . S
C555 C554 1.369 . S
C555 C556 1.410 . S
C555 C563 1.503 1_545 S
C556 C555 1.410 . S
C556 C557 1.392 . S
C556 C559 1.511 . S
C557 C553 1.376 . S
C557 C556 1.392 . S
C557 H569 0.929 . S
C558 C554 1.531 . S
C558 H570 0.960 1_545 S
C558 H571 0.962 1_545 S
C558 H572 0.960 . S
C559 C556 1.511 . S
C559 H573 0.961 . S
C559 H574 0.961 . S
C559 H575 0.961 . S
C560 C561 1.370 . S
C560 C562 1.363 . S
C560 H576 0.931 . S
C561 C560 1.370 . S
C561 C565 1.408 . S
C562 C560 1.363 . S
C562 C563 1.370 . S
C562 C566 1.524 . S
C563 C555 1.503 1_565 S
C563 C562 1.370 . S
C563 C564 1.403 . S
C564 C563 1.403 . S
C564 C565 1.404 . S
C564 C567 1.539 . S
C565 C561 1.408 . S
C565 C564 1.404 . S
C565 H577 0.930 . S
C566 C562 1.524 . S
C566 H578 0.956 . S
C566 H579 0.961 . S
C566 H580 0.961 . S
C567 C564 1.539 . S
C567 H581 0.958 . S
C567 H582 0.961 . S
C567 H583 0.960 1_565 S
H568 C552 0.931 . S
H569 C557 0.929 . S
H570 C558 0.960 1_565 S
H571 C558 0.962 1_565 S
H572 C558 0.960 . S
H573 C559 0.961 . S
H574 C559 0.961 . S
H575 C559 0.961 . S
H576 C560 0.931 . S
H577 C565 0.930 . S
H578 C566 0.956 . S
H579 C566 0.961 . S
H580 C566 0.961 . S
H581 C567 0.958 . S
H582 C567 0.961 . S
H583 C567 0.960 1_545 S
C584 C585 1.391 . S
C584 C586 1.394 . S
C584 H600 0.931 . S
C585 C584 1.391 . S
C585 C589 1.376 . S
C586 C584 1.394 . S
C586 C587 1.369 . S
C586 C590 1.531 . S
C587 C586 1.369 . S
C587 C588 1.410 . S
C587 C595 1.503 . S
C588 C587 1.410 . S
C588 C589 1.392 . S
C588 C591 1.511 . S
C589 C585 1.376 . S
C589 C588 1.392 . S
C589 H601 0.929 . S
C590 C586 1.531 . S
C590 H602 0.960 . S
C590 H603 0.962 . S
C590 H604 0.960 . S
C591 C588 1.511 . S
C591 H605 0.961 . S
C591 H606 0.961 . S
C591 H607 0.961 . S
C592 C593 1.370 . S
C592 C594 1.363 . S
C592 H608 0.931 . S
C593 C592 1.370 . S
C593 C597 1.408 . S
C594 C592 1.363 . S
C594 C595 1.370 . S
C594 C598 1.524 . S
C595 C587 1.503 . S
C595 C594 1.370 . S
C595 C596 1.403 . S
C596 C595 1.403 . S
C596 C597 1.404 . S
C596 C599 1.539 . S
C597 C593 1.408 . S
C597 C596 1.404 . S
C597 H609 0.930 . S
C598 C594 1.524 . S
C598 H610 0.956 . S
C598 H611 0.961 . S
C598 H612 0.961 . S
C599 C596 1.539 . S
C599 H613 0.958 . S
C599 H614 0.961 . S
C599 H615 0.960 . S
H600 C584 0.931 . S
H601 C589 0.929 . S
H602 C590 0.960 . S
H603 C590 0.962 . S
H604 C590 0.960 . S
H605 C591 0.961 . S
H606 C591 0.961 . S
H607 C591 0.961 . S
H608 C592 0.931 . S
H609 C597 0.930 . S
H610 C598 0.956 . S
H611 C598 0.961 . S
H612 C598 0.961 . S
H613 C599 0.958 . S
H614 C599 0.961 . S
H615 C599 0.960 . S
C616 C617 1.391 . S
C616 C618 1.394 . S
C616 H632 0.931 . S
C617 C616 1.391 . S
C617 C621 1.376 . S
C618 C616 1.394 . S
C618 C619 1.369 . S
C618 C622 1.531 . S
C619 C618 1.369 . S
C619 C620 1.410 . S
C619 C627 1.503 1_655 S
C620 C619 1.410 . S
C620 C621 1.392 . S
C620 C623 1.511 1_556 S
C621 C617 1.376 . S
C621 C620 1.392 . S
C621 H633 0.929 1_556 S
C622 C618 1.531 . S
C622 H634 0.960 1_655 S
C622 H635 0.962 1_655 S
C622 H636 0.960 . S
C623 C620 1.511 1_554 S
C623 H637 0.961 . S
C623 H638 0.961 . S
C623 H639 0.961 . S
C624 C625 1.370 . S
C624 C626 1.363 . S
C624 H640 0.931 . S
C625 C624 1.370 . S
C625 C629 1.408 . S
C626 C624 1.363 . S
C626 C627 1.370 . S
C626 C630 1.524 1_556 S
C627 C619 1.503 1_455 S
C627 C626 1.370 . S
C627 C628 1.403 . S
C628 C627 1.403 . S
C628 C629 1.404 . S
C628 C631 1.568 . S
C629 C625 1.408 . S
C629 C628 1.404 . S
C629 H641 0.930 . S
C630 C626 1.524 1_554 S
C630 H642 0.956 1_554 S
C630 H643 0.961 . S
C630 H644 0.961 . S
C631 C628 1.568 . S
C631 H645 0.962 1_455 S
C631 H646 0.954 . S
C631 H647 0.935 1_455 S
H632 C616 0.931 . S
H633 C621 0.929 1_554 S
H634 C622 0.960 1_455 S
H635 C622 0.962 1_455 S
H636 C622 0.960 . S
H637 C623 0.961 . S
H638 C623 0.961 . S
H639 C623 0.961 . S
H640 C624 0.931 . S
H641 C629 0.930 . S
H642 C630 0.956 1_556 S
H643 C630 0.961 . S
H644 C630 0.961 . S
H645 C631 0.962 1_655 S
H646 C631 0.954 . S
H647 C631 0.935 1_655 S
C648 C649 1.391 . S
C648 C650 1.394 . S
C648 H664 0.931 . S
C649 C648 1.391 . S
C649 C653 1.376 . S
C650 C648 1.394 . S
C650 C651 1.369 . S
C650 C654 1.531 . S
C651 C650 1.369 . S
C651 C652 1.410 . S
C651 C659 1.503 1_455 S
C652 C651 1.410 . S
C652 C653 1.392 . S
C652 C655 1.511 . S
C653 C649 1.376 . S
C653 C652 1.392 . S
C653 H665 0.929 . S
C654 C650 1.531 . S
C654 H666 0.960 1_455 S
C654 H667 0.962 1_455 S
C654 H668 0.960 . S
C655 C652 1.511 . S
C655 H669 0.961 . S
C655 H670 0.961 . S
C655 H671 0.961 . S
C656 C657 1.370 . S
C656 C658 1.363 . S
C656 H672 0.931 . S
C657 C656 1.370 . S
C657 C661 1.408 . S
C658 C656 1.363 . S
C658 C659 1.370 . S
C658 C662 1.524 . S
C659 C651 1.503 1_655 S
C659 C658 1.370 . S
C659 C660 1.403 . S
C660 C659 1.403 . S
C660 C661 1.404 . S
C660 C663 1.539 1_655 S
C661 C657 1.408 . S
C661 C660 1.404 . S
C661 H673 0.930 . S
C662 C658 1.524 . S
C662 H674 0.956 . S
C662 H675 0.961 . S
C662 H676 0.961 . S
C663 C660 1.539 1_455 S
C663 H677 0.958 . S
C663 H678 0.961 1_455 S
C663 H679 0.960 . S
H664 C648 0.931 . S
H665 C653 0.929 . S
H666 C654 0.960 1_655 S
H667 C654 0.962 1_655 S
H668 C654 0.960 . S
H669 C655 0.961 . S
H670 C655 0.961 . S
H671 C655 0.961 . S
H672 C656 0.931 . S
H673 C661 0.930 . S
H674 C662 0.956 . S
H675 C662 0.961 . S
H676 C662 0.961 . S
H677 C663 0.958 . S
H678 C663 0.961 1_655 S
H679 C663 0.960 . S
C680 C681 1.391 . S
C680 C682 1.394 . S
C680 H696 0.931 . S
C681 C680 1.391 . S
C681 C685 1.376 . S
C682 C680 1.394 . S
C682 C683 1.369 . S
C682 C686 1.531 . S
C683 C682 1.369 . S
C683 C684 1.410 . S
C683 C691 1.503 1_545 S
C684 C683 1.410 . S
C684 C685 1.392 . S
C684 C687 1.511 . S
C685 C681 1.376 . S
C685 C684 1.392 . S
C685 H697 0.929 . S
C686 C682 1.531 . S
C686 H698 0.960 1_545 S
C686 H699 0.962 1_545 S
C686 H700 0.960 . S
C687 C684 1.511 . S
C687 H701 0.961 . S
C687 H702 0.961 . S
C687 H703 0.961 . S
C688 C689 1.370 . S
C688 C690 1.363 . S
C688 H704 0.931 . S
C689 C688 1.370 . S
C689 C693 1.408 . S
C690 C688 1.363 . S
C690 C691 1.370 . S
C690 C694 1.524 . S
C691 C683 1.503 1_565 S
C691 C690 1.370 . S
C691 C692 1.403 . S
C692 C691 1.403 . S
C692 C693 1.404 . S
C692 C695 1.539 . S
C693 C689 1.408 . S
C693 C692 1.404 . S
C693 H705 0.930 . S
C694 C690 1.524 . S
C694 H706 0.956 . S
C694 H707 0.961 . S
C694 H708 0.961 . S
C695 C692 1.539 . S
C695 H709 0.958 . S
C695 H710 0.961 . S
C695 H711 0.960 1_565 S
H696 C680 0.931 . S
H697 C685 0.929 . S
H698 C686 0.960 1_565 S
H699 C686 0.962 1_565 S
H700 C686 0.960 . S
H701 C687 0.961 . S
H702 C687 0.961 . S
H703 C687 0.961 . S
H704 C688 0.931 . S
H705 C693 0.930 . S
H706 C694 0.956 . S
H707 C694 0.961 . S
H708 C694 0.961 . S
H709 C695 0.958 . S
H710 C695 0.961 . S
H711 C695 0.960 1_545 S
C712 C713 1.391 . S
C712 C714 1.394 . S
C712 H728 0.931 . S
C713 C712 1.391 . S
C713 C717 1.376 . S
C714 C712 1.394 . S
C714 C715 1.369 . S
C714 C718 1.531 . S
C715 C714 1.369 . S
C715 C716 1.410 . S
C715 C723 1.503 . S
C716 C715 1.410 . S
C716 C717 1.392 . S
C716 C719 1.511 . S
C717 C713 1.376 . S
C717 C716 1.392 . S
C717 H729 0.929 . S
C718 C714 1.531 . S
C718 H730 0.960 . S
C718 H731 0.962 . S
C718 H732 0.960 . S
C719 C716 1.511 . S
C719 H733 0.961 . S
C719 H734 0.961 . S
C719 H735 0.961 . S
C720 C721 1.370 . S
C720 C722 1.363 . S
C720 H736 0.931 1_554 S
C721 C720 1.370 . S
C721 C725 1.408 . S
C722 C720 1.363 . S
C722 C723 1.370 . S
C722 C726 1.524 1_554 S
C723 C715 1.503 . S
C723 C722 1.370 . S
C723 C724 1.403 . S
C724 C723 1.403 . S
C724 C725 1.404 . S
C724 C727 1.539 . S
C725 C721 1.408 . S
C725 C724 1.404 . S
C725 H737 0.930 . S
C726 C722 1.524 1_556 S
C726 H738 0.956 . S
C726 H739 0.961 . S
C726 H740 0.961 . S
C727 C724 1.539 . S
C727 H741 0.958 . S
C727 H742 0.961 . S
C727 H743 0.960 . S
H728 C712 0.931 . S
H729 C717 0.929 . S
H730 C718 0.960 . S
H731 C718 0.962 . S
H732 C718 0.960 . S
H733 C719 0.961 . S
H734 C719 0.961 . S
H735 C719 0.961 . S
H736 C720 0.931 1_556 S
H737 C725 0.930 . S
H738 C726 0.956 . S
H739 C726 0.961 . S
H740 C726 0.961 . S
H741 C727 0.958 . S
H742 C727 0.961 . S
H743 C727 0.960 . S
C744 C745 1.391 . S
C744 C746 1.394 . S
C744 H760 0.931 . S
C745 C744 1.391 . S
C745 C749 1.376 . S
C746 C744 1.394 . S
C746 C747 1.369 . S
C746 C750 1.531 . S
C747 C746 1.369 . S
C747 C748 1.410 . S
C747 C755 1.503 . S
C748 C747 1.410 . S
C748 C749 1.392 . S
C748 C751 1.511 . S
C749 C745 1.376 . S
C749 C748 1.392 . S
C749 H761 0.929 . S
C750 C746 1.531 . S
C750 H762 0.960 . S
C750 H763 0.962 . S
C750 H764 0.960 . S
C751 C748 1.511 . S
C751 H765 0.961 . S
C751 H766 0.961 . S
C751 H767 0.961 . S
C752 C753 1.370 . S
C752 C754 1.363 . S
C752 H768 0.931 . S
C753 C752 1.370 . S
C753 C757 1.408 . S
C754 C752 1.363 . S
C754 C755 1.370 . S
C754 C758 1.524 . S
C755 C747 1.503 . S
C755 C754 1.370 . S
C755 C756 1.403 . S
C756 C755 1.403 . S
C756 C757 1.404 . S
C756 C759 1.539 . S
C757 C753 1.408 . S
C757 C756 1.404 . S
C757 H769 0.930 . S
C758 C754 1.524 . S
C758 H770 0.956 . S
C758 H771 0.961 . S
C758 H772 0.961 . S
C759 C756 1.539 . S
C759 H773 0.958 . S
C759 H774 0.961 . S
C759 H775 0.960 . S
H760 C744 0.931 . S
H761 C749 0.929 . S
H762 C750 0.960 . S
H763 C750 0.962 . S
H764 C750 0.960 . S
H765 C751 0.961 . S
H766 C751 0.961 . S
H767 C751 0.961 . S
H768 C752 0.931 . S
H769 C757 0.930 . S
H770 C758 0.956 . S
H771 C758 0.961 . S
H772 C758 0.961 . S
H773 C759 0.958 . S
H774 C759 0.961 . S
H775 C759 0.960 . S
C776 C777 1.391 . S
C776 C778 1.394 . S
C776 H792 0.931 . S
C777 C776 1.391 . S
C777 C781 1.376 . S
C778 C776 1.394 . S
C778 C779 1.369 . S
C778 C782 1.531 . S
C779 C778 1.369 . S
C779 C780 1.410 . S
C779 C787 1.503 . S
C780 C779 1.410 . S
C780 C781 1.392 . S
C780 C783 1.511 . S
C781 C777 1.376 . S
C781 C780 1.392 . S
C781 H793 0.929 . S
C782 C778 1.531 . S
C782 H794 0.960 . S
C782 H795 0.962 . S
C782 H796 0.960 . S
C783 C780 1.511 . S
C783 H797 0.961 . S
C783 H798 0.961 . S
C783 H799 0.961 . S
C784 C785 1.370 . S
C784 C786 1.363 . S
C784 H800 0.931 . S
C785 C784 1.370 . S
C785 C789 1.408 . S
C786 C784 1.363 . S
C786 C787 1.370 . S
C786 C790 1.524 . S
C787 C779 1.503 . S
C787 C786 1.370 . S
C787 C788 1.403 . S
C788 C787 1.403 . S
C788 C789 1.404 . S
C788 C791 1.539 . S
C789 C785 1.408 . S
C789 C788 1.404 . S
C789 H801 0.930 . S
C790 C786 1.524 . S
C790 H802 0.956 . S
C790 H803 0.961 . S
C790 H804 0.961 . S
C791 C788 1.539 . S
C791 H805 0.958 . S
C791 H806 0.961 . S
C791 H807 0.960 . S
H792 C776 0.931 . S
H793 C781 0.929 . S
H794 C782 0.960 . S
H795 C782 0.962 . S
H796 C782 0.960 . S
H797 C783 0.961 . S
H798 C783 0.961 . S
H799 C783 0.961 . S
H800 C784 0.931 . S
H801 C789 0.930 . S
H802 C790 0.956 . S
H803 C790 0.961 . S
H804 C790 0.961 . S
H805 C791 0.958 . S
H806 C791 0.961 . S
H807 C791 0.960 . S
C808 C809 1.391 . S
C808 C810 1.394 . S
C808 H824 0.931 . S
C809 C808 1.391 . S
C809 C813 1.376 . S
C810 C808 1.394 . S
C810 C811 1.369 . S
C810 C814 1.531 . S
C811 C810 1.369 . S
C811 C812 1.410 . S
C811 C819 1.503 . S
C812 C811 1.410 . S
C812 C813 1.392 . S
C812 C815 1.511 . S
C813 C809 1.376 . S
C813 C812 1.392 . S
C813 H825 0.929 . S
C814 C810 1.531 . S
C814 H826 0.960 . S
C814 H827 0.962 . S
C814 H828 0.960 . S
C815 C812 1.511 . S
C815 H829 0.961 . S
C815 H830 0.961 . S
C815 H831 0.961 . S
C816 C817 1.370 . S
C816 C818 1.363 . S
C816 H832 0.931 . S
C817 C816 1.370 . S
C817 C821 1.408 . S
C818 C816 1.363 . S
C818 C819 1.370 . S
C818 C822 1.524 . S
C819 C811 1.503 . S
C819 C818 1.370 . S
C819 C820 1.403 . S
C820 C819 1.403 . S
C820 C821 1.404 . S
C820 C823 1.539 . S
C821 C817 1.408 . S
C821 C820 1.404 . S
C821 H833 0.930 . S
C822 C818 1.524 . S
C822 H834 0.956 . S
C822 H835 0.961 . S
C822 H836 0.961 . S
C823 C820 1.539 . S
C823 H837 0.958 . S
C823 H838 0.961 . S
C823 H839 0.960 . S
H824 C808 0.931 . S
H825 C813 0.929 . S
H826 C814 0.960 . S
H827 C814 0.962 . S
H828 C814 0.960 . S
H829 C815 0.961 . S
H830 C815 0.961 . S
H831 C815 0.961 . S
H832 C816 0.931 . S
H833 C821 0.930 . S
H834 C822 0.956 . S
H835 C822 0.961 . S
H836 C822 0.961 . S
H837 C823 0.958 . S
H838 C823 0.961 . S
H839 C823 0.960 . S
C840 C841 1.391 . S
C840 C842 1.394 . S
C840 H856 0.931 . S
C841 C840 1.391 . S
C841 C845 1.376 . S
C842 C840 1.394 . S
C842 C843 1.369 . S
C842 C846 1.531 . S
C843 C842 1.369 . S
C843 C844 1.410 . S
C843 C851 1.503 . S
C844 C843 1.410 . S
C844 C845 1.392 . S
C844 C847 1.511 . S
C845 C841 1.376 . S
C845 C844 1.392 . S
C845 H857 0.929 . S
C846 C842 1.531 . S
C846 H858 0.960 . S
C846 H859 0.962 . S
C846 H860 0.960 . S
C847 C844 1.511 . S
C847 H861 0.961 . S
C847 H862 0.961 . S
C847 H863 0.961 . S
C848 C849 1.370 . S
C848 C850 1.363 . S
C848 H864 0.931 . S
C849 C848 1.370 . S
C849 C853 1.408 . S
C850 C848 1.363 . S
C850 C851 1.370 . S
C850 C854 1.524 . S
C851 C843 1.503 . S
C851 C850 1.370 . S
C851 C852 1.403 . S
C852 C851 1.403 . S
C852 C853 1.404 . S
C852 C855 1.539 . S
C853 C849 1.408 . S
C853 C852 1.404 . S
C853 H865 0.930 . S
C854 C850 1.524 . S
C854 H866 0.956 . S
C854 H867 0.961 . S
C854 H868 0.961 . S
C855 C852 1.539 . S
C855 H869 0.958 . S
C855 H870 0.961 . S
C855 H871 0.960 . S
H856 C840 0.931 . S
H857 C845 0.929 . S
H858 C846 0.960 . S
H859 C846 0.962 . S
H860 C846 0.960 . S
H861 C847 0.961 . S
H862 C847 0.961 . S
H863 C847 0.961 . S
H864 C848 0.931 . S
H865 C853 0.930 . S
H866 C854 0.956 . S
H867 C854 0.961 . S
H868 C854 0.961 . S
H869 C855 0.958 . S
H870 C855 0.961 . S
H871 C855 0.960 . S
C872 C873 1.391 . S
C872 C874 1.394 . S
C872 H888 0.931 . S
C873 C872 1.391 . S
C873 C877 1.376 . S
C874 C872 1.394 . S
C874 C875 1.369 . S
C874 C878 1.531 . S
C875 C874 1.369 . S
C875 C876 1.410 . S
C875 C883 1.503 . S
C876 C875 1.410 . S
C876 C877 1.392 . S
C876 C879 1.511 . S
C877 C873 1.376 . S
C877 C876 1.392 . S
C877 H889 0.929 . S
C878 C874 1.531 . S
C878 H890 0.960 . S
C878 H891 0.962 . S
C878 H892 0.960 . S
C879 C876 1.511 . S
C879 H893 0.961 . S
C879 H894 0.961 . S
C879 H895 0.961 . S
C880 C881 1.370 . S
C880 C882 1.363 . S
C880 H896 0.931 . S
C881 C880 1.370 . S
C881 C885 1.408 . S
C882 C880 1.363 . S
C882 C883 1.370 . S
C882 C886 1.524 . S
C883 C875 1.503 . S
C883 C882 1.370 . S
C883 C884 1.403 . S
C884 C883 1.403 . S
C884 C885 1.404 . S
C884 C887 1.539 . S
C885 C881 1.408 . S
C885 C884 1.404 . S
C885 H897 0.930 . S
C886 C882 1.524 . S
C886 H898 0.956 . S
C886 H899 0.961 . S
C886 H900 0.961 . S
C887 C884 1.539 . S
C887 H901 0.958 . S
C887 H902 0.961 . S
C887 H903 0.960 . S
H888 C872 0.931 . S
H889 C877 0.929 . S
H890 C878 0.960 . S
H891 C878 0.962 . S
H892 C878 0.960 . S
H893 C879 0.961 . S
H894 C879 0.961 . S
H895 C879 0.961 . S
H896 C880 0.931 . S
H897 C885 0.930 . S
H898 C886 0.956 . S
H899 C886 0.961 . S
H900 C886 0.961 . S
H901 C887 0.958 . S
H902 C887 0.961 . S
H903 C887 0.960 . S
C904 C905 1.391 . S
C904 C906 1.394 . S
C904 H920 0.931 . S
C905 C904 1.391 . S
C905 C909 1.376 . S
C906 C904 1.394 . S
C906 C907 1.369 . S
C906 C910 1.531 . S
C907 C906 1.369 . S
C907 C908 1.410 . S
C907 C915 1.503 . S
C908 C907 1.410 . S
C908 C909 1.392 . S
C908 C911 1.511 . S
C909 C905 1.376 . S
C909 C908 1.392 . S
C909 H921 0.929 . S
C910 C906 1.531 . S
C910 H922 0.960 . S
C910 H923 0.962 . S
C910 H924 0.960 . S
C911 C908 1.511 . S
C911 H925 0.961 . S
C911 H926 0.961 . S
C911 H927 0.961 . S
C912 C913 1.370 . S
C912 C914 1.363 . S
C912 H928 0.931 . S
C913 C912 1.370 . S
C913 C917 1.408 . S
C914 C912 1.363 . S
C914 C915 1.370 . S
C914 C918 1.524 . S
C915 C907 1.503 . S
C915 C914 1.370 . S
C915 C916 1.403 . S
C916 C915 1.403 . S
C916 C917 1.404 . S
C916 C919 1.539 . S
C917 C913 1.408 . S
C917 C916 1.404 . S
C917 H929 0.930 . S
C918 C914 1.524 . S
C918 H930 0.956 . S
C918 H931 0.961 . S
C918 H932 0.961 . S
C919 C916 1.539 . S
C919 H933 0.958 . S
C919 H934 0.961 . S
C919 H935 0.960 . S
H920 C904 0.931 . S
H921 C909 0.929 . S
H922 C910 0.960 . S
H923 C910 0.962 . S
H924 C910 0.960 . S
H925 C911 0.961 . S
H926 C911 0.961 . S
H927 C911 0.961 . S
H928 C912 0.931 . S
H929 C917 0.930 . S
H930 C918 0.956 . S
H931 C918 0.961 . S
H932 C918 0.961 . S
H933 C919 0.958 . S
H934 C919 0.961 . S
H935 C919 0.960 . S
C169 C9 1.504 . S
C177 C149 1.566 . S
C201 C23 1.532 . S
C209 C163 1.554 . S
C233 C93 1.588 . S
C241 C37 1.531 . S
C265 C51 1.503 . S
C273 C107 1.566 . S
C297 C121 1.507 . S
C305 C65 1.565 . S
C329 C135 1.585 . S
C337 C79 1.532 . S
C361 C89 0.502 . S
C369 C5 0.422 . S
C393 C103 0.400 . S
C401 C19 0.468 . S
C425 C117 0.399 . S
C433 C33 0.453 . S
C457 C47 0.504 . S
C465 C131 0.429 . S
C489 C61 0.489 . S
C497 C145 0.420 . S
C521 C75 0.444 . S
C529 C159 0.462 . S
C553 C11 1.400 . S
C561 C53 1.412 . S
C585 C25 1.401 . S
C593 C67 1.395 . S
C617 C39 1.396 . S
C625 C81 1.412 . S
C649 C137 1.391 . S
C657 C95 1.411 . S
C681 C151 1.403 . S
C689 C109 1.413 . S
C713 C165 1.407 . S
C721 C123 1.412 . S
C745 C0 1.468 . S
C753 C112 1.491 . S
C777 C126 1.484 . S
C785 C14 1.492 . S
C809 C28 1.505 . S
C817 C140 1.500 . S
C841 C154 1.497 . S
C849 C42 1.506 . S
C873 C56 1.524 . S
C881 C84 1.514 . S
C905 C70 1.474 . S
C913 C98 1.495 . S
