# Generated by pormake.
# Topology lon, (4)-cn, num edge types: 1
# Building blocks:
#     Node 0, Type 0, BuildingBlock: KUFVIS_clean_sbu_0, # of connection points: 4
#     Node 1, Type 0, BuildingBlock: KUFVIS_clean_sbu_0, # of connection points: 4
#     Node 2, Type 0, BuildingBlock: KUFVIS_clean_sbu_0, # of connection points: 4
#     Node 3, Type 0, BuildingBlock: KUFVIS_clean_sbu_0, # of connection points: 4
#     Edge 4, Type (0, 0), BuildingBlock: KIFKEQ_clean_linker_1, # of connection points: 2
#     Edge 5, Type (0, 0), BuildingBlock: KIFKEQ_clean_linker_1, # of connection points: 2
#     Edge 6, Type (0, 0), BuildingBlock: KIFKEQ_clean_linker_1, # of connection points: 2
#     Edge 7, Type (0, 0), BuildingBlock: KIFKEQ_clean_linker_1, # of connection points: 2
#     Edge 8, Type (0, 0), BuildingBlock: KIFKEQ_clean_linker_1, # of connection points: 2
#     Edge 9, Type (0, 0), BuildingBlock: KIFKEQ_clean_linker_1, # of connection points: 2
#     Edge 10, Type (0, 0), BuildingBlock: KIFKEQ_clean_linker_1, # of connection points: 2
#     Edge 11, Type (0, 0), BuildingBlock: KIFKEQ_clean_linker_1, # of connection points: 2
# Relax obj value: 0.048
# Max RMSD: 0.108
# Mean RMSD: 0.089
data_MOF--net-lon--node1-KUFVIS_clean_sbu_0--edge1-KIFKEQ_clean_linker_1
_symmetry_space_group_name_H-M    P1
_symmetry_Int_Tables_number       1
_symmetry_cell_setting            triclinic
loop_
_symmetry_equiv_pos_as_xyz
'x, y, z'
_cell_length_a     24.814991
_cell_length_b     24.107513
_cell_length_c     41.062266
_cell_angle_alpha  100.2642
_cell_angle_beta   90.013231
_cell_angle_gamma 120.99913
loop_
_atom_site_label
_atom_site_type_symbol
_atom_site_fract_x
_atom_site_fract_y
_atom_site_fract_z
_atom_type_partial_charge
Mn0 Mn 0.32501 0.68796 0.08544 0.0
Mn1 Mn 0.29367 0.63228 1.00182 0.0
C2 C 0.22564 0.64677 0.05902 0.0
C3 C 0.33078 0.67269 0.13974 0.0
C4 C 0.36992 0.77764 0.03453 0.0
O5 O 0.39613 0.67161 0.07349 0.0
O6 O 0.36738 0.63047 0.01815 0.0
C7 C 0.25475 0.49284 0.99909 0.0
N8 N 0.24173 0.53792 0.99174 0.0
C9 C 0.14017 0.4517 0.96304 0.0
C10 C 0.15261 0.40434 0.97017 0.0
C11 C 0.21007 0.42503 0.98837 0.0
C12 C 0.18643 0.51856 0.97445 0.0
H13 H 0.29888 0.50854 1.01305 0.0
C14 C 0.40319 0.64653 0.04487 0.0
O15 O 0.36356 0.7305 0.13226 0.0
O16 O 0.29567 0.62305 0.11543 0.0
N17 N 0.22229 0.63078 0.98293 0.0
C18 C 0.2165 0.68268 0.97942 0.0
C19 C 0.16122 0.67045 0.96228 0.0
C20 C 0.11281 0.6051 0.94868 0.0
C21 C 0.12008 0.55253 0.95237 0.0
C22 C 0.17632 0.56776 0.96957 0.0
H23 H 0.25373 0.73302 0.98963 0.0
O24 O 0.24374 0.68695 0.08787 0.0
O25 O 0.26621 0.63292 0.04653 0.0
O26 O 0.36463 0.76975 0.0645 0.0
O27 O 0.3462 0.72961 1.00935 0.0
C28 C 0.07344 0.48558 0.94001 0.0
C29 C 0.08332 0.43519 0.9455 0.0
H30 H 0.11822 0.35199 0.96199 0.0
H31 H 0.21991 0.38878 0.99408 0.0
H32 H 0.15595 0.71129 0.95954 0.0
H33 H 0.07014 0.59588 0.9356 0.0
H34 H 0.02944 0.47225 0.92662 0.0
H35 H 0.04669 0.3839 0.93633 0.0
Mn36 Mn 0.72864 0.36341 0.57922 0.0
Mn37 Mn 0.57123 0.28497 0.5851 0.0
C38 C 0.66853 0.24843 0.57298 0.0
C39 C 0.82151 0.4079 0.55237 0.0
C40 C 0.66905 0.35947 0.64501 0.0
O41 O 0.70713 0.43244 0.57105 0.0
O42 O 0.60256 0.37334 0.57564 0.0
C43 C 0.52473 0.26871 0.51559 0.0
N44 N 0.52341 0.24227 0.54244 0.0
C45 C 0.42511 0.14235 0.51955 0.0
C46 C 0.4256 0.168 0.49138 0.0
C47 C 0.47615 0.2311 0.48917 0.0
C48 C 0.47676 0.18046 0.54405 0.0
H49 H 0.56188 0.31849 0.51469 0.0
C50 C 0.65219 0.42529 0.57069 0.0
O51 O 0.82097 0.42782 0.5837 0.0
O52 O 0.76686 0.36391 0.53563 0.0
N53 N 0.53211 0.19838 0.59431 0.0
C54 C 0.54015 0.18048 0.62272 0.0
C55 C 0.49383 0.11889 0.62901 0.0
C56 C 0.43861 0.07774 0.60674 0.0
C57 C 0.43146 0.09729 0.57764 0.0
C58 C 0.48068 0.15771 0.57193 0.0
H59 H 0.58069 0.21378 0.64088 0.0
O60 O 0.72873 0.28175 0.58269 0.0
O61 O 0.64449 0.28311 0.56736 0.0
O62 O 0.71691 0.37803 0.62879 0.0
O63 O 0.61259 0.32525 0.63102 0.0
C64 C 0.37711 0.05977 0.55426 0.0
C65 C 0.3745 0.08166 0.52491 0.0
H66 H 0.38708 0.1401 0.47151 0.0
H67 H 0.47657 0.2515 0.46767 0.0
H68 H 0.49957 0.10426 0.65157 0.0
H69 H 0.4019 0.03145 0.61234 0.0
H70 H 0.33782 1.01322 0.55817 0.0
H71 H 0.33325 0.0516 0.50673 0.0
Mn72 Mn 0.38017 0.65793 0.44764 0.0
Mn73 Mn 0.32483 0.75866 0.4446 0.0
C74 C 0.44978 0.77269 0.45441 0.0
C75 C 0.41767 0.60638 0.47646 0.0
C76 C 0.3236 0.66589 0.38379 0.0
O77 O 0.28592 0.60139 0.45674 0.0
O78 O 0.26137 0.68053 0.46099 0.0
C79 C 0.32629 0.80018 0.51696 0.0
N80 N 0.34272 0.81612 0.48683 0.0
C81 C 0.40277 0.93224 0.51141 0.0
C82 C 0.38642 0.91711 0.54273 0.0
C83 C 0.34786 0.85084 0.54551 0.0
C84 C 0.38009 0.87972 0.48391 0.0
H85 H 0.29839 0.74917 0.51925 0.0
C86 C 0.24825 0.62278 0.4636 0.0
O87 O 0.39638 0.5843 0.44514 0.0
O88 O 0.41202 0.65483 0.49175 0.0
N89 N 0.38303 0.83662 0.42906 0.0
C90 C 0.40226 0.84245 0.39809 0.0
C91 C 0.44096 0.90556 0.39112 0.0
C92 C 0.45937 0.96202 0.416 0.0
C93 C 0.43933 0.95469 0.44768 0.0
C94 C 0.40025 0.89057 0.4531 0.0
H95 H 0.3881 0.79943 0.37874 0.0
O96 O 0.46941 0.7326 0.4445 0.0
O97 O 0.39057 0.74406 0.4587 0.0
O98 O 0.35437 0.64632 0.39819 0.0
O99 O 0.30605 0.70345 0.39958 0.0
C100 C 0.45867 1.00843 0.47446 0.0
C101 C 0.44334 0.997 0.50657 0.0
H102 H 0.40441 0.95573 0.56491 0.0
H103 H 0.33572 0.83882 0.56966 0.0
H104 H 0.45655 0.91067 0.36663 0.0
H105 H 0.48985 1.0107 0.41069 0.0
H106 H 0.48808 0.05869 0.47098 0.0
H107 H 0.46514 0.03839 0.5274 0.0
Mn108 Mn 0.64779 0.33458 0.9422 0.0
Mn109 Mn 0.67002 0.38774 0.02595 0.0
C110 C 0.58783 0.37338 0.96866 0.0
C111 C 0.67041 0.35287 0.8885 0.0
C112 C 0.603 0.24301 0.99226 0.0
O113 O 0.73579 0.35264 0.95446 0.0
O114 O 0.74632 0.39081 1.00999 0.0
C115 C 0.77002 0.5278 0.02965 0.0
N116 N 0.71181 0.48204 0.03657 0.0
C117 C 0.69526 0.56713 0.06555 0.0
C118 C 0.75516 0.61518 0.05887 0.0
C119 C 0.79259 0.5954 0.04074 0.0
C120 C 0.67521 0.50052 0.05378 0.0
H121 H 0.79897 0.51282 0.01575 0.0
C122 C 0.76713 0.37652 0.98329 0.0
O123 O 0.64654 0.29452 0.89517 0.0
O124 O 0.68241 0.401 0.91315 0.0
N125 N 0.59942 0.38801 0.04453 0.0
C126 C 0.54168 0.33556 0.04754 0.0
C127 C 0.49798 0.34688 0.0645 0.0
C128 C 0.51431 0.41187 0.07845 0.0
C129 C 0.57421 0.46503 0.07527 0.0
C130 C 0.61586 0.4507 0.0582 0.0
H131 H 0.52905 0.28548 0.03705 0.0
O132 O 0.56651 0.33375 0.93962 0.0
O133 O 0.64231 0.38767 0.98131 0.0
O134 O 0.60661 0.25175 0.96241 0.0
O135 O 0.62585 0.29045 0.01773 0.0
C136 C 0.59397 0.53169 0.08803 0.0
C137 C 0.65429 0.58271 0.08301 0.0
H138 H 0.7727 0.66737 0.06734 0.0
H139 H 0.83877 0.63219 0.03537 0.0
H140 H 0.45184 0.3056 0.06683 0.0
H141 H 0.48037 0.4204 0.09138 0.0
H142 H 0.56285 0.54432 0.10139 0.0
H143 H 0.66852 0.63379 0.09247 0.0
H144 H 0.28219 0.55792 0.16334 0.0
H145 H 0.37813 0.77036 0.19546 0.0
H146 H 0.27589 0.54686 0.22184 0.0
H147 H 0.37069 0.75898 0.25333 0.0
H148 H 0.26743 0.70696 0.34487 0.0
H149 H 0.26861 0.70246 0.28535 0.0
H150 H 0.35933 0.58955 0.27814 0.0
H151 H 0.35958 0.59483 0.33841 0.0
C152 C 0.30221 0.60214 0.18282 0.0
C153 C 0.33047 0.66501 0.17478 0.0
C154 C 0.29871 0.59575 0.2162 0.0
C155 C 0.32228 0.65203 0.24197 0.0
C156 C 0.35158 0.71476 0.23389 0.0
C157 C 0.35606 0.72122 0.20073 0.0
C158 C 0.28692 0.6802 0.33077 0.0
C159 C 0.31416 0.65193 0.34674 0.0
C160 C 0.28774 0.67796 0.29661 0.0
C161 C 0.31482 0.64648 0.27731 0.0
C162 C 0.33827 0.61424 0.29257 0.0
C163 C 0.33833 0.61729 0.32705 0.0
H164 H 0.76647 0.37373 0.68397 0.0
H165 H 0.59201 0.37248 0.68917 0.0
H166 H 0.77412 0.37937 0.74411 0.0
H167 H 0.60078 0.37991 0.74938 0.0
H168 H 0.67626 0.45223 0.86244 0.0
H169 H 0.68276 0.46323 0.8041 0.0
H170 H 0.69399 0.28823 0.77854 0.0
H171 H 0.68568 0.276 0.83658 0.0
C172 C 0.7306 0.37625 0.69805 0.0
C173 C 0.67861 0.37266 0.68185 0.0
C174 C 0.73483 0.37906 0.73238 0.0
C175 C 0.68801 0.38001 0.75126 0.0
C176 C 0.63768 0.37964 0.73538 0.0
C177 C 0.63262 0.37524 0.70095 0.0
C178 C 0.68078 0.41654 0.84442 0.0
C179 C 0.68028 0.36313 0.854 0.0
C180 C 0.68428 0.42275 0.81109 0.0
C181 C 0.68899 0.37665 0.78695 0.0
C182 C 0.69086 0.32469 0.79675 0.0
C183 C 0.68583 0.31756 0.82989 0.0
H184 H 0.412 0.56591 0.07973 0.0
H185 H 0.49011 0.67262 1.00115 0.0
H186 H 0.45925 0.49943 0.06168 0.0
H187 H 0.53854 0.60758 0.98357 0.0
H188 H 0.65299 0.50564 0.97924 0.0
H189 H 0.61768 0.58058 1.0024 0.0
H190 H 0.43241 0.4128 1.00722 0.0
H191 H 0.46828 0.33749 0.98378 0.0
C192 C 0.44181 0.57714 0.05964 0.0
C193 C 0.44841 0.6247 0.04202 0.0
C194 C 0.46779 0.53846 0.04896 0.0
C195 C 0.50175 0.548 0.02103 0.0
C196 C 0.51266 0.59938 1.00522 0.0
C197 C 0.48558 0.63697 0.01542 0.0
C198 C 0.60466 0.48496 0.98522 0.0
C199 C 0.56347 0.41628 0.98059 0.0
C200 C 0.58452 0.5277 0.99835 0.0
C201 C 0.52277 0.50238 1.00706 0.0
C202 C 0.48073 0.4334 1.0013 0.0
C203 C 0.50081 0.39046 0.9877 0.0
H204 H 0.16785 0.48518 0.45429 0.0
H205 H 0.18716 0.67018 0.5024 0.0
H206 H 0.06224 0.42519 0.47411 0.0
H207 H 0.08464 0.6117 0.52144 0.0
H208 H 0.93843 0.49788 0.58427 0.0
H209 H 0.04009 0.53902 0.56276 0.0
H210 H 0.9482 0.41495 0.4662 0.0
H211 H 0.84454 0.37212 0.48813 0.0
C212 C 0.15022 0.51296 0.46925 0.0
C213 C 0.18655 0.58264 0.47678 0.0
C214 C 0.08961 0.47875 0.48027 0.0
C215 C 0.06516 0.51377 0.49949 0.0
C216 C 0.10205 0.58302 0.50709 0.0
C217 C 0.16129 0.61667 0.49598 0.0
C218 C 0.9393 0.47895 0.55842 0.0
C219 C 0.88289 0.43232 0.53783 0.0
C220 C 0.99791 0.5025 0.54611 0.0
C221 C 1.0024 0.48055 0.51272 0.0
C222 C 0.94632 0.43245 0.49211 0.0
C223 C 0.887 0.4086 0.50455 0.0
H224 H 0.52046 0.12797 0.94827 0.0
H225 H 0.61095 0.20302 0.04932 0.0
H226 H 0.46378 0.01609 0.95858 0.0
H227 H 0.55657 0.09116 0.05924 0.0
H228 H 0.40141 0.89291 0.07788 0.0
H229 H 0.4568 1.00446 0.06726 0.0
H230 H 0.47533 0.92852 0.96699 0.0
H231 H 0.41759 0.81681 0.97721 0.0
C232 C 0.52881 0.12052 0.97257 0.0
C233 C 0.57011 0.17452 0.99797 0.0
C234 C 0.49652 0.05624 0.97847 0.0
C235 C 0.50536 0.04428 1.0098 0.0
C236 C 0.54743 0.09837 0.03502 0.0
C237 C 0.57904 0.16264 0.02925 0.0
C238 C 0.41737 0.90005 0.05358 0.0
C239 C 0.40495 0.84586 0.02841 0.0
C240 C 0.44951 0.96417 0.0475 0.0
C241 C 0.47079 0.97584 0.01623 0.0
C242 C 0.45874 0.92153 0.99117 0.0
C243 C 0.42591 0.85737 0.99711 0.0
H244 H 0.5946 0.48153 0.60587 0.0
H245 H 0.67681 0.47502 0.51393 0.0
H246 H 0.54157 0.53073 0.58405 0.0
H247 H 0.62413 0.52529 0.49182 0.0
H248 H 0.44506 0.51295 0.44872 0.0
H249 H 0.51396 0.48341 0.47317 0.0
H250 H 0.54606 0.62159 0.56466 0.0
H251 H 0.47628 0.65042 0.5403 0.0
C252 C 0.60354 0.49348 0.58145 0.0
C253 C 0.64069 0.47545 0.56181 0.0
C254 C 0.57274 0.52132 0.5688 0.0
C255 C 0.57762 0.53119 0.53593 0.0
C256 C 0.61844 0.51739 0.51706 0.0
C257 C 0.64979 0.48991 0.52991 0.0
C258 C 0.46631 0.53664 0.47417 0.0
C259 C 0.45457 0.58371 0.4926 0.0
C260 C 0.50668 0.52039 0.48806 0.0
C261 C 0.53644 0.55065 0.52082 0.0
C262 C 0.52391 0.59704 0.53942 0.0
C263 C 0.48363 0.61343 0.52548 0.0
H264 H 0.14291 0.68338 0.04357 0.0
H265 H 0.15774 0.5144 0.04844 0.0
H266 H 0.03156 0.60876 0.02024 0.0
H267 H 0.04713 0.44007 0.02547 0.0
H268 H 0.82766 0.35195 0.028 0.0
H269 H 0.94133 0.41582 0.04517 0.0
H270 H 0.97109 0.52084 0.96561 0.0
H271 H 0.85712 0.45553 0.94796 0.0
C272 C 0.12206 0.63036 0.03971 0.0
C273 C 0.15846 0.60409 0.04687 0.0
C274 C 0.05894 0.58782 0.02618 0.0
C275 C 0.03141 0.5188 0.02061 0.0
C276 C 0.06739 0.49301 0.02935 0.0
C277 C 0.13044 0.53538 0.04237 0.0
C278 C 0.85894 0.38675 1.01339 0.0
C279 C 0.83426 0.39851 0.98649 0.0
C280 C 0.92373 0.42358 0.02333 0.0
C281 C 0.96455 0.47371 1.00694 0.0
C282 C 0.9403 0.48275 0.97876 0.0
C283 C 0.87548 0.44479 0.96835 0.0
H284 H 0.65016 0.14701 0.60178 0.0
H285 H 0.62576 0.19296 0.5083 0.0
H286 H 0.612 0.03276 0.57366 0.0
H287 H 0.59206 0.08106 0.47963 0.0
H288 H 0.54126 0.87791 0.42968 0.0
H289 H 0.60514 0.9936 0.4596 0.0
H290 H 0.52104 0.93575 0.54937 0.0
H291 H 0.45962 0.82153 0.51961 0.0
C292 C 0.63557 0.13208 0.57525 0.0
C293 C 0.63822 0.17768 0.55737 0.0
C294 C 0.61417 0.0668 0.55897 0.0
C295 C 0.59704 0.04629 0.5242 0.0
C296 C 0.60324 0.09372 0.50636 0.0
C297 C 0.62184 0.1579 0.52282 0.0
C298 C 0.53762 0.89037 0.45593 0.0
C299 C 0.49435 0.8415 0.47218 0.0
C300 C 0.57379 0.95666 0.47314 0.0
C301 C 0.56774 0.97506 0.507 0.0
C302 C 0.52791 0.92448 0.52357 0.0
C303 C 0.49177 0.85876 0.50637 0.0
loop_
_geom_bond_atom_site_label_1
_geom_bond_atom_site_label_2
_geom_bond_distance
_geom_bond_site_symmetry_2
_ccdc_geom_bond_type
Mn0 O5 2.095 . S
Mn0 O15 2.162 . S
Mn0 O16 2.297 . S
Mn0 O24 2.385 . S
Mn0 O25 2.209 . S
Mn0 O26 2.094 . S
Mn1 O6 2.121 1_556 S
Mn1 N8 2.257 . S
Mn1 N17 2.282 . S
Mn1 O25 2.215 1_556 S
Mn1 O27 2.117 1_556 S
C2 O24 1.234 . S
C2 O25 1.283 . S
C3 O15 1.281 . S
C3 O16 1.236 . S
C4 O26 1.240 . S
C4 O27 1.264 . S
O5 Mn0 2.095 . S
O5 C14 1.250 . S
O6 Mn1 2.121 1_554 S
O6 C14 1.258 . S
C7 N8 1.326 . S
C7 C11 1.460 . S
C7 H13 0.929 . S
N8 Mn1 2.257 . S
N8 C7 1.326 . S
N8 C12 1.362 . S
C9 C10 1.258 . S
C9 C12 1.431 . S
C9 C29 1.449 . S
C10 C9 1.258 . S
C10 C11 1.477 . S
C10 H30 0.931 . S
C11 C7 1.460 . S
C11 C10 1.477 . S
C11 H31 0.930 . S
C12 N8 1.362 . S
C12 C9 1.431 . S
C12 C22 1.476 . S
H13 C7 0.929 . S
C14 O5 1.250 . S
C14 O6 1.258 . S
O15 Mn0 2.162 . S
O15 C3 1.281 . S
O16 Mn0 2.297 . S
O16 C3 1.236 . S
N17 Mn1 2.282 . S
N17 C18 1.328 . S
N17 C22 1.318 . S
C18 N17 1.328 . S
C18 C19 1.457 . S
C18 H23 0.929 . S
C19 C18 1.457 . S
C19 C20 1.291 . S
C19 H32 0.931 . S
C20 C19 1.291 . S
C20 C21 1.373 . S
C20 H33 0.929 . S
C21 C20 1.373 . S
C21 C22 1.396 . S
C21 C28 1.403 . S
C22 C12 1.476 . S
C22 N17 1.318 . S
C22 C21 1.396 . S
H23 C18 0.929 . S
O24 Mn0 2.385 . S
O24 C2 1.234 . S
O25 Mn0 2.209 . S
O25 Mn1 2.215 1_554 S
O25 C2 1.283 . S
O26 Mn0 2.094 . S
O26 C4 1.240 . S
O27 Mn1 2.117 1_554 S
O27 C4 1.264 . S
C28 C21 1.403 . S
C28 C29 1.399 . S
C28 H34 0.929 . S
C29 C9 1.449 . S
C29 C28 1.399 . S
C29 H35 0.930 . S
H30 C10 0.931 . S
H31 C11 0.930 . S
H32 C19 0.931 . S
H33 C20 0.929 . S
H34 C28 0.929 . S
H35 C29 0.930 . S
Mn36 O41 2.095 . S
Mn36 O51 2.162 . S
Mn36 O52 2.297 . S
Mn36 O60 2.385 . S
Mn36 O61 2.209 . S
Mn36 O62 2.094 . S
Mn37 O42 2.121 . S
Mn37 N44 2.257 . S
Mn37 N53 2.282 . S
Mn37 O61 2.215 . S
Mn37 O63 2.117 . S
C38 O60 1.234 . S
C38 O61 1.283 . S
C39 O51 1.281 . S
C39 O52 1.236 . S
C40 O62 1.240 . S
C40 O63 1.264 . S
O41 Mn36 2.095 . S
O41 C50 1.250 . S
O42 Mn37 2.121 . S
O42 C50 1.258 . S
C43 N44 1.326 . S
C43 C47 1.460 . S
C43 H49 0.929 . S
N44 Mn37 2.257 . S
N44 C43 1.326 . S
N44 C48 1.362 . S
C45 C46 1.258 . S
C45 C48 1.431 . S
C45 C65 1.449 . S
C46 C45 1.258 . S
C46 C47 1.477 . S
C46 H66 0.931 . S
C47 C43 1.460 . S
C47 C46 1.477 . S
C47 H67 0.930 . S
C48 N44 1.362 . S
C48 C45 1.431 . S
C48 C58 1.476 . S
H49 C43 0.929 . S
C50 O41 1.250 . S
C50 O42 1.258 . S
O51 Mn36 2.162 . S
O51 C39 1.281 . S
O52 Mn36 2.297 . S
O52 C39 1.236 . S
N53 Mn37 2.282 . S
N53 C54 1.328 . S
N53 C58 1.318 . S
C54 N53 1.328 . S
C54 C55 1.457 . S
C54 H59 0.929 . S
C55 C54 1.457 . S
C55 C56 1.291 . S
C55 H68 0.931 . S
C56 C55 1.291 . S
C56 C57 1.373 . S
C56 H69 0.929 . S
C57 C56 1.373 . S
C57 C58 1.396 . S
C57 C64 1.403 . S
C58 C48 1.476 . S
C58 N53 1.318 . S
C58 C57 1.396 . S
H59 C54 0.929 . S
O60 Mn36 2.385 . S
O60 C38 1.234 . S
O61 Mn36 2.209 . S
O61 Mn37 2.215 . S
O61 C38 1.283 . S
O62 Mn36 2.094 . S
O62 C40 1.240 . S
O63 Mn37 2.117 . S
O63 C40 1.264 . S
C64 C57 1.403 . S
C64 C65 1.399 . S
C64 H70 0.929 1_545 S
C65 C45 1.449 . S
C65 C64 1.399 . S
C65 H71 0.930 1_545 S
H66 C46 0.931 . S
H67 C47 0.930 . S
H68 C55 0.931 . S
H69 C56 0.929 . S
H70 C64 0.929 1_565 S
H71 C65 0.930 1_565 S
Mn72 O77 2.095 . S
Mn72 O87 2.162 . S
Mn72 O88 2.297 . S
Mn72 O96 2.385 . S
Mn72 O97 2.209 . S
Mn72 O98 2.094 . S
Mn73 O78 2.121 . S
Mn73 N80 2.257 . S
Mn73 N89 2.282 . S
Mn73 O97 2.215 . S
Mn73 O99 2.117 . S
C74 O96 1.234 . S
C74 O97 1.283 . S
C75 O87 1.281 . S
C75 O88 1.236 . S
C76 O98 1.240 . S
C76 O99 1.264 . S
O77 Mn72 2.095 . S
O77 C86 1.250 . S
O78 Mn73 2.121 . S
O78 C86 1.258 . S
C79 N80 1.326 . S
C79 C83 1.460 . S
C79 H85 0.929 . S
N80 Mn73 2.257 . S
N80 C79 1.326 . S
N80 C84 1.362 . S
C81 C82 1.258 . S
C81 C84 1.431 . S
C81 C101 1.449 . S
C82 C81 1.258 . S
C82 C83 1.477 . S
C82 H102 0.931 . S
C83 C79 1.460 . S
C83 C82 1.477 . S
C83 H103 0.930 . S
C84 N80 1.362 . S
C84 C81 1.431 . S
C84 C94 1.476 . S
H85 C79 0.929 . S
C86 O77 1.250 . S
C86 O78 1.258 . S
O87 Mn72 2.162 . S
O87 C75 1.281 . S
O88 Mn72 2.297 . S
O88 C75 1.236 . S
N89 Mn73 2.282 . S
N89 C90 1.328 . S
N89 C94 1.318 . S
C90 N89 1.328 . S
C90 C91 1.457 . S
C90 H95 0.929 . S
C91 C90 1.457 . S
C91 C92 1.291 . S
C91 H104 0.931 . S
C92 C91 1.291 . S
C92 C93 1.373 . S
C92 H105 0.929 . S
C93 C92 1.373 . S
C93 C94 1.396 . S
C93 C100 1.403 . S
C94 C84 1.476 . S
C94 N89 1.318 . S
C94 C93 1.396 . S
H95 C90 0.929 . S
O96 Mn72 2.385 . S
O96 C74 1.234 . S
O97 Mn72 2.209 . S
O97 Mn73 2.215 . S
O97 C74 1.283 . S
O98 Mn72 2.094 . S
O98 C76 1.240 . S
O99 Mn73 2.117 . S
O99 C76 1.264 . S
C100 C93 1.403 . S
C100 C101 1.399 . S
C100 H106 0.929 1_565 S
C101 C81 1.449 . S
C101 C100 1.399 . S
C101 H107 0.930 1_565 S
H102 C82 0.931 . S
H103 C83 0.930 . S
H104 C91 0.931 . S
H105 C92 0.929 . S
H106 C100 0.929 1_545 S
H107 C101 0.930 1_545 S
Mn108 O113 2.095 . S
Mn108 O123 2.162 . S
Mn108 O124 2.297 . S
Mn108 O132 2.385 . S
Mn108 O133 2.209 . S
Mn108 O134 2.094 . S
Mn109 O114 2.121 1_554 S
Mn109 N116 2.257 . S
Mn109 N125 2.282 . S
Mn109 O133 2.215 1_554 S
Mn109 O135 2.117 1_554 S
C110 O132 1.234 . S
C110 O133 1.283 . S
C111 O123 1.281 . S
C111 O124 1.236 . S
C112 O134 1.240 . S
C112 O135 1.264 . S
O113 Mn108 2.095 . S
O113 C122 1.250 . S
O114 Mn109 2.121 1_556 S
O114 C122 1.258 . S
C115 N116 1.326 . S
C115 C119 1.460 . S
C115 H121 0.929 . S
N116 Mn109 2.257 . S
N116 C115 1.326 . S
N116 C120 1.362 . S
C117 C118 1.258 . S
C117 C120 1.431 . S
C117 C137 1.449 . S
C118 C117 1.258 . S
C118 C119 1.477 . S
C118 H138 0.931 . S
C119 C115 1.460 . S
C119 C118 1.477 . S
C119 H139 0.930 . S
C120 N116 1.362 . S
C120 C117 1.431 . S
C120 C130 1.476 . S
H121 C115 0.929 . S
C122 O113 1.250 . S
C122 O114 1.258 . S
O123 Mn108 2.162 . S
O123 C111 1.281 . S
O124 Mn108 2.297 . S
O124 C111 1.236 . S
N125 Mn109 2.282 . S
N125 C126 1.328 . S
N125 C130 1.318 . S
C126 N125 1.328 . S
C126 C127 1.457 . S
C126 H131 0.929 . S
C127 C126 1.457 . S
C127 C128 1.291 . S
C127 H140 0.931 . S
C128 C127 1.291 . S
C128 C129 1.373 . S
C128 H141 0.929 . S
C129 C128 1.373 . S
C129 C130 1.396 . S
C129 C136 1.403 . S
C130 C120 1.476 . S
C130 N125 1.318 . S
C130 C129 1.396 . S
H131 C126 0.929 . S
O132 Mn108 2.385 . S
O132 C110 1.234 . S
O133 Mn108 2.209 . S
O133 Mn109 2.215 1_556 S
O133 C110 1.283 . S
O134 Mn108 2.094 . S
O134 C112 1.240 . S
O135 Mn109 2.117 1_556 S
O135 C112 1.264 . S
C136 C129 1.403 . S
C136 C137 1.399 . S
C136 H142 0.929 . S
C137 C117 1.449 . S
C137 C136 1.399 . S
C137 H143 0.930 . S
H138 C118 0.931 . S
H139 C119 0.930 . S
H140 C127 0.931 . S
H141 C128 0.929 . S
H142 C136 0.929 . S
H143 C137 0.930 . S
H144 C152 0.950 . S
H145 C157 0.950 . S
H146 C154 0.950 . S
H147 C156 0.950 . S
H148 C158 0.950 . S
H149 C160 0.950 . S
H150 C162 0.950 . S
H151 C163 0.950 . S
C152 H144 0.950 . S
C152 C153 1.386 . S
C152 C154 1.391 . S
C153 C152 1.386 . S
C153 C157 1.393 . S
C154 H146 0.950 . S
C154 C152 1.391 . S
C154 C155 1.400 . S
C155 C154 1.400 . S
C155 C156 1.398 . S
C155 C161 1.491 . S
C156 H147 0.950 . S
C156 C155 1.398 . S
C156 C157 1.391 . S
C157 H145 0.950 . S
C157 C153 1.393 . S
C157 C156 1.391 . S
C158 H148 0.950 . S
C158 C159 1.386 . S
C158 C160 1.391 . S
C159 C158 1.386 . S
C159 C163 1.393 . S
C160 H149 0.950 . S
C160 C158 1.391 . S
C160 C161 1.400 . S
C161 C155 1.491 . S
C161 C160 1.400 . S
C161 C162 1.398 . S
C162 H150 0.950 . S
C162 C161 1.398 . S
C162 C163 1.391 . S
C163 H151 0.950 . S
C163 C159 1.393 . S
C163 C162 1.391 . S
H164 C172 0.950 . S
H165 C177 0.950 . S
H166 C174 0.950 . S
H167 C176 0.950 . S
H168 C178 0.950 . S
H169 C180 0.950 . S
H170 C182 0.950 . S
H171 C183 0.950 . S
C172 H164 0.950 . S
C172 C173 1.386 . S
C172 C174 1.391 . S
C173 C172 1.386 . S
C173 C177 1.393 . S
C174 H166 0.950 . S
C174 C172 1.391 . S
C174 C175 1.400 . S
C175 C174 1.400 . S
C175 C176 1.398 . S
C175 C181 1.491 . S
C176 H167 0.950 . S
C176 C175 1.398 . S
C176 C177 1.391 . S
C177 H165 0.950 . S
C177 C173 1.393 . S
C177 C176 1.391 . S
C178 H168 0.950 . S
C178 C179 1.386 . S
C178 C180 1.391 . S
C179 C178 1.386 . S
C179 C183 1.393 . S
C180 H169 0.950 . S
C180 C178 1.391 . S
C180 C181 1.400 . S
C181 C175 1.491 . S
C181 C180 1.400 . S
C181 C182 1.398 . S
C182 H170 0.950 . S
C182 C181 1.398 . S
C182 C183 1.391 . S
C183 H171 0.950 . S
C183 C179 1.393 . S
C183 C182 1.391 . S
H184 C192 0.950 . S
H185 C197 0.949 1_556 S
H186 C194 0.950 . S
H187 C196 0.950 . S
H188 C198 0.950 . S
H189 C200 0.950 . S
H190 C202 0.950 1_554 S
H191 C203 0.950 . S
C192 H184 0.950 . S
C192 C193 1.386 . S
C192 C194 1.391 . S
C193 C192 1.386 . S
C193 C197 1.393 . S
C194 H186 0.950 . S
C194 C192 1.391 . S
C194 C195 1.400 . S
C195 C194 1.400 . S
C195 C196 1.398 1_554 S
C195 C201 1.491 1_554 S
C196 H187 0.950 . S
C196 C195 1.398 1_556 S
C196 C197 1.391 1_556 S
C197 H185 0.949 1_554 S
C197 C193 1.393 . S
C197 C196 1.391 1_554 S
C198 H188 0.950 . S
C198 C199 1.386 . S
C198 C200 1.391 . S
C199 C198 1.386 . S
C199 C203 1.393 . S
C200 H189 0.950 . S
C200 C198 1.391 . S
C200 C201 1.400 . S
C201 C195 1.491 1_556 S
C201 C200 1.400 . S
C201 C202 1.398 . S
C202 H190 0.950 1_556 S
C202 C201 1.398 . S
C202 C203 1.391 . S
C203 H191 0.950 . S
C203 C199 1.393 . S
C203 C202 1.391 . S
H204 C212 0.950 . S
H205 C217 0.950 . S
H206 C214 0.950 . S
H207 C216 0.950 . S
H208 C218 0.950 . S
H209 C220 0.950 1_455 S
H210 C222 0.950 . S
H211 C223 0.950 . S
C212 H204 0.950 . S
C212 C213 1.386 . S
C212 C214 1.391 . S
C213 C212 1.386 . S
C213 C217 1.393 . S
C214 H206 0.950 . S
C214 C212 1.391 . S
C214 C215 1.400 . S
C215 C214 1.400 . S
C215 C216 1.398 . S
C215 C221 1.491 . S
C216 H207 0.950 . S
C216 C215 1.398 . S
C216 C217 1.391 . S
C217 H205 0.950 . S
C217 C213 1.393 . S
C217 C216 1.391 . S
C218 H208 0.950 . S
C218 C219 1.386 . S
C218 C220 1.391 . S
C219 C218 1.386 . S
C219 C223 1.393 . S
C220 H209 0.950 1_655 S
C220 C218 1.391 . S
C220 C221 1.400 1_655 S
C221 C215 1.491 . S
C221 C220 1.400 1_455 S
C221 C222 1.398 1_455 S
C222 H210 0.950 . S
C222 C221 1.398 1_655 S
C222 C223 1.391 . S
C223 H211 0.950 . S
C223 C219 1.393 . S
C223 C222 1.391 . S
H224 C232 0.950 . S
H225 C237 0.950 . S
H226 C234 0.950 . S
H227 C236 0.950 . S
H228 C238 0.950 . S
H229 C240 0.950 . S
H230 C242 0.950 . S
H231 C243 0.950 . S
C232 H224 0.950 . S
C232 C233 1.386 . S
C232 C234 1.391 . S
C233 C232 1.386 . S
C233 C237 1.393 1_556 S
C234 H226 0.950 . S
C234 C232 1.391 . S
C234 C235 1.400 . S
C235 C234 1.400 . S
C235 C236 1.398 1_556 S
C235 C241 1.491 1_546 S
C236 H227 0.950 . S
C236 C235 1.398 1_554 S
C236 C237 1.391 . S
C237 H225 0.950 . S
C237 C233 1.393 1_554 S
C237 C236 1.391 . S
C238 H228 0.950 . S
C238 C239 1.386 . S
C238 C240 1.391 . S
C239 C238 1.386 . S
C239 C243 1.393 1_554 S
C240 H229 0.950 . S
C240 C238 1.391 . S
C240 C241 1.400 . S
C241 C235 1.491 1_564 S
C241 C240 1.400 . S
C241 C242 1.398 1_554 S
C242 H230 0.950 . S
C242 C241 1.398 1_556 S
C242 C243 1.391 . S
C243 H231 0.950 . S
C243 C239 1.393 1_556 S
C243 C242 1.391 . S
H244 C252 0.950 . S
H245 C257 0.950 . S
H246 C254 0.950 . S
H247 C256 0.950 . S
H248 C258 0.950 . S
H249 C260 0.950 . S
H250 C262 0.950 . S
H251 C263 0.950 . S
C252 H244 0.950 . S
C252 C253 1.386 . S
C252 C254 1.391 . S
C253 C252 1.386 . S
C253 C257 1.393 . S
C254 H246 0.950 . S
C254 C252 1.391 . S
C254 C255 1.400 . S
C255 C254 1.400 . S
C255 C256 1.398 . S
C255 C261 1.491 . S
C256 H247 0.950 . S
C256 C255 1.398 . S
C256 C257 1.391 . S
C257 H245 0.950 . S
C257 C253 1.393 . S
C257 C256 1.391 . S
C258 H248 0.950 . S
C258 C259 1.386 . S
C258 C260 1.391 . S
C259 C258 1.386 . S
C259 C263 1.393 . S
C260 H249 0.950 . S
C260 C258 1.391 . S
C260 C261 1.400 . S
C261 C255 1.491 . S
C261 C260 1.400 . S
C261 C262 1.398 . S
C262 H250 0.950 . S
C262 C261 1.398 . S
C262 C263 1.391 . S
C263 H251 0.950 . S
C263 C259 1.393 . S
C263 C262 1.391 . S
H264 C272 0.950 1_556 S
H265 C277 0.950 . S
H266 C274 0.950 . S
H267 C276 0.950 1_655 S
H268 C278 0.955 . S
H269 C280 0.950 . S
H270 C282 0.950 . S
H271 C283 0.950 . S
C272 H264 0.950 1_554 S
C272 C273 1.386 . S
C272 C274 1.391 1_554 S
C273 C272 1.386 . S
C273 C277 1.393 . S
C274 H266 0.950 . S
C274 C272 1.391 1_556 S
C274 C275 1.397 1_456 S
C275 C274 1.397 1_654 S
C275 C276 1.395 1_655 S
C275 C281 1.496 1_554 S
C276 H267 0.950 1_455 S
C276 C275 1.395 1_455 S
C276 C277 1.391 . S
C277 H265 0.950 . S
C277 C273 1.393 . S
C277 C276 1.391 . S
C278 H268 0.955 . S
C278 C279 1.379 1_554 S
C278 C280 1.393 . S
C279 C278 1.379 1_556 S
C279 C283 1.393 . S
C280 H269 0.950 . S
C280 C278 1.393 . S
C280 C281 1.400 1_554 S
C281 C275 1.496 1_556 S
C281 C280 1.400 1_556 S
C281 C282 1.398 . S
C282 H270 0.950 . S
C282 C281 1.398 . S
C282 C283 1.391 . S
C283 H271 0.950 . S
C283 C279 1.393 . S
C283 C282 1.391 . S
H284 C292 0.950 . S
H285 C297 0.950 . S
H286 C294 0.950 . S
H287 C296 0.950 . S
H288 C298 0.950 . S
H289 C300 0.950 . S
H290 C302 0.950 . S
H291 C303 0.950 . S
C292 H284 0.950 . S
C292 C293 1.386 . S
C292 C294 1.391 . S
C293 C292 1.386 . S
C293 C297 1.393 . S
C294 H286 0.950 . S
C294 C292 1.391 . S
C294 C295 1.400 . S
C295 C294 1.400 . S
C295 C296 1.398 . S
C295 C301 1.491 1_545 S
C296 H287 0.950 . S
C296 C295 1.398 . S
C296 C297 1.391 . S
C297 H285 0.950 . S
C297 C293 1.393 . S
C297 C296 1.391 . S
C298 H288 0.950 . S
C298 C299 1.386 . S
C298 C300 1.391 . S
C299 C298 1.386 . S
C299 C303 1.393 . S
C300 H289 0.950 . S
C300 C298 1.391 . S
C300 C301 1.400 . S
C301 C295 1.491 1_565 S
C301 C300 1.400 . S
C301 C302 1.398 . S
C302 H290 0.950 . S
C302 C301 1.398 . S
C302 C303 1.391 . S
C303 H291 0.950 . S
C303 C299 1.393 . S
C303 C302 1.391 . S
C153 C3 1.515 . S
C159 C76 1.521 . S
C173 C40 1.520 . S
C179 C111 1.519 . S
C193 C14 1.367 . S
C199 C110 1.423 . S
C213 C86 1.546 . S
C219 C39 1.618 . S
C233 C112 1.675 . S
C239 C4 1.673 . S
C253 C50 1.553 . S
C259 C75 1.614 . S
C273 C2 1.424 . S
C279 C122 1.373 . S
C293 C38 1.352 . S
C299 C74 1.350 . S
