# Generated by pormake.
# Topology umz, (4)-cn, num edge types: 1
# Building blocks:
#     Node 0, Type 0, BuildingBlock: AZAVOO_clean_sbu_0, # of connection points: 4
#     Node 1, Type 0, BuildingBlock: AZAVOO_clean_sbu_0, # of connection points: 4
#     Node 2, Type 0, BuildingBlock: AZAVOO_clean_sbu_0, # of connection points: 4
#     Node 3, Type 0, BuildingBlock: AZAVOO_clean_sbu_0, # of connection points: 4
#     Node 4, Type 0, BuildingBlock: AZAVOO_clean_sbu_0, # of connection points: 4
#     Node 5, Type 0, BuildingBlock: AZAVOO_clean_sbu_0, # of connection points: 4
#     Node 6, Type 0, BuildingBlock: AZAVOO_clean_sbu_0, # of connection points: 4
#     Node 7, Type 0, BuildingBlock: AZAVOO_clean_sbu_0, # of connection points: 4
#     Node 8, Type 0, BuildingBlock: AZAVOO_clean_sbu_0, # of connection points: 4
#     Node 9, Type 0, BuildingBlock: AZAVOO_clean_sbu_0, # of connection points: 4
#     Node 10, Type 0, BuildingBlock: AZAVOO_clean_sbu_0, # of connection points: 4
#     Node 11, Type 0, BuildingBlock: AZAVOO_clean_sbu_0, # of connection points: 4
#     Node 12, Type 0, BuildingBlock: AZAVOO_clean_sbu_0, # of connection points: 4
#     Node 13, Type 0, BuildingBlock: AZAVOO_clean_sbu_0, # of connection points: 4
#     Node 14, Type 0, BuildingBlock: AZAVOO_clean_sbu_0, # of connection points: 4
#     Node 15, Type 0, BuildingBlock: AZAVOO_clean_sbu_0, # of connection points: 4
#     Edge 16, Type (0, 0), BuildingBlock: XIVTED_clean_linker_0, # of connection points: 2
#     Edge 17, Type (0, 0), BuildingBlock: XIVTED_clean_linker_0, # of connection points: 2
#     Edge 18, Type (0, 0), BuildingBlock: XIVTED_clean_linker_0, # of connection points: 2
#     Edge 19, Type (0, 0), BuildingBlock: XIVTED_clean_linker_0, # of connection points: 2
#     Edge 20, Type (0, 0), BuildingBlock: XIVTED_clean_linker_0, # of connection points: 2
#     Edge 21, Type (0, 0), BuildingBlock: XIVTED_clean_linker_0, # of connection points: 2
#     Edge 22, Type (0, 0), BuildingBlock: XIVTED_clean_linker_0, # of connection points: 2
#     Edge 23, Type (0, 0), BuildingBlock: XIVTED_clean_linker_0, # of connection points: 2
#     Edge 24, Type (0, 0), BuildingBlock: XIVTED_clean_linker_0, # of connection points: 2
#     Edge 25, Type (0, 0), BuildingBlock: XIVTED_clean_linker_0, # of connection points: 2
#     Edge 26, Type (0, 0), BuildingBlock: XIVTED_clean_linker_0, # of connection points: 2
#     Edge 27, Type (0, 0), BuildingBlock: XIVTED_clean_linker_0, # of connection points: 2
#     Edge 28, Type (0, 0), BuildingBlock: XIVTED_clean_linker_0, # of connection points: 2
#     Edge 29, Type (0, 0), BuildingBlock: XIVTED_clean_linker_0, # of connection points: 2
#     Edge 30, Type (0, 0), BuildingBlock: XIVTED_clean_linker_0, # of connection points: 2
#     Edge 31, Type (0, 0), BuildingBlock: XIVTED_clean_linker_0, # of connection points: 2
#     Edge 32, Type (0, 0), BuildingBlock: XIVTED_clean_linker_0, # of connection points: 2
#     Edge 33, Type (0, 0), BuildingBlock: XIVTED_clean_linker_0, # of connection points: 2
#     Edge 34, Type (0, 0), BuildingBlock: XIVTED_clean_linker_0, # of connection points: 2
#     Edge 35, Type (0, 0), BuildingBlock: XIVTED_clean_linker_0, # of connection points: 2
#     Edge 36, Type (0, 0), BuildingBlock: XIVTED_clean_linker_0, # of connection points: 2
#     Edge 37, Type (0, 0), BuildingBlock: XIVTED_clean_linker_0, # of connection points: 2
#     Edge 38, Type (0, 0), BuildingBlock: XIVTED_clean_linker_0, # of connection points: 2
#     Edge 39, Type (0, 0), BuildingBlock: XIVTED_clean_linker_0, # of connection points: 2
#     Edge 40, Type (0, 0), BuildingBlock: XIVTED_clean_linker_0, # of connection points: 2
#     Edge 41, Type (0, 0), BuildingBlock: XIVTED_clean_linker_0, # of connection points: 2
#     Edge 42, Type (0, 0), BuildingBlock: XIVTED_clean_linker_0, # of connection points: 2
#     Edge 43, Type (0, 0), BuildingBlock: XIVTED_clean_linker_0, # of connection points: 2
#     Edge 44, Type (0, 0), BuildingBlock: XIVTED_clean_linker_0, # of connection points: 2
#     Edge 45, Type (0, 0), BuildingBlock: XIVTED_clean_linker_0, # of connection points: 2
#     Edge 46, Type (0, 0), BuildingBlock: XIVTED_clean_linker_0, # of connection points: 2
#     Edge 47, Type (0, 0), BuildingBlock: XIVTED_clean_linker_0, # of connection points: 2
# Relax obj value: 0.268
# Max RMSD: 0.180
# Mean RMSD: 0.180
data_MOF--net-umz--node1-AZAVOO_clean_sbu_0--edge1-XIVTED_clean_linker_0
_symmetry_space_group_name_H-M    P1
_symmetry_Int_Tables_number       1
_symmetry_cell_setting            triclinic
loop_
_symmetry_equiv_pos_as_xyz
'x, y, z'
_cell_length_a     60.836295
_cell_length_b     60.849166
_cell_length_c     20.337808
_cell_angle_alpha  90.01927
_cell_angle_beta   90.01508
_cell_angle_gamma 90.020243
loop_
_atom_site_label
_atom_site_type_symbol
_atom_site_fract_x
_atom_site_fract_y
_atom_site_fract_z
_atom_type_partial_charge
Mg0 Mg 0.98531 0.61841 0.91817 0.0
O1 O 0.01229 0.603 0.98013 0.0
O2 O 0.04521 0.60914 0.93608 0.0
Mg3 Mg 0.03907 0.63034 0.84435 0.0
C4 C 0.03306 0.60059 0.98038 0.0
C5 C 0.9525 0.59466 0.01722 0.0
O6 O 0.9526 0.57933 0.97173 0.0
O7 O 0.99342 0.65323 0.95452 0.0
O8 O 0.02588 0.65897 0.90575 0.0
O9 O 0.98581 0.58766 0.85481 0.0
O10 O 0.00532 0.61743 0.83493 0.0
C11 C 0.00997 0.66548 0.94177 0.0
C12 C 0.0005 0.59759 0.81954 0.0
O13 O 0.96296 0.61243 0.00716 0.0
Mg14 Mg 0.87697 0.98837 0.44146 0.0
O15 O 0.89149 0.01482 0.5076 0.0
O16 O 0.8842 0.04809 0.46769 0.0
Mg17 Mg 0.86332 0.04275 0.37488 0.0
C18 C 0.89315 0.03564 0.51053 0.0
C19 C 0.9006 0.95254 0.53135 0.0
O20 O 0.91444 0.95157 0.48185 0.0
O21 O 0.84183 0.99468 0.47857 0.0
O22 O 0.83512 0.02757 0.43371 0.0
O23 O 0.90773 0.99087 0.37862 0.0
O24 O 0.87737 0.00969 0.36112 0.0
C25 C 0.82905 0.01096 0.46755 0.0
C26 C 0.89737 0.00576 0.34532 0.0
O27 O 0.88375 0.9648 0.52685 0.0
Mg28 Mg 0.51364 0.8762 0.94355 0.0
O29 O 0.48758 0.89266 0.00687 0.0
O30 O 0.45423 0.88656 0.96567 0.0
Mg31 Mg 0.45905 0.8645 0.87506 0.0
C32 C 0.46684 0.89535 0.00841 0.0
C33 C 0.54731 0.90062 0.03749 0.0
O34 O 0.54642 0.91558 0.99102 0.0
O35 O 0.50541 0.84181 0.98302 0.0
O36 O 0.47246 0.83614 0.93704 0.0
O37 O 0.51304 0.90632 0.87767 0.0
O38 O 0.49289 0.8767 0.86192 0.0
C39 C 0.48861 0.82968 0.97222 0.0
C40 C 0.49792 0.89627 0.84434 0.0
O41 O 0.53698 0.88264 0.02979 0.0
Mg42 Mg 0.62506 0.51582 0.44748 0.0
O43 O 0.61016 0.48967 0.51369 0.0
O44 O 0.61683 0.45624 0.47409 0.0
Mg45 Mg 0.63777 0.46117 0.38119 0.0
C46 C 0.60812 0.46889 0.51682 0.0
C47 C 0.60064 0.54995 0.5397 0.0
O48 O 0.58597 0.54924 0.49232 0.0
O49 O 0.66012 0.50901 0.48436 0.0
O50 O 0.6663 0.47599 0.43958 0.0
O51 O 0.59425 0.51378 0.38474 0.0
O52 O 0.62429 0.49448 0.36712 0.0
C53 C 0.67266 0.49254 0.47323 0.0
C54 C 0.60435 0.49872 0.35139 0.0
O55 O 0.61853 0.5394 0.53306 0.0
Mg56 Mg 0.98855 0.87502 0.05913 0.0
O57 O 0.01467 0.89006 0.99301 0.0
O58 O 0.04813 0.88282 0.03164 0.0
Mg59 Mg 0.04325 0.86143 0.1236 0.0
C60 C 0.03548 0.89189 0.98958 0.0
C61 C 0.95339 0.8995 0.96948 0.0
O62 O 0.9536 0.9138 0.01788 0.0
O63 O 0.99504 0.84018 0.02023 0.0
O64 O 0.02811 0.83338 0.06383 0.0
O65 O 0.99098 0.90546 0.12335 0.0
O66 O 0.01011 0.87517 0.13895 0.0
C67 C 0.01141 0.82742 0.03015 0.0
C68 C 0.00605 0.89505 0.15582 0.0
O69 O 0.96469 0.88202 0.97458 0.0
Mg70 Mg 0.61937 0.98673 0.5752 0.0
O71 O 0.60421 0.01332 0.51096 0.0
O72 O 0.61086 0.04649 0.55265 0.0
Mg73 Mg 0.63206 0.04095 0.64474 0.0
C74 C 0.6021 0.03411 0.50925 0.0
C75 C 0.59629 0.95126 0.48214 0.0
O76 O 0.58216 0.94979 0.53076 0.0
O77 O 0.6543 0.99402 0.53802 0.0
O78 O 0.66042 0.02683 0.58427 0.0
O79 O 0.58868 0.98825 0.63888 0.0
O80 O 0.61879 0.00747 0.65671 0.0
C81 C 0.66674 0.01054 0.54947 0.0
C82 C 0.59893 0.00307 0.67287 0.0
O83 O 0.613 0.96364 0.48836 0.0
Mg84 Mg 0.50983 0.6194 0.07336 0.0
O85 O 0.48353 0.60474 0.00691 0.0
O86 O 0.45018 0.61159 0.047 0.0
Mg87 Mg 0.45532 0.63222 0.14046 0.0
C88 C 0.46272 0.60287 0.00396 0.0
C89 C 0.54628 0.59698 0.98202 0.0
O90 O 0.54779 0.58286 0.03065 0.0
O91 O 0.50307 0.65455 0.03754 0.0
O92 O 0.47017 0.66089 0.08285 0.0
O93 O 0.50777 0.58844 0.13551 0.0
O94 O 0.48857 0.61852 0.15369 0.0
C95 C 0.48674 0.6672 0.04918 0.0
C96 C 0.49278 0.59855 0.16913 0.0
O97 O 0.53348 0.61339 0.98765 0.0
Mg98 Mg 0.88304 0.51571 0.5678 0.0
O99 O 0.8978 0.4889 0.50391 0.0
O100 O 0.8915 0.4558 0.54645 0.0
Mg101 Mg 0.87075 0.46168 0.63929 0.0
C102 C 0.89998 0.46812 0.50245 0.0
C103 C 0.90652 0.54929 0.46992 0.0
O104 O 0.92167 0.54968 0.51594 0.0
O105 O 0.8479 0.50831 0.53262 0.0
O106 O 0.84202 0.47565 0.57997 0.0
O107 O 0.91407 0.51436 0.63011 0.0
O108 O 0.88406 0.49524 0.64999 0.0
C109 C 0.8355 0.49185 0.54515 0.0
C110 C 0.90402 0.49967 0.66504 0.0
O111 O 0.889 0.53833 0.47945 0.0
Mg112 Mg 0.01704 0.3807 0.06812 0.0
O113 O 0.99035 0.39601 0.00402 0.0
O114 O 0.95704 0.38905 0.04403 0.0
Mg115 Mg 0.96247 0.3669 0.13401 0.0
C116 C 0.96956 0.39813 1.00167 0.0
C117 C 0.04017 0.40935 0.96565 0.0
O118 O 0.02845 0.42338 1.00002 0.0
O119 O 0.0104 0.34611 0.02676 0.0
O120 O 0.97733 0.33958 0.07097 0.0
O121 O 0.01504 0.41054 0.13444 0.0
O122 O 0.99579 0.38024 0.1489 0.0
C123 C 0.99377 0.3336 0.03626 0.0
C124 C 1.00005 0.39999 0.16678 0.0
O125 O 0.04071 0.38937 0.98405 0.0
Mg126 Mg 0.12414 0.00971 0.55941 0.0
O127 O 0.10927 0.98353 0.49299 0.0
O128 O 0.11615 0.95011 0.5324 0.0
Mg129 Mg 0.13701 0.9551 0.62551 0.0
C130 C 0.10735 0.96273 0.48975 0.0
C131 C 0.10086 0.0454 0.46826 0.0
O132 O 0.08655 0.04615 0.51655 0.0
O133 O 0.15922 0.00298 0.52283 0.0
O134 O 0.16559 0.97002 0.56766 0.0
O135 O 0.09335 0.00762 0.62229 0.0
O136 O 0.12348 0.98839 0.6395 0.0
C137 C 0.17187 0.98662 0.53412 0.0
C138 C 0.10357 0.99262 0.65557 0.0
O139 O 0.11783 0.03337 0.47408 0.0
Mg140 Mg 0.48612 0.12371 0.076 0.0
O141 O 0.51162 0.1074 0.01001 0.0
O142 O 0.54528 0.11369 0.04865 0.0
Mg143 Mg 0.54132 0.13555 0.13993 0.0
C144 C 0.53236 0.10487 0.00681 0.0
C145 C 0.45581 0.09757 0.97948 0.0
O146 O 0.46237 0.08158 0.01815 0.0
O147 O 0.4938 0.15819 0.03599 0.0
O148 O 0.52712 0.16387 0.07946 0.0
O149 O 0.4874 0.09355 0.14161 0.0
O150 O 0.50772 0.12315 0.15567 0.0
C151 C 0.51066 0.17035 0.04565 0.0
C152 C 0.50287 0.10356 0.17356 0.0
O153 O 0.46166 0.11716 0.99257 0.0
Mg154 Mg 0.37415 0.48537 0.57189 0.0
O155 O 0.38901 0.51179 0.50647 0.0
O156 O 0.38159 0.54507 0.54609 0.0
Mg157 Mg 0.3603 0.53972 0.6381 0.0
C158 C 0.39072 0.53261 0.50363 0.0
C159 C 0.39934 0.45161 0.4803 0.0
O160 O 0.41393 0.45259 0.52785 0.0
O161 O 0.3392 0.49171 0.53349 0.0
O162 O 0.33223 0.52453 0.57842 0.0
O163 O 0.40465 0.48771 0.63572 0.0
O164 O 0.37429 0.50664 0.65243 0.0
C165 C 0.32632 0.50792 0.54428 0.0
C166 C 0.39423 0.50263 0.66879 0.0
O167 O 0.38128 0.4619 0.48659 0.0
Mg168 Mg 0.01253 0.12276 0.94057 0.0
O169 O 0.98642 0.10852 0.00846 0.0
O170 O 0.95297 0.11572 0.9697 0.0
Mg171 Mg 0.95786 0.13612 0.87571 0.0
C172 C 0.9656 0.1069 0.01231 0.0
C173 C 0.04725 0.09866 0.03207 0.0
O174 O 0.04638 0.08373 0.98547 0.0
O175 O 0.00652 0.15812 0.97604 0.0
O176 O 0.97354 0.16474 0.93167 0.0
O177 O 0.00981 0.09171 0.87914 0.0
O178 O 0.99085 0.12195 0.86112 0.0
C179 C 0.99034 0.17097 0.96447 0.0
C180 C 0.99477 0.10189 0.84593 0.0
O181 O 0.0365 0.11642 0.02519 0.0
Mg182 Mg 0.3819 0.01307 0.44297 0.0
O183 O 0.39716 0.98605 0.505 0.0
O184 O 0.39119 0.9531 0.4611 0.0
Mg185 Mg 0.37006 0.9593 0.36913 0.0
C186 C 0.39963 0.9653 0.50548 0.0
C187 C 0.39981 0.0522 0.53705 0.0
O188 O 0.40892 0.06041 0.48392 0.0
O189 O 0.34696 0.00507 0.47872 0.0
O190 O 0.34139 0.97254 0.43003 0.0
O191 O 0.41272 0.01236 0.37981 0.0
O192 O 0.38277 0.99314 0.35969 0.0
C193 C 0.33477 0.98848 0.4658 0.0
C194 C 0.40263 0.99782 0.34433 0.0
O195 O 0.38812 0.03494 0.53262 0.0
Mg196 Mg 0.49025 0.38091 0.94809 0.0
O197 O 0.51677 0.39552 0.0139 0.0
O198 O 0.54997 0.38833 0.97325 0.0
Mg199 Mg 0.54452 0.36759 0.88018 0.0
C200 C 0.53761 0.39723 0.01639 0.0
C201 C 0.45385 0.40354 0.03907 0.0
O202 O 0.45205 0.41736 0.98974 0.0
O203 O 0.49678 0.34574 0.98425 0.0
O204 O 0.52953 0.33913 0.93832 0.0
O205 O 0.49243 0.41175 0.88541 0.0
O206 O 0.51133 0.38147 0.86741 0.0
C207 C 0.513 0.33296 0.97236 0.0
C208 C 0.50725 0.40143 0.85167 0.0
O209 O 0.46681 0.38724 0.034 0.0
Mg210 Mg 0.11774 0.48275 0.4168 0.0
O211 O 0.10242 0.50977 0.47959 0.0
O212 O 0.10959 0.54288 0.43848 0.0
Mg213 Mg 0.13188 0.53695 0.34908 0.0
C214 C 0.10038 0.53057 0.48115 0.0
C215 C 0.08888 0.46011 0.51971 0.0
O216 O 0.07495 0.47182 0.48494 0.0
O217 O 0.15222 0.48951 0.45871 0.0
O218 O 0.15904 0.52234 0.41342 0.0
O219 O 0.08801 0.48448 0.35023 0.0
O220 O 0.11834 0.50366 0.33522 0.0
C221 C 0.16483 0.50603 0.44896 0.0
C222 C 0.09857 0.49937 0.31749 0.0
O223 O 0.10888 0.45943 0.50154 0.0
H224 H 0.04543 0.69239 0.95481 0.0
H225 H 0.97498 0.80244 1.00002 0.0
H226 H 0.97476 0.69188 0.97348 0.0
H227 H 0.0457 0.79917 0.01438 0.0
H228 H 0.97407 0.76254 0.98188 0.0
H229 H 0.04538 0.73193 0.97234 0.0
C230 C 0.02988 0.70058 0.96336 0.0
C231 C 0.01007 0.68879 0.96262 0.0
C232 C 0.98976 0.77063 0.98868 0.0
C233 C 0.00984 0.73434 0.98164 0.0
C234 C 0.99032 0.79342 0.99827 0.0
C235 C 0.01045 0.80416 0.00891 0.0
C236 C 0.00949 0.75861 0.98923 0.0
C237 C 0.02979 0.79161 0.00681 0.0
C238 C 0.02985 0.72322 0.97312 0.0
C239 C 0.99043 0.70032 0.9741 0.0
N240 N 0.02881 0.76956 0.99741 0.0
N241 N 0.99078 0.72253 0.98257 0.0
H242 H 0.69371 0.04566 0.53191 0.0
H243 H 0.80386 0.97459 0.49711 0.0
H244 H 0.69309 0.97481 0.52261 0.0
H245 H 0.80077 0.04526 0.48138 0.0
H246 H 0.76382 0.97378 0.51316 0.0
H247 H 0.73328 0.04529 0.51568 0.0
C248 C 0.7019 0.02999 0.52565 0.0
C249 C 0.69005 0.01024 0.52872 0.0
C250 C 0.77199 0.98943 0.50653 0.0
C251 C 0.73568 0.00964 0.51123 0.0
C252 C 0.79485 0.98993 0.49813 0.0
C253 C 0.80568 0.01002 0.4877 0.0
C254 C 0.76 0.00918 0.50491 0.0
C255 C 0.79314 0.02938 0.4888 0.0
C256 C 0.72456 0.02978 0.51666 0.0
C257 C 0.70157 0.99043 0.52011 0.0
N258 N 0.77105 0.02845 0.49698 0.0
N259 N 0.72382 0.99061 0.51235 0.0
H260 H 0.45308 0.80326 0.9909 0.0
H261 H 0.52306 0.69226 0.01854 0.0
H262 H 0.52397 0.8029 0.99881 0.0
H263 H 0.45254 0.69588 0.03951 0.0
H264 H 0.52412 0.73233 0.00457 0.0
H265 H 0.45298 0.76363 0.00662 0.0
C266 C 0.46865 0.79485 0.99685 0.0
C267 C 0.48857 0.80642 0.99345 0.0
C268 C 0.50844 0.72428 0.01192 0.0
C269 C 0.4886 0.76078 0.01017 0.0
C270 C 0.50779 0.7014 0.01914 0.0
C271 C 0.48768 0.69069 0.03036 0.0
C272 C 0.48883 0.73644 0.01552 0.0
C273 C 0.46844 0.70341 0.03135 0.0
C274 C 0.46859 0.77216 0.00551 0.0
C275 C 0.50824 0.79464 1.00157 0.0
N276 N 0.46951 0.72554 0.02425 0.0
N277 N 0.50778 0.77239 0.0089 0.0
H278 H 0.69835 0.52871 0.50101 0.0
H279 H 0.80814 0.45683 0.53094 0.0
H280 H 0.70065 0.45797 0.48674 0.0
H281 H 0.8092 0.52762 0.51857 0.0
H282 H 0.76843 0.45743 0.51754 0.0
H283 H 0.73848 0.52918 0.51476 0.0
C284 C 0.70721 0.51328 0.50193 0.0
C285 C 0.69612 0.49327 0.49254 0.0
C286 C 0.77728 0.47288 0.51722 0.0
C287 C 0.74192 0.49372 0.50708 0.0
C288 C 0.80002 0.47253 0.52459 0.0
C289 C 0.81203 0.4922 0.52596 0.0
C290 C 0.76628 0.49307 0.51175 0.0
C291 C 0.80059 0.51205 0.51735 0.0
C292 C 0.73012 0.51358 0.50899 0.0
C293 C 0.70848 0.47379 0.49342 0.0
N294 N 0.77828 0.51201 0.5112 0.0
N295 N 0.73064 0.47453 0.50028 0.0
H296 H 0.95861 0.30788 0.0077 0.0
H297 H 0.02711 0.19557 0.99458 0.0
H298 H 0.02943 0.30645 0.01723 0.0
H299 H 0.95672 0.20038 0.97168 0.0
H300 H 0.02889 0.23574 0.00606 0.0
H301 H 0.95828 0.26827 0.99234 0.0
C302 C 0.97415 0.29922 0.00555 0.0
C303 C 0.99407 0.31048 0.01388 0.0
C304 C 0.01308 0.22793 0.99883 0.0
C305 C 0.99384 0.26481 0.99778 0.0
C306 C 0.01201 0.205 0.99303 0.0
C307 C 0.99173 0.19457 0.982 0.0
C308 C 0.99371 0.24042 0.99384 0.0
C309 C 0.97274 0.20765 0.97973 0.0
C310 C 0.97396 0.27654 0.99718 0.0
C311 C 0.01372 0.2984 0.01053 0.0
N312 N 0.97423 0.2298 0.98533 0.0
N313 N 0.01311 0.27613 0.00346 0.0
H314 H 0.3081 0.95298 0.48087 0.0
H315 H 0.19708 0.02308 0.50626 0.0
H316 H 0.30789 0.0238 0.4921 0.0
H317 H 0.20043 0.95242 0.52236 0.0
H318 H 0.23723 0.02414 0.49397 0.0
H319 H 0.26836 0.95291 0.49374 0.0
C320 C 0.29969 0.96855 0.48693 0.0
C321 C 0.31135 0.98843 0.48533 0.0
C322 C 0.2291 0.00843 0.49983 0.0
C323 C 0.26557 0.98852 0.4988 0.0
C324 C 0.20618 0.00778 0.50605 0.0
C325 C 0.19537 0.98763 0.51552 0.0
C326 C 0.2412 0.98877 0.50268 0.0
C327 C 0.20804 0.96835 0.51557 0.0
C328 C 0.27694 0.96851 0.49396 0.0
C329 C 0.29956 0.00809 0.49353 0.0
N330 N 0.23021 0.96942 0.50952 0.0
N331 N 0.27725 0.00766 0.49928 0.0
H332 H 0.54604 0.19656 0.02312 0.0
H333 H 0.47654 0.30811 0.00332 0.0
H334 H 0.47511 0.19736 0.02359 0.0
H335 H 0.547 0.30406 0.98144 0.0
H336 H 0.47523 0.26799 0.01635 0.0
H337 H 0.5462 0.23622 0.00849 0.0
C338 C 0.53046 0.20508 0.01923 0.0
C339 C 0.51053 0.19362 0.0247 0.0
C340 C 0.49095 0.27596 0.00903 0.0
C341 C 0.51057 0.23932 0.00925 0.0
C342 C 0.49175 0.29886 1.00236 0.0
C343 C 0.51191 0.30947 0.99109 0.0
C344 C 0.51047 0.26368 0.00476 0.0
C345 C 0.53107 0.29663 0.98962 0.0
C346 C 0.53055 0.22779 0.01122 0.0
C347 C 0.49085 0.20554 0.01916 0.0
N348 N 0.52985 0.27449 0.99611 0.0
N349 N 0.49135 0.22782 0.0124 0.0
H350 H 0.30181 0.47153 0.51 0.0
H351 H 0.1909 0.54128 0.47401 0.0
H352 H 0.29746 0.54191 0.53339 0.0
H353 H 0.19131 0.47037 0.47535 0.0
H354 H 0.23025 0.5413 0.49459 0.0
H355 H 0.2619 0.47028 0.49162 0.0
C356 C 0.29256 0.48673 0.51028 0.0
C357 C 0.30301 0.50686 0.5234 0.0
C358 C 0.2218 0.52568 0.49097 0.0
C359 C 0.25745 0.50549 0.50351 0.0
C360 C 0.19926 0.52567 0.4795 0.0
C361 C 0.18779 0.50579 0.47285 0.0
C362 C 0.23318 0.50566 0.49523 0.0
C363 C 0.19951 0.48607 0.48059 0.0
C364 C 0.26976 0.48597 0.50051 0.0
C365 C 0.29015 0.526 0.52384 0.0
N366 N 0.22165 0.48649 0.49073 0.0
N367 N 0.26812 0.52482 0.51426 0.0
H368 H 0.00549 0.55308 0.79546 0.0
H369 H 0.09093 0.57416 0.50107 0.0
H370 H 0.02488 0.61707 0.72471 0.0
H371 H 0.07628 0.50942 0.5764 0.0
H372 H 0.06559 0.58979 0.58121 0.0
H373 H 0.02969 0.5362 0.71256 0.0
C374 C 0.01467 0.56354 0.76226 0.0
C375 C 0.01331 0.58649 0.76734 0.0
C376 C 0.06792 0.57215 0.58035 0.0
C377 C 0.04097 0.56745 0.67306 0.0
C378 C 0.08248 0.56321 0.53458 0.0
C379 C 0.08583 0.54043 0.5318 0.0
C380 C 0.05651 0.55825 0.62383 0.0
C381 C 0.07427 0.52709 0.57662 0.0
C382 C 0.02855 0.55394 0.71526 0.0
C383 C 0.0256 0.5993 0.7232 0.0
N384 N 0.06012 0.5362 0.62067 0.0
N385 N 0.03889 0.58963 0.67824 0.0
H386 H 0.98742 0.08307 0.10675 0.0
H387 H 0.87716 0.03141 0.25484 0.0
H388 H 0.92208 0.09837 0.03735 0.0
H389 H 0.94172 0.01193 0.32069 0.0
H390 H 0.89385 0.05636 0.17634 0.0
H391 H 0.97149 0.05791 0.18744 0.0
C392 C 0.96971 0.08129 0.10866 0.0
C393 C 0.95607 0.09291 0.06489 0.0
C394 C 0.90446 0.04666 0.20771 0.0
C395 C 0.9378 0.06393 0.15714 0.0
C396 C 0.89493 0.03238 0.25279 0.0
C397 C 0.90807 0.01965 0.29485 0.0
C398 C 0.92741 0.04841 0.20428 0.0
C399 C 0.93099 0.02143 0.28915 0.0
C400 C 0.96067 0.06682 0.15467 0.0
C401 C 0.93328 0.08983 0.06986 0.0
N402 N 0.93997 0.03566 0.24483 0.0
N403 N 0.92491 0.07564 0.11495 0.0
H404 H 0.47295 0.8761 0.7521 0.0
H405 H 0.42274 0.98658 0.60241 0.0
H406 H 0.49321 0.94055 0.81677 0.0
H407 H 0.40944 0.92172 0.52562 0.0
H408 H 0.44766 0.9704 0.68312 0.0
H409 H 0.44922 0.89291 0.67031 0.0
C410 C 0.47244 0.89387 0.74899 0.0
C411 C 0.48499 0.90696 0.7917 0.0
C412 C 0.43929 0.95972 0.64863 0.0
C413 C 0.45762 0.92642 0.69763 0.0
C414 C 0.42494 0.96891 0.60259 0.0
C415 C 0.41389 0.95549 0.55693 0.0
C416 C 0.44258 0.93691 0.64938 0.0
C417 C 0.41753 0.93274 0.55971 0.0
C418 C 0.45887 0.90346 0.70206 0.0
C419 C 0.48382 0.92986 0.78476 0.0
N420 N 0.43153 0.92421 0.6051 0.0
N421 N 0.47023 0.9389 0.73882 0.0
H422 H 0.5813 0.40524 0.04012 0.0
H423 H 0.55992 0.49359 0.32653 0.0
H424 H 0.51636 0.4218 0.11026 0.0
H425 H 0.62403 0.47252 0.26122 0.0
H426 H 0.54317 0.46849 0.24584 0.0
H427 H 0.59694 0.43046 0.12071 0.0
C428 C 0.57031 0.41406 0.07267 0.0
C429 C 0.54746 0.41133 0.06819 0.0
C430 C 0.5609 0.46942 0.24932 0.0
C431 C 0.56531 0.44052 0.16061 0.0
C432 C 0.57044 0.48382 0.29507 0.0
C433 C 0.59338 0.48503 0.30095 0.0
C434 C 0.57447 0.45633 0.20916 0.0
C435 C 0.60626 0.47196 0.25905 0.0
C436 C 0.57926 0.42854 0.11868 0.0
C437 C 0.53408 0.42332 0.11185 0.0
N438 N 0.59665 0.45819 0.21521 0.0
N439 N 0.5432 0.43743 0.15604 0.0
H440 H 0.08343 0.98461 0.39572 0.0
H441 H 0.0321 0.87462 0.24487 0.0
H442 H 0.09846 0.91924 0.46515 0.0
H443 H 0.01182 0.9393 0.18254 0.0
H444 H 0.05697 0.89115 0.32403 0.0
H445 H 0.05818 0.96879 0.31505 0.0
C446 C 0.08156 0.96692 0.39385 0.0
C447 C 0.09315 0.95324 0.43757 0.0
C448 C 0.04711 0.90182 0.29329 0.0
C449 C 0.06408 0.93508 0.3453 0.0
C450 C 0.03287 0.89238 0.24784 0.0
C451 C 0.01994 0.9056 0.20659 0.0
C452 C 0.0486 0.92476 0.29787 0.0
C453 C 0.02147 0.9285 0.21343 0.0
C454 C 0.06704 0.95793 0.34786 0.0
C455 C 0.08994 0.93046 0.43266 0.0
N456 N 0.03567 0.93739 0.25805 0.0
N457 N 0.07573 0.92214 0.38752 0.0
H458 H 0.50989 0.08082 0.91399 0.0
H459 H 0.61927 0.02724 0.76636 0.0
H460 H 0.57557 0.0949 0.98291 0.0
H461 H 0.55457 0.00954 0.69733 0.0
H462 H 0.60286 0.05181 0.84629 0.0
H463 H 0.52526 0.055 0.83397 0.0
C464 C 0.52755 0.07861 0.91217 0.0
C465 C 0.54146 0.09013 0.95545 0.0
C466 C 0.59214 0.04258 0.81398 0.0
C467 C 0.55908 0.06044 0.86408 0.0
C468 C 0.60152 0.02849 0.76811 0.0
C469 C 0.58827 0.01642 0.72466 0.0
C470 C 0.56922 0.04481 0.81678 0.0
C471 C 0.56537 0.01854 0.72996 0.0
C472 C 0.53628 0.06378 0.86657 0.0
C473 C 0.56417 0.08647 0.95074 0.0
N474 N 0.55653 0.03262 0.77502 0.0
N475 N 0.57222 0.07197 0.90604 0.0
H476 H 0.39915 0.57621 0.48005 0.0
H477 H 0.48725 0.55412 0.19343 0.0
H478 H 0.41532 0.51112 0.41034 0.0
H479 H 0.46707 0.61835 0.26021 0.0
H480 H 0.46209 0.53754 0.27425 0.0
H481 H 0.4246 0.59161 0.3998 0.0
C482 C 0.40794 0.56514 0.44768 0.0
C483 C 0.40503 0.54233 0.45216 0.0
C484 C 0.46324 0.55526 0.27107 0.0
C485 C 0.43448 0.55989 0.3601 0.0
C486 C 0.47767 0.56469 0.22525 0.0
C487 C 0.47913 0.58763 0.21972 0.0
C488 C 0.45037 0.56892 0.31162 0.0
C489 C 0.46631 0.60058 0.26207 0.0
C490 C 0.42256 0.57395 0.40186 0.0
C491 C 0.41698 0.52883 0.40874 0.0
N492 N 0.4525 0.59107 0.30593 0.0
N493 N 0.43122 0.53781 0.3647 0.0
H494 H 0.9261 0.40783 0.98043 0.0
H495 H 0.94852 0.49377 0.68819 0.0
H496 H 0.99118 0.42208 0.90697 0.0
H497 H 0.88429 0.47531 0.75934 0.0
H498 H 0.96508 0.46898 0.77019 0.0
H499 H 0.91091 0.43342 0.90033 0.0
C500 C 0.93722 0.41624 0.94731 0.0
C501 C 0.95997 0.41272 0.95067 0.0
C502 C 0.94736 0.47046 0.76775 0.0
C503 C 0.94263 0.44234 0.85866 0.0
C504 C 0.93794 0.48467 0.72127 0.0
C505 C 0.915 0.48647 0.71658 0.0
C506 C 0.93368 0.45815 0.80979 0.0
C507 C 0.90205 0.47426 0.76054 0.0
C508 C 0.92852 0.43094 0.90156 0.0
C509 C 0.97352 0.42423 0.9063 0.0
N510 N 0.91154 0.46065 0.80495 0.0
N511 N 0.96466 0.43854 0.86227 0.0
H512 H 0.97403 0.3794 0.2558 0.0
H513 H 0.92336 0.48957 0.4066 0.0
H514 H 0.9948 0.44408 0.19493 0.0
H515 H 0.9092 0.42452 0.48037 0.0
H516 H 0.94836 0.4735 0.32598 0.0
H517 H 0.9495 0.39595 0.33607 0.0
C518 C 0.97344 0.39715 0.25936 0.0
C519 C 0.98639 0.41039 0.21823 0.0
C520 C 0.93976 0.46275 0.35974 0.0
C521 C 0.95817 0.42954 0.31055 0.0
C522 C 0.92537 0.47188 0.40571 0.0
C523 C 0.91409 0.45837 0.45059 0.0
C524 C 0.94288 0.43992 0.35827 0.0
C525 C 0.91749 0.4356 0.44692 0.0
C526 C 0.95942 0.40659 0.30542 0.0
C527 C 0.98511 0.43328 0.22572 0.0
N528 N 0.93157 0.42712 0.40165 0.0
N529 N 0.97112 0.44216 0.27081 0.0
H530 H 0.01358 0.91599 0.89599 0.0
H531 H 0.12376 0.96726 0.74661 0.0
H532 H 0.07895 0.9008 0.96529 0.0
H533 H 0.05921 0.98682 0.68094 0.0
H534 H 0.10708 0.94268 0.82608 0.0
H535 H 0.02944 0.94126 0.81549 0.0
C536 C 0.03128 0.91784 0.89414 0.0
C537 C 0.04495 0.90618 0.93773 0.0
C538 C 0.09646 0.95232 0.79456 0.0
C539 C 0.06315 0.93526 0.8457 0.0
C540 C 0.10599 0.96639 0.74893 0.0
C541 C 0.09285 0.97902 0.70662 0.0
C542 C 0.07351 0.95068 0.79827 0.0
C543 C 0.06993 0.97739 0.71266 0.0
C544 C 0.04029 0.93236 0.84825 0.0
C545 C 0.06773 0.90936 0.93289 0.0
N546 N 0.06095 0.96334 0.7575 0.0
N547 N 0.07607 0.92358 0.88786 0.0
H548 H 0.57785 0.01271 0.41498 0.0
H549 H 0.52933 0.12356 0.2624 0.0
H550 H 0.59354 0.07774 0.48617 0.0
H551 H 0.5071 0.05929 0.20204 0.0
H552 H 0.55347 0.1066 0.34272 0.0
H553 H 0.55292 0.029 0.33438 0.0
C554 C 0.57618 0.03042 0.41355 0.0
C555 C 0.58789 0.04388 0.45765 0.0
C556 C 0.54332 0.09612 0.3122 0.0
C557 C 0.5592 0.06257 0.36542 0.0
C558 C 0.52951 0.1058 0.26608 0.0
C559 C 0.51626 0.09281 0.22504 0.0
C560 C 0.54408 0.07316 0.31757 0.0
C561 C 0.51703 0.06991 0.23275 0.0
C562 C 0.56183 0.03968 0.3676 0.0
C563 C 0.58492 0.06669 0.45335 0.0
N564 N 0.53084 0.06077 0.27795 0.0
N565 N 0.5709 0.07528 0.40815 0.0
H566 H 0.37396 0.52856 0.75856 0.0
H567 H 0.48438 0.57908 0.9092 0.0
H568 H 0.43851 0.50823 0.69506 0.0
H569 H 0.41915 0.59424 0.97973 0.0
H570 H 0.46833 0.55411 0.82819 0.0
H571 H 0.39068 0.55319 0.83805 0.0
C572 C 0.39173 0.52927 0.76133 0.0
C573 C 0.40487 0.51639 0.71967 0.0
C574 C 0.45755 0.56293 0.86131 0.0
C575 C 0.42424 0.54477 0.81131 0.0
C576 C 0.46667 0.5773 0.9075 0.0
C577 C 0.4531 0.58884 0.95162 0.0
C578 C 0.43468 0.56009 0.85895 0.0
C579 C 0.43029 0.58575 0.94693 0.0
C580 C 0.40128 0.54337 0.80698 0.0
C581 C 0.42778 0.51785 0.72626 0.0
N582 N 0.42185 0.57168 0.90158 0.0
N583 N 0.43678 0.5319 0.77108 0.0
H584 H 0.90096 0.07928 0.53537 0.0
H585 H 0.9894 0.05749 0.82122 0.0
H586 H 0.91775 0.01423 0.60395 0.0
H587 H 0.96833 0.12167 0.75658 0.0
H588 H 0.96416 0.04084 0.74069 0.0
H589 H 0.92605 0.0948 0.61649 0.0
C590 C 0.90981 0.06824 0.56768 0.0
C591 C 0.90719 0.0454 0.56259 0.0
C592 C 0.96512 0.05857 0.74432 0.0
C593 C 0.93623 0.0631 0.65563 0.0
C594 C 0.97958 0.06804 0.78999 0.0
C595 C 0.98085 0.09098 0.79597 0.0
C596 C 0.95202 0.07219 0.70434 0.0
C597 C 0.96772 0.1039 0.75436 0.0
C598 C 0.92422 0.07712 0.61401 0.0
C599 C 0.91919 0.03195 0.606 0.0
N600 N 0.9539 0.09435 0.71058 0.0
N601 N 0.93324 0.04099 0.65049 0.0
H602 H 0.44707 0.99123 0.32201 0.0
H603 H 0.42357 0.90612 0.02819 0.0
H604 H 0.3827 0.9747 0.24777 0.0
H605 H 0.48876 0.91897 0.10323 0.0
H606 H 0.40875 0.93221 0.10749 0.0
H607 H 0.46334 0.96636 0.23968 0.0
C608 C 0.43642 0.98257 0.28808 0.0
C609 C 0.41351 0.98489 0.29205 0.0
C610 C 0.42631 0.92932 0.10678 0.0
C611 C 0.43184 0.95646 0.19857 0.0
C612 C 0.43478 0.91433 0.06151 0.0
C613 C 0.45745 0.91026 0.05889 0.0
C614 C 0.44056 0.94044 0.14996 0.0
C615 C 0.47115 0.92152 0.10343 0.0
C616 C 0.44566 0.9683 0.24144 0.0
C617 C 0.40043 0.97323 0.24708 0.0
N618 N 0.46249 0.93612 0.14704 0.0
N619 N 0.40975 0.95954 0.20258 0.0
H620 H 0.53209 0.38112 0.75959 0.0
H621 H 0.5847 0.49089 0.61177 0.0
H622 H 0.51363 0.44576 0.82716 0.0
H623 H 0.59871 0.42549 0.54052 0.0
H624 H 0.55942 0.47519 0.69254 0.0
H625 H 0.55677 0.39763 0.68008 0.0
C626 C 0.53321 0.39887 0.75767 0.0
C627 C 0.52087 0.41208 0.80052 0.0
C628 C 0.56806 0.4643 0.65931 0.0
C629 C 0.54933 0.43124 0.70884 0.0
C630 C 0.5826 0.47321 0.61325 0.0
C631 C 0.59391 0.45948 0.56901 0.0
C632 C 0.56481 0.44149 0.66135 0.0
C633 C 0.59042 0.43675 0.57342 0.0
C634 C 0.54735 0.40831 0.71202 0.0
C635 C 0.52283 0.43499 0.795 0.0
N636 N 0.57619 0.42851 0.61861 0.0
N637 N 0.53693 0.44387 0.75013 0.0
H638 H 0.05447 0.50416 0.28929 0.0
H639 H 0.07674 0.59142 1.00096 0.0
H640 H 0.11896 0.52552 0.22823 0.0
H641 H 0.01191 0.57661 0.07543 0.0
H642 H 0.09232 0.56605 0.08142 0.0
H643 H 0.03821 0.52894 0.20719 0.0
C644 C 0.06518 0.51393 0.25842 0.0
C645 C 0.08807 0.5129 0.26592 0.0
C646 C 0.07468 0.56839 0.08029 0.0
C647 C 0.06971 0.54124 0.1724 0.0
C648 C 0.06578 0.58294 0.03436 0.0
C649 C 0.04298 0.58623 0.0313 0.0
C650 C 0.06071 0.55693 0.1234 0.0
C651 C 0.0296 0.57468 0.07594 0.0
C652 C 0.05592 0.52815 0.21185 0.0
C653 C 0.10121 0.52596 0.22472 0.0
N654 N 0.03865 0.56051 0.11995 0.0
N655 N 0.09186 0.53956 0.17993 0.0
H656 H 0.93839 0.57914 0.4362 0.0
H657 H 0.92362 0.56199 0.05137 0.0
H658 H 0.88512 0.54119 0.35386 0.0
H659 H 0.95945 0.61688 0.13263 0.0
H660 H 0.91038 0.55297 0.16184 0.0
H661 H 0.94753 0.59221 0.32559 0.0
C662 C 0.9285 0.5737 0.39498 0.0
C663 C 0.91098 0.55903 0.40439 0.0
C664 C 0.92096 0.56712 0.15535 0.0
C665 C 0.92157 0.57365 0.27757 0.0
C666 C 0.92855 0.57226 0.09232 0.0
C667 C 0.94269 0.5902 0.08265 0.0
C668 C 0.92785 0.57978 0.20937 0.0
C669 C 0.94852 0.60293 0.13765 0.0
C670 C 0.93371 0.58119 0.33188 0.0
C671 C 0.89873 0.55254 0.34906 0.0
N672 N 0.94129 0.59733 0.19869 0.0
N673 N 0.90441 0.55969 0.28801 0.0
H674 H 0.93205 0.92128 0.55584 0.0
H675 H 0.92348 0.9322 0.94484 0.0
H676 H 0.88156 0.95943 0.65168 0.0
H677 H 0.95877 0.8795 0.8498 0.0
H678 H 0.90846 0.94303 0.83798 0.0
H679 H 0.94273 0.90626 0.66286 0.0
C680 C 0.92308 0.92636 0.59926 0.0
C681 C 0.90592 0.94169 0.5947 0.0
C682 C 0.91932 0.92896 0.84063 0.0
C683 C 0.91825 0.92478 0.71749 0.0
C684 C 0.92792 0.92279 0.90163 0.0
C685 C 0.94246 0.90495 0.90635 0.0
C686 C 0.92555 0.91745 0.7837 0.0
C687 C 0.9476 0.89334 0.8486 0.0
C688 C 0.92917 0.91775 0.66034 0.0
C689 C 0.89487 0.94764 0.65273 0.0
N690 N 0.93936 0.89994 0.78964 0.0
N691 N 0.90137 0.93936 0.71172 0.0
H692 H 0.57585 0.93411 0.06645 0.0
H693 H 0.56549 0.91968 0.45371 0.0
H694 H 0.54211 0.87919 0.15499 0.0
H695 H 0.6159 0.95944 0.36343 0.0
H696 H 0.55576 0.90528 0.34503 0.0
H697 H 0.58992 0.94443 0.17492 0.0
C698 C 0.57156 0.92411 0.10858 0.0
C699 C 0.55775 0.90578 0.10157 0.0
C700 C 0.56909 0.91699 0.34916 0.0
C701 C 0.57354 0.91769 0.22605 0.0
C702 C 0.57463 0.92525 0.41117 0.0
C703 C 0.5915 0.94084 0.41777 0.0
C704 C 0.58026 0.92464 0.29316 0.0
C705 C 0.6028 0.94743 0.36081 0.0
C706 C 0.57962 0.92999 0.17049 0.0
C707 C 0.55275 0.89341 0.15799 0.0
N708 N 0.59682 0.93949 0.30091 0.0
N709 N 0.56043 0.89974 0.21791 0.0
H710 H 0.56723 0.57875 0.56698 0.0
H711 H 0.57837 0.56659 0.95489 0.0
H712 H 0.62109 0.54421 0.65858 0.0
H713 H 0.53893 0.617 0.86341 0.0
H714 H 0.59378 0.55746 0.84703 0.0
H715 H 0.55606 0.59242 0.6751 0.0
C716 C 0.57684 0.57421 0.60972 0.0
C717 C 0.5951 0.56027 0.60365 0.0
C718 C 0.58192 0.57067 0.85073 0.0
C719 C 0.58221 0.5756 0.72775 0.0
C720 C 0.57308 0.57586 0.91228 0.0
C721 C 0.55728 0.59254 0.91828 0.0
C722 C 0.57465 0.58199 0.79457 0.0
C723 C 0.55108 0.60402 0.86125 0.0
C724 C 0.57047 0.58204 0.67144 0.0
C725 C 0.60694 0.55496 0.66083 0.0
N726 N 0.55959 0.59838 0.80178 0.0
N727 N 0.60014 0.56242 0.72053 0.0
H728 H 0.05104 0.46877 0.58587 0.0
H729 H 0.06966 0.38729 0.88615 0.0
H730 H 0.11066 0.43058 0.5998 0.0
H731 H 0.03162 0.44703 0.89854 0.0
H732 H 0.08233 0.39861 0.77617 0.0
H733 H 0.04036 0.45593 0.69454 0.0
C734 C 0.06182 0.45748 0.61147 0.0
C735 C 0.08182 0.45077 0.58359 0.0
C736 C 0.07134 0.40922 0.80347 0.0
C737 C 0.06959 0.436 0.70868 0.0
C738 C 0.06411 0.4028 0.86605 0.0
C739 C 0.04958 0.41624 0.90169 0.0
C740 C 0.06358 0.42895 0.7761 0.0
C741 C 0.04288 0.43616 0.87322 0.0
C742 C 0.05576 0.45029 0.67383 0.0
C743 C 0.09513 0.4362 0.61957 0.0
N744 N 0.04974 0.44176 0.81204 0.0
N745 N 0.08875 0.42922 0.68037 0.0
H746 H 0.04261 0.12019 0.14961 0.0
H747 H 0.12075 0.03826 0.34938 0.0
H748 H 0.07644 0.06558 0.05955 0.0
H749 H 0.06957 0.0766 0.44122 0.0
H750 H 0.11003 0.05327 0.24257 0.0
H751 H 0.0578 0.10942 0.25625 0.0
C752 C 0.05346 0.1061 0.15203 0.0
C753 C 0.05818 0.09369 0.0955 0.0
C754 C 0.10126 0.05851 0.28618 0.0
C755 C 0.07562 0.08135 0.21752 0.0
C756 C 0.10744 0.05005 0.34728 0.0
C757 C 0.09596 0.0561 0.40443 0.0
C758 C 0.08366 0.07334 0.28213 0.0
C759 C 0.07879 0.07138 0.39847 0.0
C760 C 0.06202 0.09991 0.21303 0.0
C761 C 0.07227 0.07555 0.10184 0.0
N762 N 0.07314 0.07946 0.33841 0.0
N763 N 0.08047 0.06991 0.16175 0.0
H764 H 0.42132 0.09067 0.56783 0.0
H765 H 0.43551 0.05915 0.94546 0.0
H766 H 0.39053 0.03411 0.65693 0.0
H767 H 0.44979 0.12408 0.87162 0.0
H768 H 0.41944 0.0496 0.83918 0.0
H769 H 0.4324 0.1033 0.67751 0.0
C770 C 0.41674 0.081 0.61037 0.0
C771 C 0.40505 0.06124 0.603 0.0
C772 C 0.42588 0.06602 0.84635 0.0
C773 C 0.41787 0.07547 0.72846 0.0
C774 C 0.43509 0.07147 0.90706 0.0
C775 C 0.44406 0.09243 0.91749 0.0
C776 C 0.42591 0.0815 0.79511 0.0
C777 C 0.44302 0.10774 0.86584 0.0
C778 C 0.42303 0.08824 0.67296 0.0
C779 C 0.39952 0.04943 0.66003 0.0
N780 N 0.43434 0.1019 0.80664 0.0
N781 N 0.40616 0.0566 0.7201 0.0
H782 H 0.42151 0.43374 0.06544 0.0
H783 H 0.43327 0.42337 0.45368 0.0
H784 H 0.46168 0.38421 0.15838 0.0
H785 H 0.37876 0.45665 0.36137 0.0
H786 H 0.44459 0.4095 0.34591 0.0
H787 H 0.40618 0.44319 0.17316 0.0
C788 C 0.42698 0.42473 0.10835 0.0
C789 C 0.44295 0.4082 0.10279 0.0
C790 C 0.43002 0.41965 0.34935 0.0
C791 C 0.42568 0.41911 0.2263 0.0
C792 C 0.42356 0.42759 0.41086 0.0
C793 C 0.40507 0.44123 0.41662 0.0
C794 C 0.41811 0.42567 0.29294 0.0
C795 C 0.3931 0.44614 0.35935 0.0
C796 C 0.41819 0.43011 0.16981 0.0
C797 C 0.44939 0.39706 0.16019 0.0
N798 N 0.39997 0.43858 0.29986 0.0
N799 N 0.44091 0.40287 0.21955 0.0
loop_
_geom_bond_atom_site_label_1
_geom_bond_atom_site_label_2
_geom_bond_distance
_geom_bond_site_symmetry_2
_ccdc_geom_bond_type
Mg0 O1 2.028 . S
Mg0 O7 1.986 . S
Mg0 O9 2.114 . S
Mg0 O10 2.249 1_554 S
Mg0 O13 2.010 1_455 S
O1 Mg0 2.028 . S
O1 C4 1.250 . S
O2 Mg3 2.028 . S
O2 C4 1.248 . S
Mg3 O2 2.028 . S
Mg3 O8 2.032 . S
Mg3 O10 2.077 1_554 S
C4 O1 1.250 . S
C4 O2 1.248 . S
C5 O6 1.264 . S
C5 O13 1.249 . S
O6 C5 1.264 . S
O7 Mg0 1.986 . S
O7 C11 1.246 . S
O8 Mg3 2.032 . S
O8 C11 1.259 . S
O9 Mg0 2.114 . S
O9 C12 1.252 1_554 S
O10 Mg0 2.249 1_556 S
O10 Mg3 2.077 1_556 S
O10 C12 1.274 . S
C11 O7 1.246 . S
C11 O8 1.259 . S
C12 O9 1.252 1_556 S
C12 O10 1.274 . S
O13 Mg0 2.010 1_655 S
O13 C5 1.249 . S
Mg14 O15 2.028 . S
Mg14 O21 1.986 . S
Mg14 O23 2.114 . S
Mg14 O24 2.251 . S
Mg14 O27 2.010 1_545 S
O15 Mg14 2.028 . S
O15 C18 1.250 . S
O16 Mg17 2.028 . S
O16 C18 1.248 . S
Mg17 O16 2.028 . S
Mg17 O22 2.032 . S
Mg17 O24 2.079 . S
C18 O15 1.250 . S
C18 O16 1.248 . S
C19 O20 1.264 . S
C19 O27 1.249 . S
O20 C19 1.264 . S
O21 Mg14 1.986 . S
O21 C25 1.246 . S
O22 Mg17 2.032 . S
O22 C25 1.259 . S
O23 Mg14 2.114 . S
O23 C26 1.252 . S
O24 Mg14 2.251 . S
O24 Mg17 2.079 . S
O24 C26 1.273 . S
C25 O21 1.246 . S
C25 O22 1.259 . S
C26 O23 1.252 . S
C26 O24 1.273 . S
O27 Mg14 2.010 1_565 S
O27 C19 1.249 . S
Mg28 O29 2.028 . S
Mg28 O35 1.986 . S
Mg28 O37 2.114 . S
Mg28 O38 2.249 1_554 S
Mg28 O41 2.010 . S
O29 Mg28 2.028 . S
O29 C32 1.250 . S
O30 Mg31 2.028 . S
O30 C32 1.248 . S
Mg31 O30 2.028 . S
Mg31 O36 2.032 . S
Mg31 O38 2.077 1_554 S
C32 O29 1.250 . S
C32 O30 1.248 . S
C33 O34 1.264 . S
C33 O41 1.249 . S
O34 C33 1.264 . S
O35 Mg28 1.986 . S
O35 C39 1.246 . S
O36 Mg31 2.032 . S
O36 C39 1.259 . S
O37 Mg28 2.114 . S
O37 C40 1.252 1_554 S
O38 Mg28 2.249 1_556 S
O38 Mg31 2.077 1_556 S
O38 C40 1.274 . S
C39 O35 1.246 . S
C39 O36 1.259 . S
C40 O37 1.252 1_556 S
C40 O38 1.274 . S
O41 Mg28 2.010 . S
O41 C33 1.249 . S
Mg42 O43 2.028 . S
Mg42 O49 1.986 . S
Mg42 O51 2.114 . S
Mg42 O52 2.251 . S
Mg42 O55 2.010 . S
O43 Mg42 2.028 . S
O43 C46 1.250 . S
O44 Mg45 2.028 . S
O44 C46 1.248 . S
Mg45 O44 2.028 . S
Mg45 O50 2.032 . S
Mg45 O52 2.079 . S
C46 O43 1.250 . S
C46 O44 1.248 . S
C47 O48 1.264 . S
C47 O55 1.249 . S
O48 C47 1.264 . S
O49 Mg42 1.986 . S
O49 C53 1.246 . S
O50 Mg45 2.032 . S
O50 C53 1.259 . S
O51 Mg42 2.114 . S
O51 C54 1.252 . S
O52 Mg42 2.251 . S
O52 Mg45 2.079 . S
O52 C54 1.273 . S
C53 O49 1.246 . S
C53 O50 1.259 . S
C54 O51 1.252 . S
C54 O52 1.273 . S
O55 Mg42 2.010 . S
O55 C47 1.249 . S
Mg56 O57 2.028 . S
Mg56 O63 1.986 . S
Mg56 O65 2.114 . S
Mg56 O66 2.249 1_556 S
Mg56 O69 2.010 1_455 S
O57 Mg56 2.028 . S
O57 C60 1.250 . S
O58 Mg59 2.028 . S
O58 C60 1.248 . S
Mg59 O58 2.028 . S
Mg59 O64 2.032 . S
Mg59 O66 2.077 1_556 S
C60 O57 1.250 . S
C60 O58 1.248 . S
C61 O62 1.264 . S
C61 O69 1.249 . S
O62 C61 1.264 . S
O63 Mg56 1.986 . S
O63 C67 1.246 . S
O64 Mg59 2.032 . S
O64 C67 1.259 . S
O65 Mg56 2.114 . S
O65 C68 1.252 1_556 S
O66 Mg56 2.249 1_554 S
O66 Mg59 2.077 1_554 S
O66 C68 1.274 . S
C67 O63 1.246 . S
C67 O64 1.259 . S
C68 O65 1.252 1_554 S
C68 O66 1.274 . S
O69 Mg56 2.010 1_655 S
O69 C61 1.249 . S
Mg70 O71 2.028 . S
Mg70 O77 1.986 . S
Mg70 O79 2.114 . S
Mg70 O80 2.251 . S
Mg70 O83 2.010 1_545 S
O71 Mg70 2.028 . S
O71 C74 1.250 . S
O72 Mg73 2.028 . S
O72 C74 1.248 . S
Mg73 O72 2.028 . S
Mg73 O78 2.032 . S
Mg73 O80 2.079 . S
C74 O71 1.250 . S
C74 O72 1.248 . S
C75 O76 1.264 . S
C75 O83 1.249 . S
O76 C75 1.264 . S
O77 Mg70 1.986 . S
O77 C81 1.246 . S
O78 Mg73 2.032 . S
O78 C81 1.259 . S
O79 Mg70 2.114 . S
O79 C82 1.252 . S
O80 Mg70 2.251 . S
O80 Mg73 2.079 . S
O80 C82 1.273 . S
C81 O77 1.246 . S
C81 O78 1.259 . S
C82 O79 1.252 . S
C82 O80 1.273 . S
O83 Mg70 2.010 1_565 S
O83 C75 1.249 . S
Mg84 O85 2.028 . S
Mg84 O91 1.986 . S
Mg84 O93 2.114 . S
Mg84 O94 2.249 1_556 S
Mg84 O97 2.010 . S
O85 Mg84 2.028 . S
O85 C88 1.250 . S
O86 Mg87 2.028 . S
O86 C88 1.248 . S
Mg87 O86 2.028 . S
Mg87 O92 2.032 . S
Mg87 O94 2.077 1_556 S
C88 O85 1.250 . S
C88 O86 1.248 . S
C89 O90 1.264 . S
C89 O97 1.249 . S
O90 C89 1.264 . S
O91 Mg84 1.986 . S
O91 C95 1.246 . S
O92 Mg87 2.032 . S
O92 C95 1.259 . S
O93 Mg84 2.114 . S
O93 C96 1.252 1_556 S
O94 Mg84 2.249 1_554 S
O94 Mg87 2.077 1_554 S
O94 C96 1.274 . S
C95 O91 1.246 . S
C95 O92 1.259 . S
C96 O93 1.252 1_554 S
C96 O94 1.274 . S
O97 Mg84 2.010 . S
O97 C89 1.249 . S
Mg98 O99 2.028 . S
Mg98 O105 1.986 . S
Mg98 O107 2.114 . S
Mg98 O108 2.251 . S
Mg98 O111 2.010 . S
O99 Mg98 2.028 . S
O99 C102 1.250 . S
O100 Mg101 2.028 . S
O100 C102 1.248 . S
Mg101 O100 2.028 . S
Mg101 O106 2.032 . S
Mg101 O108 2.079 . S
C102 O99 1.250 . S
C102 O100 1.248 . S
C103 O104 1.264 . S
C103 O111 1.249 . S
O104 C103 1.264 . S
O105 Mg98 1.986 . S
O105 C109 1.246 . S
O106 Mg101 2.032 . S
O106 C109 1.259 . S
O107 Mg98 2.114 . S
O107 C110 1.252 . S
O108 Mg98 2.251 . S
O108 Mg101 2.079 . S
O108 C110 1.273 . S
C109 O105 1.246 . S
C109 O106 1.259 . S
C110 O107 1.252 . S
C110 O108 1.273 . S
O111 Mg98 2.010 . S
O111 C103 1.249 . S
Mg112 O113 2.028 . S
Mg112 O119 1.986 . S
Mg112 O121 2.114 . S
Mg112 O122 2.249 1_556 S
Mg112 O125 2.010 1_655 S
O113 Mg112 2.028 . S
O113 C116 1.250 . S
O114 Mg115 2.028 . S
O114 C116 1.248 . S
Mg115 O114 2.028 . S
Mg115 O120 2.032 . S
Mg115 O122 2.077 1_556 S
C116 O113 1.250 . S
C116 O114 1.248 . S
C117 O118 1.264 . S
C117 O125 1.249 . S
O118 C117 1.264 . S
O119 Mg112 1.986 . S
O119 C123 1.246 . S
O120 Mg115 2.032 . S
O120 C123 1.259 . S
O121 Mg112 2.114 . S
O121 C124 1.252 1_556 S
O122 Mg112 2.249 1_554 S
O122 Mg115 2.077 1_554 S
O122 C124 1.274 . S
C123 O119 1.246 . S
C123 O120 1.259 . S
C124 O121 1.252 1_554 S
C124 O122 1.274 . S
O125 Mg112 2.010 1_455 S
O125 C117 1.249 . S
Mg126 O127 2.028 . S
Mg126 O133 1.986 . S
Mg126 O135 2.114 . S
Mg126 O136 2.251 . S
Mg126 O139 2.010 1_565 S
O127 Mg126 2.028 . S
O127 C130 1.250 . S
O128 Mg129 2.028 . S
O128 C130 1.248 . S
Mg129 O128 2.028 . S
Mg129 O134 2.032 . S
Mg129 O136 2.079 . S
C130 O127 1.250 . S
C130 O128 1.248 . S
C131 O132 1.264 . S
C131 O139 1.249 . S
O132 C131 1.264 . S
O133 Mg126 1.986 . S
O133 C137 1.246 . S
O134 Mg129 2.032 . S
O134 C137 1.259 . S
O135 Mg126 2.114 . S
O135 C138 1.252 . S
O136 Mg126 2.251 . S
O136 Mg129 2.079 . S
O136 C138 1.273 . S
C137 O133 1.246 . S
C137 O134 1.259 . S
C138 O135 1.252 . S
C138 O136 1.273 . S
O139 Mg126 2.010 1_545 S
O139 C131 1.249 . S
Mg140 O141 2.028 . S
Mg140 O147 1.986 . S
Mg140 O149 2.114 . S
Mg140 O150 2.249 1_556 S
Mg140 O153 2.010 . S
O141 Mg140 2.028 . S
O141 C144 1.250 . S
O142 Mg143 2.028 . S
O142 C144 1.248 . S
Mg143 O142 2.028 . S
Mg143 O148 2.032 . S
Mg143 O150 2.077 1_556 S
C144 O141 1.250 . S
C144 O142 1.248 . S
C145 O146 1.264 . S
C145 O153 1.249 . S
O146 C145 1.264 . S
O147 Mg140 1.986 . S
O147 C151 1.246 . S
O148 Mg143 2.032 . S
O148 C151 1.259 . S
O149 Mg140 2.114 . S
O149 C152 1.252 1_556 S
O150 Mg140 2.249 1_554 S
O150 Mg143 2.077 1_554 S
O150 C152 1.274 . S
C151 O147 1.246 . S
C151 O148 1.259 . S
C152 O149 1.252 1_554 S
C152 O150 1.274 . S
O153 Mg140 2.010 . S
O153 C145 1.249 . S
Mg154 O155 2.028 . S
Mg154 O161 1.986 . S
Mg154 O163 2.114 . S
Mg154 O164 2.251 . S
Mg154 O167 2.010 . S
O155 Mg154 2.028 . S
O155 C158 1.250 . S
O156 Mg157 2.028 . S
O156 C158 1.248 . S
Mg157 O156 2.028 . S
Mg157 O162 2.032 . S
Mg157 O164 2.079 . S
C158 O155 1.250 . S
C158 O156 1.248 . S
C159 O160 1.264 . S
C159 O167 1.249 . S
O160 C159 1.264 . S
O161 Mg154 1.986 . S
O161 C165 1.246 . S
O162 Mg157 2.032 . S
O162 C165 1.259 . S
O163 Mg154 2.114 . S
O163 C166 1.252 . S
O164 Mg154 2.251 . S
O164 Mg157 2.079 . S
O164 C166 1.273 . S
C165 O161 1.246 . S
C165 O162 1.259 . S
C166 O163 1.252 . S
C166 O164 1.273 . S
O167 Mg154 2.010 . S
O167 C159 1.249 . S
Mg168 O169 2.028 . S
Mg168 O175 1.986 . S
Mg168 O177 2.114 . S
Mg168 O178 2.249 1_554 S
Mg168 O181 2.010 1_655 S
O169 Mg168 2.028 . S
O169 C172 1.250 . S
O170 Mg171 2.028 . S
O170 C172 1.248 . S
Mg171 O170 2.028 . S
Mg171 O176 2.032 . S
Mg171 O178 2.077 1_554 S
C172 O169 1.250 . S
C172 O170 1.248 . S
C173 O174 1.264 . S
C173 O181 1.249 . S
O174 C173 1.264 . S
O175 Mg168 1.986 . S
O175 C179 1.246 . S
O176 Mg171 2.032 . S
O176 C179 1.259 . S
O177 Mg168 2.114 . S
O177 C180 1.252 1_554 S
O178 Mg168 2.249 1_556 S
O178 Mg171 2.077 1_556 S
O178 C180 1.274 . S
C179 O175 1.246 . S
C179 O176 1.259 . S
C180 O177 1.252 1_556 S
C180 O178 1.274 . S
O181 Mg168 2.010 1_455 S
O181 C173 1.249 . S
Mg182 O183 2.028 . S
Mg182 O189 1.986 . S
Mg182 O191 2.114 . S
Mg182 O192 2.251 . S
Mg182 O195 2.010 1_565 S
O183 Mg182 2.028 . S
O183 C186 1.250 . S
O184 Mg185 2.028 . S
O184 C186 1.248 . S
Mg185 O184 2.028 . S
Mg185 O190 2.032 . S
Mg185 O192 2.079 . S
C186 O183 1.250 . S
C186 O184 1.248 . S
C187 O188 1.264 . S
C187 O195 1.249 . S
O188 C187 1.264 . S
O189 Mg182 1.986 . S
O189 C193 1.246 . S
O190 Mg185 2.032 . S
O190 C193 1.259 . S
O191 Mg182 2.114 . S
O191 C194 1.252 . S
O192 Mg182 2.251 . S
O192 Mg185 2.079 . S
O192 C194 1.273 . S
C193 O189 1.246 . S
C193 O190 1.259 . S
C194 O191 1.252 . S
C194 O192 1.273 . S
O195 Mg182 2.010 1_545 S
O195 C187 1.249 . S
Mg196 O197 2.028 . S
Mg196 O203 1.986 . S
Mg196 O205 2.114 . S
Mg196 O206 2.249 1_554 S
Mg196 O209 2.010 . S
O197 Mg196 2.028 . S
O197 C200 1.250 . S
O198 Mg199 2.028 . S
O198 C200 1.248 . S
Mg199 O198 2.028 . S
Mg199 O204 2.032 . S
Mg199 O206 2.077 1_554 S
C200 O197 1.250 . S
C200 O198 1.248 . S
C201 O202 1.264 . S
C201 O209 1.249 . S
O202 C201 1.264 . S
O203 Mg196 1.986 . S
O203 C207 1.246 . S
O204 Mg199 2.032 . S
O204 C207 1.259 . S
O205 Mg196 2.114 . S
O205 C208 1.252 1_554 S
O206 Mg196 2.249 1_556 S
O206 Mg199 2.077 1_556 S
O206 C208 1.274 . S
C207 O203 1.246 . S
C207 O204 1.259 . S
C208 O205 1.252 1_556 S
C208 O206 1.274 . S
O209 Mg196 2.010 . S
O209 C201 1.249 . S
Mg210 O211 2.028 . S
Mg210 O217 1.986 . S
Mg210 O219 2.114 . S
Mg210 O220 2.251 . S
Mg210 O223 2.010 . S
O211 Mg210 2.028 . S
O211 C214 1.250 . S
O212 Mg213 2.028 . S
O212 C214 1.248 . S
Mg213 O212 2.028 . S
Mg213 O218 2.032 . S
Mg213 O220 2.079 . S
C214 O211 1.250 . S
C214 O212 1.248 . S
C215 O216 1.264 . S
C215 O223 1.249 . S
O216 C215 1.264 . S
O217 Mg210 1.986 . S
O217 C221 1.246 . S
O218 Mg213 2.032 . S
O218 C221 1.259 . S
O219 Mg210 2.114 . S
O219 C222 1.252 . S
O220 Mg210 2.251 . S
O220 Mg213 2.079 . S
O220 C222 1.273 . S
C221 O217 1.246 . S
C221 O218 1.259 . S
C222 O219 1.252 . S
C222 O220 1.273 . S
O223 Mg210 2.010 . S
O223 C215 1.249 . S
H224 C230 0.930 . S
H225 C234 0.930 . S
H226 C239 0.929 1_556 S
H227 C237 0.929 1_554 S
H228 C232 0.929 . S
H229 C238 0.929 . S
C230 H224 0.930 . S
C230 C231 1.367 . S
C230 C238 1.378 . S
C231 C230 1.367 . S
C231 C239 1.433 . S
C232 H228 0.929 . S
C232 C234 1.378 . S
C232 C236 1.350 . S
C233 C236 1.463 1_554 S
C233 C238 1.350 . S
C233 N241 1.427 1_554 S
C234 H225 0.930 . S
C234 C232 1.378 . S
C234 C235 1.367 . S
C235 C234 1.367 . S
C235 C237 1.433 . S
C236 C232 1.350 . S
C236 C233 1.463 1_556 S
C236 N240 1.427 1_556 S
C237 H227 0.929 1_556 S
C237 C235 1.433 . S
C237 N240 1.384 1_556 S
C238 H229 0.929 . S
C238 C230 1.378 . S
C238 C233 1.350 . S
C239 H226 0.929 1_554 S
C239 C231 1.433 . S
C239 N241 1.384 1_554 S
N240 C236 1.427 1_554 S
N240 C237 1.384 1_554 S
N241 C233 1.427 1_556 S
N241 C239 1.384 1_556 S
H242 C248 0.930 . S
H243 C252 0.930 . S
H244 C257 0.929 . S
H245 C255 0.929 . S
H246 C250 0.929 . S
H247 C256 0.929 . S
C248 H242 0.930 . S
C248 C249 1.367 . S
C248 C256 1.378 . S
C249 C248 1.367 . S
C249 C257 1.433 . S
C250 H246 0.929 . S
C250 C252 1.378 . S
C250 C254 1.350 . S
C251 C254 1.463 . S
C251 C256 1.350 . S
C251 N259 1.427 . S
C252 H243 0.930 . S
C252 C250 1.378 . S
C252 C253 1.367 . S
C253 C252 1.367 . S
C253 C255 1.433 . S
C254 C250 1.350 . S
C254 C251 1.463 . S
C254 N258 1.427 . S
C255 H245 0.929 . S
C255 C253 1.433 . S
C255 N258 1.384 . S
C256 H247 0.929 . S
C256 C248 1.378 . S
C256 C251 1.350 . S
C257 H244 0.929 . S
C257 C249 1.433 . S
C257 N259 1.384 . S
N258 C254 1.427 . S
N258 C255 1.384 . S
N259 C251 1.427 . S
N259 C257 1.384 . S
H260 C266 0.930 1_556 S
H261 C270 0.930 1_554 S
H262 C275 0.929 . S
H263 C273 0.929 . S
H264 C268 0.929 . S
H265 C274 0.929 . S
C266 H260 0.930 1_554 S
C266 C267 1.367 . S
C266 C274 1.378 1_554 S
C267 C266 1.367 . S
C267 C275 1.433 . S
C268 H264 0.929 . S
C268 C270 1.378 1_554 S
C268 C272 1.350 1_554 S
C269 C272 1.463 1_554 S
C269 C274 1.350 1_554 S
C269 N277 1.427 . S
C270 H261 0.930 1_556 S
C270 C268 1.378 1_556 S
C270 C271 1.367 . S
C271 C270 1.367 . S
C271 C273 1.433 . S
C272 C268 1.350 1_556 S
C272 C269 1.463 1_556 S
C272 N276 1.427 . S
C273 H263 0.929 . S
C273 C271 1.433 . S
C273 N276 1.384 . S
C274 H265 0.929 . S
C274 C266 1.378 1_556 S
C274 C269 1.350 1_556 S
C275 H262 0.929 . S
C275 C267 1.433 . S
C275 N277 1.384 . S
N276 C272 1.427 . S
N276 C273 1.384 . S
N277 C269 1.427 . S
N277 C275 1.384 . S
H278 C284 0.930 . S
H279 C288 0.930 . S
H280 C293 0.929 . S
H281 C291 0.929 . S
H282 C286 0.929 . S
H283 C292 0.929 . S
C284 H278 0.930 . S
C284 C285 1.367 . S
C284 C292 1.378 . S
C285 C284 1.367 . S
C285 C293 1.433 . S
C286 H282 0.929 . S
C286 C288 1.378 . S
C286 C290 1.350 . S
C287 C290 1.463 . S
C287 C292 1.350 . S
C287 N295 1.427 . S
C288 H279 0.930 . S
C288 C286 1.378 . S
C288 C289 1.367 . S
C289 C288 1.367 . S
C289 C291 1.433 . S
C290 C286 1.350 . S
C290 C287 1.463 . S
C290 N294 1.427 . S
C291 H281 0.929 . S
C291 C289 1.433 . S
C291 N294 1.384 . S
C292 H283 0.929 . S
C292 C284 1.378 . S
C292 C287 1.350 . S
C293 H280 0.929 . S
C293 C285 1.433 . S
C293 N295 1.384 . S
N294 C290 1.427 . S
N294 C291 1.384 . S
N295 C287 1.427 . S
N295 C293 1.384 . S
H296 C302 0.930 . S
H297 C306 0.930 . S
H298 C311 0.929 . S
H299 C309 0.929 . S
H300 C304 0.929 . S
H301 C310 0.929 . S
C302 H296 0.930 . S
C302 C303 1.367 1_554 S
C302 C310 1.378 . S
C303 C302 1.367 1_556 S
C303 C311 1.433 . S
C304 H300 0.929 . S
C304 C306 1.378 . S
C304 C308 1.350 1_556 S
C305 C308 1.463 1_556 S
C305 C310 1.350 1_556 S
C305 N313 1.427 . S
C306 H297 0.930 . S
C306 C304 1.378 . S
C306 C307 1.367 1_556 S
C307 C306 1.367 1_554 S
C307 C309 1.433 . S
C308 C304 1.350 1_554 S
C308 C305 1.463 1_554 S
C308 N312 1.427 . S
C309 H299 0.929 . S
C309 C307 1.433 . S
C309 N312 1.384 . S
C310 H301 0.929 . S
C310 C302 1.378 . S
C310 C305 1.350 1_554 S
C311 H298 0.929 . S
C311 C303 1.433 . S
C311 N313 1.384 . S
N312 C308 1.427 . S
N312 C309 1.384 . S
N313 C305 1.427 . S
N313 C311 1.384 . S
H314 C320 0.930 . S
H315 C324 0.930 1_545 S
H316 C329 0.929 1_545 S
H317 C327 0.929 . S
H318 C322 0.929 1_545 S
H319 C328 0.929 . S
C320 H314 0.930 . S
C320 C321 1.367 . S
C320 C328 1.378 . S
C321 C320 1.367 . S
C321 C329 1.433 . S
C322 H318 0.929 1_565 S
C322 C324 1.378 . S
C322 C326 1.350 . S
C323 C326 1.463 . S
C323 C328 1.350 . S
C323 N331 1.427 . S
C324 H315 0.930 1_565 S
C324 C322 1.378 . S
C324 C325 1.367 . S
C325 C324 1.367 . S
C325 C327 1.433 . S
C326 C322 1.350 . S
C326 C323 1.463 . S
C326 N330 1.427 . S
C327 H317 0.929 . S
C327 C325 1.433 . S
C327 N330 1.384 . S
C328 H319 0.929 . S
C328 C320 1.378 . S
C328 C323 1.350 . S
C329 H316 0.929 1_565 S
C329 C321 1.433 . S
C329 N331 1.384 . S
N330 C326 1.427 . S
N330 C327 1.384 . S
N331 C323 1.427 . S
N331 C329 1.384 . S
H332 C338 0.930 1_554 S
H333 C342 0.930 1_556 S
H334 C347 0.929 . S
H335 C345 0.929 . S
H336 C340 0.929 . S
H337 C346 0.929 . S
C338 H332 0.930 1_556 S
C338 C339 1.367 . S
C338 C346 1.378 1_556 S
C339 C338 1.367 . S
C339 C347 1.433 . S
C340 H336 0.929 . S
C340 C342 1.378 1_556 S
C340 C344 1.350 1_556 S
C341 C344 1.463 1_556 S
C341 C346 1.350 1_556 S
C341 N349 1.427 . S
C342 H333 0.930 1_554 S
C342 C340 1.378 1_554 S
C342 C343 1.367 . S
C343 C342 1.367 . S
C343 C345 1.433 . S
C344 C340 1.350 1_554 S
C344 C341 1.463 1_554 S
C344 N348 1.427 . S
C345 H335 0.929 . S
C345 C343 1.433 . S
C345 N348 1.384 . S
C346 H337 0.929 . S
C346 C338 1.378 1_554 S
C346 C341 1.350 1_554 S
C347 H334 0.929 . S
C347 C339 1.433 . S
C347 N349 1.384 . S
N348 C344 1.427 . S
N348 C345 1.384 . S
N349 C341 1.427 . S
N349 C347 1.384 . S
H350 C356 0.930 . S
H351 C360 0.930 . S
H352 C365 0.929 . S
H353 C363 0.929 . S
H354 C358 0.929 . S
H355 C364 0.929 . S
C356 H350 0.930 . S
C356 C357 1.367 . S
C356 C364 1.378 . S
C357 C356 1.367 . S
C357 C365 1.433 . S
C358 H354 0.929 . S
C358 C360 1.378 . S
C358 C362 1.350 . S
C359 C362 1.463 . S
C359 C364 1.350 . S
C359 N367 1.427 . S
C360 H351 0.930 . S
C360 C358 1.378 . S
C360 C361 1.367 . S
C361 C360 1.367 . S
C361 C363 1.433 . S
C362 C358 1.350 . S
C362 C359 1.463 . S
C362 N366 1.427 . S
C363 H353 0.929 . S
C363 C361 1.433 . S
C363 N366 1.384 . S
C364 H355 0.929 . S
C364 C356 1.378 . S
C364 C359 1.350 . S
C365 H352 0.929 . S
C365 C357 1.433 . S
C365 N367 1.384 . S
N366 C362 1.427 . S
N366 C363 1.384 . S
N367 C359 1.427 . S
N367 C365 1.384 . S
H368 C374 0.930 . S
H369 C378 0.930 . S
H370 C383 0.929 . S
H371 C381 0.929 . S
H372 C376 0.929 . S
H373 C382 0.929 . S
C374 H368 0.930 . S
C374 C375 1.367 . S
C374 C382 1.378 . S
C375 C374 1.367 . S
C375 C383 1.433 . S
C376 H372 0.929 . S
C376 C378 1.378 . S
C376 C380 1.350 . S
C377 C380 1.463 . S
C377 C382 1.350 . S
C377 N385 1.427 . S
C378 H369 0.930 . S
C378 C376 1.378 . S
C378 C379 1.367 . S
C379 C378 1.367 . S
C379 C381 1.433 . S
C380 C376 1.350 . S
C380 C377 1.463 . S
C380 N384 1.427 . S
C381 H371 0.929 . S
C381 C379 1.433 . S
C381 N384 1.384 . S
C382 H373 0.929 . S
C382 C374 1.378 . S
C382 C377 1.350 . S
C383 H370 0.929 . S
C383 C375 1.433 . S
C383 N385 1.384 . S
N384 C380 1.427 . S
N384 C381 1.384 . S
N385 C377 1.427 . S
N385 C383 1.384 . S
H386 C392 0.930 . S
H387 C396 0.930 . S
H388 C401 0.929 . S
H389 C399 0.929 . S
H390 C394 0.929 . S
H391 C400 0.929 . S
C392 H386 0.930 . S
C392 C393 1.367 . S
C392 C400 1.378 . S
C393 C392 1.367 . S
C393 C401 1.433 . S
C394 H390 0.929 . S
C394 C396 1.378 . S
C394 C398 1.350 . S
C395 C398 1.463 . S
C395 C400 1.350 . S
C395 N403 1.427 . S
C396 H387 0.930 . S
C396 C394 1.378 . S
C396 C397 1.367 . S
C397 C396 1.367 . S
C397 C399 1.433 . S
C398 C394 1.350 . S
C398 C395 1.463 . S
C398 N402 1.427 . S
C399 H389 0.929 . S
C399 C397 1.433 . S
C399 N402 1.384 . S
C400 H391 0.929 . S
C400 C392 1.378 . S
C400 C395 1.350 . S
C401 H388 0.929 . S
C401 C393 1.433 . S
C401 N403 1.384 . S
N402 C398 1.427 . S
N402 C399 1.384 . S
N403 C395 1.427 . S
N403 C401 1.384 . S
H404 C410 0.930 . S
H405 C414 0.930 . S
H406 C419 0.929 . S
H407 C417 0.929 . S
H408 C412 0.929 . S
H409 C418 0.929 . S
C410 H404 0.930 . S
C410 C411 1.367 . S
C410 C418 1.378 . S
C411 C410 1.367 . S
C411 C419 1.433 . S
C412 H408 0.929 . S
C412 C414 1.378 . S
C412 C416 1.350 . S
C413 C416 1.463 . S
C413 C418 1.350 . S
C413 N421 1.427 . S
C414 H405 0.930 . S
C414 C412 1.378 . S
C414 C415 1.367 . S
C415 C414 1.367 . S
C415 C417 1.433 . S
C416 C412 1.350 . S
C416 C413 1.463 . S
C416 N420 1.427 . S
C417 H407 0.929 . S
C417 C415 1.433 . S
C417 N420 1.384 . S
C418 H409 0.929 . S
C418 C410 1.378 . S
C418 C413 1.350 . S
C419 H406 0.929 . S
C419 C411 1.433 . S
C419 N421 1.384 . S
N420 C416 1.427 . S
N420 C417 1.384 . S
N421 C413 1.427 . S
N421 C419 1.384 . S
H422 C428 0.930 . S
H423 C432 0.930 . S
H424 C437 0.929 . S
H425 C435 0.929 . S
H426 C430 0.929 . S
H427 C436 0.929 . S
C428 H422 0.930 . S
C428 C429 1.367 . S
C428 C436 1.378 . S
C429 C428 1.367 . S
C429 C437 1.433 . S
C430 H426 0.929 . S
C430 C432 1.378 . S
C430 C434 1.350 . S
C431 C434 1.463 . S
C431 C436 1.350 . S
C431 N439 1.427 . S
C432 H423 0.930 . S
C432 C430 1.378 . S
C432 C433 1.367 . S
C433 C432 1.367 . S
C433 C435 1.433 . S
C434 C430 1.350 . S
C434 C431 1.463 . S
C434 N438 1.427 . S
C435 H425 0.929 . S
C435 C433 1.433 . S
C435 N438 1.384 . S
C436 H427 0.929 . S
C436 C428 1.378 . S
C436 C431 1.350 . S
C437 H424 0.929 . S
C437 C429 1.433 . S
C437 N439 1.384 . S
N438 C434 1.427 . S
N438 C435 1.384 . S
N439 C431 1.427 . S
N439 C437 1.384 . S
H440 C446 0.930 . S
H441 C450 0.930 . S
H442 C455 0.929 . S
H443 C453 0.929 . S
H444 C448 0.929 . S
H445 C454 0.929 . S
C446 H440 0.930 . S
C446 C447 1.367 . S
C446 C454 1.378 . S
C447 C446 1.367 . S
C447 C455 1.433 . S
C448 H444 0.929 . S
C448 C450 1.378 . S
C448 C452 1.350 . S
C449 C452 1.463 . S
C449 C454 1.350 . S
C449 N457 1.427 . S
C450 H441 0.930 . S
C450 C448 1.378 . S
C450 C451 1.367 . S
C451 C450 1.367 . S
C451 C453 1.433 . S
C452 C448 1.350 . S
C452 C449 1.463 . S
C452 N456 1.427 . S
C453 H443 0.929 . S
C453 C451 1.433 . S
C453 N456 1.384 . S
C454 H445 0.929 . S
C454 C446 1.378 . S
C454 C449 1.350 . S
C455 H442 0.929 . S
C455 C447 1.433 . S
C455 N457 1.384 . S
N456 C452 1.427 . S
N456 C453 1.384 . S
N457 C449 1.427 . S
N457 C455 1.384 . S
H458 C464 0.930 . S
H459 C468 0.930 . S
H460 C473 0.929 . S
H461 C471 0.929 . S
H462 C466 0.929 . S
H463 C472 0.929 . S
C464 H458 0.930 . S
C464 C465 1.367 . S
C464 C472 1.378 . S
C465 C464 1.367 . S
C465 C473 1.433 . S
C466 H462 0.929 . S
C466 C468 1.378 . S
C466 C470 1.350 . S
C467 C470 1.463 . S
C467 C472 1.350 . S
C467 N475 1.427 . S
C468 H459 0.930 . S
C468 C466 1.378 . S
C468 C469 1.367 . S
C469 C468 1.367 . S
C469 C471 1.433 . S
C470 C466 1.350 . S
C470 C467 1.463 . S
C470 N474 1.427 . S
C471 H461 0.929 . S
C471 C469 1.433 . S
C471 N474 1.384 . S
C472 H463 0.929 . S
C472 C464 1.378 . S
C472 C467 1.350 . S
C473 H460 0.929 . S
C473 C465 1.433 . S
C473 N475 1.384 . S
N474 C470 1.427 . S
N474 C471 1.384 . S
N475 C467 1.427 . S
N475 C473 1.384 . S
H476 C482 0.930 . S
H477 C486 0.930 . S
H478 C491 0.929 . S
H479 C489 0.929 . S
H480 C484 0.929 . S
H481 C490 0.929 . S
C482 H476 0.930 . S
C482 C483 1.367 . S
C482 C490 1.378 . S
C483 C482 1.367 . S
C483 C491 1.433 . S
C484 H480 0.929 . S
C484 C486 1.378 . S
C484 C488 1.350 . S
C485 C488 1.463 . S
C485 C490 1.350 . S
C485 N493 1.427 . S
C486 H477 0.930 . S
C486 C484 1.378 . S
C486 C487 1.367 . S
C487 C486 1.367 . S
C487 C489 1.433 . S
C488 C484 1.350 . S
C488 C485 1.463 . S
C488 N492 1.427 . S
C489 H479 0.929 . S
C489 C487 1.433 . S
C489 N492 1.384 . S
C490 H481 0.929 . S
C490 C482 1.378 . S
C490 C485 1.350 . S
C491 H478 0.929 . S
C491 C483 1.433 . S
C491 N493 1.384 . S
N492 C488 1.427 . S
N492 C489 1.384 . S
N493 C485 1.427 . S
N493 C491 1.384 . S
H494 C500 0.930 . S
H495 C504 0.930 . S
H496 C509 0.929 . S
H497 C507 0.929 . S
H498 C502 0.929 . S
H499 C508 0.929 . S
C500 H494 0.930 . S
C500 C501 1.367 . S
C500 C508 1.378 . S
C501 C500 1.367 . S
C501 C509 1.433 . S
C502 H498 0.929 . S
C502 C504 1.378 . S
C502 C506 1.350 . S
C503 C506 1.463 . S
C503 C508 1.350 . S
C503 N511 1.427 . S
C504 H495 0.930 . S
C504 C502 1.378 . S
C504 C505 1.367 . S
C505 C504 1.367 . S
C505 C507 1.433 . S
C506 C502 1.350 . S
C506 C503 1.463 . S
C506 N510 1.427 . S
C507 H497 0.929 . S
C507 C505 1.433 . S
C507 N510 1.384 . S
C508 H499 0.929 . S
C508 C500 1.378 . S
C508 C503 1.350 . S
C509 H496 0.929 . S
C509 C501 1.433 . S
C509 N511 1.384 . S
N510 C506 1.427 . S
N510 C507 1.384 . S
N511 C503 1.427 . S
N511 C509 1.384 . S
H512 C518 0.930 . S
H513 C522 0.930 . S
H514 C527 0.929 . S
H515 C525 0.929 . S
H516 C520 0.929 . S
H517 C526 0.929 . S
C518 H512 0.930 . S
C518 C519 1.367 . S
C518 C526 1.378 . S
C519 C518 1.367 . S
C519 C527 1.433 . S
C520 H516 0.929 . S
C520 C522 1.378 . S
C520 C524 1.350 . S
C521 C524 1.463 . S
C521 C526 1.350 . S
C521 N529 1.427 . S
C522 H513 0.930 . S
C522 C520 1.378 . S
C522 C523 1.367 . S
C523 C522 1.367 . S
C523 C525 1.433 . S
C524 C520 1.350 . S
C524 C521 1.463 . S
C524 N528 1.427 . S
C525 H515 0.929 . S
C525 C523 1.433 . S
C525 N528 1.384 . S
C526 H517 0.929 . S
C526 C518 1.378 . S
C526 C521 1.350 . S
C527 H514 0.929 . S
C527 C519 1.433 . S
C527 N529 1.384 . S
N528 C524 1.427 . S
N528 C525 1.384 . S
N529 C521 1.427 . S
N529 C527 1.384 . S
H530 C536 0.930 . S
H531 C540 0.930 . S
H532 C545 0.929 . S
H533 C543 0.929 . S
H534 C538 0.929 . S
H535 C544 0.929 . S
C536 H530 0.930 . S
C536 C537 1.367 . S
C536 C544 1.378 . S
C537 C536 1.367 . S
C537 C545 1.433 . S
C538 H534 0.929 . S
C538 C540 1.378 . S
C538 C542 1.350 . S
C539 C542 1.463 . S
C539 C544 1.350 . S
C539 N547 1.427 . S
C540 H531 0.930 . S
C540 C538 1.378 . S
C540 C541 1.367 . S
C541 C540 1.367 . S
C541 C543 1.433 . S
C542 C538 1.350 . S
C542 C539 1.463 . S
C542 N546 1.427 . S
C543 H533 0.929 . S
C543 C541 1.433 . S
C543 N546 1.384 . S
C544 H535 0.929 . S
C544 C536 1.378 . S
C544 C539 1.350 . S
C545 H532 0.929 . S
C545 C537 1.433 . S
C545 N547 1.384 . S
N546 C542 1.427 . S
N546 C543 1.384 . S
N547 C539 1.427 . S
N547 C545 1.384 . S
H548 C554 0.930 . S
H549 C558 0.930 . S
H550 C563 0.929 . S
H551 C561 0.929 1_556 S
H552 C556 0.929 . S
H553 C562 0.929 . S
C554 H548 0.930 . S
C554 C555 1.367 . S
C554 C562 1.378 . S
C555 C554 1.367 . S
C555 C563 1.433 . S
C556 H552 0.929 . S
C556 C558 1.378 . S
C556 C560 1.350 . S
C557 C560 1.463 . S
C557 C562 1.350 . S
C557 N565 1.427 . S
C558 H549 0.930 . S
C558 C556 1.378 . S
C558 C559 1.367 . S
C559 C558 1.367 . S
C559 C561 1.433 . S
C560 C556 1.350 . S
C560 C557 1.463 . S
C560 N564 1.427 . S
C561 H551 0.929 1_554 S
C561 C559 1.433 . S
C561 N564 1.384 . S
C562 H553 0.929 . S
C562 C554 1.378 . S
C562 C557 1.350 . S
C563 H550 0.929 . S
C563 C555 1.433 . S
C563 N565 1.384 . S
N564 C560 1.427 . S
N564 C561 1.384 . S
N565 C557 1.427 . S
N565 C563 1.384 . S
H566 C572 0.930 . S
H567 C576 0.930 . S
H568 C581 0.929 . S
H569 C579 0.929 . S
H570 C574 0.929 . S
H571 C580 0.929 . S
C572 H566 0.930 . S
C572 C573 1.367 . S
C572 C580 1.378 . S
C573 C572 1.367 . S
C573 C581 1.433 . S
C574 H570 0.929 . S
C574 C576 1.378 . S
C574 C578 1.350 . S
C575 C578 1.463 . S
C575 C580 1.350 . S
C575 N583 1.427 . S
C576 H567 0.930 . S
C576 C574 1.378 . S
C576 C577 1.367 . S
C577 C576 1.367 . S
C577 C579 1.433 . S
C578 C574 1.350 . S
C578 C575 1.463 . S
C578 N582 1.427 . S
C579 H569 0.929 . S
C579 C577 1.433 . S
C579 N582 1.384 . S
C580 H571 0.929 . S
C580 C572 1.378 . S
C580 C575 1.350 . S
C581 H568 0.929 . S
C581 C573 1.433 . S
C581 N583 1.384 . S
N582 C578 1.427 . S
N582 C579 1.384 . S
N583 C575 1.427 . S
N583 C581 1.384 . S
H584 C590 0.930 . S
H585 C594 0.930 . S
H586 C599 0.929 . S
H587 C597 0.929 . S
H588 C592 0.929 . S
H589 C598 0.929 . S
C590 H584 0.930 . S
C590 C591 1.367 . S
C590 C598 1.378 . S
C591 C590 1.367 . S
C591 C599 1.433 . S
C592 H588 0.929 . S
C592 C594 1.378 . S
C592 C596 1.350 . S
C593 C596 1.463 . S
C593 C598 1.350 . S
C593 N601 1.427 . S
C594 H585 0.930 . S
C594 C592 1.378 . S
C594 C595 1.367 . S
C595 C594 1.367 . S
C595 C597 1.433 . S
C596 C592 1.350 . S
C596 C593 1.463 . S
C596 N600 1.427 . S
C597 H587 0.929 . S
C597 C595 1.433 . S
C597 N600 1.384 . S
C598 H589 0.929 . S
C598 C590 1.378 . S
C598 C593 1.350 . S
C599 H586 0.929 . S
C599 C591 1.433 . S
C599 N601 1.384 . S
N600 C596 1.427 . S
N600 C597 1.384 . S
N601 C593 1.427 . S
N601 C599 1.384 . S
H602 C608 0.930 . S
H603 C612 0.930 . S
H604 C617 0.929 . S
H605 C615 0.929 . S
H606 C610 0.929 . S
H607 C616 0.929 . S
C608 H602 0.930 . S
C608 C609 1.367 . S
C608 C616 1.378 . S
C609 C608 1.367 . S
C609 C617 1.433 . S
C610 H606 0.929 . S
C610 C612 1.378 . S
C610 C614 1.350 . S
C611 C614 1.463 . S
C611 C616 1.350 . S
C611 N619 1.427 . S
C612 H603 0.930 . S
C612 C610 1.378 . S
C612 C613 1.367 . S
C613 C612 1.367 . S
C613 C615 1.433 . S
C614 C610 1.350 . S
C614 C611 1.463 . S
C614 N618 1.427 . S
C615 H605 0.929 . S
C615 C613 1.433 . S
C615 N618 1.384 . S
C616 H607 0.929 . S
C616 C608 1.378 . S
C616 C611 1.350 . S
C617 H604 0.929 . S
C617 C609 1.433 . S
C617 N619 1.384 . S
N618 C614 1.427 . S
N618 C615 1.384 . S
N619 C611 1.427 . S
N619 C617 1.384 . S
H620 C626 0.930 . S
H621 C630 0.930 . S
H622 C635 0.929 . S
H623 C633 0.929 . S
H624 C628 0.929 . S
H625 C634 0.929 . S
C626 H620 0.930 . S
C626 C627 1.367 . S
C626 C634 1.378 . S
C627 C626 1.367 . S
C627 C635 1.433 . S
C628 H624 0.929 . S
C628 C630 1.378 . S
C628 C632 1.350 . S
C629 C632 1.463 . S
C629 C634 1.350 . S
C629 N637 1.427 . S
C630 H621 0.930 . S
C630 C628 1.378 . S
C630 C631 1.367 . S
C631 C630 1.367 . S
C631 C633 1.433 . S
C632 C628 1.350 . S
C632 C629 1.463 . S
C632 N636 1.427 . S
C633 H623 0.929 . S
C633 C631 1.433 . S
C633 N636 1.384 . S
C634 H625 0.929 . S
C634 C626 1.378 . S
C634 C629 1.350 . S
C635 H622 0.929 . S
C635 C627 1.433 . S
C635 N637 1.384 . S
N636 C632 1.427 . S
N636 C633 1.384 . S
N637 C629 1.427 . S
N637 C635 1.384 . S
H638 C644 0.930 . S
H639 C648 0.930 . S
H640 C653 0.929 . S
H641 C651 0.929 . S
H642 C646 0.929 . S
H643 C652 0.929 . S
C644 H638 0.930 . S
C644 C645 1.367 . S
C644 C652 1.378 . S
C645 C644 1.367 . S
C645 C653 1.433 . S
C646 H642 0.929 . S
C646 C648 1.378 . S
C646 C650 1.350 . S
C647 C650 1.463 . S
C647 C652 1.350 . S
C647 N655 1.427 . S
C648 H639 0.930 . S
C648 C646 1.378 . S
C648 C649 1.367 . S
C649 C648 1.367 . S
C649 C651 1.433 . S
C650 C646 1.350 . S
C650 C647 1.463 . S
C650 N654 1.427 . S
C651 H641 0.929 . S
C651 C649 1.433 . S
C651 N654 1.384 . S
C652 H643 0.929 . S
C652 C644 1.378 . S
C652 C647 1.350 . S
C653 H640 0.929 . S
C653 C645 1.433 . S
C653 N655 1.384 . S
N654 C650 1.427 . S
N654 C651 1.384 . S
N655 C647 1.427 . S
N655 C653 1.384 . S
H656 C662 0.930 . S
H657 C666 0.930 . S
H658 C671 0.929 . S
H659 C669 0.929 . S
H660 C664 0.929 . S
H661 C670 0.929 . S
C662 H656 0.930 . S
C662 C663 1.367 . S
C662 C670 1.378 . S
C663 C662 1.367 . S
C663 C671 1.433 . S
C664 H660 0.929 . S
C664 C666 1.378 . S
C664 C668 1.350 . S
C665 C668 1.463 . S
C665 C670 1.350 . S
C665 N673 1.427 . S
C666 H657 0.930 . S
C666 C664 1.378 . S
C666 C667 1.367 . S
C667 C666 1.367 . S
C667 C669 1.433 . S
C668 C664 1.350 . S
C668 C665 1.463 . S
C668 N672 1.427 . S
C669 H659 0.929 . S
C669 C667 1.433 . S
C669 N672 1.384 . S
C670 H661 0.929 . S
C670 C662 1.378 . S
C670 C665 1.350 . S
C671 H658 0.929 . S
C671 C663 1.433 . S
C671 N673 1.384 . S
N672 C668 1.427 . S
N672 C669 1.384 . S
N673 C665 1.427 . S
N673 C671 1.384 . S
H674 C680 0.930 . S
H675 C684 0.930 . S
H676 C689 0.929 . S
H677 C687 0.929 . S
H678 C682 0.929 . S
H679 C688 0.929 . S
C680 H674 0.930 . S
C680 C681 1.367 . S
C680 C688 1.378 . S
C681 C680 1.367 . S
C681 C689 1.433 . S
C682 H678 0.929 . S
C682 C684 1.378 . S
C682 C686 1.350 . S
C683 C686 1.463 . S
C683 C688 1.350 . S
C683 N691 1.427 . S
C684 H675 0.930 . S
C684 C682 1.378 . S
C684 C685 1.367 . S
C685 C684 1.367 . S
C685 C687 1.433 . S
C686 C682 1.350 . S
C686 C683 1.463 . S
C686 N690 1.427 . S
C687 H677 0.929 . S
C687 C685 1.433 . S
C687 N690 1.384 . S
C688 H679 0.929 . S
C688 C680 1.378 . S
C688 C683 1.350 . S
C689 H676 0.929 . S
C689 C681 1.433 . S
C689 N691 1.384 . S
N690 C686 1.427 . S
N690 C687 1.384 . S
N691 C683 1.427 . S
N691 C689 1.384 . S
H692 C698 0.930 . S
H693 C702 0.930 . S
H694 C707 0.929 . S
H695 C705 0.929 . S
H696 C700 0.929 . S
H697 C706 0.929 . S
C698 H692 0.930 . S
C698 C699 1.367 . S
C698 C706 1.378 . S
C699 C698 1.367 . S
C699 C707 1.433 . S
C700 H696 0.929 . S
C700 C702 1.378 . S
C700 C704 1.350 . S
C701 C704 1.463 . S
C701 C706 1.350 . S
C701 N709 1.427 . S
C702 H693 0.930 . S
C702 C700 1.378 . S
C702 C703 1.367 . S
C703 C702 1.367 . S
C703 C705 1.433 . S
C704 C700 1.350 . S
C704 C701 1.463 . S
C704 N708 1.427 . S
C705 H695 0.929 . S
C705 C703 1.433 . S
C705 N708 1.384 . S
C706 H697 0.929 . S
C706 C698 1.378 . S
C706 C701 1.350 . S
C707 H694 0.929 . S
C707 C699 1.433 . S
C707 N709 1.384 . S
N708 C704 1.427 . S
N708 C705 1.384 . S
N709 C701 1.427 . S
N709 C707 1.384 . S
H710 C716 0.930 . S
H711 C720 0.930 . S
H712 C725 0.929 . S
H713 C723 0.929 . S
H714 C718 0.929 . S
H715 C724 0.929 . S
C716 H710 0.930 . S
C716 C717 1.367 . S
C716 C724 1.378 . S
C717 C716 1.367 . S
C717 C725 1.433 . S
C718 H714 0.929 . S
C718 C720 1.378 . S
C718 C722 1.350 . S
C719 C722 1.463 . S
C719 C724 1.350 . S
C719 N727 1.427 . S
C720 H711 0.930 . S
C720 C718 1.378 . S
C720 C721 1.367 . S
C721 C720 1.367 . S
C721 C723 1.433 . S
C722 C718 1.350 . S
C722 C719 1.463 . S
C722 N726 1.427 . S
C723 H713 0.929 . S
C723 C721 1.433 . S
C723 N726 1.384 . S
C724 H715 0.929 . S
C724 C716 1.378 . S
C724 C719 1.350 . S
C725 H712 0.929 . S
C725 C717 1.433 . S
C725 N727 1.384 . S
N726 C722 1.427 . S
N726 C723 1.384 . S
N727 C719 1.427 . S
N727 C725 1.384 . S
H728 C734 0.930 . S
H729 C738 0.930 . S
H730 C743 0.929 . S
H731 C741 0.929 . S
H732 C736 0.929 . S
H733 C742 0.929 . S
C734 H728 0.930 . S
C734 C735 1.367 . S
C734 C742 1.378 . S
C735 C734 1.367 . S
C735 C743 1.433 . S
C736 H732 0.929 . S
C736 C738 1.378 . S
C736 C740 1.350 . S
C737 C740 1.463 . S
C737 C742 1.350 . S
C737 N745 1.427 . S
C738 H729 0.930 . S
C738 C736 1.378 . S
C738 C739 1.367 . S
C739 C738 1.367 . S
C739 C741 1.433 . S
C740 C736 1.350 . S
C740 C737 1.463 . S
C740 N744 1.427 . S
C741 H731 0.929 . S
C741 C739 1.433 . S
C741 N744 1.384 . S
C742 H733 0.929 . S
C742 C734 1.378 . S
C742 C737 1.350 . S
C743 H730 0.929 . S
C743 C735 1.433 . S
C743 N745 1.384 . S
N744 C740 1.427 . S
N744 C741 1.384 . S
N745 C737 1.427 . S
N745 C743 1.384 . S
H746 C752 0.930 . S
H747 C756 0.930 . S
H748 C761 0.929 . S
H749 C759 0.929 . S
H750 C754 0.929 . S
H751 C760 0.929 . S
C752 H746 0.930 . S
C752 C753 1.367 . S
C752 C760 1.378 . S
C753 C752 1.367 . S
C753 C761 1.433 . S
C754 H750 0.929 . S
C754 C756 1.378 . S
C754 C758 1.350 . S
C755 C758 1.463 . S
C755 C760 1.350 . S
C755 N763 1.427 . S
C756 H747 0.930 . S
C756 C754 1.378 . S
C756 C757 1.367 . S
C757 C756 1.367 . S
C757 C759 1.433 . S
C758 C754 1.350 . S
C758 C755 1.463 . S
C758 N762 1.427 . S
C759 H749 0.929 . S
C759 C757 1.433 . S
C759 N762 1.384 . S
C760 H751 0.929 . S
C760 C752 1.378 . S
C760 C755 1.350 . S
C761 H748 0.929 . S
C761 C753 1.433 . S
C761 N763 1.384 . S
N762 C758 1.427 . S
N762 C759 1.384 . S
N763 C755 1.427 . S
N763 C761 1.384 . S
H764 C770 0.930 . S
H765 C774 0.930 . S
H766 C779 0.929 . S
H767 C777 0.929 . S
H768 C772 0.929 . S
H769 C778 0.929 . S
C770 H764 0.930 . S
C770 C771 1.367 . S
C770 C778 1.378 . S
C771 C770 1.367 . S
C771 C779 1.433 . S
C772 H768 0.929 . S
C772 C774 1.378 . S
C772 C776 1.350 . S
C773 C776 1.463 . S
C773 C778 1.350 . S
C773 N781 1.427 . S
C774 H765 0.930 . S
C774 C772 1.378 . S
C774 C775 1.367 . S
C775 C774 1.367 . S
C775 C777 1.433 . S
C776 C772 1.350 . S
C776 C773 1.463 . S
C776 N780 1.427 . S
C777 H767 0.929 . S
C777 C775 1.433 . S
C777 N780 1.384 . S
C778 H769 0.929 . S
C778 C770 1.378 . S
C778 C773 1.350 . S
C779 H766 0.929 . S
C779 C771 1.433 . S
C779 N781 1.384 . S
N780 C776 1.427 . S
N780 C777 1.384 . S
N781 C773 1.427 . S
N781 C779 1.384 . S
H782 C788 0.930 . S
H783 C792 0.930 . S
H784 C797 0.929 . S
H785 C795 0.929 . S
H786 C790 0.929 . S
H787 C796 0.929 . S
C788 H782 0.930 . S
C788 C789 1.367 . S
C788 C796 1.378 . S
C789 C788 1.367 . S
C789 C797 1.433 . S
C790 H786 0.929 . S
C790 C792 1.378 . S
C790 C794 1.350 . S
C791 C794 1.463 . S
C791 C796 1.350 . S
C791 N799 1.427 . S
C792 H783 0.930 . S
C792 C790 1.378 . S
C792 C793 1.367 . S
C793 C792 1.367 . S
C793 C795 1.433 . S
C794 C790 1.350 . S
C794 C791 1.463 . S
C794 N798 1.427 . S
C795 H785 0.929 . S
C795 C793 1.433 . S
C795 N798 1.384 . S
C796 H787 0.929 . S
C796 C788 1.378 . S
C796 C791 1.350 . S
C797 H784 0.929 . S
C797 C789 1.433 . S
C797 N799 1.384 . S
N798 C794 1.427 . S
N798 C795 1.384 . S
N799 C791 1.427 . S
N799 C797 1.384 . S
C231 C11 1.057 . S
C235 C67 1.067 . S
C249 C81 1.060 . S
C253 C25 1.066 . S
C267 C39 1.048 . S
C271 C95 1.058 . S
C285 C53 1.067 . S
C289 C109 1.059 . S
C303 C123 1.050 . S
C307 C179 1.054 . S
C321 C193 1.048 . S
C325 C137 1.062 . S
C339 C151 1.048 . S
C343 C207 1.059 . S
C357 C165 1.065 . S
C361 C221 1.049 . S
C375 C12 1.118 . S
C379 C214 1.104 . S
C393 C172 1.104 . S
C397 C26 1.117 . S
C411 C40 1.123 . S
C415 C186 1.115 . S
C429 C200 1.107 . S
C433 C54 1.120 . S
C447 C130 1.113 . S
C451 C68 1.121 . S
C465 C144 1.116 . S
C469 C82 1.124 . S
C483 C158 1.106 . S
C487 C96 1.119 . S
C501 C116 1.107 . S
C505 C110 1.120 . S
C519 C124 1.117 . S
C523 C102 1.104 . S
C537 C60 1.116 . S
C541 C138 1.124 . S
C555 C74 1.116 . S
C559 C152 1.124 . S
C573 C166 1.122 . S
C577 C88 1.114 . S
C591 C18 1.107 . S
C595 C180 1.120 . S
C609 C194 1.123 . S
C613 C32 1.113 . S
C627 C208 1.123 . S
C631 C46 1.116 . S
C645 C222 1.117 . S
C649 C4 1.104 . S
C663 C103 1.321 . S
C667 C5 1.318 . S
C681 C19 1.324 . S
C685 C61 1.318 . S
C699 C33 1.322 . S
C703 C75 1.318 . S
C717 C47 1.318 . S
C721 C89 1.321 . S
C735 C215 1.333 . S
C739 C117 1.324 . S
C753 C173 1.339 . S
C757 C131 1.337 . S
C771 C187 1.321 . S
C775 C145 1.331 . S
C789 C201 1.319 . S
C793 C159 1.326 . S
