# Generated by pormake.
# Topology zfc, (5)-cn, num edge types: 1
# Building blocks:
#     Node 0, Type 0, BuildingBlock: XOMCOT_clean_sbu_1, # of connection points: 5
#     Node 1, Type 0, BuildingBlock: XOMCOT_clean_sbu_1, # of connection points: 5
#     Node 2, Type 0, BuildingBlock: XOMCOT_clean_sbu_1, # of connection points: 5
#     Node 3, Type 0, BuildingBlock: XOMCOT_clean_sbu_1, # of connection points: 5
#     Node 4, Type 0, BuildingBlock: XOMCOT_clean_sbu_1, # of connection points: 5
#     Node 5, Type 0, BuildingBlock: XOMCOT_clean_sbu_1, # of connection points: 5
#     Node 6, Type 0, BuildingBlock: XOMCOT_clean_sbu_1, # of connection points: 5
#     Node 7, Type 0, BuildingBlock: XOMCOT_clean_sbu_1, # of connection points: 5
#     Node 8, Type 0, BuildingBlock: XOMCOT_clean_sbu_1, # of connection points: 5
#     Node 9, Type 0, BuildingBlock: XOMCOT_clean_sbu_1, # of connection points: 5
#     Node 10, Type 0, BuildingBlock: XOMCOT_clean_sbu_1, # of connection points: 5
#     Node 11, Type 0, BuildingBlock: XOMCOT_clean_sbu_1, # of connection points: 5
#     Node 12, Type 0, BuildingBlock: XOMCOT_clean_sbu_1, # of connection points: 5
#     Node 13, Type 0, BuildingBlock: XOMCOT_clean_sbu_1, # of connection points: 5
#     Node 14, Type 0, BuildingBlock: XOMCOT_clean_sbu_1, # of connection points: 5
#     Node 15, Type 0, BuildingBlock: XOMCOT_clean_sbu_1, # of connection points: 5
#     Edge 16, Type (0, 0), BuildingBlock: XIVTED_clean_linker_0, # of connection points: 2
#     Edge 17, Type (0, 0), BuildingBlock: XIVTED_clean_linker_0, # of connection points: 2
#     Edge 18, Type (0, 0), BuildingBlock: XIVTED_clean_linker_0, # of connection points: 2
#     Edge 19, Type (0, 0), BuildingBlock: XIVTED_clean_linker_0, # of connection points: 2
#     Edge 20, Type (0, 0), BuildingBlock: XIVTED_clean_linker_0, # of connection points: 2
#     Edge 21, Type (0, 0), BuildingBlock: XIVTED_clean_linker_0, # of connection points: 2
#     Edge 22, Type (0, 0), BuildingBlock: XIVTED_clean_linker_0, # of connection points: 2
#     Edge 23, Type (0, 0), BuildingBlock: XIVTED_clean_linker_0, # of connection points: 2
#     Edge 24, Type (0, 0), BuildingBlock: XIVTED_clean_linker_0, # of connection points: 2
#     Edge 25, Type (0, 0), BuildingBlock: XIVTED_clean_linker_0, # of connection points: 2
#     Edge 26, Type (0, 0), BuildingBlock: XIVTED_clean_linker_0, # of connection points: 2
#     Edge 27, Type (0, 0), BuildingBlock: XIVTED_clean_linker_0, # of connection points: 2
#     Edge 28, Type (0, 0), BuildingBlock: XIVTED_clean_linker_0, # of connection points: 2
#     Edge 29, Type (0, 0), BuildingBlock: XIVTED_clean_linker_0, # of connection points: 2
#     Edge 30, Type (0, 0), BuildingBlock: XIVTED_clean_linker_0, # of connection points: 2
#     Edge 31, Type (0, 0), BuildingBlock: XIVTED_clean_linker_0, # of connection points: 2
#     Edge 32, Type (0, 0), BuildingBlock: XIVTED_clean_linker_0, # of connection points: 2
#     Edge 33, Type (0, 0), BuildingBlock: XIVTED_clean_linker_0, # of connection points: 2
#     Edge 34, Type (0, 0), BuildingBlock: XIVTED_clean_linker_0, # of connection points: 2
#     Edge 35, Type (0, 0), BuildingBlock: XIVTED_clean_linker_0, # of connection points: 2
#     Edge 36, Type (0, 0), BuildingBlock: XIVTED_clean_linker_0, # of connection points: 2
#     Edge 37, Type (0, 0), BuildingBlock: XIVTED_clean_linker_0, # of connection points: 2
#     Edge 38, Type (0, 0), BuildingBlock: XIVTED_clean_linker_0, # of connection points: 2
#     Edge 39, Type (0, 0), BuildingBlock: XIVTED_clean_linker_0, # of connection points: 2
#     Edge 40, Type (0, 0), BuildingBlock: XIVTED_clean_linker_0, # of connection points: 2
#     Edge 41, Type (0, 0), BuildingBlock: XIVTED_clean_linker_0, # of connection points: 2
#     Edge 42, Type (0, 0), BuildingBlock: XIVTED_clean_linker_0, # of connection points: 2
#     Edge 43, Type (0, 0), BuildingBlock: XIVTED_clean_linker_0, # of connection points: 2
#     Edge 44, Type (0, 0), BuildingBlock: XIVTED_clean_linker_0, # of connection points: 2
#     Edge 45, Type (0, 0), BuildingBlock: XIVTED_clean_linker_0, # of connection points: 2
#     Edge 46, Type (0, 0), BuildingBlock: XIVTED_clean_linker_0, # of connection points: 2
#     Edge 47, Type (0, 0), BuildingBlock: XIVTED_clean_linker_0, # of connection points: 2
#     Edge 48, Type (0, 0), BuildingBlock: XIVTED_clean_linker_0, # of connection points: 2
#     Edge 49, Type (0, 0), BuildingBlock: XIVTED_clean_linker_0, # of connection points: 2
#     Edge 50, Type (0, 0), BuildingBlock: XIVTED_clean_linker_0, # of connection points: 2
#     Edge 51, Type (0, 0), BuildingBlock: XIVTED_clean_linker_0, # of connection points: 2
#     Edge 52, Type (0, 0), BuildingBlock: XIVTED_clean_linker_0, # of connection points: 2
#     Edge 53, Type (0, 0), BuildingBlock: XIVTED_clean_linker_0, # of connection points: 2
#     Edge 54, Type (0, 0), BuildingBlock: XIVTED_clean_linker_0, # of connection points: 2
#     Edge 55, Type (0, 0), BuildingBlock: XIVTED_clean_linker_0, # of connection points: 2
# Relax obj value: 0.150
# Max RMSD: 0.157
# Mean RMSD: 0.157
data_MOF--net-zfc--node1-XOMCOT_clean_sbu_1--edge1-XIVTED_clean_linker_0
_symmetry_space_group_name_H-M    P1
_symmetry_Int_Tables_number       1
_symmetry_cell_setting            triclinic
loop_
_symmetry_equiv_pos_as_xyz
'x, y, z'
_cell_length_a     75.524436
_cell_length_b     75.465521
_cell_length_c     17.60597
_cell_angle_alpha  90.020704
_cell_angle_beta   90.020075
_cell_angle_gamma 90.010536
loop_
_atom_site_label
_atom_site_type_symbol
_atom_site_fract_x
_atom_site_fract_y
_atom_site_fract_z
_atom_type_partial_charge
C0 C 0.25264 0.09482 0.12792 0.0
C1 C 0.25044 0.09392 0.20553 0.0
N2 N 0.26657 0.09408 0.23847 0.0
N3 N 0.27007 0.09568 0.11193 0.0
C4 C 0.27818 0.09487 0.18021 0.0
H5 H 0.2422 0.09529 0.08596 0.0
Co6 Co 0.28037 0.0986 0.01663 0.0
C7 C 0.31067 0.12323 0.04629 0.0
O8 O 0.30789 0.1316 0.98193 0.0
N9 N 0.29085 0.101 0.91924 0.0
C10 C 0.31041 0.09796 0.82526 0.0
C11 C 0.30803 0.0978 0.90271 0.0
C12 C 0.28302 0.10256 0.8503 0.0
N13 N 0.2946 0.10084 0.79229 0.0
O14 O 0.29157 0.07599 0.02717 0.0
H15 H 0.31809 0.09465 0.9443 0.0
H16 H 0.26899 0.10407 0.8419 0.0
O17 O 0.30075 0.11019 0.06468 0.0
C18 C 0.28508 0.06398 0.98459 0.0
O19 O 0.27209 0.06812 0.93818 0.0
N20 N 0.26791 0.1201 0.00603 0.0
C21 C 0.24375 0.14804 0.99367 0.0
C22 C 0.25863 0.14949 0.041 0.0
C23 C 0.27035 0.1352 0.04775 0.0
C24 C 0.25314 0.11829 0.96235 0.0
C25 C 0.24116 0.13216 0.9538 0.0
H26 H 0.28067 0.13607 0.08982 0.0
H27 H 0.25015 0.10561 0.93684 0.0
H28 H 0.29237 0.0948 0.18704 0.0
H29 H 0.2379 0.09377 0.23522 0.0
H30 H 0.32263 0.09512 0.79557 0.0
H31 H 0.2607 0.16118 0.07557 0.0
H32 H 0.22971 0.13025 0.91767 0.0
C33 C 0.89798 0.2487 0.16114 0.0
C34 C 0.89856 0.24654 0.23873 0.0
N35 N 0.90115 0.26254 0.27091 0.0
N36 N 0.89996 0.26603 0.14444 0.0
C37 C 0.90222 0.27404 0.21234 0.0
H38 H 0.89602 0.23832 0.11968 0.0
Co39 Co 0.89906 0.27651 0.04851 0.0
C40 C 0.8778 0.30943 0.07405 0.0
O41 O 0.87012 0.30787 0.00739 0.0
N42 N 0.8988 0.28705 0.95132 0.0
C43 C 0.90494 0.30612 0.85832 0.0
C44 C 0.9045 0.30363 0.93565 0.0
C45 C 0.89635 0.27962 0.88211 0.0
N46 N 0.89984 0.29094 0.82458 0.0
O47 O 0.92271 0.28497 0.06153 0.0
H48 H 0.90867 0.31316 0.97789 0.0
H49 H 0.8932 0.26587 0.87321 0.0
O50 O 0.88932 0.29802 0.09492 0.0
C51 C 0.93299 0.27234 0.04284 0.0
O52 O 0.92588 0.25721 0.02171 0.0
N53 N 0.8765 0.2664 0.03434 0.0
C54 C 0.84753 0.24344 0.02463 0.0
C55 C 0.84652 0.259 0.06808 0.0
C56 C 0.86131 0.27017 0.07345 0.0
C57 C 0.87762 0.25126 0.99253 0.0
C58 C 0.86326 0.23986 0.98539 0.0
H59 H 0.86079 0.281 0.11331 0.0
H60 H 0.89021 0.24732 0.96885 0.0
H61 H 0.90431 0.28811 0.21871 0.0
H62 H 0.89716 0.23413 0.26896 0.0
H63 H 0.90908 0.31808 0.82947 0.0
H64 H 0.83484 0.26193 0.10149 0.0
H65 H 0.86476 0.22792 0.9519 0.0
C66 C 0.74013 0.91786 0.13383 0.0
C67 C 0.74273 0.918 0.21136 0.0
N68 N 0.73256 0.90522 0.24245 0.0
N69 N 0.72838 0.90508 0.1162 0.0
C70 C 0.7242 0.89749 0.18329 0.0
H71 H 0.74595 0.92687 0.09313 0.0
Co72 Co 0.71901 0.90074 0.02043 0.0
C73 C 0.68781 0.87705 0.05055 0.0
O74 O 0.69025 0.86813 0.98726 0.0
N75 N 0.70958 0.8969 0.92256 0.0
C76 C 0.69126 0.89886 0.82379 0.0
C77 C 0.69272 0.9003 0.90132 0.0
C78 C 0.71818 0.89389 0.85635 0.0
N79 N 0.70734 0.89494 0.79546 0.0
O80 O 0.70739 0.92329 0.02392 0.0
H81 H 0.6823 0.90446 0.93951 0.0
H82 H 0.73227 0.89185 0.85203 0.0
O83 O 0.69829 0.88973 0.06779 0.0
C84 C 0.71355 0.93502 0.9791 0.0
O85 O 0.7266 0.93076 0.93327 0.0
N86 N 0.73188 0.87945 0.01678 0.0
C87 C 0.75681 0.85208 0.01245 0.0
C88 C 0.74071 0.84992 0.05118 0.0
C89 C 0.72853 0.86388 0.05382 0.0
C90 C 0.74767 0.88191 0.98101 0.0
C91 C 0.76015 0.86835 0.97683 0.0
H92 H 0.71697 0.86227 0.0888 0.0
H93 H 0.75073 0.89471 0.95671 0.0
H94 H 0.71506 0.88656 0.18887 0.0
H95 H 0.75086 0.92731 0.24251 0.0
H96 H 0.67952 0.90162 0.79057 0.0
H97 H 0.73787 0.83783 0.08198 0.0
H98 H 0.7724 0.87073 0.94659 0.0
C99 C 0.09559 0.74658 0.13001 0.0
C100 C 0.09426 0.74848 0.20759 0.0
N101 N 0.09267 0.73224 0.23894 0.0
N102 N 0.09508 0.72921 0.11234 0.0
C103 C 0.09286 0.72088 0.17953 0.0
H104 H 0.09736 0.75717 0.08942 0.0
Co105 Co 0.09813 0.71888 0.0171 0.0
C106 C 0.12192 0.6877 0.04824 0.0
O107 O 0.13019 0.68934 0.98296 0.0
N108 N 0.10061 0.7084 0.92007 0.0
C109 C 0.09673 0.68917 0.82536 0.0
C110 C 0.09687 0.69135 0.9029 0.0
C111 C 0.10226 0.71636 0.85154 0.0
N112 N 0.09998 0.705 0.79304 0.0
O113 O 0.07546 0.70778 0.02694 0.0
H114 H 0.09341 0.6813 0.94411 0.0
H115 H 0.10411 0.73039 0.84395 0.0
O116 O 0.10948 0.69846 0.06571 0.0
C117 C 0.06348 0.7142 0.98411 0.0
O118 O 0.0676 0.72718 0.93762 0.0
N119 N 0.11974 0.73118 0.00711 0.0
C120 C 0.14758 0.75558 0.99957 0.0
C121 C 0.14906 0.74021 0.044 0.0
C122 C 0.13484 0.72834 0.04824 0.0
C123 C 0.11802 0.74623 0.96508 0.0
C124 C 0.13183 0.75838 0.95919 0.0
H125 H 0.13575 0.71762 0.08838 0.0
H126 H 0.10541 0.74937 0.93938 0.0
H127 H 0.09144 0.7067 0.18451 0.0
H128 H 0.0951 0.76086 0.23836 0.0
H129 H 0.09331 0.67714 0.79529 0.0
H130 H 0.16069 0.73788 0.07855 0.0
H131 H 0.12994 0.77016 0.92499 0.0
C132 C 0.25033 0.90367 0.8723 0.0
C133 C 0.2481 0.90464 0.79473 0.0
N134 N 0.26422 0.90464 0.76176 0.0
N135 N 0.26777 0.90292 0.88824 0.0
C136 C 0.27586 0.90389 0.81999 0.0
H137 H 0.2399 0.90304 0.91425 0.0
Co138 Co 0.278 0.89982 0.98355 0.0
C139 C 0.30864 0.8756 0.95402 0.0
O140 O 0.30579 0.86703 0.01784 0.0
N141 N 0.28838 0.89727 0.08104 0.0
C142 C 0.30784 0.9004 0.17541 0.0
C143 C 0.30552 0.90062 0.09795 0.0
C144 C 0.2805 0.89558 0.1498 0.0
N145 N 0.29203 0.89735 0.20804 0.0
O146 O 0.28911 0.92252 0.97433 0.0
H147 H 0.31558 0.90394 0.05665 0.0
H148 H 0.26647 0.89398 0.15789 0.0
O149 O 0.29859 0.88854 0.93555 0.0
C150 C 0.28282 0.93453 0.01739 0.0
O151 O 0.26985 0.9305 0.06397 0.0
N152 N 0.26571 0.87816 0.9926 0.0
C153 C 0.24175 0.84993 0.99988 0.0
C154 C 0.25676 0.84897 0.95319 0.0
C155 C 0.26838 0.86339 0.94901 0.0
C156 C 0.25085 0.87949 0.03601 0.0
C157 C 0.23894 0.86546 0.04191 0.0
H158 H 0.27878 0.86292 0.9072 0.0
H159 H 0.24767 0.89194 0.06305 0.0
H160 H 0.29004 0.90408 0.81316 0.0
H161 H 0.23555 0.90469 0.76506 0.0
H162 H 0.32001 0.90336 0.20535 0.0
H163 H 0.25902 0.83758 0.91703 0.0
H164 H 0.22737 0.86699 0.07762 0.0
C165 C 0.09757 0.24749 0.84737 0.0
C166 C 0.09673 0.24524 0.76984 0.0
N167 N 0.0948 0.26129 0.73726 0.0
N168 N 0.09635 0.2649 0.86371 0.0
C169 C 0.09433 0.2729 0.79569 0.0
H170 H 0.09937 0.23712 0.88902 0.0
Co171 Co 0.0981 0.27533 0.95944 0.0
C172 C 0.11952 0.30799 0.93181 0.0
O173 O 0.12777 0.30599 0.99698 0.0
N174 N 0.0992 0.28582 0.05686 0.0
C175 C 0.09366 0.30492 0.15054 0.0
C176 C 0.09394 0.30252 0.07315 0.0
C177 C 0.1015 0.27822 0.12583 0.0
N178 N 0.09832 0.28956 0.18366 0.0
O179 O 0.07435 0.28383 0.95053 0.0
H180 H 0.08972 0.31214 0.03138 0.0
H181 H 0.10468 0.26447 0.13438 0.0
O182 O 0.10757 0.29688 0.91206 0.0
C183 C 0.06466 0.2717 0.97889 0.0
O184 O 0.07245 0.25714 1.00262 0.0
N185 N 0.12073 0.26515 0.96997 0.0
C186 C 0.1499 0.24242 0.97744 0.0
C187 C 0.15049 0.25779 0.93265 0.0
C188 C 0.13558 0.26883 0.92837 0.0
C189 C 0.11996 0.25012 0.01256 0.0
C190 C 0.13444 0.23885 0.0186 0.0
H191 H 0.13573 0.2795 0.88772 0.0
H192 H 0.10758 0.24619 0.03809 0.0
H193 H 0.09244 0.28699 0.78925 0.0
H194 H 0.09803 0.23278 0.73993 0.0
H195 H 0.08935 0.31674 0.18005 0.0
H196 H 0.16192 0.26068 0.89769 0.0
H197 H 0.13325 0.22702 0.05308 0.0
C198 C 0.74552 0.09725 0.87752 0.0
C199 C 0.74773 0.0963 0.79994 0.0
N200 N 0.73163 0.09482 0.76733 0.0
N201 N 0.72809 0.09661 0.89385 0.0
C202 C 0.72004 0.09471 0.82579 0.0
H203 H 0.75594 0.09875 0.91914 0.0
Co204 Co 0.71755 0.09929 0.98902 0.0
C205 C 0.68637 0.12289 0.95761 0.0
O206 O 0.68808 0.13111 0.02302 0.0
N207 N 0.70686 0.10142 0.08623 0.0
C208 C 0.68737 0.0976 0.17992 0.0
C209 C 0.68978 0.09769 0.10248 0.0
C210 C 0.71461 0.10307 0.15533 0.0
N211 N 0.70307 0.10091 0.21332 0.0
O212 O 0.70683 0.07646 0.97792 0.0
H213 H 0.67981 0.0944 0.06067 0.0
H214 H 0.72866 0.10442 0.16377 0.0
O215 O 0.69708 0.11043 0.93995 0.0
C216 C 0.71339 0.06452 0.02056 0.0
O217 O 0.72626 0.06878 0.06737 0.0
N218 N 0.72946 0.12111 1.00032 0.0
C219 C 0.75294 0.14965 0.01275 0.0
C220 C 0.73797 0.15076 0.96576 0.0
C221 C 0.72658 0.1362 0.9591 0.0
C222 C 0.74424 0.11969 0.0442 0.0
C223 C 0.75589 0.13386 0.05272 0.0
H224 H 0.71618 0.13687 0.91733 0.0
H225 H 0.74756 0.1071 0.06964 0.0
H226 H 0.70587 0.09369 0.81918 0.0
H227 H 0.76023 0.09684 0.77003 0.0
H228 H 0.67509 0.09476 0.20907 0.0
H229 H 0.73559 0.1624 0.93128 0.0
H230 H 0.76739 0.13222 0.08878 0.0
C231 C 0.90375 0.74778 0.87036 0.0
C232 C 0.9047 0.74977 0.79266 0.0
N233 N 0.90461 0.73354 0.76062 0.0
N234 N 0.90291 0.73038 0.88716 0.0
C235 C 0.90383 0.72208 0.81939 0.0
H236 H 0.90316 0.75835 0.91177 0.0
Co237 Co 0.89968 0.72025 0.98237 0.0
C238 C 0.87505 0.68988 0.95288 0.0
O239 O 0.86648 0.69286 0.0166 0.0
N240 N 0.89698 0.70995 0.07968 0.0
C241 C 0.89992 0.69063 0.17463 0.0
C242 C 0.90007 0.69278 0.09707 0.0
C243 C 0.89549 0.718 0.14812 0.0
N244 N 0.89717 0.70657 0.20668 0.0
O245 O 0.92219 0.70884 0.97319 0.0
H246 H 0.90321 0.68258 0.05604 0.0
H247 H 0.89413 0.73208 0.15573 0.0
O248 O 0.88811 0.69978 0.93455 0.0
C249 C 0.93423 0.71513 0.01609 0.0
O250 O 0.93027 0.72823 0.06227 0.0
N251 N 0.87824 0.73287 0.99149 0.0
C252 C 0.85038 0.75723 1.00029 0.0
C253 C 0.84908 0.74219 0.95369 0.0
C254 C 0.86331 0.73037 0.94876 0.0
C255 C 0.87993 0.74778 0.03446 0.0
C256 C 0.86609 0.75987 0.04121 0.0
H257 H 0.86257 0.71991 0.90721 0.0
H258 H 0.89251 0.75082 0.06069 0.0
H259 H 0.90394 0.70786 0.81329 0.0
H260 H 0.90477 0.76223 0.76227 0.0
H261 H 0.90275 0.67848 0.20499 0.0
H262 H 0.83754 0.74005 0.91832 0.0
H263 H 0.8679 0.77142 0.07687 0.0
C264 C 0.74911 0.59848 0.64087 0.0
C265 C 0.74714 0.59724 0.71846 0.0
N266 N 0.76324 0.59465 0.74982 0.0
N267 N 0.7664 0.59689 0.62328 0.0
C268 C 0.77458 0.59418 0.69045 0.0
H269 H 0.73868 0.60098 0.6002 0.0
Co270 Co 0.77681 0.59943 0.52815 0.0
C271 C 0.80906 0.62158 0.55935 0.0
O272 O 0.80762 0.62993 0.49417 0.0
N273 N 0.78738 0.60137 0.43103 0.0
C274 C 0.80641 0.59651 0.33651 0.0
C275 C 0.80423 0.59684 0.41403 0.0
C276 C 0.77951 0.60325 0.36239 0.0
N277 N 0.79077 0.60042 0.30402 0.0
O278 O 0.78651 0.57608 0.53719 0.0
H279 H 0.8141 0.59296 0.45535 0.0
H280 H 0.76558 0.60562 0.35462 0.0
O281 O 0.79791 0.60949 0.57688 0.0
C282 C 0.77951 0.56448 0.49402 0.0
O283 O 0.76672 0.56928 0.44778 0.0
N284 N 0.76597 0.6219 0.51919 0.0
C285 C 0.74493 0.65231 0.50943 0.0
C286 C 0.75956 0.65176 0.55838 0.0
C287 C 0.76972 0.63633 0.56349 0.0
C288 C 0.75121 0.62195 0.47464 0.0
C289 C 0.74077 0.6371 0.4674 0.0
H290 H 0.77993 0.63584 0.60615 0.0
H291 H 0.74692 0.60983 0.44767 0.0
H292 H 0.78866 0.59198 0.69546 0.0
H293 H 0.73486 0.59885 0.74924 0.0
H294 H 0.81828 0.59254 0.3066 0.0
H295 H 0.76291 0.66302 0.59373 0.0
H296 H 0.72904 0.63661 0.43201 0.0
C297 C 0.40136 0.74912 0.64136 0.0
C298 C 0.40216 0.74663 0.71881 0.0
N299 N 0.40378 0.7626 0.75255 0.0
N300 N 0.40226 0.76659 0.62614 0.0
C301 C 0.40413 0.77441 0.69479 0.0
H302 H 0.3997 0.73888 0.59898 0.0
Co303 Co 0.39963 0.77721 0.53105 0.0
C304 C 0.37693 0.8089 0.56341 0.0
O305 O 0.3683 0.8069 0.49914 0.0
N306 N 0.3976 0.78795 0.43364 0.0
C307 C 0.40169 0.80757 0.34053 0.0
C308 C 0.40141 0.80506 0.41786 0.0
C309 C 0.39617 0.78028 0.3642 0.0
N310 N 0.39849 0.79191 0.30654 0.0
O311 O 0.42286 0.78708 0.54032 0.0
H312 H 0.4047 0.81497 0.45992 0.0
H313 H 0.39496 0.76622 0.35538 0.0
O314 O 0.38945 0.79821 0.58055 0.0
C315 C 0.43448 0.78017 0.4971 0.0
O316 O 0.42976 0.76734 0.45089 0.0
N317 N 0.37726 0.76621 0.52193 0.0
C318 C 0.3471 0.7448 0.5134 0.0
C319 C 0.34782 0.75909 0.56419 0.0
C320 C 0.36314 0.76943 0.56862 0.0
C321 C 0.37705 0.7518 0.47526 0.0
C322 C 0.362 0.7412 0.46861 0.0
H323 H 0.36384 0.77931 0.61271 0.0
H324 H 0.38901 0.7478 0.44651 0.0
H325 H 0.40528 0.78855 0.70231 0.0
H326 H 0.40139 0.73402 0.74785 0.0
H327 H 0.40463 0.8199 0.31189 0.0
H328 H 0.33682 0.76199 0.60161 0.0
H329 H 0.36238 0.72972 0.43166 0.0
C330 C 0.24628 0.40453 0.63232 0.0
C331 C 0.24851 0.40548 0.70989 0.0
N332 N 0.23239 0.40567 0.7428 0.0
N333 N 0.22885 0.40396 0.61632 0.0
C334 C 0.22075 0.40502 0.68454 0.0
H335 H 0.25672 0.40382 0.59041 0.0
Co336 Co 0.21858 0.40108 0.52096 0.0
C337 C 0.18777 0.377 0.54933 0.0
O338 O 0.19051 0.36865 0.48487 0.0
N339 N 0.20817 0.39874 0.42343 0.0
C340 C 0.18875 0.40224 0.32918 0.0
C341 C 0.19109 0.4024 0.40662 0.0
C342 C 0.216 0.39691 0.35463 0.0
N343 N 0.20449 0.39891 0.29647 0.0
O344 O 0.20769 0.42386 0.53089 0.0
H345 H 0.1811 0.40587 0.44802 0.0
H346 H 0.22999 0.39502 0.34646 0.0
O347 O 0.19793 0.3898 0.56864 0.0
C348 C 0.21434 0.43575 0.48824 0.0
O349 O 0.22733 0.43143 0.44218 0.0
N350 N 0.23073 0.37937 0.51114 0.0
C351 C 0.2548 0.35125 0.50357 0.0
C352 C 0.23969 0.35013 0.54964 0.0
C353 C 0.22801 0.3645 0.55396 0.0
C354 C 0.24564 0.38082 0.46811 0.0
C355 C 0.25761 0.36685 0.46207 0.0
H356 H 0.21753 0.36391 0.59538 0.0
H357 H 0.24883 0.39333 0.4416 0.0
H358 H 0.20657 0.4054 0.69128 0.0
H359 H 0.26106 0.40542 0.73958 0.0
H360 H 0.17663 0.40542 0.29931 0.0
H361 H 0.23741 0.33866 0.5853 0.0
H362 H 0.26923 0.36849 0.42678 0.0
C363 C 0.59604 0.24877 0.63554 0.0
C364 C 0.59506 0.25112 0.71305 0.0
N365 N 0.59386 0.23505 0.74612 0.0
N366 N 0.59568 0.2313 0.61981 0.0
C367 C 0.59398 0.22333 0.68809 0.0
H368 H 0.59743 0.25911 0.59347 0.0
Co369 Co 0.59857 0.22091 0.52467 0.0
C370 C 0.62152 0.18945 0.55548 0.0
O371 O 0.63033 0.19215 0.49216 0.0
N372 N 0.60086 0.21041 0.42714 0.0
C373 C 0.59708 0.191 0.33297 0.0
C374 C 0.59718 0.19332 0.4104 0.0
C375 C 0.60241 0.21827 0.35823 0.0
N376 N 0.60029 0.20677 0.29998 0.0
O377 O 0.5754 0.21086 0.53262 0.0
H378 H 0.59384 0.18329 0.45183 0.0
H379 H 0.60354 0.23236 0.35015 0.0
O380 O 0.60876 0.19979 0.57332 0.0
C381 C 0.56371 0.2176 0.48921 0.0
O382 O 0.56829 0.23048 0.44301 0.0
N383 N 0.62092 0.23208 0.51715 0.0
C384 C 0.65104 0.25362 0.51169 0.0
C385 C 0.65017 0.23921 0.56179 0.0
C386 C 0.63486 0.22884 0.5648 0.0
C387 C 0.62124 0.2466 0.4712 0.0
C388 C 0.63628 0.25728 0.4661 0.0
H389 H 0.63402 0.21889 0.60854 0.0
H390 H 0.60937 0.25064 0.44183 0.0
H391 H 0.59335 0.20915 0.69525 0.0
H392 H 0.5954 0.26369 0.74261 0.0
H393 H 0.59426 0.17874 0.30356 0.0
H394 H 0.66105 0.23623 0.59978 0.0
H395 H 0.63598 0.26884 0.42968 0.0
C396 C 0.75046 0.40203 0.37834 0.0
C397 C 0.74837 0.40289 0.30069 0.0
N398 N 0.76456 0.40371 0.26855 0.0
N399 N 0.76788 0.40216 0.39497 0.0
C400 C 0.77608 0.40355 0.3272 0.0
H401 H 0.73999 0.40081 0.41987 0.0
Co402 Co 0.77805 0.39948 0.49022 0.0
C403 C 0.80978 0.37675 0.46285 0.0
O404 O 0.8069 0.3682 0.52669 0.0
N405 N 0.78833 0.3974 0.5878 0.0
C406 C 0.80734 0.4017 0.68296 0.0
C407 C 0.80522 0.40172 0.60543 0.0
C408 C 0.78038 0.39533 0.65612 0.0
N409 N 0.79163 0.3978 0.71478 0.0
O410 O 0.78786 0.42279 0.48215 0.0
H411 H 0.81517 0.40562 0.56455 0.0
H412 H 0.76643 0.39303 0.66361 0.0
O413 O 0.79938 0.38932 0.44304 0.0
C414 C 0.78067 0.43432 0.52509 0.0
O415 O 0.76775 0.4294 0.57041 0.0
N416 N 0.76698 0.37709 0.49786 0.0
C417 C 0.74527 0.34709 0.50311 0.0
C418 C 0.76002 0.34764 0.45485 0.0
C419 C 0.7705 0.3629 0.4519 0.0
C420 C 0.75213 0.37707 0.54181 0.0
C421 C 0.74136 0.3621 0.54683 0.0
H422 H 0.78076 0.36348 0.40948 0.0
H423 H 0.74799 0.38911 0.56974 0.0
H424 H 0.79026 0.4044 0.32103 0.0
H425 H 0.73592 0.40227 0.27038 0.0
H426 H 0.81923 0.40539 0.71348 0.0
H427 H 0.7632 0.33656 0.41824 0.0
H428 H 0.72956 0.36263 0.5817 0.0
C429 C 0.59803 0.751 0.36985 0.0
C430 C 0.59708 0.74869 0.29232 0.0
N431 N 0.59502 0.7647 0.25951 0.0
N432 N 0.5968 0.76842 0.38594 0.0
C433 C 0.59456 0.77635 0.31782 0.0
H434 H 0.60001 0.7407 0.41163 0.0
Co435 Co 0.59939 0.779 0.48104 0.0
C436 C 0.62164 0.81108 0.44868 0.0
O437 O 0.63039 0.80921 0.51271 0.0
N438 N 0.60141 0.78969 0.57839 0.0
C439 C 0.59717 0.80905 0.67237 0.0
C440 C 0.59734 0.8067 0.59492 0.0
C441 C 0.60312 0.78191 0.64741 0.0
N442 N 0.60072 0.79338 0.70556 0.0
O443 O 0.57605 0.78862 0.47223 0.0
H444 H 0.59382 0.81663 0.55332 0.0
H445 H 0.6046 0.76786 0.65565 0.0
O446 O 0.6093 0.80015 0.43173 0.0
C447 C 0.56455 0.78152 0.51546 0.0
O448 O 0.56947 0.76873 0.56147 0.0
N449 N 0.62186 0.7682 0.48982 0.0
C450 C 0.65212 0.74697 0.49891 0.0
C451 C 0.65147 0.76141 0.4489 0.0
C452 C 0.6361 0.77168 0.4442 0.0
C453 C 0.62199 0.75363 0.53549 0.0
C454 C 0.63708 0.74311 0.54243 0.0
H455 H 0.63549 0.78173 0.40082 0.0
H456 H 0.60996 0.74948 0.56334 0.0
H457 H 0.59309 0.79047 0.31105 0.0
H458 H 0.59807 0.73618 0.26258 0.0
H459 H 0.59406 0.82126 0.70168 0.0
H460 H 0.66259 0.7645 0.41239 0.0
H461 H 0.63665 0.73152 0.57866 0.0
C462 C 0.24077 0.58426 0.37115 0.0
C463 C 0.24332 0.58409 0.29359 0.0
N464 N 0.23218 0.59595 0.26199 0.0
N465 N 0.22809 0.59616 0.38824 0.0
C466 C 0.2233 0.60319 0.32081 0.0
H467 H 0.2473 0.57586 0.41228 0.0
Co468 Co 0.21855 0.60008 0.48389 0.0
C469 C 0.18668 0.62273 0.45487 0.0
O470 O 0.18923 0.63163 0.51813 0.0
N471 N 0.20895 0.60344 0.5818 0.0
C472 C 0.19061 0.60057 0.68009 0.0
C473 C 0.19221 0.59933 0.60257 0.0
C474 C 0.21735 0.60664 0.64833 0.0
N475 N 0.20649 0.60506 0.7089 0.0
O476 O 0.2079 0.57705 0.48028 0.0
H477 H 0.18201 0.59482 0.56402 0.0
H478 H 0.23134 0.6092 0.65318 0.0
O479 O 0.19732 0.61024 0.43681 0.0
C480 C 0.21441 0.56551 0.52506 0.0
O481 O 0.22732 0.57014 0.57101 0.0
N482 N 0.23043 0.62202 0.48738 0.0
C483 C 0.25309 0.65126 0.49343 0.0
C484 C 0.23749 0.65185 0.45035 0.0
C485 C 0.22645 0.637 0.44714 0.0
C486 C 0.24604 0.62094 0.52592 0.0
C487 C 0.25736 0.63549 0.53123 0.0
H488 H 0.21522 0.63753 0.40966 0.0
H489 H 0.24992 0.6085 0.55143 0.0
H490 H 0.21336 0.61336 0.31471 0.0
H491 H 0.25214 0.57536 0.26282 0.0
H492 H 0.17895 0.59729 0.71293 0.0
H493 H 0.23394 0.66362 0.41863 0.0
H494 H 0.26965 0.6342 0.56249 0.0
C495 C 0.40216 0.24936 0.3695 0.0
C496 C 0.40341 0.25146 0.29198 0.0
N497 N 0.40474 0.2353 0.25961 0.0
N498 N 0.4025 0.23195 0.38625 0.0
C499 C 0.40447 0.22377 0.31845 0.0
H500 H 0.40059 0.25986 0.41073 0.0
Co501 Co 0.39948 0.22148 0.48147 0.0
C502 C 0.3759 0.19016 0.44812 0.0
O503 O 0.36779 0.19102 0.51403 0.0
N504 N 0.397 0.21083 0.57846 0.0
C505 C 0.40081 0.19139 0.67238 0.0
C506 C 0.40079 0.19376 0.59494 0.0
C507 C 0.39522 0.21862 0.64743 0.0
N508 N 0.39743 0.2071 0.70549 0.0
O509 O 0.42217 0.21047 0.47131 0.0
H510 H 0.40432 0.18382 0.55333 0.0
H511 H 0.39328 0.23262 0.65568 0.0
O512 O 0.38815 0.20122 0.43193 0.0
C513 C 0.43406 0.21695 0.51445 0.0
O514 O 0.42979 0.22986 0.56108 0.0
N515 N 0.37785 0.23369 0.4919 0.0
C516 C 0.34983 0.25783 0.50121 0.0
C517 C 0.34841 0.24256 0.45615 0.0
C518 C 0.3627 0.23081 0.45107 0.0
C519 C 0.37952 0.24866 0.53453 0.0
C520 C 0.36562 0.26069 0.54128 0.0
H521 H 0.36181 0.22014 0.41064 0.0
H522 H 0.39212 0.2518 0.56031 0.0
H523 H 0.40566 0.20958 0.31258 0.0
H524 H 0.4027 0.26395 0.26197 0.0
H525 H 0.40419 0.17927 0.7019 0.0
H526 H 0.33675 0.24019 0.42182 0.0
H527 H 0.36746 0.27239 0.57602 0.0
H528 H 0.31648 0.10933 0.67557 0.0
H529 H 0.24569 0.08304 0.35541 0.0
H530 H 0.26371 0.09076 0.72514 0.0
H531 H 0.29656 0.10651 0.30633 0.0
H532 H 0.25237 0.08493 0.49088 0.0
H533 H 0.30981 0.10745 0.53983 0.0
C534 C 0.3035 0.10484 0.65796 0.0
C535 C 0.29064 0.10025 0.71206 0.0
C536 C 0.26208 0.08965 0.4504 0.0
C537 C 0.28287 0.09808 0.55651 0.0
C538 C 0.25824 0.08862 0.37286 0.0
C539 C 0.27056 0.09459 0.3188 0.0
C540 C 0.27837 0.09668 0.47445 0.0
C541 C 0.28673 0.10148 0.34535 0.0
C542 C 0.29967 0.10383 0.58042 0.0
C543 C 0.27396 0.09469 0.68578 0.0
N544 N 0.29014 0.10233 0.4211 0.0
N545 N 0.27059 0.09371 0.61002 0.0
H546 H 0.88106 0.26513 0.75266 0.0
H547 H 0.9173 0.29053 0.33947 0.0
H548 H 0.91802 0.30773 0.71176 0.0
H549 H 0.88557 0.24421 0.38568 0.0
H550 H 0.91673 0.29785 0.47467 0.0
H551 H 0.88164 0.25803 0.61759 0.0
C552 C 0.88937 0.27296 0.71555 0.0
C553 C 0.89959 0.28702 0.74423 0.0
C554 C 0.90993 0.28606 0.45523 0.0
C555 C 0.90012 0.27905 0.58864 0.0
C556 C 0.91019 0.28191 0.3779 0.0
C557 C 0.90149 0.2667 0.35092 0.0
C558 C 0.90082 0.27499 0.50611 0.0
C559 C 0.89267 0.25592 0.4038 0.0
C560 C 0.88963 0.26893 0.63818 0.0
C561 C 0.90979 0.2969 0.69259 0.0
N562 N 0.89252 0.2603 0.47868 0.0
N563 N 0.90981 0.29271 0.61746 0.0
H564 H 0.70356 0.89024 0.3081 0.0
H565 H 0.7391 0.90366 0.73239 0.0
H566 H 0.7548 0.91251 0.36027 0.0
H567 H 0.68658 0.88522 0.67702 0.0
H568 H 0.74619 0.90452 0.59698 0.0
H569 H 0.69829 0.88587 0.44291 0.0
C570 C 0.71383 0.89405 0.34762 0.0
C571 C 0.72968 0.9018 0.32225 0.0
C572 C 0.73314 0.90019 0.61448 0.0
C573 C 0.72355 0.89703 0.47797 0.0
C574 C 0.72912 0.89957 0.69191 0.0
C575 C 0.71217 0.89441 0.71622 0.0
C576 C 0.72016 0.89557 0.56088 0.0
C577 C 0.69971 0.88952 0.66086 0.0
C578 C 0.71074 0.89165 0.42499 0.0
C579 C 0.74231 0.9067 0.37702 0.0
N580 N 0.70394 0.89026 0.58593 0.0
N581 N 0.73895 0.90428 0.45225 0.0
H582 H 0.10017 0.70029 0.30434 0.0
H583 H 0.09121 0.7367 0.72908 0.0
H584 H 0.0852 0.75406 0.35849 0.0
H585 H 0.10613 0.68302 0.67377 0.0
H586 H 0.08893 0.74332 0.59393 0.0
H587 H 0.10177 0.69365 0.43897 0.0
C588 C 0.0971 0.71073 0.34405 0.0
C589 C 0.09265 0.72786 0.319 0.0
C590 C 0.09273 0.73009 0.61131 0.0
C591 C 0.09464 0.72026 0.47485 0.0
C592 C 0.09419 0.72632 0.68869 0.0
C593 C 0.09896 0.70925 0.71319 0.0
C594 C 0.09607 0.71673 0.55769 0.0
C595 C 0.10226 0.69629 0.6577 0.0
C596 C 0.09811 0.70691 0.42144 0.0
C597 C 0.08895 0.74075 0.37446 0.0
N598 N 0.10076 0.7003 0.58268 0.0
N599 N 0.09007 0.7367 0.4496 0.0
H600 H 0.31391 0.88898 0.32488 0.0
H601 H 0.24322 0.91548 0.64481 0.0
H602 H 0.26106 0.90727 0.27491 0.0
H603 H 0.29423 0.89233 0.69388 0.0
H604 H 0.2498 0.91341 0.50928 0.0
H605 H 0.30728 0.89103 0.46053 0.0
C606 C 0.30092 0.89344 0.3424 0.0
C607 C 0.28803 0.89792 0.28821 0.0
C608 C 0.25956 0.90881 0.54978 0.0
C609 C 0.2803 0.90028 0.4437 0.0
C610 C 0.25579 0.90994 0.62735 0.0
C611 C 0.26817 0.90411 0.68142 0.0
C612 C 0.27586 0.90181 0.52574 0.0
C613 C 0.28435 0.89727 0.65487 0.0
C614 C 0.29711 0.89455 0.4199 0.0
C615 C 0.27133 0.90343 0.31436 0.0
N616 N 0.2877 0.8963 0.57911 0.0
N617 N 0.26798 0.90451 0.39012 0.0
H618 H 0.08616 0.2392 0.62063 0.0
H619 H 0.10405 0.31239 0.30014 0.0
H620 H 0.10327 0.2926 0.66921 0.0
H621 H 0.09186 0.25772 0.25088 0.0
H622 H 0.10276 0.30567 0.43587 0.0
H623 H 0.0872 0.24597 0.48514 0.0
C624 C 0.09016 0.25233 0.60308 0.0
C625 C 0.09463 0.26532 0.65699 0.0
C626 C 0.10041 0.29513 0.39536 0.0
C627 C 0.09572 0.27322 0.50137 0.0
C628 C 0.10108 0.29898 0.31783 0.0
C629 C 0.09811 0.28562 0.26386 0.0
C630 C 0.09664 0.27778 0.41934 0.0
C631 C 0.09451 0.26841 0.29019 0.0
C632 C 0.09069 0.25621 0.52553 0.0
C633 C 0.09946 0.2822 0.63033 0.0
N634 N 0.09383 0.26501 0.36597 0.0
N635 N 0.09989 0.28564 0.55457 0.0
H636 H 0.7022 0.08167 0.69775 0.0
H637 H 0.73122 0.11599 0.28536 0.0
H638 H 0.7515 0.10862 0.65272 0.0
H639 H 0.68435 0.08464 0.32615 0.0
H640 H 0.73842 0.11411 0.42024 0.0
H641 H 0.69497 0.08338 0.56265 0.0
C642 C 0.71151 0.08796 0.65965 0.0
C643 C 0.72752 0.09499 0.68709 0.0
C644 C 0.72655 0.10764 0.39966 0.0
C645 C 0.71931 0.09695 0.53172 0.0
C646 C 0.72245 0.10864 0.32237 0.0
C647 C 0.70716 0.10041 0.29364 0.0
C648 C 0.71528 0.09837 0.44914 0.0
C649 C 0.69617 0.09137 0.34525 0.0
C650 C 0.7074 0.08887 0.58231 0.0
C651 C 0.73913 0.10279 0.63442 0.0
N652 N 0.70045 0.09059 0.42025 0.0
N653 N 0.73477 0.10361 0.55953 0.0
H654 H 0.89166 0.70347 0.69542 0.0
H655 H 0.90779 0.73761 0.27102 0.0
H656 H 0.91554 0.75394 0.64199 0.0
H657 H 0.88874 0.68521 0.32521 0.0
H658 H 0.90965 0.74425 0.40637 0.0
H659 H 0.88992 0.69682 0.56038 0.0
C660 C 0.89674 0.71311 0.65556 0.0
C661 C 0.90388 0.72929 0.68066 0.0
C662 C 0.90504 0.7313 0.38872 0.0
C663 C 0.90157 0.72183 0.52495 0.0
C664 C 0.90382 0.72753 0.31127 0.0
C665 C 0.89801 0.71082 0.28651 0.0
C666 C 0.90036 0.7183 0.44209 0.0
C667 C 0.89343 0.6982 0.34168 0.0
C668 C 0.8956 0.70933 0.57815 0.0
C669 C 0.9098 0.74138 0.62558 0.0
N670 N 0.89467 0.7022 0.4168 0.0
N671 N 0.90851 0.73741 0.55042 0.0
H672 H 0.75874 0.59304 0.23985 0.0
H673 H 0.79556 0.60032 0.81531 0.0
H674 H 0.81302 0.60553 0.18488 0.0
H675 H 0.74107 0.58838 0.86923 0.0
H676 H 0.80227 0.60151 0.94998 0.0
H677 H 0.75204 0.59112 0.10467 0.0
C678 C 0.76925 0.59556 0.19954 0.0
C679 C 0.7865 0.59955 0.22414 0.0
C680 C 0.78884 0.5986 0.93239 0.0
C681 C 0.77891 0.59706 0.06859 0.0
C682 C 0.78496 0.59783 0.85498 0.0
C683 C 0.76762 0.59437 0.82987 0.0
C684 C 0.77532 0.59586 0.98574 0.0
C685 C 0.75455 0.59137 0.88526 0.0
C686 C 0.76542 0.5943 0.12213 0.0
C687 C 0.79959 0.60227 0.16873 0.0
N688 N 0.75866 0.59222 0.96041 0.0
N689 N 0.79553 0.60099 0.09368 0.0
H690 H 0.41478 0.81109 0.19508 0.0
H691 H 0.38989 0.74224 0.86551 0.0
H692 H 0.38401 0.76366 0.23248 0.0
H693 H 0.41674 0.79183 0.8248 0.0
H694 H 0.38866 0.74932 1.00058 0.0
H695 H 0.41619 0.80397 0.06021 0.0
C696 C 0.40819 0.79923 0.17523 0.0
C697 C 0.39924 0.78798 0.22602 0.0
C698 C 0.39485 0.75866 0.96214 0.0
C699 C 0.40107 0.7796 0.07059 0.0
C700 C 0.39569 0.75455 0.88481 0.0
C701 C 0.40348 0.76642 0.83313 0.0
C702 C 0.40189 0.77474 0.98859 0.0
C703 C 0.41045 0.78233 0.86202 0.0
C704 C 0.40911 0.79512 0.09791 0.0
C705 C 0.39126 0.77264 0.19616 0.0
N706 N 0.40951 0.786 0.93763 0.0
N707 N 0.39238 0.76891 0.12066 0.0
H708 H 0.18245 0.39091 0.17966 0.0
H709 H 0.25353 0.41628 0.85973 0.0
H710 H 0.23562 0.40831 0.2296 0.0
H711 H 0.20221 0.39381 0.81072 0.0
H712 H 0.24692 0.41434 0.99525 0.0
H713 H 0.18911 0.39284 0.044 0.0
C714 C 0.19552 0.39515 0.16214 0.0
C715 C 0.20848 0.39941 0.2163 0.0
C716 C 0.2371 0.40986 0.95476 0.0
C717 C 0.21624 0.40164 0.06084 0.0
C718 C 0.24089 0.41091 0.87719 0.0
C719 C 0.22843 0.40522 0.82314 0.0
C720 C 0.22071 0.40308 0.9788 0.0
C721 C 0.21215 0.39861 0.8497 0.0
C722 C 0.19934 0.39619 0.08464 0.0
C723 C 0.22527 0.40464 0.19015 0.0
N724 N 0.20879 0.39772 0.92545 0.0
N725 N 0.22864 0.40566 0.11439 0.0
H726 H 0.61504 0.23512 0.2282 0.0
H727 H 0.58095 0.2056 0.81607 0.0
H728 H 0.58402 0.18801 0.18722 0.0
H729 H 0.60741 0.25523 0.86037 0.0
H730 H 0.58269 0.19852 0.95124 0.0
H731 H 0.61305 0.24234 0.0933 0.0
C732 C 0.60775 0.22631 0.19115 0.0
C733 C 0.59965 0.21093 0.21978 0.0
C734 C 0.58807 0.21099 0.93143 0.0
C735 C 0.59749 0.21907 0.06441 0.0
C736 C 0.58714 0.21501 0.85406 0.0
C737 C 0.59404 0.23105 0.82641 0.0
C738 C 0.59603 0.22303 0.98185 0.0
C739 C 0.60171 0.24282 0.8789 0.0
C740 C 0.60668 0.23042 0.11388 0.0
C741 C 0.59066 0.19989 0.16819 0.0
N742 N 0.60254 0.23855 0.95387 0.0
N743 N 0.58982 0.20418 0.09326 0.0
H744 H 0.79519 0.39241 0.20308 0.0
H745 H 0.76002 0.40645 0.77896 0.0
H746 H 0.74353 0.41354 0.15017 0.0
H747 H 0.81345 0.39066 0.83321 0.0
H748 H 0.7533 0.40793 0.91436 0.0
H749 H 0.80182 0.391 0.06805 0.0
C750 C 0.78528 0.39695 0.16334 0.0
C751 C 0.76877 0.40322 0.18857 0.0
C752 C 0.7665 0.40412 0.89669 0.0
C753 C 0.77622 0.40128 0.03286 0.0
C754 C 0.77031 0.40311 0.81925 0.0
C755 C 0.78734 0.39834 0.79454 0.0
C756 C 0.77977 0.40026 0.95004 0.0
C757 C 0.80021 0.39454 0.84967 0.0
C758 C 0.78905 0.39601 0.08592 0.0
C759 C 0.75635 0.40848 0.13363 0.0
N760 N 0.79616 0.39555 0.92476 0.0
N761 N 0.76032 0.40738 0.05844 0.0
H762 H 0.58111 0.79375 0.18966 0.0
H763 H 0.61621 0.76544 0.77749 0.0
H764 H 0.6093 0.74512 0.14498 0.0
H765 H 0.584 0.81174 0.81832 0.0
H766 H 0.61438 0.75816 0.91232 0.0
H767 H 0.58266 0.80098 0.05456 0.0
C768 C 0.58763 0.78458 0.15165 0.0
C769 C 0.59507 0.76877 0.17922 0.0
C770 C 0.60771 0.76992 0.89175 0.0
C771 C 0.59685 0.77697 0.0238 0.0
C772 C 0.60869 0.77406 0.8145 0.0
C773 C 0.6002 0.78923 0.78581 0.0
C774 C 0.59822 0.78102 0.94122 0.0
C775 C 0.59093 0.80003 0.83739 0.0
C776 C 0.58846 0.78869 0.0743 0.0
C777 C 0.60317 0.75732 0.12662 0.0
N778 N 0.59018 0.79571 0.91235 0.0
N779 N 0.60389 0.76168 0.05171 0.0
H780 H 0.20215 0.60863 0.19609 0.0
H781 H 0.23857 0.59769 0.77223 0.0
H782 H 0.25488 0.59014 0.14433 0.0
H783 H 0.18522 0.6136 0.82728 0.0
H784 H 0.24564 0.59703 0.90763 0.0
H785 H 0.19663 0.61266 0.06133 0.0
C786 C 0.21268 0.60559 0.15666 0.0
C787 C 0.22905 0.59902 0.18214 0.0
C788 C 0.23241 0.60076 0.89006 0.0
C789 C 0.22264 0.60338 0.02645 0.0
C790 C 0.22839 0.60127 0.81263 0.0
C791 C 0.21123 0.60567 0.78822 0.0
C792 C 0.2192 0.60471 0.94358 0.0
C793 C 0.19853 0.6099 0.8435 0.0
C794 C 0.20945 0.60779 0.07931 0.0
C795 C 0.242 0.59503 0.12748 0.0
N796 N 0.20276 0.60927 0.91846 0.0
N797 N 0.23851 0.59723 0.05224 0.0
H798 H 0.41244 0.25748 0.14162 0.0
H799 H 0.39101 0.18467 0.82294 0.0
H800 H 0.397 0.20363 0.19171 0.0
H801 H 0.40584 0.23861 0.77233 0.0
H802 H 0.39344 0.19131 0.95842 0.0
H803 H 0.4105 0.25074 0.00643 0.0
C804 C 0.40859 0.24426 0.12467 0.0
C805 C 0.40472 0.2312 0.17917 0.0
C806 C 0.39614 0.20171 0.91767 0.0
C807 C 0.4026 0.22333 0.02335 0.0
C808 C 0.3948 0.1979 0.84019 0.0
C809 C 0.39819 0.21108 0.78577 0.0
C810 C 0.40096 0.21883 0.9413 0.0
C811 C 0.40284 0.22807 0.81183 0.0
C812 C 0.40754 0.2404 0.04713 0.0
C813 C 0.40015 0.21419 0.15274 0.0
N814 N 0.40412 0.23143 0.88756 0.0
N815 N 0.39916 0.2108 0.07699 0.0
H816 H 0.31818 0.1111 0.19006 0.0
H817 H 0.37883 0.19439 0.29497 0.0
H818 H 0.33152 0.15275 0.03224 0.0
H819 H 0.3561 0.15984 0.46361 0.0
H820 H 0.36548 0.17644 0.19526 0.0
H821 H 0.33572 0.12599 0.28759 0.0
C822 C 0.32482 0.12332 0.17566 0.0
C823 C 0.32305 0.13083 0.10303 0.0
C824 C 0.36354 0.17264 0.25399 0.0
C825 C 0.34339 0.14785 0.2144 0.0
C826 C 0.37135 0.18279 0.311 0.0
C827 C 0.36879 0.17851 0.38772 0.0
C828 C 0.35301 0.15803 0.27364 0.0
C829 C 0.35842 0.16362 0.40515 0.0
C830 C 0.33487 0.13181 0.23148 0.0
C831 C 0.33234 0.14653 0.0875 0.0
N832 N 0.35087 0.15391 0.34852 0.0
N833 N 0.34202 0.15455 0.14278 0.0
H834 H 0.83468 0.35103 0.48739 0.0
H835 H 0.85472 0.33686 0.04883 0.0
H836 H 0.81505 0.38627 0.31381 0.0
H837 H 0.88462 0.31145 0.22701 0.0
H838 H 0.84058 0.35569 0.14428 0.0
H839 H 0.85372 0.33695 0.39303 0.0
C840 C 0.83447 0.35594 0.42958 0.0
C841 C 0.82301 0.36972 0.40837 0.0
C842 C 0.85041 0.34613 0.16233 0.0
C843 C 0.84469 0.35349 0.29966 0.0
C844 C 0.85848 0.33535 0.10785 0.0
C845 C 0.8708 0.3224 0.12983 0.0
C846 C 0.85452 0.3438 0.23952 0.0
C847 C 0.87518 0.32114 0.20719 0.0
C848 C 0.84537 0.34789 0.37568 0.0
C849 C 0.82345 0.37557 0.33266 0.0
N850 N 0.8669 0.33153 0.25924 0.0
N851 N 0.83391 0.36727 0.28083 0.0
H852 H 0.61269 0.81298 0.29773 0.0
H853 H 0.68279 0.88867 0.19691 0.0
H854 H 0.6458 0.83793 0.46655 0.0
H855 H 0.66362 0.85025 0.03485 0.0
H856 H 0.66455 0.87475 0.29504 0.0
H857 H 0.62636 0.8313 0.20021 0.0
C858 C 0.62265 0.82245 0.3147 0.0
C859 C 0.6282 0.82372 0.39063 0.0
C860 C 0.66427 0.86948 0.23782 0.0
C861 C 0.64394 0.84485 0.27869 0.0
C862 C 0.67469 0.87739 0.18174 0.0
C863 C 0.67506 0.87038 0.1078 0.0
C864 C 0.65387 0.85467 0.21949 0.0
C865 C 0.66395 0.85598 0.09121 0.0
C866 C 0.63052 0.83288 0.25872 0.0
C867 C 0.6412 0.83636 0.4087 0.0
N868 N 0.65387 0.84856 0.14667 0.0
N869 N 0.6487 0.84638 0.35308 0.0
H870 H 0.16285 0.64975 0.47153 0.0
H871 H 0.1451 0.65997 0.02922 0.0
H872 H 0.18132 0.61128 0.30828 0.0
H873 H 0.11502 0.68753 0.20039 0.0
H874 H 0.15855 0.64177 0.12917 0.0
H875 H 0.14491 0.66347 0.37253 0.0
C876 C 0.16304 0.64408 0.41502 0.0
C877 C 0.17391 0.62953 0.39798 0.0
C878 C 0.14881 0.65167 0.14465 0.0
C879 C 0.15352 0.64536 0.28382 0.0
C880 C 0.14117 0.66209 0.08767 0.0
C881 C 0.1289 0.67536 0.10649 0.0
C882 C 0.14434 0.65473 0.22102 0.0
C883 C 0.12429 0.67746 0.18315 0.0
C884 C 0.15278 0.65193 0.35841 0.0
C885 C 0.17345 0.62269 0.32372 0.0
N886 N 0.13213 0.66742 0.23757 0.0
N887 N 0.16364 0.63082 0.26907 0.0
H888 H 0.38387 0.80946 0.71644 0.0
H889 H 0.31487 0.88674 0.8078 0.0
H890 H 0.35383 0.83651 0.54324 0.0
H891 H 0.33201 0.84817 0.97304 0.0
H892 H 0.33359 0.8725 0.71275 0.0
H893 H 0.36962 0.82771 0.81283 0.0
C894 C 0.37451 0.81941 0.69835 0.0
C895 C 0.37001 0.82135 0.62141 0.0
C896 C 0.33332 0.86724 0.76996 0.0
C897 C 0.35353 0.8423 0.73201 0.0
C898 C 0.32261 0.87536 0.82439 0.0
C899 C 0.32155 0.86848 0.89836 0.0
C900 C 0.34328 0.85225 0.78983 0.0
C901 C 0.33222 0.85384 0.91659 0.0
C902 C 0.36627 0.82976 0.75366 0.0
C903 C 0.35762 0.83445 0.60188 0.0
N904 N 0.34257 0.84617 0.86264 0.0
N905 N 0.34976 0.84439 0.65683 0.0
H906 H 0.11108 0.31112 0.78072 0.0
H907 H 0.18271 0.38659 0.6983 0.0
H908 H 0.14365 0.33459 0.95514 0.0
H909 H 0.16323 0.35076 0.52655 0.0
H910 H 0.16385 0.37202 0.79186 0.0
H911 H 0.12541 0.32998 0.68646 0.0
C912 C 0.12109 0.32035 0.79948 0.0
C913 C 0.12632 0.32103 0.87596 0.0
C914 C 0.16362 0.36744 0.73355 0.0
C915 C 0.14272 0.34283 0.76817 0.0
C916 C 0.1744 0.37578 0.67996 0.0
C917 C 0.17483 0.36974 0.60453 0.0
C918 C 0.15299 0.35309 0.71145 0.0
C919 C 0.1635 0.35575 0.58417 0.0
C920 C 0.12931 0.3311 0.74548 0.0
C921 C 0.1393 0.33345 0.89675 0.0
N922 N 0.15311 0.34786 0.63737 0.0
N923 N 0.14712 0.3438 0.84313 0.0
H924 H 0.65899 0.14627 0.97775 0.0
H925 H 0.64764 0.16472 0.53577 0.0
H926 H 0.68595 0.11617 0.80447 0.0
H927 H 0.61136 0.18488 0.70422 0.0
H928 H 0.6614 0.14629 0.63326 0.0
H929 H 0.64096 0.16023 0.87892 0.0
C930 C 0.66102 0.14245 0.91908 0.0
C931 C 0.67409 0.13004 0.89953 0.0
C932 C 0.6503 0.15462 0.64875 0.0
C933 C 0.65362 0.14609 0.78606 0.0
C934 C 0.64243 0.16518 0.59305 0.0
C935 C 0.62842 0.17659 0.61184 0.0
C936 C 0.64427 0.15562 0.72412 0.0
C937 C 0.6222 0.17648 0.68704 0.0
C938 C 0.65069 0.1504 0.8627 0.0
C939 C 0.67605 0.12557 0.82253 0.0
N940 N 0.6303 0.16635 0.7406 0.0
N941 N 0.66609 0.13372 0.76864 0.0
H942 H 0.80766 0.61626 0.71261 0.0
H943 H 0.88696 0.68265 0.8086 0.0
H944 H 0.83786 0.64333 0.54044 0.0
H945 H 0.84669 0.66757 0.96993 0.0
H946 H 0.87273 0.66401 0.71308 0.0
H947 H 0.82561 0.63043 0.81038 0.0
C948 C 0.81828 0.62491 0.69527 0.0
C949 C 0.82124 0.62855 0.61818 0.0
C950 C 0.86708 0.66472 0.76954 0.0
C951 C 0.84179 0.64509 0.73003 0.0
C952 C 0.87519 0.6754 0.82421 0.0
C953 C 0.86785 0.67701 0.89718 0.0
C954 C 0.85164 0.65535 0.7882 0.0
C955 C 0.85274 0.66692 0.91428 0.0
C956 C 0.82844 0.63314 0.75121 0.0
C957 C 0.83506 0.64018 0.5992 0.0
N958 N 0.84511 0.65659 0.86013 0.0
N959 N 0.8448 0.64808 0.65476 0.0
H960 H 0.29751 0.04596 0.1088 0.0
H961 H 0.29671 0.95221 0.89513 0.0
H962 H 0.28564 0.03978 0.87065 0.0
H963 H 0.28296 0.95884 0.13119 0.0
H964 H 0.30253 0.98422 0.88682 0.0
H965 H 0.3021 0.01375 0.118 0.0
C966 C 0.29629 0.03787 0.05821 0.0
C967 C 0.29099 0.04541 0.9891 0.0
C968 C 0.29854 0.97856 0.94066 0.0
C969 C 0.29632 0.00887 0.99897 0.0
C970 C 0.2953 0.96034 0.94549 0.0
C971 C 0.28913 0.953 0.01365 0.0
C972 C 0.2959 0.98933 0.00483 0.0
C973 C 0.28745 0.96408 0.07728 0.0
C974 C 0.29881 0.01955 0.06353 0.0
C975 C 0.28949 0.03439 0.9252 0.0
N976 N 0.29073 0.98172 0.07128 0.0
N977 N 0.29205 0.01665 0.9317 0.0
H978 H 0.04311 0.30098 0.95361 0.0
H979 H 0.95634 0.24597 0.06546 0.0
H980 H 0.04203 0.2465 0.02844 0.0
H981 H 0.95384 0.30208 0.02033 0.0
H982 H 0.98822 0.24695 0.05261 0.0
H983 H 0.01086 0.30269 0.9758 0.0
C984 C 0.03614 0.28942 0.97441 0.0
C985 C 0.04529 0.27356 0.98892 0.0
C986 C 0.98085 0.25916 0.04584 0.0
C987 C 0.00871 0.27545 0.01475 0.0
C988 C 0.96258 0.25858 0.05327 0.0
C989 C 0.95245 0.27394 0.04364 0.0
C990 C 0.98926 0.27521 0.02757 0.0
C991 C 0.96126 0.28995 0.02849 0.0
C992 C 0.0178 0.29043 0.98741 0.0
C993 C 0.03564 0.25902 0.01627 0.0
N994 N 0.97924 0.29017 0.02006 0.0
N995 N 0.018 0.26034 0.02806 0.0
H996 H 0.71343 0.9589 0.86374 0.0
H997 H 0.71293 0.04046 0.13496 0.0
H998 H 0.70033 0.95334 0.10092 0.0
H999 H 0.70092 0.04629 0.89682 0.0
H1000 H 0.70761 0.00861 0.12449 0.0
H1001 H 0.70811 0.99079 0.87323 0.0
C1002 C 0.70915 0.9644 0.91757 0.0
C1003 C 0.70745 0.95356 0.98184 0.0
C1004 C 0.70581 0.01687 0.07479 0.0
C1005 C 0.70168 0.99001 0.99343 0.0
C1006 C 0.70892 0.03502 0.08064 0.0
C1007 C 0.7075 0.04592 0.01646 0.0
C1008 C 0.70172 0.0095 1.00376 0.0
C1009 C 0.70216 0.03828 0.94757 0.0
C1010 C 0.70605 0.98257 0.92286 0.0
C1011 C 0.70178 0.96127 0.05008 0.0
N1012 N 0.69981 0.02043 0.94261 0.0
N1013 N 0.69945 0.97912 0.05453 0.0
H1014 H 0.95197 0.70156 0.89335 0.0
H1015 H 0.04557 0.70119 0.10745 0.0
H1016 H 0.95841 0.71468 0.13021 0.0
H1017 H 0.0393 0.71379 0.87004 0.0
H1018 H 0.01346 0.69611 0.11615 0.0
H1019 H 0.984 0.69601 0.88491 0.0
C1020 C 0.96006 0.70287 0.94385 0.0
C1021 C 0.95267 0.70881 0.01229 0.0
C1022 C 0.01923 0.69967 0.06194 0.0
C1023 C 0.98901 0.70236 1.00331 0.0
C1024 C 0.03749 0.70248 0.0569 0.0
C1025 C 0.04496 0.70813 0.9882 0.0
C1026 C 0.00854 0.70222 0.99748 0.0
C1027 C 0.03396 0.70969 0.92433 0.0
C1028 C 0.97829 0.69979 0.93896 0.0
C1029 C 0.96369 0.71037 0.07611 0.0
N1030 N 0.01627 0.70684 0.93056 0.0
N1031 N 0.98134 0.70726 0.07002 0.0
H1032 H 0.77969 0.4579 0.64139 0.0
H1033 H 0.77891 0.54082 0.37792 0.0
H1034 H 0.79322 0.45346 0.40422 0.0
H1035 H 0.79224 0.54556 0.61524 0.0
H1036 H 0.78408 0.50887 0.38535 0.0
H1037 H 0.78425 0.48994 0.63411 0.0
C1038 C 0.78385 0.46369 0.58798 0.0
C1039 C 0.78595 0.45311 0.5231 0.0
C1040 C 0.78617 0.51693 0.43549 0.0
C1041 C 0.79086 0.48972 0.51408 0.0
C1042 C 0.78314 0.53512 0.43142 0.0
C1043 C 0.78501 0.54575 0.49628 0.0
C1044 C 0.79065 0.50924 0.50544 0.0
C1045 C 0.79064 0.53778 0.56401 0.0
C1046 C 0.78653 0.48194 0.58398 0.0
C1047 C 0.79147 0.4612 0.45546 0.0
N1048 N 0.79293 0.5199 0.56728 0.0
N1049 N 0.79339 0.47912 0.45225 0.0
H1050 H 0.45324 0.79323 0.61815 0.0
H1051 H 0.54554 0.79411 0.3943 0.0
H1052 H 0.45814 0.77966 0.38108 0.0
H1053 H 0.54093 0.78068 0.63157 0.0
H1054 H 0.51327 0.79845 0.38915 0.0
H1055 H 0.48541 0.79826 0.62325 0.0
C1056 C 0.46104 0.79166 0.56695 0.0
C1057 C 0.45316 0.78581 0.49936 0.0
C1058 C 0.51943 0.79484 0.44251 0.0
C1059 C 0.48963 0.79172 0.50451 0.0
C1060 C 0.53778 0.79245 0.44554 0.0
C1061 C 0.54578 0.78682 0.51321 0.0
C1062 C 0.50919 0.79194 0.50799 0.0
C1063 C 0.53518 0.78478 0.57804 0.0
C1064 C 0.47933 0.79446 0.56994 0.0
C1065 C 0.4638 0.78393 0.43456 0.0
N1066 N 0.5174 0.78728 0.57382 0.0
N1067 N 0.48152 0.78681 0.43875 0.0
H1068 H 0.21383 0.45955 0.37293 0.0
H1069 H 0.21508 0.54171 0.64083 0.0
H1070 H 0.20205 0.45426 0.61147 0.0
H1071 H 0.20111 0.54683 0.40434 0.0
H1072 H 0.20988 0.50978 0.63259 0.0
H1073 H 0.2087 0.49146 0.38236 0.0
C1074 C 0.20991 0.46512 0.42711 0.0
C1075 C 0.20849 0.45435 0.4917 0.0
C1076 C 0.20763 0.51791 0.58285 0.0
C1077 C 0.20295 0.49084 0.50321 0.0
C1078 C 0.21067 0.53611 0.5874 0.0
C1079 C 0.20866 0.54684 0.52296 0.0
C1080 C 0.203 0.51034 0.51283 0.0
C1081 C 0.20281 0.53898 0.45528 0.0
C1082 C 0.20691 0.4833 0.43237 0.0
C1083 C 0.20327 0.46216 0.5604 0.0
N1084 N 0.20053 0.52111 0.45152 0.0
N1085 N 0.20104 0.48003 0.56479 0.0
H1086 H 0.54538 0.20382 0.60987 0.0
H1087 H 0.45239 0.20464 0.39091 0.0
H1088 H 0.53971 0.21846 0.3743 0.0
H1089 H 0.4579 0.2162 0.62967 0.0
H1090 H 0.48458 0.19984 0.38345 0.0
H1091 H 0.51327 0.19856 0.61611 0.0
C1092 C 0.53743 0.20557 0.55919 0.0
C1093 C 0.54508 0.21181 0.49178 0.0
C1094 C 0.47863 0.20312 0.43764 0.0
C1095 C 0.50866 0.20565 0.49823 0.0
C1096 C 0.46033 0.20575 0.44198 0.0
C1097 C 0.45262 0.21102 0.51078 0.0
C1098 C 0.48911 0.20544 0.50289 0.0
C1099 C 0.46343 0.21238 0.57533 0.0
C1100 C 0.51917 0.20264 0.56284 0.0
C1101 C 0.53424 0.21391 0.42768 0.0
N1102 N 0.48116 0.20969 0.56979 0.0
N1103 N 0.51654 0.21091 0.43251 0.0
H1104 H 0.20777 0.14435 0.99256 0.0
H1105 H 0.18597 0.2482 0.98321 0.0
H1106 H 0.24874 0.18424 0.98885 0.0
H1107 H 0.14702 0.2065 0.96756 0.0
H1108 H 0.20942 0.22559 0.9857 0.0
H1109 H 0.18555 0.16751 0.98515 0.0
C1110 C 0.21213 0.15801 0.98938 0.0
C1111 C 0.2302 0.16231 0.99032 0.0
C1112 C 0.19572 0.22145 0.98177 0.0
C1113 C 0.20462 0.18912 0.98319 0.0
C1114 C 0.18236 0.23433 0.98006 0.0
C1115 C 0.16449 0.22923 0.97637 0.0
C1116 C 0.19112 0.2034 0.97945 0.0
C1117 C 0.16056 0.21107 0.97241 0.0
C1118 C 0.19938 0.17128 0.98564 0.0
C1119 C 0.23495 0.18032 0.98846 0.0
N1120 N 0.17372 0.19888 0.97429 0.0
N1121 N 0.22223 0.19309 0.98485 0.0
H1122 H 0.85094 0.20763 0.03806 0.0
H1123 H 0.74731 0.18579 0.0162 0.0
H1124 H 0.81136 0.24856 0.01589 0.0
H1125 H 0.789 0.14666 0.01382 0.0
H1126 H 0.76988 0.20921 0.02068 0.0
H1127 H 0.82775 0.18539 0.03558 0.0
C1128 C 0.83733 0.21195 0.03194 0.0
C1129 C 0.83313 0.23001 0.02576 0.0
C1130 C 0.77402 0.19548 0.0194 0.0
C1131 C 0.80628 0.20442 0.02413 0.0
C1132 C 0.76117 0.18211 0.01654 0.0
C1133 C 0.76624 0.16419 0.01547 0.0
C1134 C 0.79204 0.19087 0.02106 0.0
C1135 C 0.78439 0.16023 0.01639 0.0
C1136 C 0.82405 0.19921 0.03099 0.0
C1137 C 0.81519 0.23478 0.0206 0.0
N1138 N 0.79656 0.17342 0.0192 0.0
N1139 N 0.80239 0.22204 0.01954 0.0
H1140 H 0.81427 0.75204 1.00148 0.0
H1141 H 0.79271 0.85576 0.02729 0.0
H1142 H 0.85383 0.79335 1.00228 0.0
H1143 H 0.75213 0.81601 0.99848 0.0
H1144 H 0.81509 0.83261 0.02385 0.0
H1145 H 0.79113 0.77482 0.00491 0.0
C1146 C 0.8181 0.76587 1.0022 0.0
C1147 C 0.83606 0.77075 1.00227 0.0
C1148 C 0.80131 0.8289 0.01811 0.0
C1149 C 0.80967 0.79684 0.00679 0.0
C1150 C 0.78848 0.84216 0.0196 0.0
C1151 C 0.77047 0.83788 0.01228 0.0
C1152 C 0.79618 0.81113 0.00955 0.0
C1153 C 0.76584 0.81992 0.00467 0.0
C1154 C 0.80489 0.77885 0.00448 0.0
C1155 C 0.84021 0.78889 1.00385 0.0
N1156 N 0.77862 0.8072 1.00333 0.0
N1157 N 0.82715 0.80122 0.00614 0.0
H1158 H 0.14351 0.79154 0.00608 0.0
H1159 H 0.24721 0.81383 0.99952 0.0
H1160 H 0.18379 0.75104 0.99555 0.0
H1161 H 0.20565 0.8531 0.99979 0.0
H1162 H 0.22461 0.79048 0.99931 0.0
H1163 H 0.16649 0.81409 0.00555 0.0
C1164 C 0.15721 0.78737 1.00289 0.0
C1165 C 0.16169 0.76933 0.99992 0.0
C1166 C 0.22048 0.80422 0.99962 0.0
C1167 C 0.18825 0.79524 1.00065 0.0
C1168 C 0.23336 0.81755 0.99944 0.0
C1169 C 0.22835 0.83548 1.00034 0.0
C1170 C 0.20246 0.80886 1.00045 0.0
C1171 C 0.2102 0.8395 1.00072 0.0
C1172 C 0.17037 0.80029 1.00315 0.0
C1173 C 0.17973 0.76478 0.99813 0.0
N1174 N 0.19797 0.82633 1.00078 0.0
N1175 N 0.19236 0.77766 0.99832 0.0
H1176 H 0.66812 0.73265 0.62421 0.0
H1177 H 0.73016 0.66784 0.38391 0.0
H1178 H 0.67147 0.73392 0.37964 0.0
H1179 H 0.73278 0.6725 0.62793 0.0
H1180 H 0.70907 0.69243 0.38089 0.0
H1181 H 0.69224 0.71104 0.62684 0.0
C1182 C 0.67401 0.72844 0.57109 0.0
C1183 C 0.66775 0.73506 0.50161 0.0
C1184 C 0.71437 0.68818 0.43505 0.0
C1185 C 0.69532 0.71028 0.50408 0.0
C1186 C 0.72635 0.6741 0.43682 0.0
C1187 C 0.7332 0.66808 0.50627 0.0
C1188 C 0.70904 0.6962 0.50334 0.0
C1189 C 0.72796 0.6768 0.57305 0.0
C1190 C 0.68782 0.71616 0.57261 0.0
C1191 C 0.67598 0.72929 0.43452 0.0
N1192 N 0.71608 0.69031 0.56997 0.0
N1193 N 0.68923 0.71712 0.43739 0.0
H1194 H 0.3284 0.73138 0.63362 0.0
H1195 H 0.264 0.67231 0.37554 0.0
H1196 H 0.33061 0.73061 0.38874 0.0
H1197 H 0.27022 0.66501 0.61712 0.0
H1198 H 0.28548 0.69657 0.38035 0.0
H1199 H 0.3041 0.71 0.62938 0.0
C1200 C 0.32361 0.72689 0.5789 0.0
C1201 C 0.33155 0.73277 0.51139 0.0
C1202 C 0.28209 0.68971 0.43235 0.0
C1203 C 0.30387 0.70815 0.50618 0.0
C1204 C 0.26974 0.67595 0.42973 0.0
C1205 C 0.26536 0.6666 0.49603 0.0
C1206 C 0.29001 0.69426 0.50186 0.0
C1207 C 0.27338 0.67173 0.56454 0.0
C1208 C 0.30984 0.71457 0.57655 0.0
C1209 C 0.32498 0.72628 0.44214 0.0
N1210 N 0.28532 0.6852 0.56568 0.0
N1211 N 0.31154 0.7143 0.44131 0.0
H1212 H 0.35356 0.29385 0.49674 0.0
H1213 H 0.24965 0.3151 0.50253 0.0
H1214 H 0.31367 0.25292 0.5055 0.0
H1215 H 0.29085 0.35475 0.50559 0.0
H1216 H 0.27247 0.29196 0.5026 0.0
H1217 H 0.33036 0.31616 0.49846 0.0
C1218 C 0.3399 0.28953 0.49982 0.0
C1219 C 0.3356 0.27144 0.50187 0.0
C1220 C 0.27647 0.30574 0.50307 0.0
C1221 C 0.30878 0.29709 0.50247 0.0
C1222 C 0.26347 0.31894 0.50332 0.0
C1223 C 0.26832 0.33692 0.50331 0.0
C1224 C 0.29445 0.31055 0.50306 0.0
C1225 C 0.28643 0.34111 0.5039 0.0
C1226 C 0.32662 0.30232 0.50024 0.0
C1227 C 0.3176 0.26671 0.50357 0.0
N1228 N 0.29878 0.32806 0.50371 0.0
N1229 N 0.30484 0.27946 0.504 0.0
H1230 H 0.73317 0.3278 0.38165 0.0
H1231 H 0.66979 0.2663 0.63352 0.0
H1232 H 0.72961 0.33121 0.62585 0.0
H1233 H 0.66759 0.26855 0.38877 0.0
H1234 H 0.69422 0.28751 0.63177 0.0
H1235 H 0.71171 0.30355 0.38344 0.0
C1236 C 0.72805 0.3233 0.43576 0.0
C1237 C 0.73318 0.33157 0.50374 0.0
C1238 C 0.68846 0.2833 0.57841 0.0
C1239 C 0.70844 0.30395 0.50609 0.0
C1240 C 0.67459 0.27108 0.57931 0.0
C1241 C 0.66661 0.26565 0.51114 0.0
C1242 C 0.69447 0.29013 0.50882 0.0
C1243 C 0.67322 0.27253 0.44269 0.0
C1244 C 0.71569 0.30954 0.43668 0.0
C1245 C 0.72588 0.32535 0.57205 0.0
N1246 N 0.68674 0.28443 0.44328 0.0
N1247 N 0.71386 0.31194 0.57147 0.0
loop_
_geom_bond_atom_site_label_1
_geom_bond_atom_site_label_2
_geom_bond_distance
_geom_bond_site_symmetry_2
_ccdc_geom_bond_type
C0 C1 1.351 . S
C0 N3 1.368 . S
C0 H5 0.931 . S
C1 C0 1.351 . S
C1 N2 1.373 . S
C1 H29 0.930 . S
N2 C1 1.373 . S
N2 C4 1.340 . S
N3 C0 1.368 . S
N3 C4 1.321 . S
N3 Co6 2.135 . S
C4 N2 1.340 . S
C4 N3 1.321 . S
C4 H28 0.930 . S
H5 C0 0.931 . S
Co6 N3 2.135 . S
Co6 N9 2.121 1_554 S
Co6 O14 2.055 . S
Co6 O17 2.039 . S
Co6 N20 2.140 . S
C7 O8 1.227 . S
C7 O17 1.265 . S
O8 C7 1.227 . S
N9 Co6 2.121 1_556 S
N9 C11 1.375 . S
N9 C12 1.313 . S
C10 C11 1.338 . S
C10 N13 1.377 . S
C10 H30 0.930 . S
C11 N9 1.375 . S
C11 C10 1.338 . S
C11 H15 0.931 . S
C12 N9 1.313 . S
C12 N13 1.344 . S
C12 H16 0.930 . S
N13 C10 1.377 . S
N13 C12 1.344 . S
O14 Co6 2.055 . S
O14 C18 1.253 . S
H15 C11 0.931 . S
H16 C12 0.930 . S
O17 Co6 2.039 . S
O17 C7 1.265 . S
C18 O14 1.253 . S
C18 O19 1.227 . S
O19 C18 1.227 . S
N20 Co6 2.140 . S
N20 C23 1.346 . S
N20 C24 1.345 . S
C21 C22 1.387 . S
C21 C25 1.391 . S
C22 C21 1.387 . S
C22 C23 1.369 . S
C22 H31 0.929 . S
C23 N20 1.346 . S
C23 C22 1.369 . S
C23 H26 0.928 . S
C24 N20 1.345 . S
C24 C25 1.371 . S
C24 H27 0.931 1_554 S
C25 C21 1.391 . S
C25 C24 1.371 . S
C25 H32 0.930 1_554 S
H26 C23 0.928 . S
H27 C24 0.931 1_556 S
H28 C4 0.930 . S
H29 C1 0.930 . S
H30 C10 0.930 . S
H31 C22 0.929 . S
H32 C25 0.930 1_556 S
C33 C34 1.351 . S
C33 N36 1.368 . S
C33 H38 0.931 . S
C34 C33 1.351 . S
C34 N35 1.373 . S
C34 H62 0.930 . S
N35 C34 1.373 . S
N35 C37 1.340 . S
N36 C33 1.368 . S
N36 C37 1.321 . S
N36 Co39 2.135 . S
C37 N35 1.340 . S
C37 N36 1.321 . S
C37 H61 0.930 . S
H38 C33 0.931 . S
Co39 N36 2.135 . S
Co39 N42 2.121 1_554 S
Co39 O47 2.055 . S
Co39 O50 2.039 . S
Co39 N53 2.140 . S
C40 O41 1.227 . S
C40 O50 1.265 . S
O41 C40 1.227 . S
N42 Co39 2.121 1_556 S
N42 C44 1.375 . S
N42 C45 1.313 . S
C43 C44 1.338 . S
C43 N46 1.377 . S
C43 H63 0.930 . S
C44 N42 1.375 . S
C44 C43 1.338 . S
C44 H48 0.931 . S
C45 N42 1.313 . S
C45 N46 1.344 . S
C45 H49 0.930 . S
N46 C43 1.377 . S
N46 C45 1.344 . S
O47 Co39 2.055 . S
O47 C51 1.253 . S
H48 C44 0.931 . S
H49 C45 0.930 . S
O50 Co39 2.039 . S
O50 C40 1.265 . S
C51 O47 1.253 . S
C51 O52 1.227 . S
O52 C51 1.227 . S
N53 Co39 2.140 . S
N53 C56 1.346 . S
N53 C57 1.345 . S
C54 C55 1.387 . S
C54 C58 1.391 . S
C55 C54 1.387 . S
C55 C56 1.369 . S
C55 H64 0.929 . S
C56 N53 1.346 . S
C56 C55 1.369 . S
C56 H59 0.928 . S
C57 N53 1.345 . S
C57 C58 1.371 . S
C57 H60 0.931 1_554 S
C58 C54 1.391 . S
C58 C57 1.371 . S
C58 H65 0.930 1_554 S
H59 C56 0.928 . S
H60 C57 0.931 1_556 S
H61 C37 0.930 . S
H62 C34 0.930 . S
H63 C43 0.930 . S
H64 C55 0.929 . S
H65 C58 0.930 1_556 S
C66 C67 1.351 . S
C66 N69 1.368 . S
C66 H71 0.931 . S
C67 C66 1.351 . S
C67 N68 1.373 . S
C67 H95 0.930 . S
N68 C67 1.373 . S
N68 C70 1.340 . S
N69 C66 1.368 . S
N69 C70 1.321 . S
N69 Co72 2.135 . S
C70 N68 1.340 . S
C70 N69 1.321 . S
C70 H94 0.930 . S
H71 C66 0.931 . S
Co72 N69 2.135 . S
Co72 N75 2.121 1_554 S
Co72 O80 2.055 . S
Co72 O83 2.039 . S
Co72 N86 2.140 . S
C73 O74 1.227 . S
C73 O83 1.265 . S
O74 C73 1.227 . S
N75 Co72 2.121 1_556 S
N75 C77 1.375 . S
N75 C78 1.313 . S
C76 C77 1.338 . S
C76 N79 1.377 . S
C76 H96 0.930 . S
C77 N75 1.375 . S
C77 C76 1.338 . S
C77 H81 0.931 . S
C78 N75 1.313 . S
C78 N79 1.344 . S
C78 H82 0.930 . S
N79 C76 1.377 . S
N79 C78 1.344 . S
O80 Co72 2.055 . S
O80 C84 1.253 . S
H81 C77 0.931 . S
H82 C78 0.930 . S
O83 Co72 2.039 . S
O83 C73 1.265 . S
C84 O80 1.253 . S
C84 O85 1.227 . S
O85 C84 1.227 . S
N86 Co72 2.140 . S
N86 C89 1.346 . S
N86 C90 1.345 . S
C87 C88 1.387 . S
C87 C91 1.391 . S
C88 C87 1.387 . S
C88 C89 1.369 . S
C88 H97 0.929 . S
C89 N86 1.346 . S
C89 C88 1.369 . S
C89 H92 0.928 . S
C90 N86 1.345 . S
C90 C91 1.371 . S
C90 H93 0.931 1_554 S
C91 C87 1.391 . S
C91 C90 1.371 . S
C91 H98 0.930 1_554 S
H92 C89 0.928 . S
H93 C90 0.931 1_556 S
H94 C70 0.930 . S
H95 C67 0.930 . S
H96 C76 0.930 . S
H97 C88 0.929 . S
H98 C91 0.930 1_556 S
C99 C100 1.351 . S
C99 N102 1.368 . S
C99 H104 0.931 . S
C100 C99 1.351 . S
C100 N101 1.373 . S
C100 H128 0.930 . S
N101 C100 1.373 . S
N101 C103 1.340 . S
N102 C99 1.368 . S
N102 C103 1.321 . S
N102 Co105 2.135 . S
C103 N101 1.340 . S
C103 N102 1.321 . S
C103 H127 0.930 . S
H104 C99 0.931 . S
Co105 N102 2.135 . S
Co105 N108 2.121 1_554 S
Co105 O113 2.055 . S
Co105 O116 2.039 . S
Co105 N119 2.140 . S
C106 O107 1.227 . S
C106 O116 1.265 . S
O107 C106 1.227 . S
N108 Co105 2.121 1_556 S
N108 C110 1.375 . S
N108 C111 1.313 . S
C109 C110 1.338 . S
C109 N112 1.377 . S
C109 H129 0.930 . S
C110 N108 1.375 . S
C110 C109 1.338 . S
C110 H114 0.931 . S
C111 N108 1.313 . S
C111 N112 1.344 . S
C111 H115 0.930 . S
N112 C109 1.377 . S
N112 C111 1.344 . S
O113 Co105 2.055 . S
O113 C117 1.253 . S
H114 C110 0.931 . S
H115 C111 0.930 . S
O116 Co105 2.039 . S
O116 C106 1.265 . S
C117 O113 1.253 . S
C117 O118 1.227 . S
O118 C117 1.227 . S
N119 Co105 2.140 . S
N119 C122 1.346 . S
N119 C123 1.345 . S
C120 C121 1.387 . S
C120 C124 1.391 . S
C121 C120 1.387 . S
C121 C122 1.369 . S
C121 H130 0.929 . S
C122 N119 1.346 . S
C122 C121 1.369 . S
C122 H125 0.928 . S
C123 N119 1.345 . S
C123 C124 1.371 . S
C123 H126 0.931 1_554 S
C124 C120 1.391 . S
C124 C123 1.371 . S
C124 H131 0.930 1_554 S
H125 C122 0.928 . S
H126 C123 0.931 1_556 S
H127 C103 0.930 . S
H128 C100 0.930 . S
H129 C109 0.930 . S
H130 C121 0.929 . S
H131 C124 0.930 1_556 S
C132 C133 1.351 . S
C132 N135 1.368 . S
C132 H137 0.931 . S
C133 C132 1.351 . S
C133 N134 1.373 . S
C133 H161 0.930 . S
N134 C133 1.373 . S
N134 C136 1.340 . S
N135 C132 1.368 . S
N135 C136 1.321 . S
N135 Co138 2.135 . S
C136 N134 1.340 . S
C136 N135 1.321 . S
C136 H160 0.930 . S
H137 C132 0.931 . S
Co138 N135 2.135 . S
Co138 N141 2.121 1_556 S
Co138 O146 2.055 . S
Co138 O149 2.039 . S
Co138 N152 2.140 . S
C139 O140 1.227 . S
C139 O149 1.265 . S
O140 C139 1.227 . S
N141 Co138 2.121 1_554 S
N141 C143 1.375 . S
N141 C144 1.313 . S
C142 C143 1.338 . S
C142 N145 1.377 . S
C142 H162 0.930 . S
C143 N141 1.375 . S
C143 C142 1.338 . S
C143 H147 0.931 . S
C144 N141 1.313 . S
C144 N145 1.344 . S
C144 H148 0.930 . S
N145 C142 1.377 . S
N145 C144 1.344 . S
O146 Co138 2.055 . S
O146 C150 1.253 . S
H147 C143 0.931 . S
H148 C144 0.930 . S
O149 Co138 2.039 . S
O149 C139 1.265 . S
C150 O146 1.253 . S
C150 O151 1.227 . S
O151 C150 1.227 . S
N152 Co138 2.140 . S
N152 C155 1.346 . S
N152 C156 1.345 . S
C153 C154 1.387 . S
C153 C157 1.391 . S
C154 C153 1.387 . S
C154 C155 1.369 . S
C154 H163 0.929 . S
C155 N152 1.346 . S
C155 C154 1.369 . S
C155 H158 0.928 . S
C156 N152 1.345 . S
C156 C157 1.371 . S
C156 H159 0.931 1_556 S
C157 C153 1.391 . S
C157 C156 1.371 . S
C157 H164 0.930 1_556 S
H158 C155 0.928 . S
H159 C156 0.931 1_554 S
H160 C136 0.930 . S
H161 C133 0.930 . S
H162 C142 0.930 . S
H163 C154 0.929 . S
H164 C157 0.930 1_554 S
C165 C166 1.351 . S
C165 N168 1.368 . S
C165 H170 0.931 . S
C166 C165 1.351 . S
C166 N167 1.373 . S
C166 H194 0.930 . S
N167 C166 1.373 . S
N167 C169 1.340 . S
N168 C165 1.368 . S
N168 C169 1.321 . S
N168 Co171 2.135 . S
C169 N167 1.340 . S
C169 N168 1.321 . S
C169 H193 0.930 . S
H170 C165 0.931 . S
Co171 N168 2.135 . S
Co171 N174 2.121 1_556 S
Co171 O179 2.055 . S
Co171 O182 2.039 . S
Co171 N185 2.140 . S
C172 O173 1.227 . S
C172 O182 1.265 . S
O173 C172 1.227 . S
N174 Co171 2.121 1_554 S
N174 C176 1.375 . S
N174 C177 1.313 . S
C175 C176 1.338 . S
C175 N178 1.377 . S
C175 H195 0.930 . S
C176 N174 1.375 . S
C176 C175 1.338 . S
C176 H180 0.931 . S
C177 N174 1.313 . S
C177 N178 1.344 . S
C177 H181 0.930 . S
N178 C175 1.377 . S
N178 C177 1.344 . S
O179 Co171 2.055 . S
O179 C183 1.253 . S
H180 C176 0.931 . S
H181 C177 0.930 . S
O182 Co171 2.039 . S
O182 C172 1.265 . S
C183 O179 1.253 . S
C183 O184 1.227 . S
O184 C183 1.227 . S
N185 Co171 2.140 . S
N185 C188 1.346 . S
N185 C189 1.345 . S
C186 C187 1.387 . S
C186 C190 1.391 . S
C187 C186 1.387 . S
C187 C188 1.369 . S
C187 H196 0.929 . S
C188 N185 1.346 . S
C188 C187 1.369 . S
C188 H191 0.928 . S
C189 N185 1.345 . S
C189 C190 1.371 . S
C189 H192 0.931 1_556 S
C190 C186 1.391 . S
C190 C189 1.371 . S
C190 H197 0.930 1_556 S
H191 C188 0.928 . S
H192 C189 0.931 1_554 S
H193 C169 0.930 . S
H194 C166 0.930 . S
H195 C175 0.930 . S
H196 C187 0.929 . S
H197 C190 0.930 1_554 S
C198 C199 1.351 . S
C198 N201 1.368 . S
C198 H203 0.931 . S
C199 C198 1.351 . S
C199 N200 1.373 . S
C199 H227 0.930 . S
N200 C199 1.373 . S
N200 C202 1.340 . S
N201 C198 1.368 . S
N201 C202 1.321 . S
N201 Co204 2.135 . S
C202 N200 1.340 . S
C202 N201 1.321 . S
C202 H226 0.930 . S
H203 C198 0.931 . S
Co204 N201 2.135 . S
Co204 N207 2.121 1_556 S
Co204 O212 2.055 . S
Co204 O215 2.039 . S
Co204 N218 2.140 . S
C205 O206 1.227 . S
C205 O215 1.265 . S
O206 C205 1.227 . S
N207 Co204 2.121 1_554 S
N207 C209 1.375 . S
N207 C210 1.313 . S
C208 C209 1.338 . S
C208 N211 1.377 . S
C208 H228 0.930 . S
C209 N207 1.375 . S
C209 C208 1.338 . S
C209 H213 0.931 . S
C210 N207 1.313 . S
C210 N211 1.344 . S
C210 H214 0.930 . S
N211 C208 1.377 . S
N211 C210 1.344 . S
O212 Co204 2.055 . S
O212 C216 1.253 . S
H213 C209 0.931 . S
H214 C210 0.930 . S
O215 Co204 2.039 . S
O215 C205 1.265 . S
C216 O212 1.253 . S
C216 O217 1.227 . S
O217 C216 1.227 . S
N218 Co204 2.140 . S
N218 C221 1.346 . S
N218 C222 1.345 . S
C219 C220 1.387 . S
C219 C223 1.391 . S
C220 C219 1.387 . S
C220 C221 1.369 . S
C220 H229 0.929 . S
C221 N218 1.346 . S
C221 C220 1.369 . S
C221 H224 0.928 . S
C222 N218 1.345 . S
C222 C223 1.371 . S
C222 H225 0.931 1_556 S
C223 C219 1.391 . S
C223 C222 1.371 . S
C223 H230 0.930 1_556 S
H224 C221 0.928 . S
H225 C222 0.931 1_554 S
H226 C202 0.930 . S
H227 C199 0.930 . S
H228 C208 0.930 . S
H229 C220 0.929 . S
H230 C223 0.930 1_554 S
C231 C232 1.351 . S
C231 N234 1.368 . S
C231 H236 0.931 . S
C232 C231 1.351 . S
C232 N233 1.373 . S
C232 H260 0.930 . S
N233 C232 1.373 . S
N233 C235 1.340 . S
N234 C231 1.368 . S
N234 C235 1.321 . S
N234 Co237 2.135 . S
C235 N233 1.340 . S
C235 N234 1.321 . S
C235 H259 0.930 . S
H236 C231 0.931 . S
Co237 N234 2.135 . S
Co237 N240 2.121 1_556 S
Co237 O245 2.055 . S
Co237 O248 2.039 . S
Co237 N251 2.140 . S
C238 O239 1.227 . S
C238 O248 1.265 . S
O239 C238 1.227 . S
N240 Co237 2.121 1_554 S
N240 C242 1.375 . S
N240 C243 1.313 . S
C241 C242 1.338 . S
C241 N244 1.377 . S
C241 H261 0.930 . S
C242 N240 1.375 . S
C242 C241 1.338 . S
C242 H246 0.931 . S
C243 N240 1.313 . S
C243 N244 1.344 . S
C243 H247 0.930 . S
N244 C241 1.377 . S
N244 C243 1.344 . S
O245 Co237 2.055 . S
O245 C249 1.253 . S
H246 C242 0.931 . S
H247 C243 0.930 . S
O248 Co237 2.039 . S
O248 C238 1.265 . S
C249 O245 1.253 . S
C249 O250 1.227 . S
O250 C249 1.227 . S
N251 Co237 2.140 . S
N251 C254 1.346 . S
N251 C255 1.345 . S
C252 C253 1.387 . S
C252 C256 1.391 . S
C253 C252 1.387 . S
C253 C254 1.369 . S
C253 H262 0.929 . S
C254 N251 1.346 . S
C254 C253 1.369 . S
C254 H257 0.928 . S
C255 N251 1.345 . S
C255 C256 1.371 . S
C255 H258 0.931 1_556 S
C256 C252 1.391 . S
C256 C255 1.371 . S
C256 H263 0.930 1_556 S
H257 C254 0.928 . S
H258 C255 0.931 1_554 S
H259 C235 0.930 . S
H260 C232 0.930 . S
H261 C241 0.930 . S
H262 C253 0.929 . S
H263 C256 0.930 1_554 S
C264 C265 1.351 . S
C264 N267 1.368 . S
C264 H269 0.931 . S
C265 C264 1.351 . S
C265 N266 1.373 . S
C265 H293 0.930 . S
N266 C265 1.373 . S
N266 C268 1.340 . S
N267 C264 1.368 . S
N267 C268 1.321 . S
N267 Co270 2.135 . S
C268 N266 1.340 . S
C268 N267 1.321 . S
C268 H292 0.930 . S
H269 C264 0.931 . S
Co270 N267 2.135 . S
Co270 N273 2.121 . S
Co270 O278 2.055 . S
Co270 O281 2.039 . S
Co270 N284 2.140 . S
C271 O272 1.227 . S
C271 O281 1.265 . S
O272 C271 1.227 . S
N273 Co270 2.121 . S
N273 C275 1.375 . S
N273 C276 1.313 . S
C274 C275 1.338 . S
C274 N277 1.377 . S
C274 H294 0.930 . S
C275 N273 1.375 . S
C275 C274 1.338 . S
C275 H279 0.931 . S
C276 N273 1.313 . S
C276 N277 1.344 . S
C276 H280 0.930 . S
N277 C274 1.377 . S
N277 C276 1.344 . S
O278 Co270 2.055 . S
O278 C282 1.253 . S
H279 C275 0.931 . S
H280 C276 0.930 . S
O281 Co270 2.039 . S
O281 C271 1.265 . S
C282 O278 1.253 . S
C282 O283 1.227 . S
O283 C282 1.227 . S
N284 Co270 2.140 . S
N284 C287 1.346 . S
N284 C288 1.345 . S
C285 C286 1.387 . S
C285 C289 1.391 . S
C286 C285 1.387 . S
C286 C287 1.369 . S
C286 H295 0.929 . S
C287 N284 1.346 . S
C287 C286 1.369 . S
C287 H290 0.928 . S
C288 N284 1.345 . S
C288 C289 1.371 . S
C288 H291 0.931 . S
C289 C285 1.391 . S
C289 C288 1.371 . S
C289 H296 0.930 . S
H290 C287 0.928 . S
H291 C288 0.931 . S
H292 C268 0.930 . S
H293 C265 0.930 . S
H294 C274 0.930 . S
H295 C286 0.929 . S
H296 C289 0.930 . S
C297 C298 1.351 . S
C297 N300 1.368 . S
C297 H302 0.931 . S
C298 C297 1.351 . S
C298 N299 1.373 . S
C298 H326 0.930 . S
N299 C298 1.373 . S
N299 C301 1.340 . S
N300 C297 1.368 . S
N300 C301 1.321 . S
N300 Co303 2.135 . S
C301 N299 1.340 . S
C301 N300 1.321 . S
C301 H325 0.930 . S
H302 C297 0.931 . S
Co303 N300 2.135 . S
Co303 N306 2.121 . S
Co303 O311 2.055 . S
Co303 O314 2.039 . S
Co303 N317 2.140 . S
C304 O305 1.227 . S
C304 O314 1.265 . S
O305 C304 1.227 . S
N306 Co303 2.121 . S
N306 C308 1.375 . S
N306 C309 1.313 . S
C307 C308 1.338 . S
C307 N310 1.377 . S
C307 H327 0.930 . S
C308 N306 1.375 . S
C308 C307 1.338 . S
C308 H312 0.931 . S
C309 N306 1.313 . S
C309 N310 1.344 . S
C309 H313 0.930 . S
N310 C307 1.377 . S
N310 C309 1.344 . S
O311 Co303 2.055 . S
O311 C315 1.253 . S
H312 C308 0.931 . S
H313 C309 0.930 . S
O314 Co303 2.039 . S
O314 C304 1.265 . S
C315 O311 1.253 . S
C315 O316 1.227 . S
O316 C315 1.227 . S
N317 Co303 2.140 . S
N317 C320 1.346 . S
N317 C321 1.345 . S
C318 C319 1.387 . S
C318 C322 1.391 . S
C319 C318 1.387 . S
C319 C320 1.369 . S
C319 H328 0.929 . S
C320 N317 1.346 . S
C320 C319 1.369 . S
C320 H323 0.928 . S
C321 N317 1.345 . S
C321 C322 1.371 . S
C321 H324 0.931 . S
C322 C318 1.391 . S
C322 C321 1.371 . S
C322 H329 0.930 . S
H323 C320 0.928 . S
H324 C321 0.931 . S
H325 C301 0.930 . S
H326 C298 0.930 . S
H327 C307 0.930 . S
H328 C319 0.929 . S
H329 C322 0.930 . S
C330 C331 1.351 . S
C330 N333 1.368 . S
C330 H335 0.931 . S
C331 C330 1.351 . S
C331 N332 1.373 . S
C331 H359 0.930 . S
N332 C331 1.373 . S
N332 C334 1.340 . S
N333 C330 1.368 . S
N333 C334 1.321 . S
N333 Co336 2.135 . S
C334 N332 1.340 . S
C334 N333 1.321 . S
C334 H358 0.930 . S
H335 C330 0.931 . S
Co336 N333 2.135 . S
Co336 N339 2.121 . S
Co336 O344 2.055 . S
Co336 O347 2.039 . S
Co336 N350 2.140 . S
C337 O338 1.227 . S
C337 O347 1.265 . S
O338 C337 1.227 . S
N339 Co336 2.121 . S
N339 C341 1.375 . S
N339 C342 1.313 . S
C340 C341 1.338 . S
C340 N343 1.377 . S
C340 H360 0.930 . S
C341 N339 1.375 . S
C341 C340 1.338 . S
C341 H345 0.931 . S
C342 N339 1.313 . S
C342 N343 1.344 . S
C342 H346 0.930 . S
N343 C340 1.377 . S
N343 C342 1.344 . S
O344 Co336 2.055 . S
O344 C348 1.253 . S
H345 C341 0.931 . S
H346 C342 0.930 . S
O347 Co336 2.039 . S
O347 C337 1.265 . S
C348 O344 1.253 . S
C348 O349 1.227 . S
O349 C348 1.227 . S
N350 Co336 2.140 . S
N350 C353 1.346 . S
N350 C354 1.345 . S
C351 C352 1.387 . S
C351 C355 1.391 . S
C352 C351 1.387 . S
C352 C353 1.369 . S
C352 H361 0.929 . S
C353 N350 1.346 . S
C353 C352 1.369 . S
C353 H356 0.928 . S
C354 N350 1.345 . S
C354 C355 1.371 . S
C354 H357 0.931 . S
C355 C351 1.391 . S
C355 C354 1.371 . S
C355 H362 0.930 . S
H356 C353 0.928 . S
H357 C354 0.931 . S
H358 C334 0.930 . S
H359 C331 0.930 . S
H360 C340 0.930 . S
H361 C352 0.929 . S
H362 C355 0.930 . S
C363 C364 1.351 . S
C363 N366 1.368 . S
C363 H368 0.931 . S
C364 C363 1.351 . S
C364 N365 1.373 . S
C364 H392 0.930 . S
N365 C364 1.373 . S
N365 C367 1.340 . S
N366 C363 1.368 . S
N366 C367 1.321 . S
N366 Co369 2.135 . S
C367 N365 1.340 . S
C367 N366 1.321 . S
C367 H391 0.930 . S
H368 C363 0.931 . S
Co369 N366 2.135 . S
Co369 N372 2.121 . S
Co369 O377 2.055 . S
Co369 O380 2.039 . S
Co369 N383 2.140 . S
C370 O371 1.227 . S
C370 O380 1.265 . S
O371 C370 1.227 . S
N372 Co369 2.121 . S
N372 C374 1.375 . S
N372 C375 1.313 . S
C373 C374 1.338 . S
C373 N376 1.377 . S
C373 H393 0.930 . S
C374 N372 1.375 . S
C374 C373 1.338 . S
C374 H378 0.931 . S
C375 N372 1.313 . S
C375 N376 1.344 . S
C375 H379 0.930 . S
N376 C373 1.377 . S
N376 C375 1.344 . S
O377 Co369 2.055 . S
O377 C381 1.253 . S
H378 C374 0.931 . S
H379 C375 0.930 . S
O380 Co369 2.039 . S
O380 C370 1.265 . S
C381 O377 1.253 . S
C381 O382 1.227 . S
O382 C381 1.227 . S
N383 Co369 2.140 . S
N383 C386 1.346 . S
N383 C387 1.345 . S
C384 C385 1.387 . S
C384 C388 1.391 . S
C385 C384 1.387 . S
C385 C386 1.369 . S
C385 H394 0.929 . S
C386 N383 1.346 . S
C386 C385 1.369 . S
C386 H389 0.928 . S
C387 N383 1.345 . S
C387 C388 1.371 . S
C387 H390 0.931 . S
C388 C384 1.391 . S
C388 C387 1.371 . S
C388 H395 0.930 . S
H389 C386 0.928 . S
H390 C387 0.931 . S
H391 C367 0.930 . S
H392 C364 0.930 . S
H393 C373 0.930 . S
H394 C385 0.929 . S
H395 C388 0.930 . S
C396 C397 1.351 . S
C396 N399 1.368 . S
C396 H401 0.931 . S
C397 C396 1.351 . S
C397 N398 1.373 . S
C397 H425 0.930 . S
N398 C397 1.373 . S
N398 C400 1.340 . S
N399 C396 1.368 . S
N399 C400 1.321 . S
N399 Co402 2.135 . S
C400 N398 1.340 . S
C400 N399 1.321 . S
C400 H424 0.930 . S
H401 C396 0.931 . S
Co402 N399 2.135 . S
Co402 N405 2.121 . S
Co402 O410 2.055 . S
Co402 O413 2.039 . S
Co402 N416 2.140 . S
C403 O404 1.227 . S
C403 O413 1.265 . S
O404 C403 1.227 . S
N405 Co402 2.121 . S
N405 C407 1.375 . S
N405 C408 1.313 . S
C406 C407 1.338 . S
C406 N409 1.377 . S
C406 H426 0.930 . S
C407 N405 1.375 . S
C407 C406 1.338 . S
C407 H411 0.931 . S
C408 N405 1.313 . S
C408 N409 1.344 . S
C408 H412 0.930 . S
N409 C406 1.377 . S
N409 C408 1.344 . S
O410 Co402 2.055 . S
O410 C414 1.253 . S
H411 C407 0.931 . S
H412 C408 0.930 . S
O413 Co402 2.039 . S
O413 C403 1.265 . S
C414 O410 1.253 . S
C414 O415 1.227 . S
O415 C414 1.227 . S
N416 Co402 2.140 . S
N416 C419 1.346 . S
N416 C420 1.345 . S
C417 C418 1.387 . S
C417 C421 1.391 . S
C418 C417 1.387 . S
C418 C419 1.369 . S
C418 H427 0.929 . S
C419 N416 1.346 . S
C419 C418 1.369 . S
C419 H422 0.928 . S
C420 N416 1.345 . S
C420 C421 1.371 . S
C420 H423 0.931 . S
C421 C417 1.391 . S
C421 C420 1.371 . S
C421 H428 0.930 . S
H422 C419 0.928 . S
H423 C420 0.931 . S
H424 C400 0.930 . S
H425 C397 0.930 . S
H426 C406 0.930 . S
H427 C418 0.929 . S
H428 C421 0.930 . S
C429 C430 1.351 . S
C429 N432 1.368 . S
C429 H434 0.931 . S
C430 C429 1.351 . S
C430 N431 1.373 . S
C430 H458 0.930 . S
N431 C430 1.373 . S
N431 C433 1.340 . S
N432 C429 1.368 . S
N432 C433 1.321 . S
N432 Co435 2.135 . S
C433 N431 1.340 . S
C433 N432 1.321 . S
C433 H457 0.930 . S
H434 C429 0.931 . S
Co435 N432 2.135 . S
Co435 N438 2.121 . S
Co435 O443 2.055 . S
Co435 O446 2.039 . S
Co435 N449 2.140 . S
C436 O437 1.227 . S
C436 O446 1.265 . S
O437 C436 1.227 . S
N438 Co435 2.121 . S
N438 C440 1.375 . S
N438 C441 1.313 . S
C439 C440 1.338 . S
C439 N442 1.377 . S
C439 H459 0.930 . S
C440 N438 1.375 . S
C440 C439 1.338 . S
C440 H444 0.931 . S
C441 N438 1.313 . S
C441 N442 1.344 . S
C441 H445 0.930 . S
N442 C439 1.377 . S
N442 C441 1.344 . S
O443 Co435 2.055 . S
O443 C447 1.253 . S
H444 C440 0.931 . S
H445 C441 0.930 . S
O446 Co435 2.039 . S
O446 C436 1.265 . S
C447 O443 1.253 . S
C447 O448 1.227 . S
O448 C447 1.227 . S
N449 Co435 2.140 . S
N449 C452 1.346 . S
N449 C453 1.345 . S
C450 C451 1.387 . S
C450 C454 1.391 . S
C451 C450 1.387 . S
C451 C452 1.369 . S
C451 H460 0.929 . S
C452 N449 1.346 . S
C452 C451 1.369 . S
C452 H455 0.928 . S
C453 N449 1.345 . S
C453 C454 1.371 . S
C453 H456 0.931 . S
C454 C450 1.391 . S
C454 C453 1.371 . S
C454 H461 0.930 . S
H455 C452 0.928 . S
H456 C453 0.931 . S
H457 C433 0.930 . S
H458 C430 0.930 . S
H459 C439 0.930 . S
H460 C451 0.929 . S
H461 C454 0.930 . S
C462 C463 1.351 . S
C462 N465 1.368 . S
C462 H467 0.931 . S
C463 C462 1.351 . S
C463 N464 1.373 . S
C463 H491 0.930 . S
N464 C463 1.373 . S
N464 C466 1.340 . S
N465 C462 1.368 . S
N465 C466 1.321 . S
N465 Co468 2.135 . S
C466 N464 1.340 . S
C466 N465 1.321 . S
C466 H490 0.930 . S
H467 C462 0.931 . S
Co468 N465 2.135 . S
Co468 N471 2.121 . S
Co468 O476 2.055 . S
Co468 O479 2.039 . S
Co468 N482 2.140 . S
C469 O470 1.227 . S
C469 O479 1.265 . S
O470 C469 1.227 . S
N471 Co468 2.121 . S
N471 C473 1.375 . S
N471 C474 1.313 . S
C472 C473 1.338 . S
C472 N475 1.377 . S
C472 H492 0.930 . S
C473 N471 1.375 . S
C473 C472 1.338 . S
C473 H477 0.931 . S
C474 N471 1.313 . S
C474 N475 1.344 . S
C474 H478 0.930 . S
N475 C472 1.377 . S
N475 C474 1.344 . S
O476 Co468 2.055 . S
O476 C480 1.253 . S
H477 C473 0.931 . S
H478 C474 0.930 . S
O479 Co468 2.039 . S
O479 C469 1.265 . S
C480 O476 1.253 . S
C480 O481 1.227 . S
O481 C480 1.227 . S
N482 Co468 2.140 . S
N482 C485 1.346 . S
N482 C486 1.345 . S
C483 C484 1.387 . S
C483 C487 1.391 . S
C484 C483 1.387 . S
C484 C485 1.369 . S
C484 H493 0.929 . S
C485 N482 1.346 . S
C485 C484 1.369 . S
C485 H488 0.928 . S
C486 N482 1.345 . S
C486 C487 1.371 . S
C486 H489 0.931 . S
C487 C483 1.391 . S
C487 C486 1.371 . S
C487 H494 0.930 . S
H488 C485 0.928 . S
H489 C486 0.931 . S
H490 C466 0.930 . S
H491 C463 0.930 . S
H492 C472 0.930 . S
H493 C484 0.929 . S
H494 C487 0.930 . S
C495 C496 1.351 . S
C495 N498 1.368 . S
C495 H500 0.931 . S
C496 C495 1.351 . S
C496 N497 1.373 . S
C496 H524 0.930 . S
N497 C496 1.373 . S
N497 C499 1.340 . S
N498 C495 1.368 . S
N498 C499 1.321 . S
N498 Co501 2.135 . S
C499 N497 1.340 . S
C499 N498 1.321 . S
C499 H523 0.930 . S
H500 C495 0.931 . S
Co501 N498 2.135 . S
Co501 N504 2.121 . S
Co501 O509 2.055 . S
Co501 O512 2.039 . S
Co501 N515 2.140 . S
C502 O503 1.227 . S
C502 O512 1.265 . S
O503 C502 1.227 . S
N504 Co501 2.121 . S
N504 C506 1.375 . S
N504 C507 1.313 . S
C505 C506 1.338 . S
C505 N508 1.377 . S
C505 H525 0.930 . S
C506 N504 1.375 . S
C506 C505 1.338 . S
C506 H510 0.931 . S
C507 N504 1.313 . S
C507 N508 1.344 . S
C507 H511 0.930 . S
N508 C505 1.377 . S
N508 C507 1.344 . S
O509 Co501 2.055 . S
O509 C513 1.253 . S
H510 C506 0.931 . S
H511 C507 0.930 . S
O512 Co501 2.039 . S
O512 C502 1.265 . S
C513 O509 1.253 . S
C513 O514 1.227 . S
O514 C513 1.227 . S
N515 Co501 2.140 . S
N515 C518 1.346 . S
N515 C519 1.345 . S
C516 C517 1.387 . S
C516 C520 1.391 . S
C517 C516 1.387 . S
C517 C518 1.369 . S
C517 H526 0.929 . S
C518 N515 1.346 . S
C518 C517 1.369 . S
C518 H521 0.928 . S
C519 N515 1.345 . S
C519 C520 1.371 . S
C519 H522 0.931 . S
C520 C516 1.391 . S
C520 C519 1.371 . S
C520 H527 0.930 . S
H521 C518 0.928 . S
H522 C519 0.931 . S
H523 C499 0.930 . S
H524 C496 0.930 . S
H525 C505 0.930 . S
H526 C517 0.929 . S
H527 C520 0.930 . S
H528 C534 0.930 . S
H529 C538 0.930 . S
H530 C543 0.929 . S
H531 C541 0.929 . S
H532 C536 0.929 . S
H533 C542 0.929 . S
C534 H528 0.930 . S
C534 C535 1.367 . S
C534 C542 1.378 . S
C535 C534 1.367 . S
C535 C543 1.433 . S
C536 H532 0.929 . S
C536 C538 1.378 . S
C536 C540 1.350 . S
C537 C540 1.463 . S
C537 C542 1.350 . S
C537 N545 1.427 . S
C538 H529 0.930 . S
C538 C536 1.378 . S
C538 C539 1.367 . S
C539 C538 1.367 . S
C539 C541 1.433 . S
C540 C536 1.350 . S
C540 C537 1.463 . S
C540 N544 1.427 . S
C541 H531 0.929 . S
C541 C539 1.433 . S
C541 N544 1.384 . S
C542 H533 0.929 . S
C542 C534 1.378 . S
C542 C537 1.350 . S
C543 H530 0.929 . S
C543 C535 1.433 . S
C543 N545 1.384 . S
N544 C540 1.427 . S
N544 C541 1.384 . S
N545 C537 1.427 . S
N545 C543 1.384 . S
H546 C552 0.930 . S
H547 C556 0.930 . S
H548 C561 0.929 . S
H549 C559 0.929 . S
H550 C554 0.929 . S
H551 C560 0.929 . S
C552 H546 0.930 . S
C552 C553 1.367 . S
C552 C560 1.378 . S
C553 C552 1.367 . S
C553 C561 1.433 . S
C554 H550 0.929 . S
C554 C556 1.378 . S
C554 C558 1.350 . S
C555 C558 1.463 . S
C555 C560 1.350 . S
C555 N563 1.427 . S
C556 H547 0.930 . S
C556 C554 1.378 . S
C556 C557 1.367 . S
C557 C556 1.367 . S
C557 C559 1.433 . S
C558 C554 1.350 . S
C558 C555 1.463 . S
C558 N562 1.427 . S
C559 H549 0.929 . S
C559 C557 1.433 . S
C559 N562 1.384 . S
C560 H551 0.929 . S
C560 C552 1.378 . S
C560 C555 1.350 . S
C561 H548 0.929 . S
C561 C553 1.433 . S
C561 N563 1.384 . S
N562 C558 1.427 . S
N562 C559 1.384 . S
N563 C555 1.427 . S
N563 C561 1.384 . S
H564 C570 0.930 . S
H565 C574 0.930 . S
H566 C579 0.929 . S
H567 C577 0.929 . S
H568 C572 0.929 . S
H569 C578 0.929 . S
C570 H564 0.930 . S
C570 C571 1.367 . S
C570 C578 1.378 . S
C571 C570 1.367 . S
C571 C579 1.433 . S
C572 H568 0.929 . S
C572 C574 1.378 . S
C572 C576 1.350 . S
C573 C576 1.463 . S
C573 C578 1.350 . S
C573 N581 1.427 . S
C574 H565 0.930 . S
C574 C572 1.378 . S
C574 C575 1.367 . S
C575 C574 1.367 . S
C575 C577 1.433 . S
C576 C572 1.350 . S
C576 C573 1.463 . S
C576 N580 1.427 . S
C577 H567 0.929 . S
C577 C575 1.433 . S
C577 N580 1.384 . S
C578 H569 0.929 . S
C578 C570 1.378 . S
C578 C573 1.350 . S
C579 H566 0.929 . S
C579 C571 1.433 . S
C579 N581 1.384 . S
N580 C576 1.427 . S
N580 C577 1.384 . S
N581 C573 1.427 . S
N581 C579 1.384 . S
H582 C588 0.930 . S
H583 C592 0.930 . S
H584 C597 0.929 . S
H585 C595 0.929 . S
H586 C590 0.929 . S
H587 C596 0.929 . S
C588 H582 0.930 . S
C588 C589 1.367 . S
C588 C596 1.378 . S
C589 C588 1.367 . S
C589 C597 1.433 . S
C590 H586 0.929 . S
C590 C592 1.378 . S
C590 C594 1.350 . S
C591 C594 1.463 . S
C591 C596 1.350 . S
C591 N599 1.427 . S
C592 H583 0.930 . S
C592 C590 1.378 . S
C592 C593 1.367 . S
C593 C592 1.367 . S
C593 C595 1.433 . S
C594 C590 1.350 . S
C594 C591 1.463 . S
C594 N598 1.427 . S
C595 H585 0.929 . S
C595 C593 1.433 . S
C595 N598 1.384 . S
C596 H587 0.929 . S
C596 C588 1.378 . S
C596 C591 1.350 . S
C597 H584 0.929 . S
C597 C589 1.433 . S
C597 N599 1.384 . S
N598 C594 1.427 . S
N598 C595 1.384 . S
N599 C591 1.427 . S
N599 C597 1.384 . S
H600 C606 0.930 . S
H601 C610 0.930 . S
H602 C615 0.929 . S
H603 C613 0.929 . S
H604 C608 0.929 . S
H605 C614 0.929 . S
C606 H600 0.930 . S
C606 C607 1.367 . S
C606 C614 1.378 . S
C607 C606 1.367 . S
C607 C615 1.433 . S
C608 H604 0.929 . S
C608 C610 1.378 . S
C608 C612 1.350 . S
C609 C612 1.463 . S
C609 C614 1.350 . S
C609 N617 1.427 . S
C610 H601 0.930 . S
C610 C608 1.378 . S
C610 C611 1.367 . S
C611 C610 1.367 . S
C611 C613 1.433 . S
C612 C608 1.350 . S
C612 C609 1.463 . S
C612 N616 1.427 . S
C613 H603 0.929 . S
C613 C611 1.433 . S
C613 N616 1.384 . S
C614 H605 0.929 . S
C614 C606 1.378 . S
C614 C609 1.350 . S
C615 H602 0.929 . S
C615 C607 1.433 . S
C615 N617 1.384 . S
N616 C612 1.427 . S
N616 C613 1.384 . S
N617 C609 1.427 . S
N617 C615 1.384 . S
H618 C624 0.930 . S
H619 C628 0.930 . S
H620 C633 0.929 . S
H621 C631 0.929 . S
H622 C626 0.929 . S
H623 C632 0.929 . S
C624 H618 0.930 . S
C624 C625 1.367 . S
C624 C632 1.378 . S
C625 C624 1.367 . S
C625 C633 1.433 . S
C626 H622 0.929 . S
C626 C628 1.378 . S
C626 C630 1.350 . S
C627 C630 1.463 . S
C627 C632 1.350 . S
C627 N635 1.427 . S
C628 H619 0.930 . S
C628 C626 1.378 . S
C628 C629 1.367 . S
C629 C628 1.367 . S
C629 C631 1.433 . S
C630 C626 1.350 . S
C630 C627 1.463 . S
C630 N634 1.427 . S
C631 H621 0.929 . S
C631 C629 1.433 . S
C631 N634 1.384 . S
C632 H623 0.929 . S
C632 C624 1.378 . S
C632 C627 1.350 . S
C633 H620 0.929 . S
C633 C625 1.433 . S
C633 N635 1.384 . S
N634 C630 1.427 . S
N634 C631 1.384 . S
N635 C627 1.427 . S
N635 C633 1.384 . S
H636 C642 0.930 . S
H637 C646 0.930 . S
H638 C651 0.929 . S
H639 C649 0.929 . S
H640 C644 0.929 . S
H641 C650 0.929 . S
C642 H636 0.930 . S
C642 C643 1.367 . S
C642 C650 1.378 . S
C643 C642 1.367 . S
C643 C651 1.433 . S
C644 H640 0.929 . S
C644 C646 1.378 . S
C644 C648 1.350 . S
C645 C648 1.463 . S
C645 C650 1.350 . S
C645 N653 1.427 . S
C646 H637 0.930 . S
C646 C644 1.378 . S
C646 C647 1.367 . S
C647 C646 1.367 . S
C647 C649 1.433 . S
C648 C644 1.350 . S
C648 C645 1.463 . S
C648 N652 1.427 . S
C649 H639 0.929 . S
C649 C647 1.433 . S
C649 N652 1.384 . S
C650 H641 0.929 . S
C650 C642 1.378 . S
C650 C645 1.350 . S
C651 H638 0.929 . S
C651 C643 1.433 . S
C651 N653 1.384 . S
N652 C648 1.427 . S
N652 C649 1.384 . S
N653 C645 1.427 . S
N653 C651 1.384 . S
H654 C660 0.930 . S
H655 C664 0.930 . S
H656 C669 0.929 . S
H657 C667 0.929 . S
H658 C662 0.929 . S
H659 C668 0.929 . S
C660 H654 0.930 . S
C660 C661 1.367 . S
C660 C668 1.378 . S
C661 C660 1.367 . S
C661 C669 1.433 . S
C662 H658 0.929 . S
C662 C664 1.378 . S
C662 C666 1.350 . S
C663 C666 1.463 . S
C663 C668 1.350 . S
C663 N671 1.427 . S
C664 H655 0.930 . S
C664 C662 1.378 . S
C664 C665 1.367 . S
C665 C664 1.367 . S
C665 C667 1.433 . S
C666 C662 1.350 . S
C666 C663 1.463 . S
C666 N670 1.427 . S
C667 H657 0.929 . S
C667 C665 1.433 . S
C667 N670 1.384 . S
C668 H659 0.929 . S
C668 C660 1.378 . S
C668 C663 1.350 . S
C669 H656 0.929 . S
C669 C661 1.433 . S
C669 N671 1.384 . S
N670 C666 1.427 . S
N670 C667 1.384 . S
N671 C663 1.427 . S
N671 C669 1.384 . S
H672 C678 0.930 . S
H673 C682 0.930 . S
H674 C687 0.929 . S
H675 C685 0.929 . S
H676 C680 0.929 . S
H677 C686 0.929 . S
C678 H672 0.930 . S
C678 C679 1.367 . S
C678 C686 1.378 . S
C679 C678 1.367 . S
C679 C687 1.433 . S
C680 H676 0.929 . S
C680 C682 1.378 1_554 S
C680 C684 1.350 . S
C681 C684 1.463 . S
C681 C686 1.350 . S
C681 N689 1.427 . S
C682 H673 0.930 . S
C682 C680 1.378 1_556 S
C682 C683 1.367 . S
C683 C682 1.367 . S
C683 C685 1.433 . S
C684 C680 1.350 . S
C684 C681 1.463 . S
C684 N688 1.427 . S
C685 H675 0.929 . S
C685 C683 1.433 . S
C685 N688 1.384 1_556 S
C686 H677 0.929 . S
C686 C678 1.378 . S
C686 C681 1.350 . S
C687 H674 0.929 . S
C687 C679 1.433 . S
C687 N689 1.384 . S
N688 C684 1.427 . S
N688 C685 1.384 1_554 S
N689 C681 1.427 . S
N689 C687 1.384 . S
H690 C696 0.930 . S
H691 C700 0.930 . S
H692 C705 0.929 . S
H693 C703 0.929 . S
H694 C698 0.929 . S
H695 C704 0.929 . S
C696 H690 0.930 . S
C696 C697 1.367 . S
C696 C704 1.378 . S
C697 C696 1.367 . S
C697 C705 1.433 . S
C698 H694 0.929 . S
C698 C700 1.378 1_554 S
C698 C702 1.350 . S
C699 C702 1.463 . S
C699 C704 1.350 . S
C699 N707 1.427 . S
C700 H691 0.930 . S
C700 C698 1.378 1_556 S
C700 C701 1.367 . S
C701 C700 1.367 . S
C701 C703 1.433 . S
C702 C698 1.350 . S
C702 C699 1.463 . S
C702 N706 1.427 . S
C703 H693 0.929 . S
C703 C701 1.433 . S
C703 N706 1.384 1_556 S
C704 H695 0.929 . S
C704 C696 1.378 . S
C704 C699 1.350 . S
C705 H692 0.929 . S
C705 C697 1.433 . S
C705 N707 1.384 . S
N706 C702 1.427 . S
N706 C703 1.384 1_554 S
N707 C699 1.427 . S
N707 C705 1.384 . S
H708 C714 0.930 . S
H709 C718 0.930 . S
H710 C723 0.929 . S
H711 C721 0.929 . S
H712 C716 0.929 . S
H713 C722 0.929 . S
C714 H708 0.930 . S
C714 C715 1.367 . S
C714 C722 1.378 . S
C715 C714 1.367 . S
C715 C723 1.433 . S
C716 H712 0.929 . S
C716 C718 1.378 1_554 S
C716 C720 1.350 . S
C717 C720 1.463 . S
C717 C722 1.350 . S
C717 N725 1.427 . S
C718 H709 0.930 . S
C718 C716 1.378 1_556 S
C718 C719 1.367 . S
C719 C718 1.367 . S
C719 C721 1.433 . S
C720 C716 1.350 . S
C720 C717 1.463 . S
C720 N724 1.427 . S
C721 H711 0.929 . S
C721 C719 1.433 . S
C721 N724 1.384 1_556 S
C722 H713 0.929 . S
C722 C714 1.378 . S
C722 C717 1.350 . S
C723 H710 0.929 . S
C723 C715 1.433 . S
C723 N725 1.384 . S
N724 C720 1.427 . S
N724 C721 1.384 1_554 S
N725 C717 1.427 . S
N725 C723 1.384 . S
H726 C732 0.930 . S
H727 C736 0.930 . S
H728 C741 0.929 . S
H729 C739 0.929 . S
H730 C734 0.929 . S
H731 C740 0.929 . S
C732 H726 0.930 . S
C732 C733 1.367 . S
C732 C740 1.378 . S
C733 C732 1.367 . S
C733 C741 1.433 . S
C734 H730 0.929 . S
C734 C736 1.378 1_554 S
C734 C738 1.350 . S
C735 C738 1.463 . S
C735 C740 1.350 . S
C735 N743 1.427 . S
C736 H727 0.930 . S
C736 C734 1.378 1_556 S
C736 C737 1.367 . S
C737 C736 1.367 . S
C737 C739 1.433 . S
C738 C734 1.350 . S
C738 C735 1.463 . S
C738 N742 1.427 . S
C739 H729 0.929 . S
C739 C737 1.433 . S
C739 N742 1.384 1_556 S
C740 H731 0.929 . S
C740 C732 1.378 . S
C740 C735 1.350 . S
C741 H728 0.929 . S
C741 C733 1.433 . S
C741 N743 1.384 . S
N742 C738 1.427 . S
N742 C739 1.384 1_554 S
N743 C735 1.427 . S
N743 C741 1.384 . S
H744 C750 0.930 . S
H745 C754 0.930 . S
H746 C759 0.929 . S
H747 C757 0.929 . S
H748 C752 0.929 . S
H749 C758 0.929 . S
C750 H744 0.930 . S
C750 C751 1.367 . S
C750 C758 1.378 1_554 S
C751 C750 1.367 . S
C751 C759 1.433 . S
C752 H748 0.929 . S
C752 C754 1.378 . S
C752 C756 1.350 . S
C753 C756 1.463 . S
C753 C758 1.350 . S
C753 N761 1.427 . S
C754 H745 0.930 . S
C754 C752 1.378 . S
C754 C755 1.367 . S
C755 C754 1.367 . S
C755 C757 1.433 . S
C756 C752 1.350 . S
C756 C753 1.463 . S
C756 N760 1.427 . S
C757 H747 0.929 . S
C757 C755 1.433 . S
C757 N760 1.384 . S
C758 H749 0.929 . S
C758 C750 1.378 1_556 S
C758 C753 1.350 . S
C759 H746 0.929 . S
C759 C751 1.433 . S
C759 N761 1.384 1_554 S
N760 C756 1.427 . S
N760 C757 1.384 . S
N761 C753 1.427 . S
N761 C759 1.384 1_556 S
H762 C768 0.930 . S
H763 C772 0.930 . S
H764 C777 0.929 . S
H765 C775 0.929 . S
H766 C770 0.929 . S
H767 C776 0.929 . S
C768 H762 0.930 . S
C768 C769 1.367 . S
C768 C776 1.378 1_554 S
C769 C768 1.367 . S
C769 C777 1.433 . S
C770 H766 0.929 . S
C770 C772 1.378 . S
C770 C774 1.350 . S
C771 C774 1.463 . S
C771 C776 1.350 . S
C771 N779 1.427 . S
C772 H763 0.930 . S
C772 C770 1.378 . S
C772 C773 1.367 . S
C773 C772 1.367 . S
C773 C775 1.433 . S
C774 C770 1.350 . S
C774 C771 1.463 . S
C774 N778 1.427 . S
C775 H765 0.929 . S
C775 C773 1.433 . S
C775 N778 1.384 . S
C776 H767 0.929 . S
C776 C768 1.378 1_556 S
C776 C771 1.350 . S
C777 H764 0.929 . S
C777 C769 1.433 . S
C777 N779 1.384 1_554 S
N778 C774 1.427 . S
N778 C775 1.384 . S
N779 C771 1.427 . S
N779 C777 1.384 1_556 S
H780 C786 0.930 . S
H781 C790 0.930 . S
H782 C795 0.929 . S
H783 C793 0.929 . S
H784 C788 0.929 . S
H785 C794 0.929 . S
C786 H780 0.930 . S
C786 C787 1.367 . S
C786 C794 1.378 1_554 S
C787 C786 1.367 . S
C787 C795 1.433 . S
C788 H784 0.929 . S
C788 C790 1.378 . S
C788 C792 1.350 . S
C789 C792 1.463 . S
C789 C794 1.350 . S
C789 N797 1.427 . S
C790 H781 0.930 . S
C790 C788 1.378 . S
C790 C791 1.367 . S
C791 C790 1.367 . S
C791 C793 1.433 . S
C792 C788 1.350 . S
C792 C789 1.463 . S
C792 N796 1.427 . S
C793 H783 0.929 . S
C793 C791 1.433 . S
C793 N796 1.384 . S
C794 H785 0.929 . S
C794 C786 1.378 1_556 S
C794 C789 1.350 . S
C795 H782 0.929 . S
C795 C787 1.433 . S
C795 N797 1.384 1_554 S
N796 C792 1.427 . S
N796 C793 1.384 . S
N797 C789 1.427 . S
N797 C795 1.384 1_556 S
H798 C804 0.930 . S
H799 C808 0.930 . S
H800 C813 0.929 . S
H801 C811 0.929 . S
H802 C806 0.929 . S
H803 C812 0.929 . S
C804 H798 0.930 . S
C804 C805 1.367 . S
C804 C812 1.378 1_554 S
C805 C804 1.367 . S
C805 C813 1.433 . S
C806 H802 0.929 . S
C806 C808 1.378 . S
C806 C810 1.350 . S
C807 C810 1.463 . S
C807 C812 1.350 . S
C807 N815 1.427 . S
C808 H799 0.930 . S
C808 C806 1.378 . S
C808 C809 1.367 . S
C809 C808 1.367 . S
C809 C811 1.433 . S
C810 C806 1.350 . S
C810 C807 1.463 . S
C810 N814 1.427 . S
C811 H801 0.929 . S
C811 C809 1.433 . S
C811 N814 1.384 . S
C812 H803 0.929 . S
C812 C804 1.378 1_556 S
C812 C807 1.350 . S
C813 H800 0.929 . S
C813 C805 1.433 . S
C813 N815 1.384 1_554 S
N814 C810 1.427 . S
N814 C811 1.384 . S
N815 C807 1.427 . S
N815 C813 1.384 1_556 S
H816 C822 0.930 . S
H817 C826 0.930 . S
H818 C831 0.929 . S
H819 C829 0.929 . S
H820 C824 0.929 . S
H821 C830 0.929 . S
C822 H816 0.930 . S
C822 C823 1.367 . S
C822 C830 1.378 . S
C823 C822 1.367 . S
C823 C831 1.433 . S
C824 H820 0.929 . S
C824 C826 1.378 . S
C824 C828 1.350 . S
C825 C828 1.463 . S
C825 C830 1.350 . S
C825 N833 1.427 . S
C826 H817 0.930 . S
C826 C824 1.378 . S
C826 C827 1.367 . S
C827 C826 1.367 . S
C827 C829 1.433 . S
C828 C824 1.350 . S
C828 C825 1.463 . S
C828 N832 1.427 . S
C829 H819 0.929 . S
C829 C827 1.433 . S
C829 N832 1.384 . S
C830 H821 0.929 . S
C830 C822 1.378 . S
C830 C825 1.350 . S
C831 H818 0.929 . S
C831 C823 1.433 . S
C831 N833 1.384 . S
N832 C828 1.427 . S
N832 C829 1.384 . S
N833 C825 1.427 . S
N833 C831 1.384 . S
H834 C840 0.930 . S
H835 C844 0.930 . S
H836 C849 0.929 . S
H837 C847 0.929 . S
H838 C842 0.929 . S
H839 C848 0.929 . S
C840 H834 0.930 . S
C840 C841 1.367 . S
C840 C848 1.378 . S
C841 C840 1.367 . S
C841 C849 1.433 . S
C842 H838 0.929 . S
C842 C844 1.378 . S
C842 C846 1.350 . S
C843 C846 1.463 . S
C843 C848 1.350 . S
C843 N851 1.427 . S
C844 H835 0.930 . S
C844 C842 1.378 . S
C844 C845 1.367 . S
C845 C844 1.367 . S
C845 C847 1.433 . S
C846 C842 1.350 . S
C846 C843 1.463 . S
C846 N850 1.427 . S
C847 H837 0.929 . S
C847 C845 1.433 . S
C847 N850 1.384 . S
C848 H839 0.929 . S
C848 C840 1.378 . S
C848 C843 1.350 . S
C849 H836 0.929 . S
C849 C841 1.433 . S
C849 N851 1.384 . S
N850 C846 1.427 . S
N850 C847 1.384 . S
N851 C843 1.427 . S
N851 C849 1.384 . S
H852 C858 0.930 . S
H853 C862 0.930 . S
H854 C867 0.929 . S
H855 C865 0.929 . S
H856 C860 0.929 . S
H857 C866 0.929 . S
C858 H852 0.930 . S
C858 C859 1.367 . S
C858 C866 1.378 . S
C859 C858 1.367 . S
C859 C867 1.433 . S
C860 H856 0.929 . S
C860 C862 1.378 . S
C860 C864 1.350 . S
C861 C864 1.463 . S
C861 C866 1.350 . S
C861 N869 1.427 . S
C862 H853 0.930 . S
C862 C860 1.378 . S
C862 C863 1.367 . S
C863 C862 1.367 . S
C863 C865 1.433 . S
C864 C860 1.350 . S
C864 C861 1.463 . S
C864 N868 1.427 . S
C865 H855 0.929 . S
C865 C863 1.433 . S
C865 N868 1.384 . S
C866 H857 0.929 . S
C866 C858 1.378 . S
C866 C861 1.350 . S
C867 H854 0.929 . S
C867 C859 1.433 . S
C867 N869 1.384 . S
N868 C864 1.427 . S
N868 C865 1.384 . S
N869 C861 1.427 . S
N869 C867 1.384 . S
H870 C876 0.930 . S
H871 C880 0.930 . S
H872 C885 0.929 . S
H873 C883 0.929 . S
H874 C878 0.929 . S
H875 C884 0.929 . S
C876 H870 0.930 . S
C876 C877 1.367 . S
C876 C884 1.378 . S
C877 C876 1.367 . S
C877 C885 1.433 . S
C878 H874 0.929 . S
C878 C880 1.378 . S
C878 C882 1.350 . S
C879 C882 1.463 . S
C879 C884 1.350 . S
C879 N887 1.427 . S
C880 H871 0.930 . S
C880 C878 1.378 . S
C880 C881 1.367 . S
C881 C880 1.367 . S
C881 C883 1.433 . S
C882 C878 1.350 . S
C882 C879 1.463 . S
C882 N886 1.427 . S
C883 H873 0.929 . S
C883 C881 1.433 . S
C883 N886 1.384 . S
C884 H875 0.929 . S
C884 C876 1.378 . S
C884 C879 1.350 . S
C885 H872 0.929 . S
C885 C877 1.433 . S
C885 N887 1.384 . S
N886 C882 1.427 . S
N886 C883 1.384 . S
N887 C879 1.427 . S
N887 C885 1.384 . S
H888 C894 0.930 . S
H889 C898 0.930 . S
H890 C903 0.929 . S
H891 C901 0.929 . S
H892 C896 0.929 . S
H893 C902 0.929 . S
C894 H888 0.930 . S
C894 C895 1.367 . S
C894 C902 1.378 . S
C895 C894 1.367 . S
C895 C903 1.433 . S
C896 H892 0.929 . S
C896 C898 1.378 . S
C896 C900 1.350 . S
C897 C900 1.463 . S
C897 C902 1.350 . S
C897 N905 1.427 . S
C898 H889 0.930 . S
C898 C896 1.378 . S
C898 C899 1.367 . S
C899 C898 1.367 . S
C899 C901 1.433 . S
C900 C896 1.350 . S
C900 C897 1.463 . S
C900 N904 1.427 . S
C901 H891 0.929 . S
C901 C899 1.433 . S
C901 N904 1.384 . S
C902 H893 0.929 . S
C902 C894 1.378 . S
C902 C897 1.350 . S
C903 H890 0.929 . S
C903 C895 1.433 . S
C903 N905 1.384 . S
N904 C900 1.427 . S
N904 C901 1.384 . S
N905 C897 1.427 . S
N905 C903 1.384 . S
H906 C912 0.930 . S
H907 C916 0.930 . S
H908 C921 0.929 . S
H909 C919 0.929 . S
H910 C914 0.929 . S
H911 C920 0.929 . S
C912 H906 0.930 . S
C912 C913 1.367 . S
C912 C920 1.378 . S
C913 C912 1.367 . S
C913 C921 1.433 . S
C914 H910 0.929 . S
C914 C916 1.378 . S
C914 C918 1.350 . S
C915 C918 1.463 . S
C915 C920 1.350 . S
C915 N923 1.427 . S
C916 H907 0.930 . S
C916 C914 1.378 . S
C916 C917 1.367 . S
C917 C916 1.367 . S
C917 C919 1.433 . S
C918 C914 1.350 . S
C918 C915 1.463 . S
C918 N922 1.427 . S
C919 H909 0.929 . S
C919 C917 1.433 . S
C919 N922 1.384 . S
C920 H911 0.929 . S
C920 C912 1.378 . S
C920 C915 1.350 . S
C921 H908 0.929 . S
C921 C913 1.433 . S
C921 N923 1.384 . S
N922 C918 1.427 . S
N922 C919 1.384 . S
N923 C915 1.427 . S
N923 C921 1.384 . S
H924 C930 0.930 . S
H925 C934 0.930 . S
H926 C939 0.929 . S
H927 C937 0.929 . S
H928 C932 0.929 . S
H929 C938 0.929 . S
C930 H924 0.930 . S
C930 C931 1.367 . S
C930 C938 1.378 . S
C931 C930 1.367 . S
C931 C939 1.433 . S
C932 H928 0.929 . S
C932 C934 1.378 . S
C932 C936 1.350 . S
C933 C936 1.463 . S
C933 C938 1.350 . S
C933 N941 1.427 . S
C934 H925 0.930 . S
C934 C932 1.378 . S
C934 C935 1.367 . S
C935 C934 1.367 . S
C935 C937 1.433 . S
C936 C932 1.350 . S
C936 C933 1.463 . S
C936 N940 1.427 . S
C937 H927 0.929 . S
C937 C935 1.433 . S
C937 N940 1.384 . S
C938 H929 0.929 . S
C938 C930 1.378 . S
C938 C933 1.350 . S
C939 H926 0.929 . S
C939 C931 1.433 . S
C939 N941 1.384 . S
N940 C936 1.427 . S
N940 C937 1.384 . S
N941 C933 1.427 . S
N941 C939 1.384 . S
H942 C948 0.930 . S
H943 C952 0.930 . S
H944 C957 0.929 . S
H945 C955 0.929 . S
H946 C950 0.929 . S
H947 C956 0.929 . S
C948 H942 0.930 . S
C948 C949 1.367 . S
C948 C956 1.378 . S
C949 C948 1.367 . S
C949 C957 1.433 . S
C950 H946 0.929 . S
C950 C952 1.378 . S
C950 C954 1.350 . S
C951 C954 1.463 . S
C951 C956 1.350 . S
C951 N959 1.427 . S
C952 H943 0.930 . S
C952 C950 1.378 . S
C952 C953 1.367 . S
C953 C952 1.367 . S
C953 C955 1.433 . S
C954 C950 1.350 . S
C954 C951 1.463 . S
C954 N958 1.427 . S
C955 H945 0.929 . S
C955 C953 1.433 . S
C955 N958 1.384 . S
C956 H947 0.929 . S
C956 C948 1.378 . S
C956 C951 1.350 . S
C957 H944 0.929 . S
C957 C949 1.433 . S
C957 N959 1.384 . S
N958 C954 1.427 . S
N958 C955 1.384 . S
N959 C951 1.427 . S
N959 C957 1.384 . S
H960 C966 0.930 . S
H961 C970 0.930 . S
H962 C975 0.929 . S
H963 C973 0.929 . S
H964 C968 0.929 . S
H965 C974 0.929 . S
C966 H960 0.930 . S
C966 C967 1.367 . S
C966 C974 1.378 . S
C967 C966 1.367 . S
C967 C975 1.433 1_554 S
C968 H964 0.929 . S
C968 C970 1.378 . S
C968 C972 1.350 . S
C969 C972 1.463 1_544 S
C969 C974 1.350 . S
C969 N977 1.427 1_554 S
C970 H961 0.930 . S
C970 C968 1.378 . S
C970 C971 1.367 . S
C971 C970 1.367 . S
C971 C973 1.433 1_556 S
C972 C968 1.350 . S
C972 C969 1.463 1_566 S
C972 N976 1.427 1_556 S
C973 H963 0.929 . S
C973 C971 1.433 1_554 S
C973 N976 1.384 . S
C974 H965 0.929 . S
C974 C966 1.378 . S
C974 C969 1.350 . S
C975 H962 0.929 . S
C975 C967 1.433 1_556 S
C975 N977 1.384 . S
N976 C972 1.427 1_554 S
N976 C973 1.384 . S
N977 C969 1.427 1_556 S
N977 C975 1.384 . S
H978 C984 0.930 . S
H979 C988 0.930 . S
H980 C993 0.929 . S
H981 C991 0.929 . S
H982 C986 0.929 . S
H983 C992 0.929 . S
C984 H978 0.930 . S
C984 C985 1.367 . S
C984 C992 1.378 . S
C985 C984 1.367 . S
C985 C993 1.433 . S
C986 H982 0.929 . S
C986 C988 1.378 . S
C986 C990 1.350 . S
C987 C990 1.463 1_456 S
C987 C992 1.350 . S
C987 N995 1.427 . S
C988 H979 0.930 . S
C988 C986 1.378 . S
C988 C989 1.367 . S
C989 C988 1.367 . S
C989 C991 1.433 . S
C990 C986 1.350 . S
C990 C987 1.463 1_654 S
C990 N994 1.427 . S
C991 H981 0.929 . S
C991 C989 1.433 . S
C991 N994 1.384 . S
C992 H983 0.929 . S
C992 C984 1.378 . S
C992 C987 1.350 . S
C993 H980 0.929 . S
C993 C985 1.433 . S
C993 N995 1.384 . S
N994 C990 1.427 . S
N994 C991 1.384 . S
N995 C987 1.427 . S
N995 C993 1.384 . S
H996 C1002 0.930 . S
H997 C1006 0.930 . S
H998 C1011 0.929 . S
H999 C1009 0.929 . S
H1000 C1004 0.929 . S
H1001 C1010 0.929 . S
C1002 H996 0.930 . S
C1002 C1003 1.367 1_556 S
C1002 C1010 1.378 . S
C1003 C1002 1.367 1_554 S
C1003 C1011 1.433 . S
C1004 H1000 0.929 . S
C1004 C1006 1.378 . S
C1004 C1008 1.350 1_554 S
C1005 C1008 1.463 1_564 S
C1005 C1010 1.350 1_554 S
C1005 N1013 1.427 . S
C1006 H997 0.930 . S
C1006 C1004 1.378 . S
C1006 C1007 1.367 1_554 S
C1007 C1006 1.367 1_556 S
C1007 C1009 1.433 . S
C1008 C1004 1.350 1_556 S
C1008 C1005 1.463 1_546 S
C1008 N1012 1.427 . S
C1009 H999 0.929 . S
C1009 C1007 1.433 . S
C1009 N1012 1.384 . S
C1010 H1001 0.929 . S
C1010 C1002 1.378 . S
C1010 C1005 1.350 1_556 S
C1011 H998 0.929 . S
C1011 C1003 1.433 . S
C1011 N1013 1.384 . S
N1012 C1008 1.427 . S
N1012 C1009 1.384 . S
N1013 C1005 1.427 . S
N1013 C1011 1.384 . S
H1014 C1020 0.930 . S
H1015 C1024 0.930 . S
H1016 C1029 0.929 . S
H1017 C1027 0.929 . S
H1018 C1022 0.929 . S
H1019 C1028 0.929 . S
C1020 H1014 0.930 . S
C1020 C1021 1.367 . S
C1020 C1028 1.378 . S
C1021 C1020 1.367 . S
C1021 C1029 1.433 1_556 S
C1022 H1018 0.929 . S
C1022 C1024 1.378 . S
C1022 C1026 1.350 . S
C1023 C1026 1.463 1_656 S
C1023 C1028 1.350 . S
C1023 N1031 1.427 1_556 S
C1024 H1015 0.930 . S
C1024 C1022 1.378 . S
C1024 C1025 1.367 . S
C1025 C1024 1.367 . S
C1025 C1027 1.433 1_554 S
C1026 C1022 1.350 . S
C1026 C1023 1.463 1_454 S
C1026 N1030 1.427 1_554 S
C1027 H1017 0.929 . S
C1027 C1025 1.433 1_556 S
C1027 N1030 1.384 . S
C1028 H1019 0.929 . S
C1028 C1020 1.378 . S
C1028 C1023 1.350 . S
C1029 H1016 0.929 . S
C1029 C1021 1.433 1_554 S
C1029 N1031 1.384 . S
N1030 C1026 1.427 1_556 S
N1030 C1027 1.384 . S
N1031 C1023 1.427 1_554 S
N1031 C1029 1.384 . S
H1032 C1038 0.930 . S
H1033 C1042 0.930 . S
H1034 C1047 0.929 . S
H1035 C1045 0.929 . S
H1036 C1040 0.929 . S
H1037 C1046 0.929 . S
C1038 H1032 0.930 . S
C1038 C1039 1.367 . S
C1038 C1046 1.378 . S
C1039 C1038 1.367 . S
C1039 C1047 1.433 . S
C1040 H1036 0.929 . S
C1040 C1042 1.378 . S
C1040 C1044 1.350 . S
C1041 C1044 1.463 . S
C1041 C1046 1.350 . S
C1041 N1049 1.427 . S
C1042 H1033 0.930 . S
C1042 C1040 1.378 . S
C1042 C1043 1.367 . S
C1043 C1042 1.367 . S
C1043 C1045 1.433 . S
C1044 C1040 1.350 . S
C1044 C1041 1.463 . S
C1044 N1048 1.427 . S
C1045 H1035 0.929 . S
C1045 C1043 1.433 . S
C1045 N1048 1.384 . S
C1046 H1037 0.929 . S
C1046 C1038 1.378 . S
C1046 C1041 1.350 . S
C1047 H1034 0.929 . S
C1047 C1039 1.433 . S
C1047 N1049 1.384 . S
N1048 C1044 1.427 . S
N1048 C1045 1.384 . S
N1049 C1041 1.427 . S
N1049 C1047 1.384 . S
H1050 C1056 0.930 . S
H1051 C1060 0.930 . S
H1052 C1065 0.929 . S
H1053 C1063 0.929 . S
H1054 C1058 0.929 . S
H1055 C1064 0.929 . S
C1056 H1050 0.930 . S
C1056 C1057 1.367 . S
C1056 C1064 1.378 . S
C1057 C1056 1.367 . S
C1057 C1065 1.433 . S
C1058 H1054 0.929 . S
C1058 C1060 1.378 . S
C1058 C1062 1.350 . S
C1059 C1062 1.463 . S
C1059 C1064 1.350 . S
C1059 N1067 1.427 . S
C1060 H1051 0.930 . S
C1060 C1058 1.378 . S
C1060 C1061 1.367 . S
C1061 C1060 1.367 . S
C1061 C1063 1.433 . S
C1062 C1058 1.350 . S
C1062 C1059 1.463 . S
C1062 N1066 1.427 . S
C1063 H1053 0.929 . S
C1063 C1061 1.433 . S
C1063 N1066 1.384 . S
C1064 H1055 0.929 . S
C1064 C1056 1.378 . S
C1064 C1059 1.350 . S
C1065 H1052 0.929 . S
C1065 C1057 1.433 . S
C1065 N1067 1.384 . S
N1066 C1062 1.427 . S
N1066 C1063 1.384 . S
N1067 C1059 1.427 . S
N1067 C1065 1.384 . S
H1068 C1074 0.930 . S
H1069 C1078 0.930 . S
H1070 C1083 0.929 . S
H1071 C1081 0.929 . S
H1072 C1076 0.929 . S
H1073 C1082 0.929 . S
C1074 H1068 0.930 . S
C1074 C1075 1.367 . S
C1074 C1082 1.378 . S
C1075 C1074 1.367 . S
C1075 C1083 1.433 . S
C1076 H1072 0.929 . S
C1076 C1078 1.378 . S
C1076 C1080 1.350 . S
C1077 C1080 1.463 . S
C1077 C1082 1.350 . S
C1077 N1085 1.427 . S
C1078 H1069 0.930 . S
C1078 C1076 1.378 . S
C1078 C1079 1.367 . S
C1079 C1078 1.367 . S
C1079 C1081 1.433 . S
C1080 C1076 1.350 . S
C1080 C1077 1.463 . S
C1080 N1084 1.427 . S
C1081 H1071 0.929 . S
C1081 C1079 1.433 . S
C1081 N1084 1.384 . S
C1082 H1073 0.929 . S
C1082 C1074 1.378 . S
C1082 C1077 1.350 . S
C1083 H1070 0.929 . S
C1083 C1075 1.433 . S
C1083 N1085 1.384 . S
N1084 C1080 1.427 . S
N1084 C1081 1.384 . S
N1085 C1077 1.427 . S
N1085 C1083 1.384 . S
H1086 C1092 0.930 . S
H1087 C1096 0.930 . S
H1088 C1101 0.929 . S
H1089 C1099 0.929 . S
H1090 C1094 0.929 . S
H1091 C1100 0.929 . S
C1092 H1086 0.930 . S
C1092 C1093 1.367 . S
C1092 C1100 1.378 . S
C1093 C1092 1.367 . S
C1093 C1101 1.433 . S
C1094 H1090 0.929 . S
C1094 C1096 1.378 . S
C1094 C1098 1.350 . S
C1095 C1098 1.463 . S
C1095 C1100 1.350 . S
C1095 N1103 1.427 . S
C1096 H1087 0.930 . S
C1096 C1094 1.378 . S
C1096 C1097 1.367 . S
C1097 C1096 1.367 . S
C1097 C1099 1.433 . S
C1098 C1094 1.350 . S
C1098 C1095 1.463 . S
C1098 N1102 1.427 . S
C1099 H1089 0.929 . S
C1099 C1097 1.433 . S
C1099 N1102 1.384 . S
C1100 H1091 0.929 . S
C1100 C1092 1.378 . S
C1100 C1095 1.350 . S
C1101 H1088 0.929 . S
C1101 C1093 1.433 . S
C1101 N1103 1.384 . S
N1102 C1098 1.427 . S
N1102 C1099 1.384 . S
N1103 C1095 1.427 . S
N1103 C1101 1.384 . S
H1104 C1110 0.930 . S
H1105 C1114 0.930 . S
H1106 C1119 0.929 . S
H1107 C1117 0.929 . S
H1108 C1112 0.929 . S
H1109 C1118 0.929 . S
C1110 H1104 0.930 . S
C1110 C1111 1.367 1_556 S
C1110 C1118 1.378 . S
C1111 C1110 1.367 1_554 S
C1111 C1119 1.433 . S
C1112 H1108 0.929 . S
C1112 C1114 1.378 . S
C1112 C1116 1.350 1_554 S
C1113 C1116 1.463 1_554 S
C1113 C1118 1.350 1_554 S
C1113 N1121 1.427 . S
C1114 H1105 0.930 . S
C1114 C1112 1.378 . S
C1114 C1115 1.367 1_554 S
C1115 C1114 1.367 1_556 S
C1115 C1117 1.433 . S
C1116 C1112 1.350 1_556 S
C1116 C1113 1.463 1_556 S
C1116 N1120 1.427 . S
C1117 H1107 0.929 . S
C1117 C1115 1.433 . S
C1117 N1120 1.384 . S
C1118 H1109 0.929 . S
C1118 C1110 1.378 . S
C1118 C1113 1.350 1_556 S
C1119 H1106 0.929 . S
C1119 C1111 1.433 . S
C1119 N1121 1.384 . S
N1120 C1116 1.427 . S
N1120 C1117 1.384 . S
N1121 C1113 1.427 . S
N1121 C1119 1.384 . S
H1122 C1128 0.930 . S
H1123 C1132 0.930 . S
H1124 C1137 0.929 . S
H1125 C1135 0.929 . S
H1126 C1130 0.929 . S
H1127 C1136 0.929 . S
C1128 H1122 0.930 . S
C1128 C1129 1.367 . S
C1128 C1136 1.378 . S
C1129 C1128 1.367 . S
C1129 C1137 1.433 1_554 S
C1130 H1126 0.929 . S
C1130 C1132 1.378 . S
C1130 C1134 1.350 . S
C1131 C1134 1.463 1_554 S
C1131 C1136 1.350 . S
C1131 N1139 1.427 1_554 S
C1132 H1123 0.930 . S
C1132 C1130 1.378 . S
C1132 C1133 1.367 . S
C1133 C1132 1.367 . S
C1133 C1135 1.433 1_556 S
C1134 C1130 1.350 . S
C1134 C1131 1.463 1_556 S
C1134 N1138 1.427 1_556 S
C1135 H1125 0.929 . S
C1135 C1133 1.433 1_554 S
C1135 N1138 1.384 . S
C1136 H1127 0.929 . S
C1136 C1128 1.378 . S
C1136 C1131 1.350 . S
C1137 H1124 0.929 . S
C1137 C1129 1.433 1_556 S
C1137 N1139 1.384 . S
N1138 C1134 1.427 1_554 S
N1138 C1135 1.384 . S
N1139 C1131 1.427 1_556 S
N1139 C1137 1.384 . S
H1140 C1146 0.930 . S
H1141 C1150 0.930 . S
H1142 C1155 0.929 . S
H1143 C1153 0.929 . S
H1144 C1148 0.929 . S
H1145 C1154 0.929 . S
C1146 H1140 0.930 . S
C1146 C1147 1.367 . S
C1146 C1154 1.378 . S
C1147 C1146 1.367 . S
C1147 C1155 1.433 1_556 S
C1148 H1144 0.929 . S
C1148 C1150 1.378 . S
C1148 C1152 1.350 . S
C1149 C1152 1.463 1_556 S
C1149 C1154 1.350 . S
C1149 N1157 1.427 1_556 S
C1150 H1141 0.930 . S
C1150 C1148 1.378 . S
C1150 C1151 1.367 . S
C1151 C1150 1.367 . S
C1151 C1153 1.433 1_554 S
C1152 C1148 1.350 . S
C1152 C1149 1.463 1_554 S
C1152 N1156 1.427 1_554 S
C1153 H1143 0.929 . S
C1153 C1151 1.433 1_556 S
C1153 N1156 1.384 . S
C1154 H1145 0.929 . S
C1154 C1146 1.378 . S
C1154 C1149 1.350 . S
C1155 H1142 0.929 . S
C1155 C1147 1.433 1_554 S
C1155 N1157 1.384 . S
N1156 C1152 1.427 1_556 S
N1156 C1153 1.384 . S
N1157 C1149 1.427 1_554 S
N1157 C1155 1.384 . S
H1158 C1164 0.930 . S
H1159 C1168 0.930 . S
H1160 C1173 0.929 . S
H1161 C1171 0.929 . S
H1162 C1166 0.929 . S
H1163 C1172 0.929 . S
C1164 H1158 0.930 . S
C1164 C1165 1.367 1_556 S
C1164 C1172 1.378 . S
C1165 C1164 1.367 1_554 S
C1165 C1173 1.433 . S
C1166 H1162 0.929 . S
C1166 C1168 1.378 . S
C1166 C1170 1.350 1_554 S
C1167 C1170 1.463 1_554 S
C1167 C1172 1.350 1_554 S
C1167 N1175 1.427 . S
C1168 H1159 0.930 . S
C1168 C1166 1.378 . S
C1168 C1169 1.367 1_554 S
C1169 C1168 1.367 1_556 S
C1169 C1171 1.433 . S
C1170 C1166 1.350 1_556 S
C1170 C1167 1.463 1_556 S
C1170 N1174 1.427 . S
C1171 H1161 0.929 . S
C1171 C1169 1.433 . S
C1171 N1174 1.384 . S
C1172 H1163 0.929 . S
C1172 C1164 1.378 . S
C1172 C1167 1.350 1_556 S
C1173 H1160 0.929 . S
C1173 C1165 1.433 . S
C1173 N1175 1.384 . S
N1174 C1170 1.427 . S
N1174 C1171 1.384 . S
N1175 C1167 1.427 . S
N1175 C1173 1.384 . S
H1176 C1182 0.930 . S
H1177 C1186 0.930 . S
H1178 C1191 0.929 . S
H1179 C1189 0.929 . S
H1180 C1184 0.929 . S
H1181 C1190 0.929 . S
C1182 H1176 0.930 . S
C1182 C1183 1.367 . S
C1182 C1190 1.378 . S
C1183 C1182 1.367 . S
C1183 C1191 1.433 . S
C1184 H1180 0.929 . S
C1184 C1186 1.378 . S
C1184 C1188 1.350 . S
C1185 C1188 1.463 . S
C1185 C1190 1.350 . S
C1185 N1193 1.427 . S
C1186 H1177 0.930 . S
C1186 C1184 1.378 . S
C1186 C1187 1.367 . S
C1187 C1186 1.367 . S
C1187 C1189 1.433 . S
C1188 C1184 1.350 . S
C1188 C1185 1.463 . S
C1188 N1192 1.427 . S
C1189 H1179 0.929 . S
C1189 C1187 1.433 . S
C1189 N1192 1.384 . S
C1190 H1181 0.929 . S
C1190 C1182 1.378 . S
C1190 C1185 1.350 . S
C1191 H1178 0.929 . S
C1191 C1183 1.433 . S
C1191 N1193 1.384 . S
N1192 C1188 1.427 . S
N1192 C1189 1.384 . S
N1193 C1185 1.427 . S
N1193 C1191 1.384 . S
H1194 C1200 0.930 . S
H1195 C1204 0.930 . S
H1196 C1209 0.929 . S
H1197 C1207 0.929 . S
H1198 C1202 0.929 . S
H1199 C1208 0.929 . S
C1200 H1194 0.930 . S
C1200 C1201 1.367 . S
C1200 C1208 1.378 . S
C1201 C1200 1.367 . S
C1201 C1209 1.433 . S
C1202 H1198 0.929 . S
C1202 C1204 1.378 . S
C1202 C1206 1.350 . S
C1203 C1206 1.463 . S
C1203 C1208 1.350 . S
C1203 N1211 1.427 . S
C1204 H1195 0.930 . S
C1204 C1202 1.378 . S
C1204 C1205 1.367 . S
C1205 C1204 1.367 . S
C1205 C1207 1.433 . S
C1206 C1202 1.350 . S
C1206 C1203 1.463 . S
C1206 N1210 1.427 . S
C1207 H1197 0.929 . S
C1207 C1205 1.433 . S
C1207 N1210 1.384 . S
C1208 H1199 0.929 . S
C1208 C1200 1.378 . S
C1208 C1203 1.350 . S
C1209 H1196 0.929 . S
C1209 C1201 1.433 . S
C1209 N1211 1.384 . S
N1210 C1206 1.427 . S
N1210 C1207 1.384 . S
N1211 C1203 1.427 . S
N1211 C1209 1.384 . S
H1212 C1218 0.930 . S
H1213 C1222 0.930 . S
H1214 C1227 0.929 . S
H1215 C1225 0.929 . S
H1216 C1220 0.929 . S
H1217 C1226 0.929 . S
C1218 H1212 0.930 . S
C1218 C1219 1.367 . S
C1218 C1226 1.378 . S
C1219 C1218 1.367 . S
C1219 C1227 1.433 . S
C1220 H1216 0.929 . S
C1220 C1222 1.378 . S
C1220 C1224 1.350 . S
C1221 C1224 1.463 . S
C1221 C1226 1.350 . S
C1221 N1229 1.427 . S
C1222 H1213 0.930 . S
C1222 C1220 1.378 . S
C1222 C1223 1.367 . S
C1223 C1222 1.367 . S
C1223 C1225 1.433 . S
C1224 C1220 1.350 . S
C1224 C1221 1.463 . S
C1224 N1228 1.427 . S
C1225 H1215 0.929 . S
C1225 C1223 1.433 . S
C1225 N1228 1.384 . S
C1226 H1217 0.929 . S
C1226 C1218 1.378 . S
C1226 C1221 1.350 . S
C1227 H1214 0.929 . S
C1227 C1219 1.433 . S
C1227 N1229 1.384 . S
N1228 C1224 1.427 . S
N1228 C1225 1.384 . S
N1229 C1221 1.427 . S
N1229 C1227 1.384 . S
H1230 C1236 0.930 . S
H1231 C1240 0.930 . S
H1232 C1245 0.929 . S
H1233 C1243 0.929 . S
H1234 C1238 0.929 . S
H1235 C1244 0.929 . S
C1236 H1230 0.930 . S
C1236 C1237 1.367 . S
C1236 C1244 1.378 . S
C1237 C1236 1.367 . S
C1237 C1245 1.433 . S
C1238 H1234 0.929 . S
C1238 C1240 1.378 . S
C1238 C1242 1.350 . S
C1239 C1242 1.463 . S
C1239 C1244 1.350 . S
C1239 N1247 1.427 . S
C1240 H1231 0.930 . S
C1240 C1238 1.378 . S
C1240 C1241 1.367 . S
C1241 C1240 1.367 . S
C1241 C1243 1.433 . S
C1242 C1238 1.350 . S
C1242 C1239 1.463 . S
C1242 N1246 1.427 . S
C1243 H1233 0.929 . S
C1243 C1241 1.433 . S
C1243 N1246 1.384 . S
C1244 H1235 0.929 . S
C1244 C1236 1.378 . S
C1244 C1239 1.350 . S
C1245 H1232 0.929 . S
C1245 C1237 1.433 . S
C1245 N1247 1.384 . S
N1246 C1242 1.427 . S
N1246 C1243 1.384 . S
N1247 C1239 1.427 . S
N1247 C1245 1.384 . S
C535 N13 1.280 . S
C539 N2 1.278 . S
C553 N46 1.281 . S
C557 N35 1.279 . S
C571 N68 1.283 . S
C575 N79 1.285 . S
C589 N101 1.287 . S
C593 N112 1.288 . S
C607 N145 1.282 . S
C611 N134 1.280 . S
C625 N167 1.285 . S
C629 N178 1.287 . S
C643 N200 1.278 . S
C647 N211 1.280 . S
C661 N233 1.287 . S
C665 N244 1.289 . S
C679 N277 1.288 . S
C683 N266 1.286 . S
C697 N310 1.291 . S
C701 N299 1.289 . S
C715 N343 1.282 . S
C719 N332 1.280 . S
C733 N376 1.280 . S
C737 N365 1.278 . S
C751 N398 1.290 . S
C755 N409 1.292 . S
C769 N431 1.278 . S
C773 N442 1.280 . S
C787 N464 1.286 . S
C791 N475 1.287 . S
C805 N497 1.281 . S
C809 N508 1.283 . S
C823 C7 1.412 . S
C827 C502 1.405 . S
C841 C403 1.412 . S
C845 C40 1.419 . S
C859 C436 1.407 . S
C863 C73 1.407 . S
C877 C469 1.418 . S
C881 C106 1.417 . S
C895 C304 1.405 . S
C899 C139 1.414 . S
C913 C172 1.407 . S
C917 C337 1.407 . S
C931 C205 1.414 . S
C935 C370 1.419 . S
C949 C271 1.405 . S
C953 C238 1.413 . S
C967 C18 1.158 . S
C971 C150 1.158 . S
C985 C183 1.157 . S
C989 C51 1.157 . S
C1003 C84 1.155 . S
C1007 C216 1.155 . S
C1021 C249 1.158 . S
C1025 C117 1.158 . S
C1039 C414 1.155 . S
C1043 C282 1.155 . S
C1057 C315 1.158 . S
C1061 C447 1.158 . S
C1075 C348 1.155 . S
C1079 C480 1.155 . S
C1093 C381 1.158 . S
C1097 C513 1.158 . S
C1111 C21 1.530 . S
C1115 C186 1.528 . S
C1129 C54 1.535 . S
C1133 C219 1.532 . S
C1147 C252 1.532 . S
C1151 C87 1.535 . S
C1165 C120 1.531 . S
C1169 C153 1.528 . S
C1183 C450 1.529 . S
C1187 C285 1.528 . S
C1201 C318 1.534 . S
C1205 C483 1.534 . S
C1219 C516 1.534 . S
C1223 C351 1.529 . S
C1237 C417 1.534 . S
C1241 C384 1.535 . S
