# Generated by pormake.
# Topology smu, (6)-cn, num edge types: 1
# Building blocks:
#     Node 0, Type 0, BuildingBlock: MIDCAF_clean_sbu_0, # of connection points: 6
#     Node 1, Type 0, BuildingBlock: MIDCAF_clean_sbu_0, # of connection points: 6
#     Node 2, Type 0, BuildingBlock: MIDCAF_clean_sbu_0, # of connection points: 6
#     Node 3, Type 0, BuildingBlock: MIDCAF_clean_sbu_0, # of connection points: 6
#     Node 4, Type 0, BuildingBlock: MIDCAF_clean_sbu_0, # of connection points: 6
#     Node 5, Type 0, BuildingBlock: MIDCAF_clean_sbu_0, # of connection points: 6
#     Edge 6, Type (0, 0), BuildingBlock: XUDNAN_clean_linker_2, # of connection points: 2
#     Edge 7, Type (0, 0), BuildingBlock: XUDNAN_clean_linker_2, # of connection points: 2
#     Edge 8, Type (0, 0), BuildingBlock: XUDNAN_clean_linker_2, # of connection points: 2
#     Edge 9, Type (0, 0), BuildingBlock: XUDNAN_clean_linker_2, # of connection points: 2
#     Edge 10, Type (0, 0), BuildingBlock: XUDNAN_clean_linker_2, # of connection points: 2
#     Edge 11, Type (0, 0), BuildingBlock: XUDNAN_clean_linker_2, # of connection points: 2
#     Edge 12, Type (0, 0), BuildingBlock: XUDNAN_clean_linker_2, # of connection points: 2
#     Edge 13, Type (0, 0), BuildingBlock: XUDNAN_clean_linker_2, # of connection points: 2
#     Edge 14, Type (0, 0), BuildingBlock: XUDNAN_clean_linker_2, # of connection points: 2
#     Edge 15, Type (0, 0), BuildingBlock: XUDNAN_clean_linker_2, # of connection points: 2
#     Edge 16, Type (0, 0), BuildingBlock: XUDNAN_clean_linker_2, # of connection points: 2
#     Edge 17, Type (0, 0), BuildingBlock: XUDNAN_clean_linker_2, # of connection points: 2
#     Edge 18, Type (0, 0), BuildingBlock: XUDNAN_clean_linker_2, # of connection points: 2
#     Edge 19, Type (0, 0), BuildingBlock: XUDNAN_clean_linker_2, # of connection points: 2
#     Edge 20, Type (0, 0), BuildingBlock: XUDNAN_clean_linker_2, # of connection points: 2
#     Edge 21, Type (0, 0), BuildingBlock: XUDNAN_clean_linker_2, # of connection points: 2
#     Edge 22, Type (0, 0), BuildingBlock: XUDNAN_clean_linker_2, # of connection points: 2
#     Edge 23, Type (0, 0), BuildingBlock: XUDNAN_clean_linker_2, # of connection points: 2
# Relax obj value: 0.355
# Max RMSD: 0.260
# Mean RMSD: 0.260
data_MOF--net-smu--node1-MIDCAF_clean_sbu_0--edge1-XUDNAN_clean_linker_2
_symmetry_space_group_name_H-M    P1
_symmetry_Int_Tables_number       1
_symmetry_cell_setting            triclinic
loop_
_symmetry_equiv_pos_as_xyz
'x, y, z'
_cell_length_a     27.662165
_cell_length_b     27.567251
_cell_length_c     30.134563
_cell_angle_alpha  90.113387
_cell_angle_beta   89.995216
_cell_angle_gamma 119.76779
loop_
_atom_site_label
_atom_site_type_symbol
_atom_site_fract_x
_atom_site_fract_y
_atom_site_fract_z
_atom_type_partial_charge
Zn0 Zn 0.24475 0.05395 0.22926 0.0
Zn1 Zn 0.43898 0.13708 0.35171 0.0
Zn2 Zn 0.33321 0.0788 0.27484 0.0
C3 C 0.43062 0.07274 0.2612 0.0
C4 C 0.33094 0.04683 0.38144 0.0
O5 O 0.32362 0.15209 0.26588 0.0
O6 O 0.25282 0.12864 0.22044 0.0
C7 C 0.30795 0.02244 0.17664 0.0
O8 O 0.38802 0.05878 0.23698 0.0
O9 O 0.43377 0.09792 0.29662 0.0
O10 O 0.37892 0.08663 0.39119 0.0
O11 O 0.31174 0.03706 0.3412 0.0
O12 O 0.26097 0.01945 0.1786 0.0
O13 O 0.34292 0.04458 0.209 0.0
O14 O 0.26347 0.01219 0.31224 0.0
O15 O 0.19102 0.00334 0.27429 0.0
C16 C 0.2105 0.98953 0.30668 0.0
O17 O 0.37444 0.17088 0.29 0.0
O18 O 0.4411 0.2087 0.34204 0.0
C19 C 0.29201 0.165 0.24367 0.0
C20 C 0.41033 0.21319 0.31319 0.0
Zn21 Zn 0.8055 0.7759 0.25603 0.0
Zn22 Zn 0.72249 0.5962 0.29278 0.0
Zn23 Zn 0.73462 0.68432 0.27545 0.0
C24 C 0.62503 0.58104 0.26615 0.0
C25 C 0.73386 0.64155 0.37358 0.0
O26 O 0.80628 0.71426 0.3214 0.0
O27 O 0.86899 0.76396 0.27106 0.0
C28 C 0.75257 0.71991 0.17875 0.0
O29 O 0.64774 0.62727 0.28722 0.0
O30 O 0.65609 0.5632 0.25141 0.0
O31 O 0.70812 0.59249 0.35821 0.0
O32 O 0.75711 0.6831 0.34638 0.0
O33 O 0.77475 0.76892 0.19412 0.0
O34 O 0.74725 0.67989 0.204 0.0
O35 O 0.70441 0.74327 0.26775 0.0
O36 O 0.77664 0.80909 0.30186 0.0
C37 C 0.72796 0.79097 0.28691 0.0
O38 O 0.77477 0.65481 0.22404 0.0
O39 O 0.79515 0.60719 0.27147 0.0
C40 C 0.85724 0.74026 0.30845 0.0
C41 C 0.80223 0.62972 0.23388 0.0
Zn42 Zn 0.95998 0.22596 0.15739 0.0
Zn43 Zn 0.90258 0.32396 0.27058 0.0
Zn44 Zn 0.94203 0.28687 0.20977 0.0
C45 C 0.93896 0.39815 0.1958 0.0
C46 C 0.98782 0.31885 0.31229 0.0
O47 O 0.87514 0.19572 0.2072 0.0
O48 O 0.90212 0.14706 0.16611 0.0
C49 C 0.96566 0.31143 0.10575 0.0
O50 O 0.94405 0.35929 0.17634 0.0
O51 O 0.92683 0.39416 0.2366 0.0
O52 O 0.94616 0.3238 0.32197 0.0
O53 O 0.99596 0.3093 0.27168 0.0
O54 O 0.95578 0.26168 0.10289 0.0
O55 O 0.96596 0.33254 0.14415 0.0
O56 O 0.01825 0.29334 0.23658 0.0
O57 O 0.03649 0.25317 0.18044 0.0
C58 C 0.05115 0.2802 0.21646 0.0
O59 O 0.85334 0.22801 0.22277 0.0
O60 O 0.8222 0.26716 0.27044 0.0
C61 C 0.86653 0.14852 0.19128 0.0
C62 C 0.81313 0.22712 0.24502 0.0
Zn63 Zn 0.06915 0.2456 0.73983 0.0
Zn64 Zn 0.1473 0.4207 0.6787 0.0
Zn65 Zn 0.09839 0.32974 0.70877 0.0
C66 C 0.04555 0.40077 0.71535 0.0
C67 C 0.12818 0.35447 0.60728 0.0
O68 O 0.12921 0.28417 0.66774 0.0
O69 O 0.14101 0.24711 0.72838 0.0
C70 C 0.08475 0.31742 0.80907 0.0
O71 O 0.03198 0.34982 0.70786 0.0
O72 O 0.09591 0.43896 0.71209 0.0
O73 O 0.13299 0.40164 0.61505 0.0
O74 O 0.12296 0.32187 0.63979 0.0
O75 O 0.05082 0.26767 0.79803 0.0
O76 O 0.12188 0.34899 0.78049 0.0
O77 O 0.00765 0.2894 0.70923 0.0
O78 O 0.00749 0.21139 0.69469 0.0
C79 C 0.98216 0.23895 0.69478 0.0
O80 O 0.16909 0.37169 0.75516 0.0
O81 O 0.21881 0.43015 0.70235 0.0
C82 C 0.1518 0.25927 0.68787 0.0
C83 C 0.21683 0.40589 0.73832 0.0
Zn84 Zn 0.265 0.81647 0.73268 0.0
Zn85 Zn 0.16186 0.91176 0.81617 0.0
Zn86 Zn 0.22182 0.87141 0.77351 0.0
C87 C 0.21194 0.97605 0.73765 0.0
C88 C 0.24988 0.92063 0.87225 0.0
O89 O 0.16116 0.78172 0.7673 0.0
O90 O 0.20498 0.73808 0.743 0.0
C91 C 0.25296 0.88668 0.67127 0.0
O92 O 0.22987 0.94135 0.73207 0.0
O93 O 0.18261 0.97234 0.77104 0.0
O94 O 0.20685 0.92561 0.87119 0.0
O95 O 0.26474 0.90344 0.83785 0.0
O96 O 0.26224 0.8464 0.67421 0.0
O97 O 0.24345 0.90745 0.7063 0.0
O98 O 0.29404 0.8826 0.81384 0.0
O99 O 0.33435 0.85013 0.76838 0.0
C100 C 0.33458 0.87404 0.80423 0.0
O101 O 0.13282 0.80798 0.78138 0.0
O102 O 0.08613 0.84424 0.81374 0.0
C103 C 0.16115 0.73646 0.75685 0.0
C104 C 0.0869 0.80309 0.79612 0.0
Zn105 Zn 0.60985 0.75903 0.72831 0.0
Zn106 Zn 0.77138 0.80931 0.79469 0.0
Zn107 Zn 0.6805 0.76106 0.76967 0.0
C108 C 0.7584 0.71517 0.74898 0.0
C109 C 0.70205 0.75888 0.86869 0.0
O110 O 0.62776 0.77302 0.81743 0.0
O111 O 0.61878 0.82383 0.76533 0.0
C112 C 0.66746 0.72462 0.67468 0.0
O113 O 0.70662 0.69964 0.75482 0.0
O114 O 0.79514 0.76566 0.75572 0.0
O115 O 0.75212 0.77984 0.85642 0.0
O116 O 0.66497 0.7542 0.8408 0.0
O117 O 0.65184 0.76066 0.67156 0.0
O118 O 0.66815 0.7051 0.71328 0.0
O119 O 0.6334 0.6719 0.75361 0.0
O120 O 0.55999 0.68281 0.75705 0.0
C121 C 0.5811 0.65156 0.76162 0.0
O122 O 0.71339 0.8375 0.73289 0.0
O123 O 0.78179 0.88513 0.77934 0.0
C124 C 0.61536 0.81049 0.80594 0.0
C125 C 0.7515 0.88419 0.74757 0.0
H126 H 0.20043 0.87547 0.94926 0.0
H127 H 0.36163 0.98741 0.89232 0.0
H128 H 0.40134 0.01594 0.96833 0.0
H129 H 0.20271 0.96175 0.02874 0.0
H130 H 0.16706 0.90915 0.07054 0.0
H131 H 0.1558 0.89027 0.01295 0.0
H132 H 0.18523 0.8156 0.02565 0.0
H133 H 0.19624 0.83393 0.08368 0.0
H134 H 0.25157 0.8355 0.05097 0.0
H135 H 0.41643 0.04558 0.05099 0.0
H136 H 0.40588 0.06924 0.12865 0.0
H137 H 0.23587 0.93265 0.12947 0.0
C138 C 0.2446 0.90453 0.95289 0.0
C139 C 0.27817 0.92923 0.91537 0.0
C140 C 0.33554 0.96764 0.92094 0.0
C141 C 0.35823 0.98405 0.96395 0.0
C142 C 0.32308 0.96053 1.0006 0.0
C143 C 0.26761 0.92059 0.99515 0.0
C144 C 0.23651 0.90529 0.03863 0.0
C145 C 0.18772 0.91739 0.03763 0.0
C146 C 0.21622 0.84394 0.05043 0.0
C147 C 0.28226 0.94457 0.06956 0.0
C148 C 0.33222 0.97592 0.0475 0.0
C149 C 0.3781 0.01982 0.06883 0.0
C150 C 0.37211 0.03264 0.11316 0.0
C151 C 0.32069 0.00162 0.13548 0.0
C152 C 0.27615 0.95611 0.1136 0.0
H153 H 0.69364 0.77518 0.59355 0.0
H154 H 0.68047 0.63269 0.66518 0.0
H155 H 0.70572 0.60058 0.59677 0.0
H156 H 0.63464 0.7069 0.49381 0.0
H157 H 0.68074 0.76413 0.4586 0.0
H158 H 0.66601 0.7778 0.51389 0.0
H159 H 0.77171 0.83189 0.53155 0.0
H160 H 0.78675 0.81818 0.47622 0.0
H161 H 0.81253 0.79802 0.52355 0.0
H162 H 0.7216 0.57876 0.51877 0.0
H163 H 0.73071 0.57065 0.4379 0.0
H164 H 0.73931 0.73052 0.41821 0.0
C165 C 0.69641 0.73739 0.59497 0.0
C166 C 0.68462 0.70609 0.63456 0.0
C167 C 0.6892 0.65719 0.63516 0.0
C168 C 0.70365 0.63876 0.59653 0.0
C169 C 0.71432 0.67029 0.55788 0.0
C170 C 0.71153 0.71893 0.55699 0.0
C171 C 0.72315 0.74426 0.51096 0.0
C172 C 0.67315 0.74848 0.49328 0.0
C173 C 0.77673 0.80148 0.51057 0.0
C174 C 0.73087 0.70115 0.4856 0.0
C175 C 0.72589 0.65895 0.51333 0.0
C176 C 0.72672 0.6121 0.49692 0.0
C177 C 0.73182 0.60782 0.45098 0.0
C178 C 0.73654 0.65037 0.42203 0.0
C179 C 0.73727 0.69813 0.43975 0.0
H180 H 0.91332 0.27825 0.02771 0.0
H181 H 0.06125 0.41105 0.0891 0.0
H182 H 0.10733 0.43711 0.0154 0.0
H183 H 0.981 0.23072 0.96699 0.0
H184 H 0.93584 0.20926 0.91919 0.0
H185 H 0.90902 0.21238 0.97269 0.0
H186 H 0.87692 0.2799 0.9429 0.0
H187 H 0.90192 0.27556 0.88863 0.0
H188 H 0.92593 0.34277 0.91442 0.0
H189 H 0.14264 0.43561 0.93499 0.0
H190 H 0.16003 0.40881 0.86008 0.0
H191 H 0.98988 0.27167 0.85693 0.0
C192 C 0.95412 0.31514 0.02519 0.0
C193 C 0.9831 0.34362 0.06389 0.0
C194 C 0.03751 0.38997 0.05969 0.0
C195 C 0.06428 0.40439 0.01792 0.0
C196 C 0.03593 0.3721 0.9808 0.0
C197 C 0.98147 0.32888 0.98428 0.0
C198 C 0.96225 0.2945 0.94218 0.0
C199 C 0.94613 0.23315 0.95082 0.0
C200 C 0.91391 0.29846 0.92076 0.0
C201 C 0.01455 0.32398 0.91458 0.0
C202 C 0.05665 0.36923 0.93664 0.0
C203 C 0.10953 0.40056 0.91746 0.0
C204 C 0.11925 0.38499 0.875 0.0
C205 C 0.07668 0.3377 0.85281 0.0
C206 C 0.02373 0.30772 0.87302 0.0
H207 H 0.33083 0.0847 0.46399 0.0
H208 H 0.25959 0.93403 0.38433 0.0
H209 H 0.21428 0.87779 0.45122 0.0
H210 H 0.37383 0.03384 0.5466 0.0
H211 H 0.36158 0.06932 0.59181 0.0
H212 H 0.37449 0.09873 0.53707 0.0
H213 H 0.28143 0.10007 0.5391 0.0
H214 H 0.26879 0.0712 0.59426 0.0
H215 H 0.21756 0.03657 0.55132 0.0
H216 H 0.19374 0.8381 0.52635 0.0
H217 H 0.19936 0.81571 0.6044 0.0
H218 H 0.28883 0.99219 0.63731 0.0
C219 C 0.30401 0.03995 0.46047 0.0
C220 C 0.2967 0.01342 0.41887 0.0
C221 C 0.26297 0.95496 0.41549 0.0
C222 C 0.23775 0.92291 0.45343 0.0
C223 C 0.24732 0.95029 0.49428 0.0
C224 C 0.27958 0.00761 0.49802 0.0
C225 C 0.29094 0.02621 0.5461 0.0
C226 C 0.35392 0.0589 0.55594 0.0
C227 C 0.26298 0.06057 0.5584 0.0
C228 C 0.26283 0.97008 0.56901 0.0
C229 C 0.23677 0.92705 0.53842 0.0
C230 C 0.21289 0.87132 0.55064 0.0
C231 C 0.21678 0.85913 0.59495 0.0
C232 C 0.24455 0.90239 0.62658 0.0
C233 C 0.26647 0.95854 0.61382 0.0
H234 H 0.75237 0.71534 0.91827 0.0
H235 H 0.62273 0.76001 0.92312 0.0
H236 H 0.61142 0.73935 1.00378 0.0
H237 H 0.69013 0.60218 0.00552 0.0
H238 H 0.7582 0.62043 0.02627 0.0
H239 H 0.74864 0.62887 0.96815 0.0
H240 H 0.82532 0.73303 0.97297 0.0
H241 H 0.83488 0.72507 0.0309 0.0
H242 H 0.8187 0.77786 0.01325 0.0
H243 H 0.62653 0.7303 0.08446 0.0
H244 H 0.66398 0.73054 0.15888 0.0
H245 H 0.78226 0.68901 0.10138 0.0
C246 C 0.72063 0.71948 0.93616 0.0
C247 C 0.68836 0.73932 0.91482 0.0
C248 C 0.64732 0.74432 0.93898 0.0
C249 C 0.64073 0.73266 0.98468 0.0
C250 C 0.6746 0.71481 0.00505 0.0
C251 C 0.71312 0.70731 0.98135 0.0
C252 C 0.7477 0.69234 0.01137 0.0
C253 C 0.73542 0.63239 1.00228 0.0
C254 C 0.81032 0.73462 0.00685 0.0
C255 C 0.72548 0.69648 0.05618 0.0
C256 C 0.68249 0.7083 0.05171 0.0
C257 C 0.65897 0.71954 0.08832 0.0
C258 C 0.68057 0.71976 0.13034 0.0
C259 C 0.72511 0.70886 0.13541 0.0
C260 C 0.74706 0.6958 0.09813 0.0
H261 H 0.9528 0.26206 0.38929 0.0
H262 H 0.10186 0.38154 0.32006 0.0
H263 H 0.15831 0.3898 0.38674 0.0
H264 H 0.98601 0.33206 0.48934 0.0
H265 H 0.95549 0.2704 0.5236 0.0
H266 H 0.92952 0.26732 0.46843 0.0
H267 H 0.94739 0.1858 0.44954 0.0
H268 H 0.97395 0.18911 0.50477 0.0
H269 H 0.01601 0.1948 0.45722 0.0
H270 H 0.19539 0.39514 0.46407 0.0
H271 H 0.20942 0.40079 0.5454 0.0
H272 H 0.03631 0.27654 0.56412 0.0
C273 C 0.9976 0.2888 0.38785 0.0
C274 C 0.02344 0.32001 0.34927 0.0
C275 C 0.08171 0.35617 0.34895 0.0
C276 C 0.1139 0.36098 0.38664 0.0
C277 C 0.08699 0.32958 0.42433 0.0
C278 C 0.03003 0.29414 0.42511 0.0
C279 C 0.01006 0.26982 0.47096 0.0
C280 C 0.96782 0.2859 0.48914 0.0
C281 C 0.98541 0.20609 0.47058 0.0
C282 C 0.06441 0.29846 0.49646 0.0
C283 C 0.10848 0.33218 0.46884 0.0
C284 C 0.1616 0.36767 0.4857 0.0
C285 C 0.16936 0.37033 0.53187 0.0
C286 C 0.12448 0.33738 0.5606 0.0
C287 C 0.07184 0.29987 0.54259 0.0
H288 H 0.50582 0.07517 0.31812 0.0
H289 H 0.46373 0.05569 0.17843 0.0
H290 H 0.5575 0.07017 0.16071 0.0
H291 H 0.62395 0.18874 0.30631 0.0
H292 H 0.66199 0.17728 0.34972 0.0
H293 H 0.58774 0.14422 0.35274 0.0
H294 H 0.58052 0.04697 0.35837 0.0
H295 H 0.65541 0.07992 0.35584 0.0
H296 H 0.61311 0.02558 0.31683 0.0
H297 H 0.66129 0.10917 0.15767 0.0
H298 H 0.7622 0.17372 0.16832 0.0
H299 H 0.73632 0.17698 0.30964 0.0
C300 C 0.51545 0.07169 0.28381 0.0
C301 C 0.47792 0.06481 0.24946 0.0
C302 C 0.4919 0.06072 0.20513 0.0
C303 C 0.54507 0.06875 0.19494 0.0
C304 C 0.583 0.08027 0.22961 0.0
C305 C 0.56832 0.08119 0.27334 0.0
C306 C 0.61835 0.10635 0.30381 0.0
C307 C 0.62325 0.15712 0.32957 0.0
C308 C 0.61674 0.06205 0.33558 0.0
C309 C 0.66422 0.12365 0.27013 0.0
C310 C 0.64321 0.10599 0.22776 0.0
C311 C 0.67804 0.12215 0.19076 0.0
C312 C 0.73517 0.15891 0.19705 0.0
C313 C 0.75624 0.1802 0.23977 0.0
C314 C 0.72077 0.16086 0.27675 0.0
H315 H 0.5617 0.50158 0.20649 0.0
H316 H 0.55681 0.56627 0.33621 0.0
H317 H 0.47538 0.47598 0.35569 0.0
H318 H 0.3982 0.38934 0.20234 0.0
H319 H 0.41415 0.34152 0.17378 0.0
H320 H 0.45392 0.41548 0.16236 0.0
H321 H 0.54474 0.41458 0.18077 0.0
H322 H 0.50626 0.34157 0.19293 0.0
H323 H 0.55216 0.38978 0.23433 0.0
H324 H 0.4259 0.37597 0.37126 0.0
H325 H 0.40185 0.27722 0.37741 0.0
H326 H 0.43323 0.27325 0.23729 0.0
C327 C 0.54078 0.49756 0.23777 0.0
C328 C 0.56516 0.54044 0.26985 0.0
C329 C 0.53816 0.53415 0.31094 0.0
C330 C 0.4919 0.48271 0.32232 0.0
C331 C 0.47244 0.43884 0.29172 0.0
C332 C 0.49457 0.44639 0.24938 0.0
C333 C 0.47381 0.39087 0.22573 0.0
C334 C 0.43258 0.38388 0.18881 0.0
C335 C 0.52213 0.38384 0.20747 0.0
C336 C 0.44384 0.35102 0.26341 0.0
C337 C 0.44147 0.37933 0.30067 0.0
C338 C 0.42507 0.35303 0.34182 0.0
C339 C 0.41207 0.2972 0.34518 0.0
C340 C 0.415 0.26815 0.30757 0.0
C341 C 0.42917 0.29464 0.26601 0.0
H342 H 0.99221 0.50567 0.2211 0.0
H343 H 0.87987 0.39361 0.12146 0.0
H344 H 0.84835 0.46145 0.10491 0.0
H345 H 0.90427 0.5322 0.26872 0.0
H346 H 0.94974 0.60461 0.28286 0.0
H347 H 0.97822 0.55954 0.27471 0.0
H348 H 0.04496 0.62595 0.2145 0.0
H349 H 0.01684 0.67194 0.22288 0.0
H350 H 0.01727 0.64565 0.16814 0.0
H351 H 0.8095 0.52665 0.11582 0.0
H352 H 0.76945 0.5792 0.15259 0.0
H353 H 0.90624 0.64821 0.2457 0.0
C354 C 0.96382 0.49737 0.19367 0.0
C355 C 0.93934 0.44513 0.17189 0.0
C356 C 0.90045 0.43416 0.13752 0.0
C357 C 0.88198 0.47244 0.12824 0.0
C358 C 0.90358 0.52184 0.15311 0.0
C359 C 0.94484 0.53487 0.18453 0.0
C360 C 0.95396 0.58422 0.21284 0.0
C361 C 0.94599 0.56916 0.26265 0.0
C362 C 0.01169 0.63496 0.20404 0.0
C363 C 0.90835 0.59409 0.1952 0.0
C364 C 0.88079 0.55917 0.15973 0.0
C365 C 0.83205 0.55547 0.14248 0.0
C366 C 0.80967 0.58582 0.16331 0.0
C367 C 0.83553 0.61853 0.20141 0.0
C368 C 0.88676 0.62476 0.21585 0.0
H369 H 0.00766 0.44963 0.66096 0.0
H370 H 0.00241 0.39839 0.79652 0.0
H371 H 0.99661 0.47982 0.82231 0.0
H372 H 0.10334 0.56314 0.66989 0.0
H373 H 0.08669 0.60656 0.63576 0.0
H374 H 0.05328 0.5334 0.6253 0.0
H375 H 0.95619 0.52415 0.63456 0.0
H376 H 0.98949 0.59859 0.64377 0.0
H377 H 0.94045 0.55107 0.6837 0.0
H378 H 0.03591 0.57938 0.83458 0.0
H379 H 0.10857 0.679 0.8313 0.0
H380 H 0.10049 0.67341 0.68824 0.0
C381 C 8e-05 0.45352 0.69569 0.0
C382 C 0.00512 0.41831 0.72677 0.0
C383 C 0.99737 0.42448 0.77221 0.0
C384 C 0.99472 0.47133 0.78709 0.0
C385 C -0.00026 0.51118 0.75597 0.0
C386 C 0.00035 0.50178 0.71067 0.0
C387 C 0.02207 0.55581 0.68474 0.0
C388 C 0.06916 0.56521 0.65216 0.0
C389 C 0.97419 0.55749 0.66026 0.0
C390 C 0.04306 0.59756 0.72243 0.0
C391 C 0.02611 0.5712 0.76319 0.0
C392 C 0.04772 0.60047 0.80289 0.0
C393 C 0.08931 0.65684 0.80085 0.0
C394 C 0.10952 0.68267 0.75945 0.0
C395 C 0.08459 0.65373 0.72006 0.0
H396 H 0.44308 0.94963 0.79508 0.0
H397 H 0.32584 0.81742 0.87974 0.0
H398 H 0.40167 0.80444 0.90964 0.0
H399 H 0.5053 0.89053 0.75742 0.0
H400 H 0.57634 0.94707 0.75592 0.0
H401 H 0.52069 0.96225 0.75551 0.0
H402 H 0.56104 0.02454 0.82524 0.0
H403 H 0.61782 0.00998 0.82555 0.0
H404 H 0.57546 0.99671 0.87439 0.0
H405 H 0.47769 0.78163 0.90706 0.0
H406 H 0.54655 0.75804 0.8769 0.0
H407 H 0.62003 0.90983 0.79933 0.0
C408 C 0.43464 0.92116 0.82247 0.0
C409 C 0.37933 0.88535 0.83592 0.0
C410 C 0.36839 0.84633 0.87011 0.0
C411 C 0.41134 0.83853 0.88706 0.0
C412 C 0.46514 0.87118 0.87024 0.0
C413 C 0.47738 0.9135 0.83985 0.0
C414 C 0.53523 0.93573 0.82068 0.0
C415 C 0.5342 0.93362 0.76942 0.0
C416 C 0.57472 0.99527 0.8375 0.0
C417 C 0.55057 0.89473 0.84045 0.0
C418 C 0.51066 0.8589 0.87015 0.0
C419 C 0.51052 0.81092 0.88554 0.0
C420 C 0.55003 0.79781 0.86845 0.0
C421 C 0.58879 0.83251 0.8362 0.0
C422 C 0.59123 0.88321 0.82457 0.0
H423 H 0.30365 0.41435 0.69306 0.0
H424 H 0.25047 0.42412 0.82608 0.0
H425 H 0.34824 0.46629 0.85207 0.0
H426 H 0.43288 0.40052 0.72636 0.0
H427 H 0.4703 0.44338 0.67955 0.0
H428 H 0.39628 0.39596 0.67566 0.0
H429 H 0.38171 0.47828 0.65231 0.0
H430 H 0.45495 0.52536 0.65622 0.0
H431 H 0.4075 0.5389 0.68781 0.0
H432 H 0.45026 0.53054 0.85804 0.0
H433 H 0.54206 0.61271 0.84314 0.0
H434 H 0.53053 0.56358 0.70576 0.0
C435 C 0.31251 0.42318 0.72809 0.0
C436 C 0.27004 0.41622 0.7577 0.0
C437 C 0.28251 0.42856 0.80311 0.0
C438 C 0.33797 0.45239 0.81802 0.0
C439 C 0.37983 0.46233 0.78717 0.0
C440 C 0.36734 0.44708 0.74311 0.0
C441 C 0.41932 0.47142 0.71467 0.0
C442 C 0.43035 0.42506 0.69809 0.0
C443 C 0.41561 0.50554 0.67555 0.0
C444 C 0.46265 0.50821 0.74842 0.0
C445 C 0.43962 0.50022 0.79055 0.0
C446 C 0.46916 0.53561 0.8257 0.0
C447 C 0.52155 0.58208 0.81704 0.0
C448 C 0.54363 0.59304 0.7736 0.0
C449 C 0.51533 0.55419 0.73954 0.0
H450 H 0.29524 0.23915 0.1837 0.0
H451 H 0.28398 0.2034 0.32387 0.0
H452 H 0.24318 0.26351 0.33685 0.0
H453 H 0.30479 0.39044 0.19946 0.0
H454 H 0.26353 0.3769 0.1499 0.0
H455 H 0.31519 0.35535 0.15291 0.0
H456 H 0.24155 0.25453 0.13333 0.0
H457 H 0.18937 0.27437 0.12965 0.0
H458 H 0.17935 0.2188 0.16668 0.0
H459 H 0.16567 0.27995 0.3288 0.0
H460 H 0.07784 0.27173 0.3021 0.0
H461 H 0.14458 0.31311 0.16953 0.0
C462 C 0.28771 0.24769 0.21729 0.0
C463 C 0.29244 0.21733 0.25275 0.0
C464 C 0.2812 0.22726 0.29644 0.0
C465 C 0.25797 0.26142 0.30405 0.0
C466 C 0.24758 0.28614 0.26768 0.0
C467 C 0.26497 0.28233 0.2252 0.0
C468 C 0.23949 0.30296 0.19083 0.0
C469 C 0.2834 0.35982 0.17223 0.0
C470 C 0.21069 0.26005 0.15303 0.0
C471 C 0.19806 0.30928 0.21946 0.0
C472 C 0.20447 0.30127 0.26397 0.0
C473 C 0.16251 0.29056 0.29478 0.0
C474 C 0.11275 0.28658 0.27962 0.0
C475 C 0.10611 0.29516 0.23451 0.0
C476 C 0.15003 0.30869 0.2046 0.0
H477 H 0.90611 0.83003 0.36047 0.0
H478 H 0.91546 0.68537 0.31837 0.0
H479 H 0.01444 0.73174 0.34016 0.0
H480 H 0.01073 0.91903 0.3109 0.0
H481 H 0.03939 0.97611 0.3501 0.0
H482 H 0.96724 0.92501 0.35271 0.0
H483 H 0.97792 0.90379 0.43455 0.0
H484 H 0.05076 0.956 0.43249 0.0
H485 H 0.03008 0.8857 0.44949 0.0
H486 H 0.11336 0.80199 0.3392 0.0
H487 H 0.19896 0.88649 0.31517 0.0
H488 H 0.12927 0.98909 0.35604 0.0
C489 C 0.92835 0.80696 0.35925 0.0
C490 C 0.9036 0.75406 0.33886 0.0
C491 C 0.93378 0.72547 0.33496 0.0
C492 C 0.99009 0.75171 0.34734 0.0
C493 C 0.0153 0.80645 0.36361 0.0
C494 C 0.98487 0.83341 0.37061 0.0
C495 C 0.02289 0.89555 0.37795 0.0
C496 C 0.00926 0.93087 0.34596 0.0
C497 C 0.02026 0.91116 0.42651 0.0
C498 C 0.07879 0.90054 0.3679 0.0
C499 C 0.07406 0.84844 0.36222 0.0
C500 C 0.1181 0.84281 0.3454 0.0
C501 C 0.16672 0.891 0.33187 0.0
C502 C 0.17077 0.94397 0.33514 0.0
C503 C 0.12744 0.94894 0.35506 0.0
H504 H 0.84108 0.10507 0.27396 0.0
H505 H 0.78565 0.07168 0.13761 0.0
H506 H 0.71652 0.97442 0.15724 0.0
H507 H 0.85181 0.99393 0.28712 0.0
H508 H 0.82924 0.9781 0.34403 0.0
H509 H 0.85728 0.04803 0.32405 0.0
H510 H 0.7674 0.04808 0.3484 0.0
H511 H 0.73877 0.97742 0.36837 0.0
H512 H 0.70066 0.99418 0.32856 0.0
H513 H 0.67128 0.87799 0.18622 0.0
H514 H 0.66557 0.79279 0.21725 0.0
H515 H 0.75529 0.88548 0.33398 0.0
C516 C 0.81215 0.07776 0.24899 0.0
C517 C 0.81739 0.09563 0.20462 0.0
C518 C 0.78123 0.05864 0.17196 0.0
C519 C 0.74163 0.00349 0.18297 0.0
C520 C 0.73921 0.98578 0.22672 0.0
C521 C 0.77362 0.02202 0.25934 0.0
C522 C 0.77213 0.9904 0.30091 0.0
C523 C 0.83107 0.00335 0.31474 0.0
C524 C 0.743 0.00328 0.33881 0.0
C525 C 0.73668 0.93063 0.28492 0.0
C526 C 0.71526 0.92883 0.24307 0.0
C527 C 0.68677 0.87881 0.21935 0.0
C528 C 0.6835 0.83033 0.23734 0.0
C529 C 0.71024 0.83267 0.27794 0.0
C530 C 0.73389 0.88255 0.30315 0.0
H531 H 0.10306 0.16048 0.64681 0.0
H532 H 0.26313 0.29812 0.68473 0.0
H533 H 0.30478 0.23734 0.67815 0.0
H534 H 0.10347 0.07313 0.714 0.0
H535 H 0.06974 0.01 0.68126 0.0
H536 H 0.05815 0.0667 0.66856 0.0
H537 H 0.09078 0.06856 0.58827 0.0
H538 H 0.10366 0.0118 0.60006 0.0
H539 H 0.15838 0.07648 0.57765 0.0
H540 H 0.32155 0.15827 0.69116 0.0
H541 H 0.31068 0.07132 0.72425 0.0
H542 H 0.13829 0.98277 0.68331 0.0
C543 C 0.14771 0.17845 0.65017 0.0
C544 C 0.18049 0.23416 0.66446 0.0
C545 C 0.23802 0.25607 0.67189 0.0
C546 C 0.26184 0.22155 0.66849 0.0
C547 C 0.22738 0.16513 0.65794 0.0
C548 C 0.17143 0.14388 0.64814 0.0
C549 C 0.14042 0.0805 0.64803 0.0
C550 C 0.0901 0.05628 0.67989 0.0
C551 C 0.12225 0.05799 0.60069 0.0
C552 C 0.18587 0.06945 0.66421 0.0
C553 C 0.23646 0.11852 0.66756 0.0
C554 C 0.28267 0.11949 0.68733 0.0
C555 C 0.2763 0.06994 0.70597 0.0
C556 C 0.22393 0.02061 0.70539 0.0
C557 C 0.17905 0.01988 0.68274 0.0
H558 H 0.03776 0.77639 0.71674 0.0
H559 H 0.01667 0.72095 0.85268 0.0
H560 H 0.91841 0.65134 0.83747 0.0
H561 H 0.93652 0.79494 0.71179 0.0
H562 H 0.91145 0.7715 0.65615 0.0
H563 H 0.98194 0.793 0.66966 0.0
H564 H 0.96739 0.69724 0.64314 0.0
H565 H 0.89586 0.67544 0.62974 0.0
H566 H 0.91193 0.63365 0.66623 0.0
H567 H 0.82166 0.61412 0.81729 0.0
H568 H 0.7443 0.63155 0.80305 0.0
H569 H 0.8222 0.71609 0.68134 0.0
C570 C 0.01266 0.7471 0.74229 0.0
C571 C 0.03403 0.75278 0.78547 0.0
C572 C 0.00067 0.7162 0.8192 0.0
C573 C 0.94499 0.67621 0.81055 0.0
C574 C 0.92319 0.67411 0.76821 0.0
C575 C 0.95643 0.70868 0.73437 0.0
C576 C 0.92138 0.71045 0.69644 0.0
C577 C 0.93881 0.77102 0.68289 0.0
C578 C 0.9243 0.6772 0.65653 0.0
C579 C 0.86408 0.68019 0.71755 0.0
C580 C 0.86525 0.65485 0.757 0.0
C581 C 0.81992 0.63248 0.78605 0.0
C582 C 0.77553 0.64202 0.77751 0.0
C583 C 0.77809 0.67534 0.74118 0.0
C584 C 0.8196 0.68955 0.70873 0.0
H585 H 0.90802 0.20309 0.76007 0.0
H586 H 0.92503 0.19631 0.61834 0.0
H587 H 0.83959 0.10458 0.61565 0.0
H588 H 0.89654 0.08897 0.77921 0.0
H589 H 0.84649 0.06241 0.82375 0.0
H590 H 0.88596 0.13597 0.81438 0.0
H591 H 0.79615 0.14199 0.8056 0.0
H592 H 0.75554 0.06804 0.81658 0.0
H593 H 0.74308 0.09654 0.76695 0.0
H594 H 0.7782 0.00461 0.63037 0.0
H595 H 0.74678 0.91008 0.66055 0.0
H596 H 0.77621 0.97735 0.79387 0.0
C597 C 0.89053 0.18409 0.72826 0.0
C598 C 0.92167 0.20685 0.68935 0.0
C599 C 0.90043 0.18006 0.64824 0.0
C600 C 0.85204 0.12757 0.6466 0.0
C601 C 0.82582 0.10246 0.68642 0.0
C602 C 0.84364 0.13054 0.72668 0.0
C603 C 0.81924 0.09048 0.76539 0.0
C604 C 0.86478 0.09472 0.79744 0.0
C605 C 0.77592 0.09982 0.79007 0.0
C606 C 0.79132 0.03535 0.74081 0.0
C607 C 0.79261 0.04298 0.69539 0.0
C608 C 0.77539 0.99812 0.66589 0.0
C609 C 0.75796 0.94465 0.68318 0.0
C610 C 0.75977 0.93718 0.72935 0.0
C611 C 0.77467 0.98254 0.75838 0.0
loop_
_geom_bond_atom_site_label_1
_geom_bond_atom_site_label_2
_geom_bond_distance
_geom_bond_site_symmetry_2
_ccdc_geom_bond_type
Zn0 O6 1.920 . S
Zn0 O12 1.898 . S
Zn0 O15 1.905 1_545 S
Zn1 O9 1.905 . S
Zn1 O10 1.898 . S
Zn1 O18 1.920 . S
Zn2 O5 2.080 . S
Zn2 O8 2.114 . S
Zn2 O11 2.120 . S
Zn2 O13 2.120 . S
Zn2 O14 2.114 . S
Zn2 O17 2.080 . S
C3 O8 1.166 . S
C3 O9 1.182 . S
C4 O10 1.167 . S
C4 O11 1.299 . S
O5 Zn2 2.080 . S
O5 C19 1.305 . S
O6 Zn0 1.920 . S
O6 C19 1.234 . S
C7 O12 1.167 . S
C7 O13 1.299 . S
O8 Zn2 2.114 . S
O8 C3 1.166 . S
O9 Zn1 1.905 . S
O9 C3 1.182 . S
O10 Zn1 1.898 . S
O10 C4 1.167 . S
O11 Zn2 2.120 . S
O11 C4 1.299 . S
O12 Zn0 1.898 . S
O12 C7 1.167 . S
O13 Zn2 2.120 . S
O13 C7 1.299 . S
O14 Zn2 2.114 . S
O14 C16 1.166 1_545 S
O15 Zn0 1.905 1_565 S
O15 C16 1.182 . S
C16 O14 1.166 1_565 S
C16 O15 1.182 . S
O17 Zn2 2.080 . S
O17 C20 1.305 . S
O18 Zn1 1.920 . S
O18 C20 1.234 . S
C19 O5 1.305 . S
C19 O6 1.234 . S
C20 O17 1.305 . S
C20 O18 1.234 . S
Zn21 O27 1.920 . S
Zn21 O33 1.898 . S
Zn21 O36 1.905 . S
Zn22 O30 1.905 . S
Zn22 O31 1.898 . S
Zn22 O39 1.920 . S
Zn23 O26 2.080 . S
Zn23 O29 2.114 . S
Zn23 O32 2.120 . S
Zn23 O34 2.120 . S
Zn23 O35 2.114 . S
Zn23 O38 2.080 . S
C24 O29 1.166 . S
C24 O30 1.182 . S
C25 O31 1.167 . S
C25 O32 1.299 . S
O26 Zn23 2.080 . S
O26 C40 1.305 . S
O27 Zn21 1.920 . S
O27 C40 1.234 . S
C28 O33 1.167 . S
C28 O34 1.299 . S
O29 Zn23 2.114 . S
O29 C24 1.166 . S
O30 Zn22 1.905 . S
O30 C24 1.182 . S
O31 Zn22 1.898 . S
O31 C25 1.167 . S
O32 Zn23 2.120 . S
O32 C25 1.299 . S
O33 Zn21 1.898 . S
O33 C28 1.167 . S
O34 Zn23 2.120 . S
O34 C28 1.299 . S
O35 Zn23 2.114 . S
O35 C37 1.166 . S
O36 Zn21 1.905 . S
O36 C37 1.182 . S
C37 O35 1.166 . S
C37 O36 1.182 . S
O38 Zn23 2.080 . S
O38 C41 1.305 . S
O39 Zn22 1.920 . S
O39 C41 1.234 . S
C40 O26 1.305 . S
C40 O27 1.234 . S
C41 O38 1.305 . S
C41 O39 1.234 . S
Zn42 O48 1.920 . S
Zn42 O54 1.898 . S
Zn42 O57 1.905 1_655 S
Zn43 O51 1.905 . S
Zn43 O52 1.898 . S
Zn43 O60 1.920 . S
Zn44 O47 2.080 . S
Zn44 O50 2.114 . S
Zn44 O53 2.120 . S
Zn44 O55 2.120 . S
Zn44 O56 2.114 . S
Zn44 O59 2.080 . S
C45 O50 1.166 . S
C45 O51 1.182 . S
C46 O52 1.167 . S
C46 O53 1.299 . S
O47 Zn44 2.080 . S
O47 C61 1.305 . S
O48 Zn42 1.920 . S
O48 C61 1.234 . S
C49 O54 1.167 . S
C49 O55 1.299 . S
O50 Zn44 2.114 . S
O50 C45 1.166 . S
O51 Zn43 1.905 . S
O51 C45 1.182 . S
O52 Zn43 1.898 . S
O52 C46 1.167 . S
O53 Zn44 2.120 . S
O53 C46 1.299 . S
O54 Zn42 1.898 . S
O54 C49 1.167 . S
O55 Zn44 2.120 . S
O55 C49 1.299 . S
O56 Zn44 2.114 . S
O56 C58 1.166 1_655 S
O57 Zn42 1.905 1_455 S
O57 C58 1.182 . S
C58 O56 1.166 1_455 S
C58 O57 1.182 . S
O59 Zn44 2.080 . S
O59 C62 1.305 . S
O60 Zn43 1.920 . S
O60 C62 1.234 . S
C61 O47 1.305 . S
C61 O48 1.234 . S
C62 O59 1.305 . S
C62 O60 1.234 . S
Zn63 O69 1.920 . S
Zn63 O75 1.898 . S
Zn63 O78 1.905 1_455 S
Zn64 O72 1.905 . S
Zn64 O73 1.898 . S
Zn64 O81 1.920 . S
Zn65 O68 2.080 . S
Zn65 O71 2.114 . S
Zn65 O74 2.120 . S
Zn65 O76 2.120 . S
Zn65 O77 2.114 . S
Zn65 O80 2.080 . S
C66 O71 1.166 . S
C66 O72 1.182 . S
C67 O73 1.167 . S
C67 O74 1.299 . S
O68 Zn65 2.080 . S
O68 C82 1.305 . S
O69 Zn63 1.920 . S
O69 C82 1.234 . S
C70 O75 1.167 . S
C70 O76 1.299 . S
O71 Zn65 2.114 . S
O71 C66 1.166 . S
O72 Zn64 1.905 . S
O72 C66 1.182 . S
O73 Zn64 1.898 . S
O73 C67 1.167 . S
O74 Zn65 2.120 . S
O74 C67 1.299 . S
O75 Zn63 1.898 . S
O75 C70 1.167 . S
O76 Zn65 2.120 . S
O76 C70 1.299 . S
O77 Zn65 2.114 . S
O77 C79 1.166 1_455 S
O78 Zn63 1.905 1_655 S
O78 C79 1.182 . S
C79 O77 1.166 1_655 S
C79 O78 1.182 . S
O80 Zn65 2.080 . S
O80 C83 1.305 . S
O81 Zn64 1.920 . S
O81 C83 1.234 . S
C82 O68 1.305 . S
C82 O69 1.234 . S
C83 O80 1.305 . S
C83 O81 1.234 . S
Zn84 O90 1.920 . S
Zn84 O96 1.898 . S
Zn84 O99 1.905 . S
Zn85 O93 1.905 1_565 S
Zn85 O94 1.898 . S
Zn85 O102 1.920 . S
Zn86 O89 2.080 . S
Zn86 O92 2.114 . S
Zn86 O95 2.120 . S
Zn86 O97 2.120 . S
Zn86 O98 2.114 . S
Zn86 O101 2.080 . S
C87 O92 1.166 1_545 S
C87 O93 1.182 . S
C88 O94 1.167 . S
C88 O95 1.299 . S
O89 Zn86 2.080 . S
O89 C103 1.305 . S
O90 Zn84 1.920 . S
O90 C103 1.234 . S
C91 O96 1.167 . S
C91 O97 1.299 . S
O92 Zn86 2.114 . S
O92 C87 1.166 1_565 S
O93 Zn85 1.905 1_545 S
O93 C87 1.182 . S
O94 Zn85 1.898 . S
O94 C88 1.167 . S
O95 Zn86 2.120 . S
O95 C88 1.299 . S
O96 Zn84 1.898 . S
O96 C91 1.167 . S
O97 Zn86 2.120 . S
O97 C91 1.299 . S
O98 Zn86 2.114 . S
O98 C100 1.166 . S
O99 Zn84 1.905 . S
O99 C100 1.182 . S
C100 O98 1.166 . S
C100 O99 1.182 . S
O101 Zn86 2.080 . S
O101 C104 1.305 . S
O102 Zn85 1.920 . S
O102 C104 1.234 . S
C103 O89 1.305 . S
C103 O90 1.234 . S
C104 O101 1.305 . S
C104 O102 1.234 . S
Zn105 O111 1.920 . S
Zn105 O117 1.898 . S
Zn105 O120 1.905 . S
Zn106 O114 1.905 . S
Zn106 O115 1.898 . S
Zn106 O123 1.920 . S
Zn107 O110 2.080 . S
Zn107 O113 2.114 . S
Zn107 O116 2.120 . S
Zn107 O118 2.120 . S
Zn107 O119 2.114 . S
Zn107 O122 2.080 . S
C108 O113 1.166 . S
C108 O114 1.182 . S
C109 O115 1.167 . S
C109 O116 1.299 . S
O110 Zn107 2.080 . S
O110 C124 1.305 . S
O111 Zn105 1.920 . S
O111 C124 1.234 . S
C112 O117 1.167 . S
C112 O118 1.299 . S
O113 Zn107 2.114 . S
O113 C108 1.166 . S
O114 Zn106 1.905 . S
O114 C108 1.182 . S
O115 Zn106 1.898 . S
O115 C109 1.167 . S
O116 Zn107 2.120 . S
O116 C109 1.299 . S
O117 Zn105 1.898 . S
O117 C112 1.167 . S
O118 Zn107 2.120 . S
O118 C112 1.299 . S
O119 Zn107 2.114 . S
O119 C121 1.166 . S
O120 Zn105 1.905 . S
O120 C121 1.182 . S
C121 O119 1.166 . S
C121 O120 1.182 . S
O122 Zn107 2.080 . S
O122 C125 1.305 . S
O123 Zn106 1.920 . S
O123 C125 1.234 . S
C124 O110 1.305 . S
C124 O111 1.234 . S
C125 O122 1.305 . S
C125 O123 1.234 . S
H126 C138 0.930 . S
H127 C140 0.930 1_545 S
H128 C141 0.930 . S
H129 C145 0.959 . S
H130 C145 0.959 . S
H131 C145 0.961 1_556 S
H132 C146 0.960 . S
H133 C146 0.961 . S
H134 C146 0.959 . S
H135 C149 0.929 . S
H136 C150 0.931 . S
H137 C152 0.930 1_565 S
C138 H126 0.930 . S
C138 C139 1.399 . S
C138 C143 1.399 . S
C139 C138 1.399 . S
C139 C140 1.376 . S
C140 H127 0.930 1_565 S
C140 C139 1.376 . S
C140 C141 1.388 1_565 S
C141 H128 0.930 . S
C141 C140 1.388 1_545 S
C141 C142 1.390 . S
C142 C141 1.390 . S
C142 C143 1.394 1_545 S
C142 C148 1.465 1_556 S
C143 C138 1.399 . S
C143 C142 1.394 1_565 S
C143 C144 1.516 1_556 S
C144 C143 1.516 1_554 S
C144 C145 1.502 . S
C144 C146 1.561 . S
C144 C147 1.526 . S
C145 H129 0.959 . S
C145 H130 0.959 . S
C145 H131 0.961 1_554 S
C145 C144 1.502 . S
C146 H132 0.960 . S
C146 H133 0.961 . S
C146 H134 0.959 . S
C146 C144 1.561 . S
C147 C144 1.526 . S
C147 C148 1.396 1_565 S
C147 C152 1.390 1_565 S
C148 C142 1.465 1_554 S
C148 C147 1.396 1_545 S
C148 C149 1.399 . S
C149 H135 0.929 . S
C149 C148 1.399 . S
C149 C150 1.385 . S
C150 H136 0.931 . S
C150 C149 1.385 . S
C150 C151 1.389 . S
C151 C150 1.389 . S
C151 C152 1.387 . S
C152 H137 0.930 1_545 S
C152 C147 1.390 1_545 S
C152 C151 1.387 . S
H153 C165 0.930 . S
H154 C167 0.930 . S
H155 C168 0.930 . S
H156 C172 0.959 . S
H157 C172 0.959 . S
H158 C172 0.961 . S
H159 C173 0.960 . S
H160 C173 0.961 . S
H161 C173 0.959 . S
H162 C176 0.929 . S
H163 C177 0.931 . S
H164 C179 0.930 . S
C165 H153 0.930 . S
C165 C166 1.399 . S
C165 C170 1.399 . S
C166 C165 1.399 . S
C166 C167 1.376 . S
C167 H154 0.930 . S
C167 C166 1.376 . S
C167 C168 1.388 . S
C168 H155 0.930 . S
C168 C167 1.388 . S
C168 C169 1.390 . S
C169 C168 1.390 . S
C169 C170 1.394 . S
C169 C175 1.465 . S
C170 C165 1.399 . S
C170 C169 1.394 . S
C170 C171 1.516 . S
C171 C170 1.516 . S
C171 C172 1.502 . S
C171 C173 1.561 . S
C171 C174 1.526 . S
C172 H156 0.959 . S
C172 H157 0.959 . S
C172 H158 0.961 . S
C172 C171 1.502 . S
C173 H159 0.960 . S
C173 H160 0.961 . S
C173 H161 0.959 . S
C173 C171 1.561 . S
C174 C171 1.526 . S
C174 C175 1.396 . S
C174 C179 1.390 . S
C175 C169 1.465 . S
C175 C174 1.396 . S
C175 C176 1.399 . S
C176 H162 0.929 . S
C176 C175 1.399 . S
C176 C177 1.385 . S
C177 H163 0.931 . S
C177 C176 1.385 . S
C177 C178 1.389 . S
C178 C177 1.389 . S
C178 C179 1.387 . S
C179 H164 0.930 . S
C179 C174 1.390 . S
C179 C178 1.387 . S
H180 C192 0.930 . S
H181 C194 0.930 . S
H182 C195 0.930 1_455 S
H183 C199 0.960 1_554 S
H184 C199 0.964 1_655 S
H185 C199 0.961 1_654 S
H186 C200 0.960 . S
H187 C200 0.961 . S
H188 C200 0.959 . S
H189 C203 0.929 . S
H190 C204 0.931 . S
H191 C206 0.930 . S
C192 H180 0.930 . S
C192 C193 1.399 . S
C192 C197 1.399 . S
C193 C192 1.399 . S
C193 C194 1.376 . S
C194 H181 0.930 . S
C194 C193 1.376 . S
C194 C195 1.388 . S
C195 H182 0.930 1_655 S
C195 C194 1.388 . S
C195 C196 1.390 . S
C196 C195 1.390 . S
C196 C197 1.394 . S
C196 C202 1.465 1_654 S
C197 C192 1.399 . S
C197 C196 1.394 . S
C197 C198 1.516 1_554 S
C198 C197 1.516 1_556 S
C198 C199 1.501 1_655 S
C198 C200 1.561 . S
C198 C201 1.526 1_655 S
C199 H183 0.960 1_556 S
C199 H184 0.964 1_455 S
C199 H185 0.961 1_456 S
C199 C198 1.501 1_455 S
C200 H186 0.960 . S
C200 H187 0.961 . S
C200 H188 0.959 . S
C200 C198 1.561 . S
C201 C198 1.526 1_455 S
C201 C202 1.396 . S
C201 C206 1.390 . S
C202 C196 1.465 1_456 S
C202 C201 1.396 . S
C202 C203 1.399 . S
C203 H189 0.929 . S
C203 C202 1.399 . S
C203 C204 1.385 . S
C204 H190 0.931 . S
C204 C203 1.385 . S
C204 C205 1.389 . S
C205 C204 1.389 . S
C205 C206 1.387 . S
C206 H191 0.930 . S
C206 C201 1.390 . S
C206 C205 1.387 . S
H207 C219 0.930 . S
H208 C221 0.930 1_565 S
H209 C222 0.930 . S
H210 C226 0.959 . S
H211 C226 0.959 . S
H212 C226 0.961 . S
H213 C227 0.960 . S
H214 C227 0.961 . S
H215 C227 0.959 . S
H216 C230 0.929 . S
H217 C231 0.931 . S
H218 C233 0.930 1_545 S
C219 H207 0.930 . S
C219 C220 1.399 . S
C219 C224 1.399 . S
C220 C219 1.399 . S
C220 C221 1.376 . S
C221 H208 0.930 1_545 S
C221 C220 1.376 . S
C221 C222 1.388 1_545 S
C222 H209 0.930 . S
C222 C221 1.388 1_565 S
C222 C223 1.390 . S
C223 C222 1.390 . S
C223 C224 1.394 1_565 S
C223 C229 1.465 . S
C224 C219 1.399 . S
C224 C223 1.394 1_545 S
C224 C225 1.516 . S
C225 C224 1.516 . S
C225 C226 1.502 . S
C225 C227 1.561 . S
C225 C228 1.526 . S
C226 H210 0.959 . S
C226 H211 0.959 . S
C226 H212 0.961 . S
C226 C225 1.502 . S
C227 H213 0.960 . S
C227 H214 0.961 . S
C227 H215 0.959 . S
C227 C225 1.561 . S
C228 C225 1.526 . S
C228 C229 1.396 1_545 S
C228 C233 1.390 1_545 S
C229 C223 1.465 . S
C229 C228 1.396 1_565 S
C229 C230 1.399 . S
C230 H216 0.929 . S
C230 C229 1.399 . S
C230 C231 1.385 . S
C231 H217 0.931 . S
C231 C230 1.385 . S
C231 C232 1.389 . S
C232 C231 1.389 . S
C232 C233 1.387 . S
C233 H218 0.930 1_565 S
C233 C228 1.390 1_565 S
C233 C232 1.387 . S
H234 C246 0.930 . S
H235 C248 0.930 . S
H236 C249 0.930 . S
H237 C253 0.959 . S
H238 C253 0.959 . S
H239 C253 0.961 1_556 S
H240 C254 0.960 . S
H241 C254 0.947 1_554 S
H242 C254 0.959 . S
H243 C257 0.929 . S
H244 C258 0.931 . S
H245 C260 0.930 . S
C246 H234 0.930 . S
C246 C247 1.399 . S
C246 C251 1.399 . S
C247 C246 1.399 . S
C247 C248 1.376 . S
C248 H235 0.930 . S
C248 C247 1.376 . S
C248 C249 1.388 . S
C249 H236 0.930 . S
C249 C248 1.388 . S
C249 C250 1.390 . S
C250 C249 1.390 . S
C250 C251 1.394 . S
C250 C256 1.465 1_556 S
C251 C246 1.399 . S
C251 C250 1.394 . S
C251 C252 1.516 . S
C252 C251 1.516 . S
C252 C253 1.502 1_556 S
C252 C254 1.561 . S
C252 C255 1.526 1_556 S
C253 H237 0.959 . S
C253 H238 0.959 . S
C253 H239 0.961 1_554 S
C253 C252 1.502 1_554 S
C254 H240 0.960 . S
C254 H241 0.947 1_556 S
C254 H242 0.959 . S
C254 C252 1.561 . S
C255 C252 1.526 1_554 S
C255 C256 1.396 . S
C255 C260 1.390 . S
C256 C250 1.465 1_554 S
C256 C255 1.396 . S
C256 C257 1.399 . S
C257 H243 0.929 . S
C257 C256 1.399 . S
C257 C258 1.385 . S
C258 H244 0.931 . S
C258 C257 1.385 . S
C258 C259 1.389 . S
C259 C258 1.389 . S
C259 C260 1.387 . S
C260 H245 0.930 . S
C260 C255 1.390 . S
C260 C259 1.387 . S
H261 C273 0.930 . S
H262 C275 0.930 . S
H263 C276 0.930 . S
H264 C280 0.959 . S
H265 C280 0.959 . S
H266 C280 0.961 . S
H267 C281 0.960 . S
H268 C281 0.961 . S
H269 C281 0.959 1_455 S
H270 C284 0.929 . S
H271 C285 0.931 . S
H272 C287 0.930 1_655 S
C273 H261 0.930 . S
C273 C274 1.399 . S
C273 C278 1.399 . S
C274 C273 1.399 . S
C274 C275 1.376 1_655 S
C275 H262 0.930 . S
C275 C274 1.376 1_455 S
C275 C276 1.388 . S
C276 H263 0.930 . S
C276 C275 1.388 . S
C276 C277 1.390 . S
C277 C276 1.390 . S
C277 C278 1.394 1_455 S
C277 C283 1.465 . S
C278 C273 1.399 . S
C278 C277 1.394 1_655 S
C278 C279 1.516 . S
C279 C278 1.516 . S
C279 C280 1.502 . S
C279 C281 1.561 . S
C279 C282 1.526 . S
C280 H264 0.959 . S
C280 H265 0.959 . S
C280 H266 0.961 . S
C280 C279 1.502 . S
C281 H267 0.960 . S
C281 H268 0.961 . S
C281 H269 0.959 1_655 S
C281 C279 1.561 . S
C282 C279 1.526 . S
C282 C283 1.396 1_655 S
C282 C287 1.390 1_655 S
C283 C277 1.465 . S
C283 C282 1.396 1_455 S
C283 C284 1.399 . S
C284 H270 0.929 . S
C284 C283 1.399 . S
C284 C285 1.385 . S
C285 H271 0.931 . S
C285 C284 1.385 . S
C285 C286 1.389 . S
C286 C285 1.389 . S
C286 C287 1.387 . S
C287 H272 0.930 1_455 S
C287 C282 1.390 1_455 S
C287 C286 1.387 . S
H288 C300 0.930 . S
H289 C302 0.930 . S
H290 C303 0.930 . S
H291 C307 0.959 . S
H292 C307 0.959 . S
H293 C307 0.961 . S
H294 C308 0.960 . S
H295 C308 0.961 . S
H296 C308 0.959 . S
H297 C311 0.929 . S
H298 C312 0.931 . S
H299 C314 0.930 . S
C300 H288 0.930 . S
C300 C301 1.399 . S
C300 C305 1.399 . S
C301 C300 1.399 . S
C301 C302 1.376 . S
C302 H289 0.930 . S
C302 C301 1.376 . S
C302 C303 1.388 . S
C303 H290 0.930 . S
C303 C302 1.388 . S
C303 C304 1.390 . S
C304 C303 1.390 . S
C304 C305 1.394 . S
C304 C310 1.465 . S
C305 C300 1.399 . S
C305 C304 1.394 . S
C305 C306 1.516 . S
C306 C305 1.516 . S
C306 C307 1.502 . S
C306 C308 1.561 . S
C306 C309 1.526 . S
C307 H291 0.959 . S
C307 H292 0.959 . S
C307 H293 0.961 . S
C307 C306 1.502 . S
C308 H294 0.960 . S
C308 H295 0.961 . S
C308 H296 0.959 . S
C308 C306 1.561 . S
C309 C306 1.526 . S
C309 C310 1.396 . S
C309 C314 1.390 . S
C310 C304 1.465 . S
C310 C309 1.396 . S
C310 C311 1.399 . S
C311 H297 0.929 . S
C311 C310 1.399 . S
C311 C312 1.385 . S
C312 H298 0.931 . S
C312 C311 1.385 . S
C312 C313 1.389 . S
C313 C312 1.389 . S
C313 C314 1.387 . S
C314 H299 0.930 . S
C314 C309 1.390 . S
C314 C313 1.387 . S
H315 C327 0.930 . S
H316 C329 0.930 . S
H317 C330 0.930 . S
H318 C334 0.959 . S
H319 C334 0.959 . S
H320 C334 0.961 . S
H321 C335 0.960 . S
H322 C335 0.961 . S
H323 C335 0.959 . S
H324 C338 0.929 . S
H325 C339 0.931 . S
H326 C341 0.930 . S
C327 H315 0.930 . S
C327 C328 1.399 . S
C327 C332 1.399 . S
C328 C327 1.399 . S
C328 C329 1.376 . S
C329 H316 0.930 . S
C329 C328 1.376 . S
C329 C330 1.388 . S
C330 H317 0.930 . S
C330 C329 1.388 . S
C330 C331 1.390 . S
C331 C330 1.390 . S
C331 C332 1.394 . S
C331 C337 1.465 . S
C332 C327 1.399 . S
C332 C331 1.394 . S
C332 C333 1.516 . S
C333 C332 1.516 . S
C333 C334 1.502 . S
C333 C335 1.561 . S
C333 C336 1.526 . S
C334 H318 0.959 . S
C334 H319 0.959 . S
C334 H320 0.961 . S
C334 C333 1.502 . S
C335 H321 0.960 . S
C335 H322 0.961 . S
C335 H323 0.959 . S
C335 C333 1.561 . S
C336 C333 1.526 . S
C336 C337 1.396 . S
C336 C341 1.390 . S
C337 C331 1.465 . S
C337 C336 1.396 . S
C337 C338 1.399 . S
C338 H324 0.929 . S
C338 C337 1.399 . S
C338 C339 1.385 . S
C339 H325 0.931 . S
C339 C338 1.385 . S
C339 C340 1.389 . S
C340 C339 1.389 . S
C340 C341 1.387 . S
C341 H326 0.930 . S
C341 C336 1.390 . S
C341 C340 1.387 . S
H342 C354 0.930 . S
H343 C356 0.930 . S
H344 C357 0.930 . S
H345 C361 0.959 . S
H346 C361 0.959 . S
H347 C361 0.961 1_455 S
H348 C362 0.960 . S
H349 C362 0.961 . S
H350 C362 0.959 . S
H351 C365 0.929 . S
H352 C366 0.931 . S
H353 C368 0.930 . S
C354 H342 0.930 . S
C354 C355 1.399 . S
C354 C359 1.399 . S
C355 C354 1.399 . S
C355 C356 1.376 . S
C356 H343 0.930 . S
C356 C355 1.376 . S
C356 C357 1.388 . S
C357 H344 0.930 . S
C357 C356 1.388 . S
C357 C358 1.390 . S
C358 C357 1.390 . S
C358 C359 1.394 . S
C358 C364 1.465 . S
C359 C354 1.399 . S
C359 C358 1.394 . S
C359 C360 1.516 . S
C360 C359 1.516 . S
C360 C361 1.502 . S
C360 C362 1.561 . S
C360 C363 1.526 . S
C361 H345 0.959 . S
C361 H346 0.959 . S
C361 H347 0.961 1_655 S
C361 C360 1.502 . S
C362 H348 0.960 . S
C362 H349 0.961 . S
C362 H350 0.959 . S
C362 C360 1.561 . S
C363 C360 1.526 . S
C363 C364 1.396 . S
C363 C368 1.390 . S
C364 C358 1.465 . S
C364 C363 1.396 . S
C364 C365 1.399 . S
C365 H351 0.929 . S
C365 C364 1.399 . S
C365 C366 1.385 . S
C366 H352 0.931 . S
C366 C365 1.385 . S
C366 C367 1.389 . S
C367 C366 1.389 . S
C367 C368 1.387 . S
C368 H353 0.930 . S
C368 C363 1.390 . S
C368 C367 1.387 . S
H369 C381 0.930 . S
H370 C383 0.930 . S
H371 C384 0.930 . S
H372 C388 0.959 . S
H373 C388 0.959 . S
H374 C388 0.961 . S
H375 C389 0.960 . S
H376 C389 0.961 . S
H377 C389 0.959 . S
H378 C392 0.929 . S
H379 C393 0.931 . S
H380 C395 0.930 . S
C381 H369 0.930 . S
C381 C382 1.399 . S
C381 C386 1.399 . S
C382 C381 1.399 . S
C382 C383 1.376 . S
C383 H370 0.930 . S
C383 C382 1.376 . S
C383 C384 1.388 . S
C384 H371 0.930 . S
C384 C383 1.388 . S
C384 C385 1.390 . S
C385 C384 1.390 . S
C385 C386 1.394 . S
C385 C391 1.465 . S
C386 C381 1.399 . S
C386 C385 1.394 . S
C386 C387 1.516 . S
C387 C386 1.516 . S
C387 C388 1.502 . S
C387 C389 1.561 . S
C387 C390 1.526 . S
C388 H372 0.959 . S
C388 H373 0.959 . S
C388 H374 0.961 . S
C388 C387 1.502 . S
C389 H375 0.960 . S
C389 H376 0.961 . S
C389 H377 0.959 . S
C389 C387 1.561 . S
C390 C387 1.526 . S
C390 C391 1.396 . S
C390 C395 1.390 . S
C391 C385 1.465 . S
C391 C390 1.396 . S
C391 C392 1.399 . S
C392 H378 0.929 . S
C392 C391 1.399 . S
C392 C393 1.385 . S
C393 H379 0.931 . S
C393 C392 1.385 . S
C393 C394 1.389 . S
C394 C393 1.389 . S
C394 C395 1.387 . S
C395 H380 0.930 . S
C395 C390 1.390 . S
C395 C394 1.387 . S
H396 C408 0.930 . S
H397 C410 0.930 . S
H398 C411 0.930 . S
H399 C415 0.959 . S
H400 C415 0.959 . S
H401 C415 0.961 . S
H402 C416 0.960 . S
H403 C416 0.961 . S
H404 C416 0.959 . S
H405 C419 0.929 . S
H406 C420 0.931 . S
H407 C422 0.930 . S
C408 H396 0.930 . S
C408 C409 1.399 . S
C408 C413 1.399 . S
C409 C408 1.399 . S
C409 C410 1.376 . S
C410 H397 0.930 . S
C410 C409 1.376 . S
C410 C411 1.388 . S
C411 H398 0.930 . S
C411 C410 1.388 . S
C411 C412 1.390 . S
C412 C411 1.390 . S
C412 C413 1.394 . S
C412 C418 1.465 . S
C413 C408 1.399 . S
C413 C412 1.394 . S
C413 C414 1.516 . S
C414 C413 1.516 . S
C414 C415 1.502 . S
C414 C416 1.561 . S
C414 C417 1.526 . S
C415 H399 0.959 . S
C415 H400 0.959 . S
C415 H401 0.961 . S
C415 C414 1.502 . S
C416 H402 0.960 . S
C416 H403 0.961 . S
C416 H404 0.959 . S
C416 C414 1.561 . S
C417 C414 1.526 . S
C417 C418 1.396 . S
C417 C422 1.390 . S
C418 C412 1.465 . S
C418 C417 1.396 . S
C418 C419 1.399 . S
C419 H405 0.929 . S
C419 C418 1.399 . S
C419 C420 1.385 . S
C420 H406 0.931 . S
C420 C419 1.385 . S
C420 C421 1.389 . S
C421 C420 1.389 . S
C421 C422 1.387 . S
C422 H407 0.930 . S
C422 C417 1.390 . S
C422 C421 1.387 . S
H423 C435 0.930 . S
H424 C437 0.930 . S
H425 C438 0.930 . S
H426 C442 0.959 . S
H427 C442 0.959 . S
H428 C442 0.961 . S
H429 C443 0.960 . S
H430 C443 0.961 . S
H431 C443 0.959 . S
H432 C446 0.929 . S
H433 C447 0.931 . S
H434 C449 0.930 . S
C435 H423 0.930 . S
C435 C436 1.399 . S
C435 C440 1.399 . S
C436 C435 1.399 . S
C436 C437 1.376 . S
C437 H424 0.930 . S
C437 C436 1.376 . S
C437 C438 1.388 . S
C438 H425 0.930 . S
C438 C437 1.388 . S
C438 C439 1.390 . S
C439 C438 1.390 . S
C439 C440 1.394 . S
C439 C445 1.465 . S
C440 C435 1.399 . S
C440 C439 1.394 . S
C440 C441 1.516 . S
C441 C440 1.516 . S
C441 C442 1.502 . S
C441 C443 1.561 . S
C441 C444 1.526 . S
C442 H426 0.959 . S
C442 H427 0.959 . S
C442 H428 0.961 . S
C442 C441 1.502 . S
C443 H429 0.960 . S
C443 H430 0.961 . S
C443 H431 0.959 . S
C443 C441 1.561 . S
C444 C441 1.526 . S
C444 C445 1.396 . S
C444 C449 1.390 . S
C445 C439 1.465 . S
C445 C444 1.396 . S
C445 C446 1.399 . S
C446 H432 0.929 . S
C446 C445 1.399 . S
C446 C447 1.385 . S
C447 H433 0.931 . S
C447 C446 1.385 . S
C447 C448 1.389 . S
C448 C447 1.389 . S
C448 C449 1.387 . S
C449 H434 0.930 . S
C449 C444 1.390 . S
C449 C448 1.387 . S
H450 C462 0.930 . S
H451 C464 0.930 . S
H452 C465 0.930 . S
H453 C469 0.959 . S
H454 C469 0.959 . S
H455 C469 0.961 . S
H456 C470 0.960 . S
H457 C470 0.961 . S
H458 C470 0.959 . S
H459 C473 0.929 . S
H460 C474 0.931 . S
H461 C476 0.930 . S
C462 H450 0.930 . S
C462 C463 1.399 . S
C462 C467 1.399 . S
C463 C462 1.399 . S
C463 C464 1.376 . S
C464 H451 0.930 . S
C464 C463 1.376 . S
C464 C465 1.388 . S
C465 H452 0.930 . S
C465 C464 1.388 . S
C465 C466 1.390 . S
C466 C465 1.390 . S
C466 C467 1.394 . S
C466 C472 1.465 . S
C467 C462 1.399 . S
C467 C466 1.394 . S
C467 C468 1.516 . S
C468 C467 1.516 . S
C468 C469 1.502 . S
C468 C470 1.561 . S
C468 C471 1.526 . S
C469 H453 0.959 . S
C469 H454 0.959 . S
C469 H455 0.961 . S
C469 C468 1.502 . S
C470 H456 0.960 . S
C470 H457 0.961 . S
C470 H458 0.959 . S
C470 C468 1.561 . S
C471 C468 1.526 . S
C471 C472 1.396 . S
C471 C476 1.390 . S
C472 C466 1.465 . S
C472 C471 1.396 . S
C472 C473 1.399 . S
C473 H459 0.929 . S
C473 C472 1.399 . S
C473 C474 1.385 . S
C474 H460 0.931 . S
C474 C473 1.385 . S
C474 C475 1.389 . S
C475 C474 1.389 . S
C475 C476 1.387 . S
C476 H461 0.930 . S
C476 C471 1.390 . S
C476 C475 1.387 . S
H477 C489 0.930 . S
H478 C491 0.930 . S
H479 C492 0.930 . S
H480 C496 0.959 . S
H481 C496 0.959 . S
H482 C496 0.955 1_655 S
H483 C497 0.960 . S
H484 C497 0.961 . S
H485 C497 0.959 . S
H486 C500 0.929 . S
H487 C501 0.931 . S
H488 C503 0.930 . S
C489 H477 0.930 . S
C489 C490 1.399 . S
C489 C494 1.399 1_655 S
C490 C489 1.399 . S
C490 C491 1.376 . S
C491 H478 0.930 . S
C491 C490 1.376 . S
C491 C492 1.388 1_655 S
C492 H479 0.930 . S
C492 C491 1.388 1_455 S
C492 C493 1.390 . S
C493 C492 1.390 . S
C493 C494 1.394 . S
C493 C499 1.465 . S
C494 C489 1.399 1_455 S
C494 C493 1.394 . S
C494 C495 1.516 . S
C495 C494 1.516 . S
C495 C496 1.502 . S
C495 C497 1.561 . S
C495 C498 1.526 . S
C496 H480 0.959 . S
C496 H481 0.959 . S
C496 H482 0.955 1_455 S
C496 C495 1.502 . S
C497 H483 0.960 . S
C497 H484 0.961 . S
C497 H485 0.959 . S
C497 C495 1.561 . S
C498 C495 1.526 . S
C498 C499 1.396 . S
C498 C503 1.390 . S
C499 C493 1.465 . S
C499 C498 1.396 . S
C499 C500 1.399 . S
C500 H486 0.929 . S
C500 C499 1.399 . S
C500 C501 1.385 . S
C501 H487 0.931 . S
C501 C500 1.385 . S
C501 C502 1.389 . S
C502 C501 1.389 . S
C502 C503 1.387 . S
C503 H488 0.930 . S
C503 C498 1.390 . S
C503 C502 1.387 . S
H504 C516 0.930 . S
H505 C518 0.930 . S
H506 C519 0.930 . S
H507 C523 0.959 . S
H508 C523 0.959 . S
H509 C523 0.965 . S
H510 C524 0.960 . S
H511 C524 0.961 . S
H512 C524 0.959 . S
H513 C527 0.929 . S
H514 C528 0.931 . S
H515 C530 0.930 . S
C516 H504 0.930 . S
C516 C517 1.399 . S
C516 C521 1.399 1_545 S
C517 C516 1.399 . S
C517 C518 1.376 . S
C518 H505 0.930 . S
C518 C517 1.376 . S
C518 C519 1.388 1_545 S
C519 H506 0.930 . S
C519 C518 1.388 1_565 S
C519 C520 1.390 . S
C520 C519 1.390 . S
C520 C521 1.394 . S
C520 C526 1.465 . S
C521 C516 1.399 1_565 S
C521 C520 1.394 . S
C521 C522 1.516 . S
C522 C521 1.516 . S
C522 C523 1.502 . S
C522 C524 1.561 . S
C522 C525 1.526 . S
C523 H507 0.959 . S
C523 H508 0.959 . S
C523 H509 0.965 . S
C523 C522 1.502 . S
C524 H510 0.960 . S
C524 H511 0.961 . S
C524 H512 0.959 . S
C524 C522 1.561 . S
C525 C522 1.526 . S
C525 C526 1.396 . S
C525 C530 1.390 . S
C526 C520 1.465 . S
C526 C525 1.396 . S
C526 C527 1.399 . S
C527 H513 0.929 . S
C527 C526 1.399 . S
C527 C528 1.385 . S
C528 H514 0.931 . S
C528 C527 1.385 . S
C528 C529 1.389 . S
C529 C528 1.389 . S
C529 C530 1.387 . S
C530 H515 0.930 . S
C530 C525 1.390 . S
C530 C529 1.387 . S
H531 C543 0.930 . S
H532 C545 0.930 . S
H533 C546 0.930 . S
H534 C550 0.959 . S
H535 C550 0.959 . S
H536 C550 0.961 . S
H537 C551 0.960 . S
H538 C551 0.961 . S
H539 C551 0.959 . S
H540 C554 0.929 . S
H541 C555 0.931 . S
H542 C557 0.930 . S
C543 H531 0.930 . S
C543 C544 1.399 . S
C543 C548 1.399 . S
C544 C543 1.399 . S
C544 C545 1.376 . S
C545 H532 0.930 . S
C545 C544 1.376 . S
C545 C546 1.388 . S
C546 H533 0.930 . S
C546 C545 1.388 . S
C546 C547 1.390 . S
C547 C546 1.390 . S
C547 C548 1.394 . S
C547 C553 1.465 . S
C548 C543 1.399 . S
C548 C547 1.394 . S
C548 C549 1.516 . S
C549 C548 1.516 . S
C549 C550 1.502 . S
C549 C551 1.561 . S
C549 C552 1.526 . S
C550 H534 0.959 . S
C550 H535 0.959 . S
C550 H536 0.961 . S
C550 C549 1.502 . S
C551 H537 0.960 . S
C551 H538 0.961 . S
C551 H539 0.959 . S
C551 C549 1.561 . S
C552 C549 1.526 . S
C552 C553 1.396 . S
C552 C557 1.390 . S
C553 C547 1.465 . S
C553 C552 1.396 . S
C553 C554 1.399 . S
C554 H540 0.929 . S
C554 C553 1.399 . S
C554 C555 1.385 . S
C555 H541 0.931 . S
C555 C554 1.385 . S
C555 C556 1.389 . S
C556 C555 1.389 . S
C556 C557 1.387 . S
C557 H542 0.930 . S
C557 C552 1.390 . S
C557 C556 1.387 . S
H558 C570 0.930 . S
H559 C572 0.930 . S
H560 C573 0.930 . S
H561 C577 0.959 . S
H562 C577 0.959 . S
H563 C577 0.956 1_455 S
H564 C578 0.960 . S
H565 C578 0.961 . S
H566 C578 0.959 . S
H567 C581 0.929 . S
H568 C582 0.931 . S
H569 C584 0.930 . S
C570 H558 0.930 . S
C570 C571 1.399 . S
C570 C575 1.399 1_455 S
C571 C570 1.399 . S
C571 C572 1.376 . S
C572 H559 0.930 . S
C572 C571 1.376 . S
C572 C573 1.388 1_455 S
C573 H560 0.930 . S
C573 C572 1.388 1_655 S
C573 C574 1.390 . S
C574 C573 1.390 . S
C574 C575 1.394 . S
C574 C580 1.465 . S
C575 C570 1.399 1_655 S
C575 C574 1.394 . S
C575 C576 1.516 . S
C576 C575 1.516 . S
C576 C577 1.502 . S
C576 C578 1.561 . S
C576 C579 1.526 . S
C577 H561 0.959 . S
C577 H562 0.959 . S
C577 H563 0.956 1_655 S
C577 C576 1.502 . S
C578 H564 0.960 . S
C578 H565 0.961 . S
C578 H566 0.959 . S
C578 C576 1.561 . S
C579 C576 1.526 . S
C579 C580 1.396 . S
C579 C584 1.390 . S
C580 C574 1.465 . S
C580 C579 1.396 . S
C580 C581 1.399 . S
C581 H567 0.929 . S
C581 C580 1.399 . S
C581 C582 1.385 . S
C582 H568 0.931 . S
C582 C581 1.385 . S
C582 C583 1.389 . S
C583 C582 1.389 . S
C583 C584 1.387 . S
C584 H569 0.930 . S
C584 C579 1.390 . S
C584 C583 1.387 . S
H585 C597 0.930 . S
H586 C599 0.930 . S
H587 C600 0.930 . S
H588 C604 0.959 . S
H589 C604 0.959 . S
H590 C604 0.961 . S
H591 C605 0.960 . S
H592 C605 0.961 . S
H593 C605 0.959 . S
H594 C608 0.929 . S
H595 C609 0.931 . S
H596 C611 0.930 . S
C597 H585 0.930 . S
C597 C598 1.399 . S
C597 C602 1.399 . S
C598 C597 1.399 . S
C598 C599 1.376 . S
C599 H586 0.930 . S
C599 C598 1.376 . S
C599 C600 1.388 . S
C600 H587 0.930 . S
C600 C599 1.388 . S
C600 C601 1.390 . S
C601 C600 1.390 . S
C601 C602 1.394 . S
C601 C607 1.465 . S
C602 C597 1.399 . S
C602 C601 1.394 . S
C602 C603 1.516 . S
C603 C602 1.516 . S
C603 C604 1.502 . S
C603 C605 1.561 . S
C603 C606 1.526 . S
C604 H588 0.959 . S
C604 H589 0.959 . S
C604 H590 0.961 . S
C604 C603 1.502 . S
C605 H591 0.960 . S
C605 H592 0.961 . S
C605 H593 0.959 . S
C605 C603 1.561 . S
C606 C603 1.526 . S
C606 C607 1.396 . S
C606 C611 1.390 1_545 S
C607 C601 1.465 . S
C607 C606 1.396 . S
C607 C608 1.399 1_545 S
C608 H594 0.929 . S
C608 C607 1.399 1_565 S
C608 C609 1.385 . S
C609 H595 0.931 . S
C609 C608 1.385 . S
C609 C610 1.389 . S
C610 C609 1.389 . S
C610 C611 1.387 . S
C611 H596 0.930 . S
C611 C606 1.390 1_565 S
C611 C610 1.387 . S
C139 C88 1.467 . S
C151 C7 1.478 . S
C166 C112 1.496 . S
C178 C25 1.439 . S
C193 C49 1.479 . S
C205 C70 1.479 . S
C220 C4 1.532 . S
C232 C91 1.499 . S
C247 C109 1.348 . S
C259 C28 1.354 . S
C274 C46 1.507 . S
C286 C67 1.442 . S
C301 C3 1.066 . S
C313 C62 1.167 . S
C328 C24 0.843 . S
C340 C20 1.072 . S
C355 C45 0.869 . S
C367 C41 1.061 . S
C382 C66 1.065 . S
C394 C103 1.174 . S
C409 C100 1.066 . S
C421 C124 1.168 . S
C436 C83 1.104 . S
C448 C121 1.007 . S
C463 C19 0.929 . S
C475 C58 0.913 . S
C490 C40 1.004 . S
C502 C16 0.834 . S
C517 C61 0.998 . S
C529 C37 0.822 . S
C544 C82 1.008 . S
C556 C87 0.841 . S
C571 C104 1.025 . S
C583 C108 0.877 . S
C598 C79 0.966 . S
C610 C125 0.978 . S
