# Generated by pormake.
# Topology afw, (4)-cn, num edge types: 1
# Building blocks:
#     Node 0, Type 0, BuildingBlock: KUFVIS_clean_sbu_0, # of connection points: 4
#     Node 1, Type 0, BuildingBlock: KUFVIS_clean_sbu_0, # of connection points: 4
#     Node 2, Type 0, BuildingBlock: KUFVIS_clean_sbu_0, # of connection points: 4
#     Node 3, Type 0, BuildingBlock: KUFVIS_clean_sbu_0, # of connection points: 4
#     Node 4, Type 0, BuildingBlock: KUFVIS_clean_sbu_0, # of connection points: 4
#     Node 5, Type 0, BuildingBlock: KUFVIS_clean_sbu_0, # of connection points: 4
#     Node 6, Type 0, BuildingBlock: KUFVIS_clean_sbu_0, # of connection points: 4
#     Node 7, Type 0, BuildingBlock: KUFVIS_clean_sbu_0, # of connection points: 4
#     Node 8, Type 0, BuildingBlock: KUFVIS_clean_sbu_0, # of connection points: 4
#     Edge 9, Type (0, 0), BuildingBlock: TEMPAE_clean_linker_10, # of connection points: 2
#     Edge 10, Type (0, 0), BuildingBlock: TEMPAE_clean_linker_10, # of connection points: 2
#     Edge 11, Type (0, 0), BuildingBlock: TEMPAE_clean_linker_10, # of connection points: 2
#     Edge 12, Type (0, 0), BuildingBlock: TEMPAE_clean_linker_10, # of connection points: 2
#     Edge 13, Type (0, 0), BuildingBlock: TEMPAE_clean_linker_10, # of connection points: 2
#     Edge 14, Type (0, 0), BuildingBlock: TEMPAE_clean_linker_10, # of connection points: 2
#     Edge 15, Type (0, 0), BuildingBlock: TEMPAE_clean_linker_10, # of connection points: 2
#     Edge 16, Type (0, 0), BuildingBlock: TEMPAE_clean_linker_10, # of connection points: 2
#     Edge 17, Type (0, 0), BuildingBlock: TEMPAE_clean_linker_10, # of connection points: 2
#     Edge 18, Type (0, 0), BuildingBlock: TEMPAE_clean_linker_10, # of connection points: 2
#     Edge 19, Type (0, 0), BuildingBlock: TEMPAE_clean_linker_10, # of connection points: 2
#     Edge 20, Type (0, 0), BuildingBlock: TEMPAE_clean_linker_10, # of connection points: 2
#     Edge 21, Type (0, 0), BuildingBlock: TEMPAE_clean_linker_10, # of connection points: 2
#     Edge 22, Type (0, 0), BuildingBlock: TEMPAE_clean_linker_10, # of connection points: 2
#     Edge 23, Type (0, 0), BuildingBlock: TEMPAE_clean_linker_10, # of connection points: 2
#     Edge 24, Type (0, 0), BuildingBlock: TEMPAE_clean_linker_10, # of connection points: 2
#     Edge 25, Type (0, 0), BuildingBlock: TEMPAE_clean_linker_10, # of connection points: 2
#     Edge 26, Type (0, 0), BuildingBlock: TEMPAE_clean_linker_10, # of connection points: 2
# Relax obj value: 0.208
# Max RMSD: 0.226
# Mean RMSD: 0.211
data_MOF--net-afw--node1-KUFVIS_clean_sbu_0--edge1-TEMPAE_clean_linker_10
_symmetry_space_group_name_H-M    P1
_symmetry_Int_Tables_number       1
_symmetry_cell_setting            triclinic
loop_
_symmetry_equiv_pos_as_xyz
'x, y, z'
_cell_length_a     41.821868
_cell_length_b     43.347793
_cell_length_c     32.747864
_cell_angle_alpha  91.121791
_cell_angle_beta   90.261729
_cell_angle_gamma 119.34793
loop_
_atom_site_label
_atom_site_type_symbol
_atom_site_fract_x
_atom_site_fract_y
_atom_site_fract_z
_atom_type_partial_charge
Mn0 Mn 0.02357 0.20099 0.01756 0.0
Mn1 Mn 0.10744 0.26748 0.04468 0.0
C2 C 0.07508 0.19611 0.00461 0.0
C3 C 0.97111 0.14819 0.03242 0.0
C4 C 0.06421 0.26983 0.97125 0.0
O5 O 0.01201 0.22954 0.05834 0.0
O6 O 0.06931 0.27176 0.07683 0.0
C7 C 0.11151 0.2485 0.13018 0.0
N8 N 0.12544 0.25514 0.09184 0.0
C9 C 0.17554 0.24602 0.11208 0.0
C10 C 0.16188 0.23939 0.15185 0.0
C11 C 0.12969 0.24056 0.16091 0.0
C12 C 0.15649 0.25421 0.08283 0.0
H13 H 0.08666 0.24917 0.13724 0.0
C14 C 0.03424 0.25668 0.0797 0.0
O15 O 0.97059 0.1687 0.00429 0.0
O16 O 0.00154 0.15926 0.05287 0.0
N17 N 0.14627 0.26541 0.0162 0.0
C18 C 0.1538 0.26908 0.97558 0.0
C19 C 0.18393 0.26649 0.96096 0.0
C20 C 0.206 0.26018 0.98821 0.0
C21 C 0.19769 0.25645 0.02987 0.0
C22 C 0.16744 0.25949 0.04272 0.0
H23 H 0.13663 0.27342 0.95442 0.0
O24 O 0.04514 0.17753 0.98332 0.0
O25 O 0.07402 0.21737 0.03242 0.0
O26 O 0.03643 0.23922 0.97521 0.0
O27 O 0.09205 0.28278 0.99544 0.0
C28 C 0.2177 0.24897 0.05896 0.0
C29 C 0.20668 0.24383 0.10005 0.0
H30 H 0.1756 0.23288 0.17553 0.0
H31 H 0.11884 0.23522 0.19146 0.0
H32 H 0.18998 0.26911 0.92871 0.0
H33 H 0.22898 0.25782 0.97675 0.0
H34 H 0.24131 0.24661 0.04993 0.0
H35 H 0.22192 0.23748 0.12198 0.0
Mn36 Mn 0.82126 0.82914 0.01915 0.0
Mn37 Mn 0.82501 0.76043 0.97441 0.0
C38 C 0.87148 0.82087 0.02992 0.0
C39 C 0.83343 0.88754 0.0168 0.0
C40 C 0.77726 0.75314 0.04735 0.0
O41 O 0.78221 0.81324 0.97432 0.0
O42 O 0.79115 0.77121 0.94322 0.0
C43 C 0.861 0.7951 0.89785 0.0
N44 N 0.86045 0.77746 0.93204 0.0
C45 C 0.91562 0.77704 0.91258 0.0
C46 C 0.91653 0.79478 0.87689 0.0
C47 C 0.88925 0.8041 0.86967 0.0
C48 C 0.88713 0.76928 0.93984 0.0
H49 H 0.84012 0.80234 0.89221 0.0
C50 C 0.77597 0.79066 0.94549 0.0
O51 O 0.80863 0.86516 0.04087 0.0
O52 O 0.85019 0.87562 0.99361 0.0
N53 N 0.85757 0.74781 0.0013 0.0
C54 C 0.85371 0.73217 0.038 0.0
C55 C 0.87924 0.72186 0.05029 0.0
C56 C 0.90828 0.72745 0.02457 0.0
C57 C 0.91161 0.74344 0.98687 0.0
C58 C 0.8854 0.75325 0.97631 0.0
H59 H 0.83154 0.72786 0.05793 0.0
O60 O 0.86447 0.83988 0.05557 0.0
O61 O 0.84891 0.80756 -0.00077 0.0
O62 O 0.78774 0.78601 0.05229 0.0
O63 O 0.78873 0.74073 0.01868 0.0
C64 C 0.9398 0.7499 0.95927 0.0
C65 C 0.94187 0.76677 0.9222 0.0
H66 H 0.93815 0.80156 0.85496 0.0
H67 H 0.88991 0.81805 0.84236 0.0
H68 H 0.87654 0.70965 0.07951 0.0
H69 H 0.92795 0.7195 0.03416 0.0
H70 H 0.96024 0.74226 0.96642 0.0
H71 H 0.96397 0.772 0.90145 0.0
Mn72 Mn 0.19289 0.99075 0.02054 0.0
Mn73 Mn 0.18617 0.91763 0.06273 0.0
C74 C 0.14009 0.9367 0.01206 0.0
C75 C 0.18506 0.04007 0.02342 0.0
C76 C 0.22984 0.95022 0.98667 0.0
O77 O 0.23408 0.01109 0.06302 0.0
O78 O 0.22518 0.9605 0.09141 0.0
C79 C 0.15857 0.92506 0.14338 0.0
N80 N 0.15425 0.90584 0.10836 0.0
C81 C 0.09626 0.85882 0.13047 0.0
C82 C 0.10024 0.87797 0.16692 0.0
C83 C 0.13147 0.91131 0.17331 0.0
C84 C 0.12403 0.87399 0.10163 0.0
H85 H 0.18244 0.95076 0.14837 0.0
C86 C 0.24181 0.99434 0.08941 0.0
O87 O 0.20839 0.03851 0.99862 0.0
O88 O 0.16765 0.01383 0.04765 0.0
N89 N 0.14883 0.87437 0.03805 0.0
C90 C 0.14884 0.85952 0.00098 0.0
C91 C 0.11932 0.8262 0.98971 0.0
C92 C 0.09032 0.80837 0.01679 0.0
C93 C 0.09119 0.82395 0.055 0.0
C94 C 0.12135 0.85716 0.0646 0.0
H95 H 0.17112 0.87301 0.9801 0.0
O96 O 0.14769 0.96169 0.98634 0.0
O97 O 0.16377 0.94427 0.04142 0.0
O98 O 0.22218 0.97518 0.98481 0.0
O99 O 0.21848 0.92746 0.01495 0.0
C100 C 0.06333 0.80783 0.08395 0.0
C101 C 0.06577 0.82531 0.12159 0.0
H102 H 0.07942 0.86742 0.19012 0.0
H103 H 0.13465 0.92635 0.20126 0.0
H104 H 0.11891 0.81432 0.9602 0.0
H105 H 0.06752 0.78276 0.00792 0.0
H106 H 0.03981 0.78203 0.07751 0.0
H107 H 0.04398 0.81279 0.14343 0.0
Mn108 Mn 0.67258 0.53735 0.32773 0.0
Mn109 Mn 0.75018 0.60827 0.36247 0.0
C110 C 0.72958 0.54488 0.30938 0.0
C111 C 0.62667 0.47899 0.33731 0.0
C112 C 0.7022 0.61136 0.29438 0.0
O113 O 0.65496 0.55562 0.37531 0.0
O114 O 0.70942 0.59885 0.39967 0.0
C115 C 0.76081 0.57867 0.43883 0.0
N116 N 0.7736 0.59395 0.40218 0.0
C117 C 0.83176 0.59681 0.41438 0.0
C118 C 0.81932 0.58132 0.45238 0.0
C119 C 0.78358 0.57196 0.46451 0.0
C120 C 0.80756 0.60216 0.38974 0.0
H121 H 0.73348 0.57171 0.44843 0.0
C122 C 0.67461 0.57926 0.40214 0.0
O123 O 0.62132 0.49959 0.31321 0.0
O124 O 0.65803 0.4927 0.35634 0.0
N125 N 0.79217 0.61988 0.3296 0.0
C126 C 0.79984 0.63408 0.29175 0.0
C127 C 0.8344 0.64454 0.27493 0.0
C128 C 0.86087 0.64069 0.29737 0.0
C129 C 0.85249 0.62633 0.3364 0.0
C130 C 0.81754 0.61623 0.35151 0.0
H131 H 0.77976 0.63729 0.2744 0.0
O132 O 0.70049 0.52455 0.28757 0.0
O133 O 0.72404 0.55998 0.3409 0.0
O134 O 0.67889 0.57835 0.29242 0.0
O135 O 0.7285 0.62511 0.32069 0.0
C136 C 0.87759 0.62195 0.36105 0.0
C137 C 0.86725 0.60731 0.40007 0.0
H138 H 0.83694 0.57643 0.47242 0.0
H139 H 0.77372 0.55987 0.49372 0.0
H140 H 0.84064 0.65562 0.24479 0.0
H141 H 0.88751 0.64882 0.28433 0.0
H142 H 0.90486 0.62961 0.35024 0.0
H143 H 0.88674 0.60393 0.41869 0.0
Mn144 Mn 0.50271 0.16405 0.35022 0.0
Mn145 Mn 0.5183 0.09877 0.31621 0.0
C146 C 0.56007 0.16916 0.35808 0.0
C147 C 0.50329 0.21731 0.33837 0.0
C148 C 0.47604 0.09396 0.39336 0.0
O149 O 0.45995 0.13599 0.31107 0.0
O150 O 0.47483 0.09552 0.28705 0.0
C151 C 0.53852 0.12038 0.23078 0.0
N152 N 0.54708 0.11257 0.26795 0.0
C153 C 0.60542 0.1219 0.24404 0.0
C154 C 0.59706 0.12968 0.20539 0.0
C155 C 0.56351 0.12902 0.19879 0.0
C156 C 0.57926 0.11306 0.27463 0.0
H157 H 0.51287 0.12009 0.22561 0.0
C158 C 0.45444 0.11004 0.28738 0.0
O159 O 0.48357 0.19661 0.3672 0.0
O160 O 0.52107 0.20621 0.31575 0.0
N161 N 0.56021 0.10005 0.34179 0.0
C162 C 0.56548 0.09515 0.38171 0.0
C163 C 0.59867 0.09719 0.39406 0.0
C164 C 0.62605 0.10417 0.36527 0.0
C165 C 0.62 0.10912 0.32437 0.0
C166 C 0.58632 0.10664 0.31381 0.0
H167 H 0.5447 0.09015 0.40405 0.0
O168 O 0.55008 0.1872 0.3817 0.0
O169 O 0.5359 0.14833 0.33109 0.0
O170 O 0.4793 0.1248 0.39228 0.0
O171 O 0.48923 0.08194 0.36625 0.0
C172 C 0.6464 0.11721 0.29386 0.0
C173 C 0.6391 0.12354 0.25371 0.0
H174 H 0.61643 0.13673 0.18076 0.0
H175 H 0.557 0.13529 0.16914 0.0
H176 H 0.60322 0.09358 0.42575 0.0
H177 H 0.65175 0.10604 0.37499 0.0
H178 H 0.67261 0.11911 0.30109 0.0
H179 H 0.65987 0.13035 0.2307 0.0
Mn180 Mn 0.88263 0.37667 0.32731 0.0
Mn181 Mn 0.94946 0.45089 0.2861 0.0
C182 C 0.88004 0.4285 0.32977 0.0
C183 C 0.8269 0.3248 0.32334 0.0
C184 C 0.95727 0.42412 0.36806 0.0
O185 O 0.9084 0.35759 0.29088 0.0
O186 O 0.95089 0.4087 0.26368 0.0
C187 C 0.91906 0.43635 0.20166 0.0
N188 N 0.9309 0.45784 0.23567 0.0
C189 C 0.91708 0.49991 0.20468 0.0
C190 C 0.90514 0.47843 0.16917 0.0
C191 C 0.906 0.44644 0.16773 0.0
C192 C 0.92957 0.48837 0.23763 0.0
H193 H 0.91936 0.4116 0.2005 0.0
C194 C 0.9351 0.375 0.26708 0.0
O195 O 0.85129 0.32938 0.35096 0.0
O196 O 0.83567 0.34935 0.29673 0.0
N197 N 0.95087 0.49373 0.30459 0.0
C198 C 0.96359 0.51156 0.34102 0.0
C199 C 0.96461 0.54418 0.34738 0.0
C200 C 0.95306 0.55835 0.31608 0.0
C201 C 0.94089 0.53991 0.27855 0.0
C202 C 0.94059 0.50759 0.27392 0.0
H203 H 0.97274 0.50094 0.36512 0.0
O204 O 0.86179 0.40385 0.35561 0.0
O205 O 0.89888 0.42189 0.30324 0.0
O206 O 0.92554 0.39688 0.36727 0.0
O207 O 0.96978 0.446 0.33893 0.0
C208 C 0.92925 0.55244 0.24547 0.0
C209 C 0.91701 0.5323 0.2087 0.0
H210 H 0.8951 0.48615 0.14291 0.0
H211 H 0.89658 0.42957 0.14054 0.0
H212 H 0.97423 0.55834 0.37637 0.0
H213 H 0.95371 0.58343 0.32117 0.0
H214 H 0.92951 0.57751 0.24802 0.0
H215 H 0.90769 0.54202 0.18366 0.0
Mn216 Mn 0.34982 0.86656 0.67365 0.0
Mn217 Mn 0.4316 0.93168 0.7085 0.0
C218 C 0.4028 0.86479 0.65904 0.0
C219 C 0.29865 0.81118 0.68497 0.0
C220 C 0.38998 0.93977 0.63669 0.0
O221 O 0.33594 0.89074 0.7182 0.0
O222 O 0.39201 0.93003 0.74352 0.0
C223 C 0.43602 0.90425 0.78922 0.0
N224 N 0.45015 0.91536 0.75153 0.0
C225 C 0.50117 0.90597 0.76605 0.0
C226 C 0.48732 0.89474 0.80514 0.0
C227 C 0.45458 0.89383 0.81673 0.0
C228 C 0.48179 0.91657 0.74015 0.0
H229 H 0.41073 0.90326 0.79819 0.0
C230 C 0.35683 0.91435 0.74446 0.0
O231 O 0.29706 0.83254 0.65868 0.0
O232 O 0.32914 0.82268 0.70522 0.0
N233 N 0.47164 0.93471 0.6773 0.0
C234 C 0.47967 0.94341 0.63744 0.0
C235 C 0.51046 0.94358 0.62029 0.0
C236 C 0.53268 0.93485 0.64426 0.0
C237 C 0.52392 0.92606 0.68522 0.0
C238 C 0.49303 0.92658 0.70074 0.0
H239 H 0.46253 0.94981 0.61872 0.0
O240 O 0.37356 0.84708 0.63642 0.0
O241 O 0.39999 0.88312 0.68922 0.0
O242 O 0.36313 0.90807 0.63528 0.0
O243 O 0.41558 0.95095 0.66375 0.0
C244 C 0.54413 0.916 0.71094 0.0
C245 C 0.53283 0.90605 0.75136 0.0
H246 H 0.5013 0.88625 0.82626 0.0
H247 H 0.44357 0.88492 0.84673 0.0
H248 H 0.51693 0.95022 0.5886 0.0
H249 H 0.55619 0.93465 0.6308 0.0
H250 H 0.56815 0.91537 0.69978 0.0
H251 H 0.54827 0.89783 0.77063 0.0
Mn252 Mn 0.15234 0.48971 0.6934 0.0
Mn253 Mn 0.15501 0.41936 0.6519 0.0
C254 C 0.20247 0.48153 0.70487 0.0
C255 C 0.16498 0.54829 0.68666 0.0
C256 C 0.10901 0.41491 0.72543 0.0
O257 O 0.11278 0.47216 0.64892 0.0
O258 O 0.12198 0.42995 0.61899 0.0
C259 C 0.19136 0.45064 0.57422 0.0
N260 N 0.19069 0.43459 0.6098 0.0
C261 C 0.2461 0.43359 0.5929 0.0
C262 C 0.24729 0.44995 0.55599 0.0
C263 C 0.21991 0.4587 0.54673 0.0
C264 C 0.2173 0.42672 0.61937 0.0
H265 H 0.17026 0.45724 0.56688 0.0
C266 C 0.10686 0.44945 0.62028 0.0
O267 O 0.14071 0.52742 0.71231 0.0
O268 O 0.18096 0.53481 0.66472 0.0
N269 N 0.1869 0.40699 0.68077 0.0
C270 C 0.18235 0.39212 0.7181 0.0
C271 C 0.20773 0.38224 0.73218 0.0
C272 C 0.23727 0.38735 0.70759 0.0
C273 C 0.24117 0.40235 0.66913 0.0
C274 C 0.21509 0.41178 0.65675 0.0
H275 H 0.15958 0.3878 0.73705 0.0
O276 O 0.19624 0.50189 0.72927 0.0
O277 O 0.17929 0.4671 0.67492 0.0
O278 O 0.11986 0.44799 0.72954 0.0
O279 O 0.11875 0.40168 0.69599 0.0
C280 C 0.26985 0.40818 0.64252 0.0
C281 C 0.27231 0.42379 0.60444 0.0
H282 H 0.26915 0.45599 0.53459 0.0
H283 H 0.22072 0.47144 0.51837 0.0
H284 H 0.20447 0.37063 0.76189 0.0
H285 H 0.25681 0.37972 0.71856 0.0
H286 H 0.2903 0.40095 0.65116 0.0
H287 H 0.29462 0.42834 0.58434 0.0
Mn288 Mn 0.51916 0.65951 0.67836 0.0
Mn289 Mn 0.51826 0.5929 0.73066 0.0
C290 C 0.46821 0.6039 0.67663 0.0
C291 C 0.50961 0.70743 0.6737 0.0
C292 C 0.55723 0.61821 0.65057 0.0
O293 O 0.56138 0.68562 0.71865 0.0
O294 O 0.5573 0.6392 0.7528 0.0
C295 C 0.49429 0.60806 0.80992 0.0
N296 N 0.48887 0.58536 0.77793 0.0
C297 C 0.43332 0.54004 0.80712 0.0
C298 C 0.43844 0.56285 0.84048 0.0
C299 C 0.469 0.59705 0.84181 0.0
C300 C 0.45931 0.55255 0.77612 0.0
H301 H 0.51766 0.63442 0.81106 0.0
C302 C 0.57167 0.67252 0.74699 0.0
O303 O 0.53234 0.70403 0.64971 0.0
O304 O 0.49316 0.68359 0.70098 0.0
N305 N 0.48104 0.5467 0.71276 0.0
C306 C 0.47972 0.52813 0.67812 0.0
C307 C 0.45066 0.49344 0.672 0.0
C308 C 0.4235 0.4781 0.70168 0.0
C309 C 0.42574 0.49754 0.73734 0.0
C310 C 0.45537 0.53196 0.74183 0.0
H311 H 0.50056 0.53971 0.65524 0.0
O312 O 0.47346 0.62573 0.64752 0.0
O313 O 0.49287 0.61539 0.70546 0.0
O314 O 0.54866 0.64231 0.64595 0.0
O315 O 0.54791 0.59823 0.6815 0.0
C316 C 0.39976 0.4841 0.76862 0.0
C317 C 0.40339 0.50542 0.80335 0.0
H318 H 0.41901 0.55444 0.86516 0.0
H319 H 0.47306 0.61488 0.86736 0.0
H320 H 0.44916 0.47859 0.64442 0.0
H321 H 0.40102 0.45141 0.69675 0.0
H322 H 0.37676 0.45745 0.7662 0.0
H323 H 0.38297 0.49493 0.82696 0.0
C324 C 0.20146 0.10337 0.01503 0.0
C325 C 0.17499 0.068 0.0207 0.0
C326 C 0.19114 0.12963 0.01184 0.0
C327 C 0.15346 0.11976 0.01289 0.0
C328 C 0.1267 0.0838 0.01754 0.0
C329 C 0.13789 0.0585 0.02223 0.0
C330 C 0.22054 0.16785 0.00885 0.0
C331 C 0.08613 0.07191 0.01747 0.0
C332 C 0.11231 0.17663 0.0441 0.0
C333 C 0.10219 0.18389 0.00622 0.0
C334 C 0.13268 0.15899 0.04661 0.0
C335 C 0.14128 0.14658 0.01032 0.0
C336 C 0.13226 0.15495 0.97187 0.0
C337 C 0.11277 0.17363 0.9703 0.0
C338 C 0.14279 0.15147 0.08812 0.0
C339 C 0.14049 0.14171 0.93253 0.0
H340 H 0.23019 0.11056 0.01403 0.0
H341 H 0.11745 0.03097 0.02598 0.0
H342 H 0.21263 0.18211 0.98677 0.0
H343 H 0.22429 0.18115 0.03918 0.0
H344 H 0.24726 0.17037 -0.00025 0.0
H345 H 0.06891 0.04265 0.01835 0.0
H346 H 0.07956 0.08362 0.04437 0.0
H347 H 0.07847 0.08128 0.98974 0.0
H348 H 0.10269 0.18314 0.07189 0.0
H349 H 0.10424 0.17869 0.94104 0.0
H350 H 0.17236 0.15941 0.08929 0.0
H351 H 0.12706 0.12267 0.09372 0.0
H352 H 0.137 0.16564 0.11311 0.0
H353 H 0.16942 0.14746 0.93249 0.0
H354 H 0.13549 0.15379 0.90535 0.0
H355 H 0.1228 0.11254 0.92981 0.0
C356 C 0.82775 0.93926 0.04381 0.0
C357 C 0.84461 0.92564 0.01775 0.0
C358 C 0.84138 0.97599 0.04798 0.0
C359 C 0.87282 0.99941 0.02603 0.0
C360 C 0.88882 0.98562 0.99832 0.0
C361 C 0.87438 0.94896 0.99435 0.0
C362 C 0.82318 0.9897 0.07721 0.0
C363 C 0.92251 0.00962 0.97441 0.0
C364 C 0.91029 0.09734 0.01027 0.0
C365 C 0.9406 0.11171 0.03719 0.0
C366 C 0.88557 0.06075 0.00881 0.0
C367 C 0.8917 0.03822 0.03455 0.0
C368 C 0.92033 0.05306 0.06424 0.0
C369 C 0.94431 0.08965 0.06534 0.0
C370 C 0.85477 0.04599 0.97747 0.0
C371 C 0.92787 0.03005 0.09233 0.0
H372 H 0.80457 0.92134 0.06179 0.0
H373 H 0.88747 0.93867 0.97398 0.0
H374 H 0.84052 0.00076 0.10518 0.0
H375 H 0.82024 0.01137 0.06339 0.0
H376 H 0.79568 0.96848 0.0863 0.0
H377 H 0.93041 0.99466 0.95259 0.0
H378 H 0.91772 0.02875 0.95707 0.0
H379 H 0.94595 0.02514 0.99578 0.0
H380 H 0.90702 0.11429 0.98871 0.0
H381 H 0.96741 0.10061 0.08661 0.0
H382 H 0.82924 0.02458 0.99049 0.0
H383 H 0.8623 0.0344 0.95123 0.0
H384 H 0.84916 0.06682 0.96586 0.0
H385 H 0.90222 0.01014 0.10666 0.0
H386 H 0.94813 0.04579 0.11686 0.0
H387 H 0.93886 0.01544 0.07432 0.0
C388 C 0.93082 0.85217 0.99617 0.0
C389 C 0.90944 0.82838 0.02585 0.0
C390 C 0.96852 0.86434 0.9944 0.0
C391 C 0.98469 0.85048 0.02132 0.0
C392 C 0.96242 0.82429 0.04933 0.0
C393 C 0.92524 0.8148 0.05264 0.0
C394 C 0.99124 0.89372 0.96555 0.0
C395 C 0.9778 0.80635 0.07556 0.0
C396 C 0.08261 0.88281 0.98919 0.0
C397 C 0.10165 0.9103 0.0177 0.0
C398 C 0.04476 0.86009 0.99298 0.0
C399 C 0.02534 0.86729 0.02363 0.0
C400 C 0.04489 0.89501 0.05279 0.0
C401 C 0.08303 0.91547 0.0501 0.0
C402 C 0.02553 0.82877 0.964 0.0
C403 C 0.02545 0.90515 0.08468 0.0
H404 H 0.91833 0.86288 0.97585 0.0
H405 H 0.90852 0.79663 0.07581 0.0
H406 H 0.01351 0.91651 0.98276 0.0
H407 H 0.00432 0.88446 0.94269 0.0
H408 H 0.9746 0.90318 0.94892 0.0
H409 H 0.9566 0.78585 0.09497 0.0
H410 H 0.98954 0.79359 0.05558 0.0
H411 H 0.00026 0.82602 0.09554 0.0
H412 H 0.0973 0.87912 0.96409 0.0
H413 H 0.09808 0.93724 0.07177 0.0
H414 H 0.00456 0.83108 0.94561 0.0
H415 H 0.01129 0.80437 0.98194 0.0
H416 H 0.04482 0.82605 0.94295 0.0
H417 H 0.00599 0.91197 0.06954 0.0
H418 H 0.04483 0.92814 0.10413 0.0
H419 H 0.00927 0.88262 0.10478 0.0
C420 C 0.84646 0.44968 0.28758 0.0
C421 C 0.86846 0.45458 0.322 0.0
C422 C 0.82867 0.46962 0.28304 0.0
C423 C 0.83501 0.49646 0.31253 0.0
C424 C 0.85999 0.50345 0.34537 0.0
C425 C 0.8751 0.48123 0.35081 0.0
C426 C 0.8004 0.45942 0.24913 0.0
C427 C 0.87033 0.53401 0.37495 0.0
C428 C 0.78835 0.54969 0.2847 0.0
C429 C 0.75871 0.53557 0.31116 0.0
C430 C 0.8153 0.53932 0.28694 0.0
C431 C 0.81025 0.51189 0.31346 0.0
C432 C 0.77941 0.49682 0.33923 0.0
C433 C 0.75474 0.50976 0.33866 0.0
C434 C 0.84936 0.55813 0.26179 0.0
C435 C 0.77164 0.46621 0.36645 0.0
H436 H 0.84102 0.42842 0.26581 0.0
H437 H 0.89203 0.48461 0.37751 0.0
H438 H 0.77282 0.4494 0.26253 0.0
H439 H 0.80595 0.4827 0.23085 0.0
H440 H 0.79966 0.43857 0.22822 0.0
H441 H 0.88953 0.53535 0.39937 0.0
H442 H 0.88384 0.5589 0.35776 0.0
H443 H 0.84562 0.53236 0.38934 0.0
H444 H 0.79068 0.56902 0.26279 0.0
H445 H 0.73124 0.49854 0.35858 0.0
H446 H 0.85337 0.539 0.24266 0.0
H447 H 0.87355 0.57179 0.28266 0.0
H448 H 0.84847 0.57803 0.24165 0.0
H449 H 0.7729 0.44477 0.34867 0.0
H450 H 0.74425 0.455 0.38071 0.0
H451 H 0.79266 0.4751 0.39123 0.0
C452 C 0.53248 0.27506 0.30345 0.0
C453 C 0.50948 0.25381 0.33425 0.0
C454 C 0.54517 0.31156 0.30341 0.0
C455 C 0.53427 0.32727 0.33472 0.0
C456 C 0.50848 0.30552 0.36382 0.0
C457 C 0.4965 0.26897 0.36341 0.0
C458 C 0.5727 0.33366 0.2718 0.0
C459 C 0.49553 0.32115 0.39708 0.0
C460 C 0.60945 0.41957 0.364 0.0
C461 C 0.59994 0.44082 0.3408 0.0
C462 C 0.58725 0.38271 0.36383 0.0
C463 C 0.55434 0.36653 0.34028 0.0
C464 C 0.54334 0.38794 0.31881 0.0
C465 C 0.56646 0.42491 0.31905 0.0
C466 C 0.60025 0.36097 0.38699 0.0
C467 C 0.50809 0.37173 0.29405 0.0
H468 H 0.54235 0.26353 0.2805 0.0
H469 H 0.47849 0.25269 0.38714 0.0
H470 H 0.56474 0.35203 0.25774 0.0
H471 H 0.59998 0.34998 0.28675 0.0
H472 H 0.57541 0.31713 0.24718 0.0
H473 H 0.47063 0.30055 0.41212 0.0
H474 H 0.51753 0.33448 0.42064 0.0
H475 H 0.48945 0.34139 0.38466 0.0
H476 H 0.63515 0.43159 0.3811 0.0
H477 H 0.5588 0.44119 0.30128 0.0
H478 H 0.6065 0.34484 0.36511 0.0
H479 H 0.5784 0.34242 0.40729 0.0
H480 H 0.62526 0.37769 0.40585 0.0
H481 H 0.51135 0.35905 0.26581 0.0
H482 H 0.50036 0.39183 0.28516 0.0
H483 H 0.48532 0.35083 0.31143 0.0
C484 C 0.61443 0.18976 0.31422 0.0
C485 C 0.59942 0.18169 0.35324 0.0
C486 C 0.65243 0.20727 0.30893 0.0
C487 C 0.67593 0.21878 0.3437 0.0
C488 C 0.66093 0.20973 0.38321 0.0
C489 C 0.62268 0.19117 0.38751 0.0
C490 C 0.66743 0.21554 0.26628 0.0
C491 C 0.68514 0.22202 0.42102 0.0
C492 C 0.77935 0.26133 0.33108 0.0
C493 C 0.78869 0.29683 0.32698 0.0
C494 C 0.74256 0.23521 0.33622 0.0
C495 C 0.71517 0.24539 0.33893 0.0
C496 C 0.72496 0.28151 0.33589 0.0
C497 C 0.7615 0.30664 0.32905 0.0
C498 C 0.73303 0.19687 0.33725 0.0
C499 C 0.6969 0.29375 0.34009 0.0
H500 H 0.59646 0.18387 0.28783 0.0
H501 H 0.61093 0.1855 0.41771 0.0
H502 H 0.68115 0.2445 0.2617 0.0
H503 H 0.68833 0.20708 0.26198 0.0
H504 H 0.64562 0.20228 0.24246 0.0
H505 H 0.66959 0.20974 0.44906 0.0
H506 H 0.70774 0.21571 0.41813 0.0
H507 H 0.69782 0.25122 0.4246 0.0
H508 H 0.80065 0.25398 0.32946 0.0
H509 H 0.76909 0.33432 0.32662 0.0
H510 H 0.72239 0.18446 0.30666 0.0
H511 H 0.7113 0.18199 0.35966 0.0
H512 H 0.7574 0.19404 0.34466 0.0
H513 H 0.67671 0.28271 0.31442 0.0
H514 H 0.70962 0.32306 0.34022 0.0
H515 H 0.68155 0.28395 0.36882 0.0
C516 C 0.4432 0.84665 0.62272 0.0
C517 C 0.43034 0.85321 0.6594 0.0
C518 C 0.46263 0.82789 0.62234 0.0
C519 C 0.46913 0.81563 0.65956 0.0
C520 C 0.4584 0.82448 0.69689 0.0
C521 C 0.43821 0.8423 0.6962 0.0
C522 C 0.47328 0.81854 0.58193 0.0
C523 C 0.46568 0.81265 0.73728 0.0
C524 C 0.46327 0.72623 0.66498 0.0
C525 C 0.50021 0.73543 0.66802 0.0
C526 C 0.45305 0.75214 0.65973 0.0
C527 C 0.48054 0.78825 0.65928 0.0
C528 C 0.51805 0.79767 0.66194 0.0
C529 C 0.52752 0.77089 0.66558 0.0
C530 C 0.41274 0.74088 0.65583 0.0
C531 C 0.54802 0.83587 0.66319 0.0
H532 H 0.43634 0.85452 0.59421 0.0
H533 H 0.42678 0.84591 0.72434 0.0
H534 H 0.50172 0.82295 0.58351 0.0
H535 H 0.45483 0.79002 0.57465 0.0
H536 H 0.47117 0.83421 0.55666 0.0
H537 H 0.45832 0.82427 0.76366 0.0
H538 H 0.44947 0.78339 0.73887 0.0
H539 H 0.4951 0.82025 0.74012 0.0
H540 H 0.44234 0.6986 0.66635 0.0
H541 H 0.55612 0.77773 0.66809 0.0
H542 H 0.40776 0.75337 0.62908 0.0
H543 H 0.40391 0.74981 0.6834 0.0
H544 H 0.3953 0.7117 0.65238 0.0
H545 H 0.54199 0.85198 0.64183 0.0
H546 H 0.57513 0.83852 0.65571 0.0
H547 H 0.54991 0.84704 0.69444 0.0
C548 C 0.24011 0.7576 0.66081 0.0
C549 C 0.26928 0.77392 0.68915 0.0
C550 C 0.21645 0.72068 0.66066 0.0
C551 C 0.22244 0.69978 0.68922 0.0
C552 C 0.25021 0.71657 0.71962 0.0
C553 C 0.27307 0.75334 0.71933 0.0
C554 C 0.18663 0.70386 0.62832 0.0
C555 C 0.25778 0.69546 0.7506 0.0
C556 C 0.15894 0.6016 0.70683 0.0
C557 C 0.17622 0.5864 0.68398 0.0
C558 C 0.17218 0.63841 0.70691 0.0
C559 C 0.20374 0.66045 0.68417 0.0
C560 C 0.22026 0.64496 0.65979 0.0
C561 C 0.20617 0.60822 0.65979 0.0
C562 C 0.15337 0.65383 0.73265 0.0
C563 C 0.25418 0.66737 0.63539 0.0
H564 H 0.23687 0.77333 0.63753 0.0
H565 H 0.29526 0.76574 0.74168 0.0
H566 H 0.19504 0.6909 0.60444 0.0
H567 H 0.16081 0.68312 0.64159 0.0
H568 H 0.18114 0.72368 0.61352 0.0
H569 H 0.27794 0.71265 0.77451 0.0
H570 H 0.23209 0.67649 0.76568 0.0
H571 H 0.26881 0.67983 0.73488 0.0
H572 H 0.13561 0.58488 0.72536 0.0
H573 H 0.21966 0.59677 0.64188 0.0
H574 H 0.14968 0.67361 0.71525 0.0
H575 H 0.1707 0.66774 0.7599 0.0
H576 H 0.12616 0.6331 0.74315 0.0
H577 H 0.24958 0.68523 0.61542 0.0
H578 H 0.26233 0.65111 0.61604 0.0
H579 H 0.27739 0.68426 0.65647 0.0
C580 C 0.25693 0.47648 0.72701 0.0
C581 C 0.24023 0.48896 0.69996 0.0
C582 C 0.29408 0.48621 0.72275 0.0
C583 C 0.3153 0.5115 0.69339 0.0
C584 C 0.2981 0.52393 0.66595 0.0
C585 C 0.26048 0.51155 0.66885 0.0
C586 C 0.31062 0.46973 0.74964 0.0
C587 C 0.31966 0.55221 0.63542 0.0
C588 C 0.4126 0.58122 0.71742 0.0
C589 C 0.43092 0.57609 0.68468 0.0
C590 C 0.37503 0.55881 0.72237 0.0
C591 C 0.35594 0.52948 0.69503 0.0
C592 C 0.37542 0.52237 0.66439 0.0
C593 C 0.4125 0.54678 0.65833 0.0
C594 C 0.35538 0.56865 0.7543 0.0
C595 C 0.35688 0.48962 0.63739 0.0
H596 H 0.24097 0.45905 0.75112 0.0
H597 H 0.24721 0.52126 0.64824 0.0
H598 H 0.32453 0.45866 0.73038 0.0
H599 H 0.33156 0.49003 0.77052 0.0
H600 H 0.28968 0.44824 0.76826 0.0
H601 H 0.30222 0.56052 0.61839 0.0
H602 H 0.34202 0.5759 0.65131 0.0
H603 H 0.33252 0.54241 0.61295 0.0
H604 H 0.42722 0.60429 0.7375 0.0
H605 H 0.42705 0.54302 0.63312 0.0
H606 H 0.34056 0.54657 0.77539 0.0
H607 H 0.33472 0.57389 0.73927 0.0
H608 H 0.37446 0.59255 0.77272 0.0
H609 H 0.3767 0.48609 0.61813 0.0
H610 H 0.33635 0.49098 0.61714 0.0
H611 H 0.34224 0.46609 0.65663 0.0
C612 C 0.09836 0.31746 0.9214 0.0
C613 C 0.06477 0.29128 0.93633 0.0
C614 C 0.09971 0.33692 0.88716 0.0
C615 C 0.06661 0.33078 0.86796 0.0
C616 C 0.03254 0.30536 0.88379 0.0
C617 C 0.03202 0.28554 0.9175 0.0
C618 C 0.13668 0.36333 0.8708 0.0
C619 C -0.00328 0.29875 0.86476 0.0
C620 C 0.08355 0.40469 0.79635 0.0
C621 C 0.08893 0.39107 0.75935 0.0
C622 C 0.07301 0.38415 0.83156 0.0
C623 C 0.06829 0.34949 0.82976 0.0
C624 C 0.07046 0.3346 0.79177 0.0
C625 C 0.08027 0.3554 0.75698 0.0
C626 C 0.06978 0.40056 0.8713 0.0
C627 C 0.06591 0.29784 0.78846 0.0
H628 H 0.12378 0.3221 0.93577 0.0
H629 H 0.00595 0.26565 0.92923 0.0
H630 H 0.13938 0.35569 0.83898 0.0
H631 H 0.13915 0.38998 0.87001 0.0
H632 H 0.1598 0.36513 0.88947 0.0
H633 H 0.97273 0.2808 0.88318 0.0
H634 H 0.99665 0.32413 0.86126 0.0
H635 H 0.99343 0.28668 0.83377 0.0
H636 H 0.08965 0.43202 0.79853 0.0
H637 H 0.08373 0.34429 0.72849 0.0
H638 H 0.09463 0.40838 0.89049 0.0
H639 H 0.04575 0.38127 0.88863 0.0
H640 H 0.06715 0.4245 0.86629 0.0
H641 H 0.08977 0.29782 0.80341 0.0
H642 H 0.06411 0.28864 0.75619 0.0
H643 H 0.04095 0.27857 0.80443 0.0
C644 C 0.75211 0.77216 0.87465 0.0
C645 C 0.74919 0.78545 0.91298 0.0
C646 C 0.72402 0.76104 0.84536 0.0
C647 C 0.69205 0.76286 0.8549 0.0
C648 C 0.69034 0.77925 0.89204 0.0
C649 C 0.71917 0.79054 0.92079 0.0
C650 C 0.72719 0.74424 0.80583 0.0
C651 C 0.65682 0.78202 0.90294 0.0
C652 C 0.622 0.73312 0.76827 0.0
C653 C 0.60105 0.69679 0.77572 0.0
C654 C 0.65072 0.75571 0.79501 0.0
C655 C 0.65849 0.7415 0.82976 0.0
C656 C 0.63639 0.70521 0.83833 0.0
C657 C 0.60804 0.68335 0.81121 0.0
C658 C 0.67363 0.79433 0.78512 0.0
C659 C 0.64366 0.68902 0.87526 0.0
H660 H 0.77568 0.7689 0.86814 0.0
H661 H 0.71703 0.80114 0.95028 0.0
H662 H 0.70896 0.71514 0.80666 0.0
H663 H 0.71829 0.75405 0.77951 0.0
H664 H 0.75568 0.7496 0.80062 0.0
H665 H 0.66268 0.8016 0.92826 0.0
H666 H 0.64617 0.78962 0.87611 0.0
H667 H 0.63484 0.75584 0.91278 0.0
H668 H 0.61656 0.7438 0.7411 0.0
H669 H 0.59162 0.65548 0.81771 0.0
H670 H 0.70045 0.79924 0.77316 0.0
H671 H 0.67924 0.81133 0.81295 0.0
H672 H 0.66008 0.80248 0.76175 0.0
H673 H 0.67056 0.69001 0.87223 0.0
H674 H 0.62222 0.66101 0.8791 0.0
H675 H 0.64501 0.70431 0.9034 0.0
C676 C 0.36103 0.9425 0.81322 0.0
C677 C 0.33955 0.92222 0.77957 0.0
C678 C 0.34482 0.94781 0.84807 0.0
C679 C 0.30624 0.93271 0.8492 0.0
C680 C 0.28441 0.91276 0.81517 0.0
C681 C 0.30131 0.90769 0.7808 0.0
C682 C 0.36893 0.96918 0.88389 0.0
C683 C 0.24316 0.89655 0.81519 0.0
C684 C 0.25828 0.91805 0.95089 0.0
C685 C 0.2516 0.94676 0.95307 0.0
C686 C 0.2767 0.91349 0.91759 0.0
C687 C 0.28862 0.93817 0.88576 0.0
C688 C 0.28274 0.96759 0.8882 0.0
C689 C 0.2644 0.97157 0.92181 0.0
C690 C 0.28274 0.88189 0.91603 0.0
C691 C 0.29505 0.99445 0.85481 0.0
H692 H 0.39057 0.9537 0.81277 0.0
H693 H 0.28444 0.89202 0.75501 0.0
H694 H 0.36479 0.99212 0.89082 0.0
H695 H 0.3612 0.95273 0.91147 0.0
H696 H 0.39851 0.97915 0.87812 0.0
H697 H 0.23017 0.88197 0.78615 0.0
H698 H 0.23161 0.87796 0.84074 0.0
H699 H 0.23556 0.91751 0.82011 0.0
H700 H 0.24855 0.89875 0.97482 0.0
H701 H 0.25958 0.99396 0.92314 0.0
H702 H 0.31229 0.89069 0.912 0.0
H703 H 0.26773 0.86452 0.88933 0.0
H704 H 0.27331 0.86604 0.94409 0.0
H705 H 0.32489 0.00573 0.84977 0.0
H706 H 0.28945 0.01648 0.86201 0.0
H707 H 0.28072 0.98134 0.82569 0.0
C708 C 0.39457 0.10387 0.26332 0.0
C709 C 0.42325 0.0962 0.258 0.0
C710 C 0.3645 0.09005 0.23604 0.0
C711 C 0.36341 0.06847 0.20248 0.0
C712 C 0.39274 0.06149 0.19631 0.0
C713 C 0.42217 0.07522 0.22429 0.0
C714 C 0.33346 0.09768 0.24374 0.0
C715 C 0.39271 0.03888 0.16058 0.0
C716 C 0.27332 0.99878 0.15576 0.0
C717 C 0.27162 0.0147 0.11953 0.0
C718 C 0.30234 0.01666 0.1838 0.0
C719 C 0.33062 0.05114 0.17518 0.0
C720 C 0.32864 0.06781 0.13926 0.0
C721 C 0.29895 0.04944 0.11191 0.0
C722 C 0.30326 0.99819 0.22209 0.0
C723 C 0.35854 0.10447 0.12898 0.0
H724 H 0.39521 0.12005 0.28931 0.0
H725 H 0.44439 0.06949 0.21965 0.0
H726 H 0.32775 0.10869 0.21611 0.0
H727 H 0.30809 0.07268 0.25036 0.0
H728 H 0.33949 0.11662 0.26982 0.0
H729 H 0.41875 0.03796 0.15865 0.0
H730 H 0.36975 0.01144 0.16341 0.0
H731 H 0.38834 0.04917 0.13155 0.0
H732 H 0.25206 0.9721 0.16214 0.0
H733 H 0.29778 0.06186 0.08395 0.0
H734 H 0.3072 0.01529 0.24942 0.0
H735 H 0.32681 0.99314 0.22115 0.0
H736 H 0.27773 0.97252 0.22575 0.0
H737 H 0.36379 0.12318 0.15501 0.0
H738 H 0.35159 0.1147 0.10143 0.0
H739 H 0.38445 0.10398 0.12339 0.0
C740 C 0.98168 0.2628 0.10632 0.0
C741 C 0.01865 0.27153 0.1095 0.0
C742 C 0.9668 0.27758 0.13349 0.0
C743 C 0.98934 0.30129 0.16487 0.0
C744 C 0.02634 0.30935 0.16908 0.0
C745 C 0.04066 0.29457 0.14114 0.0
C746 C 0.92734 0.26877 0.12776 0.0
C747 C 0.05104 0.3342 0.20255 0.0
C748 C 0.96655 0.37053 0.20479 0.0
C749 C 0.94841 0.35558 0.24111 0.0
C750 C 0.97956 0.35285 0.17953 0.0
C751 C 0.97502 0.31974 0.1913 0.0
C752 C 0.95694 0.30452 0.22804 0.0
C753 C 0.94345 0.3225 0.25237 0.0
C754 C -0.0019 0.36961 0.14017 0.0
C755 C 0.95223 0.26951 0.24179 0.0
H756 H 0.96449 0.24504 0.08193 0.0
H757 H 0.06914 0.30112 0.1441 0.0
H758 H 0.91219 0.25901 0.15658 0.0
H759 H 0.92628 0.29304 0.11988 0.0
H760 H 0.91298 0.24842 0.1032 0.0
H761 H 0.07818 0.3354 0.2037 0.0
H762 H 0.0555 0.36127 0.1976 0.0
H763 H 0.03786 0.32577 0.23266 0.0
H764 H 0.97027 0.39599 0.19577 0.0
H765 H 0.92966 0.31099 0.28057 0.0
H766 H 0.98375 0.35129 0.11392 0.0
H767 H 0.02679 0.37464 0.14063 0.0
H768 H -0.00151 0.39504 0.13496 0.0
H769 H 0.93649 0.24853 0.21837 0.0
H770 H 0.93777 0.26143 0.27131 0.0
H771 H 0.97947 0.27123 0.24519 0.0
C772 C 0.67432 0.62133 0.23117 0.0
C773 C 0.70229 0.63425 0.26118 0.0
C774 C 0.67821 0.64025 0.19543 0.0
C775 C 0.7113 0.67207 0.18906 0.0
C776 C 0.73837 0.68643 0.22051 0.0
C777 C 0.73312 0.66776 0.25649 0.0
C778 C 0.64784 0.62503 0.16357 0.0
C779 C 0.77437 0.72004 0.21488 0.0
C780 C 0.75334 0.69658 0.08476 0.0
C781 C 0.75357 0.72864 0.07888 0.0
C782 C 0.73762 0.67664 0.11951 0.0
C783 C 0.72023 0.68822 0.14816 0.0
C784 C 0.7167 0.71836 0.14 0.0
C785 C 0.73405 0.73865 0.10583 0.0
C786 C 0.74245 0.6449 0.12722 0.0
C787 C 0.6966 0.73042 0.16861 0.0
H788 H 0.65003 0.5958 0.23477 0.0
H789 H 0.75463 0.67845 0.27972 0.0
H790 H 0.64507 0.6463 0.1484 0.0
H791 H 0.65424 0.61042 0.13977 0.0
H792 H 0.62111 0.60628 0.17709 0.0
H793 H 0.79202 0.72824 0.24285 0.0
H794 H 0.78963 0.71604 0.18956 0.0
H795 H 0.76941 0.74199 0.20643 0.0
H796 H 0.7676 0.68816 0.06367 0.0
H797 H 0.73327 0.76294 0.10097 0.0
H798 H 0.71565 0.6214 0.13354 0.0
H799 H 0.76036 0.65027 0.15458 0.0
H800 H 0.75498 0.63836 0.10097 0.0
H801 H 0.67145 0.70745 0.18012 0.0
H802 H 0.68885 0.74858 0.15347 0.0
H803 H 0.7145 0.74473 0.19536 0.0
C804 C 0.0795 0.42431 0.5516 0.0
C805 C 0.08367 0.4471 0.58477 0.0
C806 C 0.05999 0.42321 0.51634 0.0
C807 C 0.04394 0.44522 0.51416 0.0
C808 C 0.04777 0.46819 0.54742 0.0
C809 C 0.06769 0.46892 0.58241 0.0
C810 C 0.05642 0.39828 0.48147 0.0
C811 C 0.03069 0.49182 0.54608 0.0
C812 C 0.01669 0.45738 0.40755 0.0
C813 C 0.97971 0.43098 0.40569 0.0
C814 C 0.03782 0.46326 0.44327 0.0
C815 C 0.02141 0.4424 0.4778 0.0
C816 C 0.98389 0.41653 0.47649 0.0
C817 C 0.96356 0.41107 0.44048 0.0
C818 C 0.07789 0.49099 0.4437 0.0
C819 C 0.9654 0.39383 0.51277 0.0
H820 H 0.09185 0.40744 0.55285 0.0
H821 H 0.07093 0.48675 0.60773 0.0
H822 H 0.0271 0.3785 0.4761 0.0
H823 H 0.0667 0.41319 0.45293 0.0
H824 H 0.0718 0.38395 0.48744 0.0
H825 H 0.03718 0.50896 0.57399 0.0
H826 H 0.04049 0.5089 0.51907 0.0
H827 H 0.00045 0.47543 0.54282 0.0
H828 H 0.0293 0.47304 0.38094 0.0
H829 H 0.93487 0.39094 0.43969 0.0
H830 H 0.09499 0.47803 0.44657 0.0
H831 H 0.08437 0.50923 0.47052 0.0
H832 H 0.08578 0.50677 0.41552 0.0
H833 H 0.97756 0.37665 0.51902 0.0
H834 H 0.93539 0.3767 0.50773 0.0
H835 H 0.96999 0.41072 0.54047 0.0
C836 C 0.61881 0.56664 0.44248 0.0
C837 C 0.6571 0.58323 0.43951 0.0
C838 C 0.6024 0.57024 0.47821 0.0
C839 C 0.62485 0.59061 0.51171 0.0
C840 C 0.66342 0.60666 0.50927 0.0
C841 C 0.67906 0.60295 0.47317 0.0
C842 C 0.56112 0.55303 0.47975 0.0
C843 C 0.68823 0.62844 0.54449 0.0
C844 C 0.588 0.63462 0.58328 0.0
C845 C 0.57681 0.61197 0.61666 0.0
C846 C 0.60351 0.62778 0.54899 0.0
C847 C 0.60829 0.5977 0.54805 0.0
C848 C 0.59793 0.5751 0.58186 0.0
C849 C 0.58221 0.58248 0.61586 0.0
C850 C 0.61438 0.65259 0.51353 0.0
C851 C 0.60308 0.54298 0.58188 0.0
H852 H 0.60165 0.55123 0.41673 0.0
H853 H 0.70868 0.61552 0.4715 0.0
H854 H 0.55084 0.53632 0.50703 0.0
H855 H 0.55291 0.57373 0.48258 0.0
H856 H 0.54752 0.53635 0.45207 0.0
H857 H 0.71752 0.63692 0.53877 0.0
H858 H 0.68557 0.65242 0.54989 0.0
H859 H 0.68 0.61308 0.57291 0.0
H860 H 0.58415 0.65759 0.58353 0.0
H861 H 0.57359 0.5648 0.64141 0.0
H862 H 0.59944 0.63777 0.48538 0.0
H863 H 0.64412 0.664 0.50775 0.0
H864 H 0.60847 0.67466 0.51902 0.0
H865 H 0.58717 0.52467 0.55621 0.0
H866 H 0.59417 0.52842 0.61087 0.0
H867 H 0.63237 0.55103 0.57715 0.0
C868 C 0.37074 0.9532 0.56915 0.0
C869 C 0.39443 0.96439 0.60339 0.0
C870 C 0.37863 0.97482 0.53494 0.0
C871 C 0.41116 0.00811 0.53483 0.0
C872 C 0.43386 0.0204 0.57024 0.0
C873 C 0.42508 0.99859 0.60407 0.0
C874 C 0.3533 0.96116 0.49808 0.0
C875 C 0.46898 0.05555 0.57141 0.0
C876 C 0.4626 0.04211 0.43634 0.0
C877 C 0.45721 0.07094 0.42828 0.0
C878 C 0.44677 0.02087 0.47016 0.0
C879 C 0.42433 0.02811 0.4964 0.0
C880 C 0.4175 0.05626 0.48766 0.0
C881 C 0.43435 0.07762 0.45392 0.0
C882 C 0.45531 0.9915 0.47867 0.0
C883 C 0.39314 0.06433 0.51449 0.0
H884 H 0.34683 0.92702 0.56832 0.0
H885 H 0.44348 0.00787 0.6304 0.0
H886 H 0.34857 0.98224 0.48566 0.0
H887 H 0.36615 0.95298 0.47371 0.0
H888 H 0.3264 0.938 0.50533 0.0
H889 H 0.48183 0.06266 0.6024 0.0
H890 H 0.48887 0.05438 0.54999 0.0
H891 H 0.46378 0.07699 0.56132 0.0
H892 H 0.48016 0.03662 0.4168 0.0
H893 H 0.42967 0.09957 0.44769 0.0
H894 H 0.42954 0.96595 0.48125 0.0
H895 H 0.47038 0.99697 0.50827 0.0
H896 H 0.47221 0.98853 0.45447 0.0
H897 H 0.36689 0.0398 0.51988 0.0
H898 H 0.38704 0.0842 0.50091 0.0
H899 H 0.40672 0.07472 0.54469 0.0
loop_
_geom_bond_atom_site_label_1
_geom_bond_atom_site_label_2
_geom_bond_distance
_geom_bond_site_symmetry_2
_ccdc_geom_bond_type
Mn0 O5 2.095 1_455 S
Mn0 O15 2.162 1_454 S
Mn0 O16 2.297 1_455 S
Mn0 O24 2.385 1_554 S
Mn0 O25 2.209 . S
Mn0 O26 2.094 1_554 S
Mn1 O6 2.121 . S
Mn1 N8 2.257 . S
Mn1 N17 2.282 . S
Mn1 O25 2.215 . S
Mn1 O27 2.117 1_554 S
C2 O24 1.234 1_554 S
C2 O25 1.283 . S
C3 O15 1.281 1_554 S
C3 O16 1.236 . S
C4 O26 1.240 . S
C4 O27 1.264 . S
O5 Mn0 2.095 1_655 S
O5 C14 1.250 1_655 S
O6 Mn1 2.121 . S
O6 C14 1.258 . S
C7 N8 1.326 . S
C7 C11 1.460 . S
C7 H13 0.929 . S
N8 Mn1 2.257 . S
N8 C7 1.326 . S
N8 C12 1.362 . S
C9 C10 1.258 . S
C9 C12 1.431 . S
C9 C29 1.449 . S
C10 C9 1.258 . S
C10 C11 1.477 . S
C10 H30 0.931 . S
C11 C7 1.460 . S
C11 C10 1.477 . S
C11 H31 0.930 . S
C12 N8 1.362 . S
C12 C9 1.431 . S
C12 C22 1.476 . S
H13 C7 0.929 . S
C14 O5 1.250 1_455 S
C14 O6 1.258 . S
O15 Mn0 2.162 1_656 S
O15 C3 1.281 1_556 S
O16 Mn0 2.297 1_655 S
O16 C3 1.236 . S
N17 Mn1 2.282 . S
N17 C18 1.328 1_554 S
N17 C22 1.318 . S
C18 N17 1.328 1_556 S
C18 C19 1.457 . S
C18 H23 0.929 . S
C19 C18 1.457 . S
C19 C20 1.291 . S
C19 H32 0.931 . S
C20 C19 1.291 . S
C20 C21 1.373 1_556 S
C20 H33 0.929 . S
C21 C20 1.373 1_554 S
C21 C22 1.396 . S
C21 C28 1.403 . S
C22 C12 1.476 . S
C22 N17 1.318 . S
C22 C21 1.396 . S
H23 C18 0.929 . S
O24 Mn0 2.385 1_556 S
O24 C2 1.234 1_556 S
O25 Mn0 2.209 . S
O25 Mn1 2.215 . S
O25 C2 1.283 . S
O26 Mn0 2.094 1_556 S
O26 C4 1.240 . S
O27 Mn1 2.117 1_556 S
O27 C4 1.264 . S
C28 C21 1.403 . S
C28 C29 1.399 . S
C28 H34 0.929 . S
C29 C9 1.449 . S
C29 C28 1.399 . S
C29 H35 0.930 . S
H30 C10 0.931 . S
H31 C11 0.930 . S
H32 C19 0.931 . S
H33 C20 0.929 . S
H34 C28 0.929 . S
H35 C29 0.930 . S
Mn36 O41 2.095 1_554 S
Mn36 O51 2.162 . S
Mn36 O52 2.297 1_554 S
Mn36 O60 2.385 . S
Mn36 O61 2.209 1_554 S
Mn36 O62 2.094 . S
Mn37 O42 2.121 . S
Mn37 N44 2.257 . S
Mn37 N53 2.282 1_556 S
Mn37 O61 2.215 . S
Mn37 O63 2.117 1_556 S
C38 O60 1.234 . S
C38 O61 1.283 1_554 S
C39 O51 1.281 . S
C39 O52 1.236 1_554 S
C40 O62 1.240 . S
C40 O63 1.264 . S
O41 Mn36 2.095 1_556 S
O41 C50 1.250 . S
O42 Mn37 2.121 . S
O42 C50 1.258 . S
C43 N44 1.326 . S
C43 C47 1.460 . S
C43 H49 0.929 . S
N44 Mn37 2.257 . S
N44 C43 1.326 . S
N44 C48 1.362 . S
C45 C46 1.258 . S
C45 C48 1.431 . S
C45 C65 1.449 . S
C46 C45 1.258 . S
C46 C47 1.477 . S
C46 H66 0.931 . S
C47 C43 1.460 . S
C47 C46 1.477 . S
C47 H67 0.930 . S
C48 N44 1.362 . S
C48 C45 1.431 . S
C48 C58 1.476 . S
H49 C43 0.929 . S
C50 O41 1.250 . S
C50 O42 1.258 . S
O51 Mn36 2.162 . S
O51 C39 1.281 . S
O52 Mn36 2.297 1_556 S
O52 C39 1.236 1_556 S
N53 Mn37 2.282 1_554 S
N53 C54 1.328 . S
N53 C58 1.318 1_554 S
C54 N53 1.328 . S
C54 C55 1.457 . S
C54 H59 0.929 . S
C55 C54 1.457 . S
C55 C56 1.291 . S
C55 H68 0.931 . S
C56 C55 1.291 . S
C56 C57 1.373 1_554 S
C56 H69 0.929 . S
C57 C56 1.373 1_556 S
C57 C58 1.396 . S
C57 C64 1.403 . S
C58 C48 1.476 . S
C58 N53 1.318 1_556 S
C58 C57 1.396 . S
H59 C54 0.929 . S
O60 Mn36 2.385 . S
O60 C38 1.234 . S
O61 Mn36 2.209 1_556 S
O61 Mn37 2.215 . S
O61 C38 1.283 1_556 S
O62 Mn36 2.094 . S
O62 C40 1.240 . S
O63 Mn37 2.117 1_554 S
O63 C40 1.264 . S
C64 C57 1.403 . S
C64 C65 1.399 . S
C64 H70 0.929 . S
C65 C45 1.449 . S
C65 C64 1.399 . S
C65 H71 0.930 . S
H66 C46 0.931 . S
H67 C47 0.930 . S
H68 C55 0.931 . S
H69 C56 0.929 . S
H70 C64 0.929 . S
H71 C65 0.930 . S
Mn72 O77 2.104 . S
Mn72 O87 2.156 1_554 S
Mn72 O88 2.305 . S
Mn72 O96 2.381 1_544 S
Mn72 O97 2.217 1_545 S
Mn72 O98 2.081 1_554 S
Mn73 O78 2.121 . S
Mn73 N80 2.257 . S
Mn73 N89 2.282 . S
Mn73 O97 2.215 . S
Mn73 O99 2.117 1_554 S
C74 O96 1.234 1_554 S
C74 O97 1.283 . S
C75 O87 1.281 1_554 S
C75 O88 1.236 . S
C76 O98 1.240 1_565 S
C76 O99 1.264 . S
O77 Mn72 2.104 . S
O77 C86 1.250 . S
O78 Mn73 2.121 . S
O78 C86 1.258 1_565 S
C79 N80 1.326 . S
C79 C83 1.460 . S
C79 H85 0.929 . S
N80 Mn73 2.257 . S
N80 C79 1.326 . S
N80 C84 1.362 . S
C81 C82 1.258 . S
C81 C84 1.431 . S
C81 C101 1.449 . S
C82 C81 1.258 . S
C82 C83 1.477 . S
C82 H102 0.931 . S
C83 C79 1.460 . S
C83 C82 1.477 . S
C83 H103 0.930 . S
C84 N80 1.362 . S
C84 C81 1.431 . S
C84 C94 1.476 . S
H85 C79 0.929 . S
C86 O77 1.250 . S
C86 O78 1.258 1_545 S
O87 Mn72 2.156 1_556 S
O87 C75 1.281 1_556 S
O88 Mn72 2.305 . S
O88 C75 1.236 . S
N89 Mn73 2.282 . S
N89 C90 1.328 1_554 S
N89 C94 1.318 . S
C90 N89 1.328 1_556 S
C90 C91 1.457 . S
C90 H95 0.929 . S
C91 C90 1.457 . S
C91 C92 1.291 . S
C91 H104 0.931 . S
C92 C91 1.291 . S
C92 C93 1.373 1_556 S
C92 H105 0.929 . S
C93 C92 1.373 1_554 S
C93 C94 1.396 . S
C93 C100 1.403 . S
C94 C84 1.476 . S
C94 N89 1.318 . S
C94 C93 1.396 . S
H95 C90 0.929 . S
O96 Mn72 2.381 1_566 S
O96 C74 1.234 1_556 S
O97 Mn72 2.217 1_565 S
O97 Mn73 2.215 . S
O97 C74 1.283 . S
O98 Mn72 2.081 1_556 S
O98 C76 1.240 1_545 S
O99 Mn73 2.117 1_556 S
O99 C76 1.264 . S
C100 C93 1.403 . S
C100 C101 1.399 . S
C100 H106 0.929 . S
C101 C81 1.449 . S
C101 C100 1.399 . S
C101 H107 0.930 . S
H102 C82 0.931 . S
H103 C83 0.930 . S
H104 C91 0.931 . S
H105 C92 0.929 . S
H106 C100 0.929 . S
H107 C101 0.930 . S
Mn108 O113 2.095 . S
Mn108 O123 2.162 . S
Mn108 O124 2.297 . S
Mn108 O132 2.385 . S
Mn108 O133 2.209 . S
Mn108 O134 2.094 . S
Mn109 O114 2.121 . S
Mn109 N116 2.257 . S
Mn109 N125 2.282 . S
Mn109 O133 2.215 . S
Mn109 O135 2.117 . S
C110 O132 1.234 . S
C110 O133 1.283 . S
C111 O123 1.281 . S
C111 O124 1.236 . S
C112 O134 1.240 . S
C112 O135 1.264 . S
O113 Mn108 2.095 . S
O113 C122 1.250 . S
O114 Mn109 2.121 . S
O114 C122 1.258 . S
C115 N116 1.326 . S
C115 C119 1.460 . S
C115 H121 0.929 . S
N116 Mn109 2.257 . S
N116 C115 1.326 . S
N116 C120 1.362 . S
C117 C118 1.258 . S
C117 C120 1.431 . S
C117 C137 1.449 . S
C118 C117 1.258 . S
C118 C119 1.477 . S
C118 H138 0.931 . S
C119 C115 1.460 . S
C119 C118 1.477 . S
C119 H139 0.930 . S
C120 N116 1.362 . S
C120 C117 1.431 . S
C120 C130 1.476 . S
H121 C115 0.929 . S
C122 O113 1.250 . S
C122 O114 1.258 . S
O123 Mn108 2.162 . S
O123 C111 1.281 . S
O124 Mn108 2.297 . S
O124 C111 1.236 . S
N125 Mn109 2.282 . S
N125 C126 1.328 . S
N125 C130 1.318 . S
C126 N125 1.328 . S
C126 C127 1.457 . S
C126 H131 0.929 . S
C127 C126 1.457 . S
C127 C128 1.291 . S
C127 H140 0.931 . S
C128 C127 1.291 . S
C128 C129 1.373 . S
C128 H141 0.929 . S
C129 C128 1.373 . S
C129 C130 1.396 . S
C129 C136 1.403 . S
C130 C120 1.476 . S
C130 N125 1.318 . S
C130 C129 1.396 . S
H131 C126 0.929 . S
O132 Mn108 2.385 . S
O132 C110 1.234 . S
O133 Mn108 2.209 . S
O133 Mn109 2.215 . S
O133 C110 1.283 . S
O134 Mn108 2.094 . S
O134 C112 1.240 . S
O135 Mn109 2.117 . S
O135 C112 1.264 . S
C136 C129 1.403 . S
C136 C137 1.399 . S
C136 H142 0.929 . S
C137 C117 1.449 . S
C137 C136 1.399 . S
C137 H143 0.930 . S
H138 C118 0.931 . S
H139 C119 0.930 . S
H140 C127 0.931 . S
H141 C128 0.929 . S
H142 C136 0.929 . S
H143 C137 0.930 . S
Mn144 O149 2.095 . S
Mn144 O159 2.162 . S
Mn144 O160 2.297 . S
Mn144 O168 2.385 . S
Mn144 O169 2.209 . S
Mn144 O170 2.094 . S
Mn145 O150 2.121 . S
Mn145 N152 2.257 . S
Mn145 N161 2.282 . S
Mn145 O169 2.215 . S
Mn145 O171 2.117 . S
C146 O168 1.234 . S
C146 O169 1.283 . S
C147 O159 1.281 . S
C147 O160 1.236 . S
C148 O170 1.240 . S
C148 O171 1.264 . S
O149 Mn144 2.095 . S
O149 C158 1.250 . S
O150 Mn145 2.121 . S
O150 C158 1.258 . S
C151 N152 1.326 . S
C151 C155 1.460 . S
C151 H157 0.929 . S
N152 Mn145 2.257 . S
N152 C151 1.326 . S
N152 C156 1.362 . S
C153 C154 1.258 . S
C153 C156 1.431 . S
C153 C173 1.449 . S
C154 C153 1.258 . S
C154 C155 1.477 . S
C154 H174 0.931 . S
C155 C151 1.460 . S
C155 C154 1.477 . S
C155 H175 0.930 . S
C156 N152 1.362 . S
C156 C153 1.431 . S
C156 C166 1.476 . S
H157 C151 0.929 . S
C158 O149 1.250 . S
C158 O150 1.258 . S
O159 Mn144 2.162 . S
O159 C147 1.281 . S
O160 Mn144 2.297 . S
O160 C147 1.236 . S
N161 Mn145 2.282 . S
N161 C162 1.328 . S
N161 C166 1.318 . S
C162 N161 1.328 . S
C162 C163 1.457 . S
C162 H167 0.929 . S
C163 C162 1.457 . S
C163 C164 1.291 . S
C163 H176 0.931 . S
C164 C163 1.291 . S
C164 C165 1.373 . S
C164 H177 0.929 . S
C165 C164 1.373 . S
C165 C166 1.396 . S
C165 C172 1.403 . S
C166 C156 1.476 . S
C166 N161 1.318 . S
C166 C165 1.396 . S
H167 C162 0.929 . S
O168 Mn144 2.385 . S
O168 C146 1.234 . S
O169 Mn144 2.209 . S
O169 Mn145 2.215 . S
O169 C146 1.283 . S
O170 Mn144 2.094 . S
O170 C148 1.240 . S
O171 Mn145 2.117 . S
O171 C148 1.264 . S
C172 C165 1.403 . S
C172 C173 1.399 . S
C172 H178 0.929 . S
C173 C153 1.449 . S
C173 C172 1.399 . S
C173 H179 0.930 . S
H174 C154 0.931 . S
H175 C155 0.930 . S
H176 C163 0.931 . S
H177 C164 0.929 . S
H178 C172 0.929 . S
H179 C173 0.930 . S
Mn180 O185 2.095 . S
Mn180 O195 2.162 . S
Mn180 O196 2.297 . S
Mn180 O204 2.385 . S
Mn180 O205 2.209 . S
Mn180 O206 2.094 . S
Mn181 O186 2.121 . S
Mn181 N188 2.257 . S
Mn181 N197 2.282 . S
Mn181 O205 2.215 . S
Mn181 O207 2.117 . S
C182 O204 1.234 . S
C182 O205 1.283 . S
C183 O195 1.281 . S
C183 O196 1.236 . S
C184 O206 1.240 . S
C184 O207 1.264 . S
O185 Mn180 2.095 . S
O185 C194 1.250 . S
O186 Mn181 2.121 . S
O186 C194 1.258 . S
C187 N188 1.326 . S
C187 C191 1.460 . S
C187 H193 0.929 . S
N188 Mn181 2.257 . S
N188 C187 1.326 . S
N188 C192 1.362 . S
C189 C190 1.258 . S
C189 C192 1.431 . S
C189 C209 1.449 . S
C190 C189 1.258 . S
C190 C191 1.477 . S
C190 H210 0.931 . S
C191 C187 1.460 . S
C191 C190 1.477 . S
C191 H211 0.930 . S
C192 N188 1.362 . S
C192 C189 1.431 . S
C192 C202 1.476 . S
H193 C187 0.929 . S
C194 O185 1.250 . S
C194 O186 1.258 . S
O195 Mn180 2.162 . S
O195 C183 1.281 . S
O196 Mn180 2.297 . S
O196 C183 1.236 . S
N197 Mn181 2.282 . S
N197 C198 1.328 . S
N197 C202 1.318 . S
C198 N197 1.328 . S
C198 C199 1.457 . S
C198 H203 0.929 . S
C199 C198 1.457 . S
C199 C200 1.291 . S
C199 H212 0.931 . S
C200 C199 1.291 . S
C200 C201 1.373 . S
C200 H213 0.929 . S
C201 C200 1.373 . S
C201 C202 1.396 . S
C201 C208 1.403 . S
C202 C192 1.476 . S
C202 N197 1.318 . S
C202 C201 1.396 . S
H203 C198 0.929 . S
O204 Mn180 2.385 . S
O204 C182 1.234 . S
O205 Mn180 2.209 . S
O205 Mn181 2.215 . S
O205 C182 1.283 . S
O206 Mn180 2.094 . S
O206 C184 1.240 . S
O207 Mn181 2.117 . S
O207 C184 1.264 . S
C208 C201 1.403 . S
C208 C209 1.399 . S
C208 H214 0.929 . S
C209 C189 1.449 . S
C209 C208 1.399 . S
C209 H215 0.930 . S
H210 C190 0.931 . S
H211 C191 0.930 . S
H212 C199 0.931 . S
H213 C200 0.929 . S
H214 C208 0.929 . S
H215 C209 0.930 . S
Mn216 O221 2.095 . S
Mn216 O231 2.162 . S
Mn216 O232 2.297 . S
Mn216 O240 2.385 . S
Mn216 O241 2.209 . S
Mn216 O242 2.094 . S
Mn217 O222 2.121 . S
Mn217 N224 2.257 . S
Mn217 N233 2.282 . S
Mn217 O241 2.215 . S
Mn217 O243 2.117 . S
C218 O240 1.234 . S
C218 O241 1.283 . S
C219 O231 1.281 . S
C219 O232 1.236 . S
C220 O242 1.240 . S
C220 O243 1.264 . S
O221 Mn216 2.095 . S
O221 C230 1.250 . S
O222 Mn217 2.121 . S
O222 C230 1.258 . S
C223 N224 1.326 . S
C223 C227 1.460 . S
C223 H229 0.929 . S
N224 Mn217 2.257 . S
N224 C223 1.326 . S
N224 C228 1.362 . S
C225 C226 1.258 . S
C225 C228 1.431 . S
C225 C245 1.449 . S
C226 C225 1.258 . S
C226 C227 1.477 . S
C226 H246 0.931 . S
C227 C223 1.460 . S
C227 C226 1.477 . S
C227 H247 0.930 . S
C228 N224 1.362 . S
C228 C225 1.431 . S
C228 C238 1.476 . S
H229 C223 0.929 . S
C230 O221 1.250 . S
C230 O222 1.258 . S
O231 Mn216 2.162 . S
O231 C219 1.281 . S
O232 Mn216 2.297 . S
O232 C219 1.236 . S
N233 Mn217 2.282 . S
N233 C234 1.328 . S
N233 C238 1.318 . S
C234 N233 1.328 . S
C234 C235 1.457 . S
C234 H239 0.929 . S
C235 C234 1.457 . S
C235 C236 1.291 . S
C235 H248 0.931 . S
C236 C235 1.291 . S
C236 C237 1.373 . S
C236 H249 0.929 . S
C237 C236 1.373 . S
C237 C238 1.396 . S
C237 C244 1.403 . S
C238 C228 1.476 . S
C238 N233 1.318 . S
C238 C237 1.396 . S
H239 C234 0.929 . S
O240 Mn216 2.385 . S
O240 C218 1.234 . S
O241 Mn216 2.209 . S
O241 Mn217 2.215 . S
O241 C218 1.283 . S
O242 Mn216 2.094 . S
O242 C220 1.240 . S
O243 Mn217 2.117 . S
O243 C220 1.264 . S
C244 C237 1.403 . S
C244 C245 1.399 . S
C244 H250 0.929 . S
C245 C225 1.449 . S
C245 C244 1.399 . S
C245 H251 0.930 . S
H246 C226 0.931 . S
H247 C227 0.930 . S
H248 C235 0.931 . S
H249 C236 0.929 . S
H250 C244 0.929 . S
H251 C245 0.930 . S
Mn252 O257 2.095 . S
Mn252 O267 2.162 . S
Mn252 O268 2.297 . S
Mn252 O276 2.385 . S
Mn252 O277 2.209 . S
Mn252 O278 2.094 . S
Mn253 O258 2.121 . S
Mn253 N260 2.257 . S
Mn253 N269 2.282 . S
Mn253 O277 2.215 . S
Mn253 O279 2.117 . S
C254 O276 1.234 . S
C254 O277 1.283 . S
C255 O267 1.281 . S
C255 O268 1.236 . S
C256 O278 1.240 . S
C256 O279 1.264 . S
O257 Mn252 2.095 . S
O257 C266 1.250 . S
O258 Mn253 2.121 . S
O258 C266 1.258 . S
C259 N260 1.326 . S
C259 C263 1.460 . S
C259 H265 0.929 . S
N260 Mn253 2.257 . S
N260 C259 1.326 . S
N260 C264 1.362 . S
C261 C262 1.258 . S
C261 C264 1.431 . S
C261 C281 1.449 . S
C262 C261 1.258 . S
C262 C263 1.477 . S
C262 H282 0.931 . S
C263 C259 1.460 . S
C263 C262 1.477 . S
C263 H283 0.930 . S
C264 N260 1.362 . S
C264 C261 1.431 . S
C264 C274 1.476 . S
H265 C259 0.929 . S
C266 O257 1.250 . S
C266 O258 1.258 . S
O267 Mn252 2.162 . S
O267 C255 1.281 . S
O268 Mn252 2.297 . S
O268 C255 1.236 . S
N269 Mn253 2.282 . S
N269 C270 1.328 . S
N269 C274 1.318 . S
C270 N269 1.328 . S
C270 C271 1.457 . S
C270 H275 0.929 . S
C271 C270 1.457 . S
C271 C272 1.291 . S
C271 H284 0.931 . S
C272 C271 1.291 . S
C272 C273 1.373 . S
C272 H285 0.929 . S
C273 C272 1.373 . S
C273 C274 1.396 . S
C273 C280 1.403 . S
C274 C264 1.476 . S
C274 N269 1.318 . S
C274 C273 1.396 . S
H275 C270 0.929 . S
O276 Mn252 2.385 . S
O276 C254 1.234 . S
O277 Mn252 2.209 . S
O277 Mn253 2.215 . S
O277 C254 1.283 . S
O278 Mn252 2.094 . S
O278 C256 1.240 . S
O279 Mn253 2.117 . S
O279 C256 1.264 . S
C280 C273 1.403 . S
C280 C281 1.399 . S
C280 H286 0.929 . S
C281 C261 1.449 . S
C281 C280 1.399 . S
C281 H287 0.930 . S
H282 C262 0.931 . S
H283 C263 0.930 . S
H284 C271 0.931 . S
H285 C272 0.929 . S
H286 C280 0.929 . S
H287 C281 0.930 . S
Mn288 O293 2.095 . S
Mn288 O303 2.162 . S
Mn288 O304 2.297 . S
Mn288 O312 2.385 . S
Mn288 O313 2.209 . S
Mn288 O314 2.094 . S
Mn289 O294 2.121 . S
Mn289 N296 2.257 . S
Mn289 N305 2.282 . S
Mn289 O313 2.215 . S
Mn289 O315 2.117 . S
C290 O312 1.234 . S
C290 O313 1.283 . S
C291 O303 1.281 . S
C291 O304 1.236 . S
C292 O314 1.240 . S
C292 O315 1.264 . S
O293 Mn288 2.095 . S
O293 C302 1.250 . S
O294 Mn289 2.121 . S
O294 C302 1.258 . S
C295 N296 1.326 . S
C295 C299 1.460 . S
C295 H301 0.929 . S
N296 Mn289 2.257 . S
N296 C295 1.326 . S
N296 C300 1.362 . S
C297 C298 1.258 . S
C297 C300 1.431 . S
C297 C317 1.449 . S
C298 C297 1.258 . S
C298 C299 1.477 . S
C298 H318 0.931 . S
C299 C295 1.460 . S
C299 C298 1.477 . S
C299 H319 0.930 . S
C300 N296 1.362 . S
C300 C297 1.431 . S
C300 C310 1.476 . S
H301 C295 0.929 . S
C302 O293 1.250 . S
C302 O294 1.258 . S
O303 Mn288 2.162 . S
O303 C291 1.281 . S
O304 Mn288 2.297 . S
O304 C291 1.236 . S
N305 Mn289 2.282 . S
N305 C306 1.328 . S
N305 C310 1.318 . S
C306 N305 1.328 . S
C306 C307 1.457 . S
C306 H311 0.929 . S
C307 C306 1.457 . S
C307 C308 1.291 . S
C307 H320 0.931 . S
C308 C307 1.291 . S
C308 C309 1.373 . S
C308 H321 0.929 . S
C309 C308 1.373 . S
C309 C310 1.396 . S
C309 C316 1.403 . S
C310 C300 1.476 . S
C310 N305 1.318 . S
C310 C309 1.396 . S
H311 C306 0.929 . S
O312 Mn288 2.385 . S
O312 C290 1.234 . S
O313 Mn288 2.209 . S
O313 Mn289 2.215 . S
O313 C290 1.283 . S
O314 Mn288 2.094 . S
O314 C292 1.240 . S
O315 Mn289 2.117 . S
O315 C292 1.264 . S
C316 C309 1.403 . S
C316 C317 1.399 . S
C316 H322 0.929 . S
C317 C297 1.449 . S
C317 C316 1.399 . S
C317 H323 0.930 . S
H318 C298 0.931 . S
H319 C299 0.930 . S
H320 C307 0.931 . S
H321 C308 0.929 . S
H322 C316 0.929 . S
H323 C317 0.930 . S
C324 C325 1.391 . S
C324 C326 1.394 . S
C324 H340 0.931 . S
C325 C324 1.391 . S
C325 C329 1.376 . S
C326 C324 1.394 . S
C326 C327 1.369 . S
C326 C330 1.531 . S
C327 C326 1.369 . S
C327 C328 1.410 . S
C327 C335 1.503 . S
C328 C327 1.410 . S
C328 C329 1.392 . S
C328 C331 1.511 1_554 S
C329 C325 1.376 . S
C329 C328 1.392 . S
C329 H341 0.929 . S
C330 C326 1.531 . S
C330 H342 0.960 1_554 S
C330 H343 0.962 . S
C330 H344 0.960 1_554 S
C331 C328 1.511 1_556 S
C331 H345 0.961 1_556 S
C331 H346 0.961 1_556 S
C331 H347 0.961 . S
C332 C333 1.370 . S
C332 C334 1.363 . S
C332 H348 0.931 . S
C333 C332 1.370 . S
C333 C337 1.408 1_554 S
C334 C332 1.363 . S
C334 C335 1.370 . S
C334 C338 1.524 . S
C335 C327 1.503 . S
C335 C334 1.370 . S
C335 C336 1.403 1_554 S
C336 C335 1.403 1_556 S
C336 C337 1.404 . S
C336 C339 1.539 . S
C337 C333 1.408 1_556 S
C337 C336 1.404 . S
C337 H349 0.930 . S
C338 C334 1.524 . S
C338 H350 0.956 . S
C338 H351 0.961 . S
C338 H352 0.961 . S
C339 C336 1.539 . S
C339 H353 0.958 . S
C339 H354 0.961 . S
C339 H355 0.960 . S
H340 C324 0.931 . S
H341 C329 0.929 . S
H342 C330 0.960 1_556 S
H343 C330 0.962 . S
H344 C330 0.960 1_556 S
H345 C331 0.961 1_554 S
H346 C331 0.961 1_554 S
H347 C331 0.961 . S
H348 C332 0.931 . S
H349 C337 0.930 . S
H350 C338 0.956 . S
H351 C338 0.961 . S
H352 C338 0.961 . S
H353 C339 0.958 . S
H354 C339 0.961 . S
H355 C339 0.960 . S
C356 C357 1.391 . S
C356 C358 1.394 . S
C356 H372 0.931 . S
C357 C356 1.391 . S
C357 C361 1.376 1_554 S
C358 C356 1.394 . S
C358 C359 1.369 . S
C358 C362 1.531 . S
C359 C358 1.369 . S
C359 C360 1.410 1_554 S
C359 C367 1.503 1_565 S
C360 C359 1.410 1_556 S
C360 C361 1.392 . S
C360 C363 1.511 . S
C361 C357 1.376 1_556 S
C361 C360 1.392 . S
C361 H373 0.929 . S
C362 C358 1.531 . S
C362 H374 0.960 1_565 S
C362 H375 0.962 1_565 S
C362 H376 0.960 . S
C363 C360 1.511 . S
C363 H377 0.961 . S
C363 H378 0.961 1_565 S
C363 H379 0.961 . S
C364 C365 1.370 1_556 S
C364 C366 1.363 . S
C364 H380 0.931 . S
C365 C364 1.370 1_554 S
C365 C369 1.408 . S
C366 C364 1.363 . S
C366 C367 1.370 1_556 S
C366 C370 1.524 . S
C367 C359 1.503 1_545 S
C367 C366 1.370 1_554 S
C367 C368 1.403 . S
C368 C367 1.403 . S
C368 C369 1.404 . S
C368 C371 1.539 . S
C369 C365 1.408 . S
C369 C368 1.404 . S
C369 H381 0.930 . S
C370 C366 1.524 . S
C370 H382 0.956 . S
C370 H383 0.961 . S
C370 H384 0.961 . S
C371 C368 1.539 . S
C371 H385 0.958 . S
C371 H386 0.961 . S
C371 H387 0.960 . S
H372 C356 0.931 . S
H373 C361 0.929 . S
H374 C362 0.960 1_545 S
H375 C362 0.962 1_545 S
H376 C362 0.960 . S
H377 C363 0.961 . S
H378 C363 0.961 1_545 S
H379 C363 0.961 . S
H380 C364 0.931 . S
H381 C369 0.930 . S
H382 C370 0.956 . S
H383 C370 0.961 . S
H384 C370 0.961 . S
H385 C371 0.958 . S
H386 C371 0.961 . S
H387 C371 0.960 . S
C388 C389 1.391 1_556 S
C388 C390 1.394 . S
C388 H404 0.931 . S
C389 C388 1.391 1_554 S
C389 C393 1.376 . S
C390 C388 1.394 . S
C390 C391 1.369 1_556 S
C390 C394 1.531 . S
C391 C390 1.369 1_554 S
C391 C392 1.410 . S
C391 C399 1.503 1_655 S
C392 C391 1.410 . S
C392 C393 1.392 . S
C392 C395 1.511 . S
C393 C389 1.376 . S
C393 C392 1.392 . S
C393 H405 0.929 . S
C394 C390 1.531 . S
C394 H406 0.960 1_655 S
C394 H407 0.962 1_655 S
C394 H408 0.960 . S
C395 C392 1.511 . S
C395 H409 0.961 . S
C395 H410 0.961 1_655 S
C395 H411 0.961 . S
C396 C397 1.365 1_556 S
C396 C398 1.363 . S
C396 H412 0.936 . S
C397 C396 1.365 1_554 S
C397 C401 1.408 . S
C398 C396 1.363 . S
C398 C399 1.370 1_556 S
C398 C402 1.524 . S
C399 C391 1.503 1_455 S
C399 C398 1.370 1_554 S
C399 C400 1.403 . S
C400 C399 1.403 . S
C400 C401 1.404 . S
C400 C403 1.539 . S
C401 C397 1.408 . S
C401 C400 1.404 . S
C401 H413 0.930 . S
C402 C398 1.524 . S
C402 H414 0.956 . S
C402 H415 0.961 . S
C402 H416 0.961 . S
C403 C400 1.539 . S
C403 H417 0.958 . S
C403 H418 0.961 . S
C403 H419 0.960 . S
H404 C388 0.931 . S
H405 C393 0.929 . S
H406 C394 0.960 1_455 S
H407 C394 0.962 1_455 S
H408 C394 0.960 . S
H409 C395 0.961 . S
H410 C395 0.961 1_455 S
H411 C395 0.961 . S
H412 C396 0.936 . S
H413 C401 0.930 . S
H414 C402 0.956 . S
H415 C402 0.961 . S
H416 C402 0.961 . S
H417 C403 0.958 . S
H418 C403 0.961 . S
H419 C403 0.960 . S
C420 C421 1.391 . S
C420 C422 1.394 . S
C420 H436 0.931 . S
C421 C420 1.391 . S
C421 C425 1.376 . S
C422 C420 1.394 . S
C422 C423 1.369 . S
C422 C426 1.531 . S
C423 C422 1.369 . S
C423 C424 1.410 . S
C423 C431 1.503 . S
C424 C423 1.410 . S
C424 C425 1.392 . S
C424 C427 1.511 . S
C425 C421 1.376 . S
C425 C424 1.392 . S
C425 H437 0.929 . S
C426 C422 1.531 . S
C426 H438 0.960 . S
C426 H439 0.962 . S
C426 H440 0.960 . S
C427 C424 1.511 . S
C427 H441 0.961 . S
C427 H442 0.961 . S
C427 H443 0.961 . S
C428 C429 1.370 . S
C428 C430 1.363 . S
C428 H444 0.931 . S
C429 C428 1.370 . S
C429 C433 1.408 . S
C430 C428 1.363 . S
C430 C431 1.370 . S
C430 C434 1.524 . S
C431 C423 1.503 . S
C431 C430 1.370 . S
C431 C432 1.403 . S
C432 C431 1.403 . S
C432 C433 1.404 . S
C432 C435 1.539 . S
C433 C429 1.408 . S
C433 C432 1.404 . S
C433 H445 0.930 . S
C434 C430 1.524 . S
C434 H446 0.956 . S
C434 H447 0.961 . S
C434 H448 0.961 . S
C435 C432 1.539 . S
C435 H449 0.958 . S
C435 H450 0.961 . S
C435 H451 0.960 . S
H436 C420 0.931 . S
H437 C425 0.929 . S
H438 C426 0.960 . S
H439 C426 0.962 . S
H440 C426 0.960 . S
H441 C427 0.961 . S
H442 C427 0.961 . S
H443 C427 0.961 . S
H444 C428 0.931 . S
H445 C433 0.930 . S
H446 C434 0.956 . S
H447 C434 0.961 . S
H448 C434 0.961 . S
H449 C435 0.958 . S
H450 C435 0.961 . S
H451 C435 0.960 . S
C452 C453 1.391 . S
C452 C454 1.394 . S
C452 H468 0.931 . S
C453 C452 1.391 . S
C453 C457 1.376 . S
C454 C452 1.394 . S
C454 C455 1.369 . S
C454 C458 1.531 . S
C455 C454 1.369 . S
C455 C456 1.410 . S
C455 C463 1.503 . S
C456 C455 1.410 . S
C456 C457 1.392 . S
C456 C459 1.511 . S
C457 C453 1.376 . S
C457 C456 1.392 . S
C457 H469 0.929 . S
C458 C454 1.531 . S
C458 H470 0.960 . S
C458 H471 0.962 . S
C458 H472 0.960 . S
C459 C456 1.511 . S
C459 H473 0.961 . S
C459 H474 0.961 . S
C459 H475 0.961 . S
C460 C461 1.370 . S
C460 C462 1.363 . S
C460 H476 0.931 . S
C461 C460 1.370 . S
C461 C465 1.408 . S
C462 C460 1.363 . S
C462 C463 1.370 . S
C462 C466 1.524 . S
C463 C455 1.503 . S
C463 C462 1.370 . S
C463 C464 1.403 . S
C464 C463 1.403 . S
C464 C465 1.404 . S
C464 C467 1.539 . S
C465 C461 1.408 . S
C465 C464 1.404 . S
C465 H477 0.930 . S
C466 C462 1.524 . S
C466 H478 0.956 . S
C466 H479 0.961 . S
C466 H480 0.961 . S
C467 C464 1.539 . S
C467 H481 0.958 . S
C467 H482 0.961 . S
C467 H483 0.960 . S
H468 C452 0.931 . S
H469 C457 0.929 . S
H470 C458 0.960 . S
H471 C458 0.962 . S
H472 C458 0.960 . S
H473 C459 0.961 . S
H474 C459 0.961 . S
H475 C459 0.961 . S
H476 C460 0.931 . S
H477 C465 0.930 . S
H478 C466 0.956 . S
H479 C466 0.961 . S
H480 C466 0.961 . S
H481 C467 0.958 . S
H482 C467 0.961 . S
H483 C467 0.960 . S
C484 C485 1.391 . S
C484 C486 1.394 . S
C484 H500 0.931 . S
C485 C484 1.391 . S
C485 C489 1.376 . S
C486 C484 1.394 . S
C486 C487 1.369 . S
C486 C490 1.531 . S
C487 C486 1.369 . S
C487 C488 1.410 . S
C487 C495 1.503 . S
C488 C487 1.410 . S
C488 C489 1.392 . S
C488 C491 1.511 . S
C489 C485 1.376 . S
C489 C488 1.392 . S
C489 H501 0.929 . S
C490 C486 1.531 . S
C490 H502 0.960 . S
C490 H503 0.962 . S
C490 H504 0.960 . S
C491 C488 1.511 . S
C491 H505 0.961 . S
C491 H506 0.961 . S
C491 H507 0.961 . S
C492 C493 1.370 . S
C492 C494 1.363 . S
C492 H508 0.931 . S
C493 C492 1.370 . S
C493 C497 1.408 . S
C494 C492 1.363 . S
C494 C495 1.370 . S
C494 C498 1.524 . S
C495 C487 1.503 . S
C495 C494 1.370 . S
C495 C496 1.403 . S
C496 C495 1.403 . S
C496 C497 1.404 . S
C496 C499 1.539 . S
C497 C493 1.408 . S
C497 C496 1.404 . S
C497 H509 0.930 . S
C498 C494 1.524 . S
C498 H510 0.956 . S
C498 H511 0.961 . S
C498 H512 0.961 . S
C499 C496 1.539 . S
C499 H513 0.958 . S
C499 H514 0.961 . S
C499 H515 0.960 . S
H500 C484 0.931 . S
H501 C489 0.929 . S
H502 C490 0.960 . S
H503 C490 0.962 . S
H504 C490 0.960 . S
H505 C491 0.961 . S
H506 C491 0.961 . S
H507 C491 0.961 . S
H508 C492 0.931 . S
H509 C497 0.930 . S
H510 C498 0.956 . S
H511 C498 0.961 . S
H512 C498 0.961 . S
H513 C499 0.958 . S
H514 C499 0.961 . S
H515 C499 0.960 . S
C516 C517 1.391 . S
C516 C518 1.394 . S
C516 H532 0.931 . S
C517 C516 1.391 . S
C517 C521 1.376 . S
C518 C516 1.394 . S
C518 C519 1.369 . S
C518 C522 1.531 . S
C519 C518 1.369 . S
C519 C520 1.410 . S
C519 C527 1.503 . S
C520 C519 1.410 . S
C520 C521 1.392 . S
C520 C523 1.511 . S
C521 C517 1.376 . S
C521 C520 1.392 . S
C521 H533 0.929 . S
C522 C518 1.531 . S
C522 H534 0.960 . S
C522 H535 0.962 . S
C522 H536 0.960 . S
C523 C520 1.511 . S
C523 H537 0.961 . S
C523 H538 0.961 . S
C523 H539 0.961 . S
C524 C525 1.370 . S
C524 C526 1.363 . S
C524 H540 0.931 . S
C525 C524 1.370 . S
C525 C529 1.408 . S
C526 C524 1.363 . S
C526 C527 1.370 . S
C526 C530 1.524 . S
C527 C519 1.503 . S
C527 C526 1.370 . S
C527 C528 1.403 . S
C528 C527 1.403 . S
C528 C529 1.404 . S
C528 C531 1.539 . S
C529 C525 1.408 . S
C529 C528 1.404 . S
C529 H541 0.930 . S
C530 C526 1.524 . S
C530 H542 0.956 . S
C530 H543 0.961 . S
C530 H544 0.961 . S
C531 C528 1.539 . S
C531 H545 0.958 . S
C531 H546 0.961 . S
C531 H547 0.960 . S
H532 C516 0.931 . S
H533 C521 0.929 . S
H534 C522 0.960 . S
H535 C522 0.962 . S
H536 C522 0.960 . S
H537 C523 0.961 . S
H538 C523 0.961 . S
H539 C523 0.961 . S
H540 C524 0.931 . S
H541 C529 0.930 . S
H542 C530 0.956 . S
H543 C530 0.961 . S
H544 C530 0.961 . S
H545 C531 0.958 . S
H546 C531 0.961 . S
H547 C531 0.960 . S
C548 C549 1.391 . S
C548 C550 1.394 . S
C548 H564 0.931 . S
C549 C548 1.391 . S
C549 C553 1.376 . S
C550 C548 1.394 . S
C550 C551 1.369 . S
C550 C554 1.531 . S
C551 C550 1.369 . S
C551 C552 1.410 . S
C551 C559 1.503 . S
C552 C551 1.410 . S
C552 C553 1.392 . S
C552 C555 1.511 . S
C553 C549 1.376 . S
C553 C552 1.392 . S
C553 H565 0.929 . S
C554 C550 1.531 . S
C554 H566 0.960 . S
C554 H567 0.962 . S
C554 H568 0.960 . S
C555 C552 1.511 . S
C555 H569 0.961 . S
C555 H570 0.961 . S
C555 H571 0.961 . S
C556 C557 1.370 . S
C556 C558 1.363 . S
C556 H572 0.931 . S
C557 C556 1.370 . S
C557 C561 1.408 . S
C558 C556 1.363 . S
C558 C559 1.370 . S
C558 C562 1.524 . S
C559 C551 1.503 . S
C559 C558 1.370 . S
C559 C560 1.403 . S
C560 C559 1.403 . S
C560 C561 1.404 . S
C560 C563 1.539 . S
C561 C557 1.408 . S
C561 C560 1.404 . S
C561 H573 0.930 . S
C562 C558 1.524 . S
C562 H574 0.956 . S
C562 H575 0.961 . S
C562 H576 0.961 . S
C563 C560 1.539 . S
C563 H577 0.958 . S
C563 H578 0.961 . S
C563 H579 0.960 . S
H564 C548 0.931 . S
H565 C553 0.929 . S
H566 C554 0.960 . S
H567 C554 0.962 . S
H568 C554 0.960 . S
H569 C555 0.961 . S
H570 C555 0.961 . S
H571 C555 0.961 . S
H572 C556 0.931 . S
H573 C561 0.930 . S
H574 C562 0.956 . S
H575 C562 0.961 . S
H576 C562 0.961 . S
H577 C563 0.958 . S
H578 C563 0.961 . S
H579 C563 0.960 . S
C580 C581 1.391 . S
C580 C582 1.394 . S
C580 H596 0.931 . S
C581 C580 1.391 . S
C581 C585 1.376 . S
C582 C580 1.394 . S
C582 C583 1.369 . S
C582 C586 1.531 . S
C583 C582 1.369 . S
C583 C584 1.410 . S
C583 C591 1.503 . S
C584 C583 1.410 . S
C584 C585 1.392 . S
C584 C587 1.511 . S
C585 C581 1.376 . S
C585 C584 1.392 . S
C585 H597 0.929 . S
C586 C582 1.531 . S
C586 H598 0.960 . S
C586 H599 0.962 . S
C586 H600 0.960 . S
C587 C584 1.511 . S
C587 H601 0.961 . S
C587 H602 0.961 . S
C587 H603 0.961 . S
C588 C589 1.370 . S
C588 C590 1.363 . S
C588 H604 0.931 . S
C589 C588 1.370 . S
C589 C593 1.408 . S
C590 C588 1.363 . S
C590 C591 1.370 . S
C590 C594 1.524 . S
C591 C583 1.503 . S
C591 C590 1.370 . S
C591 C592 1.403 . S
C592 C591 1.403 . S
C592 C593 1.404 . S
C592 C595 1.539 . S
C593 C589 1.408 . S
C593 C592 1.404 . S
C593 H605 0.930 . S
C594 C590 1.524 . S
C594 H606 0.956 . S
C594 H607 0.961 . S
C594 H608 0.961 . S
C595 C592 1.539 . S
C595 H609 0.958 . S
C595 H610 0.961 . S
C595 H611 0.960 . S
H596 C580 0.931 . S
H597 C585 0.929 . S
H598 C586 0.960 . S
H599 C586 0.962 . S
H600 C586 0.960 . S
H601 C587 0.961 . S
H602 C587 0.961 . S
H603 C587 0.961 . S
H604 C588 0.931 . S
H605 C593 0.930 . S
H606 C594 0.956 . S
H607 C594 0.961 . S
H608 C594 0.961 . S
H609 C595 0.958 . S
H610 C595 0.961 . S
H611 C595 0.960 . S
C612 C613 1.391 . S
C612 C614 1.394 . S
C612 H628 0.931 . S
C613 C612 1.391 . S
C613 C617 1.376 . S
C614 C612 1.394 . S
C614 C615 1.369 . S
C614 C618 1.531 . S
C615 C614 1.369 . S
C615 C616 1.410 . S
C615 C623 1.503 . S
C616 C615 1.410 . S
C616 C617 1.392 . S
C616 C619 1.511 . S
C617 C613 1.376 . S
C617 C616 1.392 . S
C617 H629 0.929 . S
C618 C614 1.531 . S
C618 H630 0.960 . S
C618 H631 0.962 . S
C618 H632 0.960 . S
C619 C616 1.511 . S
C619 H633 0.961 . S
C619 H634 0.961 . S
C619 H635 0.961 . S
C620 C621 1.370 . S
C620 C622 1.363 . S
C620 H636 0.931 . S
C621 C620 1.370 . S
C621 C625 1.408 . S
C622 C620 1.363 . S
C622 C623 1.370 . S
C622 C626 1.524 . S
C623 C615 1.503 . S
C623 C622 1.370 . S
C623 C624 1.403 . S
C624 C623 1.403 . S
C624 C625 1.404 . S
C624 C627 1.539 . S
C625 C621 1.408 . S
C625 C624 1.404 . S
C625 H637 0.930 . S
C626 C622 1.524 . S
C626 H638 0.956 . S
C626 H639 0.961 . S
C626 H640 0.961 . S
C627 C624 1.539 . S
C627 H641 0.958 . S
C627 H642 0.961 . S
C627 H643 0.960 . S
H628 C612 0.931 . S
H629 C617 0.929 . S
H630 C618 0.960 . S
H631 C618 0.962 . S
H632 C618 0.960 . S
H633 C619 0.961 . S
H634 C619 0.961 . S
H635 C619 0.961 . S
H636 C620 0.931 . S
H637 C625 0.930 . S
H638 C626 0.956 . S
H639 C626 0.961 . S
H640 C626 0.961 . S
H641 C627 0.958 . S
H642 C627 0.961 . S
H643 C627 0.960 . S
C644 C645 1.391 . S
C644 C646 1.394 . S
C644 H660 0.931 . S
C645 C644 1.391 . S
C645 C649 1.376 . S
C646 C644 1.394 . S
C646 C647 1.369 . S
C646 C650 1.531 . S
C647 C646 1.369 . S
C647 C648 1.410 . S
C647 C655 1.503 . S
C648 C647 1.410 . S
C648 C649 1.392 . S
C648 C651 1.511 . S
C649 C645 1.376 . S
C649 C648 1.392 . S
C649 H661 0.929 . S
C650 C646 1.531 . S
C650 H662 0.960 . S
C650 H663 0.962 . S
C650 H664 0.960 . S
C651 C648 1.511 . S
C651 H665 0.961 . S
C651 H666 0.961 . S
C651 H667 0.961 . S
C652 C653 1.370 . S
C652 C654 1.363 . S
C652 H668 0.931 . S
C653 C652 1.370 . S
C653 C657 1.408 . S
C654 C652 1.363 . S
C654 C655 1.370 . S
C654 C658 1.524 . S
C655 C647 1.503 . S
C655 C654 1.370 . S
C655 C656 1.403 . S
C656 C655 1.403 . S
C656 C657 1.404 . S
C656 C659 1.539 . S
C657 C653 1.408 . S
C657 C656 1.404 . S
C657 H669 0.930 . S
C658 C654 1.524 . S
C658 H670 0.956 . S
C658 H671 0.961 . S
C658 H672 0.961 . S
C659 C656 1.539 . S
C659 H673 0.958 . S
C659 H674 0.961 . S
C659 H675 0.960 . S
H660 C644 0.931 . S
H661 C649 0.929 . S
H662 C650 0.960 . S
H663 C650 0.962 . S
H664 C650 0.960 . S
H665 C651 0.961 . S
H666 C651 0.961 . S
H667 C651 0.961 . S
H668 C652 0.931 . S
H669 C657 0.930 . S
H670 C658 0.956 . S
H671 C658 0.961 . S
H672 C658 0.961 . S
H673 C659 0.958 . S
H674 C659 0.961 . S
H675 C659 0.960 . S
C676 C677 1.391 . S
C676 C678 1.394 . S
C676 H692 0.931 . S
C677 C676 1.391 . S
C677 C681 1.376 . S
C678 C676 1.394 . S
C678 C679 1.369 . S
C678 C682 1.531 . S
C679 C678 1.369 . S
C679 C680 1.410 . S
C679 C687 1.503 . S
C680 C679 1.410 . S
C680 C681 1.392 . S
C680 C683 1.511 . S
C681 C677 1.376 . S
C681 C680 1.392 . S
C681 H693 0.929 . S
C682 C678 1.531 . S
C682 H694 0.960 . S
C682 H695 0.962 . S
C682 H696 0.960 . S
C683 C680 1.511 . S
C683 H697 0.961 . S
C683 H698 0.961 . S
C683 H699 0.961 . S
C684 C685 1.370 . S
C684 C686 1.363 . S
C684 H700 0.931 . S
C685 C684 1.370 . S
C685 C689 1.408 . S
C686 C684 1.363 . S
C686 C687 1.370 . S
C686 C690 1.524 . S
C687 C679 1.503 . S
C687 C686 1.370 . S
C687 C688 1.403 . S
C688 C687 1.403 . S
C688 C689 1.404 . S
C688 C691 1.539 1_565 S
C689 C685 1.408 . S
C689 C688 1.404 . S
C689 H701 0.930 1_565 S
C690 C686 1.524 . S
C690 H702 0.956 . S
C690 H703 0.961 . S
C690 H704 0.961 . S
C691 C688 1.539 1_545 S
C691 H705 0.958 . S
C691 H706 0.961 . S
C691 H707 0.960 1_545 S
H692 C676 0.931 . S
H693 C681 0.929 . S
H694 C682 0.960 . S
H695 C682 0.962 . S
H696 C682 0.960 . S
H697 C683 0.961 . S
H698 C683 0.961 . S
H699 C683 0.961 . S
H700 C684 0.931 . S
H701 C689 0.930 1_545 S
H702 C690 0.956 . S
H703 C690 0.961 . S
H704 C690 0.961 . S
H705 C691 0.958 . S
H706 C691 0.961 . S
H707 C691 0.960 1_565 S
C708 C709 1.391 . S
C708 C710 1.394 . S
C708 H724 0.931 . S
C709 C708 1.391 . S
C709 C713 1.376 . S
C710 C708 1.394 . S
C710 C711 1.369 . S
C710 C714 1.531 . S
C711 C710 1.369 . S
C711 C712 1.410 . S
C711 C719 1.503 . S
C712 C711 1.410 . S
C712 C713 1.392 . S
C712 C715 1.511 . S
C713 C709 1.376 . S
C713 C712 1.392 . S
C713 H725 0.929 . S
C714 C710 1.531 . S
C714 H726 0.960 . S
C714 H727 0.962 . S
C714 H728 0.960 . S
C715 C712 1.511 . S
C715 H729 0.961 . S
C715 H730 0.961 . S
C715 H731 0.961 . S
C716 C717 1.370 . S
C716 C718 1.363 . S
C716 H732 0.931 . S
C717 C716 1.370 . S
C717 C721 1.408 . S
C718 C716 1.363 . S
C718 C719 1.370 . S
C718 C722 1.524 . S
C719 C711 1.503 . S
C719 C718 1.370 . S
C719 C720 1.403 . S
C720 C719 1.403 . S
C720 C721 1.404 . S
C720 C723 1.539 . S
C721 C717 1.408 . S
C721 C720 1.404 . S
C721 H733 0.930 . S
C722 C718 1.524 . S
C722 H734 0.956 . S
C722 H735 0.961 . S
C722 H736 0.961 1_545 S
C723 C720 1.539 . S
C723 H737 0.958 . S
C723 H738 0.961 . S
C723 H739 0.960 . S
H724 C708 0.931 . S
H725 C713 0.929 . S
H726 C714 0.960 . S
H727 C714 0.962 . S
H728 C714 0.960 . S
H729 C715 0.961 . S
H730 C715 0.961 . S
H731 C715 0.961 . S
H732 C716 0.931 . S
H733 C721 0.930 . S
H734 C722 0.956 . S
H735 C722 0.961 . S
H736 C722 0.961 1_565 S
H737 C723 0.958 . S
H738 C723 0.961 . S
H739 C723 0.960 . S
C740 C741 1.391 . S
C740 C742 1.394 . S
C740 H756 0.931 . S
C741 C740 1.391 . S
C741 C745 1.376 . S
C742 C740 1.394 . S
C742 C743 1.369 . S
C742 C746 1.531 . S
C743 C742 1.369 . S
C743 C744 1.410 . S
C743 C751 1.503 . S
C744 C743 1.410 . S
C744 C745 1.392 . S
C744 C747 1.509 . S
C745 C741 1.376 . S
C745 C744 1.392 . S
C745 H757 0.929 1_655 S
C746 C742 1.531 . S
C746 H758 0.960 . S
C746 H759 0.962 . S
C746 H760 0.960 . S
C747 C744 1.509 . S
C747 H761 0.960 1_655 S
C747 H762 0.972 . S
C747 H763 0.952 1_655 S
C748 C749 1.370 . S
C748 C750 1.363 . S
C748 H764 0.931 . S
C749 C748 1.370 . S
C749 C753 1.408 . S
C750 C748 1.363 . S
C750 C751 1.370 . S
C750 C754 1.524 . S
C751 C743 1.503 . S
C751 C750 1.370 . S
C751 C752 1.403 . S
C752 C751 1.403 . S
C752 C753 1.404 . S
C752 C755 1.513 1_655 S
C753 C749 1.408 . S
C753 C752 1.404 . S
C753 H765 0.930 . S
C754 C750 1.524 . S
C754 H766 0.956 . S
C754 H767 0.961 . S
C754 H768 0.961 . S
C755 C752 1.513 1_455 S
C755 H769 0.966 1_455 S
C755 H770 0.966 . S
C755 H771 0.974 . S
H756 C740 0.931 . S
H757 C745 0.929 1_455 S
H758 C746 0.960 . S
H759 C746 0.962 . S
H760 C746 0.960 . S
H761 C747 0.960 1_455 S
H762 C747 0.972 . S
H763 C747 0.952 1_455 S
H764 C748 0.931 . S
H765 C753 0.930 . S
H766 C754 0.956 . S
H767 C754 0.961 . S
H768 C754 0.961 . S
H769 C755 0.966 1_655 S
H770 C755 0.966 . S
H771 C755 0.974 . S
C772 C773 1.391 . S
C772 C774 1.394 . S
C772 H788 0.931 . S
C773 C772 1.391 . S
C773 C777 1.376 . S
C774 C772 1.394 . S
C774 C775 1.369 . S
C774 C778 1.531 . S
C775 C774 1.369 . S
C775 C776 1.410 . S
C775 C783 1.503 . S
C776 C775 1.410 . S
C776 C777 1.392 . S
C776 C779 1.511 . S
C777 C773 1.376 . S
C777 C776 1.392 . S
C777 H789 0.929 . S
C778 C774 1.531 . S
C778 H790 0.960 . S
C778 H791 0.962 . S
C778 H792 0.960 . S
C779 C776 1.511 . S
C779 H793 0.961 . S
C779 H794 0.961 . S
C779 H795 0.961 . S
C780 C781 1.370 . S
C780 C782 1.363 . S
C780 H796 0.931 . S
C781 C780 1.370 . S
C781 C785 1.408 . S
C782 C780 1.363 . S
C782 C783 1.370 . S
C782 C786 1.524 . S
C783 C775 1.503 . S
C783 C782 1.370 . S
C783 C784 1.403 . S
C784 C783 1.403 . S
C784 C785 1.404 . S
C784 C787 1.539 . S
C785 C781 1.408 . S
C785 C784 1.404 . S
C785 H797 0.930 . S
C786 C782 1.524 . S
C786 H798 0.956 . S
C786 H799 0.961 . S
C786 H800 0.961 . S
C787 C784 1.539 . S
C787 H801 0.958 . S
C787 H802 0.961 . S
C787 H803 0.960 . S
H788 C772 0.931 . S
H789 C777 0.929 . S
H790 C778 0.960 . S
H791 C778 0.962 . S
H792 C778 0.960 . S
H793 C779 0.961 . S
H794 C779 0.961 . S
H795 C779 0.961 . S
H796 C780 0.931 . S
H797 C785 0.930 . S
H798 C786 0.956 . S
H799 C786 0.961 . S
H800 C786 0.961 . S
H801 C787 0.958 . S
H802 C787 0.961 . S
H803 C787 0.960 . S
C804 C805 1.391 . S
C804 C806 1.394 . S
C804 H820 0.931 . S
C805 C804 1.391 . S
C805 C809 1.376 . S
C806 C804 1.394 . S
C806 C807 1.369 . S
C806 C810 1.531 . S
C807 C806 1.369 . S
C807 C808 1.410 . S
C807 C815 1.503 . S
C808 C807 1.410 . S
C808 C809 1.392 . S
C808 C811 1.511 1_455 S
C809 C805 1.376 . S
C809 C808 1.392 . S
C809 H821 0.929 . S
C810 C806 1.531 . S
C810 H822 0.960 . S
C810 H823 0.962 . S
C810 H824 0.960 . S
C811 C808 1.511 1_655 S
C811 H825 0.961 . S
C811 H826 0.961 . S
C811 H827 0.961 . S
C812 C813 1.370 . S
C812 C814 1.344 1_655 S
C812 H828 0.931 . S
C813 C812 1.370 . S
C813 C817 1.408 . S
C814 C812 1.344 1_455 S
C814 C815 1.391 . S
C814 C818 1.524 . S
C815 C807 1.503 . S
C815 C814 1.391 . S
C815 C816 1.403 1_455 S
C816 C815 1.403 1_655 S
C816 C817 1.404 . S
C816 C819 1.551 . S
C817 C813 1.408 . S
C817 C816 1.404 . S
C817 H829 0.930 . S
C818 C814 1.524 . S
C818 H830 0.956 . S
C818 H831 0.961 . S
C818 H832 0.961 . S
C819 C816 1.551 . S
C819 H833 0.941 1_655 S
C819 H834 0.971 . S
C819 H835 0.956 1_655 S
H820 C804 0.931 . S
H821 C809 0.929 . S
H822 C810 0.960 . S
H823 C810 0.962 . S
H824 C810 0.960 . S
H825 C811 0.961 . S
H826 C811 0.961 . S
H827 C811 0.961 . S
H828 C812 0.931 . S
H829 C817 0.930 . S
H830 C818 0.956 . S
H831 C818 0.961 . S
H832 C818 0.961 . S
H833 C819 0.941 1_455 S
H834 C819 0.971 . S
H835 C819 0.956 1_455 S
C836 C837 1.391 . S
C836 C838 1.394 . S
C836 H852 0.931 . S
C837 C836 1.391 . S
C837 C841 1.376 . S
C838 C836 1.394 . S
C838 C839 1.369 . S
C838 C842 1.531 . S
C839 C838 1.369 . S
C839 C840 1.410 . S
C839 C847 1.503 . S
C840 C839 1.410 . S
C840 C841 1.392 . S
C840 C843 1.511 . S
C841 C837 1.376 . S
C841 C840 1.392 . S
C841 H853 0.929 . S
C842 C838 1.531 . S
C842 H854 0.960 . S
C842 H855 0.962 . S
C842 H856 0.960 . S
C843 C840 1.511 . S
C843 H857 0.961 . S
C843 H858 0.961 . S
C843 H859 0.961 . S
C844 C845 1.370 . S
C844 C846 1.363 . S
C844 H860 0.931 . S
C845 C844 1.370 . S
C845 C849 1.408 . S
C846 C844 1.363 . S
C846 C847 1.370 . S
C846 C850 1.524 . S
C847 C839 1.503 . S
C847 C846 1.370 . S
C847 C848 1.403 . S
C848 C847 1.403 . S
C848 C849 1.404 . S
C848 C851 1.539 . S
C849 C845 1.408 . S
C849 C848 1.404 . S
C849 H861 0.930 . S
C850 C846 1.524 . S
C850 H862 0.956 . S
C850 H863 0.961 . S
C850 H864 0.961 . S
C851 C848 1.539 . S
C851 H865 0.958 . S
C851 H866 0.961 . S
C851 H867 0.960 . S
H852 C836 0.931 . S
H853 C841 0.929 . S
H854 C842 0.960 . S
H855 C842 0.962 . S
H856 C842 0.960 . S
H857 C843 0.961 . S
H858 C843 0.961 . S
H859 C843 0.961 . S
H860 C844 0.931 . S
H861 C849 0.930 . S
H862 C850 0.956 . S
H863 C850 0.961 . S
H864 C850 0.961 . S
H865 C851 0.958 . S
H866 C851 0.961 . S
H867 C851 0.960 . S
C868 C869 1.391 . S
C868 C870 1.394 . S
C868 H884 0.931 . S
C869 C868 1.391 . S
C869 C873 1.376 . S
C870 C868 1.394 . S
C870 C871 1.369 1_565 S
C870 C874 1.531 . S
C871 C870 1.369 1_545 S
C871 C872 1.410 . S
C871 C879 1.503 . S
C872 C871 1.410 . S
C872 C873 1.392 1_545 S
C872 C875 1.511 . S
C873 C869 1.376 . S
C873 C872 1.392 1_565 S
C873 H885 0.929 . S
C874 C870 1.531 . S
C874 H886 0.960 . S
C874 H887 0.962 . S
C874 H888 0.960 . S
C875 C872 1.511 . S
C875 H889 0.961 . S
C875 H890 0.961 . S
C875 H891 0.961 . S
C876 C877 1.370 . S
C876 C878 1.363 . S
C876 H892 0.931 . S
C877 C876 1.370 . S
C877 C881 1.408 . S
C878 C876 1.363 . S
C878 C879 1.370 . S
C878 C882 1.524 1_545 S
C879 C871 1.503 . S
C879 C878 1.370 . S
C879 C880 1.403 . S
C880 C879 1.403 . S
C880 C881 1.404 . S
C880 C883 1.539 . S
C881 C877 1.408 . S
C881 C880 1.404 . S
C881 H893 0.930 . S
C882 C878 1.524 1_565 S
C882 H894 0.956 . S
C882 H895 0.961 . S
C882 H896 0.961 . S
C883 C880 1.539 . S
C883 H897 0.958 . S
C883 H898 0.961 . S
C883 H899 0.960 . S
H884 C868 0.931 . S
H885 C873 0.929 . S
H886 C874 0.960 . S
H887 C874 0.962 . S
H888 C874 0.960 . S
H889 C875 0.961 . S
H890 C875 0.961 . S
H891 C875 0.961 . S
H892 C876 0.931 . S
H893 C881 0.930 . S
H894 C882 0.956 . S
H895 C882 0.961 . S
H896 C882 0.961 . S
H897 C883 0.958 . S
H898 C883 0.961 . S
H899 C883 0.960 . S
C325 C75 0.997 . S
C333 C2 0.952 . S
C357 C39 0.994 . S
C365 C3 0.993 . S
C389 C38 0.980 . S
C397 C74 1.032 . S
C421 C182 1.033 . S
C429 C110 1.062 . S
C453 C147 0.966 . S
C461 C111 0.970 . S
C485 C146 0.922 . S
C493 C183 0.993 . S
C517 C218 1.031 . S
C525 C291 1.021 . S
C549 C219 0.911 . S
C557 C255 0.906 . S
C581 C254 1.069 . S
C589 C290 1.071 . S
C613 C4 1.388 . S
C621 C256 1.385 . S
C645 C50 1.344 . S
C653 C302 1.359 . S
C677 C230 1.307 . S
C685 C76 1.353 . S
C709 C158 1.328 . S
C717 C86 1.315 . S
C741 C14 1.321 1_655 S
C749 C194 1.327 . S
C773 C112 1.398 . S
C781 C40 1.401 . S
C805 C266 1.328 . S
C813 C184 1.386 . S
C837 C122 1.361 . S
C845 C292 1.409 . S
C869 C220 1.366 . S
C877 C148 1.372 . S
