# Generated by pormake.
# Topology bcs, (6)-cn, num edge types: 1
# Building blocks:
#     Node 0, Type 0, BuildingBlock: GEDQOX_clean_sbu_0, # of connection points: 6
#     Node 1, Type 0, BuildingBlock: GEDQOX_clean_sbu_0, # of connection points: 6
#     Node 2, Type 0, BuildingBlock: GEDQOX_clean_sbu_0, # of connection points: 6
#     Node 3, Type 0, BuildingBlock: GEDQOX_clean_sbu_0, # of connection points: 6
#     Node 4, Type 0, BuildingBlock: GEDQOX_clean_sbu_0, # of connection points: 6
#     Node 5, Type 0, BuildingBlock: GEDQOX_clean_sbu_0, # of connection points: 6
#     Node 6, Type 0, BuildingBlock: GEDQOX_clean_sbu_0, # of connection points: 6
#     Node 7, Type 0, BuildingBlock: GEDQOX_clean_sbu_0, # of connection points: 6
#     Node 8, Type 0, BuildingBlock: GEDQOX_clean_sbu_0, # of connection points: 6
#     Node 9, Type 0, BuildingBlock: GEDQOX_clean_sbu_0, # of connection points: 6
#     Node 10, Type 0, BuildingBlock: GEDQOX_clean_sbu_0, # of connection points: 6
#     Node 11, Type 0, BuildingBlock: GEDQOX_clean_sbu_0, # of connection points: 6
#     Node 12, Type 0, BuildingBlock: GEDQOX_clean_sbu_0, # of connection points: 6
#     Node 13, Type 0, BuildingBlock: GEDQOX_clean_sbu_0, # of connection points: 6
#     Node 14, Type 0, BuildingBlock: GEDQOX_clean_sbu_0, # of connection points: 6
#     Node 15, Type 0, BuildingBlock: GEDQOX_clean_sbu_0, # of connection points: 6
#     Edge 16, Type (0, 0), BuildingBlock: XIVTED_clean_linker_0, # of connection points: 2
#     Edge 17, Type (0, 0), BuildingBlock: XIVTED_clean_linker_0, # of connection points: 2
#     Edge 18, Type (0, 0), BuildingBlock: XIVTED_clean_linker_0, # of connection points: 2
#     Edge 19, Type (0, 0), BuildingBlock: XIVTED_clean_linker_0, # of connection points: 2
#     Edge 20, Type (0, 0), BuildingBlock: XIVTED_clean_linker_0, # of connection points: 2
#     Edge 21, Type (0, 0), BuildingBlock: XIVTED_clean_linker_0, # of connection points: 2
#     Edge 22, Type (0, 0), BuildingBlock: XIVTED_clean_linker_0, # of connection points: 2
#     Edge 23, Type (0, 0), BuildingBlock: XIVTED_clean_linker_0, # of connection points: 2
#     Edge 24, Type (0, 0), BuildingBlock: XIVTED_clean_linker_0, # of connection points: 2
#     Edge 25, Type (0, 0), BuildingBlock: XIVTED_clean_linker_0, # of connection points: 2
#     Edge 26, Type (0, 0), BuildingBlock: XIVTED_clean_linker_0, # of connection points: 2
#     Edge 27, Type (0, 0), BuildingBlock: XIVTED_clean_linker_0, # of connection points: 2
#     Edge 28, Type (0, 0), BuildingBlock: XIVTED_clean_linker_0, # of connection points: 2
#     Edge 29, Type (0, 0), BuildingBlock: XIVTED_clean_linker_0, # of connection points: 2
#     Edge 30, Type (0, 0), BuildingBlock: XIVTED_clean_linker_0, # of connection points: 2
#     Edge 31, Type (0, 0), BuildingBlock: XIVTED_clean_linker_0, # of connection points: 2
#     Edge 32, Type (0, 0), BuildingBlock: XIVTED_clean_linker_0, # of connection points: 2
#     Edge 33, Type (0, 0), BuildingBlock: XIVTED_clean_linker_0, # of connection points: 2
#     Edge 34, Type (0, 0), BuildingBlock: XIVTED_clean_linker_0, # of connection points: 2
#     Edge 35, Type (0, 0), BuildingBlock: XIVTED_clean_linker_0, # of connection points: 2
#     Edge 36, Type (0, 0), BuildingBlock: XIVTED_clean_linker_0, # of connection points: 2
#     Edge 37, Type (0, 0), BuildingBlock: XIVTED_clean_linker_0, # of connection points: 2
#     Edge 38, Type (0, 0), BuildingBlock: XIVTED_clean_linker_0, # of connection points: 2
#     Edge 39, Type (0, 0), BuildingBlock: XIVTED_clean_linker_0, # of connection points: 2
#     Edge 40, Type (0, 0), BuildingBlock: XIVTED_clean_linker_0, # of connection points: 2
#     Edge 41, Type (0, 0), BuildingBlock: XIVTED_clean_linker_0, # of connection points: 2
#     Edge 42, Type (0, 0), BuildingBlock: XIVTED_clean_linker_0, # of connection points: 2
#     Edge 43, Type (0, 0), BuildingBlock: XIVTED_clean_linker_0, # of connection points: 2
#     Edge 44, Type (0, 0), BuildingBlock: XIVTED_clean_linker_0, # of connection points: 2
#     Edge 45, Type (0, 0), BuildingBlock: XIVTED_clean_linker_0, # of connection points: 2
#     Edge 46, Type (0, 0), BuildingBlock: XIVTED_clean_linker_0, # of connection points: 2
#     Edge 47, Type (0, 0), BuildingBlock: XIVTED_clean_linker_0, # of connection points: 2
#     Edge 48, Type (0, 0), BuildingBlock: XIVTED_clean_linker_0, # of connection points: 2
#     Edge 49, Type (0, 0), BuildingBlock: XIVTED_clean_linker_0, # of connection points: 2
#     Edge 50, Type (0, 0), BuildingBlock: XIVTED_clean_linker_0, # of connection points: 2
#     Edge 51, Type (0, 0), BuildingBlock: XIVTED_clean_linker_0, # of connection points: 2
#     Edge 52, Type (0, 0), BuildingBlock: XIVTED_clean_linker_0, # of connection points: 2
#     Edge 53, Type (0, 0), BuildingBlock: XIVTED_clean_linker_0, # of connection points: 2
#     Edge 54, Type (0, 0), BuildingBlock: XIVTED_clean_linker_0, # of connection points: 2
#     Edge 55, Type (0, 0), BuildingBlock: XIVTED_clean_linker_0, # of connection points: 2
#     Edge 56, Type (0, 0), BuildingBlock: XIVTED_clean_linker_0, # of connection points: 2
#     Edge 57, Type (0, 0), BuildingBlock: XIVTED_clean_linker_0, # of connection points: 2
#     Edge 58, Type (0, 0), BuildingBlock: XIVTED_clean_linker_0, # of connection points: 2
#     Edge 59, Type (0, 0), BuildingBlock: XIVTED_clean_linker_0, # of connection points: 2
#     Edge 60, Type (0, 0), BuildingBlock: XIVTED_clean_linker_0, # of connection points: 2
#     Edge 61, Type (0, 0), BuildingBlock: XIVTED_clean_linker_0, # of connection points: 2
#     Edge 62, Type (0, 0), BuildingBlock: XIVTED_clean_linker_0, # of connection points: 2
#     Edge 63, Type (0, 0), BuildingBlock: XIVTED_clean_linker_0, # of connection points: 2
# Relax obj value: 0.396
# Max RMSD: 0.319
# Mean RMSD: 0.229
data_MOF--net-bcs--node1-GEDQOX_clean_sbu_0--edge1-XIVTED_clean_linker_0
_symmetry_space_group_name_H-M    P1
_symmetry_Int_Tables_number       1
_symmetry_cell_setting            triclinic
loop_
_symmetry_equiv_pos_as_xyz
'x, y, z'
_cell_length_a     41.928588
_cell_length_b     43.104065
_cell_length_c     41.284179
_cell_angle_alpha  119.24107
_cell_angle_beta   92.576358
_cell_angle_gamma 95.286517
loop_
_atom_site_label
_atom_site_type_symbol
_atom_site_fract_x
_atom_site_fract_y
_atom_site_fract_z
_atom_type_partial_charge
Nd0 Nd 0.0558 1.02389 0.03697 0.0
Nd1 Nd 1.00995 1.02371 0.97141 0.0
C2 C 0.10371 0.0265 0.08406 0.0
C3 C 0.11673 1.00353 0.09861 0.0
C4 C 0.11023 0.96578 0.07907 0.0
C5 C 0.12388 0.94492 0.09269 0.0
C6 C 0.14465 0.96095 0.12637 0.0
C7 C 0.15087 0.99885 0.14577 0.0
C8 C 0.13719 1.01961 0.13218 0.0
C9 C 1.00102 0.97487 0.01989 0.0
C10 C 0.06477 0.96723 0.94791 0.0
C11 C 0.96168 1.021 0.92482 0.0
C12 C 0.94717 0.04479 0.91213 0.0
C13 C 0.92638 0.06945 0.9336 0.0
C14 C 0.91129 0.08986 0.92052 0.0
C15 C 0.91617 0.08647 0.8853 0.0
C16 C 0.93717 0.06189 0.86399 0.0
C17 C 0.95224 0.04147 0.87708 0.0
C18 C 0.06456 0.0729 0.98827 0.0
C19 C 1.00093 0.08064 0.0603 0.0
O20 O 0.10631 1.0171 0.04907 0.0
O21 O 0.07641 0.0389 0.09465 0.0
O22 O 1.02525 0.98071 0.04332 0.0
O23 O 1.007 0.99354 1.00407 0.0
O24 O 0.07646 0.98419 0.98348 0.0
O25 O 0.03763 0.9746 0.93644 0.0
O26 O 0.95846 0.02722 0.95882 0.0
O27 O 0.9897 1.01071 0.91432 0.0
O28 O 0.04016 0.06691 0.96497 0.0
O29 O 0.05899 0.05427 1.00428 0.0
O30 O 0.9896 0.06406 0.02465 0.0
O31 O 1.02779 0.0729 0.07194 0.0
H32 H 0.09462 0.95232 0.05311 0.0
H33 H 0.11777 0.91608 0.07678 0.0
H34 H 0.16696 1.0128 0.1713 0.0
H35 H 0.14302 0.04852 0.14789 0.0
H36 H 0.92132 0.07272 0.96051 0.0
H37 H 0.8951 0.10776 0.93791 0.0
H38 H 0.94227 0.05844 0.83705 0.0
H39 H 0.96775 1.0227 0.85941 0.0
Nd40 Nd 0.26598 0.80033 0.29883 0.0
Nd41 Nd 0.28503 0.74824 0.2228 0.0
C42 C 0.26189 0.84581 0.36986 0.0
C43 C 0.27319 0.84728 0.40477 0.0
C44 C 0.3004 0.83135 0.40673 0.0
C45 C 0.30442 0.82099 0.43372 0.0
C46 C 0.28074 0.82547 0.45826 0.0
C47 C 0.25617 0.84612 0.45941 0.0
C48 C 0.25246 0.85689 0.4328 0.0
C49 C 0.21787 0.74839 0.25039 0.0
C50 C 0.30369 0.73262 0.29193 0.0
C51 C 0.29209 0.69522 0.15609 0.0
C52 C 0.29911 0.6945 0.12106 0.0
C53 C 0.27742 0.70537 0.10279 0.0
C54 C 0.28802 0.71554 0.07737 0.0
C55 C 0.32054 0.71563 0.07041 0.0
C56 C 0.34081 0.69984 0.08462 0.0
C57 C 0.33007 0.68917 0.10959 0.0
C58 C 0.32715 0.81038 0.26291 0.0
C59 C 0.24936 0.81645 0.23071 0.0
O60 O 0.28374 0.85129 0.35084 0.0
O61 O 0.23987 0.81866 0.34888 0.0
O62 O 0.21362 0.78176 0.27034 0.0
O63 O 0.24621 0.74377 0.25611 0.0
O64 O 0.29077 0.76193 0.31423 0.0
O65 O 0.30352 0.72147 0.25576 0.0
O66 O 0.26384 0.70375 0.16751 0.0
O67 O 0.31556 0.7111 0.18322 0.0
O68 O 0.3204 0.79523 0.22698 0.0
O69 O 0.31315 0.79193 0.27519 0.0
O70 O 0.25288 0.78229 0.20821 0.0
O71 O 0.25827 0.83165 0.26705 0.0
H72 H 0.31686 0.82387 0.38541 0.0
H73 H 0.3242 0.8062 0.43279 0.0
H74 H 0.23742 0.85033 0.47778 0.0
H75 H 0.23136 0.86925 0.43171 0.0
H76 H 0.25307 0.70892 0.11031 0.0
H77 H 0.2715 0.72641 0.06585 0.0
H78 H 0.36597 0.6992 0.07984 0.0
H79 H 0.34704 0.68014 0.12273 0.0
Nd80 Nd 0.54847 0.04993 0.49294 0.0
Nd81 Nd 0.5166 0.98976 0.50505 0.0
C82 C 0.57984 0.10925 0.49981 0.0
C83 C 0.57346 0.14118 0.49792 0.0
C84 C 0.54386 0.15454 0.50616 0.0
C85 C 0.53697 0.18245 0.5 0.0
C86 C 0.55945 0.19704 0.48514 0.0
C87 C 0.58949 0.18438 0.47821 0.0
C88 C 0.59644 0.15669 0.48464 0.0
C89 C 0.50052 1.0039 0.43832 0.0
C90 C 0.48467 0.06431 0.54129 0.0
C91 C 0.48667 0.93019 0.49907 0.0
C92 C 0.49412 0.90199 0.50739 0.0
C93 C 0.48162 0.86608 0.48276 0.0
C94 C 0.4873 0.83936 0.49146 0.0
C95 C 0.50516 0.8484 0.52519 0.0
C96 C 0.51803 0.8843 0.54946 0.0
C97 C 0.51275 0.91082 0.54055 0.0
C98 C 0.56494 0.03551 0.55927 0.0
C99 C 0.58018 0.97546 0.45622 0.0
O100 O 0.57041 0.10653 0.52826 0.0
O101 O 0.57418 0.07904 0.46821 0.0
O102 O 0.52537 1.01939 0.43169 0.0
O103 O 0.50025 1.01555 0.47274 0.0
O104 O 0.51074 0.07898 0.53413 0.0
O105 O 0.47918 0.02925 0.52787 0.0
O106 O 0.50004 0.9311 0.47145 0.0
O107 O 0.4865 0.96204 0.52795 0.0
O108 O 0.54033 1.02001 0.56623 0.0
O109 O 0.5647 1.02374 0.52484 0.0
O110 O 0.55386 0.96084 0.46304 0.0
O111 O 0.58587 1.01052 0.46988 0.0
H112 H 0.52572 0.14261 0.51611 0.0
H113 H 0.51346 0.19137 0.50512 0.0
H114 H 0.60728 0.19531 0.46696 0.0
H115 H 0.61938 0.14656 0.47807 0.0
H116 H 0.46721 0.85879 0.45702 0.0
H117 H 0.47727 0.81181 0.47227 0.0
H118 H 0.53247 0.89184 0.57526 0.0
H119 H 0.52299 0.93827 0.55983 0.0
Nd120 Nd 0.29211 0.29438 0.7329 0.0
Nd121 Nd 0.28034 0.24897 0.77198 0.0
C122 C 0.2946 0.33193 0.69697 0.0
C123 C 0.31446 0.34385 0.67468 0.0
C124 C 0.34682 0.33805 0.66978 0.0
C125 C 0.36504 0.35104 0.64983 0.0
C126 C 0.35153 0.37041 0.63429 0.0
C127 C 0.31898 0.37577 0.63917 0.0
C128 C 0.30086 0.36273 0.65895 0.0
C129 C 0.34489 0.29612 0.77586 0.0
C130 C 0.32348 0.21971 0.70169 0.0
C131 C 0.27292 0.21898 0.81548 0.0
C132 C 0.25319 0.21039 0.84031 0.0
C133 C 0.26809 0.19825 0.8625 0.0
C134 C 0.25005 0.1858 0.88284 0.0
C135 C 0.21629 0.18513 0.88193 0.0
C136 C 0.20144 0.19821 0.86034 0.0
C137 C 0.21957 0.21039 0.83965 0.0
C138 C 0.2379 0.22905 0.70999 0.0
C139 C 0.24424 0.32189 0.80168 0.0
O140 O 0.28193 0.29817 0.68136 0.0
O141 O 0.30413 0.34561 0.73252 0.0
O142 O 0.3461 0.29672 0.74497 0.0
O143 O 0.31645 0.29692 0.78484 0.0
O144 O 0.30829 0.23982 0.69152 0.0
O145 O 0.32057 0.22227 0.73481 0.0
O146 O 0.2878 0.25136 0.82767 0.0
O147 O 0.26279 0.20318 0.78006 0.0
O148 O 0.25137 0.20701 0.71735 0.0
O149 O 0.2482 0.2608 0.73454 0.0
O150 O 0.248 0.29275 0.80385 0.0
O151 O 0.2591 0.32892 0.77772 0.0
H152 H 0.35812 0.32377 0.68169 0.0
H153 H 0.38998 0.34648 0.6473 0.0
H154 H 0.3072 0.38983 0.62736 0.0
H155 H 0.27602 0.36768 0.66219 0.0
H156 H 0.29387 0.19757 0.86344 0.0
H157 H 0.26271 0.17662 0.89934 0.0
H158 H 0.17558 0.198 0.85844 0.0
H159 H 0.20719 0.21911 0.82252 0.0
Nd160 Nd 1.00172 1.02152 0.52758 0.0
Nd161 Nd 0.05523 0.02688 0.48379 0.0
C162 C 0.96268 1.01851 0.57607 0.0
C163 C 0.94908 0.99616 0.59214 0.0
C164 C 0.932 1.01191 0.62367 0.0
C165 C 0.91654 0.99127 0.63779 0.0
C166 C 0.91758 0.95396 0.62088 0.0
C167 C 0.93533 0.93838 0.58955 0.0
C168 C 0.95073 0.95911 0.57535 0.0
C169 C 0.99657 0.96566 0.45526 0.0
C170 C 0.06833 0.98569 0.52961 0.0
C171 C 0.09412 0.03146 0.43597 0.0
C172 C 0.10812 0.05572 0.42205 0.0
C173 C 0.10507 0.04427 0.38361 0.0
C174 C 0.12075 0.06489 0.3695 0.0
C175 C 0.14022 0.09778 0.39335 0.0
C176 C 0.14281 0.10941 0.43198 0.0
C177 C 0.1271 0.0888 0.44605 0.0
C178 C 0.06029 0.08211 0.5563 0.0
C179 C 0.98859 0.06187 0.48069 0.0
O180 O 0.99292 0.03274 0.58536 0.0
O181 O 0.95353 1.00781 0.54118 0.0
O182 O 0.97297 0.98179 0.47228 0.0
O183 O 1.0224 0.97884 0.47663 0.0
O184 O 0.0439 1.00117 0.54767 0.0
O185 O 0.07476 0.98647 0.49884 0.0
O186 O 0.06369 1.01797 0.42661 0.0
O187 O 0.10373 0.03914 0.46991 0.0
O188 O 0.08402 0.0665 0.5391 0.0
O189 O 0.03452 0.0695 0.53487 0.0
O190 O 1.01323 0.04662 0.46312 0.0
O191 O 0.98168 0.06101 0.51131 0.0
H192 H 0.92997 0.04031 0.63703 0.0
H193 H 0.90293 1.00461 0.66143 0.0
H194 H 0.93744 0.91002 0.57583 0.0
H195 H 0.9636 0.94607 0.55095 0.0
H196 H 0.09092 1.01886 0.3642 0.0
H197 H 0.11747 0.05491 0.33974 0.0
H198 H 0.15777 0.13412 0.45154 0.0
H199 H 0.13042 0.09854 0.47578 0.0
Nd200 Nd 0.27444 0.78196 0.72111 0.0
Nd201 Nd 0.2878 0.7636 0.78389 0.0
C202 C 0.26225 0.81101 0.67822 0.0
C203 C 0.2394 0.82798 0.66455 0.0
C204 C 0.22779 0.86032 0.68864 0.0
C205 C 0.20863 0.87707 0.67437 0.0
C206 C 0.20062 0.86216 0.63555 0.0
C207 C 0.212 0.82952 0.61165 0.0
C208 C 0.23103 0.81281 0.62592 0.0
C209 C 0.25009 0.71492 0.70613 0.0
C210 C 0.22649 0.80723 0.79074 0.0
C211 C 0.29968 0.73411 0.82642 0.0
C212 C 0.32248 0.71794 0.84118 0.0
C213 C 0.33198 0.68392 0.81849 0.0
C214 C 0.35052 0.66777 0.83404 0.0
C215 C 0.35994 0.68495 0.87281 0.0
C216 C 0.35079 0.71924 0.89525 0.0
C217 C 0.33239 0.73537 0.87971 0.0
C218 C 0.31459 0.82993 0.79762 0.0
C219 C 0.33648 0.73906 0.71509 0.0
O220 O 0.27663 0.82929 0.71234 0.0
O221 O 0.25579 0.77678 0.66695 0.0
O222 O 0.26219 0.72189 0.68168 0.0
O223 O 0.24893 0.74308 0.73667 0.0
O224 O 0.23749 0.81179 0.7634 0.0
O225 O 0.23918 0.78555 0.8006 0.0
O226 O 0.28676 0.71574 0.79168 0.0
O227 O 0.30486 0.76857 0.83841 0.0
O228 O 0.30207 0.82387 0.82249 0.0
O229 O 0.31404 0.80117 0.76733 0.0
O230 O 0.32532 0.73443 0.74232 0.0
O231 O 0.32354 0.76041 0.70484 0.0
H232 H 0.23391 0.87304 0.71852 0.0
H233 H 0.2008 0.90228 0.69387 0.0
H234 H 0.20614 0.81664 0.58173 0.0
H235 H 0.23971 0.78808 0.60649 0.0
H236 H 0.32455 0.66938 0.78879 0.0
H237 H 0.35664 0.64126 0.81567 0.0
H238 H 0.35782 0.73379 0.92504 0.0
H239 H 0.32528 0.76138 0.89815 0.0
Nd240 Nd 0.52624 0.05158 0.98954 0.0
Nd241 Nd 0.53356 1.00929 0.02783 0.0
C242 C 0.52386 0.08024 0.94613 0.0
C243 C 0.55046 0.10084 0.94026 0.0
C244 C 0.54509 0.13128 0.93789 0.0
C245 C 0.57112 0.15603 0.94194 0.0
C246 C 0.60283 0.15067 0.94859 0.0
C247 C 0.6081 0.11908 0.94883 0.0
C248 C 0.58214 0.09446 0.94484 0.0
C249 C 0.57111 0.08272 0.05092 0.0
C250 C 0.57696 0.99118 0.96086 0.0
C251 C 0.53966 0.98299 0.07322 0.0
C252 C 0.5159 0.96179 0.08179 0.0
C253 C 0.5254 0.93463 0.08792 0.0
C254 C 0.50226 0.90842 0.08648 0.0
C255 C 0.46939 0.90907 0.07875 0.0
C256 C 0.45995 0.93773 0.07508 0.0
C257 C 0.48305 0.96382 0.07643 0.0
C258 C 0.48907 0.97717 0.96623 0.0
C259 C 0.48119 0.06831 0.05479 0.0
O260 O 0.52592 0.04614 0.9332 0.0
O261 O 0.51567 0.09603 0.98011 0.0
O262 O 0.55208 0.10076 0.04337 0.0
O263 O 0.56742 0.05069 0.02586 0.0
O264 O 0.55536 1.00577 0.95 0.0
O265 O 0.57801 0.99594 0.99503 0.0
O266 O 0.53532 1.01635 0.08489 0.0
O267 O 0.54647 0.96647 0.0387 0.0
O268 O 0.50765 0.95949 0.97497 0.0
O269 O 0.49237 1.00944 0.99082 0.0
O270 O 0.5027 0.05392 0.06613 0.0
O271 O 0.48098 0.06411 0.02086 0.0
H272 H 0.52078 0.13688 0.93497 0.0
H273 H 0.5664 0.17988 0.941 0.0
H274 H 0.63217 0.11433 0.95423 0.0
H275 H 0.58683 0.07153 0.94767 0.0
H276 H 0.5507 0.9325 0.09161 0.0
H277 H 0.51012 0.8869 0.08999 0.0
H278 H 0.43485 0.93879 0.06876 0.0
H279 H 0.4753 0.98422 0.07088 0.0
Nd280 Nd 0.30254 0.29979 0.28913 0.0
Nd281 Nd 0.25587 0.25613 0.22939 0.0
C282 C 0.35463 0.33936 0.33482 0.0
C283 C 0.38351 0.33434 0.35272 0.0
C284 C 0.41154 0.32555 0.33445 0.0
C285 C 0.43816 0.31931 0.35105 0.0
C286 C 0.43727 0.32175 0.38624 0.0
C287 C 0.40961 0.33185 0.40498 0.0
C288 C 0.38317 0.3383 0.38854 0.0
C289 C 0.26393 0.2532 0.30443 0.0
C290 C 0.32327 0.22503 0.22097 0.0
C291 C 0.20436 0.21515 0.18328 0.0
C292 C 0.17411 0.21913 0.16738 0.0
C293 C 0.1593 0.19101 0.13311 0.0
C294 C 0.13218 0.19557 0.11573 0.0
C295 C 0.11949 0.22836 0.13255 0.0
C296 C 0.13385 0.25604 0.16759 0.0
C297 C 0.16103 0.25151 0.1848 0.0
C298 C 0.29491 0.30254 0.21414 0.0
C299 C 0.23515 0.33065 0.29817 0.0
O300 O 0.35267 0.32655 0.29875 0.0
O301 O 0.3271 0.33421 0.34612 0.0
O302 O 0.27331 0.28671 0.32769 0.0
O303 O 0.27557 0.2443 0.27365 0.0
O304 O 0.33368 0.25754 0.24884 0.0
O305 O 0.29211 0.21524 0.2113 0.0
O306 O 0.20714 0.22613 0.219 0.0
O307 O 0.23048 0.22432 0.17234 0.0
O308 O 0.28561 0.26897 0.19097 0.0
O309 O 0.28302 0.31156 0.24482 0.0
O310 O 0.2247 0.29813 0.27026 0.0
O311 O 0.26634 0.34065 0.30731 0.0
H312 H 0.41279 0.32298 0.30711 0.0
H313 H 0.45929 0.31222 0.33613 0.0
H314 H 0.40779 0.33354 0.43186 0.0
H315 H 0.36214 0.34561 0.40362 0.0
H316 H 0.16922 0.16585 0.11931 0.0
H317 H 0.12154 0.17376 0.08884 0.0
H318 H 0.12501 0.28184 0.18093 0.0
H319 H 0.17239 0.27362 0.21112 0.0
Nd320 Nd 0.50325 0.52462 0.03139 0.0
Nd321 Nd 0.5558 0.52777 0.98575 0.0
C322 C 0.46515 0.52316 0.08138 0.0
C323 C 0.45121 0.50078 0.09733 0.0
C324 C 0.45272 0.4637 0.08058 0.0
C325 C 0.43724 0.44303 0.09485 0.0
C326 C 0.41956 0.45872 0.12624 0.0
C327 C 0.41858 0.49605 0.14302 0.0
C328 C 0.43412 0.5166 0.12883 0.0
C329 C 0.49652 0.46718 0.95996 0.0
C330 C 0.56949 0.48808 0.03282 0.0
C331 C 0.59406 0.53173 0.93709 0.0
C332 C 0.60784 0.55616 0.92324 0.0
C333 C 0.60581 0.54427 0.88471 0.0
C334 C 0.62121 0.56525 0.87082 0.0
C335 C 0.63936 0.59896 0.89497 0.0
C336 C 0.64093 0.61096 0.93368 0.0
C337 C 0.62549 0.59 0.94753 0.0
C338 C 0.56205 0.58496 0.05743 0.0
C339 C 0.48924 0.56266 0.98259 0.0
O340 O 0.49579 0.53584 0.08948 0.0
O341 O 0.45511 0.51344 0.04697 0.0
O342 O 0.47334 0.48384 0.97746 0.0
O343 O 0.52285 0.48056 0.98036 0.0
O344 O 0.54564 0.50455 0.05137 0.0
O345 O 0.57541 0.48781 1.00141 0.0
O346 O 0.56353 0.51862 0.92831 0.0
O347 O 0.6041 0.53915 0.97082 0.0
O348 O 0.58513 0.5677 0.04048 0.0
O349 O 0.53598 0.57186 0.03647 0.0
O350 O 0.51303 0.54593 0.96433 0.0
O351 O 0.48343 0.56378 0.01443 0.0
H352 H 0.4656 0.45059 0.0562 0.0
H353 H 0.43929 0.41466 0.08118 0.0
H354 H 0.40502 0.5095 0.16668 0.0
H355 H 0.43217 0.54502 0.14218 0.0
H356 H 0.59267 0.5183 0.86509 0.0
H357 H 0.61872 0.55491 0.84097 0.0
H358 H 0.65486 0.63631 0.95352 0.0
H359 H 0.62796 0.60012 0.97736 0.0
Nd360 Nd 0.77816 0.2874 0.22435 0.0
Nd361 Nd 0.79264 0.27011 0.28758 0.0
C362 C 0.7665 0.31617 0.18116 0.0
C363 C 0.74512 0.33542 0.16914 0.0
C364 C 0.75892 0.35736 0.15574 0.0
C365 C 0.73962 0.37336 0.1409 0.0
C366 C 0.70575 0.36801 0.13898 0.0
C367 C 0.69194 0.34653 0.1532 0.0
C368 C 0.71135 0.33034 0.16793 0.0
C369 C 0.74864 0.22332 0.21372 0.0
C370 C 0.73288 0.31667 0.29638 0.0
C371 C 0.80333 0.24008 0.32974 0.0
C372 C 0.82502 0.22238 0.34353 0.0
C373 C 0.84324 0.19575 0.32001 0.0
C374 C 0.86145 0.17792 0.33382 0.0
C375 C 0.86164 0.18595 0.37138 0.0
C376 C 0.84367 0.213 0.39475 0.0
C377 C 0.82578 0.23092 0.38107 0.0
C378 C 0.82131 0.33472 0.29892 0.0
C379 C 0.83776 0.24046 0.21515 0.0
O380 O 0.7836 0.33383 0.21377 0.0
O381 O 0.75662 0.28292 0.17182 0.0
O382 O 0.76073 0.22752 0.1875 0.0
O383 O 0.75134 0.25261 0.24377 0.0
O384 O 0.74357 0.32035 0.2684 0.0
O385 O 0.74524 0.29481 0.30625 0.0
O386 O 0.78986 0.22223 0.29522 0.0
O387 O 0.81021 0.27443 0.34174 0.0
O388 O 0.81 0.3299 0.32512 0.0
O389 O 0.81925 0.30555 0.26873 0.0
O390 O 0.82792 0.23787 0.24405 0.0
O391 O 0.82473 0.2614 0.20443 0.0
H392 H 0.78483 0.36167 0.15612 0.0
H393 H 0.75141 0.39008 0.13099 0.0
H394 H 0.66603 0.34141 0.15207 0.0
H395 H 0.69992 0.31337 0.17778 0.0
H396 H 0.84309 0.18838 0.29088 0.0
H397 H 0.87474 0.15719 0.31478 0.0
H398 H 0.84344 0.22054 0.42383 0.0
H399 H 0.81197 0.25122 0.39989 0.0
Nd400 Nd 0.0369 0.5543 0.49692 0.0
Nd401 Nd 1.02677 0.50529 0.52692 0.0
C402 C 0.04196 0.59847 0.4701 0.0
C403 C 0.07111 0.61585 0.4644 0.0
C404 C 0.10008 0.60128 0.46198 0.0
C405 C 0.1293 0.62136 0.46528 0.0
C406 C 0.13003 0.65634 0.47097 0.0
C407 C 0.10073 0.67002 0.4713 0.0
C408 C 0.07149 0.64998 0.46828 0.0
C409 C 0.08617 0.56229 0.54791 0.0
C410 C 0.07565 0.48579 0.46372 0.0
C411 C 1.01677 0.46776 0.56118 0.0
C412 C 0.99237 0.43702 0.55077 0.0
C413 C 0.99769 0.41122 0.56094 0.0
C414 C 0.97409 0.382 0.55058 0.0
C415 C 0.9449 0.3785 0.53013 0.0
C416 C 0.9399 0.40425 0.51968 0.0
C417 C 0.96354 0.43312 0.52967 0.0
C418 C 0.99145 0.48216 0.45959 0.0
C419 C 0.98455 0.57299 0.55875 0.0
O420 O 0.03569 0.56357 0.44858 0.0
O421 O 0.03885 0.60907 0.50524 0.0
O422 O 0.09062 0.56342 0.51779 0.0
O423 O 0.05682 0.55842 0.55128 0.0
O424 O 0.0581 0.50411 0.45339 0.0
O425 O 0.07295 0.48833 0.49677 0.0
O426 O 1.00533 0.49787 0.57097 0.0
O427 O 0.03909 0.46234 0.53865 0.0
O428 O 1.0044 0.46107 0.46853 0.0
O429 O 0.99506 0.51349 0.48645 0.0
O430 O 0.99513 0.5479 0.56437 0.0
O431 O 0.99487 0.57857 0.53201 0.0
H432 H 0.10029 0.57509 0.45947 0.0
H433 H 0.15134 0.61005 0.46514 0.0
H434 H 0.10041 0.69656 0.47475 0.0
H435 H 0.04935 0.66174 0.47063 0.0
H436 H 1.01993 0.41376 0.57697 0.0
H437 H 0.97835 0.36259 0.55924 0.0
H438 H 0.91778 0.40195 0.50361 0.0
H439 H 0.95922 0.45254 0.52102 0.0
Nd440 Nd 0.78932 0.79205 0.22945 0.0
Nd441 Nd 0.77753 0.74963 0.27236 0.0
C442 C 0.79278 0.82909 0.19294 0.0
C443 C 0.81382 0.84084 0.17116 0.0
C444 C 0.82237 0.81653 0.13568 0.0
C445 C 0.84019 0.82872 0.11487 0.0
C446 C 0.84997 0.86567 0.12863 0.0
C447 C 0.84154 0.8898 0.1643 0.0
C448 C 0.8238 0.87761 0.18506 0.0
C449 C 0.84171 0.7955 0.27396 0.0
C450 C 0.81935 0.71734 0.19775 0.0
C451 C 0.77519 0.71303 0.30941 0.0
C452 C 0.75555 0.70253 0.33293 0.0
C453 C 0.76922 0.68453 0.34966 0.0
C454 C 0.75123 0.67263 0.37046 0.0
C455 C 0.71875 0.67831 0.3754 0.0
C456 C 0.70519 0.69686 0.35892 0.0
C457 C 0.72327 0.70868 0.33793 0.0
C458 C 0.72502 0.74671 0.22844 0.0
C459 C 0.74685 0.82413 0.30327 0.0
O460 O 0.77995 0.79544 0.17761 0.0
O461 O 0.80081 0.84339 0.22886 0.0
O462 O 0.84317 0.79498 0.2425 0.0
O463 O 0.81321 0.7969 0.28285 0.0
O464 O 0.80754 0.73966 0.18844 0.0
O465 O 0.81361 0.71819 0.22963 0.0
O466 O 0.78884 0.7463 0.32403 0.0
O467 O 0.76472 0.69919 0.27413 0.0
O468 O 0.72368 0.74691 0.25977 0.0
O469 O 0.75341 0.74497 0.21917 0.0
O470 O 0.75843 0.80186 0.31287 0.0
O471 O 0.75289 0.82318 0.27144 0.0
H472 H 0.81495 0.78803 0.12369 0.0
H473 H 0.84567 0.80904 0.0875 0.0
H474 H 0.84883 0.91833 0.17654 0.0
H475 H 0.81754 0.89722 0.21207 0.0
H476 H 0.794 0.67933 0.34638 0.0
H477 H 0.76305 0.65915 0.38295 0.0
H478 H 0.68029 0.70162 0.36148 0.0
H479 H 0.71191 0.7223 0.32528 0.0
Nd480 Nd 0.7697 0.297 0.79192 0.0
Nd481 Nd 0.78934 0.24713 0.71473 0.0
C482 C 0.76232 0.35021 0.85855 0.0
C483 C 0.76384 0.35324 0.89562 0.0
C484 C 0.7881 0.33919 0.90706 0.0
C485 C 0.78357 0.3307 0.93525 0.0
C486 C 0.75434 0.33513 0.95151 0.0
C487 C 0.73233 0.35396 0.94363 0.0
C488 C 0.73714 0.36301 0.91593 0.0
C489 C 0.72551 0.2386 0.74697 0.0
C490 C 0.80457 0.22962 0.78472 0.0
C491 C 0.79677 0.19312 0.64862 0.0
C492 C 0.79602 0.18848 0.61091 0.0
C493 C 0.77145 0.20013 0.59692 0.0
C494 C 0.77589 0.20561 0.56668 0.0
C495 C 0.80534 0.2006 0.55083 0.0
C496 C 0.82802 0.18462 0.56208 0.0
C497 C 0.82326 0.17846 0.59172 0.0
C498 C 0.8335 0.30548 0.75943 0.0
C499 C 0.75526 0.31519 0.7223 0.0
O500 O 0.78933 0.34766 0.84324 0.0
O501 O 0.73831 0.32754 0.83512 0.0
O502 O 0.73113 0.2506 0.78264 0.0
O503 O 0.74187 0.25797 0.73719 0.0
O504 O 0.79704 0.2617 0.80855 0.0
O505 O 0.80013 0.21726 0.7481 0.0
O506 O 0.76951 0.19651 0.66354 0.0
O507 O 0.82075 0.21588 0.67199 0.0
O508 O 0.828 0.29325 0.72371 0.0
O509 O 0.81719 0.28616 0.76933 0.0
O510 O 0.76281 0.28314 0.69829 0.0
O511 O 0.75926 0.32718 0.75888 0.0
H512 H 0.80918 0.33174 0.89208 0.0
H513 H 0.80151 0.31735 0.94156 0.0
H514 H 0.70956 0.35806 0.9555 0.0
H515 H 0.71829 0.3741 0.90766 0.0
H516 H 0.74993 0.20764 0.611 0.0
H517 H 0.75736 0.21662 0.55787 0.0
H518 H 0.85105 0.18026 0.55088 0.0
H519 H 0.84236 0.16914 0.60194 0.0
Nd520 Nd 0.80028 0.79943 0.7879 0.0
Nd521 Nd 0.75343 0.75512 0.72735 0.0
C522 C 0.8514 0.84074 0.83444 0.0
C523 C 0.88171 0.83681 0.8503 0.0
C524 C 0.89558 0.8641 0.88553 0.0
C525 C 0.92276 0.8594 0.90268 0.0
C526 C 0.93646 0.82732 0.88468 0.0
C527 C 0.92305 0.80053 0.84876 0.0
C528 C 0.8958 0.80519 0.83176 0.0
C529 C 0.76115 0.75264 0.80249 0.0
C530 C 0.82173 0.72533 0.71937 0.0
C531 C 0.702 0.71349 0.68155 0.0
C532 C 0.6713 0.71692 0.66597 0.0
C533 C 0.65685 0.68887 0.63144 0.0
C534 C 0.62947 0.6931 0.61417 0.0
C535 C 0.61614 0.72548 0.63132 0.0
C536 C 0.63005 0.75301 0.66667 0.0
C537 C 0.6575 0.74881 0.68379 0.0
C538 C 0.79249 0.80151 0.71237 0.0
C539 C 0.73296 0.83051 0.79527 0.0
O540 O 0.84872 0.83011 0.79878 0.0
O541 O 0.82531 0.8312 0.84514 0.0
O542 O 0.77002 0.78628 0.82582 0.0
O543 O 0.77327 0.7439 0.772 0.0
O544 O 0.83179 0.75742 0.74817 0.0
O545 O 0.79069 0.71533 0.70863 0.0
O546 O 0.70519 0.72417 0.71721 0.0
O547 O 0.7277 0.72334 0.6705 0.0
O548 O 0.78288 0.76809 0.68887 0.0
O549 O 0.78062 0.81042 0.74305 0.0
O550 O 0.72235 0.79796 0.76743 0.0
O551 O 0.76412 0.84012 0.80495 0.0
H552 H 0.88488 0.88866 0.9002 0.0
H553 H 0.93268 0.88052 0.93028 0.0
H554 H 0.93271 0.77526 0.83447 0.0
H555 H 0.88521 0.7837 0.80468 0.0
H556 H 0.66732 0.66409 0.61732 0.0
H557 H 0.61918 0.6714 0.58704 0.0
H558 H 0.62068 0.77849 0.6803 0.0
H559 H 0.66855 0.77087 0.71031 0.0
Nd560 Nd 0.5583 0.52873 0.54074 0.0
Nd561 Nd 0.51183 0.52665 0.47469 0.0
C562 C 0.60707 0.53211 0.58718 0.0
C563 C 0.62067 0.50855 0.60051 0.0
C564 C 0.61694 0.47087 0.5784 0.0
C565 C 0.63109 0.44948 0.59091 0.0
C566 C 0.64957 0.46493 0.62604 0.0
C567 C 0.65298 0.50275 0.64807 0.0
C568 C 0.63882 0.52404 0.63555 0.0
C569 C 0.50389 0.47987 0.52558 0.0
C570 C 0.56719 0.47086 0.45197 0.0
C571 C 0.46258 0.52276 0.42854 0.0
C572 C 0.44795 0.54587 0.41525 0.0
C573 C 0.447 0.58285 0.43894 0.0
C574 C 0.4318 0.60348 0.42616 0.0
C575 C 0.41695 0.58795 0.38918 0.0
C576 C 0.41817 0.55089 0.36565 0.0
C577 C 0.43335 0.53036 0.37843 0.0
C578 C 0.56637 0.57535 0.48976 0.0
C579 C 0.50375 0.58558 0.56326 0.0
O580 O 0.60945 0.52371 0.5524 0.0
O581 O 0.57955 0.54367 0.59815 0.0
O582 O 0.52846 0.48638 0.54887 0.0
O583 O 0.50926 0.49772 0.50875 0.0
O584 O 0.5786 0.48805 0.48761 0.0
O585 O 0.54004 0.47786 0.44008 0.0
O586 O 0.46036 0.53072 0.46322 0.0
O587 O 0.49031 0.51197 0.41745 0.0
O588 O 0.54183 0.56888 0.46642 0.0
O589 O 0.56088 0.55753 0.5066 0.0
O590 O 0.49229 0.56844 0.52766 0.0
O591 O 0.53055 0.57803 0.57521 0.0
H592 H 0.60312 0.45786 0.55126 0.0
H593 H 0.62718 0.42067 0.57299 0.0
H594 H 0.66725 0.51627 0.67492 0.0
H595 H 0.64246 0.55293 0.65326 0.0
H596 H 0.45794 0.59589 0.4675 0.0
H597 H 0.43205 0.63182 0.44535 0.0
H598 H 0.40678 0.53726 0.33728 0.0
H599 H 0.43329 0.50198 0.35945 0.0
Nd600 Nd 0.04796 0.55365 0.99255 0.0
Nd601 Nd 1.01809 0.49239 1.00495 0.0
C602 C 0.07615 0.61407 0.99884 0.0
C603 C 0.06875 0.64278 0.99125 0.0
C604 C 0.07527 0.67872 0.01973 0.0
C605 C 0.06892 0.70633 0.01277 0.0
C606 C 0.05635 0.69835 0.97704 0.0
C607 C 0.04993 0.66236 0.94857 0.0
C608 C 0.05594 0.63483 0.95561 0.0
C609 C 1.00029 0.50627 0.93846 0.0
C610 C 0.98446 0.56557 0.04139 0.0
C611 C 0.98961 0.43197 0.99832 0.0
C612 C 0.99769 0.40407 0.00677 0.0
C613 C 0.98493 0.36813 0.98274 0.0
C614 C 0.99106 0.3417 0.99172 0.0
C615 C 1.00965 0.35111 0.02512 0.0
C616 C 1.02287 0.38702 0.04872 0.0
C617 C 1.01712 0.41324 0.03953 0.0
C618 C 0.06511 0.54013 0.05973 0.0
C619 C 0.08165 0.48024 0.95661 0.0
O620 O 0.06264 0.61259 0.02611 0.0
O621 O 0.07698 0.58243 0.96986 0.0
O622 O 1.02403 0.5228 0.9314 0.0
O623 O 1.00078 0.51789 0.97286 0.0
O624 O 1.01035 0.58105 0.03478 0.0
O625 O 0.9795 0.53039 0.02729 0.0
O626 O 1.00327 0.43344 0.97112 0.0
O627 O 0.9885 0.46362 0.02716 0.0
O628 O 0.04166 0.52264 0.06605 0.0
O629 O 0.06512 0.52877 0.02537 0.0
O630 O 0.05548 0.46493 0.96284 0.0
O631 O 0.08672 0.51545 0.97061 0.0
H632 H 0.08529 0.68541 0.04737 0.0
H633 H 0.07406 0.73387 0.03517 0.0
H634 H 0.03963 0.65543 0.92097 0.0
H635 H 0.05049 0.60736 0.93313 0.0
H636 H 0.96992 0.3606 0.9573 0.0
H637 H 0.98074 0.31414 0.97305 0.0
H638 H 0.03783 0.39481 0.07426 0.0
H639 H 1.02755 0.44075 0.0583 0.0
H640 H 0.22534 0.12727 0.8921 0.0
H641 H 0.07111 0.1426 0.00624 0.0
H642 H 0.16251 0.20858 0.91975 0.0
H643 H 0.12385 0.05196 0.96582 0.0
H644 H 0.10992 0.17161 0.98359 0.0
H645 H 0.19354 0.10343 0.92543 0.0
C646 C 0.20507 0.14045 0.90538 0.0
C647 C 0.1969 0.17027 0.90276 0.0
C648 C 0.11366 0.14579 0.98042 0.0
C649 C 0.15993 0.1426 0.9415 0.0
C650 C 0.09177 0.12944 0.99411 0.0
C651 C 0.09458 0.09513 0.98916 0.0
C652 C 0.13877 0.12771 0.9609 0.0
C653 C 0.12121 0.07888 0.97158 0.0
C654 C 0.18677 0.12658 0.92438 0.0
C655 C 0.16982 0.18543 0.92035 0.0
N656 N 0.14198 0.09508 0.95784 0.0
N657 N 0.15256 0.17157 0.93882 0.0
H658 H 0.16229 0.89186 0.08702 0.0
H659 H 0.23493 0.88621 0.26869 0.0
H660 H 0.16241 0.97815 0.19993 0.0
H661 H 0.22895 0.79632 0.1571 0.0
H662 H 0.2098 0.92033 0.24366 0.0
H663 H 0.18703 0.85708 0.11146 0.0
C664 C 0.16718 0.90368 0.11694 0.0
C665 C 0.15987 0.9386 0.14107 0.0
C666 C 0.21395 0.89316 0.22452 0.0
C667 C 0.18924 0.8982 0.16964 0.0
C668 C 0.22846 0.8735 0.23887 0.0
C669 C 0.23434 0.83797 0.21523 0.0
C670 C 0.20503 0.87763 0.1859 0.0
C671 C 0.22508 0.82346 0.17672 0.0
C672 C 0.18166 0.88365 0.13093 0.0
C673 C 0.16778 0.95191 0.17968 0.0
N674 N 0.21106 0.84318 0.16343 0.0
N675 N 0.18185 0.93193 0.19251 0.0
H676 H 0.4959 0.97661 0.36251 0.0
H677 H 0.36498 0.85197 0.2419 0.0
H678 H 0.44744 0.97072 0.44968 0.0
H679 H 0.34637 0.83818 0.3363 0.0
H680 H 0.40741 0.90143 0.28151 0.0
H681 H 0.45404 0.93105 0.31619 0.0
C682 C 0.4762 0.96595 0.37185 0.0
C683 C 0.47502 0.97746 0.40991 0.0
C684 C 0.39434 0.88742 0.29354 0.0
C685 C 0.42669 0.92573 0.35729 0.0
C686 C 0.36992 0.85936 0.27093 0.0
C687 C 0.35224 0.84098 0.28585 0.0
C688 C 0.40103 0.89689 0.33124 0.0
C689 C 0.35936 0.85166 0.32364 0.0
C690 C 0.45211 0.94008 0.3454 0.0
C691 C 0.44922 0.96268 0.4206 0.0
N692 N 0.38311 0.87881 0.34491 0.0
N693 N 0.42623 0.93753 0.39445 0.0
H694 H 0.35259 0.22418 0.64536 0.0
H695 H 0.4393 0.04787 0.57829 0.0
H696 H 0.34723 0.16179 0.7012 0.0
H697 H 0.47497 0.13318 0.55789 0.0
H698 H 0.40028 0.0851 0.61671 0.0
H699 H 0.39186 0.18725 0.60665 0.0
C700 C 0.35938 0.20253 0.64932 0.0
C701 C 0.34629 0.19614 0.67667 0.0
C702 C 0.41661 0.09572 0.60385 0.0
C703 C 0.39141 0.1534 0.63195 0.0
C704 C 0.4389 0.07438 0.58169 0.0
C705 C 0.46066 0.08723 0.56461 0.0
C706 C 0.41534 0.13016 0.60865 0.0
C707 C 0.45886 0.12205 0.57047 0.0
C708 C 0.38203 0.18159 0.62731 0.0
C709 C 0.35653 0.16783 0.68058 0.0
N710 N 0.43651 0.1421 0.59167 0.0
N711 N 0.37817 0.14745 0.65839 0.0
H712 H 0.11998 0.94856 0.50032 0.0
H713 H 0.14995 0.90109 0.66474 0.0
H714 H 0.06234 0.97978 0.59266 0.0
H715 H 0.20575 0.86562 0.57049 0.0
H716 H 0.1185 0.93075 0.6392 0.0
H717 H 0.15195 0.91868 0.52552 0.0
C718 C 0.11395 0.94919 0.52585 0.0
C719 C 0.08821 0.9669 0.54422 0.0
C720 C 0.13761 0.91647 0.62404 0.0
C721 C 0.12509 0.93252 0.57351 0.0
C722 C 0.15585 0.89961 0.63881 0.0
C723 C 0.18085 0.88055 0.62001 0.0
C724 C 0.14421 0.91465 0.59005 0.0
C725 C 0.1866 0.8794 0.586 0.0
C726 C 0.1323 0.93205 0.54027 0.0
C727 C 0.08181 0.9666 0.57731 0.0
N728 N 0.16859 0.89614 0.5723 0.0
N729 N 0.10001 0.94985 0.59077 0.0
H730 H 0.31207 0.89777 0.85261 0.0
H731 H 0.48775 0.91253 0.90342 0.0
H732 H 0.37111 0.83252 0.76859 0.0
H733 H 0.44101 1.00815 0.95181 0.0
H734 H 0.44699 0.88549 0.8496 0.0
H735 H 0.35867 0.94345 0.8845 0.0
C736 C 0.33467 0.89374 0.84027 0.0
C737 C 0.33827 0.86127 0.80875 0.0
C738 C 0.44611 0.91273 0.87157 0.0
C739 C 0.39151 0.91227 0.84537 0.0
C740 C 0.46904 0.92787 0.90242 0.0
C741 C 0.46694 0.962 0.93226 0.0
C742 C 0.42063 0.93164 0.8713 0.0
C743 C 0.44286 0.98133 0.92952 0.0
C744 C 0.36123 0.91974 0.85835 0.0
C745 C 0.36773 0.85715 0.79336 0.0
N746 N 0.42003 0.9655 0.8999 0.0
N747 N 0.39372 0.88191 0.81264 0.0
H748 H 0.42253 0.08133 0.03515 0.0
H749 H 0.38811 0.22737 0.23984 0.0
H750 H 0.48505 0.10433 0.13209 0.0
H751 H 0.31228 0.16639 0.15034 0.0
H752 H 0.42616 0.18812 0.20072 0.0
H753 H 0.38427 0.11772 0.07619 0.0
C754 C 0.42827 0.09398 0.06509 0.0
C755 C 0.45719 0.08947 0.08 0.0
C756 C 0.40114 0.18322 0.18978 0.0
C757 C 0.41334 0.13213 0.12756 0.0
C758 C 0.37935 0.20568 0.2121 0.0
C759 C 0.34669 0.20025 0.19863 0.0
C760 C 0.39056 0.15553 0.1532 0.0
C761 C 0.33703 0.17163 0.16224 0.0
C762 C 0.40629 0.11474 0.08856 0.0
C763 C 0.46305 0.10671 0.1192 0.0
N764 N 0.35878 0.15077 0.14084 0.0
N765 N 0.44159 0.1275 0.14152 0.0
H766 H 0.16665 0.07432 0.32562 0.0
H767 H 0.23886 0.2725 0.37027 0.0
H768 H 0.15478 0.17172 0.42601 0.0
H769 H 0.24615 0.17867 0.26472 0.0
H770 H 0.20891 0.23492 0.39049 0.0
H771 H 0.19568 0.11045 0.3025 0.0
C772 C 0.16982 0.10322 0.34286 0.0
C773 C 0.15794 0.11959 0.37819 0.0
C774 C 0.21695 0.2223 0.36287 0.0
C775 C 0.19205 0.16151 0.35159 0.0
C776 C 0.23423 0.24387 0.35121 0.0
C777 C 0.24535 0.22894 0.31564 0.0
C778 C 0.21045 0.18501 0.33904 0.0
C779 C 0.23822 0.19151 0.29238 0.0
C780 C 0.1867 0.12389 0.32958 0.0
C781 C 0.16368 0.15737 0.39903 0.0
N782 N 0.22136 0.1709 0.30448 0.0
N783 N 0.18017 0.17674 0.38552 0.0
H784 H 0.85958 0.23144 0.14923 0.0
H785 H 0.99498 0.10443 0.13604 0.0
H786 H 0.87633 0.20016 0.2324 0.0
H787 H 0.96028 0.11928 0.04533 0.0
H788 H 0.95689 0.14424 0.17509 0.0
H789 H 0.90083 0.19552 0.11443 0.0
C790 C 0.87195 0.21722 0.16042 0.0
C791 C 0.86402 0.21913 0.19409 0.0
C792 C 0.95782 0.13894 0.1467 0.0
C793 C 0.91221 0.17737 0.15378 0.0
C794 C 0.97984 0.11639 0.12443 0.0
C795 C 0.98117 0.1082 0.08706 0.0
C796 C 0.9371 0.154 0.13184 0.0
C797 C 0.96036 0.12441 0.07376 0.0
C798 C 0.89564 0.1965 0.14034 0.0
C799 C 0.88129 0.19968 0.20667 0.0
N800 N 0.93951 0.14625 0.09588 0.0
N801 N 0.9044 0.17984 0.1867 0.0
H802 H 0.18559 0.63566 0.43809 0.0
H803 H 0.2936 0.75606 0.42808 0.0
H804 H 0.14614 0.72816 0.52018 0.0
H805 H 0.25624 0.83841 0.52436 0.0
H806 H 0.26686 0.71137 0.43944 0.0
H807 H 0.23526 0.67353 0.44696 0.0
C808 C 0.18741 0.66402 0.45809 0.0
C809 C 0.16121 0.67885 0.47758 0.0
C810 C 0.26485 0.73905 0.45893 0.0
C811 C 0.21797 0.72322 0.48691 0.0
C812 C 0.28074 0.76508 0.45261 0.0
C813 C 0.27614 0.80125 0.47431 0.0
C814 C 0.24386 0.74916 0.48699 0.0
C815 C 0.25929 0.81072 0.5058 0.0
C816 C 0.21588 0.68594 0.46294 0.0
C817 C 0.16519 0.71572 0.5034 0.0
N818 N 0.24291 0.78475 0.51049 0.0
N819 N 0.1928 0.73665 0.50687 0.0
H820 H 0.52746 0.78427 0.48231 0.0
H821 H 0.56284 0.75836 0.6585 0.0
H822 H 0.49689 0.85013 0.59106 0.0
H823 H 0.61066 0.70877 0.55824 0.0
H824 H 0.52648 0.7796 0.62784 0.0
H825 H 0.5458 0.74417 0.50361 0.0
C826 C 0.52401 0.78981 0.5104 0.0
C827 C 0.51124 0.82079 0.53525 0.0
C828 C 0.54457 0.76352 0.61233 0.0
C829 C 0.53215 0.77544 0.55976 0.0
C830 C 0.56534 0.75147 0.62983 0.0
C831 C 0.5901 0.73228 0.61106 0.0
C832 C 0.54875 0.7565 0.5759 0.0
C833 C 0.59186 0.72343 0.5737 0.0
C834 C 0.53458 0.76708 0.52258 0.0
C835 C 0.50726 0.82686 0.57133 0.0
N836 N 0.57179 0.7361 0.5575 0.0
N837 N 0.51801 0.80461 0.58265 0.0
H838 H 0.50769 0.43429 0.88696 0.0
H839 H 0.40624 0.29108 0.75787 0.0
H840 H 0.46689 0.41532 0.97057 0.0
H841 H 0.34992 0.32026 0.85108 0.0
H842 H 0.45507 0.31927 0.80126 0.0
H843 H 0.47861 0.37721 0.83849 0.0
C844 C 0.49374 0.41714 0.89497 0.0
C845 C 0.48925 0.4292 0.93234 0.0
C846 C 0.43211 0.31931 0.81225 0.0
C847 C 0.4556 0.36442 0.87767 0.0
C848 C 0.40427 0.30304 0.78756 0.0
C849 C 0.37406 0.3047 0.80119 0.0
C850 C 0.42944 0.33772 0.85073 0.0
C851 C 0.37277 0.31931 0.83961 0.0
C852 C 0.4771 0.38447 0.86738 0.0
C853 C 0.4706 0.40666 0.94173 0.0
N854 N 0.40012 0.33601 0.8632 0.0
N855 N 0.45372 0.37569 0.91449 0.0
H856 H 0.84593 0.81444 0.34803 0.0
H857 H 0.97869 0.91103 0.46764 0.0
H858 H 0.90353 0.79786 0.25825 0.0
H859 H 0.99585 0.93582 0.38022 0.0
H860 H 0.94701 0.85406 0.42169 0.0
H861 H 0.89436 0.84325 0.39223 0.0
C862 C 0.86894 0.81594 0.33758 0.0
C863 C 0.87075 0.80479 0.29978 0.0
C864 C 0.95844 0.8715 0.41241 0.0
C865 C 0.92606 0.83727 0.3497 0.0
C866 C 0.97685 0.90362 0.4384 0.0
C867 C 0.98953 0.9278 0.42732 0.0
C868 C 0.95264 0.8641 0.37545 0.0
C869 C 0.98634 0.91763 0.38953 0.0
C870 C 0.89667 0.83208 0.36272 0.0
C871 C 0.90108 0.807 0.28744 0.0
N872 N 0.96769 0.88661 0.36486 0.0
N873 N 0.92745 0.82396 0.31249 0.0
H874 H 0.46699 0.62712 0.54833 0.0
H875 H 0.37396 0.6986 0.73283 0.0
H876 H 0.49386 0.60684 0.63757 0.0
H877 H 0.36215 0.73365 0.65199 0.0
H878 H 0.41703 0.66484 0.69922 0.0
H879 H 0.42888 0.66589 0.58628 0.0
C880 C 0.46522 0.63109 0.57617 0.0
C881 C 0.4841 0.61348 0.58954 0.0
C882 C 0.40517 0.68005 0.68891 0.0
C883 C 0.43915 0.65805 0.6336 0.0
C884 C 0.38039 0.69942 0.70812 0.0
C885 C 0.36399 0.71934 0.6955 0.0
C886 C 0.4138 0.67996 0.6563 0.0
C887 C 0.37383 0.71899 0.66313 0.0
C888 C 0.44321 0.65334 0.59792 0.0
C889 C 0.48028 0.61997 0.62601 0.0
N890 N 0.3977 0.69961 0.64474 0.0
N891 N 0.45811 0.6413 0.64648 0.0
H892 H 0.66287 0.14179 0.92458 0.0
H893 H 0.71477 0.35055 0.00786 0.0
H894 H 0.60543 0.2233 0.99339 0.0
H895 H 0.76692 0.26717 0.93124 0.0
H896 H 0.68203 0.30576 0.01657 0.0
H897 H 0.70746 0.1885 0.93887 0.0
C898 C 0.65972 0.16952 0.94292 0.0
C899 C 0.63021 0.17871 0.95729 0.0
C900 C 0.70118 0.29752 0.99854 0.0
C901 C 0.68112 0.23239 0.97369 0.0
C902 C 0.71996 0.32311 0.99366 0.0
C903 C 0.74302 0.3126 0.96788 0.0
C904 C 0.70559 0.26126 0.97746 0.0
C905 C 0.74932 0.27681 0.95114 0.0
C906 C 0.6852 0.1962 0.95113 0.0
C907 C 0.62748 0.2151 0.98087 0.0
N908 N 0.73021 0.25233 0.95558 0.0
N909 N 0.65252 0.24065 0.98806 0.0
H910 H 1.03126 0.28646 0.9826 0.0
H911 H 0.06709 0.26283 0.16016 0.0
H912 H 1.00228 0.3542 0.09173 0.0
H913 H 0.11327 0.21025 0.059 0.0
H914 H 1.03115 0.28432 0.12944 0.0
H915 H 0.04933 0.24661 1.00442 0.0
C916 C 1.02814 0.29249 0.0109 0.0
C917 C 1.01586 0.32388 0.03568 0.0
C918 C 0.04879 0.26756 0.11375 0.0
C919 C 0.03641 0.2788 0.06074 0.0
C920 C 0.06933 0.25537 0.1313 0.0
C921 C 0.09356 0.2353 0.1123 0.0
C922 C 0.05267 0.25981 0.07704 0.0
C923 C 0.09494 0.22568 0.07468 0.0
C924 C 0.03853 0.26989 0.02337 0.0
C925 C 1.01226 0.33059 0.07204 0.0
N926 N 0.07512 0.23852 0.05843 0.0
N927 N 1.02281 0.30845 0.08361 0.0
H928 H 0.65119 0.67305 0.92727 0.0
H929 H 0.74506 0.67803 0.76267 0.0
H930 H 0.66744 0.57664 0.82823 0.0
H931 H 0.73488 0.77109 0.86771 0.0
H932 H 0.71521 0.64005 0.78378 0.0
H933 H 0.68017 0.70861 0.904 0.0
C934 C 0.66094 0.6591 0.90073 0.0
C935 C 0.65666 0.62131 0.88011 0.0
C936 C 0.71954 0.66879 0.80218 0.0
C937 C 0.69007 0.66277 0.85252 0.0
C938 C 0.73659 0.69052 0.79008 0.0
C939 C 0.74276 0.72799 0.8134 0.0
C940 C 0.7083 0.68455 0.83785 0.0
C941 C 0.73098 0.74245 0.84866 0.0
C942 C 0.67745 0.67965 0.88724 0.0
C943 C 0.66953 0.6055 0.84528 0.0
N944 N 0.71451 0.72092 0.85963 0.0
N945 N 0.68555 0.62614 0.83275 0.0
H946 H 0.71563 0.3774 0.07833 0.0
H947 H 0.56067 0.4792 0.09357 0.0
H948 H 0.64863 0.39658 0.16037 0.0
H949 H 0.62333 0.45398 0.00635 0.0
H950 H 0.59284 0.4495 0.1183 0.0
H951 H 0.68283 0.40545 0.05195 0.0
C952 C 0.69412 0.3876 0.09101 0.0
C953 C 0.68521 0.38451 0.12194 0.0
C954 C 0.59961 0.45035 0.09372 0.0
C955 C 0.64705 0.4169 0.09137 0.0
C956 C 0.58119 0.46744 0.07949 0.0
C957 C 0.58912 0.46934 0.04765 0.0
C958 C 0.62653 0.43491 0.0763 0.0
C959 C 0.61612 0.45332 0.03087 0.0
C960 C 0.67524 0.40352 0.07569 0.0
C961 C 0.65657 0.39786 0.13643 0.0
N962 N 0.63379 0.43696 0.04538 0.0
N963 N 0.63876 0.4135 0.12122 0.0
H964 H 0.99338 0.42166 0.39381 0.0
H965 H 0.81807 0.40308 0.35211 0.0
H966 H 0.94434 0.51533 0.44639 0.0
H967 H 0.87515 0.33805 0.26553 0.0
H968 H 0.86329 0.45098 0.37954 0.0
H969 H 0.95309 0.39592 0.33978 0.0
C970 C 0.97426 0.43705 0.39357 0.0
C971 C 0.9712 0.46996 0.42478 0.0
C972 C 0.86567 0.4268 0.35375 0.0
C973 C 0.9251 0.44072 0.36371 0.0
C974 C 0.8399 0.39946 0.33828 0.0
C975 C 0.84355 0.36648 0.30747 0.0
C976 C 0.89546 0.42021 0.33907 0.0
C977 C 0.87186 0.36302 0.28994 0.0
C978 C 0.95157 0.42258 0.36262 0.0
C979 C 0.94685 0.4894 0.42304 0.0
N980 N 0.89733 0.38918 0.30682 0.0
N981 N 0.924 0.47395 0.39336 0.0
H982 H 0.57501 0.64473 0.5065 0.0
H983 H 0.72187 0.61632 0.37994 0.0
H984 H 0.62406 0.55129 0.46496 0.0
H985 H 0.67073 0.70862 0.42126 0.0
H986 H 0.6903 0.59476 0.41518 0.0
H987 H 0.61426 0.67156 0.48211 0.0
C988 C 0.59499 0.6305 0.49374 0.0
C989 C 0.59671 0.59614 0.48911 0.0
C990 C 0.68606 0.61982 0.41672 0.0
C991 C 0.64116 0.626 0.45858 0.0
C992 C 0.70428 0.63239 0.3966 0.0
C993 C 0.69931 0.66464 0.39722 0.0
C994 C 0.6624 0.63945 0.43805 0.0
C995 C 0.67544 0.68347 0.41913 0.0
C996 C 0.61713 0.64558 0.47907 0.0
C997 C 0.62236 0.57835 0.47054 0.0
N998 N 0.65807 0.67067 0.43842 0.0
N999 N 0.64324 0.59323 0.45567 0.0
H1000 H 0.84996 0.32831 0.83252 0.0
H1001 H 0.99267 0.47912 0.86253 0.0
H1002 H 0.87316 0.35034 0.74436 0.0
H1003 H 0.95224 0.46862 0.9515 0.0
H1004 H 0.95171 0.43031 0.81748 0.0
H1005 H 0.89021 0.37776 0.87532 0.0
C1006 C 0.86346 0.34376 0.82222 0.0
C1007 C 0.85805 0.33549 0.78496 0.0
C1008 C 0.95182 0.43887 0.84689 0.0
C1009 C 0.90463 0.39208 0.83384 0.0
C1010 C 0.97514 0.46661 0.87252 0.0
C1011 C 0.97574 0.4778 0.91068 0.0
C1012 C 0.92931 0.42222 0.85971 0.0
C1013 C 0.95261 0.4608 0.92231 0.0
C1014 C 0.88651 0.37201 0.84669 0.0
C1015 C 0.87658 0.35604 0.77298 0.0
N1016 N 0.93046 0.43382 0.89694 0.0
N1017 N 0.89919 0.38347 0.79741 0.0
H1018 H 0.89582 0.83378 0.0802 0.0
H1019 H 0.94233 0.99778 0.04153 0.0
H1020 H 0.84764 0.92839 0.12518 0.0
H1021 H 0.9928 0.90555 1.00332 0.0
H1022 H 0.90237 0.96944 0.06442 0.0
H1023 H 0.92683 0.85649 0.04564 0.0
C1024 C 0.89139 0.85917 0.08272 0.0
C1025 C 0.86883 0.87902 0.10621 0.0
C1026 C 0.92167 0.9549 0.05008 0.0
C1027 C 0.9051 0.90574 0.06627 0.0
C1028 C 0.94413 0.97081 0.03621 0.0
C1029 C 0.97055 0.95362 0.01931 0.0
C1030 C 0.92571 0.92159 0.04739 0.0
C1031 C 0.97243 0.91945 0.01518 0.0
C1032 C 0.90938 0.87229 0.06295 0.0
C1033 C 0.86499 0.91214 0.10822 0.0
N1034 N 0.95071 0.90484 0.02929 0.0
N1035 N 0.88285 0.92437 0.08878 0.0
H1036 H 0.82366 0.16205 0.74493 0.0
H1037 H 0.89772 0.15493 0.92505 0.0
H1038 H 0.82101 0.2465 0.85804 0.0
H1039 H 0.89553 0.06807 0.81207 0.0
H1040 H 0.87015 0.18856 0.90128 0.0
H1041 H 0.85008 0.12776 0.7689 0.0
C1042 C 0.82845 0.17348 0.77483 0.0
C1043 C 0.81978 0.20754 0.79927 0.0
C1044 C 0.87568 0.16213 0.88163 0.0
C1045 C 0.85069 0.16785 0.82729 0.0
C1046 C 0.89139 0.14258 0.89526 0.0
C1047 C 0.89934 0.10805 0.87087 0.0
C1048 C 0.86753 0.14752 0.84303 0.0
C1049 C 0.89067 0.09453 0.83237 0.0
C1050 C 0.84369 0.15374 0.78857 0.0
C1051 C 0.82699 0.2205 0.83784 0.0
N1052 N 0.87541 0.11409 0.81986 0.0
N1053 N 0.84193 0.20085 0.85048 0.0
H1054 H 0.68705 0.19207 0.76102 0.0
H1055 H 0.61597 0.07045 0.5469 0.0
H1056 H 0.70957 0.21567 0.67375 0.0
H1057 H 0.57008 0.06417 0.63535 0.0
H1058 H 0.65534 0.119 0.59331 0.0
H1059 H 0.64806 0.14084 0.71572 0.0
C1060 C 0.68384 0.18641 0.73238 0.0
C1061 C 0.70171 0.20785 0.72097 0.0
C1062 C 0.63671 0.10705 0.60268 0.0
C1063 C 0.6577 0.1496 0.66933 0.0
C1064 C 0.61426 0.07927 0.57617 0.0
C1065 C 0.58964 0.06353 0.58739 0.0
C1066 C 0.63476 0.11906 0.64078 0.0
C1067 C 0.58868 0.0758 0.62565 0.0
C1068 C 0.66165 0.15729 0.70663 0.0
C1069 C 0.69662 0.19955 0.68364 0.0
N1070 N 0.61097 0.10294 0.6511 0.0
N1071 N 0.67524 0.17105 0.65919 0.0
H1072 H 0.58831 0.90623 0.43909 0.0
H1073 H 0.72693 0.88392 0.30412 0.0
H1074 H 0.62784 0.99222 0.42161 0.0
H1075 H 0.71283 0.81858 0.3561 0.0
H1076 H 0.68668 0.92054 0.3412 0.0
H1077 H 0.62929 0.87017 0.40288 0.0
C1078 C 0.60547 0.91754 0.42759 0.0
C1079 C 0.60451 0.95251 0.43368 0.0
C1080 C 0.69251 0.89828 0.3446 0.0
C1081 C 0.65148 0.91101 0.39163 0.0
C1082 C 0.71554 0.87731 0.3234 0.0
C1083 C 0.72368 0.84815 0.32704 0.0
C1084 C 0.67679 0.88972 0.3692 0.0
C1085 C 0.70777 0.84095 0.35249 0.0
C1086 C 0.62898 0.89695 0.40701 0.0
C1087 C 0.6276 0.96556 0.41797 0.0
N1088 N 0.68505 0.86129 0.37224 0.0
N1089 N 0.64986 0.94485 0.3976 0.0
H1090 H 0.92175 0.16354 0.35607 0.0
H1091 H 0.93207 0.0917 0.50318 0.0
H1092 H 0.84399 0.16296 0.42071 0.0
H1093 H 1.00063 0.07477 0.42312 0.0
H1094 H 0.90098 0.12108 0.47647 0.0
H1095 H 0.95196 0.13356 0.38243 0.0
C1096 C 0.91087 0.15704 0.37567 0.0
C1097 C 0.88021 0.16637 0.38633 0.0
C1098 C 0.92283 0.11089 0.46473 0.0
C1099 C 0.91522 0.13213 0.41733 0.0
C1100 C 0.94069 0.09415 0.48009 0.0
C1101 C 0.96917 0.08051 0.46551 0.0
C1102 C 0.9335 0.11439 0.43463 0.0
C1103 C 0.97889 0.08463 0.43542 0.0
C1104 C 0.92829 0.14003 0.39094 0.0
C1105 C 0.86776 0.15721 0.41217 0.0
N1106 N 0.96126 0.10113 0.42119 0.0
N1107 N 0.88525 0.14091 0.42684 0.0
H1108 H 0.69294 0.22687 0.24589 0.0
H1109 H 0.61633 0.04841 0.06462 0.0
H1110 H 0.74679 0.15374 0.16067 0.0
H1111 H 0.57527 0.14785 0.11422 0.0
H1112 H 0.65748 0.07422 0.118 0.0
H1113 H 0.64424 0.18354 0.21605 0.0
C1114 C 0.69475 0.20103 0.22184 0.0
C1115 C 0.72339 0.19392 0.20479 0.0
C1116 C 0.63893 0.08996 0.11754 0.0
C1117 C 0.6685 0.14484 0.17127 0.0
C1118 C 0.61571 0.0755 0.08708 0.0
C1119 C 0.59324 0.09665 0.08473 0.0
C1120 C 0.63933 0.12557 0.14573 0.0
C1121 C 0.59289 0.13119 0.11471 0.0
C1122 C 0.66703 0.17649 0.20488 0.0
C1123 C 0.72477 0.16023 0.17391 0.0
N1124 N 0.61603 0.14488 0.14393 0.0
N1125 N 0.6974 0.137 0.15759 0.0
H1126 H 0.74558 0.88964 0.86504 0.0
H1127 H 0.57073 0.95435 0.88356 0.0
H1128 H 0.66764 0.82918 0.77809 0.0
H1129 H 0.63565 0.97656 0.97846 0.0
H1130 H 0.60795 0.91564 0.84197 0.0
H1131 H 0.70805 0.92891 0.90395 0.0
C1132 C 0.72063 0.88473 0.85383 0.0
C1133 C 0.70999 0.85581 0.81793 0.0
C1134 C 0.61404 0.92908 0.8719 0.0
C1135 C 0.66648 0.90143 0.86289 0.0
C1136 C 0.59289 0.9514 0.8957 0.0
C1137 C 0.59993 0.96892 0.93476 0.0
C1138 C 0.64295 0.92478 0.88708 0.0
C1139 C 0.629 0.96366 0.94868 0.0
C1140 C 0.69911 0.90717 0.8763 0.0
C1141 C 0.6771 0.85098 0.80547 0.0
N1142 N 0.64939 0.94245 0.92501 0.0
N1143 N 0.65663 0.87359 0.82773 0.0
H1144 H 0.88855 0.88327 0.58116 0.0
H1145 H 0.81624 0.8744 0.7551 0.0
H1146 H 0.90464 0.97279 0.6936 0.0
H1147 H 0.81122 0.78425 0.64383 0.0
H1148 H 0.8469 0.91192 0.73401 0.0
H1149 H 0.85914 0.8478 0.60425 0.0
C1150 C 0.8863 0.89561 0.61078 0.0
C1151 C 0.8996 0.9315 0.63518 0.0
C1152 C 0.83903 0.88392 0.71424 0.0
C1153 C 0.86469 0.8904 0.66213 0.0
C1154 C 0.82143 0.86249 0.72629 0.0
C1155 C 0.81088 0.82597 0.70128 0.0
C1156 C 0.8461 0.86887 0.67679 0.0
C1157 C 0.81863 0.81216 0.66427 0.0
C1158 C 0.86911 0.87521 0.62399 0.0
C1159 C 0.89471 0.94559 0.67328 0.0
N1160 N 0.83552 0.83343 0.65329 0.0
N1161 N 0.87778 0.92517 0.68544 0.0
H1162 H 0.2037 0.81395 0.85538 0.0
H1163 H 0.06977 0.94336 0.87209 0.0
H1164 H 0.18839 0.84861 0.77469 0.0
H1165 H 0.10578 0.92856 0.96237 0.0
H1166 H 0.10726 0.9032 0.83228 0.0
H1167 H 0.16271 0.84991 0.89081 0.0
C1168 C 0.19164 0.82885 0.84481 0.0
C1169 C 0.19993 0.82794 0.81169 0.0
C1170 C 0.10676 0.90859 0.86075 0.0
C1171 C 0.15211 0.86975 0.85275 0.0
C1172 C 0.08509 0.93136 0.88346 0.0
C1173 C 0.08433 0.93965 0.92092 0.0
C1174 C 0.12763 0.89337 0.87524 0.0
C1175 C 0.10532 0.92335 0.93389 0.0
C1176 C 0.16814 0.84962 0.86528 0.0
C1177 C 0.18312 0.84828 0.79996 0.0
N1178 N 0.12578 0.90124 0.91132 0.0
N1179 N 0.16017 0.86815 0.82027 0.0
H1180 H 0.88097 0.38243 0.5384 0.0
H1181 H 0.84703 0.18084 0.49598 0.0
H1182 H 0.95043 0.30728 0.50084 0.0
H1183 H 0.78805 0.26365 0.55835 0.0
H1184 H 0.87769 0.22208 0.48082 0.0
H1185 H 0.83963 0.334 0.52865 0.0
C1186 C 0.88736 0.35558 0.52752 0.0
C1187 C 0.91919 0.34882 0.52094 0.0
C1188 C 0.85731 0.23063 0.49677 0.0
C1189 C 0.8722 0.29351 0.50986 0.0
C1190 C 0.83988 0.20722 0.50571 0.0
C1191 C 0.81562 0.21905 0.52981 0.0
C1192 C 0.84975 0.26565 0.51092 0.0
C1193 C 0.80665 0.25308 0.54004 0.0
C1194 C 0.8638 0.32801 0.52202 0.0
C1195 C 0.92627 0.31366 0.50699 0.0
N1196 N 0.82408 0.27537 0.53106 0.0
N1197 N 0.90299 0.28732 0.50222 0.0
H1198 H 0.56836 0.19547 0.41936 0.0
H1199 H 0.46101 0.35167 0.4597 0.0
H1200 H 0.52908 0.25644 0.52398 0.0
H1201 H 0.47395 0.26751 0.34947 0.0
H1202 H 0.49821 0.32766 0.48639 0.0
H1203 H 0.54642 0.23283 0.39678 0.0
C1204 C 0.55569 0.21722 0.43787 0.0
C1205 C 0.55024 0.22272 0.47348 0.0
C1206 C 0.49321 0.31481 0.45635 0.0
C1207 C 0.52488 0.26521 0.44768 0.0
C1208 C 0.47193 0.32842 0.44111 0.0
C1209 C 0.46385 0.31129 0.40235 0.0
C1210 C 0.5067 0.28394 0.4326 0.0
C1211 C 0.47941 0.28174 0.3795 0.0
C1212 C 0.54301 0.23834 0.42486 0.0
C1213 C 0.53337 0.25102 0.49614 0.0
N1214 N 0.49981 0.26877 0.395 0.0
N1215 N 0.52105 0.27109 0.48275 0.0
H1216 H 0.58151 0.63676 0.04136 0.0
H1217 H 0.71923 0.72575 0.15374 0.0
H1218 H 0.56377 0.61817 0.1328 0.0
H1219 H 0.66414 0.75111 0.24736 0.0
H1220 H 0.66916 0.70016 0.11194 0.0
H1221 H 0.6162 0.69255 0.08452 0.0
C1222 C 0.58381 0.64542 0.07092 0.0
C1223 C 0.57013 0.62314 0.08388 0.0
C1224 C 0.66785 0.71259 0.14174 0.0
C1225 C 0.61042 0.68546 0.1326 0.0
C1226 C 0.6965 0.72689 0.1655 0.0
C1227 C 0.6957 0.73946 0.20372 0.0
C1228 C 0.63858 0.71072 0.15658 0.0
C1229 C 0.66573 0.74069 0.2178 0.0
C1230 C 0.60395 0.67684 0.09532 0.0
C1231 C 0.574 0.63486 0.12202 0.0
N1232 N 0.63839 0.7255 0.19411 0.0
N1233 N 0.59432 0.6651 0.14511 0.0
H1234 H 0.207 0.24679 0.66249 0.0
H1235 H 0.05939 0.10378 0.62963 0.0
H1236 H 0.19184 0.19119 0.72457 0.0
H1237 H 0.07944 0.1417 0.55269 0.0
H1238 H 0.09521 0.15522 0.67823 0.0
H1239 H 0.15064 0.22565 0.63435 0.0
C1240 C 0.19167 0.23039 0.67029 0.0
C1241 C 0.20408 0.21936 0.69448 0.0
C1242 C 0.09094 0.15311 0.65112 0.0
C1243 C 0.1401 0.19633 0.6639 0.0
C1244 C 0.07011 0.12404 0.62362 0.0
C1245 C 0.06695 0.11868 0.58739 0.0
C1246 C 0.10931 0.17592 0.64156 0.0
C1247 C 0.08158 0.14518 0.58055 0.0
C1248 C 0.1596 0.21866 0.65462 0.0
C1249 C 0.18336 0.19905 0.70481 0.0
N1250 N 0.10304 0.17223 0.60714 0.0
N1251 N 0.15251 0.18788 0.68917 0.0
H1252 H 0.69521 0.35761 0.27936 0.0
H1253 H 0.60622 0.43109 0.46698 0.0
H1254 H 0.70914 0.32371 0.36086 0.0
H1255 H 0.57564 0.44909 0.37715 0.0
H1256 H 0.64428 0.39278 0.42839 0.0
H1257 H 0.65279 0.39202 0.31412 0.0
C1258 C 0.68944 0.35725 0.30449 0.0
C1259 C 0.70619 0.33743 0.31693 0.0
C1260 C 0.62917 0.40475 0.41678 0.0
C1261 C 0.65718 0.37746 0.3574 0.0
C1262 C 0.60719 0.42676 0.4389 0.0
C1263 C 0.58723 0.44354 0.42554 0.0
C1264 C 0.63212 0.39944 0.38068 0.0
C1265 C 0.59007 0.43658 0.38873 0.0
C1266 C 0.66502 0.37696 0.32434 0.0
C1267 C 0.69719 0.33831 0.34984 0.0
N1268 N 0.61221 0.41549 0.36786 0.0
N1269 N 0.67369 0.35796 0.36879 0.0
H1270 H 0.47433 0.83749 0.03793 0.0
H1271 H 0.30446 0.78083 0.08467 0.0
H1272 H 0.40903 0.91134 0.10182 0.0
H1273 H 0.3707 0.70548 0.0266 0.0
H1274 H 0.33761 0.82638 0.0787 0.0
H1275 H 0.4335 0.78743 0.02469 0.0
C1276 C 0.45148 0.84316 0.04942 0.0
C1277 C 0.44518 0.87862 0.07145 0.0
C1278 C 0.34467 0.79972 0.06664 0.0
C1279 C 0.39817 0.82154 0.05565 0.0
C1280 C 0.3254 0.77333 0.0695 0.0
C1281 C 0.33505 0.7392 0.05668 0.0
C1282 C 0.37401 0.79218 0.05125 0.0
C1283 C 0.36276 0.73163 0.03771 0.0
C1284 C 0.42806 0.81458 0.04143 0.0
C1285 C 0.41487 0.88443 0.0847 0.0
N1286 N 0.38167 0.75815 0.03622 0.0
N1287 N 0.39257 0.85617 0.07678 0.0
H1288 H 0.07007 0.70667 0.91748 0.0
H1289 H 0.94135 0.84113 0.95682 0.0
H1290 H 1.02412 0.75497 0.01919 0.0
H1291 H 0.9904 0.79613 0.85718 0.0
H1292 H 0.97916 0.81962 0.98551 0.0
H1293 H 0.04884 0.74802 0.90016 0.0
C1294 C 0.0558 0.72632 0.93635 0.0
C1295 C 0.04831 0.72704 0.96945 0.0
C1296 C 0.98204 0.81495 0.9576 0.0
C1297 C 1.02375 0.77426 0.9498 0.0
C1298 C 0.9606 0.8275 0.94132 0.0
C1299 C 0.96254 0.82003 0.90441 0.0
C1300 C 1.0053 0.79437 0.93661 0.0
C1301 C 0.98767 0.8018 0.88543 0.0
C1302 C 0.04377 0.75001 0.92656 0.0
C1303 C 1.03031 0.75346 0.99332 0.0
N1304 N 1.00778 0.78913 0.90155 0.0
N1305 N 1.01815 0.77565 0.98272 0.0
H1306 H 0.40682 0.47814 0.19915 0.0
H1307 H 0.31355 0.28468 0.14546 0.0
H1308 H 0.39074 0.38775 0.08725 0.0
H1309 H 0.31847 0.37576 0.25611 0.0
H1310 H 0.34348 0.32227 0.12519 0.0
H1311 H 0.37656 0.44202 0.22137 0.0
C1312 C 0.39693 0.45085 0.17902 0.0
C1313 C 0.40171 0.43644 0.14089 0.0
C1314 C 0.33808 0.33429 0.15392 0.0
C1315 C 0.36691 0.39427 0.16685 0.0
C1316 C 0.32085 0.31271 0.16565 0.0
C1317 C 0.31313 0.32686 0.20267 0.0
C1318 C 0.34822 0.37076 0.17925 0.0
C1319 C 0.32362 0.36354 0.22729 0.0
C1320 C 0.37968 0.4301 0.19196 0.0
C1321 C 0.38849 0.40038 0.11686 0.0
N1322 N 0.3406 0.38411 0.2152 0.0
N1323 N 0.37191 0.38085 0.13016 0.0
H1324 H 0.4942 0.56293 0.91664 0.0
H1325 H 0.35526 0.68744 0.94091 0.0
H1326 H 0.43961 0.60387 0.01195 0.0
H1327 H 0.40775 0.64133 0.84403 0.0
H1328 H 0.38595 0.65824 0.96778 0.0
H1329 H 0.4631 0.59219 0.89059 0.0
C1330 C 0.47566 0.57806 0.93224 0.0
C1331 C 0.46972 0.58072 0.96677 0.0
C1332 C 0.3908 0.6546 0.9407 0.0
C1333 C 0.43357 0.61482 0.9366 0.0
C1334 C 0.37335 0.67147 0.92526 0.0
C1335 C 0.3787 0.66713 0.88986 0.0
C1336 C 0.41416 0.63322 0.92097 0.0
C1337 C 0.40225 0.64535 0.87106 0.0
C1338 C 0.45781 0.59485 0.91719 0.0
C1339 C 0.44519 0.60089 0.98531 0.0
N1340 N 0.41901 0.62945 0.8868 0.0
N1341 N 0.42814 0.61712 0.97008 0.0
H1342 H 0.08183 0.5824 0.6212 0.0
H1343 H 0.26523 0.65081 0.65452 0.0
H1344 H 0.14894 0.55497 0.53814 0.0
H1345 H 0.19694 0.69915 0.734 0.0
H1346 H 0.2279 0.59537 0.62248 0.0
H1347 H 0.12725 0.60449 0.66981 0.0
C1348 C 0.10614 0.58028 0.61321 0.0
C1349 C 0.11205 0.56839 0.57609 0.0
C1350 C 0.22139 0.6177 0.64758 0.0
C1351 C 0.16354 0.5929 0.6309 0.0
C1352 C 0.24265 0.64927 0.66578 0.0
C1353 C 0.23329 0.67965 0.69575 0.0
C1354 C 0.19028 0.61732 0.65873 0.0
C1355 C 0.20443 0.67634 0.71017 0.0
C1356 C 0.13195 0.59265 0.64084 0.0
C1357 C 0.14366 0.56527 0.56678 0.0
N1358 N 0.18326 0.64595 0.69066 0.0
N1359 N 0.16833 0.57809 0.59414 0.0
H1360 H 0.34808 0.43333 0.63162 0.0
H1361 H 0.49739 0.41091 0.50979 0.0
H1362 H 0.40013 0.34167 0.58878 0.0
H1363 H 0.44487 0.50159 0.54824 0.0
H1364 H 0.45834 0.38273 0.53297 0.0
H1365 H 0.37983 0.45656 0.59785 0.0
C1366 C 0.36591 0.41775 0.61493 0.0
C1367 C 0.37107 0.38517 0.61345 0.0
C1368 C 0.45465 0.40835 0.53556 0.0
C1369 C 0.4082 0.41232 0.57439 0.0
C1370 C 0.47671 0.42422 0.52158 0.0
C1371 C 0.47393 0.45817 0.52562 0.0
C1372 C 0.42957 0.42673 0.55477 0.0
C1373 C 0.4474 0.47481 0.54305 0.0
C1374 C 0.38422 0.43127 0.59566 0.0
C1375 C 0.39525 0.36703 0.59159 0.0
N1376 N 0.42656 0.45918 0.55726 0.0
N1377 N 0.41272 0.38078 0.57318 0.0
H1378 H 0.17107 0.75027 0.20339 0.0
H1379 H 0.07483 0.56096 0.13379 0.0
H1380 H 0.20968 0.68016 0.23749 0.0
H1381 H 0.10645 0.58786 0.05152 0.0
H1382 H 0.11131 0.613 0.18197 0.0
H1383 H 0.13291 0.69891 0.15633 0.0
C1384 C 0.1711 0.72422 0.20128 0.0
C1385 C 0.19328 0.71914 0.22411 0.0
C1386 C 0.10992 0.60744 0.15333 0.0
C1387 C 0.14985 0.66135 0.17169 0.0
C1388 C 0.08928 0.57792 0.12595 0.0
C1389 C 0.08752 0.57043 0.08878 0.0
C1390 C 0.12799 0.63003 0.14349 0.0
C1391 C 0.10681 0.59309 0.07997 0.0
C1392 C 0.14963 0.69511 0.17448 0.0
C1393 C 0.19285 0.68491 0.22022 0.0
N1394 N 0.12602 0.62225 0.10726 0.0
N1395 N 0.17119 0.65726 0.19469 0.0
H1396 H 0.73436 0.38158 0.76278 0.0
H1397 H 0.67358 0.39971 0.58482 0.0
H1398 H 0.74215 0.30101 0.64923 0.0
H1399 H 0.66212 0.4771 0.69861 0.0
H1400 H 0.69897 0.36385 0.60738 0.0
H1401 H 0.70919 0.41712 0.73966 0.0
C1402 C 0.73096 0.37125 0.73295 0.0
C1403 C 0.74069 0.33789 0.70815 0.0
C1404 C 0.69092 0.38869 0.62745 0.0
C1405 C 0.71129 0.37914 0.68107 0.0
C1406 C 0.67607 0.40929 0.61452 0.0
C1407 C 0.66531 0.44205 0.63954 0.0
C1408 C 0.69536 0.40048 0.66595 0.0
C1409 C 0.6702 0.45265 0.67786 0.0
C1410 C 0.71642 0.39171 0.71969 0.0
C1411 C 0.73527 0.3264 0.66969 0.0
N1412 N 0.68468 0.43214 0.68967 0.0
N1413 N 0.72106 0.34682 0.65749 0.0
H1414 H 0.8511 0.72308 0.14379 0.0
H1415 H 0.93836 0.54713 0.07644 0.0
H1416 H 0.84137 0.65789 0.19638 0.0
H1417 H 0.97431 0.63461 0.05955 0.0
H1418 H 0.89825 0.58311 0.11415 0.0
H1419 H 0.8911 0.68686 0.10653 0.0
C1420 C 0.85706 0.70093 0.14735 0.0
C1421 C 0.84247 0.69361 0.17341 0.0
C1422 C 0.91491 0.59447 0.10224 0.0
C1423 C 0.88872 0.65163 0.13022 0.0
C1424 C 0.93782 0.57387 0.0805 0.0
C1425 C 0.95995 0.58769 0.06456 0.0
C1426 C 0.91342 0.62913 0.10774 0.0
C1427 C 0.95795 0.62272 0.07122 0.0
C1428 C 0.88018 0.68037 0.12612 0.0
C1429 C 0.85177 0.66465 0.17674 0.0
N1430 N 0.93503 0.642 0.09194 0.0
N1431 N 0.87405 0.64466 0.15531 0.0
H1432 H 0.93778 0.60406 0.54016 0.0
H1433 H 0.88325 0.72094 0.74276 0.0
H1434 H 0.97565 0.5923 0.63179 0.0
H1435 H 0.81514 0.67555 0.64467 0.0
H1436 H 0.92251 0.68312 0.70432 0.0
H1437 H 0.89787 0.63958 0.57932 0.0
C1438 C 0.93785 0.60905 0.56855 0.0
C1439 C 0.96021 0.59496 0.58252 0.0
C1440 C 0.8989 0.68137 0.69131 0.0
C1441 C 0.91478 0.63651 0.62797 0.0
C1442 C 0.87647 0.703 0.71322 0.0
C1443 C 0.8456 0.70134 0.69712 0.0
C1444 C 0.89096 0.6587 0.65265 0.0
C1445 C 0.83841 0.67756 0.65851 0.0
C1446 C 0.91493 0.62923 0.59084 0.0
C1447 C 0.95886 0.60237 0.61965 0.0
N1448 N 0.86093 0.65766 0.63764 0.0
N1449 N 0.9369 0.6229 0.64113 0.0
H1450 H 0.4114 0.57957 0.31778 0.0
H1451 H 0.30994 0.74488 0.36493 0.0
H1452 H 0.38413 0.64732 0.4279 0.0
H1453 H 0.33434 0.67238 0.25495 0.0
H1454 H 0.33699 0.71078 0.38907 0.0
H1455 H 0.38373 0.61388 0.29525 0.0
C1456 C 0.39949 0.60143 0.33741 0.0
C1457 C 0.40034 0.60991 0.37511 0.0
C1458 C 0.3364 0.70229 0.35963 0.0
C1459 C 0.36835 0.65049 0.34891 0.0
C1460 C 0.32085 0.72182 0.34575 0.0
C1461 C 0.31955 0.71178 0.30762 0.0
C1462 C 0.35109 0.67226 0.33541 0.0
C1463 C 0.33442 0.68146 0.28446 0.0
C1464 C 0.38372 0.62134 0.32438 0.0
C1465 C 0.38475 0.63953 0.39877 0.0
N1466 N 0.34941 0.66308 0.29861 0.0
N1467 N 0.36953 0.65848 0.38538 0.0
H1468 H 0.20113 0.30944 0.84365 0.0
H1469 H 0.13327 0.49944 0.92795 0.0
H1470 H 0.23348 0.38931 0.81396 0.0
H1471 H 0.08639 0.40896 0.93334 0.0
H1472 H 0.17281 0.46188 0.89074 0.0
H1473 H 0.16225 0.34758 0.88088 0.0
C1474 C 0.20027 0.33508 0.845 0.0
C1475 C 0.22093 0.34595 0.82538 0.0
C1476 C 0.15388 0.45022 0.90004 0.0
C1477 C 0.17591 0.39029 0.86863 0.0
C1478 C 0.13125 0.47173 0.92148 0.0
C1479 C 0.10621 0.45756 0.93405 0.0
C1480 C 0.15196 0.41415 0.89126 0.0
C1481 C 0.10506 0.42126 0.92439 0.0
C1482 C 0.17783 0.35686 0.86628 0.0
C1483 C 0.2182 0.37959 0.82841 0.0
N1484 N 0.12756 0.40103 0.90387 0.0
N1485 N 0.19631 0.4005 0.84963 0.0
H1486 H 0.24654 0.38688 0.37011 0.0
H1487 H 0.07263 0.45268 0.38697 0.0
H1488 H 0.17026 0.32986 0.2804 0.0
H1489 H 0.13169 0.46666 0.48246 0.0
H1490 H 0.11076 0.41525 0.34605 0.0
H1491 H 0.20797 0.42405 0.40982 0.0
C1492 C 0.22177 0.38236 0.3585 0.0
C1493 C 0.21188 0.35504 0.32155 0.0
C1494 C 0.11536 0.42649 0.37595 0.0
C1495 C 0.16727 0.39817 0.36732 0.0
C1496 C 0.09365 0.44803 0.39941 0.0
C1497 C 0.09876 0.46291 0.4384 0.0
C1498 C 0.14306 0.4204 0.39144 0.0
C1499 C 0.12651 0.45567 0.45267 0.0
C1500 C 0.19967 0.40353 0.3814 0.0
C1501 C 0.17917 0.35048 0.30856 0.0
N1502 N 0.14765 0.43536 0.42937 0.0
N1503 N 0.15821 0.3719 0.33121 0.0
loop_
_geom_bond_atom_site_label_1
_geom_bond_atom_site_label_2
_geom_bond_distance
_geom_bond_site_symmetry_2
_ccdc_geom_bond_type
Nd0 C2 2.836 1_545 S
Nd0 O20 2.500 . S
Nd0 O21 2.492 1_545 S
Nd0 O22 2.487 1_445 S
Nd0 O23 2.682 1_445 S
Nd0 O24 2.410 1_544 S
Nd0 O29 2.414 1_554 S
Nd0 O31 2.424 1_455 S
Nd1 C11 2.836 1_565 S
Nd1 O23 2.414 1_556 S
Nd1 O25 2.424 1_655 S
Nd1 O26 2.500 . S
Nd1 O27 2.492 1_565 S
Nd1 O28 2.487 1_665 S
Nd1 O29 2.682 1_665 S
Nd1 O30 2.410 1_566 S
C2 Nd0 2.836 1_565 S
C2 C3 1.498 . S
C2 O20 1.258 1_565 S
C2 O21 1.239 . S
C3 C2 1.498 . S
C3 C4 1.366 . S
C3 C8 1.407 . S
C4 C3 1.366 . S
C4 C5 1.392 . S
C4 H32 0.930 . S
C5 C4 1.392 . S
C5 C6 1.398 . S
C5 H33 0.929 . S
C6 C5 1.398 . S
C6 C7 1.352 . S
C7 C6 1.352 . S
C7 C8 1.384 . S
C7 H34 0.930 . S
C8 C3 1.407 . S
C8 C7 1.384 . S
C8 H35 0.929 . S
C9 O22 1.241 . S
C9 O23 1.273 . S
C10 O24 1.251 . S
C10 O25 1.268 . S
C11 Nd1 2.836 1_545 S
C11 C12 1.498 . S
C11 O26 1.258 1_545 S
C11 O27 1.239 . S
C12 C11 1.498 . S
C12 C13 1.366 . S
C12 C17 1.407 . S
C13 C12 1.366 . S
C13 C14 1.392 . S
C13 H36 0.930 . S
C14 C13 1.392 . S
C14 C15 1.398 . S
C14 H37 0.929 . S
C15 C14 1.398 . S
C15 C16 1.352 . S
C16 C15 1.352 . S
C16 C17 1.384 . S
C16 H38 0.930 . S
C17 C12 1.407 . S
C17 C16 1.384 . S
C17 H39 0.929 . S
C18 O28 1.241 . S
C18 O29 1.273 . S
C19 O30 1.251 . S
C19 O31 1.268 . S
O20 Nd0 2.500 . S
O20 C2 1.258 1_545 S
O21 Nd0 2.492 1_565 S
O21 C2 1.239 . S
O22 Nd0 2.487 1_665 S
O22 C9 1.241 . S
O23 Nd0 2.682 1_665 S
O23 Nd1 2.414 1_554 S
O23 C9 1.273 . S
O24 Nd0 2.410 1_566 S
O24 C10 1.251 . S
O25 Nd1 2.424 1_455 S
O25 C10 1.268 . S
O26 Nd1 2.500 . S
O26 C11 1.258 1_565 S
O27 Nd1 2.492 1_545 S
O27 C11 1.239 . S
O28 Nd1 2.487 1_445 S
O28 C18 1.241 . S
O29 Nd0 2.414 1_556 S
O29 Nd1 2.682 1_445 S
O29 C18 1.273 . S
O30 Nd1 2.410 1_544 S
O30 C19 1.251 . S
O31 Nd0 2.424 1_655 S
O31 C19 1.268 . S
H32 C4 0.930 . S
H33 C5 0.929 . S
H34 C7 0.930 . S
H35 C8 0.929 . S
H36 C13 0.930 . S
H37 C14 0.929 . S
H38 C16 0.930 . S
H39 C17 0.929 . S
Nd40 C42 2.836 . S
Nd40 O60 2.500 . S
Nd40 O61 2.492 . S
Nd40 O62 2.487 . S
Nd40 O63 2.682 . S
Nd40 O64 2.410 . S
Nd40 O69 2.414 . S
Nd40 O71 2.424 . S
Nd41 C51 2.836 . S
Nd41 O63 2.414 . S
Nd41 O65 2.424 . S
Nd41 O66 2.500 . S
Nd41 O67 2.492 . S
Nd41 O68 2.487 . S
Nd41 O69 2.682 . S
Nd41 O70 2.410 . S
C42 Nd40 2.836 . S
C42 C43 1.498 . S
C42 O60 1.258 . S
C42 O61 1.239 . S
C43 C42 1.498 . S
C43 C44 1.366 . S
C43 C48 1.407 . S
C44 C43 1.366 . S
C44 C45 1.392 . S
C44 H72 0.930 . S
C45 C44 1.392 . S
C45 C46 1.398 . S
C45 H73 0.929 . S
C46 C45 1.398 . S
C46 C47 1.352 . S
C47 C46 1.352 . S
C47 C48 1.384 . S
C47 H74 0.930 . S
C48 C43 1.407 . S
C48 C47 1.384 . S
C48 H75 0.929 . S
C49 O62 1.241 . S
C49 O63 1.273 . S
C50 O64 1.251 . S
C50 O65 1.268 . S
C51 Nd41 2.836 . S
C51 C52 1.498 . S
C51 O66 1.258 . S
C51 O67 1.239 . S
C52 C51 1.498 . S
C52 C53 1.366 . S
C52 C57 1.407 . S
C53 C52 1.366 . S
C53 C54 1.392 . S
C53 H76 0.930 . S
C54 C53 1.392 . S
C54 C55 1.398 . S
C54 H77 0.929 . S
C55 C54 1.398 . S
C55 C56 1.352 . S
C56 C55 1.352 . S
C56 C57 1.384 . S
C56 H78 0.930 . S
C57 C52 1.407 . S
C57 C56 1.384 . S
C57 H79 0.929 . S
C58 O68 1.241 . S
C58 O69 1.273 . S
C59 O70 1.251 . S
C59 O71 1.268 . S
O60 Nd40 2.500 . S
O60 C42 1.258 . S
O61 Nd40 2.492 . S
O61 C42 1.239 . S
O62 Nd40 2.487 . S
O62 C49 1.241 . S
O63 Nd40 2.682 . S
O63 Nd41 2.414 . S
O63 C49 1.273 . S
O64 Nd40 2.410 . S
O64 C50 1.251 . S
O65 Nd41 2.424 . S
O65 C50 1.268 . S
O66 Nd41 2.500 . S
O66 C51 1.258 . S
O67 Nd41 2.492 . S
O67 C51 1.239 . S
O68 Nd41 2.487 . S
O68 C58 1.241 . S
O69 Nd40 2.414 . S
O69 Nd41 2.682 . S
O69 C58 1.273 . S
O70 Nd41 2.410 . S
O70 C59 1.251 . S
O71 Nd40 2.424 . S
O71 C59 1.268 . S
H72 C44 0.930 . S
H73 C45 0.929 . S
H74 C47 0.930 . S
H75 C48 0.929 . S
H76 C53 0.930 . S
H77 C54 0.929 . S
H78 C56 0.930 . S
H79 C57 0.929 . S
Nd80 C82 2.836 . S
Nd80 O100 2.500 . S
Nd80 O101 2.492 . S
Nd80 O102 2.487 1_545 S
Nd80 O103 2.682 1_545 S
Nd80 O104 2.410 . S
Nd80 O109 2.414 . S
Nd80 O111 2.424 1_545 S
Nd81 C91 2.836 . S
Nd81 O103 2.414 . S
Nd81 O105 2.424 1_565 S
Nd81 O106 2.500 . S
Nd81 O107 2.492 . S
Nd81 O108 2.487 1_565 S
Nd81 O109 2.682 1_565 S
Nd81 O110 2.410 . S
C82 Nd80 2.836 . S
C82 C83 1.498 . S
C82 O100 1.258 . S
C82 O101 1.239 . S
C83 C82 1.498 . S
C83 C84 1.366 . S
C83 C88 1.407 . S
C84 C83 1.366 . S
C84 C85 1.392 . S
C84 H112 0.930 . S
C85 C84 1.392 . S
C85 C86 1.398 . S
C85 H113 0.929 . S
C86 C85 1.398 . S
C86 C87 1.352 . S
C87 C86 1.352 . S
C87 C88 1.384 . S
C87 H114 0.930 . S
C88 C83 1.407 . S
C88 C87 1.384 . S
C88 H115 0.929 . S
C89 O102 1.241 . S
C89 O103 1.273 . S
C90 O104 1.251 . S
C90 O105 1.268 . S
C91 Nd81 2.836 . S
C91 C92 1.498 . S
C91 O106 1.258 . S
C91 O107 1.239 . S
C92 C91 1.498 . S
C92 C93 1.366 . S
C92 C97 1.407 . S
C93 C92 1.366 . S
C93 C94 1.392 . S
C93 H116 0.930 . S
C94 C93 1.392 . S
C94 C95 1.398 . S
C94 H117 0.929 . S
C95 C94 1.398 . S
C95 C96 1.352 . S
C96 C95 1.352 . S
C96 C97 1.384 . S
C96 H118 0.930 . S
C97 C92 1.407 . S
C97 C96 1.384 . S
C97 H119 0.929 . S
C98 O108 1.241 . S
C98 O109 1.273 . S
C99 O110 1.251 . S
C99 O111 1.268 . S
O100 Nd80 2.500 . S
O100 C82 1.258 . S
O101 Nd80 2.492 . S
O101 C82 1.239 . S
O102 Nd80 2.487 1_565 S
O102 C89 1.241 . S
O103 Nd80 2.682 1_565 S
O103 Nd81 2.414 . S
O103 C89 1.273 . S
O104 Nd80 2.410 . S
O104 C90 1.251 . S
O105 Nd81 2.424 1_545 S
O105 C90 1.268 . S
O106 Nd81 2.500 . S
O106 C91 1.258 . S
O107 Nd81 2.492 . S
O107 C91 1.239 . S
O108 Nd81 2.487 1_545 S
O108 C98 1.241 . S
O109 Nd80 2.414 . S
O109 Nd81 2.682 1_545 S
O109 C98 1.273 . S
O110 Nd81 2.410 . S
O110 C99 1.251 . S
O111 Nd80 2.424 1_565 S
O111 C99 1.268 . S
H112 C84 0.930 . S
H113 C85 0.929 . S
H114 C87 0.930 . S
H115 C88 0.929 . S
H116 C93 0.930 . S
H117 C94 0.929 . S
H118 C96 0.930 . S
H119 C97 0.929 . S
Nd120 C122 2.836 . S
Nd120 O140 2.500 . S
Nd120 O141 2.492 . S
Nd120 O142 2.487 . S
Nd120 O143 2.682 . S
Nd120 O144 2.410 . S
Nd120 O149 2.414 . S
Nd120 O151 2.424 . S
Nd121 C131 2.836 . S
Nd121 O143 2.414 . S
Nd121 O145 2.424 . S
Nd121 O146 2.500 . S
Nd121 O147 2.492 . S
Nd121 O148 2.487 . S
Nd121 O149 2.682 . S
Nd121 O150 2.410 . S
C122 Nd120 2.836 . S
C122 C123 1.498 . S
C122 O140 1.258 . S
C122 O141 1.239 . S
C123 C122 1.498 . S
C123 C124 1.366 . S
C123 C128 1.407 . S
C124 C123 1.366 . S
C124 C125 1.392 . S
C124 H152 0.930 . S
C125 C124 1.392 . S
C125 C126 1.398 . S
C125 H153 0.929 . S
C126 C125 1.398 . S
C126 C127 1.352 . S
C127 C126 1.352 . S
C127 C128 1.384 . S
C127 H154 0.930 . S
C128 C123 1.407 . S
C128 C127 1.384 . S
C128 H155 0.929 . S
C129 O142 1.241 . S
C129 O143 1.273 . S
C130 O144 1.251 . S
C130 O145 1.268 . S
C131 Nd121 2.836 . S
C131 C132 1.498 . S
C131 O146 1.258 . S
C131 O147 1.239 . S
C132 C131 1.498 . S
C132 C133 1.366 . S
C132 C137 1.407 . S
C133 C132 1.366 . S
C133 C134 1.392 . S
C133 H156 0.930 . S
C134 C133 1.392 . S
C134 C135 1.398 . S
C134 H157 0.929 . S
C135 C134 1.398 . S
C135 C136 1.352 . S
C136 C135 1.352 . S
C136 C137 1.384 . S
C136 H158 0.930 . S
C137 C132 1.407 . S
C137 C136 1.384 . S
C137 H159 0.929 . S
C138 O148 1.241 . S
C138 O149 1.273 . S
C139 O150 1.251 . S
C139 O151 1.268 . S
O140 Nd120 2.500 . S
O140 C122 1.258 . S
O141 Nd120 2.492 . S
O141 C122 1.239 . S
O142 Nd120 2.487 . S
O142 C129 1.241 . S
O143 Nd120 2.682 . S
O143 Nd121 2.414 . S
O143 C129 1.273 . S
O144 Nd120 2.410 . S
O144 C130 1.251 . S
O145 Nd121 2.424 . S
O145 C130 1.268 . S
O146 Nd121 2.500 . S
O146 C131 1.258 . S
O147 Nd121 2.492 . S
O147 C131 1.239 . S
O148 Nd121 2.487 . S
O148 C138 1.241 . S
O149 Nd120 2.414 . S
O149 Nd121 2.682 . S
O149 C138 1.273 . S
O150 Nd121 2.410 . S
O150 C139 1.251 . S
O151 Nd120 2.424 . S
O151 C139 1.268 . S
H152 C124 0.930 . S
H153 C125 0.929 . S
H154 C127 0.930 . S
H155 C128 0.929 . S
H156 C133 0.930 . S
H157 C134 0.929 . S
H158 C136 0.930 . S
H159 C137 0.929 . S
Nd160 C162 2.825 1_545 S
Nd160 O180 2.492 . S
Nd160 O181 2.480 1_545 S
Nd160 O182 2.481 1_545 S
Nd160 O183 2.682 1_545 S
Nd160 O184 2.397 1_545 S
Nd160 O189 2.418 1_655 S
Nd160 O191 2.438 . S
Nd161 C171 2.832 1_565 S
Nd161 O183 2.416 1_455 S
Nd161 O185 2.430 . S
Nd161 O186 2.497 . S
Nd161 O187 2.487 1_565 S
Nd161 O188 2.485 1_565 S
Nd161 O189 2.682 1_565 S
Nd161 O190 2.404 1_565 S
C162 Nd160 2.825 1_565 S
C162 C163 1.498 . S
C162 O180 1.258 1_565 S
C162 O181 1.239 . S
C163 C162 1.498 . S
C163 C164 1.366 . S
C163 C168 1.407 . S
C164 C163 1.366 . S
C164 C165 1.392 . S
C164 H192 0.930 . S
C165 C164 1.392 . S
C165 C166 1.398 . S
C165 H193 0.929 . S
C166 C165 1.398 . S
C166 C167 1.352 . S
C167 C166 1.352 . S
C167 C168 1.384 . S
C167 H194 0.930 . S
C168 C163 1.407 . S
C168 C167 1.384 . S
C168 H195 0.929 . S
C169 O182 1.241 . S
C169 O183 1.273 . S
C170 O184 1.251 1_455 S
C170 O185 1.268 . S
C171 Nd161 2.832 1_545 S
C171 C172 1.498 . S
C171 O186 1.258 1_545 S
C171 O187 1.239 . S
C172 C171 1.498 . S
C172 C173 1.366 . S
C172 C177 1.407 . S
C173 C172 1.366 . S
C173 C174 1.392 . S
C173 H196 0.930 . S
C174 C173 1.392 . S
C174 C175 1.398 . S
C174 H197 0.929 . S
C175 C174 1.398 . S
C175 C176 1.352 . S
C176 C175 1.352 . S
C176 C177 1.384 . S
C176 H198 0.930 . S
C177 C172 1.407 . S
C177 C176 1.384 . S
C177 H199 0.929 . S
C178 O188 1.241 . S
C178 O189 1.273 . S
C179 O190 1.251 1_655 S
C179 O191 1.268 . S
O180 Nd160 2.492 . S
O180 C162 1.258 1_545 S
O181 Nd160 2.480 1_565 S
O181 C162 1.239 . S
O182 Nd160 2.481 1_565 S
O182 C169 1.241 . S
O183 Nd160 2.682 1_565 S
O183 Nd161 2.416 1_655 S
O183 C169 1.273 . S
O184 Nd160 2.397 1_565 S
O184 C170 1.251 1_655 S
O185 Nd161 2.430 . S
O185 C170 1.268 . S
O186 Nd161 2.497 . S
O186 C171 1.258 1_565 S
O187 Nd161 2.487 1_545 S
O187 C171 1.239 . S
O188 Nd161 2.485 1_545 S
O188 C178 1.241 . S
O189 Nd160 2.418 1_455 S
O189 Nd161 2.682 1_545 S
O189 C178 1.273 . S
O190 Nd161 2.404 1_545 S
O190 C179 1.251 1_455 S
O191 Nd160 2.438 . S
O191 C179 1.268 . S
H192 C164 0.930 . S
H193 C165 0.929 . S
H194 C167 0.930 . S
H195 C168 0.929 . S
H196 C173 0.930 . S
H197 C174 0.929 . S
H198 C176 0.930 . S
H199 C177 0.929 . S
Nd200 C202 2.836 . S
Nd200 O220 2.500 . S
Nd200 O221 2.492 . S
Nd200 O222 2.487 . S
Nd200 O223 2.682 . S
Nd200 O224 2.410 . S
Nd200 O229 2.414 . S
Nd200 O231 2.424 . S
Nd201 C211 2.836 . S
Nd201 O223 2.414 . S
Nd201 O225 2.424 . S
Nd201 O226 2.500 . S
Nd201 O227 2.492 . S
Nd201 O228 2.487 . S
Nd201 O229 2.682 . S
Nd201 O230 2.410 . S
C202 Nd200 2.836 . S
C202 C203 1.498 . S
C202 O220 1.258 . S
C202 O221 1.239 . S
C203 C202 1.498 . S
C203 C204 1.366 . S
C203 C208 1.407 . S
C204 C203 1.366 . S
C204 C205 1.392 . S
C204 H232 0.930 . S
C205 C204 1.392 . S
C205 C206 1.398 . S
C205 H233 0.929 . S
C206 C205 1.398 . S
C206 C207 1.352 . S
C207 C206 1.352 . S
C207 C208 1.384 . S
C207 H234 0.930 . S
C208 C203 1.407 . S
C208 C207 1.384 . S
C208 H235 0.929 . S
C209 O222 1.241 . S
C209 O223 1.273 . S
C210 O224 1.251 . S
C210 O225 1.268 . S
C211 Nd201 2.836 . S
C211 C212 1.498 . S
C211 O226 1.258 . S
C211 O227 1.239 . S
C212 C211 1.498 . S
C212 C213 1.366 . S
C212 C217 1.407 . S
C213 C212 1.366 . S
C213 C214 1.392 . S
C213 H236 0.930 . S
C214 C213 1.392 . S
C214 C215 1.398 . S
C214 H237 0.929 . S
C215 C214 1.398 . S
C215 C216 1.352 . S
C216 C215 1.352 . S
C216 C217 1.384 . S
C216 H238 0.930 . S
C217 C212 1.407 . S
C217 C216 1.384 . S
C217 H239 0.929 . S
C218 O228 1.241 . S
C218 O229 1.273 . S
C219 O230 1.251 . S
C219 O231 1.268 . S
O220 Nd200 2.500 . S
O220 C202 1.258 . S
O221 Nd200 2.492 . S
O221 C202 1.239 . S
O222 Nd200 2.487 . S
O222 C209 1.241 . S
O223 Nd200 2.682 . S
O223 Nd201 2.414 . S
O223 C209 1.273 . S
O224 Nd200 2.410 . S
O224 C210 1.251 . S
O225 Nd201 2.424 . S
O225 C210 1.268 . S
O226 Nd201 2.500 . S
O226 C211 1.258 . S
O227 Nd201 2.492 . S
O227 C211 1.239 . S
O228 Nd201 2.487 . S
O228 C218 1.241 . S
O229 Nd200 2.414 . S
O229 Nd201 2.682 . S
O229 C218 1.273 . S
O230 Nd201 2.410 . S
O230 C219 1.251 . S
O231 Nd200 2.424 . S
O231 C219 1.268 . S
H232 C204 0.930 . S
H233 C205 0.929 . S
H234 C207 0.930 . S
H235 C208 0.929 . S
H236 C213 0.930 . S
H237 C214 0.929 . S
H238 C216 0.930 . S
H239 C217 0.929 . S
Nd240 C242 2.836 . S
Nd240 O260 2.500 . S
Nd240 O261 2.492 . S
Nd240 O262 2.487 1_556 S
Nd240 O263 2.682 1_556 S
Nd240 O264 2.410 1_545 S
Nd240 O269 2.414 1_545 S
Nd240 O271 2.424 1_556 S
Nd241 C251 2.836 . S
Nd241 O263 2.414 1_565 S
Nd241 O265 2.424 1_554 S
Nd241 O266 2.500 . S
Nd241 O267 2.492 . S
Nd241 O268 2.487 1_554 S
Nd241 O269 2.682 1_554 S
Nd241 O270 2.410 1_565 S
C242 Nd240 2.836 . S
C242 C243 1.498 . S
C242 O260 1.258 . S
C242 O261 1.239 . S
C243 C242 1.498 . S
C243 C244 1.366 . S
C243 C248 1.407 . S
C244 C243 1.366 . S
C244 C245 1.392 . S
C244 H272 0.930 1_545 S
C245 C244 1.392 . S
C245 C246 1.398 . S
C245 H273 0.920 1_545 S
C246 C245 1.398 . S
C246 C247 1.352 . S
C247 C246 1.352 . S
C247 C248 1.384 . S
C247 H274 0.930 . S
C248 C243 1.407 . S
C248 C247 1.384 . S
C248 H275 0.929 . S
C249 O262 1.241 . S
C249 O263 1.273 . S
C250 O264 1.251 . S
C250 O265 1.268 . S
C251 Nd241 2.836 . S
C251 C252 1.498 . S
C251 O266 1.258 . S
C251 O267 1.239 . S
C252 C251 1.498 . S
C252 C253 1.366 . S
C252 C257 1.407 . S
C253 C252 1.366 . S
C253 C254 1.392 . S
C253 H276 0.930 1_565 S
C254 C253 1.392 . S
C254 C255 1.398 . S
C254 H277 0.929 1_565 S
C255 C254 1.398 . S
C255 C256 1.352 . S
C256 C255 1.352 . S
C256 C257 1.384 . S
C256 H278 0.930 . S
C257 C252 1.407 . S
C257 C256 1.384 . S
C257 H279 0.929 . S
C258 O268 1.241 . S
C258 O269 1.273 . S
C259 O270 1.251 . S
C259 O271 1.268 . S
O260 Nd240 2.500 . S
O260 C242 1.258 . S
O261 Nd240 2.492 . S
O261 C242 1.239 . S
O262 Nd240 2.487 1_554 S
O262 C249 1.241 . S
O263 Nd240 2.682 1_554 S
O263 Nd241 2.414 1_545 S
O263 C249 1.273 . S
O264 Nd240 2.410 1_565 S
O264 C250 1.251 . S
O265 Nd241 2.424 1_556 S
O265 C250 1.268 . S
O266 Nd241 2.500 . S
O266 C251 1.258 . S
O267 Nd241 2.492 . S
O267 C251 1.239 . S
O268 Nd241 2.487 1_556 S
O268 C258 1.241 . S
O269 Nd240 2.414 1_565 S
O269 Nd241 2.682 1_556 S
O269 C258 1.273 . S
O270 Nd241 2.410 1_545 S
O270 C259 1.251 . S
O271 Nd240 2.424 1_554 S
O271 C259 1.268 . S
H272 C244 0.930 1_565 S
H273 C245 0.920 1_565 S
H274 C247 0.930 . S
H275 C248 0.929 . S
H276 C253 0.930 1_545 S
H277 C254 0.929 1_545 S
H278 C256 0.930 . S
H279 C257 0.929 . S
Nd280 C282 2.836 . S
Nd280 O300 2.500 . S
Nd280 O301 2.492 . S
Nd280 O302 2.487 . S
Nd280 O303 2.682 . S
Nd280 O304 2.410 . S
Nd280 O309 2.414 . S
Nd280 O311 2.424 . S
Nd281 C291 2.836 . S
Nd281 O303 2.414 . S
Nd281 O305 2.424 . S
Nd281 O306 2.500 . S
Nd281 O307 2.492 . S
Nd281 O308 2.487 . S
Nd281 O309 2.682 . S
Nd281 O310 2.410 . S
C282 Nd280 2.836 . S
C282 C283 1.498 . S
C282 O300 1.258 . S
C282 O301 1.239 . S
C283 C282 1.498 . S
C283 C284 1.366 . S
C283 C288 1.407 . S
C284 C283 1.366 . S
C284 C285 1.392 . S
C284 H312 0.930 . S
C285 C284 1.392 . S
C285 C286 1.398 . S
C285 H313 0.929 . S
C286 C285 1.398 . S
C286 C287 1.352 . S
C287 C286 1.352 . S
C287 C288 1.384 . S
C287 H314 0.930 . S
C288 C283 1.407 . S
C288 C287 1.384 . S
C288 H315 0.929 . S
C289 O302 1.241 . S
C289 O303 1.273 . S
C290 O304 1.251 . S
C290 O305 1.268 . S
C291 Nd281 2.836 . S
C291 C292 1.498 . S
C291 O306 1.258 . S
C291 O307 1.239 . S
C292 C291 1.498 . S
C292 C293 1.366 . S
C292 C297 1.407 . S
C293 C292 1.366 . S
C293 C294 1.392 . S
C293 H316 0.930 . S
C294 C293 1.392 . S
C294 C295 1.398 . S
C294 H317 0.929 . S
C295 C294 1.398 . S
C295 C296 1.352 . S
C296 C295 1.352 . S
C296 C297 1.384 . S
C296 H318 0.930 . S
C297 C292 1.407 . S
C297 C296 1.384 . S
C297 H319 0.929 . S
C298 O308 1.241 . S
C298 O309 1.273 . S
C299 O310 1.251 . S
C299 O311 1.268 . S
O300 Nd280 2.500 . S
O300 C282 1.258 . S
O301 Nd280 2.492 . S
O301 C282 1.239 . S
O302 Nd280 2.487 . S
O302 C289 1.241 . S
O303 Nd280 2.682 . S
O303 Nd281 2.414 . S
O303 C289 1.273 . S
O304 Nd280 2.410 . S
O304 C290 1.251 . S
O305 Nd281 2.424 . S
O305 C290 1.268 . S
O306 Nd281 2.500 . S
O306 C291 1.258 . S
O307 Nd281 2.492 . S
O307 C291 1.239 . S
O308 Nd281 2.487 . S
O308 C298 1.241 . S
O309 Nd280 2.414 . S
O309 Nd281 2.682 . S
O309 C298 1.273 . S
O310 Nd281 2.410 . S
O310 C299 1.251 . S
O311 Nd280 2.424 . S
O311 C299 1.268 . S
H312 C284 0.930 . S
H313 C285 0.929 . S
H314 C287 0.930 . S
H315 C288 0.929 . S
H316 C293 0.930 . S
H317 C294 0.929 . S
H318 C296 0.930 . S
H319 C297 0.929 . S
Nd320 C322 2.836 . S
Nd320 O340 2.500 . S
Nd320 O341 2.492 . S
Nd320 O342 2.487 1_554 S
Nd320 O343 2.682 1_554 S
Nd320 O344 2.410 . S
Nd320 O349 2.414 . S
Nd320 O351 2.433 . S
Nd321 C331 2.836 . S
Nd321 O343 2.414 . S
Nd321 O345 2.423 1_556 S
Nd321 O346 2.500 . S
Nd321 O347 2.492 . S
Nd321 O348 2.487 1_556 S
Nd321 O349 2.682 1_556 S
Nd321 O350 2.410 . S
C322 Nd320 2.836 . S
C322 C323 1.498 . S
C322 O340 1.258 . S
C322 O341 1.239 . S
C323 C322 1.498 . S
C323 C324 1.366 . S
C323 C328 1.407 . S
C324 C323 1.366 . S
C324 C325 1.392 . S
C324 H352 0.930 . S
C325 C324 1.392 . S
C325 C326 1.398 . S
C325 H353 0.929 . S
C326 C325 1.398 . S
C326 C327 1.352 . S
C327 C326 1.352 . S
C327 C328 1.384 . S
C327 H354 0.930 . S
C328 C323 1.407 . S
C328 C327 1.384 . S
C328 H355 0.929 . S
C329 O342 1.241 . S
C329 O343 1.273 . S
C330 O344 1.251 . S
C330 O345 1.270 . S
C331 Nd321 2.836 . S
C331 C332 1.498 . S
C331 O346 1.258 . S
C331 O347 1.239 . S
C332 C331 1.498 . S
C332 C333 1.366 . S
C332 C337 1.407 . S
C333 C332 1.366 . S
C333 C334 1.392 . S
C333 H356 0.930 . S
C334 C333 1.392 . S
C334 C335 1.398 . S
C334 H357 0.929 . S
C335 C334 1.398 . S
C335 C336 1.352 . S
C336 C335 1.352 . S
C336 C337 1.384 . S
C336 H358 0.930 . S
C337 C332 1.407 . S
C337 C336 1.384 . S
C337 H359 0.929 . S
C338 O348 1.241 . S
C338 O349 1.273 . S
C339 O350 1.251 . S
C339 O351 1.260 1_556 S
O340 Nd320 2.500 . S
O340 C322 1.258 . S
O341 Nd320 2.492 . S
O341 C322 1.239 . S
O342 Nd320 2.487 1_556 S
O342 C329 1.241 . S
O343 Nd320 2.682 1_556 S
O343 Nd321 2.414 . S
O343 C329 1.273 . S
O344 Nd320 2.410 . S
O344 C330 1.251 . S
O345 Nd321 2.423 1_554 S
O345 C330 1.270 . S
O346 Nd321 2.500 . S
O346 C331 1.258 . S
O347 Nd321 2.492 . S
O347 C331 1.239 . S
O348 Nd321 2.487 1_554 S
O348 C338 1.241 . S
O349 Nd320 2.414 . S
O349 Nd321 2.682 1_554 S
O349 C338 1.273 . S
O350 Nd321 2.410 . S
O350 C339 1.251 . S
O351 Nd320 2.433 . S
O351 C339 1.260 1_554 S
H352 C324 0.930 . S
H353 C325 0.929 . S
H354 C327 0.930 . S
H355 C328 0.929 . S
H356 C333 0.930 . S
H357 C334 0.929 . S
H358 C336 0.930 . S
H359 C337 0.929 . S
Nd360 C362 2.836 . S
Nd360 O380 2.500 . S
Nd360 O381 2.492 . S
Nd360 O382 2.487 . S
Nd360 O383 2.682 . S
Nd360 O384 2.410 . S
Nd360 O389 2.414 . S
Nd360 O391 2.424 . S
Nd361 C371 2.836 . S
Nd361 O383 2.414 . S
Nd361 O385 2.424 . S
Nd361 O386 2.500 . S
Nd361 O387 2.492 . S
Nd361 O388 2.487 . S
Nd361 O389 2.682 . S
Nd361 O390 2.410 . S
C362 Nd360 2.836 . S
C362 C363 1.498 . S
C362 O380 1.258 . S
C362 O381 1.239 . S
C363 C362 1.498 . S
C363 C364 1.366 . S
C363 C368 1.407 . S
C364 C363 1.366 . S
C364 C365 1.392 . S
C364 H392 0.930 . S
C365 C364 1.392 . S
C365 C366 1.398 . S
C365 H393 0.929 . S
C366 C365 1.398 . S
C366 C367 1.352 . S
C367 C366 1.352 . S
C367 C368 1.384 . S
C367 H394 0.930 . S
C368 C363 1.407 . S
C368 C367 1.384 . S
C368 H395 0.929 . S
C369 O382 1.241 . S
C369 O383 1.273 . S
C370 O384 1.251 . S
C370 O385 1.268 . S
C371 Nd361 2.836 . S
C371 C372 1.498 . S
C371 O386 1.258 . S
C371 O387 1.239 . S
C372 C371 1.498 . S
C372 C373 1.366 . S
C372 C377 1.407 . S
C373 C372 1.366 . S
C373 C374 1.392 . S
C373 H396 0.930 . S
C374 C373 1.392 . S
C374 C375 1.398 . S
C374 H397 0.929 . S
C375 C374 1.398 . S
C375 C376 1.352 . S
C376 C375 1.352 . S
C376 C377 1.384 . S
C376 H398 0.930 . S
C377 C372 1.407 . S
C377 C376 1.384 . S
C377 H399 0.929 . S
C378 O388 1.241 . S
C378 O389 1.273 . S
C379 O390 1.251 . S
C379 O391 1.268 . S
O380 Nd360 2.500 . S
O380 C362 1.258 . S
O381 Nd360 2.492 . S
O381 C362 1.239 . S
O382 Nd360 2.487 . S
O382 C369 1.241 . S
O383 Nd360 2.682 . S
O383 Nd361 2.414 . S
O383 C369 1.273 . S
O384 Nd360 2.410 . S
O384 C370 1.251 . S
O385 Nd361 2.424 . S
O385 C370 1.268 . S
O386 Nd361 2.500 . S
O386 C371 1.258 . S
O387 Nd361 2.492 . S
O387 C371 1.239 . S
O388 Nd361 2.487 . S
O388 C378 1.241 . S
O389 Nd360 2.414 . S
O389 Nd361 2.682 . S
O389 C378 1.273 . S
O390 Nd361 2.410 . S
O390 C379 1.251 . S
O391 Nd360 2.424 . S
O391 C379 1.268 . S
H392 C364 0.930 . S
H393 C365 0.929 . S
H394 C367 0.930 . S
H395 C368 0.929 . S
H396 C373 0.930 . S
H397 C374 0.929 . S
H398 C376 0.930 . S
H399 C377 0.929 . S
Nd400 C402 2.836 . S
Nd400 O420 2.500 . S
Nd400 O421 2.492 . S
Nd400 O422 2.487 . S
Nd400 O423 2.682 . S
Nd400 O424 2.410 . S
Nd400 O429 2.414 1_455 S
Nd400 O431 2.424 1_455 S
Nd401 C411 2.836 . S
Nd401 O423 2.414 1_655 S
Nd401 O425 2.424 1_655 S
Nd401 O426 2.500 . S
Nd401 O427 2.492 . S
Nd401 O428 2.487 . S
Nd401 O429 2.682 . S
Nd401 O430 2.410 . S
C402 Nd400 2.836 . S
C402 C403 1.498 . S
C402 O420 1.258 . S
C402 O421 1.239 . S
C403 C402 1.498 . S
C403 C404 1.366 . S
C403 C408 1.407 . S
C404 C403 1.366 . S
C404 C405 1.392 . S
C404 H432 0.930 . S
C405 C404 1.392 . S
C405 C406 1.398 . S
C405 H433 0.929 . S
C406 C405 1.398 . S
C406 C407 1.352 . S
C407 C406 1.352 . S
C407 C408 1.384 . S
C407 H434 0.930 . S
C408 C403 1.407 . S
C408 C407 1.384 . S
C408 H435 0.929 . S
C409 O422 1.241 . S
C409 O423 1.273 . S
C410 O424 1.251 . S
C410 O425 1.268 . S
C411 Nd401 2.836 . S
C411 C412 1.498 . S
C411 O426 1.258 . S
C411 O427 1.239 . S
C412 C411 1.498 . S
C412 C413 1.366 . S
C412 C417 1.407 . S
C413 C412 1.366 . S
C413 C414 1.392 . S
C413 H436 0.930 . S
C414 C413 1.392 . S
C414 C415 1.398 . S
C414 H437 0.929 . S
C415 C414 1.398 . S
C415 C416 1.352 . S
C416 C415 1.352 . S
C416 C417 1.384 . S
C416 H438 0.930 . S
C417 C412 1.407 . S
C417 C416 1.384 . S
C417 H439 0.929 . S
C418 O428 1.241 . S
C418 O429 1.273 . S
C419 O430 1.251 . S
C419 O431 1.268 . S
O420 Nd400 2.500 . S
O420 C402 1.258 . S
O421 Nd400 2.492 . S
O421 C402 1.239 . S
O422 Nd400 2.487 . S
O422 C409 1.241 . S
O423 Nd400 2.682 . S
O423 Nd401 2.414 1_455 S
O423 C409 1.273 . S
O424 Nd400 2.410 . S
O424 C410 1.251 . S
O425 Nd401 2.424 1_455 S
O425 C410 1.268 . S
O426 Nd401 2.500 . S
O426 C411 1.258 . S
O427 Nd401 2.492 . S
O427 C411 1.239 . S
O428 Nd401 2.487 . S
O428 C418 1.241 . S
O429 Nd400 2.414 1_655 S
O429 Nd401 2.682 . S
O429 C418 1.273 . S
O430 Nd401 2.410 . S
O430 C419 1.251 . S
O431 Nd400 2.424 1_655 S
O431 C419 1.268 . S
H432 C404 0.930 . S
H433 C405 0.929 . S
H434 C407 0.930 . S
H435 C408 0.929 . S
H436 C413 0.930 . S
H437 C414 0.929 . S
H438 C416 0.930 . S
H439 C417 0.929 . S
Nd440 C442 2.836 . S
Nd440 O460 2.500 . S
Nd440 O461 2.492 . S
Nd440 O462 2.487 . S
Nd440 O463 2.682 . S
Nd440 O464 2.410 . S
Nd440 O469 2.414 . S
Nd440 O471 2.424 . S
Nd441 C451 2.836 . S
Nd441 O463 2.414 . S
Nd441 O465 2.424 . S
Nd441 O466 2.500 . S
Nd441 O467 2.492 . S
Nd441 O468 2.487 . S
Nd441 O469 2.682 . S
Nd441 O470 2.410 . S
C442 Nd440 2.836 . S
C442 C443 1.498 . S
C442 O460 1.258 . S
C442 O461 1.239 . S
C443 C442 1.498 . S
C443 C444 1.366 . S
C443 C448 1.407 . S
C444 C443 1.366 . S
C444 C445 1.392 . S
C444 H472 0.930 . S
C445 C444 1.392 . S
C445 C446 1.398 . S
C445 H473 0.929 . S
C446 C445 1.398 . S
C446 C447 1.352 . S
C447 C446 1.352 . S
C447 C448 1.384 . S
C447 H474 0.930 . S
C448 C443 1.407 . S
C448 C447 1.384 . S
C448 H475 0.929 . S
C449 O462 1.241 . S
C449 O463 1.273 . S
C450 O464 1.251 . S
C450 O465 1.268 . S
C451 Nd441 2.836 . S
C451 C452 1.498 . S
C451 O466 1.258 . S
C451 O467 1.239 . S
C452 C451 1.498 . S
C452 C453 1.366 . S
C452 C457 1.407 . S
C453 C452 1.366 . S
C453 C454 1.392 . S
C453 H476 0.930 . S
C454 C453 1.392 . S
C454 C455 1.398 . S
C454 H477 0.929 . S
C455 C454 1.398 . S
C455 C456 1.352 . S
C456 C455 1.352 . S
C456 C457 1.384 . S
C456 H478 0.930 . S
C457 C452 1.407 . S
C457 C456 1.384 . S
C457 H479 0.929 . S
C458 O468 1.241 . S
C458 O469 1.273 . S
C459 O470 1.251 . S
C459 O471 1.268 . S
O460 Nd440 2.500 . S
O460 C442 1.258 . S
O461 Nd440 2.492 . S
O461 C442 1.239 . S
O462 Nd440 2.487 . S
O462 C449 1.241 . S
O463 Nd440 2.682 . S
O463 Nd441 2.414 . S
O463 C449 1.273 . S
O464 Nd440 2.410 . S
O464 C450 1.251 . S
O465 Nd441 2.424 . S
O465 C450 1.268 . S
O466 Nd441 2.500 . S
O466 C451 1.258 . S
O467 Nd441 2.492 . S
O467 C451 1.239 . S
O468 Nd441 2.487 . S
O468 C458 1.241 . S
O469 Nd440 2.414 . S
O469 Nd441 2.682 . S
O469 C458 1.273 . S
O470 Nd441 2.410 . S
O470 C459 1.251 . S
O471 Nd440 2.424 . S
O471 C459 1.268 . S
H472 C444 0.930 . S
H473 C445 0.929 . S
H474 C447 0.930 . S
H475 C448 0.929 . S
H476 C453 0.930 . S
H477 C454 0.929 . S
H478 C456 0.930 . S
H479 C457 0.929 . S
Nd480 C482 2.836 . S
Nd480 O500 2.500 . S
Nd480 O501 2.492 . S
Nd480 O502 2.487 . S
Nd480 O503 2.682 . S
Nd480 O504 2.410 . S
Nd480 O509 2.414 . S
Nd480 O511 2.424 . S
Nd481 C491 2.836 . S
Nd481 O503 2.414 . S
Nd481 O505 2.424 . S
Nd481 O506 2.500 . S
Nd481 O507 2.492 . S
Nd481 O508 2.487 . S
Nd481 O509 2.682 . S
Nd481 O510 2.410 . S
C482 Nd480 2.836 . S
C482 C483 1.498 . S
C482 O500 1.258 . S
C482 O501 1.239 . S
C483 C482 1.498 . S
C483 C484 1.366 . S
C483 C488 1.407 . S
C484 C483 1.366 . S
C484 C485 1.392 . S
C484 H512 0.930 . S
C485 C484 1.392 . S
C485 C486 1.398 . S
C485 H513 0.929 . S
C486 C485 1.398 . S
C486 C487 1.352 . S
C487 C486 1.352 . S
C487 C488 1.384 . S
C487 H514 0.930 . S
C488 C483 1.407 . S
C488 C487 1.384 . S
C488 H515 0.929 . S
C489 O502 1.241 . S
C489 O503 1.273 . S
C490 O504 1.251 . S
C490 O505 1.268 . S
C491 Nd481 2.836 . S
C491 C492 1.498 . S
C491 O506 1.258 . S
C491 O507 1.239 . S
C492 C491 1.498 . S
C492 C493 1.366 . S
C492 C497 1.407 . S
C493 C492 1.366 . S
C493 C494 1.392 . S
C493 H516 0.930 . S
C494 C493 1.392 . S
C494 C495 1.398 . S
C494 H517 0.929 . S
C495 C494 1.398 . S
C495 C496 1.352 . S
C496 C495 1.352 . S
C496 C497 1.384 . S
C496 H518 0.930 . S
C497 C492 1.407 . S
C497 C496 1.384 . S
C497 H519 0.929 . S
C498 O508 1.241 . S
C498 O509 1.273 . S
C499 O510 1.251 . S
C499 O511 1.268 . S
O500 Nd480 2.500 . S
O500 C482 1.258 . S
O501 Nd480 2.492 . S
O501 C482 1.239 . S
O502 Nd480 2.487 . S
O502 C489 1.241 . S
O503 Nd480 2.682 . S
O503 Nd481 2.414 . S
O503 C489 1.273 . S
O504 Nd480 2.410 . S
O504 C490 1.251 . S
O505 Nd481 2.424 . S
O505 C490 1.268 . S
O506 Nd481 2.500 . S
O506 C491 1.258 . S
O507 Nd481 2.492 . S
O507 C491 1.239 . S
O508 Nd481 2.487 . S
O508 C498 1.241 . S
O509 Nd480 2.414 . S
O509 Nd481 2.682 . S
O509 C498 1.273 . S
O510 Nd481 2.410 . S
O510 C499 1.251 . S
O511 Nd480 2.424 . S
O511 C499 1.268 . S
H512 C484 0.930 . S
H513 C485 0.929 . S
H514 C487 0.930 . S
H515 C488 0.929 . S
H516 C493 0.930 . S
H517 C494 0.929 . S
H518 C496 0.930 . S
H519 C497 0.929 . S
Nd520 C522 2.836 . S
Nd520 O540 2.500 . S
Nd520 O541 2.492 . S
Nd520 O542 2.487 . S
Nd520 O543 2.682 . S
Nd520 O544 2.410 . S
Nd520 O549 2.414 . S
Nd520 O551 2.424 . S
Nd521 C531 2.836 . S
Nd521 O543 2.414 . S
Nd521 O545 2.424 . S
Nd521 O546 2.500 . S
Nd521 O547 2.492 . S
Nd521 O548 2.487 . S
Nd521 O549 2.682 . S
Nd521 O550 2.410 . S
C522 Nd520 2.836 . S
C522 C523 1.498 . S
C522 O540 1.258 . S
C522 O541 1.239 . S
C523 C522 1.498 . S
C523 C524 1.366 . S
C523 C528 1.407 . S
C524 C523 1.366 . S
C524 C525 1.392 . S
C524 H552 0.930 . S
C525 C524 1.392 . S
C525 C526 1.398 . S
C525 H553 0.929 . S
C526 C525 1.398 . S
C526 C527 1.352 . S
C527 C526 1.352 . S
C527 C528 1.384 . S
C527 H554 0.930 . S
C528 C523 1.407 . S
C528 C527 1.384 . S
C528 H555 0.929 . S
C529 O542 1.241 . S
C529 O543 1.273 . S
C530 O544 1.251 . S
C530 O545 1.268 . S
C531 Nd521 2.836 . S
C531 C532 1.498 . S
C531 O546 1.258 . S
C531 O547 1.239 . S
C532 C531 1.498 . S
C532 C533 1.366 . S
C532 C537 1.407 . S
C533 C532 1.366 . S
C533 C534 1.392 . S
C533 H556 0.930 . S
C534 C533 1.392 . S
C534 C535 1.398 . S
C534 H557 0.929 . S
C535 C534 1.398 . S
C535 C536 1.352 . S
C536 C535 1.352 . S
C536 C537 1.384 . S
C536 H558 0.930 . S
C537 C532 1.407 . S
C537 C536 1.384 . S
C537 H559 0.929 . S
C538 O548 1.241 . S
C538 O549 1.273 . S
C539 O550 1.251 . S
C539 O551 1.268 . S
O540 Nd520 2.500 . S
O540 C522 1.258 . S
O541 Nd520 2.492 . S
O541 C522 1.239 . S
O542 Nd520 2.487 . S
O542 C529 1.241 . S
O543 Nd520 2.682 . S
O543 Nd521 2.414 . S
O543 C529 1.273 . S
O544 Nd520 2.410 . S
O544 C530 1.251 . S
O545 Nd521 2.424 . S
O545 C530 1.268 . S
O546 Nd521 2.500 . S
O546 C531 1.258 . S
O547 Nd521 2.492 . S
O547 C531 1.239 . S
O548 Nd521 2.487 . S
O548 C538 1.241 . S
O549 Nd520 2.414 . S
O549 Nd521 2.682 . S
O549 C538 1.273 . S
O550 Nd521 2.410 . S
O550 C539 1.251 . S
O551 Nd520 2.424 . S
O551 C539 1.268 . S
H552 C524 0.930 . S
H553 C525 0.929 . S
H554 C527 0.930 . S
H555 C528 0.929 . S
H556 C533 0.930 . S
H557 C534 0.929 . S
H558 C536 0.930 . S
H559 C537 0.929 . S
Nd560 C562 2.836 . S
Nd560 O580 2.500 . S
Nd560 O581 2.492 . S
Nd560 O582 2.487 . S
Nd560 O583 2.682 . S
Nd560 O584 2.410 . S
Nd560 O589 2.414 . S
Nd560 O591 2.424 . S
Nd561 C571 2.836 . S
Nd561 O583 2.414 . S
Nd561 O585 2.424 . S
Nd561 O586 2.500 . S
Nd561 O587 2.492 . S
Nd561 O588 2.487 . S
Nd561 O589 2.682 . S
Nd561 O590 2.410 . S
C562 Nd560 2.836 . S
C562 C563 1.498 . S
C562 O580 1.258 . S
C562 O581 1.239 . S
C563 C562 1.498 . S
C563 C564 1.366 . S
C563 C568 1.407 . S
C564 C563 1.366 . S
C564 C565 1.392 . S
C564 H592 0.930 . S
C565 C564 1.392 . S
C565 C566 1.398 . S
C565 H593 0.929 . S
C566 C565 1.398 . S
C566 C567 1.352 . S
C567 C566 1.352 . S
C567 C568 1.384 . S
C567 H594 0.930 . S
C568 C563 1.407 . S
C568 C567 1.384 . S
C568 H595 0.929 . S
C569 O582 1.241 . S
C569 O583 1.273 . S
C570 O584 1.251 . S
C570 O585 1.268 . S
C571 Nd561 2.836 . S
C571 C572 1.498 . S
C571 O586 1.258 . S
C571 O587 1.239 . S
C572 C571 1.498 . S
C572 C573 1.366 . S
C572 C577 1.407 . S
C573 C572 1.366 . S
C573 C574 1.392 . S
C573 H596 0.930 . S
C574 C573 1.392 . S
C574 C575 1.398 . S
C574 H597 0.929 . S
C575 C574 1.398 . S
C575 C576 1.352 . S
C576 C575 1.352 . S
C576 C577 1.384 . S
C576 H598 0.930 . S
C577 C572 1.407 . S
C577 C576 1.384 . S
C577 H599 0.929 . S
C578 O588 1.241 . S
C578 O589 1.273 . S
C579 O590 1.251 . S
C579 O591 1.268 . S
O580 Nd560 2.500 . S
O580 C562 1.258 . S
O581 Nd560 2.492 . S
O581 C562 1.239 . S
O582 Nd560 2.487 . S
O582 C569 1.241 . S
O583 Nd560 2.682 . S
O583 Nd561 2.414 . S
O583 C569 1.273 . S
O584 Nd560 2.410 . S
O584 C570 1.251 . S
O585 Nd561 2.424 . S
O585 C570 1.268 . S
O586 Nd561 2.500 . S
O586 C571 1.258 . S
O587 Nd561 2.492 . S
O587 C571 1.239 . S
O588 Nd561 2.487 . S
O588 C578 1.241 . S
O589 Nd560 2.414 . S
O589 Nd561 2.682 . S
O589 C578 1.273 . S
O590 Nd561 2.410 . S
O590 C579 1.251 . S
O591 Nd560 2.424 . S
O591 C579 1.268 . S
H592 C564 0.930 . S
H593 C565 0.929 . S
H594 C567 0.930 . S
H595 C568 0.929 . S
H596 C573 0.930 . S
H597 C574 0.929 . S
H598 C576 0.930 . S
H599 C577 0.929 . S
Nd600 C602 2.836 . S
Nd600 O620 2.500 . S
Nd600 O621 2.492 . S
Nd600 O622 2.487 . S
Nd600 O623 2.682 . S
Nd600 O624 2.410 1_556 S
Nd600 O629 2.414 1_656 S
Nd600 O631 2.424 1_655 S
Nd601 C611 2.836 . S
Nd601 O623 2.414 1_454 S
Nd601 O625 2.424 1_455 S
Nd601 O626 2.500 . S
Nd601 O627 2.492 . S
Nd601 O628 2.487 . S
Nd601 O629 2.682 . S
Nd601 O630 2.410 1_554 S
C602 Nd600 2.836 . S
C602 C603 1.498 . S
C602 O620 1.258 . S
C602 O621 1.239 . S
C603 C602 1.498 . S
C603 C604 1.366 . S
C603 C608 1.407 . S
C604 C603 1.366 . S
C604 C605 1.392 . S
C604 H632 0.930 1_556 S
C605 C604 1.392 . S
C605 C606 1.398 . S
C605 H633 0.929 . S
C606 C605 1.398 . S
C606 C607 1.352 . S
C607 C606 1.352 . S
C607 C608 1.384 . S
C607 H634 0.930 . S
C608 C603 1.407 . S
C608 C607 1.384 . S
C608 H635 0.929 . S
C609 O622 1.241 . S
C609 O623 1.273 . S
C610 O624 1.251 . S
C610 O625 1.268 . S
C611 Nd601 2.836 . S
C611 C612 1.498 . S
C611 O626 1.258 . S
C611 O627 1.239 . S
C612 C611 1.498 . S
C612 C613 1.366 . S
C612 C617 1.407 . S
C613 C612 1.366 . S
C613 C614 1.392 . S
C613 H636 0.930 1_554 S
C614 C613 1.392 . S
C614 C615 1.398 . S
C614 H637 0.929 . S
C615 C614 1.398 . S
C615 C616 1.352 . S
C616 C615 1.352 . S
C616 C617 1.384 . S
C616 H638 0.930 . S
C617 C612 1.407 . S
C617 C616 1.384 . S
C617 H639 0.929 . S
C618 O628 1.241 . S
C618 O629 1.273 . S
C619 O630 1.251 . S
C619 O631 1.268 . S
O620 Nd600 2.500 . S
O620 C602 1.258 . S
O621 Nd600 2.492 . S
O621 C602 1.239 . S
O622 Nd600 2.487 . S
O622 C609 1.241 . S
O623 Nd600 2.682 . S
O623 Nd601 2.414 1_656 S
O623 C609 1.273 . S
O624 Nd600 2.410 1_554 S
O624 C610 1.251 . S
O625 Nd601 2.424 1_655 S
O625 C610 1.268 . S
O626 Nd601 2.500 . S
O626 C611 1.258 . S
O627 Nd601 2.492 . S
O627 C611 1.239 . S
O628 Nd601 2.487 . S
O628 C618 1.241 . S
O629 Nd600 2.414 1_454 S
O629 Nd601 2.682 . S
O629 C618 1.273 . S
O630 Nd601 2.410 1_556 S
O630 C619 1.251 . S
O631 Nd600 2.424 1_455 S
O631 C619 1.268 . S
H632 C604 0.930 1_554 S
H633 C605 0.929 . S
H634 C607 0.930 . S
H635 C608 0.929 . S
H636 C613 0.930 1_556 S
H637 C614 0.929 . S
H638 C616 0.930 . S
H639 C617 0.929 . S
H640 C646 0.930 . S
H641 C650 0.930 . S
H642 C655 0.929 . S
H643 C653 0.929 . S
H644 C648 0.929 . S
H645 C654 0.929 . S
C646 H640 0.930 . S
C646 C647 1.367 . S
C646 C654 1.378 . S
C647 C646 1.367 . S
C647 C655 1.433 . S
C648 H644 0.929 . S
C648 C650 1.378 . S
C648 C652 1.350 . S
C649 C652 1.463 . S
C649 C654 1.350 . S
C649 N657 1.427 . S
C650 H641 0.930 . S
C650 C648 1.378 . S
C650 C651 1.367 . S
C651 C650 1.367 . S
C651 C653 1.433 . S
C652 C648 1.350 . S
C652 C649 1.463 . S
C652 N656 1.427 . S
C653 H643 0.929 . S
C653 C651 1.433 . S
C653 N656 1.384 . S
C654 H645 0.929 . S
C654 C646 1.378 . S
C654 C649 1.350 . S
C655 H642 0.929 . S
C655 C647 1.433 . S
C655 N657 1.384 . S
N656 C652 1.427 . S
N656 C653 1.384 . S
N657 C649 1.427 . S
N657 C655 1.384 . S
H658 C664 0.930 . S
H659 C668 0.930 . S
H660 C673 0.929 . S
H661 C671 0.929 . S
H662 C666 0.929 . S
H663 C672 0.929 . S
C664 H658 0.930 . S
C664 C665 1.367 . S
C664 C672 1.378 . S
C665 C664 1.367 . S
C665 C673 1.433 . S
C666 H662 0.929 . S
C666 C668 1.378 . S
C666 C670 1.350 . S
C667 C670 1.463 . S
C667 C672 1.350 . S
C667 N675 1.427 . S
C668 H659 0.930 . S
C668 C666 1.378 . S
C668 C669 1.367 . S
C669 C668 1.367 . S
C669 C671 1.433 . S
C670 C666 1.350 . S
C670 C667 1.463 . S
C670 N674 1.427 . S
C671 H661 0.929 . S
C671 C669 1.433 . S
C671 N674 1.384 . S
C672 H663 0.929 . S
C672 C664 1.378 . S
C672 C667 1.350 . S
C673 H660 0.929 . S
C673 C665 1.433 . S
C673 N675 1.384 . S
N674 C670 1.427 . S
N674 C671 1.384 . S
N675 C667 1.427 . S
N675 C673 1.384 . S
H676 C682 0.930 . S
H677 C686 0.930 . S
H678 C691 0.929 . S
H679 C689 0.929 . S
H680 C684 0.929 . S
H681 C690 0.929 . S
C682 H676 0.930 . S
C682 C683 1.367 . S
C682 C690 1.378 . S
C683 C682 1.367 . S
C683 C691 1.433 . S
C684 H680 0.929 . S
C684 C686 1.378 . S
C684 C688 1.350 . S
C685 C688 1.463 . S
C685 C690 1.350 . S
C685 N693 1.427 . S
C686 H677 0.930 . S
C686 C684 1.378 . S
C686 C687 1.367 . S
C687 C686 1.367 . S
C687 C689 1.433 . S
C688 C684 1.350 . S
C688 C685 1.463 . S
C688 N692 1.427 . S
C689 H679 0.929 . S
C689 C687 1.433 . S
C689 N692 1.384 . S
C690 H681 0.929 . S
C690 C682 1.378 . S
C690 C685 1.350 . S
C691 H678 0.929 . S
C691 C683 1.433 . S
C691 N693 1.384 . S
N692 C688 1.427 . S
N692 C689 1.384 . S
N693 C685 1.427 . S
N693 C691 1.384 . S
H694 C700 0.930 . S
H695 C704 0.930 . S
H696 C709 0.929 . S
H697 C707 0.929 . S
H698 C702 0.929 . S
H699 C708 0.929 . S
C700 H694 0.930 . S
C700 C701 1.367 . S
C700 C708 1.378 . S
C701 C700 1.367 . S
C701 C709 1.433 . S
C702 H698 0.929 . S
C702 C704 1.378 . S
C702 C706 1.350 . S
C703 C706 1.463 . S
C703 C708 1.350 . S
C703 N711 1.427 . S
C704 H695 0.930 . S
C704 C702 1.378 . S
C704 C705 1.367 . S
C705 C704 1.367 . S
C705 C707 1.433 . S
C706 C702 1.350 . S
C706 C703 1.463 . S
C706 N710 1.427 . S
C707 H697 0.929 . S
C707 C705 1.433 . S
C707 N710 1.384 . S
C708 H699 0.929 . S
C708 C700 1.378 . S
C708 C703 1.350 . S
C709 H696 0.929 . S
C709 C701 1.433 . S
C709 N711 1.384 . S
N710 C706 1.427 . S
N710 C707 1.384 . S
N711 C703 1.427 . S
N711 C709 1.384 . S
H712 C718 0.930 . S
H713 C722 0.930 . S
H714 C727 0.929 . S
H715 C725 0.929 . S
H716 C720 0.929 . S
H717 C726 0.929 . S
C718 H712 0.930 . S
C718 C719 1.367 . S
C718 C726 1.378 . S
C719 C718 1.367 . S
C719 C727 1.433 . S
C720 H716 0.929 . S
C720 C722 1.378 . S
C720 C724 1.350 . S
C721 C724 1.463 . S
C721 C726 1.350 . S
C721 N729 1.427 . S
C722 H713 0.930 . S
C722 C720 1.378 . S
C722 C723 1.367 . S
C723 C722 1.367 . S
C723 C725 1.433 . S
C724 C720 1.350 . S
C724 C721 1.463 . S
C724 N728 1.427 . S
C725 H715 0.929 . S
C725 C723 1.433 . S
C725 N728 1.384 . S
C726 H717 0.929 . S
C726 C718 1.378 . S
C726 C721 1.350 . S
C727 H714 0.929 . S
C727 C719 1.433 . S
C727 N729 1.384 . S
N728 C724 1.427 . S
N728 C725 1.384 . S
N729 C721 1.427 . S
N729 C727 1.384 . S
H730 C736 0.930 . S
H731 C740 0.930 . S
H732 C745 0.929 . S
H733 C743 0.929 . S
H734 C738 0.929 . S
H735 C744 0.929 . S
C736 H730 0.930 . S
C736 C737 1.367 . S
C736 C744 1.378 . S
C737 C736 1.367 . S
C737 C745 1.433 . S
C738 H734 0.929 . S
C738 C740 1.378 . S
C738 C742 1.350 . S
C739 C742 1.463 . S
C739 C744 1.350 . S
C739 N747 1.427 . S
C740 H731 0.930 . S
C740 C738 1.378 . S
C740 C741 1.367 . S
C741 C740 1.367 . S
C741 C743 1.433 . S
C742 C738 1.350 . S
C742 C739 1.463 . S
C742 N746 1.427 . S
C743 H733 0.929 . S
C743 C741 1.433 . S
C743 N746 1.384 . S
C744 H735 0.929 . S
C744 C736 1.378 . S
C744 C739 1.350 . S
C745 H732 0.929 . S
C745 C737 1.433 . S
C745 N747 1.384 . S
N746 C742 1.427 . S
N746 C743 1.384 . S
N747 C739 1.427 . S
N747 C745 1.384 . S
H748 C754 0.930 . S
H749 C758 0.930 . S
H750 C763 0.929 . S
H751 C761 0.929 . S
H752 C756 0.929 . S
H753 C762 0.929 . S
C754 H748 0.930 . S
C754 C755 1.367 . S
C754 C762 1.378 . S
C755 C754 1.367 . S
C755 C763 1.433 . S
C756 H752 0.929 . S
C756 C758 1.378 . S
C756 C760 1.350 . S
C757 C760 1.463 . S
C757 C762 1.350 . S
C757 N765 1.427 . S
C758 H749 0.930 . S
C758 C756 1.378 . S
C758 C759 1.367 . S
C759 C758 1.367 . S
C759 C761 1.433 . S
C760 C756 1.350 . S
C760 C757 1.463 . S
C760 N764 1.427 . S
C761 H751 0.929 . S
C761 C759 1.433 . S
C761 N764 1.384 . S
C762 H753 0.929 . S
C762 C754 1.378 . S
C762 C757 1.350 . S
C763 H750 0.929 . S
C763 C755 1.433 . S
C763 N765 1.384 . S
N764 C760 1.427 . S
N764 C761 1.384 . S
N765 C757 1.427 . S
N765 C763 1.384 . S
H766 C772 0.930 . S
H767 C776 0.930 . S
H768 C781 0.929 . S
H769 C779 0.929 . S
H770 C774 0.929 . S
H771 C780 0.929 . S
C772 H766 0.930 . S
C772 C773 1.367 . S
C772 C780 1.378 . S
C773 C772 1.367 . S
C773 C781 1.433 . S
C774 H770 0.929 . S
C774 C776 1.378 . S
C774 C778 1.350 . S
C775 C778 1.463 . S
C775 C780 1.350 . S
C775 N783 1.427 . S
C776 H767 0.930 . S
C776 C774 1.378 . S
C776 C777 1.367 . S
C777 C776 1.367 . S
C777 C779 1.433 . S
C778 C774 1.350 . S
C778 C775 1.463 . S
C778 N782 1.427 . S
C779 H769 0.929 . S
C779 C777 1.433 . S
C779 N782 1.384 . S
C780 H771 0.929 . S
C780 C772 1.378 . S
C780 C775 1.350 . S
C781 H768 0.929 . S
C781 C773 1.433 . S
C781 N783 1.384 . S
N782 C778 1.427 . S
N782 C779 1.384 . S
N783 C775 1.427 . S
N783 C781 1.384 . S
H784 C790 0.930 . S
H785 C794 0.930 . S
H786 C799 0.929 . S
H787 C797 0.929 . S
H788 C792 0.929 . S
H789 C798 0.929 . S
C790 H784 0.930 . S
C790 C791 1.367 . S
C790 C798 1.378 . S
C791 C790 1.367 . S
C791 C799 1.433 . S
C792 H788 0.929 . S
C792 C794 1.378 . S
C792 C796 1.350 . S
C793 C796 1.463 . S
C793 C798 1.350 . S
C793 N801 1.427 . S
C794 H785 0.930 . S
C794 C792 1.378 . S
C794 C795 1.367 . S
C795 C794 1.367 . S
C795 C797 1.433 . S
C796 C792 1.350 . S
C796 C793 1.463 . S
C796 N800 1.427 . S
C797 H787 0.929 . S
C797 C795 1.433 . S
C797 N800 1.384 . S
C798 H789 0.929 . S
C798 C790 1.378 . S
C798 C793 1.350 . S
C799 H786 0.929 . S
C799 C791 1.433 . S
C799 N801 1.384 . S
N800 C796 1.427 . S
N800 C797 1.384 . S
N801 C793 1.427 . S
N801 C799 1.384 . S
H802 C808 0.930 . S
H803 C812 0.930 . S
H804 C817 0.929 . S
H805 C815 0.929 . S
H806 C810 0.929 . S
H807 C816 0.929 . S
C808 H802 0.930 . S
C808 C809 1.367 . S
C808 C816 1.378 . S
C809 C808 1.367 . S
C809 C817 1.433 . S
C810 H806 0.929 . S
C810 C812 1.378 . S
C810 C814 1.350 . S
C811 C814 1.463 . S
C811 C816 1.350 . S
C811 N819 1.427 . S
C812 H803 0.930 . S
C812 C810 1.378 . S
C812 C813 1.367 . S
C813 C812 1.367 . S
C813 C815 1.433 . S
C814 C810 1.350 . S
C814 C811 1.463 . S
C814 N818 1.427 . S
C815 H805 0.929 . S
C815 C813 1.433 . S
C815 N818 1.384 . S
C816 H807 0.929 . S
C816 C808 1.378 . S
C816 C811 1.350 . S
C817 H804 0.929 . S
C817 C809 1.433 . S
C817 N819 1.384 . S
N818 C814 1.427 . S
N818 C815 1.384 . S
N819 C811 1.427 . S
N819 C817 1.384 . S
H820 C826 0.930 . S
H821 C830 0.930 . S
H822 C835 0.929 . S
H823 C833 0.929 . S
H824 C828 0.929 . S
H825 C834 0.929 . S
C826 H820 0.930 . S
C826 C827 1.367 . S
C826 C834 1.378 . S
C827 C826 1.367 . S
C827 C835 1.433 . S
C828 H824 0.929 . S
C828 C830 1.378 . S
C828 C832 1.350 . S
C829 C832 1.463 . S
C829 C834 1.350 . S
C829 N837 1.427 . S
C830 H821 0.930 . S
C830 C828 1.378 . S
C830 C831 1.367 . S
C831 C830 1.367 . S
C831 C833 1.433 . S
C832 C828 1.350 . S
C832 C829 1.463 . S
C832 N836 1.427 . S
C833 H823 0.929 . S
C833 C831 1.433 . S
C833 N836 1.384 . S
C834 H825 0.929 . S
C834 C826 1.378 . S
C834 C829 1.350 . S
C835 H822 0.929 . S
C835 C827 1.433 . S
C835 N837 1.384 . S
N836 C832 1.427 . S
N836 C833 1.384 . S
N837 C829 1.427 . S
N837 C835 1.384 . S
H838 C844 0.930 . S
H839 C848 0.930 . S
H840 C853 0.929 . S
H841 C851 0.929 . S
H842 C846 0.929 . S
H843 C852 0.929 . S
C844 H838 0.930 . S
C844 C845 1.367 . S
C844 C852 1.378 . S
C845 C844 1.367 . S
C845 C853 1.433 . S
C846 H842 0.929 . S
C846 C848 1.378 . S
C846 C850 1.350 . S
C847 C850 1.463 . S
C847 C852 1.350 . S
C847 N855 1.427 . S
C848 H839 0.930 . S
C848 C846 1.378 . S
C848 C849 1.367 . S
C849 C848 1.367 . S
C849 C851 1.433 . S
C850 C846 1.350 . S
C850 C847 1.463 . S
C850 N854 1.427 . S
C851 H841 0.929 . S
C851 C849 1.433 . S
C851 N854 1.384 . S
C852 H843 0.929 . S
C852 C844 1.378 . S
C852 C847 1.350 . S
C853 H840 0.929 . S
C853 C845 1.433 . S
C853 N855 1.384 . S
N854 C850 1.427 . S
N854 C851 1.384 . S
N855 C847 1.427 . S
N855 C853 1.384 . S
H856 C862 0.930 . S
H857 C866 0.930 . S
H858 C871 0.929 . S
H859 C869 0.929 . S
H860 C864 0.929 . S
H861 C870 0.929 . S
C862 H856 0.930 . S
C862 C863 1.367 . S
C862 C870 1.378 . S
C863 C862 1.367 . S
C863 C871 1.433 . S
C864 H860 0.929 . S
C864 C866 1.378 . S
C864 C868 1.350 . S
C865 C868 1.463 . S
C865 C870 1.350 . S
C865 N873 1.427 . S
C866 H857 0.930 . S
C866 C864 1.378 . S
C866 C867 1.367 . S
C867 C866 1.367 . S
C867 C869 1.433 . S
C868 C864 1.350 . S
C868 C865 1.463 . S
C868 N872 1.427 . S
C869 H859 0.929 . S
C869 C867 1.433 . S
C869 N872 1.384 . S
C870 H861 0.929 . S
C870 C862 1.378 . S
C870 C865 1.350 . S
C871 H858 0.929 . S
C871 C863 1.433 . S
C871 N873 1.384 . S
N872 C868 1.427 . S
N872 C869 1.384 . S
N873 C865 1.427 . S
N873 C871 1.384 . S
H874 C880 0.930 . S
H875 C884 0.930 . S
H876 C889 0.929 . S
H877 C887 0.929 . S
H878 C882 0.929 . S
H879 C888 0.929 . S
C880 H874 0.930 . S
C880 C881 1.367 . S
C880 C888 1.378 . S
C881 C880 1.367 . S
C881 C889 1.433 . S
C882 H878 0.929 . S
C882 C884 1.378 . S
C882 C886 1.350 . S
C883 C886 1.463 . S
C883 C888 1.350 . S
C883 N891 1.427 . S
C884 H875 0.930 . S
C884 C882 1.378 . S
C884 C885 1.367 . S
C885 C884 1.367 . S
C885 C887 1.433 . S
C886 C882 1.350 . S
C886 C883 1.463 . S
C886 N890 1.427 . S
C887 H877 0.929 . S
C887 C885 1.433 . S
C887 N890 1.384 . S
C888 H879 0.929 . S
C888 C880 1.378 . S
C888 C883 1.350 . S
C889 H876 0.929 . S
C889 C881 1.433 . S
C889 N891 1.384 . S
N890 C886 1.427 . S
N890 C887 1.384 . S
N891 C883 1.427 . S
N891 C889 1.384 . S
H892 C898 0.930 . S
H893 C902 0.930 . S
H894 C907 0.929 . S
H895 C905 0.929 . S
H896 C900 0.929 . S
H897 C906 0.929 . S
C898 H892 0.930 . S
C898 C899 1.367 . S
C898 C906 1.378 . S
C899 C898 1.367 . S
C899 C907 1.433 . S
C900 H896 0.929 . S
C900 C902 1.378 . S
C900 C904 1.350 . S
C901 C904 1.463 . S
C901 C906 1.350 . S
C901 N909 1.427 . S
C902 H893 0.930 . S
C902 C900 1.378 . S
C902 C903 1.367 . S
C903 C902 1.367 . S
C903 C905 1.433 . S
C904 C900 1.350 . S
C904 C901 1.463 . S
C904 N908 1.427 . S
C905 H895 0.929 . S
C905 C903 1.433 . S
C905 N908 1.384 . S
C906 H897 0.929 . S
C906 C898 1.378 . S
C906 C901 1.350 . S
C907 H894 0.929 . S
C907 C899 1.433 . S
C907 N909 1.384 . S
N908 C904 1.427 . S
N908 C905 1.384 . S
N909 C901 1.427 . S
N909 C907 1.384 . S
H910 C916 0.930 . S
H911 C920 0.930 . S
H912 C925 0.929 . S
H913 C923 0.929 . S
H914 C918 0.929 . S
H915 C924 0.929 . S
C916 H910 0.930 . S
C916 C917 1.367 . S
C916 C924 1.378 . S
C917 C916 1.367 . S
C917 C925 1.433 . S
C918 H914 0.929 . S
C918 C920 1.378 . S
C918 C922 1.350 . S
C919 C922 1.463 . S
C919 C924 1.350 . S
C919 N927 1.427 . S
C920 H911 0.930 . S
C920 C918 1.378 . S
C920 C921 1.367 . S
C921 C920 1.367 . S
C921 C923 1.433 . S
C922 C918 1.350 . S
C922 C919 1.463 . S
C922 N926 1.427 . S
C923 H913 0.929 . S
C923 C921 1.433 . S
C923 N926 1.384 . S
C924 H915 0.929 . S
C924 C916 1.378 . S
C924 C919 1.350 . S
C925 H912 0.929 . S
C925 C917 1.433 . S
C925 N927 1.384 . S
N926 C922 1.427 . S
N926 C923 1.384 . S
N927 C919 1.427 . S
N927 C925 1.384 . S
H928 C934 0.930 . S
H929 C938 0.930 . S
H930 C943 0.929 . S
H931 C941 0.929 . S
H932 C936 0.929 . S
H933 C942 0.929 . S
C934 H928 0.930 . S
C934 C935 1.367 . S
C934 C942 1.378 . S
C935 C934 1.367 . S
C935 C943 1.433 . S
C936 H932 0.929 . S
C936 C938 1.378 . S
C936 C940 1.350 . S
C937 C940 1.463 . S
C937 C942 1.350 . S
C937 N945 1.427 . S
C938 H929 0.930 . S
C938 C936 1.378 . S
C938 C939 1.367 . S
C939 C938 1.367 . S
C939 C941 1.433 . S
C940 C936 1.350 . S
C940 C937 1.463 . S
C940 N944 1.427 . S
C941 H931 0.929 . S
C941 C939 1.433 . S
C941 N944 1.384 . S
C942 H933 0.929 . S
C942 C934 1.378 . S
C942 C937 1.350 . S
C943 H930 0.929 . S
C943 C935 1.433 . S
C943 N945 1.384 . S
N944 C940 1.427 . S
N944 C941 1.384 . S
N945 C937 1.427 . S
N945 C943 1.384 . S
H946 C952 0.930 . S
H947 C956 0.930 . S
H948 C961 0.929 . S
H949 C959 0.929 . S
H950 C954 0.929 . S
H951 C960 0.929 . S
C952 H946 0.930 . S
C952 C953 1.367 . S
C952 C960 1.378 . S
C953 C952 1.367 . S
C953 C961 1.433 . S
C954 H950 0.929 . S
C954 C956 1.378 . S
C954 C958 1.350 . S
C955 C958 1.463 . S
C955 C960 1.350 . S
C955 N963 1.427 . S
C956 H947 0.930 . S
C956 C954 1.378 . S
C956 C957 1.367 . S
C957 C956 1.367 . S
C957 C959 1.433 . S
C958 C954 1.350 . S
C958 C955 1.463 . S
C958 N962 1.427 . S
C959 H949 0.929 . S
C959 C957 1.433 . S
C959 N962 1.384 . S
C960 H951 0.929 . S
C960 C952 1.378 . S
C960 C955 1.350 . S
C961 H948 0.929 . S
C961 C953 1.433 . S
C961 N963 1.384 . S
N962 C958 1.427 . S
N962 C959 1.384 . S
N963 C955 1.427 . S
N963 C961 1.384 . S
H964 C970 0.930 . S
H965 C974 0.930 . S
H966 C979 0.929 . S
H967 C977 0.929 . S
H968 C972 0.929 . S
H969 C978 0.929 . S
C970 H964 0.930 . S
C970 C971 1.367 . S
C970 C978 1.378 . S
C971 C970 1.367 . S
C971 C979 1.433 . S
C972 H968 0.929 . S
C972 C974 1.378 . S
C972 C976 1.350 . S
C973 C976 1.463 . S
C973 C978 1.350 . S
C973 N981 1.427 . S
C974 H965 0.930 . S
C974 C972 1.378 . S
C974 C975 1.367 . S
C975 C974 1.367 . S
C975 C977 1.433 . S
C976 C972 1.350 . S
C976 C973 1.463 . S
C976 N980 1.427 . S
C977 H967 0.929 . S
C977 C975 1.433 . S
C977 N980 1.384 . S
C978 H969 0.929 . S
C978 C970 1.378 . S
C978 C973 1.350 . S
C979 H966 0.929 . S
C979 C971 1.433 . S
C979 N981 1.384 . S
N980 C976 1.427 . S
N980 C977 1.384 . S
N981 C973 1.427 . S
N981 C979 1.384 . S
H982 C988 0.930 . S
H983 C992 0.930 . S
H984 C997 0.929 . S
H985 C995 0.929 . S
H986 C990 0.929 . S
H987 C996 0.929 . S
C988 H982 0.930 . S
C988 C989 1.367 . S
C988 C996 1.378 . S
C989 C988 1.367 . S
C989 C997 1.433 . S
C990 H986 0.929 . S
C990 C992 1.378 . S
C990 C994 1.350 . S
C991 C994 1.463 . S
C991 C996 1.350 . S
C991 N999 1.427 . S
C992 H983 0.930 . S
C992 C990 1.378 . S
C992 C993 1.367 . S
C993 C992 1.367 . S
C993 C995 1.433 . S
C994 C990 1.350 . S
C994 C991 1.463 . S
C994 N998 1.427 . S
C995 H985 0.929 . S
C995 C993 1.433 . S
C995 N998 1.384 . S
C996 H987 0.929 . S
C996 C988 1.378 . S
C996 C991 1.350 . S
C997 H984 0.929 . S
C997 C989 1.433 . S
C997 N999 1.384 . S
N998 C994 1.427 . S
N998 C995 1.384 . S
N999 C991 1.427 . S
N999 C997 1.384 . S
H1000 C1006 0.930 . S
H1001 C1010 0.930 . S
H1002 C1015 0.929 . S
H1003 C1013 0.929 . S
H1004 C1008 0.929 . S
H1005 C1014 0.929 . S
C1006 H1000 0.930 . S
C1006 C1007 1.367 . S
C1006 C1014 1.378 . S
C1007 C1006 1.367 . S
C1007 C1015 1.433 . S
C1008 H1004 0.929 . S
C1008 C1010 1.378 . S
C1008 C1012 1.350 . S
C1009 C1012 1.463 . S
C1009 C1014 1.350 . S
C1009 N1017 1.427 . S
C1010 H1001 0.930 . S
C1010 C1008 1.378 . S
C1010 C1011 1.367 . S
C1011 C1010 1.367 . S
C1011 C1013 1.433 . S
C1012 C1008 1.350 . S
C1012 C1009 1.463 . S
C1012 N1016 1.427 . S
C1013 H1003 0.929 . S
C1013 C1011 1.433 . S
C1013 N1016 1.384 . S
C1014 H1005 0.929 . S
C1014 C1006 1.378 . S
C1014 C1009 1.350 . S
C1015 H1002 0.929 . S
C1015 C1007 1.433 . S
C1015 N1017 1.384 . S
N1016 C1012 1.427 . S
N1016 C1013 1.384 . S
N1017 C1009 1.427 . S
N1017 C1015 1.384 . S
H1018 C1024 0.930 . S
H1019 C1028 0.930 . S
H1020 C1033 0.929 . S
H1021 C1031 0.929 . S
H1022 C1026 0.929 . S
H1023 C1032 0.929 . S
C1024 H1018 0.930 . S
C1024 C1025 1.367 . S
C1024 C1032 1.378 . S
C1025 C1024 1.367 . S
C1025 C1033 1.433 . S
C1026 H1022 0.929 . S
C1026 C1028 1.378 . S
C1026 C1030 1.350 . S
C1027 C1030 1.463 . S
C1027 C1032 1.350 . S
C1027 N1035 1.427 . S
C1028 H1019 0.930 . S
C1028 C1026 1.378 . S
C1028 C1029 1.367 . S
C1029 C1028 1.367 . S
C1029 C1031 1.433 1_554 S
C1030 C1026 1.350 . S
C1030 C1027 1.463 . S
C1030 N1034 1.427 . S
C1031 H1021 0.929 . S
C1031 C1029 1.433 1_556 S
C1031 N1034 1.384 1_556 S
C1032 H1023 0.929 . S
C1032 C1024 1.378 . S
C1032 C1027 1.350 . S
C1033 H1020 0.929 . S
C1033 C1025 1.433 . S
C1033 N1035 1.384 . S
N1034 C1030 1.427 . S
N1034 C1031 1.384 1_554 S
N1035 C1027 1.427 . S
N1035 C1033 1.384 . S
H1036 C1042 0.930 . S
H1037 C1046 0.930 . S
H1038 C1051 0.929 . S
H1039 C1049 0.929 . S
H1040 C1044 0.929 . S
H1041 C1050 0.929 . S
C1042 H1036 0.930 . S
C1042 C1043 1.367 . S
C1042 C1050 1.378 . S
C1043 C1042 1.367 . S
C1043 C1051 1.433 . S
C1044 H1040 0.929 . S
C1044 C1046 1.378 . S
C1044 C1048 1.350 . S
C1045 C1048 1.463 . S
C1045 C1050 1.350 . S
C1045 N1053 1.427 . S
C1046 H1037 0.930 . S
C1046 C1044 1.378 . S
C1046 C1047 1.367 . S
C1047 C1046 1.367 . S
C1047 C1049 1.433 . S
C1048 C1044 1.350 . S
C1048 C1045 1.463 . S
C1048 N1052 1.427 . S
C1049 H1039 0.929 . S
C1049 C1047 1.433 . S
C1049 N1052 1.384 . S
C1050 H1041 0.929 . S
C1050 C1042 1.378 . S
C1050 C1045 1.350 . S
C1051 H1038 0.929 . S
C1051 C1043 1.433 . S
C1051 N1053 1.384 . S
N1052 C1048 1.427 . S
N1052 C1049 1.384 . S
N1053 C1045 1.427 . S
N1053 C1051 1.384 . S
H1054 C1060 0.930 . S
H1055 C1064 0.930 . S
H1056 C1069 0.929 . S
H1057 C1067 0.929 . S
H1058 C1062 0.929 . S
H1059 C1068 0.929 . S
C1060 H1054 0.930 . S
C1060 C1061 1.367 . S
C1060 C1068 1.378 . S
C1061 C1060 1.367 . S
C1061 C1069 1.433 . S
C1062 H1058 0.929 . S
C1062 C1064 1.378 . S
C1062 C1066 1.350 . S
C1063 C1066 1.463 . S
C1063 C1068 1.350 . S
C1063 N1071 1.427 . S
C1064 H1055 0.930 . S
C1064 C1062 1.378 . S
C1064 C1065 1.367 . S
C1065 C1064 1.367 . S
C1065 C1067 1.433 . S
C1066 C1062 1.350 . S
C1066 C1063 1.463 . S
C1066 N1070 1.427 . S
C1067 H1057 0.929 . S
C1067 C1065 1.433 . S
C1067 N1070 1.384 . S
C1068 H1059 0.929 . S
C1068 C1060 1.378 . S
C1068 C1063 1.350 . S
C1069 H1056 0.929 . S
C1069 C1061 1.433 . S
C1069 N1071 1.384 . S
N1070 C1066 1.427 . S
N1070 C1067 1.384 . S
N1071 C1063 1.427 . S
N1071 C1069 1.384 . S
H1072 C1078 0.930 . S
H1073 C1082 0.930 . S
H1074 C1087 0.929 . S
H1075 C1085 0.929 . S
H1076 C1080 0.929 . S
H1077 C1086 0.929 . S
C1078 H1072 0.930 . S
C1078 C1079 1.367 . S
C1078 C1086 1.378 . S
C1079 C1078 1.367 . S
C1079 C1087 1.433 . S
C1080 H1076 0.929 . S
C1080 C1082 1.378 . S
C1080 C1084 1.350 . S
C1081 C1084 1.463 . S
C1081 C1086 1.350 . S
C1081 N1089 1.427 . S
C1082 H1073 0.930 . S
C1082 C1080 1.378 . S
C1082 C1083 1.367 . S
C1083 C1082 1.367 . S
C1083 C1085 1.433 . S
C1084 C1080 1.350 . S
C1084 C1081 1.463 . S
C1084 N1088 1.427 . S
C1085 H1075 0.929 . S
C1085 C1083 1.433 . S
C1085 N1088 1.384 . S
C1086 H1077 0.929 . S
C1086 C1078 1.378 . S
C1086 C1081 1.350 . S
C1087 H1074 0.929 . S
C1087 C1079 1.433 . S
C1087 N1089 1.384 . S
N1088 C1084 1.427 . S
N1088 C1085 1.384 . S
N1089 C1081 1.427 . S
N1089 C1087 1.384 . S
H1090 C1096 0.930 . S
H1091 C1100 0.930 . S
H1092 C1105 0.929 . S
H1093 C1103 0.929 . S
H1094 C1098 0.929 . S
H1095 C1104 0.929 . S
C1096 H1090 0.930 . S
C1096 C1097 1.367 . S
C1096 C1104 1.378 . S
C1097 C1096 1.367 . S
C1097 C1105 1.433 . S
C1098 H1094 0.929 . S
C1098 C1100 1.378 . S
C1098 C1102 1.350 . S
C1099 C1102 1.463 . S
C1099 C1104 1.350 . S
C1099 N1107 1.427 . S
C1100 H1091 0.930 . S
C1100 C1098 1.378 . S
C1100 C1101 1.367 . S
C1101 C1100 1.367 . S
C1101 C1103 1.433 . S
C1102 C1098 1.350 . S
C1102 C1099 1.463 . S
C1102 N1106 1.427 . S
C1103 H1093 0.929 . S
C1103 C1101 1.433 . S
C1103 N1106 1.384 . S
C1104 H1095 0.929 . S
C1104 C1096 1.378 . S
C1104 C1099 1.350 . S
C1105 H1092 0.929 . S
C1105 C1097 1.433 . S
C1105 N1107 1.384 . S
N1106 C1102 1.427 . S
N1106 C1103 1.384 . S
N1107 C1099 1.427 . S
N1107 C1105 1.384 . S
H1108 C1114 0.930 . S
H1109 C1118 0.930 . S
H1110 C1123 0.929 . S
H1111 C1121 0.929 . S
H1112 C1116 0.929 . S
H1113 C1122 0.929 . S
C1114 H1108 0.930 . S
C1114 C1115 1.367 . S
C1114 C1122 1.378 . S
C1115 C1114 1.367 . S
C1115 C1123 1.433 . S
C1116 H1112 0.929 . S
C1116 C1118 1.378 . S
C1116 C1120 1.350 . S
C1117 C1120 1.463 . S
C1117 C1122 1.350 . S
C1117 N1125 1.427 . S
C1118 H1109 0.930 . S
C1118 C1116 1.378 . S
C1118 C1119 1.367 . S
C1119 C1118 1.367 . S
C1119 C1121 1.433 . S
C1120 C1116 1.350 . S
C1120 C1117 1.463 . S
C1120 N1124 1.427 . S
C1121 H1111 0.929 . S
C1121 C1119 1.433 . S
C1121 N1124 1.384 . S
C1122 H1113 0.929 . S
C1122 C1114 1.378 . S
C1122 C1117 1.350 . S
C1123 H1110 0.929 . S
C1123 C1115 1.433 . S
C1123 N1125 1.384 . S
N1124 C1120 1.427 . S
N1124 C1121 1.384 . S
N1125 C1117 1.427 . S
N1125 C1123 1.384 . S
H1126 C1132 0.930 . S
H1127 C1136 0.930 . S
H1128 C1141 0.929 . S
H1129 C1139 0.929 . S
H1130 C1134 0.929 . S
H1131 C1140 0.929 . S
C1132 H1126 0.930 . S
C1132 C1133 1.367 . S
C1132 C1140 1.378 . S
C1133 C1132 1.367 . S
C1133 C1141 1.433 . S
C1134 H1130 0.929 . S
C1134 C1136 1.378 . S
C1134 C1138 1.350 . S
C1135 C1138 1.463 . S
C1135 C1140 1.350 . S
C1135 N1143 1.427 . S
C1136 H1127 0.930 . S
C1136 C1134 1.378 . S
C1136 C1137 1.367 . S
C1137 C1136 1.367 . S
C1137 C1139 1.433 . S
C1138 C1134 1.350 . S
C1138 C1135 1.463 . S
C1138 N1142 1.427 . S
C1139 H1129 0.929 . S
C1139 C1137 1.433 . S
C1139 N1142 1.384 . S
C1140 H1131 0.929 . S
C1140 C1132 1.378 . S
C1140 C1135 1.350 . S
C1141 H1128 0.929 . S
C1141 C1133 1.433 . S
C1141 N1143 1.384 . S
N1142 C1138 1.427 . S
N1142 C1139 1.384 . S
N1143 C1135 1.427 . S
N1143 C1141 1.384 . S
H1144 C1150 0.930 . S
H1145 C1154 0.930 . S
H1146 C1159 0.929 . S
H1147 C1157 0.929 . S
H1148 C1152 0.929 . S
H1149 C1158 0.929 . S
C1150 H1144 0.930 . S
C1150 C1151 1.367 . S
C1150 C1158 1.378 . S
C1151 C1150 1.367 . S
C1151 C1159 1.433 . S
C1152 H1148 0.929 . S
C1152 C1154 1.378 . S
C1152 C1156 1.350 . S
C1153 C1156 1.463 . S
C1153 C1158 1.350 . S
C1153 N1161 1.427 . S
C1154 H1145 0.930 . S
C1154 C1152 1.378 . S
C1154 C1155 1.367 . S
C1155 C1154 1.367 . S
C1155 C1157 1.433 . S
C1156 C1152 1.350 . S
C1156 C1153 1.463 . S
C1156 N1160 1.427 . S
C1157 H1147 0.929 . S
C1157 C1155 1.433 . S
C1157 N1160 1.384 . S
C1158 H1149 0.929 . S
C1158 C1150 1.378 . S
C1158 C1153 1.350 . S
C1159 H1146 0.929 . S
C1159 C1151 1.433 . S
C1159 N1161 1.384 . S
N1160 C1156 1.427 . S
N1160 C1157 1.384 . S
N1161 C1153 1.427 . S
N1161 C1159 1.384 . S
H1162 C1168 0.930 . S
H1163 C1172 0.930 . S
H1164 C1177 0.929 . S
H1165 C1175 0.929 . S
H1166 C1170 0.929 . S
H1167 C1176 0.929 . S
C1168 H1162 0.930 . S
C1168 C1169 1.367 . S
C1168 C1176 1.378 . S
C1169 C1168 1.367 . S
C1169 C1177 1.433 . S
C1170 H1166 0.929 . S
C1170 C1172 1.378 . S
C1170 C1174 1.350 . S
C1171 C1174 1.463 . S
C1171 C1176 1.350 . S
C1171 N1179 1.427 . S
C1172 H1163 0.930 . S
C1172 C1170 1.378 . S
C1172 C1173 1.367 . S
C1173 C1172 1.367 . S
C1173 C1175 1.433 . S
C1174 C1170 1.350 . S
C1174 C1171 1.463 . S
C1174 N1178 1.427 . S
C1175 H1165 0.929 . S
C1175 C1173 1.433 . S
C1175 N1178 1.384 . S
C1176 H1167 0.929 . S
C1176 C1168 1.378 . S
C1176 C1171 1.350 . S
C1177 H1164 0.929 . S
C1177 C1169 1.433 . S
C1177 N1179 1.384 . S
N1178 C1174 1.427 . S
N1178 C1175 1.384 . S
N1179 C1171 1.427 . S
N1179 C1177 1.384 . S
H1180 C1186 0.930 . S
H1181 C1190 0.930 . S
H1182 C1195 0.929 . S
H1183 C1193 0.929 . S
H1184 C1188 0.929 . S
H1185 C1194 0.929 . S
C1186 H1180 0.930 . S
C1186 C1187 1.367 . S
C1186 C1194 1.378 . S
C1187 C1186 1.367 . S
C1187 C1195 1.433 . S
C1188 H1184 0.929 . S
C1188 C1190 1.378 . S
C1188 C1192 1.350 . S
C1189 C1192 1.463 . S
C1189 C1194 1.350 . S
C1189 N1197 1.427 . S
C1190 H1181 0.930 . S
C1190 C1188 1.378 . S
C1190 C1191 1.367 . S
C1191 C1190 1.367 . S
C1191 C1193 1.433 . S
C1192 C1188 1.350 . S
C1192 C1189 1.463 . S
C1192 N1196 1.427 . S
C1193 H1183 0.929 . S
C1193 C1191 1.433 . S
C1193 N1196 1.384 . S
C1194 H1185 0.929 . S
C1194 C1186 1.378 . S
C1194 C1189 1.350 . S
C1195 H1182 0.929 . S
C1195 C1187 1.433 . S
C1195 N1197 1.384 . S
N1196 C1192 1.427 . S
N1196 C1193 1.384 . S
N1197 C1189 1.427 . S
N1197 C1195 1.384 . S
H1198 C1204 0.930 . S
H1199 C1208 0.930 . S
H1200 C1213 0.929 . S
H1201 C1211 0.929 . S
H1202 C1206 0.929 . S
H1203 C1212 0.929 . S
C1204 H1198 0.930 . S
C1204 C1205 1.367 . S
C1204 C1212 1.378 . S
C1205 C1204 1.367 . S
C1205 C1213 1.433 . S
C1206 H1202 0.929 . S
C1206 C1208 1.378 . S
C1206 C1210 1.350 . S
C1207 C1210 1.463 . S
C1207 C1212 1.350 . S
C1207 N1215 1.427 . S
C1208 H1199 0.930 . S
C1208 C1206 1.378 . S
C1208 C1209 1.367 . S
C1209 C1208 1.367 . S
C1209 C1211 1.433 . S
C1210 C1206 1.350 . S
C1210 C1207 1.463 . S
C1210 N1214 1.427 . S
C1211 H1201 0.929 . S
C1211 C1209 1.433 . S
C1211 N1214 1.384 . S
C1212 H1203 0.929 . S
C1212 C1204 1.378 . S
C1212 C1207 1.350 . S
C1213 H1200 0.929 . S
C1213 C1205 1.433 . S
C1213 N1215 1.384 . S
N1214 C1210 1.427 . S
N1214 C1211 1.384 . S
N1215 C1207 1.427 . S
N1215 C1213 1.384 . S
H1216 C1222 0.930 . S
H1217 C1226 0.930 . S
H1218 C1231 0.929 . S
H1219 C1229 0.929 . S
H1220 C1224 0.929 . S
H1221 C1230 0.929 . S
C1222 H1216 0.930 . S
C1222 C1223 1.367 . S
C1222 C1230 1.378 . S
C1223 C1222 1.367 . S
C1223 C1231 1.433 . S
C1224 H1220 0.929 . S
C1224 C1226 1.378 . S
C1224 C1228 1.350 . S
C1225 C1228 1.463 . S
C1225 C1230 1.350 . S
C1225 N1233 1.427 . S
C1226 H1217 0.930 . S
C1226 C1224 1.378 . S
C1226 C1227 1.367 . S
C1227 C1226 1.367 . S
C1227 C1229 1.433 . S
C1228 C1224 1.350 . S
C1228 C1225 1.463 . S
C1228 N1232 1.427 . S
C1229 H1219 0.929 . S
C1229 C1227 1.433 . S
C1229 N1232 1.384 . S
C1230 H1221 0.929 . S
C1230 C1222 1.378 . S
C1230 C1225 1.350 . S
C1231 H1218 0.929 . S
C1231 C1223 1.433 . S
C1231 N1233 1.384 . S
N1232 C1228 1.427 . S
N1232 C1229 1.384 . S
N1233 C1225 1.427 . S
N1233 C1231 1.384 . S
H1234 C1240 0.930 . S
H1235 C1244 0.930 . S
H1236 C1249 0.929 . S
H1237 C1247 0.929 . S
H1238 C1242 0.929 . S
H1239 C1248 0.929 . S
C1240 H1234 0.930 . S
C1240 C1241 1.367 . S
C1240 C1248 1.378 . S
C1241 C1240 1.367 . S
C1241 C1249 1.433 . S
C1242 H1238 0.929 . S
C1242 C1244 1.378 . S
C1242 C1246 1.350 . S
C1243 C1246 1.463 . S
C1243 C1248 1.350 . S
C1243 N1251 1.427 . S
C1244 H1235 0.930 . S
C1244 C1242 1.378 . S
C1244 C1245 1.367 . S
C1245 C1244 1.367 . S
C1245 C1247 1.433 . S
C1246 C1242 1.350 . S
C1246 C1243 1.463 . S
C1246 N1250 1.427 . S
C1247 H1237 0.929 . S
C1247 C1245 1.433 . S
C1247 N1250 1.384 . S
C1248 H1239 0.929 . S
C1248 C1240 1.378 . S
C1248 C1243 1.350 . S
C1249 H1236 0.929 . S
C1249 C1241 1.433 . S
C1249 N1251 1.384 . S
N1250 C1246 1.427 . S
N1250 C1247 1.384 . S
N1251 C1243 1.427 . S
N1251 C1249 1.384 . S
H1252 C1258 0.930 . S
H1253 C1262 0.930 . S
H1254 C1267 0.929 . S
H1255 C1265 0.929 . S
H1256 C1260 0.929 . S
H1257 C1266 0.929 . S
C1258 H1252 0.930 . S
C1258 C1259 1.367 . S
C1258 C1266 1.378 . S
C1259 C1258 1.367 . S
C1259 C1267 1.433 . S
C1260 H1256 0.929 . S
C1260 C1262 1.378 . S
C1260 C1264 1.350 . S
C1261 C1264 1.463 . S
C1261 C1266 1.350 . S
C1261 N1269 1.427 . S
C1262 H1253 0.930 . S
C1262 C1260 1.378 . S
C1262 C1263 1.367 . S
C1263 C1262 1.367 . S
C1263 C1265 1.433 . S
C1264 C1260 1.350 . S
C1264 C1261 1.463 . S
C1264 N1268 1.427 . S
C1265 H1255 0.929 . S
C1265 C1263 1.433 . S
C1265 N1268 1.384 . S
C1266 H1257 0.929 . S
C1266 C1258 1.378 . S
C1266 C1261 1.350 . S
C1267 H1254 0.929 . S
C1267 C1259 1.433 . S
C1267 N1269 1.384 . S
N1268 C1264 1.427 . S
N1268 C1265 1.384 . S
N1269 C1261 1.427 . S
N1269 C1267 1.384 . S
H1270 C1276 0.930 . S
H1271 C1280 0.930 . S
H1272 C1285 0.929 . S
H1273 C1283 0.929 . S
H1274 C1278 0.929 . S
H1275 C1284 0.929 . S
C1276 H1270 0.930 . S
C1276 C1277 1.367 . S
C1276 C1284 1.378 . S
C1277 C1276 1.367 . S
C1277 C1285 1.433 . S
C1278 H1274 0.929 . S
C1278 C1280 1.378 . S
C1278 C1282 1.350 . S
C1279 C1282 1.463 . S
C1279 C1284 1.350 . S
C1279 N1287 1.427 . S
C1280 H1271 0.930 . S
C1280 C1278 1.378 . S
C1280 C1281 1.367 . S
C1281 C1280 1.367 . S
C1281 C1283 1.433 . S
C1282 C1278 1.350 . S
C1282 C1279 1.463 . S
C1282 N1286 1.427 . S
C1283 H1273 0.929 . S
C1283 C1281 1.433 . S
C1283 N1286 1.384 . S
C1284 H1275 0.929 . S
C1284 C1276 1.378 . S
C1284 C1279 1.350 . S
C1285 H1272 0.929 . S
C1285 C1277 1.433 . S
C1285 N1287 1.384 . S
N1286 C1282 1.427 . S
N1286 C1283 1.384 . S
N1287 C1279 1.427 . S
N1287 C1285 1.384 . S
H1288 C1294 0.930 . S
H1289 C1298 0.930 . S
H1290 C1303 0.929 . S
H1291 C1301 0.929 . S
H1292 C1296 0.929 . S
H1293 C1302 0.929 . S
C1294 H1288 0.930 . S
C1294 C1295 1.367 . S
C1294 C1302 1.378 . S
C1295 C1294 1.367 . S
C1295 C1303 1.433 . S
C1296 H1292 0.929 . S
C1296 C1298 1.378 . S
C1296 C1300 1.350 . S
C1297 C1300 1.463 . S
C1297 C1302 1.350 . S
C1297 N1305 1.427 . S
C1298 H1289 0.930 . S
C1298 C1296 1.378 . S
C1298 C1299 1.367 . S
C1299 C1298 1.367 . S
C1299 C1301 1.433 . S
C1300 C1296 1.350 . S
C1300 C1297 1.463 . S
C1300 N1304 1.427 . S
C1301 H1291 0.929 . S
C1301 C1299 1.433 . S
C1301 N1304 1.384 . S
C1302 H1293 0.929 . S
C1302 C1294 1.378 . S
C1302 C1297 1.350 . S
C1303 H1290 0.929 . S
C1303 C1295 1.433 . S
C1303 N1305 1.384 . S
N1304 C1300 1.427 . S
N1304 C1301 1.384 . S
N1305 C1297 1.427 . S
N1305 C1303 1.384 . S
H1306 C1312 0.930 . S
H1307 C1316 0.930 . S
H1308 C1321 0.929 . S
H1309 C1319 0.929 . S
H1310 C1314 0.929 . S
H1311 C1320 0.929 . S
C1312 H1306 0.930 . S
C1312 C1313 1.367 . S
C1312 C1320 1.378 . S
C1313 C1312 1.367 . S
C1313 C1321 1.433 . S
C1314 H1310 0.929 . S
C1314 C1316 1.378 . S
C1314 C1318 1.350 . S
C1315 C1318 1.463 . S
C1315 C1320 1.350 . S
C1315 N1323 1.427 . S
C1316 H1307 0.930 . S
C1316 C1314 1.378 . S
C1316 C1317 1.367 . S
C1317 C1316 1.367 . S
C1317 C1319 1.433 . S
C1318 C1314 1.350 . S
C1318 C1315 1.463 . S
C1318 N1322 1.427 . S
C1319 H1309 0.929 . S
C1319 C1317 1.433 . S
C1319 N1322 1.384 . S
C1320 H1311 0.929 . S
C1320 C1312 1.378 . S
C1320 C1315 1.350 . S
C1321 H1308 0.929 . S
C1321 C1313 1.433 . S
C1321 N1323 1.384 . S
N1322 C1318 1.427 . S
N1322 C1319 1.384 . S
N1323 C1315 1.427 . S
N1323 C1321 1.384 . S
H1324 C1330 0.930 . S
H1325 C1334 0.930 . S
H1326 C1339 0.929 . S
H1327 C1337 0.929 . S
H1328 C1332 0.929 . S
H1329 C1338 0.929 . S
C1330 H1324 0.930 . S
C1330 C1331 1.367 . S
C1330 C1338 1.378 . S
C1331 C1330 1.367 . S
C1331 C1339 1.433 . S
C1332 H1328 0.929 . S
C1332 C1334 1.378 . S
C1332 C1336 1.350 . S
C1333 C1336 1.463 . S
C1333 C1338 1.350 . S
C1333 N1341 1.427 . S
C1334 H1325 0.930 . S
C1334 C1332 1.378 . S
C1334 C1335 1.367 . S
C1335 C1334 1.367 . S
C1335 C1337 1.433 . S
C1336 C1332 1.350 . S
C1336 C1333 1.463 . S
C1336 N1340 1.427 . S
C1337 H1327 0.929 . S
C1337 C1335 1.433 . S
C1337 N1340 1.384 . S
C1338 H1329 0.929 . S
C1338 C1330 1.378 . S
C1338 C1333 1.350 . S
C1339 H1326 0.929 . S
C1339 C1331 1.433 . S
C1339 N1341 1.384 . S
N1340 C1336 1.427 . S
N1340 C1337 1.384 . S
N1341 C1333 1.427 . S
N1341 C1339 1.384 . S
H1342 C1348 0.930 . S
H1343 C1352 0.930 . S
H1344 C1357 0.929 . S
H1345 C1355 0.929 . S
H1346 C1350 0.929 . S
H1347 C1356 0.929 . S
C1348 H1342 0.930 . S
C1348 C1349 1.367 . S
C1348 C1356 1.378 . S
C1349 C1348 1.367 . S
C1349 C1357 1.433 . S
C1350 H1346 0.929 . S
C1350 C1352 1.378 . S
C1350 C1354 1.350 . S
C1351 C1354 1.463 . S
C1351 C1356 1.350 . S
C1351 N1359 1.427 . S
C1352 H1343 0.930 . S
C1352 C1350 1.378 . S
C1352 C1353 1.367 . S
C1353 C1352 1.367 . S
C1353 C1355 1.433 . S
C1354 C1350 1.350 . S
C1354 C1351 1.463 . S
C1354 N1358 1.427 . S
C1355 H1345 0.929 . S
C1355 C1353 1.433 . S
C1355 N1358 1.384 . S
C1356 H1347 0.929 . S
C1356 C1348 1.378 . S
C1356 C1351 1.350 . S
C1357 H1344 0.929 . S
C1357 C1349 1.433 . S
C1357 N1359 1.384 . S
N1358 C1354 1.427 . S
N1358 C1355 1.384 . S
N1359 C1351 1.427 . S
N1359 C1357 1.384 . S
H1360 C1366 0.930 . S
H1361 C1370 0.930 . S
H1362 C1375 0.929 . S
H1363 C1373 0.929 . S
H1364 C1368 0.929 . S
H1365 C1374 0.929 . S
C1366 H1360 0.930 . S
C1366 C1367 1.367 . S
C1366 C1374 1.378 . S
C1367 C1366 1.367 . S
C1367 C1375 1.433 . S
C1368 H1364 0.929 . S
C1368 C1370 1.378 . S
C1368 C1372 1.350 . S
C1369 C1372 1.463 . S
C1369 C1374 1.350 . S
C1369 N1377 1.427 . S
C1370 H1361 0.930 . S
C1370 C1368 1.378 . S
C1370 C1371 1.367 . S
C1371 C1370 1.367 . S
C1371 C1373 1.433 . S
C1372 C1368 1.350 . S
C1372 C1369 1.463 . S
C1372 N1376 1.427 . S
C1373 H1363 0.929 . S
C1373 C1371 1.433 . S
C1373 N1376 1.384 . S
C1374 H1365 0.929 . S
C1374 C1366 1.378 . S
C1374 C1369 1.350 . S
C1375 H1362 0.929 . S
C1375 C1367 1.433 . S
C1375 N1377 1.384 . S
N1376 C1372 1.427 . S
N1376 C1373 1.384 . S
N1377 C1369 1.427 . S
N1377 C1375 1.384 . S
H1378 C1384 0.930 . S
H1379 C1388 0.930 . S
H1380 C1393 0.929 . S
H1381 C1391 0.929 . S
H1382 C1386 0.929 . S
H1383 C1392 0.929 . S
C1384 H1378 0.930 . S
C1384 C1385 1.367 . S
C1384 C1392 1.378 . S
C1385 C1384 1.367 . S
C1385 C1393 1.433 . S
C1386 H1382 0.929 . S
C1386 C1388 1.378 . S
C1386 C1390 1.350 . S
C1387 C1390 1.463 . S
C1387 C1392 1.350 . S
C1387 N1395 1.427 . S
C1388 H1379 0.930 . S
C1388 C1386 1.378 . S
C1388 C1389 1.367 . S
C1389 C1388 1.367 . S
C1389 C1391 1.433 . S
C1390 C1386 1.350 . S
C1390 C1387 1.463 . S
C1390 N1394 1.427 . S
C1391 H1381 0.929 . S
C1391 C1389 1.433 . S
C1391 N1394 1.384 . S
C1392 H1383 0.929 . S
C1392 C1384 1.378 . S
C1392 C1387 1.350 . S
C1393 H1380 0.929 . S
C1393 C1385 1.433 . S
C1393 N1395 1.384 . S
N1394 C1390 1.427 . S
N1394 C1391 1.384 . S
N1395 C1387 1.427 . S
N1395 C1393 1.384 . S
H1396 C1402 0.930 . S
H1397 C1406 0.930 . S
H1398 C1411 0.929 . S
H1399 C1409 0.929 . S
H1400 C1404 0.929 . S
H1401 C1410 0.929 . S
C1402 H1396 0.930 . S
C1402 C1403 1.367 . S
C1402 C1410 1.378 . S
C1403 C1402 1.367 . S
C1403 C1411 1.433 . S
C1404 H1400 0.929 . S
C1404 C1406 1.378 . S
C1404 C1408 1.350 . S
C1405 C1408 1.463 . S
C1405 C1410 1.350 . S
C1405 N1413 1.427 . S
C1406 H1397 0.930 . S
C1406 C1404 1.378 . S
C1406 C1407 1.367 . S
C1407 C1406 1.367 . S
C1407 C1409 1.433 . S
C1408 C1404 1.350 . S
C1408 C1405 1.463 . S
C1408 N1412 1.427 . S
C1409 H1399 0.929 . S
C1409 C1407 1.433 . S
C1409 N1412 1.384 . S
C1410 H1401 0.929 . S
C1410 C1402 1.378 . S
C1410 C1405 1.350 . S
C1411 H1398 0.929 . S
C1411 C1403 1.433 . S
C1411 N1413 1.384 . S
N1412 C1408 1.427 . S
N1412 C1409 1.384 . S
N1413 C1405 1.427 . S
N1413 C1411 1.384 . S
H1414 C1420 0.930 . S
H1415 C1424 0.930 . S
H1416 C1429 0.929 . S
H1417 C1427 0.929 . S
H1418 C1422 0.929 . S
H1419 C1428 0.929 . S
C1420 H1414 0.930 . S
C1420 C1421 1.367 . S
C1420 C1428 1.378 . S
C1421 C1420 1.367 . S
C1421 C1429 1.433 . S
C1422 H1418 0.929 . S
C1422 C1424 1.378 . S
C1422 C1426 1.350 . S
C1423 C1426 1.463 . S
C1423 C1428 1.350 . S
C1423 N1431 1.427 . S
C1424 H1415 0.930 . S
C1424 C1422 1.378 . S
C1424 C1425 1.367 . S
C1425 C1424 1.367 . S
C1425 C1427 1.433 . S
C1426 C1422 1.350 . S
C1426 C1423 1.463 . S
C1426 N1430 1.427 . S
C1427 H1417 0.929 . S
C1427 C1425 1.433 . S
C1427 N1430 1.384 . S
C1428 H1419 0.929 . S
C1428 C1420 1.378 . S
C1428 C1423 1.350 . S
C1429 H1416 0.929 . S
C1429 C1421 1.433 . S
C1429 N1431 1.384 . S
N1430 C1426 1.427 . S
N1430 C1427 1.384 . S
N1431 C1423 1.427 . S
N1431 C1429 1.384 . S
H1432 C1438 0.930 . S
H1433 C1442 0.930 . S
H1434 C1447 0.929 . S
H1435 C1445 0.929 . S
H1436 C1440 0.929 . S
H1437 C1446 0.929 . S
C1438 H1432 0.930 . S
C1438 C1439 1.367 . S
C1438 C1446 1.378 . S
C1439 C1438 1.367 . S
C1439 C1447 1.433 . S
C1440 H1436 0.929 . S
C1440 C1442 1.378 . S
C1440 C1444 1.350 . S
C1441 C1444 1.463 . S
C1441 C1446 1.350 . S
C1441 N1449 1.427 . S
C1442 H1433 0.930 . S
C1442 C1440 1.378 . S
C1442 C1443 1.367 . S
C1443 C1442 1.367 . S
C1443 C1445 1.433 . S
C1444 C1440 1.350 . S
C1444 C1441 1.463 . S
C1444 N1448 1.427 . S
C1445 H1435 0.929 . S
C1445 C1443 1.433 . S
C1445 N1448 1.384 . S
C1446 H1437 0.929 . S
C1446 C1438 1.378 . S
C1446 C1441 1.350 . S
C1447 H1434 0.929 . S
C1447 C1439 1.433 . S
C1447 N1449 1.384 . S
N1448 C1444 1.427 . S
N1448 C1445 1.384 . S
N1449 C1441 1.427 . S
N1449 C1447 1.384 . S
H1450 C1456 0.930 . S
H1451 C1460 0.930 . S
H1452 C1465 0.929 . S
H1453 C1463 0.929 . S
H1454 C1458 0.929 . S
H1455 C1464 0.929 . S
C1456 H1450 0.930 . S
C1456 C1457 1.367 . S
C1456 C1464 1.378 . S
C1457 C1456 1.367 . S
C1457 C1465 1.433 . S
C1458 H1454 0.929 . S
C1458 C1460 1.378 . S
C1458 C1462 1.350 . S
C1459 C1462 1.463 . S
C1459 C1464 1.350 . S
C1459 N1467 1.427 . S
C1460 H1451 0.930 . S
C1460 C1458 1.378 . S
C1460 C1461 1.367 . S
C1461 C1460 1.367 . S
C1461 C1463 1.433 . S
C1462 C1458 1.350 . S
C1462 C1459 1.463 . S
C1462 N1466 1.427 . S
C1463 H1453 0.929 . S
C1463 C1461 1.433 . S
C1463 N1466 1.384 . S
C1464 H1455 0.929 . S
C1464 C1456 1.378 . S
C1464 C1459 1.350 . S
C1465 H1452 0.929 . S
C1465 C1457 1.433 . S
C1465 N1467 1.384 . S
N1466 C1462 1.427 . S
N1466 C1463 1.384 . S
N1467 C1459 1.427 . S
N1467 C1465 1.384 . S
H1468 C1474 0.930 . S
H1469 C1478 0.930 . S
H1470 C1483 0.929 . S
H1471 C1481 0.929 . S
H1472 C1476 0.929 . S
H1473 C1482 0.929 . S
C1474 H1468 0.930 . S
C1474 C1475 1.367 . S
C1474 C1482 1.378 . S
C1475 C1474 1.367 . S
C1475 C1483 1.433 . S
C1476 H1472 0.929 . S
C1476 C1478 1.378 . S
C1476 C1480 1.350 . S
C1477 C1480 1.463 . S
C1477 C1482 1.350 . S
C1477 N1485 1.427 . S
C1478 H1469 0.930 . S
C1478 C1476 1.378 . S
C1478 C1479 1.367 . S
C1479 C1478 1.367 . S
C1479 C1481 1.433 . S
C1480 C1476 1.350 . S
C1480 C1477 1.463 . S
C1480 N1484 1.427 . S
C1481 H1471 0.929 . S
C1481 C1479 1.433 . S
C1481 N1484 1.384 . S
C1482 H1473 0.929 . S
C1482 C1474 1.378 . S
C1482 C1477 1.350 . S
C1483 H1470 0.929 . S
C1483 C1475 1.433 . S
C1483 N1485 1.384 . S
N1484 C1480 1.427 . S
N1484 C1481 1.384 . S
N1485 C1477 1.427 . S
N1485 C1483 1.384 . S
H1486 C1492 0.930 . S
H1487 C1496 0.930 . S
H1488 C1501 0.929 . S
H1489 C1499 0.929 . S
H1490 C1494 0.929 . S
H1491 C1500 0.929 . S
C1492 H1486 0.930 . S
C1492 C1493 1.367 . S
C1492 C1500 1.378 . S
C1493 C1492 1.367 . S
C1493 C1501 1.433 . S
C1494 H1490 0.929 . S
C1494 C1496 1.378 . S
C1494 C1498 1.350 . S
C1495 C1498 1.463 . S
C1495 C1500 1.350 . S
C1495 N1503 1.427 . S
C1496 H1487 0.930 . S
C1496 C1494 1.378 . S
C1496 C1497 1.367 . S
C1497 C1496 1.367 . S
C1497 C1499 1.433 . S
C1498 C1494 1.350 . S
C1498 C1495 1.463 . S
C1498 N1502 1.427 . S
C1499 H1489 0.929 . S
C1499 C1497 1.433 . S
C1499 N1502 1.384 . S
C1500 H1491 0.929 . S
C1500 C1492 1.378 . S
C1500 C1495 1.350 . S
C1501 H1488 0.929 . S
C1501 C1493 1.433 . S
C1501 N1503 1.384 . S
N1502 C1498 1.427 . S
N1502 C1499 1.384 . S
N1503 C1495 1.427 . S
N1503 C1501 1.384 . S
C647 C135 2.064 . S
C651 C18 1.976 . S
C665 C6 2.680 . S
C669 C59 2.808 . S
C683 C89 0.827 . S
C687 C58 0.819 . S
C701 C130 2.577 . S
C705 C90 2.585 . S
C719 C170 2.471 . S
C723 C206 2.417 . S
C737 C218 0.795 . S
C741 C258 0.818 . S
C755 C259 2.623 . S
C759 C290 2.652 . S
C773 C175 2.072 . S
C777 C289 1.999 . S
C791 C379 2.628 . S
C795 C19 2.655 . S
C809 C406 0.781 . S
C813 C46 0.768 . S
C827 C95 0.518 . S
C831 C535 0.656 . S
C845 C329 0.838 . S
C849 C129 0.849 . S
C863 C449 0.813 . S
C867 C169 0.817 . S
C881 C579 2.655 . S
C885 C219 2.629 . S
C899 C246 0.751 . S
C903 C486 0.727 . S
C917 C615 0.525 . S
C921 C295 0.664 . S
C935 C335 2.064 . S
C939 C529 2.010 . S
C953 C366 2.417 . S
C957 C330 2.472 . S
C971 C418 0.798 . S
C975 C378 0.817 . S
C989 C578 1.978 . S
C993 C455 2.064 . S
C1007 C498 0.828 . S
C1011 C609 0.814 . S
C1025 C446 2.070 . S
C1029 C9 1.983 . S
C1043 C490 2.805 . S
C1047 C15 2.675 . S
C1061 C489 0.790 . S
C1065 C98 0.814 . S
C1079 C99 2.588 . S
C1083 C459 2.574 . S
C1097 C375 2.415 . S
C1101 C179 2.470 . S
C1115 C369 0.806 . S
C1119 C249 0.790 . S
C1133 C539 2.651 . S
C1137 C250 2.629 . S
C1151 C166 2.064 . S
C1155 C538 2.015 . S
C1169 C210 2.625 . S
C1173 C10 2.650 . S
C1187 C415 0.759 . S
C1191 C495 0.735 . S
C1205 C86 0.493 . S
C1209 C286 0.661 . S
C1223 C338 0.822 . S
C1227 C458 0.816 . S
C1241 C138 0.850 . S
C1245 C178 0.843 . S
C1259 C370 2.625 . S
C1263 C570 2.653 . S
C1277 C255 0.736 . S
C1281 C55 0.726 . S
C1295 C606 0.478 . S
C1299 C526 0.645 . S
C1313 C326 2.067 . S
C1317 C298 2.010 . S
C1331 C339 2.470 . S
C1335 C215 2.411 . S
C1349 C409 0.787 . S
C1353 C209 0.819 . S
C1367 C126 2.062 . S
C1371 C569 1.991 . S
C1385 C49 0.812 . S
C1389 C618 0.794 . S
C1403 C499 2.808 . S
C1407 C566 2.680 . S
C1421 C450 2.574 . S
C1425 C610 2.586 . S
C1439 C419 2.624 . S
C1443 C530 2.654 . S
C1457 C575 2.673 . S
C1461 C50 2.805 . S
C1475 C139 2.576 . S
C1479 C619 2.586 . S
C1493 C299 2.651 . S
C1497 C410 2.626 . S
