# Generated by pormake.
# Topology lcy-a, (4)-cn, num edge types: 1
# Building blocks:
#     Node 0, Type 0, BuildingBlock: UXUYUI_clean_sbu_0, # of connection points: 4
#     Node 1, Type 0, BuildingBlock: UXUYUI_clean_sbu_0, # of connection points: 4
#     Node 2, Type 0, BuildingBlock: UXUYUI_clean_sbu_0, # of connection points: 4
#     Node 3, Type 0, BuildingBlock: UXUYUI_clean_sbu_0, # of connection points: 4
#     Node 4, Type 0, BuildingBlock: UXUYUI_clean_sbu_0, # of connection points: 4
#     Node 5, Type 0, BuildingBlock: UXUYUI_clean_sbu_0, # of connection points: 4
#     Node 6, Type 0, BuildingBlock: UXUYUI_clean_sbu_0, # of connection points: 4
#     Node 7, Type 0, BuildingBlock: UXUYUI_clean_sbu_0, # of connection points: 4
#     Node 8, Type 0, BuildingBlock: UXUYUI_clean_sbu_0, # of connection points: 4
#     Node 9, Type 0, BuildingBlock: UXUYUI_clean_sbu_0, # of connection points: 4
#     Node 10, Type 0, BuildingBlock: UXUYUI_clean_sbu_0, # of connection points: 4
#     Node 11, Type 0, BuildingBlock: UXUYUI_clean_sbu_0, # of connection points: 4
#     Node 12, Type 0, BuildingBlock: UXUYUI_clean_sbu_0, # of connection points: 4
#     Node 13, Type 0, BuildingBlock: UXUYUI_clean_sbu_0, # of connection points: 4
#     Node 14, Type 0, BuildingBlock: UXUYUI_clean_sbu_0, # of connection points: 4
#     Node 15, Type 0, BuildingBlock: UXUYUI_clean_sbu_0, # of connection points: 4
#     Node 16, Type 0, BuildingBlock: UXUYUI_clean_sbu_0, # of connection points: 4
#     Node 17, Type 0, BuildingBlock: UXUYUI_clean_sbu_0, # of connection points: 4
#     Node 18, Type 0, BuildingBlock: UXUYUI_clean_sbu_0, # of connection points: 4
#     Node 19, Type 0, BuildingBlock: UXUYUI_clean_sbu_0, # of connection points: 4
#     Node 20, Type 0, BuildingBlock: UXUYUI_clean_sbu_0, # of connection points: 4
#     Node 21, Type 0, BuildingBlock: UXUYUI_clean_sbu_0, # of connection points: 4
#     Node 22, Type 0, BuildingBlock: UXUYUI_clean_sbu_0, # of connection points: 4
#     Node 23, Type 0, BuildingBlock: UXUYUI_clean_sbu_0, # of connection points: 4
#     Edge 24, Type (0, 0), BuildingBlock: XIVTED_clean_linker_0, # of connection points: 2
#     Edge 25, Type (0, 0), BuildingBlock: XIVTED_clean_linker_0, # of connection points: 2
#     Edge 26, Type (0, 0), BuildingBlock: XIVTED_clean_linker_0, # of connection points: 2
#     Edge 27, Type (0, 0), BuildingBlock: XIVTED_clean_linker_0, # of connection points: 2
#     Edge 28, Type (0, 0), BuildingBlock: XIVTED_clean_linker_0, # of connection points: 2
#     Edge 29, Type (0, 0), BuildingBlock: XIVTED_clean_linker_0, # of connection points: 2
#     Edge 30, Type (0, 0), BuildingBlock: XIVTED_clean_linker_0, # of connection points: 2
#     Edge 31, Type (0, 0), BuildingBlock: XIVTED_clean_linker_0, # of connection points: 2
#     Edge 32, Type (0, 0), BuildingBlock: XIVTED_clean_linker_0, # of connection points: 2
#     Edge 33, Type (0, 0), BuildingBlock: XIVTED_clean_linker_0, # of connection points: 2
#     Edge 34, Type (0, 0), BuildingBlock: XIVTED_clean_linker_0, # of connection points: 2
#     Edge 35, Type (0, 0), BuildingBlock: XIVTED_clean_linker_0, # of connection points: 2
#     Edge 36, Type (0, 0), BuildingBlock: XIVTED_clean_linker_0, # of connection points: 2
#     Edge 37, Type (0, 0), BuildingBlock: XIVTED_clean_linker_0, # of connection points: 2
#     Edge 38, Type (0, 0), BuildingBlock: XIVTED_clean_linker_0, # of connection points: 2
#     Edge 39, Type (0, 0), BuildingBlock: XIVTED_clean_linker_0, # of connection points: 2
#     Edge 40, Type (0, 0), BuildingBlock: XIVTED_clean_linker_0, # of connection points: 2
#     Edge 41, Type (0, 0), BuildingBlock: XIVTED_clean_linker_0, # of connection points: 2
#     Edge 42, Type (0, 0), BuildingBlock: XIVTED_clean_linker_0, # of connection points: 2
#     Edge 43, Type (0, 0), BuildingBlock: XIVTED_clean_linker_0, # of connection points: 2
#     Edge 44, Type (0, 0), BuildingBlock: XIVTED_clean_linker_0, # of connection points: 2
#     Edge 45, Type (0, 0), BuildingBlock: XIVTED_clean_linker_0, # of connection points: 2
#     Edge 46, Type (0, 0), BuildingBlock: XIVTED_clean_linker_0, # of connection points: 2
#     Edge 47, Type (0, 0), BuildingBlock: XIVTED_clean_linker_0, # of connection points: 2
#     Edge 48, Type (0, 0), BuildingBlock: XIVTED_clean_linker_0, # of connection points: 2
#     Edge 49, Type (0, 0), BuildingBlock: XIVTED_clean_linker_0, # of connection points: 2
#     Edge 50, Type (0, 0), BuildingBlock: XIVTED_clean_linker_0, # of connection points: 2
#     Edge 51, Type (0, 0), BuildingBlock: XIVTED_clean_linker_0, # of connection points: 2
#     Edge 52, Type (0, 0), BuildingBlock: XIVTED_clean_linker_0, # of connection points: 2
#     Edge 53, Type (0, 0), BuildingBlock: XIVTED_clean_linker_0, # of connection points: 2
#     Edge 54, Type (0, 0), BuildingBlock: XIVTED_clean_linker_0, # of connection points: 2
#     Edge 55, Type (0, 0), BuildingBlock: XIVTED_clean_linker_0, # of connection points: 2
#     Edge 56, Type (0, 0), BuildingBlock: XIVTED_clean_linker_0, # of connection points: 2
#     Edge 57, Type (0, 0), BuildingBlock: XIVTED_clean_linker_0, # of connection points: 2
#     Edge 58, Type (0, 0), BuildingBlock: XIVTED_clean_linker_0, # of connection points: 2
#     Edge 59, Type (0, 0), BuildingBlock: XIVTED_clean_linker_0, # of connection points: 2
#     Edge 60, Type (0, 0), BuildingBlock: XIVTED_clean_linker_0, # of connection points: 2
#     Edge 61, Type (0, 0), BuildingBlock: XIVTED_clean_linker_0, # of connection points: 2
#     Edge 62, Type (0, 0), BuildingBlock: XIVTED_clean_linker_0, # of connection points: 2
#     Edge 63, Type (0, 0), BuildingBlock: XIVTED_clean_linker_0, # of connection points: 2
#     Edge 64, Type (0, 0), BuildingBlock: XIVTED_clean_linker_0, # of connection points: 2
#     Edge 65, Type (0, 0), BuildingBlock: XIVTED_clean_linker_0, # of connection points: 2
#     Edge 66, Type (0, 0), BuildingBlock: XIVTED_clean_linker_0, # of connection points: 2
#     Edge 67, Type (0, 0), BuildingBlock: XIVTED_clean_linker_0, # of connection points: 2
#     Edge 68, Type (0, 0), BuildingBlock: XIVTED_clean_linker_0, # of connection points: 2
#     Edge 69, Type (0, 0), BuildingBlock: XIVTED_clean_linker_0, # of connection points: 2
#     Edge 70, Type (0, 0), BuildingBlock: XIVTED_clean_linker_0, # of connection points: 2
#     Edge 71, Type (0, 0), BuildingBlock: XIVTED_clean_linker_0, # of connection points: 2
# Relax obj value: 0.522
# Max RMSD: 0.263
# Mean RMSD: 0.261
data_MOF--net-lcy-a--node1-UXUYUI_clean_sbu_0--edge1-XIVTED_clean_linker_0
_symmetry_space_group_name_H-M    P1
_symmetry_Int_Tables_number       1
_symmetry_cell_setting            triclinic
loop_
_symmetry_equiv_pos_as_xyz
'x, y, z'
_cell_length_a     82.419263
_cell_length_b     80.70874
_cell_length_c     80.71407
_cell_angle_alpha  90.003353
_cell_angle_beta   90.012887
_cell_angle_gamma 89.984806
loop_
_atom_site_label
_atom_site_type_symbol
_atom_site_fract_x
_atom_site_fract_y
_atom_site_fract_z
_atom_type_partial_charge
Li0 Li 0.19684 0.31291 0.40427 0.0
Li1 Li 0.19945 0.2863 0.38669 0.0
Li2 Li 0.18412 0.31084 0.37719 0.0
Li3 Li 0.17384 0.29498 0.39906 0.0
C4 C 0.21471 0.31892 0.37083 0.0
N5 N 0.22727 0.33888 0.34617 0.0
C6 C 0.22058 0.31188 0.35619 0.0
C7 C 0.21539 0.33608 0.37302 0.0
C8 C 0.22685 0.32219 0.34385 0.0
C9 C 0.22175 0.34597 0.36038 0.0
C10 C 0.18968 0.27943 0.4234 0.0
C11 C 0.18187 0.2527 0.4341 0.0
N12 N 0.17873 0.25974 0.44907 0.0
C13 C 0.18652 0.28638 0.43892 0.0
C14 C 0.18745 0.26243 0.42098 0.0
C15 C 0.18094 0.27623 0.45173 0.0
C16 C 0.20112 0.33252 0.43312 0.0
N17 N 0.20848 0.32594 0.41957 0.0
C18 C 0.23424 0.33611 0.42838 0.0
C19 C 0.22466 0.32764 0.41696 0.0
C20 C 0.22715 0.34268 0.4428 0.0
C21 C 0.21029 0.34095 0.44501 0.0
H22 H 0.18821 0.33086 0.43488 0.0
H23 H 0.23016 0.32221 0.40608 0.0
C24 C 0.21541 0.26316 0.36571 0.0
N25 N 0.21379 0.26881 0.38148 0.0
C26 C 0.22659 0.25064 0.36212 0.0
C27 C 0.23392 0.24987 0.39112 0.0
C28 C 0.2227 0.26243 0.39412 0.0
C29 C 0.23615 0.24395 0.37491 0.0
H30 H 0.20817 0.26855 0.3559 0.0
H31 H 0.2212 0.26724 0.40652 0.0
C32 C 0.15984 0.3267 0.395 0.0
N33 N 0.13006 0.34104 0.3886 0.0
C34 C 0.148 0.31792 0.38629 0.0
C35 C 0.15653 0.34276 0.40052 0.0
C36 C 0.13302 0.32537 0.38316 0.0
C37 C 0.14141 0.34981 0.39714 0.0
C38 C 0.16918 0.27538 0.36849 0.0
C39 C 0.15641 0.27971 0.35794 0.0
C40 C 0.17317 0.25867 0.37064 0.0
C41 C 0.14758 0.26722 0.35003 0.0
C42 C 0.16405 0.24656 0.36251 0.0
N43 N 0.15154 0.25105 0.35247 0.0
C44 C 0.18247 0.31449 0.34309 0.0
C45 C 0.17827 0.33958 0.35776 0.0
C46 C 0.18415 0.32309 0.32824 0.0
N47 N 0.18022 0.32287 0.35749 0.0
C48 C 0.17978 0.34871 0.34315 0.0
C49 C 0.18351 0.3405 0.32825 0.0
H50 H 0.18432 0.30122 0.34336 0.0
H51 H 0.1768 0.34594 0.36945 0.0
C52 C 0.15024 0.29493 0.42394 0.0
N53 N 0.15562 0.28623 0.4106 0.0
C54 C 0.14048 0.28726 0.43579 0.0
C55 C 0.14094 0.26231 0.41923 0.0
C56 C 0.15065 0.27045 0.40773 0.0
C57 C 0.13633 0.27048 0.43385 0.0
H58 H 0.15464 0.30737 0.42607 0.0
H59 H 0.15537 0.26362 0.39737 0.0
O60 O 0.20798 0.3091 0.3828 0.0
O61 O 0.1947 0.28925 0.41056 0.0
O62 O 0.17466 0.31974 0.39814 0.0
O63 O 0.17824 0.28745 0.37599 0.0
H64 H 0.22009 0.29862 0.35429 0.0
H65 H 0.21078 0.34172 0.38425 0.0
H66 H 0.2313 0.31694 0.33239 0.0
H67 H 0.2222 0.35928 0.36183 0.0
H68 H 0.17995 0.23955 0.43236 0.0
H69 H 0.18815 0.29951 0.44099 0.0
H70 H 0.18977 0.25686 0.40902 0.0
H71 H 0.17829 0.28147 0.46376 0.0
H72 H 0.24709 0.33742 0.42594 0.0
H73 H 0.20431 0.34565 0.45598 0.0
H74 H 0.22805 0.24662 0.34941 0.0
H75 H 0.24085 0.24494 0.4014 0.0
H76 H 0.15031 0.30544 0.38211 0.0
H77 H 0.1656 0.34972 0.4073 0.0
H78 H 0.12374 0.3187 0.37644 0.0
H79 H 0.13869 0.36224 0.4013 0.0
H80 H 0.15341 0.29258 0.35575 0.0
H81 H 0.18305 0.25507 0.37868 0.0
H82 H 0.13763 0.2704 0.34188 0.0
H83 H 0.16692 0.23358 0.36419 0.0
H84 H 0.18728 0.31622 0.31717 0.0
H85 H 0.17901 0.36209 0.34369 0.0
H86 H 0.13702 0.29408 0.44679 0.0
H87 H 0.1383 0.24931 0.4173 0.0
Li88 Li 0.93615 0.95013 0.65013 0.0
Li89 Li 0.95123 0.92413 0.65188 0.0
Li90 Li 0.96165 0.9478 0.63482 0.0
Li91 Li 0.93852 0.9312 0.62553 0.0
C92 C 0.95938 0.95533 0.67347 0.0
N93 N 0.96137 0.97307 0.70272 0.0
C94 C 0.95693 0.94742 0.68867 0.0
C95 C 0.96309 0.97223 0.67319 0.0
C96 C 0.95793 0.95661 0.70331 0.0
C97 C 0.96396 0.98099 0.68809 0.0
C98 C 0.91914 0.91354 0.65247 0.0
C99 C 0.9108 0.88516 0.64866 0.0
N100 N 0.90183 0.8861 0.66278 0.0
C101 C 0.90969 0.9143 0.66683 0.0
C102 C 0.91957 0.89892 0.64321 0.0
C103 C 0.90109 0.90027 0.67188 0.0
C104 C 0.91692 0.97885 0.65451 0.0
N105 N 0.92267 0.96502 0.66211 0.0
C106 C 0.91085 0.97334 0.68782 0.0
C107 C 0.91949 0.9619 0.67834 0.0
C108 C 0.90521 0.98801 0.68044 0.0
C109 C 0.90812 0.99059 0.66349 0.0
H110 H 0.9193 0.98089 0.64152 0.0
H111 H 0.92386 0.95061 0.68398 0.0
C112 C 0.97563 0.90633 0.66513 0.0
N113 N 0.95933 0.90808 0.6667 0.0
C114 C 0.98466 0.89942 0.67791 0.0
C115 C 0.95982 0.895 0.69324 0.0
C116 C 0.9512 0.90204 0.68007 0.0
C117 C 0.97683 0.89445 0.69251 0.0
H118 H 0.98176 0.91158 0.65451 0.0
H119 H 0.93832 0.90408 0.68129 0.0
C120 C 0.9437 0.96974 0.61749 0.0
N121 N 0.95115 0.99764 0.59912 0.0
C122 C 0.94161 0.96972 0.60031 0.0
C123 C 0.94932 0.98407 0.62534 0.0
C124 C 0.9455 0.98391 0.59123 0.0
C125 C 0.9531 0.99801 0.61585 0.0
C126 C 0.96578 0.91091 0.61973 0.0
C127 C 0.97544 0.91364 0.60577 0.0
C128 C 0.96131 0.89476 0.62397 0.0
C129 C 0.98008 0.90017 0.59599 0.0
C130 C 0.96621 0.88161 0.61389 0.0
N131 N 0.9754 0.88457 0.60021 0.0
C132 C 0.9915 0.96338 0.64029 0.0
C133 C 0.98333 0.96323 0.61214 0.0
C134 C 0.00498 0.97308 0.63649 0.0
N135 N 0.98076 0.95913 0.62825 0.0
C136 C 0.99664 0.973 0.60777 0.0
C137 C 0.00746 0.97839 0.62012 0.0
H138 H 0.98943 0.95951 0.65293 0.0
H139 H 0.9748 0.95933 0.60275 0.0
C140 C 0.91136 0.92191 0.6065 0.0
N141 N 0.92768 0.92428 0.60606 0.0
C142 C 0.90244 0.92165 0.59179 0.0
C143 C 0.9274 0.92527 0.57652 0.0
C144 C 0.93584 0.92527 0.59148 0.0
C145 C 0.91037 0.9243 0.57659 0.0
H146 H 0.90513 0.92151 0.61827 0.0
H147 H 0.94869 0.92784 0.59149 0.0
O148 O 0.95833 0.94653 0.65898 0.0
O149 O 0.92758 0.92719 0.64733 0.0
O150 O 0.94019 0.95586 0.62658 0.0
O151 O 0.96124 0.92396 0.62951 0.0
H152 H 0.95406 0.9344 0.6892 0.0
H153 H 0.96539 0.97852 0.66163 0.0
H154 H 0.95592 0.95065 0.71514 0.0
H155 H 0.96676 0.99409 0.68802 0.0
H156 H 0.91106 0.87375 0.64164 0.0
H157 H 0.90908 0.92558 0.67404 0.0
H158 H 0.92646 0.89826 0.63184 0.0
H159 H 0.89382 0.90064 0.68303 0.0
H160 H 0.90857 0.97072 0.70077 0.0
H161 H 0.904 0.00174 0.65732 0.0
H162 H 0.99776 0.89899 0.67685 0.0
H163 H 0.95341 0.89138 0.70438 0.0
H164 H 0.93703 0.95889 0.59401 0.0
H165 H 0.95073 0.98442 0.63862 0.0
H166 H 0.94402 0.98402 0.57791 0.0
H167 H 0.95756 0.00913 0.62178 0.0
H168 H 0.97921 0.92605 0.60247 0.0
H169 H 0.95428 0.89237 0.63503 0.0
H170 H 0.98744 0.90211 0.58506 0.0
H171 H 0.96278 0.86905 0.61699 0.0
H172 H 0.01322 0.97663 0.64633 0.0
H173 H -0.00198 0.97686 0.595 0.0
H174 H 0.88935 0.92061 0.59244 0.0
H175 H 0.93407 0.92765 0.56521 0.0
Li176 Li 0.29328 0.7059 0.89106 0.0
Li177 Li 0.29341 0.6774 0.90366 0.0
Li178 Li 0.3165 0.69598 0.90543 0.0
Li179 Li 0.31086 0.6844 0.87938 0.0
C180 C 0.28437 0.70967 0.92221 0.0
N181 N 0.26292 0.73156 0.93677 0.0
C182 C 0.26844 0.70477 0.92553 0.0
C183 C 0.28944 0.72565 0.92642 0.0
C184 C 0.25777 0.71603 0.93287 0.0
C185 C 0.2784 0.73655 0.93374 0.0
C186 C 0.28087 0.67842 0.86681 0.0
C187 C 0.27574 0.65522 0.84872 0.0
N188 N 0.27117 0.66589 0.83654 0.0
C189 C 0.27604 0.68916 0.85416 0.0
C190 C 0.28065 0.66131 0.86414 0.0
C191 C 0.27118 0.68257 0.83893 0.0
C192 C 0.28495 0.73926 0.88314 0.0
N193 N 0.27918 0.72385 0.88652 0.0
C194 C 0.25187 0.73337 0.88439 0.0
C195 C 0.26302 0.72067 0.88706 0.0
C196 C 0.25742 0.74949 0.88106 0.0
C197 C 0.27422 0.75236 0.88038 0.0
H198 H 0.29786 0.7414 0.8826 0.0
H199 H 0.25882 0.70824 0.88962 0.0
C200 C 0.28468 0.65947 0.93143 0.0
N201 N 0.28036 0.66238 0.91546 0.0
C202 C 0.27437 0.65063 0.94188 0.0
C203 C 0.25545 0.64777 0.91914 0.0
C204 C 0.26616 0.65666 0.9091 0.0
C205 C 0.2594 0.64491 0.93584 0.0
H206 H 0.29578 0.66471 0.93625 0.0
H207 H 0.26286 0.65957 0.89647 0.0
C208 C 0.32937 0.71759 0.88329 0.0
N209 N 0.35656 0.73758 0.88226 0.0
C210 C 0.34252 0.7133 0.87324 0.0
C211 C 0.32998 0.73211 0.89272 0.0
C212 C 0.35617 0.72356 0.87291 0.0
C213 C 0.34386 0.74203 0.89206 0.0
C214 C 0.33186 0.66799 0.905 0.0
C215 C 0.34533 0.6708 0.89487 0.0
C216 C 0.33407 0.66185 0.92103 0.0
C217 C 0.36085 0.66751 0.901 0.0
C218 C 0.34979 0.65873 0.92671 0.0
N219 N 0.36274 0.66161 0.91667 0.0
C220 C 0.3258 0.70227 0.93738 0.0
C221 C 0.34741 0.70758 0.9188 0.0
C222 C 0.33453 0.70904 0.95046 0.0
N223 N 0.33199 0.70239 0.92179 0.0
C224 C 0.35654 0.71472 0.93152 0.0
C225 C 0.34979 0.7161 0.94747 0.0
H226 H 0.3138 0.69739 0.93962 0.0
H227 H 0.35241 0.70685 0.90647 0.0
C228 C 0.31512 0.68617 0.84547 0.0
N229 N 0.31745 0.676 0.85864 0.0
C230 C 0.3143 0.67961 0.82953 0.0
C231 C 0.32029 0.65256 0.8409 0.0
C232 C 0.32073 0.65963 0.85669 0.0
C233 C 0.31605 0.66242 0.82717 0.0
H234 H 0.31225 0.69909 0.84752 0.0
H235 H 0.32234 0.65184 0.86747 0.0
O236 O 0.2949 0.69898 0.91466 0.0
O237 O 0.28611 0.68464 0.88164 0.0
O238 O 0.3158 0.70784 0.88351 0.0
O239 O 0.31663 0.67159 0.89933 0.0
H240 H 0.2643 0.69247 0.92228 0.0
H241 H 0.30175 0.7296 0.92398 0.0
H242 H 0.24537 0.71245 0.93542 0.0
H243 H 0.28213 0.74898 0.93699 0.0
H244 H 0.27566 0.64202 0.84641 0.0
H245 H 0.27622 0.70244 0.85602 0.0
H246 H 0.28448 0.65285 0.87378 0.0
H247 H 0.26752 0.69073 0.82898 0.0
H248 H 0.23904 0.7305 0.88467 0.0
H249 H 0.27901 0.7646 0.8779 0.0
H250 H 0.27776 0.64901 0.95474 0.0
H251 H 0.24405 0.64352 0.91399 0.0
H252 H 0.34219 0.70218 0.86575 0.0
H253 H 0.31997 0.73555 0.90065 0.0
H254 H 0.36646 0.72037 0.86523 0.0
H255 H 0.34455 0.75323 0.89939 0.0
H256 H 0.34382 0.6756 0.88246 0.0
H257 H 0.32378 0.65965 0.92904 0.0
H258 H 0.37139 0.6697 0.89333 0.0
H259 H 0.35169 0.65406 0.93912 0.0
H260 H 0.32911 0.70926 0.96268 0.0
H261 H 0.36834 0.71987 0.92867 0.0
H262 H 0.3108 0.68775 0.8195 0.0
H263 H 0.32209 0.63933 0.83966 0.0
Li264 Li 0.56111 0.04523 0.14708 0.0
Li265 Li 0.5447 0.07004 0.14597 0.0
Li266 Li 0.53745 0.04519 0.13003 0.0
Li267 Li 0.56055 0.06152 0.1215 0.0
C268 C 0.53803 0.04044 0.16914 0.0
N269 N 0.53822 0.02484 0.19962 0.0
C270 C 0.54032 0.04965 0.18362 0.0
C271 C 0.53563 0.02333 0.17018 0.0
C272 C 0.54042 0.04152 0.19891 0.0
C273 C 0.53584 0.01566 0.1857 0.0
C274 C 0.57525 0.08411 0.14285 0.0
C275 C 0.57413 0.1122 0.13271 0.0
N276 N 0.58838 0.11552 0.14052 0.0
C277 C 0.58988 0.0878 0.15078 0.0
C278 C 0.56728 0.0964 0.13374 0.0
C279 C 0.59633 0.10375 0.14946 0.0
C280 C 0.57776 0.01652 0.1582 0.0
N281 N 0.57411 0.03254 0.16176 0.0
C282 C 0.58695 0.03034 0.1882 0.0
C283 C 0.5788 0.03966 0.17624 0.0
C284 C 0.59044 0.01358 0.1851 0.0
C285 C 0.58595 0.00675 0.16976 0.0
H286 H 0.57416 0.01124 0.14649 0.0
H287 H 0.57578 0.05247 0.17869 0.0
C288 C 0.51858 0.08602 0.1582 0.0
N289 N 0.535 0.08658 0.15892 0.0
C290 C 0.50931 0.09484 0.16955 0.0
C291 C 0.5341 0.10498 0.18204 0.0
C292 C 0.54294 0.096 0.17029 0.0
C293 C 0.51705 0.10412 0.18196 0.0
H294 H 0.51271 0.0778 0.14949 0.0
H295 H 0.55604 0.09573 0.17091 0.0
C296 C 0.55667 0.02343 0.11453 0.0
N297 N 0.55066 0.99582 0.0952 0.0
C298 C 0.56014 0.02369 0.09757 0.0
C299 C 0.55026 0.00906 0.12166 0.0
C300 C 0.55699 0.00962 0.08801 0.0
C301 C 0.54727 0.99525 0.11167 0.0
C302 C 0.5277 0.07016 0.10891 0.0
C303 C 0.53168 0.0622 0.09408 0.0
C304 C 0.51349 0.07957 0.10984 0.0
C305 C 0.52134 0.0637 0.08045 0.0
C306 C 0.50345 0.08077 0.09594 0.0
N307 N 0.50755 0.07286 0.08166 0.0
C308 C 0.50738 0.03035 0.13538 0.0
C309 C 0.51677 0.02647 0.10792 0.0
C310 C 0.49372 0.02067 0.13221 0.0
N311 N 0.51876 0.03275 0.12343 0.0
C312 C 0.50324 0.01677 0.10417 0.0
C313 C 0.49165 0.01354 0.11651 0.0
H314 H 0.50901 0.03578 0.1475 0.0
H315 H 0.52584 0.02859 0.09852 0.0
C316 C 0.58711 0.05942 0.10097 0.0
N317 N 0.57329 0.06827 0.10323 0.0
C318 C 0.59538 0.0603 0.08595 0.0
C319 C 0.57586 0.08058 0.07648 0.0
C320 C 0.56801 0.07939 0.09178 0.0
C321 C 0.5893 0.07037 0.07318 0.0
H322 H 0.59095 0.05068 0.11034 0.0
H323 H 0.5571 0.08647 0.09405 0.0
O324 O 0.53826 0.04811 0.15402 0.0
O325 O 0.56886 0.06851 0.14411 0.0
O326 O 0.5597 0.03708 0.12412 0.0
O327 O 0.53764 0.06881 0.12242 0.0
H328 H 0.54224 0.06288 0.18308 0.0
H329 H 0.53368 0.01604 0.15913 0.0
H330 H 0.5423 0.04848 0.2102 0.0
H331 H 0.5341 0.00241 0.18667 0.0
H332 H 0.56809 0.12182 0.12571 0.0
H333 H 0.59618 0.07842 0.15789 0.0
H334 H 0.55593 0.09384 0.12756 0.0
H335 H 0.60764 0.10678 0.15553 0.0
H336 H 0.59007 0.03609 0.19989 0.0
H337 H 0.58871 0.994 0.1667 0.0
H338 H 0.49624 0.09347 0.16928 0.0
H339 H 0.54049 0.11197 0.19145 0.0
H340 H 0.56512 0.03463 0.09179 0.0
H341 H 0.54744 0.00862 0.13471 0.0
H342 H 0.55956 0.00969 0.07487 0.0
H343 H 0.54222 0.9841 0.11702 0.0
H344 H 0.54258 0.05484 0.09315 0.0
H345 H 0.51026 0.08597 0.12114 0.0
H346 H 0.52428 0.05754 0.06893 0.0
H347 H 0.49241 0.088 0.0965 0.0
H348 H 0.48494 0.01866 0.142 0.0
H349 H 0.50219 0.01136 0.09194 0.0
H350 H 0.60557 0.05208 0.08393 0.0
H351 H 0.57093 0.08867 0.06703 0.0
Li352 Li 0.68277 0.18173 0.61788 0.0
Li353 Li 0.67557 0.1954 0.59306 0.0
Li354 Li 0.69827 0.17534 0.59316 0.0
Li355 Li 0.70072 0.20317 0.60698 0.0
C356 C 0.6589 0.16611 0.59867 0.0
N357 N 0.62684 0.15648 0.60142 0.0
C358 C 0.64817 0.1752 0.60852 0.0
C359 C 0.65333 0.15212 0.59022 0.0
C360 C 0.63201 0.17015 0.60975 0.0
C361 C 0.63708 0.14744 0.59177 0.0
C362 C 0.66869 0.21918 0.6169 0.0
C363 C 0.66077 0.24657 0.60809 0.0
N364 N 0.64859 0.24647 0.61946 0.0
C365 C 0.65615 0.21938 0.62856 0.0
C366 C 0.67107 0.2329 0.60664 0.0
C367 C 0.64611 0.23328 0.62965 0.0
C368 C 0.67809 0.18249 0.65183 0.0
N369 N 0.676 0.17263 0.63838 0.0
C370 C 0.67119 0.14912 0.65562 0.0
C371 C 0.67203 0.15637 0.63993 0.0
C372 C 0.6748 0.15867 0.66976 0.0
C373 C 0.67763 0.17574 0.6677 0.0
H374 H 0.68149 0.19533 0.65015 0.0
H375 H 0.67061 0.14878 0.62898 0.0
C376 C 0.66388 0.20362 0.56232 0.0
N377 N 0.65957 0.20401 0.57856 0.0
C378 C 0.65523 0.21281 0.5507 0.0
C379 C 0.63702 0.22153 0.57252 0.0
C380 C 0.6459 0.21193 0.58369 0.0
C381 C 0.64209 0.22252 0.55594 0.0
H382 H 0.67468 0.197 0.55856 0.0
H383 H 0.64243 0.21166 0.59659 0.0
C384 C 0.71223 0.17484 0.62986 0.0
N385 N 0.7213 0.16247 0.6604 0.0
C386 C 0.71731 0.18561 0.64238 0.0
C387 C 0.71192 0.15777 0.63278 0.0
C388 C 0.72183 0.1791 0.65775 0.0
C389 C 0.71649 0.15177 0.64834 0.0
C390 C 0.70728 0.20712 0.57373 0.0
C391 C 0.72266 0.20121 0.56943 0.0
C392 C 0.70226 0.22267 0.56809 0.0
C393 C 0.73288 0.2111 0.5598 0.0
C394 C 0.71283 0.23218 0.55847 0.0
N395 N 0.7278 0.22626 0.55457 0.0
C396 C 0.70566 0.15873 0.56388 0.0
C397 C 0.72393 0.15345 0.58597 0.0
C398 C 0.71564 0.15019 0.55283 0.0
N399 N 0.7101 0.16038 0.58 0.0
C400 C 0.73424 0.14475 0.57538 0.0
C401 C 0.73034 0.14338 0.55847 0.0
H402 H 0.69475 0.16474 0.55947 0.0
H403 H 0.72729 0.15528 0.59879 0.0
C404 C 0.71174 0.23459 0.61912 0.0
N405 N 0.71603 0.2202 0.61153 0.0
C406 C 0.72327 0.24699 0.62176 0.0
C407 C 0.74352 0.22927 0.6093 0.0
C408 C 0.73162 0.21723 0.60694 0.0
C409 C 0.73939 0.24446 0.6167 0.0
H410 H 0.69942 0.23646 0.62322 0.0
H411 H 0.73481 0.20544 0.6015 0.0
O412 O 0.67477 0.17082 0.5972 0.0
O413 O 0.6785 0.20556 0.61555 0.0
O414 O 0.70728 0.18101 0.61491 0.0
O415 O 0.69712 0.19764 0.58321 0.0
H416 H 0.65227 0.18602 0.61517 0.0
H417 H 0.66149 0.14495 0.58253 0.0
H418 H 0.62359 0.17708 0.61733 0.0
H419 H 0.6326 0.13664 0.58529 0.0
H420 H 0.66243 0.25724 0.60016 0.0
H421 H 0.65416 0.20887 0.63665 0.0
H422 H 0.68075 0.23297 0.59763 0.0
H423 H 0.63632 0.23359 0.63858 0.0
H424 H 0.66865 0.136 0.65658 0.0
H425 H 0.68077 0.18362 0.67805 0.0
H426 H 0.65953 0.2133 0.53803 0.0
H427 H 0.62679 0.22871 0.57693 0.0
H428 H 0.71756 0.19886 0.64033 0.0
H429 H 0.70791 0.14929 0.62323 0.0
H430 H 0.72568 0.18729 0.66761 0.0
H431 H 0.71613 0.13861 0.65085 0.0
H432 H 0.72678 0.18922 0.57367 0.0
H433 H 0.6903 0.22733 0.57101 0.0
H434 H 0.74486 0.20673 0.5565 0.0
H435 H 0.70911 0.24426 0.55406 0.0
H436 H 0.71227 0.14966 0.53988 0.0
H437 H 0.74534 0.13952 0.5803 0.0
H438 H 0.71957 0.25847 0.62758 0.0
H439 H 0.75588 0.22659 0.60564 0.0
Li440 Li 0.0363 0.4474 0.85896 0.0
Li441 Li 0.06058 0.43289 0.86898 0.0
Li442 Li 0.06082 0.44886 0.84219 0.0
Li443 Li 0.04689 0.42228 0.84434 0.0
C444 C 0.05396 0.47089 0.87423 0.0
N445 N 0.04598 0.49852 0.89277 0.0
C446 C 0.05492 0.4704 0.89151 0.0
C447 C 0.04918 0.48553 0.86638 0.0
C448 C 0.05079 0.48447 0.90067 0.0
C449 C 0.04512 0.49934 0.87596 0.0
C450 C 0.03458 0.41155 0.87775 0.0
C451 C 0.03763 0.38299 0.88593 0.0
N452 N 0.02741 0.38566 0.89889 0.0
C453 C 0.02394 0.41397 0.89102 0.0
C454 C 0.04135 0.39591 0.87507 0.0
C455 C 0.02054 0.40074 0.90162 0.0
C456 C 0.00695 0.46427 0.85331 0.0
N457 N 0.0173 0.45913 0.86536 0.0
C458 C 0.00165 0.473 0.88605 0.0
C459 C 0.01462 0.46281 0.88157 0.0
C460 C 0.99129 0.4793 0.87373 0.0
C461 C 0.99383 0.47444 0.85722 0.0
H462 H 0.00904 0.46075 0.84059 0.0
H463 H 0.02284 0.45825 0.89095 0.0
C464 C 0.08929 0.43189 0.8867 0.0
N465 N 0.07316 0.42878 0.88816 0.0
C466 C 0.09877 0.43412 0.90083 0.0
C467 C 0.07512 0.42857 0.91766 0.0
C468 C 0.0661 0.42641 0.90319 0.0
C469 C 0.09148 0.43334 0.91655 0.0
H470 H 0.09449 0.43395 0.87457 0.0
H471 H 0.05318 0.42449 0.90406 0.0
C472 C 0.03623 0.45109 0.82004 0.0
N473 N 0.03217 0.46682 0.78989 0.0
C474 C 0.03513 0.44183 0.80545 0.0
C475 C 0.03501 0.46835 0.8193 0.0
C476 C 0.03313 0.45001 0.79033 0.0
C477 C 0.03304 0.47608 0.80394 0.0
C478 C 0.08013 0.41377 0.84315 0.0
C479 C 0.08819 0.41357 0.82792 0.0
C480 C 0.08251 0.40081 0.85437 0.0
C481 C 0.09816 0.40013 0.82397 0.0
C482 C 0.09259 0.38761 0.84997 0.0
N483 N 0.10012 0.38753 0.83498 0.0
C484 C 0.08014 0.47657 0.83437 0.0
C485 C 0.07455 0.45884 0.81169 0.0
C486 C 0.08825 0.48764 0.82401 0.0
N487 N 0.07325 0.46267 0.82802 0.0
C488 C 0.08232 0.46968 0.80082 0.0
C489 C 0.08917 0.48444 0.8069 0.0
H490 H 0.07921 0.47914 0.84748 0.0
H491 H 0.06919 0.44755 0.80702 0.0
C492 C 0.02425 0.39902 0.83541 0.0
N493 N 0.03956 0.40404 0.83181 0.0
C494 C 0.01564 0.38933 0.82419 0.0
C495 C 0.03906 0.38937 0.80614 0.0
C496 C 0.04728 0.399 0.8178 0.0
C497 C 0.02279 0.38503 0.80899 0.0
H498 H 0.01824 0.40369 0.84636 0.0
H499 H 0.0592 0.4037 0.81491 0.0
O500 O 0.05777 0.45715 0.86506 0.0
O501 O 0.03797 0.42439 0.86724 0.0
O502 O 0.03839 0.44329 0.83496 0.0
O503 O 0.07048 0.42693 0.84727 0.0
H504 H 0.05868 0.45926 0.89783 0.0
H505 H 0.04863 0.48627 0.85304 0.0
H506 H 0.05138 0.48421 0.91405 0.0
H507 H 0.04131 0.51071 0.87003 0.0
H508 H 0.04282 0.37083 0.88402 0.0
H509 H 0.01848 0.42597 0.89317 0.0
H510 H 0.04922 0.39371 0.8646 0.0
H511 H 0.01242 0.40245 0.91202 0.0
H512 H 0.00019 0.47648 0.89892 0.0
H513 H 0.98593 0.47871 0.84738 0.0
H514 H 0.11139 0.43762 0.89946 0.0
H515 H 0.06895 0.42809 0.92949 0.0
H516 H 0.03582 0.42848 0.80574 0.0
H517 H 0.0356 0.4757 0.83044 0.0
H518 H 0.03235 0.44298 0.77894 0.0
H519 H 0.03219 0.48943 0.8032 0.0
H520 H 0.08666 0.42362 0.81919 0.0
H521 H 0.07678 0.40102 0.86642 0.0
H522 H 0.10436 0.39974 0.81217 0.0
H523 H 0.09448 0.37746 0.85851 0.0
H524 H 0.09371 0.4986 0.82937 0.0
H525 H 0.08255 0.46668 0.78775 0.0
H526 H 0.00304 0.38653 0.82678 0.0
H527 H 0.04499 0.38628 0.79457 0.0
Li528 Li 0.81911 0.79676 0.09463 0.0
Li529 Li 0.80846 0.81237 0.11658 0.0
Li530 Li 0.7938 0.78754 0.10719 0.0
Li531 Li 0.79557 0.81414 0.08968 0.0
C532 C 0.82387 0.77642 0.12455 0.0
N533 N 0.84124 0.75081 0.13879 0.0
C534 C 0.83646 0.77984 0.13565 0.0
C535 C 0.81998 0.75997 0.12087 0.0
C536 C 0.84513 0.76672 0.14266 0.0
C537 C 0.82894 0.7472 0.12814 0.0
C538 C 0.83264 0.82823 0.09882 0.0
C539 C 0.85155 0.85092 0.09654 0.0
N540 N 0.8626 0.84211 0.10544 0.0
C541 C 0.84418 0.8194 0.10792 0.0
C542 C 0.83634 0.84411 0.09305 0.0
C543 C 0.85926 0.82662 0.11114 0.0
C544 C 0.83971 0.79559 0.06757 0.0
N545 N 0.83727 0.78843 0.08261 0.0
C546 C 0.85358 0.76527 0.07501 0.0
C547 C 0.84475 0.77404 0.08682 0.0
C548 C 0.85456 0.77134 0.05874 0.0
C549 C 0.84832 0.78716 0.0553 0.0
H550 H 0.83355 0.80703 0.06455 0.0
H551 H 0.84292 0.76865 0.09884 0.0
C552 C 0.8111 0.8163 0.15075 0.0
N553 N 0.81223 0.82462 0.13618 0.0
C554 C 0.80985 0.82498 0.16562 0.0
C555 C 0.81209 0.85061 0.15025 0.0
C556 C 0.81327 0.84141 0.13566 0.0
C557 C 0.80972 0.84239 0.16542 0.0
H558 H 0.80995 0.80295 0.1507 0.0
H559 H 0.81389 0.84769 0.12384 0.0
C560 C 0.80262 0.78168 0.06969 0.0
N561 N 0.81182 0.76371 0.04211 0.0
C562 C 0.80313 0.78926 0.05413 0.0
C563 C 0.80661 0.76491 0.07119 0.0
C564 C 0.80784 0.77997 0.04034 0.0
C565 C 0.8113 0.75606 0.05711 0.0
C566 C 0.77778 0.81992 0.12299 0.0
C567 C 0.77285 0.81312 0.13809 0.0
C568 C 0.77606 0.83692 0.12021 0.0
C569 C 0.76648 0.82353 0.1503 0.0
C570 C 0.76962 0.8469 0.13273 0.0
N571 N 0.76503 0.84006 0.1474 0.0
C572 C 0.77821 0.76422 0.12811 0.0
C573 C 0.77156 0.76278 0.09956 0.0
C574 C 0.76735 0.75142 0.13167 0.0
N575 N 0.77996 0.76967 0.11229 0.0
C576 C 0.76065 0.74994 0.10252 0.0
C577 C 0.75824 0.74425 0.11878 0.0
H578 H 0.78508 0.76998 0.13797 0.0
H579 H 0.77318 0.76744 0.08711 0.0
C580 C 0.78705 0.84297 0.07152 0.0
N581 N 0.78359 0.82678 0.07441 0.0
C582 C 0.77772 0.85204 0.06026 0.0
C583 C 0.76163 0.82748 0.05518 0.0
C584 C 0.77118 0.81895 0.06659 0.0
C585 C 0.76483 0.84426 0.05191 0.0
H586 H 0.79699 0.84884 0.07802 0.0
H587 H 0.76871 0.80607 0.06927 0.0
O588 O 0.81507 0.78913 0.11782 0.0
O589 O 0.81773 0.82152 0.09561 0.0
O590 O 0.79832 0.79065 0.08339 0.0
O591 O 0.78462 0.81005 0.11112 0.0
H592 H 0.83947 0.79249 0.13887 0.0
H593 H 0.81027 0.75705 0.11237 0.0
H594 H 0.85494 0.76919 0.15122 0.0
H595 H 0.82612 0.73442 0.12532 0.0
H596 H 0.85457 0.86321 0.09218 0.0
H597 H 0.84158 0.80709 0.11238 0.0
H598 H 0.82753 0.85112 0.086 0.0
H599 H 0.8683 0.81991 0.11817 0.0
H600 H 0.85865 0.75333 0.0783 0.0
H601 H 0.84878 0.79232 0.04293 0.0
H602 H 0.80777 0.81812 0.17695 0.0
H603 H 0.81221 0.86401 0.14957 0.0
H604 H 0.80015 0.80224 0.05275 0.0
H605 H 0.80624 0.75884 0.08312 0.0
H606 H 0.80841 0.78571 0.02824 0.0
H607 H 0.81456 0.74311 0.05812 0.0
H608 H 0.77416 0.79999 0.14044 0.0
H609 H 0.77989 0.84237 0.1086 0.0
H610 H 0.76276 0.81847 0.16211 0.0
H611 H 0.76835 0.86011 0.13082 0.0
H612 H 0.76573 0.74758 0.14441 0.0
H613 H 0.75406 0.74464 0.09219 0.0
H614 H 0.78064 0.86492 0.058 0.0
H615 H 0.75166 0.82109 0.04921 0.0
Li616 Li 0.43419 0.56543 0.37382 0.0
Li617 Li 0.45536 0.54977 0.36099 0.0
Li618 Li 0.44735 0.57576 0.34917 0.0
Li619 Li 0.4296 0.55073 0.34619 0.0
C620 C 0.46045 0.5843 0.38225 0.0
N621 N 0.46618 0.60923 0.40498 0.0
C622 C 0.47052 0.58142 0.39588 0.0
C623 C 0.45335 0.59987 0.38015 0.0
C624 C 0.47325 0.59417 0.40725 0.0
C625 C 0.45638 0.61232 0.39177 0.0
C626 C 0.43742 0.5271 0.37693 0.0
C627 C 0.43595 0.4974 0.37986 0.0
N628 N 0.44509 0.4984 0.39386 0.0
C629 C 0.44676 0.52783 0.39136 0.0
C630 C 0.43194 0.51178 0.37112 0.0
C631 C 0.45054 0.51318 0.39973 0.0
C632 C 0.40738 0.57337 0.39377 0.0
N633 N 0.42354 0.57006 0.39411 0.0
C634 C 0.42299 0.56708 0.42352 0.0
C635 C 0.4315 0.56744 0.40861 0.0
C636 C 0.40608 0.56935 0.42349 0.0
C637 C 0.39837 0.57319 0.40843 0.0
H638 H 0.40132 0.57518 0.38202 0.0
H639 H 0.44427 0.56452 0.40855 0.0
C640 C 0.48738 0.54151 0.371 0.0
N641 N 0.47351 0.53548 0.36418 0.0
C642 C 0.50074 0.53113 0.37336 0.0
C643 C 0.48537 0.50866 0.36128 0.0
C644 C 0.4724 0.51949 0.35905 0.0
C645 C 0.49978 0.51439 0.36863 0.0
H646 H 0.48808 0.55441 0.37452 0.0
H647 H 0.46138 0.51512 0.35327 0.0
C648 C 0.41559 0.58707 0.34663 0.0
N649 N 0.39958 0.61395 0.33313 0.0
C650 C 0.40956 0.5863 0.33046 0.0
C651 C 0.41313 0.60137 0.35607 0.0
C652 C 0.40161 0.60006 0.32382 0.0
C653 C 0.4051 0.61487 0.34899 0.0
C654 C 0.46425 0.54825 0.32932 0.0
C655 C 0.47918 0.55645 0.32971 0.0
C656 C 0.46286 0.53318 0.32091 0.0
C657 C 0.4925 0.54942 0.32165 0.0
C658 C 0.47648 0.52655 0.31301 0.0
N659 N 0.49089 0.53474 0.31354 0.0
C660 C 0.46944 0.60099 0.34036 0.0
C661 C 0.45033 0.59308 0.31986 0.0
C662 C 0.47906 0.60866 0.3284 0.0
N663 N 0.45565 0.59296 0.33579 0.0
C664 C 0.4595 0.60071 0.30753 0.0
C665 C 0.47446 0.60786 0.31167 0.0
H666 H 0.4739 0.59997 0.3529 0.0
H667 H 0.4399 0.58576 0.3164 0.0
C668 C 0.40333 0.52961 0.33762 0.0
N669 N 0.41556 0.53926 0.3318 0.0
C670 C 0.39427 0.51989 0.32668 0.0
C671 C 0.41024 0.53077 0.30402 0.0
C672 C 0.41895 0.54026 0.31537 0.0
C673 C 0.39788 0.52019 0.30965 0.0
H674 H 0.4009 0.52915 0.35078 0.0
H675 H 0.42876 0.54809 0.31114 0.0
O676 O 0.45743 0.57186 0.37115 0.0
O677 O 0.43377 0.54129 0.36844 0.0
O678 O 0.4233 0.57366 0.35337 0.0
O679 O 0.45112 0.5548 0.33736 0.0
H680 H 0.47601 0.56938 0.39779 0.0
H681 H 0.44572 0.60237 0.36956 0.0
H682 H 0.48095 0.59209 0.4179 0.0
H683 H 0.45097 0.62444 0.39027 0.0
H684 H 0.43184 0.48545 0.37549 0.0
H685 H 0.45139 0.53953 0.39582 0.0
H686 H 0.42481 0.51096 0.35991 0.0
H687 H 0.45787 0.51356 0.41084 0.0
H688 H 0.42944 0.5638 0.43473 0.0
H689 H 0.38539 0.57519 0.40785 0.0
H690 H 0.51169 0.53617 0.3788 0.0
H691 H 0.48394 0.49584 0.35762 0.0
H692 H 0.41112 0.57522 0.32308 0.0
H693 H 0.41724 0.60199 0.36878 0.0
H694 H 0.39702 0.59969 0.31127 0.0
H695 H 0.40318 0.62604 0.35613 0.0
H696 H 0.48053 0.56798 0.33638 0.0
H697 H 0.45145 0.52656 0.32065 0.0
H698 H 0.50414 0.55561 0.32191 0.0
H699 H 0.4756 0.51486 0.30651 0.0
H700 H 0.49058 0.61403 0.33202 0.0
H701 H 0.45573 0.59954 0.29473 0.0
H702 H 0.38469 0.51209 0.33152 0.0
H703 H 0.4136 0.53126 0.29106 0.0
Li704 Li 0.39038 0.19588 0.28942 0.0
Li705 Li 0.40531 0.19485 0.31678 0.0
Li706 Li 0.40414 0.17032 0.29857 0.0
Li707 Li 0.3806 0.17991 0.31222 0.0
C708 C 0.42574 0.20063 0.28615 0.0
N709 N 0.45042 0.21783 0.27057 0.0
C710 C 0.43012 0.21645 0.29162 0.0
C711 C 0.43403 0.19353 0.27279 0.0
C712 C 0.44259 0.22495 0.28357 0.0
C713 C 0.44644 0.20243 0.26507 0.0
C714 C 0.3702 0.21068 0.31807 0.0
C715 C 0.35417 0.21778 0.34204 0.0
N716 N 0.3417 0.22222 0.33193 0.0
C717 C 0.35728 0.21544 0.3079 0.0
C718 C 0.36869 0.21195 0.33527 0.0
C719 C 0.34296 0.22121 0.31515 0.0
C720 C 0.37259 0.20592 0.26084 0.0
N721 N 0.38496 0.21 0.27123 0.0
C722 C 0.38968 0.23509 0.25628 0.0
C723 C 0.3933 0.22439 0.26933 0.0
C724 C 0.37721 0.23104 0.24512 0.0
C725 C 0.3686 0.21621 0.24756 0.0
H726 H 0.36569 0.19473 0.26292 0.0
H727 H 0.40254 0.22776 0.27815 0.0
C728 C 0.43448 0.20106 0.33316 0.0
N729 N 0.41919 0.20691 0.33087 0.0
C730 C 0.44575 0.21032 0.34214 0.0
C731 C 0.42516 0.23124 0.34651 0.0
C732 C 0.41432 0.22163 0.33734 0.0
C733 C 0.44116 0.22569 0.34884 0.0
H734 H 0.43799 0.18938 0.32766 0.0
H735 H 0.40219 0.22614 0.33497 0.0
C736 C 0.38147 0.1666 0.27304 0.0
N737 N 0.38087 0.15386 0.24127 0.0
C738 C 0.36934 0.15544 0.26838 0.0
C739 C 0.39327 0.1713 0.26153 0.0
C740 C 0.36925 0.14913 0.25225 0.0
C741 C 0.39277 0.16472 0.24554 0.0
C742 C 0.39844 0.15568 0.32885 0.0
C743 C 0.389 0.14439 0.31991 0.0
C744 C 0.40561 0.15078 0.34375 0.0
C745 C 0.38691 0.12835 0.32607 0.0
C746 C 0.40321 0.13464 0.3495 0.0
N747 N 0.394 0.12385 0.34061 0.0
C748 C 0.43386 0.15618 0.29306 0.0
C749 C 0.41243 0.14065 0.28109 0.0
C750 C 0.4453 0.14751 0.28379 0.0
N751 N 0.41779 0.15323 0.29084 0.0
C752 C 0.42346 0.13169 0.27152 0.0
C753 C 0.44004 0.13573 0.27218 0.0
H754 H 0.43769 0.16629 0.30094 0.0
H755 H 0.39958 0.13836 0.2798 0.0
C756 C 0.34713 0.1761 0.31334 0.0
N757 N 0.36074 0.17447 0.32267 0.0
C758 C 0.33203 0.17755 0.32097 0.0
C759 C 0.34512 0.17366 0.34751 0.0
C760 C 0.36001 0.17249 0.33937 0.0
C761 C 0.331 0.17719 0.33836 0.0
H762 H 0.34819 0.1779 0.3001 0.0
H763 H 0.37108 0.17143 0.34648 0.0
O764 O 0.41377 0.19195 0.29413 0.0
O765 O 0.38419 0.20469 0.31121 0.0
O766 O 0.38182 0.1726 0.28889 0.0
O767 O 0.40072 0.17148 0.32316 0.0
H768 H 0.42379 0.22223 0.30183 0.0
H769 H 0.43099 0.18126 0.26841 0.0
H770 H 0.44602 0.23723 0.28764 0.0
H771 H 0.45293 0.19708 0.25472 0.0
H772 H 0.35277 0.21867 0.35534 0.0
H773 H 0.35824 0.21451 0.29457 0.0
H774 H 0.37854 0.2082 0.34332 0.0
H775 H 0.33282 0.22481 0.30745 0.0
H776 H 0.3963 0.24663 0.25523 0.0
H777 H 0.35886 0.21259 0.23931 0.0
H778 H 0.45794 0.20557 0.34376 0.0
H779 H 0.42121 0.24313 0.35124 0.0
H780 H 0.36015 0.15164 0.27717 0.0
H781 H 0.40263 0.18001 0.26488 0.0
H782 H 0.35995 0.14046 0.24849 0.0
H783 H 0.40184 0.16826 0.23652 0.0
H784 H 0.38332 0.1479 0.30838 0.0
H785 H 0.41294 0.15939 0.35081 0.0
H786 H 0.37964 0.11949 0.31928 0.0
H787 H 0.40869 0.13068 0.36102 0.0
H788 H 0.45794 0.15107 0.28464 0.0
H789 H 0.41898 0.12244 0.26293 0.0
H790 H 0.32157 0.18043 0.31339 0.0
H791 H 0.34485 0.173 0.36091 0.0
Li792 Li 0.04881 0.15306 0.57047 0.0
Li793 Li 0.04489 0.14074 0.54267 0.0
Li794 Li 0.06313 0.1288 0.56231 0.0
Li795 Li 0.0702 0.15409 0.55001 0.0
C796 C 0.03509 0.11935 0.57554 0.0
N797 N 0.02831 0.09404 0.59754 0.0
C798 C 0.02707 0.1051 0.57011 0.0
C799 C 0.03955 0.12079 0.5922 0.0
C800 C 0.02379 0.09241 0.58142 0.0
C801 C 0.03602 0.10785 0.60312 0.0
C802 C 0.03486 0.17389 0.5474 0.0
C803 C 0.02194 0.20007 0.54157 0.0
N804 N 0.00731 0.19333 0.54547 0.0
C805 C 0.01968 0.16721 0.55133 0.0
C806 C 0.03601 0.19045 0.54247 0.0
C807 C 0.00591 0.17724 0.55029 0.0
C808 C 0.04458 0.18098 0.59021 0.0
N809 N 0.03816 0.16587 0.58676 0.0
C810 C 0.01456 0.17192 0.60278 0.0
C811 C 0.02353 0.16111 0.59289 0.0
C812 C 0.02062 0.18785 0.6061 0.0
C813 C 0.03595 0.19225 0.59992 0.0
H814 H 0.05609 0.1845 0.58483 0.0
H815 H 0.01848 0.14924 0.58947 0.0
C816 C 0.02634 0.12022 0.52214 0.0
N817 N 0.03026 0.13632 0.52492 0.0
C818 C 0.01586 0.11599 0.50923 0.0
C819 C 0.01403 0.14498 0.50196 0.0
C820 C 0.02462 0.14863 0.51493 0.0
C821 C 0.00942 0.1285 0.49906 0.0
H822 H 0.03145 0.11065 0.52992 0.0
H823 H 0.02843 0.16127 0.51688 0.0
C824 C 0.08833 0.14597 0.57741 0.0
N825 N 0.12078 0.14106 0.58448 0.0
C826 C 0.09806 0.13675 0.56662 0.0
C827 C 0.09511 0.15269 0.59178 0.0
C828 C 0.11444 0.13441 0.57041 0.0
C829 C 0.11154 0.15006 0.59515 0.0
C830 C 0.07025 0.13396 0.52192 0.0
C831 C 0.0779 0.12104 0.51343 0.0
C832 C 0.06583 0.14833 0.51334 0.0
C833 C 0.08104 0.12273 0.49651 0.0
C834 C 0.0692 0.14955 0.49643 0.0
N835 N 0.07667 0.13683 0.48843 0.0
C836 C 0.06542 0.09482 0.55981 0.0
C837 C 0.07543 0.10505 0.58539 0.0
C838 C 0.06525 0.0787 0.56596 0.0
N839 N 0.06978 0.10761 0.56978 0.0
C840 C 0.0756 0.08908 0.59202 0.0
C841 C 0.06966 0.07576 0.58253 0.0
H842 H 0.06069 0.09734 0.54756 0.0
H843 H 0.07854 0.1155 0.59315 0.0
C844 C 0.08349 0.18476 0.54388 0.0
N845 N 0.08622 0.16836 0.54138 0.0
C846 C 0.09177 0.1965 0.53449 0.0
C847 C 0.10647 0.17423 0.52116 0.0
C848 C 0.09801 0.16292 0.53096 0.0
C849 C 0.10283 0.19119 0.5224 0.0
H850 H 0.07405 0.18864 0.55234 0.0
H851 H 0.10001 0.14978 0.52932 0.0
O852 O 0.03897 0.13166 0.56456 0.0
O853 O 0.0486 0.16443 0.54867 0.0
O854 O 0.07224 0.14852 0.57405 0.0
O855 O 0.06712 0.13234 0.5385 0.0
H856 H 0.02351 0.10376 0.5573 0.0
H857 H 0.04595 0.13165 0.59657 0.0
H858 H 0.0177 0.08126 0.57736 0.0
H859 H 0.03953 0.10874 0.616 0.0
H860 H 0.02266 0.2129 0.53778 0.0
H861 H 0.01851 0.15443 0.55515 0.0
H862 H 0.04764 0.19582 0.53936 0.0
H863 H 0.9941 0.17224 0.55331 0.0
H864 H 0.00267 0.16818 0.60706 0.0
H865 H 0.04104 0.2044 0.60226 0.0
H866 H 0.01258 0.10312 0.50744 0.0
H867 H 0.00958 0.15495 0.49419 0.0
H868 H 0.09309 0.13139 0.55546 0.0
H869 H 0.08773 0.15986 0.60026 0.0
H870 H 0.1221 0.1273 0.56218 0.0
H871 H 0.11694 0.15519 0.60624 0.0
H872 H 0.08137 0.10983 0.51989 0.0
H873 H 0.05997 0.15851 0.51964 0.0
H874 H 0.08697 0.11283 0.4898 0.0
H875 H 0.06589 0.16062 0.48967 0.0
H876 H 0.06036 0.06894 0.55824 0.0
H877 H 0.07932 0.08735 0.60477 0.0
H878 H 0.08859 0.20947 0.53575 0.0
H879 H 0.11508 0.16972 0.51208 0.0
Li880 Li 0.09624 0.8255 0.79591 0.0
Li881 Li 0.11959 0.81646 0.80992 0.0
Li882 Li 0.11158 0.80279 0.78378 0.0
Li883 Li 0.09528 0.79955 0.8109 0.0
C884 C 0.12424 0.83696 0.77615 0.0
N885 N 0.1355 0.85963 0.75321 0.0
C886 C 0.13384 0.85031 0.78124 0.0
C887 C 0.12061 0.835 0.75934 0.0
C888 C 0.13934 0.86168 0.76947 0.0
C889 C 0.12635 0.84663 0.74795 0.0
C890 C 0.09906 0.8366 0.82862 0.0
C891 C 0.0932 0.85294 0.8529 0.0
N892 N 0.1006 0.86619 0.84574 0.0
C893 C 0.10656 0.85037 0.82148 0.0
C894 C 0.09228 0.83788 0.84443 0.0
C895 C 0.10724 0.86522 0.83034 0.0
C896 C 0.06759 0.84314 0.79881 0.0
N897 N 0.08186 0.84308 0.79036 0.0
C898 C 0.07149 0.86249 0.77079 0.0
C899 C 0.08424 0.85302 0.77701 0.0
C900 C 0.05617 0.8616 0.77835 0.0
C901 C 0.05444 0.85228 0.79292 0.0
H902 H 0.06604 0.83504 0.80937 0.0
H903 H 0.09559 0.85283 0.77047 0.0
C904 C 0.15283 0.8207 0.81439 0.0
N905 N 0.13839 0.82144 0.82242 0.0
C906 C 0.16721 0.81913 0.82338 0.0
C907 C 0.15163 0.82105 0.84869 0.0
C908 C 0.13753 0.82228 0.83921 0.0
C909 C 0.16663 0.81848 0.84079 0.0
H910 H 0.15306 0.81976 0.80102 0.0
H911 H 0.12586 0.82254 0.84529 0.0
C912 C 0.07399 0.80738 0.77949 0.0
N913 N 0.04592 0.81584 0.7628 0.0
C914 C 0.05891 0.80557 0.78719 0.0
C915 C 0.07479 0.81322 0.76322 0.0
C916 C 0.04486 0.80997 0.77856 0.0
C917 C 0.06046 0.81752 0.75502 0.0
C918 C 0.1302 0.78535 0.81368 0.0
C919 C 0.14467 0.7817 0.80543 0.0
C920 C 0.12897 0.78256 0.83072 0.0
C921 C 0.15781 0.77553 0.81447 0.0
C922 C 0.1424 0.77641 0.83932 0.0
N923 N 0.15643 0.77307 0.83108 0.0
C924 C 0.13232 0.79424 0.75683 0.0
C925 C 0.10732 0.77984 0.75862 0.0
C926 C 0.13661 0.78526 0.74268 0.0
N927 N 0.11788 0.79135 0.76443 0.0
C928 C 0.11117 0.77048 0.74465 0.0
C929 C 0.12602 0.77306 0.73648 0.0
H930 H 0.14051 0.80346 0.76181 0.0
H931 H 0.09599 0.77774 0.76505 0.0
C932 C 0.07028 0.79074 0.83264 0.0
N933 N 0.08252 0.78469 0.82316 0.0
C934 C 0.06026 0.77993 0.84142 0.0
C935 C 0.07583 0.75691 0.83062 0.0
C936 C 0.08551 0.76818 0.82201 0.0
C937 C 0.06294 0.76275 0.84043 0.0
H938 H 0.06817 0.80396 0.83317 0.0
H939 H 0.09538 0.76379 0.81434 0.0
O940 O 0.11905 0.82553 0.78749 0.0
O941 O 0.09824 0.82189 0.82023 0.0
O942 O 0.08791 0.80356 0.7879 0.0
O943 O 0.11739 0.79194 0.80517 0.0
H944 H 0.13708 0.85182 0.79415 0.0
H945 H 0.11332 0.8247 0.75514 0.0
H946 H 0.14672 0.87209 0.77325 0.0
H947 H 0.12353 0.84532 0.73492 0.0
H948 H 0.08803 0.85411 0.86516 0.0
H949 H 0.11172 0.84964 0.80923 0.0
H950 H 0.0864 0.82731 0.85011 0.0
H951 H 0.11301 0.87599 0.82495 0.0
H952 H 0.0733 0.8694 0.75944 0.0
H953 H 0.04284 0.85139 0.79916 0.0
H954 H 0.17839 0.81699 0.81668 0.0
H955 H 0.15062 0.82097 0.86206 0.0
H956 H 0.05809 0.80103 0.79977 0.0
H957 H 0.08634 0.81457 0.75704 0.0
H958 H 0.03311 0.80879 0.78442 0.0
H959 H 0.0609 0.82223 0.74248 0.0
H960 H 0.14579 0.78383 0.79224 0.0
H961 H 0.11785 0.78539 0.83727 0.0
H962 H 0.16914 0.77278 0.80829 0.0
H963 H 0.1417 0.77437 0.85254 0.0
H964 H 0.14811 0.78782 0.73674 0.0
H965 H 0.10277 0.76098 0.74065 0.0
H966 H 0.05034 0.78496 0.84863 0.0
H967 H 0.07846 0.7438 0.82967 0.0
Li968 Li 0.43273 0.83984 0.0471 0.0
Li969 Li 0.4364 0.86581 0.05975 0.0
Li970 Li 0.45566 0.8557 0.03908 0.0
Li971 Li 0.45457 0.84216 0.06714 0.0
C972 C 0.41949 0.86195 0.02601 0.0
N973 N 0.39258 0.86219 0.00559 0.0
C974 C 0.40568 0.87093 0.03051 0.0
C975 C 0.41967 0.85319 0.01106 0.0
C976 C 0.39218 0.87088 0.02003 0.0
C977 C 0.40592 0.85343 0.00093 0.0
C978 C 0.41608 0.83821 0.07431 0.0
C979 C 0.39961 0.81461 0.08152 0.0
N980 N 0.38602 0.82384 0.07897 0.0
C981 C 0.40197 0.84749 0.07184 0.0
C982 C 0.41493 0.82167 0.07928 0.0
C983 C 0.38688 0.83999 0.07424 0.0
C984 C 0.42544 0.80774 0.03863 0.0
N985 N 0.4184 0.82295 0.03931 0.0
C986 C 0.39423 0.81234 0.02689 0.0
C987 C 0.4028 0.82529 0.03433 0.0
C988 C 0.40173 0.79681 0.02493 0.0
C989 C 0.41731 0.79446 0.03148 0.0
H990 H 0.43757 0.80594 0.04335 0.0
H991 H 0.39715 0.83728 0.03565 0.0
C992 C 0.43017 0.89943 0.05839 0.0
N993 N 0.42825 0.88595 0.06824 0.0
C994 C 0.42966 0.91527 0.06522 0.0
C995 C 0.4233 0.90304 0.09179 0.0
C996 C 0.42415 0.88739 0.08447 0.0
C997 C 0.42706 0.9172 0.08233 0.0
H998 H 0.43369 0.89781 0.04558 0.0
H999 H 0.4229 0.87638 0.09201 0.0
C1000 C 0.46637 0.82521 0.03489 0.0
N1001 N 0.48975 0.81257 0.0139 0.0
C1002 C 0.48202 0.82206 0.04079 0.0
C1003 C 0.46257 0.82181 0.01837 0.0
C1004 C 0.49368 0.81569 0.02997 0.0
C1005 C 0.47458 0.81546 0.00793 0.0
C1006 C 0.4653 0.88004 0.06716 0.0
C1007 C 0.46986 0.89278 0.0564 0.0
C1008 C 0.46459 0.88304 0.0842 0.0
C1009 C 0.47351 0.9084 0.06288 0.0
C1010 C 0.4683 0.89884 0.09019 0.0
N1011 N 0.47263 0.91108 0.07949 0.0
C1012 C 0.4644 0.86575 0.00663 0.0
C1013 C 0.48632 0.86093 0.02503 0.0
C1014 C 0.47513 0.86929 0.99374 0.0
N1015 N 0.47016 0.86151 0.02183 0.0
C1016 C 0.49748 0.86433 0.01251 0.0
C1017 C 0.49192 0.86849 0.99658 0.0
H1018 H 0.45148 0.8663 0.00449 0.0
H1019 H 0.49052 0.8577 0.03731 0.0
C1020 C 0.46383 0.81371 0.0833 0.0
N1021 N 0.46682 0.83024 0.08281 0.0
C1022 C 0.47325 0.80337 0.09322 0.0
C1023 C 0.4886 0.82733 0.10209 0.0
C1024 C 0.47885 0.83723 0.09194 0.0
C1025 C 0.48594 0.81012 0.10268 0.0
H1026 H 0.45445 0.80849 0.07551 0.0
H1027 H 0.48116 0.85038 0.09102 0.0
O1028 O 0.4329 0.86211 0.03598 0.0
O1029 O 0.43093 0.84524 0.07159 0.0
O1030 O 0.45488 0.83181 0.04517 0.0
O1031 O 0.46128 0.86479 0.06101 0.0
H1032 H 0.40536 0.87787 0.04197 0.0
H1033 H 0.43022 0.8461 0.00742 0.0
H1034 H 0.38139 0.87773 0.02338 0.0
H1035 H 0.40584 0.84661 0.98939 0.0
H1036 H 0.39852 0.80179 0.08526 0.0
H1037 H 0.40266 0.8603 0.06797 0.0
H1038 H 0.42573 0.81432 0.08122 0.0
H1039 H 0.37585 0.84699 0.07228 0.0
H1040 H 0.38217 0.81469 0.02212 0.0
H1041 H 0.42334 0.78255 0.03078 0.0
H1042 H 0.43285 0.92567 0.0574 0.0
H1043 H 0.42091 0.90393 0.10494 0.0
H1044 H 0.48518 0.8247 0.05354 0.0
H1045 H 0.4505 0.82417 0.01364 0.0
H1046 H 0.50586 0.81327 0.03433 0.0
H1047 H 0.47184 0.81286 0.99508 0.0
H1048 H 0.47038 0.89068 0.04317 0.0
H1049 H 0.4609 0.87336 0.09268 0.0
H1050 H 0.47695 0.91841 0.05469 0.0
H1051 H 0.46764 0.90139 0.10333 0.0
H1052 H 0.47033 0.8724 0.98164 0.0
H1053 H 0.51032 0.86389 0.01533 0.0
H1054 H 0.47099 0.79016 0.09298 0.0
H1055 H 0.49819 0.83305 0.10925 0.0
Li1056 Li 0.87883 0.3154 0.68519 0.0
Li1057 Li 0.90048 0.3266 0.70046 0.0
Li1058 Li 0.90492 0.30154 0.68439 0.0
Li1059 Li 0.8875 0.30148 0.71093 0.0
C1060 C 0.89708 0.33877 0.66814 0.0
N1061 N 0.89166 0.36864 0.65237 0.0
C1062 C 0.88857 0.35138 0.67619 0.0
C1063 C 0.90288 0.34135 0.65208 0.0
C1064 C 0.88595 0.3664 0.66802 0.0
C1065 C 0.90001 0.35654 0.64431 0.0
C1066 C 0.87073 0.33333 0.71976 0.0
C1067 C 0.86615 0.34064 0.74836 0.0
N1068 N 0.85615 0.35311 0.74342 0.0
C1069 C 0.86026 0.34609 0.71497 0.0
C1070 C 0.87357 0.33046 0.7366 0.0
C1071 C 0.85307 0.35601 0.72712 0.0
C1072 C 0.84548 0.31685 0.68079 0.0
N1073 N 0.85975 0.31869 0.67259 0.0
C1074 C 0.84631 0.31696 0.64648 0.0
C1075 C 0.86038 0.31942 0.65579 0.0
C1076 C 0.83159 0.3135 0.65459 0.0
C1077 C 0.83117 0.31421 0.67199 0.0
H1078 H 0.84546 0.31596 0.69416 0.0
H1079 H 0.87196 0.32058 0.64961 0.0
C1080 C 0.9278 0.34632 0.70144 0.0
N1081 N 0.9127 0.34509 0.70809 0.0
C1082 C 0.94008 0.35448 0.71009 0.0
C1083 C 0.9204 0.36199 0.73098 0.0
C1084 C 0.90855 0.35356 0.722 0.0
C1085 C 0.9366 0.36149 0.72561 0.0
H1086 H 0.93076 0.33932 0.69041 0.0
H1087 H 0.89649 0.35262 0.72699 0.0
C1088 C 0.87233 0.28359 0.67901 0.0
N1089 N 0.84905 0.26943 0.65886 0.0
C1090 C 0.85768 0.27809 0.68576 0.0
C1091 C 0.87523 0.28173 0.66205 0.0
C1092 C 0.84604 0.27101 0.67535 0.0
C1093 C 0.86329 0.27457 0.65206 0.0
C1094 C 0.92405 0.3095 0.71725 0.0
C1095 C 0.93968 0.30858 0.7106 0.0
C1096 C 0.92195 0.31451 0.73369 0.0
C1097 C 0.95296 0.31289 0.72047 0.0
C1098 C 0.93554 0.31864 0.74317 0.0
N1099 N 0.95063 0.31779 0.73641 0.0
C1100 C 0.93254 0.29529 0.66452 0.0
C1101 C 0.91777 0.2717 0.6734 0.0
C1102 C 0.94421 0.2852 0.65703 0.0
N1103 N 0.91979 0.28837 0.67261 0.0
C1104 C 0.92904 0.26116 0.66601 0.0
C1105 C 0.94262 0.26786 0.65788 0.0
H1106 H 0.93386 0.30863 0.66427 0.0
H1107 H 0.9075 0.26659 0.68 0.0
C1108 C 0.86632 0.2869 0.73446 0.0
N1109 N 0.882 0.28848 0.72954 0.0
C1110 C 0.86239 0.27658 0.74776 0.0
C1111 C 0.89089 0.2702 0.75094 0.0
C1112 C 0.89423 0.28047 0.73749 0.0
C1113 C 0.87476 0.26789 0.75608 0.0
H1114 H 0.85686 0.29343 0.72784 0.0
H1115 H 0.90658 0.28185 0.73322 0.0
O1116 O 0.89972 0.3239 0.6758 0.0
O1117 O 0.87764 0.32333 0.70804 0.0
O1118 O 0.88363 0.2911 0.68887 0.0
O1119 O 0.91089 0.30543 0.70773 0.0
H1120 H 0.88412 0.34965 0.68864 0.0
H1121 H 0.9095 0.33168 0.64568 0.0
H1122 H 0.87938 0.37627 0.67412 0.0
H1123 H 0.9044 0.3587 0.63187 0.0
H1124 H 0.86832 0.33863 0.76142 0.0
H1125 H 0.85766 0.34829 0.70201 0.0
H1126 H 0.8815 0.32056 0.74056 0.0
H1127 H 0.845 0.36597 0.72358 0.0
H1128 H 0.84716 0.31675 0.63309 0.0
H1129 H 0.82021 0.31137 0.67882 0.0
H1130 H 0.9524 0.35376 0.70549 0.0
H1131 H 0.91715 0.36765 0.74268 0.0
H1132 H 0.85524 0.27949 0.69886 0.0
H1133 H 0.88648 0.28602 0.65663 0.0
H1134 H 0.83458 0.26683 0.68037 0.0
H1135 H 0.86529 0.2732 0.63889 0.0
H1136 H 0.94154 0.30471 0.69791 0.0
H1137 H 0.90996 0.31526 0.73904 0.0
H1138 H 0.96512 0.31235 0.71544 0.0
H1139 H 0.93408 0.32254 0.7559 0.0
H1140 H 0.95456 0.29091 0.65107 0.0
H1141 H 0.92714 0.24791 0.66671 0.0
H1142 H 0.84976 0.275 0.75108 0.0
H1143 H 0.90086 0.26398 0.75709 0.0
Li1144 Li 0.95349 0.63892 0.96 0.0
Li1145 Li 0.95373 0.65251 0.93201 0.0
Li1146 Li 0.9305 0.65372 0.95051 0.0
Li1147 Li 0.93609 0.62805 0.93796 0.0
C1148 C 0.96299 0.66958 0.96487 0.0
N1149 N 0.98511 0.68242 0.98714 0.0
C1150 C 0.97874 0.67336 0.95972 0.0
C1151 C 0.95843 0.67245 0.9813 0.0
C1152 C 0.98976 0.67983 0.97118 0.0
C1153 C 0.96981 0.6789 0.99239 0.0
C1154 C 0.96596 0.61515 0.93257 0.0
C1155 C 0.97106 0.59662 0.9097 0.0
N1156 N 0.97534 0.58454 0.92061 0.0
C1157 C 0.97048 0.60257 0.94355 0.0
C1158 C 0.96632 0.6122 0.91551 0.0
C1159 C 0.97518 0.58718 0.93725 0.0
C1160 C 0.96092 0.62971 0.99316 0.0
N1161 N 0.96721 0.63371 0.97812 0.0
C1162 C 0.99417 0.63206 0.98873 0.0
C1163 C 0.98347 0.63473 0.97563 0.0
C1164 C 0.98806 0.62816 0.00451 0.0
C1165 C 0.97119 0.62685 0.00662 0.0
H1166 H 0.94794 0.62887 0.99474 0.0
H1167 H 0.9881 0.63781 0.96347 0.0
C1168 C 0.96331 0.68107 0.91589 0.0
N1169 N 0.96673 0.66466 0.91717 0.0
C1170 C 0.97336 0.69144 0.90668 0.0
C1171 C 0.99016 0.66777 0.90006 0.0
C1172 C 0.97978 0.65783 0.90947 0.0
C1173 C 0.98712 0.68486 0.8988 0.0
H1174 H 0.95305 0.68617 0.92249 0.0
H1175 H 0.98243 0.64482 0.91108 0.0
C1176 C 0.91677 0.63108 0.97031 0.0
N1177 N 0.88829 0.63017 0.98833 0.0
C1178 C 0.90364 0.62165 0.96472 0.0
C1179 C 0.91546 0.63993 0.98514 0.0
C1180 C 0.88934 0.62137 0.97399 0.0
C1181 C 0.90094 0.63936 0.99405 0.0
C1182 C 0.91573 0.65491 0.92196 0.0
C1183 C 0.90192 0.64488 0.92268 0.0
C1184 C 0.91424 0.67154 0.91739 0.0
C1185 C 0.88679 0.65172 0.91889 0.0
C1186 C 0.89889 0.67792 0.91373 0.0
N1187 N 0.8856 0.66796 0.91456 0.0
C1188 C 0.92093 0.68482 0.96083 0.0
C1189 C 0.89866 0.6663 0.96005 0.0
C1190 C 0.91143 0.69699 0.96819 0.0
N1191 N 0.91467 0.66959 0.95758 0.0
C1192 C 0.88865 0.67816 0.96747 0.0
C1193 C 0.8952 0.69356 0.97212 0.0
H1194 H 0.93352 0.6874 0.95825 0.0
H1195 H 0.89375 0.65433 0.95685 0.0
C1196 C 0.93135 0.59396 0.93803 0.0
N1197 N 0.92938 0.60773 0.92858 0.0
C1198 C 0.93171 0.57836 0.93063 0.0
C1199 C 0.92611 0.59134 0.90423 0.0
C1200 C 0.92611 0.60673 0.91212 0.0
C1201 C 0.92988 0.57697 0.91336 0.0
H1202 H 0.93419 0.59524 0.95106 0.0
H1203 H 0.92481 0.61794 0.9049 0.0
O1204 O 0.95212 0.66286 0.95396 0.0
O1205 O 0.96089 0.63015 0.93851 0.0
O1206 O 0.93092 0.63133 0.96149 0.0
O1207 O 0.93059 0.6485 0.92592 0.0
H1208 H 0.98251 0.67114 0.94708 0.0
H1209 H 0.94628 0.66957 0.98547 0.0
H1210 H 0.00203 0.68273 0.9674 0.0
H1211 H 0.96649 0.68108 0.00517 0.0
H1212 H 0.97123 0.59411 0.89654 0.0
H1213 H 0.97016 0.60462 0.95679 0.0
H1214 H 0.96267 0.62175 0.90685 0.0
H1215 H 0.97861 0.5773 0.9456 0.0
H1216 H 0.0071 0.63286 0.98648 0.0
H1217 H 0.96599 0.6239 0.01858 0.0
H1218 H 0.97051 0.70452 0.90591 0.0
H1219 H 0.00077 0.66225 0.89437 0.0
H1220 H 0.90448 0.61466 0.95331 0.0
H1221 H 0.92547 0.64737 0.98961 0.0
H1222 H 0.87906 0.61418 0.96978 0.0
H1223 H 0.89971 0.64626 0.00547 0.0
H1224 H 0.90285 0.63201 0.92628 0.0
H1225 H 0.92479 0.67947 0.91681 0.0
H1226 H 0.87599 0.64412 0.91947 0.0
H1227 H 0.89754 0.69079 0.91027 0.0
H1228 H 0.91706 0.70862 0.97159 0.0
H1229 H 0.87609 0.67513 0.96998 0.0
H1230 H 0.93485 0.56777 0.93821 0.0
H1231 H 0.92429 0.59084 0.89096 0.0
Li1232 Li 0.60986 0.69251 0.21604 0.0
Li1233 Li 0.59304 0.69322 0.18924 0.0
Li1234 Li 0.59618 0.66809 0.2053 0.0
Li1235 Li 0.61854 0.67821 0.19054 0.0
C1236 C 0.57238 0.68501 0.22048 0.0
N1237 N 0.54435 0.67523 0.23648 0.0
C1238 C 0.5575 0.6855 0.21219 0.0
C1239 C 0.57299 0.67969 0.23695 0.0
C1240 C 0.54346 0.68048 0.22049 0.0
C1241 C 0.55869 0.67473 0.2448 0.0
C1242 C 0.62598 0.70959 0.18378 0.0
C1243 C 0.63465 0.71769 0.15642 0.0
N1244 N 0.6492 0.72251 0.16276 0.0
C1245 C 0.64096 0.71474 0.19005 0.0
C1246 C 0.62273 0.71116 0.16685 0.0
C1247 C 0.65256 0.7212 0.1792 0.0
C1248 C 0.63139 0.70789 0.23875 0.0
N1249 N 0.6156 0.70557 0.23452 0.0
C1250 C 0.60683 0.72415 0.25568 0.0
C1251 C 0.60338 0.71324 0.24279 0.0
C1252 C 0.62305 0.72743 0.25993 0.0
C1253 C 0.63543 0.71887 0.25149 0.0
H1254 H 0.64084 0.70158 0.23192 0.0
H1255 H 0.59094 0.71122 0.23908 0.0
C1256 C 0.56791 0.70123 0.16651 0.0
N1257 N 0.57936 0.70729 0.17699 0.0
C1258 C 0.55756 0.71209 0.15813 0.0
C1259 C 0.57124 0.73509 0.17136 0.0
C1260 C 0.58122 0.72381 0.17953 0.0
C1261 C 0.55916 0.72928 0.16055 0.0
H1262 H 0.56673 0.68799 0.16482 0.0
H1263 H 0.5904 0.72819 0.18806 0.0
C1264 C 0.62513 0.66057 0.22576 0.0
N1265 N 0.63833 0.64141 0.25073 0.0
C1266 C 0.63548 0.64741 0.22189 0.0
C1267 C 0.6217 0.66415 0.24235 0.0
C1268 C 0.64197 0.63782 0.23469 0.0
C1269 C 0.62843 0.65427 0.25478 0.0
C1270 C 0.59961 0.6557 0.17314 0.0
C1271 C 0.60827 0.64307 0.18101 0.0
C1272 C 0.59305 0.65295 0.15742 0.0
C1273 C 0.61028 0.62788 0.17299 0.0
C1274 C 0.59532 0.63759 0.14979 0.0
N1275 N 0.60381 0.62547 0.15767 0.0
C1276 C 0.56934 0.64724 0.20392 0.0
C1277 C 0.58654 0.64178 0.22679 0.0
C1278 C 0.55693 0.63787 0.21102 0.0
N1279 N 0.58346 0.64967 0.21227 0.0
C1280 C 0.57452 0.63231 0.23433 0.0
C1281 C 0.55919 0.63098 0.22683 0.0
H1282 H 0.56717 0.6538 0.19244 0.0
H1283 H 0.59773 0.6439 0.23329 0.0
C1284 C 0.65187 0.67521 0.18667 0.0
N1285 N 0.63762 0.67395 0.17832 0.0
C1286 C 0.6664 0.67689 0.17801 0.0
C1287 C 0.6514 0.67441 0.15236 0.0
C1288 C 0.63714 0.67291 0.16153 0.0
C1289 C 0.66618 0.67725 0.1606 0.0
H1290 H 0.65178 0.67635 0.20003 0.0
H1291 H 0.62558 0.67222 0.15522 0.0
O1292 O 0.58629 0.68964 0.21247 0.0
O1293 O 0.6147 0.70262 0.19407 0.0
O1294 O 0.61897 0.6703 0.21339 0.0
O1295 O 0.59752 0.67073 0.18068 0.0
H1296 H 0.55682 0.68957 0.19944 0.0
H1297 H 0.58441 0.67921 0.24353 0.0
H1298 H 0.53188 0.68069 0.2142 0.0
H1299 H 0.559 0.67045 0.25749 0.0
H1300 H 0.63237 0.71884 0.14327 0.0
H1301 H 0.64367 0.71355 0.20311 0.0
H1302 H 0.61124 0.7071 0.16179 0.0
H1303 H 0.66426 0.7251 0.18385 0.0
H1304 H 0.59689 0.73023 0.262 0.0
H1305 H 0.6481 0.72115 0.25418 0.0
H1306 H 0.54849 0.70712 0.14979 0.0
H1307 H 0.57273 0.74821 0.17375 0.0
H1308 H 0.63853 0.64466 0.20914 0.0
H1309 H 0.61377 0.67431 0.2456 0.0
H1310 H 0.64995 0.62755 0.23187 0.0
H1311 H 0.62578 0.65682 0.26766 0.0
H1312 H 0.61333 0.64494 0.1932 0.0
H1313 H 0.5863 0.66262 0.15117 0.0
H1314 H 0.61695 0.618 0.17895 0.0
H1315 H 0.59032 0.63529 0.13761 0.0
H1316 H 0.54538 0.63695 0.2047 0.0
H1317 H 0.5768 0.62737 0.24658 0.0
H1318 H 0.67742 0.67928 0.1849 0.0
H1319 H 0.65072 0.6744 0.13896 0.0
Li1320 Li 0.5609 0.37001 0.43709 0.0
Li1321 Li 0.57034 0.34782 0.45315 0.0
Li1322 Li 0.54782 0.34317 0.43445 0.0
Li1323 Li 0.54465 0.36059 0.46103 0.0
C1324 C 0.58544 0.35194 0.422 0.0
N1325 N 0.61582 0.3581 0.40894 0.0
C1326 C 0.59702 0.36044 0.43133 0.0
C1327 C 0.58931 0.34651 0.40604 0.0
C1328 C 0.61232 0.36345 0.42451 0.0
C1329 C 0.60473 0.34977 0.39965 0.0
C1330 C 0.57466 0.37821 0.47322 0.0
C1331 C 0.57857 0.38392 0.50229 0.0
N1332 N 0.59136 0.39386 0.49846 0.0
C1333 C 0.5877 0.38865 0.46956 0.0
C1334 C 0.56992 0.37598 0.4897 0.0
C1335 C 0.59604 0.39638 0.4825 0.0
C1336 C 0.563 0.40408 0.43406 0.0
N1337 N 0.56543 0.38984 0.42547 0.0
C1338 C 0.56751 0.40478 0.40005 0.0
C1339 C 0.56819 0.38991 0.40888 0.0
C1340 C 0.56374 0.41959 0.40841 0.0
C1341 C 0.56208 0.41917 0.42575 0.0
H1342 H 0.56048 0.40355 0.4472 0.0
H1343 H 0.56981 0.37834 0.40233 0.0
C1344 C 0.59422 0.32297 0.45398 0.0
N1345 N 0.58805 0.33597 0.46265 0.0
C1346 C 0.60366 0.31104 0.46199 0.0
C1347 C 0.60111 0.32677 0.48734 0.0
C1348 C 0.5918 0.33836 0.47885 0.0
C1349 C 0.60662 0.31252 0.47908 0.0
H1350 H 0.59076 0.32116 0.44118 0.0
H1351 H 0.58638 0.34839 0.48563 0.0
C1352 C 0.53073 0.37657 0.42763 0.0
N1353 N 0.51928 0.40085 0.40654 0.0
C1354 C 0.52473 0.39144 0.43404 0.0
C1355 C 0.53075 0.37396 0.41051 0.0
C1356 C 0.51903 0.40359 0.42316 0.0
C1357 C 0.52494 0.38641 0.40005 0.0
C1358 C 0.55366 0.32327 0.46734 0.0
C1359 C 0.55716 0.3082 0.4596 0.0
C1360 C 0.55506 0.32464 0.48454 0.0
C1361 C 0.56225 0.29477 0.46921 0.0
C1362 C 0.56017 0.31091 0.49372 0.0
N1363 N 0.56365 0.2964 0.48592 0.0
C1364 C 0.5432 0.31535 0.41321 0.0
C1365 C 0.51968 0.33024 0.42129 0.0
C1366 C 0.53367 0.3036 0.40499 0.0
N1367 N 0.53603 0.32819 0.42127 0.0
C1368 C 0.50973 0.31889 0.4132 0.0
C1369 C 0.51667 0.30516 0.40516 0.0
H1370 H 0.55626 0.314 0.41357 0.0
H1371 H 0.51436 0.34056 0.42789 0.0
C1372 C 0.52786 0.38171 0.48337 0.0
N1373 N 0.52976 0.36589 0.47795 0.0
C1374 C 0.51619 0.38537 0.49538 0.0
C1375 C 0.50895 0.35634 0.49613 0.0
C1376 C 0.52066 0.35328 0.48407 0.0
C1377 C 0.50642 0.3726 0.50179 0.0
H1378 H 0.53525 0.39149 0.47817 0.0
H1379 H 0.52236 0.34084 0.47942 0.0
O1380 O 0.57033 0.34893 0.42832 0.0
O1381 O 0.56605 0.37091 0.46068 0.0
O1382 O 0.53696 0.3648 0.43801 0.0
O1383 O 0.54914 0.3367 0.45808 0.0
H1384 H 0.59428 0.36457 0.44373 0.0
H1385 H 0.58045 0.3399 0.39866 0.0
H1386 H 0.6214 0.37002 0.43162 0.0
H1387 H 0.60789 0.34567 0.3873 0.0
H1388 H 0.57513 0.38217 0.5151 0.0
H1389 H 0.59128 0.3909 0.45686 0.0
H1390 H 0.55983 0.36799 0.49278 0.0
H1391 H 0.60619 0.40445 0.47985 0.0
H1392 H 0.56906 0.40454 0.38673 0.0
H1393 H 0.55886 0.43013 0.43273 0.0
H1394 H 0.60783 0.30036 0.45509 0.0
H1395 H 0.60278 0.32834 0.50055 0.0
H1396 H 0.5247 0.39366 0.44727 0.0
H1397 H 0.53545 0.36254 0.40536 0.0
H1398 H 0.51449 0.41522 0.42794 0.0
H1399 H 0.52501 0.38463 0.38676 0.0
H1400 H 0.5562 0.30696 0.44629 0.0
H1401 H 0.55251 0.33625 0.49071 0.0
H1402 H 0.56517 0.28308 0.46338 0.0
H1403 H 0.56146 0.31183 0.50702 0.0
H1404 H 0.53951 0.29314 0.39907 0.0
H1405 H 0.49673 0.32078 0.41338 0.0
H1406 H 0.51451 0.39812 0.49921 0.0
H1407 H 0.50186 0.34608 0.50086 0.0
Li1408 Li 0.2945 0.38744 0.1986 0.0
Li1409 Li 0.31558 0.37772 0.18137 0.0
Li1410 Li 0.31953 0.40333 0.19615 0.0
Li1411 Li 0.29979 0.40065 0.17205 0.0
C1412 C 0.31601 0.36636 0.21405 0.0
N1413 N 0.31564 0.3361 0.23009 0.0
C1414 C 0.30546 0.35383 0.2088 0.0
C1415 C 0.32631 0.36349 0.2275 0.0
C1416 C 0.30548 0.33862 0.21705 0.0
C1417 C 0.32594 0.34812 0.23544 0.0
C1418 C 0.28689 0.36859 0.16338 0.0
C1419 C 0.28631 0.36259 0.13412 0.0
N1420 N 0.27661 0.3493 0.13713 0.0
C1421 C 0.2768 0.35496 0.16618 0.0
C1422 C 0.29161 0.37252 0.14722 0.0
C1423 C 0.27178 0.34532 0.15275 0.0
C1424 C 0.26227 0.38002 0.20756 0.0
N1425 N 0.27748 0.38258 0.21353 0.0
C1426 C 0.26808 0.38031 0.24137 0.0
C1427 C 0.28061 0.38271 0.23005 0.0
C1428 C 0.25217 0.37779 0.23562 0.0
C1429 C 0.24934 0.37755 0.21846 0.0
H1430 H 0.26017 0.38022 0.19433 0.0
H1431 H 0.29282 0.38495 0.23442 0.0
C1432 C 0.3414 0.35632 0.18512 0.0
N1433 N 0.32746 0.35789 0.17624 0.0
C1434 C 0.34912 0.34103 0.18638 0.0
C1435 C 0.32879 0.32942 0.16822 0.0
C1436 C 0.32146 0.345 0.16728 0.0
C1437 C 0.34239 0.32715 0.17847 0.0
H1438 H 0.34577 0.36666 0.19238 0.0
H1439 H 0.31046 0.34636 0.16025 0.0
C1440 C 0.28639 0.4183 0.20492 0.0
N1441 N 0.26443 0.43121 0.22732 0.0
C1442 C 0.27047 0.42165 0.2 0.0
C1443 C 0.29117 0.42158 0.22121 0.0
C1444 C 0.25954 0.42815 0.21152 0.0
C1445 C 0.27988 0.4281 0.23235 0.0
C1446 C 0.33832 0.39378 0.16515 0.0
C1447 C 0.35298 0.39593 0.17358 0.0
C1448 C 0.33825 0.38595 0.1497 0.0
C1449 C 0.36732 0.38997 0.16653 0.0
C1450 C 0.35284 0.38014 0.14307 0.0
N1451 N 0.36695 0.38224 0.15156 0.0
C1452 C 0.34393 0.41212 0.21898 0.0
C1453 C 0.33013 0.43457 0.20628 0.0
C1454 C 0.35222 0.42298 0.22944 0.0
N1455 N 0.33299 0.41808 0.2079 0.0
C1456 C 0.33808 0.44586 0.21654 0.0
C1457 C 0.34907 0.44009 0.22854 0.0
H1458 H 0.34588 0.39891 0.21997 0.0
H1459 H 0.32116 0.43886 0.19749 0.0
C1460 C 0.27291 0.41023 0.15412 0.0
N1461 N 0.28901 0.41323 0.1559 0.0
C1462 C 0.26307 0.4216 0.14593 0.0
C1463 C 0.28681 0.43842 0.14063 0.0
C1464 C 0.2962 0.42672 0.14905 0.0
C1465 C 0.26991 0.43622 0.13955 0.0
H1466 H 0.2675 0.39963 0.16018 0.0
H1467 H 0.309 0.4289 0.15102 0.0
O1468 O 0.31657 0.38125 0.20591 0.0
O1469 O 0.29178 0.37818 0.17642 0.0
O1470 O 0.29714 0.41146 0.19397 0.0
O1471 O 0.32414 0.39931 0.17203 0.0
H1472 H 0.29743 0.35575 0.19842 0.0
H1473 H 0.33456 0.37302 0.23173 0.0
H1474 H 0.29744 0.32881 0.21305 0.0
H1475 H 0.33388 0.34573 0.24585 0.0
H1476 H 0.2899 0.36546 0.12155 0.0
H1477 H 0.27293 0.35184 0.17861 0.0
H1478 H 0.29919 0.38315 0.14481 0.0
H1479 H 0.26403 0.33469 0.15474 0.0
H1480 H 0.27086 0.38032 0.25448 0.0
H1481 H 0.23725 0.37579 0.21352 0.0
H1482 H 0.35943 0.33986 0.19461 0.0
H1483 H 0.32334 0.31907 0.16174 0.0
H1484 H 0.26653 0.41909 0.18749 0.0
H1485 H 0.30338 0.41885 0.2253 0.0
H1486 H 0.24715 0.43072 0.20791 0.0
H1487 H 0.28338 0.4306 0.24503 0.0
H1488 H 0.35329 0.40201 0.1855 0.0
H1489 H 0.32708 0.38428 0.14291 0.0
H1490 H 0.37874 0.39146 0.17297 0.0
H1491 H 0.35295 0.37397 0.13118 0.0
H1492 H 0.36078 0.41801 0.23832 0.0
H1493 H 0.33509 0.45889 0.21554 0.0
H1494 H 0.25011 0.41947 0.14571 0.0
H1495 H 0.2926 0.44942 0.13573 0.0
Li1496 Li 0.7979 0.09406 0.81644 0.0
Li1497 Li 0.81079 0.09633 0.7895 0.0
Li1498 Li 0.80806 0.12024 0.808 0.0
Li1499 Li 0.78433 0.10897 0.79377 0.0
C1500 C 0.82917 0.09087 0.82287 0.0
N1501 N 0.84528 0.07181 0.84605 0.0
C1502 C 0.83703 0.07631 0.81804 0.0
C1503 C 0.82964 0.09584 0.83945 0.0
C1504 C 0.84508 0.06682 0.82996 0.0
C1505 C 0.8378 0.086 0.851 0.0
C1506 C 0.77701 0.07708 0.78896 0.0
C1507 C 0.75905 0.07011 0.76638 0.0
N1508 N 0.74958 0.06136 0.77705 0.0
C1509 C 0.76707 0.06803 0.79969 0.0
C1510 C 0.77297 0.07812 0.77215 0.0
C1511 C 0.75327 0.06016 0.79343 0.0
C1512 C 0.78276 0.08319 0.8455 0.0
N1513 N 0.79366 0.07895 0.83363 0.0
C1514 C 0.79236 0.0505 0.84146 0.0
C1515 C 0.7989 0.06311 0.83175 0.0
C1516 C 0.78003 0.05426 0.85288 0.0
C1517 C 0.77576 0.07095 0.85537 0.0
H1518 H 0.77851 0.09583 0.84637 0.0
H1519 H 0.80715 0.06004 0.82181 0.0
C1520 C 0.84021 0.08911 0.77258 0.0
N1521 N 0.82424 0.08514 0.77399 0.0
C1522 C 0.85016 0.08038 0.76161 0.0
C1523 C 0.827 0.06377 0.75375 0.0
C1524 C 0.81756 0.07272 0.76492 0.0
C1525 C 0.84354 0.06751 0.75203 0.0
H1526 H 0.84524 0.09892 0.78013 0.0
H1527 H 0.80498 0.06951 0.76657 0.0
C1528 C 0.78303 0.12917 0.82638 0.0
N1529 N 0.7774 0.15786 0.84413 0.0
C1530 C 0.77245 0.14121 0.82018 0.0
C1531 C 0.79059 0.13161 0.84168 0.0
C1532 C 0.7698 0.15565 0.82933 0.0
C1533 C 0.78763 0.14623 0.85044 0.0
C1534 C 0.81249 0.12196 0.76996 0.0
C1535 C 0.82748 0.12999 0.77104 0.0
C1536 C 0.80694 0.11631 0.75461 0.0
C1537 C 0.83672 0.13217 0.7567 0.0
C1538 C 0.81655 0.1187 0.74056 0.0
N1539 N 0.83112 0.12651 0.74188 0.0
C1540 C 0.83184 0.14225 0.8217 0.0
C1541 C 0.80992 0.15415 0.80681 0.0
C1542 C 0.83953 0.15767 0.82268 0.0
N1543 N 0.81747 0.14081 0.81356 0.0
C1544 C 0.81705 0.16974 0.80765 0.0
C1545 C 0.83228 0.17158 0.81522 0.0
H1546 H 0.8377 0.13133 0.82665 0.0
H1547 H 0.79877 0.15249 0.79997 0.0
C1548 C 0.75006 0.10765 0.78748 0.0
N1549 N 0.76442 0.11497 0.78349 0.0
C1550 C 0.73598 0.11161 0.77868 0.0
C1551 C 0.75146 0.13166 0.763 0.0
C1552 C 0.76529 0.127 0.77176 0.0
C1553 C 0.73668 0.12369 0.76622 0.0
H1554 H 0.74961 0.09848 0.79722 0.0
H1555 H 0.77678 0.13286 0.76908 0.0
O1556 O 0.82115 0.10028 0.81141 0.0
O1557 O 0.79059 0.08488 0.79485 0.0
O1558 O 0.78596 0.11505 0.8175 0.0
O1559 O 0.80344 0.11934 0.7839 0.0
H1560 H 0.83678 0.07228 0.80526 0.0
H1561 H 0.82371 0.10714 0.84336 0.0
H1562 H 0.85113 0.05546 0.82642 0.0
H1563 H 0.8382 0.08965 0.86389 0.0
H1564 H 0.75574 0.0709 0.75344 0.0
H1565 H 0.76987 0.06714 0.81273 0.0
H1566 H 0.78038 0.08525 0.7637 0.0
H1567 H 0.74547 0.05314 0.8016 0.0
H1568 H 0.79612 0.03784 0.83926 0.0
H1569 H 0.76615 0.07442 0.86383 0.0
H1570 H 0.86287 0.08366 0.76062 0.0
H1571 H 0.82149 0.05371 0.74689 0.0
H1572 H 0.76646 0.13949 0.80838 0.0
H1573 H 0.79871 0.12235 0.84669 0.0
H1574 H 0.76173 0.16513 0.82464 0.0
H1575 H 0.79348 0.14834 0.86225 0.0
H1576 H 0.83202 0.13433 0.78284 0.0
H1577 H 0.79538 0.11003 0.75358 0.0
H1578 H 0.84837 0.1383 0.75735 0.0
H1579 H 0.81244 0.11432 0.7286 0.0
H1580 H 0.8513 0.15858 0.82859 0.0
H1581 H 0.81121 0.17999 0.80137 0.0
H1582 H 0.72471 0.1053 0.78149 0.0
H1583 H 0.75241 0.14099 0.7534 0.0
Li1584 Li 0.15015 0.54882 0.07793 0.0
Li1585 Li 0.12541 0.56222 0.07142 0.0
Li1586 Li 0.1349 0.53982 0.05407 0.0
Li1587 Li 0.14844 0.56633 0.0539 0.0
C1588 C 0.12828 0.52237 0.08263 0.0
N1589 N 0.12867 0.48963 0.09266 0.0
C1590 C 0.11499 0.51568 0.09103 0.0
C1591 C 0.14176 0.51239 0.0793 0.0
C1592 C 0.11542 0.4991 0.096 0.0
C1593 C 0.14174 0.49588 0.0845 0.0
C1594 C 0.14543 0.57866 0.09352 0.0
C1595 C 0.15222 0.5988 0.11448 0.0
N1596 N 0.14371 0.58987 0.12582 0.0
C1597 C 0.13675 0.56968 0.10538 0.0
C1598 C 0.15323 0.59334 0.09809 0.0
C1599 C 0.13603 0.57555 0.12165 0.0
C1600 C 0.18085 0.54311 0.08958 0.0
N1601 N 0.16506 0.54134 0.09403 0.0
C1602 C 0.17228 0.52308 0.11603 0.0
C1603 C 0.16064 0.53229 0.10749 0.0
C1604 C 0.18852 0.52351 0.11074 0.0
C1605 C 0.19289 0.5343 0.09787 0.0
H1606 H 0.18393 0.55044 0.07881 0.0
H1607 H 0.14797 0.5312 0.11079 0.0
C1608 C 0.09234 0.56335 0.07459 0.0
N1609 N 0.10583 0.57227 0.07824 0.0
C1610 C 0.07729 0.57114 0.07367 0.0
C1611 C 0.09013 0.59686 0.08168 0.0
C1612 C 0.10498 0.58856 0.08242 0.0
C1613 C 0.07619 0.5883 0.07643 0.0
H1614 H 0.09353 0.55052 0.07087 0.0
H1615 H 0.11597 0.59546 0.08483 0.0
C1616 C 0.16621 0.54027 0.04105 0.0
N1617 N 0.18218 0.53257 0.01195 0.0
C1618 C 0.15847 0.54244 0.02579 0.0
C1619 C 0.18206 0.53414 0.0415 0.0
C1620 C 0.16675 0.53849 0.01122 0.0
C1621 C 0.18994 0.53033 0.02665 0.0
C1622 C 0.11832 0.57522 0.04087 0.0
C1623 C 0.10538 0.57362 0.0298 0.0
C1624 C 0.1229 0.59098 0.04636 0.0
C1625 C 0.09722 0.58781 0.0244 0.0
C1626 C 0.11444 0.60486 0.04066 0.0
N1627 N 0.10188 0.603 0.02991 0.0
C1628 C 0.11479 0.52315 0.03178 0.0
C1629 C 0.13898 0.50852 0.03806 0.0
C1630 C 0.11079 0.51158 0.01962 0.0
N1631 N 0.12887 0.52166 0.04038 0.0
C1632 C 0.13532 0.4965 0.02621 0.0
C1633 C 0.1213 0.49826 0.01654 0.0
H1634 H 0.10698 0.53368 0.03395 0.0
H1635 H 0.15027 0.50775 0.04483 0.0
C1636 C 0.17521 0.58611 0.04587 0.0
N1637 N 0.1608 0.58046 0.03997 0.0
C1638 C 0.1859 0.59448 0.03539 0.0
C1639 C 0.1665 0.5914 0.01312 0.0
C1640 C 0.15622 0.58308 0.024 0.0
C1641 C 0.18169 0.59696 0.01869 0.0
H1642 H 0.1786 0.5836 0.05857 0.0
H1643 H 0.14489 0.57808 0.01948 0.0
O1644 O 0.12793 0.53859 0.07771 0.0
O1645 O 0.14638 0.57325 0.07748 0.0
O1646 O 0.15842 0.54412 0.05553 0.0
O1647 O 0.12596 0.56136 0.04683 0.0
H1648 H 0.10445 0.52324 0.09368 0.0
H1649 H 0.15222 0.51735 0.07294 0.0
H1650 H 0.10521 0.49376 0.10252 0.0
H1651 H 0.15213 0.48805 0.08206 0.0
H1652 H 0.15819 0.61014 0.11818 0.0
H1653 H 0.13058 0.55834 0.10213 0.0
H1654 H 0.15999 0.60043 0.08904 0.0
H1655 H 0.12936 0.56873 0.13095 0.0
H1656 H 0.16851 0.515 0.12603 0.0
H1657 H 0.20525 0.53489 0.09336 0.0
H1658 H 0.06697 0.56407 0.06932 0.0
H1659 H 0.08979 0.61007 0.08403 0.0
H1660 H 0.1462 0.54713 0.02516 0.0
H1661 H 0.18822 0.53232 0.05321 0.0
H1662 H 0.1609 0.54013 -0.00067 0.0
H1663 H 0.20221 0.52558 0.02682 0.0
H1664 H 0.10158 0.56154 0.02548 0.0
H1665 H 0.13274 0.59252 0.05507 0.0
H1666 H 0.08715 0.58673 0.01587 0.0
H1667 H 0.11782 0.61711 0.04487 0.0
H1668 H 0.09983 0.51325 0.0124 0.0
H1669 H 0.14378 0.48646 0.02399 0.0
H1670 H 0.19744 0.59869 0.04022 0.0
H1671 H 0.16288 0.59279 0.00029 0.0
Li1672 Li 0.69724 0.90492 0.32579 0.0
Li1673 Li 0.68189 0.90871 0.30047 0.0
Li1674 Li 0.68608 0.88046 0.31392 0.0
Li1675 Li 0.70865 0.89415 0.30059 0.0
C1676 C 0.66437 0.90745 0.33398 0.0
N1677 N 0.64474 0.922 0.35763 0.0
C1678 C 0.65798 0.92328 0.33133 0.0
C1679 C 0.66049 0.89888 0.3485 0.0
C1680 C 0.64816 0.93046 0.34348 0.0
C1681 C 0.65063 0.90649 0.36035 0.0
C1682 C 0.71271 0.93028 0.31084 0.0
C1683 C 0.71545 0.95895 0.31877 0.0
N1684 N 0.73128 0.9562 0.32268 0.0
C1685 C 0.72901 0.92774 0.31491 0.0
C1686 C 0.70586 0.94601 0.31276 0.0
C1687 C 0.73819 0.941 0.32091 0.0
C1688 C 0.71858 0.91238 0.35148 0.0
N1689 N 0.70394 0.91674 0.3451 0.0
C1690 C 0.7047 0.94257 0.35953 0.0
C1691 C 0.69665 0.93124 0.3494 0.0
C1692 C 0.72046 0.939 0.36506 0.0
C1693 C 0.72706 0.92333 0.36161 0.0
H1694 H 0.72448 0.90116 0.34736 0.0
H1695 H 0.68541 0.93485 0.34365 0.0
C1696 C 0.65217 0.91966 0.28636 0.0
N1697 N 0.66836 0.92254 0.28764 0.0
C1698 C 0.64251 0.92991 0.27647 0.0
C1699 C 0.66645 0.94577 0.26948 0.0
C1700 C 0.67559 0.93526 0.27949 0.0
C1701 C 0.64968 0.94317 0.26784 0.0
H1702 H 0.64678 0.9094 0.29301 0.0
H1703 H 0.68855 0.93707 0.28055 0.0
C1704 C 0.7105 0.87216 0.33488 0.0
N1705 N 0.71413 0.84904 0.35985 0.0
C1706 C 0.72143 0.85905 0.33301 0.0
C1707 C 0.70151 0.87357 0.34947 0.0
C1708 C 0.72307 0.84747 0.34577 0.0
C1709 C 0.7035 0.86175 0.36195 0.0
C1710 C 0.69269 0.88284 0.27461 0.0
C1711 C 0.69554 0.86629 0.27043 0.0
C1712 C 0.69557 0.89527 0.26292 0.0
C1713 C 0.70139 0.86246 0.25463 0.0
C1714 C 0.70144 0.89094 0.24727 0.0
N1715 N 0.70422 0.87477 0.24349 0.0
C1716 C 0.66103 0.85778 0.32206 0.0
C1717 C 0.6857 0.84609 0.3125 0.0
C1718 C 0.6536 0.84222 0.3219 0.0
N1719 N 0.67667 0.85941 0.31704 0.0
C1720 C 0.67878 0.83036 0.31208 0.0
C1721 C 0.66237 0.82832 0.31636 0.0
H1722 H 0.65412 0.86865 0.32549 0.0
H1723 H 0.69806 0.84784 0.30837 0.0
C1724 C 0.73308 0.90367 0.27825 0.0
N1725 N 0.72719 0.89073 0.28716 0.0
C1726 C 0.74531 0.90113 0.26659 0.0
C1727 C 0.74539 0.87204 0.27376 0.0
C1728 C 0.7332 0.87516 0.28535 0.0
C1729 C 0.75139 0.88507 0.26397 0.0
H1730 H 0.72784 0.91586 0.27974 0.0
H1731 H 0.72797 0.86506 0.29233 0.0
O1732 O 0.6737 0.90007 0.32206 0.0
O1733 O 0.70348 0.9174 0.30516 0.0
O1734 O 0.7085 0.88344 0.32237 0.0
O1735 O 0.68756 0.88691 0.29021 0.0
H1736 H 0.66079 0.93007 0.32015 0.0
H1737 H 0.66489 0.88643 0.35055 0.0
H1738 H 0.64328 0.94277 0.34166 0.0
H1739 H 0.64759 0.90004 0.37168 0.0
H1740 H 0.7103 0.97117 0.3204 0.0
H1741 H 0.73445 0.9156 0.31366 0.0
H1742 H 0.69321 0.94814 0.30985 0.0
H1743 H 0.75078 0.93919 0.32421 0.0
H1744 H 0.69915 0.95449 0.36195 0.0
H1745 H 0.7393 0.92014 0.3653 0.0
H1746 H 0.62961 0.92754 0.27566 0.0
H1747 H 0.67254 0.95561 0.2628 0.0
H1748 H 0.72851 0.85779 0.3218 0.0
H1749 H 0.69315 0.88374 0.35117 0.0
H1750 H 0.73143 0.83722 0.34446 0.0
H1751 H 0.69659 0.8627 0.37331 0.0
H1752 H 0.69339 0.85651 0.2793 0.0
H1753 H 0.6936 0.90815 0.266 0.0
H1754 H 0.70373 0.84972 0.25126 0.0
H1755 H 0.70387 0.90046 0.23816 0.0
H1756 H 0.64098 0.8412 0.32549 0.0
H1757 H 0.68595 0.82012 0.30744 0.0
H1758 H 0.74967 0.91156 0.25942 0.0
H1759 H 0.74948 0.85942 0.27195 0.0
Li1760 Li 0.33876 0.45144 0.57834 0.0
Li1761 Li 0.36152 0.43773 0.56742 0.0
Li1762 Li 0.35082 0.46241 0.55306 0.0
Li1763 Li 0.33542 0.43458 0.55374 0.0
C1764 C 0.36761 0.4727 0.58464 0.0
N1765 N 0.3818 0.49698 0.60396 0.0
C1766 C 0.37841 0.46835 0.59728 0.0
C1767 C 0.36424 0.48942 0.58167 0.0
C1768 C 0.3854 0.4808 0.60696 0.0
C1769 C 0.37147 0.5015 0.59162 0.0
C1770 C 0.34464 0.41953 0.59103 0.0
C1771 C 0.34345 0.3956 0.60887 0.0
N1772 N 0.3512 0.4043 0.62094 0.0
C1773 C 0.35254 0.42824 0.60362 0.0
C1774 C 0.34001 0.40309 0.59367 0.0
C1775 C 0.35576 0.42033 0.61865 0.0
C1776 C 0.31241 0.44982 0.5997 0.0
N1777 N 0.32651 0.45817 0.59714 0.0
C1778 C 0.31828 0.4796 0.61563 0.0
C1779 C 0.32993 0.47239 0.60542 0.0
C1780 C 0.30298 0.47212 0.6172 0.0
C1781 C 0.30034 0.45666 0.6097 0.0
H1782 H 0.31 0.43857 0.59284 0.0
H1783 H 0.34111 0.47887 0.60318 0.0
C1784 C 0.39512 0.43622 0.56904 0.0
N1785 N 0.38156 0.42689 0.57107 0.0
C1786 C 0.41016 0.42861 0.56701 0.0
C1787 C 0.39713 0.40199 0.57054 0.0
C1788 C 0.38231 0.41013 0.57245 0.0
C1789 C 0.41119 0.41123 0.56703 0.0
H1790 H 0.39405 0.4495 0.56762 0.0
H1791 H 0.37128 0.40301 0.57372 0.0
C1792 C 0.31427 0.46638 0.56211 0.0
N1793 N 0.2875 0.48392 0.57291 0.0
C1794 C 0.29899 0.45888 0.56235 0.0
C1795 C 0.31591 0.48285 0.56718 0.0
C1796 C 0.2856 0.46795 0.56789 0.0
C1797 C 0.30224 0.49149 0.57267 0.0
C1798 C 0.36851 0.43143 0.53591 0.0
C1799 C 0.38242 0.43934 0.52998 0.0
C1800 C 0.36724 0.41419 0.53485 0.0
C1801 C 0.39496 0.42982 0.52325 0.0
C1802 C 0.38004 0.40511 0.52803 0.0
N1803 N 0.39353 0.41305 0.52244 0.0
C1804 C 0.37081 0.48662 0.5382 0.0
C1805 C 0.34285 0.4883 0.53148 0.0
C1806 C 0.37431 0.49973 0.52749 0.0
N1807 N 0.35533 0.48108 0.53977 0.0
C1808 C 0.34577 0.50151 0.52076 0.0
C1809 C 0.36172 0.5072 0.51839 0.0
H1810 H 0.38047 0.48059 0.54499 0.0
H1811 H 0.33066 0.48359 0.53295 0.0
C1812 C 0.30864 0.41341 0.54833 0.0
N1813 N 0.32159 0.42093 0.54111 0.0
C1814 C 0.29802 0.40388 0.53877 0.0
C1815 C 0.31459 0.4097 0.51472 0.0
C1816 C 0.32472 0.4193 0.52467 0.0
C1817 C 0.301 0.40194 0.52175 0.0
H1818 H 0.30648 0.41499 0.56145 0.0
H1819 H 0.33503 0.42559 0.51927 0.0
O1820 O 0.36087 0.46068 0.57485 0.0
O1821 O 0.34144 0.42693 0.57614 0.0
O1822 O 0.32759 0.45759 0.55707 0.0
O1823 O 0.35635 0.44046 0.54309 0.0
H1824 H 0.38144 0.45551 0.59955 0.0
H1825 H 0.35605 0.49304 0.57186 0.0
H1826 H 0.39373 0.47761 0.61681 0.0
H1827 H 0.36889 0.51447 0.58951 0.0
H1828 H 0.33997 0.38286 0.61107 0.0
H1829 H 0.35606 0.44099 0.60184 0.0
H1830 H 0.33387 0.39618 0.58403 0.0
H1831 H 0.36187 0.42694 0.6285 0.0
H1832 H 0.32079 0.4916 0.62105 0.0
H1833 H 0.28874 0.45044 0.61073 0.0
H1834 H 0.42059 0.43622 0.56409 0.0
H1835 H 0.39742 0.38858 0.57081 0.0
H1836 H 0.2975 0.44616 0.55844 0.0
H1837 H 0.32763 0.48884 0.56705 0.0
H1838 H 0.27372 0.46227 0.56826 0.0
H1839 H 0.30335 0.5042 0.57678 0.0
H1840 H 0.38361 0.45266 0.53075 0.0
H1841 H 0.3566 0.40787 0.53953 0.0
H1842 H 0.40586 0.43576 0.51874 0.0
H1843 H 0.37929 0.39175 0.52728 0.0
H1844 H 0.38682 0.50351 0.52591 0.0
H1845 H 0.33566 0.50703 0.51421 0.0
H1846 H 0.28769 0.398 0.54461 0.0
H1847 H 0.31716 0.40865 0.5016 0.0
Li1848 Li 0.18024 0.62483 0.68176 0.0
Li1849 Li 0.20174 0.61637 0.70042 0.0
Li1850 Li 0.19572 0.60026 0.67513 0.0
Li1851 Li 0.17699 0.59964 0.69858 0.0
C1852 C 0.21158 0.63841 0.6759 0.0
N1853 N 0.22701 0.66875 0.67415 0.0
C1854 C 0.20708 0.65125 0.68656 0.0
C1855 C 0.22395 0.64098 0.66436 0.0
C1856 C 0.215 0.6665 0.68548 0.0
C1857 C 0.23161 0.65641 0.66366 0.0
C1858 C 0.17778 0.62949 0.72164 0.0
C1859 C 0.17774 0.62659 0.75138 0.0
N1860 N 0.17514 0.64316 0.75293 0.0
C1861 C 0.17493 0.64647 0.72352 0.0
C1862 C 0.17904 0.61944 0.73568 0.0
C1863 C 0.1737 0.65315 0.73944 0.0
C1864 C 0.15525 0.64736 0.68294 0.0
N1865 N 0.16893 0.64385 0.67427 0.0
C1866 C 0.16909 0.67092 0.66235 0.0
C1867 C 0.1754 0.65488 0.66338 0.0
C1868 C 0.15586 0.67537 0.6724 0.0
C1869 C 0.1484 0.66312 0.68212 0.0
H1870 H 0.15046 0.63833 0.69156 0.0
H1871 H 0.18621 0.6517 0.6565 0.0
C1872 C 0.23258 0.6126 0.71381 0.0
N1873 N 0.21941 0.62273 0.71422 0.0
C1874 C 0.24606 0.61593 0.72371 0.0
C1875 C 0.23255 0.64061 0.73361 0.0
C1876 C 0.21922 0.63665 0.72372 0.0
C1877 C 0.2461 0.63006 0.73381 0.0
H1878 H 0.23257 0.60182 0.70585 0.0
H1879 H 0.20878 0.64471 0.72364 0.0
C1880 C 0.1667 0.60391 0.65832 0.0
N1881 N 0.15674 0.60647 0.62572 0.0
C1882 C 0.15201 0.59688 0.6533 0.0
C1883 C 0.17635 0.61222 0.64675 0.0
C1884 C 0.14718 0.59831 0.63677 0.0
C1885 C 0.17109 0.61339 0.63033 0.0
C1886 C 0.20455 0.5795 0.70741 0.0
C1887 C 0.2075 0.56398 0.70031 0.0
C1888 C 0.20695 0.58173 0.7244 0.0
C1889 C 0.21247 0.55087 0.71041 0.0
C1890 C 0.21194 0.56831 0.73408 0.0
N1891 N 0.21455 0.55328 0.72695 0.0
C1892 C 0.22234 0.58841 0.65877 0.0
C1893 C 0.19865 0.57225 0.65445 0.0
C1894 C 0.23206 0.57578 0.65252 0.0
N1895 N 0.20608 0.58618 0.66009 0.0
C1896 C 0.20795 0.55923 0.64813 0.0
C1897 C 0.22494 0.56067 0.64786 0.0
H1898 H 0.22787 0.59947 0.66381 0.0
H1899 H 0.18573 0.57067 0.65622 0.0
C1900 C 0.15106 0.59193 0.72054 0.0
N1901 N 0.16275 0.58557 0.71051 0.0
C1902 C 0.14145 0.58138 0.73013 0.0
C1903 C 0.15574 0.55799 0.7184 0.0
C1904 C 0.1649 0.56897 0.70893 0.0
C1905 C 0.14393 0.56414 0.72937 0.0
H1906 H 0.14934 0.60519 0.72125 0.0
H1907 H 0.17391 0.56424 0.70046 0.0
O1908 O 0.20402 0.62335 0.67675 0.0
O1909 O 0.17905 0.62275 0.70612 0.0
O1910 O 0.17152 0.60257 0.67448 0.0
O1911 O 0.19979 0.59251 0.69765 0.0
H1912 H 0.19747 0.6495 0.69547 0.0
H1913 H 0.22758 0.63116 0.65601 0.0
H1914 H 0.21159 0.67656 0.69363 0.0
H1915 H 0.24121 0.65858 0.65478 0.0
H1916 H 0.17872 0.61894 0.76235 0.0
H1917 H 0.17376 0.65445 0.71282 0.0
H1918 H 0.18081 0.60624 0.73448 0.0
H1919 H 0.1716 0.66628 0.74107 0.0
H1920 H 0.17508 0.68001 0.65461 0.0
H1921 H 0.13831 0.66606 0.6902 0.0
H1922 H 0.25637 0.6076 0.72344 0.0
H1923 H 0.23212 0.65158 0.74132 0.0
H1924 H 0.14441 0.59039 0.66211 0.0
H1925 H 0.18778 0.61771 0.65033 0.0
H1926 H 0.13583 0.59293 0.63272 0.0
H1927 H 0.17843 0.61979 0.62126 0.0
H1928 H 0.20587 0.56204 0.68718 0.0
H1929 H 0.20524 0.59373 0.73005 0.0
H1930 H 0.21468 0.53878 0.70508 0.0
H1931 H 0.21383 0.56988 0.74725 0.0
H1932 H 0.2451 0.57745 0.65227 0.0
H1933 H 0.20203 0.54772 0.64478 0.0
H1934 H 0.13224 0.58669 0.73808 0.0
H1935 H 0.15823 0.54486 0.71742 0.0
Li1936 Li 0.63656 0.96227 0.94303 0.0
Li1937 Li 0.65363 0.93534 0.9428 0.0
Li1938 Li 0.65154 0.95377 0.91854 0.0
Li1939 Li 0.6289 0.93826 0.92679 0.0
C1940 C 0.67339 0.96879 0.9387 0.0
N1941 N 0.70006 0.98871 0.93307 0.0
C1942 C 0.6887 0.9617 0.93649 0.0
C1943 C 0.67163 0.986 0.93818 0.0
C1944 C 0.70204 0.97199 0.9336 0.0
C1945 C 0.68527 0.99587 0.9353 0.0
C1946 C 0.61872 0.93114 0.95774 0.0
C1947 C 0.60593 0.90523 0.96482 0.0
N1948 N 0.59234 0.9136 0.96944 0.0
C1949 C 0.6047 0.93951 0.96271 0.0
C1950 C 0.61944 0.91388 0.95896 0.0
C1951 C 0.59146 0.9304 0.96855 0.0
C1952 C 0.61937 0.9915 0.95127 0.0
N1953 N 0.63065 0.98035 0.95641 0.0
C1954 C 0.63526 0.99561 0.98126 0.0
C1955 C 0.63859 0.98212 0.97103 0.0
C1956 C 0.62367 0.00742 0.97635 0.0
C1957 C 0.61566 0.00522 0.96112 0.0
H1958 H 0.61333 0.98977 0.9395 0.0
H1959 H 0.64754 0.97302 0.9747 0.0
C1960 C 0.68081 0.91509 0.9492 0.0
N1961 N 0.66753 0.92238 0.956 0.0
C1962 C 0.69167 0.90635 0.9592 0.0
C1963 C 0.6749 0.91284 0.98294 0.0
C1964 C 0.66435 0.92138 0.97247 0.0
C1965 C 0.68884 0.9053 0.97634 0.0
H1966 H 0.68308 0.91629 0.93606 0.0
H1967 H 0.65371 0.92742 0.97749 0.0
C1968 C 0.623 0.96441 0.90419 0.0
N1969 N 0.61145 0.96943 0.87244 0.0
C1970 C 0.62335 0.95153 0.89263 0.0
C1971 C 0.61677 0.97985 0.8996 0.0
C1972 C 0.61745 0.9543 0.87665 0.0
C1973 C 0.61099 0.98215 0.88349 0.0
C1974 C 0.65099 0.91435 0.91197 0.0
C1975 C 0.65171 0.91315 0.89471 0.0
C1976 C 0.65158 0.89995 0.92159 0.0
C1977 C 0.6526 0.89752 0.88733 0.0
C1978 C 0.65249 0.88455 0.91374 0.0
N1979 N 0.65295 0.88367 0.89692 0.0
C1980 C 0.67817 0.95436 0.89712 0.0
C1981 C 0.66305 0.97935 0.89872 0.0
C1982 C 0.69103 0.96261 0.88949 0.0
N1983 N 0.66487 0.96297 0.90207 0.0
C1984 C 0.6756 0.98808 0.89118 0.0
C1985 C 0.69008 0.97983 0.88719 0.0
H1986 H 0.6794 0.94143 0.90043 0.0
H1987 H 0.65253 0.98592 0.90326 0.0
C1988 C 0.59562 0.93562 0.9237 0.0
N1989 N 0.60939 0.9267 0.9212 0.0
C1990 C 0.58073 0.92761 0.92542 0.0
C1991 C 0.59417 0.90158 0.9199 0.0
C1992 C 0.60883 0.91009 0.91847 0.0
C1993 C 0.58005 0.91024 0.92442 0.0
H1994 H 0.59644 0.94879 0.92603 0.0
H1995 H 0.61981 0.90319 0.91649 0.0
O1996 O 0.66014 0.95891 0.94121 0.0
O1997 O 0.63164 0.9398 0.95159 0.0
O1998 O 0.62885 0.96208 0.91988 0.0
O1999 O 0.65052 0.92958 0.91939 0.0
H2000 H 0.69024 0.9484 0.9368 0.0
H2001 H 0.65984 0.99167 0.9398 0.0
H2002 H 0.71395 0.96668 0.93174 0.0
H2003 H 0.68409 0.0092 0.93475 0.0
H2004 H 0.60624 0.89185 0.96566 0.0
H2005 H 0.60399 0.95288 0.96186 0.0
H2006 H 0.63024 0.90725 0.95524 0.0
H2007 H 0.58047 0.93669 0.97229 0.0
H2008 H 0.64151 0.9966 0.99302 0.0
H2009 H 0.60673 0.01407 0.9568 0.0
H2010 H 0.70236 0.90087 0.95366 0.0
H2011 H 0.67218 0.91215 0.99605 0.0
H2012 H 0.62805 0.93952 0.89598 0.0
H2013 H 0.61649 0.98999 0.90837 0.0
H2014 H 0.61764 0.94442 0.86759 0.0
H2015 H 0.60617 0.99404 0.87976 0.0
H2016 H 0.65169 0.92418 0.88708 0.0
H2017 H 0.65118 0.90063 0.93495 0.0
H2018 H 0.65308 0.89641 0.87398 0.0
H2019 H 0.65282 0.87331 0.92102 0.0
H2020 H 0.70206 0.95587 0.88672 0.0
H2021 H 0.6744 0.00134 0.88945 0.0
H2022 H 0.57025 0.93483 0.92903 0.0
H2023 H 0.59413 0.88822 0.91865 0.0
Li2024 Li 0.86021 0.03504 0.44658 0.0
Li2025 Li 0.84419 0.06246 0.44502 0.0
Li2026 Li 0.84727 0.04453 0.42104 0.0
Li2027 Li 0.86988 0.0593 0.43078 0.0
C2028 C 0.82318 0.03035 0.43953 0.0
N2029 N 0.79543 0.01239 0.43272 0.0
C2030 C 0.80798 0.03801 0.44016 0.0
C2031 C 0.82425 0.01352 0.43559 0.0
C2032 C 0.7941 0.02874 0.43661 0.0
C2033 C 0.81008 0.00466 0.43218 0.0
C2034 C 0.87744 0.06707 0.46203 0.0
C2035 C 0.88828 0.09391 0.46904 0.0
N2036 N 0.90213 0.08655 0.4745 0.0
C2037 C 0.89171 0.05974 0.46784 0.0
C2038 C 0.87563 0.08427 0.46274 0.0
C2039 C 0.90408 0.06982 0.47406 0.0
C2040 C 0.88018 0.01088 0.46216 0.0
N2041 N 0.86489 0.01699 0.46068 0.0
C2042 C 0.85487 0.99747 0.48038 0.0
C2043 C 0.85232 0.01057 0.46945 0.0
C2044 C 0.87059 0.99108 0.48253 0.0
C2045 C 0.88333 0.99784 0.47311 0.0
H2046 H 0.88994 0.01629 0.45501 0.0
H2047 H 0.84031 0.01576 0.46811 0.0
C2048 C 0.81794 0.08447 0.45063 0.0
N2049 N 0.83031 0.07589 0.45772 0.0
C2050 C 0.80698 0.0932 0.46055 0.0
C2051 C 0.82207 0.08442 0.48473 0.0
C2052 C 0.83262 0.07578 0.47438 0.0
C2053 C 0.80894 0.09313 0.47785 0.0
H2054 H 0.81639 0.08419 0.43732 0.0
H2055 H 0.84248 0.06866 0.47963 0.0
C2056 C 0.87604 0.02323 0.41524 0.0
N2057 N 0.8894 0.99757 0.39713 0.0
C2058 C 0.8867 0.0266 0.40221 0.0
C2059 C 0.87237 0.00679 0.41922 0.0
C2060 C 0.89327 0.01346 0.39315 0.0
C2061 C 0.87919 0.994 0.40987 0.0
C2062 C 0.85198 0.07565 0.4066 0.0
C2063 C 0.86001 0.06636 0.39452 0.0
C2064 C 0.84667 0.09167 0.40288 0.0
C2065 C 0.86266 0.07327 0.37889 0.0
C2066 C 0.84956 0.09816 0.3871 0.0
N2067 N 0.85743 0.0889 0.37553 0.0
C2068 C 0.81964 0.04369 0.40169 0.0
C2069 C 0.83774 0.02166 0.3958 0.0
C2070 C 0.80688 0.03521 0.39415 0.0
N2071 N 0.83438 0.03632 0.4033 0.0
C2072 C 0.8254 0.0128 0.38804 0.0
C2073 C 0.80951 0.0191 0.38816 0.0
H2074 H 0.8173 0.05532 0.40792 0.0
H2075 H 0.84954 0.0161 0.39702 0.0
C2076 C 0.90336 0.06191 0.42875 0.0
N2077 N 0.88947 0.07062 0.4263 0.0
C2078 C 0.91806 0.07021 0.43068 0.0
C2079 C 0.90408 0.09611 0.42587 0.0
C2080 C 0.88959 0.08731 0.4242 0.0
C2081 C 0.91842 0.08762 0.43002 0.0
H2082 H 0.90277 0.04867 0.43073 0.0
H2083 H 0.8783 0.09393 0.42258 0.0
O2084 O 0.83693 0.03928 0.44283 0.0
O2085 O 0.86543 0.05748 0.45536 0.0
O2086 O 0.86974 0.03594 0.42442 0.0
O2087 O 0.84931 0.06924 0.42204 0.0
H2088 H 0.80693 0.05102 0.44322 0.0
H2089 H 0.8359 0.00739 0.43509 0.0
H2090 H 0.78227 0.03453 0.43692 0.0
H2091 H 0.81075 0.99164 0.42908 0.0
H2092 H 0.88713 0.10726 0.4695 0.0
H2093 H 0.8933 0.04644 0.46734 0.0
H2094 H 0.86467 0.09012 0.4582 0.0
H2095 H 0.91526 0.06435 0.47846 0.0
H2096 H 0.84463 0.99252 0.48717 0.0
H2097 H 0.89568 0.99349 0.47452 0.0
H2098 H 0.79708 0.09987 0.45478 0.0
H2099 H 0.82387 0.08383 0.49801 0.0
H2100 H 0.88993 0.03924 0.39915 0.0
H2101 H 0.86425 0.00392 0.42932 0.0
H2102 H 0.90149 0.0159 0.38299 0.0
H2103 H 0.87637 0.98123 0.41275 0.0
H2104 H 0.86407 0.05392 0.39713 0.0
H2105 H 0.84043 0.09902 0.41211 0.0
H2106 H 0.86886 0.0662 0.36942 0.0
H2107 H 0.84555 0.11055 0.38405 0.0
H2108 H 0.79482 0.04052 0.39454 0.0
H2109 H 0.828 0.00058 0.38315 0.0
H2110 H 0.92869 0.0631 0.4341 0.0
H2111 H 0.90383 0.10949 0.42498 0.0
H2112 H 0.10255 0.18694 0.48904 0.0
H2113 H 0.14333 0.27315 0.46694 0.0
H2114 H 0.1155 0.22234 0.52685 0.0
H2115 H 0.11382 0.24545 0.43245 0.0
H2116 H 0.13494 0.25435 0.48903 0.0
H2117 H 0.10943 0.20731 0.46785 0.0
C2118 C 0.10711 0.19893 0.49286 0.0
C2119 C 0.10862 0.20295 0.50969 0.0
C2120 C 0.13017 0.25254 0.47666 0.0
C2121 C 0.1162 0.22641 0.48554 0.0
C2122 C 0.13481 0.26336 0.46406 0.0
C2123 C 0.12931 0.26086 0.44776 0.0
C2124 C 0.12016 0.23901 0.4729 0.0
C2125 C 0.11858 0.2477 0.44475 0.0
C2126 C 0.11081 0.21062 0.48077 0.0
C2127 C 0.1142 0.2188 0.51398 0.0
N2128 N 0.1145 0.23716 0.45716 0.0
N2129 N 0.11787 0.22998 0.50195 0.0
H2130 H 0.00158 0.91281 0.70475 0.0
H2131 H 0.02677 0.84676 0.77333 0.0
H2132 H 0.97393 0.8685 0.71447 0.0
H2133 H 0.05315 0.89184 0.76334 0.0
H2134 H 0.00524 0.85609 0.75472 0.0
H2135 H 0.01868 0.90672 0.72854 0.0
C2136 C -0.00082 0.90172 0.7119 0.0
C2137 C 0.98659 0.89092 0.70745 0.0
C2138 C 0.01561 0.86406 0.7568 0.0
C2139 C 0.00604 0.88391 0.73487 0.0
C2140 C 0.02785 0.85881 0.76754 0.0
C2141 C 0.04183 0.8685 0.76976 0.0
C2142 C 0.01742 0.87907 0.74822 0.0
C2143 C 0.04268 0.88389 0.76177 0.0
C2144 C 0.00886 0.89832 0.72558 0.0
C2145 C 0.98365 0.87703 0.71743 0.0
N2146 N 0.03073 0.88861 0.75123 0.0
N2147 N 0.99346 0.87379 0.7306 0.0
H2148 H 0.38236 0.71825 0.9548 0.0
H2149 H 0.36956 0.78777 0.02441 0.0
H2150 H 0.3355 0.73706 0.96968 0.0
H2151 H 0.4161 0.77552 0.00307 0.0
H2152 H 0.35698 0.76663 0.0069 0.0
H2153 H 0.39515 0.73665 0.97504 0.0
C2154 C 0.37476 0.72617 0.96235 0.0
C2155 C 0.35784 0.72609 0.96052 0.0
C2156 C 0.36997 0.76852 0.00615 0.0
C2157 C 0.37235 0.74706 0.98374 0.0
C2158 C 0.37713 0.78063 0.01608 0.0
C2159 C 0.3939 0.78344 0.01521 0.0
C2160 C 0.37964 0.75918 0.99527 0.0
C2161 C 0.40316 0.77363 0.00436 0.0
C2162 C 0.38206 0.73663 0.97394 0.0
C2163 C 0.34858 0.73647 0.97082 0.0
N2164 N 0.3959 0.76199 0.99478 0.0
N2165 N 0.35595 0.74657 0.98192 0.0
H2166 H 0.52348 0.10327 0.21526 0.0
H2167 H 0.43427 0.1334 0.23908 0.0
H2168 H 0.48808 0.12049 0.17979 0.0
H2169 H 0.47169 0.1254 0.27566 0.0
H2170 H 0.45369 0.12696 0.21732 0.0
H2171 H 0.50499 0.11091 0.23771 0.0
C2172 C 0.51196 0.10897 0.2122 0.0
C2173 C 0.50726 0.11117 0.19562 0.0
C2174 C 0.45767 0.12653 0.2301 0.0
C2175 C 0.48593 0.11948 0.22119 0.0
C2176 C 0.44652 0.12997 0.24256 0.0
C2177 C 0.45134 0.1298 0.25923 0.0
C2178 C 0.4738 0.12285 0.23428 0.0
C2179 C 0.46749 0.12571 0.26295 0.0
C2180 C 0.50136 0.11316 0.22502 0.0
C2181 C 0.49209 0.11835 0.19239 0.0
N2182 N 0.47818 0.12238 0.25055 0.0
N2183 N 0.48192 0.12212 0.20504 0.0
H2184 H 0.63741 0.25514 0.56256 0.0
H2185 H 0.60133 0.27923 0.47474 0.0
H2186 H 0.63217 0.21884 0.52369 0.0
H2187 H 0.62716 0.31391 0.50585 0.0
H2188 H 0.60971 0.25676 0.49314 0.0
H2189 H 0.62957 0.27684 0.54303 0.0
C2190 C 0.63431 0.25172 0.54997 0.0
C2191 C 0.63532 0.2352 0.54471 0.0
C2192 C 0.61364 0.26929 0.4958 0.0
C2193 C 0.62665 0.25994 0.52229 0.0
C2194 C 0.60902 0.28212 0.48522 0.0
C2195 C 0.61351 0.29855 0.48875 0.0
C2196 C 0.62257 0.27295 0.51013 0.0
C2197 C 0.62316 0.30151 0.50278 0.0
C2198 C 0.63007 0.26412 0.5388 0.0
C2199 C 0.63152 0.23146 0.52818 0.0
N2200 N 0.62722 0.28887 0.51305 0.0
N2201 N 0.62729 0.24376 0.51752 0.0
H2202 H 0.96561 0.37729 0.71921 0.0
H2203 H -0.00074 0.36112 0.81085 0.0
H2204 H 0.93826 0.35401 0.75844 0.0
H2205 H 0.02244 0.39455 0.77647 0.0
H2206 H 0.97891 0.35475 0.78981 0.0
H2207 H 0.98836 0.38094 0.73851 0.0
C2208 C 0.96435 0.37305 0.73188 0.0
C2209 C 0.94995 0.36549 0.73725 0.0
C2210 C 0.98855 0.36336 0.78681 0.0
C2211 C 0.97591 0.36933 0.75921 0.0
C2212 C 0.00019 0.36694 0.79879 0.0
C2213 C 0.01247 0.37848 0.79546 0.0
C2214 C 0.98917 0.37138 0.77138 0.0
C2215 C 0.01325 0.38548 0.77954 0.0
C2216 C 0.97732 0.37509 0.74285 0.0
C2217 C 0.94898 0.36019 0.75379 0.0
N2218 N 0.00163 0.38195 0.76812 0.0
N2219 N 0.96178 0.36216 0.76414 0.0
H2220 H 0.87294 0.77931 0.03136 0.0
H2221 H 0.87483 0.68631 0.99783 0.0
H2222 H 0.84799 0.73849 0.05473 0.0
H2223 H 0.89488 0.72761 0.97068 0.0
H2224 H 0.86353 0.70563 0.01791 0.0
H2225 H 0.88047 0.76089 0.0085 0.0
C2226 C 0.86908 0.76649 0.03171 0.0
C2227 C 0.86005 0.76038 0.04511 0.0
C2228 C 0.87025 0.7105 0.00747 0.0
C2229 C 0.86852 0.7393 0.01903 0.0
C2230 C 0.87657 0.69947 0.99587 0.0
C2231 C 0.88595 0.70532 0.98261 0.0
C2232 C 0.87344 0.72753 0.00589 0.0
C2233 C 0.888 0.72252 0.9809 0.0
C2234 C 0.87335 0.756 0.01865 0.0
C2235 C 0.85535 0.74365 0.0449 0.0
N2236 N 0.88196 0.73302 0.99252 0.0
N2237 N 0.85968 0.73371 0.03211 0.0
H2238 H 0.55831 0.60465 0.24836 0.0
H2239 H 0.46966 0.62548 0.28295 0.0
H2240 H 0.52833 0.64353 0.22799 0.0
H2241 H 0.50592 0.59807 0.31008 0.0
H2242 H 0.48922 0.62928 0.2603 0.0
H2243 H 0.53693 0.59844 0.26834 0.0
C2244 C 0.54717 0.61175 0.24796 0.0
C2245 C 0.54523 0.62478 0.23661 0.0
C2246 C 0.49287 0.62251 0.27126 0.0
C2247 C 0.52073 0.61775 0.25945 0.0
C2248 C 0.48177 0.6204 0.28417 0.0
C2249 C 0.48631 0.6117 0.29848 0.0
C2250 C 0.50847 0.61561 0.27263 0.0
C2251 C 0.50207 0.6052 0.29943 0.0
C2252 C 0.53499 0.60823 0.25938 0.0
C2253 C 0.53037 0.63334 0.23644 0.0
N2254 N 0.51256 0.60724 0.28666 0.0
N2255 N 0.51874 0.62978 0.24781 0.0
H2256 H 0.27337 0.4697 0.14443 0.0
H2257 H 0.18374 0.49039 0.11436 0.0
H2258 H 0.24166 0.43369 0.12164 0.0
H2259 H 0.22027 0.52828 0.11991 0.0
H2260 H 0.20412 0.46936 0.12063 0.0
H2261 H 0.25376 0.49139 0.13782 0.0
C2262 C 0.26245 0.46636 0.13777 0.0
C2263 C 0.25916 0.44977 0.13364 0.0
C2264 C 0.20767 0.48228 0.12056 0.0
C2265 C 0.23646 0.47451 0.12659 0.0
C2266 C 0.196 0.4943 0.11722 0.0
C2267 C 0.20033 0.51109 0.11673 0.0
C2268 C 0.22376 0.48708 0.12355 0.0
C2269 C 0.21647 0.51544 0.12015 0.0
C2270 C 0.25119 0.47875 0.13417 0.0
C2271 C 0.2446 0.44622 0.12534 0.0
N2272 N 0.22764 0.50349 0.12345 0.0
N2273 N 0.23372 0.45846 0.12223 0.0
H2274 H 0.71227 0.97317 0.86271 0.0
H2275 H 0.76657 0.0526 0.88403 0.0
H2276 H 0.70134 0.00798 0.90172 0.0
H2277 H 0.76991 0.02565 0.83791 0.0
H2278 H 0.74598 0.03295 0.89347 0.0
H2279 H 0.73664 0.98928 0.85598 0.0
C2280 C 0.71502 0.98418 0.86984 0.0
C2281 C 0.70468 0.98942 0.8826 0.0
C2282 C 0.7514 0.03125 0.88137 0.0
C2283 C 0.73249 0.0077 0.87518 0.0
C2284 C 0.76314 0.04245 0.87598 0.0
C2285 C 0.7699 0.04089 0.8601 0.0
C2286 C 0.74639 0.0184 0.87081 0.0
C2287 C 0.76519 0.0273 0.85031 0.0
C2288 C 0.72889 0.99335 0.86602 0.0
C2289 C 0.70881 0.00372 0.89155 0.0
N2290 N 0.75362 0.01668 0.85577 0.0
N2291 N 0.72238 0.01237 0.88766 0.0
H2292 H 0.74318 0.93673 0.38984 0.0
H2293 H 0.78118 0.02615 0.37144 0.0
H2294 H 0.72224 0.97137 0.35511 0.0
H2295 H 0.80587 0.987 0.39777 0.0
H2296 H 0.75762 0.00786 0.36813 0.0
H2297 H 0.76412 0.95709 0.39641 0.0
C2298 C 0.74286 0.94869 0.38375 0.0
C2299 C 0.73105 0.95225 0.37176 0.0
C2300 C 0.76824 0.00331 0.37459 0.0
C2301 C 0.75502 0.97556 0.37913 0.0
C2302 C 0.78167 0.01371 0.37645 0.0
C2303 C 0.79559 0.00803 0.3847 0.0
C2304 C 0.7687 0.98722 0.38123 0.0
C2305 C 0.79556 0.99181 0.39101 0.0
C2306 C 0.75484 0.96029 0.38747 0.0
C2307 C 0.73105 0.96808 0.36449 0.0
N2308 N 0.78234 0.98201 0.38916 0.0
N2309 N 0.74298 0.97909 0.36814 0.0
H2310 H 0.25153 0.55079 0.66525 0.0
H2311 H 0.27216 0.47525 0.60509 0.0
H2312 H 0.22162 0.53695 0.62359 0.0
H2313 H 0.30293 0.49114 0.64535 0.0
H2314 H 0.25161 0.49512 0.61398 0.0
H2315 H 0.26884 0.52695 0.65995 0.0
C2316 C 0.24869 0.54279 0.65487 0.0
C2317 C 0.23531 0.54605 0.64461 0.0
C2318 C 0.26276 0.49411 0.62101 0.0
C2319 C 0.25495 0.51848 0.63866 0.0
C2320 C 0.27445 0.48264 0.61605 0.0
C2321 C 0.28935 0.48164 0.62443 0.0
C2322 C 0.26602 0.50466 0.63442 0.0
C2323 C 0.29171 0.49169 0.6384 0.0
C2324 C 0.2585 0.52907 0.65195 0.0
C2325 C 0.23188 0.53494 0.63172 0.0
N2326 N 0.28023 0.50289 0.64286 0.0
N2327 N 0.24174 0.52169 0.62901 0.0
H2328 H 0.309 0.37829 0.49902 0.0
H2329 H 0.2198 0.36983 0.46211 0.0
H2330 H 0.26784 0.40342 0.52043 0.0
H2331 H 0.2579 0.33428 0.45272 0.0
H2332 H 0.23731 0.38342 0.48246 0.0
H2333 H 0.29065 0.36324 0.48059 0.0
C2334 C 0.29607 0.3806 0.49984 0.0
C2335 C 0.2899 0.39211 0.51121 0.0
C2336 C 0.24177 0.3726 0.47596 0.0
C2337 C 0.26885 0.37504 0.49014 0.0
C2338 C 0.23177 0.36479 0.46438 0.0
C2339 C 0.23739 0.35094 0.45553 0.0
C2340 C 0.25756 0.36662 0.47862 0.0
C2341 C 0.25313 0.34513 0.4589 0.0
C2342 C 0.2856 0.37197 0.48938 0.0
C2343 C 0.27305 0.39455 0.51189 0.0
N2344 N 0.26268 0.35306 0.47008 0.0
N2345 N 0.26309 0.38618 0.50138 0.0
H2346 H 0.8781 0.00572 0.6719 0.0
H2347 H 0.87391 0.05501 0.75794 0.0
H2348 H 0.91257 -0.00091 0.71161 0.0
H2349 H 0.83646 0.05702 0.72062 0.0
H2350 H 0.88965 0.03659 0.74002 0.0
H2351 H 0.86394 0.02644 0.6886 0.0
C2352 C 0.88274 0.00869 0.6841 0.0
C2353 C 0.8965 0.00062 0.6904 0.0
C2354 C 0.87802 0.04112 0.73572 0.0
C2355 C 0.88032 0.02426 0.70961 0.0
C2356 C 0.86909 0.05174 0.74588 0.0
C2357 C 0.85382 0.05748 0.74078 0.0
C2358 C 0.87165 0.03627 0.72032 0.0
C2359 C 0.84808 0.05268 0.72512 0.0
C2360 C 0.87461 0.02046 0.69365 0.0
C2361 C 0.90187 0.00483 0.70636 0.0
N2362 N 0.85697 0.04233 0.71547 0.0
N2363 N 0.89377 0.01636 0.71542 0.0
H2364 H 0.22659 0.65001 0.93755 0.0
H2365 H 0.2144 0.59139 0.01655 0.0
H2366 H 0.26534 0.62219 0.96039 0.0
H2367 H 0.17563 0.6192 0.99373 0.0
H2368 H 0.23327 0.60266 0.99617 0.0
H2369 H 0.20762 0.63839 0.95764 0.0
C2370 C 0.23108 0.64129 0.94666 0.0
C2371 C 0.24759 0.63705 0.94727 0.0
C2372 C 0.22064 0.60634 0.99563 0.0
C2373 C 0.22597 0.62393 0.97053 0.0
C2374 C 0.20988 0.60002 0.00737 0.0
C2375 C 0.1934 0.6044 0.00689 0.0
C2376 C 0.21491 0.61712 0.9833 0.0
C2377 C 0.18819 0.61536 0.99447 0.0
C2378 C 0.22026 0.63477 0.95823 0.0
C2379 C 0.25276 0.62594 0.95957 0.0
N2380 N 0.1989 0.62134 0.98317 0.0
N2381 N 0.24199 0.61979 0.97072 0.0
H2382 H 0.58393 0.98129 0.1933 0.0
H2383 H 0.65198 0.97682 0.26388 0.0
H2384 H 0.61523 0.02222 0.20613 0.0
H2385 H 0.62516 0.93423 0.24662 0.0
H2386 H 0.63711 0.99414 0.24429 0.0
H2387 H 0.59754 0.96431 0.21412 0.0
C2388 C 0.59373 0.98669 0.20042 0.0
C2389 C 0.5985 0.0032 0.19787 0.0
C2390 C 0.63444 0.98102 0.24482 0.0
C2391 C 0.61397 0.98387 0.22193 0.0
C2392 C 0.64297 0.9711 0.25596 0.0
C2393 C 0.63991 0.954 0.25682 0.0
C2394 C 0.62272 0.97383 0.23445 0.0
C2395 C 0.62784 0.94736 0.2465 0.0
C2396 C 0.60142 0.97701 0.21239 0.0
C2397 C 0.61104 0.00962 0.20775 0.0
N2398 N 0.61974 0.95727 0.23569 0.0
N2399 N 0.61835 -7e-05 0.21932 0.0
H2400 H 0.76339 0.14662 0.55808 0.0
H2401 H 0.77577 0.09318 0.47551 0.0
H2402 H 0.72393 0.12344 0.5316 0.0
H2403 H 0.81515 0.11203 0.50528 0.0
H2404 H 0.75644 0.10567 0.49483 0.0
H2405 H 0.78241 0.135 0.53811 0.0
C2406 C 0.75872 0.13893 0.54817 0.0
C2407 C 0.74202 0.13591 0.54661 0.0
C2408 C 0.76931 0.10711 0.49711 0.0
C2409 C 0.76377 0.12283 0.52344 0.0
C2410 C 0.78034 0.1001 0.48601 0.0
C2411 C 0.79709 0.10153 0.48883 0.0
C2412 C 0.77507 0.11567 0.51107 0.0
C2413 C 0.80234 0.11044 0.50276 0.0
C2414 C 0.7696 0.13241 0.53668 0.0
C2415 C 0.73668 0.1262 0.53323 0.0
N2416 N 0.79138 0.11715 0.51336 0.0
N2417 N 0.74752 0.12 0.52216 0.0
H2418 H 0.13306 0.53266 0.72228 0.0
H2419 H 0.08901 0.51847 0.8088 0.0
H2420 H 0.13365 0.56923 0.76139 0.0
H2421 H 0.10694 0.47815 0.77868 0.0
H2422 H 0.10177 0.53808 0.78983 0.0
H2423 H 0.11963 0.51334 0.74104 0.0
C2424 C 0.13043 0.53666 0.73479 0.0
C2425 C 0.13467 0.55263 0.74025 0.0
C2426 C 0.10289 0.52492 0.78743 0.0
C2427 C 0.11893 0.53061 0.76166 0.0
C2428 C 0.09572 0.51368 0.79831 0.0
C2429 C 0.09693 0.49654 0.79545 0.0
C2430 C 0.11115 0.51904 0.77343 0.0
C2431 C 0.10544 0.4912 0.78133 0.0
C2432 C 0.12269 0.52562 0.74547 0.0
C2433 C 0.13048 0.55717 0.75651 0.0
N2434 N 0.11217 0.50241 0.77083 0.0
N2435 N 0.12285 0.54622 0.76664 0.0
H2436 H 0.69998 0.91532 0.00667 0.0
H2437 H 0.75355 0.83402 0.02169 0.0
H2438 H 0.70435 0.87572 0.97101 0.0
H2439 H 0.75261 0.87565 0.05523 0.0
H2440 H 0.73545 0.84903 0.003 0.0
H2441 H 0.71905 0.90084 0.02475 0.0
C2442 C 0.7049 0.90353 0.00268 0.0
C2443 C 0.70052 0.89667 0.98734 0.0
C2444 C 0.73925 0.85492 0.01441 0.0
C2445 C 0.72247 0.8801 0.00791 0.0
C2446 C 0.74952 0.84633 0.02512 0.0
C2447 C 0.75454 0.85358 0.04007 0.0
C2448 C 0.73387 0.87086 0.01871 0.0
C2449 C 0.74915 0.86965 0.04377 0.0
C2450 C 0.71587 0.89532 0.01296 0.0
C2451 C 0.70749 0.88151 0.98267 0.0
N2452 N 0.73904 0.87772 0.0332 0.0
N2453 N 0.71807 0.8737 0.99295 0.0
H2454 H 0.35442 0.43517 0.26169 0.0
H2455 H 0.3879 0.52677 0.27785 0.0
H2456 H 0.36034 0.47167 0.22304 0.0
H2457 H 0.38896 0.48784 0.31453 0.0
H2458 H 0.37607 0.50733 0.25805 0.0
H2459 H 0.36571 0.45477 0.28158 0.0
C2460 C 0.35825 0.44724 0.25733 0.0
C2461 C 0.35648 0.45173 0.24062 0.0
C2462 C 0.37885 0.50306 0.27045 0.0
C2463 C 0.36912 0.47439 0.26347 0.0
C2464 C 0.38564 0.51414 0.28176 0.0
C2465 C 0.3895 0.50893 0.29788 0.0
C2466 C 0.37584 0.48664 0.27529 0.0
C2467 C 0.38601 0.49248 0.30232 0.0
C2468 C 0.36458 0.45848 0.26874 0.0
C2469 C 0.36131 0.46771 0.23581 0.0
N2470 N 0.37944 0.48192 0.29107 0.0
N2471 N 0.36739 0.47846 0.24718 0.0
H2472 H 0.48811 0.29269 0.41711 0.0
H2473 H 0.47266 0.23218 0.34021 0.0
H2474 H 0.52118 0.28835 0.37585 0.0
H2475 H 0.43677 0.24314 0.37756 0.0
H2476 H 0.49177 0.25054 0.35441 0.0
H2477 H 0.47025 0.27257 0.40396 0.0
C2478 C 0.49159 0.28758 0.40522 0.0
C2479 C 0.50609 0.2924 0.39748 0.0
C2480 C 0.47973 0.24889 0.35952 0.0
C2481 C 0.48575 0.26908 0.38245 0.0
C2482 C 0.46886 0.23833 0.35149 0.0
C2483 C 0.45309 0.23617 0.35771 0.0
C2484 C 0.47482 0.25727 0.37392 0.0
C2485 C 0.44874 0.2446 0.37224 0.0
C2486 C 0.48141 0.276 0.39777 0.0
C2487 C 0.51016 0.28497 0.38231 0.0
N2488 N 0.45953 0.25478 0.37984 0.0
N2489 N 0.5 0.27371 0.37525 0.0
H2490 H 0.0026 0.18325 0.63422 0.0
H2491 H 0.95963 0.27179 0.62884 0.0
H2492 H 0.01533 0.22026 0.59791 0.0
H2493 H 0.95429 0.23865 0.6705 0.0
H2494 H 0.97979 0.25298 0.61705 0.0
H2495 H 0.98438 0.2032 0.64743 0.0
C2496 C 0.00159 0.1956 0.62909 0.0
C2497 C 0.01047 0.20012 0.61498 0.0
C2498 C 0.97424 0.24986 0.6288 0.0
C2499 C 0.98963 0.22298 0.62993 0.0
C2500 C 0.96277 0.26063 0.63558 0.0
C2501 C 0.95514 0.25677 0.65065 0.0
C2502 C 0.97807 0.23507 0.6371 0.0
C2503 C 0.95957 0.242 0.65869 0.0
C2504 C 0.99125 0.207 0.63665 0.0
C2505 C 0.00883 0.21633 0.60889 0.0
N2506 N 0.97067 0.23167 0.65178 0.0
N2507 N -0.00148 0.22714 0.61633 0.0
H2508 H 0.00242 0.67959 0.86904 0.0
H2509 H 0.05025 0.76592 0.87166 0.0
H2510 H -0.00192 0.71526 0.90864 0.0
H2511 H 0.05118 0.73281 0.82964 0.0
H2512 H 0.03201 0.74684 0.88587 0.0
H2513 H 0.02139 0.69818 0.85494 0.0
C2514 C 0.00549 0.6913 0.87478 0.0
C2515 C -0.00142 0.69593 0.88998 0.0
C2516 C 0.03621 0.74373 0.87355 0.0
C2517 C 0.02021 0.71725 0.87393 0.0
C2518 C 0.04657 0.75467 0.86538 0.0
C2519 C 0.05222 0.75101 0.8494 0.0
C2520 C 0.03145 0.72898 0.8657 0.0
C2521 C 0.04728 0.73607 0.84203 0.0
C2522 C 0.01626 0.70194 0.8667 0.0
C2523 C 0.0029 0.71131 0.89681 0.0
N2524 N 0.03715 0.72561 0.85023 0.0
N2525 N 0.01343 0.7214 0.88874 0.0
H2526 H 0.5263 0.72677 0.15609 0.0
H2527 H 0.51898 0.81214 0.10623 0.0
H2528 H 0.567 0.75881 0.14588 0.0
H2529 H 0.47769 0.78274 0.12101 0.0
H2530 H 0.53678 0.79277 0.12069 0.0
H2531 H 0.50834 0.74682 0.14269 0.0
C2532 C 0.53147 0.73797 0.15093 0.0
C2533 C 0.54817 0.74112 0.1521 0.0
C2534 C 0.52382 0.79059 0.12083 0.0
C2535 C 0.52769 0.7642 0.1369 0.0
C2536 C 0.51363 0.80173 0.11268 0.0
C2537 C 0.4968 0.79907 0.11236 0.0
C2538 C 0.51717 0.77663 0.12868 0.0
C2539 C 0.4906 0.78517 0.12071 0.0
C2540 C 0.5212 0.74947 0.14339 0.0
C2541 C 0.55418 0.75596 0.14541 0.0
N2542 N 0.50079 0.77445 0.12847 0.0
N2543 N 0.54395 0.76693 0.13807 0.0
H2544 H 0.2025 0.36829 0.32769 0.0
H2545 H 0.22699 0.35564 0.23357 0.0
H2546 H 0.17812 0.33379 0.29523 0.0
H2547 H 0.24674 0.39402 0.26489 0.0
H2548 H 0.20667 0.34968 0.2548 0.0
H2549 H 0.21605 0.38033 0.30385 0.0
C2550 C 0.19963 0.3635 0.31551 0.0
C2551 C 0.18922 0.34987 0.31353 0.0
C2552 C 0.21533 0.35954 0.25695 0.0
C2553 C 0.20524 0.36331 0.28611 0.0
C2554 C 0.2269 0.36298 0.2448 0.0
C2555 C 0.23875 0.37516 0.24758 0.0
C2556 C 0.21566 0.36828 0.27199 0.0
C2557 C 0.2381 0.38422 0.26241 0.0
C2558 C 0.20755 0.3703 0.30186 0.0
C2559 C 0.1863 0.34406 0.29739 0.0
N2560 N 0.22688 0.38048 0.27412 0.0
N2561 N 0.19446 0.35064 0.28433 0.0
H2562 H 0.85672 0.98814 0.5132 0.0
H2563 H 0.91701 0.91729 0.54377 0.0
H2564 H 0.89179 0.96467 0.4811 0.0
H2565 H 0.88278 0.94306 0.57506 0.0
H2566 H 0.90502 0.93092 0.51959 0.0
H2567 H 0.86319 0.9682 0.53472 0.0
C2568 C 0.86562 0.97863 0.51054 0.0
C2569 C 0.87377 0.97818 0.49527 0.0
C2570 C 0.89998 0.93333 0.53174 0.0
C2571 C 0.88156 0.95541 0.52019 0.0
C2572 C 0.90682 0.92557 0.54556 0.0
C2573 C 0.90108 0.92916 0.56156 0.0
C2574 C 0.88733 0.94478 0.53396 0.0
C2575 C 0.88763 0.93976 0.56305 0.0
C2576 C 0.86939 0.96728 0.52293 0.0
C2577 C 0.88541 0.9657 0.49277 0.0
N2578 N 0.88138 0.94733 0.54948 0.0
N2579 N 0.88907 0.9549 0.50516 0.0
H2580 H 0.26244 0.65923 0.73805 0.0
H2581 H 0.3002 0.63283 0.82277 0.0
H2582 H 0.26087 0.60863 0.75514 0.0
H2583 H 0.319 0.67461 0.79531 0.0
H2584 H 0.28661 0.62324 0.79789 0.0
H2585 H 0.28343 0.66521 0.75871 0.0
C2586 C 0.26664 0.64937 0.74608 0.0
C2587 C 0.25988 0.63347 0.74503 0.0
C2588 C 0.29396 0.63434 0.79723 0.0
C2589 C 0.2837 0.64018 0.76867 0.0
C2590 C 0.30191 0.6398 0.81145 0.0
C2591 C 0.3107 0.65473 0.81131 0.0
C2592 C 0.29448 0.64401 0.78281 0.0
C2593 C 0.31203 0.66328 0.79619 0.0
C2594 C 0.27868 0.65273 0.75776 0.0
C2595 C 0.26582 0.62105 0.75557 0.0
N2596 N 0.30373 0.65798 0.78263 0.0
N2597 N 0.27723 0.62474 0.76714 0.0
H2598 H 0.57129 0.06773 0.0449 0.0
H2599 H 0.64427 0.02621 0.99538 0.0
H2600 H 0.62077 0.06677 0.06241 0.0
H2601 H 0.59367 0.0207 0.98268 0.0
H2602 H 0.63676 0.04668 0.01633 0.0
H2603 H 0.5804 0.05694 0.01829 0.0
C2604 C 0.58415 0.06573 0.043 0.0
C2605 C 0.59526 0.06793 0.05601 0.0
C2606 C 0.62733 0.04114 0.0088 0.0
C2607 C 0.6057 0.05512 0.02567 0.0
C2608 C 0.63159 0.02938 0.99691 0.0
C2609 C 0.61955 0.02147 0.98746 0.0
C2610 C 0.61091 0.04504 0.01129 0.0
C2611 C 0.60337 0.02643 0.98966 0.0
C2612 C 0.58932 0.05938 0.02784 0.0
C2613 C 0.61175 0.06492 0.05284 0.0
N2614 N 0.59951 0.03774 0.00149 0.0
N2615 N 0.61644 0.05842 0.03807 0.0
H2616 H 0.68818 0.12805 0.67576 0.0
H2617 H 0.72218 0.15359 0.76115 0.0
H2618 H 0.66933 0.17111 0.70115 0.0
H2619 H 0.71957 0.10217 0.74705 0.0
H2620 H 0.702 0.16023 0.73985 0.0
H2621 H 0.69847 0.11768 0.70199 0.0
C2622 C 0.68575 0.13516 0.68686 0.0
C2623 C 0.67803 0.15068 0.68607 0.0
C2624 C 0.70555 0.14744 0.74167 0.0
C2625 C 0.69043 0.13902 0.71616 0.0
C2626 C 0.71706 0.14368 0.75376 0.0
C2627 C 0.72249 0.12736 0.75572 0.0
C2628 C 0.69983 0.13483 0.73119 0.0
C2629 C 0.7156 0.1149 0.74588 0.0
C2630 C 0.69178 0.12923 0.70187 0.0
C2631 C 0.67562 0.15934 0.701 0.0
N2632 N 0.70485 0.11894 0.73376 0.0
N2633 N 0.68213 0.15358 0.71536 0.0
H2634 H 0.12028 0.46425 0.01589 0.0
H2635 H 0.10947 0.46156 0.91772 0.0
H2636 H 0.11629 0.50742 0.98469 0.0
H2637 H 0.09168 0.42201 0.94882 0.0
H2638 H 0.11888 0.47612 0.94227 0.0
H2639 H 0.11559 0.44657 0.99142 0.0
C2640 C 0.11844 0.46995 0.00389 0.0
C2641 C 0.11845 0.48725 0.00223 0.0
C2642 C 0.11311 0.46416 0.94372 0.0
C2643 C 0.11354 0.46733 0.97444 0.0
C2644 C 0.10791 0.4557 0.92968 0.0
C2645 C 0.09975 0.44052 0.9312 0.0
C2646 C 0.11018 0.45742 0.95944 0.0
C2647 C 0.09779 0.43376 0.94713 0.0
C2648 C 0.11578 0.45992 0.99001 0.0
C2649 C 0.11611 0.49412 0.98648 0.0
N2650 N 0.10289 0.44232 0.9607 0.0
N2651 N 0.11381 0.48414 0.97319 0.0
H2652 H 0.75122 0.89844 0.23283 0.0
H2653 H 0.81862 0.83663 0.1978 0.0
H2654 H 0.77747 0.86378 0.26352 0.0
H2655 H 0.78939 0.86907 0.16747 0.0
H2656 H 0.80683 0.84933 0.22257 0.0
H2657 H 0.76837 0.8909 0.20948 0.0
C2658 C 0.76078 0.88944 0.23476 0.0
C2659 C 0.76284 0.88168 0.25018 0.0
C2660 C 0.80319 0.85381 0.21048 0.0
C2661 C 0.78235 0.87269 0.22329 0.0
C2662 C 0.80989 0.84656 0.19634 0.0
C2663 C 0.80492 0.8517 0.18051 0.0
C2664 C 0.7914 0.86627 0.20877 0.0
C2665 C 0.79374 0.86479 0.17938 0.0
C2666 C 0.77051 0.88504 0.22135 0.0
C2667 C 0.77527 0.86988 0.25179 0.0
N2668 N 0.78725 0.87148 0.1933 0.0
N2669 N 0.78448 0.86564 0.23847 0.0
H2670 H 0.34765 0.5109 0.48787 0.0
H2671 H 0.41322 0.57605 0.45619 0.0
H2672 H 0.38422 0.53244 0.51957 0.0
H2673 H 0.37725 0.55266 0.4251 0.0
H2674 H 0.40004 0.56399 0.48052 0.0
H2675 H 0.35548 0.52992 0.46596 0.0
C2676 C 0.35714 0.51982 0.49037 0.0
C2677 C 0.36536 0.51993 0.50561 0.0
C2678 C 0.39489 0.56174 0.46838 0.0
C2679 C 0.3747 0.54159 0.48027 0.0
C2680 C 0.40243 0.5686 0.45448 0.0
C2681 C 0.39649 0.5652 0.43852 0.0
C2682 C 0.38136 0.55137 0.46629 0.0
C2683 C 0.38227 0.55572 0.4371 0.0
C2684 C 0.3617 0.53064 0.47776 0.0
C2685 C 0.37777 0.53166 0.50792 0.0
N2686 N 0.37534 0.54898 0.45077 0.0
N2687 N 0.38217 0.5419 0.49533 0.0
H2688 H 0.23518 0.21766 0.35315 0.0
H2689 H 0.32899 0.19687 0.36586 0.0
H2690 H 0.26657 0.24211 0.38833 0.0
H2691 H 0.29897 0.17197 0.32974 0.0
H2692 H 0.30511 0.21063 0.37672 0.0
H2693 H 0.25736 0.19864 0.34631 0.0
C2694 C 0.2467 0.21901 0.35947 0.0
C2695 C 0.24901 0.23157 0.37129 0.0
C2696 C 0.30366 0.20201 0.36654 0.0
C2697 C 0.27435 0.20976 0.36365 0.0
C2698 C 0.31733 0.19394 0.36043 0.0
C2699 C 0.31608 0.18324 0.34677 0.0
C2700 C 0.28856 0.19954 0.35889 0.0
C2701 C 0.30058 0.18032 0.3401 0.0
C2702 C 0.25931 0.20808 0.35564 0.0
C2703 C 0.26412 0.23253 0.37929 0.0
N2704 N 0.28744 0.18858 0.3461 0.0
N2705 N 0.2762 0.22186 0.37525 0.0
H2706 H 0.02736 0.97946 0.59274 0.0
H2707 H 0.05738 0.07059 0.61359 0.0
H2708 H 0.01697 0.00515 0.63844 0.0
H2709 H 0.07185 0.04428 0.56939 0.0
H2710 H 0.04587 0.04516 0.62448 0.0
H2711 H 0.04634 0.00155 0.58525 0.0
C2712 C 0.02916 0.98966 0.60125 0.0
C2713 C 0.02044 0.99051 0.61617 0.0
C2714 C 0.05178 0.04484 0.6125 0.0
C2715 C 0.04217 0.01577 0.60773 0.0
C2716 C 0.05855 0.05938 0.60631 0.0
C2717 C 0.06553 0.05968 0.59044 0.0
C2718 C 0.05175 0.03048 0.6027 0.0
C2719 C 0.06631 0.04473 0.58154 0.0
C2720 C 0.04007 0.00221 0.59702 0.0
C2721 C 0.02348 0.00387 0.62687 0.0
N2722 N 0.05928 0.03079 0.58768 0.0
N2723 N 0.03394 0.01604 0.62235 0.0
H2724 H 0.25927 0.77423 0.85776 0.0
H2725 H 0.16678 0.79796 0.8678 0.0
H2726 H 0.22873 0.75564 0.89702 0.0
H2727 H 0.19916 0.82467 0.83526 0.0
H2728 H 0.18997 0.78445 0.88036 0.0
H2729 H 0.23834 0.79454 0.85084 0.0
C2730 C 0.24828 0.77458 0.8651 0.0
C2731 C 0.24565 0.76303 0.87783 0.0
C2732 C 0.19207 0.79346 0.87065 0.0
C2733 C 0.22157 0.78609 0.86982 0.0
C2734 C 0.17878 0.80137 0.86354 0.0
C2735 C 0.18092 0.81248 0.85032 0.0
C2736 C 0.20767 0.79641 0.86438 0.0
C2737 C 0.19686 0.81595 0.84517 0.0
C2738 C 0.23631 0.78615 0.8611 0.0
C2739 C 0.23111 0.76401 0.88683 0.0
N2740 N 0.20961 0.80775 0.85204 0.0
N2741 N 0.21956 0.7752 0.88253 0.0
H2742 H 0.47212 0.01141 0.08903 0.0
H2743 H 0.44181 0.92194 0.11241 0.0
H2744 H 0.48064 0.98886 0.13672 0.0
H2745 H 0.42235 0.94906 0.07074 0.0
H2746 H 0.45373 0.94734 0.12279 0.0
H2747 H 0.45218 0.98977 0.08288 0.0
C2748 C 0.46967 0.00199 0.09826 0.0
C2749 C 0.47815 0.00183 0.11333 0.0
C2750 C 0.44661 0.94783 0.11152 0.0
C2751 C 0.45542 0.97707 0.10641 0.0
C2752 C 0.4396 0.93329 0.10562 0.0
C2753 C 0.43116 0.9332 0.09049 0.0
C2754 C 0.44546 0.96241 0.10212 0.0
C2755 C 0.42909 0.94839 0.08222 0.0
C2756 C 0.45822 0.98972 0.0948 0.0
C2757 C 0.47434 0.9895 0.12496 0.0
N2758 N 0.43646 0.96232 0.08797 0.0
N2759 N 0.46343 0.9775 0.12116 0.0
H2760 H 0.76395 0.25392 0.59587 0.0
H2761 H 0.83201 0.29218 0.62824 0.0
H2762 H 0.74345 0.26439 0.64395 0.0
H2763 H 0.79899 0.31872 0.66021 0.0
H2764 H 0.80919 0.27759 0.61618 0.0
H2765 H 0.78585 0.27341 0.60171 0.0
C2766 C 0.76411 0.26025 0.6077 0.0
C2767 C 0.752 0.25727 0.61956 0.0
C2768 C 0.8068 0.28696 0.62544 0.0
C2769 C 0.77718 0.27945 0.62644 0.0
C2770 C 0.81991 0.29538 0.63237 0.0
C2771 C 0.81748 0.30678 0.64529 0.0
C2772 C 0.79109 0.28986 0.63152 0.0
C2773 C 0.80148 0.3099 0.65044 0.0
C2774 C 0.77666 0.27135 0.61105 0.0
C2775 C 0.75252 0.26626 0.63445 0.0
N2776 N 0.78892 0.3013 0.64371 0.0
N2777 N 0.76498 0.27686 0.63751 0.0
H2778 H 0.97066 0.48014 0.90054 0.0
H2779 H 0.94594 0.57356 0.88386 0.0
H2780 H 0.98364 0.50728 0.85641 0.0
H2781 H 0.92505 0.54464 0.92354 0.0
H2782 H 0.95762 0.54852 0.87238 0.0
H2783 H 0.9523 0.5027 0.90833 0.0
C2784 C 0.96955 0.49077 0.89243 0.0
C2785 C 0.97878 0.49186 0.87785 0.0
C2786 C 0.95028 0.54756 0.88346 0.0
C2787 C 0.95781 0.51767 0.88666 0.0
C2788 C 0.94341 0.56191 0.88998 0.0
C2789 C 0.9345 0.56133 0.90481 0.0
C2790 C 0.94851 0.53248 0.89192 0.0
C2791 C 0.93209 0.54578 0.91228 0.0
C2792 C 0.95899 0.50359 0.89683 0.0
C2793 C 0.97669 0.50581 0.86769 0.0
N2794 N 0.93925 0.53201 0.90589 0.0
N2795 N 0.96657 0.51822 0.87237 0.0
H2796 H 0.69844 0.67025 0.16639 0.0
H2797 H 0.72808 0.74161 0.10493 0.0
H2798 H 0.66693 0.69828 0.13409 0.0
H2799 H 0.75943 0.71833 0.14093 0.0
H2800 H 0.70665 0.72225 0.11226 0.0
H2801 H 0.72186 0.68426 0.15408 0.0
C2802 C 0.69645 0.67916 0.15657 0.0
C2803 C 0.68065 0.68315 0.15136 0.0
C2804 C 0.71825 0.72126 0.11848 0.0
C2805 C 0.70737 0.69918 0.13725 0.0
C2806 C 0.73056 0.73227 0.11422 0.0
C2807 C 0.74559 0.73168 0.12239 0.0
C2808 C 0.72088 0.70959 0.13109 0.0
C2809 C 0.74795 0.71943 0.13451 0.0
C2810 C 0.70982 0.68713 0.14954 0.0
C2811 C 0.67884 0.69462 0.13841 0.0
N2812 N 0.73568 0.70893 0.13859 0.0
N2813 N 0.692 0.70233 0.13194 0.0
H2814 H 0.51997 0.51351 0.39571 0.0
H2815 H 0.54723 0.42186 0.37901 0.0
H2816 H 0.51049 0.48846 0.34941 0.0
H2817 H 0.56948 0.45217 0.41682 0.0
H2818 H 0.53549 0.44663 0.36677 0.0
H2819 H 0.53969 0.4921 0.4027 0.0
C2820 C 0.52223 0.5037 0.38685 0.0
C2821 C 0.51331 0.50268 0.37205 0.0
C2822 C 0.54318 0.44792 0.37757 0.0
C2823 C 0.53567 0.4779 0.38019 0.0
C2824 C 0.55004 0.43375 0.38453 0.0
C2825 C 0.55925 0.43484 0.39913 0.0
C2826 C 0.54529 0.4633 0.38541 0.0
C2827 C 0.56214 0.45065 0.40581 0.0
C2828 C 0.53347 0.49142 0.3909 0.0
C2829 C 0.5167 0.48952 0.36118 0.0
N2830 N 0.55495 0.46422 0.39907 0.0
N2831 N 0.52742 0.47752 0.36558 0.0
H2832 H 0.39734 0.24991 0.22562 0.0
H2833 H 0.32379 0.29999 0.18523 0.0
H2834 H 0.34673 0.23883 0.23387 0.0
H2835 H 0.37368 0.31607 0.18279 0.0
H2836 H 0.33265 0.27417 0.19797 0.0
H2837 H 0.3894 0.27109 0.20555 0.0
C2838 C 0.38457 0.25186 0.22317 0.0
C2839 C 0.37269 0.24269 0.23163 0.0
C2840 C 0.3417 0.28323 0.19443 0.0
C2841 C 0.36354 0.26678 0.20851 0.0
C2842 C 0.33666 0.29793 0.18697 0.0
C2843 C 0.34801 0.31029 0.18305 0.0
C2844 C 0.35819 0.28087 0.19808 0.0
C2845 C 0.3645 0.30698 0.18587 0.0
C2846 C 0.38005 0.26389 0.21163 0.0
C2847 C 0.35633 0.2455 0.22762 0.0
N2848 N 0.36909 0.29266 0.19339 0.0
N2849 N 0.35225 0.25738 0.21647 0.0
H2850 H 0.86412 0.17544 0.80668 0.0
H2851 H 0.85108 0.26967 0.78014 0.0
H2852 H 0.82092 0.20345 0.81805 0.0
H2853 H 0.88931 0.23791 0.7619 0.0
H2854 H 0.84298 0.24775 0.79938 0.0
H2855 H 0.8769 0.20069 0.79649 0.0
C2856 C 0.85747 0.18699 0.80748 0.0
C2857 C 0.84133 0.18729 0.81298 0.0
C2858 C 0.85329 0.24572 0.79131 0.0
C2859 C 0.85575 0.21617 0.8009 0.0
C2860 C 0.85785 0.25817 0.78023 0.0
C2861 C 0.87079 0.2556 0.76919 0.0
C2862 C 0.86173 0.2306 0.79137 0.0
C2863 C 0.87935 0.24057 0.7702 0.0
C2864 C 0.86472 0.20139 0.80148 0.0
C2865 C 0.83328 0.20262 0.81358 0.0
N2866 N 0.87457 0.22862 0.78096 0.0
N2867 N 0.84048 0.21642 0.80735 0.0
H2868 H 0.01537 0.64559 0.01271 0.0
H2869 H 0.04412 0.57941 0.08011 0.0
H2870 H 0.98639 0.60385 0.02821 0.0
H2871 H 0.07477 0.61765 0.05963 0.0
H2872 H 0.02093 0.59153 0.06555 0.0
H2873 H 0.03532 0.63868 0.03398 0.0
C2874 C 0.01318 0.635 0.02064 0.0
C2875 C -0.00067 0.62512 0.0185 0.0
C2876 C 0.03269 0.59742 0.0645 0.0
C2877 C 0.02207 0.61718 0.04296 0.0
C2878 C 0.04592 0.59052 0.07281 0.0
C2879 C 0.06147 0.59741 0.07097 0.0
C2880 C 0.03503 0.61128 0.05425 0.0
C2881 C 0.06303 0.61195 0.06155 0.0
C2882 C 0.02452 0.63111 0.03285 0.0
C2883 C 0.9969 0.6118 0.02942 0.0
N2884 N 0.05004 0.61825 0.05338 0.0
N2885 N 0.00826 0.6081 0.04105 0.0
H2886 H 0.63192 0.8235 0.30375 0.0
H2887 H 0.64759 0.7282 0.28315 0.0
H2888 H 0.67406 0.79663 0.3208 0.0
H2889 H 0.60768 0.75718 0.26409 0.0
H2890 H 0.65535 0.75165 0.30071 0.0
H2891 H 0.62039 0.7977 0.29366 0.0
C2892 C 0.63862 0.81213 0.30574 0.0
C2893 C 0.65411 0.81232 0.31298 0.0
C2894 C 0.64477 0.75276 0.29283 0.0
C2895 C 0.64112 0.78267 0.30093 0.0
C2896 C 0.64039 0.73942 0.28273 0.0
C2897 C 0.62702 0.74072 0.27201 0.0
C2898 C 0.63573 0.7675 0.29217 0.0
C2899 C 0.61797 0.75547 0.27224 0.0
C2900 C 0.63208 0.79738 0.29979 0.0
C2901 C 0.66225 0.79714 0.31496 0.0
N2902 N 0.62257 0.76828 0.28202 0.0
N2903 N 0.65576 0.78295 0.30876 0.0
H2904 H 0.44305 0.41927 0.57349 0.0
H2905 H 0.476 0.35907 0.50252 0.0
H2906 H 0.41335 0.3847 0.54616 0.0
H2907 H 0.5063 0.39461 0.52787 0.0
H2908 H 0.45375 0.36607 0.52101 0.0
H2909 H 0.46709 0.40821 0.5595 0.0
C2910 C 0.4416 0.40922 0.56472 0.0
C2911 C 0.42613 0.40296 0.56097 0.0
C2912 C 0.46528 0.37228 0.52263 0.0
C2913 C 0.45354 0.3903 0.54491 0.0
C2914 C 0.47807 0.3682 0.51213 0.0
C2915 C 0.49308 0.37628 0.5136 0.0
C2916 C 0.46741 0.38462 0.53469 0.0
C2917 C 0.49487 0.38825 0.52611 0.0
C2918 C 0.45532 0.40291 0.55676 0.0
C2919 C 0.42501 0.3898 0.54965 0.0
N2920 N 0.48216 0.39212 0.53613 0.0
N2921 N 0.43849 0.38403 0.54193 0.0
H2922 H 0.17659 0.70112 0.67767 0.0
H2923 H 0.10659 0.76025 0.71183 0.0
H2924 H 0.12559 0.68952 0.6743 0.0
H2925 H 0.15632 0.76111 0.72873 0.0
H2926 H 0.11398 0.73919 0.69141 0.0
H2927 H 0.16967 0.72826 0.68902 0.0
C2928 C 0.16391 0.70448 0.67882 0.0
C2929 C 0.15163 0.693 0.67518 0.0
C2930 C 0.12328 0.74421 0.69945 0.0
C2931 C 0.14368 0.72389 0.68847 0.0
C2932 C 0.11908 0.75614 0.7112 0.0
C2933 C 0.13077 0.76228 0.72231 0.0
C2934 C 0.13932 0.73846 0.69867 0.0
C2935 C 0.14687 0.75684 0.72047 0.0
C2936 C 0.15999 0.71991 0.68547 0.0
C2937 C 0.13542 0.69795 0.67715 0.0
N2938 N 0.15062 0.74513 0.70901 0.0
N2939 N 0.1319 0.71297 0.68387 0.0
H2940 H 0.52027 0.85237 0.98934 0.0
H2941 H 0.54767 0.91819 0.92081 0.0
H2942 H 0.49023 0.89309 0.97316 0.0
H2943 H 0.57953 0.88206 0.9432 0.0
H2944 H 0.52488 0.90604 0.93599 0.0
H2945 H 0.54052 0.86013 0.96871 0.0
C2946 C 0.51792 0.86294 0.98143 0.0
C2947 C 0.50364 0.87224 0.98315 0.0
C2948 C 0.53684 0.90064 0.93735 0.0
C2949 C 0.52672 0.88112 0.95937 0.0
C2950 C 0.54985 0.90757 0.92871 0.0
C2951 C 0.5656 0.90124 0.93079 0.0
C2952 C 0.5396 0.88729 0.94816 0.0
C2953 C 0.56763 0.88729 0.941 0.0
C2954 C 0.52944 0.8673 0.96957 0.0
C2955 C 0.50106 0.88555 0.97225 0.0
N2956 N 0.55483 0.88092 0.94941 0.0
N2957 N 0.51256 0.8897 0.96092 0.0
H2958 H 0.91909 0.11579 0.4489 0.0
H2959 H 0.01037 0.10284 0.47679 0.0
H2960 H 0.95079 0.07997 0.42579 0.0
H2961 H 0.98134 0.14483 0.4915 0.0
H2962 H 0.98934 0.09507 0.45684 0.0
H2963 H 0.94235 0.12787 0.46284 0.0
C2964 C 0.93098 0.11069 0.44638 0.0
C2965 C 0.9329 0.09673 0.43616 0.0
C2966 C 0.98766 0.1061 0.46429 0.0
C2967 C 0.95965 0.11025 0.45268 0.0
C2968 C -0.0004 0.11046 0.47575 0.0
C2969 C 0.99752 0.12441 0.48592 0.0
C2970 C 0.97345 0.11564 0.46314 0.0
C2971 C 0.98347 0.13401 0.48388 0.0
C2972 C 0.94429 0.11753 0.45452 0.0
C2973 C 0.94866 0.09051 0.43379 0.0
N2974 N 0.97189 0.12934 0.47286 0.0
N2975 N 0.96139 0.09716 0.44217 0.0
loop_
_geom_bond_atom_site_label_1
_geom_bond_atom_site_label_2
_geom_bond_distance
_geom_bond_site_symmetry_2
_ccdc_geom_bond_type
Li0 N17 1.990 . S
Li0 O60 1.956 . S
Li0 O61 1.970 . S
Li0 O62 1.961 . S
Li1 N25 1.990 . S
Li1 O60 1.970 . S
Li1 O61 1.956 . S
Li1 O63 1.961 . S
Li2 N47 1.990 . S
Li2 O60 1.961 . S
Li2 O62 1.956 . S
Li2 O63 1.970 . S
Li3 N53 1.990 . S
Li3 O61 1.961 . S
Li3 O62 1.970 . S
Li3 O63 1.956 . S
C4 C6 1.348 . S
C4 C7 1.356 . S
C4 O60 1.325 . S
N5 C8 1.314 . S
N5 C9 1.279 . S
C6 C4 1.348 . S
C6 C8 1.353 . S
C6 H64 0.929 . S
C7 C4 1.356 . S
C7 C9 1.358 . S
C7 H65 0.930 . S
C8 N5 1.314 . S
C8 C6 1.353 . S
C8 H66 0.930 . S
C9 N5 1.279 . S
C9 C7 1.358 . S
C9 H67 0.930 . S
C10 C13 1.348 . S
C10 C14 1.356 . S
C10 O61 1.325 . S
C11 N12 1.279 . S
C11 C14 1.358 . S
C11 H68 0.930 . S
N12 C11 1.279 . S
N12 C15 1.314 . S
C13 C10 1.348 . S
C13 C15 1.353 . S
C13 H69 0.929 . S
C14 C10 1.356 . S
C14 C11 1.358 . S
C14 H70 0.930 . S
C15 N12 1.314 . S
C15 C13 1.353 . S
C15 H71 0.930 . S
C16 N17 1.314 . S
C16 C21 1.353 . S
C16 H22 0.930 . S
N17 Li0 1.990 . S
N17 C16 1.314 . S
N17 C19 1.279 . S
C18 C19 1.358 . S
C18 C20 1.356 . S
C18 H72 0.930 . S
C19 N17 1.279 . S
C19 C18 1.358 . S
C19 H23 0.930 . S
C20 C18 1.356 . S
C20 C21 1.348 . S
C21 C16 1.353 . S
C21 C20 1.348 . S
C21 H73 0.929 . S
H22 C16 0.930 . S
H23 C19 0.930 . S
C24 N25 1.314 . S
C24 C26 1.353 . S
C24 H30 0.930 . S
N25 Li1 1.990 . S
N25 C24 1.314 . S
N25 C28 1.279 . S
C26 C24 1.353 . S
C26 C29 1.348 . S
C26 H74 0.929 . S
C27 C28 1.358 . S
C27 C29 1.356 . S
C27 H75 0.930 . S
C28 N25 1.279 . S
C28 C27 1.358 . S
C28 H31 0.930 . S
C29 C26 1.348 . S
C29 C27 1.356 . S
H30 C24 0.930 . S
H31 C28 0.930 . S
C32 C34 1.348 . S
C32 C35 1.356 . S
C32 O62 1.325 . S
N33 C36 1.314 . S
N33 C37 1.279 . S
C34 C32 1.348 . S
C34 C36 1.353 . S
C34 H76 0.929 . S
C35 C32 1.356 . S
C35 C37 1.358 . S
C35 H77 0.930 . S
C36 N33 1.314 . S
C36 C34 1.353 . S
C36 H78 0.930 . S
C37 N33 1.279 . S
C37 C35 1.358 . S
C37 H79 0.930 . S
C38 C39 1.348 . S
C38 C40 1.356 . S
C38 O63 1.325 . S
C39 C38 1.348 . S
C39 C41 1.353 . S
C39 H80 0.929 . S
C40 C38 1.356 . S
C40 C42 1.358 . S
C40 H81 0.930 . S
C41 C39 1.353 . S
C41 N43 1.314 . S
C41 H82 0.930 . S
C42 C40 1.358 . S
C42 N43 1.279 . S
C42 H83 0.930 . S
N43 C41 1.314 . S
N43 C42 1.279 . S
C44 C46 1.353 . S
C44 N47 1.314 . S
C44 H50 0.930 . S
C45 N47 1.279 . S
C45 C48 1.358 . S
C45 H51 0.930 . S
C46 C44 1.353 . S
C46 C49 1.348 . S
C46 H84 0.929 . S
N47 Li2 1.990 . S
N47 C44 1.314 . S
N47 C45 1.279 . S
C48 C45 1.358 . S
C48 C49 1.356 . S
C48 H85 0.930 . S
C49 C46 1.348 . S
C49 C48 1.356 . S
H50 C44 0.930 . S
H51 C45 0.930 . S
C52 N53 1.314 . S
C52 C54 1.353 . S
C52 H58 0.930 . S
N53 Li3 1.990 . S
N53 C52 1.314 . S
N53 C56 1.279 . S
C54 C52 1.353 . S
C54 C57 1.348 . S
C54 H86 0.929 . S
C55 C56 1.358 . S
C55 C57 1.356 . S
C55 H87 0.930 . S
C56 N53 1.279 . S
C56 C55 1.358 . S
C56 H59 0.930 . S
C57 C54 1.348 . S
C57 C55 1.356 . S
H58 C52 0.930 . S
H59 C56 0.930 . S
O60 Li0 1.956 . S
O60 Li1 1.970 . S
O60 Li2 1.961 . S
O60 C4 1.325 . S
O61 Li0 1.970 . S
O61 Li1 1.956 . S
O61 Li3 1.961 . S
O61 C10 1.325 . S
O62 Li0 1.961 . S
O62 Li2 1.956 . S
O62 Li3 1.970 . S
O62 C32 1.325 . S
O63 Li1 1.961 . S
O63 Li2 1.970 . S
O63 Li3 1.956 . S
O63 C38 1.325 . S
H64 C6 0.929 . S
H65 C7 0.930 . S
H66 C8 0.930 . S
H67 C9 0.930 . S
H68 C11 0.930 . S
H69 C13 0.929 . S
H70 C14 0.930 . S
H71 C15 0.930 . S
H72 C18 0.930 . S
H73 C21 0.929 . S
H74 C26 0.929 . S
H75 C27 0.930 . S
H76 C34 0.929 . S
H77 C35 0.930 . S
H78 C36 0.930 . S
H79 C37 0.930 . S
H80 C39 0.929 . S
H81 C40 0.930 . S
H82 C41 0.930 . S
H83 C42 0.930 . S
H84 C46 0.929 . S
H85 C48 0.930 . S
H86 C54 0.929 . S
H87 C55 0.930 . S
Li88 N105 1.990 . S
Li88 O148 1.956 . S
Li88 O149 1.970 . S
Li88 O150 1.961 . S
Li89 N113 1.990 . S
Li89 O148 1.970 . S
Li89 O149 1.956 . S
Li89 O151 1.961 . S
Li90 N135 1.990 . S
Li90 O148 1.961 . S
Li90 O150 1.956 . S
Li90 O151 1.970 . S
Li91 N141 1.990 . S
Li91 O149 1.961 . S
Li91 O150 1.970 . S
Li91 O151 1.956 . S
C92 C94 1.348 . S
C92 C95 1.356 . S
C92 O148 1.325 . S
N93 C96 1.314 . S
N93 C97 1.279 . S
C94 C92 1.348 . S
C94 C96 1.353 . S
C94 H152 0.929 . S
C95 C92 1.356 . S
C95 C97 1.358 . S
C95 H153 0.930 . S
C96 N93 1.314 . S
C96 C94 1.353 . S
C96 H154 0.930 . S
C97 N93 1.279 . S
C97 C95 1.358 . S
C97 H155 0.930 . S
C98 C101 1.348 . S
C98 C102 1.356 . S
C98 O149 1.325 . S
C99 N100 1.279 . S
C99 C102 1.358 . S
C99 H156 0.930 . S
N100 C99 1.279 . S
N100 C103 1.314 . S
C101 C98 1.348 . S
C101 C103 1.353 . S
C101 H157 0.929 . S
C102 C98 1.356 . S
C102 C99 1.358 . S
C102 H158 0.930 . S
C103 N100 1.314 . S
C103 C101 1.353 . S
C103 H159 0.930 . S
C104 N105 1.314 . S
C104 C109 1.353 . S
C104 H110 0.930 . S
N105 Li88 1.990 . S
N105 C104 1.314 . S
N105 C107 1.279 . S
C106 C107 1.358 . S
C106 C108 1.356 . S
C106 H160 0.930 . S
C107 N105 1.279 . S
C107 C106 1.358 . S
C107 H111 0.930 . S
C108 C106 1.356 . S
C108 C109 1.348 . S
C109 C104 1.353 . S
C109 C108 1.348 . S
C109 H161 0.929 . S
H110 C104 0.930 . S
H111 C107 0.930 . S
C112 N113 1.314 . S
C112 C114 1.353 1_655 S
C112 H118 0.930 . S
N113 Li89 1.990 . S
N113 C112 1.314 . S
N113 C116 1.279 . S
C114 C112 1.353 1_455 S
C114 C117 1.348 1_455 S
C114 H162 0.929 . S
C115 C116 1.358 . S
C115 C117 1.356 . S
C115 H163 0.930 . S
C116 N113 1.279 . S
C116 C115 1.358 . S
C116 H119 0.930 . S
C117 C114 1.348 1_655 S
C117 C115 1.356 . S
H118 C112 0.930 . S
H119 C116 0.930 . S
C120 C122 1.348 . S
C120 C123 1.356 . S
C120 O150 1.325 . S
N121 C124 1.314 1_545 S
N121 C125 1.279 . S
C122 C120 1.348 . S
C122 C124 1.353 . S
C122 H164 0.929 . S
C123 C120 1.356 . S
C123 C125 1.358 1_565 S
C123 H165 0.930 . S
C124 N121 1.314 1_565 S
C124 C122 1.353 . S
C124 H166 0.930 . S
C125 N121 1.279 . S
C125 C123 1.358 1_545 S
C125 H167 0.930 . S
C126 C127 1.348 . S
C126 C128 1.356 . S
C126 O151 1.325 . S
C127 C126 1.348 . S
C127 C129 1.384 . S
C127 H168 0.929 . S
C128 C126 1.356 . S
C128 C130 1.358 . S
C128 H169 0.930 . S
C129 C127 1.384 . S
C129 N131 1.311 1_655 S
C129 H170 0.901 1_655 S
C130 C128 1.358 . S
C130 N131 1.265 1_655 S
C130 H171 0.930 . S
N131 C129 1.311 1_455 S
N131 C130 1.265 1_455 S
C132 C134 1.353 . S
C132 N135 1.314 1_455 S
C132 H138 0.930 . S
C133 N135 1.279 . S
C133 C136 1.358 1_565 S
C133 H139 0.930 . S
C134 C132 1.353 . S
C134 C137 1.348 1_565 S
C134 H172 0.929 . S
N135 Li90 1.990 . S
N135 C132 1.314 1_655 S
N135 C133 1.279 . S
C136 C133 1.358 1_545 S
C136 C137 1.356 1_655 S
C136 H173 0.930 . S
C137 C134 1.348 1_545 S
C137 C136 1.356 1_455 S
H138 C132 0.930 . S
H139 C133 0.930 . S
C140 N141 1.314 . S
C140 C142 1.353 . S
C140 H146 0.930 . S
N141 Li91 1.990 . S
N141 C140 1.314 . S
N141 C144 1.279 . S
C142 C140 1.353 . S
C142 C145 1.348 . S
C142 H174 0.929 . S
C143 C144 1.358 . S
C143 C145 1.356 . S
C143 H175 0.930 . S
C144 N141 1.279 . S
C144 C143 1.358 . S
C144 H147 0.930 . S
C145 C142 1.348 . S
C145 C143 1.356 . S
H146 C140 0.930 . S
H147 C144 0.930 . S
O148 Li88 1.956 . S
O148 Li89 1.970 . S
O148 Li90 1.961 . S
O148 C92 1.325 . S
O149 Li88 1.970 . S
O149 Li89 1.956 . S
O149 Li91 1.961 . S
O149 C98 1.325 . S
O150 Li88 1.961 . S
O150 Li90 1.956 . S
O150 Li91 1.970 . S
O150 C120 1.325 . S
O151 Li89 1.961 . S
O151 Li90 1.970 . S
O151 Li91 1.956 . S
O151 C126 1.325 . S
H152 C94 0.929 . S
H153 C95 0.930 . S
H154 C96 0.930 . S
H155 C97 0.930 . S
H156 C99 0.930 . S
H157 C101 0.929 . S
H158 C102 0.930 . S
H159 C103 0.930 . S
H160 C106 0.930 . S
H161 C109 0.929 . S
H162 C114 0.929 . S
H163 C115 0.930 . S
H164 C122 0.929 . S
H165 C123 0.930 . S
H166 C124 0.930 . S
H167 C125 0.930 . S
H168 C127 0.929 . S
H169 C128 0.930 . S
H170 C129 0.901 1_455 S
H171 C130 0.930 . S
H172 C134 0.929 . S
H173 C136 0.930 . S
H174 C142 0.929 . S
H175 C143 0.930 . S
Li176 N193 1.990 . S
Li176 O236 1.956 . S
Li176 O237 1.970 . S
Li176 O238 1.961 . S
Li177 N201 1.990 . S
Li177 O236 1.970 . S
Li177 O237 1.956 . S
Li177 O239 1.961 . S
Li178 N223 1.990 . S
Li178 O236 1.961 . S
Li178 O238 1.956 . S
Li178 O239 1.970 . S
Li179 N229 1.990 . S
Li179 O237 1.961 . S
Li179 O238 1.970 . S
Li179 O239 1.956 . S
C180 C182 1.348 . S
C180 C183 1.356 . S
C180 O236 1.325 . S
N181 C184 1.314 . S
N181 C185 1.279 . S
C182 C180 1.348 . S
C182 C184 1.353 . S
C182 H240 0.929 . S
C183 C180 1.356 . S
C183 C185 1.358 . S
C183 H241 0.930 . S
C184 N181 1.314 . S
C184 C182 1.353 . S
C184 H242 0.930 . S
C185 N181 1.279 . S
C185 C183 1.358 . S
C185 H243 0.930 . S
C186 C189 1.348 . S
C186 C190 1.356 . S
C186 O237 1.325 . S
C187 N188 1.279 . S
C187 C190 1.358 . S
C187 H244 0.930 . S
N188 C187 1.279 . S
N188 C191 1.314 . S
C189 C186 1.348 . S
C189 C191 1.353 . S
C189 H245 0.929 . S
C190 C186 1.356 . S
C190 C187 1.358 . S
C190 H246 0.930 . S
C191 N188 1.314 . S
C191 C189 1.353 . S
C191 H247 0.930 . S
C192 N193 1.314 . S
C192 C197 1.353 . S
C192 H198 0.930 . S
N193 Li176 1.990 . S
N193 C192 1.314 . S
N193 C195 1.279 . S
C194 C195 1.358 . S
C194 C196 1.356 . S
C194 H248 0.930 . S
C195 N193 1.279 . S
C195 C194 1.358 . S
C195 H199 0.930 . S
C196 C194 1.356 . S
C196 C197 1.348 . S
C197 C192 1.353 . S
C197 C196 1.348 . S
C197 H249 0.929 . S
H198 C192 0.930 . S
H199 C195 0.930 . S
C200 N201 1.314 . S
C200 C202 1.353 . S
C200 H206 0.930 . S
N201 Li177 1.990 . S
N201 C200 1.314 . S
N201 C204 1.279 . S
C202 C200 1.353 . S
C202 C205 1.348 . S
C202 H250 0.929 . S
C203 C204 1.358 . S
C203 C205 1.356 . S
C203 H251 0.930 . S
C204 N201 1.279 . S
C204 C203 1.358 . S
C204 H207 0.930 . S
C205 C202 1.348 . S
C205 C203 1.356 . S
H206 C200 0.930 . S
H207 C204 0.930 . S
C208 C210 1.348 . S
C208 C211 1.356 . S
C208 O238 1.325 . S
N209 C212 1.314 . S
N209 C213 1.279 . S
C210 C208 1.348 . S
C210 C212 1.353 . S
C210 H252 0.929 . S
C211 C208 1.356 . S
C211 C213 1.358 . S
C211 H253 0.930 . S
C212 N209 1.314 . S
C212 C210 1.353 . S
C212 H254 0.930 . S
C213 N209 1.279 . S
C213 C211 1.358 . S
C213 H255 0.930 . S
C214 C215 1.348 . S
C214 C216 1.356 . S
C214 O239 1.325 . S
C215 C214 1.348 . S
C215 C217 1.353 . S
C215 H256 0.929 . S
C216 C214 1.356 . S
C216 C218 1.358 . S
C216 H257 0.930 . S
C217 C215 1.353 . S
C217 N219 1.314 . S
C217 H258 0.930 . S
C218 C216 1.358 . S
C218 N219 1.279 . S
C218 H259 0.930 . S
N219 C217 1.314 . S
N219 C218 1.279 . S
C220 C222 1.353 . S
C220 N223 1.314 . S
C220 H226 0.930 . S
C221 N223 1.279 . S
C221 C224 1.358 . S
C221 H227 0.930 . S
C222 C220 1.353 . S
C222 C225 1.348 . S
C222 H260 0.929 . S
N223 Li178 1.990 . S
N223 C220 1.314 . S
N223 C221 1.279 . S
C224 C221 1.358 . S
C224 C225 1.356 . S
C224 H261 0.930 . S
C225 C222 1.348 . S
C225 C224 1.356 . S
H226 C220 0.930 . S
H227 C221 0.930 . S
C228 N229 1.314 . S
C228 C230 1.353 . S
C228 H234 0.930 . S
N229 Li179 1.990 . S
N229 C228 1.314 . S
N229 C232 1.279 . S
C230 C228 1.353 . S
C230 C233 1.348 . S
C230 H262 0.929 . S
C231 C232 1.358 . S
C231 C233 1.356 . S
C231 H263 0.930 . S
C232 N229 1.279 . S
C232 C231 1.358 . S
C232 H235 0.930 . S
C233 C230 1.348 . S
C233 C231 1.356 . S
H234 C228 0.930 . S
H235 C232 0.930 . S
O236 Li176 1.956 . S
O236 Li177 1.970 . S
O236 Li178 1.961 . S
O236 C180 1.325 . S
O237 Li176 1.970 . S
O237 Li177 1.956 . S
O237 Li179 1.961 . S
O237 C186 1.325 . S
O238 Li176 1.961 . S
O238 Li178 1.956 . S
O238 Li179 1.970 . S
O238 C208 1.325 . S
O239 Li177 1.961 . S
O239 Li178 1.970 . S
O239 Li179 1.956 . S
O239 C214 1.325 . S
H240 C182 0.929 . S
H241 C183 0.930 . S
H242 C184 0.930 . S
H243 C185 0.930 . S
H244 C187 0.930 . S
H245 C189 0.929 . S
H246 C190 0.930 . S
H247 C191 0.930 . S
H248 C194 0.930 . S
H249 C197 0.929 . S
H250 C202 0.929 . S
H251 C203 0.930 . S
H252 C210 0.929 . S
H253 C211 0.930 . S
H254 C212 0.930 . S
H255 C213 0.930 . S
H256 C215 0.929 . S
H257 C216 0.930 . S
H258 C217 0.930 . S
H259 C218 0.930 . S
H260 C222 0.929 . S
H261 C224 0.930 . S
H262 C230 0.929 . S
H263 C231 0.930 . S
Li264 N281 1.990 . S
Li264 O324 1.956 . S
Li264 O325 1.970 . S
Li264 O326 1.961 . S
Li265 N289 1.990 . S
Li265 O324 1.970 . S
Li265 O325 1.956 . S
Li265 O327 1.961 . S
Li266 N311 1.990 . S
Li266 O324 1.961 . S
Li266 O326 1.956 . S
Li266 O327 1.970 . S
Li267 N317 1.990 . S
Li267 O325 1.961 . S
Li267 O326 1.970 . S
Li267 O327 1.956 . S
C268 C270 1.348 . S
C268 C271 1.356 . S
C268 O324 1.325 . S
N269 C272 1.314 . S
N269 C273 1.279 . S
C270 C268 1.348 . S
C270 C272 1.353 . S
C270 H328 0.929 . S
C271 C268 1.356 . S
C271 C273 1.358 . S
C271 H329 0.930 . S
C272 N269 1.314 . S
C272 C270 1.353 . S
C272 H330 0.930 . S
C273 N269 1.279 . S
C273 C271 1.358 . S
C273 H331 0.930 . S
C274 C277 1.348 . S
C274 C278 1.356 . S
C274 O325 1.325 . S
C275 N276 1.279 . S
C275 C278 1.358 . S
C275 H332 0.930 . S
N276 C275 1.279 . S
N276 C279 1.314 . S
C277 C274 1.348 . S
C277 C279 1.353 . S
C277 H333 0.929 . S
C278 C274 1.356 . S
C278 C275 1.358 . S
C278 H334 0.930 . S
C279 N276 1.314 . S
C279 C277 1.353 . S
C279 H335 0.930 . S
C280 N281 1.314 . S
C280 C285 1.353 . S
C280 H286 0.930 . S
N281 Li264 1.990 . S
N281 C280 1.314 . S
N281 C283 1.279 . S
C282 C283 1.358 . S
C282 C284 1.356 . S
C282 H336 0.930 . S
C283 N281 1.279 . S
C283 C282 1.358 . S
C283 H287 0.930 . S
C284 C282 1.356 . S
C284 C285 1.348 . S
C285 C280 1.353 . S
C285 C284 1.348 . S
C285 H337 0.929 . S
H286 C280 0.930 . S
H287 C283 0.930 . S
C288 N289 1.314 . S
C288 C290 1.353 . S
C288 H294 0.930 . S
N289 Li265 1.990 . S
N289 C288 1.314 . S
N289 C292 1.279 . S
C290 C288 1.353 . S
C290 C293 1.348 . S
C290 H338 0.929 . S
C291 C292 1.358 . S
C291 C293 1.356 . S
C291 H339 0.930 . S
C292 N289 1.279 . S
C292 C291 1.358 . S
C292 H295 0.930 . S
C293 C290 1.348 . S
C293 C291 1.356 . S
H294 C288 0.930 . S
H295 C292 0.930 . S
C296 C298 1.348 . S
C296 C299 1.356 . S
C296 O326 1.325 . S
N297 C300 1.314 1_565 S
N297 C301 1.279 . S
C298 C296 1.348 . S
C298 C300 1.353 . S
C298 H340 0.929 . S
C299 C296 1.356 . S
C299 C301 1.358 1_545 S
C299 H341 0.930 . S
C300 N297 1.314 1_545 S
C300 C298 1.353 . S
C300 H342 0.930 . S
C301 N297 1.279 . S
C301 C299 1.358 1_565 S
C301 H343 0.930 . S
C302 C303 1.348 . S
C302 C304 1.356 . S
C302 O327 1.325 . S
C303 C302 1.348 . S
C303 C305 1.353 . S
C303 H344 0.929 . S
C304 C302 1.356 . S
C304 C306 1.358 . S
C304 H345 0.930 . S
C305 C303 1.353 . S
C305 N307 1.314 . S
C305 H346 0.930 . S
C306 C304 1.358 . S
C306 N307 1.279 . S
C306 H347 0.930 . S
N307 C305 1.314 . S
N307 C306 1.279 . S
C308 C310 1.353 . S
C308 N311 1.314 . S
C308 H314 0.930 . S
C309 N311 1.279 . S
C309 C312 1.358 1_545 S
C309 H315 0.930 . S
C310 C308 1.353 . S
C310 C313 1.348 1_545 S
C310 H348 0.929 . S
N311 Li266 1.990 . S
N311 C308 1.314 . S
N311 C309 1.279 . S
C312 C309 1.358 1_565 S
C312 C313 1.356 . S
C312 H349 0.930 . S
C313 C310 1.348 1_565 S
C313 C312 1.356 . S
H314 C308 0.930 . S
H315 C309 0.930 . S
C316 N317 1.314 . S
C316 C318 1.353 . S
C316 H322 0.930 . S
N317 Li267 1.990 . S
N317 C316 1.314 . S
N317 C320 1.279 . S
C318 C316 1.353 . S
C318 C321 1.348 . S
C318 H350 0.929 . S
C319 C320 1.358 . S
C319 C321 1.356 . S
C319 H351 0.930 . S
C320 N317 1.279 . S
C320 C319 1.358 . S
C320 H323 0.930 . S
C321 C318 1.348 . S
C321 C319 1.356 . S
H322 C316 0.930 . S
H323 C320 0.930 . S
O324 Li264 1.956 . S
O324 Li265 1.970 . S
O324 Li266 1.961 . S
O324 C268 1.325 . S
O325 Li264 1.970 . S
O325 Li265 1.956 . S
O325 Li267 1.961 . S
O325 C274 1.325 . S
O326 Li264 1.961 . S
O326 Li266 1.956 . S
O326 Li267 1.970 . S
O326 C296 1.325 . S
O327 Li265 1.961 . S
O327 Li266 1.970 . S
O327 Li267 1.956 . S
O327 C302 1.325 . S
H328 C270 0.929 . S
H329 C271 0.930 . S
H330 C272 0.930 . S
H331 C273 0.930 . S
H332 C275 0.930 . S
H333 C277 0.929 . S
H334 C278 0.930 . S
H335 C279 0.930 . S
H336 C282 0.930 . S
H337 C285 0.929 . S
H338 C290 0.929 . S
H339 C291 0.930 . S
H340 C298 0.929 . S
H341 C299 0.930 . S
H342 C300 0.930 . S
H343 C301 0.930 . S
H344 C303 0.929 . S
H345 C304 0.930 . S
H346 C305 0.930 . S
H347 C306 0.930 . S
H348 C310 0.929 . S
H349 C312 0.930 . S
H350 C318 0.929 . S
H351 C319 0.930 . S
Li352 N369 1.990 . S
Li352 O412 1.956 . S
Li352 O413 1.970 . S
Li352 O414 1.961 . S
Li353 N377 1.990 . S
Li353 O412 1.970 . S
Li353 O413 1.956 . S
Li353 O415 1.961 . S
Li354 N399 1.990 . S
Li354 O412 1.961 . S
Li354 O414 1.956 . S
Li354 O415 1.970 . S
Li355 N405 1.990 . S
Li355 O413 1.961 . S
Li355 O414 1.970 . S
Li355 O415 1.956 . S
C356 C358 1.348 . S
C356 C359 1.356 . S
C356 O412 1.325 . S
N357 C360 1.314 . S
N357 C361 1.279 . S
C358 C356 1.348 . S
C358 C360 1.353 . S
C358 H416 0.929 . S
C359 C356 1.356 . S
C359 C361 1.358 . S
C359 H417 0.930 . S
C360 N357 1.314 . S
C360 C358 1.353 . S
C360 H418 0.930 . S
C361 N357 1.279 . S
C361 C359 1.358 . S
C361 H419 0.930 . S
C362 C365 1.348 . S
C362 C366 1.356 . S
C362 O413 1.325 . S
C363 N364 1.279 . S
C363 C366 1.358 . S
C363 H420 0.930 . S
N364 C363 1.279 . S
N364 C367 1.314 . S
C365 C362 1.348 . S
C365 C367 1.353 . S
C365 H421 0.929 . S
C366 C362 1.356 . S
C366 C363 1.358 . S
C366 H422 0.930 . S
C367 N364 1.314 . S
C367 C365 1.353 . S
C367 H423 0.930 . S
C368 N369 1.314 . S
C368 C373 1.353 . S
C368 H374 0.930 . S
N369 Li352 1.990 . S
N369 C368 1.314 . S
N369 C371 1.279 . S
C370 C371 1.358 . S
C370 C372 1.356 . S
C370 H424 0.930 . S
C371 N369 1.279 . S
C371 C370 1.358 . S
C371 H375 0.930 . S
C372 C370 1.356 . S
C372 C373 1.348 . S
C373 C368 1.353 . S
C373 C372 1.348 . S
C373 H425 0.929 . S
H374 C368 0.930 . S
H375 C371 0.930 . S
C376 N377 1.314 . S
C376 C378 1.353 . S
C376 H382 0.930 . S
N377 Li353 1.990 . S
N377 C376 1.314 . S
N377 C380 1.279 . S
C378 C376 1.353 . S
C378 C381 1.348 . S
C378 H426 0.929 . S
C379 C380 1.358 . S
C379 C381 1.356 . S
C379 H427 0.930 . S
C380 N377 1.279 . S
C380 C379 1.358 . S
C380 H383 0.930 . S
C381 C378 1.348 . S
C381 C379 1.356 . S
H382 C376 0.930 . S
H383 C380 0.930 . S
C384 C386 1.348 . S
C384 C387 1.356 . S
C384 O414 1.325 . S
N385 C388 1.314 . S
N385 C389 1.279 . S
C386 C384 1.348 . S
C386 C388 1.353 . S
C386 H428 0.929 . S
C387 C384 1.356 . S
C387 C389 1.358 . S
C387 H429 0.930 . S
C388 N385 1.314 . S
C388 C386 1.353 . S
C388 H430 0.930 . S
C389 N385 1.279 . S
C389 C387 1.358 . S
C389 H431 0.930 . S
C390 C391 1.348 . S
C390 C392 1.356 . S
C390 O415 1.325 . S
C391 C390 1.348 . S
C391 C393 1.353 . S
C391 H432 0.929 . S
C392 C390 1.356 . S
C392 C394 1.358 . S
C392 H433 0.930 . S
C393 C391 1.353 . S
C393 N395 1.314 . S
C393 H434 0.930 . S
C394 C392 1.358 . S
C394 N395 1.279 . S
C394 H435 0.930 . S
N395 C393 1.314 . S
N395 C394 1.279 . S
C396 C398 1.353 . S
C396 N399 1.314 . S
C396 H402 0.930 . S
C397 N399 1.279 . S
C397 C400 1.358 . S
C397 H403 0.930 . S
C398 C396 1.353 . S
C398 C401 1.348 . S
C398 H436 0.929 . S
N399 Li354 1.990 . S
N399 C396 1.314 . S
N399 C397 1.279 . S
C400 C397 1.358 . S
C400 C401 1.356 . S
C400 H437 0.930 . S
C401 C398 1.348 . S
C401 C400 1.356 . S
H402 C396 0.930 . S
H403 C397 0.930 . S
C404 N405 1.314 . S
C404 C406 1.353 . S
C404 H410 0.930 . S
N405 Li355 1.990 . S
N405 C404 1.314 . S
N405 C408 1.279 . S
C406 C404 1.353 . S
C406 C409 1.348 . S
C406 H438 0.929 . S
C407 C408 1.358 . S
C407 C409 1.356 . S
C407 H439 0.930 . S
C408 N405 1.279 . S
C408 C407 1.358 . S
C408 H411 0.930 . S
C409 C406 1.348 . S
C409 C407 1.356 . S
H410 C404 0.930 . S
H411 C408 0.930 . S
O412 Li352 1.956 . S
O412 Li353 1.970 . S
O412 Li354 1.961 . S
O412 C356 1.325 . S
O413 Li352 1.970 . S
O413 Li353 1.956 . S
O413 Li355 1.961 . S
O413 C362 1.325 . S
O414 Li352 1.961 . S
O414 Li354 1.956 . S
O414 Li355 1.970 . S
O414 C384 1.325 . S
O415 Li353 1.961 . S
O415 Li354 1.970 . S
O415 Li355 1.956 . S
O415 C390 1.325 . S
H416 C358 0.929 . S
H417 C359 0.930 . S
H418 C360 0.930 . S
H419 C361 0.930 . S
H420 C363 0.930 . S
H421 C365 0.929 . S
H422 C366 0.930 . S
H423 C367 0.930 . S
H424 C370 0.930 . S
H425 C373 0.929 . S
H426 C378 0.929 . S
H427 C379 0.930 . S
H428 C386 0.929 . S
H429 C387 0.930 . S
H430 C388 0.930 . S
H431 C389 0.930 . S
H432 C391 0.929 . S
H433 C392 0.930 . S
H434 C393 0.930 . S
H435 C394 0.930 . S
H436 C398 0.929 . S
H437 C400 0.930 . S
H438 C406 0.929 . S
H439 C407 0.930 . S
Li440 N457 1.990 . S
Li440 O500 1.956 . S
Li440 O501 1.970 . S
Li440 O502 1.961 . S
Li441 N465 1.990 . S
Li441 O500 1.970 . S
Li441 O501 1.956 . S
Li441 O503 1.961 . S
Li442 N487 1.990 . S
Li442 O500 1.961 . S
Li442 O502 1.956 . S
Li442 O503 1.970 . S
Li443 N493 1.990 . S
Li443 O501 1.961 . S
Li443 O502 1.970 . S
Li443 O503 1.956 . S
C444 C446 1.348 . S
C444 C447 1.356 . S
C444 O500 1.325 . S
N445 C448 1.314 . S
N445 C449 1.279 . S
C446 C444 1.348 . S
C446 C448 1.353 . S
C446 H504 0.929 . S
C447 C444 1.356 . S
C447 C449 1.358 . S
C447 H505 0.930 . S
C448 N445 1.314 . S
C448 C446 1.353 . S
C448 H506 0.930 . S
C449 N445 1.279 . S
C449 C447 1.358 . S
C449 H507 0.930 . S
C450 C453 1.348 . S
C450 C454 1.356 . S
C450 O501 1.325 . S
C451 N452 1.266 1_455 S
C451 C454 1.358 . S
C451 H508 0.930 . S
N452 C451 1.266 1_655 S
N452 C455 1.311 1_655 S
C453 C450 1.348 . S
C453 C455 1.385 . S
C453 H509 0.929 . S
C454 C450 1.356 . S
C454 C451 1.358 . S
C454 H510 0.930 . S
C455 N452 1.311 1_455 S
C455 C453 1.385 . S
C455 H511 0.900 1_455 S
C456 N457 1.314 1_655 S
C456 C461 1.353 . S
C456 H462 0.930 . S
N457 Li440 1.990 . S
N457 C456 1.314 1_455 S
N457 C459 1.279 . S
C458 C459 1.358 . S
C458 C460 1.356 1_455 S
C458 H512 0.930 . S
C459 N457 1.279 . S
C459 C458 1.358 . S
C459 H463 0.930 . S
C460 C458 1.356 1_655 S
C460 C461 1.348 . S
C461 C456 1.353 . S
C461 C460 1.348 . S
C461 H513 0.929 . S
H462 C456 0.930 . S
H463 C459 0.930 . S
C464 N465 1.314 . S
C464 C466 1.353 . S
C464 H470 0.930 . S
N465 Li441 1.990 . S
N465 C464 1.314 . S
N465 C468 1.279 . S
C466 C464 1.353 . S
C466 C469 1.348 . S
C466 H514 0.929 . S
C467 C468 1.358 . S
C467 C469 1.356 . S
C467 H515 0.930 . S
C468 N465 1.279 . S
C468 C467 1.358 . S
C468 H471 0.930 . S
C469 C466 1.348 . S
C469 C467 1.356 . S
H470 C464 0.930 . S
H471 C468 0.930 . S
C472 C474 1.348 . S
C472 C475 1.356 . S
C472 O502 1.325 . S
N473 C476 1.314 . S
N473 C477 1.279 . S
C474 C472 1.348 . S
C474 C476 1.353 . S
C474 H516 0.929 . S
C475 C472 1.356 . S
C475 C477 1.358 . S
C475 H517 0.930 . S
C476 N473 1.314 . S
C476 C474 1.353 . S
C476 H518 0.930 . S
C477 N473 1.279 . S
C477 C475 1.358 . S
C477 H519 0.930 . S
C478 C479 1.348 . S
C478 C480 1.356 . S
C478 O503 1.325 . S
C479 C478 1.348 . S
C479 C481 1.353 . S
C479 H520 0.929 . S
C480 C478 1.356 . S
C480 C482 1.358 . S
C480 H521 0.930 . S
C481 C479 1.353 . S
C481 N483 1.314 . S
C481 H522 0.930 . S
C482 C480 1.358 . S
C482 N483 1.279 . S
C482 H523 0.930 . S
N483 C481 1.314 . S
N483 C482 1.279 . S
C484 C486 1.353 . S
C484 N487 1.314 . S
C484 H490 0.930 . S
C485 N487 1.279 . S
C485 C488 1.358 . S
C485 H491 0.930 . S
C486 C484 1.353 . S
C486 C489 1.348 . S
C486 H524 0.929 . S
N487 Li442 1.990 . S
N487 C484 1.314 . S
N487 C485 1.279 . S
C488 C485 1.358 . S
C488 C489 1.356 . S
C488 H525 0.930 . S
C489 C486 1.348 . S
C489 C488 1.356 . S
H490 C484 0.930 . S
H491 C485 0.930 . S
C492 N493 1.314 . S
C492 C494 1.353 1_455 S
C492 H498 0.930 . S
N493 Li443 1.990 . S
N493 C492 1.314 . S
N493 C496 1.279 . S
C494 C492 1.353 1_655 S
C494 C497 1.348 1_655 S
C494 H526 0.929 . S
C495 C496 1.358 . S
C495 C497 1.356 . S
C495 H527 0.930 . S
C496 N493 1.279 . S
C496 C495 1.358 . S
C496 H499 0.930 . S
C497 C494 1.348 1_455 S
C497 C495 1.356 . S
H498 C492 0.930 . S
H499 C496 0.930 . S
O500 Li440 1.956 . S
O500 Li441 1.970 . S
O500 Li442 1.961 . S
O500 C444 1.325 . S
O501 Li440 1.970 . S
O501 Li441 1.956 . S
O501 Li443 1.961 . S
O501 C450 1.325 . S
O502 Li440 1.961 . S
O502 Li442 1.956 . S
O502 Li443 1.970 . S
O502 C472 1.325 . S
O503 Li441 1.961 . S
O503 Li442 1.970 . S
O503 Li443 1.956 . S
O503 C478 1.325 . S
H504 C446 0.929 . S
H505 C447 0.930 . S
H506 C448 0.930 . S
H507 C449 0.930 . S
H508 C451 0.930 . S
H509 C453 0.929 . S
H510 C454 0.930 . S
H511 C455 0.900 1_655 S
H512 C458 0.930 . S
H513 C461 0.929 . S
H514 C466 0.929 . S
H515 C467 0.930 . S
H516 C474 0.929 . S
H517 C475 0.930 . S
H518 C476 0.930 . S
H519 C477 0.930 . S
H520 C479 0.929 . S
H521 C480 0.930 . S
H522 C481 0.930 . S
H523 C482 0.930 . S
H524 C486 0.929 . S
H525 C488 0.930 . S
H526 C494 0.929 . S
H527 C495 0.930 . S
Li528 N545 1.990 . S
Li528 O588 1.956 . S
Li528 O589 1.970 . S
Li528 O590 1.961 . S
Li529 N553 1.990 . S
Li529 O588 1.970 . S
Li529 O589 1.956 . S
Li529 O591 1.961 . S
Li530 N575 1.990 . S
Li530 O588 1.961 . S
Li530 O590 1.956 . S
Li530 O591 1.970 . S
Li531 N581 1.990 . S
Li531 O589 1.961 . S
Li531 O590 1.970 . S
Li531 O591 1.956 . S
C532 C534 1.348 . S
C532 C535 1.356 . S
C532 O588 1.325 . S
N533 C536 1.314 . S
N533 C537 1.279 . S
C534 C532 1.348 . S
C534 C536 1.353 . S
C534 H592 0.929 . S
C535 C532 1.356 . S
C535 C537 1.358 . S
C535 H593 0.930 . S
C536 N533 1.314 . S
C536 C534 1.353 . S
C536 H594 0.930 . S
C537 N533 1.279 . S
C537 C535 1.358 . S
C537 H595 0.930 . S
C538 C541 1.348 . S
C538 C542 1.356 . S
C538 O589 1.325 . S
C539 N540 1.279 . S
C539 C542 1.358 . S
C539 H596 0.930 . S
N540 C539 1.279 . S
N540 C543 1.314 . S
C541 C538 1.348 . S
C541 C543 1.353 . S
C541 H597 0.929 . S
C542 C538 1.356 . S
C542 C539 1.358 . S
C542 H598 0.930 . S
C543 N540 1.314 . S
C543 C541 1.353 . S
C543 H599 0.930 . S
C544 N545 1.314 . S
C544 C549 1.353 . S
C544 H550 0.930 . S
N545 Li528 1.990 . S
N545 C544 1.314 . S
N545 C547 1.279 . S
C546 C547 1.358 . S
C546 C548 1.356 . S
C546 H600 0.930 . S
C547 N545 1.279 . S
C547 C546 1.358 . S
C547 H551 0.930 . S
C548 C546 1.356 . S
C548 C549 1.348 . S
C549 C544 1.353 . S
C549 C548 1.348 . S
C549 H601 0.929 . S
H550 C544 0.930 . S
H551 C547 0.930 . S
C552 N553 1.314 . S
C552 C554 1.353 . S
C552 H558 0.930 . S
N553 Li529 1.990 . S
N553 C552 1.314 . S
N553 C556 1.279 . S
C554 C552 1.353 . S
C554 C557 1.348 . S
C554 H602 0.929 . S
C555 C556 1.358 . S
C555 C557 1.356 . S
C555 H603 0.930 . S
C556 N553 1.279 . S
C556 C555 1.358 . S
C556 H559 0.930 . S
C557 C554 1.348 . S
C557 C555 1.356 . S
H558 C552 0.930 . S
H559 C556 0.930 . S
C560 C562 1.348 . S
C560 C563 1.356 . S
C560 O590 1.325 . S
N561 C564 1.314 . S
N561 C565 1.279 . S
C562 C560 1.348 . S
C562 C564 1.353 . S
C562 H604 0.929 . S
C563 C560 1.356 . S
C563 C565 1.358 . S
C563 H605 0.930 . S
C564 N561 1.314 . S
C564 C562 1.353 . S
C564 H606 0.930 . S
C565 N561 1.279 . S
C565 C563 1.358 . S
C565 H607 0.930 . S
C566 C567 1.348 . S
C566 C568 1.356 . S
C566 O591 1.325 . S
C567 C566 1.348 . S
C567 C569 1.353 . S
C567 H608 0.929 . S
C568 C566 1.356 . S
C568 C570 1.358 . S
C568 H609 0.930 . S
C569 C567 1.353 . S
C569 N571 1.314 . S
C569 H610 0.930 . S
C570 C568 1.358 . S
C570 N571 1.279 . S
C570 H611 0.930 . S
N571 C569 1.314 . S
N571 C570 1.279 . S
C572 C574 1.353 . S
C572 N575 1.314 . S
C572 H578 0.930 . S
C573 N575 1.279 . S
C573 C576 1.358 . S
C573 H579 0.930 . S
C574 C572 1.353 . S
C574 C577 1.348 . S
C574 H612 0.929 . S
N575 Li530 1.990 . S
N575 C572 1.314 . S
N575 C573 1.279 . S
C576 C573 1.358 . S
C576 C577 1.356 . S
C576 H613 0.930 . S
C577 C574 1.348 . S
C577 C576 1.356 . S
H578 C572 0.930 . S
H579 C573 0.930 . S
C580 N581 1.314 . S
C580 C582 1.353 . S
C580 H586 0.930 . S
N581 Li531 1.990 . S
N581 C580 1.314 . S
N581 C584 1.279 . S
C582 C580 1.353 . S
C582 C585 1.348 . S
C582 H614 0.929 . S
C583 C584 1.358 . S
C583 C585 1.356 . S
C583 H615 0.930 . S
C584 N581 1.279 . S
C584 C583 1.358 . S
C584 H587 0.930 . S
C585 C582 1.348 . S
C585 C583 1.356 . S
H586 C580 0.930 . S
H587 C584 0.930 . S
O588 Li528 1.956 . S
O588 Li529 1.970 . S
O588 Li530 1.961 . S
O588 C532 1.325 . S
O589 Li528 1.970 . S
O589 Li529 1.956 . S
O589 Li531 1.961 . S
O589 C538 1.325 . S
O590 Li528 1.961 . S
O590 Li530 1.956 . S
O590 Li531 1.970 . S
O590 C560 1.325 . S
O591 Li529 1.961 . S
O591 Li530 1.970 . S
O591 Li531 1.956 . S
O591 C566 1.325 . S
H592 C534 0.929 . S
H593 C535 0.930 . S
H594 C536 0.930 . S
H595 C537 0.930 . S
H596 C539 0.930 . S
H597 C541 0.929 . S
H598 C542 0.930 . S
H599 C543 0.930 . S
H600 C546 0.930 . S
H601 C549 0.929 . S
H602 C554 0.929 . S
H603 C555 0.930 . S
H604 C562 0.929 . S
H605 C563 0.930 . S
H606 C564 0.930 . S
H607 C565 0.930 . S
H608 C567 0.929 . S
H609 C568 0.930 . S
H610 C569 0.930 . S
H611 C570 0.930 . S
H612 C574 0.929 . S
H613 C576 0.930 . S
H614 C582 0.929 . S
H615 C583 0.930 . S
Li616 N633 1.990 . S
Li616 O676 1.956 . S
Li616 O677 1.970 . S
Li616 O678 1.961 . S
Li617 N641 1.990 . S
Li617 O676 1.970 . S
Li617 O677 1.956 . S
Li617 O679 1.961 . S
Li618 N663 1.990 . S
Li618 O676 1.961 . S
Li618 O678 1.956 . S
Li618 O679 1.970 . S
Li619 N669 1.990 . S
Li619 O677 1.961 . S
Li619 O678 1.970 . S
Li619 O679 1.956 . S
C620 C622 1.348 . S
C620 C623 1.356 . S
C620 O676 1.325 . S
N621 C624 1.314 . S
N621 C625 1.279 . S
C622 C620 1.348 . S
C622 C624 1.353 . S
C622 H680 0.929 . S
C623 C620 1.356 . S
C623 C625 1.358 . S
C623 H681 0.930 . S
C624 N621 1.314 . S
C624 C622 1.353 . S
C624 H682 0.930 . S
C625 N621 1.279 . S
C625 C623 1.358 . S
C625 H683 0.930 . S
C626 C629 1.348 . S
C626 C630 1.356 . S
C626 O677 1.325 . S
C627 N628 1.279 . S
C627 C630 1.358 . S
C627 H684 0.930 . S
N628 C627 1.279 . S
N628 C631 1.314 . S
C629 C626 1.348 . S
C629 C631 1.353 . S
C629 H685 0.929 . S
C630 C626 1.356 . S
C630 C627 1.358 . S
C630 H686 0.930 . S
C631 N628 1.314 . S
C631 C629 1.353 . S
C631 H687 0.930 . S
C632 N633 1.314 . S
C632 C637 1.353 . S
C632 H638 0.930 . S
N633 Li616 1.990 . S
N633 C632 1.314 . S
N633 C635 1.279 . S
C634 C635 1.358 . S
C634 C636 1.356 . S
C634 H688 0.930 . S
C635 N633 1.279 . S
C635 C634 1.358 . S
C635 H639 0.930 . S
C636 C634 1.356 . S
C636 C637 1.348 . S
C637 C632 1.353 . S
C637 C636 1.348 . S
C637 H689 0.929 . S
H638 C632 0.930 . S
H639 C635 0.930 . S
C640 N641 1.314 . S
C640 C642 1.353 . S
C640 H646 0.930 . S
N641 Li617 1.990 . S
N641 C640 1.314 . S
N641 C644 1.279 . S
C642 C640 1.353 . S
C642 C645 1.348 . S
C642 H690 0.929 . S
C643 C644 1.358 . S
C643 C645 1.356 . S
C643 H691 0.930 . S
C644 N641 1.279 . S
C644 C643 1.358 . S
C644 H647 0.930 . S
C645 C642 1.348 . S
C645 C643 1.356 . S
H646 C640 0.930 . S
H647 C644 0.930 . S
C648 C650 1.348 . S
C648 C651 1.356 . S
C648 O678 1.325 . S
N649 C652 1.314 . S
N649 C653 1.279 . S
C650 C648 1.348 . S
C650 C652 1.353 . S
C650 H692 0.929 . S
C651 C648 1.356 . S
C651 C653 1.358 . S
C651 H693 0.930 . S
C652 N649 1.314 . S
C652 C650 1.353 . S
C652 H694 0.930 . S
C653 N649 1.279 . S
C653 C651 1.358 . S
C653 H695 0.930 . S
C654 C655 1.348 . S
C654 C656 1.356 . S
C654 O679 1.325 . S
C655 C654 1.348 . S
C655 C657 1.353 . S
C655 H696 0.929 . S
C656 C654 1.356 . S
C656 C658 1.358 . S
C656 H697 0.930 . S
C657 C655 1.353 . S
C657 N659 1.314 . S
C657 H698 0.930 . S
C658 C656 1.358 . S
C658 N659 1.279 . S
C658 H699 0.930 . S
N659 C657 1.314 . S
N659 C658 1.279 . S
C660 C662 1.353 . S
C660 N663 1.314 . S
C660 H666 0.930 . S
C661 N663 1.279 . S
C661 C664 1.358 . S
C661 H667 0.930 . S
C662 C660 1.353 . S
C662 C665 1.348 . S
C662 H700 0.929 . S
N663 Li618 1.990 . S
N663 C660 1.314 . S
N663 C661 1.279 . S
C664 C661 1.358 . S
C664 C665 1.356 . S
C664 H701 0.930 . S
C665 C662 1.348 . S
C665 C664 1.356 . S
H666 C660 0.930 . S
H667 C661 0.930 . S
C668 N669 1.314 . S
C668 C670 1.353 . S
C668 H674 0.930 . S
N669 Li619 1.990 . S
N669 C668 1.314 . S
N669 C672 1.279 . S
C670 C668 1.353 . S
C670 C673 1.348 . S
C670 H702 0.929 . S
C671 C672 1.358 . S
C671 C673 1.356 . S
C671 H703 0.930 . S
C672 N669 1.279 . S
C672 C671 1.358 . S
C672 H675 0.930 . S
C673 C670 1.348 . S
C673 C671 1.356 . S
H674 C668 0.930 . S
H675 C672 0.930 . S
O676 Li616 1.956 . S
O676 Li617 1.970 . S
O676 Li618 1.961 . S
O676 C620 1.325 . S
O677 Li616 1.970 . S
O677 Li617 1.956 . S
O677 Li619 1.961 . S
O677 C626 1.325 . S
O678 Li616 1.961 . S
O678 Li618 1.956 . S
O678 Li619 1.970 . S
O678 C648 1.325 . S
O679 Li617 1.961 . S
O679 Li618 1.970 . S
O679 Li619 1.956 . S
O679 C654 1.325 . S
H680 C622 0.929 . S
H681 C623 0.930 . S
H682 C624 0.930 . S
H683 C625 0.930 . S
H684 C627 0.930 . S
H685 C629 0.929 . S
H686 C630 0.930 . S
H687 C631 0.930 . S
H688 C634 0.930 . S
H689 C637 0.929 . S
H690 C642 0.929 . S
H691 C643 0.930 . S
H692 C650 0.929 . S
H693 C651 0.930 . S
H694 C652 0.930 . S
H695 C653 0.930 . S
H696 C655 0.929 . S
H697 C656 0.930 . S
H698 C657 0.930 . S
H699 C658 0.930 . S
H700 C662 0.929 . S
H701 C664 0.930 . S
H702 C670 0.929 . S
H703 C671 0.930 . S
Li704 N721 1.990 . S
Li704 O764 1.956 . S
Li704 O765 1.970 . S
Li704 O766 1.961 . S
Li705 N729 1.990 . S
Li705 O764 1.970 . S
Li705 O765 1.956 . S
Li705 O767 1.961 . S
Li706 N751 1.990 . S
Li706 O764 1.961 . S
Li706 O766 1.956 . S
Li706 O767 1.970 . S
Li707 N757 1.990 . S
Li707 O765 1.961 . S
Li707 O766 1.970 . S
Li707 O767 1.956 . S
C708 C710 1.348 . S
C708 C711 1.356 . S
C708 O764 1.325 . S
N709 C712 1.314 . S
N709 C713 1.279 . S
C710 C708 1.348 . S
C710 C712 1.353 . S
C710 H768 0.929 . S
C711 C708 1.356 . S
C711 C713 1.358 . S
C711 H769 0.930 . S
C712 N709 1.314 . S
C712 C710 1.353 . S
C712 H770 0.930 . S
C713 N709 1.279 . S
C713 C711 1.358 . S
C713 H771 0.930 . S
C714 C717 1.348 . S
C714 C718 1.356 . S
C714 O765 1.325 . S
C715 N716 1.279 . S
C715 C718 1.358 . S
C715 H772 0.930 . S
N716 C715 1.279 . S
N716 C719 1.314 . S
C717 C714 1.348 . S
C717 C719 1.353 . S
C717 H773 0.929 . S
C718 C714 1.356 . S
C718 C715 1.358 . S
C718 H774 0.930 . S
C719 N716 1.314 . S
C719 C717 1.353 . S
C719 H775 0.930 . S
C720 N721 1.314 . S
C720 C725 1.353 . S
C720 H726 0.930 . S
N721 Li704 1.990 . S
N721 C720 1.314 . S
N721 C723 1.279 . S
C722 C723 1.358 . S
C722 C724 1.356 . S
C722 H776 0.930 . S
C723 N721 1.279 . S
C723 C722 1.358 . S
C723 H727 0.930 . S
C724 C722 1.356 . S
C724 C725 1.348 . S
C725 C720 1.353 . S
C725 C724 1.348 . S
C725 H777 0.929 . S
H726 C720 0.930 . S
H727 C723 0.930 . S
C728 N729 1.314 . S
C728 C730 1.353 . S
C728 H734 0.930 . S
N729 Li705 1.990 . S
N729 C728 1.314 . S
N729 C732 1.279 . S
C730 C728 1.353 . S
C730 C733 1.348 . S
C730 H778 0.929 . S
C731 C732 1.358 . S
C731 C733 1.356 . S
C731 H779 0.930 . S
C732 N729 1.279 . S
C732 C731 1.358 . S
C732 H735 0.930 . S
C733 C730 1.348 . S
C733 C731 1.356 . S
H734 C728 0.930 . S
H735 C732 0.930 . S
C736 C738 1.348 . S
C736 C739 1.356 . S
C736 O766 1.325 . S
N737 C740 1.314 . S
N737 C741 1.279 . S
C738 C736 1.348 . S
C738 C740 1.353 . S
C738 H780 0.929 . S
C739 C736 1.356 . S
C739 C741 1.358 . S
C739 H781 0.930 . S
C740 N737 1.314 . S
C740 C738 1.353 . S
C740 H782 0.930 . S
C741 N737 1.279 . S
C741 C739 1.358 . S
C741 H783 0.930 . S
C742 C743 1.348 . S
C742 C744 1.356 . S
C742 O767 1.325 . S
C743 C742 1.348 . S
C743 C745 1.353 . S
C743 H784 0.929 . S
C744 C742 1.356 . S
C744 C746 1.358 . S
C744 H785 0.930 . S
C745 C743 1.353 . S
C745 N747 1.314 . S
C745 H786 0.930 . S
C746 C744 1.358 . S
C746 N747 1.279 . S
C746 H787 0.930 . S
N747 C745 1.314 . S
N747 C746 1.279 . S
C748 C750 1.353 . S
C748 N751 1.314 . S
C748 H754 0.930 . S
C749 N751 1.279 . S
C749 C752 1.358 . S
C749 H755 0.930 . S
C750 C748 1.353 . S
C750 C753 1.348 . S
C750 H788 0.929 . S
N751 Li706 1.990 . S
N751 C748 1.314 . S
N751 C749 1.279 . S
C752 C749 1.358 . S
C752 C753 1.356 . S
C752 H789 0.930 . S
C753 C750 1.348 . S
C753 C752 1.356 . S
H754 C748 0.930 . S
H755 C749 0.930 . S
C756 N757 1.314 . S
C756 C758 1.353 . S
C756 H762 0.930 . S
N757 Li707 1.990 . S
N757 C756 1.314 . S
N757 C760 1.279 . S
C758 C756 1.353 . S
C758 C761 1.348 . S
C758 H790 0.929 . S
C759 C760 1.358 . S
C759 C761 1.356 . S
C759 H791 0.930 . S
C760 N757 1.279 . S
C760 C759 1.358 . S
C760 H763 0.930 . S
C761 C758 1.348 . S
C761 C759 1.356 . S
H762 C756 0.930 . S
H763 C760 0.930 . S
O764 Li704 1.956 . S
O764 Li705 1.970 . S
O764 Li706 1.961 . S
O764 C708 1.325 . S
O765 Li704 1.970 . S
O765 Li705 1.956 . S
O765 Li707 1.961 . S
O765 C714 1.325 . S
O766 Li704 1.961 . S
O766 Li706 1.956 . S
O766 Li707 1.970 . S
O766 C736 1.325 . S
O767 Li705 1.961 . S
O767 Li706 1.970 . S
O767 Li707 1.956 . S
O767 C742 1.325 . S
H768 C710 0.929 . S
H769 C711 0.930 . S
H770 C712 0.930 . S
H771 C713 0.930 . S
H772 C715 0.930 . S
H773 C717 0.929 . S
H774 C718 0.930 . S
H775 C719 0.930 . S
H776 C722 0.930 . S
H777 C725 0.929 . S
H778 C730 0.929 . S
H779 C731 0.930 . S
H780 C738 0.929 . S
H781 C739 0.930 . S
H782 C740 0.930 . S
H783 C741 0.930 . S
H784 C743 0.929 . S
H785 C744 0.930 . S
H786 C745 0.930 . S
H787 C746 0.930 . S
H788 C750 0.929 . S
H789 C752 0.930 . S
H790 C758 0.929 . S
H791 C759 0.930 . S
Li792 N809 1.990 . S
Li792 O852 1.956 . S
Li792 O853 1.970 . S
Li792 O854 1.961 . S
Li793 N817 1.990 . S
Li793 O852 1.970 . S
Li793 O853 1.956 . S
Li793 O855 1.961 . S
Li794 N839 1.990 . S
Li794 O852 1.961 . S
Li794 O854 1.956 . S
Li794 O855 1.970 . S
Li795 N845 1.990 . S
Li795 O853 1.961 . S
Li795 O854 1.970 . S
Li795 O855 1.956 . S
C796 C798 1.348 . S
C796 C799 1.356 . S
C796 O852 1.325 . S
N797 C800 1.314 . S
N797 C801 1.279 1_655 S
C798 C796 1.348 . S
C798 C800 1.353 1_455 S
C798 H856 0.929 . S
C799 C796 1.356 . S
C799 C801 1.358 . S
C799 H857 0.930 . S
C800 N797 1.314 . S
C800 C798 1.353 1_655 S
C800 H858 0.930 . S
C801 N797 1.279 1_455 S
C801 C799 1.358 . S
C801 H859 0.930 . S
C802 C805 1.348 . S
C802 C806 1.356 . S
C802 O853 1.325 . S
C803 N804 1.279 . S
C803 C806 1.358 . S
C803 H860 0.930 . S
N804 C803 1.279 . S
N804 C807 1.314 . S
C805 C802 1.348 . S
C805 C807 1.353 . S
C805 H861 0.929 . S
C806 C802 1.356 . S
C806 C803 1.358 . S
C806 H862 0.930 . S
C807 N804 1.314 . S
C807 C805 1.353 . S
C807 H863 0.930 . S
C808 N809 1.314 . S
C808 C813 1.353 . S
C808 H814 0.930 . S
N809 Li792 1.990 . S
N809 C808 1.314 . S
N809 C811 1.279 . S
C810 C811 1.358 . S
C810 C812 1.356 . S
C810 H864 0.994 . S
C811 N809 1.279 . S
C811 C810 1.358 . S
C811 H815 0.930 . S
C812 C810 1.356 . S
C812 C813 1.348 . S
C813 C808 1.353 . S
C813 C812 1.348 . S
C813 H865 0.929 . S
H814 C808 0.930 . S
H815 C811 0.930 . S
C816 N817 1.314 . S
C816 C818 1.353 . S
C816 H822 0.930 . S
N817 Li793 1.990 . S
N817 C816 1.314 . S
N817 C820 1.279 . S
C818 C816 1.353 . S
C818 C821 1.348 1_455 S
C818 H866 0.929 . S
C819 C820 1.358 1_655 S
C819 C821 1.356 . S
C819 H867 0.930 . S
C820 N817 1.279 . S
C820 C819 1.358 1_455 S
C820 H823 0.930 . S
C821 C818 1.348 1_655 S
C821 C819 1.356 . S
H822 C816 0.930 . S
H823 C820 0.930 . S
C824 C826 1.348 . S
C824 C827 1.356 . S
C824 O854 1.325 . S
N825 C828 1.314 . S
N825 C829 1.279 . S
C826 C824 1.348 . S
C826 C828 1.353 . S
C826 H868 0.929 . S
C827 C824 1.356 . S
C827 C829 1.358 . S
C827 H869 0.930 . S
C828 N825 1.314 . S
C828 C826 1.353 . S
C828 H870 0.930 . S
C829 N825 1.279 . S
C829 C827 1.358 . S
C829 H871 0.930 . S
C830 C831 1.348 . S
C830 C832 1.356 . S
C830 O855 1.325 . S
C831 C830 1.348 . S
C831 C833 1.353 . S
C831 H872 0.929 . S
C832 C830 1.356 . S
C832 C834 1.358 . S
C832 H873 0.930 . S
C833 C831 1.353 . S
C833 N835 1.314 . S
C833 H874 0.930 . S
C834 C832 1.358 . S
C834 N835 1.279 . S
C834 H875 0.930 . S
N835 C833 1.314 . S
N835 C834 1.279 . S
C836 C838 1.353 . S
C836 N839 1.314 . S
C836 H842 0.930 . S
C837 N839 1.279 . S
C837 C840 1.358 . S
C837 H843 0.930 . S
C838 C836 1.353 . S
C838 C841 1.348 . S
C838 H876 0.929 . S
N839 Li794 1.990 . S
N839 C836 1.314 . S
N839 C837 1.279 . S
C840 C837 1.358 . S
C840 C841 1.356 . S
C840 H877 0.930 . S
C841 C838 1.348 . S
C841 C840 1.356 . S
H842 C836 0.930 . S
H843 C837 0.930 . S
C844 N845 1.314 . S
C844 C846 1.353 . S
C844 H850 0.930 . S
N845 Li795 1.990 . S
N845 C844 1.314 . S
N845 C848 1.279 . S
C846 C844 1.353 . S
C846 C849 1.348 . S
C846 H878 0.929 . S
C847 C848 1.358 . S
C847 C849 1.356 . S
C847 H879 0.930 . S
C848 N845 1.279 . S
C848 C847 1.358 . S
C848 H851 0.930 . S
C849 C846 1.348 . S
C849 C847 1.356 . S
H850 C844 0.930 . S
H851 C848 0.930 . S
O852 Li792 1.956 . S
O852 Li793 1.970 . S
O852 Li794 1.961 . S
O852 C796 1.325 . S
O853 Li792 1.970 . S
O853 Li793 1.956 . S
O853 Li795 1.961 . S
O853 C802 1.325 . S
O854 Li792 1.961 . S
O854 Li794 1.956 . S
O854 Li795 1.970 . S
O854 C824 1.325 . S
O855 Li793 1.961 . S
O855 Li794 1.970 . S
O855 Li795 1.956 . S
O855 C830 1.325 . S
H856 C798 0.929 . S
H857 C799 0.930 . S
H858 C800 0.930 . S
H859 C801 0.930 . S
H860 C803 0.930 . S
H861 C805 0.929 . S
H862 C806 0.930 . S
H863 C807 0.930 . S
H864 C810 0.994 . S
H865 C813 0.929 . S
H866 C818 0.929 . S
H867 C819 0.930 . S
H868 C826 0.929 . S
H869 C827 0.930 . S
H870 C828 0.930 . S
H871 C829 0.930 . S
H872 C831 0.929 . S
H873 C832 0.930 . S
H874 C833 0.930 . S
H875 C834 0.930 . S
H876 C838 0.929 . S
H877 C840 0.930 . S
H878 C846 0.929 . S
H879 C847 0.930 . S
Li880 N897 1.990 . S
Li880 O940 1.956 . S
Li880 O941 1.970 . S
Li880 O942 1.961 . S
Li881 N905 1.990 . S
Li881 O940 1.970 . S
Li881 O941 1.956 . S
Li881 O943 1.961 . S
Li882 N927 1.990 . S
Li882 O940 1.961 . S
Li882 O942 1.956 . S
Li882 O943 1.970 . S
Li883 N933 1.990 . S
Li883 O941 1.961 . S
Li883 O942 1.970 . S
Li883 O943 1.956 . S
C884 C886 1.348 . S
C884 C887 1.356 . S
C884 O940 1.325 . S
N885 C888 1.314 . S
N885 C889 1.279 . S
C886 C884 1.348 . S
C886 C888 1.353 . S
C886 H944 0.929 . S
C887 C884 1.356 . S
C887 C889 1.358 . S
C887 H945 0.930 . S
C888 N885 1.314 . S
C888 C886 1.353 . S
C888 H946 0.930 . S
C889 N885 1.279 . S
C889 C887 1.358 . S
C889 H947 0.930 . S
C890 C893 1.348 . S
C890 C894 1.356 . S
C890 O941 1.325 . S
C891 N892 1.279 . S
C891 C894 1.358 . S
C891 H948 0.930 . S
N892 C891 1.279 . S
N892 C895 1.314 . S
C893 C890 1.348 . S
C893 C895 1.353 . S
C893 H949 0.929 . S
C894 C890 1.356 . S
C894 C891 1.358 . S
C894 H950 0.930 . S
C895 N892 1.314 . S
C895 C893 1.353 . S
C895 H951 0.930 . S
C896 N897 1.314 . S
C896 C901 1.353 . S
C896 H902 0.930 . S
N897 Li880 1.990 . S
N897 C896 1.314 . S
N897 C899 1.279 . S
C898 C899 1.358 . S
C898 C900 1.356 . S
C898 H952 0.930 . S
C899 N897 1.279 . S
C899 C898 1.358 . S
C899 H903 0.930 . S
C900 C898 1.356 . S
C900 C901 1.348 . S
C901 C896 1.353 . S
C901 C900 1.348 . S
C901 H953 0.929 . S
H902 C896 0.930 . S
H903 C899 0.930 . S
C904 N905 1.314 . S
C904 C906 1.353 . S
C904 H910 0.930 . S
N905 Li881 1.990 . S
N905 C904 1.314 . S
N905 C908 1.279 . S
C906 C904 1.353 . S
C906 C909 1.348 . S
C906 H954 0.929 . S
C907 C908 1.358 . S
C907 C909 1.356 . S
C907 H955 0.930 . S
C908 N905 1.279 . S
C908 C907 1.358 . S
C908 H911 0.930 . S
C909 C906 1.348 . S
C909 C907 1.356 . S
H910 C904 0.930 . S
H911 C908 0.930 . S
C912 C914 1.348 . S
C912 C915 1.356 . S
C912 O942 1.325 . S
N913 C916 1.314 . S
N913 C917 1.279 . S
C914 C912 1.348 . S
C914 C916 1.353 . S
C914 H956 0.929 . S
C915 C912 1.356 . S
C915 C917 1.358 . S
C915 H957 0.930 . S
C916 N913 1.314 . S
C916 C914 1.353 . S
C916 H958 0.930 . S
C917 N913 1.279 . S
C917 C915 1.358 . S
C917 H959 0.930 . S
C918 C919 1.348 . S
C918 C920 1.356 . S
C918 O943 1.325 . S
C919 C918 1.348 . S
C919 C921 1.353 . S
C919 H960 0.929 . S
C920 C918 1.356 . S
C920 C922 1.358 . S
C920 H961 0.930 . S
C921 C919 1.353 . S
C921 N923 1.314 . S
C921 H962 0.930 . S
C922 C920 1.358 . S
C922 N923 1.279 . S
C922 H963 0.930 . S
N923 C921 1.314 . S
N923 C922 1.279 . S
C924 C926 1.353 . S
C924 N927 1.314 . S
C924 H930 0.930 . S
C925 N927 1.279 . S
C925 C928 1.358 . S
C925 H931 0.930 . S
C926 C924 1.353 . S
C926 C929 1.348 . S
C926 H964 0.929 . S
N927 Li882 1.990 . S
N927 C924 1.314 . S
N927 C925 1.279 . S
C928 C925 1.358 . S
C928 C929 1.356 . S
C928 H965 0.930 . S
C929 C926 1.348 . S
C929 C928 1.356 . S
H930 C924 0.930 . S
H931 C925 0.930 . S
C932 N933 1.314 . S
C932 C934 1.353 . S
C932 H938 0.930 . S
N933 Li883 1.990 . S
N933 C932 1.314 . S
N933 C936 1.279 . S
C934 C932 1.353 . S
C934 C937 1.348 . S
C934 H966 0.929 . S
C935 C936 1.358 . S
C935 C937 1.356 . S
C935 H967 0.930 . S
C936 N933 1.279 . S
C936 C935 1.358 . S
C936 H939 0.930 . S
C937 C934 1.348 . S
C937 C935 1.356 . S
H938 C932 0.930 . S
H939 C936 0.930 . S
O940 Li880 1.956 . S
O940 Li881 1.970 . S
O940 Li882 1.961 . S
O940 C884 1.325 . S
O941 Li880 1.970 . S
O941 Li881 1.956 . S
O941 Li883 1.961 . S
O941 C890 1.325 . S
O942 Li880 1.961 . S
O942 Li882 1.956 . S
O942 Li883 1.970 . S
O942 C912 1.325 . S
O943 Li881 1.961 . S
O943 Li882 1.970 . S
O943 Li883 1.956 . S
O943 C918 1.325 . S
H944 C886 0.929 . S
H945 C887 0.930 . S
H946 C888 0.930 . S
H947 C889 0.930 . S
H948 C891 0.930 . S
H949 C893 0.929 . S
H950 C894 0.930 . S
H951 C895 0.930 . S
H952 C898 0.930 . S
H953 C901 0.929 . S
H954 C906 0.929 . S
H955 C907 0.930 . S
H956 C914 0.929 . S
H957 C915 0.930 . S
H958 C916 0.930 . S
H959 C917 0.930 . S
H960 C919 0.929 . S
H961 C920 0.930 . S
H962 C921 0.930 . S
H963 C922 0.930 . S
H964 C926 0.929 . S
H965 C928 0.930 . S
H966 C934 0.929 . S
H967 C935 0.930 . S
Li968 N985 1.990 . S
Li968 O1028 1.956 . S
Li968 O1029 1.970 . S
Li968 O1030 1.961 . S
Li969 N993 1.990 . S
Li969 O1028 1.970 . S
Li969 O1029 1.956 . S
Li969 O1031 1.961 . S
Li970 N1015 1.990 . S
Li970 O1028 1.961 . S
Li970 O1030 1.956 . S
Li970 O1031 1.970 . S
Li971 N1021 1.990 . S
Li971 O1029 1.961 . S
Li971 O1030 1.970 . S
Li971 O1031 1.956 . S
C972 C974 1.348 . S
C972 C975 1.356 1_554 S
C972 O1028 1.325 . S
N973 C976 1.314 1_556 S
N973 C977 1.279 . S
C974 C972 1.348 . S
C974 C976 1.353 . S
C974 H1032 0.929 . S
C975 C972 1.356 1_556 S
C975 C977 1.358 . S
C975 H1033 0.930 . S
C976 N973 1.314 1_554 S
C976 C974 1.353 . S
C976 H1034 0.930 . S
C977 N973 1.279 . S
C977 C975 1.358 . S
C977 H1035 0.930 . S
C978 C981 1.348 . S
C978 C982 1.356 . S
C978 O1029 1.325 . S
C979 N980 1.279 . S
C979 C982 1.358 . S
C979 H1036 0.930 . S
N980 C979 1.279 . S
N980 C983 1.314 . S
C981 C978 1.348 . S
C981 C983 1.353 . S
C981 H1037 0.929 . S
C982 C978 1.356 . S
C982 C979 1.358 . S
C982 H1038 0.930 . S
C983 N980 1.314 . S
C983 C981 1.353 . S
C983 H1039 0.930 . S
C984 N985 1.314 . S
C984 C989 1.353 . S
C984 H990 0.930 . S
N985 Li968 1.990 . S
N985 C984 1.314 . S
N985 C987 1.279 . S
C986 C987 1.358 . S
C986 C988 1.356 . S
C986 H1040 0.930 1_554 S
C987 N985 1.279 . S
C987 C986 1.358 . S
C987 H991 0.930 . S
C988 C986 1.356 . S
C988 C989 1.348 . S
C989 C984 1.353 . S
C989 C988 1.348 . S
C989 H1041 0.929 . S
H990 C984 0.930 . S
H991 C987 0.930 . S
C992 N993 1.314 . S
C992 C994 1.353 . S
C992 H998 0.930 . S
N993 Li969 1.990 . S
N993 C992 1.314 . S
N993 C996 1.279 . S
C994 C992 1.353 . S
C994 C997 1.348 . S
C994 H1042 0.929 . S
C995 C996 1.358 . S
C995 C997 1.356 . S
C995 H1043 0.930 . S
C996 N993 1.279 . S
C996 C995 1.358 . S
C996 H999 0.930 . S
C997 C994 1.348 . S
C997 C995 1.356 . S
H998 C992 0.930 . S
H999 C996 0.930 . S
C1000 C1002 1.348 . S
C1000 C1003 1.356 . S
C1000 O1030 1.325 . S
N1001 C1004 1.314 1_556 S
N1001 C1005 1.279 . S
C1002 C1000 1.348 . S
C1002 C1004 1.353 . S
C1002 H1044 0.929 . S
C1003 C1000 1.356 . S
C1003 C1005 1.358 1_554 S
C1003 H1045 0.930 1_554 S
C1004 N1001 1.314 1_554 S
C1004 C1002 1.353 . S
C1004 H1046 0.930 . S
C1005 N1001 1.279 . S
C1005 C1003 1.358 1_556 S
C1005 H1047 0.930 . S
C1006 C1007 1.348 . S
C1006 C1008 1.356 . S
C1006 O1031 1.325 . S
C1007 C1006 1.348 . S
C1007 C1009 1.353 . S
C1007 H1048 0.929 . S
C1008 C1006 1.356 . S
C1008 C1010 1.358 . S
C1008 H1049 0.930 . S
C1009 C1007 1.353 . S
C1009 N1011 1.314 . S
C1009 H1050 0.930 . S
C1010 C1008 1.358 . S
C1010 N1011 1.279 . S
C1010 H1051 0.930 . S
N1011 C1009 1.314 . S
N1011 C1010 1.279 . S
C1012 C1014 1.353 1_554 S
C1012 N1015 1.314 . S
C1012 H1018 0.930 . S
C1013 N1015 1.265 1_556 S
C1013 C1016 1.378 . S
C1013 H1019 0.925 1_556 S
C1014 C1012 1.353 1_556 S
C1014 C1017 1.348 . S
C1014 H1052 0.929 . S
N1015 Li970 1.990 . S
N1015 C1012 1.314 . S
N1015 C1013 1.265 1_554 S
C1016 C1013 1.378 . S
C1016 C1017 1.356 . S
C1016 H1053 0.930 . S
C1017 C1014 1.348 . S
C1017 C1016 1.356 . S
H1018 C1012 0.930 . S
H1019 C1013 0.925 1_554 S
C1020 N1021 1.314 . S
C1020 C1022 1.353 . S
C1020 H1026 0.930 . S
N1021 Li971 1.990 . S
N1021 C1020 1.314 . S
N1021 C1024 1.279 . S
C1022 C1020 1.353 . S
C1022 C1025 1.348 . S
C1022 H1054 0.929 . S
C1023 C1024 1.358 . S
C1023 C1025 1.356 . S
C1023 H1055 0.930 . S
C1024 N1021 1.279 . S
C1024 C1023 1.358 . S
C1024 H1027 0.930 . S
C1025 C1022 1.348 . S
C1025 C1023 1.356 . S
H1026 C1020 0.930 . S
H1027 C1024 0.930 . S
O1028 Li968 1.956 . S
O1028 Li969 1.970 . S
O1028 Li970 1.961 . S
O1028 C972 1.325 . S
O1029 Li968 1.970 . S
O1029 Li969 1.956 . S
O1029 Li971 1.961 . S
O1029 C978 1.325 . S
O1030 Li968 1.961 . S
O1030 Li970 1.956 . S
O1030 Li971 1.970 . S
O1030 C1000 1.325 . S
O1031 Li969 1.961 . S
O1031 Li970 1.970 . S
O1031 Li971 1.956 . S
O1031 C1006 1.325 . S
H1032 C974 0.929 . S
H1033 C975 0.930 . S
H1034 C976 0.930 . S
H1035 C977 0.930 . S
H1036 C979 0.930 . S
H1037 C981 0.929 . S
H1038 C982 0.930 . S
H1039 C983 0.930 . S
H1040 C986 0.930 1_556 S
H1041 C989 0.929 . S
H1042 C994 0.929 . S
H1043 C995 0.930 . S
H1044 C1002 0.929 . S
H1045 C1003 0.930 1_556 S
H1046 C1004 0.930 . S
H1047 C1005 0.930 . S
H1048 C1007 0.929 . S
H1049 C1008 0.930 . S
H1050 C1009 0.930 . S
H1051 C1010 0.930 . S
H1052 C1014 0.929 . S
H1053 C1016 0.930 . S
H1054 C1022 0.929 . S
H1055 C1023 0.930 . S
Li1056 N1073 1.990 . S
Li1056 O1116 1.956 . S
Li1056 O1117 1.970 . S
Li1056 O1118 1.961 . S
Li1057 N1081 1.990 . S
Li1057 O1116 1.970 . S
Li1057 O1117 1.956 . S
Li1057 O1119 1.961 . S
Li1058 N1103 1.990 . S
Li1058 O1116 1.961 . S
Li1058 O1118 1.956 . S
Li1058 O1119 1.970 . S
Li1059 N1109 1.990 . S
Li1059 O1117 1.961 . S
Li1059 O1118 1.970 . S
Li1059 O1119 1.956 . S
C1060 C1062 1.348 . S
C1060 C1063 1.356 . S
C1060 O1116 1.325 . S
N1061 C1064 1.314 . S
N1061 C1065 1.279 . S
C1062 C1060 1.348 . S
C1062 C1064 1.353 . S
C1062 H1120 0.929 . S
C1063 C1060 1.356 . S
C1063 C1065 1.358 . S
C1063 H1121 0.930 . S
C1064 N1061 1.314 . S
C1064 C1062 1.353 . S
C1064 H1122 0.930 . S
C1065 N1061 1.279 . S
C1065 C1063 1.358 . S
C1065 H1123 0.930 . S
C1066 C1069 1.348 . S
C1066 C1070 1.356 . S
C1066 O1117 1.325 . S
C1067 N1068 1.279 . S
C1067 C1070 1.358 . S
C1067 H1124 0.930 . S
N1068 C1067 1.279 . S
N1068 C1071 1.314 . S
C1069 C1066 1.348 . S
C1069 C1071 1.353 . S
C1069 H1125 0.929 . S
C1070 C1066 1.356 . S
C1070 C1067 1.358 . S
C1070 H1126 0.930 . S
C1071 N1068 1.314 . S
C1071 C1069 1.353 . S
C1071 H1127 0.930 . S
C1072 N1073 1.314 . S
C1072 C1077 1.353 . S
C1072 H1078 0.930 . S
N1073 Li1056 1.990 . S
N1073 C1072 1.314 . S
N1073 C1075 1.279 . S
C1074 C1075 1.358 . S
C1074 C1076 1.356 . S
C1074 H1128 0.930 . S
C1075 N1073 1.279 . S
C1075 C1074 1.358 . S
C1075 H1079 0.930 . S
C1076 C1074 1.356 . S
C1076 C1077 1.348 . S
C1077 C1072 1.353 . S
C1077 C1076 1.348 . S
C1077 H1129 0.929 . S
H1078 C1072 0.930 . S
H1079 C1075 0.930 . S
C1080 N1081 1.314 . S
C1080 C1082 1.353 . S
C1080 H1086 0.930 . S
N1081 Li1057 1.990 . S
N1081 C1080 1.314 . S
N1081 C1084 1.279 . S
C1082 C1080 1.353 . S
C1082 C1085 1.348 . S
C1082 H1130 0.929 . S
C1083 C1084 1.358 . S
C1083 C1085 1.356 . S
C1083 H1131 0.930 . S
C1084 N1081 1.279 . S
C1084 C1083 1.358 . S
C1084 H1087 0.930 . S
C1085 C1082 1.348 . S
C1085 C1083 1.356 . S
H1086 C1080 0.930 . S
H1087 C1084 0.930 . S
C1088 C1090 1.348 . S
C1088 C1091 1.356 . S
C1088 O1118 1.325 . S
N1089 C1092 1.314 . S
N1089 C1093 1.279 . S
C1090 C1088 1.348 . S
C1090 C1092 1.353 . S
C1090 H1132 0.929 . S
C1091 C1088 1.356 . S
C1091 C1093 1.358 . S
C1091 H1133 0.930 . S
C1092 N1089 1.314 . S
C1092 C1090 1.353 . S
C1092 H1134 0.930 . S
C1093 N1089 1.279 . S
C1093 C1091 1.358 . S
C1093 H1135 0.930 . S
C1094 C1095 1.348 . S
C1094 C1096 1.356 . S
C1094 O1119 1.325 . S
C1095 C1094 1.348 . S
C1095 C1097 1.353 . S
C1095 H1136 0.929 . S
C1096 C1094 1.356 . S
C1096 C1098 1.358 . S
C1096 H1137 0.930 . S
C1097 C1095 1.353 . S
C1097 N1099 1.314 . S
C1097 H1138 0.930 . S
C1098 C1096 1.358 . S
C1098 N1099 1.279 . S
C1098 H1139 0.930 . S
N1099 C1097 1.314 . S
N1099 C1098 1.279 . S
C1100 C1102 1.353 . S
C1100 N1103 1.314 . S
C1100 H1106 0.930 . S
C1101 N1103 1.279 . S
C1101 C1104 1.358 . S
C1101 H1107 0.930 . S
C1102 C1100 1.353 . S
C1102 C1105 1.348 . S
C1102 H1140 0.929 . S
N1103 Li1058 1.990 . S
N1103 C1100 1.314 . S
N1103 C1101 1.279 . S
C1104 C1101 1.358 . S
C1104 C1105 1.356 . S
C1104 H1141 0.930 . S
C1105 C1102 1.348 . S
C1105 C1104 1.356 . S
H1106 C1100 0.930 . S
H1107 C1101 0.930 . S
C1108 N1109 1.314 . S
C1108 C1110 1.353 . S
C1108 H1114 0.930 . S
N1109 Li1059 1.990 . S
N1109 C1108 1.314 . S
N1109 C1112 1.279 . S
C1110 C1108 1.353 . S
C1110 C1113 1.348 . S
C1110 H1142 0.929 . S
C1111 C1112 1.358 . S
C1111 C1113 1.356 . S
C1111 H1143 0.930 . S
C1112 N1109 1.279 . S
C1112 C1111 1.358 . S
C1112 H1115 0.930 . S
C1113 C1110 1.348 . S
C1113 C1111 1.356 . S
H1114 C1108 0.930 . S
H1115 C1112 0.930 . S
O1116 Li1056 1.956 . S
O1116 Li1057 1.970 . S
O1116 Li1058 1.961 . S
O1116 C1060 1.325 . S
O1117 Li1056 1.970 . S
O1117 Li1057 1.956 . S
O1117 Li1059 1.961 . S
O1117 C1066 1.325 . S
O1118 Li1056 1.961 . S
O1118 Li1058 1.956 . S
O1118 Li1059 1.970 . S
O1118 C1088 1.325 . S
O1119 Li1057 1.961 . S
O1119 Li1058 1.970 . S
O1119 Li1059 1.956 . S
O1119 C1094 1.325 . S
H1120 C1062 0.929 . S
H1121 C1063 0.930 . S
H1122 C1064 0.930 . S
H1123 C1065 0.930 . S
H1124 C1067 0.930 . S
H1125 C1069 0.929 . S
H1126 C1070 0.930 . S
H1127 C1071 0.930 . S
H1128 C1074 0.930 . S
H1129 C1077 0.929 . S
H1130 C1082 0.929 . S
H1131 C1083 0.930 . S
H1132 C1090 0.929 . S
H1133 C1091 0.930 . S
H1134 C1092 0.930 . S
H1135 C1093 0.930 . S
H1136 C1095 0.929 . S
H1137 C1096 0.930 . S
H1138 C1097 0.930 . S
H1139 C1098 0.930 . S
H1140 C1102 0.929 . S
H1141 C1104 0.930 . S
H1142 C1110 0.929 . S
H1143 C1111 0.930 . S
Li1144 N1161 1.990 . S
Li1144 O1204 1.956 . S
Li1144 O1205 1.970 . S
Li1144 O1206 1.961 . S
Li1145 N1169 1.990 . S
Li1145 O1204 1.970 . S
Li1145 O1205 1.956 . S
Li1145 O1207 1.961 . S
Li1146 N1191 1.990 . S
Li1146 O1204 1.961 . S
Li1146 O1206 1.956 . S
Li1146 O1207 1.970 . S
Li1147 N1197 1.990 . S
Li1147 O1205 1.961 . S
Li1147 O1206 1.970 . S
Li1147 O1207 1.956 . S
C1148 C1150 1.348 . S
C1148 C1151 1.356 . S
C1148 O1204 1.325 . S
N1149 C1152 1.314 1_554 S
N1149 C1153 1.279 . S
C1150 C1148 1.348 . S
C1150 C1152 1.353 . S
C1150 H1208 0.929 . S
C1151 C1148 1.356 . S
C1151 C1153 1.358 1_556 S
C1151 H1209 0.930 1_556 S
C1152 N1149 1.314 1_556 S
C1152 C1150 1.353 . S
C1152 H1210 0.930 . S
C1153 N1149 1.279 . S
C1153 C1151 1.358 1_554 S
C1153 H1211 0.930 . S
C1154 C1157 1.348 . S
C1154 C1158 1.356 . S
C1154 O1205 1.325 . S
C1155 N1156 1.279 1_655 S
C1155 C1158 1.358 . S
C1155 H1212 0.930 . S
N1156 C1155 1.279 1_455 S
N1156 C1159 1.314 . S
C1157 C1154 1.348 . S
C1157 C1159 1.353 1_655 S
C1157 H1213 0.929 . S
C1158 C1154 1.356 . S
C1158 C1155 1.358 . S
C1158 H1214 0.930 . S
C1159 N1156 1.314 . S
C1159 C1157 1.353 1_455 S
C1159 H1215 0.930 . S
C1160 N1161 1.314 . S
C1160 C1165 1.353 1_556 S
C1160 H1166 0.930 . S
N1161 Li1144 1.990 . S
N1161 C1160 1.314 . S
N1161 C1163 1.265 1_556 S
C1162 C1163 1.379 1_455 S
C1162 C1164 1.356 . S
C1162 H1216 0.930 . S
C1163 N1161 1.265 1_554 S
C1163 C1162 1.379 1_655 S
C1163 H1167 0.925 1_554 S
C1164 C1162 1.356 . S
C1164 C1165 1.348 1_455 S
C1165 C1160 1.353 1_554 S
C1165 C1164 1.348 1_655 S
C1165 H1217 0.929 . S
H1166 C1160 0.930 . S
H1167 C1163 0.925 1_556 S
C1168 N1169 1.314 . S
C1168 C1170 1.353 . S
C1168 H1174 0.930 . S
N1169 Li1145 1.990 . S
N1169 C1168 1.314 . S
N1169 C1172 1.279 . S
C1170 C1168 1.353 . S
C1170 C1173 1.348 . S
C1170 H1218 0.929 . S
C1171 C1172 1.358 . S
C1171 C1173 1.356 . S
C1171 H1219 0.996 . S
C1172 N1169 1.279 . S
C1172 C1171 1.358 . S
C1172 H1175 0.930 . S
C1173 C1170 1.348 . S
C1173 C1171 1.356 . S
H1174 C1168 0.930 . S
H1175 C1172 0.930 . S
C1176 C1178 1.348 . S
C1176 C1179 1.356 1_556 S
C1176 O1206 1.325 . S
N1177 C1180 1.314 1_554 S
N1177 C1181 1.279 . S
C1178 C1176 1.348 . S
C1178 C1180 1.353 . S
C1178 H1220 0.929 . S
C1179 C1176 1.356 1_554 S
C1179 C1181 1.358 . S
C1179 H1221 0.930 . S
C1180 N1177 1.314 1_556 S
C1180 C1178 1.353 . S
C1180 H1222 0.930 . S
C1181 N1177 1.279 . S
C1181 C1179 1.358 . S
C1181 H1223 0.930 . S
C1182 C1183 1.348 . S
C1182 C1184 1.356 . S
C1182 O1207 1.325 . S
C1183 C1182 1.348 . S
C1183 C1185 1.353 . S
C1183 H1224 0.929 . S
C1184 C1182 1.356 . S
C1184 C1186 1.358 . S
C1184 H1225 0.930 . S
C1185 C1183 1.353 . S
C1185 N1187 1.314 . S
C1185 H1226 0.930 . S
C1186 C1184 1.358 . S
C1186 N1187 1.279 . S
C1186 H1227 0.930 . S
N1187 C1185 1.314 . S
N1187 C1186 1.279 . S
C1188 C1190 1.353 . S
C1188 N1191 1.314 . S
C1188 H1194 0.930 . S
C1189 N1191 1.279 . S
C1189 C1192 1.358 . S
C1189 H1195 0.930 . S
C1190 C1188 1.353 . S
C1190 C1193 1.348 . S
C1190 H1228 0.929 . S
N1191 Li1146 1.990 . S
N1191 C1188 1.314 . S
N1191 C1189 1.279 . S
C1192 C1189 1.358 . S
C1192 C1193 1.356 . S
C1192 H1229 0.930 1_556 S
C1193 C1190 1.348 . S
C1193 C1192 1.356 . S
H1194 C1188 0.930 . S
H1195 C1189 0.930 . S
C1196 N1197 1.314 . S
C1196 C1198 1.353 . S
C1196 H1202 0.930 . S
N1197 Li1147 1.990 . S
N1197 C1196 1.314 . S
N1197 C1200 1.279 . S
C1198 C1196 1.353 . S
C1198 C1201 1.348 . S
C1198 H1230 0.929 . S
C1199 C1200 1.358 . S
C1199 C1201 1.356 . S
C1199 H1231 0.930 . S
C1200 N1197 1.279 . S
C1200 C1199 1.358 . S
C1200 H1203 0.930 . S
C1201 C1198 1.348 . S
C1201 C1199 1.356 . S
H1202 C1196 0.930 . S
H1203 C1200 0.930 . S
O1204 Li1144 1.956 . S
O1204 Li1145 1.970 . S
O1204 Li1146 1.961 . S
O1204 C1148 1.325 . S
O1205 Li1144 1.970 . S
O1205 Li1145 1.956 . S
O1205 Li1147 1.961 . S
O1205 C1154 1.325 . S
O1206 Li1144 1.961 . S
O1206 Li1146 1.956 . S
O1206 Li1147 1.970 . S
O1206 C1176 1.325 . S
O1207 Li1145 1.961 . S
O1207 Li1146 1.970 . S
O1207 Li1147 1.956 . S
O1207 C1182 1.325 . S
H1208 C1150 0.929 . S
H1209 C1151 0.930 1_554 S
H1210 C1152 0.930 . S
H1211 C1153 0.930 . S
H1212 C1155 0.930 . S
H1213 C1157 0.929 . S
H1214 C1158 0.930 . S
H1215 C1159 0.930 . S
H1216 C1162 0.930 . S
H1217 C1165 0.929 . S
H1218 C1170 0.929 . S
H1219 C1171 0.996 . S
H1220 C1178 0.929 . S
H1221 C1179 0.930 . S
H1222 C1180 0.930 . S
H1223 C1181 0.930 . S
H1224 C1183 0.929 . S
H1225 C1184 0.930 . S
H1226 C1185 0.930 . S
H1227 C1186 0.930 . S
H1228 C1190 0.929 . S
H1229 C1192 0.930 1_554 S
H1230 C1198 0.929 . S
H1231 C1199 0.930 . S
Li1232 N1249 1.990 . S
Li1232 O1292 1.956 . S
Li1232 O1293 1.970 . S
Li1232 O1294 1.961 . S
Li1233 N1257 1.990 . S
Li1233 O1292 1.970 . S
Li1233 O1293 1.956 . S
Li1233 O1295 1.961 . S
Li1234 N1279 1.990 . S
Li1234 O1292 1.961 . S
Li1234 O1294 1.956 . S
Li1234 O1295 1.970 . S
Li1235 N1285 1.990 . S
Li1235 O1293 1.961 . S
Li1235 O1294 1.970 . S
Li1235 O1295 1.956 . S
C1236 C1238 1.348 . S
C1236 C1239 1.356 . S
C1236 O1292 1.325 . S
N1237 C1240 1.314 . S
N1237 C1241 1.279 . S
C1238 C1236 1.348 . S
C1238 C1240 1.353 . S
C1238 H1296 0.929 . S
C1239 C1236 1.356 . S
C1239 C1241 1.358 . S
C1239 H1297 0.930 . S
C1240 N1237 1.314 . S
C1240 C1238 1.353 . S
C1240 H1298 0.930 . S
C1241 N1237 1.279 . S
C1241 C1239 1.358 . S
C1241 H1299 0.930 . S
C1242 C1245 1.348 . S
C1242 C1246 1.356 . S
C1242 O1293 1.325 . S
C1243 N1244 1.279 . S
C1243 C1246 1.358 . S
C1243 H1300 0.930 . S
N1244 C1243 1.279 . S
N1244 C1247 1.314 . S
C1245 C1242 1.348 . S
C1245 C1247 1.353 . S
C1245 H1301 0.929 . S
C1246 C1242 1.356 . S
C1246 C1243 1.358 . S
C1246 H1302 0.930 . S
C1247 N1244 1.314 . S
C1247 C1245 1.353 . S
C1247 H1303 0.930 . S
C1248 N1249 1.314 . S
C1248 C1253 1.353 . S
C1248 H1254 0.930 . S
N1249 Li1232 1.990 . S
N1249 C1248 1.314 . S
N1249 C1251 1.279 . S
C1250 C1251 1.358 . S
C1250 C1252 1.356 . S
C1250 H1304 0.930 . S
C1251 N1249 1.279 . S
C1251 C1250 1.358 . S
C1251 H1255 0.930 . S
C1252 C1250 1.356 . S
C1252 C1253 1.348 . S
C1253 C1248 1.353 . S
C1253 C1252 1.348 . S
C1253 H1305 0.929 . S
H1254 C1248 0.930 . S
H1255 C1251 0.930 . S
C1256 N1257 1.314 . S
C1256 C1258 1.353 . S
C1256 H1262 0.930 . S
N1257 Li1233 1.990 . S
N1257 C1256 1.314 . S
N1257 C1260 1.279 . S
C1258 C1256 1.353 . S
C1258 C1261 1.348 . S
C1258 H1306 0.929 . S
C1259 C1260 1.358 . S
C1259 C1261 1.356 . S
C1259 H1307 0.930 . S
C1260 N1257 1.279 . S
C1260 C1259 1.358 . S
C1260 H1263 0.930 . S
C1261 C1258 1.348 . S
C1261 C1259 1.356 . S
H1262 C1256 0.930 . S
H1263 C1260 0.930 . S
C1264 C1266 1.348 . S
C1264 C1267 1.356 . S
C1264 O1294 1.325 . S
N1265 C1268 1.314 . S
N1265 C1269 1.279 . S
C1266 C1264 1.348 . S
C1266 C1268 1.353 . S
C1266 H1308 0.929 . S
C1267 C1264 1.356 . S
C1267 C1269 1.358 . S
C1267 H1309 0.930 . S
C1268 N1265 1.314 . S
C1268 C1266 1.353 . S
C1268 H1310 0.930 . S
C1269 N1265 1.279 . S
C1269 C1267 1.358 . S
C1269 H1311 0.930 . S
C1270 C1271 1.348 . S
C1270 C1272 1.356 . S
C1270 O1295 1.325 . S
C1271 C1270 1.348 . S
C1271 C1273 1.353 . S
C1271 H1312 0.929 . S
C1272 C1270 1.356 . S
C1272 C1274 1.358 . S
C1272 H1313 0.930 . S
C1273 C1271 1.353 . S
C1273 N1275 1.314 . S
C1273 H1314 0.930 . S
C1274 C1272 1.358 . S
C1274 N1275 1.279 . S
C1274 H1315 0.930 . S
N1275 C1273 1.314 . S
N1275 C1274 1.279 . S
C1276 C1278 1.353 . S
C1276 N1279 1.314 . S
C1276 H1282 0.930 . S
C1277 N1279 1.279 . S
C1277 C1280 1.358 . S
C1277 H1283 0.930 . S
C1278 C1276 1.353 . S
C1278 C1281 1.348 . S
C1278 H1316 0.929 . S
N1279 Li1234 1.990 . S
N1279 C1276 1.314 . S
N1279 C1277 1.279 . S
C1280 C1277 1.358 . S
C1280 C1281 1.356 . S
C1280 H1317 0.930 . S
C1281 C1278 1.348 . S
C1281 C1280 1.356 . S
H1282 C1276 0.930 . S
H1283 C1277 0.930 . S
C1284 N1285 1.314 . S
C1284 C1286 1.353 . S
C1284 H1290 0.930 . S
N1285 Li1235 1.990 . S
N1285 C1284 1.314 . S
N1285 C1288 1.279 . S
C1286 C1284 1.353 . S
C1286 C1289 1.348 . S
C1286 H1318 0.929 . S
C1287 C1288 1.358 . S
C1287 C1289 1.356 . S
C1287 H1319 0.930 . S
C1288 N1285 1.279 . S
C1288 C1287 1.358 . S
C1288 H1291 0.930 . S
C1289 C1286 1.348 . S
C1289 C1287 1.356 . S
H1290 C1284 0.930 . S
H1291 C1288 0.930 . S
O1292 Li1232 1.956 . S
O1292 Li1233 1.970 . S
O1292 Li1234 1.961 . S
O1292 C1236 1.325 . S
O1293 Li1232 1.970 . S
O1293 Li1233 1.956 . S
O1293 Li1235 1.961 . S
O1293 C1242 1.325 . S
O1294 Li1232 1.961 . S
O1294 Li1234 1.956 . S
O1294 Li1235 1.970 . S
O1294 C1264 1.325 . S
O1295 Li1233 1.961 . S
O1295 Li1234 1.970 . S
O1295 Li1235 1.956 . S
O1295 C1270 1.325 . S
H1296 C1238 0.929 . S
H1297 C1239 0.930 . S
H1298 C1240 0.930 . S
H1299 C1241 0.930 . S
H1300 C1243 0.930 . S
H1301 C1245 0.929 . S
H1302 C1246 0.930 . S
H1303 C1247 0.930 . S
H1304 C1250 0.930 . S
H1305 C1253 0.929 . S
H1306 C1258 0.929 . S
H1307 C1259 0.930 . S
H1308 C1266 0.929 . S
H1309 C1267 0.930 . S
H1310 C1268 0.930 . S
H1311 C1269 0.930 . S
H1312 C1271 0.929 . S
H1313 C1272 0.930 . S
H1314 C1273 0.930 . S
H1315 C1274 0.930 . S
H1316 C1278 0.929 . S
H1317 C1280 0.930 . S
H1318 C1286 0.929 . S
H1319 C1287 0.930 . S
Li1320 N1337 1.990 . S
Li1320 O1380 1.956 . S
Li1320 O1381 1.970 . S
Li1320 O1382 1.961 . S
Li1321 N1345 1.990 . S
Li1321 O1380 1.970 . S
Li1321 O1381 1.956 . S
Li1321 O1383 1.961 . S
Li1322 N1367 1.990 . S
Li1322 O1380 1.961 . S
Li1322 O1382 1.956 . S
Li1322 O1383 1.970 . S
Li1323 N1373 1.990 . S
Li1323 O1381 1.961 . S
Li1323 O1382 1.970 . S
Li1323 O1383 1.956 . S
C1324 C1326 1.348 . S
C1324 C1327 1.356 . S
C1324 O1380 1.325 . S
N1325 C1328 1.314 . S
N1325 C1329 1.279 . S
C1326 C1324 1.348 . S
C1326 C1328 1.353 . S
C1326 H1384 0.929 . S
C1327 C1324 1.356 . S
C1327 C1329 1.358 . S
C1327 H1385 0.930 . S
C1328 N1325 1.314 . S
C1328 C1326 1.353 . S
C1328 H1386 0.930 . S
C1329 N1325 1.279 . S
C1329 C1327 1.358 . S
C1329 H1387 0.930 . S
C1330 C1333 1.348 . S
C1330 C1334 1.356 . S
C1330 O1381 1.325 . S
C1331 N1332 1.279 . S
C1331 C1334 1.358 . S
C1331 H1388 0.930 . S
N1332 C1331 1.279 . S
N1332 C1335 1.314 . S
C1333 C1330 1.348 . S
C1333 C1335 1.353 . S
C1333 H1389 0.929 . S
C1334 C1330 1.356 . S
C1334 C1331 1.358 . S
C1334 H1390 0.930 . S
C1335 N1332 1.314 . S
C1335 C1333 1.353 . S
C1335 H1391 0.930 . S
C1336 N1337 1.314 . S
C1336 C1341 1.353 . S
C1336 H1342 0.930 . S
N1337 Li1320 1.990 . S
N1337 C1336 1.314 . S
N1337 C1339 1.279 . S
C1338 C1339 1.358 . S
C1338 C1340 1.356 . S
C1338 H1392 0.930 . S
C1339 N1337 1.279 . S
C1339 C1338 1.358 . S
C1339 H1343 0.930 . S
C1340 C1338 1.356 . S
C1340 C1341 1.348 . S
C1341 C1336 1.353 . S
C1341 C1340 1.348 . S
C1341 H1393 0.929 . S
H1342 C1336 0.930 . S
H1343 C1339 0.930 . S
C1344 N1345 1.314 . S
C1344 C1346 1.353 . S
C1344 H1350 0.930 . S
N1345 Li1321 1.990 . S
N1345 C1344 1.314 . S
N1345 C1348 1.279 . S
C1346 C1344 1.353 . S
C1346 C1349 1.348 . S
C1346 H1394 0.929 . S
C1347 C1348 1.358 . S
C1347 C1349 1.356 . S
C1347 H1395 0.930 . S
C1348 N1345 1.279 . S
C1348 C1347 1.358 . S
C1348 H1351 0.930 . S
C1349 C1346 1.348 . S
C1349 C1347 1.356 . S
H1350 C1344 0.930 . S
H1351 C1348 0.930 . S
C1352 C1354 1.348 . S
C1352 C1355 1.356 . S
C1352 O1382 1.325 . S
N1353 C1356 1.314 . S
N1353 C1357 1.279 . S
C1354 C1352 1.348 . S
C1354 C1356 1.353 . S
C1354 H1396 0.929 . S
C1355 C1352 1.356 . S
C1355 C1357 1.358 . S
C1355 H1397 0.930 . S
C1356 N1353 1.314 . S
C1356 C1354 1.353 . S
C1356 H1398 0.930 . S
C1357 N1353 1.279 . S
C1357 C1355 1.358 . S
C1357 H1399 0.930 . S
C1358 C1359 1.348 . S
C1358 C1360 1.356 . S
C1358 O1383 1.325 . S
C1359 C1358 1.348 . S
C1359 C1361 1.353 . S
C1359 H1400 0.929 . S
C1360 C1358 1.356 . S
C1360 C1362 1.358 . S
C1360 H1401 0.930 . S
C1361 C1359 1.353 . S
C1361 N1363 1.314 . S
C1361 H1402 0.930 . S
C1362 C1360 1.358 . S
C1362 N1363 1.279 . S
C1362 H1403 0.930 . S
N1363 C1361 1.314 . S
N1363 C1362 1.279 . S
C1364 C1366 1.353 . S
C1364 N1367 1.314 . S
C1364 H1370 0.930 . S
C1365 N1367 1.279 . S
C1365 C1368 1.358 . S
C1365 H1371 0.930 . S
C1366 C1364 1.353 . S
C1366 C1369 1.348 . S
C1366 H1404 0.929 . S
N1367 Li1322 1.990 . S
N1367 C1364 1.314 . S
N1367 C1365 1.279 . S
C1368 C1365 1.358 . S
C1368 C1369 1.356 . S
C1368 H1405 0.930 . S
C1369 C1366 1.348 . S
C1369 C1368 1.356 . S
H1370 C1364 0.930 . S
H1371 C1365 0.930 . S
C1372 N1373 1.314 . S
C1372 C1374 1.353 . S
C1372 H1378 0.930 . S
N1373 Li1323 1.990 . S
N1373 C1372 1.314 . S
N1373 C1376 1.279 . S
C1374 C1372 1.353 . S
C1374 C1377 1.348 . S
C1374 H1406 0.929 . S
C1375 C1376 1.358 . S
C1375 C1377 1.356 . S
C1375 H1407 0.930 . S
C1376 N1373 1.279 . S
C1376 C1375 1.358 . S
C1376 H1379 0.930 . S
C1377 C1374 1.348 . S
C1377 C1375 1.356 . S
H1378 C1372 0.930 . S
H1379 C1376 0.930 . S
O1380 Li1320 1.956 . S
O1380 Li1321 1.970 . S
O1380 Li1322 1.961 . S
O1380 C1324 1.325 . S
O1381 Li1320 1.970 . S
O1381 Li1321 1.956 . S
O1381 Li1323 1.961 . S
O1381 C1330 1.325 . S
O1382 Li1320 1.961 . S
O1382 Li1322 1.956 . S
O1382 Li1323 1.970 . S
O1382 C1352 1.325 . S
O1383 Li1321 1.961 . S
O1383 Li1322 1.970 . S
O1383 Li1323 1.956 . S
O1383 C1358 1.325 . S
H1384 C1326 0.929 . S
H1385 C1327 0.930 . S
H1386 C1328 0.930 . S
H1387 C1329 0.930 . S
H1388 C1331 0.930 . S
H1389 C1333 0.929 . S
H1390 C1334 0.930 . S
H1391 C1335 0.930 . S
H1392 C1338 0.930 . S
H1393 C1341 0.929 . S
H1394 C1346 0.929 . S
H1395 C1347 0.930 . S
H1396 C1354 0.929 . S
H1397 C1355 0.930 . S
H1398 C1356 0.930 . S
H1399 C1357 0.930 . S
H1400 C1359 0.929 . S
H1401 C1360 0.930 . S
H1402 C1361 0.930 . S
H1403 C1362 0.930 . S
H1404 C1366 0.929 . S
H1405 C1368 0.930 . S
H1406 C1374 0.929 . S
H1407 C1375 0.930 . S
Li1408 N1425 1.990 . S
Li1408 O1468 1.956 . S
Li1408 O1469 1.970 . S
Li1408 O1470 1.961 . S
Li1409 N1433 1.990 . S
Li1409 O1468 1.970 . S
Li1409 O1469 1.956 . S
Li1409 O1471 1.961 . S
Li1410 N1455 1.990 . S
Li1410 O1468 1.961 . S
Li1410 O1470 1.956 . S
Li1410 O1471 1.970 . S
Li1411 N1461 1.990 . S
Li1411 O1469 1.961 . S
Li1411 O1470 1.970 . S
Li1411 O1471 1.956 . S
C1412 C1414 1.348 . S
C1412 C1415 1.356 . S
C1412 O1468 1.325 . S
N1413 C1416 1.314 . S
N1413 C1417 1.279 . S
C1414 C1412 1.348 . S
C1414 C1416 1.353 . S
C1414 H1472 0.929 . S
C1415 C1412 1.356 . S
C1415 C1417 1.358 . S
C1415 H1473 0.930 . S
C1416 N1413 1.314 . S
C1416 C1414 1.353 . S
C1416 H1474 0.930 . S
C1417 N1413 1.279 . S
C1417 C1415 1.358 . S
C1417 H1475 0.930 . S
C1418 C1421 1.348 . S
C1418 C1422 1.356 . S
C1418 O1469 1.325 . S
C1419 N1420 1.279 . S
C1419 C1422 1.358 . S
C1419 H1476 0.930 . S
N1420 C1419 1.279 . S
N1420 C1423 1.314 . S
C1421 C1418 1.348 . S
C1421 C1423 1.353 . S
C1421 H1477 0.929 . S
C1422 C1418 1.356 . S
C1422 C1419 1.358 . S
C1422 H1478 0.930 . S
C1423 N1420 1.314 . S
C1423 C1421 1.353 . S
C1423 H1479 0.930 . S
C1424 N1425 1.314 . S
C1424 C1429 1.353 . S
C1424 H1430 0.930 . S
N1425 Li1408 1.990 . S
N1425 C1424 1.314 . S
N1425 C1427 1.279 . S
C1426 C1427 1.358 . S
C1426 C1428 1.356 . S
C1426 H1480 0.930 . S
C1427 N1425 1.279 . S
C1427 C1426 1.358 . S
C1427 H1431 0.930 . S
C1428 C1426 1.356 . S
C1428 C1429 1.348 . S
C1429 C1424 1.353 . S
C1429 C1428 1.348 . S
C1429 H1481 0.929 . S
H1430 C1424 0.930 . S
H1431 C1427 0.930 . S
C1432 N1433 1.314 . S
C1432 C1434 1.353 . S
C1432 H1438 0.930 . S
N1433 Li1409 1.990 . S
N1433 C1432 1.314 . S
N1433 C1436 1.279 . S
C1434 C1432 1.353 . S
C1434 C1437 1.348 . S
C1434 H1482 0.929 . S
C1435 C1436 1.358 . S
C1435 C1437 1.356 . S
C1435 H1483 0.930 . S
C1436 N1433 1.279 . S
C1436 C1435 1.358 . S
C1436 H1439 0.930 . S
C1437 C1434 1.348 . S
C1437 C1435 1.356 . S
H1438 C1432 0.930 . S
H1439 C1436 0.930 . S
C1440 C1442 1.348 . S
C1440 C1443 1.356 . S
C1440 O1470 1.325 . S
N1441 C1444 1.314 . S
N1441 C1445 1.279 . S
C1442 C1440 1.348 . S
C1442 C1444 1.353 . S
C1442 H1484 0.929 . S
C1443 C1440 1.356 . S
C1443 C1445 1.358 . S
C1443 H1485 0.930 . S
C1444 N1441 1.314 . S
C1444 C1442 1.353 . S
C1444 H1486 0.930 . S
C1445 N1441 1.279 . S
C1445 C1443 1.358 . S
C1445 H1487 0.930 . S
C1446 C1447 1.348 . S
C1446 C1448 1.356 . S
C1446 O1471 1.325 . S
C1447 C1446 1.348 . S
C1447 C1449 1.353 . S
C1447 H1488 0.929 . S
C1448 C1446 1.356 . S
C1448 C1450 1.358 . S
C1448 H1489 0.930 . S
C1449 C1447 1.353 . S
C1449 N1451 1.314 . S
C1449 H1490 0.930 . S
C1450 C1448 1.358 . S
C1450 N1451 1.279 . S
C1450 H1491 0.930 . S
N1451 C1449 1.314 . S
N1451 C1450 1.279 . S
C1452 C1454 1.353 . S
C1452 N1455 1.314 . S
C1452 H1458 0.930 . S
C1453 N1455 1.279 . S
C1453 C1456 1.358 . S
C1453 H1459 0.930 . S
C1454 C1452 1.353 . S
C1454 C1457 1.348 . S
C1454 H1492 0.929 . S
N1455 Li1410 1.990 . S
N1455 C1452 1.314 . S
N1455 C1453 1.279 . S
C1456 C1453 1.358 . S
C1456 C1457 1.356 . S
C1456 H1493 0.930 . S
C1457 C1454 1.348 . S
C1457 C1456 1.356 . S
H1458 C1452 0.930 . S
H1459 C1453 0.930 . S
C1460 N1461 1.314 . S
C1460 C1462 1.353 . S
C1460 H1466 0.930 . S
N1461 Li1411 1.990 . S
N1461 C1460 1.314 . S
N1461 C1464 1.279 . S
C1462 C1460 1.353 . S
C1462 C1465 1.348 . S
C1462 H1494 0.929 . S
C1463 C1464 1.358 . S
C1463 C1465 1.356 . S
C1463 H1495 0.930 . S
C1464 N1461 1.279 . S
C1464 C1463 1.358 . S
C1464 H1467 0.930 . S
C1465 C1462 1.348 . S
C1465 C1463 1.356 . S
H1466 C1460 0.930 . S
H1467 C1464 0.930 . S
O1468 Li1408 1.956 . S
O1468 Li1409 1.970 . S
O1468 Li1410 1.961 . S
O1468 C1412 1.325 . S
O1469 Li1408 1.970 . S
O1469 Li1409 1.956 . S
O1469 Li1411 1.961 . S
O1469 C1418 1.325 . S
O1470 Li1408 1.961 . S
O1470 Li1410 1.956 . S
O1470 Li1411 1.970 . S
O1470 C1440 1.325 . S
O1471 Li1409 1.961 . S
O1471 Li1410 1.970 . S
O1471 Li1411 1.956 . S
O1471 C1446 1.325 . S
H1472 C1414 0.929 . S
H1473 C1415 0.930 . S
H1474 C1416 0.930 . S
H1475 C1417 0.930 . S
H1476 C1419 0.930 . S
H1477 C1421 0.929 . S
H1478 C1422 0.930 . S
H1479 C1423 0.930 . S
H1480 C1426 0.930 . S
H1481 C1429 0.929 . S
H1482 C1434 0.929 . S
H1483 C1435 0.930 . S
H1484 C1442 0.929 . S
H1485 C1443 0.930 . S
H1486 C1444 0.930 . S
H1487 C1445 0.930 . S
H1488 C1447 0.929 . S
H1489 C1448 0.930 . S
H1490 C1449 0.930 . S
H1491 C1450 0.930 . S
H1492 C1454 0.929 . S
H1493 C1456 0.930 . S
H1494 C1462 0.929 . S
H1495 C1463 0.930 . S
Li1496 N1513 1.990 . S
Li1496 O1556 1.956 . S
Li1496 O1557 1.970 . S
Li1496 O1558 1.961 . S
Li1497 N1521 1.990 . S
Li1497 O1556 1.970 . S
Li1497 O1557 1.956 . S
Li1497 O1559 1.961 . S
Li1498 N1543 1.990 . S
Li1498 O1556 1.961 . S
Li1498 O1558 1.956 . S
Li1498 O1559 1.970 . S
Li1499 N1549 1.990 . S
Li1499 O1557 1.961 . S
Li1499 O1558 1.970 . S
Li1499 O1559 1.956 . S
C1500 C1502 1.348 . S
C1500 C1503 1.356 . S
C1500 O1556 1.325 . S
N1501 C1504 1.314 . S
N1501 C1505 1.279 . S
C1502 C1500 1.348 . S
C1502 C1504 1.353 . S
C1502 H1560 0.929 . S
C1503 C1500 1.356 . S
C1503 C1505 1.358 . S
C1503 H1561 0.930 . S
C1504 N1501 1.314 . S
C1504 C1502 1.353 . S
C1504 H1562 0.930 . S
C1505 N1501 1.279 . S
C1505 C1503 1.358 . S
C1505 H1563 0.930 . S
C1506 C1509 1.348 . S
C1506 C1510 1.356 . S
C1506 O1557 1.325 . S
C1507 N1508 1.279 . S
C1507 C1510 1.358 . S
C1507 H1564 0.930 . S
N1508 C1507 1.279 . S
N1508 C1511 1.314 . S
C1509 C1506 1.348 . S
C1509 C1511 1.353 . S
C1509 H1565 0.929 . S
C1510 C1506 1.356 . S
C1510 C1507 1.358 . S
C1510 H1566 0.930 . S
C1511 N1508 1.314 . S
C1511 C1509 1.353 . S
C1511 H1567 0.930 . S
C1512 N1513 1.314 . S
C1512 C1517 1.353 . S
C1512 H1518 0.930 . S
N1513 Li1496 1.990 . S
N1513 C1512 1.314 . S
N1513 C1515 1.279 . S
C1514 C1515 1.358 . S
C1514 C1516 1.356 . S
C1514 H1568 0.930 . S
C1515 N1513 1.279 . S
C1515 C1514 1.358 . S
C1515 H1519 0.930 . S
C1516 C1514 1.356 . S
C1516 C1517 1.348 . S
C1517 C1512 1.353 . S
C1517 C1516 1.348 . S
C1517 H1569 0.929 . S
H1518 C1512 0.930 . S
H1519 C1515 0.930 . S
C1520 N1521 1.314 . S
C1520 C1522 1.353 . S
C1520 H1526 0.930 . S
N1521 Li1497 1.990 . S
N1521 C1520 1.314 . S
N1521 C1524 1.279 . S
C1522 C1520 1.353 . S
C1522 C1525 1.348 . S
C1522 H1570 0.929 . S
C1523 C1524 1.358 . S
C1523 C1525 1.356 . S
C1523 H1571 0.930 . S
C1524 N1521 1.279 . S
C1524 C1523 1.358 . S
C1524 H1527 0.930 . S
C1525 C1522 1.348 . S
C1525 C1523 1.356 . S
H1526 C1520 0.930 . S
H1527 C1524 0.930 . S
C1528 C1530 1.348 . S
C1528 C1531 1.356 . S
C1528 O1558 1.325 . S
N1529 C1532 1.314 . S
N1529 C1533 1.279 . S
C1530 C1528 1.348 . S
C1530 C1532 1.353 . S
C1530 H1572 0.929 . S
C1531 C1528 1.356 . S
C1531 C1533 1.358 . S
C1531 H1573 0.930 . S
C1532 N1529 1.314 . S
C1532 C1530 1.353 . S
C1532 H1574 0.930 . S
C1533 N1529 1.279 . S
C1533 C1531 1.358 . S
C1533 H1575 0.930 . S
C1534 C1535 1.348 . S
C1534 C1536 1.356 . S
C1534 O1559 1.325 . S
C1535 C1534 1.348 . S
C1535 C1537 1.353 . S
C1535 H1576 0.929 . S
C1536 C1534 1.356 . S
C1536 C1538 1.358 . S
C1536 H1577 0.930 . S
C1537 C1535 1.353 . S
C1537 N1539 1.314 . S
C1537 H1578 0.930 . S
C1538 C1536 1.358 . S
C1538 N1539 1.279 . S
C1538 H1579 0.930 . S
N1539 C1537 1.314 . S
N1539 C1538 1.279 . S
C1540 C1542 1.353 . S
C1540 N1543 1.314 . S
C1540 H1546 0.930 . S
C1541 N1543 1.279 . S
C1541 C1544 1.358 . S
C1541 H1547 0.930 . S
C1542 C1540 1.353 . S
C1542 C1545 1.348 . S
C1542 H1580 0.929 . S
N1543 Li1498 1.990 . S
N1543 C1540 1.314 . S
N1543 C1541 1.279 . S
C1544 C1541 1.358 . S
C1544 C1545 1.356 . S
C1544 H1581 0.930 . S
C1545 C1542 1.348 . S
C1545 C1544 1.356 . S
H1546 C1540 0.930 . S
H1547 C1541 0.930 . S
C1548 N1549 1.314 . S
C1548 C1550 1.353 . S
C1548 H1554 0.930 . S
N1549 Li1499 1.990 . S
N1549 C1548 1.314 . S
N1549 C1552 1.279 . S
C1550 C1548 1.353 . S
C1550 C1553 1.348 . S
C1550 H1582 0.929 . S
C1551 C1552 1.358 . S
C1551 C1553 1.356 . S
C1551 H1583 0.930 . S
C1552 N1549 1.279 . S
C1552 C1551 1.358 . S
C1552 H1555 0.930 . S
C1553 C1550 1.348 . S
C1553 C1551 1.356 . S
H1554 C1548 0.930 . S
H1555 C1552 0.930 . S
O1556 Li1496 1.956 . S
O1556 Li1497 1.970 . S
O1556 Li1498 1.961 . S
O1556 C1500 1.325 . S
O1557 Li1496 1.970 . S
O1557 Li1497 1.956 . S
O1557 Li1499 1.961 . S
O1557 C1506 1.325 . S
O1558 Li1496 1.961 . S
O1558 Li1498 1.956 . S
O1558 Li1499 1.970 . S
O1558 C1528 1.325 . S
O1559 Li1497 1.961 . S
O1559 Li1498 1.970 . S
O1559 Li1499 1.956 . S
O1559 C1534 1.325 . S
H1560 C1502 0.929 . S
H1561 C1503 0.930 . S
H1562 C1504 0.930 . S
H1563 C1505 0.930 . S
H1564 C1507 0.930 . S
H1565 C1509 0.929 . S
H1566 C1510 0.930 . S
H1567 C1511 0.930 . S
H1568 C1514 0.930 . S
H1569 C1517 0.929 . S
H1570 C1522 0.929 . S
H1571 C1523 0.930 . S
H1572 C1530 0.929 . S
H1573 C1531 0.930 . S
H1574 C1532 0.930 . S
H1575 C1533 0.930 . S
H1576 C1535 0.929 . S
H1577 C1536 0.930 . S
H1578 C1537 0.930 . S
H1579 C1538 0.930 . S
H1580 C1542 0.929 . S
H1581 C1544 0.930 . S
H1582 C1550 0.929 . S
H1583 C1551 0.930 . S
Li1584 N1601 1.990 . S
Li1584 O1644 1.956 . S
Li1584 O1645 1.970 . S
Li1584 O1646 1.961 . S
Li1585 N1609 1.990 . S
Li1585 O1644 1.970 . S
Li1585 O1645 1.956 . S
Li1585 O1647 1.961 . S
Li1586 N1631 1.990 . S
Li1586 O1644 1.961 . S
Li1586 O1646 1.956 . S
Li1586 O1647 1.970 . S
Li1587 N1637 1.990 . S
Li1587 O1645 1.961 . S
Li1587 O1646 1.970 . S
Li1587 O1647 1.956 . S
C1588 C1590 1.348 . S
C1588 C1591 1.356 . S
C1588 O1644 1.325 . S
N1589 C1592 1.314 . S
N1589 C1593 1.279 . S
C1590 C1588 1.348 . S
C1590 C1592 1.353 . S
C1590 H1648 0.929 . S
C1591 C1588 1.356 . S
C1591 C1593 1.358 . S
C1591 H1649 0.930 . S
C1592 N1589 1.314 . S
C1592 C1590 1.353 . S
C1592 H1650 0.930 . S
C1593 N1589 1.279 . S
C1593 C1591 1.358 . S
C1593 H1651 0.930 . S
C1594 C1597 1.348 . S
C1594 C1598 1.356 . S
C1594 O1645 1.325 . S
C1595 N1596 1.279 . S
C1595 C1598 1.358 . S
C1595 H1652 0.930 . S
N1596 C1595 1.279 . S
N1596 C1599 1.314 . S
C1597 C1594 1.348 . S
C1597 C1599 1.353 . S
C1597 H1653 0.929 . S
C1598 C1594 1.356 . S
C1598 C1595 1.358 . S
C1598 H1654 0.930 . S
C1599 N1596 1.314 . S
C1599 C1597 1.353 . S
C1599 H1655 0.930 . S
C1600 N1601 1.314 . S
C1600 C1605 1.353 . S
C1600 H1606 0.930 . S
N1601 Li1584 1.990 . S
N1601 C1600 1.314 . S
N1601 C1603 1.279 . S
C1602 C1603 1.358 . S
C1602 C1604 1.356 . S
C1602 H1656 0.930 . S
C1603 N1601 1.279 . S
C1603 C1602 1.358 . S
C1603 H1607 0.930 . S
C1604 C1602 1.356 . S
C1604 C1605 1.348 . S
C1605 C1600 1.353 . S
C1605 C1604 1.348 . S
C1605 H1657 0.929 . S
H1606 C1600 0.930 . S
H1607 C1603 0.930 . S
C1608 N1609 1.314 . S
C1608 C1610 1.353 . S
C1608 H1614 0.930 . S
N1609 Li1585 1.990 . S
N1609 C1608 1.314 . S
N1609 C1612 1.279 . S
C1610 C1608 1.353 . S
C1610 C1613 1.348 . S
C1610 H1658 0.929 . S
C1611 C1612 1.358 . S
C1611 C1613 1.356 . S
C1611 H1659 0.930 . S
C1612 N1609 1.279 . S
C1612 C1611 1.358 . S
C1612 H1615 0.930 . S
C1613 C1610 1.348 . S
C1613 C1611 1.356 . S
H1614 C1608 0.930 . S
H1615 C1612 0.930 . S
C1616 C1618 1.348 . S
C1616 C1619 1.356 . S
C1616 O1646 1.325 . S
N1617 C1620 1.314 . S
N1617 C1621 1.279 . S
C1618 C1616 1.348 . S
C1618 C1620 1.353 . S
C1618 H1660 0.929 . S
C1619 C1616 1.356 . S
C1619 C1621 1.358 . S
C1619 H1661 0.930 . S
C1620 N1617 1.314 . S
C1620 C1618 1.353 . S
C1620 H1662 0.930 . S
C1621 N1617 1.279 . S
C1621 C1619 1.358 . S
C1621 H1663 0.930 . S
C1622 C1623 1.348 . S
C1622 C1624 1.356 . S
C1622 O1647 1.325 . S
C1623 C1622 1.348 . S
C1623 C1625 1.353 1_554 S
C1623 H1664 0.929 . S
C1624 C1622 1.356 . S
C1624 C1626 1.358 . S
C1624 H1665 0.930 . S
C1625 C1623 1.353 1_556 S
C1625 N1627 1.314 . S
C1625 H1666 0.930 . S
C1626 C1624 1.358 . S
C1626 N1627 1.279 1_554 S
C1626 H1667 0.930 . S
N1627 C1625 1.314 . S
N1627 C1626 1.279 1_556 S
C1628 C1630 1.353 . S
C1628 N1631 1.314 . S
C1628 H1634 0.930 . S
C1629 N1631 1.279 . S
C1629 C1632 1.358 . S
C1629 H1635 0.930 . S
C1630 C1628 1.353 . S
C1630 C1633 1.348 1_554 S
C1630 H1668 0.929 . S
N1631 Li1586 1.990 . S
N1631 C1628 1.314 . S
N1631 C1629 1.279 . S
C1632 C1629 1.358 . S
C1632 C1633 1.356 1_554 S
C1632 H1669 0.930 1_554 S
C1633 C1630 1.348 1_556 S
C1633 C1632 1.356 1_556 S
H1634 C1628 0.930 . S
H1635 C1629 0.930 . S
C1636 N1637 1.314 . S
C1636 C1638 1.353 . S
C1636 H1642 0.930 . S
N1637 Li1587 1.990 . S
N1637 C1636 1.314 . S
N1637 C1640 1.279 . S
C1638 C1636 1.353 . S
C1638 C1641 1.348 . S
C1638 H1670 0.929 . S
C1639 C1640 1.358 . S
C1639 C1641 1.356 . S
C1639 H1671 0.930 . S
C1640 N1637 1.279 . S
C1640 C1639 1.358 . S
C1640 H1643 0.930 . S
C1641 C1638 1.348 . S
C1641 C1639 1.356 . S
H1642 C1636 0.930 . S
H1643 C1640 0.930 . S
O1644 Li1584 1.956 . S
O1644 Li1585 1.970 . S
O1644 Li1586 1.961 . S
O1644 C1588 1.325 . S
O1645 Li1584 1.970 . S
O1645 Li1585 1.956 . S
O1645 Li1587 1.961 . S
O1645 C1594 1.325 . S
O1646 Li1584 1.961 . S
O1646 Li1586 1.956 . S
O1646 Li1587 1.970 . S
O1646 C1616 1.325 . S
O1647 Li1585 1.961 . S
O1647 Li1586 1.970 . S
O1647 Li1587 1.956 . S
O1647 C1622 1.325 . S
H1648 C1590 0.929 . S
H1649 C1591 0.930 . S
H1650 C1592 0.930 . S
H1651 C1593 0.930 . S
H1652 C1595 0.930 . S
H1653 C1597 0.929 . S
H1654 C1598 0.930 . S
H1655 C1599 0.930 . S
H1656 C1602 0.930 . S
H1657 C1605 0.929 . S
H1658 C1610 0.929 . S
H1659 C1611 0.930 . S
H1660 C1618 0.929 . S
H1661 C1619 0.930 . S
H1662 C1620 0.930 . S
H1663 C1621 0.930 . S
H1664 C1623 0.929 . S
H1665 C1624 0.930 . S
H1666 C1625 0.930 . S
H1667 C1626 0.930 . S
H1668 C1630 0.929 . S
H1669 C1632 0.930 1_556 S
H1670 C1638 0.929 . S
H1671 C1639 0.930 . S
Li1672 N1689 1.990 . S
Li1672 O1732 1.956 . S
Li1672 O1733 1.970 . S
Li1672 O1734 1.961 . S
Li1673 N1697 1.990 . S
Li1673 O1732 1.970 . S
Li1673 O1733 1.956 . S
Li1673 O1735 1.961 . S
Li1674 N1719 1.990 . S
Li1674 O1732 1.961 . S
Li1674 O1734 1.956 . S
Li1674 O1735 1.970 . S
Li1675 N1725 1.990 . S
Li1675 O1733 1.961 . S
Li1675 O1734 1.970 . S
Li1675 O1735 1.956 . S
C1676 C1678 1.348 . S
C1676 C1679 1.356 . S
C1676 O1732 1.325 . S
N1677 C1680 1.314 . S
N1677 C1681 1.279 . S
C1678 C1676 1.348 . S
C1678 C1680 1.353 . S
C1678 H1736 0.929 . S
C1679 C1676 1.356 . S
C1679 C1681 1.358 . S
C1679 H1737 0.930 . S
C1680 N1677 1.314 . S
C1680 C1678 1.353 . S
C1680 H1738 0.930 . S
C1681 N1677 1.279 . S
C1681 C1679 1.358 . S
C1681 H1739 0.930 . S
C1682 C1685 1.348 . S
C1682 C1686 1.356 . S
C1682 O1733 1.325 . S
C1683 N1684 1.279 . S
C1683 C1686 1.358 . S
C1683 H1740 0.930 . S
N1684 C1683 1.279 . S
N1684 C1687 1.314 . S
C1685 C1682 1.348 . S
C1685 C1687 1.353 . S
C1685 H1741 0.929 . S
C1686 C1682 1.356 . S
C1686 C1683 1.358 . S
C1686 H1742 0.930 . S
C1687 N1684 1.314 . S
C1687 C1685 1.353 . S
C1687 H1743 0.930 . S
C1688 N1689 1.314 . S
C1688 C1693 1.353 . S
C1688 H1694 0.930 . S
N1689 Li1672 1.990 . S
N1689 C1688 1.314 . S
N1689 C1691 1.279 . S
C1690 C1691 1.358 . S
C1690 C1692 1.356 . S
C1690 H1744 0.930 . S
C1691 N1689 1.279 . S
C1691 C1690 1.358 . S
C1691 H1695 0.930 . S
C1692 C1690 1.356 . S
C1692 C1693 1.348 . S
C1693 C1688 1.353 . S
C1693 C1692 1.348 . S
C1693 H1745 0.929 . S
H1694 C1688 0.930 . S
H1695 C1691 0.930 . S
C1696 N1697 1.314 . S
C1696 C1698 1.353 . S
C1696 H1702 0.930 . S
N1697 Li1673 1.990 . S
N1697 C1696 1.314 . S
N1697 C1700 1.279 . S
C1698 C1696 1.353 . S
C1698 C1701 1.348 . S
C1698 H1746 0.929 . S
C1699 C1700 1.358 . S
C1699 C1701 1.356 . S
C1699 H1747 0.930 . S
C1700 N1697 1.279 . S
C1700 C1699 1.358 . S
C1700 H1703 0.930 . S
C1701 C1698 1.348 . S
C1701 C1699 1.356 . S
H1702 C1696 0.930 . S
H1703 C1700 0.930 . S
C1704 C1706 1.348 . S
C1704 C1707 1.356 . S
C1704 O1734 1.325 . S
N1705 C1708 1.314 . S
N1705 C1709 1.279 . S
C1706 C1704 1.348 . S
C1706 C1708 1.353 . S
C1706 H1748 0.929 . S
C1707 C1704 1.356 . S
C1707 C1709 1.358 . S
C1707 H1749 0.930 . S
C1708 N1705 1.314 . S
C1708 C1706 1.353 . S
C1708 H1750 0.930 . S
C1709 N1705 1.279 . S
C1709 C1707 1.358 . S
C1709 H1751 0.930 . S
C1710 C1711 1.348 . S
C1710 C1712 1.356 . S
C1710 O1735 1.325 . S
C1711 C1710 1.348 . S
C1711 C1713 1.353 . S
C1711 H1752 0.929 . S
C1712 C1710 1.356 . S
C1712 C1714 1.358 . S
C1712 H1753 0.930 . S
C1713 C1711 1.353 . S
C1713 N1715 1.314 . S
C1713 H1754 0.930 . S
C1714 C1712 1.358 . S
C1714 N1715 1.279 . S
C1714 H1755 0.930 . S
N1715 C1713 1.314 . S
N1715 C1714 1.279 . S
C1716 C1718 1.353 . S
C1716 N1719 1.314 . S
C1716 H1722 0.930 . S
C1717 N1719 1.279 . S
C1717 C1720 1.358 . S
C1717 H1723 0.930 . S
C1718 C1716 1.353 . S
C1718 C1721 1.348 . S
C1718 H1756 0.929 . S
N1719 Li1674 1.990 . S
N1719 C1716 1.314 . S
N1719 C1717 1.279 . S
C1720 C1717 1.358 . S
C1720 C1721 1.356 . S
C1720 H1757 0.930 . S
C1721 C1718 1.348 . S
C1721 C1720 1.356 . S
H1722 C1716 0.930 . S
H1723 C1717 0.930 . S
C1724 N1725 1.314 . S
C1724 C1726 1.353 . S
C1724 H1730 0.930 . S
N1725 Li1675 1.990 . S
N1725 C1724 1.314 . S
N1725 C1728 1.279 . S
C1726 C1724 1.353 . S
C1726 C1729 1.348 . S
C1726 H1758 0.929 . S
C1727 C1728 1.358 . S
C1727 C1729 1.356 . S
C1727 H1759 0.930 . S
C1728 N1725 1.279 . S
C1728 C1727 1.358 . S
C1728 H1731 0.930 . S
C1729 C1726 1.348 . S
C1729 C1727 1.356 . S
H1730 C1724 0.930 . S
H1731 C1728 0.930 . S
O1732 Li1672 1.956 . S
O1732 Li1673 1.970 . S
O1732 Li1674 1.961 . S
O1732 C1676 1.325 . S
O1733 Li1672 1.970 . S
O1733 Li1673 1.956 . S
O1733 Li1675 1.961 . S
O1733 C1682 1.325 . S
O1734 Li1672 1.961 . S
O1734 Li1674 1.956 . S
O1734 Li1675 1.970 . S
O1734 C1704 1.325 . S
O1735 Li1673 1.961 . S
O1735 Li1674 1.970 . S
O1735 Li1675 1.956 . S
O1735 C1710 1.325 . S
H1736 C1678 0.929 . S
H1737 C1679 0.930 . S
H1738 C1680 0.930 . S
H1739 C1681 0.930 . S
H1740 C1683 0.930 . S
H1741 C1685 0.929 . S
H1742 C1686 0.930 . S
H1743 C1687 0.930 . S
H1744 C1690 0.930 . S
H1745 C1693 0.929 . S
H1746 C1698 0.929 . S
H1747 C1699 0.930 . S
H1748 C1706 0.929 . S
H1749 C1707 0.930 . S
H1750 C1708 0.930 . S
H1751 C1709 0.930 . S
H1752 C1711 0.929 . S
H1753 C1712 0.930 . S
H1754 C1713 0.930 . S
H1755 C1714 0.930 . S
H1756 C1718 0.929 . S
H1757 C1720 0.930 . S
H1758 C1726 0.929 . S
H1759 C1727 0.930 . S
Li1760 N1777 1.990 . S
Li1760 O1820 1.956 . S
Li1760 O1821 1.970 . S
Li1760 O1822 1.961 . S
Li1761 N1785 1.990 . S
Li1761 O1820 1.970 . S
Li1761 O1821 1.956 . S
Li1761 O1823 1.961 . S
Li1762 N1807 1.990 . S
Li1762 O1820 1.961 . S
Li1762 O1822 1.956 . S
Li1762 O1823 1.970 . S
Li1763 N1813 1.990 . S
Li1763 O1821 1.961 . S
Li1763 O1822 1.970 . S
Li1763 O1823 1.956 . S
C1764 C1766 1.348 . S
C1764 C1767 1.356 . S
C1764 O1820 1.325 . S
N1765 C1768 1.314 . S
N1765 C1769 1.279 . S
C1766 C1764 1.348 . S
C1766 C1768 1.353 . S
C1766 H1824 0.929 . S
C1767 C1764 1.356 . S
C1767 C1769 1.358 . S
C1767 H1825 0.930 . S
C1768 N1765 1.314 . S
C1768 C1766 1.353 . S
C1768 H1826 0.930 . S
C1769 N1765 1.279 . S
C1769 C1767 1.358 . S
C1769 H1827 0.930 . S
C1770 C1773 1.348 . S
C1770 C1774 1.356 . S
C1770 O1821 1.325 . S
C1771 N1772 1.279 . S
C1771 C1774 1.358 . S
C1771 H1828 0.930 . S
N1772 C1771 1.279 . S
N1772 C1775 1.314 . S
C1773 C1770 1.348 . S
C1773 C1775 1.353 . S
C1773 H1829 0.929 . S
C1774 C1770 1.356 . S
C1774 C1771 1.358 . S
C1774 H1830 0.930 . S
C1775 N1772 1.314 . S
C1775 C1773 1.353 . S
C1775 H1831 0.930 . S
C1776 N1777 1.314 . S
C1776 C1781 1.353 . S
C1776 H1782 0.930 . S
N1777 Li1760 1.990 . S
N1777 C1776 1.314 . S
N1777 C1779 1.279 . S
C1778 C1779 1.358 . S
C1778 C1780 1.356 . S
C1778 H1832 0.930 . S
C1779 N1777 1.279 . S
C1779 C1778 1.358 . S
C1779 H1783 0.930 . S
C1780 C1778 1.356 . S
C1780 C1781 1.348 . S
C1781 C1776 1.353 . S
C1781 C1780 1.348 . S
C1781 H1833 0.929 . S
H1782 C1776 0.930 . S
H1783 C1779 0.930 . S
C1784 N1785 1.314 . S
C1784 C1786 1.353 . S
C1784 H1790 0.930 . S
N1785 Li1761 1.990 . S
N1785 C1784 1.314 . S
N1785 C1788 1.279 . S
C1786 C1784 1.353 . S
C1786 C1789 1.348 . S
C1786 H1834 0.929 . S
C1787 C1788 1.358 . S
C1787 C1789 1.356 . S
C1787 H1835 0.930 . S
C1788 N1785 1.279 . S
C1788 C1787 1.358 . S
C1788 H1791 0.930 . S
C1789 C1786 1.348 . S
C1789 C1787 1.356 . S
H1790 C1784 0.930 . S
H1791 C1788 0.930 . S
C1792 C1794 1.348 . S
C1792 C1795 1.356 . S
C1792 O1822 1.325 . S
N1793 C1796 1.314 . S
N1793 C1797 1.279 . S
C1794 C1792 1.348 . S
C1794 C1796 1.353 . S
C1794 H1836 0.929 . S
C1795 C1792 1.356 . S
C1795 C1797 1.358 . S
C1795 H1837 0.930 . S
C1796 N1793 1.314 . S
C1796 C1794 1.353 . S
C1796 H1838 0.930 . S
C1797 N1793 1.279 . S
C1797 C1795 1.358 . S
C1797 H1839 0.930 . S
C1798 C1799 1.348 . S
C1798 C1800 1.356 . S
C1798 O1823 1.325 . S
C1799 C1798 1.348 . S
C1799 C1801 1.353 . S
C1799 H1840 0.929 . S
C1800 C1798 1.356 . S
C1800 C1802 1.358 . S
C1800 H1841 0.930 . S
C1801 C1799 1.353 . S
C1801 N1803 1.314 . S
C1801 H1842 0.930 . S
C1802 C1800 1.358 . S
C1802 N1803 1.279 . S
C1802 H1843 0.930 . S
N1803 C1801 1.314 . S
N1803 C1802 1.279 . S
C1804 C1806 1.353 . S
C1804 N1807 1.314 . S
C1804 H1810 0.930 . S
C1805 N1807 1.279 . S
C1805 C1808 1.358 . S
C1805 H1811 0.930 . S
C1806 C1804 1.353 . S
C1806 C1809 1.348 . S
C1806 H1844 0.929 . S
N1807 Li1762 1.990 . S
N1807 C1804 1.314 . S
N1807 C1805 1.279 . S
C1808 C1805 1.358 . S
C1808 C1809 1.356 . S
C1808 H1845 0.930 . S
C1809 C1806 1.348 . S
C1809 C1808 1.356 . S
H1810 C1804 0.930 . S
H1811 C1805 0.930 . S
C1812 N1813 1.314 . S
C1812 C1814 1.353 . S
C1812 H1818 0.930 . S
N1813 Li1763 1.990 . S
N1813 C1812 1.314 . S
N1813 C1816 1.279 . S
C1814 C1812 1.353 . S
C1814 C1817 1.348 . S
C1814 H1846 0.929 . S
C1815 C1816 1.358 . S
C1815 C1817 1.356 . S
C1815 H1847 0.930 . S
C1816 N1813 1.279 . S
C1816 C1815 1.358 . S
C1816 H1819 0.930 . S
C1817 C1814 1.348 . S
C1817 C1815 1.356 . S
H1818 C1812 0.930 . S
H1819 C1816 0.930 . S
O1820 Li1760 1.956 . S
O1820 Li1761 1.970 . S
O1820 Li1762 1.961 . S
O1820 C1764 1.325 . S
O1821 Li1760 1.970 . S
O1821 Li1761 1.956 . S
O1821 Li1763 1.961 . S
O1821 C1770 1.325 . S
O1822 Li1760 1.961 . S
O1822 Li1762 1.956 . S
O1822 Li1763 1.970 . S
O1822 C1792 1.325 . S
O1823 Li1761 1.961 . S
O1823 Li1762 1.970 . S
O1823 Li1763 1.956 . S
O1823 C1798 1.325 . S
H1824 C1766 0.929 . S
H1825 C1767 0.930 . S
H1826 C1768 0.930 . S
H1827 C1769 0.930 . S
H1828 C1771 0.930 . S
H1829 C1773 0.929 . S
H1830 C1774 0.930 . S
H1831 C1775 0.930 . S
H1832 C1778 0.930 . S
H1833 C1781 0.929 . S
H1834 C1786 0.929 . S
H1835 C1787 0.930 . S
H1836 C1794 0.929 . S
H1837 C1795 0.930 . S
H1838 C1796 0.930 . S
H1839 C1797 0.930 . S
H1840 C1799 0.929 . S
H1841 C1800 0.930 . S
H1842 C1801 0.930 . S
H1843 C1802 0.930 . S
H1844 C1806 0.929 . S
H1845 C1808 0.930 . S
H1846 C1814 0.929 . S
H1847 C1815 0.930 . S
Li1848 N1865 1.990 . S
Li1848 O1908 1.956 . S
Li1848 O1909 1.970 . S
Li1848 O1910 1.961 . S
Li1849 N1873 1.990 . S
Li1849 O1908 1.970 . S
Li1849 O1909 1.956 . S
Li1849 O1911 1.961 . S
Li1850 N1895 1.990 . S
Li1850 O1908 1.961 . S
Li1850 O1910 1.956 . S
Li1850 O1911 1.970 . S
Li1851 N1901 1.990 . S
Li1851 O1909 1.961 . S
Li1851 O1910 1.970 . S
Li1851 O1911 1.956 . S
C1852 C1854 1.348 . S
C1852 C1855 1.356 . S
C1852 O1908 1.325 . S
N1853 C1856 1.314 . S
N1853 C1857 1.279 . S
C1854 C1852 1.348 . S
C1854 C1856 1.353 . S
C1854 H1912 0.929 . S
C1855 C1852 1.356 . S
C1855 C1857 1.358 . S
C1855 H1913 0.930 . S
C1856 N1853 1.314 . S
C1856 C1854 1.353 . S
C1856 H1914 0.930 . S
C1857 N1853 1.279 . S
C1857 C1855 1.358 . S
C1857 H1915 0.930 . S
C1858 C1861 1.348 . S
C1858 C1862 1.356 . S
C1858 O1909 1.325 . S
C1859 N1860 1.279 . S
C1859 C1862 1.358 . S
C1859 H1916 0.930 . S
N1860 C1859 1.279 . S
N1860 C1863 1.314 . S
C1861 C1858 1.348 . S
C1861 C1863 1.353 . S
C1861 H1917 0.929 . S
C1862 C1858 1.356 . S
C1862 C1859 1.358 . S
C1862 H1918 0.930 . S
C1863 N1860 1.314 . S
C1863 C1861 1.353 . S
C1863 H1919 0.930 . S
C1864 N1865 1.314 . S
C1864 C1869 1.353 . S
C1864 H1870 0.930 . S
N1865 Li1848 1.990 . S
N1865 C1864 1.314 . S
N1865 C1867 1.279 . S
C1866 C1867 1.358 . S
C1866 C1868 1.356 . S
C1866 H1920 0.930 . S
C1867 N1865 1.279 . S
C1867 C1866 1.358 . S
C1867 H1871 0.930 . S
C1868 C1866 1.356 . S
C1868 C1869 1.348 . S
C1869 C1864 1.353 . S
C1869 C1868 1.348 . S
C1869 H1921 0.929 . S
H1870 C1864 0.930 . S
H1871 C1867 0.930 . S
C1872 N1873 1.314 . S
C1872 C1874 1.353 . S
C1872 H1878 0.930 . S
N1873 Li1849 1.990 . S
N1873 C1872 1.314 . S
N1873 C1876 1.279 . S
C1874 C1872 1.353 . S
C1874 C1877 1.348 . S
C1874 H1922 0.929 . S
C1875 C1876 1.358 . S
C1875 C1877 1.356 . S
C1875 H1923 0.930 . S
C1876 N1873 1.279 . S
C1876 C1875 1.358 . S
C1876 H1879 0.930 . S
C1877 C1874 1.348 . S
C1877 C1875 1.356 . S
H1878 C1872 0.930 . S
H1879 C1876 0.930 . S
C1880 C1882 1.348 . S
C1880 C1883 1.356 . S
C1880 O1910 1.325 . S
N1881 C1884 1.314 . S
N1881 C1885 1.279 . S
C1882 C1880 1.348 . S
C1882 C1884 1.353 . S
C1882 H1924 0.929 . S
C1883 C1880 1.356 . S
C1883 C1885 1.358 . S
C1883 H1925 0.930 . S
C1884 N1881 1.314 . S
C1884 C1882 1.353 . S
C1884 H1926 0.930 . S
C1885 N1881 1.279 . S
C1885 C1883 1.358 . S
C1885 H1927 0.930 . S
C1886 C1887 1.348 . S
C1886 C1888 1.356 . S
C1886 O1911 1.325 . S
C1887 C1886 1.348 . S
C1887 C1889 1.353 . S
C1887 H1928 0.929 . S
C1888 C1886 1.356 . S
C1888 C1890 1.358 . S
C1888 H1929 0.930 . S
C1889 C1887 1.353 . S
C1889 N1891 1.314 . S
C1889 H1930 0.930 . S
C1890 C1888 1.358 . S
C1890 N1891 1.279 . S
C1890 H1931 0.930 . S
N1891 C1889 1.314 . S
N1891 C1890 1.279 . S
C1892 C1894 1.353 . S
C1892 N1895 1.314 . S
C1892 H1898 0.930 . S
C1893 N1895 1.279 . S
C1893 C1896 1.358 . S
C1893 H1899 0.930 . S
C1894 C1892 1.353 . S
C1894 C1897 1.348 . S
C1894 H1932 0.929 . S
N1895 Li1850 1.990 . S
N1895 C1892 1.314 . S
N1895 C1893 1.279 . S
C1896 C1893 1.358 . S
C1896 C1897 1.356 . S
C1896 H1933 0.930 . S
C1897 C1894 1.348 . S
C1897 C1896 1.356 . S
H1898 C1892 0.930 . S
H1899 C1893 0.930 . S
C1900 N1901 1.314 . S
C1900 C1902 1.353 . S
C1900 H1906 0.930 . S
N1901 Li1851 1.990 . S
N1901 C1900 1.314 . S
N1901 C1904 1.279 . S
C1902 C1900 1.353 . S
C1902 C1905 1.348 . S
C1902 H1934 0.929 . S
C1903 C1904 1.358 . S
C1903 C1905 1.356 . S
C1903 H1935 0.930 . S
C1904 N1901 1.279 . S
C1904 C1903 1.358 . S
C1904 H1907 0.930 . S
C1905 C1902 1.348 . S
C1905 C1903 1.356 . S
H1906 C1900 0.930 . S
H1907 C1904 0.930 . S
O1908 Li1848 1.956 . S
O1908 Li1849 1.970 . S
O1908 Li1850 1.961 . S
O1908 C1852 1.325 . S
O1909 Li1848 1.970 . S
O1909 Li1849 1.956 . S
O1909 Li1851 1.961 . S
O1909 C1858 1.325 . S
O1910 Li1848 1.961 . S
O1910 Li1850 1.956 . S
O1910 Li1851 1.970 . S
O1910 C1880 1.325 . S
O1911 Li1849 1.961 . S
O1911 Li1850 1.970 . S
O1911 Li1851 1.956 . S
O1911 C1886 1.325 . S
H1912 C1854 0.929 . S
H1913 C1855 0.930 . S
H1914 C1856 0.930 . S
H1915 C1857 0.930 . S
H1916 C1859 0.930 . S
H1917 C1861 0.929 . S
H1918 C1862 0.930 . S
H1919 C1863 0.930 . S
H1920 C1866 0.930 . S
H1921 C1869 0.929 . S
H1922 C1874 0.929 . S
H1923 C1875 0.930 . S
H1924 C1882 0.929 . S
H1925 C1883 0.930 . S
H1926 C1884 0.930 . S
H1927 C1885 0.930 . S
H1928 C1887 0.929 . S
H1929 C1888 0.930 . S
H1930 C1889 0.930 . S
H1931 C1890 0.930 . S
H1932 C1894 0.929 . S
H1933 C1896 0.930 . S
H1934 C1902 0.929 . S
H1935 C1903 0.930 . S
Li1936 N1953 1.990 . S
Li1936 O1996 1.956 . S
Li1936 O1997 1.970 . S
Li1936 O1998 1.961 . S
Li1937 N1961 1.990 . S
Li1937 O1996 1.970 . S
Li1937 O1997 1.956 . S
Li1937 O1999 1.961 . S
Li1938 N1983 1.990 . S
Li1938 O1996 1.961 . S
Li1938 O1998 1.956 . S
Li1938 O1999 1.970 . S
Li1939 N1989 1.990 . S
Li1939 O1997 1.961 . S
Li1939 O1998 1.970 . S
Li1939 O1999 1.956 . S
C1940 C1942 1.348 . S
C1940 C1943 1.356 . S
C1940 O1996 1.325 . S
N1941 C1944 1.314 . S
N1941 C1945 1.279 1_565 S
C1942 C1940 1.348 . S
C1942 C1944 1.353 . S
C1942 H2000 0.929 . S
C1943 C1940 1.356 . S
C1943 C1945 1.358 1_565 S
C1943 H2001 0.930 . S
C1944 N1941 1.314 . S
C1944 C1942 1.353 . S
C1944 H2002 0.930 . S
C1945 N1941 1.279 1_545 S
C1945 C1943 1.358 1_545 S
C1945 H2003 0.930 . S
C1946 C1949 1.348 . S
C1946 C1950 1.356 . S
C1946 O1997 1.325 . S
C1947 N1948 1.279 1_556 S
C1947 C1950 1.358 . S
C1947 H2004 0.930 . S
N1948 C1947 1.279 1_554 S
N1948 C1951 1.314 . S
C1949 C1946 1.348 . S
C1949 C1951 1.353 1_556 S
C1949 H2005 0.929 . S
C1950 C1946 1.356 . S
C1950 C1947 1.358 . S
C1950 H2006 0.930 . S
C1951 N1948 1.314 . S
C1951 C1949 1.353 1_554 S
C1951 H2007 0.930 . S
C1952 N1953 1.314 . S
C1952 C1957 1.353 1_565 S
C1952 H1958 0.930 . S
N1953 Li1936 1.990 . S
N1953 C1952 1.314 . S
N1953 C1955 1.279 . S
C1954 C1955 1.358 1_545 S
C1954 C1956 1.356 1_556 S
C1954 H2008 0.930 1_556 S
C1955 N1953 1.279 . S
C1955 C1954 1.358 1_565 S
C1955 H1959 0.930 . S
C1956 C1954 1.356 1_554 S
C1956 C1957 1.348 1_554 S
C1957 C1952 1.353 1_545 S
C1957 C1956 1.348 1_556 S
C1957 H2009 0.929 . S
H1958 C1952 0.930 . S
H1959 C1955 0.930 . S
C1960 N1961 1.314 . S
C1960 C1962 1.353 . S
C1960 H1966 0.930 . S
N1961 Li1937 1.990 . S
N1961 C1960 1.314 . S
N1961 C1964 1.279 . S
C1962 C1960 1.353 . S
C1962 C1965 1.348 . S
C1962 H2010 0.929 . S
C1963 C1964 1.358 . S
C1963 C1965 1.356 . S
C1963 H2011 0.930 . S
C1964 N1961 1.279 . S
C1964 C1963 1.358 . S
C1964 H1967 0.930 . S
C1965 C1962 1.348 . S
C1965 C1963 1.356 . S
H1966 C1960 0.930 . S
H1967 C1964 0.930 . S
C1968 C1970 1.348 . S
C1968 C1971 1.356 . S
C1968 O1998 1.325 . S
N1969 C1972 1.314 1_545 S
N1969 C1973 1.279 . S
C1970 C1968 1.348 . S
C1970 C1972 1.353 . S
C1970 H2012 0.929 . S
C1971 C1968 1.356 . S
C1971 C1973 1.358 1_565 S
C1971 H2013 0.930 1_565 S
C1972 N1969 1.314 1_565 S
C1972 C1970 1.353 . S
C1972 H2014 0.930 . S
C1973 N1969 1.279 . S
C1973 C1971 1.358 1_545 S
C1973 H2015 0.930 . S
C1974 C1975 1.348 . S
C1974 C1976 1.356 . S
C1974 O1999 1.325 . S
C1975 C1974 1.348 . S
C1975 C1977 1.353 . S
C1975 H2016 0.929 . S
C1976 C1974 1.356 . S
C1976 C1978 1.358 . S
C1976 H2017 0.930 . S
C1977 C1975 1.353 . S
C1977 N1979 1.314 . S
C1977 H2018 0.930 . S
C1978 C1976 1.358 . S
C1978 N1979 1.279 . S
C1978 H2019 0.930 . S
N1979 C1977 1.314 . S
N1979 C1978 1.279 . S
C1980 C1982 1.353 . S
C1980 N1983 1.314 . S
C1980 H1986 0.930 . S
C1981 N1983 1.279 . S
C1981 C1984 1.358 . S
C1981 H1987 0.930 . S
C1982 C1980 1.353 . S
C1982 C1985 1.348 . S
C1982 H2020 0.929 . S
N1983 Li1938 1.990 . S
N1983 C1980 1.314 . S
N1983 C1981 1.279 . S
C1984 C1981 1.358 . S
C1984 C1985 1.356 . S
C1984 H2021 0.930 1_565 S
C1985 C1982 1.348 . S
C1985 C1984 1.356 . S
H1986 C1980 0.930 . S
H1987 C1981 0.930 . S
C1988 N1989 1.314 . S
C1988 C1990 1.353 . S
C1988 H1994 0.930 . S
N1989 Li1939 1.990 . S
N1989 C1988 1.314 . S
N1989 C1992 1.279 . S
C1990 C1988 1.353 . S
C1990 C1993 1.348 . S
C1990 H2022 0.929 . S
C1991 C1992 1.358 . S
C1991 C1993 1.356 . S
C1991 H2023 0.930 . S
C1992 N1989 1.279 . S
C1992 C1991 1.358 . S
C1992 H1995 0.930 . S
C1993 C1990 1.348 . S
C1993 C1991 1.356 . S
H1994 C1988 0.930 . S
H1995 C1992 0.930 . S
O1996 Li1936 1.956 . S
O1996 Li1937 1.970 . S
O1996 Li1938 1.961 . S
O1996 C1940 1.325 . S
O1997 Li1936 1.970 . S
O1997 Li1937 1.956 . S
O1997 Li1939 1.961 . S
O1997 C1946 1.325 . S
O1998 Li1936 1.961 . S
O1998 Li1938 1.956 . S
O1998 Li1939 1.970 . S
O1998 C1968 1.325 . S
O1999 Li1937 1.961 . S
O1999 Li1938 1.970 . S
O1999 Li1939 1.956 . S
O1999 C1974 1.325 . S
H2000 C1942 0.929 . S
H2001 C1943 0.930 . S
H2002 C1944 0.930 . S
H2003 C1945 0.930 . S
H2004 C1947 0.930 . S
H2005 C1949 0.929 . S
H2006 C1950 0.930 . S
H2007 C1951 0.930 . S
H2008 C1954 0.930 1_554 S
H2009 C1957 0.929 . S
H2010 C1962 0.929 . S
H2011 C1963 0.930 . S
H2012 C1970 0.929 . S
H2013 C1971 0.930 1_545 S
H2014 C1972 0.930 . S
H2015 C1973 0.930 . S
H2016 C1975 0.929 . S
H2017 C1976 0.930 . S
H2018 C1977 0.930 . S
H2019 C1978 0.930 . S
H2020 C1982 0.929 . S
H2021 C1984 0.930 1_545 S
H2022 C1990 0.929 . S
H2023 C1991 0.930 . S
Li2024 N2041 1.990 . S
Li2024 O2084 1.956 . S
Li2024 O2085 1.970 . S
Li2024 O2086 1.961 . S
Li2025 N2049 1.990 . S
Li2025 O2084 1.970 . S
Li2025 O2085 1.956 . S
Li2025 O2087 1.961 . S
Li2026 N2071 1.990 . S
Li2026 O2084 1.961 . S
Li2026 O2086 1.956 . S
Li2026 O2087 1.970 . S
Li2027 N2077 1.990 . S
Li2027 O2085 1.961 . S
Li2027 O2086 1.970 . S
Li2027 O2087 1.956 . S
C2028 C2030 1.348 . S
C2028 C2031 1.356 . S
C2028 O2084 1.325 . S
N2029 C2032 1.314 . S
N2029 C2033 1.279 1_545 S
C2030 C2028 1.348 . S
C2030 C2032 1.353 . S
C2030 H2088 0.929 . S
C2031 C2028 1.356 . S
C2031 C2033 1.358 1_545 S
C2031 H2089 0.930 . S
C2032 N2029 1.314 . S
C2032 C2030 1.353 . S
C2032 H2090 0.930 . S
C2033 N2029 1.279 1_565 S
C2033 C2031 1.358 1_565 S
C2033 H2091 0.930 . S
C2034 C2037 1.348 . S
C2034 C2038 1.356 . S
C2034 O2085 1.325 . S
C2035 N2036 1.279 . S
C2035 C2038 1.358 . S
C2035 H2092 0.930 . S
N2036 C2035 1.279 . S
N2036 C2039 1.314 . S
C2037 C2034 1.348 . S
C2037 C2039 1.353 . S
C2037 H2093 0.929 . S
C2038 C2034 1.356 . S
C2038 C2035 1.358 . S
C2038 H2094 0.930 . S
C2039 N2036 1.314 . S
C2039 C2037 1.353 . S
C2039 H2095 0.930 . S
C2040 N2041 1.314 . S
C2040 C2045 1.353 1_545 S
C2040 H2046 0.930 . S
N2041 Li2024 1.990 . S
N2041 C2040 1.314 . S
N2041 C2043 1.279 . S
C2042 C2043 1.358 1_565 S
C2042 C2044 1.356 . S
C2042 H2096 0.930 . S
C2043 N2041 1.279 . S
C2043 C2042 1.358 1_545 S
C2043 H2047 0.930 . S
C2044 C2042 1.356 . S
C2044 C2045 1.348 . S
C2045 C2040 1.353 1_565 S
C2045 C2044 1.348 . S
C2045 H2097 0.929 . S
H2046 C2040 0.930 . S
H2047 C2043 0.930 . S
C2048 N2049 1.314 . S
C2048 C2050 1.353 . S
C2048 H2054 0.930 . S
N2049 Li2025 1.990 . S
N2049 C2048 1.314 . S
N2049 C2052 1.279 . S
C2050 C2048 1.353 . S
C2050 C2053 1.348 . S
C2050 H2098 0.929 . S
C2051 C2052 1.358 . S
C2051 C2053 1.356 . S
C2051 H2099 0.930 . S
C2052 N2049 1.279 . S
C2052 C2051 1.358 . S
C2052 H2055 0.930 . S
C2053 C2050 1.348 . S
C2053 C2051 1.356 . S
H2054 C2048 0.930 . S
H2055 C2052 0.930 . S
C2056 C2058 1.348 . S
C2056 C2059 1.356 . S
C2056 O2086 1.325 . S
N2057 C2060 1.314 1_565 S
N2057 C2061 1.279 . S
C2058 C2056 1.348 . S
C2058 C2060 1.353 . S
C2058 H2100 0.929 . S
C2059 C2056 1.356 . S
C2059 C2061 1.358 1_545 S
C2059 H2101 0.930 1_545 S
C2060 N2057 1.314 1_545 S
C2060 C2058 1.353 . S
C2060 H2102 0.930 . S
C2061 N2057 1.279 . S
C2061 C2059 1.358 1_565 S
C2061 H2103 0.930 . S
C2062 C2063 1.348 . S
C2062 C2064 1.356 . S
C2062 O2087 1.325 . S
C2063 C2062 1.348 . S
C2063 C2065 1.353 . S
C2063 H2104 0.929 . S
C2064 C2062 1.356 . S
C2064 C2066 1.358 . S
C2064 H2105 0.930 . S
C2065 C2063 1.353 . S
C2065 N2067 1.314 . S
C2065 H2106 0.930 . S
C2066 C2064 1.358 . S
C2066 N2067 1.279 . S
C2066 H2107 0.930 . S
N2067 C2065 1.314 . S
N2067 C2066 1.279 . S
C2068 C2070 1.353 . S
C2068 N2071 1.314 . S
C2068 H2074 0.930 . S
C2069 N2071 1.279 . S
C2069 C2072 1.358 . S
C2069 H2075 0.930 . S
C2070 C2068 1.353 . S
C2070 C2073 1.348 . S
C2070 H2108 0.929 . S
N2071 Li2026 1.990 . S
N2071 C2068 1.314 . S
N2071 C2069 1.279 . S
C2072 C2069 1.358 . S
C2072 C2073 1.356 . S
C2072 H2109 0.930 1_545 S
C2073 C2070 1.348 . S
C2073 C2072 1.356 . S
H2074 C2068 0.930 . S
H2075 C2069 0.930 . S
C2076 N2077 1.314 . S
C2076 C2078 1.353 . S
C2076 H2082 0.930 . S
N2077 Li2027 1.990 . S
N2077 C2076 1.314 . S
N2077 C2080 1.279 . S
C2078 C2076 1.353 . S
C2078 C2081 1.348 . S
C2078 H2110 0.929 . S
C2079 C2080 1.358 . S
C2079 C2081 1.356 . S
C2079 H2111 0.930 . S
C2080 N2077 1.279 . S
C2080 C2079 1.358 . S
C2080 H2083 0.930 . S
C2081 C2078 1.348 . S
C2081 C2079 1.356 . S
H2082 C2076 0.930 . S
H2083 C2080 0.930 . S
O2084 Li2024 1.956 . S
O2084 Li2025 1.970 . S
O2084 Li2026 1.961 . S
O2084 C2028 1.325 . S
O2085 Li2024 1.970 . S
O2085 Li2025 1.956 . S
O2085 Li2027 1.961 . S
O2085 C2034 1.325 . S
O2086 Li2024 1.961 . S
O2086 Li2026 1.956 . S
O2086 Li2027 1.970 . S
O2086 C2056 1.325 . S
O2087 Li2025 1.961 . S
O2087 Li2026 1.970 . S
O2087 Li2027 1.956 . S
O2087 C2062 1.325 . S
H2088 C2030 0.929 . S
H2089 C2031 0.930 . S
H2090 C2032 0.930 . S
H2091 C2033 0.930 . S
H2092 C2035 0.930 . S
H2093 C2037 0.929 . S
H2094 C2038 0.930 . S
H2095 C2039 0.930 . S
H2096 C2042 0.930 . S
H2097 C2045 0.929 . S
H2098 C2050 0.929 . S
H2099 C2051 0.930 . S
H2100 C2058 0.929 . S
H2101 C2059 0.930 1_565 S
H2102 C2060 0.930 . S
H2103 C2061 0.930 . S
H2104 C2063 0.929 . S
H2105 C2064 0.930 . S
H2106 C2065 0.930 . S
H2107 C2066 0.930 . S
H2108 C2070 0.929 . S
H2109 C2072 0.930 1_565 S
H2110 C2078 0.929 . S
H2111 C2079 0.930 . S
H2112 C2118 0.930 . S
H2113 C2122 0.930 . S
H2114 C2127 0.929 . S
H2115 C2125 0.929 . S
H2116 C2120 0.929 . S
H2117 C2126 0.929 . S
C2118 H2112 0.930 . S
C2118 C2119 1.367 . S
C2118 C2126 1.378 . S
C2119 C2118 1.367 . S
C2119 C2127 1.433 . S
C2120 H2116 0.929 . S
C2120 C2122 1.378 . S
C2120 C2124 1.350 . S
C2121 C2124 1.463 . S
C2121 C2126 1.350 . S
C2121 N2129 1.427 . S
C2122 H2113 0.930 . S
C2122 C2120 1.378 . S
C2122 C2123 1.367 . S
C2123 C2122 1.367 . S
C2123 C2125 1.433 . S
C2124 C2120 1.350 . S
C2124 C2121 1.463 . S
C2124 N2128 1.427 . S
C2125 H2115 0.929 . S
C2125 C2123 1.433 . S
C2125 N2128 1.384 . S
C2126 H2117 0.929 . S
C2126 C2118 1.378 . S
C2126 C2121 1.350 . S
C2127 H2114 0.929 . S
C2127 C2119 1.433 . S
C2127 N2129 1.384 . S
N2128 C2124 1.427 . S
N2128 C2125 1.384 . S
N2129 C2121 1.427 . S
N2129 C2127 1.384 . S
H2130 C2136 0.930 . S
H2131 C2140 0.930 . S
H2132 C2145 0.929 . S
H2133 C2143 0.929 . S
H2134 C2138 0.929 . S
H2135 C2144 0.929 . S
C2136 H2130 0.930 . S
C2136 C2137 1.367 . S
C2136 C2144 1.378 . S
C2137 C2136 1.367 . S
C2137 C2145 1.433 . S
C2138 H2134 0.929 . S
C2138 C2140 1.378 . S
C2138 C2142 1.350 . S
C2139 C2142 1.463 . S
C2139 C2144 1.350 . S
C2139 N2147 1.427 . S
C2140 H2131 0.930 . S
C2140 C2138 1.378 . S
C2140 C2141 1.367 . S
C2141 C2140 1.367 . S
C2141 C2143 1.433 . S
C2142 C2138 1.350 . S
C2142 C2139 1.463 . S
C2142 N2146 1.427 . S
C2143 H2133 0.929 . S
C2143 C2141 1.433 . S
C2143 N2146 1.384 . S
C2144 H2135 0.929 . S
C2144 C2136 1.378 . S
C2144 C2139 1.350 . S
C2145 H2132 0.929 . S
C2145 C2137 1.433 . S
C2145 N2147 1.384 . S
N2146 C2142 1.427 . S
N2146 C2143 1.384 . S
N2147 C2139 1.427 . S
N2147 C2145 1.384 . S
H2148 C2154 0.930 . S
H2149 C2158 0.930 . S
H2150 C2163 0.929 . S
H2151 C2161 0.929 . S
H2152 C2156 0.929 . S
H2153 C2162 0.929 . S
C2154 H2148 0.930 . S
C2154 C2155 1.367 . S
C2154 C2162 1.378 . S
C2155 C2154 1.367 . S
C2155 C2163 1.433 . S
C2156 H2152 0.929 . S
C2156 C2158 1.378 . S
C2156 C2160 1.350 . S
C2157 C2160 1.463 . S
C2157 C2162 1.350 . S
C2157 N2165 1.427 . S
C2158 H2149 0.930 . S
C2158 C2156 1.378 . S
C2158 C2159 1.367 . S
C2159 C2158 1.367 . S
C2159 C2161 1.433 . S
C2160 C2156 1.350 . S
C2160 C2157 1.463 . S
C2160 N2164 1.427 . S
C2161 H2151 0.929 . S
C2161 C2159 1.433 . S
C2161 N2164 1.384 . S
C2162 H2153 0.929 . S
C2162 C2154 1.378 . S
C2162 C2157 1.350 . S
C2163 H2150 0.929 . S
C2163 C2155 1.433 . S
C2163 N2165 1.384 . S
N2164 C2160 1.427 . S
N2164 C2161 1.384 . S
N2165 C2157 1.427 . S
N2165 C2163 1.384 . S
H2166 C2172 0.930 . S
H2167 C2176 0.930 . S
H2168 C2181 0.929 . S
H2169 C2179 0.929 . S
H2170 C2174 0.929 . S
H2171 C2180 0.929 . S
C2172 H2166 0.930 . S
C2172 C2173 1.367 . S
C2172 C2180 1.378 . S
C2173 C2172 1.367 . S
C2173 C2181 1.433 . S
C2174 H2170 0.929 . S
C2174 C2176 1.378 . S
C2174 C2178 1.350 . S
C2175 C2178 1.463 . S
C2175 C2180 1.350 . S
C2175 N2183 1.427 . S
C2176 H2167 0.930 . S
C2176 C2174 1.378 . S
C2176 C2177 1.367 . S
C2177 C2176 1.367 . S
C2177 C2179 1.433 . S
C2178 C2174 1.350 . S
C2178 C2175 1.463 . S
C2178 N2182 1.427 . S
C2179 H2169 0.929 . S
C2179 C2177 1.433 . S
C2179 N2182 1.384 . S
C2180 H2171 0.929 . S
C2180 C2172 1.378 . S
C2180 C2175 1.350 . S
C2181 H2168 0.929 . S
C2181 C2173 1.433 . S
C2181 N2183 1.384 . S
N2182 C2178 1.427 . S
N2182 C2179 1.384 . S
N2183 C2175 1.427 . S
N2183 C2181 1.384 . S
H2184 C2190 0.930 . S
H2185 C2194 0.930 . S
H2186 C2199 0.929 . S
H2187 C2197 0.929 . S
H2188 C2192 0.929 . S
H2189 C2198 0.929 . S
C2190 H2184 0.930 . S
C2190 C2191 1.367 . S
C2190 C2198 1.378 . S
C2191 C2190 1.367 . S
C2191 C2199 1.433 . S
C2192 H2188 0.929 . S
C2192 C2194 1.378 . S
C2192 C2196 1.350 . S
C2193 C2196 1.463 . S
C2193 C2198 1.350 . S
C2193 N2201 1.427 . S
C2194 H2185 0.930 . S
C2194 C2192 1.378 . S
C2194 C2195 1.367 . S
C2195 C2194 1.367 . S
C2195 C2197 1.433 . S
C2196 C2192 1.350 . S
C2196 C2193 1.463 . S
C2196 N2200 1.427 . S
C2197 H2187 0.929 . S
C2197 C2195 1.433 . S
C2197 N2200 1.384 . S
C2198 H2189 0.929 . S
C2198 C2190 1.378 . S
C2198 C2193 1.350 . S
C2199 H2186 0.929 . S
C2199 C2191 1.433 . S
C2199 N2201 1.384 . S
N2200 C2196 1.427 . S
N2200 C2197 1.384 . S
N2201 C2193 1.427 . S
N2201 C2199 1.384 . S
H2202 C2208 0.930 . S
H2203 C2212 0.930 . S
H2204 C2217 0.929 . S
H2205 C2215 0.929 1_455 S
H2206 C2210 0.929 . S
H2207 C2216 0.929 . S
C2208 H2202 0.930 . S
C2208 C2209 1.367 . S
C2208 C2216 1.378 . S
C2209 C2208 1.367 . S
C2209 C2217 1.433 . S
C2210 H2206 0.929 . S
C2210 C2212 1.378 . S
C2210 C2214 1.350 . S
C2211 C2214 1.463 . S
C2211 C2216 1.350 . S
C2211 N2219 1.427 . S
C2212 H2203 0.930 . S
C2212 C2210 1.378 . S
C2212 C2213 1.367 . S
C2213 C2212 1.367 . S
C2213 C2215 1.433 . S
C2214 C2210 1.350 . S
C2214 C2211 1.463 . S
C2214 N2218 1.427 . S
C2215 H2205 0.929 1_655 S
C2215 C2213 1.433 . S
C2215 N2218 1.384 . S
C2216 H2207 0.929 . S
C2216 C2208 1.378 . S
C2216 C2211 1.350 . S
C2217 H2204 0.929 . S
C2217 C2209 1.433 . S
C2217 N2219 1.384 . S
N2218 C2214 1.427 . S
N2218 C2215 1.384 . S
N2219 C2211 1.427 . S
N2219 C2217 1.384 . S
H2220 C2226 0.930 . S
H2221 C2230 0.930 . S
H2222 C2235 0.929 . S
H2223 C2233 0.929 1_556 S
H2224 C2228 0.929 . S
H2225 C2234 0.929 . S
C2226 H2220 0.930 . S
C2226 C2227 1.367 . S
C2226 C2234 1.378 . S
C2227 C2226 1.367 . S
C2227 C2235 1.433 . S
C2228 H2224 0.929 . S
C2228 C2230 1.378 . S
C2228 C2232 1.350 . S
C2229 C2232 1.463 . S
C2229 C2234 1.350 . S
C2229 N2237 1.427 . S
C2230 H2221 0.930 . S
C2230 C2228 1.378 . S
C2230 C2231 1.367 . S
C2231 C2230 1.367 . S
C2231 C2233 1.433 . S
C2232 C2228 1.350 . S
C2232 C2229 1.463 . S
C2232 N2236 1.427 . S
C2233 H2223 0.929 1_554 S
C2233 C2231 1.433 . S
C2233 N2236 1.384 . S
C2234 H2225 0.929 . S
C2234 C2226 1.378 . S
C2234 C2229 1.350 . S
C2235 H2222 0.929 . S
C2235 C2227 1.433 . S
C2235 N2237 1.384 . S
N2236 C2232 1.427 . S
N2236 C2233 1.384 . S
N2237 C2229 1.427 . S
N2237 C2235 1.384 . S
H2238 C2244 0.930 . S
H2239 C2248 0.930 . S
H2240 C2253 0.929 . S
H2241 C2251 0.929 . S
H2242 C2246 0.929 . S
H2243 C2252 0.929 . S
C2244 H2238 0.930 . S
C2244 C2245 1.367 . S
C2244 C2252 1.378 . S
C2245 C2244 1.367 . S
C2245 C2253 1.433 . S
C2246 H2242 0.929 . S
C2246 C2248 1.378 . S
C2246 C2250 1.350 . S
C2247 C2250 1.463 . S
C2247 C2252 1.350 . S
C2247 N2255 1.427 . S
C2248 H2239 0.930 . S
C2248 C2246 1.378 . S
C2248 C2249 1.367 . S
C2249 C2248 1.367 . S
C2249 C2251 1.433 . S
C2250 C2246 1.350 . S
C2250 C2247 1.463 . S
C2250 N2254 1.427 . S
C2251 H2241 0.929 . S
C2251 C2249 1.433 . S
C2251 N2254 1.384 . S
C2252 H2243 0.929 . S
C2252 C2244 1.378 . S
C2252 C2247 1.350 . S
C2253 H2240 0.929 . S
C2253 C2245 1.433 . S
C2253 N2255 1.384 . S
N2254 C2250 1.427 . S
N2254 C2251 1.384 . S
N2255 C2247 1.427 . S
N2255 C2253 1.384 . S
H2256 C2262 0.930 . S
H2257 C2266 0.930 . S
H2258 C2271 0.929 . S
H2259 C2269 0.929 . S
H2260 C2264 0.929 . S
H2261 C2270 0.929 . S
C2262 H2256 0.930 . S
C2262 C2263 1.367 . S
C2262 C2270 1.378 . S
C2263 C2262 1.367 . S
C2263 C2271 1.433 . S
C2264 H2260 0.929 . S
C2264 C2266 1.378 . S
C2264 C2268 1.350 . S
C2265 C2268 1.463 . S
C2265 C2270 1.350 . S
C2265 N2273 1.427 . S
C2266 H2257 0.930 . S
C2266 C2264 1.378 . S
C2266 C2267 1.367 . S
C2267 C2266 1.367 . S
C2267 C2269 1.433 . S
C2268 C2264 1.350 . S
C2268 C2265 1.463 . S
C2268 N2272 1.427 . S
C2269 H2259 0.929 . S
C2269 C2267 1.433 . S
C2269 N2272 1.384 . S
C2270 H2261 0.929 . S
C2270 C2262 1.378 . S
C2270 C2265 1.350 . S
C2271 H2258 0.929 . S
C2271 C2263 1.433 . S
C2271 N2273 1.384 . S
N2272 C2268 1.427 . S
N2272 C2269 1.384 . S
N2273 C2265 1.427 . S
N2273 C2271 1.384 . S
H2274 C2280 0.926 1_565 S
H2275 C2284 0.930 . S
H2276 C2289 0.929 . S
H2277 C2287 0.929 . S
H2278 C2282 0.929 . S
H2279 C2288 0.929 . S
C2280 H2274 0.926 1_545 S
C2280 C2281 1.367 . S
C2280 C2288 1.378 . S
C2281 C2280 1.367 . S
C2281 C2289 1.433 . S
C2282 H2278 0.929 . S
C2282 C2284 1.378 . S
C2282 C2286 1.350 . S
C2283 C2286 1.463 . S
C2283 C2288 1.350 . S
C2283 N2291 1.427 . S
C2284 H2275 0.930 . S
C2284 C2282 1.378 . S
C2284 C2285 1.367 . S
C2285 C2284 1.367 . S
C2285 C2287 1.433 . S
C2286 C2282 1.350 . S
C2286 C2283 1.463 . S
C2286 N2290 1.427 . S
C2287 H2277 0.929 . S
C2287 C2285 1.433 . S
C2287 N2290 1.384 . S
C2288 H2279 0.929 . S
C2288 C2280 1.378 . S
C2288 C2283 1.350 . S
C2289 H2276 0.929 . S
C2289 C2281 1.433 . S
C2289 N2291 1.384 . S
N2290 C2286 1.427 . S
N2290 C2287 1.384 . S
N2291 C2283 1.427 . S
N2291 C2289 1.384 . S
H2292 C2298 0.930 . S
H2293 C2302 0.930 1_545 S
H2294 C2307 0.929 . S
H2295 C2305 0.929 . S
H2296 C2300 0.929 . S
H2297 C2306 0.929 . S
C2298 H2292 0.930 . S
C2298 C2299 1.367 . S
C2298 C2306 1.378 . S
C2299 C2298 1.367 . S
C2299 C2307 1.433 . S
C2300 H2296 0.929 . S
C2300 C2302 1.378 . S
C2300 C2304 1.350 . S
C2301 C2304 1.463 . S
C2301 C2306 1.350 . S
C2301 N2309 1.427 . S
C2302 H2293 0.930 1_565 S
C2302 C2300 1.378 . S
C2302 C2303 1.367 . S
C2303 C2302 1.367 . S
C2303 C2305 1.433 . S
C2304 C2300 1.350 . S
C2304 C2301 1.463 . S
C2304 N2308 1.427 . S
C2305 H2295 0.929 . S
C2305 C2303 1.433 . S
C2305 N2308 1.384 . S
C2306 H2297 0.929 . S
C2306 C2298 1.378 . S
C2306 C2301 1.350 . S
C2307 H2294 0.929 . S
C2307 C2299 1.433 . S
C2307 N2309 1.384 . S
N2308 C2304 1.427 . S
N2308 C2305 1.384 . S
N2309 C2301 1.427 . S
N2309 C2307 1.384 . S
H2310 C2316 0.930 . S
H2311 C2320 0.930 . S
H2312 C2325 0.929 . S
H2313 C2323 0.929 . S
H2314 C2318 0.929 . S
H2315 C2324 0.929 . S
C2316 H2310 0.930 . S
C2316 C2317 1.367 . S
C2316 C2324 1.378 . S
C2317 C2316 1.367 . S
C2317 C2325 1.433 . S
C2318 H2314 0.929 . S
C2318 C2320 1.378 . S
C2318 C2322 1.350 . S
C2319 C2322 1.463 . S
C2319 C2324 1.350 . S
C2319 N2327 1.427 . S
C2320 H2311 0.930 . S
C2320 C2318 1.378 . S
C2320 C2321 1.367 . S
C2321 C2320 1.367 . S
C2321 C2323 1.433 . S
C2322 C2318 1.350 . S
C2322 C2319 1.463 . S
C2322 N2326 1.427 . S
C2323 H2313 0.929 . S
C2323 C2321 1.433 . S
C2323 N2326 1.384 . S
C2324 H2315 0.929 . S
C2324 C2316 1.378 . S
C2324 C2319 1.350 . S
C2325 H2312 0.929 . S
C2325 C2317 1.433 . S
C2325 N2327 1.384 . S
N2326 C2322 1.427 . S
N2326 C2323 1.384 . S
N2327 C2319 1.427 . S
N2327 C2325 1.384 . S
H2328 C2334 0.930 . S
H2329 C2338 0.930 . S
H2330 C2343 0.929 . S
H2331 C2341 0.929 . S
H2332 C2336 0.929 . S
H2333 C2342 0.929 . S
C2334 H2328 0.930 . S
C2334 C2335 1.367 . S
C2334 C2342 1.378 . S
C2335 C2334 1.367 . S
C2335 C2343 1.433 . S
C2336 H2332 0.929 . S
C2336 C2338 1.378 . S
C2336 C2340 1.350 . S
C2337 C2340 1.463 . S
C2337 C2342 1.350 . S
C2337 N2345 1.427 . S
C2338 H2329 0.930 . S
C2338 C2336 1.378 . S
C2338 C2339 1.367 . S
C2339 C2338 1.367 . S
C2339 C2341 1.433 . S
C2340 C2336 1.350 . S
C2340 C2337 1.463 . S
C2340 N2344 1.427 . S
C2341 H2331 0.929 . S
C2341 C2339 1.433 . S
C2341 N2344 1.384 . S
C2342 H2333 0.929 . S
C2342 C2334 1.378 . S
C2342 C2337 1.350 . S
C2343 H2330 0.929 . S
C2343 C2335 1.433 . S
C2343 N2345 1.384 . S
N2344 C2340 1.427 . S
N2344 C2341 1.384 . S
N2345 C2337 1.427 . S
N2345 C2343 1.384 . S
H2346 C2352 0.930 . S
H2347 C2356 0.930 . S
H2348 C2361 0.929 . S
H2349 C2359 0.929 . S
H2350 C2354 0.929 . S
H2351 C2360 0.929 . S
C2352 H2346 0.930 . S
C2352 C2353 1.367 . S
C2352 C2360 1.378 1_565 S
C2353 C2352 1.367 . S
C2353 C2361 1.433 . S
C2354 H2350 0.929 . S
C2354 C2356 1.378 . S
C2354 C2358 1.350 . S
C2355 C2358 1.463 . S
C2355 C2360 1.350 . S
C2355 N2363 1.427 . S
C2356 H2347 0.930 . S
C2356 C2354 1.378 . S
C2356 C2357 1.367 . S
C2357 C2356 1.367 . S
C2357 C2359 1.433 . S
C2358 C2354 1.350 . S
C2358 C2355 1.463 . S
C2358 N2362 1.427 . S
C2359 H2349 0.929 . S
C2359 C2357 1.433 . S
C2359 N2362 1.384 . S
C2360 H2351 0.929 . S
C2360 C2352 1.378 1_545 S
C2360 C2355 1.350 . S
C2361 H2348 0.929 . S
C2361 C2353 1.433 . S
C2361 N2363 1.384 1_565 S
N2362 C2358 1.427 . S
N2362 C2359 1.384 . S
N2363 C2355 1.427 . S
N2363 C2361 1.384 1_545 S
H2364 C2370 0.930 . S
H2365 C2374 0.930 . S
H2366 C2379 0.929 . S
H2367 C2377 0.929 . S
H2368 C2372 0.929 . S
H2369 C2378 0.929 . S
C2370 H2364 0.930 . S
C2370 C2371 1.367 . S
C2370 C2378 1.378 . S
C2371 C2370 1.367 . S
C2371 C2379 1.433 . S
C2372 H2368 0.929 . S
C2372 C2374 1.378 1_556 S
C2372 C2376 1.350 . S
C2373 C2376 1.463 . S
C2373 C2378 1.350 . S
C2373 N2381 1.427 . S
C2374 H2365 0.930 . S
C2374 C2372 1.378 1_554 S
C2374 C2375 1.367 . S
C2375 C2374 1.367 . S
C2375 C2377 1.433 . S
C2376 C2372 1.350 . S
C2376 C2373 1.463 . S
C2376 N2380 1.417 1_556 S
C2377 H2367 0.929 . S
C2377 C2375 1.433 . S
C2377 N2380 1.400 . S
C2378 H2369 0.929 . S
C2378 C2370 1.378 . S
C2378 C2373 1.350 . S
C2379 H2366 0.929 . S
C2379 C2371 1.433 . S
C2379 N2381 1.384 . S
N2380 C2376 1.417 1_554 S
N2380 C2377 1.400 . S
N2381 C2373 1.427 . S
N2381 C2379 1.384 . S
H2382 C2388 0.930 . S
H2383 C2392 0.930 . S
H2384 C2397 0.929 . S
H2385 C2395 0.929 . S
H2386 C2390 0.929 . S
H2387 C2396 0.929 . S
C2388 H2382 0.930 . S
C2388 C2389 1.367 1_565 S
C2388 C2396 1.378 . S
C2389 C2388 1.367 1_545 S
C2389 C2397 1.433 . S
C2390 H2386 0.929 . S
C2390 C2392 1.378 . S
C2390 C2394 1.350 . S
C2391 C2394 1.463 . S
C2391 C2396 1.350 . S
C2391 N2399 1.427 1_565 S
C2392 H2383 0.930 . S
C2392 C2390 1.378 . S
C2392 C2393 1.367 . S
C2393 C2392 1.367 . S
C2393 C2395 1.433 . S
C2394 C2390 1.350 . S
C2394 C2391 1.463 . S
C2394 N2398 1.427 . S
C2395 H2385 0.929 . S
C2395 C2393 1.433 . S
C2395 N2398 1.384 . S
C2396 H2387 0.929 . S
C2396 C2388 1.378 . S
C2396 C2391 1.350 . S
C2397 H2384 0.929 . S
C2397 C2389 1.433 . S
C2397 N2399 1.384 . S
N2398 C2394 1.427 . S
N2398 C2395 1.384 . S
N2399 C2391 1.427 1_545 S
N2399 C2397 1.384 . S
H2400 C2406 0.930 . S
H2401 C2410 0.930 . S
H2402 C2415 0.929 . S
H2403 C2413 0.929 . S
H2404 C2408 0.929 . S
H2405 C2414 0.929 . S
C2406 H2400 0.930 . S
C2406 C2407 1.367 . S
C2406 C2414 1.378 . S
C2407 C2406 1.367 . S
C2407 C2415 1.433 . S
C2408 H2404 0.929 . S
C2408 C2410 1.378 . S
C2408 C2412 1.350 . S
C2409 C2412 1.463 . S
C2409 C2414 1.350 . S
C2409 N2417 1.427 . S
C2410 H2401 0.930 . S
C2410 C2408 1.378 . S
C2410 C2411 1.367 . S
C2411 C2410 1.367 . S
C2411 C2413 1.433 . S
C2412 C2408 1.350 . S
C2412 C2409 1.463 . S
C2412 N2416 1.427 . S
C2413 H2403 0.929 . S
C2413 C2411 1.433 . S
C2413 N2416 1.384 . S
C2414 H2405 0.929 . S
C2414 C2406 1.378 . S
C2414 C2409 1.350 . S
C2415 H2402 0.929 . S
C2415 C2407 1.433 . S
C2415 N2417 1.384 . S
N2416 C2412 1.427 . S
N2416 C2413 1.384 . S
N2417 C2409 1.427 . S
N2417 C2415 1.384 . S
H2418 C2424 0.930 . S
H2419 C2428 0.930 . S
H2420 C2433 0.929 . S
H2421 C2431 0.929 . S
H2422 C2426 0.929 . S
H2423 C2432 0.929 . S
C2424 H2418 0.930 . S
C2424 C2425 1.367 . S
C2424 C2432 1.378 . S
C2425 C2424 1.367 . S
C2425 C2433 1.433 . S
C2426 H2422 0.929 . S
C2426 C2428 1.378 . S
C2426 C2430 1.350 . S
C2427 C2430 1.463 . S
C2427 C2432 1.350 . S
C2427 N2435 1.427 . S
C2428 H2419 0.930 . S
C2428 C2426 1.378 . S
C2428 C2429 1.367 . S
C2429 C2428 1.367 . S
C2429 C2431 1.433 . S
C2430 C2426 1.350 . S
C2430 C2427 1.463 . S
C2430 N2434 1.427 . S
C2431 H2421 0.929 . S
C2431 C2429 1.433 . S
C2431 N2434 1.384 . S
C2432 H2423 0.929 . S
C2432 C2424 1.378 . S
C2432 C2427 1.350 . S
C2433 H2420 0.929 . S
C2433 C2425 1.433 . S
C2433 N2435 1.384 . S
N2434 C2430 1.427 . S
N2434 C2431 1.384 . S
N2435 C2427 1.427 . S
N2435 C2433 1.384 . S
H2436 C2442 0.930 . S
H2437 C2446 0.930 . S
H2438 C2451 0.929 . S
H2439 C2449 0.929 . S
H2440 C2444 0.929 . S
H2441 C2450 0.929 . S
C2442 H2436 0.930 . S
C2442 C2443 1.367 . S
C2442 C2450 1.378 1_556 S
C2443 C2442 1.367 . S
C2443 C2451 1.433 . S
C2444 H2440 0.929 . S
C2444 C2446 1.378 . S
C2444 C2448 1.350 . S
C2445 C2448 1.463 . S
C2445 C2450 1.350 . S
C2445 N2453 1.427 1_554 S
C2446 H2437 0.930 . S
C2446 C2444 1.378 . S
C2446 C2447 1.367 . S
C2447 C2446 1.367 . S
C2447 C2449 1.433 . S
C2448 C2444 1.350 . S
C2448 C2445 1.463 . S
C2448 N2452 1.427 . S
C2449 H2439 0.929 . S
C2449 C2447 1.433 . S
C2449 N2452 1.384 . S
C2450 H2441 0.929 . S
C2450 C2442 1.378 1_554 S
C2450 C2445 1.350 . S
C2451 H2438 0.929 . S
C2451 C2443 1.433 . S
C2451 N2453 1.384 . S
N2452 C2448 1.427 . S
N2452 C2449 1.384 . S
N2453 C2445 1.427 1_556 S
N2453 C2451 1.384 . S
H2454 C2460 0.930 . S
H2455 C2464 0.930 . S
H2456 C2469 0.929 . S
H2457 C2467 0.929 . S
H2458 C2462 0.929 . S
H2459 C2468 0.929 . S
C2460 H2454 0.930 . S
C2460 C2461 1.367 . S
C2460 C2468 1.378 . S
C2461 C2460 1.367 . S
C2461 C2469 1.433 . S
C2462 H2458 0.929 . S
C2462 C2464 1.378 . S
C2462 C2466 1.350 . S
C2463 C2466 1.463 . S
C2463 C2468 1.350 . S
C2463 N2471 1.427 . S
C2464 H2455 0.930 . S
C2464 C2462 1.378 . S
C2464 C2465 1.367 . S
C2465 C2464 1.367 . S
C2465 C2467 1.433 . S
C2466 C2462 1.350 . S
C2466 C2463 1.463 . S
C2466 N2470 1.427 . S
C2467 H2457 0.929 . S
C2467 C2465 1.433 . S
C2467 N2470 1.384 . S
C2468 H2459 0.929 . S
C2468 C2460 1.378 . S
C2468 C2463 1.350 . S
C2469 H2456 0.929 . S
C2469 C2461 1.433 . S
C2469 N2471 1.384 . S
N2470 C2466 1.427 . S
N2470 C2467 1.384 . S
N2471 C2463 1.427 . S
N2471 C2469 1.384 . S
H2472 C2478 0.930 . S
H2473 C2482 0.930 . S
H2474 C2487 0.929 . S
H2475 C2485 0.929 . S
H2476 C2480 0.929 . S
H2477 C2486 0.929 . S
C2478 H2472 0.930 . S
C2478 C2479 1.367 . S
C2478 C2486 1.378 . S
C2479 C2478 1.367 . S
C2479 C2487 1.433 . S
C2480 H2476 0.929 . S
C2480 C2482 1.378 . S
C2480 C2484 1.350 . S
C2481 C2484 1.463 . S
C2481 C2486 1.350 . S
C2481 N2489 1.427 . S
C2482 H2473 0.930 . S
C2482 C2480 1.378 . S
C2482 C2483 1.367 . S
C2483 C2482 1.367 . S
C2483 C2485 1.433 . S
C2484 C2480 1.350 . S
C2484 C2481 1.463 . S
C2484 N2488 1.427 . S
C2485 H2475 0.929 . S
C2485 C2483 1.433 . S
C2485 N2488 1.384 . S
C2486 H2477 0.929 . S
C2486 C2478 1.378 . S
C2486 C2481 1.350 . S
C2487 H2474 0.929 . S
C2487 C2479 1.433 . S
C2487 N2489 1.384 . S
N2488 C2484 1.427 . S
N2488 C2485 1.384 . S
N2489 C2481 1.427 . S
N2489 C2487 1.384 . S
H2490 C2496 0.930 . S
H2491 C2500 0.930 . S
H2492 C2505 0.929 . S
H2493 C2503 0.929 . S
H2494 C2498 0.929 . S
H2495 C2504 0.929 . S
C2496 H2490 0.930 . S
C2496 C2497 1.367 . S
C2496 C2504 1.378 1_455 S
C2497 C2496 1.367 . S
C2497 C2505 1.433 . S
C2498 H2494 0.929 . S
C2498 C2500 1.378 . S
C2498 C2502 1.350 . S
C2499 C2502 1.463 . S
C2499 C2504 1.350 . S
C2499 N2507 1.427 . S
C2500 H2491 0.930 . S
C2500 C2498 1.378 . S
C2500 C2501 1.367 . S
C2501 C2500 1.367 . S
C2501 C2503 1.433 . S
C2502 C2498 1.350 . S
C2502 C2499 1.463 . S
C2502 N2506 1.427 . S
C2503 H2493 0.929 . S
C2503 C2501 1.433 . S
C2503 N2506 1.384 . S
C2504 H2495 0.929 . S
C2504 C2496 1.378 1_655 S
C2504 C2499 1.350 . S
C2505 H2492 0.929 . S
C2505 C2497 1.433 . S
C2505 N2507 1.384 1_455 S
N2506 C2502 1.427 . S
N2506 C2503 1.384 . S
N2507 C2499 1.427 . S
N2507 C2505 1.384 1_655 S
H2508 C2514 0.930 . S
H2509 C2518 0.930 . S
H2510 C2523 0.929 . S
H2511 C2521 0.929 . S
H2512 C2516 0.929 . S
H2513 C2522 0.929 . S
C2514 H2508 0.930 . S
C2514 C2515 1.367 . S
C2514 C2522 1.378 1_655 S
C2515 C2514 1.367 . S
C2515 C2523 1.433 . S
C2516 H2512 0.929 . S
C2516 C2518 1.378 . S
C2516 C2520 1.350 . S
C2517 C2520 1.463 . S
C2517 C2522 1.350 . S
C2517 N2525 1.427 . S
C2518 H2509 0.930 . S
C2518 C2516 1.378 . S
C2518 C2519 1.367 . S
C2519 C2518 1.367 . S
C2519 C2521 1.433 . S
C2520 C2516 1.350 . S
C2520 C2517 1.463 . S
C2520 N2524 1.427 . S
C2521 H2511 0.929 . S
C2521 C2519 1.433 . S
C2521 N2524 1.384 . S
C2522 H2513 0.929 . S
C2522 C2514 1.378 1_455 S
C2522 C2517 1.350 . S
C2523 H2510 0.929 . S
C2523 C2515 1.433 . S
C2523 N2525 1.384 1_655 S
N2524 C2520 1.427 . S
N2524 C2521 1.384 . S
N2525 C2517 1.427 . S
N2525 C2523 1.384 1_455 S
H2526 C2532 0.930 . S
H2527 C2536 0.930 . S
H2528 C2541 0.929 . S
H2529 C2539 0.929 . S
H2530 C2534 0.929 . S
H2531 C2540 0.929 . S
C2532 H2526 0.930 . S
C2532 C2533 1.367 . S
C2532 C2540 1.378 . S
C2533 C2532 1.367 . S
C2533 C2541 1.433 . S
C2534 H2530 0.929 . S
C2534 C2536 1.378 . S
C2534 C2538 1.350 . S
C2535 C2538 1.463 . S
C2535 C2540 1.350 . S
C2535 N2543 1.427 . S
C2536 H2527 0.930 . S
C2536 C2534 1.378 . S
C2536 C2537 1.367 . S
C2537 C2536 1.367 . S
C2537 C2539 1.433 . S
C2538 C2534 1.350 . S
C2538 C2535 1.463 . S
C2538 N2542 1.427 . S
C2539 H2529 0.929 . S
C2539 C2537 1.433 . S
C2539 N2542 1.384 . S
C2540 H2531 0.929 . S
C2540 C2532 1.378 . S
C2540 C2535 1.350 . S
C2541 H2528 0.929 . S
C2541 C2533 1.433 . S
C2541 N2543 1.384 . S
N2542 C2538 1.427 . S
N2542 C2539 1.384 . S
N2543 C2535 1.427 . S
N2543 C2541 1.384 . S
H2544 C2550 0.930 . S
H2545 C2554 0.930 . S
H2546 C2559 0.929 . S
H2547 C2557 0.929 . S
H2548 C2552 0.929 . S
H2549 C2558 0.929 . S
C2550 H2544 0.930 . S
C2550 C2551 1.367 . S
C2550 C2558 1.378 . S
C2551 C2550 1.367 . S
C2551 C2559 1.433 . S
C2552 H2548 0.929 . S
C2552 C2554 1.378 . S
C2552 C2556 1.350 . S
C2553 C2556 1.463 . S
C2553 C2558 1.350 . S
C2553 N2561 1.427 . S
C2554 H2545 0.930 . S
C2554 C2552 1.378 . S
C2554 C2555 1.367 . S
C2555 C2554 1.367 . S
C2555 C2557 1.433 . S
C2556 C2552 1.350 . S
C2556 C2553 1.463 . S
C2556 N2560 1.427 . S
C2557 H2547 0.929 . S
C2557 C2555 1.433 . S
C2557 N2560 1.384 . S
C2558 H2549 0.929 . S
C2558 C2550 1.378 . S
C2558 C2553 1.350 . S
C2559 H2546 0.929 . S
C2559 C2551 1.433 . S
C2559 N2561 1.384 . S
N2560 C2556 1.427 . S
N2560 C2557 1.384 . S
N2561 C2553 1.427 . S
N2561 C2559 1.384 . S
H2562 C2568 0.930 . S
H2563 C2572 0.930 . S
H2564 C2577 0.929 . S
H2565 C2575 0.929 . S
H2566 C2570 0.929 . S
H2567 C2576 0.929 . S
C2568 H2562 0.930 . S
C2568 C2569 1.367 . S
C2568 C2576 1.378 . S
C2569 C2568 1.367 . S
C2569 C2577 1.433 . S
C2570 H2566 0.929 . S
C2570 C2572 1.378 . S
C2570 C2574 1.350 . S
C2571 C2574 1.463 . S
C2571 C2576 1.350 . S
C2571 N2579 1.427 . S
C2572 H2563 0.930 . S
C2572 C2570 1.378 . S
C2572 C2573 1.367 . S
C2573 C2572 1.367 . S
C2573 C2575 1.433 . S
C2574 C2570 1.350 . S
C2574 C2571 1.463 . S
C2574 N2578 1.427 . S
C2575 H2565 0.929 . S
C2575 C2573 1.433 . S
C2575 N2578 1.384 . S
C2576 H2567 0.929 . S
C2576 C2568 1.378 . S
C2576 C2571 1.350 . S
C2577 H2564 0.929 . S
C2577 C2569 1.433 . S
C2577 N2579 1.384 . S
N2578 C2574 1.427 . S
N2578 C2575 1.384 . S
N2579 C2571 1.427 . S
N2579 C2577 1.384 . S
H2580 C2586 0.930 . S
H2581 C2590 0.930 . S
H2582 C2595 0.929 . S
H2583 C2593 0.929 . S
H2584 C2588 0.929 . S
H2585 C2594 0.929 . S
C2586 H2580 0.930 . S
C2586 C2587 1.367 . S
C2586 C2594 1.378 . S
C2587 C2586 1.367 . S
C2587 C2595 1.433 . S
C2588 H2584 0.929 . S
C2588 C2590 1.378 . S
C2588 C2592 1.350 . S
C2589 C2592 1.463 . S
C2589 C2594 1.350 . S
C2589 N2597 1.427 . S
C2590 H2581 0.930 . S
C2590 C2588 1.378 . S
C2590 C2591 1.367 . S
C2591 C2590 1.367 . S
C2591 C2593 1.433 . S
C2592 C2588 1.350 . S
C2592 C2589 1.463 . S
C2592 N2596 1.427 . S
C2593 H2583 0.929 . S
C2593 C2591 1.433 . S
C2593 N2596 1.384 . S
C2594 H2585 0.929 . S
C2594 C2586 1.378 . S
C2594 C2589 1.350 . S
C2595 H2582 0.929 . S
C2595 C2587 1.433 . S
C2595 N2597 1.384 . S
N2596 C2592 1.427 . S
N2596 C2593 1.384 . S
N2597 C2589 1.427 . S
N2597 C2595 1.384 . S
H2598 C2604 0.930 . S
H2599 C2608 0.930 . S
H2600 C2613 0.929 . S
H2601 C2611 0.929 . S
H2602 C2606 0.929 . S
H2603 C2612 0.929 . S
C2604 H2598 0.930 . S
C2604 C2605 1.367 . S
C2604 C2612 1.378 . S
C2605 C2604 1.367 . S
C2605 C2613 1.433 . S
C2606 H2602 0.929 . S
C2606 C2608 1.378 . S
C2606 C2610 1.350 . S
C2607 C2610 1.463 . S
C2607 C2612 1.350 . S
C2607 N2615 1.427 . S
C2608 H2599 0.930 . S
C2608 C2606 1.378 . S
C2608 C2609 1.367 . S
C2609 C2608 1.367 . S
C2609 C2611 1.433 . S
C2610 C2606 1.350 . S
C2610 C2607 1.463 . S
C2610 N2614 1.427 . S
C2611 H2601 0.929 . S
C2611 C2609 1.433 . S
C2611 N2614 1.384 . S
C2612 H2603 0.929 . S
C2612 C2604 1.378 . S
C2612 C2607 1.350 . S
C2613 H2600 0.929 . S
C2613 C2605 1.433 . S
C2613 N2615 1.384 . S
N2614 C2610 1.427 . S
N2614 C2611 1.384 . S
N2615 C2607 1.427 . S
N2615 C2613 1.384 . S
H2616 C2622 0.930 . S
H2617 C2626 0.930 . S
H2618 C2631 0.929 . S
H2619 C2629 0.929 . S
H2620 C2624 0.929 . S
H2621 C2630 0.929 . S
C2622 H2616 0.930 . S
C2622 C2623 1.367 . S
C2622 C2630 1.378 . S
C2623 C2622 1.367 . S
C2623 C2631 1.433 . S
C2624 H2620 0.929 . S
C2624 C2626 1.378 . S
C2624 C2628 1.350 . S
C2625 C2628 1.463 . S
C2625 C2630 1.350 . S
C2625 N2633 1.427 . S
C2626 H2617 0.930 . S
C2626 C2624 1.378 . S
C2626 C2627 1.367 . S
C2627 C2626 1.367 . S
C2627 C2629 1.433 . S
C2628 C2624 1.350 . S
C2628 C2625 1.463 . S
C2628 N2632 1.427 . S
C2629 H2619 0.929 . S
C2629 C2627 1.433 . S
C2629 N2632 1.384 . S
C2630 H2621 0.929 . S
C2630 C2622 1.378 . S
C2630 C2625 1.350 . S
C2631 H2618 0.929 . S
C2631 C2623 1.433 . S
C2631 N2633 1.384 . S
N2632 C2628 1.427 . S
N2632 C2629 1.384 . S
N2633 C2625 1.427 . S
N2633 C2631 1.384 . S
H2634 C2640 0.930 1_554 S
H2635 C2644 0.930 . S
H2636 C2649 0.929 . S
H2637 C2647 0.929 . S
H2638 C2642 0.929 . S
H2639 C2648 0.929 . S
C2640 H2634 0.930 1_556 S
C2640 C2641 1.367 . S
C2640 C2648 1.378 . S
C2641 C2640 1.367 . S
C2641 C2649 1.433 . S
C2642 H2638 0.929 . S
C2642 C2644 1.378 . S
C2642 C2646 1.350 . S
C2643 C2646 1.463 . S
C2643 C2648 1.350 . S
C2643 N2651 1.427 . S
C2644 H2635 0.930 . S
C2644 C2642 1.378 . S
C2644 C2645 1.367 . S
C2645 C2644 1.367 . S
C2645 C2647 1.433 . S
C2646 C2642 1.350 . S
C2646 C2643 1.463 . S
C2646 N2650 1.427 . S
C2647 H2637 0.929 . S
C2647 C2645 1.433 . S
C2647 N2650 1.384 . S
C2648 H2639 0.929 . S
C2648 C2640 1.378 . S
C2648 C2643 1.350 . S
C2649 H2636 0.929 . S
C2649 C2641 1.433 . S
C2649 N2651 1.384 . S
N2650 C2646 1.427 . S
N2650 C2647 1.384 . S
N2651 C2643 1.427 . S
N2651 C2649 1.384 . S
H2652 C2658 0.930 . S
H2653 C2662 0.930 . S
H2654 C2667 0.929 . S
H2655 C2665 0.929 . S
H2656 C2660 0.929 . S
H2657 C2666 0.929 . S
C2658 H2652 0.930 . S
C2658 C2659 1.367 . S
C2658 C2666 1.378 . S
C2659 C2658 1.367 . S
C2659 C2667 1.433 . S
C2660 H2656 0.929 . S
C2660 C2662 1.378 . S
C2660 C2664 1.350 . S
C2661 C2664 1.463 . S
C2661 C2666 1.350 . S
C2661 N2669 1.427 . S
C2662 H2653 0.930 . S
C2662 C2660 1.378 . S
C2662 C2663 1.367 . S
C2663 C2662 1.367 . S
C2663 C2665 1.433 . S
C2664 C2660 1.350 . S
C2664 C2661 1.463 . S
C2664 N2668 1.427 . S
C2665 H2655 0.929 . S
C2665 C2663 1.433 . S
C2665 N2668 1.384 . S
C2666 H2657 0.929 . S
C2666 C2658 1.378 . S
C2666 C2661 1.350 . S
C2667 H2654 0.929 . S
C2667 C2659 1.433 . S
C2667 N2669 1.384 . S
N2668 C2664 1.427 . S
N2668 C2665 1.384 . S
N2669 C2661 1.427 . S
N2669 C2667 1.384 . S
H2670 C2676 0.930 . S
H2671 C2680 0.930 . S
H2672 C2685 0.929 . S
H2673 C2683 0.929 . S
H2674 C2678 0.929 . S
H2675 C2684 0.929 . S
C2676 H2670 0.930 . S
C2676 C2677 1.367 . S
C2676 C2684 1.378 . S
C2677 C2676 1.367 . S
C2677 C2685 1.433 . S
C2678 H2674 0.929 . S
C2678 C2680 1.378 . S
C2678 C2682 1.350 . S
C2679 C2682 1.463 . S
C2679 C2684 1.350 . S
C2679 N2687 1.427 . S
C2680 H2671 0.930 . S
C2680 C2678 1.378 . S
C2680 C2681 1.367 . S
C2681 C2680 1.367 . S
C2681 C2683 1.433 . S
C2682 C2678 1.350 . S
C2682 C2679 1.463 . S
C2682 N2686 1.427 . S
C2683 H2673 0.929 . S
C2683 C2681 1.433 . S
C2683 N2686 1.384 . S
C2684 H2675 0.929 . S
C2684 C2676 1.378 . S
C2684 C2679 1.350 . S
C2685 H2672 0.929 . S
C2685 C2677 1.433 . S
C2685 N2687 1.384 . S
N2686 C2682 1.427 . S
N2686 C2683 1.384 . S
N2687 C2679 1.427 . S
N2687 C2685 1.384 . S
H2688 C2694 0.930 . S
H2689 C2698 0.930 . S
H2690 C2703 0.929 . S
H2691 C2701 0.929 . S
H2692 C2696 0.929 . S
H2693 C2702 0.929 . S
C2694 H2688 0.930 . S
C2694 C2695 1.367 . S
C2694 C2702 1.378 . S
C2695 C2694 1.367 . S
C2695 C2703 1.433 . S
C2696 H2692 0.929 . S
C2696 C2698 1.378 . S
C2696 C2700 1.350 . S
C2697 C2700 1.463 . S
C2697 C2702 1.350 . S
C2697 N2705 1.427 . S
C2698 H2689 0.930 . S
C2698 C2696 1.378 . S
C2698 C2699 1.367 . S
C2699 C2698 1.367 . S
C2699 C2701 1.433 . S
C2700 C2696 1.350 . S
C2700 C2697 1.463 . S
C2700 N2704 1.427 . S
C2701 H2691 0.929 . S
C2701 C2699 1.433 . S
C2701 N2704 1.384 . S
C2702 H2693 0.929 . S
C2702 C2694 1.378 . S
C2702 C2697 1.350 . S
C2703 H2690 0.929 . S
C2703 C2695 1.433 . S
C2703 N2705 1.384 . S
N2704 C2700 1.427 . S
N2704 C2701 1.384 . S
N2705 C2697 1.427 . S
N2705 C2703 1.384 . S
H2706 C2712 0.930 . S
H2707 C2716 0.930 . S
H2708 C2721 0.929 . S
H2709 C2719 0.929 . S
H2710 C2714 0.929 . S
H2711 C2720 0.929 . S
C2712 H2706 0.930 . S
C2712 C2713 1.367 . S
C2712 C2720 1.378 . S
C2713 C2712 1.367 . S
C2713 C2721 1.433 . S
C2714 H2710 0.929 . S
C2714 C2716 1.378 . S
C2714 C2718 1.350 . S
C2715 C2718 1.463 . S
C2715 C2720 1.350 . S
C2715 N2723 1.427 . S
C2716 H2707 0.930 . S
C2716 C2714 1.378 . S
C2716 C2717 1.367 . S
C2717 C2716 1.367 . S
C2717 C2719 1.433 . S
C2718 C2714 1.350 . S
C2718 C2715 1.463 . S
C2718 N2722 1.427 . S
C2719 H2709 0.929 . S
C2719 C2717 1.433 . S
C2719 N2722 1.384 . S
C2720 H2711 0.929 . S
C2720 C2712 1.378 . S
C2720 C2715 1.350 . S
C2721 H2708 0.929 . S
C2721 C2713 1.433 . S
C2721 N2723 1.384 . S
N2722 C2718 1.427 . S
N2722 C2719 1.384 . S
N2723 C2715 1.427 . S
N2723 C2721 1.384 . S
H2724 C2730 0.930 . S
H2725 C2734 0.930 . S
H2726 C2739 0.929 . S
H2727 C2737 0.929 . S
H2728 C2732 0.929 . S
H2729 C2738 0.929 . S
C2730 H2724 0.930 . S
C2730 C2731 1.367 . S
C2730 C2738 1.378 . S
C2731 C2730 1.367 . S
C2731 C2739 1.433 . S
C2732 H2728 0.929 . S
C2732 C2734 1.378 . S
C2732 C2736 1.350 . S
C2733 C2736 1.463 . S
C2733 C2738 1.350 . S
C2733 N2741 1.427 . S
C2734 H2725 0.930 . S
C2734 C2732 1.378 . S
C2734 C2735 1.367 . S
C2735 C2734 1.367 . S
C2735 C2737 1.433 . S
C2736 C2732 1.350 . S
C2736 C2733 1.463 . S
C2736 N2740 1.427 . S
C2737 H2727 0.929 . S
C2737 C2735 1.433 . S
C2737 N2740 1.384 . S
C2738 H2729 0.929 . S
C2738 C2730 1.378 . S
C2738 C2733 1.350 . S
C2739 H2726 0.929 . S
C2739 C2731 1.433 . S
C2739 N2741 1.384 . S
N2740 C2736 1.427 . S
N2740 C2737 1.384 . S
N2741 C2733 1.427 . S
N2741 C2739 1.384 . S
H2742 C2748 0.930 . S
H2743 C2752 0.930 . S
H2744 C2757 0.929 . S
H2745 C2755 0.929 . S
H2746 C2750 0.929 . S
H2747 C2756 0.929 . S
C2748 H2742 0.930 . S
C2748 C2749 1.367 . S
C2748 C2756 1.378 . S
C2749 C2748 1.367 . S
C2749 C2757 1.433 . S
C2750 H2746 0.929 . S
C2750 C2752 1.378 . S
C2750 C2754 1.350 . S
C2751 C2754 1.463 . S
C2751 C2756 1.350 . S
C2751 N2759 1.427 . S
C2752 H2743 0.930 . S
C2752 C2750 1.378 . S
C2752 C2753 1.367 . S
C2753 C2752 1.367 . S
C2753 C2755 1.433 . S
C2754 C2750 1.350 . S
C2754 C2751 1.463 . S
C2754 N2758 1.427 . S
C2755 H2745 0.929 . S
C2755 C2753 1.433 . S
C2755 N2758 1.384 . S
C2756 H2747 0.929 . S
C2756 C2748 1.378 . S
C2756 C2751 1.350 . S
C2757 H2744 0.929 . S
C2757 C2749 1.433 . S
C2757 N2759 1.384 . S
N2758 C2754 1.427 . S
N2758 C2755 1.384 . S
N2759 C2751 1.427 . S
N2759 C2757 1.384 . S
H2760 C2766 0.930 . S
H2761 C2770 0.930 . S
H2762 C2775 0.929 . S
H2763 C2773 0.929 . S
H2764 C2768 0.929 . S
H2765 C2774 0.929 . S
C2766 H2760 0.930 . S
C2766 C2767 1.367 . S
C2766 C2774 1.378 . S
C2767 C2766 1.367 . S
C2767 C2775 1.433 . S
C2768 H2764 0.929 . S
C2768 C2770 1.378 . S
C2768 C2772 1.350 . S
C2769 C2772 1.463 . S
C2769 C2774 1.350 . S
C2769 N2777 1.427 . S
C2770 H2761 0.930 . S
C2770 C2768 1.378 . S
C2770 C2771 1.367 . S
C2771 C2770 1.367 . S
C2771 C2773 1.433 . S
C2772 C2768 1.350 . S
C2772 C2769 1.463 . S
C2772 N2776 1.427 . S
C2773 H2763 0.929 . S
C2773 C2771 1.433 . S
C2773 N2776 1.384 . S
C2774 H2765 0.929 . S
C2774 C2766 1.378 . S
C2774 C2769 1.350 . S
C2775 H2762 0.929 . S
C2775 C2767 1.433 . S
C2775 N2777 1.384 . S
N2776 C2772 1.427 . S
N2776 C2773 1.384 . S
N2777 C2769 1.427 . S
N2777 C2775 1.384 . S
H2778 C2784 0.930 . S
H2779 C2788 0.930 . S
H2780 C2793 0.929 . S
H2781 C2791 0.929 . S
H2782 C2786 0.929 . S
H2783 C2792 0.929 . S
C2784 H2778 0.930 . S
C2784 C2785 1.367 . S
C2784 C2792 1.378 . S
C2785 C2784 1.367 . S
C2785 C2793 1.433 . S
C2786 H2782 0.929 . S
C2786 C2788 1.378 . S
C2786 C2790 1.350 . S
C2787 C2790 1.463 . S
C2787 C2792 1.350 . S
C2787 N2795 1.427 . S
C2788 H2779 0.930 . S
C2788 C2786 1.378 . S
C2788 C2789 1.367 . S
C2789 C2788 1.367 . S
C2789 C2791 1.433 . S
C2790 C2786 1.350 . S
C2790 C2787 1.463 . S
C2790 N2794 1.427 . S
C2791 H2781 0.929 . S
C2791 C2789 1.433 . S
C2791 N2794 1.384 . S
C2792 H2783 0.929 . S
C2792 C2784 1.378 . S
C2792 C2787 1.350 . S
C2793 H2780 0.929 . S
C2793 C2785 1.433 . S
C2793 N2795 1.384 . S
N2794 C2790 1.427 . S
N2794 C2791 1.384 . S
N2795 C2787 1.427 . S
N2795 C2793 1.384 . S
H2796 C2802 0.930 . S
H2797 C2806 0.930 . S
H2798 C2811 0.929 . S
H2799 C2809 0.929 . S
H2800 C2804 0.929 . S
H2801 C2810 0.929 . S
C2802 H2796 0.930 . S
C2802 C2803 1.367 . S
C2802 C2810 1.378 . S
C2803 C2802 1.367 . S
C2803 C2811 1.433 . S
C2804 H2800 0.929 . S
C2804 C2806 1.378 . S
C2804 C2808 1.350 . S
C2805 C2808 1.463 . S
C2805 C2810 1.350 . S
C2805 N2813 1.427 . S
C2806 H2797 0.930 . S
C2806 C2804 1.378 . S
C2806 C2807 1.367 . S
C2807 C2806 1.367 . S
C2807 C2809 1.433 . S
C2808 C2804 1.350 . S
C2808 C2805 1.463 . S
C2808 N2812 1.427 . S
C2809 H2799 0.929 . S
C2809 C2807 1.433 . S
C2809 N2812 1.384 . S
C2810 H2801 0.929 . S
C2810 C2802 1.378 . S
C2810 C2805 1.350 . S
C2811 H2798 0.929 . S
C2811 C2803 1.433 . S
C2811 N2813 1.384 . S
N2812 C2808 1.427 . S
N2812 C2809 1.384 . S
N2813 C2805 1.427 . S
N2813 C2811 1.384 . S
H2814 C2820 0.930 . S
H2815 C2824 0.930 . S
H2816 C2829 0.929 . S
H2817 C2827 0.929 . S
H2818 C2822 0.929 . S
H2819 C2828 0.929 . S
C2820 H2814 0.930 . S
C2820 C2821 1.367 . S
C2820 C2828 1.378 . S
C2821 C2820 1.367 . S
C2821 C2829 1.433 . S
C2822 H2818 0.929 . S
C2822 C2824 1.378 . S
C2822 C2826 1.350 . S
C2823 C2826 1.463 . S
C2823 C2828 1.350 . S
C2823 N2831 1.427 . S
C2824 H2815 0.930 . S
C2824 C2822 1.378 . S
C2824 C2825 1.367 . S
C2825 C2824 1.367 . S
C2825 C2827 1.433 . S
C2826 C2822 1.350 . S
C2826 C2823 1.463 . S
C2826 N2830 1.427 . S
C2827 H2817 0.929 . S
C2827 C2825 1.433 . S
C2827 N2830 1.384 . S
C2828 H2819 0.929 . S
C2828 C2820 1.378 . S
C2828 C2823 1.350 . S
C2829 H2816 0.929 . S
C2829 C2821 1.433 . S
C2829 N2831 1.384 . S
N2830 C2826 1.427 . S
N2830 C2827 1.384 . S
N2831 C2823 1.427 . S
N2831 C2829 1.384 . S
H2832 C2838 0.930 . S
H2833 C2842 0.930 . S
H2834 C2847 0.929 . S
H2835 C2845 0.929 . S
H2836 C2840 0.929 . S
H2837 C2846 0.929 . S
C2838 H2832 0.930 . S
C2838 C2839 1.367 . S
C2838 C2846 1.378 . S
C2839 C2838 1.367 . S
C2839 C2847 1.433 . S
C2840 H2836 0.929 . S
C2840 C2842 1.378 . S
C2840 C2844 1.350 . S
C2841 C2844 1.463 . S
C2841 C2846 1.350 . S
C2841 N2849 1.427 . S
C2842 H2833 0.930 . S
C2842 C2840 1.378 . S
C2842 C2843 1.367 . S
C2843 C2842 1.367 . S
C2843 C2845 1.433 . S
C2844 C2840 1.350 . S
C2844 C2841 1.463 . S
C2844 N2848 1.427 . S
C2845 H2835 0.929 . S
C2845 C2843 1.433 . S
C2845 N2848 1.384 . S
C2846 H2837 0.929 . S
C2846 C2838 1.378 . S
C2846 C2841 1.350 . S
C2847 H2834 0.929 . S
C2847 C2839 1.433 . S
C2847 N2849 1.384 . S
N2848 C2844 1.427 . S
N2848 C2845 1.384 . S
N2849 C2841 1.427 . S
N2849 C2847 1.384 . S
H2850 C2856 0.930 . S
H2851 C2860 0.930 . S
H2852 C2865 0.929 . S
H2853 C2863 0.929 . S
H2854 C2858 0.929 . S
H2855 C2864 0.929 . S
C2856 H2850 0.930 . S
C2856 C2857 1.367 . S
C2856 C2864 1.378 . S
C2857 C2856 1.367 . S
C2857 C2865 1.433 . S
C2858 H2854 0.929 . S
C2858 C2860 1.378 . S
C2858 C2862 1.350 . S
C2859 C2862 1.463 . S
C2859 C2864 1.350 . S
C2859 N2867 1.427 . S
C2860 H2851 0.930 . S
C2860 C2858 1.378 . S
C2860 C2861 1.367 . S
C2861 C2860 1.367 . S
C2861 C2863 1.433 . S
C2862 C2858 1.350 . S
C2862 C2859 1.463 . S
C2862 N2866 1.427 . S
C2863 H2853 0.929 . S
C2863 C2861 1.433 . S
C2863 N2866 1.384 . S
C2864 H2855 0.929 . S
C2864 C2856 1.378 . S
C2864 C2859 1.350 . S
C2865 H2852 0.929 . S
C2865 C2857 1.433 . S
C2865 N2867 1.384 . S
N2866 C2862 1.427 . S
N2866 C2863 1.384 . S
N2867 C2859 1.427 . S
N2867 C2865 1.384 . S
H2868 C2874 0.930 . S
H2869 C2878 0.930 . S
H2870 C2883 0.929 . S
H2871 C2881 0.929 . S
H2872 C2876 0.929 . S
H2873 C2882 0.929 . S
C2874 H2868 0.930 . S
C2874 C2875 1.367 . S
C2874 C2882 1.378 . S
C2875 C2874 1.367 . S
C2875 C2883 1.433 . S
C2876 H2872 0.929 . S
C2876 C2878 1.378 . S
C2876 C2880 1.350 . S
C2877 C2880 1.463 . S
C2877 C2882 1.350 . S
C2877 N2885 1.427 . S
C2878 H2869 0.930 . S
C2878 C2876 1.378 . S
C2878 C2879 1.367 . S
C2879 C2878 1.367 . S
C2879 C2881 1.433 . S
C2880 C2876 1.350 . S
C2880 C2877 1.463 . S
C2880 N2884 1.427 . S
C2881 H2871 0.929 . S
C2881 C2879 1.433 . S
C2881 N2884 1.384 . S
C2882 H2873 0.929 . S
C2882 C2874 1.378 . S
C2882 C2877 1.350 . S
C2883 H2870 0.929 . S
C2883 C2875 1.433 . S
C2883 N2885 1.384 . S
N2884 C2880 1.427 . S
N2884 C2881 1.384 . S
N2885 C2877 1.427 . S
N2885 C2883 1.384 . S
H2886 C2892 0.930 . S
H2887 C2896 0.930 . S
H2888 C2901 0.929 . S
H2889 C2899 0.929 . S
H2890 C2894 0.929 . S
H2891 C2900 0.929 . S
C2892 H2886 0.930 . S
C2892 C2893 1.367 . S
C2892 C2900 1.378 . S
C2893 C2892 1.367 . S
C2893 C2901 1.433 . S
C2894 H2890 0.929 . S
C2894 C2896 1.378 . S
C2894 C2898 1.350 . S
C2895 C2898 1.463 . S
C2895 C2900 1.350 . S
C2895 N2903 1.427 . S
C2896 H2887 0.930 . S
C2896 C2894 1.378 . S
C2896 C2897 1.367 . S
C2897 C2896 1.367 . S
C2897 C2899 1.433 . S
C2898 C2894 1.350 . S
C2898 C2895 1.463 . S
C2898 N2902 1.427 . S
C2899 H2889 0.929 . S
C2899 C2897 1.433 . S
C2899 N2902 1.384 . S
C2900 H2891 0.929 . S
C2900 C2892 1.378 . S
C2900 C2895 1.350 . S
C2901 H2888 0.929 . S
C2901 C2893 1.433 . S
C2901 N2903 1.384 . S
N2902 C2898 1.427 . S
N2902 C2899 1.384 . S
N2903 C2895 1.427 . S
N2903 C2901 1.384 . S
H2904 C2910 0.930 . S
H2905 C2914 0.930 . S
H2906 C2919 0.929 . S
H2907 C2917 0.929 . S
H2908 C2912 0.929 . S
H2909 C2918 0.929 . S
C2910 H2904 0.930 . S
C2910 C2911 1.367 . S
C2910 C2918 1.378 . S
C2911 C2910 1.367 . S
C2911 C2919 1.433 . S
C2912 H2908 0.929 . S
C2912 C2914 1.378 . S
C2912 C2916 1.350 . S
C2913 C2916 1.463 . S
C2913 C2918 1.350 . S
C2913 N2921 1.427 . S
C2914 H2905 0.930 . S
C2914 C2912 1.378 . S
C2914 C2915 1.367 . S
C2915 C2914 1.367 . S
C2915 C2917 1.433 . S
C2916 C2912 1.350 . S
C2916 C2913 1.463 . S
C2916 N2920 1.427 . S
C2917 H2907 0.929 . S
C2917 C2915 1.433 . S
C2917 N2920 1.384 . S
C2918 H2909 0.929 . S
C2918 C2910 1.378 . S
C2918 C2913 1.350 . S
C2919 H2906 0.929 . S
C2919 C2911 1.433 . S
C2919 N2921 1.384 . S
N2920 C2916 1.427 . S
N2920 C2917 1.384 . S
N2921 C2913 1.427 . S
N2921 C2919 1.384 . S
H2922 C2928 0.930 . S
H2923 C2932 0.930 . S
H2924 C2937 0.929 . S
H2925 C2935 0.929 . S
H2926 C2930 0.929 . S
H2927 C2936 0.929 . S
C2928 H2922 0.930 . S
C2928 C2929 1.367 . S
C2928 C2936 1.378 . S
C2929 C2928 1.367 . S
C2929 C2937 1.433 . S
C2930 H2926 0.929 . S
C2930 C2932 1.378 . S
C2930 C2934 1.350 . S
C2931 C2934 1.463 . S
C2931 C2936 1.350 . S
C2931 N2939 1.427 . S
C2932 H2923 0.930 . S
C2932 C2930 1.378 . S
C2932 C2933 1.367 . S
C2933 C2932 1.367 . S
C2933 C2935 1.433 . S
C2934 C2930 1.350 . S
C2934 C2931 1.463 . S
C2934 N2938 1.427 . S
C2935 H2925 0.929 . S
C2935 C2933 1.433 . S
C2935 N2938 1.384 . S
C2936 H2927 0.929 . S
C2936 C2928 1.378 . S
C2936 C2931 1.350 . S
C2937 H2924 0.929 . S
C2937 C2929 1.433 . S
C2937 N2939 1.384 . S
N2938 C2934 1.427 . S
N2938 C2935 1.384 . S
N2939 C2931 1.427 . S
N2939 C2937 1.384 . S
H2940 C2946 0.930 . S
H2941 C2950 0.930 . S
H2942 C2955 0.929 . S
H2943 C2953 0.929 . S
H2944 C2948 0.929 . S
H2945 C2954 0.929 . S
C2946 H2940 0.930 . S
C2946 C2947 1.367 . S
C2946 C2954 1.378 . S
C2947 C2946 1.367 . S
C2947 C2955 1.433 . S
C2948 H2944 0.929 . S
C2948 C2950 1.378 . S
C2948 C2952 1.350 . S
C2949 C2952 1.463 . S
C2949 C2954 1.350 . S
C2949 N2957 1.427 . S
C2950 H2941 0.930 . S
C2950 C2948 1.378 . S
C2950 C2951 1.367 . S
C2951 C2950 1.367 . S
C2951 C2953 1.433 . S
C2952 C2948 1.350 . S
C2952 C2949 1.463 . S
C2952 N2956 1.427 . S
C2953 H2943 0.929 . S
C2953 C2951 1.433 . S
C2953 N2956 1.384 . S
C2954 H2945 0.929 . S
C2954 C2946 1.378 . S
C2954 C2949 1.350 . S
C2955 H2942 0.929 . S
C2955 C2947 1.433 . S
C2955 N2957 1.384 . S
N2956 C2952 1.427 . S
N2956 C2953 1.384 . S
N2957 C2949 1.427 . S
N2957 C2955 1.384 . S
H2958 C2964 0.930 . S
H2959 C2968 0.930 1_455 S
H2960 C2973 0.929 . S
H2961 C2971 0.929 . S
H2962 C2966 0.929 . S
H2963 C2972 0.929 . S
C2964 H2958 0.930 . S
C2964 C2965 1.367 . S
C2964 C2972 1.378 . S
C2965 C2964 1.367 . S
C2965 C2973 1.433 . S
C2966 H2962 0.929 . S
C2966 C2968 1.378 . S
C2966 C2970 1.350 . S
C2967 C2970 1.463 . S
C2967 C2972 1.350 . S
C2967 N2975 1.427 . S
C2968 H2959 0.930 1_655 S
C2968 C2966 1.378 . S
C2968 C2969 1.367 . S
C2969 C2968 1.367 . S
C2969 C2971 1.433 . S
C2970 C2966 1.350 . S
C2970 C2967 1.463 . S
C2970 N2974 1.427 . S
C2971 H2961 0.929 . S
C2971 C2969 1.433 . S
C2971 N2974 1.384 . S
C2972 H2963 0.929 . S
C2972 C2964 1.378 . S
C2972 C2967 1.350 . S
C2973 H2960 0.929 . S
C2973 C2965 1.433 . S
C2973 N2975 1.384 . S
N2974 C2970 1.427 . S
N2974 C2971 1.384 . S
N2975 C2967 1.427 . S
N2975 C2973 1.384 . S
C2119 C849 1.242 . S
C2123 C57 1.242 . S
C2137 C117 1.396 1_455 S
C2141 C900 1.378 . S
C2155 C225 1.267 . S
C2159 C988 1.267 1_556 S
C2173 C293 1.396 . S
C2177 C753 1.379 . S
C2191 C381 1.248 . S
C2195 C1349 1.247 . S
C2209 C1085 1.399 . S
C2213 C497 1.417 1_655 S
C2227 C548 1.262 . S
C2231 C1193 1.263 1_554 S
C2245 C1281 1.402 . S
C2249 C665 1.418 . S
C2263 C1465 1.396 . S
C2267 C1604 1.379 . S
C2281 C1985 1.402 1_545 S
C2285 C1516 1.419 . S
C2299 C1692 1.417 . S
C2303 C2073 1.400 1_565 S
C2317 C1897 1.401 . S
C2321 C1780 1.382 . S
C2335 C1817 1.640 . S
C2339 C20 1.646 . S
C2353 C108 1.652 . S
C2357 C1525 1.654 . S
C2371 C205 1.641 . S
C2375 C1641 1.644 . S
C2389 C284 1.648 . S
C2393 C1701 1.654 . S
C2407 C401 1.640 . S
C2411 C2053 1.645 . S
C2425 C1905 1.654 . S
C2429 C489 1.648 . S
C2443 C1965 1.643 . S
C2447 C585 1.642 . S
C2461 C1457 1.650 . S
C2465 C673 1.655 . S
C2479 C1369 1.640 . S
C2483 C733 1.645 . S
C2497 C812 1.641 . S
C2501 C1105 1.646 . S
C2515 C1173 1.642 . S
C2519 C937 1.646 . S
C2533 C1261 1.646 . S
C2537 C1025 1.640 . S
C2551 C49 0.841 . S
C2555 C1428 0.920 . S
C2569 C2044 1.022 . S
C2573 C145 0.949 . S
C2587 C1877 0.918 . S
C2591 C233 0.870 . S
C2605 C321 0.914 . S
C2609 C1956 1.022 . S
C2623 C372 0.878 . S
C2627 C1553 0.918 . S
C2641 C1633 1.022 . S
C2645 C469 0.914 . S
C2659 C1729 0.922 . S
C2663 C557 0.842 . S
C2677 C1809 1.023 . S
C2681 C636 0.934 . S
C2695 C29 0.987 . S
C2699 C761 0.896 . S
C2713 C137 0.917 . S
C2717 C841 0.872 . S
C2731 C196 0.987 . S
C2735 C909 0.915 . S
C2749 C313 0.918 . S
C2753 C997 0.874 . S
C2767 C409 0.989 . S
C2771 C1076 0.885 . S
C2785 C460 0.918 . S
C2789 C1201 0.871 . S
C2803 C1289 0.921 . S
C2807 C577 0.989 . S
C2821 C645 0.922 . S
C2825 C1340 0.840 . S
C2839 C724 1.022 . S
C2843 C1437 0.914 . S
C2857 C1545 0.930 . S
C2861 C1113 1.021 . S
C2875 C1164 0.989 . S
C2879 C1613 0.891 . S
C2893 C1721 0.928 . S
C2897 C1252 1.021 . S
C2911 C1789 0.922 . S
C2915 C1377 0.989 . S
C2929 C1868 0.915 . S
C2933 C929 1.022 . S
C2947 C1017 0.990 . S
C2951 C1993 0.896 . S
C2965 C2081 0.892 . S
C2969 C821 0.987 . S
