# Generated by pormake.
# Topology ukh, (4)-cn, num edge types: 1
# Building blocks:
#     Node 0, Type 0, BuildingBlock: KUFVIS_clean_sbu_0, # of connection points: 4
#     Node 1, Type 0, BuildingBlock: KUFVIS_clean_sbu_0, # of connection points: 4
#     Node 2, Type 0, BuildingBlock: KUFVIS_clean_sbu_0, # of connection points: 4
#     Node 3, Type 0, BuildingBlock: KUFVIS_clean_sbu_0, # of connection points: 4
#     Node 4, Type 0, BuildingBlock: KUFVIS_clean_sbu_0, # of connection points: 4
#     Node 5, Type 0, BuildingBlock: KUFVIS_clean_sbu_0, # of connection points: 4
#     Node 6, Type 0, BuildingBlock: KUFVIS_clean_sbu_0, # of connection points: 4
#     Node 7, Type 0, BuildingBlock: KUFVIS_clean_sbu_0, # of connection points: 4
#     Node 8, Type 0, BuildingBlock: KUFVIS_clean_sbu_0, # of connection points: 4
#     Node 9, Type 0, BuildingBlock: KUFVIS_clean_sbu_0, # of connection points: 4
#     Node 10, Type 0, BuildingBlock: KUFVIS_clean_sbu_0, # of connection points: 4
#     Node 11, Type 0, BuildingBlock: KUFVIS_clean_sbu_0, # of connection points: 4
#     Edge 12, Type (0, 0), BuildingBlock: UVAHIK_clean_linker_0, # of connection points: 2
#     Edge 13, Type (0, 0), BuildingBlock: UVAHIK_clean_linker_0, # of connection points: 2
#     Edge 14, Type (0, 0), BuildingBlock: UVAHIK_clean_linker_0, # of connection points: 2
#     Edge 15, Type (0, 0), BuildingBlock: UVAHIK_clean_linker_0, # of connection points: 2
#     Edge 16, Type (0, 0), BuildingBlock: UVAHIK_clean_linker_0, # of connection points: 2
#     Edge 17, Type (0, 0), BuildingBlock: UVAHIK_clean_linker_0, # of connection points: 2
#     Edge 18, Type (0, 0), BuildingBlock: UVAHIK_clean_linker_0, # of connection points: 2
#     Edge 19, Type (0, 0), BuildingBlock: UVAHIK_clean_linker_0, # of connection points: 2
#     Edge 20, Type (0, 0), BuildingBlock: UVAHIK_clean_linker_0, # of connection points: 2
#     Edge 21, Type (0, 0), BuildingBlock: UVAHIK_clean_linker_0, # of connection points: 2
#     Edge 22, Type (0, 0), BuildingBlock: UVAHIK_clean_linker_0, # of connection points: 2
#     Edge 23, Type (0, 0), BuildingBlock: UVAHIK_clean_linker_0, # of connection points: 2
#     Edge 24, Type (0, 0), BuildingBlock: UVAHIK_clean_linker_0, # of connection points: 2
#     Edge 25, Type (0, 0), BuildingBlock: UVAHIK_clean_linker_0, # of connection points: 2
#     Edge 26, Type (0, 0), BuildingBlock: UVAHIK_clean_linker_0, # of connection points: 2
#     Edge 27, Type (0, 0), BuildingBlock: UVAHIK_clean_linker_0, # of connection points: 2
#     Edge 28, Type (0, 0), BuildingBlock: UVAHIK_clean_linker_0, # of connection points: 2
#     Edge 29, Type (0, 0), BuildingBlock: UVAHIK_clean_linker_0, # of connection points: 2
#     Edge 30, Type (0, 0), BuildingBlock: UVAHIK_clean_linker_0, # of connection points: 2
#     Edge 31, Type (0, 0), BuildingBlock: UVAHIK_clean_linker_0, # of connection points: 2
#     Edge 32, Type (0, 0), BuildingBlock: UVAHIK_clean_linker_0, # of connection points: 2
#     Edge 33, Type (0, 0), BuildingBlock: UVAHIK_clean_linker_0, # of connection points: 2
#     Edge 34, Type (0, 0), BuildingBlock: UVAHIK_clean_linker_0, # of connection points: 2
#     Edge 35, Type (0, 0), BuildingBlock: UVAHIK_clean_linker_0, # of connection points: 2
# Relax obj value: 0.084
# Max RMSD: 0.124
# Mean RMSD: 0.124
data_MOF--net-ukh--node1-KUFVIS_clean_sbu_0--edge1-UVAHIK_clean_linker_0
_symmetry_space_group_name_H-M    P1
_symmetry_Int_Tables_number       1
_symmetry_cell_setting            triclinic
loop_
_symmetry_equiv_pos_as_xyz
'x, y, z'
_cell_length_a     41.765877
_cell_length_b     41.763379
_cell_length_c     78.778923
_cell_angle_alpha  90.000151
_cell_angle_beta   89.994812
_cell_angle_gamma 119.99518
loop_
_atom_site_label
_atom_site_type_symbol
_atom_site_fract_x
_atom_site_fract_y
_atom_site_fract_z
_atom_type_partial_charge
Mn0 Mn 0.3209 0.22704 0.05022 0.0
Mn1 Mn 0.28197 0.26814 0.07215 0.0
C2 C 0.27559 0.2351 0.03761 0.0
C3 C 0.32027 0.17212 0.04409 0.0
C4 C 0.35869 0.3097 0.05642 0.0
O5 O 0.33669 0.22658 0.07464 0.0
O6 O 0.30226 0.24627 0.08825 0.0
C7 C 0.21945 0.20225 0.08796 0.0
N8 N 0.23215 0.23299 0.07808 0.0
C9 C 0.17051 0.22225 0.07377 0.0
C10 C 0.15677 0.19059 0.08398 0.0
C11 C 0.18134 0.1805 0.09107 0.0
C12 C 0.20874 0.24286 0.07114 0.0
H13 H 0.23827 0.19441 0.0934 0.0
C14 C 0.32422 0.23317 0.08819 0.0
O15 O 0.35001 0.20392 0.0417 0.0
O16 O 0.29173 0.17253 0.05021 0.0
N17 N 0.26096 0.29036 0.05813 0.0
C18 C 0.27851 0.32079 0.048 0.0
C19 C 0.25779 0.33418 0.03971 0.0
C20 C 0.21933 0.31639 0.04204 0.0
C21 C 0.20192 0.28534 0.05265 0.0
C22 C 0.22404 0.27344 0.06068 0.0
H23 H 0.30809 0.33474 0.04623 0.0
O24 O 0.29732 0.22849 0.02837 0.0
O25 O 0.28037 0.23571 0.05392 0.0
O26 O 0.35798 0.2827 0.04844 0.0
O27 O 0.33275 0.3064 0.06619 0.0
C28 C 0.16342 0.26541 0.05536 0.0
C29 C 0.14771 0.23382 0.06587 0.0
H30 H 0.12738 0.17366 0.08637 0.0
H31 H 0.17093 0.15601 0.0989 0.0
H32 H 0.27143 0.35817 0.03155 0.0
H33 H 0.20343 0.32672 0.03558 0.0
H34 H 0.14559 0.27383 0.04922 0.0
H35 H 0.11803 0.21842 0.06766 0.0
Mn36 Mn 0.09208 0.3215 0.38043 0.0
Mn37 Mn 0.01247 0.29133 0.40222 0.0
C38 C 0.03681 0.27842 0.36842 0.0
C39 C 0.14334 0.31529 0.37434 0.0
C40 C 0.05333 0.36618 0.38498 0.0
O41 O 0.10942 0.33779 0.40468 0.0
O42 O 0.05459 0.31129 0.41836 0.0
C43 C 0.0106 0.22845 0.42043 0.0
N44 N 0.99441 0.24168 0.40968 0.0
C45 C 0.94111 0.18115 0.4063 0.0
C46 C 0.9571 0.16689 0.41743 0.0
C47 C 0.99203 0.19064 0.42449 0.0
C48 C 0.96086 0.21908 0.40278 0.0
H49 H 0.03749 0.24662 0.42584 0.0
C50 C 0.09002 0.32957 0.4182 0.0
O51 O 0.14409 0.34639 0.3717 0.0
O52 O 0.11337 0.28856 0.38084 0.0
N53 N 0.96941 0.27115 0.38811 0.0
C54 C 0.95864 0.28898 0.37701 0.0
C55 C 0.92466 0.26898 0.36854 0.0
C56 C 0.90201 0.23098 0.37165 0.0
C57 C 0.9135 0.21332 0.38327 0.0
C58 C 0.9475 0.23473 0.39144 0.0
H59 H 0.97591 0.31819 0.37457 0.0
O60 O 0.0655 0.29779 0.35891 0.0
O61 O 0.04157 0.28446 0.38465 0.0
O62 O 0.07857 0.36224 0.37782 0.0
O63 O 0.02858 0.34217 0.39476 0.0
C64 C 0.89286 0.17518 0.38683 0.0
C65 C 0.90669 0.1591 0.39832 0.0
H66 H 0.94296 0.13772 0.42053 0.0
H67 H 0.00463 0.17981 0.43303 0.0
H68 H 0.91599 0.28281 0.35959 0.0
H69 H 0.87597 0.21559 0.36499 0.0
H70 H 0.86657 0.15788 0.38063 0.0
H71 H 0.89081 0.12967 0.40078 0.0
Mn72 Mn 0.77269 0.09545 0.71595 0.0
Mn73 Mn 0.73228 0.01474 0.73736 0.0
C74 C 0.76461 0.0426 0.70279 0.0
C75 C 0.82734 0.15011 0.70995 0.0
C76 C 0.6901 0.04988 0.72229 0.0
O77 O 0.77334 0.1109 0.74053 0.0
O78 O 0.75409 0.05643 0.75372 0.0
C79 C 0.79871 0.01829 0.75264 0.0
N80 N 0.7678 0.00029 0.74286 0.0
C81 C 0.7789 0.94976 0.73802 0.0
C82 C 0.81074 0.96765 0.74813 0.0
C83 C 0.82073 0.00211 0.75542 0.0
C84 C 0.75804 0.96723 0.73571 0.0
H85 H 0.80648 0.0448 0.75824 0.0
C86 C 0.76696 0.09144 0.75393 0.0
O87 O 0.79541 0.14792 0.70782 0.0
O88 O 0.82721 0.12107 0.71576 0.0
N89 N 0.71006 0.97182 0.72314 0.0
C90 C 0.6793 0.95887 0.71323 0.0
C91 C 0.66586 0.92487 0.70484 0.0
C92 C 0.68392 0.90437 0.70684 0.0
C93 C 0.7153 0.91808 0.71723 0.0
C94 C 0.72724 0.95198 0.7254 0.0
H95 H 0.66511 0.97433 0.71173 0.0
O96 O 0.77106 0.07126 0.69384 0.0
O97 O 0.7643 0.04619 0.71915 0.0
O98 O 0.71695 0.0766 0.71443 0.0
O99 O 0.69369 0.02704 0.73179 0.0
C100 C 0.7355 0.89968 0.71961 0.0
C101 C 0.76735 0.91557 0.72996 0.0
H102 H 0.82785 0.95531 0.75027 0.0
H103 H 0.84536 0.01616 0.76317 0.0
H104 H 0.6416 0.91446 0.69685 0.0
H105 H 0.67352 0.87821 0.70031 0.0
H106 H 0.72707 0.87354 0.71336 0.0
H107 H 0.78293 0.90141 0.73151 0.0
Mn108 Mn 0.67864 0.77117 0.04714 0.0
Mn109 Mn 0.71059 0.72256 0.06833 0.0
C110 C 0.72139 0.75935 0.0345 0.0
C111 C 0.68403 0.82841 0.04134 0.0
C112 C 0.6348 0.6878 0.05195 0.0
O113 O 0.66338 0.77215 0.07159 0.0
O114 O 0.69123 0.74466 0.08483 0.0
C115 C 0.7742 0.78414 0.08589 0.0
N116 N 0.76057 0.75456 0.07522 0.0
C117 C 0.8211 0.76221 0.07107 0.0
C118 C 0.83576 0.79263 0.0821 0.0
C119 C 0.81221 0.80368 0.08951 0.0
C120 C 0.78298 0.74374 0.06799 0.0
H121 H 0.75618 0.79277 0.09156 0.0
C122 C 0.67252 0.76136 0.08496 0.0
O123 O 0.65296 0.79791 0.0389 0.0
O124 O 0.71122 0.82545 0.04745 0.0
N125 N 0.73028 0.69975 0.05387 0.0
C126 C 0.71201 0.67092 0.04292 0.0
C127 C 0.73172 0.65698 0.03416 0.0
C128 C 0.76991 0.67262 0.03683 0.0
C129 C 0.78804 0.70202 0.04829 0.0
C130 C 0.76689 0.71453 0.05677 0.0
H131 H 0.68265 0.65874 0.04084 0.0
O132 O 0.70141 0.76843 0.0253 0.0
O133 O 0.71619 0.75816 0.0508 0.0
O134 O 0.63814 0.71676 0.0448 0.0
O135 O 0.65943 0.68745 0.06143 0.0
C136 C 0.82636 0.7198 0.05141 0.0
C137 C 0.84289 0.74992 0.06276 0.0
H138 H 0.86509 0.80789 0.08486 0.0
H139 H 0.82335 0.82724 0.09797 0.0
H140 H 0.71753 0.6343 0.02533 0.0
H141 H 0.78506 0.66199 0.02994 0.0
H142 H 0.84346 0.71087 0.04495 0.0
H143 H 0.87245 0.76369 0.06488 0.0
Mn144 Mn 0.90216 0.67622 0.38302 0.0
Mn145 Mn 0.98043 0.71326 0.40628 0.0
C146 C 0.95656 0.72193 0.37143 0.0
C147 C 0.84847 0.67745 0.37621 0.0
C148 C 0.94653 0.6378 0.38941 0.0
O149 O 0.88388 0.65916 0.40705 0.0
O150 O 0.93699 0.69131 0.4217 0.0
C151 C 0.97525 0.77417 0.42278 0.0
N152 N 0.99427 0.76248 0.41297 0.0
C153 C 0.04504 0.82463 0.40984 0.0
C154 C 0.02611 0.83732 0.42001 0.0
C155 C 0.99102 0.81199 0.42646 0.0
C156 C 0.02796 0.78662 0.40663 0.0
H157 H 0.94824 0.75476 0.42772 0.0
C158 C 0.90189 0.66989 0.42094 0.0
O159 O 0.85061 0.6478 0.37367 0.0
O160 O 0.87706 0.70562 0.3828 0.0
N161 N 0.02481 0.73565 0.39304 0.0
C162 C 0.03875 0.71909 0.3829 0.0
C163 C 0.07341 0.74069 0.37519 0.0
C164 C 0.09353 0.77898 0.37811 0.0
C165 C 0.07883 0.79533 0.38875 0.0
C166 C 0.04429 0.77237 0.3962 0.0
H167 H 0.02352 0.68966 0.38066 0.0
O168 O 0.92891 0.70086 0.36169 0.0
O169 O 0.95113 0.71631 0.38766 0.0
O170 O 0.92059 0.63895 0.3813 0.0
O171 O 0.96869 0.66317 0.39953 0.0
C172 C 0.09683 0.8336 0.39204 0.0
C173 C 0.07989 0.84825 0.40254 0.0
H174 H 0.03811 0.86648 0.42283 0.0
H175 H 0.97617 0.8216 0.43425 0.0
H176 H 0.08458 0.72785 0.367 0.0
H177 H 0.12015 0.79557 0.37206 0.0
H178 H 0.12345 0.85207 0.38637 0.0
H179 H 0.09376 0.87777 0.40479 0.0
Mn180 Mn 0.22864 0.9074 0.71371 0.0
Mn181 Mn 0.27861 0.98441 0.73719 0.0
C182 C 0.24223 0.96413 0.70307 0.0
C183 C 0.171 0.85743 0.70675 0.0
C184 C 0.31199 0.94456 0.71859 0.0
O185 O 0.22621 0.88734 0.73746 0.0
O186 O 0.25598 0.94056 0.75239 0.0
C187 C 0.21764 0.98483 0.75613 0.0
N188 N 0.24721 0.00198 0.74551 0.0
C189 C 0.24014 0.05562 0.74353 0.0
C190 C 0.20977 0.03864 0.75455 0.0
C191 C 0.19844 0.00307 0.76085 0.0
C192 C 0.25832 0.03618 0.73935 0.0
H193 H 0.20875 0.95741 0.76093 0.0
C194 C 0.23787 0.90522 0.75134 0.0
O195 O 0.20113 0.85639 0.70389 0.0
O196 O 0.17454 0.88698 0.71387 0.0
N197 N 0.30194 0.02892 0.72406 0.0
C198 C 0.33062 0.04065 0.71292 0.0
C199 C 0.34471 0.07537 0.70513 0.0
C200 C 0.32934 0.09773 0.70893 0.0
C201 C 0.30013 0.08525 0.72058 0.0
C202 C 0.28747 0.05055 0.72807 0.0
H203 H 0.34251 0.02356 0.70993 0.0
O204 O 0.23284 0.93642 0.69289 0.0
O205 O 0.24282 0.9576 0.71916 0.0
O206 O 0.28269 0.92016 0.71117 0.0
O207 O 0.31306 0.96871 0.72887 0.0
C208 C 0.28263 0.10557 0.72481 0.0
C209 C 0.25263 0.09074 0.73626 0.0
H210 H 0.19475 0.05252 0.75815 0.0
H211 H 0.1749 0.98971 0.76929 0.0
H212 H 0.36724 0.0848 0.69614 0.0
H213 H 0.34002 0.12432 0.70275 0.0
H214 H 0.29169 0.13239 0.71914 0.0
H215 H 0.23908 0.10641 0.73923 0.0
Mn216 Mn 0.76569 0.67774 0.62083 0.0
Mn217 Mn 0.71689 0.70772 0.59843 0.0
C218 C 0.7544 0.72193 0.63222 0.0
C219 C 0.82293 0.68356 0.62696 0.0
C220 C 0.68228 0.6336 0.61639 0.0
O221 O 0.76616 0.66003 0.59682 0.0
O222 O 0.73866 0.68674 0.58262 0.0
C223 C 0.77814 0.76953 0.57982 0.0
N224 N 0.7488 0.75698 0.59058 0.0
C225 C 0.75678 0.81793 0.59342 0.0
C226 C 0.78695 0.83148 0.58227 0.0
C227 C 0.79771 0.80718 0.57547 0.0
C228 C 0.73825 0.78013 0.59723 0.0
H229 H 0.78656 0.75094 0.57462 0.0
C230 C 0.75527 0.66796 0.58313 0.0
O231 O 0.79245 0.65282 0.62997 0.0
O232 O 0.81994 0.71015 0.62013 0.0
N233 N 0.69444 0.72883 0.61223 0.0
C234 C 0.6659 0.71168 0.62342 0.0
C235 C 0.65233 0.73229 0.63167 0.0
C236 C 0.66805 0.77022 0.62824 0.0
C237 C 0.69714 0.78718 0.61655 0.0
C238 C 0.7093 0.76516 0.60861 0.0
H239 H 0.65369 0.68253 0.6261 0.0
O240 O 0.76349 0.70281 0.64202 0.0
O241 O 0.75281 0.71497 0.61607 0.0
O242 O 0.71131 0.63762 0.62375 0.0
O243 O 0.68185 0.65728 0.60628 0.0
C244 C 0.715 0.8252 0.6127 0.0
C245 C 0.74483 0.84057 0.60116 0.0
H246 H 0.80225 0.86053 0.57895 0.0
H247 H 0.82109 0.81746 0.56692 0.0
H248 H 0.62988 0.719 0.64068 0.0
H249 H 0.65772 0.78609 0.63474 0.0
H250 H 0.70635 0.84296 0.61872 0.0
H251 H 0.75867 0.86993 0.59847 0.0
Mn252 Mn 0.0957 0.77489 0.95365 0.0
Mn253 Mn 0.01915 0.73176 0.92922 0.0
C254 C 0.03951 0.76281 0.96443 0.0
C255 C 0.14726 0.83055 0.96174 0.0
C256 C 0.05464 0.69215 0.94636 0.0
O257 O 0.11625 0.77913 0.92987 0.0
O258 O 0.06365 0.7545 0.91444 0.0
C259 C 0.02352 0.79736 0.9126 0.0
N260 N 0.00448 0.76632 0.92219 0.0
C261 C 0.95264 0.7762 0.92466 0.0
C262 C 0.97157 0.80814 0.91469 0.0
C263 C 0.0072 0.8188 0.90867 0.0
C264 C 0.97025 0.75588 0.92811 0.0
H265 H 0.05097 0.8057 0.90801 0.0
C266 C 0.09886 0.7704 0.9158 0.0
O267 O 0.14657 0.79931 0.96381 0.0
O268 O 0.11848 0.82919 0.95484 0.0
N269 N 0.97388 0.70842 0.9418 0.0
C270 C 0.96 0.67775 0.95182 0.0
C271 C 0.92485 0.66383 0.95914 0.0
C272 C 0.90422 0.68138 0.95597 0.0
C273 C 0.91886 0.7126 0.94544 0.0
C274 C 0.9539 0.72502 0.93837 0.0
H275 H 0.97569 0.66409 0.95427 0.0
O276 O 0.06664 0.76969 0.97459 0.0
O277 O 0.04636 0.76403 0.94827 0.0
O278 O 0.07979 0.71962 0.9546 0.0
O279 O 0.03189 0.69434 0.93626 0.0
C280 C 0.90035 0.73227 0.94191 0.0
C281 C 0.91726 0.7641 0.93156 0.0
H282 H 0.95915 0.82485 0.91169 0.0
H283 H 0.02207 0.84353 0.90104 0.0
H284 H 0.91373 0.63971 0.96725 0.0
H285 H 0.87726 0.67076 0.96176 0.0
H286 H 0.87332 0.72346 0.94728 0.0
H287 H 0.90297 0.77927 0.92912 0.0
Mn288 Mn 0.31908 0.08898 0.28806 0.0
Mn289 Mn 0.28393 0.0087 0.26652 0.0
C290 C 0.27491 0.03501 0.30065 0.0
C291 C 0.31582 0.142 0.29388 0.0
C292 C 0.36042 0.04745 0.28248 0.0
O293 O 0.33497 0.10507 0.26363 0.0
O294 O 0.30285 0.05035 0.25015 0.0
C295 C 0.21995 0.00799 0.25001 0.0
N296 N 0.23372 0.99156 0.26031 0.0
C297 C 0.17304 0.93923 0.26488 0.0
C298 C 0.15823 0.95548 0.25424 0.0
C299 C 0.18178 0.99004 0.2468 0.0
C300 C 0.21131 0.95836 0.26756 0.0
H301 H 0.23798 0.03459 0.24431 0.0
C302 C 0.32357 0.08562 0.25012 0.0
O303 O 0.34627 0.14136 0.29641 0.0
O304 O 0.28808 0.1124 0.2877 0.0
N305 N 0.26441 0.96611 0.28093 0.0
C306 C 0.28285 0.9551 0.29154 0.0
C307 C 0.26315 0.92146 0.30032 0.0
C308 C 0.22479 0.89939 0.29801 0.0
C309 C 0.20647 0.91113 0.28691 0.0
C310 C 0.22759 0.94477 0.2784 0.0
H311 H 0.31234 0.97187 0.29334 0.0
O312 O 0.29561 0.06377 0.30988 0.0
O313 O 0.28017 0.03909 0.28436 0.0
O314 O 0.35792 0.07289 0.29031 0.0
O315 O 0.33534 0.02376 0.2727 0.0
C316 C 0.16798 0.89109 0.28418 0.0
C317 C 0.15127 0.90516 0.2732 0.0
H318 H 0.12878 0.94182 0.2518 0.0
H319 H 0.17053 0.00283 0.23863 0.0
H320 H 0.27749 0.9126 0.30887 0.0
H321 H 0.20966 0.87361 0.3049 0.0
H322 H 0.1509 0.8651 0.29066 0.0
H323 H 0.12159 0.88976 0.27139 0.0
Mn324 Mn 0.22194 0.31904 0.6203 0.0
Mn325 Mn 0.26339 0.28123 0.59771 0.0
C326 C 0.23222 0.27503 0.6327 0.0
C327 C 0.16689 0.3174 0.62732 0.0
C328 C 0.30462 0.35794 0.61336 0.0
O329 O 0.2193 0.33388 0.59599 0.0
O330 O 0.24114 0.3018 0.58193 0.0
C331 C 0.19706 0.21887 0.58211 0.0
N332 N 0.22813 0.23147 0.59174 0.0
C333 C 0.21739 0.16976 0.59581 0.0
C334 C 0.1854 0.15612 0.58583 0.0
C335 C 0.17515 0.18078 0.57899 0.0
C336 C 0.23815 0.20799 0.59845 0.0
H337 H 0.18907 0.23775 0.57687 0.0
C338 C 0.22678 0.32265 0.5823 0.0
O339 O 0.19854 0.34759 0.62919 0.0
O340 O 0.16751 0.28897 0.62119 0.0
N341 N 0.28618 0.26011 0.61127 0.0
C342 C 0.3171 0.2776 0.62109 0.0
C343 C 0.33077 0.25681 0.62908 0.0
C344 C 0.31276 0.21833 0.62675 0.0
C345 C 0.28128 0.201 0.61641 0.0
C346 C 0.26912 0.2232 0.60865 0.0
H347 H 0.33119 0.30718 0.62287 0.0
O348 O 0.22558 0.2966 0.64205 0.0
O349 O 0.2315 0.27911 0.61637 0.0
O350 O 0.27751 0.3571 0.6213 0.0
O351 O 0.30159 0.3319 0.60375 0.0
C352 C 0.26116 0.16251 0.6137 0.0
C353 C 0.22918 0.14689 0.60345 0.0
H354 H 0.16835 0.12675 0.58345 0.0
H355 H 0.1504 0.17044 0.57135 0.0
H356 H 0.35511 0.27039 0.63704 0.0
H357 H 0.32326 0.20236 0.63302 0.0
H358 H 0.26977 0.14462 0.61962 0.0
H359 H 0.21367 0.11721 0.60164 0.0
Mn360 Mn 0.90782 0.22959 0.95461 0.0
Mn361 Mn 0.98799 0.27447 0.93296 0.0
C362 C 0.96188 0.23931 0.9671 0.0
C363 C 0.85483 0.17342 0.96062 0.0
C364 C 0.94954 0.31247 0.94897 0.0
O365 O 0.89153 0.22915 0.93019 0.0
O366 O 0.9462 0.25176 0.91667 0.0
C367 C 0.98834 0.211 0.91645 0.0
N368 N 0.00493 0.24124 0.92671 0.0
C369 C 0.05724 0.23279 0.93114 0.0
C370 C 0.04081 0.20167 0.92054 0.0
C371 C 0.00618 0.19069 0.9132 0.0
C372 C 0.0382 0.25201 0.93388 0.0
H373 H 0.96168 0.20244 0.91081 0.0
C374 C 0.91093 0.23716 0.91667 0.0
O375 O 0.85554 0.20456 0.9631 0.0
O376 O 0.88431 0.17516 0.95436 0.0
N377 N 0.0307 0.29748 0.94729 0.0
C378 C 0.04189 0.327 0.95787 0.0
C379 C 0.07564 0.34094 0.96655 0.0
C380 C 0.09764 0.3246 0.96416 0.0
C381 C 0.08571 0.29445 0.9531 0.0
C382 C 0.05196 0.28193 0.9447 0.0
H383 H 0.02517 0.33976 0.95972 0.0
O384 O 0.93326 0.23146 0.9764 0.0
O385 O 0.95764 0.24041 0.95083 0.0
O386 O 0.92403 0.28458 0.9568 0.0
O387 O 0.97314 0.31095 0.93918 0.0
C388 C 0.10567 0.27594 0.95031 0.0
C389 C 0.09141 0.24509 0.93936 0.0
H390 H 0.0544 0.18582 0.91806 0.0
H391 H 0.99325 0.16659 0.90506 0.0
H392 H 0.08464 0.36421 0.97507 0.0
H393 H 0.12353 0.33529 0.97096 0.0
H394 H 0.13174 0.28486 0.95671 0.0
H395 H 0.10674 0.23075 0.93751 0.0
Mn396 Mn 0.67879 0.90445 0.28667 0.0
Mn397 Mn 0.71504 0.98274 0.26344 0.0
C398 C 0.7228 0.95946 0.29852 0.0
C399 C 0.68145 0.85174 0.29407 0.0
C400 C 0.6386 0.94678 0.27938 0.0
O401 O 0.66354 0.88594 0.26251 0.0
O402 O 0.69479 0.9394 0.24799 0.0
C403 C 0.77777 0.97954 0.24778 0.0
N404 N 0.76488 0.99786 0.25733 0.0
C405 C 0.82629 0.04955 0.26109 0.0
C406 C 0.84021 0.03135 0.25119 0.0
C407 C 0.81585 0.99615 0.24454 0.0
C408 C 0.78807 0.03166 0.26385 0.0
H409 H 0.75911 0.95244 0.24269 0.0
C410 C 0.67434 0.90415 0.24866 0.0
O411 O 0.65106 0.85282 0.29599 0.0
O412 O 0.70949 0.88077 0.28768 0.0
N413 N 0.73578 0.02701 0.27675 0.0
C414 C 0.71808 0.04014 0.28662 0.0
C415 C 0.73859 0.07478 0.29448 0.0
C416 C 0.777 0.09569 0.29201 0.0
C417 C 0.79455 0.08179 0.28165 0.0
C418 C 0.77262 0.04724 0.27402 0.0
H419 H 0.68855 0.02428 0.28852 0.0
O420 O 0.7017 0.93163 0.30817 0.0
O421 O 0.71812 0.9539 0.28226 0.0
O422 O 0.64016 0.92122 0.28762 0.0
O423 O 0.66422 0.96965 0.26956 0.0
C424 C 0.83301 0.1006 0.27881 0.0
C425 C 0.84888 0.08444 0.26858 0.0
H426 H 0.86958 0.044 0.24873 0.0
H427 H 0.82641 0.98185 0.23696 0.0
H428 H 0.72485 0.08533 0.30246 0.0
H429 H 0.79276 0.12228 0.2982 0.0
H430 H 0.85069 0.12725 0.28464 0.0
H431 H 0.87853 0.09893 0.26669 0.0
C432 C 0.58308 0.62995 0.06347 0.0
C433 C 0.6009 0.65219 0.04934 0.0
C434 C 0.55377 0.59408 0.06129 0.0
C435 C 0.52151 0.51545 0.03447 0.0
H436 H 0.43001 0.47897 0.05962 0.0
C437 C 0.40715 0.3594 0.038 0.0
C438 C 0.3898 0.34757 0.05387 0.0
C439 C 0.43213 0.397 0.0351 0.0
C440 C 0.45551 0.48863 0.0526 0.0
H441 H 0.60245 0.65497 0.02189 0.0
H442 H 0.55131 0.59106 0.01802 0.0
H443 H 0.4734 0.54521 0.05837 0.0
H444 H 0.38678 0.36503 0.07944 0.0
H445 H 0.43102 0.42983 0.07464 0.0
H446 H 0.5046 0.45867 0.0295 0.0
C447 C 0.55973 0.60189 0.03074 0.0
C448 C 0.4801 0.52655 0.05177 0.0
C449 C 0.58861 0.63831 0.03294 0.0
C450 C 0.39938 0.37346 0.06701 0.0
C451 C 0.42446 0.41068 0.06419 0.0
C452 C 0.49702 0.47729 0.03548 0.0
C453 C 0.54233 0.57948 0.04494 0.0
C454 C 0.51371 0.54021 0.04308 0.0
C455 C 0.44022 0.42315 0.04807 0.0
C456 C 0.46429 0.46346 0.04503 0.0
H457 H 0.59238 0.64011 0.07622 0.0
H458 H 0.54099 0.57719 0.07242 0.0
H459 H 0.54748 0.52546 0.0278 0.0
H460 H 0.4 0.33999 0.02762 0.0
H461 H 0.4439 0.40572 0.02255 0.0
C462 C 0.04861 0.41081 0.36547 0.0
C463 C 0.0517 0.4 0.38198 0.0
C464 C 0.04077 0.43943 0.36301 0.0
C465 C 0.04547 0.5202 0.38335 0.0
H466 H 0.95169 0.49316 0.36185 0.0
C467 C 0.97005 0.5972 0.39957 0.0
C468 C 0.9536 0.60696 0.38656 0.0
C469 C 0.98284 0.57274 0.39648 0.0
C470 C 0.97826 0.50141 0.3676 0.0
H471 H 0.05055 0.41089 0.40877 0.0
H472 H 0.03846 0.46178 0.40449 0.0
H473 H 0.97672 0.45118 0.36016 0.0
H474 H 0.93601 0.59746 0.36027 0.0
H475 H 0.95878 0.55441 0.35476 0.0
H476 H 0.04707 0.56996 0.39107 0.0
C477 C 0.04168 0.44811 0.39347 0.0
C478 C 0.99258 0.47746 0.3666 0.0
C479 C 0.04856 0.41908 0.39593 0.0
C480 C 0.94841 0.5902 0.37055 0.0
C481 C 0.96158 0.56574 0.3674 0.0
C482 C 0.03143 0.5442 0.38421 0.0
C483 C 0.03693 0.45803 0.37703 0.0
C484 C 0.02566 0.48617 0.37498 0.0
C485 C 0.97993 0.55768 0.38023 0.0
C486 C 0.99696 0.53444 0.37694 0.0
H487 H 0.05039 0.39596 0.35457 0.0
H488 H 0.03712 0.44664 0.35023 0.0
H489 H 0.07122 0.52764 0.38976 0.0
H490 H 0.97398 0.60931 0.41211 0.0
H491 H 0.99568 0.56615 0.40681 0.0
C492 C 0.36172 0.95133 0.69882 0.0
C493 C 0.34716 0.94586 0.71531 0.0
C494 C 0.39814 0.95913 0.69629 0.0
C495 C 0.4733 0.95117 0.71576 0.0
H496 H 0.5407 0.04755 0.69666 0.0
C497 C 0.62561 0.02412 0.73248 0.0
C498 C 0.65204 0.04265 0.71974 0.0
C499 C 0.58838 0.01158 0.72947 0.0
C500 C 0.52222 0.02028 0.70173 0.0
H501 H 0.35794 0.9427 0.74194 0.0
H502 H 0.42086 0.95472 0.73751 0.0
H503 H 0.47382 0.02288 0.69486 0.0
H504 H 0.66047 0.06403 0.69407 0.0
H505 H 0.59474 0.04169 0.68871 0.0
H506 H 0.52118 0.94846 0.72288 0.0
C507 C 0.40451 0.95336 0.72657 0.0
C508 C 0.484 0.00617 0.70066 0.0
C509 C 0.36863 0.94651 0.72911 0.0
C510 C 0.64066 0.05001 0.70415 0.0
C511 C 0.60307 0.0371 0.70107 0.0
C512 C 0.5113 0.96502 0.71667 0.0
C513 C 0.41988 0.96057 0.71021 0.0
C514 C 0.45936 0.97206 0.70819 0.0
C515 C 0.57646 0.01683 0.71358 0.0
C516 C 0.53625 0.00034 0.71027 0.0
H517 H 0.34566 0.9515 0.68805 0.0
H518 H 0.40954 0.96468 0.68358 0.0
H519 H 0.45477 0.92462 0.7215 0.0
H520 H 0.63363 0.01846 0.7447 0.0
H521 H 0.56879 0.99719 0.73959 0.0
C522 C 0.63301 0.58905 0.63599 0.0
C523 C 0.64673 0.59994 0.61945 0.0
C524 C 0.59663 0.5603 0.6385 0.0
C525 C 0.52114 0.47897 0.61844 0.0
H526 H 0.45342 0.50518 0.63957 0.0
C527 C 0.3684 0.39856 0.60279 0.0
C528 C 0.34237 0.38931 0.61585 0.0
C529 C 0.40559 0.42369 0.60564 0.0
C530 C 0.47201 0.49716 0.63393 0.0
H531 H 0.63444 0.58905 0.59268 0.0
H532 H 0.57162 0.53795 0.59705 0.0
H533 H 0.52026 0.54801 0.64113 0.0
H534 H 0.33449 0.40026 0.64194 0.0
H535 H 0.40017 0.44437 0.64705 0.0
H536 H 0.47346 0.42855 0.611 0.0
C537 C 0.58859 0.5517 0.60804 0.0
C538 C 0.51019 0.52161 0.63486 0.0
C539 C 0.6244 0.58086 0.60554 0.0
C540 C 0.35401 0.40714 0.63163 0.0
C541 C 0.39157 0.43222 0.63456 0.0
C542 C 0.4832 0.45447 0.61767 0.0
C543 C 0.57413 0.54165 0.6245 0.0
C544 C 0.53489 0.51316 0.62662 0.0
C545 C 0.41786 0.43988 0.6217 0.0
C546 C 0.45812 0.46388 0.62481 0.0
H547 H 0.64974 0.60386 0.64687 0.0
H548 H 0.58591 0.55297 0.6513 0.0
H549 H 0.53974 0.47178 0.61213 0.0
H550 H 0.36014 0.38559 0.59043 0.0
H551 H 0.42489 0.42991 0.59529 0.0
C552 C 0.95098 0.36201 0.96746 0.0
C553 C 0.95305 0.34904 0.95127 0.0
C554 C 0.95931 0.39872 0.96961 0.0
C555 C 0.96248 0.47642 0.94724 0.0
H556 H 0.04783 0.54163 0.97459 0.0
C557 C 0.03824 0.6306 0.93499 0.0
C558 C 0.04953 0.65493 0.94884 0.0
C559 C 0.02635 0.59331 0.9374 0.0
C560 C 0.02357 0.52372 0.96714 0.0
H561 H 0.96393 0.36327 0.92464 0.0
H562 H 0.97701 0.42668 0.92828 0.0
H563 H 0.02309 0.47458 0.97564 0.0
H564 H 0.05898 0.65994 0.97598 0.0
H565 H 0.03753 0.59399 0.98031 0.0
H566 H 0.96275 0.52493 0.93857 0.0
C567 C 0.96949 0.40884 0.93931 0.0
C568 C 0.00942 0.48542 0.96778 0.0
C569 C 0.96208 0.37267 0.93723 0.0
C570 C 0.05066 0.64168 0.96509 0.0
C571 C 0.03825 0.60398 0.96755 0.0
C572 C 0.97629 0.51443 0.94674 0.0
C573 C 0.96879 0.42238 0.95552 0.0
C574 C 0.97948 0.46167 0.95742 0.0
C575 C 0.02482 0.57923 0.95376 0.0
C576 C 0.00782 0.53866 0.95618 0.0
H577 H 0.94449 0.34431 0.97848 0.0
H578 H 0.95863 0.40869 0.98222 0.0
H579 H 0.93913 0.45855 0.93928 0.0
H580 H 0.03749 0.64024 0.9223 0.0
H581 H 0.01741 0.57528 0.92642 0.0
C582 C 0.40844 0.04582 0.30091 0.0
C583 C 0.39365 0.04426 0.28472 0.0
C584 C 0.43711 0.0379 0.30296 0.0
C585 C 0.51315 0.03765 0.28089 0.0
H586 H 0.49264 0.94997 0.30644 0.0
C587 C 0.59527 0.96569 0.26796 0.0
C588 C 0.60668 0.95232 0.28164 0.0
C589 C 0.56955 0.97718 0.27034 0.0
C590 C 0.49911 0.97489 0.29951 0.0
H591 H 0.39768 0.03469 0.25798 0.0
H592 H 0.44862 0.02241 0.26147 0.0
H593 H 0.44938 0.97351 0.30774 0.0
H594 H 0.59912 0.93898 0.30844 0.0
H595 H 0.55418 0.9598 0.31275 0.0
H596 H 0.56256 0.03937 0.27254 0.0
C597 C 0.43784 0.02917 0.27257 0.0
C598 C 0.47441 0.98833 0.30029 0.0
C599 C 0.40875 0.03613 0.27058 0.0
C600 C 0.5905 0.94894 0.29766 0.0
C601 C 0.56492 0.96097 0.30012 0.0
C602 C 0.53797 0.02459 0.28027 0.0
C603 C 0.45184 0.02937 0.28878 0.0
C604 C 0.48077 0.01915 0.29056 0.0
C605 C 0.55503 0.97624 0.28655 0.0
C606 C 0.53062 0.99228 0.28907 0.0
H607 H 0.39684 0.05161 0.312 0.0
H608 H 0.44758 0.03815 0.31557 0.0
H609 H 0.51872 0.06167 0.2734 0.0
H610 H 0.60703 0.96818 0.25543 0.0
H611 H 0.56161 0.98755 0.25948 0.0
C612 C 0.31742 0.08463 0.21852 0.0
C613 C 0.33379 0.10458 0.23346 0.0
C614 C 0.32549 0.10241 0.20283 0.0
C615 C 0.35764 0.19394 0.18402 0.0
H616 H 0.35602 0.1425 0.14276 0.0
C617 C 0.35961 0.2112 0.10594 0.0
C618 C 0.33449 0.22427 0.10481 0.0
C619 C 0.36768 0.20131 0.12167 0.0
C620 C 0.35725 0.15764 0.15413 0.0
H621 H 0.37249 0.15887 0.24348 0.0
H622 H 0.38696 0.18987 0.21596 0.0
H623 H 0.35689 0.11619 0.17019 0.0
H624 H 0.29869 0.23773 0.11946 0.0
H625 H 0.31208 0.21985 0.14658 0.0
H626 H 0.35808 0.23543 0.16796 0.0
C627 C 0.3674 0.16049 0.21648 0.0
C628 C 0.35724 0.14228 0.16988 0.0
C629 C 0.35917 0.14269 0.23225 0.0
C630 C 0.31827 0.22791 0.11979 0.0
C631 C 0.32622 0.21793 0.13543 0.0
C632 C 0.35792 0.20942 0.16827 0.0
C633 C 0.35032 0.1406 0.20161 0.0
C634 C 0.3562 0.15964 0.18501 0.0
C635 C 0.35076 0.20422 0.13657 0.0
C636 C 0.35648 0.19085 0.15315 0.0
H637 H 0.29762 0.05528 0.21892 0.0
H638 H 0.31123 0.08631 0.19172 0.0
H639 H 0.35672 0.20804 0.19539 0.0
H640 H 0.37277 0.20823 0.09467 0.0
H641 H 0.38699 0.19116 0.12214 0.0
C642 C 0.09122 0.34497 0.44886 0.0
C643 C 0.10901 0.3402 0.43477 0.0
C644 C 0.10717 0.35127 0.46495 0.0
C645 C 0.19373 0.37286 0.48813 0.0
H646 H 0.12469 0.3189 0.52438 0.0
C647 C 0.23333 0.3297 0.55075 0.0
C648 C 0.21749 0.33322 0.56589 0.0
C649 C 0.22297 0.33736 0.53511 0.0
C650 C 0.14428 0.33461 0.51445 0.0
H651 H 0.15804 0.3395 0.42633 0.0
H652 H 0.18536 0.34906 0.45455 0.0
H653 H 0.10137 0.31972 0.49624 0.0
H654 H 0.17901 0.34849 0.57648 0.0
H655 H 0.16046 0.3613 0.54902 0.0
H656 H 0.23665 0.38603 0.50639 0.0
C657 C 0.15949 0.3489 0.45315 0.0
C658 C 0.13095 0.33522 0.49829 0.0
C659 C 0.14378 0.34324 0.43697 0.0
C660 C 0.19173 0.3455 0.56506 0.0
C661 C 0.18101 0.35271 0.54936 0.0
C662 C 0.20707 0.37184 0.50428 0.0
C663 C 0.14098 0.35221 0.46741 0.0
C664 C 0.15548 0.35404 0.48486 0.0
C665 C 0.19623 0.34829 0.53424 0.0
C666 C 0.18244 0.35238 0.51754 0.0
H667 H 0.06462 0.34333 0.44748 0.0
H668 H 0.09259 0.35471 0.47551 0.0
H669 H 0.21341 0.38815 0.47818 0.0
H670 H 0.25343 0.32052 0.55095 0.0
H671 H 0.23488 0.33339 0.52364 0.0
C672 C 0.78736 0.14793 0.77213 0.0
C673 C 0.77566 0.11007 0.77068 0.0
C674 C 0.79673 0.16537 0.78798 0.0
C675 C 0.83962 0.1988 0.82058 0.0
H676 H 0.79035 0.14539 0.86156 0.0
C677 C 0.91227 0.23298 0.88503 0.0
C678 C 0.89198 0.2282 0.89999 0.0
C679 C 0.89462 0.22301 0.86932 0.0
C680 C 0.80409 0.16106 0.85027 0.0
H681 H 0.76426 0.06086 0.78488 0.0
H682 H 0.78128 0.09129 0.81223 0.0
H683 H 0.76386 0.11942 0.83399 0.0
H684 H 0.83714 0.21014 0.91002 0.0
H685 H 0.80632 0.1931 0.88246 0.0
H686 H 0.87981 0.24049 0.83687 0.0
C687 C 0.78246 0.10743 0.80124 0.0
C688 C 0.78915 0.14592 0.83444 0.0
C689 C 0.77298 0.09001 0.78547 0.0
C690 C 0.85361 0.21399 0.89878 0.0
C691 C 0.83592 0.20412 0.88298 0.0
C692 C 0.85442 0.21407 0.83641 0.0
C693 C 0.7947 0.14536 0.8027 0.0
C694 C 0.80738 0.16404 0.81941 0.0
C695 C 0.8562 0.20816 0.86809 0.0
C696 C 0.83748 0.19482 0.85144 0.0
H697 H 0.78954 0.16418 0.76102 0.0
H698 H 0.80572 0.19456 0.78869 0.0
H699 H 0.85448 0.21348 0.80928 0.0
H700 H 0.94184 0.24369 0.88542 0.0
H701 H 0.91106 0.22583 0.85819 0.0
C702 C 0.65913 0.74758 0.1158 0.0
C703 C 0.66217 0.76944 0.10168 0.0
C704 C 0.65242 0.75675 0.13193 0.0
C705 C 0.62574 0.818 0.15504 0.0
H706 H 0.68266 0.80758 0.19132 0.0
C707 C 0.66604 0.9022 0.21718 0.0
C708 C 0.66387 0.88368 0.23242 0.0
C709 C 0.65883 0.88379 0.20166 0.0
C710 C 0.66612 0.81011 0.18139 0.0
H711 H 0.65954 0.81746 0.09324 0.0
H712 H 0.64925 0.83442 0.12149 0.0
H713 H 0.68334 0.78393 0.16323 0.0
H714 H 0.65142 0.83099 0.24335 0.0
H715 H 0.63943 0.79897 0.21608 0.0
H716 H 0.61021 0.84602 0.17322 0.0
C717 C 0.65107 0.80959 0.1201 0.0
C718 C 0.66638 0.79646 0.16526 0.0
C719 C 0.65718 0.80002 0.1039 0.0
C720 C 0.6533 0.84602 0.23183 0.0
C721 C 0.64658 0.82773 0.21625 0.0
C722 C 0.62588 0.83209 0.17116 0.0
C723 C 0.64927 0.78843 0.13437 0.0
C724 C 0.64654 0.80058 0.15181 0.0
C725 C 0.64973 0.8466 0.20102 0.0
C726 C 0.64641 0.82862 0.18442 0.0
H727 H 0.66228 0.72349 0.11443 0.0
H728 H 0.65024 0.73925 0.14251 0.0
H729 H 0.6096 0.82109 0.14509 0.0
H730 H 0.67387 0.93116 0.21721 0.0
H731 H 0.66179 0.89908 0.1901 0.0
C732 C 0.74108 0.65127 0.55258 0.0
C733 C 0.76343 0.65632 0.56678 0.0
C734 C 0.75058 0.64387 0.53667 0.0
C735 C 0.81476 0.61977 0.51441 0.0
H736 H 0.80154 0.67321 0.47734 0.0
C737 C 0.89986 0.66171 0.45245 0.0
C738 C 0.8812 0.65843 0.43712 0.0
C739 C 0.8811 0.65386 0.46791 0.0
C740 C 0.80487 0.65762 0.48749 0.0
H741 H 0.81257 0.65636 0.57564 0.0
H742 H 0.83009 0.64492 0.54775 0.0
H743 H 0.77691 0.67369 0.50519 0.0
H744 H 0.82793 0.64317 0.42597 0.0
H745 H 0.79531 0.63002 0.45309 0.0
H746 H 0.84459 0.60552 0.49666 0.0
C747 C 0.80465 0.64568 0.54891 0.0
C748 C 0.79065 0.65775 0.50349 0.0
C749 C 0.79475 0.65244 0.56491 0.0
C750 C 0.8431 0.64597 0.43755 0.0
C751 C 0.82444 0.63857 0.45306 0.0
C752 C 0.82942 0.62006 0.49841 0.0
C753 C 0.78308 0.64207 0.53452 0.0
C754 C 0.79575 0.63919 0.51722 0.0
C755 C 0.84342 0.64298 0.46838 0.0
C756 C 0.82494 0.63934 0.48487 0.0
H757 H 0.71644 0.65354 0.55371 0.0
H758 H 0.73274 0.64025 0.526 0.0
H759 H 0.81868 0.60466 0.52459 0.0
H760 H 0.92916 0.67102 0.45255 0.0
H761 H 0.89646 0.6578 0.47955 0.0
C762 C 0.11495 0.75319 0.88825 0.0
C763 C 0.12032 0.78049 0.90005 0.0
C764 C 0.13292 0.76306 0.87256 0.0
C765 C 0.20432 0.84493 0.84781 0.0
H766 H 0.15 0.78326 0.80961 0.0
C767 C 0.25533 0.89326 0.77983 0.0
C768 C 0.22836 0.88435 0.76731 0.0
C769 C 0.24559 0.87603 0.79569 0.0
C770 C 0.16541 0.80119 0.82006 0.0
H771 H 0.14818 0.83917 0.90509 0.0
H772 H 0.17757 0.8569 0.87737 0.0
H773 H 0.12667 0.76367 0.83799 0.0
H774 H 0.17037 0.85055 0.76119 0.0
H775 H 0.15262 0.82235 0.78911 0.0
H776 H 0.24098 0.88419 0.82984 0.0
C777 C 0.16119 0.82774 0.88027 0.0
C778 C 0.15238 0.78947 0.83652 0.0
C779 C 0.14414 0.81773 0.89615 0.0
C780 C 0.19166 0.85748 0.77067 0.0
C781 C 0.18164 0.84114 0.7867 0.0
C782 C 0.21669 0.8572 0.83134 0.0
C783 C 0.15555 0.80057 0.86812 0.0
C784 C 0.17131 0.81144 0.85066 0.0
C785 C 0.20838 0.85054 0.79957 0.0
C786 C 0.19712 0.83579 0.81717 0.0
H787 H 0.09668 0.72423 0.89114 0.0
H788 H 0.12856 0.74119 0.86386 0.0
H789 H 0.22043 0.86228 0.85829 0.0
H790 H 0.28392 0.91379 0.77739 0.0
H791 H 0.26728 0.88329 0.80495 0.0
C792 C 0.20305 0.86794 0.98022 0.0
C793 C 0.17776 0.86624 0.96796 0.0
C794 C 0.22727 0.90164 0.98816 0.0
C795 C 0.22483 0.98294 0.00102 0.0
H796 H 0.33019 0.03107 0.00996 0.0
C797 C 0.33723 0.13454 0.02509 0.0
C798 C 0.3169 0.13664 0.03883 0.0
C799 C 0.32717 0.10018 0.0177 0.0
C800 C 0.30075 0.01776 0.00756 0.0
H801 H 0.1604 0.89885 0.95326 0.0
H802 H 0.20231 0.9571 0.96705 0.0
H803 H 0.30002 0.97373 0.99298 0.0
H804 H 0.27306 0.10456 0.05681 0.0
H805 H 0.25598 0.04502 0.04413 0.0
H806 H 0.22497 0.02627 0.01539 0.0
C807 C 0.20314 0.93252 0.97073 0.0
C808 C 0.28356 0.98504 0.99794 0.0
C809 C 0.17912 0.89912 0.96285 0.0
C810 C 0.28886 0.1038 0.04606 0.0
C811 C 0.27904 0.06971 0.03879 0.0
C812 C 0.24173 0.01501 0.01074 0.0
C813 C 0.22638 0.93388 0.98391 0.0
C814 C 0.24548 0.96769 0.99445 0.0
C815 C 0.29681 0.06768 0.02405 0.0
C816 C 0.27983 0.03287 0.01411 0.0
H817 H 0.20265 0.84301 0.98436 0.0
H818 H 0.24494 0.90204 0.99832 0.0
H819 H 0.19538 0.96994 0.99867 0.0
H820 H 0.35896 0.15949 0.01928 0.0
H821 H 0.3413 0.09935 0.00632 0.0
C822 C 0.17313 0.27655 0.37429 0.0
C823 C 0.17338 0.30868 0.36884 0.0
C824 C 0.19659 0.26585 0.36686 0.0
C825 C 0.27726 0.29188 0.33944 0.0
H826 H 0.21843 0.19034 0.32417 0.0
C827 C 0.28091 0.17564 0.29263 0.0
C828 C 0.31084 0.17314 0.29918 0.0
C829 C 0.27048 0.1994 0.29996 0.0
C830 C 0.23525 0.21881 0.32822 0.0
H831 H 0.20047 0.35644 0.3523 0.0
H832 H 0.24162 0.33739 0.33912 0.0
H833 H 0.18954 0.21805 0.34067 0.0
H834 H 0.35534 0.19581 0.31759 0.0
H835 H 0.33668 0.2374 0.33064 0.0
H836 H 0.32315 0.29209 0.32688 0.0
C837 C 0.22323 0.32065 0.34921 0.0
C838 C 0.21878 0.23455 0.33786 0.0
C839 C 0.19965 0.33148 0.35672 0.0
C840 C 0.33213 0.19721 0.31231 0.0
C841 C 0.32149 0.221 0.31975 0.0
C842 C 0.294 0.27583 0.32988 0.0
C843 C 0.22077 0.28694 0.35376 0.0
C844 C 0.23951 0.27116 0.34363 0.0
C845 C 0.28956 0.22102 0.31409 0.0
C846 C 0.27297 0.23917 0.32409 0.0
H847 H 0.15357 0.25867 0.38378 0.0
H848 H 0.19462 0.24008 0.37083 0.0
H849 H 0.29382 0.32018 0.34374 0.0
H850 H 0.2643 0.15782 0.28236 0.0
H851 H 0.2462 0.19941 0.29512 0.0
C852 C 0.86435 0.20521 0.69117 0.0
C853 C 0.86264 0.18248 0.70471 0.0
C854 C 0.89851 0.22974 0.68368 0.0
C855 C 0.98311 0.22932 0.67569 0.0
H856 H 0.02485 0.32965 0.65883 0.0
C857 C 0.13029 0.33703 0.64561 0.0
C858 C 0.13151 0.31361 0.63312 0.0
C859 C 0.09665 0.32804 0.65349 0.0
C860 C 0.01339 0.30165 0.66353 0.0
H861 H 0.89522 0.17045 0.72225 0.0
H862 H 0.95441 0.21329 0.70939 0.0
H863 H 0.96789 0.30227 0.67612 0.0
H864 H 0.09824 0.26478 0.61784 0.0
H865 H 0.04005 0.24933 0.63149 0.0
H866 H 0.02764 0.22802 0.66307 0.0
C867 C 0.92957 0.21174 0.7043 0.0
C868 C 0.9809 0.28603 0.67332 0.0
C869 C 0.89568 0.18724 0.71166 0.0
C870 C 0.09828 0.28305 0.62761 0.0
C871 C 0.06494 0.27419 0.63541 0.0
C872 C 0.01492 0.24459 0.6658 0.0
C873 C 0.93118 0.23182 0.68972 0.0
C874 C 0.96568 0.24974 0.67956 0.0
C875 C 0.06401 0.29562 0.6489 0.0
C876 C 0.03034 0.28077 0.65954 0.0
H877 H 0.83923 0.20202 0.68557 0.0
H878 H 0.89903 0.24491 0.67243 0.0
H879 H 0.97175 0.20112 0.68011 0.0
H880 H 0.15551 0.36079 0.65008 0.0
H881 H 0.09659 0.34495 0.6639 0.0
C882 C 0.66716 0.86829 0.02394 0.0
C883 C 0.69006 0.86496 0.03605 0.0
C884 C 0.67765 0.90273 0.01655 0.0
C885 C 0.76345 0.98495 0.00547 0.0
H886 H 0.70513 0.03072 0.99406 0.0
C887 C 0.79986 0.13484 0.97924 0.0
C888 C 0.82377 0.13739 0.96608 0.0
C889 C 0.77622 0.10055 0.98685 0.0
C890 C 0.7216 0.01813 0.9972 0.0
H891 H 0.73979 0.89541 0.05114 0.0
H892 H 0.75776 0.95511 0.03842 0.0
H893 H 0.67736 0.97341 0.01102 0.0
H894 H 0.83895 0.10588 0.94937 0.0
H895 H 0.79767 0.04645 0.96243 0.0
H896 H 0.80753 0.02895 0.99178 0.0
C897 C 0.7322 0.93119 0.03435 0.0
C898 C 0.70575 0.98541 0.00681 0.0
C899 C 0.72186 0.89699 0.04164 0.0
C900 C 0.82125 0.10485 0.95966 0.0
C901 C 0.79767 0.07081 0.96716 0.0
C902 C 0.779 0.01708 0.99578 0.0
C903 C 0.71111 0.93417 0.02122 0.0
C904 C 0.72674 0.96875 0.01113 0.0
C905 C 0.77622 0.06853 0.98132 0.0
C906 C 0.75834 0.03402 0.99149 0.0
H907 H 0.64245 0.84404 0.01941 0.0
H908 H 0.6609 0.90429 0.00644 0.0
H909 H 0.78017 0.97249 0.00838 0.0
H910 H 0.80127 0.15953 0.98443 0.0
H911 H 0.75995 0.09953 0.99776 0.0
C912 C 0.71704 0.81874 0.29482 0.0
C913 C 0.68584 0.8206 0.30002 0.0
C914 C 0.72608 0.79442 0.30264 0.0
C915 C 0.75454 0.77309 0.3332 0.0
H916 H 0.69792 0.66753 0.34169 0.0
C917 C 0.81158 0.70892 0.37806 0.0
C918 C 0.81661 0.68108 0.37077 0.0
C919 C 0.78729 0.71872 0.3708 0.0
C920 C 0.71386 0.69702 0.33941 0.0
H921 H 0.63787 0.79623 0.31651 0.0
H922 H 0.65399 0.75338 0.33037 0.0
H923 H 0.67063 0.69762 0.32472 0.0
H924 H 0.79781 0.63935 0.35107 0.0
H925 H 0.75534 0.65701 0.3381 0.0
H926 H 0.79767 0.77311 0.34767 0.0
C927 C 0.67126 0.77089 0.32018 0.0
C928 C 0.69827 0.71416 0.3298 0.0
C929 C 0.66212 0.79541 0.31228 0.0
C930 C 0.79443 0.66095 0.35693 0.0
C931 C 0.77012 0.67099 0.34954 0.0
C932 C 0.76977 0.75624 0.34291 0.0
C933 C 0.70416 0.77137 0.31586 0.0
C934 C 0.7188 0.75231 0.32646 0.0
C935 C 0.7677 0.70112 0.35599 0.0
C936 C 0.74975 0.71807 0.3461 0.0
H937 H 0.73558 0.83739 0.28523 0.0
H938 H 0.75133 0.79495 0.29894 0.0
H939 H 0.77082 0.8026 0.33094 0.0
H940 H 0.82789 0.72453 0.3889 0.0
H941 H 0.78544 0.74159 0.37621 0.0
C942 C 0.10254 0.82834 0.70669 0.0
C943 C 0.13425 0.82804 0.70101 0.0
C944 C 0.06825 0.80521 0.6993 0.0
C945 C 0.01332 0.72508 0.67159 0.0
H946 H 0.96906 0.78343 0.65772 0.0
C947 C 0.89148 0.72094 0.62605 0.0
C948 C 0.85956 0.69003 0.63237 0.0
C949 C 0.92588 0.73202 0.6333 0.0
C950 C 0.98114 0.76675 0.66138 0.0
H951 H 0.15452 0.80128 0.68404 0.0
H952 H 0.09413 0.76076 0.67091 0.0
H953 H 0.02614 0.81233 0.67387 0.0
H954 H 0.83893 0.64467 0.65032 0.0
H955 H 0.89952 0.66443 0.66321 0.0
H956 H 0.96766 0.67935 0.65895 0.0
C957 C 0.09599 0.77892 0.68115 0.0
C958 C 0.01363 0.78322 0.67082 0.0
C959 C 0.13052 0.80214 0.68863 0.0
C960 C 0.86312 0.66865 0.64522 0.0
C961 C 0.89775 0.6799 0.65257 0.0
C962 C 0.9803 0.70836 0.66222 0.0
C963 C 0.06487 0.78133 0.686 0.0
C964 C 0.03006 0.76265 0.67608 0.0
C965 C 0.92915 0.71259 0.64711 0.0
C966 C 0.9641 0.72922 0.65693 0.0
H967 H 0.1044 0.84758 0.7164 0.0
H968 H 0.04457 0.80712 0.70352 0.0
H969 H 0.02547 0.70864 0.6755 0.0
H970 H 0.8897 0.73766 0.61599 0.0
H971 H 0.94975 0.75689 0.62861 0.0
C972 C 0.01283 0.26118 0.98821 0.0
C973 C 0.9934 0.23822 0.97454 0.0
C974 C 0.04287 0.25981 0.99519 0.0
C975 C 0.08476 0.20051 0.99865 0.0
H976 H 0.1747 0.29299 0.00772 0.0
C977 C 0.20785 0.20818 0.03519 0.0
C978 C 0.24346 0.23451 0.02989 0.0
C979 C 0.177 0.20735 0.02793 0.0
C980 C 0.14988 0.26694 0.00514 0.0
H981 H 0.9871 0.19352 0.9584 0.0
H982 H 0.03981 0.19122 0.97043 0.0
H983 H 0.12067 0.2939 0.99665 0.0
H984 H 0.27536 0.27833 0.012 0.0
H985 H 0.2213 0.27718 -0.0008 0.0
H986 H 0.11411 0.17354 0.00687 0.0
C987 C 0.03245 0.21067 0.97564 0.0
C988 C 0.11881 0.26747 0.999 0.0
C989 C 0.00266 0.21227 0.96862 0.0
C990 C 0.24798 0.25852 0.01653 0.0
C991 C 0.21714 0.2579 0.0093 0.0
C992 C 0.11579 0.19998 0.00483 0.0
C993 C 0.05322 0.23481 0.98884 0.0
C994 C 0.08594 0.23425 0.99569 0.0
C995 C 0.18134 0.23264 0.01511 0.0
C996 C 0.14867 0.23319 0.00815 0.0
H997 H 0.0053 0.28069 0.9932 0.0
H998 H 0.05794 0.27825 0.00557 0.0
H999 H 0.05972 0.17446 0.99633 0.0
H1000 H 0.20393 0.18862 0.04513 0.0
H1001 H 0.14985 0.18766 0.03273 0.0
C1002 C 0.79038 0.00152 0.3007 0.0
C1003 C 0.75461 0.99195 0.30588 0.0
C1004 C 0.82097 0.03204 0.30783 0.0
C1005 C 0.84771 0.11921 0.33009 0.0
H1006 H 0.93668 0.11581 0.34059 0.0
C1007 C 0.98572 0.24958 0.34736 0.0
C1008 C 0.00447 0.24605 0.36132 0.0
C1009 C 0.9552 0.21834 0.34054 0.0
C1010 C 0.91197 0.11712 0.33781 0.0
H1011 H 0.72221 0.00414 0.32336 0.0
H1012 H 0.77585 0.05802 0.33587 0.0
H1013 H 0.88261 0.06076 0.32966 0.0
H1014 H 0.00886 0.20763 0.37825 0.0
H1015 H 0.95534 0.15292 0.3665 0.0
H1016 H 0.87698 0.17548 0.33851 0.0
C1017 C 0.78029 0.04265 0.32598 0.0
C1018 C 0.88113 0.08572 0.3314 0.0
C1019 C 0.7497 0.0119 0.31891 0.0
C1020 C 0.99386 0.21089 0.36779 0.0
C1021 C 0.96361 0.17966 0.36093 0.0
C1022 C 0.87861 0.15068 0.33648 0.0
C1023 C 0.81622 0.05324 0.32038 0.0
C1024 C 0.8487 0.08643 0.32746 0.0
C1025 C 0.9437 0.18309 0.34736 0.0
C1026 C 0.91104 0.14993 0.3404 0.0
H1027 H 0.79463 0.98558 0.29103 0.0
H1028 H 0.84826 0.03956 0.3032 0.0
H1029 H 0.8232 0.12068 0.32703 0.0
H1030 H 0.99426 0.27653 0.34195 0.0
H1031 H 0.94078 0.22171 0.32988 0.0
C1032 C 0.78022 0.78967 0.63207 0.0
C1033 C 0.75517 0.755 0.63886 0.0
C1034 C 0.78202 0.82158 0.63855 0.0
C1035 C 0.79454 0.88542 0.6613 0.0
H1036 H 0.70332 0.88458 0.67153 0.0
C1037 C 0.79057 0.00111 0.69932 0.0
C1038 C 0.76441 0.01107 0.6946 0.0
C1039 C 0.79062 0.97111 0.69158 0.0
C1040 C 0.72902 0.88534 0.66862 0.0
H1041 H 0.71437 0.72608 0.6584 0.0
H1042 H 0.71711 0.78208 0.66978 0.0
H1043 H 0.70092 0.82906 0.66022 0.0
H1044 H 0.7201 0.00042 0.67722 0.0
H1045 H 0.71984 0.94752 0.66361 0.0
H1046 H 0.82268 0.94175 0.66954 0.0
C1047 C 0.73468 0.78454 0.65917 0.0
C1048 C 0.72763 0.85343 0.66232 0.0
C1049 C 0.73315 0.75263 0.65275 0.0
C1050 C 0.73978 0.9923 0.68132 0.0
C1051 C 0.73962 0.9621 0.67362 0.0
C1052 C 0.79594 0.91727 0.66766 0.0
C1053 C 0.75898 0.8193 0.65205 0.0
C1054 C 0.76039 0.85314 0.65866 0.0
C1055 C 0.76469 0.95086 0.67885 0.0
C1056 C 0.7632 0.91752 0.67146 0.0
H1057 H 0.79827 0.79203 0.62167 0.0
H1058 H 0.80092 0.84795 0.63278 0.0
H1059 H 0.82025 0.88591 0.65868 0.0
H1060 H 0.8106 0.0162 0.70919 0.0
H1061 H 0.81019 0.96309 0.69595 0.0
C1062 C 0.74901 0.7368 0.01294 0.0
C1063 C 0.75336 0.75933 0.02693 0.0
C1064 C 0.77985 0.73741 0.00569 0.0
C1065 C 0.88105 0.79499 0.00194 0.0
H1066 H 0.87662 0.70215 0.99138 0.0
C1067 C 0.99685 0.78779 0.96552 0.0
C1068 C 0.00639 0.76184 0.97115 0.0
C1069 C 0.96596 0.78786 0.9722 0.0
C1070 C 0.87831 0.72827 0.99436 0.0
H1071 H 0.79275 0.80249 0.04342 0.0
H1072 H 0.84675 0.80347 0.03092 0.0
H1073 H 0.82225 0.70176 0.00305 0.0
H1074 H 0.9936 0.71762 0.98895 0.0
H1075 H 0.93911 0.71739 0.00069 0.0
H1076 H 0.93726 0.8215 0.99359 0.0
C1077 C 0.81971 0.78491 0.02566 0.0
C1078 C 0.84709 0.72806 0.00085 0.0
C1079 C 0.78888 0.78404 0.03295 0.0
C1080 C 0.9859 0.73715 0.98415 0.0
C1081 C 0.95479 0.73698 0.99077 0.0
C1082 C 0.91221 0.7952 0.99543 0.0
C1083 C 0.81548 0.76128 0.01208 0.0
C1084 C 0.8482 0.76143 0.00476 0.0
C1085 C 0.94437 0.76219 0.98477 0.0
C1086 C 0.9112 0.76185 0.99162 0.0
H1087 H 0.72176 0.71827 0.00787 0.0
H1088 H 0.77585 0.71939 0.99503 0.0
H1089 H 0.88263 0.82116 0.00469 0.0
H1090 H 0.0132 0.80789 0.95588 0.0
H1091 H 0.95859 0.80753 0.96729 0.0
C1092 C 0.99838 0.78968 0.36967 0.0
C1093 C 0.9889 0.75411 0.36422 0.0
C1094 C 0.02883 0.82055 0.36267 0.0
C1095 C 0.08283 0.88171 0.33953 0.0
H1096 H 0.17177 0.87671 0.33124 0.0
C1097 C 0.20717 0.99379 0.30238 0.0
C1098 C 0.24255 0.00342 0.30819 0.0
C1099 C 0.17602 0.9641 0.30962 0.0
C1100 C 0.14723 0.87861 0.33362 0.0
H1101 H 0.00107 0.72238 0.34632 0.0
H1102 H 0.0547 0.77645 0.33398 0.0
H1103 H 0.1171 0.82298 0.34274 0.0
H1104 H 0.27365 0.99224 0.32686 0.0
H1105 H 0.21899 0.93979 0.33959 0.0
H1106 H 0.11312 0.93751 0.33064 0.0
C1107 C 0.03941 0.78055 0.34403 0.0
C1108 C 0.1158 0.84772 0.34002 0.0
C1109 C 0.00878 0.7497 0.351 0.0
C1110 C 0.24648 0.98441 0.32194 0.0
C1111 C 0.21531 0.95448 0.32914 0.0
C1112 C 0.11423 0.91257 0.33312 0.0
C1113 C 0.05001 0.81628 0.34995 0.0
C1114 C 0.08327 0.84895 0.34302 0.0
C1115 C 0.17978 0.94382 0.32292 0.0
C1116 C 0.14674 0.91133 0.33008 0.0
H1117 H 0.98244 0.79354 0.37949 0.0
H1118 H 0.03632 0.84767 0.36753 0.0
H1119 H 0.05807 0.8834 0.34157 0.0
H1120 H 0.20367 0.00904 0.29211 0.0
H1121 H 0.14906 0.95648 0.3045 0.0
C1122 C 0.21825 0.00761 0.70364 0.0
C1123 C 0.24273 0.99733 0.69677 0.0
C1124 C 0.21718 0.03819 0.69726 0.0
C1125 C 0.20484 0.08921 0.6743 0.0
H1126 H 0.29596 0.1789 0.66313 0.0
C1127 C 0.20766 0.2077 0.63578 0.0
C1128 C 0.2335 0.24392 0.64052 0.0
C1129 C 0.20824 0.17785 0.64339 0.0
C1130 C 0.2703 0.15414 0.66631 0.0
H1131 H 0.28344 0.00871 0.67724 0.0
H1132 H 0.2819 0.0627 0.66599 0.0
H1133 H 0.29845 0.12618 0.675 0.0
H1134 H 0.27804 0.2779 0.65774 0.0
H1135 H 0.27943 0.22561 0.6711 0.0
H1136 H 0.17667 0.11719 0.66583 0.0
C1137 C 0.26426 0.04779 0.67662 0.0
C1138 C 0.27173 0.12386 0.67292 0.0
C1139 C 0.26508 0.01697 0.68296 0.0
C1140 C 0.25859 0.25004 0.65362 0.0
C1141 C 0.25941 0.22021 0.66118 0.0
C1142 C 0.20341 0.11942 0.66766 0.0
C1143 C 0.24033 0.05872 0.68374 0.0
C1144 C 0.23899 0.09105 0.67693 0.0
C1145 C 0.23448 0.18381 0.656 0.0
C1146 C 0.23611 0.15215 0.66352 0.0
H1147 H 0.19992 0.99195 0.71396 0.0
H1148 H 0.19857 0.04602 0.70304 0.0
H1149 H 0.17914 0.06417 0.67714 0.0
H1150 H 0.18726 0.20253 0.62607 0.0
H1151 H 0.18877 0.15018 0.63908 0.0
loop_
_geom_bond_atom_site_label_1
_geom_bond_atom_site_label_2
_geom_bond_distance
_geom_bond_site_symmetry_2
_ccdc_geom_bond_type
Mn0 O5 2.095 . S
Mn0 O15 2.162 . S
Mn0 O16 2.297 . S
Mn0 O24 2.385 . S
Mn0 O25 2.209 . S
Mn0 O26 2.094 . S
Mn1 O6 2.121 . S
Mn1 N8 2.257 . S
Mn1 N17 2.282 . S
Mn1 O25 2.215 . S
Mn1 O27 2.117 . S
C2 O24 1.234 . S
C2 O25 1.283 . S
C3 O15 1.281 . S
C3 O16 1.236 . S
C4 O26 1.240 . S
C4 O27 1.264 . S
O5 Mn0 2.095 . S
O5 C14 1.250 . S
O6 Mn1 2.121 . S
O6 C14 1.258 . S
C7 N8 1.326 . S
C7 C11 1.460 . S
C7 H13 0.929 . S
N8 Mn1 2.257 . S
N8 C7 1.326 . S
N8 C12 1.362 . S
C9 C10 1.258 . S
C9 C12 1.431 . S
C9 C29 1.449 . S
C10 C9 1.258 . S
C10 C11 1.477 . S
C10 H30 0.931 . S
C11 C7 1.460 . S
C11 C10 1.477 . S
C11 H31 0.930 . S
C12 N8 1.362 . S
C12 C9 1.431 . S
C12 C22 1.476 . S
H13 C7 0.929 . S
C14 O5 1.250 . S
C14 O6 1.258 . S
O15 Mn0 2.162 . S
O15 C3 1.281 . S
O16 Mn0 2.297 . S
O16 C3 1.236 . S
N17 Mn1 2.282 . S
N17 C18 1.328 . S
N17 C22 1.318 . S
C18 N17 1.328 . S
C18 C19 1.457 . S
C18 H23 0.929 . S
C19 C18 1.457 . S
C19 C20 1.291 . S
C19 H32 0.931 . S
C20 C19 1.291 . S
C20 C21 1.373 . S
C20 H33 0.929 . S
C21 C20 1.373 . S
C21 C22 1.396 . S
C21 C28 1.403 . S
C22 C12 1.476 . S
C22 N17 1.318 . S
C22 C21 1.396 . S
H23 C18 0.929 . S
O24 Mn0 2.385 . S
O24 C2 1.234 . S
O25 Mn0 2.209 . S
O25 Mn1 2.215 . S
O25 C2 1.283 . S
O26 Mn0 2.094 . S
O26 C4 1.240 . S
O27 Mn1 2.117 . S
O27 C4 1.264 . S
C28 C21 1.403 . S
C28 C29 1.399 . S
C28 H34 0.929 . S
C29 C9 1.449 . S
C29 C28 1.399 . S
C29 H35 0.930 . S
H30 C10 0.931 . S
H31 C11 0.930 . S
H32 C19 0.931 . S
H33 C20 0.929 . S
H34 C28 0.929 . S
H35 C29 0.930 . S
Mn36 O41 2.095 . S
Mn36 O51 2.162 . S
Mn36 O52 2.297 . S
Mn36 O60 2.385 . S
Mn36 O61 2.209 . S
Mn36 O62 2.094 . S
Mn37 O42 2.121 . S
Mn37 N44 2.257 1_455 S
Mn37 N53 2.282 1_455 S
Mn37 O61 2.215 . S
Mn37 O63 2.117 . S
C38 O60 1.234 . S
C38 O61 1.283 . S
C39 O51 1.281 . S
C39 O52 1.236 . S
C40 O62 1.240 . S
C40 O63 1.264 . S
O41 Mn36 2.095 . S
O41 C50 1.250 . S
O42 Mn37 2.121 . S
O42 C50 1.258 . S
C43 N44 1.326 . S
C43 C47 1.460 . S
C43 H49 0.929 1_655 S
N44 Mn37 2.257 1_655 S
N44 C43 1.326 . S
N44 C48 1.362 . S
C45 C46 1.258 . S
C45 C48 1.431 . S
C45 C65 1.449 . S
C46 C45 1.258 . S
C46 C47 1.477 . S
C46 H66 0.931 . S
C47 C43 1.460 . S
C47 C46 1.477 . S
C47 H67 0.930 . S
C48 N44 1.362 . S
C48 C45 1.431 . S
C48 C58 1.476 . S
H49 C43 0.929 1_455 S
C50 O41 1.250 . S
C50 O42 1.258 . S
O51 Mn36 2.162 . S
O51 C39 1.281 . S
O52 Mn36 2.297 . S
O52 C39 1.236 . S
N53 Mn37 2.282 1_655 S
N53 C54 1.328 . S
N53 C58 1.318 . S
C54 N53 1.328 . S
C54 C55 1.457 . S
C54 H59 0.929 . S
C55 C54 1.457 . S
C55 C56 1.291 . S
C55 H68 0.931 . S
C56 C55 1.291 . S
C56 C57 1.373 . S
C56 H69 0.929 . S
C57 C56 1.373 . S
C57 C58 1.396 . S
C57 C64 1.403 . S
C58 C48 1.476 . S
C58 N53 1.318 . S
C58 C57 1.396 . S
H59 C54 0.929 . S
O60 Mn36 2.385 . S
O60 C38 1.234 . S
O61 Mn36 2.209 . S
O61 Mn37 2.215 . S
O61 C38 1.283 . S
O62 Mn36 2.094 . S
O62 C40 1.240 . S
O63 Mn37 2.117 . S
O63 C40 1.264 . S
C64 C57 1.403 . S
C64 C65 1.399 . S
C64 H70 0.929 . S
C65 C45 1.449 . S
C65 C64 1.399 . S
C65 H71 0.930 . S
H66 C46 0.931 . S
H67 C47 0.930 . S
H68 C55 0.931 . S
H69 C56 0.929 . S
H70 C64 0.929 . S
H71 C65 0.930 . S
Mn72 O77 2.095 . S
Mn72 O87 2.162 . S
Mn72 O88 2.297 . S
Mn72 O96 2.385 . S
Mn72 O97 2.209 . S
Mn72 O98 2.094 . S
Mn73 O78 2.121 . S
Mn73 N80 2.257 1_545 S
Mn73 N89 2.282 1_545 S
Mn73 O97 2.215 . S
Mn73 O99 2.117 . S
C74 O96 1.234 . S
C74 O97 1.283 . S
C75 O87 1.281 . S
C75 O88 1.236 . S
C76 O98 1.240 . S
C76 O99 1.264 . S
O77 Mn72 2.095 . S
O77 C86 1.250 . S
O78 Mn73 2.121 . S
O78 C86 1.258 . S
C79 N80 1.326 . S
C79 C83 1.460 . S
C79 H85 0.929 1_565 S
N80 Mn73 2.257 1_565 S
N80 C79 1.326 . S
N80 C84 1.362 . S
C81 C82 1.258 . S
C81 C84 1.431 . S
C81 C101 1.449 . S
C82 C81 1.258 . S
C82 C83 1.477 . S
C82 H102 0.931 . S
C83 C79 1.460 . S
C83 C82 1.477 . S
C83 H103 0.930 . S
C84 N80 1.362 . S
C84 C81 1.431 . S
C84 C94 1.476 . S
H85 C79 0.929 1_545 S
C86 O77 1.250 . S
C86 O78 1.258 . S
O87 Mn72 2.162 . S
O87 C75 1.281 . S
O88 Mn72 2.297 . S
O88 C75 1.236 . S
N89 Mn73 2.282 1_565 S
N89 C90 1.328 . S
N89 C94 1.318 . S
C90 N89 1.328 . S
C90 C91 1.457 . S
C90 H95 0.929 . S
C91 C90 1.457 . S
C91 C92 1.291 . S
C91 H104 0.931 . S
C92 C91 1.291 . S
C92 C93 1.373 . S
C92 H105 0.929 . S
C93 C92 1.373 . S
C93 C94 1.396 . S
C93 C100 1.403 . S
C94 C84 1.476 . S
C94 N89 1.318 . S
C94 C93 1.396 . S
H95 C90 0.929 . S
O96 Mn72 2.385 . S
O96 C74 1.234 . S
O97 Mn72 2.209 . S
O97 Mn73 2.215 . S
O97 C74 1.283 . S
O98 Mn72 2.094 . S
O98 C76 1.240 . S
O99 Mn73 2.117 . S
O99 C76 1.264 . S
C100 C93 1.403 . S
C100 C101 1.399 . S
C100 H106 0.929 . S
C101 C81 1.449 . S
C101 C100 1.399 . S
C101 H107 0.930 . S
H102 C82 0.931 . S
H103 C83 0.930 . S
H104 C91 0.931 . S
H105 C92 0.929 . S
H106 C100 0.929 . S
H107 C101 0.930 . S
Mn108 O113 2.095 . S
Mn108 O123 2.162 . S
Mn108 O124 2.297 . S
Mn108 O132 2.385 . S
Mn108 O133 2.209 . S
Mn108 O134 2.094 . S
Mn109 O114 2.121 . S
Mn109 N116 2.257 . S
Mn109 N125 2.282 . S
Mn109 O133 2.215 . S
Mn109 O135 2.117 . S
C110 O132 1.234 . S
C110 O133 1.283 . S
C111 O123 1.281 . S
C111 O124 1.236 . S
C112 O134 1.240 . S
C112 O135 1.264 . S
O113 Mn108 2.095 . S
O113 C122 1.250 . S
O114 Mn109 2.121 . S
O114 C122 1.258 . S
C115 N116 1.326 . S
C115 C119 1.460 . S
C115 H121 0.929 . S
N116 Mn109 2.257 . S
N116 C115 1.326 . S
N116 C120 1.362 . S
C117 C118 1.258 . S
C117 C120 1.431 . S
C117 C137 1.449 . S
C118 C117 1.258 . S
C118 C119 1.477 . S
C118 H138 0.931 . S
C119 C115 1.460 . S
C119 C118 1.477 . S
C119 H139 0.930 . S
C120 N116 1.362 . S
C120 C117 1.431 . S
C120 C130 1.476 . S
H121 C115 0.929 . S
C122 O113 1.250 . S
C122 O114 1.258 . S
O123 Mn108 2.162 . S
O123 C111 1.281 . S
O124 Mn108 2.297 . S
O124 C111 1.236 . S
N125 Mn109 2.282 . S
N125 C126 1.328 . S
N125 C130 1.318 . S
C126 N125 1.328 . S
C126 C127 1.457 . S
C126 H131 0.929 . S
C127 C126 1.457 . S
C127 C128 1.291 . S
C127 H140 0.931 . S
C128 C127 1.291 . S
C128 C129 1.373 . S
C128 H141 0.929 . S
C129 C128 1.373 . S
C129 C130 1.396 . S
C129 C136 1.403 . S
C130 C120 1.476 . S
C130 N125 1.318 . S
C130 C129 1.396 . S
H131 C126 0.929 . S
O132 Mn108 2.385 . S
O132 C110 1.234 . S
O133 Mn108 2.209 . S
O133 Mn109 2.215 . S
O133 C110 1.283 . S
O134 Mn108 2.094 . S
O134 C112 1.240 . S
O135 Mn109 2.117 . S
O135 C112 1.264 . S
C136 C129 1.403 . S
C136 C137 1.399 . S
C136 H142 0.929 . S
C137 C117 1.449 . S
C137 C136 1.399 . S
C137 H143 0.930 . S
H138 C118 0.931 . S
H139 C119 0.930 . S
H140 C127 0.931 . S
H141 C128 0.929 . S
H142 C136 0.929 . S
H143 C137 0.930 . S
Mn144 O149 2.095 . S
Mn144 O159 2.162 . S
Mn144 O160 2.297 . S
Mn144 O168 2.385 . S
Mn144 O169 2.209 . S
Mn144 O170 2.094 . S
Mn145 O150 2.121 . S
Mn145 N152 2.257 1_655 S
Mn145 N161 2.282 1_655 S
Mn145 O169 2.215 . S
Mn145 O171 2.117 . S
C146 O168 1.234 . S
C146 O169 1.283 . S
C147 O159 1.281 . S
C147 O160 1.236 . S
C148 O170 1.240 . S
C148 O171 1.264 . S
O149 Mn144 2.095 . S
O149 C158 1.250 . S
O150 Mn145 2.121 . S
O150 C158 1.258 . S
C151 N152 1.326 . S
C151 C155 1.460 . S
C151 H157 0.929 1_455 S
N152 Mn145 2.257 1_455 S
N152 C151 1.326 . S
N152 C156 1.362 . S
C153 C154 1.258 . S
C153 C156 1.431 . S
C153 C173 1.449 . S
C154 C153 1.258 . S
C154 C155 1.477 . S
C154 H174 0.931 . S
C155 C151 1.460 . S
C155 C154 1.477 . S
C155 H175 0.930 . S
C156 N152 1.362 . S
C156 C153 1.431 . S
C156 C166 1.476 . S
H157 C151 0.929 1_655 S
C158 O149 1.250 . S
C158 O150 1.258 . S
O159 Mn144 2.162 . S
O159 C147 1.281 . S
O160 Mn144 2.297 . S
O160 C147 1.236 . S
N161 Mn145 2.282 1_455 S
N161 C162 1.328 . S
N161 C166 1.318 . S
C162 N161 1.328 . S
C162 C163 1.457 . S
C162 H167 0.929 . S
C163 C162 1.457 . S
C163 C164 1.291 . S
C163 H176 0.931 . S
C164 C163 1.291 . S
C164 C165 1.373 . S
C164 H177 0.929 . S
C165 C164 1.373 . S
C165 C166 1.396 . S
C165 C172 1.403 . S
C166 C156 1.476 . S
C166 N161 1.318 . S
C166 C165 1.396 . S
H167 C162 0.929 . S
O168 Mn144 2.385 . S
O168 C146 1.234 . S
O169 Mn144 2.209 . S
O169 Mn145 2.215 . S
O169 C146 1.283 . S
O170 Mn144 2.094 . S
O170 C148 1.240 . S
O171 Mn145 2.117 . S
O171 C148 1.264 . S
C172 C165 1.403 . S
C172 C173 1.399 . S
C172 H178 0.929 . S
C173 C153 1.449 . S
C173 C172 1.399 . S
C173 H179 0.930 . S
H174 C154 0.931 . S
H175 C155 0.930 . S
H176 C163 0.931 . S
H177 C164 0.929 . S
H178 C172 0.929 . S
H179 C173 0.930 . S
Mn180 O185 2.095 . S
Mn180 O195 2.162 . S
Mn180 O196 2.297 . S
Mn180 O204 2.385 . S
Mn180 O205 2.209 . S
Mn180 O206 2.094 . S
Mn181 O186 2.121 . S
Mn181 N188 2.257 1_565 S
Mn181 N197 2.282 1_565 S
Mn181 O205 2.215 . S
Mn181 O207 2.117 . S
C182 O204 1.234 . S
C182 O205 1.283 . S
C183 O195 1.281 . S
C183 O196 1.236 . S
C184 O206 1.240 . S
C184 O207 1.264 . S
O185 Mn180 2.095 . S
O185 C194 1.250 . S
O186 Mn181 2.121 . S
O186 C194 1.258 . S
C187 N188 1.326 . S
C187 C191 1.460 . S
C187 H193 0.929 1_545 S
N188 Mn181 2.257 1_545 S
N188 C187 1.326 . S
N188 C192 1.362 . S
C189 C190 1.258 . S
C189 C192 1.431 . S
C189 C209 1.449 . S
C190 C189 1.258 . S
C190 C191 1.477 . S
C190 H210 0.931 . S
C191 C187 1.460 . S
C191 C190 1.477 . S
C191 H211 0.930 . S
C192 N188 1.362 . S
C192 C189 1.431 . S
C192 C202 1.476 . S
H193 C187 0.929 1_565 S
C194 O185 1.250 . S
C194 O186 1.258 . S
O195 Mn180 2.162 . S
O195 C183 1.281 . S
O196 Mn180 2.297 . S
O196 C183 1.236 . S
N197 Mn181 2.282 1_545 S
N197 C198 1.328 . S
N197 C202 1.318 . S
C198 N197 1.328 . S
C198 C199 1.457 . S
C198 H203 0.929 . S
C199 C198 1.457 . S
C199 C200 1.291 . S
C199 H212 0.931 . S
C200 C199 1.291 . S
C200 C201 1.373 . S
C200 H213 0.929 . S
C201 C200 1.373 . S
C201 C202 1.396 . S
C201 C208 1.403 . S
C202 C192 1.476 . S
C202 N197 1.318 . S
C202 C201 1.396 . S
H203 C198 0.929 . S
O204 Mn180 2.385 . S
O204 C182 1.234 . S
O205 Mn180 2.209 . S
O205 Mn181 2.215 . S
O205 C182 1.283 . S
O206 Mn180 2.094 . S
O206 C184 1.240 . S
O207 Mn181 2.117 . S
O207 C184 1.264 . S
C208 C201 1.403 . S
C208 C209 1.399 . S
C208 H214 0.929 . S
C209 C189 1.449 . S
C209 C208 1.399 . S
C209 H215 0.930 . S
H210 C190 0.931 . S
H211 C191 0.930 . S
H212 C199 0.931 . S
H213 C200 0.929 . S
H214 C208 0.929 . S
H215 C209 0.930 . S
Mn216 O221 2.095 . S
Mn216 O231 2.162 . S
Mn216 O232 2.297 . S
Mn216 O240 2.385 . S
Mn216 O241 2.209 . S
Mn216 O242 2.094 . S
Mn217 O222 2.121 . S
Mn217 N224 2.257 . S
Mn217 N233 2.282 . S
Mn217 O241 2.215 . S
Mn217 O243 2.117 . S
C218 O240 1.234 . S
C218 O241 1.283 . S
C219 O231 1.281 . S
C219 O232 1.236 . S
C220 O242 1.240 . S
C220 O243 1.264 . S
O221 Mn216 2.095 . S
O221 C230 1.250 . S
O222 Mn217 2.121 . S
O222 C230 1.258 . S
C223 N224 1.326 . S
C223 C227 1.460 . S
C223 H229 0.929 . S
N224 Mn217 2.257 . S
N224 C223 1.326 . S
N224 C228 1.362 . S
C225 C226 1.258 . S
C225 C228 1.431 . S
C225 C245 1.449 . S
C226 C225 1.258 . S
C226 C227 1.477 . S
C226 H246 0.931 . S
C227 C223 1.460 . S
C227 C226 1.477 . S
C227 H247 0.930 . S
C228 N224 1.362 . S
C228 C225 1.431 . S
C228 C238 1.476 . S
H229 C223 0.929 . S
C230 O221 1.250 . S
C230 O222 1.258 . S
O231 Mn216 2.162 . S
O231 C219 1.281 . S
O232 Mn216 2.297 . S
O232 C219 1.236 . S
N233 Mn217 2.282 . S
N233 C234 1.328 . S
N233 C238 1.318 . S
C234 N233 1.328 . S
C234 C235 1.457 . S
C234 H239 0.929 . S
C235 C234 1.457 . S
C235 C236 1.291 . S
C235 H248 0.931 . S
C236 C235 1.291 . S
C236 C237 1.373 . S
C236 H249 0.929 . S
C237 C236 1.373 . S
C237 C238 1.396 . S
C237 C244 1.403 . S
C238 C228 1.476 . S
C238 N233 1.318 . S
C238 C237 1.396 . S
H239 C234 0.929 . S
O240 Mn216 2.385 . S
O240 C218 1.234 . S
O241 Mn216 2.209 . S
O241 Mn217 2.215 . S
O241 C218 1.283 . S
O242 Mn216 2.094 . S
O242 C220 1.240 . S
O243 Mn217 2.117 . S
O243 C220 1.264 . S
C244 C237 1.403 . S
C244 C245 1.399 . S
C244 H250 0.929 . S
C245 C225 1.449 . S
C245 C244 1.399 . S
C245 H251 0.930 . S
H246 C226 0.931 . S
H247 C227 0.930 . S
H248 C235 0.931 . S
H249 C236 0.929 . S
H250 C244 0.929 . S
H251 C245 0.930 . S
Mn252 O257 2.095 . S
Mn252 O267 2.162 . S
Mn252 O268 2.297 . S
Mn252 O276 2.385 . S
Mn252 O277 2.209 . S
Mn252 O278 2.094 . S
Mn253 O258 2.121 . S
Mn253 N260 2.257 1_455 S
Mn253 N269 2.282 1_455 S
Mn253 O277 2.215 . S
Mn253 O279 2.117 . S
C254 O276 1.234 . S
C254 O277 1.283 . S
C255 O267 1.281 . S
C255 O268 1.236 . S
C256 O278 1.240 . S
C256 O279 1.264 . S
O257 Mn252 2.095 . S
O257 C266 1.250 . S
O258 Mn253 2.121 . S
O258 C266 1.258 . S
C259 N260 1.326 . S
C259 C263 1.460 . S
C259 H265 0.929 1_655 S
N260 Mn253 2.257 1_655 S
N260 C259 1.326 . S
N260 C264 1.362 . S
C261 C262 1.258 . S
C261 C264 1.431 . S
C261 C281 1.449 . S
C262 C261 1.258 . S
C262 C263 1.477 . S
C262 H282 0.931 . S
C263 C259 1.460 . S
C263 C262 1.477 . S
C263 H283 0.930 . S
C264 N260 1.362 . S
C264 C261 1.431 . S
C264 C274 1.476 . S
H265 C259 0.929 1_455 S
C266 O257 1.250 . S
C266 O258 1.258 . S
O267 Mn252 2.162 . S
O267 C255 1.281 . S
O268 Mn252 2.297 . S
O268 C255 1.236 . S
N269 Mn253 2.282 1_655 S
N269 C270 1.328 . S
N269 C274 1.318 . S
C270 N269 1.328 . S
C270 C271 1.457 . S
C270 H275 0.929 . S
C271 C270 1.457 . S
C271 C272 1.291 . S
C271 H284 0.931 . S
C272 C271 1.291 . S
C272 C273 1.373 . S
C272 H285 0.929 . S
C273 C272 1.373 . S
C273 C274 1.396 . S
C273 C280 1.403 . S
C274 C264 1.476 . S
C274 N269 1.318 . S
C274 C273 1.396 . S
H275 C270 0.929 . S
O276 Mn252 2.385 . S
O276 C254 1.234 . S
O277 Mn252 2.209 . S
O277 Mn253 2.215 . S
O277 C254 1.283 . S
O278 Mn252 2.094 . S
O278 C256 1.240 . S
O279 Mn253 2.117 . S
O279 C256 1.264 . S
C280 C273 1.403 . S
C280 C281 1.399 . S
C280 H286 0.929 . S
C281 C261 1.449 . S
C281 C280 1.399 . S
C281 H287 0.930 . S
H282 C262 0.931 . S
H283 C263 0.930 . S
H284 C271 0.931 . S
H285 C272 0.929 . S
H286 C280 0.929 . S
H287 C281 0.930 . S
Mn288 O293 2.095 . S
Mn288 O303 2.162 . S
Mn288 O304 2.297 . S
Mn288 O312 2.385 . S
Mn288 O313 2.209 . S
Mn288 O314 2.094 . S
Mn289 O294 2.121 . S
Mn289 N296 2.257 1_545 S
Mn289 N305 2.282 1_545 S
Mn289 O313 2.215 . S
Mn289 O315 2.117 . S
C290 O312 1.234 . S
C290 O313 1.283 . S
C291 O303 1.281 . S
C291 O304 1.236 . S
C292 O314 1.240 . S
C292 O315 1.264 . S
O293 Mn288 2.095 . S
O293 C302 1.250 . S
O294 Mn289 2.121 . S
O294 C302 1.258 . S
C295 N296 1.326 . S
C295 C299 1.460 . S
C295 H301 0.929 1_565 S
N296 Mn289 2.257 1_565 S
N296 C295 1.326 . S
N296 C300 1.362 . S
C297 C298 1.258 . S
C297 C300 1.431 . S
C297 C317 1.449 . S
C298 C297 1.258 . S
C298 C299 1.477 . S
C298 H318 0.931 . S
C299 C295 1.460 . S
C299 C298 1.477 . S
C299 H319 0.930 . S
C300 N296 1.362 . S
C300 C297 1.431 . S
C300 C310 1.476 . S
H301 C295 0.929 1_545 S
C302 O293 1.250 . S
C302 O294 1.258 . S
O303 Mn288 2.162 . S
O303 C291 1.281 . S
O304 Mn288 2.297 . S
O304 C291 1.236 . S
N305 Mn289 2.282 1_565 S
N305 C306 1.328 . S
N305 C310 1.318 . S
C306 N305 1.328 . S
C306 C307 1.457 . S
C306 H311 0.929 . S
C307 C306 1.457 . S
C307 C308 1.291 . S
C307 H320 0.931 . S
C308 C307 1.291 . S
C308 C309 1.373 . S
C308 H321 0.929 . S
C309 C308 1.373 . S
C309 C310 1.396 . S
C309 C316 1.403 . S
C310 C300 1.476 . S
C310 N305 1.318 . S
C310 C309 1.396 . S
H311 C306 0.929 . S
O312 Mn288 2.385 . S
O312 C290 1.234 . S
O313 Mn288 2.209 . S
O313 Mn289 2.215 . S
O313 C290 1.283 . S
O314 Mn288 2.094 . S
O314 C292 1.240 . S
O315 Mn289 2.117 . S
O315 C292 1.264 . S
C316 C309 1.403 . S
C316 C317 1.399 . S
C316 H322 0.929 . S
C317 C297 1.449 . S
C317 C316 1.399 . S
C317 H323 0.930 . S
H318 C298 0.931 . S
H319 C299 0.930 . S
H320 C307 0.931 . S
H321 C308 0.929 . S
H322 C316 0.929 . S
H323 C317 0.930 . S
Mn324 O329 2.095 . S
Mn324 O339 2.162 . S
Mn324 O340 2.297 . S
Mn324 O348 2.385 . S
Mn324 O349 2.209 . S
Mn324 O350 2.094 . S
Mn325 O330 2.121 . S
Mn325 N332 2.257 . S
Mn325 N341 2.282 . S
Mn325 O349 2.215 . S
Mn325 O351 2.117 . S
C326 O348 1.234 . S
C326 O349 1.283 . S
C327 O339 1.281 . S
C327 O340 1.236 . S
C328 O350 1.240 . S
C328 O351 1.264 . S
O329 Mn324 2.095 . S
O329 C338 1.250 . S
O330 Mn325 2.121 . S
O330 C338 1.258 . S
C331 N332 1.326 . S
C331 C335 1.460 . S
C331 H337 0.929 . S
N332 Mn325 2.257 . S
N332 C331 1.326 . S
N332 C336 1.362 . S
C333 C334 1.258 . S
C333 C336 1.431 . S
C333 C353 1.449 . S
C334 C333 1.258 . S
C334 C335 1.477 . S
C334 H354 0.931 . S
C335 C331 1.460 . S
C335 C334 1.477 . S
C335 H355 0.930 . S
C336 N332 1.362 . S
C336 C333 1.431 . S
C336 C346 1.476 . S
H337 C331 0.929 . S
C338 O329 1.250 . S
C338 O330 1.258 . S
O339 Mn324 2.162 . S
O339 C327 1.281 . S
O340 Mn324 2.297 . S
O340 C327 1.236 . S
N341 Mn325 2.282 . S
N341 C342 1.328 . S
N341 C346 1.318 . S
C342 N341 1.328 . S
C342 C343 1.457 . S
C342 H347 0.929 . S
C343 C342 1.457 . S
C343 C344 1.291 . S
C343 H356 0.931 . S
C344 C343 1.291 . S
C344 C345 1.373 . S
C344 H357 0.929 . S
C345 C344 1.373 . S
C345 C346 1.396 . S
C345 C352 1.403 . S
C346 C336 1.476 . S
C346 N341 1.318 . S
C346 C345 1.396 . S
H347 C342 0.929 . S
O348 Mn324 2.385 . S
O348 C326 1.234 . S
O349 Mn324 2.209 . S
O349 Mn325 2.215 . S
O349 C326 1.283 . S
O350 Mn324 2.094 . S
O350 C328 1.240 . S
O351 Mn325 2.117 . S
O351 C328 1.264 . S
C352 C345 1.403 . S
C352 C353 1.399 . S
C352 H358 0.929 . S
C353 C333 1.449 . S
C353 C352 1.399 . S
C353 H359 0.930 . S
H354 C334 0.931 . S
H355 C335 0.930 . S
H356 C343 0.931 . S
H357 C344 0.929 . S
H358 C352 0.929 . S
H359 C353 0.930 . S
Mn360 O365 2.095 . S
Mn360 O375 2.162 . S
Mn360 O376 2.297 . S
Mn360 O384 2.385 . S
Mn360 O385 2.209 . S
Mn360 O386 2.094 . S
Mn361 O366 2.121 . S
Mn361 N368 2.257 1_655 S
Mn361 N377 2.282 1_655 S
Mn361 O385 2.215 . S
Mn361 O387 2.117 . S
C362 O384 1.234 . S
C362 O385 1.283 . S
C363 O375 1.281 . S
C363 O376 1.236 . S
C364 O386 1.240 . S
C364 O387 1.264 . S
O365 Mn360 2.095 . S
O365 C374 1.250 . S
O366 Mn361 2.121 . S
O366 C374 1.258 . S
C367 N368 1.326 . S
C367 C371 1.460 . S
C367 H373 0.929 1_455 S
N368 Mn361 2.257 1_455 S
N368 C367 1.326 . S
N368 C372 1.362 . S
C369 C370 1.258 . S
C369 C372 1.431 . S
C369 C389 1.449 . S
C370 C369 1.258 . S
C370 C371 1.477 . S
C370 H390 0.931 . S
C371 C367 1.460 . S
C371 C370 1.477 . S
C371 H391 0.930 . S
C372 N368 1.362 . S
C372 C369 1.431 . S
C372 C382 1.476 . S
H373 C367 0.929 1_655 S
C374 O365 1.250 . S
C374 O366 1.258 . S
O375 Mn360 2.162 . S
O375 C363 1.281 . S
O376 Mn360 2.297 . S
O376 C363 1.236 . S
N377 Mn361 2.282 1_455 S
N377 C378 1.328 . S
N377 C382 1.318 . S
C378 N377 1.328 . S
C378 C379 1.457 . S
C378 H383 0.929 . S
C379 C378 1.457 . S
C379 C380 1.291 . S
C379 H392 0.931 . S
C380 C379 1.291 . S
C380 C381 1.373 . S
C380 H393 0.929 . S
C381 C380 1.373 . S
C381 C382 1.396 . S
C381 C388 1.403 . S
C382 C372 1.476 . S
C382 N377 1.318 . S
C382 C381 1.396 . S
H383 C378 0.929 . S
O384 Mn360 2.385 . S
O384 C362 1.234 . S
O385 Mn360 2.209 . S
O385 Mn361 2.215 . S
O385 C362 1.283 . S
O386 Mn360 2.094 . S
O386 C364 1.240 . S
O387 Mn361 2.117 . S
O387 C364 1.264 . S
C388 C381 1.403 . S
C388 C389 1.399 . S
C388 H394 0.929 . S
C389 C369 1.449 . S
C389 C388 1.399 . S
C389 H395 0.930 . S
H390 C370 0.931 . S
H391 C371 0.930 . S
H392 C379 0.931 . S
H393 C380 0.929 . S
H394 C388 0.929 . S
H395 C389 0.930 . S
Mn396 O401 2.095 . S
Mn396 O411 2.162 . S
Mn396 O412 2.297 . S
Mn396 O420 2.385 . S
Mn396 O421 2.209 . S
Mn396 O422 2.094 . S
Mn397 O402 2.121 . S
Mn397 N404 2.257 1_565 S
Mn397 N413 2.282 1_565 S
Mn397 O421 2.215 . S
Mn397 O423 2.117 . S
C398 O420 1.234 . S
C398 O421 1.283 . S
C399 O411 1.281 . S
C399 O412 1.236 . S
C400 O422 1.240 . S
C400 O423 1.264 . S
O401 Mn396 2.095 . S
O401 C410 1.250 . S
O402 Mn397 2.121 . S
O402 C410 1.258 . S
C403 N404 1.326 . S
C403 C407 1.460 . S
C403 H409 0.929 1_545 S
N404 Mn397 2.257 1_545 S
N404 C403 1.326 . S
N404 C408 1.362 . S
C405 C406 1.258 . S
C405 C408 1.431 . S
C405 C425 1.449 . S
C406 C405 1.258 . S
C406 C407 1.477 . S
C406 H426 0.931 . S
C407 C403 1.460 . S
C407 C406 1.477 . S
C407 H427 0.930 . S
C408 N404 1.362 . S
C408 C405 1.431 . S
C408 C418 1.476 . S
H409 C403 0.929 1_565 S
C410 O401 1.250 . S
C410 O402 1.258 . S
O411 Mn396 2.162 . S
O411 C399 1.281 . S
O412 Mn396 2.297 . S
O412 C399 1.236 . S
N413 Mn397 2.282 1_545 S
N413 C414 1.328 . S
N413 C418 1.318 . S
C414 N413 1.328 . S
C414 C415 1.457 . S
C414 H419 0.929 . S
C415 C414 1.457 . S
C415 C416 1.291 . S
C415 H428 0.931 . S
C416 C415 1.291 . S
C416 C417 1.373 . S
C416 H429 0.929 . S
C417 C416 1.373 . S
C417 C418 1.396 . S
C417 C424 1.403 . S
C418 C408 1.476 . S
C418 N413 1.318 . S
C418 C417 1.396 . S
H419 C414 0.929 . S
O420 Mn396 2.385 . S
O420 C398 1.234 . S
O421 Mn396 2.209 . S
O421 Mn397 2.215 . S
O421 C398 1.283 . S
O422 Mn396 2.094 . S
O422 C400 1.240 . S
O423 Mn397 2.117 . S
O423 C400 1.264 . S
C424 C417 1.403 . S
C424 C425 1.399 . S
C424 H430 0.929 . S
C425 C405 1.449 . S
C425 C424 1.399 . S
C425 H431 0.930 . S
H426 C406 0.931 . S
H427 C407 0.930 . S
H428 C415 0.931 . S
H429 C416 0.929 . S
H430 C424 0.929 . S
H431 C425 0.930 . S
C432 C433 1.349 . S
C432 C434 1.327 . S
C432 H457 0.950 . S
C433 C432 1.349 . S
C433 C449 1.349 . S
C434 C432 1.327 . S
C434 C453 1.429 . S
C434 H458 0.950 . S
C435 C452 1.574 . S
C435 C454 1.368 . S
C435 H459 0.949 . S
H436 C440 0.949 . S
C437 C438 1.349 . S
C437 C439 1.327 . S
C437 H460 0.950 . S
C438 C437 1.349 . S
C438 C450 1.349 . S
C439 C437 1.327 . S
C439 C455 1.429 . S
C439 H461 0.950 . S
C440 H436 0.949 . S
C440 C448 1.574 . S
C440 C456 1.368 . S
H441 C449 0.950 . S
H442 C447 0.950 . S
H443 C448 0.949 . S
H444 C450 0.950 . S
H445 C451 0.950 . S
H446 C452 0.949 . S
C447 H442 0.950 . S
C447 C449 1.327 . S
C447 C453 1.429 . S
C448 C440 1.574 . S
C448 H443 0.949 . S
C448 C454 1.368 . S
C449 C433 1.349 . S
C449 H441 0.950 . S
C449 C447 1.327 . S
C450 C438 1.349 . S
C450 H444 0.950 . S
C450 C451 1.327 . S
C451 H445 0.950 . S
C451 C450 1.327 . S
C451 C455 1.429 . S
C452 C435 1.574 . S
C452 H446 0.949 . S
C452 C456 1.368 . S
C453 C434 1.429 . S
C453 C447 1.429 . S
C453 C454 1.523 . S
C454 C435 1.368 . S
C454 C448 1.368 . S
C454 C453 1.523 . S
C455 C439 1.429 . S
C455 C451 1.429 . S
C455 C456 1.523 . S
C456 C440 1.368 . S
C456 C452 1.368 . S
C456 C455 1.523 . S
H457 C432 0.950 . S
H458 C434 0.950 . S
H459 C435 0.949 . S
H460 C437 0.950 . S
H461 C439 0.950 . S
C462 C463 1.349 . S
C462 C464 1.327 . S
C462 H487 0.950 . S
C463 C462 1.349 . S
C463 C479 1.349 . S
C464 C462 1.327 . S
C464 C483 1.429 . S
C464 H488 0.950 . S
C465 C482 1.574 . S
C465 C484 1.368 . S
C465 H489 0.949 . S
H466 C470 0.949 . S
C467 C468 1.349 . S
C467 C469 1.327 . S
C467 H490 0.950 . S
C468 C467 1.349 . S
C468 C480 1.349 . S
C469 C467 1.327 . S
C469 C485 1.429 . S
C469 H491 0.950 . S
C470 H466 0.949 . S
C470 C478 1.574 . S
C470 C486 1.368 . S
H471 C479 0.950 . S
H472 C477 0.950 . S
H473 C478 0.949 . S
H474 C480 0.950 . S
H475 C481 0.950 . S
H476 C482 0.949 . S
C477 H472 0.950 . S
C477 C479 1.327 . S
C477 C483 1.429 . S
C478 C470 1.574 . S
C478 H473 0.949 . S
C478 C484 1.368 1_655 S
C479 C463 1.349 . S
C479 H471 0.950 . S
C479 C477 1.327 . S
C480 C468 1.349 . S
C480 H474 0.950 . S
C480 C481 1.327 . S
C481 H475 0.950 . S
C481 C480 1.327 . S
C481 C485 1.429 . S
C482 C465 1.574 . S
C482 H476 0.949 . S
C482 C486 1.368 1_455 S
C483 C464 1.429 . S
C483 C477 1.429 . S
C483 C484 1.523 . S
C484 C465 1.368 . S
C484 C478 1.368 1_455 S
C484 C483 1.523 . S
C485 C469 1.429 . S
C485 C481 1.429 . S
C485 C486 1.523 . S
C486 C470 1.368 . S
C486 C482 1.368 1_655 S
C486 C485 1.523 . S
H487 C462 0.950 . S
H488 C464 0.950 . S
H489 C465 0.949 . S
H490 C467 0.950 . S
H491 C469 0.950 . S
C492 C493 1.349 . S
C492 C494 1.327 . S
C492 H517 0.950 . S
C493 C492 1.349 . S
C493 C509 1.349 . S
C494 C492 1.327 . S
C494 C513 1.429 . S
C494 H518 0.950 . S
C495 C512 1.574 . S
C495 C514 1.368 . S
C495 H519 0.949 . S
H496 C500 0.949 . S
C497 C498 1.349 . S
C497 C499 1.327 . S
C497 H520 0.950 . S
C498 C497 1.349 . S
C498 C510 1.349 . S
C499 C497 1.327 . S
C499 C515 1.429 . S
C499 H521 0.950 . S
C500 H496 0.949 . S
C500 C508 1.574 . S
C500 C516 1.368 . S
H501 C509 0.950 . S
H502 C507 0.950 . S
H503 C508 0.949 . S
H504 C510 0.950 . S
H505 C511 0.950 . S
H506 C512 0.949 . S
C507 H502 0.950 . S
C507 C509 1.327 . S
C507 C513 1.429 . S
C508 C500 1.574 . S
C508 H503 0.949 . S
C508 C514 1.368 1_545 S
C509 C493 1.349 . S
C509 H501 0.950 . S
C509 C507 1.327 . S
C510 C498 1.349 . S
C510 H504 0.950 . S
C510 C511 1.327 . S
C511 H505 0.950 . S
C511 C510 1.327 . S
C511 C515 1.429 . S
C512 C495 1.574 . S
C512 H506 0.949 . S
C512 C516 1.368 1_565 S
C513 C494 1.429 . S
C513 C507 1.429 . S
C513 C514 1.523 . S
C514 C495 1.368 . S
C514 C508 1.368 1_565 S
C514 C513 1.523 . S
C515 C499 1.429 . S
C515 C511 1.429 . S
C515 C516 1.523 . S
C516 C500 1.368 . S
C516 C512 1.368 1_545 S
C516 C515 1.523 . S
H517 C492 0.950 . S
H518 C494 0.950 . S
H519 C495 0.949 . S
H520 C497 0.950 . S
H521 C499 0.950 . S
C522 C523 1.349 . S
C522 C524 1.327 . S
C522 H547 0.950 . S
C523 C522 1.349 . S
C523 C539 1.349 . S
C524 C522 1.327 . S
C524 C543 1.429 . S
C524 H548 0.950 . S
C525 C542 1.574 . S
C525 C544 1.368 . S
C525 H549 0.949 . S
H526 C530 0.949 . S
C527 C528 1.349 . S
C527 C529 1.327 . S
C527 H550 0.950 . S
C528 C527 1.349 . S
C528 C540 1.349 . S
C529 C527 1.327 . S
C529 C545 1.429 . S
C529 H551 0.950 . S
C530 H526 0.949 . S
C530 C538 1.574 . S
C530 C546 1.368 . S
H531 C539 0.950 . S
H532 C537 0.950 . S
H533 C538 0.949 . S
H534 C540 0.950 . S
H535 C541 0.950 . S
H536 C542 0.949 . S
C537 H532 0.950 . S
C537 C539 1.327 . S
C537 C543 1.429 . S
C538 C530 1.574 . S
C538 H533 0.949 . S
C538 C544 1.368 . S
C539 C523 1.349 . S
C539 H531 0.950 . S
C539 C537 1.327 . S
C540 C528 1.349 . S
C540 H534 0.950 . S
C540 C541 1.327 . S
C541 H535 0.950 . S
C541 C540 1.327 . S
C541 C545 1.429 . S
C542 C525 1.574 . S
C542 H536 0.949 . S
C542 C546 1.368 . S
C543 C524 1.429 . S
C543 C537 1.429 . S
C543 C544 1.523 . S
C544 C525 1.368 . S
C544 C538 1.368 . S
C544 C543 1.523 . S
C545 C529 1.429 . S
C545 C541 1.429 . S
C545 C546 1.523 . S
C546 C530 1.368 . S
C546 C542 1.368 . S
C546 C545 1.523 . S
H547 C522 0.950 . S
H548 C524 0.950 . S
H549 C525 0.949 . S
H550 C527 0.950 . S
H551 C529 0.950 . S
C552 C553 1.349 . S
C552 C554 1.327 . S
C552 H577 0.950 . S
C553 C552 1.349 . S
C553 C569 1.349 . S
C554 C552 1.327 . S
C554 C573 1.429 . S
C554 H578 0.950 . S
C555 C572 1.574 . S
C555 C574 1.368 . S
C555 H579 0.949 . S
H556 C560 0.949 . S
C557 C558 1.349 . S
C557 C559 1.327 . S
C557 H580 0.950 . S
C558 C557 1.349 . S
C558 C570 1.349 . S
C559 C557 1.327 . S
C559 C575 1.429 . S
C559 H581 0.950 . S
C560 H556 0.949 . S
C560 C568 1.574 . S
C560 C576 1.368 . S
H561 C569 0.950 . S
H562 C567 0.950 . S
H563 C568 0.949 . S
H564 C570 0.950 . S
H565 C571 0.950 . S
H566 C572 0.949 . S
C567 H562 0.950 . S
C567 C569 1.327 . S
C567 C573 1.429 . S
C568 C560 1.574 . S
C568 H563 0.949 . S
C568 C574 1.368 1_455 S
C569 C553 1.349 . S
C569 H561 0.950 . S
C569 C567 1.327 . S
C570 C558 1.349 . S
C570 H564 0.950 . S
C570 C571 1.327 . S
C571 H565 0.950 . S
C571 C570 1.327 . S
C571 C575 1.429 . S
C572 C555 1.574 . S
C572 H566 0.949 . S
C572 C576 1.368 1_655 S
C573 C554 1.429 . S
C573 C567 1.429 . S
C573 C574 1.523 . S
C574 C555 1.368 . S
C574 C568 1.368 1_655 S
C574 C573 1.523 . S
C575 C559 1.429 . S
C575 C571 1.429 . S
C575 C576 1.523 . S
C576 C560 1.368 . S
C576 C572 1.368 1_455 S
C576 C575 1.523 . S
H577 C552 0.950 . S
H578 C554 0.950 . S
H579 C555 0.949 . S
H580 C557 0.950 . S
H581 C559 0.950 . S
C582 C583 1.349 . S
C582 C584 1.327 . S
C582 H607 0.950 . S
C583 C582 1.349 . S
C583 C599 1.349 . S
C584 C582 1.327 . S
C584 C603 1.429 . S
C584 H608 0.950 . S
C585 C602 1.574 . S
C585 C604 1.368 . S
C585 H609 0.949 . S
H586 C590 0.949 . S
C587 C588 1.349 . S
C587 C589 1.327 . S
C587 H610 0.950 . S
C588 C587 1.349 . S
C588 C600 1.349 . S
C589 C587 1.327 . S
C589 C605 1.429 . S
C589 H611 0.950 . S
C590 H586 0.949 . S
C590 C598 1.574 . S
C590 C606 1.368 . S
H591 C599 0.950 . S
H592 C597 0.950 . S
H593 C598 0.949 . S
H594 C600 0.950 . S
H595 C601 0.950 . S
H596 C602 0.949 . S
C597 H592 0.950 . S
C597 C599 1.327 . S
C597 C603 1.429 . S
C598 C590 1.574 . S
C598 H593 0.949 . S
C598 C604 1.368 1_565 S
C599 C583 1.349 . S
C599 H591 0.950 . S
C599 C597 1.327 . S
C600 C588 1.349 . S
C600 H594 0.950 . S
C600 C601 1.327 . S
C601 H595 0.950 . S
C601 C600 1.327 . S
C601 C605 1.429 . S
C602 C585 1.574 . S
C602 H596 0.949 . S
C602 C606 1.368 1_545 S
C603 C584 1.429 . S
C603 C597 1.429 . S
C603 C604 1.523 . S
C604 C585 1.368 . S
C604 C598 1.368 1_545 S
C604 C603 1.523 . S
C605 C589 1.429 . S
C605 C601 1.429 . S
C605 C606 1.523 . S
C606 C590 1.368 . S
C606 C602 1.368 1_565 S
C606 C605 1.523 . S
H607 C582 0.950 . S
H608 C584 0.950 . S
H609 C585 0.949 . S
H610 C587 0.950 . S
H611 C589 0.950 . S
C612 C613 1.349 . S
C612 C614 1.327 . S
C612 H637 0.950 . S
C613 C612 1.349 . S
C613 C629 1.349 . S
C614 C612 1.327 . S
C614 C633 1.429 . S
C614 H638 0.950 . S
C615 C632 1.574 . S
C615 C634 1.368 . S
C615 H639 0.949 . S
H616 C620 0.949 . S
C617 C618 1.349 . S
C617 C619 1.327 . S
C617 H640 0.950 . S
C618 C617 1.349 . S
C618 C630 1.349 . S
C619 C617 1.327 . S
C619 C635 1.429 . S
C619 H641 0.950 . S
C620 H616 0.949 . S
C620 C628 1.574 . S
C620 C636 1.368 . S
H621 C629 0.950 . S
H622 C627 0.950 . S
H623 C628 0.949 . S
H624 C630 0.950 . S
H625 C631 0.950 . S
H626 C632 0.949 . S
C627 H622 0.950 . S
C627 C629 1.327 . S
C627 C633 1.429 . S
C628 C620 1.574 . S
C628 H623 0.949 . S
C628 C634 1.368 . S
C629 C613 1.349 . S
C629 H621 0.950 . S
C629 C627 1.327 . S
C630 C618 1.349 . S
C630 H624 0.950 . S
C630 C631 1.327 . S
C631 H625 0.950 . S
C631 C630 1.327 . S
C631 C635 1.429 . S
C632 C615 1.574 . S
C632 H626 0.949 . S
C632 C636 1.368 . S
C633 C614 1.429 . S
C633 C627 1.429 . S
C633 C634 1.523 . S
C634 C615 1.368 . S
C634 C628 1.368 . S
C634 C633 1.523 . S
C635 C619 1.429 . S
C635 C631 1.429 . S
C635 C636 1.523 . S
C636 C620 1.368 . S
C636 C632 1.368 . S
C636 C635 1.523 . S
H637 C612 0.950 . S
H638 C614 0.950 . S
H639 C615 0.949 . S
H640 C617 0.950 . S
H641 C619 0.950 . S
C642 C643 1.349 . S
C642 C644 1.327 . S
C642 H667 0.950 . S
C643 C642 1.349 . S
C643 C659 1.349 . S
C644 C642 1.327 . S
C644 C663 1.429 . S
C644 H668 0.950 . S
C645 C662 1.574 . S
C645 C664 1.368 . S
C645 H669 0.949 . S
H646 C650 0.949 . S
C647 C648 1.349 . S
C647 C649 1.327 . S
C647 H670 0.950 . S
C648 C647 1.349 . S
C648 C660 1.349 . S
C649 C647 1.327 . S
C649 C665 1.429 . S
C649 H671 0.950 . S
C650 H646 0.949 . S
C650 C658 1.574 . S
C650 C666 1.368 . S
H651 C659 0.950 . S
H652 C657 0.950 . S
H653 C658 0.949 . S
H654 C660 0.950 . S
H655 C661 0.950 . S
H656 C662 0.949 . S
C657 H652 0.950 . S
C657 C659 1.327 . S
C657 C663 1.429 . S
C658 C650 1.574 . S
C658 H653 0.949 . S
C658 C664 1.368 . S
C659 C643 1.349 . S
C659 H651 0.950 . S
C659 C657 1.327 . S
C660 C648 1.349 . S
C660 H654 0.950 . S
C660 C661 1.327 . S
C661 H655 0.950 . S
C661 C660 1.327 . S
C661 C665 1.429 . S
C662 C645 1.574 . S
C662 H656 0.949 . S
C662 C666 1.368 . S
C663 C644 1.429 . S
C663 C657 1.429 . S
C663 C664 1.523 . S
C664 C645 1.368 . S
C664 C658 1.368 . S
C664 C663 1.523 . S
C665 C649 1.429 . S
C665 C661 1.429 . S
C665 C666 1.523 . S
C666 C650 1.368 . S
C666 C662 1.368 . S
C666 C665 1.523 . S
H667 C642 0.950 . S
H668 C644 0.950 . S
H669 C645 0.949 . S
H670 C647 0.950 . S
H671 C649 0.950 . S
C672 C673 1.349 . S
C672 C674 1.327 . S
C672 H697 0.950 . S
C673 C672 1.349 . S
C673 C689 1.349 . S
C674 C672 1.327 . S
C674 C693 1.429 . S
C674 H698 0.950 . S
C675 C692 1.574 . S
C675 C694 1.368 . S
C675 H699 0.949 . S
H676 C680 0.949 . S
C677 C678 1.349 . S
C677 C679 1.327 . S
C677 H700 0.950 . S
C678 C677 1.349 . S
C678 C690 1.349 . S
C679 C677 1.327 . S
C679 C695 1.429 . S
C679 H701 0.950 . S
C680 H676 0.949 . S
C680 C688 1.574 . S
C680 C696 1.368 . S
H681 C689 0.950 . S
H682 C687 0.950 . S
H683 C688 0.949 . S
H684 C690 0.950 . S
H685 C691 0.950 . S
H686 C692 0.949 . S
C687 H682 0.950 . S
C687 C689 1.327 . S
C687 C693 1.429 . S
C688 C680 1.574 . S
C688 H683 0.949 . S
C688 C694 1.368 . S
C689 C673 1.349 . S
C689 H681 0.950 . S
C689 C687 1.327 . S
C690 C678 1.349 . S
C690 H684 0.950 . S
C690 C691 1.327 . S
C691 H685 0.950 . S
C691 C690 1.327 . S
C691 C695 1.429 . S
C692 C675 1.574 . S
C692 H686 0.949 . S
C692 C696 1.368 . S
C693 C674 1.429 . S
C693 C687 1.429 . S
C693 C694 1.523 . S
C694 C675 1.368 . S
C694 C688 1.368 . S
C694 C693 1.523 . S
C695 C679 1.429 . S
C695 C691 1.429 . S
C695 C696 1.523 . S
C696 C680 1.368 . S
C696 C692 1.368 . S
C696 C695 1.523 . S
H697 C672 0.950 . S
H698 C674 0.950 . S
H699 C675 0.949 . S
H700 C677 0.950 . S
H701 C679 0.950 . S
C702 C703 1.349 . S
C702 C704 1.327 . S
C702 H727 0.950 . S
C703 C702 1.349 . S
C703 C719 1.349 . S
C704 C702 1.327 . S
C704 C723 1.429 . S
C704 H728 0.950 . S
C705 C722 1.574 . S
C705 C724 1.368 . S
C705 H729 0.949 . S
H706 C710 0.949 . S
C707 C708 1.349 . S
C707 C709 1.327 . S
C707 H730 0.950 . S
C708 C707 1.349 . S
C708 C720 1.349 . S
C709 C707 1.327 . S
C709 C725 1.429 . S
C709 H731 0.950 . S
C710 H706 0.949 . S
C710 C718 1.574 . S
C710 C726 1.368 . S
H711 C719 0.950 . S
H712 C717 0.950 . S
H713 C718 0.949 . S
H714 C720 0.950 . S
H715 C721 0.950 . S
H716 C722 0.949 . S
C717 H712 0.950 . S
C717 C719 1.327 . S
C717 C723 1.429 . S
C718 C710 1.574 . S
C718 H713 0.949 . S
C718 C724 1.368 . S
C719 C703 1.349 . S
C719 H711 0.950 . S
C719 C717 1.327 . S
C720 C708 1.349 . S
C720 H714 0.950 . S
C720 C721 1.327 . S
C721 H715 0.950 . S
C721 C720 1.327 . S
C721 C725 1.429 . S
C722 C705 1.574 . S
C722 H716 0.949 . S
C722 C726 1.368 . S
C723 C704 1.429 . S
C723 C717 1.429 . S
C723 C724 1.523 . S
C724 C705 1.368 . S
C724 C718 1.368 . S
C724 C723 1.523 . S
C725 C709 1.429 . S
C725 C721 1.429 . S
C725 C726 1.523 . S
C726 C710 1.368 . S
C726 C722 1.368 . S
C726 C725 1.523 . S
H727 C702 0.950 . S
H728 C704 0.950 . S
H729 C705 0.949 . S
H730 C707 0.950 . S
H731 C709 0.950 . S
C732 C733 1.349 . S
C732 C734 1.327 . S
C732 H757 0.950 . S
C733 C732 1.349 . S
C733 C749 1.349 . S
C734 C732 1.327 . S
C734 C753 1.429 . S
C734 H758 0.950 . S
C735 C752 1.574 . S
C735 C754 1.368 . S
C735 H759 0.949 . S
H736 C740 0.949 . S
C737 C738 1.349 . S
C737 C739 1.327 . S
C737 H760 0.950 . S
C738 C737 1.349 . S
C738 C750 1.349 . S
C739 C737 1.327 . S
C739 C755 1.429 . S
C739 H761 0.950 . S
C740 H736 0.949 . S
C740 C748 1.574 . S
C740 C756 1.368 . S
H741 C749 0.950 . S
H742 C747 0.950 . S
H743 C748 0.949 . S
H744 C750 0.950 . S
H745 C751 0.950 . S
H746 C752 0.949 . S
C747 H742 0.950 . S
C747 C749 1.327 . S
C747 C753 1.429 . S
C748 C740 1.574 . S
C748 H743 0.949 . S
C748 C754 1.368 . S
C749 C733 1.349 . S
C749 H741 0.950 . S
C749 C747 1.327 . S
C750 C738 1.349 . S
C750 H744 0.950 . S
C750 C751 1.327 . S
C751 H745 0.950 . S
C751 C750 1.327 . S
C751 C755 1.429 . S
C752 C735 1.574 . S
C752 H746 0.949 . S
C752 C756 1.368 . S
C753 C734 1.429 . S
C753 C747 1.429 . S
C753 C754 1.523 . S
C754 C735 1.368 . S
C754 C748 1.368 . S
C754 C753 1.523 . S
C755 C739 1.429 . S
C755 C751 1.429 . S
C755 C756 1.523 . S
C756 C740 1.368 . S
C756 C752 1.368 . S
C756 C755 1.523 . S
H757 C732 0.950 . S
H758 C734 0.950 . S
H759 C735 0.949 . S
H760 C737 0.950 . S
H761 C739 0.950 . S
C762 C763 1.349 . S
C762 C764 1.327 . S
C762 H787 0.950 . S
C763 C762 1.349 . S
C763 C779 1.349 . S
C764 C762 1.327 . S
C764 C783 1.429 . S
C764 H788 0.950 . S
C765 C782 1.574 . S
C765 C784 1.368 . S
C765 H789 0.949 . S
H766 C770 0.949 . S
C767 C768 1.349 . S
C767 C769 1.327 . S
C767 H790 0.950 . S
C768 C767 1.349 . S
C768 C780 1.349 . S
C769 C767 1.327 . S
C769 C785 1.429 . S
C769 H791 0.950 . S
C770 H766 0.949 . S
C770 C778 1.574 . S
C770 C786 1.368 . S
H771 C779 0.950 . S
H772 C777 0.950 . S
H773 C778 0.949 . S
H774 C780 0.950 . S
H775 C781 0.950 . S
H776 C782 0.949 . S
C777 H772 0.950 . S
C777 C779 1.327 . S
C777 C783 1.429 . S
C778 C770 1.574 . S
C778 H773 0.949 . S
C778 C784 1.368 . S
C779 C763 1.349 . S
C779 H771 0.950 . S
C779 C777 1.327 . S
C780 C768 1.349 . S
C780 H774 0.950 . S
C780 C781 1.327 . S
C781 H775 0.950 . S
C781 C780 1.327 . S
C781 C785 1.429 . S
C782 C765 1.574 . S
C782 H776 0.949 . S
C782 C786 1.368 . S
C783 C764 1.429 . S
C783 C777 1.429 . S
C783 C784 1.523 . S
C784 C765 1.368 . S
C784 C778 1.368 . S
C784 C783 1.523 . S
C785 C769 1.429 . S
C785 C781 1.429 . S
C785 C786 1.523 . S
C786 C770 1.368 . S
C786 C782 1.368 . S
C786 C785 1.523 . S
H787 C762 0.950 . S
H788 C764 0.950 . S
H789 C765 0.949 . S
H790 C767 0.950 . S
H791 C769 0.950 . S
C792 C793 1.349 . S
C792 C794 1.327 . S
C792 H817 0.950 . S
C793 C792 1.349 . S
C793 C809 1.349 . S
C794 C792 1.327 . S
C794 C813 1.429 . S
C794 H818 0.950 1_556 S
C795 C812 1.574 1_565 S
C795 C814 1.368 . S
C795 H819 0.949 . S
H796 C800 0.949 . S
C797 C798 1.349 . S
C797 C799 1.327 . S
C797 H820 0.950 . S
C798 C797 1.349 . S
C798 C810 1.349 . S
C799 C797 1.327 . S
C799 C815 1.429 . S
C799 H821 0.950 1_554 S
C800 H796 0.949 . S
C800 C808 1.574 1_545 S
C800 C816 1.368 . S
H801 C809 0.950 . S
H802 C807 0.950 . S
H803 C808 0.949 . S
H804 C810 0.950 . S
H805 C811 0.950 . S
H806 C812 0.949 . S
C807 H802 0.950 . S
C807 C809 1.327 . S
C807 C813 1.429 . S
C808 C800 1.574 1_565 S
C808 H803 0.949 . S
C808 C814 1.368 1_554 S
C809 C793 1.349 . S
C809 H801 0.950 . S
C809 C807 1.327 . S
C810 C798 1.349 . S
C810 H804 0.950 . S
C810 C811 1.327 . S
C811 H805 0.950 . S
C811 C810 1.327 . S
C811 C815 1.429 . S
C812 C795 1.574 1_545 S
C812 H806 0.949 . S
C812 C816 1.368 1_556 S
C813 C794 1.429 . S
C813 C807 1.429 . S
C813 C814 1.523 . S
C814 C795 1.368 . S
C814 C808 1.368 1_556 S
C814 C813 1.523 . S
C815 C799 1.429 . S
C815 C811 1.429 . S
C815 C816 1.523 . S
C816 C800 1.368 . S
C816 C812 1.368 1_554 S
C816 C815 1.523 . S
H817 C792 0.950 . S
H818 C794 0.950 1_554 S
H819 C795 0.949 . S
H820 C797 0.950 . S
H821 C799 0.950 1_556 S
C822 C823 1.349 . S
C822 C824 1.327 . S
C822 H847 0.950 . S
C823 C822 1.349 . S
C823 C839 1.349 . S
C824 C822 1.327 . S
C824 C843 1.429 . S
C824 H848 0.950 . S
C825 C842 1.574 . S
C825 C844 1.368 . S
C825 H849 0.949 . S
H826 C830 0.949 . S
C827 C828 1.349 . S
C827 C829 1.327 . S
C827 H850 0.950 . S
C828 C827 1.349 . S
C828 C840 1.349 . S
C829 C827 1.327 . S
C829 C845 1.429 . S
C829 H851 0.950 . S
C830 H826 0.949 . S
C830 C838 1.574 . S
C830 C846 1.368 . S
H831 C839 0.950 . S
H832 C837 0.950 . S
H833 C838 0.949 . S
H834 C840 0.950 . S
H835 C841 0.950 . S
H836 C842 0.949 . S
C837 H832 0.950 . S
C837 C839 1.327 . S
C837 C843 1.429 . S
C838 C830 1.574 . S
C838 H833 0.949 . S
C838 C844 1.368 . S
C839 C823 1.349 . S
C839 H831 0.950 . S
C839 C837 1.327 . S
C840 C828 1.349 . S
C840 H834 0.950 . S
C840 C841 1.327 . S
C841 H835 0.950 . S
C841 C840 1.327 . S
C841 C845 1.429 . S
C842 C825 1.574 . S
C842 H836 0.949 . S
C842 C846 1.368 . S
C843 C824 1.429 . S
C843 C837 1.429 . S
C843 C844 1.523 . S
C844 C825 1.368 . S
C844 C838 1.368 . S
C844 C843 1.523 . S
C845 C829 1.429 . S
C845 C841 1.429 . S
C845 C846 1.523 . S
C846 C830 1.368 . S
C846 C842 1.368 . S
C846 C845 1.523 . S
H847 C822 0.950 . S
H848 C824 0.950 . S
H849 C825 0.949 . S
H850 C827 0.950 . S
H851 C829 0.950 . S
C852 C853 1.349 . S
C852 C854 1.327 . S
C852 H877 0.950 . S
C853 C852 1.349 . S
C853 C869 1.349 . S
C854 C852 1.327 . S
C854 C873 1.429 . S
C854 H878 0.950 . S
C855 C872 1.574 1_655 S
C855 C874 1.368 . S
C855 H879 0.949 . S
H856 C860 0.949 . S
C857 C858 1.349 . S
C857 C859 1.327 . S
C857 H880 0.950 . S
C858 C857 1.349 . S
C858 C870 1.349 . S
C859 C857 1.327 . S
C859 C875 1.429 . S
C859 H881 0.950 . S
C860 H856 0.949 . S
C860 C868 1.574 1_455 S
C860 C876 1.368 . S
H861 C869 0.950 . S
H862 C867 0.950 . S
H863 C868 0.949 . S
H864 C870 0.950 . S
H865 C871 0.950 . S
H866 C872 0.949 . S
C867 H862 0.950 . S
C867 C869 1.327 . S
C867 C873 1.429 . S
C868 C860 1.574 1_655 S
C868 H863 0.949 . S
C868 C874 1.368 . S
C869 C853 1.349 . S
C869 H861 0.950 . S
C869 C867 1.327 . S
C870 C858 1.349 . S
C870 H864 0.950 . S
C870 C871 1.327 . S
C871 H865 0.950 . S
C871 C870 1.327 . S
C871 C875 1.429 . S
C872 C855 1.574 1_455 S
C872 H866 0.949 . S
C872 C876 1.368 . S
C873 C854 1.429 . S
C873 C867 1.429 . S
C873 C874 1.523 . S
C874 C855 1.368 . S
C874 C868 1.368 . S
C874 C873 1.523 . S
C875 C859 1.429 . S
C875 C871 1.429 . S
C875 C876 1.523 . S
C876 C860 1.368 . S
C876 C872 1.368 . S
C876 C875 1.523 . S
H877 C852 0.950 . S
H878 C854 0.950 . S
H879 C855 0.949 . S
H880 C857 0.950 . S
H881 C859 0.950 . S
C882 C883 1.349 . S
C882 C884 1.327 . S
C882 H907 0.950 . S
C883 C882 1.349 . S
C883 C899 1.349 . S
C884 C882 1.327 . S
C884 C903 1.429 . S
C884 H908 0.950 1_554 S
C885 C902 1.574 1_565 S
C885 C904 1.368 . S
C885 H909 0.949 . S
H886 C890 0.949 . S
C887 C888 1.349 . S
C887 C889 1.324 1_556 S
C887 H910 0.950 1_556 S
C888 C887 1.349 . S
C888 C900 1.349 . S
C889 C887 1.324 1_554 S
C889 C905 1.423 1_554 S
C889 H911 0.958 . S
C890 H886 0.949 . S
C890 C898 1.574 1_545 S
C890 C906 1.368 . S
H891 C899 0.950 . S
H892 C897 0.950 . S
H893 C898 0.949 . S
H894 C900 0.950 . S
H895 C901 0.950 . S
H896 C902 0.949 . S
C897 H892 0.950 . S
C897 C899 1.327 . S
C897 C903 1.429 . S
C898 C890 1.574 1_565 S
C898 H893 0.949 . S
C898 C904 1.368 1_556 S
C899 C883 1.349 . S
C899 H891 0.950 . S
C899 C897 1.327 . S
C900 C888 1.349 . S
C900 H894 0.950 . S
C900 C901 1.327 . S
C901 H895 0.950 . S
C901 C900 1.327 . S
C901 C905 1.429 . S
C902 C885 1.574 1_545 S
C902 H896 0.949 . S
C902 C906 1.368 1_554 S
C903 C884 1.429 . S
C903 C897 1.429 . S
C903 C904 1.523 . S
C904 C885 1.368 . S
C904 C898 1.368 1_554 S
C904 C903 1.523 . S
C905 C889 1.423 1_556 S
C905 C901 1.429 . S
C905 C906 1.523 . S
C906 C890 1.368 . S
C906 C902 1.368 1_556 S
C906 C905 1.523 . S
H907 C882 0.950 . S
H908 C884 0.950 1_556 S
H909 C885 0.949 . S
H910 C887 0.950 1_554 S
H911 C889 0.958 . S
C912 C913 1.349 . S
C912 C914 1.327 . S
C912 H937 0.950 . S
C913 C912 1.349 . S
C913 C929 1.349 . S
C914 C912 1.327 . S
C914 C933 1.429 . S
C914 H938 0.950 . S
C915 C932 1.574 . S
C915 C934 1.368 . S
C915 H939 0.949 . S
H916 C920 0.949 . S
C917 C918 1.349 . S
C917 C919 1.327 . S
C917 H940 0.950 . S
C918 C917 1.349 . S
C918 C930 1.349 . S
C919 C917 1.327 . S
C919 C935 1.429 . S
C919 H941 0.950 . S
C920 H916 0.949 . S
C920 C928 1.574 . S
C920 C936 1.368 . S
H921 C929 0.950 . S
H922 C927 0.950 . S
H923 C928 0.949 . S
H924 C930 0.950 . S
H925 C931 0.950 . S
H926 C932 0.949 . S
C927 H922 0.950 . S
C927 C929 1.327 . S
C927 C933 1.429 . S
C928 C920 1.574 . S
C928 H923 0.949 . S
C928 C934 1.368 . S
C929 C913 1.349 . S
C929 H921 0.950 . S
C929 C927 1.327 . S
C930 C918 1.349 . S
C930 H924 0.950 . S
C930 C931 1.327 . S
C931 H925 0.950 . S
C931 C930 1.327 . S
C931 C935 1.429 . S
C932 C915 1.574 . S
C932 H926 0.949 . S
C932 C936 1.368 . S
C933 C914 1.429 . S
C933 C927 1.429 . S
C933 C934 1.523 . S
C934 C915 1.368 . S
C934 C928 1.368 . S
C934 C933 1.523 . S
C935 C919 1.429 . S
C935 C931 1.429 . S
C935 C936 1.523 . S
C936 C920 1.368 . S
C936 C932 1.368 . S
C936 C935 1.523 . S
H937 C912 0.950 . S
H938 C914 0.950 . S
H939 C915 0.949 . S
H940 C917 0.950 . S
H941 C919 0.950 . S
C942 C943 1.349 . S
C942 C944 1.327 . S
C942 H967 0.950 . S
C943 C942 1.349 . S
C943 C959 1.349 . S
C944 C942 1.327 . S
C944 C963 1.429 . S
C944 H968 0.950 . S
C945 C962 1.574 1_455 S
C945 C964 1.368 . S
C945 H969 0.949 . S
H946 C950 0.949 . S
C947 C948 1.349 . S
C947 C949 1.327 . S
C947 H970 0.950 . S
C948 C947 1.349 . S
C948 C960 1.349 . S
C949 C947 1.327 . S
C949 C965 1.429 . S
C949 H971 0.950 . S
C950 H946 0.949 . S
C950 C958 1.574 1_655 S
C950 C966 1.368 . S
H951 C959 0.950 . S
H952 C957 0.950 . S
H953 C958 0.949 . S
H954 C960 0.950 . S
H955 C961 0.950 . S
H956 C962 0.949 . S
C957 H952 0.950 . S
C957 C959 1.327 . S
C957 C963 1.429 . S
C958 C950 1.574 1_455 S
C958 H953 0.949 . S
C958 C964 1.368 . S
C959 C943 1.349 . S
C959 H951 0.950 . S
C959 C957 1.327 . S
C960 C948 1.349 . S
C960 H954 0.950 . S
C960 C961 1.327 . S
C961 H955 0.950 . S
C961 C960 1.327 . S
C961 C965 1.429 . S
C962 C945 1.574 1_655 S
C962 H956 0.949 . S
C962 C966 1.368 . S
C963 C944 1.429 . S
C963 C957 1.429 . S
C963 C964 1.523 . S
C964 C945 1.368 . S
C964 C958 1.368 . S
C964 C963 1.523 . S
C965 C949 1.429 . S
C965 C961 1.429 . S
C965 C966 1.523 . S
C966 C950 1.368 . S
C966 C962 1.368 . S
C966 C965 1.523 . S
H967 C942 0.950 . S
H968 C944 0.950 . S
H969 C945 0.949 . S
H970 C947 0.950 . S
H971 C949 0.950 . S
C972 C973 1.341 1_455 S
C972 C974 1.327 . S
C972 H997 0.950 . S
C973 C972 1.341 1_655 S
C973 C989 1.327 1_655 S
C974 C972 1.327 . S
C974 C993 1.429 . S
C974 H998 0.995 . S
C975 C992 1.574 . S
C975 C994 1.368 . S
C975 H999 0.949 . S
H976 C980 0.949 . S
C977 C978 1.349 . S
C977 C979 1.327 . S
C977 H1000 0.950 . S
C978 C977 1.349 . S
C978 C990 1.349 . S
C979 C977 1.327 . S
C979 C995 1.429 . S
C979 H1001 0.950 . S
C980 H976 0.949 . S
C980 C988 1.574 . S
C980 C996 1.368 . S
H981 C989 0.950 1_655 S
H982 C987 0.950 . S
H983 C988 0.949 . S
H984 C990 0.950 . S
H985 C991 0.950 . S
H986 C992 0.949 . S
C987 H982 0.950 . S
C987 C989 1.327 . S
C987 C993 1.429 . S
C988 C980 1.574 . S
C988 H983 0.949 . S
C988 C994 1.368 1_554 S
C989 C973 1.327 1_455 S
C989 H981 0.950 1_455 S
C989 C987 1.327 . S
C990 C978 1.349 . S
C990 H984 0.950 . S
C990 C991 1.327 . S
C991 H985 0.950 . S
C991 C990 1.327 . S
C991 C995 1.429 . S
C992 C975 1.574 . S
C992 H986 0.949 . S
C992 C996 1.368 1_556 S
C993 C974 1.429 . S
C993 C987 1.429 . S
C993 C994 1.523 . S
C994 C975 1.368 . S
C994 C988 1.368 1_556 S
C994 C993 1.523 . S
C995 C979 1.429 . S
C995 C991 1.429 . S
C995 C996 1.523 . S
C996 C980 1.368 . S
C996 C992 1.368 1_554 S
C996 C995 1.523 . S
H997 C972 0.950 . S
H998 C974 0.995 . S
H999 C975 0.949 . S
H1000 C977 0.950 . S
H1001 C979 0.950 . S
C1002 C1003 1.366 . S
C1002 C1004 1.327 1_565 S
C1002 H1027 0.950 . S
C1003 C1002 1.366 . S
C1003 C1019 1.317 1_565 S
C1004 C1002 1.327 1_545 S
C1004 C1023 1.429 . S
C1004 H1028 0.950 . S
C1005 C1022 1.574 . S
C1005 C1024 1.368 . S
C1005 H1029 0.949 . S
H1006 C1010 0.949 . S
C1007 C1008 1.323 1_655 S
C1007 C1009 1.327 . S
C1007 H1030 0.950 . S
C1008 C1007 1.323 1_455 S
C1008 C1020 1.360 1_455 S
C1009 C1007 1.327 . S
C1009 C1025 1.429 . S
C1009 H1031 0.950 . S
C1010 H1006 0.949 . S
C1010 C1018 1.574 . S
C1010 C1026 1.368 . S
H1011 C1019 0.950 . S
H1012 C1017 0.950 . S
H1013 C1018 0.949 . S
H1014 C1020 0.950 1_455 S
H1015 C1021 0.950 . S
H1016 C1022 0.949 . S
C1017 H1012 0.950 . S
C1017 C1019 1.327 . S
C1017 C1023 1.429 . S
C1018 C1010 1.574 . S
C1018 H1013 0.949 . S
C1018 C1024 1.368 . S
C1019 C1003 1.317 1_545 S
C1019 H1011 0.950 . S
C1019 C1017 1.327 . S
C1020 C1008 1.360 1_655 S
C1020 H1014 0.950 1_655 S
C1020 C1021 1.327 . S
C1021 H1015 0.950 . S
C1021 C1020 1.327 . S
C1021 C1025 1.429 . S
C1022 C1005 1.574 . S
C1022 H1016 0.949 . S
C1022 C1026 1.368 . S
C1023 C1004 1.429 . S
C1023 C1017 1.429 . S
C1023 C1024 1.523 . S
C1024 C1005 1.368 . S
C1024 C1018 1.368 . S
C1024 C1023 1.523 . S
C1025 C1009 1.429 . S
C1025 C1021 1.429 . S
C1025 C1026 1.523 . S
C1026 C1010 1.368 . S
C1026 C1022 1.368 . S
C1026 C1025 1.523 . S
H1027 C1002 0.950 . S
H1028 C1004 0.950 . S
H1029 C1005 0.949 . S
H1030 C1007 0.950 . S
H1031 C1009 0.950 . S
C1032 C1033 1.349 . S
C1032 C1034 1.327 . S
C1032 H1057 0.950 . S
C1033 C1032 1.349 . S
C1033 C1049 1.349 . S
C1034 C1032 1.327 . S
C1034 C1053 1.429 . S
C1034 H1058 0.950 . S
C1035 C1052 1.574 . S
C1035 C1054 1.368 . S
C1035 H1059 0.949 . S
H1036 C1040 0.949 . S
C1037 C1038 1.323 1_565 S
C1037 C1039 1.327 . S
C1037 H1060 0.950 . S
C1038 C1037 1.323 1_545 S
C1038 C1050 1.345 1_545 S
C1039 C1037 1.327 . S
C1039 C1055 1.429 . S
C1039 H1061 0.950 . S
C1040 H1036 0.949 . S
C1040 C1048 1.574 . S
C1040 C1056 1.368 . S
H1041 C1049 0.950 . S
H1042 C1047 0.950 . S
H1043 C1048 0.949 . S
H1044 C1050 0.950 1_545 S
H1045 C1051 0.950 . S
H1046 C1052 0.949 . S
C1047 H1042 0.950 . S
C1047 C1049 1.327 . S
C1047 C1053 1.429 . S
C1048 C1040 1.574 . S
C1048 H1043 0.949 . S
C1048 C1054 1.368 . S
C1049 C1033 1.349 . S
C1049 H1041 0.950 . S
C1049 C1047 1.327 . S
C1050 C1038 1.345 1_565 S
C1050 H1044 0.950 1_565 S
C1050 C1051 1.327 . S
C1051 H1045 0.950 . S
C1051 C1050 1.327 . S
C1051 C1055 1.429 . S
C1052 C1035 1.574 . S
C1052 H1046 0.949 . S
C1052 C1056 1.368 . S
C1053 C1034 1.429 . S
C1053 C1047 1.429 . S
C1053 C1054 1.523 . S
C1054 C1035 1.368 . S
C1054 C1048 1.368 . S
C1054 C1053 1.523 . S
C1055 C1039 1.429 . S
C1055 C1051 1.429 . S
C1055 C1056 1.523 . S
C1056 C1040 1.368 . S
C1056 C1052 1.368 . S
C1056 C1055 1.523 . S
H1057 C1032 0.950 . S
H1058 C1034 0.950 . S
H1059 C1035 0.949 . S
H1060 C1037 0.950 . S
H1061 C1039 0.950 . S
C1062 C1063 1.349 . S
C1062 C1064 1.327 . S
C1062 H1087 0.950 . S
C1063 C1062 1.349 . S
C1063 C1079 1.349 . S
C1064 C1062 1.327 . S
C1064 C1083 1.429 . S
C1064 H1088 0.950 . S
C1065 C1082 1.574 . S
C1065 C1084 1.368 . S
C1065 H1089 0.949 . S
H1066 C1070 0.949 . S
C1067 C1068 1.341 . S
C1067 C1069 1.327 1_455 S
C1067 H1090 0.950 . S
C1068 C1067 1.341 . S
C1068 C1080 1.327 1_455 S
C1069 C1067 1.327 1_655 S
C1069 C1085 1.429 . S
C1069 H1091 0.994 . S
C1070 H1066 0.949 . S
C1070 C1078 1.574 . S
C1070 C1086 1.368 . S
H1071 C1079 0.950 . S
H1072 C1077 0.950 . S
H1073 C1078 0.949 . S
H1074 C1080 0.950 . S
H1075 C1081 0.950 . S
H1076 C1082 0.949 . S
C1077 H1072 0.950 . S
C1077 C1079 1.327 . S
C1077 C1083 1.429 . S
C1078 C1070 1.574 . S
C1078 H1073 0.949 . S
C1078 C1084 1.368 1_556 S
C1079 C1063 1.349 . S
C1079 H1071 0.950 . S
C1079 C1077 1.327 . S
C1080 C1068 1.327 1_655 S
C1080 H1074 0.950 . S
C1080 C1081 1.327 . S
C1081 H1075 0.950 . S
C1081 C1080 1.327 . S
C1081 C1085 1.429 . S
C1082 C1065 1.574 . S
C1082 H1076 0.949 . S
C1082 C1086 1.368 1_554 S
C1083 C1064 1.429 . S
C1083 C1077 1.429 . S
C1083 C1084 1.523 . S
C1084 C1065 1.368 . S
C1084 C1078 1.368 1_554 S
C1084 C1083 1.523 . S
C1085 C1069 1.429 . S
C1085 C1081 1.429 . S
C1085 C1086 1.523 . S
C1086 C1070 1.368 . S
C1086 C1082 1.368 1_556 S
C1086 C1085 1.523 . S
H1087 C1062 0.950 . S
H1088 C1064 0.950 . S
H1089 C1065 0.949 . S
H1090 C1067 0.950 . S
H1091 C1069 0.994 . S
C1092 C1093 1.325 1_455 S
C1092 C1094 1.327 . S
C1092 H1117 0.950 . S
C1093 C1092 1.325 1_655 S
C1093 C1109 1.358 . S
C1094 C1092 1.327 . S
C1094 C1113 1.429 . S
C1094 H1118 0.950 . S
C1095 C1112 1.574 . S
C1095 C1114 1.368 . S
C1095 H1119 0.949 . S
H1096 C1100 0.949 . S
C1097 C1098 1.348 1_565 S
C1097 C1099 1.327 . S
C1097 H1120 0.950 . S
C1098 C1097 1.348 1_545 S
C1098 C1110 1.335 1_545 S
C1099 C1097 1.327 . S
C1099 C1115 1.429 . S
C1099 H1121 0.950 . S
C1100 H1096 0.949 . S
C1100 C1108 1.574 . S
C1100 C1116 1.368 . S
H1101 C1109 0.950 . S
H1102 C1107 0.950 . S
H1103 C1108 0.949 . S
H1104 C1110 0.950 1_545 S
H1105 C1111 0.950 . S
H1106 C1112 0.949 . S
C1107 H1102 0.950 . S
C1107 C1109 1.327 1_455 S
C1107 C1113 1.429 . S
C1108 C1100 1.574 . S
C1108 H1103 0.949 . S
C1108 C1114 1.368 . S
C1109 C1093 1.358 . S
C1109 H1101 0.950 . S
C1109 C1107 1.327 1_655 S
C1110 C1098 1.335 1_565 S
C1110 H1104 0.950 1_565 S
C1110 C1111 1.327 . S
C1111 H1105 0.950 . S
C1111 C1110 1.327 . S
C1111 C1115 1.429 . S
C1112 C1095 1.574 . S
C1112 H1106 0.949 . S
C1112 C1116 1.368 . S
C1113 C1094 1.429 . S
C1113 C1107 1.429 . S
C1113 C1114 1.523 . S
C1114 C1095 1.368 . S
C1114 C1108 1.368 . S
C1114 C1113 1.523 . S
C1115 C1099 1.429 . S
C1115 C1111 1.429 . S
C1115 C1116 1.523 . S
C1116 C1100 1.368 . S
C1116 C1112 1.368 . S
C1116 C1115 1.523 . S
H1117 C1092 0.950 . S
H1118 C1094 0.950 . S
H1119 C1095 0.949 . S
H1120 C1097 0.950 . S
H1121 C1099 0.950 . S
C1122 C1123 1.326 1_545 S
C1122 C1124 1.327 . S
C1122 H1147 0.950 . S
C1123 C1122 1.326 1_565 S
C1123 C1139 1.342 . S
C1124 C1122 1.327 . S
C1124 C1143 1.429 . S
C1124 H1148 0.950 . S
C1125 C1142 1.574 . S
C1125 C1144 1.368 . S
C1125 H1149 0.949 . S
H1126 C1130 0.949 . S
C1127 C1128 1.349 . S
C1127 C1129 1.327 . S
C1127 H1150 0.950 . S
C1128 C1127 1.349 . S
C1128 C1140 1.349 . S
C1129 C1127 1.327 . S
C1129 C1145 1.429 . S
C1129 H1151 0.950 . S
C1130 H1126 0.949 . S
C1130 C1138 1.574 . S
C1130 C1146 1.368 . S
H1131 C1139 0.950 . S
H1132 C1137 0.950 . S
H1133 C1138 0.949 . S
H1134 C1140 0.950 . S
H1135 C1141 0.950 . S
H1136 C1142 0.949 . S
C1137 H1132 0.950 . S
C1137 C1139 1.327 1_545 S
C1137 C1143 1.429 . S
C1138 C1130 1.574 . S
C1138 H1133 0.949 . S
C1138 C1144 1.368 . S
C1139 C1123 1.342 . S
C1139 H1131 0.950 . S
C1139 C1137 1.327 1_565 S
C1140 C1128 1.349 . S
C1140 H1134 0.950 . S
C1140 C1141 1.327 . S
C1141 H1135 0.950 . S
C1141 C1140 1.327 . S
C1141 C1145 1.429 . S
C1142 C1125 1.574 . S
C1142 H1136 0.949 . S
C1142 C1146 1.368 . S
C1143 C1124 1.429 . S
C1143 C1137 1.429 . S
C1143 C1144 1.523 . S
C1144 C1125 1.368 . S
C1144 C1138 1.368 . S
C1144 C1143 1.523 . S
C1145 C1129 1.429 . S
C1145 C1141 1.429 . S
C1145 C1146 1.523 . S
C1146 C1130 1.368 . S
C1146 C1142 1.368 . S
C1146 C1145 1.523 . S
H1147 C1122 0.950 . S
H1148 C1124 0.950 . S
H1149 C1125 0.949 . S
H1150 C1127 0.950 . S
H1151 C1129 0.950 . S
C433 C112 1.273 . S
C438 C4 1.273 . S
C463 C40 1.273 . S
C468 C148 1.273 . S
C493 C184 1.273 . S
C498 C76 1.273 . S
C523 C220 1.273 . S
C528 C328 1.273 . S
C553 C364 1.273 . S
C558 C256 1.273 . S
C583 C292 1.273 . S
C588 C400 1.273 . S
C613 C302 1.596 . S
C618 C14 1.596 . S
C643 C50 1.596 . S
C648 C338 1.596 . S
C673 C86 1.596 . S
C678 C374 1.596 . S
C703 C122 1.595 . S
C708 C410 1.595 . S
C733 C230 1.595 . S
C738 C158 1.595 . S
C763 C266 1.595 . S
C768 C194 1.595 . S
C793 C255 0.945 . S
C798 C3 0.945 . S
C823 C39 0.945 . S
C828 C291 0.945 . S
C853 C75 0.945 . S
C858 C327 0.945 . S
C883 C111 0.945 . S
C888 C363 0.945 . S
C913 C399 0.945 . S
C918 C147 0.945 . S
C943 C183 0.945 . S
C948 C219 0.945 . S
C973 C362 1.515 . S
C978 C2 1.482 . S
C1003 C398 1.499 . S
C1008 C38 1.499 . S
C1033 C218 1.483 . S
C1038 C74 1.515 . S
C1063 C110 1.482 . S
C1068 C254 1.515 . S
C1093 C146 1.499 . S
C1098 C290 1.499 . S
C1123 C182 1.515 . S
C1128 C326 1.482 . S
