# Generated by pormake.
# Topology umx, (4)-cn, num edge types: 1
# Building blocks:
#     Node 0, Type 0, BuildingBlock: CEKHIL_clean_sbu_0, # of connection points: 4
#     Node 1, Type 0, BuildingBlock: CEKHIL_clean_sbu_0, # of connection points: 4
#     Node 2, Type 0, BuildingBlock: CEKHIL_clean_sbu_0, # of connection points: 4
#     Node 3, Type 0, BuildingBlock: CEKHIL_clean_sbu_0, # of connection points: 4
#     Node 4, Type 0, BuildingBlock: CEKHIL_clean_sbu_0, # of connection points: 4
#     Node 5, Type 0, BuildingBlock: CEKHIL_clean_sbu_0, # of connection points: 4
#     Node 6, Type 0, BuildingBlock: CEKHIL_clean_sbu_0, # of connection points: 4
#     Node 7, Type 0, BuildingBlock: CEKHIL_clean_sbu_0, # of connection points: 4
#     Edge 8, Type (0, 0), BuildingBlock: FUNLAD_clean_linker_0, # of connection points: 2
#     Edge 9, Type (0, 0), BuildingBlock: FUNLAD_clean_linker_0, # of connection points: 2
#     Edge 10, Type (0, 0), BuildingBlock: FUNLAD_clean_linker_0, # of connection points: 2
#     Edge 11, Type (0, 0), BuildingBlock: FUNLAD_clean_linker_0, # of connection points: 2
#     Edge 12, Type (0, 0), BuildingBlock: FUNLAD_clean_linker_0, # of connection points: 2
#     Edge 13, Type (0, 0), BuildingBlock: FUNLAD_clean_linker_0, # of connection points: 2
#     Edge 14, Type (0, 0), BuildingBlock: FUNLAD_clean_linker_0, # of connection points: 2
#     Edge 15, Type (0, 0), BuildingBlock: FUNLAD_clean_linker_0, # of connection points: 2
#     Edge 16, Type (0, 0), BuildingBlock: FUNLAD_clean_linker_0, # of connection points: 2
#     Edge 17, Type (0, 0), BuildingBlock: FUNLAD_clean_linker_0, # of connection points: 2
#     Edge 18, Type (0, 0), BuildingBlock: FUNLAD_clean_linker_0, # of connection points: 2
#     Edge 19, Type (0, 0), BuildingBlock: FUNLAD_clean_linker_0, # of connection points: 2
#     Edge 20, Type (0, 0), BuildingBlock: FUNLAD_clean_linker_0, # of connection points: 2
#     Edge 21, Type (0, 0), BuildingBlock: FUNLAD_clean_linker_0, # of connection points: 2
#     Edge 22, Type (0, 0), BuildingBlock: FUNLAD_clean_linker_0, # of connection points: 2
#     Edge 23, Type (0, 0), BuildingBlock: FUNLAD_clean_linker_0, # of connection points: 2
# Relax obj value: 0.077
# Max RMSD: 0.187
# Mean RMSD: 0.187
data_MOF--net-umx--node1-CEKHIL_clean_sbu_0--edge1-FUNLAD_clean_linker_0
_symmetry_space_group_name_H-M    P1
_symmetry_Int_Tables_number       1
_symmetry_cell_setting            triclinic
loop_
_symmetry_equiv_pos_as_xyz
'x, y, z'
_cell_length_a     45.274455
_cell_length_b     45.237254
_cell_length_c     32.474968
_cell_angle_alpha  89.95998
_cell_angle_beta   90.043299
_cell_angle_gamma 90.095854
loop_
_atom_site_label
_atom_site_type_symbol
_atom_site_fract_x
_atom_site_fract_y
_atom_site_fract_z
_atom_type_partial_charge
Co0 Co 0.19282 0.44709 0.01211 0.0
O1 O 0.23039 0.42788 0.01507 0.0
O2 O 0.18877 0.40941 0.04036 0.0
C3 C 0.19513 0.45894 0.94505 0.0
O4 O 0.14983 0.46091 0.01295 0.0
Co5 Co 0.19102 0.51426 0.99192 0.0
O6 O 0.14842 0.50603 0.98369 0.0
C7 C 0.20827 0.49495 0.07511 0.0
C8 C 0.21696 0.4064 0.0337 0.0
C9 C 0.13553 0.48313 -0.00203 0.0
O10 O 0.2015 0.46816 0.06554 0.0
O11 O 0.20759 0.5163 0.04921 0.0
O12 O 0.18688 0.43268 0.95635 0.0
O13 O 0.20479 0.47589 0.97416 0.0
Co14 Co 0.56005 0.19045 0.51092 0.0
O15 O 0.58317 0.22527 0.50203 0.0
O16 O 0.59997 0.18474 0.53202 0.0
C17 C 0.54116 0.18865 0.44698 0.0
O18 O 0.54189 0.14983 0.52282 0.0
Co19 Co 0.49183 0.19631 0.50539 0.0
O20 O 0.49305 0.15267 0.50945 0.0
C21 C 0.52235 0.21696 0.57984 0.0
C22 C 0.60518 0.21138 0.51849 0.0
C23 C 0.51604 0.13798 0.51918 0.0
O24 O 0.5466 0.20606 0.56595 0.0
O25 O 0.49838 0.21745 0.55891 0.0
O26 O 0.56715 0.17792 0.45464 0.0
O27 O 0.52885 0.20276 0.47701 0.0
Co28 Co 0.80993 0.56149 0.0153 0.0
O29 O 0.7742 0.58377 0.02012 0.0
O30 O 0.8186 0.60034 0.03773 0.0
C31 C 0.80195 0.54599 0.95039 0.0
O32 O 0.85174 0.54465 0.01319 0.0
Co33 Co 0.80631 0.49377 0.00511 0.0
O34 O 0.84919 0.49699 0.99382 0.0
C35 C 0.79576 0.51971 0.08678 0.0
C36 C 0.79038 0.60516 0.03413 0.0
C37 C 0.86403 0.52016 0.00235 0.0
O38 O 0.80354 0.545 0.07225 0.0
O39 O 0.79336 0.49658 0.0643 0.0
O40 O 0.81306 0.57191 0.95768 0.0
O41 O 0.79328 0.53129 0.98248 0.0
Co42 Co 0.43503 0.81524 0.50028 0.0
O43 O 0.41221 0.77969 0.50157 0.0
O44 O 0.39639 0.82297 0.52451 0.0
C45 C 0.44958 0.81059 0.4343 0.0
O46 O 0.45339 0.85667 0.50222 0.0
Co47 Co 0.50243 0.80928 0.48814 0.0
O48 O 0.49996 0.85245 0.47868 0.0
C49 C 0.47716 0.79673 0.56964 0.0
C50 C 0.3912 0.79502 0.51796 0.0
C51 C 0.47808 0.86811 0.49015 0.0
O52 O 0.45191 0.80535 0.55606 0.0
O53 O 0.50006 0.79479 0.54668 0.0
O54 O 0.42414 0.82199 0.44333 0.0
O55 O 0.46413 0.79959 0.46507 0.0
Co56 Co 0.18877 0.55241 0.51867 0.0
O57 O 0.22539 0.57135 0.53126 0.0
O58 O 0.18776 0.59381 0.50135 0.0
C59 C 0.18352 0.5313 0.58103 0.0
O60 O 0.14693 0.53905 0.50353 0.0
Co61 Co 0.18757 0.48373 0.51951 0.0
O62 O 0.14451 0.48969 0.5134 0.0
C63 C 0.21361 0.51474 0.44865 0.0
C64 C 0.21422 0.5956 0.51707 0.0
C65 C 0.1325 0.51441 0.50476 0.0
O66 O 0.2045 0.53957 0.46327 0.0
O67 O 0.21132 0.49028 0.46826 0.0
O68 O 0.17545 0.55844 0.57489 0.0
O69 O 0.19707 0.51884 0.55065 0.0
Co70 Co 0.4421 0.19016 0.02079 0.0
O71 O 0.42302 0.22774 0.02295 0.0
O72 O 0.40206 0.18698 -0.00093 0.0
C73 C 0.45952 0.19137 0.08548 0.0
O74 O 0.4558 0.14717 0.01609 0.0
Co75 Co 0.51038 0.18825 0.02917 0.0
O76 O 0.50199 0.14622 0.04213 0.0
C77 C 0.48384 0.20686 0.95054 0.0
C78 C 0.3998 0.215 0.00785 0.0
C79 C 0.47852 0.13322 0.03016 0.0
O80 O 0.45819 0.19995 0.96462 0.0
O81 O 0.50741 0.20562 0.97232 0.0
O82 O 0.43259 0.18306 0.07817 0.0
O83 O 0.47395 0.20158 0.05415 0.0
Co84 Co 0.81428 0.43484 0.52901 0.0
O85 O 0.78149 0.40799 0.52852 0.0
O86 O 0.82573 0.39807 0.5026 0.0
C87 C 0.80947 0.44795 0.59554 0.0
O88 O 0.85356 0.45712 0.5257 0.0
Co89 Co 0.80324 0.50124 0.54378 0.0
O90 O 0.84672 0.50304 0.55031 0.0
C91 C 0.79091 0.47635 0.46189 0.0
C92 C 0.79885 0.38945 0.51032 0.0
C93 C 0.86355 0.48251 0.53737 0.0
O94 O 0.80138 0.45149 0.47434 0.0
O95 O 0.7881 0.4988 0.48556 0.0
O96 O 0.82337 0.42397 0.5854 0.0
O97 O 0.79659 0.46182 0.5656 0.0
Co98 Co 0.56426 0.81052 0.01348 0.0
O99 O 0.58657 0.77478 0.01411 0.0
O100 O 0.60321 0.81728 0.98954 0.0
C101 C 0.54936 0.80725 0.07952 0.0
O102 O 0.5467 0.85211 0.00973 0.0
Co103 Co 0.49676 0.80593 0.02531 0.0
O104 O 0.50026 0.8491 0.03411 0.0
C105 C 0.52213 0.79145 0.94447 0.0
C106 C 0.6081 0.78951 -0.00219 0.0
C107 C 0.52241 0.86418 0.02193 0.0
O108 O 0.54754 0.79975 0.95793 0.0
O109 O 0.49909 0.79045 0.9673 0.0
O110 O 0.57496 0.81824 0.07025 0.0
O111 O 0.53473 0.79591 0.04905 0.0
C112 C 0.21988 0.47877 0.14728 0.0
C113 C 0.21585 0.50168 0.11855 0.0
C114 C 0.22488 0.48514 0.18882 0.0
C115 C 0.22601 0.51464 0.20258 0.0
C116 C 0.22251 0.53749 0.17378 0.0
C117 C 0.21773 0.53114 0.1322 0.0
C118 C 0.2278 0.52225 0.24702 0.0
C119 C 0.24027 0.50449 0.27546 0.0
C120 C 0.2373 0.50913 0.32064 0.0
C121 C 0.24045 0.48456 0.34665 0.0
C122 C 0.23416 0.48674 0.3886 0.0
C123 C 0.22471 0.51368 0.40569 0.0
H124 H 0.22837 0.55641 0.31964 0.0
C125 C 0.22359 0.53882 0.38024 0.0
C126 C 0.22988 0.53662 0.33817 0.0
H127 H 0.21684 0.56004 0.39245 0.0
H128 H 0.21854 0.45583 0.1379 0.0
H129 H 0.22657 0.46685 0.21016 0.0
H130 H 0.22299 0.56038 0.18358 0.0
H131 H 0.21465 0.54937 0.11101 0.0
H132 H 0.21719 0.54264 0.25635 0.0
H133 H 0.25114 0.48434 0.2655 0.0
H134 H 0.24653 0.4632 0.33419 0.0
H135 H 0.23566 0.46695 0.40727 0.0
C136 C 0.49453 0.2354 0.64148 0.0
C137 C 0.52142 0.22695 0.62332 0.0
C138 C 0.49281 0.24079 0.68376 0.0
C139 C 0.51797 0.23772 0.70886 0.0
C140 C 0.54521 0.23139 0.69031 0.0
C141 C 0.54694 0.22591 0.64803 0.0
C142 C 0.51641 0.23947 0.7545 0.0
C143 C 0.49222 0.23112 0.77578 0.0
C144 C 0.49096 0.22787 0.82137 0.0
C145 C 0.46322 0.2239 0.83989 0.0
C146 C 0.46086 0.21785 0.88192 0.0
C147 C 0.48628 0.2155 0.90659 0.0
H148 H 0.53833 0.22849 0.83348 0.0
C149 C 0.51405 0.22025 0.88837 0.0
C150 C 0.51642 0.22625 0.84626 0.0
H151 H 0.53413 0.21854 0.90638 0.0
H152 H 0.4745 0.23691 0.62334 0.0
H153 H 0.47165 0.24685 0.69668 0.0
H154 H 0.56501 0.22933 0.70885 0.0
H155 H 0.56811 0.21984 0.63507 0.0
H156 H 0.53654 0.24542 0.77059 0.0
H157 H 0.47244 0.2248 0.75899 0.0
H158 H 0.44322 0.22489 0.82158 0.0
H159 H 0.43906 0.21447 0.89485 0.0
C160 C 0.77917 0.50744 0.39976 0.0
C161 C 0.78344 0.47941 0.41757 0.0
C162 C 0.77503 0.51037 0.35723 0.0
C163 C 0.77503 0.48528 0.33157 0.0
C164 C 0.77778 0.45724 0.34966 0.0
C165 C 0.78214 0.45431 0.39207 0.0
C166 C 0.77277 0.48735 0.28591 0.0
C167 C 0.78254 0.51087 0.26425 0.0
C168 C 0.78362 0.51237 0.21837 0.0
C169 C 0.7887 0.53995 0.19977 0.0
C170 C 0.79199 0.54239 0.15713 0.0
C171 C 0.79044 0.51722 0.13181 0.0
H172 H 0.77842 0.46532 0.2057 0.0
C173 C 0.78486 0.48962 0.15024 0.0
C174 C 0.78159 0.48717 0.19298 0.0
H175 H 0.78366 0.46973 0.13178 0.0
H176 H 0.77978 0.52723 0.41849 0.0
H177 H 0.77191 0.53231 0.34469 0.0
H178 H 0.77748 0.43752 0.33075 0.0
H179 H 0.785 0.43234 0.40473 0.0
H180 H 0.76442 0.46802 0.26996 0.0
H181 H 0.79116 0.52989 0.28074 0.0
H182 H 0.79051 0.55974 0.21839 0.0
H183 H 0.79619 0.56405 0.14414 0.0
C184 C 0.49135 0.7792 0.88218 0.0
C185 C 0.51923 0.78433 0.89998 0.0
C186 C 0.4885 0.77501 0.83966 0.0
C187 C 0.5135 0.77595 0.8139 0.0
C188 C 0.54144 0.77968 0.83195 0.0
C189 C 0.54429 0.78398 0.87438 0.0
C190 C 0.51146 0.77362 0.76822 0.0
C191 C 0.48735 0.78186 0.74664 0.0
C192 C 0.48559 0.7829 0.70076 0.0
C193 C 0.45777 0.78708 0.68251 0.0
C194 C 0.45497 0.79069 0.63996 0.0
C195 C 0.48001 0.79031 0.61436 0.0
H196 H 0.53264 0.77921 0.68744 0.0
C197 C 0.50783 0.78534 0.63237 0.0
C198 C 0.51065 0.7818 0.67504 0.0
H199 H 0.52763 0.78505 0.61368 0.0
H200 H 0.47159 0.77898 0.90094 0.0
H201 H 0.46667 0.77107 0.82725 0.0
H202 H 0.56112 0.78014 0.81299 0.0
H203 H 0.56618 0.78755 0.88696 0.0
H204 H 0.53119 0.76651 0.75218 0.0
H205 H 0.46794 0.78933 0.76321 0.0
H206 H 0.43805 0.78809 0.70136 0.0
H207 H 0.43314 0.79433 0.62728 0.0
C208 C 0.78953 0.48155 0.65022 0.0
C209 C 0.80705 0.45731 0.63897 0.0
C210 C 0.78649 0.48943 0.69167 0.0
C211 C 0.80124 0.47334 0.7227 0.0
C212 C 0.81859 0.44903 0.71122 0.0
C213 C 0.82153 0.44114 0.6699 0.0
C214 C 0.79925 0.48095 0.76722 0.0
C215 C 0.79146 0.50785 0.78113 0.0
C216 C 0.79294 0.51652 0.82522 0.0
C217 C 0.79711 0.54648 0.83451 0.0
C218 C 0.79995 0.55579 0.87519 0.0
C219 C 0.79815 0.53541 0.90774 0.0
H220 H 0.78641 0.47286 0.85194 0.0
C221 C 0.79297 0.50549 0.89882 0.0
C222 C 0.79047 0.49605 0.85783 0.0
H223 H 0.79128 0.48937 0.9234 0.0
H224 H 0.77784 0.49421 0.62706 0.0
H225 H 0.77218 0.50778 0.69905 0.0
H226 H 0.8301 0.43613 0.73432 0.0
H227 H 0.8351 0.42222 0.66225 0.0
H228 H 0.80672 0.46438 0.78907 0.0
H229 H 0.78639 0.52527 0.75927 0.0
H230 H 0.79877 0.56277 0.81012 0.0
H231 H 0.80354 0.57909 0.8811 0.0
C232 C 0.51147 0.79438 0.13317 0.0
C233 C 0.53916 0.80616 0.12268 0.0
C234 C 0.50271 0.79285 0.17449 0.0
C235 C 0.52156 0.80315 0.20598 0.0
C236 C 0.54928 0.81461 0.19529 0.0
C237 C 0.55792 0.81628 0.15417 0.0
C238 C 0.51346 0.80208 0.25028 0.0
C239 C 0.48538 0.8029 0.26372 0.0
C240 C 0.47734 0.80466 0.30799 0.0
C241 C 0.45019 0.81744 0.31847 0.0
C242 C 0.44158 0.81971 0.35954 0.0
C243 C 0.45979 0.80891 0.3912 0.0
H244 H 0.51639 0.78299 0.33279 0.0
C245 C 0.48692 0.7959 0.38094 0.0
C246 C 0.49564 0.79372 0.33967 0.0
H247 H 0.50126 0.78715 0.40471 0.0
H248 H 0.49669 0.78617 0.10954 0.0
H249 H 0.48147 0.78312 0.18158 0.0
H250 H 0.56429 0.82255 0.21885 0.0
H251 H 0.57951 0.82533 0.14716 0.0
H252 H 0.5314 0.80307 0.27245 0.0
H253 H 0.46753 0.80471 0.2415 0.0
H254 H 0.43561 0.82592 0.29477 0.0
H255 H 0.42045 0.82976 0.36639 0.0
C256 C 0.17983 0.4501 0.87236 0.0
C257 C 0.19169 0.46915 0.90224 0.0
C258 C 0.1763 0.45959 0.83178 0.0
C259 C 0.1848 0.48834 0.82022 0.0
C260 C 0.19624 0.5075 0.8503 0.0
C261 C 0.19978 0.49798 0.89092 0.0
C262 C 0.18143 0.49937 0.77747 0.0
C263 C 0.18049 0.48159 0.74421 0.0
C264 C 0.17874 0.49339 0.7017 0.0
C265 C 0.19186 0.47752 0.6694 0.0
C266 C 0.19261 0.4893 0.62959 0.0
C267 C 0.17999 0.51703 0.6215 0.0
H268 H 0.15324 0.53259 0.71673 0.0
C269 C 0.16539 0.53208 0.6533 0.0
C270 C 0.16465 0.52035 0.69297 0.0
H271 H 0.15503 0.55329 0.64779 0.0
H272 H 0.17307 0.42783 0.88033 0.0
H273 H 0.16646 0.44447 0.8099 0.0
H274 H 0.20269 0.52985 0.84228 0.0
H275 H 0.2088 0.5132 0.9134 0.0
H276 H 0.18153 0.52319 0.77323 0.0
H277 H 0.18341 0.45791 0.74774 0.0
H278 H 0.20246 0.45647 0.67525 0.0
H279 H 0.2038 0.47712 0.60553 0.0
C280 C 0.54304 0.17199 0.37402 0.0
C281 C 0.52768 0.18626 0.40584 0.0
C282 C 0.53142 0.17114 0.33428 0.0
C283 C 0.50421 0.1847 0.32554 0.0
C284 C 0.48834 0.19799 0.3577 0.0
C285 C 0.50004 0.19892 0.39752 0.0
C286 C 0.49164 0.18496 0.28342 0.0
C287 C 0.50848 0.18417 0.24924 0.0
C288 C 0.49587 0.18514 0.20714 0.0
C289 C 0.51294 0.19672 0.17481 0.0
C290 C 0.50134 0.19858 0.13498 0.0
C291 C 0.47254 0.18864 0.12686 0.0
H292 H 0.454 0.16421 0.22232 0.0
C293 C 0.45584 0.17621 0.15891 0.0
C294 C 0.46739 0.17435 0.1986 0.0
H295 H 0.43371 0.16794 0.15344 0.0
H296 H 0.56426 0.16171 0.37965 0.0
H297 H 0.54376 0.1597 0.31065 0.0
H298 H 0.46713 0.20822 0.35184 0.0
H299 H 0.48763 0.20988 0.42157 0.0
H300 H 0.46789 0.18769 0.28069 0.0
H301 H 0.53239 0.18457 0.25197 0.0
H302 H 0.53511 0.20481 0.18051 0.0
H303 H 0.51478 0.20805 0.11072 0.0
C304 C 0.91051 0.49124 0.99077 0.0
C305 C 0.89675 0.51815 0.00094 0.0
C306 C 0.94126 0.48884 0.99032 0.0
C307 C 0.95909 0.5133 0.00024 0.0
C308 C 0.94539 0.54031 0.0097 0.0
C309 C 0.91458 0.54271 0.01025 0.0
C310 C 0.99191 0.51186 -0.00076 0.0
C311 C 0.00749 0.48657 0.00303 0.0
C312 C 0.04031 0.48559 0.00085 0.0
C313 C 0.05562 0.46244 0.02029 0.0
C314 C 0.08655 0.4612 0.01907 0.0
C315 C 0.10275 0.48306 -0.0019 0.0
H316 H 0.0456 0.52434 0.96189 0.0
C317 C 0.08727 0.50567 0.9776 0.0
C318 C 0.05651 0.50686 0.97878 0.0
H319 H 0.0989 0.52263 0.96047 0.0
H320 H 0.89756 0.47186 0.98308 0.0
H321 H 0.95084 0.4679 0.98145 0.0
H322 H 0.95858 0.55963 0.01697 0.0
H323 H 0.9048 0.56381 0.01805 0.0
H324 H 0.0036 0.53277 -0.00327 0.0
H325 H 0.9961 0.46598 0.00962 0.0
H326 H 0.04366 0.4455 0.037 0.0
H327 H 0.09772 0.44339 0.035 0.0
C328 C 0.46374 0.91928 0.51378 0.0
C329 C 0.48255 0.90063 0.49126 0.0
C330 C 0.46997 0.94959 0.51719 0.0
C331 C 0.49516 0.96183 0.49804 0.0
C332 C 0.51324 0.94327 0.47446 0.0
C333 C 0.50713 0.91314 0.47122 0.0
C334 C 0.50333 0.99371 0.50073 0.0
C335 C 0.49294 0.01254 0.52935 0.0
C336 C 0.50067 0.0445 0.52956 0.0
C337 C 0.47923 0.06483 0.54229 0.0
C338 C 0.48472 0.09515 0.54001 0.0
C339 C 0.51207 0.10587 0.52587 0.0
H340 H 0.5459 0.03994 0.50814 0.0
C341 C 0.53425 0.08556 0.51539 0.0
C342 C 0.52855 0.05509 0.51697 0.0
H343 H 0.55554 0.09321 0.5045 0.0
H344 H 0.44457 0.9104 0.52944 0.0
H345 H 0.45486 0.96316 0.53462 0.0
H346 H 0.53254 0.95201 0.4589 0.0
H347 H 0.522 0.89959 0.45322 0.0
H348 H 0.51883 0.00196 0.47791 0.0
H349 H 0.47705 0.00501 0.55204 0.0
H350 H 0.45776 0.05727 0.55264 0.0
H351 H 0.46729 0.11027 0.54876 0.0
C352 C 0.08187 0.53673 0.51052 0.0
C353 C 0.10038 0.51393 0.49671 0.0
C354 C 0.05108 0.53351 0.50847 0.0
C355 C 0.03842 0.50755 0.49207 0.0
C356 C 0.05706 0.48579 0.47582 0.0
C357 C 0.08766 0.48876 0.47852 0.0
C358 C 0.0061 0.50175 0.49229 0.0
C359 C 0.98796 0.51177 0.522 0.0
C360 C 0.95619 0.50349 0.52511 0.0
C361 C 0.93715 0.52214 0.54701 0.0
C362 C 0.90725 0.51513 0.55128 0.0
C363 C 0.89563 0.489 0.53414 0.0
H364 H 0.95885 0.46147 0.49269 0.0
C365 C 0.91481 0.4699 0.51301 0.0
C366 C 0.94476 0.47702 0.50853 0.0
H367 H 0.90667 0.44953 0.49961 0.0
H368 H 0.09114 0.55637 0.5246 0.0
H369 H 0.03733 0.55116 0.52012 0.0
H370 H 0.04794 0.46579 0.46254 0.0
H371 H 0.10142 0.47096 0.46722 0.0
H372 H 0.99756 0.48703 0.46873 0.0
H373 H 0.99665 0.52647 0.54552 0.0
H374 H 0.94536 0.54243 0.5606 0.0
H375 H 0.89325 0.53032 0.56804 0.0
C376 C 0.49556 0.91007 0.04222 0.0
C377 C 0.51886 0.89675 0.02046 0.0
C378 C 0.49036 0.94036 0.03911 0.0
C379 C 0.5084 0.95824 0.0142 0.0
C380 C 0.53176 0.94506 0.99246 0.0
C381 C 0.53715 0.91462 -0.00417 0.0
C382 C 0.50262 0.99044 0.00963 0.0
C383 C 0.49088 0.00675 0.04019 0.0
C384 C 0.48597 0.03904 0.0369 0.0
C385 C 0.49103 0.05665 0.0717 0.0
C386 C 0.48768 0.08725 0.06956 0.0
C387 C 0.47823 0.10076 0.03296 0.0
H388 H 0.47118 0.03926 0.97331 0.0
C389 C 0.47173 0.08315 -0.00144 0.0
C390 C 0.47588 0.05245 0.00036 0.0
H391 H 0.46463 0.0932 0.96994 0.0
H392 H 0.48095 0.89702 0.06143 0.0
H393 H 0.47168 0.9495 0.05549 0.0
H394 H 0.54588 0.95834 0.97284 0.0
H395 H 0.55512 0.90502 0.97841 0.0
H396 H 0.50956 0.00121 0.98131 0.0
H397 H 0.48688 0.99665 0.07003 0.0
H398 H 0.49849 0.04679 0.10029 0.0
H399 H 0.49284 0.10048 0.09645 0.0
C400 C 0.22285 0.35134 0.03412 0.0
C401 C 0.23353 0.37955 0.04445 0.0
C402 C 0.24165 0.3267 0.03604 0.0
C403 C 0.27115 0.33008 0.04907 0.0
C404 C 0.28084 0.358 0.06227 0.0
C405 C 0.26241 0.38252 0.0594 0.0
C406 C 0.29342 0.30607 0.04719 0.0
C407 C 0.29284 0.28338 0.02025 0.0
C408 C 0.31983 0.26549 0.01287 0.0
C409 C 0.31822 0.23474 0.00699 0.0
C410 C 0.34419 0.21796 0.00309 0.0
C411 C 0.37197 0.23189 0.00454 0.0
H412 H 0.34954 0.3032 0.01399 0.0
C413 C 0.37325 0.26283 0.00748 0.0
C414 C 0.34757 0.2794 0.01144 0.0
H415 H 0.39426 0.27433 0.00791 0.0
H416 H 0.20065 0.34864 0.0222 0.0
H417 H 0.23327 0.30537 0.02647 0.0
H418 H 0.30335 0.36123 0.07272 0.0
H419 H 0.27111 0.40409 0.0675 0.0
H420 H 0.31321 0.30923 0.0657 0.0
H421 H 0.27334 0.27885 0.00183 0.0
H422 H 0.29701 0.22362 0.00711 0.0
H423 H 0.34257 0.19413 0.00077 0.0
C424 C 0.78933 0.33703 0.52843 0.0
C425 C 0.78771 0.36002 0.49956 0.0
C426 C 0.77186 0.31166 0.52374 0.0
C427 C 0.75228 0.30917 0.49016 0.0
C428 C 0.75255 0.33137 0.4598 0.0
C429 C 0.76986 0.35672 0.46468 0.0
C430 C 0.72911 0.28583 0.48726 0.0
C431 C 0.7193 0.26956 0.51938 0.0
C432 C 0.69062 0.2535 0.51778 0.0
C433 C 0.6863 0.22746 0.54073 0.0
C434 C 0.65864 0.21328 0.54102 0.0
C435 C 0.63476 0.2254 0.51914 0.0
H436 H 0.66866 0.28612 0.4794 0.0
C437 C 0.63913 0.25166 0.49678 0.0
C438 C 0.6666 0.2655 0.49609 0.0
H439 H 0.62124 0.26174 0.47967 0.0
H440 H 0.80275 0.33945 0.55587 0.0
H441 H 0.77301 0.29481 0.54729 0.0
H442 H 0.73785 0.33008 0.43352 0.0
H443 H 0.76795 0.37451 0.44246 0.0
H444 H 0.71722 0.2844 0.45823 0.0
H445 H 0.73102 0.2695 0.54849 0.0
H446 H 0.70433 0.21807 0.55832 0.0
H447 H 0.65589 0.19313 0.55864 0.0
C448 C 0.78727 0.65998 0.02528 0.0
C449 C 0.77665 0.6338 0.04326 0.0
C450 C 0.76988 0.68565 0.02565 0.0
C451 C 0.74191 0.68538 0.04466 0.0
C452 C 0.73276 0.65977 0.06558 0.0
C453 C 0.74971 0.63414 0.06434 0.0
C454 C 0.72009 0.70968 0.04063 0.0
C455 C 0.71951 0.72967 0.0098 0.0
C456 C 0.69165 0.74562 0.00082 0.0
C457 C 0.69093 0.77644 -0.00442 0.0
C458 C 0.66371 0.79117 0.99188 0.0
C459 C 0.63712 0.77504 0.99291 0.0
H460 H 0.66517 0.70566 0.00119 0.0
C461 C 0.63828 0.74406 -0.00525 0.0
C462 C 0.66516 0.72955 -0.00136 0.0
H463 H 0.61824 0.73093 -0.0051 0.0
H464 H 0.80797 0.66004 0.00856 0.0
H465 H 0.77793 0.70515 0.00994 0.0
H466 H 0.71146 0.65894 0.08074 0.0
H467 H 0.74111 0.61415 0.07834 0.0
H468 H 0.70095 0.70848 0.06085 0.0
H469 H 0.73804 0.73249 0.98901 0.0
H470 H 0.7112 0.78918 -0.00353 0.0
H471 H 0.66342 0.81509 0.99044 0.0
C472 C 0.36357 0.75128 0.54183 0.0
C473 C 0.36288 0.7804 0.52716 0.0
C474 C 0.338 0.73419 0.54267 0.0
C475 C 0.31094 0.74574 0.52863 0.0
C476 C 0.31001 0.7753 0.51519 0.0
C477 C 0.33578 0.79269 0.51495 0.0
C478 C 0.28483 0.72594 0.52359 0.0
C479 C 0.28054 0.70279 0.549 0.0
C480 C 0.26196 0.67653 0.53953 0.0
C481 C 0.27008 0.64984 0.55821 0.0
C482 C 0.25479 0.62388 0.54987 0.0
C483 C 0.2304 0.62378 0.5231 0.0
H484 H 0.2305 0.69705 0.49783 0.0
C485 C 0.22172 0.65053 0.50459 0.0
C486 C 0.23757 0.67676 0.51246 0.0
H487 H 0.20284 0.65116 0.4841 0.0
H488 H 0.38428 0.7412 0.55089 0.0
H489 H 0.34003 0.7113 0.55196 0.0
H490 H 0.28957 0.78462 0.50372 0.0
H491 H 0.33489 0.81496 0.50273 0.0
H492 H 0.27101 0.7289 0.49658 0.0
H493 H 0.29421 0.7012 0.57645 0.0
H494 H 0.28877 0.64889 0.57905 0.0
H495 H 0.26204 0.60384 0.56507 0.0
loop_
_geom_bond_atom_site_label_1
_geom_bond_atom_site_label_2
_geom_bond_distance
_geom_bond_site_symmetry_2
_ccdc_geom_bond_type
Co0 O1 2.216 . S
Co0 O2 2.091 . S
Co0 O4 2.004 . S
Co0 O10 2.021 . S
Co0 O12 2.137 1_554 S
Co0 O13 2.244 1_554 S
O1 Co0 2.216 . S
O1 C8 1.247 . S
O2 Co0 2.091 . S
O2 C8 1.261 . S
C3 O12 1.247 . S
C3 O13 1.272 . S
O4 Co0 2.004 . S
O4 C9 1.259 . S
Co5 O6 2.061 . S
Co5 O11 2.052 . S
Co5 O13 2.135 1_554 S
O6 Co5 2.061 . S
O6 C9 1.235 . S
C7 O10 1.238 . S
C7 O11 1.241 . S
C8 O1 1.247 . S
C8 O2 1.261 . S
C9 O4 1.259 . S
C9 O6 1.235 . S
O10 Co0 2.021 . S
O10 C7 1.238 . S
O11 Co5 2.052 . S
O11 C7 1.241 . S
O12 Co0 2.137 1_556 S
O12 C3 1.247 . S
O13 Co0 2.244 1_556 S
O13 C3 1.272 . S
O13 Co5 2.135 1_556 S
Co14 O15 2.216 . S
Co14 O16 2.091 . S
Co14 O18 2.004 . S
Co14 O24 2.021 . S
Co14 O26 2.137 . S
Co14 O27 2.244 . S
O15 Co14 2.216 . S
O15 C22 1.247 . S
O16 Co14 2.091 . S
O16 C22 1.261 . S
C17 O26 1.247 . S
C17 O27 1.272 . S
O18 Co14 2.004 . S
O18 C23 1.259 . S
Co19 O20 2.061 . S
Co19 O25 2.052 . S
Co19 O27 2.135 . S
O20 Co19 2.061 . S
O20 C23 1.235 . S
C21 O24 1.238 . S
C21 O25 1.241 . S
C22 O15 1.247 . S
C22 O16 1.261 . S
C23 O18 1.259 . S
C23 O20 1.235 . S
O24 Co14 2.021 . S
O24 C21 1.238 . S
O25 Co19 2.052 . S
O25 C21 1.241 . S
O26 Co14 2.137 . S
O26 C17 1.247 . S
O27 Co14 2.244 . S
O27 C17 1.272 . S
O27 Co19 2.135 . S
Co28 O29 2.216 . S
Co28 O30 2.091 . S
Co28 O32 2.004 . S
Co28 O38 2.021 . S
Co28 O40 2.137 1_554 S
Co28 O41 2.244 1_554 S
O29 Co28 2.216 . S
O29 C36 1.247 . S
O30 Co28 2.091 . S
O30 C36 1.261 . S
C31 O40 1.247 . S
C31 O41 1.272 . S
O32 Co28 2.004 . S
O32 C37 1.259 . S
Co33 O34 2.061 . S
Co33 O39 2.052 . S
Co33 O41 2.135 1_554 S
O34 Co33 2.061 . S
O34 C37 1.235 . S
C35 O38 1.238 . S
C35 O39 1.241 . S
C36 O29 1.247 . S
C36 O30 1.261 . S
C37 O32 1.259 . S
C37 O34 1.235 . S
O38 Co28 2.021 . S
O38 C35 1.238 . S
O39 Co33 2.052 . S
O39 C35 1.241 . S
O40 Co28 2.137 1_556 S
O40 C31 1.247 . S
O41 Co28 2.244 1_556 S
O41 C31 1.272 . S
O41 Co33 2.135 1_556 S
Co42 O43 2.216 . S
Co42 O44 2.091 . S
Co42 O46 2.004 . S
Co42 O52 2.021 . S
Co42 O54 2.137 . S
Co42 O55 2.244 . S
O43 Co42 2.216 . S
O43 C50 1.247 . S
O44 Co42 2.091 . S
O44 C50 1.261 . S
C45 O54 1.247 . S
C45 O55 1.272 . S
O46 Co42 2.004 . S
O46 C51 1.259 . S
Co47 O48 2.061 . S
Co47 O53 2.052 . S
Co47 O55 2.135 . S
O48 Co47 2.061 . S
O48 C51 1.235 . S
C49 O52 1.238 . S
C49 O53 1.241 . S
C50 O43 1.247 . S
C50 O44 1.261 . S
C51 O46 1.259 . S
C51 O48 1.235 . S
O52 Co42 2.021 . S
O52 C49 1.238 . S
O53 Co47 2.052 . S
O53 C49 1.241 . S
O54 Co42 2.137 . S
O54 C45 1.247 . S
O55 Co42 2.244 . S
O55 C45 1.272 . S
O55 Co47 2.135 . S
Co56 O57 2.216 . S
Co56 O58 2.091 . S
Co56 O60 2.004 . S
Co56 O66 2.021 . S
Co56 O68 2.137 . S
Co56 O69 2.244 . S
O57 Co56 2.216 . S
O57 C64 1.247 . S
O58 Co56 2.091 . S
O58 C64 1.261 . S
C59 O68 1.247 . S
C59 O69 1.272 . S
O60 Co56 2.004 . S
O60 C65 1.259 . S
Co61 O62 2.061 . S
Co61 O67 2.052 . S
Co61 O69 2.135 . S
O62 Co61 2.061 . S
O62 C65 1.235 . S
C63 O66 1.238 . S
C63 O67 1.241 . S
C64 O57 1.247 . S
C64 O58 1.261 . S
C65 O60 1.259 . S
C65 O62 1.235 . S
O66 Co56 2.021 . S
O66 C63 1.238 . S
O67 Co61 2.052 . S
O67 C63 1.241 . S
O68 Co56 2.137 . S
O68 C59 1.247 . S
O69 Co56 2.244 . S
O69 C59 1.272 . S
O69 Co61 2.135 . S
Co70 O71 2.216 . S
Co70 O72 2.091 . S
Co70 O74 2.004 . S
Co70 O80 2.021 1_554 S
Co70 O82 2.137 . S
Co70 O83 2.244 . S
O71 Co70 2.216 . S
O71 C78 1.247 . S
O72 Co70 2.091 . S
O72 C78 1.261 . S
C73 O82 1.247 . S
C73 O83 1.272 . S
O74 Co70 2.004 . S
O74 C79 1.259 . S
Co75 O76 2.061 . S
Co75 O81 2.052 1_554 S
Co75 O83 2.135 . S
O76 Co75 2.061 . S
O76 C79 1.235 . S
C77 O80 1.238 . S
C77 O81 1.241 . S
C78 O71 1.247 . S
C78 O72 1.261 . S
C79 O74 1.259 . S
C79 O76 1.235 . S
O80 Co70 2.021 1_556 S
O80 C77 1.238 . S
O81 Co75 2.052 1_556 S
O81 C77 1.241 . S
O82 Co70 2.137 . S
O82 C73 1.247 . S
O83 Co70 2.244 . S
O83 C73 1.272 . S
O83 Co75 2.135 . S
Co84 O85 2.216 . S
Co84 O86 2.091 . S
Co84 O88 2.004 . S
Co84 O94 2.021 . S
Co84 O96 2.137 . S
Co84 O97 2.244 . S
O85 Co84 2.216 . S
O85 C92 1.247 . S
O86 Co84 2.091 . S
O86 C92 1.261 . S
C87 O96 1.247 . S
C87 O97 1.272 . S
O88 Co84 2.004 . S
O88 C93 1.259 . S
Co89 O90 2.061 . S
Co89 O95 2.052 . S
Co89 O97 2.135 . S
O90 Co89 2.061 . S
O90 C93 1.235 . S
C91 O94 1.238 . S
C91 O95 1.241 . S
C92 O85 1.247 . S
C92 O86 1.261 . S
C93 O88 1.259 . S
C93 O90 1.235 . S
O94 Co84 2.021 . S
O94 C91 1.238 . S
O95 Co89 2.052 . S
O95 C91 1.241 . S
O96 Co84 2.137 . S
O96 C87 1.247 . S
O97 Co84 2.244 . S
O97 C87 1.272 . S
O97 Co89 2.135 . S
Co98 O99 2.216 . S
Co98 O100 2.091 . S
Co98 O102 2.004 . S
Co98 O108 2.021 1_554 S
Co98 O110 2.137 . S
Co98 O111 2.244 . S
O99 Co98 2.216 . S
O99 C106 1.247 . S
O100 Co98 2.091 . S
O100 C106 1.261 . S
C101 O110 1.247 . S
C101 O111 1.272 . S
O102 Co98 2.004 . S
O102 C107 1.259 . S
Co103 O104 2.061 . S
Co103 O109 2.052 1_554 S
Co103 O111 2.135 . S
O104 Co103 2.061 . S
O104 C107 1.235 . S
C105 O108 1.238 . S
C105 O109 1.241 . S
C106 O99 1.247 . S
C106 O100 1.261 . S
C107 O102 1.259 . S
C107 O104 1.235 . S
O108 Co98 2.021 1_556 S
O108 C105 1.238 . S
O109 Co103 2.052 1_556 S
O109 C105 1.241 . S
O110 Co98 2.137 . S
O110 C101 1.247 . S
O111 Co98 2.244 . S
O111 C101 1.272 . S
O111 Co103 2.135 . S
C112 C113 1.386 . S
C112 C114 1.383 . S
C112 H128 0.951 . S
C113 C112 1.386 . S
C113 C117 1.383 . S
C114 C112 1.383 . S
C114 C115 1.402 . S
C114 H129 0.951 . S
C115 C114 1.402 . S
C115 C116 1.375 . S
C115 C118 1.481 . S
C116 C115 1.375 . S
C116 C117 1.367 . S
C116 H130 0.951 . S
C117 C113 1.383 . S
C117 C116 1.367 . S
C117 H131 0.950 . S
C118 C115 1.481 . S
C118 C119 1.297 . S
C118 H132 0.950 . S
C119 C118 1.297 . S
C119 C120 1.479 . S
C119 H133 0.950 . S
C120 C119 1.479 . S
C120 C121 1.375 . S
C120 C126 1.404 . S
C121 C120 1.375 . S
C121 C122 1.369 . S
C121 H134 0.950 . S
C122 C121 1.369 . S
C122 C123 1.392 . S
C122 H135 0.951 . S
C123 C122 1.392 . S
C123 C125 1.384 . S
H124 C126 0.949 . S
C125 C123 1.384 . S
C125 C126 1.385 . S
C125 H127 0.950 . S
C126 C120 1.404 . S
C126 H124 0.949 . S
C126 C125 1.385 . S
H127 C125 0.950 . S
H128 C112 0.951 . S
H129 C114 0.951 . S
H130 C116 0.951 . S
H131 C117 0.950 . S
H132 C118 0.950 . S
H133 C119 0.950 . S
H134 C121 0.950 . S
H135 C122 0.951 . S
C136 C137 1.386 . S
C136 C138 1.383 . S
C136 H152 0.951 . S
C137 C136 1.386 . S
C137 C141 1.383 . S
C138 C136 1.383 . S
C138 C139 1.402 . S
C138 H153 0.951 . S
C139 C138 1.402 . S
C139 C140 1.375 . S
C139 C142 1.481 . S
C140 C139 1.375 . S
C140 C141 1.367 . S
C140 H154 0.951 . S
C141 C137 1.383 . S
C141 C140 1.367 . S
C141 H155 0.950 . S
C142 C139 1.481 . S
C142 C143 1.297 . S
C142 H156 0.950 . S
C143 C142 1.297 . S
C143 C144 1.479 . S
C143 H157 0.950 . S
C144 C143 1.479 . S
C144 C145 1.375 . S
C144 C150 1.404 . S
C145 C144 1.375 . S
C145 C146 1.369 . S
C145 H158 0.950 . S
C146 C145 1.369 . S
C146 C147 1.392 . S
C146 H159 0.951 . S
C147 C146 1.392 . S
C147 C149 1.384 . S
H148 C150 0.949 . S
C149 C147 1.384 . S
C149 C150 1.385 . S
C149 H151 0.950 . S
C150 C144 1.404 . S
C150 H148 0.949 . S
C150 C149 1.385 . S
H151 C149 0.950 . S
H152 C136 0.951 . S
H153 C138 0.951 . S
H154 C140 0.951 . S
H155 C141 0.950 . S
H156 C142 0.950 . S
H157 C143 0.950 . S
H158 C145 0.950 . S
H159 C146 0.951 . S
C160 C161 1.386 . S
C160 C162 1.383 . S
C160 H176 0.951 . S
C161 C160 1.386 . S
C161 C165 1.383 . S
C162 C160 1.383 . S
C162 C163 1.402 . S
C162 H177 0.951 . S
C163 C162 1.402 . S
C163 C164 1.375 . S
C163 C166 1.481 . S
C164 C163 1.375 . S
C164 C165 1.367 . S
C164 H178 0.951 . S
C165 C161 1.383 . S
C165 C164 1.367 . S
C165 H179 0.950 . S
C166 C163 1.481 . S
C166 C167 1.297 . S
C166 H180 0.950 . S
C167 C166 1.297 . S
C167 C168 1.479 . S
C167 H181 0.950 . S
C168 C167 1.479 . S
C168 C169 1.375 . S
C168 C174 1.404 . S
C169 C168 1.375 . S
C169 C170 1.369 . S
C169 H182 0.950 . S
C170 C169 1.369 . S
C170 C171 1.392 . S
C170 H183 0.951 . S
C171 C170 1.392 . S
C171 C173 1.384 . S
H172 C174 0.949 . S
C173 C171 1.384 . S
C173 C174 1.385 . S
C173 H175 0.950 . S
C174 C168 1.404 . S
C174 H172 0.949 . S
C174 C173 1.385 . S
H175 C173 0.950 . S
H176 C160 0.951 . S
H177 C162 0.951 . S
H178 C164 0.951 . S
H179 C165 0.950 . S
H180 C166 0.950 . S
H181 C167 0.950 . S
H182 C169 0.950 . S
H183 C170 0.951 . S
C184 C185 1.386 . S
C184 C186 1.383 . S
C184 H200 0.951 . S
C185 C184 1.386 . S
C185 C189 1.383 . S
C186 C184 1.383 . S
C186 C187 1.402 . S
C186 H201 0.951 . S
C187 C186 1.402 . S
C187 C188 1.375 . S
C187 C190 1.481 . S
C188 C187 1.375 . S
C188 C189 1.367 . S
C188 H202 0.951 . S
C189 C185 1.383 . S
C189 C188 1.367 . S
C189 H203 0.950 . S
C190 C187 1.481 . S
C190 C191 1.297 . S
C190 H204 0.950 . S
C191 C190 1.297 . S
C191 C192 1.479 . S
C191 H205 0.950 . S
C192 C191 1.479 . S
C192 C193 1.375 . S
C192 C198 1.404 . S
C193 C192 1.375 . S
C193 C194 1.369 . S
C193 H206 0.950 . S
C194 C193 1.369 . S
C194 C195 1.392 . S
C194 H207 0.951 . S
C195 C194 1.392 . S
C195 C197 1.384 . S
H196 C198 0.949 . S
C197 C195 1.384 . S
C197 C198 1.385 . S
C197 H199 0.950 . S
C198 C192 1.404 . S
C198 H196 0.949 . S
C198 C197 1.385 . S
H199 C197 0.950 . S
H200 C184 0.951 . S
H201 C186 0.951 . S
H202 C188 0.951 . S
H203 C189 0.950 . S
H204 C190 0.950 . S
H205 C191 0.950 . S
H206 C193 0.950 . S
H207 C194 0.951 . S
C208 C209 1.386 . S
C208 C210 1.383 . S
C208 H224 0.951 . S
C209 C208 1.386 . S
C209 C213 1.383 . S
C210 C208 1.383 . S
C210 C211 1.402 . S
C210 H225 0.951 . S
C211 C210 1.402 . S
C211 C212 1.375 . S
C211 C214 1.481 . S
C212 C211 1.375 . S
C212 C213 1.367 . S
C212 H226 0.951 . S
C213 C209 1.383 . S
C213 C212 1.367 . S
C213 H227 0.950 . S
C214 C211 1.481 . S
C214 C215 1.297 . S
C214 H228 0.950 . S
C215 C214 1.297 . S
C215 C216 1.479 . S
C215 H229 0.950 . S
C216 C215 1.479 . S
C216 C217 1.375 . S
C216 C222 1.404 . S
C217 C216 1.375 . S
C217 C218 1.369 . S
C217 H230 0.950 . S
C218 C217 1.369 . S
C218 C219 1.392 . S
C218 H231 0.951 . S
C219 C218 1.392 . S
C219 C221 1.384 . S
H220 C222 0.949 . S
C221 C219 1.384 . S
C221 C222 1.385 . S
C221 H223 0.950 . S
C222 C216 1.404 . S
C222 H220 0.949 . S
C222 C221 1.385 . S
H223 C221 0.950 . S
H224 C208 0.951 . S
H225 C210 0.951 . S
H226 C212 0.951 . S
H227 C213 0.950 . S
H228 C214 0.950 . S
H229 C215 0.950 . S
H230 C217 0.950 . S
H231 C218 0.951 . S
C232 C233 1.386 . S
C232 C234 1.383 . S
C232 H248 0.951 . S
C233 C232 1.386 . S
C233 C237 1.383 . S
C234 C232 1.383 . S
C234 C235 1.402 . S
C234 H249 0.951 . S
C235 C234 1.402 . S
C235 C236 1.375 . S
C235 C238 1.481 . S
C236 C235 1.375 . S
C236 C237 1.367 . S
C236 H250 0.951 . S
C237 C233 1.383 . S
C237 C236 1.367 . S
C237 H251 0.950 . S
C238 C235 1.481 . S
C238 C239 1.297 . S
C238 H252 0.950 . S
C239 C238 1.297 . S
C239 C240 1.479 . S
C239 H253 0.950 . S
C240 C239 1.479 . S
C240 C241 1.375 . S
C240 C246 1.404 . S
C241 C240 1.375 . S
C241 C242 1.369 . S
C241 H254 0.950 . S
C242 C241 1.369 . S
C242 C243 1.392 . S
C242 H255 0.951 . S
C243 C242 1.392 . S
C243 C245 1.384 . S
H244 C246 0.949 . S
C245 C243 1.384 . S
C245 C246 1.385 . S
C245 H247 0.950 . S
C246 C240 1.404 . S
C246 H244 0.949 . S
C246 C245 1.385 . S
H247 C245 0.950 . S
H248 C232 0.951 . S
H249 C234 0.951 . S
H250 C236 0.951 . S
H251 C237 0.950 . S
H252 C238 0.950 . S
H253 C239 0.950 . S
H254 C241 0.950 . S
H255 C242 0.951 . S
C256 C257 1.386 . S
C256 C258 1.383 . S
C256 H272 0.951 . S
C257 C256 1.386 . S
C257 C261 1.383 . S
C258 C256 1.383 . S
C258 C259 1.402 . S
C258 H273 0.951 . S
C259 C258 1.402 . S
C259 C260 1.375 . S
C259 C262 1.481 . S
C260 C259 1.375 . S
C260 C261 1.367 . S
C260 H274 0.951 . S
C261 C257 1.383 . S
C261 C260 1.367 . S
C261 H275 0.950 . S
C262 C259 1.481 . S
C262 C263 1.297 . S
C262 H276 0.950 . S
C263 C262 1.297 . S
C263 C264 1.479 . S
C263 H277 0.950 . S
C264 C263 1.479 . S
C264 C265 1.375 . S
C264 C270 1.404 . S
C265 C264 1.375 . S
C265 C266 1.369 . S
C265 H278 0.950 . S
C266 C265 1.369 . S
C266 C267 1.392 . S
C266 H279 0.951 . S
C267 C266 1.392 . S
C267 C269 1.384 . S
H268 C270 0.949 . S
C269 C267 1.384 . S
C269 C270 1.385 . S
C269 H271 0.950 . S
C270 C264 1.404 . S
C270 H268 0.949 . S
C270 C269 1.385 . S
H271 C269 0.950 . S
H272 C256 0.951 . S
H273 C258 0.951 . S
H274 C260 0.951 . S
H275 C261 0.950 . S
H276 C262 0.950 . S
H277 C263 0.950 . S
H278 C265 0.950 . S
H279 C266 0.951 . S
C280 C281 1.386 . S
C280 C282 1.383 . S
C280 H296 0.951 . S
C281 C280 1.386 . S
C281 C285 1.383 . S
C282 C280 1.383 . S
C282 C283 1.402 . S
C282 H297 0.951 . S
C283 C282 1.402 . S
C283 C284 1.375 . S
C283 C286 1.481 . S
C284 C283 1.375 . S
C284 C285 1.367 . S
C284 H298 0.951 . S
C285 C281 1.383 . S
C285 C284 1.367 . S
C285 H299 0.950 . S
C286 C283 1.481 . S
C286 C287 1.297 . S
C286 H300 0.950 . S
C287 C286 1.297 . S
C287 C288 1.479 . S
C287 H301 0.950 . S
C288 C287 1.479 . S
C288 C289 1.375 . S
C288 C294 1.404 . S
C289 C288 1.375 . S
C289 C290 1.369 . S
C289 H302 0.950 . S
C290 C289 1.369 . S
C290 C291 1.392 . S
C290 H303 0.951 . S
C291 C290 1.392 . S
C291 C293 1.384 . S
H292 C294 0.949 . S
C293 C291 1.384 . S
C293 C294 1.385 . S
C293 H295 0.950 . S
C294 C288 1.404 . S
C294 H292 0.949 . S
C294 C293 1.385 . S
H295 C293 0.950 . S
H296 C280 0.951 . S
H297 C282 0.951 . S
H298 C284 0.951 . S
H299 C285 0.950 . S
H300 C286 0.950 . S
H301 C287 0.950 . S
H302 C289 0.950 . S
H303 C290 0.951 . S
C304 C305 1.386 . S
C304 C306 1.383 . S
C304 H320 0.951 . S
C305 C304 1.386 . S
C305 C309 1.383 1_554 S
C306 C304 1.383 . S
C306 C307 1.402 . S
C306 H321 0.951 . S
C307 C306 1.402 . S
C307 C308 1.375 1_554 S
C307 C310 1.481 1_554 S
C308 C307 1.375 1_556 S
C308 C309 1.367 . S
C308 H322 0.951 . S
C309 C305 1.383 1_556 S
C309 C308 1.367 . S
C309 H323 0.950 . S
C310 C307 1.481 1_556 S
C310 C311 1.297 1_656 S
C310 H324 0.950 1_655 S
C311 C310 1.297 1_454 S
C311 C312 1.479 . S
C311 H325 0.950 1_455 S
C312 C311 1.479 . S
C312 C313 1.375 . S
C312 C318 1.404 1_554 S
C313 C312 1.375 . S
C313 C314 1.369 . S
C313 H326 0.950 . S
C314 C313 1.369 . S
C314 C315 1.392 . S
C314 H327 0.951 . S
C315 C314 1.392 . S
C315 C317 1.384 1_554 S
H316 C318 0.949 . S
C317 C315 1.384 1_556 S
C317 C318 1.385 . S
C317 H319 0.950 . S
C318 C312 1.404 1_556 S
C318 H316 0.949 . S
C318 C317 1.385 . S
H319 C317 0.950 . S
H320 C304 0.951 . S
H321 C306 0.951 . S
H322 C308 0.951 . S
H323 C309 0.950 . S
H324 C310 0.950 1_455 S
H325 C311 0.950 1_655 S
H326 C313 0.950 . S
H327 C314 0.951 . S
C328 C329 1.386 . S
C328 C330 1.383 . S
C328 H344 0.951 . S
C329 C328 1.386 . S
C329 C333 1.383 . S
C330 C328 1.383 . S
C330 C331 1.402 . S
C330 H345 0.951 . S
C331 C330 1.402 . S
C331 C332 1.375 . S
C331 C334 1.481 . S
C332 C331 1.375 . S
C332 C333 1.367 . S
C332 H346 0.951 . S
C333 C329 1.383 . S
C333 C332 1.367 . S
C333 H347 0.950 . S
C334 C331 1.481 . S
C334 C335 1.297 1_565 S
C334 H348 0.950 . S
C335 C334 1.297 1_545 S
C335 C336 1.479 . S
C335 H349 0.950 . S
C336 C335 1.479 . S
C336 C337 1.375 . S
C336 C342 1.404 . S
C337 C336 1.375 . S
C337 C338 1.369 . S
C337 H350 0.950 . S
C338 C337 1.369 . S
C338 C339 1.392 . S
C338 H351 0.951 . S
C339 C338 1.392 . S
C339 C341 1.384 . S
H340 C342 0.949 . S
C341 C339 1.384 . S
C341 C342 1.385 . S
C341 H343 0.950 . S
C342 C336 1.404 . S
C342 H340 0.949 . S
C342 C341 1.385 . S
H343 C341 0.950 . S
H344 C328 0.951 . S
H345 C330 0.951 . S
H346 C332 0.951 . S
H347 C333 0.950 . S
H348 C334 0.950 . S
H349 C335 0.950 . S
H350 C337 0.950 . S
H351 C338 0.951 . S
C352 C353 1.386 . S
C352 C354 1.383 . S
C352 H368 0.951 . S
C353 C352 1.386 . S
C353 C357 1.383 . S
C354 C352 1.383 . S
C354 C355 1.402 . S
C354 H369 0.951 . S
C355 C354 1.402 . S
C355 C356 1.375 . S
C355 C358 1.481 . S
C356 C355 1.375 . S
C356 C357 1.367 . S
C356 H370 0.951 . S
C357 C353 1.383 . S
C357 C356 1.367 . S
C357 H371 0.950 . S
C358 C355 1.481 . S
C358 C359 1.297 1_455 S
C358 H372 0.950 . S
C359 C358 1.297 1_655 S
C359 C360 1.479 . S
C359 H373 0.950 . S
C360 C359 1.479 . S
C360 C361 1.375 . S
C360 C366 1.404 . S
C361 C360 1.375 . S
C361 C362 1.369 . S
C361 H374 0.950 . S
C362 C361 1.369 . S
C362 C363 1.392 . S
C362 H375 0.951 . S
C363 C362 1.392 . S
C363 C365 1.384 . S
H364 C366 0.949 . S
C365 C363 1.384 . S
C365 C366 1.385 . S
C365 H367 0.950 . S
C366 C360 1.404 . S
C366 H364 0.949 . S
C366 C365 1.385 . S
H367 C365 0.950 . S
H368 C352 0.951 . S
H369 C354 0.951 . S
H370 C356 0.951 . S
H371 C357 0.950 . S
H372 C358 0.950 . S
H373 C359 0.950 . S
H374 C361 0.950 . S
H375 C362 0.951 . S
C376 C377 1.386 . S
C376 C378 1.383 . S
C376 H392 0.951 . S
C377 C376 1.386 . S
C377 C381 1.383 1_554 S
C378 C376 1.383 . S
C378 C379 1.402 . S
C378 H393 0.951 . S
C379 C378 1.402 . S
C379 C380 1.375 1_554 S
C379 C382 1.481 . S
C380 C379 1.375 1_556 S
C380 C381 1.367 . S
C380 H394 0.951 . S
C381 C377 1.383 1_556 S
C381 C380 1.367 . S
C381 H395 0.950 . S
C382 C379 1.481 . S
C382 C383 1.297 1_565 S
C382 H396 0.950 1_554 S
C383 C382 1.297 1_545 S
C383 C384 1.479 . S
C383 H397 0.950 . S
C384 C383 1.479 . S
C384 C385 1.375 . S
C384 C390 1.404 1_554 S
C385 C384 1.375 . S
C385 C386 1.369 . S
C385 H398 0.950 . S
C386 C385 1.369 . S
C386 C387 1.392 . S
C386 H399 0.951 . S
C387 C386 1.392 . S
C387 C389 1.384 1_554 S
H388 C390 0.949 . S
C389 C387 1.384 1_556 S
C389 C390 1.385 . S
C389 H391 0.950 . S
C390 C384 1.404 1_556 S
C390 H388 0.949 . S
C390 C389 1.385 . S
H391 C389 0.950 . S
H392 C376 0.951 . S
H393 C378 0.951 . S
H394 C380 0.951 . S
H395 C381 0.950 . S
H396 C382 0.950 1_556 S
H397 C383 0.950 . S
H398 C385 0.950 . S
H399 C386 0.951 . S
C400 C401 1.386 . S
C400 C402 1.383 . S
C400 H416 0.951 . S
C401 C400 1.386 . S
C401 C405 1.383 . S
C402 C400 1.383 . S
C402 C403 1.402 . S
C402 H417 0.951 . S
C403 C402 1.402 . S
C403 C404 1.375 . S
C403 C406 1.481 . S
C404 C403 1.375 . S
C404 C405 1.367 . S
C404 H418 0.951 . S
C405 C401 1.383 . S
C405 C404 1.367 . S
C405 H419 0.950 . S
C406 C403 1.481 . S
C406 C407 1.297 . S
C406 H420 0.950 . S
C407 C406 1.297 . S
C407 C408 1.479 . S
C407 H421 0.950 . S
C408 C407 1.479 . S
C408 C409 1.375 . S
C408 C414 1.407 . S
C409 C408 1.375 . S
C409 C410 1.369 . S
C409 H422 0.950 . S
C410 C409 1.369 . S
C410 C411 1.392 . S
C410 H423 0.951 . S
C411 C410 1.392 . S
C411 C413 1.384 . S
H412 C414 0.943 1_556 S
C413 C411 1.384 . S
C413 C414 1.389 . S
C413 H415 0.950 . S
C414 C408 1.407 . S
C414 H412 0.943 1_554 S
C414 C413 1.389 . S
H415 C413 0.950 . S
H416 C400 0.951 . S
H417 C402 0.951 . S
H418 C404 0.951 . S
H419 C405 0.950 . S
H420 C406 0.950 . S
H421 C407 0.950 . S
H422 C409 0.950 . S
H423 C410 0.951 . S
C424 C425 1.386 . S
C424 C426 1.383 . S
C424 H440 0.951 . S
C425 C424 1.386 . S
C425 C429 1.383 . S
C426 C424 1.383 . S
C426 C427 1.402 . S
C426 H441 0.951 . S
C427 C426 1.402 . S
C427 C428 1.375 . S
C427 C430 1.481 . S
C428 C427 1.375 . S
C428 C429 1.367 . S
C428 H442 0.951 . S
C429 C425 1.383 . S
C429 C428 1.367 . S
C429 H443 0.950 . S
C430 C427 1.481 . S
C430 C431 1.297 . S
C430 H444 0.950 . S
C431 C430 1.297 . S
C431 C432 1.479 . S
C431 H445 0.950 . S
C432 C431 1.479 . S
C432 C433 1.375 . S
C432 C438 1.404 . S
C433 C432 1.375 . S
C433 C434 1.369 . S
C433 H446 0.950 . S
C434 C433 1.369 . S
C434 C435 1.392 . S
C434 H447 0.951 . S
C435 C434 1.392 . S
C435 C437 1.384 . S
H436 C438 0.949 . S
C437 C435 1.384 . S
C437 C438 1.385 . S
C437 H439 0.950 . S
C438 C432 1.404 . S
C438 H436 0.949 . S
C438 C437 1.385 . S
H439 C437 0.950 . S
H440 C424 0.951 . S
H441 C426 0.951 . S
H442 C428 0.951 . S
H443 C429 0.950 . S
H444 C430 0.950 . S
H445 C431 0.950 . S
H446 C433 0.950 . S
H447 C434 0.951 . S
C448 C449 1.386 1_556 S
C448 C450 1.383 . S
C448 H464 0.951 . S
C449 C448 1.386 1_554 S
C449 C453 1.383 . S
C450 C448 1.383 . S
C450 C451 1.402 1_556 S
C450 H465 0.951 . S
C451 C450 1.402 1_554 S
C451 C452 1.375 . S
C451 C454 1.481 . S
C452 C451 1.375 . S
C452 C453 1.367 . S
C452 H466 0.951 . S
C453 C449 1.383 . S
C453 C452 1.367 . S
C453 H467 0.950 . S
C454 C451 1.481 . S
C454 C455 1.297 . S
C454 H468 0.950 . S
C455 C454 1.297 . S
C455 C456 1.479 . S
C455 H469 0.950 1_554 S
C456 C455 1.479 . S
C456 C457 1.375 1_554 S
C456 C462 1.404 . S
C457 C456 1.375 1_556 S
C457 C458 1.369 . S
C457 H470 0.950 . S
C458 C457 1.369 . S
C458 C459 1.392 1_556 S
C458 H471 0.951 . S
C459 C458 1.392 1_554 S
C459 C461 1.384 . S
H460 C462 0.949 . S
C461 C459 1.384 . S
C461 C462 1.385 . S
C461 H463 0.950 . S
C462 C456 1.404 . S
C462 H460 0.949 . S
C462 C461 1.385 . S
H463 C461 0.950 . S
H464 C448 0.951 . S
H465 C450 0.951 . S
H466 C452 0.951 . S
H467 C453 0.950 . S
H468 C454 0.950 . S
H469 C455 0.950 1_556 S
H470 C457 0.950 . S
H471 C458 0.951 . S
C472 C473 1.386 . S
C472 C474 1.383 . S
C472 H488 0.951 . S
C473 C472 1.386 . S
C473 C477 1.383 . S
C474 C472 1.383 . S
C474 C475 1.402 . S
C474 H489 0.951 . S
C475 C474 1.402 . S
C475 C476 1.375 . S
C475 C478 1.481 . S
C476 C475 1.375 . S
C476 C477 1.367 . S
C476 H490 0.951 . S
C477 C473 1.383 . S
C477 C476 1.367 . S
C477 H491 0.950 . S
C478 C475 1.481 . S
C478 C479 1.297 . S
C478 H492 0.950 . S
C479 C478 1.297 . S
C479 C480 1.479 . S
C479 H493 0.950 . S
C480 C479 1.479 . S
C480 C481 1.375 . S
C480 C486 1.404 . S
C481 C480 1.375 . S
C481 C482 1.369 . S
C481 H494 0.950 . S
C482 C481 1.369 . S
C482 C483 1.392 . S
C482 H495 0.951 . S
C483 C482 1.392 . S
C483 C485 1.384 . S
H484 C486 0.949 . S
C485 C483 1.384 . S
C485 C486 1.385 . S
C485 H487 0.950 . S
C486 C480 1.404 . S
C486 H484 0.949 . S
C486 C485 1.385 . S
H487 C485 0.950 . S
H488 C472 0.951 . S
H489 C474 0.951 . S
H490 C476 0.951 . S
H491 C477 0.950 . S
H492 C478 0.950 . S
H493 C479 0.950 . S
H494 C481 0.950 . S
H495 C482 0.951 . S
C113 C7 1.256 . S
C123 C63 1.284 . S
C137 C21 1.231 . S
C147 C77 1.213 . S
C161 C91 1.228 . S
C171 C35 1.226 . S
C185 C105 1.234 . S
C195 C49 1.209 . S
C209 C87 1.101 . S
C219 C31 1.183 . S
C233 C101 1.149 . S
C243 C45 1.097 . S
C257 C3 1.153 . S
C267 C59 1.107 . S
C281 C17 1.119 . S
C291 C73 1.166 . S
C305 C37 1.318 . S
C315 C9 1.357 . S
C329 C51 1.290 . S
C339 C23 1.348 . S
C353 C65 1.320 . S
C363 C93 1.277 . S
C377 C107 1.339 . S
C387 C79 1.262 . S
C401 C8 1.325 . S
C411 C78 1.333 . S
C425 C92 1.331 . S
C435 C22 1.324 . S
C449 C36 1.332 . S
C459 C106 1.323 . S
C473 C50 1.336 . S
C483 C64 1.314 . S
