# Generated by pormake.
# Topology ume, (4)-cn, num edge types: 1
# Building blocks:
#     Node 0, Type 0, BuildingBlock: KOZSID_clean_sbu_0, # of connection points: 4
#     Node 1, Type 0, BuildingBlock: KOZSID_clean_sbu_0, # of connection points: 4
#     Node 2, Type 0, BuildingBlock: KOZSID_clean_sbu_0, # of connection points: 4
#     Node 3, Type 0, BuildingBlock: KOZSID_clean_sbu_0, # of connection points: 4
#     Node 4, Type 0, BuildingBlock: KOZSID_clean_sbu_0, # of connection points: 4
#     Node 5, Type 0, BuildingBlock: KOZSID_clean_sbu_0, # of connection points: 4
#     Node 6, Type 0, BuildingBlock: KOZSID_clean_sbu_0, # of connection points: 4
#     Node 7, Type 0, BuildingBlock: KOZSID_clean_sbu_0, # of connection points: 4
#     Node 8, Type 0, BuildingBlock: KOZSID_clean_sbu_0, # of connection points: 4
#     Node 9, Type 0, BuildingBlock: KOZSID_clean_sbu_0, # of connection points: 4
#     Node 10, Type 0, BuildingBlock: KOZSID_clean_sbu_0, # of connection points: 4
#     Node 11, Type 0, BuildingBlock: KOZSID_clean_sbu_0, # of connection points: 4
#     Node 12, Type 0, BuildingBlock: KOZSID_clean_sbu_0, # of connection points: 4
#     Node 13, Type 0, BuildingBlock: KOZSID_clean_sbu_0, # of connection points: 4
#     Node 14, Type 0, BuildingBlock: KOZSID_clean_sbu_0, # of connection points: 4
#     Node 15, Type 0, BuildingBlock: KOZSID_clean_sbu_0, # of connection points: 4
#     Edge 16, Type (0, 0), BuildingBlock: UVAHIK_clean_linker_0, # of connection points: 2
#     Edge 17, Type (0, 0), BuildingBlock: UVAHIK_clean_linker_0, # of connection points: 2
#     Edge 18, Type (0, 0), BuildingBlock: UVAHIK_clean_linker_0, # of connection points: 2
#     Edge 19, Type (0, 0), BuildingBlock: UVAHIK_clean_linker_0, # of connection points: 2
#     Edge 20, Type (0, 0), BuildingBlock: UVAHIK_clean_linker_0, # of connection points: 2
#     Edge 21, Type (0, 0), BuildingBlock: UVAHIK_clean_linker_0, # of connection points: 2
#     Edge 22, Type (0, 0), BuildingBlock: UVAHIK_clean_linker_0, # of connection points: 2
#     Edge 23, Type (0, 0), BuildingBlock: UVAHIK_clean_linker_0, # of connection points: 2
#     Edge 24, Type (0, 0), BuildingBlock: UVAHIK_clean_linker_0, # of connection points: 2
#     Edge 25, Type (0, 0), BuildingBlock: UVAHIK_clean_linker_0, # of connection points: 2
#     Edge 26, Type (0, 0), BuildingBlock: UVAHIK_clean_linker_0, # of connection points: 2
#     Edge 27, Type (0, 0), BuildingBlock: UVAHIK_clean_linker_0, # of connection points: 2
#     Edge 28, Type (0, 0), BuildingBlock: UVAHIK_clean_linker_0, # of connection points: 2
#     Edge 29, Type (0, 0), BuildingBlock: UVAHIK_clean_linker_0, # of connection points: 2
#     Edge 30, Type (0, 0), BuildingBlock: UVAHIK_clean_linker_0, # of connection points: 2
#     Edge 31, Type (0, 0), BuildingBlock: UVAHIK_clean_linker_0, # of connection points: 2
#     Edge 32, Type (0, 0), BuildingBlock: UVAHIK_clean_linker_0, # of connection points: 2
#     Edge 33, Type (0, 0), BuildingBlock: UVAHIK_clean_linker_0, # of connection points: 2
#     Edge 34, Type (0, 0), BuildingBlock: UVAHIK_clean_linker_0, # of connection points: 2
#     Edge 35, Type (0, 0), BuildingBlock: UVAHIK_clean_linker_0, # of connection points: 2
#     Edge 36, Type (0, 0), BuildingBlock: UVAHIK_clean_linker_0, # of connection points: 2
#     Edge 37, Type (0, 0), BuildingBlock: UVAHIK_clean_linker_0, # of connection points: 2
#     Edge 38, Type (0, 0), BuildingBlock: UVAHIK_clean_linker_0, # of connection points: 2
#     Edge 39, Type (0, 0), BuildingBlock: UVAHIK_clean_linker_0, # of connection points: 2
#     Edge 40, Type (0, 0), BuildingBlock: UVAHIK_clean_linker_0, # of connection points: 2
#     Edge 41, Type (0, 0), BuildingBlock: UVAHIK_clean_linker_0, # of connection points: 2
#     Edge 42, Type (0, 0), BuildingBlock: UVAHIK_clean_linker_0, # of connection points: 2
#     Edge 43, Type (0, 0), BuildingBlock: UVAHIK_clean_linker_0, # of connection points: 2
#     Edge 44, Type (0, 0), BuildingBlock: UVAHIK_clean_linker_0, # of connection points: 2
#     Edge 45, Type (0, 0), BuildingBlock: UVAHIK_clean_linker_0, # of connection points: 2
#     Edge 46, Type (0, 0), BuildingBlock: UVAHIK_clean_linker_0, # of connection points: 2
#     Edge 47, Type (0, 0), BuildingBlock: UVAHIK_clean_linker_0, # of connection points: 2
# Relax obj value: 0.054
# Max RMSD: 0.237
# Mean RMSD: 0.213
data_MOF--net-ume--node1-KOZSID_clean_sbu_0--edge1-UVAHIK_clean_linker_0
_symmetry_space_group_name_H-M    P1
_symmetry_Int_Tables_number       1
_symmetry_cell_setting            triclinic
loop_
_symmetry_equiv_pos_as_xyz
'x, y, z'
_cell_length_a     40.796474
_cell_length_b     46.885547
_cell_length_c     166.94796
_cell_angle_alpha  90.004076
_cell_angle_beta   90.014659
_cell_angle_gamma 90.079991
loop_
_atom_site_label
_atom_site_type_symbol
_atom_site_fract_x
_atom_site_fract_y
_atom_site_fract_z
_atom_type_partial_charge
C0 C 0.32297 0.07639 0.31468 0.0
C1 C 0.33724 0.10224 0.31677 0.0
C2 C 0.31599 0.12328 0.31435 0.0
C3 C 0.28985 0.10923 0.31096 0.0
N4 N 0.29333 0.0807 0.31119 0.0
Co5 Co 0.2614 0.05266 0.30695 0.0
N6 N 0.22533 0.08101 0.30678 0.0
C7 C 0.22902 0.10951 0.30692 0.0
C8 C 0.19947 0.12361 0.30685 0.0
C9 C 0.17588 0.1026 0.30663 0.0
C10 C 0.19237 0.07677 0.3066 0.0
N11 N 0.22948 0.02466 0.30264 0.0
C12 C 0.19627 0.02507 0.30276 0.0
C13 C 0.18349 1.00082 0.29914 0.0
C14 C 0.20969 0.98495 0.2966 0.0
C15 C 0.23692 1.00023 0.29883 0.0
N16 N 0.29686 0.02385 0.30707 0.0
C17 C 0.29728 0.99951 0.30279 0.0
C18 C 0.32551 0.98412 0.30382 0.0
C19 C 0.34413 0.99989 0.30902 0.0
C20 C 0.32605 0.02412 0.31092 0.0
N21 N 0.24971 0.04241 0.31805 0.0
C22 C 0.24334 0.03063 0.33459 0.0
C23 C 0.24783 1.00853 0.32898 0.0
C24 C 0.25068 0.01484 0.32075 0.0
C25 C 0.24096 0.05852 0.33162 0.0
C26 C 0.24413 0.06388 0.32343 0.0
N27 N 0.27444 0.06407 0.29594 0.0
C28 C 0.31816 0.07879 0.28705 0.0
C29 C 0.29588 0.08922 0.28136 0.0
C30 C 0.26226 0.08506 0.28299 0.0
C31 C 0.2521 0.07232 0.29026 0.0
C32 C 0.30713 0.0667 0.29421 0.0
H33 H 0.22617 0.07009 0.29141 0.0
H34 H 0.32549 0.06051 0.29849 0.0
H35 H 0.25468 0.99755 0.31659 0.0
H36 H 0.24344 0.08577 0.32152 0.0
C37 C 0.2598 0.12152 0.30869 0.0
C38 C 0.33893 0.04833 0.31557 0.0
C39 C 0.17638 0.04869 0.30587 0.0
C40 C 0.26906 0.98994 0.29886 0.0
H41 H 0.3606 0.10558 0.3197 0.0
H42 H 0.3188 0.14603 0.31522 0.0
H43 H 0.19546 0.14637 0.30728 0.0
H44 H 0.14963 0.10586 0.30651 0.0
H45 H 0.15796 0.99508 0.29842 0.0
H46 H 0.20893 0.96412 0.29381 0.0
H47 H 0.33157 0.9636 0.30125 0.0
H48 H 0.36856 0.9944 0.31101 0.0
H49 H 0.24938 0.98656 0.33093 0.0
H50 H 0.238 0.07648 0.33563 0.0
H51 H 0.34434 0.0803 0.28608 0.0
H52 H 0.24381 0.09248 0.27883 0.0
C53 C 0.95787 0.77276 0.54706 0.0
C54 C 0.98214 0.77063 0.54128 0.0
C55 C 0.00862 0.7578 0.54491 0.0
C56 C 0.9991 0.75275 0.55268 0.0
N57 N 0.96836 0.76164 0.55414 0.0
Co58 Co 0.94538 0.75914 0.56459 0.0
N59 N 0.98689 0.75419 0.57064 0.0
C60 C 0.01557 0.74574 0.56744 0.0
C61 C 0.03992 0.74309 0.57308 0.0
C62 C 0.0255 0.74999 0.58027 0.0
C63 C 0.99302 0.7565 0.57862 0.0
N64 N 0.92192 0.75724 0.575 0.0
C65 C 0.93339 0.76017 0.58259 0.0
C66 C 0.90824 0.75687 0.58812 0.0
C67 C 0.88028 0.75136 0.58384 0.0
C68 C 0.88979 0.75163 0.57596 0.0
N69 N 0.90379 0.76352 0.55853 0.0
C70 C 0.87369 0.75685 0.56125 0.0
C71 C 0.84936 0.7631 0.55586 0.0
C72 C 0.86513 0.77439 0.54934 0.0
C73 C 0.89843 0.77414 0.55108 0.0
N74 N 0.94272 0.71716 0.56354 0.0
C75 C 0.95192 0.6577 0.56187 0.0
C76 C 0.95338 0.67093 0.56939 0.0
C77 C 0.94883 0.7004 0.57009 0.0
C78 C 0.944 0.67484 0.55523 0.0
C79 C 0.93904 0.70437 0.55621 0.0
N80 N 0.94945 0.80066 0.56567 0.0
C81 C 0.92722 0.84735 0.5684 0.0
C82 C 0.95836 0.8597 0.56744 0.0
C83 C 0.98458 0.84196 0.56544 0.0
C84 C 0.9796 0.81279 0.56452 0.0
C85 C 0.92334 0.81766 0.56758 0.0
H86 H 1.00042 0.80004 0.56288 0.0
H87 H 0.89939 0.80843 0.5685 0.0
H88 H 0.95192 0.70968 0.57593 0.0
H89 H 0.9335 0.71702 0.55098 0.0
C90 C 0.01962 0.74472 0.55907 0.0
C91 C 0.92435 0.78325 0.5455 0.0
C92 C 0.96817 0.76266 0.5848 0.0
C93 C 0.86877 0.75073 0.56936 0.0
H94 H 0.98076 0.77749 0.5351 0.0
H95 H 0.03239 0.75377 0.54227 0.0
H96 H 0.06534 0.73759 0.57208 0.0
H97 H 0.0374 0.74994 0.58606 0.0
H98 H 0.91001 0.75773 0.59459 0.0
H99 H 0.85582 0.74823 0.5862 0.0
H100 H 0.82315 0.76133 0.55674 0.0
H101 H 0.85321 0.78226 0.544 0.0
H102 H 0.95958 0.65883 0.5747 0.0
H103 H 0.94201 0.66557 0.54931 0.0
H104 H 0.90627 0.86042 0.56993 0.0
H105 H 0.0089 0.85066 0.56451 0.0
C106 C 0.18518 0.43972 0.81437 0.0
C107 C 0.17143 0.41361 0.81641 0.0
C108 C 0.19306 0.39296 0.81393 0.0
C109 C 0.21888 0.40749 0.81056 0.0
N110 N 0.21485 0.43595 0.81085 0.0
Co111 Co 0.24623 0.46461 0.80669 0.0
N112 N 0.28284 0.43682 0.80646 0.0
C113 C 0.2797 0.40827 0.80652 0.0
C114 C 0.30951 0.3946 0.8064 0.0
C115 C 0.33269 0.41595 0.80624 0.0
C116 C 0.31572 0.44154 0.80629 0.0
N117 N 0.27761 0.49327 0.80249 0.0
C118 C 0.31082 0.49337 0.80262 0.0
C119 C 0.32312 0.518 0.7991 0.0
C120 C 0.29661 0.53355 0.79659 0.0
C121 C 0.26969 0.51773 0.79875 0.0
N122 N 0.21015 0.49282 0.80685 0.0
C123 C 0.20923 0.51725 0.80261 0.0
C124 C 0.18062 0.5321 0.80364 0.0
C125 C 0.16231 0.51589 0.80879 0.0
C126 C 0.18094 0.49196 0.81067 0.0
N127 N 0.25762 0.4747 0.81782 0.0
C128 C 0.26376 0.48621 0.83439 0.0
C129 C 0.2589 0.50836 0.82881 0.0
C130 C 0.25615 0.50219 0.82057 0.0
C131 C 0.26661 0.45842 0.83137 0.0
C132 C 0.26356 0.45319 0.82317 0.0
N133 N 0.23354 0.45347 0.79564 0.0
C134 C 0.19037 0.43887 0.78656 0.0
C135 C 0.21304 0.43099 0.78066 0.0
C136 C 0.2465 0.43534 0.7824 0.0
C137 C 0.25619 0.44679 0.78988 0.0
C138 C 0.20096 0.44988 0.79391 0.0
H139 H 0.28202 0.44965 0.79106 0.0
H140 H 0.18242 0.4546 0.79829 0.0
H141 H 0.25184 0.51952 0.81644 0.0
H142 H 0.26467 0.43136 0.82121 0.0
C143 C 0.24917 0.39573 0.80825 0.0
C144 C 0.16869 0.46751 0.81532 0.0
C145 C 0.33119 0.46986 0.80563 0.0
C146 C 0.23731 0.52745 0.79875 0.0
H147 H 0.14816 0.40985 0.81933 0.0
H148 H 0.19071 0.37015 0.81474 0.0
H149 H 0.31396 0.37189 0.80676 0.0
H150 H 0.359 0.41307 0.80611 0.0
H151 H 0.34851 0.52421 0.79842 0.0
H152 H 0.29695 0.5545 0.79387 0.0
H153 H 0.17414 0.55259 0.80111 0.0
H154 H 0.13775 0.52092 0.81078 0.0
H155 H 0.257 0.53028 0.83079 0.0
H156 H 0.26987 0.44041 0.83535 0.0
H157 H 0.16434 0.43564 0.78565 0.0
H158 H 0.2651 0.42994 0.77804 0.0
C159 C 0.55136 0.74593 0.0468 0.0
C160 C 0.52703 0.74816 0.04103 0.0
C161 C 0.50054 0.76081 0.0447 0.0
C162 C 0.51011 0.76568 0.05248 0.0
N163 N 0.54089 0.75685 0.0539 0.0
Co164 Co 0.56394 0.75899 0.06435 0.0
N165 N 0.52244 0.76348 0.07043 0.0
C166 C 0.4937 0.77196 0.06727 0.0
C167 C 0.46939 0.77433 0.07293 0.0
C168 C 0.48391 0.76722 0.08009 0.0
C169 C 0.5164 0.76089 0.07841 0.0
N170 N 0.5875 0.76047 0.07476 0.0
C171 C 0.5761 0.75716 0.08234 0.0
C172 C 0.6013 0.7603 0.08788 0.0
C173 C 0.62919 0.7661 0.08361 0.0
C174 C 0.6196 0.76617 0.07573 0.0
N175 N 0.60548 0.75507 0.05827 0.0
C176 C 0.63557 0.76179 0.06099 0.0
C177 C 0.65987 0.75583 0.05556 0.0
C178 C 0.64411 0.74468 0.04902 0.0
C179 C 0.61083 0.7447 0.05079 0.0
N180 N 0.56628 0.80103 0.06346 0.0
C181 C 0.55434 0.86026 0.06206 0.0
C182 C 0.55437 0.84663 0.06954 0.0
C183 C 0.56019 0.81733 0.0701 0.0
C184 C 0.56317 0.84376 0.05535 0.0
C185 C 0.56932 0.81432 0.05619 0.0
N186 N 0.56011 0.71741 0.06529 0.0
C187 C 0.58242 0.67075 0.06802 0.0
C188 C 0.55131 0.65836 0.06704 0.0
C189 C 0.52509 0.67605 0.06501 0.0
C190 C 0.53002 0.70523 0.0641 0.0
C191 C 0.58625 0.70045 0.0672 0.0
H192 H 0.50917 0.71795 0.06246 0.0
H193 H 0.61017 0.70972 0.06815 0.0
H194 H 0.55798 0.80774 0.07593 0.0
H195 H 0.57493 0.80206 0.05089 0.0
C196 C 0.48958 0.77334 0.0589 0.0
C197 C 0.58488 0.73553 0.04522 0.0
C198 C 0.54134 0.75461 0.08456 0.0
C199 C 0.64055 0.76751 0.06911 0.0
H200 H 0.52839 0.74144 0.03484 0.0
H201 H 0.47672 0.76481 0.04208 0.0
H202 H 0.44394 0.7798 0.07195 0.0
H203 H 0.47205 0.76703 0.08588 0.0
H204 H 0.59959 0.75918 0.09434 0.0
H205 H 0.65365 0.76924 0.08596 0.0
H206 H 0.68608 0.75767 0.05644 0.0
H207 H 0.65601 0.73701 0.04366 0.0
H208 H 0.54903 0.85832 0.07497 0.0
H209 H 0.56388 0.85313 0.04943 0.0
H210 H 0.60338 0.65772 0.06958 0.0
H211 H 0.50079 0.66732 0.06406 0.0
C212 C 0.32228 0.43893 0.94147 0.0
C213 C 0.33581 0.41272 0.93949 0.0
C214 C 0.31395 0.39222 0.94199 0.0
C215 C 0.28824 0.40695 0.94532 0.0
N216 N 0.29256 0.43538 0.94498 0.0
Co217 Co 0.2614 0.4643 0.94906 0.0
N218 N 0.2245 0.4367 0.94931 0.0
C219 C 0.22737 0.40813 0.9493 0.0
C220 C 0.19743 0.39461 0.94942 0.0
C221 C 0.17445 0.41608 0.94954 0.0
C222 C 0.19167 0.44158 0.94946 0.0
N223 N 0.23026 0.49321 0.9532 0.0
C224 C 0.19704 0.49346 0.95305 0.0
C225 C 0.18496 0.51824 0.95652 0.0
C226 C 0.2116 0.53371 0.95901 0.0
C227 C 0.23838 0.51772 0.9569 0.0
N228 N 0.29774 0.49233 0.94888 0.0
C229 C 0.29887 0.51685 0.95307 0.0
C230 C 0.32761 0.53155 0.95203 0.0
C231 C 0.34581 0.51514 0.94691 0.0
C232 C 0.32696 0.49124 0.94507 0.0
N233 N 0.25033 0.47419 0.9379 0.0
C234 C 0.24802 0.48504 0.92128 0.0
C235 C 0.25103 0.5075 0.92682 0.0
C236 C 0.25215 0.50162 0.93511 0.0
C237 C 0.24386 0.45744 0.92432 0.0
C238 C 0.24491 0.45253 0.93256 0.0
N239 N 0.27387 0.45332 0.96014 0.0
C240 C 0.31693 0.43872 0.96924 0.0
C241 C 0.2942 0.43091 0.97514 0.0
C242 C 0.26077 0.4353 0.97338 0.0
C243 C 0.25116 0.44673 0.9659 0.0
C244 C 0.30643 0.4497 0.96189 0.0
H245 H 0.22535 0.44961 0.96471 0.0
H246 H 0.32501 0.45432 0.95751 0.0
H247 H 0.25596 0.51906 0.93923 0.0
H248 H 0.24298 0.43079 0.93457 0.0
C249 C 0.2578 0.3954 0.94762 0.0
C250 C 0.33902 0.46663 0.94047 0.0
C251 C 0.17646 0.46999 0.95008 0.0
C252 C 0.27085 0.52727 0.9569 0.0
H253 H 0.35906 0.40877 0.93658 0.0
H254 H 0.31609 0.36938 0.94121 0.0
H255 H 0.19276 0.37191 0.9491 0.0
H256 H 0.14811 0.41333 0.94967 0.0
H257 H 0.15963 0.52459 0.95718 0.0
H258 H 0.21145 0.55472 0.9617 0.0
H259 H 0.33427 0.55207 0.95452 0.0
H260 H 0.37042 0.52001 0.94492 0.0
H261 H 0.25408 0.52926 0.92477 0.0
H262 H 0.24062 0.43945 0.92032 0.0
H263 H 0.34293 0.43545 0.97015 0.0
H264 H 0.24213 0.42995 0.97775 0.0
C265 C 0.54783 0.77364 0.2089 0.0
C266 C 0.5224 0.77293 0.21441 0.0
C267 C 0.49618 0.76019 0.21064 0.0
C268 C 0.5068 0.754 0.20302 0.0
N269 N 0.53802 0.76212 0.2018 0.0
Co270 Co 0.56209 0.75942 0.19149 0.0
N271 N 0.5212 0.7552 0.18515 0.0
C272 C 0.49197 0.74719 0.18815 0.0
C273 C 0.46824 0.74491 0.18234 0.0
C274 C 0.48367 0.75156 0.17526 0.0
C275 C 0.51609 0.75757 0.17714 0.0
N276 N 0.58677 0.75736 0.18126 0.0
C277 C 0.57629 0.76056 0.1736 0.0
C278 C 0.60204 0.7569 0.16825 0.0
C279 C 0.62931 0.75079 0.17273 0.0
C280 C 0.61883 0.7511 0.18054 0.0
N281 N 0.60296 0.76303 0.19782 0.0
C282 C 0.63304 0.7551 0.19541 0.0
C283 C 0.65665 0.75988 0.20112 0.0
C284 C 0.64035 0.77161 0.2075 0.0
C285 C 0.60762 0.77349 0.2053 0.0
N286 N 0.5636 0.71738 0.19249 0.0
C287 C 0.55131 0.6582 0.19393 0.0
C288 C 0.55204 0.67168 0.18643 0.0
C289 C 0.55802 0.70095 0.18584 0.0
C290 C 0.55951 0.67485 0.20066 0.0
C291 C 0.56582 0.70428 0.1998 0.0
N292 N 0.55914 0.801 0.19045 0.0
C293 C 0.58271 0.84737 0.18788 0.0
C294 C 0.55172 0.86012 0.18861 0.0
C295 C 0.5249 0.84276 0.19042 0.0
C296 C 0.52914 0.81354 0.19138 0.0
C297 C 0.58585 0.81763 0.18875 0.0
H298 H 0.50785 0.8011 0.19286 0.0
H299 H 0.6097 0.80805 0.188 0.0
H300 H 0.55643 0.7104 0.17999 0.0
H301 H 0.57096 0.71666 0.20511 0.0
C302 C 0.48688 0.74633 0.19648 0.0
C303 C 0.58144 0.78407 0.21056 0.0
C304 C 0.5418 0.76328 0.17113 0.0
C305 C 0.63893 0.74916 0.18732 0.0
H306 H 0.52247 0.78103 0.22047 0.0
H307 H 0.47176 0.75732 0.21304 0.0
H308 H 0.44258 0.73982 0.18316 0.0
H309 H 0.47245 0.75168 0.16939 0.0
H310 H 0.60107 0.75778 0.16178 0.0
H311 H 0.65392 0.74707 0.17055 0.0
H312 H 0.68282 0.75665 0.20057 0.0
H313 H 0.65131 0.77819 0.21311 0.0
H314 H 0.54717 0.65985 0.18098 0.0
H315 H 0.55964 0.66561 0.2066 0.0
H316 H 0.60411 0.86015 0.18651 0.0
H317 H 0.50065 0.85178 0.19118 0.0
C318 C 0.18594 0.07834 0.44184 0.0
C319 C 0.17202 0.10443 0.43988 0.0
C320 C 0.19379 0.12513 0.4423 0.0
C321 C 0.21985 0.11065 0.44555 0.0
N322 N 0.21581 0.08217 0.44525 0.0
Co323 Co 0.24752 0.05356 0.44924 0.0
N324 N 0.28416 0.08144 0.44931 0.0
C325 C 0.28102 0.10998 0.44926 0.0
C326 C 0.31084 0.12372 0.44927 0.0
C327 C 0.33403 0.10243 0.44935 0.0
C328 C 0.31705 0.0768 0.44937 0.0
N329 N 0.27916 0.02496 0.4533 0.0
C330 C 0.31236 0.02497 0.45307 0.0
C331 C 0.32488 1.00038 0.45656 0.0
C332 C 0.29853 0.98474 0.45914 0.0
C333 C 0.27148 1.00046 0.45707 0.0
N334 N 0.21147 0.02523 0.44919 0.0
C335 C 0.21081 1.00075 0.45341 0.0
C336 C 0.18219 0.98579 0.45244 0.0
C337 C 0.16359 1.00198 0.44735 0.0
C338 C 0.18209 0.02601 0.44545 0.0
N339 N 0.25803 0.04358 0.43805 0.0
C340 C 0.25989 0.03245 0.42144 0.0
C341 C 0.25742 0.01006 0.42702 0.0
C342 C 0.25652 0.01608 0.4353 0.0
C343 C 0.2637 0.06016 0.42443 0.0
C344 C 0.26287 0.06521 0.43267 0.0
N345 N 0.23561 0.06465 0.46034 0.0
C346 C 0.19293 0.07846 0.46965 0.0
C347 C 0.21599 0.08786 0.47527 0.0
C348 C 0.24936 0.08455 0.47333 0.0
C349 C 0.25864 0.07251 0.46591 0.0
C350 C 0.2031 0.06732 0.46229 0.0
H351 H 0.28442 0.0703 0.46459 0.0
H352 H 0.18425 0.06186 0.45805 0.0
H353 H 0.25317 0.99867 0.43945 0.0
H354 H 0.26452 0.087 0.43464 0.0
C355 C 0.25034 0.12246 0.4477 0.0
C356 C 0.16956 0.05048 0.44087 0.0
C357 C 0.33257 0.04852 0.45001 0.0
C358 C 0.23912 0.99063 0.45717 0.0
H359 H 0.1486 0.10815 0.43702 0.0
H360 H 0.19139 0.14793 0.44149 0.0
H361 H 0.31526 0.14645 0.4489 0.0
H362 H 0.36034 0.10537 0.4494 0.0
H363 H 0.35031 0.99427 0.45716 0.0
H364 H 0.29904 0.9638 0.46187 0.0
H365 H 0.17588 0.96524 0.45497 0.0
H366 H 0.13895 0.99688 0.44543 0.0
H367 H 0.25465 0.98823 0.42501 0.0
H368 H 0.26651 0.07811 0.4204 0.0
H369 H 0.16693 0.08078 0.47079 0.0
H370 H 0.26816 0.09125 0.47751 0.0
C371 C 0.95865 0.74598 0.70917 0.0
C372 C 0.98334 0.74819 0.71485 0.0
C373 C 0.0094 0.76142 0.71114 0.0
C374 C 0.99934 0.76646 0.7034 0.0
N375 N 0.96865 0.75719 0.70206 0.0
Co376 Co 0.94532 0.75846 0.69162 0.0
N377 N 0.98655 0.76344 0.68546 0.0
C378 C 0.01522 0.77246 0.68857 0.0
C379 C 0.03932 0.77514 0.68286 0.0
C380 C 0.02473 0.76769 0.67574 0.0
C381 C 0.99239 0.76086 0.67748 0.0
N382 N 0.9214 0.75917 0.68126 0.0
C383 C 0.9326 0.75596 0.67367 0.0
C384 C 0.90715 0.75861 0.66818 0.0
C385 C 0.8793 0.76406 0.67251 0.0
C386 C 0.88916 0.76441 0.68036 0.0
N387 N 0.90411 0.75401 0.69777 0.0
C388 C 0.87389 0.76071 0.69517 0.0
C389 C 0.85003 0.75523 0.70077 0.0
C390 C 0.86632 0.74434 0.70728 0.0
C391 C 0.8993 0.74368 0.70526 0.0
N392 N 0.94215 0.80048 0.6924 0.0
C393 C 0.95327 0.85985 0.69373 0.0
C394 C 0.95337 0.8461 0.68627 0.0
C395 C 0.94793 0.81672 0.68574 0.0
C396 C 0.94466 0.84336 0.70046 0.0
C397 C 0.93891 0.81385 0.69966 0.0
N398 N 0.94994 0.71693 0.69084 0.0
C399 C 0.9282 0.66957 0.68877 0.0
C400 C 0.95912 0.65752 0.69033 0.0
C401 C 0.98519 0.67603 0.69198 0.0
C402 C 0.98011 0.70532 0.69224 0.0
C403 C 0.92412 0.69938 0.68906 0.0
H404 H 1.00086 0.71856 0.69363 0.0
H405 H 0.90016 0.70823 0.68792 0.0
H406 H 0.9502 0.80705 0.67992 0.0
H407 H 0.93351 0.80161 0.70498 0.0
C408 C 0.01955 0.77418 0.69692 0.0
C409 C 0.92551 0.73437 0.71068 0.0
C410 C 0.96737 0.75423 0.67137 0.0
C411 C 0.86843 0.76602 0.68703 0.0
H412 H 0.98279 0.74082 0.72099 0.0
H413 H 0.03339 0.76542 0.71367 0.0
H414 H 0.06469 0.78107 0.68379 0.0
H415 H 0.03642 0.76763 0.66992 0.0
H416 H 0.90866 0.75753 0.66172 0.0
H417 H 0.85474 0.76693 0.6702 0.0
H418 H 0.82377 0.7574 0.70007 0.0
H419 H 0.85523 0.73748 0.71285 0.0
H420 H 0.95856 0.85779 0.68082 0.0
H421 H 0.94385 0.8528 0.70637 0.0
H422 H 0.90726 0.65614 0.68747 0.0
H423 H 0.00972 0.66801 0.69302 0.0
C424 C 0.82209 0.57791 0.81457 0.0
C425 C 0.83581 0.604 0.81663 0.0
C426 C 0.81414 0.62467 0.81417 0.0
C427 C 0.78834 0.61016 0.81079 0.0
N428 N 0.79241 0.5817 0.81105 0.0
Co429 Co 0.76107 0.55306 0.80685 0.0
N430 N 0.72442 0.58083 0.80664 0.0
C431 C 0.72753 0.60938 0.80673 0.0
C432 C 0.6977 0.62302 0.80662 0.0
C433 C 0.67454 0.60165 0.80644 0.0
C434 C 0.69155 0.57608 0.80646 0.0
N435 N 0.72973 0.52443 0.80261 0.0
C436 C 0.69652 0.52431 0.80274 0.0
C437 C 0.68424 0.49973 0.79918 0.0
C438 C 0.71077 0.48424 0.79666 0.0
C439 C 0.73767 0.50003 0.79885 0.0
N440 N 0.79718 0.52489 0.80698 0.0
C441 C 0.79813 0.50052 0.80272 0.0
C442 C 0.82676 0.48568 0.80373 0.0
C443 C 0.84506 0.50183 0.8089 0.0
C444 C 0.8264 0.52573 0.8108 0.0
N445 N 0.74969 0.54282 0.81797 0.0
C446 C 0.74361 0.53112 0.83452 0.0
C447 C 0.74856 0.50905 0.82893 0.0
C448 C 0.75127 0.51531 0.82069 0.0
C449 C 0.74062 0.55893 0.83153 0.0
C450 C 0.74366 0.56426 0.82333 0.0
N451 N 0.77375 0.56436 0.79582 0.0
C452 C 0.8169 0.57917 0.78677 0.0
C453 C 0.79422 0.58707 0.78087 0.0
C454 C 0.76077 0.58262 0.78259 0.0
C455 C 0.75109 0.57106 0.79005 0.0
C456 C 0.80632 0.56804 0.79409 0.0
H457 H 0.72527 0.56813 0.79123 0.0
H458 H 0.82486 0.5633 0.79848 0.0
H459 H 0.75564 0.49804 0.81655 0.0
H460 H 0.74247 0.58611 0.8214 0.0
C461 C 0.75804 0.62192 0.80848 0.0
C462 C 0.83863 0.55012 0.81548 0.0
C463 C 0.67612 0.54774 0.80577 0.0
C464 C 0.77006 0.49035 0.79884 0.0
H465 H 0.85908 0.60775 0.81956 0.0
H466 H 0.81647 0.64747 0.81501 0.0
H467 H 0.69322 0.64573 0.80701 0.0
H468 H 0.64823 0.6045 0.8063 0.0
H469 H 0.65885 0.49354 0.79849 0.0
H470 H 0.71045 0.46334 0.79391 0.0
H471 H 0.83327 0.46524 0.80118 0.0
H472 H 0.86963 0.4968 0.81088 0.0
H473 H 0.75057 0.48711 0.8309 0.0
H474 H 0.73729 0.57689 0.83553 0.0
H475 H 0.84292 0.58247 0.78587 0.0
H476 H 0.74216 0.58803 0.77823 0.0
C477 C 0.45953 0.27257 0.04677 0.0
C478 C 0.4842 0.27052 0.04109 0.0
C479 C 0.5102 0.25712 0.04477 0.0
C480 C 0.50012 0.25183 0.05249 0.0
N481 N 0.46948 0.26111 0.05386 0.0
Co482 Co 0.44614 0.2594 0.06428 0.0
N483 N 0.48732 0.25401 0.07043 0.0
C484 C 0.51594 0.24507 0.0673 0.0
C485 C 0.54004 0.24219 0.073 0.0
C486 C 0.5255 0.24943 0.08014 0.0
C487 C 0.49319 0.25634 0.07842 0.0
N488 N 0.42223 0.25822 0.07463 0.0
C489 C 0.43345 0.26108 0.08224 0.0
C490 C 0.408 0.25813 0.08771 0.0
C491 C 0.38013 0.25288 0.08337 0.0
C492 C 0.38997 0.25293 0.07551 0.0
N493 N 0.40495 0.26426 0.05815 0.0
C494 C 0.37469 0.25748 0.06072 0.0
C495 C 0.35085 0.26319 0.05514 0.0
C496 C 0.36719 0.2743 0.04867 0.0
C497 C 0.40018 0.27485 0.05069 0.0
N498 N 0.44264 0.21745 0.06333 0.0
C499 C 0.45128 0.15792 0.06172 0.0
C500 C 0.45269 0.17121 0.06923 0.0
C501 C 0.4484 0.20072 0.0699 0.0
C502 C 0.44355 0.17503 0.05507 0.0
C503 C 0.43887 0.20459 0.05601 0.0
N504 N 0.45105 0.30089 0.06522 0.0
C505 C 0.42954 0.34828 0.06729 0.0
C506 C 0.46054 0.3603 0.06577 0.0
C507 C 0.48656 0.34175 0.06417 0.0
C508 C 0.48132 0.31247 0.06388 0.0
C509 C 0.42531 0.31847 0.06699 0.0
H510 H 0.50202 0.29921 0.0625 0.0
H511 H 0.40127 0.30964 0.06809 0.0
H512 H 0.45144 0.21007 0.07574 0.0
H513 H 0.43355 0.21722 0.05076 0.0
C514 C 0.52027 0.24375 0.05894 0.0
C515 C 0.42642 0.28423 0.04528 0.0
C516 C 0.46821 0.26289 0.08455 0.0
C517 C 0.36922 0.25172 0.06884 0.0
H518 H 0.48367 0.27808 0.03497 0.0
H519 H 0.53415 0.25314 0.04222 0.0
H520 H 0.56539 0.23629 0.07206 0.0
H521 H 0.53721 0.24932 0.08596 0.0
H522 H 0.40952 0.25892 0.09418 0.0
H523 H 0.35556 0.2499 0.08567 0.0
H524 H 0.32459 0.26097 0.05583 0.0
H525 H 0.35611 0.28133 0.04312 0.0
H526 H 0.45871 0.15912 0.07456 0.0
H527 H 0.44155 0.16572 0.04915 0.0
H528 H 0.40863 0.36173 0.06857 0.0
H529 H 0.51115 0.34972 0.06316 0.0
C530 C 0.68641 0.9386 0.31488 0.0
C531 C 0.67331 0.91234 0.317 0.0
C532 C 0.69529 0.89197 0.31451 0.0
C533 C 0.72064 0.90683 0.31105 0.0
N534 N 0.716 0.93522 0.31129 0.0
Co535 Co 0.74654 0.96428 0.30696 0.0
N536 N 0.78372 0.93708 0.30667 0.0
C537 C 0.78118 0.90849 0.30678 0.0
C538 C 0.81127 0.89529 0.30661 0.0
C539 C 0.83399 0.917 0.30635 0.0
C540 C 0.81648 0.94232 0.30641 0.0
N541 N 0.77712 0.99333 0.30262 0.0
C542 C 0.81034 0.994 0.30269 0.0
C543 C 0.82195 0.0188 0.29912 0.0
C544 C 0.79501 0.03384 0.29664 0.0
C545 C 0.76852 0.01759 0.29887 0.0
N546 N 0.70983 0.99185 0.30713 0.0
C547 C 0.7082 0.01613 0.30284 0.0
C548 C 0.67929 0.03051 0.30389 0.0
C549 C 0.66153 0.01414 0.30912 0.0
C550 C 0.68078 0.99059 0.31101 0.0
N551 N 0.75818 0.97485 0.31804 0.0
C552 C 0.76435 0.9867 0.33459 0.0
C553 C 0.75865 1.00865 0.329 0.0
C554 C 0.7559 1.00232 0.32076 0.0
C555 C 0.76808 0.95896 0.33159 0.0
C556 C 0.765 0.95356 0.3234 0.0
N557 N 0.73358 0.9526 0.29597 0.0
C558 C 0.69061 0.93512 0.28725 0.0
C559 C 0.71322 0.92794 0.28128 0.0
C560 C 0.74636 0.93481 0.28268 0.0
C561 C 0.75605 0.947 0.29007 0.0
C562 C 0.7011 0.94747 0.29443 0.0
H563 H 0.78177 0.95109 0.29111 0.0
H564 H 0.68266 0.9519 0.29886 0.0
H565 H 0.75091 0.01948 0.31663 0.0
H566 H 0.76674 0.93174 0.32146 0.0
C567 C 0.75103 0.89551 0.30865 0.0
C568 C 0.66927 0.96613 0.31576 0.0
C569 C 0.83135 0.97087 0.30567 0.0
C570 C 0.73593 0.02673 0.29892 0.0
H571 H 0.65021 0.90828 0.31998 0.0
H572 H 0.69344 0.86915 0.31537 0.0
H573 H 0.81621 0.87266 0.307 0.0
H574 H 0.86035 0.91454 0.30615 0.0
H575 H 0.84716 0.02548 0.2984 0.0
H576 H 0.79477 0.05476 0.2939 0.0
H577 H 0.67226 0.05081 0.30133 0.0
H578 H 0.63693 0.01881 0.31115 0.0
H579 H 0.75605 0.03054 0.33097 0.0
H580 H 0.77201 0.94108 0.33558 0.0
H581 H 0.6647 0.93092 0.28643 0.0
H582 H 0.76481 0.92984 0.27824 0.0
C583 C 0.05172 0.24687 0.54672 0.0
C584 C 0.02775 0.24981 0.54089 0.0
C585 C 1.00137 0.26273 0.54454 0.0
C586 C 0.01066 0.26705 0.55236 0.0
N587 N 0.04117 0.25762 0.55384 0.0
Co588 Co 0.06373 0.25874 0.56437 0.0
N589 N 0.02204 0.26358 0.57035 0.0
C590 C 0.99364 0.27267 0.56713 0.0
C591 C 0.96912 0.27527 0.57272 0.0
C592 C 0.98313 0.26771 0.5799 0.0
C593 C 0.01557 0.2609 0.5783 0.0
N594 N 0.08682 0.25925 0.57485 0.0
C595 C 0.075 0.25592 0.58239 0.0
C596 C 0.10004 0.25835 0.588 0.0
C597 C 0.12826 0.26372 0.58382 0.0
C598 C 0.11902 0.26427 0.57592 0.0
N599 N 0.10547 0.25444 0.55838 0.0
C600 C 0.13558 0.26046 0.56121 0.0
C601 C 0.15999 0.25436 0.55582 0.0
C602 C 0.14428 0.24385 0.5492 0.0
C603 C 0.11093 0.24436 0.55088 0.0
N604 N 0.06702 0.3008 0.56366 0.0
C605 C 0.0557 0.36016 0.56239 0.0
C606 C 0.0553 0.34626 0.56984 0.0
C607 C 0.06083 0.31689 0.57034 0.0
C608 C 0.06476 0.34385 0.55567 0.0
C609 C 0.07062 0.31434 0.55645 0.0
N610 N 0.05894 0.21717 0.56507 0.0
C611 C 0.08022 0.16978 0.56728 0.0
C612 C 0.04936 0.15774 0.56559 0.0
C613 C 0.02356 0.1763 0.56378 0.0
C614 C 0.02884 0.20558 0.56352 0.0
C615 C 0.0845 0.19958 0.56698 0.0
H616 H 0.00828 0.21885 0.56202 0.0
H617 H 0.10841 0.20839 0.56825 0.0
H618 H 0.05826 0.3071 0.57613 0.0
H619 H 0.07638 0.30225 0.55113 0.0
C620 C 0.98998 0.27463 0.55876 0.0
C621 C 0.08505 0.2359 0.5452 0.0
C622 C 0.04008 0.25419 0.58453 0.0
C623 C 0.1403 0.26561 0.56937 0.0
H624 H 0.02924 0.24335 0.53468 0.0
H625 H 0.97776 0.26725 0.54187 0.0
H626 H 0.94386 0.28127 0.57169 0.0
H627 H 0.971 0.26758 0.58567 0.0
H628 H 0.09802 0.25711 0.59445 0.0
H629 H 0.15268 0.26635 0.58625 0.0
H630 H 0.1862 0.25567 0.55678 0.0
H631 H 0.15624 0.23626 0.54383 0.0
H632 H 0.0498 0.3578 0.57529 0.0
H633 H 0.06584 0.35339 0.54977 0.0
H634 H 0.10098 0.15634 0.5687 0.0
H635 H 0.99906 0.16834 0.56264 0.0
C636 C 0.82321 0.93926 0.44192 0.0
C637 C 0.83717 0.91317 0.43999 0.0
C638 C 0.81543 0.89248 0.44243 0.0
C639 C 0.78935 0.90698 0.44566 0.0
N640 N 0.79335 0.93545 0.44533 0.0
Co641 Co 0.7616 0.96408 0.44929 0.0
N642 N 0.725 0.93617 0.44938 0.0
C643 C 0.72818 0.90763 0.44936 0.0
C644 C 0.69839 0.89385 0.44938 0.0
C645 C 0.67517 0.91512 0.44944 0.0
C646 C 0.6921 0.94077 0.44944 0.0
N647 N 0.72992 0.9927 0.45333 0.0
C648 C 0.69672 0.99265 0.4531 0.0
C649 C 0.68418 0.0173 0.45655 0.0
C650 C 0.71052 0.033 0.45912 0.0
C651 C 0.73758 0.01726 0.45707 0.0
N652 N 0.79761 0.99245 0.44922 0.0
C653 C 0.79824 0.01699 0.45341 0.0
C654 C 0.82683 0.03198 0.45242 0.0
C655 C 0.84545 0.01573 0.44735 0.0
C656 C 0.82699 0.99165 0.44548 0.0
N657 N 0.75104 0.97391 0.43809 0.0
C658 C 0.74891 0.98492 0.42148 0.0
C659 C 0.75129 1.00736 0.42705 0.0
C660 C 0.75234 1.0014 0.43533 0.0
C661 C 0.74538 0.95721 0.42448 0.0
C662 C 0.74632 0.95222 0.43273 0.0
N663 N 0.77355 0.95314 0.46041 0.0
C664 C 0.81626 0.93953 0.46974 0.0
C665 C 0.79322 0.93017 0.47537 0.0
C666 C 0.75984 0.93338 0.47342 0.0
C667 C 0.75054 0.94531 0.46598 0.0
C668 C 0.80607 0.95056 0.46236 0.0
H669 H 0.72475 0.94744 0.46465 0.0
H670 H 0.8249 0.956 0.45812 0.0
H671 H 0.75563 0.01885 0.43947 0.0
H672 H 0.74482 0.93043 0.43471 0.0
C673 C 0.75888 0.89516 0.44782 0.0
C674 C 0.83956 0.96713 0.44093 0.0
C675 C 0.67653 0.96903 0.45006 0.0
C676 C 0.76992 0.02714 0.45716 0.0
H677 H 0.86059 0.90943 0.43714 0.0
H678 H 0.81786 0.86966 0.44165 0.0
H679 H 0.69399 0.87111 0.44904 0.0
H680 H 0.64885 0.91214 0.4495 0.0
H681 H 0.65875 0.02341 0.45714 0.0
H682 H 0.70999 0.05399 0.46182 0.0
H683 H 0.83312 0.05257 0.45493 0.0
H684 H 0.87008 0.02083 0.44542 0.0
H685 H 0.75385 0.02919 0.42502 0.0
H686 H 0.74266 0.93922 0.42046 0.0
H687 H 0.84226 0.93729 0.47089 0.0
H688 H 0.74106 0.92669 0.4776 0.0
C689 C 0.04793 0.27353 0.7088 0.0
C690 C 0.02298 0.27213 0.71443 0.0
C691 C 0.99682 0.25897 0.71074 0.0
C692 C 0.00708 0.25317 0.70306 0.0
N693 N 0.03799 0.26192 0.70173 0.0
Co694 Co 0.06173 0.25924 0.69138 0.0
N695 N 0.02069 0.25412 0.68516 0.0
C696 C 0.99175 0.24573 0.68824 0.0
C697 C 0.96783 0.24299 0.68249 0.0
C698 C 0.98283 0.24978 0.67536 0.0
C699 C 0.01519 0.25632 0.67715 0.0
N700 N 0.08602 0.25713 0.6811 0.0
C701 C 0.07516 0.25992 0.67346 0.0
C702 C 0.10072 0.25639 0.66805 0.0
C703 C 0.12829 0.25082 0.67248 0.0
C704 C 0.11817 0.2513 0.68031 0.0
N705 N 0.10278 0.26382 0.69759 0.0
C706 C 0.13297 0.25644 0.69512 0.0
C707 C 0.15672 0.26206 0.70074 0.0
C708 C 0.14039 0.27375 0.70713 0.0
C709 C 0.1075 0.2747 0.70502 0.0
N710 N 0.06427 0.21732 0.69252 0.0
C711 C 0.05534 0.15786 0.69425 0.0
C712 C 0.05418 0.17092 0.68671 0.0
C713 C 0.0586 0.20039 0.68598 0.0
C714 C 0.06276 0.17519 0.70089 0.0
C715 C 0.06758 0.20473 0.69988 0.0
N716 N 0.05784 0.30072 0.69022 0.0
C717 C 0.0805 0.34738 0.6876 0.0
C718 C 0.04934 0.35974 0.68841 0.0
C719 C 0.02287 0.34202 0.69026 0.0
C720 C 0.02764 0.31285 0.69121 0.0
C721 C 0.08418 0.31768 0.68844 0.0
H722 H 0.00664 0.30012 0.69274 0.0
H723 H 0.10817 0.30843 0.68765 0.0
H724 H 0.05581 0.20954 0.68011 0.0
H725 H 0.07275 0.21753 0.70511 0.0
C726 C 0.98703 0.24498 0.69659 0.0
C727 C 0.08126 0.28469 0.71034 0.0
C728 C 0.04055 0.26242 0.67109 0.0
C729 C 0.13863 0.25014 0.68705 0.0
H730 H 0.02345 0.27993 0.72052 0.0
H731 H 0.97269 0.25544 0.71324 0.0
H732 H 0.94231 0.23755 0.68339 0.0
H733 H 0.97137 0.24966 0.66952 0.0
H734 H 0.09946 0.25708 0.66158 0.0
H735 H 0.15289 0.24743 0.67024 0.0
H736 H 0.18295 0.25939 0.70012 0.0
H737 H 0.15141 0.28087 0.71268 0.0
H738 H 0.04834 0.15866 0.6814 0.0
H739 H 0.0645 0.16606 0.70683 0.0
H740 H 0.10164 0.36043 0.68619 0.0
H741 H 0.99851 0.35073 0.69108 0.0
C742 C 0.68524 0.57777 0.94184 0.0
C743 C 0.6711 0.60377 0.93989 0.0
C744 C 0.69272 0.62459 0.94231 0.0
C745 C 0.71892 0.61026 0.94555 0.0
N746 N 0.71511 0.58177 0.94524 0.0
Co747 Co 0.74708 0.55333 0.9492 0.0
N748 N 0.78351 0.58143 0.94926 0.0
C749 C 0.78013 0.60996 0.94923 0.0
C750 C 0.80983 0.62389 0.94923 0.0
C751 C 0.8332 0.60273 0.94929 0.0
C752 C 0.81643 0.577 0.94931 0.0
N753 N 0.779 0.52491 0.95325 0.0
C754 C 0.8122 0.52512 0.953 0.0
C755 C 0.82494 0.50061 0.95648 0.0
C756 C 0.79874 0.4848 0.95907 0.0
C757 C 0.77154 0.50035 0.957 0.0
N758 N 0.71126 0.52478 0.94917 0.0
C759 C 0.71084 0.50028 0.95337 0.0
C760 C 0.68233 0.48515 0.95242 0.0
C761 C 0.66355 0.50125 0.94734 0.0
C762 C 0.68184 0.5254 0.94544 0.0
N763 N 0.75759 0.54347 0.938 0.0
C764 C 0.75955 0.53244 0.92139 0.0
C765 C 0.75728 0.51 0.92696 0.0
C766 C 0.75632 0.51598 0.93525 0.0
C767 C 0.76309 0.56016 0.92439 0.0
C768 C 0.76221 0.56516 0.93263 0.0
N769 N 0.7352 0.56431 0.96032 0.0
C770 C 0.69252 0.5779 0.96965 0.0
C771 C 0.71558 0.58746 0.97525 0.0
C772 C 0.74894 0.58433 0.9733 0.0
C773 C 0.75822 0.57231 0.96587 0.0
C774 C 0.70268 0.56678 0.96229 0.0
H775 H 0.78401 0.57025 0.96453 0.0
H776 H 0.68383 0.5612 0.95806 0.0
H777 H 0.75313 0.49853 0.93939 0.0
H778 H 0.76367 0.58695 0.93461 0.0
C779 C 0.74934 0.62225 0.94769 0.0
C780 C 0.66908 0.5498 0.94087 0.0
C781 C 0.83219 0.54881 0.94994 0.0
C782 C 0.73926 0.49032 0.95712 0.0
H783 H 0.64764 0.60737 0.93705 0.0
H784 H 0.69014 0.64739 0.94151 0.0
H785 H 0.81407 0.64664 0.94887 0.0
H786 H 0.85949 0.60584 0.94934 0.0
H787 H 0.85043 0.49468 0.95708 0.0
H788 H 0.79944 0.46385 0.96179 0.0
H789 H 0.6762 0.46456 0.95494 0.0
H790 H 0.63893 0.49602 0.94543 0.0
H791 H 0.75472 0.48817 0.92494 0.0
H792 H 0.76573 0.57815 0.92037 0.0
H793 H 0.66652 0.58007 0.97081 0.0
H794 H 0.76774 0.59117 0.97746 0.0
C795 C 0.45868 0.24607 0.20894 0.0
C796 C 0.48291 0.24912 0.2147 0.0
C797 C 0.50883 0.26268 0.21102 0.0
C798 C 0.49904 0.26719 0.20324 0.0
N799 N 0.46866 0.25728 0.20183 0.0
Co800 Co 0.44542 0.25858 0.1914 0.0
N801 N 0.48662 0.26443 0.18529 0.0
C802 C 0.51506 0.27383 0.18843 0.0
C803 C 0.53918 0.27698 0.18275 0.0
C804 C 0.52485 0.26943 0.1756 0.0
C805 C 0.49265 0.26206 0.1773 0.0
N806 N 0.42165 0.25939 0.18102 0.0
C807 C 0.43304 0.25661 0.17342 0.0
C808 C 0.40765 0.25908 0.16792 0.0
C809 C 0.37962 0.26394 0.17223 0.0
C810 C 0.38932 0.26413 0.18009 0.0
N811 N 0.40417 0.2532 0.1975 0.0
C812 C 0.37381 0.25924 0.19486 0.0
C813 C 0.34995 0.25296 0.20039 0.0
C814 C 0.36637 0.24228 0.20691 0.0
C815 C 0.39945 0.24268 0.20497 0.0
N816 N 0.44131 0.30048 0.19233 0.0
C817 C 0.44943 0.36006 0.19395 0.0
C818 C 0.45114 0.3468 0.18644 0.0
C819 C 0.44709 0.31725 0.18576 0.0
C820 C 0.44159 0.3429 0.20058 0.0
C821 C 0.43718 0.3133 0.19963 0.0
N822 N 0.45091 0.21716 0.19049 0.0
C823 C 0.43011 0.16955 0.18831 0.0
C824 C 0.4612 0.15789 0.18991 0.0
C825 C 0.4869 0.17673 0.19161 0.0
C826 C 0.48128 0.20595 0.1919 0.0
C827 C 0.42547 0.19929 0.18864 0.0
H828 H 0.50174 0.21947 0.19334 0.0
H829 H 0.40137 0.20782 0.18748 0.0
H830 H 0.45038 0.30791 0.17993 0.0
H831 H 0.43181 0.30064 0.20487 0.0
C832 C 0.51921 0.27544 0.1968 0.0
C833 C 0.4258 0.23408 0.21045 0.0
C834 C 0.46785 0.2551 0.17117 0.0
C835 C 0.36841 0.26488 0.18674 0.0
H836 H 0.48192 0.24225 0.22089 0.0
H837 H 0.5325 0.26746 0.21363 0.0
H838 H 0.5644 0.2833 0.18371 0.0
H839 H 0.53661 0.26966 0.16979 0.0
H840 H 0.4093 0.25815 0.16145 0.0
H841 H 0.35502 0.26642 0.1699 0.0
H842 H 0.32366 0.25447 0.19963 0.0
H843 H 0.35525 0.23486 0.21241 0.0
H844 H 0.45724 0.35893 0.18112 0.0
H845 H 0.43933 0.35218 0.2065 0.0
H846 H 0.40943 0.15586 0.18697 0.0
H847 H 0.51154 0.16904 0.19267 0.0
C848 C 0.88617 0.97746 0.29893 0.0
C849 C 0.86777 0.97512 0.30602 0.0
C850 C 0.91934 0.98547 0.29917 0.0
C851 C 0.9927 0.99077 0.31233 0.0
H852 H 0.02074 0.04811 0.29707 0.0
C853 C 0.12446 0.03879 0.31358 0.0
C854 C 0.13987 0.04536 0.3063 0.0
C855 C 0.09097 0.03161 0.31382 0.0
C856 C 0.0137 0.03178 0.30132 0.0
H857 H 0.86999 0.97809 0.31892 0.0
H858 H 0.92825 0.99146 0.31939 0.0
H859 H 0.96435 0.03111 0.29688 0.0
H860 H 0.13234 0.05002 0.29356 0.0
H861 H 0.07439 0.03702 0.29386 0.0
H862 H 0.04214 0.99084 0.31667 0.0
C863 C 0.91701 0.98733 0.31363 0.0
C864 C 0.98111 0.02204 0.30121 0.0
C865 C 0.88366 0.97963 0.31338 0.0
C866 C 0.12093 0.04537 0.29927 0.0
C867 C 0.08758 0.03794 0.29947 0.0
C868 C 0.02544 1.00027 0.31238 0.0
C869 C 0.93518 0.99099 0.30651 0.0
C870 C 0.97009 1.00132 0.30669 0.0
C871 C 0.07201 0.03051 0.30674 0.0
C872 C 0.03662 0.02092 0.30686 0.0
H873 H 0.87451 0.97405 0.29318 0.0
H874 H 0.93255 0.98757 0.29357 0.0
H875 H 0.98528 0.97464 0.31661 0.0
H876 H 0.13857 0.03848 0.31908 0.0
H877 H 0.08007 0.02668 0.31956 0.0
C878 C 0.98065 0.61674 0.55486 0.0
C879 C 0.96006 0.62659 0.56104 0.0
C880 C 0.99085 0.58809 0.55459 0.0
C881 C 0.99828 0.52345 0.56774 0.0
H882 H 0.01381 0.48373 0.54774 0.0
C883 C 0.02046 0.40171 0.56679 0.0
C884 C 0.04519 0.39091 0.56173 0.0
C885 C 0.01071 0.43033 0.5664 0.0
C886 C 0.00991 0.49458 0.55338 0.0
H887 H 0.93282 0.61333 0.57154 0.0
H888 H 0.94972 0.56362 0.57097 0.0
H889 H 0.99476 0.53316 0.54754 0.0
H890 H 0.07843 0.40249 0.55212 0.0
H891 H 0.061 0.4524 0.55136 0.0
H892 H 0.01298 0.48483 0.57358 0.0
C893 C 0.95903 0.5781 0.56646 0.0
C894 C 0.99897 0.52305 0.55328 0.0
C895 C 0.94909 0.60672 0.56677 0.0
C896 C 0.05924 0.40974 0.5561 0.0
C897 C 0.04924 0.43847 0.55567 0.0
C898 C 0.00894 0.49502 0.56784 0.0
C899 C 0.98059 0.56833 0.56045 0.0
C900 C 0.99274 0.53795 0.56047 0.0
C901 C 0.02504 0.44925 0.56088 0.0
C902 C 0.01474 0.48003 0.56067 0.0
H903 H 0.98991 0.63144 0.5504 0.0
H904 H 0.00765 0.58171 0.5499 0.0
H905 H 0.99474 0.53414 0.57342 0.0
H906 H 0.00812 0.38796 0.57104 0.0
H907 H 0.99149 0.43754 0.57039 0.0
C908 C 0.62099 0.54305 0.79908 0.0
C909 C 0.63966 0.54396 0.80615 0.0
C910 C 0.58779 0.53513 0.79927 0.0
C911 C 0.51494 0.5273 0.8125 0.0
H912 H 0.48635 0.47286 0.79648 0.0
C913 C 0.38336 0.47876 0.81336 0.0
C914 C 0.36767 0.47356 0.80602 0.0
C915 C 0.41683 0.48603 0.81362 0.0
C916 C 0.49354 0.48839 0.80094 0.0
H917 H 0.63798 0.53834 0.81899 0.0
H918 H 0.57967 0.52515 0.81939 0.0
H919 H 0.54269 0.48997 0.7964 0.0
H920 H 0.37472 0.47123 0.79321 0.0
H921 H 0.43259 0.48444 0.79356 0.0
H922 H 0.4657 0.52633 0.81695 0.0
C923 C 0.59068 0.53041 0.81367 0.0
C924 C 0.5261 0.49819 0.8009 0.0
C925 C 0.62406 0.53802 0.81346 0.0
C926 C 0.38632 0.47491 0.79896 0.0
C927 C 0.41964 0.48243 0.79919 0.0
C928 C 0.48222 0.51776 0.81249 0.0
C929 C 0.57222 0.52821 0.80655 0.0
C930 C 0.53732 0.51786 0.80666 0.0
C931 C 0.43548 0.48853 0.80652 0.0
C932 C 0.47085 0.49815 0.8067 0.0
H933 H 0.63248 0.54744 0.79336 0.0
H934 H 0.57435 0.53413 0.79368 0.0
H935 H 0.52254 0.54261 0.81699 0.0
H936 H 0.3695 0.47792 0.81889 0.0
H937 H 0.42796 0.48989 0.8194 0.0
C938 C 0.4484 0.10694 0.06663 0.0
C939 C 0.45935 0.1268 0.0609 0.0
C940 C 0.45821 0.07828 0.0663 0.0
C941 C 0.49755 0.02321 0.05303 0.0
H942 H 0.51192 0.98475 0.07327 0.0
C943 C 0.55758 0.90974 0.05571 0.0
C944 C 0.54366 0.89094 0.06136 0.0
C945 C 0.54759 0.93847 0.05528 0.0
C946 C 0.50778 0.99501 0.06755 0.0
H947 H 0.48908 0.13159 0.05023 0.0
H948 H 0.50656 0.08182 0.0497 0.0
H949 H 0.49387 0.03412 0.07319 0.0
H950 H 0.50679 0.88799 0.07071 0.0
H951 H 0.49015 0.93758 0.07007 0.0
H952 H 0.51209 0.98389 0.04743 0.0
C953 C 0.48986 0.08823 0.0544 0.0
C954 C 0.49723 0.02347 0.06749 0.0
C955 C 0.47981 0.11691 0.0547 0.0
C956 C 0.51901 0.90174 0.06644 0.0
C957 C 0.50927 0.93035 0.06606 0.0
C958 C 0.50838 0.9947 0.05309 0.0
C959 C 0.4796 0.06847 0.06026 0.0
C960 C 0.49157 0.03805 0.06024 0.0
C961 C 0.52353 0.94928 0.06053 0.0
C962 C 0.51333 0.98008 0.06036 0.0
H963 H 0.43223 0.11358 0.07142 0.0
H964 H 0.44891 0.06381 0.07081 0.0
H965 H 0.49324 0.03338 0.04731 0.0
H966 H 0.57669 0.90246 0.0517 0.0
H967 H 0.55928 0.9524 0.05097 0.0
C968 C 0.12437 0.47914 0.94235 0.0
C969 C 0.14002 0.47387 0.9497 0.0
C970 C 0.09105 0.48688 0.9421 0.0
C971 C 0.02705 0.52081 0.95464 0.0
H972 H 0.96598 0.49106 0.93895 0.0
C973 C 0.88753 0.54497 0.95655 0.0
C974 C 0.86868 0.54541 0.94951 0.0
C975 C 0.9208 0.53737 0.95634 0.0
C976 C 0.9827 0.50009 0.9433 0.0
H977 H 0.13296 0.47164 0.96251 0.0
H978 H 0.07496 0.48522 0.96213 0.0
H979 H 0.02266 0.47451 0.93898 0.0
H980 H 0.87005 0.53923 0.9367 0.0
H981 H 0.92844 0.52718 0.93621 0.0
H982 H 0.98767 0.54687 0.95887 0.0
C983 C 0.08832 0.4836 0.95654 0.0
C984 C 0.01532 0.49038 0.94334 0.0
C985 C 0.12144 0.47553 0.95677 0.0
C986 C 0.8841 0.53918 0.94221 0.0
C987 C 0.91753 0.53185 0.94197 0.0
C988 C 0.9946 0.53077 0.95454 0.0
C989 C 0.07272 0.48987 0.94922 0.0
C990 C 0.03793 0.5004 0.94906 0.0
C991 C 0.93638 0.53025 0.94905 0.0
C992 C 0.97166 0.52044 0.94892 0.0
H993 H 0.13821 0.47822 0.93682 0.0
H994 H 0.08 0.49162 0.93636 0.0
H995 H 0.04384 0.52947 0.95904 0.0
H996 H 0.8761 0.54936 0.96227 0.0
H997 H 0.9339 0.53607 0.96196 0.0
C998 C 0.47745 0.40121 0.20105 0.0
C999 C 0.45733 0.39123 0.19479 0.0
C1000 C 0.48736 0.42995 0.20139 0.0
C1001 C 0.49515 0.49473 0.18833 0.0
H1002 H 0.50858 0.53442 0.20844 0.0
C1003 C 0.51639 0.61655 0.18942 0.0
C1004 C 0.54064 0.6275 0.19461 0.0
C1005 C 0.50673 0.5879 0.18978 0.0
C1006 C 0.50527 0.52359 0.20277 0.0
H1007 H 0.43063 0.40432 0.1842 0.0
H1008 H 0.44708 0.45418 0.18486 0.0
H1009 H 0.48996 0.48483 0.2085 0.0
H1010 H 0.57301 0.61623 0.20442 0.0
H1011 H 0.55575 0.56621 0.2051 0.0
H1012 H 0.51004 0.53352 0.1826 0.0
C1013 C 0.45622 0.43974 0.1894 0.0
C1014 C 0.49458 0.49502 0.20279 0.0
C1015 C 0.44655 0.41103 0.18903 0.0
C1016 C 0.55421 0.60882 0.20034 0.0
C1017 C 0.54431 0.58004 0.20073 0.0
C1018 C 0.50558 0.52325 0.18831 0.0
C1019 C 0.47728 0.44965 0.1955 0.0
C1020 C 0.48911 0.48014 0.19556 0.0
C1021 C 0.52068 0.56908 0.19538 0.0
C1022 C 0.51061 0.53823 0.19551 0.0
H1023 H 0.48659 0.38658 0.20555 0.0
H1024 H 0.50381 0.43645 0.20614 0.0
H1025 H 0.49219 0.48405 0.18263 0.0
H1026 H 0.50444 0.63022 0.18509 0.0
H1027 H 0.48792 0.58054 0.18569 0.0
C1028 C 0.38442 0.03863 0.44227 0.0
C1029 C 0.36902 0.04487 0.44958 0.0
C1030 C 0.41772 0.03087 0.44204 0.0
C1031 C 0.48193 0.9983 0.45477 0.0
H1032 H 0.54273 0.02608 0.43874 0.0
C1033 C 0.62133 0.97375 0.45669 0.0
C1034 C 0.64006 0.97258 0.44965 0.0
C1035 C 0.58809 0.98146 0.45646 0.0
C1036 C 0.52609 0.01759 0.44319 0.0
H1037 H 0.37648 0.04868 0.46236 0.0
H1038 H 0.43447 0.03506 0.462 0.0
H1039 H 0.48612 0.04283 0.43871 0.0
H1040 H 0.63845 0.97745 0.43679 0.0
H1041 H 0.5801 0.98964 0.43627 0.0
H1042 H 0.52128 0.97254 0.45916 0.0
C1043 C 0.42094 0.036 0.45643 0.0
C1044 C 0.49351 0.02742 0.44319 0.0
C1045 C 0.38782 0.04411 0.45663 0.0
C1046 C 0.62451 0.9781 0.44231 0.0
C1047 C 0.59111 0.98552 0.44205 0.0
C1048 C 0.51433 0.98819 0.45471 0.0
C1049 C 0.43627 0.02877 0.44914 0.0
C1050 C 0.47101 0.01812 0.44903 0.0
C1051 C 0.5724 0.98791 0.44914 0.0
C1052 C 0.53717 0.99782 0.44896 0.0
H1053 H 0.37038 0.0388 0.43676 0.0
H1054 H 0.42858 0.02536 0.43632 0.0
H1055 H 0.46521 0.99019 0.45926 0.0
H1056 H 0.63284 0.96987 0.46244 0.0
H1057 H 0.57512 0.98336 0.46208 0.0
C1058 C 0.02664 0.11682 0.70125 0.0
C1059 C 0.0474 0.12672 0.6951 0.0
C1060 C 0.01663 0.0881 0.70153 0.0
C1061 C 0.00984 0.02339 0.68842 0.0
H1062 H 0.99449 0.98358 0.70842 0.0
C1063 C 0.98826 0.90159 0.68934 0.0
C1064 C 0.96364 0.89062 0.69441 0.0
C1065 C 0.99787 0.93025 0.68974 0.0
C1066 C 0.99833 0.99446 0.70278 0.0
H1067 H 0.07517 0.1135 0.68469 0.0
H1068 H 0.05854 0.06368 0.68528 0.0
H1069 H 0.01322 0.03315 0.70862 0.0
H1070 H 0.93047 0.90189 0.70405 0.0
H1071 H 0.94762 0.95192 0.70482 0.0
H1072 H 0.99535 0.98469 0.68258 0.0
C1073 C 0.04898 0.07817 0.68975 0.0
C1074 C 0.0091 0.023 0.70288 0.0
C1075 C 0.05875 0.10684 0.68943 0.0
C1076 C 0.94957 0.90931 0.70006 0.0
C1077 C 0.95941 0.93809 0.7005 0.0
C1078 C 0.99933 0.99491 0.68832 0.0
C1079 C 0.02724 0.06835 0.69571 0.0
C1080 C 0.01527 0.03791 0.6957 0.0
C1081 C 0.98349 0.94905 0.69528 0.0
C1082 C 0.99361 0.97989 0.69549 0.0
H1083 H 0.01708 0.13152 0.70567 0.0
H1084 H 0.99969 0.08165 0.70619 0.0
H1085 H 0.01335 0.03412 0.68274 0.0
H1086 H 1.00058 0.88793 0.68507 0.0
H1087 H 0.01701 0.93761 0.68574 0.0
C1088 C 0.60927 0.95502 0.31501 0.0
C1089 C 0.63548 0.96782 0.31911 0.0
C1090 C 0.57688 0.96262 0.31676 0.0
C1091 C 0.53094 0.02477 0.32355 0.0
H1092 H 0.4565 0.97328 0.3233 0.0
C1093 C 0.3793 0.02615 0.32499 0.0
C1094 C 0.37283 0.04567 0.31881 0.0
C1095 C 0.41154 0.0179 0.32671 0.0
C1096 C 0.47702 0.98795 0.32349 0.0
H1097 H 0.64853 0.99781 0.32843 0.0
H1098 H 0.59183 0.01116 0.33153 0.0
H1099 H 0.51213 0.95391 0.32344 0.0
H1100 H 0.39489 0.07242 0.30972 0.0
H1101 H 0.45125 0.05888 0.3129 0.0
H1102 H 0.49584 0.0588 0.32331 0.0
C1103 C 0.59629 0.99516 0.32698 0.0
C1104 C 0.50888 0.97684 0.32351 0.0
C1105 C 0.62866 0.98729 0.32529 0.0
C1106 C 0.39927 0.05798 0.31467 0.0
C1107 C 0.43152 0.05003 0.31646 0.0
C1108 C 0.49909 0.03587 0.32343 0.0
C1109 C 0.57007 0.98354 0.32257 0.0
C1110 C 0.53623 0.99511 0.32343 0.0
C1111 C 0.43797 0.0292 0.32232 0.0
C1112 C 0.47174 0.0176 0.3233 0.0
H1113 H 0.61391 0.9406 0.31007 0.0
H1114 H 0.55731 0.95351 0.3132 0.0
H1115 H 0.55145 0.03944 0.3234 0.0
H1116 H 0.35925 0.016 0.32816 0.0
H1117 H 0.41573 1.00197 0.33129 0.0
C1118 C 0.99016 0.90043 0.57327 0.0
C1119 C 0.96429 0.89082 0.5684 0.0
C1120 C 0.99876 0.92931 0.57347 0.0
C1121 C 0.9704 1.00223 0.56747 0.0
H1122 H 0.06308 0.02008 0.56902 0.0
C1123 C 0.02146 0.11392 0.56015 0.0
C1124 C 0.04324 0.12627 0.56571 0.0
C1125 C 0.01253 0.08521 0.56071 0.0
C1126 C 0.0371 0.01546 0.56866 0.0
H1127 H 0.92667 0.90399 0.56007 0.0
H1128 H 0.94206 0.9544 0.56023 0.0
H1129 H 0.04505 0.97054 0.56966 0.0
H1130 H 0.07384 0.11733 0.57603 0.0
H1131 H 0.05883 0.06676 0.57687 0.0
H1132 H 0.96276 0.04723 0.56622 0.0
C1133 C 0.95538 0.9398 0.56405 0.0
C1134 C 0.02664 0.98701 0.56906 0.0
C1135 C 0.94648 0.91087 0.56393 0.0
C1136 C 0.05715 0.1086 0.57162 0.0
C1137 C 0.04844 0.07965 0.57212 0.0
C1138 C 0.98093 0.03062 0.56697 0.0
C1139 C 0.98205 0.9494 0.56872 0.0
C1140 C 0.9931 0.97991 0.56846 0.0
C1141 C 0.02546 0.0678 0.56677 0.0
C1142 C 0.01441 0.03759 0.56753 0.0
H1143 H 0.00414 0.88544 0.57683 0.0
H1144 H 0.0188 0.93579 0.57732 0.0
H1145 H 0.94437 0.99786 0.56714 0.0
H1146 H 0.01092 0.12656 0.55537 0.0
H1147 H 0.99539 0.0766 0.55638 0.0
C1148 C 0.12834 0.48909 0.82484 0.0
C1149 C 0.13487 0.46968 0.81863 0.0
C1150 C 0.09606 0.49718 0.82657 0.0
C1151 C 0.00852 0.47927 0.82322 0.0
H1152 H 0.99572 0.56126 0.82318 0.0
C1153 C 0.89881 0.56046 0.81464 0.0
C1154 C 0.87249 0.54795 0.81877 0.0
C1155 C 0.93113 0.55265 0.81641 0.0
C1156 C 0.9989 0.53833 0.82326 0.0
H1157 H 0.11291 0.44289 0.80954 0.0
H1158 H 0.05649 0.45616 0.81273 0.0
H1159 H 0.05129 0.54178 0.82312 0.0
H1160 H 0.85915 0.51818 0.82811 0.0
H1161 H 0.91573 0.50442 0.83123 0.0
H1162 H 0.95614 0.47583 0.82312 0.0
C1163 C 0.0762 0.46505 0.8163 0.0
C1164 C 0.03073 0.52715 0.82329 0.0
C1165 C 0.10848 0.45725 0.8145 0.0
C1166 C 0.87912 0.52848 0.82496 0.0
C1167 C 0.91142 0.52038 0.82666 0.0
C1168 C 0.9767 0.49045 0.82329 0.0
C1169 C 0.06968 0.48584 0.82217 0.0
C1170 C 0.03592 0.49749 0.82311 0.0
C1171 C 0.93774 0.53178 0.82225 0.0
C1172 C 0.97151 0.52012 0.82315 0.0
H1173 H 0.14835 0.49933 0.82799 0.0
H1174 H 0.09182 0.51308 0.83116 0.0
H1175 H 0.01171 0.45634 0.82311 0.0
H1176 H 0.89431 0.57488 0.80969 0.0
H1177 H 0.95078 0.56159 0.81284 0.0
C1178 C 0.51939 0.61781 0.07292 0.0
C1179 C 0.54537 0.62727 0.06807 0.0
C1180 C 0.51078 0.58894 0.07318 0.0
C1181 C 0.53928 0.51586 0.06743 0.0
H1182 H 0.44652 0.49809 0.06879 0.0
C1183 C 0.48867 0.40392 0.0603 0.0
C1184 C 0.46658 0.39178 0.06582 0.0
C1185 C 0.49753 0.43265 0.0608 0.0
C1186 C 0.47252 0.50269 0.06848 0.0
H1187 H 0.58317 0.61386 0.05981 0.0
H1188 H 0.56777 0.56344 0.06008 0.0
H1189 H 0.46456 0.54765 0.06933 0.0
H1190 H 0.43532 0.40108 0.07599 0.0
H1191 H 0.45024 0.4517 0.07673 0.0
H1192 H 0.54696 0.47082 0.06633 0.0
C1193 C 0.55437 0.57817 0.06384 0.0
C1194 C 0.48298 0.53115 0.06883 0.0
C1195 C 0.56327 0.6071 0.06367 0.0
C1196 C 0.45227 0.40966 0.07162 0.0
C1197 C 0.46093 0.43864 0.07207 0.0
C1198 C 0.52876 0.48745 0.06699 0.0
C1199 C 0.5276 0.56872 0.0685 0.0
C1200 C 0.51655 0.53821 0.06829 0.0
C1201 C 0.48423 0.45028 0.06677 0.0
C1202 C 0.49525 0.48052 0.06748 0.0
H1203 H 0.50535 0.6329 0.07643 0.0
H1204 H 0.49066 0.58257 0.07701 0.0
H1205 H 0.56532 0.52022 0.06715 0.0
H1206 H 0.49952 0.39109 0.05561 0.0
H1207 H 0.51492 0.4411 0.05651 0.0
C1208 C 0.39911 0.45616 0.94137 0.0
C1209 C 0.37289 0.46856 0.93718 0.0
C1210 C 0.43147 0.46389 0.93962 0.0
C1211 C 0.47724 0.52595 0.93271 0.0
H1212 H 0.5518 0.47478 0.93304 0.0
C1213 C 0.62885 0.52786 0.93137 0.0
C1214 C 0.63524 0.54727 0.93758 0.0
C1215 C 0.59663 0.51959 0.92961 0.0
C1216 C 0.53125 0.48936 0.93283 0.0
H1217 H 0.35981 0.49801 0.92775 0.0
H1218 H 0.41649 0.51165 0.92466 0.0
H1219 H 0.49622 0.45518 0.93291 0.0
H1220 H 0.61309 0.57383 0.94669 0.0
H1221 H 0.55675 0.56028 0.94344 0.0
H1222 H 0.51226 0.56013 0.93293 0.0
C1223 C 0.41205 0.49582 0.92926 0.0
C1224 C 0.49942 0.47811 0.93281 0.0
C1225 C 0.37969 0.4878 0.93095 0.0
C1226 C 0.60877 0.55949 0.94171 0.0
C1227 C 0.57654 0.55153 0.93988 0.0
C1228 C 0.50906 0.5372 0.93283 0.0
C1229 C 0.43824 0.48457 0.93373 0.0
C1230 C 0.47203 0.49627 0.93286 0.0
C1231 C 0.57016 0.53077 0.93399 0.0
C1232 C 0.53644 0.51904 0.933 0.0
H1233 H 0.39447 0.44193 0.94636 0.0
H1234 H 0.45104 0.45507 0.94323 0.0
H1235 H 0.45668 0.54053 0.93283 0.0
H1236 H 0.64893 0.51778 0.92821 0.0
H1237 H 0.59249 0.5037 0.92501 0.0
C1238 C 0.56387 0.91123 0.19216 0.0
C1239 C 0.54646 0.89127 0.18755 0.0
C1240 C 0.55523 0.94019 0.19198 0.0
C1241 C 0.48471 0.98735 0.18661 0.0
H1242 H 0.54842 0.04771 0.1897 0.0
C1243 C 0.45379 0.1086 0.18395 0.0
C1244 C 0.46761 0.1265 0.18982 0.0
C1245 C 0.46268 0.07971 0.1835 0.0
C1246 C 0.53029 0.03107 0.18888 0.0
H1247 H 0.50771 0.88607 0.17881 0.0
H1248 H 0.4935 0.93647 0.17823 0.0
H1249 H 0.56683 0.99835 0.18888 0.0
H1250 H 0.50001 0.12732 0.20014 0.0
H1251 H 0.51577 0.07742 0.19925 0.0
H1252 H 0.44826 0.02031 0.18651 0.0
C1253 C 0.513 0.92989 0.18222 0.0
C1254 C 0.54084 1.00269 0.18844 0.0
C1255 C 0.52135 0.901 0.18248 0.0
C1256 C 0.48952 0.11447 0.1954 0.0
C1257 C 0.49859 0.0858 0.1949 0.0
C1258 C 0.47422 0.01577 0.18697 0.0
C1259 C 0.52921 0.94987 0.18712 0.0
C1260 C 0.5182 0.98034 0.18735 0.0
C1261 C 0.48572 0.06815 0.18887 0.0
C1262 C 0.49684 0.03795 0.18818 0.0
H1263 H 0.58308 0.90425 0.19618 0.0
H1264 H 0.56815 0.95476 0.19591 0.0
H1265 H 0.46635 0.97083 0.18593 0.0
H1266 H 0.43701 0.11712 0.17953 0.0
H1267 H 0.45234 0.06666 0.17878 0.0
C1268 C 0.87998 0.9887 0.43141 0.0
C1269 C 0.87342 0.96943 0.43765 0.0
C1270 C 0.91225 0.99685 0.42968 0.0
C1271 C 0.99973 0.97923 0.43306 0.0
H1272 H 0.01257 0.06125 0.4331 0.0
C1273 C 0.10935 0.06048 0.44174 0.0
C1274 C 0.13569 0.04816 0.43759 0.0
C1275 C 0.07705 0.05261 0.43995 0.0
C1276 C 0.00937 0.03831 0.43302 0.0
H1277 H 0.89533 0.94294 0.44681 0.0
H1278 H 0.95176 0.9563 0.44361 0.0
H1279 H 0.95698 0.04165 0.43314 0.0
H1280 H 0.1491 0.01865 0.4282 0.0
H1281 H 0.09254 1.00476 0.42505 0.0
H1282 H 0.05211 0.97589 0.43318 0.0
C1283 C 0.93207 0.96503 0.44001 0.0
C1284 C 0.97754 0.02707 0.43298 0.0
C1285 C 0.89978 0.95719 0.44182 0.0
C1286 C 0.12911 0.0288 0.43137 0.0
C1287 C 0.09683 0.02064 0.42965 0.0
C1288 C 0.03155 0.99047 0.43299 0.0
C1289 C 0.9386 0.98569 0.43411 0.0
C1290 C 0.97235 0.99739 0.43316 0.0
C1291 C 0.07049 0.03187 0.43407 0.0
C1292 C 0.03675 0.02015 0.43314 0.0
H1293 H 0.85997 0.99879 0.42822 0.0
H1294 H 0.91652 0.01266 0.42506 0.0
H1295 H 0.99653 0.95629 0.43317 0.0
H1296 H 0.11382 0.07479 0.44672 0.0
H1297 H 0.05738 0.06141 0.44354 0.0
C1298 C 0.06127 0.41084 0.692 0.0
C1299 C 0.04363 0.39086 0.68745 0.0
C1300 C 0.05247 0.43976 0.69189 0.0
C1301 C 0.98148 0.48687 0.68683 0.0
H1302 H 0.04536 0.54721 0.68976 0.0
C1303 C 0.95093 0.60834 0.68436 0.0
C1304 C 0.96504 0.62606 0.69024 0.0
C1305 C 0.95958 0.5794 0.68386 0.0
C1306 C 0.02718 0.53057 0.68898 0.0
H1307 H 0.00423 0.38561 0.67888 0.0
H1308 H 0.9897 0.43596 0.67843 0.0
H1309 H 0.06373 0.49788 0.68881 0.0
H1310 H 0.9976 0.6265 0.70053 0.0
H1311 H 0.01295 0.57652 0.69955 0.0
H1312 H 0.94503 0.51984 0.68688 0.0
C1313 C 0.00953 0.42941 0.68232 0.0
C1314 C 0.03771 0.50221 0.68847 0.0
C1315 C 0.01806 0.40055 0.68251 0.0
C1316 C 0.9869 0.61378 0.69578 0.0
C1317 C 0.99574 0.58508 0.69523 0.0
C1318 C 0.97101 0.51529 0.68726 0.0
C1319 C 0.02605 0.44941 0.68715 0.0
C1320 C 0.01501 0.47987 0.68744 0.0
C1321 C 0.98266 0.56763 0.68919 0.0
C1322 C 0.9937 0.53745 0.68841 0.0
H1323 H 0.08086 0.4039 0.69592 0.0
H1324 H 0.06562 0.45432 0.69577 0.0
H1325 H 0.96309 0.47036 0.6862 0.0
H1326 H 0.93417 0.61705 0.67997 0.0
H1327 H 0.94907 0.56649 0.67913 0.0
C1328 C 0.26318 1.00544 0.34718 0.0
C1329 C 0.24225 0.02537 0.34348 0.0
C1330 C 0.26414 1.00266 0.35558 0.0
C1331 C 0.2178 0.0221 0.3743 0.0
H1332 H 0.30158 0.01061 0.38476 0.0
C1333 C 0.23726 0.04619 0.40794 0.0
C1334 C 0.25681 0.02774 0.41257 0.0
C1335 C 0.23486 0.04296 0.39962 0.0
C1336 C 0.27789 0.01347 0.38195 0.0
H1337 H 0.20482 0.05708 0.34587 0.0
H1338 H 0.20706 0.05285 0.36033 0.0
H1339 H 0.29837 0.01025 0.37015 0.0
H1340 H 0.28894 0.99109 0.41198 0.0
H1341 H 0.28494 0.98548 0.39737 0.0
H1342 H 0.1975 0.02604 0.38608 0.0
C1343 C 0.22264 0.03905 0.3568 0.0
C1344 C 0.276 0.01321 0.37353 0.0
C1345 C 0.22164 0.04177 0.34844 0.0
C1346 C 0.27361 1.00564 0.40862 0.0
C1347 C 0.27151 1.00258 0.40023 0.0
C1348 C 0.21975 0.02256 0.38269 0.0
C1349 C 0.24412 0.01967 0.36054 0.0
C1350 C 0.24597 0.01792 0.36955 0.0
C1351 C 0.25208 0.02124 0.39561 0.0
C1352 C 0.24987 0.01863 0.38665 0.0
H1353 H 0.27962 0.99255 0.3436 0.0
H1354 H 0.28071 0.98719 0.35817 0.0
H1355 H 0.19404 0.02509 0.37153 0.0
H1356 H 0.22364 0.06326 0.41077 0.0
H1357 H 0.21991 0.05793 0.3963 0.0
C1358 C 0.98094 0.73679 0.59763 0.0
C1359 C 0.97686 0.76266 0.59351 0.0
C1360 C 0.98389 0.73632 0.60601 0.0
C1361 C 0.96575 0.78104 0.62411 0.0
H1362 H 0.01543 0.7226 0.63515 0.0
C1363 C 0.98016 0.78118 0.65871 0.0
C1364 C 0.97571 0.75495 0.66263 0.0
C1365 C 0.98327 0.7824 0.65034 0.0
C1366 C 1.00127 0.73898 0.63216 0.0
H1367 H 0.97306 0.80833 0.59489 0.0
H1368 H 0.97956 0.80788 0.60947 0.0
H1369 H 0.01628 0.72468 0.62054 0.0
H1370 H 0.97109 0.70945 0.6609 0.0
H1371 H 0.97714 0.71136 0.64627 0.0
H1372 H 0.951 0.79543 0.63575 0.0
C1373 C 0.97984 0.78774 0.6063 0.0
C1374 C 1.00165 0.74016 0.62375 0.0
C1375 C 0.97659 0.78813 0.59792 0.0
C1376 C 0.97511 0.72988 0.65803 0.0
C1377 C 0.97853 0.73104 0.64965 0.0
C1378 C 0.96564 0.78001 0.63251 0.0
C1379 C 0.98291 0.76177 0.61052 0.0
C1380 C 0.98372 0.76111 0.61956 0.0
C1381 C 0.98209 0.75738 0.64567 0.0
C1382 C 0.98323 0.75888 0.63668 0.0
H1383 H 0.98051 0.7168 0.59437 0.0
H1384 H 0.98565 0.71582 0.60896 0.0
H1385 H 0.95099 0.79715 0.62119 0.0
H1386 H 0.98019 0.80085 0.66212 0.0
H1387 H 0.98628 0.80303 0.64752 0.0
C1388 C 0.24379 0.51119 0.847 0.0
C1389 C 0.2648 0.49135 0.84329 0.0
C1390 C 0.2429 0.51395 0.8554 0.0
C1391 C 0.28947 0.49454 0.8741 0.0
H1392 H 0.20587 0.50639 0.88461 0.0
C1393 C 0.2702 0.47085 0.90778 0.0
C1394 C 0.25095 0.48955 0.9124 0.0
C1395 C 0.2725 0.47395 0.89945 0.0
C1396 C 0.22951 0.50342 0.88178 0.0
H1397 H 0.30238 0.45976 0.84565 0.0
H1398 H 0.30019 0.46391 0.86012 0.0
H1399 H 0.2089 0.50658 0.86999 0.0
H1400 H 0.21922 0.52646 0.9118 0.0
H1401 H 0.22301 0.5318 0.89718 0.0
H1402 H 0.30989 0.49063 0.88588 0.0
C1403 C 0.28453 0.47767 0.8566 0.0
C1404 C 0.2313 0.50358 0.87336 0.0
C1405 C 0.28549 0.47499 0.84824 0.0
C1406 C 0.23432 0.51173 0.90844 0.0
C1407 C 0.2363 0.51463 0.90005 0.0
C1408 C 0.28762 0.49416 0.88249 0.0
C1409 C 0.26302 0.497 0.86035 0.0
C1410 C 0.26127 0.49876 0.86936 0.0
C1411 C 0.25545 0.49574 0.89543 0.0
C1412 C 0.25756 0.49822 0.88647 0.0
H1413 H 0.22728 0.52405 0.84343 0.0
H1414 H 0.2263 0.52938 0.858 0.0
H1415 H 0.3132 0.49148 0.87133 0.0
H1416 H 0.28368 0.45372 0.91061 0.0
H1417 H 0.28723 0.45881 0.89613 0.0
C1418 C 0.5281 0.78035 0.09738 0.0
C1419 C 0.53274 0.75452 0.09327 0.0
C1420 C 0.52522 0.78084 0.10576 0.0
C1421 C 0.54476 0.73665 0.12386 0.0
H1422 H 0.49354 0.79405 0.1349 0.0
C1423 C 0.53032 0.73616 0.15844 0.0
C1424 C 0.53401 0.76246 0.16237 0.0
C1425 C 0.52735 0.73492 0.15007 0.0
C1426 C 0.50814 0.77797 0.13192 0.0
H1427 H 0.53766 0.70895 0.09467 0.0
H1428 H 0.53132 0.7094 0.10926 0.0
H1429 H 0.4926 0.79189 0.12029 0.0
H1430 H 0.53734 0.80805 0.16068 0.0
H1431 H 0.53156 0.80609 0.14604 0.0
H1432 H 0.56004 0.72264 0.1355 0.0
C1433 C 0.53051 0.7295 0.10608 0.0
C1434 C 0.5077 0.77675 0.1235 0.0
C1435 C 0.53367 0.72909 0.09769 0.0
C1436 C 0.53399 0.78756 0.15779 0.0
C1437 C 0.5307 0.78637 0.14941 0.0
C1438 C 0.54494 0.73772 0.13226 0.0
C1439 C 0.52687 0.75545 0.11028 0.0
C1440 C 0.52617 0.75615 0.11931 0.0
C1441 C 0.52788 0.75998 0.14541 0.0
C1442 C 0.52678 0.75848 0.13643 0.0
H1443 H 0.52802 0.80032 0.09411 0.0
H1444 H 0.52301 0.80132 0.1087 0.0
H1445 H 0.55994 0.72085 0.12093 0.0
H1446 H 0.53069 0.71649 0.16184 0.0
H1447 H 0.52489 0.71425 0.14724 0.0
C1448 C 0.76384 0.50621 0.84712 0.0
C1449 C 0.74261 0.5259 0.84342 0.0
C1450 C 0.76478 0.50341 0.85552 0.0
C1451 C 0.71797 0.52218 0.87422 0.0
H1452 H 0.80179 0.51143 0.88473 0.0
C1453 C 0.73679 0.54607 0.9079 0.0
C1454 C 0.75655 0.52777 0.91252 0.0
C1455 C 0.7345 0.5429 0.89957 0.0
C1456 C 0.7781 0.51408 0.8819 0.0
H1457 H 0.70469 0.55716 0.8458 0.0
H1458 H 0.70691 0.55291 0.86027 0.0
H1459 H 0.79875 0.51122 0.87011 0.0
H1460 H 0.78916 0.49144 0.91191 0.0
H1461 H 0.78535 0.48595 0.8973 0.0
H1462 H 0.69749 0.52576 0.886 0.0
C1463 C 0.72273 0.53931 0.85673 0.0
C1464 C 0.7763 0.51391 0.87348 0.0
C1465 C 0.72174 0.54205 0.84837 0.0
C1466 C 0.77367 0.50587 0.90856 0.0
C1467 C 0.77167 0.50288 0.90017 0.0
C1468 C 0.71982 0.52255 0.88261 0.0
C1469 C 0.74446 0.52015 0.86048 0.0
C1470 C 0.74625 0.51835 0.86949 0.0
C1471 C 0.75204 0.52141 0.89555 0.0
C1472 C 0.74996 0.51889 0.88659 0.0
H1473 H 0.78049 0.49352 0.84355 0.0
H1474 H 0.78157 0.48812 0.85811 0.0
H1475 H 0.6942 0.52495 0.87145 0.0
H1476 H 0.72293 0.56297 0.91074 0.0
H1477 H 0.71939 0.55776 0.89626 0.0
C1478 C 0.47678 0.22974 0.15805 0.0
C1479 C 0.47636 0.25524 0.16244 0.0
C1480 C 0.48009 0.23014 0.14967 0.0
C1481 C 0.50102 0.27805 0.13221 0.0
H1482 H 0.45228 0.22148 0.12016 0.0
C1483 C 0.47521 0.28745 0.09788 0.0
C1484 C 0.47654 0.26237 0.09329 0.0
C1485 C 0.47847 0.28641 0.10626 0.0
C1486 C 0.4664 0.23727 0.12341 0.0
H1487 H 0.47878 0.30116 0.16155 0.0
H1488 H 0.48401 0.30214 0.14697 0.0
H1489 H 0.4519 0.21991 0.13473 0.0
H1490 H 0.4821 0.21658 0.09384 0.0
H1491 H 0.48793 0.21462 0.10845 0.0
H1492 H 0.51465 0.29581 0.12083 0.0
C1493 C 0.48277 0.28163 0.14992 0.0
C1494 C 0.46629 0.23633 0.13182 0.0
C1495 C 0.47974 0.28117 0.15831 0.0
C1496 C 0.48154 0.23626 0.09723 0.0
C1497 C 0.48448 0.23516 0.10561 0.0
C1498 C 0.50086 0.27913 0.12379 0.0
C1499 C 0.48254 0.25613 0.14543 0.0
C1500 C 0.48356 0.25672 0.13639 0.0
C1501 C 0.48258 0.26018 0.11027 0.0
C1502 C 0.48351 0.25877 0.11926 0.0
H1503 H 0.47379 0.20949 0.16109 0.0
H1504 H 0.48039 0.20997 0.14651 0.0
H1505 H 0.51513 0.2939 0.13544 0.0
H1506 H 0.47074 0.30776 0.09499 0.0
H1507 H 0.4765 0.30608 0.10962 0.0
C1508 C 0.78661 0.97611 0.34843 0.0
C1509 C 0.76533 0.99193 0.34349 0.0
C1510 C 0.78562 0.97877 0.35679 0.0
C1511 C 0.73162 1.00335 0.37357 0.0
H1512 H 0.81063 0.99219 0.38607 0.0
C1513 C 0.73451 0.01143 0.40865 0.0
C1514 C 0.75178 0.98959 0.41261 0.0
C1515 C 0.7364 0.01443 0.40026 0.0
C1516 C 0.78825 0.99521 0.38269 0.0
H1517 H 0.72674 0.02366 0.34365 0.0
H1518 H 0.72569 0.02898 0.35821 0.0
H1519 H 0.81386 0.99317 0.37152 0.0
H1520 H 0.78553 0.9545 0.4108 0.0
H1521 H 0.78894 0.95978 0.39632 0.0
H1522 H 0.70616 1.00553 0.38482 0.0
C1523 C 0.74278 0.01398 0.3556 0.0
C1524 C 0.79006 0.99567 0.3743 0.0
C1525 C 0.74371 0.01123 0.34721 0.0
C1526 C 0.77157 0.97136 0.40797 0.0
C1527 C 0.77378 0.97457 0.39965 0.0
C1528 C 0.72987 1.00312 0.38199 0.0
C1529 C 0.76349 0.99754 0.36055 0.0
C1530 C 0.76172 0.99925 0.36957 0.0
C1531 C 0.75609 0.996 0.39564 0.0
C1532 C 0.75809 0.99856 0.38667 0.0
H1533 H 0.80399 0.96131 0.34584 0.0
H1534 H 0.80175 0.96541 0.36031 0.0
H1535 H 0.70912 1.00584 0.37021 0.0
H1536 H 0.71899 0.0258 0.41202 0.0
H1537 H 0.72261 0.03131 0.3974 0.0
C1538 C 0.03208 0.28781 0.65795 0.0
C1539 C 0.0324 0.26231 0.66234 0.0
C1540 C 0.02866 0.28741 0.64957 0.0
C1541 C 0.00689 0.23959 0.63217 0.0
H1542 H 0.05585 0.29574 0.62003 0.0
C1543 C 0.03223 0.22972 0.59784 0.0
C1544 C 0.03118 0.25477 0.59323 0.0
C1545 C 0.02891 0.23085 0.60621 0.0
C1546 C 0.04166 0.28008 0.62331 0.0
H1547 H 0.02965 0.2164 0.66146 0.0
H1548 H 0.02426 0.21542 0.64688 0.0
H1549 H 0.05661 0.2974 0.63459 0.0
H1550 H 0.02596 0.3006 0.59374 0.0
H1551 H 0.01999 0.30272 0.60834 0.0
H1552 H 0.99281 0.22185 0.62081 0.0
C1553 C 0.02569 0.23592 0.64984 0.0
C1554 C 0.042 0.28107 0.63171 0.0
C1555 C 0.02883 0.23639 0.65821 0.0
C1556 C 0.02628 0.28094 0.59715 0.0
C1557 C 0.02328 0.28213 0.60552 0.0
C1558 C 0.00683 0.23846 0.62375 0.0
C1559 C 0.02596 0.26142 0.64534 0.0
C1560 C 0.02468 0.26081 0.63631 0.0
C1561 C 0.02502 0.25715 0.6102 0.0
C1562 C 0.02425 0.25867 0.61919 0.0
H1563 H 0.03515 0.30805 0.66099 0.0
H1564 H 0.02841 0.30757 0.64642 0.0
H1565 H 0.99273 0.22386 0.63542 0.0
H1566 H 0.03665 0.20936 0.59497 0.0
H1567 H 0.03074 0.21121 0.60959 0.0
C1568 C 0.33708 0.12146 0.27442 0.0
C1569 C 0.30819 0.10492 0.27403 0.0
C1570 C 0.3497 0.13534 0.26764 0.0
C1571 C 0.34438 0.13725 0.24511 0.0
H1572 H 0.3936 0.20726 0.24794 0.0
C1573 C 0.41491 0.18945 0.21845 0.0
C1574 C 0.41709 0.21931 0.21814 0.0
C1575 C 0.40241 0.17558 0.22528 0.0
C1576 C 0.37969 0.1879 0.24696 0.0
H1577 H 0.26974 0.09098 0.26595 0.0
H1578 H 0.29099 0.11602 0.25421 0.0
H1579 H 0.36855 0.18445 0.25944 0.0
H1580 H 0.40755 0.25813 0.22469 0.0
H1581 H 0.38531 0.23435 0.23654 0.0
H1582 H 0.35442 0.14142 0.23256 0.0
C1583 C 0.30449 0.11761 0.25977 0.0
C1584 C 0.3656 0.17441 0.25365 0.0
C1585 C 0.29194 0.10346 0.26658 0.0
C1586 C 0.4068 0.23504 0.22484 0.0
C1587 C 0.39402 0.22125 0.23165 0.0
C1588 C 0.35826 0.1509 0.2384 0.0
C1589 C 0.33375 0.13373 0.26016 0.0
C1590 C 0.34784 0.14868 0.25289 0.0
C1591 C 0.39124 0.19122 0.23198 0.0
C1592 C 0.37634 0.17646 0.23919 0.0
H1593 H 0.35018 0.12393 0.28001 0.0
H1594 H 0.37244 0.14703 0.26828 0.0
H1595 H 0.33132 0.11742 0.24419 0.0
H1596 H 0.42228 0.17682 0.21332 0.0
H1597 H 0.4014 0.15251 0.22527 0.0
C1598 C 0.83028 0.92847 0.48753 0.0
C1599 C 0.8046 0.91635 0.48301 0.0
C1600 C 0.8431 0.91447 0.49428 0.0
C1601 C 0.85362 0.84275 0.50315 0.0
H1602 H 0.8725 0.88359 0.52279 0.0
C1603 C 0.89685 0.78302 0.53191 0.0
C1604 C 0.91535 0.79754 0.53773 0.0
C1605 C 0.88445 0.79736 0.52516 0.0
C1606 C 0.8681 0.87176 0.51733 0.0
H1607 H 0.77231 0.87979 0.48218 0.0
H1608 H 0.79501 0.8551 0.4939 0.0
H1609 H 0.84817 0.90873 0.51149 0.0
H1610 H 0.93716 0.83811 0.54076 0.0
H1611 H 0.9172 0.86296 0.52882 0.0
H1612 H 0.87441 0.80601 0.5088 0.0
C1613 C 0.80511 0.87562 0.49222 0.0
C1614 C 0.8538 0.88629 0.51083 0.0
C1615 C 0.79184 0.88991 0.48554 0.0
C1616 C 0.92278 0.8264 0.5364 0.0
C1617 C 0.91081 0.84073 0.52958 0.0
C1618 C 0.86842 0.8283 0.50959 0.0
C1619 C 0.8311 0.8876 0.49667 0.0
C1620 C 0.84615 0.872 0.50365 0.0
C1621 C 0.89074 0.82666 0.5239 0.0
C1622 C 0.87582 0.84243 0.51685 0.0
H1623 H 0.84071 0.9488 0.48578 0.0
H1624 H 0.86316 0.92435 0.49751 0.0
H1625 H 0.84862 0.83107 0.49769 0.0
H1626 H 0.89084 0.7607 0.53275 0.0
H1627 H 0.86896 0.78548 0.52109 0.0
C1628 C 0.1043 0.32864 0.71695 0.0
C1629 C 0.09034 0.30135 0.71772 0.0
C1630 C 0.11708 0.34312 0.72364 0.0
C1631 C 0.14854 0.33059 0.74446 0.0
H1632 H 0.14199 0.41281 0.74611 0.0
C1633 C 0.21782 0.39461 0.76937 0.0
C1634 C 0.20129 0.41775 0.77293 0.0
C1635 C 0.205 0.38084 0.76254 0.0
C1636 C 0.14397 0.38981 0.74581 0.0
H1637 H 0.07968 0.26756 0.72615 0.0
H1638 H 0.10104 0.29298 0.73788 0.0
H1639 H 0.11675 0.38826 0.73483 0.0
H1640 H 0.15867 0.44504 0.77173 0.0
H1641 H 0.13633 0.42105 0.76002 0.0
H1642 H 0.1752 0.33214 0.75554 0.0
C1643 C 0.10225 0.30334 0.73209 0.0
C1644 C 0.1297 0.37566 0.73924 0.0
C1645 C 0.08942 0.28889 0.72538 0.0
C1646 C 0.17204 0.42711 0.76928 0.0
C1647 C 0.15931 0.41345 0.76246 0.0
C1648 C 0.16287 0.34477 0.75102 0.0
C1649 C 0.11662 0.33064 0.73133 0.0
C1650 C 0.13165 0.34577 0.73844 0.0
C1651 C 0.17532 0.38986 0.759 0.0
C1652 C 0.16078 0.37465 0.75184 0.0
H1653 H 0.10605 0.33852 0.7111 0.0
H1654 H 0.12832 0.36378 0.72271 0.0
H1655 H 0.15111 0.30766 0.74406 0.0
H1656 H 0.24025 0.38656 0.77199 0.0
H1657 H 0.21844 0.36306 0.76003 0.0
C1658 C 0.71693 0.62794 0.98535 0.0
C1659 C 0.70422 0.60142 0.98288 0.0
C1660 C 0.70368 0.64234 0.99202 0.0
C1661 C 0.65524 0.63195 1.01067 0.0
H1662 H 0.63437 0.71215 1.00852 0.0
C1663 C 0.5864 0.69224 0.03618 0.0
C1664 C 0.59381 0.72113 0.03746 0.0
C1665 C 0.59831 0.6778 0.02937 0.0
C1666 C 0.64044 0.68989 1.00935 0.0
H1667 H 0.66824 0.56894 0.98572 0.0
H1668 H 0.64584 0.59359 0.99742 0.0
H1669 H 0.6601 0.6869 0.99743 0.0
H1670 H 0.61821 0.7579 0.03241 0.0
H1671 H 0.63998 0.73293 0.02078 0.0
H1672 H 0.63667 0.63487 0.02264 0.0
C1673 C 0.66583 0.60345 0.99417 0.0
C1674 C 0.6552 0.67533 1.00292 0.0
C1675 C 0.67863 0.58933 0.98743 0.0
C1676 C 0.61222 0.73556 0.03161 0.0
C1677 C 0.62456 0.72111 0.02488 0.0
C1678 C 0.64097 0.6466 0.01716 0.0
C1679 C 0.67777 0.63039 0.9965 0.0
C1680 C 0.66276 0.64611 1.00346 0.0
C1681 C 0.6183 0.69178 0.02366 0.0
C1682 C 0.63316 0.67589 1.01663 0.0
H1683 H 0.73639 0.63803 0.98197 0.0
H1684 H 0.71374 0.66291 0.99366 0.0
H1685 H 0.66094 0.60954 1.01137 0.0
H1686 H 0.57208 0.68059 0.04056 0.0
H1687 H 0.59195 0.65554 0.02865 0.0
C1688 C 0.41781 0.28832 0.03025 0.0
C1689 C 0.41742 0.3009 0.0379 0.0
C1690 C 0.40494 0.30282 0.02356 0.0
C1691 C 0.37813 0.37532 1.01643 0.0
H1692 H 0.33162 0.33199 1.00024 0.0
C1693 C 0.33525 0.42701 0.9865 0.0
C1694 C 0.30591 0.4177 0.98287 0.0
C1695 C 0.34803 0.4133 0.9933 0.0
C1696 C 0.34422 0.34457 1.00473 0.0
H1697 H 0.40262 0.33832 0.04452 0.0
H1698 H 0.38025 0.36363 0.03295 0.0
H1699 H 0.35585 0.30742 1.01167 0.0
H1700 H 0.26681 0.38656 0.98383 0.0
H1701 H 0.28866 0.363 0.99577 0.0
H1702 H 0.36593 0.41252 1.00959 0.0
C1703 C 0.39112 0.34285 0.03201 0.0
C1704 C 0.35864 0.33034 1.01127 0.0
C1705 C 0.40397 0.32834 0.03868 0.0
C1706 C 0.28931 0.39457 0.98644 0.0
C1707 C 0.30216 0.38076 0.99325 0.0
C1708 C 0.36375 0.38953 1.00989 0.0
C1709 C 0.39104 0.33026 0.02433 0.0
C1710 C 0.37591 0.34544 0.01724 0.0
C1711 C 0.33196 0.38971 0.99677 0.0
C1712 C 0.34658 0.37444 1.0039 0.0
H1713 H 0.42713 0.26688 0.02948 0.0
H1714 H 0.40573 0.29236 0.01779 0.0
H1715 H 0.39137 0.38787 0.02081 0.0
H1716 H 0.34868 0.44492 0.98405 0.0
H1717 H 0.37109 0.42086 0.99571 0.0
C1718 C 0.71151 0.92111 0.26614 0.0
C1719 C 0.7017 0.91263 0.27387 0.0
C1720 C 0.69837 0.90783 0.25926 0.0
C1721 C 0.62812 0.86015 0.25276 0.0
H1722 H 0.67806 0.85419 0.23311 0.0
C1723 C 0.58656 0.78959 0.22568 0.0
C1724 C 0.59076 0.8008 0.21793 0.0
C1725 C 0.59909 0.80395 0.23243 0.0
C1726 C 0.66359 0.85587 0.23852 0.0
H1727 H 0.67155 0.88235 0.28033 0.0
H1728 H 0.64979 0.85874 0.26852 0.0
H1729 H 0.70256 0.87691 0.24481 0.0
H1730 H 0.61218 0.83562 0.21122 0.0
H1731 H 0.63419 0.86059 0.22295 0.0
H1732 H 0.58948 0.83844 0.24648 0.0
C1733 C 0.66653 0.8764 0.26766 0.0
C1734 C 0.67768 0.86907 0.24528 0.0
C1735 C 0.67928 0.88988 0.2745 0.0
C1736 C 0.60802 0.82666 0.21712 0.0
C1737 C 0.62093 0.84083 0.22385 0.0
C1738 C 0.61424 0.84666 0.24604 0.0
C1739 C 0.67532 0.88536 0.25989 0.0
C1740 C 0.66025 0.87145 0.25256 0.0
C1741 C 0.61687 0.82963 0.23162 0.0
C1742 C 0.63171 0.84428 0.2388 0.0
H1743 H 0.72854 0.93865 0.2654 0.0
H1744 H 0.70574 0.91578 0.25345 0.0
H1745 H 0.61327 0.862 0.2581 0.0
H1746 H 0.57463 0.76916 0.22651 0.0
H1747 H 0.59587 0.79436 0.23828 0.0
C1748 C 0.21755 0.1282 0.48541 0.0
C1749 C 0.20464 0.1018 0.4829 0.0
C1750 C 0.2043 0.14262 0.49207 0.0
C1751 C 0.15521 0.13236 0.51064 0.0
H1752 H 0.13548 0.2128 0.50856 0.0
C1753 C 0.08618 0.19284 0.53608 0.0
C1754 C 0.094 0.2216 0.53743 0.0
C1755 C 0.09815 0.17842 0.52927 0.0
C1756 C 0.14122 0.19046 0.50937 0.0
H1757 H 0.16829 0.06956 0.48567 0.0
H1758 H 0.14587 0.09424 0.49735 0.0
H1759 H 0.16124 0.1875 0.49749 0.0
H1760 H 0.11923 0.25819 0.53252 0.0
H1761 H 0.14106 0.23324 0.52089 0.0
H1762 H 0.13625 0.13524 0.52257 0.0
C1763 C 0.16603 0.10399 0.49414 0.0
C1764 C 0.156 0.17587 0.50295 0.0
C1765 C 0.17884 0.08985 0.4874 0.0
C1766 C 0.1129 0.23595 0.53166 0.0
C1767 C 0.12527 0.22152 0.52493 0.0
C1768 C 0.1409 0.14702 0.51712 0.0
C1769 C 0.17818 0.13082 0.49651 0.0
C1770 C 0.16315 0.14657 0.50347 0.0
C1771 C 0.11859 0.1923 0.52364 0.0
C1772 C 0.1335 0.1764 0.51662 0.0
H1773 H 0.23718 0.13819 0.48206 0.0
H1774 H 0.21453 0.1631 0.49375 0.0
H1775 H 0.1606 0.10988 0.51132 0.0
H1776 H 0.07151 0.18126 0.5404 0.0
H1777 H 0.09147 0.15626 0.52849 0.0
C1778 C 0.91703 0.73027 0.72571 0.0
C1779 C 0.91651 0.71771 0.71806 0.0
C1780 C 0.90428 0.71573 0.73241 0.0
C1781 C 0.87771 0.64314 0.73956 0.0
H1782 H 0.83139 0.68628 0.75579 0.0
C1783 C 0.83531 0.59126 0.76951 0.0
C1784 C 0.80595 0.60043 0.77315 0.0
C1785 C 0.84802 0.60504 0.76272 0.0
C1786 C 0.84395 0.67375 0.75129 0.0
H1787 H 0.90159 0.68027 0.71144 0.0
H1788 H 0.87942 0.65488 0.72303 0.0
H1789 H 0.85538 0.71095 0.74434 0.0
H1790 H 0.76678 0.63141 0.7722 0.0
H1791 H 0.78852 0.6551 0.76027 0.0
H1792 H 0.8657 0.60589 0.74641 0.0
C1793 C 0.8903 0.67569 0.72397 0.0
C1794 C 0.85822 0.68804 0.74474 0.0
C1795 C 0.90303 0.69024 0.71729 0.0
C1796 C 0.78929 0.6235 0.76959 0.0
C1797 C 0.80208 0.63739 0.76278 0.0
C1798 C 0.86347 0.62887 0.74611 0.0
C1799 C 0.89037 0.68825 0.73165 0.0
C1800 C 0.87541 0.67301 0.73875 0.0
C1801 C 0.83187 0.62856 0.75926 0.0
C1802 C 0.84637 0.64389 0.75211 0.0
H1803 H 0.92638 0.75173 0.72648 0.0
H1804 H 0.90518 0.72617 0.73819 0.0
H1805 H 0.89089 0.63064 0.73516 0.0
H1806 H 0.84878 0.57338 0.77196 0.0
H1807 H 0.87108 0.59758 0.7603 0.0
loop_
_geom_bond_atom_site_label_1
_geom_bond_atom_site_label_2
_geom_bond_distance
_geom_bond_site_symmetry_2
_ccdc_geom_bond_type
C0 C1 1.443 . S
C0 N4 1.376 . S
C0 C38 1.389 . S
C1 C0 1.443 . S
C1 C2 1.340 . S
C1 H41 0.951 . S
C2 C1 1.340 . S
C2 C3 1.439 . S
C2 H42 0.950 . S
C3 C2 1.439 . S
C3 N4 1.374 . S
C3 C37 1.395 . S
N4 C0 1.376 . S
N4 C3 1.374 . S
N4 Co5 2.008 . S
Co5 N4 2.008 . S
Co5 N6 1.995 . S
Co5 N11 2.008 . S
Co5 N16 1.995 . S
Co5 N21 2.282 . S
Co5 N27 2.282 . S
N6 Co5 1.995 . S
N6 C7 1.376 . S
N6 C10 1.383 . S
C7 N6 1.376 . S
C7 C8 1.446 . S
C7 C37 1.391 . S
C8 C7 1.446 . S
C8 C9 1.339 . S
C8 H43 0.949 . S
C9 C8 1.339 . S
C9 C10 1.439 . S
C9 H44 0.950 . S
C10 N6 1.383 . S
C10 C9 1.439 . S
C10 C39 1.392 . S
N11 Co5 2.008 . S
N11 C12 1.376 . S
N11 C15 1.374 1_545 S
C12 N11 1.376 . S
C12 C13 1.443 . S
C12 C39 1.389 . S
C13 C12 1.443 . S
C13 C14 1.340 1_545 S
C13 H45 0.957 . S
C14 C13 1.340 1_565 S
C14 C15 1.439 . S
C14 H46 0.950 . S
C15 N11 1.374 1_565 S
C15 C14 1.439 . S
C15 C40 1.395 . S
N16 Co5 1.995 . S
N16 C17 1.376 1_545 S
N16 C20 1.383 . S
C17 N16 1.376 1_565 S
C17 C18 1.446 . S
C17 C40 1.391 . S
C18 C17 1.446 . S
C18 C19 1.339 1_565 S
C18 H47 0.949 . S
C19 C18 1.339 1_545 S
C19 C20 1.439 . S
C19 H48 0.944 1_545 S
C20 N16 1.383 . S
C20 C19 1.439 . S
C20 C38 1.392 . S
N21 Co5 2.282 . S
N21 C24 1.332 . S
N21 C26 1.332 . S
C22 C23 1.386 . S
C22 C25 1.388 . S
C23 C22 1.386 . S
C23 C24 1.382 . S
C23 H49 0.950 1_545 S
C24 N21 1.332 . S
C24 C23 1.382 . S
C24 H35 0.952 . S
C25 C22 1.388 . S
C25 C26 1.382 . S
C25 H50 0.950 . S
C26 N21 1.332 . S
C26 C25 1.382 . S
C26 H36 0.948 . S
N27 Co5 2.282 . S
N27 C31 1.332 . S
N27 C32 1.332 . S
C28 C29 1.388 . S
C28 C32 1.382 . S
C28 H51 0.950 . S
C29 C28 1.388 . S
C29 C30 1.386 . S
C30 C29 1.386 . S
C30 C31 1.382 . S
C30 H52 0.950 . S
C31 N27 1.332 . S
C31 C30 1.382 . S
C31 H33 0.952 . S
C32 N27 1.332 . S
C32 C28 1.382 . S
C32 H34 0.948 . S
H33 C31 0.952 . S
H34 C32 0.948 . S
H35 C24 0.952 . S
H36 C26 0.948 . S
C37 C3 1.395 . S
C37 C7 1.391 . S
C38 C0 1.389 . S
C38 C20 1.392 . S
C39 C10 1.392 . S
C39 C12 1.389 . S
C40 C15 1.395 . S
C40 C17 1.391 . S
H41 C1 0.951 . S
H42 C2 0.950 . S
H43 C8 0.949 . S
H44 C9 0.950 . S
H45 C13 0.957 . S
H46 C14 0.950 . S
H47 C18 0.949 . S
H48 C19 0.944 1_565 S
H49 C23 0.950 1_565 S
H50 C25 0.950 . S
H51 C28 0.950 . S
H52 C30 0.950 . S
C53 C54 1.443 . S
C53 N57 1.376 . S
C53 C91 1.389 . S
C54 C53 1.443 . S
C54 C55 1.340 1_655 S
C54 H94 0.951 . S
C55 C54 1.340 1_455 S
C55 C56 1.439 . S
C55 H95 0.950 . S
C56 C55 1.439 . S
C56 N57 1.374 1_455 S
C56 C90 1.395 . S
N57 C53 1.376 . S
N57 C56 1.374 1_655 S
N57 Co58 2.008 . S
Co58 N57 2.008 . S
Co58 N59 1.995 . S
Co58 N64 2.008 . S
Co58 N69 1.995 . S
Co58 N74 2.282 . S
Co58 N80 2.282 . S
N59 Co58 1.995 . S
N59 C60 1.376 1_655 S
N59 C63 1.383 . S
C60 N59 1.376 1_455 S
C60 C61 1.446 . S
C60 C90 1.391 . S
C61 C60 1.446 . S
C61 C62 1.339 . S
C61 H96 0.949 . S
C62 C61 1.339 . S
C62 C63 1.439 1_455 S
C62 H97 0.950 . S
C63 N59 1.383 . S
C63 C62 1.439 1_655 S
C63 C92 1.392 . S
N64 Co58 2.008 . S
N64 C65 1.376 . S
N64 C68 1.374 . S
C65 N64 1.376 . S
C65 C66 1.443 . S
C65 C92 1.389 . S
C66 C65 1.443 . S
C66 C67 1.340 . S
C66 H98 0.951 . S
C67 C66 1.340 . S
C67 C68 1.439 . S
C67 H99 0.950 . S
C68 N64 1.374 . S
C68 C67 1.439 . S
C68 C93 1.395 . S
N69 Co58 1.995 . S
N69 C70 1.376 . S
N69 C73 1.383 . S
C70 N69 1.376 . S
C70 C71 1.446 . S
C70 C93 1.391 . S
C71 C70 1.446 . S
C71 C72 1.339 . S
C71 H100 0.949 . S
C72 C71 1.339 . S
C72 C73 1.439 . S
C72 H101 0.950 . S
C73 N69 1.383 . S
C73 C72 1.439 . S
C73 C91 1.392 . S
N74 Co58 2.282 . S
N74 C77 1.332 . S
N74 C79 1.332 . S
C75 C76 1.386 . S
C75 C78 1.388 . S
C76 C75 1.386 . S
C76 C77 1.382 . S
C76 H102 0.950 . S
C77 N74 1.332 . S
C77 C76 1.382 . S
C77 H88 0.952 . S
C78 C75 1.388 . S
C78 C79 1.382 . S
C78 H103 0.931 1_655 S
C79 N74 1.332 . S
C79 C78 1.382 . S
C79 H89 0.933 1_655 S
N80 Co58 2.282 . S
N80 C84 1.332 . S
N80 C85 1.332 . S
C81 C82 1.388 . S
C81 C85 1.382 . S
C81 H104 0.950 . S
C82 C81 1.388 . S
C82 C83 1.386 . S
C83 C82 1.386 . S
C83 C84 1.382 . S
C83 H105 0.950 1_655 S
C84 N80 1.332 . S
C84 C83 1.382 . S
C84 H86 0.975 . S
C85 N80 1.332 . S
C85 C81 1.382 . S
C85 H87 0.948 . S
H86 C84 0.975 . S
H87 C85 0.948 . S
H88 C77 0.952 . S
H89 C79 0.933 1_455 S
C90 C56 1.395 . S
C90 C60 1.391 . S
C91 C53 1.389 . S
C91 C73 1.392 . S
C92 C63 1.392 . S
C92 C65 1.389 . S
C93 C68 1.395 . S
C93 C70 1.391 . S
H94 C54 0.951 . S
H95 C55 0.950 . S
H96 C61 0.949 . S
H97 C62 0.950 . S
H98 C66 0.951 . S
H99 C67 0.950 . S
H100 C71 0.949 . S
H101 C72 0.950 . S
H102 C76 0.950 . S
H103 C78 0.931 1_455 S
H104 C81 0.950 . S
H105 C83 0.950 1_455 S
C106 C107 1.443 . S
C106 N110 1.376 . S
C106 C144 1.389 . S
C107 C106 1.443 . S
C107 C108 1.340 . S
C107 H147 0.951 . S
C108 C107 1.340 . S
C108 C109 1.439 . S
C108 H148 0.950 . S
C109 C108 1.439 . S
C109 N110 1.374 . S
C109 C143 1.395 . S
N110 C106 1.376 . S
N110 C109 1.374 . S
N110 Co111 2.008 . S
Co111 N110 2.008 . S
Co111 N112 1.995 . S
Co111 N117 2.008 . S
Co111 N122 1.995 . S
Co111 N127 2.282 . S
Co111 N133 2.282 . S
N112 Co111 1.995 . S
N112 C113 1.376 . S
N112 C116 1.383 . S
C113 N112 1.376 . S
C113 C114 1.446 . S
C113 C143 1.391 . S
C114 C113 1.446 . S
C114 C115 1.339 . S
C114 H149 0.949 . S
C115 C114 1.339 . S
C115 C116 1.439 . S
C115 H150 0.950 . S
C116 N112 1.383 . S
C116 C115 1.439 . S
C116 C145 1.392 . S
N117 Co111 2.008 . S
N117 C118 1.376 . S
N117 C121 1.374 . S
C118 N117 1.376 . S
C118 C119 1.443 . S
C118 C145 1.389 . S
C119 C118 1.443 . S
C119 C120 1.340 . S
C119 H151 0.951 . S
C120 C119 1.340 . S
C120 C121 1.439 . S
C120 H152 0.950 . S
C121 N117 1.374 . S
C121 C120 1.439 . S
C121 C146 1.395 . S
N122 Co111 1.995 . S
N122 C123 1.376 . S
N122 C126 1.383 . S
C123 N122 1.376 . S
C123 C124 1.446 . S
C123 C146 1.391 . S
C124 C123 1.446 . S
C124 C125 1.339 . S
C124 H153 0.949 . S
C125 C124 1.339 . S
C125 C126 1.439 . S
C125 H154 0.950 . S
C126 N122 1.383 . S
C126 C125 1.439 . S
C126 C144 1.392 . S
N127 Co111 2.282 . S
N127 C130 1.332 . S
N127 C132 1.332 . S
C128 C129 1.386 . S
C128 C131 1.388 . S
C129 C128 1.386 . S
C129 C130 1.382 . S
C129 H155 0.950 . S
C130 N127 1.332 . S
C130 C129 1.382 . S
C130 H141 0.952 . S
C131 C128 1.388 . S
C131 C132 1.382 . S
C131 H156 0.950 . S
C132 N127 1.332 . S
C132 C131 1.382 . S
C132 H142 0.948 . S
N133 Co111 2.282 . S
N133 C137 1.332 . S
N133 C138 1.332 . S
C134 C135 1.388 . S
C134 C138 1.382 . S
C134 H157 0.950 . S
C135 C134 1.388 . S
C135 C136 1.386 . S
C136 C135 1.386 . S
C136 C137 1.382 . S
C136 H158 0.950 . S
C137 N133 1.332 . S
C137 C136 1.382 . S
C137 H139 0.952 . S
C138 N133 1.332 . S
C138 C134 1.382 . S
C138 H140 0.948 . S
H139 C137 0.952 . S
H140 C138 0.948 . S
H141 C130 0.952 . S
H142 C132 0.948 . S
C143 C109 1.395 . S
C143 C113 1.391 . S
C144 C106 1.389 . S
C144 C126 1.392 . S
C145 C116 1.392 . S
C145 C118 1.389 . S
C146 C121 1.395 . S
C146 C123 1.391 . S
H147 C107 0.951 . S
H148 C108 0.950 . S
H149 C114 0.949 . S
H150 C115 0.950 . S
H151 C119 0.951 . S
H152 C120 0.950 . S
H153 C124 0.949 . S
H154 C125 0.950 . S
H155 C129 0.950 . S
H156 C131 0.950 . S
H157 C134 0.950 . S
H158 C136 0.950 . S
C159 C160 1.443 . S
C159 N163 1.376 . S
C159 C197 1.389 . S
C160 C159 1.443 . S
C160 C161 1.340 . S
C160 H200 0.951 . S
C161 C160 1.340 . S
C161 C162 1.439 . S
C161 H201 0.950 . S
C162 C161 1.439 . S
C162 N163 1.374 . S
C162 C196 1.395 . S
N163 C159 1.376 . S
N163 C162 1.374 . S
N163 Co164 2.008 . S
Co164 N163 2.008 . S
Co164 N165 1.995 . S
Co164 N170 2.008 . S
Co164 N175 1.995 . S
Co164 N180 2.282 . S
Co164 N186 2.282 . S
N165 Co164 1.995 . S
N165 C166 1.376 . S
N165 C169 1.383 . S
C166 N165 1.376 . S
C166 C167 1.446 . S
C166 C196 1.391 . S
C167 C166 1.446 . S
C167 C168 1.339 . S
C167 H202 0.949 . S
C168 C167 1.339 . S
C168 C169 1.439 . S
C168 H203 0.950 . S
C169 N165 1.383 . S
C169 C168 1.439 . S
C169 C198 1.392 . S
N170 Co164 2.008 . S
N170 C171 1.376 . S
N170 C174 1.374 . S
C171 N170 1.376 . S
C171 C172 1.443 . S
C171 C198 1.389 . S
C172 C171 1.443 . S
C172 C173 1.340 . S
C172 H204 0.951 . S
C173 C172 1.340 . S
C173 C174 1.439 . S
C173 H205 0.950 . S
C174 N170 1.374 . S
C174 C173 1.439 . S
C174 C199 1.395 . S
N175 Co164 1.995 . S
N175 C176 1.376 . S
N175 C179 1.383 . S
C176 N175 1.376 . S
C176 C177 1.446 . S
C176 C199 1.391 . S
C177 C176 1.446 . S
C177 C178 1.339 . S
C177 H206 0.949 . S
C178 C177 1.339 . S
C178 C179 1.439 . S
C178 H207 0.950 . S
C179 N175 1.383 . S
C179 C178 1.439 . S
C179 C197 1.392 . S
N180 Co164 2.282 . S
N180 C183 1.332 . S
N180 C185 1.332 . S
C181 C182 1.386 . S
C181 C184 1.388 . S
C182 C181 1.386 . S
C182 C183 1.382 . S
C182 H208 0.950 . S
C183 N180 1.332 . S
C183 C182 1.382 . S
C183 H194 0.952 . S
C184 C181 1.388 . S
C184 C185 1.382 . S
C184 H209 0.950 . S
C185 N180 1.332 . S
C185 C184 1.382 . S
C185 H195 0.948 . S
N186 Co164 2.282 . S
N186 C190 1.332 . S
N186 C191 1.332 . S
C187 C188 1.388 . S
C187 C191 1.382 . S
C187 H210 0.950 . S
C188 C187 1.388 . S
C188 C189 1.386 . S
C189 C188 1.386 . S
C189 C190 1.382 . S
C189 H211 0.950 . S
C190 N186 1.332 . S
C190 C189 1.382 . S
C190 H192 0.952 . S
C191 N186 1.332 . S
C191 C187 1.382 . S
C191 H193 0.948 . S
H192 C190 0.952 . S
H193 C191 0.948 . S
H194 C183 0.952 . S
H195 C185 0.948 . S
C196 C162 1.395 . S
C196 C166 1.391 . S
C197 C159 1.389 . S
C197 C179 1.392 . S
C198 C169 1.392 . S
C198 C171 1.389 . S
C199 C174 1.395 . S
C199 C176 1.391 . S
H200 C160 0.951 . S
H201 C161 0.950 . S
H202 C167 0.949 . S
H203 C168 0.950 . S
H204 C172 0.951 . S
H205 C173 0.950 . S
H206 C177 0.949 . S
H207 C178 0.950 . S
H208 C182 0.950 . S
H209 C184 0.950 . S
H210 C187 0.950 . S
H211 C189 0.950 . S
C212 C213 1.443 . S
C212 N216 1.376 . S
C212 C250 1.389 . S
C213 C212 1.443 . S
C213 C214 1.340 . S
C213 H253 0.951 . S
C214 C213 1.340 . S
C214 C215 1.439 . S
C214 H254 0.950 . S
C215 C214 1.439 . S
C215 N216 1.374 . S
C215 C249 1.395 . S
N216 C212 1.376 . S
N216 C215 1.374 . S
N216 Co217 2.008 . S
Co217 N216 2.008 . S
Co217 N218 1.995 . S
Co217 N223 2.008 . S
Co217 N228 1.995 . S
Co217 N233 2.282 . S
Co217 N239 2.282 . S
N218 Co217 1.995 . S
N218 C219 1.376 . S
N218 C222 1.383 . S
C219 N218 1.376 . S
C219 C220 1.446 . S
C219 C249 1.391 . S
C220 C219 1.446 . S
C220 C221 1.339 . S
C220 H255 0.949 . S
C221 C220 1.339 . S
C221 C222 1.439 . S
C221 H256 0.950 . S
C222 N218 1.383 . S
C222 C221 1.439 . S
C222 C251 1.392 . S
N223 Co217 2.008 . S
N223 C224 1.376 . S
N223 C227 1.374 . S
C224 N223 1.376 . S
C224 C225 1.443 . S
C224 C251 1.389 . S
C225 C224 1.443 . S
C225 C226 1.340 . S
C225 H257 0.951 . S
C226 C225 1.340 . S
C226 C227 1.439 . S
C226 H258 0.950 . S
C227 N223 1.374 . S
C227 C226 1.439 . S
C227 C252 1.395 . S
N228 Co217 1.995 . S
N228 C229 1.376 . S
N228 C232 1.383 . S
C229 N228 1.376 . S
C229 C230 1.446 . S
C229 C252 1.391 . S
C230 C229 1.446 . S
C230 C231 1.339 . S
C230 H259 0.949 . S
C231 C230 1.339 . S
C231 C232 1.439 . S
C231 H260 0.950 . S
C232 N228 1.383 . S
C232 C231 1.439 . S
C232 C250 1.392 . S
N233 Co217 2.282 . S
N233 C236 1.332 . S
N233 C238 1.332 . S
C234 C235 1.386 . S
C234 C237 1.388 . S
C235 C234 1.386 . S
C235 C236 1.382 . S
C235 H261 0.950 . S
C236 N233 1.332 . S
C236 C235 1.382 . S
C236 H247 0.952 . S
C237 C234 1.388 . S
C237 C238 1.382 . S
C237 H262 0.950 . S
C238 N233 1.332 . S
C238 C237 1.382 . S
C238 H248 0.948 . S
N239 Co217 2.282 . S
N239 C243 1.332 . S
N239 C244 1.332 . S
C240 C241 1.388 . S
C240 C244 1.382 . S
C240 H263 0.950 . S
C241 C240 1.388 . S
C241 C242 1.386 . S
C242 C241 1.386 . S
C242 C243 1.382 . S
C242 H264 0.950 . S
C243 N239 1.332 . S
C243 C242 1.382 . S
C243 H245 0.952 . S
C244 N239 1.332 . S
C244 C240 1.382 . S
C244 H246 0.948 . S
H245 C243 0.952 . S
H246 C244 0.948 . S
H247 C236 0.952 . S
H248 C238 0.948 . S
C249 C215 1.395 . S
C249 C219 1.391 . S
C250 C212 1.389 . S
C250 C232 1.392 . S
C251 C222 1.392 . S
C251 C224 1.389 . S
C252 C227 1.395 . S
C252 C229 1.391 . S
H253 C213 0.951 . S
H254 C214 0.950 . S
H255 C220 0.949 . S
H256 C221 0.950 . S
H257 C225 0.951 . S
H258 C226 0.950 . S
H259 C230 0.949 . S
H260 C231 0.950 . S
H261 C235 0.950 . S
H262 C237 0.950 . S
H263 C240 0.950 . S
H264 C242 0.950 . S
C265 C266 1.443 . S
C265 N269 1.376 . S
C265 C303 1.389 . S
C266 C265 1.443 . S
C266 C267 1.340 . S
C266 H306 0.951 . S
C267 C266 1.340 . S
C267 C268 1.439 . S
C267 H307 0.950 . S
C268 C267 1.439 . S
C268 N269 1.374 . S
C268 C302 1.395 . S
N269 C265 1.376 . S
N269 C268 1.374 . S
N269 Co270 2.008 . S
Co270 N269 2.008 . S
Co270 N271 1.995 . S
Co270 N276 2.008 . S
Co270 N281 1.995 . S
Co270 N286 2.282 . S
Co270 N292 2.282 . S
N271 Co270 1.995 . S
N271 C272 1.376 . S
N271 C275 1.383 . S
C272 N271 1.376 . S
C272 C273 1.446 . S
C272 C302 1.391 . S
C273 C272 1.446 . S
C273 C274 1.339 . S
C273 H308 0.949 . S
C274 C273 1.339 . S
C274 C275 1.439 . S
C274 H309 0.950 . S
C275 N271 1.383 . S
C275 C274 1.439 . S
C275 C304 1.392 . S
N276 Co270 2.008 . S
N276 C277 1.376 . S
N276 C280 1.374 . S
C277 N276 1.376 . S
C277 C278 1.443 . S
C277 C304 1.389 . S
C278 C277 1.443 . S
C278 C279 1.340 . S
C278 H310 0.951 . S
C279 C278 1.340 . S
C279 C280 1.439 . S
C279 H311 0.950 . S
C280 N276 1.374 . S
C280 C279 1.439 . S
C280 C305 1.395 . S
N281 Co270 1.995 . S
N281 C282 1.376 . S
N281 C285 1.383 . S
C282 N281 1.376 . S
C282 C283 1.446 . S
C282 C305 1.391 . S
C283 C282 1.446 . S
C283 C284 1.339 . S
C283 H312 0.949 . S
C284 C283 1.339 . S
C284 C285 1.439 . S
C284 H313 0.950 . S
C285 N281 1.383 . S
C285 C284 1.439 . S
C285 C303 1.392 . S
N286 Co270 2.282 . S
N286 C289 1.332 . S
N286 C291 1.332 . S
C287 C288 1.386 . S
C287 C290 1.388 . S
C288 C287 1.386 . S
C288 C289 1.382 . S
C288 H314 0.950 . S
C289 N286 1.332 . S
C289 C288 1.382 . S
C289 H300 0.952 . S
C290 C287 1.388 . S
C290 C291 1.382 . S
C290 H315 0.950 . S
C291 N286 1.332 . S
C291 C290 1.382 . S
C291 H301 0.948 . S
N292 Co270 2.282 . S
N292 C296 1.332 . S
N292 C297 1.332 . S
C293 C294 1.388 . S
C293 C297 1.382 . S
C293 H316 0.950 . S
C294 C293 1.388 . S
C294 C295 1.386 . S
C295 C294 1.386 . S
C295 C296 1.382 . S
C295 H317 0.950 . S
C296 N292 1.332 . S
C296 C295 1.382 . S
C296 H298 0.952 . S
C297 N292 1.332 . S
C297 C293 1.382 . S
C297 H299 0.948 . S
H298 C296 0.952 . S
H299 C297 0.948 . S
H300 C289 0.952 . S
H301 C291 0.948 . S
C302 C268 1.395 . S
C302 C272 1.391 . S
C303 C265 1.389 . S
C303 C285 1.392 . S
C304 C275 1.392 . S
C304 C277 1.389 . S
C305 C280 1.395 . S
C305 C282 1.391 . S
H306 C266 0.951 . S
H307 C267 0.950 . S
H308 C273 0.949 . S
H309 C274 0.950 . S
H310 C278 0.951 . S
H311 C279 0.950 . S
H312 C283 0.949 . S
H313 C284 0.950 . S
H314 C288 0.950 . S
H315 C290 0.950 . S
H316 C293 0.950 . S
H317 C295 0.950 . S
C318 C319 1.443 . S
C318 N322 1.376 . S
C318 C356 1.389 . S
C319 C318 1.443 . S
C319 C320 1.340 . S
C319 H359 0.951 . S
C320 C319 1.340 . S
C320 C321 1.439 . S
C320 H360 0.950 . S
C321 C320 1.439 . S
C321 N322 1.374 . S
C321 C355 1.395 . S
N322 C318 1.376 . S
N322 C321 1.374 . S
N322 Co323 2.008 . S
Co323 N322 2.008 . S
Co323 N324 1.995 . S
Co323 N329 2.008 . S
Co323 N334 1.995 . S
Co323 N339 2.282 . S
Co323 N345 2.282 . S
N324 Co323 1.995 . S
N324 C325 1.376 . S
N324 C328 1.383 . S
C325 N324 1.376 . S
C325 C326 1.446 . S
C325 C355 1.391 . S
C326 C325 1.446 . S
C326 C327 1.339 . S
C326 H361 0.949 . S
C327 C326 1.339 . S
C327 C328 1.439 . S
C327 H362 0.950 . S
C328 N324 1.383 . S
C328 C327 1.439 . S
C328 C357 1.392 . S
N329 Co323 2.008 . S
N329 C330 1.376 . S
N329 C333 1.374 1_545 S
C330 N329 1.376 . S
C330 C331 1.443 . S
C330 C357 1.389 . S
C331 C330 1.443 . S
C331 C332 1.340 1_545 S
C331 H363 0.957 . S
C332 C331 1.340 1_565 S
C332 C333 1.439 . S
C332 H364 0.950 . S
C333 N329 1.374 1_565 S
C333 C332 1.439 . S
C333 C358 1.395 . S
N334 Co323 1.995 . S
N334 C335 1.376 1_545 S
N334 C338 1.383 . S
C335 N334 1.376 1_565 S
C335 C336 1.446 . S
C335 C358 1.391 . S
C336 C335 1.446 . S
C336 C337 1.339 1_565 S
C336 H365 0.949 . S
C337 C336 1.339 1_545 S
C337 C338 1.439 . S
C337 H366 0.945 1_545 S
C338 N334 1.383 . S
C338 C337 1.439 . S
C338 C356 1.392 . S
N339 Co323 2.282 . S
N339 C342 1.332 . S
N339 C344 1.332 . S
C340 C341 1.386 . S
C340 C343 1.388 . S
C341 C340 1.386 . S
C341 C342 1.382 . S
C341 H367 0.950 1_545 S
C342 N339 1.332 . S
C342 C341 1.382 . S
C342 H353 0.952 . S
C343 C340 1.388 . S
C343 C344 1.382 . S
C343 H368 0.950 . S
C344 N339 1.332 . S
C344 C343 1.382 . S
C344 H354 0.948 . S
N345 Co323 2.282 . S
N345 C349 1.332 . S
N345 C350 1.332 . S
C346 C347 1.388 . S
C346 C350 1.382 . S
C346 H369 0.950 . S
C347 C346 1.388 . S
C347 C348 1.386 . S
C348 C347 1.386 . S
C348 C349 1.382 . S
C348 H370 0.950 . S
C349 N345 1.332 . S
C349 C348 1.382 . S
C349 H351 0.952 . S
C350 N345 1.332 . S
C350 C346 1.382 . S
C350 H352 0.948 . S
H351 C349 0.952 . S
H352 C350 0.948 . S
H353 C342 0.952 . S
H354 C344 0.948 . S
C355 C321 1.395 . S
C355 C325 1.391 . S
C356 C318 1.389 . S
C356 C338 1.392 . S
C357 C328 1.392 . S
C357 C330 1.389 . S
C358 C333 1.395 . S
C358 C335 1.391 . S
H359 C319 0.951 . S
H360 C320 0.950 . S
H361 C326 0.949 . S
H362 C327 0.950 . S
H363 C331 0.957 . S
H364 C332 0.950 . S
H365 C336 0.949 . S
H366 C337 0.945 1_565 S
H367 C341 0.950 1_565 S
H368 C343 0.950 . S
H369 C346 0.950 . S
H370 C348 0.950 . S
C371 C372 1.469 . S
C371 N375 1.376 . S
C371 C409 1.389 . S
C372 C371 1.469 . S
C372 C373 1.314 1_655 S
C372 H412 0.953 . S
C373 C372 1.314 1_455 S
C373 C374 1.439 . S
C373 H413 0.950 . S
C374 C373 1.439 . S
C374 N375 1.374 1_455 S
C374 C408 1.395 . S
N375 C371 1.376 . S
N375 C374 1.374 1_655 S
N375 Co376 2.008 . S
Co376 N375 2.008 . S
Co376 N377 1.995 . S
Co376 N382 2.008 . S
Co376 N387 1.995 . S
Co376 N392 2.282 . S
Co376 N398 2.282 . S
N377 Co376 1.995 . S
N377 C378 1.376 1_655 S
N377 C381 1.383 . S
C378 N377 1.376 1_455 S
C378 C379 1.446 . S
C378 C408 1.391 . S
C379 C378 1.446 . S
C379 C380 1.339 . S
C379 H414 0.949 . S
C380 C379 1.339 . S
C380 C381 1.439 1_455 S
C380 H415 0.950 . S
C381 N377 1.383 . S
C381 C380 1.439 1_655 S
C381 C410 1.392 . S
N382 Co376 2.008 . S
N382 C383 1.376 . S
N382 C386 1.374 . S
C383 N382 1.376 . S
C383 C384 1.443 . S
C383 C410 1.389 . S
C384 C383 1.443 . S
C384 C385 1.340 . S
C384 H416 0.951 . S
C385 C384 1.340 . S
C385 C386 1.439 . S
C385 H417 0.950 . S
C386 N382 1.374 . S
C386 C385 1.439 . S
C386 C411 1.395 . S
N387 Co376 1.995 . S
N387 C388 1.376 . S
N387 C391 1.383 . S
C388 N387 1.376 . S
C388 C389 1.446 . S
C388 C411 1.391 . S
C389 C388 1.446 . S
C389 C390 1.339 . S
C389 H418 0.949 . S
C390 C389 1.339 . S
C390 C391 1.439 . S
C390 H419 0.950 . S
C391 N387 1.383 . S
C391 C390 1.439 . S
C391 C409 1.392 . S
N392 Co376 2.282 . S
N392 C395 1.332 . S
N392 C397 1.332 . S
C393 C394 1.386 . S
C393 C396 1.388 . S
C394 C393 1.386 . S
C394 C395 1.382 . S
C394 H420 0.950 . S
C395 N392 1.332 . S
C395 C394 1.382 . S
C395 H406 0.952 . S
C396 C393 1.388 . S
C396 C397 1.382 . S
C396 H421 0.926 1_655 S
C397 N392 1.332 . S
C397 C396 1.382 . S
C397 H407 0.928 1_655 S
N398 Co376 2.282 . S
N398 C402 1.332 . S
N398 C403 1.332 . S
C399 C400 1.388 . S
C399 C403 1.382 . S
C399 H422 0.950 . S
C400 C399 1.388 . S
C400 C401 1.386 . S
C401 C400 1.386 . S
C401 C402 1.382 . S
C401 H423 0.950 1_655 S
C402 N398 1.332 . S
C402 C401 1.382 . S
C402 H404 0.970 . S
C403 N398 1.332 . S
C403 C399 1.382 . S
C403 H405 0.948 . S
H404 C402 0.970 . S
H405 C403 0.948 . S
H406 C395 0.952 . S
H407 C397 0.928 1_455 S
C408 C374 1.395 . S
C408 C378 1.391 . S
C409 C371 1.389 . S
C409 C391 1.392 . S
C410 C381 1.392 . S
C410 C383 1.389 . S
C411 C386 1.395 . S
C411 C388 1.391 . S
H412 C372 0.953 . S
H413 C373 0.950 . S
H414 C379 0.949 . S
H415 C380 0.950 . S
H416 C384 0.951 . S
H417 C385 0.950 . S
H418 C389 0.949 . S
H419 C390 0.950 . S
H420 C394 0.950 . S
H421 C396 0.926 1_455 S
H422 C399 0.950 . S
H423 C401 0.950 1_455 S
C424 C425 1.443 . S
C424 N428 1.376 . S
C424 C462 1.389 . S
C425 C424 1.443 . S
C425 C426 1.340 . S
C425 H465 0.951 . S
C426 C425 1.340 . S
C426 C427 1.439 . S
C426 H466 0.950 . S
C427 C426 1.439 . S
C427 N428 1.374 . S
C427 C461 1.395 . S
N428 C424 1.376 . S
N428 C427 1.374 . S
N428 Co429 2.008 . S
Co429 N428 2.008 . S
Co429 N430 1.995 . S
Co429 N435 2.008 . S
Co429 N440 1.995 . S
Co429 N445 2.282 . S
Co429 N451 2.282 . S
N430 Co429 1.995 . S
N430 C431 1.376 . S
N430 C434 1.383 . S
C431 N430 1.376 . S
C431 C432 1.446 . S
C431 C461 1.391 . S
C432 C431 1.446 . S
C432 C433 1.339 . S
C432 H467 0.949 . S
C433 C432 1.339 . S
C433 C434 1.439 . S
C433 H468 0.950 . S
C434 N430 1.383 . S
C434 C433 1.439 . S
C434 C463 1.392 . S
N435 Co429 2.008 . S
N435 C436 1.376 . S
N435 C439 1.374 . S
C436 N435 1.376 . S
C436 C437 1.443 . S
C436 C463 1.389 . S
C437 C436 1.443 . S
C437 C438 1.340 . S
C437 H469 0.951 . S
C438 C437 1.340 . S
C438 C439 1.439 . S
C438 H470 0.950 . S
C439 N435 1.374 . S
C439 C438 1.439 . S
C439 C464 1.395 . S
N440 Co429 1.995 . S
N440 C441 1.376 . S
N440 C444 1.383 . S
C441 N440 1.376 . S
C441 C442 1.446 . S
C441 C464 1.391 . S
C442 C441 1.446 . S
C442 C443 1.339 . S
C442 H471 0.949 . S
C443 C442 1.339 . S
C443 C444 1.439 . S
C443 H472 0.950 . S
C444 N440 1.383 . S
C444 C443 1.439 . S
C444 C462 1.392 . S
N445 Co429 2.282 . S
N445 C448 1.332 . S
N445 C450 1.332 . S
C446 C447 1.386 . S
C446 C449 1.388 . S
C447 C446 1.386 . S
C447 C448 1.382 . S
C447 H473 0.950 . S
C448 N445 1.332 . S
C448 C447 1.382 . S
C448 H459 0.952 . S
C449 C446 1.388 . S
C449 C450 1.382 . S
C449 H474 0.950 . S
C450 N445 1.332 . S
C450 C449 1.382 . S
C450 H460 0.948 . S
N451 Co429 2.282 . S
N451 C455 1.332 . S
N451 C456 1.332 . S
C452 C453 1.388 . S
C452 C456 1.382 . S
C452 H475 0.950 . S
C453 C452 1.388 . S
C453 C454 1.386 . S
C454 C453 1.386 . S
C454 C455 1.382 . S
C454 H476 0.950 . S
C455 N451 1.332 . S
C455 C454 1.382 . S
C455 H457 0.952 . S
C456 N451 1.332 . S
C456 C452 1.382 . S
C456 H458 0.948 . S
H457 C455 0.952 . S
H458 C456 0.948 . S
H459 C448 0.952 . S
H460 C450 0.948 . S
C461 C427 1.395 . S
C461 C431 1.391 . S
C462 C424 1.389 . S
C462 C444 1.392 . S
C463 C434 1.392 . S
C463 C436 1.389 . S
C464 C439 1.395 . S
C464 C441 1.391 . S
H465 C425 0.951 . S
H466 C426 0.950 . S
H467 C432 0.949 . S
H468 C433 0.950 . S
H469 C437 0.951 . S
H470 C438 0.950 . S
H471 C442 0.949 . S
H472 C443 0.950 . S
H473 C447 0.950 . S
H474 C449 0.950 . S
H475 C452 0.950 . S
H476 C454 0.950 . S
C477 C478 1.443 . S
C477 N481 1.376 . S
C477 C515 1.389 . S
C478 C477 1.443 . S
C478 C479 1.340 . S
C478 H518 0.951 . S
C479 C478 1.340 . S
C479 C480 1.439 . S
C479 H519 0.950 . S
C480 C479 1.439 . S
C480 N481 1.374 . S
C480 C514 1.395 . S
N481 C477 1.376 . S
N481 C480 1.374 . S
N481 Co482 2.008 . S
Co482 N481 2.008 . S
Co482 N483 1.995 . S
Co482 N488 2.008 . S
Co482 N493 1.995 . S
Co482 N498 2.282 . S
Co482 N504 2.282 . S
N483 Co482 1.995 . S
N483 C484 1.376 . S
N483 C487 1.383 . S
C484 N483 1.376 . S
C484 C485 1.446 . S
C484 C514 1.391 . S
C485 C484 1.446 . S
C485 C486 1.339 . S
C485 H520 0.949 . S
C486 C485 1.339 . S
C486 C487 1.439 . S
C486 H521 0.950 . S
C487 N483 1.383 . S
C487 C486 1.439 . S
C487 C516 1.392 . S
N488 Co482 2.008 . S
N488 C489 1.376 . S
N488 C492 1.374 . S
C489 N488 1.376 . S
C489 C490 1.443 . S
C489 C516 1.389 . S
C490 C489 1.443 . S
C490 C491 1.340 . S
C490 H522 0.951 . S
C491 C490 1.340 . S
C491 C492 1.439 . S
C491 H523 0.950 . S
C492 N488 1.374 . S
C492 C491 1.439 . S
C492 C517 1.395 . S
N493 Co482 1.995 . S
N493 C494 1.376 . S
N493 C497 1.383 . S
C494 N493 1.376 . S
C494 C495 1.446 . S
C494 C517 1.391 . S
C495 C494 1.446 . S
C495 C496 1.339 . S
C495 H524 0.949 . S
C496 C495 1.339 . S
C496 C497 1.439 . S
C496 H525 0.950 . S
C497 N493 1.383 . S
C497 C496 1.439 . S
C497 C515 1.392 . S
N498 Co482 2.282 . S
N498 C501 1.332 . S
N498 C503 1.332 . S
C499 C500 1.386 . S
C499 C502 1.388 . S
C500 C499 1.386 . S
C500 C501 1.382 . S
C500 H526 0.950 . S
C501 N498 1.332 . S
C501 C500 1.382 . S
C501 H512 0.952 . S
C502 C499 1.388 . S
C502 C503 1.382 . S
C502 H527 0.950 . S
C503 N498 1.332 . S
C503 C502 1.382 . S
C503 H513 0.948 . S
N504 Co482 2.282 . S
N504 C508 1.332 . S
N504 C509 1.332 . S
C505 C506 1.388 . S
C505 C509 1.382 . S
C505 H528 0.950 . S
C506 C505 1.388 . S
C506 C507 1.386 . S
C507 C506 1.386 . S
C507 C508 1.382 . S
C507 H529 0.950 . S
C508 N504 1.332 . S
C508 C507 1.382 . S
C508 H510 0.952 . S
C509 N504 1.332 . S
C509 C505 1.382 . S
C509 H511 0.948 . S
H510 C508 0.952 . S
H511 C509 0.948 . S
H512 C501 0.952 . S
H513 C503 0.948 . S
C514 C480 1.395 . S
C514 C484 1.391 . S
C515 C477 1.389 . S
C515 C497 1.392 . S
C516 C487 1.392 . S
C516 C489 1.389 . S
C517 C492 1.395 . S
C517 C494 1.391 . S
H518 C478 0.951 . S
H519 C479 0.950 . S
H520 C485 0.949 . S
H521 C486 0.950 . S
H522 C490 0.951 . S
H523 C491 0.950 . S
H524 C495 0.949 . S
H525 C496 0.950 . S
H526 C500 0.950 . S
H527 C502 0.950 . S
H528 C505 0.950 . S
H529 C507 0.950 . S
C530 C531 1.443 . S
C530 N534 1.376 . S
C530 C568 1.389 . S
C531 C530 1.443 . S
C531 C532 1.340 . S
C531 H571 0.951 . S
C532 C531 1.340 . S
C532 C533 1.439 . S
C532 H572 0.950 . S
C533 C532 1.439 . S
C533 N534 1.374 . S
C533 C567 1.395 . S
N534 C530 1.376 . S
N534 C533 1.374 . S
N534 Co535 2.008 . S
Co535 N534 2.008 . S
Co535 N536 1.995 . S
Co535 N541 2.008 . S
Co535 N546 1.995 . S
Co535 N551 2.282 . S
Co535 N557 2.282 . S
N536 Co535 1.995 . S
N536 C537 1.376 . S
N536 C540 1.383 . S
C537 N536 1.376 . S
C537 C538 1.446 . S
C537 C567 1.391 . S
C538 C537 1.446 . S
C538 C539 1.339 . S
C538 H573 0.949 . S
C539 C538 1.339 . S
C539 C540 1.439 . S
C539 H574 0.950 . S
C540 N536 1.383 . S
C540 C539 1.439 . S
C540 C569 1.392 . S
N541 Co535 2.008 . S
N541 C542 1.376 . S
N541 C545 1.374 1_565 S
C542 N541 1.376 . S
C542 C543 1.443 . S
C542 C569 1.389 . S
C543 C542 1.443 . S
C543 C544 1.340 1_565 S
C543 H575 0.957 . S
C544 C543 1.340 1_545 S
C544 C545 1.439 . S
C544 H576 0.950 . S
C545 N541 1.374 1_545 S
C545 C544 1.439 . S
C545 C570 1.395 . S
N546 Co535 1.995 . S
N546 C547 1.376 1_565 S
N546 C550 1.383 . S
C547 N546 1.376 1_545 S
C547 C548 1.446 . S
C547 C570 1.391 . S
C548 C547 1.446 . S
C548 C549 1.339 1_545 S
C548 H577 0.949 . S
C549 C548 1.339 1_565 S
C549 C550 1.439 . S
C549 H578 0.944 1_565 S
C550 N546 1.383 . S
C550 C549 1.439 . S
C550 C568 1.392 . S
N551 Co535 2.282 . S
N551 C554 1.332 . S
N551 C556 1.332 . S
C552 C553 1.386 . S
C552 C555 1.388 . S
C553 C552 1.386 . S
C553 C554 1.382 . S
C553 H579 0.950 1_565 S
C554 N551 1.332 . S
C554 C553 1.382 . S
C554 H565 0.952 . S
C555 C552 1.388 . S
C555 C556 1.382 . S
C555 H580 0.950 . S
C556 N551 1.332 . S
C556 C555 1.382 . S
C556 H566 0.948 . S
N557 Co535 2.282 . S
N557 C561 1.332 . S
N557 C562 1.332 . S
C558 C559 1.388 . S
C558 C562 1.382 . S
C558 H581 0.950 . S
C559 C558 1.388 . S
C559 C560 1.386 . S
C560 C559 1.386 . S
C560 C561 1.382 . S
C560 H582 0.950 . S
C561 N557 1.332 . S
C561 C560 1.382 . S
C561 H563 0.952 . S
C562 N557 1.332 . S
C562 C558 1.382 . S
C562 H564 0.948 . S
H563 C561 0.952 . S
H564 C562 0.948 . S
H565 C554 0.952 . S
H566 C556 0.948 . S
C567 C533 1.395 . S
C567 C537 1.391 . S
C568 C530 1.389 . S
C568 C550 1.392 . S
C569 C540 1.392 . S
C569 C542 1.389 . S
C570 C545 1.395 . S
C570 C547 1.391 . S
H571 C531 0.951 . S
H572 C532 0.950 . S
H573 C538 0.949 . S
H574 C539 0.950 . S
H575 C543 0.957 . S
H576 C544 0.950 . S
H577 C548 0.949 . S
H578 C549 0.944 1_545 S
H579 C553 0.950 1_545 S
H580 C555 0.950 . S
H581 C558 0.950 . S
H582 C560 0.950 . S
C583 C584 1.443 . S
C583 N587 1.376 . S
C583 C621 1.389 . S
C584 C583 1.443 . S
C584 C585 1.340 1_455 S
C584 H624 0.951 . S
C585 C584 1.340 1_655 S
C585 C586 1.439 . S
C585 H625 0.950 . S
C586 C585 1.439 . S
C586 N587 1.374 1_655 S
C586 C620 1.395 . S
N587 C583 1.376 . S
N587 C586 1.374 1_455 S
N587 Co588 2.008 . S
Co588 N587 2.008 . S
Co588 N589 1.995 . S
Co588 N594 2.008 . S
Co588 N599 1.995 . S
Co588 N604 2.282 . S
Co588 N610 2.282 . S
N589 Co588 1.995 . S
N589 C590 1.376 1_455 S
N589 C593 1.383 . S
C590 N589 1.376 1_655 S
C590 C591 1.446 . S
C590 C620 1.391 . S
C591 C590 1.446 . S
C591 C592 1.339 . S
C591 H626 0.949 . S
C592 C591 1.339 . S
C592 C593 1.439 1_655 S
C592 H627 0.950 . S
C593 N589 1.383 . S
C593 C592 1.439 1_455 S
C593 C622 1.392 . S
N594 Co588 2.008 . S
N594 C595 1.376 . S
N594 C598 1.374 . S
C595 N594 1.376 . S
C595 C596 1.443 . S
C595 C622 1.389 . S
C596 C595 1.443 . S
C596 C597 1.340 . S
C596 H628 0.951 . S
C597 C596 1.340 . S
C597 C598 1.439 . S
C597 H629 0.950 . S
C598 N594 1.374 . S
C598 C597 1.439 . S
C598 C623 1.395 . S
N599 Co588 1.995 . S
N599 C600 1.376 . S
N599 C603 1.383 . S
C600 N599 1.376 . S
C600 C601 1.446 . S
C600 C623 1.391 . S
C601 C600 1.446 . S
C601 C602 1.339 . S
C601 H630 0.949 . S
C602 C601 1.339 . S
C602 C603 1.439 . S
C602 H631 0.950 . S
C603 N599 1.383 . S
C603 C602 1.439 . S
C603 C621 1.392 . S
N604 Co588 2.282 . S
N604 C607 1.332 . S
N604 C609 1.332 . S
C605 C606 1.386 . S
C605 C608 1.388 . S
C606 C605 1.386 . S
C606 C607 1.382 . S
C606 H632 0.950 . S
C607 N604 1.332 . S
C607 C606 1.382 . S
C607 H618 0.952 . S
C608 C605 1.388 . S
C608 C609 1.382 . S
C608 H633 0.936 1_455 S
C609 N604 1.332 . S
C609 C608 1.382 . S
C609 H619 0.938 1_455 S
N610 Co588 2.282 . S
N610 C614 1.332 . S
N610 C615 1.332 . S
C611 C612 1.388 . S
C611 C615 1.382 . S
C611 H634 0.950 . S
C612 C611 1.388 . S
C612 C613 1.386 . S
C613 C612 1.386 . S
C613 C614 1.382 . S
C613 H635 0.950 1_455 S
C614 N610 1.332 . S
C614 C613 1.382 . S
C614 H616 0.980 . S
C615 N610 1.332 . S
C615 C611 1.382 . S
C615 H617 0.948 . S
H616 C614 0.980 . S
H617 C615 0.948 . S
H618 C607 0.952 . S
H619 C609 0.938 1_655 S
C620 C586 1.395 . S
C620 C590 1.391 . S
C621 C583 1.389 . S
C621 C603 1.392 . S
C622 C593 1.392 . S
C622 C595 1.389 . S
C623 C598 1.395 . S
C623 C600 1.391 . S
H624 C584 0.951 . S
H625 C585 0.950 . S
H626 C591 0.949 . S
H627 C592 0.950 . S
H628 C596 0.951 . S
H629 C597 0.950 . S
H630 C601 0.949 . S
H631 C602 0.950 . S
H632 C606 0.950 . S
H633 C608 0.936 1_655 S
H634 C611 0.950 . S
H635 C613 0.950 1_655 S
C636 C637 1.443 . S
C636 N640 1.376 . S
C636 C674 1.389 . S
C637 C636 1.443 . S
C637 C638 1.340 . S
C637 H677 0.951 . S
C638 C637 1.340 . S
C638 C639 1.439 . S
C638 H678 0.950 . S
C639 C638 1.439 . S
C639 N640 1.374 . S
C639 C673 1.395 . S
N640 C636 1.376 . S
N640 C639 1.374 . S
N640 Co641 2.008 . S
Co641 N640 2.008 . S
Co641 N642 1.995 . S
Co641 N647 2.008 . S
Co641 N652 1.995 . S
Co641 N657 2.282 . S
Co641 N663 2.282 . S
N642 Co641 1.995 . S
N642 C643 1.376 . S
N642 C646 1.383 . S
C643 N642 1.376 . S
C643 C644 1.446 . S
C643 C673 1.391 . S
C644 C643 1.446 . S
C644 C645 1.339 . S
C644 H679 0.949 . S
C645 C644 1.339 . S
C645 C646 1.439 . S
C645 H680 0.950 . S
C646 N642 1.383 . S
C646 C645 1.439 . S
C646 C675 1.392 . S
N647 Co641 2.008 . S
N647 C648 1.376 . S
N647 C651 1.374 1_565 S
C648 N647 1.376 . S
C648 C649 1.443 . S
C648 C675 1.389 . S
C649 C648 1.443 . S
C649 C650 1.340 1_565 S
C649 H681 0.957 . S
C650 C649 1.340 1_545 S
C650 C651 1.439 . S
C650 H682 0.950 . S
C651 N647 1.374 1_545 S
C651 C650 1.439 . S
C651 C676 1.395 . S
N652 Co641 1.995 . S
N652 C653 1.376 1_565 S
N652 C656 1.383 . S
C653 N652 1.376 1_545 S
C653 C654 1.446 . S
C653 C676 1.391 . S
C654 C653 1.446 . S
C654 C655 1.339 1_545 S
C654 H683 0.949 . S
C655 C654 1.339 1_565 S
C655 C656 1.439 . S
C655 H684 0.945 1_565 S
C656 N652 1.383 . S
C656 C655 1.439 . S
C656 C674 1.392 . S
N657 Co641 2.282 . S
N657 C660 1.332 . S
N657 C662 1.332 . S
C658 C659 1.386 . S
C658 C661 1.388 . S
C659 C658 1.386 . S
C659 C660 1.382 . S
C659 H685 0.950 1_565 S
C660 N657 1.332 . S
C660 C659 1.382 . S
C660 H671 0.952 . S
C661 C658 1.388 . S
C661 C662 1.382 . S
C661 H686 0.950 . S
C662 N657 1.332 . S
C662 C661 1.382 . S
C662 H672 0.948 . S
N663 Co641 2.282 . S
N663 C667 1.332 . S
N663 C668 1.332 . S
C664 C665 1.388 . S
C664 C668 1.382 . S
C664 H687 0.950 . S
C665 C664 1.388 . S
C665 C666 1.386 . S
C666 C665 1.386 . S
C666 C667 1.382 . S
C666 H688 0.950 . S
C667 N663 1.332 . S
C667 C666 1.382 . S
C667 H669 0.952 . S
C668 N663 1.332 . S
C668 C664 1.382 . S
C668 H670 0.948 . S
H669 C667 0.952 . S
H670 C668 0.948 . S
H671 C660 0.952 . S
H672 C662 0.948 . S
C673 C639 1.395 . S
C673 C643 1.391 . S
C674 C636 1.389 . S
C674 C656 1.392 . S
C675 C646 1.392 . S
C675 C648 1.389 . S
C676 C651 1.395 . S
C676 C653 1.391 . S
H677 C637 0.951 . S
H678 C638 0.950 . S
H679 C644 0.949 . S
H680 C645 0.950 . S
H681 C649 0.957 . S
H682 C650 0.950 . S
H683 C654 0.949 . S
H684 C655 0.945 1_545 S
H685 C659 0.950 1_545 S
H686 C661 0.950 . S
H687 C664 0.950 . S
H688 C666 0.950 . S
C689 C690 1.443 . S
C689 N693 1.376 . S
C689 C727 1.389 . S
C690 C689 1.443 . S
C690 C691 1.340 1_455 S
C690 H730 0.951 . S
C691 C690 1.340 1_655 S
C691 C692 1.439 . S
C691 H731 0.950 . S
C692 C691 1.439 . S
C692 N693 1.374 1_655 S
C692 C726 1.395 . S
N693 C689 1.376 . S
N693 C692 1.374 1_455 S
N693 Co694 2.008 . S
Co694 N693 2.008 . S
Co694 N695 1.995 . S
Co694 N700 2.008 . S
Co694 N705 1.995 . S
Co694 N710 2.282 . S
Co694 N716 2.282 . S
N695 Co694 1.995 . S
N695 C696 1.376 1_455 S
N695 C699 1.383 . S
C696 N695 1.376 1_655 S
C696 C697 1.446 . S
C696 C726 1.391 . S
C697 C696 1.446 . S
C697 C698 1.339 . S
C697 H732 0.949 . S
C698 C697 1.339 . S
C698 C699 1.439 1_655 S
C698 H733 0.950 . S
C699 N695 1.383 . S
C699 C698 1.439 1_455 S
C699 C728 1.392 . S
N700 Co694 2.008 . S
N700 C701 1.376 . S
N700 C704 1.374 . S
C701 N700 1.376 . S
C701 C702 1.443 . S
C701 C728 1.389 . S
C702 C701 1.443 . S
C702 C703 1.340 . S
C702 H734 0.951 . S
C703 C702 1.340 . S
C703 C704 1.439 . S
C703 H735 0.950 . S
C704 N700 1.374 . S
C704 C703 1.439 . S
C704 C729 1.395 . S
N705 Co694 1.995 . S
N705 C706 1.376 . S
N705 C709 1.383 . S
C706 N705 1.376 . S
C706 C707 1.446 . S
C706 C729 1.391 . S
C707 C706 1.446 . S
C707 C708 1.339 . S
C707 H736 0.949 . S
C708 C707 1.339 . S
C708 C709 1.439 . S
C708 H737 0.950 . S
C709 N705 1.383 . S
C709 C708 1.439 . S
C709 C727 1.392 . S
N710 Co694 2.282 . S
N710 C713 1.332 . S
N710 C715 1.332 . S
C711 C712 1.386 . S
C711 C714 1.388 . S
C712 C711 1.386 . S
C712 C713 1.382 . S
C712 H738 0.950 . S
C713 N710 1.332 . S
C713 C712 1.382 . S
C713 H724 0.952 . S
C714 C711 1.388 . S
C714 C715 1.382 . S
C714 H739 0.932 1_455 S
C715 N710 1.332 . S
C715 C714 1.382 . S
C715 H725 0.934 1_455 S
N716 Co694 2.282 . S
N716 C720 1.332 . S
N716 C721 1.332 . S
C717 C718 1.388 . S
C717 C721 1.382 . S
C717 H740 0.950 . S
C718 C717 1.388 . S
C718 C719 1.386 . S
C719 C718 1.386 . S
C719 C720 1.382 . S
C719 H741 0.950 1_455 S
C720 N716 1.332 . S
C720 C719 1.382 . S
C720 H722 0.976 . S
C721 N716 1.332 . S
C721 C717 1.382 . S
C721 H723 0.948 . S
H722 C720 0.976 . S
H723 C721 0.948 . S
H724 C713 0.952 . S
H725 C715 0.934 1_655 S
C726 C692 1.395 . S
C726 C696 1.391 . S
C727 C689 1.389 . S
C727 C709 1.392 . S
C728 C699 1.392 . S
C728 C701 1.389 . S
C729 C704 1.395 . S
C729 C706 1.391 . S
H730 C690 0.951 . S
H731 C691 0.950 . S
H732 C697 0.949 . S
H733 C698 0.950 . S
H734 C702 0.951 . S
H735 C703 0.950 . S
H736 C707 0.949 . S
H737 C708 0.950 . S
H738 C712 0.950 . S
H739 C714 0.932 1_655 S
H740 C717 0.950 . S
H741 C719 0.950 1_655 S
C742 C743 1.443 . S
C742 N746 1.376 . S
C742 C780 1.389 . S
C743 C742 1.443 . S
C743 C744 1.340 . S
C743 H783 0.951 . S
C744 C743 1.340 . S
C744 C745 1.439 . S
C744 H784 0.950 . S
C745 C744 1.439 . S
C745 N746 1.374 . S
C745 C779 1.395 . S
N746 C742 1.376 . S
N746 C745 1.374 . S
N746 Co747 2.008 . S
Co747 N746 2.008 . S
Co747 N748 1.995 . S
Co747 N753 2.008 . S
Co747 N758 1.995 . S
Co747 N763 2.282 . S
Co747 N769 2.282 . S
N748 Co747 1.995 . S
N748 C749 1.376 . S
N748 C752 1.383 . S
C749 N748 1.376 . S
C749 C750 1.446 . S
C749 C779 1.391 . S
C750 C749 1.446 . S
C750 C751 1.339 . S
C750 H785 0.949 . S
C751 C750 1.339 . S
C751 C752 1.439 . S
C751 H786 0.950 . S
C752 N748 1.383 . S
C752 C751 1.439 . S
C752 C781 1.392 . S
N753 Co747 2.008 . S
N753 C754 1.376 . S
N753 C757 1.374 . S
C754 N753 1.376 . S
C754 C755 1.443 . S
C754 C781 1.389 . S
C755 C754 1.443 . S
C755 C756 1.340 . S
C755 H787 0.951 . S
C756 C755 1.340 . S
C756 C757 1.439 . S
C756 H788 0.950 . S
C757 N753 1.374 . S
C757 C756 1.439 . S
C757 C782 1.395 . S
N758 Co747 1.995 . S
N758 C759 1.376 . S
N758 C762 1.383 . S
C759 N758 1.376 . S
C759 C760 1.446 . S
C759 C782 1.391 . S
C760 C759 1.446 . S
C760 C761 1.339 . S
C760 H789 0.949 . S
C761 C760 1.339 . S
C761 C762 1.439 . S
C761 H790 0.950 . S
C762 N758 1.383 . S
C762 C761 1.439 . S
C762 C780 1.392 . S
N763 Co747 2.282 . S
N763 C766 1.332 . S
N763 C768 1.332 . S
C764 C765 1.386 . S
C764 C767 1.388 . S
C765 C764 1.386 . S
C765 C766 1.382 . S
C765 H791 0.950 . S
C766 N763 1.332 . S
C766 C765 1.382 . S
C766 H777 0.952 . S
C767 C764 1.388 . S
C767 C768 1.382 . S
C767 H792 0.950 . S
C768 N763 1.332 . S
C768 C767 1.382 . S
C768 H778 0.948 . S
N769 Co747 2.282 . S
N769 C773 1.332 . S
N769 C774 1.332 . S
C770 C771 1.388 . S
C770 C774 1.382 . S
C770 H793 0.950 . S
C771 C770 1.388 . S
C771 C772 1.386 . S
C772 C771 1.386 . S
C772 C773 1.382 . S
C772 H794 0.950 . S
C773 N769 1.332 . S
C773 C772 1.382 . S
C773 H775 0.952 . S
C774 N769 1.332 . S
C774 C770 1.382 . S
C774 H776 0.948 . S
H775 C773 0.952 . S
H776 C774 0.948 . S
H777 C766 0.952 . S
H778 C768 0.948 . S
C779 C745 1.395 . S
C779 C749 1.391 . S
C780 C742 1.389 . S
C780 C762 1.392 . S
C781 C752 1.392 . S
C781 C754 1.389 . S
C782 C757 1.395 . S
C782 C759 1.391 . S
H783 C743 0.951 . S
H784 C744 0.950 . S
H785 C750 0.949 . S
H786 C751 0.950 . S
H787 C755 0.951 . S
H788 C756 0.950 . S
H789 C760 0.949 . S
H790 C761 0.950 . S
H791 C765 0.950 . S
H792 C767 0.950 . S
H793 C770 0.950 . S
H794 C772 0.950 . S
C795 C796 1.443 . S
C795 N799 1.376 . S
C795 C833 1.389 . S
C796 C795 1.443 . S
C796 C797 1.340 . S
C796 H836 0.951 . S
C797 C796 1.340 . S
C797 C798 1.439 . S
C797 H837 0.950 . S
C798 C797 1.439 . S
C798 N799 1.374 . S
C798 C832 1.395 . S
N799 C795 1.376 . S
N799 C798 1.374 . S
N799 Co800 2.008 . S
Co800 N799 2.008 . S
Co800 N801 1.995 . S
Co800 N806 2.008 . S
Co800 N811 1.995 . S
Co800 N816 2.282 . S
Co800 N822 2.282 . S
N801 Co800 1.995 . S
N801 C802 1.376 . S
N801 C805 1.383 . S
C802 N801 1.376 . S
C802 C803 1.446 . S
C802 C832 1.391 . S
C803 C802 1.446 . S
C803 C804 1.339 . S
C803 H838 0.949 . S
C804 C803 1.339 . S
C804 C805 1.439 . S
C804 H839 0.950 . S
C805 N801 1.383 . S
C805 C804 1.439 . S
C805 C834 1.392 . S
N806 Co800 2.008 . S
N806 C807 1.376 . S
N806 C810 1.374 . S
C807 N806 1.376 . S
C807 C808 1.443 . S
C807 C834 1.389 . S
C808 C807 1.443 . S
C808 C809 1.340 . S
C808 H840 0.951 . S
C809 C808 1.340 . S
C809 C810 1.439 . S
C809 H841 0.950 . S
C810 N806 1.374 . S
C810 C809 1.439 . S
C810 C835 1.395 . S
N811 Co800 1.995 . S
N811 C812 1.376 . S
N811 C815 1.383 . S
C812 N811 1.376 . S
C812 C813 1.446 . S
C812 C835 1.391 . S
C813 C812 1.446 . S
C813 C814 1.339 . S
C813 H842 0.949 . S
C814 C813 1.339 . S
C814 C815 1.439 . S
C814 H843 0.950 . S
C815 N811 1.383 . S
C815 C814 1.439 . S
C815 C833 1.392 . S
N816 Co800 2.282 . S
N816 C819 1.332 . S
N816 C821 1.332 . S
C817 C818 1.386 . S
C817 C820 1.388 . S
C818 C817 1.386 . S
C818 C819 1.382 . S
C818 H844 0.950 . S
C819 N816 1.332 . S
C819 C818 1.382 . S
C819 H830 0.952 . S
C820 C817 1.388 . S
C820 C821 1.382 . S
C820 H845 0.950 . S
C821 N816 1.332 . S
C821 C820 1.382 . S
C821 H831 0.948 . S
N822 Co800 2.282 . S
N822 C826 1.332 . S
N822 C827 1.332 . S
C823 C824 1.388 . S
C823 C827 1.382 . S
C823 H846 0.950 . S
C824 C823 1.388 . S
C824 C825 1.386 . S
C825 C824 1.386 . S
C825 C826 1.382 . S
C825 H847 0.950 . S
C826 N822 1.332 . S
C826 C825 1.382 . S
C826 H828 0.952 . S
C827 N822 1.332 . S
C827 C823 1.382 . S
C827 H829 0.948 . S
H828 C826 0.952 . S
H829 C827 0.948 . S
H830 C819 0.952 . S
H831 C821 0.948 . S
C832 C798 1.395 . S
C832 C802 1.391 . S
C833 C795 1.389 . S
C833 C815 1.392 . S
C834 C805 1.392 . S
C834 C807 1.389 . S
C835 C810 1.395 . S
C835 C812 1.391 . S
H836 C796 0.951 . S
H837 C797 0.950 . S
H838 C803 0.949 . S
H839 C804 0.950 . S
H840 C808 0.951 . S
H841 C809 0.950 . S
H842 C813 0.949 . S
H843 C814 0.950 . S
H844 C818 0.950 . S
H845 C820 0.950 . S
H846 C823 0.950 . S
H847 C825 0.950 . S
C848 C849 1.349 . S
C848 C850 1.327 . S
C848 H873 0.950 . S
C849 C848 1.349 . S
C849 C865 1.349 . S
C850 C848 1.327 . S
C850 C869 1.429 . S
C850 H874 0.950 . S
C851 C868 1.574 1_655 S
C851 C870 1.368 . S
C851 H875 0.949 . S
H852 C856 0.949 . S
C853 C854 1.349 . S
C853 C855 1.327 . S
C853 H876 0.950 . S
C854 C853 1.349 . S
C854 C866 1.349 . S
C855 C853 1.327 . S
C855 C871 1.429 . S
C855 H877 0.950 . S
C856 H852 0.949 . S
C856 C864 1.574 1_455 S
C856 C872 1.368 . S
H857 C865 0.950 . S
H858 C863 0.950 . S
H859 C864 0.949 . S
H860 C866 0.950 . S
H861 C867 0.950 . S
H862 C868 0.949 . S
C863 H858 0.950 . S
C863 C865 1.327 . S
C863 C869 1.429 . S
C864 C856 1.574 1_655 S
C864 H859 0.949 . S
C864 C870 1.368 1_545 S
C865 C849 1.349 . S
C865 H857 0.950 . S
C865 C863 1.327 . S
C866 C854 1.349 . S
C866 H860 0.950 . S
C866 C867 1.327 . S
C867 H861 0.950 . S
C867 C866 1.327 . S
C867 C871 1.429 . S
C868 C851 1.574 1_455 S
C868 H862 0.949 . S
C868 C872 1.368 1_565 S
C869 C850 1.429 . S
C869 C863 1.429 . S
C869 C870 1.523 . S
C870 C851 1.368 . S
C870 C864 1.368 1_565 S
C870 C869 1.523 . S
C871 C855 1.429 . S
C871 C867 1.429 . S
C871 C872 1.523 . S
C872 C856 1.368 . S
C872 C868 1.368 1_545 S
C872 C871 1.523 . S
H873 C848 0.950 . S
H874 C850 0.950 . S
H875 C851 0.949 . S
H876 C853 0.950 . S
H877 C855 0.950 . S
C878 C879 1.349 . S
C878 C880 1.327 . S
C878 H903 0.950 . S
C879 C878 1.349 . S
C879 C895 1.349 . S
C880 C878 1.327 . S
C880 C899 1.429 . S
C880 H904 0.950 1_655 S
C881 C898 1.574 . S
C881 C900 1.368 . S
C881 H905 0.949 . S
H882 C886 0.949 . S
C883 C884 1.349 . S
C883 C885 1.327 . S
C883 H906 0.950 . S
C884 C883 1.349 . S
C884 C896 1.349 . S
C885 C883 1.327 . S
C885 C901 1.429 . S
C885 H907 0.950 1_455 S
C886 H882 0.949 . S
C886 C894 1.574 . S
C886 C902 1.368 . S
H887 C895 0.950 . S
H888 C893 0.950 . S
H889 C894 0.949 . S
H890 C896 0.950 . S
H891 C897 0.950 . S
H892 C898 0.949 . S
C893 H888 0.950 . S
C893 C895 1.327 . S
C893 C899 1.429 . S
C894 C886 1.574 . S
C894 H889 0.949 . S
C894 C900 1.368 1_455 S
C895 C879 1.349 . S
C895 H887 0.950 . S
C895 C893 1.327 . S
C896 C884 1.349 . S
C896 H890 0.950 . S
C896 C897 1.327 . S
C897 H891 0.950 . S
C897 C896 1.327 . S
C897 C901 1.429 . S
C898 C881 1.574 . S
C898 H892 0.949 . S
C898 C902 1.368 1_655 S
C899 C880 1.429 . S
C899 C893 1.429 . S
C899 C900 1.523 . S
C900 C881 1.368 . S
C900 C894 1.368 1_655 S
C900 C899 1.523 . S
C901 C885 1.429 . S
C901 C897 1.429 . S
C901 C902 1.523 . S
C902 C886 1.368 . S
C902 C898 1.368 1_455 S
C902 C901 1.523 . S
H903 C878 0.950 . S
H904 C880 0.950 1_455 S
H905 C881 0.949 . S
H906 C883 0.950 . S
H907 C885 0.950 1_655 S
C908 C909 1.349 . S
C908 C910 1.327 . S
C908 H933 0.950 . S
C909 C908 1.349 . S
C909 C925 1.349 . S
C910 C908 1.327 . S
C910 C929 1.429 . S
C910 H934 0.950 . S
C911 C928 1.574 . S
C911 C930 1.368 . S
C911 H935 0.949 . S
H912 C916 0.949 . S
C913 C914 1.349 . S
C913 C915 1.327 . S
C913 H936 0.950 . S
C914 C913 1.349 . S
C914 C926 1.349 . S
C915 C913 1.327 . S
C915 C931 1.429 . S
C915 H937 0.950 . S
C916 H912 0.949 . S
C916 C924 1.574 . S
C916 C932 1.368 . S
H917 C925 0.950 . S
H918 C923 0.950 . S
H919 C924 0.949 . S
H920 C926 0.950 . S
H921 C927 0.950 . S
H922 C928 0.949 . S
C923 H918 0.950 . S
C923 C925 1.327 . S
C923 C929 1.429 . S
C924 C916 1.574 . S
C924 H919 0.949 . S
C924 C930 1.368 . S
C925 C909 1.349 . S
C925 H917 0.950 . S
C925 C923 1.327 . S
C926 C914 1.349 . S
C926 H920 0.950 . S
C926 C927 1.327 . S
C927 H921 0.950 . S
C927 C926 1.327 . S
C927 C931 1.429 . S
C928 C911 1.574 . S
C928 H922 0.949 . S
C928 C932 1.368 . S
C929 C910 1.429 . S
C929 C923 1.429 . S
C929 C930 1.523 . S
C930 C911 1.368 . S
C930 C924 1.368 . S
C930 C929 1.523 . S
C931 C915 1.429 . S
C931 C927 1.429 . S
C931 C932 1.523 . S
C932 C916 1.368 . S
C932 C928 1.368 . S
C932 C931 1.523 . S
H933 C908 0.950 . S
H934 C910 0.950 . S
H935 C911 0.949 . S
H936 C913 0.950 . S
H937 C915 0.950 . S
C938 C939 1.349 . S
C938 C940 1.327 . S
C938 H963 0.950 . S
C939 C938 1.349 . S
C939 C955 1.349 . S
C940 C938 1.327 . S
C940 C959 1.429 . S
C940 H964 0.950 . S
C941 C958 1.574 1_545 S
C941 C960 1.368 . S
C941 H965 0.949 . S
H942 C946 0.949 . S
C943 C944 1.349 . S
C943 C945 1.327 . S
C943 H966 0.950 . S
C944 C943 1.349 . S
C944 C956 1.349 . S
C945 C943 1.327 . S
C945 C961 1.429 . S
C945 H967 0.950 . S
C946 H942 0.949 . S
C946 C954 1.574 1_565 S
C946 C962 1.368 . S
H947 C955 0.950 . S
H948 C953 0.950 . S
H949 C954 0.949 . S
H950 C956 0.950 . S
H951 C957 0.950 . S
H952 C958 0.949 . S
C953 H948 0.950 . S
C953 C955 1.327 . S
C953 C959 1.429 . S
C954 C946 1.574 1_545 S
C954 H949 0.949 . S
C954 C960 1.368 . S
C955 C939 1.349 . S
C955 H947 0.950 . S
C955 C953 1.327 . S
C956 C944 1.349 . S
C956 H950 0.950 . S
C956 C957 1.327 . S
C957 H951 0.950 . S
C957 C956 1.327 . S
C957 C961 1.429 . S
C958 C941 1.574 1_565 S
C958 H952 0.949 . S
C958 C962 1.368 . S
C959 C940 1.429 . S
C959 C953 1.429 . S
C959 C960 1.523 . S
C960 C941 1.368 . S
C960 C954 1.368 . S
C960 C959 1.523 . S
C961 C945 1.429 . S
C961 C957 1.429 . S
C961 C962 1.523 . S
C962 C946 1.368 . S
C962 C958 1.368 . S
C962 C961 1.523 . S
H963 C938 0.950 . S
H964 C940 0.950 . S
H965 C941 0.949 . S
H966 C943 0.950 . S
H967 C945 0.950 . S
C968 C969 1.349 . S
C968 C970 1.327 . S
C968 H993 0.950 . S
C969 C968 1.349 . S
C969 C985 1.349 . S
C970 C968 1.327 . S
C970 C989 1.429 . S
C970 H994 0.950 . S
C971 C988 1.574 1_455 S
C971 C990 1.368 . S
C971 H995 0.949 . S
H972 C976 0.949 . S
C973 C974 1.349 . S
C973 C975 1.327 . S
C973 H996 0.950 . S
C974 C973 1.349 . S
C974 C986 1.349 . S
C975 C973 1.327 . S
C975 C991 1.429 . S
C975 H997 0.950 . S
C976 H972 0.949 . S
C976 C984 1.574 1_655 S
C976 C992 1.368 . S
H977 C985 0.950 . S
H978 C983 0.950 . S
H979 C984 0.949 . S
H980 C986 0.950 . S
H981 C987 0.950 . S
H982 C988 0.949 . S
C983 H978 0.950 . S
C983 C985 1.327 . S
C983 C989 1.429 . S
C984 C976 1.574 1_455 S
C984 H979 0.949 . S
C984 C990 1.368 . S
C985 C969 1.349 . S
C985 H977 0.950 . S
C985 C983 1.327 . S
C986 C974 1.349 . S
C986 H980 0.950 . S
C986 C987 1.327 . S
C987 H981 0.950 . S
C987 C986 1.327 . S
C987 C991 1.429 . S
C988 C971 1.574 1_655 S
C988 H982 0.949 . S
C988 C992 1.368 . S
C989 C970 1.429 . S
C989 C983 1.429 . S
C989 C990 1.523 . S
C990 C971 1.368 . S
C990 C984 1.368 . S
C990 C989 1.523 . S
C991 C975 1.429 . S
C991 C987 1.429 . S
C991 C992 1.523 . S
C992 C976 1.368 . S
C992 C988 1.368 . S
C992 C991 1.523 . S
H993 C968 0.950 . S
H994 C970 0.950 . S
H995 C971 0.949 . S
H996 C973 0.950 . S
H997 C975 0.950 . S
C998 C999 1.349 . S
C998 C1000 1.327 . S
C998 H1023 0.950 . S
C999 C998 1.349 . S
C999 C1015 1.349 . S
C1000 C998 1.327 . S
C1000 C1019 1.429 . S
C1000 H1024 0.950 . S
C1001 C1018 1.574 . S
C1001 C1020 1.368 . S
C1001 H1025 0.949 . S
H1002 C1006 0.949 . S
C1003 C1004 1.349 . S
C1003 C1005 1.327 . S
C1003 H1026 0.950 . S
C1004 C1003 1.349 . S
C1004 C1016 1.349 . S
C1005 C1003 1.327 . S
C1005 C1021 1.429 . S
C1005 H1027 0.950 . S
C1006 H1002 0.949 . S
C1006 C1014 1.574 . S
C1006 C1022 1.368 . S
H1007 C1015 0.950 . S
H1008 C1013 0.950 . S
H1009 C1014 0.949 . S
H1010 C1016 0.950 . S
H1011 C1017 0.950 . S
H1012 C1018 0.949 . S
C1013 H1008 0.950 . S
C1013 C1015 1.327 . S
C1013 C1019 1.429 . S
C1014 C1006 1.574 . S
C1014 H1009 0.949 . S
C1014 C1020 1.368 . S
C1015 C999 1.349 . S
C1015 H1007 0.950 . S
C1015 C1013 1.327 . S
C1016 C1004 1.349 . S
C1016 H1010 0.950 . S
C1016 C1017 1.327 . S
C1017 H1011 0.950 . S
C1017 C1016 1.327 . S
C1017 C1021 1.429 . S
C1018 C1001 1.574 . S
C1018 H1012 0.949 . S
C1018 C1022 1.368 . S
C1019 C1000 1.429 . S
C1019 C1013 1.429 . S
C1019 C1020 1.523 . S
C1020 C1001 1.368 . S
C1020 C1014 1.368 . S
C1020 C1019 1.523 . S
C1021 C1005 1.429 . S
C1021 C1017 1.429 . S
C1021 C1022 1.523 . S
C1022 C1006 1.368 . S
C1022 C1018 1.368 . S
C1022 C1021 1.523 . S
H1023 C998 0.950 . S
H1024 C1000 0.950 . S
H1025 C1001 0.949 . S
H1026 C1003 0.950 . S
H1027 C1005 0.950 . S
C1028 C1029 1.349 . S
C1028 C1030 1.327 . S
C1028 H1053 0.950 . S
C1029 C1028 1.349 . S
C1029 C1045 1.349 . S
C1030 C1028 1.327 . S
C1030 C1049 1.429 . S
C1030 H1054 0.950 . S
C1031 C1048 1.574 . S
C1031 C1050 1.368 1_565 S
C1031 H1055 0.949 . S
H1032 C1036 0.949 . S
C1033 C1034 1.349 . S
C1033 C1035 1.327 . S
C1033 H1056 0.950 . S
C1034 C1033 1.349 . S
C1034 C1046 1.349 . S
C1035 C1033 1.327 . S
C1035 C1051 1.429 . S
C1035 H1057 0.950 . S
C1036 H1032 0.949 . S
C1036 C1044 1.574 . S
C1036 C1052 1.368 1_545 S
H1037 C1045 0.950 . S
H1038 C1043 0.950 . S
H1039 C1044 0.949 . S
H1040 C1046 0.950 . S
H1041 C1047 0.950 . S
H1042 C1048 0.949 . S
C1043 H1038 0.950 . S
C1043 C1045 1.327 . S
C1043 C1049 1.429 . S
C1044 C1036 1.574 . S
C1044 H1039 0.949 . S
C1044 C1050 1.368 . S
C1045 C1029 1.349 . S
C1045 H1037 0.950 . S
C1045 C1043 1.327 . S
C1046 C1034 1.349 . S
C1046 H1040 0.950 . S
C1046 C1047 1.327 . S
C1047 H1041 0.950 . S
C1047 C1046 1.327 . S
C1047 C1051 1.429 . S
C1048 C1031 1.574 . S
C1048 H1042 0.949 . S
C1048 C1052 1.368 . S
C1049 C1030 1.429 . S
C1049 C1043 1.429 . S
C1049 C1050 1.523 . S
C1050 C1031 1.368 1_545 S
C1050 C1044 1.368 . S
C1050 C1049 1.523 . S
C1051 C1035 1.429 . S
C1051 C1047 1.429 . S
C1051 C1052 1.523 . S
C1052 C1036 1.368 1_565 S
C1052 C1048 1.368 . S
C1052 C1051 1.523 . S
H1053 C1028 0.950 . S
H1054 C1030 0.950 . S
H1055 C1031 0.949 . S
H1056 C1033 0.950 . S
H1057 C1035 0.950 . S
C1058 C1059 1.349 . S
C1058 C1060 1.327 . S
C1058 H1083 0.950 . S
C1059 C1058 1.349 . S
C1059 C1075 1.349 . S
C1060 C1058 1.327 . S
C1060 C1079 1.429 . S
C1060 H1084 0.950 1_455 S
C1061 C1078 1.574 1_545 S
C1061 C1080 1.368 . S
C1061 H1085 0.949 . S
H1062 C1066 0.949 . S
C1063 C1064 1.349 . S
C1063 C1065 1.327 . S
C1063 H1086 0.950 . S
C1064 C1063 1.349 . S
C1064 C1076 1.349 . S
C1065 C1063 1.327 . S
C1065 C1081 1.429 . S
C1065 H1087 0.950 1_655 S
C1066 H1062 0.949 . S
C1066 C1074 1.574 1_565 S
C1066 C1082 1.368 . S
H1067 C1075 0.950 . S
H1068 C1073 0.950 . S
H1069 C1074 0.949 . S
H1070 C1076 0.950 . S
H1071 C1077 0.950 . S
H1072 C1078 0.949 . S
C1073 H1068 0.950 . S
C1073 C1075 1.327 . S
C1073 C1079 1.429 . S
C1074 C1066 1.574 1_545 S
C1074 H1069 0.949 . S
C1074 C1080 1.368 1_655 S
C1075 C1059 1.349 . S
C1075 H1067 0.950 . S
C1075 C1073 1.327 . S
C1076 C1064 1.349 . S
C1076 H1070 0.950 . S
C1076 C1077 1.327 . S
C1077 H1071 0.950 . S
C1077 C1076 1.327 . S
C1077 C1081 1.429 . S
C1078 C1061 1.574 1_565 S
C1078 H1072 0.949 . S
C1078 C1082 1.368 1_455 S
C1079 C1060 1.429 . S
C1079 C1073 1.429 . S
C1079 C1080 1.523 . S
C1080 C1061 1.368 . S
C1080 C1074 1.368 1_455 S
C1080 C1079 1.523 . S
C1081 C1065 1.429 . S
C1081 C1077 1.429 . S
C1081 C1082 1.523 . S
C1082 C1066 1.368 . S
C1082 C1078 1.368 1_655 S
C1082 C1081 1.523 . S
H1083 C1058 0.950 . S
H1084 C1060 0.950 1_655 S
H1085 C1061 0.949 . S
H1086 C1063 0.950 . S
H1087 C1065 0.950 1_455 S
C1088 C1089 1.349 . S
C1088 C1090 1.327 . S
C1088 H1113 0.950 . S
C1089 C1088 1.349 . S
C1089 C1105 1.349 . S
C1090 C1088 1.327 . S
C1090 C1109 1.429 . S
C1090 H1114 0.950 . S
C1091 C1108 1.574 . S
C1091 C1110 1.368 1_545 S
C1091 H1115 0.949 . S
H1092 C1096 0.949 . S
C1093 C1094 1.349 . S
C1093 C1095 1.327 . S
C1093 H1116 0.950 . S
C1094 C1093 1.349 . S
C1094 C1106 1.349 . S
C1095 C1093 1.327 . S
C1095 C1111 1.429 . S
C1095 H1117 0.950 . S
C1096 H1092 0.949 . S
C1096 C1104 1.574 . S
C1096 C1112 1.368 1_565 S
H1097 C1105 0.950 . S
H1098 C1103 0.950 . S
H1099 C1104 0.949 . S
H1100 C1106 0.950 . S
H1101 C1107 0.950 . S
H1102 C1108 0.949 . S
C1103 H1098 0.950 . S
C1103 C1105 1.327 . S
C1103 C1109 1.429 . S
C1104 C1096 1.574 . S
C1104 H1099 0.949 . S
C1104 C1110 1.368 . S
C1105 C1089 1.349 . S
C1105 H1097 0.950 . S
C1105 C1103 1.327 . S
C1106 C1094 1.349 . S
C1106 H1100 0.950 . S
C1106 C1107 1.327 . S
C1107 H1101 0.950 . S
C1107 C1106 1.327 . S
C1107 C1111 1.429 . S
C1108 C1091 1.574 . S
C1108 H1102 0.949 . S
C1108 C1112 1.368 . S
C1109 C1090 1.429 . S
C1109 C1103 1.429 . S
C1109 C1110 1.523 . S
C1110 C1091 1.368 1_565 S
C1110 C1104 1.368 . S
C1110 C1109 1.523 . S
C1111 C1095 1.429 . S
C1111 C1107 1.429 . S
C1111 C1112 1.523 . S
C1112 C1096 1.368 1_545 S
C1112 C1108 1.368 . S
C1112 C1111 1.523 . S
H1113 C1088 0.950 . S
H1114 C1090 0.950 . S
H1115 C1091 0.949 . S
H1116 C1093 0.950 . S
H1117 C1095 0.950 . S
C1118 C1119 1.349 . S
C1118 C1120 1.327 . S
C1118 H1143 0.950 . S
C1119 C1118 1.349 . S
C1119 C1135 1.349 . S
C1120 C1118 1.327 . S
C1120 C1139 1.429 . S
C1120 H1144 0.950 1_655 S
C1121 C1138 1.574 1_565 S
C1121 C1140 1.368 . S
C1121 H1145 0.949 . S
H1122 C1126 0.949 . S
C1123 C1124 1.349 . S
C1123 C1125 1.327 . S
C1123 H1146 0.950 . S
C1124 C1123 1.349 . S
C1124 C1136 1.349 . S
C1125 C1123 1.327 . S
C1125 C1141 1.429 . S
C1125 H1147 0.950 1_455 S
C1126 H1122 0.949 . S
C1126 C1134 1.574 1_545 S
C1126 C1142 1.368 . S
H1127 C1135 0.950 . S
H1128 C1133 0.950 . S
H1129 C1134 0.949 . S
H1130 C1136 0.950 . S
H1131 C1137 0.950 . S
H1132 C1138 0.949 . S
C1133 H1128 0.950 . S
C1133 C1135 1.327 . S
C1133 C1139 1.429 . S
C1134 C1126 1.574 1_565 S
C1134 H1129 0.949 . S
C1134 C1140 1.368 1_455 S
C1135 C1119 1.349 . S
C1135 H1127 0.950 . S
C1135 C1133 1.327 . S
C1136 C1124 1.349 . S
C1136 H1130 0.950 . S
C1136 C1137 1.327 . S
C1137 H1131 0.950 . S
C1137 C1136 1.327 . S
C1137 C1141 1.429 . S
C1138 C1121 1.574 1_545 S
C1138 H1132 0.949 . S
C1138 C1142 1.368 1_655 S
C1139 C1120 1.429 . S
C1139 C1133 1.429 . S
C1139 C1140 1.523 . S
C1140 C1121 1.368 . S
C1140 C1134 1.368 1_655 S
C1140 C1139 1.523 . S
C1141 C1125 1.429 . S
C1141 C1137 1.429 . S
C1141 C1142 1.523 . S
C1142 C1126 1.368 . S
C1142 C1138 1.368 1_455 S
C1142 C1141 1.523 . S
H1143 C1118 0.950 . S
H1144 C1120 0.950 1_455 S
H1145 C1121 0.949 . S
H1146 C1123 0.950 . S
H1147 C1125 0.950 1_655 S
C1148 C1149 1.349 . S
C1148 C1150 1.327 . S
C1148 H1173 0.950 . S
C1149 C1148 1.349 . S
C1149 C1165 1.349 . S
C1150 C1148 1.327 . S
C1150 C1169 1.429 . S
C1150 H1174 0.950 . S
C1151 C1168 1.574 1_455 S
C1151 C1170 1.368 . S
C1151 H1175 0.949 . S
H1152 C1156 0.949 . S
C1153 C1154 1.349 . S
C1153 C1155 1.327 . S
C1153 H1176 0.950 . S
C1154 C1153 1.349 . S
C1154 C1166 1.349 . S
C1155 C1153 1.327 . S
C1155 C1171 1.429 . S
C1155 H1177 0.950 . S
C1156 H1152 0.949 . S
C1156 C1164 1.574 1_655 S
C1156 C1172 1.368 . S
H1157 C1165 0.950 . S
H1158 C1163 0.950 . S
H1159 C1164 0.949 . S
H1160 C1166 0.950 . S
H1161 C1167 0.950 . S
H1162 C1168 0.949 . S
C1163 H1158 0.950 . S
C1163 C1165 1.327 . S
C1163 C1169 1.429 . S
C1164 C1156 1.574 1_455 S
C1164 H1159 0.949 . S
C1164 C1170 1.368 . S
C1165 C1149 1.349 . S
C1165 H1157 0.950 . S
C1165 C1163 1.327 . S
C1166 C1154 1.349 . S
C1166 H1160 0.950 . S
C1166 C1167 1.327 . S
C1167 H1161 0.950 . S
C1167 C1166 1.327 . S
C1167 C1171 1.429 . S
C1168 C1151 1.574 1_655 S
C1168 H1162 0.949 . S
C1168 C1172 1.368 . S
C1169 C1150 1.429 . S
C1169 C1163 1.429 . S
C1169 C1170 1.523 . S
C1170 C1151 1.368 . S
C1170 C1164 1.368 . S
C1170 C1169 1.523 . S
C1171 C1155 1.429 . S
C1171 C1167 1.429 . S
C1171 C1172 1.523 . S
C1172 C1156 1.368 . S
C1172 C1168 1.368 . S
C1172 C1171 1.523 . S
H1173 C1148 0.950 . S
H1174 C1150 0.950 . S
H1175 C1151 0.949 . S
H1176 C1153 0.950 . S
H1177 C1155 0.950 . S
C1178 C1179 1.349 . S
C1178 C1180 1.327 . S
C1178 H1203 0.950 . S
C1179 C1178 1.349 . S
C1179 C1195 1.349 . S
C1180 C1178 1.327 . S
C1180 C1199 1.429 . S
C1180 H1204 0.950 . S
C1181 C1198 1.574 . S
C1181 C1200 1.368 . S
C1181 H1205 0.949 . S
H1182 C1186 0.949 . S
C1183 C1184 1.349 . S
C1183 C1185 1.327 . S
C1183 H1206 0.950 . S
C1184 C1183 1.349 . S
C1184 C1196 1.349 . S
C1185 C1183 1.327 . S
C1185 C1201 1.429 . S
C1185 H1207 0.950 . S
C1186 H1182 0.949 . S
C1186 C1194 1.574 . S
C1186 C1202 1.368 . S
H1187 C1195 0.950 . S
H1188 C1193 0.950 . S
H1189 C1194 0.949 . S
H1190 C1196 0.950 . S
H1191 C1197 0.950 . S
H1192 C1198 0.949 . S
C1193 H1188 0.950 . S
C1193 C1195 1.327 . S
C1193 C1199 1.429 . S
C1194 C1186 1.574 . S
C1194 H1189 0.949 . S
C1194 C1200 1.368 . S
C1195 C1179 1.349 . S
C1195 H1187 0.950 . S
C1195 C1193 1.327 . S
C1196 C1184 1.349 . S
C1196 H1190 0.950 . S
C1196 C1197 1.327 . S
C1197 H1191 0.950 . S
C1197 C1196 1.327 . S
C1197 C1201 1.429 . S
C1198 C1181 1.574 . S
C1198 H1192 0.949 . S
C1198 C1202 1.368 . S
C1199 C1180 1.429 . S
C1199 C1193 1.429 . S
C1199 C1200 1.523 . S
C1200 C1181 1.368 . S
C1200 C1194 1.368 . S
C1200 C1199 1.523 . S
C1201 C1185 1.429 . S
C1201 C1197 1.429 . S
C1201 C1202 1.523 . S
C1202 C1186 1.368 . S
C1202 C1198 1.368 . S
C1202 C1201 1.523 . S
H1203 C1178 0.950 . S
H1204 C1180 0.950 . S
H1205 C1181 0.949 . S
H1206 C1183 0.950 . S
H1207 C1185 0.950 . S
C1208 C1209 1.349 . S
C1208 C1210 1.327 . S
C1208 H1233 0.950 . S
C1209 C1208 1.349 . S
C1209 C1225 1.349 . S
C1210 C1208 1.327 . S
C1210 C1229 1.429 . S
C1210 H1234 0.950 . S
C1211 C1228 1.574 . S
C1211 C1230 1.368 . S
C1211 H1235 0.949 . S
H1212 C1216 0.949 . S
C1213 C1214 1.349 . S
C1213 C1215 1.327 . S
C1213 H1236 0.950 . S
C1214 C1213 1.349 . S
C1214 C1226 1.349 . S
C1215 C1213 1.327 . S
C1215 C1231 1.429 . S
C1215 H1237 0.950 . S
C1216 H1212 0.949 . S
C1216 C1224 1.574 . S
C1216 C1232 1.368 . S
H1217 C1225 0.950 . S
H1218 C1223 0.950 . S
H1219 C1224 0.949 . S
H1220 C1226 0.950 . S
H1221 C1227 0.950 . S
H1222 C1228 0.949 . S
C1223 H1218 0.950 . S
C1223 C1225 1.327 . S
C1223 C1229 1.429 . S
C1224 C1216 1.574 . S
C1224 H1219 0.949 . S
C1224 C1230 1.368 . S
C1225 C1209 1.349 . S
C1225 H1217 0.950 . S
C1225 C1223 1.327 . S
C1226 C1214 1.349 . S
C1226 H1220 0.950 . S
C1226 C1227 1.327 . S
C1227 H1221 0.950 . S
C1227 C1226 1.327 . S
C1227 C1231 1.429 . S
C1228 C1211 1.574 . S
C1228 H1222 0.949 . S
C1228 C1232 1.368 . S
C1229 C1210 1.429 . S
C1229 C1223 1.429 . S
C1229 C1230 1.523 . S
C1230 C1211 1.368 . S
C1230 C1224 1.368 . S
C1230 C1229 1.523 . S
C1231 C1215 1.429 . S
C1231 C1227 1.429 . S
C1231 C1232 1.523 . S
C1232 C1216 1.368 . S
C1232 C1228 1.368 . S
C1232 C1231 1.523 . S
H1233 C1208 0.950 . S
H1234 C1210 0.950 . S
H1235 C1211 0.949 . S
H1236 C1213 0.950 . S
H1237 C1215 0.950 . S
C1238 C1239 1.349 . S
C1238 C1240 1.327 . S
C1238 H1263 0.950 . S
C1239 C1238 1.349 . S
C1239 C1255 1.349 . S
C1240 C1238 1.327 . S
C1240 C1259 1.429 . S
C1240 H1264 0.950 . S
C1241 C1258 1.574 1_565 S
C1241 C1260 1.368 . S
C1241 H1265 0.949 . S
H1242 C1246 0.949 . S
C1243 C1244 1.349 . S
C1243 C1245 1.327 . S
C1243 H1266 0.950 . S
C1244 C1243 1.349 . S
C1244 C1256 1.349 . S
C1245 C1243 1.327 . S
C1245 C1261 1.429 . S
C1245 H1267 0.950 . S
C1246 H1242 0.949 . S
C1246 C1254 1.574 1_545 S
C1246 C1262 1.368 . S
H1247 C1255 0.950 . S
H1248 C1253 0.950 . S
H1249 C1254 0.949 . S
H1250 C1256 0.950 . S
H1251 C1257 0.950 . S
H1252 C1258 0.949 . S
C1253 H1248 0.950 . S
C1253 C1255 1.327 . S
C1253 C1259 1.429 . S
C1254 C1246 1.574 1_565 S
C1254 H1249 0.949 . S
C1254 C1260 1.368 . S
C1255 C1239 1.349 . S
C1255 H1247 0.950 . S
C1255 C1253 1.327 . S
C1256 C1244 1.349 . S
C1256 H1250 0.950 . S
C1256 C1257 1.327 . S
C1257 H1251 0.950 . S
C1257 C1256 1.327 . S
C1257 C1261 1.429 . S
C1258 C1241 1.574 1_545 S
C1258 H1252 0.949 . S
C1258 C1262 1.368 . S
C1259 C1240 1.429 . S
C1259 C1253 1.429 . S
C1259 C1260 1.523 . S
C1260 C1241 1.368 . S
C1260 C1254 1.368 . S
C1260 C1259 1.523 . S
C1261 C1245 1.429 . S
C1261 C1257 1.429 . S
C1261 C1262 1.523 . S
C1262 C1246 1.368 . S
C1262 C1258 1.368 . S
C1262 C1261 1.523 . S
H1263 C1238 0.950 . S
H1264 C1240 0.950 . S
H1265 C1241 0.949 . S
H1266 C1243 0.950 . S
H1267 C1245 0.950 . S
C1268 C1269 1.349 . S
C1268 C1270 1.327 . S
C1268 H1293 0.950 . S
C1269 C1268 1.349 . S
C1269 C1285 1.349 . S
C1270 C1268 1.327 . S
C1270 C1289 1.429 . S
C1270 H1294 0.950 . S
C1271 C1288 1.574 1_655 S
C1271 C1290 1.368 . S
C1271 H1295 0.949 . S
H1272 C1276 0.949 . S
C1273 C1274 1.349 . S
C1273 C1275 1.327 . S
C1273 H1296 0.950 . S
C1274 C1273 1.349 . S
C1274 C1286 1.349 . S
C1275 C1273 1.327 . S
C1275 C1291 1.429 . S
C1275 H1297 0.950 . S
C1276 H1272 0.949 . S
C1276 C1284 1.574 1_455 S
C1276 C1292 1.368 . S
H1277 C1285 0.950 . S
H1278 C1283 0.950 . S
H1279 C1284 0.949 . S
H1280 C1286 0.950 . S
H1281 C1287 0.950 . S
H1282 C1288 0.949 . S
C1283 H1278 0.950 . S
C1283 C1285 1.327 . S
C1283 C1289 1.429 . S
C1284 C1276 1.574 1_655 S
C1284 H1279 0.949 . S
C1284 C1290 1.368 1_545 S
C1285 C1269 1.349 . S
C1285 H1277 0.950 . S
C1285 C1283 1.327 . S
C1286 C1274 1.349 . S
C1286 H1280 0.950 . S
C1286 C1287 1.327 . S
C1287 H1281 0.950 . S
C1287 C1286 1.327 . S
C1287 C1291 1.429 . S
C1288 C1271 1.574 1_455 S
C1288 H1282 0.949 . S
C1288 C1292 1.368 1_565 S
C1289 C1270 1.429 . S
C1289 C1283 1.429 . S
C1289 C1290 1.523 . S
C1290 C1271 1.368 . S
C1290 C1284 1.368 1_565 S
C1290 C1289 1.523 . S
C1291 C1275 1.429 . S
C1291 C1287 1.429 . S
C1291 C1292 1.523 . S
C1292 C1276 1.368 . S
C1292 C1288 1.368 1_545 S
C1292 C1291 1.523 . S
H1293 C1268 0.950 . S
H1294 C1270 0.950 . S
H1295 C1271 0.949 . S
H1296 C1273 0.950 . S
H1297 C1275 0.950 . S
C1298 C1299 1.349 . S
C1298 C1300 1.327 . S
C1298 H1323 0.950 . S
C1299 C1298 1.349 . S
C1299 C1315 1.349 . S
C1300 C1298 1.327 . S
C1300 C1319 1.429 . S
C1300 H1324 0.950 . S
C1301 C1318 1.574 . S
C1301 C1320 1.368 1_655 S
C1301 H1325 0.949 . S
H1302 C1306 0.949 . S
C1303 C1304 1.349 . S
C1303 C1305 1.327 . S
C1303 H1326 0.950 . S
C1304 C1303 1.349 . S
C1304 C1316 1.349 . S
C1305 C1303 1.327 . S
C1305 C1321 1.429 . S
C1305 H1327 0.950 . S
C1306 H1302 0.949 . S
C1306 C1314 1.574 . S
C1306 C1322 1.368 1_455 S
H1307 C1315 0.950 . S
H1308 C1313 0.950 1_655 S
H1309 C1314 0.949 . S
H1310 C1316 0.950 . S
H1311 C1317 0.950 1_455 S
H1312 C1318 0.949 . S
C1313 H1308 0.950 1_455 S
C1313 C1315 1.327 . S
C1313 C1319 1.429 . S
C1314 C1306 1.574 . S
C1314 H1309 0.949 . S
C1314 C1320 1.368 . S
C1315 C1299 1.349 . S
C1315 H1307 0.950 . S
C1315 C1313 1.327 . S
C1316 C1304 1.349 . S
C1316 H1310 0.950 . S
C1316 C1317 1.327 . S
C1317 H1311 0.950 1_655 S
C1317 C1316 1.327 . S
C1317 C1321 1.429 . S
C1318 C1301 1.574 . S
C1318 H1312 0.949 . S
C1318 C1322 1.368 . S
C1319 C1300 1.429 . S
C1319 C1313 1.429 . S
C1319 C1320 1.523 . S
C1320 C1301 1.368 1_455 S
C1320 C1314 1.368 . S
C1320 C1319 1.523 . S
C1321 C1305 1.429 . S
C1321 C1317 1.429 . S
C1321 C1322 1.523 . S
C1322 C1306 1.368 1_655 S
C1322 C1318 1.368 . S
C1322 C1321 1.523 . S
H1323 C1298 0.950 . S
H1324 C1300 0.950 . S
H1325 C1301 0.949 . S
H1326 C1303 0.950 . S
H1327 C1305 0.950 . S
C1328 C1329 1.349 . S
C1328 C1330 1.327 . S
C1328 H1353 0.926 1_545 S
C1329 C1328 1.349 . S
C1329 C1345 1.349 . S
C1330 C1328 1.327 . S
C1330 C1349 1.429 . S
C1330 H1354 0.950 1_545 S
C1331 C1348 1.574 . S
C1331 C1350 1.368 . S
C1331 H1355 0.949 . S
H1332 C1336 0.949 1_565 S
C1333 C1334 1.349 . S
C1333 C1335 1.327 . S
C1333 H1356 0.950 . S
C1334 C1333 1.349 . S
C1334 C1346 1.349 . S
C1335 C1333 1.327 . S
C1335 C1351 1.429 . S
C1335 H1357 0.950 . S
C1336 H1332 0.949 1_545 S
C1336 C1344 1.574 . S
C1336 C1352 1.368 . S
H1337 C1345 0.950 . S
H1338 C1343 0.950 . S
H1339 C1344 0.949 1_565 S
H1340 C1346 0.928 1_565 S
H1341 C1347 0.950 1_565 S
H1342 C1348 0.949 . S
C1343 H1338 0.950 . S
C1343 C1345 1.327 . S
C1343 C1349 1.429 . S
C1344 C1336 1.574 . S
C1344 H1339 0.949 1_545 S
C1344 C1350 1.368 . S
C1345 C1329 1.349 . S
C1345 H1337 0.950 . S
C1345 C1343 1.327 . S
C1346 C1334 1.349 . S
C1346 H1340 0.928 1_545 S
C1346 C1347 1.327 . S
C1347 H1341 0.950 1_545 S
C1347 C1346 1.327 . S
C1347 C1351 1.429 . S
C1348 C1331 1.574 . S
C1348 H1342 0.949 . S
C1348 C1352 1.368 . S
C1349 C1330 1.429 . S
C1349 C1343 1.429 . S
C1349 C1350 1.523 . S
C1350 C1331 1.368 . S
C1350 C1344 1.368 . S
C1350 C1349 1.523 . S
C1351 C1335 1.429 . S
C1351 C1347 1.429 . S
C1351 C1352 1.523 . S
C1352 C1336 1.368 . S
C1352 C1348 1.368 . S
C1352 C1351 1.523 . S
H1353 C1328 0.926 1_565 S
H1354 C1330 0.950 1_565 S
H1355 C1331 0.949 . S
H1356 C1333 0.950 . S
H1357 C1335 0.950 . S
C1358 C1359 1.349 . S
C1358 C1360 1.327 . S
C1358 H1383 0.950 . S
C1359 C1358 1.349 . S
C1359 C1375 1.349 . S
C1360 C1358 1.327 . S
C1360 C1379 1.429 . S
C1360 H1384 0.950 . S
C1361 C1378 1.574 . S
C1361 C1380 1.368 . S
C1361 H1385 0.949 . S
H1362 C1366 0.949 . S
C1363 C1364 1.349 . S
C1363 C1365 1.327 . S
C1363 H1386 0.950 . S
C1364 C1363 1.349 . S
C1364 C1376 1.349 . S
C1365 C1363 1.327 . S
C1365 C1381 1.429 . S
C1365 H1387 0.950 . S
C1366 H1362 0.949 . S
C1366 C1374 1.574 . S
C1366 C1382 1.368 . S
H1367 C1375 0.950 . S
H1368 C1373 0.950 . S
H1369 C1374 0.949 . S
H1370 C1376 0.950 . S
H1371 C1377 0.950 . S
H1372 C1378 0.949 . S
C1373 H1368 0.950 . S
C1373 C1375 1.327 . S
C1373 C1379 1.429 . S
C1374 C1366 1.574 . S
C1374 H1369 0.949 . S
C1374 C1380 1.368 . S
C1375 C1359 1.349 . S
C1375 H1367 0.950 . S
C1375 C1373 1.327 . S
C1376 C1364 1.349 . S
C1376 H1370 0.950 . S
C1376 C1377 1.327 . S
C1377 H1371 0.950 . S
C1377 C1376 1.327 . S
C1377 C1381 1.429 . S
C1378 C1361 1.574 . S
C1378 H1372 0.949 . S
C1378 C1382 1.368 . S
C1379 C1360 1.429 . S
C1379 C1373 1.429 . S
C1379 C1380 1.523 . S
C1380 C1361 1.368 . S
C1380 C1374 1.368 . S
C1380 C1379 1.523 . S
C1381 C1365 1.429 . S
C1381 C1377 1.429 . S
C1381 C1382 1.523 . S
C1382 C1366 1.368 . S
C1382 C1378 1.368 . S
C1382 C1381 1.523 . S
H1383 C1358 0.950 . S
H1384 C1360 0.950 . S
H1385 C1361 0.949 . S
H1386 C1363 0.950 . S
H1387 C1365 0.950 . S
C1388 C1389 1.349 . S
C1388 C1390 1.327 . S
C1388 H1413 0.950 . S
C1389 C1388 1.349 . S
C1389 C1405 1.349 . S
C1390 C1388 1.327 . S
C1390 C1409 1.429 . S
C1390 H1414 0.950 . S
C1391 C1408 1.574 . S
C1391 C1410 1.368 . S
C1391 H1415 0.949 . S
H1392 C1396 0.949 . S
C1393 C1394 1.349 . S
C1393 C1395 1.327 . S
C1393 H1416 0.950 . S
C1394 C1393 1.349 . S
C1394 C1406 1.349 . S
C1395 C1393 1.327 . S
C1395 C1411 1.429 . S
C1395 H1417 0.950 . S
C1396 H1392 0.949 . S
C1396 C1404 1.574 . S
C1396 C1412 1.368 . S
H1397 C1405 0.950 . S
H1398 C1403 0.950 . S
H1399 C1404 0.949 . S
H1400 C1406 0.950 . S
H1401 C1407 0.950 . S
H1402 C1408 0.949 . S
C1403 H1398 0.950 . S
C1403 C1405 1.327 . S
C1403 C1409 1.429 . S
C1404 C1396 1.574 . S
C1404 H1399 0.949 . S
C1404 C1410 1.368 . S
C1405 C1389 1.349 . S
C1405 H1397 0.950 . S
C1405 C1403 1.327 . S
C1406 C1394 1.349 . S
C1406 H1400 0.950 . S
C1406 C1407 1.327 . S
C1407 H1401 0.950 . S
C1407 C1406 1.327 . S
C1407 C1411 1.429 . S
C1408 C1391 1.574 . S
C1408 H1402 0.949 . S
C1408 C1412 1.368 . S
C1409 C1390 1.429 . S
C1409 C1403 1.429 . S
C1409 C1410 1.523 . S
C1410 C1391 1.368 . S
C1410 C1404 1.368 . S
C1410 C1409 1.523 . S
C1411 C1395 1.429 . S
C1411 C1407 1.429 . S
C1411 C1412 1.523 . S
C1412 C1396 1.368 . S
C1412 C1408 1.368 . S
C1412 C1411 1.523 . S
H1413 C1388 0.950 . S
H1414 C1390 0.950 . S
H1415 C1391 0.949 . S
H1416 C1393 0.950 . S
H1417 C1395 0.950 . S
C1418 C1419 1.349 . S
C1418 C1420 1.327 . S
C1418 H1443 0.950 . S
C1419 C1418 1.349 . S
C1419 C1435 1.349 . S
C1420 C1418 1.327 . S
C1420 C1439 1.429 . S
C1420 H1444 0.950 . S
C1421 C1438 1.574 . S
C1421 C1440 1.368 . S
C1421 H1445 0.949 . S
H1422 C1426 0.949 . S
C1423 C1424 1.349 . S
C1423 C1425 1.327 . S
C1423 H1446 0.950 . S
C1424 C1423 1.349 . S
C1424 C1436 1.349 . S
C1425 C1423 1.327 . S
C1425 C1441 1.429 . S
C1425 H1447 0.950 . S
C1426 H1422 0.949 . S
C1426 C1434 1.574 . S
C1426 C1442 1.368 . S
H1427 C1435 0.950 . S
H1428 C1433 0.950 . S
H1429 C1434 0.949 . S
H1430 C1436 0.950 . S
H1431 C1437 0.950 . S
H1432 C1438 0.949 . S
C1433 H1428 0.950 . S
C1433 C1435 1.327 . S
C1433 C1439 1.429 . S
C1434 C1426 1.574 . S
C1434 H1429 0.949 . S
C1434 C1440 1.368 . S
C1435 C1419 1.349 . S
C1435 H1427 0.950 . S
C1435 C1433 1.327 . S
C1436 C1424 1.349 . S
C1436 H1430 0.950 . S
C1436 C1437 1.327 . S
C1437 H1431 0.950 . S
C1437 C1436 1.327 . S
C1437 C1441 1.429 . S
C1438 C1421 1.574 . S
C1438 H1432 0.949 . S
C1438 C1442 1.368 . S
C1439 C1420 1.429 . S
C1439 C1433 1.429 . S
C1439 C1440 1.523 . S
C1440 C1421 1.368 . S
C1440 C1434 1.368 . S
C1440 C1439 1.523 . S
C1441 C1425 1.429 . S
C1441 C1437 1.429 . S
C1441 C1442 1.523 . S
C1442 C1426 1.368 . S
C1442 C1438 1.368 . S
C1442 C1441 1.523 . S
H1443 C1418 0.950 . S
H1444 C1420 0.950 . S
H1445 C1421 0.949 . S
H1446 C1423 0.950 . S
H1447 C1425 0.950 . S
C1448 C1449 1.349 . S
C1448 C1450 1.327 . S
C1448 H1473 0.950 . S
C1449 C1448 1.349 . S
C1449 C1465 1.349 . S
C1450 C1448 1.327 . S
C1450 C1469 1.429 . S
C1450 H1474 0.950 . S
C1451 C1468 1.574 . S
C1451 C1470 1.368 . S
C1451 H1475 0.949 . S
H1452 C1456 0.949 . S
C1453 C1454 1.349 . S
C1453 C1455 1.327 . S
C1453 H1476 0.950 . S
C1454 C1453 1.349 . S
C1454 C1466 1.349 . S
C1455 C1453 1.327 . S
C1455 C1471 1.429 . S
C1455 H1477 0.950 . S
C1456 H1452 0.949 . S
C1456 C1464 1.574 . S
C1456 C1472 1.368 . S
H1457 C1465 0.950 . S
H1458 C1463 0.950 . S
H1459 C1464 0.949 . S
H1460 C1466 0.950 . S
H1461 C1467 0.950 . S
H1462 C1468 0.949 . S
C1463 H1458 0.950 . S
C1463 C1465 1.327 . S
C1463 C1469 1.429 . S
C1464 C1456 1.574 . S
C1464 H1459 0.949 . S
C1464 C1470 1.368 . S
C1465 C1449 1.349 . S
C1465 H1457 0.950 . S
C1465 C1463 1.327 . S
C1466 C1454 1.349 . S
C1466 H1460 0.950 . S
C1466 C1467 1.327 . S
C1467 H1461 0.950 . S
C1467 C1466 1.327 . S
C1467 C1471 1.429 . S
C1468 C1451 1.574 . S
C1468 H1462 0.949 . S
C1468 C1472 1.368 . S
C1469 C1450 1.429 . S
C1469 C1463 1.429 . S
C1469 C1470 1.523 . S
C1470 C1451 1.368 . S
C1470 C1464 1.368 . S
C1470 C1469 1.523 . S
C1471 C1455 1.429 . S
C1471 C1467 1.429 . S
C1471 C1472 1.523 . S
C1472 C1456 1.368 . S
C1472 C1468 1.368 . S
C1472 C1471 1.523 . S
H1473 C1448 0.950 . S
H1474 C1450 0.950 . S
H1475 C1451 0.949 . S
H1476 C1453 0.950 . S
H1477 C1455 0.950 . S
C1478 C1479 1.349 . S
C1478 C1480 1.327 . S
C1478 H1503 0.950 . S
C1479 C1478 1.349 . S
C1479 C1495 1.349 . S
C1480 C1478 1.327 . S
C1480 C1499 1.429 . S
C1480 H1504 0.950 . S
C1481 C1498 1.574 . S
C1481 C1500 1.368 . S
C1481 H1505 0.949 . S
H1482 C1486 0.949 . S
C1483 C1484 1.349 . S
C1483 C1485 1.327 . S
C1483 H1506 0.950 . S
C1484 C1483 1.349 . S
C1484 C1496 1.349 . S
C1485 C1483 1.327 . S
C1485 C1501 1.429 . S
C1485 H1507 0.950 . S
C1486 H1482 0.949 . S
C1486 C1494 1.574 . S
C1486 C1502 1.368 . S
H1487 C1495 0.950 . S
H1488 C1493 0.950 . S
H1489 C1494 0.949 . S
H1490 C1496 0.950 . S
H1491 C1497 0.950 . S
H1492 C1498 0.949 . S
C1493 H1488 0.950 . S
C1493 C1495 1.327 . S
C1493 C1499 1.429 . S
C1494 C1486 1.574 . S
C1494 H1489 0.949 . S
C1494 C1500 1.368 . S
C1495 C1479 1.349 . S
C1495 H1487 0.950 . S
C1495 C1493 1.327 . S
C1496 C1484 1.349 . S
C1496 H1490 0.950 . S
C1496 C1497 1.327 . S
C1497 H1491 0.950 . S
C1497 C1496 1.327 . S
C1497 C1501 1.429 . S
C1498 C1481 1.574 . S
C1498 H1492 0.949 . S
C1498 C1502 1.368 . S
C1499 C1480 1.429 . S
C1499 C1493 1.429 . S
C1499 C1500 1.523 . S
C1500 C1481 1.368 . S
C1500 C1494 1.368 . S
C1500 C1499 1.523 . S
C1501 C1485 1.429 . S
C1501 C1497 1.429 . S
C1501 C1502 1.523 . S
C1502 C1486 1.368 . S
C1502 C1498 1.368 . S
C1502 C1501 1.523 . S
H1503 C1478 0.950 . S
H1504 C1480 0.950 . S
H1505 C1481 0.949 . S
H1506 C1483 0.950 . S
H1507 C1485 0.950 . S
C1508 C1509 1.349 . S
C1508 C1510 1.327 . S
C1508 H1533 0.950 . S
C1509 C1508 1.349 . S
C1509 C1525 1.349 . S
C1510 C1508 1.327 . S
C1510 C1529 1.429 . S
C1510 H1534 0.950 . S
C1511 C1528 1.574 . S
C1511 C1530 1.368 . S
C1511 H1535 0.949 1_565 S
H1512 C1516 0.949 . S
C1513 C1514 1.349 . S
C1513 C1515 1.327 . S
C1513 H1536 0.928 1_565 S
C1514 C1513 1.349 . S
C1514 C1526 1.349 . S
C1515 C1513 1.327 . S
C1515 C1531 1.429 . S
C1515 H1537 0.950 1_565 S
C1516 H1512 0.949 . S
C1516 C1524 1.574 . S
C1516 C1532 1.368 . S
H1517 C1525 0.926 1_545 S
H1518 C1523 0.950 1_545 S
H1519 C1524 0.949 . S
H1520 C1526 0.950 . S
H1521 C1527 0.950 . S
H1522 C1528 0.949 1_545 S
C1523 H1518 0.950 1_565 S
C1523 C1525 1.327 . S
C1523 C1529 1.429 . S
C1524 C1516 1.574 . S
C1524 H1519 0.949 . S
C1524 C1530 1.368 . S
C1525 C1509 1.349 . S
C1525 H1517 0.926 1_565 S
C1525 C1523 1.327 . S
C1526 C1514 1.349 . S
C1526 H1520 0.950 . S
C1526 C1527 1.327 . S
C1527 H1521 0.950 . S
C1527 C1526 1.327 . S
C1527 C1531 1.429 . S
C1528 C1511 1.574 . S
C1528 H1522 0.949 1_565 S
C1528 C1532 1.368 . S
C1529 C1510 1.429 . S
C1529 C1523 1.429 . S
C1529 C1530 1.523 . S
C1530 C1511 1.368 . S
C1530 C1524 1.368 . S
C1530 C1529 1.523 . S
C1531 C1515 1.429 . S
C1531 C1527 1.429 . S
C1531 C1532 1.523 . S
C1532 C1516 1.368 . S
C1532 C1528 1.368 . S
C1532 C1531 1.523 . S
H1533 C1508 0.950 . S
H1534 C1510 0.950 . S
H1535 C1511 0.949 1_545 S
H1536 C1513 0.928 1_545 S
H1537 C1515 0.950 1_545 S
C1538 C1539 1.349 . S
C1538 C1540 1.327 . S
C1538 H1563 0.950 . S
C1539 C1538 1.349 . S
C1539 C1555 1.349 . S
C1540 C1538 1.327 . S
C1540 C1559 1.429 . S
C1540 H1564 0.950 . S
C1541 C1558 1.574 . S
C1541 C1560 1.368 . S
C1541 H1565 0.949 . S
H1542 C1546 0.949 . S
C1543 C1544 1.349 . S
C1543 C1545 1.327 . S
C1543 H1566 0.950 . S
C1544 C1543 1.349 . S
C1544 C1556 1.349 . S
C1545 C1543 1.327 . S
C1545 C1561 1.429 . S
C1545 H1567 0.950 . S
C1546 H1542 0.949 . S
C1546 C1554 1.574 . S
C1546 C1562 1.368 . S
H1547 C1555 0.950 . S
H1548 C1553 0.950 . S
H1549 C1554 0.949 . S
H1550 C1556 0.950 . S
H1551 C1557 0.950 . S
H1552 C1558 0.949 . S
C1553 H1548 0.950 . S
C1553 C1555 1.327 . S
C1553 C1559 1.429 . S
C1554 C1546 1.574 . S
C1554 H1549 0.949 . S
C1554 C1560 1.368 . S
C1555 C1539 1.349 . S
C1555 H1547 0.950 . S
C1555 C1553 1.327 . S
C1556 C1544 1.349 . S
C1556 H1550 0.950 . S
C1556 C1557 1.327 . S
C1557 H1551 0.950 . S
C1557 C1556 1.327 . S
C1557 C1561 1.429 . S
C1558 C1541 1.574 . S
C1558 H1552 0.949 . S
C1558 C1562 1.368 . S
C1559 C1540 1.429 . S
C1559 C1553 1.429 . S
C1559 C1560 1.523 . S
C1560 C1541 1.368 . S
C1560 C1554 1.368 . S
C1560 C1559 1.523 . S
C1561 C1545 1.429 . S
C1561 C1557 1.429 . S
C1561 C1562 1.523 . S
C1562 C1546 1.368 . S
C1562 C1558 1.368 . S
C1562 C1561 1.523 . S
H1563 C1538 0.950 . S
H1564 C1540 0.950 . S
H1565 C1541 0.949 . S
H1566 C1543 0.950 . S
H1567 C1545 0.950 . S
C1568 C1569 1.349 . S
C1568 C1570 1.327 . S
C1568 H1593 0.950 . S
C1569 C1568 1.349 . S
C1569 C1585 1.349 . S
C1570 C1568 1.327 . S
C1570 C1589 1.429 . S
C1570 H1594 0.950 . S
C1571 C1588 1.574 . S
C1571 C1590 1.368 . S
C1571 H1595 0.949 . S
H1572 C1576 0.949 . S
C1573 C1574 1.349 . S
C1573 C1575 1.327 . S
C1573 H1596 0.950 . S
C1574 C1573 1.349 . S
C1574 C1586 1.349 . S
C1575 C1573 1.327 . S
C1575 C1591 1.429 . S
C1575 H1597 0.950 . S
C1576 H1572 0.949 . S
C1576 C1584 1.574 . S
C1576 C1592 1.368 . S
H1577 C1585 0.950 . S
H1578 C1583 0.950 . S
H1579 C1584 0.949 . S
H1580 C1586 0.950 . S
H1581 C1587 0.950 . S
H1582 C1588 0.949 . S
C1583 H1578 0.950 . S
C1583 C1585 1.327 . S
C1583 C1589 1.429 . S
C1584 C1576 1.574 . S
C1584 H1579 0.949 . S
C1584 C1590 1.368 . S
C1585 C1569 1.349 . S
C1585 H1577 0.950 . S
C1585 C1583 1.327 . S
C1586 C1574 1.349 . S
C1586 H1580 0.950 . S
C1586 C1587 1.327 . S
C1587 H1581 0.950 . S
C1587 C1586 1.327 . S
C1587 C1591 1.429 . S
C1588 C1571 1.574 . S
C1588 H1582 0.949 . S
C1588 C1592 1.368 . S
C1589 C1570 1.429 . S
C1589 C1583 1.429 . S
C1589 C1590 1.523 . S
C1590 C1571 1.368 . S
C1590 C1584 1.368 . S
C1590 C1589 1.523 . S
C1591 C1575 1.429 . S
C1591 C1587 1.429 . S
C1591 C1592 1.523 . S
C1592 C1576 1.368 . S
C1592 C1588 1.368 . S
C1592 C1591 1.523 . S
H1593 C1568 0.950 . S
H1594 C1570 0.950 . S
H1595 C1571 0.949 . S
H1596 C1573 0.950 . S
H1597 C1575 0.950 . S
C1598 C1599 1.349 . S
C1598 C1600 1.327 . S
C1598 H1623 0.950 . S
C1599 C1598 1.349 . S
C1599 C1615 1.349 . S
C1600 C1598 1.327 . S
C1600 C1619 1.429 . S
C1600 H1624 0.950 . S
C1601 C1618 1.574 . S
C1601 C1620 1.368 . S
C1601 H1625 0.949 . S
H1602 C1606 0.949 . S
C1603 C1604 1.349 . S
C1603 C1605 1.327 . S
C1603 H1626 0.950 . S
C1604 C1603 1.349 . S
C1604 C1616 1.349 . S
C1605 C1603 1.327 . S
C1605 C1621 1.429 . S
C1605 H1627 0.950 . S
C1606 H1602 0.949 . S
C1606 C1614 1.574 . S
C1606 C1622 1.368 . S
H1607 C1615 0.950 . S
H1608 C1613 0.950 . S
H1609 C1614 0.949 . S
H1610 C1616 0.950 . S
H1611 C1617 0.950 . S
H1612 C1618 0.949 . S
C1613 H1608 0.950 . S
C1613 C1615 1.327 . S
C1613 C1619 1.429 . S
C1614 C1606 1.574 . S
C1614 H1609 0.949 . S
C1614 C1620 1.368 . S
C1615 C1599 1.349 . S
C1615 H1607 0.950 . S
C1615 C1613 1.327 . S
C1616 C1604 1.349 . S
C1616 H1610 0.950 . S
C1616 C1617 1.327 . S
C1617 H1611 0.950 . S
C1617 C1616 1.327 . S
C1617 C1621 1.429 . S
C1618 C1601 1.574 . S
C1618 H1612 0.949 . S
C1618 C1622 1.368 . S
C1619 C1600 1.429 . S
C1619 C1613 1.429 . S
C1619 C1620 1.523 . S
C1620 C1601 1.368 . S
C1620 C1614 1.368 . S
C1620 C1619 1.523 . S
C1621 C1605 1.429 . S
C1621 C1617 1.429 . S
C1621 C1622 1.523 . S
C1622 C1606 1.368 . S
C1622 C1618 1.368 . S
C1622 C1621 1.523 . S
H1623 C1598 0.950 . S
H1624 C1600 0.950 . S
H1625 C1601 0.949 . S
H1626 C1603 0.950 . S
H1627 C1605 0.950 . S
C1628 C1629 1.349 . S
C1628 C1630 1.327 . S
C1628 H1653 0.950 . S
C1629 C1628 1.349 . S
C1629 C1645 1.349 . S
C1630 C1628 1.327 . S
C1630 C1649 1.429 . S
C1630 H1654 0.950 . S
C1631 C1648 1.574 . S
C1631 C1650 1.368 . S
C1631 H1655 0.949 . S
H1632 C1636 0.949 . S
C1633 C1634 1.349 . S
C1633 C1635 1.327 . S
C1633 H1656 0.950 . S
C1634 C1633 1.349 . S
C1634 C1646 1.349 . S
C1635 C1633 1.327 . S
C1635 C1651 1.429 . S
C1635 H1657 0.950 . S
C1636 H1632 0.949 . S
C1636 C1644 1.574 . S
C1636 C1652 1.368 . S
H1637 C1645 0.950 . S
H1638 C1643 0.950 . S
H1639 C1644 0.949 . S
H1640 C1646 0.950 . S
H1641 C1647 0.950 . S
H1642 C1648 0.949 . S
C1643 H1638 0.950 . S
C1643 C1645 1.327 . S
C1643 C1649 1.429 . S
C1644 C1636 1.574 . S
C1644 H1639 0.949 . S
C1644 C1650 1.368 . S
C1645 C1629 1.349 . S
C1645 H1637 0.950 . S
C1645 C1643 1.327 . S
C1646 C1634 1.349 . S
C1646 H1640 0.950 . S
C1646 C1647 1.327 . S
C1647 H1641 0.950 . S
C1647 C1646 1.327 . S
C1647 C1651 1.429 . S
C1648 C1631 1.574 . S
C1648 H1642 0.949 . S
C1648 C1652 1.368 . S
C1649 C1630 1.429 . S
C1649 C1643 1.429 . S
C1649 C1650 1.523 . S
C1650 C1631 1.368 . S
C1650 C1644 1.368 . S
C1650 C1649 1.523 . S
C1651 C1635 1.429 . S
C1651 C1647 1.429 . S
C1651 C1652 1.523 . S
C1652 C1636 1.368 . S
C1652 C1648 1.368 . S
C1652 C1651 1.523 . S
H1653 C1628 0.950 . S
H1654 C1630 0.950 . S
H1655 C1631 0.949 . S
H1656 C1633 0.950 . S
H1657 C1635 0.950 . S
C1658 C1659 1.349 . S
C1658 C1660 1.327 . S
C1658 H1683 0.950 . S
C1659 C1658 1.349 . S
C1659 C1675 1.349 . S
C1660 C1658 1.327 . S
C1660 C1679 1.429 . S
C1660 H1684 0.950 . S
C1661 C1678 1.574 1_556 S
C1661 C1680 1.368 . S
C1661 H1685 0.949 . S
H1662 C1666 0.949 . S
C1663 C1664 1.349 . S
C1663 C1665 1.327 . S
C1663 H1686 0.950 . S
C1664 C1663 1.349 . S
C1664 C1676 1.349 . S
C1665 C1663 1.327 . S
C1665 C1681 1.429 . S
C1665 H1687 0.950 . S
C1666 H1662 0.949 . S
C1666 C1674 1.574 . S
C1666 C1682 1.368 1_556 S
H1667 C1675 0.950 . S
H1668 C1673 0.950 . S
H1669 C1674 0.949 . S
H1670 C1676 0.950 . S
H1671 C1677 0.950 . S
H1672 C1678 0.949 . S
C1673 H1668 0.950 . S
C1673 C1675 1.327 . S
C1673 C1679 1.429 . S
C1674 C1666 1.574 . S
C1674 H1669 0.949 . S
C1674 C1680 1.368 . S
C1675 C1659 1.349 . S
C1675 H1667 0.950 . S
C1675 C1673 1.327 . S
C1676 C1664 1.349 . S
C1676 H1670 0.950 . S
C1676 C1677 1.327 . S
C1677 H1671 0.950 . S
C1677 C1676 1.327 . S
C1677 C1681 1.429 . S
C1678 C1661 1.574 1_554 S
C1678 H1672 0.949 . S
C1678 C1682 1.368 . S
C1679 C1660 1.429 . S
C1679 C1673 1.429 . S
C1679 C1680 1.523 . S
C1680 C1661 1.368 . S
C1680 C1674 1.368 . S
C1680 C1679 1.523 . S
C1681 C1665 1.429 . S
C1681 C1677 1.429 . S
C1681 C1682 1.523 . S
C1682 C1666 1.368 1_554 S
C1682 C1678 1.368 . S
C1682 C1681 1.523 . S
H1683 C1658 0.950 . S
H1684 C1660 0.950 . S
H1685 C1661 0.949 . S
H1686 C1663 0.950 . S
H1687 C1665 0.950 . S
C1688 C1689 1.349 . S
C1688 C1690 1.327 . S
C1688 H1713 0.950 . S
C1689 C1688 1.349 . S
C1689 C1705 1.349 . S
C1690 C1688 1.327 . S
C1690 C1709 1.429 . S
C1690 H1714 0.950 . S
C1691 C1708 1.541 1_554 S
C1691 C1710 1.375 . S
C1691 H1715 0.974 . S
H1692 C1696 0.949 . S
C1693 C1694 1.349 . S
C1693 C1695 1.327 . S
C1693 H1716 0.950 . S
C1694 C1693 1.349 . S
C1694 C1706 1.349 . S
C1695 C1693 1.327 . S
C1695 C1711 1.429 . S
C1695 H1717 0.950 . S
C1696 H1692 0.949 . S
C1696 C1704 1.574 . S
C1696 C1712 1.368 . S
H1697 C1705 0.950 . S
H1698 C1703 0.950 . S
H1699 C1704 0.976 . S
H1700 C1706 0.950 . S
H1701 C1707 0.950 . S
H1702 C1708 0.949 . S
C1703 H1698 0.950 . S
C1703 C1705 1.327 . S
C1703 C1709 1.429 . S
C1704 C1696 1.574 . S
C1704 H1699 0.976 . S
C1704 C1710 1.368 1_556 S
C1705 C1689 1.349 . S
C1705 H1697 0.950 . S
C1705 C1703 1.327 . S
C1706 C1694 1.349 . S
C1706 H1700 0.950 . S
C1706 C1707 1.327 . S
C1707 H1701 0.950 . S
C1707 C1706 1.327 . S
C1707 C1711 1.429 . S
C1708 C1691 1.541 1_556 S
C1708 H1702 0.949 . S
C1708 C1712 1.368 . S
C1709 C1690 1.429 . S
C1709 C1703 1.429 . S
C1709 C1710 1.523 . S
C1710 C1691 1.375 . S
C1710 C1704 1.368 1_554 S
C1710 C1709 1.523 . S
C1711 C1695 1.429 . S
C1711 C1707 1.429 . S
C1711 C1712 1.523 . S
C1712 C1696 1.368 . S
C1712 C1708 1.368 . S
C1712 C1711 1.523 . S
H1713 C1688 0.950 . S
H1714 C1690 0.950 . S
H1715 C1691 0.974 . S
H1716 C1693 0.950 . S
H1717 C1695 0.950 . S
C1718 C1719 1.349 . S
C1718 C1720 1.327 . S
C1718 H1743 0.950 . S
C1719 C1718 1.349 . S
C1719 C1735 1.349 . S
C1720 C1718 1.327 . S
C1720 C1739 1.429 . S
C1720 H1744 0.950 . S
C1721 C1738 1.574 . S
C1721 C1740 1.368 . S
C1721 H1745 0.949 . S
H1722 C1726 0.949 . S
C1723 C1724 1.349 . S
C1723 C1725 1.327 . S
C1723 H1746 0.950 . S
C1724 C1723 1.349 . S
C1724 C1736 1.349 . S
C1725 C1723 1.327 . S
C1725 C1741 1.429 . S
C1725 H1747 0.950 . S
C1726 H1722 0.949 . S
C1726 C1734 1.574 . S
C1726 C1742 1.368 . S
H1727 C1735 0.950 . S
H1728 C1733 0.950 . S
H1729 C1734 0.949 . S
H1730 C1736 0.950 . S
H1731 C1737 0.950 . S
H1732 C1738 0.949 . S
C1733 H1728 0.950 . S
C1733 C1735 1.327 . S
C1733 C1739 1.429 . S
C1734 C1726 1.574 . S
C1734 H1729 0.949 . S
C1734 C1740 1.368 . S
C1735 C1719 1.349 . S
C1735 H1727 0.950 . S
C1735 C1733 1.327 . S
C1736 C1724 1.349 . S
C1736 H1730 0.950 . S
C1736 C1737 1.327 . S
C1737 H1731 0.950 . S
C1737 C1736 1.327 . S
C1737 C1741 1.429 . S
C1738 C1721 1.574 . S
C1738 H1732 0.949 . S
C1738 C1742 1.368 . S
C1739 C1720 1.429 . S
C1739 C1733 1.429 . S
C1739 C1740 1.523 . S
C1740 C1721 1.368 . S
C1740 C1734 1.368 . S
C1740 C1739 1.523 . S
C1741 C1725 1.429 . S
C1741 C1737 1.429 . S
C1741 C1742 1.523 . S
C1742 C1726 1.368 . S
C1742 C1738 1.368 . S
C1742 C1741 1.523 . S
H1743 C1718 0.950 . S
H1744 C1720 0.950 . S
H1745 C1721 0.949 . S
H1746 C1723 0.950 . S
H1747 C1725 0.950 . S
C1748 C1749 1.349 . S
C1748 C1750 1.327 . S
C1748 H1773 0.950 . S
C1749 C1748 1.349 . S
C1749 C1765 1.349 . S
C1750 C1748 1.327 . S
C1750 C1769 1.429 . S
C1750 H1774 0.950 . S
C1751 C1768 1.574 . S
C1751 C1770 1.368 . S
C1751 H1775 0.949 . S
H1752 C1756 0.949 . S
C1753 C1754 1.349 . S
C1753 C1755 1.327 . S
C1753 H1776 0.950 . S
C1754 C1753 1.349 . S
C1754 C1766 1.349 . S
C1755 C1753 1.327 . S
C1755 C1771 1.429 . S
C1755 H1777 0.950 . S
C1756 H1752 0.949 . S
C1756 C1764 1.574 . S
C1756 C1772 1.368 . S
H1757 C1765 0.950 . S
H1758 C1763 0.950 . S
H1759 C1764 0.949 . S
H1760 C1766 0.950 . S
H1761 C1767 0.950 . S
H1762 C1768 0.949 . S
C1763 H1758 0.950 . S
C1763 C1765 1.327 . S
C1763 C1769 1.429 . S
C1764 C1756 1.574 . S
C1764 H1759 0.949 . S
C1764 C1770 1.368 . S
C1765 C1749 1.349 . S
C1765 H1757 0.950 . S
C1765 C1763 1.327 . S
C1766 C1754 1.349 . S
C1766 H1760 0.950 . S
C1766 C1767 1.327 . S
C1767 H1761 0.950 . S
C1767 C1766 1.327 . S
C1767 C1771 1.429 . S
C1768 C1751 1.574 . S
C1768 H1762 0.949 . S
C1768 C1772 1.368 . S
C1769 C1750 1.429 . S
C1769 C1763 1.429 . S
C1769 C1770 1.523 . S
C1770 C1751 1.368 . S
C1770 C1764 1.368 . S
C1770 C1769 1.523 . S
C1771 C1755 1.429 . S
C1771 C1767 1.429 . S
C1771 C1772 1.523 . S
C1772 C1756 1.368 . S
C1772 C1768 1.368 . S
C1772 C1771 1.523 . S
H1773 C1748 0.950 . S
H1774 C1750 0.950 . S
H1775 C1751 0.949 . S
H1776 C1753 0.950 . S
H1777 C1755 0.950 . S
C1778 C1779 1.349 . S
C1778 C1780 1.327 . S
C1778 H1803 0.950 . S
C1779 C1778 1.349 . S
C1779 C1795 1.349 . S
C1780 C1778 1.327 . S
C1780 C1799 1.429 . S
C1780 H1804 0.950 . S
C1781 C1798 1.574 . S
C1781 C1800 1.368 . S
C1781 H1805 0.949 . S
H1782 C1786 0.949 . S
C1783 C1784 1.349 . S
C1783 C1785 1.327 . S
C1783 H1806 0.950 . S
C1784 C1783 1.349 . S
C1784 C1796 1.349 . S
C1785 C1783 1.327 . S
C1785 C1801 1.429 . S
C1785 H1807 0.950 . S
C1786 H1782 0.949 . S
C1786 C1794 1.574 . S
C1786 C1802 1.368 . S
H1787 C1795 0.950 . S
H1788 C1793 0.950 . S
H1789 C1794 0.949 . S
H1790 C1796 0.950 . S
H1791 C1797 0.950 . S
H1792 C1798 0.949 . S
C1793 H1788 0.950 . S
C1793 C1795 1.327 . S
C1793 C1799 1.429 . S
C1794 C1786 1.574 . S
C1794 H1789 0.949 . S
C1794 C1800 1.368 . S
C1795 C1779 1.349 . S
C1795 H1787 0.950 . S
C1795 C1793 1.327 . S
C1796 C1784 1.349 . S
C1796 H1790 0.950 . S
C1796 C1797 1.327 . S
C1797 H1791 0.950 . S
C1797 C1796 1.327 . S
C1797 C1801 1.429 . S
C1798 C1781 1.574 . S
C1798 H1792 0.949 . S
C1798 C1802 1.368 . S
C1799 C1780 1.429 . S
C1799 C1793 1.429 . S
C1799 C1800 1.523 . S
C1800 C1781 1.368 . S
C1800 C1794 1.368 . S
C1800 C1799 1.523 . S
C1801 C1785 1.429 . S
C1801 C1797 1.429 . S
C1801 C1802 1.523 . S
C1802 C1786 1.368 . S
C1802 C1798 1.368 . S
C1802 C1801 1.523 . S
H1803 C1778 0.950 . S
H1804 C1780 0.950 . S
H1805 C1781 0.949 . S
H1806 C1783 0.950 . S
H1807 C1785 0.950 . S
C849 C569 2.484 . S
C854 C39 2.484 . S
C879 C75 2.262 . S
C884 C605 2.262 . S
C909 C463 2.484 . S
C914 C145 2.484 . S
C939 C499 2.262 . S
C944 C181 2.262 . S
C969 C251 2.486 . S
C974 C781 2.486 . S
C999 C817 2.260 . S
C1004 C287 2.260 . S
C1029 C357 2.485 . S
C1034 C675 2.485 . S
C1059 C711 2.260 . S
C1064 C393 2.260 . S
C1089 C568 1.091 . S
C1094 C38 1.091 . S
C1119 C82 0.849 . S
C1124 C612 0.849 . S
C1149 C144 1.092 . S
C1154 C462 1.092 . S
C1179 C188 0.849 . S
C1184 C506 0.849 . S
C1209 C250 1.093 . S
C1214 C780 1.093 . S
C1239 C294 0.848 . S
C1244 C824 0.848 . S
C1269 C674 1.093 . S
C1274 C356 1.093 . S
C1299 C718 0.848 . S
C1304 C400 0.848 . S
C1329 C22 1.923 . S
C1334 C340 1.923 . S
C1359 C92 1.839 . S
C1364 C410 1.839 . S
C1389 C128 1.923 . S
C1394 C234 1.923 . S
C1419 C198 1.839 . S
C1424 C304 1.839 . S
C1449 C446 1.923 . S
C1454 C764 1.924 . S
C1479 C834 1.839 . S
C1484 C516 1.839 . S
C1509 C552 1.924 . S
C1514 C658 1.924 . S
C1539 C728 1.839 . S
C1544 C622 1.839 . S
C1569 C29 1.918 . S
C1574 C833 1.923 . S
C1599 C665 1.918 . S
C1604 C91 1.923 . S
C1629 C727 1.923 . S
C1634 C135 1.918 . S
C1659 C771 1.918 . S
C1664 C197 1.923 . S
C1689 C515 1.923 . S
C1694 C241 1.918 . S
C1719 C559 1.918 . S
C1724 C303 1.923 . S
C1749 C347 1.918 . S
C1754 C621 1.923 . S
C1779 C409 1.923 . S
C1784 C453 1.918 . S
