# Generated by pormake.
# Topology yfx, (5)-cn, num edge types: 1
# Building blocks:
#     Node 0, Type 0, BuildingBlock: XOMCOT_clean_sbu_0, # of connection points: 5
#     Node 1, Type 0, BuildingBlock: XOMCOT_clean_sbu_0, # of connection points: 5
#     Node 2, Type 0, BuildingBlock: XOMCOT_clean_sbu_0, # of connection points: 5
#     Node 3, Type 0, BuildingBlock: XOMCOT_clean_sbu_0, # of connection points: 5
#     Node 4, Type 0, BuildingBlock: XOMCOT_clean_sbu_0, # of connection points: 5
#     Node 5, Type 0, BuildingBlock: XOMCOT_clean_sbu_0, # of connection points: 5
#     Node 6, Type 0, BuildingBlock: XOMCOT_clean_sbu_0, # of connection points: 5
#     Node 7, Type 0, BuildingBlock: XOMCOT_clean_sbu_0, # of connection points: 5
#     Edge 8, Type (0, 0), BuildingBlock: ZUJKAS_clean_linker_0, # of connection points: 2
#     Edge 9, Type (0, 0), BuildingBlock: ZUJKAS_clean_linker_0, # of connection points: 2
#     Edge 10, Type (0, 0), BuildingBlock: ZUJKAS_clean_linker_0, # of connection points: 2
#     Edge 11, Type (0, 0), BuildingBlock: ZUJKAS_clean_linker_0, # of connection points: 2
#     Edge 12, Type (0, 0), BuildingBlock: ZUJKAS_clean_linker_0, # of connection points: 2
#     Edge 13, Type (0, 0), BuildingBlock: ZUJKAS_clean_linker_0, # of connection points: 2
#     Edge 14, Type (0, 0), BuildingBlock: ZUJKAS_clean_linker_0, # of connection points: 2
#     Edge 15, Type (0, 0), BuildingBlock: ZUJKAS_clean_linker_0, # of connection points: 2
#     Edge 16, Type (0, 0), BuildingBlock: ZUJKAS_clean_linker_0, # of connection points: 2
#     Edge 17, Type (0, 0), BuildingBlock: ZUJKAS_clean_linker_0, # of connection points: 2
#     Edge 18, Type (0, 0), BuildingBlock: ZUJKAS_clean_linker_0, # of connection points: 2
#     Edge 19, Type (0, 0), BuildingBlock: ZUJKAS_clean_linker_0, # of connection points: 2
#     Edge 20, Type (0, 0), BuildingBlock: ZUJKAS_clean_linker_0, # of connection points: 2
#     Edge 21, Type (0, 0), BuildingBlock: ZUJKAS_clean_linker_0, # of connection points: 2
#     Edge 22, Type (0, 0), BuildingBlock: ZUJKAS_clean_linker_0, # of connection points: 2
#     Edge 23, Type (0, 0), BuildingBlock: ZUJKAS_clean_linker_0, # of connection points: 2
#     Edge 24, Type (0, 0), BuildingBlock: ZUJKAS_clean_linker_0, # of connection points: 2
#     Edge 25, Type (0, 0), BuildingBlock: ZUJKAS_clean_linker_0, # of connection points: 2
#     Edge 26, Type (0, 0), BuildingBlock: ZUJKAS_clean_linker_0, # of connection points: 2
#     Edge 27, Type (0, 0), BuildingBlock: ZUJKAS_clean_linker_0, # of connection points: 2
# Relax obj value: 0.109
# Max RMSD: 0.108
# Mean RMSD: 0.108
data_MOF--net-yfx--node1-XOMCOT_clean_sbu_0--edge1-ZUJKAS_clean_linker_0
_symmetry_space_group_name_H-M    P1
_symmetry_Int_Tables_number       1
_symmetry_cell_setting            triclinic
loop_
_symmetry_equiv_pos_as_xyz
'x, y, z'
_cell_length_a     44.409427
_cell_length_b     44.413851
_cell_length_c     37.097314
_cell_angle_alpha  89.998751
_cell_angle_beta   89.874519
_cell_angle_gamma 89.988849
loop_
_atom_site_label
_atom_site_type_symbol
_atom_site_fract_x
_atom_site_fract_y
_atom_site_fract_z
_atom_type_partial_charge
Co0 Co 0.20754 0.36173 0.03581 0.0
C1 C 0.27052 0.33593 0.03287 0.0
C2 C 0.26648 0.37491 0.06655 0.0
C3 C 0.29596 0.36555 0.06699 0.0
N4 N 0.25047 0.35663 0.0448 0.0
N5 N 0.29851 0.34106 0.04573 0.0
H6 H 0.26516 0.31725 0.01564 0.0
H7 H 0.25738 0.39423 0.08059 0.0
C8 C 0.23784 0.41543 1.00363 0.0
O9 O 0.25845 0.39721 0.99052 0.0
N10 N 0.16496 0.36783 0.02821 0.0
C11 C 0.14516 0.34878 1.01296 0.0
C12 C 0.11745 0.36281 1.01132 0.0
C13 C 0.14911 0.39296 0.03599 0.0
N14 N 0.11997 0.39059 0.02583 0.0
C15 C 0.21579 0.31596 0.98227 0.0
C16 C 0.21449 0.35251 0.92213 0.0
C17 C 0.22318 0.32228 0.9181 0.0
C18 C 0.22246 0.30372 0.94859 0.0
C19 C 0.20804 0.36388 0.95661 0.0
N20 N 0.21127 0.34616 0.98653 0.0
H21 H 0.21596 0.30115 1.00532 0.0
H22 H 0.20096 0.38702 0.95906 0.0
H23 H 0.15055 0.32642 1.00337 0.0
H24 H 0.15893 0.41284 0.04808 0.0
O25 O 0.19977 0.32425 0.06074 0.0
O26 O 0.20219 0.36883 0.08707 0.0
O27 O 0.21511 0.40479 0.02057 0.0
C28 C 0.19938 0.33978 0.09042 0.0
H29 H 0.3142 0.37648 0.08117 0.0
H30 H 0.097 0.3532 1.00045 0.0
H31 H 0.21361 0.36747 0.89911 0.0
H32 H 0.22753 0.27992 0.94659 0.0
Co33 Co 0.65019 0.2123 0.03586 0.0
C34 C 0.67819 0.27301 0.03127 0.0
C35 C 0.63635 0.27309 0.06049 0.0
C36 C 0.64738 0.30198 0.05965 0.0
N37 N 0.65556 0.25503 0.04261 0.0
N38 N 0.67366 0.30196 0.04126 0.0
H39 H 0.69748 0.26506 0.01615 0.0
H40 H 0.61564 0.26575 0.0731 0.0
C41 C 0.5891 0.21074 0.99986 0.0
O42 O 0.59912 0.19206 0.97511 0.0
N43 N 0.64372 0.16901 0.03041 0.0
C44 C 0.66405 0.1472 0.02332 0.0
C45 C 0.64988 0.11958 0.02435 0.0
C46 C 0.61776 0.15398 0.03721 0.0
N47 N 0.62066 0.12388 0.03285 0.0
C48 C 0.68949 0.20507 0.97463 0.0
C49 C 0.65987 0.24463 0.92949 0.0
C50 C 0.68722 0.2321 0.91777 0.0
C51 C 0.70189 0.21189 0.94089 0.0
C52 C 0.64832 0.23729 0.96351 0.0
N53 N 0.66267 0.21714 0.98549 0.0
H54 H 0.70265 0.19167 0.99287 0.0
H55 H 0.62866 0.24927 0.97284 0.0
H56 H 0.68781 0.15057 0.01901 0.0
H57 H 0.59726 0.16472 0.04629 0.0
O58 O 0.68925 0.20549 0.05759 0.0
O59 O 0.64613 0.20791 0.08751 0.0
O60 O 0.60659 0.22032 0.02461 0.0
C61 C 0.67533 0.20548 0.08852 0.0
H62 H 0.63647 0.32159 0.07102 0.0
H63 H 0.66039 0.09801 0.01923 0.0
H64 H 0.64774 0.26059 0.91292 0.0
H65 H 0.72365 0.20253 0.93389 0.0
Co66 Co 0.80445 0.65103 0.03724 0.0
C67 C 0.74435 0.67982 0.03409 0.0
C68 C 0.7436 0.63799 0.06319 0.0
C69 C 0.71494 0.64975 0.06291 0.0
N70 N 0.76191 0.65679 0.04504 0.0
N71 N 0.71544 0.67598 0.04453 0.0
H72 H 0.75258 0.69899 0.01902 0.0
H73 H 0.75062 0.61711 0.07562 0.0
C74 C 0.80664 0.59018 1.00103 0.0
O75 O 0.82619 0.60039 0.97735 0.0
N76 N 0.84755 0.64434 0.03044 0.0
C77 C 0.86857 0.66313 0.01682 0.0
C78 C 0.89597 0.64862 0.01628 0.0
C79 C 0.86297 0.61912 0.03946 0.0
N80 N 0.89242 0.62083 0.03026 0.0
C81 C 0.80906 0.69196 0.97738 0.0
C82 C 0.77135 0.6611 0.93126 0.0
C83 C 0.78234 0.68931 0.92048 0.0
C84 C 0.80166 0.70462 0.94405 0.0
C85 C 0.77939 0.64922 0.96486 0.0
N86 N 0.79878 0.66416 0.98724 0.0
H87 H 0.82158 0.70558 0.99611 0.0
H88 H 0.76824 0.62893 0.97362 0.0
H89 H 0.86491 0.68596 1.00824 0.0
H90 H 0.85262 0.59952 0.05159 0.0
O91 O 0.812 0.68976 0.05956 0.0
O92 O 0.80961 0.64639 0.08876 0.0
O93 O 0.79604 0.60756 0.02539 0.0
C94 C 0.8123 0.67555 0.09024 0.0
H95 H 0.69515 0.63947 0.07472 0.0
H96 H 0.91698 0.65798 1.00661 0.0
H97 H 0.75537 0.64894 0.91475 0.0
H98 H 0.81043 0.72666 0.9373 0.0
Co99 Co 0.36743 0.80268 0.03753 0.0
C100 C 0.34116 0.74109 0.03491 0.0
C101 C 0.38504 0.7421 0.05916 0.0
C102 C 0.37486 0.71293 0.05928 0.0
N103 N 0.36405 0.75967 0.04372 0.0
N104 N 0.34724 0.71222 0.04411 0.0
H105 H 0.32053 0.74863 0.02233 0.0
H106 H 0.40632 0.74999 0.06965 0.0
C107 C 0.42773 0.80608 0.99949 0.0
O108 O 0.41632 0.82338 0.97422 0.0
N109 N 0.37196 0.84635 0.03279 0.0
C110 C 0.35028 0.86743 0.02952 0.0
C111 C 0.36332 0.89559 0.03013 0.0
C112 C 0.39769 0.86234 0.03722 0.0
N113 N 0.39332 0.89247 0.03474 0.0
C114 C 0.32833 0.81055 0.97652 0.0
C115 C 0.35664 0.7695 0.93193 0.0
C116 C 0.32946 0.78242 0.92042 0.0
C117 C 0.31552 0.80348 0.94317 0.0
C118 C 0.36867 0.77719 0.96555 0.0
N119 N 0.35482 0.79788 0.98733 0.0
H120 H 0.3157 0.82468 0.99454 0.0
H121 H 0.38833 0.76517 0.97479 0.0
H122 H 0.32639 0.86312 0.02863 0.0
H123 H 0.41916 0.85213 0.04307 0.0
O124 O 0.32819 0.80743 0.05959 0.0
O125 O 0.37142 0.80659 0.08925 0.0
O126 O 0.41127 0.79671 0.02543 0.0
C127 C 0.34211 0.8076 0.09042 0.0
H128 H 0.3872 0.69367 0.06927 0.0
H129 H 0.35127 0.9167 0.02854 0.0
H130 H 0.36823 0.75297 0.91553 0.0
H131 H 0.29397 0.81328 0.93623 0.0
Co132 Co 0.71045 0.86457 0.53812 0.0
C133 C 0.77252 0.83923 0.53637 0.0
C134 C 0.76902 0.87938 0.56848 0.0
C135 C 0.79821 0.86922 0.56994 0.0
N136 N 0.75298 0.86063 0.54748 0.0
N137 N 0.80039 0.84407 0.54972 0.0
H138 H 0.76647 0.82047 0.51924 0.0
H139 H 0.76001 0.89907 0.58186 0.0
C140 C 0.70759 0.92544 0.50211 0.0
O141 O 0.691 0.91442 0.47597 0.0
N142 N 0.66734 0.86983 0.53011 0.0
C143 C 0.64662 0.85008 0.51801 0.0
C144 C 0.61875 0.86381 0.51799 0.0
C145 C 0.65138 0.89486 0.53855 0.0
N146 N 0.62176 0.8921 0.53073 0.0
C147 C 0.70767 0.82452 0.47743 0.0
C148 C 0.74601 0.85619 0.43267 0.0
C149 C 0.73496 0.82827 0.42084 0.0
C150 C 0.71551 0.81247 0.4439 0.0
C151 C 0.73761 0.86742 0.46656 0.0
N152 N 0.71779 0.85212 0.48815 0.0
H153 H 0.69492 0.81058 0.49561 0.0
H154 H 0.74833 0.88773 0.47599 0.0
H155 H 0.65078 0.82706 0.51046 0.0
H156 H 0.66126 0.91459 0.55082 0.0
O157 O 0.70398 0.82531 0.55952 0.0
O158 O 0.70363 0.86839 0.58949 0.0
O159 O 0.71724 0.90848 0.52736 0.0
C160 C 0.70218 0.83912 0.59039 0.0
H161 H 0.81659 0.87985 0.58424 0.0
H162 H 0.59795 0.85365 0.50899 0.0
H163 H 0.76151 0.86911 0.41625 0.0
H164 H 0.70748 0.7902 0.43694 0.0
Co165 Co 0.15337 0.70931 0.53775 0.0
C166 C 0.18004 0.7719 0.53315 0.0
C167 C 0.13988 0.76929 0.56509 0.0
C168 C 0.14955 0.79865 0.56482 0.0
N169 N 0.1587 0.75244 0.54488 0.0
N170 N 0.17479 0.80031 0.54467 0.0
H171 H 0.1993 0.76583 0.51713 0.0
H172 H 0.12004 0.7608 0.57866 0.0
C173 C 0.10024 0.73869 0.50313 0.0
O174 O 0.11885 0.75803 0.48816 0.0
N175 N 0.1469 0.66655 0.53192 0.0
C176 C 0.16662 0.64586 0.51991 0.0
C177 C 0.15242 0.61823 0.51902 0.0
C178 C 0.12109 0.65136 0.53831 0.0
N179 N 0.12371 0.62167 0.53056 0.0
C180 C 0.19954 0.71585 0.48429 0.0
C181 C 0.16349 0.71254 0.42393 0.0
C182 C 0.19365 0.72149 0.41983 0.0
C183 C 0.21199 0.72167 0.45049 0.0
C184 C 0.15192 0.70688 0.45855 0.0
N185 N 0.16933 0.71127 0.48847 0.0
H186 H 0.21417 0.7167 0.50743 0.0
H187 H 0.12881 0.69968 0.46112 0.0
H188 H 0.18958 0.65059 0.51194 0.0
H189 H 0.10088 0.66191 0.54865 0.0
O190 O 0.19064 0.70191 0.56319 0.0
O191 O 0.14599 0.70572 0.58924 0.0
O192 O 0.11049 0.71693 0.52206 0.0
C193 C 0.17499 0.70259 0.59281 0.0
H194 H 0.13838 0.8174 0.5778 0.0
H195 H 0.16239 0.59738 0.50979 0.0
H196 H 0.1487 0.71094 0.40084 0.0
H197 H 0.23577 0.72685 0.44852 0.0
Co198 Co 0.30391 0.15118 0.53569 0.0
C199 C 0.24369 0.17995 0.53114 0.0
C200 C 0.24279 0.13809 0.56016 0.0
C201 C 0.21405 0.14951 0.55903 0.0
N202 N 0.26126 0.15707 0.54255 0.0
N203 N 0.21459 0.1758 0.54074 0.0
H204 H 0.25202 0.19913 0.51617 0.0
H205 H 0.24974 0.11723 0.57267 0.0
C206 C 0.30564 0.09012 0.49966 0.0
O207 O 0.32514 0.09992 0.47568 0.0
N208 N 0.34708 0.1442 0.52999 0.0
C209 C 0.36885 0.16344 0.51933 0.0
C210 C 0.39621 0.14882 0.52016 0.0
C211 C 0.36192 0.11854 0.53856 0.0
N212 N 0.39188 0.12044 0.53205 0.0
C213 C 0.3103 0.19168 0.47586 0.0
C214 C 0.27131 0.16234 0.42981 0.0
C215 C 0.28278 0.19049 0.41947 0.0
C216 C 0.30291 0.20489 0.44286 0.0
C217 C 0.2794 0.14984 0.46308 0.0
N218 N 0.29915 0.16419 0.48557 0.0
H219 H 0.32328 0.2048 0.49458 0.0
H220 H 0.2679 0.12969 0.47167 0.0
H221 H 0.36573 0.1867 0.51217 0.0
H222 H 0.35098 0.09891 0.54978 0.0
O223 O 0.31117 0.18996 0.5579 0.0
O224 O 0.30821 0.14667 0.58728 0.0
O225 O 0.29542 0.10777 0.52394 0.0
C226 C 0.31086 0.17585 0.58864 0.0
H227 H 0.19416 0.13883 0.57007 0.0
H228 H 0.41759 0.15844 0.51218 0.0
H229 H 0.25485 0.15082 0.41333 0.0
H230 H 0.31219 0.22677 0.43636 0.0
Co231 Co 0.86676 0.30355 0.53445 0.0
C232 C 0.83985 0.24254 0.52866 0.0
C233 C 0.88403 0.24187 0.55224 0.0
C234 C 0.87433 0.21268 0.5483 0.0
N235 N 0.86264 0.26051 0.53949 0.0
N236 N 0.84666 0.21319 0.53347 0.0
H237 H 0.81935 0.25065 0.51627 0.0
H238 H 0.90546 0.24899 0.56304 0.0
C239 C 0.92778 0.30903 0.49845 0.0
O240 O 0.91719 0.32883 0.47541 0.0
N241 N 0.87204 0.34706 0.53036 0.0
C242 C 0.8525 0.36823 0.51894 0.0
C243 C 0.86635 0.39599 0.52016 0.0
C244 C 0.89708 0.3626 0.5397 0.0
N245 N 0.89455 0.39244 0.53294 0.0
C246 C 0.82594 0.30941 0.47472 0.0
C247 C 0.85801 0.27416 0.42681 0.0
C248 C 0.82948 0.28462 0.41652 0.0
C249 C 0.81354 0.30268 0.44102 0.0
C250 C 0.86954 0.28135 0.46082 0.0
N251 N 0.85397 0.2995 0.48415 0.0
H252 H 0.81194 0.32088 0.49406 0.0
H253 H 0.8902 0.27062 0.46898 0.0
H254 H 0.82965 0.36435 0.51051 0.0
H255 H 0.91686 0.35217 0.5512 0.0
O256 O 0.82773 0.30885 0.55707 0.0
O257 O 0.8711 0.30673 0.58623 0.0
O258 O 0.91055 0.29729 0.52222 0.0
C259 C 0.84186 0.30856 0.58776 0.0
H260 H 0.88666 0.19257 0.55563 0.0
H261 H 0.85649 0.41705 0.51149 0.0
H262 H 0.8711 0.25979 0.40915 0.0
H263 H 0.79091 0.31027 0.4351 0.0
H264 H 0.56205 0.2481 0.04823 0.0
H265 H 0.51054 0.26662 0.048 0.0
H266 H 0.49258 0.21682 0.95061 0.0
H267 H 0.54449 0.19764 0.95079 0.0
H268 H 0.48316 0.30079 0.99355 0.0
H269 H 0.42235 0.19302 0.01828 0.0
H270 H 0.46223 0.19705 0.02636 0.0
H271 H 0.44842 0.19384 0.98111 0.0
C272 C 0.54724 0.24088 0.02674 0.0
C273 C 0.55747 0.22135 0.99948 0.0
C274 C 0.51775 0.25155 0.02668 0.0
C275 C 0.49768 0.24294 0.99948 0.0
C276 C 0.50762 0.22338 0.97217 0.0
H277 H 0.31017 0.30723 0.98602 0.0
H278 H 0.35757 0.28195 0.97088 0.0
C279 C 0.5373 0.21258 0.97221 0.0
C280 C 0.46674 0.25546 0.99975 0.0
H281 H 0.39306 0.23717 1.01507 0.0
C282 C 0.46342 0.28685 0.99786 0.0
C283 C 0.44103 0.23719 1.00521 0.0
C284 C 0.44348 0.2034 1.00812 0.0
C285 C 0.43524 0.30054 1.00249 0.0
C286 C 0.40978 0.2824 1.00956 0.0
C287 C 0.41274 0.25095 1.00978 0.0
C288 C 0.38048 0.29601 0.01938 0.0
C289 C 0.43297 0.3344 1.00051 0.0
C290 C 0.37757 0.31164 0.05203 0.0
C291 C 0.35053 0.32584 0.06095 0.0
C292 C 0.3258 0.32477 0.03736 0.0
C293 C 0.32859 0.30834 1.00501 0.0
C294 C 0.3557 0.29399 0.99618 0.0
H295 H 0.45266 0.34445 0.98643 0.0
H296 H 0.41209 0.34135 0.98634 0.0
H297 H 0.43214 0.34372 0.02825 0.0
H298 H 0.39637 0.31303 0.07053 0.0
H299 H 0.34907 0.3377 0.08636 0.0
H300 H 0.711 0.30987 0.98371 0.0
H301 H 0.73874 0.35595 0.96804 0.0
H302 H 0.70493 0.39901 0.06404 0.0
H303 H 0.67782 0.35321 0.08025 0.0
H304 H 0.69556 0.42923 0.99012 0.0
H305 H 0.81363 0.39754 0.0243 0.0
H306 H 0.78982 0.37136 1.00046 0.0
H307 H 0.78198 0.38002 0.04669 0.0
C308 C 0.70994 0.32896 1.0018 0.0
C309 C 0.69197 0.32793 0.03311 0.0
C310 C 0.72571 0.35526 0.99274 0.0
C311 C 0.7238 0.38078 1.01492 0.0
C312 C 0.70658 0.37953 0.04656 0.0
H313 H 0.76387 0.56383 0.04329 0.0
H314 H 0.74536 0.51232 0.04075 0.0
C315 C 0.69094 0.35338 0.05565 0.0
C316 C 0.73813 0.40959 1.00465 0.0
H317 H 0.80451 0.4482 1.0089 0.0
C318 C 0.71946 0.4333 0.99365 0.0
C319 C 0.76931 0.41465 1.009 0.0
C320 C 0.79007 0.38968 0.02081 0.0
C321 C 0.73095 0.46236 0.98832 0.0
C322 C 0.76181 0.46795 0.99494 0.0
C323 C 0.78084 0.44386 1.00401 0.0
C324 C 0.77384 0.49906 0.99611 0.0
C325 C 0.7098 0.48702 0.97645 0.0
C326 C 0.79664 0.50851 0.97242 0.0
C327 C 0.80744 0.53816 0.97383 0.0
C328 C 0.79576 0.55866 0.99921 0.0
C329 C 0.7733 0.54879 0.02325 0.0
C330 C 0.76254 0.51934 0.02174 0.0
H331 H 0.68998 0.47772 0.96201 0.0
H332 H 0.70142 0.49927 1.00054 0.0
H333 H 0.72139 0.5034 0.95856 0.0
H334 H 0.80581 0.49308 0.95263 0.0
H335 H 0.82487 0.545 0.95507 0.0
H336 H 0.70728 0.71152 0.98579 0.0
H337 H 0.66275 0.74217 0.97194 0.0
H338 H 0.62149 0.71376 0.07162 0.0
H339 H 0.66589 0.68368 0.08585 0.0
H340 H 0.60267 0.72064 0.96498 0.0
H341 H 0.61146 0.80577 0.07334 0.0
H342 H 0.64292 0.78267 0.0595 0.0
H343 H 0.61491 0.76795 0.08988 0.0
C344 C 0.68891 0.71225 1.005 0.0
C345 C 0.69009 0.6952 0.03695 0.0
C346 C 0.66346 0.72962 0.99696 0.0
C347 C 0.63903 0.73054 0.02099 0.0
C348 C 0.64032 0.71379 0.05301 0.0
H349 H 0.45802 0.7736 0.04999 0.0
H350 H 0.51087 0.75932 0.05012 0.0
C351 C 0.66558 0.69634 0.06093 0.0
C352 C 0.61128 0.7475 1.01214 0.0
H353 H 0.56229 0.79895 0.04729 0.0
C354 C 0.59406 0.73826 0.98243 0.0
C355 C 0.60025 0.77057 0.03487 0.0
C356 C 0.6185 0.78256 0.06598 0.0
C357 C 0.56509 0.74997 0.97642 0.0
C358 C 0.55335 0.77169 1.00053 0.0
C359 C 0.57132 0.78219 0.02895 0.0
C360 C 0.52137 0.78107 0.99948 0.0
C361 C 0.54651 0.73774 0.94574 0.0
C362 C 0.50972 0.79822 0.97092 0.0
C363 C 0.47923 0.80651 0.9707 0.0
C364 C 0.46004 0.79773 0.99906 0.0
C365 C 0.47202 0.78071 0.02762 0.0
C366 C 0.50231 0.77256 0.02784 0.0
H367 H 0.55757 0.71835 0.9322 0.0
H368 H 0.52404 0.73049 0.95568 0.0
H369 H 0.54294 0.75573 0.92544 0.0
H370 H 0.52419 0.80529 0.94897 0.0
H371 H 0.47074 0.81971 0.94838 0.0
H372 H 0.28917 0.44534 0.98526 0.0
H373 H 0.29834 0.4994 0.98759 0.0
H374 H 0.20562 0.51455 0.01745 0.0
H375 H 0.19653 0.46013 0.01655 0.0
H376 H 0.27639 0.54745 0.95346 0.0
H377 H 0.24825 0.55513 0.09929 0.0
H378 H 0.25176 0.51958 0.07628 0.0
H379 H 0.21819 0.54185 0.07124 0.0
C380 C 0.27062 0.46013 0.99207 0.0
C381 C 0.24221 0.4484 1.00114 0.0
C382 C 0.27589 0.4911 0.99334 0.0
C383 C 0.25285 0.51106 1.00341 0.0
C384 C 0.22398 0.49956 1.01059 0.0
H385 H 0.30274 0.70432 0.99441 0.0
H386 H 0.2741 0.6581 0.98327 0.0
C387 C 0.21877 0.46846 1.00983 0.0
C388 C 0.25984 0.54358 1.00784 0.0
H389 H 0.2642 0.59949 0.07082 0.0
C390 C 0.27347 0.55897 0.97901 0.0
C391 C 0.25616 0.55852 0.04129 0.0
C392 C 0.24305 0.54293 0.07391 0.0
C393 C 0.28473 0.58834 0.98312 0.0
C394 C 0.28146 0.60307 0.01675 0.0
C395 C 0.26655 0.58821 0.04503 0.0
C396 C 0.29658 0.63218 0.02468 0.0
C397 C 0.30156 0.60254 0.95209 0.0
C398 C 0.31771 0.63344 0.05268 0.0
C399 C 0.33357 0.65987 0.05958 0.0
C400 C 0.32892 0.68577 0.03849 0.0
C401 C 0.30695 0.68485 1.01119 0.0
C402 C 0.2908 0.6583 1.00448 0.0
H403 H 0.30753 0.58581 0.93097 0.0
H404 H 0.2872 0.62004 0.93949 0.0
H405 H 0.32258 0.61347 0.96159 0.0
H406 H 0.32243 0.61367 0.06884 0.0
H407 H 0.34968 0.65985 0.0814 0.0
H408 H 0.07051 0.77892 0.46027 0.0
H409 H 0.017 0.79175 0.46201 0.0
H410 H 1.00206 0.72352 0.54278 0.0
H411 H 0.05545 0.70999 0.54061 0.0
H412 H 0.95499 0.72739 0.49285 0.0
H413 H 0.98521 0.83974 0.54768 0.0
H414 H 1.00207 0.83141 0.50481 0.0
H415 H 0.01218 0.80956 0.54377 0.0
C416 C 0.0558 0.76635 0.47808 0.0
C417 C 0.06734 0.74373 0.5007 0.0
C418 C 0.02523 0.77379 0.47911 0.0
C419 C 1.00571 0.75906 0.50312 0.0
C420 C 0.01678 0.73529 0.5242 0.0
H421 H 0.84544 0.83399 0.59666 0.0
H422 H 0.89392 0.81026 0.58395 0.0
C423 C 0.04733 0.72764 0.52297 0.0
C424 C 0.97438 0.7699 0.50827 0.0
H425 H 0.93387 0.83112 0.53554 0.0
C426 C 0.95028 0.75008 0.50212 0.0
C427 C 0.96837 0.79937 0.52089 0.0
C428 C 0.99329 0.8212 0.53002 0.0
C429 C 0.92029 0.75901 0.50819 0.0
C430 C 0.91432 0.78866 0.52022 0.0
C431 C 0.93846 0.80843 0.52618 0.0
C432 C 0.88347 0.79963 0.52843 0.0
C433 C 0.89537 0.73641 0.50268 0.0
C434 C 0.86117 0.80105 0.50164 0.0
C435 C 0.83325 0.81447 0.50901 0.0
C436 C 0.82745 0.82709 0.54308 0.0
C437 C 0.84947 0.82479 0.57006 0.0
C438 C 0.87712 0.81117 0.56284 0.0
H439 H 0.90405 0.71295 0.50228 0.0
H440 H 0.87807 0.73834 0.52422 0.0
H441 H 0.88429 0.74083 0.47642 0.0
H442 H 0.86574 0.79287 0.47468 0.0
H443 H 0.81678 0.81625 0.48765 0.0
H444 H 0.32125 0.04473 0.45252 0.0
H445 H 0.30157 0.99299 0.4515 0.0
H446 H 0.24605 0.01279 0.54399 0.0
H447 H 0.26508 0.06407 0.54508 0.0
H448 H 0.30271 0.94802 0.50679 0.0
H449 H 0.18595 0.97909 0.47053 0.0
H450 H 0.21728 1.00459 0.46491 0.0
H451 H 0.19972 1.00011 0.50836 0.0
C452 C 0.30477 0.03805 0.47253 0.0
C453 C 0.29456 0.05866 0.49866 0.0
C454 C 0.2936 0.0085 0.47193 0.0
C455 C 0.27193 0.99928 0.49725 0.0
C456 C 0.26223 0.01964 0.52369 0.0
H457 H 0.1776 0.85165 0.584 0.0
H458 H 0.20324 0.89832 0.56784 0.0
C459 C 0.27331 0.04898 0.52434 0.0
C460 C 0.25947 0.96833 0.49697 0.0
H461 H 0.19266 0.93035 0.49762 0.0
C462 C 0.27874 0.94397 0.50405 0.0
C463 C 0.22821 0.96314 0.49319 0.0
C464 C 0.20663 0.98809 0.48345 0.0
C465 C 0.26724 0.91484 0.50971 0.0
C466 C 0.23581 0.91012 0.50805 0.0
C467 C 0.21675 0.93416 0.49919 0.0
C468 C 0.22188 0.88104 0.51809 0.0
C469 C 0.28847 0.88958 0.51923 0.0
C470 C 0.224 0.85584 0.49546 0.0
C471 C 0.20907 0.82909 0.50445 0.0
C472 C 0.19173 0.82717 0.53623 0.0
C473 C 0.19027 0.85241 0.55908 0.0
C474 C 0.20507 0.87907 0.55001 0.0
H475 H 0.312 0.89755 0.5227 0.0
H476 H 0.281 0.87845 0.54453 0.0
H477 H 0.28813 0.87239 0.49753 0.0
H478 H 0.23662 0.85709 0.47048 0.0
H479 H 0.2104 0.81028 0.48598 0.0
H480 H 0.20816 0.21318 0.4831 0.0
H481 H 0.16277 0.24152 0.46644 0.0
H482 H 0.11752 0.20825 0.5613 0.0
H483 H 0.16267 0.18052 0.5785 0.0
H484 H 0.0886 0.1992 0.48682 0.0
H485 H 0.1211 0.31698 0.52153 0.0
H486 H 0.14736 0.29276 0.49825 0.0
H487 H 0.13791 0.28521 0.54433 0.0
C488 C 0.18875 0.21237 0.50075 0.0
C489 C 0.18898 0.19438 0.53203 0.0
C490 C 0.16284 0.22849 0.49112 0.0
C491 C 0.13691 0.2269 0.51269 0.0
C492 C 0.13735 0.20965 0.54429 0.0
H493 H 0.95552 0.26813 0.54179 0.0
H494 H 1.00714 0.25022 0.53866 0.0
C495 C 0.16312 0.19366 0.55395 0.0
C496 C 0.10848 0.24158 0.50174 0.0
H497 H 0.07045 0.30833 0.50566 0.0
C498 C 0.08473 0.22315 0.4903 0.0
C499 C 0.1037 0.27282 0.50602 0.0
C500 C 0.12873 0.29331 0.51824 0.0
C501 C 0.05586 0.23493 0.48465 0.0
C502 C 0.0505 0.26582 0.49133 0.0
C503 C 0.07466 0.28464 0.50069 0.0
C504 C 0.01945 0.27789 0.49298 0.0
C505 C 0.03105 0.21401 0.47268 0.0
C506 C 0.00945 0.30011 0.4689 0.0
C507 C 0.97965 0.31054 0.47058 0.0
C508 C 0.9596 0.29903 0.4966 0.0
C509 C 0.97012 0.27732 0.52115 0.0
C510 C 0.99968 0.26695 0.51937 0.0
H511 H 0.04022 0.194 0.45843 0.0
H512 H 0.0185 0.20594 0.49671 0.0
H513 H 0.01494 0.22572 0.45461 0.0
H514 H 0.02453 0.309 0.44852 0.0
H515 H 0.97231 0.3274 0.45143 0.0
H516 H 0.7872 0.20462 0.54522 0.0
H517 H 0.75913 0.15747 0.53592 0.0
H518 H 0.8384 0.11705 0.48895 0.0
H519 H 0.86657 0.16353 0.49974 0.0
H520 H 0.74449 0.12127 0.47972 0.0
H521 H 0.82213 0.06074 0.57111 0.0
H522 H 0.82282 0.1011 0.56624 0.0
H523 H 0.84157 0.07743 0.53374 0.0
C524 C 0.79836 0.18567 0.5326 0.0
C525 C 0.82907 0.18731 0.52377 0.0
C526 C 0.78241 0.15881 0.52729 0.0
C527 C 0.79692 0.13344 0.51268 0.0
C528 C 0.82701 0.13596 0.50139 0.0
H529 H 0.7143 0.96382 0.44473 0.0
H530 H 0.73354 0.01559 0.44628 0.0
C531 C 0.84305 0.16248 0.50739 0.0
C532 C 0.78135 0.10387 0.51107 0.0
H533 H 0.78838 0.0306 0.53728 0.0
C534 C 0.75394 0.10144 0.49246 0.0
C535 C 0.7934 0.07811 0.52831 0.0
C536 C 0.82141 0.07949 0.55129 0.0
C537 C 0.73854 0.07381 0.4901 0.0
C538 C 0.75135 0.04779 0.50598 0.0
C539 C 0.7786 0.05042 0.52484 0.0
C540 C 0.73688 0.01761 0.50451 0.0
C541 C 0.70843 0.07298 0.4714 0.0
C542 C 0.73263 1.00131 0.53656 0.0
C543 C 0.7225 0.97162 0.53561 0.0
C544 C 0.71594 0.95762 0.50261 0.0
C545 C 0.71899 0.97418 0.47054 0.0
C546 C 0.72976 1.00385 0.47145 0.0
H547 H 0.69775 0.0956 0.47075 0.0
H548 H 0.71169 0.06551 0.44311 0.0
H549 H 0.69278 0.05704 0.48488 0.0
H550 H 0.73787 0.01138 0.5624 0.0
H551 H 0.72012 0.95947 0.56079 0.0
H552 H 0.27138 0.16536 0.35305 0.0
H553 H 0.25379 0.19086 0.29836 0.0
H554 H 0.25234 0.27545 0.35528 0.0
H555 H 0.2694 0.25024 0.41001 0.0
H556 H 0.20034 0.22627 0.28751 0.0
H557 H 0.3045 0.29304 0.26549 0.0
H558 H 0.30325 0.26078 0.29508 0.0
H559 H 0.28844 0.29638 0.3098 0.0
C560 C 0.2672 0.18936 0.35399 0.0
C561 C 0.27223 0.20575 0.38592 0.0
C562 C 0.25722 0.20392 0.32268 0.0
C563 C 0.25221 0.23514 0.32258 0.0
C564 C 0.2567 0.25146 0.35449 0.0
H565 H 0.20482 0.36591 0.15699 0.0
H566 H 0.21441 0.34053 0.21447 0.0
C567 C 0.2666 0.23697 0.38577 0.0
C568 C 0.24215 0.25072 0.28924 0.0
H569 H 0.2629 0.30453 0.22825 0.0
C570 C 0.21403 0.24332 0.27444 0.0
C571 C 0.25998 0.27305 0.27233 0.0
C572 C 0.29084 0.28118 0.28622 0.0
C573 C 0.20306 0.25798 0.2435 0.0
C574 C 0.22097 0.28024 0.22648 0.0
C575 C 0.24907 0.28763 0.24138 0.0
C576 C 0.21165 0.29546 0.19252 0.0
C577 C 0.17215 0.24992 0.22977 0.0
C578 C 0.20645 0.27864 0.1611 0.0
C579 C 0.20078 0.29308 0.12828 0.0
C580 C 0.20045 0.32471 0.12609 0.0
C581 C 0.2047 0.34153 0.15778 0.0
C582 C 0.21034 0.32705 0.19064 0.0
H583 H 0.15802 0.23972 0.2513 0.0
H584 H 0.16034 0.27 0.21895 0.0
H585 H 0.17439 0.23317 0.20774 0.0
H586 H 0.20798 0.25431 0.1616 0.0
H587 H 0.19788 0.27943 0.10435 0.0
H588 H 0.73629 0.20246 0.09874 0.0
H589 H 0.76403 0.21176 0.15461 0.0
H590 H 0.68016 0.22326 0.21179 0.0
H591 H 0.65233 0.21336 0.1563 0.0
H592 H 0.76389 0.26291 0.19366 0.0
H593 H 0.72518 0.16895 0.28016 0.0
H594 H 0.71916 0.16946 0.23206 0.0
H595 H 0.69457 0.19023 0.26162 0.0
C596 C 0.72374 0.20632 0.12337 0.0
C597 C 0.69207 0.20699 0.12306 0.0
C598 C 0.73964 0.21178 0.15529 0.0
C599 C 0.72425 0.21793 0.1876 0.0
C600 C 0.69261 0.21791 0.18749 0.0
H601 H 0.79371 0.31795 0.37108 0.0
H602 H 0.76897 0.30148 0.31569 0.0
C603 C 0.6767 0.21233 0.15564 0.0
C604 C 0.74122 0.22644 0.22071 0.0
H605 H 0.74998 0.20967 0.31001 0.0
C606 C 0.76101 0.2511 0.21903 0.0
C607 C 0.73777 0.21091 0.25379 0.0
C608 C 0.71826 0.18323 0.25702 0.0
C609 C 0.77688 0.26102 0.24956 0.0
C610 C 0.77243 0.24629 0.28301 0.0
C611 C 0.75318 0.22121 0.28452 0.0
C612 C 0.78759 0.25644 0.31671 0.0
C613 C 0.7986 0.28693 0.24551 0.0
C614 C 0.8057 0.23645 0.33638 0.0
C615 C 0.81954 0.24566 0.36842 0.0
C616 C 0.81553 0.27513 0.38166 0.0
C617 C 0.79726 0.29508 0.36189 0.0
C618 C 0.78335 0.28579 0.32991 0.0
H619 H 0.806 0.28974 0.21708 0.0
H620 H 0.78728 0.30807 0.25394 0.0
H621 H 0.81882 0.2837 0.26263 0.0
H622 H 0.80913 0.21361 0.32695 0.0
H623 H 0.83287 0.22942 0.38319 0.0
H624 H 0.80315 0.65223 0.15763 0.0
H625 H 0.79323 0.67996 0.21338 0.0
H626 H 0.8086 0.7638 0.15769 0.0
H627 H 0.81783 0.73623 0.10159 0.0
H628 H 0.8248 0.71922 0.25487 0.0
H629 H 0.72467 0.77635 0.19762 0.0
H630 H 0.74339 0.74564 0.17499 0.0
H631 H 0.75865 0.78312 0.17264 0.0
C632 C 0.80482 0.67655 0.15731 0.0
C633 C 0.81108 0.69201 0.12506 0.0
C634 C 0.79906 0.6924 0.18924 0.0
C635 C 0.79944 0.72403 0.18963 0.0
C636 C 0.80736 0.73945 0.15791 0.0
H637 H 0.79094 0.83077 0.38872 0.0
H638 H 0.80718 0.80699 0.33253 0.0
C639 C 0.81293 0.72362 0.1259 0.0
C640 C 0.79062 0.74074 0.2229 0.0
H641 H 0.73985 0.79174 0.2559 0.0
C642 C 0.80627 0.73513 0.25508 0.0
C643 C 0.76605 0.76111 0.22341 0.0
C644 C 0.747 0.76674 0.19044 0.0
C645 C 0.79818 0.74939 0.28759 0.0
C646 C 0.77418 0.77042 0.28785 0.0
C647 C 0.75845 0.77591 0.25569 0.0
C648 C 0.76417 0.78607 0.3214 0.0
C649 C 0.81486 0.74103 0.32155 0.0
C650 C 0.73424 0.78337 0.33326 0.0
C651 C 0.72468 0.79749 0.36502 0.0
C652 C 0.74482 0.81472 0.38581 0.0
C653 C 0.77466 0.81795 0.3734 0.0
C654 C 0.78416 0.80394 0.34148 0.0
H655 H 0.82655 0.71902 0.3188 0.0
H656 H 0.83216 0.7584 0.32723 0.0
H657 H 0.79933 0.73982 0.345 0.0
H658 H 0.71828 0.76997 0.31813 0.0
H659 H 0.70143 0.79488 0.37327 0.0
H660 H 0.36519 0.79906 0.15799 0.0
H661 H 0.33744 0.78623 0.213 0.0
H662 H 0.25353 0.79493 0.15576 0.0
H663 H 0.28107 0.80791 0.10062 0.0
H664 H 0.25323 0.82065 0.22667 0.0
H665 H 0.29593 0.70314 0.22549 0.0
H666 H 0.32466 0.73159 0.22357 0.0
H667 H 0.29867 0.72769 0.18682 0.0
C668 C 0.34081 0.79872 0.1572 0.0
C669 C 0.32536 0.8044 0.12486 0.0
C670 C 0.325 0.79112 0.18861 0.0
C671 C 0.29344 0.78905 0.1883 0.0
C672 C 0.27788 0.79619 0.15654 0.0
H673 H 0.18488 0.69668 0.35251 0.0
H674 H 0.20673 0.71348 0.29501 0.0
C675 C 0.29368 0.80367 0.12507 0.0
C676 C 0.27676 0.77858 0.22076 0.0
H677 H 0.26841 0.71836 0.2773 0.0
C678 C 0.25645 0.79827 0.23769 0.0
C679 C 0.28057 0.74916 0.23472 0.0
C680 C 0.30091 0.72651 0.2166 0.0
C681 C 0.24056 0.78963 0.26886 0.0
C682 C 0.24529 0.76063 0.28367 0.0
C683 C 0.26492 0.74064 0.26609 0.0
C684 C 0.23103 0.75101 0.31812 0.0
C685 C 0.21869 0.81159 0.28558 0.0
C686 C 0.23756 0.76638 0.35018 0.0
C687 C 0.22516 0.75687 0.3829 0.0
C688 C 0.20604 0.73161 0.38445 0.0
C689 C 0.19932 0.71632 0.35224 0.0
C690 C 0.2119 0.72581 0.31941 0.0
H691 H 0.21136 0.82897 0.26593 0.0
H692 H 0.19847 0.7998 0.29617 0.0
H693 H 0.22982 0.82326 0.3084 0.0
H694 H 0.25261 0.78557 0.34999 0.0
H695 H 0.23052 0.76944 0.40708 0.0
H696 H 0.70471 0.77813 0.60013 0.0
H697 H 0.71391 0.75096 0.65646 0.0
H698 H 0.71273 0.83486 0.71489 0.0
H699 H 0.70321 0.86215 0.65879 0.0
H700 H 0.76408 0.75902 0.69975 0.0
H701 H 0.65991 0.78118 0.77803 0.0
H702 H 0.66221 0.78702 0.72993 0.0
H703 H 0.67741 0.81454 0.76043 0.0
C704 C 0.70573 0.79075 0.62507 0.0
C705 C 0.7031 0.82232 0.62495 0.0
C706 C 0.71113 0.77518 0.65725 0.0
C707 C 0.71377 0.7908 0.69001 0.0
C708 C 0.7102 0.82223 0.69012 0.0
H709 H 0.76797 0.74855 0.90823 0.0
H710 H 0.75171 0.77188 0.85192 0.0
C711 C 0.70484 0.83782 0.65795 0.0
C712 C 0.72261 0.77455 0.72347 0.0
H713 H 0.70138 0.76074 0.81053 0.0
C714 C 0.75023 0.75914 0.72388 0.0
C715 C 0.70464 0.77487 0.75502 0.0
C716 C 0.67426 0.79005 0.75587 0.0
C717 C 0.76074 0.74473 0.75517 0.0
C718 C 0.74286 0.74519 0.78681 0.0
C719 C 0.7151 0.76038 0.78631 0.0
C720 C 0.75286 0.73064 0.82093 0.0
C721 C 0.79137 0.73001 0.75437 0.0
C722 C 0.75869 0.69957 0.82247 0.0
C723 C 0.76836 0.68616 0.85462 0.0
C724 C 0.77225 0.70351 0.88604 0.0
C725 C 0.76592 0.73456 0.88446 0.0
C726 C 0.7563 0.74793 0.85232 0.0
H727 H 0.8053 0.73832 0.73153 0.0
H728 H 0.80374 0.73414 0.77988 0.0
H729 H 0.78858 0.70534 0.7511 0.0
H730 H 0.75564 0.68563 0.79881 0.0
H731 H 0.77306 0.66224 0.85476 0.0
H732 H 0.23445 0.69345 0.60769 0.0
H733 H 0.26062 0.70303 0.66444 0.0
H734 H 0.17627 0.7268 0.71476 0.0
H735 H 0.14984 0.71661 0.65821 0.0
H736 H 0.2644 0.75628 0.69837 0.0
H737 H 0.21274 0.67295 0.79082 0.0
H738 H 0.20853 0.67084 0.7425 0.0
H739 H 0.18553 0.69623 0.76847 0.0
C740 C 0.22135 0.70008 0.63104 0.0
C741 C 0.19001 0.70412 0.62845 0.0
C742 C 0.23638 0.70568 0.66347 0.0
C743 C 0.22046 0.71542 0.69408 0.0
C744 C 0.18903 0.71868 0.69184 0.0
H745 H 0.29807 0.81711 0.87194 0.0
H746 H 0.27184 0.80065 0.81757 0.0
C747 C 0.17393 0.71291 0.65941 0.0
C748 C 0.23708 0.72428 0.72732 0.0
H749 H 0.24205 0.71176 0.81805 0.0
C750 C 0.2596 0.74639 0.72449 0.0
C751 C 0.2311 0.71124 0.76142 0.0
C752 C 0.20837 0.68629 0.76603 0.0
C753 C 0.27595 0.7561 0.75474 0.0
C754 C 0.26921 0.74386 0.78907 0.0
C755 C 0.24704 0.72139 0.79184 0.0
C756 C 0.28505 0.75391 0.82235 0.0
C757 C 0.30067 0.77901 0.74947 0.0
C758 C 0.30063 0.73305 0.8438 0.0
C759 C 0.31533 0.74233 0.87526 0.0
C760 C 0.31472 0.77273 0.88612 0.0
C761 C 0.29896 0.79353 0.8646 0.0
C762 C 0.28419 0.7842 0.83321 0.0
H763 H 0.30873 0.77948 0.7211 0.0
H764 H 0.29186 0.80173 0.75608 0.0
H765 H 0.32013 0.77428 0.76734 0.0
H766 H 0.30144 0.70952 0.83616 0.0
H767 H 0.32665 0.72552 0.89145 0.0
H768 H 0.31148 0.23684 0.5992 0.0
H769 H 0.2995 0.264 0.65483 0.0
H770 H 0.29196 0.17971 0.71177 0.0
H771 H 0.3037 0.15236 0.65623 0.0
H772 H 0.2418 0.21771 0.72019 0.0
H773 H 0.3484 0.27899 0.74729 0.0
H774 H 0.33378 0.28341 0.70246 0.0
H775 H 0.34648 0.24705 0.71724 0.0
C776 C 0.30792 0.22409 0.62373 0.0
C777 C 0.30863 0.19241 0.62327 0.0
C778 C 0.30111 0.23968 0.65554 0.0
C779 C 0.29498 0.22391 0.68754 0.0
C780 C 0.29665 0.19234 0.68741 0.0
H781 H 0.27145 0.28569 0.90614 0.0
H782 H 0.28813 0.2634 0.8493 0.0
C783 C 0.30353 0.17674 0.65566 0.0
C784 C 0.28479 0.2401 0.72047 0.0
H785 H 0.3063 0.2918 0.78363 0.0
C786 C 0.25589 0.23393 0.73406 0.0
C787 C 0.30324 0.26117 0.7386 0.0
C788 C 0.33481 0.26795 0.72593 0.0
C789 C 0.24494 0.24824 0.76523 0.0
C790 C 0.26324 0.26956 0.78313 0.0
C791 C 0.29217 0.27569 0.76963 0.0
C792 C 0.2534 0.28433 0.81713 0.0
C793 C 0.21415 0.23988 0.77932 0.0
C794 C 0.22855 0.30394 0.81788 0.0
C795 C 0.21886 0.31673 0.85049 0.0
C796 C 0.23378 0.30999 0.88292 0.0
C797 C 0.25907 0.29089 0.88179 0.0
C798 C 0.26881 0.2783 0.84927 0.0
H799 H 0.20545 0.21897 0.76663 0.0
H800 H 0.2147 0.23667 0.809 0.0
H801 H 0.19813 0.25839 0.77337 0.0
H802 H 0.21656 0.30921 0.79329 0.0
H803 H 0.19933 0.33134 0.85043 0.0
H804 H 0.68754 0.28823 0.88633 0.0
H805 H 0.71137 0.3035 0.82982 0.0
H806 H 0.74465 0.21319 0.81458 0.0
H807 H 0.71961 0.19732 0.87009 0.0
H808 H 0.76962 0.30409 0.81071 0.0
H809 H 0.7076 0.22914 0.71761 0.0
H810 H 0.69602 0.23484 0.76375 0.0
H811 H 0.72584 0.20881 0.75317 0.0
C812 C 0.69933 0.27137 0.87062 0.0
C813 C 0.70129 0.24138 0.88279 0.0
C814 C 0.71325 0.28027 0.83841 0.0
C815 C 0.72946 0.25944 0.81751 0.0
C816 C 0.73172 0.22958 0.8297 0.0
H817 H 0.86514 0.29847 0.6549 0.0
H818 H 0.83748 0.28877 0.71073 0.0
C819 C 0.71767 0.22061 0.8618 0.0
C820 C 0.74475 0.26919 0.7836 0.0
H821 H 0.75128 0.25329 0.69377 0.0
C822 C 0.76545 0.2931 0.7851 0.0
C823 C 0.73903 0.25524 0.74997 0.0
C824 C 0.71568 0.2308 0.74586 0.0
C825 C 0.78105 0.30292 0.75419 0.0
C826 C 0.77637 0.28802 0.72091 0.0
C827 C 0.75515 0.26458 0.71927 0.0
C828 C 0.79337 0.29604 0.68752 0.0
C829 C 0.80204 0.32948 0.75748 0.0
C830 C 0.77793 0.30306 0.65557 0.0
C831 C 0.79373 0.30831 0.62344 0.0
C832 C 0.82535 0.30664 0.62254 0.0
C833 C 0.84082 0.3003 0.65471 0.0
C834 C 0.825 0.29486 0.68677 0.0
H835 H 0.796 0.34391 0.78087 0.0
H836 H 0.82534 0.32119 0.76172 0.0
H837 H 0.80176 0.34351 0.73271 0.0
H838 H 0.75356 0.30401 0.65535 0.0
H839 H 0.7811 0.31297 0.59913 0.0
H840 H 0.89575 0.57531 0.07923 0.0
H841 H 0.93452 0.53604 0.08276 0.0
H842 H 0.97839 0.57338 0.98908 0.0
H843 H 0.94022 0.61275 0.98587 0.0
H844 H 0.95076 0.49238 0.03752 0.0
H845 H 0.0485 0.5677 0.05629 0.0
H846 H 0.01022 0.58098 0.05972 0.0
H847 H 0.02797 0.57698 0.01626 0.0
C848 C 0.91371 0.57516 0.05946 0.0
C849 C 0.91506 0.59747 0.03257 0.0
C850 C 0.93592 0.55273 0.06154 0.0
C851 C 0.9599 0.55207 0.03671 0.0
C852 C 0.96081 0.5739 1.00934 0.0
H853 H 0.07223 0.3987 0.98141 0.0
H854 H 0.03313 0.43723 0.986 0.0
C855 C 0.93886 0.59644 1.00747 0.0
C856 C 0.98349 0.52813 0.0386 0.0
H857 H 0.05968 0.51696 0.03898 0.0
C858 C 0.97457 0.49778 0.03817 0.0
C859 C 0.01463 0.535 0.04014 0.0
C860 C 0.0259 0.56693 0.04353 0.0
C861 C 0.99582 0.47425 0.03807 0.0
C862 C 0.02699 0.48118 0.03736 0.0
C863 C 0.03588 0.51151 0.03897 0.0
C864 C 0.05074 0.45743 0.03472 0.0
C865 C 0.98455 0.44222 0.03927 0.0
C866 C 0.07445 0.45641 0.05976 0.0
C867 C 0.09716 0.43459 0.05684 0.0
C868 C 0.09664 0.4132 0.02886 0.0
C869 C 0.07301 0.4144 1.0037 0.0
C870 C 0.05051 0.43641 1.0064 0.0
H871 H 0.96174 0.44088 0.05155 0.0
H872 H 0.98294 0.43336 1.01138 0.0
H873 H 0.99999 0.4275 0.05485 0.0
H874 H 0.07532 0.47242 0.08176 0.0
H875 H 0.1149 0.43422 0.07678 0.0
H876 H 0.56068 0.131 0.02129 0.0
H877 H 0.52162 0.09209 0.02398 0.0
H878 H 0.58856 0.02604 0.05251 0.0
H879 H 0.62762 0.06485 0.05047 0.0
H880 H 0.51941 0.03778 0.98252 0.0
H881 H 0.52218 0.01391 0.1294 0.0
H882 H 0.53807 0.04772 0.11012 0.0
H883 H 0.55813 0.01269 0.10712 0.0
C884 C 0.56705 0.10831 0.0287 0.0
C885 C 0.59737 0.10116 0.0358 0.0
C886 C 0.5447 0.08603 0.02999 0.0
C887 C 0.55205 0.05617 0.03884 0.0
C888 C 0.58223 0.04898 0.04614 0.0
H889 H 0.45179 0.88828 0.05786 0.0
H890 H 0.48978 0.92782 0.05787 0.0
C891 C 0.60462 0.07119 0.04463 0.0
C892 C 0.52839 0.03233 0.0391 0.0
H893 H 0.49292 0.98106 0.09332 0.0
C894 C 0.51349 0.02549 1.00678 0.0
C895 C 0.52081 0.01612 0.07069 0.0
C896 C 0.5354 0.02306 0.10642 0.0
C897 C 0.49166 1.00254 1.00501 0.0
C898 C 0.48386 0.98643 0.03669 0.0
C899 C 0.4988 0.99333 0.06903 0.0
C900 C 0.46034 0.96236 0.03682 0.0
C901 C 0.47786 0.99522 0.96892 0.0
C902 C 0.43081 0.96851 0.02553 0.0
C903 C 0.40894 0.94577 0.02504 0.0
C904 C 0.41583 0.91622 0.03632 0.0
C905 C 0.44536 0.91038 0.04844 0.0
C906 C 0.46726 0.93315 0.04871 0.0
H907 H 0.49234 1.00295 0.94628 0.0
H908 H 0.474 0.97064 0.96597 0.0
H909 H 0.45586 1.00688 0.96657 0.0
H910 H 0.42459 0.99099 0.01705 0.0
H911 H 0.38674 0.95146 1.01532 0.0
H912 H 0.45255 0.12726 0.53892 0.0
H913 H 0.49062 0.08766 0.54031 0.0
H914 H 0.42091 0.02026 0.53572 0.0
H915 H 0.38268 0.05973 0.53273 0.0
H916 H 0.5012 0.04216 0.5876 0.0
H917 H 0.47456 0.99435 0.45328 0.0
H918 H 0.45959 0.02994 0.4684 0.0
H919 H 0.44295 0.9952 0.48346 0.0
C920 C 0.44519 0.10407 0.53782 0.0
C921 C 0.41435 0.0969 0.53533 0.0
C922 C 0.46708 0.08137 0.53889 0.0
C923 C 0.45877 0.0509 0.53741 0.0
C924 C 0.428 0.04358 0.53604 0.0
H925 H 0.56122 0.88323 0.53608 0.0
H926 H 0.52193 0.92168 0.53906 0.0
C927 C 0.40607 0.06628 0.53483 0.0
C928 C 0.48237 0.02693 0.53737 0.0
H929 H 0.50976 0.9674 0.48879 0.0
C930 C 0.50309 0.02587 0.56594 0.0
C931 C 0.48498 1.00564 0.50908 0.0
C932 C 0.46454 1.00642 0.47664 0.0
C933 C 0.52598 1.00395 0.56724 0.0
C934 C 0.52853 0.98267 0.53898 0.0
C935 C 0.50776 0.98363 0.51051 0.0
C936 C 0.55272 0.95938 0.5382 0.0
C937 C 0.54693 1.00343 0.59919 0.0
C938 C 0.58321 0.96768 0.53647 0.0
C939 C 0.60582 0.9457 0.53453 0.0
C940 C 0.59848 0.91483 0.53411 0.0
C941 C 0.56785 0.90666 0.53595 0.0
C942 C 0.54528 0.92866 0.53782 0.0
H943 H 0.53742 0.01592 0.62254 0.0
H944 H 0.55179 0.97995 0.60769 0.0
H945 H 0.56854 0.01426 0.5916 0.0
H946 H 0.58953 0.99123 0.53591 0.0
H947 H 0.629 0.95299 0.53245 0.0
H948 H 0.06279 0.62953 0.53101 0.0
H949 H 0.02412 0.59052 0.53464 0.0
H950 H 0.09298 0.52218 0.53769 0.0
H951 H 0.13179 0.56099 0.53547 0.0
H952 H 0.01234 0.54451 0.48799 0.0
H953 H 0.04071 0.49737 0.62202 0.0
H954 H 0.05568 0.53278 0.60622 0.0
H955 H 0.07199 0.49782 0.59133 0.0
C956 C 0.06984 0.60628 0.53308 0.0
C957 C 0.10064 0.59862 0.53312 0.0
C958 C 0.0476 0.58392 0.5349 0.0
C959 C 0.05553 0.55335 0.53702 0.0
C960 C 0.08619 0.54559 0.53687 0.0
H961 H 0.95543 0.38445 0.53286 0.0
H962 H 0.99418 0.42357 0.53462 0.0
C963 C 0.10845 0.56791 0.53511 0.0
C964 C 0.03175 0.52958 0.53802 0.0
H965 H 1.00579 0.46944 0.58672 0.0
C966 C 0.01081 0.52824 0.50972 0.0
C967 C 0.02972 0.50821 0.5663 0.0
C968 C 0.05053 0.50921 0.59837 0.0
C969 C 0.98834 0.50592 0.50858 0.0
C970 C 0.98639 0.48451 0.53678 0.0
C971 C 1.00731 0.4858 0.56508 0.0
C972 C 0.96273 0.46068 0.53733 0.0
C973 C 0.96729 0.50501 0.47673 0.0
C974 C 0.93211 0.46841 0.53915 0.0
C975 C 0.90985 0.44607 0.53844 0.0
C976 C 0.91764 0.41539 0.536 0.0
C977 C 0.94844 0.40771 0.53514 0.0
C978 C 0.9707 0.4301 0.53593 0.0
H979 H 0.97627 0.518 0.45348 0.0
H980 H 0.96318 0.48146 0.46797 0.0
H981 H 0.94535 0.51505 0.48459 0.0
H982 H 0.92539 0.4918 0.54106 0.0
H983 H 0.8865 0.45293 0.53984 0.0
loop_
_geom_bond_atom_site_label_1
_geom_bond_atom_site_label_2
_geom_bond_distance
_geom_bond_site_symmetry_2
_ccdc_geom_bond_type
Co0 N4 2.148 . S
Co0 N10 2.128 . S
Co0 N20 2.194 1_554 S
Co0 O25 2.351 . S
Co0 O26 2.155 . S
Co0 O27 2.096 . S
C1 N4 1.301 . S
C1 N5 1.328 . S
C1 H6 0.930 . S
C2 C3 1.333 . S
C2 N4 1.317 . S
C2 H7 0.930 . S
C3 C2 1.333 . S
C3 N5 1.350 . S
C3 H29 0.931 . S
N4 Co0 2.148 . S
N4 C1 1.301 . S
N4 C2 1.317 . S
N5 C1 1.328 . S
N5 C3 1.350 . S
H6 C1 0.930 . S
H7 C2 0.930 . S
C8 O9 1.224 1_554 S
C8 O27 1.247 . S
O9 C8 1.224 1_556 S
N10 Co0 2.128 . S
N10 C11 1.355 . S
N10 C13 1.311 . S
C11 N10 1.355 . S
C11 C12 1.363 1_554 S
C11 H23 0.929 1_554 S
C12 C11 1.363 1_556 S
C12 N14 1.375 1_556 S
C12 H30 0.931 . S
C13 N10 1.311 . S
C13 N14 1.347 . S
C13 H24 0.929 . S
N14 C12 1.375 1_554 S
N14 C13 1.347 . S
C15 C18 1.365 . S
C15 N20 1.328 . S
C15 H21 0.929 . S
C16 C17 1.362 . S
C16 C19 1.378 . S
C16 H31 0.929 . S
C17 C16 1.362 . S
C17 C18 1.366 . S
C18 C15 1.365 . S
C18 C17 1.366 . S
C18 H32 0.930 . S
C19 C16 1.378 . S
C19 N20 1.315 . S
C19 H22 0.930 . S
N20 Co0 2.194 1_556 S
N20 C15 1.328 . S
N20 C19 1.315 . S
H21 C15 0.929 . S
H22 C19 0.930 . S
H23 C11 0.929 1_556 S
H24 C13 0.929 . S
O25 Co0 2.351 . S
O25 C28 1.244 . S
O26 Co0 2.155 . S
O26 C28 1.240 . S
O27 Co0 2.096 . S
O27 C8 1.247 . S
C28 O25 1.244 . S
C28 O26 1.240 . S
H29 C3 0.931 . S
H30 C12 0.931 . S
H31 C16 0.929 . S
H32 C18 0.930 . S
Co33 N37 2.148 . S
Co33 N43 2.128 . S
Co33 N53 2.194 1_554 S
Co33 O58 2.351 . S
Co33 O59 2.155 . S
Co33 O60 2.096 . S
C34 N37 1.301 . S
C34 N38 1.328 . S
C34 H39 0.930 . S
C35 C36 1.333 . S
C35 N37 1.317 . S
C35 H40 0.930 . S
C36 C35 1.333 . S
C36 N38 1.350 . S
C36 H62 0.931 . S
N37 Co33 2.148 . S
N37 C34 1.301 . S
N37 C35 1.317 . S
N38 C34 1.328 . S
N38 C36 1.350 . S
H39 C34 0.930 . S
H40 C35 0.930 . S
C41 O42 1.224 1_554 S
C41 O60 1.247 . S
O42 C41 1.224 1_556 S
N43 Co33 2.128 . S
N43 C44 1.355 . S
N43 C46 1.311 . S
C44 N43 1.355 . S
C44 C45 1.363 1_554 S
C44 H56 0.929 1_554 S
C45 C44 1.363 1_556 S
C45 N47 1.375 1_556 S
C45 H63 0.931 . S
C46 N43 1.311 . S
C46 N47 1.347 . S
C46 H57 0.929 . S
N47 C45 1.375 1_554 S
N47 C46 1.347 . S
C48 C51 1.365 . S
C48 N53 1.328 . S
C48 H54 0.929 . S
C49 C50 1.362 . S
C49 C52 1.378 . S
C49 H64 0.929 . S
C50 C49 1.362 . S
C50 C51 1.366 . S
C51 C48 1.365 . S
C51 C50 1.366 . S
C51 H65 0.930 . S
C52 C49 1.378 . S
C52 N53 1.315 . S
C52 H55 0.930 . S
N53 Co33 2.194 1_556 S
N53 C48 1.328 . S
N53 C52 1.315 . S
H54 C48 0.929 . S
H55 C52 0.930 . S
H56 C44 0.929 1_556 S
H57 C46 0.929 . S
O58 Co33 2.351 . S
O58 C61 1.244 . S
O59 Co33 2.155 . S
O59 C61 1.240 . S
O60 Co33 2.096 . S
O60 C41 1.247 . S
C61 O58 1.244 . S
C61 O59 1.240 . S
H62 C36 0.931 . S
H63 C45 0.931 . S
H64 C49 0.929 . S
H65 C51 0.930 . S
Co66 N70 2.148 . S
Co66 N76 2.128 . S
Co66 N86 2.194 1_554 S
Co66 O91 2.351 . S
Co66 O92 2.155 . S
Co66 O93 2.096 . S
C67 N70 1.301 . S
C67 N71 1.328 . S
C67 H72 0.930 . S
C68 C69 1.333 . S
C68 N70 1.317 . S
C68 H73 0.930 . S
C69 C68 1.333 . S
C69 N71 1.350 . S
C69 H95 0.931 . S
N70 Co66 2.148 . S
N70 C67 1.301 . S
N70 C68 1.317 . S
N71 C67 1.328 . S
N71 C69 1.350 . S
H72 C67 0.930 . S
H73 C68 0.930 . S
C74 O75 1.224 1_554 S
C74 O93 1.247 . S
O75 C74 1.224 1_556 S
N76 Co66 2.128 . S
N76 C77 1.355 . S
N76 C79 1.311 . S
C77 N76 1.355 . S
C77 C78 1.363 1_554 S
C77 H89 0.929 1_554 S
C78 C77 1.363 1_556 S
C78 N80 1.375 1_556 S
C78 H96 0.931 . S
C79 N76 1.311 . S
C79 N80 1.347 . S
C79 H90 0.929 . S
N80 C78 1.375 1_554 S
N80 C79 1.347 . S
C81 C84 1.365 . S
C81 N86 1.328 . S
C81 H87 0.929 . S
C82 C83 1.362 . S
C82 C85 1.378 . S
C82 H97 0.929 . S
C83 C82 1.362 . S
C83 C84 1.366 . S
C84 C81 1.365 . S
C84 C83 1.366 . S
C84 H98 0.930 . S
C85 C82 1.378 . S
C85 N86 1.315 . S
C85 H88 0.930 . S
N86 Co66 2.194 1_556 S
N86 C81 1.328 . S
N86 C85 1.315 . S
H87 C81 0.929 . S
H88 C85 0.930 . S
H89 C77 0.929 1_556 S
H90 C79 0.929 . S
O91 Co66 2.351 . S
O91 C94 1.244 . S
O92 Co66 2.155 . S
O92 C94 1.240 . S
O93 Co66 2.096 . S
O93 C74 1.247 . S
C94 O91 1.244 . S
C94 O92 1.240 . S
H95 C69 0.931 . S
H96 C78 0.931 . S
H97 C82 0.929 . S
H98 C84 0.930 . S
Co99 N103 2.148 . S
Co99 N109 2.128 . S
Co99 N119 2.194 1_554 S
Co99 O124 2.351 . S
Co99 O125 2.155 . S
Co99 O126 2.096 . S
C100 N103 1.301 . S
C100 N104 1.328 . S
C100 H105 0.930 . S
C101 C102 1.333 . S
C101 N103 1.317 . S
C101 H106 0.930 . S
C102 C101 1.333 . S
C102 N104 1.350 . S
C102 H128 0.931 . S
N103 Co99 2.148 . S
N103 C100 1.301 . S
N103 C101 1.317 . S
N104 C100 1.328 . S
N104 C102 1.350 . S
H105 C100 0.930 . S
H106 C101 0.930 . S
C107 O108 1.224 1_554 S
C107 O126 1.247 . S
O108 C107 1.224 1_556 S
N109 Co99 2.128 . S
N109 C110 1.355 . S
N109 C112 1.311 . S
C110 N109 1.355 . S
C110 C111 1.363 1_554 S
C110 H122 0.929 1_554 S
C111 C110 1.363 1_556 S
C111 N113 1.375 1_556 S
C111 H129 0.931 . S
C112 N109 1.311 . S
C112 N113 1.347 . S
C112 H123 0.929 . S
N113 C111 1.375 1_554 S
N113 C112 1.347 . S
C114 C117 1.365 . S
C114 N119 1.328 . S
C114 H120 0.929 . S
C115 C116 1.362 . S
C115 C118 1.378 . S
C115 H130 0.929 . S
C116 C115 1.362 . S
C116 C117 1.366 . S
C117 C114 1.365 . S
C117 C116 1.366 . S
C117 H131 0.930 . S
C118 C115 1.378 . S
C118 N119 1.315 . S
C118 H121 0.930 . S
N119 Co99 2.194 1_556 S
N119 C114 1.328 . S
N119 C118 1.315 . S
H120 C114 0.929 . S
H121 C118 0.930 . S
H122 C110 0.929 1_556 S
H123 C112 0.929 . S
O124 Co99 2.351 . S
O124 C127 1.244 . S
O125 Co99 2.155 . S
O125 C127 1.240 . S
O126 Co99 2.096 . S
O126 C107 1.247 . S
C127 O124 1.244 . S
C127 O125 1.240 . S
H128 C102 0.931 . S
H129 C111 0.931 . S
H130 C115 0.929 . S
H131 C117 0.930 . S
Co132 N136 2.148 . S
Co132 N142 2.128 . S
Co132 N152 2.194 . S
Co132 O157 2.351 . S
Co132 O158 2.155 . S
Co132 O159 2.096 . S
C133 N136 1.301 . S
C133 N137 1.328 . S
C133 H138 0.930 . S
C134 C135 1.333 . S
C134 N136 1.317 . S
C134 H139 0.930 . S
C135 C134 1.333 . S
C135 N137 1.350 . S
C135 H161 0.931 . S
N136 Co132 2.148 . S
N136 C133 1.301 . S
N136 C134 1.317 . S
N137 C133 1.328 . S
N137 C135 1.350 . S
H138 C133 0.930 . S
H139 C134 0.930 . S
C140 O141 1.224 . S
C140 O159 1.247 . S
O141 C140 1.224 . S
N142 Co132 2.128 . S
N142 C143 1.355 . S
N142 C145 1.311 . S
C143 N142 1.355 . S
C143 C144 1.363 . S
C143 H155 0.929 . S
C144 C143 1.363 . S
C144 N146 1.375 . S
C144 H162 0.931 . S
C145 N142 1.311 . S
C145 N146 1.347 . S
C145 H156 0.929 . S
N146 C144 1.375 . S
N146 C145 1.347 . S
C147 C150 1.365 . S
C147 N152 1.328 . S
C147 H153 0.929 . S
C148 C149 1.362 . S
C148 C151 1.378 . S
C148 H163 0.929 . S
C149 C148 1.362 . S
C149 C150 1.366 . S
C150 C147 1.365 . S
C150 C149 1.366 . S
C150 H164 0.930 . S
C151 C148 1.378 . S
C151 N152 1.315 . S
C151 H154 0.930 . S
N152 Co132 2.194 . S
N152 C147 1.328 . S
N152 C151 1.315 . S
H153 C147 0.929 . S
H154 C151 0.930 . S
H155 C143 0.929 . S
H156 C145 0.929 . S
O157 Co132 2.351 . S
O157 C160 1.244 . S
O158 Co132 2.155 . S
O158 C160 1.240 . S
O159 Co132 2.096 . S
O159 C140 1.247 . S
C160 O157 1.244 . S
C160 O158 1.240 . S
H161 C135 0.931 . S
H162 C144 0.931 . S
H163 C148 0.929 . S
H164 C150 0.930 . S
Co165 N169 2.148 . S
Co165 N175 2.128 . S
Co165 N185 2.194 . S
Co165 O190 2.351 . S
Co165 O191 2.155 . S
Co165 O192 2.096 . S
C166 N169 1.301 . S
C166 N170 1.328 . S
C166 H171 0.930 . S
C167 C168 1.333 . S
C167 N169 1.317 . S
C167 H172 0.930 . S
C168 C167 1.333 . S
C168 N170 1.350 . S
C168 H194 0.931 . S
N169 Co165 2.148 . S
N169 C166 1.301 . S
N169 C167 1.317 . S
N170 C166 1.328 . S
N170 C168 1.350 . S
H171 C166 0.930 . S
H172 C167 0.930 . S
C173 O174 1.224 . S
C173 O192 1.247 . S
O174 C173 1.224 . S
N175 Co165 2.128 . S
N175 C176 1.355 . S
N175 C178 1.311 . S
C176 N175 1.355 . S
C176 C177 1.363 . S
C176 H188 0.929 . S
C177 C176 1.363 . S
C177 N179 1.375 . S
C177 H195 0.931 . S
C178 N175 1.311 . S
C178 N179 1.347 . S
C178 H189 0.929 . S
N179 C177 1.375 . S
N179 C178 1.347 . S
C180 C183 1.365 . S
C180 N185 1.328 . S
C180 H186 0.929 . S
C181 C182 1.362 . S
C181 C184 1.378 . S
C181 H196 0.929 . S
C182 C181 1.362 . S
C182 C183 1.366 . S
C183 C180 1.365 . S
C183 C182 1.366 . S
C183 H197 0.930 . S
C184 C181 1.378 . S
C184 N185 1.315 . S
C184 H187 0.930 . S
N185 Co165 2.194 . S
N185 C180 1.328 . S
N185 C184 1.315 . S
H186 C180 0.929 . S
H187 C184 0.930 . S
H188 C176 0.929 . S
H189 C178 0.929 . S
O190 Co165 2.351 . S
O190 C193 1.244 . S
O191 Co165 2.155 . S
O191 C193 1.240 . S
O192 Co165 2.096 . S
O192 C173 1.247 . S
C193 O190 1.244 . S
C193 O191 1.240 . S
H194 C168 0.931 . S
H195 C177 0.931 . S
H196 C181 0.929 . S
H197 C183 0.930 . S
Co198 N202 2.148 . S
Co198 N208 2.128 . S
Co198 N218 2.194 . S
Co198 O223 2.351 . S
Co198 O224 2.155 . S
Co198 O225 2.096 . S
C199 N202 1.301 . S
C199 N203 1.328 . S
C199 H204 0.930 . S
C200 C201 1.333 . S
C200 N202 1.317 . S
C200 H205 0.930 . S
C201 C200 1.333 . S
C201 N203 1.350 . S
C201 H227 0.931 . S
N202 Co198 2.148 . S
N202 C199 1.301 . S
N202 C200 1.317 . S
N203 C199 1.328 . S
N203 C201 1.350 . S
H204 C199 0.930 . S
H205 C200 0.930 . S
C206 O207 1.224 . S
C206 O225 1.247 . S
O207 C206 1.224 . S
N208 Co198 2.128 . S
N208 C209 1.355 . S
N208 C211 1.311 . S
C209 N208 1.355 . S
C209 C210 1.363 . S
C209 H221 0.929 . S
C210 C209 1.363 . S
C210 N212 1.375 . S
C210 H228 0.931 . S
C211 N208 1.311 . S
C211 N212 1.347 . S
C211 H222 0.929 . S
N212 C210 1.375 . S
N212 C211 1.347 . S
C213 C216 1.365 . S
C213 N218 1.328 . S
C213 H219 0.929 . S
C214 C215 1.362 . S
C214 C217 1.378 . S
C214 H229 0.929 . S
C215 C214 1.362 . S
C215 C216 1.366 . S
C216 C213 1.365 . S
C216 C215 1.366 . S
C216 H230 0.930 . S
C217 C214 1.378 . S
C217 N218 1.315 . S
C217 H220 0.930 . S
N218 Co198 2.194 . S
N218 C213 1.328 . S
N218 C217 1.315 . S
H219 C213 0.929 . S
H220 C217 0.930 . S
H221 C209 0.929 . S
H222 C211 0.929 . S
O223 Co198 2.351 . S
O223 C226 1.244 . S
O224 Co198 2.155 . S
O224 C226 1.240 . S
O225 Co198 2.096 . S
O225 C206 1.247 . S
C226 O223 1.244 . S
C226 O224 1.240 . S
H227 C201 0.931 . S
H228 C210 0.931 . S
H229 C214 0.929 . S
H230 C216 0.930 . S
Co231 N235 2.148 . S
Co231 N241 2.128 . S
Co231 N251 2.194 . S
Co231 O256 2.351 . S
Co231 O257 2.155 . S
Co231 O258 2.096 . S
C232 N235 1.301 . S
C232 N236 1.328 . S
C232 H237 0.930 . S
C233 C234 1.333 . S
C233 N235 1.317 . S
C233 H238 0.930 . S
C234 C233 1.333 . S
C234 N236 1.350 . S
C234 H260 0.931 . S
N235 Co231 2.148 . S
N235 C232 1.301 . S
N235 C233 1.317 . S
N236 C232 1.328 . S
N236 C234 1.350 . S
H237 C232 0.930 . S
H238 C233 0.930 . S
C239 O240 1.224 . S
C239 O258 1.247 . S
O240 C239 1.224 . S
N241 Co231 2.128 . S
N241 C242 1.355 . S
N241 C244 1.311 . S
C242 N241 1.355 . S
C242 C243 1.363 . S
C242 H254 0.929 . S
C243 C242 1.363 . S
C243 N245 1.375 . S
C243 H261 0.931 . S
C244 N241 1.311 . S
C244 N245 1.347 . S
C244 H255 0.929 . S
N245 C243 1.375 . S
N245 C244 1.347 . S
C246 C249 1.365 . S
C246 N251 1.328 . S
C246 H252 0.929 . S
C247 C248 1.362 . S
C247 C250 1.378 . S
C247 H262 0.929 . S
C248 C247 1.362 . S
C248 C249 1.366 . S
C249 C246 1.365 . S
C249 C248 1.366 . S
C249 H263 0.930 . S
C250 C247 1.378 . S
C250 N251 1.315 . S
C250 H253 0.930 . S
N251 Co231 2.194 . S
N251 C246 1.328 . S
N251 C250 1.315 . S
H252 C246 0.929 . S
H253 C250 0.930 . S
H254 C242 0.929 . S
H255 C244 0.929 . S
O256 Co231 2.351 . S
O256 C259 1.244 . S
O257 Co231 2.155 . S
O257 C259 1.240 . S
O258 Co231 2.096 . S
O258 C239 1.247 . S
C259 O256 1.244 . S
C259 O257 1.240 . S
H260 C234 0.931 . S
H261 C243 0.931 . S
H262 C247 0.929 . S
H263 C249 0.930 . S
H264 C272 0.929 . S
H265 C274 0.930 . S
H266 C276 0.930 . S
H267 C279 0.929 . S
H268 C282 0.930 . S
H269 C284 0.960 . S
H270 C284 0.960 . S
H271 C284 0.960 . S
C272 H264 0.929 . S
C272 C273 1.377 . S
C272 C274 1.384 . S
C273 C272 1.377 . S
C273 C279 1.390 1_554 S
C274 H265 0.930 . S
C274 C272 1.384 . S
C274 C275 1.372 . S
C275 C274 1.372 . S
C275 C276 1.400 1_554 S
C275 C280 1.490 . S
C276 H266 0.930 . S
C276 C275 1.400 1_556 S
C276 C279 1.386 . S
H277 C293 0.930 . S
H278 C294 0.931 . S
C279 H267 0.929 . S
C279 C273 1.390 1_556 S
C279 C276 1.386 . S
C280 C275 1.490 . S
C280 C282 1.395 . S
C280 C283 1.403 1_554 S
H281 C287 0.930 . S
C282 H268 0.930 . S
C282 C280 1.395 . S
C282 C285 1.403 . S
C283 C280 1.403 1_556 S
C283 C284 1.524 . S
C283 C287 1.400 . S
C284 H269 0.960 . S
C284 H270 0.960 . S
C284 H271 0.960 . S
C284 C283 1.524 . S
C285 C282 1.403 . S
C285 C286 1.392 . S
C285 C289 1.495 . S
C286 C285 1.392 . S
C286 C287 1.385 1_554 S
C286 C288 1.478 . S
C287 H281 0.930 . S
C287 C283 1.400 . S
C287 C286 1.385 1_556 S
C288 C286 1.478 . S
C288 C290 1.381 . S
C288 C294 1.383 1_554 S
C289 C285 1.495 . S
C289 H295 0.959 . S
C289 H296 0.961 . S
C289 H297 0.960 . S
C290 C288 1.381 . S
C290 C291 1.394 . S
C290 H298 0.930 . S
C291 C290 1.394 . S
C291 C292 1.383 . S
C291 H299 0.929 . S
C292 C291 1.383 . S
C292 C293 1.377 1_554 S
C293 H277 0.930 . S
C293 C292 1.377 1_556 S
C293 C294 1.379 . S
C294 H278 0.931 . S
C294 C288 1.383 1_556 S
C294 C293 1.379 . S
H295 C289 0.959 . S
H296 C289 0.961 . S
H297 C289 0.960 . S
H298 C290 0.930 . S
H299 C291 0.929 . S
H300 C308 0.929 . S
H301 C310 0.930 . S
H302 C312 0.930 . S
H303 C315 0.929 . S
H304 C318 0.930 1_556 S
H305 C320 0.960 . S
H306 C320 0.960 . S
H307 C320 0.960 . S
C308 H300 0.929 . S
C308 C309 1.377 1_556 S
C308 C310 1.384 . S
C309 C308 1.377 1_554 S
C309 C315 1.390 . S
C310 H301 0.930 . S
C310 C308 1.384 . S
C310 C311 1.372 1_556 S
C311 C310 1.372 1_554 S
C311 C312 1.400 . S
C311 C316 1.490 . S
C312 H302 0.930 . S
C312 C311 1.400 . S
C312 C315 1.386 . S
H313 C329 0.930 . S
H314 C330 0.931 . S
C315 H303 0.929 . S
C315 C309 1.390 . S
C315 C312 1.386 . S
C316 C311 1.490 . S
C316 C318 1.395 . S
C316 C319 1.403 . S
H317 C323 0.930 . S
C318 H304 0.930 1_554 S
C318 C316 1.395 . S
C318 C321 1.403 1_554 S
C319 C316 1.403 . S
C319 C320 1.524 . S
C319 C323 1.400 . S
C320 H305 0.960 . S
C320 H306 0.960 . S
C320 H307 0.960 . S
C320 C319 1.524 . S
C321 C318 1.403 1_556 S
C321 C322 1.392 1_556 S
C321 C325 1.495 . S
C322 C321 1.392 1_554 S
C322 C323 1.385 . S
C322 C324 1.478 . S
C323 H317 0.930 . S
C323 C319 1.400 . S
C323 C322 1.385 . S
C324 C322 1.478 . S
C324 C326 1.381 1_554 S
C324 C330 1.383 . S
C325 C321 1.495 . S
C325 H331 0.959 . S
C325 H332 0.961 1_556 S
C325 H333 0.960 . S
C326 C324 1.381 1_556 S
C326 C327 1.394 . S
C326 H334 0.930 . S
C327 C326 1.394 . S
C327 C328 1.383 1_556 S
C327 H335 0.929 . S
C328 C327 1.383 1_554 S
C328 C329 1.377 . S
C329 H313 0.930 . S
C329 C328 1.377 . S
C329 C330 1.379 . S
C330 H314 0.931 . S
C330 C324 1.383 . S
C330 C329 1.379 . S
H331 C325 0.959 . S
H332 C325 0.961 1_554 S
H333 C325 0.960 . S
H334 C326 0.930 . S
H335 C327 0.929 . S
H336 C344 0.929 . S
H337 C346 0.930 . S
H338 C348 0.930 . S
H339 C351 0.929 . S
H340 C354 0.930 . S
H341 C356 0.960 . S
H342 C356 0.960 . S
H343 C356 0.960 . S
C344 H336 0.929 . S
C344 C345 1.377 . S
C344 C346 1.384 . S
C345 C344 1.377 . S
C345 C351 1.390 . S
C346 H337 0.930 . S
C346 C344 1.384 . S
C346 C347 1.372 . S
C347 C346 1.372 . S
C347 C348 1.400 . S
C347 C352 1.490 . S
C348 H338 0.930 . S
C348 C347 1.400 . S
C348 C351 1.386 . S
H349 C365 0.930 . S
H350 C366 0.931 . S
C351 H339 0.929 . S
C351 C345 1.390 . S
C351 C348 1.386 . S
C352 C347 1.490 . S
C352 C354 1.395 1_554 S
C352 C355 1.403 . S
H353 C359 0.930 . S
C354 H340 0.930 . S
C354 C352 1.395 1_556 S
C354 C357 1.403 . S
C355 C352 1.403 . S
C355 C356 1.524 . S
C355 C359 1.400 . S
C356 H341 0.960 . S
C356 H342 0.960 . S
C356 H343 0.960 . S
C356 C355 1.524 . S
C357 C354 1.403 . S
C357 C358 1.392 1_556 S
C357 C361 1.495 . S
C358 C357 1.392 1_554 S
C358 C359 1.385 . S
C358 C360 1.477 1_554 S
C359 H353 0.930 . S
C359 C355 1.400 . S
C359 C358 1.385 . S
C360 C358 1.477 1_556 S
C360 C362 1.381 . S
C360 C366 1.382 1_556 S
C361 C357 1.495 . S
C361 H367 0.959 . S
C361 H368 0.961 . S
C361 H369 0.960 . S
C362 C360 1.381 . S
C362 C363 1.394 . S
C362 H370 0.930 . S
C363 C362 1.394 . S
C363 C364 1.383 1_556 S
C363 H371 0.929 . S
C364 C363 1.383 1_554 S
C364 C365 1.377 . S
C365 H349 0.930 . S
C365 C364 1.377 . S
C365 C366 1.379 . S
C366 H350 0.931 . S
C366 C360 1.382 1_554 S
C366 C365 1.379 . S
H367 C361 0.959 . S
H368 C361 0.961 . S
H369 C361 0.960 . S
H370 C362 0.930 . S
H371 C363 0.929 . S
H372 C380 0.929 . S
H373 C382 0.930 . S
H374 C384 0.930 . S
H375 C387 0.929 . S
H376 C390 0.930 . S
H377 C392 0.960 . S
H378 C392 0.960 . S
H379 C392 0.960 . S
C380 H372 0.929 . S
C380 C381 1.377 . S
C380 C382 1.384 . S
C381 C380 1.377 . S
C381 C387 1.390 1_554 S
C382 H373 0.930 . S
C382 C380 1.384 . S
C382 C383 1.372 . S
C383 C382 1.372 . S
C383 C384 1.400 1_554 S
C383 C388 1.490 . S
C384 H374 0.930 . S
C384 C383 1.400 1_556 S
C384 C387 1.386 . S
H385 C401 0.930 . S
H386 C402 0.931 . S
C387 H375 0.929 . S
C387 C381 1.390 1_556 S
C387 C384 1.386 . S
C388 C383 1.490 . S
C388 C390 1.395 1_554 S
C388 C391 1.403 . S
H389 C395 0.930 . S
C390 H376 0.930 . S
C390 C388 1.395 1_556 S
C390 C393 1.403 . S
C391 C388 1.403 . S
C391 C392 1.524 . S
C391 C395 1.400 . S
C392 H377 0.960 . S
C392 H378 0.960 . S
C392 H379 0.960 . S
C392 C391 1.524 . S
C393 C390 1.403 . S
C393 C394 1.392 1_556 S
C393 C397 1.495 . S
C394 C393 1.392 1_554 S
C394 C395 1.385 . S
C394 C396 1.478 . S
C395 H389 0.930 . S
C395 C391 1.400 . S
C395 C394 1.385 . S
C396 C394 1.478 . S
C396 C398 1.381 . S
C396 C402 1.383 1_554 S
C397 C393 1.495 . S
C397 H403 0.959 . S
C397 H404 0.961 . S
C397 H405 0.954 1_556 S
C398 C396 1.381 . S
C398 C399 1.394 . S
C398 H406 0.930 . S
C399 C398 1.394 . S
C399 C400 1.383 . S
C399 H407 0.929 . S
C400 C399 1.383 . S
C400 C401 1.377 1_554 S
C401 H385 0.930 . S
C401 C400 1.377 1_556 S
C401 C402 1.379 . S
C402 H386 0.931 . S
C402 C396 1.383 1_556 S
C402 C401 1.379 . S
H403 C397 0.959 . S
H404 C397 0.961 . S
H405 C397 0.954 1_554 S
H406 C398 0.930 . S
H407 C399 0.929 . S
H408 C416 0.929 . S
H409 C418 0.930 . S
H410 C420 0.930 . S
H411 C423 0.929 . S
H412 C426 0.930 . S
H413 C428 0.960 . S
H414 C428 0.960 1_455 S
H415 C428 0.960 1_455 S
C416 H408 0.929 . S
C416 C417 1.377 . S
C416 C418 1.384 . S
C417 C416 1.377 . S
C417 C423 1.390 . S
C418 H409 0.930 . S
C418 C416 1.384 . S
C418 C419 1.372 . S
C419 C418 1.372 . S
C419 C420 1.400 . S
C419 C424 1.490 1_455 S
C420 H410 0.930 . S
C420 C419 1.400 . S
C420 C423 1.386 . S
H421 C437 0.930 . S
H422 C438 0.931 . S
C423 H411 0.929 . S
C423 C417 1.390 . S
C423 C420 1.386 . S
C424 C419 1.490 1_655 S
C424 C426 1.395 . S
C424 C427 1.403 . S
H425 C431 0.930 . S
C426 H412 0.930 . S
C426 C424 1.395 . S
C426 C429 1.403 . S
C427 C424 1.403 . S
C427 C428 1.524 . S
C427 C431 1.400 . S
C428 H413 0.960 . S
C428 H414 0.960 1_655 S
C428 H415 0.960 1_655 S
C428 C427 1.524 . S
C429 C426 1.403 . S
C429 C430 1.392 . S
C429 C433 1.495 . S
C430 C429 1.392 . S
C430 C431 1.385 . S
C430 C432 1.478 . S
C431 H425 0.930 . S
C431 C427 1.400 . S
C431 C430 1.385 . S
C432 C430 1.478 . S
C432 C434 1.381 . S
C432 C438 1.383 . S
C433 C429 1.495 . S
C433 H439 0.959 . S
C433 H440 0.961 . S
C433 H441 0.960 . S
C434 C432 1.381 . S
C434 C435 1.394 . S
C434 H442 0.930 . S
C435 C434 1.394 . S
C435 C436 1.383 . S
C435 H443 0.929 . S
C436 C435 1.383 . S
C436 C437 1.377 . S
C437 H421 0.930 . S
C437 C436 1.377 . S
C437 C438 1.379 . S
C438 H422 0.931 . S
C438 C432 1.383 . S
C438 C437 1.379 . S
H439 C433 0.959 . S
H440 C433 0.961 . S
H441 C433 0.960 . S
H442 C434 0.930 . S
H443 C435 0.929 . S
H444 C452 0.929 . S
H445 C454 0.930 . S
H446 C456 0.930 . S
H447 C459 0.929 . S
H448 C462 0.930 . S
H449 C464 0.960 . S
H450 C464 0.960 1_545 S
H451 C464 0.960 . S
C452 H444 0.929 . S
C452 C453 1.377 . S
C452 C454 1.384 . S
C453 C452 1.377 . S
C453 C459 1.390 . S
C454 H445 0.930 . S
C454 C452 1.384 . S
C454 C455 1.372 . S
C455 C454 1.372 . S
C455 C456 1.400 . S
C455 C460 1.490 1_545 S
C456 H446 0.930 . S
C456 C455 1.400 . S
C456 C459 1.386 . S
H457 C473 0.930 . S
H458 C474 0.931 . S
C459 H447 0.929 . S
C459 C453 1.390 . S
C459 C456 1.386 . S
C460 C455 1.490 1_565 S
C460 C462 1.395 . S
C460 C463 1.403 . S
H461 C467 0.930 . S
C462 H448 0.930 . S
C462 C460 1.395 . S
C462 C465 1.403 . S
C463 C460 1.403 . S
C463 C464 1.524 . S
C463 C467 1.400 . S
C464 H449 0.960 . S
C464 H450 0.960 1_565 S
C464 H451 0.960 . S
C464 C463 1.524 . S
C465 C462 1.403 . S
C465 C466 1.392 . S
C465 C469 1.495 . S
C466 C465 1.392 . S
C466 C467 1.385 . S
C466 C468 1.478 . S
C467 H461 0.930 . S
C467 C463 1.400 . S
C467 C466 1.385 . S
C468 C466 1.478 . S
C468 C470 1.381 . S
C468 C474 1.383 . S
C469 C465 1.495 . S
C469 H475 0.959 . S
C469 H476 0.961 . S
C469 H477 0.960 . S
C470 C468 1.381 . S
C470 C471 1.394 . S
C470 H478 0.930 . S
C471 C470 1.394 . S
C471 C472 1.383 . S
C471 H479 0.929 . S
C472 C471 1.383 . S
C472 C473 1.377 . S
C473 H457 0.930 . S
C473 C472 1.377 . S
C473 C474 1.379 . S
C474 H458 0.931 . S
C474 C468 1.383 . S
C474 C473 1.379 . S
H475 C469 0.959 . S
H476 C469 0.961 . S
H477 C469 0.960 . S
H478 C470 0.930 . S
H479 C471 0.929 . S
H480 C488 0.929 . S
H481 C490 0.930 . S
H482 C492 0.930 . S
H483 C495 0.929 . S
H484 C498 0.930 . S
H485 C500 0.960 . S
H486 C500 0.960 . S
H487 C500 0.960 . S
C488 H480 0.929 . S
C488 C489 1.377 . S
C488 C490 1.384 . S
C489 C488 1.377 . S
C489 C495 1.390 . S
C490 H481 0.930 . S
C490 C488 1.384 . S
C490 C491 1.372 . S
C491 C490 1.372 . S
C491 C492 1.400 . S
C491 C496 1.490 . S
C492 H482 0.930 . S
C492 C491 1.400 . S
C492 C495 1.386 . S
H493 C509 0.930 . S
H494 C510 0.931 . S
C495 H483 0.929 . S
C495 C489 1.390 . S
C495 C492 1.386 . S
C496 C491 1.490 . S
C496 C498 1.395 . S
C496 C499 1.403 . S
H497 C503 0.930 . S
C498 H484 0.930 . S
C498 C496 1.395 . S
C498 C501 1.403 . S
C499 C496 1.403 . S
C499 C500 1.524 . S
C499 C503 1.400 . S
C500 H485 0.960 . S
C500 H486 0.960 . S
C500 H487 0.960 . S
C500 C499 1.524 . S
C501 C498 1.403 . S
C501 C502 1.392 . S
C501 C505 1.495 . S
C502 C501 1.392 . S
C502 C503 1.385 . S
C502 C504 1.478 1_455 S
C503 H497 0.930 . S
C503 C499 1.400 . S
C503 C502 1.385 . S
C504 C502 1.478 1_655 S
C504 C506 1.381 . S
C504 C510 1.383 . S
C505 C501 1.495 . S
C505 H511 0.959 . S
C505 H512 0.961 1_455 S
C505 H513 0.960 1_455 S
C506 C504 1.381 . S
C506 C507 1.394 . S
C506 H514 0.930 . S
C507 C506 1.394 . S
C507 C508 1.383 . S
C507 H515 0.929 . S
C508 C507 1.383 . S
C508 C509 1.377 . S
C509 H493 0.930 . S
C509 C508 1.377 . S
C509 C510 1.379 . S
C510 H494 0.931 . S
C510 C504 1.383 . S
C510 C509 1.379 . S
H511 C505 0.959 . S
H512 C505 0.961 1_655 S
H513 C505 0.960 1_655 S
H514 C506 0.930 . S
H515 C507 0.929 . S
H516 C524 0.929 . S
H517 C526 0.930 . S
H518 C528 0.930 . S
H519 C531 0.929 . S
H520 C534 0.930 . S
H521 C536 0.960 . S
H522 C536 0.960 . S
H523 C536 0.960 . S
C524 H516 0.929 . S
C524 C525 1.377 . S
C524 C526 1.384 . S
C525 C524 1.377 . S
C525 C531 1.390 . S
C526 H517 0.930 . S
C526 C524 1.384 . S
C526 C527 1.372 . S
C527 C526 1.372 . S
C527 C528 1.400 . S
C527 C532 1.490 . S
C528 H518 0.930 . S
C528 C527 1.400 . S
C528 C531 1.386 . S
H529 C545 0.930 . S
H530 C546 0.931 . S
C531 H519 0.929 . S
C531 C525 1.390 . S
C531 C528 1.386 . S
C532 C527 1.490 . S
C532 C534 1.395 . S
C532 C535 1.403 . S
H533 C539 0.930 . S
C534 H520 0.930 . S
C534 C532 1.395 . S
C534 C537 1.403 . S
C535 C532 1.403 . S
C535 C536 1.524 . S
C535 C539 1.400 . S
C536 H521 0.960 . S
C536 H522 0.960 . S
C536 H523 0.960 . S
C536 C535 1.524 . S
C537 C534 1.403 . S
C537 C538 1.392 . S
C537 C541 1.495 . S
C538 C537 1.392 . S
C538 C539 1.385 . S
C538 C540 1.478 1_545 S
C539 H533 0.930 . S
C539 C535 1.400 . S
C539 C538 1.385 . S
C540 C538 1.478 1_565 S
C540 C542 1.381 . S
C540 C546 1.383 . S
C541 C537 1.495 . S
C541 H547 0.959 . S
C541 H548 0.961 . S
C541 H549 0.960 . S
C542 C540 1.381 . S
C542 C543 1.394 . S
C542 H550 0.930 . S
C543 C542 1.394 . S
C543 C544 1.383 . S
C543 H551 0.929 . S
C544 C543 1.383 . S
C544 C545 1.377 . S
C545 H529 0.930 . S
C545 C544 1.377 . S
C545 C546 1.379 . S
C546 H530 0.931 . S
C546 C540 1.383 . S
C546 C545 1.379 . S
H547 C541 0.959 . S
H548 C541 0.961 . S
H549 C541 0.960 . S
H550 C542 0.930 . S
H551 C543 0.929 . S
H552 C560 0.929 . S
H553 C562 0.930 . S
H554 C564 0.930 . S
H555 C567 0.929 . S
H556 C570 0.930 . S
H557 C572 0.960 . S
H558 C572 0.960 . S
H559 C572 0.960 . S
C560 H552 0.929 . S
C560 C561 1.377 . S
C560 C562 1.384 . S
C561 C560 1.377 . S
C561 C567 1.390 . S
C562 H553 0.930 . S
C562 C560 1.384 . S
C562 C563 1.372 . S
C563 C562 1.372 . S
C563 C564 1.400 . S
C563 C568 1.490 . S
C564 H554 0.930 . S
C564 C563 1.400 . S
C564 C567 1.386 . S
H565 C581 0.930 . S
H566 C582 0.931 . S
C567 H555 0.929 . S
C567 C561 1.390 . S
C567 C564 1.386 . S
C568 C563 1.490 . S
C568 C570 1.395 . S
C568 C571 1.403 . S
H569 C575 0.930 . S
C570 H556 0.930 . S
C570 C568 1.395 . S
C570 C573 1.403 . S
C571 C568 1.403 . S
C571 C572 1.524 . S
C571 C575 1.400 . S
C572 H557 0.960 . S
C572 H558 0.960 . S
C572 H559 0.960 . S
C572 C571 1.524 . S
C573 C570 1.403 . S
C573 C574 1.392 . S
C573 C577 1.495 . S
C574 C573 1.392 . S
C574 C575 1.385 . S
C574 C576 1.478 . S
C575 H569 0.930 . S
C575 C571 1.400 . S
C575 C574 1.385 . S
C576 C574 1.478 . S
C576 C578 1.381 . S
C576 C582 1.383 . S
C577 C573 1.495 . S
C577 H583 0.959 . S
C577 H584 0.961 . S
C577 H585 0.960 . S
C578 C576 1.381 . S
C578 C579 1.394 . S
C578 H586 0.930 . S
C579 C578 1.394 . S
C579 C580 1.383 . S
C579 H587 0.929 . S
C580 C579 1.383 . S
C580 C581 1.377 . S
C581 H565 0.930 . S
C581 C580 1.377 . S
C581 C582 1.379 . S
C582 H566 0.931 . S
C582 C576 1.383 . S
C582 C581 1.379 . S
H583 C577 0.959 . S
H584 C577 0.961 . S
H585 C577 0.960 . S
H586 C578 0.930 . S
H587 C579 0.929 . S
H588 C596 0.929 . S
H589 C598 0.930 . S
H590 C600 0.930 . S
H591 C603 0.929 . S
H592 C606 0.930 . S
H593 C608 0.960 . S
H594 C608 0.960 . S
H595 C608 0.960 . S
C596 H588 0.929 . S
C596 C597 1.377 . S
C596 C598 1.384 . S
C597 C596 1.377 . S
C597 C603 1.390 . S
C598 H589 0.930 . S
C598 C596 1.384 . S
C598 C599 1.372 . S
C599 C598 1.372 . S
C599 C600 1.400 . S
C599 C604 1.490 . S
C600 H590 0.930 . S
C600 C599 1.400 . S
C600 C603 1.386 . S
H601 C617 0.930 . S
H602 C618 0.931 . S
C603 H591 0.929 . S
C603 C597 1.390 . S
C603 C600 1.386 . S
C604 C599 1.490 . S
C604 C606 1.395 . S
C604 C607 1.403 . S
H605 C611 0.930 . S
C606 H592 0.930 . S
C606 C604 1.395 . S
C606 C609 1.403 . S
C607 C604 1.403 . S
C607 C608 1.524 . S
C607 C611 1.400 . S
C608 H593 0.960 . S
C608 H594 0.960 . S
C608 H595 0.960 . S
C608 C607 1.524 . S
C609 C606 1.403 . S
C609 C610 1.392 . S
C609 C613 1.495 . S
C610 C609 1.392 . S
C610 C611 1.385 . S
C610 C612 1.478 . S
C611 H605 0.930 . S
C611 C607 1.400 . S
C611 C610 1.385 . S
C612 C610 1.478 . S
C612 C614 1.381 . S
C612 C618 1.383 . S
C613 C609 1.495 . S
C613 H619 0.959 . S
C613 H620 0.961 . S
C613 H621 0.960 . S
C614 C612 1.381 . S
C614 C615 1.394 . S
C614 H622 0.930 . S
C615 C614 1.394 . S
C615 C616 1.383 . S
C615 H623 0.929 . S
C616 C615 1.383 . S
C616 C617 1.377 . S
C617 H601 0.930 . S
C617 C616 1.377 . S
C617 C618 1.379 . S
C618 H602 0.931 . S
C618 C612 1.383 . S
C618 C617 1.379 . S
H619 C613 0.959 . S
H620 C613 0.961 . S
H621 C613 0.960 . S
H622 C614 0.930 . S
H623 C615 0.929 . S
H624 C632 0.929 . S
H625 C634 0.930 . S
H626 C636 0.930 . S
H627 C639 0.929 . S
H628 C642 0.930 . S
H629 C644 0.960 . S
H630 C644 0.960 . S
H631 C644 0.960 . S
C632 H624 0.929 . S
C632 C633 1.377 . S
C632 C634 1.384 . S
C633 C632 1.377 . S
C633 C639 1.390 . S
C634 H625 0.930 . S
C634 C632 1.384 . S
C634 C635 1.372 . S
C635 C634 1.372 . S
C635 C636 1.400 . S
C635 C640 1.490 . S
C636 H626 0.930 . S
C636 C635 1.400 . S
C636 C639 1.386 . S
H637 C653 0.930 . S
H638 C654 0.931 . S
C639 H627 0.929 . S
C639 C633 1.390 . S
C639 C636 1.386 . S
C640 C635 1.490 . S
C640 C642 1.395 . S
C640 C643 1.403 . S
H641 C647 0.930 . S
C642 H628 0.930 . S
C642 C640 1.395 . S
C642 C645 1.403 . S
C643 C640 1.403 . S
C643 C644 1.524 . S
C643 C647 1.400 . S
C644 H629 0.960 . S
C644 H630 0.960 . S
C644 H631 0.960 . S
C644 C643 1.524 . S
C645 C642 1.403 . S
C645 C646 1.392 . S
C645 C649 1.495 . S
C646 C645 1.392 . S
C646 C647 1.385 . S
C646 C648 1.478 . S
C647 H641 0.930 . S
C647 C643 1.400 . S
C647 C646 1.385 . S
C648 C646 1.478 . S
C648 C650 1.381 . S
C648 C654 1.383 . S
C649 C645 1.495 . S
C649 H655 0.959 . S
C649 H656 0.961 . S
C649 H657 0.960 . S
C650 C648 1.381 . S
C650 C651 1.394 . S
C650 H658 0.930 . S
C651 C650 1.394 . S
C651 C652 1.383 . S
C651 H659 0.929 . S
C652 C651 1.383 . S
C652 C653 1.377 . S
C653 H637 0.930 . S
C653 C652 1.377 . S
C653 C654 1.379 . S
C654 H638 0.931 . S
C654 C648 1.383 . S
C654 C653 1.379 . S
H655 C649 0.959 . S
H656 C649 0.961 . S
H657 C649 0.960 . S
H658 C650 0.930 . S
H659 C651 0.929 . S
H660 C668 0.929 . S
H661 C670 0.930 . S
H662 C672 0.930 . S
H663 C675 0.929 . S
H664 C678 0.930 . S
H665 C680 0.960 . S
H666 C680 0.960 . S
H667 C680 0.960 . S
C668 H660 0.929 . S
C668 C669 1.377 . S
C668 C670 1.384 . S
C669 C668 1.377 . S
C669 C675 1.390 . S
C670 H661 0.930 . S
C670 C668 1.384 . S
C670 C671 1.372 . S
C671 C670 1.372 . S
C671 C672 1.400 . S
C671 C676 1.490 . S
C672 H662 0.930 . S
C672 C671 1.400 . S
C672 C675 1.386 . S
H673 C689 0.930 . S
H674 C690 0.931 . S
C675 H663 0.929 . S
C675 C669 1.390 . S
C675 C672 1.386 . S
C676 C671 1.490 . S
C676 C678 1.395 . S
C676 C679 1.403 . S
H677 C683 0.930 . S
C678 H664 0.930 . S
C678 C676 1.395 . S
C678 C681 1.403 . S
C679 C676 1.403 . S
C679 C680 1.524 . S
C679 C683 1.400 . S
C680 H665 0.960 . S
C680 H666 0.960 . S
C680 H667 0.960 . S
C680 C679 1.524 . S
C681 C678 1.403 . S
C681 C682 1.392 . S
C681 C685 1.495 . S
C682 C681 1.392 . S
C682 C683 1.385 . S
C682 C684 1.478 . S
C683 H677 0.930 . S
C683 C679 1.400 . S
C683 C682 1.385 . S
C684 C682 1.478 . S
C684 C686 1.381 . S
C684 C690 1.383 . S
C685 C681 1.495 . S
C685 H691 0.959 . S
C685 H692 0.961 . S
C685 H693 0.960 . S
C686 C684 1.381 . S
C686 C687 1.394 . S
C686 H694 0.930 . S
C687 C686 1.394 . S
C687 C688 1.383 . S
C687 H695 0.929 . S
C688 C687 1.383 . S
C688 C689 1.377 . S
C689 H673 0.930 . S
C689 C688 1.377 . S
C689 C690 1.379 . S
C690 H674 0.931 . S
C690 C684 1.383 . S
C690 C689 1.379 . S
H691 C685 0.959 . S
H692 C685 0.961 . S
H693 C685 0.960 . S
H694 C686 0.930 . S
H695 C687 0.929 . S
H696 C704 0.929 . S
H697 C706 0.930 . S
H698 C708 0.930 . S
H699 C711 0.929 . S
H700 C714 0.930 . S
H701 C716 0.960 . S
H702 C716 0.960 . S
H703 C716 0.960 . S
C704 H696 0.929 . S
C704 C705 1.377 . S
C704 C706 1.384 . S
C705 C704 1.377 . S
C705 C711 1.390 . S
C706 H697 0.930 . S
C706 C704 1.384 . S
C706 C707 1.372 . S
C707 C706 1.372 . S
C707 C708 1.400 . S
C707 C712 1.490 . S
C708 H698 0.930 . S
C708 C707 1.400 . S
C708 C711 1.386 . S
H709 C725 0.930 . S
H710 C726 0.931 . S
C711 H699 0.929 . S
C711 C705 1.390 . S
C711 C708 1.386 . S
C712 C707 1.490 . S
C712 C714 1.395 . S
C712 C715 1.403 . S
H713 C719 0.930 . S
C714 H700 0.930 . S
C714 C712 1.395 . S
C714 C717 1.403 . S
C715 C712 1.403 . S
C715 C716 1.524 . S
C715 C719 1.400 . S
C716 H701 0.960 . S
C716 H702 0.960 . S
C716 H703 0.960 . S
C716 C715 1.524 . S
C717 C714 1.403 . S
C717 C718 1.392 . S
C717 C721 1.495 . S
C718 C717 1.392 . S
C718 C719 1.385 . S
C718 C720 1.478 . S
C719 H713 0.930 . S
C719 C715 1.400 . S
C719 C718 1.385 . S
C720 C718 1.478 . S
C720 C722 1.381 . S
C720 C726 1.383 . S
C721 C717 1.495 . S
C721 H727 0.959 . S
C721 H728 0.961 . S
C721 H729 0.960 . S
C722 C720 1.381 . S
C722 C723 1.394 . S
C722 H730 0.930 . S
C723 C722 1.394 . S
C723 C724 1.383 . S
C723 H731 0.929 . S
C724 C723 1.383 . S
C724 C725 1.377 . S
C725 H709 0.930 . S
C725 C724 1.377 . S
C725 C726 1.379 . S
C726 H710 0.931 . S
C726 C720 1.383 . S
C726 C725 1.379 . S
H727 C721 0.959 . S
H728 C721 0.961 . S
H729 C721 0.960 . S
H730 C722 0.930 . S
H731 C723 0.929 . S
H732 C740 0.929 . S
H733 C742 0.930 . S
H734 C744 0.930 . S
H735 C747 0.929 . S
H736 C750 0.930 . S
H737 C752 0.960 . S
H738 C752 0.960 . S
H739 C752 0.960 . S
C740 H732 0.929 . S
C740 C741 1.377 . S
C740 C742 1.384 . S
C741 C740 1.377 . S
C741 C747 1.390 . S
C742 H733 0.930 . S
C742 C740 1.384 . S
C742 C743 1.372 . S
C743 C742 1.372 . S
C743 C744 1.400 . S
C743 C748 1.490 . S
C744 H734 0.930 . S
C744 C743 1.400 . S
C744 C747 1.386 . S
H745 C761 0.930 . S
H746 C762 0.931 . S
C747 H735 0.929 . S
C747 C741 1.390 . S
C747 C744 1.386 . S
C748 C743 1.490 . S
C748 C750 1.395 . S
C748 C751 1.403 . S
H749 C755 0.930 . S
C750 H736 0.930 . S
C750 C748 1.395 . S
C750 C753 1.403 . S
C751 C748 1.403 . S
C751 C752 1.524 . S
C751 C755 1.400 . S
C752 H737 0.960 . S
C752 H738 0.960 . S
C752 H739 0.960 . S
C752 C751 1.524 . S
C753 C750 1.403 . S
C753 C754 1.392 . S
C753 C757 1.495 . S
C754 C753 1.392 . S
C754 C755 1.385 . S
C754 C756 1.478 . S
C755 H749 0.930 . S
C755 C751 1.400 . S
C755 C754 1.385 . S
C756 C754 1.478 . S
C756 C758 1.381 . S
C756 C762 1.383 . S
C757 C753 1.495 . S
C757 H763 0.959 . S
C757 H764 0.961 . S
C757 H765 0.960 . S
C758 C756 1.381 . S
C758 C759 1.394 . S
C758 H766 0.930 . S
C759 C758 1.394 . S
C759 C760 1.383 . S
C759 H767 0.929 . S
C760 C759 1.383 . S
C760 C761 1.377 . S
C761 H745 0.930 . S
C761 C760 1.377 . S
C761 C762 1.379 . S
C762 H746 0.931 . S
C762 C756 1.383 . S
C762 C761 1.379 . S
H763 C757 0.959 . S
H764 C757 0.961 . S
H765 C757 0.960 . S
H766 C758 0.930 . S
H767 C759 0.929 . S
H768 C776 0.929 . S
H769 C778 0.930 . S
H770 C780 0.930 . S
H771 C783 0.929 . S
H772 C786 0.930 . S
H773 C788 0.960 . S
H774 C788 0.960 . S
H775 C788 0.960 . S
C776 H768 0.929 . S
C776 C777 1.377 . S
C776 C778 1.384 . S
C777 C776 1.377 . S
C777 C783 1.390 . S
C778 H769 0.930 . S
C778 C776 1.384 . S
C778 C779 1.372 . S
C779 C778 1.372 . S
C779 C780 1.400 . S
C779 C784 1.490 . S
C780 H770 0.930 . S
C780 C779 1.400 . S
C780 C783 1.386 . S
H781 C797 0.930 . S
H782 C798 0.931 . S
C783 H771 0.929 . S
C783 C777 1.390 . S
C783 C780 1.386 . S
C784 C779 1.490 . S
C784 C786 1.395 . S
C784 C787 1.403 . S
H785 C791 0.930 . S
C786 H772 0.930 . S
C786 C784 1.395 . S
C786 C789 1.403 . S
C787 C784 1.403 . S
C787 C788 1.524 . S
C787 C791 1.400 . S
C788 H773 0.960 . S
C788 H774 0.960 . S
C788 H775 0.960 . S
C788 C787 1.524 . S
C789 C786 1.403 . S
C789 C790 1.392 . S
C789 C793 1.495 . S
C790 C789 1.392 . S
C790 C791 1.385 . S
C790 C792 1.478 . S
C791 H785 0.930 . S
C791 C787 1.400 . S
C791 C790 1.385 . S
C792 C790 1.478 . S
C792 C794 1.381 . S
C792 C798 1.383 . S
C793 C789 1.495 . S
C793 H799 0.959 . S
C793 H800 0.961 . S
C793 H801 0.960 . S
C794 C792 1.381 . S
C794 C795 1.394 . S
C794 H802 0.930 . S
C795 C794 1.394 . S
C795 C796 1.383 . S
C795 H803 0.929 . S
C796 C795 1.383 . S
C796 C797 1.377 . S
C797 H781 0.930 . S
C797 C796 1.377 . S
C797 C798 1.379 . S
C798 H782 0.931 . S
C798 C792 1.383 . S
C798 C797 1.379 . S
H799 C793 0.959 . S
H800 C793 0.961 . S
H801 C793 0.960 . S
H802 C794 0.930 . S
H803 C795 0.929 . S
H804 C812 0.929 . S
H805 C814 0.930 . S
H806 C816 0.930 . S
H807 C819 0.929 . S
H808 C822 0.930 . S
H809 C824 0.960 . S
H810 C824 0.960 . S
H811 C824 0.960 . S
C812 H804 0.929 . S
C812 C813 1.377 . S
C812 C814 1.384 . S
C813 C812 1.377 . S
C813 C819 1.390 . S
C814 H805 0.930 . S
C814 C812 1.384 . S
C814 C815 1.372 . S
C815 C814 1.372 . S
C815 C816 1.400 . S
C815 C820 1.490 . S
C816 H806 0.930 . S
C816 C815 1.400 . S
C816 C819 1.386 . S
H817 C833 0.930 . S
H818 C834 0.931 . S
C819 H807 0.929 . S
C819 C813 1.390 . S
C819 C816 1.386 . S
C820 C815 1.490 . S
C820 C822 1.395 . S
C820 C823 1.403 . S
H821 C827 0.930 . S
C822 H808 0.930 . S
C822 C820 1.395 . S
C822 C825 1.403 . S
C823 C820 1.403 . S
C823 C824 1.524 . S
C823 C827 1.400 . S
C824 H809 0.960 . S
C824 H810 0.960 . S
C824 H811 0.960 . S
C824 C823 1.524 . S
C825 C822 1.403 . S
C825 C826 1.392 . S
C825 C829 1.495 . S
C826 C825 1.392 . S
C826 C827 1.385 . S
C826 C828 1.478 . S
C827 H821 0.930 . S
C827 C823 1.400 . S
C827 C826 1.385 . S
C828 C826 1.478 . S
C828 C830 1.381 . S
C828 C834 1.383 . S
C829 C825 1.495 . S
C829 H835 0.959 . S
C829 H836 0.961 . S
C829 H837 0.960 . S
C830 C828 1.381 . S
C830 C831 1.394 . S
C830 H838 0.930 . S
C831 C830 1.394 . S
C831 C832 1.383 . S
C831 H839 0.929 . S
C832 C831 1.383 . S
C832 C833 1.377 . S
C833 H817 0.930 . S
C833 C832 1.377 . S
C833 C834 1.379 . S
C834 H818 0.931 . S
C834 C828 1.383 . S
C834 C833 1.379 . S
H835 C829 0.959 . S
H836 C829 0.961 . S
H837 C829 0.960 . S
H838 C830 0.930 . S
H839 C831 0.929 . S
H840 C848 0.929 . S
H841 C850 0.930 . S
H842 C852 0.930 . S
H843 C855 0.929 . S
H844 C858 0.930 . S
H845 C860 0.960 . S
H846 C860 0.960 . S
H847 C860 0.960 1_655 S
C848 H840 0.929 . S
C848 C849 1.377 . S
C848 C850 1.384 . S
C849 C848 1.377 . S
C849 C855 1.390 1_554 S
C850 H841 0.930 . S
C850 C848 1.384 . S
C850 C851 1.372 . S
C851 C850 1.372 . S
C851 C852 1.400 1_554 S
C851 C856 1.490 . S
C852 H842 0.930 . S
C852 C851 1.400 1_556 S
C852 C855 1.386 . S
H853 C869 0.930 . S
H854 C870 0.931 . S
C855 H843 0.929 . S
C855 C849 1.390 1_556 S
C855 C852 1.386 . S
C856 C851 1.490 . S
C856 C858 1.395 . S
C856 C859 1.390 1_654 S
H857 C863 0.930 . S
C858 H844 0.930 . S
C858 C856 1.395 . S
C858 C861 1.403 . S
C859 C856 1.390 1_456 S
C859 C860 1.525 . S
C859 C863 1.412 . S
C860 H845 0.960 . S
C860 H846 0.960 . S
C860 H847 0.960 1_455 S
C860 C859 1.525 . S
C861 C858 1.403 . S
C861 C862 1.392 1_655 S
C861 C865 1.495 . S
C862 C861 1.392 1_455 S
C862 C863 1.385 1_554 S
C862 C864 1.478 . S
C863 H857 0.930 . S
C863 C859 1.412 . S
C863 C862 1.385 1_556 S
C864 C862 1.478 . S
C864 C866 1.381 . S
C864 C870 1.383 1_554 S
C865 C861 1.495 . S
C865 H871 0.959 . S
C865 H872 0.961 . S
C865 H873 0.960 1_655 S
C866 C864 1.381 . S
C866 C867 1.394 . S
C866 H874 0.930 . S
C867 C866 1.394 . S
C867 C868 1.383 . S
C867 H875 0.929 . S
C868 C867 1.383 . S
C868 C869 1.377 1_554 S
C869 H853 0.930 . S
C869 C868 1.377 1_556 S
C869 C870 1.379 . S
C870 H854 0.931 . S
C870 C864 1.383 1_556 S
C870 C869 1.379 . S
H871 C865 0.959 . S
H872 C865 0.961 . S
H873 C865 0.960 1_455 S
H874 C866 0.930 . S
H875 C867 0.929 . S
H876 C884 0.929 . S
H877 C886 0.930 . S
H878 C888 0.930 . S
H879 C891 0.929 . S
H880 C894 0.930 . S
H881 C896 0.960 . S
H882 C896 0.960 . S
H883 C896 0.960 . S
C884 H876 0.929 . S
C884 C885 1.377 1_556 S
C884 C886 1.384 . S
C885 C884 1.377 1_554 S
C885 C891 1.390 . S
C886 H877 0.930 . S
C886 C884 1.384 . S
C886 C887 1.372 1_556 S
C887 C886 1.372 1_554 S
C887 C888 1.400 . S
C887 C892 1.490 . S
C888 H878 0.930 . S
C888 C887 1.400 . S
C888 C891 1.386 . S
H889 C905 0.930 . S
H890 C906 0.931 . S
C891 H879 0.929 . S
C891 C885 1.390 . S
C891 C888 1.386 . S
C892 C887 1.490 . S
C892 C894 1.395 1_554 S
C892 C895 1.403 . S
H893 C899 0.930 . S
C894 H880 0.930 . S
C894 C892 1.395 1_556 S
C894 C897 1.403 1_545 S
C895 C892 1.403 . S
C895 C896 1.524 . S
C895 C899 1.400 1_545 S
C896 H881 0.960 . S
C896 H882 0.960 . S
C896 H883 0.960 . S
C896 C895 1.524 . S
C897 C894 1.403 1_565 S
C897 C898 1.392 1_556 S
C897 C901 1.495 . S
C898 C897 1.392 1_554 S
C898 C899 1.385 . S
C898 C900 1.478 . S
C899 H893 0.930 . S
C899 C895 1.400 1_565 S
C899 C898 1.385 . S
C900 C898 1.478 . S
C900 C902 1.381 1_554 S
C900 C906 1.383 . S
C901 C897 1.495 . S
C901 H907 0.959 . S
C901 H908 0.961 . S
C901 H909 0.960 . S
C902 C900 1.381 1_556 S
C902 C903 1.394 . S
C902 H910 0.930 . S
C903 C902 1.394 . S
C903 C904 1.383 1_556 S
C903 H911 0.929 . S
C904 C903 1.383 1_554 S
C904 C905 1.377 . S
C905 H889 0.930 . S
C905 C904 1.377 . S
C905 C906 1.379 . S
C906 H890 0.931 . S
C906 C900 1.383 . S
C906 C905 1.379 . S
H907 C901 0.959 . S
H908 C901 0.961 . S
H909 C901 0.960 . S
H910 C902 0.930 . S
H911 C903 0.929 . S
H912 C920 0.929 . S
H913 C922 0.930 . S
H914 C924 0.930 . S
H915 C927 0.929 . S
H916 C930 0.930 . S
H917 C932 0.960 . S
H918 C932 0.960 1_545 S
H919 C932 0.960 . S
C920 H912 0.929 . S
C920 C921 1.377 . S
C920 C922 1.384 . S
C921 C920 1.377 . S
C921 C927 1.390 . S
C922 H913 0.930 . S
C922 C920 1.384 . S
C922 C923 1.372 . S
C923 C922 1.372 . S
C923 C924 1.400 . S
C923 C928 1.490 . S
C924 H914 0.930 . S
C924 C923 1.400 . S
C924 C927 1.386 . S
H925 C941 0.930 . S
H926 C942 0.931 . S
C927 H915 0.929 . S
C927 C921 1.390 . S
C927 C924 1.386 . S
C928 C923 1.490 . S
C928 C930 1.395 . S
C928 C931 1.403 1_545 S
H929 C935 0.930 . S
C930 H916 0.930 . S
C930 C928 1.395 . S
C930 C933 1.403 . S
C931 C928 1.403 1_565 S
C931 C932 1.524 . S
C931 C935 1.400 . S
C932 H917 0.960 . S
C932 H918 0.960 1_565 S
C932 H919 0.960 . S
C932 C931 1.524 . S
C933 C930 1.403 . S
C933 C934 1.392 1_545 S
C933 C937 1.495 . S
C934 C933 1.392 1_565 S
C934 C935 1.385 . S
C934 C936 1.478 . S
C935 H929 0.930 . S
C935 C931 1.400 . S
C935 C934 1.385 . S
C936 C934 1.478 . S
C936 C938 1.381 . S
C936 C942 1.383 . S
C937 C933 1.495 . S
C937 H943 0.959 . S
C937 H944 0.961 1_545 S
C937 H945 0.960 . S
C938 C936 1.381 . S
C938 C939 1.394 . S
C938 H946 0.930 . S
C939 C938 1.394 . S
C939 C940 1.383 . S
C939 H947 0.929 . S
C940 C939 1.383 . S
C940 C941 1.377 . S
C941 H925 0.930 . S
C941 C940 1.377 . S
C941 C942 1.379 . S
C942 H926 0.931 . S
C942 C936 1.383 . S
C942 C941 1.379 . S
H943 C937 0.959 . S
H944 C937 0.961 1_565 S
H945 C937 0.960 . S
H946 C938 0.930 . S
H947 C939 0.929 . S
H948 C956 0.929 . S
H949 C958 0.930 . S
H950 C960 0.930 . S
H951 C963 0.929 . S
H952 C966 0.930 . S
H953 C968 0.960 . S
H954 C968 0.960 . S
H955 C968 0.960 1_455 S
C956 H948 0.929 . S
C956 C957 1.377 . S
C956 C958 1.384 . S
C957 C956 1.377 . S
C957 C963 1.390 . S
C958 H949 0.930 . S
C958 C956 1.384 . S
C958 C959 1.372 . S
C959 C958 1.372 . S
C959 C960 1.400 . S
C959 C964 1.490 . S
C960 H950 0.930 . S
C960 C959 1.400 . S
C960 C963 1.386 . S
H961 C977 0.930 . S
H962 C978 0.931 . S
C963 H951 0.929 . S
C963 C957 1.390 . S
C963 C960 1.386 . S
C964 C959 1.490 . S
C964 C966 1.395 . S
C964 C967 1.403 1_455 S
H965 C971 0.930 . S
C966 H952 0.930 . S
C966 C964 1.395 . S
C966 C969 1.403 . S
C967 C964 1.403 1_655 S
C967 C968 1.524 . S
C967 C971 1.400 . S
C968 H953 0.960 . S
C968 H954 0.960 . S
C968 H955 0.960 1_655 S
C968 C967 1.524 . S
C969 C966 1.403 . S
C969 C970 1.392 1_455 S
C969 C973 1.495 . S
C970 C969 1.392 1_655 S
C970 C971 1.385 . S
C970 C972 1.478 . S
C971 H965 0.930 . S
C971 C967 1.400 . S
C971 C970 1.385 . S
C972 C970 1.478 . S
C972 C974 1.381 . S
C972 C978 1.383 . S
C973 C969 1.495 . S
C973 H979 0.959 . S
C973 H980 0.961 . S
C973 H981 0.960 1_455 S
C974 C972 1.381 . S
C974 C975 1.394 . S
C974 H982 0.930 . S
C975 C974 1.394 . S
C975 C976 1.383 . S
C975 H983 0.929 . S
C976 C975 1.383 . S
C976 C977 1.377 . S
C977 H961 0.930 . S
C977 C976 1.377 . S
C977 C978 1.379 . S
C978 H962 0.931 . S
C978 C972 1.383 . S
C978 C977 1.379 . S
H979 C973 0.959 . S
H980 C973 0.961 . S
H981 C973 0.960 1_655 S
H982 C974 0.930 . S
H983 C975 0.929 . S
C273 C41 0.617 . S
C292 N5 0.612 . S
C309 N38 0.639 . S
C328 C74 0.606 . S
C345 N71 0.644 . S
C364 C107 0.621 . S
C381 C8 0.615 . S
C400 N104 0.580 . S
C417 C173 0.614 . S
C436 N137 0.690 . S
C453 C206 0.613 . S
C472 N170 0.661 . S
C489 N203 0.639 . S
C508 C239 0.607 . S
C525 N236 0.634 . S
C544 C140 0.627 . S
C561 C215 1.497 . S
C580 C28 1.525 . S
C597 C61 1.521 . S
C616 C248 1.493 . S
C633 C94 1.516 . S
C652 C149 1.472 . S
C669 C127 1.518 . S
C688 C182 1.473 . S
C705 C160 1.521 . S
C724 C83 1.517 . S
C741 C193 1.519 . S
C760 C116 1.487 . S
C777 C226 1.519 . S
C796 C17 1.506 . S
C813 C50 1.493 . S
C832 C259 1.524 . S
C849 N80 2.349 . S
C868 N14 2.341 . S
C885 N47 2.352 . S
C904 N113 2.350 . S
C921 N212 2.350 . S
C940 N146 2.349 . S
C957 N179 2.352 . S
C976 N245 2.350 . S
