# Generated by pormake.
# Topology snk, (6)-cn, num edge types: 1
# Building blocks:
#     Node 0, Type 0, BuildingBlock: INOVEN_clean_sbu_0, # of connection points: 6
#     Node 1, Type 0, BuildingBlock: INOVEN_clean_sbu_0, # of connection points: 6
#     Node 2, Type 0, BuildingBlock: INOVEN_clean_sbu_0, # of connection points: 6
#     Node 3, Type 0, BuildingBlock: INOVEN_clean_sbu_0, # of connection points: 6
#     Node 4, Type 0, BuildingBlock: INOVEN_clean_sbu_0, # of connection points: 6
#     Node 5, Type 0, BuildingBlock: INOVEN_clean_sbu_0, # of connection points: 6
#     Node 6, Type 0, BuildingBlock: INOVEN_clean_sbu_0, # of connection points: 6
#     Node 7, Type 0, BuildingBlock: INOVEN_clean_sbu_0, # of connection points: 6
#     Edge 8, Type (0, 0), BuildingBlock: TEMPAE_clean_linker_10, # of connection points: 2
#     Edge 9, Type (0, 0), BuildingBlock: TEMPAE_clean_linker_10, # of connection points: 2
#     Edge 10, Type (0, 0), BuildingBlock: TEMPAE_clean_linker_10, # of connection points: 2
#     Edge 11, Type (0, 0), BuildingBlock: TEMPAE_clean_linker_10, # of connection points: 2
#     Edge 12, Type (0, 0), BuildingBlock: TEMPAE_clean_linker_10, # of connection points: 2
#     Edge 13, Type (0, 0), BuildingBlock: TEMPAE_clean_linker_10, # of connection points: 2
#     Edge 14, Type (0, 0), BuildingBlock: TEMPAE_clean_linker_10, # of connection points: 2
#     Edge 15, Type (0, 0), BuildingBlock: TEMPAE_clean_linker_10, # of connection points: 2
#     Edge 16, Type (0, 0), BuildingBlock: TEMPAE_clean_linker_10, # of connection points: 2
#     Edge 17, Type (0, 0), BuildingBlock: TEMPAE_clean_linker_10, # of connection points: 2
#     Edge 18, Type (0, 0), BuildingBlock: TEMPAE_clean_linker_10, # of connection points: 2
#     Edge 19, Type (0, 0), BuildingBlock: TEMPAE_clean_linker_10, # of connection points: 2
#     Edge 20, Type (0, 0), BuildingBlock: TEMPAE_clean_linker_10, # of connection points: 2
#     Edge 21, Type (0, 0), BuildingBlock: TEMPAE_clean_linker_10, # of connection points: 2
#     Edge 22, Type (0, 0), BuildingBlock: TEMPAE_clean_linker_10, # of connection points: 2
#     Edge 23, Type (0, 0), BuildingBlock: TEMPAE_clean_linker_10, # of connection points: 2
#     Edge 24, Type (0, 0), BuildingBlock: TEMPAE_clean_linker_10, # of connection points: 2
#     Edge 25, Type (0, 0), BuildingBlock: TEMPAE_clean_linker_10, # of connection points: 2
#     Edge 26, Type (0, 0), BuildingBlock: TEMPAE_clean_linker_10, # of connection points: 2
#     Edge 27, Type (0, 0), BuildingBlock: TEMPAE_clean_linker_10, # of connection points: 2
#     Edge 28, Type (0, 0), BuildingBlock: TEMPAE_clean_linker_10, # of connection points: 2
#     Edge 29, Type (0, 0), BuildingBlock: TEMPAE_clean_linker_10, # of connection points: 2
#     Edge 30, Type (0, 0), BuildingBlock: TEMPAE_clean_linker_10, # of connection points: 2
#     Edge 31, Type (0, 0), BuildingBlock: TEMPAE_clean_linker_10, # of connection points: 2
# Relax obj value: 0.071
# Max RMSD: 0.138
# Mean RMSD: 0.115
data_MOF--net-snk--node1-INOVEN_clean_sbu_0--edge1-TEMPAE_clean_linker_10
_symmetry_space_group_name_H-M    P1
_symmetry_Int_Tables_number       1
_symmetry_cell_setting            triclinic
loop_
_symmetry_equiv_pos_as_xyz
'x, y, z'
_cell_length_a     38.143346
_cell_length_b     38.121477
_cell_length_c     25.708467
_cell_angle_alpha  96.429854
_cell_angle_beta   96.498217
_cell_angle_gamma 90.748653
loop_
_atom_site_label
_atom_site_type_symbol
_atom_site_fract_x
_atom_site_fract_y
_atom_site_fract_z
_atom_type_partial_charge
Gd0 Gd 0.98973 0.9915 0.45963 0.0
Gd1 Gd 0.02308 0.02316 0.56908 0.0
C2 C 0.05816 0.04626 0.47227 0.0
C3 C 0.96344 0.98077 0.36132 0.0
C4 C 0.97261 0.98659 0.30812 0.0
C5 C 0.97989 0.95748 0.27274 0.0
C6 C 0.97241 0.0204 0.29093 0.0
C7 C 0.98641 0.99558 0.20402 0.0
C8 C 0.97921 0.02481 0.23949 0.0
C9 C 0.98683 0.9619 0.22152 0.0
C10 C 0.03732 0.95112 0.50925 0.0
C11 C 0.95471 0.96831 0.55645 0.0
C12 C 0.0494 0.03421 0.66732 0.0
C13 C 0.04029 0.029 0.7207 0.0
C14 C 0.03791 0.05862 0.75775 0.0
C15 C 0.03548 0.99518 0.73624 0.0
C16 C 0.02691 0.02095 0.82531 0.0
C17 C 0.02885 0.99122 0.78792 0.0
C18 C 0.03118 0.0547 0.80922 0.0
C19 C 0.97543 0.06344 0.51921 0.0
O20 O 0.02932 0.03267 0.44295 0.0
O21 O 0.06491 0.04134 0.52254 0.0
O22 O 0.98154 0.95733 0.38569 0.0
O23 O 0.95646 0.00839 0.39324 0.0
O24 O 0.00898 0.9385 0.48014 0.0
O25 O 0.04006 0.98404 0.50857 0.0
O26 O 0.98349 0.98202 0.58583 0.0
O27 O 0.94799 0.97313 0.50614 0.0
O28 O 0.03154 0.05769 0.64271 0.0
O29 O 0.05599 1.00626 0.63577 0.0
O30 O 1.00377 0.07613 0.54826 0.0
O31 O 0.97279 0.03056 0.52022 0.0
H32 H 0.97976 0.93106 0.28449 0.0
H33 H 0.96672 0.04345 0.31696 0.0
H34 H 0.97898 0.05118 0.22757 0.0
H35 H 0.99172 0.93873 0.19516 0.0
H36 H 0.04158 0.085 0.74698 0.0
H37 H 0.03728 0.97173 0.70877 0.0
H38 H 0.02607 0.9648 0.79887 0.0
H39 H 0.02926 0.07824 0.83641 0.0
Gd40 Gd 0.26938 0.74256 0.71055 0.0
Gd41 Gd 0.24485 0.77274 0.81689 0.0
C42 C 0.20712 0.80096 0.7129 0.0
C43 C 0.27264 0.71315 0.61563 0.0
C44 C 0.27034 0.72275 0.56122 0.0
C45 C 0.30119 0.72542 0.53669 0.0
C46 C 0.2375 0.7275 0.53235 0.0
C47 C 0.2665 0.73714 0.45536 0.0
C48 C 0.23563 0.73469 0.48002 0.0
C49 C 0.29932 0.7327 0.48443 0.0
C50 C 0.30502 0.8011 0.75832 0.0
C51 C 0.30691 0.71414 0.8145 0.0
C52 C 0.24177 0.80216 0.91187 0.0
C53 C 0.24497 0.79271 0.96641 0.0
C54 C 0.21452 0.78786 0.99108 0.0
C55 C 0.27829 0.79029 0.9953 0.0
C56 C 0.25052 0.77844 0.07239 0.0
C57 C 0.281 0.78317 0.04772 0.0
C58 C 0.21725 0.78063 0.04343 0.0
C59 C 0.20915 0.71428 0.76885 0.0
O60 O 0.22213 0.77487 0.68562 0.0
O61 O 0.21571 0.80871 0.76431 0.0
O62 O 0.30054 0.72471 0.64774 0.0
O63 O 0.24359 0.71453 0.63837 0.0
O64 O 0.31909 0.77679 0.72854 0.0
O65 O 0.27257 0.79471 0.75729 0.0
O66 O 0.29204 0.74032 0.84178 0.0
O67 O 0.29824 0.7064 0.76311 0.0
O68 O 0.21389 0.78989 0.88029 0.0
O69 O 0.27056 0.80147 0.88854 0.0
O70 O 0.19506 0.73859 0.79863 0.0
O71 O 0.24162 0.72067 0.77014 0.0
H72 H 0.32684 0.72157 0.55778 0.0
H73 H 0.21315 0.7252 0.54983 0.0
H74 H 0.20991 0.73748 0.45849 0.0
H75 H 0.32362 0.73486 0.46679 0.0
H76 H 0.18851 0.7901 0.97011 0.0
H77 H 0.30233 0.79421 0.97769 0.0
H78 H 0.307 0.78133 0.06894 0.0
H79 H 0.1933 0.77759 0.06164 0.0
Gd80 Gd 0.52164 0.99649 0.06753 0.0
Gd81 Gd 0.49108 0.01966 0.95948 0.0
C82 C 0.46291 0.05847 0.06297 0.0
C83 C 0.55194 0.99539 0.16255 0.0
C84 C 0.54292 0.99797 0.21697 0.0
C85 C 0.51244 0.98134 0.22963 0.0
C86 C 0.56551 0.01736 0.25709 0.0
C87 C 0.52791 1.00275 0.3224 0.0
C88 C 0.55808 0.01981 0.30931 0.0
C89 C 0.50509 0.98359 0.28197 0.0
C90 C 0.46294 0.96059 0.0209 0.0
C91 C 0.54987 0.95771 0.9641 0.0
C92 C 0.46059 0.02087 0.86457 0.0
C93 C 0.46918 0.01821 0.80996 0.0
C94 C 0.50057 0.03292 0.79714 0.0
C95 C 0.44519 1.00074 0.76983 0.0
C96 C 0.48314 0.01373 0.70401 0.0
C97 C 0.45209 0.99845 0.71738 0.0
C98 C 0.50745 0.03077 0.74457 0.0
C99 C 0.5498 0.05549 1.00632 0.0
O100 O 0.4891 0.04389 0.09075 0.0
O101 O 0.45514 0.0493 1.01166 0.0
O102 O 0.54115 0.96685 0.13128 0.0
O103 O 0.54864 0.02422 0.13942 0.0
O104 O 0.48688 0.94696 0.05198 0.0
O105 O 0.46967 0.99286 0.02051 0.0
O106 O 0.5237 0.97228 0.93624 0.0
O107 O 0.55759 0.96689 0.01541 0.0
O108 O 0.47177 0.04935 0.89568 0.0
O109 O 0.46389 0.99202 0.88767 0.0
O110 O 0.52588 0.06922 0.9753 0.0
O111 O 0.54297 0.02323 1.00644 0.0
H112 H 0.49441 0.96653 0.19918 0.0
H113 H 0.58912 0.03043 0.24803 0.0
H114 H 0.57631 0.03448 0.33961 0.0
H115 H 0.48142 0.97055 0.29081 0.0
H116 H 0.51958 0.04634 0.82763 0.0
H117 H 0.42096 0.98896 0.77907 0.0
H118 H 0.43313 0.98455 0.6873 0.0
H119 H 0.53148 0.04306 0.73562 0.0
Gd120 Gd 0.27251 0.27389 0.31905 0.0
Gd121 Gd 0.24025 0.24086 0.20973 0.0
C122 C 0.2177 0.20545 0.30656 0.0
C123 C 0.28351 0.29986 0.41744 0.0
C124 C 0.27717 0.2906 0.47044 0.0
C125 C 0.30324 0.27362 0.50103 0.0
C126 C 0.24615 0.30061 0.49249 0.0
C127 C 0.26762 0.27705 0.5745 0.0
C128 C 0.24142 0.29387 0.54381 0.0
C129 C 0.29848 0.26683 0.55221 0.0
C130 C 0.31264 0.22663 0.26847 0.0
C131 C 0.29519 0.30921 0.22222 0.0
C132 C 0.22883 0.2149 0.11137 0.0
C133 C 0.23453 0.22413 0.05813 0.0
C134 C 0.20634 0.23639 0.02546 0.0
C135 C 0.26712 0.21878 0.03801 0.0
C136 C 0.24287 0.23729 0.95349 0.0
C137 C 0.27125 0.22537 0.9864 0.0
C138 C 0.21048 0.24303 0.97401 0.0
C139 C 0.20023 0.28819 0.26057 0.0
O140 O 0.23151 0.23418 0.33593 0.0
O141 O 0.22225 0.19887 0.25616 0.0
O142 O 0.30667 0.28145 0.39294 0.0
O143 O 0.25614 0.30749 0.3855 0.0
O144 O 0.32535 0.25489 0.2977 0.0
O145 O 0.27979 0.22378 0.26961 0.0
O146 O 0.28127 0.28053 0.19281 0.0
O147 O 0.29068 0.31579 0.27263 0.0
O148 O 0.20572 0.23318 0.13616 0.0
O149 O 0.25647 0.20751 0.14296 0.0
O150 O 0.18744 0.2599 0.23149 0.0
O151 O 0.23303 0.29095 0.25907 0.0
H152 H 0.32771 0.26605 0.48576 0.0
H153 H 0.22563 0.31405 0.47035 0.0
H154 H 0.21717 0.30182 0.55943 0.0
H155 H 0.31947 0.25435 0.57486 0.0
H156 H 0.18081 0.24051 0.03946 0.0
H157 H 0.28933 0.20894 0.06175 0.0
H158 H 0.29645 0.22023 0.97185 0.0
H159 H 0.18818 0.25269 0.95027 0.0
Gd160 Gd 0.76885 0.24272 0.21169 0.0
Gd161 Gd 0.74389 0.2725 0.31815 0.0
C162 C 0.70695 0.30148 0.21413 0.0
C163 C 0.77277 0.21324 0.11696 0.0
C164 C 0.77074 0.22234 0.06253 0.0
C165 C 0.79672 0.21016 0.03099 0.0
C166 C 0.74282 0.24185 0.04095 0.0
C167 C 0.76653 0.23598 0.95639 0.0
C168 C 0.74074 0.2486 0.98835 0.0
C169 C 0.79471 0.21697 0.9785 0.0
C170 C 0.8047 0.30081 0.26061 0.0
C171 C 0.80576 0.21374 0.31572 0.0
C172 C 0.73989 0.3016 0.41306 0.0
C173 C 0.74257 0.29207 0.46734 0.0
C174 C 0.71593 0.30225 0.49886 0.0
C175 C 0.77167 0.27401 0.48876 0.0
C176 C 0.74762 0.27712 0.57288 0.0
C177 C 0.77419 0.26667 0.54111 0.0
C178 C 0.71836 0.29478 0.55108 0.0
C179 C 0.70813 0.21438 0.26894 0.0
O180 O 0.72199 0.2755 0.18668 0.0
O181 O 0.71523 0.30887 0.26567 0.0
O182 O 0.80046 0.22535 0.14903 0.0
O183 O 0.74353 0.21469 0.13923 0.0
O184 O 0.8187 0.2766 0.23055 0.0
O185 O 0.77217 0.29464 0.25924 0.0
O186 O 0.79081 0.23978 0.34317 0.0
O187 O 0.79736 0.2063 0.26422 0.0
O188 O 0.71229 0.28903 0.38119 0.0
O189 O 0.76896 0.30104 0.39039 0.0
O190 O 0.69399 0.23861 0.29878 0.0
O191 O 0.74066 0.22065 0.27068 0.0
H192 H 0.81848 0.19509 0.0469 0.0
H193 H 0.72235 0.25147 0.0644 0.0
H194 H 0.71851 0.26302 0.9724 0.0
H195 H 0.8153 0.20737 0.95524 0.0
H196 H 0.69338 0.31638 0.4832 0.0
H197 H 0.79261 0.26581 0.46531 0.0
H198 H 0.79687 0.25269 0.55669 0.0
H199 H 0.69768 0.30352 0.57475 0.0
Gd200 Gd 0.77264 0.77374 0.81913 0.0
Gd201 Gd 0.74006 0.74105 0.70958 0.0
C202 C 0.71764 0.7055 0.8065 0.0
C203 C 0.78436 0.79957 0.91755 0.0
C204 C 0.77863 0.79065 0.97081 0.0
C205 C 0.80774 0.79077 1.00952 0.0
C206 C 0.74481 0.78326 0.98443 0.0
C207 C 0.76954 0.77671 0.0748 0.0
C208 C 0.74032 0.77645 0.03589 0.0
C209 C 0.8033 0.78381 0.06074 0.0
C210 C 0.81256 0.72656 0.76793 0.0
C211 C 0.79515 0.80923 0.72223 0.0
C212 C 0.72801 0.71501 0.61127 0.0
C213 C 0.7334 0.72355 0.55777 0.0
C214 C 0.70499 0.71883 0.5177 0.0
C215 C 0.76626 0.73529 0.54543 0.0
C216 C 0.74217 0.73644 0.45323 0.0
C217 C 0.77059 0.74167 0.49372 0.0
C218 C 0.70926 0.72524 0.4662 0.0
C219 C 0.70024 0.78826 0.76103 0.0
O220 O 0.73162 0.73411 0.83598 0.0
O221 O 0.72201 0.69905 0.75601 0.0
O222 O 0.80716 0.78076 0.89293 0.0
O223 O 0.75679 0.80719 0.886 0.0
O224 O 0.82536 0.75472 0.79732 0.0
O225 O 0.77972 0.72374 0.76917 0.0
O226 O 0.78112 0.78065 0.69271 0.0
O227 O 0.79079 0.8157 0.77273 0.0
O228 O 0.70534 0.73396 0.63594 0.0
O229 O 0.7558 0.70765 0.64259 0.0
O230 O 0.68737 0.76009 0.73172 0.0
O231 O 0.73304 0.79101 0.75945 0.0
H232 H 0.83405 0.79665 1.00026 0.0
H233 H 0.72179 0.78289 0.9555 0.0
H234 H 0.71398 0.77072 0.04511 0.0
H235 H 0.82634 0.78474 0.0897 0.0
H236 H 0.67938 0.70989 0.52619 0.0
H237 H 0.78868 0.73921 0.57553 0.0
H238 H 0.7964 0.74999 0.48529 0.0
H239 H 0.68658 0.72156 0.43654 0.0
Gd240 Gd 0.48976 0.49174 0.96001 0.0
Gd241 Gd 0.52314 0.52344 0.06942 0.0
C242 C 0.55822 0.54646 0.9726 0.0
C243 C 0.46348 0.48111 0.86169 0.0
C244 C 0.4727 0.4871 0.80855 0.0
C245 C 0.48452 0.45894 0.77536 0.0
C246 C 0.46788 0.51999 0.78907 0.0
C247 C 0.48638 0.49623 0.70442 0.0
C248 C 0.47466 0.52449 0.73768 0.0
C249 C 0.4914 0.46346 0.72414 0.0
C250 C 0.53739 0.4514 1.00965 0.0
C251 C 0.45474 0.46859 0.05684 0.0
C252 C 0.54941 0.53445 0.16768 0.0
C253 C 0.54017 0.52909 0.221 0.0
C254 C 0.53326 0.55851 0.25605 0.0
C255 C 0.53997 0.49544 0.23863 0.0
C256 C 0.52676 0.52104 0.3256 0.0
C257 C 0.53329 0.49147 0.29027 0.0
C258 C 0.5265 0.55455 0.30749 0.0
C259 C 0.47561 0.56376 0.01944 0.0
O260 O 0.52936 0.53289 0.9433 0.0
O261 O 0.56499 0.54153 0.02286 0.0
O262 O 0.48153 0.45764 0.88608 0.0
O263 O 0.45644 0.50868 0.89368 0.0
O264 O 0.50907 0.43874 0.98053 0.0
O265 O 0.54008 0.48431 1.00893 0.0
O266 O 0.4835 0.48234 0.08621 0.0
O267 O 0.44803 0.47335 1.00651 0.0
O268 O 0.53157 0.55793 0.14301 0.0
O269 O 0.55613 0.50657 0.13608 0.0
O270 O 0.50398 0.57641 0.04846 0.0
O271 O 0.47288 0.53089 0.02053 0.0
H272 H 0.48797 0.43311 0.78873 0.0
H273 H 0.45851 0.54223 0.81328 0.0
H274 H 0.4708 0.55018 0.72402 0.0
H275 H 0.49984 0.44096 0.6995 0.0
H276 H 0.53343 0.5848 0.24382 0.0
H277 H 0.54547 0.47217 0.21289 0.0
H278 H 0.53411 0.4653 0.30287 0.0
H279 H 0.52102 0.57787 0.3331 0.0
Gd280 Gd 0.02229 0.49626 0.56853 0.0
Gd281 Gd 0.99163 0.51934 0.46051 0.0
C282 C 0.96335 0.55804 0.56397 0.0
C283 C 0.05286 0.49532 0.66343 0.0
C284 C 0.04424 0.49814 0.71806 0.0
C285 C 0.01375 0.4819 0.73135 0.0
C286 C 0.06733 0.51727 0.75777 0.0
C287 C 0.03034 0.50294 0.82407 0.0
C288 C 0.06045 0.51973 0.81024 0.0
C289 C 1.00691 0.4842 0.78394 0.0
C290 C 0.96364 0.46025 0.52198 0.0
C291 C 0.05036 0.45733 0.4651 0.0
C292 C 0.96147 0.52055 0.36545 0.0
C293 C 0.97062 0.51812 0.31108 0.0
C294 C 1.00007 0.53639 0.29818 0.0
C295 C 0.94913 0.49727 0.2712 0.0
C296 C 0.98573 0.51367 0.20571 0.0
C297 C 0.95663 0.49498 0.21901 0.0
C298 C 0.00747 0.53429 0.24587 0.0
C299 C 0.05038 0.55523 0.50718 0.0
O300 O 0.98959 0.54355 0.59178 0.0
O301 O 0.95561 0.54884 0.51266 0.0
O302 O 0.04177 0.46675 0.63245 0.0
O303 O 0.04956 0.52409 0.64013 0.0
O304 O 0.98763 0.44667 0.55307 0.0
O305 O 0.9703 0.49253 0.52157 0.0
O306 O 0.02414 0.47188 0.43732 0.0
O307 O 0.05818 0.46657 0.51638 0.0
O308 O 0.97206 0.54907 0.3969 0.0
O309 O 0.96478 0.49166 0.38847 0.0
O310 O 0.0264 0.56893 0.47624 0.0
O311 O 0.04357 0.52297 0.50735 0.0
H312 H 0.99543 0.46715 0.70123 0.0
H313 H 0.09084 0.53023 0.74818 0.0
H314 H 0.07868 0.53492 0.83997 0.0
H315 H 0.98365 0.47072 0.79326 0.0
H316 H 0.01726 0.55239 0.3284 0.0
H317 H 0.92631 0.48295 0.2804 0.0
H318 H 0.93923 0.47914 0.18889 0.0
H319 H 0.03032 0.54862 0.23687 0.0
C320 C 0.11843 0.0727 0.46815 0.0
C321 C 0.08276 0.06822 0.44781 0.0
C322 C 0.14166 0.09362 0.44492 0.0
C323 C 0.12871 0.11125 0.40119 0.0
C324 C 0.09263 0.10696 0.38079 0.0
C325 C 0.07026 0.08521 0.40391 0.0
C326 C 0.18006 0.09687 0.46718 0.0
C327 C 0.07744 0.1259 0.33514 0.0
C328 C 0.17896 0.19337 0.37514 0.0
C329 C 0.19572 0.18088 0.33106 0.0
C330 C 0.15714 0.17104 0.39823 0.0
C331 C 0.15254 0.13502 0.37763 0.0
C332 C 0.16994 0.12207 0.33371 0.0
C333 C 0.19094 0.14526 0.31052 0.0
C334 C 0.13846 0.18623 0.44408 0.0
C335 C 0.16636 0.08372 0.31122 0.0
H336 H 0.12831 0.05948 0.50184 0.0
H337 H 0.04264 0.08216 0.38823 0.0
H338 H 0.19698 0.08921 0.43559 0.0
H339 H 0.18701 0.12473 0.48264 0.0
H340 H 0.18636 0.08009 0.49948 0.0
H341 H 0.04882 0.11985 0.32405 0.0
H342 H 0.08127 0.15485 0.3455 0.0
H343 H 0.09152 0.1184 0.30025 0.0
H344 H 0.18222 0.22095 0.39096 0.0
H345 H 0.20397 0.13538 0.27668 0.0
H346 H 0.14601 0.17203 0.47886 0.0
H347 H 0.10948 0.18257 0.43391 0.0
H348 H 0.14466 0.21483 0.45526 0.0
H349 H 0.17398 0.06663 0.34264 0.0
H350 H 0.18297 0.07741 0.27876 0.0
H351 H 0.13844 0.07702 0.29589 0.0
C352 C 0.09542 0.94363 0.56197 0.0
C353 C 0.06191 0.92997 0.54082 0.0
C354 C 0.11923 0.92332 0.59103 0.0
C355 C 0.10899 0.8888 0.59984 0.0
C356 C 0.07481 0.87526 0.57949 0.0
C357 C 0.05181 0.89591 0.54982 0.0
C358 C 0.15554 0.93856 0.61152 0.0
C359 C 0.0626 0.83889 0.58884 0.0
C360 C 0.17956 0.82189 0.62914 0.0
C361 C 0.18187 0.82339 0.68423 0.0
C362 C 0.15627 0.84331 0.60135 0.0
C363 C 0.13428 0.86645 0.62914 0.0
C364 C 0.13624 0.8679 0.6847 0.0
C365 C 0.1602 0.84655 0.71162 0.0
C366 C 0.15533 0.84126 0.54218 0.0
C367 C 0.11281 0.89179 0.71564 0.0
H368 H 0.10325 0.96999 0.55503 0.0
H369 H 0.02575 0.88544 0.53392 0.0
H370 H 0.16011 0.93879 0.65493 0.0
H371 H 0.17589 0.92173 0.59454 0.0
H372 H 0.1593 0.9659 0.60166 0.0
H373 H 0.03469 0.8329 0.57238 0.0
H374 H 0.07946 0.81866 0.5705 0.0
H375 H 0.0653 0.83649 0.63171 0.0
H376 H 0.1963 0.80425 0.6076 0.0
H377 H 0.16166 0.84775 0.75413 0.0
H378 H 0.16107 0.86775 0.53066 0.0
H379 H 0.12856 0.83283 0.52306 0.0
H380 H 0.17468 0.82248 0.5266 0.0
H381 H 0.11745 0.91965 0.70907 0.0
H382 H 0.11741 0.88972 0.75863 0.0
H383 H 0.08467 0.88503 0.70172 0.0
C384 C 0.36112 0.83452 0.79104 0.0
C385 C 0.32488 0.82974 0.79291 0.0
C386 C 0.38104 0.85914 0.82762 0.0
C387 C 0.36452 0.87798 0.86844 0.0
C388 C 0.32766 0.87408 0.86932 0.0
C389 C 0.30807 0.85098 0.83009 0.0
C390 C 0.41994 0.86418 0.82353 0.0
C391 C 0.30927 0.89235 0.91346 0.0
C392 C 0.42902 0.90446 0.98991 0.0
C393 C 0.43436 0.94048 0.98655 0.0
C394 C 0.40446 0.88426 0.95356 0.0
C395 C 0.3863 0.90021 0.91151 0.0
C396 C 0.39076 0.93687 0.90912 0.0
C397 C 0.41372 0.95683 0.9481 0.0
C398 C 0.39881 0.84563 0.95917 0.0
C399 C 0.37305 0.95461 0.86379 0.0
H400 H 0.37403 0.81869 0.76143 0.0
H401 H 0.27976 0.84835 0.83003 0.0
H402 H 0.42711 0.89273 0.82697 0.0
H403 H 0.43563 0.85284 0.85632 0.0
H404 H 0.4276 0.85122 0.78573 0.0
H405 H 0.28012 0.88876 0.90595 0.0
H406 H 0.31847 0.88134 0.95068 0.0
H407 H 0.31597 0.921 0.91964 0.0
H408 H 0.44437 0.89195 0.02049 0.0
H409 H 0.41674 0.98501 0.947 0.0
H410 H 0.41051 0.82919 0.92749 0.0
H411 H 0.37018 0.83879 0.95496 0.0
H412 H 0.41108 0.83859 0.99778 0.0
H413 H 0.38224 0.94279 0.82642 0.0
H414 H 0.37888 0.98349 0.86838 0.0
H415 H 0.34405 0.95021 0.86 0.0
C416 C 0.44165 0.08606 0.14631 0.0
C417 C 0.44022 0.08365 0.09122 0.0
C418 C 0.42004 0.1092 0.17386 0.0
C419 C 0.39675 0.13097 0.14585 0.0
C420 C 0.39532 0.1289 0.09027 0.0
C421 C 0.41688 0.10506 0.06357 0.0
C422 C 0.42207 0.11025 0.23304 0.0
C423 C 0.37123 0.15208 0.0591 0.0
C424 C 0.31988 0.16904 0.2143 0.0
C425 C 0.33351 0.2025 0.2358 0.0
C426 C 0.33999 0.1456 0.18435 0.0
C427 C 0.37429 0.15616 0.17505 0.0
C428 C 0.38772 0.19034 0.19557 0.0
C429 C 0.36728 0.21298 0.2261 0.0
C430 C 0.32485 0.10927 0.16368 0.0
C431 C 0.42386 0.20289 0.18577 0.0
H432 H 0.45939 0.06948 0.16807 0.0
H433 H 0.41571 0.10349 0.02105 0.0
H434 H 0.43048 0.13707 0.25202 0.0
H435 H 0.39561 0.1045 0.24456 0.0
H436 H 0.44087 0.09094 0.24879 0.0
H437 H 0.37324 0.14733 0.01612 0.0
H438 H 0.34342 0.14733 0.06579 0.0
H439 H 0.37783 0.18029 0.07273 0.0
H440 H 0.29373 0.16093 0.22174 0.0
H441 H 0.37772 0.23901 0.24222 0.0
H442 H 0.34167 0.08893 0.18079 0.0
H443 H 0.32475 0.10474 0.12029 0.0
H444 H 0.29749 0.10543 0.17331 0.0
H445 H 0.44435 0.18635 0.20428 0.0
H446 H 0.42957 0.23092 0.20182 0.0
H447 H 0.42611 0.2 0.14286 0.0
C448 C 0.89443 0.94199 0.56074 0.0
C449 C 0.93014 0.94633 0.58091 0.0
C450 C 0.87121 0.92107 0.58398 0.0
C451 C 0.88421 0.90329 0.62753 0.0
C452 C 0.92033 0.90744 0.64774 0.0
C453 C 0.94269 0.92921 0.62465 0.0
C454 C 0.83275 0.91802 0.56197 0.0
C455 C 0.93557 0.88832 0.69317 0.0
C456 C 0.82218 0.86933 0.7185 0.0
C457 C 0.81715 0.83377 0.69774 0.0
C458 C 0.8432 0.89248 0.69529 0.0
C459 C 0.86036 0.87956 0.65112 0.0
C460 C 0.85549 0.8436 0.63027 0.0
C461 C 0.83367 0.82132 0.6534 0.0
C462 C 0.84702 0.93078 0.718 0.0
C463 C 0.87392 0.82842 0.58414 0.0
H464 H 0.88451 0.95532 0.52719 0.0
H465 H 0.97034 0.93216 0.64019 0.0
H466 H 0.82567 0.89022 0.54634 0.0
H467 H 0.81596 0.92564 0.59373 0.0
H468 H 0.82643 0.93493 0.52984 0.0
H469 H 0.96424 0.8942 0.70406 0.0
H470 H 0.92167 0.89583 0.72823 0.0
H471 H 0.93157 0.85939 0.68269 0.0
H472 H 0.80933 0.87918 0.75253 0.0
H473 H 0.83021 0.79378 0.63739 0.0
H474 H 0.83943 0.948 0.68673 0.0
H475 H 0.87499 0.93731 0.73323 0.0
H476 H 0.83051 0.93711 0.75058 0.0
H477 H 0.86644 0.84284 0.54957 0.0
H478 H 0.86743 0.79991 0.57269 0.0
H479 H 0.90293 0.83179 0.59416 0.0
C480 C 0.96072 0.11861 0.4787 0.0
C481 C 0.95079 0.08445 0.48752 0.0
C482 C 0.93765 0.13917 0.44899 0.0
C483 C 0.9036 0.12543 0.42834 0.0
C484 C 0.89354 0.09081 0.43693 0.0
C485 C 0.9174 0.07061 0.46611 0.0
C486 C 0.94965 0.17568 0.43997 0.0
C487 C 0.85738 0.07534 0.41607 0.0
C488 C 0.83277 0.19207 0.39922 0.0
C489 C 0.83079 0.19101 0.34422 0.0
C490 C 0.85601 0.17058 0.42692 0.0
C491 C 0.87822 0.14771 0.3991 0.0
C492 C 0.87649 0.14658 0.3436 0.0
C493 C 0.85262 0.16807 0.31678 0.0
C494 C 0.85672 0.17231 0.48602 0.0
C495 C 0.90011 0.12294 0.31262 0.0
H496 H 0.98668 0.12923 0.49482 0.0
H497 H 0.9097 0.04417 0.47291 0.0
H498 H 0.94705 0.17822 0.39714 0.0
H499 H 0.93259 0.19572 0.4583 0.0
H500 H 0.97749 0.18184 0.45665 0.0
H501 H 0.8538 0.0479 0.42562 0.0
H502 H 0.83685 0.09192 0.43306 0.0
H503 H 0.85291 0.07529 0.37268 0.0
H504 H 0.81582 0.20945 0.42076 0.0
H505 H 0.85139 0.16718 0.27432 0.0
H506 H 0.88341 0.18082 0.50543 0.0
H507 H 0.85107 0.1457 0.49719 0.0
H508 H 0.83721 0.1909 0.5016 0.0
H509 H 0.9282 0.12992 0.32659 0.0
H510 H 0.89548 0.12504 0.26965 0.0
H511 H 0.89572 0.09502 0.31914 0.0
C512 C 0.65212 0.18091 0.23613 0.0
C513 C 0.68834 0.18581 0.23415 0.0
C514 C 0.63221 0.15631 0.19955 0.0
C515 C 0.6487 0.13757 0.15863 0.0
C516 C 0.68554 0.14157 0.15762 0.0
C517 C 0.70514 0.16471 0.19681 0.0
C518 C 0.59333 0.15118 0.20377 0.0
C519 C 0.70389 0.12333 0.11341 0.0
C520 C 0.59915 0.05896 0.0789 0.0
C521 C 0.5785 0.07544 0.04063 0.0
C522 C 0.6223 0.07877 0.11779 0.0
C523 C 0.62686 0.11544 0.11552 0.0
C524 C 0.60864 0.13153 0.07367 0.0
C525 C 0.58394 0.11146 0.03738 0.0
C526 C 0.64006 0.06091 0.16294 0.0
C527 C 0.61429 0.17018 0.06827 0.0
H528 H 0.63923 0.19664 0.26586 0.0
H529 H 0.73344 0.16743 0.19678 0.0
H530 H 0.57757 0.16254 0.17107 0.0
H531 H 0.58622 0.12261 0.20026 0.0
H532 H 0.58572 0.16406 0.24164 0.0
H533 H 0.73302 0.12734 0.1205 0.0
H534 H 0.69759 0.0946 0.10779 0.0
H535 H 0.69426 0.13394 0.07605 0.0
H536 H 0.596 0.03078 0.07995 0.0
H537 H 0.56855 0.12408 1.00696 0.0
H538 H 0.63105 0.07273 0.20044 0.0
H539 H 0.66907 0.06517 0.16653 0.0
H540 H 0.63409 0.03204 0.15831 0.0
H541 H 0.60256 0.18654 0.09999 0.0
H542 H 0.60205 0.17731 0.02969 0.0
H543 H 0.64293 0.17704 0.07255 0.0
C544 C 0.6932 0.8461 0.81471 0.0
C545 C 0.67942 0.81267 0.79335 0.0
C546 C 0.67305 0.86983 0.84414 0.0
C547 C 0.63857 0.85958 0.85304 0.0
C548 C 0.62497 0.82544 0.83263 0.0
C549 C 0.64546 0.80252 0.80265 0.0
C550 C 0.68837 0.9061 0.86473 0.0
C551 C 0.58862 0.81324 0.84199 0.0
C552 C 0.59569 0.91097 0.9639 0.0
C553 C 0.57259 0.93248 0.93603 0.0
C554 C 0.61729 0.88705 0.93747 0.0
C555 C 0.61615 0.88498 0.88194 0.0
C556 C 0.59312 0.90686 0.85369 0.0
C557 C 0.57145 0.9301 0.88099 0.0
C558 C 0.64108 0.86375 0.96889 0.0
C559 C 0.5914 0.90581 0.79454 0.0
H560 H 0.71949 0.85397 0.80756 0.0
H561 H 0.6349 0.77651 0.78659 0.0
H562 H 0.67179 0.92649 0.84732 0.0
H563 H 0.68826 0.91077 0.90808 0.0
H564 H 0.71583 0.9097 0.85539 0.0
H565 H 0.58272 0.78524 0.82591 0.0
H566 H 0.58614 0.81619 0.88483 0.0
H567 H 0.56839 0.82995 0.82324 0.0
H568 H 0.59663 0.91252 1.00639 0.0
H569 H 0.55389 0.94676 0.85908 0.0
H570 H 0.66897 0.86832 0.96244 0.0
H571 H 0.63433 0.83557 0.95525 0.0
H572 H 0.63891 0.86856 1.01181 0.0
H573 H 0.618 0.91132 0.78331 0.0
H574 H 0.57286 0.92528 0.77862 0.0
H575 H 0.58283 0.87905 0.77549 0.0
C576 C 0.6186 0.57242 0.96789 0.0
C577 C 0.58279 0.56844 0.94815 0.0
C578 C 0.64182 0.59331 0.94461 0.0
C579 C 0.62873 0.61144 0.90147 0.0
C580 C 0.59251 0.60767 0.88171 0.0
C581 C 0.57014 0.58592 0.90483 0.0
C582 C 0.68037 0.59598 0.96614 0.0
C583 C 0.57717 0.62716 0.83675 0.0
C584 C 0.67951 0.6933 0.87578 0.0
C585 C 0.69569 0.68094 0.83106 0.0
C586 C 0.65775 0.67101 0.899 0.0
C587 C 0.65258 0.63514 0.87784 0.0
C588 C 0.6694 0.6223 0.83328 0.0
C589 C 0.69038 0.64546 0.81001 0.0
C590 C 0.6397 0.6861 0.94557 0.0
C591 C 0.66522 0.5841 0.81019 0.0
H592 H 0.62858 0.55882 1.00113 0.0
H593 H 0.54241 0.58326 0.88964 0.0
H594 H 0.69691 0.58833 0.93407 0.0
H595 H 0.68775 0.62369 0.98193 0.0
H596 H 0.68673 0.5789 0.99804 0.0
H597 H 0.54843 0.62159 0.82624 0.0
H598 H 0.58149 0.65603 0.84752 0.0
H599 H 0.59077 0.61968 0.80138 0.0
H600 H 0.6832 0.72077 0.89204 0.0
H601 H 0.70296 0.63568 0.77569 0.0
H602 H 0.64721 0.6714 0.97984 0.0
H603 H 0.61064 0.68302 0.93586 0.0
H604 H 0.64648 0.71453 0.95733 0.0
H605 H 0.67289 0.56667 0.84116 0.0
H606 H 0.68149 0.57781 0.7773 0.0
H607 H 0.63716 0.5778 0.79528 0.0
C608 C 0.68015 0.32322 0.13058 0.0
C609 C 0.6819 0.32415 0.18554 0.0
C610 C 0.65688 0.34461 0.10275 0.0
C611 C 0.63438 0.36723 0.13039 0.0
C612 C 0.63586 0.36824 0.18585 0.0
C613 C 0.65978 0.34686 0.21281 0.0
C614 C 0.65645 0.34303 0.04371 0.0
C615 C 0.61194 0.39164 0.21663 0.0
C616 C 0.59523 0.4443 0.06329 0.0
C617 C 0.56197 0.43035 0.04142 0.0
C618 C 0.61901 0.42416 0.09268 0.0
C619 C 0.60902 0.38946 0.10099 0.0
C620 C 0.57511 0.3756 0.07985 0.0
C621 C 0.5521 0.39612 0.04995 0.0
C622 C 0.65503 0.43978 0.11406 0.0
C623 C 0.56319 0.33899 0.08853 0.0
H624 H 0.69732 0.30603 0.10917 0.0
H625 H 0.66083 0.34764 0.25524 0.0
H626 H 0.62988 0.33439 0.02398 0.0
H627 H 0.66203 0.36971 0.03273 0.0
H628 H 0.67615 0.3246 0.02827 0.0
H629 H 0.61637 0.38943 0.25958 0.0
H630 H 0.61623 0.41961 0.21033 0.0
H631 H 0.58393 0.38451 0.2023 0.0
H632 H 0.60288 0.4708 0.05672 0.0
H633 H 0.52624 0.3854 0.03347 0.0
H634 H 0.67574 0.42336 0.09729 0.0
H635 H 0.65926 0.43973 0.15745 0.0
H636 H 0.65855 0.46727 0.10471 0.0
H637 H 0.58045 0.31908 0.07036 0.0
H638 H 0.53544 0.33273 0.0715 0.0
H639 H 0.56557 0.33636 0.13133 0.0
C640 C 0.92958 0.40415 0.49141 0.0
C641 C 0.93501 0.44012 0.48778 0.0
C642 C 0.90489 0.38394 0.45529 0.0
C643 C 0.88664 0.39982 0.41325 0.0
C644 C 0.89123 0.43643 0.41054 0.0
C645 C 0.91438 0.4564 0.44924 0.0
C646 C 0.89922 0.34535 0.46113 0.0
C647 C 0.87346 0.45408 0.36516 0.0
C648 C 0.86092 0.33403 0.2931 0.0
C649 C 0.82469 0.32933 0.29527 0.0
C650 C 0.881 0.35861 0.32951 0.0
C651 C 0.86467 0.37755 0.37044 0.0
C652 C 0.82784 0.3737 0.37167 0.0
C653 C 0.80807 0.35057 0.33266 0.0
C654 C 0.91987 0.36354 0.32508 0.0
C655 C 0.80966 0.39219 0.41588 0.0
H656 H 0.94496 0.39169 0.52201 0.0
H657 H 0.91753 0.48455 0.44787 0.0
H658 H 0.87058 0.33854 0.45709 0.0
H659 H 0.91083 0.32882 0.42946 0.0
H660 H 0.91156 0.33838 0.49975 0.0
H661 H 0.8795 0.48292 0.36943 0.0
H662 H 0.8824 0.44202 0.32774 0.0
H663 H 0.84445 0.44989 0.36171 0.0
H664 H 0.87368 0.31818 0.26335 0.0
H665 H 0.77978 0.34801 0.33283 0.0
H666 H 0.93565 0.35232 0.35789 0.0
H667 H 0.92707 0.39207 0.32822 0.0
H668 H 0.92739 0.35042 0.28728 0.0
H669 H 0.81966 0.38203 0.45344 0.0
H670 H 0.78055 0.38795 0.40929 0.0
H671 H 0.81573 0.42096 0.42077 0.0
C672 C 0.81981 0.66885 0.71401 0.0
C673 C 0.83346 0.70231 0.7355 0.0
C674 C 0.84001 0.64528 0.68444 0.0
C675 C 0.87443 0.6557 0.67548 0.0
C676 C 0.8879 0.68987 0.69601 0.0
C677 C 0.86736 0.71264 0.72616 0.0
C678 C 0.82484 0.60897 0.66376 0.0
C679 C 0.92417 0.70227 0.68659 0.0
C680 C 0.94179 0.5855 0.64718 0.0
C681 C 0.94058 0.58317 0.59213 0.0
C682 C 0.92009 0.60862 0.67459 0.0
C683 C 0.89693 0.63045 0.64646 0.0
C684 C 0.89571 0.62844 0.59092 0.0
C685 C 0.91735 0.60463 0.56437 0.0
C686 C 0.92189 0.6096 0.73374 0.0
C687 C 0.87179 0.65169 0.55962 0.0
H688 H 0.79356 0.66085 0.72119 0.0
H689 H 0.87783 0.73866 0.74229 0.0
H690 H 0.82491 0.60438 0.6204 0.0
H691 H 0.84154 0.58861 0.68106 0.0
H692 H 0.79741 0.60522 0.67315 0.0
H693 H 0.92995 0.73028 0.70272 0.0
H694 H 0.94451 0.68564 0.70525 0.0
H695 H 0.92661 0.6994 0.64373 0.0
H696 H 0.95944 0.56887 0.66901 0.0
H697 H 0.91636 0.60312 0.52187 0.0
H698 H 0.89533 0.60395 0.74503 0.0
H699 H 0.93035 0.63638 0.75284 0.0
H700 H 0.94054 0.5902 0.74957 0.0
H701 H 0.84393 0.64697 0.56607 0.0
H702 H 0.87396 0.64698 0.51669 0.0
H703 H 0.87842 0.67989 0.57336 0.0
C704 C 0.3218 0.36943 0.21811 0.0
C705 C 0.31721 0.33376 0.19776 0.0
C706 C 0.34283 0.3926 0.19497 0.0
C707 C 0.36047 0.37961 0.15133 0.0
C708 C 0.35607 0.34353 0.13093 0.0
C709 C 0.3342 0.32121 0.15394 0.0
C710 C 0.34617 0.43101 0.21721 0.0
C711 C 0.37501 0.32828 0.08539 0.0
C712 C 0.39457 0.44182 0.06067 0.0
C713 C 0.43017 0.44658 0.0813 0.0
C714 C 0.37137 0.42083 0.08382 0.0
C715 C 0.38428 0.40341 0.12779 0.0
C716 C 0.42028 0.40799 0.1485 0.0
C717 C 0.44262 0.42981 0.12544 0.0
C718 C 0.33304 0.41729 0.06124 0.0
C719 C 0.43542 0.38929 0.19443 0.0
H720 H 0.30859 0.37934 0.25175 0.0
H721 H 0.33107 0.29359 0.13829 0.0
H722 H 0.37403 0.43789 0.23275 0.0
H723 H 0.33859 0.44797 0.18559 0.0
H724 H 0.32939 0.43735 0.24945 0.0
H725 H 0.36899 0.29964 0.07442 0.0
H726 H 0.3675 0.34231 0.05041 0.0
H727 H 0.40395 0.33214 0.09578 0.0
H728 H 0.38472 0.45488 0.0268 0.0
H729 H 0.47018 0.43308 0.14135 0.0
H730 H 0.31595 0.42492 0.09261 0.0
H731 H 0.32631 0.38936 0.04591 0.0
H732 H 0.32676 0.43393 0.02876 0.0
H733 H 0.4212 0.39684 0.22914 0.0
H734 H 0.464 0.3955 0.2057 0.0
H735 H 0.43176 0.36031 0.18429 0.0
C736 C 0.46163 0.61855 0.97755 0.0
C737 C 0.45122 0.58475 0.98733 0.0
C738 C 0.4388 0.63912 0.94748 0.0
C739 C 0.40449 0.62579 0.92754 0.0
C740 C 0.39396 0.5915 0.93704 0.0
C741 C 0.4176 0.57125 0.96649 0.0
C742 C 0.45132 0.67522 0.93738 0.0
C743 C 0.3575 0.57649 0.91698 0.0
C744 C 0.33457 0.6933 0.89826 0.0
C745 C 0.33202 0.69155 0.84313 0.0
C746 C 0.3577 0.67176 0.92605 0.0
C747 C 0.37929 0.6482 0.89821 0.0
C748 C 0.37709 0.64647 0.8426 0.0
C749 C 0.3533 0.66798 0.81569 0.0
C750 C 0.35893 0.67413 0.98527 0.0
C751 C 0.4001 0.62212 0.81159 0.0
H752 H 0.48778 0.62888 0.99319 0.0
H753 H 0.40955 0.54508 0.97402 0.0
H754 H 0.43482 0.69578 0.95573 0.0
H755 H 0.47935 0.68096 0.95336 0.0
H756 H 0.44838 0.67733 0.89442 0.0
H757 H 0.35357 0.54925 0.92714 0.0
H758 H 0.33735 0.59357 0.93401 0.0
H759 H 0.35277 0.57608 0.87355 0.0
H760 H 0.31813 0.71127 0.91986 0.0
H761 H 0.35165 0.66657 0.77314 0.0
H762 H 0.38583 0.68239 1.00403 0.0
H763 H 0.35302 0.64778 0.99717 0.0
H764 H 0.33983 0.69318 1.0009 0.0
H765 H 0.42834 0.62864 0.82506 0.0
H766 H 0.39528 0.62394 0.76855 0.0
H767 H 0.39525 0.59437 0.81861 0.0
C768 C 0.15314 0.68069 0.73647 0.0
C769 C 0.18932 0.68565 0.73425 0.0
C770 C 0.13318 0.65607 0.69996 0.0
C771 C 0.14958 0.63738 0.6589 0.0
C772 C 0.18639 0.64144 0.65767 0.0
C773 C 0.20605 0.66459 0.69677 0.0
C774 C 0.09434 0.65089 0.7044 0.0
C775 C 0.20464 0.6233 0.61328 0.0
C776 C 0.09995 0.55873 0.57943 0.0
C777 C 0.07915 0.5752 0.5413 0.0
C778 C 0.12318 0.57857 0.61818 0.0
C779 C 0.12767 0.61523 0.61589 0.0
C780 C 0.10931 0.63131 0.57413 0.0
C781 C 0.08454 0.61122 0.538 0.0
C782 C 0.14117 0.56071 0.66318 0.0
C783 C 0.11491 0.66996 0.56868 0.0
H784 H 0.14031 0.69639 0.76629 0.0
H785 H 0.23432 0.66737 0.69654 0.0
H786 H 0.07847 0.6622 0.67175 0.0
H787 H 0.08729 0.62231 0.70097 0.0
H788 H 0.0868 0.66378 0.74232 0.0
H789 H 0.23381 0.62686 0.62064 0.0
H790 H 0.19791 0.59466 0.6069 0.0
H791 H 0.19537 0.63446 0.57622 0.0
H792 H 0.09685 0.53054 0.5805 0.0
H793 H 0.06904 0.62382 0.50767 0.0
H794 H 0.13253 0.57268 0.70086 0.0
H795 H 0.17018 0.5648 0.6662 0.0
H796 H 0.13504 0.53188 0.65876 0.0
H797 H 0.10337 0.68633 0.60058 0.0
H798 H 0.10247 0.6771 0.53022 0.0
H799 H 0.14354 0.6768 0.57262 0.0
C800 C 0.19314 0.34601 0.31422 0.0
C801 C 0.17946 0.3125 0.29312 0.0
C802 C 0.17309 0.36963 0.34398 0.0
C803 C 0.1388 0.3592 0.3535 0.0
C804 C 0.12531 0.32496 0.33337 0.0
C805 C 0.14569 0.30215 0.30302 0.0
C806 C 0.18828 0.406 0.36424 0.0
C807 C 0.08918 0.31255 0.34341 0.0
C808 C 0.0964 0.41076 0.46473 0.0
C809 C 0.073 0.43206 0.43694 0.0
C810 C 0.11793 0.38683 0.43816 0.0
C811 C 0.11641 0.38453 0.38256 0.0
C812 C 0.09307 0.40619 0.35439 0.0
C813 C 0.0715 0.42944 0.38183 0.0
C814 C 0.14208 0.36379 0.4695 0.0
C815 C 0.09095 0.4049 0.29517 0.0
H816 H 0.21929 0.35403 0.30661 0.0
H817 H 0.13522 0.27607 0.28719 0.0
H818 H 0.17144 0.42627 0.34698 0.0
H819 H 0.18847 0.41073 0.40763 0.0
H820 H 0.21561 0.40974 0.35444 0.0
H821 H 0.08342 0.28448 0.32763 0.0
H822 H 0.087 0.31562 0.38635 0.0
H823 H 0.06869 0.32904 0.3248 0.0
H824 H 0.09763 0.4125 0.50727 0.0
H825 H 0.05371 0.44592 0.35997 0.0
H826 H 0.16987 0.36853 0.46272 0.0
H827 H 0.1355 0.33554 0.45609 0.0
H828 H 0.1401 0.36868 0.51247 0.0
H829 H 0.1174 0.41054 0.2835 0.0
H830 H 0.07215 0.42416 0.2793 0.0
H831 H 0.08249 0.37803 0.27645 0.0
C832 C 0.9974 0.99107 0.89245 0.0
C833 C 0.02102 0.01698 0.88104 0.0
C834 C 0.99157 0.98737 0.94472 0.0
C835 C 0.00968 0.01014 0.98689 0.0
C836 C 0.03359 0.03627 0.97569 0.0
C837 C 0.03902 0.03929 0.92313 0.0
C838 C 0.96588 0.95914 0.95483 0.0
C839 C 0.05354 0.06105 0.01932 0.0
C840 C 0.97203 0.02242 0.11906 0.0
C841 C 0.99283 0.99992 0.14871 0.0
C842 C 0.97715 0.02592 0.06647 0.0
C843 C 1.0038 1.00658 0.04272 0.0
C844 C 0.02504 0.98403 0.07253 0.0
C845 C 0.01929 0.98096 0.12498 0.0
C846 C 0.95384 0.05018 0.03616 0.0
C847 C 0.05391 0.96311 0.04901 0.0
H848 H 0.98301 0.97395 0.86039 0.0
H849 H 0.0578 0.05898 0.91508 0.0
H850 H 0.97944 0.94097 0.98089 0.0
H851 H 0.94433 0.97139 0.97557 0.0
H852 H 0.95403 0.94342 0.91788 0.0
H853 H 0.07096 0.08014 1.00411 0.0
H854 H 0.03471 0.07605 0.04256 0.0
H855 H 0.06995 0.04571 0.04669 0.0
H856 H 0.95122 0.03684 0.13668 0.0
H857 H 0.03582 0.96386 0.14766 0.0
H858 H 0.93935 0.035 1.0007 0.0
H859 H 0.97024 0.07072 0.02231 0.0
H860 H 0.93436 0.06344 0.06022 0.0
H861 H 0.04259 0.94557 1.01357 0.0
H862 H 0.06807 0.94668 0.07729 0.0
H863 H 0.07333 0.98128 0.03614 0.0
C864 C 0.24102 0.76811 0.37918 0.0
C865 C 0.26446 0.74352 0.39916 0.0
C866 C 0.23858 0.77401 0.326 0.0
C867 C 0.26018 0.75494 0.29209 0.0
C868 C 0.28398 0.73019 0.31201 0.0
C869 C 0.28577 0.72472 0.36528 0.0
C870 C 0.2129 0.80064 0.30611 0.0
C871 C 0.30742 0.70935 0.277 0.0
C872 C 0.23177 0.74624 0.14478 0.0
C873 C 0.25334 0.77202 0.12855 0.0
C874 C 0.23376 0.74035 0.19792 0.0
C875 C 0.25785 0.76081 0.23566 0.0
C876 C 0.27976 0.78682 0.21951 0.0
C877 C 0.27727 0.79209 0.1661 0.0
C878 C 0.21011 0.71224 0.21367 0.0
C879 C 0.30567 0.80922 0.25868 0.0
H880 H 0.22479 0.78303 0.40528 0.0
H881 H 0.30354 0.70528 0.38024 0.0
H882 H 0.22727 0.82161 0.2898 0.0
H883 H 0.19384 0.78764 0.27365 0.0
H884 H 0.19792 0.81319 0.33755 0.0
H885 H 0.32475 0.69137 0.29877 0.0
H886 H 0.29102 0.69339 0.24413 0.0
H887 H 0.32426 0.7276 0.25925 0.0
H888 H 0.21352 0.73042 0.11578 0.0
H889 H 0.29366 0.81237 0.15382 0.0
H890 H 0.19322 0.72418 0.24298 0.0
H891 H 0.22634 0.69225 0.2327 0.0
H892 H 0.19283 0.69863 0.17947 0.0
H893 H 0.29145 0.82423 0.28894 0.0
H894 H 0.32091 0.82822 0.23965 0.0
H895 H 0.32449 0.79209 0.27948 0.0
C896 C 0.46218 0.01744 0.60876 0.0
C897 C 0.4898 0.01224 0.64789 0.0
C898 C 0.46789 0.01594 0.55561 0.0
C899 C 0.50209 0.00928 0.54114 0.0
C900 C 0.53014 1.00417 0.58038 0.0
C901 C 0.52365 1.00566 0.63326 0.0
C902 C 0.43731 0.02157 0.51492 0.0
C903 C 0.56699 0.997 0.56645 0.0
C904 C 0.51056 0.974 0.39902 0.0
C905 C 0.52067 1.00455 0.37818 0.0
C906 C 0.5045 0.97514 0.45202 0.0
C907 C 0.50849 0.00765 0.4849 0.0
C908 C 0.51845 0.03863 0.464 0.0
C909 C 0.52449 0.03669 0.41091 0.0
C910 C 0.49406 0.94152 0.47294 0.0
C911 C 0.52272 0.07383 0.49772 0.0
H912 H 0.43607 0.02312 0.61979 0.0
H913 H 0.54503 1.00118 0.66312 0.0
H914 H 0.44319 0.04451 0.49404 0.0
H915 H 0.43336 0.99814 0.48493 0.0
H916 H 0.41229 0.02629 0.53261 0.0
H917 H 0.58594 0.99387 0.60165 0.0
H918 H 0.56674 0.97262 0.53845 0.0
H919 H 0.57662 0.01898 0.54649 0.0
H920 H 0.508 0.94902 0.37404 0.0
H921 H 0.53191 0.06045 0.39482 0.0
H922 H 0.46825 0.94463 0.48874 0.0
H923 H 0.51374 0.93592 0.50598 0.0
H924 H 0.49201 0.91842 0.44221 0.0
H925 H 0.49759 0.08076 0.51378 0.0
H926 H 0.53056 0.09544 0.47544 0.0
H927 H 0.54303 0.0722 0.53179 0.0
C928 C 0.27763 0.25846 0.88453 0.0
C929 C 0.24665 0.24306 0.89772 0.0
C930 C 0.28132 0.26406 0.83217 0.0
C931 C 0.25338 0.25408 0.79178 0.0
C932 C 0.22209 0.23847 0.80477 0.0
C933 C 0.21915 0.2331 0.85737 0.0
C934 C 0.31512 0.28079 0.82009 0.0
C935 C 0.19169 0.22734 0.76303 0.0
C936 C 0.24916 0.29695 0.66401 0.0
C937 C 0.26329 0.27088 0.62991 0.0
C938 C 0.24582 0.29187 0.71665 0.0
C939 C 0.25683 0.2599 0.73592 0.0
C940 C 0.27093 0.2334 0.70166 0.0
C941 C 0.27398 0.23919 0.64923 0.0
C942 C 0.2307 0.32084 0.75177 0.0
C943 C 0.28281 0.19886 0.72041 0.0
H944 H 0.29889 0.26664 0.91532 0.0
H945 H 0.19533 0.22062 0.86678 0.0
H946 H 0.32748 0.26288 0.79076 0.0
H947 H 0.30932 0.30562 0.8024 0.0
H948 H 0.33445 0.28687 0.8558 0.0
H949 H 0.16907 0.21577 0.77955 0.0
H950 H 0.1824 0.25041 0.74303 0.0
H951 H 0.20053 0.20757 0.73253 0.0
H952 H 0.24127 0.32172 0.64983 0.0
H953 H 0.2845 0.21868 0.62312 0.0
H954 H 0.25026 0.32964 0.78622 0.0
H955 H 0.20699 0.31069 0.76721 0.0
H956 H 0.22321 0.34406 0.73081 0.0
H957 H 0.30365 0.20389 0.75434 0.0
H958 H 0.29332 0.18098 0.68899 0.0
H959 H 0.2604 0.18515 0.7343 0.0
C960 C 0.77137 0.21486 0.86164 0.0
C961 C 0.76379 0.24201 0.89996 0.0
C962 C 0.769 0.22007 0.80822 0.0
C963 C 0.75864 0.2532 0.79265 0.0
C964 C 0.75083 0.28071 0.83103 0.0
C965 C 0.75353 0.27479 0.88424 0.0
C966 C 0.77745 0.19007 0.76841 0.0
C967 C 0.73972 0.31641 0.81588 0.0
C968 C 0.78264 0.27714 0.66139 0.0
C969 C 0.75065 0.27029 0.6289 0.0
C970 C 0.7856 0.27174 0.7148 0.0
C971 C 0.75591 0.25903 0.73612 0.0
C972 C 0.72362 0.2518 0.70344 0.0
C973 C 0.72136 0.25758 0.65023 0.0
C974 C 0.82043 0.27989 0.7485 0.0
C975 C 0.69146 0.23797 0.72468 0.0
H976 H 0.77876 0.18927 0.87335 0.0
H977 H 0.74803 0.29602 0.91368 0.0
H978 H 0.75413 0.1833 0.7389 0.0
H979 H 0.79921 0.19824 0.7468 0.0
H980 H 0.78534 0.166 0.78703 0.0
H981 H 0.73442 0.33495 0.85046 0.0
H982 H 0.76066 0.32827 0.79622 0.0
H983 H 0.71552 0.31346 0.78726 0.0
H984 H 0.80521 0.28739 0.64523 0.0
H985 H 0.6967 0.25188 0.6251 0.0
H986 H 0.83 0.25591 0.76585 0.0
H987 H 0.81693 0.3003 0.78168 0.0
H988 H 0.84102 0.28949 0.72582 0.0
H989 H 0.69742 0.21267 0.74094 0.0
H990 H 0.66838 0.23355 0.69401 0.0
H991 H 0.68414 0.25691 0.75744 0.0
C992 C 0.72996 0.71929 0.3551 0.0
C993 C 0.74668 0.7422 0.39759 0.0
C994 C 0.7333 0.72457 0.30256 0.0
C995 C 0.75403 0.75342 0.29178 0.0
C996 C 0.77121 0.77652 0.33438 0.0
C997 C 0.76734 0.77066 0.38662 0.0
C998 C 0.71464 0.69918 0.2585 0.0
C999 C 0.79357 0.80759 0.32475 0.0
C1000 C 0.78887 0.74916 0.15772 0.0
C1001 C 0.76501 0.77013 0.13002 0.0
C1002 C 0.78561 0.74351 0.21017 0.0
C1003 C 0.75784 0.75926 0.23596 0.0
C1004 C 0.73356 0.78032 0.20818 0.0
C1005 C 0.73737 0.78541 0.15565 0.0
C1006 C 0.81191 0.72064 0.238 0.0
C1007 C 0.70364 0.7977 0.23411 0.0
H1008 H 0.71445 0.69684 0.36289 0.0
H1009 H 0.78006 0.78879 0.41892 0.0
H1010 H 0.69633 0.7137 0.23242 0.0
H1011 H 0.73415 0.68653 0.234 0.0
H1012 H 0.69935 0.67818 0.27337 0.0
H1013 H 0.80538 0.82298 0.36202 0.0
H1014 H 0.81517 0.79829 0.30158 0.0
H1015 H 0.77733 0.82542 0.3012 0.0
H1016 H 0.81004 0.73683 0.13816 0.0
H1017 H 0.71905 0.802 0.13494 0.0
H1018 H 0.798 0.69794 0.25085 0.0
H1019 H 0.82564 0.73597 0.27393 0.0
H1020 H 0.83201 0.71032 0.21255 0.0
H1021 H 0.68669 0.77737 0.24737 0.0
H1022 H 0.68699 0.81325 0.20726 0.0
H1023 H 0.71433 0.81553 0.26962 0.0
C1024 C 0.46919 0.51937 0.61722 0.0
C1025 C 0.4927 0.50052 0.64905 0.0
C1026 C 0.47431 0.52276 0.5646 0.0
C1027 C 0.50371 0.507 0.54306 0.0
C1028 C 0.52765 0.48813 0.57505 0.0
C1029 C 0.52186 0.48511 0.62749 0.0
C1030 C 0.44809 0.54305 0.53193 0.0
C1031 C 0.55945 0.47111 0.55387 0.0
C1032 C 0.50077 0.48869 0.39342 0.0
C1033 C 0.52087 0.51721 0.38135 0.0
C1034 C 0.495 0.48502 0.44572 0.0
C1035 C 0.50958 0.51049 0.48721 0.0
C1036 C 0.52992 0.53928 0.47535 0.0
C1037 C 0.53537 0.54223 0.42278 0.0
C1038 C 0.47317 0.45391 0.45657 0.0
C1039 C 0.54604 0.567 0.51827 0.0
H1040 H 0.44632 0.53097 0.63315 0.0
H1041 H 0.54045 0.47089 0.65185 0.0
H1042 H 0.46177 0.56526 0.51745 0.0
H1043 H 0.43604 0.52562 0.49683 0.0
H1044 H 0.42668 0.55383 0.55447 0.0
H1045 H 0.5755 0.45725 0.58368 0.0
H1046 H 0.55088 0.45181 0.51901 0.0
H1047 H 0.57643 0.49142 0.54065 0.0
H1048 H 0.48907 0.46942 0.36183 0.0
H1049 H 0.55146 0.56404 0.41423 0.0
H1050 H 0.44988 0.46335 0.4758 0.0
H1051 H 0.48891 0.43823 0.48421 0.0
H1052 H 0.46382 0.4363 0.42008 0.0
H1053 H 0.52505 0.57956 0.53993 0.0
H1054 H 0.56092 0.58793 0.50256 0.0
H1055 H 0.56422 0.55452 0.54718 0.0
C1056 C 0.98959 0.50928 0.89461 0.0
C1057 C 0.02377 0.50458 0.88025 0.0
C1058 C 0.98314 0.51075 0.94751 0.0
C1059 C 0.01158 0.50758 0.98703 0.0
C1060 C 0.04613 0.50289 0.97285 0.0
C1061 C 0.05179 0.50134 0.91967 0.0
C1062 C 0.94592 0.51579 0.96113 0.0
C1063 C 0.07713 0.49937 1.01387 0.0
C1064 C 1.0012 0.54294 0.12849 0.0
C1065 C 0.99299 0.51202 0.14995 0.0
C1066 C 0.00725 0.54189 0.07549 0.0
C1067 C 1.0052 0.50911 0.04327 0.0
C1068 C 0.99717 0.47777 0.06481 0.0
C1069 C 0.99109 0.47962 0.11787 0.0
C1070 C 0.0156 0.57589 0.05387 0.0
C1071 C 0.99501 0.44229 0.0318 0.0
H1072 H 0.96787 0.51225 0.86451 0.0
H1073 H 0.0782 0.49713 0.90887 0.0
H1074 H 0.93765 0.49343 0.98151 0.0
H1075 H 0.94476 0.54022 0.98867 0.0
H1076 H 0.92671 0.51763 0.92574 0.0
H1077 H 0.10239 0.49614 0.99638 0.0
H1078 H 0.07967 0.52309 0.04342 0.0
H1079 H 0.07274 0.47626 0.03522 0.0
H1080 H 1.00226 0.56809 0.15296 0.0
H1081 H 0.98514 0.4556 0.13446 0.0
H1082 H 0.99552 0.58012 0.02058 0.0
H1083 H 0.04155 0.57424 0.03825 0.0
H1084 H 0.0163 0.59917 0.08415 0.0
H1085 H 0.97454 0.44251 0.99755 0.0
H1086 H 0.98856 0.42042 0.05455 0.0
H1087 H 0.02052 0.43683 0.016 0.0
loop_
_geom_bond_atom_site_label_1
_geom_bond_atom_site_label_2
_geom_bond_distance
_geom_bond_site_symmetry_2
_ccdc_geom_bond_type
Gd0 C3 2.818 1_655 S
Gd0 O20 2.377 1_665 S
Gd0 O22 2.448 1_655 S
Gd0 O23 2.506 . S
Gd0 O24 2.435 1_655 S
Gd0 O25 2.717 1_655 S
Gd0 O27 2.395 . S
Gd0 O31 2.327 1_565 S
Gd1 C12 2.818 1_455 S
Gd1 O21 2.395 . S
Gd1 O25 2.327 1_545 S
Gd1 O26 2.377 1_445 S
Gd1 O28 2.448 1_455 S
Gd1 O29 2.506 . S
Gd1 O30 2.435 1_455 S
Gd1 O31 2.717 1_455 S
C2 O20 1.240 . S
C2 O21 1.240 . S
C3 Gd0 2.818 1_455 S
C3 C4 1.510 . S
C3 O22 1.249 . S
C3 O23 1.252 1_455 S
C4 C3 1.510 . S
C4 C5 1.404 . S
C4 C6 1.352 1_565 S
C5 C4 1.404 . S
C5 C9 1.389 . S
C5 H32 0.930 . S
C6 C4 1.352 1_545 S
C6 C8 1.374 . S
C6 H33 0.931 1_455 S
C7 C8 1.359 1_565 S
C7 C9 1.364 . S
C8 C6 1.374 . S
C8 C7 1.359 1_545 S
C8 H34 0.937 . S
C9 C5 1.389 . S
C9 C7 1.364 . S
C9 H35 0.931 . S
C10 O24 1.256 . S
C10 O25 1.257 . S
C11 O26 1.240 . S
C11 O27 1.240 . S
C12 Gd1 2.818 1_655 S
C12 C13 1.510 . S
C12 O28 1.249 . S
C12 O29 1.252 1_655 S
C13 C12 1.510 . S
C13 C14 1.404 . S
C13 C15 1.352 1_545 S
C14 C13 1.404 . S
C14 C18 1.389 . S
C14 H36 0.930 . S
C15 C13 1.352 1_565 S
C15 C17 1.374 . S
C15 H37 0.931 1_655 S
C16 C17 1.359 1_545 S
C16 C18 1.364 . S
C17 C15 1.374 . S
C17 C16 1.359 1_565 S
C17 H38 0.935 . S
C18 C14 1.389 . S
C18 C16 1.364 . S
C18 H39 0.931 . S
C19 O30 1.256 . S
C19 O31 1.257 . S
O20 Gd0 2.377 1_445 S
O20 C2 1.240 . S
O21 Gd1 2.395 . S
O21 C2 1.240 . S
O22 Gd0 2.448 1_455 S
O22 C3 1.249 . S
O23 Gd0 2.506 . S
O23 C3 1.252 1_655 S
O24 Gd0 2.435 1_455 S
O24 C10 1.256 . S
O25 Gd0 2.717 1_455 S
O25 Gd1 2.327 1_565 S
O25 C10 1.257 . S
O26 Gd1 2.377 1_665 S
O26 C11 1.240 . S
O27 Gd0 2.395 . S
O27 C11 1.240 . S
O28 Gd1 2.448 1_655 S
O28 C12 1.249 . S
O29 Gd1 2.506 . S
O29 C12 1.252 1_455 S
O30 Gd1 2.435 1_655 S
O30 C19 1.256 . S
O31 Gd0 2.327 1_545 S
O31 Gd1 2.717 1_655 S
O31 C19 1.257 . S
H32 C5 0.930 . S
H33 C6 0.931 1_655 S
H34 C8 0.937 . S
H35 C9 0.931 . S
H36 C14 0.930 . S
H37 C15 0.931 1_455 S
H38 C17 0.935 . S
H39 C18 0.931 . S
Gd40 C43 2.818 . S
Gd40 O60 2.377 . S
Gd40 O62 2.448 . S
Gd40 O63 2.506 . S
Gd40 O64 2.435 . S
Gd40 O65 2.717 . S
Gd40 O67 2.395 . S
Gd40 O71 2.327 . S
Gd41 C52 2.818 . S
Gd41 O61 2.395 . S
Gd41 O65 2.327 . S
Gd41 O66 2.377 . S
Gd41 O68 2.448 . S
Gd41 O69 2.506 . S
Gd41 O70 2.435 . S
Gd41 O71 2.717 . S
C42 O60 1.240 . S
C42 O61 1.240 . S
C43 Gd40 2.818 . S
C43 C44 1.510 . S
C43 O62 1.249 . S
C43 O63 1.252 . S
C44 C43 1.510 . S
C44 C45 1.404 . S
C44 C46 1.352 . S
C45 C44 1.404 . S
C45 C49 1.389 . S
C45 H72 0.930 . S
C46 C44 1.352 . S
C46 C48 1.374 . S
C46 H73 0.931 . S
C47 C48 1.359 . S
C47 C49 1.364 . S
C48 C46 1.374 . S
C48 C47 1.359 . S
C48 H74 0.931 . S
C49 C45 1.389 . S
C49 C47 1.364 . S
C49 H75 0.931 . S
C50 O64 1.256 . S
C50 O65 1.257 . S
C51 O66 1.240 . S
C51 O67 1.240 . S
C52 Gd41 2.818 . S
C52 C53 1.510 . S
C52 O68 1.249 . S
C52 O69 1.252 . S
C53 C52 1.510 . S
C53 C54 1.404 . S
C53 C55 1.352 . S
C54 C53 1.404 . S
C54 C58 1.389 1_556 S
C54 H76 0.930 . S
C55 C53 1.352 . S
C55 C57 1.374 1_556 S
C55 H77 0.931 . S
C56 C57 1.359 . S
C56 C58 1.364 . S
C57 C55 1.374 1_554 S
C57 C56 1.359 . S
C57 H78 0.931 . S
C58 C54 1.389 1_554 S
C58 C56 1.364 . S
C58 H79 0.931 . S
C59 O70 1.256 . S
C59 O71 1.257 . S
O60 Gd40 2.377 . S
O60 C42 1.240 . S
O61 Gd41 2.395 . S
O61 C42 1.240 . S
O62 Gd40 2.448 . S
O62 C43 1.249 . S
O63 Gd40 2.506 . S
O63 C43 1.252 . S
O64 Gd40 2.435 . S
O64 C50 1.256 . S
O65 Gd40 2.717 . S
O65 Gd41 2.327 . S
O65 C50 1.257 . S
O66 Gd41 2.377 . S
O66 C51 1.240 . S
O67 Gd40 2.395 . S
O67 C51 1.240 . S
O68 Gd41 2.448 . S
O68 C52 1.249 . S
O69 Gd41 2.506 . S
O69 C52 1.252 . S
O70 Gd41 2.435 . S
O70 C59 1.256 . S
O71 Gd40 2.327 . S
O71 Gd41 2.717 . S
O71 C59 1.257 . S
H72 C45 0.930 . S
H73 C46 0.931 . S
H74 C48 0.931 . S
H75 C49 0.931 . S
H76 C54 0.930 . S
H77 C55 0.931 . S
H78 C57 0.931 . S
H79 C58 0.931 . S
Gd80 C83 2.818 . S
Gd80 O100 2.377 1_565 S
Gd80 O102 2.448 . S
Gd80 O103 2.506 1_565 S
Gd80 O104 2.435 . S
Gd80 O105 2.717 1_554 S
Gd80 O107 2.395 1_554 S
Gd80 O111 2.327 1_565 S
Gd81 C92 2.818 . S
Gd81 O101 2.395 1_556 S
Gd81 O105 2.327 1_545 S
Gd81 O106 2.377 1_545 S
Gd81 O108 2.448 . S
Gd81 O109 2.506 1_545 S
Gd81 O110 2.435 . S
Gd81 O111 2.717 1_556 S
C82 O100 1.240 . S
C82 O101 1.240 . S
C83 Gd80 2.818 . S
C83 C84 1.510 . S
C83 O102 1.249 . S
C83 O103 1.252 1_565 S
C84 C83 1.510 . S
C84 C85 1.404 . S
C84 C86 1.352 1_565 S
C85 C84 1.404 . S
C85 C89 1.389 . S
C85 H112 0.930 . S
C86 C84 1.352 1_545 S
C86 C88 1.374 . S
C86 H113 0.931 . S
C87 C88 1.359 . S
C87 C89 1.364 1_545 S
C88 C86 1.374 . S
C88 C87 1.359 . S
C88 H114 0.931 . S
C89 C85 1.389 . S
C89 C87 1.364 1_565 S
C89 H115 0.931 . S
C90 O104 1.256 1_556 S
C90 O105 1.257 . S
C91 O106 1.240 . S
C91 O107 1.240 . S
C92 Gd81 2.818 . S
C92 C93 1.510 . S
C92 O108 1.249 . S
C92 O109 1.252 1_545 S
C93 C92 1.510 . S
C93 C94 1.404 . S
C93 C95 1.352 1_545 S
C94 C93 1.404 . S
C94 C98 1.389 . S
C94 H116 0.930 . S
C95 C93 1.352 1_565 S
C95 C97 1.374 . S
C95 H117 0.931 . S
C96 C97 1.359 . S
C96 C98 1.364 1_565 S
C97 C95 1.374 . S
C97 C96 1.359 . S
C97 H118 0.931 . S
C98 C94 1.389 . S
C98 C96 1.364 1_545 S
C98 H119 0.931 . S
C99 O110 1.256 1_554 S
C99 O111 1.257 . S
O100 Gd80 2.377 1_545 S
O100 C82 1.240 . S
O101 Gd81 2.395 1_554 S
O101 C82 1.240 . S
O102 Gd80 2.448 . S
O102 C83 1.249 . S
O103 Gd80 2.506 1_545 S
O103 C83 1.252 1_545 S
O104 Gd80 2.435 . S
O104 C90 1.256 1_554 S
O105 Gd80 2.717 1_556 S
O105 Gd81 2.327 1_565 S
O105 C90 1.257 . S
O106 Gd81 2.377 1_565 S
O106 C91 1.240 . S
O107 Gd80 2.395 1_556 S
O107 C91 1.240 . S
O108 Gd81 2.448 . S
O108 C92 1.249 . S
O109 Gd81 2.506 1_565 S
O109 C92 1.252 1_565 S
O110 Gd81 2.435 . S
O110 C99 1.256 1_556 S
O111 Gd80 2.327 1_545 S
O111 Gd81 2.717 1_554 S
O111 C99 1.257 . S
H112 C85 0.930 . S
H113 C86 0.931 . S
H114 C88 0.931 . S
H115 C89 0.931 . S
H116 C94 0.930 . S
H117 C95 0.931 . S
H118 C97 0.931 . S
H119 C98 0.931 . S
Gd120 C123 2.818 . S
Gd120 O140 2.377 . S
Gd120 O142 2.448 . S
Gd120 O143 2.506 . S
Gd120 O144 2.435 . S
Gd120 O145 2.717 . S
Gd120 O147 2.395 . S
Gd120 O151 2.327 . S
Gd121 C132 2.818 . S
Gd121 O141 2.395 . S
Gd121 O145 2.327 . S
Gd121 O146 2.377 . S
Gd121 O148 2.448 . S
Gd121 O149 2.506 . S
Gd121 O150 2.435 . S
Gd121 O151 2.717 . S
C122 O140 1.240 . S
C122 O141 1.240 . S
C123 Gd120 2.818 . S
C123 C124 1.510 . S
C123 O142 1.249 . S
C123 O143 1.252 . S
C124 C123 1.510 . S
C124 C125 1.404 . S
C124 C126 1.352 . S
C125 C124 1.404 . S
C125 C129 1.389 . S
C125 H152 0.930 . S
C126 C124 1.352 . S
C126 C128 1.374 . S
C126 H153 0.931 . S
C127 C128 1.359 . S
C127 C129 1.364 . S
C128 C126 1.374 . S
C128 C127 1.359 . S
C128 H154 0.931 . S
C129 C125 1.389 . S
C129 C127 1.364 . S
C129 H155 0.931 . S
C130 O144 1.256 . S
C130 O145 1.257 . S
C131 O146 1.240 . S
C131 O147 1.240 . S
C132 Gd121 2.818 . S
C132 C133 1.510 . S
C132 O148 1.249 . S
C132 O149 1.252 . S
C133 C132 1.510 . S
C133 C134 1.404 . S
C133 C135 1.352 . S
C134 C133 1.404 . S
C134 C138 1.389 1_554 S
C134 H156 0.930 . S
C135 C133 1.352 . S
C135 C137 1.374 1_554 S
C135 H157 0.931 . S
C136 C137 1.359 . S
C136 C138 1.364 . S
C137 C135 1.374 1_556 S
C137 C136 1.359 . S
C137 H158 0.931 . S
C138 C134 1.389 1_556 S
C138 C136 1.364 . S
C138 H159 0.931 . S
C139 O150 1.256 . S
C139 O151 1.257 . S
O140 Gd120 2.377 . S
O140 C122 1.240 . S
O141 Gd121 2.395 . S
O141 C122 1.240 . S
O142 Gd120 2.448 . S
O142 C123 1.249 . S
O143 Gd120 2.506 . S
O143 C123 1.252 . S
O144 Gd120 2.435 . S
O144 C130 1.256 . S
O145 Gd120 2.717 . S
O145 Gd121 2.327 . S
O145 C130 1.257 . S
O146 Gd121 2.377 . S
O146 C131 1.240 . S
O147 Gd120 2.395 . S
O147 C131 1.240 . S
O148 Gd121 2.448 . S
O148 C132 1.249 . S
O149 Gd121 2.506 . S
O149 C132 1.252 . S
O150 Gd121 2.435 . S
O150 C139 1.256 . S
O151 Gd120 2.327 . S
O151 Gd121 2.717 . S
O151 C139 1.257 . S
H152 C125 0.930 . S
H153 C126 0.931 . S
H154 C128 0.931 . S
H155 C129 0.931 . S
H156 C134 0.930 . S
H157 C135 0.931 . S
H158 C137 0.931 . S
H159 C138 0.931 . S
Gd160 C163 2.818 . S
Gd160 O180 2.377 . S
Gd160 O182 2.448 . S
Gd160 O183 2.506 . S
Gd160 O184 2.435 . S
Gd160 O185 2.717 . S
Gd160 O187 2.395 . S
Gd160 O191 2.327 . S
Gd161 C172 2.818 . S
Gd161 O181 2.395 . S
Gd161 O185 2.327 . S
Gd161 O186 2.377 . S
Gd161 O188 2.448 . S
Gd161 O189 2.506 . S
Gd161 O190 2.435 . S
Gd161 O191 2.717 . S
C162 O180 1.240 . S
C162 O181 1.240 . S
C163 Gd160 2.818 . S
C163 C164 1.510 . S
C163 O182 1.249 . S
C163 O183 1.252 . S
C164 C163 1.510 . S
C164 C165 1.404 . S
C164 C166 1.352 . S
C165 C164 1.404 . S
C165 C169 1.389 1_554 S
C165 H192 0.930 . S
C166 C164 1.352 . S
C166 C168 1.374 1_554 S
C166 H193 0.931 . S
C167 C168 1.359 . S
C167 C169 1.364 . S
C168 C166 1.374 1_556 S
C168 C167 1.359 . S
C168 H194 0.931 . S
C169 C165 1.389 1_556 S
C169 C167 1.364 . S
C169 H195 0.931 . S
C170 O184 1.256 . S
C170 O185 1.257 . S
C171 O186 1.240 . S
C171 O187 1.240 . S
C172 Gd161 2.818 . S
C172 C173 1.510 . S
C172 O188 1.249 . S
C172 O189 1.252 . S
C173 C172 1.510 . S
C173 C174 1.404 . S
C173 C175 1.352 . S
C174 C173 1.404 . S
C174 C178 1.389 . S
C174 H196 0.930 . S
C175 C173 1.352 . S
C175 C177 1.374 . S
C175 H197 0.931 . S
C176 C177 1.359 . S
C176 C178 1.364 . S
C177 C175 1.374 . S
C177 C176 1.359 . S
C177 H198 0.931 . S
C178 C174 1.389 . S
C178 C176 1.364 . S
C178 H199 0.931 . S
C179 O190 1.256 . S
C179 O191 1.257 . S
O180 Gd160 2.377 . S
O180 C162 1.240 . S
O181 Gd161 2.395 . S
O181 C162 1.240 . S
O182 Gd160 2.448 . S
O182 C163 1.249 . S
O183 Gd160 2.506 . S
O183 C163 1.252 . S
O184 Gd160 2.435 . S
O184 C170 1.256 . S
O185 Gd160 2.717 . S
O185 Gd161 2.327 . S
O185 C170 1.257 . S
O186 Gd161 2.377 . S
O186 C171 1.240 . S
O187 Gd160 2.395 . S
O187 C171 1.240 . S
O188 Gd161 2.448 . S
O188 C172 1.249 . S
O189 Gd161 2.506 . S
O189 C172 1.252 . S
O190 Gd161 2.435 . S
O190 C179 1.256 . S
O191 Gd160 2.327 . S
O191 Gd161 2.717 . S
O191 C179 1.257 . S
H192 C165 0.930 . S
H193 C166 0.931 . S
H194 C168 0.931 . S
H195 C169 0.931 . S
H196 C174 0.930 . S
H197 C175 0.931 . S
H198 C177 0.931 . S
H199 C178 0.931 . S
Gd200 C203 2.818 . S
Gd200 O220 2.377 . S
Gd200 O222 2.448 . S
Gd200 O223 2.506 . S
Gd200 O224 2.435 . S
Gd200 O225 2.717 . S
Gd200 O227 2.395 . S
Gd200 O231 2.327 . S
Gd201 C212 2.818 . S
Gd201 O221 2.395 . S
Gd201 O225 2.327 . S
Gd201 O226 2.377 . S
Gd201 O228 2.448 . S
Gd201 O229 2.506 . S
Gd201 O230 2.435 . S
Gd201 O231 2.717 . S
C202 O220 1.240 . S
C202 O221 1.240 . S
C203 Gd200 2.818 . S
C203 C204 1.510 . S
C203 O222 1.249 . S
C203 O223 1.252 . S
C204 C203 1.510 . S
C204 C205 1.404 . S
C204 C206 1.352 . S
C205 C204 1.404 . S
C205 C209 1.389 1_556 S
C205 H232 0.930 . S
C206 C204 1.352 . S
C206 C208 1.374 1_556 S
C206 H233 0.931 . S
C207 C208 1.359 . S
C207 C209 1.364 . S
C208 C206 1.374 1_554 S
C208 C207 1.359 . S
C208 H234 0.931 . S
C209 C205 1.389 1_554 S
C209 C207 1.364 . S
C209 H235 0.931 . S
C210 O224 1.256 . S
C210 O225 1.257 . S
C211 O226 1.240 . S
C211 O227 1.240 . S
C212 Gd201 2.818 . S
C212 C213 1.510 . S
C212 O228 1.249 . S
C212 O229 1.252 . S
C213 C212 1.510 . S
C213 C214 1.404 . S
C213 C215 1.352 . S
C214 C213 1.404 . S
C214 C218 1.389 . S
C214 H236 0.930 . S
C215 C213 1.352 . S
C215 C217 1.374 . S
C215 H237 0.931 . S
C216 C217 1.359 . S
C216 C218 1.364 . S
C217 C215 1.374 . S
C217 C216 1.359 . S
C217 H238 0.931 . S
C218 C214 1.389 . S
C218 C216 1.364 . S
C218 H239 0.931 . S
C219 O230 1.256 . S
C219 O231 1.257 . S
O220 Gd200 2.377 . S
O220 C202 1.240 . S
O221 Gd201 2.395 . S
O221 C202 1.240 . S
O222 Gd200 2.448 . S
O222 C203 1.249 . S
O223 Gd200 2.506 . S
O223 C203 1.252 . S
O224 Gd200 2.435 . S
O224 C210 1.256 . S
O225 Gd200 2.717 . S
O225 Gd201 2.327 . S
O225 C210 1.257 . S
O226 Gd201 2.377 . S
O226 C211 1.240 . S
O227 Gd200 2.395 . S
O227 C211 1.240 . S
O228 Gd201 2.448 . S
O228 C212 1.249 . S
O229 Gd201 2.506 . S
O229 C212 1.252 . S
O230 Gd201 2.435 . S
O230 C219 1.256 . S
O231 Gd200 2.327 . S
O231 Gd201 2.717 . S
O231 C219 1.257 . S
H232 C205 0.930 . S
H233 C206 0.931 . S
H234 C208 0.931 . S
H235 C209 0.931 . S
H236 C214 0.930 . S
H237 C215 0.931 . S
H238 C217 0.931 . S
H239 C218 0.931 . S
Gd240 C243 2.818 . S
Gd240 O260 2.377 . S
Gd240 O262 2.448 . S
Gd240 O263 2.506 . S
Gd240 O264 2.435 . S
Gd240 O265 2.717 1_556 S
Gd240 O267 2.395 . S
Gd240 O271 2.327 . S
Gd241 C252 2.818 . S
Gd241 O261 2.395 . S
Gd241 O265 2.327 . S
Gd241 O266 2.377 . S
Gd241 O268 2.448 . S
Gd241 O269 2.506 . S
Gd241 O270 2.435 . S
Gd241 O271 2.717 1_554 S
C242 O260 1.240 . S
C242 O261 1.240 1_556 S
C243 Gd240 2.818 . S
C243 C244 1.510 . S
C243 O262 1.249 . S
C243 O263 1.252 . S
C244 C243 1.510 . S
C244 C245 1.404 . S
C244 C246 1.352 . S
C245 C244 1.404 . S
C245 C249 1.389 . S
C245 H272 0.930 . S
C246 C244 1.352 . S
C246 C248 1.374 . S
C246 H273 0.931 . S
C247 C248 1.359 . S
C247 C249 1.364 . S
C248 C246 1.374 . S
C248 C247 1.359 . S
C248 H274 0.931 . S
C249 C245 1.389 . S
C249 C247 1.364 . S
C249 H275 0.931 . S
C250 O264 1.256 1_554 S
C250 O265 1.257 . S
C251 O266 1.240 . S
C251 O267 1.240 1_554 S
C252 Gd241 2.818 . S
C252 C253 1.510 . S
C252 O268 1.249 . S
C252 O269 1.252 . S
C253 C252 1.510 . S
C253 C254 1.404 . S
C253 C255 1.352 . S
C254 C253 1.404 . S
C254 C258 1.389 . S
C254 H276 0.930 . S
C255 C253 1.352 . S
C255 C257 1.374 . S
C255 H277 0.931 . S
C256 C257 1.359 . S
C256 C258 1.364 . S
C257 C255 1.374 . S
C257 C256 1.359 . S
C257 H278 0.931 . S
C258 C254 1.389 . S
C258 C256 1.364 . S
C258 H279 0.931 . S
C259 O270 1.256 1_556 S
C259 O271 1.257 . S
O260 Gd240 2.377 . S
O260 C242 1.240 . S
O261 Gd241 2.395 . S
O261 C242 1.240 1_554 S
O262 Gd240 2.448 . S
O262 C243 1.249 . S
O263 Gd240 2.506 . S
O263 C243 1.252 . S
O264 Gd240 2.435 . S
O264 C250 1.256 1_556 S
O265 Gd240 2.717 1_554 S
O265 Gd241 2.327 . S
O265 C250 1.257 . S
O266 Gd241 2.377 . S
O266 C251 1.240 . S
O267 Gd240 2.395 . S
O267 C251 1.240 1_556 S
O268 Gd241 2.448 . S
O268 C252 1.249 . S
O269 Gd241 2.506 . S
O269 C252 1.252 . S
O270 Gd241 2.435 . S
O270 C259 1.256 1_554 S
O271 Gd240 2.327 . S
O271 Gd241 2.717 1_556 S
O271 C259 1.257 . S
H272 C245 0.930 . S
H273 C246 0.931 . S
H274 C248 0.931 . S
H275 C249 0.931 . S
H276 C254 0.930 . S
H277 C255 0.931 . S
H278 C257 0.931 . S
H279 C258 0.931 . S
Gd280 C283 2.818 1_455 S
Gd280 O300 2.377 1_455 S
Gd280 O302 2.448 1_455 S
Gd280 O303 2.506 . S
Gd280 O304 2.435 1_455 S
Gd280 O305 2.717 1_455 S
Gd280 O307 2.395 . S
Gd280 O311 2.327 . S
Gd281 C292 2.818 1_655 S
Gd281 O301 2.395 . S
Gd281 O305 2.327 . S
Gd281 O306 2.377 1_655 S
Gd281 O308 2.448 1_655 S
Gd281 O309 2.506 . S
Gd281 O310 2.435 1_655 S
Gd281 O311 2.717 1_655 S
C282 O300 1.240 . S
C282 O301 1.240 . S
C283 Gd280 2.818 1_655 S
C283 C284 1.510 . S
C283 O302 1.249 . S
C283 O303 1.252 1_655 S
C284 C283 1.510 . S
C284 C285 1.404 . S
C284 C286 1.356 . S
C285 C284 1.404 . S
C285 C289 1.389 . S
C285 H312 0.930 . S
C286 C284 1.356 . S
C286 C288 1.381 . S
C286 H313 0.920 1_655 S
C287 C288 1.359 . S
C287 C289 1.364 . S
C288 C286 1.381 . S
C288 C287 1.359 . S
C288 H314 0.931 1_655 S
C289 C285 1.389 . S
C289 C287 1.364 . S
C289 H315 0.931 . S
C290 O304 1.256 . S
C290 O305 1.257 . S
C291 O306 1.240 . S
C291 O307 1.240 . S
C292 Gd281 2.818 1_455 S
C292 C293 1.510 . S
C292 O308 1.249 . S
C292 O309 1.252 1_455 S
C293 C292 1.510 . S
C293 C294 1.404 . S
C293 C295 1.357 . S
C294 C293 1.404 . S
C294 C298 1.389 . S
C294 H316 0.930 . S
C295 C293 1.357 . S
C295 C297 1.383 . S
C295 H317 0.916 1_455 S
C296 C297 1.359 . S
C296 C298 1.364 . S
C297 C295 1.383 . S
C297 C296 1.359 . S
C297 H318 0.931 . S
C298 C294 1.389 . S
C298 C296 1.364 . S
C298 H319 0.931 . S
C299 O310 1.256 . S
C299 O311 1.257 . S
O300 Gd280 2.377 1_655 S
O300 C282 1.240 . S
O301 Gd281 2.395 . S
O301 C282 1.240 . S
O302 Gd280 2.448 1_655 S
O302 C283 1.249 . S
O303 Gd280 2.506 . S
O303 C283 1.252 1_455 S
O304 Gd280 2.435 1_655 S
O304 C290 1.256 . S
O305 Gd280 2.717 1_655 S
O305 Gd281 2.327 . S
O305 C290 1.257 . S
O306 Gd281 2.377 1_455 S
O306 C291 1.240 . S
O307 Gd280 2.395 . S
O307 C291 1.240 . S
O308 Gd281 2.448 1_455 S
O308 C292 1.249 . S
O309 Gd281 2.506 . S
O309 C292 1.252 1_655 S
O310 Gd281 2.435 1_455 S
O310 C299 1.256 . S
O311 Gd280 2.327 . S
O311 Gd281 2.717 1_455 S
O311 C299 1.257 . S
H312 C285 0.930 . S
H313 C286 0.920 1_455 S
H314 C288 0.931 1_455 S
H315 C289 0.931 . S
H316 C294 0.930 . S
H317 C295 0.916 1_655 S
H318 C297 0.931 . S
H319 C298 0.931 . S
C320 C321 1.391 . S
C320 C322 1.394 . S
C320 H336 0.931 . S
C321 C320 1.391 . S
C321 C325 1.376 . S
C322 C320 1.394 . S
C322 C323 1.369 . S
C322 C326 1.531 . S
C323 C322 1.369 . S
C323 C324 1.410 . S
C323 C331 1.503 . S
C324 C323 1.410 . S
C324 C325 1.392 . S
C324 C327 1.511 . S
C325 C321 1.376 . S
C325 C324 1.392 . S
C325 H337 0.929 . S
C326 C322 1.531 . S
C326 H338 0.960 . S
C326 H339 0.962 . S
C326 H340 0.960 . S
C327 C324 1.511 . S
C327 H341 0.961 . S
C327 H342 0.961 . S
C327 H343 0.961 . S
C328 C329 1.370 . S
C328 C330 1.363 . S
C328 H344 0.931 . S
C329 C328 1.370 . S
C329 C333 1.408 . S
C330 C328 1.363 . S
C330 C331 1.370 . S
C330 C334 1.524 . S
C331 C323 1.503 . S
C331 C330 1.370 . S
C331 C332 1.403 . S
C332 C331 1.403 . S
C332 C333 1.404 . S
C332 C335 1.539 . S
C333 C329 1.408 . S
C333 C332 1.404 . S
C333 H345 0.930 . S
C334 C330 1.524 . S
C334 H346 0.956 . S
C334 H347 0.961 . S
C334 H348 0.961 . S
C335 C332 1.539 . S
C335 H349 0.958 . S
C335 H350 0.961 . S
C335 H351 0.960 . S
H336 C320 0.931 . S
H337 C325 0.929 . S
H338 C326 0.960 . S
H339 C326 0.962 . S
H340 C326 0.960 . S
H341 C327 0.961 . S
H342 C327 0.961 . S
H343 C327 0.961 . S
H344 C328 0.931 . S
H345 C333 0.930 . S
H346 C334 0.956 . S
H347 C334 0.961 . S
H348 C334 0.961 . S
H349 C335 0.958 . S
H350 C335 0.961 . S
H351 C335 0.960 . S
C352 C353 1.391 . S
C352 C354 1.394 . S
C352 H368 0.931 . S
C353 C352 1.391 . S
C353 C357 1.376 . S
C354 C352 1.394 . S
C354 C355 1.369 . S
C354 C358 1.531 . S
C355 C354 1.369 . S
C355 C356 1.410 . S
C355 C363 1.503 . S
C356 C355 1.410 . S
C356 C357 1.392 . S
C356 C359 1.511 . S
C357 C353 1.376 . S
C357 C356 1.392 . S
C357 H369 0.929 . S
C358 C354 1.531 . S
C358 H370 0.960 . S
C358 H371 0.962 . S
C358 H372 0.960 . S
C359 C356 1.511 . S
C359 H373 0.961 . S
C359 H374 0.961 . S
C359 H375 0.961 . S
C360 C361 1.370 . S
C360 C362 1.363 . S
C360 H376 0.931 . S
C361 C360 1.370 . S
C361 C365 1.408 . S
C362 C360 1.363 . S
C362 C363 1.370 . S
C362 C366 1.524 . S
C363 C355 1.503 . S
C363 C362 1.370 . S
C363 C364 1.403 . S
C364 C363 1.403 . S
C364 C365 1.404 . S
C364 C367 1.539 . S
C365 C361 1.408 . S
C365 C364 1.404 . S
C365 H377 0.930 . S
C366 C362 1.524 . S
C366 H378 0.956 . S
C366 H379 0.961 . S
C366 H380 0.961 . S
C367 C364 1.539 . S
C367 H381 0.958 . S
C367 H382 0.961 . S
C367 H383 0.960 . S
H368 C352 0.931 . S
H369 C357 0.929 . S
H370 C358 0.960 . S
H371 C358 0.962 . S
H372 C358 0.960 . S
H373 C359 0.961 . S
H374 C359 0.961 . S
H375 C359 0.961 . S
H376 C360 0.931 . S
H377 C365 0.930 . S
H378 C366 0.956 . S
H379 C366 0.961 . S
H380 C366 0.961 . S
H381 C367 0.958 . S
H382 C367 0.961 . S
H383 C367 0.960 . S
C384 C385 1.391 . S
C384 C386 1.394 . S
C384 H400 0.931 . S
C385 C384 1.391 . S
C385 C389 1.376 . S
C386 C384 1.394 . S
C386 C387 1.369 . S
C386 C390 1.531 . S
C387 C386 1.369 . S
C387 C388 1.410 . S
C387 C395 1.503 . S
C388 C387 1.410 . S
C388 C389 1.392 . S
C388 C391 1.511 . S
C389 C385 1.376 . S
C389 C388 1.392 . S
C389 H401 0.929 . S
C390 C386 1.531 . S
C390 H402 0.960 . S
C390 H403 0.962 . S
C390 H404 0.960 . S
C391 C388 1.511 . S
C391 H405 0.961 . S
C391 H406 0.961 . S
C391 H407 0.961 . S
C392 C393 1.370 . S
C392 C394 1.363 . S
C392 H408 0.931 . S
C393 C392 1.370 . S
C393 C397 1.408 . S
C394 C392 1.363 . S
C394 C395 1.370 . S
C394 C398 1.524 . S
C395 C387 1.503 . S
C395 C394 1.370 . S
C395 C396 1.403 . S
C396 C395 1.403 . S
C396 C397 1.404 . S
C396 C399 1.539 . S
C397 C393 1.408 . S
C397 C396 1.404 . S
C397 H409 0.930 . S
C398 C394 1.524 . S
C398 H410 0.956 . S
C398 H411 0.961 . S
C398 H412 0.961 . S
C399 C396 1.539 . S
C399 H413 0.958 . S
C399 H414 0.961 . S
C399 H415 0.960 . S
H400 C384 0.931 . S
H401 C389 0.929 . S
H402 C390 0.960 . S
H403 C390 0.962 . S
H404 C390 0.960 . S
H405 C391 0.961 . S
H406 C391 0.961 . S
H407 C391 0.961 . S
H408 C392 0.931 . S
H409 C397 0.930 . S
H410 C398 0.956 . S
H411 C398 0.961 . S
H412 C398 0.961 . S
H413 C399 0.958 . S
H414 C399 0.961 . S
H415 C399 0.960 . S
C416 C417 1.391 . S
C416 C418 1.394 . S
C416 H432 0.931 . S
C417 C416 1.391 . S
C417 C421 1.376 . S
C418 C416 1.394 . S
C418 C419 1.369 . S
C418 C422 1.531 . S
C419 C418 1.369 . S
C419 C420 1.410 . S
C419 C427 1.503 . S
C420 C419 1.410 . S
C420 C421 1.392 . S
C420 C423 1.511 . S
C421 C417 1.376 . S
C421 C420 1.392 . S
C421 H433 0.929 . S
C422 C418 1.531 . S
C422 H434 0.960 . S
C422 H435 0.962 . S
C422 H436 0.960 . S
C423 C420 1.511 . S
C423 H437 0.961 . S
C423 H438 0.961 . S
C423 H439 0.961 . S
C424 C425 1.370 . S
C424 C426 1.363 . S
C424 H440 0.931 . S
C425 C424 1.370 . S
C425 C429 1.408 . S
C426 C424 1.363 . S
C426 C427 1.370 . S
C426 C430 1.524 . S
C427 C419 1.503 . S
C427 C426 1.370 . S
C427 C428 1.403 . S
C428 C427 1.403 . S
C428 C429 1.404 . S
C428 C431 1.539 . S
C429 C425 1.408 . S
C429 C428 1.404 . S
C429 H441 0.930 . S
C430 C426 1.524 . S
C430 H442 0.956 . S
C430 H443 0.961 . S
C430 H444 0.961 . S
C431 C428 1.539 . S
C431 H445 0.958 . S
C431 H446 0.961 . S
C431 H447 0.960 . S
H432 C416 0.931 . S
H433 C421 0.929 . S
H434 C422 0.960 . S
H435 C422 0.962 . S
H436 C422 0.960 . S
H437 C423 0.961 . S
H438 C423 0.961 . S
H439 C423 0.961 . S
H440 C424 0.931 . S
H441 C429 0.930 . S
H442 C430 0.956 . S
H443 C430 0.961 . S
H444 C430 0.961 . S
H445 C431 0.958 . S
H446 C431 0.961 . S
H447 C431 0.960 . S
C448 C449 1.391 . S
C448 C450 1.394 . S
C448 H464 0.931 . S
C449 C448 1.391 . S
C449 C453 1.376 . S
C450 C448 1.394 . S
C450 C451 1.369 . S
C450 C454 1.531 . S
C451 C450 1.369 . S
C451 C452 1.410 . S
C451 C459 1.503 . S
C452 C451 1.410 . S
C452 C453 1.392 . S
C452 C455 1.511 . S
C453 C449 1.376 . S
C453 C452 1.392 . S
C453 H465 0.929 . S
C454 C450 1.531 . S
C454 H466 0.960 . S
C454 H467 0.962 . S
C454 H468 0.960 . S
C455 C452 1.511 . S
C455 H469 0.961 . S
C455 H470 0.961 . S
C455 H471 0.961 . S
C456 C457 1.370 . S
C456 C458 1.363 . S
C456 H472 0.931 . S
C457 C456 1.370 . S
C457 C461 1.408 . S
C458 C456 1.363 . S
C458 C459 1.370 . S
C458 C462 1.524 . S
C459 C451 1.503 . S
C459 C458 1.370 . S
C459 C460 1.403 . S
C460 C459 1.403 . S
C460 C461 1.404 . S
C460 C463 1.539 . S
C461 C457 1.408 . S
C461 C460 1.404 . S
C461 H473 0.930 . S
C462 C458 1.524 . S
C462 H474 0.956 . S
C462 H475 0.961 . S
C462 H476 0.961 . S
C463 C460 1.539 . S
C463 H477 0.958 . S
C463 H478 0.961 . S
C463 H479 0.960 . S
H464 C448 0.931 . S
H465 C453 0.929 . S
H466 C454 0.960 . S
H467 C454 0.962 . S
H468 C454 0.960 . S
H469 C455 0.961 . S
H470 C455 0.961 . S
H471 C455 0.961 . S
H472 C456 0.931 . S
H473 C461 0.930 . S
H474 C462 0.956 . S
H475 C462 0.961 . S
H476 C462 0.961 . S
H477 C463 0.958 . S
H478 C463 0.961 . S
H479 C463 0.960 . S
C480 C481 1.391 . S
C480 C482 1.394 . S
C480 H496 0.931 . S
C481 C480 1.391 . S
C481 C485 1.376 . S
C482 C480 1.394 . S
C482 C483 1.369 . S
C482 C486 1.531 . S
C483 C482 1.369 . S
C483 C484 1.410 . S
C483 C491 1.503 . S
C484 C483 1.410 . S
C484 C485 1.392 . S
C484 C487 1.511 . S
C485 C481 1.376 . S
C485 C484 1.392 . S
C485 H497 0.929 . S
C486 C482 1.531 . S
C486 H498 0.960 . S
C486 H499 0.962 . S
C486 H500 0.960 . S
C487 C484 1.511 . S
C487 H501 0.961 . S
C487 H502 0.961 . S
C487 H503 0.961 . S
C488 C489 1.370 . S
C488 C490 1.363 . S
C488 H504 0.931 . S
C489 C488 1.370 . S
C489 C493 1.408 . S
C490 C488 1.363 . S
C490 C491 1.370 . S
C490 C494 1.524 . S
C491 C483 1.503 . S
C491 C490 1.370 . S
C491 C492 1.403 . S
C492 C491 1.403 . S
C492 C493 1.404 . S
C492 C495 1.539 . S
C493 C489 1.408 . S
C493 C492 1.404 . S
C493 H505 0.930 . S
C494 C490 1.524 . S
C494 H506 0.956 . S
C494 H507 0.961 . S
C494 H508 0.961 . S
C495 C492 1.539 . S
C495 H509 0.958 . S
C495 H510 0.961 . S
C495 H511 0.960 . S
H496 C480 0.931 . S
H497 C485 0.929 . S
H498 C486 0.960 . S
H499 C486 0.962 . S
H500 C486 0.960 . S
H501 C487 0.961 . S
H502 C487 0.961 . S
H503 C487 0.961 . S
H504 C488 0.931 . S
H505 C493 0.930 . S
H506 C494 0.956 . S
H507 C494 0.961 . S
H508 C494 0.961 . S
H509 C495 0.958 . S
H510 C495 0.961 . S
H511 C495 0.960 . S
C512 C513 1.391 . S
C512 C514 1.394 . S
C512 H528 0.931 . S
C513 C512 1.391 . S
C513 C517 1.376 . S
C514 C512 1.394 . S
C514 C515 1.369 . S
C514 C518 1.531 . S
C515 C514 1.369 . S
C515 C516 1.410 . S
C515 C523 1.503 . S
C516 C515 1.410 . S
C516 C517 1.392 . S
C516 C519 1.511 . S
C517 C513 1.376 . S
C517 C516 1.392 . S
C517 H529 0.929 . S
C518 C514 1.531 . S
C518 H530 0.960 . S
C518 H531 0.962 . S
C518 H532 0.960 . S
C519 C516 1.511 . S
C519 H533 0.961 . S
C519 H534 0.961 . S
C519 H535 0.961 . S
C520 C521 1.370 . S
C520 C522 1.363 . S
C520 H536 0.931 . S
C521 C520 1.370 . S
C521 C525 1.408 . S
C522 C520 1.363 . S
C522 C523 1.370 . S
C522 C526 1.524 . S
C523 C515 1.503 . S
C523 C522 1.370 . S
C523 C524 1.403 . S
C524 C523 1.403 . S
C524 C525 1.404 . S
C524 C527 1.539 . S
C525 C521 1.408 . S
C525 C524 1.404 . S
C525 H537 0.930 1_554 S
C526 C522 1.524 . S
C526 H538 0.956 . S
C526 H539 0.961 . S
C526 H540 0.961 . S
C527 C524 1.539 . S
C527 H541 0.958 . S
C527 H542 0.961 1_554 S
C527 H543 0.960 . S
H528 C512 0.931 . S
H529 C517 0.929 . S
H530 C518 0.960 . S
H531 C518 0.962 . S
H532 C518 0.960 . S
H533 C519 0.961 . S
H534 C519 0.961 . S
H535 C519 0.961 . S
H536 C520 0.931 . S
H537 C525 0.930 1_556 S
H538 C526 0.956 . S
H539 C526 0.961 . S
H540 C526 0.961 . S
H541 C527 0.958 . S
H542 C527 0.961 1_556 S
H543 C527 0.960 . S
C544 C545 1.391 . S
C544 C546 1.394 . S
C544 H560 0.931 . S
C545 C544 1.391 . S
C545 C549 1.376 . S
C546 C544 1.394 . S
C546 C547 1.369 . S
C546 C550 1.531 . S
C547 C546 1.369 . S
C547 C548 1.410 . S
C547 C555 1.503 . S
C548 C547 1.410 . S
C548 C549 1.392 . S
C548 C551 1.511 . S
C549 C545 1.376 . S
C549 C548 1.392 . S
C549 H561 0.929 . S
C550 C546 1.531 . S
C550 H562 0.960 . S
C550 H563 0.962 . S
C550 H564 0.960 . S
C551 C548 1.511 . S
C551 H565 0.961 . S
C551 H566 0.961 . S
C551 H567 0.961 . S
C552 C553 1.370 . S
C552 C554 1.363 . S
C552 H568 0.931 . S
C553 C552 1.370 . S
C553 C557 1.408 . S
C554 C552 1.363 . S
C554 C555 1.370 . S
C554 C558 1.524 . S
C555 C547 1.503 . S
C555 C554 1.370 . S
C555 C556 1.403 . S
C556 C555 1.403 . S
C556 C557 1.404 . S
C556 C559 1.539 . S
C557 C553 1.408 . S
C557 C556 1.404 . S
C557 H569 0.930 . S
C558 C554 1.524 . S
C558 H570 0.956 . S
C558 H571 0.961 . S
C558 H572 0.961 . S
C559 C556 1.539 . S
C559 H573 0.958 . S
C559 H574 0.961 . S
C559 H575 0.960 . S
H560 C544 0.931 . S
H561 C549 0.929 . S
H562 C550 0.960 . S
H563 C550 0.962 . S
H564 C550 0.960 . S
H565 C551 0.961 . S
H566 C551 0.961 . S
H567 C551 0.961 . S
H568 C552 0.931 . S
H569 C557 0.930 . S
H570 C558 0.956 . S
H571 C558 0.961 . S
H572 C558 0.961 . S
H573 C559 0.958 . S
H574 C559 0.961 . S
H575 C559 0.960 . S
C576 C577 1.391 . S
C576 C578 1.394 . S
C576 H592 0.931 . S
C577 C576 1.391 . S
C577 C581 1.376 . S
C578 C576 1.394 . S
C578 C579 1.369 . S
C578 C582 1.531 . S
C579 C578 1.369 . S
C579 C580 1.410 . S
C579 C587 1.503 . S
C580 C579 1.410 . S
C580 C581 1.392 . S
C580 C583 1.511 . S
C581 C577 1.376 . S
C581 C580 1.392 . S
C581 H593 0.929 . S
C582 C578 1.531 . S
C582 H594 0.960 . S
C582 H595 0.962 . S
C582 H596 0.960 . S
C583 C580 1.511 . S
C583 H597 0.961 . S
C583 H598 0.961 . S
C583 H599 0.961 . S
C584 C585 1.370 . S
C584 C586 1.363 . S
C584 H600 0.931 . S
C585 C584 1.370 . S
C585 C589 1.408 . S
C586 C584 1.363 . S
C586 C587 1.370 . S
C586 C590 1.524 . S
C587 C579 1.503 . S
C587 C586 1.370 . S
C587 C588 1.403 . S
C588 C587 1.403 . S
C588 C589 1.404 . S
C588 C591 1.539 . S
C589 C585 1.408 . S
C589 C588 1.404 . S
C589 H601 0.930 . S
C590 C586 1.524 . S
C590 H602 0.956 . S
C590 H603 0.961 . S
C590 H604 0.961 . S
C591 C588 1.539 . S
C591 H605 0.958 . S
C591 H606 0.961 . S
C591 H607 0.960 . S
H592 C576 0.931 . S
H593 C581 0.929 . S
H594 C582 0.960 . S
H595 C582 0.962 . S
H596 C582 0.960 . S
H597 C583 0.961 . S
H598 C583 0.961 . S
H599 C583 0.961 . S
H600 C584 0.931 . S
H601 C589 0.930 . S
H602 C590 0.956 . S
H603 C590 0.961 . S
H604 C590 0.961 . S
H605 C591 0.958 . S
H606 C591 0.961 . S
H607 C591 0.960 . S
C608 C609 1.391 . S
C608 C610 1.394 . S
C608 H624 0.931 . S
C609 C608 1.391 . S
C609 C613 1.376 . S
C610 C608 1.394 . S
C610 C611 1.369 . S
C610 C614 1.531 . S
C611 C610 1.369 . S
C611 C612 1.410 . S
C611 C619 1.503 . S
C612 C611 1.410 . S
C612 C613 1.392 . S
C612 C615 1.511 . S
C613 C609 1.376 . S
C613 C612 1.392 . S
C613 H625 0.929 . S
C614 C610 1.531 . S
C614 H626 0.960 . S
C614 H627 0.962 . S
C614 H628 0.960 . S
C615 C612 1.511 . S
C615 H629 0.961 . S
C615 H630 0.961 . S
C615 H631 0.961 . S
C616 C617 1.370 . S
C616 C618 1.363 . S
C616 H632 0.931 . S
C617 C616 1.370 . S
C617 C621 1.408 . S
C618 C616 1.363 . S
C618 C619 1.370 . S
C618 C622 1.524 . S
C619 C611 1.503 . S
C619 C618 1.370 . S
C619 C620 1.403 . S
C620 C619 1.403 . S
C620 C621 1.404 . S
C620 C623 1.539 . S
C621 C617 1.408 . S
C621 C620 1.404 . S
C621 H633 0.930 . S
C622 C618 1.524 . S
C622 H634 0.956 . S
C622 H635 0.961 . S
C622 H636 0.961 . S
C623 C620 1.539 . S
C623 H637 0.958 . S
C623 H638 0.961 . S
C623 H639 0.960 . S
H624 C608 0.931 . S
H625 C613 0.929 . S
H626 C614 0.960 . S
H627 C614 0.962 . S
H628 C614 0.960 . S
H629 C615 0.961 . S
H630 C615 0.961 . S
H631 C615 0.961 . S
H632 C616 0.931 . S
H633 C621 0.930 . S
H634 C622 0.956 . S
H635 C622 0.961 . S
H636 C622 0.961 . S
H637 C623 0.958 . S
H638 C623 0.961 . S
H639 C623 0.960 . S
C640 C641 1.391 . S
C640 C642 1.394 . S
C640 H656 0.931 . S
C641 C640 1.391 . S
C641 C645 1.376 . S
C642 C640 1.394 . S
C642 C643 1.369 . S
C642 C646 1.531 . S
C643 C642 1.369 . S
C643 C644 1.410 . S
C643 C651 1.503 . S
C644 C643 1.410 . S
C644 C645 1.392 . S
C644 C647 1.511 . S
C645 C641 1.376 . S
C645 C644 1.392 . S
C645 H657 0.929 . S
C646 C642 1.531 . S
C646 H658 0.960 . S
C646 H659 0.962 . S
C646 H660 0.960 . S
C647 C644 1.511 . S
C647 H661 0.961 . S
C647 H662 0.961 . S
C647 H663 0.961 . S
C648 C649 1.370 . S
C648 C650 1.363 . S
C648 H664 0.931 . S
C649 C648 1.370 . S
C649 C653 1.408 . S
C650 C648 1.363 . S
C650 C651 1.370 . S
C650 C654 1.524 . S
C651 C643 1.503 . S
C651 C650 1.370 . S
C651 C652 1.403 . S
C652 C651 1.403 . S
C652 C653 1.404 . S
C652 C655 1.539 . S
C653 C649 1.408 . S
C653 C652 1.404 . S
C653 H665 0.930 . S
C654 C650 1.524 . S
C654 H666 0.956 . S
C654 H667 0.961 . S
C654 H668 0.961 . S
C655 C652 1.539 . S
C655 H669 0.958 . S
C655 H670 0.961 . S
C655 H671 0.960 . S
H656 C640 0.931 . S
H657 C645 0.929 . S
H658 C646 0.960 . S
H659 C646 0.962 . S
H660 C646 0.960 . S
H661 C647 0.961 . S
H662 C647 0.961 . S
H663 C647 0.961 . S
H664 C648 0.931 . S
H665 C653 0.930 . S
H666 C654 0.956 . S
H667 C654 0.961 . S
H668 C654 0.961 . S
H669 C655 0.958 . S
H670 C655 0.961 . S
H671 C655 0.960 . S
C672 C673 1.391 . S
C672 C674 1.394 . S
C672 H688 0.931 . S
C673 C672 1.391 . S
C673 C677 1.376 . S
C674 C672 1.394 . S
C674 C675 1.369 . S
C674 C678 1.531 . S
C675 C674 1.369 . S
C675 C676 1.410 . S
C675 C683 1.503 . S
C676 C675 1.410 . S
C676 C677 1.392 . S
C676 C679 1.511 . S
C677 C673 1.376 . S
C677 C676 1.392 . S
C677 H689 0.929 . S
C678 C674 1.531 . S
C678 H690 0.960 . S
C678 H691 0.962 . S
C678 H692 0.960 . S
C679 C676 1.511 . S
C679 H693 0.961 . S
C679 H694 0.961 . S
C679 H695 0.961 . S
C680 C681 1.370 . S
C680 C682 1.363 . S
C680 H696 0.931 . S
C681 C680 1.370 . S
C681 C685 1.408 . S
C682 C680 1.363 . S
C682 C683 1.370 . S
C682 C686 1.524 . S
C683 C675 1.503 . S
C683 C682 1.370 . S
C683 C684 1.403 . S
C684 C683 1.403 . S
C684 C685 1.404 . S
C684 C687 1.539 . S
C685 C681 1.408 . S
C685 C684 1.404 . S
C685 H697 0.930 . S
C686 C682 1.524 . S
C686 H698 0.956 . S
C686 H699 0.961 . S
C686 H700 0.961 . S
C687 C684 1.539 . S
C687 H701 0.958 . S
C687 H702 0.961 . S
C687 H703 0.960 . S
H688 C672 0.931 . S
H689 C677 0.929 . S
H690 C678 0.960 . S
H691 C678 0.962 . S
H692 C678 0.960 . S
H693 C679 0.961 . S
H694 C679 0.961 . S
H695 C679 0.961 . S
H696 C680 0.931 . S
H697 C685 0.930 . S
H698 C686 0.956 . S
H699 C686 0.961 . S
H700 C686 0.961 . S
H701 C687 0.958 . S
H702 C687 0.961 . S
H703 C687 0.960 . S
C704 C705 1.391 . S
C704 C706 1.394 . S
C704 H720 0.931 . S
C705 C704 1.391 . S
C705 C709 1.376 . S
C706 C704 1.394 . S
C706 C707 1.369 . S
C706 C710 1.531 . S
C707 C706 1.369 . S
C707 C708 1.410 . S
C707 C715 1.503 . S
C708 C707 1.410 . S
C708 C709 1.392 . S
C708 C711 1.511 . S
C709 C705 1.376 . S
C709 C708 1.392 . S
C709 H721 0.929 . S
C710 C706 1.531 . S
C710 H722 0.960 . S
C710 H723 0.962 . S
C710 H724 0.960 . S
C711 C708 1.511 . S
C711 H725 0.961 . S
C711 H726 0.961 . S
C711 H727 0.961 . S
C712 C713 1.370 . S
C712 C714 1.363 . S
C712 H728 0.931 . S
C713 C712 1.370 . S
C713 C717 1.408 . S
C714 C712 1.363 . S
C714 C715 1.370 . S
C714 C718 1.524 . S
C715 C707 1.503 . S
C715 C714 1.370 . S
C715 C716 1.403 . S
C716 C715 1.403 . S
C716 C717 1.404 . S
C716 C719 1.539 . S
C717 C713 1.408 . S
C717 C716 1.404 . S
C717 H729 0.930 . S
C718 C714 1.524 . S
C718 H730 0.956 . S
C718 H731 0.961 . S
C718 H732 0.961 . S
C719 C716 1.539 . S
C719 H733 0.958 . S
C719 H734 0.961 . S
C719 H735 0.960 . S
H720 C704 0.931 . S
H721 C709 0.929 . S
H722 C710 0.960 . S
H723 C710 0.962 . S
H724 C710 0.960 . S
H725 C711 0.961 . S
H726 C711 0.961 . S
H727 C711 0.961 . S
H728 C712 0.931 . S
H729 C717 0.930 . S
H730 C718 0.956 . S
H731 C718 0.961 . S
H732 C718 0.961 . S
H733 C719 0.958 . S
H734 C719 0.961 . S
H735 C719 0.960 . S
C736 C737 1.391 . S
C736 C738 1.394 . S
C736 H752 0.931 . S
C737 C736 1.391 . S
C737 C741 1.376 . S
C738 C736 1.394 . S
C738 C739 1.369 . S
C738 C742 1.531 . S
C739 C738 1.369 . S
C739 C740 1.410 . S
C739 C747 1.503 . S
C740 C739 1.410 . S
C740 C741 1.392 . S
C740 C743 1.511 . S
C741 C737 1.376 . S
C741 C740 1.392 . S
C741 H753 0.929 1_556 S
C742 C738 1.531 . S
C742 H754 0.960 . S
C742 H755 0.962 . S
C742 H756 0.960 . S
C743 C740 1.511 . S
C743 H757 0.961 1_556 S
C743 H758 0.961 . S
C743 H759 0.961 . S
C744 C745 1.370 . S
C744 C746 1.363 . S
C744 H760 0.931 . S
C745 C744 1.370 . S
C745 C749 1.408 . S
C746 C744 1.363 . S
C746 C747 1.370 . S
C746 C750 1.524 . S
C747 C739 1.503 . S
C747 C746 1.370 . S
C747 C748 1.403 . S
C748 C747 1.403 . S
C748 C749 1.404 . S
C748 C751 1.539 . S
C749 C745 1.408 . S
C749 C748 1.404 . S
C749 H761 0.930 . S
C750 C746 1.524 . S
C750 H762 0.956 . S
C750 H763 0.961 . S
C750 H764 0.961 . S
C751 C748 1.539 . S
C751 H765 0.958 . S
C751 H766 0.961 . S
C751 H767 0.960 . S
H752 C736 0.931 . S
H753 C741 0.929 1_554 S
H754 C742 0.960 . S
H755 C742 0.962 . S
H756 C742 0.960 . S
H757 C743 0.961 1_554 S
H758 C743 0.961 . S
H759 C743 0.961 . S
H760 C744 0.931 . S
H761 C749 0.930 . S
H762 C750 0.956 . S
H763 C750 0.961 . S
H764 C750 0.961 . S
H765 C751 0.958 . S
H766 C751 0.961 . S
H767 C751 0.960 . S
C768 C769 1.391 . S
C768 C770 1.394 . S
C768 H784 0.931 . S
C769 C768 1.391 . S
C769 C773 1.376 . S
C770 C768 1.394 . S
C770 C771 1.369 . S
C770 C774 1.531 . S
C771 C770 1.369 . S
C771 C772 1.410 . S
C771 C779 1.503 . S
C772 C771 1.410 . S
C772 C773 1.392 . S
C772 C775 1.511 . S
C773 C769 1.376 . S
C773 C772 1.392 . S
C773 H785 0.929 . S
C774 C770 1.531 . S
C774 H786 0.960 . S
C774 H787 0.962 . S
C774 H788 0.960 . S
C775 C772 1.511 . S
C775 H789 0.961 . S
C775 H790 0.961 . S
C775 H791 0.961 . S
C776 C777 1.370 . S
C776 C778 1.363 . S
C776 H792 0.931 . S
C777 C776 1.370 . S
C777 C781 1.408 . S
C778 C776 1.363 . S
C778 C779 1.370 . S
C778 C782 1.524 . S
C779 C771 1.503 . S
C779 C778 1.370 . S
C779 C780 1.403 . S
C780 C779 1.403 . S
C780 C781 1.404 . S
C780 C783 1.539 . S
C781 C777 1.408 . S
C781 C780 1.404 . S
C781 H793 0.930 . S
C782 C778 1.524 . S
C782 H794 0.956 . S
C782 H795 0.961 . S
C782 H796 0.961 . S
C783 C780 1.539 . S
C783 H797 0.958 . S
C783 H798 0.961 . S
C783 H799 0.960 . S
H784 C768 0.931 . S
H785 C773 0.929 . S
H786 C774 0.960 . S
H787 C774 0.962 . S
H788 C774 0.960 . S
H789 C775 0.961 . S
H790 C775 0.961 . S
H791 C775 0.961 . S
H792 C776 0.931 . S
H793 C781 0.930 . S
H794 C782 0.956 . S
H795 C782 0.961 . S
H796 C782 0.961 . S
H797 C783 0.958 . S
H798 C783 0.961 . S
H799 C783 0.960 . S
C800 C801 1.391 . S
C800 C802 1.394 . S
C800 H816 0.931 . S
C801 C800 1.391 . S
C801 C805 1.376 . S
C802 C800 1.394 . S
C802 C803 1.369 . S
C802 C806 1.531 . S
C803 C802 1.369 . S
C803 C804 1.410 . S
C803 C811 1.503 . S
C804 C803 1.410 . S
C804 C805 1.392 . S
C804 C807 1.511 . S
C805 C801 1.376 . S
C805 C804 1.392 . S
C805 H817 0.929 . S
C806 C802 1.531 . S
C806 H818 0.960 . S
C806 H819 0.962 . S
C806 H820 0.960 . S
C807 C804 1.511 . S
C807 H821 0.961 . S
C807 H822 0.961 . S
C807 H823 0.961 . S
C808 C809 1.370 . S
C808 C810 1.363 . S
C808 H824 0.931 . S
C809 C808 1.370 . S
C809 C813 1.408 . S
C810 C808 1.363 . S
C810 C811 1.370 . S
C810 C814 1.524 . S
C811 C803 1.503 . S
C811 C810 1.370 . S
C811 C812 1.403 . S
C812 C811 1.403 . S
C812 C813 1.404 . S
C812 C815 1.539 . S
C813 C809 1.408 . S
C813 C812 1.404 . S
C813 H825 0.930 . S
C814 C810 1.524 . S
C814 H826 0.956 . S
C814 H827 0.961 . S
C814 H828 0.961 . S
C815 C812 1.539 . S
C815 H829 0.958 . S
C815 H830 0.961 . S
C815 H831 0.960 . S
H816 C800 0.931 . S
H817 C805 0.929 . S
H818 C806 0.960 . S
H819 C806 0.962 . S
H820 C806 0.960 . S
H821 C807 0.961 . S
H822 C807 0.961 . S
H823 C807 0.961 . S
H824 C808 0.931 . S
H825 C813 0.930 . S
H826 C814 0.956 . S
H827 C814 0.961 . S
H828 C814 0.961 . S
H829 C815 0.958 . S
H830 C815 0.961 . S
H831 C815 0.960 . S
C832 C833 1.391 1_565 S
C832 C834 1.394 . S
C832 H848 0.931 . S
C833 C832 1.391 1_545 S
C833 C837 1.376 1_655 S
C834 C832 1.394 . S
C834 C835 1.369 1_655 S
C834 C838 1.531 . S
C835 C834 1.369 1_455 S
C835 C836 1.410 1_565 S
C835 C843 1.503 1_556 S
C836 C835 1.410 1_545 S
C836 C837 1.392 . S
C836 C839 1.511 . S
C837 C833 1.376 1_455 S
C837 C836 1.392 . S
C837 H849 0.929 . S
C838 C834 1.531 . S
C838 H850 0.960 . S
C838 H851 0.962 . S
C838 H852 0.960 . S
C839 C836 1.511 . S
C839 H853 0.961 . S
C839 H854 0.961 1_556 S
C839 H855 0.961 . S
C840 C841 1.357 1_645 S
C840 C842 1.364 . S
C840 H856 0.944 . S
C841 C840 1.357 1_465 S
C841 C845 1.408 . S
C842 C840 1.364 . S
C842 C843 1.370 1_645 S
C842 C846 1.524 . S
C843 C835 1.503 1_554 S
C843 C842 1.370 1_465 S
C843 C844 1.403 . S
C844 C843 1.403 . S
C844 C845 1.404 . S
C844 C847 1.539 1_554 S
C845 C841 1.408 . S
C845 C844 1.404 . S
C845 H857 0.930 . S
C846 C842 1.524 . S
C846 H858 0.956 . S
C846 H859 0.961 . S
C846 H860 0.961 . S
C847 C844 1.539 1_556 S
C847 H861 0.958 . S
C847 H862 0.961 1_556 S
C847 H863 0.960 . S
H848 C832 0.931 . S
H849 C837 0.929 . S
H850 C838 0.960 . S
H851 C838 0.962 . S
H852 C838 0.960 . S
H853 C839 0.961 . S
H854 C839 0.961 1_554 S
H855 C839 0.961 . S
H856 C840 0.944 . S
H857 C845 0.930 . S
H858 C846 0.956 . S
H859 C846 0.961 . S
H860 C846 0.961 . S
H861 C847 0.958 . S
H862 C847 0.961 1_554 S
H863 C847 0.960 . S
C864 C865 1.391 . S
C864 C866 1.394 . S
C864 H880 0.931 . S
C865 C864 1.391 . S
C865 C869 1.376 . S
C866 C864 1.394 . S
C866 C867 1.369 . S
C866 C870 1.531 . S
C867 C866 1.369 . S
C867 C868 1.410 . S
C867 C875 1.503 . S
C868 C867 1.410 . S
C868 C869 1.392 . S
C868 C871 1.511 . S
C869 C865 1.376 . S
C869 C868 1.392 . S
C869 H881 0.929 . S
C870 C866 1.531 . S
C870 H882 0.960 . S
C870 H883 0.962 . S
C870 H884 0.960 . S
C871 C868 1.511 . S
C871 H885 0.961 . S
C871 H886 0.961 . S
C871 H887 0.961 . S
C872 C873 1.370 . S
C872 C874 1.363 . S
C872 H888 0.931 . S
C873 C872 1.370 . S
C873 C877 1.408 . S
C874 C872 1.363 . S
C874 C875 1.370 . S
C874 C878 1.524 . S
C875 C867 1.503 . S
C875 C874 1.370 . S
C875 C876 1.403 . S
C876 C875 1.403 . S
C876 C877 1.404 . S
C876 C879 1.539 . S
C877 C873 1.408 . S
C877 C876 1.404 . S
C877 H889 0.930 . S
C878 C874 1.524 . S
C878 H890 0.956 . S
C878 H891 0.961 . S
C878 H892 0.961 . S
C879 C876 1.539 . S
C879 H893 0.958 . S
C879 H894 0.961 . S
C879 H895 0.960 . S
H880 C864 0.931 . S
H881 C869 0.929 . S
H882 C870 0.960 . S
H883 C870 0.962 . S
H884 C870 0.960 . S
H885 C871 0.961 . S
H886 C871 0.961 . S
H887 C871 0.961 . S
H888 C872 0.931 . S
H889 C877 0.930 . S
H890 C878 0.956 . S
H891 C878 0.961 . S
H892 C878 0.961 . S
H893 C879 0.958 . S
H894 C879 0.961 . S
H895 C879 0.960 . S
C896 C897 1.390 1_565 S
C896 C898 1.394 . S
C896 H912 0.931 . S
C897 C896 1.390 1_545 S
C897 C901 1.378 . S
C898 C896 1.394 . S
C898 C899 1.369 1_565 S
C898 C902 1.531 . S
C899 C898 1.369 1_545 S
C899 C900 1.410 . S
C899 C907 1.503 . S
C900 C899 1.410 . S
C900 C901 1.392 . S
C900 C903 1.511 . S
C901 C897 1.378 . S
C901 C900 1.392 . S
C901 H913 0.929 . S
C902 C898 1.531 . S
C902 H914 0.960 1_565 S
C902 H915 0.962 . S
C902 H916 0.960 . S
C903 C900 1.511 . S
C903 H917 0.961 . S
C903 H918 0.961 . S
C903 H919 0.961 . S
C904 C905 1.370 1_565 S
C904 C906 1.363 . S
C904 H920 0.931 . S
C905 C904 1.370 1_545 S
C905 C909 1.408 . S
C906 C904 1.363 . S
C906 C907 1.370 1_565 S
C906 C910 1.524 . S
C907 C899 1.503 . S
C907 C906 1.370 1_545 S
C907 C908 1.403 . S
C908 C907 1.403 . S
C908 C909 1.404 . S
C908 C911 1.539 . S
C909 C905 1.408 . S
C909 C908 1.404 . S
C909 H921 0.930 . S
C910 C906 1.524 . S
C910 H922 0.956 . S
C910 H923 0.961 . S
C910 H924 0.961 . S
C911 C908 1.539 . S
C911 H925 0.958 . S
C911 H926 0.961 . S
C911 H927 0.960 . S
H912 C896 0.931 . S
H913 C901 0.929 . S
H914 C902 0.960 1_545 S
H915 C902 0.962 . S
H916 C902 0.960 . S
H917 C903 0.961 . S
H918 C903 0.961 . S
H919 C903 0.961 . S
H920 C904 0.931 . S
H921 C909 0.930 . S
H922 C910 0.956 . S
H923 C910 0.961 . S
H924 C910 0.961 . S
H925 C911 0.958 . S
H926 C911 0.961 . S
H927 C911 0.960 . S
C928 C929 1.391 . S
C928 C930 1.394 . S
C928 H944 0.931 . S
C929 C928 1.391 . S
C929 C933 1.376 . S
C930 C928 1.394 . S
C930 C931 1.369 . S
C930 C934 1.531 . S
C931 C930 1.369 . S
C931 C932 1.410 . S
C931 C939 1.503 . S
C932 C931 1.410 . S
C932 C933 1.392 . S
C932 C935 1.511 . S
C933 C929 1.376 . S
C933 C932 1.392 . S
C933 H945 0.929 . S
C934 C930 1.531 . S
C934 H946 0.960 . S
C934 H947 0.962 . S
C934 H948 0.960 . S
C935 C932 1.511 . S
C935 H949 0.961 . S
C935 H950 0.961 . S
C935 H951 0.961 . S
C936 C937 1.370 . S
C936 C938 1.363 . S
C936 H952 0.931 . S
C937 C936 1.370 . S
C937 C941 1.408 . S
C938 C936 1.363 . S
C938 C939 1.370 . S
C938 C942 1.524 . S
C939 C931 1.503 . S
C939 C938 1.370 . S
C939 C940 1.403 . S
C940 C939 1.403 . S
C940 C941 1.404 . S
C940 C943 1.539 . S
C941 C937 1.408 . S
C941 C940 1.404 . S
C941 H953 0.930 . S
C942 C938 1.524 . S
C942 H954 0.956 . S
C942 H955 0.961 . S
C942 H956 0.961 . S
C943 C940 1.539 . S
C943 H957 0.958 . S
C943 H958 0.961 . S
C943 H959 0.960 . S
H944 C928 0.931 . S
H945 C933 0.929 . S
H946 C934 0.960 . S
H947 C934 0.962 . S
H948 C934 0.960 . S
H949 C935 0.961 . S
H950 C935 0.961 . S
H951 C935 0.961 . S
H952 C936 0.931 . S
H953 C941 0.930 . S
H954 C942 0.956 . S
H955 C942 0.961 . S
H956 C942 0.961 . S
H957 C943 0.958 . S
H958 C943 0.961 . S
H959 C943 0.960 . S
C960 C961 1.391 . S
C960 C962 1.394 . S
C960 H976 0.931 . S
C961 C960 1.391 . S
C961 C965 1.376 . S
C962 C960 1.394 . S
C962 C963 1.369 . S
C962 C966 1.531 . S
C963 C962 1.369 . S
C963 C964 1.410 . S
C963 C971 1.503 . S
C964 C963 1.410 . S
C964 C965 1.392 . S
C964 C967 1.511 . S
C965 C961 1.376 . S
C965 C964 1.392 . S
C965 H977 0.929 . S
C966 C962 1.531 . S
C966 H978 0.960 . S
C966 H979 0.962 . S
C966 H980 0.960 . S
C967 C964 1.511 . S
C967 H981 0.961 . S
C967 H982 0.961 . S
C967 H983 0.961 . S
C968 C969 1.370 . S
C968 C970 1.363 . S
C968 H984 0.931 . S
C969 C968 1.370 . S
C969 C973 1.408 . S
C970 C968 1.363 . S
C970 C971 1.370 . S
C970 C974 1.524 . S
C971 C963 1.503 . S
C971 C970 1.370 . S
C971 C972 1.403 . S
C972 C971 1.403 . S
C972 C973 1.404 . S
C972 C975 1.539 . S
C973 C969 1.408 . S
C973 C972 1.404 . S
C973 H985 0.930 . S
C974 C970 1.524 . S
C974 H986 0.956 . S
C974 H987 0.961 . S
C974 H988 0.961 . S
C975 C972 1.539 . S
C975 H989 0.958 . S
C975 H990 0.961 . S
C975 H991 0.960 . S
H976 C960 0.931 . S
H977 C965 0.929 . S
H978 C966 0.960 . S
H979 C966 0.962 . S
H980 C966 0.960 . S
H981 C967 0.961 . S
H982 C967 0.961 . S
H983 C967 0.961 . S
H984 C968 0.931 . S
H985 C973 0.930 . S
H986 C974 0.956 . S
H987 C974 0.961 . S
H988 C974 0.961 . S
H989 C975 0.958 . S
H990 C975 0.961 . S
H991 C975 0.960 . S
C992 C993 1.391 . S
C992 C994 1.394 . S
C992 H1008 0.931 . S
C993 C992 1.391 . S
C993 C997 1.376 . S
C994 C992 1.394 . S
C994 C995 1.369 . S
C994 C998 1.531 . S
C995 C994 1.369 . S
C995 C996 1.410 . S
C995 C1003 1.503 . S
C996 C995 1.410 . S
C996 C997 1.392 . S
C996 C999 1.511 . S
C997 C993 1.376 . S
C997 C996 1.392 . S
C997 H1009 0.929 . S
C998 C994 1.531 . S
C998 H1010 0.960 . S
C998 H1011 0.962 . S
C998 H1012 0.960 . S
C999 C996 1.511 . S
C999 H1013 0.961 . S
C999 H1014 0.961 . S
C999 H1015 0.961 . S
C1000 C1001 1.370 . S
C1000 C1002 1.363 . S
C1000 H1016 0.931 . S
C1001 C1000 1.370 . S
C1001 C1005 1.408 . S
C1002 C1000 1.363 . S
C1002 C1003 1.370 . S
C1002 C1006 1.524 . S
C1003 C995 1.503 . S
C1003 C1002 1.370 . S
C1003 C1004 1.403 . S
C1004 C1003 1.403 . S
C1004 C1005 1.404 . S
C1004 C1007 1.539 . S
C1005 C1001 1.408 . S
C1005 C1004 1.404 . S
C1005 H1017 0.930 . S
C1006 C1002 1.524 . S
C1006 H1018 0.956 . S
C1006 H1019 0.961 . S
C1006 H1020 0.961 . S
C1007 C1004 1.539 . S
C1007 H1021 0.958 . S
C1007 H1022 0.961 . S
C1007 H1023 0.960 . S
H1008 C992 0.931 . S
H1009 C997 0.929 . S
H1010 C998 0.960 . S
H1011 C998 0.962 . S
H1012 C998 0.960 . S
H1013 C999 0.961 . S
H1014 C999 0.961 . S
H1015 C999 0.961 . S
H1016 C1000 0.931 . S
H1017 C1005 0.930 . S
H1018 C1006 0.956 . S
H1019 C1006 0.961 . S
H1020 C1006 0.961 . S
H1021 C1007 0.958 . S
H1022 C1007 0.961 . S
H1023 C1007 0.960 . S
C1024 C1025 1.391 . S
C1024 C1026 1.394 . S
C1024 H1040 0.931 . S
C1025 C1024 1.391 . S
C1025 C1029 1.376 . S
C1026 C1024 1.394 . S
C1026 C1027 1.369 . S
C1026 C1030 1.531 . S
C1027 C1026 1.369 . S
C1027 C1028 1.410 . S
C1027 C1035 1.503 . S
C1028 C1027 1.410 . S
C1028 C1029 1.392 . S
C1028 C1031 1.511 . S
C1029 C1025 1.376 . S
C1029 C1028 1.392 . S
C1029 H1041 0.929 . S
C1030 C1026 1.531 . S
C1030 H1042 0.960 . S
C1030 H1043 0.962 . S
C1030 H1044 0.960 . S
C1031 C1028 1.511 . S
C1031 H1045 0.961 . S
C1031 H1046 0.961 . S
C1031 H1047 0.961 . S
C1032 C1033 1.370 . S
C1032 C1034 1.363 . S
C1032 H1048 0.931 . S
C1033 C1032 1.370 . S
C1033 C1037 1.408 . S
C1034 C1032 1.363 . S
C1034 C1035 1.370 . S
C1034 C1038 1.524 . S
C1035 C1027 1.503 . S
C1035 C1034 1.370 . S
C1035 C1036 1.403 . S
C1036 C1035 1.403 . S
C1036 C1037 1.404 . S
C1036 C1039 1.539 . S
C1037 C1033 1.408 . S
C1037 C1036 1.404 . S
C1037 H1049 0.930 . S
C1038 C1034 1.524 . S
C1038 H1050 0.956 . S
C1038 H1051 0.961 . S
C1038 H1052 0.961 . S
C1039 C1036 1.539 . S
C1039 H1053 0.958 . S
C1039 H1054 0.961 . S
C1039 H1055 0.960 . S
H1040 C1024 0.931 . S
H1041 C1029 0.929 . S
H1042 C1030 0.960 . S
H1043 C1030 0.962 . S
H1044 C1030 0.960 . S
H1045 C1031 0.961 . S
H1046 C1031 0.961 . S
H1047 C1031 0.961 . S
H1048 C1032 0.931 . S
H1049 C1037 0.930 . S
H1050 C1038 0.956 . S
H1051 C1038 0.961 . S
H1052 C1038 0.961 . S
H1053 C1039 0.958 . S
H1054 C1039 0.961 . S
H1055 C1039 0.960 . S
C1056 C1057 1.391 . S
C1056 C1058 1.394 . S
C1056 H1072 0.931 . S
C1057 C1056 1.391 . S
C1057 C1061 1.376 1_655 S
C1058 C1056 1.394 . S
C1058 C1059 1.369 . S
C1058 C1062 1.531 . S
C1059 C1058 1.369 . S
C1059 C1060 1.410 1_655 S
C1059 C1067 1.503 1_656 S
C1060 C1059 1.410 1_455 S
C1060 C1061 1.392 . S
C1060 C1063 1.511 . S
C1061 C1057 1.376 1_455 S
C1061 C1060 1.392 . S
C1061 H1073 0.929 . S
C1062 C1058 1.531 . S
C1062 H1074 0.960 . S
C1062 H1075 0.962 . S
C1062 H1076 0.960 . S
C1063 C1060 1.511 . S
C1063 H1077 0.961 . S
C1063 H1078 0.961 1_556 S
C1063 H1079 0.961 . S
C1064 C1065 1.370 . S
C1064 C1066 1.363 1_455 S
C1064 H1080 0.928 1_455 S
C1065 C1064 1.370 . S
C1065 C1069 1.408 . S
C1066 C1064 1.363 1_655 S
C1066 C1067 1.370 1_655 S
C1066 C1070 1.524 . S
C1067 C1059 1.503 1_454 S
C1067 C1066 1.370 1_455 S
C1067 C1068 1.403 . S
C1068 C1067 1.403 . S
C1068 C1069 1.404 . S
C1068 C1071 1.539 . S
C1069 C1065 1.408 . S
C1069 C1068 1.404 . S
C1069 H1081 0.930 . S
C1070 C1066 1.524 . S
C1070 H1082 0.956 . S
C1070 H1083 0.961 . S
C1070 H1084 0.961 . S
C1071 C1068 1.539 . S
C1071 H1085 0.958 . S
C1071 H1086 0.961 . S
C1071 H1087 0.960 1_554 S
H1072 C1056 0.931 . S
H1073 C1061 0.929 . S
H1074 C1062 0.960 . S
H1075 C1062 0.962 . S
H1076 C1062 0.960 . S
H1077 C1063 0.961 . S
H1078 C1063 0.961 1_554 S
H1079 C1063 0.961 . S
H1080 C1064 0.928 1_655 S
H1081 C1069 0.930 . S
H1082 C1070 0.956 . S
H1083 C1070 0.961 . S
H1084 C1070 0.961 . S
H1085 C1071 0.958 . S
H1086 C1071 0.961 . S
H1087 C1071 0.960 1_556 S
C321 C2 2.011 . S
C329 C122 2.005 . S
C353 C10 1.519 . S
C361 C42 1.525 . S
C385 C50 0.920 . S
C393 C90 0.952 . S
C417 C82 1.529 . S
C425 C130 1.505 . S
C449 C11 2.003 . S
C457 C211 2.018 . S
C481 C19 1.527 . S
C489 C171 1.522 . S
C513 C179 0.955 . S
C521 C99 0.921 . S
C545 C219 1.510 . S
C553 C91 1.532 . S
C577 C242 2.010 . S
C585 C202 2.011 . S
C609 C162 1.519 . S
C617 C250 1.515 . S
C641 C290 0.912 . S
C649 C170 0.951 . S
C673 C210 1.523 . S
C681 C282 1.526 . S
C705 C131 2.003 . S
C713 C251 2.012 . S
C737 C259 1.523 . S
C745 C51 1.526 . S
C769 C59 0.913 . S
C777 C299 0.926 . S
C801 C139 1.497 . S
C809 C291 1.529 . S
C833 C16 1.547 . S
C841 C7 1.590 . S
C865 C47 1.462 . S
C873 C56 1.448 . S
C897 C96 1.436 1_545 S
C905 C87 1.455 . S
C929 C136 1.547 . S
C937 C127 1.589 . S
C961 C167 1.438 . S
C969 C176 1.455 . S
C993 C216 1.598 . S
C1001 C207 1.567 . S
C1025 C247 1.571 . S
C1033 C256 1.578 . S
C1057 C287 1.434 . S
C1065 C296 1.460 . S
