# Generated by pormake.
# Topology unn, (4)-cn, num edge types: 1
# Building blocks:
#     Node 0, Type 0, BuildingBlock: MUDLON_clean_sbu_0, # of connection points: 4
#     Node 1, Type 0, BuildingBlock: MUDLON_clean_sbu_0, # of connection points: 4
#     Node 2, Type 0, BuildingBlock: MUDLON_clean_sbu_0, # of connection points: 4
#     Node 3, Type 0, BuildingBlock: MUDLON_clean_sbu_0, # of connection points: 4
#     Node 4, Type 0, BuildingBlock: MUDLON_clean_sbu_0, # of connection points: 4
#     Node 5, Type 0, BuildingBlock: MUDLON_clean_sbu_0, # of connection points: 4
#     Node 6, Type 0, BuildingBlock: MUDLON_clean_sbu_0, # of connection points: 4
#     Node 7, Type 0, BuildingBlock: MUDLON_clean_sbu_0, # of connection points: 4
#     Node 8, Type 0, BuildingBlock: MUDLON_clean_sbu_0, # of connection points: 4
#     Node 9, Type 0, BuildingBlock: MUDLON_clean_sbu_0, # of connection points: 4
#     Node 10, Type 0, BuildingBlock: MUDLON_clean_sbu_0, # of connection points: 4
#     Node 11, Type 0, BuildingBlock: MUDLON_clean_sbu_0, # of connection points: 4
#     Node 12, Type 0, BuildingBlock: MUDLON_clean_sbu_0, # of connection points: 4
#     Node 13, Type 0, BuildingBlock: MUDLON_clean_sbu_0, # of connection points: 4
#     Node 14, Type 0, BuildingBlock: MUDLON_clean_sbu_0, # of connection points: 4
#     Node 15, Type 0, BuildingBlock: MUDLON_clean_sbu_0, # of connection points: 4
#     Node 16, Type 0, BuildingBlock: MUDLON_clean_sbu_0, # of connection points: 4
#     Node 17, Type 0, BuildingBlock: MUDLON_clean_sbu_0, # of connection points: 4
#     Edge 18, Type (0, 0), BuildingBlock: XUDNAN_clean_linker_2, # of connection points: 2
#     Edge 19, Type (0, 0), BuildingBlock: XUDNAN_clean_linker_2, # of connection points: 2
#     Edge 20, Type (0, 0), BuildingBlock: XUDNAN_clean_linker_2, # of connection points: 2
#     Edge 21, Type (0, 0), BuildingBlock: XUDNAN_clean_linker_2, # of connection points: 2
#     Edge 22, Type (0, 0), BuildingBlock: XUDNAN_clean_linker_2, # of connection points: 2
#     Edge 23, Type (0, 0), BuildingBlock: XUDNAN_clean_linker_2, # of connection points: 2
#     Edge 24, Type (0, 0), BuildingBlock: XUDNAN_clean_linker_2, # of connection points: 2
#     Edge 25, Type (0, 0), BuildingBlock: XUDNAN_clean_linker_2, # of connection points: 2
#     Edge 26, Type (0, 0), BuildingBlock: XUDNAN_clean_linker_2, # of connection points: 2
#     Edge 27, Type (0, 0), BuildingBlock: XUDNAN_clean_linker_2, # of connection points: 2
#     Edge 28, Type (0, 0), BuildingBlock: XUDNAN_clean_linker_2, # of connection points: 2
#     Edge 29, Type (0, 0), BuildingBlock: XUDNAN_clean_linker_2, # of connection points: 2
#     Edge 30, Type (0, 0), BuildingBlock: XUDNAN_clean_linker_2, # of connection points: 2
#     Edge 31, Type (0, 0), BuildingBlock: XUDNAN_clean_linker_2, # of connection points: 2
#     Edge 32, Type (0, 0), BuildingBlock: XUDNAN_clean_linker_2, # of connection points: 2
#     Edge 33, Type (0, 0), BuildingBlock: XUDNAN_clean_linker_2, # of connection points: 2
#     Edge 34, Type (0, 0), BuildingBlock: XUDNAN_clean_linker_2, # of connection points: 2
#     Edge 35, Type (0, 0), BuildingBlock: XUDNAN_clean_linker_2, # of connection points: 2
#     Edge 36, Type (0, 0), BuildingBlock: XUDNAN_clean_linker_2, # of connection points: 2
#     Edge 37, Type (0, 0), BuildingBlock: XUDNAN_clean_linker_2, # of connection points: 2
#     Edge 38, Type (0, 0), BuildingBlock: XUDNAN_clean_linker_2, # of connection points: 2
#     Edge 39, Type (0, 0), BuildingBlock: XUDNAN_clean_linker_2, # of connection points: 2
#     Edge 40, Type (0, 0), BuildingBlock: XUDNAN_clean_linker_2, # of connection points: 2
#     Edge 41, Type (0, 0), BuildingBlock: XUDNAN_clean_linker_2, # of connection points: 2
#     Edge 42, Type (0, 0), BuildingBlock: XUDNAN_clean_linker_2, # of connection points: 2
#     Edge 43, Type (0, 0), BuildingBlock: XUDNAN_clean_linker_2, # of connection points: 2
#     Edge 44, Type (0, 0), BuildingBlock: XUDNAN_clean_linker_2, # of connection points: 2
#     Edge 45, Type (0, 0), BuildingBlock: XUDNAN_clean_linker_2, # of connection points: 2
#     Edge 46, Type (0, 0), BuildingBlock: XUDNAN_clean_linker_2, # of connection points: 2
#     Edge 47, Type (0, 0), BuildingBlock: XUDNAN_clean_linker_2, # of connection points: 2
#     Edge 48, Type (0, 0), BuildingBlock: XUDNAN_clean_linker_2, # of connection points: 2
#     Edge 49, Type (0, 0), BuildingBlock: XUDNAN_clean_linker_2, # of connection points: 2
#     Edge 50, Type (0, 0), BuildingBlock: XUDNAN_clean_linker_2, # of connection points: 2
#     Edge 51, Type (0, 0), BuildingBlock: XUDNAN_clean_linker_2, # of connection points: 2
#     Edge 52, Type (0, 0), BuildingBlock: XUDNAN_clean_linker_2, # of connection points: 2
#     Edge 53, Type (0, 0), BuildingBlock: XUDNAN_clean_linker_2, # of connection points: 2
# Relax obj value: 0.098
# Max RMSD: 0.215
# Mean RMSD: 0.212
data_MOF--net-unn--node1-MUDLON_clean_sbu_0--edge1-XUDNAN_clean_linker_2
_symmetry_space_group_name_H-M    P1
_symmetry_Int_Tables_number       1
_symmetry_cell_setting            triclinic
loop_
_symmetry_equiv_pos_as_xyz
'x, y, z'
_cell_length_a     48.228532
_cell_length_b     48.284697
_cell_length_c     41.627314
_cell_angle_alpha  90.494197
_cell_angle_beta   89.794383
_cell_angle_gamma 120.35566
loop_
_atom_site_label
_atom_site_type_symbol
_atom_site_fract_x
_atom_site_fract_y
_atom_site_fract_z
_atom_type_partial_charge
Mg0 Mg 0.97384 0.7181 0.24759 0.0
C1 C 1.0169 0.73681 0.1901 0.0
O2 O 0.0317 0.7638 0.20656 0.0
C3 C 0.95165 0.67953 0.30645 0.0
O4 O 0.94345 0.70128 0.31197 0.0
C5 C 0.90268 0.69155 0.23405 0.0
O6 O 0.9013 0.6673 0.24952 0.0
O7 O 0.92968 0.71772 0.23229 0.0
O8 O 0.99254 0.71269 0.20224 0.0
O9 O 1.01546 0.75654 0.27446 0.0
C10 C 0.03456 0.74633 0.28138 0.0
O11 O 0.02758 0.71794 0.27038 0.0
O12 O 0.96195 0.67801 0.27874 0.0
Mg13 Mg 0.34054 0.26995 0.24926 0.0
C14 C 0.39189 0.29846 0.29798 0.0
O15 O 0.38225 0.26778 0.3003 0.0
C16 C 0.35359 0.30214 0.18251 0.0
O17 O 0.38403 0.31715 0.19085 0.0
C18 C 0.30152 0.2918 0.2844 0.0
O19 O 0.32518 0.31782 0.27151 0.0
O20 O 0.3003 0.26505 0.27909 0.0
O21 O 0.38096 0.30758 0.27522 0.0
O22 O 0.34878 0.22933 0.24069 0.0
C23 C 0.37331 0.23514 0.22376 0.0
O24 O 0.39232 0.26462 0.21386 0.0
O25 O 0.3324 0.28333 0.20225 0.0
Mg26 Mg 0.80248 0.07648 0.24994 0.0
C27 C 0.77964 0.08976 0.30974 0.0
O28 O 0.81095 0.10429 0.31364 0.0
C29 C 0.79154 0.04554 0.18422 0.0
O30 O 0.81206 0.03768 0.19541 0.0
C31 C 0.78563 1.01035 0.27047 0.0
O32 O 0.76349 1.00467 0.24895 0.0
O33 O 0.80835 0.03931 0.2748 0.0
O34 O 0.76788 0.07712 0.28258 0.0
O35 O 0.84076 0.12729 0.24306 0.0
C36 C 0.85469 0.13666 0.21586 0.0
O37 O 0.84981 0.11496 0.19392 0.0
O38 O 0.78206 0.0604 0.20239 0.0
Mg39 Mg 0.97903 0.26608 0.74479 0.0
C40 C 0.91333 0.23069 0.7154 0.0
O41 O 0.92747 0.2581 0.70002 0.0
C42 C 0.04179 0.2869 0.77599 0.0
O43 O 0.04389 0.31348 0.76548 0.0
C44 C 1.01701 0.28124 0.68312 0.0
O45 O 0.03036 0.26719 0.69831 0.0
O46 O 0.9961 0.28542 0.69745 0.0
O47 O 0.92929 0.22601 0.73701 0.0
O48 O 0.97787 0.30101 0.77648 0.0
C49 C 0.96213 0.28993 0.80231 0.0
O50 O 0.94344 0.25871 0.80505 0.0
O51 O 1.01616 0.26026 0.76975 0.0
Mg52 Mg 0.7936 0.72753 0.74627 0.0
C53 C 0.78207 0.77827 0.77147 0.0
O54 O 0.76308 0.76642 0.74636 0.0
C55 C 0.84515 0.71731 0.71421 0.0
O56 O 0.84476 0.73785 0.694 0.0
C57 C 0.76056 0.69398 0.80282 0.0
O58 O 0.79018 0.71501 0.81126 0.0
O59 O 0.75325 0.69076 0.77311 0.0
O60 O 0.80201 0.7688 0.77688 0.0
O61 O 0.78301 0.73774 0.69853 0.0
C62 C 0.77294 0.71876 0.67447 0.0
O63 O 0.76545 0.68875 0.67794 0.0
O64 O 0.82843 0.71079 0.73984 0.0
Mg65 Mg 0.34501 0.07997 0.75265 0.0
C66 C 0.32642 0.06263 0.68301 0.0
O67 O 0.32099 0.08661 0.68545 0.0
C68 C 0.39365 0.10328 0.80325 0.0
O69 O 0.38068 0.12136 0.80693 0.0
C70 C 0.37625 0.1434 0.71984 0.0
O71 O 0.38797 0.12738 0.70511 0.0
O72 O 0.35597 0.12965 0.74252 0.0
O73 O 0.33711 0.05485 0.70709 0.0
O74 O 0.30706 0.04422 0.78473 0.0
C75 C 0.31276 0.02148 0.79004 0.0
O76 O 0.33733 0.02227 0.77544 0.0
O77 O 0.38628 0.08536 0.77848 0.0
Mg78 Mg 0.64219 0.05276 0.58118 0.0
C79 C 0.68569 0.06659 0.524 0.0
O80 O 0.70236 0.0939 0.53961 0.0
C81 C 0.63001 0.02755 0.64553 0.0
O82 O 0.62988 0.05467 0.64746 0.0
C83 C 0.57562 0.01474 0.56094 0.0
O84 O 0.58699 0.99536 0.56499 0.0
O85 O 0.59427 0.04455 0.56717 0.0
O86 O 0.6603 0.04416 0.53668 0.0
O87 O 0.68222 0.09553 0.60533 0.0
C88 C 0.70272 0.08856 0.61621 0.0
O89 O 0.69848 0.05999 0.60982 0.0
O90 O 0.63266 0.0175 0.61799 0.0
Mg91 Mg 1.00456 0.60184 0.58128 0.0
C92 C 0.96278 0.62448 0.60673 0.0
O93 O 0.98694 0.64892 0.59232 0.0
C94 C 1.01615 0.55254 0.54716 0.0
O95 O 1.00382 0.56086 0.52365 0.0
C96 C 0.03115 0.62657 0.64287 0.0
O97 O 1.00674 0.59744 0.64716 0.0
O98 O 0.03962 0.63658 0.61437 0.0
O99 O 0.9612 0.59722 0.6052 0.0
O100 O 1.00741 0.62094 0.53354 0.0
C101 C 0.98184 0.61637 0.51995 0.0
O102 O 0.95456 0.60193 0.53574 0.0
O103 O 1.01661 0.56343 0.57536 0.0
Mg104 Mg 0.47132 0.41172 0.58107 0.0
C105 C 0.46122 0.38092 0.51557 0.0
O106 O 0.48276 0.37443 0.52667 0.0
C107 C 0.449 0.42144 0.64211 0.0
O108 O 0.4798 0.43209 0.64617 0.0
C109 C 0.49896 0.48099 0.5684 0.0
O110 O 0.46805 0.46956 0.57267 0.0
O111 O 0.50979 0.46195 0.57228 0.0
O112 O 0.45071 0.39484 0.53378 0.0
O113 O 0.47772 0.37538 0.60682 0.0
C114 C 0.4558 0.34608 0.60262 0.0
O115 O 0.4343 0.3392 0.58001 0.0
O116 O 0.4372 0.41274 0.61409 0.0
Mg117 Mg 0.64194 0.6008 0.07467 0.0
C118 C 0.64576 0.60389 0.00355 0.0
O119 O 0.63019 0.57291 0.00893 0.0
C120 C 0.62199 0.61524 0.13704 0.0
O121 O 0.61341 0.58492 0.1405 0.0
C122 C 0.56971 0.55484 0.0669 0.0
O123 O 0.5694 0.57889 0.08151 0.0
O124 O 0.59644 0.55547 0.06412 0.0
O125 O 0.65449 0.62323 0.02739 0.0
O126 O 0.68788 0.60551 0.09169 0.0
C127 C 0.69494 0.60229 0.12046 0.0
O128 O 0.67198 0.58925 0.14195 0.0
O129 O 0.63284 0.62857 0.11007 0.0
Mg130 Mg 0.46101 0.0558 0.0851 0.0
C131 C 0.4348 0.09166 0.11594 0.0
O132 O 0.41091 0.06566 0.10298 0.0
C133 C 0.49016 0.01579 0.07268 0.0
O134 O 0.45914 0.99575 0.07552 0.0
C135 C 0.43803 0.01743 0.14342 0.0
O136 O 0.46936 0.03377 0.14742 0.0
O137 O 0.42652 0.01884 0.11649 0.0
O138 O 0.46342 0.09741 0.11093 0.0
O139 O 0.44209 0.05243 0.03724 0.0
C140 C 0.44791 0.07774 0.02247 0.0
O141 O 0.46298 0.1055 0.03762 0.0
O142 O 0.50058 0.04569 0.07718 0.0
Mg143 Mg 1.01208 0.41233 0.08184 0.0
C144 C 0.99497 0.37508 0.02162 0.0
O145 O 0.96676 0.36634 0.03429 0.0
C146 C 0.04357 0.43786 0.14256 0.0
O147 O 1.02041 0.44463 0.14118 0.0
C148 C 0.03998 0.48359 0.06736 0.0
O149 O 0.06344 0.48507 0.0846 0.0
O150 O 1.01392 0.45659 0.06441 0.0
O151 O 1.02017 0.3937 0.03756 0.0
O152 O 0.97044 0.3719 0.10626 0.0
C153 C 0.97236 0.34644 0.10754 0.0
O154 O 0.99636 0.34632 0.09266 0.0
O155 O 0.04852 0.42495 0.11816 0.0
Mg156 Mg 0.30929 0.38237 0.9114 0.0
C157 C 0.35262 0.38641 0.85645 0.0
O158 O 0.37511 0.40513 0.87693 0.0
C159 C 0.3283 0.3491 0.95948 0.0
O160 O 0.35653 0.36833 0.94664 0.0
C161 C 0.24098 0.34442 0.89565 0.0
O162 O 0.25119 0.32424 0.9008 0.0
O163 O 0.26088 0.37433 0.89992 0.0
O164 O 0.32345 0.37219 0.86536 0.0
O165 O 0.35165 0.42728 0.92906 0.0
C166 C 0.35889 0.43349 0.9588 0.0
O167 O 0.33699 0.41685 0.9805 0.0
O168 O 0.30352 0.34801 0.94762 0.0
Mg169 Mg 0.66967 0.93422 0.92006 0.0
C170 C 0.72309 0.9659 0.96604 0.0
O171 O 0.71573 0.93577 0.96767 0.0
C172 C 0.66914 0.97245 0.86039 0.0
O173 O 0.68635 0.99849 0.87775 0.0
C174 C 0.63058 0.95506 0.95631 0.0
O175 O 0.65337 0.98099 0.94246 0.0
O176 O 0.62981 0.92849 0.95117 0.0
O177 O 0.70986 0.97378 0.94446 0.0
O178 O 0.68241 0.89643 0.91184 0.0
C179 C 0.69609 0.89851 0.88486 0.0
O180 O 0.70013 0.92127 0.86505 0.0
O181 O 0.65979 0.94509 0.8725 0.0
Mg182 Mg 0.13353 0.74644 0.91634 0.0
C183 C 0.11427 0.76699 0.97693 0.0
O184 O 0.14558 0.78512 0.98002 0.0
C185 C 0.12317 0.73318 0.84584 0.0
O186 O 0.15341 0.74088 0.8481 0.0
C187 C 0.13032 0.69404 0.96128 0.0
O188 O 0.13478 0.71521 0.98369 0.0
O189 O 0.13291 0.70228 0.93182 0.0
O190 O 0.10284 0.75049 0.95143 0.0
O191 O 0.17649 0.79412 0.90773 0.0
C192 C 0.17083 0.81351 0.89222 0.0
O193 O 0.14103 0.80371 0.88378 0.0
O194 O 0.10833 0.73343 0.87103 0.0
Mg195 Mg 0.30749 0.92887 0.4172 0.0
C196 C 0.24361 0.89059 0.38556 0.0
O197 O 0.25158 0.92051 0.38028 0.0
C198 C 0.37276 0.95377 0.4465 0.0
O199 O 0.37316 0.98005 0.43783 0.0
C200 C 0.34685 0.95525 0.35897 0.0
O201 O 0.35858 0.93848 0.37161 0.0
O202 O 0.32522 0.95764 0.37417 0.0
O203 O 0.26325 0.88531 0.40118 0.0
O204 O 0.29225 0.9478 0.45622 0.0
C205 C 0.30431 0.97688 0.46505 0.0
O206 O 0.3257 0.99984 0.44678 0.0
O207 O 0.34787 0.92669 0.4398 0.0
Mg208 Mg 0.13376 0.39526 0.4158 0.0
C209 C 0.11325 0.43683 0.44465 0.0
O210 O 0.0905 0.4167 0.42511 0.0
C211 C 0.15961 0.3531 0.39741 0.0
O212 O 0.1284 0.33389 0.39983 0.0
C213 C 0.10749 0.34989 0.46883 0.0
O214 O 0.1387 0.36349 0.47295 0.0
O215 O 0.09711 0.35646 0.44372 0.0
O216 O 0.13903 0.43546 0.44642 0.0
O217 O 0.11492 0.40213 0.37137 0.0
C218 C 0.12225 0.39819 0.34303 0.0
O219 O 0.14137 0.38651 0.33861 0.0
O220 O 0.17116 0.3829 0.40373 0.0
Mg221 Mg 0.67903 0.73912 0.41243 0.0
C222 C 0.65272 0.72057 0.34719 0.0
O223 O 0.64022 0.73749 0.35811 0.0
C224 C 0.7352 0.76694 0.45695 0.0
O225 O 0.73281 0.79238 0.45136 0.0
C226 C 0.70656 0.80218 0.37717 0.0
O227 O 0.71379 0.78499 0.35805 0.0
O228 O 0.69086 0.78937 0.40294 0.0
O229 O 0.67112 0.71603 0.3655 0.0
O230 O 0.63813 0.70521 0.4425 0.0
C231 C 0.63904 0.67973 0.44857 0.0
O232 O 0.6623 0.67668 0.43573 0.0
O233 O 0.71805 0.74156 0.44058 0.0
H234 H 0.07376 0.77832 0.16072 0.0
H235 H 0.98085 0.6931 0.14362 0.0
H236 H 0.99464 0.69378 0.08635 0.0
H237 H 0.07969 0.81771 0.08631 0.0
H238 H 0.1221 0.8328 0.0814 0.0
H239 H 0.10496 0.82604 0.12109 0.0
H240 H 0.12755 0.78876 0.13399 0.0
H241 H 0.14512 0.79575 0.09452 0.0
H242 H 0.11822 0.7553 0.10767 0.0
H243 H 1.01765 0.70462 0.03097 0.0
H244 H 0.05094 0.72073 0.98209 0.0
H245 H 0.12985 0.79775 0.03553 0.0
C246 C 0.05636 0.75976 0.14493 0.0
C247 C 0.02619 0.73573 0.15652 0.0
C248 C 1.00416 0.71167 0.13523 0.0
C249 C 1.01167 0.71198 0.10265 0.0
C250 C 0.0414 0.73632 0.09188 0.0
C251 C 0.06362 0.75946 0.11243 0.0
C252 C 0.09436 0.78218 0.09493 0.0
C253 C 0.10063 0.81673 0.096 0.0
C254 C 0.123 0.78037 0.10859 0.0
C255 C 0.08589 0.7682 0.06131 0.0
C256 C 0.05509 0.74201 0.06003 0.0
C257 C 0.04185 0.72503 0.03165 0.0
C258 C 0.06093 0.7345 0.00397 0.0
C259 C 0.09305 0.7605 0.00498 0.0
C260 C 0.10539 0.77785 0.03396 0.0
H261 H 0.37755 0.36161 0.00066 0.0
H262 H 0.27391 0.30408 0.98997 0.0
H263 H 0.26947 0.28493 0.04558 0.0
H264 H 0.38719 0.3053 0.05212 0.0
H265 H 0.4182 0.33722 0.07594 0.0
H266 H 0.41335 0.34387 0.03433 0.0
H267 H 0.40775 0.39262 0.05078 0.0
H268 H 0.41217 0.38599 0.09248 0.0
H269 H 0.37733 0.38739 0.07934 0.0
H270 H 0.27582 0.2752 0.10311 0.0
H271 H 0.29256 0.27295 0.15836 0.0
H272 H 0.39222 0.33735 0.1321 0.0
C273 C 0.35397 0.34435 0.00971 0.0
C274 C 0.32606 0.33413 0.9909 0.0
C275 C 0.29561 0.3121 0.0039 0.0
C276 C 0.29285 0.30114 0.03546 0.0
C277 C 0.32075 0.31243 0.05366 0.0
C278 C 0.35076 0.33331 0.04122 0.0
C279 C 0.37677 0.34296 0.06637 0.0
C280 C 0.40026 0.33165 0.05661 0.0
C281 C 0.39454 0.37939 0.07262 0.0
C282 C 0.35663 0.32452 0.09502 0.0
C283 C 0.32441 0.30702 0.08708 0.0
C284 C 0.30099 0.28856 0.10957 0.0
C285 C 0.3108 0.28756 0.14094 0.0
C286 C 0.34375 0.30494 0.14961 0.0
C287 C 0.36689 0.32379 0.12627 0.0
H288 H 0.79341 1.00203 0.14303 0.0
H289 H 0.76832 0.07652 0.14827 0.0
H290 H 0.75433 0.06862 0.09058 0.0
H291 H 0.82666 0.01862 0.062 0.0
H292 H 0.80965 0.97677 0.05179 0.0
H293 H 0.8202 0.99 0.09286 0.0
H294 H 0.76209 0.94942 0.11101 0.0
H295 H 0.75155 0.93581 0.07013 0.0
H296 H 0.72881 0.94999 0.0921 0.0
H297 H 0.74171 0.0516 0.03272 0.0
H298 H 0.72478 0.02214 0.98111 0.0
H299 H 0.75654 0.95765 0.0142 0.0
C300 C 0.78521 0.01685 0.13195 0.0
C301 C 0.78208 0.03998 0.15003 0.0
C302 C 0.77079 0.05857 0.13485 0.0
C303 C 0.76308 0.05447 0.10205 0.0
C304 C 0.76661 0.03157 0.08484 0.0
C305 C 0.77701 1.01277 0.09936 0.0
C306 C 0.77626 0.9881 0.07615 0.0
C307 C 0.81022 0.99373 0.07036 0.0
C308 C 0.7533 0.95381 0.08806 0.0
C309 C 0.76332 0.99561 0.04644 0.0
C310 C 0.7585 0.02116 0.05175 0.0
C311 C 0.74556 0.03169 0.0282 0.0
C312 C 0.73619 0.0149 -0.00113 0.0
C313 C 0.7394 0.98762 0.99359 0.0
C314 C 0.75399 0.97854 0.01742 0.0
H315 H 0.74346 0.1034 0.49412 0.0
H316 H 0.64685 0.02359 0.47806 0.0
H317 H 0.65952 0.02234 0.42066 0.0
H318 H 0.75241 0.14371 0.42046 0.0
H319 H 0.79396 0.15526 0.41498 0.0
H320 H 0.7775 0.14969 0.45487 0.0
H321 H 0.79516 0.10826 0.46688 0.0
H322 H 0.81211 0.11406 0.42719 0.0
H323 H 0.78273 0.07434 0.44026 0.0
H324 H 0.68221 0.0316 0.36436 0.0
H325 H 0.71512 0.04632 0.31495 0.0
H326 H 0.79718 0.11884 0.36866 0.0
C327 C 0.72503 0.08552 0.47857 0.0
C328 C 0.69415 0.06366 0.49049 0.0
C329 C 0.67073 0.04048 0.46945 0.0
C330 C 0.67763 0.03972 0.43678 0.0
C331 C 0.70814 0.06206 0.42567 0.0
C332 C 0.73162 0.08416 0.44605 0.0
C333 C 0.76276 0.10496 0.42833 0.0
C334 C 0.77219 0.14051 0.42975 0.0
C335 C 0.78978 0.1001 0.44144 0.0
C336 C 0.75305 0.09136 0.3947 0.0
C337 C 0.72139 0.06681 0.39356 0.0
C338 C 0.70707 0.0507 0.36498 0.0
C339 C 0.72588 0.05937 0.33701 0.0
C340 C 0.7587 0.08373 0.33796 0.0
C341 C 0.77217 0.10014 0.36714 0.0
H342 H 0.94133 0.63203 0.4903 0.0
H343 H 1.02262 0.61875 0.47291 0.0
H344 H 1.02045 0.62873 0.41501 0.0
H345 H 0.89805 0.59638 0.41695 0.0
H346 H 0.88569 0.62559 0.41171 0.0
H347 H 0.89259 0.61591 0.45149 0.0
H348 H 0.93363 0.67593 0.46278 0.0
H349 H 0.92649 0.68582 0.42325 0.0
H350 H 0.96678 0.69757 0.43557 0.0
H351 H 1.00857 0.63906 0.35896 0.0
H352 H 0.99337 0.65703 0.31019 0.0
H353 H 0.92201 0.66681 0.36495 0.0
C354 C 0.95862 0.63117 0.47425 0.0
C355 C 0.98202 0.62446 0.48588 0.0
C356 C 1.00458 0.62399 0.46437 0.0
C357 C 1.00335 0.62934 0.43147 0.0
C358 C 0.97969 0.63552 0.42067 0.0
C359 C 0.95813 0.63708 0.4415 0.0
C360 C 0.93648 0.6463 0.42416 0.0
C361 C 0.90111 0.61944 0.4262 0.0
C362 C 0.94114 0.67831 0.43721 0.0
C363 C 0.94923 0.64971 0.39028 0.0
C364 C 0.97375 0.64282 0.38866 0.0
C365 C 0.9894 0.64452 0.35992 0.0
C366 C 0.98042 0.65449 0.33229 0.0
C367 C 0.95642 0.66316 0.33381 0.0
C368 C 0.9403 0.66015 0.36308 0.0
H369 H 0.46117 0.33546 0.47582 0.0
H370 H 0.43916 0.41217 0.47858 0.0
H371 H 0.42497 0.4033 0.42093 0.0
H372 H 0.49394 0.34882 0.39491 0.0
H373 H 0.4755 0.30661 0.38565 0.0
H374 H 0.48636 0.32054 0.4265 0.0
H375 H 0.42778 0.28204 0.44489 0.0
H376 H 0.41691 0.26772 0.40423 0.0
H377 H 0.3953 0.28366 0.42543 0.0
H378 H 0.41267 0.38572 0.36324 0.0
H379 H 0.39564 0.35581 0.31189 0.0
H380 H 0.42313 0.28883 0.34749 0.0
C381 C 0.45358 0.35052 0.46419 0.0
C382 C 0.45144 0.37463 0.48151 0.0
C383 C 0.44087 0.3935 0.46571 0.0
C384 C 0.43305 0.38884 0.43293 0.0
C385 C 0.43564 0.36501 0.41644 0.0
C386 C 0.44514 0.34581 0.43164 0.0
C387 C 0.44334 0.32015 0.40913 0.0
C388 C 0.47678 0.32429 0.40373 0.0
C389 C 0.4194 0.2864 0.42166 0.0
C390 C 0.43104 0.32772 0.37898 0.0
C391 C 0.42737 0.35408 0.38351 0.0
C392 C 0.41553 0.36512 0.35936 0.0
C393 C 0.40612 0.34808 0.33018 0.0
C394 C 0.40811 0.32001 0.32566 0.0
C395 C 0.42151 0.31029 0.35016 0.0
H396 H 0.92783 0.27722 0.85801 0.0
H397 H 1.0164 0.34822 0.81251 0.0
H398 H 0.03495 0.37759 0.86407 0.0
H399 H 0.91966 0.33398 0.9112 0.0
H400 H 0.90351 0.30554 0.94355 0.0
H401 H 0.8967 0.29156 0.90249 0.0
H402 H 0.92113 0.25579 0.91504 0.0
H403 H 0.92863 0.27015 0.95594 0.0
H404 H 0.9612 0.27394 0.93136 0.0
H405 H 0.04605 0.39601 0.92193 0.0
H406 H 0.04542 0.40673 0.98009 0.0
H407 H 0.9487 0.32492 0.98689 0.0
C408 C 0.95084 0.29931 0.85874 0.0
C409 C 0.97063 0.31048 0.83127 0.0
C410 C 1.00067 0.3394 0.83318 0.0
C411 C 1.01153 0.35611 0.86242 0.0
C412 C 0.99187 0.34381 0.88933 0.0
C413 C 0.96186 0.31647 0.88758 0.0
C414 C 0.94546 0.30817 0.92 0.0
C415 C 0.91451 0.30994 0.91926 0.0
C416 C 0.93872 0.27506 0.93123 0.0
C417 C 0.97113 0.33484 0.94037 0.0
C418 C 0.99785 0.35498 0.92234 0.0
C419 C 0.0251 0.38065 0.93623 0.0
C420 C 0.02464 0.38638 0.96928 0.0
C421 C 0.99697 0.36671 0.98787 0.0
C422 C 0.97009 0.34047 0.9732 0.0
H423 H 0.6975 0.66038 0.98309 0.0
H424 H 0.61498 0.57218 0.94889 0.0
H425 H 0.63301 0.58745 0.89291 0.0
H426 H 0.70276 0.71183 0.91473 0.0
H427 H 0.74606 0.73295 0.91481 0.0
H428 H 0.72426 0.71726 0.95176 0.0
H429 H 0.75395 0.68575 0.96079 0.0
H430 H 0.77562 0.70112 0.92383 0.0
H431 H 0.75233 0.65841 0.93008 0.0
H432 H 0.66218 0.61055 0.84069 0.0
H433 H 0.70116 0.63921 0.79693 0.0
H434 H 0.76542 0.71058 0.86595 0.0
C435 C 0.6828 0.64477 0.96375 0.0
C436 C 0.65471 0.61528 0.97023 0.0
C437 C 0.63655 0.59497 0.94437 0.0
C438 C 0.64653 0.60346 0.9125 0.0
C439 C 0.67482 0.63229 0.90688 0.0
C440 C 0.69268 0.65267 0.93179 0.0
C441 C 0.72358 0.68083 0.91952 0.0
C442 C 0.72418 0.71259 0.92556 0.0
C443 C 0.7531 0.68154 0.93444 0.0
C444 C 0.72064 0.67267 0.88404 0.0
C445 C 0.69214 0.64491 0.87705 0.0
C446 C 0.68452 0.63244 0.84584 0.0
C447 C 0.70676 0.64878 0.82117 0.0
C448 C 0.73636 0.67688 0.82809 0.0
C449 C 0.7431 0.68895 0.85991 0.0
H450 H 0.445 0.12351 0.98662 0.0
H451 H 0.43483 0.02904 0.98002 0.0
H452 H 0.42568 0.028 0.92156 0.0
H453 H 0.38242 0.10731 0.93111 0.0
H454 H 0.40265 0.14715 0.91455 0.0
H455 H 0.41037 0.14104 0.95536 0.0
H456 H 0.47129 0.16895 0.94271 0.0
H457 H 0.46364 0.1747 0.90167 0.0
H458 H 0.485 0.15392 0.91026 0.0
H459 H 0.41702 0.03701 0.86393 0.0
H460 H 0.40266 0.05227 0.81288 0.0
H461 H 0.41691 0.1401 0.85755 0.0
C462 C 0.441 0.10266 0.97285 0.0
C463 C 0.44078 0.07642 0.98781 0.0
C464 C 0.43501 0.04939 0.96905 0.0
C465 C 0.43007 0.04869 0.9358 0.0
C466 C 0.43078 0.07512 0.92173 0.0
C467 C 0.43565 0.10141 0.93973 0.0
C468 C 0.43311 0.12573 0.91916 0.0
C469 C 0.40549 0.13057 0.93073 0.0
C470 C 0.46518 0.15772 0.91841 0.0
C471 C 0.4257 0.10886 0.88685 0.0
C472 C 0.425 0.07996 0.88871 0.0
C473 C 0.41767 0.05967 0.86213 0.0
C474 C 0.40976 0.06867 0.83315 0.0
C475 C 0.40879 0.09745 0.8312 0.0
C476 C 0.41769 0.11809 0.85823 0.0
H477 H 0.3362 0.08558 0.62182 0.0
H478 H 0.29985 0.99806 0.67672 0.0
H479 H 0.28518 0.96634 0.62624 0.0
H480 H 0.27884 0.0538 0.55585 0.0
H481 H 0.30846 0.07626 0.52558 0.0
H482 H 0.31354 0.09201 0.56591 0.0
H483 H 0.3695 0.09692 0.56933 0.0
H484 H 0.36473 0.08151 0.52895 0.0
H485 H 0.3731 0.06213 0.56121 0.0
H486 H 0.27415 0.94438 0.57055 0.0
H487 H 0.27509 0.93339 0.51298 0.0
H488 H 0.32306 0.03562 0.49348 0.0
C489 C 0.32488 0.0597 0.62307 0.0
C490 C 0.31875 0.04404 0.65294 0.0
C491 C 0.30465 1.01032 0.65393 0.0
C492 C 0.29603 0.99217 0.62547 0.0
C493 C 0.30225 1.00826 0.59633 0.0
C494 C 0.31693 0.04129 0.59485 0.0
C495 C 0.3236 0.05277 0.56038 0.0
C496 C 0.30499 0.06971 0.55141 0.0
C497 C 0.35988 0.07461 0.55464 0.0
C498 C 0.3105 0.02099 0.54274 0.0
C499 C 0.29766 0.99566 0.56399 0.0
C500 C 0.28421 0.96399 0.55366 0.0
C501 C 0.28477 0.95804 0.5208 0.0
C502 C 0.29928 0.98368 0.49863 0.0
C503 C 0.31177 0.01553 0.50979 0.0
H504 H 0.06961 0.29022 0.64919 0.0
H505 H 0.98043 0.29104 0.63981 0.0
H506 H 0.99131 0.3031 0.58206 0.0
H507 H 0.11521 0.3566 0.59798 0.0
H508 H 0.13888 0.34066 0.58132 0.0
H509 H 0.1227 0.32971 0.62122 0.0
H510 H 0.09487 0.26957 0.60497 0.0
H511 H 0.11068 0.28041 0.56485 0.0
H512 H 0.06802 0.25529 0.57096 0.0
H513 H 1.01236 0.31603 0.52563 0.0
H514 H 0.04505 0.33526 0.47627 0.0
H515 H 0.12124 0.32772 0.5231 0.0
C516 C 0.05228 0.29272 0.63492 0.0
C517 C 1.02413 0.28956 0.64889 0.0
C518 C 1.00222 0.29347 0.62958 0.0
C519 C 1.00805 0.30004 0.59672 0.0
C520 C 0.03596 0.30283 0.58363 0.0
C521 C 0.05791 0.29969 0.6022 0.0
C522 C 0.08714 0.30612 0.58281 0.0
C523 C 0.11778 0.33499 0.59665 0.0
C524 C 0.09035 0.27605 0.58078 0.0
C525 C 0.07838 0.31376 0.55054 0.0
C526 C 0.04852 0.31118 0.55134 0.0
C527 C 0.03572 0.318 0.52464 0.0
C528 C 0.0544 0.32874 0.49666 0.0
C529 C 0.08566 0.33294 0.49585 0.0
C530 C 0.09736 0.32459 0.52294 0.0
H531 H 0.72514 0.71344 0.48979 0.0
H532 H 0.77942 0.81761 0.49257 0.0
H533 H 0.79746 0.81613 0.54754 0.0
H534 H 0.69607 0.70288 0.56719 0.0
H535 H 0.69877 0.66785 0.57612 0.0
H536 H 0.69384 0.67637 0.53523 0.0
H537 H 0.74516 0.67558 0.51847 0.0
H538 H 0.75001 0.66644 0.55924 0.0
H539 H 0.78233 0.70074 0.53955 0.0
H540 H 0.80361 0.80393 0.60394 0.0
H541 H 0.80187 0.7817 0.65738 0.0
H542 H 0.74415 0.68511 0.61875 0.0
C543 C 0.74175 0.73592 0.50153 0.0
C544 C 0.7511 0.76569 0.48679 0.0
C545 C 0.77211 0.79456 0.50331 0.0
C546 C 0.78244 0.79397 0.53457 0.0
C547 C 0.77168 0.7643 0.54893 0.0
C548 C 0.75221 0.73575 0.53286 0.0
C549 C 0.74235 0.70722 0.55468 0.0
C550 C 0.70558 0.68744 0.55852 0.0
C551 C 0.75577 0.68626 0.54224 0.0
C552 C 0.75861 0.72429 0.58574 0.0
C553 C 0.77546 0.75719 0.58176 0.0
C554 C 0.79097 0.7782 0.60726 0.0
C555 C 0.78962 0.7653 0.6376 0.0
C556 C 0.77297 0.73164 0.64228 0.0
C557 C 0.75732 0.71092 0.61589 0.0
H558 H 0.41245 0.4146 0.8292 0.0
H559 H 0.31088 0.35725 0.80617 0.0
H560 H 0.32425 0.36114 0.74844 0.0
H561 H 0.43464 0.46833 0.76411 0.0
H562 H 0.47274 0.47079 0.75727 0.0
H563 H 0.45539 0.46241 0.79688 0.0
H564 H 0.45828 0.41025 0.79886 0.0
H565 H 0.47611 0.41876 0.75946 0.0
H566 H 0.44016 0.38091 0.76703 0.0
H567 H 0.34878 0.37344 0.69283 0.0
H568 H 0.38297 0.38926 0.64424 0.0
H569 H 0.46804 0.43829 0.70435 0.0
C570 C 0.393 0.40254 0.8121 0.0
C571 C 0.36064 0.38566 0.82224 0.0
C572 C 0.33591 0.37026 0.799 0.0
C573 C 0.34321 0.37244 0.76613 0.0
C574 C 0.37535 0.38995 0.75693 0.0
C575 C 0.39985 0.40438 0.77927 0.0
C576 C 0.43239 0.4218 0.7632 0.0
C577 C 0.4498 0.45797 0.77082 0.0
C578 C 0.45294 0.40704 0.7727 0.0
C579 C 0.42239 0.41515 0.7283 0.0
C580 C 0.3894 0.39684 0.7251 0.0
C581 C 0.37466 0.38771 0.69505 0.0
C582 C 0.39424 0.39696 0.66758 0.0
C583 C 0.42815 0.41503 0.67048 0.0
C584 C 0.44219 0.42453 0.70128 0.0
H585 H 0.65057 0.05595 0.70404 0.0
H586 H 0.61562 0.96528 0.65361 0.0
H587 H 0.62146 0.94103 0.70354 0.0
H588 H 0.71064 0.05086 0.74943 0.0
H589 H 0.70575 0.06997 0.78463 0.0
H590 H 0.69739 0.0795 0.74542 0.0
H591 H 0.63996 0.06406 0.76379 0.0
H592 H 0.6481 0.05457 0.8031 0.0
H593 H 0.61399 0.0249 0.7805 0.0
H594 H 0.63052 0.92694 0.75921 0.0
H595 H 0.64423 0.92415 0.81562 0.0
H596 H 0.67577 0.02518 0.8286 0.0
C597 C 0.64371 0.03085 0.70356 0.0
C598 C 0.63217 1.01226 0.67516 0.0
C599 C 0.6243 0.97979 0.67525 0.0
C600 C 0.62754 0.96589 0.70344 0.0
C601 C 0.63913 0.985 0.73103 0.0
C602 C 0.64733 0.01685 0.7312 0.0
C603 C 0.66047 0.03261 0.76352 0.0
C604 C 0.69565 0.05984 0.76057 0.0
C605 C 0.63936 0.04474 0.77861 0.0
C606 C 0.65788 1.00447 0.78182 0.0
C607 C 0.64544 0.97723 0.76267 0.0
C608 C 0.64036 0.94812 0.77438 0.0
C609 C 0.64816 0.9468 0.80651 0.0
C610 C 0.66109 0.97447 0.82655 0.0
C611 C 0.66608 1.00367 0.81388 0.0
H612 H 0.14524 0.72211 0.7891 0.0
H613 H 0.0623 0.72024 0.83254 0.0
H614 H 0.03222 0.69901 0.78197 0.0
H615 H 0.13286 0.74292 0.70641 0.0
H616 H 0.14563 0.71729 0.68798 0.0
H617 H 0.16226 0.73637 0.72613 0.0
H618 H 0.14465 0.68089 0.75104 0.0
H619 H 0.12799 0.66168 0.71308 0.0
H620 H 0.1031 0.64953 0.7485 0.0
H621 H 1.00905 0.67202 0.73016 0.0
H622 H 0.99407 0.6407 0.67959 0.0
H623 H 0.09186 0.66076 0.66831 0.0
C624 C 0.12098 0.71788 0.78776 0.0
C625 C 0.10613 0.7229 0.81475 0.0
C626 C 0.07418 0.7166 0.81218 0.0
C627 C 0.05695 0.70469 0.7835 0.0
C628 C 0.07207 0.69945 0.75755 0.0
C629 C 0.1034 0.70595 0.75928 0.0
C630 C 0.11305 0.69566 0.72873 0.0
C631 C 0.14005 0.7248 0.71128 0.0
C632 C 0.12275 0.67044 0.73577 0.0
C633 C 0.08184 0.68124 0.71006 0.0
C634 C 0.05867 0.68409 0.72707 0.0
C635 C 0.02711 0.67022 0.7163 0.0
C636 C 1.01882 0.65246 0.68768 0.0
C637 C 0.04202 0.64894 0.67016 0.0
C638 C 0.07405 0.66397 0.68104 0.0
H639 H 0.65519 0.66932 0.32111 0.0
H640 H 0.63695 0.74602 0.29737 0.0
H641 H 0.62681 0.72743 0.24094 0.0
H642 H 0.69447 0.6696 0.247 0.0
H643 H 0.67619 0.62656 0.24513 0.0
H644 H 0.68311 0.64657 0.28348 0.0
H645 H 0.62274 0.61082 0.29746 0.0
H646 H 0.61562 0.59078 0.25911 0.0
H647 H 0.59285 0.60954 0.2706 0.0
H648 H 0.62077 0.70183 0.18656 0.0
H649 H 0.6156 0.66844 0.13885 0.0
H650 H 0.63348 0.60612 0.19887 0.0
C651 C 0.64922 0.68224 0.30395 0.0
C652 C 0.64696 0.70915 0.31351 0.0
C653 C 0.63869 0.72525 0.29053 0.0
C654 C 0.63299 0.71496 0.25841 0.0
C655 C 0.63521 0.68824 0.24974 0.0
C656 C 0.64284 0.6719 0.27186 0.0
C657 C 0.6426 0.64326 0.25645 0.0
C658 C 0.67608 0.64672 0.25811 0.0
C659 C 0.61692 0.61174 0.27182 0.0
C660 C 0.63375 0.64615 0.22226 0.0
C661 C 0.62998 0.67248 0.21878 0.0
C662 C 0.62327 0.68091 0.18904 0.0
C663 C 0.62039 0.66189 0.16213 0.0
C664 C 0.62359 0.63451 0.16538 0.0
C665 C 0.63018 0.62653 0.19587 0.0
H666 H 0.45281 1.00045 0.20034 0.0
H667 H 0.37642 1.00536 0.15081 0.0
H668 H 0.34509 0.99153 0.20122 0.0
H669 H 0.40031 0.93258 0.25149 0.0
H670 H 0.4276 0.94824 0.28509 0.0
H671 H 0.44293 0.95718 0.24468 0.0
H672 H 0.47164 0.01797 0.25828 0.0
H673 H 0.45587 1.00925 0.29852 0.0
H674 H 0.44847 0.03509 0.27345 0.0
H675 H 0.32424 0.98151 0.25847 0.0
H676 H 0.31203 0.96832 0.31605 0.0
H677 H 0.40132 0.96801 0.3269 0.0
C678 C 0.42924 0.99806 0.19997 0.0
C679 C 0.41701 1.00392 0.17172 0.0
C680 C 0.38611 1.00064 0.17215 0.0
C681 C 0.36827 0.99308 0.20072 0.0
C682 C 0.3815 0.98842 0.22843 0.0
C683 C 0.41099 0.99013 0.22808 0.0
C684 C 0.41983 0.98392 0.26097 0.0
C685 C 0.42283 0.95368 0.26052 0.0
C686 C 0.45078 1.01331 0.27353 0.0
C687 C 0.39084 0.97871 0.28 0.0
C688 C 0.36914 0.98176 0.26095 0.0
C689 C 0.34091 0.97876 0.27354 0.0
C690 C 0.33432 0.97155 0.30629 0.0
C691 C 0.3557 0.96708 0.32582 0.0
C692 C 0.38445 0.97114 0.31248 0.0
H693 H 0.12204 0.384 0.27871 0.0
H694 H 0.09777 0.4381 0.34553 0.0
H695 H 0.08031 0.45825 0.30045 0.0
H696 H 0.15035 0.442 0.21322 0.0
H697 H 0.13267 0.4116 0.1823 0.0
H698 H 0.14563 0.40295 0.21953 0.0
H699 H 0.08864 0.35396 0.22831 0.0
H700 H 0.07565 0.3623 0.19101 0.0
H701 H 0.05438 0.35951 0.22765 0.0
H702 H 0.06362 0.47103 0.24928 0.0
H703 H 0.0443 0.47223 0.19493 0.0
H704 H 0.07812 0.40932 0.16049 0.0
C705 C 0.11329 0.40028 0.28377 0.0
C706 C 0.11139 0.40956 0.31563 0.0
C707 C 0.09939 0.43057 0.32135 0.0
C708 C 0.08962 0.44236 0.29588 0.0
C709 C 0.09184 0.43284 0.26481 0.0
C710 C 0.10308 0.41207 0.25858 0.0
C711 C 0.10086 0.40402 0.22304 0.0
C712 C 0.13438 0.41586 0.20868 0.0
C713 C 0.07855 0.3678 0.21717 0.0
C714 C 0.08623 0.42318 0.21046 0.0
C715 C 0.08166 0.43993 0.23498 0.0
C716 C 0.06724 0.45822 0.22979 0.0
C717 C 0.05636 0.45874 0.19882 0.0
C718 C 0.05981 0.44097 0.17348 0.0
C719 C 0.07561 0.42355 0.17927 0.0
H720 H 0.19891 0.89555 0.34891 0.0
H721 H 0.21647 0.82562 0.39522 0.0
H722 H 0.16369 0.78208 0.37592 0.0
H723 H 0.11344 0.85614 0.36515 0.0
H724 H 0.10371 0.86629 0.32688 0.0
H725 H 0.14248 0.89211 0.34485 0.0
H726 H 0.17044 0.88752 0.29354 0.0
H727 H 0.13179 0.86185 0.27534 0.0
H728 H 0.16035 0.84837 0.27858 0.0
H729 H 0.10982 0.74621 0.35082 0.0
H730 H 0.05936 0.71973 0.32008 0.0
H731 H 0.07555 0.81249 0.28959 0.0
C732 C 0.19168 0.87109 0.35514 0.0
C733 C 0.21199 0.86408 0.37375 0.0
C734 C 0.2015 0.83168 0.38108 0.0
C735 C 0.17148 0.80679 0.37028 0.0
C736 C 0.15211 0.81461 0.35213 0.0
C737 C 0.1618 0.84595 0.3445 0.0
C738 C 0.13671 0.84772 0.3239 0.0
C739 C 0.12329 0.86669 0.34124 0.0
C740 C 0.15066 0.86222 0.29088 0.0
C741 C 0.11137 0.81239 0.32095 0.0
C742 C 0.12084 0.79383 0.33758 0.0
C743 C 0.10219 0.76053 0.33782 0.0
C744 C 0.07351 0.74571 0.32018 0.0
C745 C 0.06336 0.76397 0.3024 0.0
C746 C 0.08238 0.79789 0.30327 0.0
H747 H 0.29983 0.34648 0.29932 0.0
H748 H 0.2485 0.24367 0.3154 0.0
H749 H 0.20866 0.24906 0.34849 0.0
H750 H 0.28723 0.37004 0.37865 0.0
H751 H 0.2823 0.40227 0.36383 0.0
H752 H 0.30722 0.39049 0.34228 0.0
H753 H 0.27377 0.38149 0.29068 0.0
H754 H 0.24884 0.39335 0.31201 0.0
H755 H 0.23083 0.35497 0.29179 0.0
H756 H 0.17337 0.26549 0.37811 0.0
H757 H 0.14462 0.29097 0.40131 0.0
H758 H 0.21912 0.38366 0.36679 0.0
C759 C 0.2803 0.32501 0.30987 0.0
C760 C 0.27739 0.29453 0.30468 0.0
C761 C 0.25135 0.26721 0.31896 0.0
C762 C 0.22863 0.27009 0.33785 0.0
C763 C 0.23228 0.30049 0.3424 0.0
C764 C 0.25748 0.32748 0.32881 0.0
C765 C 0.25552 0.35726 0.33674 0.0
C766 C 0.28481 0.38144 0.35655 0.0
C767 C 0.25202 0.37266 0.30597 0.0
C768 C 0.22502 0.34283 0.35672 0.0
C769 C 0.21211 0.31003 0.35972 0.0
C770 C 0.18341 0.29114 0.37604 0.0
C771 C 0.16723 0.30592 0.38915 0.0
C772 C 0.17962 0.33941 0.38612 0.0
C773 C 0.20925 0.35815 0.37002 0.0
H774 H 0.75931 0.94696 0.25472 0.0
H775 H 0.79877 1.01321 0.33513 0.0
H776 H 0.7813 0.96724 0.37214 0.0
H777 H 0.69054 0.886 0.29315 0.0
H778 H 0.69213 0.85317 0.27408 0.0
H779 H 0.70865 0.89118 0.25405 0.0
H780 H 0.7637 0.89429 0.24881 0.0
H781 H 0.74715 0.85598 0.26826 0.0
H782 H 0.78279 0.89028 0.2842 0.0
H783 H 0.75411 0.91223 0.40095 0.0
H784 H 0.72868 0.85506 0.41721 0.0
H785 H 0.71108 0.82605 0.31711 0.0
C786 C 0.76482 0.95184 0.28006 0.0
C787 C 0.78059 0.98372 0.29202 0.0
C788 C 0.78719 0.98906 0.32536 0.0
C789 C 0.77702 0.96303 0.34658 0.0
C790 C 0.76076 0.93178 0.33406 0.0
C791 C 0.75548 0.92624 0.30139 0.0
C792 C 0.73819 0.89062 0.29367 0.0
C793 C 0.70544 0.87961 0.2778 0.0
C794 C 0.75922 0.88231 0.27249 0.0
C795 C 0.73412 0.8768 0.32707 0.0
C796 C 0.74679 0.90077 0.35021 0.0
C797 C 0.74452 0.89339 0.3829 0.0
C798 C 0.72977 0.86085 0.39199 0.0
C799 C 0.71797 0.83613 0.36846 0.0
C800 C 0.72004 0.84443 0.33567 0.0
H801 H 0.89441 0.1644 0.16415 0.0
H802 H 0.85392 0.18735 0.24628 0.0
H803 H 0.87779 0.24326 0.22697 0.0
H804 H 0.96961 0.24066 0.16213 0.0
H805 H 0.9715 0.24095 0.11887 0.0
H806 H 0.95166 0.20336 0.1399 0.0
H807 H 0.90005 0.18603 0.10663 0.0
H808 H 0.91957 0.22377 0.08585 0.0
H809 H 0.88228 0.21111 0.1067 0.0
H810 H 0.90421 0.2969 0.19581 0.0
H811 H 0.93555 0.34351 0.16 0.0
H812 H 0.95972 0.28492 0.1 0.0
C813 C 0.8908 0.18121 0.17835 0.0
C814 C 0.87223 0.17132 0.20683 0.0
C815 C 0.86821 0.19428 0.22456 0.0
C816 C 0.88152 0.22609 0.21361 0.0
C817 C 0.89909 0.2348 0.18501 0.0
C818 C 0.90415 0.21304 0.16797 0.0
C819 C 0.92425 0.22824 0.13823 0.0
C820 C 0.95615 0.22831 0.1399 0.0
C821 C 0.9054 0.21127 0.10755 0.0
C822 C 0.92967 0.26196 0.14098 0.0
C823 C 0.91475 0.26535 0.16788 0.0
C824 C 0.91612 0.29443 0.17483 0.0
C825 C 0.93376 0.32075 0.15421 0.0
C826 C 0.95015 0.31798 0.12717 0.0
C827 C 0.94761 0.28797 0.12051 0.0
H828 H 0.71888 0.59321 0.17693 0.0
H829 H 0.74861 0.6481 0.08881 0.0
H830 H 0.80426 0.67908 0.10947 0.0
H831 H 0.76892 0.65709 0.23073 0.0
H832 H 0.7782 0.63274 0.25604 0.0
H833 H 0.74074 0.61472 0.23436 0.0
H834 H 0.75375 0.57389 0.20775 0.0
H835 H 0.79099 0.59145 0.22975 0.0
H836 H 0.79119 0.58834 0.18657 0.0
H837 H 0.85672 0.70645 0.14161 0.0
H838 H 0.90249 0.72198 0.17859 0.0
H839 H 0.83908 0.64724 0.24426 0.0
C840 C 0.73713 0.61151 0.16178 0.0
C841 C 0.72919 0.61812 0.13114 0.0
C842 C 0.75396 0.64233 0.11222 0.0
C843 C 0.78567 0.66028 0.12389 0.0
C844 C 0.79249 0.6536 0.15446 0.0
C845 C 0.769 0.62935 0.17288 0.0
C846 C 0.78273 0.62628 0.20453 0.0
C847 C 0.76669 0.63312 0.23309 0.0
C848 C 0.77948 0.59302 0.2073 0.0
C849 C 0.81763 0.65254 0.20109 0.0
C850 C 0.82271 0.66843 0.17229 0.0
C851 C 0.85297 0.69398 0.16411 0.0
C852 C 0.87883 0.70286 0.18542 0.0
C853 C 0.87447 0.68592 0.21439 0.0
C854 C 0.84326 0.66072 0.22234 0.0
H855 H 0.42113 0.24034 0.18349 0.0
H856 H 0.34103 0.17151 0.24125 0.0
H857 H 0.35169 0.1288 0.22327 0.0
H858 H 0.40728 0.18869 0.11692 0.0
H859 H 0.44919 0.20395 0.10835 0.0
H860 H 0.43673 0.22947 0.12747 0.0
H861 H 0.47607 0.24018 0.17442 0.0
H862 H 0.48858 0.21456 0.15549 0.0
H863 H 0.47349 0.20678 0.19607 0.0
H864 H 0.36879 0.09304 0.19658 0.0
H865 H 0.38987 0.06615 0.16215 0.0
H866 H 0.45977 0.15773 0.12157 0.0
C867 C 0.40599 0.21636 0.19271 0.0
C868 C 0.38023 0.20939 0.21402 0.0
C869 C 0.3609 0.17756 0.22508 0.0
C870 C 0.36686 0.15314 0.21503 0.0
C871 C 0.39231 0.16085 0.19393 0.0
C872 C 0.41159 0.19169 0.18287 0.0
C873 C 0.43644 0.19327 0.15913 0.0
C874 C 0.43214 0.2045 0.12601 0.0
C875 C 0.47068 0.21499 0.17206 0.0
C876 C 0.42783 0.15833 0.15812 0.0
C877 C 0.4024 0.14019 0.17861 0.0
C878 C 0.38889 0.10709 0.18078 0.0
C879 C 0.40108 0.09203 0.1611 0.0
C880 C 0.42674 0.10985 0.13949 0.0
C881 C 0.4407 0.1436 0.13842 0.0
H882 H 0.75284 0.15092 0.6079 0.0
H883 H 0.71264 0.07165 0.67462 0.0
H884 H 0.76075 0.10031 0.70901 0.0
H885 H 0.83152 0.16548 0.61146 0.0
H886 H 0.85125 0.20859 0.60911 0.0
H887 H 0.81195 0.18414 0.59179 0.0
H888 H 0.79007 0.21396 0.62602 0.0
H889 H 0.82947 0.23885 0.64313 0.0
H890 H 0.79534 0.21638 0.66901 0.0
H891 H 0.81589 0.13491 0.73326 0.0
H892 H 0.87236 0.1746 0.74712 0.0
H893 H 0.87732 0.23151 0.66482 0.0
C894 C 0.75378 0.14026 0.63035 0.0
C895 C 0.72874 0.10936 0.63899 0.0
C896 C 0.73136 0.09552 0.66787 0.0
C897 C 0.75867 0.11157 0.68751 0.0
C898 C 0.78348 0.14152 0.67792 0.0
C899 C 0.78121 0.15595 0.65021 0.0
C900 C 0.81226 0.18734 0.64439 0.0
C901 C 0.82764 0.1863 0.61229 0.0
C902 C 0.80643 0.21582 0.64573 0.0
C903 C 0.83236 0.18798 0.67276 0.0
C904 C 0.81531 0.16138 0.69187 0.0
C905 C 0.82934 0.15607 0.71867 0.0
C906 C 0.86151 0.17866 0.72631 0.0
C907 C 0.87939 0.20633 0.70727 0.0
C908 C 0.86436 0.21083 0.68015 0.0
H909 H 0.95195 0.67429 0.60042 0.0
H910 H 0.92312 0.58899 0.65697 0.0
H911 H 0.89065 0.60375 0.69203 0.0
H912 H 0.96047 0.72657 0.66459 0.0
H913 H 0.94489 0.74767 0.64242 0.0
H914 H 0.96463 0.72962 0.62151 0.0
H915 H 0.9144 0.69701 0.58557 0.0
H916 H 0.89466 0.71529 0.60605 0.0
H917 H 0.87577 0.67219 0.60409 0.0
H918 H 0.86318 0.63055 0.72266 0.0
H919 H 0.83997 0.66318 0.74221 0.0
H920 H 0.88693 0.72991 0.66418 0.0
C921 C 0.93858 0.65845 0.61999 0.0
C922 C 0.94006 0.63038 0.62588 0.0
C923 C 0.92211 0.6104 0.65175 0.0
C924 C 0.90381 0.61877 0.67192 0.0
C925 C 0.90347 0.64705 0.66574 0.0
C926 C 0.92013 0.66628 0.64004 0.0
C927 C 0.91597 0.69531 0.6381 0.0
C928 C 0.94842 0.72664 0.64189 0.0
C929 C 0.8992 0.69491 0.60659 0.0
C930 C 0.89449 0.68972 0.66685 0.0
C931 C 0.88762 0.66191 0.68272 0.0
C932 C 0.86838 0.65224 0.71023 0.0
C933 C 0.85543 0.67107 0.7213 0.0
C934 C 0.86156 0.69921 0.70483 0.0
C935 C 0.88168 0.7086 0.67743 0.0
H936 H 0.38503 0.16465 0.65829 0.0
H937 H 0.39221 0.19705 0.75687 0.0
H938 H 0.41679 0.25337 0.73803 0.0
H939 H 0.4576 0.22968 0.62863 0.0
H940 H 0.44109 0.23126 0.59037 0.0
H941 H 0.42424 0.19388 0.61167 0.0
H942 H 0.36792 0.1882 0.61015 0.0
H943 H 0.38444 0.22523 0.58829 0.0
H944 H 0.36291 0.22052 0.62522 0.0
H945 H 0.44459 0.3072 0.70735 0.0
H946 H 0.46351 0.35158 0.66814 0.0
H947 H 0.43355 0.28264 0.58986 0.0
C948 C 0.3915 0.1836 0.6759 0.0
C949 C 0.38681 0.17656 0.70907 0.0
C950 C 0.39536 0.20192 0.73136 0.0
C951 C 0.4096 0.23398 0.72084 0.0
C952 C 0.41455 0.24018 0.6879 0.0
C953 C 0.40493 0.21548 0.66577 0.0
C954 C 0.41138 0.22804 0.63167 0.0
C955 C 0.43498 0.22025 0.6146 0.0
C956 C 0.37978 0.21472 0.61273 0.0
C957 C 0.42654 0.26378 0.6379 0.0
C958 C 0.42873 0.27048 0.67047 0.0
C959 C 0.44272 0.30207 0.68184 0.0
C960 C 0.45376 0.3272 0.6594 0.0
C961 C 0.45026 0.32061 0.62595 0.0
C962 C 0.43673 0.28845 0.61527 0.0
H963 H 0.24693 0.97955 0.79546 0.0
H964 H 0.33894 1.00333 0.83634 0.0
H965 H 0.31258 0.95441 0.86929 0.0
H966 H 0.19763 0.94161 0.86902 0.0
H967 H 0.1647 0.91079 0.84605 0.0
H968 H 0.19014 0.94978 0.82879 0.0
H969 H 0.20174 0.92305 0.78045 0.0
H970 H 0.17671 0.88406 0.79774 0.0
H971 H 0.21785 0.89712 0.78758 0.0
H972 H 0.27723 0.89992 0.89378 0.0
H973 H 0.2348 0.84542 0.90985 0.0
H974 H 0.16554 0.85624 0.85318 0.0
C975 C 0.26123 0.97498 0.81224 0.0
C976 C 0.29493 0.9956 0.81382 0.0
C977 C 0.31304 0.9881 0.8351 0.0
C978 C 0.29829 0.96028 0.85387 0.0
C979 C 0.26523 0.93984 0.85111 0.0
C980 C 0.2468 0.94692 0.83108 0.0
C981 C 0.21205 0.91968 0.83107 0.0
C982 C 0.18982 0.93115 0.84454 0.0
C983 C 0.20148 0.90513 0.7972 0.0
C984 C 0.21404 0.89617 0.8537 0.0
C985 C 0.2449 0.90828 0.8651 0.0
C986 C 0.25286 0.89035 0.8853 0.0
C987 C 0.22863 0.85932 0.89424 0.0
C988 C 0.19672 0.84642 0.88303 0.0
C989 C 0.18956 0.86535 0.86251 0.0
H990 H 0.09941 0.34086 0.79088 0.0
H991 H 0.04485 0.23801 0.80653 0.0
H992 H 0.08874 0.24253 0.84096 0.0
H993 H 0.17719 0.34805 0.78626 0.0
H994 H 0.19759 0.38636 0.80664 0.0
H995 H 0.16171 0.37503 0.7838 0.0
H996 H 0.13561 0.38448 0.834 0.0
H997 H 0.17133 0.39562 0.85708 0.0
H998 H 0.13292 0.36373 0.87071 0.0
H999 H 0.13868 0.25822 0.87329 0.0
H1000 H 0.19183 0.28283 0.899 0.0
H1001 H 0.21483 0.37605 0.86263 0.0
C1002 C 0.09659 0.31919 0.80149 0.0
C1003 C 0.06848 0.28897 0.7959 0.0
C1004 C 0.06602 0.26136 0.81031 0.0
C1005 C 0.09083 0.26375 0.83002 0.0
C1006 C 0.11802 0.29393 0.83516 0.0
C1007 C 0.12113 0.32116 0.82118 0.0
C1008 C 0.15312 0.35063 0.83004 0.0
C1009 C 0.17361 0.36591 0.79989 0.0
C1010 C 0.14792 0.37505 0.84909 0.0
C1011 C 0.16774 0.33575 0.85108 0.0
C1012 C 0.14691 0.30302 0.85379 0.0
C1013 C 0.15509 0.2838 0.87133 0.0
C1014 C 0.18546 0.29811 0.8859 0.0
C1015 C 0.20768 0.33148 0.88302 0.0
C1016 C 0.19836 0.35061 0.8657 0.0
H1017 H 0.75854 0.81761 0.75843 0.0
H1018 H 0.7898 0.78209 0.83742 0.0
H1019 H 0.77028 0.80792 0.87613 0.0
H1020 H 0.77982 0.8949 0.79513 0.0
H1021 H 0.74557 0.8948 0.77781 0.0
H1022 H 0.76354 0.87476 0.75732 0.0
H1023 H 0.70818 0.82222 0.75624 0.0
H1024 H 0.69018 0.84193 0.77725 0.0
H1025 H 0.68706 0.80595 0.79342 0.0
H1026 H 0.74238 0.83493 0.90623 0.0
H1027 H 0.71599 0.86544 0.92376 0.0
H1028 H 0.70547 0.88385 0.82412 0.0
C1029 C 0.76188 0.81576 0.78388 0.0
C1030 C 0.77597 0.79806 0.79488 0.0
C1031 C 0.77962 0.79602 0.8284 0.0
C1032 C 0.76828 0.81035 0.85055 0.0
C1033 C 0.75369 0.82697 0.83879 0.0
C1034 C 0.75111 0.83017 0.80612 0.0
C1035 C 0.73457 0.84905 0.79923 0.0
C1036 C 0.75723 0.88023 0.78133 0.0
C1037 C 0.70314 0.82855 0.78043 0.0
C1038 C 0.72792 0.85591 0.83305 0.0
C1039 C 0.73873 0.84279 0.85571 0.0
C1040 C 0.73416 0.84551 0.88857 0.0
C1041 C 0.71892 0.86265 0.89835 0.0
C1042 C 0.70875 0.87715 0.87536 0.0
C1043 C 0.71315 0.87329 0.84236 0.0
H1044 H 0.55794 0.50899 0.53683 0.0
H1045 H 0.48487 0.5288 0.57205 0.0
H1046 H 0.51339 0.58222 0.54726 0.0
H1047 H 0.62671 0.59206 0.5462 0.0
H1048 H 0.64583 0.5897 0.50984 0.0
H1049 H 0.6212 0.55398 0.53279 0.0
H1050 H 0.58665 0.52649 0.4822 0.0
H1051 H 0.61099 0.5622 0.45922 0.0
H1052 H 0.56812 0.54555 0.46133 0.0
H1053 H 0.54794 0.63266 0.51537 0.0
H1054 H 0.58692 0.67632 0.48023 0.0
H1055 H 0.63739 0.62406 0.4654 0.0
C1056 C 0.54837 0.52485 0.53993 0.0
C1057 C 0.51914 0.51457 0.55662 0.0
C1058 C 0.50717 0.53596 0.55948 0.0
C1059 C 0.52323 0.56648 0.54545 0.0
C1060 C 0.55145 0.57562 0.5285 0.0
C1061 C 0.56411 0.55556 0.52587 0.0
C1062 C 0.5941 0.57081 0.50509 0.0
C1063 C 0.62371 0.577 0.52465 0.0
C1064 C 0.58968 0.55002 0.47519 0.0
C1065 C 0.5959 0.60214 0.4961 0.0
C1066 C 0.5712 0.60458 0.50998 0.0
C1067 C 0.56754 0.63109 0.50454 0.0
C1068 C 0.58975 0.65579 0.48447 0.0
C1069 C 0.61529 0.65382 0.46993 0.0
C1070 C 0.61822 0.62652 0.47606 0.0
H1071 H 0.54694 0.04575 0.53115 0.0
H1072 H 0.52882 0.95207 0.56089 0.0
H1073 H 0.47552 0.92663 0.53557 0.0
H1074 H 0.46391 0.02871 0.54211 0.0
H1075 H 0.46506 0.05105 0.50716 0.0
H1076 H 0.50145 0.06246 0.52916 0.0
H1077 H 0.52819 0.05774 0.47694 0.0
H1078 H 0.4918 0.04605 0.45487 0.0
H1079 H 0.50915 0.02061 0.45442 0.0
H1080 H 0.42481 0.91032 0.50479 0.0
H1081 H 0.37935 0.90516 0.47264 0.0
H1082 H 0.42926 1.00875 0.46245 0.0
C1083 C 0.53152 0.01998 0.53278 0.0
C1084 C 0.54228 1.00102 0.54815 0.0
C1085 C 0.52139 0.96726 0.54926 0.0
C1086 C 0.49092 0.95245 0.53491 0.0
C1087 C 0.48128 0.97157 0.51937 0.0
C1088 C 0.50078 1.00462 0.51836 0.0
C1089 C 0.4846 0.01929 0.49932 0.0
C1090 C 0.47838 0.0417 0.52072 0.0
C1091 C 0.50463 0.03697 0.46963 0.0
C1092 C 0.45329 0.98936 0.48972 0.0
C1093 C 0.45188 0.96209 0.50156 0.0
C1094 C 0.42556 0.93155 0.49551 0.0
C1095 C 0.39985 0.92881 0.47712 0.0
C1096 C 0.40052 0.95643 0.46493 0.0
C1097 C 0.42781 0.98706 0.47137 0.0
H1098 H 0.07206 0.45786 0.43095 0.0
H1099 H 0.13833 0.46379 0.50443 0.0
H1100 H 0.12015 0.49324 0.54 0.0
H1101 H 0.08186 0.53677 0.44547 0.0
H1102 H 0.04023 0.52291 0.43692 0.0
H1103 H 0.05991 0.50393 0.41772 0.0
H1104 H 1.01568 0.44888 0.43926 0.0
H1105 H 0.99616 0.46775 0.45899 0.0
H1106 H 1.00795 0.44383 0.48184 0.0
H1107 H 0.09081 0.51949 0.56875 0.0
H1108 H 0.05855 0.54426 0.58492 0.0
H1109 H 1.01288 0.52084 0.49125 0.0
C1110 C 0.08313 0.46565 0.4544 0.0
C1111 C 0.10669 0.45851 0.46488 0.0
C1112 C 0.12052 0.46926 0.49572 0.0
C1113 C 0.1101 0.48577 0.51616 0.0
C1114 C 0.08609 0.49161 0.50525 0.0
C1115 C 0.07326 0.48224 0.47478 0.0
C1116 C 0.04788 0.49117 0.46831 0.0
C1117 C 0.05809 0.51512 0.44047 0.0
C1118 C 1.01498 0.46111 0.46172 0.0
C1119 C 0.04796 0.50679 0.5 0.0
C1120 C 0.06997 0.50678 0.52121 0.0
C1121 C 0.07371 0.51971 0.55215 0.0
C1122 C 0.05508 0.53355 0.56124 0.0
C1123 C 0.03307 0.53455 0.53943 0.0
C1124 C 0.02942 0.52057 0.50859 0.0
H1125 H 0.38332 0.46414 0.01697 0.0
H1126 H 0.41233 0.44619 0.92401 0.0
H1127 H 0.46842 0.47155 0.94297 0.0
H1128 H 0.45463 0.54312 0.02827 0.0
H1129 H 0.45617 0.53843 0.07102 0.0
H1130 H 0.41818 0.5181 0.05029 0.0
H1131 H 0.40775 0.46341 0.07253 0.0
H1132 H 0.44569 0.48414 0.09337 0.0
H1133 H 0.43749 0.45182 0.06598 0.0
H1134 H 0.52114 0.4954 0.97367 0.0
H1135 H 0.56789 0.52541 0.00964 0.0
H1136 H 0.50617 0.53303 0.08084 0.0
C1137 C 0.40155 0.46589 0.00048 0.0
C1138 C 0.39324 0.45307 0.96891 0.0
C1139 C 0.41793 0.45596 0.94815 0.0
C1140 C 0.44991 0.47008 0.95884 0.0
C1141 C 0.45715 0.48183 0.99027 0.0
C1142 C 0.43382 0.48066 0.01053 0.0
C1143 C 0.44835 0.49669 0.04259 0.0
C1144 C 0.44408 0.52582 0.04837 0.0
C1145 C 0.43393 0.47257 0.07025 0.0
C1146 C 0.48343 0.50693 0.03722 0.0
C1147 C 0.48785 0.49744 0.00715 0.0
C1148 C 0.51797 0.50323 0.99713 0.0
C1149 C 0.54441 0.52008 0.01788 0.0
C1150 C 0.54083 0.53167 0.04809 0.0
C1151 C 0.50973 0.52451 0.05791 0.0
H1152 H 0.62745 1.0092 0.96955 0.0
H1153 H 0.58045 0.9076 0.99125 0.0
H1154 H 0.54197 0.91334 0.02632 0.0
H1155 H 0.61907 0.03648 0.04863 0.0
H1156 H 0.61174 0.06693 0.03308 0.0
H1157 H 0.63615 0.05507 0.01067 0.0
H1158 H 0.59903 0.0419 0.96118 0.0
H1159 H 0.57464 0.05389 0.98335 0.0
H1160 H 0.55648 0.01445 0.96535 0.0
H1161 H 0.50749 0.92994 0.05743 0.0
H1162 H 0.4784 0.95508 0.08069 0.0
H1163 H 0.54808 0.04641 0.0393 0.0
C1164 C 0.60918 0.98807 0.98175 0.0
C1165 C 0.60708 0.95784 0.97758 0.0
C1166 C 0.58263 0.93095 0.99398 0.0
C1167 C 0.56073 0.93405 0.01404 0.0
C1168 C 0.56359 0.96422 0.01757 0.0
C1169 C 0.58719 0.99075 0.00181 0.0
C1170 C 0.58452 0.02029 0.00886 0.0
C1171 C 0.61467 0.04622 0.02635 0.0
C1172 C 0.57829 0.03339 0.97784 0.0
C1173 C 0.55542 1.00622 0.03083 0.0
C1174 C 0.54387 0.97385 0.03563 0.0
C1175 C 0.51649 0.95528 0.05395 0.0
C1176 C 0.50013 0.96985 0.06711 0.0
C1177 C 0.51101 1.00283 0.0621 0.0
C1178 C 0.53945 0.02135 0.04412 0.0
H1179 H 0.13522 0.6695 0.01908 0.0
H1180 H 0.09214 0.64062 0.92447 0.0
H1181 H 0.06209 0.58403 0.94203 0.0
H1182 H 0.14473 0.59969 0.03098 0.0
H1183 H 0.13651 0.59789 0.07342 0.0
H1184 H 0.15453 0.63582 0.05302 0.0
H1185 H 0.10865 0.64443 0.07357 0.0
H1186 H 0.09017 0.60625 0.09354 0.0
H1187 H 0.06751 0.61461 0.06483 0.0
H1188 H 0.03322 0.53048 0.97184 0.0
H1189 H 1.01552 0.48396 0.00795 0.0
H1190 H 0.08049 0.54727 0.08162 0.0
C1191 C 0.1198 0.65122 0.0019 0.0
C1192 C 0.11613 0.65963 0.97032 0.0
C1193 C 0.09567 0.63488 0.94865 0.0
C1194 C 0.07823 0.60264 0.95853 0.0
C1195 C 0.08183 0.59529 0.99006 0.0
C1196 C 0.10274 0.61883 0.01117 0.0
C1197 C 0.10312 0.60451 0.04339 0.0
C1198 C 0.13672 0.60978 0.05062 0.0
C1199 C 0.09168 0.61828 0.07042 0.0
C1200 C 0.07899 0.5693 0.03727 0.0
C1201 C 0.06652 0.56449 0.00655 0.0
C1202 C 0.0431 0.53401 0.99582 0.0
C1203 C 0.03292 0.50772 0.01662 0.0
C1204 C 0.04653 0.5119 0.04764 0.0
C1205 C 0.06961 0.54325 0.05805 0.0
loop_
_geom_bond_atom_site_label_1
_geom_bond_atom_site_label_2
_geom_bond_distance
_geom_bond_site_symmetry_2
_ccdc_geom_bond_type
Mg0 O7 2.141 1_455 S
Mg0 O8 2.048 . S
Mg0 O9 2.048 . S
Mg0 O12 2.141 1_455 S
C1 O2 1.313 . S
C1 O8 1.195 . S
O2 C1 1.313 . S
C3 O4 1.245 . S
C3 O12 1.289 . S
O4 C3 1.245 . S
C5 O6 1.245 . S
C5 O7 1.289 . S
O6 C5 1.245 . S
O7 Mg0 2.141 1_655 S
O7 C5 1.289 . S
O8 Mg0 2.048 . S
O8 C1 1.195 . S
O9 Mg0 2.048 . S
O9 C10 1.195 . S
C10 O9 1.195 . S
C10 O11 1.313 . S
O11 C10 1.313 . S
O12 Mg0 2.141 1_655 S
O12 C3 1.289 . S
Mg13 O20 2.141 . S
Mg13 O21 2.048 . S
Mg13 O22 2.048 . S
Mg13 O25 2.141 . S
C14 O15 1.313 . S
C14 O21 1.195 . S
O15 C14 1.313 . S
C16 O17 1.245 . S
C16 O25 1.289 . S
O17 C16 1.245 . S
C18 O19 1.245 . S
C18 O20 1.289 . S
O19 C18 1.245 . S
O20 Mg13 2.141 . S
O20 C18 1.289 . S
O21 Mg13 2.048 . S
O21 C14 1.195 . S
O22 Mg13 2.048 . S
O22 C23 1.195 . S
C23 O22 1.195 . S
C23 O24 1.313 . S
O24 C23 1.313 . S
O25 Mg13 2.141 . S
O25 C16 1.289 . S
Mg26 O33 2.141 1_545 S
Mg26 O34 2.048 . S
Mg26 O35 2.048 . S
Mg26 O38 2.141 1_545 S
C27 O28 1.313 . S
C27 O34 1.195 . S
O28 C27 1.313 . S
C29 O30 1.245 . S
C29 O38 1.289 . S
O30 C29 1.245 . S
C31 O32 1.245 . S
C31 O33 1.289 . S
O32 C31 1.245 . S
O33 Mg26 2.141 1_565 S
O33 C31 1.289 . S
O34 Mg26 2.048 . S
O34 C27 1.195 . S
O35 Mg26 2.048 . S
O35 C36 1.195 . S
C36 O35 1.195 . S
C36 O37 1.313 . S
O37 C36 1.313 . S
O38 Mg26 2.141 1_565 S
O38 C29 1.289 . S
Mg39 O46 2.141 . S
Mg39 O47 2.048 1_455 S
Mg39 O48 2.046 1_455 S
Mg39 O51 2.141 . S
C40 O41 1.313 . S
C40 O47 1.195 . S
O41 C40 1.313 . S
C42 O43 1.245 . S
C42 O51 1.289 . S
O43 C42 1.245 . S
C44 O45 1.245 . S
C44 O46 1.289 . S
O45 C44 1.245 . S
O46 Mg39 2.141 . S
O46 C44 1.289 . S
O47 Mg39 2.048 1_655 S
O47 C40 1.195 . S
O48 Mg39 2.046 1_655 S
O48 C49 1.199 . S
C49 O48 1.199 . S
C49 O50 1.313 . S
O50 C49 1.313 . S
O51 Mg39 2.141 . S
O51 C42 1.289 . S
Mg52 O59 2.141 . S
Mg52 O60 2.048 . S
Mg52 O61 2.048 . S
Mg52 O64 2.141 . S
C53 O54 1.313 . S
C53 O60 1.195 . S
O54 C53 1.313 . S
C55 O56 1.245 . S
C55 O64 1.289 . S
O56 C55 1.245 . S
C57 O58 1.245 . S
C57 O59 1.289 . S
O58 C57 1.245 . S
O59 Mg52 2.141 . S
O59 C57 1.289 . S
O60 Mg52 2.048 . S
O60 C53 1.195 . S
O61 Mg52 2.048 . S
O61 C62 1.195 . S
C62 O61 1.195 . S
C62 O63 1.313 . S
O63 C62 1.313 . S
O64 Mg52 2.141 . S
O64 C55 1.289 . S
Mg65 O72 2.141 . S
Mg65 O73 2.048 1_545 S
Mg65 O74 2.048 1_545 S
Mg65 O77 2.141 . S
C66 O67 1.313 . S
C66 O73 1.195 . S
O67 C66 1.313 . S
C68 O69 1.245 . S
C68 O77 1.289 . S
O69 C68 1.245 . S
C70 O71 1.245 . S
C70 O72 1.289 . S
O71 C70 1.245 . S
O72 Mg65 2.141 . S
O72 C70 1.289 . S
O73 Mg65 2.048 1_565 S
O73 C66 1.195 . S
O74 Mg65 2.048 1_565 S
O74 C75 1.195 . S
C75 O74 1.195 . S
C75 O76 1.313 . S
O76 C75 1.313 . S
O77 Mg65 2.141 . S
O77 C68 1.289 . S
Mg78 O85 2.141 . S
Mg78 O86 2.048 . S
Mg78 O87 2.048 . S
Mg78 O90 2.141 . S
C79 O80 1.313 . S
C79 O86 1.195 . S
O80 C79 1.313 . S
C81 O82 1.245 . S
C81 O90 1.289 . S
O82 C81 1.245 . S
C83 O84 1.245 . S
C83 O85 1.289 . S
O84 C83 1.245 . S
O85 Mg78 2.141 . S
O85 C83 1.289 . S
O86 Mg78 2.048 . S
O86 C79 1.195 . S
O87 Mg78 2.048 . S
O87 C88 1.195 . S
C88 O87 1.195 . S
C88 O89 1.313 . S
O89 C88 1.313 . S
O90 Mg78 2.141 . S
O90 C81 1.289 . S
Mg91 O98 2.141 . S
Mg91 O99 2.048 . S
Mg91 O100 2.048 . S
Mg91 O103 2.141 . S
C92 O93 1.313 . S
C92 O99 1.195 . S
O93 C92 1.313 . S
C94 O95 1.245 . S
C94 O103 1.289 . S
O95 C94 1.245 . S
C96 O97 1.245 . S
C96 O98 1.289 . S
O97 C96 1.245 . S
O98 Mg91 2.141 . S
O98 C96 1.289 . S
O99 Mg91 2.048 . S
O99 C92 1.195 . S
O100 Mg91 2.048 . S
O100 C101 1.195 . S
C101 O100 1.195 . S
C101 O102 1.313 . S
O102 C101 1.313 . S
O103 Mg91 2.141 . S
O103 C94 1.289 . S
Mg104 O111 2.141 . S
Mg104 O112 2.048 . S
Mg104 O113 2.048 . S
Mg104 O116 2.141 . S
C105 O106 1.313 . S
C105 O112 1.195 . S
O106 C105 1.313 . S
C107 O108 1.245 . S
C107 O116 1.289 . S
O108 C107 1.245 . S
C109 O110 1.245 . S
C109 O111 1.289 . S
O110 C109 1.245 . S
O111 Mg104 2.141 . S
O111 C109 1.289 . S
O112 Mg104 2.048 . S
O112 C105 1.195 . S
O113 Mg104 2.048 . S
O113 C114 1.195 . S
C114 O113 1.195 . S
C114 O115 1.313 . S
O115 C114 1.313 . S
O116 Mg104 2.141 . S
O116 C107 1.289 . S
Mg117 O124 2.141 . S
Mg117 O125 2.048 . S
Mg117 O126 2.048 . S
Mg117 O129 2.141 . S
C118 O119 1.313 . S
C118 O125 1.195 . S
O119 C118 1.313 . S
C120 O121 1.245 . S
C120 O129 1.289 . S
O121 C120 1.245 . S
C122 O123 1.245 . S
C122 O124 1.289 . S
O123 C122 1.245 . S
O124 Mg117 2.141 . S
O124 C122 1.289 . S
O125 Mg117 2.048 . S
O125 C118 1.195 . S
O126 Mg117 2.048 . S
O126 C127 1.195 . S
C127 O126 1.195 . S
C127 O128 1.313 . S
O128 C127 1.313 . S
O129 Mg117 2.141 . S
O129 C120 1.289 . S
Mg130 O137 2.141 . S
Mg130 O138 2.048 . S
Mg130 O139 2.048 . S
Mg130 O142 2.141 . S
C131 O132 1.313 . S
C131 O138 1.195 . S
O132 C131 1.313 . S
C133 O134 1.245 . S
C133 O142 1.289 . S
O134 C133 1.245 . S
C135 O136 1.245 . S
C135 O137 1.289 . S
O136 C135 1.245 . S
O137 Mg130 2.141 . S
O137 C135 1.289 . S
O138 Mg130 2.048 . S
O138 C131 1.195 . S
O139 Mg130 2.048 . S
O139 C140 1.195 . S
C140 O139 1.195 . S
C140 O141 1.313 . S
O141 C140 1.313 . S
O142 Mg130 2.141 . S
O142 C133 1.289 . S
Mg143 O150 2.141 . S
Mg143 O151 2.048 . S
Mg143 O152 2.048 . S
Mg143 O155 2.141 . S
C144 O145 1.313 . S
C144 O151 1.195 . S
O145 C144 1.313 . S
C146 O147 1.245 . S
C146 O155 1.289 . S
O147 C146 1.245 . S
C148 O149 1.245 . S
C148 O150 1.289 . S
O149 C148 1.245 . S
O150 Mg143 2.141 . S
O150 C148 1.289 . S
O151 Mg143 2.048 . S
O151 C144 1.195 . S
O152 Mg143 2.048 . S
O152 C153 1.195 . S
C153 O152 1.195 . S
C153 O154 1.313 . S
O154 C153 1.313 . S
O155 Mg143 2.141 . S
O155 C146 1.289 . S
Mg156 O163 2.141 . S
Mg156 O164 2.048 . S
Mg156 O165 2.048 . S
Mg156 O168 2.141 . S
C157 O158 1.313 . S
C157 O164 1.195 . S
O158 C157 1.313 . S
C159 O160 1.245 . S
C159 O168 1.289 . S
O160 C159 1.245 . S
C161 O162 1.245 . S
C161 O163 1.289 . S
O162 C161 1.245 . S
O163 Mg156 2.141 . S
O163 C161 1.289 . S
O164 Mg156 2.048 . S
O164 C157 1.195 . S
O165 Mg156 2.048 . S
O165 C166 1.195 . S
C166 O165 1.195 . S
C166 O167 1.313 . S
O167 C166 1.313 . S
O168 Mg156 2.141 . S
O168 C159 1.289 . S
Mg169 O176 2.141 . S
Mg169 O177 2.048 . S
Mg169 O178 2.048 . S
Mg169 O181 2.141 . S
C170 O171 1.313 . S
C170 O177 1.195 . S
O171 C170 1.313 . S
C172 O173 1.245 . S
C172 O181 1.289 . S
O173 C172 1.245 . S
C174 O175 1.245 . S
C174 O176 1.289 . S
O175 C174 1.245 . S
O176 Mg169 2.141 . S
O176 C174 1.289 . S
O177 Mg169 2.048 . S
O177 C170 1.195 . S
O178 Mg169 2.048 . S
O178 C179 1.195 . S
C179 O178 1.195 . S
C179 O180 1.313 . S
O180 C179 1.313 . S
O181 Mg169 2.141 . S
O181 C172 1.289 . S
Mg182 O189 2.141 . S
Mg182 O190 2.048 . S
Mg182 O191 2.048 . S
Mg182 O194 2.141 . S
C183 O184 1.313 . S
C183 O190 1.195 . S
O184 C183 1.313 . S
C185 O186 1.245 . S
C185 O194 1.289 . S
O186 C185 1.245 . S
C187 O188 1.245 . S
C187 O189 1.289 . S
O188 C187 1.245 . S
O189 Mg182 2.141 . S
O189 C187 1.289 . S
O190 Mg182 2.048 . S
O190 C183 1.195 . S
O191 Mg182 2.048 . S
O191 C192 1.195 . S
C192 O191 1.195 . S
C192 O193 1.313 . S
O193 C192 1.313 . S
O194 Mg182 2.141 . S
O194 C185 1.289 . S
Mg195 O202 2.141 . S
Mg195 O203 2.048 . S
Mg195 O204 2.048 . S
Mg195 O207 2.141 . S
C196 O197 1.313 . S
C196 O203 1.195 . S
O197 C196 1.313 . S
C198 O199 1.245 . S
C198 O207 1.289 . S
O199 C198 1.245 . S
C200 O201 1.245 . S
C200 O202 1.289 . S
O201 C200 1.245 . S
O202 Mg195 2.141 . S
O202 C200 1.289 . S
O203 Mg195 2.048 . S
O203 C196 1.195 . S
O204 Mg195 2.048 . S
O204 C205 1.195 . S
C205 O204 1.195 . S
C205 O206 1.313 . S
O206 C205 1.313 . S
O207 Mg195 2.141 . S
O207 C198 1.289 . S
Mg208 O215 2.141 . S
Mg208 O216 2.048 . S
Mg208 O217 2.048 . S
Mg208 O220 2.141 . S
C209 O210 1.313 . S
C209 O216 1.195 . S
O210 C209 1.313 . S
C211 O212 1.245 . S
C211 O220 1.289 . S
O212 C211 1.245 . S
C213 O214 1.245 . S
C213 O215 1.289 . S
O214 C213 1.245 . S
O215 Mg208 2.141 . S
O215 C213 1.289 . S
O216 Mg208 2.048 . S
O216 C209 1.195 . S
O217 Mg208 2.048 . S
O217 C218 1.195 . S
C218 O217 1.195 . S
C218 O219 1.313 . S
O219 C218 1.313 . S
O220 Mg208 2.141 . S
O220 C211 1.289 . S
Mg221 O228 2.141 . S
Mg221 O229 2.048 . S
Mg221 O230 2.048 . S
Mg221 O233 2.141 . S
C222 O223 1.313 . S
C222 O229 1.195 . S
O223 C222 1.313 . S
C224 O225 1.245 . S
C224 O233 1.289 . S
O225 C224 1.245 . S
C226 O227 1.245 . S
C226 O228 1.289 . S
O227 C226 1.245 . S
O228 Mg221 2.141 . S
O228 C226 1.289 . S
O229 Mg221 2.048 . S
O229 C222 1.195 . S
O230 Mg221 2.048 . S
O230 C231 1.195 . S
C231 O230 1.195 . S
C231 O232 1.313 . S
O232 C231 1.313 . S
O233 Mg221 2.141 . S
O233 C224 1.289 . S
H234 C246 0.930 . S
H235 C248 0.930 . S
H236 C249 0.930 . S
H237 C253 0.959 . S
H238 C253 0.959 . S
H239 C253 0.961 . S
H240 C254 0.960 . S
H241 C254 0.961 . S
H242 C254 0.959 . S
H243 C257 0.929 . S
H244 C258 0.931 . S
H245 C260 0.930 . S
C246 H234 0.930 . S
C246 C247 1.399 . S
C246 C251 1.399 . S
C247 C246 1.399 . S
C247 C248 1.376 . S
C248 H235 0.930 . S
C248 C247 1.376 . S
C248 C249 1.388 . S
C249 H236 0.930 . S
C249 C248 1.388 . S
C249 C250 1.390 . S
C250 C249 1.390 . S
C250 C251 1.394 . S
C250 C256 1.465 . S
C251 C246 1.399 . S
C251 C250 1.394 . S
C251 C252 1.516 . S
C252 C251 1.516 . S
C252 C253 1.502 . S
C252 C254 1.561 . S
C252 C255 1.526 . S
C253 H237 0.959 . S
C253 H238 0.959 . S
C253 H239 0.961 . S
C253 C252 1.502 . S
C254 H240 0.960 . S
C254 H241 0.961 . S
C254 H242 0.959 . S
C254 C252 1.561 . S
C255 C252 1.526 . S
C255 C256 1.396 . S
C255 C260 1.390 . S
C256 C250 1.465 . S
C256 C255 1.396 . S
C256 C257 1.399 . S
C257 H243 0.929 . S
C257 C256 1.399 . S
C257 C258 1.385 . S
C258 H244 0.931 . S
C258 C257 1.385 . S
C258 C259 1.389 . S
C259 C258 1.389 . S
C259 C260 1.387 . S
C260 H245 0.930 . S
C260 C255 1.390 . S
C260 C259 1.387 . S
H261 C273 0.930 . S
H262 C275 0.930 . S
H263 C276 0.930 . S
H264 C280 0.959 . S
H265 C280 0.959 . S
H266 C280 0.961 . S
H267 C281 0.960 . S
H268 C281 0.961 . S
H269 C281 0.959 . S
H270 C284 0.929 . S
H271 C285 0.931 . S
H272 C287 0.930 . S
C273 H261 0.930 . S
C273 C274 1.399 . S
C273 C278 1.399 . S
C274 C273 1.399 . S
C274 C275 1.376 . S
C275 H262 0.930 . S
C275 C274 1.376 . S
C275 C276 1.388 . S
C276 H263 0.930 . S
C276 C275 1.388 . S
C276 C277 1.390 . S
C277 C276 1.390 . S
C277 C278 1.394 . S
C277 C283 1.465 . S
C278 C273 1.399 . S
C278 C277 1.394 . S
C278 C279 1.516 . S
C279 C278 1.516 . S
C279 C280 1.502 . S
C279 C281 1.561 . S
C279 C282 1.526 . S
C280 H264 0.959 . S
C280 H265 0.959 . S
C280 H266 0.961 . S
C280 C279 1.502 . S
C281 H267 0.960 . S
C281 H268 0.961 . S
C281 H269 0.959 . S
C281 C279 1.561 . S
C282 C279 1.526 . S
C282 C283 1.396 . S
C282 C287 1.390 . S
C283 C277 1.465 . S
C283 C282 1.396 . S
C283 C284 1.399 . S
C284 H270 0.929 . S
C284 C283 1.399 . S
C284 C285 1.385 . S
C285 H271 0.931 . S
C285 C284 1.385 . S
C285 C286 1.389 . S
C286 C285 1.389 . S
C286 C287 1.387 . S
C287 H272 0.930 . S
C287 C282 1.390 . S
C287 C286 1.387 . S
H288 C300 0.930 . S
H289 C302 0.940 . S
H290 C303 0.930 1_545 S
H291 C307 0.959 . S
H292 C307 0.959 . S
H293 C307 0.961 . S
H294 C308 0.960 . S
H295 C308 0.961 . S
H296 C308 0.959 . S
H297 C311 0.929 . S
H298 C312 0.931 . S
H299 C314 0.930 . S
C300 H288 0.930 . S
C300 C301 1.399 . S
C300 C305 1.399 . S
C301 C300 1.399 . S
C301 C302 1.364 1_565 S
C302 H289 0.940 . S
C302 C301 1.364 1_545 S
C302 C303 1.391 1_545 S
C303 H290 0.930 1_565 S
C303 C302 1.391 1_565 S
C303 C304 1.390 . S
C304 C303 1.390 . S
C304 C305 1.394 . S
C304 C310 1.465 . S
C305 C300 1.399 . S
C305 C304 1.394 . S
C305 C306 1.516 . S
C306 C305 1.516 . S
C306 C307 1.502 . S
C306 C308 1.561 . S
C306 C309 1.526 . S
C307 H291 0.959 . S
C307 H292 0.959 . S
C307 H293 0.961 . S
C307 C306 1.502 . S
C308 H294 0.960 . S
C308 H295 0.961 . S
C308 H296 0.959 . S
C308 C306 1.561 . S
C309 C306 1.526 . S
C309 C310 1.396 . S
C309 C314 1.390 . S
C310 C304 1.465 . S
C310 C309 1.396 . S
C310 C311 1.399 . S
C311 H297 0.929 . S
C311 C310 1.399 . S
C311 C312 1.385 . S
C312 H298 0.931 . S
C312 C311 1.385 . S
C312 C313 1.389 . S
C313 C312 1.389 . S
C313 C314 1.387 . S
C314 H299 0.930 . S
C314 C309 1.390 . S
C314 C313 1.387 . S
H315 C327 0.930 . S
H316 C329 0.930 . S
H317 C330 0.930 . S
H318 C334 0.959 . S
H319 C334 0.959 . S
H320 C334 0.961 . S
H321 C335 0.960 . S
H322 C335 0.992 . S
H323 C335 0.959 . S
H324 C338 0.929 . S
H325 C339 0.931 . S
H326 C341 0.930 . S
C327 H315 0.930 . S
C327 C328 1.399 . S
C327 C332 1.399 . S
C328 C327 1.399 . S
C328 C329 1.376 . S
C329 H316 0.930 . S
C329 C328 1.376 . S
C329 C330 1.388 . S
C330 H317 0.930 . S
C330 C329 1.388 . S
C330 C331 1.390 . S
C331 C330 1.390 . S
C331 C332 1.394 . S
C331 C337 1.465 . S
C332 C327 1.399 . S
C332 C331 1.394 . S
C332 C333 1.516 . S
C333 C332 1.516 . S
C333 C334 1.502 . S
C333 C335 1.561 . S
C333 C336 1.526 . S
C334 H318 0.959 . S
C334 H319 0.959 . S
C334 H320 0.961 . S
C334 C333 1.502 . S
C335 H321 0.960 . S
C335 H322 0.992 . S
C335 H323 0.959 . S
C335 C333 1.561 . S
C336 C333 1.526 . S
C336 C337 1.396 . S
C336 C341 1.390 . S
C337 C331 1.465 . S
C337 C336 1.396 . S
C337 C338 1.399 . S
C338 H324 0.929 . S
C338 C337 1.399 . S
C338 C339 1.385 . S
C339 H325 0.931 . S
C339 C338 1.385 . S
C339 C340 1.389 . S
C340 C339 1.389 . S
C340 C341 1.387 . S
C341 H326 0.930 . S
C341 C336 1.390 . S
C341 C340 1.387 . S
H342 C354 0.930 . S
H343 C356 0.930 . S
H344 C357 0.930 . S
H345 C361 0.959 . S
H346 C361 0.959 . S
H347 C361 0.961 . S
H348 C362 0.960 . S
H349 C362 0.961 . S
H350 C362 0.959 . S
H351 C365 0.929 . S
H352 C366 0.931 1_455 S
H353 C368 0.930 . S
C354 H342 0.930 . S
C354 C355 1.399 . S
C354 C359 1.399 . S
C355 C354 1.399 . S
C355 C356 1.376 . S
C356 H343 0.930 . S
C356 C355 1.376 . S
C356 C357 1.388 . S
C357 H344 0.930 . S
C357 C356 1.388 . S
C357 C358 1.390 . S
C358 C357 1.390 . S
C358 C359 1.394 . S
C358 C364 1.465 . S
C359 C354 1.399 . S
C359 C358 1.394 . S
C359 C360 1.516 . S
C360 C359 1.516 . S
C360 C361 1.502 . S
C360 C362 1.561 . S
C360 C363 1.526 . S
C361 H345 0.959 . S
C361 H346 0.959 . S
C361 H347 0.961 . S
C361 C360 1.502 . S
C362 H348 0.960 . S
C362 H349 0.961 . S
C362 H350 0.959 . S
C362 C360 1.561 . S
C363 C360 1.526 . S
C363 C364 1.396 . S
C363 C368 1.390 . S
C364 C358 1.465 . S
C364 C363 1.396 . S
C364 C365 1.399 . S
C365 H351 0.929 . S
C365 C364 1.399 . S
C365 C366 1.385 . S
C366 H352 0.931 1_655 S
C366 C365 1.385 . S
C366 C367 1.389 . S
C367 C366 1.389 . S
C367 C368 1.387 . S
C368 H353 0.930 . S
C368 C363 1.390 . S
C368 C367 1.387 . S
H369 C381 0.930 . S
H370 C383 0.930 . S
H371 C384 0.930 . S
H372 C388 0.959 . S
H373 C388 0.959 . S
H374 C388 0.961 . S
H375 C389 0.960 . S
H376 C389 0.961 . S
H377 C389 0.959 . S
H378 C392 0.929 . S
H379 C393 0.931 . S
H380 C395 0.930 . S
C381 H369 0.930 . S
C381 C382 1.399 . S
C381 C386 1.399 . S
C382 C381 1.399 . S
C382 C383 1.376 . S
C383 H370 0.930 . S
C383 C382 1.376 . S
C383 C384 1.388 . S
C384 H371 0.930 . S
C384 C383 1.388 . S
C384 C385 1.390 . S
C385 C384 1.390 . S
C385 C386 1.394 . S
C385 C391 1.465 . S
C386 C381 1.399 . S
C386 C385 1.394 . S
C386 C387 1.516 . S
C387 C386 1.516 . S
C387 C388 1.502 . S
C387 C389 1.561 . S
C387 C390 1.526 . S
C388 H372 0.959 . S
C388 H373 0.959 . S
C388 H374 0.961 . S
C388 C387 1.502 . S
C389 H375 0.960 . S
C389 H376 0.961 . S
C389 H377 0.959 . S
C389 C387 1.561 . S
C390 C387 1.526 . S
C390 C391 1.396 . S
C390 C395 1.390 . S
C391 C385 1.465 . S
C391 C390 1.396 . S
C391 C392 1.399 . S
C392 H378 0.929 . S
C392 C391 1.399 . S
C392 C393 1.385 . S
C393 H379 0.931 . S
C393 C392 1.385 . S
C393 C394 1.389 . S
C394 C393 1.389 . S
C394 C395 1.387 . S
C395 H380 0.930 . S
C395 C390 1.390 . S
C395 C394 1.387 . S
H396 C408 0.930 . S
H397 C410 0.930 1_455 S
H398 C411 0.930 1_455 S
H399 C415 0.959 . S
H400 C415 0.959 . S
H401 C415 0.961 . S
H402 C416 0.960 . S
H403 C416 0.961 . S
H404 C416 0.959 . S
H405 C419 0.929 . S
H406 C420 0.931 . S
H407 C422 0.930 . S
C408 H396 0.930 . S
C408 C409 1.399 . S
C408 C413 1.399 . S
C409 C408 1.399 . S
C409 C410 1.376 . S
C410 H397 0.930 1_655 S
C410 C409 1.376 . S
C410 C411 1.388 . S
C411 H398 0.930 1_655 S
C411 C410 1.388 . S
C411 C412 1.390 . S
C412 C411 1.390 . S
C412 C413 1.394 . S
C412 C418 1.465 . S
C413 C408 1.399 . S
C413 C412 1.394 . S
C413 C414 1.516 . S
C414 C413 1.516 . S
C414 C415 1.502 . S
C414 C416 1.561 . S
C414 C417 1.526 . S
C415 H399 0.959 . S
C415 H400 0.959 . S
C415 H401 0.961 . S
C415 C414 1.502 . S
C416 H402 0.960 . S
C416 H403 0.961 . S
C416 H404 0.959 . S
C416 C414 1.561 . S
C417 C414 1.526 . S
C417 C418 1.396 . S
C417 C422 1.390 . S
C418 C412 1.465 . S
C418 C417 1.396 . S
C418 C419 1.399 . S
C419 H405 0.929 . S
C419 C418 1.399 . S
C419 C420 1.385 . S
C420 H406 0.931 . S
C420 C419 1.385 . S
C420 C421 1.389 . S
C421 C420 1.389 . S
C421 C422 1.387 . S
C422 H407 0.930 . S
C422 C417 1.390 . S
C422 C421 1.387 . S
H423 C435 0.930 . S
H424 C437 0.930 . S
H425 C438 0.930 . S
H426 C442 0.959 . S
H427 C442 0.959 . S
H428 C442 0.961 . S
H429 C443 0.960 . S
H430 C443 0.961 . S
H431 C443 0.959 . S
H432 C446 0.929 . S
H433 C447 0.931 . S
H434 C449 0.930 . S
C435 H423 0.930 . S
C435 C436 1.399 . S
C435 C440 1.399 . S
C436 C435 1.399 . S
C436 C437 1.376 . S
C437 H424 0.930 . S
C437 C436 1.376 . S
C437 C438 1.388 . S
C438 H425 0.930 . S
C438 C437 1.388 . S
C438 C439 1.390 . S
C439 C438 1.390 . S
C439 C440 1.394 . S
C439 C445 1.465 . S
C440 C435 1.399 . S
C440 C439 1.394 . S
C440 C441 1.516 . S
C441 C440 1.516 . S
C441 C442 1.502 . S
C441 C443 1.561 . S
C441 C444 1.526 . S
C442 H426 0.959 . S
C442 H427 0.959 . S
C442 H428 0.961 . S
C442 C441 1.502 . S
C443 H429 0.960 . S
C443 H430 0.961 . S
C443 H431 0.959 . S
C443 C441 1.561 . S
C444 C441 1.526 . S
C444 C445 1.396 . S
C444 C449 1.390 . S
C445 C439 1.465 . S
C445 C444 1.396 . S
C445 C446 1.399 . S
C446 H432 0.929 . S
C446 C445 1.399 . S
C446 C447 1.385 . S
C447 H433 0.931 . S
C447 C446 1.385 . S
C447 C448 1.389 . S
C448 C447 1.389 . S
C448 C449 1.387 . S
C449 H434 0.930 . S
C449 C444 1.390 . S
C449 C448 1.387 . S
H450 C462 0.930 . S
H451 C464 0.930 . S
H452 C465 0.930 . S
H453 C469 0.959 . S
H454 C469 0.959 . S
H455 C469 0.961 . S
H456 C470 0.960 . S
H457 C470 0.961 . S
H458 C470 0.959 . S
H459 C473 0.929 . S
H460 C474 0.931 . S
H461 C476 0.930 . S
C462 H450 0.930 . S
C462 C463 1.399 . S
C462 C467 1.399 . S
C463 C462 1.399 . S
C463 C464 1.376 . S
C464 H451 0.930 . S
C464 C463 1.376 . S
C464 C465 1.388 . S
C465 H452 0.930 . S
C465 C464 1.388 . S
C465 C466 1.390 . S
C466 C465 1.390 . S
C466 C467 1.394 . S
C466 C472 1.465 . S
C467 C462 1.399 . S
C467 C466 1.394 . S
C467 C468 1.516 . S
C468 C467 1.516 . S
C468 C469 1.502 . S
C468 C470 1.561 . S
C468 C471 1.526 . S
C469 H453 0.959 . S
C469 H454 0.959 . S
C469 H455 0.961 . S
C469 C468 1.502 . S
C470 H456 0.960 . S
C470 H457 0.961 . S
C470 H458 0.959 . S
C470 C468 1.561 . S
C471 C468 1.526 . S
C471 C472 1.396 . S
C471 C476 1.390 . S
C472 C466 1.465 . S
C472 C471 1.396 . S
C472 C473 1.399 . S
C473 H459 0.929 . S
C473 C472 1.399 . S
C473 C474 1.385 . S
C474 H460 0.931 . S
C474 C473 1.385 . S
C474 C475 1.389 . S
C475 C474 1.389 . S
C475 C476 1.387 . S
C476 H461 0.930 . S
C476 C471 1.390 . S
C476 C475 1.387 . S
H477 C489 0.930 . S
H478 C491 0.930 . S
H479 C492 0.930 . S
H480 C496 0.959 . S
H481 C496 0.959 . S
H482 C496 0.961 . S
H483 C497 0.960 . S
H484 C497 0.961 . S
H485 C497 0.958 . S
H486 C500 0.929 . S
H487 C501 0.931 . S
H488 C503 0.930 . S
C489 H477 0.930 . S
C489 C490 1.399 . S
C489 C494 1.399 . S
C490 C489 1.399 . S
C490 C491 1.376 . S
C491 H478 0.930 . S
C491 C490 1.376 . S
C491 C492 1.388 . S
C492 H479 0.930 . S
C492 C491 1.388 . S
C492 C493 1.390 . S
C493 C492 1.390 . S
C493 C494 1.394 . S
C493 C499 1.465 . S
C494 C489 1.399 . S
C494 C493 1.394 . S
C494 C495 1.516 . S
C495 C494 1.516 . S
C495 C496 1.502 . S
C495 C497 1.561 1_565 S
C495 C498 1.526 . S
C496 H480 0.959 . S
C496 H481 0.959 . S
C496 H482 0.961 . S
C496 C495 1.502 . S
C497 H483 0.960 . S
C497 H484 0.961 . S
C497 H485 0.958 . S
C497 C495 1.561 1_545 S
C498 C495 1.526 . S
C498 C499 1.396 . S
C498 C503 1.390 . S
C499 C493 1.465 . S
C499 C498 1.396 . S
C499 C500 1.399 . S
C500 H486 0.929 . S
C500 C499 1.399 . S
C500 C501 1.385 . S
C501 H487 0.931 . S
C501 C500 1.385 . S
C501 C502 1.389 . S
C502 C501 1.389 . S
C502 C503 1.387 . S
C503 H488 0.930 . S
C503 C498 1.390 . S
C503 C502 1.387 . S
H504 C516 0.930 . S
H505 C518 0.930 . S
H506 C519 0.930 . S
H507 C523 0.959 . S
H508 C523 0.959 . S
H509 C523 0.961 . S
H510 C524 0.960 . S
H511 C524 0.961 . S
H512 C524 0.959 . S
H513 C527 0.929 . S
H514 C528 0.931 . S
H515 C530 0.930 . S
C516 H504 0.930 . S
C516 C517 1.399 . S
C516 C521 1.399 . S
C517 C516 1.399 . S
C517 C518 1.376 . S
C518 H505 0.930 . S
C518 C517 1.376 . S
C518 C519 1.388 . S
C519 H506 0.930 . S
C519 C518 1.388 . S
C519 C520 1.390 . S
C520 C519 1.390 . S
C520 C521 1.394 . S
C520 C526 1.465 . S
C521 C516 1.399 . S
C521 C520 1.394 . S
C521 C522 1.516 . S
C522 C521 1.516 . S
C522 C523 1.502 . S
C522 C524 1.561 . S
C522 C525 1.526 . S
C523 H507 0.959 . S
C523 H508 0.959 . S
C523 H509 0.961 . S
C523 C522 1.502 . S
C524 H510 0.960 . S
C524 H511 0.961 . S
C524 H512 0.959 . S
C524 C522 1.561 . S
C525 C522 1.526 . S
C525 C526 1.396 . S
C525 C530 1.390 . S
C526 C520 1.465 . S
C526 C525 1.396 . S
C526 C527 1.399 . S
C527 H513 0.929 . S
C527 C526 1.399 . S
C527 C528 1.385 . S
C528 H514 0.931 . S
C528 C527 1.385 . S
C528 C529 1.389 . S
C529 C528 1.389 . S
C529 C530 1.387 . S
C530 H515 0.930 . S
C530 C525 1.390 . S
C530 C529 1.387 . S
H531 C543 0.930 . S
H532 C545 0.930 . S
H533 C546 0.930 . S
H534 C550 0.959 . S
H535 C550 0.959 . S
H536 C550 0.961 . S
H537 C551 0.960 . S
H538 C551 0.961 . S
H539 C551 0.959 . S
H540 C554 0.929 . S
H541 C555 0.931 . S
H542 C557 0.930 . S
C543 H531 0.930 . S
C543 C544 1.399 . S
C543 C548 1.399 . S
C544 C543 1.399 . S
C544 C545 1.376 . S
C545 H532 0.930 . S
C545 C544 1.376 . S
C545 C546 1.388 . S
C546 H533 0.930 . S
C546 C545 1.388 . S
C546 C547 1.390 . S
C547 C546 1.390 . S
C547 C548 1.394 . S
C547 C553 1.465 . S
C548 C543 1.399 . S
C548 C547 1.394 . S
C548 C549 1.516 . S
C549 C548 1.516 . S
C549 C550 1.502 . S
C549 C551 1.561 . S
C549 C552 1.526 . S
C550 H534 0.959 . S
C550 H535 0.959 . S
C550 H536 0.961 . S
C550 C549 1.502 . S
C551 H537 0.960 . S
C551 H538 0.961 . S
C551 H539 0.959 . S
C551 C549 1.561 . S
C552 C549 1.526 . S
C552 C553 1.396 . S
C552 C557 1.390 . S
C553 C547 1.465 . S
C553 C552 1.396 . S
C553 C554 1.399 . S
C554 H540 0.929 . S
C554 C553 1.399 . S
C554 C555 1.385 . S
C555 H541 0.931 . S
C555 C554 1.385 . S
C555 C556 1.389 . S
C556 C555 1.389 . S
C556 C557 1.387 . S
C557 H542 0.930 . S
C557 C552 1.390 . S
C557 C556 1.387 . S
H558 C570 0.930 . S
H559 C572 0.930 . S
H560 C573 0.930 . S
H561 C577 0.959 . S
H562 C577 0.959 . S
H563 C577 0.961 . S
H564 C578 0.960 . S
H565 C578 0.961 . S
H566 C578 0.959 . S
H567 C581 0.929 . S
H568 C582 0.931 . S
H569 C584 0.930 . S
C570 H558 0.930 . S
C570 C571 1.399 . S
C570 C575 1.399 . S
C571 C570 1.399 . S
C571 C572 1.376 . S
C572 H559 0.930 . S
C572 C571 1.376 . S
C572 C573 1.388 . S
C573 H560 0.930 . S
C573 C572 1.388 . S
C573 C574 1.390 . S
C574 C573 1.390 . S
C574 C575 1.394 . S
C574 C580 1.465 . S
C575 C570 1.399 . S
C575 C574 1.394 . S
C575 C576 1.516 . S
C576 C575 1.516 . S
C576 C577 1.502 . S
C576 C578 1.561 . S
C576 C579 1.526 . S
C577 H561 0.959 . S
C577 H562 0.959 . S
C577 H563 0.961 . S
C577 C576 1.502 . S
C578 H564 0.960 . S
C578 H565 0.961 . S
C578 H566 0.959 . S
C578 C576 1.561 . S
C579 C576 1.526 . S
C579 C580 1.396 . S
C579 C584 1.390 . S
C580 C574 1.465 . S
C580 C579 1.396 . S
C580 C581 1.399 . S
C581 H567 0.929 . S
C581 C580 1.399 . S
C581 C582 1.385 . S
C582 H568 0.931 . S
C582 C581 1.385 . S
C582 C583 1.389 . S
C583 C582 1.389 . S
C583 C584 1.387 . S
C584 H569 0.930 . S
C584 C579 1.390 . S
C584 C583 1.387 . S
H585 C597 0.930 . S
H586 C599 0.930 . S
H587 C600 0.930 1_565 S
H588 C604 0.959 . S
H589 C604 0.959 . S
H590 C604 0.961 . S
H591 C605 0.960 . S
H592 C605 0.961 . S
H593 C605 0.959 . S
H594 C608 0.929 . S
H595 C609 0.931 . S
H596 C611 0.930 . S
C597 H585 0.930 . S
C597 C598 1.399 . S
C597 C602 1.399 . S
C598 C597 1.399 . S
C598 C599 1.376 . S
C599 H586 0.930 . S
C599 C598 1.376 . S
C599 C600 1.388 . S
C600 H587 0.930 1_545 S
C600 C599 1.388 . S
C600 C601 1.390 . S
C601 C600 1.390 . S
C601 C602 1.394 . S
C601 C607 1.465 1_545 S
C602 C597 1.399 . S
C602 C601 1.394 . S
C602 C603 1.516 . S
C603 C602 1.516 . S
C603 C604 1.502 . S
C603 C605 1.561 . S
C603 C606 1.526 . S
C604 H588 0.959 . S
C604 H589 0.959 . S
C604 H590 0.961 . S
C604 C603 1.502 . S
C605 H591 0.960 . S
C605 H592 0.961 . S
C605 H593 0.959 . S
C605 C603 1.561 . S
C606 C603 1.526 . S
C606 C607 1.396 1_545 S
C606 C611 1.390 1_545 S
C607 C601 1.465 1_565 S
C607 C606 1.396 1_565 S
C607 C608 1.399 . S
C608 H594 0.929 . S
C608 C607 1.399 . S
C608 C609 1.385 . S
C609 H595 0.931 . S
C609 C608 1.385 . S
C609 C610 1.389 . S
C610 C609 1.389 . S
C610 C611 1.387 . S
C611 H596 0.930 . S
C611 C606 1.390 1_565 S
C611 C610 1.387 . S
H612 C624 0.930 . S
H613 C626 0.930 . S
H614 C627 0.930 . S
H615 C631 0.959 . S
H616 C631 0.959 . S
H617 C631 0.961 . S
H618 C632 0.960 . S
H619 C632 0.961 . S
H620 C632 0.959 . S
H621 C635 0.929 . S
H622 C636 0.931 . S
H623 C638 0.930 . S
C624 H612 0.930 . S
C624 C625 1.399 . S
C624 C629 1.399 . S
C625 C624 1.399 . S
C625 C626 1.376 . S
C626 H613 0.930 . S
C626 C625 1.376 . S
C626 C627 1.388 . S
C627 H614 0.930 . S
C627 C626 1.388 . S
C627 C628 1.390 . S
C628 C627 1.390 . S
C628 C629 1.394 . S
C628 C634 1.465 . S
C629 C624 1.399 . S
C629 C628 1.394 . S
C629 C630 1.516 . S
C630 C629 1.516 . S
C630 C631 1.502 . S
C630 C632 1.561 . S
C630 C633 1.526 . S
C631 H615 0.959 . S
C631 H616 0.959 . S
C631 H617 0.961 . S
C631 C630 1.502 . S
C632 H618 0.960 . S
C632 H619 0.961 . S
C632 H620 0.959 . S
C632 C630 1.561 . S
C633 C630 1.526 . S
C633 C634 1.396 . S
C633 C638 1.390 1_455 S
C634 C628 1.465 . S
C634 C633 1.396 . S
C634 C635 1.399 1_455 S
C635 H621 0.929 . S
C635 C634 1.399 1_655 S
C635 C636 1.385 . S
C636 H622 0.931 . S
C636 C635 1.385 . S
C636 C637 1.389 . S
C637 C636 1.389 . S
C637 C638 1.387 . S
C638 H623 0.930 . S
C638 C633 1.390 1_655 S
C638 C637 1.387 . S
H639 C651 0.930 . S
H640 C653 0.930 . S
H641 C654 0.930 . S
H642 C658 0.959 . S
H643 C658 0.959 . S
H644 C658 0.961 . S
H645 C659 0.960 . S
H646 C659 0.961 . S
H647 C659 0.959 . S
H648 C662 0.929 . S
H649 C663 0.931 . S
H650 C665 0.930 . S
C651 H639 0.930 . S
C651 C652 1.399 . S
C651 C656 1.399 . S
C652 C651 1.399 . S
C652 C653 1.376 . S
C653 H640 0.930 . S
C653 C652 1.376 . S
C653 C654 1.388 . S
C654 H641 0.930 . S
C654 C653 1.388 . S
C654 C655 1.390 . S
C655 C654 1.390 . S
C655 C656 1.394 . S
C655 C661 1.465 . S
C656 C651 1.399 . S
C656 C655 1.394 . S
C656 C657 1.516 . S
C657 C656 1.516 . S
C657 C658 1.502 . S
C657 C659 1.561 . S
C657 C660 1.526 . S
C658 H642 0.959 . S
C658 H643 0.959 . S
C658 H644 0.961 . S
C658 C657 1.502 . S
C659 H645 0.960 . S
C659 H646 0.961 . S
C659 H647 0.959 . S
C659 C657 1.561 . S
C660 C657 1.526 . S
C660 C661 1.396 . S
C660 C665 1.390 . S
C661 C655 1.465 . S
C661 C660 1.396 . S
C661 C662 1.399 . S
C662 H648 0.929 . S
C662 C661 1.399 . S
C662 C663 1.385 . S
C663 H649 0.931 . S
C663 C662 1.385 . S
C663 C664 1.389 . S
C664 C663 1.389 . S
C664 C665 1.387 . S
C665 H650 0.930 . S
C665 C660 1.390 . S
C665 C664 1.387 . S
H666 C678 0.930 . S
H667 C680 0.930 . S
H668 C681 0.930 1_565 S
H669 C685 0.959 . S
H670 C685 0.959 . S
H671 C685 0.961 . S
H672 C686 0.960 . S
H673 C686 0.961 . S
H674 C686 0.959 . S
H675 C689 0.929 . S
H676 C690 0.931 . S
H677 C692 0.930 . S
C678 H666 0.930 . S
C678 C679 1.399 . S
C678 C683 1.399 . S
C679 C678 1.399 . S
C679 C680 1.376 . S
C680 H667 0.930 . S
C680 C679 1.376 . S
C680 C681 1.388 . S
C681 H668 0.930 1_545 S
C681 C680 1.388 . S
C681 C682 1.390 . S
C682 C681 1.390 . S
C682 C683 1.394 . S
C682 C688 1.465 1_545 S
C683 C678 1.399 . S
C683 C682 1.394 . S
C683 C684 1.516 . S
C684 C683 1.516 . S
C684 C685 1.502 . S
C684 C686 1.561 . S
C684 C687 1.526 . S
C685 H669 0.959 . S
C685 H670 0.959 . S
C685 H671 0.961 . S
C685 C684 1.502 . S
C686 H672 0.960 . S
C686 H673 0.961 . S
C686 H674 0.959 . S
C686 C684 1.561 . S
C687 C684 1.526 . S
C687 C688 1.396 1_545 S
C687 C692 1.390 1_545 S
C688 C682 1.465 1_565 S
C688 C687 1.396 1_565 S
C688 C689 1.399 . S
C689 H675 0.929 . S
C689 C688 1.399 . S
C689 C690 1.385 . S
C690 H676 0.931 . S
C690 C689 1.385 . S
C690 C691 1.389 . S
C691 C690 1.389 . S
C691 C692 1.387 . S
C692 H677 0.930 . S
C692 C687 1.390 1_565 S
C692 C691 1.387 . S
H693 C705 0.930 . S
H694 C707 0.930 . S
H695 C708 0.930 . S
H696 C712 0.959 . S
H697 C712 0.959 1_655 S
H698 C712 0.961 . S
H699 C713 0.960 . S
H700 C713 0.961 . S
H701 C713 0.959 . S
H702 C716 0.929 . S
H703 C717 0.931 . S
H704 C719 0.930 . S
C705 H693 0.930 . S
C705 C706 1.399 . S
C705 C710 1.399 . S
C706 C705 1.399 . S
C706 C707 1.376 . S
C707 H694 0.930 . S
C707 C706 1.376 . S
C707 C708 1.388 . S
C708 H695 0.930 . S
C708 C707 1.388 . S
C708 C709 1.390 . S
C709 C708 1.390 . S
C709 C710 1.394 . S
C709 C715 1.465 . S
C710 C705 1.399 . S
C710 C709 1.394 . S
C710 C711 1.516 . S
C711 C710 1.516 . S
C711 C712 1.502 . S
C711 C713 1.561 1_455 S
C711 C714 1.526 1_455 S
C712 H696 0.959 . S
C712 H697 0.959 1_455 S
C712 H698 0.961 . S
C712 C711 1.502 . S
C713 H699 0.960 . S
C713 H700 0.961 . S
C713 H701 0.959 . S
C713 C711 1.561 1_655 S
C714 C711 1.526 1_655 S
C714 C715 1.396 1_655 S
C714 C719 1.390 . S
C715 C709 1.465 . S
C715 C714 1.396 1_455 S
C715 C716 1.399 . S
C716 H702 0.929 . S
C716 C715 1.399 . S
C716 C717 1.385 1_455 S
C717 H703 0.931 . S
C717 C716 1.385 1_655 S
C717 C718 1.389 . S
C718 C717 1.389 . S
C718 C719 1.387 . S
C719 H704 0.930 . S
C719 C714 1.390 . S
C719 C718 1.387 . S
H720 C732 0.930 . S
H721 C734 0.930 . S
H722 C735 0.930 . S
H723 C739 0.959 . S
H724 C739 0.959 . S
H725 C739 0.961 . S
H726 C740 0.960 . S
H727 C740 0.961 . S
H728 C740 0.959 . S
H729 C743 0.929 . S
H730 C744 0.931 . S
H731 C746 0.930 . S
C732 H720 0.930 . S
C732 C733 1.399 . S
C732 C737 1.399 . S
C733 C732 1.399 . S
C733 C734 1.376 . S
C734 H721 0.930 . S
C734 C733 1.376 . S
C734 C735 1.388 . S
C735 H722 0.930 . S
C735 C734 1.388 . S
C735 C736 1.390 . S
C736 C735 1.390 . S
C736 C737 1.394 . S
C736 C742 1.465 . S
C737 C732 1.399 . S
C737 C736 1.394 . S
C737 C738 1.516 . S
C738 C737 1.516 . S
C738 C739 1.502 . S
C738 C740 1.561 . S
C738 C741 1.526 . S
C739 H723 0.959 . S
C739 H724 0.959 . S
C739 H725 0.961 . S
C739 C738 1.502 . S
C740 H726 0.960 . S
C740 H727 0.961 . S
C740 H728 0.959 . S
C740 C738 1.561 . S
C741 C738 1.526 . S
C741 C742 1.396 . S
C741 C746 1.390 . S
C742 C736 1.465 . S
C742 C741 1.396 . S
C742 C743 1.399 . S
C743 H729 0.929 . S
C743 C742 1.399 . S
C743 C744 1.385 . S
C744 H730 0.931 . S
C744 C743 1.385 . S
C744 C745 1.389 . S
C745 C744 1.389 . S
C745 C746 1.387 . S
C746 H731 0.930 . S
C746 C741 1.390 . S
C746 C745 1.387 . S
H747 C759 0.930 . S
H748 C761 0.930 . S
H749 C762 0.930 . S
H750 C766 0.959 . S
H751 C766 0.959 . S
H752 C766 0.961 . S
H753 C767 0.960 . S
H754 C767 0.961 . S
H755 C767 0.959 . S
H756 C770 0.929 . S
H757 C771 0.931 . S
H758 C773 0.930 . S
C759 H747 0.930 . S
C759 C760 1.399 . S
C759 C764 1.399 . S
C760 C759 1.399 . S
C760 C761 1.376 . S
C761 H748 0.930 . S
C761 C760 1.376 . S
C761 C762 1.388 . S
C762 H749 0.930 . S
C762 C761 1.388 . S
C762 C763 1.390 . S
C763 C762 1.390 . S
C763 C764 1.394 . S
C763 C769 1.465 . S
C764 C759 1.399 . S
C764 C763 1.394 . S
C764 C765 1.516 . S
C765 C764 1.516 . S
C765 C766 1.502 . S
C765 C767 1.561 . S
C765 C768 1.526 . S
C766 H750 0.959 . S
C766 H751 0.959 . S
C766 H752 0.961 . S
C766 C765 1.502 . S
C767 H753 0.960 . S
C767 H754 0.961 . S
C767 H755 0.959 . S
C767 C765 1.561 . S
C768 C765 1.526 . S
C768 C769 1.396 . S
C768 C773 1.390 . S
C769 C763 1.465 . S
C769 C768 1.396 . S
C769 C770 1.399 . S
C770 H756 0.929 . S
C770 C769 1.399 . S
C770 C771 1.385 . S
C771 H757 0.931 . S
C771 C770 1.385 . S
C771 C772 1.389 . S
C772 C771 1.389 . S
C772 C773 1.387 . S
C773 H758 0.930 . S
C773 C768 1.390 . S
C773 C772 1.387 . S
H774 C786 0.930 . S
H775 C788 0.930 . S
H776 C789 0.930 . S
H777 C793 0.959 . S
H778 C793 0.959 . S
H779 C793 0.961 . S
H780 C794 0.960 . S
H781 C794 0.961 . S
H782 C794 0.959 . S
H783 C797 0.929 . S
H784 C798 0.931 . S
H785 C800 0.930 . S
C786 H774 0.930 . S
C786 C787 1.399 . S
C786 C791 1.399 . S
C787 C786 1.399 . S
C787 C788 1.376 . S
C788 H775 0.930 . S
C788 C787 1.376 . S
C788 C789 1.388 . S
C789 H776 0.930 . S
C789 C788 1.388 . S
C789 C790 1.390 . S
C790 C789 1.390 . S
C790 C791 1.394 . S
C790 C796 1.465 . S
C791 C786 1.399 . S
C791 C790 1.394 . S
C791 C792 1.516 . S
C792 C791 1.516 . S
C792 C793 1.502 . S
C792 C794 1.561 . S
C792 C795 1.526 . S
C793 H777 0.959 . S
C793 H778 0.959 . S
C793 H779 0.961 . S
C793 C792 1.502 . S
C794 H780 0.960 . S
C794 H781 0.961 . S
C794 H782 0.959 . S
C794 C792 1.561 . S
C795 C792 1.526 . S
C795 C796 1.396 . S
C795 C800 1.390 . S
C796 C790 1.465 . S
C796 C795 1.396 . S
C796 C797 1.399 . S
C797 H783 0.929 . S
C797 C796 1.399 . S
C797 C798 1.385 . S
C798 H784 0.931 . S
C798 C797 1.385 . S
C798 C799 1.389 . S
C799 C798 1.389 . S
C799 C800 1.387 . S
C800 H785 0.930 . S
C800 C795 1.390 . S
C800 C799 1.387 . S
H801 C813 0.930 . S
H802 C815 0.930 . S
H803 C816 0.930 . S
H804 C820 0.959 . S
H805 C820 0.959 . S
H806 C820 0.961 . S
H807 C821 0.960 . S
H808 C821 0.961 . S
H809 C821 0.959 . S
H810 C824 0.929 . S
H811 C825 0.931 . S
H812 C827 0.930 . S
C813 H801 0.930 . S
C813 C814 1.399 . S
C813 C818 1.399 . S
C814 C813 1.399 . S
C814 C815 1.376 . S
C815 H802 0.930 . S
C815 C814 1.376 . S
C815 C816 1.388 . S
C816 H803 0.930 . S
C816 C815 1.388 . S
C816 C817 1.390 . S
C817 C816 1.390 . S
C817 C818 1.394 . S
C817 C823 1.465 . S
C818 C813 1.399 . S
C818 C817 1.394 . S
C818 C819 1.516 . S
C819 C818 1.516 . S
C819 C820 1.502 . S
C819 C821 1.561 . S
C819 C822 1.526 . S
C820 H804 0.959 . S
C820 H805 0.959 . S
C820 H806 0.961 . S
C820 C819 1.502 . S
C821 H807 0.960 . S
C821 H808 0.961 . S
C821 H809 0.959 . S
C821 C819 1.561 . S
C822 C819 1.526 . S
C822 C823 1.396 . S
C822 C827 1.390 . S
C823 C817 1.465 . S
C823 C822 1.396 . S
C823 C824 1.399 . S
C824 H810 0.929 . S
C824 C823 1.399 . S
C824 C825 1.385 . S
C825 H811 0.931 . S
C825 C824 1.385 . S
C825 C826 1.389 . S
C826 C825 1.389 . S
C826 C827 1.387 . S
C827 H812 0.930 . S
C827 C822 1.390 . S
C827 C826 1.387 . S
H828 C840 0.930 . S
H829 C842 0.930 . S
H830 C843 0.930 . S
H831 C847 0.959 . S
H832 C847 0.959 . S
H833 C847 0.961 . S
H834 C848 0.960 . S
H835 C848 0.961 . S
H836 C848 0.959 . S
H837 C851 0.929 . S
H838 C852 0.931 . S
H839 C854 0.930 . S
C840 H828 0.930 . S
C840 C841 1.399 . S
C840 C845 1.399 . S
C841 C840 1.399 . S
C841 C842 1.376 . S
C842 H829 0.930 . S
C842 C841 1.376 . S
C842 C843 1.388 . S
C843 H830 0.930 . S
C843 C842 1.388 . S
C843 C844 1.390 . S
C844 C843 1.390 . S
C844 C845 1.394 . S
C844 C850 1.465 . S
C845 C840 1.399 . S
C845 C844 1.394 . S
C845 C846 1.516 . S
C846 C845 1.516 . S
C846 C847 1.502 . S
C846 C848 1.561 . S
C846 C849 1.526 . S
C847 H831 0.959 . S
C847 H832 0.959 . S
C847 H833 0.961 . S
C847 C846 1.502 . S
C848 H834 0.960 . S
C848 H835 0.961 . S
C848 H836 0.959 . S
C848 C846 1.561 . S
C849 C846 1.526 . S
C849 C850 1.396 . S
C849 C854 1.390 . S
C850 C844 1.465 . S
C850 C849 1.396 . S
C850 C851 1.399 . S
C851 H837 0.929 . S
C851 C850 1.399 . S
C851 C852 1.385 . S
C852 H838 0.931 . S
C852 C851 1.385 . S
C852 C853 1.389 . S
C853 C852 1.389 . S
C853 C854 1.387 . S
C854 H839 0.930 . S
C854 C849 1.390 . S
C854 C853 1.387 . S
H855 C867 0.930 . S
H856 C869 0.930 . S
H857 C870 0.930 . S
H858 C874 0.959 . S
H859 C874 0.959 . S
H860 C874 0.961 . S
H861 C875 0.960 . S
H862 C875 0.961 . S
H863 C875 0.959 . S
H864 C878 0.929 . S
H865 C879 0.931 . S
H866 C881 0.930 . S
C867 H855 0.930 . S
C867 C868 1.399 . S
C867 C872 1.399 . S
C868 C867 1.399 . S
C868 C869 1.376 . S
C869 H856 0.930 . S
C869 C868 1.376 . S
C869 C870 1.388 . S
C870 H857 0.930 . S
C870 C869 1.388 . S
C870 C871 1.390 . S
C871 C870 1.390 . S
C871 C872 1.394 . S
C871 C877 1.465 . S
C872 C867 1.399 . S
C872 C871 1.394 . S
C872 C873 1.516 . S
C873 C872 1.516 . S
C873 C874 1.502 . S
C873 C875 1.561 . S
C873 C876 1.526 . S
C874 H858 0.959 . S
C874 H859 0.959 . S
C874 H860 0.961 . S
C874 C873 1.502 . S
C875 H861 0.960 . S
C875 H862 0.961 . S
C875 H863 0.959 . S
C875 C873 1.561 . S
C876 C873 1.526 . S
C876 C877 1.396 . S
C876 C881 1.390 . S
C877 C871 1.465 . S
C877 C876 1.396 . S
C877 C878 1.399 . S
C878 H864 0.929 . S
C878 C877 1.399 . S
C878 C879 1.385 . S
C879 H865 0.931 . S
C879 C878 1.385 . S
C879 C880 1.389 . S
C880 C879 1.389 . S
C880 C881 1.387 . S
C881 H866 0.930 . S
C881 C876 1.390 . S
C881 C880 1.387 . S
H882 C894 0.930 . S
H883 C896 0.930 . S
H884 C897 0.930 . S
H885 C901 0.959 . S
H886 C901 0.959 . S
H887 C901 0.961 . S
H888 C902 0.960 . S
H889 C902 0.961 . S
H890 C902 0.959 . S
H891 C905 0.929 . S
H892 C906 0.931 . S
H893 C908 0.930 . S
C894 H882 0.930 . S
C894 C895 1.399 . S
C894 C899 1.399 . S
C895 C894 1.399 . S
C895 C896 1.376 . S
C896 H883 0.930 . S
C896 C895 1.376 . S
C896 C897 1.388 . S
C897 H884 0.930 . S
C897 C896 1.388 . S
C897 C898 1.390 . S
C898 C897 1.390 . S
C898 C899 1.394 . S
C898 C904 1.465 . S
C899 C894 1.399 . S
C899 C898 1.394 . S
C899 C900 1.516 . S
C900 C899 1.516 . S
C900 C901 1.502 . S
C900 C902 1.561 . S
C900 C903 1.526 . S
C901 H885 0.959 . S
C901 H886 0.959 . S
C901 H887 0.961 . S
C901 C900 1.502 . S
C902 H888 0.960 . S
C902 H889 0.961 . S
C902 H890 0.959 . S
C902 C900 1.561 . S
C903 C900 1.526 . S
C903 C904 1.396 . S
C903 C908 1.390 . S
C904 C898 1.465 . S
C904 C903 1.396 . S
C904 C905 1.399 . S
C905 H891 0.929 . S
C905 C904 1.399 . S
C905 C906 1.385 . S
C906 H892 0.931 . S
C906 C905 1.385 . S
C906 C907 1.389 . S
C907 C906 1.389 . S
C907 C908 1.387 . S
C908 H893 0.930 . S
C908 C903 1.390 . S
C908 C907 1.387 . S
H909 C921 0.930 . S
H910 C923 0.930 . S
H911 C924 0.930 . S
H912 C928 0.959 . S
H913 C928 0.959 . S
H914 C928 0.961 . S
H915 C929 0.960 . S
H916 C929 0.961 . S
H917 C929 0.959 . S
H918 C932 0.929 . S
H919 C933 0.931 . S
H920 C935 0.930 . S
C921 H909 0.930 . S
C921 C922 1.399 . S
C921 C926 1.399 . S
C922 C921 1.399 . S
C922 C923 1.376 . S
C923 H910 0.930 . S
C923 C922 1.376 . S
C923 C924 1.388 . S
C924 H911 0.930 . S
C924 C923 1.388 . S
C924 C925 1.390 . S
C925 C924 1.390 . S
C925 C926 1.394 . S
C925 C931 1.465 . S
C926 C921 1.399 . S
C926 C925 1.394 . S
C926 C927 1.516 . S
C927 C926 1.516 . S
C927 C928 1.502 . S
C927 C929 1.561 . S
C927 C930 1.526 . S
C928 H912 0.959 . S
C928 H913 0.959 . S
C928 H914 0.961 . S
C928 C927 1.502 . S
C929 H915 0.960 . S
C929 H916 0.961 . S
C929 H917 0.959 . S
C929 C927 1.561 . S
C930 C927 1.526 . S
C930 C931 1.396 . S
C930 C935 1.390 . S
C931 C925 1.465 . S
C931 C930 1.396 . S
C931 C932 1.399 . S
C932 H918 0.929 . S
C932 C931 1.399 . S
C932 C933 1.385 . S
C933 H919 0.931 . S
C933 C932 1.385 . S
C933 C934 1.389 . S
C934 C933 1.389 . S
C934 C935 1.387 . S
C935 H920 0.930 . S
C935 C930 1.390 . S
C935 C934 1.387 . S
H936 C948 0.930 . S
H937 C950 0.930 . S
H938 C951 0.930 . S
H939 C955 0.959 . S
H940 C955 0.959 . S
H941 C955 0.961 . S
H942 C956 0.960 . S
H943 C956 0.961 . S
H944 C956 0.959 . S
H945 C959 0.929 . S
H946 C960 0.931 . S
H947 C962 0.930 . S
C948 H936 0.930 . S
C948 C949 1.399 . S
C948 C953 1.399 . S
C949 C948 1.399 . S
C949 C950 1.376 . S
C950 H937 0.930 . S
C950 C949 1.376 . S
C950 C951 1.388 . S
C951 H938 0.930 . S
C951 C950 1.388 . S
C951 C952 1.390 . S
C952 C951 1.390 . S
C952 C953 1.394 . S
C952 C958 1.465 . S
C953 C948 1.399 . S
C953 C952 1.394 . S
C953 C954 1.516 . S
C954 C953 1.516 . S
C954 C955 1.502 . S
C954 C956 1.561 . S
C954 C957 1.526 . S
C955 H939 0.959 . S
C955 H940 0.959 . S
C955 H941 0.961 . S
C955 C954 1.502 . S
C956 H942 0.960 . S
C956 H943 0.961 . S
C956 H944 0.959 . S
C956 C954 1.561 . S
C957 C954 1.526 . S
C957 C958 1.396 . S
C957 C962 1.390 . S
C958 C952 1.465 . S
C958 C957 1.396 . S
C958 C959 1.399 . S
C959 H945 0.929 . S
C959 C958 1.399 . S
C959 C960 1.385 . S
C960 H946 0.931 . S
C960 C959 1.385 . S
C960 C961 1.389 . S
C961 C960 1.389 . S
C961 C962 1.387 . S
C962 H947 0.930 . S
C962 C957 1.390 . S
C962 C961 1.387 . S
H963 C975 0.930 . S
H964 C977 0.930 . S
H965 C978 0.930 . S
H966 C982 0.959 . S
H967 C982 0.959 . S
H968 C982 0.961 . S
H969 C983 0.960 . S
H970 C983 0.961 . S
H971 C983 0.959 . S
H972 C986 0.929 . S
H973 C987 0.931 . S
H974 C989 0.930 . S
C975 H963 0.930 . S
C975 C976 1.399 . S
C975 C980 1.399 . S
C976 C975 1.399 . S
C976 C977 1.376 . S
C977 H964 0.930 . S
C977 C976 1.376 . S
C977 C978 1.388 . S
C978 H965 0.930 . S
C978 C977 1.388 . S
C978 C979 1.390 . S
C979 C978 1.390 . S
C979 C980 1.394 . S
C979 C985 1.465 . S
C980 C975 1.399 . S
C980 C979 1.394 . S
C980 C981 1.516 . S
C981 C980 1.516 . S
C981 C982 1.502 . S
C981 C983 1.561 . S
C981 C984 1.526 . S
C982 H966 0.959 . S
C982 H967 0.959 . S
C982 H968 0.961 . S
C982 C981 1.502 . S
C983 H969 0.960 . S
C983 H970 0.961 . S
C983 H971 0.959 . S
C983 C981 1.561 . S
C984 C981 1.526 . S
C984 C985 1.396 . S
C984 C989 1.390 . S
C985 C979 1.465 . S
C985 C984 1.396 . S
C985 C986 1.399 . S
C986 H972 0.929 . S
C986 C985 1.399 . S
C986 C987 1.385 . S
C987 H973 0.931 . S
C987 C986 1.385 . S
C987 C988 1.389 . S
C988 C987 1.389 . S
C988 C989 1.387 . S
C989 H974 0.930 . S
C989 C984 1.390 . S
C989 C988 1.387 . S
H990 C1002 0.930 . S
H991 C1004 0.930 . S
H992 C1005 0.930 . S
H993 C1009 0.959 . S
H994 C1009 0.959 . S
H995 C1009 0.961 . S
H996 C1010 0.960 . S
H997 C1010 0.961 . S
H998 C1010 0.959 . S
H999 C1013 0.929 . S
H1000 C1014 0.931 . S
H1001 C1016 0.930 . S
C1002 H990 0.930 . S
C1002 C1003 1.399 . S
C1002 C1007 1.399 . S
C1003 C1002 1.399 . S
C1003 C1004 1.376 . S
C1004 H991 0.930 . S
C1004 C1003 1.376 . S
C1004 C1005 1.388 . S
C1005 H992 0.930 . S
C1005 C1004 1.388 . S
C1005 C1006 1.390 . S
C1006 C1005 1.390 . S
C1006 C1007 1.394 . S
C1006 C1012 1.465 . S
C1007 C1002 1.399 . S
C1007 C1006 1.394 . S
C1007 C1008 1.516 . S
C1008 C1007 1.516 . S
C1008 C1009 1.502 . S
C1008 C1010 1.561 . S
C1008 C1011 1.526 . S
C1009 H993 0.959 . S
C1009 H994 0.959 . S
C1009 H995 0.961 . S
C1009 C1008 1.502 . S
C1010 H996 0.960 . S
C1010 H997 0.961 . S
C1010 H998 0.959 . S
C1010 C1008 1.561 . S
C1011 C1008 1.526 . S
C1011 C1012 1.396 . S
C1011 C1016 1.390 . S
C1012 C1006 1.465 . S
C1012 C1011 1.396 . S
C1012 C1013 1.399 . S
C1013 H999 0.929 . S
C1013 C1012 1.399 . S
C1013 C1014 1.385 . S
C1014 H1000 0.931 . S
C1014 C1013 1.385 . S
C1014 C1015 1.389 . S
C1015 C1014 1.389 . S
C1015 C1016 1.387 . S
C1016 H1001 0.930 . S
C1016 C1011 1.390 . S
C1016 C1015 1.387 . S
H1017 C1029 0.930 . S
H1018 C1031 0.930 . S
H1019 C1032 0.930 . S
H1020 C1036 0.959 . S
H1021 C1036 0.959 . S
H1022 C1036 0.961 . S
H1023 C1037 0.960 . S
H1024 C1037 0.961 . S
H1025 C1037 0.959 . S
H1026 C1040 0.929 . S
H1027 C1041 0.931 . S
H1028 C1043 0.930 . S
C1029 H1017 0.930 . S
C1029 C1030 1.399 . S
C1029 C1034 1.399 . S
C1030 C1029 1.399 . S
C1030 C1031 1.376 . S
C1031 H1018 0.930 . S
C1031 C1030 1.376 . S
C1031 C1032 1.388 . S
C1032 H1019 0.930 . S
C1032 C1031 1.388 . S
C1032 C1033 1.390 . S
C1033 C1032 1.390 . S
C1033 C1034 1.394 . S
C1033 C1039 1.465 . S
C1034 C1029 1.399 . S
C1034 C1033 1.394 . S
C1034 C1035 1.516 . S
C1035 C1034 1.516 . S
C1035 C1036 1.502 . S
C1035 C1037 1.561 . S
C1035 C1038 1.526 . S
C1036 H1020 0.959 . S
C1036 H1021 0.959 . S
C1036 H1022 0.961 . S
C1036 C1035 1.502 . S
C1037 H1023 0.960 . S
C1037 H1024 0.961 . S
C1037 H1025 0.959 . S
C1037 C1035 1.561 . S
C1038 C1035 1.526 . S
C1038 C1039 1.396 . S
C1038 C1043 1.390 . S
C1039 C1033 1.465 . S
C1039 C1038 1.396 . S
C1039 C1040 1.399 . S
C1040 H1026 0.929 . S
C1040 C1039 1.399 . S
C1040 C1041 1.385 . S
C1041 H1027 0.931 . S
C1041 C1040 1.385 . S
C1041 C1042 1.389 . S
C1042 C1041 1.389 . S
C1042 C1043 1.387 . S
C1043 H1028 0.930 . S
C1043 C1038 1.390 . S
C1043 C1042 1.387 . S
H1044 C1056 0.930 . S
H1045 C1058 0.930 . S
H1046 C1059 0.930 . S
H1047 C1063 0.959 . S
H1048 C1063 0.959 . S
H1049 C1063 0.961 . S
H1050 C1064 0.960 . S
H1051 C1064 0.961 . S
H1052 C1064 0.959 . S
H1053 C1067 0.929 . S
H1054 C1068 0.931 . S
H1055 C1070 0.930 . S
C1056 H1044 0.930 . S
C1056 C1057 1.399 . S
C1056 C1061 1.399 . S
C1057 C1056 1.399 . S
C1057 C1058 1.376 . S
C1058 H1045 0.930 . S
C1058 C1057 1.376 . S
C1058 C1059 1.388 . S
C1059 H1046 0.930 . S
C1059 C1058 1.388 . S
C1059 C1060 1.390 . S
C1060 C1059 1.390 . S
C1060 C1061 1.394 . S
C1060 C1066 1.465 . S
C1061 C1056 1.399 . S
C1061 C1060 1.394 . S
C1061 C1062 1.516 . S
C1062 C1061 1.516 . S
C1062 C1063 1.502 . S
C1062 C1064 1.561 . S
C1062 C1065 1.526 . S
C1063 H1047 0.959 . S
C1063 H1048 0.959 . S
C1063 H1049 0.961 . S
C1063 C1062 1.502 . S
C1064 H1050 0.960 . S
C1064 H1051 0.961 . S
C1064 H1052 0.959 . S
C1064 C1062 1.561 . S
C1065 C1062 1.526 . S
C1065 C1066 1.396 . S
C1065 C1070 1.390 . S
C1066 C1060 1.465 . S
C1066 C1065 1.396 . S
C1066 C1067 1.399 . S
C1067 H1053 0.929 . S
C1067 C1066 1.399 . S
C1067 C1068 1.385 . S
C1068 H1054 0.931 . S
C1068 C1067 1.385 . S
C1068 C1069 1.389 . S
C1069 C1068 1.389 . S
C1069 C1070 1.387 . S
C1070 H1055 0.930 . S
C1070 C1065 1.390 . S
C1070 C1069 1.387 . S
H1071 C1083 0.930 . S
H1072 C1085 0.930 . S
H1073 C1086 0.930 . S
H1074 C1090 0.959 1_565 S
H1075 C1090 0.959 1_565 S
H1076 C1090 0.961 . S
H1077 C1091 0.960 . S
H1078 C1091 0.961 . S
H1079 C1091 0.959 . S
H1080 C1094 0.929 . S
H1081 C1095 0.931 . S
H1082 C1097 0.930 . S
C1083 H1071 0.930 . S
C1083 C1084 1.399 . S
C1083 C1088 1.399 . S
C1084 C1083 1.399 . S
C1084 C1085 1.376 . S
C1085 H1072 0.930 . S
C1085 C1084 1.376 . S
C1085 C1086 1.388 . S
C1086 H1073 0.930 . S
C1086 C1085 1.388 . S
C1086 C1087 1.390 . S
C1087 C1086 1.390 . S
C1087 C1088 1.394 . S
C1087 C1093 1.465 . S
C1088 C1083 1.399 . S
C1088 C1087 1.394 . S
C1088 C1089 1.516 . S
C1089 C1088 1.516 . S
C1089 C1090 1.502 . S
C1089 C1091 1.561 . S
C1089 C1092 1.538 . S
C1090 H1074 0.959 1_545 S
C1090 H1075 0.959 1_545 S
C1090 H1076 0.961 . S
C1090 C1089 1.502 . S
C1091 H1077 0.960 . S
C1091 H1078 0.961 . S
C1091 H1079 0.959 . S
C1091 C1089 1.561 . S
C1092 C1089 1.538 . S
C1092 C1093 1.384 . S
C1092 C1097 1.389 1_545 S
C1093 C1087 1.465 . S
C1093 C1092 1.384 . S
C1093 C1094 1.399 1_545 S
C1094 H1080 0.929 . S
C1094 C1093 1.399 1_565 S
C1094 C1095 1.385 . S
C1095 H1081 0.931 . S
C1095 C1094 1.385 . S
C1095 C1096 1.389 . S
C1096 C1095 1.389 . S
C1096 C1097 1.387 . S
C1097 H1082 0.930 . S
C1097 C1092 1.389 1_565 S
C1097 C1096 1.387 . S
H1098 C1110 0.930 . S
H1099 C1112 0.930 . S
H1100 C1113 0.930 . S
H1101 C1117 0.959 . S
H1102 C1117 0.959 . S
H1103 C1117 0.961 . S
H1104 C1118 0.960 1_455 S
H1105 C1118 0.961 . S
H1106 C1118 0.959 . S
H1107 C1121 0.929 . S
H1108 C1122 0.931 . S
H1109 C1124 0.930 . S
C1110 H1098 0.930 . S
C1110 C1111 1.399 . S
C1110 C1115 1.399 . S
C1111 C1110 1.399 . S
C1111 C1112 1.376 . S
C1112 H1099 0.930 . S
C1112 C1111 1.376 . S
C1112 C1113 1.388 . S
C1113 H1100 0.930 . S
C1113 C1112 1.388 . S
C1113 C1114 1.390 . S
C1114 C1113 1.390 . S
C1114 C1115 1.394 . S
C1114 C1120 1.465 . S
C1115 C1110 1.399 . S
C1115 C1114 1.394 . S
C1115 C1116 1.516 . S
C1116 C1115 1.516 . S
C1116 C1117 1.502 . S
C1116 C1118 1.561 1_455 S
C1116 C1119 1.526 . S
C1117 H1101 0.959 . S
C1117 H1102 0.959 . S
C1117 H1103 0.961 . S
C1117 C1116 1.502 . S
C1118 H1104 0.960 1_655 S
C1118 H1105 0.961 . S
C1118 H1106 0.959 . S
C1118 C1116 1.561 1_655 S
C1119 C1116 1.526 . S
C1119 C1120 1.396 . S
C1119 C1124 1.390 1_455 S
C1120 C1114 1.465 . S
C1120 C1119 1.396 . S
C1120 C1121 1.399 1_455 S
C1121 H1107 0.929 . S
C1121 C1120 1.399 1_655 S
C1121 C1122 1.385 . S
C1122 H1108 0.931 . S
C1122 C1121 1.385 . S
C1122 C1123 1.389 . S
C1123 C1122 1.389 . S
C1123 C1124 1.387 . S
C1124 H1109 0.930 . S
C1124 C1119 1.390 1_655 S
C1124 C1123 1.387 . S
H1125 C1137 0.930 . S
H1126 C1139 0.930 . S
H1127 C1140 0.930 . S
H1128 C1144 0.959 . S
H1129 C1144 0.959 . S
H1130 C1144 0.961 . S
H1131 C1145 0.960 . S
H1132 C1145 0.961 1_554 S
H1133 C1145 0.959 . S
H1134 C1148 0.929 . S
H1135 C1149 0.931 . S
H1136 C1151 0.930 . S
C1137 H1125 0.930 . S
C1137 C1138 1.399 . S
C1137 C1142 1.399 . S
C1138 C1137 1.399 . S
C1138 C1139 1.376 . S
C1139 H1126 0.930 . S
C1139 C1138 1.376 . S
C1139 C1140 1.388 . S
C1140 H1127 0.930 . S
C1140 C1139 1.388 . S
C1140 C1141 1.390 . S
C1141 C1140 1.390 . S
C1141 C1142 1.394 . S
C1141 C1147 1.465 . S
C1142 C1137 1.399 . S
C1142 C1141 1.394 . S
C1142 C1143 1.516 1_556 S
C1143 C1142 1.516 1_554 S
C1143 C1144 1.502 . S
C1143 C1145 1.561 1_554 S
C1143 C1146 1.526 . S
C1144 H1128 0.959 . S
C1144 H1129 0.959 . S
C1144 H1130 0.961 . S
C1144 C1143 1.502 . S
C1145 H1131 0.960 . S
C1145 H1132 0.961 1_556 S
C1145 H1133 0.959 . S
C1145 C1143 1.561 1_556 S
C1146 C1143 1.526 . S
C1146 C1147 1.396 1_554 S
C1146 C1151 1.390 . S
C1147 C1141 1.465 . S
C1147 C1146 1.396 1_556 S
C1147 C1148 1.399 . S
C1148 H1134 0.929 . S
C1148 C1147 1.399 . S
C1148 C1149 1.385 1_556 S
C1149 H1135 0.931 . S
C1149 C1148 1.385 1_554 S
C1149 C1150 1.389 . S
C1150 C1149 1.389 . S
C1150 C1151 1.387 . S
C1151 H1136 0.930 . S
C1151 C1146 1.390 . S
C1151 C1150 1.387 . S
H1152 C1164 0.930 1_545 S
H1153 C1166 0.930 . S
H1154 C1167 0.930 . S
H1155 C1171 0.959 . S
H1156 C1171 0.959 . S
H1157 C1171 0.961 . S
H1158 C1172 0.960 . S
H1159 C1172 0.961 . S
H1160 C1172 0.959 . S
H1161 C1175 0.929 . S
H1162 C1176 0.931 . S
H1163 C1178 0.930 . S
C1164 H1152 0.930 1_565 S
C1164 C1165 1.399 . S
C1164 C1169 1.399 1_565 S
C1165 C1164 1.399 . S
C1165 C1166 1.376 . S
C1166 H1153 0.930 . S
C1166 C1165 1.376 . S
C1166 C1167 1.388 1_556 S
C1167 H1154 0.930 . S
C1167 C1166 1.388 1_554 S
C1167 C1168 1.390 1_554 S
C1168 C1167 1.390 1_556 S
C1168 C1169 1.394 1_565 S
C1168 C1174 1.465 1_566 S
C1169 C1164 1.399 1_545 S
C1169 C1168 1.394 1_545 S
C1169 C1170 1.516 . S
C1170 C1169 1.516 . S
C1170 C1171 1.502 . S
C1170 C1172 1.561 . S
C1170 C1173 1.526 1_556 S
C1171 H1155 0.959 . S
C1171 H1156 0.959 . S
C1171 H1157 0.961 . S
C1171 C1170 1.502 . S
C1172 H1158 0.960 . S
C1172 H1159 0.961 . S
C1172 H1160 0.959 . S
C1172 C1170 1.561 . S
C1173 C1170 1.526 1_554 S
C1173 C1174 1.396 . S
C1173 C1178 1.390 . S
C1174 C1168 1.465 1_544 S
C1174 C1173 1.396 . S
C1174 C1175 1.399 1_545 S
C1175 H1161 0.929 . S
C1175 C1174 1.399 1_565 S
C1175 C1176 1.385 1_565 S
C1176 H1162 0.931 . S
C1176 C1175 1.385 1_545 S
C1176 C1177 1.389 . S
C1177 C1176 1.389 . S
C1177 C1178 1.387 . S
C1178 H1163 0.930 . S
C1178 C1173 1.390 . S
C1178 C1177 1.387 . S
H1179 C1191 0.930 1_554 S
H1180 C1193 0.930 . S
H1181 C1194 0.930 . S
H1182 C1198 0.959 . S
H1183 C1198 0.959 . S
H1184 C1198 0.961 . S
H1185 C1199 0.960 . S
H1186 C1199 0.961 . S
H1187 C1199 0.959 1_655 S
H1188 C1202 0.929 . S
H1189 C1203 0.931 1_556 S
H1190 C1205 0.937 . S
C1191 H1179 0.930 1_556 S
C1191 C1192 1.399 . S
C1191 C1196 1.389 1_556 S
C1192 C1191 1.399 . S
C1192 C1193 1.376 . S
C1193 H1180 0.930 . S
C1193 C1192 1.376 . S
C1193 C1194 1.388 . S
C1194 H1181 0.930 . S
C1194 C1193 1.388 . S
C1194 C1195 1.390 . S
C1195 C1194 1.390 . S
C1195 C1196 1.372 1_556 S
C1195 C1201 1.464 1_455 S
C1196 C1191 1.389 1_554 S
C1196 C1195 1.372 1_554 S
C1196 C1197 1.547 . S
C1197 C1196 1.547 . S
C1197 C1198 1.502 . S
C1197 C1199 1.561 . S
C1197 C1200 1.526 . S
C1198 H1182 0.959 . S
C1198 H1183 0.959 . S
C1198 H1184 0.961 . S
C1198 C1197 1.502 . S
C1199 H1185 0.960 . S
C1199 H1186 0.961 . S
C1199 H1187 0.959 1_455 S
C1199 C1197 1.561 . S
C1200 C1197 1.526 . S
C1200 C1201 1.393 1_454 S
C1200 C1205 1.390 1_455 S
C1201 C1195 1.464 1_655 S
C1201 C1200 1.393 1_656 S
C1201 C1202 1.403 . S
C1202 H1188 0.929 . S
C1202 C1201 1.403 . S
C1202 C1203 1.385 1_556 S
C1203 H1189 0.931 1_554 S
C1203 C1202 1.385 1_554 S
C1203 C1204 1.389 . S
C1204 C1203 1.389 . S
C1204 C1205 1.387 . S
C1205 H1190 0.937 . S
C1205 C1200 1.390 1_655 S
C1205 C1204 1.387 . S
C247 C1 1.919 . S
C259 C183 1.953 1_554 S
C274 C159 1.869 1_554 S
C286 C16 1.793 . S
C301 C29 1.861 . S
C313 C170 1.881 1_554 S
C328 C79 1.997 . S
C340 C27 1.937 . S
C355 C101 2.025 . S
C367 C3 1.859 . S
C382 C105 1.952 . S
C394 C14 1.928 . S
C409 C49 1.952 . S
C421 C144 2.063 1_556 S
C436 C118 2.030 1_556 S
C448 C57 1.932 . S
C463 C140 1.909 1_556 S
C475 C68 2.036 . S
C490 C66 2.043 . S
C502 C205 1.999 . S
C517 C44 1.852 . S
C529 C213 1.797 . S
C544 C224 2.012 . S
C556 C62 1.945 . S
C571 C157 1.854 . S
C583 C107 1.896 . S
C598 C81 1.824 . S
C610 C172 1.883 . S
C625 C185 1.852 . S
C637 C96 1.986 . S
C652 C222 2.017 . S
C664 C120 1.986 . S
C679 C135 1.786 . S
C691 C200 1.859 . S
C706 C218 1.912 . S
C718 C146 2.014 . S
C733 C196 1.678 . S
C745 C10 1.644 . S
C760 C18 1.593 . S
C772 C211 1.564 . S
C787 C31 1.580 . S
C799 C226 1.598 . S
C814 C36 1.637 . S
C826 C153 1.645 . S
C841 C127 1.649 . S
C853 C5 1.628 . S
C868 C23 1.654 . S
C880 C131 1.640 . S
C895 C88 1.634 . S
C907 C40 1.659 . S
C922 C92 1.636 . S
C934 C55 1.604 . S
C949 C70 1.637 . S
C961 C114 1.616 . S
C976 C75 1.669 . S
C988 C192 1.644 . S
C1003 C42 1.602 . S
C1015 C161 1.563 . S
C1030 C53 1.649 . S
C1042 C179 1.684 . S
C1057 C109 1.588 . S
C1069 C231 1.619 . S
C1084 C83 1.592 . S
C1096 C198 1.608 . S
C1111 C209 1.603 . S
C1123 C94 1.623 . S
C1138 C166 1.630 . S
C1150 C122 1.627 . S
C1165 C174 1.615 . S
C1177 C133 1.583 . S
C1192 C187 1.585 . S
C1204 C148 1.601 . S
