# Generated by pormake.
# Topology vmr, (7)-cn, num edge types: 1
# Building blocks:
#     Node 0, Type 0, BuildingBlock: HICVOG_clean_sbu_0, # of connection points: 7
#     Node 1, Type 0, BuildingBlock: HICVOG_clean_sbu_0, # of connection points: 7
#     Node 2, Type 0, BuildingBlock: HICVOG_clean_sbu_0, # of connection points: 7
#     Node 3, Type 0, BuildingBlock: HICVOG_clean_sbu_0, # of connection points: 7
#     Edge 4, Type (0, 0), BuildingBlock: OJICUG_clean_linker_0, # of connection points: 2
#     Edge 5, Type (0, 0), BuildingBlock: OJICUG_clean_linker_0, # of connection points: 2
#     Edge 6, Type (0, 0), BuildingBlock: OJICUG_clean_linker_0, # of connection points: 2
#     Edge 7, Type (0, 0), BuildingBlock: OJICUG_clean_linker_0, # of connection points: 2
#     Edge 8, Type (0, 0), BuildingBlock: OJICUG_clean_linker_0, # of connection points: 2
#     Edge 9, Type (0, 0), BuildingBlock: OJICUG_clean_linker_0, # of connection points: 2
#     Edge 10, Type (0, 0), BuildingBlock: OJICUG_clean_linker_0, # of connection points: 2
#     Edge 11, Type (0, 0), BuildingBlock: OJICUG_clean_linker_0, # of connection points: 2
#     Edge 12, Type (0, 0), BuildingBlock: OJICUG_clean_linker_0, # of connection points: 2
#     Edge 13, Type (0, 0), BuildingBlock: OJICUG_clean_linker_0, # of connection points: 2
#     Edge 14, Type (0, 0), BuildingBlock: OJICUG_clean_linker_0, # of connection points: 2
#     Edge 15, Type (0, 0), BuildingBlock: OJICUG_clean_linker_0, # of connection points: 2
#     Edge 16, Type (0, 0), BuildingBlock: OJICUG_clean_linker_0, # of connection points: 2
#     Edge 17, Type (0, 0), BuildingBlock: OJICUG_clean_linker_0, # of connection points: 2
# Relax obj value: 0.080
# Max RMSD: 0.179
# Mean RMSD: 0.179
data_MOF--net-vmr--node1-HICVOG_clean_sbu_0--edge1-OJICUG_clean_linker_0
_symmetry_space_group_name_H-M    P1
_symmetry_Int_Tables_number       1
_symmetry_cell_setting            triclinic
loop_
_symmetry_equiv_pos_as_xyz
'x, y, z'
_cell_length_a     19.497887
_cell_length_b     15.835224
_cell_length_c     27.824798
_cell_angle_alpha  90.409416
_cell_angle_beta   123.11171
_cell_angle_gamma 89.952269
loop_
_atom_site_label
_atom_site_type_symbol
_atom_site_fract_x
_atom_site_fract_y
_atom_site_fract_z
_atom_type_partial_charge
Zn0 Zn 0.22529 0.42595 0.13301 0.0
C1 C 0.04699 0.40437 0.16242 0.0
N2 N 1.00419 0.44866 0.11358 0.0
C3 C 0.05262 0.44644 0.09318 0.0
N4 N 0.1234 0.40514 0.12883 0.0
N5 N 0.11873 0.37616 0.17156 0.0
C6 C 0.23705 0.31659 0.34287 0.0
O7 O 0.29673 0.35988 0.34584 0.0
O8 O 0.21259 0.40385 0.05657 0.0
Zn9 Zn 0.18325 0.28301 0.22298 0.0
N10 N 0.25828 0.54374 0.15582 0.0
C11 C 0.23053 0.67815 0.18021 0.0
C12 C 0.2089 0.59436 0.16381 0.0
C13 C 0.33086 0.57335 0.16595 0.0
N14 N 0.30245 0.70757 0.19023 0.0
C15 C 0.35451 0.65795 0.18427 0.0
O16 O 0.30172 0.27187 0.24645 0.0
C17 C 0.34684 0.30086 0.23036 0.0
O18 O 0.31999 0.35479 0.19044 0.0
H19 H 0.15362 0.57002 0.1585 0.0
H20 H 0.3702 0.53037 0.16152 0.0
C21 C 0.09017 0.13299 0.20286 0.0
C22 C 0.06162 0.05123 0.18143 0.0
C23 C 0.11232 0.06419 0.12146 0.0
C24 C 0.14186 0.14515 0.14363 0.0
N25 N 0.13094 0.17753 0.18435 0.0
N26 N 0.07403 1.01848 0.14146 0.0
H27 H 0.08331 0.15939 0.23598 0.0
C28 C 0.23639 0.33434 0.04721 0.0
O29 O 0.26641 0.27582 0.08681 0.0
O30 O 0.18251 0.2829 0.29546 0.0
H31 H 0.17504 0.18102 0.12967 0.0
H32 H 0.19128 0.71921 0.18613 0.0
H33 H 0.12139 1.03719 0.08951 0.0
Zn34 Zn 0.83645 0.78358 0.26685 0.0
C35 C 0.96847 0.94989 0.3944 0.0
N36 N 1.01273 0.95368 0.37069 0.0
C37 C 0.9673 0.90851 0.32199 0.0
N38 N 0.89783 0.87965 0.31584 0.0
N39 N 0.89718 0.90763 0.36055 0.0
C40 C 0.79067 0.83509 0.44527 0.0
O41 O 0.76215 0.77572 0.40565 0.0
O42 O 0.83771 0.78345 0.19467 0.0
Zn43 Zn 0.79676 0.92792 0.35855 0.0
N44 N 0.89662 0.68284 0.30746 0.0
C45 C 0.98011 0.60636 0.39404 0.0
C46 C 0.92958 0.67515 0.36468 0.0
C47 C 0.91059 0.6235 0.27822 0.0
N48 N 0.99641 0.54865 0.36514 0.0
C49 C 0.96219 0.55495 0.30763 0.0
O50 O 0.70202 0.85478 0.3013 0.0
C51 C 0.67472 0.79915 0.26173 0.0
O52 O 0.71914 0.76909 0.24516 0.0
H53 H 0.91826 0.72299 0.38746 0.0
H54 H 0.88493 0.63172 0.23291 0.0
C55 C 0.69026 0.07491 0.32634 0.0
C56 C 0.66697 0.15951 0.30883 0.0
C57 C 0.79151 0.18037 0.3138 0.0
C58 C 0.81279 0.09669 0.32938 0.0
N59 N 0.76302 1.04564 0.33655 0.0
N60 N 0.71952 0.2094 0.30374 0.0
H61 H 0.65058 1.03177 0.33015 0.0
C62 C 0.80306 0.83453 0.153 0.0
O63 O 0.76103 0.89814 0.1546 0.0
O64 O 0.8118 0.90583 0.43563 0.0
H65 H 0.86814 0.07287 0.33466 0.0
H66 H 1.00764 0.59994 0.43973 0.0
H67 H 0.83111 0.22166 0.30855 0.0
Zn68 Zn 0.84695 0.81718 0.77189 0.0
C69 C 0.97362 0.64805 0.89795 0.0
N70 N 0.0209 0.64486 0.87665 0.0
C71 C 0.97834 0.69081 0.82854 0.0
N72 N 0.90782 0.72056 0.82059 0.0
N73 N 0.90383 0.69158 0.86357 0.0
C74 C 0.80883 0.7713 0.95002 0.0
O75 O 0.79412 0.83264 0.91408 0.0
O76 O 0.8456 0.81753 0.69852 0.0
Zn77 Zn 0.80257 0.67333 0.8603 0.0
N78 N 0.90831 0.91768 0.81317 0.0
C79 C 0.99459 0.9945 0.90006 0.0
C80 C 0.94345 0.92545 0.87072 0.0
C81 C 0.92064 0.97711 0.78362 0.0
N82 N 1.00935 0.05228 0.87076 0.0
C83 C 0.97289 1.04583 0.81295 0.0
O84 O 0.70999 0.74757 0.80447 0.0
C85 C 0.68431 0.80388 0.7661 0.0
O86 O 0.72986 0.83361 0.75056 0.0
H87 H 0.93338 0.87747 0.89374 0.0
H88 H 0.89325 0.96871 0.73803 0.0
C89 C 0.69496 0.52736 0.82803 0.0
C90 C 0.66905 0.44349 0.80829 0.0
C91 C 0.78941 0.42335 0.80737 0.0
C92 C 0.81307 0.50627 0.8252 0.0
N93 N 0.76657 0.5565 0.83624 0.0
N94 N 0.71845 0.39442 0.7992 0.0
H95 H 0.6589 0.57014 0.83583 0.0
C96 C 0.7896 0.78591 0.65078 0.0
O97 O 0.72888 0.74455 0.64765 0.0
O98 O 0.81684 0.69633 0.93697 0.0
H99 H 0.86766 0.53026 0.82927 0.0
H100 H 0.02387 1.00102 0.94598 0.0
H101 H 0.82631 0.38256 0.79896 0.0
Zn102 Zn 0.18463 0.31693 0.72208 0.0
C103 C 0.05784 0.14766 0.59511 0.0
N104 N 1.01017 0.14505 0.61612 0.0
C105 C 0.05336 0.19027 0.665 0.0
N106 N 0.12452 0.21916 0.6736 0.0
N107 N 0.12857 0.19004 0.63045 0.0
C108 C 0.23665 0.26517 0.54834 0.0
O109 O 0.26317 0.32493 0.58759 0.0
O110 O 0.18514 0.3186 0.79504 0.0
Zn111 Zn 0.23056 0.17107 0.63449 0.0
N112 N 0.12367 0.41655 0.6806 0.0
C113 C 0.03862 0.49179 0.59371 0.0
C114 C 0.08935 0.42316 0.62315 0.0
C115 C 0.11096 0.47673 0.70995 0.0
N116 N 0.02347 0.55035 0.62278 0.0
C117 C 0.05915 0.54505 0.68051 0.0
O118 O 0.32477 0.24411 0.6924 0.0
C119 C 0.34909 0.30163 0.73052 0.0
O120 O 0.30184 0.333 0.74419 0.0
H121 H 0.09978 0.37463 0.60029 0.0
H122 H 0.13772 0.46925 0.75546 0.0
C123 C 0.33823 1.02584 0.66781 0.0
C124 C 0.36224 0.94149 0.6854 0.0
C125 C 0.23639 0.91806 0.67812 0.0
C126 C 0.21434 1.0016 0.66248 0.0
N127 N 0.2645 0.05374 0.65643 0.0
N128 N 0.30942 0.89036 0.68938 0.0
H129 H 0.3781 0.0699 0.6649 0.0
C130 C 0.24109 0.28762 0.84261 0.0
O131 O 0.30197 0.24677 0.84559 0.0
O132 O 0.21713 0.19363 0.55814 0.0
H133 H 0.15812 1.02448 0.65627 0.0
H134 H 1.00999 0.49741 0.54786 0.0
H135 H 0.19655 0.87584 0.6825 0.0
C136 C 0.48178 0.30355 0.23967 0.0
C137 C 0.43079 0.26699 0.25497 0.0
H138 H 0.59393 0.29855 0.24394 0.0
C139 C 0.45915 0.19542 0.29048 0.0
H140 H 0.46246 0.35877 0.21255 0.0
C141 C 0.53588 0.16012 0.30888 0.0
C142 C 0.58595 0.19574 0.29215 0.0
H143 H 0.42147 0.16564 0.30316 0.0
H144 H 0.55542 0.10524 0.33614 0.0
C145 C 0.55786 0.26868 0.25795 0.0
C146 C 0.48434 0.65892 0.18282 0.0
C147 C 0.4355 0.6942 0.20087 0.0
H148 H 0.59779 0.66454 0.18728 0.0
C149 C 0.46491 0.76659 0.23634 0.0
H150 H 0.46369 0.60451 0.15451 0.0
C151 C 0.54114 0.80131 0.25451 0.0
C152 C 0.59088 0.76506 0.23782 0.0
H153 H 0.42975 0.79611 0.25135 0.0
H154 H 0.56152 0.85616 0.28258 0.0
C155 C 0.56117 0.69399 0.20112 0.0
C156 C 0.47298 0.83473 0.73813 0.0
C157 C 0.44422 0.90692 0.70329 0.0
H158 H 0.56927 0.74601 0.78445 0.0
C159 C 0.49441 0.9433 0.68691 0.0
H160 H 0.43684 0.80446 0.75194 0.0
C161 C 0.57178 0.90914 0.70603 0.0
C162 C 0.60059 0.838 0.74189 0.0
H163 H 0.47431 0.99771 0.65919 0.0
H164 H 0.60937 0.93916 0.69335 0.0
C165 C 0.54965 0.80096 0.75709 0.0
C166 C 0.532 0.45169 0.80064 0.0
C167 C 0.58886 0.4068 0.79387 0.0
H168 H 0.41211 0.45359 0.78655 0.0
C169 C 0.56716 0.32459 0.77021 0.0
H170 H 0.54514 0.51446 0.81904 0.0
C171 C 0.49067 0.29008 0.75156 0.0
C172 C 0.4331 0.336 0.75633 0.0
H173 H 0.60848 0.28666 0.76452 0.0
H174 H 0.4762 0.2275 0.73239 0.0
C175 C 0.45519 0.4165 0.78224 0.0
C176 C 0.0654 0.92796 0.23825 0.0
C177 C 0.02456 0.99969 0.20552 0.0
H178 H 0.07851 0.84115 0.3019 0.0
C179 C 0.95536 1.02941 0.20358 0.0
H180 H 0.11951 0.9047 0.24074 0.0
C181 C 0.93085 0.99183 0.23711 0.0
C182 C 0.97566 0.92461 0.27354 0.0
H183 H 0.92334 0.08493 0.17886 0.0
H184 H 0.88108 1.01998 0.23828 0.0
C185 C 0.04184 0.8914 0.27289 0.0
C186 C 0.94693 0.41783 0.1907 0.0
C187 C 0.02904 0.41557 0.20714 0.0
H188 H 0.86108 0.46425 0.20998 0.0
C189 C 0.08964 0.44903 0.26087 0.0
H190 H 0.8988 0.39464 0.14879 0.0
C191 C 0.06828 0.48731 0.29642 0.0
C192 C 0.98559 0.49596 0.27757 0.0
H193 H 0.15254 0.4532 0.27293 0.0
H194 H 0.11573 0.51711 0.33608 0.0
C195 C 0.92529 0.45821 0.22541 0.0
C196 C 0.93399 0.13975 0.73002 0.0
C197 C 0.99512 0.10417 0.78232 0.0
H198 H 0.90575 0.19948 0.65239 0.0
C199 C 0.07748 0.11329 0.80042 0.0
H200 H 0.87001 0.13327 0.71516 0.0
C201 C 0.09769 0.1496 0.76399 0.0
C202 C 0.03623 0.18061 0.71011 0.0
H203 H 0.12554 0.08512 0.84016 0.0
H204 H 0.1604 0.14582 0.7756 0.0
C205 C 0.95447 0.17809 0.69437 0.0
C206 C 0.09767 0.64104 0.76327 0.0
C207 C 0.03666 0.60427 0.71093 0.0
H208 H 0.12572 0.7019 0.84106 0.0
C209 C 0.95426 0.61279 0.6928 0.0
H210 H 0.16167 0.63502 0.77815 0.0
C211 C 0.93392 0.64956 0.7293 0.0
C212 C 0.99531 0.68151 0.78329 0.0
H213 H 0.9063 0.5837 0.65302 0.0
H214 H 0.87123 0.64527 0.71769 0.0
C215 C 0.07706 0.67977 0.799 0.0
C216 C 0.98889 0.6313 0.99248 0.0
C217 C 0.99101 0.59604 0.94706 0.0
H218 H 1.00679 0.61077 0.07467 0.0
C219 C 0.0163 0.51184 0.95073 0.0
H220 H 0.97335 0.69712 0.99174 0.0
C221 C 0.03774 0.46314 -0.00128 0.0
C222 C 0.03533 0.49835 0.04405 0.0
H223 H 0.01838 0.48343 0.91602 0.0
H224 H 0.05407 0.3975 -0.00028 0.0
C225 C 1.0096 0.58243 0.04022 0.0
C226 C 0.98718 0.96516 0.49023 0.0
C227 C 0.98986 1.00066 0.44537 0.0
H228 H 1.00799 0.98441 0.57355 0.0
C229 C 0.01845 0.08394 0.45098 0.0
H230 H 0.96863 0.90003 0.48781 0.0
C231 C 0.04209 0.13176 0.50018 0.0
C232 C 0.03919 0.09632 0.54497 0.0
H233 H 0.02087 0.11259 0.4167 0.0
H234 H 0.0601 0.19705 0.50243 0.0
C235 C 1.01087 1.01293 0.53942 0.0
C236 C 0.19104 0.36308 0.89719 0.0
C237 C 0.23731 0.29769 0.894 0.0
H238 H 0.15579 0.42707 0.94854 0.0
C239 C 0.28117 0.24321 0.94081 0.0
H240 H 0.15676 0.40629 0.8618 0.0
C241 C 0.27926 0.25414 0.98998 0.0
C242 C 0.23466 0.32076 0.99382 0.0
H243 H 0.31692 0.19196 0.93944 0.0
H244 H 0.31413 0.21124 0.02544 0.0
C245 C 0.19047 0.37506 0.94685 0.0
C246 C 0.83785 0.86314 0.59613 0.0
C247 C 0.79278 0.79649 0.59923 0.0
H248 H 0.8712 0.92871 0.54463 0.0
C249 C 0.74924 0.7414 0.55209 0.0
H250 H 0.87183 0.90685 0.63175 0.0
C251 C 0.75026 0.75298 0.5027 0.0
C252 C 0.79355 0.82088 0.49894 0.0
H253 H 0.71439 0.68922 0.55337 0.0
H254 H 0.71562 0.70959 0.46699 0.0
C255 C 0.83746 0.87577 0.54624 0.0
C256 C 0.7862 0.86764 0.01201 0.0
C257 C 0.81162 0.7889 0.00346 0.0
H258 H 0.76318 0.94377 0.06574 0.0
C259 C 0.83723 0.72662 0.04562 0.0
H260 H 0.76625 0.91711 0.98043 0.0
C261 C 0.83612 0.74224 0.09473 0.0
C262 C 0.80833 0.8201 0.10243 0.0
H263 H 0.85749 0.66546 0.04048 0.0
H264 H 0.85544 0.69249 0.12608 0.0
C265 C 0.78414 0.88291 0.06081 0.0
C266 C 0.19108 0.2244 0.44771 0.0
C267 C 0.23359 0.28006 0.4947 0.0
H268 H 0.15755 0.19325 0.36242 0.0
C269 C 0.27513 0.34939 0.49058 0.0
H270 H 0.1587 0.17037 0.4496 0.0
C271 C 0.27588 0.36158 0.44114 0.0
C272 C 0.23381 0.30566 0.39434 0.0
H273 H 0.30861 0.3934 0.52606 0.0
H274 H 0.30945 0.41482 0.43959 0.0
C275 C 0.19039 0.23761 0.39778 0.0
loop_
_geom_bond_atom_site_label_1
_geom_bond_atom_site_label_2
_geom_bond_distance
_geom_bond_site_symmetry_2
_ccdc_geom_bond_type
Zn0 N4 2.020 . S
Zn0 O8 2.019 . S
Zn0 N10 2.119 . S
Zn0 O18 1.975 . S
C1 N2 1.334 . S
C1 N5 1.336 . S
N2 C1 1.334 . S
N2 C3 1.334 . S
C3 N2 1.334 . S
C3 N4 1.336 . S
N4 Zn0 2.020 . S
N4 C3 1.336 . S
N4 N5 1.354 . S
N5 C1 1.336 . S
N5 N4 1.354 . S
N5 Zn9 2.020 . S
C6 O7 1.244 . S
C6 O30 1.257 . S
O7 C6 1.244 . S
O8 Zn0 2.019 . S
O8 C28 1.257 . S
Zn9 N5 2.020 . S
Zn9 O16 1.975 . S
Zn9 N25 2.119 . S
Zn9 O30 2.019 . S
N10 Zn0 2.119 . S
N10 C12 1.334 . S
N10 C13 1.328 . S
C11 C12 1.391 . S
C11 N14 1.329 . S
C11 H32 0.930 . S
C12 N10 1.334 . S
C12 C11 1.391 . S
C12 H19 0.930 . S
C13 N10 1.328 . S
C13 C15 1.392 . S
C13 H20 0.930 . S
N14 C11 1.329 . S
N14 C15 1.331 . S
C15 C13 1.392 . S
C15 N14 1.331 . S
O16 Zn9 1.975 . S
O16 C17 1.252 . S
C17 O16 1.252 . S
C17 O18 1.252 . S
O18 Zn0 1.975 . S
O18 C17 1.252 . S
H19 C12 0.930 . S
H20 C13 0.930 . S
C21 C22 1.392 . S
C21 N25 1.328 . S
C21 H27 0.930 . S
C22 C21 1.392 . S
C22 N26 1.331 . S
C23 C24 1.391 . S
C23 N26 1.329 . S
C23 H33 0.930 . S
C24 C23 1.391 . S
C24 N25 1.334 . S
C24 H31 0.930 . S
N25 Zn9 2.119 . S
N25 C21 1.328 . S
N25 C24 1.334 . S
N26 C22 1.331 . S
N26 C23 1.329 . S
H27 C21 0.930 . S
C28 O8 1.257 . S
C28 O29 1.244 . S
O29 C28 1.244 . S
O30 C6 1.257 . S
O30 Zn9 2.019 . S
H31 C24 0.930 . S
H32 C11 0.930 . S
H33 C23 0.930 . S
Zn34 N38 2.020 . S
Zn34 O42 2.019 . S
Zn34 N44 2.119 . S
Zn34 O52 1.975 . S
C35 N36 1.334 . S
C35 N39 1.336 . S
N36 C35 1.334 . S
N36 C37 1.334 . S
C37 N36 1.334 . S
C37 N38 1.336 . S
N38 Zn34 2.020 . S
N38 C37 1.336 . S
N38 N39 1.354 . S
N39 C35 1.336 . S
N39 N38 1.354 . S
N39 Zn43 2.020 . S
C40 O41 1.244 . S
C40 O64 1.257 . S
O41 C40 1.244 . S
O42 Zn34 2.019 . S
O42 C62 1.257 . S
Zn43 N39 2.020 . S
Zn43 O50 1.975 . S
Zn43 N59 2.119 . S
Zn43 O64 2.019 . S
N44 Zn34 2.119 . S
N44 C46 1.334 . S
N44 C47 1.328 . S
C45 C46 1.391 . S
C45 N48 1.329 . S
C45 H66 0.930 . S
C46 N44 1.334 . S
C46 C45 1.391 . S
C46 H53 0.930 . S
C47 N44 1.328 . S
C47 C49 1.392 . S
C47 H54 0.930 . S
N48 C45 1.329 . S
N48 C49 1.331 . S
C49 C47 1.392 . S
C49 N48 1.331 . S
O50 Zn43 1.975 . S
O50 C51 1.252 . S
C51 O50 1.252 . S
C51 O52 1.252 . S
O52 Zn34 1.975 . S
O52 C51 1.252 . S
H53 C46 0.930 . S
H54 C47 0.930 . S
C55 C56 1.392 . S
C55 N59 1.328 . S
C55 H61 0.930 . S
C56 C55 1.392 . S
C56 N60 1.331 . S
C57 C58 1.391 . S
C57 N60 1.329 . S
C57 H67 0.930 . S
C58 C57 1.391 . S
C58 N59 1.334 . S
C58 H65 0.930 . S
N59 Zn43 2.119 . S
N59 C55 1.328 . S
N59 C58 1.334 . S
N60 C56 1.331 . S
N60 C57 1.329 . S
H61 C55 0.930 . S
C62 O42 1.257 . S
C62 O63 1.244 . S
O63 C62 1.244 . S
O64 C40 1.257 . S
O64 Zn43 2.019 . S
H65 C58 0.930 . S
H66 C45 0.930 . S
H67 C57 0.930 . S
Zn68 N72 2.020 . S
Zn68 O76 2.019 . S
Zn68 N78 2.119 . S
Zn68 O86 1.975 . S
C69 N70 1.334 . S
C69 N73 1.336 . S
N70 C69 1.334 . S
N70 C71 1.334 . S
C71 N70 1.334 . S
C71 N72 1.336 . S
N72 Zn68 2.020 . S
N72 C71 1.336 . S
N72 N73 1.354 . S
N73 C69 1.336 . S
N73 N72 1.354 . S
N73 Zn77 2.020 . S
C74 O75 1.244 . S
C74 O98 1.257 . S
O75 C74 1.244 . S
O76 Zn68 2.019 . S
O76 C96 1.257 . S
Zn77 N73 2.020 . S
Zn77 O84 1.975 . S
Zn77 N93 2.119 . S
Zn77 O98 2.019 . S
N78 Zn68 2.119 . S
N78 C80 1.334 . S
N78 C81 1.328 . S
C79 C80 1.391 . S
C79 N82 1.329 . S
C79 H100 0.930 . S
C80 N78 1.334 . S
C80 C79 1.391 . S
C80 H87 0.930 . S
C81 N78 1.328 . S
C81 C83 1.392 . S
C81 H88 0.930 . S
N82 C79 1.329 . S
N82 C83 1.331 . S
C83 C81 1.392 . S
C83 N82 1.331 . S
O84 Zn77 1.975 . S
O84 C85 1.252 . S
C85 O84 1.252 . S
C85 O86 1.252 . S
O86 Zn68 1.975 . S
O86 C85 1.252 . S
H87 C80 0.930 . S
H88 C81 0.930 . S
C89 C90 1.392 . S
C89 N93 1.328 . S
C89 H95 0.930 . S
C90 C89 1.392 . S
C90 N94 1.331 . S
C91 C92 1.391 . S
C91 N94 1.329 . S
C91 H101 0.930 . S
C92 C91 1.391 . S
C92 N93 1.334 . S
C92 H99 0.930 . S
N93 Zn77 2.119 . S
N93 C89 1.328 . S
N93 C92 1.334 . S
N94 C90 1.331 . S
N94 C91 1.329 . S
H95 C89 0.930 . S
C96 O76 1.257 . S
C96 O97 1.244 . S
O97 C96 1.244 . S
O98 C74 1.257 . S
O98 Zn77 2.019 . S
H99 C92 0.930 . S
H100 C79 0.930 . S
H101 C91 0.930 . S
Zn102 N106 2.020 . S
Zn102 O110 2.019 . S
Zn102 N112 2.119 . S
Zn102 O120 1.975 . S
C103 N104 1.334 . S
C103 N107 1.336 . S
N104 C103 1.334 . S
N104 C105 1.334 . S
C105 N104 1.334 . S
C105 N106 1.336 . S
N106 Zn102 2.020 . S
N106 C105 1.336 . S
N106 N107 1.354 . S
N107 C103 1.336 . S
N107 N106 1.354 . S
N107 Zn111 2.020 . S
C108 O109 1.244 . S
C108 O132 1.257 . S
O109 C108 1.244 . S
O110 Zn102 2.019 . S
O110 C130 1.257 . S
Zn111 N107 2.020 . S
Zn111 O118 1.975 . S
Zn111 N127 2.119 . S
Zn111 O132 2.019 . S
N112 Zn102 2.119 . S
N112 C114 1.334 . S
N112 C115 1.328 . S
C113 C114 1.391 . S
C113 N116 1.329 . S
C113 H134 0.930 . S
C114 N112 1.334 . S
C114 C113 1.391 . S
C114 H121 0.930 . S
C115 N112 1.328 . S
C115 C117 1.392 . S
C115 H122 0.930 . S
N116 C113 1.329 . S
N116 C117 1.331 . S
C117 C115 1.392 . S
C117 N116 1.331 . S
O118 Zn111 1.975 . S
O118 C119 1.252 . S
C119 O118 1.252 . S
C119 O120 1.252 . S
O120 Zn102 1.975 . S
O120 C119 1.252 . S
H121 C114 0.930 . S
H122 C115 0.930 . S
C123 C124 1.392 . S
C123 N127 1.328 . S
C123 H129 0.930 . S
C124 C123 1.392 . S
C124 N128 1.331 . S
C125 C126 1.391 . S
C125 N128 1.329 . S
C125 H135 0.930 . S
C126 C125 1.391 . S
C126 N127 1.334 . S
C126 H133 0.930 . S
N127 Zn111 2.119 . S
N127 C123 1.328 . S
N127 C126 1.334 . S
N128 C124 1.331 . S
N128 C125 1.329 . S
H129 C123 0.930 . S
C130 O110 1.257 . S
C130 O131 1.244 . S
O131 C130 1.244 . S
O132 C108 1.257 . S
O132 Zn111 2.019 . S
H133 C126 0.930 . S
H134 C113 0.930 . S
H135 C125 0.930 . S
C136 C137 1.387 . S
C136 H140 0.950 . S
C136 C145 1.390 . S
C137 C136 1.387 . S
C137 C139 1.387 . S
H138 C145 0.950 . S
C139 C137 1.387 . S
C139 C141 1.390 . S
C139 H143 0.950 . S
H140 C136 0.950 . S
C141 C139 1.390 . S
C141 C142 1.387 . S
C141 H144 0.950 . S
C142 C141 1.387 . S
C142 C145 1.387 . S
H143 C139 0.950 . S
H144 C141 0.950 . S
C145 C136 1.390 . S
C145 H138 0.950 . S
C145 C142 1.387 . S
C146 C147 1.387 . S
C146 H150 0.950 . S
C146 C155 1.390 . S
C147 C146 1.387 . S
C147 C149 1.387 . S
H148 C155 0.950 . S
C149 C147 1.387 . S
C149 C151 1.390 . S
C149 H153 0.950 . S
H150 C146 0.950 . S
C151 C149 1.390 . S
C151 C152 1.387 . S
C151 H154 0.950 . S
C152 C151 1.387 . S
C152 C155 1.387 . S
H153 C149 0.950 . S
H154 C151 0.950 . S
C155 C146 1.390 . S
C155 H148 0.950 . S
C155 C152 1.387 . S
C156 C157 1.387 . S
C156 H160 0.950 . S
C156 C165 1.390 . S
C157 C156 1.387 . S
C157 C159 1.387 . S
H158 C165 0.950 . S
C159 C157 1.387 . S
C159 C161 1.390 . S
C159 H163 0.950 . S
H160 C156 0.950 . S
C161 C159 1.390 . S
C161 C162 1.387 . S
C161 H164 0.950 . S
C162 C161 1.387 . S
C162 C165 1.387 . S
H163 C159 0.950 . S
H164 C161 0.950 . S
C165 C156 1.390 . S
C165 H158 0.950 . S
C165 C162 1.387 . S
C166 C167 1.387 . S
C166 H170 0.950 . S
C166 C175 1.390 . S
C167 C166 1.387 . S
C167 C169 1.387 . S
H168 C175 0.950 . S
C169 C167 1.387 . S
C169 C171 1.390 . S
C169 H173 0.950 . S
H170 C166 0.950 . S
C171 C169 1.390 . S
C171 C172 1.387 . S
C171 H174 0.950 . S
C172 C171 1.387 . S
C172 C175 1.387 . S
H173 C169 0.950 . S
H174 C171 0.950 . S
C175 C166 1.390 . S
C175 H168 0.950 . S
C175 C172 1.387 . S
C176 C177 1.387 1_665 S
C176 H180 0.950 . S
C176 C185 1.390 . S
C177 C176 1.387 1_445 S
C177 C179 1.387 . S
H178 C185 0.950 . S
C179 C177 1.387 . S
C179 C181 1.390 1_445 S
C179 H183 0.950 . S
H180 C176 0.950 . S
C181 C179 1.390 1_665 S
C181 C182 1.387 . S
C181 H184 0.950 . S
C182 C181 1.387 . S
C182 C185 1.387 . S
H183 C179 0.950 . S
H184 C181 0.950 . S
C185 C176 1.390 . S
C185 H178 0.950 . S
C185 C182 1.387 . S
C186 C187 1.387 . S
C186 H190 0.950 . S
C186 C195 1.390 . S
C187 C186 1.387 . S
C187 C189 1.387 . S
H188 C195 0.950 . S
C189 C187 1.387 . S
C189 C191 1.390 . S
C189 H193 0.950 . S
H190 C186 0.950 . S
C191 C189 1.390 . S
C191 C192 1.387 1_455 S
C191 H194 0.950 . S
C192 C191 1.387 1_655 S
C192 C195 1.387 1_655 S
H193 C189 0.950 . S
H194 C191 0.950 . S
C195 C186 1.390 . S
C195 H188 0.950 . S
C195 C192 1.387 1_455 S
C196 C197 1.387 . S
C196 H200 0.950 . S
C196 C205 1.390 1_665 S
C197 C196 1.387 . S
C197 C199 1.387 1_665 S
H198 C205 0.950 1_655 S
C199 C197 1.387 1_445 S
C199 C201 1.390 . S
C199 H203 0.950 . S
H200 C196 0.950 . S
C201 C199 1.390 . S
C201 C202 1.387 . S
C201 H204 0.950 . S
C202 C201 1.387 . S
C202 C205 1.387 . S
H203 C199 0.950 . S
H204 C201 0.950 . S
C205 C196 1.390 1_445 S
C205 H198 0.950 1_455 S
C205 C202 1.387 . S
C206 C207 1.387 . S
C206 H210 0.950 . S
C206 C215 1.390 . S
C207 C206 1.387 . S
C207 C209 1.387 1_455 S
H208 C215 0.950 . S
C209 C207 1.387 1_655 S
C209 C211 1.390 . S
C209 H213 0.950 . S
H210 C206 0.950 . S
C211 C209 1.390 . S
C211 C212 1.387 . S
C211 H214 0.950 . S
C212 C211 1.387 . S
C212 C215 1.387 1_655 S
H213 C209 0.950 . S
H214 C211 0.950 . S
C215 C206 1.390 . S
C215 H208 0.950 . S
C215 C212 1.387 1_455 S
C216 C217 1.387 1_554 S
C216 H220 0.950 . S
C216 C225 1.390 1_655 S
C217 C216 1.387 1_556 S
C217 C219 1.387 . S
H218 C225 0.950 . S
C219 C217 1.387 . S
C219 C221 1.390 1_655 S
C219 H223 0.950 . S
H220 C216 0.950 . S
C221 C219 1.390 1_455 S
C221 C222 1.387 1_556 S
C221 H224 0.950 . S
C222 C221 1.387 1_554 S
C222 C225 1.387 . S
H223 C219 0.950 . S
H224 C221 0.950 . S
C225 C216 1.390 1_455 S
C225 H218 0.950 . S
C225 C222 1.387 . S
C226 C227 1.387 . S
C226 H230 0.950 . S
C226 C235 1.390 1_655 S
C227 C226 1.387 . S
C227 C229 1.387 1_565 S
H228 C235 0.950 . S
C229 C227 1.387 1_545 S
C229 C231 1.390 1_655 S
C229 H233 0.950 . S
H230 C226 0.950 . S
C231 C229 1.390 1_455 S
C231 C232 1.387 . S
C231 H234 0.950 . S
C232 C231 1.387 . S
C232 C235 1.387 1_545 S
H233 C229 0.950 . S
H234 C231 0.950 . S
C235 C226 1.390 1_455 S
C235 H228 0.950 . S
C235 C232 1.387 1_565 S
C236 C237 1.387 . S
C236 H240 0.950 . S
C236 C245 1.390 . S
C237 C236 1.387 . S
C237 C239 1.387 . S
H238 C245 0.950 . S
C239 C237 1.387 . S
C239 C241 1.390 . S
C239 H243 0.950 . S
H240 C236 0.950 . S
C241 C239 1.390 . S
C241 C242 1.387 . S
C241 H244 0.950 1_556 S
C242 C241 1.387 . S
C242 C245 1.387 . S
H243 C239 0.950 . S
H244 C241 0.950 1_554 S
C245 C236 1.390 . S
C245 H238 0.950 . S
C245 C242 1.387 . S
C246 C247 1.387 . S
C246 H250 0.950 . S
C246 C255 1.390 . S
C247 C246 1.387 . S
C247 C249 1.387 . S
H248 C255 0.950 . S
C249 C247 1.387 . S
C249 C251 1.390 . S
C249 H253 0.950 . S
H250 C246 0.950 . S
C251 C249 1.390 . S
C251 C252 1.387 . S
C251 H254 0.950 . S
C252 C251 1.387 . S
C252 C255 1.387 . S
H253 C249 0.950 . S
H254 C251 0.950 . S
C255 C246 1.390 . S
C255 H248 0.950 . S
C255 C252 1.387 . S
C256 C257 1.387 . S
C256 H260 0.950 . S
C256 C265 1.390 . S
C257 C256 1.387 . S
C257 C259 1.387 . S
H258 C265 0.950 . S
C259 C257 1.387 . S
C259 C261 1.390 . S
C259 H263 0.950 . S
H260 C256 0.950 . S
C261 C259 1.390 . S
C261 C262 1.387 . S
C261 H264 0.950 . S
C262 C261 1.387 . S
C262 C265 1.387 . S
H263 C259 0.950 . S
H264 C261 0.950 . S
C265 C256 1.390 . S
C265 H258 0.950 . S
C265 C262 1.387 . S
C266 C267 1.387 . S
C266 H270 0.950 . S
C266 C275 1.390 . S
C267 C266 1.387 . S
C267 C269 1.387 . S
H268 C275 0.950 . S
C269 C267 1.387 . S
C269 C271 1.390 . S
C269 H273 0.950 . S
H270 C266 0.950 . S
C271 C269 1.390 . S
C271 C272 1.387 . S
C271 H274 0.950 . S
C272 C271 1.387 . S
C272 C275 1.387 . S
H273 C269 0.950 . S
H274 C271 0.950 . S
C275 C266 1.390 . S
C275 H268 0.950 . S
C275 C272 1.387 . S
C137 C17 1.631 . S
C142 C56 1.488 1_545 S
C147 C15 1.488 . S
C152 C51 1.631 . S
C157 C124 1.488 1_565 S
C162 C85 1.631 . S
C167 C90 1.488 . S
C172 C119 1.631 . S
C177 C22 1.546 . S
C182 C37 1.451 . S
C187 C1 1.451 . S
C192 C49 1.546 . S
C197 C83 1.547 . S
C202 C105 1.452 . S
C207 C117 1.547 . S
C212 C71 1.452 . S
C217 C69 1.980 . S
C222 C3 1.980 . S
C227 C35 1.983 . S
C232 C103 1.983 . S
C237 C130 1.289 . S
C242 C28 1.306 1_556 S
C247 C96 1.289 . S
C252 C40 1.306 . S
C257 C74 1.306 1_554 S
C262 C62 1.289 . S
C267 C108 1.304 . S
C272 C6 1.286 . S
