# Generated by pormake.
# Topology smu, (6)-cn, num edge types: 1
# Building blocks:
#     Node 0, Type 0, BuildingBlock: PAMTOO_clean_sbu_0, # of connection points: 6
#     Node 1, Type 0, BuildingBlock: PAMTOO_clean_sbu_0, # of connection points: 6
#     Node 2, Type 0, BuildingBlock: PAMTOO_clean_sbu_0, # of connection points: 6
#     Node 3, Type 0, BuildingBlock: PAMTOO_clean_sbu_0, # of connection points: 6
#     Node 4, Type 0, BuildingBlock: PAMTOO_clean_sbu_0, # of connection points: 6
#     Node 5, Type 0, BuildingBlock: PAMTOO_clean_sbu_0, # of connection points: 6
#     Edge 6, Type (0, 0), BuildingBlock: UVAHIK_clean_linker_0, # of connection points: 2
#     Edge 7, Type (0, 0), BuildingBlock: UVAHIK_clean_linker_0, # of connection points: 2
#     Edge 8, Type (0, 0), BuildingBlock: UVAHIK_clean_linker_0, # of connection points: 2
#     Edge 9, Type (0, 0), BuildingBlock: UVAHIK_clean_linker_0, # of connection points: 2
#     Edge 10, Type (0, 0), BuildingBlock: UVAHIK_clean_linker_0, # of connection points: 2
#     Edge 11, Type (0, 0), BuildingBlock: UVAHIK_clean_linker_0, # of connection points: 2
#     Edge 12, Type (0, 0), BuildingBlock: UVAHIK_clean_linker_0, # of connection points: 2
#     Edge 13, Type (0, 0), BuildingBlock: UVAHIK_clean_linker_0, # of connection points: 2
#     Edge 14, Type (0, 0), BuildingBlock: UVAHIK_clean_linker_0, # of connection points: 2
#     Edge 15, Type (0, 0), BuildingBlock: UVAHIK_clean_linker_0, # of connection points: 2
#     Edge 16, Type (0, 0), BuildingBlock: UVAHIK_clean_linker_0, # of connection points: 2
#     Edge 17, Type (0, 0), BuildingBlock: UVAHIK_clean_linker_0, # of connection points: 2
#     Edge 18, Type (0, 0), BuildingBlock: UVAHIK_clean_linker_0, # of connection points: 2
#     Edge 19, Type (0, 0), BuildingBlock: UVAHIK_clean_linker_0, # of connection points: 2
#     Edge 20, Type (0, 0), BuildingBlock: UVAHIK_clean_linker_0, # of connection points: 2
#     Edge 21, Type (0, 0), BuildingBlock: UVAHIK_clean_linker_0, # of connection points: 2
#     Edge 22, Type (0, 0), BuildingBlock: UVAHIK_clean_linker_0, # of connection points: 2
#     Edge 23, Type (0, 0), BuildingBlock: UVAHIK_clean_linker_0, # of connection points: 2
# Relax obj value: 0.210
# Max RMSD: 0.298
# Mean RMSD: 0.298
data_MOF--net-smu--node1-PAMTOO_clean_sbu_0--edge1-UVAHIK_clean_linker_0
_symmetry_space_group_name_H-M    P1
_symmetry_Int_Tables_number       1
_symmetry_cell_setting            triclinic
loop_
_symmetry_equiv_pos_as_xyz
'x, y, z'
_cell_length_a     47.659626
_cell_length_b     47.802664
_cell_length_c     36.279395
_cell_angle_alpha  89.850786
_cell_angle_beta   90.150624
_cell_angle_gamma 120.13983
loop_
_atom_site_label
_atom_site_type_symbol
_atom_site_fract_x
_atom_site_fract_y
_atom_site_fract_z
_atom_type_partial_charge
Dy0 Dy 0.36755 0.0862 0.23775 0.0
Dy1 Dy 0.31045 0.10528 0.22442 0.0
C2 C 0.32894 0.09214 0.30505 0.0
O3 O 0.32001 0.04054 0.2487 0.0
O4 O 0.28669 0.05246 0.214 0.0
O5 O 0.39748 0.07594 0.27427 0.0
O6 O 0.40423 0.07749 0.21521 0.0
O7 O 0.32757 0.10076 0.16828 0.0
O8 O 0.34724 0.06701 0.18215 0.0
O9 O 0.35448 0.14936 0.24483 0.0
O10 O 0.39191 0.13822 0.22068 0.0
O11 O 0.26301 0.09923 0.23403 0.0
O12 O 0.29611 0.13588 0.19574 0.0
C13 C 0.29212 0.03178 0.23207 0.0
O14 O 0.35808 0.10152 0.2922 0.0
O15 O 0.30536 0.08834 0.28298 0.0
C16 C 0.45115 0.09552 0.25235 0.0
C17 C 0.51964 0.12922 0.25897 0.0
C18 C 0.50009 0.10337 0.28283 0.0
C19 C 0.46627 0.08665 0.27941 0.0
C20 C 0.47043 0.12206 0.22935 0.0
C21 C 0.50428 0.13863 0.23253 0.0
C22 C 0.41558 0.07595 0.24739 0.0
C23 C 0.33599 0.07957 0.15822 0.0
C24 C 0.38389 0.15908 0.23292 0.0
C25 C 0.25726 0.14557 0.22478 0.0
C26 C 0.23048 0.18429 0.24526 0.0
C27 C 0.23814 0.1825 0.20826 0.0
C28 C 0.25132 0.16331 0.19818 0.0
C29 C 0.25068 0.14806 0.26198 0.0
C30 C 0.23737 0.16723 0.27211 0.0
C31 C 0.26812 0.12316 0.21235 0.0
H32 H 0.5109 0.09584 0.30408 0.0
H33 H 0.45191 0.06641 0.2976 0.0
H34 H 0.45942 0.12961 0.20833 0.0
H35 H 0.51839 0.15816 0.21344 0.0
H36 H 0.23276 0.1949 0.18679 0.0
H37 H 0.25603 0.16159 0.1693 0.0
H38 H 0.25516 0.13471 0.2831 0.0
H39 H 0.23209 0.16838 0.3009 0.0
Dy40 Dy 0.72438 0.64576 0.27568 0.0
Dy41 Dy 0.80344 0.68989 0.28831 0.0
C42 C 0.75345 0.67291 0.3538 0.0
O43 O 0.73355 0.69654 0.26894 0.0
O44 O 0.78875 0.72691 0.28201 0.0
O45 O 0.67751 0.61274 0.29899 0.0
O46 O 0.68181 0.6243 0.24074 0.0
O47 O 0.79522 0.70133 0.23082 0.0
O48 O 0.74853 0.65301 0.22084 0.0
O49 O 0.79215 0.64195 0.26689 0.0
O50 O 0.7425 0.61237 0.29292 0.0
O51 O 0.85061 0.69568 0.27857 0.0
O52 O 0.84509 0.72626 0.31864 0.0
C53 C 0.76072 0.72444 0.27345 0.0
O54 O 0.73177 0.66997 0.32962 0.0
O55 O 0.77946 0.67213 0.34348 0.0
C56 C 0.642 0.57126 0.2592 0.0
C57 C 0.60227 0.50387 0.24835 0.0
C58 C 0.59166 0.52103 0.2703 0.0
C59 C 0.61129 0.55434 0.27555 0.0
C60 C 0.65286 0.55441 0.2373 0.0
C61 C 0.63311 0.52105 0.23178 0.0
C62 C 0.66287 0.60598 0.26714 0.0
C63 C 0.77225 0.68081 0.20858 0.0
C64 C 0.76888 0.61438 0.27928 0.0
C65 C 0.89779 0.74639 0.29224 0.0
C66 C 0.96435 0.79097 0.28097 0.0
C67 C 0.94574 0.76882 0.25321 0.0
C68 C 0.9128 0.7467 0.2588 0.0
C69 C 0.91596 0.76952 0.3192 0.0
C70 C 0.94885 0.79164 0.31361 0.0
C71 C 0.86516 0.71953 0.30183 0.0
H72 H 0.56842 0.50864 0.28413 0.0
H73 H 0.60268 0.56686 0.29295 0.0
H74 H 0.67667 0.56697 0.22471 0.0
H75 H 0.64197 0.50878 0.21441 0.0
H76 H 0.95695 0.7675 0.22785 0.0
H77 H 0.89953 0.729 0.23756 0.0
H78 H 0.90506 0.76964 0.34533 0.0
H79 H 0.96233 0.80877 0.33526 0.0
Dy80 Dy 0.93788 0.29481 0.26239 0.0
Dy81 Dy 0.90941 0.2168 0.25045 0.0
C82 C 0.9274 0.24822 0.33008 0.0
O83 O 0.98248 0.29045 0.27031 0.0
O84 O 0.96215 0.23574 0.25852 0.0
O85 O 0.9543 0.3366 0.29777 0.0
O86 O 0.94861 0.34067 0.23913 0.0
O87 O 0.91533 0.23999 0.19489 0.0
O88 O 0.95776 0.28971 0.20927 0.0
O89 O 0.86892 0.22366 0.26873 0.0
O90 O 0.88614 0.27309 0.24353 0.0
O91 O 0.90796 0.17683 0.22052 0.0
O92 O 0.87066 0.16829 0.26067 0.0
C93 C 0.9861 0.2649 0.26673 0.0
O94 O 0.92095 0.27008 0.31701 0.0
O95 O 0.92799 0.22656 0.30835 0.0
C96 C 0.93546 0.37144 0.27795 0.0
C97 C 0.89972 0.40375 0.28355 0.0
C98 C 0.93368 0.42128 0.27926 0.0
C99 C 0.95135 0.40525 0.27642 0.0
C100 C 0.90174 0.35379 0.28326 0.0
C101 C 0.88401 0.3698 0.28612 0.0
C102 C 0.95379 0.35475 0.27114 0.0
C103 C 0.9414 0.26699 0.18505 0.0
C104 C 0.86262 0.24545 0.2559 0.0
C105 C 0.87773 0.12353 0.2462 0.0
C106 C 0.85807 0.05763 0.25654 0.0
C107 C 0.87174 0.07321 0.22293 0.0
C108 C 0.8814 0.10577 0.21784 0.0
C109 C 0.8656 0.10854 0.28048 0.0
C110 C 0.85588 0.07588 0.28559 0.0
C111 C 0.88161 0.15541 0.23726 0.0
H112 H 0.94659 0.44745 0.27771 0.0
H113 H 0.97735 0.41924 0.27226 0.0
H114 H 0.88903 0.3276 0.28424 0.0
H115 H 0.8579 0.35554 0.28905 0.0
H116 H 0.87343 0.05985 0.1998 0.0
H117 H 0.89022 0.11663 0.191 0.0
H118 H 0.86236 0.12162 0.30285 0.0
H119 H 0.8459 0.06471 0.31199 0.0
Dy120 Dy 0.0851 0.36631 0.7646 0.0
Dy121 Dy 0.11127 0.31548 0.74927 0.0
C122 C 0.08269 0.33789 0.68522 0.0
O123 O 0.04188 0.31761 0.77778 0.0
O124 O 0.0575 0.28425 0.74933 0.0
O125 O 0.06863 0.39754 0.74247 0.0
O126 O 0.07347 0.39458 0.8014 0.0
O127 O 0.09345 0.30619 0.8075 0.0
O128 O 0.1028 0.35738 0.81812 0.0
O129 O 0.15262 0.36215 0.76837 0.0
O130 O 0.13682 0.39647 0.74589 0.0
O131 O 0.15108 0.30662 0.75499 0.0
O132 O 0.10907 0.27388 0.72251 0.0
C133 C 0.0356 0.28904 0.76552 0.0
O134 O 0.06602 0.34314 0.71011 0.0
O135 O 0.1082 0.33588 0.69478 0.0
C136 C 0.08458 0.44484 0.77644 0.0
C137 C 0.11586 0.51304 0.77562 0.0
C138 C 0.08182 0.49412 0.77338 0.0
C139 C 0.06637 0.46036 0.7738 0.0
C140 C 0.11851 0.46344 0.77892 0.0
C141 C 0.13403 0.49726 0.77858 0.0
C142 C 0.06798 0.40937 0.77453 0.0
C143 C 0.0955 0.32854 0.83023 0.0
C144 C 0.15985 0.39078 0.75632 0.0
C145 C 0.14155 0.25299 0.74759 0.0
C146 C 0.16041 0.20612 0.75756 0.0
C147 C 0.17504 0.23476 0.77835 0.0
C148 C 0.16578 0.25801 0.77334 0.0
C149 C 0.12545 0.22343 0.72866 0.0
C150 C 0.13467 0.20018 0.73372 0.0
C151 C 0.13713 0.28013 0.73564 0.0
H152 H 0.06708 0.50536 0.77043 0.0
H153 H 0.04018 0.44635 0.77146 0.0
H154 H 0.13297 0.4518 0.78078 0.0
H155 H 0.16023 0.51103 0.78074 0.0
H156 H 0.19506 0.24018 0.79675 0.0
H157 H 0.17893 0.28066 0.78814 0.0
H158 H 0.10689 0.21895 0.70843 0.0
H159 H 0.12252 0.17807 0.71778 0.0
Dy160 Dy 0.29284 0.92834 0.73745 0.0
Dy161 Dy 0.2158 0.90651 0.72432 0.0
C162 C 0.26665 0.9327 0.6579 0.0
O163 O 0.28931 0.97281 0.74872 0.0
O164 O 0.244 0.95932 0.71332 0.0
O165 O 0.33834 0.93826 0.71356 0.0
O166 O 0.33437 0.94103 0.77266 0.0
O167 O 0.2271 0.92355 0.78286 0.0
O168 O 0.26906 0.91388 0.7926 0.0
O169 O 0.2172 0.86418 0.74775 0.0
O170 O 0.26572 0.87566 0.72296 0.0
O171 O 0.17062 0.87368 0.69703 0.0
O172 O 0.17394 0.91204 0.732 0.0
C173 C 0.26965 0.98056 0.73174 0.0
O174 O 0.29044 0.94672 0.68175 0.0
O175 O 0.23749 0.91025 0.66832 0.0
C176 C 0.37084 0.92436 0.7498 0.0
C177 C 0.40844 0.89383 0.75696 0.0
C178 C 0.41043 0.91151 0.72503 0.0
C179 C 0.39204 0.92669 0.72163 0.0
C180 C 0.3684 0.9064 0.78164 0.0
C181 C 0.387 0.89127 0.78515 0.0
C182 C 0.35239 0.94152 0.74537 0.0
C183 C 0.24777 0.92134 0.80508 0.0
C184 C 0.23744 0.85483 0.73708 0.0
C185 C 0.12172 0.86537 0.72405 0.0
C186 C 0.056 0.82767 0.74527 0.0
C187 C 0.08072 0.84176 0.77206 0.0
C188 C 0.11334 0.86045 0.76155 0.0
C189 C 0.09727 0.85068 0.6974 0.0
C190 C 0.06479 0.83205 0.70782 0.0
C191 C 0.15523 0.88709 0.71152 0.0
H192 H 0.42614 0.91353 0.70243 0.0
H193 H 0.39446 0.94041 0.69683 0.0
H194 H 0.35235 0.90421 0.80393 0.0
H195 H 0.38505 0.87812 0.81026 0.0
H196 H 0.07484 0.83859 0.80114 0.0
H197 H 0.13187 0.87149 0.78262 0.0
H198 H 0.10323 0.85432 0.66832 0.0
H199 H 0.04649 0.82208 0.68641 0.0
Dy200 Dy 0.65342 0.72122 0.78318 0.0
Dy201 Dy 0.70466 0.79994 0.78459 0.0
C202 C 0.68778 0.7589 0.71022 0.0
O203 O 0.70341 0.72699 0.77822 0.0
O204 O 0.73524 0.77903 0.80065 0.0
O205 O 0.6282 0.67562 0.75403 0.0
O206 O 0.61768 0.67821 0.81146 0.0
O207 O 0.69413 0.78574 0.84447 0.0
O208 O 0.6752 0.73111 0.83904 0.0
O209 O 0.6574 0.78983 0.76057 0.0
O210 O 0.62482 0.74568 0.79472 0.0
O211 O 0.70937 0.84626 0.79623 0.0
O212 O 0.74913 0.84382 0.77011 0.0
C213 C 0.73138 0.75086 0.79066 0.0
O214 O 0.65958 0.73854 0.72489 0.0
O215 O 0.71078 0.78215 0.72993 0.0
C216 C 0.57411 0.64148 0.77465 0.0
C217 C 0.50594 0.60549 0.76528 0.0
C218 C 0.52459 0.63569 0.74776 0.0
C219 C 0.55835 0.65357 0.75252 0.0
C220 C 0.55571 0.61145 0.79201 0.0
C221 C 0.52205 0.5937 0.78749 0.0
C222 C 0.60929 0.66047 0.78187 0.0
C223 C 0.68656 0.75746 0.85899 0.0
C224 C 0.62947 0.77125 0.77641 0.0
C225 C 0.76193 0.89385 0.80005 0.0
C226 C 0.80285 0.95987 0.81781 0.0
C227 C 0.77078 0.94286 0.83086 0.0
C228 C 0.75053 0.91024 0.82205 0.0
C229 C 0.79459 0.91031 0.78895 0.0
C230 C 0.81488 0.94293 0.79789 0.0
C231 C 0.73872 0.86249 0.78288 0.0
H232 H 0.51315 0.64546 0.73023 0.0
H233 H 0.5721 0.67693 0.73918 0.0
H234 H 0.56737 0.60193 0.80963 0.0
H235 H 0.50861 0.57098 0.80213 0.0
H236 H 0.76092 0.95513 0.84667 0.0
H237 H 0.72543 0.89843 0.83078 0.0
H238 H 0.80399 0.89857 0.77149 0.0
H239 H 0.83937 0.95538 0.78712 0.0
C240 C 0.23597 0.9499 0.85542 0.0
C241 C 0.25059 0.93211 0.84394 0.0
C242 C 0.24298 0.96469 0.89011 0.0
C243 C 0.27772 0.96526 0.9819 0.0
H244 H 0.29866 0.05481 0.98461 0.0
C245 C 0.33966 0.0453 0.10846 0.0
C246 C 0.3288 0.06626 0.12023 0.0
C247 C 0.32975 0.02944 0.07455 0.0
C248 C 0.29252 0.02972 0.9845 0.0
H249 H 0.28288 0.91473 0.86077 0.0
H250 H 0.29481 0.94024 0.92123 0.0
H251 H 0.27972 0.02433 0.92726 0.0
H252 H 0.29964 0.08763 0.10488 0.0
H253 H 0.28212 0.05974 0.0458 0.0
H254 H 0.29045 0.97052 0.03906 0.0
C255 C 0.27793 0.94277 0.90345 0.0
C256 C 0.2816 0.0122 0.9516 0.0
C257 C 0.27113 0.92819 0.86869 0.0
C258 C 0.30865 0.07183 0.09661 0.0
C259 C 0.2986 0.05581 0.06268 0.0
C260 C 0.28851 0.98271 0.01481 0.0
C261 C 0.26454 0.96183 0.91426 0.0
C262 C 0.27432 0.97983 0.94982 0.0
C263 C 0.30856 0.03395 0.05151 0.0
C264 C 0.29637 0.01527 0.0165 0.0
H265 H 0.22018 0.9536 0.83703 0.0
H266 H 0.2319 0.97883 0.8978 0.0
H267 H 0.27189 0.94025 0.98164 0.0
H268 H 0.35537 0.04058 0.1258 0.0
H269 H 0.33855 0.01341 0.06653 0.0
C270 C 0.72731 0.76786 0.65974 0.0
C271 C 0.69505 0.7531 0.67218 0.0
C272 C 0.73472 0.75932 0.62579 0.0
C273 C 0.70005 0.69285 0.55674 0.0
H274 H 0.77039 0.75504 0.49532 0.0
C275 C 0.71695 0.66871 0.40524 0.0
C276 C 0.74845 0.67844 0.39276 0.0
C277 C 0.71184 0.67659 0.44064 0.0
C278 C 0.75096 0.73733 0.51245 0.0
H279 H 0.64512 0.71882 0.65782 0.0
H280 H 0.65786 0.70479 0.59812 0.0
H281 H 0.75794 0.77273 0.55298 0.0
H282 H 0.79931 0.70363 0.40789 0.0
H283 H 0.79038 0.71789 0.47007 0.0
H284 H 0.69254 0.6577 0.51556 0.0
C285 C 0.67763 0.72225 0.61507 0.0
C286 C 0.74377 0.74744 0.54552 0.0
C287 C 0.67025 0.73054 0.64919 0.0
C288 C 0.77476 0.69563 0.41686 0.0
C289 C 0.76967 0.70401 0.45225 0.0
C290 C 0.70703 0.68286 0.52355 0.0
C291 C 0.71003 0.736 0.60321 0.0
C292 C 0.71803 0.72537 0.56803 0.0
C293 C 0.73815 0.69479 0.46435 0.0
C294 C 0.73241 0.70501 0.5009 0.0
H295 H 0.74707 0.78512 0.67687 0.0
H296 H 0.75996 0.77022 0.61791 0.0
H297 H 0.68061 0.67494 0.57367 0.0
H298 H 0.69615 0.65539 0.38735 0.0
H299 H 0.68732 0.66936 0.44901 0.0
C300 C 0.94472 0.24502 0.12311 0.0
C301 C 0.9543 0.27144 0.14697 0.0
C302 C 0.96006 0.2492 0.08891 0.0
C303 C 0.03679 0.30619 0.04078 0.0
H304 H 0.99041 0.261 0.95247 0.0
C305 C 0.09075 0.3442 0.89477 0.0
C306 C 0.08442 0.31988 0.8689 0.0
C307 C 0.07623 0.33629 0.92957 0.0
C308 C 1.00379 0.27347 0.97702 0.0
H309 H 0.98638 0.32321 0.15276 0.0
H310 H 0.01228 0.33058 0.09321 0.0
H311 H 0.96099 0.25117 1.01053 0.0
H312 H 0.0583 0.26803 0.85968 0.0
H313 H 0.03298 0.25425 0.92055 0.0
H314 H 0.07942 0.32896 1.00716 0.0
C315 C 0.9937 0.30644 0.10116 0.0
C316 C 0.98691 0.26784 1.01033 0.0
C317 C 0.97859 0.30224 0.13527 0.0
C318 C 0.06401 0.28736 0.87909 0.0
C319 C 0.04917 0.27946 0.91381 0.0
C320 C 0.05357 0.31192 1.00753 0.0
C321 C 0.9852 0.27991 0.07782 0.0
C322 C 1.00313 0.28449 0.04256 0.0
C323 C 0.05473 0.30388 0.93925 0.0
C324 C 0.03724 0.29593 0.97514 0.0
H325 H 0.92623 0.22094 0.1314 0.0
H326 H 0.95295 0.22818 0.07175 0.0
H327 H 0.0503 0.31884 0.06518 0.0
H328 H 0.10621 0.36948 0.88775 0.0
H329 H 0.08083 0.35571 0.94837 0.0
C330 C 0.34659 0.08571 0.36826 0.0
C331 C 0.32153 0.08081 0.34388 0.0
C332 C 0.33951 0.07077 0.4029 0.0
C333 C 0.27547 0.99942 0.45136 0.0
H334 H 0.32606 0.04217 0.53845 0.0
C335 C 0.24575 0.93904 0.59643 0.0
C336 C 0.27202 0.94585 0.61979 0.0
C337 C 0.25089 0.955 0.56249 0.0
C338 C 0.31194 0.02968 0.51431 0.0
H339 H 0.26924 0.05714 0.33755 0.0
H340 H 0.25695 0.0313 0.39808 0.0
H341 H 0.33638 0.07248 0.48116 0.0
H342 H 0.32445 0.97368 0.62484 0.0
H343 H 0.33342 1.00072 0.56558 0.0
H344 H 0.25132 0.95649 0.48435 0.0
C345 C 0.2821 0.04648 0.3902 0.0
C346 C 0.3178 0.04715 0.48146 0.0
C347 C 0.28919 0.06161 0.35563 0.0
C348 C 0.3036 0.96798 0.60772 0.0
C349 C 0.30873 0.98376 0.57381 0.0
C350 C 0.26968 0.98188 0.48421 0.0
C351 C 0.30718 0.05038 0.41399 0.0
C352 C 0.29979 0.03222 0.44949 0.0
C353 C 0.28244 0.97805 0.55104 0.0
C354 C 0.28802 0.99671 0.51608 0.0
H355 H 0.37177 0.10023 0.36013 0.0
H356 H 0.35943 0.07415 0.42038 0.0
H357 H 0.26145 0.98702 0.42712 0.0
H358 H 0.22109 0.92232 0.60494 0.0
H359 H 0.23002 0.95008 0.54585 0.0
C360 C 0.72006 0.78094 0.91661 0.0
C361 C 0.69435 0.75484 0.89801 0.0
C362 C 0.73109 0.77601 0.95066 0.0
C363 C 0.73302 0.71024 1.00179 0.0
H364 H 0.75538 0.76569 0.08749 0.0
C365 C 0.74698 0.66824 0.14574 0.0
C366 C 0.77032 0.69064 0.17022 0.0
C367 C 0.74152 0.67824 0.11158 0.0
C368 C 0.74975 0.75023 0.06359 0.0
H369 H 0.65853 0.70378 0.90183 0.0
H370 H 0.67731 0.69542 0.96086 0.0
H371 H 0.73739 0.78006 0.03086 0.0
H372 H 0.80692 0.74114 0.17731 0.0
H373 H 0.79762 0.75853 0.11733 0.0
H374 H 0.7451 0.68032 0.03416 0.0
C375 C 0.68959 0.71946 0.94894 0.0
C376 C 0.73936 0.75845 0.0312 0.0
C377 C 0.67866 0.72434 0.91518 0.0
C378 C 0.78889 0.72317 0.15906 0.0
C379 C 0.78331 0.73323 0.12484 0.0
C380 C 0.74347 0.70212 0.03396 0.0
C381 C 0.71661 0.74491 0.96653 0.0
C382 C 0.73016 0.73812 1.00021 0.0
C383 C 0.75919 0.71095 0.1009 0.0
C384 C 0.75133 0.7216 0.06557 0.0
H385 H 0.73278 0.80467 0.90397 0.0
H386 H 0.75192 0.79614 0.96363 0.0
H387 H 0.72692 0.69447 0.9781 0.0
H388 H 0.7321 0.64304 0.15343 0.0
H389 H 0.72248 0.66043 0.09413 0.0
C390 C 0.95698 0.23722 0.38021 0.0
C391 C 0.93843 0.25112 0.36887 0.0
C392 C 0.97185 0.24427 0.41495 0.0
C393 C 0.9702 0.27606 0.5072 0.0
H394 H 0.06161 0.30267 0.51063 0.0
C395 C 0.04687 0.33875 0.63537 0.0
C396 C 0.06998 0.33055 0.64698 0.0
C397 C 0.03162 0.32861 0.60114 0.0
C398 C 0.036 0.2949 0.51034 0.0
H399 H 0.91986 0.28224 0.38581 0.0
H400 H 0.94528 0.29404 0.44652 0.0
H401 H 0.03169 0.28336 0.45277 0.0
H402 H 0.09587 0.30596 0.63119 0.0
H403 H 0.06884 0.28773 0.57149 0.0
H404 H 0.97421 0.28726 0.56463 0.0
C405 C 0.94843 0.27777 0.42854 0.0
C406 C 0.01884 0.28381 0.47714 0.0
C407 C 0.93389 0.27104 0.39369 0.0
C408 C 0.07833 0.31288 0.62294 0.0
C409 C 0.0628 0.30243 0.58869 0.0
C410 C 0.98724 0.28688 0.5404 0.0
C411 C 0.96816 0.26504 0.43929 0.0
C412 C 0.98583 0.27463 0.4751 0.0
C413 C 0.03876 0.30964 0.57765 0.0
C414 C 0.0205 0.29691 0.54237 0.0
H415 H 0.9612 0.22198 0.36168 0.0
H416 H 0.98663 0.23382 0.42258 0.0
H417 H 0.94469 0.26872 0.50667 0.0
H418 H 0.04008 0.35261 0.65306 0.0
H419 H 0.01396 0.33546 0.59325 0.0
C420 C 0.57559 0.17874 0.25393 0.0
C421 C 0.5558 0.14534 0.26072 0.0
C422 C 0.6095 0.19342 0.25473 0.0
C423 C 0.67524 0.18217 0.29197 0.0
H424 H 0.72762 0.23834 0.21237 0.0
C425 C 0.80379 0.20699 0.26667 0.0
C426 C 0.82842 0.23814 0.25642 0.0
C427 C 0.77153 0.19937 0.26833 0.0
C428 C 0.71342 0.22316 0.23513 0.0
H429 H 0.55663 0.10126 0.27288 0.0
H430 H 0.61538 0.12691 0.27509 0.0
H431 H 0.66912 0.21815 0.21355 0.0
H432 H 0.83817 0.28571 0.23943 0.0
H433 H 0.78125 0.27232 0.24256 0.0
H434 H 0.71913 0.18679 0.31352 0.0
C435 C 0.60467 0.14182 0.26955 0.0
C436 C 0.67991 0.21155 0.23577 0.0
C437 C 0.57089 0.12712 0.26841 0.0
C438 C 0.8198 0.26149 0.24741 0.0
C439 C 0.78721 0.25379 0.24912 0.0
C440 C 0.7086 0.19385 0.29145 0.0
C441 C 0.6244 0.17511 0.26272 0.0
C442 C 0.66036 0.19027 0.26374 0.0
C443 C 0.76274 0.22266 0.25998 0.0
C444 C 0.72801 0.21378 0.26252 0.0
H445 H 0.56493 0.19367 0.24835 0.0
H446 H 0.62407 0.21917 0.24963 0.0
H447 H 0.66097 0.1664 0.31433 0.0
H448 H 0.80933 0.18819 0.27344 0.0
H449 H 0.75333 0.17494 0.27589 0.0
C450 C 0.54745 0.45402 0.24032 0.0
C451 C 0.58132 0.46821 0.24331 0.0
C452 C 0.5276 0.42052 0.23705 0.0
C453 C 0.52673 0.3433 0.25333 0.0
H454 H 0.44824 0.30804 0.19449 0.0
C455 C 0.44124 0.20541 0.22762 0.0
C456 C 0.408 0.19416 0.2328 0.0
C457 C 0.46373 0.23866 0.22749 0.0
C458 C 0.47001 0.31754 0.21115 0.0
H459 H 0.62077 0.45791 0.24493 0.0
H460 H 0.58626 0.39962 0.23782 0.0
H461 H 0.48519 0.36628 0.19577 0.0
H462 H 0.37237 0.20904 0.24175 0.0
H463 H 0.41147 0.26679 0.24111 0.0
H464 H 0.51144 0.29424 0.2683 0.0
C465 C 0.57496 0.4144 0.23875 0.0
C466 C 0.49117 0.35096 0.21204 0.0
C467 C 0.59484 0.44795 0.2423 0.0
C468 C 0.39778 0.21683 0.23773 0.0
C469 C 0.42014 0.24997 0.23713 0.0
C470 C 0.50568 0.30978 0.25212 0.0
C471 C 0.54103 0.4002 0.2363 0.0
C472 C 0.51958 0.36438 0.23359 0.0
C473 C 0.45335 0.26127 0.23198 0.0
C474 C 0.47686 0.29661 0.23146 0.0
H475 H 0.53613 0.4688 0.24044 0.0
H476 H 0.50159 0.41056 0.23577 0.0
H477 H 0.54811 0.35268 0.27062 0.0
H478 H 0.44991 0.18856 0.22385 0.0
H479 H 0.48917 0.24671 0.22332 0.0
C480 C 0.85458 0.41162 0.30788 0.0
C481 C 0.88074 0.42076 0.28356 0.0
C482 C 0.83675 0.42767 0.30735 0.0
C483 C 0.81849 0.4796 0.24764 0.0
H484 H 0.79874 0.50802 0.339 0.0
C485 C 0.79721 0.58681 0.2541 0.0
C486 C 0.77351 0.58599 0.27778 0.0
C487 C 0.80419 0.5618 0.25412 0.0
C488 C 0.80349 0.49972 0.31327 0.0
H489 H 0.90821 0.45358 0.23917 0.0
H490 H 0.87765 0.48177 0.23865 0.0
H491 H 0.82318 0.47362 0.34084 0.0
H492 H 0.73795 0.55774 0.31953 0.0
H493 H 0.75051 0.51372 0.31985 0.0
H494 H 0.79976 0.5064 0.22004 0.0
C495 C 0.87066 0.46206 0.25797 0.0
C496 C 0.81756 0.48006 0.31432 0.0
C497 C 0.88851 0.44617 0.25861 0.0
C498 C 0.75629 0.55901 0.30093 0.0
C499 C 0.76361 0.53396 0.30126 0.0
C500 C 0.8045 0.49919 0.2466 0.0
C501 C 0.84453 0.45301 0.28225 0.0
C502 C 0.82606 0.47055 0.28148 0.0
C503 C 0.78784 0.53526 0.27798 0.0
C504 C 0.79768 0.51025 0.27937 0.0
H505 H 0.84808 0.39226 0.32758 0.0
H506 H 0.81669 0.42004 0.32632 0.0
H507 H 0.82399 0.47206 0.22183 0.0
H508 H 0.81087 0.60715 0.23578 0.0
H509 H 0.82328 0.56383 0.2362 0.0
C510 C 0.16101 0.5672 0.754 0.0
C511 C 0.13219 0.54901 0.77416 0.0
C512 C 0.17549 0.60087 0.75139 0.0
C513 C 0.17608 0.67157 0.79491 0.0
H514 H 0.20963 0.71265 0.70027 0.0
C515 C 0.19964 0.79914 0.76091 0.0
C516 C 0.22819 0.82043 0.74183 0.0
C517 C 0.19068 0.76673 0.76583 0.0
C518 C 0.20076 0.7016 0.72699 0.0
H519 H 0.09661 0.55225 0.80826 0.0
H520 H 0.12124 0.61061 0.80287 0.0
H521 H 0.18898 0.65474 0.70737 0.0
H522 H 0.26972 0.8242 0.71286 0.0
H523 H 0.25383 0.76729 0.72126 0.0
H524 H 0.18712 0.7183 0.81423 0.0
C525 C 0.13295 0.59899 0.78941 0.0
C526 C 0.18895 0.6684 0.73112 0.0
C527 C 0.11854 0.56539 0.7921 0.0
C528 C 0.24756 0.80845 0.72766 0.0
C529 C 0.23841 0.77585 0.73234 0.0
C530 C 0.18769 0.70467 0.79071 0.0
C531 C 0.16152 0.61718 0.76885 0.0
C532 C 0.17606 0.65287 0.76502 0.0
C533 C 0.20991 0.75468 0.75161 0.0
C534 C 0.19976 0.71998 0.75659 0.0
H535 H 0.17204 0.55539 0.73954 0.0
H536 H 0.19767 0.61412 0.73566 0.0
H537 H 0.167 0.66061 0.82162 0.0
H538 H 0.1841 0.80746 0.77221 0.0
H539 H 0.16835 0.75096 0.78034 0.0
C540 C 0.46106 0.89468 0.74721 0.0
C541 C 0.42905 0.87862 0.76065 0.0
C542 C 0.48013 0.88012 0.74897 0.0
C543 C 0.49043 0.81797 0.79691 0.0
H544 H 0.54147 0.82504 0.71063 0.0
C545 C 0.57288 0.76034 0.78961 0.0
C546 C 0.60356 0.77976 0.77353 0.0
C547 C 0.54911 0.76941 0.78753 0.0
C548 C 0.5276 0.82304 0.73509 0.0
H549 H 0.39236 0.83467 0.78721 0.0
H550 H 0.42604 0.80943 0.79078 0.0
H551 H 0.50503 0.84685 0.70885 0.0
H552 H 0.63322 0.82397 0.74266 0.0
H553 H 0.59229 0.8398 0.73945 0.0
H554 H 0.51362 0.79474 0.82341 0.0
C555 C 0.43622 0.83336 0.77883 0.0
C556 C 0.50668 0.83554 0.73404 0.0
C557 C 0.41696 0.84788 0.77685 0.0
C558 C 0.60983 0.80826 0.75518 0.0
C559 C 0.5862 0.81729 0.75313 0.0
C560 C 0.51156 0.80557 0.79804 0.0
C561 C 0.46788 0.84918 0.76445 0.0
C562 C 0.48826 0.83368 0.76511 0.0
C563 C 0.55553 0.79805 0.76925 0.0
C564 C 0.53086 0.80849 0.76733 0.0
H565 H 0.47154 0.91868 0.73542 0.0
H566 H 0.50468 0.89327 0.73839 0.0
H567 H 0.47667 0.81629 0.82135 0.0
H568 H 0.56724 0.73821 0.80391 0.0
H569 H 0.52566 0.75389 0.79999 0.0
C570 C 0.21838 0.40741 0.76011 0.0
C571 C 0.19463 0.41634 0.75544 0.0
C572 C 0.25123 0.43061 0.76072 0.0
C573 C 0.31165 0.51466 0.7353 0.0
H574 H 0.36467 0.49902 0.80422 0.0
C575 C 0.45115 0.60169 0.75979 0.0
C576 C 0.46987 0.5864 0.76111 0.0
C577 C 0.41715 0.58338 0.75828 0.0
C578 C 0.35024 0.50367 0.7847 0.0
H579 H 0.18705 0.45696 0.74686 0.0
H580 H 0.24506 0.49802 0.74846 0.0
H581 H 0.30614 0.46356 0.80432 0.0
H582 H 0.46717 0.5397 0.75972 0.0
H583 H 0.40823 0.50805 0.75807 0.0
H584 H 0.35629 0.55514 0.71603 0.0
C585 C 0.23794 0.47276 0.7514 0.0
C586 C 0.31665 0.48329 0.78467 0.0
C587 C 0.20473 0.44929 0.7506 0.0
C588 C 0.45369 0.5524 0.75977 0.0
C589 C 0.41985 0.53419 0.75867 0.0
C590 C 0.34545 0.53534 0.73558 0.0
C591 C 0.26156 0.46365 0.75701 0.0
C592 C 0.29692 0.48792 0.75933 0.0
C593 C 0.40116 0.54942 0.75845 0.0
C594 C 0.36514 0.52953 0.75972 0.0
H595 H 0.21167 0.38226 0.76331 0.0
H596 H 0.26863 0.42251 0.76398 0.0
H597 H 0.29723 0.5189 0.71537 0.0
H598 H 0.46265 0.62779 0.7611 0.0
H599 H 0.40336 0.59577 0.75826 0.0
C600 C 0.18702 0.18832 0.27968 0.0
C601 C 0.21335 0.20209 0.25514 0.0
C602 C 0.16865 0.20321 0.28608 0.0
C603 C 0.14627 0.25867 0.24152 0.0
H604 H 0.10383 0.25065 0.33517 0.0
C605 C 0.04672 0.29363 0.25923 0.0
C606 C 0.01798 0.26782 0.27356 0.0
C607 C 0.07588 0.29311 0.26143 0.0
C608 C 0.11568 0.25328 0.3089 0.0
H609 H 0.24205 0.24325 0.21955 0.0
H610 H 0.21007 0.26936 0.23089 0.0
H611 H 0.14581 0.23583 0.33076 0.0
H612 H 0.99736 0.22241 0.30331 0.0
H613 H 0.04797 0.22182 0.30785 0.0
H614 H 0.11542 0.27531 0.21954 0.0
C615 C 0.20326 0.24671 0.24468 0.0
C616 C 0.1396 0.24462 0.3063 0.0
C617 C 0.22161 0.23176 0.23821 0.0
C618 C 0.01919 0.24255 0.2919 0.0
C619 C 0.04824 0.24233 0.29471 0.0
C620 C 0.12246 0.26752 0.2442 0.0
C621 C 0.17618 0.23232 0.26821 0.0
C622 C 0.15445 0.24619 0.2723 0.0
C623 C 0.07676 0.26715 0.27876 0.0
C624 C 0.10617 0.26392 0.27764 0.0
H625 H 0.17964 0.16526 0.29275 0.0
H626 H 0.14766 0.19108 0.30388 0.0
H627 H 0.15693 0.25994 0.2148 0.0
H628 H 0.0463 0.31328 0.24479 0.0
H629 H 0.09755 0.31259 0.24896 0.0
C630 C 0.01374 0.82675 0.2429 0.0
C631 C 1.00007 0.81197 0.27682 0.0
C632 C 0.04739 0.84579 0.23898 0.0
C633 C 0.12241 0.89343 0.29278 0.0
H634 H 0.16399 0.8913 0.20194 0.0
C635 C 0.25861 0.9813 0.26877 0.0
C636 C 0.26461 0.99849 0.23554 0.0
C637 C 0.22868 0.95308 0.27455 0.0
C638 C 0.15274 0.89211 0.22752 0.0
H639 H 0.01122 0.80508 0.333 0.0
H640 H 0.06982 0.83846 0.32619 0.0
H641 H 0.10623 0.8534 0.21084 0.0
H642 H 0.24541 0.99859 0.18137 0.0
H643 H 0.19367 0.94953 0.1912 0.0
H644 H 0.16867 0.93274 0.30902 0.0
C645 C 0.05451 0.83569 0.30277 0.0
C646 C 0.11963 0.87052 0.23253 0.0
C647 C 0.02088 0.81664 0.30668 0.0
C648 C 0.24133 0.9858 0.20729 0.0
C649 C 0.21172 0.95756 0.21288 0.0
C650 C 0.15553 0.91502 0.28776 0.0
C651 C 0.06818 0.85049 0.26887 0.0
C652 C 0.10392 0.87143 0.26487 0.0
C653 C 0.20456 0.94149 0.24701 0.0
C654 C 0.17091 0.91512 0.25471 0.0
H655 H 0.99841 0.82393 0.21948 0.0
H656 H 0.0571 0.85733 0.21266 0.0
H657 H 0.11102 0.89497 0.31789 0.0
H658 H 0.27608 0.99076 0.29109 0.0
H659 H 0.22395 0.94103 0.30103 0.0
C660 C 0.814 1.00275 0.27737 0.0
C661 C 0.84416 0.02208 0.26007 0.0
C662 C 0.79945 0.96901 0.27754 0.0
C663 C 0.79993 0.90291 0.22607 0.0
H664 H 0.76262 0.85176 0.31444 0.0
C665 C 0.78857 0.77989 0.24799 0.0
C666 C 0.76141 0.75507 0.26602 0.0
C667 C 0.79211 0.81043 0.24399 0.0
C668 C 0.77228 0.86563 0.28933 0.0
H669 H 0.88333 0.02109 0.23095 0.0
H670 H 0.85799 0.96238 0.23119 0.0
H671 H 0.7829 0.91003 0.31562 0.0
H672 H 0.71604 0.74219 0.29299 0.0
H673 H 0.72254 0.7965 0.28656 0.0
H674 H 0.79027 0.85884 0.20006 0.0
C675 C 0.84527 0.97328 0.24397 0.0
C676 C 0.78403 0.89899 0.29005 0.0
C677 C 0.85984 0.00693 0.24392 0.0
C678 C 0.73713 0.761 0.27889 0.0
C679 C 0.74096 0.792 0.27541 0.0
C680 C 0.7882 0.86968 0.22534 0.0
C681 C 0.81469 0.95391 0.26025 0.0
C682 C 0.7989 0.91811 0.25872 0.0
C683 C 0.76874 0.81709 0.25827 0.0
C684 C 0.77518 0.85084 0.25726 0.0
H685 H 0.80104 0.0136 0.28964 0.0
H686 H 0.77584 0.95473 0.2902 0.0
H687 H 0.81049 0.91687 0.20121 0.0
H688 H 0.80755 0.77585 0.2376 0.0
H689 H 0.81396 0.82927 0.23106 0.0
C690 C 0.17837 0.17217 0.7242 0.0
C691 C 0.17413 0.18425 0.7577 0.0
C692 C 0.19256 0.15284 0.72346 0.0
C693 C 0.24479 0.13037 0.77586 0.0
H694 H 0.20666 0.05684 0.70969 0.0
C695 C 0.27546 0.02618 0.7704 0.0
C696 C 0.27379 0.01299 0.73538 0.0
C697 C 0.26873 0.05138 0.77457 0.0
C698 C 0.21794 0.07755 0.72792 0.0
H699 H 0.18169 0.18559 0.81678 0.0
H700 H 0.20636 0.1513 0.81551 0.0
H701 H 0.18213 0.09044 0.71536 0.0
H702 H 0.26713 0.01741 0.67708 0.0
H703 H 0.2567 0.06207 0.68406 0.0
H704 H 0.28046 0.11682 0.78862 0.0
C705 C 0.1989 0.15718 0.78979 0.0
C706 C 0.20379 0.09678 0.73124 0.0
C707 C 0.18467 0.17667 0.79053 0.0
C708 C 0.2685 0.02726 0.70435 0.0
C709 C 0.2622 0.05255 0.70842 0.0
C710 C 0.25898 0.11092 0.7726 0.0
C711 C 0.20287 0.14496 0.7562 0.0
C712 C 0.21726 0.12369 0.7548 0.0
C713 C 0.26042 0.06363 0.7437 0.0
C714 C 0.24594 0.08461 0.7481 0.0
H715 H 0.17139 0.17828 0.69829 0.0
H716 H 0.19591 0.14443 0.69702 0.0
H717 H 0.2558 0.15103 0.79415 0.0
H718 H 0.27901 0.01513 0.79475 0.0
H719 H 0.26754 0.05945 0.80209 0.0
C720 C 1.0098 0.82207 0.7841 0.0
C721 C 0.02106 0.81013 0.75586 0.0
C722 C 0.97659 0.80776 0.79137 0.0
C723 C 0.89775 0.76098 0.74507 0.0
H724 H 0.86384 0.75568 0.84344 0.0
C725 C 0.76393 0.72579 0.76894 0.0
C726 C 0.76038 0.74713 0.79243 0.0
C727 C 0.79354 0.72617 0.76733 0.0
C728 C 0.87291 0.757 0.81577 0.0
H729 H 1.00619 0.7725 0.71459 0.0
H730 H 0.94824 0.74769 0.72716 0.0
H731 H 0.92043 0.7703 0.83544 0.0
H732 H 0.7843 0.7841 0.83426 0.0
H733 H 0.83547 0.78481 0.83142 0.0
H734 H 0.8506 0.74882 0.72531 0.0
C735 C 0.96511 0.76845 0.74328 0.0
C736 C 0.90536 0.76542 0.8112 0.0
C737 C 0.99834 0.78271 0.73608 0.0
C738 C 0.78631 0.7675 0.81565 0.0
C739 C 0.81564 0.76771 0.81426 0.0
C740 C 0.86531 0.75261 0.74964 0.0
C741 C 0.95379 0.78117 0.77057 0.0
C742 C 0.91839 0.7683 0.77575 0.0
C743 C 0.81995 0.74763 0.78949 0.0
C744 C 0.85272 0.75135 0.785 0.0
H745 H 0.0265 0.84339 0.79956 0.0
H746 H 0.96872 0.81846 0.81226 0.0
H747 H 0.90705 0.76328 0.71735 0.0
H748 H 0.74439 0.70988 0.75066 0.0
H749 H 0.79599 0.71018 0.74819 0.0
C750 C 0.99056 0.23526 0.74638 0.0
C751 C 1.00384 0.26009 0.77269 0.0
C752 C 0.96379 0.20526 0.75501 0.0
C753 C 0.89881 0.14738 0.77647 0.0
H754 H 0.91043 0.10734 0.86388 0.0
C755 C 0.80833 0.0148 0.81407 0.0
C756 C 0.8225 0.99568 0.82141 0.0
C757 C 0.82729 0.04852 0.81313 0.0
C758 C 0.90678 0.11826 0.8395 0.0
H759 H 0.99928 0.27348 0.82839 0.0
H760 H 0.95242 0.22045 0.84387 0.0
H761 H 0.94794 0.16473 0.85157 0.0
H762 H 0.86748 0.99712 0.83517 0.0
H763 H 0.90068 0.05612 0.83346 0.0
H764 H 0.85839 0.10081 0.76365 0.0
C765 C 0.9626 0.22446 0.8164 0.0
C766 C 0.92802 0.15116 0.83266 0.0
C767 C 0.98912 0.25483 0.80746 0.0
C768 C 0.85589 0.01116 0.82922 0.0
C769 C 0.87484 0.04495 0.82855 0.0
C770 C 0.8774 0.11463 0.78349 0.0
C771 C 0.95008 0.19921 0.79042 0.0
C772 C 0.9247 0.16585 0.80061 0.0
C773 C 0.86085 0.06396 0.81971 0.0
C774 C 0.88156 0.09951 0.81465 0.0
H775 H 1.00165 0.2387 0.71946 0.0
H776 H 0.95493 0.18622 0.73455 0.0
H777 H 0.89561 0.1581 0.75162 0.0
H778 H 0.78276 1.00368 0.8075 0.0
H779 H 0.81578 0.06251 0.80652 0.0
loop_
_geom_bond_atom_site_label_1
_geom_bond_atom_site_label_2
_geom_bond_distance
_geom_bond_site_symmetry_2
_ccdc_geom_bond_type
Dy0 O3 2.307 . S
Dy0 O5 2.395 . S
Dy0 O6 2.379 . S
Dy0 O8 2.339 . S
Dy0 O10 2.298 . S
Dy0 O14 2.275 . S
Dy0 C22 2.738 . S
Dy1 O4 2.298 . S
Dy1 O7 2.275 . S
Dy1 O9 2.307 . S
Dy1 O11 2.395 . S
Dy1 O12 2.379 . S
Dy1 O15 2.339 . S
Dy1 C31 2.738 . S
C2 O14 1.254 . S
C2 O15 1.257 . S
O3 Dy0 2.307 . S
O3 C13 1.266 . S
O4 Dy1 2.298 . S
O4 C13 1.236 . S
O5 Dy0 2.395 . S
O5 C22 1.255 . S
O6 Dy0 2.379 . S
O6 C22 1.249 . S
O7 Dy1 2.275 . S
O7 C23 1.254 . S
O8 Dy0 2.339 . S
O8 C23 1.257 . S
O9 Dy1 2.307 . S
O9 C24 1.266 . S
O10 Dy0 2.298 . S
O10 C24 1.236 . S
O11 Dy1 2.395 . S
O11 C31 1.255 . S
O12 Dy1 2.379 . S
O12 C31 1.249 . S
C13 O3 1.266 . S
C13 O4 1.236 . S
O14 Dy0 2.275 . S
O14 C2 1.254 . S
O15 Dy1 2.339 . S
O15 C2 1.257 . S
C16 C19 1.344 . S
C16 C20 1.328 . S
C16 C22 1.516 . S
C17 C18 1.304 . S
C17 C21 1.323 . S
C18 C17 1.304 . S
C18 C19 1.371 . S
C18 H32 0.930 . S
C19 C16 1.344 . S
C19 C18 1.371 . S
C19 H33 0.931 . S
C20 C16 1.328 . S
C20 C21 1.433 . S
C20 H34 0.931 . S
C21 C17 1.323 . S
C21 C20 1.433 . S
C21 H35 0.933 . S
C22 Dy0 2.738 . S
C22 O5 1.255 . S
C22 O6 1.249 . S
C22 C16 1.516 . S
C23 O7 1.254 . S
C23 O8 1.257 . S
C24 O9 1.266 . S
C24 O10 1.236 . S
C25 C28 1.344 . S
C25 C29 1.328 . S
C25 C31 1.516 . S
C26 C27 1.304 . S
C26 C30 1.323 . S
C27 C26 1.304 . S
C27 C28 1.371 . S
C27 H36 0.930 . S
C28 C25 1.344 . S
C28 C27 1.371 . S
C28 H37 0.931 . S
C29 C25 1.328 . S
C29 C30 1.433 . S
C29 H38 0.931 . S
C30 C26 1.323 . S
C30 C29 1.433 . S
C30 H39 0.933 . S
C31 Dy1 2.738 . S
C31 O11 1.255 . S
C31 O12 1.249 . S
C31 C25 1.516 . S
H32 C18 0.930 . S
H33 C19 0.931 . S
H34 C20 0.931 . S
H35 C21 0.933 . S
H36 C27 0.930 . S
H37 C28 0.931 . S
H38 C29 0.931 . S
H39 C30 0.933 . S
Dy40 O43 2.307 . S
Dy40 O45 2.395 . S
Dy40 O46 2.379 . S
Dy40 O48 2.339 . S
Dy40 O50 2.298 . S
Dy40 O54 2.275 . S
Dy40 C62 2.738 . S
Dy41 O44 2.298 . S
Dy41 O47 2.275 . S
Dy41 O49 2.307 . S
Dy41 O51 2.395 . S
Dy41 O52 2.379 . S
Dy41 O55 2.339 . S
Dy41 C71 2.738 . S
C42 O54 1.254 . S
C42 O55 1.257 . S
O43 Dy40 2.307 . S
O43 C53 1.266 . S
O44 Dy41 2.298 . S
O44 C53 1.236 . S
O45 Dy40 2.395 . S
O45 C62 1.255 . S
O46 Dy40 2.379 . S
O46 C62 1.249 . S
O47 Dy41 2.275 . S
O47 C63 1.254 . S
O48 Dy40 2.339 . S
O48 C63 1.257 . S
O49 Dy41 2.307 . S
O49 C64 1.266 . S
O50 Dy40 2.298 . S
O50 C64 1.236 . S
O51 Dy41 2.395 . S
O51 C71 1.255 . S
O52 Dy41 2.379 . S
O52 C71 1.249 . S
C53 O43 1.266 . S
C53 O44 1.236 . S
O54 Dy40 2.275 . S
O54 C42 1.254 . S
O55 Dy41 2.339 . S
O55 C42 1.257 . S
C56 C59 1.344 . S
C56 C60 1.328 . S
C56 C62 1.516 . S
C57 C58 1.304 . S
C57 C61 1.323 . S
C58 C57 1.304 . S
C58 C59 1.371 . S
C58 H72 0.930 . S
C59 C56 1.344 . S
C59 C58 1.371 . S
C59 H73 0.931 . S
C60 C56 1.328 . S
C60 C61 1.433 . S
C60 H74 0.931 . S
C61 C57 1.323 . S
C61 C60 1.433 . S
C61 H75 0.933 . S
C62 Dy40 2.738 . S
C62 O45 1.255 . S
C62 O46 1.249 . S
C62 C56 1.516 . S
C63 O47 1.254 . S
C63 O48 1.257 . S
C64 O49 1.266 . S
C64 O50 1.236 . S
C65 C68 1.344 . S
C65 C69 1.328 . S
C65 C71 1.516 . S
C66 C67 1.304 . S
C66 C70 1.323 . S
C67 C66 1.304 . S
C67 C68 1.371 . S
C67 H76 0.930 . S
C68 C65 1.344 . S
C68 C67 1.371 . S
C68 H77 0.931 . S
C69 C65 1.328 . S
C69 C70 1.433 . S
C69 H78 0.931 . S
C70 C66 1.323 . S
C70 C69 1.433 . S
C70 H79 0.933 . S
C71 Dy41 2.738 . S
C71 O51 1.255 . S
C71 O52 1.249 . S
C71 C65 1.516 . S
H72 C58 0.930 . S
H73 C59 0.931 . S
H74 C60 0.931 . S
H75 C61 0.933 . S
H76 C67 0.930 . S
H77 C68 0.931 . S
H78 C69 0.931 . S
H79 C70 0.933 . S
Dy80 O83 2.307 . S
Dy80 O85 2.395 . S
Dy80 O86 2.379 . S
Dy80 O88 2.339 . S
Dy80 O90 2.298 . S
Dy80 O94 2.275 . S
Dy80 C102 2.738 . S
Dy81 O84 2.298 . S
Dy81 O87 2.275 . S
Dy81 O89 2.307 . S
Dy81 O91 2.395 . S
Dy81 O92 2.379 . S
Dy81 O95 2.339 . S
Dy81 C111 2.738 . S
C82 O94 1.254 . S
C82 O95 1.257 . S
O83 Dy80 2.307 . S
O83 C93 1.266 . S
O84 Dy81 2.298 . S
O84 C93 1.236 . S
O85 Dy80 2.395 . S
O85 C102 1.255 . S
O86 Dy80 2.379 . S
O86 C102 1.249 . S
O87 Dy81 2.275 . S
O87 C103 1.254 . S
O88 Dy80 2.339 . S
O88 C103 1.257 . S
O89 Dy81 2.307 . S
O89 C104 1.266 . S
O90 Dy80 2.298 . S
O90 C104 1.236 . S
O91 Dy81 2.395 . S
O91 C111 1.255 . S
O92 Dy81 2.379 . S
O92 C111 1.249 . S
C93 O83 1.266 . S
C93 O84 1.236 . S
O94 Dy80 2.275 . S
O94 C82 1.254 . S
O95 Dy81 2.339 . S
O95 C82 1.257 . S
C96 C99 1.344 . S
C96 C100 1.328 . S
C96 C102 1.516 . S
C97 C98 1.304 . S
C97 C101 1.323 . S
C98 C97 1.304 . S
C98 C99 1.371 . S
C98 H112 0.930 . S
C99 C96 1.344 . S
C99 C98 1.371 . S
C99 H113 0.931 . S
C100 C96 1.328 . S
C100 C101 1.433 . S
C100 H114 0.931 . S
C101 C97 1.323 . S
C101 C100 1.433 . S
C101 H115 0.933 . S
C102 Dy80 2.738 . S
C102 O85 1.255 . S
C102 O86 1.249 . S
C102 C96 1.516 . S
C103 O87 1.254 . S
C103 O88 1.257 . S
C104 O89 1.266 . S
C104 O90 1.236 . S
C105 C108 1.344 . S
C105 C109 1.328 . S
C105 C111 1.516 . S
C106 C107 1.304 . S
C106 C110 1.323 . S
C107 C106 1.304 . S
C107 C108 1.371 . S
C107 H116 0.930 . S
C108 C105 1.344 . S
C108 C107 1.371 . S
C108 H117 0.931 . S
C109 C105 1.328 . S
C109 C110 1.433 . S
C109 H118 0.931 . S
C110 C106 1.323 . S
C110 C109 1.433 . S
C110 H119 0.933 . S
C111 Dy81 2.738 . S
C111 O91 1.255 . S
C111 O92 1.249 . S
C111 C105 1.516 . S
H112 C98 0.930 . S
H113 C99 0.931 . S
H114 C100 0.931 . S
H115 C101 0.933 . S
H116 C107 0.930 . S
H117 C108 0.931 . S
H118 C109 0.931 . S
H119 C110 0.933 . S
Dy120 O123 2.307 . S
Dy120 O125 2.395 . S
Dy120 O126 2.379 . S
Dy120 O128 2.339 . S
Dy120 O130 2.298 . S
Dy120 O134 2.275 . S
Dy120 C142 2.738 . S
Dy121 O124 2.298 . S
Dy121 O127 2.275 . S
Dy121 O129 2.307 . S
Dy121 O131 2.395 . S
Dy121 O132 2.379 . S
Dy121 O135 2.339 . S
Dy121 C151 2.738 . S
C122 O134 1.254 . S
C122 O135 1.257 . S
O123 Dy120 2.307 . S
O123 C133 1.266 . S
O124 Dy121 2.298 . S
O124 C133 1.236 . S
O125 Dy120 2.395 . S
O125 C142 1.255 . S
O126 Dy120 2.379 . S
O126 C142 1.249 . S
O127 Dy121 2.275 . S
O127 C143 1.254 . S
O128 Dy120 2.339 . S
O128 C143 1.257 . S
O129 Dy121 2.307 . S
O129 C144 1.266 . S
O130 Dy120 2.298 . S
O130 C144 1.236 . S
O131 Dy121 2.395 . S
O131 C151 1.255 . S
O132 Dy121 2.379 . S
O132 C151 1.249 . S
C133 O123 1.266 . S
C133 O124 1.236 . S
O134 Dy120 2.275 . S
O134 C122 1.254 . S
O135 Dy121 2.339 . S
O135 C122 1.257 . S
C136 C139 1.344 . S
C136 C140 1.328 . S
C136 C142 1.516 . S
C137 C138 1.304 . S
C137 C141 1.323 . S
C138 C137 1.304 . S
C138 C139 1.371 . S
C138 H152 0.930 . S
C139 C136 1.344 . S
C139 C138 1.371 . S
C139 H153 0.931 . S
C140 C136 1.328 . S
C140 C141 1.433 . S
C140 H154 0.931 . S
C141 C137 1.323 . S
C141 C140 1.433 . S
C141 H155 0.933 . S
C142 Dy120 2.738 . S
C142 O125 1.255 . S
C142 O126 1.249 . S
C142 C136 1.516 . S
C143 O127 1.254 . S
C143 O128 1.257 . S
C144 O129 1.266 . S
C144 O130 1.236 . S
C145 C148 1.344 . S
C145 C149 1.328 . S
C145 C151 1.516 . S
C146 C147 1.304 . S
C146 C150 1.323 . S
C147 C146 1.304 . S
C147 C148 1.371 . S
C147 H156 0.930 . S
C148 C145 1.344 . S
C148 C147 1.371 . S
C148 H157 0.931 . S
C149 C145 1.328 . S
C149 C150 1.433 . S
C149 H158 0.931 . S
C150 C146 1.323 . S
C150 C149 1.433 . S
C150 H159 0.933 . S
C151 Dy121 2.738 . S
C151 O131 1.255 . S
C151 O132 1.249 . S
C151 C145 1.516 . S
H152 C138 0.930 . S
H153 C139 0.931 . S
H154 C140 0.931 . S
H155 C141 0.933 . S
H156 C147 0.930 . S
H157 C148 0.931 . S
H158 C149 0.931 . S
H159 C150 0.933 . S
Dy160 O163 2.307 . S
Dy160 O165 2.395 . S
Dy160 O166 2.379 . S
Dy160 O168 2.339 . S
Dy160 O170 2.298 . S
Dy160 O174 2.275 . S
Dy160 C182 2.738 . S
Dy161 O164 2.298 . S
Dy161 O167 2.275 . S
Dy161 O169 2.307 . S
Dy161 O171 2.395 . S
Dy161 O172 2.379 . S
Dy161 O175 2.339 . S
Dy161 C191 2.738 . S
C162 O174 1.254 . S
C162 O175 1.257 . S
O163 Dy160 2.307 . S
O163 C173 1.266 . S
O164 Dy161 2.298 . S
O164 C173 1.236 . S
O165 Dy160 2.395 . S
O165 C182 1.255 . S
O166 Dy160 2.379 . S
O166 C182 1.249 . S
O167 Dy161 2.275 . S
O167 C183 1.254 . S
O168 Dy160 2.339 . S
O168 C183 1.257 . S
O169 Dy161 2.307 . S
O169 C184 1.266 . S
O170 Dy160 2.298 . S
O170 C184 1.236 . S
O171 Dy161 2.395 . S
O171 C191 1.255 . S
O172 Dy161 2.379 . S
O172 C191 1.249 . S
C173 O163 1.266 . S
C173 O164 1.236 . S
O174 Dy160 2.275 . S
O174 C162 1.254 . S
O175 Dy161 2.339 . S
O175 C162 1.257 . S
C176 C179 1.344 . S
C176 C180 1.328 . S
C176 C182 1.516 . S
C177 C178 1.304 . S
C177 C181 1.323 . S
C178 C177 1.304 . S
C178 C179 1.371 . S
C178 H192 0.930 . S
C179 C176 1.344 . S
C179 C178 1.371 . S
C179 H193 0.931 . S
C180 C176 1.328 . S
C180 C181 1.433 . S
C180 H194 0.931 . S
C181 C177 1.323 . S
C181 C180 1.433 . S
C181 H195 0.933 . S
C182 Dy160 2.738 . S
C182 O165 1.255 . S
C182 O166 1.249 . S
C182 C176 1.516 . S
C183 O167 1.254 . S
C183 O168 1.257 . S
C184 O169 1.266 . S
C184 O170 1.236 . S
C185 C188 1.344 . S
C185 C189 1.328 . S
C185 C191 1.516 . S
C186 C187 1.304 . S
C186 C190 1.323 . S
C187 C186 1.304 . S
C187 C188 1.371 . S
C187 H196 0.930 . S
C188 C185 1.344 . S
C188 C187 1.371 . S
C188 H197 0.931 . S
C189 C185 1.328 . S
C189 C190 1.433 . S
C189 H198 0.931 . S
C190 C186 1.323 . S
C190 C189 1.433 . S
C190 H199 0.933 . S
C191 Dy161 2.738 . S
C191 O171 1.255 . S
C191 O172 1.249 . S
C191 C185 1.516 . S
H192 C178 0.930 . S
H193 C179 0.931 . S
H194 C180 0.931 . S
H195 C181 0.933 . S
H196 C187 0.930 . S
H197 C188 0.931 . S
H198 C189 0.931 . S
H199 C190 0.933 . S
Dy200 O203 2.307 . S
Dy200 O205 2.395 . S
Dy200 O206 2.379 . S
Dy200 O208 2.339 . S
Dy200 O210 2.298 . S
Dy200 O214 2.275 . S
Dy200 C222 2.738 . S
Dy201 O204 2.298 . S
Dy201 O207 2.275 . S
Dy201 O209 2.307 . S
Dy201 O211 2.395 . S
Dy201 O212 2.379 . S
Dy201 O215 2.339 . S
Dy201 C231 2.738 . S
C202 O214 1.254 . S
C202 O215 1.257 . S
O203 Dy200 2.307 . S
O203 C213 1.266 . S
O204 Dy201 2.298 . S
O204 C213 1.236 . S
O205 Dy200 2.395 . S
O205 C222 1.255 . S
O206 Dy200 2.379 . S
O206 C222 1.249 . S
O207 Dy201 2.275 . S
O207 C223 1.254 . S
O208 Dy200 2.339 . S
O208 C223 1.257 . S
O209 Dy201 2.307 . S
O209 C224 1.266 . S
O210 Dy200 2.298 . S
O210 C224 1.236 . S
O211 Dy201 2.395 . S
O211 C231 1.255 . S
O212 Dy201 2.379 . S
O212 C231 1.249 . S
C213 O203 1.266 . S
C213 O204 1.236 . S
O214 Dy200 2.275 . S
O214 C202 1.254 . S
O215 Dy201 2.339 . S
O215 C202 1.257 . S
C216 C219 1.344 . S
C216 C220 1.328 . S
C216 C222 1.516 . S
C217 C218 1.304 . S
C217 C221 1.323 . S
C218 C217 1.304 . S
C218 C219 1.371 . S
C218 H232 0.930 . S
C219 C216 1.344 . S
C219 C218 1.371 . S
C219 H233 0.931 . S
C220 C216 1.328 . S
C220 C221 1.433 . S
C220 H234 0.931 . S
C221 C217 1.323 . S
C221 C220 1.433 . S
C221 H235 0.933 . S
C222 Dy200 2.738 . S
C222 O205 1.255 . S
C222 O206 1.249 . S
C222 C216 1.516 . S
C223 O207 1.254 . S
C223 O208 1.257 . S
C224 O209 1.266 . S
C224 O210 1.236 . S
C225 C228 1.344 . S
C225 C229 1.328 . S
C225 C231 1.516 . S
C226 C227 1.304 . S
C226 C230 1.323 . S
C227 C226 1.304 . S
C227 C228 1.371 . S
C227 H236 0.930 . S
C228 C225 1.344 . S
C228 C227 1.371 . S
C228 H237 0.931 . S
C229 C225 1.328 . S
C229 C230 1.433 . S
C229 H238 0.931 . S
C230 C226 1.323 . S
C230 C229 1.433 . S
C230 H239 0.933 . S
C231 Dy201 2.738 . S
C231 O211 1.255 . S
C231 O212 1.249 . S
C231 C225 1.516 . S
H232 C218 0.930 . S
H233 C219 0.931 . S
H234 C220 0.931 . S
H235 C221 0.933 . S
H236 C227 0.930 . S
H237 C228 0.931 . S
H238 C229 0.931 . S
H239 C230 0.933 . S
C240 C241 1.349 . S
C240 C242 1.327 . S
C240 H265 0.950 . S
C241 C240 1.349 . S
C241 C257 1.349 . S
C242 C240 1.327 . S
C242 C261 1.429 . S
C242 H266 0.950 . S
C243 C260 1.574 1_556 S
C243 C262 1.368 . S
C243 H267 0.949 . S
H244 C248 0.949 . S
C245 C246 1.349 . S
C245 C247 1.327 . S
C245 H268 0.950 . S
C246 C245 1.349 . S
C246 C258 1.349 . S
C247 C245 1.327 . S
C247 C263 1.429 . S
C247 H269 0.950 . S
C248 H244 0.949 . S
C248 C256 1.574 1_554 S
C248 C264 1.368 . S
H249 C257 0.950 . S
H250 C255 0.950 . S
H251 C256 0.949 . S
H252 C258 0.950 . S
H253 C259 0.950 . S
H254 C260 0.949 . S
C255 H250 0.950 . S
C255 C257 1.327 . S
C255 C261 1.429 . S
C256 C248 1.574 1_556 S
C256 H251 0.949 . S
C256 C262 1.368 1_545 S
C257 C241 1.349 . S
C257 H249 0.950 . S
C257 C255 1.327 . S
C258 C246 1.349 . S
C258 H252 0.950 . S
C258 C259 1.327 . S
C259 H253 0.950 . S
C259 C258 1.327 . S
C259 C263 1.429 . S
C260 C243 1.574 1_554 S
C260 H254 0.949 . S
C260 C264 1.368 1_565 S
C261 C242 1.429 . S
C261 C255 1.429 . S
C261 C262 1.523 . S
C262 C243 1.368 . S
C262 C256 1.368 1_565 S
C262 C261 1.523 . S
C263 C247 1.429 . S
C263 C259 1.429 . S
C263 C264 1.523 . S
C264 C248 1.368 . S
C264 C260 1.368 1_545 S
C264 C263 1.523 . S
H265 C240 0.950 . S
H266 C242 0.950 . S
H267 C243 0.949 . S
H268 C245 0.950 . S
H269 C247 0.950 . S
C270 C271 1.349 . S
C270 C272 1.327 . S
C270 H295 0.950 . S
C271 C270 1.349 . S
C271 C287 1.349 . S
C272 C270 1.327 . S
C272 C291 1.429 . S
C272 H296 0.950 . S
C273 C290 1.574 . S
C273 C292 1.368 . S
C273 H297 0.949 . S
H274 C278 0.949 . S
C275 C276 1.349 . S
C275 C277 1.327 . S
C275 H298 0.950 . S
C276 C275 1.349 . S
C276 C288 1.349 . S
C277 C275 1.327 . S
C277 C293 1.429 . S
C277 H299 0.950 . S
C278 H274 0.949 . S
C278 C286 1.574 . S
C278 C294 1.368 . S
H279 C287 0.950 . S
H280 C285 0.950 . S
H281 C286 0.949 . S
H282 C288 0.950 . S
H283 C289 0.950 . S
H284 C290 0.949 . S
C285 H280 0.950 . S
C285 C287 1.327 . S
C285 C291 1.429 . S
C286 C278 1.574 . S
C286 H281 0.949 . S
C286 C292 1.368 . S
C287 C271 1.349 . S
C287 H279 0.950 . S
C287 C285 1.327 . S
C288 C276 1.349 . S
C288 H282 0.950 . S
C288 C289 1.327 . S
C289 H283 0.950 . S
C289 C288 1.327 . S
C289 C293 1.429 . S
C290 C273 1.574 . S
C290 H284 0.949 . S
C290 C294 1.368 . S
C291 C272 1.429 . S
C291 C285 1.429 . S
C291 C292 1.523 . S
C292 C273 1.368 . S
C292 C286 1.368 . S
C292 C291 1.523 . S
C293 C277 1.429 . S
C293 C289 1.429 . S
C293 C294 1.523 . S
C294 C278 1.368 . S
C294 C290 1.368 . S
C294 C293 1.523 . S
H295 C270 0.950 . S
H296 C272 0.950 . S
H297 C273 0.949 . S
H298 C275 0.950 . S
H299 C277 0.950 . S
C300 C301 1.349 . S
C300 C302 1.327 . S
C300 H325 0.950 . S
C301 C300 1.349 . S
C301 C317 1.349 . S
C302 C300 1.327 . S
C302 C321 1.429 . S
C302 H326 0.950 . S
C303 C320 1.574 1_554 S
C303 C322 1.368 1_455 S
C303 H327 0.949 . S
H304 C308 0.949 . S
C305 C306 1.349 . S
C305 C307 1.327 . S
C305 H328 0.950 . S
C306 C305 1.349 . S
C306 C318 1.349 . S
C307 C305 1.327 . S
C307 C323 1.429 . S
C307 H329 0.950 . S
C308 H304 0.949 . S
C308 C316 1.574 1_556 S
C308 C324 1.368 1_655 S
H309 C317 0.950 . S
H310 C315 0.950 . S
H311 C316 0.949 . S
H312 C318 0.950 . S
H313 C319 0.950 . S
H314 C320 0.949 . S
C315 H310 0.950 . S
C315 C317 1.327 . S
C315 C321 1.429 . S
C316 C308 1.574 1_554 S
C316 H311 0.949 . S
C316 C322 1.368 . S
C317 C301 1.349 . S
C317 H309 0.950 . S
C317 C315 1.327 . S
C318 C306 1.349 . S
C318 H312 0.950 . S
C318 C319 1.327 . S
C319 H313 0.950 . S
C319 C318 1.327 . S
C319 C323 1.429 . S
C320 C303 1.574 1_556 S
C320 H314 0.949 . S
C320 C324 1.368 . S
C321 C302 1.429 . S
C321 C315 1.429 . S
C321 C322 1.523 . S
C322 C303 1.368 1_655 S
C322 C316 1.368 . S
C322 C321 1.523 . S
C323 C307 1.429 . S
C323 C319 1.429 . S
C323 C324 1.523 . S
C324 C308 1.368 1_455 S
C324 C320 1.368 . S
C324 C323 1.523 . S
H325 C300 0.950 . S
H326 C302 0.950 . S
H327 C303 0.949 . S
H328 C305 0.950 . S
H329 C307 0.950 . S
C330 C331 1.349 . S
C330 C332 1.327 . S
C330 H355 0.950 . S
C331 C330 1.349 . S
C331 C347 1.349 . S
C332 C330 1.327 . S
C332 C351 1.429 . S
C332 H356 0.950 . S
C333 C350 1.574 . S
C333 C352 1.368 1_565 S
C333 H357 0.949 . S
H334 C338 0.949 . S
C335 C336 1.349 . S
C335 C337 1.327 . S
C335 H358 0.950 . S
C336 C335 1.349 . S
C336 C348 1.349 . S
C337 C335 1.327 . S
C337 C353 1.429 . S
C337 H359 0.950 . S
C338 H334 0.949 . S
C338 C346 1.574 . S
C338 C354 1.368 1_545 S
H339 C347 0.950 . S
H340 C345 0.950 . S
H341 C346 0.949 . S
H342 C348 0.950 . S
H343 C349 0.950 . S
H344 C350 0.949 . S
C345 H340 0.950 . S
C345 C347 1.327 . S
C345 C351 1.429 . S
C346 C338 1.574 . S
C346 H341 0.949 . S
C346 C352 1.368 . S
C347 C331 1.349 . S
C347 H339 0.950 . S
C347 C345 1.327 . S
C348 C336 1.349 . S
C348 H342 0.950 . S
C348 C349 1.327 . S
C349 H343 0.950 . S
C349 C348 1.327 . S
C349 C353 1.429 . S
C350 C333 1.574 . S
C350 H344 0.949 . S
C350 C354 1.368 . S
C351 C332 1.429 . S
C351 C345 1.429 . S
C351 C352 1.523 . S
C352 C333 1.368 1_545 S
C352 C346 1.368 . S
C352 C351 1.523 . S
C353 C337 1.429 . S
C353 C349 1.429 . S
C353 C354 1.523 . S
C354 C338 1.368 1_565 S
C354 C350 1.368 . S
C354 C353 1.523 . S
H355 C330 0.950 . S
H356 C332 0.950 . S
H357 C333 0.949 . S
H358 C335 0.950 . S
H359 C337 0.950 . S
C360 C361 1.349 . S
C360 C362 1.327 . S
C360 H385 0.950 . S
C361 C360 1.349 . S
C361 C377 1.349 . S
C362 C360 1.327 . S
C362 C381 1.429 . S
C362 H386 0.950 . S
C363 C380 1.586 . S
C363 C382 1.368 . S
C363 H387 0.949 . S
H364 C368 0.949 . S
C365 C366 1.349 . S
C365 C367 1.327 . S
C365 H388 0.950 . S
C366 C365 1.349 . S
C366 C378 1.349 . S
C367 C365 1.327 . S
C367 C383 1.429 . S
C367 H389 0.950 . S
C368 H364 0.949 . S
C368 C376 1.586 . S
C368 C384 1.368 . S
H369 C377 0.950 . S
H370 C375 0.950 . S
H371 C376 0.949 . S
H372 C378 0.950 . S
H373 C379 0.950 . S
H374 C380 0.949 . S
C375 H370 0.950 . S
C375 C377 1.327 . S
C375 C381 1.429 . S
C376 C368 1.586 . S
C376 H371 0.949 . S
C376 C382 1.356 1_554 S
C377 C361 1.349 . S
C377 H369 0.950 . S
C377 C375 1.327 . S
C378 C366 1.349 . S
C378 H372 0.950 . S
C378 C379 1.327 . S
C379 H373 0.950 . S
C379 C378 1.327 . S
C379 C383 1.429 . S
C380 C363 1.586 . S
C380 H374 0.949 . S
C380 C384 1.356 1_556 S
C381 C362 1.429 . S
C381 C375 1.429 . S
C381 C382 1.523 . S
C382 C363 1.368 . S
C382 C376 1.356 1_556 S
C382 C381 1.523 . S
C383 C367 1.429 . S
C383 C379 1.429 . S
C383 C384 1.523 . S
C384 C368 1.368 . S
C384 C380 1.356 1_554 S
C384 C383 1.523 . S
H385 C360 0.950 . S
H386 C362 0.950 . S
H387 C363 0.949 . S
H388 C365 0.950 . S
H389 C367 0.950 . S
C390 C391 1.349 . S
C390 C392 1.327 . S
C390 H415 0.950 . S
C391 C390 1.349 . S
C391 C407 1.349 . S
C392 C390 1.327 . S
C392 C411 1.429 . S
C392 H416 0.950 . S
C393 C410 1.574 1_655 S
C393 C412 1.368 . S
C393 H417 0.949 . S
H394 C398 0.949 . S
C395 C396 1.349 . S
C395 C397 1.327 . S
C395 H418 0.950 . S
C396 C395 1.349 . S
C396 C408 1.349 . S
C397 C395 1.327 . S
C397 C413 1.429 . S
C397 H419 0.950 . S
C398 H394 0.949 . S
C398 C406 1.574 1_455 S
C398 C414 1.368 . S
H399 C407 0.950 . S
H400 C405 0.950 . S
H401 C406 0.949 . S
H402 C408 0.950 . S
H403 C409 0.950 . S
H404 C410 0.949 . S
C405 H400 0.950 . S
C405 C407 1.327 . S
C405 C411 1.429 . S
C406 C398 1.574 1_655 S
C406 H401 0.949 . S
C406 C412 1.368 . S
C407 C391 1.349 . S
C407 H399 0.950 . S
C407 C405 1.327 . S
C408 C396 1.349 . S
C408 H402 0.950 . S
C408 C409 1.327 . S
C409 H403 0.950 . S
C409 C408 1.327 . S
C409 C413 1.429 . S
C410 C393 1.574 1_455 S
C410 H404 0.949 . S
C410 C414 1.368 . S
C411 C392 1.429 . S
C411 C405 1.429 . S
C411 C412 1.523 . S
C412 C393 1.368 . S
C412 C406 1.368 . S
C412 C411 1.523 . S
C413 C397 1.429 . S
C413 C409 1.429 . S
C413 C414 1.523 . S
C414 C398 1.368 . S
C414 C410 1.368 . S
C414 C413 1.523 . S
H415 C390 0.950 . S
H416 C392 0.950 . S
H417 C393 0.949 . S
H418 C395 0.950 . S
H419 C397 0.950 . S
C420 C421 1.349 . S
C420 C422 1.327 . S
C420 H445 0.950 . S
C421 C420 1.349 . S
C421 C437 1.349 . S
C422 C420 1.327 . S
C422 C441 1.429 . S
C422 H446 0.950 . S
C423 C440 1.574 . S
C423 C442 1.368 . S
C423 H447 0.949 . S
H424 C428 0.949 . S
C425 C426 1.349 . S
C425 C427 1.327 . S
C425 H448 0.950 . S
C426 C425 1.349 . S
C426 C438 1.349 . S
C427 C425 1.327 . S
C427 C443 1.429 . S
C427 H449 0.950 . S
C428 H424 0.949 . S
C428 C436 1.574 . S
C428 C444 1.368 . S
H429 C437 0.950 . S
H430 C435 0.950 . S
H431 C436 0.949 . S
H432 C438 0.950 . S
H433 C439 0.950 . S
H434 C440 0.949 . S
C435 H430 0.950 . S
C435 C437 1.327 . S
C435 C441 1.429 . S
C436 C428 1.574 . S
C436 H431 0.949 . S
C436 C442 1.368 . S
C437 C421 1.349 . S
C437 H429 0.950 . S
C437 C435 1.327 . S
C438 C426 1.349 . S
C438 H432 0.950 . S
C438 C439 1.327 . S
C439 H433 0.950 . S
C439 C438 1.327 . S
C439 C443 1.429 . S
C440 C423 1.574 . S
C440 H434 0.949 . S
C440 C444 1.368 . S
C441 C422 1.429 . S
C441 C435 1.429 . S
C441 C442 1.523 . S
C442 C423 1.368 . S
C442 C436 1.368 . S
C442 C441 1.523 . S
C443 C427 1.429 . S
C443 C439 1.429 . S
C443 C444 1.523 . S
C444 C428 1.368 . S
C444 C440 1.368 . S
C444 C443 1.523 . S
H445 C420 0.950 . S
H446 C422 0.950 . S
H447 C423 0.949 . S
H448 C425 0.950 . S
H449 C427 0.950 . S
C450 C451 1.349 . S
C450 C452 1.327 . S
C450 H475 0.950 . S
C451 C450 1.349 . S
C451 C467 1.349 . S
C452 C450 1.327 . S
C452 C471 1.429 . S
C452 H476 0.950 . S
C453 C470 1.574 . S
C453 C472 1.368 . S
C453 H477 0.949 . S
H454 C458 0.949 . S
C455 C456 1.349 . S
C455 C457 1.327 . S
C455 H478 0.950 . S
C456 C455 1.349 . S
C456 C468 1.349 . S
C457 C455 1.327 . S
C457 C473 1.429 . S
C457 H479 0.950 . S
C458 H454 0.949 . S
C458 C466 1.574 . S
C458 C474 1.368 . S
H459 C467 0.950 . S
H460 C465 0.950 . S
H461 C466 0.949 . S
H462 C468 0.950 . S
H463 C469 0.950 . S
H464 C470 0.949 . S
C465 H460 0.950 . S
C465 C467 1.327 . S
C465 C471 1.429 . S
C466 C458 1.574 . S
C466 H461 0.949 . S
C466 C472 1.368 . S
C467 C451 1.349 . S
C467 H459 0.950 . S
C467 C465 1.327 . S
C468 C456 1.349 . S
C468 H462 0.950 . S
C468 C469 1.327 . S
C469 H463 0.950 . S
C469 C468 1.327 . S
C469 C473 1.429 . S
C470 C453 1.574 . S
C470 H464 0.949 . S
C470 C474 1.368 . S
C471 C452 1.429 . S
C471 C465 1.429 . S
C471 C472 1.523 . S
C472 C453 1.368 . S
C472 C466 1.368 . S
C472 C471 1.523 . S
C473 C457 1.429 . S
C473 C469 1.429 . S
C473 C474 1.523 . S
C474 C458 1.368 . S
C474 C470 1.368 . S
C474 C473 1.523 . S
H475 C450 0.950 . S
H476 C452 0.950 . S
H477 C453 0.949 . S
H478 C455 0.950 . S
H479 C457 0.950 . S
C480 C481 1.349 . S
C480 C482 1.327 . S
C480 H505 0.950 . S
C481 C480 1.349 . S
C481 C497 1.349 . S
C482 C480 1.327 . S
C482 C501 1.429 . S
C482 H506 0.950 . S
C483 C500 1.574 . S
C483 C502 1.368 . S
C483 H507 0.949 . S
H484 C488 0.949 . S
C485 C486 1.349 . S
C485 C487 1.327 . S
C485 H508 0.950 . S
C486 C485 1.349 . S
C486 C498 1.349 . S
C487 C485 1.327 . S
C487 C503 1.429 . S
C487 H509 0.950 . S
C488 H484 0.949 . S
C488 C496 1.574 . S
C488 C504 1.368 . S
H489 C497 0.950 . S
H490 C495 0.950 . S
H491 C496 0.949 . S
H492 C498 0.950 . S
H493 C499 0.950 . S
H494 C500 0.949 . S
C495 H490 0.950 . S
C495 C497 1.327 . S
C495 C501 1.429 . S
C496 C488 1.574 . S
C496 H491 0.949 . S
C496 C502 1.368 . S
C497 C481 1.349 . S
C497 H489 0.950 . S
C497 C495 1.327 . S
C498 C486 1.349 . S
C498 H492 0.950 . S
C498 C499 1.327 . S
C499 H493 0.950 . S
C499 C498 1.327 . S
C499 C503 1.429 . S
C500 C483 1.574 . S
C500 H494 0.949 . S
C500 C504 1.368 . S
C501 C482 1.429 . S
C501 C495 1.429 . S
C501 C502 1.523 . S
C502 C483 1.368 . S
C502 C496 1.368 . S
C502 C501 1.523 . S
C503 C487 1.429 . S
C503 C499 1.429 . S
C503 C504 1.523 . S
C504 C488 1.368 . S
C504 C500 1.368 . S
C504 C503 1.523 . S
H505 C480 0.950 . S
H506 C482 0.950 . S
H507 C483 0.949 . S
H508 C485 0.950 . S
H509 C487 0.950 . S
C510 C511 1.349 . S
C510 C512 1.327 . S
C510 H535 0.950 . S
C511 C510 1.349 . S
C511 C527 1.349 . S
C512 C510 1.327 . S
C512 C531 1.429 . S
C512 H536 0.950 . S
C513 C530 1.574 . S
C513 C532 1.368 . S
C513 H537 0.949 . S
H514 C518 0.949 . S
C515 C516 1.349 . S
C515 C517 1.327 . S
C515 H538 0.950 . S
C516 C515 1.349 . S
C516 C528 1.349 . S
C517 C515 1.327 . S
C517 C533 1.429 . S
C517 H539 0.950 . S
C518 H514 0.949 . S
C518 C526 1.574 . S
C518 C534 1.368 . S
H519 C527 0.950 . S
H520 C525 0.950 . S
H521 C526 0.949 . S
H522 C528 0.950 . S
H523 C529 0.950 . S
H524 C530 0.949 . S
C525 H520 0.950 . S
C525 C527 1.327 . S
C525 C531 1.429 . S
C526 C518 1.574 . S
C526 H521 0.949 . S
C526 C532 1.368 . S
C527 C511 1.349 . S
C527 H519 0.950 . S
C527 C525 1.327 . S
C528 C516 1.349 . S
C528 H522 0.950 . S
C528 C529 1.327 . S
C529 H523 0.950 . S
C529 C528 1.327 . S
C529 C533 1.429 . S
C530 C513 1.574 . S
C530 H524 0.949 . S
C530 C534 1.368 . S
C531 C512 1.429 . S
C531 C525 1.429 . S
C531 C532 1.523 . S
C532 C513 1.368 . S
C532 C526 1.368 . S
C532 C531 1.523 . S
C533 C517 1.429 . S
C533 C529 1.429 . S
C533 C534 1.523 . S
C534 C518 1.368 . S
C534 C530 1.368 . S
C534 C533 1.523 . S
H535 C510 0.950 . S
H536 C512 0.950 . S
H537 C513 0.949 . S
H538 C515 0.950 . S
H539 C517 0.950 . S
C540 C541 1.349 . S
C540 C542 1.327 . S
C540 H565 0.950 . S
C541 C540 1.349 . S
C541 C557 1.349 . S
C542 C540 1.327 . S
C542 C561 1.429 . S
C542 H566 0.950 . S
C543 C560 1.574 . S
C543 C562 1.368 . S
C543 H567 0.949 . S
H544 C548 0.949 . S
C545 C546 1.349 . S
C545 C547 1.327 . S
C545 H568 0.950 . S
C546 C545 1.349 . S
C546 C558 1.349 . S
C547 C545 1.327 . S
C547 C563 1.429 . S
C547 H569 0.950 . S
C548 H544 0.949 . S
C548 C556 1.574 . S
C548 C564 1.368 . S
H549 C557 0.950 . S
H550 C555 0.950 . S
H551 C556 0.949 . S
H552 C558 0.950 . S
H553 C559 0.950 . S
H554 C560 0.949 . S
C555 H550 0.950 . S
C555 C557 1.327 . S
C555 C561 1.429 . S
C556 C548 1.574 . S
C556 H551 0.949 . S
C556 C562 1.368 . S
C557 C541 1.349 . S
C557 H549 0.950 . S
C557 C555 1.327 . S
C558 C546 1.349 . S
C558 H552 0.950 . S
C558 C559 1.327 . S
C559 H553 0.950 . S
C559 C558 1.327 . S
C559 C563 1.429 . S
C560 C543 1.574 . S
C560 H554 0.949 . S
C560 C564 1.368 . S
C561 C542 1.429 . S
C561 C555 1.429 . S
C561 C562 1.523 . S
C562 C543 1.368 . S
C562 C556 1.368 . S
C562 C561 1.523 . S
C563 C547 1.429 . S
C563 C559 1.429 . S
C563 C564 1.523 . S
C564 C548 1.368 . S
C564 C560 1.368 . S
C564 C563 1.523 . S
H565 C540 0.950 . S
H566 C542 0.950 . S
H567 C543 0.949 . S
H568 C545 0.950 . S
H569 C547 0.950 . S
C570 C571 1.349 . S
C570 C572 1.327 . S
C570 H595 0.950 . S
C571 C570 1.349 . S
C571 C587 1.349 . S
C572 C570 1.327 . S
C572 C591 1.429 . S
C572 H596 0.950 . S
C573 C590 1.574 . S
C573 C592 1.368 . S
C573 H597 0.949 . S
H574 C578 0.949 . S
C575 C576 1.349 . S
C575 C577 1.327 . S
C575 H598 0.950 . S
C576 C575 1.349 . S
C576 C588 1.349 . S
C577 C575 1.327 . S
C577 C593 1.429 . S
C577 H599 0.950 . S
C578 H574 0.949 . S
C578 C586 1.574 . S
C578 C594 1.368 . S
H579 C587 0.950 . S
H580 C585 0.950 . S
H581 C586 0.949 . S
H582 C588 0.950 . S
H583 C589 0.950 . S
H584 C590 0.949 . S
C585 H580 0.950 . S
C585 C587 1.327 . S
C585 C591 1.429 . S
C586 C578 1.574 . S
C586 H581 0.949 . S
C586 C592 1.368 . S
C587 C571 1.349 . S
C587 H579 0.950 . S
C587 C585 1.327 . S
C588 C576 1.349 . S
C588 H582 0.950 . S
C588 C589 1.327 . S
C589 H583 0.950 . S
C589 C588 1.327 . S
C589 C593 1.429 . S
C590 C573 1.574 . S
C590 H584 0.949 . S
C590 C594 1.368 . S
C591 C572 1.429 . S
C591 C585 1.429 . S
C591 C592 1.523 . S
C592 C573 1.368 . S
C592 C586 1.368 . S
C592 C591 1.523 . S
C593 C577 1.429 . S
C593 C589 1.429 . S
C593 C594 1.523 . S
C594 C578 1.368 . S
C594 C590 1.368 . S
C594 C593 1.523 . S
H595 C570 0.950 . S
H596 C572 0.950 . S
H597 C573 0.949 . S
H598 C575 0.950 . S
H599 C577 0.950 . S
C600 C601 1.349 . S
C600 C602 1.327 . S
C600 H625 0.950 . S
C601 C600 1.349 . S
C601 C617 1.349 . S
C602 C600 1.327 . S
C602 C621 1.429 . S
C602 H626 0.950 . S
C603 C620 1.574 . S
C603 C622 1.368 . S
C603 H627 0.949 . S
H604 C608 0.949 . S
C605 C606 1.349 . S
C605 C607 1.327 . S
C605 H628 0.950 . S
C606 C605 1.349 . S
C606 C618 1.349 . S
C607 C605 1.327 . S
C607 C623 1.429 1_655 S
C607 H629 0.950 . S
C608 H604 0.949 . S
C608 C616 1.574 . S
C608 C624 1.368 . S
H609 C617 0.950 . S
H610 C615 0.950 . S
H611 C616 0.949 . S
H612 C618 0.950 . S
H613 C619 0.950 . S
H614 C620 0.949 . S
C615 H610 0.950 . S
C615 C617 1.327 . S
C615 C621 1.429 . S
C616 C608 1.574 . S
C616 H611 0.949 . S
C616 C622 1.368 . S
C617 C601 1.349 . S
C617 H609 0.950 . S
C617 C615 1.327 . S
C618 C606 1.349 . S
C618 H612 0.950 . S
C618 C619 1.327 1_655 S
C619 H613 0.950 . S
C619 C618 1.327 1_455 S
C619 C623 1.429 . S
C620 C603 1.574 . S
C620 H614 0.949 . S
C620 C624 1.368 . S
C621 C602 1.429 . S
C621 C615 1.429 . S
C621 C622 1.523 . S
C622 C603 1.368 . S
C622 C616 1.368 . S
C622 C621 1.523 . S
C623 C607 1.429 1_455 S
C623 C619 1.429 . S
C623 C624 1.523 . S
C624 C608 1.368 . S
C624 C620 1.368 . S
C624 C623 1.523 . S
H625 C600 0.950 . S
H626 C602 0.950 . S
H627 C603 0.949 . S
H628 C605 0.950 . S
H629 C607 0.950 . S
C630 C631 1.349 . S
C630 C632 1.327 1_655 S
C630 H655 0.950 . S
C631 C630 1.349 . S
C631 C647 1.349 . S
C632 C630 1.327 1_455 S
C632 C651 1.429 . S
C632 H656 0.950 . S
C633 C650 1.574 . S
C633 C652 1.368 . S
C633 H657 0.949 . S
H634 C638 0.949 . S
C635 C636 1.349 . S
C635 C637 1.327 1_545 S
C635 H658 0.962 . S
C636 C635 1.349 . S
C636 C648 1.349 . S
C637 C635 1.327 1_565 S
C637 C653 1.429 . S
C637 H659 0.950 . S
C638 H634 0.949 . S
C638 C646 1.574 . S
C638 C654 1.368 . S
H639 C647 0.950 . S
H640 C645 0.950 . S
H641 C646 0.949 . S
H642 C648 0.950 . S
H643 C649 0.950 . S
H644 C650 0.949 . S
C645 H640 0.950 . S
C645 C647 1.327 1_455 S
C645 C651 1.429 . S
C646 C638 1.574 . S
C646 H641 0.949 . S
C646 C652 1.368 . S
C647 C631 1.349 . S
C647 H639 0.950 . S
C647 C645 1.327 1_655 S
C648 C636 1.349 . S
C648 H642 0.950 . S
C648 C649 1.327 . S
C649 H643 0.950 . S
C649 C648 1.327 . S
C649 C653 1.429 1_545 S
C650 C633 1.574 . S
C650 H644 0.949 . S
C650 C654 1.368 . S
C651 C632 1.429 . S
C651 C645 1.429 . S
C651 C652 1.523 . S
C652 C633 1.368 . S
C652 C646 1.368 . S
C652 C651 1.523 . S
C653 C637 1.429 . S
C653 C649 1.429 1_565 S
C653 C654 1.523 . S
C654 C638 1.368 . S
C654 C650 1.368 . S
C654 C653 1.523 . S
H655 C630 0.950 . S
H656 C632 0.950 . S
H657 C633 0.949 . S
H658 C635 0.962 . S
H659 C637 0.950 . S
C660 C661 1.349 . S
C660 C662 1.327 1_545 S
C660 H685 0.950 . S
C661 C660 1.349 . S
C661 C677 1.349 . S
C662 C660 1.327 1_565 S
C662 C681 1.429 . S
C662 H686 0.950 . S
C663 C680 1.574 . S
C663 C682 1.368 . S
C663 H687 0.949 . S
H664 C668 0.949 . S
C665 C666 1.349 . S
C665 C667 1.327 . S
C665 H688 0.950 . S
C666 C665 1.349 . S
C666 C678 1.349 . S
C667 C665 1.327 . S
C667 C683 1.429 . S
C667 H689 0.950 . S
C668 H664 0.949 . S
C668 C676 1.574 . S
C668 C684 1.368 . S
H669 C677 0.950 . S
H670 C675 0.950 . S
H671 C676 0.949 . S
H672 C678 0.950 . S
H673 C679 0.950 . S
H674 C680 0.949 . S
C675 H670 0.950 . S
C675 C677 1.327 1_565 S
C675 C681 1.429 . S
C676 C668 1.574 . S
C676 H671 0.949 . S
C676 C682 1.368 . S
C677 C661 1.349 . S
C677 H669 0.950 . S
C677 C675 1.327 1_545 S
C678 C666 1.349 . S
C678 H672 0.950 . S
C678 C679 1.327 . S
C679 H673 0.950 . S
C679 C678 1.327 . S
C679 C683 1.429 . S
C680 C663 1.574 . S
C680 H674 0.949 . S
C680 C684 1.368 . S
C681 C662 1.429 . S
C681 C675 1.429 . S
C681 C682 1.523 . S
C682 C663 1.368 . S
C682 C676 1.368 . S
C682 C681 1.523 . S
C683 C667 1.429 . S
C683 C679 1.429 . S
C683 C684 1.523 . S
C684 C668 1.368 . S
C684 C680 1.368 . S
C684 C683 1.523 . S
H685 C660 0.950 . S
H686 C662 0.950 . S
H687 C663 0.949 . S
H688 C665 0.950 . S
H689 C667 0.950 . S
C690 C691 1.349 . S
C690 C692 1.327 . S
C690 H715 0.950 . S
C691 C690 1.349 . S
C691 C707 1.349 . S
C692 C690 1.327 . S
C692 C711 1.429 . S
C692 H716 0.950 . S
C693 C710 1.574 . S
C693 C712 1.368 . S
C693 H717 0.949 . S
H694 C698 0.949 . S
C695 C696 1.349 . S
C695 C697 1.327 . S
C695 H718 0.950 . S
C696 C695 1.349 . S
C696 C708 1.349 . S
C697 C695 1.327 . S
C697 C713 1.429 1_565 S
C697 H719 0.950 . S
C698 H694 0.949 . S
C698 C706 1.574 . S
C698 C714 1.368 . S
H699 C707 0.950 . S
H700 C705 0.950 . S
H701 C706 0.949 . S
H702 C708 0.950 . S
H703 C709 0.950 . S
H704 C710 0.949 . S
C705 H700 0.950 . S
C705 C707 1.327 . S
C705 C711 1.429 . S
C706 C698 1.574 . S
C706 H701 0.949 . S
C706 C712 1.368 . S
C707 C691 1.349 . S
C707 H699 0.950 . S
C707 C705 1.327 . S
C708 C696 1.349 . S
C708 H702 0.950 . S
C708 C709 1.327 1_565 S
C709 H703 0.950 . S
C709 C708 1.327 1_545 S
C709 C713 1.429 . S
C710 C693 1.574 . S
C710 H704 0.949 . S
C710 C714 1.368 . S
C711 C692 1.429 . S
C711 C705 1.429 . S
C711 C712 1.523 . S
C712 C693 1.368 . S
C712 C706 1.368 . S
C712 C711 1.523 . S
C713 C697 1.429 1_545 S
C713 C709 1.429 . S
C713 C714 1.523 . S
C714 C698 1.368 . S
C714 C710 1.368 . S
C714 C713 1.523 . S
H715 C690 0.950 . S
H716 C692 0.950 . S
H717 C693 0.949 . S
H718 C695 0.950 . S
H719 C697 0.950 . S
C720 C721 1.349 . S
C720 C722 1.327 1_455 S
C720 H745 0.950 . S
C721 C720 1.349 . S
C721 C737 1.349 . S
C722 C720 1.327 1_655 S
C722 C741 1.429 . S
C722 H746 0.950 . S
C723 C740 1.574 . S
C723 C742 1.368 . S
C723 H747 0.949 . S
H724 C728 0.949 . S
C725 C726 1.349 . S
C725 C727 1.327 . S
C725 H748 0.950 . S
C726 C725 1.349 . S
C726 C738 1.349 . S
C727 C725 1.327 . S
C727 C743 1.429 . S
C727 H749 0.950 . S
C728 H724 0.949 . S
C728 C736 1.574 . S
C728 C744 1.368 . S
H729 C737 0.950 . S
H730 C735 0.950 . S
H731 C736 0.949 . S
H732 C738 0.950 . S
H733 C739 0.950 . S
H734 C740 0.949 . S
C735 H730 0.950 . S
C735 C737 1.327 1_655 S
C735 C741 1.429 . S
C736 C728 1.574 . S
C736 H731 0.949 . S
C736 C742 1.368 . S
C737 C721 1.349 . S
C737 H729 0.950 . S
C737 C735 1.327 1_455 S
C738 C726 1.349 . S
C738 H732 0.950 . S
C738 C739 1.327 . S
C739 H733 0.950 . S
C739 C738 1.327 . S
C739 C743 1.429 . S
C740 C723 1.574 . S
C740 H734 0.949 . S
C740 C744 1.368 . S
C741 C722 1.429 . S
C741 C735 1.429 . S
C741 C742 1.523 . S
C742 C723 1.368 . S
C742 C736 1.368 . S
C742 C741 1.523 . S
C743 C727 1.429 . S
C743 C739 1.429 . S
C743 C744 1.523 . S
C744 C728 1.368 . S
C744 C740 1.368 . S
C744 C743 1.523 . S
H745 C720 0.950 . S
H746 C722 0.950 . S
H747 C723 0.949 . S
H748 C725 0.950 . S
H749 C727 0.950 . S
C750 C751 1.349 . S
C750 C752 1.327 . S
C750 H775 0.950 . S
C751 C750 1.349 . S
C751 C767 1.349 . S
C752 C750 1.327 . S
C752 C771 1.429 1_455 S
C752 H776 0.950 . S
C753 C770 1.574 . S
C753 C772 1.368 . S
C753 H777 0.949 . S
H754 C758 0.949 . S
C755 C756 1.377 . S
C755 C757 1.296 1_565 S
C755 H778 0.954 . S
C756 C755 1.377 . S
C756 C768 1.349 . S
C757 C755 1.296 1_545 S
C757 C773 1.429 . S
C757 H779 0.950 . S
C758 H754 0.949 . S
C758 C766 1.574 . S
C758 C774 1.368 . S
H759 C767 0.950 . S
H760 C765 0.950 . S
H761 C766 0.949 . S
H762 C768 0.950 . S
H763 C769 0.950 . S
H764 C770 0.949 . S
C765 H760 0.950 . S
C765 C767 1.327 1_655 S
C765 C771 1.429 . S
C766 C758 1.574 . S
C766 H761 0.949 . S
C766 C772 1.368 . S
C767 C751 1.349 . S
C767 H759 0.950 . S
C767 C765 1.327 1_455 S
C768 C756 1.349 . S
C768 H762 0.950 . S
C768 C769 1.327 1_565 S
C769 H763 0.950 . S
C769 C768 1.327 1_545 S
C769 C773 1.429 . S
C770 C753 1.574 . S
C770 H764 0.949 . S
C770 C774 1.368 . S
C771 C752 1.429 1_655 S
C771 C765 1.429 . S
C771 C772 1.523 . S
C772 C753 1.368 . S
C772 C766 1.368 . S
C772 C771 1.523 . S
C773 C757 1.429 . S
C773 C769 1.429 . S
C773 C774 1.523 . S
C774 C758 1.368 . S
C774 C770 1.368 . S
C774 C773 1.523 . S
H775 C750 0.950 . S
H776 C752 0.950 . S
H777 C753 0.949 . S
H778 C755 0.954 . S
H779 C757 0.950 . S
C241 C183 2.294 . S
C246 C23 2.294 . S
C271 C202 2.481 . S
C276 C42 2.481 . S
C301 C103 2.294 . S
C306 C143 2.294 . S
C331 C2 2.481 . S
C336 C162 2.481 . S
C361 C223 2.294 . S
C366 C63 2.294 . S
C391 C82 2.481 . S
C396 C122 2.481 . S
C421 C17 1.768 . S
C426 C104 1.774 . S
C451 C57 1.768 . S
C456 C24 1.774 . S
C481 C97 1.768 . S
C486 C64 1.774 . S
C511 C137 1.768 . S
C516 C184 1.774 . S
C541 C177 1.768 . S
C546 C224 1.774 . S
C571 C144 1.774 . S
C576 C217 1.768 . S
C601 C26 0.828 . S
C606 C93 0.826 . S
C631 C66 0.828 . S
C636 C13 0.826 . S
C661 C106 0.828 . S
C666 C53 0.826 . S
C691 C146 0.828 . S
C696 C173 0.826 . S
C721 C186 0.828 . S
C726 C213 0.826 . S
C751 C133 0.826 . S
C756 C226 0.828 . S
