# Generated by pormake.
# Topology pcu-g, (3)-cn, num edge types: 1
# Building blocks:
#     Node 0, Type 0, BuildingBlock: WUSLED_clean_sbu_0, # of connection points: 3
#     Node 1, Type 0, BuildingBlock: WUSLED_clean_sbu_0, # of connection points: 3
#     Node 2, Type 0, BuildingBlock: WUSLED_clean_sbu_0, # of connection points: 3
#     Node 3, Type 0, BuildingBlock: WUSLED_clean_sbu_0, # of connection points: 3
#     Node 4, Type 0, BuildingBlock: WUSLED_clean_sbu_0, # of connection points: 3
#     Node 5, Type 0, BuildingBlock: WUSLED_clean_sbu_0, # of connection points: 3
#     Node 6, Type 0, BuildingBlock: WUSLED_clean_sbu_0, # of connection points: 3
#     Node 7, Type 0, BuildingBlock: WUSLED_clean_sbu_0, # of connection points: 3
#     Node 8, Type 0, BuildingBlock: WUSLED_clean_sbu_0, # of connection points: 3
#     Node 9, Type 0, BuildingBlock: WUSLED_clean_sbu_0, # of connection points: 3
#     Node 10, Type 0, BuildingBlock: WUSLED_clean_sbu_0, # of connection points: 3
#     Node 11, Type 0, BuildingBlock: WUSLED_clean_sbu_0, # of connection points: 3
#     Node 12, Type 0, BuildingBlock: WUSLED_clean_sbu_0, # of connection points: 3
#     Node 13, Type 0, BuildingBlock: WUSLED_clean_sbu_0, # of connection points: 3
#     Node 14, Type 0, BuildingBlock: WUSLED_clean_sbu_0, # of connection points: 3
#     Node 15, Type 0, BuildingBlock: WUSLED_clean_sbu_0, # of connection points: 3
#     Node 16, Type 0, BuildingBlock: WUSLED_clean_sbu_0, # of connection points: 3
#     Node 17, Type 0, BuildingBlock: WUSLED_clean_sbu_0, # of connection points: 3
#     Node 18, Type 0, BuildingBlock: WUSLED_clean_sbu_0, # of connection points: 3
#     Node 19, Type 0, BuildingBlock: WUSLED_clean_sbu_0, # of connection points: 3
#     Node 20, Type 0, BuildingBlock: WUSLED_clean_sbu_0, # of connection points: 3
#     Node 21, Type 0, BuildingBlock: WUSLED_clean_sbu_0, # of connection points: 3
#     Node 22, Type 0, BuildingBlock: WUSLED_clean_sbu_0, # of connection points: 3
#     Node 23, Type 0, BuildingBlock: WUSLED_clean_sbu_0, # of connection points: 3
#     Node 24, Type 0, BuildingBlock: WUSLED_clean_sbu_0, # of connection points: 3
#     Node 25, Type 0, BuildingBlock: WUSLED_clean_sbu_0, # of connection points: 3
#     Node 26, Type 0, BuildingBlock: WUSLED_clean_sbu_0, # of connection points: 3
#     Node 27, Type 0, BuildingBlock: WUSLED_clean_sbu_0, # of connection points: 3
#     Node 28, Type 0, BuildingBlock: WUSLED_clean_sbu_0, # of connection points: 3
#     Node 29, Type 0, BuildingBlock: WUSLED_clean_sbu_0, # of connection points: 3
#     Node 30, Type 0, BuildingBlock: WUSLED_clean_sbu_0, # of connection points: 3
#     Node 31, Type 0, BuildingBlock: WUSLED_clean_sbu_0, # of connection points: 3
#     Node 32, Type 0, BuildingBlock: WUSLED_clean_sbu_0, # of connection points: 3
#     Node 33, Type 0, BuildingBlock: WUSLED_clean_sbu_0, # of connection points: 3
#     Node 34, Type 0, BuildingBlock: WUSLED_clean_sbu_0, # of connection points: 3
#     Node 35, Type 0, BuildingBlock: WUSLED_clean_sbu_0, # of connection points: 3
#     Node 36, Type 0, BuildingBlock: WUSLED_clean_sbu_0, # of connection points: 3
#     Node 37, Type 0, BuildingBlock: WUSLED_clean_sbu_0, # of connection points: 3
#     Node 38, Type 0, BuildingBlock: WUSLED_clean_sbu_0, # of connection points: 3
#     Node 39, Type 0, BuildingBlock: WUSLED_clean_sbu_0, # of connection points: 3
#     Node 40, Type 0, BuildingBlock: WUSLED_clean_sbu_0, # of connection points: 3
#     Node 41, Type 0, BuildingBlock: WUSLED_clean_sbu_0, # of connection points: 3
#     Node 42, Type 0, BuildingBlock: WUSLED_clean_sbu_0, # of connection points: 3
#     Node 43, Type 0, BuildingBlock: WUSLED_clean_sbu_0, # of connection points: 3
#     Node 44, Type 0, BuildingBlock: WUSLED_clean_sbu_0, # of connection points: 3
#     Node 45, Type 0, BuildingBlock: WUSLED_clean_sbu_0, # of connection points: 3
#     Node 46, Type 0, BuildingBlock: WUSLED_clean_sbu_0, # of connection points: 3
#     Node 47, Type 0, BuildingBlock: WUSLED_clean_sbu_0, # of connection points: 3
#     Edge 48, Type (0, 0), BuildingBlock: ZUJKAS_clean_linker_0, # of connection points: 2
#     Edge 49, Type (0, 0), BuildingBlock: ZUJKAS_clean_linker_0, # of connection points: 2
#     Edge 50, Type (0, 0), BuildingBlock: ZUJKAS_clean_linker_0, # of connection points: 2
#     Edge 51, Type (0, 0), BuildingBlock: ZUJKAS_clean_linker_0, # of connection points: 2
#     Edge 52, Type (0, 0), BuildingBlock: ZUJKAS_clean_linker_0, # of connection points: 2
#     Edge 53, Type (0, 0), BuildingBlock: ZUJKAS_clean_linker_0, # of connection points: 2
#     Edge 54, Type (0, 0), BuildingBlock: ZUJKAS_clean_linker_0, # of connection points: 2
#     Edge 55, Type (0, 0), BuildingBlock: ZUJKAS_clean_linker_0, # of connection points: 2
#     Edge 56, Type (0, 0), BuildingBlock: ZUJKAS_clean_linker_0, # of connection points: 2
#     Edge 57, Type (0, 0), BuildingBlock: ZUJKAS_clean_linker_0, # of connection points: 2
#     Edge 58, Type (0, 0), BuildingBlock: ZUJKAS_clean_linker_0, # of connection points: 2
#     Edge 59, Type (0, 0), BuildingBlock: ZUJKAS_clean_linker_0, # of connection points: 2
#     Edge 60, Type (0, 0), BuildingBlock: ZUJKAS_clean_linker_0, # of connection points: 2
#     Edge 61, Type (0, 0), BuildingBlock: ZUJKAS_clean_linker_0, # of connection points: 2
#     Edge 62, Type (0, 0), BuildingBlock: ZUJKAS_clean_linker_0, # of connection points: 2
#     Edge 63, Type (0, 0), BuildingBlock: ZUJKAS_clean_linker_0, # of connection points: 2
#     Edge 64, Type (0, 0), BuildingBlock: ZUJKAS_clean_linker_0, # of connection points: 2
#     Edge 65, Type (0, 0), BuildingBlock: ZUJKAS_clean_linker_0, # of connection points: 2
#     Edge 66, Type (0, 0), BuildingBlock: ZUJKAS_clean_linker_0, # of connection points: 2
#     Edge 67, Type (0, 0), BuildingBlock: ZUJKAS_clean_linker_0, # of connection points: 2
#     Edge 68, Type (0, 0), BuildingBlock: ZUJKAS_clean_linker_0, # of connection points: 2
#     Edge 69, Type (0, 0), BuildingBlock: ZUJKAS_clean_linker_0, # of connection points: 2
#     Edge 70, Type (0, 0), BuildingBlock: ZUJKAS_clean_linker_0, # of connection points: 2
#     Edge 71, Type (0, 0), BuildingBlock: ZUJKAS_clean_linker_0, # of connection points: 2
#     Edge 72, Type (0, 0), BuildingBlock: ZUJKAS_clean_linker_0, # of connection points: 2
#     Edge 73, Type (0, 0), BuildingBlock: ZUJKAS_clean_linker_0, # of connection points: 2
#     Edge 74, Type (0, 0), BuildingBlock: ZUJKAS_clean_linker_0, # of connection points: 2
#     Edge 75, Type (0, 0), BuildingBlock: ZUJKAS_clean_linker_0, # of connection points: 2
#     Edge 76, Type (0, 0), BuildingBlock: ZUJKAS_clean_linker_0, # of connection points: 2
#     Edge 77, Type (0, 0), BuildingBlock: ZUJKAS_clean_linker_0, # of connection points: 2
#     Edge 78, Type (0, 0), BuildingBlock: ZUJKAS_clean_linker_0, # of connection points: 2
#     Edge 79, Type (0, 0), BuildingBlock: ZUJKAS_clean_linker_0, # of connection points: 2
#     Edge 80, Type (0, 0), BuildingBlock: ZUJKAS_clean_linker_0, # of connection points: 2
#     Edge 81, Type (0, 0), BuildingBlock: ZUJKAS_clean_linker_0, # of connection points: 2
#     Edge 82, Type (0, 0), BuildingBlock: ZUJKAS_clean_linker_0, # of connection points: 2
#     Edge 83, Type (0, 0), BuildingBlock: ZUJKAS_clean_linker_0, # of connection points: 2
#     Edge 84, Type (0, 0), BuildingBlock: ZUJKAS_clean_linker_0, # of connection points: 2
#     Edge 85, Type (0, 0), BuildingBlock: ZUJKAS_clean_linker_0, # of connection points: 2
#     Edge 86, Type (0, 0), BuildingBlock: ZUJKAS_clean_linker_0, # of connection points: 2
#     Edge 87, Type (0, 0), BuildingBlock: ZUJKAS_clean_linker_0, # of connection points: 2
#     Edge 88, Type (0, 0), BuildingBlock: ZUJKAS_clean_linker_0, # of connection points: 2
#     Edge 89, Type (0, 0), BuildingBlock: ZUJKAS_clean_linker_0, # of connection points: 2
#     Edge 90, Type (0, 0), BuildingBlock: ZUJKAS_clean_linker_0, # of connection points: 2
#     Edge 91, Type (0, 0), BuildingBlock: ZUJKAS_clean_linker_0, # of connection points: 2
#     Edge 92, Type (0, 0), BuildingBlock: ZUJKAS_clean_linker_0, # of connection points: 2
#     Edge 93, Type (0, 0), BuildingBlock: ZUJKAS_clean_linker_0, # of connection points: 2
#     Edge 94, Type (0, 0), BuildingBlock: ZUJKAS_clean_linker_0, # of connection points: 2
#     Edge 95, Type (0, 0), BuildingBlock: ZUJKAS_clean_linker_0, # of connection points: 2
#     Edge 96, Type (0, 0), BuildingBlock: ZUJKAS_clean_linker_0, # of connection points: 2
#     Edge 97, Type (0, 0), BuildingBlock: ZUJKAS_clean_linker_0, # of connection points: 2
#     Edge 98, Type (0, 0), BuildingBlock: ZUJKAS_clean_linker_0, # of connection points: 2
#     Edge 99, Type (0, 0), BuildingBlock: ZUJKAS_clean_linker_0, # of connection points: 2
#     Edge 100, Type (0, 0), BuildingBlock: ZUJKAS_clean_linker_0, # of connection points: 2
#     Edge 101, Type (0, 0), BuildingBlock: ZUJKAS_clean_linker_0, # of connection points: 2
#     Edge 102, Type (0, 0), BuildingBlock: ZUJKAS_clean_linker_0, # of connection points: 2
#     Edge 103, Type (0, 0), BuildingBlock: ZUJKAS_clean_linker_0, # of connection points: 2
#     Edge 104, Type (0, 0), BuildingBlock: ZUJKAS_clean_linker_0, # of connection points: 2
#     Edge 105, Type (0, 0), BuildingBlock: ZUJKAS_clean_linker_0, # of connection points: 2
#     Edge 106, Type (0, 0), BuildingBlock: ZUJKAS_clean_linker_0, # of connection points: 2
#     Edge 107, Type (0, 0), BuildingBlock: ZUJKAS_clean_linker_0, # of connection points: 2
#     Edge 108, Type (0, 0), BuildingBlock: ZUJKAS_clean_linker_0, # of connection points: 2
#     Edge 109, Type (0, 0), BuildingBlock: ZUJKAS_clean_linker_0, # of connection points: 2
#     Edge 110, Type (0, 0), BuildingBlock: ZUJKAS_clean_linker_0, # of connection points: 2
#     Edge 111, Type (0, 0), BuildingBlock: ZUJKAS_clean_linker_0, # of connection points: 2
#     Edge 112, Type (0, 0), BuildingBlock: ZUJKAS_clean_linker_0, # of connection points: 2
#     Edge 113, Type (0, 0), BuildingBlock: ZUJKAS_clean_linker_0, # of connection points: 2
#     Edge 114, Type (0, 0), BuildingBlock: ZUJKAS_clean_linker_0, # of connection points: 2
#     Edge 115, Type (0, 0), BuildingBlock: ZUJKAS_clean_linker_0, # of connection points: 2
#     Edge 116, Type (0, 0), BuildingBlock: ZUJKAS_clean_linker_0, # of connection points: 2
#     Edge 117, Type (0, 0), BuildingBlock: ZUJKAS_clean_linker_0, # of connection points: 2
#     Edge 118, Type (0, 0), BuildingBlock: ZUJKAS_clean_linker_0, # of connection points: 2
#     Edge 119, Type (0, 0), BuildingBlock: ZUJKAS_clean_linker_0, # of connection points: 2
# Relax obj value: 0.001
# Max RMSD: 0.008
# Mean RMSD: 0.005
data_MOF--net-pcu-g--node1-WUSLED_clean_sbu_0--edge1-ZUJKAS_clean_linker_0
_symmetry_space_group_name_H-M    P1
_symmetry_Int_Tables_number       1
_symmetry_cell_setting            triclinic
loop_
_symmetry_equiv_pos_as_xyz
'x, y, z'
_cell_length_a     145.84048
_cell_length_b     146.24974
_cell_length_c     146.8405
_cell_angle_alpha  89.976175
_cell_angle_beta   90.031387
_cell_angle_gamma 90.033872
loop_
_atom_site_label
_atom_site_type_symbol
_atom_site_fract_x
_atom_site_fract_y
_atom_site_fract_z
_atom_type_partial_charge
C0 C 1.01076 0.15628 0.41641 0.0
C1 C 0.01317 0.14751 0.41949 0.0
C2 C 1.00236 0.14056 0.40882 0.0
C3 C 1.00899 0.13973 0.41575 0.0
C4 C 1.00005 0.14938 0.40572 0.0
C5 C 1.0042 0.15714 0.40949 0.0
U6 U 0.02937 0.16827 0.43049 0.0
O7 O 0.03648 0.18133 0.4281 0.0
O8 O 0.02823 0.1795 0.44045 0.0
C9 C 0.0331 0.18517 0.43546 0.0
C10 C 0.01495 0.16457 0.42036 0.0
C11 C 0.02943 0.19454 0.43445 0.0
C12 C 0.02097 0.20621 0.42609 0.0
C13 C 0.02399 0.19713 0.42699 0.0
C14 C 0.02868 0.21015 0.44016 0.0
C15 C 0.0233 0.21286 0.43266 0.0
C16 C 0.0317 0.20111 0.44103 0.0
C17 C 0.04844 0.15285 0.44092 0.0
C18 C 0.05909 0.15629 0.45324 0.0
C19 C 0.06116 0.14261 0.44419 0.0
C20 C 0.05345 0.14491 0.43902 0.0
C21 C 0.06407 0.14823 0.45142 0.0
C22 C 0.05135 0.15859 0.44802 0.0
C23 C 0.04005 0.15469 0.4356 0.0
O24 O 0.01464 0.16521 0.42929 0.0
O25 O 0.02293 0.16697 0.41697 0.0
O26 O 0.04112 0.15914 0.4279 0.0
O27 O 0.03278 0.15733 0.4402 0.0
H28 H 0.01827 0.14669 0.4248 0.0
H29 H 0.01102 0.13306 0.41822 0.0
H30 H 0.9949 0.15031 0.40048 0.0
H31 H 1.00224 0.16385 0.40702 0.0
H32 H 0.01677 0.20801 0.42028 0.0
H33 H 0.02214 0.19217 0.42183 0.0
H34 H 0.03075 0.21506 0.44527 0.0
H35 H 0.03592 0.19927 0.44682 0.0
H36 H 0.06119 0.16084 0.45867 0.0
H37 H 0.0647 0.13629 0.44267 0.0
H38 H 0.05129 0.14036 0.4336 0.0
H39 H 0.0476 0.16478 0.44959 0.0
C40 C 0.97038 0.35437 0.44583 0.0
C41 C 0.9716 0.36367 0.44787 0.0
C42 C 0.95645 0.36426 0.45495 0.0
C43 C 0.96471 0.36856 0.45241 0.0
C44 C 0.95525 0.35496 0.45277 0.0
C45 C 0.96214 0.35008 0.44828 0.0
U46 U 0.99229 0.35259 0.43148 0.0
O47 O 1.00426 0.34359 0.43315 0.0
O48 O 0.99598 0.34277 0.4207 0.0
C49 C 1.00278 0.33927 0.42543 0.0
C50 C 0.97764 0.349 0.4413 0.0
C51 C 1.00323 0.32918 0.4258 0.0
C52 C 0.99842 0.31449 0.43202 0.0
C53 C 0.99764 0.32406 0.43169 0.0
C54 C 1.01032 0.31508 0.42055 0.0
C55 C 1.00478 0.30987 0.42645 0.0
C56 C 1.00954 0.32461 0.42023 0.0
C57 C 1.00302 0.37559 0.42321 0.0
C58 C 0.01469 0.37813 0.41161 0.0
C59 C 1.00964 0.3907 0.42108 0.0
C60 C 1.00362 0.38483 0.42563 0.0
C61 C 0.01525 0.38747 0.41398 0.0
C62 C 1.00864 0.37224 0.41619 0.0
C63 C 0.99623 0.3698 0.42793 0.0
O64 O 0.97758 0.34918 0.43235 0.0
O65 O 0.98591 0.34979 0.44477 0.0
O66 O 0.99906 0.36553 0.43529 0.0
O67 O 0.99085 0.36477 0.42278 0.0
H68 H 0.97789 0.36713 0.44599 0.0
H69 H 0.96583 0.37574 0.45387 0.0
H70 H 0.94904 0.35139 0.45471 0.0
H71 H 0.96107 0.3429 0.44678 0.0
H72 H 0.99397 0.31072 0.43658 0.0
H73 H 0.99271 0.32747 0.43603 0.0
H74 H 0.01539 0.31181 0.41627 0.0
H75 H 0.01395 0.32844 0.41567 0.0
H76 H 0.01896 0.37538 0.40625 0.0
H77 H 1.00973 0.39785 0.42301 0.0
H78 H 0.99931 0.38757 0.43098 0.0
H79 H 1.00828 0.36511 0.41422 0.0
C80 C 1.00969 0.86564 0.1065 0.0
C81 C 0.01364 0.87434 0.10549 0.0
C82 C 1.00092 0.88126 0.11384 0.0
C83 C 1.0093 0.88208 0.10914 0.0
C84 C 0.99704 0.8725 0.11484 0.0
C85 C 1.00138 0.86478 0.11121 0.0
U86 U 0.02863 0.85401 0.09262 0.0
O87 O 0.03603 0.84114 0.0951 0.0
O88 O 0.02776 0.84271 0.08271 0.0
C89 C 0.03276 0.83719 0.08774 0.0
C90 C 0.01408 0.85742 0.10265 0.0
C91 C 0.02937 0.82771 0.08874 0.0
C92 C 0.02166 0.81564 0.09728 0.0
C93 C 0.02428 0.82485 0.09635 0.0
C94 C 0.02902 0.81213 0.08293 0.0
C95 C 0.0241 0.80913 0.09062 0.0
C96 C 0.03162 0.82129 0.08202 0.0
C97 C 0.04734 0.86984 0.08212 0.0
C98 C 0.05766 0.86702 0.06937 0.0
C99 C 0.05985 0.88036 0.0789 0.0
C100 C 0.05234 0.87774 0.08422 0.0
C101 C 0.06252 0.87512 0.07131 0.0
C102 C 0.05011 0.86441 0.07473 0.0
C103 C 0.039 0.8678 0.08746 0.0
O104 O 0.01383 0.85674 0.09373 0.0
O105 O 0.02211 0.85525 0.10609 0.0
O106 O 0.04019 0.86342 0.09519 0.0
O107 O 0.03179 0.86499 0.08288 0.0
H108 H 0.02005 0.87515 0.10185 0.0
H109 H 0.01244 0.88871 0.10814 0.0
H110 H 0.99068 0.87157 0.11853 0.0
H111 H 0.99824 0.85812 0.11208 0.0
H112 H 0.01793 0.81359 0.10332 0.0
H113 H 0.02246 0.82969 0.10163 0.0
H114 H 0.03087 0.80738 0.07758 0.0
H115 H 0.03551 0.82335 0.07608 0.0
H116 H 0.05949 0.86286 0.06356 0.0
H117 H 0.06352 0.88653 0.08071 0.0
H118 H 0.05034 0.88201 0.08991 0.0
H119 H 0.04635 0.85827 0.07298 0.0
C120 C 0.97105 0.66777 0.077 0.0
C121 C 0.97183 0.65829 0.0757 0.0
C122 C 0.95703 0.65797 0.06787 0.0
C123 C 0.9649 0.65344 0.07116 0.0
C124 C 0.95626 0.66745 0.06932 0.0
C125 C 0.9632 0.67229 0.07382 0.0
U126 U 0.99287 0.66934 0.0915 0.0
O127 O 1.00512 0.67799 0.0897 0.0
O128 O 0.99676 0.67934 0.10203 0.0
C129 C 1.0037 0.68254 0.09728 0.0
C130 C 0.97838 0.67307 0.08149 0.0
C131 C 1.00447 0.6926 0.09664 0.0
C132 C 0.9981 0.70764 0.09327 0.0
C133 C 0.99712 0.69809 0.09373 0.0
C134 C 0.01377 0.70628 0.09855 0.0
C135 C 1.00646 0.71186 0.09566 0.0
C136 C 0.01277 0.69678 0.09903 0.0
C137 C 1.00302 0.64631 0.10031 0.0
C138 C 0.01562 0.64407 0.11098 0.0
C139 C 1.00872 0.63102 0.10349 0.0
C140 C 1.00269 0.63684 0.09891 0.0
C141 C 0.01528 0.63452 0.10959 0.0
C142 C 1.00954 0.64991 0.10637 0.0
C143 C 0.99636 0.65213 0.09544 0.0
O144 O 0.97826 0.67307 0.09044 0.0
O145 O 0.98666 0.672 0.07811 0.0
O146 O 0.99932 0.65617 0.08801 0.0
O147 O 0.99112 0.6574 0.10048 0.0
H148 H 0.97781 0.65466 0.07814 0.0
H149 H 0.96567 0.64613 0.07027 0.0
H150 H 0.95038 0.67119 0.06679 0.0
H151 H 0.96248 0.67961 0.07475 0.0
H152 H 0.99236 0.7117 0.09093 0.0
H153 H 0.99065 0.69499 0.09182 0.0
H154 H 0.02025 0.70927 0.10059 0.0
H155 H 0.01851 0.69267 0.10132 0.0
H156 H 0.02062 0.64702 0.11557 0.0
H157 H 1.00813 0.62372 0.10235 0.0
H158 H 0.99767 0.63392 0.0943 0.0
H159 H 1.00992 0.65722 0.10753 0.0
C160 C 0.41555 1.01017 0.15729 0.0
C161 C 0.41989 1.01092 0.14878 0.0
C162 C 0.4082 1.00118 0.14181 0.0
C163 C 0.41626 1.00646 0.14112 0.0
C164 C 0.40382 1.00059 0.15034 0.0
C165 C 0.40747 1.00502 0.15798 0.0
U166 U 0.4301 0.0285 0.16936 0.0
O167 O 0.42722 0.0362 0.18197 0.0
O168 O 0.43925 0.02724 0.1812 0.0
C169 C 0.43416 0.03255 0.18636 0.0
C170 C 0.41935 0.01456 0.16553 0.0
C171 C 0.43234 0.02933 0.19575 0.0
C172 C 0.43009 0.01719 0.20692 0.0
C173 C 0.43115 0.02002 0.19784 0.0
C174 C 0.4312 0.03292 0.21191 0.0
C175 C 0.43018 0.0236 0.21409 0.0
C176 C 0.43227 0.03573 0.20286 0.0
C177 C 0.44273 0.04646 0.15431 0.0
C178 C 0.44674 0.06249 0.15661 0.0
C179 C 0.4546 0.05365 0.14508 0.0
C180 C 0.44937 0.04597 0.14742 0.0
C181 C 0.45328 0.06205 0.14956 0.0
C182 C 0.44153 0.05477 0.15897 0.0
C183 C 0.43677 0.03842 0.15595 0.0
O184 O 0.42825 0.0138 0.16673 0.0
O185 O 0.41624 0.02278 0.16738 0.0
O186 O 0.42874 0.03994 0.15974 0.0
O187 O 0.4408 0.031 0.15903 0.0
H188 H 0.42613 0.01488 0.14808 0.0
H189 H 0.41988 1.00702 0.13471 0.0
H190 H 0.39752 0.99676 0.15112 0.0
H191 H 0.40398 1.0044 0.16446 0.0
H192 H 0.42921 1.00997 0.20832 0.0
H193 H 0.43115 0.01494 0.19247 0.0
H194 H 0.43144 0.03805 0.21722 0.0
H195 H 0.43324 0.04294 0.20142 0.0
H196 H 0.44562 0.06881 0.16028 0.0
H197 H 0.45947 0.05306 0.13955 0.0
H198 H 0.45038 0.03966 0.14368 0.0
H199 H 0.43646 0.05536 0.16433 0.0
C200 C 0.57566 0.47052 0.16811 0.0
C201 C 0.57356 0.47174 0.15885 0.0
C202 C 0.56647 0.4566 0.15827 0.0
C203 C 0.56899 0.46486 0.15398 0.0
C204 C 0.5687 0.45541 0.16752 0.0
C205 C 0.57323 0.4623 0.17238 0.0
U206 U 0.59086 0.49192 0.17012 0.0
O207 O 0.58946 0.50393 0.17905 0.0
O208 O 0.6016 0.49516 0.1802 0.0
C209 C 0.59702 0.5021 0.18359 0.0
C210 C 0.58029 0.47773 0.17346 0.0
C211 C 0.59645 0.50256 0.19364 0.0
C212 C 0.58845 0.49992 0.20798 0.0
C213 C 0.58889 0.49908 0.19846 0.0
C214 C 0.60315 0.5076 0.20797 0.0
C215 C 0.59558 0.50422 0.21286 0.0
C216 C 0.60357 0.50678 0.19848 0.0
C217 C 0.60071 0.50202 0.14753 0.0
C218 C 0.60631 0.5173 0.14391 0.0
C219 C 0.6092 0.50477 0.13353 0.0
C220 C 0.60459 0.49881 0.13941 0.0
C221 C 0.61002 0.51413 0.13562 0.0
C222 C 0.60168 0.5113 0.1498 0.0
C223 C 0.59531 0.49557 0.15313 0.0
O224 O 0.58929 0.47734 0.17363 0.0
O225 O 0.57714 0.48609 0.17241 0.0
O226 O 0.58791 0.49878 0.15711 0.0
O227 O 0.59998 0.48991 0.15831 0.0
H228 H 0.57543 0.47801 0.1554 0.0
H229 H 0.56749 0.46597 0.14685 0.0
H230 H 0.56678 0.44921 0.17108 0.0
H231 H 0.57478 0.46123 0.17952 0.0
H232 H 0.58256 0.49714 0.21151 0.0
H233 H 0.58332 0.49575 0.19486 0.0
H234 H 0.60871 0.51106 0.21145 0.0
H235 H 0.60945 0.50955 0.1949 0.0
H236 H 0.60678 0.52446 0.14572 0.0
H237 H 0.61211 0.50204 0.12732 0.0
H238 H 0.60394 0.49168 0.13752 0.0
H239 H 0.59873 0.51394 0.15604 0.0
C240 C 0.41483 0.01264 0.36593 0.0
C241 C 0.41919 0.01211 0.37445 0.0
C242 C 0.40728 0.02167 0.38128 0.0
C243 C 0.41546 0.01659 0.38204 0.0
C244 C 0.4029 0.02205 0.37274 0.0
C245 C 0.40664 0.0176 0.36516 0.0
U246 U 0.42895 0.9938 0.35429 0.0
O247 O 0.42608 0.98607 0.34169 0.0
O248 O 0.43845 0.99457 0.34267 0.0
C249 C 0.43325 0.98943 0.33743 0.0
C250 C 0.41868 1.00815 0.35776 0.0
C251 C 0.43175 0.99261 0.32796 0.0
C252 C 0.43093 1.00462 0.31646 0.0
C253 C 0.43171 1.00193 0.32561 0.0
C254 C 0.43 0.98874 0.31192 0.0
C255 C 0.43019 0.99805 0.30947 0.0
C256 C 0.43078 0.98607 0.32104 0.0
C257 C 0.44012 0.97546 0.37004 0.0
C258 C 0.4525 0.96478 0.36675 0.0
C259 C 0.44366 0.96316 0.38062 0.0
C260 C 0.43837 0.97073 0.37816 0.0
C261 C 0.45087 0.96013 0.37501 0.0
C262 C 0.44717 0.9724 0.36429 0.0
C263 C 0.43468 0.98374 0.36803 0.0
O264 O 0.42764 1.00857 0.35681 0.0
O265 O 0.41529 1.00007 0.3558 0.0
O266 O 0.42676 0.98245 0.36395 0.0
O267 O 0.43918 0.99088 0.36492 0.0
H268 H 0.4255 1.00829 0.37522 0.0
H269 H 0.41909 0.01621 0.38846 0.0
H270 H 0.39651 0.02572 0.3719 0.0
H271 H 0.40313 0.01805 0.35867 0.0
H272 H 0.43117 0.01184 0.31485 0.0
H273 H 0.43244 1.00712 0.33082 0.0
H274 H 0.42925 0.98349 0.30678 0.0
H275 H 0.43077 0.97885 0.32268 0.0
H276 H 0.45802 0.96268 0.3623 0.0
H277 H 0.44208 0.95966 0.38693 0.0
H278 H 0.43294 0.97296 0.38267 0.0
H279 H 0.44864 0.97595 0.35799 0.0
C280 C 0.57611 0.55161 0.35499 0.0
C281 C 0.57401 0.55047 0.36425 0.0
C282 C 0.56716 0.56571 0.36477 0.0
C283 C 0.56955 0.55744 0.36909 0.0
C284 C 0.5694 0.56683 0.35551 0.0
C285 C 0.57381 0.55985 0.35068 0.0
U286 U 0.59029 0.52957 0.35325 0.0
O287 O 0.58839 0.51761 0.34433 0.0
O288 O 0.60101 0.52571 0.3434 0.0
C289 C 0.59614 0.51897 0.33998 0.0
C290 C 0.58055 0.54428 0.34968 0.0
C291 C 0.5957 0.51847 0.32994 0.0
C292 C 0.59011 0.52391 0.31526 0.0
C293 C 0.59044 0.52464 0.3248 0.0
C294 C 0.6003 0.51087 0.31593 0.0
C295 C 0.59505 0.51701 0.3107 0.0
C296 C 0.60061 0.5116 0.32543 0.0
C297 C 0.59875 0.51882 0.37606 0.0
C298 C 0.61047 0.50721 0.37848 0.0
C299 C 0.60091 0.51207 0.39105 0.0
C300 C 0.59631 0.51812 0.38526 0.0
C301 C 0.60809 0.50655 0.38777 0.0
C302 C 0.60584 0.51329 0.37267 0.0
C303 C 0.59399 0.52566 0.37036 0.0
O304 O 0.58956 0.54423 0.34978 0.0
O305 O 0.57696 0.53607 0.35055 0.0
O306 O 0.58651 0.52291 0.36619 0.0
O307 O 0.59917 0.53096 0.36528 0.0
H308 H 0.57577 0.54418 0.36773 0.0
H309 H 0.56804 0.55638 0.37623 0.0
H310 H 0.56757 0.57304 0.35192 0.0
H311 H 0.57536 0.56086 0.34353 0.0
H312 H 0.58607 0.52882 0.31147 0.0
H313 H 0.5866 0.53001 0.32815 0.0
H314 H 0.60407 0.50538 0.31271 0.0
H315 H 0.60468 0.50675 0.32928 0.0
H316 H 0.6159 0.50301 0.37569 0.0
H317 H 0.59897 0.5119 0.39816 0.0
H318 H 0.5909 0.52237 0.38802 0.0
H319 H 0.60783 0.51372 0.36558 0.0
C320 C 0.1668 0.4461 0.05262 0.0
C321 C 0.15734 0.44769 0.05174 0.0
C322 C 0.15707 0.45539 0.06652 0.0
C323 C 0.15252 0.45229 0.05863 0.0
C324 C 0.16653 0.45363 0.06739 0.0
C325 C 0.17132 0.44905 0.06051 0.0
U326 U 0.16869 0.43171 0.03075 0.0
O327 O 0.17788 0.43346 0.01901 0.0
O328 O 0.17866 0.42094 0.02721 0.0
C329 C 0.18225 0.42574 0.02053 0.0
C330 C 0.17211 0.44154 0.04538 0.0
C331 C 0.19239 0.42613 0.02017 0.0
C332 C 0.20695 0.43384 0.02292 0.0
C333 C 0.19737 0.43347 0.02385 0.0
C334 C 0.20668 0.41945 0.01479 0.0
C335 C 0.21173 0.42687 0.01829 0.0
C336 C 0.19713 0.4191 0.01571 0.0
C337 C 0.14604 0.42321 0.01943 0.0
C338 C 0.14204 0.40962 1.01065 0.0
C339 C 0.1324 0.42306 1.00986 0.0
C340 C 0.13827 0.4276 0.01589 0.0
C341 C 0.13414 0.41398 1.00722 0.0
C342 C 0.14794 0.41419 0.01669 0.0
C343 C 0.15157 0.428 0.02643 0.0
O344 O 0.1719 0.43255 0.04541 0.0
O345 O 0.17132 0.44505 0.03717 0.0
O346 O 0.15581 0.43549 0.02382 0.0
O347 O 0.1565 0.42293 0.03197 0.0
H348 H 0.15371 0.44545 0.0457 0.0
H349 H 0.14528 0.45358 0.05767 0.0
H350 H 0.17024 0.45575 0.07342 0.0
H351 H 0.17861 0.44785 0.06134 0.0
H352 H 0.21057 0.4397 0.02564 0.0
H353 H 0.19385 0.43898 0.02732 0.0
H354 H 0.21011 0.41387 1.01134 0.0
H355 H 0.19343 0.41335 0.01285 0.0
H356 H 0.14366 0.40267 1.00869 0.0
H357 H 0.12634 0.4266 1.00748 0.0
H358 H 0.13661 0.43451 0.01797 0.0
H359 H 0.15389 0.41063 0.0193 0.0
C360 C 0.16734 0.57616 0.47075 0.0
C361 C 0.15778 0.5753 0.47141 0.0
C362 C 0.15732 0.5671 0.45691 0.0
C363 C 0.15281 0.5708 0.46456 0.0
C364 C 0.1669 0.56807 0.45629 0.0
C365 C 0.17185 0.57254 0.46314 0.0
U366 U 0.16942 0.59122 0.4921 0.0
O367 O 0.17841 0.58971 0.50406 0.0
O368 O 0.17961 0.60186 0.49539 0.0
C369 C 0.18297 0.59727 0.50232 0.0
C370 C 0.17275 0.58073 0.47793 0.0
C371 C 0.19308 0.59669 0.50285 0.0
C372 C 0.20762 0.58933 0.49927 0.0
C373 C 0.19804 0.58977 0.49842 0.0
C374 C 0.20738 0.60276 0.50889 0.0
C375 C 0.21243 0.59583 0.50452 0.0
C376 C 0.19783 0.60318 0.50806 0.0
C377 C 0.14681 0.60119 0.50234 0.0
C378 C 0.14064 0.60393 0.51754 0.0
C379 C 0.13464 0.61235 0.50467 0.0
C380 C 0.14076 0.6078 0.4989 0.0
C381 C 0.13437 0.61036 0.51404 0.0
C382 C 0.14678 0.59938 0.51175 0.0
C383 C 0.15237 0.59576 0.49583 0.0
O384 O 0.17293 0.58971 0.47758 0.0
O385 O 0.17167 0.57756 0.48624 0.0
O386 O 0.1563 0.58827 0.49889 0.0
O387 O 0.15757 0.60038 0.49015 0.0
H388 H 0.15416 0.5781 0.47722 0.0
H389 H 0.14543 0.57028 0.46522 0.0
H390 H 0.17063 0.56521 0.45059 0.0
H391 H 0.17923 0.57312 0.46252 0.0
H392 H 0.21127 0.58396 0.49573 0.0
H393 H 0.1945 0.58471 0.49434 0.0
H394 H 0.21079 0.6078 0.51311 0.0
H395 H 0.19414 0.60855 0.51156 0.0
H396 H 0.14059 0.60217 0.5247 0.0
H397 H 0.13005 0.61737 0.50174 0.0
H398 H 0.1406 0.60931 0.49168 0.0
H399 H 0.15133 0.59428 0.51462 0.0
C400 C 0.85547 0.94569 0.47077 0.0
C401 C 0.86508 0.9461 0.47104 0.0
C402 C 0.86529 0.95435 0.45655 0.0
C403 C 0.86995 0.95041 0.46399 0.0
C404 C 0.85565 0.95389 0.45637 0.0
C405 C 0.85081 0.9496 0.4634 0.0
U406 U 0.85343 0.93133 0.49269 0.0
O407 O 0.84421 0.93316 0.50441 0.0
O408 O 0.84332 0.92066 0.4962 0.0
C409 C 0.83976 0.9255 0.50286 0.0
C410 C 0.85014 0.94124 0.47808 0.0
C411 C 0.82962 0.92597 0.50317 0.0
C412 C 0.81516 0.93385 0.50041 0.0
C413 C 0.82475 0.93345 0.49961 0.0
C414 C 0.8152 0.91926 0.50818 0.0
C415 C 0.81026 0.92677 0.50474 0.0
C416 C 0.82476 0.91888 0.5074 0.0
C417 C 0.87583 0.92231 0.50403 0.0
C418 C 0.87991 0.90835 0.51216 0.0
C419 C 0.88911 0.92199 0.51411 0.0
C420 C 0.88333 0.92671 0.50812 0.0
C421 C 0.88756 0.91271 0.51612 0.0
C422 C 0.87411 0.9131 0.50619 0.0
C423 C 0.87046 0.9273 0.49704 0.0
O424 O 0.85018 0.93225 0.47806 0.0
O425 O 0.85107 0.94474 0.48627 0.0
O426 O 0.86635 0.93484 0.49969 0.0
O427 O 0.86547 0.92239 0.4914 0.0
H428 H 0.86881 0.94309 0.47667 0.0
H429 H 0.87737 0.95055 0.46432 0.0
H430 H 0.85181 0.95696 0.45084 0.0
H431 H 0.84339 0.94938 0.46309 0.0
H432 H 0.81159 0.93969 0.49758 0.0
H433 H 0.82835 0.939 0.49627 0.0
H434 H 0.81171 0.91374 0.51167 0.0
H435 H 0.82838 0.91306 0.51023 0.0
H436 H 0.87844 0.90125 0.51365 0.0
H437 H 0.89498 0.92554 0.51692 0.0
H438 H 0.88487 0.93378 0.50651 0.0
H439 H 0.86837 0.90951 0.50315 0.0
C440 C 0.35574 0.57732 0.55289 0.0
C441 C 0.3645 0.57367 0.55131 0.0
C442 C 0.36555 0.56869 0.56717 0.0
C443 C 0.36934 0.56936 0.55837 0.0
C444 C 0.35682 0.57248 0.56872 0.0
C445 C 0.35197 0.57673 0.56166 0.0
U446 U 0.35374 0.59114 0.53069 0.0
O447 O 0.34463 0.58911 0.51891 0.0
O448 O 0.34379 0.6018 0.52681 0.0
C449 C 0.34027 0.59687 0.5202 0.0
C450 C 0.35034 0.58163 0.54552 0.0
C451 C 0.33015 0.59647 0.51978 0.0
C452 C 0.31546 0.59001 0.52439 0.0
C453 C 0.32506 0.59034 0.52513 0.0
C454 C 0.31596 0.60198 0.51301 0.0
C455 C 0.31078 0.59583 0.51831 0.0
C456 C 0.32552 0.60228 0.51374 0.0
C457 C 0.37654 0.59955 0.51966 0.0
C458 C 0.37881 0.6113 0.50811 0.0
C459 C 0.39152 0.60169 0.51269 0.0
C460 C 0.38578 0.59708 0.51878 0.0
C461 C 0.38815 0.6089 0.5073 0.0
C462 C 0.37306 0.60665 0.51423 0.0
C463 C 0.37092 0.59483 0.52658 0.0
O464 O 0.3504 0.59062 0.54534 0.0
O465 O 0.35111 0.57794 0.53739 0.0
O466 O 0.36671 0.58733 0.52396 0.0
O467 O 0.36586 0.60002 0.53187 0.0
H468 H 0.36759 0.5741 0.54462 0.0
H469 H 0.37609 0.56662 0.55696 0.0
H470 H 0.35364 0.57201 0.57537 0.0
H471 H 0.34522 0.57949 0.56303 0.0
H472 H 0.31171 0.58526 0.52865 0.0
H473 H 0.32851 0.5858 0.52985 0.0
H474 H 0.31264 0.60646 0.50815 0.0
H475 H 0.32932 0.60704 0.50952 0.0
H476 H 0.37595 0.61674 0.504 0.0
H477 H 0.39867 0.59974 0.51239 0.0
H478 H 0.38862 0.59165 0.52294 0.0
H479 H 0.36593 0.60866 0.51479 0.0
C480 C 0.97072 0.85457 0.57698 0.0
C481 C 0.97138 0.86411 0.57615 0.0
C482 C 0.957 0.86453 0.56759 0.0
C483 C 0.96459 0.86905 0.5715 0.0
C484 C 0.95637 0.85497 0.56854 0.0
C485 C 0.96316 0.85006 0.57317 0.0
U486 U 0.99175 0.85254 0.59264 0.0
O487 O 0.99471 0.84235 0.60333 0.0
O488 O 1.00384 0.84361 0.59153 0.0
C489 C 1.00181 0.83901 0.59896 0.0
C490 C 0.97782 0.84919 0.58174 0.0
C491 C 1.00235 0.82892 0.59836 0.0
C492 C 1.00017 0.81457 0.5902 0.0
C493 C 0.99916 0.8241 0.59071 0.0
C494 C 1.00739 0.81455 0.60504 0.0
C495 C 1.00439 0.80966 0.59734 0.0
C496 C 1.00639 0.82405 0.60553 0.0
C497 C 1.00169 0.8751 0.60286 0.0
C498 C 0.01707 0.87965 0.60756 0.0
C499 C 1.00391 0.88824 0.61279 0.0
C500 C 0.9981 0.88235 0.60799 0.0
C501 C 0.01348 0.88704 0.61259 0.0
C502 C 0.01123 0.87373 0.60275 0.0
C503 C 0.99532 0.86956 0.59726 0.0
O504 O 0.98627 0.85031 0.57884 0.0
O505 O 0.97719 0.849 0.59066 0.0
O506 O 0.98949 0.86435 0.6017 0.0
O507 O 0.99868 0.86563 0.58993 0.0
H508 H 0.97717 0.86773 0.57906 0.0
H509 H 0.96536 0.87638 0.57084 0.0
H510 H 0.95057 0.85126 0.56579 0.0
H511 H 0.9625 0.8427 0.57379 0.0
H512 H 0.99783 0.81107 0.58413 0.0
H513 H 0.99599 0.82772 0.58508 0.0
H514 H 1.0105 0.81103 0.61075 0.0
H515 H 1.00886 0.82762 0.61151 0.0
H516 H 0.02439 0.87845 0.60733 0.0
H517 H 1.00088 0.89391 0.61646 0.0
H518 H 0.99078 0.88359 0.60811 0.0
H519 H 0.01419 0.86818 0.59886 0.0
C520 C 1.01022 0.65587 0.60729 0.0
C521 C 0.01282 0.64711 0.60435 0.0
C522 C 1.00168 0.64013 0.61467 0.0
C523 C 1.00858 0.63931 0.608 0.0
C524 C 0.99916 0.64894 0.61759 0.0
C525 C 1.00338 0.65672 0.61393 0.0
U526 U 0.02827 0.66787 0.59249 0.0
O527 O 0.02688 0.67975 0.58339 0.0
O528 O 0.0362 0.68047 0.5951 0.0
C529 C 0.03241 0.68488 0.58827 0.0
C530 C 0.01451 0.66418 0.60348 0.0
C531 C 0.02933 0.69434 0.59013 0.0
C532 C 0.01747 0.70554 0.59359 0.0
C533 C 0.0202 0.69642 0.59234 0.0
C534 C 0.03299 0.71057 0.59058 0.0
C535 C 0.02383 0.71276 0.59269 0.0
C536 C 0.03569 0.70149 0.58932 0.0
C537 C 0.0458 0.65257 0.57957 0.0
C538 C 0.06166 0.65503 0.57491 0.0
C539 C 0.05265 0.64315 0.56772 0.0
C540 C 0.04514 0.64549 0.57316 0.0
C541 C 0.06104 0.64782 0.56857 0.0
C542 C 0.05411 0.65739 0.58035 0.0
C543 C 0.03792 0.6543 0.58569 0.0
O544 O 0.02285 0.66598 0.60637 0.0
O545 O 0.01355 0.66535 0.59466 0.0
O546 O 0.03041 0.65743 0.58186 0.0
O547 O 0.03969 0.65812 0.5936 0.0
H548 H 0.01812 0.64631 0.59924 0.0
H549 H 1.01078 0.63265 0.60566 0.0
H550 H 0.9938 0.64986 0.62261 0.0
H551 H 1.00127 0.66342 0.61627 0.0
H552 H 1.01039 0.70695 0.59531 0.0
H553 H 0.01517 0.69101 0.59303 0.0
H554 H 0.03805 0.71591 0.58969 0.0
H555 H 0.04276 0.70004 0.58757 0.0
H556 H 0.06798 0.65884 0.57568 0.0
H557 H 0.05194 0.63749 0.56302 0.0
H558 H 0.03883 0.64162 0.57249 0.0
H559 H 0.05482 0.6629 0.58522 0.0
C560 C 0.97049 0.16772 0.94673 0.0
C561 C 0.96923 0.15834 0.94508 0.0
C562 C 0.95678 0.15785 0.95622 0.0
C563 C 0.96243 0.15345 0.94977 0.0
C564 C 0.95812 0.16725 0.95781 0.0
C565 C 0.96489 0.17212 0.95312 0.0
U566 U 0.99128 0.16968 0.93074 0.0
O567 O 0.99412 0.17988 0.92003 0.0
O568 O 1.00341 0.17859 0.93171 0.0
C569 C 1.00131 0.1832 0.9243 0.0
C570 C 0.97754 0.17305 0.94185 0.0
C571 C 1.0019 0.19327 0.92491 0.0
C572 C 0.99952 0.20767 0.93293 0.0
C573 C 0.99848 0.19813 0.93242 0.0
C574 C 1.00726 0.2076 0.91835 0.0
C575 C 1.00401 0.21253 0.92593 0.0
C576 C 1.00622 0.1981 0.91786 0.0
C577 C 1.00107 0.14713 0.9204 0.0
C578 C 0.0164 0.1425 0.91565 0.0
C579 C 1.00316 0.13403 0.91039 0.0
C580 C 0.99741 0.13993 0.91524 0.0
C581 C 0.01274 0.13516 0.91059 0.0
C582 C 1.01062 0.14844 0.92049 0.0
C583 C 0.99477 0.15267 0.92607 0.0
O584 O 0.98603 0.1719 0.94463 0.0
O585 O 0.97679 0.17324 0.93293 0.0
O586 O 0.98888 0.15787 0.9217 0.0
O587 O 0.99822 0.15659 0.93336 0.0
H588 H 0.97351 0.15482 0.94018 0.0
H589 H 0.96167 0.14621 0.94843 0.0
H590 H 0.95383 0.1709 0.9626 0.0
H591 H 0.96574 0.17935 0.95446 0.0
H592 H 0.99699 0.2112 0.9389 0.0
H593 H 0.9951 0.19455 0.93794 0.0
H594 H 1.01058 0.21109 0.91275 0.0
H595 H 1.00887 0.1945 0.91198 0.0
H596 H 0.02373 0.14365 0.91587 0.0
H597 H 1.00008 0.1284 0.9067 0.0
H598 H 0.99008 0.13874 0.91512 0.0
H599 H 0.01364 0.15395 0.92441 0.0
C600 C 1.00943 0.36598 0.91645 0.0
C601 C 0.01119 0.37468 0.9201 0.0
C602 C 1.0007 0.38164 0.90912 0.0
C603 C 1.00685 0.38243 0.91649 0.0
C604 C 0.99905 0.3729 0.90545 0.0
C605 C 1.00336 0.36516 0.90909 0.0
U606 U 0.02769 0.35427 0.93115 0.0
O607 O 0.02654 0.34251 0.94044 0.0
O608 O 0.03572 0.34174 0.92863 0.0
C609 C 0.03206 0.33737 0.93555 0.0
C610 C 0.01379 0.3577 0.92026 0.0
C611 C 0.02901 0.32788 0.93382 0.0
C612 C 0.01728 0.31666 0.92993 0.0
C613 C 0.02001 0.3258 0.93112 0.0
C614 C 0.03255 0.31162 0.93399 0.0
C615 C 0.02352 0.30944 0.93138 0.0
C616 C 0.03525 0.32072 0.9352 0.0
C617 C 0.04511 0.37028 0.94348 0.0
C618 C 0.05997 0.3666 0.95013 0.0
C619 C 0.05327 0.38154 0.95259 0.0
C620 C 0.04563 0.37899 0.94743 0.0
C621 C 0.0606 0.37544 0.95393 0.0
C622 C 0.05229 0.36405 0.94493 0.0
C623 C 0.0372 0.36816 0.93757 0.0
O624 O 0.02209 0.35592 0.9173 0.0
O625 O 0.01293 0.35657 0.9291 0.0
O626 O 0.02985 0.36489 0.9416 0.0
O627 O 0.039 0.36413 0.92977 0.0
H628 H 0.0159 0.37546 0.92576 0.0
H629 H 1.00838 0.38905 0.91942 0.0
H630 H 0.99429 0.372 0.89986 0.0
H631 H 1.00191 0.3585 0.90618 0.0
H632 H 1.01031 0.31526 0.92781 0.0
H633 H 0.01508 0.33122 0.93 0.0
H634 H 0.03751 0.30628 0.93531 0.0
H635 H 0.04221 0.32217 0.93732 0.0
H636 H 0.06551 0.36175 0.95098 0.0
H637 H 0.05342 0.38832 0.95554 0.0
H638 H 0.04015 0.38389 0.94641 0.0
H639 H 0.05203 0.35729 0.94194 0.0
C640 C 0.57654 0.97035 0.85495 0.0
C641 C 0.57817 0.96919 0.8643 0.0
C642 C 0.56744 0.95634 0.86476 0.0
C643 C 0.57367 0.96225 0.86916 0.0
C644 C 0.56584 0.95759 0.85538 0.0
C645 C 0.57035 0.96451 0.85054 0.0
U646 U 0.59131 0.99202 0.85339 0.0
O647 O 0.60216 0.99568 0.84357 0.0
O648 O 0.58975 1.00407 0.84454 0.0
C649 C 0.59746 1.00254 0.84017 0.0
C650 C 0.58117 0.9776 0.84969 0.0
C651 C 0.59702 1.00307 0.83012 0.0
C652 C 0.59034 0.99872 0.81554 0.0
C653 C 0.59071 0.99789 0.82506 0.0
C654 C 0.60263 1.00984 0.81605 0.0
C655 C 0.5963 1.00472 0.8109 0.0
C656 C 0.60297 1.00902 0.82554 0.0
C657 C 0.59994 1.00239 0.87636 0.0
C658 C 0.61267 0.01273 0.87952 0.0
C659 C 0.60145 1.00952 0.89124 0.0
C660 C 0.59672 1.00381 0.88524 0.0
C661 C 0.60956 0.01397 0.88853 0.0
C662 C 0.6079 1.00697 0.87349 0.0
C663 C 0.59506 0.99574 0.87053 0.0
O664 O 0.57779 0.98587 0.85066 0.0
O665 O 0.59019 0.97744 0.84981 0.0
O666 O 0.60012 0.99034 0.86544 0.0
O667 O 0.58766 0.99869 0.86636 0.0
H668 H 0.58294 0.97363 0.86783 0.0
H669 H 0.57516 0.96145 0.87634 0.0
H670 H 0.56099 0.9533 0.85177 0.0
H671 H 0.56896 0.96532 0.84333 0.0
H672 H 0.58545 0.99459 0.8118 0.0
H673 H 0.58606 0.99323 0.82847 0.0
H674 H 0.60723 0.01463 0.81276 0.0
H675 H 0.60787 0.0131 0.82932 0.0
H676 H 0.6189 0.01601 0.8772 0.0
H677 H 0.59875 1.01045 0.89805 0.0
H678 H 0.59058 1.00036 0.88759 0.0
H679 H 0.61052 1.00598 0.86666 0.0
C680 C 0.4164 0.50994 0.86593 0.0
C681 C 0.41861 0.51301 0.87472 0.0
C682 C 0.40846 0.50151 0.88141 0.0
C683 C 0.41468 0.50882 0.88239 0.0
C684 C 0.40629 0.4985 0.87256 0.0
C685 C 0.41022 0.50268 0.86491 0.0
U686 U 0.43133 0.52806 0.85408 0.0
O687 O 0.4412 0.52647 0.8428 0.0
O688 O 0.42916 0.53529 0.8411 0.0
C689 C 0.43634 0.53153 0.8372 0.0
C690 C 0.42051 0.51413 0.85775 0.0
C691 C 0.43513 0.52792 0.82783 0.0
C692 C 0.42562 0.52229 0.81536 0.0
C693 C 0.42655 0.52512 0.82446 0.0
C694 C 0.44182 0.52487 0.81294 0.0
C695 C 0.43324 0.52217 0.80946 0.0
C696 C 0.44274 0.52772 0.822 0.0
C697 C 0.44327 0.54636 0.86937 0.0
C698 C 0.44729 0.56244 0.86744 0.0
C699 C 0.45504 0.55335 0.87886 0.0
C700 C 0.44985 0.54573 0.87631 0.0
C701 C 0.45374 0.56186 0.87457 0.0
C702 C 0.4421 0.55478 0.86486 0.0
C703 C 0.43732 0.53835 0.86753 0.0
O704 O 0.41745 0.52229 0.85555 0.0
O705 O 0.42946 0.51343 0.85704 0.0
O706 O 0.44145 0.53082 0.8649 0.0
O707 O 0.42953 0.53982 0.86325 0.0
H708 H 0.42336 0.51863 0.87564 0.0
H709 H 0.41645 0.51139 0.88908 0.0
H710 H 0.40166 0.49281 0.87152 0.0
H711 H 0.40846 0.50018 0.85819 0.0
H712 H 0.41893 0.52015 0.81296 0.0
H713 H 0.42056 0.52518 0.82881 0.0
H714 H 0.44782 0.52501 0.8086 0.0
H715 H 0.44941 0.52991 0.82441 0.0
H716 H 0.44605 0.56888 0.86402 0.0
H717 H 0.46004 0.55258 0.88426 0.0
H718 H 0.45087 0.53933 0.87989 0.0
H719 H 0.43706 0.5555 0.8595 0.0
C720 C 0.57689 0.052 0.66804 0.0
C721 C 0.5749 0.05076 0.65877 0.0
C722 C 0.5678 0.06588 0.65806 0.0
C723 C 0.57037 0.05762 0.65383 0.0
C724 C 0.56993 0.0671 0.66733 0.0
C725 C 0.57442 0.06023 0.67226 0.0
U726 U 0.59128 0.03009 0.67027 0.0
O727 O 0.60209 0.02662 0.68021 0.0
O728 O 0.58954 0.01837 0.67952 0.0
C729 C 0.5973 0.01993 0.68382 0.0
C730 C 0.58141 0.04479 0.67348 0.0
C731 C 0.59695 0.01962 0.69388 0.0
C732 C 0.58983 0.02344 0.7084 0.0
C733 C 0.59013 0.02419 0.69887 0.0
C734 C 0.6032 0.01365 0.70806 0.0
C735 C 0.59635 0.01813 0.71313 0.0
C736 C 0.60349 0.01439 0.69856 0.0
C737 C 0.59998 0.01865 0.6479 0.0
C738 C 0.61372 1.00996 0.64412 0.0
C739 C 0.60045 1.00919 0.63426 0.0
C740 C 0.59574 0.01515 0.64006 0.0
C741 C 0.60955 1.0066 0.63613 0.0
C742 C 0.60899 0.01591 0.64995 0.0
C743 C 0.59508 0.02565 0.65332 0.0
O744 O 0.5779 0.03654 0.67278 0.0
O745 O 0.59042 0.04482 0.67335 0.0
O746 O 0.6001 0.0313 0.65819 0.0
O747 O 0.58758 0.02299 0.65752 0.0
H748 H 0.5768 0.04447 0.65536 0.0
H749 H 0.56895 0.05648 0.64668 0.0
H750 H 0.56796 0.0733 0.67085 0.0
H751 H 0.57588 0.06132 0.67941 0.0
H752 H 0.58452 0.02706 0.71207 0.0
H753 H 0.58503 0.02828 0.69539 0.0
H754 H 0.60826 1.0094 0.71141 0.0
H755 H 0.60878 1.01078 0.69485 0.0
H756 H 0.62068 1.00802 0.64584 0.0
H757 H 0.59704 1.00687 0.62813 0.0
H758 H 0.58883 0.01722 0.63829 0.0
H759 H 0.61244 0.01849 0.65596 0.0
C760 C 0.41611 0.51246 0.65792 0.0
C761 C 0.42009 0.51144 0.64928 0.0
C762 C 0.4084 0.52136 0.64256 0.0
C763 C 0.4163 0.51586 0.64168 0.0
C764 C 0.4044 0.52224 0.65125 0.0
C765 C 0.40822 0.51785 0.65883 0.0
U766 U 0.43047 0.49367 0.66927 0.0
O767 O 0.44022 0.49443 0.6807 0.0
O768 O 0.42793 0.48587 0.68188 0.0
C769 C 0.43524 0.48915 0.68598 0.0
C770 C 0.42006 0.508 0.66606 0.0
C771 C 0.43402 0.49221 0.6955 0.0
C772 C 0.43001 0.50371 0.70683 0.0
C773 C 0.43073 0.50097 0.69768 0.0
C774 C 0.43573 0.48895 0.71166 0.0
C775 C 0.43259 0.49775 0.71395 0.0
C776 C 0.43643 0.48623 0.70255 0.0
C777 C 0.44146 0.47556 0.65321 0.0
C778 C 0.45299 0.46413 0.657 0.0
C779 C 0.44583 0.46403 0.64212 0.0
C780 C 0.44054 0.4716 0.64457 0.0
C781 C 0.45219 0.46022 0.64825 0.0
C782 C 0.44768 0.47175 0.65945 0.0
C783 C 0.43598 0.48377 0.65535 0.0
O784 O 0.41675 0.49988 0.66805 0.0
O785 O 0.42903 0.50845 0.66689 0.0
O786 O 0.44049 0.49091 0.65842 0.0
O787 O 0.42817 0.48238 0.65959 0.0
H788 H 0.42617 0.50728 0.64841 0.0
H789 H 0.41964 0.51508 0.63514 0.0
H790 H 0.39824 0.52625 0.65219 0.0
H791 H 0.40501 0.51868 0.66543 0.0
H792 H 0.42762 0.51056 0.70832 0.0
H793 H 0.42882 0.5057 0.69233 0.0
H794 H 0.43761 0.48411 0.71691 0.0
H795 H 0.43895 0.47943 0.70102 0.0
H796 H 0.45785 0.46143 0.66187 0.0
H797 H 0.44488 0.46112 0.6354 0.0
H798 H 0.43575 0.47442 0.63968 0.0
H799 H 0.44848 0.47472 0.66617 0.0
C800 C 0.85488 0.57666 0.97129 0.0
C801 C 0.86409 0.57879 0.96946 0.0
C802 C 0.86432 0.56771 0.95699 0.0
C803 C 0.86877 0.57435 0.96238 0.0
C804 C 0.85511 0.56557 0.95895 0.0
C805 C 0.85046 0.57001 0.96601 0.0
U806 U 0.85342 0.59212 0.99244 0.0
O807 O 0.84317 0.60257 0.99597 0.0
O808 O 0.84492 0.59058 1.00478 0.0
C809 C 0.84013 0.59799 1.00306 0.0
C810 C 0.84973 0.5813 0.9786 0.0
C811 C 0.83006 0.59713 1.00391 0.0
C812 C 0.81492 0.59437 0.99743 0.0
C813 C 0.82449 0.59479 0.99646 0.0
C814 C 0.8164 0.59848 0.01333 0.0
C815 C 0.81073 0.59628 1.00588 0.0
C816 C 0.82594 0.59891 0.01234 0.0
C817 C 0.87628 0.60239 1.00173 0.0
C818 C 0.88011 0.60818 0.01682 0.0
C819 C 0.89046 0.6108 1.0042 0.0
C820 C 0.88445 0.60617 0.99839 0.0
C821 C 0.88845 0.61176 0.01353 0.0
C822 C 0.87408 0.60352 1.01098 0.0
C823 C 0.87055 0.5969 0.99547 0.0
O824 O 0.85121 0.57829 0.9869 0.0
O825 O 0.8494 0.59027 0.97811 0.0
O826 O 0.86506 0.60145 0.99001 0.0
O827 O 0.86681 0.58944 0.99881 0.0
H828 H 0.86763 0.58391 0.97347 0.0
H829 H 0.87582 0.57624 0.96102 0.0
H830 H 0.85151 0.56039 0.95509 0.0
H831 H 0.84337 0.56823 0.96735 0.0
H832 H 0.81079 0.59272 0.99152 0.0
H833 H 0.82753 0.59338 0.98987 0.0
H834 H 0.81348 0.59982 0.01997 0.0
H835 H 0.83011 0.60069 0.01819 0.0
H836 H 0.87836 0.60876 0.02397 0.0
H837 H 0.89671 0.61362 1.00138 0.0
H838 H 0.88627 0.6054 0.99128 0.0
H839 H 0.86781 0.60065 0.01371 0.0
C840 C 0.85478 0.44464 0.55245 0.0
C841 C 0.86441 0.44459 0.55252 0.0
C842 C 0.86453 0.45331 0.56673 0.0
C843 C 0.86924 0.4489 0.55959 0.0
C844 C 0.85487 0.45332 0.56657 0.0
C845 C 0.85007 0.44903 0.55951 0.0
U846 U 0.85309 0.43032 0.53054 0.0
O847 O 0.84315 0.41956 0.52685 0.0
O848 O 0.84403 0.43209 0.51868 0.0
C849 C 0.83965 0.42437 0.52013 0.0
C850 C 0.84952 0.44016 0.54511 0.0
C851 C 0.82953 0.42476 0.51968 0.0
C852 C 0.81489 0.43191 0.52334 0.0
C853 C 0.82448 0.43157 0.52419 0.0
C854 C 0.81529 0.41859 0.51358 0.0
C855 C 0.81017 0.42543 0.518 0.0
C856 C 0.82485 0.41827 0.51441 0.0
C857 C 0.8759 0.42168 0.51965 0.0
C858 C 0.87982 0.40812 0.51082 0.0
C859 C 0.88999 0.42119 0.51079 0.0
C860 C 0.88399 0.42585 0.51658 0.0
C861 C 0.88808 0.4122 0.50795 0.0
C862 C 0.87379 0.41281 0.51663 0.0
C863 C 0.87025 0.42653 0.5265 0.0
O864 O 0.85049 0.44368 0.53693 0.0
O865 O 0.84964 0.43118 0.54512 0.0
O866 O 0.86522 0.42149 0.53198 0.0
O867 O 0.86609 0.43401 0.52377 0.0
H868 H 0.86817 0.44121 0.54713 0.0
H869 H 0.87666 0.44867 0.55953 0.0
H870 H 0.85101 0.45675 0.57185 0.0
H871 H 0.84264 0.44917 0.55956 0.0
H872 H 0.81118 0.43721 0.52693 0.0
H873 H 0.82796 0.43664 0.52832 0.0
H874 H 0.81194 0.41356 0.5093 0.0
H875 H 0.82861 0.41298 0.51084 0.0
H876 H 0.87814 0.40119 0.50883 0.0
H877 H 0.89619 0.42463 0.50859 0.0
H878 H 0.88577 0.43269 0.51881 0.0
H879 H 0.86759 0.40941 0.5189 0.0
C880 C 0.16726 0.07636 0.55283 0.0
C881 C 0.15768 0.07553 0.55238 0.0
C882 C 0.15754 0.06723 0.56684 0.0
C883 C 0.15287 0.07101 0.55933 0.0
C884 C 0.16714 0.06821 0.56727 0.0
C885 C 0.17194 0.07272 0.56034 0.0
U886 U 0.16895 0.09131 0.53135 0.0
O887 O 0.17919 0.10172 0.52765 0.0
O888 O 0.17756 0.08951 0.51913 0.0
C889 C 0.18235 0.09696 0.52074 0.0
C890 C 0.17253 0.08087 0.54551 0.0
C891 C 0.19244 0.09607 0.52003 0.0
C892 C 0.20767 0.09512 0.52682 0.0
C893 C 0.1981 0.09556 0.52776 0.0
C894 C 0.20604 0.0955 0.51042 0.0
C895 C 0.21178 0.09512 0.51813 0.0
C896 C 0.1965 0.09598 0.51137 0.0
C897 C 0.14608 0.10111 0.52167 0.0
C898 C 0.14382 0.10953 0.50753 0.0
C899 C 0.13105 0.10716 0.5178 0.0
C900 C 0.1368 0.10238 0.52375 0.0
C901 C 0.13446 0.11081 0.5096 0.0
C902 C 0.14959 0.10472 0.51352 0.0
C903 C 0.15179 0.09585 0.52809 0.0
O904 O 0.17122 0.07766 0.53725 0.0
O905 O 0.17279 0.08985 0.5458 0.0
O906 O 0.15724 0.10059 0.53342 0.0
O907 O 0.15564 0.08837 0.52491 0.0
H908 H 0.15394 0.07831 0.54664 0.0
H909 H 0.1455 0.07032 0.55871 0.0
H910 H 0.17097 0.06556 0.57301 0.0
H911 H 0.17933 0.07333 0.56083 0.0
H912 H 0.21186 0.09472 0.5329 0.0
H913 H 0.19514 0.09557 0.53452 0.0
H914 H 0.20894 0.09563 0.50363 0.0
H915 H 0.19228 0.0964 0.50531 0.0
H916 H 0.1467 0.1123 0.50132 0.0
H917 H 0.12388 0.10784 0.51956 0.0
H918 H 0.13395 0.0996 0.52998 0.0
H919 H 0.15675 0.10381 0.5118 0.0
C920 C 0.66729 0.44581 0.46997 0.0
C921 C 0.65842 0.44289 0.46763 0.0
C922 C 0.6574 0.45477 0.45594 0.0
C923 C 0.65354 0.44731 0.46067 0.0
C924 C 0.66627 0.45769 0.45841 0.0
C925 C 0.67115 0.45325 0.46533 0.0
U926 U 0.66898 0.43133 0.49173 0.0
O927 O 0.67879 0.42049 0.49545 0.0
O928 O 0.67799 0.433 0.50365 0.0
C929 C 0.6823 0.42524 0.50221 0.0
C930 C 0.67262 0.44123 0.47721 0.0
C931 C 0.69241 0.42557 0.50269 0.0
C932 C 0.70716 0.43204 0.49828 0.0
C933 C 0.69756 0.43177 0.49748 0.0
C934 C 0.70654 0.41987 0.50945 0.0
C935 C 0.71178 0.42609 0.50429 0.0
C936 C 0.69698 0.41962 0.50865 0.0
C937 C 0.64594 0.42314 0.50245 0.0
C938 C 0.64342 0.41158 0.51414 0.0
C939 C 0.63093 0.42141 0.50944 0.0
C940 C 0.63675 0.42579 0.50327 0.0
C941 C 0.63416 0.41424 0.51497 0.0
C942 C 0.64927 0.41601 0.50795 0.0
C943 C 0.65171 0.42782 0.49563 0.0
O944 O 0.67179 0.44472 0.48541 0.0
O945 O 0.67247 0.43224 0.47718 0.0
O946 O 0.65674 0.42262 0.49031 0.0
O947 O 0.65601 0.43522 0.4984 0.0
H948 H 0.65529 0.43718 0.47115 0.0
H949 H 0.64678 0.44479 0.45892 0.0
H950 H 0.66942 0.46349 0.45507 0.0
H951 H 0.67796 0.45565 0.46708 0.0
H952 H 0.71096 0.43684 0.49413 0.0
H953 H 0.69417 0.4364 0.49281 0.0
H954 H 0.70981 0.41528 0.51424 0.0
H955 H 0.69313 0.41481 0.51276 0.0
H956 H 0.64617 0.40615 0.51834 0.0
H957 H 0.62383 0.42355 0.50976 0.0
H958 H 0.63403 0.43124 0.49905 0.0
H959 H 0.65636 0.41386 0.50743 0.0
C960 C 0.51073 0.65692 0.91611 0.0
C961 C 0.5127 0.64819 0.91959 0.0
C962 C 0.50216 0.64122 0.90866 0.0
C963 C 0.50844 0.64042 0.91592 0.0
C964 C 0.50031 0.64999 0.90516 0.0
C965 C 0.50454 0.65775 0.90885 0.0
U966 U 0.52872 0.66867 0.9311 0.0
O967 O 0.53655 0.68137 0.92891 0.0
O968 O 0.52728 0.68024 0.94061 0.0
C969 C 0.53284 0.68553 0.93593 0.0
C970 C 0.51497 0.66521 0.92003 0.0
C971 C 0.52979 0.69504 0.93447 0.0
C972 C 0.52039 0.70651 0.92685 0.0
C973 C 0.52297 0.69733 0.9281 0.0
C974 C 0.53135 0.71114 0.93834 0.0
C975 C 0.5246 0.71355 0.93192 0.0
C976 C 0.5339 0.70201 0.93959 0.0
C977 C 0.54616 0.65291 0.94364 0.0
C978 C 0.56146 0.65609 0.94953 0.0
C979 C 0.55338 0.64245 0.95434 0.0
C980 C 0.54593 0.6449 0.94887 0.0
C981 C 0.56129 0.64797 0.95472 0.0
C982 C 0.55396 0.65855 0.94406 0.0
C983 C 0.53834 0.65488 0.93752 0.0
O984 O 0.514 0.66623 0.92887 0.0
O985 O 0.52329 0.66712 0.91717 0.0
O986 O 0.5402 0.65901 0.92978 0.0
O987 O 0.53082 0.6579 0.94141 0.0
H988 H 0.5175 0.6474 0.92517 0.0
H989 H 0.51013 0.63378 0.91871 0.0
H990 H 0.49544 0.6509 0.89966 0.0
H991 H 0.50292 0.66442 0.90608 0.0
H992 H 0.51521 0.7081 0.9218 0.0
H993 H 0.51971 0.69204 0.92408 0.0
H994 H 0.53462 0.71631 0.9425 0.0
H995 H 0.53914 0.70039 0.94457 0.0
H996 H 0.56739 0.66055 0.94973 0.0
H997 H 0.55303 0.63609 0.9581 0.0
H998 H 0.54002 0.64042 0.9486 0.0
H999 H 0.5543 0.66479 0.94009 0.0
C1000 C 0.47089 0.85439 0.94584 0.0
C1001 C 0.47135 0.86394 0.94661 0.0
C1002 C 0.45693 0.86412 0.95509 0.0
C1003 C 0.46444 0.86876 0.95119 0.0
C1004 C 0.45649 0.85454 0.95419 0.0
C1005 C 0.4634 0.84974 0.94962 0.0
U1006 U 0.49245 0.85297 0.93094 0.0
O1007 O 0.50472 0.84433 0.93244 0.0
O1008 O 0.49611 0.84305 0.92026 0.0
C1009 C 0.50314 0.83982 0.92486 0.0
C1010 C 0.47818 0.84914 0.94122 0.0
C1011 C 0.50388 0.82977 0.92543 0.0
C1012 C 0.4984 0.81492 0.93066 0.0
C1013 C 0.49742 0.82447 0.93017 0.0
C1014 C 0.51226 0.8159 0.92165 0.0
C1015 C 0.50587 0.81051 0.92644 0.0
C1016 C 0.51127 0.82541 0.92117 0.0
C1017 C 0.50228 0.87611 0.922 0.0
C1018 C 0.51572 0.87846 0.91245 0.0
C1019 C 0.50696 0.89148 0.91773 0.0
C1020 C 0.50096 0.88559 0.92228 0.0
C1021 C 0.51445 0.88802 0.91278 0.0
C1022 C 0.50969 0.87255 0.91704 0.0
C1023 C 0.49578 0.87022 0.92699 0.0
O1024 O 0.47788 0.84916 0.93227 0.0
O1025 O 0.48651 0.85026 0.94445 0.0
O1026 O 0.49894 0.86614 0.93432 0.0
O1027 O 0.49044 0.86494 0.92205 0.0
H1028 H 0.47709 0.86766 0.94373 0.0
H1029 H 0.46507 0.87611 0.95182 0.0
H1030 H 0.45076 0.85073 0.95695 0.0
H1031 H 0.4629 0.84237 0.94906 0.0
H1032 H 0.49339 0.81102 0.93447 0.0
H1033 H 0.49166 0.82771 0.93353 0.0
H1034 H 0.51801 0.81277 0.91819 0.0
H1035 H 0.51631 0.82937 0.91744 0.0
H1036 H 0.52145 0.87556 0.90875 0.0
H1037 H 0.50564 0.89876 0.91801 0.0
H1038 H 0.49526 0.88846 0.92604 0.0
H1039 H 0.51081 0.86523 0.91675 0.0
C1040 C 0.51059 0.36618 0.60694 0.0
C1041 C 0.51387 0.37495 0.60483 0.0
C1042 C 0.50213 0.38186 0.61451 0.0
C1043 C 0.50967 0.38272 0.60857 0.0
C1044 C 0.49892 0.37302 0.61661 0.0
C1045 C 0.50311 0.36528 0.61286 0.0
U1046 U 0.52927 0.35446 0.59283 0.0
O1047 O 0.53664 0.34155 0.59521 0.0
O1048 O 0.52825 0.34318 0.5829 0.0
C1049 C 0.53328 0.33763 0.58786 0.0
C1050 C 0.51484 0.35792 0.60301 0.0
C1051 C 0.52988 0.32816 0.58888 0.0
C1052 C 0.52225 0.31609 0.59748 0.0
C1053 C 0.52486 0.32529 0.59653 0.0
C1054 C 0.52949 0.31258 0.58307 0.0
C1055 C 0.52464 0.30958 0.5908 0.0
C1056 C 0.53207 0.32174 0.58213 0.0
C1057 C 0.54803 0.37022 0.5823 0.0
C1058 C 0.55818 0.3676 0.56939 0.0
C1059 C 0.56082 0.38049 0.57939 0.0
C1060 C 0.55327 0.3779 0.58465 0.0
C1061 C 0.56331 0.37547 0.5716 0.0
C1062 C 0.5506 0.365 0.57469 0.0
C1063 C 0.53969 0.36821 0.58766 0.0
O1064 O 0.5145 0.35728 0.59409 0.0
O1065 O 0.52288 0.35566 0.60637 0.0
O1066 O 0.54088 0.3638 0.59537 0.0
O1067 O 0.53244 0.36544 0.58309 0.0
H1068 H 0.51967 0.37579 0.6003 0.0
H1069 H 0.5124 0.3894 0.60689 0.0
H1070 H 0.49306 0.37208 0.62104 0.0
H1071 H 0.50046 0.35856 0.61455 0.0
H1072 H 0.51857 0.31403 0.60355 0.0
H1073 H 0.52308 0.33013 0.60183 0.0
H1074 H 0.5313 0.30783 0.5777 0.0
H1075 H 0.53591 0.32381 0.57616 0.0
H1076 H 0.55986 0.36359 0.56342 0.0
H1077 H 0.5647 0.38647 0.58141 0.0
H1078 H 0.55143 0.382 0.59052 0.0
H1079 H 0.54665 0.35904 0.57274 0.0
C1080 C 0.47153 0.16834 0.5769 0.0
C1081 C 0.47155 0.15874 0.57668 0.0
C1082 C 0.45748 0.15874 0.56762 0.0
C1083 C 0.46459 0.15398 0.57208 0.0
C1084 C 0.45748 0.16837 0.56798 0.0
C1085 C 0.46444 0.1731 0.57256 0.0
U1086 U 0.49278 0.16989 0.59235 0.0
O1087 O 0.50521 0.17836 0.59086 0.0
O1088 O 0.49628 0.18017 0.60273 0.0
C1089 C 0.50345 0.18317 0.5982 0.0
C1090 C 0.47885 0.17352 0.58154 0.0
C1091 C 0.50431 0.1932 0.59728 0.0
C1092 C 0.49799 0.20821 0.59373 0.0
C1093 C 0.49697 0.19868 0.59435 0.0
C1094 C 0.5137 0.20687 0.59888 0.0
C1095 C 0.50639 0.21244 0.59598 0.0
C1096 C 0.51267 0.19738 0.59952 0.0
C1097 C 0.5021 0.14711 0.60268 0.0
C1098 C 0.51739 0.14271 0.60779 0.0
C1099 C 0.50428 0.13334 0.61174 0.0
C1100 C 0.49852 0.13941 0.60711 0.0
C1101 C 0.51382 0.13481 0.61202 0.0
C1102 C 0.51158 0.14879 0.60315 0.0
C1103 C 0.49582 0.15282 0.59718 0.0
O1104 O 0.47833 0.17385 0.59047 0.0
O1105 O 0.48723 0.17208 0.57858 0.0
O1106 O 0.49919 0.15653 0.58974 0.0
O1107 O 0.49031 0.15831 0.60167 0.0
H1108 H 0.47698 0.15494 0.58 0.0
H1109 H 0.46487 0.14659 0.57189 0.0
H1110 H 0.45206 0.17227 0.56478 0.0
H1111 H 0.46428 0.1805 0.5727 0.0
H1112 H 0.49224 0.21226 0.59138 0.0
H1113 H 0.49046 0.19559 0.59255 0.0
H1114 H 0.52021 0.20986 0.60081 0.0
H1115 H 0.51841 0.19329 0.60183 0.0
H1116 H 0.52469 0.14404 0.60784 0.0
H1117 H 0.50126 0.12746 0.61506 0.0
H1118 H 0.49123 0.13798 0.60686 0.0
H1119 H 0.51452 0.15469 0.59977 0.0
C1120 C 0.91559 0.50914 0.65738 0.0
C1121 C 0.91561 0.51346 0.64884 0.0
C1122 C 0.90803 0.50024 0.64196 0.0
C1123 C 0.91187 0.50906 0.64121 0.0
C1124 C 0.90814 0.49593 0.65054 0.0
C1125 C 0.91186 0.50034 0.65816 0.0
U1126 U 0.92924 0.52831 0.66902 0.0
O1127 O 0.92616 0.53603 0.68156 0.0
O1128 O 0.93867 0.52775 0.68071 0.0
C1129 C 0.93336 0.53282 0.68589 0.0
C1130 C 0.91929 0.51371 0.66556 0.0
C1131 C 0.93182 0.52961 0.69533 0.0
C1132 C 0.93013 0.51749 0.70662 0.0
C1133 C 0.93109 0.52028 0.69751 0.0
C1134 C 0.93042 0.53331 0.71143 0.0
C1135 C 0.92983 0.52398 0.71372 0.0
C1136 C 0.93141 0.53608 0.70236 0.0
C1137 C 0.94022 0.54676 0.65327 0.0
C1138 C 0.95246 0.55761 0.6566 0.0
C1139 C 0.94374 0.55902 0.64264 0.0
C1140 C 0.9385 0.55141 0.6451 0.0
C1141 C 0.95087 0.56217 0.64829 0.0
C1142 C 0.94718 0.54996 0.65907 0.0
C1143 C 0.93489 0.53841 0.65527 0.0
O1144 O 0.92825 0.51348 0.6665 0.0
O1145 O 0.91575 0.52174 0.66748 0.0
O1146 O 0.92692 0.53958 0.65929 0.0
O1147 O 0.93948 0.53136 0.65844 0.0
H1148 H 0.91846 0.52027 0.6481 0.0
H1149 H 0.91184 0.51264 0.63475 0.0
H1150 H 0.9054 0.4891 0.65138 0.0
H1151 H 0.91182 0.49687 0.66468 0.0
H1152 H 0.92958 0.51026 0.70809 0.0
H1153 H 0.93135 0.51515 0.6922 0.0
H1154 H 0.93036 0.53851 0.71669 0.0
H1155 H 0.932 0.5433 0.70084 0.0
H1156 H 0.95792 0.5598 0.6611 0.0
H1157 H 0.94219 0.56245 0.63628 0.0
H1158 H 0.93314 0.54908 0.64055 0.0
H1159 H 0.94863 0.54646 0.66541 0.0
C1160 C 0.07524 0.97122 0.66805 0.0
C1161 C 0.07477 0.97155 0.65851 0.0
C1162 C 0.06594 0.95733 0.65829 0.0
C1163 C 0.07016 0.96466 0.65367 0.0
C1164 C 0.06658 0.95701 0.66786 0.0
C1165 C 0.07116 0.96389 0.67267 0.0
U1166 U 0.09053 0.9926 0.67018 0.0
O1167 O 0.08872 1.00477 0.67888 0.0
O1168 O 0.10081 0.99601 0.68061 0.0
C1169 C 0.09606 1.00297 0.68377 0.0
C1170 C 0.07979 0.9785 0.67336 0.0
C1171 C 0.09498 1.00354 0.69378 0.0
C1172 C 0.09406 0.9965 0.70881 0.0
C1173 C 0.09462 0.99569 0.69931 0.0
C1174 C 0.094 0.01299 0.70741 0.0
C1175 C 0.09378 1.00517 0.713 0.0
C1176 C 0.0946 0.01217 0.69792 0.0
C1177 C 0.10125 1.00261 0.64795 0.0
C1178 C 0.10555 0.01805 0.64335 0.0
C1179 C 0.11164 1.00503 0.6352 0.0
C1180 C 0.10681 0.99914 0.64098 0.0
C1181 C 0.11101 0.01457 0.63624 0.0
C1182 C 0.10073 0.01213 0.64916 0.0
C1183 C 0.09564 0.99613 0.65334 0.0
O1184 O 0.08878 0.97807 0.67377 0.0
O1185 O 0.07672 0.98684 0.67203 0.0
O1186 O 0.08803 0.99928 0.65698 0.0
O1187 O 0.10011 0.99051 0.65874 0.0
H1188 H 0.07788 0.97716 0.65482 0.0
H1189 H 0.06975 0.96518 0.64632 0.0
H1190 H 0.06357 0.95141 0.67165 0.0
H1191 H 0.07149 0.96349 0.68003 0.0
H1192 H 0.09379 0.99033 0.71289 0.0
H1193 H 0.09485 0.98894 0.69628 0.0
H1194 H 0.09391 0.01977 0.71037 0.0
H1195 H 0.09491 0.01832 0.69381 0.0
H1196 H 0.10499 0.02536 0.64443 0.0
H1197 H 0.11565 1.00208 0.62973 0.0
H1198 H 0.10727 0.99183 0.63985 0.0
H1199 H 0.09649 0.01501 0.6545 0.0
C1200 C 0.91548 0.51294 0.8658 0.0
C1201 C 0.91775 0.5099 0.87459 0.0
C1202 C 0.90765 0.5214 0.88131 0.0
C1203 C 0.91388 0.51409 0.88227 0.0
C1204 C 0.90542 0.52438 0.87246 0.0
C1205 C 0.90929 0.5202 0.8648 0.0
U1206 U 0.93026 0.4947 0.85405 0.0
O1207 O 0.92802 0.48733 0.84117 0.0
O1208 O 0.94012 0.49613 0.84275 0.0
C1209 C 0.93524 0.491 0.83722 0.0
C1210 C 0.91953 0.50871 0.85761 0.0
C1211 C 0.93406 0.49443 0.82779 0.0
C1212 C 0.92463 0.5002 0.81532 0.0
C1213 C 0.92559 0.49762 0.82449 0.0
C1214 C 0.94061 0.49663 0.8127 0.0
C1215 C 0.93211 0.49962 0.80926 0.0
C1216 C 0.94155 0.49406 0.82183 0.0
C1217 C 0.94205 0.47646 0.86949 0.0
C1218 C 0.94617 0.46044 0.86735 0.0
C1219 C 0.9535 0.46928 0.87923 0.0
C1220 C 0.94839 0.47696 0.87666 0.0
C1221 C 0.95236 0.46087 0.87471 0.0
C1222 C 0.94105 0.46815 0.86477 0.0
C1223 C 0.93618 0.48451 0.86761 0.0
O1224 O 0.92849 0.50937 0.85688 0.0
O1225 O 0.91641 0.50056 0.85547 0.0
O1226 O 0.92837 0.48305 0.86336 0.0
O1227 O 0.94038 0.49198 0.86489 0.0
H1228 H 0.92251 0.50428 0.8755 0.0
H1229 H 0.91569 0.51154 0.88896 0.0
H1230 H 0.90077 0.53006 0.87144 0.0
H1231 H 0.90748 0.52267 0.85808 0.0
H1232 H 0.91797 0.50241 0.81293 0.0
H1233 H 0.91968 0.49798 0.82895 0.0
H1234 H 0.94657 0.49626 0.80832 0.0
H1235 H 0.94816 0.49164 0.82422 0.0
H1236 H 0.94505 0.45407 0.86376 0.0
H1237 H 0.95832 0.46994 0.8848 0.0
H1238 H 0.94928 0.48328 0.88041 0.0
H1239 H 0.9362 0.46755 0.85922 0.0
C1240 C 0.07496 0.05125 0.85528 0.0
C1241 C 0.07458 0.05106 0.86483 0.0
C1242 C 0.06563 0.06519 0.86493 0.0
C1243 C 0.06996 0.05797 0.86961 0.0
C1244 C 0.06615 0.06537 0.85535 0.0
C1245 C 0.07075 0.05847 0.85059 0.0
U1246 U 0.09038 0.03 0.85357 0.0
O1247 O 0.0888 0.01771 0.845 0.0
O1248 O 0.10085 0.02654 0.84335 0.0
C1249 C 0.09622 0.01949 0.84023 0.0
C1250 C 0.07959 0.04398 0.85005 0.0
C1251 C 0.09531 0.01877 0.83022 0.0
C1252 C 0.09365 0.02559 0.81515 0.0
C1253 C 0.09407 0.0265 0.82466 0.0
C1254 C 0.09553 1.00922 0.81664 0.0
C1255 C 0.09446 0.01694 0.81099 0.0
C1256 C 0.09597 1.01014 0.82612 0.0
C1257 C 0.10069 0.02052 0.87623 0.0
C1258 C 0.10655 1.00538 0.88001 0.0
C1259 C 0.10915 0.01805 0.8903 0.0
C1260 C 0.10448 0.02387 0.88435 0.0
C1261 C 0.11015 1.0087 0.88829 0.0
C1262 C 0.10184 1.01124 0.87404 0.0
C1263 C 0.09519 0.02682 0.87056 0.0
O1264 O 0.08858 0.04447 0.84974 0.0
O1265 O 0.07656 0.03563 0.85141 0.0
O1266 O 0.08771 0.02348 0.86681 0.0
O1267 O 0.09975 0.03234 0.86514 0.0
H1268 H 0.07779 0.04554 0.86857 0.0
H1269 H 0.06964 0.05755 0.87697 0.0
H1270 H 0.06305 0.07088 0.85151 0.0
H1271 H 0.07101 0.05876 0.84322 0.0
H1272 H 0.0929 0.0317 0.81105 0.0
H1273 H 0.09353 0.03324 0.82767 0.0
H1274 H 0.096 1.00243 0.81374 0.0
H1275 H 0.09689 1.00407 0.83026 0.0
H1276 H 0.10715 0.99821 0.87827 0.0
H1277 H 0.11198 0.0209 0.8965 0.0
H1278 H 0.10369 0.03101 0.88616 0.0
H1279 H 0.09896 1.0085 0.86781 0.0
C1280 C 0.66737 0.94612 0.5528 0.0
C1281 C 0.65793 0.94777 0.5519 0.0
C1282 C 0.65762 0.95522 0.5668 0.0
C1283 C 0.6531 0.95228 0.55883 0.0
C1284 C 0.66707 0.95341 0.56768 0.0
C1285 C 0.67188 0.94892 0.56075 0.0
U1286 U 0.66903 0.93208 0.53076 0.0
O1287 O 0.6781 0.93395 0.51892 0.0
O1288 O 0.67885 0.9213 0.52689 0.0
C1289 C 0.68238 0.92615 0.52022 0.0
C1290 C 0.67267 0.94164 0.54549 0.0
C1291 C 0.69249 0.92645 0.51973 0.0
C1292 C 0.70734 0.93202 0.52494 0.0
C1293 C 0.69774 0.93178 0.52573 0.0
C1294 C 0.7065 0.92158 0.51218 0.0
C1295 C 0.71186 0.92691 0.51815 0.0
C1296 C 0.69695 0.92136 0.51297 0.0
C1297 C 0.64615 0.924 0.51962 0.0
C1298 C 0.6425 0.91096 0.50992 0.0
C1299 C 0.63199 0.92373 0.51084 0.0
C1300 C 0.63791 0.92813 0.51691 0.0
C1301 C 0.63415 0.91505 0.5073 0.0
C1302 C 0.64845 0.9154 0.516 0.0
C1303 C 0.65182 0.92861 0.5266 0.0
O1304 O 0.67241 0.93266 0.54538 0.0
O1305 O 0.67188 0.94528 0.53734 0.0
O1306 O 0.6561 0.93609 0.52405 0.0
O1307 O 0.65678 0.92337 0.53197 0.0
H1308 H 0.65432 0.94565 0.54581 0.0
H1309 H 0.64587 0.95362 0.55786 0.0
H1310 H 0.67076 0.95541 0.57376 0.0
H1311 H 0.67915 0.94767 0.56159 0.0
H1312 H 0.71122 0.93613 0.52972 0.0
H1313 H 0.69442 0.93576 0.53101 0.0
H1314 H 0.70969 0.91768 0.50677 0.0
H1315 H 0.69301 0.91724 0.50824 0.0
H1316 H 0.64443 0.90433 0.50726 0.0
H1317 H 0.62558 0.92705 0.50911 0.0
H1318 H 0.63596 0.93472 0.51967 0.0
H1319 H 0.65478 0.91205 0.51796 0.0
C1320 C 0.66719 0.07644 0.97059 0.0
C1321 C 0.65848 0.07275 0.97236 0.0
C1322 C 0.65736 0.06723 0.9567 0.0
C1323 C 0.65363 0.06816 0.9655 0.0
C1324 C 0.66603 0.07107 0.95494 0.0
C1325 C 0.67089 0.07561 0.96181 0.0
U1326 U 0.66922 0.09144 0.992 0.0
O1327 O 0.67822 0.09001 1.00396 0.0
O1328 O 0.67927 0.10221 0.99532 0.0
C1329 C 0.6827 0.09762 1.00222 0.0
C1330 C 0.6726 0.08107 0.97777 0.0
C1331 C 0.69282 0.09712 1.0027 0.0
C1332 C 0.70737 0.08973 0.9992 0.0
C1333 C 0.69778 0.09014 0.99837 0.0
C1334 C 0.70713 0.10333 1.00859 0.0
C1335 C 0.71218 0.09633 1.00434 0.0
C1336 C 0.69757 0.10371 1.00778 0.0
C1337 C 0.64633 0.1008 1.00212 0.0
C1338 C 0.64387 0.10853 0.0166 0.0
C1339 C 0.63141 0.10725 1.00577 0.0
C1340 C 0.63719 0.10258 0.99978 0.0
C1341 C 0.63464 0.11028 0.01428 0.0
C1342 C 0.64967 0.10383 1.01056 0.0
C1343 C 0.65204 0.09559 0.99565 0.0
O1344 O 0.6727 0.09004 0.97745 0.0
O1345 O 0.6717 0.07785 0.98609 0.0
O1346 O 0.65615 0.08826 0.99882 0.0
O1347 O 0.65722 0.10041 0.99012 0.0
H1348 H 0.65543 0.07338 0.97906 0.0
H1349 H 0.64692 0.06539 0.96707 0.0
H1350 H 0.66916 0.07041 0.94828 0.0
H1351 H 0.6776 0.0784 0.96029 0.0
H1352 H 0.71103 0.08431 0.99574 0.0
H1353 H 0.69425 0.08499 0.99438 0.0
H1354 H 0.71054 0.10844 0.01271 0.0
H1355 H 0.69387 0.10913 1.0112 0.0
H1356 H 0.64662 0.11083 0.02306 0.0
H1357 H 0.62434 0.1083 1.00379 0.0
H1358 H 0.63447 0.10025 0.99331 0.0
H1359 H 0.65672 0.10254 0.01249 0.0
C1360 C 0.35521 0.44699 0.97164 0.0
C1361 C 0.36441 0.44475 0.96993 0.0
C1362 C 0.36491 0.4557 0.95735 0.0
C1363 C 0.36922 0.44906 0.96285 0.0
C1364 C 0.35571 0.45796 0.95919 0.0
C1365 C 0.35093 0.45364 0.96625 0.0
U1366 U 0.35319 0.43157 0.99282 0.0
O1367 O 0.34458 0.43329 1.00504 0.0
O1368 O 0.34265 0.42135 0.99622 0.0
C1369 C 0.33965 0.42597 1.00329 0.0
C1370 C 0.34991 0.44245 0.97891 0.0
C1371 C 0.3296 0.42702 1.00406 0.0
C1372 C 0.31459 0.43038 0.99756 0.0
C1373 C 0.32416 0.42975 0.99665 0.0
C1374 C 0.31582 0.42566 0.01331 0.0
C1375 C 0.31029 0.42833 1.00591 0.0
C1376 C 0.32535 0.42502 0.01239 0.0
C1377 C 0.37553 0.42065 1.00254 0.0
C1378 C 0.3803 0.41637 0.01788 0.0
C1379 C 0.38818 0.41003 1.00483 0.0
C1380 C 0.38238 0.41493 0.99902 0.0
C1381 C 0.3873 0.41075 0.01435 0.0
C1382 C 0.37447 0.42126 0.01204 0.0
C1383 C 0.37013 0.42634 0.99613 0.0
O1384 O 0.34939 0.43349 0.97843 0.0
O1385 O 0.35138 0.44544 0.98723 0.0
O1386 O 0.36657 0.43394 0.99934 0.0
O1387 O 0.36463 0.42197 0.99053 0.0
H1388 H 0.36784 0.43962 0.97403 0.0
H1389 H 0.37626 0.44708 0.9616 0.0
H1390 H 0.35221 0.46313 0.95523 0.0
H1391 H 0.34384 0.4555 0.96749 0.0
H1392 H 0.31058 0.43256 0.99174 0.0
H1393 H 0.3273 0.43136 0.99016 0.0
H1394 H 0.31277 0.42389 0.0198 0.0
H1395 H 0.32941 0.42285 0.01818 0.0
H1396 H 0.37935 0.41701 0.02516 0.0
H1397 H 0.39355 0.40589 1.00185 0.0
H1398 H 0.38339 0.4144 0.99172 0.0
H1399 H 0.36923 0.42562 0.01495 0.0
C1400 C 0.85481 0.07656 0.0525 0.0
C1401 C 0.86443 0.07676 0.05272 0.0
C1402 C 0.86448 0.0678 0.06678 0.0
C1403 C 0.86923 0.0724 0.05978 0.0
C1404 C 0.85483 0.06764 0.06648 0.0
C1405 C 0.85006 0.07197 0.05942 0.0
U1406 U 0.85328 0.0917 0.03115 0.0
O1407 O 0.84456 0.09024 0.01898 0.0
O1408 O 0.84319 0.10236 0.02766 0.0
C1409 C 0.83997 0.0978 0.02064 0.0
C1410 C 0.84959 0.08113 0.04519 0.0
C1411 C 0.82988 0.09719 0.01994 0.0
C1412 C 0.81516 0.09076 0.02448 0.0
C1413 C 0.82475 0.09116 0.02536 0.0
C1414 C 0.81577 0.10241 0.01279 0.0
C1415 C 0.81054 0.0964 0.01819 0.0
C1416 C 0.82532 0.1028 0.01366 0.0
C1417 C 0.87613 0.10163 0.0216 0.0
C1418 C 0.879 0.10875 1.00687 0.0
C1419 C 0.89062 0.10932 0.01864 0.0
C1420 C 0.88485 0.10443 0.02448 0.0
C1421 C 0.88779 0.11155 1.00974 0.0
C1422 C 0.87321 0.10384 0.01276 0.0
C1423 C 0.87045 0.0962 0.02793 0.0
O1424 O 0.84938 0.0901 0.04555 0.0
O1425 O 0.85092 0.07799 0.03691 0.0
O1426 O 0.86654 0.08881 0.02462 0.0
O1427 O 0.86509 0.10083 0.03344 0.0
H1428 H 0.86823 0.0803 0.04744 0.0
H1429 H 0.87665 0.07275 0.05983 0.0
H1430 H 0.85094 0.06405 0.07165 0.0
H1431 H 0.84264 0.07173 0.05936 0.0
H1432 H 0.81137 0.08611 0.02881 0.0
H1433 H 0.82815 0.08679 0.03027 0.0
H1434 H 0.8125 0.10676 1.00777 0.0
H1435 H 0.82916 0.10748 1.00939 0.0
H1436 H 0.87656 0.11041 1.0001 0.0
H1437 H 0.89737 0.11121 0.02105 0.0
H1438 H 0.88726 0.10275 0.03126 0.0
H1439 H 0.86648 0.10175 1.0104 0.0
C1440 C 0.47004 0.35437 0.07738 0.0
C1441 C 0.47074 0.36389 0.07636 0.0
C1442 C 0.45628 0.36421 0.06793 0.0
C1443 C 0.46392 0.36877 0.07168 0.0
C1444 C 0.45559 0.35468 0.0691 0.0
C1445 C 0.4624 0.34982 0.07377 0.0
U1446 U 0.49171 0.35236 0.0922 0.0
O1447 O 0.49502 0.34233 0.10296 0.0
O1448 O 0.50358 0.34321 0.09071 0.0
C1449 C 0.5018 0.33874 0.09828 0.0
C1450 C 0.47721 0.34902 0.08207 0.0
C1451 C 0.50206 0.32863 0.09777 0.0
C1452 C 0.50038 0.31433 0.08938 0.0
C1453 C 0.4995 0.32388 0.08984 0.0
C1454 C 0.50615 0.31412 0.10484 0.0
C1455 C 0.50378 0.30932 0.09686 0.0
C1456 C 0.50531 0.32365 0.10527 0.0
C1457 C 0.50278 0.37511 0.10089 0.0
C1458 C 0.51149 0.37917 0.11448 0.0
C1459 C 0.51164 0.38922 0.10139 0.0
C1460 C 0.5059 0.38316 0.09672 0.0
C1461 C 0.51439 0.3874 0.11039 0.0
C1462 C 0.50572 0.37309 0.10978 0.0
C1463 C 0.49594 0.36944 0.09601 0.0
O1464 O 0.48554 0.34981 0.07876 0.0
O1465 O 0.47699 0.34919 0.09101 0.0
O1466 O 0.49032 0.36448 0.10097 0.0
O1467 O 0.49878 0.36522 0.08863 0.0
H1468 H 0.47659 0.36752 0.07911 0.0
H1469 H 0.46473 0.37608 0.07085 0.0
H1470 H 0.44975 0.35095 0.06647 0.0
H1471 H 0.46171 0.34248 0.07453 0.0
H1472 H 0.49838 0.31087 0.08318 0.0
H1473 H 0.49692 0.32755 0.08396 0.0
H1474 H 0.5089 0.31053 0.11069 0.0
H1475 H 0.50735 0.32716 0.11144 0.0
H1476 H 0.51342 0.37756 0.12142 0.0
H1477 H 0.51386 0.39538 0.09795 0.0
H1478 H 0.50372 0.38487 0.08987 0.0
H1479 H 0.50341 0.36693 0.11318 0.0
C1480 C 0.51065 0.15649 0.10701 0.0
C1481 C 0.51275 0.1477 0.10379 0.0
C1482 C 0.50171 0.14093 0.11436 0.0
C1483 C 0.50832 0.14 0.10742 0.0
C1484 C 0.49972 0.14978 0.1176 0.0
C1485 C 0.50414 0.15746 0.11396 0.0
U1486 U 0.52968 0.16806 0.09316 0.0
O1487 O 0.529 0.17954 0.08348 0.0
O1488 O 0.53733 0.18078 0.09586 0.0
C1489 C 0.53415 0.18488 0.08854 0.0
C1490 C 0.51513 0.1647 0.10321 0.0
C1491 C 0.53095 0.19439 0.08972 0.0
C1492 C 0.51979 0.20564 0.0949 0.0
C1493 C 0.52265 0.1965 0.09409 0.0
C1494 C 0.5335 0.21061 0.08705 0.0
C1495 C 0.52516 0.21282 0.09132 0.0
C1496 C 0.53635 0.20151 0.08626 0.0
C1497 C 0.54818 0.15219 0.08249 0.0
C1498 C 0.55956 0.15606 0.07097 0.0
C1499 C 0.56018 0.14135 0.07853 0.0
C1500 C 0.55246 0.14369 0.08366 0.0
C1501 C 0.56384 0.14748 0.07208 0.0
C1502 C 0.55181 0.1584 0.07614 0.0
C1503 C 0.53984 0.15419 0.08781 0.0
O1504 O 0.5232 0.16673 0.10666 0.0
O1505 O 0.51485 0.16553 0.0943 0.0
O1506 O 0.53271 0.15721 0.08323 0.0
O1507 O 0.54105 0.15842 0.09561 0.0
H1508 H 0.51778 0.14679 0.09844 0.0
H1509 H 0.50997 0.13333 0.10467 0.0
H1510 H 0.49481 0.15078 0.12304 0.0
H1511 H 0.50246 0.16418 0.11658 0.0
H1512 H 0.5133 0.20707 0.09818 0.0
H1513 H 0.51838 0.19109 0.09681 0.0
H1514 H 0.53791 0.21593 0.08437 0.0
H1515 H 0.5428 0.20003 0.0829 0.0
H1516 H 0.56223 0.16098 0.06614 0.0
H1517 H 0.56316 0.13464 0.07948 0.0
H1518 H 0.54974 0.13879 0.08849 0.0
H1519 H 0.54862 0.16501 0.07515 0.0
C1520 C 0.47099 0.66734 0.44639 0.0
C1521 C 0.46814 0.65877 0.44311 0.0
C1522 C 0.45687 0.65755 0.45538 0.0
C1523 C 0.46114 0.65393 0.44755 0.0
C1524 C 0.45988 0.66609 0.45867 0.0
C1525 C 0.46684 0.67092 0.45421 0.0
U1526 U 0.49202 0.66942 0.43071 0.0
O1527 O 0.49533 0.67992 0.42048 0.0
O1528 O 0.50439 0.67798 0.43224 0.0
C1529 C 0.50249 0.68293 0.42502 0.0
C1530 C 0.47821 0.67269 0.44175 0.0
C1531 C 0.50326 0.69297 0.42612 0.0
C1532 C 0.49653 0.70806 0.42832 0.0
C1533 C 0.49556 0.69853 0.42763 0.0
C1534 C 0.51291 0.70656 0.42615 0.0
C1535 C 0.50523 0.71221 0.42758 0.0
C1536 C 0.51193 0.69707 0.42543 0.0
C1537 C 0.50147 0.64688 0.41998 0.0
C1538 C 0.51677 0.64255 0.41488 0.0
C1539 C 0.50369 0.63322 0.41078 0.0
C1540 C 0.4979 0.63923 0.41544 0.0
C1541 C 0.51322 0.6347 0.41056 0.0
C1542 C 0.51094 0.64858 0.41957 0.0
C1543 C 0.49518 0.65247 0.42559 0.0
O1544 O 0.48663 0.67129 0.44461 0.0
O1545 O 0.47758 0.67323 0.43283 0.0
O1546 O 0.48958 0.65797 0.42121 0.0
O1547 O 0.49858 0.65609 0.43306 0.0
H1548 H 0.47127 0.65587 0.43708 0.0
H1549 H 0.45897 0.64743 0.44476 0.0
H1550 H 0.45691 0.66902 0.46476 0.0
H1551 H 0.46898 0.67749 0.45688 0.0
H1552 H 0.49048 0.71217 0.42952 0.0
H1553 H 0.4888 0.69552 0.42822 0.0
H1554 H 0.51969 0.70949 0.42542 0.0
H1555 H 0.51796 0.69292 0.42423 0.0
H1556 H 0.52407 0.64388 0.41489 0.0
H1557 H 0.50069 0.62736 0.40739 0.0
H1558 H 0.49061 0.63779 0.41565 0.0
H1559 H 0.51387 0.65443 0.42303 0.0
C1560 C 0.5102 0.86634 0.41574 0.0
C1561 C 0.51281 0.87509 0.41871 0.0
C1562 C 0.50164 0.88211 0.40845 0.0
C1563 C 0.50855 0.8829 0.41512 0.0
C1564 C 0.49911 0.8733 0.40549 0.0
C1565 C 0.50334 0.86552 0.4091 0.0
U1566 U 0.5289 0.85428 0.42966 0.0
O1567 O 0.52796 0.84252 0.43897 0.0
O1568 O 0.5365 0.84158 0.4267 0.0
C1569 C 0.53308 0.83726 0.43378 0.0
C1570 C 0.51455 0.85802 0.41945 0.0
C1571 C 0.52983 0.82779 0.43221 0.0
C1572 C 0.51779 0.81622 0.43171 0.0
C1573 C 0.5205 0.8254 0.43253 0.0
C1574 C 0.53366 0.81174 0.43002 0.0
C1575 C 0.52436 0.80924 0.43058 0.0
C1576 C 0.53635 0.82088 0.43084 0.0
C1577 C 0.54757 0.86968 0.44098 0.0
C1578 C 0.55624 0.8691 0.45518 0.0
C1579 C 0.56178 0.87827 0.44261 0.0
C1580 C 0.55426 0.87554 0.43737 0.0
C1581 C 0.5628 0.87523 0.45165 0.0
C1582 C 0.54869 0.86636 0.4499 0.0
C1583 C 0.53921 0.86783 0.43553 0.0
O1584 O 0.52265 0.856 0.4161 0.0
O1585 O 0.51412 0.85702 0.42834 0.0
O1586 O 0.53193 0.86484 0.4399 0.0
O1587 O 0.54041 0.86386 0.42759 0.0
H1588 H 0.51813 0.87588 0.42381 0.0
H1589 H 0.51075 0.88956 0.41749 0.0
H1590 H 0.49374 0.87241 0.40047 0.0
H1591 H 0.50123 0.85883 0.40673 0.0
H1592 H 0.51057 0.81457 0.43223 0.0
H1593 H 0.51531 0.8306 0.43357 0.0
H1594 H 0.53891 0.80661 0.42897 0.0
H1595 H 0.54359 0.82255 0.43055 0.0
H1596 H 0.55675 0.86667 0.46213 0.0
H1597 H 0.56677 0.88285 0.4396 0.0
H1598 H 0.55355 0.87821 0.43051 0.0
H1599 H 0.54363 0.86184 0.45289 0.0
C1600 C 0.0756 0.47068 0.35558 0.0
C1601 C 0.07859 0.46829 0.36435 0.0
C1602 C 0.06672 0.45651 0.36537 0.0
C1603 C 0.07421 0.46126 0.36919 0.0
C1604 C 0.06372 0.45903 0.3566 0.0
C1605 C 0.06812 0.46603 0.35177 0.0
U1606 U 0.091 0.49192 0.3537 0.0
O1607 O 0.10141 0.49543 0.34344 0.0
O1608 O 0.08937 0.50424 0.34517 0.0
C1609 C 0.09676 0.50249 0.34036 0.0
C1610 C 0.08017 0.47795 0.35027 0.0
C1611 C 0.09581 0.50325 0.33034 0.0
C1612 C 0.09439 0.49648 0.31523 0.0
C1613 C 0.09482 0.49552 0.32474 0.0
C1614 C 0.09576 0.51289 0.31682 0.0
C1615 C 0.09494 0.50519 0.31113 0.0
C1616 C 0.0962 0.51192 0.3263 0.0
C1617 C 0.10131 0.50134 0.37641 0.0
C1618 C 0.1074 0.51641 0.38009 0.0
C1619 C 0.10931 0.50391 0.39072 0.0
C1620 C 0.10472 0.49807 0.38472 0.0
C1621 C 0.11061 0.51319 0.38856 0.0
C1622 C 0.10276 0.51054 0.37407 0.0
C1623 C 0.09584 0.49506 0.37069 0.0
O1624 O 0.07713 0.48629 0.35164 0.0
O1625 O 0.08916 0.4775 0.34984 0.0
O1626 O 0.10042 0.48959 0.36524 0.0
O1627 O 0.08837 0.4984 0.36696 0.0
H1628 H 0.08435 0.47181 0.36743 0.0
H1629 H 0.07678 0.45947 0.37588 0.0
H1630 H 0.05789 0.45568 0.35349 0.0
H1631 H 0.06567 0.46781 0.34503 0.0
H1632 H 0.09384 0.49038 0.3111 0.0
H1633 H 0.09449 0.48874 0.3277 0.0
H1634 H 0.09601 0.51971 0.31396 0.0
H1635 H 0.09693 0.51798 0.33048 0.0
H1636 H 0.10824 0.52353 0.37822 0.0
H1637 H 0.11184 0.50113 0.39709 0.0
H1638 H 0.10369 0.49099 0.38666 0.0
H1639 H 0.10018 0.51321 0.36768 0.0
C1640 C 0.91752 1.00904 0.36582 0.0
C1641 C 0.91703 0.01369 0.37417 0.0
C1642 C 0.90973 1.00043 0.38129 0.0
C1643 C 0.91317 1.00943 0.38183 0.0
C1644 C 0.91035 0.99581 0.3729 0.0
C1645 C 0.91419 1.00007 0.36527 0.0
U1646 U 0.93123 0.02804 0.35391 0.0
O1647 O 0.94115 0.02711 0.3426 0.0
O1648 O 0.92855 0.03514 0.34096 0.0
C1649 C 0.93591 0.0318 0.337 0.0
C1650 C 0.9214 0.01341 0.35762 0.0
C1651 C 0.93483 0.02808 0.32766 0.0
C1652 C 0.92538 0.02317 0.31483 0.0
C1653 C 0.92619 0.02599 0.32393 0.0
C1654 C 0.94183 0.0243 0.31306 0.0
C1655 C 0.93319 0.02236 0.30924 0.0
C1656 C 0.94263 0.02714 0.32213 0.0
C1657 C 0.94151 0.04717 0.36935 0.0
C1658 C 0.95412 0.05772 0.36644 0.0
C1659 C 0.9444 0.0599 0.37963 0.0
C1660 C 0.93924 0.05224 0.37713 0.0
C1661 C 0.95199 0.06269 0.3744 0.0
C1662 C 0.94893 0.05002 0.36395 0.0
C1663 C 0.93631 0.03872 0.36743 0.0
O1664 O 0.9178 0.02132 0.3553 0.0
O1665 O 0.93038 0.01331 0.35697 0.0
O1666 O 0.94106 0.03159 0.36471 0.0
O1667 O 0.92849 0.03967 0.36308 0.0
H1668 H 0.91958 0.02063 0.37475 0.0
H1669 H 0.91274 0.01325 0.38813 0.0
H1670 H 0.90794 0.98883 0.37224 0.0
H1671 H 0.91455 0.99635 0.3589 0.0
H1672 H 0.91863 0.02163 0.31216 0.0
H1673 H 0.92003 0.02663 0.32801 0.0
H1674 H 0.94799 0.02388 0.30896 0.0
H1675 H 0.94936 0.02879 0.3248 0.0
H1676 H 0.95994 0.05964 0.36228 0.0
H1677 H 0.94244 0.06364 0.38568 0.0
H1678 H 0.93353 0.05017 0.38138 0.0
H1679 H 0.95082 0.04621 0.35791 0.0
C1680 C 0.07554 0.55147 0.16813 0.0
C1681 C 0.07799 0.55328 0.15906 0.0
C1682 C 0.06677 0.56567 0.15831 0.0
C1683 C 0.07365 0.56031 0.15419 0.0
C1684 C 0.06432 0.56375 0.16739 0.0
C1685 C 0.06866 0.55674 0.17223 0.0
U1686 U 0.09086 0.53014 0.17035 0.0
O1687 O 0.10109 0.52675 0.18083 0.0
O1688 O 0.08903 0.51797 0.17905 0.0
C1689 C 0.09635 0.51977 0.18395 0.0
C1690 C 0.08006 0.5442 0.17347 0.0
C1691 C 0.09526 0.51915 0.19397 0.0
C1692 C 0.09417 0.52612 0.20901 0.0
C1693 C 0.09472 0.52697 0.1995 0.0
C1694 C 0.0945 0.50964 0.20757 0.0
C1695 C 0.09409 0.51744 0.21318 0.0
C1696 C 0.09509 0.5105 0.19809 0.0
C1697 C 0.10167 0.52013 0.14817 0.0
C1698 C 0.10525 0.50475 0.1428 0.0
C1699 C 0.11271 0.51783 0.13594 0.0
C1700 C 0.10791 0.52365 0.1418 0.0
C1701 C 0.11138 0.50831 0.13628 0.0
C1702 C 0.10045 0.5106 0.1487 0.0
C1703 C 0.09603 0.52661 0.15355 0.0
O1704 O 0.07699 0.53586 0.17212 0.0
O1705 O 0.08905 0.54463 0.17395 0.0
O1706 O 0.10048 0.53225 0.15894 0.0
O1707 O 0.0884 0.52347 0.15715 0.0
H1708 H 0.08329 0.54928 0.15577 0.0
H1709 H 0.07578 0.56164 0.14726 0.0
H1710 H 0.05895 0.56759 0.17074 0.0
H1711 H 0.06664 0.55542 0.17921 0.0
H1712 H 0.09375 0.53227 0.21309 0.0
H1713 H 0.09479 0.53374 0.19649 0.0
H1714 H 0.09458 0.50286 0.21052 0.0
H1715 H 0.09555 0.50437 0.19397 0.0
H1716 H 0.10414 0.49745 0.14334 0.0
H1717 H 0.11726 0.52084 0.13094 0.0
H1718 H 0.1089 0.53097 0.14118 0.0
H1719 H 0.09569 0.50766 0.15354 0.0
C1720 C 0.91689 0.01303 0.15741 0.0
C1721 C 0.91695 1.00871 0.14887 0.0
C1722 C 0.9091 0.02179 0.14203 0.0
C1723 C 0.91309 0.01305 0.14125 0.0
C1724 C 0.90918 0.0261 0.15061 0.0
C1725 C 0.91303 0.02176 0.1582 0.0
U1726 U 0.93059 0.99385 0.16893 0.0
O1727 O 0.94028 0.9944 0.18042 0.0
O1728 O 0.92771 0.98624 0.18158 0.0
C1729 C 0.93509 0.98932 0.18571 0.0
C1730 C 0.92072 1.00853 0.16556 0.0
C1731 C 0.93391 0.99246 0.19521 0.0
C1732 C 0.93096 1.00429 0.20653 0.0
C1733 C 0.93162 1.00153 0.19738 0.0
C1734 C 0.93474 0.98892 0.21139 0.0
C1735 C 0.93261 0.99803 0.21366 0.0
C1736 C 0.93538 0.98619 0.20228 0.0
C1737 C 0.94101 0.9751 0.15328 0.0
C1738 C 0.95312 0.96415 0.15668 0.0
C1739 C 0.94396 0.96236 0.14304 0.0
C1740 C 0.93897 0.97019 0.14533 0.0
C1741 C 0.95114 0.95924 0.14865 0.0
C1742 C 0.94809 0.972 0.15898 0.0
C1743 C 0.93583 0.98356 0.15518 0.0
O1744 O 0.91714 1.00055 0.16764 0.0
O1745 O 0.92971 1.00867 0.1663 0.0
O1746 O 0.94056 0.9906 0.15817 0.0
O1747 O 0.92792 0.98255 0.15934 0.0
H1748 H 0.9199 1.00196 0.14812 0.0
H1749 H 0.91307 1.00947 0.1348 0.0
H1750 H 0.90632 0.03289 0.15145 0.0
H1751 H 0.91296 0.02523 0.16472 0.0
H1752 H 0.92937 0.01136 0.20801 0.0
H1753 H 0.93045 1.00648 0.19202 0.0
H1754 H 0.93588 0.98387 0.21665 0.0
H1755 H 0.93711 0.97915 0.20076 0.0
H1756 H 0.95853 0.96189 0.16121 0.0
H1757 H 0.94232 0.95887 0.13675 0.0
H1758 H 0.93357 0.97249 0.14081 0.0
H1759 H 0.94976 0.97567 0.16517 0.0
C1760 C 0.35549 0.07795 0.47115 0.0
C1761 C 0.36453 0.07489 0.47251 0.0
C1762 C 0.3652 0.06929 0.45685 0.0
C1763 C 0.36932 0.07057 0.46543 0.0
C1764 C 0.35619 0.07247 0.45552 0.0
C1765 C 0.3514 0.07673 0.4626 0.0
U1766 U 0.35338 0.09269 0.49278 0.0
O1767 O 0.34289 0.10285 0.49645 0.0
O1768 O 0.34474 0.09066 0.50496 0.0
C1769 C 0.33984 0.09803 0.50337 0.0
C1770 C 0.35014 0.08225 0.47855 0.0
C1771 C 0.32976 0.09701 0.50414 0.0
C1772 C 0.31452 0.09567 0.49744 0.0
C1773 C 0.32409 0.09613 0.49645 0.0
C1774 C 0.3162 0.09678 0.5138 0.0
C1775 C 0.31043 0.09608 0.50613 0.0
C1776 C 0.32573 0.09725 0.5128 0.0
C1777 C 0.37586 0.10328 0.50262 0.0
C1778 C 0.38001 0.10806 0.51799 0.0
C1779 C 0.38917 0.113 0.50516 0.0
C1780 C 0.38336 0.10823 0.49925 0.0
C1781 C 0.38764 0.11293 0.51462 0.0
C1782 C 0.37417 0.10329 0.51205 0.0
C1783 C 0.37036 0.09778 0.49617 0.0
O1784 O 0.35149 0.07903 0.48681 0.0
O1785 O 0.34959 0.09122 0.47831 0.0
O1786 O 0.36484 0.10232 0.49072 0.0
O1787 O 0.36675 0.09014 0.49926 0.0
H1788 H 0.36787 0.07581 0.47904 0.0
H1789 H 0.37628 0.0683 0.46666 0.0
H1790 H 0.35276 0.07151 0.44905 0.0
H1791 H 0.34444 0.07902 0.46141 0.0
H1792 H 0.31032 0.09521 0.49137 0.0
H1793 H 0.32704 0.09592 0.48969 0.0
H1794 H 0.31335 0.09693 0.52061 0.0
H1795 H 0.32997 0.09789 0.51883 0.0
H1796 H 0.37855 0.10794 0.52522 0.0
H1797 H 0.39504 0.11653 0.50231 0.0
H1798 H 0.38485 0.10826 0.49202 0.0
H1799 H 0.36841 0.09953 0.51483 0.0
C1800 C 0.35598 0.94488 0.05216 0.0
C1801 C 0.36485 0.94829 0.05059 0.0
C1802 C 0.3659 0.95352 0.06636 0.0
C1803 C 0.36974 0.95259 0.05761 0.0
C1804 C 0.35707 0.94994 0.06792 0.0
C1805 C 0.35217 0.94569 0.06089 0.0
U1806 U 0.35326 0.93096 0.03002 0.0
O1807 O 0.34273 0.92085 0.02625 0.0
O1808 O 0.34417 0.93345 0.01826 0.0
C1809 C 0.33935 0.92599 0.0197 0.0
C1810 C 0.35045 0.94071 0.0448 0.0
C1811 C 0.32923 0.92696 0.01927 0.0
C1812 C 0.31397 0.92543 0.02591 0.0
C1813 C 0.32355 0.92502 0.02677 0.0
C1814 C 0.31559 0.9299 1.01013 0.0
C1815 C 0.30986 0.92782 0.01755 0.0
C1816 C 0.32515 0.92945 1.01098 0.0
C1817 C 0.37541 0.9214 0.01852 0.0
C1818 C 0.3796 0.90737 1.01057 0.0
C1819 C 0.3885 0.92113 1.00821 0.0
C1820 C 0.38275 0.92585 0.01421 0.0
C1821 C 0.38709 0.91179 1.0064 0.0
C1822 C 0.37382 0.91211 0.01656 0.0
C1823 C 0.37014 0.92638 0.0256 0.0
O1824 O 0.35138 0.9443 0.03665 0.0
O1825 O 0.35012 0.93173 0.0447 0.0
O1826 O 0.36495 0.92151 0.03109 0.0
O1827 O 0.36633 0.93414 0.02312 0.0
H1828 H 0.36796 0.94769 0.04392 0.0
H1829 H 0.37656 0.95516 0.0562 0.0
H1830 H 0.35384 0.95062 0.07452 0.0
H1831 H 0.34534 0.94313 0.06226 0.0
H1832 H 0.30978 0.92389 0.0318 0.0
H1833 H 0.32649 0.9231 0.03327 0.0
H1834 H 0.3127 0.93165 1.00356 0.0
H1835 H 0.32936 0.93091 1.00508 0.0
H1836 H 0.37824 0.90021 1.00925 0.0
H1837 H 0.39426 0.92474 1.00524 0.0
H1838 H 0.3842 0.93297 0.01568 0.0
H1839 H 0.36823 0.90847 0.01977 0.0
C1840 C 0.66696 0.57706 0.05373 0.0
C1841 C 0.65746 0.57582 0.05281 0.0
C1842 C 0.65679 0.56841 0.06772 0.0
C1843 C 0.65242 0.57152 0.05973 0.0
C1844 C 0.6663 0.5698 0.06862 0.0
C1845 C 0.67132 0.57407 0.06169 0.0
U1846 U 0.66914 0.59073 0.03151 0.0
O1847 O 0.67932 0.60106 0.02741 0.0
O1848 O 0.67809 0.5883 0.01965 0.0
C1849 C 0.68272 0.59591 0.02089 0.0
C1850 C 0.67246 0.58127 0.0464 0.0
C1851 C 0.69284 0.59516 0.0204 0.0
C1852 C 0.70805 0.59593 0.02728 0.0
C1853 C 0.69847 0.59625 0.02811 0.0
C1854 C 0.70653 0.59325 1.01109 0.0
C1855 C 0.71222 0.59446 0.01874 0.0
C1856 C 0.69698 0.59361 0.01191 0.0
C1857 C 0.6462 0.59915 0.0205 0.0
C1858 C 0.64236 0.61207 1.0107 0.0
C1859 C 0.63161 0.59958 0.01248 0.0
C1860 C 0.63775 0.59515 0.01829 0.0
C1861 C 0.63374 0.60818 1.00872 0.0
C1862 C 0.64853 0.60761 0.01656 0.0
C1863 C 0.65201 0.59461 0.02741 0.0
O1864 O 0.67157 0.57754 0.0383 0.0
O1865 O 0.6725 0.59025 0.04615 0.0
O1866 O 0.65719 0.59985 0.03256 0.0
O1867 O 0.65606 0.58697 0.02495 0.0
H1868 H 0.65395 0.57812 0.04672 0.0
H1869 H 0.6451 0.57067 0.05885 0.0
H1870 H 0.66992 0.5674 0.07461 0.0
H1871 H 0.67865 0.57494 0.06252 0.0
H1872 H 0.7122 0.59678 0.03334 0.0
H1873 H 0.69546 0.59741 0.03475 0.0
H1874 H 0.70947 0.59223 1.00439 0.0
H1875 H 0.69279 0.5928 1.00586 0.0
H1876 H 0.64422 0.61869 1.00795 0.0
H1877 H 0.62513 0.59629 1.01097 0.0
H1878 H 0.63581 0.58864 0.02124 0.0
H1879 H 0.65501 0.61086 0.01816 0.0
C1880 C 0.16693 0.94504 0.96988 0.0
C1881 C 0.15744 0.94641 0.97076 0.0
C1882 C 0.15696 0.95402 0.95594 0.0
C1883 C 0.15251 0.95088 0.96387 0.0
C1884 C 0.16646 0.9525 0.95507 0.0
C1885 C 0.17138 0.94807 0.96197 0.0
U1886 U 0.16859 0.93097 0.99184 0.0
O1887 O 0.17849 0.92034 0.99588 0.0
O1888 O 0.17741 0.93296 1.00387 0.0
C1889 C 0.18183 0.92523 1.00262 0.0
C1890 C 0.17231 0.94063 0.97718 0.0
C1891 C 0.19193 0.92571 1.00329 0.0
C1892 C 0.20698 0.92901 0.99689 0.0
C1893 C 0.19739 0.92876 0.99603 0.0
C1894 C 0.20572 0.92324 0.01229 0.0
C1895 C 0.21129 0.92622 1.00503 0.0
C1896 C 0.19617 0.92299 1.01142 0.0
C1897 C 0.14545 0.92274 1.00234 0.0
C1898 C 0.14284 0.91154 0.01436 0.0
C1899 C 0.13023 0.92077 1.00881 0.0
C1900 C 0.13615 0.92512 1.00272 0.0
C1901 C 0.13347 0.91391 0.01473 0.0
C1902 C 0.14878 0.91594 1.00823 0.0
C1903 C 0.15131 0.92735 0.99556 0.0
O1904 O 0.17141 0.94422 0.98533 0.0
O1905 O 0.17219 0.93164 0.97727 0.0
O1906 O 0.15648 0.92209 0.99043 0.0
O1907 O 0.1555 0.93484 0.99826 0.0
H1908 H 0.15387 0.94408 0.9768 0.0
H1909 H 0.1452 0.95182 0.96473 0.0
H1910 H 0.17014 0.95492 0.94914 0.0
H1911 H 0.1787 0.94709 0.96118 0.0
H1912 H 0.21102 0.93127 0.99112 0.0
H1913 H 0.19424 0.93089 0.98969 0.0
H1914 H 0.20874 0.9212 0.01871 0.0
H1915 H 0.19208 0.92066 0.01712 0.0
H1916 H 0.14558 0.90635 0.01885 0.0
H1917 H 0.12306 0.92267 1.00876 0.0
H1918 H 0.13343 0.93031 0.9982 0.0
H1919 H 0.15595 0.91401 1.00805 0.0
H1920 H 0.13389 0.10999 0.49088 0.0
H1921 H 0.12296 0.11744 0.48062 0.0
H1922 H 0.10956 0.12991 0.50365 0.0
H1923 H 0.12065 0.1228 0.51389 0.0
H1924 H 0.10445 0.11511 0.48008 0.0
H1925 H 0.11214 0.15157 0.48681 0.0
H1926 H 0.11967 0.14246 0.49038 0.0
H1927 H 0.10967 0.14526 0.49699 0.0
C1928 C 0.12875 0.11447 0.49375 0.0
C1929 C 0.12818 0.11577 0.50324 0.0
C1930 C 0.12245 0.11868 0.48788 0.0
C1931 C 0.11549 0.12434 0.49133 0.0
C1932 C 0.11497 0.12573 0.50077 0.0
H1933 H 0.06613 0.14975 0.46998 0.0
H1934 H 0.07888 0.14425 0.47937 0.0
C1935 C 0.12126 0.12155 0.50665 0.0
C1936 C 0.10843 0.12835 0.48514 0.0
H1937 H 0.09816 0.14842 0.47888 0.0
C1938 C 0.10315 0.1224 0.47975 0.0
C1939 C 0.10669 0.13787 0.48472 0.0
C1940 C 0.1124 0.14467 0.48997 0.0
C1941 C 0.09604 0.12568 0.47416 0.0
C1942 C 0.09422 0.13518 0.47384 0.0
C1943 C 0.09954 0.14114 0.47916 0.0
C1944 C 0.08677 0.13902 0.46805 0.0
C1945 C 0.09036 0.11891 0.46884 0.0
C1946 C 0.08707 0.13813 0.45854 0.0
C1947 C 0.07983 0.14131 0.45315 0.0
C1948 C 0.07211 0.14549 0.45713 0.0
C1949 C 0.07198 0.14664 0.46665 0.0
C1950 C 0.07924 0.14346 0.47205 0.0
H1951 H 0.09121 0.11182 0.47144 0.0
H1952 H 0.08297 0.12073 0.46911 0.0
H1953 H 0.09254 0.11902 0.4616 0.0
H1954 H 0.09289 0.1349 0.45529 0.0
H1955 H 0.08027 0.14047 0.44583 0.0
H1956 H 0.88477 0.40054 0.49358 0.0
H1957 H 0.89602 0.39207 0.48448 0.0
H1958 H 0.91796 0.40393 0.50022 0.0
H1959 H 0.90682 0.41216 0.5095 0.0
H1960 H 0.91041 0.39867 0.47373 0.0
H1961 H 0.92382 0.37673 0.50149 0.0
H1962 H 0.91328 0.38312 0.50254 0.0
H1963 H 0.92416 0.38871 0.50412 0.0
C1964 C 0.89198 0.40126 0.49518 0.0
C1965 C 0.89486 0.40704 0.5023 0.0
C1966 C 0.89841 0.39646 0.48993 0.0
C1967 C 0.90784 0.39725 0.49174 0.0
C1968 C 0.91073 0.40307 0.49878 0.0
H1969 H 0.9586 0.37659 0.46888 0.0
H1970 H 0.94665 0.38468 0.47736 0.0
C1971 C 0.90433 0.40787 0.50402 0.0
C1972 C 0.9147 0.39217 0.48618 0.0
H1973 H 0.93239 0.37691 0.4877 0.0
C1974 C 0.91517 0.39386 0.47677 0.0
C1975 C 0.92092 0.38589 0.49014 0.0
C1976 C 0.92049 0.38342 0.50011 0.0
C1977 C 0.92184 0.38963 0.47127 0.0
C1978 C 0.92814 0.38345 0.47527 0.0
C1979 C 0.9276 0.38169 0.48465 0.0
C1980 C 0.93537 0.37874 0.46985 0.0
C1981 C 0.92226 0.39202 0.46129 0.0
C1982 C 0.93301 0.37267 0.46282 0.0
C1983 C 0.93983 0.36805 0.45793 0.0
C1984 C 0.94918 0.36938 0.45998 0.0
C1985 C 0.9515 0.37549 0.46702 0.0
C1986 C 0.94467 0.38008 0.47192 0.0
H1987 H 0.91852 0.39846 0.45976 0.0
H1988 H 0.92948 0.39277 0.45899 0.0
H1989 H 0.91906 0.38644 0.45728 0.0
H1990 H 0.92588 0.3714 0.46118 0.0
H1991 H 0.93778 0.36346 0.45252 0.0
H1992 H 0.11956 0.9216 0.02467 0.0
H1993 H 0.1082 0.91388 0.03416 0.0
H1994 H 0.12122 0.88798 0.02885 0.0
H1995 H 0.1326 0.89564 0.01922 0.0
H1996 H 0.09601 0.90011 0.0284 0.0
H1997 H 0.11816 0.88796 0.05676 0.0
H1998 H 0.12179 0.89673 0.04889 0.0
H1999 H 0.12187 0.88494 0.04548 0.0
C2000 C 0.12003 0.91425 0.02549 0.0
C2001 C 0.127 0.90925 0.02111 0.0
C2002 C 0.11354 0.90986 0.03097 0.0
C2003 C 0.11388 0.90036 0.03228 0.0
C2004 C 0.12091 0.89533 0.02807 0.0
H2005 H 0.07627 0.86498 0.06334 0.0
H2006 H 0.0887 0.87048 0.05347 0.0
C2007 C 0.12742 0.89973 0.02257 0.0
C2008 C 0.10657 0.89575 0.03768 0.0
H2009 H 0.10256 0.8836 0.05719 0.0
C2010 C 0.09746 0.89649 0.03468 0.0
C2011 C 0.10845 0.89095 0.04584 0.0
C2012 C 0.11808 0.89013 0.04951 0.0
C2013 C 0.09018 0.89264 0.03965 0.0
C2014 C 0.09202 0.88807 0.04795 0.0
C2015 C 0.10115 0.88712 0.05084 0.0
C2016 C 0.0845 0.88466 0.05392 0.0
C2017 C 0.08057 0.89346 0.03592 0.0
C2018 C 0.07807 0.8908 0.05753 0.0
C2019 C 0.07097 0.88768 0.06312 0.0
C2020 C 0.07014 0.87834 0.0653 0.0
C2021 C 0.07664 0.8722 0.06172 0.0
C2022 C 0.08378 0.87534 0.05613 0.0
H2023 H 0.08059 0.89467 0.02845 0.0
H2024 H 0.0765 0.8872 0.03736 0.0
H2025 H 0.0771 0.89935 0.0392 0.0
H2026 H 0.07856 0.89804 0.05605 0.0
H2027 H 0.06605 0.89261 0.06566 0.0
H2028 H 0.90714 0.60999 0.01361 0.0
H2029 H 0.91826 0.61773 0.02338 0.0
H2030 H 0.89626 0.63156 0.03731 0.0
H2031 H 0.88505 0.62383 0.02753 0.0
H2032 H 0.92143 0.63613 0.02513 0.0
H2033 H 0.91119 0.62144 0.05847 0.0
H2034 H 0.90732 0.61674 0.04777 0.0
H2035 H 0.90203 0.62685 0.05233 0.0
C2036 C 0.90464 0.6147 0.01873 0.0
C2037 C 0.89518 0.6163 0.01975 0.0
C2038 C 0.91102 0.61909 0.02435 0.0
C2039 C 0.90812 0.62516 0.03117 0.0
C2040 C 0.89868 0.62676 0.03224 0.0
H2041 H 0.93834 0.65994 0.06915 0.0
H2042 H 0.92647 0.65211 0.06027 0.0
C2043 C 0.89227 0.62234 0.02662 0.0
C2044 C 0.91504 0.63002 0.03686 0.0
H2045 H 0.92234 0.63324 0.05878 0.0
C2046 C 0.92164 0.63547 0.03248 0.0
C2047 C 0.9153 0.6292 0.04647 0.0
C2048 C 0.90864 0.62318 0.05155 0.0
C2049 C 0.92844 0.64015 0.03743 0.0
C2050 C 0.92876 0.63926 0.04702 0.0
C2051 C 0.9221 0.6339 0.05142 0.0
C2052 C 0.93598 0.64382 0.05257 0.0
C2053 C 0.93513 0.64614 0.03234 0.0
C2054 C 0.94528 0.64166 0.05133 0.0
C2055 C 0.95209 0.64615 0.05636 0.0
C2056 C 0.94975 0.65289 0.06279 0.0
C2057 C 0.94041 0.6549 0.06416 0.0
C2058 C 0.9336 0.65038 0.05914 0.0
H2059 H 0.93255 0.64795 0.02545 0.0
H2060 H 0.93654 0.65254 0.03615 0.0
H2061 H 0.9417 0.64241 0.0315 0.0
H2062 H 0.94728 0.63651 0.04641 0.0
H2063 H 0.9592 0.64446 0.05507 0.0
H2064 H 0.48362 0.13942 0.11936 0.0
H2065 H 0.47577 0.12617 0.12585 0.0
H2066 H 0.50074 0.11052 0.12412 0.0
H2067 H 0.50876 0.12384 0.11796 0.0
H2068 H 0.47289 0.10922 0.11856 0.0
H2069 H 0.49322 0.10607 0.15034 0.0
H2070 H 0.49374 0.11607 0.14316 0.0
H2071 H 0.50004 0.10594 0.14017 0.0
C2072 C 0.4875 0.13321 0.12049 0.0
C2073 C 0.49687 0.13276 0.11819 0.0
C2074 C 0.48297 0.12561 0.12414 0.0
C2075 C 0.48768 0.11737 0.12563 0.0
C2076 C 0.49699 0.11684 0.12323 0.0
H2077 H 0.47144 0.06334 0.14473 0.0
H2078 H 0.47964 0.07675 0.13897 0.0
C2079 C 0.50154 0.12445 0.11958 0.0
C2080 C 0.48277 0.10929 0.12946 0.0
H2081 H 0.48286 0.09396 0.14707 0.0
C2082 C 0.47505 0.10592 0.12482 0.0
C2083 C 0.48558 0.10495 0.13763 0.0
C2084 C 0.49354 0.10848 0.14317 0.0
C2085 C 0.47016 0.09827 0.12803 0.0
C2086 C 0.47298 0.09393 0.13618 0.0
C2087 C 0.4807 0.09728 0.14082 0.0
C2088 C 0.46802 0.08588 0.13997 0.0
C2089 C 0.46215 0.09476 0.12253 0.0
C2090 C 0.4588 0.08657 0.14264 0.0
C2091 C 0.45407 0.0789 0.14591 0.0
C2092 C 0.45847 0.07036 0.14662 0.0
C2093 C 0.46778 0.06976 0.14416 0.0
C2094 C 0.47251 0.07744 0.1409 0.0
H2095 H 0.46231 0.09735 0.11542 0.0
H2096 H 0.46208 0.08717 0.12238 0.0
H2097 H 0.45567 0.09712 0.12571 0.0
H2098 H 0.45522 0.09304 0.14214 0.0
H2099 H 0.4469 0.07961 0.14768 0.0
H2100 H 0.51267 0.40605 0.11037 0.0
H2101 H 0.52194 0.4173 0.11851 0.0
H2102 H 0.53785 0.3956 0.13055 0.0
H2103 H 0.52876 0.38426 0.12219 0.0
H2104 H 0.52437 0.41947 0.13709 0.0
H2105 H 0.55767 0.41243 0.12017 0.0
H2106 H 0.5469 0.40827 0.11574 0.0
H2107 H 0.55228 0.40261 0.1252 0.0
C2108 C 0.51822 0.40365 0.11464 0.0
C2109 C 0.52001 0.39422 0.11553 0.0
C2110 C 0.52348 0.4101 0.11935 0.0
C2111 C 0.53069 0.40733 0.12504 0.0
C2112 C 0.53244 0.39793 0.12606 0.0
H2113 H 0.56907 0.43801 0.15905 0.0
H2114 H 0.56036 0.42606 0.15119 0.0
C2115 C 0.52716 0.39145 0.12135 0.0
C2116 C 0.53621 0.4143 0.13002 0.0
H2117 H 0.55788 0.42294 0.13243 0.0
C2118 C 0.5317 0.42024 0.13606 0.0
C2119 C 0.54578 0.4153 0.12869 0.0
C2120 C 0.55096 0.40938 0.12204 0.0
C2121 C 0.53648 0.42707 0.14084 0.0
C2122 C 0.54603 0.42813 0.13944 0.0
C2123 C 0.55056 0.42214 0.13348 0.0
C2124 C 0.5514 0.43544 0.14408 0.0
C2125 C 0.53129 0.433 0.14748 0.0
C2126 C 0.54938 0.44471 0.14259 0.0
C2127 C 0.55433 0.45157 0.14709 0.0
C2128 C 0.56143 0.44931 0.15319 0.0
C2129 C 0.56355 0.44001 0.15452 0.0
C2130 C 0.55862 0.43316 0.14999 0.0
H2131 H 0.52468 0.42983 0.14953 0.0
H2132 H 0.53543 0.43433 0.15369 0.0
H2133 H 0.52974 0.43967 0.14421 0.0
H2134 H 0.54395 0.44665 0.13794 0.0
H2135 H 0.55246 0.45864 0.14593 0.0
H2136 H 0.49666 0.88544 0.39071 0.0
H2137 H 0.48872 0.89882 0.38456 0.0
H2138 H 0.48813 0.9109 0.41133 0.0
H2139 H 0.49605 0.89754 0.41754 0.0
H2140 H 0.47174 0.90563 0.38891 0.0
H2141 H 0.49839 0.93169 0.39608 0.0
H2142 H 0.50067 0.91958 0.39665 0.0
H2143 H 0.49504 0.92527 0.40595 0.0
C2144 C 0.49483 0.89093 0.39531 0.0
C2145 C 0.49703 0.8904 0.40464 0.0
C2146 C 0.49032 0.8986 0.39176 0.0
C2147 C 0.48794 0.90595 0.39744 0.0
C2148 C 0.49009 0.90544 0.40676 0.0
H2149 H 0.4574 0.95632 0.3921 0.0
H2150 H 0.46637 0.94312 0.39705 0.0
C2151 C 0.49462 0.89778 0.41031 0.0
C2152 C 0.48291 0.91399 0.39368 0.0
H2153 H 0.48372 0.93727 0.39161 0.0
C2154 C 0.4744 0.91254 0.38943 0.0
C2155 C 0.48637 0.92301 0.39435 0.0
C2156 C 0.49566 0.925 0.39843 0.0
C2157 C 0.46914 0.91987 0.38608 0.0
C2158 C 0.47254 0.92891 0.38686 0.0
C2159 C 0.4811 0.93035 0.39102 0.0
C2160 C 0.4672 0.93698 0.38368 0.0
C2161 C 0.45985 0.91791 0.38199 0.0
C2162 C 0.46478 0.93803 0.37447 0.0
C2163 C 0.45958 0.94557 0.37161 0.0
C2164 C 0.4567 0.95224 0.37791 0.0
C2165 C 0.45933 0.95125 0.38709 0.0
C2166 C 0.46452 0.94373 0.38993 0.0
H2167 H 0.45733 0.91098 0.38385 0.0
H2168 H 0.45472 0.92304 0.38425 0.0
H2169 H 0.46034 0.91826 0.37446 0.0
H2170 H 0.46691 0.93301 0.36949 0.0
H2171 H 0.45767 0.94609 0.3645 0.0
H2172 H 0.55309 0.5639 0.37705 0.0
H2173 H 0.54466 0.57603 0.38491 0.0
H2174 H 0.5616 0.59633 0.37185 0.0
H2175 H 0.57004 0.58425 0.36396 0.0
H2176 H 0.5505 0.58938 0.39683 0.0
H2177 H 0.53599 0.60533 0.36569 0.0
H2178 H 0.54139 0.59423 0.36558 0.0
H2179 H 0.54827 0.60445 0.36568 0.0
C2180 C 0.55507 0.57094 0.37589 0.0
C2181 C 0.56221 0.57308 0.36981 0.0
C2182 C 0.55022 0.57787 0.38037 0.0
C2183 C 0.55237 0.58712 0.37885 0.0
C2184 C 0.55963 0.58928 0.37295 0.0
H2185 H 0.52836 0.63792 0.39981 0.0
H2186 H 0.53831 0.6266 0.39244 0.0
C2187 C 0.56447 0.58235 0.36845 0.0
C2188 C 0.54705 0.59446 0.3835 0.0
H2189 H 0.5334 0.61307 0.37962 0.0
C2190 C 0.54675 0.59455 0.39306 0.0
C2191 C 0.54217 0.60124 0.37859 0.0
C2192 C 0.54188 0.60129 0.36832 0.0
C2193 C 0.54177 0.60125 0.39784 0.0
C2194 C 0.53682 0.60796 0.39293 0.0
C2195 C 0.53721 0.60795 0.38338 0.0
C2196 C 0.53093 0.61485 0.39757 0.0
C2197 C 0.54194 0.60113 0.40811 0.0
C2198 C 0.52342 0.61203 0.40284 0.0
C2199 C 0.51774 0.61846 0.40707 0.0
C2200 C 0.5194 0.6279 0.40609 0.0
C2201 C 0.52693 0.63072 0.40079 0.0
C2202 C 0.5326 0.62426 0.39653 0.0
H2203 H 0.54795 0.5973 0.41077 0.0
H2204 H 0.54212 0.60819 0.41091 0.0
H2205 H 0.53565 0.59772 0.41066 0.0
H2206 H 0.52189 0.60482 0.40363 0.0
H2207 H 0.51208 0.61602 0.41117 0.0
H2208 H 0.16307 0.47019 0.07634 0.0
H2209 H 0.15505 0.47845 0.08839 0.0
H2210 H 0.13154 0.46089 0.08498 0.0
H2211 H 0.13965 0.45236 0.07312 0.0
H2212 H 0.13889 0.48807 0.08751 0.0
H2213 H 0.1357 0.45964 0.11238 0.0
H2214 H 0.14322 0.45906 0.10263 0.0
H2215 H 0.13111 0.45717 0.1013 0.0
C2216 C 0.15625 0.46797 0.07823 0.0
C2217 C 0.15206 0.46053 0.07378 0.0
C2218 C 0.15164 0.47276 0.08509 0.0
C2219 C 0.14274 0.47022 0.08771 0.0
C2220 C 0.13847 0.46288 0.08322 0.0
H2221 H 0.1044 0.49336 0.12726 0.0
H2222 H 0.1119 0.48403 0.1156 0.0
C2223 C 0.14308 0.45807 0.07635 0.0
C2224 C 0.13789 0.47544 0.09498 0.0
H2225 H 0.12803 0.47344 0.11603 0.0
C2226 C 0.13654 0.48487 0.09376 0.0
C2227 C 0.13478 0.47127 0.10312 0.0
C2228 C 0.13634 0.46124 0.10501 0.0
C2229 C 0.13213 0.49021 0.10039 0.0
C2230 C 0.12911 0.48607 0.10858 0.0
C2231 C 0.13036 0.47662 0.10977 0.0
C2232 C 0.12472 0.49146 0.11599 0.0
C2233 C 0.13059 0.50024 0.0985 0.0
C2234 C 0.1295 0.4986 0.12029 0.0
C2235 C 0.12525 0.50392 0.12699 0.0
C2236 C 0.11612 0.50221 0.1296 0.0
C2237 C 0.11145 0.49485 0.12549 0.0
C2238 C 0.11571 0.48953 0.11878 0.0
H2239 H 0.13103 0.5018 0.09111 0.0
H2240 H 0.12379 0.50249 0.10105 0.0
H2241 H 0.13595 0.5043 0.10205 0.0
H2242 H 0.13653 0.50008 0.11842 0.0
H2243 H 0.12913 0.5094 0.13012 0.0
H2244 H 0.10811 0.51379 0.40703 0.0
H2245 H 0.11584 0.52353 0.41814 0.0
H2246 H 0.13105 0.53651 0.39653 0.0
H2247 H 0.12331 0.52675 0.38533 0.0
H2248 H 0.13417 0.52457 0.42193 0.0
H2249 H 0.12142 0.55845 0.41057 0.0
H2250 H 0.11638 0.54786 0.40674 0.0
H2251 H 0.1269 0.55189 0.40179 0.0
C2252 C 0.11311 0.5187 0.40461 0.0
C2253 C 0.11511 0.51945 0.39526 0.0
C2254 C 0.1175 0.5243 0.41099 0.0
C2255 C 0.12396 0.53084 0.40819 0.0
C2256 C 0.12595 0.53166 0.39885 0.0
H2257 H 0.15975 0.5679 0.43838 0.0
H2258 H 0.15173 0.55914 0.4266 0.0
C2259 C 0.12153 0.52606 0.39245 0.0
C2260 C 0.12886 0.53648 0.41512 0.0
H2261 H 0.13292 0.55846 0.42201 0.0
C2262 C 0.13386 0.53198 0.42196 0.0
C2263 C 0.1285 0.54616 0.41516 0.0
C2264 C 0.12295 0.55139 0.40823 0.0
C2265 C 0.13857 0.53686 0.42876 0.0
C2266 C 0.13815 0.54653 0.42884 0.0
C2267 C 0.13322 0.55105 0.42196 0.0
C2268 C 0.14281 0.55204 0.43601 0.0
C2269 C 0.14409 0.53161 0.43571 0.0
C2270 C 0.14036 0.5511 0.44521 0.0
C2271 C 0.14496 0.55607 0.45197 0.0
C2272 C 0.15211 0.56212 0.44968 0.0
C2273 C 0.15439 0.5632 0.44042 0.0
C2274 C 0.14977 0.55824 0.43366 0.0
H2275 H 0.14563 0.52456 0.43337 0.0
H2276 H 0.15065 0.53515 0.43723 0.0
H2277 H 0.14011 0.53112 0.44213 0.0
H2278 H 0.1349 0.54648 0.44718 0.0
H2279 H 0.14304 0.55502 0.45902 0.0
H2280 H 0.88043 0.96555 0.45772 0.0
H2281 H 0.88832 0.97356 0.44532 0.0
H2282 H 0.86965 0.96163 0.42591 0.0
H2283 H 0.86178 0.95356 0.43821 0.0
H2284 H 0.89703 0.96686 0.42956 0.0
H2285 H 0.86754 0.98901 0.42052 0.0
H2286 H 0.86804 0.98263 0.43104 0.0
H2287 H 0.86487 0.97703 0.4206 0.0
C2288 C 0.87804 0.96456 0.45081 0.0
C2289 C 0.87039 0.95896 0.449 0.0
C2290 C 0.88254 0.96918 0.44373 0.0
C2291 C 0.87947 0.96835 0.4347 0.0
C2292 C 0.872 0.96258 0.43284 0.0
H2293 H 0.89458 0.9893 0.38169 0.0
H2294 H 0.88775 0.9816 0.3948 0.0
C2295 C 0.8675 0.95796 0.4399 0.0
C2296 C 0.88406 0.97346 0.4272 0.0
H2297 H 0.88012 0.989 0.41024 0.0
C2298 C 0.89336 0.97175 0.42538 0.0
C2299 C 0.87927 0.97986 0.42174 0.0
C2300 C 0.8694 0.98232 0.4236 0.0
C2301 C 0.89791 0.97604 0.41807 0.0
C2302 C 0.89308 0.98235 0.41254 0.0
C2303 C 0.88382 0.98414 0.41445 0.0
C2304 C 0.89741 0.98701 0.40459 0.0
C2305 C 0.90776 0.97355 0.41618 0.0
C2306 C 0.90508 0.99273 0.40571 0.0
C2307 C 0.90907 0.9971 0.39819 0.0
C2308 C 0.90545 0.99589 0.38937 0.0
C2309 C 0.89768 0.99026 0.38832 0.0
C2310 C 0.89371 0.9859 0.39584 0.0
H2311 H 0.90971 0.96701 0.41949 0.0
H2312 H 0.90902 0.97296 0.40874 0.0
H2313 H 0.9123 0.979 0.41889 0.0
H2314 H 0.90796 0.99386 0.41242 0.0
H2315 H 0.91507 1.00133 0.39927 0.0
H2316 H 0.40078 0.53853 0.64187 0.0
H2317 H 0.39381 0.54623 0.62882 0.0
H2318 H 0.40033 0.52313 0.61179 0.0
H2319 H 0.40694 0.51519 0.62489 0.0
H2320 H 0.40117 0.55158 0.61267 0.0
H2321 H 0.37338 0.52646 0.60633 0.0
H2322 H 0.38018 0.52635 0.61659 0.0
H2323 H 0.38464 0.52153 0.60623 0.0
C2324 C 0.40061 0.535 0.63539 0.0
C2325 C 0.40436 0.52617 0.6345 0.0
C2326 C 0.39669 0.53946 0.6279 0.0
C2327 C 0.39639 0.53521 0.61933 0.0
C2328 C 0.40028 0.52648 0.61836 0.0
H2329 H 0.37526 0.55264 0.56635 0.0
H2330 H 0.38316 0.5447 0.57879 0.0
C2331 C 0.40418 0.52199 0.62586 0.0
C2332 C 0.39212 0.54001 0.61142 0.0
H2333 H 0.37524 0.53819 0.59533 0.0
C2334 C 0.39549 0.54865 0.6089 0.0
C2335 C 0.38469 0.53621 0.60647 0.0
C2336 C 0.38044 0.52717 0.60908 0.0
C2337 C 0.39171 0.55355 0.60155 0.0
C2338 C 0.38428 0.54975 0.59663 0.0
C2339 C 0.38095 0.54108 0.59909 0.0
C2340 C 0.37973 0.55475 0.58903 0.0
C2341 C 0.39578 0.56268 0.59903 0.0
C2342 C 0.37513 0.56302 0.59065 0.0
C2343 C 0.37061 0.56758 0.58356 0.0
C2344 C 0.37059 0.56396 0.57467 0.0
C2345 C 0.37524 0.55568 0.57307 0.0
C2346 C 0.37971 0.5511 0.58019 0.0
H2347 H 0.40277 0.56357 0.6019 0.0
H2348 H 0.39613 0.5635 0.59152 0.0
H2349 H 0.39137 0.56822 0.60178 0.0
H2350 H 0.37493 0.5659 0.59744 0.0
H2351 H 0.36717 0.57396 0.58503 0.0
H2352 H 0.94799 0.85949 0.55195 0.0
H2353 H 0.936 0.86782 0.5438 0.0
H2354 H 0.93765 0.88966 0.56343 0.0
H2355 H 0.94958 0.88133 0.57171 0.0
H2356 H 0.91879 0.87371 0.55018 0.0
H2357 H 0.94015 0.90309 0.53899 0.0
H2358 H 0.94507 0.89259 0.54324 0.0
H2359 H 0.94038 0.90085 0.55101 0.0
C2360 C 0.94578 0.86604 0.55459 0.0
C2361 C 0.94979 0.86972 0.56251 0.0
C2362 C 0.93894 0.87082 0.54988 0.0
C2363 C 0.93599 0.87942 0.55292 0.0
C2364 C 0.93994 0.88312 0.56084 0.0
H2365 H 0.89599 0.9185 0.53184 0.0
H2366 H 0.90735 0.91033 0.54104 0.0
C2367 C 0.94678 0.87834 0.56557 0.0
C2368 C 0.92866 0.88441 0.54789 0.0
H2369 H 0.92425 0.90398 0.53594 0.0
C2370 C 0.91998 0.88032 0.54705 0.0
C2371 C 0.93021 0.89305 0.54384 0.0
C2372 C 0.93947 0.89764 0.54423 0.0
C2373 C 0.91279 0.88468 0.54236 0.0
C2374 C 0.91437 0.89328 0.53821 0.0
C2375 C 0.92303 0.8974 0.53911 0.0
C2376 C 0.90718 0.89808 0.53279 0.0
C2377 C 0.90353 0.8801 0.54204 0.0
C2378 C 0.90331 0.89395 0.52505 0.0
C2379 C 0.89681 0.89861 0.51977 0.0
C2380 C 0.89409 0.90755 0.52205 0.0
C2381 C 0.89797 0.91166 0.52983 0.0
C2382 C 0.90445 0.90699 0.53511 0.0
H2383 H 0.90271 0.87505 0.54764 0.0
H2384 H 0.89791 0.88519 0.54251 0.0
H2385 H 0.90281 0.87638 0.5355 0.0
H2386 H 0.90546 0.88718 0.52296 0.0
H2387 H 0.89412 0.89529 0.51374 0.0
H2388 H 0.07901 0.6463 0.57402 0.0
H2389 H 0.09213 0.64095 0.56507 0.0
H2390 H 0.07451 0.63715 0.5418 0.0
H2391 H 0.06143 0.64273 0.55059 0.0
H2392 H 0.09434 0.62397 0.5568 0.0
H2393 H 0.09581 0.65157 0.53098 0.0
H2394 H 0.08938 0.65266 0.54143 0.0
H2395 H 0.08468 0.64641 0.53196 0.0
C2396 C 0.07795 0.64449 0.56694 0.0
C2397 C 0.06915 0.64498 0.56303 0.0
C2398 C 0.08545 0.64136 0.56186 0.0
C2399 C 0.08434 0.63875 0.55272 0.0
C2400 C 0.07558 0.63928 0.54878 0.0
H2401 H 0.11634 0.61387 0.51007 0.0
H2402 H 0.10475 0.62092 0.51978 0.0
C2403 C 0.06808 0.64239 0.55386 0.0
C2404 C 0.09223 0.63508 0.54741 0.0
H2405 H 0.1045 0.63814 0.52781 0.0
C2406 C 0.09663 0.62712 0.55051 0.0
C2407 C 0.09522 0.63918 0.5392 0.0
C2408 C 0.09109 0.64798 0.53573 0.0
C2409 C 0.1037 0.62298 0.54547 0.0
C2410 C 0.10658 0.62699 0.53717 0.0
C2411 C 0.10229 0.63504 0.53416 0.0
C2412 C 0.11378 0.62277 0.53133 0.0
C2413 C 0.1078 0.61416 0.54891 0.0
C2414 C 0.12278 0.62154 0.53453 0.0
C2415 C 0.12947 0.61753 0.52895 0.0
C2416 C 0.12732 0.61473 0.52003 0.0
C2417 C 0.11831 0.61606 0.51684 0.0
C2418 C 0.11164 0.62005 0.52241 0.0
H2419 H 0.10341 0.61087 0.55415 0.0
H2420 H 0.10887 0.60925 0.54324 0.0
H2421 H 0.11457 0.61561 0.55205 0.0
H2422 H 0.12466 0.62375 0.54131 0.0
H2423 H 0.13636 0.61673 0.53159 0.0
H2424 H 0.952 0.15942 0.97421 0.0
H2425 H 0.93981 0.15139 0.98238 0.0
H2426 H 0.93288 0.13661 0.95793 0.0
H2427 H 0.94504 0.14466 0.94968 0.0
H2428 H 0.92104 0.15127 0.97869 0.0
H2429 H 0.93537 0.11614 0.97676 0.0
H2430 H 0.94214 0.12618 0.97431 0.0
H2431 H 0.93418 0.12188 0.96601 0.0
C2432 C 0.94787 0.15449 0.97054 0.0
C2433 C 0.94953 0.1527 0.96126 0.0
C2434 C 0.94092 0.14987 0.97524 0.0
C2435 C 0.93548 0.14331 0.97081 0.0
C2436 C 0.9371 0.14149 0.96156 0.0
H2437 H 0.89084 0.10874 0.99146 0.0
H2438 H 0.90177 0.11669 0.98154 0.0
C2439 C 0.94407 0.14611 0.95684 0.0
C2440 C 0.92798 0.1386 0.97586 0.0
H2441 H 0.92062 0.11767 0.98326 0.0
C2442 C 0.92095 0.14393 0.97969 0.0
C2443 C 0.92781 0.129 0.97711 0.0
C2444 C 0.93531 0.12295 0.97341 0.0
C2445 C 0.91379 0.13993 0.98473 0.0
C2446 C 0.91373 0.13035 0.98615 0.0
C2447 C 0.92066 0.12501 0.98217 0.0
C2448 C 0.90677 0.1258 0.99204 0.0
C2449 C 0.9063 0.14601 0.98839 0.0
C2450 C 0.90594 0.12824 1.00125 0.0
C2451 C 0.89966 0.12376 1.00691 0.0
C2452 C 0.8941 0.11665 1.00353 0.0
C2453 C 0.89491 0.11425 0.99427 0.0
C2454 C 0.90121 0.11875 0.98861 0.0
H2455 H 0.90578 0.15249 0.98446 0.0
H2456 H 0.89955 0.14251 0.98822 0.0
H2457 H 0.90788 0.14781 0.99556 0.0
H2458 H 0.91026 0.13353 1.00412 0.0
H2459 H 0.89918 0.12587 0.01396 0.0
H2460 H 0.12821 0.39618 1.00849 0.0
H2461 H 0.11678 0.38841 0.99901 0.0
H2462 H 0.11341 0.41291 0.98303 0.0
H2463 H 0.12501 0.42063 0.99226 0.0
H2464 H 0.09864 0.39307 0.99667 0.0
H2465 H 0.11643 0.39364 0.96338 0.0
H2466 H 0.12229 0.39592 0.97398 0.0
H2467 H 0.11565 0.40474 0.96853 0.0
C2468 C 0.12518 0.39987 1.00284 0.0
C2469 C 0.12757 0.40904 1.00114 0.0
C2470 C 0.11859 0.39543 0.99747 0.0
C2471 C 0.1143 0.40002 0.99022 0.0
C2472 C 0.11673 0.40915 0.98846 0.0
H2473 H 0.06938 0.39197 0.95311 0.0
H2474 H 0.08251 0.39719 0.96205 0.0
C2475 C 0.12331 0.41359 0.99383 0.0
C2476 C 0.10695 0.39548 0.9848 0.0
H2477 H 0.10039 0.39025 0.96306 0.0
C2478 C 0.09907 0.39235 0.98934 0.0
C2479 C 0.1075 0.39453 0.97522 0.0
C2480 C 0.11596 0.3973 0.96999 0.0
C2481 C 0.09159 0.38863 0.98453 0.0
C2482 C 0.09206 0.38789 0.97493 0.0
C2483 C 0.10002 0.39084 0.97041 0.0
C2484 C 0.0842 0.38449 0.9694 0.0
C2485 C 0.08311 0.38587 0.98973 0.0
C2486 C 0.08084 0.37554 0.97043 0.0
C2487 C 0.07326 0.37253 0.96535 0.0
C2488 C 0.0689 0.37842 0.95912 0.0
C2489 C 0.07244 0.38731 0.95797 0.0
C2490 C 0.08 0.39029 0.96303 0.0
H2491 H 0.08307 0.38872 0.99675 0.0
H2492 H 0.07682 0.38818 0.98615 0.0
H2493 H 0.08286 0.37831 0.99027 0.0
H2494 H 0.08406 0.37088 0.97519 0.0
H2495 H 0.07072 0.36566 0.96643 0.0
H2496 H 0.56341 0.93887 0.85911 0.0
H2497 H 0.55478 0.92709 0.86727 0.0
H2498 H 0.5521 0.9451 0.89034 0.0
H2499 H 0.56039 0.95705 0.88212 0.0
H2500 H 0.5582 0.91829 0.88354 0.0
H2501 H 0.52565 0.93774 0.88567 0.0
H2502 H 0.53498 0.94119 0.87837 0.0
H2503 H 0.53531 0.94372 0.89036 0.0
C2504 C 0.56089 0.94039 0.86588 0.0
C2505 C 0.56254 0.94898 0.8699 0.0
C2506 C 0.55602 0.9336 0.87057 0.0
C2507 C 0.55264 0.93524 0.87936 0.0
C2508 C 0.55446 0.94372 0.88349 0.0
H2509 H 0.52104 0.90448 0.91889 0.0
H2510 H 0.53058 0.91549 0.91073 0.0
C2511 C 0.55932 0.95052 0.87881 0.0
C2512 C 0.54722 0.92809 0.88421 0.0
H2513 H 0.52646 0.92399 0.89421 0.0
C2514 C 0.55125 0.91951 0.88583 0.0
C2515 C 0.53812 0.92967 0.88718 0.0
C2516 C 0.53322 0.93855 0.88524 0.0
C2517 C 0.54651 0.91257 0.89053 0.0
C2518 C 0.53745 0.9142 0.89359 0.0
C2519 C 0.53341 0.92275 0.89191 0.0
C2520 C 0.53204 0.90719 0.89863 0.0
C2521 C 0.55132 0.90364 0.89239 0.0
C2522 C 0.52968 0.89881 0.89457 0.0
C2523 C 0.52416 0.89249 0.89922 0.0
C2524 C 0.52082 0.89444 0.908 0.0
C2525 C 0.52334 0.90279 0.91208 0.0
C2526 C 0.52884 0.90909 0.90744 0.0
H2527 H 0.55888 0.90426 0.89161 0.0
H2528 H 0.5498 0.90115 0.89937 0.0
H2529 H 0.54886 0.89842 0.88748 0.0
H2530 H 0.53191 0.89726 0.88771 0.0
H2531 H 0.52227 0.88619 0.89581 0.0
H2532 H 0.4612 0.57576 0.86427 0.0
H2533 H 0.46971 0.58919 0.86964 0.0
H2534 H 0.46642 0.58012 0.89738 0.0
H2535 H 0.45787 0.56678 0.89212 0.0
H2536 H 0.46423 0.60314 0.88163 0.0
H2537 H 0.4941 0.5843 0.89556 0.0
H2538 H 0.48591 0.57907 0.88794 0.0
H2539 H 0.48326 0.58037 0.89983 0.0
C2540 C 0.46225 0.57664 0.87152 0.0
C2541 C 0.45891 0.57011 0.87775 0.0
C2542 C 0.46715 0.5843 0.87458 0.0
C2543 C 0.46887 0.58558 0.88391 0.0
C2544 C 0.46541 0.57917 0.89014 0.0
H2545 H 0.49515 0.62645 0.91789 0.0
H2546 H 0.48719 0.61314 0.91162 0.0
C2547 C 0.46051 0.57152 0.8871 0.0
C2548 C 0.47408 0.59371 0.88718 0.0
H2549 H 0.49303 0.60006 0.89937 0.0
C2550 C 0.47057 0.60247 0.88544 0.0
C2551 C 0.48234 0.59284 0.89218 0.0
C2552 C 0.48669 0.58365 0.89393 0.0
C2553 C 0.47494 0.61038 0.88878 0.0
C2554 C 0.48316 0.60951 0.89385 0.0
C2555 C 0.48672 0.60074 0.89551 0.0
C2556 C 0.48813 0.61759 0.8976 0.0
C2557 C 0.47055 0.61956 0.88709 0.0
C2558 C 0.49147 0.62448 0.89181 0.0
C2559 C 0.49605 0.6321 0.89538 0.0
C2560 C 0.49747 0.63298 0.90483 0.0
C2561 C 0.49427 0.62598 0.91059 0.0
C2562 C 0.48967 0.61837 0.90701 0.0
H2563 H 0.46318 0.61888 0.88528 0.0
H2564 H 0.47114 0.62403 0.89317 0.0
H2565 H 0.47408 0.62298 0.88133 0.0
H2566 H 0.49059 0.62393 0.88451 0.0
H2567 H 0.49857 0.63726 0.89072 0.0
H2568 H 0.57024 0.08449 0.65882 0.0
H2569 H 0.56142 0.09636 0.65096 0.0
H2570 H 0.5453 0.0756 0.63761 0.0
H2571 H 0.55391 0.0637 0.64561 0.0
H2572 H 0.55879 0.09953 0.6321 0.0
H2573 H 0.52587 0.09204 0.64955 0.0
H2574 H 0.53673 0.08773 0.6536 0.0
H2575 H 0.53107 0.08232 0.64415 0.0
C2576 C 0.56477 0.08244 0.65427 0.0
C2577 C 0.56275 0.07312 0.65292 0.0
C2578 C 0.55978 0.08924 0.64973 0.0
C2579 C 0.5526 0.08689 0.6438 0.0
C2580 C 0.5507 0.0776 0.64227 0.0
H2581 H 0.51267 0.11613 0.61132 0.0
H2582 H 0.52237 0.10489 0.61895 0.0
C2583 C 0.5557 0.07079 0.64678 0.0
C2584 C 0.54709 0.09414 0.63924 0.0
H2585 H 0.52531 0.10253 0.63725 0.0
C2586 C 0.55147 0.10023 0.63326 0.0
C2587 C 0.53755 0.09506 0.64077 0.0
C2588 C 0.53252 0.089 0.64742 0.0
C2589 C 0.54654 0.10704 0.62857 0.0
C2590 C 0.53698 0.1079 0.63004 0.0
C2591 C 0.53262 0.10187 0.6361 0.0
C2592 C 0.5313 0.11488 0.62524 0.0
C2593 C 0.55156 0.11306 0.62188 0.0
C2594 C 0.53303 0.12428 0.62625 0.0
C2595 C 0.52745 0.13076 0.62189 0.0
C2596 C 0.51996 0.12798 0.61651 0.0
C2597 C 0.51828 0.11855 0.61552 0.0
C2598 C 0.52385 0.11209 0.61984 0.0
H2599 H 0.55822 0.11003 0.6198 0.0
H2600 H 0.54736 0.11428 0.61569 0.0
H2601 H 0.55298 0.11977 0.62511 0.0
H2602 H 0.5386 0.12662 0.63053 0.0
H2603 H 0.52888 0.13796 0.62291 0.0
H2604 H 0.46052 0.45734 0.63177 0.0
H2605 H 0.4693 0.44402 0.62683 0.0
H2606 H 0.46611 0.43189 0.6534 0.0
H2607 H 0.45705 0.44509 0.65833 0.0
H2608 H 0.48552 0.43667 0.63356 0.0
H2609 H 0.45703 0.41162 0.63647 0.0
H2610 H 0.45516 0.42381 0.63676 0.0
H2611 H 0.4594 0.41797 0.64667 0.0
C2612 C 0.46159 0.45181 0.63655 0.0
C2613 C 0.45796 0.45227 0.64543 0.0
C2614 C 0.46668 0.44421 0.63373 0.0
C2615 C 0.46825 0.43687 0.63968 0.0
C2616 C 0.46485 0.43739 0.64862 0.0
H2617 H 0.49554 0.38425 0.63188 0.0
H2618 H 0.48772 0.39762 0.63818 0.0
C2619 C 0.45975 0.445 0.65146 0.0
C2620 C 0.47345 0.42872 0.63648 0.0
H2621 H 0.4716 0.40573 0.6326 0.0
C2622 C 0.48248 0.42991 0.63335 0.0
C2623 C 0.46949 0.41988 0.63621 0.0
C2624 C 0.45971 0.41821 0.63913 0.0
C2625 C 0.48766 0.42251 0.63003 0.0
C2626 C 0.48366 0.41369 0.62966 0.0
C2627 C 0.47468 0.41248 0.63288 0.0
C2628 C 0.48862 0.40565 0.62584 0.0
C2629 C 0.49743 0.42419 0.62709 0.0
C2630 C 0.49168 0.40565 0.61676 0.0
C2631 C 0.49614 0.398 0.61313 0.0
C2632 C 0.49758 0.39012 0.61845 0.0
C2633 C 0.49447 0.39014 0.62754 0.0
C2634 C 0.49003 0.3978 0.63117 0.0
H2635 H 0.50025 0.43054 0.63017 0.0
H2636 H 0.50192 0.41837 0.62899 0.0
H2637 H 0.49764 0.42499 0.61958 0.0
H2638 H 0.49048 0.41152 0.61243 0.0
H2639 H 0.49827 0.39818 0.60607 0.0
H2640 H 0.88994 0.52734 0.88352 0.0
H2641 H 0.88326 0.53518 0.89664 0.0
H2642 H 0.90908 0.53328 0.91083 0.0
H2643 H 0.91591 0.52569 0.89762 0.0
H2644 H 0.88135 0.52924 0.91446 0.0
H2645 H 0.90303 0.56044 0.9131 0.0
H2646 H 0.90239 0.5524 0.9038 0.0
H2647 H 0.9093 0.54989 0.91362 0.0
C2648 C 0.89425 0.52868 0.88938 0.0
C2649 C 0.9035 0.52593 0.88945 0.0
C2650 C 0.89039 0.53312 0.89691 0.0
C2651 C 0.89569 0.53497 0.90468 0.0
C2652 C 0.90489 0.5321 0.90485 0.0
H2653 H 0.88221 0.5617 0.95638 0.0
H2654 H 0.88996 0.55369 0.94392 0.0
C2655 C 0.90875 0.52765 0.89732 0.0
C2656 C 0.89152 0.53975 0.91262 0.0
H2657 H 0.89299 0.55905 0.9257 0.0
C2658 C 0.88389 0.53577 0.91691 0.0
C2659 C 0.89485 0.54826 0.91585 0.0
C2660 C 0.90279 0.55306 0.91132 0.0
C2661 C 0.87954 0.54001 0.92434 0.0
C2662 C 0.8828 0.54857 0.92749 0.0
C2663 C 0.8905 0.5525 0.92329 0.0
C2664 C 0.87816 0.55362 0.93499 0.0
C2665 C 0.87158 0.53522 0.92884 0.0
C2666 C 0.86901 0.55644 0.93406 0.0
C2667 C 0.86457 0.56106 0.94114 0.0
C2668 C 0.8692 0.56302 0.94934 0.0
C2669 C 0.87844 0.56037 0.95017 0.0
C2670 C 0.88288 0.55575 0.94306 0.0
H2671 H 0.87154 0.52778 0.92731 0.0
H2672 H 0.87175 0.53615 0.93634 0.0
H2673 H 0.86507 0.53816 0.92624 0.0
H2674 H 0.86528 0.55509 0.92782 0.0
H2675 H 0.85753 0.56317 0.94016 0.0
H2676 H 0.88023 0.4637 0.56576 0.0
H2677 H 0.88832 0.47138 0.57824 0.0
H2678 H 0.86824 0.46126 0.59728 0.0
H2679 H 0.8603 0.45334 0.58494 0.0
H2680 H 0.88191 0.48483 0.58995 0.0
H2681 H 0.8922 0.45412 0.60955 0.0
H2682 H 0.88815 0.45349 0.59795 0.0
H2683 H 0.88013 0.45456 0.60719 0.0
C2684 C 0.87761 0.46299 0.57263 0.0
C2685 C 0.86961 0.45787 0.57432 0.0
C2686 C 0.88221 0.46744 0.57975 0.0
C2687 C 0.87897 0.4668 0.58873 0.0
C2688 C 0.87099 0.46172 0.59045 0.0
H2689 H 0.89246 0.48969 0.64138 0.0
H2690 H 0.8858 0.4818 0.62828 0.0
C2691 C 0.86638 0.45728 0.58334 0.0
C2692 C 0.88374 0.47168 0.59629 0.0
H2693 H 0.89377 0.46846 0.6171 0.0
C2694 C 0.88458 0.48124 0.59585 0.0
C2695 C 0.88723 0.46701 0.60399 0.0
C2696 C 0.88698 0.45672 0.60469 0.0
C2697 C 0.88854 0.48628 0.60302 0.0
C2698 C 0.89189 0.48161 0.61079 0.0
C2699 C 0.89117 0.47204 0.61117 0.0
C2700 C 0.896 0.48653 0.61869 0.0
C2701 C 0.88884 0.49657 0.60234 0.0
C2702 C 0.90402 0.49177 0.61769 0.0
C2703 C 0.90789 0.49626 0.6252 0.0
C2704 C 0.90386 0.49557 0.6339 0.0
C2705 C 0.89584 0.49029 0.63484 0.0
C2706 C 0.89198 0.4858 0.62734 0.0
H2707 H 0.88407 0.49919 0.59704 0.0
H2708 H 0.88706 0.49977 0.60896 0.0
H2709 H 0.89589 0.49874 0.60049 0.0
H2710 H 0.90735 0.49228 0.61113 0.0
H2711 H 0.91415 0.50013 0.62422 0.0
H2712 H 0.14079 0.07136 0.57445 0.0
H2713 H 0.13271 0.06314 0.58659 0.0
H2714 H 0.15474 0.04356 0.58799 0.0
H2715 H 0.1628 0.05163 0.57582 0.0
H2716 H 0.1267 0.04488 0.58722 0.0
H2717 H 0.15206 0.05171 0.61454 0.0
H2718 H 0.15196 0.05795 0.60393 0.0
H2719 H 0.15694 0.04672 0.60448 0.0
C2720 C 0.1439 0.06527 0.5773 0.0
C2721 C 0.1525 0.06222 0.57418 0.0
C2722 C 0.13928 0.06061 0.58427 0.0
C2723 C 0.14319 0.05283 0.58833 0.0
C2724 C 0.15169 0.04968 0.58514 0.0
H2725 H 0.12825 0.01269 0.62895 0.0
H2726 H 0.13566 0.02228 0.61746 0.0
C2727 C 0.1563 0.05432 0.57817 0.0
C2728 C 0.13831 0.04787 0.59576 0.0
H2729 H 0.14057 0.0406 0.61778 0.0
C2730 C 0.12969 0.04402 0.59393 0.0
C2731 C 0.14222 0.04673 0.60452 0.0
C2732 C 0.15126 0.05107 0.60704 0.0
C2733 C 0.125 0.0388 0.60051 0.0
C2734 C 0.12897 0.03756 0.60924 0.0
C2735 C 0.13754 0.04153 0.6111 0.0
C2736 C 0.12447 0.03193 0.61643 0.0
C2737 C 0.116 0.03441 0.59796 0.0
C2738 C 0.11578 0.03426 0.61985 0.0
C2739 C 0.11149 0.02874 0.6264 0.0
C2740 C 0.11581 0.0208 0.62971 0.0
C2741 C 0.12464 0.01866 0.62645 0.0
C2742 C 0.12892 0.02417 0.61992 0.0
H2743 H 0.11503 0.03412 0.59046 0.0
H2744 H 0.11552 0.02736 0.60073 0.0
H2745 H 0.11029 0.03849 0.60087 0.0
H2746 H 0.11229 0.04031 0.61741 0.0
H2747 H 0.10469 0.03059 0.62869 0.0
H2748 H 0.63896 0.45866 0.45511 0.0
H2749 H 0.63061 0.46656 0.443 0.0
H2750 H 0.6558 0.46999 0.42802 0.0
H2751 H 0.66412 0.46174 0.43987 0.0
H2752 H 0.63263 0.48393 0.43694 0.0
H2753 H 0.6392 0.46001 0.40842 0.0
H2754 H 0.64149 0.45704 0.42013 0.0
H2755 H 0.64949 0.46396 0.41383 0.0
C2756 C 0.64272 0.46093 0.44917 0.0
C2757 C 0.65224 0.4595 0.4485 0.0
C2758 C 0.63793 0.46552 0.44226 0.0
C2759 C 0.64253 0.46876 0.4345 0.0
C2760 C 0.65204 0.46739 0.43382 0.0
H2761 H 0.6266 0.5029 0.38838 0.0
H2762 H 0.63488 0.49352 0.39951 0.0
C2763 C 0.65682 0.46277 0.4407 0.0
C2764 C 0.63745 0.47392 0.42733 0.0
H2765 H 0.63268 0.47443 0.4045 0.0
C2766 C 0.6326 0.48181 0.42986 0.0
C2767 C 0.63742 0.47118 0.41807 0.0
C2768 C 0.6421 0.46254 0.41495 0.0
C2769 C 0.62785 0.4871 0.4234 0.0
C2770 C 0.62785 0.48439 0.41415 0.0
C2771 C 0.63271 0.47652 0.41159 0.0
C2772 C 0.62276 0.48963 0.40707 0.0
C2773 C 0.62301 0.49567 0.4265 0.0
C2774 C 0.61318 0.49035 0.40746 0.0
C2775 C 0.60842 0.49564 0.40108 0.0
C2776 C 0.61313 0.50034 0.39413 0.0
C2777 C 0.62272 0.49934 0.39358 0.0
C2778 C 0.62748 0.49402 0.39997 0.0
H2779 H 0.62543 0.49795 0.43331 0.0
H2780 H 0.62406 0.50132 0.42156 0.0
H2781 H 0.61554 0.4943 0.42697 0.0
H2782 H 0.60937 0.48686 0.41276 0.0
H2783 H 0.60103 0.49606 0.40161 0.0
H2784 H 0.56119 0.64017 0.97171 0.0
H2785 H 0.57422 0.63431 0.98039 0.0
H2786 H 0.59266 0.6433 0.95926 0.0
H2787 H 0.57963 0.6491 0.95046 0.0
H2788 H 0.58652 0.62076 0.97445 0.0
H2789 H 0.60485 0.65307 0.98264 0.0
H2790 H 0.59305 0.65287 0.9789 0.0
H2791 H 0.60215 0.65133 0.97082 0.0
C2792 C 0.56801 0.64092 0.96889 0.0
C2793 C 0.56933 0.64509 0.96034 0.0
C2794 C 0.57547 0.6376 0.97389 0.0
C2795 C 0.58444 0.63842 0.97053 0.0
C2796 C 0.58582 0.64273 0.96209 0.0
H2797 H 0.63653 0.61797 0.99291 0.0
H2798 H 0.62491 0.62542 0.98332 0.0
C2799 C 0.57835 0.64606 0.95706 0.0
C2800 C 0.59221 0.63428 0.97565 0.0
H2801 H 0.61208 0.63927 0.98702 0.0
C2802 C 0.59211 0.62481 0.9772 0.0
C2803 C 0.59956 0.63955 0.97915 0.0
C2804 C 0.59993 0.64978 0.97787 0.0
C2805 C 0.59909 0.62047 0.98218 0.0
C2806 C 0.60631 0.62576 0.98591 0.0
C2807 C 0.60654 0.63522 0.98419 0.0
C2808 C 0.61345 0.62162 0.99188 0.0
C2809 C 0.59872 0.61022 0.98331 0.0
C2810 C 0.61092 0.61722 0.99999 0.0
C2811 C 0.61751 0.61298 1.00546 0.0
C2812 C 0.62684 0.61308 1.003 0.0
C2813 C 0.62942 0.61777 0.99502 0.0
C2814 C 0.62278 0.622 0.98952 0.0
H2815 H 0.59447 0.60696 0.97792 0.0
H2816 H 0.60569 0.60718 0.98312 0.0
H2817 H 0.59557 0.60856 0.98999 0.0
H2818 H 0.6038 0.61704 1.00209 0.0
H2819 H 0.61529 0.60965 0.01167 0.0
H2820 H 0.39524 0.91744 0.99049 0.0
H2821 H 0.40664 0.90931 0.98133 0.0
H2822 H 0.40535 0.88645 0.99982 0.0
H2823 H 0.39398 0.89452 1.00902 0.0
H2824 H 0.42373 0.90332 0.98646 0.0
H2825 H 0.40256 0.87388 0.97534 0.0
H2826 H 0.39763 0.88403 0.98032 0.0
H2827 H 0.40273 0.87542 0.98746 0.0
C2828 C 0.39736 0.91067 0.9926 0.0
C2829 C 0.39364 0.90664 1.00049 0.0
C2830 C 0.40387 0.90602 0.98734 0.0
C2831 C 0.40678 0.8972 0.9898 0.0
C2832 C 0.40306 0.89314 0.99764 0.0
H2833 H 0.44801 0.859 0.97075 0.0
H2834 H 0.43593 0.8672 0.97889 0.0
C2835 C 0.39654 0.89778 1.0029 0.0
C2836 C 0.414 0.89244 0.9844 0.0
H2837 H 0.41862 0.87279 0.97265 0.0
C2838 C 0.42259 0.89668 0.98338 0.0
C2839 C 0.41253 0.88376 0.98038 0.0
C2840 C 0.40334 0.87903 0.98084 0.0
C2841 C 0.4298 0.89239 0.97866 0.0
C2842 C 0.42835 0.88367 0.97473 0.0
C2843 C 0.41974 0.87946 0.97569 0.0
C2844 C 0.43571 0.87874 0.96969 0.0
C2845 C 0.43898 0.89711 0.97816 0.0
C2846 C 0.43956 0.88245 0.96173 0.0
C2847 C 0.44645 0.87775 0.95702 0.0
C2848 C 0.44962 0.8692 0.96012 0.0
C2849 C 0.44569 0.8655 0.96807 0.0
C2850 C 0.4388 0.8702 0.97277 0.0
H2851 H 0.43963 0.90259 0.98336 0.0
H2852 H 0.44467 0.89215 0.97913 0.0
H2853 H 0.43978 0.90029 0.97135 0.0
H2854 H 0.43716 0.88894 0.9591 0.0
H2855 H 0.44919 0.88074 0.95084 0.0
H2856 H 0.56753 0.39302 0.56665 0.0
H2857 H 0.58035 0.39836 0.55738 0.0
H2858 H 0.58949 0.37055 0.55386 0.0
H2859 H 0.57665 0.36513 0.56321 0.0
H2860 H 0.59908 0.39615 0.56048 0.0
H2861 H 0.58881 0.38018 0.52767 0.0
H2862 H 0.58102 0.38122 0.53716 0.0
H2863 H 0.58969 0.37251 0.53719 0.0
C2864 C 0.57228 0.38802 0.56396 0.0
C2865 C 0.57105 0.37863 0.56573 0.0
C2866 C 0.5796 0.39109 0.55862 0.0
C2867 C 0.58584 0.38486 0.55484 0.0
C2868 C 0.58466 0.37548 0.55655 0.0
H2869 H 0.6328 0.39586 0.51882 0.0
H2870 H 0.62182 0.38827 0.52897 0.0
C2871 C 0.57732 0.37239 0.56191 0.0
C2872 C 0.59368 0.38831 0.54929 0.0
H2873 H 0.60282 0.38825 0.52785 0.0
C2874 C 0.59991 0.3944 0.55335 0.0
C2875 C 0.59481 0.38598 0.54 0.0
C2876 C 0.5882 0.37967 0.53519 0.0
C2877 C 0.60717 0.39828 0.54838 0.0
C2878 C 0.60815 0.39617 0.53902 0.0
C2879 C 0.60207 0.38988 0.53502 0.0
C2880 C 0.61511 0.40076 0.53317 0.0
C2881 C 0.61376 0.40458 0.55323 0.0
C2882 C 0.615 0.41031 0.53213 0.0
C2883 C 0.62129 0.41466 0.5264 0.0
C2884 C 0.62782 0.40957 0.52148 0.0
C2885 C 0.62796 0.40001 0.52258 0.0
C2886 C 0.62164 0.39565 0.52833 0.0
H2887 H 0.61385 0.40326 0.56068 0.0
H2888 H 0.62083 0.40382 0.55054 0.0
H2889 H 0.61156 0.41176 0.55217 0.0
H2890 H 0.60993 0.4144 0.53565 0.0
H2891 H 0.62102 0.42203 0.5258 0.0
H2892 H 0.39602 0.12957 0.51219 0.0
H2893 H 0.40753 0.13686 0.52188 0.0
H2894 H 0.40536 0.11467 0.54109 0.0
H2895 H 0.39406 0.10715 0.53128 0.0
H2896 H 0.40665 0.14286 0.5397 0.0
H2897 H 0.43286 0.11554 0.53624 0.0
H2898 H 0.42288 0.11616 0.52899 0.0
H2899 H 0.42192 0.11169 0.54035 0.0
C2900 C 0.39803 0.12618 0.51844 0.0
C2901 C 0.39416 0.11771 0.52088 0.0
C2902 C 0.40458 0.1304 0.52401 0.0
C2903 C 0.40745 0.12624 0.53214 0.0
C2904 C 0.40341 0.11792 0.53476 0.0
H2905 H 0.44872 0.14275 0.57239 0.0
H2906 H 0.43647 0.13481 0.56414 0.0
C2907 C 0.39685 0.11369 0.52918 0.0
C2908 C 0.41467 0.13065 0.53784 0.0
H2909 H 0.4363 0.12765 0.54636 0.0
C2910 C 0.41313 0.13953 0.54115 0.0
C2911 C 0.42313 0.12631 0.53976 0.0
C2912 C 0.42537 0.11693 0.5361 0.0
C2913 C 0.41978 0.14415 0.54635 0.0
C2914 C 0.42829 0.13986 0.54816 0.0
C2915 C 0.42978 0.13093 0.54497 0.0
C2916 C 0.43581 0.14462 0.55313 0.0
C2917 C 0.41759 0.15356 0.54994 0.0
C2918 C 0.43966 0.15268 0.54961 0.0
C2919 C 0.4467 0.1572 0.55427 0.0
C2920 C 0.4501 0.15376 0.56257 0.0
C2921 C 0.44634 0.14558 0.566 0.0
C2922 C 0.43929 0.14105 0.56131 0.0
H2923 H 0.41008 0.15481 0.55016 0.0
H2924 H 0.42044 0.15454 0.55689 0.0
H2925 H 0.4207 0.15877 0.54539 0.0
H2926 H 0.43727 0.15545 0.54319 0.0
H2927 H 0.44955 0.16336 0.5513 0.0
H2928 H 0.99664 0.6369 0.63241 0.0
H2929 H 0.98867 0.62355 0.6386 0.0
H2930 H 0.98822 0.61128 0.61192 0.0
H2931 H 0.99614 0.62462 0.60566 0.0
H2932 H 0.97167 0.61667 0.63413 0.0
H2933 H 0.99844 0.59064 0.62744 0.0
H2934 H 1.00071 0.60276 0.62684 0.0
H2935 H 0.99518 0.597 0.6175 0.0
C2936 C 0.99483 0.63138 0.62784 0.0
C2937 C 0.99707 0.63185 0.61852 0.0
C2938 C 0.99031 0.62372 0.63141 0.0
C2939 C 0.98796 0.61633 0.62577 0.0
C2940 C 0.99015 0.61678 0.61646 0.0
H2941 H 0.95753 0.56587 0.63123 0.0
H2942 H 0.96649 0.57908 0.62626 0.0
C2943 C 0.99469 0.62443 0.61289 0.0
C2944 C 0.98291 0.60832 0.62955 0.0
H2945 H 0.98375 0.58506 0.63183 0.0
C2946 C 0.97435 0.60977 0.63369 0.0
C2947 C 0.98639 0.5993 0.62899 0.0
C2948 C 0.99572 0.59731 0.62503 0.0
C2949 C 0.96907 0.60244 0.63705 0.0
C2950 C 0.97251 0.59342 0.63639 0.0
C2951 C 0.98111 0.59197 0.63233 0.0
C2952 C 0.96716 0.58535 0.63958 0.0
C2953 C 0.95974 0.60441 0.64101 0.0
C2954 C 0.96464 0.58437 0.64877 0.0
C2955 C 0.95945 0.57683 0.65164 0.0
C2956 C 0.95667 0.57009 0.64538 0.0
C2957 C 0.95938 0.571 0.63622 0.0
C2958 C 0.96457 0.57853 0.63337 0.0
H2959 H 0.95722 0.61131 0.63906 0.0
H2960 H 0.95465 0.59924 0.63874 0.0
H2961 H 0.96015 0.60413 0.64855 0.0
H2962 H 0.9667 0.58946 0.65373 0.0
H2963 H 0.95747 0.57637 0.65873 0.0
H2964 H 0.0704 0.94914 0.642 0.0
H2965 H 0.06184 0.93727 0.63381 0.0
H2966 H 0.04147 0.93702 0.65507 0.0
H2967 H 0.04977 0.94906 0.66312 0.0
H2968 H 0.05712 0.91966 0.63935 0.0
H2969 H 0.02587 0.94 0.63229 0.0
H2970 H 0.03647 0.94516 0.63602 0.0
H2971 H 0.02894 0.93981 0.64412 0.0
C2972 C 0.06403 0.94665 0.64487 0.0
C2973 C 0.06078 0.9501 0.65323 0.0
C2974 C 0.05918 0.93981 0.64021 0.0
C2975 C 0.05094 0.93633 0.64375 0.0
C2976 C 0.04772 0.93971 0.6521 0.0
H2977 H 1.01099 0.89502 0.62933 0.0
H2978 H 0.02046 0.90669 0.63665 0.0
C2979 C 0.05255 0.94652 0.65676 0.0
C2980 C 0.04577 0.92905 0.63883 0.0
H2981 H 0.0248 0.92396 0.62974 0.0
C2982 C 0.05008 0.92062 0.63718 0.0
C2983 C 0.03658 0.9303 0.63598 0.0
C2984 C 0.03171 0.93933 0.6371 0.0
C2985 C 0.04536 0.91333 0.63302 0.0
C2986 C 0.03611 0.91454 0.63032 0.0
C2987 C 0.03186 0.92301 0.63186 0.0
C2988 C 0.03066 0.9071 0.62598 0.0
C2989 C 0.05021 0.90431 0.63181 0.0
C2990 C 0.03324 0.90341 0.61753 0.0
C2991 C 0.0278 0.89675 0.61328 0.0
C2992 C 0.01963 0.89367 0.61737 0.0
C2993 C 0.01715 0.8973 0.62591 0.0
C2994 C 0.02259 0.90396 0.63013 0.0
H2995 H 0.05641 0.9038 0.63618 0.0
H2996 H 0.04557 0.89851 0.63342 0.0
H2997 H 0.05241 0.90362 0.62461 0.0
H2998 H 0.03933 0.90585 0.61409 0.0
H2999 H 0.02985 0.89423 0.60666 0.0
H3000 H 0.95591 0.45558 0.89228 0.0
H3001 H 0.96435 0.44216 0.89754 0.0
H3002 H 0.96836 0.43361 0.86973 0.0
H3003 H 0.96018 0.44722 0.86438 0.0
H3004 H 0.9605 0.42392 0.895 0.0
H3005 H 0.99433 0.43245 0.8799 0.0
H3006 H 0.98518 0.4407 0.88079 0.0
H3007 H 0.98502 0.43226 0.8719 0.0
C3008 C 0.9587 0.45094 0.88725 0.0
C3009 C 0.95743 0.45257 0.87788 0.0
C3010 C 0.96347 0.44322 0.89029 0.0
C3011 C 0.96713 0.43694 0.88404 0.0
C3012 C 0.96577 0.43845 0.87469 0.0
H3013 H 0.99734 0.38585 0.89119 0.0
H3014 H 0.98907 0.39907 0.88508 0.0
C3015 C 0.96099 0.44619 0.87163 0.0
C3016 C 0.97216 0.42872 0.88739 0.0
H3017 H 0.99293 0.41788 0.88683 0.0
C3018 C 0.9676 0.42262 0.89323 0.0
C3019 C 0.98142 0.42699 0.88507 0.0
C3020 C 0.98683 0.43348 0.87914 0.0
C3021 C 0.97199 0.41482 0.89673 0.0
C3022 C 0.98128 0.41313 0.89447 0.0
C3023 C 0.98582 0.41918 0.88857 0.0
C3024 C 0.98639 0.40516 0.89823 0.0
C3025 C 0.96661 0.40836 0.90271 0.0
C3026 C 0.98778 0.40424 0.90765 0.0
C3027 C 0.99248 0.39667 0.91117 0.0
C3028 C 0.99593 0.38985 0.90535 0.0
C3029 C 0.99466 0.39088 0.89589 0.0
C3030 C 0.98998 0.39847 0.89237 0.0
H3031 H 0.9591 0.40929 0.90185 0.0
H3032 H 0.96836 0.40113 0.90119 0.0
H3033 H 0.96832 0.40971 0.90995 0.0
H3034 H 0.98521 0.40939 0.91229 0.0
H3035 H 0.99327 0.39609 0.91848 0.0
H3036 H 0.04935 0.07331 0.86019 0.0
H3037 H 0.04112 0.08544 0.86817 0.0
H3038 H 0.06173 0.08549 0.88922 0.0
H3039 H 0.0702 0.07356 0.88111 0.0
H3040 H 0.03366 0.08538 0.88535 0.0
H3041 H 0.06017 0.11251 0.88269 0.0
H3042 H 0.06062 0.10214 0.87605 0.0
H3043 H 0.06411 0.10207 0.88779 0.0
C3044 C 0.05223 0.07598 0.86645 0.0
C3045 C 0.06051 0.07248 0.86995 0.0
C3046 C 0.04746 0.08288 0.87104 0.0
C3047 C 0.05087 0.08651 0.87923 0.0
C3048 C 0.05905 0.08295 0.88282 0.0
H3049 H 0.02911 0.12789 0.91645 0.0
H3050 H 0.03849 0.11622 0.90895 0.0
C3051 C 0.06384 0.07604 0.87823 0.0
C3052 C 0.04568 0.09383 0.88406 0.0
H3053 H 0.04711 0.11589 0.89168 0.0
C3054 C 0.0366 0.09206 0.88671 0.0
C3055 C 0.04952 0.10254 0.88588 0.0
C3056 C 0.05911 0.10499 0.88289 0.0
C3057 C 0.03129 0.09871 0.89116 0.0
C3058 C 0.03508 0.10745 0.89289 0.0
C3059 C 0.0442 0.1092 0.89034 0.0
C3060 C 0.02963 0.11489 0.89721 0.0
C3061 C 0.02168 0.09626 0.89412 0.0
C3062 C 0.02166 0.11822 0.893 0.0
C3063 C 0.01631 0.12493 0.89723 0.0
C3064 C 0.01883 0.12851 0.90578 0.0
C3065 C 0.02699 0.12537 0.90984 0.0
C3066 C 0.03234 0.11865 0.90559 0.0
H3067 H 0.02068 0.08874 0.8945 0.0
H3068 H 0.02007 0.09928 0.90087 0.0
H3069 H 0.01672 0.09901 0.88909 0.0
H3070 H 0.01955 0.11559 0.88643 0.0
H3071 H 1.01019 0.1273 0.8938 0.0
H3072 H 0.66361 0.9698 0.57697 0.0
H3073 H 0.65549 0.97789 0.58907 0.0
H3074 H 0.63194 0.96052 0.58509 0.0
H3075 H 0.64014 0.95215 0.57319 0.0
H3076 H 0.63944 0.98762 0.5882 0.0
H3077 H 0.63569 0.95879 0.61248 0.0
H3078 H 0.64332 0.95832 0.60282 0.0
H3079 H 0.63123 0.95648 0.60132 0.0
C3080 C 0.65676 0.96758 0.57875 0.0
C3081 C 0.65258 0.96024 0.57412 0.0
C3082 C 0.65209 0.97227 0.58564 0.0
C3083 C 0.64315 0.96974 0.58812 0.0
C3084 C 0.6389 0.9625 0.58345 0.0
H3085 H 0.60334 0.99166 0.62659 0.0
H3086 H 0.61152 0.9828 0.61502 0.0
C3087 C 0.64357 0.95778 0.57655 0.0
C3088 C 0.63822 0.97486 0.59539 0.0
H3089 H 0.62773 0.97247 0.61609 0.0
C3090 C 0.63692 0.98431 0.59431 0.0
C3091 C 0.6349 0.97054 0.60338 0.0
C3092 C 0.63641 0.96049 0.60514 0.0
C3093 C 0.63229 0.98954 0.60091 0.0
C3094 C 0.62899 0.98523 0.6089 0.0
C3095 C 0.63026 0.97577 0.60998 0.0
C3096 C 0.62417 0.99043 0.61619 0.0
C3097 C 0.63079 0.99959 0.59915 0.0
C3098 C 0.62862 0.99755 0.62086 0.0
C3099 C 0.62394 1.00266 0.62745 0.0
C3100 C 0.61472 1.00075 0.62956 0.0
C3101 C 0.61038 0.99343 0.62505 0.0
C3102 C 0.61507 0.98831 0.61846 0.0
H3103 H 0.63158 1.00132 0.59182 0.0
H3104 H 0.62385 1.00175 0.60142 0.0
H3105 H 0.63593 1.0036 0.60304 0.0
H3106 H 0.63569 0.99921 0.61934 0.0
H3107 H 0.6275 1.00828 0.63072 0.0
H3108 H 0.64779 0.05115 0.95825 0.0
H3109 H 0.63985 0.04265 0.94625 0.0
H3110 H 0.64748 0.0633 0.9267 0.0
H3111 H 0.65547 0.07181 0.93866 0.0
H3112 H 0.62548 0.04754 0.93531 0.0
H3113 H 0.65604 0.04024 0.91403 0.0
H3114 H 0.65694 0.04453 0.92552 0.0
H3115 H 0.65427 0.05217 0.91628 0.0
C3116 C 0.64774 0.05391 0.95141 0.0
C3117 C 0.65232 0.06215 0.94942 0.0
C3118 C 0.64323 0.04902 0.94454 0.0
C3119 C 0.6432 0.05222 0.93552 0.0
C3120 C 0.64761 0.06054 0.93354 0.0
H3121 H 0.61819 0.0305 0.88562 0.0
H3122 H 0.62628 0.04 0.89681 0.0
C3123 C 0.65216 0.06541 0.9404 0.0
C3124 C 0.6384 0.04694 0.92825 0.0
H3125 H 0.64161 0.03607 0.90787 0.0
C3126 C 0.62902 0.04502 0.92933 0.0
C3127 C 0.64299 0.04368 0.9204 0.0
C3128 C 0.65313 0.04517 0.919 0.0
C3129 C 0.62412 0.03998 0.92278 0.0
C3130 C 0.62873 0.03663 0.91498 0.0
C3131 C 0.63807 0.03865 0.91383 0.0
C3132 C 0.62403 0.03078 0.90811 0.0
C3133 C 0.61399 0.03841 0.92421 0.0
C3134 C 0.62026 0.02233 0.91068 0.0
C3135 C 0.61568 0.01688 0.90431 0.0
C3136 C 0.61478 0.01971 0.89518 0.0
C3137 C 0.61878 0.02807 0.89257 0.0
C3138 C 0.62337 0.03354 0.89897 0.0
H3139 H 0.61102 0.04346 0.92902 0.0
H3140 H 0.61019 0.03879 0.91767 0.0
H3141 H 0.61294 0.03149 0.92715 0.0
H3142 H 0.6209 0.01992 0.91763 0.0
H3143 H 0.61289 1.01038 0.90654 0.0
H3144 H 0.41662 0.49725 0.89779 0.0
H3145 H 0.40978 0.48937 0.91086 0.0
H3146 H 0.38402 0.48759 0.89656 0.0
H3147 H 0.39075 0.49551 0.88352 0.0
H3148 H 0.39464 0.49396 0.92169 0.0
H3149 H 0.38872 0.46105 0.90391 0.0
H3150 H 0.39606 0.46987 0.89934 0.0
H3151 H 0.38382 0.47072 0.89817 0.0
C3152 C 0.40947 0.49525 0.89744 0.0
C3153 C 0.40427 0.49696 0.88953 0.0
C3154 C 0.40559 0.4907 0.90491 0.0
C3155 C 0.39644 0.48772 0.90464 0.0
C3156 C 0.39117 0.48961 0.89685 0.0
H3157 H 0.35834 0.4601 0.94039 0.0
H3158 H 0.36632 0.46794 0.92802 0.0
C3159 C 0.39504 0.49414 0.88939 0.0
C3160 C 0.39234 0.48273 0.9125 0.0
H3161 H 0.38171 0.46276 0.91843 0.0
C3162 C 0.39188 0.48711 0.921 0.0
C3163 C 0.38874 0.47378 0.91161 0.0
C3164 C 0.38942 0.46853 0.9028 0.0
C3165 C 0.38765 0.48291 0.92854 0.0
C3166 C 0.38394 0.474 0.92761 0.0
C3167 C 0.38452 0.46958 0.91914 0.0
C3168 C 0.37918 0.46924 0.93525 0.0
C3169 C 0.38694 0.48816 0.93735 0.0
C3170 C 0.38377 0.46724 0.94343 0.0
C3171 C 0.37919 0.4628 0.95057 0.0
C3172 C 0.36992 0.46024 0.94969 0.0
C3173 C 0.36541 0.46212 0.94141 0.0
C3174 C 0.36999 0.46655 0.93429 0.0
H3175 H 0.38803 0.49561 0.93631 0.0
H3176 H 0.38014 0.48712 0.94058 0.0
H3177 H 0.39227 0.48569 0.94215 0.0
H3178 H 0.39091 0.46907 0.94428 0.0
H3179 H 0.38288 0.46151 0.95684 0.0
H3180 H 0.88037 0.05769 0.06588 0.0
H3181 H 0.88825 0.04973 0.07832 0.0
H3182 H 0.86792 0.05946 0.09727 0.0
H3183 H 0.86005 0.06747 0.08493 0.0
H3184 H 0.89579 0.05635 0.09461 0.0
H3185 H 0.86763 0.03188 0.10168 0.0
H3186 H 0.86804 0.0387 0.09144 0.0
H3187 H 0.86411 0.04363 0.10195 0.0
C3188 C 0.87761 0.0582 0.07271 0.0
C3189 C 0.86951 0.06317 0.07437 0.0
C3190 C 0.88211 0.05361 0.07981 0.0
C3191 C 0.87859 0.05384 0.08871 0.0
C3192 C 0.87064 0.05897 0.09042 0.0
H3193 H 0.89329 0.03197 0.14153 0.0
H3194 H 0.88639 0.03972 0.12847 0.0
C3195 C 0.86614 0.06355 0.08335 0.0
C3196 C 0.88323 0.04879 0.09622 0.0
H3197 H 0.87977 0.03239 0.11247 0.0
C3198 C 0.89232 0.05106 0.09847 0.0
C3199 C 0.87871 0.04188 0.10127 0.0
C3200 C 0.86911 0.0388 0.09892 0.0
C3201 C 0.89689 0.04682 0.10579 0.0
C3202 C 0.89231 0.03999 0.11091 0.0
C3203 C 0.88327 0.03764 0.10858 0.0
C3204 C 0.89669 0.03532 0.11883 0.0
C3205 C 0.90647 0.04991 0.10816 0.0
C3206 C 0.90474 0.03017 0.11777 0.0
C3207 C 0.90877 0.02577 0.12526 0.0
C3208 C 0.9048 0.02639 0.13398 0.0
C3209 C 0.89665 0.03147 0.13497 0.0
C3210 C 0.89265 0.03586 0.12749 0.0
H3211 H 0.90809 0.05669 0.10515 0.0
H3212 H 0.90741 0.05031 0.11565 0.0
H3213 H 0.91147 0.04489 0.10543 0.0
H3214 H 0.9079 0.02949 0.11113 0.0
H3215 H 0.91505 0.02197 0.12423 0.0
H3216 H 0.39532 0.41708 0.03009 0.0
H3217 H 0.40684 0.40943 0.03955 0.0
H3218 H 0.40575 0.38584 0.022 0.0
H3219 H 0.39421 0.39338 0.01255 0.0
H3220 H 0.40647 0.3927 0.04908 0.0
H3221 H 0.43307 0.39234 0.02209 0.0
H3222 H 0.42285 0.39925 0.0213 0.0
H3223 H 0.4224 0.38724 0.01873 0.0
C3224 C 0.39744 0.41022 0.02829 0.0
C3225 C 0.39387 0.40589 0.02049 0.0
C3226 C 0.40407 0.40587 0.03369 0.0
C3227 C 0.40731 0.39713 0.03139 0.0
C3228 C 0.40354 0.39267 0.02378 0.0
H3229 H 0.44736 0.35887 0.05236 0.0
H3230 H 0.4354 0.36701 0.04399 0.0
C3231 C 0.39693 0.39701 0.01839 0.0
C3232 C 0.41465 0.39267 0.03688 0.0
H3233 H 0.43626 0.38375 0.03544 0.0
C3234 C 0.41301 0.39079 0.04612 0.0
C3235 C 0.42319 0.3902 0.03303 0.0
C3236 C 0.42555 0.39243 0.02327 0.0
C3237 C 0.41957 0.38627 0.05153 0.0
C3238 C 0.42808 0.3837 0.04764 0.0
C3239 C 0.42974 0.38568 0.03843 0.0
C3240 C 0.43528 0.37877 0.05292 0.0
C3241 C 0.41722 0.38403 0.06128 0.0
C3242 C 0.43929 0.3827 0.06069 0.0
C3243 C 0.4461 0.37801 0.06556 0.0
C3244 C 0.44909 0.36931 0.06273 0.0
C3245 C 0.44513 0.36547 0.05486 0.0
C3246 C 0.43833 0.37015 0.05001 0.0
H3247 H 0.40972 0.38434 0.06253 0.0
H3248 H 0.41972 0.37711 0.06316 0.0
H3249 H 0.42058 0.38907 0.06584 0.0
H3250 H 0.43719 0.38942 0.06297 0.0
H3251 H 0.44895 0.38117 0.0716 0.0
H3252 H 0.57911 0.13794 0.07748 0.0
H3253 H 0.59181 0.13252 0.06806 0.0
H3254 H 0.57971 0.14539 0.04453 0.0
H3255 H 0.56691 0.15075 0.05389 0.0
H3256 H 0.59054 0.12096 0.05298 0.0
H3257 H 0.60643 0.15405 0.04332 0.0
H3258 H 0.5984 0.153 0.05262 0.0
H3259 H 0.59435 0.15332 0.04106 0.0
C3260 C 0.57913 0.13963 0.0703 0.0
C3261 C 0.57194 0.14477 0.06646 0.0
C3262 C 0.58643 0.13656 0.06493 0.0
C3263 C 0.58678 0.13862 0.0556 0.0
C3264 C 0.5797 0.14387 0.05175 0.0
H3265 H 0.6214 0.123 1.01026 0.0
H3266 H 0.61014 0.12981 0.02053 0.0
C3267 C 0.57238 0.14694 0.05712 0.0
C3268 C 0.59428 0.13484 0.04983 0.0
H3269 H 0.61182 0.14083 0.03558 0.0
C3270 C 0.59523 0.12531 0.04922 0.0
C3271 C 0.60039 0.14051 0.04491 0.0
C3272 C 0.59993 0.15079 0.04554 0.0
C3273 C 0.60197 0.12128 0.04367 0.0
C3274 C 0.60808 0.12694 0.03872 0.0
C3275 C 0.60716 0.13649 0.03937 0.0
C3276 C 0.61527 0.12308 0.03262 0.0
C3277 C 0.60227 0.11099 0.04292 0.0
C3278 C 0.62208 0.11719 0.03601 0.0
C3279 C 0.6285 0.1132 0.03012 0.0
C3280 C 0.62829 0.11506 0.02071 0.0
C3281 C 0.62167 0.12125 0.01742 0.0
C3282 C 0.61526 0.12521 0.0233 0.0
H3283 H 0.59573 0.10781 0.04517 0.0
H3284 H 0.60368 0.10882 0.03582 0.0
H3285 H 0.60783 0.10833 0.04734 0.0
H3286 H 0.62238 0.11559 0.0432 0.0
H3287 H 0.63346 0.10845 0.03291 0.0
H3288 H 0.40198 0.60202 0.49662 0.0
H3289 H 0.41312 0.61049 0.48748 0.0
H3290 H 0.39963 0.63577 0.49438 0.0
H3291 H 0.38867 0.62739 0.50384 0.0
H3292 H 0.41124 0.62174 0.47266 0.0
H3293 H 0.42591 0.64112 0.5017 0.0
H3294 H 0.41835 0.63149 0.50327 0.0
H3295 H 0.41376 0.64253 0.50038 0.0
C3296 C 0.40141 0.6094 0.49627 0.0
C3297 C 0.39446 0.61402 0.50109 0.0
C3298 C 0.40776 0.61423 0.49098 0.0
C3299 C 0.40735 0.6238 0.49037 0.0
C3300 C 0.40023 0.62841 0.49489 0.0
H3301 H 0.44128 0.66457 0.4632 0.0
H3302 H 0.42921 0.65635 0.47136 0.0
C3303 C 0.39388 0.62359 0.50021 0.0
C3304 C 0.41441 0.6289 0.48508 0.0
H3305 H 0.4311 0.64524 0.48697 0.0
C3306 C 0.41559 0.62686 0.4758 0.0
C3307 C 0.42013 0.63558 0.48917 0.0
C3308 C 0.41956 0.63777 0.49919 0.0
C3309 C 0.42222 0.6314 0.47049 0.0
C3310 C 0.42791 0.63807 0.47458 0.0
C3311 C 0.42671 0.64014 0.48384 0.0
C3312 C 0.43519 0.64297 0.4694 0.0
C3313 C 0.42296 0.62912 0.4605 0.0
C3314 C 0.44264 0.6382 0.46564 0.0
C3315 C 0.44962 0.64289 0.46103 0.0
C3316 C 0.44934 0.65248 0.46011 0.0
C3317 C 0.44183 0.65721 0.46388 0.0
C3318 C 0.43487 0.65252 0.4685 0.0
H3319 H 0.41671 0.6256 0.45794 0.0
H3320 H 0.4241 0.63539 0.45638 0.0
H3321 H 0.42889 0.62449 0.45943 0.0
H3322 H 0.44314 0.63086 0.46641 0.0
H3323 H 0.45535 0.63902 0.45837 0.0
H3324 H 0.57334 0.86586 0.46414 0.0
H3325 H 0.58564 0.87194 0.47382 0.0
H3326 H 0.58201 0.89859 0.46181 0.0
H3327 H 0.56959 0.89268 0.45235 0.0
H3328 H 0.60228 0.88051 0.46896 0.0
H3329 H 0.58032 0.90393 0.48906 0.0
H3330 H 0.57566 0.8949 0.48207 0.0
H3331 H 0.57926 0.9055 0.47698 0.0
C3332 C 0.5751 0.87304 0.46362 0.0
C3333 C 0.57044 0.87877 0.45746 0.0
C3334 C 0.58217 0.87649 0.46912 0.0
C3335 C 0.58467 0.88576 0.46864 0.0
C3336 C 0.58012 0.89146 0.46242 0.0
H3337 H 0.6238 0.9224 0.49351 0.0
H3338 H 0.61218 0.91481 0.48419 0.0
C3339 C 0.57307 0.88802 0.45693 0.0
C3340 C 0.59206 0.88951 0.47456 0.0
H3341 H 0.59645 0.90599 0.49048 0.0
C3342 C 0.601 0.88602 0.47373 0.0
C3343 C 0.59039 0.8967 0.4808 0.0
C3344 C 0.58088 0.90043 0.48237 0.0
C3345 C 0.60835 0.88975 0.47873 0.0
C3346 C 0.6067 0.89706 0.48483 0.0
C3347 C 0.59774 0.90043 0.48577 0.0
C3348 C 0.61416 0.90146 0.49021 0.0
C3349 C 0.61787 0.88601 0.47723 0.0
C3350 C 0.61919 0.89648 0.4967 0.0
C3351 C 0.62584 0.90082 0.50208 0.0
C3352 C 0.62756 0.91026 0.50114 0.0
C3353 C 0.62259 0.91517 0.49452 0.0
C3354 C 0.61596 0.91083 0.48916 0.0
H3355 H 0.61834 0.882 0.47083 0.0
H3356 H 0.623 0.89163 0.47698 0.0
H3357 H 0.6197 0.88144 0.48298 0.0
H3358 H 0.61781 0.88929 0.49777 0.0
H3359 H 0.62941 0.89685 0.50719 0.0
H3360 H 0.06285 0.45557 0.38369 0.0
H3361 H 0.05501 0.44331 0.39193 0.0
H3362 H 0.05168 0.42835 0.36685 0.0
H3363 H 0.05985 0.44036 0.35863 0.0
H3364 H 0.03758 0.43709 0.38982 0.0
H3365 H 0.06187 0.40871 0.38333 0.0
H3366 H 0.06476 0.4205 0.38113 0.0
H3367 H 0.05792 0.41417 0.37311 0.0
C3368 C 0.06061 0.4496 0.37994 0.0
C3369 C 0.06204 0.44898 0.37047 0.0
C3370 C 0.05606 0.44262 0.38466 0.0
C3371 C 0.05286 0.43482 0.38005 0.0
C3372 C 0.05424 0.43419 0.37061 0.0
H3373 H 0.01902 0.38813 0.39562 0.0
H3374 H 0.02836 0.39941 0.38746 0.0
C3375 C 0.05881 0.44115 0.36589 0.0
C3376 C 0.04774 0.42756 0.38506 0.0
H3377 H 0.04743 0.40463 0.38974 0.0
C3378 C 0.03978 0.43001 0.38985 0.0
C3379 C 0.05057 0.41829 0.38509 0.0
C3380 C 0.05929 0.41525 0.38046 0.0
C3381 C 0.03451 0.42346 0.39452 0.0
C3382 C 0.03732 0.4142 0.39451 0.0
C3383 C 0.04527 0.41172 0.38972 0.0
C3384 C 0.03212 0.40703 0.39952 0.0
C3385 C 0.02585 0.42648 0.39928 0.0
C3386 C 0.03133 0.4074 0.40904 0.0
C3387 C 0.02607 0.40093 0.41373 0.0
C3388 C 0.02145 0.39391 0.40901 0.0
C3389 C 0.02252 0.39338 0.39949 0.0
C3390 C 0.02781 0.39986 0.39481 0.0
H3391 H 0.02351 0.43329 0.39687 0.0
H3392 H 0.02025 0.42145 0.3982 0.0
H3393 H 0.02718 0.42695 0.4067 0.0
H3394 H 0.03475 0.41276 0.41284 0.0
H3395 H 0.02559 0.40146 0.42107 0.0
H3396 H 0.95749 0.06693 0.39173 0.0
H3397 H 0.96642 0.08011 0.39682 0.0
H3398 H 0.96875 0.08943 0.36906 0.0
H3399 H 0.95959 0.07635 0.36392 0.0
H3400 H 0.98426 0.08545 0.39203 0.0
H3401 H 0.95881 0.11203 0.38242 0.0
H3402 H 0.95592 0.10004 0.38307 0.0
H3403 H 0.9621 0.10439 0.37341 0.0
C3404 C 0.95981 0.07182 0.3867 0.0
C3405 C 0.95772 0.07061 0.37741 0.0
C3406 C 0.96497 0.07933 0.38962 0.0
C3407 C 0.96815 0.08585 0.38335 0.0
C3408 C 0.96624 0.08459 0.37405 0.0
H3409 H 0.99806 0.13713 0.39092 0.0
H3410 H 0.9902 0.12378 0.38459 0.0
C3411 C 0.96108 0.07705 0.37111 0.0
C3412 C 0.97349 0.0939 0.3866 0.0
H3413 H 0.97302 0.11722 0.38816 0.0
C3414 C 0.98181 0.0924 0.39119 0.0
C3415 C 0.9703 0.10297 0.38548 0.0
C3416 C 0.96126 0.105 0.3809 0.0
C3417 C 0.98705 0.09971 0.39462 0.0
C3418 C 0.98379 0.10878 0.39362 0.0
C3419 C 0.97552 0.11028 0.38894 0.0
C3420 C 0.98877 0.1168 0.3975 0.0
C3421 C 0.99611 0.09765 0.39914 0.0
C3422 C 0.99053 0.11739 0.40689 0.0
C3423 C 0.99502 0.12503 0.41054 0.0
C3424 C 0.99778 0.13231 0.40489 0.0
C3425 C 0.99596 0.13171 0.39549 0.0
C3426 C 0.99149 0.12406 0.39185 0.0
H3427 H 0.99884 0.0909 0.397 0.0
H3428 H 1.00128 0.10298 0.39755 0.0
H3429 H 0.99513 0.09746 0.40664 0.0
H3430 H 0.98829 0.112 0.41144 0.0
H3431 H 0.99615 0.12532 0.41782 0.0
H3432 H 0.02095 0.63532 0.12746 0.0
H3433 H 0.03063 0.62438 0.13566 0.0
H3434 H 0.03323 0.60819 0.11127 0.0
H3435 H 0.02388 0.61923 0.10296 0.0
H3436 H 0.02723 0.60624 0.13877 0.0
H3437 H 0.05965 0.6098 0.11946 0.0
H3438 H 0.05041 0.61794 0.11849 0.0
H3439 H 0.04999 0.60733 0.11231 0.0
C3440 C 0.02373 0.62953 0.12378 0.0
C3441 C 0.02161 0.62818 0.11453 0.0
C3442 C 0.02922 0.62324 0.12851 0.0
C3443 C 0.03278 0.6155 0.12407 0.0
C3444 C 0.03074 0.61419 0.11482 0.0
H3445 H 0.06142 0.56599 0.14032 0.0
H3446 H 0.05341 0.57824 0.13219 0.0
C3447 C 0.02527 0.62046 0.11009 0.0
C3448 C 0.03818 0.60855 0.12921 0.0
H3449 H 0.05852 0.59689 0.12935 0.0
C3450 C 0.03411 0.60427 0.13676 0.0
C3451 C 0.04715 0.60592 0.12658 0.0
C3452 C 0.0521 0.61055 0.11882 0.0
C3453 C 0.03864 0.5973 0.1416 0.0
C3454 C 0.04756 0.59461 0.1389 0.0
C3455 C 0.05167 0.59893 0.13139 0.0
C3456 C 0.05271 0.58732 0.14379 0.0
C3457 C 0.03374 0.5927 0.1494 0.0
C3458 C 0.05516 0.58841 0.15297 0.0
C3459 C 0.0598 0.58145 0.15763 0.0
C3460 C 0.06212 0.57322 0.15321 0.0
C3461 C 0.05983 0.57224 0.14394 0.0
C3462 C 0.0552 0.57922 0.13928 0.0
H3463 H 0.02624 0.59398 0.14921 0.0
H3464 H 0.03494 0.5852 0.14932 0.0
H3465 H 0.03643 0.59543 0.15593 0.0
H3466 H 0.0535 0.59467 0.15654 0.0
H3467 H 0.06162 0.58256 0.16469 0.0
H3468 H 0.98249 0.88509 0.11387 0.0
H3469 H 0.97472 0.89838 0.12036 0.0
H3470 H 1.00074 0.90939 0.12895 0.0
H3471 H 1.00859 0.89608 0.12252 0.0
H3472 H 0.97457 0.90453 0.13828 0.0
H3473 H 0.98932 0.93093 0.11536 0.0
H3474 H 0.99009 0.91886 0.11294 0.0
H3475 H 0.99764 0.92399 0.12116 0.0
C3476 C 0.98658 0.8903 0.11718 0.0
C3477 C 0.99619 0.88949 0.11765 0.0
C3478 C 0.98212 0.89793 0.12085 0.0
C3479 C 0.98714 0.90496 0.12504 0.0
C3480 C 0.99673 0.90416 0.12557 0.0
H3481 H 0.96976 0.95657 0.14999 0.0
H3482 H 0.97865 0.94328 0.14497 0.0
C3483 C 1.00121 0.89654 0.12189 0.0
C3484 C 0.98229 0.91298 0.12903 0.0
H3485 H 0.98009 0.93621 0.12751 0.0
C3486 C 0.97577 0.91146 0.13591 0.0
C3487 C 0.98389 0.92203 0.12599 0.0
C3488 C 0.99055 0.92408 0.11841 0.0
C3489 C 0.97085 0.91872 0.13985 0.0
C3490 C 0.97234 0.92775 0.13671 0.0
C3491 C 0.97895 0.92929 0.12993 0.0
C3492 C 0.9669 0.93565 0.14015 0.0
C3493 C 0.96418 0.91665 0.14743 0.0
C3494 C 0.95733 0.93582 0.13911 0.0
C3495 C 0.95222 0.94337 0.14202 0.0
C3496 C 0.95657 0.95099 0.146 0.0
C3497 C 0.96616 0.95078 0.14708 0.0
C3498 C 0.97127 0.94322 0.14415 0.0
H3499 H 0.9658 0.91005 0.15083 0.0
H3500 H 0.96419 0.92215 0.15263 0.0
H3501 H 0.95716 0.91611 0.14456 0.0
H3502 H 0.9538 0.93016 0.13589 0.0
H3503 H 0.94485 0.94324 0.14114 0.0
H3504 H 0.40676 0.0161 0.39922 0.0
H3505 H 0.40005 0.02414 0.41224 0.0
H3506 H 0.39205 0.04634 0.39464 0.0
H3507 H 0.39889 0.03848 0.38164 0.0
H3508 H 0.40403 0.04219 0.41919 0.0
H3509 H 0.36794 0.03887 0.40757 0.0
H3510 H 0.37711 0.03198 0.40297 0.0
H3511 H 0.37567 0.04361 0.39929 0.0
C3512 C 0.40366 0.02273 0.39811 0.0
C3513 C 0.40333 0.02659 0.38931 0.0
C3514 C 0.39978 0.0273 0.40557 0.0
C3515 C 0.39542 0.03578 0.4044 0.0
C3516 C 0.39521 0.03972 0.39568 0.0
H3517 H 0.36567 0.07386 0.43873 0.0
H3518 H 0.37334 0.06576 0.42632 0.0
C3519 C 0.39911 0.03518 0.38824 0.0
C3520 C 0.39113 0.04054 0.41227 0.0
H3521 H 0.37062 0.04843 0.4203 0.0
C3522 C 0.39671 0.04352 0.41947 0.0
C3523 C 0.38159 0.04229 0.41262 0.0
C3524 C 0.37519 0.03896 0.40525 0.0
C3525 C 0.39306 0.0484 0.4269 0.0
C3526 C 0.38351 0.05017 0.42724 0.0
C3527 C 0.37793 0.04711 0.42005 0.0
C3528 C 0.37915 0.05523 0.43492 0.0
C3529 C 0.39951 0.05184 0.43417 0.0
C3530 C 0.37981 0.05201 0.44392 0.0
C3531 C 0.37543 0.05665 0.45105 0.0
C3532 C 0.37019 0.06455 0.44932 0.0
C3533 C 0.36956 0.06775 0.4403 0.0
C3534 C 0.37397 0.06314 0.43319 0.0
H3535 H 0.40669 0.0522 0.43167 0.0
H3536 H 0.39744 0.05873 0.4366 0.0
H3537 H 0.39936 0.04708 0.44005 0.0
H3538 H 0.38355 0.0458 0.44541 0.0
H3539 H 0.37594 0.0539 0.45788 0.0
H3540 H 0.36717 0.94868 0.08438 0.0
H3541 H 0.37486 0.95696 0.0967 0.0
H3542 H 0.38393 0.97741 0.07757 0.0
H3543 H 0.37609 0.96927 0.06524 0.0
H3544 H 0.3937 0.96194 0.09849 0.0
H3545 H 0.37098 0.99241 0.09761 0.0
H3546 H 0.36795 0.98175 0.09218 0.0
H3547 H 0.37607 0.98932 0.08691 0.0
C3548 C 0.37074 0.95497 0.08279 0.0
C3549 C 0.37095 0.95833 0.07381 0.0
C3550 C 0.37518 0.95967 0.08984 0.0
C3551 C 0.37986 0.96787 0.0881 0.0
C3552 C 0.38024 0.97117 0.07912 0.0
H3553 H 0.40742 1.00698 0.12397 0.0
H3554 H 0.40113 0.99882 0.11082 0.0
C3555 C 0.37583 0.96645 0.07205 0.0
C3556 C 0.38434 0.97295 0.09568 0.0
H3557 H 0.38364 0.993 0.10763 0.0
C3558 C 0.3915 0.96873 0.1005 0.0
C3559 C 0.3815 0.98183 0.09827 0.0
C3560 C 0.37366 0.9866 0.09354 0.0
C3561 C 0.39594 0.97316 0.10778 0.0
C3562 C 0.393 0.98199 0.11047 0.0
C3563 C 0.3859 0.98625 0.10558 0.0
C3564 C 0.39705 0.98684 0.11845 0.0
C3565 C 0.40385 0.96839 0.1124 0.0
C3566 C 0.39679 0.98288 0.12716 0.0
C3567 C 0.40046 0.98749 0.13469 0.0
C3568 C 0.40439 0.99624 0.13372 0.0
C3569 C 0.40458 1.00022 0.12498 0.0
C3570 C 0.40092 0.99558 0.11745 0.0
H3571 H 0.40699 0.96316 0.1079 0.0
H3572 H 0.40924 0.97335 0.11446 0.0
H3573 H 0.40132 0.96487 0.1186 0.0
H3574 H 0.39367 0.97624 0.12818 0.0
H3575 H 0.40026 0.98415 0.14126 0.0
H3576 H 0.60846 0.51438 0.11703 0.0
H3577 H 0.61632 0.52433 0.10619 0.0
H3578 H 0.62947 0.53851 0.12836 0.0
H3579 H 0.62181 0.52839 0.1393 0.0
H3580 H 0.6158 0.54337 0.10437 0.0
H3581 H 0.65111 0.53135 0.11202 0.0
H3582 H 0.64104 0.52523 0.11574 0.0
H3583 H 0.6447 0.53533 0.12168 0.0
C3584 C 0.6131 0.51954 0.11963 0.0
C3585 C 0.61458 0.52049 0.12906 0.0
C3586 C 0.61754 0.52528 0.1134 0.0
C3587 C 0.6236 0.53208 0.11643 0.0
C3588 C 0.62495 0.5332 0.12585 0.0
H3589 H 0.65852 0.5702 0.08628 0.0
H3590 H 0.65025 0.56189 0.09818 0.0
C3591 C 0.62049 0.52747 0.1321 0.0
C3592 C 0.62844 0.53798 0.10969 0.0
H3593 H 0.64968 0.54346 0.10148 0.0
C3594 C 0.62321 0.5434 0.10374 0.0
C3595 C 0.63811 0.53804 0.10889 0.0
C3596 C 0.64409 0.53213 0.11486 0.0
C3597 C 0.62737 0.54889 0.09704 0.0
C3598 C 0.63704 0.54883 0.09613 0.0
C3599 C 0.64228 0.54351 0.10217 0.0
C3600 C 0.64185 0.55407 0.08885 0.0
C3601 C 0.62137 0.5548 0.0911 0.0
C3602 C 0.63996 0.55242 0.07961 0.0
C3603 C 0.6447 0.55716 0.07278 0.0
C3604 C 0.65151 0.5636 0.07502 0.0
C3605 C 0.65339 0.56523 0.08429 0.0
C3606 C 0.64864 0.5605 0.09111 0.0
H3607 H 0.61462 0.55615 0.09434 0.0
H3608 H 0.62473 0.56145 0.08959 0.0
H3609 H 0.62009 0.55124 0.08455 0.0
H3610 H 0.63494 0.54733 0.07767 0.0
H3611 H 0.64318 0.55559 0.06573 0.0
H3612 H 0.14359 0.96704 0.95808 0.0
H3613 H 0.13548 0.97557 0.94621 0.0
H3614 H 0.1507 0.96117 0.92556 0.0
H3615 H 0.15869 0.95244 0.93737 0.0
H3616 H 0.1433 0.98706 0.93302 0.0
H3617 H 0.12412 0.95862 0.91672 0.0
H3618 H 0.12931 0.95758 0.92784 0.0
H3619 H 0.13626 0.95679 0.91777 0.0
C3620 C 0.14512 0.96557 0.95101 0.0
C3621 C 0.15179 0.95902 0.9487 0.0
C3622 C 0.14051 0.9705 0.94423 0.0
C3623 C 0.14239 0.96895 0.93499 0.0
C3624 C 0.14901 0.96239 0.93264 0.0
H3625 H 0.12228 0.99467 0.88487 0.0
H3626 H 0.1302 0.98495 0.896 0.0
C3627 C 0.15365 0.95747 0.93942 0.0
C3628 C 0.13771 0.97448 0.92784 0.0
H3629 H 0.12348 0.97304 0.90937 0.0
C3630 C 0.13894 0.984 0.92787 0.0
C3631 C 0.13209 0.97047 0.92106 0.0
C3632 C 0.13028 0.96031 0.92085 0.0
C3633 C 0.13476 0.98961 0.92129 0.0
C3634 C 0.12902 0.98563 0.91459 0.0
C3635 C 0.12787 0.97609 0.9145 0.0
C3636 C 0.12399 0.9913 0.90779 0.0
C3637 C 0.13668 0.99975 0.92149 0.0
C3638 C 0.1177 0.99795 0.91069 0.0
C3639 C 0.11317 1.00349 0.90436 0.0
C3640 C 0.11476 1.00248 0.89495 0.0
C3641 C 0.12086 0.99562 0.89205 0.0
C3642 C 0.12542 0.99008 0.89841 0.0
H3643 H 0.14312 1.00132 0.92523 0.0
H3644 H 0.13722 1.00258 0.91449 0.0
H3645 H 0.13097 1.00329 0.92503 0.0
H3646 H 0.11628 0.99886 0.91787 0.0
H3647 H 0.10836 1.00854 0.90685 0.0
H3648 H 1.00427 0.29866 0.44151 0.0
H3649 H 1.00666 0.28209 0.44215 0.0
H3650 H 1.01003 0.28141 0.413 0.0
H3651 H 1.00756 0.29792 0.41228 0.0
H3652 H 0.99721 0.26755 0.43368 0.0
H3653 H 0.03343 0.26897 0.42218 0.0
H3654 H 0.02728 0.27899 0.42593 0.0
H3655 H 0.02544 0.2745 0.41468 0.0
C3656 C 1.00542 0.29498 0.43522 0.0
C3657 C 1.0058 0.29969 0.42685 0.0
C3658 C 1.00684 0.2855 0.4356 0.0
C3659 C 1.0087 0.28051 0.42764 0.0
C3660 C 1.00883 0.28513 0.41926 0.0
H3661 H 0.02259 0.22332 0.4171 0.0
H3662 H 0.01841 0.23948 0.4157 0.0
C3663 C 1.00742 0.2946 0.41886 0.0
C3664 C 1.01053 0.27048 0.42811 0.0
H3665 H 0.02682 0.25427 0.42367 0.0
C3666 C 1.00369 0.26465 0.43151 0.0
C3667 C 0.01899 0.26668 0.42526 0.0
C3668 C 0.02675 0.2726 0.42188 0.0
C3669 C 1.00502 0.25512 0.43203 0.0
C3670 C 0.0135 0.25132 0.42923 0.0
C3671 C 0.02032 0.25716 0.42579 0.0
C3672 C 0.01554 0.24135 0.43003 0.0
C3673 C 0.99725 0.24921 0.43539 0.0
C3674 C 0.01534 0.23698 0.43854 0.0
C3675 C 0.01766 0.22773 0.43936 0.0
C3676 C 0.02033 0.2226 0.43168 0.0
C3677 C 0.02046 0.22699 0.42314 0.0
C3678 C 0.01813 0.23626 0.42233 0.0
H3679 H 0.99052 0.2527 0.43467 0.0
H3680 H 0.99697 0.24263 0.43163 0.0
H3681 H 0.9983 0.24768 0.44272 0.0
H3682 H 0.01354 0.24078 0.44462 0.0
H3683 H 0.01739 0.22459 0.44603 0.0
H3684 H 0.03475 0.79424 0.0866 0.0
H3685 H 0.0308 0.77806 0.08787 0.0
H3686 H 1.00432 0.78525 0.09873 0.0
H3687 H 1.00811 0.80152 0.09721 0.0
H3688 H 0.02616 0.76796 0.10318 0.0
H3689 H 0.99761 0.76767 0.07811 0.0
H3690 H 1.00561 0.77706 0.07897 0.0
H3691 H 0.99651 0.77589 0.08713 0.0
C3692 C 0.02803 0.79241 0.08915 0.0
C3693 C 0.02172 0.79923 0.0917 0.0
C3694 C 0.02581 0.78314 0.08994 0.0
C3695 C 0.01721 0.78041 0.09326 0.0
C3696 C 1.01093 0.78717 0.09598 0.0
H3697 H 0.99415 0.7253 0.10046 0.0
H3698 H 0.99644 0.74192 0.10019 0.0
C3699 C 0.01316 0.79648 0.0952 0.0
C3700 C 0.01495 0.77048 0.09398 0.0
H3701 H 1.00055 0.75386 0.08593 0.0
C3702 C 0.02055 0.76488 0.09941 0.0
C3703 C 1.0076 0.76645 0.08911 0.0
C3704 C 1.00152 0.77204 0.08294 0.0
C3705 C 0.01903 0.75541 0.1001 0.0
C3706 C 0.01182 0.75134 0.09506 0.0
C3707 C 1.00609 0.75696 0.08977 0.0
C3708 C 1.0103 0.74125 0.09499 0.0
C3709 C 0.02512 0.74985 0.1063 0.0
C3710 C 0.01723 0.73533 0.09195 0.0
C3711 C 0.01593 0.72585 0.09206 0.0
C3712 C 1.00764 0.72202 0.09517 0.0
C3713 C 1.0006 0.72798 0.09798 0.0
C3714 C 1.00191 0.73749 0.09787 0.0
H3715 H 0.02842 0.75419 0.11158 0.0
H3716 H 0.02119 0.74434 0.10974 0.0
H3717 H 0.03064 0.74664 0.10221 0.0
H3718 H 0.02366 0.73805 0.08945 0.0
H3719 H 0.02143 0.7215 0.08965 0.0
H3720 H 0.4208 0.03185 0.2281 0.0
H3721 H 0.42061 0.02757 0.24421 0.0
H3722 H 0.43759 1.0042 0.2383 0.0
H3723 H 0.43807 1.0086 0.22223 0.0
H3724 H 0.41466 0.01177 0.25296 0.0
H3725 H 0.45193 0.0169 0.25853 0.0
H3726 H 0.44609 0.02102 0.24849 0.0
H3727 H 0.44927 1.00918 0.2494 0.0
C3728 C 0.42456 0.02584 0.23022 0.0
C3729 C 0.42952 0.02063 0.22383 0.0
C3730 C 0.42439 0.02336 0.23944 0.0
C3731 C 0.42923 0.01566 0.24252 0.0
C3732 C 0.43396 1.01029 0.23614 0.0
H3733 H 0.43858 0.98979 0.29492 0.0
H3734 H 0.4379 0.9941 0.27886 0.0
C3735 C 0.43413 0.01275 0.22691 0.0
C3736 C 0.42933 0.01326 0.25241 0.0
H3737 H 0.44362 1.01002 0.2706 0.0
C3738 C 0.42098 0.01143 0.25683 0.0
C3739 C 0.43758 0.01284 0.25748 0.0
C3740 C 0.44672 0.01517 0.25327 0.0
C3741 C 0.42069 1.00896 0.2661 0.0
C3742 C 0.42895 1.00847 0.27115 0.0
C3743 C 0.43728 1.01037 0.26674 0.0
C3744 C 0.42915 1.00585 0.28098 0.0
C3745 C 0.41155 1.00666 0.27033 0.0
C3746 C 0.42454 1.01106 0.28759 0.0
C3747 C 0.42486 1.00856 0.29681 0.0
C3748 C 0.42983 1.00081 0.29965 0.0
C3749 C 0.43453 0.99569 0.293 0.0
C3750 C 0.43421 0.99819 0.2838 0.0
H3751 H 0.40629 1.00507 0.26509 0.0
H3752 H 0.41216 1.00072 0.27501 0.0
H3753 H 0.4091 0.01261 0.27434 0.0
H3754 H 0.42074 0.0171 0.28562 0.0
H3755 H 0.42112 0.01266 0.30171 0.0
H3756 H 0.58063 0.50863 0.22342 0.0
H3757 H 0.58014 0.51104 0.23993 0.0
H3758 H 0.60894 0.50468 0.24176 0.0
H3759 H 0.60949 0.50222 0.22531 0.0
H3760 H 0.58425 0.49944 0.25441 0.0
H3761 H 0.60759 0.52937 0.25453 0.0
H3762 H 0.60251 0.52496 0.24422 0.0
H3763 H 0.61238 0.51947 0.24912 0.0
C3764 C 0.58685 0.50767 0.22734 0.0
C3765 C 0.59512 0.50531 0.22299 0.0
C3766 C 0.58657 0.5091 0.23678 0.0
C3767 C 0.59454 0.50824 0.24209 0.0
C3768 C 0.60274 0.50564 0.2378 0.0
H3769 H 0.6092 0.51287 0.29908 0.0
H3770 H 0.60862 0.51077 0.28258 0.0
C3771 C 0.60304 0.50422 0.22838 0.0
C3772 C 0.59429 0.50997 0.2521 0.0
H3773 H 0.60392 0.52296 0.26896 0.0
C3774 C 0.5885 0.50463 0.25759 0.0
C3775 C 0.59983 0.51675 0.25626 0.0
C3776 C 0.60586 0.52303 0.25073 0.0
C3777 C 0.58829 0.50569 0.26712 0.0
C3778 C 0.59391 0.5124 0.27129 0.0
C3779 C 0.59962 0.51781 0.26578 0.0
C3780 C 0.59415 0.51376 0.28136 0.0
C3781 C 0.58226 0.49942 0.27267 0.0
C3782 C 0.58624 0.5163 0.2862 0.0
C3783 C 0.58653 0.51746 0.29568 0.0
C3784 C 0.59476 0.51613 0.30054 0.0
C3785 C 0.6027 0.51378 0.29562 0.0
C3786 C 0.6024 0.51264 0.28615 0.0
H3787 H 0.5802 0.49325 0.26875 0.0
H3788 H 0.5858 0.4972 0.27899 0.0
H3789 H 0.57593 0.50313 0.27464 0.0
H3790 H 0.57982 0.5174 0.28265 0.0
H3791 H 0.58027 0.51922 0.29922 0.0
H3792 H 0.29703 0.42297 0.99369 0.0
H3793 H 0.28035 0.42333 0.99563 0.0
H3794 H 0.28373 0.43475 0.02248 0.0
H3795 H 0.30037 0.43468 0.0205 0.0
H3796 H 0.26988 0.41445 1.00867 0.0
H3797 H 0.2649 0.45194 1.0113 0.0
H3798 H 0.2754 0.44693 1.00714 0.0
H3799 H 0.27318 0.44747 0.01917 0.0
C3800 C 0.29423 0.42571 0.99995 0.0
C3801 C 0.30009 0.42882 1.00693 0.0
C3802 C 0.28468 0.42585 1.00108 0.0
C3803 C 0.28075 0.42917 1.00915 0.0
C3804 C 0.28656 0.43231 0.01611 0.0
H3805 H 0.22492 0.43286 0.03035 0.0
H3806 H 0.24156 0.43339 0.02813 0.0
C3807 C 0.2961 0.43216 0.01501 0.0
C3808 C 0.2706 0.42904 1.01044 0.0
H3809 H 0.25206 0.44262 0.01498 0.0
C3810 C 0.26598 0.42062 1.00999 0.0
C3811 C 0.26549 0.43708 0.01222 0.0
C3812 C 0.26997 0.44638 0.01241 0.0
C3813 C 0.25646 0.42 1.01142 0.0
C3814 C 0.25135 0.42804 0.01319 0.0
C3815 C 0.25597 0.43646 0.01365 0.0
C3816 C 0.2412 0.42785 0.01448 0.0
C3817 C 0.25198 0.41069 1.01123 0.0
C3818 C 0.23542 0.42473 1.00749 0.0
C3819 C 0.2259 0.42446 1.00872 0.0
C3820 C 0.2219 0.42735 0.01696 0.0
C3821 C 0.22772 0.43065 0.02389 0.0
C3822 C 0.23725 0.43091 0.02265 0.0
H3823 H 0.25706 0.40512 0.01225 0.0
H3824 H 0.24661 0.41012 0.01656 0.0
H3825 H 0.24868 0.40964 1.0045 0.0
H3826 H 0.23827 0.42255 1.00104 0.0
H3827 H 0.22167 0.42209 1.00314 0.0
H3828 H 0.22473 0.61005 0.50468 0.0
H3829 H 0.2413 0.60942 0.5071 0.0
H3830 H 0.23991 0.58005 0.50922 0.0
H3831 H 0.2233 0.58062 0.50685 0.0
H3832 H 0.25076 0.6027 0.52204 0.0
H3833 H 0.26058 0.58364 0.49085 0.0
H3834 H 0.24943 0.58882 0.49223 0.0
H3835 H 0.252 0.57812 0.49768 0.0
C3836 C 0.22793 0.60344 0.50567 0.0
C3837 C 0.22263 0.59539 0.50557 0.0
C3838 C 0.23743 0.60309 0.50702 0.0
C3839 C 0.2419 0.59468 0.50824 0.0
C3840 C 0.23666 0.58661 0.5081 0.0
H3841 H 0.29949 0.58073 0.5182 0.0
H3842 H 0.2828 0.58028 0.51628 0.0
C3843 C 0.22715 0.58695 0.50674 0.0
C3844 C 0.25198 0.59444 0.50997 0.0
H3845 H 0.27233 0.58635 0.50165 0.0
C3846 C 0.25547 0.59914 0.51757 0.0
C3847 C 0.25815 0.58975 0.50417 0.0
C3848 C 0.25489 0.58486 0.49573 0.0
C3849 C 0.26492 0.59924 0.51955 0.0
C3850 C 0.2711 0.59465 0.51369 0.0
C3851 C 0.2676 0.58986 0.50615 0.0
C3852 C 0.28123 0.59494 0.51513 0.0
C3853 C 0.26816 0.60414 0.528 0.0
C3854 C 0.28594 0.60332 0.51508 0.0
C3855 C 0.29546 0.60361 0.51623 0.0
C3856 C 0.30056 0.59551 0.5174 0.0
C3857 C 0.29581 0.58711 0.51745 0.0
C3858 C 0.28626 0.58684 0.51628 0.0
H3859 H 0.26254 0.60495 0.53305 0.0
H3860 H 0.27392 0.60042 0.53129 0.0
H3861 H 0.2706 0.61107 0.52611 0.0
H3862 H 0.28225 0.60966 0.51403 0.0
H3863 H 0.29884 0.6102 0.51623 0.0
H3864 H 0.72348 0.94165 0.51992 0.0
H3865 H 0.74012 0.94205 0.51763 0.0
H3866 H 0.74003 0.91316 0.51186 0.0
H3867 H 0.72346 0.91267 0.51421 0.0
H3868 H 0.75434 0.93249 0.52634 0.0
H3869 H 0.75306 0.92382 0.4896 0.0
H3870 H 0.74305 0.92735 0.4959 0.0
H3871 H 0.74716 0.9158 0.49676 0.0
C3872 C 0.727 0.93536 0.51825 0.0
C3873 C 0.72207 0.92715 0.51717 0.0
C3874 C 0.73652 0.93561 0.51689 0.0
C3875 C 0.74132 0.92767 0.51438 0.0
C3876 C 0.73647 0.91942 0.51355 0.0
H3877 H 0.79772 0.91287 0.50294 0.0
H3878 H 0.78115 0.91345 0.50543 0.0
C3879 C 0.72697 0.91916 0.5149 0.0
C3880 C 0.75141 0.92798 0.5127 0.0
H3881 H 0.76776 0.92363 0.49659 0.0
C3882 C 0.75728 0.93062 0.51982 0.0
C3883 C 0.75525 0.92553 0.50418 0.0
C3884 C 0.74931 0.92305 0.49614 0.0
C3885 C 0.76687 0.93063 0.51873 0.0
C3886 C 0.77072 0.9281 0.51024 0.0
C3887 C 0.76484 0.92555 0.5031 0.0
C3888 C 0.78082 0.92787 0.50867 0.0
C3889 C 0.77282 0.93309 0.52678 0.0
C3890 C 0.78618 0.93582 0.5095 0.0
C3891 C 0.79569 0.9355 0.50811 0.0
C3892 C 0.80007 0.92723 0.50584 0.0
C3893 C 0.79463 0.91933 0.50483 0.0
C3894 C 0.78513 0.91965 0.5062 0.0
H3895 H 0.769 0.9326 0.5333 0.0
H3896 H 0.77891 0.92855 0.52717 0.0
H3897 H 0.77526 0.94023 0.52601 0.0
H3898 H 0.783 0.94228 0.51121 0.0
H3899 H 0.79963 0.94171 0.509 0.0
H3900 H 0.01931 0.79971 0.60298 0.0
H3901 H 0.02156 0.78318 0.60228 0.0
H3902 H 0.99509 0.78003 0.5896 0.0
H3903 H 0.99271 0.79659 0.59036 0.0
H3904 H 1.01098 0.76921 0.61005 0.0
H3905 H 0.01206 0.76591 0.57237 0.0
H3906 H 0.01315 0.77679 0.57808 0.0
H3907 H 1.00208 0.77155 0.57681 0.0
C3908 C 0.01391 0.79552 0.60009 0.0
C3909 C 1.00581 0.79954 0.59674 0.0
C3910 C 0.01524 0.78605 0.59966 0.0
C3911 C 1.00855 0.78034 0.5958 0.0
C3912 C 1.00044 0.78429 0.59245 0.0
H3913 H 1.00798 0.72103 0.58672 0.0
H3914 H 1.0037 0.73719 0.58794 0.0
C3915 C 0.99909 0.79378 0.59289 0.0
C3916 C 1.01005 0.77026 0.59546 0.0
H3917 H 0.01262 0.7522 0.58088 0.0
C3918 C 0.01133 0.76549 0.60367 0.0
C3919 C 1.01047 0.76538 0.58714 0.0
C3920 C 1.00944 0.77015 0.57808 0.0
C3921 C 0.013 0.75601 0.6038 0.0
C3922 C 0.0136 0.75116 0.59547 0.0
C3923 C 0.01216 0.7559 0.58726 0.0
C3924 C 0.016 0.74125 0.5951 0.0
C3925 C 0.01398 0.75127 0.61287 0.0
C3926 C 0.02436 0.73812 0.5987 0.0
C3927 C 0.02679 0.72888 0.59808 0.0
C3928 C 0.02097 0.72253 0.59377 0.0
C3929 C 0.01258 0.72568 0.5902 0.0
C3930 C 1.01015 0.73494 0.59083 0.0
H3931 H 1.01063 0.75521 0.61841 0.0
H3932 H 1.01096 0.7443 0.61268 0.0
H3933 H 0.02136 0.75065 0.61457 0.0
H3934 H 0.02909 0.74286 0.60188 0.0
H3935 H 0.03327 0.72672 0.60098 0.0
H3936 H 0.99218 0.22569 0.93246 0.0
H3937 H 0.9946 0.24226 0.93315 0.0
H3938 H 0.0215 0.2389 0.92149 0.0
H3939 H 0.0192 0.22238 0.92086 0.0
H3940 H 1.00819 0.25242 0.94211 0.0
H3941 H 1.01 0.25814 0.90485 0.0
H3942 H 1.00565 0.24768 0.90974 0.0
H3943 H 0.0178 0.24955 0.90886 0.0
C3944 C 0.99863 0.22846 0.93009 0.0
C3945 C 1.00545 0.22265 0.92652 0.0
C3946 C 0.99999 0.23795 0.93045 0.0
C3947 C 1.00816 0.24187 0.9272 0.0
C3948 C 0.01504 0.23609 0.92381 0.0
H3949 H 0.03333 0.29527 0.92393 0.0
H3950 H 0.02909 0.27912 0.92309 0.0
C3951 C 0.0137 0.22662 0.92345 0.0
C3952 C 1.00962 0.25196 0.92754 0.0
H3953 H 0.01473 0.27052 0.91428 0.0
C3954 C 1.00953 0.2564 0.93602 0.0
C3955 C 0.01137 0.25717 0.91959 0.0
C3956 C 0.01113 0.25292 0.91023 0.0
C3957 C 0.01146 0.2658 0.93681 0.0
C3958 C 0.01336 0.27098 0.92887 0.0
C3959 C 0.0133 0.26657 0.92037 0.0
C3960 C 0.01575 0.2809 0.92926 0.0
C3961 C 0.01177 0.27004 0.94617 0.0
C3962 C 1.0096 0.28735 0.93285 0.0
C3963 C 0.01204 0.29662 0.9334 0.0
C3964 C 0.02067 0.29965 0.93034 0.0
C3965 C 0.0267 0.29319 0.92652 0.0
C3966 C 0.02426 0.28394 0.92597 0.0
H3967 H 0.0124 0.26478 0.9516 0.0
H3968 H 0.0176 0.27488 0.94678 0.0
H3969 H 1.00533 0.27389 0.94737 0.0
H3970 H 1.00292 0.28523 0.93526 0.0
H3971 H 1.00722 0.30137 0.93642 0.0
H3972 H 0.61067 1.00652 0.79894 0.0
H3973 H 0.61005 1.00889 0.78247 0.0
H3974 H 0.58055 1.00727 0.78326 0.0
H3975 H 0.58108 1.0052 0.7998 0.0
H3976 H 0.60298 0.99785 0.76889 0.0
H3977 H 0.58475 0.03116 0.76953 0.0
H3978 H 0.58984 0.02619 0.77958 0.0
H3979 H 0.57898 0.0221 0.77547 0.0
C3980 C 0.60403 1.00677 0.79565 0.0
C3981 C 0.59592 1.00575 0.80076 0.0
C3982 C 0.6037 1.00806 0.7862 0.0
C3983 C 0.59525 1.00842 0.78161 0.0
C3984 C 0.58715 1.00721 0.78665 0.0
H3985 H 0.58118 0.0161 0.7241 0.0
H3986 H 0.58076 0.01371 0.74062 0.0
C3987 C 0.58747 1.00591 0.79611 0.0
C3988 C 0.59499 1.00993 0.77156 0.0
H3989 H 0.58722 0.0245 0.75504 0.0
C3990 C 0.59954 1.00369 0.76587 0.0
C3991 C 0.59049 0.01753 0.76759 0.0
C3992 C 0.5858 0.02468 0.77334 0.0
C3993 C 0.59965 1.00479 0.75635 0.0
C3994 C 0.59524 0.01245 0.75238 0.0
C3995 C 0.5906 0.01864 0.75806 0.0
C3996 C 0.59548 0.0142 0.74238 0.0
C3997 C 0.60437 0.99765 0.75061 0.0
C3998 C 0.60387 0.01551 0.73787 0.0
C3999 C 0.60414 0.01692 0.72844 0.0
C4000 C 0.596 0.01711 0.72327 0.0
C4001 C 0.58758 0.01606 0.72785 0.0
C4002 C 0.58733 0.01465 0.7373 0.0
H4003 H 0.60516 0.99109 0.75434 0.0
H4004 H 0.60052 0.99635 0.74422 0.0
H4005 H 0.61133 1.00012 0.74877 0.0
H4006 H 0.61025 0.01544 0.74166 0.0
H4007 H 0.61074 0.0179 0.72521 0.0
H4008 H 0.44504 0.51176 0.79923 0.0
H4009 H 0.44396 0.50798 0.78305 0.0
H4010 H 0.41816 0.52224 0.78134 0.0
H4011 H 0.41931 0.5263 0.79749 0.0
H4012 H 0.4306 0.49821 0.7736 0.0
H4013 H 0.43288 0.53382 0.76061 0.0
H4014 H 0.4357 0.53085 0.77221 0.0
H4015 H 0.42392 0.53183 0.76876 0.0
C4016 C 0.43916 0.51418 0.79541 0.0
C4017 C 0.4323 0.51942 0.79969 0.0
C4018 C 0.43853 0.51195 0.78616 0.0
C4019 C 0.43106 0.51495 0.78091 0.0
C4020 C 0.42409 0.52 0.78518 0.0
H4021 H 0.41926 0.50795 0.72256 0.0
H4022 H 0.41844 0.51213 0.73872 0.0
C4023 C 0.4247 0.52222 0.79446 0.0
C4024 C 0.43059 0.51269 0.77101 0.0
H4025 H 0.43044 0.5222 0.7497 0.0
C4026 C 0.43056 0.50346 0.76838 0.0
C4027 C 0.43049 0.51954 0.76418 0.0
C4028 C 0.43082 0.52957 0.76654 0.0
C4029 C 0.43043 0.50088 0.75915 0.0
C4030 C 0.43053 0.50772 0.75231 0.0
C4031 C 0.43038 0.51696 0.75493 0.0
C4032 C 0.4311 0.5054 0.74243 0.0
C4033 C 0.43008 0.49084 0.75682 0.0
C4034 C 0.4386 0.50042 0.73907 0.0
C4035 C 0.43911 0.49805 0.72985 0.0
C4036 C 0.43215 0.50065 0.72372 0.0
C4037 C 0.42476 0.50587 0.72705 0.0
C4038 C 0.42426 0.50823 0.73631 0.0
H4039 H 0.42735 0.48671 0.76256 0.0
H4040 H 0.42576 0.4896 0.75071 0.0
H4041 H 0.43713 0.4884 0.75533 0.0
H4042 H 0.4441 0.49837 0.74359 0.0
H4043 H 0.44501 0.49423 0.72752 0.0
H4044 H 0.72273 0.58299 1.00824 0.0
H4045 H 0.73938 0.58314 1.00622 0.0
H4046 H 0.74153 0.60584 0.02482 0.0
H4047 H 0.72488 0.60572 0.02689 0.0
H4048 H 0.75049 0.59663 0.99958 0.0
H4049 H 0.76053 0.58851 0.03509 0.0
H4050 H 0.74893 0.58718 0.03102 0.0
H4051 H 0.75317 0.59829 0.03419 0.0
C4052 C 0.72673 0.58802 0.01191 0.0
C4053 C 0.72243 0.59433 0.01776 0.0
C4054 C 0.73627 0.58808 1.01077 0.0
C4055 C 0.74176 0.59441 0.01546 0.0
C4056 C 0.73749 0.60073 0.02129 0.0
H4057 H 0.79985 0.60787 0.01588 0.0
H4058 H 0.78324 0.6073 0.01796 0.0
C4059 C 0.72795 0.60066 0.02246 0.0
C4060 C 0.7519 0.59457 0.01403 0.0
H4061 H 0.77249 0.59317 0.02512 0.0
C4062 C 0.7553 0.59582 1.00516 0.0
C4063 C 0.7582 0.59351 0.02131 0.0
C4064 C 0.75504 0.59171 0.03092 0.0
C4065 C 0.76478 0.59623 1.0034 0.0
C4066 C 0.77107 0.59522 1.01067 0.0
C4067 C 0.76768 0.59395 0.01954 0.0
C4068 C 0.78119 0.59554 1.00926 0.0
C4069 C 0.76797 0.59796 0.99378 0.0
C4070 C 0.78563 0.58908 1.00373 0.0
C4071 C 0.79518 0.58934 1.00256 0.0
C4072 C 0.80052 0.59605 1.00695 0.0
C4073 C 0.79602 0.60251 0.01249 0.0
C4074 C 0.78649 0.60223 0.01366 0.0
H4075 H 0.76241 0.60085 0.98947 0.0
H4076 H 0.77389 0.60274 0.99368 0.0
H4077 H 0.77019 0.59141 0.99068 0.0
H4078 H 0.78173 0.58373 1.00041 0.0
H4079 H 0.79838 0.58417 0.99837 0.0
H4080 H 0.72368 0.41166 0.50618 0.0
H4081 H 0.74026 0.41214 0.50855 0.0
H4082 H 0.73975 0.44155 0.50674 0.0
H4083 H 0.7231 0.44116 0.50466 0.0
H4084 H 0.75405 0.41901 0.49756 0.0
H4085 H 0.75344 0.43738 0.53062 0.0
H4086 H 0.7433 0.43235 0.52566 0.0
H4087 H 0.74753 0.44313 0.52155 0.0
C4088 C 0.72706 0.41825 0.50638 0.0
C4089 C 0.72199 0.42638 0.5053 0.0
C4090 C 0.73657 0.4185 0.50768 0.0
C4091 C 0.74127 0.42688 0.50799 0.0
C4092 C 0.73628 0.435 0.50672 0.0
H4093 H 0.79919 0.44059 0.51586 0.0
H4094 H 0.78258 0.44107 0.51339 0.0
C4095 C 0.72675 0.43476 0.50541 0.0
C4096 C 0.75138 0.42706 0.50953 0.0
H4097 H 0.76803 0.43477 0.52405 0.0
C4098 C 0.7571 0.42244 0.50336 0.0
C4099 C 0.75539 0.43156 0.51709 0.0
C4100 C 0.74961 0.43632 0.52417 0.0
C4101 C 0.76668 0.42227 0.50449 0.0
C4102 C 0.77068 0.42669 0.5121 0.0
C4103 C 0.76498 0.43139 0.51823 0.0
C4104 C 0.78075 0.4264 0.51388 0.0
C4105 C 0.77244 0.41748 0.49742 0.0
C4106 C 0.78525 0.41802 0.51521 0.0
C4107 C 0.79473 0.41772 0.51667 0.0
C4108 C 0.79997 0.42581 0.51689 0.0
C4109 C 0.7954 0.43422 0.51581 0.0
C4110 C 0.7859 0.43451 0.51434 0.0
H4111 H 0.7687 0.4167 0.49088 0.0
H4112 H 0.77892 0.42126 0.49613 0.0
H4113 H 0.77423 0.41054 0.49992 0.0
H4114 H 0.7814 0.41168 0.51514 0.0
H4115 H 0.79796 0.41113 0.51767 0.0
H4116 H 0.22483 0.10421 0.52817 0.0
H4117 H 0.24148 0.10418 0.52601 0.0
H4118 H 0.23852 0.08541 0.50357 0.0
H4119 H 0.22189 0.0854 0.50567 0.0
H4120 H 0.2541 0.09024 0.5267 0.0
H4121 H 0.25382 0.10552 0.49213 0.0
H4122 H 0.24383 0.10543 0.49937 0.0
H4123 H 0.24698 0.09536 0.49308 0.0
C4124 C 0.22772 0.10002 0.52281 0.0
C4125 C 0.22198 0.09486 0.51706 0.0
C4126 C 0.23725 0.10004 0.52156 0.0
C4127 C 0.24128 0.09494 0.5145 0.0
C4128 C 0.23559 0.08961 0.50889 0.0
H4129 H 0.29771 0.08593 0.4966 0.0
H4130 H 0.28104 0.08559 0.49866 0.0
C4131 C 0.22606 0.0896 0.51012 0.0
C4132 C 0.25142 0.09509 0.51311 0.0
H4133 H 0.26812 0.09989 0.49745 0.0
C4134 C 0.25716 0.09239 0.52031 0.0
C4135 C 0.25544 0.09789 0.50478 0.0
C4136 C 0.24971 0.1013 0.49692 0.0
C4137 C 0.26676 0.09227 0.51937 0.0
C4138 C 0.27078 0.09505 0.51104 0.0
C4139 C 0.26505 0.09773 0.50383 0.0
C4140 C 0.28092 0.09535 0.50972 0.0
C4141 C 0.27252 0.08897 0.52725 0.0
C4142 C 0.2864 0.10109 0.51511 0.0
C4143 C 0.29593 0.10135 0.51391 0.0
C4144 C 0.30022 0.0959 0.50725 0.0
C4145 C 0.29467 0.09027 0.50174 0.0
C4146 C 0.28513 0.09003 0.50294 0.0
H4147 H 0.26843 0.08487 0.53215 0.0
H4148 H 0.27837 0.08477 0.52483 0.0
H4149 H 0.27533 0.09497 0.53095 0.0
H4150 H 0.28331 0.10543 0.52023 0.0
H4151 H 0.29991 0.10593 0.51815 0.0
H4152 H 0.50745 0.721 0.92922 0.0
H4153 H 0.50343 0.73719 0.92749 0.0
H4154 H 0.53193 0.74455 0.93018 0.0
H4155 H 0.53603 0.72844 0.9316 0.0
H4156 H 0.50622 0.75148 0.93966 0.0
H4157 H 0.52455 0.75847 0.9074 0.0
H4158 H 0.52233 0.74701 0.9114 0.0
H4159 H 0.5318 0.75347 0.91592 0.0
C4160 C 0.51288 0.72605 0.92929 0.0
C4161 C 0.52207 0.72337 0.93055 0.0
C4162 C 0.51056 0.73532 0.92837 0.0
C4163 C 0.51738 0.74211 0.92858 0.0
C4164 C 0.52655 0.73945 0.92981 0.0
H4165 H 0.52185 0.8009 0.92881 0.0
H4166 H 0.52398 0.78434 0.92924 0.0
C4167 C 0.52887 0.73022 0.93074 0.0
C4168 C 0.51495 0.752 0.92786 0.0
H4169 H 0.51972 0.77151 0.91592 0.0
C4170 C 0.50909 0.75584 0.93441 0.0
C4171 C 0.51868 0.75771 0.921 0.0
C4172 C 0.52461 0.75395 0.91348 0.0
C4173 C 0.50715 0.76528 0.93451 0.0
C4174 C 0.51106 0.77102 0.92778 0.0
C4175 C 0.51676 0.76713 0.92111 0.0
C4176 C 0.50959 0.78112 0.92767 0.0
C4177 C 0.5012 0.76907 0.94201 0.0
C4178 C 0.50078 0.78488 0.92661 0.0
C4179 C 0.49954 0.79439 0.92632 0.0
C4180 C 0.50709 0.80036 0.92703 0.0
C4181 C 0.51589 0.79655 0.92812 0.0
C4182 C 0.51712 0.78706 0.9284 0.0
H4183 H 0.50054 0.76421 0.94779 0.0
H4184 H 0.50401 0.77562 0.94462 0.0
H4185 H 0.49423 0.7704 0.93929 0.0
H4186 H 0.49488 0.78045 0.92584 0.0
H4187 H 0.49268 0.79706 0.92534 0.0
H4188 H 0.5087 0.30192 0.59743 0.0
H4189 H 0.505 0.28562 0.59904 0.0
H4190 H 0.53146 0.27854 0.58806 0.0
H4191 H 0.53531 0.29472 0.58669 0.0
H4192 H 0.50413 0.27206 0.58559 0.0
H4193 H 0.53052 0.26334 0.6113 0.0
H4194 H 0.52734 0.275 0.60875 0.0
H4195 H 0.53514 0.26894 0.60144 0.0
C4196 C 0.51378 0.29689 0.59547 0.0
C4197 C 0.52232 0.29967 0.59193 0.0
C4198 C 0.51163 0.28757 0.59634 0.0
C4199 C 0.51799 0.28083 0.59379 0.0
C4200 C 0.52649 0.28359 0.59023 0.0
H4201 H 0.52133 0.22203 0.58983 0.0
H4202 H 0.52355 0.23859 0.58945 0.0
C4203 C 0.52864 0.29288 0.58935 0.0
C4204 C 0.51572 0.27092 0.59459 0.0
H4205 H 0.52325 0.25081 0.60382 0.0
C4206 C 0.50825 0.26742 0.58965 0.0
C4207 C 0.52109 0.26485 0.59989 0.0
C4208 C 0.52892 0.26822 0.60572 0.0
C4209 C 0.50621 0.258 0.5896 0.0
C4210 C 0.51171 0.25191 0.59475 0.0
C4211 C 0.51907 0.25545 0.59983 0.0
C4212 C 0.51013 0.24183 0.5948 0.0
C4213 C 0.49839 0.25461 0.58377 0.0
C4214 C 0.50184 0.23808 0.59797 0.0
C4215 C 0.50056 0.22858 0.59822 0.0
C4216 C 0.50756 0.22259 0.59538 0.0
C4217 C 0.51583 0.22639 0.59219 0.0
C4218 C 0.5171 0.23588 0.59193 0.0
H4219 H 0.49634 0.25974 0.57857 0.0
H4220 H 0.50026 0.24815 0.58026 0.0
H4221 H 0.49237 0.25323 0.58817 0.0
H4222 H 0.49643 0.2425 0.60042 0.0
H4223 H 0.49416 0.22591 0.60086 0.0
H4224 H 0.92224 0.51368 0.8015 0.0
H4225 H 0.92082 0.5175 0.7853 0.0
H4226 H 0.93849 0.4949 0.77847 0.0
H4227 H 0.93969 0.49086 0.79456 0.0
H4228 H 0.93441 0.52234 0.77314 0.0
H4229 H 0.91711 0.49079 0.76126 0.0
H4230 H 0.91796 0.49377 0.77316 0.0
H4231 H 0.92752 0.48859 0.7674 0.0
C4232 C 0.92571 0.50944 0.79655 0.0
C4233 C 0.93108 0.50195 0.79938 0.0
C4234 C 0.92494 0.51166 0.78728 0.0
C4235 C 0.92944 0.50642 0.78063 0.0
C4236 C 0.9348 0.49896 0.78343 0.0
H4237 H 0.93833 0.5095 0.72219 0.0
H4238 H 0.93784 0.50534 0.73834 0.0
C4239 C 0.93558 0.49673 0.79268 0.0
C4240 C 0.92883 0.50892 0.77079 0.0
H4241 H 0.92318 0.50058 0.74975 0.0
C4242 C 0.93187 0.51761 0.76804 0.0
C4243 C 0.92555 0.50275 0.7641 0.0
C4244 C 0.92177 0.49349 0.76662 0.0
C4245 C 0.93196 0.5202 0.7588 0.0
C4246 C 0.92877 0.51399 0.75211 0.0
C4247 C 0.92565 0.50533 0.75486 0.0
C4248 C 0.92872 0.51632 0.74221 0.0
C4249 C 0.93573 0.52947 0.75627 0.0
C4250 C 0.92357 0.52375 0.73894 0.0
C4251 C 0.92381 0.52612 0.7297 0.0
C4252 C 0.92915 0.5211 0.72348 0.0
C4253 C 0.93408 0.51349 0.72674 0.0
C4254 C 0.93385 0.51113 0.736 0.0
H4255 H 0.94 0.53241 0.76182 0.0
H4256 H 0.93995 0.52906 0.74999 0.0
H4257 H 0.92996 0.53423 0.75497 0.0
H4258 H 0.91937 0.52773 0.74355 0.0
H4259 H 0.91977 0.5319 0.72743 0.0
H4260 H 0.10475 1.00538 0.80036 0.0
H4261 H 0.10429 1.0035 0.78383 0.0
H4262 H 0.08347 0.02431 0.78196 0.0
H4263 H 0.08377 0.02616 0.79853 0.0
H4264 H 0.08941 0.99855 0.77269 0.0
H4265 H 0.10271 0.03289 0.76342 0.0
H4266 H 0.10367 0.02828 0.77478 0.0
H4267 H 0.09297 0.03298 0.77091 0.0
C4268 C 0.10001 1.00953 0.79647 0.0
C4269 C 0.09429 0.01593 0.80084 0.0
C4270 C 0.0998 1.00847 0.78699 0.0
C4271 C 0.09393 0.01384 0.78162 0.0
C4272 C 0.08819 0.02022 0.78593 0.0
H4273 H 0.08367 0.01729 0.72316 0.0
H4274 H 0.08352 0.01914 0.73972 0.0
C4275 C 0.08838 0.02127 0.79543 0.0
C4276 C 0.09369 0.01258 0.77154 0.0
H4277 H 0.09745 0.02357 0.75132 0.0
C4278 C 0.09119 1.00401 0.76801 0.0
C4279 C 0.09599 0.01971 0.76543 0.0
C4280 C 0.09907 0.02897 0.7688 0.0
C4281 C 0.0908 1.00241 0.75857 0.0
C4282 C 0.09316 1.00952 0.75245 0.0
C4283 C 0.09563 0.01811 0.75598 0.0
C4284 C 0.09315 1.00821 0.74236 0.0
C4285 C 0.08763 0.99317 0.75524 0.0
C4286 C 0.09867 1.00149 0.73827 0.0
C4287 C 0.09877 1.00041 0.72878 0.0
C4288 C 0.09343 1.0061 0.72314 0.0
C4289 C 0.08794 0.01284 0.72727 0.0
C4290 C 0.08782 0.01389 0.73675 0.0
H4291 H 0.08361 0.98949 0.76052 0.0
H4292 H 0.08336 0.99382 0.74901 0.0
H4293 H 0.09371 0.98893 0.75357 0.0
H4294 H 0.10303 0.99717 0.7424 0.0
H4295 H 0.10321 0.99526 0.72585 0.0
H4296 H 0.72449 0.11055 1.00425 0.0
H4297 H 0.74107 0.10994 1.00665 0.0
H4298 H 0.73965 0.08062 1.00927 0.0
H4299 H 0.72304 0.08116 1.00691 0.0
H4300 H 0.75056 0.10352 0.02165 0.0
H4301 H 0.7603 0.08382 0.99084 0.0
H4302 H 0.74915 0.08901 0.99215 0.0
H4303 H 0.75174 0.07842 0.9978 0.0
C4304 C 0.72768 0.10396 1.00535 0.0
C4305 C 0.72238 0.0959 1.00538 0.0
C4306 C 0.73719 0.10362 1.00669 0.0
C4307 C 0.74166 0.09523 1.00804 0.0
C4308 C 0.73641 0.08716 1.00804 0.0
H4309 H 0.79921 0.08133 0.01838 0.0
H4310 H 0.78252 0.08088 0.01641 0.0
C4311 C 0.7269 0.08749 1.00669 0.0
C4312 C 0.75175 0.095 1.00976 0.0
H4313 H 0.77206 0.08667 1.0016 0.0
C4314 C 0.75526 0.09985 0.01725 0.0
C4315 C 0.7579 0.09017 1.00406 0.0
C4316 C 0.75462 0.08512 0.99571 0.0
C4317 C 0.7647 0.09996 0.01923 0.0
C4318 C 0.77087 0.09523 0.01346 0.0
C4319 C 0.76735 0.09029 1.00603 0.0
C4320 C 0.781 0.09552 0.01489 0.0
C4321 C 0.76797 0.10503 0.02757 0.0
C4322 C 0.78574 0.10388 0.01464 0.0
C4323 C 0.79526 0.10416 0.01581 0.0
C4324 C 0.80032 0.09608 0.01721 0.0
C4325 C 0.79555 0.0877 0.01745 0.0
C4326 C 0.78601 0.08743 0.01626 0.0
H4327 H 0.76236 0.10598 0.03259 0.0
H4328 H 0.77371 0.10136 0.03094 0.0
H4329 H 0.77045 0.1119 0.02552 0.0
H4330 H 0.78207 0.1102 0.01343 0.0
H4331 H 0.79866 0.11075 0.01567 0.0
H4332 H 0.51044 0.29932 0.08249 0.0
H4333 H 0.5132 0.28283 0.08178 0.0
H4334 H 0.50332 0.27989 0.10928 0.0
H4335 H 0.50032 0.29634 0.10998 0.0
H4336 H 0.52488 0.27259 0.09293 0.0
H4337 H 0.48909 0.25994 0.09572 0.0
H4338 H 0.49178 0.27167 0.09298 0.0
H4339 H 0.49251 0.26773 0.10455 0.0
C4340 C 0.50869 0.29515 0.08834 0.0
C4341 C 0.50512 0.29919 0.09629 0.0
C4342 C 0.51034 0.28572 0.08794 0.0
C4343 C 0.50837 0.28007 0.09543 0.0
C4344 C 0.50475 0.28406 0.10335 0.0
H4345 H 0.51683 0.22161 0.10573 0.0
H4346 H 0.51266 0.23781 0.10688 0.0
C4347 C 0.50313 0.2935 0.10378 0.0
C4348 C 0.51049 0.2701 0.09507 0.0
H4349 H 0.50088 0.24879 0.09641 0.0
C4350 C 0.51962 0.26739 0.09365 0.0
C4351 C 0.50365 0.2633 0.09609 0.0
C4352 C 0.49369 0.26577 0.09734 0.0
C4353 C 0.5221 0.25811 0.0933 0.0
C4354 C 0.51525 0.25129 0.0942 0.0
C4355 C 0.50613 0.25399 0.09571 0.0
C4356 C 0.51742 0.24136 0.09338 0.0
C4357 C 0.53209 0.25568 0.09215 0.0
C4358 C 0.52125 0.23788 0.08533 0.0
C4359 C 0.52361 0.22863 0.08464 0.0
C4360 C 0.52215 0.22259 0.09197 0.0
C4361 C 0.51803 0.22603 0.09993 0.0
C4362 C 0.51567 0.23531 0.10062 0.0
H4363 H 0.53665 0.26143 0.09415 0.0
H4364 H 0.53392 0.24958 0.09627 0.0
H4365 H 0.53343 0.25409 0.08488 0.0
H4366 H 0.52244 0.24234 0.07956 0.0
H4367 H 0.52657 0.22621 0.07832 0.0
H4368 H 0.53305 0.79457 0.43839 0.0
H4369 H 0.52882 0.77844 0.43762 0.0
H4370 H 0.50501 0.78531 0.42162 0.0
H4371 H 0.50936 0.80149 0.42209 0.0
H4372 H 0.51314 0.76978 0.44371 0.0
H4373 H 0.51687 0.76526 0.40633 0.0
H4374 H 0.52131 0.77513 0.41225 0.0
H4375 H 0.50929 0.77432 0.4097 0.0
C4376 C 0.52698 0.79267 0.43458 0.0
C4377 C 0.52161 0.79938 0.43022 0.0
C4378 C 0.52453 0.78342 0.43421 0.0
C4379 C 0.51667 0.78061 0.42945 0.0
C4380 C 0.5112 0.78727 0.42519 0.0
H4381 H 0.49426 0.72561 0.42021 0.0
H4382 H 0.4964 0.74223 0.42095 0.0
C4383 C 0.51365 0.79655 0.42556 0.0
C4384 C 0.51419 0.77071 0.42911 0.0
H4385 H 0.51122 0.75261 0.41465 0.0
C4386 C 0.51272 0.76604 0.43735 0.0
C4387 C 0.51359 0.76581 0.42082 0.0
C4388 C 0.51542 0.77034 0.41177 0.0
C4389 C 0.51068 0.75663 0.43752 0.0
C4390 C 0.51025 0.75169 0.42924 0.0
C4391 C 0.51155 0.75639 0.42099 0.0
C4392 C 0.50879 0.7416 0.42902 0.0
C4393 C 0.50891 0.75209 0.44658 0.0
C4394 C 0.51507 0.73568 0.43326 0.0
C4395 C 0.51384 0.72619 0.43288 0.0
C4396 C 0.50633 0.72236 0.42821 0.0
C4397 C 0.50004 0.72831 0.42398 0.0
C4398 C 0.50129 0.73781 0.42433 0.0
H4399 H 0.50687 0.75714 0.45185 0.0
H4400 H 0.50344 0.74684 0.44601 0.0
H4401 H 0.51528 0.74868 0.44893 0.0
H4402 H 0.521 0.73841 0.43678 0.0
H4403 H 0.51879 0.72185 0.43629 0.0
H4404 H 0.0843 0.50501 0.2233 0.0
H4405 H 0.08419 0.50309 0.23986 0.0
H4406 H 0.1031 0.52559 0.24261 0.0
H4407 H 0.10323 0.52757 0.22607 0.0
H4408 H 0.09828 0.49901 0.25143 0.0
H4409 H 0.08345 0.53261 0.26076 0.0
H4410 H 0.08331 0.52833 0.24924 0.0
H4411 H 0.09352 0.53349 0.2538 0.0
C4412 C 0.08844 0.50956 0.22742 0.0
C4413 C 0.09375 0.51647 0.22332 0.0
C4414 C 0.08835 0.50846 0.2369 0.0
C4415 C 0.09353 0.51427 0.24253 0.0
C4416 C 0.09886 0.52116 0.23846 0.0
H4417 H 0.10489 0.51715 0.3006 0.0
H4418 H 0.10442 0.51911 0.28407 0.0
C4419 C 0.09893 0.52228 0.22898 0.0
C4420 C 0.09357 0.51291 0.25261 0.0
H4421 H 0.08946 0.52366 0.27289 0.0
C4422 C 0.0963 0.50439 0.25612 0.0
C4423 C 0.09099 0.51991 0.25876 0.0
C4424 C 0.08757 0.52907 0.25547 0.0
C4425 C 0.09669 0.50274 0.26556 0.0
C4426 C 0.09416 0.50976 0.2717 0.0
C4427 C 0.09142 0.51828 0.2682 0.0
C4428 C 0.09441 0.50846 0.28177 0.0
C4429 C 0.10004 0.49357 0.26889 0.0
C4430 C 0.08886 0.50186 0.28603 0.0
C4431 C 0.08905 0.50076 0.29552 0.0
C4432 C 0.09476 0.50626 0.30098 0.0
C4433 C 0.10029 0.51287 0.29667 0.0
C4434 C 0.10008 0.51398 0.28719 0.0
H4435 H 0.10382 0.4898 0.2635 0.0
H4436 H 0.10459 0.49437 0.2749 0.0
H4437 H 0.09406 0.48935 0.27095 0.0
H4438 H 0.08428 0.49764 0.28202 0.0
H4439 H 0.08458 0.4957 0.29858 0.0
H4440 H 0.94433 1.01088 0.29941 0.0
H4441 H 0.94344 1.00715 0.28319 0.0
H4442 H 0.91923 0.02384 0.2806 0.0
H4443 H 0.9202 0.02781 0.29678 0.0
H4444 H 0.92931 0.9987 0.27331 0.0
H4445 H 0.93588 0.03382 0.26039 0.0
H4446 H 0.93803 0.03057 0.27206 0.0
H4447 H 0.92653 0.03283 0.2683 0.0
C4448 C 0.93885 0.01383 0.29539 0.0
C4449 C 0.93238 0.01971 0.29943 0.0
C4450 C 0.93832 0.01164 0.28611 0.0
C4451 C 0.93136 0.01533 0.28062 0.0
C4452 C 0.92477 0.02104 0.28465 0.0
H4453 H 0.92038 1.00971 0.22201 0.0
H4454 H 0.91968 0.01393 0.23817 0.0
C4455 C 0.92527 0.02322 0.29394 0.0
C4456 C 0.93098 0.01309 0.27071 0.0
H4457 H 0.93244 0.0225 0.24942 0.0
C4458 C 0.93 1.00391 0.26809 0.0
C4459 C 0.93183 0.01988 0.26388 0.0
C4460 C 0.9332 0.02982 0.26626 0.0
C4461 C 0.92981 1.00134 0.25885 0.0
C4462 C 0.93083 1.00811 0.25202 0.0
C4463 C 0.93167 0.01731 0.25464 0.0
C4464 C 0.93135 1.00572 0.24215 0.0
C4465 C 0.92838 0.9914 0.25651 0.0
C4466 C 0.93827 0.99988 0.23894 0.0
C4467 C 0.93871 0.99749 0.22973 0.0
C4468 C 0.93227 1.00091 0.22344 0.0
C4469 C 0.92548 1.00697 0.22663 0.0
C4470 C 0.92504 1.00936 0.23588 0.0
H4471 H 0.92505 0.98762 0.26218 0.0
H4472 H 0.9241 0.99064 0.2503 0.0
H4473 H 0.93513 0.98816 0.2552 0.0
H4474 H 0.94338 0.99719 0.24358 0.0
H4475 H 0.94417 0.99299 0.22751 0.0
H4476 H 0.29724 0.91566 0.02439 0.0
H4477 H 0.28061 0.91559 0.0221 0.0
H4478 H 0.28269 0.94019 1.00605 0.0
H4479 H 0.29931 0.94031 1.00829 0.0
H4480 H 0.26739 0.92817 0.02661 0.0
H4481 H 0.26831 0.92361 0.98912 0.0
H4482 H 0.2783 0.92203 0.99621 0.0
H4483 H 0.27467 0.93335 0.99305 0.0
C4484 C 0.29416 0.9211 0.02043 0.0
C4485 C 0.29966 0.92796 0.01648 0.0
C4486 C 0.28464 0.92102 0.01909 0.0
C4487 C 0.28038 0.92778 0.01375 0.0
C4488 C 0.28582 0.93475 1.00998 0.0
H4489 H 0.22351 0.93911 0.99869 0.0
H4490 H 0.24017 0.93951 1.0008 0.0
C4491 C 0.29534 0.93482 1.01129 0.0
C4492 C 0.27026 0.92759 0.01224 0.0
H4493 H 0.25376 0.92677 0.99567 0.0
C4494 C 0.26442 0.92782 0.01984 0.0
C4495 C 0.26635 0.92715 1.00341 0.0
C4496 C 0.27222 0.92644 0.99498 0.0
C4497 C 0.25481 0.92777 0.01886 0.0
C4498 C 0.25091 0.92733 1.01003 0.0
C4499 C 0.25675 0.92713 1.00243 0.0
C4500 C 0.2408 0.92696 1.00857 0.0
C4501 C 0.24893 0.92837 0.02728 0.0
C4502 C 0.2356 0.91967 0.01205 0.0
C4503 C 0.22609 0.91939 1.01081 0.0
C4504 C 0.22151 0.92638 1.00602 0.0
C4505 C 0.22677 0.93357 1.00236 0.0
C4506 C 0.23631 0.93384 1.00359 0.0
H4507 H 0.25283 0.93106 0.0332 0.0
H4508 H 0.24288 0.93282 0.0261 0.0
H4509 H 0.24641 0.92143 0.02907 0.0
H4510 H 0.23892 0.91416 0.01571 0.0
H4511 H 0.22232 0.91363 0.01356 0.0
loop_
_geom_bond_atom_site_label_1
_geom_bond_atom_site_label_2
_geom_bond_distance
_geom_bond_site_symmetry_2
_ccdc_geom_bond_type
C0 C1 1.264 . S
C0 C5 1.479 . S
C0 C10 1.465 . S
C1 C0 1.264 . S
C1 C3 1.339 . S
C1 H28 0.931 . S
C2 C3 1.454 . S
C2 C4 1.305 1_455 S
C3 C1 1.339 . S
C3 C2 1.454 . S
C3 H29 0.929 . S
C4 C2 1.305 1_655 S
C4 C5 1.405 1_655 S
C4 H30 0.930 . S
C5 C0 1.479 . S
C5 C4 1.405 1_455 S
C5 H31 0.931 . S
U6 O7 2.454 . S
U6 O8 2.458 . S
U6 C9 2.984 . S
U6 C10 2.847 . S
U6 C23 2.882 . S
U6 O24 2.441 . S
U6 O25 2.420 . S
U6 O26 2.455 . S
U6 O27 2.449 . S
O7 U6 2.454 . S
O7 C9 1.353 . S
O8 U6 2.458 . S
O8 C9 1.286 . S
C9 U6 2.984 . S
C9 O7 1.353 . S
C9 O8 1.286 . S
C9 C11 1.363 . S
C10 C0 1.465 . S
C10 U6 2.847 . S
C10 O24 1.249 . S
C10 O25 1.202 . S
C11 C9 1.363 . S
C11 C13 1.408 . S
C11 C16 1.342 . S
C12 C13 1.310 . S
C12 C15 1.461 . S
C12 H32 0.932 . S
C13 C11 1.408 . S
C13 C12 1.310 . S
C13 H33 0.930 . S
C14 C15 1.474 . S
C14 C16 1.285 . S
C14 H34 0.929 . S
C15 C12 1.461 . S
C15 C14 1.474 . S
C16 C11 1.342 . S
C16 C14 1.285 . S
C16 H35 0.930 . S
C17 C20 1.424 . S
C17 C22 1.245 . S
C17 C23 1.428 . S
C18 C21 1.260 . S
C18 C22 1.477 . S
C18 H36 0.932 . S
C19 C20 1.384 . S
C19 C21 1.479 . S
C19 H37 0.929 . S
C20 C17 1.424 . S
C20 C19 1.384 . S
C20 H38 0.928 . S
C21 C18 1.260 . S
C21 C19 1.479 . S
C22 C17 1.245 . S
C22 C18 1.477 . S
C22 H39 0.932 . S
C23 U6 2.882 . S
C23 C17 1.428 . S
C23 O26 1.301 . S
C23 O27 1.282 . S
O24 U6 2.441 . S
O24 C10 1.249 . S
O25 U6 2.420 . S
O25 C10 1.202 . S
O26 U6 2.455 . S
O26 C23 1.301 . S
O27 U6 2.449 . S
O27 C23 1.282 . S
H28 C1 0.931 . S
H29 C3 0.929 . S
H30 C4 0.930 . S
H31 C5 0.931 . S
H32 C12 0.932 . S
H33 C13 0.930 . S
H34 C14 0.929 . S
H35 C16 0.930 . S
H36 C18 0.932 . S
H37 C19 0.929 . S
H38 C20 0.928 . S
H39 C22 0.932 . S
C40 C41 1.264 . S
C40 C45 1.479 . S
C40 C50 1.465 . S
C41 C40 1.264 . S
C41 C43 1.339 . S
C41 H68 0.931 . S
C42 C43 1.395 . S
C42 C44 1.320 . S
C43 C41 1.339 . S
C43 C42 1.395 . S
C43 H69 0.929 . S
C44 C42 1.320 . S
C44 C45 1.405 . S
C44 H70 0.930 . S
C45 C40 1.479 . S
C45 C44 1.405 . S
C45 H71 0.931 . S
U46 O47 2.454 . S
U46 O48 2.458 . S
U46 C49 2.984 . S
U46 C50 2.847 . S
U46 C63 2.882 . S
U46 O64 2.441 . S
U46 O65 2.420 . S
U46 O66 2.455 . S
U46 O67 2.449 . S
O47 U46 2.454 . S
O47 C49 1.353 . S
O48 U46 2.458 . S
O48 C49 1.286 . S
C49 U46 2.984 . S
C49 O47 1.353 . S
C49 O48 1.286 . S
C49 C51 1.363 . S
C50 C40 1.465 . S
C50 U46 2.847 . S
C50 O64 1.249 . S
C50 O65 1.202 . S
C51 C49 1.363 . S
C51 C53 1.408 . S
C51 C56 1.342 . S
C52 C53 1.310 . S
C52 C55 1.461 . S
C52 H72 0.932 . S
C53 C51 1.408 . S
C53 C52 1.310 . S
C53 H73 0.930 . S
C54 C55 1.474 . S
C54 C56 1.285 . S
C54 H74 0.929 . S
C55 C52 1.461 . S
C55 C54 1.474 . S
C56 C51 1.342 . S
C56 C54 1.285 . S
C56 H75 0.930 . S
C57 C60 1.424 . S
C57 C62 1.245 . S
C57 C63 1.428 . S
C58 C61 1.260 . S
C58 C62 1.477 1_455 S
C58 H76 0.932 . S
C59 C60 1.384 . S
C59 C61 1.479 1_655 S
C59 H77 0.929 . S
C60 C57 1.424 . S
C60 C59 1.384 . S
C60 H78 0.928 . S
C61 C58 1.260 . S
C61 C59 1.479 1_455 S
C62 C57 1.245 . S
C62 C58 1.477 1_655 S
C62 H79 0.924 1_655 S
C63 U46 2.882 . S
C63 C57 1.428 . S
C63 O66 1.301 . S
C63 O67 1.282 . S
O64 U46 2.441 . S
O64 C50 1.249 . S
O65 U46 2.420 . S
O65 C50 1.202 . S
O66 U46 2.455 . S
O66 C63 1.301 . S
O67 U46 2.449 . S
O67 C63 1.282 . S
H68 C41 0.931 . S
H69 C43 0.929 . S
H70 C44 0.930 . S
H71 C45 0.931 . S
H72 C52 0.932 . S
H73 C53 0.930 . S
H74 C54 0.929 . S
H75 C56 0.930 . S
H76 C58 0.932 . S
H77 C59 0.929 . S
H78 C60 0.928 . S
H79 C62 0.924 1_455 S
C80 C81 1.264 . S
C80 C85 1.479 . S
C80 C90 1.465 . S
C81 C80 1.264 . S
C81 C83 1.339 . S
C81 H108 0.931 . S
C82 C83 1.454 . S
C82 C84 1.305 1_455 S
C83 C81 1.339 . S
C83 C82 1.454 . S
C83 H109 0.929 . S
C84 C82 1.305 1_655 S
C84 C85 1.405 1_655 S
C84 H110 0.930 . S
C85 C80 1.479 . S
C85 C84 1.405 1_455 S
C85 H111 0.931 . S
U86 O87 2.454 . S
U86 O88 2.458 . S
U86 C89 2.984 . S
U86 C90 2.847 . S
U86 C103 2.882 . S
U86 O104 2.441 . S
U86 O105 2.420 . S
U86 O106 2.455 . S
U86 O107 2.449 . S
O87 U86 2.454 . S
O87 C89 1.353 . S
O88 U86 2.458 . S
O88 C89 1.286 . S
C89 U86 2.984 . S
C89 O87 1.353 . S
C89 O88 1.286 . S
C89 C91 1.363 . S
C90 C80 1.465 . S
C90 U86 2.847 . S
C90 O104 1.249 . S
C90 O105 1.202 . S
C91 C89 1.363 . S
C91 C93 1.408 . S
C91 C96 1.342 . S
C92 C93 1.310 . S
C92 C95 1.461 . S
C92 H112 0.932 . S
C93 C91 1.408 . S
C93 C92 1.310 . S
C93 H113 0.930 . S
C94 C95 1.474 . S
C94 C96 1.285 . S
C94 H114 0.929 . S
C95 C92 1.461 . S
C95 C94 1.474 . S
C96 C91 1.342 . S
C96 C94 1.285 . S
C96 H115 0.930 . S
C97 C100 1.424 . S
C97 C102 1.245 . S
C97 C103 1.428 . S
C98 C101 1.260 . S
C98 C102 1.477 . S
C98 H116 0.932 . S
C99 C100 1.384 . S
C99 C101 1.479 . S
C99 H117 0.929 . S
C100 C97 1.424 . S
C100 C99 1.384 . S
C100 H118 0.928 . S
C101 C98 1.260 . S
C101 C99 1.479 . S
C102 C97 1.245 . S
C102 C98 1.477 . S
C102 H119 0.932 . S
C103 U86 2.882 . S
C103 C97 1.428 . S
C103 O106 1.301 . S
C103 O107 1.282 . S
O104 U86 2.441 . S
O104 C90 1.249 . S
O105 U86 2.420 . S
O105 C90 1.202 . S
O106 U86 2.455 . S
O106 C103 1.301 . S
O107 U86 2.449 . S
O107 C103 1.282 . S
H108 C81 0.931 . S
H109 C83 0.929 . S
H110 C84 0.930 . S
H111 C85 0.931 . S
H112 C92 0.932 . S
H113 C93 0.930 . S
H114 C94 0.929 . S
H115 C96 0.930 . S
H116 C98 0.932 . S
H117 C99 0.929 . S
H118 C100 0.928 . S
H119 C102 0.932 . S
C120 C121 1.264 . S
C120 C125 1.479 . S
C120 C130 1.465 . S
C121 C120 1.264 . S
C121 C123 1.339 . S
C121 H148 0.931 . S
C122 C123 1.395 . S
C122 C124 1.320 . S
C123 C121 1.339 . S
C123 C122 1.395 . S
C123 H149 0.929 . S
C124 C122 1.320 . S
C124 C125 1.405 . S
C124 H150 0.930 . S
C125 C120 1.479 . S
C125 C124 1.405 . S
C125 H151 0.931 . S
U126 O127 2.454 . S
U126 O128 2.458 . S
U126 C129 2.984 . S
U126 C130 2.847 . S
U126 C143 2.882 . S
U126 O144 2.441 . S
U126 O145 2.420 . S
U126 O146 2.455 . S
U126 O147 2.449 . S
O127 U126 2.454 . S
O127 C129 1.353 . S
O128 U126 2.458 . S
O128 C129 1.286 . S
C129 U126 2.984 . S
C129 O127 1.353 . S
C129 O128 1.286 . S
C129 C131 1.363 . S
C130 C120 1.465 . S
C130 U126 2.847 . S
C130 O144 1.249 . S
C130 O145 1.202 . S
C131 C129 1.363 . S
C131 C133 1.408 . S
C131 C136 1.342 . S
C132 C133 1.310 . S
C132 C135 1.461 . S
C132 H152 0.932 . S
C133 C131 1.408 . S
C133 C132 1.310 . S
C133 H153 0.930 . S
C134 C135 1.474 . S
C134 C136 1.285 . S
C134 H154 0.929 . S
C135 C132 1.461 . S
C135 C134 1.474 . S
C136 C131 1.342 . S
C136 C134 1.285 . S
C136 H155 0.930 . S
C137 C140 1.424 . S
C137 C142 1.245 . S
C137 C143 1.428 . S
C138 C141 1.260 . S
C138 C142 1.477 1_455 S
C138 H156 0.932 . S
C139 C140 1.384 . S
C139 C141 1.479 1_655 S
C139 H157 0.929 . S
C140 C137 1.424 . S
C140 C139 1.384 . S
C140 H158 0.928 . S
C141 C138 1.260 . S
C141 C139 1.479 1_455 S
C142 C137 1.245 . S
C142 C138 1.477 1_655 S
C142 H159 0.924 1_655 S
C143 U126 2.882 . S
C143 C137 1.428 . S
C143 O146 1.301 . S
C143 O147 1.282 . S
O144 U126 2.441 . S
O144 C130 1.249 . S
O145 U126 2.420 . S
O145 C130 1.202 . S
O146 U126 2.455 . S
O146 C143 1.301 . S
O147 U126 2.449 . S
O147 C143 1.282 . S
H148 C121 0.931 . S
H149 C123 0.929 . S
H150 C124 0.930 . S
H151 C125 0.931 . S
H152 C132 0.932 . S
H153 C133 0.930 . S
H154 C134 0.929 . S
H155 C136 0.930 . S
H156 C138 0.932 . S
H157 C139 0.929 . S
H158 C140 0.928 . S
H159 C142 0.924 1_455 S
C160 C161 1.264 . S
C160 C165 1.528 . S
C160 C170 1.465 . S
C161 C160 1.264 . S
C161 C163 1.339 . S
C161 H188 0.931 . S
C162 C163 1.395 1_565 S
C162 C164 1.320 . S
C163 C161 1.339 . S
C163 C162 1.395 1_545 S
C163 H189 0.929 . S
C164 C162 1.320 . S
C164 C165 1.369 1_565 S
C164 H190 0.930 . S
C165 C160 1.528 . S
C165 C164 1.369 1_545 S
C165 H191 0.913 1_545 S
U166 O167 2.454 . S
U166 O168 2.458 . S
U166 C169 2.984 . S
U166 C170 2.847 . S
U166 C183 2.882 . S
U166 O184 2.441 . S
U166 O185 2.420 . S
U166 O186 2.455 . S
U166 O187 2.449 . S
O167 U166 2.454 . S
O167 C169 1.353 . S
O168 U166 2.458 . S
O168 C169 1.286 . S
C169 U166 2.984 . S
C169 O167 1.353 . S
C169 O168 1.286 . S
C169 C171 1.363 . S
C170 C160 1.465 . S
C170 U166 2.847 . S
C170 O184 1.249 . S
C170 O185 1.202 . S
C171 C169 1.363 . S
C171 C173 1.408 . S
C171 C176 1.342 . S
C172 C173 1.310 . S
C172 C175 1.461 . S
C172 H192 0.932 . S
C173 C171 1.408 . S
C173 C172 1.310 . S
C173 H193 0.930 . S
C174 C175 1.474 . S
C174 C176 1.285 . S
C174 H194 0.929 . S
C175 C172 1.461 . S
C175 C174 1.474 . S
C176 C171 1.342 . S
C176 C174 1.285 . S
C176 H195 0.930 . S
C177 C180 1.424 . S
C177 C182 1.245 . S
C177 C183 1.428 . S
C178 C181 1.260 . S
C178 C182 1.477 . S
C178 H196 0.932 . S
C179 C180 1.384 . S
C179 C181 1.479 . S
C179 H197 0.929 . S
C180 C177 1.424 . S
C180 C179 1.384 . S
C180 H198 0.928 . S
C181 C178 1.260 . S
C181 C179 1.479 . S
C182 C177 1.245 . S
C182 C178 1.477 . S
C182 H199 0.932 . S
C183 U166 2.882 . S
C183 C177 1.428 . S
C183 O186 1.301 . S
C183 O187 1.282 . S
O184 U166 2.441 . S
O184 C170 1.249 . S
O185 U166 2.420 . S
O185 C170 1.202 . S
O186 U166 2.455 . S
O186 C183 1.301 . S
O187 U166 2.449 . S
O187 C183 1.282 . S
H188 C161 0.931 . S
H189 C163 0.929 . S
H190 C164 0.930 . S
H191 C165 0.913 1_565 S
H192 C172 0.932 . S
H193 C173 0.930 . S
H194 C174 0.929 . S
H195 C176 0.930 . S
H196 C178 0.932 . S
H197 C179 0.929 . S
H198 C180 0.928 . S
H199 C182 0.932 . S
C200 C201 1.264 . S
C200 C205 1.479 . S
C200 C210 1.465 . S
C201 C200 1.264 . S
C201 C203 1.339 . S
C201 H228 0.931 . S
C202 C203 1.395 . S
C202 C204 1.320 . S
C203 C201 1.339 . S
C203 C202 1.395 . S
C203 H229 0.929 . S
C204 C202 1.320 . S
C204 C205 1.405 . S
C204 H230 0.930 . S
C205 C200 1.479 . S
C205 C204 1.405 . S
C205 H231 0.931 . S
U206 O207 2.454 . S
U206 O208 2.458 . S
U206 C209 2.984 . S
U206 C210 2.847 . S
U206 C223 2.882 . S
U206 O224 2.441 . S
U206 O225 2.420 . S
U206 O226 2.455 . S
U206 O227 2.449 . S
O207 U206 2.454 . S
O207 C209 1.353 . S
O208 U206 2.458 . S
O208 C209 1.286 . S
C209 U206 2.984 . S
C209 O207 1.353 . S
C209 O208 1.286 . S
C209 C211 1.363 . S
C210 C200 1.465 . S
C210 U206 2.847 . S
C210 O224 1.249 . S
C210 O225 1.202 . S
C211 C209 1.363 . S
C211 C213 1.408 . S
C211 C216 1.342 . S
C212 C213 1.310 . S
C212 C215 1.461 . S
C212 H232 0.932 . S
C213 C211 1.408 . S
C213 C212 1.310 . S
C213 H233 0.930 . S
C214 C215 1.474 . S
C214 C216 1.285 . S
C214 H234 0.929 . S
C215 C212 1.461 . S
C215 C214 1.474 . S
C216 C211 1.342 . S
C216 C214 1.285 . S
C216 H235 0.930 . S
C217 C220 1.424 . S
C217 C222 1.245 . S
C217 C223 1.428 . S
C218 C221 1.260 . S
C218 C222 1.477 . S
C218 H236 0.932 . S
C219 C220 1.384 . S
C219 C221 1.479 . S
C219 H237 0.929 . S
C220 C217 1.424 . S
C220 C219 1.384 . S
C220 H238 0.928 . S
C221 C218 1.260 . S
C221 C219 1.479 . S
C222 C217 1.245 . S
C222 C218 1.477 . S
C222 H239 0.932 . S
C223 U206 2.882 . S
C223 C217 1.428 . S
C223 O226 1.301 . S
C223 O227 1.282 . S
O224 U206 2.441 . S
O224 C210 1.249 . S
O225 U206 2.420 . S
O225 C210 1.202 . S
O226 U206 2.455 . S
O226 C223 1.301 . S
O227 U206 2.449 . S
O227 C223 1.282 . S
H228 C201 0.931 . S
H229 C203 0.929 . S
H230 C204 0.930 . S
H231 C205 0.931 . S
H232 C212 0.932 . S
H233 C213 0.930 . S
H234 C214 0.929 . S
H235 C216 0.930 . S
H236 C218 0.932 . S
H237 C219 0.929 . S
H238 C220 0.928 . S
H239 C222 0.932 . S
C240 C241 1.264 . S
C240 C245 1.528 . S
C240 C250 1.465 . S
C241 C240 1.264 . S
C241 C243 1.339 . S
C241 H268 0.931 . S
C242 C243 1.395 1_545 S
C242 C244 1.320 . S
C243 C241 1.339 . S
C243 C242 1.395 1_565 S
C243 H269 0.929 . S
C244 C242 1.320 . S
C244 C245 1.369 1_545 S
C244 H270 0.930 . S
C245 C240 1.528 . S
C245 C244 1.369 1_565 S
C245 H271 0.913 1_565 S
U246 O247 2.454 . S
U246 O248 2.458 . S
U246 C249 2.984 . S
U246 C250 2.847 . S
U246 C263 2.882 . S
U246 O264 2.441 . S
U246 O265 2.420 . S
U246 O266 2.455 . S
U246 O267 2.449 . S
O247 U246 2.454 . S
O247 C249 1.353 . S
O248 U246 2.458 . S
O248 C249 1.286 . S
C249 U246 2.984 . S
C249 O247 1.353 . S
C249 O248 1.286 . S
C249 C251 1.363 . S
C250 C240 1.465 . S
C250 U246 2.847 . S
C250 O264 1.249 . S
C250 O265 1.202 . S
C251 C249 1.363 . S
C251 C253 1.408 . S
C251 C256 1.342 . S
C252 C253 1.310 . S
C252 C255 1.461 . S
C252 H272 0.932 . S
C253 C251 1.408 . S
C253 C252 1.310 . S
C253 H273 0.930 . S
C254 C255 1.474 . S
C254 C256 1.285 . S
C254 H274 0.929 . S
C255 C252 1.461 . S
C255 C254 1.474 . S
C256 C251 1.342 . S
C256 C254 1.285 . S
C256 H275 0.930 . S
C257 C260 1.424 . S
C257 C262 1.245 . S
C257 C263 1.428 . S
C258 C261 1.260 . S
C258 C262 1.477 . S
C258 H276 0.932 . S
C259 C260 1.384 . S
C259 C261 1.479 . S
C259 H277 0.929 . S
C260 C257 1.424 . S
C260 C259 1.384 . S
C260 H278 0.928 . S
C261 C258 1.260 . S
C261 C259 1.479 . S
C262 C257 1.245 . S
C262 C258 1.477 . S
C262 H279 0.932 . S
C263 U246 2.882 . S
C263 C257 1.428 . S
C263 O266 1.301 . S
C263 O267 1.282 . S
O264 U246 2.441 . S
O264 C250 1.249 . S
O265 U246 2.420 . S
O265 C250 1.202 . S
O266 U246 2.455 . S
O266 C263 1.301 . S
O267 U246 2.449 . S
O267 C263 1.282 . S
H268 C241 0.931 . S
H269 C243 0.929 . S
H270 C244 0.930 . S
H271 C245 0.913 1_545 S
H272 C252 0.932 . S
H273 C253 0.930 . S
H274 C254 0.929 . S
H275 C256 0.930 . S
H276 C258 0.932 . S
H277 C259 0.929 . S
H278 C260 0.928 . S
H279 C262 0.932 . S
C280 C281 1.264 . S
C280 C285 1.479 . S
C280 C290 1.465 . S
C281 C280 1.264 . S
C281 C283 1.339 . S
C281 H308 0.931 . S
C282 C283 1.395 . S
C282 C284 1.320 . S
C283 C281 1.339 . S
C283 C282 1.395 . S
C283 H309 0.929 . S
C284 C282 1.320 . S
C284 C285 1.405 . S
C284 H310 0.930 . S
C285 C280 1.479 . S
C285 C284 1.405 . S
C285 H311 0.931 . S
U286 O287 2.454 . S
U286 O288 2.458 . S
U286 C289 2.984 . S
U286 C290 2.847 . S
U286 C303 2.882 . S
U286 O304 2.441 . S
U286 O305 2.420 . S
U286 O306 2.455 . S
U286 O307 2.449 . S
O287 U286 2.454 . S
O287 C289 1.353 . S
O288 U286 2.458 . S
O288 C289 1.286 . S
C289 U286 2.984 . S
C289 O287 1.353 . S
C289 O288 1.286 . S
C289 C291 1.363 . S
C290 C280 1.465 . S
C290 U286 2.847 . S
C290 O304 1.249 . S
C290 O305 1.202 . S
C291 C289 1.363 . S
C291 C293 1.408 . S
C291 C296 1.342 . S
C292 C293 1.310 . S
C292 C295 1.461 . S
C292 H312 0.932 . S
C293 C291 1.408 . S
C293 C292 1.310 . S
C293 H313 0.930 . S
C294 C295 1.474 . S
C294 C296 1.285 . S
C294 H314 0.929 . S
C295 C292 1.461 . S
C295 C294 1.474 . S
C296 C291 1.342 . S
C296 C294 1.285 . S
C296 H315 0.930 . S
C297 C300 1.424 . S
C297 C302 1.245 . S
C297 C303 1.428 . S
C298 C301 1.260 . S
C298 C302 1.477 . S
C298 H316 0.932 . S
C299 C300 1.384 . S
C299 C301 1.479 . S
C299 H317 0.929 . S
C300 C297 1.424 . S
C300 C299 1.384 . S
C300 H318 0.928 . S
C301 C298 1.260 . S
C301 C299 1.479 . S
C302 C297 1.245 . S
C302 C298 1.477 . S
C302 H319 0.932 . S
C303 U286 2.882 . S
C303 C297 1.428 . S
C303 O306 1.301 . S
C303 O307 1.282 . S
O304 U286 2.441 . S
O304 C290 1.249 . S
O305 U286 2.420 . S
O305 C290 1.202 . S
O306 U286 2.455 . S
O306 C303 1.301 . S
O307 U286 2.449 . S
O307 C303 1.282 . S
H308 C281 0.931 . S
H309 C283 0.929 . S
H310 C284 0.930 . S
H311 C285 0.931 . S
H312 C292 0.932 . S
H313 C293 0.930 . S
H314 C294 0.929 . S
H315 C296 0.930 . S
H316 C298 0.932 . S
H317 C299 0.929 . S
H318 C300 0.928 . S
H319 C302 0.932 . S
C320 C321 1.264 . S
C320 C325 1.479 . S
C320 C330 1.465 . S
C321 C320 1.264 . S
C321 C323 1.339 . S
C321 H348 0.931 . S
C322 C323 1.395 . S
C322 C324 1.320 . S
C323 C321 1.339 . S
C323 C322 1.395 . S
C323 H349 0.929 . S
C324 C322 1.320 . S
C324 C325 1.405 . S
C324 H350 0.930 . S
C325 C320 1.479 . S
C325 C324 1.405 . S
C325 H351 0.931 . S
U326 O327 2.454 . S
U326 O328 2.458 . S
U326 C329 2.984 . S
U326 C330 2.847 . S
U326 C343 2.882 . S
U326 O344 2.441 . S
U326 O345 2.420 . S
U326 O346 2.455 . S
U326 O347 2.449 . S
O327 U326 2.454 . S
O327 C329 1.353 . S
O328 U326 2.458 . S
O328 C329 1.286 . S
C329 U326 2.984 . S
C329 O327 1.353 . S
C329 O328 1.286 . S
C329 C331 1.363 . S
C330 C320 1.465 . S
C330 U326 2.847 . S
C330 O344 1.249 . S
C330 O345 1.202 . S
C331 C329 1.363 . S
C331 C333 1.408 . S
C331 C336 1.342 . S
C332 C333 1.310 . S
C332 C335 1.461 . S
C332 H352 0.932 . S
C333 C331 1.408 . S
C333 C332 1.310 . S
C333 H353 0.930 . S
C334 C335 1.474 . S
C334 C336 1.285 . S
C334 H354 0.929 . S
C335 C332 1.461 . S
C335 C334 1.474 . S
C336 C331 1.342 . S
C336 C334 1.285 . S
C336 H355 0.930 . S
C337 C340 1.424 . S
C337 C342 1.245 . S
C337 C343 1.428 . S
C338 C341 1.258 1_556 S
C338 C342 1.477 1_556 S
C338 H356 0.932 . S
C339 C340 1.384 . S
C339 C341 1.485 . S
C339 H357 0.929 . S
C340 C337 1.424 . S
C340 C339 1.384 . S
C340 H358 0.928 . S
C341 C338 1.258 1_554 S
C341 C339 1.485 . S
C342 C337 1.245 . S
C342 C338 1.477 1_554 S
C342 H359 0.932 . S
C343 U326 2.882 . S
C343 C337 1.428 . S
C343 O346 1.301 . S
C343 O347 1.282 . S
O344 U326 2.441 . S
O344 C330 1.249 . S
O345 U326 2.420 . S
O345 C330 1.202 . S
O346 U326 2.455 . S
O346 C343 1.301 . S
O347 U326 2.449 . S
O347 C343 1.282 . S
H348 C321 0.931 . S
H349 C323 0.929 . S
H350 C324 0.930 . S
H351 C325 0.931 . S
H352 C332 0.932 . S
H353 C333 0.930 . S
H354 C334 0.929 . S
H355 C336 0.930 . S
H356 C338 0.932 . S
H357 C339 0.929 . S
H358 C340 0.928 . S
H359 C342 0.932 . S
C360 C361 1.264 . S
C360 C365 1.479 . S
C360 C370 1.465 . S
C361 C360 1.264 . S
C361 C363 1.339 . S
C361 H388 0.931 . S
C362 C363 1.395 . S
C362 C364 1.320 . S
C363 C361 1.339 . S
C363 C362 1.395 . S
C363 H389 0.929 . S
C364 C362 1.320 . S
C364 C365 1.405 . S
C364 H390 0.930 . S
C365 C360 1.479 . S
C365 C364 1.405 . S
C365 H391 0.931 . S
U366 O367 2.454 . S
U366 O368 2.458 . S
U366 C369 2.984 . S
U366 C370 2.847 . S
U366 C383 2.882 . S
U366 O384 2.441 . S
U366 O385 2.420 . S
U366 O386 2.455 . S
U366 O387 2.449 . S
O367 U366 2.454 . S
O367 C369 1.353 . S
O368 U366 2.458 . S
O368 C369 1.286 . S
C369 U366 2.984 . S
C369 O367 1.353 . S
C369 O368 1.286 . S
C369 C371 1.363 . S
C370 C360 1.465 . S
C370 U366 2.847 . S
C370 O384 1.249 . S
C370 O385 1.202 . S
C371 C369 1.363 . S
C371 C373 1.408 . S
C371 C376 1.342 . S
C372 C373 1.310 . S
C372 C375 1.461 . S
C372 H392 0.932 . S
C373 C371 1.408 . S
C373 C372 1.310 . S
C373 H393 0.930 . S
C374 C375 1.474 . S
C374 C376 1.285 . S
C374 H394 0.929 . S
C375 C372 1.461 . S
C375 C374 1.474 . S
C376 C371 1.342 . S
C376 C374 1.285 . S
C376 H395 0.930 . S
C377 C380 1.424 . S
C377 C382 1.245 . S
C377 C383 1.428 . S
C378 C381 1.260 . S
C378 C382 1.477 . S
C378 H396 0.932 . S
C379 C380 1.384 . S
C379 C381 1.479 . S
C379 H397 0.929 . S
C380 C377 1.424 . S
C380 C379 1.384 . S
C380 H398 0.928 . S
C381 C378 1.260 . S
C381 C379 1.479 . S
C382 C377 1.245 . S
C382 C378 1.477 . S
C382 H399 0.932 . S
C383 U366 2.882 . S
C383 C377 1.428 . S
C383 O386 1.301 . S
C383 O387 1.282 . S
O384 U366 2.441 . S
O384 C370 1.249 . S
O385 U366 2.420 . S
O385 C370 1.202 . S
O386 U366 2.455 . S
O386 C383 1.301 . S
O387 U366 2.449 . S
O387 C383 1.282 . S
H388 C361 0.931 . S
H389 C363 0.929 . S
H390 C364 0.930 . S
H391 C365 0.931 . S
H392 C372 0.932 . S
H393 C373 0.930 . S
H394 C374 0.929 . S
H395 C376 0.930 . S
H396 C378 0.932 . S
H397 C379 0.929 . S
H398 C380 0.928 . S
H399 C382 0.932 . S
C400 C401 1.264 . S
C400 C405 1.479 . S
C400 C410 1.465 . S
C401 C400 1.264 . S
C401 C403 1.339 . S
C401 H428 0.931 . S
C402 C403 1.395 . S
C402 C404 1.320 . S
C403 C401 1.339 . S
C403 C402 1.395 . S
C403 H429 0.929 . S
C404 C402 1.320 . S
C404 C405 1.405 . S
C404 H430 0.930 . S
C405 C400 1.479 . S
C405 C404 1.405 . S
C405 H431 0.931 . S
U406 O407 2.454 . S
U406 O408 2.458 . S
U406 C409 2.984 . S
U406 C410 2.847 . S
U406 C423 2.882 . S
U406 O424 2.441 . S
U406 O425 2.420 . S
U406 O426 2.455 . S
U406 O427 2.449 . S
O407 U406 2.454 . S
O407 C409 1.353 . S
O408 U406 2.458 . S
O408 C409 1.286 . S
C409 U406 2.984 . S
C409 O407 1.353 . S
C409 O408 1.286 . S
C409 C411 1.363 . S
C410 C400 1.465 . S
C410 U406 2.847 . S
C410 O424 1.249 . S
C410 O425 1.202 . S
C411 C409 1.363 . S
C411 C413 1.408 . S
C411 C416 1.342 . S
C412 C413 1.310 . S
C412 C415 1.461 . S
C412 H432 0.932 . S
C413 C411 1.408 . S
C413 C412 1.310 . S
C413 H433 0.930 . S
C414 C415 1.474 . S
C414 C416 1.285 . S
C414 H434 0.929 . S
C415 C412 1.461 . S
C415 C414 1.474 . S
C416 C411 1.342 . S
C416 C414 1.285 . S
C416 H435 0.930 . S
C417 C420 1.424 . S
C417 C422 1.245 . S
C417 C423 1.428 . S
C418 C421 1.260 . S
C418 C422 1.477 . S
C418 H436 0.932 . S
C419 C420 1.384 . S
C419 C421 1.479 . S
C419 H437 0.929 . S
C420 C417 1.424 . S
C420 C419 1.384 . S
C420 H438 0.928 . S
C421 C418 1.260 . S
C421 C419 1.479 . S
C422 C417 1.245 . S
C422 C418 1.477 . S
C422 H439 0.932 . S
C423 U406 2.882 . S
C423 C417 1.428 . S
C423 O426 1.301 . S
C423 O427 1.282 . S
O424 U406 2.441 . S
O424 C410 1.249 . S
O425 U406 2.420 . S
O425 C410 1.202 . S
O426 U406 2.455 . S
O426 C423 1.301 . S
O427 U406 2.449 . S
O427 C423 1.282 . S
H428 C401 0.931 . S
H429 C403 0.929 . S
H430 C404 0.930 . S
H431 C405 0.931 . S
H432 C412 0.932 . S
H433 C413 0.930 . S
H434 C414 0.929 . S
H435 C416 0.930 . S
H436 C418 0.932 . S
H437 C419 0.929 . S
H438 C420 0.928 . S
H439 C422 0.932 . S
C440 C441 1.264 . S
C440 C445 1.479 . S
C440 C450 1.465 . S
C441 C440 1.264 . S
C441 C443 1.339 . S
C441 H468 0.931 . S
C442 C443 1.395 . S
C442 C444 1.320 . S
C443 C441 1.339 . S
C443 C442 1.395 . S
C443 H469 0.929 . S
C444 C442 1.320 . S
C444 C445 1.405 . S
C444 H470 0.930 . S
C445 C440 1.479 . S
C445 C444 1.405 . S
C445 H471 0.931 . S
U446 O447 2.454 . S
U446 O448 2.458 . S
U446 C449 2.984 . S
U446 C450 2.847 . S
U446 C463 2.882 . S
U446 O464 2.441 . S
U446 O465 2.420 . S
U446 O466 2.455 . S
U446 O467 2.449 . S
O447 U446 2.454 . S
O447 C449 1.353 . S
O448 U446 2.458 . S
O448 C449 1.286 . S
C449 U446 2.984 . S
C449 O447 1.353 . S
C449 O448 1.286 . S
C449 C451 1.363 . S
C450 C440 1.465 . S
C450 U446 2.847 . S
C450 O464 1.249 . S
C450 O465 1.202 . S
C451 C449 1.363 . S
C451 C453 1.408 . S
C451 C456 1.342 . S
C452 C453 1.310 . S
C452 C455 1.461 . S
C452 H472 0.932 . S
C453 C451 1.408 . S
C453 C452 1.310 . S
C453 H473 0.930 . S
C454 C455 1.474 . S
C454 C456 1.285 . S
C454 H474 0.929 . S
C455 C452 1.461 . S
C455 C454 1.474 . S
C456 C451 1.342 . S
C456 C454 1.285 . S
C456 H475 0.930 . S
C457 C460 1.424 . S
C457 C462 1.245 . S
C457 C463 1.428 . S
C458 C461 1.260 . S
C458 C462 1.477 . S
C458 H476 0.932 . S
C459 C460 1.384 . S
C459 C461 1.479 . S
C459 H477 0.929 . S
C460 C457 1.424 . S
C460 C459 1.384 . S
C460 H478 0.928 . S
C461 C458 1.260 . S
C461 C459 1.479 . S
C462 C457 1.245 . S
C462 C458 1.477 . S
C462 H479 0.932 . S
C463 U446 2.882 . S
C463 C457 1.428 . S
C463 O466 1.301 . S
C463 O467 1.282 . S
O464 U446 2.441 . S
O464 C450 1.249 . S
O465 U446 2.420 . S
O465 C450 1.202 . S
O466 U446 2.455 . S
O466 C463 1.301 . S
O467 U446 2.449 . S
O467 C463 1.282 . S
H468 C441 0.931 . S
H469 C443 0.929 . S
H470 C444 0.930 . S
H471 C445 0.931 . S
H472 C452 0.932 . S
H473 C453 0.930 . S
H474 C454 0.929 . S
H475 C456 0.930 . S
H476 C458 0.932 . S
H477 C459 0.929 . S
H478 C460 0.928 . S
H479 C462 0.932 . S
C480 C481 1.264 . S
C480 C485 1.479 . S
C480 C490 1.465 . S
C481 C480 1.264 . S
C481 C483 1.339 . S
C481 H508 0.931 . S
C482 C483 1.395 . S
C482 C484 1.320 . S
C483 C481 1.339 . S
C483 C482 1.395 . S
C483 H509 0.929 . S
C484 C482 1.320 . S
C484 C485 1.405 . S
C484 H510 0.930 . S
C485 C480 1.479 . S
C485 C484 1.405 . S
C485 H511 0.931 . S
U486 O487 2.454 . S
U486 O488 2.458 . S
U486 C489 2.984 . S
U486 C490 2.847 . S
U486 C503 2.882 . S
U486 O504 2.441 . S
U486 O505 2.420 . S
U486 O506 2.455 . S
U486 O507 2.449 . S
O487 U486 2.454 . S
O487 C489 1.353 . S
O488 U486 2.458 . S
O488 C489 1.286 . S
C489 U486 2.984 . S
C489 O487 1.353 . S
C489 O488 1.286 . S
C489 C491 1.363 . S
C490 C480 1.465 . S
C490 U486 2.847 . S
C490 O504 1.249 . S
C490 O505 1.202 . S
C491 C489 1.363 . S
C491 C493 1.408 . S
C491 C496 1.342 . S
C492 C493 1.310 . S
C492 C495 1.461 . S
C492 H512 0.932 . S
C493 C491 1.408 . S
C493 C492 1.310 . S
C493 H513 0.930 . S
C494 C495 1.474 . S
C494 C496 1.285 . S
C494 H514 0.929 . S
C495 C492 1.461 . S
C495 C494 1.474 . S
C496 C491 1.342 . S
C496 C494 1.285 . S
C496 H515 0.930 . S
C497 C500 1.424 . S
C497 C502 1.245 . S
C497 C503 1.428 . S
C498 C501 1.258 1_455 S
C498 C502 1.477 1_455 S
C498 H516 0.933 . S
C499 C500 1.384 . S
C499 C501 1.508 . S
C499 H517 0.929 . S
C500 C497 1.424 . S
C500 C499 1.384 . S
C500 H518 0.928 . S
C501 C498 1.258 1_655 S
C501 C499 1.508 . S
C502 C497 1.245 . S
C502 C498 1.477 1_655 S
C502 H519 0.932 . S
C503 U486 2.882 . S
C503 C497 1.428 . S
C503 O506 1.301 . S
C503 O507 1.282 . S
O504 U486 2.441 . S
O504 C490 1.249 . S
O505 U486 2.420 . S
O505 C490 1.202 . S
O506 U486 2.455 . S
O506 C503 1.301 . S
O507 U486 2.449 . S
O507 C503 1.282 . S
H508 C481 0.931 . S
H509 C483 0.929 . S
H510 C484 0.930 . S
H511 C485 0.931 . S
H512 C492 0.932 . S
H513 C493 0.930 . S
H514 C494 0.929 . S
H515 C496 0.930 . S
H516 C498 0.933 . S
H517 C499 0.929 . S
H518 C500 0.928 . S
H519 C502 0.932 . S
C520 C521 1.264 . S
C520 C525 1.522 . S
C520 C530 1.465 . S
C521 C520 1.264 . S
C521 C523 1.339 . S
C521 H548 0.931 . S
C522 C523 1.330 1_655 S
C522 C524 1.350 . S
C523 C521 1.339 . S
C523 C522 1.330 1_455 S
C523 H549 0.929 . S
C524 C522 1.350 . S
C524 C525 1.384 1_655 S
C524 H550 0.930 . S
C525 C520 1.522 . S
C525 C524 1.384 1_455 S
C525 H551 0.914 1_455 S
U526 O527 2.454 . S
U526 O528 2.458 . S
U526 C529 2.984 . S
U526 C530 2.847 . S
U526 C543 2.882 . S
U526 O544 2.441 . S
U526 O545 2.420 . S
U526 O546 2.455 . S
U526 O547 2.449 . S
O527 U526 2.454 . S
O527 C529 1.353 . S
O528 U526 2.458 . S
O528 C529 1.286 . S
C529 U526 2.984 . S
C529 O527 1.353 . S
C529 O528 1.286 . S
C529 C531 1.363 . S
C530 C520 1.465 . S
C530 U526 2.847 . S
C530 O544 1.249 . S
C530 O545 1.202 . S
C531 C529 1.363 . S
C531 C533 1.408 . S
C531 C536 1.342 . S
C532 C533 1.310 . S
C532 C535 1.461 . S
C532 H552 0.932 . S
C533 C531 1.408 . S
C533 C532 1.310 . S
C533 H553 0.930 . S
C534 C535 1.474 . S
C534 C536 1.285 . S
C534 H554 0.929 . S
C535 C532 1.461 . S
C535 C534 1.474 . S
C536 C531 1.342 . S
C536 C534 1.285 . S
C536 H555 0.930 . S
C537 C540 1.424 . S
C537 C542 1.245 . S
C537 C543 1.428 . S
C538 C541 1.260 . S
C538 C542 1.477 . S
C538 H556 0.932 . S
C539 C540 1.384 . S
C539 C541 1.479 . S
C539 H557 0.929 . S
C540 C537 1.424 . S
C540 C539 1.384 . S
C540 H558 0.928 . S
C541 C538 1.260 . S
C541 C539 1.479 . S
C542 C537 1.245 . S
C542 C538 1.477 . S
C542 H559 0.932 . S
C543 U526 2.882 . S
C543 C537 1.428 . S
C543 O546 1.301 . S
C543 O547 1.282 . S
O544 U526 2.441 . S
O544 C530 1.249 . S
O545 U526 2.420 . S
O545 C530 1.202 . S
O546 U526 2.455 . S
O546 C543 1.301 . S
O547 U526 2.449 . S
O547 C543 1.282 . S
H548 C521 0.931 . S
H549 C523 0.929 . S
H550 C524 0.930 . S
H551 C525 0.914 1_655 S
H552 C532 0.932 . S
H553 C533 0.930 . S
H554 C534 0.929 . S
H555 C536 0.930 . S
H556 C538 0.932 . S
H557 C539 0.929 . S
H558 C540 0.928 . S
H559 C542 0.932 . S
C560 C561 1.264 . S
C560 C565 1.479 . S
C560 C570 1.465 . S
C561 C560 1.264 . S
C561 C563 1.339 . S
C561 H588 0.931 . S
C562 C563 1.395 . S
C562 C564 1.320 . S
C563 C561 1.339 . S
C563 C562 1.395 . S
C563 H589 0.929 . S
C564 C562 1.320 . S
C564 C565 1.405 . S
C564 H590 0.930 . S
C565 C560 1.479 . S
C565 C564 1.405 . S
C565 H591 0.931 . S
U566 O567 2.454 . S
U566 O568 2.458 . S
U566 C569 2.984 . S
U566 C570 2.847 . S
U566 C583 2.882 . S
U566 O584 2.441 . S
U566 O585 2.420 . S
U566 O586 2.455 . S
U566 O587 2.449 . S
O567 U566 2.454 . S
O567 C569 1.353 . S
O568 U566 2.458 . S
O568 C569 1.286 . S
C569 U566 2.984 . S
C569 O567 1.353 . S
C569 O568 1.286 . S
C569 C571 1.363 . S
C570 C560 1.465 . S
C570 U566 2.847 . S
C570 O584 1.249 . S
C570 O585 1.202 . S
C571 C569 1.363 . S
C571 C573 1.408 . S
C571 C576 1.342 . S
C572 C573 1.310 . S
C572 C575 1.461 . S
C572 H592 0.932 . S
C573 C571 1.408 . S
C573 C572 1.310 . S
C573 H593 0.930 . S
C574 C575 1.474 . S
C574 C576 1.285 . S
C574 H594 0.929 . S
C575 C572 1.461 . S
C575 C574 1.474 . S
C576 C571 1.342 . S
C576 C574 1.285 . S
C576 H595 0.930 . S
C577 C580 1.424 . S
C577 C582 1.245 . S
C577 C583 1.428 . S
C578 C581 1.258 1_455 S
C578 C582 1.477 1_455 S
C578 H596 0.933 . S
C579 C580 1.384 . S
C579 C581 1.508 . S
C579 H597 0.929 . S
C580 C577 1.424 . S
C580 C579 1.384 . S
C580 H598 0.928 . S
C581 C578 1.258 1_655 S
C581 C579 1.508 . S
C582 C577 1.245 . S
C582 C578 1.477 1_655 S
C582 H599 0.932 . S
C583 U566 2.882 . S
C583 C577 1.428 . S
C583 O586 1.301 . S
C583 O587 1.282 . S
O584 U566 2.441 . S
O584 C570 1.249 . S
O585 U566 2.420 . S
O585 C570 1.202 . S
O586 U566 2.455 . S
O586 C583 1.301 . S
O587 U566 2.449 . S
O587 C583 1.282 . S
H588 C561 0.931 . S
H589 C563 0.929 . S
H590 C564 0.930 . S
H591 C565 0.931 . S
H592 C572 0.932 . S
H593 C573 0.930 . S
H594 C574 0.929 . S
H595 C576 0.930 . S
H596 C578 0.933 . S
H597 C579 0.929 . S
H598 C580 0.928 . S
H599 C582 0.932 . S
C600 C601 1.264 . S
C600 C605 1.522 . S
C600 C610 1.465 . S
C601 C600 1.264 . S
C601 C603 1.339 . S
C601 H628 0.931 . S
C602 C603 1.330 1_655 S
C602 C604 1.350 . S
C603 C601 1.339 . S
C603 C602 1.330 1_455 S
C603 H629 0.929 . S
C604 C602 1.350 . S
C604 C605 1.384 1_655 S
C604 H630 0.930 . S
C605 C600 1.522 . S
C605 C604 1.384 1_455 S
C605 H631 0.914 1_455 S
U606 O607 2.454 . S
U606 O608 2.458 . S
U606 C609 2.984 . S
U606 C610 2.847 . S
U606 C623 2.882 . S
U606 O624 2.441 . S
U606 O625 2.420 . S
U606 O626 2.455 . S
U606 O627 2.449 . S
O607 U606 2.454 . S
O607 C609 1.353 . S
O608 U606 2.458 . S
O608 C609 1.286 . S
C609 U606 2.984 . S
C609 O607 1.353 . S
C609 O608 1.286 . S
C609 C611 1.363 . S
C610 C600 1.465 . S
C610 U606 2.847 . S
C610 O624 1.249 . S
C610 O625 1.202 . S
C611 C609 1.363 . S
C611 C613 1.408 . S
C611 C616 1.342 . S
C612 C613 1.310 . S
C612 C615 1.461 . S
C612 H632 0.932 . S
C613 C611 1.408 . S
C613 C612 1.310 . S
C613 H633 0.930 . S
C614 C615 1.474 . S
C614 C616 1.285 . S
C614 H634 0.929 . S
C615 C612 1.461 . S
C615 C614 1.474 . S
C616 C611 1.342 . S
C616 C614 1.285 . S
C616 H635 0.930 . S
C617 C620 1.424 . S
C617 C622 1.245 . S
C617 C623 1.428 . S
C618 C621 1.260 . S
C618 C622 1.477 . S
C618 H636 0.932 . S
C619 C620 1.384 . S
C619 C621 1.479 . S
C619 H637 0.929 . S
C620 C617 1.424 . S
C620 C619 1.384 . S
C620 H638 0.928 . S
C621 C618 1.260 . S
C621 C619 1.479 . S
C622 C617 1.245 . S
C622 C618 1.477 . S
C622 H639 0.932 . S
C623 U606 2.882 . S
C623 C617 1.428 . S
C623 O626 1.301 . S
C623 O627 1.282 . S
O624 U606 2.441 . S
O624 C610 1.249 . S
O625 U606 2.420 . S
O625 C610 1.202 . S
O626 U606 2.455 . S
O626 C623 1.301 . S
O627 U606 2.449 . S
O627 C623 1.282 . S
H628 C601 0.931 . S
H629 C603 0.929 . S
H630 C604 0.930 . S
H631 C605 0.914 1_655 S
H632 C612 0.932 . S
H633 C613 0.930 . S
H634 C614 0.929 . S
H635 C616 0.930 . S
H636 C618 0.932 . S
H637 C619 0.929 . S
H638 C620 0.928 . S
H639 C622 0.932 . S
C640 C641 1.264 . S
C640 C645 1.479 . S
C640 C650 1.465 . S
C641 C640 1.264 . S
C641 C643 1.339 . S
C641 H668 0.931 . S
C642 C643 1.395 . S
C642 C644 1.320 . S
C643 C641 1.339 . S
C643 C642 1.395 . S
C643 H669 0.929 . S
C644 C642 1.320 . S
C644 C645 1.405 . S
C644 H670 0.930 . S
C645 C640 1.479 . S
C645 C644 1.405 . S
C645 H671 0.931 . S
U646 O647 2.454 . S
U646 O648 2.458 . S
U646 C649 2.984 . S
U646 C650 2.847 . S
U646 C663 2.882 . S
U646 O664 2.441 . S
U646 O665 2.420 . S
U646 O666 2.455 . S
U646 O667 2.449 . S
O647 U646 2.454 . S
O647 C649 1.353 . S
O648 U646 2.458 . S
O648 C649 1.286 . S
C649 U646 2.984 . S
C649 O647 1.353 . S
C649 O648 1.286 . S
C649 C651 1.363 . S
C650 C640 1.465 . S
C650 U646 2.847 . S
C650 O664 1.249 . S
C650 O665 1.202 . S
C651 C649 1.363 . S
C651 C653 1.408 . S
C651 C656 1.342 . S
C652 C653 1.310 . S
C652 C655 1.461 . S
C652 H672 0.932 . S
C653 C651 1.408 . S
C653 C652 1.310 . S
C653 H673 0.930 . S
C654 C655 1.474 . S
C654 C656 1.285 . S
C654 H674 0.929 . S
C655 C652 1.461 . S
C655 C654 1.474 . S
C656 C651 1.342 . S
C656 C654 1.285 . S
C656 H675 0.930 . S
C657 C660 1.424 . S
C657 C662 1.245 . S
C657 C663 1.428 . S
C658 C661 1.259 1_545 S
C658 C662 1.481 1_545 S
C658 H676 0.927 . S
C659 C660 1.384 . S
C659 C661 1.510 . S
C659 H677 0.929 . S
C660 C657 1.424 . S
C660 C659 1.384 . S
C660 H678 0.928 . S
C661 C658 1.259 1_565 S
C661 C659 1.510 . S
C662 C657 1.245 . S
C662 C658 1.481 1_565 S
C662 H679 0.932 . S
C663 U646 2.882 . S
C663 C657 1.428 . S
C663 O666 1.301 . S
C663 O667 1.282 . S
O664 U646 2.441 . S
O664 C650 1.249 . S
O665 U646 2.420 . S
O665 C650 1.202 . S
O666 U646 2.455 . S
O666 C663 1.301 . S
O667 U646 2.449 . S
O667 C663 1.282 . S
H668 C641 0.931 . S
H669 C643 0.929 . S
H670 C644 0.930 . S
H671 C645 0.931 . S
H672 C652 0.932 . S
H673 C653 0.930 . S
H674 C654 0.929 . S
H675 C656 0.930 . S
H676 C658 0.927 . S
H677 C659 0.929 . S
H678 C660 0.928 . S
H679 C662 0.932 . S
C680 C681 1.264 . S
C680 C685 1.479 . S
C680 C690 1.465 . S
C681 C680 1.264 . S
C681 C683 1.339 . S
C681 H708 0.931 . S
C682 C683 1.395 . S
C682 C684 1.320 . S
C683 C681 1.339 . S
C683 C682 1.395 . S
C683 H709 0.929 . S
C684 C682 1.320 . S
C684 C685 1.405 . S
C684 H710 0.930 . S
C685 C680 1.479 . S
C685 C684 1.405 . S
C685 H711 0.931 . S
U686 O687 2.454 . S
U686 O688 2.458 . S
U686 C689 2.984 . S
U686 C690 2.847 . S
U686 C703 2.882 . S
U686 O704 2.441 . S
U686 O705 2.420 . S
U686 O706 2.455 . S
U686 O707 2.449 . S
O687 U686 2.454 . S
O687 C689 1.353 . S
O688 U686 2.458 . S
O688 C689 1.286 . S
C689 U686 2.984 . S
C689 O687 1.353 . S
C689 O688 1.286 . S
C689 C691 1.363 . S
C690 C680 1.465 . S
C690 U686 2.847 . S
C690 O704 1.249 . S
C690 O705 1.202 . S
C691 C689 1.363 . S
C691 C693 1.408 . S
C691 C696 1.342 . S
C692 C693 1.310 . S
C692 C695 1.461 . S
C692 H712 0.932 . S
C693 C691 1.408 . S
C693 C692 1.310 . S
C693 H713 0.930 . S
C694 C695 1.474 . S
C694 C696 1.285 . S
C694 H714 0.929 . S
C695 C692 1.461 . S
C695 C694 1.474 . S
C696 C691 1.342 . S
C696 C694 1.285 . S
C696 H715 0.930 . S
C697 C700 1.424 . S
C697 C702 1.245 . S
C697 C703 1.428 . S
C698 C701 1.260 . S
C698 C702 1.477 . S
C698 H716 0.932 . S
C699 C700 1.384 . S
C699 C701 1.479 . S
C699 H717 0.929 . S
C700 C697 1.424 . S
C700 C699 1.384 . S
C700 H718 0.928 . S
C701 C698 1.260 . S
C701 C699 1.479 . S
C702 C697 1.245 . S
C702 C698 1.477 . S
C702 H719 0.932 . S
C703 U686 2.882 . S
C703 C697 1.428 . S
C703 O706 1.301 . S
C703 O707 1.282 . S
O704 U686 2.441 . S
O704 C690 1.249 . S
O705 U686 2.420 . S
O705 C690 1.202 . S
O706 U686 2.455 . S
O706 C703 1.301 . S
O707 U686 2.449 . S
O707 C703 1.282 . S
H708 C681 0.931 . S
H709 C683 0.929 . S
H710 C684 0.930 . S
H711 C685 0.931 . S
H712 C692 0.932 . S
H713 C693 0.930 . S
H714 C694 0.929 . S
H715 C696 0.930 . S
H716 C698 0.932 . S
H717 C699 0.929 . S
H718 C700 0.928 . S
H719 C702 0.932 . S
C720 C721 1.264 . S
C720 C725 1.479 . S
C720 C730 1.465 . S
C721 C720 1.264 . S
C721 C723 1.339 . S
C721 H748 0.931 . S
C722 C723 1.395 . S
C722 C724 1.320 . S
C723 C721 1.339 . S
C723 C722 1.395 . S
C723 H749 0.929 . S
C724 C722 1.320 . S
C724 C725 1.405 . S
C724 H750 0.930 . S
C725 C720 1.479 . S
C725 C724 1.405 . S
C725 H751 0.931 . S
U726 O727 2.454 . S
U726 O728 2.458 . S
U726 C729 2.984 . S
U726 C730 2.847 . S
U726 C743 2.882 . S
U726 O744 2.441 . S
U726 O745 2.420 . S
U726 O746 2.455 . S
U726 O747 2.449 . S
O727 U726 2.454 . S
O727 C729 1.353 . S
O728 U726 2.458 . S
O728 C729 1.286 . S
C729 U726 2.984 . S
C729 O727 1.353 . S
C729 O728 1.286 . S
C729 C731 1.363 . S
C730 C720 1.465 . S
C730 U726 2.847 . S
C730 O744 1.249 . S
C730 O745 1.202 . S
C731 C729 1.363 . S
C731 C733 1.408 . S
C731 C736 1.342 . S
C732 C733 1.310 . S
C732 C735 1.461 . S
C732 H752 0.932 . S
C733 C731 1.408 . S
C733 C732 1.310 . S
C733 H753 0.930 . S
C734 C735 1.474 . S
C734 C736 1.285 . S
C734 H754 0.929 . S
C735 C732 1.461 . S
C735 C734 1.474 . S
C736 C731 1.342 . S
C736 C734 1.285 . S
C736 H755 0.930 . S
C737 C740 1.424 . S
C737 C742 1.245 . S
C737 C743 1.428 . S
C738 C741 1.259 1_565 S
C738 C742 1.481 1_565 S
C738 H756 0.927 . S
C739 C740 1.384 . S
C739 C741 1.510 . S
C739 H757 0.929 . S
C740 C737 1.424 . S
C740 C739 1.384 . S
C740 H758 0.928 . S
C741 C738 1.259 1_545 S
C741 C739 1.510 . S
C742 C737 1.245 . S
C742 C738 1.481 1_545 S
C742 H759 0.932 . S
C743 U726 2.882 . S
C743 C737 1.428 . S
C743 O746 1.301 . S
C743 O747 1.282 . S
O744 U726 2.441 . S
O744 C730 1.249 . S
O745 U726 2.420 . S
O745 C730 1.202 . S
O746 U726 2.455 . S
O746 C743 1.301 . S
O747 U726 2.449 . S
O747 C743 1.282 . S
H748 C721 0.931 . S
H749 C723 0.929 . S
H750 C724 0.930 . S
H751 C725 0.931 . S
H752 C732 0.932 . S
H753 C733 0.930 . S
H754 C734 0.929 . S
H755 C736 0.930 . S
H756 C738 0.927 . S
H757 C739 0.929 . S
H758 C740 0.928 . S
H759 C742 0.932 . S
C760 C761 1.264 . S
C760 C765 1.479 . S
C760 C770 1.465 . S
C761 C760 1.264 . S
C761 C763 1.339 . S
C761 H788 0.931 . S
C762 C763 1.395 . S
C762 C764 1.320 . S
C763 C761 1.339 . S
C763 C762 1.395 . S
C763 H789 0.929 . S
C764 C762 1.320 . S
C764 C765 1.405 . S
C764 H790 0.930 . S
C765 C760 1.479 . S
C765 C764 1.405 . S
C765 H791 0.931 . S
U766 O767 2.454 . S
U766 O768 2.458 . S
U766 C769 2.984 . S
U766 C770 2.847 . S
U766 C783 2.882 . S
U766 O784 2.441 . S
U766 O785 2.420 . S
U766 O786 2.455 . S
U766 O787 2.449 . S
O767 U766 2.454 . S
O767 C769 1.353 . S
O768 U766 2.458 . S
O768 C769 1.286 . S
C769 U766 2.984 . S
C769 O767 1.353 . S
C769 O768 1.286 . S
C769 C771 1.363 . S
C770 C760 1.465 . S
C770 U766 2.847 . S
C770 O784 1.249 . S
C770 O785 1.202 . S
C771 C769 1.363 . S
C771 C773 1.408 . S
C771 C776 1.342 . S
C772 C773 1.310 . S
C772 C775 1.461 . S
C772 H792 0.932 . S
C773 C771 1.408 . S
C773 C772 1.310 . S
C773 H793 0.930 . S
C774 C775 1.474 . S
C774 C776 1.285 . S
C774 H794 0.929 . S
C775 C772 1.461 . S
C775 C774 1.474 . S
C776 C771 1.342 . S
C776 C774 1.285 . S
C776 H795 0.930 . S
C777 C780 1.424 . S
C777 C782 1.245 . S
C777 C783 1.428 . S
C778 C781 1.260 . S
C778 C782 1.477 . S
C778 H796 0.932 . S
C779 C780 1.384 . S
C779 C781 1.479 . S
C779 H797 0.929 . S
C780 C777 1.424 . S
C780 C779 1.384 . S
C780 H798 0.928 . S
C781 C778 1.260 . S
C781 C779 1.479 . S
C782 C777 1.245 . S
C782 C778 1.477 . S
C782 H799 0.932 . S
C783 U766 2.882 . S
C783 C777 1.428 . S
C783 O786 1.301 . S
C783 O787 1.282 . S
O784 U766 2.441 . S
O784 C770 1.249 . S
O785 U766 2.420 . S
O785 C770 1.202 . S
O786 U766 2.455 . S
O786 C783 1.301 . S
O787 U766 2.449 . S
O787 C783 1.282 . S
H788 C761 0.931 . S
H789 C763 0.929 . S
H790 C764 0.930 . S
H791 C765 0.931 . S
H792 C772 0.932 . S
H793 C773 0.930 . S
H794 C774 0.929 . S
H795 C776 0.930 . S
H796 C778 0.932 . S
H797 C779 0.929 . S
H798 C780 0.928 . S
H799 C782 0.932 . S
C800 C801 1.264 . S
C800 C805 1.479 . S
C800 C810 1.465 . S
C801 C800 1.264 . S
C801 C803 1.339 . S
C801 H828 0.931 . S
C802 C803 1.395 . S
C802 C804 1.320 . S
C803 C801 1.339 . S
C803 C802 1.395 . S
C803 H829 0.929 . S
C804 C802 1.320 . S
C804 C805 1.405 . S
C804 H830 0.930 . S
C805 C800 1.479 . S
C805 C804 1.405 . S
C805 H831 0.931 . S
U806 O807 2.454 . S
U806 O808 2.458 . S
U806 C809 2.984 . S
U806 C810 2.847 . S
U806 C823 2.882 . S
U806 O824 2.441 . S
U806 O825 2.420 . S
U806 O826 2.455 . S
U806 O827 2.449 . S
O807 U806 2.454 . S
O807 C809 1.353 . S
O808 U806 2.458 . S
O808 C809 1.286 . S
C809 U806 2.984 . S
C809 O807 1.353 . S
C809 O808 1.286 . S
C809 C811 1.363 . S
C810 C800 1.465 . S
C810 U806 2.847 . S
C810 O824 1.249 . S
C810 O825 1.202 . S
C811 C809 1.363 . S
C811 C813 1.408 . S
C811 C816 1.342 . S
C812 C813 1.310 . S
C812 C815 1.461 . S
C812 H832 0.932 . S
C813 C811 1.408 . S
C813 C812 1.310 . S
C813 H833 0.930 . S
C814 C815 1.474 . S
C814 C816 1.285 . S
C814 H834 0.929 . S
C815 C812 1.461 . S
C815 C814 1.474 . S
C816 C811 1.342 . S
C816 C814 1.285 . S
C816 H835 0.930 . S
C817 C820 1.424 . S
C817 C822 1.245 . S
C817 C823 1.428 . S
C818 C821 1.258 . S
C818 C822 1.449 1_554 S
C818 H836 0.969 . S
C819 C820 1.384 . S
C819 C821 1.491 1_556 S
C819 H837 0.929 . S
C820 C817 1.424 . S
C820 C819 1.384 . S
C820 H838 0.928 . S
C821 C818 1.258 . S
C821 C819 1.491 1_554 S
C822 C817 1.245 . S
C822 C818 1.449 1_556 S
C822 H839 0.932 . S
C823 U806 2.882 . S
C823 C817 1.428 . S
C823 O826 1.301 . S
C823 O827 1.282 . S
O824 U806 2.441 . S
O824 C810 1.249 . S
O825 U806 2.420 . S
O825 C810 1.202 . S
O826 U806 2.455 . S
O826 C823 1.301 . S
O827 U806 2.449 . S
O827 C823 1.282 . S
H828 C801 0.931 . S
H829 C803 0.929 . S
H830 C804 0.930 . S
H831 C805 0.931 . S
H832 C812 0.932 . S
H833 C813 0.930 . S
H834 C814 0.929 . S
H835 C816 0.930 . S
H836 C818 0.969 . S
H837 C819 0.929 . S
H838 C820 0.928 . S
H839 C822 0.932 . S
C840 C841 1.264 . S
C840 C845 1.479 . S
C840 C850 1.465 . S
C841 C840 1.264 . S
C841 C843 1.339 . S
C841 H868 0.931 . S
C842 C843 1.395 . S
C842 C844 1.320 . S
C843 C841 1.339 . S
C843 C842 1.395 . S
C843 H869 0.929 . S
C844 C842 1.320 . S
C844 C845 1.405 . S
C844 H870 0.930 . S
C845 C840 1.479 . S
C845 C844 1.405 . S
C845 H871 0.931 . S
U846 O847 2.454 . S
U846 O848 2.458 . S
U846 C849 2.984 . S
U846 C850 2.847 . S
U846 C863 2.882 . S
U846 O864 2.441 . S
U846 O865 2.420 . S
U846 O866 2.455 . S
U846 O867 2.449 . S
O847 U846 2.454 . S
O847 C849 1.353 . S
O848 U846 2.458 . S
O848 C849 1.286 . S
C849 U846 2.984 . S
C849 O847 1.353 . S
C849 O848 1.286 . S
C849 C851 1.363 . S
C850 C840 1.465 . S
C850 U846 2.847 . S
C850 O864 1.249 . S
C850 O865 1.202 . S
C851 C849 1.363 . S
C851 C853 1.408 . S
C851 C856 1.342 . S
C852 C853 1.310 . S
C852 C855 1.461 . S
C852 H872 0.932 . S
C853 C851 1.408 . S
C853 C852 1.310 . S
C853 H873 0.930 . S
C854 C855 1.474 . S
C854 C856 1.285 . S
C854 H874 0.929 . S
C855 C852 1.461 . S
C855 C854 1.474 . S
C856 C851 1.342 . S
C856 C854 1.285 . S
C856 H875 0.930 . S
C857 C860 1.424 . S
C857 C862 1.245 . S
C857 C863 1.428 . S
C858 C861 1.260 . S
C858 C862 1.477 . S
C858 H876 0.932 . S
C859 C860 1.384 . S
C859 C861 1.479 . S
C859 H877 0.929 . S
C860 C857 1.424 . S
C860 C859 1.384 . S
C860 H878 0.928 . S
C861 C858 1.260 . S
C861 C859 1.479 . S
C862 C857 1.245 . S
C862 C858 1.477 . S
C862 H879 0.932 . S
C863 U846 2.882 . S
C863 C857 1.428 . S
C863 O866 1.301 . S
C863 O867 1.282 . S
O864 U846 2.441 . S
O864 C850 1.249 . S
O865 U846 2.420 . S
O865 C850 1.202 . S
O866 U846 2.455 . S
O866 C863 1.301 . S
O867 U846 2.449 . S
O867 C863 1.282 . S
H868 C841 0.931 . S
H869 C843 0.929 . S
H870 C844 0.930 . S
H871 C845 0.931 . S
H872 C852 0.932 . S
H873 C853 0.930 . S
H874 C854 0.929 . S
H875 C856 0.930 . S
H876 C858 0.932 . S
H877 C859 0.929 . S
H878 C860 0.928 . S
H879 C862 0.932 . S
C880 C881 1.264 . S
C880 C885 1.479 . S
C880 C890 1.465 . S
C881 C880 1.264 . S
C881 C883 1.339 . S
C881 H908 0.931 . S
C882 C883 1.395 . S
C882 C884 1.320 . S
C883 C881 1.339 . S
C883 C882 1.395 . S
C883 H909 0.929 . S
C884 C882 1.320 . S
C884 C885 1.405 . S
C884 H910 0.930 . S
C885 C880 1.479 . S
C885 C884 1.405 . S
C885 H911 0.931 . S
U886 O887 2.454 . S
U886 O888 2.458 . S
U886 C889 2.984 . S
U886 C890 2.847 . S
U886 C903 2.882 . S
U886 O904 2.441 . S
U886 O905 2.420 . S
U886 O906 2.455 . S
U886 O907 2.449 . S
O887 U886 2.454 . S
O887 C889 1.353 . S
O888 U886 2.458 . S
O888 C889 1.286 . S
C889 U886 2.984 . S
C889 O887 1.353 . S
C889 O888 1.286 . S
C889 C891 1.363 . S
C890 C880 1.465 . S
C890 U886 2.847 . S
C890 O904 1.249 . S
C890 O905 1.202 . S
C891 C889 1.363 . S
C891 C893 1.408 . S
C891 C896 1.342 . S
C892 C893 1.310 . S
C892 C895 1.461 . S
C892 H912 0.932 . S
C893 C891 1.408 . S
C893 C892 1.310 . S
C893 H913 0.930 . S
C894 C895 1.474 . S
C894 C896 1.285 . S
C894 H914 0.929 . S
C895 C892 1.461 . S
C895 C894 1.474 . S
C896 C891 1.342 . S
C896 C894 1.285 . S
C896 H915 0.930 . S
C897 C900 1.424 . S
C897 C902 1.245 . S
C897 C903 1.428 . S
C898 C901 1.260 . S
C898 C902 1.477 . S
C898 H916 0.932 . S
C899 C900 1.384 . S
C899 C901 1.479 . S
C899 H917 0.929 . S
C900 C897 1.424 . S
C900 C899 1.384 . S
C900 H918 0.928 . S
C901 C898 1.260 . S
C901 C899 1.479 . S
C902 C897 1.245 . S
C902 C898 1.477 . S
C902 H919 0.932 . S
C903 U886 2.882 . S
C903 C897 1.428 . S
C903 O906 1.301 . S
C903 O907 1.282 . S
O904 U886 2.441 . S
O904 C890 1.249 . S
O905 U886 2.420 . S
O905 C890 1.202 . S
O906 U886 2.455 . S
O906 C903 1.301 . S
O907 U886 2.449 . S
O907 C903 1.282 . S
H908 C881 0.931 . S
H909 C883 0.929 . S
H910 C884 0.930 . S
H911 C885 0.931 . S
H912 C892 0.932 . S
H913 C893 0.930 . S
H914 C894 0.929 . S
H915 C896 0.930 . S
H916 C898 0.932 . S
H917 C899 0.929 . S
H918 C900 0.928 . S
H919 C902 0.932 . S
C920 C921 1.264 . S
C920 C925 1.479 . S
C920 C930 1.465 . S
C921 C920 1.264 . S
C921 C923 1.339 . S
C921 H948 0.931 . S
C922 C923 1.395 . S
C922 C924 1.320 . S
C923 C921 1.339 . S
C923 C922 1.395 . S
C923 H949 0.929 . S
C924 C922 1.320 . S
C924 C925 1.405 . S
C924 H950 0.930 . S
C925 C920 1.479 . S
C925 C924 1.405 . S
C925 H951 0.931 . S
U926 O927 2.454 . S
U926 O928 2.458 . S
U926 C929 2.984 . S
U926 C930 2.847 . S
U926 C943 2.882 . S
U926 O944 2.441 . S
U926 O945 2.420 . S
U926 O946 2.455 . S
U926 O947 2.449 . S
O927 U926 2.454 . S
O927 C929 1.353 . S
O928 U926 2.458 . S
O928 C929 1.286 . S
C929 U926 2.984 . S
C929 O927 1.353 . S
C929 O928 1.286 . S
C929 C931 1.363 . S
C930 C920 1.465 . S
C930 U926 2.847 . S
C930 O944 1.249 . S
C930 O945 1.202 . S
C931 C929 1.363 . S
C931 C933 1.408 . S
C931 C936 1.342 . S
C932 C933 1.310 . S
C932 C935 1.461 . S
C932 H952 0.932 . S
C933 C931 1.408 . S
C933 C932 1.310 . S
C933 H953 0.930 . S
C934 C935 1.474 . S
C934 C936 1.285 . S
C934 H954 0.929 . S
C935 C932 1.461 . S
C935 C934 1.474 . S
C936 C931 1.342 . S
C936 C934 1.285 . S
C936 H955 0.930 . S
C937 C940 1.424 . S
C937 C942 1.245 . S
C937 C943 1.428 . S
C938 C941 1.260 . S
C938 C942 1.477 . S
C938 H956 0.932 . S
C939 C940 1.384 . S
C939 C941 1.479 . S
C939 H957 0.929 . S
C940 C937 1.424 . S
C940 C939 1.384 . S
C940 H958 0.928 . S
C941 C938 1.260 . S
C941 C939 1.479 . S
C942 C937 1.245 . S
C942 C938 1.477 . S
C942 H959 0.932 . S
C943 U926 2.882 . S
C943 C937 1.428 . S
C943 O946 1.301 . S
C943 O947 1.282 . S
O944 U926 2.441 . S
O944 C930 1.249 . S
O945 U926 2.420 . S
O945 C930 1.202 . S
O946 U926 2.455 . S
O946 C943 1.301 . S
O947 U926 2.449 . S
O947 C943 1.282 . S
H948 C921 0.931 . S
H949 C923 0.929 . S
H950 C924 0.930 . S
H951 C925 0.931 . S
H952 C932 0.932 . S
H953 C933 0.930 . S
H954 C934 0.929 . S
H955 C936 0.930 . S
H956 C938 0.932 . S
H957 C939 0.929 . S
H958 C940 0.928 . S
H959 C942 0.932 . S
C960 C961 1.264 . S
C960 C965 1.479 . S
C960 C970 1.465 . S
C961 C960 1.264 . S
C961 C963 1.339 . S
C961 H988 0.931 . S
C962 C963 1.395 . S
C962 C964 1.320 . S
C963 C961 1.339 . S
C963 C962 1.395 . S
C963 H989 0.929 . S
C964 C962 1.320 . S
C964 C965 1.405 . S
C964 H990 0.930 . S
C965 C960 1.479 . S
C965 C964 1.405 . S
C965 H991 0.931 . S
U966 O967 2.454 . S
U966 O968 2.458 . S
U966 C969 2.984 . S
U966 C970 2.847 . S
U966 C983 2.882 . S
U966 O984 2.441 . S
U966 O985 2.420 . S
U966 O986 2.455 . S
U966 O987 2.449 . S
O967 U966 2.454 . S
O967 C969 1.353 . S
O968 U966 2.458 . S
O968 C969 1.286 . S
C969 U966 2.984 . S
C969 O967 1.353 . S
C969 O968 1.286 . S
C969 C971 1.363 . S
C970 C960 1.465 . S
C970 U966 2.847 . S
C970 O984 1.249 . S
C970 O985 1.202 . S
C971 C969 1.363 . S
C971 C973 1.408 . S
C971 C976 1.342 . S
C972 C973 1.310 . S
C972 C975 1.461 . S
C972 H992 0.932 . S
C973 C971 1.408 . S
C973 C972 1.310 . S
C973 H993 0.930 . S
C974 C975 1.474 . S
C974 C976 1.285 . S
C974 H994 0.929 . S
C975 C972 1.461 . S
C975 C974 1.474 . S
C976 C971 1.342 . S
C976 C974 1.285 . S
C976 H995 0.930 . S
C977 C980 1.424 . S
C977 C982 1.245 . S
C977 C983 1.428 . S
C978 C981 1.260 . S
C978 C982 1.477 . S
C978 H996 0.932 . S
C979 C980 1.384 . S
C979 C981 1.479 . S
C979 H997 0.929 . S
C980 C977 1.424 . S
C980 C979 1.384 . S
C980 H998 0.928 . S
C981 C978 1.260 . S
C981 C979 1.479 . S
C982 C977 1.245 . S
C982 C978 1.477 . S
C982 H999 0.932 . S
C983 U966 2.882 . S
C983 C977 1.428 . S
C983 O986 1.301 . S
C983 O987 1.282 . S
O984 U966 2.441 . S
O984 C970 1.249 . S
O985 U966 2.420 . S
O985 C970 1.202 . S
O986 U966 2.455 . S
O986 C983 1.301 . S
O987 U966 2.449 . S
O987 C983 1.282 . S
H988 C961 0.931 . S
H989 C963 0.929 . S
H990 C964 0.930 . S
H991 C965 0.931 . S
H992 C972 0.932 . S
H993 C973 0.930 . S
H994 C974 0.929 . S
H995 C976 0.930 . S
H996 C978 0.932 . S
H997 C979 0.929 . S
H998 C980 0.928 . S
H999 C982 0.932 . S
C1000 C1001 1.264 . S
C1000 C1005 1.479 . S
C1000 C1010 1.465 . S
C1001 C1000 1.264 . S
C1001 C1003 1.339 . S
C1001 H1028 0.931 . S
C1002 C1003 1.395 . S
C1002 C1004 1.320 . S
C1003 C1001 1.339 . S
C1003 C1002 1.395 . S
C1003 H1029 0.929 . S
C1004 C1002 1.320 . S
C1004 C1005 1.405 . S
C1004 H1030 0.930 . S
C1005 C1000 1.479 . S
C1005 C1004 1.405 . S
C1005 H1031 0.931 . S
U1006 O1007 2.454 . S
U1006 O1008 2.458 . S
U1006 C1009 2.984 . S
U1006 C1010 2.847 . S
U1006 C1023 2.882 . S
U1006 O1024 2.441 . S
U1006 O1025 2.420 . S
U1006 O1026 2.455 . S
U1006 O1027 2.449 . S
O1007 U1006 2.454 . S
O1007 C1009 1.353 . S
O1008 U1006 2.458 . S
O1008 C1009 1.286 . S
C1009 U1006 2.984 . S
C1009 O1007 1.353 . S
C1009 O1008 1.286 . S
C1009 C1011 1.363 . S
C1010 C1000 1.465 . S
C1010 U1006 2.847 . S
C1010 O1024 1.249 . S
C1010 O1025 1.202 . S
C1011 C1009 1.363 . S
C1011 C1013 1.408 . S
C1011 C1016 1.342 . S
C1012 C1013 1.310 . S
C1012 C1015 1.461 . S
C1012 H1032 0.932 . S
C1013 C1011 1.408 . S
C1013 C1012 1.310 . S
C1013 H1033 0.930 . S
C1014 C1015 1.474 . S
C1014 C1016 1.285 . S
C1014 H1034 0.929 . S
C1015 C1012 1.461 . S
C1015 C1014 1.474 . S
C1016 C1011 1.342 . S
C1016 C1014 1.285 . S
C1016 H1035 0.930 . S
C1017 C1020 1.424 . S
C1017 C1022 1.245 . S
C1017 C1023 1.428 . S
C1018 C1021 1.260 . S
C1018 C1022 1.477 . S
C1018 H1036 0.932 . S
C1019 C1020 1.384 . S
C1019 C1021 1.479 . S
C1019 H1037 0.929 . S
C1020 C1017 1.424 . S
C1020 C1019 1.384 . S
C1020 H1038 0.928 . S
C1021 C1018 1.260 . S
C1021 C1019 1.479 . S
C1022 C1017 1.245 . S
C1022 C1018 1.477 . S
C1022 H1039 0.932 . S
C1023 U1006 2.882 . S
C1023 C1017 1.428 . S
C1023 O1026 1.301 . S
C1023 O1027 1.282 . S
O1024 U1006 2.441 . S
O1024 C1010 1.249 . S
O1025 U1006 2.420 . S
O1025 C1010 1.202 . S
O1026 U1006 2.455 . S
O1026 C1023 1.301 . S
O1027 U1006 2.449 . S
O1027 C1023 1.282 . S
H1028 C1001 0.931 . S
H1029 C1003 0.929 . S
H1030 C1004 0.930 . S
H1031 C1005 0.931 . S
H1032 C1012 0.932 . S
H1033 C1013 0.930 . S
H1034 C1014 0.929 . S
H1035 C1016 0.930 . S
H1036 C1018 0.932 . S
H1037 C1019 0.929 . S
H1038 C1020 0.928 . S
H1039 C1022 0.932 . S
C1040 C1041 1.264 . S
C1040 C1045 1.479 . S
C1040 C1050 1.465 . S
C1041 C1040 1.264 . S
C1041 C1043 1.339 . S
C1041 H1068 0.931 . S
C1042 C1043 1.395 . S
C1042 C1044 1.320 . S
C1043 C1041 1.339 . S
C1043 C1042 1.395 . S
C1043 H1069 0.929 . S
C1044 C1042 1.320 . S
C1044 C1045 1.405 . S
C1044 H1070 0.930 . S
C1045 C1040 1.479 . S
C1045 C1044 1.405 . S
C1045 H1071 0.931 . S
U1046 O1047 2.454 . S
U1046 O1048 2.458 . S
U1046 C1049 2.984 . S
U1046 C1050 2.847 . S
U1046 C1063 2.882 . S
U1046 O1064 2.441 . S
U1046 O1065 2.420 . S
U1046 O1066 2.455 . S
U1046 O1067 2.449 . S
O1047 U1046 2.454 . S
O1047 C1049 1.353 . S
O1048 U1046 2.458 . S
O1048 C1049 1.286 . S
C1049 U1046 2.984 . S
C1049 O1047 1.353 . S
C1049 O1048 1.286 . S
C1049 C1051 1.363 . S
C1050 C1040 1.465 . S
C1050 U1046 2.847 . S
C1050 O1064 1.249 . S
C1050 O1065 1.202 . S
C1051 C1049 1.363 . S
C1051 C1053 1.408 . S
C1051 C1056 1.342 . S
C1052 C1053 1.310 . S
C1052 C1055 1.461 . S
C1052 H1072 0.932 . S
C1053 C1051 1.408 . S
C1053 C1052 1.310 . S
C1053 H1073 0.930 . S
C1054 C1055 1.474 . S
C1054 C1056 1.285 . S
C1054 H1074 0.929 . S
C1055 C1052 1.461 . S
C1055 C1054 1.474 . S
C1056 C1051 1.342 . S
C1056 C1054 1.285 . S
C1056 H1075 0.930 . S
C1057 C1060 1.424 . S
C1057 C1062 1.245 . S
C1057 C1063 1.428 . S
C1058 C1061 1.260 . S
C1058 C1062 1.477 . S
C1058 H1076 0.932 . S
C1059 C1060 1.384 . S
C1059 C1061 1.479 . S
C1059 H1077 0.929 . S
C1060 C1057 1.424 . S
C1060 C1059 1.384 . S
C1060 H1078 0.928 . S
C1061 C1058 1.260 . S
C1061 C1059 1.479 . S
C1062 C1057 1.245 . S
C1062 C1058 1.477 . S
C1062 H1079 0.932 . S
C1063 U1046 2.882 . S
C1063 C1057 1.428 . S
C1063 O1066 1.301 . S
C1063 O1067 1.282 . S
O1064 U1046 2.441 . S
O1064 C1050 1.249 . S
O1065 U1046 2.420 . S
O1065 C1050 1.202 . S
O1066 U1046 2.455 . S
O1066 C1063 1.301 . S
O1067 U1046 2.449 . S
O1067 C1063 1.282 . S
H1068 C1041 0.931 . S
H1069 C1043 0.929 . S
H1070 C1044 0.930 . S
H1071 C1045 0.931 . S
H1072 C1052 0.932 . S
H1073 C1053 0.930 . S
H1074 C1054 0.929 . S
H1075 C1056 0.930 . S
H1076 C1058 0.932 . S
H1077 C1059 0.929 . S
H1078 C1060 0.928 . S
H1079 C1062 0.932 . S
C1080 C1081 1.264 . S
C1080 C1085 1.479 . S
C1080 C1090 1.465 . S
C1081 C1080 1.264 . S
C1081 C1083 1.339 . S
C1081 H1108 0.931 . S
C1082 C1083 1.395 . S
C1082 C1084 1.320 . S
C1083 C1081 1.339 . S
C1083 C1082 1.395 . S
C1083 H1109 0.929 . S
C1084 C1082 1.320 . S
C1084 C1085 1.405 . S
C1084 H1110 0.930 . S
C1085 C1080 1.479 . S
C1085 C1084 1.405 . S
C1085 H1111 0.931 . S
U1086 O1087 2.454 . S
U1086 O1088 2.458 . S
U1086 C1089 2.984 . S
U1086 C1090 2.847 . S
U1086 C1103 2.882 . S
U1086 O1104 2.441 . S
U1086 O1105 2.420 . S
U1086 O1106 2.455 . S
U1086 O1107 2.449 . S
O1087 U1086 2.454 . S
O1087 C1089 1.353 . S
O1088 U1086 2.458 . S
O1088 C1089 1.286 . S
C1089 U1086 2.984 . S
C1089 O1087 1.353 . S
C1089 O1088 1.286 . S
C1089 C1091 1.363 . S
C1090 C1080 1.465 . S
C1090 U1086 2.847 . S
C1090 O1104 1.249 . S
C1090 O1105 1.202 . S
C1091 C1089 1.363 . S
C1091 C1093 1.408 . S
C1091 C1096 1.342 . S
C1092 C1093 1.310 . S
C1092 C1095 1.461 . S
C1092 H1112 0.932 . S
C1093 C1091 1.408 . S
C1093 C1092 1.310 . S
C1093 H1113 0.930 . S
C1094 C1095 1.474 . S
C1094 C1096 1.285 . S
C1094 H1114 0.929 . S
C1095 C1092 1.461 . S
C1095 C1094 1.474 . S
C1096 C1091 1.342 . S
C1096 C1094 1.285 . S
C1096 H1115 0.930 . S
C1097 C1100 1.424 . S
C1097 C1102 1.245 . S
C1097 C1103 1.428 . S
C1098 C1101 1.260 . S
C1098 C1102 1.477 . S
C1098 H1116 0.932 . S
C1099 C1100 1.384 . S
C1099 C1101 1.479 . S
C1099 H1117 0.929 . S
C1100 C1097 1.424 . S
C1100 C1099 1.384 . S
C1100 H1118 0.928 . S
C1101 C1098 1.260 . S
C1101 C1099 1.479 . S
C1102 C1097 1.245 . S
C1102 C1098 1.477 . S
C1102 H1119 0.932 . S
C1103 U1086 2.882 . S
C1103 C1097 1.428 . S
C1103 O1106 1.301 . S
C1103 O1107 1.282 . S
O1104 U1086 2.441 . S
O1104 C1090 1.249 . S
O1105 U1086 2.420 . S
O1105 C1090 1.202 . S
O1106 U1086 2.455 . S
O1106 C1103 1.301 . S
O1107 U1086 2.449 . S
O1107 C1103 1.282 . S
H1108 C1081 0.931 . S
H1109 C1083 0.929 . S
H1110 C1084 0.930 . S
H1111 C1085 0.931 . S
H1112 C1092 0.932 . S
H1113 C1093 0.930 . S
H1114 C1094 0.929 . S
H1115 C1096 0.930 . S
H1116 C1098 0.932 . S
H1117 C1099 0.929 . S
H1118 C1100 0.928 . S
H1119 C1102 0.932 . S
C1120 C1121 1.264 . S
C1120 C1125 1.479 . S
C1120 C1130 1.465 . S
C1121 C1120 1.264 . S
C1121 C1123 1.339 . S
C1121 H1148 0.931 . S
C1122 C1123 1.395 . S
C1122 C1124 1.320 . S
C1123 C1121 1.339 . S
C1123 C1122 1.395 . S
C1123 H1149 0.929 . S
C1124 C1122 1.320 . S
C1124 C1125 1.405 . S
C1124 H1150 0.930 . S
C1125 C1120 1.479 . S
C1125 C1124 1.405 . S
C1125 H1151 0.931 . S
U1126 O1127 2.454 . S
U1126 O1128 2.458 . S
U1126 C1129 2.984 . S
U1126 C1130 2.847 . S
U1126 C1143 2.882 . S
U1126 O1144 2.441 . S
U1126 O1145 2.420 . S
U1126 O1146 2.455 . S
U1126 O1147 2.449 . S
O1127 U1126 2.454 . S
O1127 C1129 1.353 . S
O1128 U1126 2.458 . S
O1128 C1129 1.286 . S
C1129 U1126 2.984 . S
C1129 O1127 1.353 . S
C1129 O1128 1.286 . S
C1129 C1131 1.363 . S
C1130 C1120 1.465 . S
C1130 U1126 2.847 . S
C1130 O1144 1.249 . S
C1130 O1145 1.202 . S
C1131 C1129 1.363 . S
C1131 C1133 1.408 . S
C1131 C1136 1.342 . S
C1132 C1133 1.310 . S
C1132 C1135 1.461 . S
C1132 H1152 0.932 . S
C1133 C1131 1.408 . S
C1133 C1132 1.310 . S
C1133 H1153 0.930 . S
C1134 C1135 1.474 . S
C1134 C1136 1.285 . S
C1134 H1154 0.929 . S
C1135 C1132 1.461 . S
C1135 C1134 1.474 . S
C1136 C1131 1.342 . S
C1136 C1134 1.285 . S
C1136 H1155 0.930 . S
C1137 C1140 1.424 . S
C1137 C1142 1.245 . S
C1137 C1143 1.428 . S
C1138 C1141 1.260 . S
C1138 C1142 1.477 . S
C1138 H1156 0.932 . S
C1139 C1140 1.384 . S
C1139 C1141 1.479 . S
C1139 H1157 0.929 . S
C1140 C1137 1.424 . S
C1140 C1139 1.384 . S
C1140 H1158 0.928 . S
C1141 C1138 1.260 . S
C1141 C1139 1.479 . S
C1142 C1137 1.245 . S
C1142 C1138 1.477 . S
C1142 H1159 0.932 . S
C1143 U1126 2.882 . S
C1143 C1137 1.428 . S
C1143 O1146 1.301 . S
C1143 O1147 1.282 . S
O1144 U1126 2.441 . S
O1144 C1130 1.249 . S
O1145 U1126 2.420 . S
O1145 C1130 1.202 . S
O1146 U1126 2.455 . S
O1146 C1143 1.301 . S
O1147 U1126 2.449 . S
O1147 C1143 1.282 . S
H1148 C1121 0.931 . S
H1149 C1123 0.929 . S
H1150 C1124 0.930 . S
H1151 C1125 0.931 . S
H1152 C1132 0.932 . S
H1153 C1133 0.930 . S
H1154 C1134 0.929 . S
H1155 C1136 0.930 . S
H1156 C1138 0.932 . S
H1157 C1139 0.929 . S
H1158 C1140 0.928 . S
H1159 C1142 0.932 . S
C1160 C1161 1.264 . S
C1160 C1165 1.479 . S
C1160 C1170 1.465 . S
C1161 C1160 1.264 . S
C1161 C1163 1.339 . S
C1161 H1188 0.931 . S
C1162 C1163 1.395 . S
C1162 C1164 1.320 . S
C1163 C1161 1.339 . S
C1163 C1162 1.395 . S
C1163 H1189 0.929 . S
C1164 C1162 1.320 . S
C1164 C1165 1.405 . S
C1164 H1190 0.930 . S
C1165 C1160 1.479 . S
C1165 C1164 1.405 . S
C1165 H1191 0.931 . S
U1166 O1167 2.454 . S
U1166 O1168 2.458 . S
U1166 C1169 2.984 . S
U1166 C1170 2.847 . S
U1166 C1183 2.882 . S
U1166 O1184 2.441 . S
U1166 O1185 2.420 . S
U1166 O1186 2.455 . S
U1166 O1187 2.449 . S
O1167 U1166 2.454 . S
O1167 C1169 1.353 . S
O1168 U1166 2.458 . S
O1168 C1169 1.286 . S
C1169 U1166 2.984 . S
C1169 O1167 1.353 . S
C1169 O1168 1.286 . S
C1169 C1171 1.363 . S
C1170 C1160 1.465 . S
C1170 U1166 2.847 . S
C1170 O1184 1.249 . S
C1170 O1185 1.202 . S
C1171 C1169 1.363 . S
C1171 C1173 1.408 . S
C1171 C1176 1.342 . S
C1172 C1173 1.310 . S
C1172 C1175 1.461 . S
C1172 H1192 0.932 . S
C1173 C1171 1.408 . S
C1173 C1172 1.310 . S
C1173 H1193 0.930 . S
C1174 C1175 1.474 . S
C1174 C1176 1.285 . S
C1174 H1194 0.929 . S
C1175 C1172 1.461 . S
C1175 C1174 1.474 . S
C1176 C1171 1.342 . S
C1176 C1174 1.285 . S
C1176 H1195 0.930 . S
C1177 C1180 1.424 . S
C1177 C1182 1.245 . S
C1177 C1183 1.428 . S
C1178 C1181 1.260 . S
C1178 C1182 1.477 1_545 S
C1178 H1196 0.932 . S
C1179 C1180 1.384 . S
C1179 C1181 1.479 1_565 S
C1179 H1197 0.929 . S
C1180 C1177 1.424 . S
C1180 C1179 1.384 . S
C1180 H1198 0.928 . S
C1181 C1178 1.260 . S
C1181 C1179 1.479 1_545 S
C1182 C1177 1.245 . S
C1182 C1178 1.477 1_565 S
C1182 H1199 0.932 1_565 S
C1183 U1166 2.882 . S
C1183 C1177 1.428 . S
C1183 O1186 1.301 . S
C1183 O1187 1.282 . S
O1184 U1166 2.441 . S
O1184 C1170 1.249 . S
O1185 U1166 2.420 . S
O1185 C1170 1.202 . S
O1186 U1166 2.455 . S
O1186 C1183 1.301 . S
O1187 U1166 2.449 . S
O1187 C1183 1.282 . S
H1188 C1161 0.931 . S
H1189 C1163 0.929 . S
H1190 C1164 0.930 . S
H1191 C1165 0.931 . S
H1192 C1172 0.932 . S
H1193 C1173 0.930 . S
H1194 C1174 0.929 . S
H1195 C1176 0.930 . S
H1196 C1178 0.932 . S
H1197 C1179 0.929 . S
H1198 C1180 0.928 . S
H1199 C1182 0.932 1_545 S
C1200 C1201 1.264 . S
C1200 C1205 1.479 . S
C1200 C1210 1.465 . S
C1201 C1200 1.264 . S
C1201 C1203 1.339 . S
C1201 H1228 0.931 . S
C1202 C1203 1.395 . S
C1202 C1204 1.320 . S
C1203 C1201 1.339 . S
C1203 C1202 1.395 . S
C1203 H1229 0.929 . S
C1204 C1202 1.320 . S
C1204 C1205 1.405 . S
C1204 H1230 0.930 . S
C1205 C1200 1.479 . S
C1205 C1204 1.405 . S
C1205 H1231 0.931 . S
U1206 O1207 2.454 . S
U1206 O1208 2.458 . S
U1206 C1209 2.984 . S
U1206 C1210 2.847 . S
U1206 C1223 2.882 . S
U1206 O1224 2.441 . S
U1206 O1225 2.420 . S
U1206 O1226 2.455 . S
U1206 O1227 2.449 . S
O1207 U1206 2.454 . S
O1207 C1209 1.353 . S
O1208 U1206 2.458 . S
O1208 C1209 1.286 . S
C1209 U1206 2.984 . S
C1209 O1207 1.353 . S
C1209 O1208 1.286 . S
C1209 C1211 1.363 . S
C1210 C1200 1.465 . S
C1210 U1206 2.847 . S
C1210 O1224 1.249 . S
C1210 O1225 1.202 . S
C1211 C1209 1.363 . S
C1211 C1213 1.408 . S
C1211 C1216 1.342 . S
C1212 C1213 1.310 . S
C1212 C1215 1.461 . S
C1212 H1232 0.932 . S
C1213 C1211 1.408 . S
C1213 C1212 1.310 . S
C1213 H1233 0.930 . S
C1214 C1215 1.474 . S
C1214 C1216 1.285 . S
C1214 H1234 0.929 . S
C1215 C1212 1.461 . S
C1215 C1214 1.474 . S
C1216 C1211 1.342 . S
C1216 C1214 1.285 . S
C1216 H1235 0.930 . S
C1217 C1220 1.424 . S
C1217 C1222 1.245 . S
C1217 C1223 1.428 . S
C1218 C1221 1.260 . S
C1218 C1222 1.477 . S
C1218 H1236 0.932 . S
C1219 C1220 1.384 . S
C1219 C1221 1.479 . S
C1219 H1237 0.929 . S
C1220 C1217 1.424 . S
C1220 C1219 1.384 . S
C1220 H1238 0.928 . S
C1221 C1218 1.260 . S
C1221 C1219 1.479 . S
C1222 C1217 1.245 . S
C1222 C1218 1.477 . S
C1222 H1239 0.932 . S
C1223 U1206 2.882 . S
C1223 C1217 1.428 . S
C1223 O1226 1.301 . S
C1223 O1227 1.282 . S
O1224 U1206 2.441 . S
O1224 C1210 1.249 . S
O1225 U1206 2.420 . S
O1225 C1210 1.202 . S
O1226 U1206 2.455 . S
O1226 C1223 1.301 . S
O1227 U1206 2.449 . S
O1227 C1223 1.282 . S
H1228 C1201 0.931 . S
H1229 C1203 0.929 . S
H1230 C1204 0.930 . S
H1231 C1205 0.931 . S
H1232 C1212 0.932 . S
H1233 C1213 0.930 . S
H1234 C1214 0.929 . S
H1235 C1216 0.930 . S
H1236 C1218 0.932 . S
H1237 C1219 0.929 . S
H1238 C1220 0.928 . S
H1239 C1222 0.932 . S
C1240 C1241 1.264 . S
C1240 C1245 1.479 . S
C1240 C1250 1.465 . S
C1241 C1240 1.264 . S
C1241 C1243 1.339 . S
C1241 H1268 0.931 . S
C1242 C1243 1.395 . S
C1242 C1244 1.320 . S
C1243 C1241 1.339 . S
C1243 C1242 1.395 . S
C1243 H1269 0.929 . S
C1244 C1242 1.320 . S
C1244 C1245 1.405 . S
C1244 H1270 0.930 . S
C1245 C1240 1.479 . S
C1245 C1244 1.405 . S
C1245 H1271 0.931 . S
U1246 O1247 2.454 . S
U1246 O1248 2.458 . S
U1246 C1249 2.984 . S
U1246 C1250 2.847 . S
U1246 C1263 2.882 . S
U1246 O1264 2.441 . S
U1246 O1265 2.420 . S
U1246 O1266 2.455 . S
U1246 O1267 2.449 . S
O1247 U1246 2.454 . S
O1247 C1249 1.353 . S
O1248 U1246 2.458 . S
O1248 C1249 1.286 . S
C1249 U1246 2.984 . S
C1249 O1247 1.353 . S
C1249 O1248 1.286 . S
C1249 C1251 1.363 . S
C1250 C1240 1.465 . S
C1250 U1246 2.847 . S
C1250 O1264 1.249 . S
C1250 O1265 1.202 . S
C1251 C1249 1.363 . S
C1251 C1253 1.408 . S
C1251 C1256 1.342 . S
C1252 C1253 1.310 . S
C1252 C1255 1.461 . S
C1252 H1272 0.932 . S
C1253 C1251 1.408 . S
C1253 C1252 1.310 . S
C1253 H1273 0.930 . S
C1254 C1255 1.474 . S
C1254 C1256 1.285 . S
C1254 H1274 0.929 . S
C1255 C1252 1.461 . S
C1255 C1254 1.474 . S
C1256 C1251 1.342 . S
C1256 C1254 1.285 . S
C1256 H1275 0.930 . S
C1257 C1260 1.424 . S
C1257 C1262 1.245 . S
C1257 C1263 1.428 . S
C1258 C1261 1.260 . S
C1258 C1262 1.477 1_565 S
C1258 H1276 0.932 . S
C1259 C1260 1.384 . S
C1259 C1261 1.479 1_545 S
C1259 H1277 0.929 . S
C1260 C1257 1.424 . S
C1260 C1259 1.384 . S
C1260 H1278 0.928 . S
C1261 C1258 1.260 . S
C1261 C1259 1.479 1_565 S
C1262 C1257 1.245 . S
C1262 C1258 1.477 1_545 S
C1262 H1279 0.932 1_545 S
C1263 U1246 2.882 . S
C1263 C1257 1.428 . S
C1263 O1266 1.301 . S
C1263 O1267 1.282 . S
O1264 U1246 2.441 . S
O1264 C1250 1.249 . S
O1265 U1246 2.420 . S
O1265 C1250 1.202 . S
O1266 U1246 2.455 . S
O1266 C1263 1.301 . S
O1267 U1246 2.449 . S
O1267 C1263 1.282 . S
H1268 C1241 0.931 . S
H1269 C1243 0.929 . S
H1270 C1244 0.930 . S
H1271 C1245 0.931 . S
H1272 C1252 0.932 . S
H1273 C1253 0.930 . S
H1274 C1254 0.929 . S
H1275 C1256 0.930 . S
H1276 C1258 0.932 . S
H1277 C1259 0.929 . S
H1278 C1260 0.928 . S
H1279 C1262 0.932 1_565 S
C1280 C1281 1.264 . S
C1280 C1285 1.479 . S
C1280 C1290 1.465 . S
C1281 C1280 1.264 . S
C1281 C1283 1.339 . S
C1281 H1308 0.931 . S
C1282 C1283 1.395 . S
C1282 C1284 1.320 . S
C1283 C1281 1.339 . S
C1283 C1282 1.395 . S
C1283 H1309 0.929 . S
C1284 C1282 1.320 . S
C1284 C1285 1.405 . S
C1284 H1310 0.930 . S
C1285 C1280 1.479 . S
C1285 C1284 1.405 . S
C1285 H1311 0.931 . S
U1286 O1287 2.454 . S
U1286 O1288 2.458 . S
U1286 C1289 2.984 . S
U1286 C1290 2.847 . S
U1286 C1303 2.882 . S
U1286 O1304 2.441 . S
U1286 O1305 2.420 . S
U1286 O1306 2.455 . S
U1286 O1307 2.449 . S
O1287 U1286 2.454 . S
O1287 C1289 1.353 . S
O1288 U1286 2.458 . S
O1288 C1289 1.286 . S
C1289 U1286 2.984 . S
C1289 O1287 1.353 . S
C1289 O1288 1.286 . S
C1289 C1291 1.363 . S
C1290 C1280 1.465 . S
C1290 U1286 2.847 . S
C1290 O1304 1.249 . S
C1290 O1305 1.202 . S
C1291 C1289 1.363 . S
C1291 C1293 1.408 . S
C1291 C1296 1.342 . S
C1292 C1293 1.310 . S
C1292 C1295 1.461 . S
C1292 H1312 0.932 . S
C1293 C1291 1.408 . S
C1293 C1292 1.310 . S
C1293 H1313 0.930 . S
C1294 C1295 1.474 . S
C1294 C1296 1.285 . S
C1294 H1314 0.929 . S
C1295 C1292 1.461 . S
C1295 C1294 1.474 . S
C1296 C1291 1.342 . S
C1296 C1294 1.285 . S
C1296 H1315 0.930 . S
C1297 C1300 1.424 . S
C1297 C1302 1.245 . S
C1297 C1303 1.428 . S
C1298 C1301 1.260 . S
C1298 C1302 1.477 . S
C1298 H1316 0.932 . S
C1299 C1300 1.384 . S
C1299 C1301 1.479 . S
C1299 H1317 0.929 . S
C1300 C1297 1.424 . S
C1300 C1299 1.384 . S
C1300 H1318 0.928 . S
C1301 C1298 1.260 . S
C1301 C1299 1.479 . S
C1302 C1297 1.245 . S
C1302 C1298 1.477 . S
C1302 H1319 0.932 . S
C1303 U1286 2.882 . S
C1303 C1297 1.428 . S
C1303 O1306 1.301 . S
C1303 O1307 1.282 . S
O1304 U1286 2.441 . S
O1304 C1290 1.249 . S
O1305 U1286 2.420 . S
O1305 C1290 1.202 . S
O1306 U1286 2.455 . S
O1306 C1303 1.301 . S
O1307 U1286 2.449 . S
O1307 C1303 1.282 . S
H1308 C1281 0.931 . S
H1309 C1283 0.929 . S
H1310 C1284 0.930 . S
H1311 C1285 0.931 . S
H1312 C1292 0.932 . S
H1313 C1293 0.930 . S
H1314 C1294 0.929 . S
H1315 C1296 0.930 . S
H1316 C1298 0.932 . S
H1317 C1299 0.929 . S
H1318 C1300 0.928 . S
H1319 C1302 0.932 . S
C1320 C1321 1.264 . S
C1320 C1325 1.479 . S
C1320 C1330 1.465 . S
C1321 C1320 1.264 . S
C1321 C1323 1.339 . S
C1321 H1348 0.931 . S
C1322 C1323 1.395 . S
C1322 C1324 1.320 . S
C1323 C1321 1.339 . S
C1323 C1322 1.395 . S
C1323 H1349 0.929 . S
C1324 C1322 1.320 . S
C1324 C1325 1.405 . S
C1324 H1350 0.930 . S
C1325 C1320 1.479 . S
C1325 C1324 1.405 . S
C1325 H1351 0.931 . S
U1326 O1327 2.454 . S
U1326 O1328 2.458 . S
U1326 C1329 2.984 . S
U1326 C1330 2.847 . S
U1326 C1343 2.882 . S
U1326 O1344 2.441 . S
U1326 O1345 2.420 . S
U1326 O1346 2.455 . S
U1326 O1347 2.449 . S
O1327 U1326 2.454 . S
O1327 C1329 1.353 . S
O1328 U1326 2.458 . S
O1328 C1329 1.286 . S
C1329 U1326 2.984 . S
C1329 O1327 1.353 . S
C1329 O1328 1.286 . S
C1329 C1331 1.363 . S
C1330 C1320 1.465 . S
C1330 U1326 2.847 . S
C1330 O1344 1.249 . S
C1330 O1345 1.202 . S
C1331 C1329 1.363 . S
C1331 C1333 1.408 . S
C1331 C1336 1.342 . S
C1332 C1333 1.310 . S
C1332 C1335 1.461 . S
C1332 H1352 0.932 . S
C1333 C1331 1.408 . S
C1333 C1332 1.310 . S
C1333 H1353 0.930 . S
C1334 C1335 1.474 . S
C1334 C1336 1.285 . S
C1334 H1354 0.929 . S
C1335 C1332 1.461 . S
C1335 C1334 1.474 . S
C1336 C1331 1.342 . S
C1336 C1334 1.285 . S
C1336 H1355 0.930 . S
C1337 C1340 1.424 . S
C1337 C1342 1.245 . S
C1337 C1343 1.428 . S
C1338 C1341 1.258 1_554 S
C1338 C1342 1.477 1_554 S
C1338 H1356 0.932 . S
C1339 C1340 1.384 . S
C1339 C1341 1.485 . S
C1339 H1357 0.929 . S
C1340 C1337 1.424 . S
C1340 C1339 1.384 . S
C1340 H1358 0.928 . S
C1341 C1338 1.258 1_556 S
C1341 C1339 1.485 . S
C1342 C1337 1.245 . S
C1342 C1338 1.477 1_556 S
C1342 H1359 0.932 . S
C1343 U1326 2.882 . S
C1343 C1337 1.428 . S
C1343 O1346 1.301 . S
C1343 O1347 1.282 . S
O1344 U1326 2.441 . S
O1344 C1330 1.249 . S
O1345 U1326 2.420 . S
O1345 C1330 1.202 . S
O1346 U1326 2.455 . S
O1346 C1343 1.301 . S
O1347 U1326 2.449 . S
O1347 C1343 1.282 . S
H1348 C1321 0.931 . S
H1349 C1323 0.929 . S
H1350 C1324 0.930 . S
H1351 C1325 0.931 . S
H1352 C1332 0.932 . S
H1353 C1333 0.930 . S
H1354 C1334 0.929 . S
H1355 C1336 0.930 . S
H1356 C1338 0.932 . S
H1357 C1339 0.929 . S
H1358 C1340 0.928 . S
H1359 C1342 0.932 . S
C1360 C1361 1.264 . S
C1360 C1365 1.479 . S
C1360 C1370 1.465 . S
C1361 C1360 1.264 . S
C1361 C1363 1.339 . S
C1361 H1388 0.931 . S
C1362 C1363 1.395 . S
C1362 C1364 1.320 . S
C1363 C1361 1.339 . S
C1363 C1362 1.395 . S
C1363 H1389 0.929 . S
C1364 C1362 1.320 . S
C1364 C1365 1.405 . S
C1364 H1390 0.930 . S
C1365 C1360 1.479 . S
C1365 C1364 1.405 . S
C1365 H1391 0.931 . S
U1366 O1367 2.454 . S
U1366 O1368 2.458 . S
U1366 C1369 2.984 . S
U1366 C1370 2.847 . S
U1366 C1383 2.882 . S
U1366 O1384 2.441 . S
U1366 O1385 2.420 . S
U1366 O1386 2.455 . S
U1366 O1387 2.449 . S
O1367 U1366 2.454 . S
O1367 C1369 1.353 . S
O1368 U1366 2.458 . S
O1368 C1369 1.286 . S
C1369 U1366 2.984 . S
C1369 O1367 1.353 . S
C1369 O1368 1.286 . S
C1369 C1371 1.363 . S
C1370 C1360 1.465 . S
C1370 U1366 2.847 . S
C1370 O1384 1.249 . S
C1370 O1385 1.202 . S
C1371 C1369 1.363 . S
C1371 C1373 1.408 . S
C1371 C1376 1.342 . S
C1372 C1373 1.310 . S
C1372 C1375 1.461 . S
C1372 H1392 0.932 . S
C1373 C1371 1.408 . S
C1373 C1372 1.310 . S
C1373 H1393 0.930 . S
C1374 C1375 1.474 . S
C1374 C1376 1.285 . S
C1374 H1394 0.929 . S
C1375 C1372 1.461 . S
C1375 C1374 1.474 . S
C1376 C1371 1.342 . S
C1376 C1374 1.285 . S
C1376 H1395 0.930 . S
C1377 C1380 1.424 . S
C1377 C1382 1.333 . S
C1377 C1383 1.428 . S
C1378 C1381 1.260 . S
C1378 C1382 1.426 1_554 S
C1378 H1396 0.932 . S
C1379 C1380 1.384 . S
C1379 C1381 1.479 1_556 S
C1379 H1397 0.929 . S
C1380 C1377 1.424 . S
C1380 C1379 1.384 . S
C1380 H1398 0.928 . S
C1381 C1378 1.260 . S
C1381 C1379 1.479 1_554 S
C1382 C1377 1.333 . S
C1382 C1378 1.426 1_556 S
C1382 H1399 0.906 1_556 S
C1383 U1366 2.882 . S
C1383 C1377 1.428 . S
C1383 O1386 1.301 . S
C1383 O1387 1.282 . S
O1384 U1366 2.441 . S
O1384 C1370 1.249 . S
O1385 U1366 2.420 . S
O1385 C1370 1.202 . S
O1386 U1366 2.455 . S
O1386 C1383 1.301 . S
O1387 U1366 2.449 . S
O1387 C1383 1.282 . S
H1388 C1361 0.931 . S
H1389 C1363 0.929 . S
H1390 C1364 0.930 . S
H1391 C1365 0.931 . S
H1392 C1372 0.932 . S
H1393 C1373 0.930 . S
H1394 C1374 0.929 . S
H1395 C1376 0.930 . S
H1396 C1378 0.932 . S
H1397 C1379 0.929 . S
H1398 C1380 0.928 . S
H1399 C1382 0.906 1_554 S
C1400 C1401 1.264 . S
C1400 C1405 1.479 . S
C1400 C1410 1.465 . S
C1401 C1400 1.264 . S
C1401 C1403 1.339 . S
C1401 H1428 0.931 . S
C1402 C1403 1.395 . S
C1402 C1404 1.320 . S
C1403 C1401 1.339 . S
C1403 C1402 1.395 . S
C1403 H1429 0.929 . S
C1404 C1402 1.320 . S
C1404 C1405 1.405 . S
C1404 H1430 0.930 . S
C1405 C1400 1.479 . S
C1405 C1404 1.405 . S
C1405 H1431 0.931 . S
U1406 O1407 2.454 . S
U1406 O1408 2.458 . S
U1406 C1409 2.984 . S
U1406 C1410 2.847 . S
U1406 C1423 2.882 . S
U1406 O1424 2.441 . S
U1406 O1425 2.420 . S
U1406 O1426 2.455 . S
U1406 O1427 2.449 . S
O1407 U1406 2.454 . S
O1407 C1409 1.353 . S
O1408 U1406 2.458 . S
O1408 C1409 1.286 . S
C1409 U1406 2.984 . S
C1409 O1407 1.353 . S
C1409 O1408 1.286 . S
C1409 C1411 1.363 . S
C1410 C1400 1.465 . S
C1410 U1406 2.847 . S
C1410 O1424 1.249 . S
C1410 O1425 1.202 . S
C1411 C1409 1.363 . S
C1411 C1413 1.408 . S
C1411 C1416 1.342 . S
C1412 C1413 1.310 . S
C1412 C1415 1.461 . S
C1412 H1432 0.932 . S
C1413 C1411 1.408 . S
C1413 C1412 1.310 . S
C1413 H1433 0.930 . S
C1414 C1415 1.474 . S
C1414 C1416 1.285 . S
C1414 H1434 0.929 . S
C1415 C1412 1.461 . S
C1415 C1414 1.474 . S
C1416 C1411 1.342 . S
C1416 C1414 1.285 . S
C1416 H1435 0.930 . S
C1417 C1420 1.424 . S
C1417 C1422 1.333 . S
C1417 C1423 1.428 . S
C1418 C1421 1.260 . S
C1418 C1422 1.426 1_556 S
C1418 H1436 0.932 . S
C1419 C1420 1.384 . S
C1419 C1421 1.479 1_554 S
C1419 H1437 0.929 . S
C1420 C1417 1.424 . S
C1420 C1419 1.384 . S
C1420 H1438 0.928 . S
C1421 C1418 1.260 . S
C1421 C1419 1.479 1_556 S
C1422 C1417 1.333 . S
C1422 C1418 1.426 1_554 S
C1422 H1439 0.906 1_554 S
C1423 U1406 2.882 . S
C1423 C1417 1.428 . S
C1423 O1426 1.301 . S
C1423 O1427 1.282 . S
O1424 U1406 2.441 . S
O1424 C1410 1.249 . S
O1425 U1406 2.420 . S
O1425 C1410 1.202 . S
O1426 U1406 2.455 . S
O1426 C1423 1.301 . S
O1427 U1406 2.449 . S
O1427 C1423 1.282 . S
H1428 C1401 0.931 . S
H1429 C1403 0.929 . S
H1430 C1404 0.930 . S
H1431 C1405 0.931 . S
H1432 C1412 0.932 . S
H1433 C1413 0.930 . S
H1434 C1414 0.929 . S
H1435 C1416 0.930 . S
H1436 C1418 0.932 . S
H1437 C1419 0.929 . S
H1438 C1420 0.928 . S
H1439 C1422 0.906 1_556 S
C1440 C1441 1.264 . S
C1440 C1445 1.479 . S
C1440 C1450 1.465 . S
C1441 C1440 1.264 . S
C1441 C1443 1.339 . S
C1441 H1468 0.931 . S
C1442 C1443 1.395 . S
C1442 C1444 1.320 . S
C1443 C1441 1.339 . S
C1443 C1442 1.395 . S
C1443 H1469 0.929 . S
C1444 C1442 1.320 . S
C1444 C1445 1.405 . S
C1444 H1470 0.930 . S
C1445 C1440 1.479 . S
C1445 C1444 1.405 . S
C1445 H1471 0.931 . S
U1446 O1447 2.454 . S
U1446 O1448 2.458 . S
U1446 C1449 2.984 . S
U1446 C1450 2.847 . S
U1446 C1463 2.882 . S
U1446 O1464 2.441 . S
U1446 O1465 2.420 . S
U1446 O1466 2.455 . S
U1446 O1467 2.449 . S
O1447 U1446 2.454 . S
O1447 C1449 1.353 . S
O1448 U1446 2.458 . S
O1448 C1449 1.286 . S
C1449 U1446 2.984 . S
C1449 O1447 1.353 . S
C1449 O1448 1.286 . S
C1449 C1451 1.363 . S
C1450 C1440 1.465 . S
C1450 U1446 2.847 . S
C1450 O1464 1.249 . S
C1450 O1465 1.202 . S
C1451 C1449 1.363 . S
C1451 C1453 1.408 . S
C1451 C1456 1.342 . S
C1452 C1453 1.310 . S
C1452 C1455 1.461 . S
C1452 H1472 0.932 . S
C1453 C1451 1.408 . S
C1453 C1452 1.310 . S
C1453 H1473 0.930 . S
C1454 C1455 1.474 . S
C1454 C1456 1.285 . S
C1454 H1474 0.929 . S
C1455 C1452 1.461 . S
C1455 C1454 1.474 . S
C1456 C1451 1.342 . S
C1456 C1454 1.285 . S
C1456 H1475 0.930 . S
C1457 C1460 1.424 . S
C1457 C1462 1.245 . S
C1457 C1463 1.428 . S
C1458 C1461 1.260 . S
C1458 C1462 1.477 . S
C1458 H1476 0.932 . S
C1459 C1460 1.384 . S
C1459 C1461 1.479 . S
C1459 H1477 0.929 . S
C1460 C1457 1.424 . S
C1460 C1459 1.384 . S
C1460 H1478 0.928 . S
C1461 C1458 1.260 . S
C1461 C1459 1.479 . S
C1462 C1457 1.245 . S
C1462 C1458 1.477 . S
C1462 H1479 0.932 . S
C1463 U1446 2.882 . S
C1463 C1457 1.428 . S
C1463 O1466 1.301 . S
C1463 O1467 1.282 . S
O1464 U1446 2.441 . S
O1464 C1450 1.249 . S
O1465 U1446 2.420 . S
O1465 C1450 1.202 . S
O1466 U1446 2.455 . S
O1466 C1463 1.301 . S
O1467 U1446 2.449 . S
O1467 C1463 1.282 . S
H1468 C1441 0.931 . S
H1469 C1443 0.929 . S
H1470 C1444 0.930 . S
H1471 C1445 0.931 . S
H1472 C1452 0.932 . S
H1473 C1453 0.930 . S
H1474 C1454 0.929 . S
H1475 C1456 0.930 . S
H1476 C1458 0.932 . S
H1477 C1459 0.929 . S
H1478 C1460 0.928 . S
H1479 C1462 0.932 . S
C1480 C1481 1.264 . S
C1480 C1485 1.479 . S
C1480 C1490 1.465 . S
C1481 C1480 1.264 . S
C1481 C1483 1.339 . S
C1481 H1508 0.931 . S
C1482 C1483 1.395 . S
C1482 C1484 1.320 . S
C1483 C1481 1.339 . S
C1483 C1482 1.395 . S
C1483 H1509 0.929 . S
C1484 C1482 1.320 . S
C1484 C1485 1.405 . S
C1484 H1510 0.930 . S
C1485 C1480 1.479 . S
C1485 C1484 1.405 . S
C1485 H1511 0.931 . S
U1486 O1487 2.454 . S
U1486 O1488 2.458 . S
U1486 C1489 2.984 . S
U1486 C1490 2.847 . S
U1486 C1503 2.882 . S
U1486 O1504 2.441 . S
U1486 O1505 2.420 . S
U1486 O1506 2.455 . S
U1486 O1507 2.449 . S
O1487 U1486 2.454 . S
O1487 C1489 1.353 . S
O1488 U1486 2.458 . S
O1488 C1489 1.286 . S
C1489 U1486 2.984 . S
C1489 O1487 1.353 . S
C1489 O1488 1.286 . S
C1489 C1491 1.363 . S
C1490 C1480 1.465 . S
C1490 U1486 2.847 . S
C1490 O1504 1.249 . S
C1490 O1505 1.202 . S
C1491 C1489 1.363 . S
C1491 C1493 1.408 . S
C1491 C1496 1.342 . S
C1492 C1493 1.310 . S
C1492 C1495 1.461 . S
C1492 H1512 0.932 . S
C1493 C1491 1.408 . S
C1493 C1492 1.310 . S
C1493 H1513 0.930 . S
C1494 C1495 1.474 . S
C1494 C1496 1.285 . S
C1494 H1514 0.929 . S
C1495 C1492 1.461 . S
C1495 C1494 1.474 . S
C1496 C1491 1.342 . S
C1496 C1494 1.285 . S
C1496 H1515 0.930 . S
C1497 C1500 1.424 . S
C1497 C1502 1.245 . S
C1497 C1503 1.428 . S
C1498 C1501 1.260 . S
C1498 C1502 1.477 . S
C1498 H1516 0.932 . S
C1499 C1500 1.384 . S
C1499 C1501 1.479 . S
C1499 H1517 0.929 . S
C1500 C1497 1.424 . S
C1500 C1499 1.384 . S
C1500 H1518 0.928 . S
C1501 C1498 1.260 . S
C1501 C1499 1.479 . S
C1502 C1497 1.245 . S
C1502 C1498 1.477 . S
C1502 H1519 0.932 . S
C1503 U1486 2.882 . S
C1503 C1497 1.428 . S
C1503 O1506 1.301 . S
C1503 O1507 1.282 . S
O1504 U1486 2.441 . S
O1504 C1490 1.249 . S
O1505 U1486 2.420 . S
O1505 C1490 1.202 . S
O1506 U1486 2.455 . S
O1506 C1503 1.301 . S
O1507 U1486 2.449 . S
O1507 C1503 1.282 . S
H1508 C1481 0.931 . S
H1509 C1483 0.929 . S
H1510 C1484 0.930 . S
H1511 C1485 0.931 . S
H1512 C1492 0.932 . S
H1513 C1493 0.930 . S
H1514 C1494 0.929 . S
H1515 C1496 0.930 . S
H1516 C1498 0.932 . S
H1517 C1499 0.929 . S
H1518 C1500 0.928 . S
H1519 C1502 0.932 . S
C1520 C1521 1.264 . S
C1520 C1525 1.479 . S
C1520 C1530 1.465 . S
C1521 C1520 1.264 . S
C1521 C1523 1.339 . S
C1521 H1548 0.931 . S
C1522 C1523 1.395 . S
C1522 C1524 1.320 . S
C1523 C1521 1.339 . S
C1523 C1522 1.395 . S
C1523 H1549 0.929 . S
C1524 C1522 1.320 . S
C1524 C1525 1.405 . S
C1524 H1550 0.930 . S
C1525 C1520 1.479 . S
C1525 C1524 1.405 . S
C1525 H1551 0.931 . S
U1526 O1527 2.454 . S
U1526 O1528 2.458 . S
U1526 C1529 2.984 . S
U1526 C1530 2.847 . S
U1526 C1543 2.882 . S
U1526 O1544 2.441 . S
U1526 O1545 2.420 . S
U1526 O1546 2.455 . S
U1526 O1547 2.449 . S
O1527 U1526 2.454 . S
O1527 C1529 1.353 . S
O1528 U1526 2.458 . S
O1528 C1529 1.286 . S
C1529 U1526 2.984 . S
C1529 O1527 1.353 . S
C1529 O1528 1.286 . S
C1529 C1531 1.363 . S
C1530 C1520 1.465 . S
C1530 U1526 2.847 . S
C1530 O1544 1.249 . S
C1530 O1545 1.202 . S
C1531 C1529 1.363 . S
C1531 C1533 1.408 . S
C1531 C1536 1.342 . S
C1532 C1533 1.310 . S
C1532 C1535 1.461 . S
C1532 H1552 0.932 . S
C1533 C1531 1.408 . S
C1533 C1532 1.310 . S
C1533 H1553 0.930 . S
C1534 C1535 1.474 . S
C1534 C1536 1.285 . S
C1534 H1554 0.929 . S
C1535 C1532 1.461 . S
C1535 C1534 1.474 . S
C1536 C1531 1.342 . S
C1536 C1534 1.285 . S
C1536 H1555 0.930 . S
C1537 C1540 1.424 . S
C1537 C1542 1.245 . S
C1537 C1543 1.428 . S
C1538 C1541 1.260 . S
C1538 C1542 1.477 . S
C1538 H1556 0.932 . S
C1539 C1540 1.384 . S
C1539 C1541 1.479 . S
C1539 H1557 0.929 . S
C1540 C1537 1.424 . S
C1540 C1539 1.384 . S
C1540 H1558 0.928 . S
C1541 C1538 1.260 . S
C1541 C1539 1.479 . S
C1542 C1537 1.245 . S
C1542 C1538 1.477 . S
C1542 H1559 0.932 . S
C1543 U1526 2.882 . S
C1543 C1537 1.428 . S
C1543 O1546 1.301 . S
C1543 O1547 1.282 . S
O1544 U1526 2.441 . S
O1544 C1530 1.249 . S
O1545 U1526 2.420 . S
O1545 C1530 1.202 . S
O1546 U1526 2.455 . S
O1546 C1543 1.301 . S
O1547 U1526 2.449 . S
O1547 C1543 1.282 . S
H1548 C1521 0.931 . S
H1549 C1523 0.929 . S
H1550 C1524 0.930 . S
H1551 C1525 0.931 . S
H1552 C1532 0.932 . S
H1553 C1533 0.930 . S
H1554 C1534 0.929 . S
H1555 C1536 0.930 . S
H1556 C1538 0.932 . S
H1557 C1539 0.929 . S
H1558 C1540 0.928 . S
H1559 C1542 0.932 . S
C1560 C1561 1.264 . S
C1560 C1565 1.479 . S
C1560 C1570 1.465 . S
C1561 C1560 1.264 . S
C1561 C1563 1.339 . S
C1561 H1588 0.931 . S
C1562 C1563 1.395 . S
C1562 C1564 1.320 . S
C1563 C1561 1.339 . S
C1563 C1562 1.395 . S
C1563 H1589 0.929 . S
C1564 C1562 1.320 . S
C1564 C1565 1.405 . S
C1564 H1590 0.930 . S
C1565 C1560 1.479 . S
C1565 C1564 1.405 . S
C1565 H1591 0.931 . S
U1566 O1567 2.454 . S
U1566 O1568 2.458 . S
U1566 C1569 2.984 . S
U1566 C1570 2.847 . S
U1566 C1583 2.882 . S
U1566 O1584 2.441 . S
U1566 O1585 2.420 . S
U1566 O1586 2.455 . S
U1566 O1587 2.449 . S
O1567 U1566 2.454 . S
O1567 C1569 1.353 . S
O1568 U1566 2.458 . S
O1568 C1569 1.286 . S
C1569 U1566 2.984 . S
C1569 O1567 1.353 . S
C1569 O1568 1.286 . S
C1569 C1571 1.363 . S
C1570 C1560 1.465 . S
C1570 U1566 2.847 . S
C1570 O1584 1.249 . S
C1570 O1585 1.202 . S
C1571 C1569 1.363 . S
C1571 C1573 1.408 . S
C1571 C1576 1.342 . S
C1572 C1573 1.310 . S
C1572 C1575 1.461 . S
C1572 H1592 0.932 . S
C1573 C1571 1.408 . S
C1573 C1572 1.310 . S
C1573 H1593 0.930 . S
C1574 C1575 1.474 . S
C1574 C1576 1.285 . S
C1574 H1594 0.929 . S
C1575 C1572 1.461 . S
C1575 C1574 1.474 . S
C1576 C1571 1.342 . S
C1576 C1574 1.285 . S
C1576 H1595 0.930 . S
C1577 C1580 1.424 . S
C1577 C1582 1.245 . S
C1577 C1583 1.428 . S
C1578 C1581 1.260 . S
C1578 C1582 1.477 . S
C1578 H1596 0.932 . S
C1579 C1580 1.384 . S
C1579 C1581 1.479 . S
C1579 H1597 0.929 . S
C1580 C1577 1.424 . S
C1580 C1579 1.384 . S
C1580 H1598 0.928 . S
C1581 C1578 1.260 . S
C1581 C1579 1.479 . S
C1582 C1577 1.245 . S
C1582 C1578 1.477 . S
C1582 H1599 0.932 . S
C1583 U1566 2.882 . S
C1583 C1577 1.428 . S
C1583 O1586 1.301 . S
C1583 O1587 1.282 . S
O1584 U1566 2.441 . S
O1584 C1570 1.249 . S
O1585 U1566 2.420 . S
O1585 C1570 1.202 . S
O1586 U1566 2.455 . S
O1586 C1583 1.301 . S
O1587 U1566 2.449 . S
O1587 C1583 1.282 . S
H1588 C1561 0.931 . S
H1589 C1563 0.929 . S
H1590 C1564 0.930 . S
H1591 C1565 0.931 . S
H1592 C1572 0.932 . S
H1593 C1573 0.930 . S
H1594 C1574 0.929 . S
H1595 C1576 0.930 . S
H1596 C1578 0.932 . S
H1597 C1579 0.929 . S
H1598 C1580 0.928 . S
H1599 C1582 0.932 . S
C1600 C1601 1.264 . S
C1600 C1605 1.479 . S
C1600 C1610 1.465 . S
C1601 C1600 1.264 . S
C1601 C1603 1.339 . S
C1601 H1628 0.931 . S
C1602 C1603 1.395 . S
C1602 C1604 1.320 . S
C1603 C1601 1.339 . S
C1603 C1602 1.395 . S
C1603 H1629 0.929 . S
C1604 C1602 1.320 . S
C1604 C1605 1.405 . S
C1604 H1630 0.930 . S
C1605 C1600 1.479 . S
C1605 C1604 1.405 . S
C1605 H1631 0.931 . S
U1606 O1607 2.454 . S
U1606 O1608 2.458 . S
U1606 C1609 2.984 . S
U1606 C1610 2.847 . S
U1606 C1623 2.882 . S
U1606 O1624 2.441 . S
U1606 O1625 2.420 . S
U1606 O1626 2.455 . S
U1606 O1627 2.449 . S
O1607 U1606 2.454 . S
O1607 C1609 1.353 . S
O1608 U1606 2.458 . S
O1608 C1609 1.286 . S
C1609 U1606 2.984 . S
C1609 O1607 1.353 . S
C1609 O1608 1.286 . S
C1609 C1611 1.363 . S
C1610 C1600 1.465 . S
C1610 U1606 2.847 . S
C1610 O1624 1.249 . S
C1610 O1625 1.202 . S
C1611 C1609 1.363 . S
C1611 C1613 1.408 . S
C1611 C1616 1.342 . S
C1612 C1613 1.310 . S
C1612 C1615 1.461 . S
C1612 H1632 0.932 . S
C1613 C1611 1.408 . S
C1613 C1612 1.310 . S
C1613 H1633 0.930 . S
C1614 C1615 1.474 . S
C1614 C1616 1.285 . S
C1614 H1634 0.929 . S
C1615 C1612 1.461 . S
C1615 C1614 1.474 . S
C1616 C1611 1.342 . S
C1616 C1614 1.285 . S
C1616 H1635 0.930 . S
C1617 C1620 1.424 . S
C1617 C1622 1.245 . S
C1617 C1623 1.428 . S
C1618 C1621 1.260 . S
C1618 C1622 1.477 . S
C1618 H1636 0.932 . S
C1619 C1620 1.384 . S
C1619 C1621 1.479 . S
C1619 H1637 0.929 . S
C1620 C1617 1.424 . S
C1620 C1619 1.384 . S
C1620 H1638 0.928 . S
C1621 C1618 1.260 . S
C1621 C1619 1.479 . S
C1622 C1617 1.245 . S
C1622 C1618 1.477 . S
C1622 H1639 0.932 . S
C1623 U1606 2.882 . S
C1623 C1617 1.428 . S
C1623 O1626 1.301 . S
C1623 O1627 1.282 . S
O1624 U1606 2.441 . S
O1624 C1610 1.249 . S
O1625 U1606 2.420 . S
O1625 C1610 1.202 . S
O1626 U1606 2.455 . S
O1626 C1623 1.301 . S
O1627 U1606 2.449 . S
O1627 C1623 1.282 . S
H1628 C1601 0.931 . S
H1629 C1603 0.929 . S
H1630 C1604 0.930 . S
H1631 C1605 0.931 . S
H1632 C1612 0.932 . S
H1633 C1613 0.930 . S
H1634 C1614 0.929 . S
H1635 C1616 0.930 . S
H1636 C1618 0.932 . S
H1637 C1619 0.929 . S
H1638 C1620 0.928 . S
H1639 C1622 0.932 . S
C1640 C1641 1.264 . S
C1640 C1645 1.479 1_545 S
C1640 C1650 1.465 . S
C1641 C1640 1.264 . S
C1641 C1643 1.339 . S
C1641 H1668 0.931 . S
C1642 C1643 1.395 1_565 S
C1642 C1644 1.320 . S
C1643 C1641 1.339 . S
C1643 C1642 1.395 1_545 S
C1643 H1669 0.929 . S
C1644 C1642 1.320 . S
C1644 C1645 1.405 . S
C1644 H1670 0.930 . S
C1645 C1640 1.479 1_565 S
C1645 C1644 1.405 . S
C1645 H1671 0.931 . S
U1646 O1647 2.454 . S
U1646 O1648 2.458 . S
U1646 C1649 2.984 . S
U1646 C1650 2.847 . S
U1646 C1663 2.882 . S
U1646 O1664 2.441 . S
U1646 O1665 2.420 . S
U1646 O1666 2.455 . S
U1646 O1667 2.449 . S
O1647 U1646 2.454 . S
O1647 C1649 1.353 . S
O1648 U1646 2.458 . S
O1648 C1649 1.286 . S
C1649 U1646 2.984 . S
C1649 O1647 1.353 . S
C1649 O1648 1.286 . S
C1649 C1651 1.363 . S
C1650 C1640 1.465 . S
C1650 U1646 2.847 . S
C1650 O1664 1.249 . S
C1650 O1665 1.202 . S
C1651 C1649 1.363 . S
C1651 C1653 1.408 . S
C1651 C1656 1.342 . S
C1652 C1653 1.310 . S
C1652 C1655 1.461 . S
C1652 H1672 0.932 . S
C1653 C1651 1.408 . S
C1653 C1652 1.310 . S
C1653 H1673 0.930 . S
C1654 C1655 1.474 . S
C1654 C1656 1.285 . S
C1654 H1674 0.929 . S
C1655 C1652 1.461 . S
C1655 C1654 1.474 . S
C1656 C1651 1.342 . S
C1656 C1654 1.285 . S
C1656 H1675 0.930 . S
C1657 C1660 1.424 . S
C1657 C1662 1.245 . S
C1657 C1663 1.428 . S
C1658 C1661 1.260 . S
C1658 C1662 1.477 . S
C1658 H1676 0.932 . S
C1659 C1660 1.384 . S
C1659 C1661 1.479 . S
C1659 H1677 0.929 . S
C1660 C1657 1.424 . S
C1660 C1659 1.384 . S
C1660 H1678 0.928 . S
C1661 C1658 1.260 . S
C1661 C1659 1.479 . S
C1662 C1657 1.245 . S
C1662 C1658 1.477 . S
C1662 H1679 0.932 . S
C1663 U1646 2.882 . S
C1663 C1657 1.428 . S
C1663 O1666 1.301 . S
C1663 O1667 1.282 . S
O1664 U1646 2.441 . S
O1664 C1650 1.249 . S
O1665 U1646 2.420 . S
O1665 C1650 1.202 . S
O1666 U1646 2.455 . S
O1666 C1663 1.301 . S
O1667 U1646 2.449 . S
O1667 C1663 1.282 . S
H1668 C1641 0.931 . S
H1669 C1643 0.929 . S
H1670 C1644 0.930 . S
H1671 C1645 0.931 . S
H1672 C1652 0.932 . S
H1673 C1653 0.930 . S
H1674 C1654 0.929 . S
H1675 C1656 0.930 . S
H1676 C1658 0.932 . S
H1677 C1659 0.929 . S
H1678 C1660 0.928 . S
H1679 C1662 0.932 . S
C1680 C1681 1.264 . S
C1680 C1685 1.479 . S
C1680 C1690 1.465 . S
C1681 C1680 1.264 . S
C1681 C1683 1.339 . S
C1681 H1708 0.931 . S
C1682 C1683 1.395 . S
C1682 C1684 1.320 . S
C1683 C1681 1.339 . S
C1683 C1682 1.395 . S
C1683 H1709 0.929 . S
C1684 C1682 1.320 . S
C1684 C1685 1.405 . S
C1684 H1710 0.930 . S
C1685 C1680 1.479 . S
C1685 C1684 1.405 . S
C1685 H1711 0.931 . S
U1686 O1687 2.454 . S
U1686 O1688 2.458 . S
U1686 C1689 2.984 . S
U1686 C1690 2.847 . S
U1686 C1703 2.882 . S
U1686 O1704 2.441 . S
U1686 O1705 2.420 . S
U1686 O1706 2.455 . S
U1686 O1707 2.449 . S
O1687 U1686 2.454 . S
O1687 C1689 1.353 . S
O1688 U1686 2.458 . S
O1688 C1689 1.286 . S
C1689 U1686 2.984 . S
C1689 O1687 1.353 . S
C1689 O1688 1.286 . S
C1689 C1691 1.363 . S
C1690 C1680 1.465 . S
C1690 U1686 2.847 . S
C1690 O1704 1.249 . S
C1690 O1705 1.202 . S
C1691 C1689 1.363 . S
C1691 C1693 1.408 . S
C1691 C1696 1.342 . S
C1692 C1693 1.310 . S
C1692 C1695 1.461 . S
C1692 H1712 0.932 . S
C1693 C1691 1.408 . S
C1693 C1692 1.310 . S
C1693 H1713 0.930 . S
C1694 C1695 1.474 . S
C1694 C1696 1.285 . S
C1694 H1714 0.929 . S
C1695 C1692 1.461 . S
C1695 C1694 1.474 . S
C1696 C1691 1.342 . S
C1696 C1694 1.285 . S
C1696 H1715 0.930 . S
C1697 C1700 1.424 . S
C1697 C1702 1.245 . S
C1697 C1703 1.428 . S
C1698 C1701 1.260 . S
C1698 C1702 1.477 . S
C1698 H1716 0.932 . S
C1699 C1700 1.384 . S
C1699 C1701 1.479 . S
C1699 H1717 0.929 . S
C1700 C1697 1.424 . S
C1700 C1699 1.384 . S
C1700 H1718 0.928 . S
C1701 C1698 1.260 . S
C1701 C1699 1.479 . S
C1702 C1697 1.245 . S
C1702 C1698 1.477 . S
C1702 H1719 0.932 . S
C1703 U1686 2.882 . S
C1703 C1697 1.428 . S
C1703 O1706 1.301 . S
C1703 O1707 1.282 . S
O1704 U1686 2.441 . S
O1704 C1690 1.249 . S
O1705 U1686 2.420 . S
O1705 C1690 1.202 . S
O1706 U1686 2.455 . S
O1706 C1703 1.301 . S
O1707 U1686 2.449 . S
O1707 C1703 1.282 . S
H1708 C1681 0.931 . S
H1709 C1683 0.929 . S
H1710 C1684 0.930 . S
H1711 C1685 0.931 . S
H1712 C1692 0.932 . S
H1713 C1693 0.930 . S
H1714 C1694 0.929 . S
H1715 C1696 0.930 . S
H1716 C1698 0.932 . S
H1717 C1699 0.929 . S
H1718 C1700 0.928 . S
H1719 C1702 0.932 . S
C1720 C1721 1.264 . S
C1720 C1725 1.479 1_565 S
C1720 C1730 1.465 . S
C1721 C1720 1.264 . S
C1721 C1723 1.339 . S
C1721 H1748 0.931 . S
C1722 C1723 1.395 1_545 S
C1722 C1724 1.320 . S
C1723 C1721 1.339 . S
C1723 C1722 1.395 1_565 S
C1723 H1749 0.929 . S
C1724 C1722 1.320 . S
C1724 C1725 1.405 . S
C1724 H1750 0.930 . S
C1725 C1720 1.479 1_545 S
C1725 C1724 1.405 . S
C1725 H1751 0.931 . S
U1726 O1727 2.454 . S
U1726 O1728 2.458 . S
U1726 C1729 2.984 . S
U1726 C1730 2.847 . S
U1726 C1743 2.882 . S
U1726 O1744 2.441 . S
U1726 O1745 2.420 . S
U1726 O1746 2.455 . S
U1726 O1747 2.449 . S
O1727 U1726 2.454 . S
O1727 C1729 1.353 . S
O1728 U1726 2.458 . S
O1728 C1729 1.286 . S
C1729 U1726 2.984 . S
C1729 O1727 1.353 . S
C1729 O1728 1.286 . S
C1729 C1731 1.363 . S
C1730 C1720 1.465 . S
C1730 U1726 2.847 . S
C1730 O1744 1.249 . S
C1730 O1745 1.202 . S
C1731 C1729 1.363 . S
C1731 C1733 1.408 . S
C1731 C1736 1.342 . S
C1732 C1733 1.310 . S
C1732 C1735 1.461 . S
C1732 H1752 0.932 . S
C1733 C1731 1.408 . S
C1733 C1732 1.310 . S
C1733 H1753 0.930 . S
C1734 C1735 1.474 . S
C1734 C1736 1.285 . S
C1734 H1754 0.929 . S
C1735 C1732 1.461 . S
C1735 C1734 1.474 . S
C1736 C1731 1.342 . S
C1736 C1734 1.285 . S
C1736 H1755 0.930 . S
C1737 C1740 1.424 . S
C1737 C1742 1.245 . S
C1737 C1743 1.428 . S
C1738 C1741 1.260 . S
C1738 C1742 1.477 . S
C1738 H1756 0.932 . S
C1739 C1740 1.384 . S
C1739 C1741 1.479 . S
C1739 H1757 0.929 . S
C1740 C1737 1.424 . S
C1740 C1739 1.384 . S
C1740 H1758 0.928 . S
C1741 C1738 1.260 . S
C1741 C1739 1.479 . S
C1742 C1737 1.245 . S
C1742 C1738 1.477 . S
C1742 H1759 0.932 . S
C1743 U1726 2.882 . S
C1743 C1737 1.428 . S
C1743 O1746 1.301 . S
C1743 O1747 1.282 . S
O1744 U1726 2.441 . S
O1744 C1730 1.249 . S
O1745 U1726 2.420 . S
O1745 C1730 1.202 . S
O1746 U1726 2.455 . S
O1746 C1743 1.301 . S
O1747 U1726 2.449 . S
O1747 C1743 1.282 . S
H1748 C1721 0.931 . S
H1749 C1723 0.929 . S
H1750 C1724 0.930 . S
H1751 C1725 0.931 . S
H1752 C1732 0.932 . S
H1753 C1733 0.930 . S
H1754 C1734 0.929 . S
H1755 C1736 0.930 . S
H1756 C1738 0.932 . S
H1757 C1739 0.929 . S
H1758 C1740 0.928 . S
H1759 C1742 0.932 . S
C1760 C1761 1.264 . S
C1760 C1765 1.479 . S
C1760 C1770 1.465 . S
C1761 C1760 1.264 . S
C1761 C1763 1.339 . S
C1761 H1788 0.931 . S
C1762 C1763 1.395 . S
C1762 C1764 1.320 . S
C1763 C1761 1.339 . S
C1763 C1762 1.395 . S
C1763 H1789 0.929 . S
C1764 C1762 1.320 . S
C1764 C1765 1.405 . S
C1764 H1790 0.930 . S
C1765 C1760 1.479 . S
C1765 C1764 1.405 . S
C1765 H1791 0.931 . S
U1766 O1767 2.454 . S
U1766 O1768 2.458 . S
U1766 C1769 2.984 . S
U1766 C1770 2.847 . S
U1766 C1783 2.882 . S
U1766 O1784 2.441 . S
U1766 O1785 2.420 . S
U1766 O1786 2.455 . S
U1766 O1787 2.449 . S
O1767 U1766 2.454 . S
O1767 C1769 1.353 . S
O1768 U1766 2.458 . S
O1768 C1769 1.286 . S
C1769 U1766 2.984 . S
C1769 O1767 1.353 . S
C1769 O1768 1.286 . S
C1769 C1771 1.363 . S
C1770 C1760 1.465 . S
C1770 U1766 2.847 . S
C1770 O1784 1.249 . S
C1770 O1785 1.202 . S
C1771 C1769 1.363 . S
C1771 C1773 1.408 . S
C1771 C1776 1.342 . S
C1772 C1773 1.310 . S
C1772 C1775 1.461 . S
C1772 H1792 0.932 . S
C1773 C1771 1.408 . S
C1773 C1772 1.310 . S
C1773 H1793 0.930 . S
C1774 C1775 1.474 . S
C1774 C1776 1.285 . S
C1774 H1794 0.929 . S
C1775 C1772 1.461 . S
C1775 C1774 1.474 . S
C1776 C1771 1.342 . S
C1776 C1774 1.285 . S
C1776 H1795 0.930 . S
C1777 C1780 1.424 . S
C1777 C1782 1.245 . S
C1777 C1783 1.428 . S
C1778 C1781 1.260 . S
C1778 C1782 1.477 . S
C1778 H1796 0.932 . S
C1779 C1780 1.384 . S
C1779 C1781 1.479 . S
C1779 H1797 0.929 . S
C1780 C1777 1.424 . S
C1780 C1779 1.384 . S
C1780 H1798 0.928 . S
C1781 C1778 1.260 . S
C1781 C1779 1.479 . S
C1782 C1777 1.245 . S
C1782 C1778 1.477 . S
C1782 H1799 0.932 . S
C1783 U1766 2.882 . S
C1783 C1777 1.428 . S
C1783 O1786 1.301 . S
C1783 O1787 1.282 . S
O1784 U1766 2.441 . S
O1784 C1770 1.249 . S
O1785 U1766 2.420 . S
O1785 C1770 1.202 . S
O1786 U1766 2.455 . S
O1786 C1783 1.301 . S
O1787 U1766 2.449 . S
O1787 C1783 1.282 . S
H1788 C1761 0.931 . S
H1789 C1763 0.929 . S
H1790 C1764 0.930 . S
H1791 C1765 0.931 . S
H1792 C1772 0.932 . S
H1793 C1773 0.930 . S
H1794 C1774 0.929 . S
H1795 C1776 0.930 . S
H1796 C1778 0.932 . S
H1797 C1779 0.929 . S
H1798 C1780 0.928 . S
H1799 C1782 0.932 . S
C1800 C1801 1.264 . S
C1800 C1805 1.479 . S
C1800 C1810 1.465 . S
C1801 C1800 1.264 . S
C1801 C1803 1.339 . S
C1801 H1828 0.931 . S
C1802 C1803 1.395 . S
C1802 C1804 1.320 . S
C1803 C1801 1.339 . S
C1803 C1802 1.395 . S
C1803 H1829 0.929 . S
C1804 C1802 1.320 . S
C1804 C1805 1.405 . S
C1804 H1830 0.930 . S
C1805 C1800 1.479 . S
C1805 C1804 1.405 . S
C1805 H1831 0.931 . S
U1806 O1807 2.454 . S
U1806 O1808 2.458 . S
U1806 C1809 2.984 . S
U1806 C1810 2.847 . S
U1806 C1823 2.882 . S
U1806 O1824 2.441 . S
U1806 O1825 2.420 . S
U1806 O1826 2.455 . S
U1806 O1827 2.449 . S
O1807 U1806 2.454 . S
O1807 C1809 1.353 . S
O1808 U1806 2.458 . S
O1808 C1809 1.286 . S
C1809 U1806 2.984 . S
C1809 O1807 1.353 . S
C1809 O1808 1.286 . S
C1809 C1811 1.363 . S
C1810 C1800 1.465 . S
C1810 U1806 2.847 . S
C1810 O1824 1.249 . S
C1810 O1825 1.202 . S
C1811 C1809 1.363 . S
C1811 C1813 1.408 . S
C1811 C1816 1.342 . S
C1812 C1813 1.310 . S
C1812 C1815 1.461 . S
C1812 H1832 0.932 . S
C1813 C1811 1.408 . S
C1813 C1812 1.310 . S
C1813 H1833 0.930 . S
C1814 C1815 1.474 . S
C1814 C1816 1.285 . S
C1814 H1834 0.929 . S
C1815 C1812 1.461 . S
C1815 C1814 1.474 . S
C1816 C1811 1.342 . S
C1816 C1814 1.285 . S
C1816 H1835 0.930 . S
C1817 C1820 1.424 . S
C1817 C1822 1.245 . S
C1817 C1823 1.428 . S
C1818 C1821 1.258 . S
C1818 C1822 1.449 1_556 S
C1818 H1836 0.969 . S
C1819 C1820 1.384 . S
C1819 C1821 1.491 1_554 S
C1819 H1837 0.929 . S
C1820 C1817 1.424 . S
C1820 C1819 1.384 . S
C1820 H1838 0.928 . S
C1821 C1818 1.258 . S
C1821 C1819 1.491 1_556 S
C1822 C1817 1.245 . S
C1822 C1818 1.449 1_554 S
C1822 H1839 0.932 . S
C1823 U1806 2.882 . S
C1823 C1817 1.428 . S
C1823 O1826 1.301 . S
C1823 O1827 1.282 . S
O1824 U1806 2.441 . S
O1824 C1810 1.249 . S
O1825 U1806 2.420 . S
O1825 C1810 1.202 . S
O1826 U1806 2.455 . S
O1826 C1823 1.301 . S
O1827 U1806 2.449 . S
O1827 C1823 1.282 . S
H1828 C1801 0.931 . S
H1829 C1803 0.929 . S
H1830 C1804 0.930 . S
H1831 C1805 0.931 . S
H1832 C1812 0.932 . S
H1833 C1813 0.930 . S
H1834 C1814 0.929 . S
H1835 C1816 0.930 . S
H1836 C1818 0.969 . S
H1837 C1819 0.929 . S
H1838 C1820 0.928 . S
H1839 C1822 0.932 . S
C1840 C1841 1.264 . S
C1840 C1845 1.479 . S
C1840 C1850 1.465 . S
C1841 C1840 1.264 . S
C1841 C1843 1.339 . S
C1841 H1868 0.931 . S
C1842 C1843 1.395 . S
C1842 C1844 1.320 . S
C1843 C1841 1.339 . S
C1843 C1842 1.395 . S
C1843 H1869 0.929 . S
C1844 C1842 1.320 . S
C1844 C1845 1.405 . S
C1844 H1870 0.930 . S
C1845 C1840 1.479 . S
C1845 C1844 1.405 . S
C1845 H1871 0.931 . S
U1846 O1847 2.454 . S
U1846 O1848 2.458 . S
U1846 C1849 2.984 . S
U1846 C1850 2.847 . S
U1846 C1863 2.882 . S
U1846 O1864 2.441 . S
U1846 O1865 2.420 . S
U1846 O1866 2.455 . S
U1846 O1867 2.449 . S
O1847 U1846 2.454 . S
O1847 C1849 1.353 . S
O1848 U1846 2.458 . S
O1848 C1849 1.286 . S
C1849 U1846 2.984 . S
C1849 O1847 1.353 . S
C1849 O1848 1.286 . S
C1849 C1851 1.363 . S
C1850 C1840 1.465 . S
C1850 U1846 2.847 . S
C1850 O1864 1.249 . S
C1850 O1865 1.202 . S
C1851 C1849 1.363 . S
C1851 C1853 1.408 . S
C1851 C1856 1.342 . S
C1852 C1853 1.310 . S
C1852 C1855 1.461 . S
C1852 H1872 0.932 . S
C1853 C1851 1.408 . S
C1853 C1852 1.310 . S
C1853 H1873 0.930 . S
C1854 C1855 1.474 . S
C1854 C1856 1.285 . S
C1854 H1874 0.929 . S
C1855 C1852 1.461 . S
C1855 C1854 1.474 . S
C1856 C1851 1.342 . S
C1856 C1854 1.285 . S
C1856 H1875 0.930 . S
C1857 C1860 1.424 . S
C1857 C1862 1.245 . S
C1857 C1863 1.428 . S
C1858 C1861 1.260 . S
C1858 C1862 1.477 . S
C1858 H1876 0.932 1_554 S
C1859 C1860 1.384 . S
C1859 C1861 1.479 . S
C1859 H1877 0.929 . S
C1860 C1857 1.424 . S
C1860 C1859 1.384 . S
C1860 H1878 0.928 . S
C1861 C1858 1.260 . S
C1861 C1859 1.479 . S
C1862 C1857 1.245 . S
C1862 C1858 1.477 . S
C1862 H1879 0.932 . S
C1863 U1846 2.882 . S
C1863 C1857 1.428 . S
C1863 O1866 1.301 . S
C1863 O1867 1.282 . S
O1864 U1846 2.441 . S
O1864 C1850 1.249 . S
O1865 U1846 2.420 . S
O1865 C1850 1.202 . S
O1866 U1846 2.455 . S
O1866 C1863 1.301 . S
O1867 U1846 2.449 . S
O1867 C1863 1.282 . S
H1868 C1841 0.931 . S
H1869 C1843 0.929 . S
H1870 C1844 0.930 . S
H1871 C1845 0.931 . S
H1872 C1852 0.932 . S
H1873 C1853 0.930 . S
H1874 C1854 0.929 . S
H1875 C1856 0.930 . S
H1876 C1858 0.932 1_556 S
H1877 C1859 0.929 . S
H1878 C1860 0.928 . S
H1879 C1862 0.932 . S
C1880 C1881 1.264 . S
C1880 C1885 1.479 . S
C1880 C1890 1.465 . S
C1881 C1880 1.264 . S
C1881 C1883 1.339 . S
C1881 H1908 0.931 . S
C1882 C1883 1.395 . S
C1882 C1884 1.320 . S
C1883 C1881 1.339 . S
C1883 C1882 1.395 . S
C1883 H1909 0.929 . S
C1884 C1882 1.320 . S
C1884 C1885 1.405 . S
C1884 H1910 0.930 . S
C1885 C1880 1.479 . S
C1885 C1884 1.405 . S
C1885 H1911 0.931 . S
U1886 O1887 2.454 . S
U1886 O1888 2.458 . S
U1886 C1889 2.984 . S
U1886 C1890 2.847 . S
U1886 C1903 2.882 . S
U1886 O1904 2.441 . S
U1886 O1905 2.420 . S
U1886 O1906 2.455 . S
U1886 O1907 2.449 . S
O1887 U1886 2.454 . S
O1887 C1889 1.353 . S
O1888 U1886 2.458 . S
O1888 C1889 1.286 . S
C1889 U1886 2.984 . S
C1889 O1887 1.353 . S
C1889 O1888 1.286 . S
C1889 C1891 1.363 . S
C1890 C1880 1.465 . S
C1890 U1886 2.847 . S
C1890 O1904 1.249 . S
C1890 O1905 1.202 . S
C1891 C1889 1.363 . S
C1891 C1893 1.408 . S
C1891 C1896 1.342 . S
C1892 C1893 1.310 . S
C1892 C1895 1.461 . S
C1892 H1912 0.932 . S
C1893 C1891 1.408 . S
C1893 C1892 1.310 . S
C1893 H1913 0.930 . S
C1894 C1895 1.474 . S
C1894 C1896 1.285 . S
C1894 H1914 0.929 . S
C1895 C1892 1.461 . S
C1895 C1894 1.474 . S
C1896 C1891 1.342 . S
C1896 C1894 1.285 . S
C1896 H1915 0.930 . S
C1897 C1900 1.424 . S
C1897 C1902 1.245 . S
C1897 C1903 1.428 . S
C1898 C1901 1.260 . S
C1898 C1902 1.477 . S
C1898 H1916 0.932 1_556 S
C1899 C1900 1.384 . S
C1899 C1901 1.479 . S
C1899 H1917 0.929 . S
C1900 C1897 1.424 . S
C1900 C1899 1.384 . S
C1900 H1918 0.928 . S
C1901 C1898 1.260 . S
C1901 C1899 1.479 . S
C1902 C1897 1.245 . S
C1902 C1898 1.477 . S
C1902 H1919 0.932 . S
C1903 U1886 2.882 . S
C1903 C1897 1.428 . S
C1903 O1906 1.301 . S
C1903 O1907 1.282 . S
O1904 U1886 2.441 . S
O1904 C1890 1.249 . S
O1905 U1886 2.420 . S
O1905 C1890 1.202 . S
O1906 U1886 2.455 . S
O1906 C1903 1.301 . S
O1907 U1886 2.449 . S
O1907 C1903 1.282 . S
H1908 C1881 0.931 . S
H1909 C1883 0.929 . S
H1910 C1884 0.930 . S
H1911 C1885 0.931 . S
H1912 C1892 0.932 . S
H1913 C1893 0.930 . S
H1914 C1894 0.929 . S
H1915 C1896 0.930 . S
H1916 C1898 0.932 1_554 S
H1917 C1899 0.929 . S
H1918 C1900 0.928 . S
H1919 C1902 0.932 . S
H1920 C1928 0.929 . S
H1921 C1930 0.930 . S
H1922 C1932 0.930 . S
H1923 C1935 0.929 . S
H1924 C1938 0.930 . S
H1925 C1940 0.960 . S
H1926 C1940 0.960 . S
H1927 C1940 0.960 . S
C1928 H1920 0.929 . S
C1928 C1929 1.377 . S
C1928 C1930 1.384 . S
C1929 C1928 1.377 . S
C1929 C1935 1.390 . S
C1930 H1921 0.930 . S
C1930 C1928 1.384 . S
C1930 C1931 1.372 . S
C1931 C1930 1.372 . S
C1931 C1932 1.400 . S
C1931 C1936 1.490 . S
C1932 H1922 0.930 . S
C1932 C1931 1.400 . S
C1932 C1935 1.386 . S
H1933 C1949 0.930 . S
H1934 C1950 0.931 . S
C1935 H1923 0.929 . S
C1935 C1929 1.390 . S
C1935 C1932 1.386 . S
C1936 C1931 1.490 . S
C1936 C1938 1.395 . S
C1936 C1939 1.403 . S
H1937 C1943 0.930 . S
C1938 H1924 0.930 . S
C1938 C1936 1.395 . S
C1938 C1941 1.403 . S
C1939 C1936 1.403 . S
C1939 C1940 1.524 . S
C1939 C1943 1.400 . S
C1940 H1925 0.960 . S
C1940 H1926 0.960 . S
C1940 H1927 0.960 . S
C1940 C1939 1.524 . S
C1941 C1938 1.403 . S
C1941 C1942 1.392 . S
C1941 C1945 1.495 . S
C1942 C1941 1.392 . S
C1942 C1943 1.385 . S
C1942 C1944 1.478 . S
C1943 H1937 0.930 . S
C1943 C1939 1.400 . S
C1943 C1942 1.385 . S
C1944 C1942 1.478 . S
C1944 C1946 1.381 . S
C1944 C1950 1.383 . S
C1945 C1941 1.495 . S
C1945 H1951 0.959 . S
C1945 H1952 0.961 . S
C1945 H1953 0.960 . S
C1946 C1944 1.381 . S
C1946 C1947 1.394 . S
C1946 H1954 0.930 . S
C1947 C1946 1.394 . S
C1947 C1948 1.383 . S
C1947 H1955 0.929 . S
C1948 C1947 1.383 . S
C1948 C1949 1.377 . S
C1949 H1933 0.930 . S
C1949 C1948 1.377 . S
C1949 C1950 1.379 . S
C1950 H1934 0.931 . S
C1950 C1944 1.383 . S
C1950 C1949 1.379 . S
H1951 C1945 0.959 . S
H1952 C1945 0.961 . S
H1953 C1945 0.960 . S
H1954 C1946 0.930 . S
H1955 C1947 0.929 . S
H1956 C1964 0.929 . S
H1957 C1966 0.930 . S
H1958 C1968 0.930 . S
H1959 C1971 0.929 . S
H1960 C1974 0.930 . S
H1961 C1976 0.960 . S
H1962 C1976 0.960 . S
H1963 C1976 0.960 . S
C1964 H1956 0.929 . S
C1964 C1965 1.377 . S
C1964 C1966 1.384 . S
C1965 C1964 1.377 . S
C1965 C1971 1.390 . S
C1966 H1957 0.930 . S
C1966 C1964 1.384 . S
C1966 C1967 1.372 . S
C1967 C1966 1.372 . S
C1967 C1968 1.400 . S
C1967 C1972 1.490 . S
C1968 H1958 0.930 . S
C1968 C1967 1.400 . S
C1968 C1971 1.386 . S
H1969 C1985 0.930 . S
H1970 C1986 0.931 . S
C1971 H1959 0.929 . S
C1971 C1965 1.390 . S
C1971 C1968 1.386 . S
C1972 C1967 1.490 . S
C1972 C1974 1.395 . S
C1972 C1975 1.403 . S
H1973 C1979 0.930 . S
C1974 H1960 0.930 . S
C1974 C1972 1.395 . S
C1974 C1977 1.403 . S
C1975 C1972 1.403 . S
C1975 C1976 1.524 . S
C1975 C1979 1.400 . S
C1976 H1961 0.960 . S
C1976 H1962 0.960 . S
C1976 H1963 0.960 . S
C1976 C1975 1.524 . S
C1977 C1974 1.403 . S
C1977 C1978 1.392 . S
C1977 C1981 1.495 . S
C1978 C1977 1.392 . S
C1978 C1979 1.385 . S
C1978 C1980 1.478 . S
C1979 H1973 0.930 . S
C1979 C1975 1.400 . S
C1979 C1978 1.385 . S
C1980 C1978 1.478 . S
C1980 C1982 1.381 . S
C1980 C1986 1.383 . S
C1981 C1977 1.495 . S
C1981 H1987 0.959 . S
C1981 H1988 0.961 . S
C1981 H1989 0.960 . S
C1982 C1980 1.381 . S
C1982 C1983 1.394 . S
C1982 H1990 0.930 . S
C1983 C1982 1.394 . S
C1983 C1984 1.383 . S
C1983 H1991 0.929 . S
C1984 C1983 1.383 . S
C1984 C1985 1.377 . S
C1985 H1969 0.930 . S
C1985 C1984 1.377 . S
C1985 C1986 1.379 . S
C1986 H1970 0.931 . S
C1986 C1980 1.383 . S
C1986 C1985 1.379 . S
H1987 C1981 0.959 . S
H1988 C1981 0.961 . S
H1989 C1981 0.960 . S
H1990 C1982 0.930 . S
H1991 C1983 0.929 . S
H1992 C2000 0.929 . S
H1993 C2002 0.930 . S
H1994 C2004 0.930 . S
H1995 C2007 0.929 . S
H1996 C2010 0.930 . S
H1997 C2012 0.960 . S
H1998 C2012 0.960 . S
H1999 C2012 0.960 . S
C2000 H1992 0.929 . S
C2000 C2001 1.377 . S
C2000 C2002 1.384 . S
C2001 C2000 1.377 . S
C2001 C2007 1.390 . S
C2002 H1993 0.930 . S
C2002 C2000 1.384 . S
C2002 C2003 1.372 . S
C2003 C2002 1.372 . S
C2003 C2004 1.400 . S
C2003 C2008 1.490 . S
C2004 H1994 0.930 . S
C2004 C2003 1.400 . S
C2004 C2007 1.386 . S
H2005 C2021 0.930 . S
H2006 C2022 0.931 . S
C2007 H1995 0.929 . S
C2007 C2001 1.390 . S
C2007 C2004 1.386 . S
C2008 C2003 1.490 . S
C2008 C2010 1.395 . S
C2008 C2011 1.403 . S
H2009 C2015 0.930 . S
C2010 H1996 0.930 . S
C2010 C2008 1.395 . S
C2010 C2013 1.403 . S
C2011 C2008 1.403 . S
C2011 C2012 1.524 . S
C2011 C2015 1.400 . S
C2012 H1997 0.960 . S
C2012 H1998 0.960 . S
C2012 H1999 0.960 . S
C2012 C2011 1.524 . S
C2013 C2010 1.403 . S
C2013 C2014 1.392 . S
C2013 C2017 1.495 . S
C2014 C2013 1.392 . S
C2014 C2015 1.385 . S
C2014 C2016 1.478 . S
C2015 H2009 0.930 . S
C2015 C2011 1.400 . S
C2015 C2014 1.385 . S
C2016 C2014 1.478 . S
C2016 C2018 1.381 . S
C2016 C2022 1.383 . S
C2017 C2013 1.495 . S
C2017 H2023 0.959 . S
C2017 H2024 0.961 . S
C2017 H2025 0.960 . S
C2018 C2016 1.381 . S
C2018 C2019 1.394 . S
C2018 H2026 0.930 . S
C2019 C2018 1.394 . S
C2019 C2020 1.383 . S
C2019 H2027 0.929 . S
C2020 C2019 1.383 . S
C2020 C2021 1.377 . S
C2021 H2005 0.930 . S
C2021 C2020 1.377 . S
C2021 C2022 1.379 . S
C2022 H2006 0.931 . S
C2022 C2016 1.383 . S
C2022 C2021 1.379 . S
H2023 C2017 0.959 . S
H2024 C2017 0.961 . S
H2025 C2017 0.960 . S
H2026 C2018 0.930 . S
H2027 C2019 0.929 . S
H2028 C2036 0.929 . S
H2029 C2038 0.930 . S
H2030 C2040 0.930 . S
H2031 C2043 0.929 . S
H2032 C2046 0.930 . S
H2033 C2048 0.960 . S
H2034 C2048 0.960 . S
H2035 C2048 0.960 . S
C2036 H2028 0.929 . S
C2036 C2037 1.377 . S
C2036 C2038 1.384 . S
C2037 C2036 1.377 . S
C2037 C2043 1.390 . S
C2038 H2029 0.930 . S
C2038 C2036 1.384 . S
C2038 C2039 1.372 . S
C2039 C2038 1.372 . S
C2039 C2040 1.400 . S
C2039 C2044 1.490 . S
C2040 H2030 0.930 . S
C2040 C2039 1.400 . S
C2040 C2043 1.386 . S
H2041 C2057 0.930 . S
H2042 C2058 0.931 . S
C2043 H2031 0.929 . S
C2043 C2037 1.390 . S
C2043 C2040 1.386 . S
C2044 C2039 1.490 . S
C2044 C2046 1.395 . S
C2044 C2047 1.403 . S
H2045 C2051 0.930 . S
C2046 H2032 0.930 . S
C2046 C2044 1.395 . S
C2046 C2049 1.403 . S
C2047 C2044 1.403 . S
C2047 C2048 1.524 . S
C2047 C2051 1.400 . S
C2048 H2033 0.960 . S
C2048 H2034 0.960 . S
C2048 H2035 0.960 . S
C2048 C2047 1.524 . S
C2049 C2046 1.403 . S
C2049 C2050 1.392 . S
C2049 C2053 1.495 . S
C2050 C2049 1.392 . S
C2050 C2051 1.385 . S
C2050 C2052 1.478 . S
C2051 H2045 0.930 . S
C2051 C2047 1.400 . S
C2051 C2050 1.385 . S
C2052 C2050 1.478 . S
C2052 C2054 1.381 . S
C2052 C2058 1.383 . S
C2053 C2049 1.495 . S
C2053 H2059 0.959 . S
C2053 H2060 0.961 . S
C2053 H2061 0.960 . S
C2054 C2052 1.381 . S
C2054 C2055 1.394 . S
C2054 H2062 0.930 . S
C2055 C2054 1.394 . S
C2055 C2056 1.383 . S
C2055 H2063 0.929 . S
C2056 C2055 1.383 . S
C2056 C2057 1.377 . S
C2057 H2041 0.930 . S
C2057 C2056 1.377 . S
C2057 C2058 1.379 . S
C2058 H2042 0.931 . S
C2058 C2052 1.383 . S
C2058 C2057 1.379 . S
H2059 C2053 0.959 . S
H2060 C2053 0.961 . S
H2061 C2053 0.960 . S
H2062 C2054 0.930 . S
H2063 C2055 0.929 . S
H2064 C2072 0.929 . S
H2065 C2074 0.930 . S
H2066 C2076 0.930 . S
H2067 C2079 0.929 . S
H2068 C2082 0.930 . S
H2069 C2084 0.960 . S
H2070 C2084 0.960 . S
H2071 C2084 0.960 . S
C2072 H2064 0.929 . S
C2072 C2073 1.377 . S
C2072 C2074 1.384 . S
C2073 C2072 1.377 . S
C2073 C2079 1.390 . S
C2074 H2065 0.930 . S
C2074 C2072 1.384 . S
C2074 C2075 1.372 . S
C2075 C2074 1.372 . S
C2075 C2076 1.400 . S
C2075 C2080 1.490 . S
C2076 H2066 0.930 . S
C2076 C2075 1.400 . S
C2076 C2079 1.386 . S
H2077 C2093 0.930 . S
H2078 C2094 0.931 . S
C2079 H2067 0.929 . S
C2079 C2073 1.390 . S
C2079 C2076 1.386 . S
C2080 C2075 1.490 . S
C2080 C2082 1.395 . S
C2080 C2083 1.403 . S
H2081 C2087 0.930 . S
C2082 H2068 0.930 . S
C2082 C2080 1.395 . S
C2082 C2085 1.403 . S
C2083 C2080 1.403 . S
C2083 C2084 1.524 . S
C2083 C2087 1.400 . S
C2084 H2069 0.960 . S
C2084 H2070 0.960 . S
C2084 H2071 0.960 . S
C2084 C2083 1.524 . S
C2085 C2082 1.403 . S
C2085 C2086 1.392 . S
C2085 C2089 1.495 . S
C2086 C2085 1.392 . S
C2086 C2087 1.385 . S
C2086 C2088 1.478 . S
C2087 H2081 0.930 . S
C2087 C2083 1.400 . S
C2087 C2086 1.385 . S
C2088 C2086 1.478 . S
C2088 C2090 1.381 . S
C2088 C2094 1.383 . S
C2089 C2085 1.495 . S
C2089 H2095 0.959 . S
C2089 H2096 0.961 . S
C2089 H2097 0.960 . S
C2090 C2088 1.381 . S
C2090 C2091 1.394 . S
C2090 H2098 0.930 . S
C2091 C2090 1.394 . S
C2091 C2092 1.383 . S
C2091 H2099 0.929 . S
C2092 C2091 1.383 . S
C2092 C2093 1.377 . S
C2093 H2077 0.930 . S
C2093 C2092 1.377 . S
C2093 C2094 1.379 . S
C2094 H2078 0.931 . S
C2094 C2088 1.383 . S
C2094 C2093 1.379 . S
H2095 C2089 0.959 . S
H2096 C2089 0.961 . S
H2097 C2089 0.960 . S
H2098 C2090 0.930 . S
H2099 C2091 0.929 . S
H2100 C2108 0.929 . S
H2101 C2110 0.930 . S
H2102 C2112 0.930 . S
H2103 C2115 0.929 . S
H2104 C2118 0.930 . S
H2105 C2120 0.960 . S
H2106 C2120 0.960 . S
H2107 C2120 0.960 . S
C2108 H2100 0.929 . S
C2108 C2109 1.377 . S
C2108 C2110 1.384 . S
C2109 C2108 1.377 . S
C2109 C2115 1.390 . S
C2110 H2101 0.930 . S
C2110 C2108 1.384 . S
C2110 C2111 1.372 . S
C2111 C2110 1.372 . S
C2111 C2112 1.400 . S
C2111 C2116 1.490 . S
C2112 H2102 0.930 . S
C2112 C2111 1.400 . S
C2112 C2115 1.386 . S
H2113 C2129 0.930 . S
H2114 C2130 0.931 . S
C2115 H2103 0.929 . S
C2115 C2109 1.390 . S
C2115 C2112 1.386 . S
C2116 C2111 1.490 . S
C2116 C2118 1.395 . S
C2116 C2119 1.403 . S
H2117 C2123 0.930 . S
C2118 H2104 0.930 . S
C2118 C2116 1.395 . S
C2118 C2121 1.403 . S
C2119 C2116 1.403 . S
C2119 C2120 1.524 . S
C2119 C2123 1.400 . S
C2120 H2105 0.960 . S
C2120 H2106 0.960 . S
C2120 H2107 0.960 . S
C2120 C2119 1.524 . S
C2121 C2118 1.403 . S
C2121 C2122 1.392 . S
C2121 C2125 1.495 . S
C2122 C2121 1.392 . S
C2122 C2123 1.385 . S
C2122 C2124 1.478 . S
C2123 H2117 0.930 . S
C2123 C2119 1.400 . S
C2123 C2122 1.385 . S
C2124 C2122 1.478 . S
C2124 C2126 1.381 . S
C2124 C2130 1.383 . S
C2125 C2121 1.495 . S
C2125 H2131 0.959 . S
C2125 H2132 0.961 . S
C2125 H2133 0.960 . S
C2126 C2124 1.381 . S
C2126 C2127 1.394 . S
C2126 H2134 0.930 . S
C2127 C2126 1.394 . S
C2127 C2128 1.383 . S
C2127 H2135 0.929 . S
C2128 C2127 1.383 . S
C2128 C2129 1.377 . S
C2129 H2113 0.930 . S
C2129 C2128 1.377 . S
C2129 C2130 1.379 . S
C2130 H2114 0.931 . S
C2130 C2124 1.383 . S
C2130 C2129 1.379 . S
H2131 C2125 0.959 . S
H2132 C2125 0.961 . S
H2133 C2125 0.960 . S
H2134 C2126 0.930 . S
H2135 C2127 0.929 . S
H2136 C2144 0.929 . S
H2137 C2146 0.930 . S
H2138 C2148 0.930 . S
H2139 C2151 0.929 . S
H2140 C2154 0.930 . S
H2141 C2156 0.960 . S
H2142 C2156 0.960 . S
H2143 C2156 0.960 . S
C2144 H2136 0.929 . S
C2144 C2145 1.377 . S
C2144 C2146 1.384 . S
C2145 C2144 1.377 . S
C2145 C2151 1.390 . S
C2146 H2137 0.930 . S
C2146 C2144 1.384 . S
C2146 C2147 1.372 . S
C2147 C2146 1.372 . S
C2147 C2148 1.400 . S
C2147 C2152 1.490 . S
C2148 H2138 0.930 . S
C2148 C2147 1.400 . S
C2148 C2151 1.386 . S
H2149 C2165 0.930 . S
H2150 C2166 0.931 . S
C2151 H2139 0.929 . S
C2151 C2145 1.390 . S
C2151 C2148 1.386 . S
C2152 C2147 1.490 . S
C2152 C2154 1.395 . S
C2152 C2155 1.403 . S
H2153 C2159 0.930 . S
C2154 H2140 0.930 . S
C2154 C2152 1.395 . S
C2154 C2157 1.403 . S
C2155 C2152 1.403 . S
C2155 C2156 1.524 . S
C2155 C2159 1.400 . S
C2156 H2141 0.960 . S
C2156 H2142 0.960 . S
C2156 H2143 0.960 . S
C2156 C2155 1.524 . S
C2157 C2154 1.403 . S
C2157 C2158 1.392 . S
C2157 C2161 1.495 . S
C2158 C2157 1.392 . S
C2158 C2159 1.385 . S
C2158 C2160 1.478 . S
C2159 H2153 0.930 . S
C2159 C2155 1.400 . S
C2159 C2158 1.385 . S
C2160 C2158 1.478 . S
C2160 C2162 1.381 . S
C2160 C2166 1.383 . S
C2161 C2157 1.495 . S
C2161 H2167 0.959 . S
C2161 H2168 0.961 . S
C2161 H2169 0.960 . S
C2162 C2160 1.381 . S
C2162 C2163 1.394 . S
C2162 H2170 0.930 . S
C2163 C2162 1.394 . S
C2163 C2164 1.383 . S
C2163 H2171 0.929 . S
C2164 C2163 1.383 . S
C2164 C2165 1.377 . S
C2165 H2149 0.930 . S
C2165 C2164 1.377 . S
C2165 C2166 1.379 . S
C2166 H2150 0.931 . S
C2166 C2160 1.383 . S
C2166 C2165 1.379 . S
H2167 C2161 0.959 . S
H2168 C2161 0.961 . S
H2169 C2161 0.960 . S
H2170 C2162 0.930 . S
H2171 C2163 0.929 . S
H2172 C2180 0.929 . S
H2173 C2182 0.930 . S
H2174 C2184 0.930 . S
H2175 C2187 0.929 . S
H2176 C2190 0.930 . S
H2177 C2192 0.960 . S
H2178 C2192 0.960 . S
H2179 C2192 0.960 . S
C2180 H2172 0.929 . S
C2180 C2181 1.377 . S
C2180 C2182 1.384 . S
C2181 C2180 1.377 . S
C2181 C2187 1.390 . S
C2182 H2173 0.930 . S
C2182 C2180 1.384 . S
C2182 C2183 1.372 . S
C2183 C2182 1.372 . S
C2183 C2184 1.400 . S
C2183 C2188 1.490 . S
C2184 H2174 0.930 . S
C2184 C2183 1.400 . S
C2184 C2187 1.386 . S
H2185 C2201 0.930 . S
H2186 C2202 0.931 . S
C2187 H2175 0.929 . S
C2187 C2181 1.390 . S
C2187 C2184 1.386 . S
C2188 C2183 1.490 . S
C2188 C2190 1.395 . S
C2188 C2191 1.403 . S
H2189 C2195 0.930 . S
C2190 H2176 0.930 . S
C2190 C2188 1.395 . S
C2190 C2193 1.403 . S
C2191 C2188 1.403 . S
C2191 C2192 1.524 . S
C2191 C2195 1.400 . S
C2192 H2177 0.960 . S
C2192 H2178 0.960 . S
C2192 H2179 0.960 . S
C2192 C2191 1.524 . S
C2193 C2190 1.403 . S
C2193 C2194 1.392 . S
C2193 C2197 1.495 . S
C2194 C2193 1.392 . S
C2194 C2195 1.385 . S
C2194 C2196 1.478 . S
C2195 H2189 0.930 . S
C2195 C2191 1.400 . S
C2195 C2194 1.385 . S
C2196 C2194 1.478 . S
C2196 C2198 1.381 . S
C2196 C2202 1.383 . S
C2197 C2193 1.495 . S
C2197 H2203 0.959 . S
C2197 H2204 0.961 . S
C2197 H2205 0.960 . S
C2198 C2196 1.381 . S
C2198 C2199 1.394 . S
C2198 H2206 0.930 . S
C2199 C2198 1.394 . S
C2199 C2200 1.383 . S
C2199 H2207 0.929 . S
C2200 C2199 1.383 . S
C2200 C2201 1.377 . S
C2201 H2185 0.930 . S
C2201 C2200 1.377 . S
C2201 C2202 1.379 . S
C2202 H2186 0.931 . S
C2202 C2196 1.383 . S
C2202 C2201 1.379 . S
H2203 C2197 0.959 . S
H2204 C2197 0.961 . S
H2205 C2197 0.960 . S
H2206 C2198 0.930 . S
H2207 C2199 0.929 . S
H2208 C2216 0.929 . S
H2209 C2218 0.930 . S
H2210 C2220 0.930 . S
H2211 C2223 0.929 . S
H2212 C2226 0.930 . S
H2213 C2228 0.960 . S
H2214 C2228 0.960 . S
H2215 C2228 0.960 . S
C2216 H2208 0.929 . S
C2216 C2217 1.377 . S
C2216 C2218 1.384 . S
C2217 C2216 1.377 . S
C2217 C2223 1.390 . S
C2218 H2209 0.930 . S
C2218 C2216 1.384 . S
C2218 C2219 1.372 . S
C2219 C2218 1.372 . S
C2219 C2220 1.400 . S
C2219 C2224 1.490 . S
C2220 H2210 0.930 . S
C2220 C2219 1.400 . S
C2220 C2223 1.386 . S
H2221 C2237 0.930 . S
H2222 C2238 0.931 . S
C2223 H2211 0.929 . S
C2223 C2217 1.390 . S
C2223 C2220 1.386 . S
C2224 C2219 1.490 . S
C2224 C2226 1.395 . S
C2224 C2227 1.403 . S
H2225 C2231 0.930 . S
C2226 H2212 0.930 . S
C2226 C2224 1.395 . S
C2226 C2229 1.403 . S
C2227 C2224 1.403 . S
C2227 C2228 1.524 . S
C2227 C2231 1.400 . S
C2228 H2213 0.960 . S
C2228 H2214 0.960 . S
C2228 H2215 0.960 . S
C2228 C2227 1.524 . S
C2229 C2226 1.403 . S
C2229 C2230 1.392 . S
C2229 C2233 1.495 . S
C2230 C2229 1.392 . S
C2230 C2231 1.385 . S
C2230 C2232 1.478 . S
C2231 H2225 0.930 . S
C2231 C2227 1.400 . S
C2231 C2230 1.385 . S
C2232 C2230 1.478 . S
C2232 C2234 1.381 . S
C2232 C2238 1.383 . S
C2233 C2229 1.495 . S
C2233 H2239 0.959 . S
C2233 H2240 0.961 . S
C2233 H2241 0.960 . S
C2234 C2232 1.381 . S
C2234 C2235 1.394 . S
C2234 H2242 0.930 . S
C2235 C2234 1.394 . S
C2235 C2236 1.383 . S
C2235 H2243 0.929 . S
C2236 C2235 1.383 . S
C2236 C2237 1.377 . S
C2237 H2221 0.930 . S
C2237 C2236 1.377 . S
C2237 C2238 1.379 . S
C2238 H2222 0.931 . S
C2238 C2232 1.383 . S
C2238 C2237 1.379 . S
H2239 C2233 0.959 . S
H2240 C2233 0.961 . S
H2241 C2233 0.960 . S
H2242 C2234 0.930 . S
H2243 C2235 0.929 . S
H2244 C2252 0.929 . S
H2245 C2254 0.930 . S
H2246 C2256 0.930 . S
H2247 C2259 0.929 . S
H2248 C2262 0.930 . S
H2249 C2264 0.960 . S
H2250 C2264 0.960 . S
H2251 C2264 0.960 . S
C2252 H2244 0.929 . S
C2252 C2253 1.377 . S
C2252 C2254 1.384 . S
C2253 C2252 1.377 . S
C2253 C2259 1.390 . S
C2254 H2245 0.930 . S
C2254 C2252 1.384 . S
C2254 C2255 1.372 . S
C2255 C2254 1.372 . S
C2255 C2256 1.400 . S
C2255 C2260 1.490 . S
C2256 H2246 0.930 . S
C2256 C2255 1.400 . S
C2256 C2259 1.386 . S
H2257 C2273 0.930 . S
H2258 C2274 0.931 . S
C2259 H2247 0.929 . S
C2259 C2253 1.390 . S
C2259 C2256 1.386 . S
C2260 C2255 1.490 . S
C2260 C2262 1.395 . S
C2260 C2263 1.403 . S
H2261 C2267 0.930 . S
C2262 H2248 0.930 . S
C2262 C2260 1.395 . S
C2262 C2265 1.403 . S
C2263 C2260 1.403 . S
C2263 C2264 1.524 . S
C2263 C2267 1.400 . S
C2264 H2249 0.960 . S
C2264 H2250 0.960 . S
C2264 H2251 0.960 . S
C2264 C2263 1.524 . S
C2265 C2262 1.403 . S
C2265 C2266 1.392 . S
C2265 C2269 1.495 . S
C2266 C2265 1.392 . S
C2266 C2267 1.385 . S
C2266 C2268 1.478 . S
C2267 H2261 0.930 . S
C2267 C2263 1.400 . S
C2267 C2266 1.385 . S
C2268 C2266 1.478 . S
C2268 C2270 1.381 . S
C2268 C2274 1.383 . S
C2269 C2265 1.495 . S
C2269 H2275 0.959 . S
C2269 H2276 0.961 . S
C2269 H2277 0.960 . S
C2270 C2268 1.381 . S
C2270 C2271 1.394 . S
C2270 H2278 0.930 . S
C2271 C2270 1.394 . S
C2271 C2272 1.383 . S
C2271 H2279 0.929 . S
C2272 C2271 1.383 . S
C2272 C2273 1.377 . S
C2273 H2257 0.930 . S
C2273 C2272 1.377 . S
C2273 C2274 1.379 . S
C2274 H2258 0.931 . S
C2274 C2268 1.383 . S
C2274 C2273 1.379 . S
H2275 C2269 0.959 . S
H2276 C2269 0.961 . S
H2277 C2269 0.960 . S
H2278 C2270 0.930 . S
H2279 C2271 0.929 . S
H2280 C2288 0.929 . S
H2281 C2290 0.930 . S
H2282 C2292 0.930 . S
H2283 C2295 0.929 . S
H2284 C2298 0.930 . S
H2285 C2300 0.960 . S
H2286 C2300 0.960 . S
H2287 C2300 0.960 . S
C2288 H2280 0.929 . S
C2288 C2289 1.377 . S
C2288 C2290 1.384 . S
C2289 C2288 1.377 . S
C2289 C2295 1.390 . S
C2290 H2281 0.930 . S
C2290 C2288 1.384 . S
C2290 C2291 1.372 . S
C2291 C2290 1.372 . S
C2291 C2292 1.400 . S
C2291 C2296 1.490 . S
C2292 H2282 0.930 . S
C2292 C2291 1.400 . S
C2292 C2295 1.386 . S
H2293 C2309 0.930 . S
H2294 C2310 0.931 . S
C2295 H2283 0.929 . S
C2295 C2289 1.390 . S
C2295 C2292 1.386 . S
C2296 C2291 1.490 . S
C2296 C2298 1.395 . S
C2296 C2299 1.403 . S
H2297 C2303 0.930 . S
C2298 H2284 0.930 . S
C2298 C2296 1.395 . S
C2298 C2301 1.403 . S
C2299 C2296 1.403 . S
C2299 C2300 1.524 . S
C2299 C2303 1.400 . S
C2300 H2285 0.960 . S
C2300 H2286 0.960 . S
C2300 H2287 0.960 . S
C2300 C2299 1.524 . S
C2301 C2298 1.403 . S
C2301 C2302 1.392 . S
C2301 C2305 1.495 . S
C2302 C2301 1.392 . S
C2302 C2303 1.385 . S
C2302 C2304 1.478 . S
C2303 H2297 0.930 . S
C2303 C2299 1.400 . S
C2303 C2302 1.385 . S
C2304 C2302 1.478 . S
C2304 C2306 1.381 . S
C2304 C2310 1.383 . S
C2305 C2301 1.495 . S
C2305 H2311 0.959 . S
C2305 H2312 0.961 . S
C2305 H2313 0.960 . S
C2306 C2304 1.381 . S
C2306 C2307 1.394 . S
C2306 H2314 0.930 . S
C2307 C2306 1.394 . S
C2307 C2308 1.383 . S
C2307 H2315 0.929 . S
C2308 C2307 1.383 . S
C2308 C2309 1.377 . S
C2309 H2293 0.930 . S
C2309 C2308 1.377 . S
C2309 C2310 1.379 . S
C2310 H2294 0.931 . S
C2310 C2304 1.383 . S
C2310 C2309 1.379 . S
H2311 C2305 0.959 . S
H2312 C2305 0.961 . S
H2313 C2305 0.960 . S
H2314 C2306 0.930 . S
H2315 C2307 0.929 . S
H2316 C2324 0.929 . S
H2317 C2326 0.930 . S
H2318 C2328 0.930 . S
H2319 C2331 0.929 . S
H2320 C2334 0.930 . S
H2321 C2336 0.960 . S
H2322 C2336 0.960 . S
H2323 C2336 0.960 . S
C2324 H2316 0.929 . S
C2324 C2325 1.377 . S
C2324 C2326 1.384 . S
C2325 C2324 1.377 . S
C2325 C2331 1.390 . S
C2326 H2317 0.930 . S
C2326 C2324 1.384 . S
C2326 C2327 1.372 . S
C2327 C2326 1.372 . S
C2327 C2328 1.400 . S
C2327 C2332 1.490 . S
C2328 H2318 0.930 . S
C2328 C2327 1.400 . S
C2328 C2331 1.386 . S
H2329 C2345 0.930 . S
H2330 C2346 0.931 . S
C2331 H2319 0.929 . S
C2331 C2325 1.390 . S
C2331 C2328 1.386 . S
C2332 C2327 1.490 . S
C2332 C2334 1.395 . S
C2332 C2335 1.403 . S
H2333 C2339 0.930 . S
C2334 H2320 0.930 . S
C2334 C2332 1.395 . S
C2334 C2337 1.403 . S
C2335 C2332 1.403 . S
C2335 C2336 1.524 . S
C2335 C2339 1.400 . S
C2336 H2321 0.960 . S
C2336 H2322 0.960 . S
C2336 H2323 0.960 . S
C2336 C2335 1.524 . S
C2337 C2334 1.403 . S
C2337 C2338 1.392 . S
C2337 C2341 1.495 . S
C2338 C2337 1.392 . S
C2338 C2339 1.385 . S
C2338 C2340 1.478 . S
C2339 H2333 0.930 . S
C2339 C2335 1.400 . S
C2339 C2338 1.385 . S
C2340 C2338 1.478 . S
C2340 C2342 1.381 . S
C2340 C2346 1.383 . S
C2341 C2337 1.495 . S
C2341 H2347 0.959 . S
C2341 H2348 0.961 . S
C2341 H2349 0.960 . S
C2342 C2340 1.381 . S
C2342 C2343 1.394 . S
C2342 H2350 0.930 . S
C2343 C2342 1.394 . S
C2343 C2344 1.383 . S
C2343 H2351 0.929 . S
C2344 C2343 1.383 . S
C2344 C2345 1.377 . S
C2345 H2329 0.930 . S
C2345 C2344 1.377 . S
C2345 C2346 1.379 . S
C2346 H2330 0.931 . S
C2346 C2340 1.383 . S
C2346 C2345 1.379 . S
H2347 C2341 0.959 . S
H2348 C2341 0.961 . S
H2349 C2341 0.960 . S
H2350 C2342 0.930 . S
H2351 C2343 0.929 . S
H2352 C2360 0.929 . S
H2353 C2362 0.930 . S
H2354 C2364 0.930 . S
H2355 C2367 0.929 . S
H2356 C2370 0.930 . S
H2357 C2372 0.960 . S
H2358 C2372 0.960 . S
H2359 C2372 0.960 . S
C2360 H2352 0.929 . S
C2360 C2361 1.377 . S
C2360 C2362 1.384 . S
C2361 C2360 1.377 . S
C2361 C2367 1.390 . S
C2362 H2353 0.930 . S
C2362 C2360 1.384 . S
C2362 C2363 1.372 . S
C2363 C2362 1.372 . S
C2363 C2364 1.400 . S
C2363 C2368 1.490 . S
C2364 H2354 0.930 . S
C2364 C2363 1.400 . S
C2364 C2367 1.386 . S
H2365 C2381 0.930 . S
H2366 C2382 0.931 . S
C2367 H2355 0.929 . S
C2367 C2361 1.390 . S
C2367 C2364 1.386 . S
C2368 C2363 1.490 . S
C2368 C2370 1.395 . S
C2368 C2371 1.403 . S
H2369 C2375 0.930 . S
C2370 H2356 0.930 . S
C2370 C2368 1.395 . S
C2370 C2373 1.403 . S
C2371 C2368 1.403 . S
C2371 C2372 1.524 . S
C2371 C2375 1.400 . S
C2372 H2357 0.960 . S
C2372 H2358 0.960 . S
C2372 H2359 0.960 . S
C2372 C2371 1.524 . S
C2373 C2370 1.403 . S
C2373 C2374 1.392 . S
C2373 C2377 1.495 . S
C2374 C2373 1.392 . S
C2374 C2375 1.385 . S
C2374 C2376 1.478 . S
C2375 H2369 0.930 . S
C2375 C2371 1.400 . S
C2375 C2374 1.385 . S
C2376 C2374 1.478 . S
C2376 C2378 1.381 . S
C2376 C2382 1.383 . S
C2377 C2373 1.495 . S
C2377 H2383 0.959 . S
C2377 H2384 0.961 . S
C2377 H2385 0.960 . S
C2378 C2376 1.381 . S
C2378 C2379 1.394 . S
C2378 H2386 0.930 . S
C2379 C2378 1.394 . S
C2379 C2380 1.383 . S
C2379 H2387 0.929 . S
C2380 C2379 1.383 . S
C2380 C2381 1.377 . S
C2381 H2365 0.930 . S
C2381 C2380 1.377 . S
C2381 C2382 1.379 . S
C2382 H2366 0.931 . S
C2382 C2376 1.383 . S
C2382 C2381 1.379 . S
H2383 C2377 0.959 . S
H2384 C2377 0.961 . S
H2385 C2377 0.960 . S
H2386 C2378 0.930 . S
H2387 C2379 0.929 . S
H2388 C2396 0.929 . S
H2389 C2398 0.930 . S
H2390 C2400 0.930 . S
H2391 C2403 0.929 . S
H2392 C2406 0.930 . S
H2393 C2408 0.960 . S
H2394 C2408 0.960 . S
H2395 C2408 0.960 . S
C2396 H2388 0.929 . S
C2396 C2397 1.377 . S
C2396 C2398 1.384 . S
C2397 C2396 1.377 . S
C2397 C2403 1.390 . S
C2398 H2389 0.930 . S
C2398 C2396 1.384 . S
C2398 C2399 1.372 . S
C2399 C2398 1.372 . S
C2399 C2400 1.400 . S
C2399 C2404 1.490 . S
C2400 H2390 0.930 . S
C2400 C2399 1.400 . S
C2400 C2403 1.386 . S
H2401 C2417 0.930 . S
H2402 C2418 0.931 . S
C2403 H2391 0.929 . S
C2403 C2397 1.390 . S
C2403 C2400 1.386 . S
C2404 C2399 1.490 . S
C2404 C2406 1.395 . S
C2404 C2407 1.403 . S
H2405 C2411 0.930 . S
C2406 H2392 0.930 . S
C2406 C2404 1.395 . S
C2406 C2409 1.403 . S
C2407 C2404 1.403 . S
C2407 C2408 1.524 . S
C2407 C2411 1.400 . S
C2408 H2393 0.960 . S
C2408 H2394 0.960 . S
C2408 H2395 0.960 . S
C2408 C2407 1.524 . S
C2409 C2406 1.403 . S
C2409 C2410 1.392 . S
C2409 C2413 1.495 . S
C2410 C2409 1.392 . S
C2410 C2411 1.385 . S
C2410 C2412 1.478 . S
C2411 H2405 0.930 . S
C2411 C2407 1.400 . S
C2411 C2410 1.385 . S
C2412 C2410 1.478 . S
C2412 C2414 1.381 . S
C2412 C2418 1.383 . S
C2413 C2409 1.495 . S
C2413 H2419 0.959 . S
C2413 H2420 0.961 . S
C2413 H2421 0.960 . S
C2414 C2412 1.381 . S
C2414 C2415 1.394 . S
C2414 H2422 0.930 . S
C2415 C2414 1.394 . S
C2415 C2416 1.383 . S
C2415 H2423 0.929 . S
C2416 C2415 1.383 . S
C2416 C2417 1.377 . S
C2417 H2401 0.930 . S
C2417 C2416 1.377 . S
C2417 C2418 1.379 . S
C2418 H2402 0.931 . S
C2418 C2412 1.383 . S
C2418 C2417 1.379 . S
H2419 C2413 0.959 . S
H2420 C2413 0.961 . S
H2421 C2413 0.960 . S
H2422 C2414 0.930 . S
H2423 C2415 0.929 . S
H2424 C2432 0.929 . S
H2425 C2434 0.930 . S
H2426 C2436 0.930 . S
H2427 C2439 0.929 . S
H2428 C2442 0.930 . S
H2429 C2444 0.960 . S
H2430 C2444 0.960 . S
H2431 C2444 0.960 . S
C2432 H2424 0.929 . S
C2432 C2433 1.377 . S
C2432 C2434 1.384 . S
C2433 C2432 1.377 . S
C2433 C2439 1.390 . S
C2434 H2425 0.930 . S
C2434 C2432 1.384 . S
C2434 C2435 1.372 . S
C2435 C2434 1.372 . S
C2435 C2436 1.400 . S
C2435 C2440 1.490 . S
C2436 H2426 0.930 . S
C2436 C2435 1.400 . S
C2436 C2439 1.386 . S
H2437 C2453 0.930 . S
H2438 C2454 0.931 . S
C2439 H2427 0.929 . S
C2439 C2433 1.390 . S
C2439 C2436 1.386 . S
C2440 C2435 1.490 . S
C2440 C2442 1.395 . S
C2440 C2443 1.403 . S
H2441 C2447 0.930 . S
C2442 H2428 0.930 . S
C2442 C2440 1.395 . S
C2442 C2445 1.403 . S
C2443 C2440 1.403 . S
C2443 C2444 1.524 . S
C2443 C2447 1.400 . S
C2444 H2429 0.960 . S
C2444 H2430 0.960 . S
C2444 H2431 0.960 . S
C2444 C2443 1.524 . S
C2445 C2442 1.403 . S
C2445 C2446 1.392 . S
C2445 C2449 1.495 . S
C2446 C2445 1.392 . S
C2446 C2447 1.385 . S
C2446 C2448 1.478 . S
C2447 H2441 0.930 . S
C2447 C2443 1.400 . S
C2447 C2446 1.385 . S
C2448 C2446 1.478 . S
C2448 C2450 1.381 . S
C2448 C2454 1.383 . S
C2449 C2445 1.495 . S
C2449 H2455 0.959 . S
C2449 H2456 0.961 . S
C2449 H2457 0.960 . S
C2450 C2448 1.381 . S
C2450 C2451 1.394 . S
C2450 H2458 0.930 . S
C2451 C2450 1.394 . S
C2451 C2452 1.383 . S
C2451 H2459 0.927 . S
C2452 C2451 1.383 . S
C2452 C2453 1.377 . S
C2453 H2437 0.930 . S
C2453 C2452 1.377 . S
C2453 C2454 1.379 . S
C2454 H2438 0.931 . S
C2454 C2448 1.383 . S
C2454 C2453 1.379 . S
H2455 C2449 0.959 . S
H2456 C2449 0.961 . S
H2457 C2449 0.960 . S
H2458 C2450 0.930 . S
H2459 C2451 0.927 . S
H2460 C2468 0.929 . S
H2461 C2470 0.930 . S
H2462 C2472 0.930 . S
H2463 C2475 0.929 . S
H2464 C2478 0.930 . S
H2465 C2480 0.960 . S
H2466 C2480 0.960 . S
H2467 C2480 0.960 . S
C2468 H2460 0.929 . S
C2468 C2469 1.377 . S
C2468 C2470 1.384 . S
C2469 C2468 1.377 . S
C2469 C2475 1.390 . S
C2470 H2461 0.930 . S
C2470 C2468 1.384 . S
C2470 C2471 1.372 . S
C2471 C2470 1.372 . S
C2471 C2472 1.400 . S
C2471 C2476 1.490 . S
C2472 H2462 0.930 . S
C2472 C2471 1.400 . S
C2472 C2475 1.386 . S
H2473 C2489 0.930 . S
H2474 C2490 0.931 . S
C2475 H2463 0.929 . S
C2475 C2469 1.390 . S
C2475 C2472 1.386 . S
C2476 C2471 1.490 . S
C2476 C2478 1.395 . S
C2476 C2479 1.403 . S
H2477 C2483 0.930 . S
C2478 H2464 0.930 . S
C2478 C2476 1.395 . S
C2478 C2481 1.403 . S
C2479 C2476 1.403 . S
C2479 C2480 1.524 . S
C2479 C2483 1.400 . S
C2480 H2465 0.960 . S
C2480 H2466 0.960 . S
C2480 H2467 0.960 . S
C2480 C2479 1.524 . S
C2481 C2478 1.403 . S
C2481 C2482 1.392 . S
C2481 C2485 1.495 . S
C2482 C2481 1.392 . S
C2482 C2483 1.385 . S
C2482 C2484 1.478 . S
C2483 H2477 0.930 . S
C2483 C2479 1.400 . S
C2483 C2482 1.385 . S
C2484 C2482 1.478 . S
C2484 C2486 1.381 . S
C2484 C2490 1.383 . S
C2485 C2481 1.495 . S
C2485 H2491 0.959 . S
C2485 H2492 0.961 . S
C2485 H2493 0.960 . S
C2486 C2484 1.381 . S
C2486 C2487 1.394 . S
C2486 H2494 0.930 . S
C2487 C2486 1.394 . S
C2487 C2488 1.383 . S
C2487 H2495 0.929 . S
C2488 C2487 1.383 . S
C2488 C2489 1.377 . S
C2489 H2473 0.930 . S
C2489 C2488 1.377 . S
C2489 C2490 1.379 . S
C2490 H2474 0.931 . S
C2490 C2484 1.383 . S
C2490 C2489 1.379 . S
H2491 C2485 0.959 . S
H2492 C2485 0.961 . S
H2493 C2485 0.960 . S
H2494 C2486 0.930 . S
H2495 C2487 0.929 . S
H2496 C2504 0.929 . S
H2497 C2506 0.930 . S
H2498 C2508 0.930 . S
H2499 C2511 0.929 . S
H2500 C2514 0.930 . S
H2501 C2516 0.960 . S
H2502 C2516 0.960 . S
H2503 C2516 0.960 . S
C2504 H2496 0.929 . S
C2504 C2505 1.377 . S
C2504 C2506 1.384 . S
C2505 C2504 1.377 . S
C2505 C2511 1.390 . S
C2506 H2497 0.930 . S
C2506 C2504 1.384 . S
C2506 C2507 1.372 . S
C2507 C2506 1.372 . S
C2507 C2508 1.400 . S
C2507 C2512 1.490 . S
C2508 H2498 0.930 . S
C2508 C2507 1.400 . S
C2508 C2511 1.386 . S
H2509 C2525 0.930 . S
H2510 C2526 0.931 . S
C2511 H2499 0.929 . S
C2511 C2505 1.390 . S
C2511 C2508 1.386 . S
C2512 C2507 1.490 . S
C2512 C2514 1.395 . S
C2512 C2515 1.403 . S
H2513 C2519 0.930 . S
C2514 H2500 0.930 . S
C2514 C2512 1.395 . S
C2514 C2517 1.403 . S
C2515 C2512 1.403 . S
C2515 C2516 1.524 . S
C2515 C2519 1.400 . S
C2516 H2501 0.960 . S
C2516 H2502 0.960 . S
C2516 H2503 0.960 . S
C2516 C2515 1.524 . S
C2517 C2514 1.403 . S
C2517 C2518 1.392 . S
C2517 C2521 1.495 . S
C2518 C2517 1.392 . S
C2518 C2519 1.385 . S
C2518 C2520 1.478 . S
C2519 H2513 0.930 . S
C2519 C2515 1.400 . S
C2519 C2518 1.385 . S
C2520 C2518 1.478 . S
C2520 C2522 1.381 . S
C2520 C2526 1.383 . S
C2521 C2517 1.495 . S
C2521 H2527 0.959 . S
C2521 H2528 0.961 . S
C2521 H2529 0.960 . S
C2522 C2520 1.381 . S
C2522 C2523 1.394 . S
C2522 H2530 0.930 . S
C2523 C2522 1.394 . S
C2523 C2524 1.383 . S
C2523 H2531 0.929 . S
C2524 C2523 1.383 . S
C2524 C2525 1.377 . S
C2525 H2509 0.930 . S
C2525 C2524 1.377 . S
C2525 C2526 1.379 . S
C2526 H2510 0.931 . S
C2526 C2520 1.383 . S
C2526 C2525 1.379 . S
H2527 C2521 0.959 . S
H2528 C2521 0.961 . S
H2529 C2521 0.960 . S
H2530 C2522 0.930 . S
H2531 C2523 0.929 . S
H2532 C2540 0.929 . S
H2533 C2542 0.930 . S
H2534 C2544 0.930 . S
H2535 C2547 0.929 . S
H2536 C2550 0.930 . S
H2537 C2552 0.960 . S
H2538 C2552 0.960 . S
H2539 C2552 0.960 . S
C2540 H2532 0.929 . S
C2540 C2541 1.377 . S
C2540 C2542 1.384 . S
C2541 C2540 1.377 . S
C2541 C2547 1.390 . S
C2542 H2533 0.930 . S
C2542 C2540 1.384 . S
C2542 C2543 1.372 . S
C2543 C2542 1.372 . S
C2543 C2544 1.400 . S
C2543 C2548 1.490 . S
C2544 H2534 0.930 . S
C2544 C2543 1.400 . S
C2544 C2547 1.386 . S
H2545 C2561 0.930 . S
H2546 C2562 0.931 . S
C2547 H2535 0.929 . S
C2547 C2541 1.390 . S
C2547 C2544 1.386 . S
C2548 C2543 1.490 . S
C2548 C2550 1.395 . S
C2548 C2551 1.403 . S
H2549 C2555 0.930 . S
C2550 H2536 0.930 . S
C2550 C2548 1.395 . S
C2550 C2553 1.403 . S
C2551 C2548 1.403 . S
C2551 C2552 1.524 . S
C2551 C2555 1.400 . S
C2552 H2537 0.960 . S
C2552 H2538 0.960 . S
C2552 H2539 0.960 . S
C2552 C2551 1.524 . S
C2553 C2550 1.403 . S
C2553 C2554 1.392 . S
C2553 C2557 1.495 . S
C2554 C2553 1.392 . S
C2554 C2555 1.385 . S
C2554 C2556 1.478 . S
C2555 H2549 0.930 . S
C2555 C2551 1.400 . S
C2555 C2554 1.385 . S
C2556 C2554 1.478 . S
C2556 C2558 1.381 . S
C2556 C2562 1.383 . S
C2557 C2553 1.495 . S
C2557 H2563 0.959 . S
C2557 H2564 0.961 . S
C2557 H2565 0.960 . S
C2558 C2556 1.381 . S
C2558 C2559 1.394 . S
C2558 H2566 0.930 . S
C2559 C2558 1.394 . S
C2559 C2560 1.383 . S
C2559 H2567 0.929 . S
C2560 C2559 1.383 . S
C2560 C2561 1.377 . S
C2561 H2545 0.930 . S
C2561 C2560 1.377 . S
C2561 C2562 1.379 . S
C2562 H2546 0.931 . S
C2562 C2556 1.383 . S
C2562 C2561 1.379 . S
H2563 C2557 0.959 . S
H2564 C2557 0.961 . S
H2565 C2557 0.960 . S
H2566 C2558 0.930 . S
H2567 C2559 0.929 . S
H2568 C2576 0.929 . S
H2569 C2578 0.930 . S
H2570 C2580 0.930 . S
H2571 C2583 0.929 . S
H2572 C2586 0.930 . S
H2573 C2588 0.960 . S
H2574 C2588 0.960 . S
H2575 C2588 0.960 . S
C2576 H2568 0.929 . S
C2576 C2577 1.377 . S
C2576 C2578 1.384 . S
C2577 C2576 1.377 . S
C2577 C2583 1.390 . S
C2578 H2569 0.930 . S
C2578 C2576 1.384 . S
C2578 C2579 1.372 . S
C2579 C2578 1.372 . S
C2579 C2580 1.400 . S
C2579 C2584 1.490 . S
C2580 H2570 0.930 . S
C2580 C2579 1.400 . S
C2580 C2583 1.386 . S
H2581 C2597 0.930 . S
H2582 C2598 0.931 . S
C2583 H2571 0.929 . S
C2583 C2577 1.390 . S
C2583 C2580 1.386 . S
C2584 C2579 1.490 . S
C2584 C2586 1.395 . S
C2584 C2587 1.403 . S
H2585 C2591 0.930 . S
C2586 H2572 0.930 . S
C2586 C2584 1.395 . S
C2586 C2589 1.403 . S
C2587 C2584 1.403 . S
C2587 C2588 1.524 . S
C2587 C2591 1.400 . S
C2588 H2573 0.960 . S
C2588 H2574 0.960 . S
C2588 H2575 0.960 . S
C2588 C2587 1.524 . S
C2589 C2586 1.403 . S
C2589 C2590 1.392 . S
C2589 C2593 1.495 . S
C2590 C2589 1.392 . S
C2590 C2591 1.385 . S
C2590 C2592 1.478 . S
C2591 H2585 0.930 . S
C2591 C2587 1.400 . S
C2591 C2590 1.385 . S
C2592 C2590 1.478 . S
C2592 C2594 1.381 . S
C2592 C2598 1.383 . S
C2593 C2589 1.495 . S
C2593 H2599 0.959 . S
C2593 H2600 0.961 . S
C2593 H2601 0.960 . S
C2594 C2592 1.381 . S
C2594 C2595 1.394 . S
C2594 H2602 0.930 . S
C2595 C2594 1.394 . S
C2595 C2596 1.383 . S
C2595 H2603 0.929 . S
C2596 C2595 1.383 . S
C2596 C2597 1.377 . S
C2597 H2581 0.930 . S
C2597 C2596 1.377 . S
C2597 C2598 1.379 . S
C2598 H2582 0.931 . S
C2598 C2592 1.383 . S
C2598 C2597 1.379 . S
H2599 C2593 0.959 . S
H2600 C2593 0.961 . S
H2601 C2593 0.960 . S
H2602 C2594 0.930 . S
H2603 C2595 0.929 . S
H2604 C2612 0.929 . S
H2605 C2614 0.930 . S
H2606 C2616 0.930 . S
H2607 C2619 0.929 . S
H2608 C2622 0.930 . S
H2609 C2624 0.960 . S
H2610 C2624 0.960 . S
H2611 C2624 0.960 . S
C2612 H2604 0.929 . S
C2612 C2613 1.377 . S
C2612 C2614 1.384 . S
C2613 C2612 1.377 . S
C2613 C2619 1.390 . S
C2614 H2605 0.930 . S
C2614 C2612 1.384 . S
C2614 C2615 1.372 . S
C2615 C2614 1.372 . S
C2615 C2616 1.400 . S
C2615 C2620 1.490 . S
C2616 H2606 0.930 . S
C2616 C2615 1.400 . S
C2616 C2619 1.386 . S
H2617 C2633 0.930 . S
H2618 C2634 0.931 . S
C2619 H2607 0.929 . S
C2619 C2613 1.390 . S
C2619 C2616 1.386 . S
C2620 C2615 1.490 . S
C2620 C2622 1.395 . S
C2620 C2623 1.403 . S
H2621 C2627 0.930 . S
C2622 H2608 0.930 . S
C2622 C2620 1.395 . S
C2622 C2625 1.403 . S
C2623 C2620 1.403 . S
C2623 C2624 1.524 . S
C2623 C2627 1.400 . S
C2624 H2609 0.960 . S
C2624 H2610 0.960 . S
C2624 H2611 0.960 . S
C2624 C2623 1.524 . S
C2625 C2622 1.403 . S
C2625 C2626 1.392 . S
C2625 C2629 1.495 . S
C2626 C2625 1.392 . S
C2626 C2627 1.385 . S
C2626 C2628 1.478 . S
C2627 H2621 0.930 . S
C2627 C2623 1.400 . S
C2627 C2626 1.385 . S
C2628 C2626 1.478 . S
C2628 C2630 1.381 . S
C2628 C2634 1.383 . S
C2629 C2625 1.495 . S
C2629 H2635 0.959 . S
C2629 H2636 0.961 . S
C2629 H2637 0.960 . S
C2630 C2628 1.381 . S
C2630 C2631 1.394 . S
C2630 H2638 0.930 . S
C2631 C2630 1.394 . S
C2631 C2632 1.383 . S
C2631 H2639 0.929 . S
C2632 C2631 1.383 . S
C2632 C2633 1.377 . S
C2633 H2617 0.930 . S
C2633 C2632 1.377 . S
C2633 C2634 1.379 . S
C2634 H2618 0.931 . S
C2634 C2628 1.383 . S
C2634 C2633 1.379 . S
H2635 C2629 0.959 . S
H2636 C2629 0.961 . S
H2637 C2629 0.960 . S
H2638 C2630 0.930 . S
H2639 C2631 0.929 . S
H2640 C2648 0.929 . S
H2641 C2650 0.930 . S
H2642 C2652 0.930 . S
H2643 C2655 0.929 . S
H2644 C2658 0.930 . S
H2645 C2660 0.960 . S
H2646 C2660 0.960 . S
H2647 C2660 0.960 . S
C2648 H2640 0.929 . S
C2648 C2649 1.377 . S
C2648 C2650 1.384 . S
C2649 C2648 1.377 . S
C2649 C2655 1.390 . S
C2650 H2641 0.930 . S
C2650 C2648 1.384 . S
C2650 C2651 1.372 . S
C2651 C2650 1.372 . S
C2651 C2652 1.400 . S
C2651 C2656 1.490 . S
C2652 H2642 0.930 . S
C2652 C2651 1.400 . S
C2652 C2655 1.386 . S
H2653 C2669 0.930 . S
H2654 C2670 0.931 . S
C2655 H2643 0.929 . S
C2655 C2649 1.390 . S
C2655 C2652 1.386 . S
C2656 C2651 1.490 . S
C2656 C2658 1.395 . S
C2656 C2659 1.403 . S
H2657 C2663 0.930 . S
C2658 H2644 0.930 . S
C2658 C2656 1.395 . S
C2658 C2661 1.403 . S
C2659 C2656 1.403 . S
C2659 C2660 1.524 . S
C2659 C2663 1.400 . S
C2660 H2645 0.960 . S
C2660 H2646 0.960 . S
C2660 H2647 0.960 . S
C2660 C2659 1.524 . S
C2661 C2658 1.403 . S
C2661 C2662 1.392 . S
C2661 C2665 1.495 . S
C2662 C2661 1.392 . S
C2662 C2663 1.385 . S
C2662 C2664 1.478 . S
C2663 H2657 0.930 . S
C2663 C2659 1.400 . S
C2663 C2662 1.385 . S
C2664 C2662 1.478 . S
C2664 C2666 1.381 . S
C2664 C2670 1.383 . S
C2665 C2661 1.495 . S
C2665 H2671 0.959 . S
C2665 H2672 0.961 . S
C2665 H2673 0.960 . S
C2666 C2664 1.381 . S
C2666 C2667 1.394 . S
C2666 H2674 0.930 . S
C2667 C2666 1.394 . S
C2667 C2668 1.383 . S
C2667 H2675 0.929 . S
C2668 C2667 1.383 . S
C2668 C2669 1.377 . S
C2669 H2653 0.930 . S
C2669 C2668 1.377 . S
C2669 C2670 1.379 . S
C2670 H2654 0.931 . S
C2670 C2664 1.383 . S
C2670 C2669 1.379 . S
H2671 C2665 0.959 . S
H2672 C2665 0.961 . S
H2673 C2665 0.960 . S
H2674 C2666 0.930 . S
H2675 C2667 0.929 . S
H2676 C2684 0.929 . S
H2677 C2686 0.930 . S
H2678 C2688 0.930 . S
H2679 C2691 0.929 . S
H2680 C2694 0.930 . S
H2681 C2696 0.960 . S
H2682 C2696 0.960 . S
H2683 C2696 0.960 . S
C2684 H2676 0.929 . S
C2684 C2685 1.377 . S
C2684 C2686 1.384 . S
C2685 C2684 1.377 . S
C2685 C2691 1.390 . S
C2686 H2677 0.930 . S
C2686 C2684 1.384 . S
C2686 C2687 1.372 . S
C2687 C2686 1.372 . S
C2687 C2688 1.400 . S
C2687 C2692 1.490 . S
C2688 H2678 0.930 . S
C2688 C2687 1.400 . S
C2688 C2691 1.386 . S
H2689 C2705 0.930 . S
H2690 C2706 0.931 . S
C2691 H2679 0.929 . S
C2691 C2685 1.390 . S
C2691 C2688 1.386 . S
C2692 C2687 1.490 . S
C2692 C2694 1.395 . S
C2692 C2695 1.403 . S
H2693 C2699 0.930 . S
C2694 H2680 0.930 . S
C2694 C2692 1.395 . S
C2694 C2697 1.403 . S
C2695 C2692 1.403 . S
C2695 C2696 1.524 . S
C2695 C2699 1.400 . S
C2696 H2681 0.960 . S
C2696 H2682 0.960 . S
C2696 H2683 0.960 . S
C2696 C2695 1.524 . S
C2697 C2694 1.403 . S
C2697 C2698 1.392 . S
C2697 C2701 1.495 . S
C2698 C2697 1.392 . S
C2698 C2699 1.385 . S
C2698 C2700 1.478 . S
C2699 H2693 0.930 . S
C2699 C2695 1.400 . S
C2699 C2698 1.385 . S
C2700 C2698 1.478 . S
C2700 C2702 1.381 . S
C2700 C2706 1.383 . S
C2701 C2697 1.495 . S
C2701 H2707 0.959 . S
C2701 H2708 0.961 . S
C2701 H2709 0.960 . S
C2702 C2700 1.381 . S
C2702 C2703 1.394 . S
C2702 H2710 0.930 . S
C2703 C2702 1.394 . S
C2703 C2704 1.383 . S
C2703 H2711 0.929 . S
C2704 C2703 1.383 . S
C2704 C2705 1.377 . S
C2705 H2689 0.930 . S
C2705 C2704 1.377 . S
C2705 C2706 1.379 . S
C2706 H2690 0.931 . S
C2706 C2700 1.383 . S
C2706 C2705 1.379 . S
H2707 C2701 0.959 . S
H2708 C2701 0.961 . S
H2709 C2701 0.960 . S
H2710 C2702 0.930 . S
H2711 C2703 0.929 . S
H2712 C2720 0.929 . S
H2713 C2722 0.930 . S
H2714 C2724 0.930 . S
H2715 C2727 0.929 . S
H2716 C2730 0.930 . S
H2717 C2732 0.960 . S
H2718 C2732 0.960 . S
H2719 C2732 0.960 . S
C2720 H2712 0.929 . S
C2720 C2721 1.377 . S
C2720 C2722 1.384 . S
C2721 C2720 1.377 . S
C2721 C2727 1.390 . S
C2722 H2713 0.930 . S
C2722 C2720 1.384 . S
C2722 C2723 1.372 . S
C2723 C2722 1.372 . S
C2723 C2724 1.400 . S
C2723 C2728 1.490 . S
C2724 H2714 0.930 . S
C2724 C2723 1.400 . S
C2724 C2727 1.386 . S
H2725 C2741 0.930 . S
H2726 C2742 0.931 . S
C2727 H2715 0.929 . S
C2727 C2721 1.390 . S
C2727 C2724 1.386 . S
C2728 C2723 1.490 . S
C2728 C2730 1.395 . S
C2728 C2731 1.403 . S
H2729 C2735 0.930 . S
C2730 H2716 0.930 . S
C2730 C2728 1.395 . S
C2730 C2733 1.403 . S
C2731 C2728 1.403 . S
C2731 C2732 1.524 . S
C2731 C2735 1.400 . S
C2732 H2717 0.960 . S
C2732 H2718 0.960 . S
C2732 H2719 0.960 . S
C2732 C2731 1.524 . S
C2733 C2730 1.403 . S
C2733 C2734 1.392 . S
C2733 C2737 1.495 . S
C2734 C2733 1.392 . S
C2734 C2735 1.385 . S
C2734 C2736 1.478 . S
C2735 H2729 0.930 . S
C2735 C2731 1.400 . S
C2735 C2734 1.385 . S
C2736 C2734 1.478 . S
C2736 C2738 1.381 . S
C2736 C2742 1.383 . S
C2737 C2733 1.495 . S
C2737 H2743 0.959 . S
C2737 H2744 0.961 . S
C2737 H2745 0.960 . S
C2738 C2736 1.381 . S
C2738 C2739 1.394 . S
C2738 H2746 0.930 . S
C2739 C2738 1.394 . S
C2739 C2740 1.383 . S
C2739 H2747 0.929 . S
C2740 C2739 1.383 . S
C2740 C2741 1.377 . S
C2741 H2725 0.930 . S
C2741 C2740 1.377 . S
C2741 C2742 1.379 . S
C2742 H2726 0.931 . S
C2742 C2736 1.383 . S
C2742 C2741 1.379 . S
H2743 C2737 0.959 . S
H2744 C2737 0.961 . S
H2745 C2737 0.960 . S
H2746 C2738 0.930 . S
H2747 C2739 0.929 . S
H2748 C2756 0.929 . S
H2749 C2758 0.930 . S
H2750 C2760 0.930 . S
H2751 C2763 0.929 . S
H2752 C2766 0.930 . S
H2753 C2768 0.960 . S
H2754 C2768 0.960 . S
H2755 C2768 0.960 . S
C2756 H2748 0.929 . S
C2756 C2757 1.377 . S
C2756 C2758 1.384 . S
C2757 C2756 1.377 . S
C2757 C2763 1.390 . S
C2758 H2749 0.930 . S
C2758 C2756 1.384 . S
C2758 C2759 1.372 . S
C2759 C2758 1.372 . S
C2759 C2760 1.400 . S
C2759 C2764 1.490 . S
C2760 H2750 0.930 . S
C2760 C2759 1.400 . S
C2760 C2763 1.386 . S
H2761 C2777 0.930 . S
H2762 C2778 0.931 . S
C2763 H2751 0.929 . S
C2763 C2757 1.390 . S
C2763 C2760 1.386 . S
C2764 C2759 1.490 . S
C2764 C2766 1.395 . S
C2764 C2767 1.403 . S
H2765 C2771 0.930 . S
C2766 H2752 0.930 . S
C2766 C2764 1.395 . S
C2766 C2769 1.403 . S
C2767 C2764 1.403 . S
C2767 C2768 1.524 . S
C2767 C2771 1.400 . S
C2768 H2753 0.960 . S
C2768 H2754 0.960 . S
C2768 H2755 0.960 . S
C2768 C2767 1.524 . S
C2769 C2766 1.403 . S
C2769 C2770 1.392 . S
C2769 C2773 1.495 . S
C2770 C2769 1.392 . S
C2770 C2771 1.385 . S
C2770 C2772 1.478 . S
C2771 H2765 0.930 . S
C2771 C2767 1.400 . S
C2771 C2770 1.385 . S
C2772 C2770 1.478 . S
C2772 C2774 1.381 . S
C2772 C2778 1.383 . S
C2773 C2769 1.495 . S
C2773 H2779 0.959 . S
C2773 H2780 0.961 . S
C2773 H2781 0.960 . S
C2774 C2772 1.381 . S
C2774 C2775 1.394 . S
C2774 H2782 0.930 . S
C2775 C2774 1.394 . S
C2775 C2776 1.383 . S
C2775 H2783 0.929 . S
C2776 C2775 1.383 . S
C2776 C2777 1.377 . S
C2777 H2761 0.930 . S
C2777 C2776 1.377 . S
C2777 C2778 1.379 . S
C2778 H2762 0.931 . S
C2778 C2772 1.383 . S
C2778 C2777 1.379 . S
H2779 C2773 0.959 . S
H2780 C2773 0.961 . S
H2781 C2773 0.960 . S
H2782 C2774 0.930 . S
H2783 C2775 0.929 . S
H2784 C2792 0.929 . S
H2785 C2794 0.930 . S
H2786 C2796 0.930 . S
H2787 C2799 0.929 . S
H2788 C2802 0.930 . S
H2789 C2804 0.960 . S
H2790 C2804 0.960 . S
H2791 C2804 0.960 . S
C2792 H2784 0.929 . S
C2792 C2793 1.377 . S
C2792 C2794 1.384 . S
C2793 C2792 1.377 . S
C2793 C2799 1.390 . S
C2794 H2785 0.930 . S
C2794 C2792 1.384 . S
C2794 C2795 1.372 . S
C2795 C2794 1.372 . S
C2795 C2796 1.400 . S
C2795 C2800 1.490 . S
C2796 H2786 0.930 . S
C2796 C2795 1.400 . S
C2796 C2799 1.386 . S
H2797 C2813 0.930 . S
H2798 C2814 0.931 . S
C2799 H2787 0.929 . S
C2799 C2793 1.390 . S
C2799 C2796 1.386 . S
C2800 C2795 1.490 . S
C2800 C2802 1.395 . S
C2800 C2803 1.403 . S
H2801 C2807 0.930 . S
C2802 H2788 0.930 . S
C2802 C2800 1.395 . S
C2802 C2805 1.403 . S
C2803 C2800 1.403 . S
C2803 C2804 1.524 . S
C2803 C2807 1.400 . S
C2804 H2789 0.960 . S
C2804 H2790 0.960 . S
C2804 H2791 0.960 . S
C2804 C2803 1.524 . S
C2805 C2802 1.403 . S
C2805 C2806 1.392 . S
C2805 C2809 1.495 . S
C2806 C2805 1.392 . S
C2806 C2807 1.385 . S
C2806 C2808 1.478 . S
C2807 H2801 0.930 . S
C2807 C2803 1.400 . S
C2807 C2806 1.385 . S
C2808 C2806 1.478 . S
C2808 C2810 1.381 . S
C2808 C2814 1.383 . S
C2809 C2805 1.495 . S
C2809 H2815 0.959 . S
C2809 H2816 0.961 . S
C2809 H2817 0.960 . S
C2810 C2808 1.381 . S
C2810 C2811 1.394 . S
C2810 H2818 0.930 . S
C2811 C2810 1.394 . S
C2811 C2812 1.383 . S
C2811 H2819 1.014 . S
C2812 C2811 1.383 . S
C2812 C2813 1.377 . S
C2813 H2797 0.930 . S
C2813 C2812 1.377 . S
C2813 C2814 1.379 . S
C2814 H2798 0.931 . S
C2814 C2808 1.383 . S
C2814 C2813 1.379 . S
H2815 C2809 0.959 . S
H2816 C2809 0.961 . S
H2817 C2809 0.960 . S
H2818 C2810 0.930 . S
H2819 C2811 1.014 . S
H2820 C2828 0.929 . S
H2821 C2830 0.930 . S
H2822 C2832 0.930 . S
H2823 C2835 0.929 . S
H2824 C2838 0.930 . S
H2825 C2840 0.960 . S
H2826 C2840 0.960 . S
H2827 C2840 0.960 . S
C2828 H2820 0.929 . S
C2828 C2829 1.377 . S
C2828 C2830 1.384 . S
C2829 C2828 1.377 . S
C2829 C2835 1.390 . S
C2830 H2821 0.930 . S
C2830 C2828 1.384 . S
C2830 C2831 1.372 . S
C2831 C2830 1.372 . S
C2831 C2832 1.400 . S
C2831 C2836 1.490 . S
C2832 H2822 0.930 . S
C2832 C2831 1.400 . S
C2832 C2835 1.386 . S
H2833 C2849 0.930 . S
H2834 C2850 0.931 . S
C2835 H2823 0.929 . S
C2835 C2829 1.390 . S
C2835 C2832 1.386 . S
C2836 C2831 1.490 . S
C2836 C2838 1.395 . S
C2836 C2839 1.403 . S
H2837 C2843 0.930 . S
C2838 H2824 0.930 . S
C2838 C2836 1.395 . S
C2838 C2841 1.403 . S
C2839 C2836 1.403 . S
C2839 C2840 1.524 . S
C2839 C2843 1.400 . S
C2840 H2825 0.960 . S
C2840 H2826 0.960 . S
C2840 H2827 0.960 . S
C2840 C2839 1.524 . S
C2841 C2838 1.403 . S
C2841 C2842 1.392 . S
C2841 C2845 1.495 . S
C2842 C2841 1.392 . S
C2842 C2843 1.385 . S
C2842 C2844 1.478 . S
C2843 H2837 0.930 . S
C2843 C2839 1.400 . S
C2843 C2842 1.385 . S
C2844 C2842 1.478 . S
C2844 C2846 1.381 . S
C2844 C2850 1.383 . S
C2845 C2841 1.495 . S
C2845 H2851 0.959 . S
C2845 H2852 0.961 . S
C2845 H2853 0.960 . S
C2846 C2844 1.381 . S
C2846 C2847 1.394 . S
C2846 H2854 0.930 . S
C2847 C2846 1.394 . S
C2847 C2848 1.383 . S
C2847 H2855 0.929 . S
C2848 C2847 1.383 . S
C2848 C2849 1.377 . S
C2849 H2833 0.930 . S
C2849 C2848 1.377 . S
C2849 C2850 1.379 . S
C2850 H2834 0.931 . S
C2850 C2844 1.383 . S
C2850 C2849 1.379 . S
H2851 C2845 0.959 . S
H2852 C2845 0.961 . S
H2853 C2845 0.960 . S
H2854 C2846 0.930 . S
H2855 C2847 0.929 . S
H2856 C2864 0.929 . S
H2857 C2866 0.930 . S
H2858 C2868 0.930 . S
H2859 C2871 0.929 . S
H2860 C2874 0.930 . S
H2861 C2876 0.960 . S
H2862 C2876 0.960 . S
H2863 C2876 0.960 . S
C2864 H2856 0.929 . S
C2864 C2865 1.377 . S
C2864 C2866 1.384 . S
C2865 C2864 1.377 . S
C2865 C2871 1.390 . S
C2866 H2857 0.930 . S
C2866 C2864 1.384 . S
C2866 C2867 1.372 . S
C2867 C2866 1.372 . S
C2867 C2868 1.400 . S
C2867 C2872 1.490 . S
C2868 H2858 0.930 . S
C2868 C2867 1.400 . S
C2868 C2871 1.386 . S
H2869 C2885 0.930 . S
H2870 C2886 0.931 . S
C2871 H2859 0.929 . S
C2871 C2865 1.390 . S
C2871 C2868 1.386 . S
C2872 C2867 1.490 . S
C2872 C2874 1.395 . S
C2872 C2875 1.403 . S
H2873 C2879 0.930 . S
C2874 H2860 0.930 . S
C2874 C2872 1.395 . S
C2874 C2877 1.403 . S
C2875 C2872 1.403 . S
C2875 C2876 1.524 . S
C2875 C2879 1.400 . S
C2876 H2861 0.960 . S
C2876 H2862 0.960 . S
C2876 H2863 0.960 . S
C2876 C2875 1.524 . S
C2877 C2874 1.403 . S
C2877 C2878 1.392 . S
C2877 C2881 1.495 . S
C2878 C2877 1.392 . S
C2878 C2879 1.385 . S
C2878 C2880 1.478 . S
C2879 H2873 0.930 . S
C2879 C2875 1.400 . S
C2879 C2878 1.385 . S
C2880 C2878 1.478 . S
C2880 C2882 1.381 . S
C2880 C2886 1.383 . S
C2881 C2877 1.495 . S
C2881 H2887 0.959 . S
C2881 H2888 0.961 . S
C2881 H2889 0.960 . S
C2882 C2880 1.381 . S
C2882 C2883 1.394 . S
C2882 H2890 0.930 . S
C2883 C2882 1.394 . S
C2883 C2884 1.383 . S
C2883 H2891 0.929 . S
C2884 C2883 1.383 . S
C2884 C2885 1.377 . S
C2885 H2869 0.930 . S
C2885 C2884 1.377 . S
C2885 C2886 1.379 . S
C2886 H2870 0.931 . S
C2886 C2880 1.383 . S
C2886 C2885 1.379 . S
H2887 C2881 0.959 . S
H2888 C2881 0.961 . S
H2889 C2881 0.960 . S
H2890 C2882 0.930 . S
H2891 C2883 0.929 . S
H2892 C2900 0.929 . S
H2893 C2902 0.930 . S
H2894 C2904 0.930 . S
H2895 C2907 0.929 . S
H2896 C2910 0.930 . S
H2897 C2912 0.960 . S
H2898 C2912 0.960 . S
H2899 C2912 0.960 . S
C2900 H2892 0.929 . S
C2900 C2901 1.377 . S
C2900 C2902 1.384 . S
C2901 C2900 1.377 . S
C2901 C2907 1.390 . S
C2902 H2893 0.930 . S
C2902 C2900 1.384 . S
C2902 C2903 1.372 . S
C2903 C2902 1.372 . S
C2903 C2904 1.400 . S
C2903 C2908 1.490 . S
C2904 H2894 0.930 . S
C2904 C2903 1.400 . S
C2904 C2907 1.386 . S
H2905 C2921 0.930 . S
H2906 C2922 0.931 . S
C2907 H2895 0.929 . S
C2907 C2901 1.390 . S
C2907 C2904 1.386 . S
C2908 C2903 1.490 . S
C2908 C2910 1.395 . S
C2908 C2911 1.403 . S
H2909 C2915 0.930 . S
C2910 H2896 0.930 . S
C2910 C2908 1.395 . S
C2910 C2913 1.403 . S
C2911 C2908 1.403 . S
C2911 C2912 1.524 . S
C2911 C2915 1.400 . S
C2912 H2897 0.960 . S
C2912 H2898 0.960 . S
C2912 H2899 0.960 . S
C2912 C2911 1.524 . S
C2913 C2910 1.403 . S
C2913 C2914 1.392 . S
C2913 C2917 1.495 . S
C2914 C2913 1.392 . S
C2914 C2915 1.385 . S
C2914 C2916 1.478 . S
C2915 H2909 0.930 . S
C2915 C2911 1.400 . S
C2915 C2914 1.385 . S
C2916 C2914 1.478 . S
C2916 C2918 1.381 . S
C2916 C2922 1.383 . S
C2917 C2913 1.495 . S
C2917 H2923 0.959 . S
C2917 H2924 0.961 . S
C2917 H2925 0.960 . S
C2918 C2916 1.381 . S
C2918 C2919 1.394 . S
C2918 H2926 0.930 . S
C2919 C2918 1.394 . S
C2919 C2920 1.383 . S
C2919 H2927 0.929 . S
C2920 C2919 1.383 . S
C2920 C2921 1.377 . S
C2921 H2905 0.930 . S
C2921 C2920 1.377 . S
C2921 C2922 1.379 . S
C2922 H2906 0.931 . S
C2922 C2916 1.383 . S
C2922 C2921 1.379 . S
H2923 C2917 0.959 . S
H2924 C2917 0.961 . S
H2925 C2917 0.960 . S
H2926 C2918 0.930 . S
H2927 C2919 0.929 . S
H2928 C2936 0.929 . S
H2929 C2938 0.930 . S
H2930 C2940 0.930 . S
H2931 C2943 0.929 . S
H2932 C2946 0.930 . S
H2933 C2948 0.960 . S
H2934 C2948 0.960 . S
H2935 C2948 0.960 . S
C2936 H2928 0.929 . S
C2936 C2937 1.377 . S
C2936 C2938 1.384 . S
C2937 C2936 1.377 . S
C2937 C2943 1.390 . S
C2938 H2929 0.930 . S
C2938 C2936 1.384 . S
C2938 C2939 1.372 . S
C2939 C2938 1.372 . S
C2939 C2940 1.400 . S
C2939 C2944 1.490 . S
C2940 H2930 0.930 . S
C2940 C2939 1.400 . S
C2940 C2943 1.386 . S
H2941 C2957 0.930 . S
H2942 C2958 0.931 . S
C2943 H2931 0.929 . S
C2943 C2937 1.390 . S
C2943 C2940 1.386 . S
C2944 C2939 1.490 . S
C2944 C2946 1.395 . S
C2944 C2947 1.403 . S
H2945 C2951 0.930 . S
C2946 H2932 0.930 . S
C2946 C2944 1.395 . S
C2946 C2949 1.403 . S
C2947 C2944 1.403 . S
C2947 C2948 1.524 . S
C2947 C2951 1.400 . S
C2948 H2933 0.960 . S
C2948 H2934 0.960 . S
C2948 H2935 0.960 . S
C2948 C2947 1.524 . S
C2949 C2946 1.403 . S
C2949 C2950 1.392 . S
C2949 C2953 1.495 . S
C2950 C2949 1.392 . S
C2950 C2951 1.385 . S
C2950 C2952 1.478 . S
C2951 H2945 0.930 . S
C2951 C2947 1.400 . S
C2951 C2950 1.385 . S
C2952 C2950 1.478 . S
C2952 C2954 1.381 . S
C2952 C2958 1.383 . S
C2953 C2949 1.495 . S
C2953 H2959 0.959 . S
C2953 H2960 0.961 . S
C2953 H2961 0.960 . S
C2954 C2952 1.381 . S
C2954 C2955 1.394 . S
C2954 H2962 0.930 . S
C2955 C2954 1.394 . S
C2955 C2956 1.383 . S
C2955 H2963 0.929 . S
C2956 C2955 1.383 . S
C2956 C2957 1.377 . S
C2957 H2941 0.930 . S
C2957 C2956 1.377 . S
C2957 C2958 1.379 . S
C2958 H2942 0.931 . S
C2958 C2952 1.383 . S
C2958 C2957 1.379 . S
H2959 C2953 0.959 . S
H2960 C2953 0.961 . S
H2961 C2953 0.960 . S
H2962 C2954 0.930 . S
H2963 C2955 0.929 . S
H2964 C2972 0.929 . S
H2965 C2974 0.930 . S
H2966 C2976 0.930 . S
H2967 C2979 0.929 . S
H2968 C2982 0.930 . S
H2969 C2984 0.960 . S
H2970 C2984 0.960 . S
H2971 C2984 0.960 . S
C2972 H2964 0.929 . S
C2972 C2973 1.377 . S
C2972 C2974 1.384 . S
C2973 C2972 1.377 . S
C2973 C2979 1.390 . S
C2974 H2965 0.930 . S
C2974 C2972 1.384 . S
C2974 C2975 1.372 . S
C2975 C2974 1.372 . S
C2975 C2976 1.400 . S
C2975 C2980 1.490 . S
C2976 H2966 0.930 . S
C2976 C2975 1.400 . S
C2976 C2979 1.386 . S
H2977 C2993 0.930 . S
H2978 C2994 0.931 . S
C2979 H2967 0.929 . S
C2979 C2973 1.390 . S
C2979 C2976 1.386 . S
C2980 C2975 1.490 . S
C2980 C2982 1.395 . S
C2980 C2983 1.403 . S
H2981 C2987 0.930 . S
C2982 H2968 0.930 . S
C2982 C2980 1.395 . S
C2982 C2985 1.403 . S
C2983 C2980 1.403 . S
C2983 C2984 1.524 . S
C2983 C2987 1.400 . S
C2984 H2969 0.960 . S
C2984 H2970 0.960 . S
C2984 H2971 0.960 . S
C2984 C2983 1.524 . S
C2985 C2982 1.403 . S
C2985 C2986 1.392 . S
C2985 C2989 1.495 . S
C2986 C2985 1.392 . S
C2986 C2987 1.385 . S
C2986 C2988 1.478 . S
C2987 H2981 0.930 . S
C2987 C2983 1.400 . S
C2987 C2986 1.385 . S
C2988 C2986 1.478 . S
C2988 C2990 1.381 . S
C2988 C2994 1.383 . S
C2989 C2985 1.495 . S
C2989 H2995 0.959 . S
C2989 H2996 0.961 . S
C2989 H2997 0.960 . S
C2990 C2988 1.381 . S
C2990 C2991 1.394 . S
C2990 H2998 0.930 . S
C2991 C2990 1.394 . S
C2991 C2992 1.383 . S
C2991 H2999 0.929 . S
C2992 C2991 1.383 . S
C2992 C2993 1.377 . S
C2993 H2977 0.930 . S
C2993 C2992 1.377 . S
C2993 C2994 1.379 . S
C2994 H2978 0.931 . S
C2994 C2988 1.383 . S
C2994 C2993 1.379 . S
H2995 C2989 0.959 . S
H2996 C2989 0.961 . S
H2997 C2989 0.960 . S
H2998 C2990 0.930 . S
H2999 C2991 0.929 . S
H3000 C3008 0.929 . S
H3001 C3010 0.930 . S
H3002 C3012 0.930 . S
H3003 C3015 0.929 . S
H3004 C3018 0.930 . S
H3005 C3020 0.960 . S
H3006 C3020 0.960 . S
H3007 C3020 0.960 . S
C3008 H3000 0.929 . S
C3008 C3009 1.377 . S
C3008 C3010 1.384 . S
C3009 C3008 1.377 . S
C3009 C3015 1.390 . S
C3010 H3001 0.930 . S
C3010 C3008 1.384 . S
C3010 C3011 1.372 . S
C3011 C3010 1.372 . S
C3011 C3012 1.400 . S
C3011 C3016 1.490 . S
C3012 H3002 0.930 . S
C3012 C3011 1.400 . S
C3012 C3015 1.386 . S
H3013 C3029 0.930 . S
H3014 C3030 0.931 . S
C3015 H3003 0.929 . S
C3015 C3009 1.390 . S
C3015 C3012 1.386 . S
C3016 C3011 1.490 . S
C3016 C3018 1.395 . S
C3016 C3019 1.403 . S
H3017 C3023 0.930 . S
C3018 H3004 0.930 . S
C3018 C3016 1.395 . S
C3018 C3021 1.403 . S
C3019 C3016 1.403 . S
C3019 C3020 1.524 . S
C3019 C3023 1.400 . S
C3020 H3005 0.960 . S
C3020 H3006 0.960 . S
C3020 H3007 0.960 . S
C3020 C3019 1.524 . S
C3021 C3018 1.403 . S
C3021 C3022 1.392 . S
C3021 C3025 1.495 . S
C3022 C3021 1.392 . S
C3022 C3023 1.385 . S
C3022 C3024 1.478 . S
C3023 H3017 0.930 . S
C3023 C3019 1.400 . S
C3023 C3022 1.385 . S
C3024 C3022 1.478 . S
C3024 C3026 1.381 . S
C3024 C3030 1.383 . S
C3025 C3021 1.495 . S
C3025 H3031 0.959 . S
C3025 H3032 0.961 . S
C3025 H3033 0.960 . S
C3026 C3024 1.381 . S
C3026 C3027 1.394 . S
C3026 H3034 0.930 . S
C3027 C3026 1.394 . S
C3027 C3028 1.383 . S
C3027 H3035 0.929 . S
C3028 C3027 1.383 . S
C3028 C3029 1.377 . S
C3029 H3013 0.930 . S
C3029 C3028 1.377 . S
C3029 C3030 1.379 . S
C3030 H3014 0.931 . S
C3030 C3024 1.383 . S
C3030 C3029 1.379 . S
H3031 C3025 0.959 . S
H3032 C3025 0.961 . S
H3033 C3025 0.960 . S
H3034 C3026 0.930 . S
H3035 C3027 0.929 . S
H3036 C3044 0.929 . S
H3037 C3046 0.930 . S
H3038 C3048 0.930 . S
H3039 C3051 0.929 . S
H3040 C3054 0.930 . S
H3041 C3056 0.960 . S
H3042 C3056 0.960 . S
H3043 C3056 0.960 . S
C3044 H3036 0.929 . S
C3044 C3045 1.377 . S
C3044 C3046 1.384 . S
C3045 C3044 1.377 . S
C3045 C3051 1.390 . S
C3046 H3037 0.930 . S
C3046 C3044 1.384 . S
C3046 C3047 1.372 . S
C3047 C3046 1.372 . S
C3047 C3048 1.400 . S
C3047 C3052 1.490 . S
C3048 H3038 0.930 . S
C3048 C3047 1.400 . S
C3048 C3051 1.386 . S
H3049 C3065 0.930 . S
H3050 C3066 0.931 . S
C3051 H3039 0.929 . S
C3051 C3045 1.390 . S
C3051 C3048 1.386 . S
C3052 C3047 1.490 . S
C3052 C3054 1.395 . S
C3052 C3055 1.403 . S
H3053 C3059 0.930 . S
C3054 H3040 0.930 . S
C3054 C3052 1.395 . S
C3054 C3057 1.403 . S
C3055 C3052 1.403 . S
C3055 C3056 1.524 . S
C3055 C3059 1.400 . S
C3056 H3041 0.960 . S
C3056 H3042 0.960 . S
C3056 H3043 0.960 . S
C3056 C3055 1.524 . S
C3057 C3054 1.403 . S
C3057 C3058 1.392 . S
C3057 C3061 1.495 . S
C3058 C3057 1.392 . S
C3058 C3059 1.385 . S
C3058 C3060 1.478 . S
C3059 H3053 0.930 . S
C3059 C3055 1.400 . S
C3059 C3058 1.385 . S
C3060 C3058 1.478 . S
C3060 C3062 1.381 . S
C3060 C3066 1.383 . S
C3061 C3057 1.495 . S
C3061 H3067 0.959 . S
C3061 H3068 0.961 . S
C3061 H3069 0.960 . S
C3062 C3060 1.381 . S
C3062 C3063 1.394 . S
C3062 H3070 0.930 . S
C3063 C3062 1.394 . S
C3063 C3064 1.383 . S
C3063 H3071 0.867 1_455 S
C3064 C3063 1.383 . S
C3064 C3065 1.377 . S
C3065 H3049 0.930 . S
C3065 C3064 1.377 . S
C3065 C3066 1.379 . S
C3066 H3050 0.931 . S
C3066 C3060 1.383 . S
C3066 C3065 1.379 . S
H3067 C3061 0.959 . S
H3068 C3061 0.961 . S
H3069 C3061 0.960 . S
H3070 C3062 0.930 . S
H3071 C3063 0.867 1_655 S
H3072 C3080 0.929 . S
H3073 C3082 0.930 . S
H3074 C3084 0.930 . S
H3075 C3087 0.929 . S
H3076 C3090 0.930 . S
H3077 C3092 0.960 . S
H3078 C3092 0.960 . S
H3079 C3092 0.960 . S
C3080 H3072 0.929 . S
C3080 C3081 1.377 . S
C3080 C3082 1.384 . S
C3081 C3080 1.377 . S
C3081 C3087 1.390 . S
C3082 H3073 0.930 . S
C3082 C3080 1.384 . S
C3082 C3083 1.372 . S
C3083 C3082 1.372 . S
C3083 C3084 1.400 . S
C3083 C3088 1.490 . S
C3084 H3074 0.930 . S
C3084 C3083 1.400 . S
C3084 C3087 1.386 . S
H3085 C3101 0.930 . S
H3086 C3102 0.931 . S
C3087 H3075 0.929 . S
C3087 C3081 1.390 . S
C3087 C3084 1.386 . S
C3088 C3083 1.490 . S
C3088 C3090 1.395 . S
C3088 C3091 1.403 . S
H3089 C3095 0.930 . S
C3090 H3076 0.930 . S
C3090 C3088 1.395 . S
C3090 C3093 1.403 . S
C3091 C3088 1.403 . S
C3091 C3092 1.524 . S
C3091 C3095 1.400 . S
C3092 H3077 0.960 . S
C3092 H3078 0.960 . S
C3092 H3079 0.960 . S
C3092 C3091 1.524 . S
C3093 C3090 1.403 . S
C3093 C3094 1.392 . S
C3093 C3097 1.495 . S
C3094 C3093 1.392 . S
C3094 C3095 1.385 . S
C3094 C3096 1.478 . S
C3095 H3089 0.930 . S
C3095 C3091 1.400 . S
C3095 C3094 1.385 . S
C3096 C3094 1.478 . S
C3096 C3098 1.381 . S
C3096 C3102 1.383 . S
C3097 C3093 1.495 . S
C3097 H3103 0.959 . S
C3097 H3104 0.961 . S
C3097 H3105 0.960 . S
C3098 C3096 1.381 . S
C3098 C3099 1.394 . S
C3098 H3106 0.930 . S
C3099 C3098 1.394 . S
C3099 C3100 1.383 . S
C3099 H3107 0.929 . S
C3100 C3099 1.383 . S
C3100 C3101 1.377 . S
C3101 H3085 0.930 . S
C3101 C3100 1.377 . S
C3101 C3102 1.379 . S
C3102 H3086 0.931 . S
C3102 C3096 1.383 . S
C3102 C3101 1.379 . S
H3103 C3097 0.959 . S
H3104 C3097 0.961 . S
H3105 C3097 0.960 . S
H3106 C3098 0.930 . S
H3107 C3099 0.929 . S
H3108 C3116 0.929 . S
H3109 C3118 0.930 . S
H3110 C3120 0.930 . S
H3111 C3123 0.929 . S
H3112 C3126 0.930 . S
H3113 C3128 0.960 . S
H3114 C3128 0.960 . S
H3115 C3128 0.960 . S
C3116 H3108 0.929 . S
C3116 C3117 1.377 . S
C3116 C3118 1.384 . S
C3117 C3116 1.377 . S
C3117 C3123 1.390 . S
C3118 H3109 0.930 . S
C3118 C3116 1.384 . S
C3118 C3119 1.372 . S
C3119 C3118 1.372 . S
C3119 C3120 1.400 . S
C3119 C3124 1.490 . S
C3120 H3110 0.930 . S
C3120 C3119 1.400 . S
C3120 C3123 1.386 . S
H3121 C3137 0.930 . S
H3122 C3138 0.931 . S
C3123 H3111 0.929 . S
C3123 C3117 1.390 . S
C3123 C3120 1.386 . S
C3124 C3119 1.490 . S
C3124 C3126 1.395 . S
C3124 C3127 1.403 . S
H3125 C3131 0.930 . S
C3126 H3112 0.930 . S
C3126 C3124 1.395 . S
C3126 C3129 1.403 . S
C3127 C3124 1.403 . S
C3127 C3128 1.524 . S
C3127 C3131 1.400 . S
C3128 H3113 0.960 . S
C3128 H3114 0.960 . S
C3128 H3115 0.960 . S
C3128 C3127 1.524 . S
C3129 C3126 1.403 . S
C3129 C3130 1.392 . S
C3129 C3133 1.495 . S
C3130 C3129 1.392 . S
C3130 C3131 1.385 . S
C3130 C3132 1.478 . S
C3131 H3125 0.930 . S
C3131 C3127 1.400 . S
C3131 C3130 1.385 . S
C3132 C3130 1.478 . S
C3132 C3134 1.381 . S
C3132 C3138 1.383 . S
C3133 C3129 1.495 . S
C3133 H3139 0.959 . S
C3133 H3140 0.961 . S
C3133 H3141 0.960 . S
C3134 C3132 1.381 . S
C3134 C3135 1.394 . S
C3134 H3142 0.930 . S
C3135 C3134 1.394 . S
C3135 C3136 1.383 . S
C3135 H3143 0.936 1_545 S
C3136 C3135 1.383 . S
C3136 C3137 1.377 . S
C3137 H3121 0.930 . S
C3137 C3136 1.377 . S
C3137 C3138 1.379 . S
C3138 H3122 0.931 . S
C3138 C3132 1.383 . S
C3138 C3137 1.379 . S
H3139 C3133 0.959 . S
H3140 C3133 0.961 . S
H3141 C3133 0.960 . S
H3142 C3134 0.930 . S
H3143 C3135 0.936 1_565 S
H3144 C3152 0.929 . S
H3145 C3154 0.930 . S
H3146 C3156 0.930 . S
H3147 C3159 0.929 . S
H3148 C3162 0.930 . S
H3149 C3164 0.960 . S
H3150 C3164 0.960 . S
H3151 C3164 0.960 . S
C3152 H3144 0.929 . S
C3152 C3153 1.377 . S
C3152 C3154 1.384 . S
C3153 C3152 1.377 . S
C3153 C3159 1.390 . S
C3154 H3145 0.930 . S
C3154 C3152 1.384 . S
C3154 C3155 1.372 . S
C3155 C3154 1.372 . S
C3155 C3156 1.400 . S
C3155 C3160 1.490 . S
C3156 H3146 0.930 . S
C3156 C3155 1.400 . S
C3156 C3159 1.386 . S
H3157 C3173 0.930 . S
H3158 C3174 0.931 . S
C3159 H3147 0.929 . S
C3159 C3153 1.390 . S
C3159 C3156 1.386 . S
C3160 C3155 1.490 . S
C3160 C3162 1.395 . S
C3160 C3163 1.403 . S
H3161 C3167 0.930 . S
C3162 H3148 0.930 . S
C3162 C3160 1.395 . S
C3162 C3165 1.403 . S
C3163 C3160 1.403 . S
C3163 C3164 1.524 . S
C3163 C3167 1.400 . S
C3164 H3149 0.960 . S
C3164 H3150 0.960 . S
C3164 H3151 0.960 . S
C3164 C3163 1.524 . S
C3165 C3162 1.403 . S
C3165 C3166 1.392 . S
C3165 C3169 1.495 . S
C3166 C3165 1.392 . S
C3166 C3167 1.385 . S
C3166 C3168 1.478 . S
C3167 H3161 0.930 . S
C3167 C3163 1.400 . S
C3167 C3166 1.385 . S
C3168 C3166 1.478 . S
C3168 C3170 1.381 . S
C3168 C3174 1.383 . S
C3169 C3165 1.495 . S
C3169 H3175 0.959 . S
C3169 H3176 0.961 . S
C3169 H3177 0.960 . S
C3170 C3168 1.381 . S
C3170 C3171 1.394 . S
C3170 H3178 0.930 . S
C3171 C3170 1.394 . S
C3171 C3172 1.383 . S
C3171 H3179 0.929 . S
C3172 C3171 1.383 . S
C3172 C3173 1.377 . S
C3173 H3157 0.930 . S
C3173 C3172 1.377 . S
C3173 C3174 1.379 . S
C3174 H3158 0.931 . S
C3174 C3168 1.383 . S
C3174 C3173 1.379 . S
H3175 C3169 0.959 . S
H3176 C3169 0.961 . S
H3177 C3169 0.960 . S
H3178 C3170 0.930 . S
H3179 C3171 0.929 . S
H3180 C3188 0.929 . S
H3181 C3190 0.930 . S
H3182 C3192 0.930 . S
H3183 C3195 0.929 . S
H3184 C3198 0.930 . S
H3185 C3200 0.960 . S
H3186 C3200 0.960 . S
H3187 C3200 0.960 . S
C3188 H3180 0.929 . S
C3188 C3189 1.377 . S
C3188 C3190 1.384 . S
C3189 C3188 1.377 . S
C3189 C3195 1.390 . S
C3190 H3181 0.930 . S
C3190 C3188 1.384 . S
C3190 C3191 1.372 . S
C3191 C3190 1.372 . S
C3191 C3192 1.400 . S
C3191 C3196 1.490 . S
C3192 H3182 0.930 . S
C3192 C3191 1.400 . S
C3192 C3195 1.386 . S
H3193 C3209 0.930 . S
H3194 C3210 0.931 . S
C3195 H3183 0.929 . S
C3195 C3189 1.390 . S
C3195 C3192 1.386 . S
C3196 C3191 1.490 . S
C3196 C3198 1.395 . S
C3196 C3199 1.403 . S
H3197 C3203 0.930 . S
C3198 H3184 0.930 . S
C3198 C3196 1.395 . S
C3198 C3201 1.403 . S
C3199 C3196 1.403 . S
C3199 C3200 1.524 . S
C3199 C3203 1.400 . S
C3200 H3185 0.960 . S
C3200 H3186 0.960 . S
C3200 H3187 0.960 . S
C3200 C3199 1.524 . S
C3201 C3198 1.403 . S
C3201 C3202 1.392 . S
C3201 C3205 1.495 . S
C3202 C3201 1.392 . S
C3202 C3203 1.385 . S
C3202 C3204 1.478 . S
C3203 H3197 0.930 . S
C3203 C3199 1.400 . S
C3203 C3202 1.385 . S
C3204 C3202 1.478 . S
C3204 C3206 1.381 . S
C3204 C3210 1.383 . S
C3205 C3201 1.495 . S
C3205 H3211 0.959 . S
C3205 H3212 0.961 . S
C3205 H3213 0.960 . S
C3206 C3204 1.381 . S
C3206 C3207 1.394 . S
C3206 H3214 0.930 . S
C3207 C3206 1.394 . S
C3207 C3208 1.383 . S
C3207 H3215 0.929 . S
C3208 C3207 1.383 . S
C3208 C3209 1.377 . S
C3209 H3193 0.930 . S
C3209 C3208 1.377 . S
C3209 C3210 1.379 . S
C3210 H3194 0.931 . S
C3210 C3204 1.383 . S
C3210 C3209 1.379 . S
H3211 C3205 0.959 . S
H3212 C3205 0.961 . S
H3213 C3205 0.960 . S
H3214 C3206 0.930 . S
H3215 C3207 0.929 . S
H3216 C3224 0.929 . S
H3217 C3226 0.930 . S
H3218 C3228 0.930 . S
H3219 C3231 0.929 . S
H3220 C3234 0.930 . S
H3221 C3236 0.960 . S
H3222 C3236 0.960 . S
H3223 C3236 0.960 . S
C3224 H3216 0.929 . S
C3224 C3225 1.377 . S
C3224 C3226 1.384 . S
C3225 C3224 1.377 . S
C3225 C3231 1.390 . S
C3226 H3217 0.930 . S
C3226 C3224 1.384 . S
C3226 C3227 1.372 . S
C3227 C3226 1.372 . S
C3227 C3228 1.400 . S
C3227 C3232 1.490 . S
C3228 H3218 0.930 . S
C3228 C3227 1.400 . S
C3228 C3231 1.386 . S
H3229 C3245 0.930 . S
H3230 C3246 0.931 . S
C3231 H3219 0.929 . S
C3231 C3225 1.390 . S
C3231 C3228 1.386 . S
C3232 C3227 1.490 . S
C3232 C3234 1.395 . S
C3232 C3235 1.403 . S
H3233 C3239 0.930 . S
C3234 H3220 0.930 . S
C3234 C3232 1.395 . S
C3234 C3237 1.403 . S
C3235 C3232 1.403 . S
C3235 C3236 1.524 . S
C3235 C3239 1.400 . S
C3236 H3221 0.960 . S
C3236 H3222 0.960 . S
C3236 H3223 0.960 . S
C3236 C3235 1.524 . S
C3237 C3234 1.403 . S
C3237 C3238 1.392 . S
C3237 C3241 1.495 . S
C3238 C3237 1.392 . S
C3238 C3239 1.385 . S
C3238 C3240 1.478 . S
C3239 H3233 0.930 . S
C3239 C3235 1.400 . S
C3239 C3238 1.385 . S
C3240 C3238 1.478 . S
C3240 C3242 1.381 . S
C3240 C3246 1.383 . S
C3241 C3237 1.495 . S
C3241 H3247 0.959 . S
C3241 H3248 0.961 . S
C3241 H3249 0.960 . S
C3242 C3240 1.381 . S
C3242 C3243 1.394 . S
C3242 H3250 0.930 . S
C3243 C3242 1.394 . S
C3243 C3244 1.383 . S
C3243 H3251 0.929 . S
C3244 C3243 1.383 . S
C3244 C3245 1.377 . S
C3245 H3229 0.930 . S
C3245 C3244 1.377 . S
C3245 C3246 1.379 . S
C3246 H3230 0.931 . S
C3246 C3240 1.383 . S
C3246 C3245 1.379 . S
H3247 C3241 0.959 . S
H3248 C3241 0.961 . S
H3249 C3241 0.960 . S
H3250 C3242 0.930 . S
H3251 C3243 0.929 . S
H3252 C3260 0.929 . S
H3253 C3262 0.930 . S
H3254 C3264 0.930 . S
H3255 C3267 0.929 . S
H3256 C3270 0.930 . S
H3257 C3272 0.960 . S
H3258 C3272 0.960 . S
H3259 C3272 0.960 . S
C3260 H3252 0.929 . S
C3260 C3261 1.377 . S
C3260 C3262 1.384 . S
C3261 C3260 1.377 . S
C3261 C3267 1.390 . S
C3262 H3253 0.930 . S
C3262 C3260 1.384 . S
C3262 C3263 1.372 . S
C3263 C3262 1.372 . S
C3263 C3264 1.400 . S
C3263 C3268 1.490 . S
C3264 H3254 0.930 . S
C3264 C3263 1.400 . S
C3264 C3267 1.386 . S
H3265 C3281 0.939 1_556 S
H3266 C3282 0.931 . S
C3267 H3255 0.929 . S
C3267 C3261 1.390 . S
C3267 C3264 1.386 . S
C3268 C3263 1.490 . S
C3268 C3270 1.395 . S
C3268 C3271 1.403 . S
H3269 C3275 0.930 . S
C3270 H3256 0.930 . S
C3270 C3268 1.395 . S
C3270 C3273 1.403 . S
C3271 C3268 1.403 . S
C3271 C3272 1.524 . S
C3271 C3275 1.400 . S
C3272 H3257 0.960 . S
C3272 H3258 0.960 . S
C3272 H3259 0.960 . S
C3272 C3271 1.524 . S
C3273 C3270 1.403 . S
C3273 C3274 1.392 . S
C3273 C3277 1.495 . S
C3274 C3273 1.392 . S
C3274 C3275 1.385 . S
C3274 C3276 1.478 . S
C3275 H3269 0.930 . S
C3275 C3271 1.400 . S
C3275 C3274 1.385 . S
C3276 C3274 1.478 . S
C3276 C3278 1.381 . S
C3276 C3282 1.383 . S
C3277 C3273 1.495 . S
C3277 H3283 0.959 . S
C3277 H3284 0.961 . S
C3277 H3285 0.960 . S
C3278 C3276 1.381 . S
C3278 C3279 1.394 . S
C3278 H3286 0.930 . S
C3279 C3278 1.394 . S
C3279 C3280 1.383 . S
C3279 H3287 0.929 . S
C3280 C3279 1.383 . S
C3280 C3281 1.377 . S
C3281 H3265 0.939 1_554 S
C3281 C3280 1.377 . S
C3281 C3282 1.379 . S
C3282 H3266 0.931 . S
C3282 C3276 1.383 . S
C3282 C3281 1.379 . S
H3283 C3277 0.959 . S
H3284 C3277 0.961 . S
H3285 C3277 0.960 . S
H3286 C3278 0.930 . S
H3287 C3279 0.929 . S
H3288 C3296 0.929 . S
H3289 C3298 0.930 . S
H3290 C3300 0.930 . S
H3291 C3303 0.929 . S
H3292 C3306 0.930 . S
H3293 C3308 0.960 . S
H3294 C3308 0.960 . S
H3295 C3308 0.960 . S
C3296 H3288 0.929 . S
C3296 C3297 1.377 . S
C3296 C3298 1.384 . S
C3297 C3296 1.377 . S
C3297 C3303 1.390 . S
C3298 H3289 0.930 . S
C3298 C3296 1.384 . S
C3298 C3299 1.372 . S
C3299 C3298 1.372 . S
C3299 C3300 1.400 . S
C3299 C3304 1.490 . S
C3300 H3290 0.930 . S
C3300 C3299 1.400 . S
C3300 C3303 1.386 . S
H3301 C3317 0.930 . S
H3302 C3318 0.931 . S
C3303 H3291 0.929 . S
C3303 C3297 1.390 . S
C3303 C3300 1.386 . S
C3304 C3299 1.490 . S
C3304 C3306 1.395 . S
C3304 C3307 1.403 . S
H3305 C3311 0.930 . S
C3306 H3292 0.930 . S
C3306 C3304 1.395 . S
C3306 C3309 1.403 . S
C3307 C3304 1.403 . S
C3307 C3308 1.524 . S
C3307 C3311 1.400 . S
C3308 H3293 0.960 . S
C3308 H3294 0.960 . S
C3308 H3295 0.960 . S
C3308 C3307 1.524 . S
C3309 C3306 1.403 . S
C3309 C3310 1.392 . S
C3309 C3313 1.495 . S
C3310 C3309 1.392 . S
C3310 C3311 1.385 . S
C3310 C3312 1.478 . S
C3311 H3305 0.930 . S
C3311 C3307 1.400 . S
C3311 C3310 1.385 . S
C3312 C3310 1.478 . S
C3312 C3314 1.381 . S
C3312 C3318 1.383 . S
C3313 C3309 1.495 . S
C3313 H3319 0.959 . S
C3313 H3320 0.961 . S
C3313 H3321 0.960 . S
C3314 C3312 1.381 . S
C3314 C3315 1.394 . S
C3314 H3322 0.930 . S
C3315 C3314 1.394 . S
C3315 C3316 1.383 . S
C3315 H3323 0.929 . S
C3316 C3315 1.383 . S
C3316 C3317 1.377 . S
C3317 H3301 0.930 . S
C3317 C3316 1.377 . S
C3317 C3318 1.379 . S
C3318 H3302 0.931 . S
C3318 C3312 1.383 . S
C3318 C3317 1.379 . S
H3319 C3313 0.959 . S
H3320 C3313 0.961 . S
H3321 C3313 0.960 . S
H3322 C3314 0.930 . S
H3323 C3315 0.929 . S
H3324 C3332 0.929 . S
H3325 C3334 0.930 . S
H3326 C3336 0.930 . S
H3327 C3339 0.929 . S
H3328 C3342 0.930 . S
H3329 C3344 0.960 . S
H3330 C3344 0.960 . S
H3331 C3344 0.960 . S
C3332 H3324 0.929 . S
C3332 C3333 1.377 . S
C3332 C3334 1.384 . S
C3333 C3332 1.377 . S
C3333 C3339 1.390 . S
C3334 H3325 0.930 . S
C3334 C3332 1.384 . S
C3334 C3335 1.372 . S
C3335 C3334 1.372 . S
C3335 C3336 1.400 . S
C3335 C3340 1.490 . S
C3336 H3326 0.930 . S
C3336 C3335 1.400 . S
C3336 C3339 1.386 . S
H3337 C3353 0.930 . S
H3338 C3354 0.931 . S
C3339 H3327 0.929 . S
C3339 C3333 1.390 . S
C3339 C3336 1.386 . S
C3340 C3335 1.490 . S
C3340 C3342 1.395 . S
C3340 C3343 1.403 . S
H3341 C3347 0.930 . S
C3342 H3328 0.930 . S
C3342 C3340 1.395 . S
C3342 C3345 1.403 . S
C3343 C3340 1.403 . S
C3343 C3344 1.524 . S
C3343 C3347 1.400 . S
C3344 H3329 0.960 . S
C3344 H3330 0.960 . S
C3344 H3331 0.960 . S
C3344 C3343 1.524 . S
C3345 C3342 1.403 . S
C3345 C3346 1.392 . S
C3345 C3349 1.495 . S
C3346 C3345 1.392 . S
C3346 C3347 1.385 . S
C3346 C3348 1.478 . S
C3347 H3341 0.930 . S
C3347 C3343 1.400 . S
C3347 C3346 1.385 . S
C3348 C3346 1.478 . S
C3348 C3350 1.381 . S
C3348 C3354 1.383 . S
C3349 C3345 1.495 . S
C3349 H3355 0.959 . S
C3349 H3356 0.961 . S
C3349 H3357 0.960 . S
C3350 C3348 1.381 . S
C3350 C3351 1.394 . S
C3350 H3358 0.930 . S
C3351 C3350 1.394 . S
C3351 C3352 1.383 . S
C3351 H3359 0.929 . S
C3352 C3351 1.383 . S
C3352 C3353 1.377 . S
C3353 H3337 0.930 . S
C3353 C3352 1.377 . S
C3353 C3354 1.379 . S
C3354 H3338 0.931 . S
C3354 C3348 1.383 . S
C3354 C3353 1.379 . S
H3355 C3349 0.959 . S
H3356 C3349 0.961 . S
H3357 C3349 0.960 . S
H3358 C3350 0.930 . S
H3359 C3351 0.929 . S
H3360 C3368 0.929 . S
H3361 C3370 0.930 . S
H3362 C3372 0.930 . S
H3363 C3375 0.929 . S
H3364 C3378 0.930 . S
H3365 C3380 0.960 . S
H3366 C3380 0.960 . S
H3367 C3380 0.960 . S
C3368 H3360 0.929 . S
C3368 C3369 1.377 . S
C3368 C3370 1.384 . S
C3369 C3368 1.377 . S
C3369 C3375 1.390 . S
C3370 H3361 0.930 . S
C3370 C3368 1.384 . S
C3370 C3371 1.372 . S
C3371 C3370 1.372 . S
C3371 C3372 1.400 . S
C3371 C3376 1.490 . S
C3372 H3362 0.930 . S
C3372 C3371 1.400 . S
C3372 C3375 1.386 . S
H3373 C3389 0.930 . S
H3374 C3390 0.931 . S
C3375 H3363 0.929 . S
C3375 C3369 1.390 . S
C3375 C3372 1.386 . S
C3376 C3371 1.490 . S
C3376 C3378 1.395 . S
C3376 C3379 1.403 . S
H3377 C3383 0.930 . S
C3378 H3364 0.930 . S
C3378 C3376 1.395 . S
C3378 C3381 1.403 . S
C3379 C3376 1.403 . S
C3379 C3380 1.524 . S
C3379 C3383 1.400 . S
C3380 H3365 0.960 . S
C3380 H3366 0.960 . S
C3380 H3367 0.960 . S
C3380 C3379 1.524 . S
C3381 C3378 1.403 . S
C3381 C3382 1.392 . S
C3381 C3385 1.495 . S
C3382 C3381 1.392 . S
C3382 C3383 1.385 . S
C3382 C3384 1.478 . S
C3383 H3377 0.930 . S
C3383 C3379 1.400 . S
C3383 C3382 1.385 . S
C3384 C3382 1.478 . S
C3384 C3386 1.381 . S
C3384 C3390 1.383 . S
C3385 C3381 1.495 . S
C3385 H3391 0.959 . S
C3385 H3392 0.961 . S
C3385 H3393 0.960 . S
C3386 C3384 1.381 . S
C3386 C3387 1.394 . S
C3386 H3394 0.930 . S
C3387 C3386 1.394 . S
C3387 C3388 1.383 . S
C3387 H3395 0.929 . S
C3388 C3387 1.383 . S
C3388 C3389 1.377 . S
C3389 H3373 0.930 . S
C3389 C3388 1.377 . S
C3389 C3390 1.379 . S
C3390 H3374 0.931 . S
C3390 C3384 1.383 . S
C3390 C3389 1.379 . S
H3391 C3385 0.959 . S
H3392 C3385 0.961 . S
H3393 C3385 0.960 . S
H3394 C3386 0.930 . S
H3395 C3387 0.929 . S
H3396 C3404 0.929 . S
H3397 C3406 0.930 . S
H3398 C3408 0.930 . S
H3399 C3411 0.929 . S
H3400 C3414 0.930 . S
H3401 C3416 0.960 . S
H3402 C3416 0.960 . S
H3403 C3416 0.960 . S
C3404 H3396 0.929 . S
C3404 C3405 1.377 . S
C3404 C3406 1.384 . S
C3405 C3404 1.377 . S
C3405 C3411 1.390 . S
C3406 H3397 0.930 . S
C3406 C3404 1.384 . S
C3406 C3407 1.372 . S
C3407 C3406 1.372 . S
C3407 C3408 1.400 . S
C3407 C3412 1.490 . S
C3408 H3398 0.930 . S
C3408 C3407 1.400 . S
C3408 C3411 1.386 . S
H3409 C3425 0.930 . S
H3410 C3426 0.931 . S
C3411 H3399 0.929 . S
C3411 C3405 1.390 . S
C3411 C3408 1.386 . S
C3412 C3407 1.490 . S
C3412 C3414 1.395 . S
C3412 C3415 1.403 . S
H3413 C3419 0.930 . S
C3414 H3400 0.930 . S
C3414 C3412 1.395 . S
C3414 C3417 1.403 . S
C3415 C3412 1.403 . S
C3415 C3416 1.524 . S
C3415 C3419 1.400 . S
C3416 H3401 0.960 . S
C3416 H3402 0.960 . S
C3416 H3403 0.960 . S
C3416 C3415 1.524 . S
C3417 C3414 1.403 . S
C3417 C3418 1.392 . S
C3417 C3421 1.495 . S
C3418 C3417 1.392 . S
C3418 C3419 1.385 . S
C3418 C3420 1.478 . S
C3419 H3413 0.930 . S
C3419 C3415 1.400 . S
C3419 C3418 1.385 . S
C3420 C3418 1.478 . S
C3420 C3422 1.381 . S
C3420 C3426 1.383 . S
C3421 C3417 1.495 . S
C3421 H3427 0.959 . S
C3421 H3428 0.961 . S
C3421 H3429 0.960 . S
C3422 C3420 1.381 . S
C3422 C3423 1.394 . S
C3422 H3430 0.930 . S
C3423 C3422 1.394 . S
C3423 C3424 1.383 . S
C3423 H3431 0.929 . S
C3424 C3423 1.383 . S
C3424 C3425 1.377 . S
C3425 H3409 0.930 . S
C3425 C3424 1.377 . S
C3425 C3426 1.379 . S
C3426 H3410 0.931 . S
C3426 C3420 1.383 . S
C3426 C3425 1.379 . S
H3427 C3421 0.959 . S
H3428 C3421 0.961 . S
H3429 C3421 0.960 . S
H3430 C3422 0.930 . S
H3431 C3423 0.929 . S
H3432 C3440 0.929 . S
H3433 C3442 0.930 . S
H3434 C3444 0.930 . S
H3435 C3447 0.929 . S
H3436 C3450 0.930 . S
H3437 C3452 0.960 . S
H3438 C3452 0.960 . S
H3439 C3452 0.960 . S
C3440 H3432 0.929 . S
C3440 C3441 1.377 . S
C3440 C3442 1.384 . S
C3441 C3440 1.377 . S
C3441 C3447 1.390 . S
C3442 H3433 0.930 . S
C3442 C3440 1.384 . S
C3442 C3443 1.372 . S
C3443 C3442 1.372 . S
C3443 C3444 1.400 . S
C3443 C3448 1.490 . S
C3444 H3434 0.930 . S
C3444 C3443 1.400 . S
C3444 C3447 1.386 . S
H3445 C3461 0.930 . S
H3446 C3462 0.931 . S
C3447 H3435 0.929 . S
C3447 C3441 1.390 . S
C3447 C3444 1.386 . S
C3448 C3443 1.490 . S
C3448 C3450 1.395 . S
C3448 C3451 1.403 . S
H3449 C3455 0.930 . S
C3450 H3436 0.930 . S
C3450 C3448 1.395 . S
C3450 C3453 1.403 . S
C3451 C3448 1.403 . S
C3451 C3452 1.524 . S
C3451 C3455 1.400 . S
C3452 H3437 0.960 . S
C3452 H3438 0.960 . S
C3452 H3439 0.960 . S
C3452 C3451 1.524 . S
C3453 C3450 1.403 . S
C3453 C3454 1.392 . S
C3453 C3457 1.495 . S
C3454 C3453 1.392 . S
C3454 C3455 1.385 . S
C3454 C3456 1.478 . S
C3455 H3449 0.930 . S
C3455 C3451 1.400 . S
C3455 C3454 1.385 . S
C3456 C3454 1.478 . S
C3456 C3458 1.381 . S
C3456 C3462 1.383 . S
C3457 C3453 1.495 . S
C3457 H3463 0.959 . S
C3457 H3464 0.961 . S
C3457 H3465 0.960 . S
C3458 C3456 1.381 . S
C3458 C3459 1.394 . S
C3458 H3466 0.930 . S
C3459 C3458 1.394 . S
C3459 C3460 1.383 . S
C3459 H3467 0.929 . S
C3460 C3459 1.383 . S
C3460 C3461 1.377 . S
C3461 H3445 0.930 . S
C3461 C3460 1.377 . S
C3461 C3462 1.379 . S
C3462 H3446 0.931 . S
C3462 C3456 1.383 . S
C3462 C3461 1.379 . S
H3463 C3457 0.959 . S
H3464 C3457 0.961 . S
H3465 C3457 0.960 . S
H3466 C3458 0.930 . S
H3467 C3459 0.929 . S
H3468 C3476 0.929 . S
H3469 C3478 0.930 . S
H3470 C3480 0.930 . S
H3471 C3483 0.929 . S
H3472 C3486 0.930 . S
H3473 C3488 0.960 . S
H3474 C3488 0.960 . S
H3475 C3488 0.960 . S
C3476 H3468 0.929 . S
C3476 C3477 1.377 . S
C3476 C3478 1.384 . S
C3477 C3476 1.377 . S
C3477 C3483 1.390 . S
C3478 H3469 0.930 . S
C3478 C3476 1.384 . S
C3478 C3479 1.372 . S
C3479 C3478 1.372 . S
C3479 C3480 1.400 . S
C3479 C3484 1.490 . S
C3480 H3470 0.930 . S
C3480 C3479 1.400 . S
C3480 C3483 1.386 . S
H3481 C3497 0.930 . S
H3482 C3498 0.931 . S
C3483 H3471 0.929 . S
C3483 C3477 1.390 . S
C3483 C3480 1.386 . S
C3484 C3479 1.490 . S
C3484 C3486 1.395 . S
C3484 C3487 1.403 . S
H3485 C3491 0.930 . S
C3486 H3472 0.930 . S
C3486 C3484 1.395 . S
C3486 C3489 1.403 . S
C3487 C3484 1.403 . S
C3487 C3488 1.524 . S
C3487 C3491 1.400 . S
C3488 H3473 0.960 . S
C3488 H3474 0.960 . S
C3488 H3475 0.960 . S
C3488 C3487 1.524 . S
C3489 C3486 1.403 . S
C3489 C3490 1.392 . S
C3489 C3493 1.495 . S
C3490 C3489 1.392 . S
C3490 C3491 1.385 . S
C3490 C3492 1.478 . S
C3491 H3485 0.930 . S
C3491 C3487 1.400 . S
C3491 C3490 1.385 . S
C3492 C3490 1.478 . S
C3492 C3494 1.381 . S
C3492 C3498 1.383 . S
C3493 C3489 1.495 . S
C3493 H3499 0.959 . S
C3493 H3500 0.961 . S
C3493 H3501 0.960 . S
C3494 C3492 1.381 . S
C3494 C3495 1.394 . S
C3494 H3502 0.930 . S
C3495 C3494 1.394 . S
C3495 C3496 1.383 . S
C3495 H3503 0.929 . S
C3496 C3495 1.383 . S
C3496 C3497 1.377 . S
C3497 H3481 0.930 . S
C3497 C3496 1.377 . S
C3497 C3498 1.379 . S
C3498 H3482 0.931 . S
C3498 C3492 1.383 . S
C3498 C3497 1.379 . S
H3499 C3493 0.959 . S
H3500 C3493 0.961 . S
H3501 C3493 0.960 . S
H3502 C3494 0.930 . S
H3503 C3495 0.929 . S
H3504 C3512 0.929 . S
H3505 C3514 0.930 . S
H3506 C3516 0.930 . S
H3507 C3519 0.929 . S
H3508 C3522 0.930 . S
H3509 C3524 0.960 . S
H3510 C3524 0.960 . S
H3511 C3524 0.960 . S
C3512 H3504 0.929 . S
C3512 C3513 1.377 . S
C3512 C3514 1.384 . S
C3513 C3512 1.377 . S
C3513 C3519 1.390 . S
C3514 H3505 0.930 . S
C3514 C3512 1.384 . S
C3514 C3515 1.372 . S
C3515 C3514 1.372 . S
C3515 C3516 1.400 . S
C3515 C3520 1.490 . S
C3516 H3506 0.930 . S
C3516 C3515 1.400 . S
C3516 C3519 1.386 . S
H3517 C3533 0.930 . S
H3518 C3534 0.931 . S
C3519 H3507 0.929 . S
C3519 C3513 1.390 . S
C3519 C3516 1.386 . S
C3520 C3515 1.490 . S
C3520 C3522 1.395 . S
C3520 C3523 1.403 . S
H3521 C3527 0.930 . S
C3522 H3508 0.930 . S
C3522 C3520 1.395 . S
C3522 C3525 1.403 . S
C3523 C3520 1.403 . S
C3523 C3524 1.524 . S
C3523 C3527 1.400 . S
C3524 H3509 0.960 . S
C3524 H3510 0.960 . S
C3524 H3511 0.960 . S
C3524 C3523 1.524 . S
C3525 C3522 1.403 . S
C3525 C3526 1.392 . S
C3525 C3529 1.495 . S
C3526 C3525 1.392 . S
C3526 C3527 1.385 . S
C3526 C3528 1.478 . S
C3527 H3521 0.930 . S
C3527 C3523 1.400 . S
C3527 C3526 1.385 . S
C3528 C3526 1.478 . S
C3528 C3530 1.381 . S
C3528 C3534 1.383 . S
C3529 C3525 1.495 . S
C3529 H3535 0.959 . S
C3529 H3536 0.961 . S
C3529 H3537 0.960 . S
C3530 C3528 1.381 . S
C3530 C3531 1.394 . S
C3530 H3538 0.930 . S
C3531 C3530 1.394 . S
C3531 C3532 1.383 . S
C3531 H3539 0.929 . S
C3532 C3531 1.383 . S
C3532 C3533 1.377 . S
C3533 H3517 0.930 . S
C3533 C3532 1.377 . S
C3533 C3534 1.379 . S
C3534 H3518 0.931 . S
C3534 C3528 1.383 . S
C3534 C3533 1.379 . S
H3535 C3529 0.959 . S
H3536 C3529 0.961 . S
H3537 C3529 0.960 . S
H3538 C3530 0.930 . S
H3539 C3531 0.929 . S
H3540 C3548 0.929 . S
H3541 C3550 0.930 . S
H3542 C3552 0.930 . S
H3543 C3555 0.929 . S
H3544 C3558 0.930 . S
H3545 C3560 0.960 . S
H3546 C3560 0.960 . S
H3547 C3560 0.960 . S
C3548 H3540 0.929 . S
C3548 C3549 1.377 . S
C3548 C3550 1.384 . S
C3549 C3548 1.377 . S
C3549 C3555 1.390 . S
C3550 H3541 0.930 . S
C3550 C3548 1.384 . S
C3550 C3551 1.372 . S
C3551 C3550 1.372 . S
C3551 C3552 1.400 . S
C3551 C3556 1.490 . S
C3552 H3542 0.930 . S
C3552 C3551 1.400 . S
C3552 C3555 1.386 . S
H3553 C3569 0.930 . S
H3554 C3570 0.931 . S
C3555 H3543 0.929 . S
C3555 C3549 1.390 . S
C3555 C3552 1.386 . S
C3556 C3551 1.490 . S
C3556 C3558 1.395 . S
C3556 C3559 1.403 . S
H3557 C3563 0.930 . S
C3558 H3544 0.930 . S
C3558 C3556 1.395 . S
C3558 C3561 1.403 . S
C3559 C3556 1.403 . S
C3559 C3560 1.524 . S
C3559 C3563 1.400 . S
C3560 H3545 0.960 . S
C3560 H3546 0.960 . S
C3560 H3547 0.960 . S
C3560 C3559 1.524 . S
C3561 C3558 1.403 . S
C3561 C3562 1.392 . S
C3561 C3565 1.495 . S
C3562 C3561 1.392 . S
C3562 C3563 1.385 . S
C3562 C3564 1.478 . S
C3563 H3557 0.930 . S
C3563 C3559 1.400 . S
C3563 C3562 1.385 . S
C3564 C3562 1.478 . S
C3564 C3566 1.381 . S
C3564 C3570 1.383 . S
C3565 C3561 1.495 . S
C3565 H3571 0.959 . S
C3565 H3572 0.961 . S
C3565 H3573 0.960 . S
C3566 C3564 1.381 . S
C3566 C3567 1.394 . S
C3566 H3574 0.930 . S
C3567 C3566 1.394 . S
C3567 C3568 1.383 . S
C3567 H3575 0.929 . S
C3568 C3567 1.383 . S
C3568 C3569 1.377 . S
C3569 H3553 0.930 . S
C3569 C3568 1.377 . S
C3569 C3570 1.379 . S
C3570 H3554 0.931 . S
C3570 C3564 1.383 . S
C3570 C3569 1.379 . S
H3571 C3565 0.959 . S
H3572 C3565 0.961 . S
H3573 C3565 0.960 . S
H3574 C3566 0.930 . S
H3575 C3567 0.929 . S
H3576 C3584 0.929 . S
H3577 C3586 0.930 . S
H3578 C3588 0.930 . S
H3579 C3591 0.929 . S
H3580 C3594 0.930 . S
H3581 C3596 0.960 . S
H3582 C3596 0.960 . S
H3583 C3596 0.960 . S
C3584 H3576 0.929 . S
C3584 C3585 1.377 . S
C3584 C3586 1.384 . S
C3585 C3584 1.377 . S
C3585 C3591 1.390 . S
C3586 H3577 0.930 . S
C3586 C3584 1.384 . S
C3586 C3587 1.372 . S
C3587 C3586 1.372 . S
C3587 C3588 1.400 . S
C3587 C3592 1.490 . S
C3588 H3578 0.930 . S
C3588 C3587 1.400 . S
C3588 C3591 1.386 . S
H3589 C3605 0.930 . S
H3590 C3606 0.931 . S
C3591 H3579 0.929 . S
C3591 C3585 1.390 . S
C3591 C3588 1.386 . S
C3592 C3587 1.490 . S
C3592 C3594 1.395 . S
C3592 C3595 1.403 . S
H3593 C3599 0.930 . S
C3594 H3580 0.930 . S
C3594 C3592 1.395 . S
C3594 C3597 1.403 . S
C3595 C3592 1.403 . S
C3595 C3596 1.524 . S
C3595 C3599 1.400 . S
C3596 H3581 0.960 . S
C3596 H3582 0.960 . S
C3596 H3583 0.960 . S
C3596 C3595 1.524 . S
C3597 C3594 1.403 . S
C3597 C3598 1.392 . S
C3597 C3601 1.495 . S
C3598 C3597 1.392 . S
C3598 C3599 1.385 . S
C3598 C3600 1.478 . S
C3599 H3593 0.930 . S
C3599 C3595 1.400 . S
C3599 C3598 1.385 . S
C3600 C3598 1.478 . S
C3600 C3602 1.381 . S
C3600 C3606 1.383 . S
C3601 C3597 1.495 . S
C3601 H3607 0.959 . S
C3601 H3608 0.961 . S
C3601 H3609 0.960 . S
C3602 C3600 1.381 . S
C3602 C3603 1.394 . S
C3602 H3610 0.930 . S
C3603 C3602 1.394 . S
C3603 C3604 1.383 . S
C3603 H3611 0.929 . S
C3604 C3603 1.383 . S
C3604 C3605 1.377 . S
C3605 H3589 0.930 . S
C3605 C3604 1.377 . S
C3605 C3606 1.379 . S
C3606 H3590 0.931 . S
C3606 C3600 1.383 . S
C3606 C3605 1.379 . S
H3607 C3601 0.959 . S
H3608 C3601 0.961 . S
H3609 C3601 0.960 . S
H3610 C3602 0.930 . S
H3611 C3603 0.929 . S
H3612 C3620 0.929 . S
H3613 C3622 0.930 . S
H3614 C3624 0.930 . S
H3615 C3627 0.929 . S
H3616 C3630 0.930 . S
H3617 C3632 0.960 . S
H3618 C3632 0.960 . S
H3619 C3632 0.960 . S
C3620 H3612 0.929 . S
C3620 C3621 1.377 . S
C3620 C3622 1.384 . S
C3621 C3620 1.377 . S
C3621 C3627 1.390 . S
C3622 H3613 0.930 . S
C3622 C3620 1.384 . S
C3622 C3623 1.372 . S
C3623 C3622 1.372 . S
C3623 C3624 1.400 . S
C3623 C3628 1.490 . S
C3624 H3614 0.930 . S
C3624 C3623 1.400 . S
C3624 C3627 1.386 . S
H3625 C3641 0.930 . S
H3626 C3642 0.931 . S
C3627 H3615 0.929 . S
C3627 C3621 1.390 . S
C3627 C3624 1.386 . S
C3628 C3623 1.490 . S
C3628 C3630 1.395 . S
C3628 C3631 1.403 . S
H3629 C3635 0.930 . S
C3630 H3616 0.930 . S
C3630 C3628 1.395 . S
C3630 C3633 1.403 . S
C3631 C3628 1.403 . S
C3631 C3632 1.524 . S
C3631 C3635 1.400 . S
C3632 H3617 0.960 . S
C3632 H3618 0.960 . S
C3632 H3619 0.960 . S
C3632 C3631 1.524 . S
C3633 C3630 1.403 . S
C3633 C3634 1.392 . S
C3633 C3637 1.495 . S
C3634 C3633 1.392 . S
C3634 C3635 1.385 . S
C3634 C3636 1.478 . S
C3635 H3629 0.930 . S
C3635 C3631 1.400 . S
C3635 C3634 1.385 . S
C3636 C3634 1.478 . S
C3636 C3638 1.381 . S
C3636 C3642 1.383 . S
C3637 C3633 1.495 . S
C3637 H3643 0.959 . S
C3637 H3644 0.961 . S
C3637 H3645 0.960 . S
C3638 C3636 1.381 . S
C3638 C3639 1.394 . S
C3638 H3646 0.930 . S
C3639 C3638 1.394 . S
C3639 C3640 1.383 . S
C3639 H3647 0.929 . S
C3640 C3639 1.383 . S
C3640 C3641 1.377 . S
C3641 H3625 0.930 . S
C3641 C3640 1.377 . S
C3641 C3642 1.379 . S
C3642 H3626 0.931 . S
C3642 C3636 1.383 . S
C3642 C3641 1.379 . S
H3643 C3637 0.959 . S
H3644 C3637 0.961 . S
H3645 C3637 0.960 . S
H3646 C3638 0.930 . S
H3647 C3639 0.929 . S
H3648 C3656 0.929 . S
H3649 C3658 0.930 . S
H3650 C3660 0.930 . S
H3651 C3663 0.929 . S
H3652 C3666 0.930 . S
H3653 C3668 0.960 . S
H3654 C3668 0.960 . S
H3655 C3668 0.960 . S
C3656 H3648 0.929 . S
C3656 C3657 1.377 . S
C3656 C3658 1.384 . S
C3657 C3656 1.377 . S
C3657 C3663 1.390 . S
C3658 H3649 0.930 . S
C3658 C3656 1.384 . S
C3658 C3659 1.372 . S
C3659 C3658 1.372 . S
C3659 C3660 1.400 . S
C3659 C3664 1.490 . S
C3660 H3650 0.930 . S
C3660 C3659 1.400 . S
C3660 C3663 1.386 . S
H3661 C3677 0.930 . S
H3662 C3678 0.931 . S
C3663 H3651 0.929 . S
C3663 C3657 1.390 . S
C3663 C3660 1.386 . S
C3664 C3659 1.490 . S
C3664 C3666 1.395 . S
C3664 C3667 1.403 1_655 S
H3665 C3671 0.930 . S
C3666 H3652 0.930 . S
C3666 C3664 1.395 . S
C3666 C3669 1.403 . S
C3667 C3664 1.403 1_455 S
C3667 C3668 1.524 . S
C3667 C3671 1.400 . S
C3668 H3653 0.960 . S
C3668 H3654 0.960 . S
C3668 H3655 0.960 . S
C3668 C3667 1.524 . S
C3669 C3666 1.403 . S
C3669 C3670 1.392 1_655 S
C3669 C3673 1.495 . S
C3670 C3669 1.392 1_455 S
C3670 C3671 1.385 . S
C3670 C3672 1.478 . S
C3671 H3665 0.930 . S
C3671 C3667 1.400 . S
C3671 C3670 1.385 . S
C3672 C3670 1.478 . S
C3672 C3674 1.381 . S
C3672 C3678 1.383 . S
C3673 C3669 1.495 . S
C3673 H3679 0.959 . S
C3673 H3680 0.961 . S
C3673 H3681 0.960 . S
C3674 C3672 1.381 . S
C3674 C3675 1.394 . S
C3674 H3682 0.930 . S
C3675 C3674 1.394 . S
C3675 C3676 1.383 . S
C3675 H3683 0.929 . S
C3676 C3675 1.383 . S
C3676 C3677 1.377 . S
C3677 H3661 0.930 . S
C3677 C3676 1.377 . S
C3677 C3678 1.379 . S
C3678 H3662 0.931 . S
C3678 C3672 1.383 . S
C3678 C3677 1.379 . S
H3679 C3673 0.959 . S
H3680 C3673 0.961 . S
H3681 C3673 0.960 . S
H3682 C3674 0.930 . S
H3683 C3675 0.929 . S
H3684 C3692 0.929 . S
H3685 C3694 0.930 . S
H3686 C3696 0.930 1_655 S
H3687 C3699 0.929 . S
H3688 C3702 0.930 . S
H3689 C3704 0.960 . S
H3690 C3704 0.960 . S
H3691 C3704 0.960 . S
C3692 H3684 0.929 . S
C3692 C3693 1.377 . S
C3692 C3694 1.384 . S
C3693 C3692 1.377 . S
C3693 C3699 1.390 . S
C3694 H3685 0.930 . S
C3694 C3692 1.384 . S
C3694 C3695 1.372 . S
C3695 C3694 1.372 . S
C3695 C3696 1.400 . S
C3695 C3700 1.490 . S
C3696 H3686 0.930 1_455 S
C3696 C3695 1.400 . S
C3696 C3699 1.386 . S
H3697 C3713 0.930 . S
H3698 C3714 0.931 . S
C3699 H3687 0.929 . S
C3699 C3693 1.390 . S
C3699 C3696 1.386 . S
C3700 C3695 1.490 . S
C3700 C3702 1.395 . S
C3700 C3703 1.403 1_455 S
H3701 C3707 0.930 . S
C3702 H3688 0.930 . S
C3702 C3700 1.395 . S
C3702 C3705 1.403 . S
C3703 C3700 1.403 1_655 S
C3703 C3704 1.524 . S
C3703 C3707 1.400 . S
C3704 H3689 0.960 . S
C3704 H3690 0.960 . S
C3704 H3691 0.960 . S
C3704 C3703 1.524 . S
C3705 C3702 1.403 . S
C3705 C3706 1.290 1_455 S
C3705 C3709 1.495 . S
C3706 C3705 1.290 1_655 S
C3706 C3707 1.454 . S
C3706 C3708 1.523 . S
C3707 H3701 0.930 . S
C3707 C3703 1.400 . S
C3707 C3706 1.454 . S
C3708 C3706 1.523 . S
C3708 C3710 1.434 . S
C3708 C3714 1.383 . S
C3709 C3705 1.495 . S
C3709 H3715 0.959 . S
C3709 H3716 0.961 . S
C3709 H3717 0.960 . S
C3710 C3708 1.434 . S
C3710 C3711 1.451 . S
C3710 H3718 0.831 1_655 S
C3711 C3710 1.451 . S
C3711 C3712 1.383 . S
C3711 H3719 0.929 . S
C3712 C3711 1.383 . S
C3712 C3713 1.377 . S
C3713 H3697 0.930 . S
C3713 C3712 1.377 . S
C3713 C3714 1.379 . S
C3714 H3698 0.931 . S
C3714 C3708 1.383 . S
C3714 C3713 1.379 . S
H3715 C3709 0.959 . S
H3716 C3709 0.961 . S
H3717 C3709 0.960 . S
H3718 C3710 0.831 1_455 S
H3719 C3711 0.929 . S
H3720 C3728 0.929 . S
H3721 C3730 0.930 . S
H3722 C3732 0.930 1_565 S
H3723 C3735 0.929 . S
H3724 C3738 0.929 . S
H3725 C3740 0.960 . S
H3726 C3740 0.960 . S
H3727 C3740 0.960 . S
C3728 H3720 0.929 . S
C3728 C3729 1.377 . S
C3728 C3730 1.384 . S
C3729 C3728 1.377 . S
C3729 C3735 1.390 . S
C3730 H3721 0.930 . S
C3730 C3728 1.384 . S
C3730 C3731 1.372 . S
C3731 C3730 1.372 . S
C3731 C3732 1.400 . S
C3731 C3736 1.490 . S
C3732 H3722 0.930 1_545 S
C3732 C3731 1.400 . S
C3732 C3735 1.386 . S
H3733 C3749 0.930 . S
H3734 C3750 0.931 . S
C3735 H3723 0.929 . S
C3735 C3729 1.390 . S
C3735 C3732 1.386 . S
C3736 C3731 1.490 . S
C3736 C3738 1.370 1_545 S
C3736 C3739 1.403 . S
H3737 C3743 0.929 . S
C3738 H3724 0.929 . S
C3738 C3736 1.370 1_565 S
C3738 C3741 1.427 . S
C3739 C3736 1.403 . S
C3739 C3740 1.524 . S
C3739 C3743 1.422 . S
C3740 H3725 0.960 . S
C3740 H3726 0.960 . S
C3740 H3727 0.960 . S
C3740 C3739 1.524 . S
C3741 C3738 1.427 . S
C3741 C3742 1.392 . S
C3741 C3745 1.495 . S
C3742 C3741 1.392 . S
C3742 C3743 1.363 1_565 S
C3742 C3744 1.478 . S
C3743 H3737 0.929 . S
C3743 C3739 1.422 . S
C3743 C3742 1.363 1_545 S
C3744 C3742 1.478 . S
C3744 C3746 1.381 . S
C3744 C3750 1.383 . S
C3745 C3741 1.495 . S
C3745 H3751 0.959 . S
C3745 H3752 0.961 . S
C3745 H3753 0.960 . S
C3746 C3744 1.381 . S
C3746 C3747 1.394 . S
C3746 H3754 0.930 1_565 S
C3747 C3746 1.394 . S
C3747 C3748 1.383 . S
C3747 H3755 0.929 . S
C3748 C3747 1.383 . S
C3748 C3749 1.377 . S
C3749 H3733 0.930 . S
C3749 C3748 1.377 . S
C3749 C3750 1.379 . S
C3750 H3734 0.931 . S
C3750 C3744 1.383 . S
C3750 C3749 1.379 . S
H3751 C3745 0.959 . S
H3752 C3745 0.961 . S
H3753 C3745 0.960 . S
H3754 C3746 0.930 1_545 S
H3755 C3747 0.929 . S
H3756 C3764 0.929 . S
H3757 C3766 0.930 . S
H3758 C3768 0.930 . S
H3759 C3771 0.929 . S
H3760 C3774 0.930 . S
H3761 C3776 0.960 . S
H3762 C3776 0.960 . S
H3763 C3776 0.960 . S
C3764 H3756 0.929 . S
C3764 C3765 1.377 . S
C3764 C3766 1.384 . S
C3765 C3764 1.377 . S
C3765 C3771 1.390 . S
C3766 H3757 0.930 . S
C3766 C3764 1.384 . S
C3766 C3767 1.372 . S
C3767 C3766 1.372 . S
C3767 C3768 1.400 . S
C3767 C3772 1.490 . S
C3768 H3758 0.930 . S
C3768 C3767 1.400 . S
C3768 C3771 1.386 . S
H3769 C3785 0.930 . S
H3770 C3786 0.931 . S
C3771 H3759 0.929 . S
C3771 C3765 1.390 . S
C3771 C3768 1.386 . S
C3772 C3767 1.490 . S
C3772 C3774 1.395 . S
C3772 C3775 1.403 . S
H3773 C3779 0.930 . S
C3774 H3760 0.930 . S
C3774 C3772 1.395 . S
C3774 C3777 1.403 . S
C3775 C3772 1.403 . S
C3775 C3776 1.524 . S
C3775 C3779 1.400 . S
C3776 H3761 0.960 . S
C3776 H3762 0.960 . S
C3776 H3763 0.960 . S
C3776 C3775 1.524 . S
C3777 C3774 1.403 . S
C3777 C3778 1.392 . S
C3777 C3781 1.495 . S
C3778 C3777 1.392 . S
C3778 C3779 1.385 . S
C3778 C3780 1.478 . S
C3779 H3773 0.930 . S
C3779 C3775 1.400 . S
C3779 C3778 1.385 . S
C3780 C3778 1.478 . S
C3780 C3782 1.381 . S
C3780 C3786 1.383 . S
C3781 C3777 1.495 . S
C3781 H3787 0.959 . S
C3781 H3788 0.961 . S
C3781 H3789 0.960 . S
C3782 C3780 1.381 . S
C3782 C3783 1.394 . S
C3782 H3790 0.930 . S
C3783 C3782 1.394 . S
C3783 C3784 1.383 . S
C3783 H3791 0.929 . S
C3784 C3783 1.383 . S
C3784 C3785 1.377 . S
C3785 H3769 0.930 . S
C3785 C3784 1.377 . S
C3785 C3786 1.379 . S
C3786 H3770 0.931 . S
C3786 C3780 1.383 . S
C3786 C3785 1.379 . S
H3787 C3781 0.959 . S
H3788 C3781 0.961 . S
H3789 C3781 0.960 . S
H3790 C3782 0.930 . S
H3791 C3783 0.929 . S
H3792 C3800 0.929 . S
H3793 C3802 0.930 . S
H3794 C3804 0.811 1_554 S
H3795 C3807 0.958 . S
H3796 C3810 0.930 . S
H3797 C3812 0.966 1_554 S
H3798 C3812 0.947 . S
H3799 C3812 0.967 1_554 S
C3800 H3792 0.929 . S
C3800 C3801 1.377 . S
C3800 C3802 1.384 . S
C3801 C3800 1.377 . S
C3801 C3807 1.390 . S
C3802 H3793 0.930 . S
C3802 C3800 1.384 . S
C3802 C3803 1.372 . S
C3803 C3802 1.372 . S
C3803 C3804 1.478 . S
C3803 C3808 1.490 . S
C3804 H3794 0.811 1_556 S
C3804 C3803 1.478 . S
C3804 C3807 1.435 . S
H3805 C3821 0.930 . S
H3806 C3822 0.931 . S
C3807 H3795 0.958 . S
C3807 C3801 1.390 . S
C3807 C3804 1.435 . S
C3808 C3803 1.490 . S
C3808 C3810 1.395 . S
C3808 C3811 1.390 1_556 S
H3809 C3815 0.930 . S
C3810 H3796 0.930 . S
C3810 C3808 1.395 . S
C3810 C3813 1.372 1_556 S
C3811 C3808 1.390 1_554 S
C3811 C3812 1.523 1_554 S
C3811 C3815 1.414 . S
C3812 H3797 0.966 1_556 S
C3812 H3798 0.947 . S
C3812 H3799 0.967 1_556 S
C3812 C3811 1.523 1_556 S
C3813 C3810 1.372 1_554 S
C3813 C3814 1.428 . S
C3813 C3817 1.495 . S
C3814 C3813 1.428 . S
C3814 C3815 1.385 . S
C3814 C3816 1.478 . S
C3815 H3809 0.930 . S
C3815 C3811 1.414 . S
C3815 C3814 1.385 . S
C3816 C3814 1.478 . S
C3816 C3818 1.381 . S
C3816 C3822 1.383 . S
C3817 C3813 1.495 . S
C3817 H3823 0.920 1_554 S
C3817 H3824 1.069 . S
C3817 H3825 0.904 1_554 S
C3818 C3816 1.381 . S
C3818 C3819 1.394 . S
C3818 H3826 0.930 1_554 S
C3819 C3818 1.394 . S
C3819 C3820 1.383 . S
C3819 H3827 0.929 . S
C3820 C3819 1.383 . S
C3820 C3821 1.377 . S
C3821 H3805 0.930 . S
C3821 C3820 1.377 . S
C3821 C3822 1.379 . S
C3822 H3806 0.931 . S
C3822 C3816 1.383 . S
C3822 C3821 1.379 . S
H3823 C3817 0.920 1_556 S
H3824 C3817 1.069 . S
H3825 C3817 0.904 1_556 S
H3826 C3818 0.930 1_556 S
H3827 C3819 0.929 . S
H3828 C3836 0.929 . S
H3829 C3838 0.930 . S
H3830 C3840 0.930 . S
H3831 C3843 0.929 . S
H3832 C3846 0.930 . S
H3833 C3848 0.960 . S
H3834 C3848 0.960 . S
H3835 C3848 0.960 . S
C3836 H3828 0.929 . S
C3836 C3837 1.377 . S
C3836 C3838 1.384 . S
C3837 C3836 1.377 . S
C3837 C3843 1.390 . S
C3838 H3829 0.930 . S
C3838 C3836 1.384 . S
C3838 C3839 1.372 . S
C3839 C3838 1.372 . S
C3839 C3840 1.400 . S
C3839 C3844 1.490 . S
C3840 H3830 0.930 . S
C3840 C3839 1.400 . S
C3840 C3843 1.386 . S
H3841 C3857 0.930 . S
H3842 C3858 0.931 . S
C3843 H3831 0.929 . S
C3843 C3837 1.390 . S
C3843 C3840 1.386 . S
C3844 C3839 1.490 . S
C3844 C3846 1.395 . S
C3844 C3847 1.403 . S
H3845 C3851 0.930 . S
C3846 H3832 0.930 . S
C3846 C3844 1.395 . S
C3846 C3849 1.403 . S
C3847 C3844 1.403 . S
C3847 C3848 1.524 . S
C3847 C3851 1.400 . S
C3848 H3833 0.960 . S
C3848 H3834 0.960 . S
C3848 H3835 0.960 . S
C3848 C3847 1.524 . S
C3849 C3846 1.403 . S
C3849 C3850 1.392 . S
C3849 C3853 1.495 . S
C3850 C3849 1.392 . S
C3850 C3851 1.385 . S
C3850 C3852 1.478 . S
C3851 H3845 0.930 . S
C3851 C3847 1.400 . S
C3851 C3850 1.385 . S
C3852 C3850 1.478 . S
C3852 C3854 1.381 . S
C3852 C3858 1.383 . S
C3853 C3849 1.495 . S
C3853 H3859 0.959 . S
C3853 H3860 0.961 . S
C3853 H3861 0.960 . S
C3854 C3852 1.381 . S
C3854 C3855 1.394 . S
C3854 H3862 0.930 . S
C3855 C3854 1.394 . S
C3855 C3856 1.383 . S
C3855 H3863 0.929 . S
C3856 C3855 1.383 . S
C3856 C3857 1.377 . S
C3857 H3841 0.930 . S
C3857 C3856 1.377 . S
C3857 C3858 1.379 . S
C3858 H3842 0.931 . S
C3858 C3852 1.383 . S
C3858 C3857 1.379 . S
H3859 C3853 0.959 . S
H3860 C3853 0.961 . S
H3861 C3853 0.960 . S
H3862 C3854 0.930 . S
H3863 C3855 0.929 . S
H3864 C3872 0.929 . S
H3865 C3874 0.930 . S
H3866 C3876 0.930 . S
H3867 C3879 0.929 . S
H3868 C3882 0.930 . S
H3869 C3884 0.960 . S
H3870 C3884 0.960 . S
H3871 C3884 0.960 . S
C3872 H3864 0.929 . S
C3872 C3873 1.377 . S
C3872 C3874 1.384 . S
C3873 C3872 1.377 . S
C3873 C3879 1.390 . S
C3874 H3865 0.930 . S
C3874 C3872 1.384 . S
C3874 C3875 1.372 . S
C3875 C3874 1.372 . S
C3875 C3876 1.400 . S
C3875 C3880 1.490 . S
C3876 H3866 0.930 . S
C3876 C3875 1.400 . S
C3876 C3879 1.386 . S
H3877 C3893 0.930 . S
H3878 C3894 0.931 . S
C3879 H3867 0.929 . S
C3879 C3873 1.390 . S
C3879 C3876 1.386 . S
C3880 C3875 1.490 . S
C3880 C3882 1.395 . S
C3880 C3883 1.403 . S
H3881 C3887 0.930 . S
C3882 H3868 0.930 . S
C3882 C3880 1.395 . S
C3882 C3885 1.403 . S
C3883 C3880 1.403 . S
C3883 C3884 1.524 . S
C3883 C3887 1.400 . S
C3884 H3869 0.960 . S
C3884 H3870 0.960 . S
C3884 H3871 0.960 . S
C3884 C3883 1.524 . S
C3885 C3882 1.403 . S
C3885 C3886 1.392 . S
C3885 C3889 1.495 . S
C3886 C3885 1.392 . S
C3886 C3887 1.385 . S
C3886 C3888 1.478 . S
C3887 H3881 0.930 . S
C3887 C3883 1.400 . S
C3887 C3886 1.385 . S
C3888 C3886 1.478 . S
C3888 C3890 1.381 . S
C3888 C3894 1.383 . S
C3889 C3885 1.495 . S
C3889 H3895 0.959 . S
C3889 H3896 0.961 . S
C3889 H3897 0.960 . S
C3890 C3888 1.381 . S
C3890 C3891 1.394 . S
C3890 H3898 0.930 . S
C3891 C3890 1.394 . S
C3891 C3892 1.383 . S
C3891 H3899 0.929 . S
C3892 C3891 1.383 . S
C3892 C3893 1.377 . S
C3893 H3877 0.930 . S
C3893 C3892 1.377 . S
C3893 C3894 1.379 . S
C3894 H3878 0.931 . S
C3894 C3888 1.383 . S
C3894 C3893 1.379 . S
H3895 C3889 0.959 . S
H3896 C3889 0.961 . S
H3897 C3889 0.960 . S
H3898 C3890 0.930 . S
H3899 C3891 0.929 . S
H3900 C3908 0.927 1_455 S
H3901 C3910 0.923 1_455 S
H3902 C3912 0.930 . S
H3903 C3915 0.929 . S
H3904 C3918 0.930 . S
H3905 C3920 0.960 . S
H3906 C3920 0.960 . S
H3907 C3920 0.960 . S
C3908 H3900 0.927 1_655 S
C3908 C3909 1.377 . S
C3908 C3910 1.386 . S
C3909 C3908 1.377 . S
C3909 C3915 1.390 . S
C3910 H3901 0.923 1_655 S
C3910 C3908 1.386 . S
C3910 C3911 1.376 . S
C3911 C3910 1.376 . S
C3911 C3912 1.400 . S
C3911 C3916 1.490 . S
C3912 H3902 0.930 . S
C3912 C3911 1.400 . S
C3912 C3915 1.386 . S
H3913 C3929 0.930 . S
H3914 C3930 0.931 1_655 S
C3915 H3903 0.929 . S
C3915 C3909 1.390 . S
C3915 C3912 1.386 . S
C3916 C3911 1.490 . S
C3916 C3918 1.395 1_655 S
C3916 C3919 1.403 . S
H3917 C3923 0.949 . S
C3918 H3904 0.930 . S
C3918 C3916 1.395 1_455 S
C3918 C3921 1.403 . S
C3919 C3916 1.403 . S
C3919 C3920 1.524 . S
C3919 C3923 1.426 . S
C3920 H3905 0.960 . S
C3920 H3906 0.960 . S
C3920 H3907 0.960 . S
C3920 C3919 1.524 . S
C3921 C3918 1.403 . S
C3921 C3922 1.392 . S
C3921 C3925 1.495 . S
C3922 C3921 1.392 . S
C3922 C3923 1.344 1_455 S
C3922 C3924 1.478 . S
C3923 H3917 0.949 . S
C3923 C3919 1.426 . S
C3923 C3922 1.344 1_655 S
C3924 C3922 1.478 . S
C3924 C3926 1.381 . S
C3924 C3930 1.383 . S
C3925 C3921 1.495 . S
C3925 H3931 0.959 . S
C3925 H3932 0.961 . S
C3925 H3933 0.960 . S
C3926 C3924 1.381 . S
C3926 C3927 1.394 . S
C3926 H3934 0.930 . S
C3927 C3926 1.394 . S
C3927 C3928 1.383 . S
C3927 H3935 0.929 . S
C3928 C3927 1.383 . S
C3928 C3929 1.377 . S
C3929 H3913 0.930 . S
C3929 C3928 1.377 . S
C3929 C3930 1.379 . S
C3930 H3914 0.931 1_455 S
C3930 C3924 1.383 . S
C3930 C3929 1.379 . S
H3931 C3925 0.959 . S
H3932 C3925 0.961 . S
H3933 C3925 0.960 . S
H3934 C3926 0.930 . S
H3935 C3927 0.929 . S
H3936 C3944 0.929 . S
H3937 C3946 0.930 . S
H3938 C3948 0.839 1_455 S
H3939 C3951 0.924 . S
H3940 C3954 0.930 . S
H3941 C3956 0.960 . S
H3942 C3956 0.960 . S
H3943 C3956 0.960 . S
C3944 H3936 0.929 . S
C3944 C3945 1.377 . S
C3944 C3946 1.384 . S
C3945 C3944 1.377 . S
C3945 C3951 1.390 . S
C3946 H3937 0.930 . S
C3946 C3944 1.384 . S
C3946 C3947 1.372 . S
C3947 C3946 1.372 . S
C3947 C3948 1.459 . S
C3947 C3952 1.490 . S
C3948 H3938 0.839 1_655 S
C3948 C3947 1.459 . S
C3948 C3951 1.421 . S
H3949 C3965 0.930 . S
H3950 C3966 0.931 . S
C3951 H3939 0.924 . S
C3951 C3945 1.390 . S
C3951 C3948 1.421 . S
C3952 C3947 1.490 . S
C3952 C3954 1.395 . S
C3952 C3955 1.403 1_655 S
H3953 C3959 0.930 . S
C3954 H3940 0.930 . S
C3954 C3952 1.395 . S
C3954 C3957 1.403 . S
C3955 C3952 1.403 1_455 S
C3955 C3956 1.524 . S
C3955 C3959 1.400 . S
C3956 H3941 0.960 . S
C3956 H3942 0.960 . S
C3956 H3943 0.960 . S
C3956 C3955 1.524 . S
C3957 C3954 1.403 . S
C3957 C3958 1.392 1_655 S
C3957 C3961 1.495 . S
C3958 C3957 1.392 1_455 S
C3958 C3959 1.385 . S
C3958 C3960 1.478 . S
C3959 H3953 0.930 . S
C3959 C3955 1.400 . S
C3959 C3958 1.385 . S
C3960 C3958 1.478 . S
C3960 C3962 1.381 . S
C3960 C3966 1.383 . S
C3961 C3957 1.495 . S
C3961 H3967 0.959 . S
C3961 H3968 0.961 . S
C3961 H3969 0.960 . S
C3962 C3960 1.381 . S
C3962 C3963 1.394 . S
C3962 H3970 0.930 1_455 S
C3963 C3962 1.394 . S
C3963 C3964 1.383 . S
C3963 H3971 0.929 . S
C3964 C3963 1.383 . S
C3964 C3965 1.377 . S
C3965 H3949 0.930 . S
C3965 C3964 1.377 . S
C3965 C3966 1.379 . S
C3966 H3950 0.931 . S
C3966 C3960 1.383 . S
C3966 C3965 1.379 . S
H3967 C3961 0.959 . S
H3968 C3961 0.961 . S
H3969 C3961 0.960 . S
H3970 C3962 0.930 1_655 S
H3971 C3963 0.929 . S
H3972 C3980 0.929 . S
H3973 C3982 0.930 . S
H3974 C3984 0.930 . S
H3975 C3987 0.929 . S
H3976 C3990 0.930 . S
H3977 C3992 0.960 . S
H3978 C3992 0.960 . S
H3979 C3992 0.960 . S
C3980 H3972 0.929 . S
C3980 C3981 1.377 . S
C3980 C3982 1.384 . S
C3981 C3980 1.377 . S
C3981 C3987 1.390 . S
C3982 H3973 0.930 . S
C3982 C3980 1.384 . S
C3982 C3983 1.372 . S
C3983 C3982 1.372 . S
C3983 C3984 1.400 . S
C3983 C3988 1.490 . S
C3984 H3974 0.930 . S
C3984 C3983 1.400 . S
C3984 C3987 1.386 . S
H3985 C4001 0.930 . S
H3986 C4002 0.931 . S
C3987 H3975 0.929 . S
C3987 C3981 1.390 . S
C3987 C3984 1.386 . S
C3988 C3983 1.490 . S
C3988 C3990 1.395 . S
C3988 C3991 1.403 1_565 S
H3989 C3995 0.930 . S
C3990 H3976 0.930 . S
C3990 C3988 1.395 . S
C3990 C3993 1.403 . S
C3991 C3988 1.403 1_545 S
C3991 C3992 1.524 . S
C3991 C3995 1.400 . S
C3992 H3977 0.960 . S
C3992 H3978 0.960 . S
C3992 H3979 0.960 . S
C3992 C3991 1.524 . S
C3993 C3990 1.403 . S
C3993 C3994 1.392 1_565 S
C3993 C3997 1.495 . S
C3994 C3993 1.392 1_545 S
C3994 C3995 1.385 . S
C3994 C3996 1.478 . S
C3995 H3989 0.930 . S
C3995 C3991 1.400 . S
C3995 C3994 1.385 . S
C3996 C3994 1.478 . S
C3996 C3998 1.381 . S
C3996 C4002 1.383 . S
C3997 C3993 1.495 . S
C3997 H4003 0.959 . S
C3997 H4004 0.961 . S
C3997 H4005 0.960 . S
C3998 C3996 1.381 . S
C3998 C3999 1.394 . S
C3998 H4006 0.930 . S
C3999 C3998 1.394 . S
C3999 C4000 1.383 . S
C3999 H4007 0.929 . S
C4000 C3999 1.383 . S
C4000 C4001 1.377 . S
C4001 H3985 0.930 . S
C4001 C4000 1.377 . S
C4001 C4002 1.379 . S
C4002 H3986 0.931 . S
C4002 C3996 1.383 . S
C4002 C4001 1.379 . S
H4003 C3997 0.959 . S
H4004 C3997 0.961 . S
H4005 C3997 0.960 . S
H4006 C3998 0.930 . S
H4007 C3999 0.929 . S
H4008 C4016 0.929 . S
H4009 C4018 0.930 . S
H4010 C4020 0.930 . S
H4011 C4023 0.929 . S
H4012 C4026 0.930 . S
H4013 C4028 0.960 . S
H4014 C4028 0.960 . S
H4015 C4028 0.960 . S
C4016 H4008 0.929 . S
C4016 C4017 1.377 . S
C4016 C4018 1.384 . S
C4017 C4016 1.377 . S
C4017 C4023 1.390 . S
C4018 H4009 0.930 . S
C4018 C4016 1.384 . S
C4018 C4019 1.372 . S
C4019 C4018 1.372 . S
C4019 C4020 1.400 . S
C4019 C4024 1.490 . S
C4020 H4010 0.930 . S
C4020 C4019 1.400 . S
C4020 C4023 1.386 . S
H4021 C4037 0.930 . S
H4022 C4038 0.931 . S
C4023 H4011 0.929 . S
C4023 C4017 1.390 . S
C4023 C4020 1.386 . S
C4024 C4019 1.490 . S
C4024 C4026 1.395 . S
C4024 C4027 1.403 . S
H4025 C4031 0.930 . S
C4026 H4012 0.930 . S
C4026 C4024 1.395 . S
C4026 C4029 1.403 . S
C4027 C4024 1.403 . S
C4027 C4028 1.524 . S
C4027 C4031 1.400 . S
C4028 H4013 0.960 . S
C4028 H4014 0.960 . S
C4028 H4015 0.960 . S
C4028 C4027 1.524 . S
C4029 C4026 1.403 . S
C4029 C4030 1.392 . S
C4029 C4033 1.495 . S
C4030 C4029 1.392 . S
C4030 C4031 1.385 . S
C4030 C4032 1.478 . S
C4031 H4025 0.930 . S
C4031 C4027 1.400 . S
C4031 C4030 1.385 . S
C4032 C4030 1.478 . S
C4032 C4034 1.381 . S
C4032 C4038 1.383 . S
C4033 C4029 1.495 . S
C4033 H4039 0.959 . S
C4033 H4040 0.961 . S
C4033 H4041 0.960 . S
C4034 C4032 1.381 . S
C4034 C4035 1.394 . S
C4034 H4042 0.930 . S
C4035 C4034 1.394 . S
C4035 C4036 1.383 . S
C4035 H4043 0.929 . S
C4036 C4035 1.383 . S
C4036 C4037 1.377 . S
C4037 H4021 0.930 . S
C4037 C4036 1.377 . S
C4037 C4038 1.379 . S
C4038 H4022 0.931 . S
C4038 C4032 1.383 . S
C4038 C4037 1.379 . S
H4039 C4033 0.959 . S
H4040 C4033 0.961 . S
H4041 C4033 0.960 . S
H4042 C4034 0.930 . S
H4043 C4035 0.929 . S
H4044 C4052 0.929 . S
H4045 C4054 0.930 . S
H4046 C4056 0.930 . S
H4047 C4059 0.929 . S
H4048 C4062 0.930 . S
H4049 C4064 0.960 . S
H4050 C4064 0.960 . S
H4051 C4064 0.960 . S
C4052 H4044 0.929 . S
C4052 C4053 1.377 . S
C4052 C4054 1.384 . S
C4053 C4052 1.377 . S
C4053 C4059 1.390 . S
C4054 H4045 0.930 . S
C4054 C4052 1.384 . S
C4054 C4055 1.372 . S
C4055 C4054 1.372 . S
C4055 C4056 1.400 . S
C4055 C4060 1.490 . S
C4056 H4046 0.930 . S
C4056 C4055 1.400 . S
C4056 C4059 1.386 . S
H4057 C4073 0.930 . S
H4058 C4074 0.931 . S
C4059 H4047 0.929 . S
C4059 C4053 1.390 . S
C4059 C4056 1.386 . S
C4060 C4055 1.490 . S
C4060 C4062 1.395 1_554 S
C4060 C4063 1.403 . S
H4061 C4067 0.930 . S
C4062 H4048 0.930 . S
C4062 C4060 1.395 1_556 S
C4062 C4065 1.403 . S
C4063 C4060 1.403 . S
C4063 C4064 1.524 . S
C4063 C4067 1.400 . S
C4064 H4049 0.960 . S
C4064 H4050 0.960 . S
C4064 H4051 0.960 . S
C4064 C4063 1.524 . S
C4065 C4062 1.403 . S
C4065 C4066 1.392 . S
C4065 C4069 1.495 . S
C4066 C4065 1.392 . S
C4066 C4067 1.385 1_556 S
C4066 C4068 1.478 . S
C4067 H4061 0.930 . S
C4067 C4063 1.400 . S
C4067 C4066 1.385 1_554 S
C4068 C4066 1.478 . S
C4068 C4070 1.381 . S
C4068 C4074 1.383 . S
C4069 C4065 1.495 . S
C4069 H4075 0.959 . S
C4069 H4076 0.961 . S
C4069 H4077 0.960 . S
C4070 C4068 1.381 . S
C4070 C4071 1.394 . S
C4070 H4078 0.930 . S
C4071 C4070 1.394 . S
C4071 C4072 1.383 . S
C4071 H4079 0.929 . S
C4072 C4071 1.383 . S
C4072 C4073 1.377 . S
C4073 H4057 0.930 . S
C4073 C4072 1.377 . S
C4073 C4074 1.379 . S
C4074 H4058 0.931 . S
C4074 C4068 1.383 . S
C4074 C4073 1.379 . S
H4075 C4069 0.959 . S
H4076 C4069 0.961 . S
H4077 C4069 0.960 . S
H4078 C4070 0.930 . S
H4079 C4071 0.929 . S
H4080 C4088 0.929 . S
H4081 C4090 0.930 . S
H4082 C4092 0.930 . S
H4083 C4095 0.929 . S
H4084 C4098 0.930 . S
H4085 C4100 0.960 . S
H4086 C4100 0.960 . S
H4087 C4100 0.960 . S
C4088 H4080 0.929 . S
C4088 C4089 1.377 . S
C4088 C4090 1.384 . S
C4089 C4088 1.377 . S
C4089 C4095 1.390 . S
C4090 H4081 0.930 . S
C4090 C4088 1.384 . S
C4090 C4091 1.372 . S
C4091 C4090 1.372 . S
C4091 C4092 1.400 . S
C4091 C4096 1.490 . S
C4092 H4082 0.930 . S
C4092 C4091 1.400 . S
C4092 C4095 1.386 . S
H4093 C4109 0.930 . S
H4094 C4110 0.931 . S
C4095 H4083 0.929 . S
C4095 C4089 1.390 . S
C4095 C4092 1.386 . S
C4096 C4091 1.490 . S
C4096 C4098 1.395 . S
C4096 C4099 1.403 . S
H4097 C4103 0.930 . S
C4098 H4084 0.930 . S
C4098 C4096 1.395 . S
C4098 C4101 1.403 . S
C4099 C4096 1.403 . S
C4099 C4100 1.524 . S
C4099 C4103 1.400 . S
C4100 H4085 0.960 . S
C4100 H4086 0.960 . S
C4100 H4087 0.960 . S
C4100 C4099 1.524 . S
C4101 C4098 1.403 . S
C4101 C4102 1.392 . S
C4101 C4105 1.495 . S
C4102 C4101 1.392 . S
C4102 C4103 1.385 . S
C4102 C4104 1.478 . S
C4103 H4097 0.930 . S
C4103 C4099 1.400 . S
C4103 C4102 1.385 . S
C4104 C4102 1.478 . S
C4104 C4106 1.381 . S
C4104 C4110 1.383 . S
C4105 C4101 1.495 . S
C4105 H4111 0.959 . S
C4105 H4112 0.961 . S
C4105 H4113 0.960 . S
C4106 C4104 1.381 . S
C4106 C4107 1.394 . S
C4106 H4114 0.930 . S
C4107 C4106 1.394 . S
C4107 C4108 1.383 . S
C4107 H4115 0.929 . S
C4108 C4107 1.383 . S
C4108 C4109 1.377 . S
C4109 H4093 0.930 . S
C4109 C4108 1.377 . S
C4109 C4110 1.379 . S
C4110 H4094 0.931 . S
C4110 C4104 1.383 . S
C4110 C4109 1.379 . S
H4111 C4105 0.959 . S
H4112 C4105 0.961 . S
H4113 C4105 0.960 . S
H4114 C4106 0.930 . S
H4115 C4107 0.929 . S
H4116 C4124 0.929 . S
H4117 C4126 0.930 . S
H4118 C4128 0.930 . S
H4119 C4131 0.929 . S
H4120 C4134 0.930 . S
H4121 C4136 0.960 . S
H4122 C4136 0.960 . S
H4123 C4136 0.960 . S
C4124 H4116 0.929 . S
C4124 C4125 1.377 . S
C4124 C4126 1.384 . S
C4125 C4124 1.377 . S
C4125 C4131 1.390 . S
C4126 H4117 0.930 . S
C4126 C4124 1.384 . S
C4126 C4127 1.372 . S
C4127 C4126 1.372 . S
C4127 C4128 1.400 . S
C4127 C4132 1.490 . S
C4128 H4118 0.930 . S
C4128 C4127 1.400 . S
C4128 C4131 1.386 . S
H4129 C4145 0.930 . S
H4130 C4146 0.931 . S
C4131 H4119 0.929 . S
C4131 C4125 1.390 . S
C4131 C4128 1.386 . S
C4132 C4127 1.490 . S
C4132 C4134 1.395 . S
C4132 C4135 1.403 . S
H4133 C4139 0.930 . S
C4134 H4120 0.930 . S
C4134 C4132 1.395 . S
C4134 C4137 1.403 . S
C4135 C4132 1.403 . S
C4135 C4136 1.524 . S
C4135 C4139 1.400 . S
C4136 H4121 0.960 . S
C4136 H4122 0.960 . S
C4136 H4123 0.960 . S
C4136 C4135 1.524 . S
C4137 C4134 1.403 . S
C4137 C4138 1.392 . S
C4137 C4141 1.495 . S
C4138 C4137 1.392 . S
C4138 C4139 1.385 . S
C4138 C4140 1.478 . S
C4139 H4133 0.930 . S
C4139 C4135 1.400 . S
C4139 C4138 1.385 . S
C4140 C4138 1.478 . S
C4140 C4142 1.381 . S
C4140 C4146 1.383 . S
C4141 C4137 1.495 . S
C4141 H4147 0.959 . S
C4141 H4148 0.961 . S
C4141 H4149 0.960 . S
C4142 C4140 1.381 . S
C4142 C4143 1.394 . S
C4142 H4150 0.930 . S
C4143 C4142 1.394 . S
C4143 C4144 1.383 . S
C4143 H4151 0.929 . S
C4144 C4143 1.383 . S
C4144 C4145 1.377 . S
C4145 H4129 0.930 . S
C4145 C4144 1.377 . S
C4145 C4146 1.379 . S
C4146 H4130 0.931 . S
C4146 C4140 1.383 . S
C4146 C4145 1.379 . S
H4147 C4141 0.959 . S
H4148 C4141 0.961 . S
H4149 C4141 0.960 . S
H4150 C4142 0.930 . S
H4151 C4143 0.929 . S
H4152 C4160 0.929 . S
H4153 C4162 0.930 . S
H4154 C4164 0.930 . S
H4155 C4167 0.929 . S
H4156 C4170 0.930 . S
H4157 C4172 0.960 . S
H4158 C4172 0.960 . S
H4159 C4172 0.960 . S
C4160 H4152 0.929 . S
C4160 C4161 1.377 . S
C4160 C4162 1.384 . S
C4161 C4160 1.377 . S
C4161 C4167 1.390 . S
C4162 H4153 0.930 . S
C4162 C4160 1.384 . S
C4162 C4163 1.372 . S
C4163 C4162 1.372 . S
C4163 C4164 1.400 . S
C4163 C4168 1.490 . S
C4164 H4154 0.930 . S
C4164 C4163 1.400 . S
C4164 C4167 1.386 . S
H4165 C4181 0.930 . S
H4166 C4182 0.931 . S
C4167 H4155 0.929 . S
C4167 C4161 1.390 . S
C4167 C4164 1.386 . S
C4168 C4163 1.490 . S
C4168 C4170 1.395 . S
C4168 C4171 1.403 . S
H4169 C4175 0.930 . S
C4170 H4156 0.930 . S
C4170 C4168 1.395 . S
C4170 C4173 1.403 . S
C4171 C4168 1.403 . S
C4171 C4172 1.524 . S
C4171 C4175 1.400 . S
C4172 H4157 0.960 . S
C4172 H4158 0.960 . S
C4172 H4159 0.960 . S
C4172 C4171 1.524 . S
C4173 C4170 1.403 . S
C4173 C4174 1.392 . S
C4173 C4177 1.495 . S
C4174 C4173 1.392 . S
C4174 C4175 1.385 . S
C4174 C4176 1.478 . S
C4175 H4169 0.930 . S
C4175 C4171 1.400 . S
C4175 C4174 1.385 . S
C4176 C4174 1.478 . S
C4176 C4178 1.381 . S
C4176 C4182 1.383 . S
C4177 C4173 1.495 . S
C4177 H4183 0.959 . S
C4177 H4184 0.961 . S
C4177 H4185 0.960 . S
C4178 C4176 1.381 . S
C4178 C4179 1.394 . S
C4178 H4186 0.930 . S
C4179 C4178 1.394 . S
C4179 C4180 1.383 . S
C4179 H4187 0.929 . S
C4180 C4179 1.383 . S
C4180 C4181 1.377 . S
C4181 H4165 0.930 . S
C4181 C4180 1.377 . S
C4181 C4182 1.379 . S
C4182 H4166 0.931 . S
C4182 C4176 1.383 . S
C4182 C4181 1.379 . S
H4183 C4177 0.959 . S
H4184 C4177 0.961 . S
H4185 C4177 0.960 . S
H4186 C4178 0.930 . S
H4187 C4179 0.929 . S
H4188 C4196 0.929 . S
H4189 C4198 0.930 . S
H4190 C4200 0.930 . S
H4191 C4203 0.929 . S
H4192 C4206 0.930 . S
H4193 C4208 0.960 . S
H4194 C4208 0.960 . S
H4195 C4208 0.960 . S
C4196 H4188 0.929 . S
C4196 C4197 1.377 . S
C4196 C4198 1.384 . S
C4197 C4196 1.377 . S
C4197 C4203 1.390 . S
C4198 H4189 0.930 . S
C4198 C4196 1.384 . S
C4198 C4199 1.372 . S
C4199 C4198 1.372 . S
C4199 C4200 1.400 . S
C4199 C4204 1.490 . S
C4200 H4190 0.930 . S
C4200 C4199 1.400 . S
C4200 C4203 1.386 . S
H4201 C4217 0.930 . S
H4202 C4218 0.931 . S
C4203 H4191 0.929 . S
C4203 C4197 1.390 . S
C4203 C4200 1.386 . S
C4204 C4199 1.490 . S
C4204 C4206 1.395 . S
C4204 C4207 1.403 . S
H4205 C4211 0.930 . S
C4206 H4192 0.930 . S
C4206 C4204 1.395 . S
C4206 C4209 1.403 . S
C4207 C4204 1.403 . S
C4207 C4208 1.524 . S
C4207 C4211 1.400 . S
C4208 H4193 0.960 . S
C4208 H4194 0.960 . S
C4208 H4195 0.960 . S
C4208 C4207 1.524 . S
C4209 C4206 1.403 . S
C4209 C4210 1.392 . S
C4209 C4213 1.495 . S
C4210 C4209 1.392 . S
C4210 C4211 1.385 . S
C4210 C4212 1.478 . S
C4211 H4205 0.930 . S
C4211 C4207 1.400 . S
C4211 C4210 1.385 . S
C4212 C4210 1.478 . S
C4212 C4214 1.381 . S
C4212 C4218 1.383 . S
C4213 C4209 1.495 . S
C4213 H4219 0.959 . S
C4213 H4220 0.961 . S
C4213 H4221 0.960 . S
C4214 C4212 1.381 . S
C4214 C4215 1.394 . S
C4214 H4222 0.930 . S
C4215 C4214 1.394 . S
C4215 C4216 1.383 . S
C4215 H4223 0.929 . S
C4216 C4215 1.383 . S
C4216 C4217 1.377 . S
C4217 H4201 0.930 . S
C4217 C4216 1.377 . S
C4217 C4218 1.379 . S
C4218 H4202 0.931 . S
C4218 C4212 1.383 . S
C4218 C4217 1.379 . S
H4219 C4213 0.959 . S
H4220 C4213 0.961 . S
H4221 C4213 0.960 . S
H4222 C4214 0.930 . S
H4223 C4215 0.929 . S
H4224 C4232 0.929 . S
H4225 C4234 0.930 . S
H4226 C4236 0.930 . S
H4227 C4239 0.929 . S
H4228 C4242 0.930 . S
H4229 C4244 0.960 . S
H4230 C4244 0.960 . S
H4231 C4244 0.960 . S
C4232 H4224 0.929 . S
C4232 C4233 1.377 . S
C4232 C4234 1.384 . S
C4233 C4232 1.377 . S
C4233 C4239 1.390 . S
C4234 H4225 0.930 . S
C4234 C4232 1.384 . S
C4234 C4235 1.372 . S
C4235 C4234 1.372 . S
C4235 C4236 1.400 . S
C4235 C4240 1.490 . S
C4236 H4226 0.930 . S
C4236 C4235 1.400 . S
C4236 C4239 1.386 . S
H4237 C4253 0.930 . S
H4238 C4254 0.931 . S
C4239 H4227 0.929 . S
C4239 C4233 1.390 . S
C4239 C4236 1.386 . S
C4240 C4235 1.490 . S
C4240 C4242 1.395 . S
C4240 C4243 1.403 . S
H4241 C4247 0.930 . S
C4242 H4228 0.930 . S
C4242 C4240 1.395 . S
C4242 C4245 1.403 . S
C4243 C4240 1.403 . S
C4243 C4244 1.524 . S
C4243 C4247 1.400 . S
C4244 H4229 0.960 . S
C4244 H4230 0.960 . S
C4244 H4231 0.960 . S
C4244 C4243 1.524 . S
C4245 C4242 1.403 . S
C4245 C4246 1.392 . S
C4245 C4249 1.495 . S
C4246 C4245 1.392 . S
C4246 C4247 1.385 . S
C4246 C4248 1.478 . S
C4247 H4241 0.930 . S
C4247 C4243 1.400 . S
C4247 C4246 1.385 . S
C4248 C4246 1.478 . S
C4248 C4250 1.381 . S
C4248 C4254 1.383 . S
C4249 C4245 1.495 . S
C4249 H4255 0.959 . S
C4249 H4256 0.961 . S
C4249 H4257 0.960 . S
C4250 C4248 1.381 . S
C4250 C4251 1.394 . S
C4250 H4258 0.930 . S
C4251 C4250 1.394 . S
C4251 C4252 1.383 . S
C4251 H4259 0.929 . S
C4252 C4251 1.383 . S
C4252 C4253 1.377 . S
C4253 H4237 0.930 . S
C4253 C4252 1.377 . S
C4253 C4254 1.379 . S
C4254 H4238 0.931 . S
C4254 C4248 1.383 . S
C4254 C4253 1.379 . S
H4255 C4249 0.959 . S
H4256 C4249 0.961 . S
H4257 C4249 0.960 . S
H4258 C4250 0.930 . S
H4259 C4251 0.929 . S
H4260 C4268 0.929 . S
H4261 C4270 0.930 1_565 S
H4262 C4272 0.930 . S
H4263 C4275 0.929 . S
H4264 C4278 0.930 . S
H4265 C4280 0.960 . S
H4266 C4280 0.960 . S
H4267 C4280 0.960 . S
C4268 H4260 0.929 . S
C4268 C4269 1.377 . S
C4268 C4270 1.384 . S
C4269 C4268 1.377 . S
C4269 C4275 1.390 . S
C4270 H4261 0.930 1_545 S
C4270 C4268 1.384 . S
C4270 C4271 1.372 . S
C4271 C4270 1.372 . S
C4271 C4272 1.400 . S
C4271 C4276 1.490 . S
C4272 H4262 0.930 . S
C4272 C4271 1.400 . S
C4272 C4275 1.386 . S
H4273 C4289 0.930 . S
H4274 C4290 0.926 . S
C4275 H4263 0.929 . S
C4275 C4269 1.390 . S
C4275 C4272 1.386 . S
C4276 C4271 1.490 . S
C4276 C4278 1.395 1_545 S
C4276 C4279 1.403 . S
H4277 C4283 0.930 . S
C4278 H4264 0.930 . S
C4278 C4276 1.395 1_565 S
C4278 C4281 1.403 . S
C4279 C4276 1.403 . S
C4279 C4280 1.524 . S
C4279 C4283 1.400 . S
C4280 H4265 0.960 . S
C4280 H4266 0.960 . S
C4280 H4267 0.960 . S
C4280 C4279 1.524 . S
C4281 C4278 1.403 . S
C4281 C4282 1.392 . S
C4281 C4285 1.495 . S
C4282 C4281 1.392 . S
C4282 C4283 1.385 1_565 S
C4282 C4284 1.478 . S
C4283 H4277 0.930 . S
C4283 C4279 1.400 . S
C4283 C4282 1.385 1_545 S
C4284 C4282 1.478 . S
C4284 C4286 1.381 . S
C4284 C4290 1.383 . S
C4285 C4281 1.495 . S
C4285 H4291 0.959 . S
C4285 H4292 0.961 . S
C4285 H4293 0.960 . S
C4286 C4284 1.381 . S
C4286 C4287 1.394 . S
C4286 H4294 0.930 . S
C4287 C4286 1.394 . S
C4287 C4288 1.383 . S
C4287 H4295 0.929 . S
C4288 C4287 1.383 . S
C4288 C4289 1.377 . S
C4289 H4273 0.930 . S
C4289 C4288 1.377 . S
C4289 C4290 1.379 . S
C4290 H4274 0.926 . S
C4290 C4284 1.383 . S
C4290 C4289 1.379 . S
H4291 C4285 0.959 . S
H4292 C4285 0.961 . S
H4293 C4285 0.960 . S
H4294 C4286 0.930 . S
H4295 C4287 0.929 . S
H4296 C4304 0.929 . S
H4297 C4306 0.930 . S
H4298 C4308 0.930 . S
H4299 C4311 0.929 . S
H4300 C4314 0.930 . S
H4301 C4316 0.960 . S
H4302 C4316 0.960 . S
H4303 C4316 0.960 . S
C4304 H4296 0.929 . S
C4304 C4305 1.377 . S
C4304 C4306 1.384 . S
C4305 C4304 1.377 . S
C4305 C4311 1.390 . S
C4306 H4297 0.930 . S
C4306 C4304 1.384 . S
C4306 C4307 1.372 . S
C4307 C4306 1.372 . S
C4307 C4308 1.400 . S
C4307 C4312 1.490 . S
C4308 H4298 0.930 . S
C4308 C4307 1.400 . S
C4308 C4311 1.386 . S
H4309 C4325 0.930 . S
H4310 C4326 0.931 . S
C4311 H4299 0.929 . S
C4311 C4305 1.390 . S
C4311 C4308 1.386 . S
C4312 C4307 1.490 . S
C4312 C4314 1.395 1_556 S
C4312 C4315 1.403 . S
H4313 C4319 0.930 . S
C4314 H4300 0.930 . S
C4314 C4312 1.395 1_554 S
C4314 C4317 1.403 . S
C4315 C4312 1.403 . S
C4315 C4316 1.524 . S
C4315 C4319 1.400 . S
C4316 H4301 0.960 . S
C4316 H4302 0.960 . S
C4316 H4303 0.960 . S
C4316 C4315 1.524 . S
C4317 C4314 1.403 . S
C4317 C4318 1.392 . S
C4317 C4321 1.495 . S
C4318 C4317 1.392 . S
C4318 C4319 1.385 1_554 S
C4318 C4320 1.478 . S
C4319 H4313 0.930 . S
C4319 C4315 1.400 . S
C4319 C4318 1.385 1_556 S
C4320 C4318 1.478 . S
C4320 C4322 1.381 . S
C4320 C4326 1.383 . S
C4321 C4317 1.495 . S
C4321 H4327 0.959 . S
C4321 H4328 0.961 . S
C4321 H4329 0.960 . S
C4322 C4320 1.381 . S
C4322 C4323 1.394 . S
C4322 H4330 0.930 . S
C4323 C4322 1.394 . S
C4323 C4324 1.383 . S
C4323 H4331 0.929 . S
C4324 C4323 1.383 . S
C4324 C4325 1.377 . S
C4325 H4309 0.930 . S
C4325 C4324 1.377 . S
C4325 C4326 1.379 . S
C4326 H4310 0.931 . S
C4326 C4320 1.383 . S
C4326 C4325 1.379 . S
H4327 C4321 0.959 . S
H4328 C4321 0.961 . S
H4329 C4321 0.960 . S
H4330 C4322 0.930 . S
H4331 C4323 0.929 . S
H4332 C4340 0.929 . S
H4333 C4342 0.930 . S
H4334 C4344 0.930 . S
H4335 C4347 0.929 . S
H4336 C4350 0.930 . S
H4337 C4352 0.960 . S
H4338 C4352 0.960 . S
H4339 C4352 0.960 . S
C4340 H4332 0.929 . S
C4340 C4341 1.377 . S
C4340 C4342 1.384 . S
C4341 C4340 1.377 . S
C4341 C4347 1.390 . S
C4342 H4333 0.930 . S
C4342 C4340 1.384 . S
C4342 C4343 1.372 . S
C4343 C4342 1.372 . S
C4343 C4344 1.400 . S
C4343 C4348 1.490 . S
C4344 H4334 0.930 . S
C4344 C4343 1.400 . S
C4344 C4347 1.386 . S
H4345 C4361 0.930 . S
H4346 C4362 0.931 . S
C4347 H4335 0.929 . S
C4347 C4341 1.390 . S
C4347 C4344 1.386 . S
C4348 C4343 1.490 . S
C4348 C4350 1.395 . S
C4348 C4351 1.403 . S
H4349 C4355 0.930 . S
C4350 H4336 0.930 . S
C4350 C4348 1.395 . S
C4350 C4353 1.403 . S
C4351 C4348 1.403 . S
C4351 C4352 1.524 . S
C4351 C4355 1.400 . S
C4352 H4337 0.960 . S
C4352 H4338 0.960 . S
C4352 H4339 0.960 . S
C4352 C4351 1.524 . S
C4353 C4350 1.403 . S
C4353 C4354 1.392 . S
C4353 C4357 1.495 . S
C4354 C4353 1.392 . S
C4354 C4355 1.385 . S
C4354 C4356 1.478 . S
C4355 H4349 0.930 . S
C4355 C4351 1.400 . S
C4355 C4354 1.385 . S
C4356 C4354 1.478 . S
C4356 C4358 1.381 . S
C4356 C4362 1.383 . S
C4357 C4353 1.495 . S
C4357 H4363 0.959 . S
C4357 H4364 0.961 . S
C4357 H4365 0.960 . S
C4358 C4356 1.381 . S
C4358 C4359 1.394 . S
C4358 H4366 0.930 . S
C4359 C4358 1.394 . S
C4359 C4360 1.383 . S
C4359 H4367 0.929 . S
C4360 C4359 1.383 . S
C4360 C4361 1.377 . S
C4361 H4345 0.930 . S
C4361 C4360 1.377 . S
C4361 C4362 1.379 . S
C4362 H4346 0.931 . S
C4362 C4356 1.383 . S
C4362 C4361 1.379 . S
H4363 C4357 0.959 . S
H4364 C4357 0.961 . S
H4365 C4357 0.960 . S
H4366 C4358 0.930 . S
H4367 C4359 0.929 . S
H4368 C4376 0.929 . S
H4369 C4378 0.930 . S
H4370 C4380 0.930 . S
H4371 C4383 0.929 . S
H4372 C4386 0.930 . S
H4373 C4388 0.960 . S
H4374 C4388 0.960 . S
H4375 C4388 0.960 . S
C4376 H4368 0.929 . S
C4376 C4377 1.377 . S
C4376 C4378 1.384 . S
C4377 C4376 1.377 . S
C4377 C4383 1.390 . S
C4378 H4369 0.930 . S
C4378 C4376 1.384 . S
C4378 C4379 1.372 . S
C4379 C4378 1.372 . S
C4379 C4380 1.400 . S
C4379 C4384 1.490 . S
C4380 H4370 0.930 . S
C4380 C4379 1.400 . S
C4380 C4383 1.386 . S
H4381 C4397 0.930 . S
H4382 C4398 0.931 . S
C4383 H4371 0.929 . S
C4383 C4377 1.390 . S
C4383 C4380 1.386 . S
C4384 C4379 1.490 . S
C4384 C4386 1.395 . S
C4384 C4387 1.403 . S
H4385 C4391 0.930 . S
C4386 H4372 0.930 . S
C4386 C4384 1.395 . S
C4386 C4389 1.403 . S
C4387 C4384 1.403 . S
C4387 C4388 1.524 . S
C4387 C4391 1.400 . S
C4388 H4373 0.960 . S
C4388 H4374 0.960 . S
C4388 H4375 0.960 . S
C4388 C4387 1.524 . S
C4389 C4386 1.403 . S
C4389 C4390 1.392 . S
C4389 C4393 1.495 . S
C4390 C4389 1.392 . S
C4390 C4391 1.385 . S
C4390 C4392 1.478 . S
C4391 H4385 0.930 . S
C4391 C4387 1.400 . S
C4391 C4390 1.385 . S
C4392 C4390 1.478 . S
C4392 C4394 1.381 . S
C4392 C4398 1.383 . S
C4393 C4389 1.495 . S
C4393 H4399 0.959 . S
C4393 H4400 0.961 . S
C4393 H4401 0.960 . S
C4394 C4392 1.381 . S
C4394 C4395 1.394 . S
C4394 H4402 0.930 . S
C4395 C4394 1.394 . S
C4395 C4396 1.383 . S
C4395 H4403 0.929 . S
C4396 C4395 1.383 . S
C4396 C4397 1.377 . S
C4397 H4381 0.930 . S
C4397 C4396 1.377 . S
C4397 C4398 1.379 . S
C4398 H4382 0.931 . S
C4398 C4392 1.383 . S
C4398 C4397 1.379 . S
H4399 C4393 0.959 . S
H4400 C4393 0.961 . S
H4401 C4393 0.960 . S
H4402 C4394 0.930 . S
H4403 C4395 0.929 . S
H4404 C4412 0.929 . S
H4405 C4414 0.930 . S
H4406 C4416 0.930 . S
H4407 C4419 0.929 . S
H4408 C4422 0.930 . S
H4409 C4424 0.960 . S
H4410 C4424 0.960 . S
H4411 C4424 0.960 . S
C4412 H4404 0.929 . S
C4412 C4413 1.377 . S
C4412 C4414 1.384 . S
C4413 C4412 1.377 . S
C4413 C4419 1.390 . S
C4414 H4405 0.930 . S
C4414 C4412 1.384 . S
C4414 C4415 1.372 . S
C4415 C4414 1.372 . S
C4415 C4416 1.400 . S
C4415 C4420 1.490 . S
C4416 H4406 0.930 . S
C4416 C4415 1.400 . S
C4416 C4419 1.386 . S
H4417 C4433 0.930 . S
H4418 C4434 0.931 . S
C4419 H4407 0.929 . S
C4419 C4413 1.390 . S
C4419 C4416 1.386 . S
C4420 C4415 1.490 . S
C4420 C4422 1.395 . S
C4420 C4423 1.403 . S
H4421 C4427 0.930 . S
C4422 H4408 0.930 . S
C4422 C4420 1.395 . S
C4422 C4425 1.403 . S
C4423 C4420 1.403 . S
C4423 C4424 1.524 . S
C4423 C4427 1.400 . S
C4424 H4409 0.960 . S
C4424 H4410 0.960 . S
C4424 H4411 0.960 . S
C4424 C4423 1.524 . S
C4425 C4422 1.403 . S
C4425 C4426 1.392 . S
C4425 C4429 1.495 . S
C4426 C4425 1.392 . S
C4426 C4427 1.385 . S
C4426 C4428 1.478 . S
C4427 H4421 0.930 . S
C4427 C4423 1.400 . S
C4427 C4426 1.385 . S
C4428 C4426 1.478 . S
C4428 C4430 1.381 . S
C4428 C4434 1.383 . S
C4429 C4425 1.495 . S
C4429 H4435 0.959 . S
C4429 H4436 0.961 . S
C4429 H4437 0.960 . S
C4430 C4428 1.381 . S
C4430 C4431 1.394 . S
C4430 H4438 0.930 . S
C4431 C4430 1.394 . S
C4431 C4432 1.383 . S
C4431 H4439 0.929 . S
C4432 C4431 1.383 . S
C4432 C4433 1.377 . S
C4433 H4417 0.930 . S
C4433 C4432 1.377 . S
C4433 C4434 1.379 . S
C4434 H4418 0.931 . S
C4434 C4428 1.383 . S
C4434 C4433 1.379 . S
H4435 C4429 0.959 . S
H4436 C4429 0.961 . S
H4437 C4429 0.960 . S
H4438 C4430 0.930 . S
H4439 C4431 0.929 . S
H4440 C4448 0.929 . S
H4441 C4450 0.930 . S
H4442 C4452 0.930 . S
H4443 C4455 0.929 . S
H4444 C4458 0.930 . S
H4445 C4460 0.960 . S
H4446 C4460 0.960 . S
H4447 C4460 0.960 . S
C4448 H4440 0.929 . S
C4448 C4449 1.377 . S
C4448 C4450 1.384 . S
C4449 C4448 1.377 . S
C4449 C4455 1.390 . S
C4450 H4441 0.930 . S
C4450 C4448 1.384 . S
C4450 C4451 1.372 . S
C4451 C4450 1.372 . S
C4451 C4452 1.400 . S
C4451 C4456 1.490 . S
C4452 H4442 0.930 . S
C4452 C4451 1.400 . S
C4452 C4455 1.386 . S
H4453 C4469 0.930 . S
H4454 C4470 0.931 . S
C4455 H4443 0.929 . S
C4455 C4449 1.390 . S
C4455 C4452 1.386 . S
C4456 C4451 1.490 . S
C4456 C4458 1.395 1_545 S
C4456 C4459 1.403 . S
H4457 C4463 0.930 . S
C4458 H4444 0.930 . S
C4458 C4456 1.395 1_565 S
C4458 C4461 1.403 . S
C4459 C4456 1.403 . S
C4459 C4460 1.524 . S
C4459 C4463 1.400 . S
C4460 H4445 0.960 . S
C4460 H4446 0.960 . S
C4460 H4447 0.960 . S
C4460 C4459 1.524 . S
C4461 C4458 1.403 . S
C4461 C4462 1.392 . S
C4461 C4465 1.495 . S
C4462 C4461 1.392 . S
C4462 C4463 1.385 1_565 S
C4462 C4464 1.478 . S
C4463 H4457 0.930 . S
C4463 C4459 1.400 . S
C4463 C4462 1.385 1_545 S
C4464 C4462 1.478 . S
C4464 C4466 1.381 . S
C4464 C4470 1.383 . S
C4465 C4461 1.495 . S
C4465 H4471 0.959 . S
C4465 H4472 0.961 . S
C4465 H4473 0.960 . S
C4466 C4464 1.381 . S
C4466 C4467 1.394 . S
C4466 H4474 0.930 . S
C4467 C4466 1.394 . S
C4467 C4468 1.383 . S
C4467 H4475 0.929 . S
C4468 C4467 1.383 . S
C4468 C4469 1.377 . S
C4469 H4453 0.930 . S
C4469 C4468 1.377 . S
C4469 C4470 1.379 . S
C4470 H4454 0.931 . S
C4470 C4464 1.383 . S
C4470 C4469 1.379 . S
H4471 C4465 0.959 . S
H4472 C4465 0.961 . S
H4473 C4465 0.960 . S
H4474 C4466 0.930 . S
H4475 C4467 0.929 . S
H4476 C4484 0.929 . S
H4477 C4486 0.930 . S
H4478 C4488 0.883 1_556 S
H4479 C4491 0.929 . S
H4480 C4494 0.930 . S
H4481 C4496 0.960 . S
H4482 C4496 0.960 . S
H4483 C4496 0.960 . S
C4484 H4476 0.929 . S
C4484 C4485 1.377 . S
C4484 C4486 1.384 . S
C4485 C4484 1.377 . S
C4485 C4491 1.390 . S
C4486 H4477 0.930 . S
C4486 C4484 1.384 . S
C4486 C4487 1.372 . S
C4487 C4486 1.372 . S
C4487 C4488 1.400 . S
C4487 C4492 1.490 . S
C4488 H4478 0.883 1_554 S
C4488 C4487 1.400 . S
C4488 C4491 1.386 . S
H4489 C4505 0.930 . S
H4490 C4506 0.931 . S
C4491 H4479 0.929 . S
C4491 C4485 1.390 . S
C4491 C4488 1.386 . S
C4492 C4487 1.490 . S
C4492 C4494 1.395 . S
C4492 C4495 1.403 1_554 S
H4493 C4499 0.930 . S
C4494 H4480 0.930 . S
C4494 C4492 1.395 . S
C4494 C4497 1.403 . S
C4495 C4492 1.403 1_556 S
C4495 C4496 1.524 . S
C4495 C4499 1.400 . S
C4496 H4481 0.960 . S
C4496 H4482 0.960 . S
C4496 H4483 0.960 . S
C4496 C4495 1.524 . S
C4497 C4494 1.403 . S
C4497 C4498 1.392 1_554 S
C4497 C4501 1.495 . S
C4498 C4497 1.392 1_556 S
C4498 C4499 1.385 . S
C4498 C4500 1.478 . S
C4499 H4493 0.930 . S
C4499 C4495 1.400 . S
C4499 C4498 1.385 . S
C4500 C4498 1.478 . S
C4500 C4502 1.381 . S
C4500 C4506 1.383 . S
C4501 C4497 1.495 . S
C4501 H4507 0.959 . S
C4501 H4508 0.961 . S
C4501 H4509 0.960 . S
C4502 C4500 1.381 . S
C4502 C4503 1.394 . S
C4502 H4510 0.930 . S
C4503 C4502 1.394 . S
C4503 C4504 1.383 . S
C4503 H4511 0.929 . S
C4504 C4503 1.383 . S
C4504 C4505 1.377 . S
C4505 H4489 0.930 . S
C4505 C4504 1.377 . S
C4505 C4506 1.379 . S
C4506 H4490 0.931 . S
C4506 C4500 1.383 . S
C4506 C4505 1.379 . S
H4507 C4501 0.959 . S
H4508 C4501 0.961 . S
H4509 C4501 0.960 . S
H4510 C4502 0.930 . S
H4511 C4503 0.929 . S
C1929 C901 1.747 . S
C1948 C21 1.745 . S
C1965 C861 1.672 . S
C1984 C42 1.633 . S
C2001 C1901 1.747 1_554 S
C2020 C101 1.743 . S
C2037 C821 1.662 . S
C2056 C122 1.596 . S
C2073 C1482 1.636 . S
C2092 C181 1.687 . S
C2109 C1461 1.699 . S
C2128 C202 1.628 . S
C2145 C1562 1.640 . S
C2164 C261 1.686 . S
C2181 C282 1.642 . S
C2200 C1541 1.695 . S
C2217 C322 1.686 . S
C2236 C1701 1.742 . S
C2253 C1621 1.745 . S
C2272 C362 1.662 . S
C2289 C402 1.600 . S
C2308 C1642 1.585 . S
C2325 C762 1.607 . S
C2344 C442 1.617 . S
C2361 C482 1.663 . S
C2380 C421 1.623 . S
C2397 C541 1.695 . S
C2416 C381 1.671 . S
C2433 C562 1.666 . S
C2452 C1421 1.642 . S
C2469 C341 1.690 1_556 S
C2488 C621 1.669 . S
C2505 C642 1.689 . S
C2524 C1021 1.639 . S
C2541 C701 1.640 . S
C2560 C962 1.671 . S
C2577 C722 1.689 . S
C2596 C1101 1.629 . S
C2613 C781 1.645 . S
C2632 C1042 1.686 . S
C2649 C1202 1.647 . S
C2668 C802 1.641 . S
C2685 C842 1.651 . S
C2704 C1122 1.650 . S
C2721 C882 1.736 . S
C2740 C1181 1.676 . S
C2757 C922 1.737 . S
C2776 C301 1.693 . S
C2793 C981 1.747 . S
C2812 C1861 1.744 1_556 S
C2829 C1821 1.661 . S
C2848 C1002 1.606 . S
C2865 C1061 1.747 . S
C2884 C941 1.743 . S
C2901 C1781 1.672 . S
C2920 C1082 1.607 . S
C2937 C522 1.701 . S
C2956 C1141 1.686 . S
C2973 C1162 1.648 . S
C2992 C501 1.668 1_455 S
C3009 C1221 1.691 . S
C3028 C602 1.680 . S
C3045 C1242 1.643 . S
C3064 C581 1.672 1_455 S
C3081 C1282 1.688 . S
C3100 C741 1.717 1_565 S
C3117 C1322 1.683 . S
C3136 C661 1.716 1_545 S
C3153 C682 1.603 . S
C3172 C1362 1.581 . S
C3189 C1402 1.600 . S
C3208 C1722 1.585 . S
C3225 C1381 1.620 . S
C3244 C1442 1.658 . S
C3261 C1501 1.698 . S
C3280 C1341 1.666 1_554 S
C3297 C461 1.623 . S
C3316 C1522 1.664 . S
C3333 C1581 1.692 . S
C3352 C1301 1.682 . S
C3369 C1602 1.692 . S
C3388 C61 1.652 . S
C3405 C1661 1.646 . S
C3424 C2 1.647 1_655 S
C3441 C141 1.651 . S
C3460 C1682 1.682 . S
C3477 C82 1.641 1_655 S
C3496 C1741 1.661 . S
C3513 C242 1.649 . S
C3532 C1762 1.654 . S
C3549 C1802 1.648 . S
C3568 C162 1.645 . S
C3585 C221 1.695 . S
C3604 C1842 1.740 . S
C3621 C1882 1.738 . S
C3640 C1261 1.702 . S
C3657 C55 1.644 . S
C3676 C15 1.635 . S
C3693 C95 1.646 . S
C3712 C135 1.639 . S
C3729 C175 1.594 . S
C3748 C255 1.595 . S
C3765 C215 1.660 . S
C3784 C295 1.649 . S
C3801 C1375 1.653 . S
C3820 C335 1.653 . S
C3837 C375 1.653 . S
C3856 C455 1.659 . S
C3873 C1295 1.650 . S
C3892 C415 1.644 . S
C3909 C495 1.647 . S
C3928 C535 1.650 . S
C3945 C575 1.650 . S
C3964 C615 1.630 . S
C3981 C655 1.665 . S
C4000 C735 1.656 . S
C4017 C695 1.590 . S
C4036 C775 1.592 . S
C4053 C1855 1.654 . S
C4072 C815 1.660 . S
C4089 C935 1.654 . S
C4108 C855 1.649 . S
C4125 C895 1.655 . S
C4144 C1775 1.644 . S
C4161 C975 1.648 . S
C4180 C1015 1.644 . S
C4197 C1055 1.648 . S
C4216 C1095 1.645 . S
C4233 C1215 1.593 . S
C4252 C1135 1.591 . S
C4269 C1255 1.663 . S
C4288 C1175 1.662 . S
C4305 C1335 1.653 . S
C4324 C1415 1.659 . S
C4341 C1455 1.648 . S
C4360 C1495 1.650 . S
C4377 C1575 1.646 . S
C4396 C1535 1.645 . S
C4413 C1695 1.664 . S
C4432 C1615 1.669 . S
C4449 C1655 1.590 . S
C4468 C1735 1.593 . S
C4485 C1815 1.656 . S
C4504 C1895 1.643 . S
