# Generated by pormake.
# Topology reo, (8)-cn, num edge types: 1
# Building blocks:
#     Node 0, Type 0, BuildingBlock: GIZVER_clean_sbu_0, # of connection points: 8
#     Node 1, Type 0, BuildingBlock: GIZVER_clean_sbu_0, # of connection points: 8
#     Node 2, Type 0, BuildingBlock: GIZVER_clean_sbu_0, # of connection points: 8
#     Edge 3, Type (0, 0), BuildingBlock: FUNLAD_clean_linker_0, # of connection points: 2
#     Edge 4, Type (0, 0), BuildingBlock: FUNLAD_clean_linker_0, # of connection points: 2
#     Edge 5, Type (0, 0), BuildingBlock: FUNLAD_clean_linker_0, # of connection points: 2
#     Edge 6, Type (0, 0), BuildingBlock: FUNLAD_clean_linker_0, # of connection points: 2
#     Edge 7, Type (0, 0), BuildingBlock: FUNLAD_clean_linker_0, # of connection points: 2
#     Edge 8, Type (0, 0), BuildingBlock: FUNLAD_clean_linker_0, # of connection points: 2
#     Edge 9, Type (0, 0), BuildingBlock: FUNLAD_clean_linker_0, # of connection points: 2
#     Edge 10, Type (0, 0), BuildingBlock: FUNLAD_clean_linker_0, # of connection points: 2
#     Edge 11, Type (0, 0), BuildingBlock: FUNLAD_clean_linker_0, # of connection points: 2
#     Edge 12, Type (0, 0), BuildingBlock: FUNLAD_clean_linker_0, # of connection points: 2
#     Edge 13, Type (0, 0), BuildingBlock: FUNLAD_clean_linker_0, # of connection points: 2
#     Edge 14, Type (0, 0), BuildingBlock: FUNLAD_clean_linker_0, # of connection points: 2
# Relax obj value: 0.088
# Max RMSD: 0.194
# Mean RMSD: 0.141
data_MOF--net-reo--node1-GIZVER_clean_sbu_0--edge1-FUNLAD_clean_linker_0
_symmetry_space_group_name_H-M    P1
_symmetry_Int_Tables_number       1
_symmetry_cell_setting            triclinic
loop_
_symmetry_equiv_pos_as_xyz
'x, y, z'
_cell_length_a     27.649831
_cell_length_b     28.448715
_cell_length_c     28.686844
_cell_angle_alpha  105.65482
_cell_angle_beta   93.885729
_cell_angle_gamma 79.709304
loop_
_atom_site_label
_atom_site_type_symbol
_atom_site_fract_x
_atom_site_fract_y
_atom_site_fract_z
_atom_type_partial_charge
Co0 Co 0.04852 0.98165 0.60363 0.0
Co1 Co 0.10979 1.01421 0.56117 0.0
Co2 Co 1.00814 0.03218 0.50937 0.0
O3 O 0.05582 0.98565 0.5383 0.0
H4 H 0.06558 0.95371 0.51589 0.0
O5 O 0.95907 0.07851 0.48138 0.0
Co6 Co 0.97019 0.09148 0.42109 0.0
Co7 Co 0.90765 0.04852 0.44926 0.0
H8 H 0.94642 0.10832 0.50564 0.0
O9 O 0.1683 0.97538 0.56538 0.0
O10 O 0.11151 1.00817 0.62397 0.0
O11 O 0.1077 0.08253 0.56259 0.0
O12 O 0.02643 0.09503 0.55411 0.0
O13 O 0.05927 1.03076 0.4619 0.0
O14 O 0.97868 0.10834 0.36742 0.0
O15 O 0.93848 0.15558 0.43399 0.0
O16 O 1.00651 1.02712 0.40045 0.0
O17 O 0.9909 0.96905 0.46466 0.0
O18 O 0.91577 0.97727 0.4317 0.0
O19 O 0.90857 0.06761 0.39294 0.0
O20 O 0.84731 0.0867 0.44659 0.0
C21 C 0.06753 0.92947 0.64216 0.0
C22 C 0.96536 0.04588 0.60225 0.0
C23 C 0.06679 0.1115 0.56652 0.0
C24 C 0.15566 0.98484 0.61025 0.0
C25 C 0.95407 0.15067 0.3906 0.0
C26 C 0.05069 1.02221 0.41629 0.0
C27 C 0.95601 0.95057 0.43879 0.0
C28 C 0.8638 0.08856 0.40586 0.0
O29 O 0.04386 0.9734 0.66181 0.0
O30 O 0.0812 0.91841 0.59714 0.0
O31 O 0.95758 0.0336 0.55653 0.0
O32 O 1.00942 0.0455 0.61876 0.0
Co33 Co 0.61721 0.03281 0.95442 0.0
Co34 Co 0.56464 0.11587 0.99969 0.0
Co35 Co 0.51331 0.03435 0.01494 0.0
O36 O 0.54787 0.05483 0.96655 0.0
H37 H 0.52811 0.05701 0.93791 0.0
O38 O 0.47981 1.01402 0.06352 0.0
Co39 Co 0.41207 0.03544 0.07977 0.0
Co40 Co 0.46228 0.95396 0.03154 0.0
H41 H 0.50078 1.01067 0.09121 0.0
O42 O 0.58779 0.15885 0.97205 0.0
O43 O 0.63208 0.09559 0.99793 0.0
O44 O 0.55054 0.14027 0.06786 0.0
O45 O 0.55713 0.06255 0.07064 0.0
O46 O 0.46692 0.09882 0.02715 0.0
O47 O 0.35048 0.05304 0.10118 0.0
O48 O 0.41571 1.01084 0.13206 0.0
O49 O 0.39933 0.06694 0.02771 0.0
O50 O 0.4685 1.00688 0.95976 0.0
O51 O 0.47268 0.92958 0.96277 0.0
O52 O 0.39521 0.97223 0.0373 0.0
O53 O 0.44554 0.91066 0.0617 0.0
C54 C 0.66502 0.03635 0.90354 0.0
C55 C 0.60571 0.9662 1.00734 0.0
C56 C 0.56046 0.10764 0.09113 0.0
C57 C 0.62926 0.13733 0.98672 0.0
C58 C 0.36935 1.03101 0.13421 0.0
C59 C 0.42017 0.10247 0.02441 0.0
C60 C 0.461 0.96277 0.94036 0.0
C61 C 0.40259 0.9292 0.04702 0.0
O62 O 0.67993 1.01478 0.9378 0.0
O63 O 0.6188 0.05657 0.90161 0.0
O64 O 0.55916 0.9693 1.00284 0.0
O65 O 0.62571 1.00304 1.00702 0.0
Co66 Co 0.99574 0.45415 0.08415 0.0
Co67 Co 0.97207 0.4306 0.99736 0.0
Co68 Co 1.00717 0.52831 1.00407 0.0
O69 O 0.96958 0.49278 0.03725 0.0
H70 H 0.936 0.50921 0.04349 0.0
O71 O 0.04539 0.56147 0.97021 0.0
Co72 Co 0.02207 0.62301 0.95611 0.0
Co73 Co 0.0933 0.59119 1.00888 0.0
H74 H 0.06112 0.53793 0.94228 0.0
O75 O 0.9147 0.40815 0.99166 0.0
O76 O 0.98258 0.39098 0.03765 0.0
O77 O 1.00997 0.41215 0.93948 0.0
O78 O 0.98999 0.49014 0.93626 0.0
O79 O 0.94569 0.57892 1.00362 0.0
O80 O 1.00363 0.67865 0.93718 0.0
O81 O 0.05576 0.61015 0.90089 0.0
O82 O 0.98296 0.64383 0.01189 0.0
O83 O 0.02148 0.56777 0.072 0.0
O84 O 0.08788 0.60328 0.07742 0.0
O85 O 0.07669 0.6516 0.99489 0.0
O86 O 0.14904 0.59959 0.98228 0.0
C87 C 0.96801 0.43064 0.13736 0.0
C88 C 0.08546 0.44952 0.02901 0.0
C89 C 1.00505 0.44449 0.91591 0.0
C90 C 0.93879 0.38346 0.02049 0.0
C91 C 0.03304 0.65473 0.90174 0.0
C92 C 0.94484 0.6258 0.01527 0.0
C93 C 0.05225 0.59375 0.09685 0.0
C94 C 0.12238 0.64207 0.98214 0.0
O95 O 1.01446 0.42067 0.12769 0.0
O96 O 0.93815 0.45918 0.1151 0.0
O97 O 0.06975 0.47949 1.00336 0.0
O98 O 0.05862 0.44162 0.05912 0.0
C99 C 0.92199 0.42057 0.20696 0.0
C100 C 0.94998 0.40037 0.16492 0.0
C101 C 0.9112 0.38944 0.23441 0.0
C102 C 0.92706 0.33779 0.21905 0.0
C103 C 0.95319 0.3181 0.17604 0.0
C104 C 0.96544 0.34897 0.15007 0.0
C105 C 0.91826 0.30226 0.24602 0.0
C106 C 0.92234 0.31028 0.29459 0.0
C107 C 0.92753 0.26886 0.31858 0.0
C108 C 0.91376 0.27813 0.36701 0.0
C109 C 0.9213 0.23988 0.3906 0.0
C110 C 0.94358 0.19172 0.36641 0.0
H111 H 0.96288 0.21186 0.25815 0.0
C112 C 0.95737 0.1827 0.31809 0.0
C113 C 0.94971 0.22055 0.29466 0.0
H114 H 0.97489 0.14627 0.29821 0.0
H115 H 0.91012 0.4602 0.21941 0.0
H116 H 0.89049 0.4056 0.26725 0.0
H117 H 0.96586 0.27858 0.16327 0.0
H118 H 0.98777 0.33248 0.11832 0.0
H119 H 0.91443 0.26545 0.22403 0.0
H120 H 0.92527 0.34714 0.31707 0.0
H121 H 0.8973 0.31507 0.38667 0.0
H122 H 0.91042 0.24819 0.42789 0.0
C123 C 0.78117 0.13123 0.38583 0.0
C124 C 0.82978 0.11013 0.37222 0.0
C125 C 0.747 0.14606 0.35242 0.0
C126 C 0.7607 0.1399 0.30459 0.0
C127 C 0.81011 0.12251 0.292 0.0
C128 C 0.84438 0.10749 0.32546 0.0
C129 C 0.72366 0.14779 0.26645 0.0
C130 C 0.67826 0.13665 0.2662 0.0
C131 C 0.64429 0.1338 0.2238 0.0
C132 C 0.61436 0.09713 0.21288 0.0
C133 C 0.58562 0.08974 0.17048 0.0
C134 C 0.5854 0.11976 0.13884 0.0
H135 H 0.66434 0.19467 0.20138 0.0
C136 C 0.61306 0.15849 0.15122 0.0
C137 C 0.64252 0.1653 0.19325 0.0
H138 H 0.61368 0.18214 0.1274 0.0
H139 H 0.76896 0.13489 0.42192 0.0
H140 H 0.70958 0.16116 0.36379 0.0
H141 H 0.82168 0.11813 0.25552 0.0
H142 H 0.88176 0.09212 0.31407 0.0
H143 H 0.73599 0.15638 0.23499 0.0
H144 H 0.66796 0.12284 0.29528 0.0
H145 H 0.61483 0.0727 0.23614 0.0
H146 H 0.56445 0.0598 0.16187 0.0
C147 C 0.93488 0.87809 0.37304 0.0
C148 C 0.96601 0.89755 0.41152 0.0
C149 C 0.94898 0.83085 0.34206 0.0
C150 C 0.99445 0.80186 0.34919 0.0
C151 C 0.02414 0.82033 0.3892 0.0
C152 C 1.0101 0.86743 0.42007 0.0
C153 C 1.01489 0.75537 0.3129 0.0
C154 C 0.9876 0.72843 0.2788 0.0
C155 C 1.00909 0.68794 0.23704 0.0
C156 C 0.97969 0.65375 0.21107 0.0
C157 C 0.99544 0.62027 0.16725 0.0
C158 C 0.04081 0.62065 0.14798 0.0
H159 H 0.07937 0.71247 0.23742 0.0
C160 C 0.07152 0.65287 0.17539 0.0
C161 C 0.05584 0.68621 0.21929 0.0
H162 H 0.1066 0.65437 0.16169 0.0
H163 H 0.9008 0.90031 0.36519 0.0
H164 H 0.92534 0.81867 0.31119 0.0
H165 H 0.05933 0.79899 0.39563 0.0
H166 H 0.03494 0.88098 0.44947 0.0
H167 H 0.05448 0.74383 0.31379 0.0
H168 H 0.94779 0.73698 0.28042 0.0
H169 H 0.94351 0.65426 0.22371 0.0
H170 H 0.97068 0.59609 0.14719 0.0
C171 C 0.28726 0.04712 0.17301 0.0
C172 C 0.33775 1.02774 0.17278 0.0
C173 C 0.25705 0.04386 0.20882 0.0
C174 C 0.27646 1.02081 0.24534 0.0
C175 C 0.32711 1.00233 0.2457 0.0
C176 C 0.35739 1.00543 0.20968 0.0
C177 C 0.24502 1.01686 0.28406 0.0
C178 C 0.19664 1.01445 0.27695 0.0
C179 C 0.16257 1.01212 0.31426 0.0
C180 C 0.11579 1.00077 0.29858 0.0
C181 C 0.0805 1.00218 0.33171 0.0
C182 C 0.0908 1.01514 0.38177 0.0
H183 H 0.20892 0.03325 0.3783 0.0
C184 C 0.13816 1.02487 0.39776 0.0
C185 C 0.17368 1.02358 0.3644 0.0
H186 H 0.14723 0.03526 0.4361 0.0
H187 H 0.27088 0.06499 0.14548 0.0
H188 H 0.21864 0.06022 0.20809 0.0
H189 H 0.34325 0.9849 0.27363 0.0
H190 H 0.39616 0.99035 0.2108 0.0
H191 H 0.26282 1.01396 0.31828 0.0
H192 H 0.1807 1.0132 0.24106 0.0
H193 H 0.10596 0.99174 0.26036 0.0
H194 H 0.04457 0.9942 0.31794 0.0
C195 C 0.07783 0.84268 0.6522 0.0
C196 C 0.07775 0.89357 0.67208 0.0
C197 C 0.0786 0.81111 0.68264 0.0
C198 C 0.07997 0.83003 0.73352 0.0
C199 C 0.08292 0.88037 0.75272 0.0
C200 C 0.08158 0.91167 0.72257 0.0
C201 C 0.07493 0.80074 0.76858 0.0
C202 C 0.0713 0.75223 0.75722 0.0
C203 C 0.06141 0.72751 0.79457 0.0
C204 C 0.07987 0.67701 0.78895 0.0
C205 C 0.07083 0.6532 0.82364 0.0
C206 C 0.04231 0.67922 0.8643 0.0
H207 H 0.01597 0.79176 0.83985 0.0
C208 C 0.02303 0.72948 0.86935 0.0
C209 C 0.03235 0.75329 0.83498 0.0
H210 H 1.00074 0.75069 0.90004 0.0
H211 H 0.0746 0.8278 0.61338 0.0
H212 H 0.07638 0.77264 0.66603 0.0
H213 H 0.0844 0.8962 0.79155 0.0
H214 H 0.08197 0.95066 0.73905 0.0
H215 H 0.07317 0.82111 0.80655 0.0
H216 H 0.07632 0.72964 0.72029 0.0
H217 H 0.10186 0.65607 0.75794 0.0
H218 H 0.08612 0.6144 0.81852 0.0
C219 C 0.42043 0.98581 0.8674 0.0
C220 C 0.42715 0.95403 0.898 0.0
C221 C 0.38308 0.98265 0.83196 0.0
C222 C 0.35138 0.94786 0.82668 0.0
C223 C 0.35848 0.91566 0.85683 0.0
C224 C 0.39637 0.91827 0.89181 0.0
C225 C 0.30914 0.94659 0.79187 0.0
C226 C 0.31169 0.95655 0.74901 0.0
C227 C 0.26979 0.95864 0.71418 0.0
C228 C 0.28015 0.94863 0.66504 0.0
C229 C 0.24265 0.95526 0.63135 0.0
C230 C 0.19377 0.97306 0.64609 0.0
H231 H 0.21156 0.9834 0.76686 0.0
C232 C 0.18296 0.98183 0.69519 0.0
C233 C 0.22067 0.97451 0.72902 0.0
H234 H 0.14571 0.99556 0.70768 0.0
H235 H 0.44312 1.01414 0.87181 0.0
H236 H 0.37786 1.00889 0.81012 0.0
H237 H 0.33429 0.88886 0.85374 0.0
H238 H 0.39995 0.8939 0.91551 0.0
H239 H 0.27599 0.9359 0.80118 0.0
H240 H 0.34663 0.96228 0.73811 0.0
H241 H 0.31764 0.93649 0.65272 0.0
H242 H 0.25247 0.94791 0.59384 0.0
C243 C 0.05661 0.41015 0.84331 0.0
C244 C 1.00988 0.4272 0.86326 0.0
C245 C 0.06162 0.38424 0.79457 0.0
C246 C 0.01976 0.37381 0.76531 0.0
C247 C 0.97297 0.39432 0.78475 0.0
C248 C 0.96804 0.42072 0.83343 0.0
C249 C 0.02301 0.33816 0.71642 0.0
C250 C 0.06207 0.30203 0.7027 0.0
C251 C 0.06197 0.25812 0.66042 0.0
C252 C 0.10718 0.22812 0.64532 0.0
C253 C 0.10889 0.18173 0.61233 0.0
C254 C 0.06526 0.16402 0.59383 0.0
H255 H 0.98257 0.26309 0.65045 0.0
C256 C 0.02003 0.19534 0.60639 0.0
C257 C 0.01831 0.24181 0.63945 0.0
H258 H 0.98568 0.18295 0.59276 0.0
H259 H 0.08928 0.41529 0.86586 0.0
H260 H 0.09836 0.37125 0.78069 0.0
H261 H 0.94008 0.3874 0.76305 0.0
H262 H 0.93163 0.43347 0.84843 0.0
H263 H 0.99016 0.33859 0.69351 0.0
H264 H 0.09495 0.30171 0.72555 0.0
H265 H 0.1414 0.23962 0.66081 0.0
H266 H 0.14444 0.15881 0.60325 0.0
C267 C 0.68786 0.06289 0.83158 0.0
C268 C 0.70141 0.03929 0.86889 0.0
C269 C 0.72325 0.06578 0.7999 0.0
C270 C 0.77303 0.04496 0.80487 0.0
C271 C 0.78622 1.02168 0.84234 0.0
C272 C 0.75108 1.01875 0.87372 0.0
C273 C 0.81298 0.04728 0.77323 0.0
C274 C 0.80589 0.05876 0.73026 0.0
C275 C 0.84717 0.05798 0.69868 0.0
C276 C 0.83819 0.05128 0.64869 0.0
C277 C 0.8762 0.04841 0.6176 0.0
C278 C 0.92428 0.05257 0.63573 0.0
H279 H 0.9033 0.07102 0.75548 0.0
C280 C 0.93296 0.06109 0.68598 0.0
C281 C 0.89494 0.06391 0.71708 0.0
H282 H 0.96933 0.06506 0.70137 0.0
H283 H 0.65 0.07944 0.82704 0.0
H284 H 0.71139 0.08499 0.77228 0.0
H285 H 0.82411 1.00548 0.84745 0.0
H286 H 0.76314 1.00045 0.90207 0.0
H287 H 0.85036 0.03642 0.78525 0.0
H288 H 0.76879 0.06598 0.71594 0.0
H289 H 0.80178 0.04719 0.63341 0.0
H290 H 0.86796 0.04214 0.57916 0.0
C291 C 0.16122 0.40352 0.05903 0.0
C292 C 0.13426 0.41756 0.02022 0.0
C293 C 0.20238 0.36598 0.05067 0.0
C294 C 0.21706 0.34094 1.00313 0.0
C295 C 0.19112 0.35621 0.96439 0.0
C296 C 0.15052 0.39466 0.97287 0.0
C297 C 0.25514 0.29536 0.99317 0.0
C298 C 0.2935 0.28802 0.02352 0.0
C299 C 0.32712 0.23973 0.01786 0.0
C300 C 0.37611 0.23913 0.03457 0.0
C301 C 0.40706 0.19437 0.03457 0.0
C302 C 0.38921 0.14923 0.01915 0.0
H303 H 0.27193 0.19352 0.98859 0.0
C304 C 0.34038 0.14975 1.00171 0.0
C305 C 0.30976 0.1944 1.00071 0.0
H306 H 0.32546 0.1156 0.9896 0.0
H307 H 0.14923 0.42024 0.09589 0.0
H308 H 0.22066 0.35465 0.08141 0.0
H309 H 0.20134 0.3373 0.92739 0.0
H310 H 0.12997 0.40418 0.94228 0.0
H311 H 0.25084 0.26663 0.96015 0.0
H312 H 0.30055 0.3184 0.05406 0.0
H313 H 0.39029 0.27352 0.04842 0.0
H314 H 0.44434 0.19534 0.04852 0.0
C315 C 0.19487 0.67139 0.95977 0.0
C316 C 0.14535 0.68133 0.97251 0.0
C317 C 0.21914 0.70972 0.95811 0.0
C318 C 0.19419 0.75903 0.96872 0.0
C319 C 0.14377 0.76842 0.97825 0.0
C320 C 0.11943 0.72991 0.97992 0.0
C321 C 0.22102 0.80151 0.97744 0.0
C322 C 0.26724 0.79658 0.96293 0.0
C323 C 0.29991 0.83226 0.98608 0.0
C324 C 0.34836 0.81333 0.99696 0.0
C325 C 0.38071 0.84506 0.01968 0.0
C326 C 0.3656 0.89657 0.03083 0.0
H327 H 0.24675 0.89919 0.99002 0.0
C328 C 0.31684 0.91574 0.02027 0.0
C329 C 0.28398 0.88374 0.9984 0.0
H330 H 0.30443 0.95535 0.02806 0.0
H331 H 0.21574 0.63428 0.95344 0.0
H332 H 0.25814 0.7003 0.95164 0.0
H333 H 0.12365 0.80595 0.98663 0.0
H334 H 0.08099 0.73866 0.98935 0.0
H335 H 0.20427 0.83635 1.00146 0.0
H336 H 0.28439 0.76231 0.93859 0.0
H337 H 0.36123 0.77372 0.98805 0.0
H338 H 0.41818 0.82905 0.02665 0.0
C339 C 0.71847 0.13969 1.00538 0.0
C340 C 0.67057 0.16471 1.00016 0.0
C341 C 0.75634 0.16633 0.0246 0.0
C342 C 0.74639 0.21827 0.03963 0.0
C343 C 0.69866 0.24307 0.03409 0.0
C344 C 0.66121 0.21662 0.01396 0.0
C345 C 0.7847 0.24847 0.05987 0.0
C346 C 0.82974 0.23837 0.04104 0.0
C347 C 0.86035 0.27733 0.0459 0.0
C348 C 0.91051 0.26359 0.03485 0.0
C349 C 0.93766 0.29883 0.02949 0.0
C350 C 0.91458 0.34794 0.03461 0.0
H351 H 0.79977 0.33987 0.06069 0.0
C352 C 0.86542 0.36223 0.04807 0.0
C353 C 0.83851 0.32745 0.05373 0.0
H354 H 0.84709 0.40007 0.05207 0.0
H355 H 0.72644 0.0996 0.99538 0.0
H356 H 0.79285 0.14635 0.02879 0.0
H357 H 0.69036 0.28316 0.04513 0.0
H358 H 0.62451 0.23686 0.01109 0.0
H359 H 0.77269 0.28382 0.08554 0.0
H360 H 0.84192 0.20259 0.01599 0.0
H361 H 0.92806 0.22523 0.02815 0.0
H362 H 0.97568 0.28725 0.01878 0.0
C363 C 0.85335 0.65204 1.00638 0.0
C364 C 0.89866 0.66126 0.02905 0.0
C365 C 0.81222 0.69011 0.01266 0.0
C366 C 0.8157 0.73796 0.04228 0.0
C367 C 0.86027 0.74565 0.06733 0.0
C368 C 0.90119 0.70806 0.06057 0.0
C369 C 0.77602 0.78209 0.0462 0.0
C370 C 0.73401 0.7837 0.01927 0.0
C371 C 0.70058 0.83128 0.01946 0.0
C372 C 0.65007 0.83174 1.00908 0.0
C373 C 0.61871 0.87569 1.00646 0.0
C374 C 0.63746 0.91999 0.0133 0.0
H375 H 0.75794 0.87684 0.03298 0.0
C376 C 0.68799 0.91938 0.02366 0.0
C377 C 0.71908 0.87577 0.02663 0.0
H378 H 0.70395 0.9526 0.02876 0.0
H379 H 0.85043 0.61633 0.98168 0.0
H380 H 0.77859 0.68204 0.99314 0.0
H381 H 0.86427 0.78171 0.09074 0.0
H382 H 0.93553 0.71622 0.0788 0.0
H383 H 0.78334 0.81631 0.07136 0.0
H384 H 0.72394 0.75003 0.99559 0.0
H385 H 0.63486 0.79795 1.00277 0.0
H386 H 0.58008 0.87469 0.99804 0.0
loop_
_geom_bond_atom_site_label_1
_geom_bond_atom_site_label_2
_geom_bond_distance
_geom_bond_site_symmetry_2
_ccdc_geom_bond_type
Co0 O3 2.042 . S
Co0 O10 2.264 . S
Co0 O29 2.286 . S
Co0 O30 2.069 . S
Co0 O32 2.015 1_455 S
Co1 O3 2.122 1_545 S
Co1 O9 2.073 1_545 S
Co1 O10 2.327 1_545 S
Co1 O11 1.976 . S
Co2 O3 2.087 1_545 S
Co2 O5 2.087 1_455 S
Co2 O12 2.111 . S
Co2 O13 2.143 . S
Co2 O17 2.111 1_445 S
Co2 O31 2.143 1_445 S
O3 Co0 2.042 . S
O3 Co1 2.122 1_565 S
O3 Co2 2.087 1_565 S
O3 H4 0.980 . S
H4 O3 0.980 . S
O5 Co2 2.087 1_655 S
O5 Co6 2.042 . S
O5 Co7 2.122 1_545 S
O5 H8 0.980 . S
Co6 O5 2.042 . S
Co6 O14 2.286 . S
Co6 O15 2.069 . S
Co6 O16 2.015 1_655 S
Co6 O19 2.264 . S
Co7 O5 2.122 1_565 S
Co7 O18 1.976 . S
Co7 O19 2.327 1_565 S
Co7 O20 2.073 1_565 S
H8 O5 0.980 . S
O9 Co1 2.073 1_565 S
O9 C24 1.245 . S
O10 Co0 2.264 . S
O10 Co1 2.327 1_565 S
O10 C24 1.257 . S
O11 Co1 1.976 . S
O11 C23 1.251 . S
O12 Co2 2.111 . S
O12 C23 1.274 . S
O13 Co2 2.143 . S
O13 C26 1.246 1_545 S
O14 Co6 2.286 . S
O14 C25 1.259 . S
O15 Co6 2.069 . S
O15 C25 1.289 . S
O16 Co6 2.015 1_455 S
O16 C26 1.257 1_545 S
O17 Co2 2.111 1_665 S
O17 C27 1.274 . S
O18 Co7 1.976 . S
O18 C27 1.251 . S
O19 Co6 2.264 . S
O19 Co7 2.327 1_545 S
O19 C28 1.257 . S
O20 Co7 2.073 1_545 S
O20 C28 1.245 . S
C21 O29 1.259 . S
C21 O30 1.289 . S
C22 O31 1.246 1_545 S
C22 O32 1.257 1_545 S
C23 O11 1.251 . S
C23 O12 1.274 . S
C24 O9 1.245 . S
C24 O10 1.257 . S
C25 O14 1.259 . S
C25 O15 1.289 . S
C26 O13 1.246 1_565 S
C26 O16 1.257 1_565 S
C27 O17 1.274 . S
C27 O18 1.251 . S
C28 O19 1.257 . S
C28 O20 1.245 . S
O29 Co0 2.286 . S
O29 C21 1.259 . S
O30 Co0 2.069 . S
O30 C21 1.289 . S
O31 Co2 2.143 1_665 S
O31 C22 1.246 1_565 S
O32 Co0 2.015 1_655 S
O32 C22 1.257 1_565 S
Co33 O36 2.042 . S
Co33 O43 2.264 . S
Co33 O62 2.286 1_545 S
Co33 O63 2.069 . S
Co33 O65 2.015 1_545 S
Co34 O36 2.122 1_554 S
Co34 O42 2.073 . S
Co34 O43 2.327 1_554 S
Co34 O44 1.976 . S
Co35 O36 2.087 1_554 S
Co35 O38 2.087 1_545 S
Co35 O45 2.111 . S
Co35 O46 2.143 . S
Co35 O50 2.111 1_544 S
Co35 O64 2.143 1_544 S
O36 Co33 2.042 . S
O36 Co34 2.122 1_556 S
O36 Co35 2.087 1_556 S
O36 H37 0.980 . S
H37 O36 0.980 . S
O38 Co35 2.087 1_565 S
O38 Co39 2.042 . S
O38 Co40 2.122 1_554 S
O38 H41 0.980 . S
Co39 O38 2.042 . S
Co39 O47 2.286 1_565 S
Co39 O48 2.069 . S
Co39 O49 2.015 1_565 S
Co39 O52 2.264 . S
Co40 O38 2.122 1_556 S
Co40 O51 1.976 . S
Co40 O52 2.327 1_556 S
Co40 O53 2.073 . S
H41 O38 0.980 . S
O42 Co34 2.073 . S
O42 C57 1.245 1_554 S
O43 Co33 2.264 . S
O43 Co34 2.327 1_556 S
O43 C57 1.257 . S
O44 Co34 1.976 . S
O44 C56 1.251 . S
O45 Co35 2.111 . S
O45 C56 1.274 . S
O46 Co35 2.143 . S
O46 C59 1.246 . S
O47 Co39 2.286 1_545 S
O47 C58 1.259 1_545 S
O48 Co39 2.069 . S
O48 C58 1.289 . S
O49 Co39 2.015 1_545 S
O49 C59 1.257 . S
O50 Co35 2.111 1_566 S
O50 C60 1.274 . S
O51 Co40 1.976 . S
O51 C60 1.251 . S
O52 Co39 2.264 . S
O52 Co40 2.327 1_554 S
O52 C61 1.257 . S
O53 Co40 2.073 . S
O53 C61 1.245 1_556 S
C54 O62 1.259 1_545 S
C54 O63 1.289 . S
C55 O64 1.246 . S
C55 O65 1.257 . S
C56 O44 1.251 . S
C56 O45 1.274 . S
C57 O42 1.245 1_556 S
C57 O43 1.257 . S
C58 O47 1.259 1_565 S
C58 O48 1.289 . S
C59 O46 1.246 . S
C59 O49 1.257 . S
C60 O50 1.274 . S
C60 O51 1.251 . S
C61 O52 1.257 . S
C61 O53 1.245 1_554 S
O62 Co33 2.286 1_565 S
O62 C54 1.259 1_565 S
O63 Co33 2.069 . S
O63 C54 1.289 . S
O64 Co35 2.143 1_566 S
O64 C55 1.246 . S
O65 Co33 2.015 1_565 S
O65 C55 1.257 . S
Co66 O69 2.042 . S
Co66 O76 2.264 . S
Co66 O95 2.286 1_655 S
Co66 O96 2.069 . S
Co66 O98 2.015 1_655 S
Co67 O69 2.122 1_556 S
Co67 O75 2.073 1_556 S
Co67 O76 2.327 1_556 S
Co67 O77 1.976 . S
Co68 O69 2.087 1_455 S
Co68 O71 2.087 1_554 S
Co68 O78 2.111 1_454 S
Co68 O79 2.143 1_454 S
Co68 O83 2.111 . S
Co68 O97 2.143 . S
O69 Co66 2.042 . S
O69 Co67 2.122 1_554 S
O69 Co68 2.087 1_655 S
O69 H70 0.980 . S
H70 O69 0.980 . S
O71 Co68 2.087 1_556 S
O71 Co72 2.042 . S
O71 Co73 2.122 1_556 S
O71 H74 0.980 . S
Co72 O71 2.042 . S
Co72 O80 2.286 1_455 S
Co72 O81 2.069 . S
Co72 O82 2.015 1_455 S
Co72 O85 2.264 . S
Co73 O71 2.122 1_554 S
Co73 O84 1.976 . S
Co73 O85 2.327 1_554 S
Co73 O86 2.073 1_554 S
H74 O71 0.980 . S
O75 Co67 2.073 1_554 S
O75 C90 1.245 . S
O76 Co66 2.264 . S
O76 Co67 2.327 1_554 S
O76 C90 1.257 . S
O77 Co67 1.976 . S
O77 C89 1.251 . S
O78 Co68 2.111 1_656 S
O78 C89 1.274 . S
O79 Co68 2.143 1_656 S
O79 C92 1.245 . S
O80 Co72 2.286 1_655 S
O80 C91 1.259 1_655 S
O81 Co72 2.069 . S
O81 C91 1.289 . S
O82 Co72 2.015 1_655 S
O82 C92 1.259 . S
O83 Co68 2.111 . S
O83 C93 1.274 . S
O84 Co73 1.976 . S
O84 C93 1.251 . S
O85 Co72 2.264 . S
O85 Co73 2.327 1_556 S
O85 C94 1.257 . S
O86 Co73 2.073 1_556 S
O86 C94 1.245 . S
C87 O95 1.259 1_655 S
C87 O96 1.289 . S
C88 O97 1.244 . S
C88 O98 1.262 . S
C89 O77 1.251 . S
C89 O78 1.274 . S
C90 O75 1.245 . S
C90 O76 1.257 . S
C91 O80 1.259 1_455 S
C91 O81 1.289 . S
C92 O79 1.245 . S
C92 O82 1.259 . S
C93 O83 1.274 . S
C93 O84 1.251 . S
C94 O85 1.257 . S
C94 O86 1.245 . S
O95 Co66 2.286 1_455 S
O95 C87 1.259 1_455 S
O96 Co66 2.069 . S
O96 C87 1.289 . S
O97 Co68 2.143 . S
O97 C88 1.244 . S
O98 Co66 2.015 1_455 S
O98 C88 1.262 . S
C99 C100 1.386 . S
C99 C101 1.383 . S
C99 H115 0.951 . S
C100 C99 1.386 . S
C100 C104 1.383 . S
C101 C99 1.383 . S
C101 C102 1.402 . S
C101 H116 0.951 . S
C102 C101 1.402 . S
C102 C103 1.375 . S
C102 C105 1.481 . S
C103 C102 1.375 . S
C103 C104 1.367 . S
C103 H117 0.951 . S
C104 C100 1.383 . S
C104 C103 1.367 . S
C104 H118 0.950 . S
C105 C102 1.481 . S
C105 C106 1.297 . S
C105 H119 0.950 . S
C106 C105 1.297 . S
C106 C107 1.479 . S
C106 H120 0.950 . S
C107 C106 1.479 . S
C107 C108 1.375 . S
C107 C113 1.404 . S
C108 C107 1.375 . S
C108 C109 1.369 . S
C108 H121 0.950 . S
C109 C108 1.369 . S
C109 C110 1.392 . S
C109 H122 0.951 . S
C110 C109 1.392 . S
C110 C112 1.384 . S
H111 C113 0.949 . S
C112 C110 1.384 . S
C112 C113 1.385 . S
C112 H114 0.950 . S
C113 C107 1.404 . S
C113 H111 0.949 . S
C113 C112 1.385 . S
H114 C112 0.950 . S
H115 C99 0.951 . S
H116 C101 0.951 . S
H117 C103 0.951 . S
H118 C104 0.950 . S
H119 C105 0.950 . S
H120 C106 0.950 . S
H121 C108 0.950 . S
H122 C109 0.951 . S
C123 C124 1.386 . S
C123 C125 1.383 . S
C123 H139 0.951 . S
C124 C123 1.386 . S
C124 C128 1.383 . S
C125 C123 1.383 . S
C125 C126 1.402 . S
C125 H140 0.951 . S
C126 C125 1.402 . S
C126 C127 1.375 . S
C126 C129 1.481 . S
C127 C126 1.375 . S
C127 C128 1.367 . S
C127 H141 0.951 . S
C128 C124 1.383 . S
C128 C127 1.367 . S
C128 H142 0.950 . S
C129 C126 1.481 . S
C129 C130 1.297 . S
C129 H143 0.950 . S
C130 C129 1.297 . S
C130 C131 1.479 . S
C130 H144 0.950 . S
C131 C130 1.479 . S
C131 C132 1.375 . S
C131 C137 1.404 . S
C132 C131 1.375 . S
C132 C133 1.369 . S
C132 H145 0.950 . S
C133 C132 1.369 . S
C133 C134 1.392 . S
C133 H146 0.951 . S
C134 C133 1.392 . S
C134 C136 1.384 . S
H135 C137 0.949 . S
C136 C134 1.384 . S
C136 C137 1.385 . S
C136 H138 0.950 . S
C137 C131 1.404 . S
C137 H135 0.949 . S
C137 C136 1.385 . S
H138 C136 0.950 . S
H139 C123 0.951 . S
H140 C125 0.951 . S
H141 C127 0.951 . S
H142 C128 0.950 . S
H143 C129 0.950 . S
H144 C130 0.950 . S
H145 C132 0.950 . S
H146 C133 0.951 . S
C147 C148 1.386 1_655 S
C147 C149 1.383 . S
C147 H163 0.951 . S
C148 C147 1.386 1_455 S
C148 C152 1.383 . S
C149 C147 1.383 . S
C149 C150 1.402 1_655 S
C149 H164 0.951 . S
C150 C149 1.402 1_455 S
C150 C151 1.375 . S
C150 C153 1.481 . S
C151 C150 1.375 . S
C151 C152 1.367 . S
C151 H165 0.951 . S
C152 C148 1.383 . S
C152 C151 1.367 . S
C152 H166 0.950 . S
C153 C150 1.481 . S
C153 C154 1.297 1_455 S
C153 H167 0.950 . S
C154 C153 1.297 1_655 S
C154 C155 1.479 . S
C154 H168 0.950 . S
C155 C154 1.479 . S
C155 C156 1.375 . S
C155 C161 1.404 1_655 S
C156 C155 1.375 . S
C156 C157 1.369 . S
C156 H169 0.950 . S
C157 C156 1.369 . S
C157 C158 1.392 . S
C157 H170 0.951 . S
C158 C157 1.392 . S
C158 C160 1.384 1_655 S
H159 C161 0.949 . S
C160 C158 1.384 1_455 S
C160 C161 1.385 . S
C160 H162 0.950 . S
C161 C155 1.404 1_455 S
C161 H159 0.949 . S
C161 C160 1.385 . S
H162 C160 0.950 . S
H163 C147 0.951 . S
H164 C149 0.951 . S
H165 C151 0.951 . S
H166 C152 0.950 . S
H167 C153 0.950 . S
H168 C154 0.950 . S
H169 C156 0.950 . S
H170 C157 0.951 . S
C171 C172 1.386 . S
C171 C173 1.383 . S
C171 H187 0.951 . S
C172 C171 1.386 . S
C172 C176 1.383 . S
C173 C171 1.383 . S
C173 C174 1.402 . S
C173 H188 0.951 . S
C174 C173 1.402 . S
C174 C175 1.375 . S
C174 C177 1.481 . S
C175 C174 1.375 . S
C175 C176 1.367 . S
C175 H189 0.951 1_565 S
C176 C172 1.383 . S
C176 C175 1.367 . S
C176 H190 0.950 1_565 S
C177 C174 1.481 . S
C177 C178 1.297 . S
C177 H191 0.950 . S
C178 C177 1.297 . S
C178 C179 1.479 . S
C178 H192 0.950 . S
C179 C178 1.479 . S
C179 C180 1.375 . S
C179 C185 1.404 . S
C180 C179 1.375 . S
C180 C181 1.369 . S
C180 H193 0.950 . S
C181 C180 1.369 . S
C181 C182 1.392 . S
C181 H194 0.951 . S
C182 C181 1.392 . S
C182 C184 1.384 . S
H183 C185 0.949 . S
C184 C182 1.384 . S
C184 C185 1.385 . S
C184 H186 0.950 . S
C185 C179 1.404 . S
C185 H183 0.949 . S
C185 C184 1.385 . S
H186 C184 0.950 . S
H187 C171 0.951 . S
H188 C173 0.951 . S
H189 C175 0.951 1_545 S
H190 C176 0.950 1_545 S
H191 C177 0.950 . S
H192 C178 0.950 . S
H193 C180 0.950 . S
H194 C181 0.951 . S
C195 C196 1.386 . S
C195 C197 1.383 . S
C195 H211 0.951 . S
C196 C195 1.386 . S
C196 C200 1.383 . S
C197 C195 1.383 . S
C197 C198 1.402 . S
C197 H212 0.951 . S
C198 C197 1.402 . S
C198 C199 1.365 1_455 S
C198 C201 1.481 . S
C199 C198 1.365 1_655 S
C199 C200 1.362 1_655 S
C199 H213 0.967 . S
C200 C196 1.383 . S
C200 C199 1.362 1_455 S
C200 H214 0.950 1_455 S
C201 C198 1.481 . S
C201 C202 1.297 . S
C201 H215 0.950 1_455 S
C202 C201 1.297 . S
C202 C203 1.479 . S
C202 H216 0.950 . S
C203 C202 1.479 . S
C203 C204 1.375 . S
C203 C209 1.404 . S
C204 C203 1.375 . S
C204 C205 1.369 . S
C204 H217 0.950 . S
C205 C204 1.369 . S
C205 C206 1.392 . S
C205 H218 0.951 . S
C206 C205 1.392 . S
C206 C208 1.384 1_455 S
H207 C209 0.949 1_655 S
C208 C206 1.384 1_655 S
C208 C209 1.385 1_655 S
C208 H210 0.950 . S
C209 C203 1.404 . S
C209 H207 0.949 1_455 S
C209 C208 1.385 1_455 S
H210 C208 0.950 . S
H211 C195 0.951 . S
H212 C197 0.951 . S
H213 C199 0.967 . S
H214 C200 0.950 1_655 S
H215 C201 0.950 1_655 S
H216 C202 0.950 . S
H217 C204 0.950 . S
H218 C205 0.951 . S
C219 C220 1.386 . S
C219 C221 1.383 . S
C219 H235 0.951 1_565 S
C220 C219 1.386 . S
C220 C224 1.383 . S
C221 C219 1.383 . S
C221 C222 1.402 . S
C221 H236 0.951 . S
C222 C221 1.402 . S
C222 C223 1.375 . S
C222 C225 1.481 . S
C223 C222 1.375 . S
C223 C224 1.367 . S
C223 H237 0.951 . S
C224 C220 1.383 . S
C224 C223 1.367 . S
C224 H238 0.950 . S
C225 C222 1.481 . S
C225 C226 1.297 . S
C225 H239 0.950 . S
C226 C225 1.297 . S
C226 C227 1.479 . S
C226 H240 0.950 . S
C227 C226 1.479 . S
C227 C228 1.375 . S
C227 C233 1.404 . S
C228 C227 1.375 . S
C228 C229 1.369 . S
C228 H241 0.950 . S
C229 C228 1.369 . S
C229 C230 1.392 . S
C229 H242 0.951 . S
C230 C229 1.392 . S
C230 C232 1.384 . S
H231 C233 0.949 . S
C232 C230 1.384 . S
C232 C233 1.385 . S
C232 H234 0.950 . S
C233 C227 1.404 . S
C233 H231 0.949 . S
C233 C232 1.385 . S
H234 C232 0.950 . S
H235 C219 0.951 1_545 S
H236 C221 0.951 . S
H237 C223 0.951 . S
H238 C224 0.950 . S
H239 C225 0.950 . S
H240 C226 0.950 . S
H241 C228 0.950 . S
H242 C229 0.951 . S
C243 C244 1.386 . S
C243 C245 1.383 . S
C243 H259 0.951 . S
C244 C243 1.386 . S
C244 C248 1.383 1_455 S
C245 C243 1.383 . S
C245 C246 1.402 1_455 S
C245 H260 0.951 . S
C246 C245 1.402 1_655 S
C246 C247 1.375 . S
C246 C249 1.481 . S
C247 C246 1.375 . S
C247 C248 1.367 . S
C247 H261 0.951 . S
C248 C244 1.383 1_655 S
C248 C247 1.367 . S
C248 H262 0.950 . S
C249 C246 1.481 . S
C249 C250 1.297 . S
C249 H263 0.950 . S
C250 C249 1.297 . S
C250 C251 1.479 . S
C250 H264 0.950 1_655 S
C251 C250 1.479 . S
C251 C252 1.375 1_655 S
C251 C257 1.404 . S
C252 C251 1.375 1_455 S
C252 C253 1.369 . S
C252 H265 0.950 . S
C253 C252 1.369 . S
C253 C254 1.392 1_455 S
C253 H266 0.951 . S
C254 C253 1.392 1_655 S
C254 C256 1.384 . S
H255 C257 0.949 . S
C256 C254 1.384 . S
C256 C257 1.385 . S
C256 H258 0.950 . S
C257 C251 1.404 . S
C257 H255 0.949 . S
C257 C256 1.385 . S
H258 C256 0.950 . S
H259 C243 0.951 . S
H260 C245 0.951 . S
H261 C247 0.951 . S
H262 C248 0.950 . S
H263 C249 0.950 . S
H264 C250 0.950 1_455 S
H265 C252 0.950 . S
H266 C253 0.951 . S
C267 C268 1.386 . S
C267 C269 1.383 . S
C267 H283 0.951 . S
C268 C267 1.386 . S
C268 C272 1.383 1_545 S
C269 C267 1.383 . S
C269 C270 1.402 . S
C269 H284 0.951 . S
C270 C269 1.402 . S
C270 C271 1.375 1_545 S
C270 C273 1.481 1_545 S
C271 C270 1.375 1_565 S
C271 C272 1.367 . S
C271 H285 0.951 . S
C272 C268 1.383 1_565 S
C272 C271 1.367 . S
C272 H286 0.950 . S
C273 C270 1.481 1_565 S
C273 C274 1.297 1_565 S
C273 H287 0.950 . S
C274 C273 1.297 1_545 S
C274 C275 1.479 . S
C274 H288 0.950 . S
C275 C274 1.479 . S
C275 C276 1.375 . S
C275 C281 1.404 1_545 S
C276 C275 1.375 . S
C276 C277 1.369 . S
C276 H289 0.950 . S
C277 C276 1.369 . S
C277 C278 1.392 . S
C277 H290 0.951 . S
C278 C277 1.392 . S
C278 C280 1.384 1_545 S
H279 C281 0.949 . S
C280 C278 1.384 1_565 S
C280 C281 1.385 . S
C280 H282 0.950 . S
C281 C275 1.404 1_565 S
C281 H279 0.949 . S
C281 C280 1.385 . S
H282 C280 0.950 . S
H283 C267 0.951 . S
H284 C269 0.951 . S
H285 C271 0.951 . S
H286 C272 0.950 . S
H287 C273 0.950 . S
H288 C274 0.950 . S
H289 C276 0.950 . S
H290 C277 0.951 . S
C291 C292 1.386 1_554 S
C291 C293 1.383 . S
C291 H307 0.951 . S
C292 C291 1.386 1_556 S
C292 C296 1.383 . S
C293 C291 1.383 . S
C293 C294 1.402 1_554 S
C293 H308 0.951 . S
C294 C293 1.402 1_556 S
C294 C295 1.375 . S
C294 C297 1.487 . S
C295 C294 1.375 . S
C295 C296 1.367 . S
C295 H309 0.951 . S
C296 C292 1.383 . S
C296 C295 1.367 . S
C296 H310 0.950 . S
C297 C294 1.487 . S
C297 C298 1.287 1_556 S
C297 H311 0.955 . S
C298 C297 1.287 1_554 S
C298 C299 1.479 . S
C298 H312 0.950 . S
C299 C298 1.479 . S
C299 C300 1.375 . S
C299 C305 1.404 . S
C300 C299 1.375 . S
C300 C301 1.369 . S
C300 H313 0.950 . S
C301 C300 1.369 . S
C301 C302 1.392 . S
C301 H314 0.951 . S
C302 C301 1.392 . S
C302 C304 1.384 1_554 S
H303 C305 0.948 1_556 S
C304 C302 1.384 1_556 S
C304 C305 1.385 1_556 S
C304 H306 0.950 . S
C305 C299 1.404 . S
C305 H303 0.948 1_554 S
C305 C304 1.385 1_554 S
H306 C304 0.950 . S
H307 C291 0.951 . S
H308 C293 0.951 . S
H309 C295 0.951 . S
H310 C296 0.950 . S
H311 C297 0.955 . S
H312 C298 0.950 . S
H313 C300 0.950 . S
H314 C301 0.951 . S
C315 C316 1.386 . S
C315 C317 1.383 . S
C315 H331 0.951 . S
C316 C315 1.386 . S
C316 C320 1.383 1_556 S
C317 C315 1.383 . S
C317 C318 1.402 1_556 S
C317 H332 0.951 . S
C318 C317 1.402 1_554 S
C318 C319 1.375 . S
C318 C321 1.481 . S
C319 C318 1.375 . S
C319 C320 1.367 . S
C319 H333 0.951 . S
C320 C316 1.383 1_554 S
C320 C319 1.367 . S
C320 H334 0.950 . S
C321 C318 1.481 . S
C321 C322 1.297 1_554 S
C321 H335 0.950 . S
C322 C321 1.297 1_556 S
C322 C323 1.479 1_556 S
C322 H336 0.950 . S
C323 C322 1.479 1_554 S
C323 C324 1.375 1_554 S
C323 C329 1.404 . S
C324 C323 1.375 1_556 S
C324 C325 1.369 . S
C324 H337 0.950 . S
C325 C324 1.369 . S
C325 C326 1.392 1_556 S
C325 H338 0.951 . S
C326 C325 1.392 1_554 S
C326 C328 1.384 . S
H327 C329 0.949 . S
C328 C326 1.384 . S
C328 C329 1.385 . S
C328 H330 0.950 . S
C329 C323 1.404 . S
C329 H327 0.949 . S
C329 C328 1.385 . S
H330 C328 0.950 . S
H331 C315 0.951 . S
H332 C317 0.951 . S
H333 C319 0.951 . S
H334 C320 0.950 . S
H335 C321 0.950 . S
H336 C322 0.950 . S
H337 C324 0.950 . S
H338 C325 0.951 . S
C339 C340 1.386 . S
C339 C341 1.383 . S
C339 H355 0.951 . S
C340 C339 1.386 . S
C340 C344 1.383 1_556 S
C341 C339 1.383 . S
C341 C342 1.395 1_556 S
C341 H356 0.951 . S
C342 C341 1.395 1_554 S
C342 C343 1.383 . S
C342 C345 1.480 . S
C343 C342 1.383 . S
C343 C344 1.367 . S
C343 H357 0.951 . S
C344 C340 1.383 1_554 S
C344 C343 1.367 . S
C344 H358 0.950 . S
C345 C342 1.480 . S
C345 C346 1.297 1_554 S
C345 H359 0.950 . S
C346 C345 1.297 1_556 S
C346 C347 1.480 1_556 S
C346 H360 0.950 . S
C347 C346 1.480 1_554 S
C347 C348 1.368 1_554 S
C347 C353 1.410 . S
C348 C347 1.368 1_556 S
C348 C349 1.369 . S
C348 H361 0.950 . S
C349 C348 1.369 . S
C349 C350 1.392 1_556 S
C349 H362 0.951 . S
C350 C349 1.392 1_554 S
C350 C352 1.384 . S
H351 C353 0.949 . S
C352 C350 1.384 . S
C352 C353 1.385 . S
C352 H354 0.950 . S
C353 C347 1.410 . S
C353 H351 0.949 . S
C353 C352 1.385 . S
H354 C352 0.950 . S
H355 C339 0.951 . S
H356 C341 0.951 . S
H357 C343 0.951 . S
H358 C344 0.950 . S
H359 C345 0.950 . S
H360 C346 0.950 . S
H361 C348 0.950 . S
H362 C349 0.951 . S
C363 C364 1.386 . S
C363 C365 1.383 . S
C363 H379 0.951 . S
C364 C363 1.386 . S
C364 C368 1.375 1_554 S
C365 C363 1.383 . S
C365 C366 1.402 . S
C365 H380 0.951 . S
C366 C365 1.402 . S
C366 C367 1.372 1_554 S
C366 C369 1.481 . S
C367 C366 1.372 1_556 S
C367 C368 1.368 . S
C367 H381 0.957 . S
C368 C364 1.375 1_556 S
C368 C367 1.368 . S
C368 H382 0.955 . S
C369 C366 1.481 . S
C369 C370 1.297 . S
C369 H383 0.943 1_554 S
C370 C369 1.297 . S
C370 C371 1.479 . S
C370 H384 0.950 . S
C371 C370 1.479 . S
C371 C372 1.375 . S
C371 C377 1.404 . S
C372 C371 1.375 . S
C372 C373 1.369 . S
C372 H385 0.950 . S
C373 C372 1.369 . S
C373 C374 1.392 . S
C373 H386 0.951 . S
C374 C373 1.392 . S
C374 C376 1.384 1_554 S
H375 C377 0.949 . S
C376 C374 1.384 1_556 S
C376 C377 1.385 1_556 S
C376 H378 0.950 . S
C377 C371 1.404 . S
C377 H375 0.949 . S
C377 C376 1.385 1_554 S
H378 C376 0.950 . S
H379 C363 0.951 . S
H380 C365 0.951 . S
H381 C367 0.957 . S
H382 C368 0.955 . S
H383 C369 0.943 1_556 S
H384 C370 0.950 . S
H385 C372 0.950 . S
H386 C373 0.951 . S
C100 C87 1.823 . S
C110 C25 1.805 . S
C124 C28 1.163 . S
C134 C56 1.020 . S
C148 C27 1.047 1_455 S
C158 C93 1.116 1_655 S
C172 C58 2.017 . S
C182 C26 1.924 . S
C196 C21 1.752 . S
C206 C91 1.796 . S
C220 C60 1.049 . S
C230 C24 1.181 . S
C244 C89 1.005 1_455 S
C254 C23 1.110 1_655 S
C268 C54 1.998 . S
C278 C22 1.850 . S
C292 C88 2.066 1_556 S
C302 C59 2.105 . S
C316 C94 1.038 . S
C326 C61 1.080 . S
C340 C57 1.051 . S
C350 C90 1.017 . S
C364 C92 2.076 1_554 S
C374 C55 2.147 1_554 S
