# Generated by pormake.
# Topology ukn, (4)-cn, num edge types: 1
# Building blocks:
#     Node 0, Type 0, BuildingBlock: GALJAG_clean_sbu_0, # of connection points: 4
#     Node 1, Type 0, BuildingBlock: GALJAG_clean_sbu_0, # of connection points: 4
#     Node 2, Type 0, BuildingBlock: GALJAG_clean_sbu_0, # of connection points: 4
#     Node 3, Type 0, BuildingBlock: GALJAG_clean_sbu_0, # of connection points: 4
#     Node 4, Type 0, BuildingBlock: GALJAG_clean_sbu_0, # of connection points: 4
#     Node 5, Type 0, BuildingBlock: GALJAG_clean_sbu_0, # of connection points: 4
#     Node 6, Type 0, BuildingBlock: GALJAG_clean_sbu_0, # of connection points: 4
#     Node 7, Type 0, BuildingBlock: GALJAG_clean_sbu_0, # of connection points: 4
#     Node 8, Type 0, BuildingBlock: GALJAG_clean_sbu_0, # of connection points: 4
#     Node 9, Type 0, BuildingBlock: GALJAG_clean_sbu_0, # of connection points: 4
#     Node 10, Type 0, BuildingBlock: GALJAG_clean_sbu_0, # of connection points: 4
#     Node 11, Type 0, BuildingBlock: GALJAG_clean_sbu_0, # of connection points: 4
#     Node 12, Type 0, BuildingBlock: GALJAG_clean_sbu_0, # of connection points: 4
#     Node 13, Type 0, BuildingBlock: GALJAG_clean_sbu_0, # of connection points: 4
#     Node 14, Type 0, BuildingBlock: GALJAG_clean_sbu_0, # of connection points: 4
#     Node 15, Type 0, BuildingBlock: GALJAG_clean_sbu_0, # of connection points: 4
#     Node 16, Type 0, BuildingBlock: GALJAG_clean_sbu_0, # of connection points: 4
#     Node 17, Type 0, BuildingBlock: GALJAG_clean_sbu_0, # of connection points: 4
#     Node 18, Type 0, BuildingBlock: GALJAG_clean_sbu_0, # of connection points: 4
#     Node 19, Type 0, BuildingBlock: GALJAG_clean_sbu_0, # of connection points: 4
#     Node 20, Type 0, BuildingBlock: GALJAG_clean_sbu_0, # of connection points: 4
#     Node 21, Type 0, BuildingBlock: GALJAG_clean_sbu_0, # of connection points: 4
#     Node 22, Type 0, BuildingBlock: GALJAG_clean_sbu_0, # of connection points: 4
#     Node 23, Type 0, BuildingBlock: GALJAG_clean_sbu_0, # of connection points: 4
#     Node 24, Type 0, BuildingBlock: GALJAG_clean_sbu_0, # of connection points: 4
#     Node 25, Type 0, BuildingBlock: GALJAG_clean_sbu_0, # of connection points: 4
#     Node 26, Type 0, BuildingBlock: GALJAG_clean_sbu_0, # of connection points: 4
#     Node 27, Type 0, BuildingBlock: GALJAG_clean_sbu_0, # of connection points: 4
#     Node 28, Type 0, BuildingBlock: GALJAG_clean_sbu_0, # of connection points: 4
#     Node 29, Type 0, BuildingBlock: GALJAG_clean_sbu_0, # of connection points: 4
#     Node 30, Type 0, BuildingBlock: GALJAG_clean_sbu_0, # of connection points: 4
#     Node 31, Type 0, BuildingBlock: GALJAG_clean_sbu_0, # of connection points: 4
#     Node 32, Type 0, BuildingBlock: GALJAG_clean_sbu_0, # of connection points: 4
#     Node 33, Type 0, BuildingBlock: GALJAG_clean_sbu_0, # of connection points: 4
#     Node 34, Type 0, BuildingBlock: GALJAG_clean_sbu_0, # of connection points: 4
#     Node 35, Type 0, BuildingBlock: GALJAG_clean_sbu_0, # of connection points: 4
#     Edge 36, Type (0, 0), BuildingBlock: AJUNOK_clean_linker_0, # of connection points: 2
#     Edge 37, Type (0, 0), BuildingBlock: AJUNOK_clean_linker_0, # of connection points: 2
#     Edge 38, Type (0, 0), BuildingBlock: AJUNOK_clean_linker_0, # of connection points: 2
#     Edge 39, Type (0, 0), BuildingBlock: AJUNOK_clean_linker_0, # of connection points: 2
#     Edge 40, Type (0, 0), BuildingBlock: AJUNOK_clean_linker_0, # of connection points: 2
#     Edge 41, Type (0, 0), BuildingBlock: AJUNOK_clean_linker_0, # of connection points: 2
#     Edge 42, Type (0, 0), BuildingBlock: AJUNOK_clean_linker_0, # of connection points: 2
#     Edge 43, Type (0, 0), BuildingBlock: AJUNOK_clean_linker_0, # of connection points: 2
#     Edge 44, Type (0, 0), BuildingBlock: AJUNOK_clean_linker_0, # of connection points: 2
#     Edge 45, Type (0, 0), BuildingBlock: AJUNOK_clean_linker_0, # of connection points: 2
#     Edge 46, Type (0, 0), BuildingBlock: AJUNOK_clean_linker_0, # of connection points: 2
#     Edge 47, Type (0, 0), BuildingBlock: AJUNOK_clean_linker_0, # of connection points: 2
#     Edge 48, Type (0, 0), BuildingBlock: AJUNOK_clean_linker_0, # of connection points: 2
#     Edge 49, Type (0, 0), BuildingBlock: AJUNOK_clean_linker_0, # of connection points: 2
#     Edge 50, Type (0, 0), BuildingBlock: AJUNOK_clean_linker_0, # of connection points: 2
#     Edge 51, Type (0, 0), BuildingBlock: AJUNOK_clean_linker_0, # of connection points: 2
#     Edge 52, Type (0, 0), BuildingBlock: AJUNOK_clean_linker_0, # of connection points: 2
#     Edge 53, Type (0, 0), BuildingBlock: AJUNOK_clean_linker_0, # of connection points: 2
#     Edge 54, Type (0, 0), BuildingBlock: AJUNOK_clean_linker_0, # of connection points: 2
#     Edge 55, Type (0, 0), BuildingBlock: AJUNOK_clean_linker_0, # of connection points: 2
#     Edge 56, Type (0, 0), BuildingBlock: AJUNOK_clean_linker_0, # of connection points: 2
#     Edge 57, Type (0, 0), BuildingBlock: AJUNOK_clean_linker_0, # of connection points: 2
#     Edge 58, Type (0, 0), BuildingBlock: AJUNOK_clean_linker_0, # of connection points: 2
#     Edge 59, Type (0, 0), BuildingBlock: AJUNOK_clean_linker_0, # of connection points: 2
#     Edge 60, Type (0, 0), BuildingBlock: AJUNOK_clean_linker_0, # of connection points: 2
#     Edge 61, Type (0, 0), BuildingBlock: AJUNOK_clean_linker_0, # of connection points: 2
#     Edge 62, Type (0, 0), BuildingBlock: AJUNOK_clean_linker_0, # of connection points: 2
#     Edge 63, Type (0, 0), BuildingBlock: AJUNOK_clean_linker_0, # of connection points: 2
#     Edge 64, Type (0, 0), BuildingBlock: AJUNOK_clean_linker_0, # of connection points: 2
#     Edge 65, Type (0, 0), BuildingBlock: AJUNOK_clean_linker_0, # of connection points: 2
#     Edge 66, Type (0, 0), BuildingBlock: AJUNOK_clean_linker_0, # of connection points: 2
#     Edge 67, Type (0, 0), BuildingBlock: AJUNOK_clean_linker_0, # of connection points: 2
#     Edge 68, Type (0, 0), BuildingBlock: AJUNOK_clean_linker_0, # of connection points: 2
#     Edge 69, Type (0, 0), BuildingBlock: AJUNOK_clean_linker_0, # of connection points: 2
#     Edge 70, Type (0, 0), BuildingBlock: AJUNOK_clean_linker_0, # of connection points: 2
#     Edge 71, Type (0, 0), BuildingBlock: AJUNOK_clean_linker_0, # of connection points: 2
#     Edge 72, Type (0, 0), BuildingBlock: AJUNOK_clean_linker_0, # of connection points: 2
#     Edge 73, Type (0, 0), BuildingBlock: AJUNOK_clean_linker_0, # of connection points: 2
#     Edge 74, Type (0, 0), BuildingBlock: AJUNOK_clean_linker_0, # of connection points: 2
#     Edge 75, Type (0, 0), BuildingBlock: AJUNOK_clean_linker_0, # of connection points: 2
#     Edge 76, Type (0, 0), BuildingBlock: AJUNOK_clean_linker_0, # of connection points: 2
#     Edge 77, Type (0, 0), BuildingBlock: AJUNOK_clean_linker_0, # of connection points: 2
#     Edge 78, Type (0, 0), BuildingBlock: AJUNOK_clean_linker_0, # of connection points: 2
#     Edge 79, Type (0, 0), BuildingBlock: AJUNOK_clean_linker_0, # of connection points: 2
#     Edge 80, Type (0, 0), BuildingBlock: AJUNOK_clean_linker_0, # of connection points: 2
#     Edge 81, Type (0, 0), BuildingBlock: AJUNOK_clean_linker_0, # of connection points: 2
#     Edge 82, Type (0, 0), BuildingBlock: AJUNOK_clean_linker_0, # of connection points: 2
#     Edge 83, Type (0, 0), BuildingBlock: AJUNOK_clean_linker_0, # of connection points: 2
#     Edge 84, Type (0, 0), BuildingBlock: AJUNOK_clean_linker_0, # of connection points: 2
#     Edge 85, Type (0, 0), BuildingBlock: AJUNOK_clean_linker_0, # of connection points: 2
#     Edge 86, Type (0, 0), BuildingBlock: AJUNOK_clean_linker_0, # of connection points: 2
#     Edge 87, Type (0, 0), BuildingBlock: AJUNOK_clean_linker_0, # of connection points: 2
#     Edge 88, Type (0, 0), BuildingBlock: AJUNOK_clean_linker_0, # of connection points: 2
#     Edge 89, Type (0, 0), BuildingBlock: AJUNOK_clean_linker_0, # of connection points: 2
#     Edge 90, Type (0, 0), BuildingBlock: AJUNOK_clean_linker_0, # of connection points: 2
#     Edge 91, Type (0, 0), BuildingBlock: AJUNOK_clean_linker_0, # of connection points: 2
#     Edge 92, Type (0, 0), BuildingBlock: AJUNOK_clean_linker_0, # of connection points: 2
#     Edge 93, Type (0, 0), BuildingBlock: AJUNOK_clean_linker_0, # of connection points: 2
#     Edge 94, Type (0, 0), BuildingBlock: AJUNOK_clean_linker_0, # of connection points: 2
#     Edge 95, Type (0, 0), BuildingBlock: AJUNOK_clean_linker_0, # of connection points: 2
#     Edge 96, Type (0, 0), BuildingBlock: AJUNOK_clean_linker_0, # of connection points: 2
#     Edge 97, Type (0, 0), BuildingBlock: AJUNOK_clean_linker_0, # of connection points: 2
#     Edge 98, Type (0, 0), BuildingBlock: AJUNOK_clean_linker_0, # of connection points: 2
#     Edge 99, Type (0, 0), BuildingBlock: AJUNOK_clean_linker_0, # of connection points: 2
#     Edge 100, Type (0, 0), BuildingBlock: AJUNOK_clean_linker_0, # of connection points: 2
#     Edge 101, Type (0, 0), BuildingBlock: AJUNOK_clean_linker_0, # of connection points: 2
#     Edge 102, Type (0, 0), BuildingBlock: AJUNOK_clean_linker_0, # of connection points: 2
#     Edge 103, Type (0, 0), BuildingBlock: AJUNOK_clean_linker_0, # of connection points: 2
#     Edge 104, Type (0, 0), BuildingBlock: AJUNOK_clean_linker_0, # of connection points: 2
#     Edge 105, Type (0, 0), BuildingBlock: AJUNOK_clean_linker_0, # of connection points: 2
#     Edge 106, Type (0, 0), BuildingBlock: AJUNOK_clean_linker_0, # of connection points: 2
#     Edge 107, Type (0, 0), BuildingBlock: AJUNOK_clean_linker_0, # of connection points: 2
# Relax obj value: 0.060
# Max RMSD: 0.091
# Mean RMSD: 0.091
data_MOF--net-ukn--node1-GALJAG_clean_sbu_0--edge1-AJUNOK_clean_linker_0
_symmetry_space_group_name_H-M    P1
_symmetry_Int_Tables_number       1
_symmetry_cell_setting            triclinic
loop_
_symmetry_equiv_pos_as_xyz
'x, y, z'
_cell_length_a     76.735033
_cell_length_b     76.732099
_cell_length_c     20.542792
_cell_angle_alpha  89.99627
_cell_angle_beta   89.999821
_cell_angle_gamma 119.94765
loop_
_atom_site_label
_atom_site_type_symbol
_atom_site_fract_x
_atom_site_fract_y
_atom_site_fract_z
_atom_type_partial_charge
In0 In 0.07765 0.30148 0.08782 0.0
O1 O 0.09085 0.28048 0.09977 0.0
O2 O 0.11041 0.31228 0.10038 0.0
C3 C 0.03801 0.27916 0.06723 0.0
C4 C 0.07897 0.31672 0.20696 0.0
C5 C 0.08526 0.31738 0.9674 0.0
O6 O 0.04908 0.27124 0.06882 0.0
O7 O 0.04693 0.29777 0.07904 0.0
O8 O 0.08698 0.32779 0.01734 0.0
O9 O 0.08043 0.29939 0.97896 0.0
C10 C 0.10864 0.2951 0.10522 0.0
O11 O 0.08513 0.32762 0.1565 0.0
O12 O 0.07172 0.29811 0.19675 0.0
In13 In 0.69701 0.77925 0.08601 0.0
O14 O 0.71433 0.8137 0.09903 0.0
O15 O 0.68231 0.79786 0.09318 0.0
C16 C 0.72068 0.76385 0.0588 0.0
C17 C 0.68316 0.76411 0.20513 0.0
C18 C 0.68233 0.77238 0.96472 0.0
O19 O 0.72809 0.78261 0.06787 0.0
O20 O 0.70192 0.75339 0.06761 0.0
O21 O 0.67143 0.76287 0.01309 0.0
O22 O 0.70026 0.78531 0.97828 0.0
C23 C 0.69824 0.8146 0.09813 0.0
O24 O 0.67216 0.75799 0.15486 0.0
O25 O 0.70119 0.77759 0.19473 0.0
In26 In 0.22002 0.91963 0.09625 0.0
O27 O 0.23989 0.9144 0.167 0.0
O28 O 0.2208 0.92456 0.20578 0.0
C29 C 0.22767 0.91035 0.97754 0.0
C30 C 0.18294 0.88772 0.10062 0.0
C31 C 0.23657 0.95874 0.06726 0.0
O32 O 0.2361 0.90861 0.02826 0.0
O33 O 0.21568 0.91683 0.98729 0.0
O34 O 0.21777 0.94783 0.07583 0.0
O35 O 0.24662 0.95007 0.07761 0.0
C36 C 0.23368 0.91925 0.21706 0.0
O37 O 0.18559 0.90535 0.10591 0.0
O38 O 0.19877 0.88664 0.09703 0.0
In39 In 0.30181 0.0772 0.92078 0.0
O40 O 0.32825 0.08349 0.85508 0.0
O41 O 0.29931 0.07067 0.81156 0.0
C42 C 0.31879 0.08648 0.03994 0.0
C43 C 0.29537 0.10817 0.90154 0.0
C44 C 0.27791 0.03818 0.94968 0.0
O45 O 0.32839 0.08653 0.98982 0.0
O46 O 0.30093 0.08228 0.0293 0.0
O47 O 0.2708 0.04975 0.94093 0.0
O48 O 0.29654 0.04612 0.93942 0.0
C49 C 0.31794 0.07743 0.80353 0.0
O50 O 0.28086 0.0903 0.90565 0.0
O51 O 0.31257 0.11002 0.90714 0.0
In52 In 0.91928 0.22568 0.92223 0.0
O53 O 0.91239 0.24522 0.85577 0.0
O54 O 0.92591 0.22964 0.81301 0.0
C55 C 0.90899 0.23265 0.04081 0.0
C56 C 0.88896 0.18807 0.90243 0.0
C57 C 0.95808 0.24178 0.95492 0.0
O58 O 0.90893 0.2422 0.9907 0.0
O59 O 0.91368 0.2193 0.03041 0.0
O60 O 0.94739 0.2232 0.94262 0.0
O61 O 0.94958 0.25199 0.9451 0.0
C62 C 0.91856 0.24099 0.8044 0.0
O63 O 0.90697 0.19179 0.90643 0.0
O64 O 0.88669 0.20315 0.90888 0.0
In65 In 0.77587 0.69947 0.92039 0.0
O66 O 0.81034 0.71906 0.91133 0.0
O67 O 0.79667 0.68712 0.91134 0.0
C68 C 0.76062 0.72339 0.94727 0.0
C69 C 0.76197 0.68512 0.80006 0.0
C70 C 0.76663 0.68202 0.03855 0.0
O71 O 0.77939 0.73054 0.9405 0.0
O72 O 0.75004 0.70478 0.93614 0.0
O73 O 0.75766 0.6726 0.98743 0.0
O74 O 0.78034 0.69995 0.02943 0.0
C75 C 0.81269 0.70386 0.90847 0.0
O76 O 0.75634 0.67412 0.85028 0.0
O77 O 0.77419 0.7035 0.81097 0.0
In78 In 0.91765 0.69439 0.9311 0.0
O79 O 0.9097 0.66748 0.86562 0.0
O80 O 0.922 0.69629 0.8211 0.0
C81 C 0.91065 0.67895 0.05222 0.0
C82 C 0.88674 0.70113 0.91701 0.0
C83 C 0.95744 0.71699 0.94912 0.0
O84 O 0.90845 0.66834 1.0024 0.0
O85 O 0.91581 0.69701 0.04035 0.0
O86 O 0.94628 0.72479 0.94765 0.0
O87 O 0.94853 0.69833 0.93827 0.0
C88 C 0.9149 0.67759 0.81347 0.0
O89 O 0.90472 0.71555 0.91694 0.0
O90 O 0.88481 0.68395 0.92466 0.0
In91 In 0.29851 0.21944 0.91489 0.0
O92 O 0.27844 0.18517 0.90206 0.0
O93 O 0.31033 0.19834 0.90038 0.0
C94 C 0.27525 0.2352 0.94492 0.0
C95 C 0.31383 0.23522 0.79714 0.0
C96 C 0.3154 0.22662 0.03371 0.0
O97 O 0.26767 0.21652 0.93447 0.0
O98 O 0.29398 0.24552 0.93575 0.0
O99 O 0.32521 0.23598 0.98362 0.0
O100 O 0.29733 0.21347 0.02322 0.0
C101 C 0.29343 0.18254 0.89685 0.0
O102 O 0.32432 0.24018 0.84843 0.0
O103 O 0.29538 0.22268 0.80571 0.0
In104 In 0.77915 0.07887 0.91064 0.0
O105 O 0.75797 0.0829 0.84334 0.0
O106 O 0.77567 0.07144 0.80212 0.0
C107 C 0.77228 0.08933 0.0285 0.0
C108 C 0.81566 0.11104 0.89223 0.0
C109 C 0.76377 0.0407 0.94823 0.0
O110 O 0.76263 0.0893 0.97845 0.0
O111 O 0.78566 0.08469 0.01825 0.0
O112 O 0.78212 0.05102 0.93203 0.0
O113 O 0.75344 0.0491 0.93939 0.0
C114 C 0.76291 0.07704 0.79274 0.0
O115 O 0.81347 0.09361 0.89815 0.0
O116 O 0.7996 0.11173 0.89489 0.0
In117 In 0.6939 0.92301 0.07904 0.0
O118 O 0.66718 0.91656 0.14495 0.0
O119 O 0.6958 0.92722 0.18918 0.0
C120 C 0.68006 0.918 0.95533 0.0
C121 C 0.69612 0.88941 0.09252 0.0
C122 C 0.72151 0.96187 0.06311 0.0
O123 O 0.6712 0.92124 1.00181 0.0
O124 O 0.69529 0.9169 0.9719 0.0
O125 O 0.7263 0.94831 0.0608 0.0
O126 O 0.70328 0.95572 0.07589 0.0
C127 C 0.67733 0.92128 0.19714 0.0
O128 O 0.71167 0.90666 0.0971 0.0
O129 O 0.67998 0.88954 0.08225 0.0
In130 In 0.07779 0.77413 0.08115 0.0
O131 O 0.09094 0.8082 0.09741 0.0
O132 O 0.11052 0.7965 0.07893 0.0
C133 C 0.03855 0.7567 0.0536 0.0
C134 C 0.07979 0.7597 0.19915 0.0
C135 C 0.08624 0.76739 0.96 0.0
O136 O 0.04889 0.77543 0.0644 0.0
O137 O 0.04774 0.74709 0.06226 0.0
O138 O 0.08886 0.75901 0.00927 0.0
O139 O 0.0797 0.77919 0.97253 0.0
C140 C 0.10877 0.81177 0.08849 0.0
O141 O 0.08477 0.75448 0.14719 0.0
O142 O 0.07338 0.77186 0.19118 0.0
In143 In 0.21989 0.29912 0.08375 0.0
O144 O 0.23999 0.32567 0.14899 0.0
O145 O 0.22327 0.29685 0.19327 0.0
C146 C 0.22752 0.31472 0.96278 0.0
C147 C 0.18302 0.29386 0.10339 0.0
C148 C 0.23538 0.27528 0.05941 0.0
O149 O 0.23689 0.32505 0.01206 0.0
O150 O 0.21401 0.29694 0.97523 0.0
O151 O 0.21661 0.2681 0.06586 0.0
O152 O 0.2459 0.29394 0.06975 0.0
C153 C 0.23523 0.31548 0.20097 0.0
O154 O 0.18572 0.27891 0.09863 0.0
O155 O 0.19863 0.3108 0.0969 0.0
In156 In 0.74241 0.63379 0.42165 0.0
O157 O 0.74896 0.66034 0.48749 0.0
O158 O 0.73964 0.63202 0.5322 0.0
C159 C 0.74858 0.64912 0.30064 0.0
C160 C 0.77431 0.62839 0.42545 0.0
C161 C 0.70287 0.60967 0.40288 0.0
O162 O 0.75163 0.65995 0.35061 0.0
O163 O 0.74261 0.63087 0.31231 0.0
O164 O 0.71482 0.60278 0.40343 0.0
O165 O 0.71087 0.62819 0.41538 0.0
C166 C 0.74516 0.65041 0.53982 0.0
O167 O 0.75679 0.61392 0.43691 0.0
O168 O 0.77534 0.64504 0.4148 0.0
In169 In 0.36642 0.10926 0.42349 0.0
O170 O 0.38446 0.14374 0.43549 0.0
O171 O 0.35254 0.12871 0.42641 0.0
C172 C 0.3911 0.09571 0.38981 0.0
C173 C 0.35232 0.09421 0.54313 0.0
C174 C 0.35059 0.10131 0.30336 0.0
O175 O 0.39801 0.11398 0.40537 0.0
O176 O 0.3724 0.08445 0.39761 0.0
O177 O 0.34014 0.09213 0.35286 0.0
O178 O 0.36854 0.11454 0.31521 0.0
C179 C 0.36875 0.14519 0.43143 0.0
O180 O 0.34141 0.08821 0.49273 0.0
O181 O 0.37046 0.10732 0.53259 0.0
In182 In 0.88364 0.25515 0.42496 0.0
O183 O 0.84926 0.23961 0.4378 0.0
O184 O 0.86349 0.22188 0.43283 0.0
C185 C 0.8978 0.29451 0.40718 0.0
C186 C 0.89844 0.25521 0.54407 0.0
C187 C 0.89266 0.24866 0.3039 0.0
O188 O 0.87911 0.28203 0.40509 0.0
O189 O 0.9088 0.28706 0.42034 0.0
O190 O 0.90099 0.24633 0.35376 0.0
O191 O 0.87983 0.25392 0.3157 0.0
C192 C 0.84731 0.22222 0.43862 0.0
O193 O 0.90461 0.25066 0.49318 0.0
O194 O 0.88505 0.25992 0.53433 0.0
In195 In 0.96445 0.41058 0.24785 0.0
O196 O 0.99012 0.41675 0.1783 0.0
O197 O 0.96027 0.40013 0.14204 0.0
C198 C 0.98316 0.42281 0.36356 0.0
C199 C 0.95808 0.44121 0.22271 0.0
C200 C 0.93981 0.37334 0.29208 0.0
O201 O 0.98898 0.41508 0.32054 0.0
O202 O 0.96863 0.42512 0.34714 0.0
O203 O 0.93279 0.38407 0.27067 0.0
O204 O 0.95852 0.38084 0.2858 0.0
C205 C 0.97885 0.40813 0.13004 0.0
O206 O 0.94366 0.42384 0.23636 0.0
O207 O 0.97522 0.44269 0.22109 0.0
In208 In 0.58547 0.55446 0.25103 0.0
O209 O 0.57094 0.52003 0.24132 0.0
O210 O 0.5525 0.53313 0.25818 0.0
C211 C 0.6243 0.57039 0.28176 0.0
C212 C 0.58372 0.567 0.12965 0.0
C213 C 0.57835 0.56496 0.36842 0.0
O214 O 0.61325 0.5516 0.27364 0.0
O215 O 0.61619 0.58072 0.26776 0.0
O216 O 0.57692 0.57309 0.31651 0.0
O217 O 0.58298 0.55148 0.36034 0.0
C218 C 0.55346 0.51732 0.2514 0.0
O219 O 0.57846 0.57284 0.1796 0.0
O220 O 0.5903 0.55514 0.14122 0.0
In221 In 0.44616 0.0332 0.25304 0.0
O222 O 0.48067 0.05049 0.2417 0.0
O223 O 0.46512 0.01864 0.25315 0.0
C224 C 0.4328 0.05912 0.26981 0.0
C225 C 0.43273 0.0188 0.13287 0.0
C226 C 0.43506 0.01766 0.37307 0.0
O227 O 0.45134 0.06478 0.27463 0.0
O228 O 0.42166 0.04097 0.2536 0.0
O229 O 0.42671 0.00737 0.32259 0.0
O230 O 0.44901 0.03537 0.36234 0.0
C231 C 0.48175 0.03457 0.24573 0.0
O232 O 0.42584 0.00806 0.18346 0.0
O233 O 0.44612 0.03685 0.14336 0.0
In234 In 0.58401 0.01962 0.2615 0.0
O235 O 0.57165 0.0412 0.2463 0.0
O236 O 0.55119 0.01 0.26024 0.0
C237 C 0.62343 0.04274 0.28488 0.0
C238 C 0.58127 0.00255 0.14377 0.0
C239 C 0.57732 0.00399 0.38256 0.0
O240 O 0.61225 0.05035 0.27712 0.0
O241 O 0.61493 0.02402 0.27536 0.0
O242 O 0.57492 0.99342 0.33244 0.0
O243 O 0.58236 0.02205 0.37105 0.0
C244 C 0.55352 0.02726 0.25062 0.0
O245 O 0.57543 0.99249 0.19589 0.0
O246 O 0.58903 0.02132 0.15139 0.0
In247 In 0.96546 0.55367 0.25581 0.0
O248 O 0.99185 0.57331 0.18936 0.0
O249 O 0.96247 0.56034 0.14921 0.0
C250 C 0.9835 0.55985 0.37264 0.0
C251 C 0.95876 0.51668 0.22877 0.0
C252 C 0.94086 0.56662 0.29805 0.0
O253 O 0.98972 0.57335 0.32943 0.0
O254 O 0.96888 0.54312 0.3559 0.0
O255 O 0.93383 0.54872 0.27826 0.0
O256 O 0.95954 0.5778 0.29085 0.0
C257 C 0.9812 0.57089 0.13961 0.0
O258 O 0.94437 0.51983 0.24093 0.0
O259 O 0.97605 0.53211 0.23009 0.0
In260 In 0.44096 0.41007 0.25689 0.0
O261 O 0.42183 0.41753 0.19 0.0
O262 O 0.44112 0.40844 0.14609 0.0
C263 C 0.42982 0.41527 0.3763 0.0
C264 C 0.47815 0.44213 0.25713 0.0
C265 C 0.42619 0.37043 0.27187 0.0
O266 O 0.42185 0.41729 0.32501 0.0
O267 O 0.44321 0.41059 0.36679 0.0
O268 O 0.44484 0.38278 0.27661 0.0
O269 O 0.41558 0.37812 0.25654 0.0
C270 C 0.42844 0.41418 0.13791 0.0
O271 O 0.47527 0.42483 0.24293 0.0
O272 O 0.46244 0.44292 0.26871 0.0
In273 In 0.36246 0.25222 0.41767 0.0
O274 O 0.3819 0.23732 0.43141 0.0
O275 O 0.35005 0.21915 0.42265 0.0
C276 C 0.38528 0.29074 0.38404 0.0
C277 C 0.34784 0.25272 0.53656 0.0
C278 C 0.34704 0.24344 0.29723 0.0
O279 O 0.39321 0.28023 0.39939 0.0
O280 O 0.36648 0.28226 0.3918 0.0
O281 O 0.33633 0.24212 0.34609 0.0
O282 O 0.36508 0.24866 0.30998 0.0
C283 C 0.36671 0.21979 0.4282 0.0
O284 O 0.33688 0.24691 0.48624 0.0
O285 O 0.36623 0.25877 0.52629 0.0
In286 In 0.74401 0.10715 0.41349 0.0
O287 O 0.75608 0.14102 0.42868 0.0
O288 O 0.77644 0.1297 0.42709 0.0
C289 C 0.70453 0.08756 0.38892 0.0
C290 C 0.74479 0.09252 0.53179 0.0
C291 C 0.75379 0.10221 0.29224 0.0
O292 O 0.71418 0.10651 0.39608 0.0
O293 O 0.71475 0.07898 0.39691 0.0
O294 O 0.7562 0.09337 0.3406 0.0
O295 O 0.74691 0.11366 0.3058 0.0
C296 C 0.77413 0.14479 0.43264 0.0
O297 O 0.75139 0.0882 0.48144 0.0
O298 O 0.73749 0.10385 0.52175 0.0
In299 In 0.88461 0.62857 0.43202 0.0
O300 O 0.90438 0.65364 0.50281 0.0
O301 O 0.88345 0.62502 0.54212 0.0
C302 C 0.89586 0.64567 0.31379 0.0
C303 C 0.84827 0.62547 0.43148 0.0
C304 C 0.89879 0.60331 0.41495 0.0
O305 O 0.90347 0.65549 0.36564 0.0
O306 O 0.88297 0.62739 0.32215 0.0
O307 O 0.88018 0.59729 0.41021 0.0
O308 O 0.90964 0.62153 0.43075 0.0
C309 C 0.89693 0.64298 0.5532 0.0
O310 O 0.85004 0.61011 0.44103 0.0
O311 O 0.86459 0.64177 0.42508 0.0
In312 In 0.41067 0.96801 0.75369 0.0
O313 O 0.41797 0.99448 0.82053 0.0
O314 O 0.40808 0.96592 0.86429 0.0
C315 C 0.4168 0.98473 0.63473 0.0
C316 C 0.44245 0.9623 0.75782 0.0
C317 C 0.371 0.94379 0.737 0.0
O318 O 0.41909 0.99471 0.6862 0.0
O319 O 0.41145 0.96648 0.64375 0.0
O320 O 0.3831 0.93713 0.73349 0.0
O321 O 0.37895 0.96214 0.75187 0.0
C322 C 0.41411 0.9844 0.87251 0.0
O323 O 0.42479 0.94788 0.76767 0.0
O324 O 0.44364 0.97902 0.74736 0.0
In325 In 0.0264 0.44062 0.75014 0.0
O326 O 0.04453 0.47478 0.76685 0.0
O327 O 0.01243 0.45973 0.76473 0.0
C328 C 0.05195 0.42863 0.7108 0.0
C329 C 0.01149 0.42401 0.86765 0.0
C330 C 0.00993 0.43472 0.63116 0.0
O331 O 0.05848 0.4465 0.73033 0.0
O332 O 0.03328 0.41707 0.71679 0.0
O333 O 0.00263 0.42119 0.67451 0.0
O334 O 0.02503 0.45106 0.64833 0.0
C335 C 0.02875 0.47619 0.76939 0.0
O336 O 0.0007 0.41955 0.81709 0.0
O337 O 0.02993 0.4363 0.8582 0.0
In338 In 0.55375 0.58863 0.75085 0.0
O339 O 0.57274 0.58074 0.81686 0.0
O340 O 0.55401 0.59045 0.86147 0.0
C341 C 0.56369 0.58338 0.63002 0.0
C342 C 0.51626 0.55712 0.75021 0.0
C343 C 0.57013 0.62843 0.73539 0.0
O344 O 0.57104 0.57981 0.68011 0.0
O345 O 0.55147 0.58946 0.64149 0.0
O346 O 0.55126 0.61682 0.73383 0.0
O347 O 0.58018 0.61994 0.74834 0.0
C348 C 0.56646 0.58438 0.86917 0.0
O349 O 0.5195 0.5745 0.76539 0.0
O350 O 0.53175 0.55598 0.73813 0.0
In351 In 0.63414 0.74627 0.5828 0.0
O352 O 0.66026 0.752 0.51691 0.0
O353 O 0.63104 0.73822 0.47485 0.0
C354 C 0.6513 0.75787 0.70064 0.0
C355 C 0.6273 0.77662 0.55773 0.0
C356 C 0.61185 0.70785 0.61988 0.0
O357 O 0.66101 0.75755 0.65133 0.0
O358 O 0.63326 0.753 0.68963 0.0
O359 O 0.60369 0.71803 0.60341 0.0
O360 O 0.63063 0.71658 0.61189 0.0
C361 C 0.64969 0.74529 0.46607 0.0
O362 O 0.61288 0.759 0.56818 0.0
O363 O 0.64458 0.77857 0.56089 0.0
In364 In 0.25195 0.88698 0.59408 0.0
O365 O 0.24483 0.9067 0.52925 0.0
O366 O 0.25977 0.89253 0.48613 0.0
C367 C 0.24106 0.89176 0.71429 0.0
C368 C 0.22246 0.84953 0.56787 0.0
C369 C 0.2907 0.90411 0.62794 0.0
O370 O 0.24052 0.90173 0.66602 0.0
O371 O 0.24616 0.87889 0.7009 0.0
O372 O 0.28092 0.8858 0.61105 0.0
O373 O 0.28137 0.91367 0.622 0.0
C374 C 0.25188 0.90343 0.47802 0.0
O375 O 0.24026 0.85322 0.57804 0.0
O376 O 0.21988 0.86447 0.57233 0.0
In377 In 0.10954 0.36709 0.58654 0.0
O378 O 0.08904 0.34135 0.51916 0.0
O379 O 0.11021 0.36922 0.47589 0.0
C380 C 0.09894 0.35045 0.70565 0.0
C381 C 0.14603 0.37049 0.58431 0.0
C382 C 0.09533 0.39243 0.60105 0.0
O383 O 0.0912 0.34045 0.65423 0.0
O384 O 0.11163 0.36876 0.69654 0.0
O385 O 0.1139 0.39843 0.60709 0.0
O386 O 0.08455 0.37418 0.58554 0.0
C387 C 0.09643 0.35121 0.46732 0.0
O388 O 0.144 0.38568 0.57413 0.0
O389 O 0.12985 0.35423 0.59319 0.0
In390 In 0.2533 0.36463 0.58204 0.0
O391 O 0.23819 0.38397 0.57102 0.0
O392 O 0.22016 0.35237 0.58608 0.0
C393 C 0.29254 0.38954 0.60371 0.0
C394 C 0.25194 0.35011 0.46126 0.0
C395 C 0.24625 0.34747 0.70054 0.0
O396 O 0.28007 0.39578 0.60459 0.0
O397 O 0.28522 0.37124 0.58887 0.0
O398 O 0.24418 0.33756 0.649 0.0
O399 O 0.25202 0.36583 0.69174 0.0
C400 C 0.22077 0.36898 0.57941 0.0
O401 O 0.24801 0.33937 0.51181 0.0
O402 O 0.2568 0.3682 0.47199 0.0
In403 In 0.63004 0.88722 0.578 0.0
O404 O 0.61061 0.8528 0.56952 0.0
O405 O 0.64204 0.86671 0.55206 0.0
C406 C 0.5972 0.88772 0.62133 0.0
C407 C 0.64372 0.90427 0.4593 0.0
C408 C 0.65265 0.90339 0.68645 0.0
O409 O 0.60315 0.87652 0.64571 0.0
O410 O 0.60705 0.89773 0.57231 0.0
O411 O 0.64552 0.91242 0.65434 0.0
O412 O 0.64976 0.88724 0.66092 0.0
C413 C 0.62538 0.85062 0.55451 0.0
O414 O 0.65465 0.91002 0.5097 0.0
O415 O 0.62578 0.89074 0.46976 0.0
In416 In 0.11183 0.74291 0.57918 0.0
O417 O 0.14607 0.75632 0.56901 0.0
O418 O 0.13337 0.77539 0.55994 0.0
C419 C 0.09533 0.7037 0.60717 0.0
C420 C 0.09715 0.74266 0.4597 0.0
C421 C 0.10428 0.75297 0.69723 0.0
O422 O 0.11419 0.71478 0.60091 0.0
O423 O 0.0853 0.71229 0.59555 0.0
O424 O 0.095 0.7532 0.64664 0.0
O425 O 0.11754 0.74813 0.68757 0.0
C426 C 0.14896 0.77385 0.55875 0.0
O427 O 0.09226 0.74888 0.50966 0.0
O428 O 0.10899 0.736 0.47062 0.0
In429 In 0.02763 0.58588 0.75776 0.0
O430 O 0.04546 0.56937 0.77123 0.0
O431 O 0.01332 0.55279 0.77133 0.0
C432 C 0.05249 0.62413 0.72315 0.0
C433 C 0.01397 0.58734 0.87744 0.0
C434 C 0.01098 0.57575 0.63922 0.0
O435 O 0.05925 0.61244 0.7359 0.0
O436 O 0.03385 0.61668 0.73203 0.0
O437 O 0.00317 0.58093 0.68411 0.0
O438 O 0.02677 0.57551 0.65443 0.0
C439 C 0.02951 0.55232 0.77394 0.0
O440 O 0.00262 0.58127 0.82799 0.0
O441 O 0.03225 0.59315 0.86583 0.0
In442 In 0.40943 0.44462 0.75642 0.0
O443 O 0.4169 0.42632 0.82706 0.0
O444 O 0.40466 0.44355 0.86624 0.0
C445 C 0.41523 0.43384 0.63769 0.0
C446 C 0.44111 0.48201 0.75472 0.0
C447 C 0.37053 0.42884 0.72759 0.0
O448 O 0.41825 0.42651 0.68894 0.0
O449 O 0.41001 0.44683 0.64704 0.0
O450 O 0.38164 0.4476 0.73619 0.0
O451 O 0.37861 0.4184 0.74038 0.0
C452 C 0.41148 0.43187 0.87731 0.0
O453 O 0.42368 0.47898 0.76775 0.0
O454 O 0.44224 0.46637 0.74556 0.0
In455 In 0.5488 0.95397 0.76249 0.0
O456 O 0.57088 0.97798 0.8328 0.0
O457 O 0.54754 0.9506 0.87268 0.0
C458 C 0.56204 0.97084 0.64439 0.0
C459 C 0.51441 0.95522 0.76483 0.0
C460 C 0.55618 0.92367 0.74336 0.0
O461 O 0.57037 0.98013 0.69642 0.0
O462 O 0.54756 0.95327 0.65261 0.0
O463 O 0.5391 0.92175 0.73252 0.0
O464 O 0.56909 0.94043 0.76664 0.0
C465 C 0.5625 0.96782 0.88345 0.0
O466 O 0.51444 0.93897 0.77535 0.0
O467 O 0.53153 0.97031 0.75541 0.0
C468 C 0.12735 0.27632 0.08896 0.0
C469 C 0.1265 0.29288 0.11465 0.0
C470 C 0.14554 0.27601 0.08857 0.0
C471 C 0.16326 0.29225 0.11384 0.0
H472 H 0.11423 0.2641 0.06601 0.0
H473 H 0.14596 0.26356 0.06529 0.0
S474 S 0.16786 0.33717 0.19779 0.0
N475 N 0.14417 0.32445 0.17402 0.0
N476 N 0.17814 0.32387 0.1732 0.0
C477 C 0.16213 0.30808 0.14399 0.0
C478 C 0.14378 0.3084 0.14442 0.0
C479 C 0.71517 0.85226 0.10959 0.0
C480 C 0.69764 0.83362 0.09911 0.0
C481 C 0.71462 0.87032 0.10828 0.0
C482 C 0.69655 0.87033 0.09626 0.0
H483 H 0.7294 0.85294 0.11852 0.0
H484 H 0.72847 0.88435 0.11622 0.0
S485 S 0.6465 0.82547 0.06476 0.0
N486 N 0.66171 0.81636 0.07584 0.0
N487 N 0.66073 0.85001 0.07337 0.0
C488 C 0.67894 0.85175 0.08601 0.0
C489 C 0.67947 0.83347 0.08743 0.0
C490 C 0.12799 0.84799 0.12431 0.0
C491 C 0.1266 0.83208 0.08624 0.0
C492 C 0.1461 0.86654 0.12737 0.0
C493 C 0.16316 0.8695 0.09252 0.0
H494 H 0.11536 0.84581 0.15378 0.0
H495 H 0.14701 0.87825 0.15906 0.0
S496 S 0.16593 0.83386 0.97668 0.0
N497 N 0.14292 0.82152 0.00657 0.0
N498 N 0.17667 0.85606 0.01249 0.0
C499 C 0.16142 0.85414 0.05124 0.0
C500 C 0.14319 0.83548 0.04805 0.0
C501 C 0.31008 0.14429 0.87528 0.0
C502 C 0.29306 0.12604 0.89298 0.0
C503 C 0.30958 0.1622 0.87393 0.0
C504 C 0.29205 0.1627 0.89035 0.0
H505 H 0.32416 0.14492 0.86386 0.0
H506 H 0.32332 0.17589 0.86158 0.0
S507 S 0.24285 0.11877 0.93521 0.0
N508 N 0.2577 0.10921 0.9233 0.0
N509 N 0.25678 0.14315 0.92093 0.0
C510 C 0.27456 0.14442 0.90502 0.0
C511 C 0.27506 0.12602 0.9063 0.0
C512 C 0.83528 0.14776 0.87356 0.0
C513 C 0.83528 0.12979 0.88683 0.0
C514 C 0.85291 0.16633 0.87647 0.0
C515 C 0.8714 0.16781 0.89258 0.0
H516 H 0.8214 0.14763 0.86261 0.0
H517 H 0.85188 0.1797 0.86749 0.0
S518 S 0.88002 0.12518 0.9256 0.0
N519 N 0.85557 0.11442 0.91221 0.0
N520 N 0.88902 0.14963 0.91738 0.0
C521 C 0.87193 0.14994 0.90256 0.0
C522 C 0.85379 0.13085 0.89974 0.0
C523 C 0.83258 0.68687 0.89269 0.0
C524 C 0.83239 0.70482 0.90453 0.0
C525 C 0.85037 0.68619 0.89503 0.0
C526 C 0.86885 0.70344 0.90913 0.0
H527 H 0.81875 0.67298 0.88281 0.0
H528 H 0.84949 0.67183 0.88674 0.0
S529 S 0.87694 0.7546 0.93968 0.0
N530 N 0.85244 0.74061 0.92771 0.0
N531 N 0.88619 0.73934 0.93184 0.0
C532 C 0.86916 0.72176 0.91841 0.0
C533 C 0.85085 0.72245 0.91618 0.0
C534 C 0.81137 0.60999 0.45649 0.0
C535 C 0.82885 0.62495 0.42567 0.0
C536 C 0.79341 0.61073 0.45512 0.0
C537 C 0.7925 0.62644 0.42283 0.0
H538 H 0.81175 0.59805 0.48344 0.0
H539 H 0.7804 0.59933 0.48099 0.0
S540 S 0.83331 0.6674 0.32619 0.0
N541 N 0.84347 0.65458 0.35614 0.0
N542 N 0.80999 0.65596 0.35349 0.0
C543 C 0.80963 0.64084 0.38913 0.0
C544 C 0.82774 0.64009 0.39057 0.0
C545 C 0.38509 0.1824 0.45294 0.0
C546 C 0.36883 0.16447 0.42875 0.0
C547 C 0.3846 0.2005 0.45213 0.0
C548 C 0.36784 0.20112 0.42712 0.0
H549 H 0.39806 0.18236 0.47359 0.0
H550 H 0.3972 0.21394 0.4722 0.0
S551 S 0.32268 0.15884 0.3502 0.0
N552 N 0.3364 0.14895 0.37381 0.0
N553 N 0.33549 0.18265 0.3723 0.0
C554 C 0.35188 0.18342 0.40071 0.0
C555 C 0.35238 0.16517 0.40153 0.0
C556 C 0.82818 0.18533 0.45368 0.0
C557 C 0.82786 0.20327 0.44368 0.0
C558 C 0.81058 0.16672 0.45227 0.0
C559 C 0.79179 0.16513 0.44073 0.0
H560 H 0.84225 0.18553 0.46133 0.0
H561 H 0.81188 0.1534 0.45891 0.0
S562 S 0.7824 0.20765 0.41657 0.0
N563 N 0.80703 0.2185 0.42572 0.0
N564 N 0.77365 0.18319 0.42296 0.0
C565 C 0.79101 0.18296 0.43346 0.0
C566 C 0.80911 0.20211 0.43497 0.0
C567 C 0.97259 0.49521 0.19264 0.0
C568 C 0.9563 0.49653 0.21821 0.0
C569 C 0.9724 0.47694 0.19099 0.0
C570 C 0.95593 0.4592 0.21495 0.0
H571 H 0.98598 0.50856 0.17573 0.0
H572 H 0.98566 0.47693 0.17294 0.0
S573 S 0.90865 0.45413 0.28126 0.0
N574 N 0.92253 0.47827 0.26342 0.0
N575 N 0.92218 0.44371 0.26046 0.0
C576 C 0.93898 0.45998 0.23701 0.0
C577 C 0.93916 0.47872 0.23861 0.0
C578 C 0.53293 0.48058 0.22323 0.0
C579 C 0.53526 0.49741 0.258 0.0
C580 C 0.51457 0.46228 0.22464 0.0
C581 C 0.49816 0.46039 0.26095 0.0
H582 H 0.54504 0.4818 0.1929 0.0
H583 H 0.51299 0.44983 0.19534 0.0
S584 S 0.49798 0.49904 0.36926 0.0
N585 N 0.52054 0.51025 0.33585 0.0
N586 N 0.48632 0.47611 0.33867 0.0
C587 C 0.50083 0.47678 0.29892 0.0
C588 C 0.51933 0.49525 0.2974 0.0
C589 C 0.51665 0.01324 0.2453 0.0
C590 C 0.53598 0.0303 0.24588 0.0
C591 C 0.49945 0.01501 0.24405 0.0
C592 C 0.5007 0.03392 0.24339 0.0
H593 H 0.51468 -0.00176 0.24643 0.0
H594 H 0.48499 0.00128 0.24431 0.0
S595 S 0.54771 0.08343 0.24217 0.0
N596 N 0.55549 0.06686 0.24384 0.0
N597 N 0.52288 0.0702 0.24156 0.0
C598 C 0.5199 0.05121 0.24255 0.0
C599 C 0.5376 0.04939 0.24378 0.0
C600 C 0.45994 0.94269 0.78185 0.0
C601 C 0.46059 0.96018 0.75781 0.0
C602 C 0.47737 0.941 0.78374 0.0
C603 C 0.49597 0.95676 0.7617 0.0
H604 H 0.44597 0.93034 0.80007 0.0
H605 H 0.4763 0.92739 0.80326 0.0
S606 S 0.50528 0.00505 0.68915 0.0
N607 N 0.48118 0.99307 0.70804 0.0
N608 N 0.51368 0.98994 0.71165 0.0
C609 C 0.49665 0.97412 0.73621 0.0
C610 C 0.47903 0.97582 0.73424 0.0
C611 C 0.04665 0.53196 0.79036 0.0
C612 C 0.02933 0.53295 0.77441 0.0
C613 C 0.04646 0.51353 0.78927 0.0
C614 C 0.02894 0.49555 0.77216 0.0
H615 H 0.06041 0.54548 0.80381 0.0
H616 H 0.06008 0.51336 0.80191 0.0
S617 S 0.98016 0.49042 0.72055 0.0
N618 N 0.99456 0.5145 0.73738 0.0
N619 N 0.9942 0.48017 0.73534 0.0
C620 C 0.01164 0.49647 0.75525 0.0
C621 C 0.01184 0.51509 0.75637 0.0
C622 C 0.46173 0.51847 0.78614 0.0
C623 C 0.45907 0.50208 0.74799 0.0
C624 C 0.48007 0.5368 0.78499 0.0
C625 C 0.4961 0.53914 0.74558 0.0
H626 H 0.44997 0.51682 0.81901 0.0
H627 H 0.482 0.54885 0.81704 0.0
S628 S 0.49513 0.50194 0.62794 0.0
N629 N 0.47293 0.49027 0.66371 0.0
N630 N 0.50711 0.52449 0.66138 0.0
C631 C 0.49301 0.52327 0.70415 0.0
C632 C 0.47454 0.50478 0.70541 0.0
C633 C 0.6082 0.81341 0.57374 0.0
C634 C 0.62394 0.83087 0.54519 0.0
C635 C 0.60861 0.7953 0.57435 0.0
C636 C 0.62477 0.79421 0.54649 0.0
H637 H 0.59608 0.81401 0.59873 0.0
H638 H 0.59682 0.78246 0.59989 0.0
S639 S 0.66759 0.83461 0.45507 0.0
N640 N 0.65459 0.84511 0.48066 0.0
N641 N 0.65536 0.81123 0.48196 0.0
C642 C 0.63974 0.81113 0.51357 0.0
C643 C 0.63932 0.82945 0.51288 0.0
C644 C 0.18602 0.79354 0.58124 0.0
C645 C 0.16894 0.79179 0.54973 0.0
C646 C 0.20405 0.81212 0.58354 0.0
C647 C 0.20536 0.82933 0.55444 0.0
H648 H 0.18509 0.78087 0.6076 0.0
H649 H 0.21655 0.81329 0.61158 0.0
S650 S 0.16614 0.83148 0.45499 0.0
N651 N 0.15544 0.808 0.48079 0.0
N652 N 0.18913 0.84274 0.48527 0.0
C653 C 0.18891 0.82726 0.51828 0.0
C654 C 0.17072 0.8085 0.51587 0.0
C655 C 0.20098 0.38632 0.55563 0.0
C656 C 0.20229 0.37034 0.58415 0.0
C657 C 0.18284 0.38672 0.55697 0.0
C658 C 0.16558 0.37115 0.58698 0.0
H659 H 0.21384 0.39827 0.53071 0.0
H660 H 0.18219 0.39894 0.53295 0.0
S661 S 0.16217 0.32754 0.67685 0.0
N662 N 0.18539 0.33972 0.64883 0.0
N663 N 0.1516 0.34048 0.65151 0.0
C664 C 0.16707 0.35564 0.61823 0.0
C665 C 0.18536 0.35523 0.61676 0.0
C666 C 0.00909 0.2503 0.01006 0.0
C667 C 0.01683 0.26841 0.04532 0.0
C668 C 0.98996 0.24156 0.98103 0.0
C669 C 0.97811 0.25077 0.98583 0.0
H670 H 0.0181 0.24319 0.00306 0.0
H671 H 0.98463 0.22779 0.95346 0.0
S672 S 0.99046 0.29687 0.07999 0.0
N673 N 0.01033 0.29412 0.0886 0.0
N674 N 0.9747 0.27794 0.03376 0.0
C675 C 0.98539 0.26842 0.02322 0.0
C676 C 0.00466 0.27716 0.0531 0.0
C677 C 0.73089 0.72419 0.9905 0.0
C678 C 0.75138 0.73484 0.97373 0.0
C679 C 0.72151 0.73375 0.01959 0.0
C680 C 0.73209 0.7545 0.03287 0.0
H681 H 0.72191 0.70816 0.98181 0.0
H682 H 0.70566 0.72468 0.03106 0.0
S683 S 0.78607 0.78947 0.99824 0.0
N684 N 0.78215 0.76736 0.97277 0.0
N685 N 0.76427 0.78556 0.02677 0.0
C686 C 0.75262 0.76547 0.01639 0.0
C687 C 0.76231 0.75561 0.98695 0.0
C688 C 0.26688 0.98879 0.0244 0.0
C689 C 0.24629 0.97929 0.03967 0.0
C690 C 0.27662 0.00748 0.99375 0.0
C691 C 0.26629 0.01769 0.97733 0.0
H692 H 0.27565 0.98165 0.03552 0.0
H693 H 0.29253 0.01406 0.98355 0.0
S694 S 0.21218 -0.00048 0.00687 0.0
N695 N 0.21573 0.98145 0.03587 0.0
N696 N 0.23424 0.017 0.97883 0.0
C697 C 0.24567 0.00849 0.9924 0.0
C698 C 0.23564 0.98922 0.02349 0.0
C699 C 0.98687 0.74685 1.00069 0.0
C700 C 0.97875 0.728 0.96977 0.0
C701 C 0.00628 0.75618 0.02786 0.0
C702 C 0.01808 0.74686 0.02551 0.0
H703 H 0.978 0.75419 0.00549 0.0
H704 H 0.01192 0.77058 0.0518 0.0
S705 S 0.00455 0.69851 0.94383 0.0
N706 N 0.98468 0.70118 0.93386 0.0
N707 N 0.02081 0.71847 0.98522 0.0
C708 C 0.01034 0.72834 0.99282 0.0
C709 C 0.99077 0.71898 0.96481 0.0
C710 C 0.27499 0.26462 0.99348 0.0
C711 C 0.26404 0.24448 0.97294 0.0
C712 C 0.26555 0.27401 0.0234 0.0
C713 C 0.24466 0.26377 0.03378 0.0
H714 H 0.29114 0.27334 0.9869 0.0
H715 H 0.2748 0.28961 0.03758 0.0
S716 S 0.20896 0.21069 0.98969 0.0
N717 N 0.23112 0.21435 0.96594 0.0
N718 N 0.21317 0.23222 0.02155 0.0
C719 C 0.23341 0.24354 0.01395 0.0
C720 C 0.24314 0.23386 0.98363 0.0
C721 C 0.76049 0.00684 0.96808 0.0
C722 C 0.75519 0.02144 0.98345 0.0
C723 C 0.75046 0.98774 0.99759 0.0
C724 C 0.73506 0.98291 0.0435 0.0
H725 H 0.77167 0.00984 0.93097 0.0
H726 H 0.754 0.9764 0.98171 0.0
S727 S 0.71876 0.01746 0.10966 0.0
N728 N 0.73577 0.03083 0.05412 0.0
N729 N 0.71713 0.99518 0.10939 0.0
C730 C 0.73088 0.99798 0.06278 0.0
C731 C 0.74091 0.01721 0.03272 0.0
C732 C 0.65658 0.57132 0.31078 0.0
C733 C 0.64387 0.57956 0.31551 0.0
C734 C 0.67539 0.58053 0.3421 0.0
C735 C 0.68187 0.59805 0.37975 0.0
H736 H 0.65223 0.55808 0.28124 0.0
H737 H 0.68519 0.57431 0.33479 0.0
S738 S 0.65252 0.62337 0.41626 0.0
N739 N 0.63804 0.60481 0.36666 0.0
N740 N 0.67306 0.62184 0.42582 0.0
C741 C 0.6687 0.60563 0.38788 0.0
C742 C 0.64979 0.59646 0.35563 0.0
C743 C 0.43326 0.08602 0.34034 0.0
C744 C 0.42394 0.07137 0.29133 0.0
C745 C 0.4229 0.09453 0.37126 0.0
C746 C 0.4029 0.0884 0.35442 0.0
H747 H 0.44819 0.09012 0.35731 0.0
H748 H 0.4302 0.10522 0.41037 0.0
S749 S 0.3733 0.05356 0.22087 0.0
N750 N 0.39471 0.05335 0.22142 0.0
N751 N 0.37527 0.06909 0.27965 0.0
C752 C 0.39402 0.07486 0.30249 0.0
C753 C 0.40455 0.06641 0.27085 0.0
C754 C 0.89736 0.32159 0.34023 0.0
C755 C 0.90678 0.31573 0.38733 0.0
C756 C 0.90775 0.34069 0.31084 0.0
C757 C 0.92783 0.35428 0.32755 0.0
H758 H 0.88235 0.31101 0.32336 0.0
H759 H 0.90041 0.34443 0.27276 0.0
S760 S 0.95773 0.3475 0.45687 0.0
N761 N 0.93621 0.32604 0.45552 0.0
N762 N 0.95567 0.36168 0.4005 0.0
C763 C 0.93679 0.34907 0.37792 0.0
C764 C 0.92627 0.32984 0.40781 0.0
C765 C 0.67388 0.08615 0.33981 0.0
C766 C 0.68339 0.07616 0.36669 0.0
C767 C 0.65452 0.07531 0.3127 0.0
C768 C 0.64412 0.05415 0.31113 0.0
H769 H 0.68158 0.10243 0.33852 0.0
H770 H 0.64774 0.08355 0.29236 0.0
S771 S 0.66173 0.02088 0.3804 0.0
N772 N 0.68037 0.0439 0.39382 0.0
N773 N 0.64431 0.02364 0.34254 0.0
C774 C 0.65332 0.04403 0.3392 0.0
C775 C 0.67286 0.05501 0.36712 0.0
C776 C 0.89841 0.57578 0.34802 0.0
C777 C 0.90795 0.59124 0.39447 0.0
C778 C 0.90879 0.56713 0.31814 0.0
C779 C 0.92901 0.57387 0.33357 0.0
H780 H 0.88324 0.5711 0.33214 0.0
H781 H 0.90129 0.55584 0.28075 0.0
S782 S 0.95943 0.61115 0.46066 0.0
N783 N 0.93776 0.61083 0.46069 0.0
N784 N 0.95722 0.59479 0.40454 0.0
C785 C 0.93816 0.58826 0.38317 0.0
C786 C 0.92763 0.59689 0.41369 0.0
C787 C 0.42694 0.34279 0.33467 0.0
C788 C 0.41682 0.34916 0.29212 0.0
C789 C 0.41687 0.32363 0.36362 0.0
C790 C 0.39636 0.31044 0.35132 0.0
H791 H 0.44247 0.35295 0.34791 0.0
H792 H 0.42496 0.31942 0.39748 0.0
S793 S 0.36409 0.31866 0.23511 0.0
N794 N 0.38591 0.33979 0.23309 0.0
N795 N 0.36702 0.30404 0.28754 0.0
C796 C 0.38647 0.31622 0.30593 0.0
C797 C 0.3967 0.33552 0.27625 0.0
C798 C 0.32373 0.90571 0.64867 0.0
C799 C 0.31072 0.91339 0.65898 0.0
C800 C 0.34299 0.915 0.67683 0.0
C801 C 0.34972 0.93212 0.71661 0.0
H802 H 0.31922 0.89282 0.61724 0.0
H803 H 0.35291 0.90917 0.6654 0.0
S804 S 0.32011 0.95607 0.76691 0.0
N805 N 0.30509 0.93776 0.71736 0.0
N806 N 0.34104 0.955 0.77035 0.0
C807 C 0.33638 0.93919 0.73012 0.0
C808 C 0.31694 0.92989 0.70123 0.0
C809 C 0.08435 0.42843 0.6948 0.0
C810 C 0.06434 0.42177 0.67667 0.0
C811 C 0.09507 0.41986 0.66671 0.0
C812 C 0.08606 0.40457 0.61949 0.0
H813 H 0.09137 0.43953 0.73301 0.0
H814 H 0.11001 0.42442 0.6847 0.0
S815 S 0.03546 0.385 0.54649 0.0
N816 N 0.03702 0.40117 0.60232 0.0
N817 N 0.0571 0.38529 0.54958 0.0
C818 C 0.06667 0.39906 0.59751 0.0
C819 C 0.0558 0.4076 0.62617 0.0
C820 C 0.56976 0.65676 0.67575 0.0
C821 C 0.58016 0.64963 0.71388 0.0
C822 C 0.57998 0.67576 0.64584 0.0
C823 C 0.60091 0.6881 0.65265 0.0
H824 H 0.55379 0.64732 0.66689 0.0
H825 H 0.57155 0.68057 0.6158 0.0
S826 S 0.63452 0.67752 0.75485 0.0
N827 N 0.61214 0.65728 0.76219 0.0
N828 N 0.63129 0.69271 0.70585 0.0
C829 C 0.61125 0.6815 0.6932 0.0
C830 C 0.60088 0.66234 0.72391 0.0
C831 C 0.33759 0.42696 0.70242 0.0
C832 C 0.35118 0.41997 0.69278 0.0
C833 C 0.31888 0.41777 0.67049 0.0
C834 C 0.31342 0.40154 0.62747 0.0
H835 H 0.34115 0.43909 0.73635 0.0
H836 H 0.30834 0.42284 0.68165 0.0
S837 S 0.34554 0.38048 0.57633 0.0
N838 N 0.3591 0.39778 0.63089 0.0
N839 N 0.32422 0.38074 0.57073 0.0
C840 C 0.32753 0.39543 0.61429 0.0
C841 C 0.34635 0.40459 0.64704 0.0
C842 C 0.57069 0.89743 0.61891 0.0
C843 C 0.58289 0.89212 0.65504 0.0
C844 C 0.56026 0.90583 0.64949 0.0
C845 C 0.56226 0.90975 0.71673 0.0
H846 H 0.56997 0.89596 0.56638 0.0
H847 H 0.5519 0.91077 0.61958 0.0
S848 S 0.59115 0.89737 0.83361 0.0
N849 N 0.595 0.88984 0.76244 0.0
N850 N 0.5762 0.90665 0.81908 0.0
C851 C 0.57358 0.90365 0.75378 0.0
C852 C 0.58369 0.89452 0.72309 0.0
C853 C 0.0542 0.65395 0.67043 0.0
C854 C 0.06448 0.64434 0.69387 0.0
C855 C 0.06437 0.67272 0.64051 0.0
C856 C 0.08537 0.68292 0.63296 0.0
H857 H 0.03801 0.64691 0.67488 0.0
H858 H 0.05559 0.67939 0.62412 0.0
S859 S 0.1195 0.66426 0.68456 0.0
N860 N 0.09688 0.64618 0.70617 0.0
N861 N 0.11624 0.68193 0.65043 0.0
C862 C 0.09596 0.67348 0.65533 0.0
C863 C 0.08547 0.65411 0.6857 0.0
C864 C 0.10097 0.35416 0.82659 0.0
C865 C 0.0944 0.34151 0.77161 0.0
C866 C 0.09779 0.34625 0.88976 0.0
C867 C 0.08817 0.32539 0.90031 0.0
H868 H 0.10871 0.37035 0.82089 0.0
H869 H 0.10317 0.35658 0.93053 0.0
S870 S 0.06764 0.28573 0.77295 0.0
N871 N 0.0774 0.30706 0.73195 0.0
N872 N 0.0716 0.29215 0.85051 0.0
C873 C 0.08135 0.31254 0.8458 0.0
C874 C 0.08439 0.32061 0.7815 0.0
C875 C 0.65411 0.75997 0.88487 0.0
C876 C 0.67481 0.76883 0.89711 0.0
C877 C 0.64673 0.75688 0.82104 0.0
C878 C 0.65976 0.76223 0.76715 0.0
H879 H 0.64353 0.75559 0.92484 0.0
H880 H 0.63064 0.74997 0.81399 0.0
S881 S 0.71527 0.78543 0.77321 0.0
N882 N 0.70829 0.78274 0.85027 0.0
N883 N 0.69435 0.77661 0.73033 0.0
C884 C 0.68049 0.77095 0.77875 0.0
C885 C 0.68804 0.77434 0.84374 0.0
C886 C 0.22488 0.91172 0.85689 0.0
C887 C 0.23127 0.90523 0.91133 0.0
C888 C 0.22797 0.90718 0.79339 0.0
C889 C 0.2373 0.89571 0.78186 0.0
H890 H 0.21759 0.92059 0.86324 0.0
H891 H 0.22298 0.9127 0.75306 0.0
S892 S 0.25666 0.87489 0.9076 0.0
N893 N 0.24733 0.8867 0.94956 0.0
N894 N 0.25295 0.87792 0.83027 0.0
C895 C 0.24362 0.88895 0.83587 0.0
C896 C 0.24067 0.89379 0.90057 0.0
C897 C 0.31467 0.0866 0.16062 0.0
C898 C 0.32734 0.09028 0.1065 0.0
C899 C 0.32218 0.08978 0.22438 0.0
C900 C 0.34268 0.09706 0.23623 0.0
H901 H 0.29877 0.08114 0.15383 0.0
H902 H 0.31193 0.0869 0.26453 0.0
S903 S 0.38205 0.10814 0.11219 0.0
N904 N 0.3613 0.10083 0.06951 0.0
N905 N 0.37545 0.10712 0.18919 0.0
C906 C 0.3555 0.10061 0.18277 0.0
C907 C 0.34782 0.09713 0.11793 0.0
C908 C 0.90551 0.23286 0.22518 0.0
C909 C 0.89718 0.24524 0.23668 0.0
C910 C 0.90908 0.22874 0.1616 0.0
C911 C 0.90473 0.2371 0.10718 0.0
H912 H 0.90899 0.22601 0.26551 0.0
H913 H 0.9154 0.21901 0.15517 0.0
S914 S 0.88372 0.2714 0.11139 0.0
N915 N 0.88522 0.26633 0.18861 0.0
N916 N 0.8922 0.25884 0.06929 0.0
C917 C 0.89674 0.24982 0.11811 0.0
C918 C 0.89289 0.25381 0.1828 0.0
C919 C 0.76457 0.6779 0.22273 0.0
C920 C 0.75231 0.65716 0.23353 0.0
C921 C 0.76913 0.68573 0.15945 0.0
C922 C 0.76139 0.67314 0.10456 0.0
H923 H 0.771 0.68816 0.26342 0.0
H924 H 0.77879 0.70181 0.15362 0.0
S925 S 0.72783 0.61777 0.1066 0.0
N926 N 0.73207 0.62416 0.18415 0.0
N927 N 0.74046 0.63894 0.06528 0.0
C928 C 0.74881 0.6524 0.11468 0.0
C929 C 0.74433 0.6444 0.17914 0.0
C930 C 0.89782 0.65009 0.12981 0.0
C931 C 0.90762 0.67095 0.11936 0.0
C932 C 0.89436 0.64212 0.19291 0.0
C933 C 0.90079 0.65473 0.24801 0.0
H934 H 0.8925 0.63977 0.08898 0.0
H935 H 0.88649 0.62592 0.19845 0.0
S936 S 0.9279 0.71051 0.24707 0.0
N937 N 0.92421 0.70415 0.1694 0.0
N938 N 0.91786 0.68914 0.28795 0.0
C939 C 0.91098 0.67564 0.23829 0.0
C940 C 0.91433 0.68376 0.17399 0.0
C941 C 0.31108 0.2232 0.15436 0.0
C942 C 0.32397 0.23107 0.10016 0.0
C943 C 0.31861 0.22745 0.21805 0.0
C944 C 0.33931 0.23947 0.22984 0.0
H945 H 0.295 0.2138 0.14765 0.0
H946 H 0.30815 0.22107 0.25827 0.0
S947 S 0.37939 0.2641 0.10513 0.0
N948 N 0.35842 0.25179 0.06269 0.0
N949 N 0.3726 0.25958 0.1823 0.0
C950 C 0.35237 0.24747 0.17618 0.0
C951 C 0.34469 0.24333 0.11135 0.0
C952 C 0.77544 0.08817 0.14904 0.0
C953 C 0.76765 0.09329 0.09488 0.0
C954 C 0.7708 0.091 0.21271 0.0
C955 C 0.75842 0.09929 0.22463 0.0
H956 H 0.78501 0.08167 0.14233 0.0
H957 H 0.77708 0.08675 0.25285 0.0
S958 S 0.73406 0.11508 0.09981 0.0
N959 N 0.74678 0.10687 0.05738 0.0
N960 N 0.73824 0.11244 0.17702 0.0
C961 C 0.75058 0.10456 0.17094 0.0
C962 C 0.75514 0.10148 0.10608 0.0
C963 C 0.6727 0.90142 0.77876 0.0
C964 C 0.66115 0.90936 0.7529 0.0
C965 C 0.67887 0.90455 0.84397 0.0
C966 C 0.67338 0.91538 0.88651 0.0
H967 H 0.67677 0.89242 0.74858 0.0
H968 H 0.68764 0.898 0.86154 0.0
S969 S 0.644 0.94008 0.84266 0.0
N970 N 0.64513 0.92929 0.77442 0.0
N971 N 0.6564 0.93478 0.89759 0.0
C972 C 0.66211 0.9237 0.86124 0.0
C973 C 0.65613 0.92083 0.79427 0.0
C974 C 0.10746 0.7523 0.81805 0.0
C975 C 0.09958 0.75711 0.76337 0.0
C976 C 0.10291 0.75548 0.88148 0.0
C977 C 0.09055 0.76384 0.89265 0.0
H978 H 0.11707 0.74583 0.81195 0.0
H979 H 0.1093 0.75153 0.922 0.0
S980 S 0.06601 0.77895 0.76638 0.0
N981 N 0.07865 0.77048 0.7247 0.0
N982 N 0.0703 0.77671 0.84382 0.0
C983 C 0.08261 0.76878 0.83847 0.0
C984 C 0.08707 0.76535 0.77387 0.0
C985 C 0.24386 0.3434 0.88462 0.0
C986 C 0.23228 0.32259 0.89548 0.0
C987 C 0.24841 0.35123 0.82135 0.0
C988 C 0.2418 0.33853 0.76649 0.0
H989 H 0.24927 0.35378 0.92528 0.0
H990 H 0.25719 0.3674 0.81549 0.0
S991 S 0.21161 0.28282 0.7685 0.0
N992 N 0.21462 0.28932 0.84606 0.0
N993 N 0.22341 0.30407 0.72719 0.0
C994 C 0.23051 0.31766 0.77661 0.0
C995 C 0.22566 0.30968 0.84108 0.0
C996 C -0.00028 0.4147 0.52874 0.0
C997 C 0.00242 0.43157 0.56395 0.0
C998 C 0.99436 0.41243 0.46269 0.0
C999 C 0.99093 0.42664 0.43064 0.0
H1000 H 0.00219 0.40344 0.55198 0.0
H1001 H 0.99238 0.39923 0.43703 0.0
S1002 S 0.99566 0.47315 0.50211 0.0
N1003 N 0.00157 0.46277 0.56229 0.0
N1004 N 0.99036 0.45793 0.43909 0.0
C1005 C 0.99331 0.44339 0.4657 0.0
C1006 C -0.00062 0.44601 0.53221 0.0
C1007 C 0.58037 0.56332 0.4892 0.0
C1008 C 0.57509 0.57065 0.43419 0.0
C1009 C 0.5771 0.56793 0.55236 0.0
C1010 C 0.56823 0.57987 0.56296 0.0
H1011 H 0.58703 0.55386 0.48358 0.0
H1012 H 0.58118 0.56173 0.59313 0.0
S1013 S 0.55244 0.60351 0.4356 0.0
N1014 N 0.56121 0.59104 0.39449 0.0
N1015 N 0.55488 0.59958 0.51324 0.0
C1016 C 0.56318 0.58759 0.50844 0.0
C1017 C 0.56667 0.58302 0.44405 0.0
C1018 C 0.41487 0.98089 0.51383 0.0
C1019 C 0.42059 0.99358 0.5687 0.0
C1020 C 0.41911 0.98876 0.45057 0.0
C1021 C 0.42946 0.00962 0.43987 0.0
H1022 H 0.40721 0.96471 0.51969 0.0
H1023 H 0.4147 0.97843 0.40988 0.0
S1024 S 0.4467 0.04934 0.56662 0.0
N1025 N 0.43629 0.02805 0.60793 0.0
N1026 N 0.44446 0.04287 0.48913 0.0
C1027 C 0.43486 0.02249 0.49418 0.0
C1028 C 0.43036 0.01447 0.55857 0.0
C1029 C 0.56037 0.96719 0.52353 0.0
C1030 C 0.56765 0.9798 0.57852 0.0
C1031 C 0.56389 0.97511 0.46034 0.0
C1032 C 0.57458 0.99597 0.44967 0.0
H1033 H 0.55166 0.95101 0.52928 0.0
H1034 H 0.5578 0.9648 0.41966 0.0
S1035 S 0.59771 0.03551 0.57681 0.0
N1036 N 0.58679 0.01418 0.61798 0.0
N1037 N 0.59324 0.02915 0.49927 0.0
C1038 C 0.58233 0.00878 0.50411 0.0
C1039 C 0.57894 0.00068 0.56851 0.0
C1040 C 0.99564 0.58207 0.47015 0.0
C1041 C 0.99106 0.56381 0.43997 0.0
C1042 C 0.00126 0.58554 0.53593 0.0
C1043 C 0.003 0.57107 0.57274 0.0
H1044 H 0.99446 0.59357 0.44314 0.0
H1045 H 0.00475 0.59979 0.55765 0.0
S1046 S 0.99305 0.52109 0.51642 0.0
N1047 N 0.9884 0.53106 0.4521 0.0
N1048 N 2e-05 0.53807 0.57487 0.0
C1049 C -0.00126 0.55291 0.54303 0.0
C1050 C 0.99246 0.54913 0.47677 0.0
C1051 C 0.43411 0.41585 0.49701 0.0
C1052 C 0.42471 0.41887 0.44263 0.0
C1053 C 0.43057 0.4202 0.56027 0.0
C1054 C 0.41768 0.42794 0.57139 0.0
H1055 H 0.44453 0.41033 0.49072 0.0
H1056 H 0.4384 0.41799 0.60049 0.0
S1057 S 0.38796 0.43689 0.44685 0.0
N1058 N 0.4009 0.42882 0.4049 0.0
N1059 N 0.39438 0.43715 0.52369 0.0
C1060 C 0.40771 0.43047 0.51783 0.0
C1061 C 0.41119 0.42588 0.45347 0.0
C1062 C 0.0941 0.34606 0.28315 0.0
C1063 C 0.08156 0.32527 0.27338 0.0
C1064 C 0.09843 0.35435 0.34592 0.0
C1065 C 0.09026 0.3422 0.40149 0.0
H1066 H 0.10115 0.35601 0.24208 0.0
H1067 H 0.10856 0.37038 0.35086 0.0
S1068 S 0.05526 0.28701 0.40228 0.0
N1069 N 0.06014 0.29282 0.32449 0.0
N1070 N 0.06812 0.30838 0.44235 0.0
C1071 C 0.07709 0.32147 0.39233 0.0
C1072 C 0.07279 0.31301 0.32836 0.0
C1073 C 0.64612 0.74153 0.34497 0.0
C1074 C 0.65863 0.74775 0.40026 0.0
C1075 C 0.65421 0.74613 0.28192 0.0
C1076 C 0.67512 0.75723 0.27167 0.0
H1077 H 0.62992 0.73363 0.35032 0.0
H1078 H 0.64393 0.74159 0.24105 0.0
S1079 S 0.71448 0.77518 0.39968 0.0
N1080 N 0.69307 0.76415 0.4403 0.0
N1081 N 0.70822 0.77288 0.322 0.0
C1082 C 0.68782 0.76268 0.32637 0.0
C1083 C 0.67959 0.7579 0.39057 0.0
C1084 C 0.2515 0.90808 0.29398 0.0
C1085 C 0.23997 0.91746 0.28397 0.0
C1086 C 0.25598 0.90435 0.35691 0.0
C1087 C 0.24917 0.90993 0.41247 0.0
H1088 H 0.25662 0.90297 0.25289 0.0
H1089 H 0.26434 0.89649 0.3619 0.0
S1090 S 0.22005 0.9367 0.41297 0.0
N1091 N 0.22302 0.93354 0.33509 0.0
N1092 N 0.23147 0.92662 0.45319 0.0
C1093 C 0.2384 0.92016 0.40318 0.0
C1094 C 0.23378 0.92389 0.33904 0.0
C1095 C 0.32307 0.07731 0.6195 0.0
C1096 C 0.34403 0.08791 0.60981 0.0
C1097 C 0.31478 0.07334 0.68232 0.0
C1098 C 0.3271 0.07972 0.73806 0.0
H1099 H 0.31293 0.07264 0.57823 0.0
H1100 H 0.29856 0.06572 0.68708 0.0
S1101 S 0.38294 0.10623 0.73938 0.0
N1102 N 0.37693 0.10342 0.66141 0.0
N1103 N 0.36139 0.09588 0.77929 0.0
C1104 C 0.34808 0.08947 0.72908 0.0
C1105 C 0.35653 0.09359 0.66507 0.0
C1106 C 0.92137 0.24058 0.68287 0.0
C1107 C 0.91546 0.24703 0.73858 0.0
C1108 C 0.91647 0.24396 0.62005 0.0
C1109 C 0.90535 0.25381 0.61041 0.0
H1110 H 0.92934 0.23233 0.68776 0.0
H1111 H 0.92086 0.23819 0.57887 0.0
S1112 S 0.88791 0.27538 0.73959 0.0
N1113 N 0.89915 0.26508 0.77954 0.0
N1114 N 0.88986 0.27129 0.66177 0.0
C1115 C 0.90009 0.26109 0.66551 0.0
C1116 C 0.90517 0.25775 0.72945 0.0
C1117 C 0.74638 0.65578 0.72387 0.0
C1118 C 0.7561 0.67673 0.73334 0.0
C1119 C 0.74247 0.64743 0.66119 0.0
C1120 C 0.74798 0.65967 0.60531 0.0
H1121 H 0.74226 0.64571 0.7652 0.0
H1122 H 0.73541 0.63125 0.65662 0.0
S1123 S 0.77236 0.71538 0.60339 0.0
N1124 N 0.77014 0.7095 0.68143 0.0
N1125 N 0.76266 0.69382 0.56368 0.0
C1126 C 0.757 0.6806 0.61404 0.0
C1127 C 0.7611 0.68913 0.67797 0.0
C1128 C 0.91413 0.67216 0.6295 0.0
C1129 C 0.90273 0.65124 0.62002 0.0
C1130 C 0.91843 0.6805 0.69222 0.0
C1131 C 0.91165 0.66824 0.74805 0.0
H1132 H 0.91933 0.68228 0.58813 0.0
H1133 H 0.92682 0.69672 0.69685 0.0
S1134 S 0.88258 0.61241 0.74988 0.0
N1135 N 0.88568 0.61835 0.67186 0.0
N1136 N 0.89388 0.63398 0.78962 0.0
C1137 C 0.90088 0.64724 0.73929 0.0
C1138 C 0.89638 0.63876 0.67536 0.0
C1139 C 0.31033 0.23498 0.67588 0.0
C1140 C 0.3227 0.24207 0.7314 0.0
C1141 C 0.31854 0.23926 0.61296 0.0
C1142 C 0.33945 0.25071 0.60302 0.0
H1143 H 0.2942 0.22552 0.68094 0.0
H1144 H 0.30842 0.2329 0.5719 0.0
S1145 S 0.37829 0.2746 0.73176 0.0
N1146 N 0.35687 0.2625 0.77202 0.0
N1147 N 0.37225 0.27042 0.65394 0.0
C1148 C 0.35193 0.25869 0.65797 0.0
C1149 C 0.34356 0.25441 0.72206 0.0
C1150 C 0.76381 0.07412 0.67149 0.0
C1151 C 0.75591 0.07859 0.72675 0.0
C1152 C 0.75944 0.07786 0.60844 0.0
C1153 C 0.74705 0.08628 0.59817 0.0
H1154 H 0.77402 0.0683 0.6769 0.0
H1155 H 0.76644 0.0748 0.56759 0.0
S1156 S 0.72075 0.09865 0.72606 0.0
N1157 N 0.73369 0.09033 0.76669 0.0
N1158 N 0.72556 0.09741 0.64843 0.0
C1159 C 0.73824 0.08989 0.65283 0.0
C1160 C 0.74264 0.08602 0.71701 0.0
C1161 C 0.6808 0.9251 0.31855 0.0
C1162 C 0.66831 0.91884 0.26312 0.0
C1163 C 0.67274 0.92125 0.38178 0.0
C1164 C 0.65183 0.91084 0.39235 0.0
H1165 H 0.69699 0.93261 0.31322 0.0
H1166 H 0.68302 0.92581 0.42264 0.0
S1167 S 0.61251 0.89271 0.26405 0.0
N1168 N 0.6339 0.9029 0.22328 0.0
N1169 N 0.61877 0.89554 0.34181 0.0
C1170 C 0.63916 0.90523 0.33742 0.0
C1171 C 0.64738 0.90926 0.27298 0.0
C1172 C 0.08104 0.75582 0.38327 0.0
C1173 C 0.09097 0.7448 0.39302 0.0
C1174 C 0.07694 0.76002 0.32048 0.0
C1175 C 0.08254 0.75328 0.26477 0.0
H1176 H 0.0769 0.76183 0.42443 0.0
H1177 H 0.06976 0.76903 0.31568 0.0
S1178 S 0.10736 0.72233 0.26363 0.0
N1179 N 0.10519 0.72614 0.34156 0.0
N1180 N 0.09743 0.73393 0.22365 0.0
C1181 C 0.09173 0.74152 0.27381 0.0
C1182 C 0.09597 0.73731 0.33784 0.0
C1183 C 0.23581 0.3125 0.3223 0.0
C1184 C 0.24163 0.32477 0.26644 0.0
C1185 C 0.23983 0.32084 0.38505 0.0
C1186 C 0.24969 0.34179 0.39453 0.0
H1187 H 0.22765 0.29627 0.31766 0.0
H1188 H 0.2346 0.31073 0.42641 0.0
S1189 S 0.26946 0.38063 0.26464 0.0
N1190 N 0.2589 0.35905 0.22492 0.0
N1191 N 0.2663 0.37468 0.34265 0.0
C1192 C 0.25624 0.35427 0.33917 0.0
C1193 C 0.25226 0.34577 0.27523 0.0
C1194 C 0.01561 0.42496 0.98871 0.0
C1195 C 0.00299 0.41723 0.93393 0.0
C1196 C 0.00773 0.42112 0.05205 0.0
C1197 C 0.98691 0.4094 0.06333 0.0
H1198 H 0.03167 0.43469 0.98269 0.0
H1199 H 0.01804 0.42806 0.09235 0.0
S1200 S 0.94756 0.38371 0.93704 0.0
N1201 N 0.96874 0.39584 0.89549 0.0
N1202 N 0.95395 0.38864 0.01442 0.0
C1203 C 0.97421 0.40066 0.0092 0.0
C1204 C 0.98224 0.40457 0.94459 0.0
C1205 C 0.5702 0.58273 0.05317 0.0
C1206 C 0.58101 0.57257 0.06274 0.0
C1207 C 0.56594 0.58681 0.99048 0.0
C1208 C 0.57243 0.58102 0.93467 0.0
H1209 H 0.56453 0.58719 0.09445 0.0
H1210 H 0.55722 0.59431 0.98585 0.0
S1211 S 0.60233 0.55508 0.93291 0.0
N1212 N 0.59887 0.55754 0.01094 0.0
N1213 N 0.591 0.56533 0.89313 0.0
C1214 C 0.5838 0.57139 0.94345 0.0
C1215 C 0.58804 0.56713 0.00742 0.0
C1216 C 0.41599 0.98956 0.05666 0.0
C1217 C 0.42659 0.0105 0.06626 0.0
C1218 C 0.41161 0.98127 0.99388 0.0
C1219 C 0.41747 0.9936 0.93818 0.0
H1220 H 0.41154 0.97942 0.0979 0.0
H1221 H 0.40386 0.96506 0.98906 0.0
S1222 S 0.44416 0.04944 0.93689 0.0
N1223 N 0.44188 0.04343 0.01482 0.0
N1224 N 0.43349 0.02789 0.89695 0.0
C1225 C 0.4274 0.01458 0.94714 0.0
C1226 C 0.43201 0.02302 0.0111 0.0
C1227 C 0.58116 0.99685 0.95973 0.0
C1228 C 0.56874 0.97602 0.95026 0.0
C1229 C 0.58559 0.00523 0.02249 0.0
C1230 C 0.57794 0.99308 0.07837 0.0
H1231 H 0.587 0.00689 0.91831 0.0
H1232 H 0.59474 0.0214 0.02709 0.0
S1233 S 0.54611 0.93742 0.08027 0.0
N1234 N 0.54984 0.94329 1.00224 0.0
N1235 N 0.5583 0.95894 0.11995 0.0
C1236 C 0.56619 0.97213 0.06962 0.0
C1237 C 0.56154 0.96363 0.00569 0.0
C1238 C 0.98522 0.57583 0.95551 0.0
C1239 C 0.00611 0.58585 0.94452 0.0
C1240 C 0.9773 0.57189 0.01884 0.0
C1241 C 0.98996 0.57784 0.07377 0.0
H1242 H 0.97482 0.5703 0.91491 0.0
H1243 H 0.96112 0.56347 0.02462 0.0
S1244 S 0.0458 0.60664 0.07165 0.0
N1245 N 0.03933 0.60319 0.99408 0.0
N1246 N 0.02449 0.59582 0.11288 0.0
C1247 C 0.01088 0.58883 0.06349 0.0
C1248 C 0.01895 0.59283 0.99898 0.0
C1249 C 0.42971 0.41243 0.01645 0.0
C1250 C 0.42259 0.41757 0.07222 0.0
C1251 C 0.42553 0.41658 0.95371 0.0
C1252 C 0.41418 0.42618 0.94409 0.0
H1253 H 0.43885 0.40539 0.02117 0.0
H1254 H 0.43168 0.41265 0.91247 0.0
S1255 S 0.39108 0.44179 0.0737 0.0
N1256 N 0.40283 0.432 0.11354 0.0
N1257 N 0.39512 0.43993 0.99575 0.0
C1258 C 0.40653 0.43096 0.99935 0.0
C1259 C 0.41068 0.42661 0.06331 0.0
loop_
_geom_bond_atom_site_label_1
_geom_bond_atom_site_label_2
_geom_bond_distance
_geom_bond_site_symmetry_2
_ccdc_geom_bond_type
In0 O1 2.294 . S
In0 O2 2.326 . S
In0 O6 2.266 . S
In0 O7 2.326 . S
In0 O8 2.266 . S
In0 O9 2.326 1_554 S
In0 O11 2.294 . S
In0 O12 2.326 . S
O1 In0 2.294 . S
O1 C10 1.240 . S
O2 In0 2.326 . S
O2 C10 1.252 . S
C3 O6 1.252 . S
C3 O7 1.260 . S
C4 O11 1.240 . S
C4 O12 1.252 . S
C5 O8 1.252 1_556 S
C5 O9 1.260 . S
O6 In0 2.266 . S
O6 C3 1.252 . S
O7 In0 2.326 . S
O7 C3 1.260 . S
O8 In0 2.266 . S
O8 C5 1.252 1_554 S
O9 In0 2.326 1_556 S
O9 C5 1.260 . S
C10 O1 1.240 . S
C10 O2 1.252 . S
O11 In0 2.294 . S
O11 C4 1.240 . S
O12 In0 2.326 . S
O12 C4 1.252 . S
In13 O14 2.294 . S
In13 O15 2.326 . S
In13 O19 2.266 . S
In13 O20 2.326 . S
In13 O21 2.266 . S
In13 O22 2.326 1_554 S
In13 O24 2.294 . S
In13 O25 2.326 . S
O14 In13 2.294 . S
O14 C23 1.240 . S
O15 In13 2.326 . S
O15 C23 1.252 . S
C16 O19 1.252 . S
C16 O20 1.260 . S
C17 O24 1.240 . S
C17 O25 1.252 . S
C18 O21 1.252 1_556 S
C18 O22 1.260 . S
O19 In13 2.266 . S
O19 C16 1.252 . S
O20 In13 2.326 . S
O20 C16 1.260 . S
O21 In13 2.266 . S
O21 C18 1.252 1_554 S
O22 In13 2.326 1_556 S
O22 C18 1.260 . S
C23 O14 1.240 . S
C23 O15 1.252 . S
O24 In13 2.294 . S
O24 C17 1.240 . S
O25 In13 2.326 . S
O25 C17 1.252 . S
In26 O27 2.294 . S
In26 O28 2.326 . S
In26 O32 2.266 . S
In26 O33 2.326 1_554 S
In26 O34 2.266 . S
In26 O35 2.326 . S
In26 O37 2.294 . S
In26 O38 2.326 . S
O27 In26 2.294 . S
O27 C36 1.240 . S
O28 In26 2.326 . S
O28 C36 1.252 . S
C29 O32 1.252 1_556 S
C29 O33 1.260 . S
C30 O37 1.240 . S
C30 O38 1.252 . S
C31 O34 1.252 . S
C31 O35 1.260 . S
O32 In26 2.266 . S
O32 C29 1.252 1_554 S
O33 In26 2.326 1_556 S
O33 C29 1.260 . S
O34 In26 2.266 . S
O34 C31 1.252 . S
O35 In26 2.326 . S
O35 C31 1.260 . S
C36 O27 1.240 . S
C36 O28 1.252 . S
O37 In26 2.294 . S
O37 C30 1.240 . S
O38 In26 2.326 . S
O38 C30 1.252 . S
In39 O40 2.294 . S
In39 O41 2.326 . S
In39 O45 2.266 . S
In39 O46 2.326 1_556 S
In39 O47 2.266 . S
In39 O48 2.326 . S
In39 O50 2.294 . S
In39 O51 2.326 . S
O40 In39 2.294 . S
O40 C49 1.240 . S
O41 In39 2.326 . S
O41 C49 1.252 . S
C42 O45 1.252 1_554 S
C42 O46 1.260 . S
C43 O50 1.240 . S
C43 O51 1.252 . S
C44 O47 1.252 . S
C44 O48 1.260 . S
O45 In39 2.266 . S
O45 C42 1.252 1_556 S
O46 In39 2.326 1_554 S
O46 C42 1.260 . S
O47 In39 2.266 . S
O47 C44 1.252 . S
O48 In39 2.326 . S
O48 C44 1.260 . S
C49 O40 1.240 . S
C49 O41 1.252 . S
O50 In39 2.294 . S
O50 C43 1.240 . S
O51 In39 2.326 . S
O51 C43 1.252 . S
In52 O53 2.294 . S
In52 O54 2.326 . S
In52 O58 2.266 . S
In52 O59 2.326 1_556 S
In52 O60 2.266 . S
In52 O61 2.326 . S
In52 O63 2.294 . S
In52 O64 2.326 . S
O53 In52 2.294 . S
O53 C62 1.240 . S
O54 In52 2.326 . S
O54 C62 1.252 . S
C55 O58 1.252 1_554 S
C55 O59 1.260 . S
C56 O63 1.240 . S
C56 O64 1.252 . S
C57 O60 1.252 . S
C57 O61 1.260 . S
O58 In52 2.266 . S
O58 C55 1.252 1_556 S
O59 In52 2.326 1_554 S
O59 C55 1.260 . S
O60 In52 2.266 . S
O60 C57 1.252 . S
O61 In52 2.326 . S
O61 C57 1.260 . S
C62 O53 1.240 . S
C62 O54 1.252 . S
O63 In52 2.294 . S
O63 C56 1.240 . S
O64 In52 2.326 . S
O64 C56 1.252 . S
In65 O66 2.294 . S
In65 O67 2.326 . S
In65 O71 2.266 . S
In65 O72 2.326 . S
In65 O73 2.266 . S
In65 O74 2.326 1_556 S
In65 O76 2.294 . S
In65 O77 2.326 . S
O66 In65 2.294 . S
O66 C75 1.240 . S
O67 In65 2.326 . S
O67 C75 1.252 . S
C68 O71 1.252 . S
C68 O72 1.260 . S
C69 O76 1.240 . S
C69 O77 1.252 . S
C70 O73 1.252 1_554 S
C70 O74 1.260 . S
O71 In65 2.266 . S
O71 C68 1.252 . S
O72 In65 2.326 . S
O72 C68 1.260 . S
O73 In65 2.266 . S
O73 C70 1.252 1_556 S
O74 In65 2.326 1_554 S
O74 C70 1.260 . S
C75 O66 1.240 . S
C75 O67 1.252 . S
O76 In65 2.294 . S
O76 C69 1.240 . S
O77 In65 2.326 . S
O77 C69 1.252 . S
In78 O79 2.294 . S
In78 O80 2.326 . S
In78 O84 2.266 . S
In78 O85 2.326 1_556 S
In78 O86 2.266 . S
In78 O87 2.326 . S
In78 O89 2.294 . S
In78 O90 2.326 . S
O79 In78 2.294 . S
O79 C88 1.240 . S
O80 In78 2.326 . S
O80 C88 1.252 . S
C81 O84 1.252 1_554 S
C81 O85 1.260 . S
C82 O89 1.240 . S
C82 O90 1.252 . S
C83 O86 1.252 . S
C83 O87 1.260 . S
O84 In78 2.266 . S
O84 C81 1.252 1_556 S
O85 In78 2.326 1_554 S
O85 C81 1.260 . S
O86 In78 2.266 . S
O86 C83 1.252 . S
O87 In78 2.326 . S
O87 C83 1.260 . S
C88 O79 1.240 . S
C88 O80 1.252 . S
O89 In78 2.294 . S
O89 C82 1.240 . S
O90 In78 2.326 . S
O90 C82 1.252 . S
In91 O92 2.294 . S
In91 O93 2.326 . S
In91 O97 2.266 . S
In91 O98 2.326 . S
In91 O99 2.266 . S
In91 O100 2.326 1_556 S
In91 O102 2.294 . S
In91 O103 2.326 . S
O92 In91 2.294 . S
O92 C101 1.240 . S
O93 In91 2.326 . S
O93 C101 1.252 . S
C94 O97 1.252 . S
C94 O98 1.260 . S
C95 O102 1.240 . S
C95 O103 1.252 . S
C96 O99 1.252 1_554 S
C96 O100 1.260 . S
O97 In91 2.266 . S
O97 C94 1.252 . S
O98 In91 2.326 . S
O98 C94 1.260 . S
O99 In91 2.266 . S
O99 C96 1.252 1_556 S
O100 In91 2.326 1_554 S
O100 C96 1.260 . S
C101 O92 1.240 . S
C101 O93 1.252 . S
O102 In91 2.294 . S
O102 C95 1.240 . S
O103 In91 2.326 . S
O103 C95 1.252 . S
In104 O105 2.294 . S
In104 O106 2.326 . S
In104 O110 2.266 . S
In104 O111 2.326 1_556 S
In104 O112 2.266 . S
In104 O113 2.326 . S
In104 O115 2.294 . S
In104 O116 2.326 . S
O105 In104 2.294 . S
O105 C114 1.240 . S
O106 In104 2.326 . S
O106 C114 1.252 . S
C107 O110 1.252 1_554 S
C107 O111 1.260 . S
C108 O115 1.240 . S
C108 O116 1.252 . S
C109 O112 1.252 . S
C109 O113 1.260 . S
O110 In104 2.266 . S
O110 C107 1.252 1_556 S
O111 In104 2.326 1_554 S
O111 C107 1.260 . S
O112 In104 2.266 . S
O112 C109 1.252 . S
O113 In104 2.326 . S
O113 C109 1.260 . S
C114 O105 1.240 . S
C114 O106 1.252 . S
O115 In104 2.294 . S
O115 C108 1.240 . S
O116 In104 2.326 . S
O116 C108 1.252 . S
In117 O118 2.294 . S
In117 O119 2.326 . S
In117 O123 2.266 . S
In117 O124 2.326 1_554 S
In117 O125 2.266 . S
In117 O126 2.326 . S
In117 O128 2.294 . S
In117 O129 2.326 . S
O118 In117 2.294 . S
O118 C127 1.240 . S
O119 In117 2.326 . S
O119 C127 1.252 . S
C120 O123 1.252 1_556 S
C120 O124 1.260 . S
C121 O128 1.240 . S
C121 O129 1.252 . S
C122 O125 1.252 . S
C122 O126 1.260 . S
O123 In117 2.266 . S
O123 C120 1.252 1_554 S
O124 In117 2.326 1_556 S
O124 C120 1.260 . S
O125 In117 2.266 . S
O125 C122 1.252 . S
O126 In117 2.326 . S
O126 C122 1.260 . S
C127 O118 1.240 . S
C127 O119 1.252 . S
O128 In117 2.294 . S
O128 C121 1.240 . S
O129 In117 2.326 . S
O129 C121 1.252 . S
In130 O131 2.294 . S
In130 O132 2.326 . S
In130 O136 2.266 . S
In130 O137 2.326 . S
In130 O138 2.266 . S
In130 O139 2.326 1_554 S
In130 O141 2.294 . S
In130 O142 2.326 . S
O131 In130 2.294 . S
O131 C140 1.240 . S
O132 In130 2.326 . S
O132 C140 1.252 . S
C133 O136 1.252 . S
C133 O137 1.260 . S
C134 O141 1.240 . S
C134 O142 1.252 . S
C135 O138 1.252 1_556 S
C135 O139 1.260 . S
O136 In130 2.266 . S
O136 C133 1.252 . S
O137 In130 2.326 . S
O137 C133 1.260 . S
O138 In130 2.266 . S
O138 C135 1.252 1_554 S
O139 In130 2.326 1_556 S
O139 C135 1.260 . S
C140 O131 1.240 . S
C140 O132 1.252 . S
O141 In130 2.294 . S
O141 C134 1.240 . S
O142 In130 2.326 . S
O142 C134 1.252 . S
In143 O144 2.294 . S
In143 O145 2.326 . S
In143 O149 2.266 . S
In143 O150 2.326 1_554 S
In143 O151 2.266 . S
In143 O152 2.326 . S
In143 O154 2.294 . S
In143 O155 2.326 . S
O144 In143 2.294 . S
O144 C153 1.240 . S
O145 In143 2.326 . S
O145 C153 1.252 . S
C146 O149 1.252 1_556 S
C146 O150 1.260 . S
C147 O154 1.240 . S
C147 O155 1.252 . S
C148 O151 1.252 . S
C148 O152 1.260 . S
O149 In143 2.266 . S
O149 C146 1.252 1_554 S
O150 In143 2.326 1_556 S
O150 C146 1.260 . S
O151 In143 2.266 . S
O151 C148 1.252 . S
O152 In143 2.326 . S
O152 C148 1.260 . S
C153 O144 1.240 . S
C153 O145 1.252 . S
O154 In143 2.294 . S
O154 C147 1.240 . S
O155 In143 2.326 . S
O155 C147 1.252 . S
In156 O157 2.294 . S
In156 O158 2.326 . S
In156 O162 2.266 . S
In156 O163 2.326 . S
In156 O164 2.266 . S
In156 O165 2.326 . S
In156 O167 2.294 . S
In156 O168 2.326 . S
O157 In156 2.294 . S
O157 C166 1.240 . S
O158 In156 2.326 . S
O158 C166 1.252 . S
C159 O162 1.252 . S
C159 O163 1.260 . S
C160 O167 1.240 . S
C160 O168 1.252 . S
C161 O164 1.252 . S
C161 O165 1.260 . S
O162 In156 2.266 . S
O162 C159 1.252 . S
O163 In156 2.326 . S
O163 C159 1.260 . S
O164 In156 2.266 . S
O164 C161 1.252 . S
O165 In156 2.326 . S
O165 C161 1.260 . S
C166 O157 1.240 . S
C166 O158 1.252 . S
O167 In156 2.294 . S
O167 C160 1.240 . S
O168 In156 2.326 . S
O168 C160 1.252 . S
In169 O170 2.294 . S
In169 O171 2.326 . S
In169 O175 2.266 . S
In169 O176 2.326 . S
In169 O177 2.266 . S
In169 O178 2.326 . S
In169 O180 2.294 . S
In169 O181 2.326 . S
O170 In169 2.294 . S
O170 C179 1.240 . S
O171 In169 2.326 . S
O171 C179 1.252 . S
C172 O175 1.252 . S
C172 O176 1.260 . S
C173 O180 1.240 . S
C173 O181 1.252 . S
C174 O177 1.252 . S
C174 O178 1.260 . S
O175 In169 2.266 . S
O175 C172 1.252 . S
O176 In169 2.326 . S
O176 C172 1.260 . S
O177 In169 2.266 . S
O177 C174 1.252 . S
O178 In169 2.326 . S
O178 C174 1.260 . S
C179 O170 1.240 . S
C179 O171 1.252 . S
O180 In169 2.294 . S
O180 C173 1.240 . S
O181 In169 2.326 . S
O181 C173 1.252 . S
In182 O183 2.294 . S
In182 O184 2.326 . S
In182 O188 2.266 . S
In182 O189 2.326 . S
In182 O190 2.266 . S
In182 O191 2.326 . S
In182 O193 2.294 . S
In182 O194 2.326 . S
O183 In182 2.294 . S
O183 C192 1.240 . S
O184 In182 2.326 . S
O184 C192 1.252 . S
C185 O188 1.252 . S
C185 O189 1.260 . S
C186 O193 1.240 . S
C186 O194 1.252 . S
C187 O190 1.252 . S
C187 O191 1.260 . S
O188 In182 2.266 . S
O188 C185 1.252 . S
O189 In182 2.326 . S
O189 C185 1.260 . S
O190 In182 2.266 . S
O190 C187 1.252 . S
O191 In182 2.326 . S
O191 C187 1.260 . S
C192 O183 1.240 . S
C192 O184 1.252 . S
O193 In182 2.294 . S
O193 C186 1.240 . S
O194 In182 2.326 . S
O194 C186 1.252 . S
In195 O196 2.294 . S
In195 O197 2.326 . S
In195 O201 2.266 . S
In195 O202 2.326 . S
In195 O203 2.266 . S
In195 O204 2.326 . S
In195 O206 2.294 . S
In195 O207 2.326 . S
O196 In195 2.294 . S
O196 C205 1.240 . S
O197 In195 2.326 . S
O197 C205 1.252 . S
C198 O201 1.252 . S
C198 O202 1.260 . S
C199 O206 1.240 . S
C199 O207 1.252 . S
C200 O203 1.252 . S
C200 O204 1.260 . S
O201 In195 2.266 . S
O201 C198 1.252 . S
O202 In195 2.326 . S
O202 C198 1.260 . S
O203 In195 2.266 . S
O203 C200 1.252 . S
O204 In195 2.326 . S
O204 C200 1.260 . S
C205 O196 1.240 . S
C205 O197 1.252 . S
O206 In195 2.294 . S
O206 C199 1.240 . S
O207 In195 2.326 . S
O207 C199 1.252 . S
In208 O209 2.294 . S
In208 O210 2.326 . S
In208 O214 2.266 . S
In208 O215 2.326 . S
In208 O216 2.266 . S
In208 O217 2.326 . S
In208 O219 2.294 . S
In208 O220 2.326 . S
O209 In208 2.294 . S
O209 C218 1.240 . S
O210 In208 2.326 . S
O210 C218 1.252 . S
C211 O214 1.252 . S
C211 O215 1.260 . S
C212 O219 1.240 . S
C212 O220 1.252 . S
C213 O216 1.252 . S
C213 O217 1.260 . S
O214 In208 2.266 . S
O214 C211 1.252 . S
O215 In208 2.326 . S
O215 C211 1.260 . S
O216 In208 2.266 . S
O216 C213 1.252 . S
O217 In208 2.326 . S
O217 C213 1.260 . S
C218 O209 1.240 . S
C218 O210 1.252 . S
O219 In208 2.294 . S
O219 C212 1.240 . S
O220 In208 2.326 . S
O220 C212 1.252 . S
In221 O222 2.294 . S
In221 O223 2.326 . S
In221 O227 2.266 . S
In221 O228 2.326 . S
In221 O229 2.266 . S
In221 O230 2.326 . S
In221 O232 2.294 . S
In221 O233 2.326 . S
O222 In221 2.294 . S
O222 C231 1.240 . S
O223 In221 2.326 . S
O223 C231 1.252 . S
C224 O227 1.252 . S
C224 O228 1.260 . S
C225 O232 1.240 . S
C225 O233 1.252 . S
C226 O229 1.252 . S
C226 O230 1.260 . S
O227 In221 2.266 . S
O227 C224 1.252 . S
O228 In221 2.326 . S
O228 C224 1.260 . S
O229 In221 2.266 . S
O229 C226 1.252 . S
O230 In221 2.326 . S
O230 C226 1.260 . S
C231 O222 1.240 . S
C231 O223 1.252 . S
O232 In221 2.294 . S
O232 C225 1.240 . S
O233 In221 2.326 . S
O233 C225 1.252 . S
In234 O235 2.294 . S
In234 O236 2.326 . S
In234 O240 2.266 . S
In234 O241 2.326 . S
In234 O242 2.266 . S
In234 O243 2.326 . S
In234 O245 2.294 . S
In234 O246 2.326 . S
O235 In234 2.294 . S
O235 C244 1.240 . S
O236 In234 2.326 . S
O236 C244 1.252 . S
C237 O240 1.252 . S
C237 O241 1.260 . S
C238 O245 1.240 . S
C238 O246 1.252 . S
C239 O242 1.252 . S
C239 O243 1.260 . S
O240 In234 2.266 . S
O240 C237 1.252 . S
O241 In234 2.326 . S
O241 C237 1.260 . S
O242 In234 2.266 . S
O242 C239 1.252 . S
O243 In234 2.326 . S
O243 C239 1.260 . S
C244 O235 1.240 . S
C244 O236 1.252 . S
O245 In234 2.294 . S
O245 C238 1.240 . S
O246 In234 2.326 . S
O246 C238 1.252 . S
In247 O248 2.294 . S
In247 O249 2.326 . S
In247 O253 2.266 . S
In247 O254 2.326 . S
In247 O255 2.266 . S
In247 O256 2.326 . S
In247 O258 2.294 . S
In247 O259 2.326 . S
O248 In247 2.294 . S
O248 C257 1.240 . S
O249 In247 2.326 . S
O249 C257 1.252 . S
C250 O253 1.252 . S
C250 O254 1.260 . S
C251 O258 1.240 . S
C251 O259 1.252 . S
C252 O255 1.252 . S
C252 O256 1.260 . S
O253 In247 2.266 . S
O253 C250 1.252 . S
O254 In247 2.326 . S
O254 C250 1.260 . S
O255 In247 2.266 . S
O255 C252 1.252 . S
O256 In247 2.326 . S
O256 C252 1.260 . S
C257 O248 1.240 . S
C257 O249 1.252 . S
O258 In247 2.294 . S
O258 C251 1.240 . S
O259 In247 2.326 . S
O259 C251 1.252 . S
In260 O261 2.294 . S
In260 O262 2.326 . S
In260 O266 2.266 . S
In260 O267 2.326 . S
In260 O268 2.266 . S
In260 O269 2.326 . S
In260 O271 2.294 . S
In260 O272 2.326 . S
O261 In260 2.294 . S
O261 C270 1.240 . S
O262 In260 2.326 . S
O262 C270 1.252 . S
C263 O266 1.252 . S
C263 O267 1.260 . S
C264 O271 1.240 . S
C264 O272 1.252 . S
C265 O268 1.252 . S
C265 O269 1.260 . S
O266 In260 2.266 . S
O266 C263 1.252 . S
O267 In260 2.326 . S
O267 C263 1.260 . S
O268 In260 2.266 . S
O268 C265 1.252 . S
O269 In260 2.326 . S
O269 C265 1.260 . S
C270 O261 1.240 . S
C270 O262 1.252 . S
O271 In260 2.294 . S
O271 C264 1.240 . S
O272 In260 2.326 . S
O272 C264 1.252 . S
In273 O274 2.294 . S
In273 O275 2.326 . S
In273 O279 2.266 . S
In273 O280 2.326 . S
In273 O281 2.266 . S
In273 O282 2.326 . S
In273 O284 2.294 . S
In273 O285 2.326 . S
O274 In273 2.294 . S
O274 C283 1.240 . S
O275 In273 2.326 . S
O275 C283 1.252 . S
C276 O279 1.252 . S
C276 O280 1.260 . S
C277 O284 1.240 . S
C277 O285 1.252 . S
C278 O281 1.252 . S
C278 O282 1.260 . S
O279 In273 2.266 . S
O279 C276 1.252 . S
O280 In273 2.326 . S
O280 C276 1.260 . S
O281 In273 2.266 . S
O281 C278 1.252 . S
O282 In273 2.326 . S
O282 C278 1.260 . S
C283 O274 1.240 . S
C283 O275 1.252 . S
O284 In273 2.294 . S
O284 C277 1.240 . S
O285 In273 2.326 . S
O285 C277 1.252 . S
In286 O287 2.294 . S
In286 O288 2.326 . S
In286 O292 2.266 . S
In286 O293 2.326 . S
In286 O294 2.266 . S
In286 O295 2.326 . S
In286 O297 2.294 . S
In286 O298 2.326 . S
O287 In286 2.294 . S
O287 C296 1.240 . S
O288 In286 2.326 . S
O288 C296 1.252 . S
C289 O292 1.252 . S
C289 O293 1.260 . S
C290 O297 1.240 . S
C290 O298 1.252 . S
C291 O294 1.252 . S
C291 O295 1.260 . S
O292 In286 2.266 . S
O292 C289 1.252 . S
O293 In286 2.326 . S
O293 C289 1.260 . S
O294 In286 2.266 . S
O294 C291 1.252 . S
O295 In286 2.326 . S
O295 C291 1.260 . S
C296 O287 1.240 . S
C296 O288 1.252 . S
O297 In286 2.294 . S
O297 C290 1.240 . S
O298 In286 2.326 . S
O298 C290 1.252 . S
In299 O300 2.294 . S
In299 O301 2.326 . S
In299 O305 2.266 . S
In299 O306 2.326 . S
In299 O307 2.266 . S
In299 O308 2.326 . S
In299 O310 2.294 . S
In299 O311 2.326 . S
O300 In299 2.294 . S
O300 C309 1.240 . S
O301 In299 2.326 . S
O301 C309 1.252 . S
C302 O305 1.252 . S
C302 O306 1.260 . S
C303 O310 1.240 . S
C303 O311 1.252 . S
C304 O307 1.252 . S
C304 O308 1.260 . S
O305 In299 2.266 . S
O305 C302 1.252 . S
O306 In299 2.326 . S
O306 C302 1.260 . S
O307 In299 2.266 . S
O307 C304 1.252 . S
O308 In299 2.326 . S
O308 C304 1.260 . S
C309 O300 1.240 . S
C309 O301 1.252 . S
O310 In299 2.294 . S
O310 C303 1.240 . S
O311 In299 2.326 . S
O311 C303 1.252 . S
In312 O313 2.294 . S
In312 O314 2.326 . S
In312 O318 2.266 . S
In312 O319 2.326 . S
In312 O320 2.266 . S
In312 O321 2.326 . S
In312 O323 2.294 . S
In312 O324 2.326 . S
O313 In312 2.294 . S
O313 C322 1.240 . S
O314 In312 2.326 . S
O314 C322 1.252 . S
C315 O318 1.252 . S
C315 O319 1.260 . S
C316 O323 1.240 . S
C316 O324 1.252 . S
C317 O320 1.252 . S
C317 O321 1.260 . S
O318 In312 2.266 . S
O318 C315 1.252 . S
O319 In312 2.326 . S
O319 C315 1.260 . S
O320 In312 2.266 . S
O320 C317 1.252 . S
O321 In312 2.326 . S
O321 C317 1.260 . S
C322 O313 1.240 . S
C322 O314 1.252 . S
O323 In312 2.294 . S
O323 C316 1.240 . S
O324 In312 2.326 . S
O324 C316 1.252 . S
In325 O326 2.294 . S
In325 O327 2.326 . S
In325 O331 2.266 . S
In325 O332 2.326 . S
In325 O333 2.266 . S
In325 O334 2.326 . S
In325 O336 2.294 . S
In325 O337 2.326 . S
O326 In325 2.294 . S
O326 C335 1.240 . S
O327 In325 2.326 . S
O327 C335 1.252 . S
C328 O331 1.252 . S
C328 O332 1.260 . S
C329 O336 1.240 . S
C329 O337 1.252 . S
C330 O333 1.252 . S
C330 O334 1.260 . S
O331 In325 2.266 . S
O331 C328 1.252 . S
O332 In325 2.326 . S
O332 C328 1.260 . S
O333 In325 2.266 . S
O333 C330 1.252 . S
O334 In325 2.326 . S
O334 C330 1.260 . S
C335 O326 1.240 . S
C335 O327 1.252 . S
O336 In325 2.294 . S
O336 C329 1.240 . S
O337 In325 2.326 . S
O337 C329 1.252 . S
In338 O339 2.294 . S
In338 O340 2.326 . S
In338 O344 2.266 . S
In338 O345 2.326 . S
In338 O346 2.266 . S
In338 O347 2.326 . S
In338 O349 2.294 . S
In338 O350 2.326 . S
O339 In338 2.294 . S
O339 C348 1.240 . S
O340 In338 2.326 . S
O340 C348 1.252 . S
C341 O344 1.252 . S
C341 O345 1.260 . S
C342 O349 1.240 . S
C342 O350 1.252 . S
C343 O346 1.252 . S
C343 O347 1.260 . S
O344 In338 2.266 . S
O344 C341 1.252 . S
O345 In338 2.326 . S
O345 C341 1.260 . S
O346 In338 2.266 . S
O346 C343 1.252 . S
O347 In338 2.326 . S
O347 C343 1.260 . S
C348 O339 1.240 . S
C348 O340 1.252 . S
O349 In338 2.294 . S
O349 C342 1.240 . S
O350 In338 2.326 . S
O350 C342 1.252 . S
In351 O352 2.294 . S
In351 O353 2.326 . S
In351 O357 2.266 . S
In351 O358 2.326 . S
In351 O359 2.266 . S
In351 O360 2.326 . S
In351 O362 2.294 . S
In351 O363 2.326 . S
O352 In351 2.294 . S
O352 C361 1.240 . S
O353 In351 2.326 . S
O353 C361 1.252 . S
C354 O357 1.252 . S
C354 O358 1.260 . S
C355 O362 1.240 . S
C355 O363 1.252 . S
C356 O359 1.252 . S
C356 O360 1.260 . S
O357 In351 2.266 . S
O357 C354 1.252 . S
O358 In351 2.326 . S
O358 C354 1.260 . S
O359 In351 2.266 . S
O359 C356 1.252 . S
O360 In351 2.326 . S
O360 C356 1.260 . S
C361 O352 1.240 . S
C361 O353 1.252 . S
O362 In351 2.294 . S
O362 C355 1.240 . S
O363 In351 2.326 . S
O363 C355 1.252 . S
In364 O365 2.294 . S
In364 O366 2.326 . S
In364 O370 2.266 . S
In364 O371 2.326 . S
In364 O372 2.266 . S
In364 O373 2.326 . S
In364 O375 2.294 . S
In364 O376 2.326 . S
O365 In364 2.294 . S
O365 C374 1.240 . S
O366 In364 2.326 . S
O366 C374 1.252 . S
C367 O370 1.252 . S
C367 O371 1.260 . S
C368 O375 1.240 . S
C368 O376 1.252 . S
C369 O372 1.252 . S
C369 O373 1.260 . S
O370 In364 2.266 . S
O370 C367 1.252 . S
O371 In364 2.326 . S
O371 C367 1.260 . S
O372 In364 2.266 . S
O372 C369 1.252 . S
O373 In364 2.326 . S
O373 C369 1.260 . S
C374 O365 1.240 . S
C374 O366 1.252 . S
O375 In364 2.294 . S
O375 C368 1.240 . S
O376 In364 2.326 . S
O376 C368 1.252 . S
In377 O378 2.294 . S
In377 O379 2.326 . S
In377 O383 2.266 . S
In377 O384 2.326 . S
In377 O385 2.266 . S
In377 O386 2.326 . S
In377 O388 2.294 . S
In377 O389 2.326 . S
O378 In377 2.294 . S
O378 C387 1.240 . S
O379 In377 2.326 . S
O379 C387 1.252 . S
C380 O383 1.252 . S
C380 O384 1.260 . S
C381 O388 1.240 . S
C381 O389 1.252 . S
C382 O385 1.252 . S
C382 O386 1.260 . S
O383 In377 2.266 . S
O383 C380 1.252 . S
O384 In377 2.326 . S
O384 C380 1.260 . S
O385 In377 2.266 . S
O385 C382 1.252 . S
O386 In377 2.326 . S
O386 C382 1.260 . S
C387 O378 1.240 . S
C387 O379 1.252 . S
O388 In377 2.294 . S
O388 C381 1.240 . S
O389 In377 2.326 . S
O389 C381 1.252 . S
In390 O391 2.294 . S
In390 O392 2.326 . S
In390 O396 2.266 . S
In390 O397 2.326 . S
In390 O398 2.266 . S
In390 O399 2.326 . S
In390 O401 2.294 . S
In390 O402 2.326 . S
O391 In390 2.294 . S
O391 C400 1.240 . S
O392 In390 2.326 . S
O392 C400 1.252 . S
C393 O396 1.252 . S
C393 O397 1.260 . S
C394 O401 1.240 . S
C394 O402 1.252 . S
C395 O398 1.252 . S
C395 O399 1.260 . S
O396 In390 2.266 . S
O396 C393 1.252 . S
O397 In390 2.326 . S
O397 C393 1.260 . S
O398 In390 2.266 . S
O398 C395 1.252 . S
O399 In390 2.326 . S
O399 C395 1.260 . S
C400 O391 1.240 . S
C400 O392 1.252 . S
O401 In390 2.294 . S
O401 C394 1.240 . S
O402 In390 2.326 . S
O402 C394 1.252 . S
In403 O404 2.294 . S
In403 O405 2.326 . S
In403 O409 2.266 . S
In403 O410 2.326 . S
In403 O411 2.266 . S
In403 O412 2.326 . S
In403 O414 2.294 . S
In403 O415 2.326 . S
O404 In403 2.294 . S
O404 C413 1.240 . S
O405 In403 2.326 . S
O405 C413 1.252 . S
C406 O409 1.252 . S
C406 O410 1.260 . S
C407 O414 1.240 . S
C407 O415 1.252 . S
C408 O411 1.252 . S
C408 O412 1.260 . S
O409 In403 2.266 . S
O409 C406 1.252 . S
O410 In403 2.326 . S
O410 C406 1.260 . S
O411 In403 2.266 . S
O411 C408 1.252 . S
O412 In403 2.326 . S
O412 C408 1.260 . S
C413 O404 1.240 . S
C413 O405 1.252 . S
O414 In403 2.294 . S
O414 C407 1.240 . S
O415 In403 2.326 . S
O415 C407 1.252 . S
In416 O417 2.294 . S
In416 O418 2.326 . S
In416 O422 2.266 . S
In416 O423 2.326 . S
In416 O424 2.266 . S
In416 O425 2.326 . S
In416 O427 2.294 . S
In416 O428 2.326 . S
O417 In416 2.294 . S
O417 C426 1.240 . S
O418 In416 2.326 . S
O418 C426 1.252 . S
C419 O422 1.252 . S
C419 O423 1.260 . S
C420 O427 1.240 . S
C420 O428 1.252 . S
C421 O424 1.252 . S
C421 O425 1.260 . S
O422 In416 2.266 . S
O422 C419 1.252 . S
O423 In416 2.326 . S
O423 C419 1.260 . S
O424 In416 2.266 . S
O424 C421 1.252 . S
O425 In416 2.326 . S
O425 C421 1.260 . S
C426 O417 1.240 . S
C426 O418 1.252 . S
O427 In416 2.294 . S
O427 C420 1.240 . S
O428 In416 2.326 . S
O428 C420 1.252 . S
In429 O430 2.294 . S
In429 O431 2.326 . S
In429 O435 2.266 . S
In429 O436 2.326 . S
In429 O437 2.266 . S
In429 O438 2.326 . S
In429 O440 2.294 . S
In429 O441 2.326 . S
O430 In429 2.294 . S
O430 C439 1.240 . S
O431 In429 2.326 . S
O431 C439 1.252 . S
C432 O435 1.252 . S
C432 O436 1.260 . S
C433 O440 1.240 . S
C433 O441 1.252 . S
C434 O437 1.252 . S
C434 O438 1.260 . S
O435 In429 2.266 . S
O435 C432 1.252 . S
O436 In429 2.326 . S
O436 C432 1.260 . S
O437 In429 2.266 . S
O437 C434 1.252 . S
O438 In429 2.326 . S
O438 C434 1.260 . S
C439 O430 1.240 . S
C439 O431 1.252 . S
O440 In429 2.294 . S
O440 C433 1.240 . S
O441 In429 2.326 . S
O441 C433 1.252 . S
In442 O443 2.294 . S
In442 O444 2.326 . S
In442 O448 2.266 . S
In442 O449 2.326 . S
In442 O450 2.266 . S
In442 O451 2.326 . S
In442 O453 2.294 . S
In442 O454 2.326 . S
O443 In442 2.294 . S
O443 C452 1.240 . S
O444 In442 2.326 . S
O444 C452 1.252 . S
C445 O448 1.252 . S
C445 O449 1.260 . S
C446 O453 1.240 . S
C446 O454 1.252 . S
C447 O450 1.252 . S
C447 O451 1.260 . S
O448 In442 2.266 . S
O448 C445 1.252 . S
O449 In442 2.326 . S
O449 C445 1.260 . S
O450 In442 2.266 . S
O450 C447 1.252 . S
O451 In442 2.326 . S
O451 C447 1.260 . S
C452 O443 1.240 . S
C452 O444 1.252 . S
O453 In442 2.294 . S
O453 C446 1.240 . S
O454 In442 2.326 . S
O454 C446 1.252 . S
In455 O456 2.294 . S
In455 O457 2.326 . S
In455 O461 2.266 . S
In455 O462 2.326 . S
In455 O463 2.266 . S
In455 O464 2.326 . S
In455 O466 2.294 . S
In455 O467 2.326 . S
O456 In455 2.294 . S
O456 C465 1.240 . S
O457 In455 2.326 . S
O457 C465 1.252 . S
C458 O461 1.252 . S
C458 O462 1.260 . S
C459 O466 1.240 . S
C459 O467 1.252 . S
C460 O463 1.252 . S
C460 O464 1.260 . S
O461 In455 2.266 . S
O461 C458 1.252 . S
O462 In455 2.326 . S
O462 C458 1.260 . S
O463 In455 2.266 . S
O463 C460 1.252 . S
O464 In455 2.326 . S
O464 C460 1.260 . S
C465 O456 1.240 . S
C465 O457 1.252 . S
O466 In455 2.294 . S
O466 C459 1.240 . S
O467 In455 2.326 . S
O467 C459 1.252 . S
C468 C469 1.369 . S
C468 C470 1.419 . S
C468 H472 0.930 . S
C469 C468 1.369 . S
C469 C478 1.429 . S
C470 C468 1.419 . S
C470 C471 1.363 . S
C470 H473 0.929 . S
C471 C470 1.363 . S
C471 C477 1.428 . S
H472 C468 0.930 . S
H473 C470 0.929 . S
S474 N475 1.613 . S
S474 N476 1.610 . S
N475 S474 1.613 . S
N475 C478 1.350 . S
N476 S474 1.610 . S
N476 C477 1.351 . S
C477 C471 1.428 . S
C477 N476 1.351 . S
C477 C478 1.434 . S
C478 C469 1.429 . S
C478 N475 1.350 . S
C478 C477 1.434 . S
C479 C480 1.369 . S
C479 C481 1.419 . S
C479 H483 0.930 . S
C480 C479 1.369 . S
C480 C489 1.429 . S
C481 C479 1.419 . S
C481 C482 1.363 . S
C481 H484 0.929 . S
C482 C481 1.363 . S
C482 C488 1.428 . S
H483 C479 0.930 . S
H484 C481 0.929 . S
S485 N486 1.613 . S
S485 N487 1.610 . S
N486 S485 1.613 . S
N486 C489 1.350 1_556 S
N487 S485 1.610 . S
N487 C488 1.351 1_556 S
C488 C482 1.428 . S
C488 N487 1.351 1_554 S
C488 C489 1.434 . S
C489 C480 1.429 . S
C489 N486 1.350 1_554 S
C489 C488 1.434 . S
C490 C491 1.369 . S
C490 C492 1.419 . S
C490 H494 0.930 . S
C491 C490 1.369 . S
C491 C500 1.429 . S
C492 C490 1.419 . S
C492 C493 1.363 . S
C492 H495 0.929 . S
C493 C492 1.363 . S
C493 C499 1.428 . S
H494 C490 0.930 . S
H495 C492 0.929 . S
S496 N497 1.613 1_556 S
S496 N498 1.610 1_556 S
N497 S496 1.613 1_554 S
N497 C500 1.350 . S
N498 S496 1.610 1_554 S
N498 C499 1.351 . S
C499 C493 1.428 . S
C499 N498 1.351 . S
C499 C500 1.434 . S
C500 C491 1.429 . S
C500 N497 1.350 . S
C500 C499 1.434 . S
C501 C502 1.369 . S
C501 C503 1.419 . S
C501 H505 0.930 . S
C502 C501 1.369 . S
C502 C511 1.429 . S
C503 C501 1.419 . S
C503 C504 1.363 . S
C503 H506 0.929 . S
C504 C503 1.363 . S
C504 C510 1.428 . S
H505 C501 0.930 . S
H506 C503 0.929 . S
S507 N508 1.613 1_554 S
S507 N509 1.610 1_554 S
N508 S507 1.613 1_556 S
N508 C511 1.350 . S
N509 S507 1.610 1_556 S
N509 C510 1.351 . S
C510 C504 1.428 . S
C510 N509 1.351 . S
C510 C511 1.434 . S
C511 C502 1.429 . S
C511 N508 1.350 . S
C511 C510 1.434 . S
C512 C513 1.369 . S
C512 C514 1.419 . S
C512 H516 0.930 . S
C513 C512 1.369 . S
C513 C522 1.429 . S
C514 C512 1.419 . S
C514 C515 1.363 . S
C514 H517 0.929 . S
C515 C514 1.363 . S
C515 C521 1.428 . S
H516 C512 0.930 . S
H517 C514 0.929 . S
S518 N519 1.613 . S
S518 N520 1.610 . S
N519 S518 1.613 . S
N519 C522 1.350 . S
N520 S518 1.610 . S
N520 C521 1.351 . S
C521 C515 1.428 . S
C521 N520 1.351 . S
C521 C522 1.434 . S
C522 C513 1.429 . S
C522 N519 1.350 . S
C522 C521 1.434 . S
C523 C524 1.369 . S
C523 C525 1.419 . S
C523 H527 0.930 . S
C524 C523 1.369 . S
C524 C533 1.429 . S
C525 C523 1.419 . S
C525 C526 1.363 . S
C525 H528 0.929 . S
C526 C525 1.363 . S
C526 C532 1.428 . S
H527 C523 0.930 . S
H528 C525 0.929 . S
S529 N530 1.613 1_554 S
S529 N531 1.610 1_554 S
N530 S529 1.613 1_556 S
N530 C533 1.350 . S
N531 S529 1.610 1_556 S
N531 C532 1.351 . S
C532 C526 1.428 . S
C532 N531 1.351 . S
C532 C533 1.434 . S
C533 C524 1.429 . S
C533 N530 1.350 . S
C533 C532 1.434 . S
C534 C535 1.369 . S
C534 C536 1.419 . S
C534 H538 0.930 . S
C535 C534 1.369 . S
C535 C544 1.429 . S
C536 C534 1.419 . S
C536 C537 1.363 . S
C536 H539 0.929 . S
C537 C536 1.363 . S
C537 C543 1.428 . S
H538 C534 0.930 . S
H539 C536 0.929 . S
S540 N541 1.613 . S
S540 N542 1.610 . S
N541 S540 1.613 . S
N541 C544 1.350 . S
N542 S540 1.610 . S
N542 C543 1.351 . S
C543 C537 1.428 . S
C543 N542 1.351 . S
C543 C544 1.434 . S
C544 C535 1.429 . S
C544 N541 1.350 . S
C544 C543 1.434 . S
C545 C546 1.369 . S
C545 C547 1.419 . S
C545 H549 0.930 . S
C546 C545 1.369 . S
C546 C555 1.429 . S
C547 C545 1.419 . S
C547 C548 1.363 . S
C547 H550 0.929 . S
C548 C547 1.363 . S
C548 C554 1.428 . S
H549 C545 0.930 . S
H550 C547 0.929 . S
S551 N552 1.613 . S
S551 N553 1.610 . S
N552 S551 1.613 . S
N552 C555 1.350 . S
N553 S551 1.610 . S
N553 C554 1.351 . S
C554 C548 1.428 . S
C554 N553 1.351 . S
C554 C555 1.434 . S
C555 C546 1.429 . S
C555 N552 1.350 . S
C555 C554 1.434 . S
C556 C557 1.369 . S
C556 C558 1.419 . S
C556 H560 0.930 . S
C557 C556 1.369 . S
C557 C566 1.429 . S
C558 C556 1.419 . S
C558 C559 1.363 . S
C558 H561 0.929 . S
C559 C558 1.363 . S
C559 C565 1.428 . S
H560 C556 0.930 . S
H561 C558 0.929 . S
S562 N563 1.613 . S
S562 N564 1.610 . S
N563 S562 1.613 . S
N563 C566 1.350 . S
N564 S562 1.610 . S
N564 C565 1.351 . S
C565 C559 1.428 . S
C565 N564 1.351 . S
C565 C566 1.434 . S
C566 C557 1.429 . S
C566 N563 1.350 . S
C566 C565 1.434 . S
C567 C568 1.369 . S
C567 C569 1.419 . S
C567 H571 0.930 . S
C568 C567 1.369 . S
C568 C577 1.429 . S
C569 C567 1.419 . S
C569 C570 1.363 . S
C569 H572 0.929 . S
C570 C569 1.363 . S
C570 C576 1.428 . S
H571 C567 0.930 . S
H572 C569 0.929 . S
S573 N574 1.613 . S
S573 N575 1.610 . S
N574 S573 1.613 . S
N574 C577 1.350 . S
N575 S573 1.610 . S
N575 C576 1.351 . S
C576 C570 1.428 . S
C576 N575 1.351 . S
C576 C577 1.434 . S
C577 C568 1.429 . S
C577 N574 1.350 . S
C577 C576 1.434 . S
C578 C579 1.369 . S
C578 C580 1.419 . S
C578 H582 0.930 . S
C579 C578 1.369 . S
C579 C588 1.429 . S
C580 C578 1.419 . S
C580 C581 1.363 . S
C580 H583 0.929 . S
C581 C580 1.363 . S
C581 C587 1.428 . S
H582 C578 0.930 . S
H583 C580 0.929 . S
S584 N585 1.613 . S
S584 N586 1.610 . S
N585 S584 1.613 . S
N585 C588 1.350 . S
N586 S584 1.610 . S
N586 C587 1.351 . S
C587 C581 1.428 . S
C587 N586 1.351 . S
C587 C588 1.434 . S
C588 C579 1.429 . S
C588 N585 1.350 . S
C588 C587 1.434 . S
C589 C590 1.369 . S
C589 C591 1.419 . S
C589 H593 0.930 . S
C590 C589 1.369 . S
C590 C599 1.429 . S
C591 C589 1.419 . S
C591 C592 1.363 . S
C591 H594 0.929 . S
C592 C591 1.363 . S
C592 C598 1.428 . S
H593 C589 0.930 . S
H594 C591 0.929 . S
S595 N596 1.613 . S
S595 N597 1.610 . S
N596 S595 1.613 . S
N596 C599 1.350 . S
N597 S595 1.610 . S
N597 C598 1.351 . S
C598 C592 1.428 . S
C598 N597 1.351 . S
C598 C599 1.434 . S
C599 C590 1.429 . S
C599 N596 1.350 . S
C599 C598 1.434 . S
C600 C601 1.369 . S
C600 C602 1.419 . S
C600 H604 0.930 . S
C601 C600 1.369 . S
C601 C610 1.429 . S
C602 C600 1.419 . S
C602 C603 1.363 . S
C602 H605 0.929 . S
C603 C602 1.363 . S
C603 C609 1.428 . S
H604 C600 0.930 . S
H605 C602 0.929 . S
S606 N607 1.613 . S
S606 N608 1.610 . S
N607 S606 1.613 . S
N607 C610 1.350 . S
N608 S606 1.610 . S
N608 C609 1.351 . S
C609 C603 1.428 . S
C609 N608 1.351 . S
C609 C610 1.434 . S
C610 C601 1.429 . S
C610 N607 1.350 . S
C610 C609 1.434 . S
C611 C612 1.369 . S
C611 C613 1.419 . S
C611 H615 0.930 . S
C612 C611 1.369 . S
C612 C621 1.429 . S
C613 C611 1.419 . S
C613 C614 1.363 . S
C613 H616 0.929 . S
C614 C613 1.363 . S
C614 C620 1.428 . S
H615 C611 0.930 . S
H616 C613 0.929 . S
S617 N618 1.613 1_655 S
S617 N619 1.610 1_655 S
N618 S617 1.613 1_455 S
N618 C621 1.350 . S
N619 S617 1.610 1_455 S
N619 C620 1.351 . S
C620 C614 1.428 . S
C620 N619 1.351 . S
C620 C621 1.434 . S
C621 C612 1.429 . S
C621 N618 1.350 . S
C621 C620 1.434 . S
C622 C623 1.369 . S
C622 C624 1.419 . S
C622 H626 0.930 . S
C623 C622 1.369 . S
C623 C632 1.429 . S
C624 C622 1.419 . S
C624 C625 1.363 . S
C624 H627 0.929 . S
C625 C624 1.363 . S
C625 C631 1.428 . S
H626 C622 0.930 . S
H627 C624 0.929 . S
S628 N629 1.613 . S
S628 N630 1.610 . S
N629 S628 1.613 . S
N629 C632 1.350 . S
N630 S628 1.610 . S
N630 C631 1.351 . S
C631 C625 1.428 . S
C631 N630 1.351 . S
C631 C632 1.434 . S
C632 C623 1.429 . S
C632 N629 1.350 . S
C632 C631 1.434 . S
C633 C634 1.369 . S
C633 C635 1.419 . S
C633 H637 0.930 . S
C634 C633 1.369 . S
C634 C643 1.429 . S
C635 C633 1.419 . S
C635 C636 1.363 . S
C635 H638 0.929 . S
C636 C635 1.363 . S
C636 C642 1.428 . S
H637 C633 0.930 . S
H638 C635 0.929 . S
S639 N640 1.613 . S
S639 N641 1.610 . S
N640 S639 1.613 . S
N640 C643 1.350 . S
N641 S639 1.610 . S
N641 C642 1.351 . S
C642 C636 1.428 . S
C642 N641 1.351 . S
C642 C643 1.434 . S
C643 C634 1.429 . S
C643 N640 1.350 . S
C643 C642 1.434 . S
C644 C645 1.369 . S
C644 C646 1.419 . S
C644 H648 0.930 . S
C645 C644 1.369 . S
C645 C654 1.429 . S
C646 C644 1.419 . S
C646 C647 1.363 . S
C646 H649 0.929 . S
C647 C646 1.363 . S
C647 C653 1.428 . S
H648 C644 0.930 . S
H649 C646 0.929 . S
S650 N651 1.613 . S
S650 N652 1.610 . S
N651 S650 1.613 . S
N651 C654 1.350 . S
N652 S650 1.610 . S
N652 C653 1.351 . S
C653 C647 1.428 . S
C653 N652 1.351 . S
C653 C654 1.434 . S
C654 C645 1.429 . S
C654 N651 1.350 . S
C654 C653 1.434 . S
C655 C656 1.369 . S
C655 C657 1.419 . S
C655 H659 0.930 . S
C656 C655 1.369 . S
C656 C665 1.429 . S
C657 C655 1.419 . S
C657 C658 1.363 . S
C657 H660 0.929 . S
C658 C657 1.363 . S
C658 C664 1.428 . S
H659 C655 0.930 . S
H660 C657 0.929 . S
S661 N662 1.613 . S
S661 N663 1.610 . S
N662 S661 1.613 . S
N662 C665 1.350 . S
N663 S661 1.610 . S
N663 C664 1.351 . S
C664 C658 1.428 . S
C664 N663 1.351 . S
C664 C665 1.434 . S
C665 C656 1.429 . S
C665 N662 1.350 . S
C665 C664 1.434 . S
C666 C667 1.369 1_556 S
C666 C668 1.419 1_455 S
C666 H670 0.930 . S
C667 C666 1.369 1_554 S
C667 C676 1.429 . S
C668 C666 1.419 1_655 S
C668 C669 1.363 . S
C668 H671 0.929 . S
C669 C668 1.363 . S
C669 C675 1.428 1_556 S
H670 C666 0.930 . S
H671 C668 0.929 . S
S672 N673 1.613 1_655 S
S672 N674 1.610 . S
N673 S672 1.613 1_455 S
N673 C676 1.350 . S
N674 S672 1.610 . S
N674 C675 1.351 . S
C675 C669 1.428 1_554 S
C675 N674 1.351 . S
C675 C676 1.434 1_655 S
C676 C667 1.429 . S
C676 N673 1.350 . S
C676 C675 1.434 1_455 S
C677 C678 1.369 1_554 S
C677 C679 1.419 . S
C677 H681 0.930 . S
C678 C677 1.369 1_556 S
C678 C687 1.429 . S
C679 C677 1.419 . S
C679 C680 1.363 . S
C679 H682 0.929 . S
C680 C679 1.363 . S
C680 C686 1.428 1_554 S
H681 C677 0.930 . S
H682 C679 0.929 . S
S683 N684 1.613 . S
S683 N685 1.610 . S
N684 S683 1.613 . S
N684 C687 1.350 . S
N685 S683 1.610 . S
N685 C686 1.351 . S
C686 C680 1.428 1_556 S
C686 N685 1.351 . S
C686 C687 1.434 . S
C687 C678 1.429 . S
C687 N684 1.350 . S
C687 C686 1.434 . S
C688 C689 1.369 . S
C688 C690 1.419 1_564 S
C688 H692 0.930 . S
C689 C688 1.369 . S
C689 C698 1.429 1_554 S
C690 C688 1.419 1_546 S
C690 C691 1.363 . S
C690 H693 0.929 . S
C691 C690 1.363 . S
C691 C697 1.428 . S
H692 C688 0.930 . S
H693 C690 0.929 . S
S694 N695 1.613 . S
S694 N696 1.610 1_565 S
N695 S694 1.613 . S
N695 C698 1.350 . S
N696 S694 1.610 1_545 S
N696 C697 1.351 . S
C697 C691 1.428 . S
C697 N696 1.351 . S
C697 C698 1.433 1_545 S
C698 C689 1.429 1_556 S
C698 N695 1.350 . S
C698 C697 1.433 1_565 S
C699 C700 1.369 . S
C699 C701 1.419 1_656 S
C699 H703 0.930 . S
C700 C699 1.369 . S
C700 C709 1.429 . S
C701 C699 1.419 1_454 S
C701 C702 1.363 . S
C701 H704 0.929 . S
C702 C701 1.363 . S
C702 C708 1.428 . S
H703 C699 0.930 . S
H704 C701 0.929 . S
S705 N706 1.613 1_455 S
S705 N707 1.610 1_556 S
N706 S705 1.613 1_655 S
N706 C709 1.350 . S
N707 S705 1.610 1_554 S
N707 C708 1.351 . S
C708 C702 1.428 . S
C708 N707 1.351 . S
C708 C709 1.434 1_454 S
C709 C700 1.429 . S
C709 N706 1.350 . S
C709 C708 1.434 1_656 S
C710 C711 1.369 1_554 S
C710 C712 1.419 . S
C710 H714 0.930 . S
C711 C710 1.369 1_556 S
C711 C720 1.429 . S
C712 C710 1.419 . S
C712 C713 1.363 . S
C712 H715 0.929 . S
C713 C712 1.363 . S
C713 C719 1.428 1_554 S
H714 C710 0.930 . S
H715 C712 0.929 . S
S716 N717 1.613 . S
S716 N718 1.610 . S
N717 S716 1.613 . S
N717 C720 1.350 . S
N718 S716 1.610 . S
N718 C719 1.351 . S
C719 C713 1.428 1_556 S
C719 N718 1.351 . S
C719 C720 1.434 . S
C720 C711 1.429 . S
C720 N717 1.350 . S
C720 C719 1.434 . S
C721 C722 1.369 . S
C721 C723 1.419 1_545 S
C721 H725 0.930 . S
C722 C721 1.369 . S
C722 C731 1.429 1_556 S
C723 C721 1.419 1_565 S
C723 C724 1.363 1_556 S
C723 H726 0.929 . S
C724 C723 1.363 1_554 S
C724 C730 1.428 . S
H725 C721 0.930 . S
H726 C723 0.929 . S
S727 N728 1.613 . S
S727 N729 1.616 . S
N728 S727 1.613 . S
N728 C731 1.350 . S
N729 S727 1.616 . S
N729 C730 1.350 1_545 S
C730 C724 1.428 . S
C730 N729 1.350 1_565 S
C730 C731 1.434 1_565 S
C731 C722 1.429 1_554 S
C731 N728 1.350 . S
C731 C730 1.434 1_545 S
C732 C733 1.369 . S
C732 C734 1.419 . S
C732 H736 0.930 . S
C733 C732 1.369 . S
C733 C742 1.429 . S
C734 C732 1.419 . S
C734 C735 1.363 . S
C734 H737 0.929 . S
C735 C734 1.363 . S
C735 C741 1.428 . S
H736 C732 0.930 . S
H737 C734 0.929 . S
S738 N739 1.613 . S
S738 N740 1.610 . S
N739 S738 1.613 . S
N739 C742 1.350 . S
N740 S738 1.610 . S
N740 C741 1.351 . S
C741 C735 1.428 . S
C741 N740 1.351 . S
C741 C742 1.434 . S
C742 C733 1.429 . S
C742 N739 1.350 . S
C742 C741 1.434 . S
C743 C744 1.369 . S
C743 C745 1.419 . S
C743 H747 0.930 . S
C744 C743 1.369 . S
C744 C753 1.429 . S
C745 C743 1.419 . S
C745 C746 1.363 . S
C745 H748 0.929 . S
C746 C745 1.363 . S
C746 C752 1.428 . S
H747 C743 0.930 . S
H748 C745 0.929 . S
S749 N750 1.613 . S
S749 N751 1.610 . S
N750 S749 1.613 . S
N750 C753 1.350 . S
N751 S749 1.610 . S
N751 C752 1.351 . S
C752 C746 1.428 . S
C752 N751 1.351 . S
C752 C753 1.434 . S
C753 C744 1.429 . S
C753 N750 1.350 . S
C753 C752 1.434 . S
C754 C755 1.369 . S
C754 C756 1.419 . S
C754 H758 0.930 . S
C755 C754 1.369 . S
C755 C764 1.429 . S
C756 C754 1.419 . S
C756 C757 1.363 . S
C756 H759 0.929 . S
C757 C756 1.363 . S
C757 C763 1.428 . S
H758 C754 0.930 . S
H759 C756 0.929 . S
S760 N761 1.613 . S
S760 N762 1.610 . S
N761 S760 1.613 . S
N761 C764 1.350 . S
N762 S760 1.610 . S
N762 C763 1.351 . S
C763 C757 1.428 . S
C763 N762 1.351 . S
C763 C764 1.434 . S
C764 C755 1.429 . S
C764 N761 1.350 . S
C764 C763 1.434 . S
C765 C766 1.369 . S
C765 C767 1.419 . S
C765 H769 0.930 . S
C766 C765 1.369 . S
C766 C775 1.429 . S
C767 C765 1.419 . S
C767 C768 1.363 . S
C767 H770 0.929 . S
C768 C767 1.363 . S
C768 C774 1.428 . S
H769 C765 0.930 . S
H770 C767 0.929 . S
S771 N772 1.613 . S
S771 N773 1.610 . S
N772 S771 1.613 . S
N772 C775 1.350 . S
N773 S771 1.610 . S
N773 C774 1.351 . S
C774 C768 1.428 . S
C774 N773 1.351 . S
C774 C775 1.434 . S
C775 C766 1.429 . S
C775 N772 1.350 . S
C775 C774 1.434 . S
C776 C777 1.369 . S
C776 C778 1.419 . S
C776 H780 0.930 . S
C777 C776 1.369 . S
C777 C786 1.429 . S
C778 C776 1.419 . S
C778 C779 1.363 . S
C778 H781 0.929 . S
C779 C778 1.363 . S
C779 C785 1.428 . S
H780 C776 0.930 . S
H781 C778 0.929 . S
S782 N783 1.613 . S
S782 N784 1.610 . S
N783 S782 1.613 . S
N783 C786 1.350 . S
N784 S782 1.610 . S
N784 C785 1.351 . S
C785 C779 1.428 . S
C785 N784 1.351 . S
C785 C786 1.434 . S
C786 C777 1.429 . S
C786 N783 1.350 . S
C786 C785 1.434 . S
C787 C788 1.369 . S
C787 C789 1.419 . S
C787 H791 0.930 . S
C788 C787 1.369 . S
C788 C797 1.429 . S
C789 C787 1.419 . S
C789 C790 1.363 . S
C789 H792 0.929 . S
C790 C789 1.363 . S
C790 C796 1.428 . S
H791 C787 0.930 . S
H792 C789 0.929 . S
S793 N794 1.613 . S
S793 N795 1.610 . S
N794 S793 1.613 . S
N794 C797 1.350 . S
N795 S793 1.610 . S
N795 C796 1.351 . S
C796 C790 1.428 . S
C796 N795 1.351 . S
C796 C797 1.434 . S
C797 C788 1.429 . S
C797 N794 1.350 . S
C797 C796 1.434 . S
C798 C799 1.369 . S
C798 C800 1.419 . S
C798 H802 0.930 . S
C799 C798 1.369 . S
C799 C808 1.429 . S
C800 C798 1.419 . S
C800 C801 1.363 . S
C800 H803 0.929 . S
C801 C800 1.363 . S
C801 C807 1.428 . S
H802 C798 0.930 . S
H803 C800 0.929 . S
S804 N805 1.613 . S
S804 N806 1.610 . S
N805 S804 1.613 . S
N805 C808 1.350 . S
N806 S804 1.610 . S
N806 C807 1.351 . S
C807 C801 1.428 . S
C807 N806 1.351 . S
C807 C808 1.434 . S
C808 C799 1.429 . S
C808 N805 1.350 . S
C808 C807 1.434 . S
C809 C810 1.369 . S
C809 C811 1.419 . S
C809 H813 0.930 . S
C810 C809 1.369 . S
C810 C819 1.429 . S
C811 C809 1.419 . S
C811 C812 1.363 . S
C811 H814 0.929 . S
C812 C811 1.363 . S
C812 C818 1.428 . S
H813 C809 0.930 . S
H814 C811 0.929 . S
S815 N816 1.613 . S
S815 N817 1.610 . S
N816 S815 1.613 . S
N816 C819 1.350 . S
N817 S815 1.610 . S
N817 C818 1.351 . S
C818 C812 1.428 . S
C818 N817 1.351 . S
C818 C819 1.434 . S
C819 C810 1.429 . S
C819 N816 1.350 . S
C819 C818 1.434 . S
C820 C821 1.369 . S
C820 C822 1.419 . S
C820 H824 0.930 . S
C821 C820 1.369 . S
C821 C830 1.429 . S
C822 C820 1.419 . S
C822 C823 1.363 . S
C822 H825 0.929 . S
C823 C822 1.363 . S
C823 C829 1.428 . S
H824 C820 0.930 . S
H825 C822 0.929 . S
S826 N827 1.613 . S
S826 N828 1.610 . S
N827 S826 1.613 . S
N827 C830 1.350 . S
N828 S826 1.610 . S
N828 C829 1.351 . S
C829 C823 1.428 . S
C829 N828 1.351 . S
C829 C830 1.434 . S
C830 C821 1.429 . S
C830 N827 1.350 . S
C830 C829 1.434 . S
C831 C832 1.369 . S
C831 C833 1.419 . S
C831 H835 0.930 . S
C832 C831 1.369 . S
C832 C841 1.429 . S
C833 C831 1.419 . S
C833 C834 1.363 . S
C833 H836 0.929 . S
C834 C833 1.363 . S
C834 C840 1.428 . S
H835 C831 0.930 . S
H836 C833 0.929 . S
S837 N838 1.613 . S
S837 N839 1.610 . S
N838 S837 1.613 . S
N838 C841 1.350 . S
N839 S837 1.610 . S
N839 C840 1.351 . S
C840 C834 1.428 . S
C840 N839 1.351 . S
C840 C841 1.434 . S
C841 C832 1.429 . S
C841 N838 1.350 . S
C841 C840 1.434 . S
C842 C843 1.369 . S
C842 C844 1.419 . S
C842 H846 0.930 . S
C843 C842 1.369 . S
C843 C852 1.429 . S
C844 C842 1.419 . S
C844 C845 1.363 . S
C844 H847 0.929 . S
C845 C844 1.363 . S
C845 C851 1.428 . S
H846 C842 0.930 . S
H847 C844 0.929 . S
S848 N849 1.613 . S
S848 N850 1.610 . S
N849 S848 1.613 . S
N849 C852 1.350 . S
N850 S848 1.610 . S
N850 C851 1.351 . S
C851 C845 1.428 . S
C851 N850 1.351 . S
C851 C852 1.434 . S
C852 C843 1.429 . S
C852 N849 1.350 . S
C852 C851 1.434 . S
C853 C854 1.369 . S
C853 C855 1.419 . S
C853 H857 0.930 . S
C854 C853 1.369 . S
C854 C863 1.429 . S
C855 C853 1.419 . S
C855 C856 1.363 . S
C855 H858 0.929 . S
C856 C855 1.363 . S
C856 C862 1.428 . S
H857 C853 0.930 . S
H858 C855 0.929 . S
S859 N860 1.613 . S
S859 N861 1.610 . S
N860 S859 1.613 . S
N860 C863 1.350 . S
N861 S859 1.610 . S
N861 C862 1.351 . S
C862 C856 1.428 . S
C862 N861 1.351 . S
C862 C863 1.434 . S
C863 C854 1.429 . S
C863 N860 1.350 . S
C863 C862 1.434 . S
C864 C865 1.369 . S
C864 C866 1.419 . S
C864 H868 0.930 . S
C865 C864 1.369 . S
C865 C874 1.429 . S
C866 C864 1.419 . S
C866 C867 1.363 . S
C866 H869 0.929 . S
C867 C866 1.363 . S
C867 C873 1.428 . S
H868 C864 0.930 . S
H869 C866 0.929 . S
S870 N871 1.613 . S
S870 N872 1.610 . S
N871 S870 1.613 . S
N871 C874 1.350 . S
N872 S870 1.610 . S
N872 C873 1.351 . S
C873 C867 1.428 . S
C873 N872 1.351 . S
C873 C874 1.434 . S
C874 C865 1.429 . S
C874 N871 1.350 . S
C874 C873 1.434 . S
C875 C876 1.369 . S
C875 C877 1.419 . S
C875 H879 0.930 . S
C876 C875 1.369 . S
C876 C885 1.429 . S
C877 C875 1.419 . S
C877 C878 1.363 . S
C877 H880 0.929 . S
C878 C877 1.363 . S
C878 C884 1.428 . S
H879 C875 0.930 . S
H880 C877 0.929 . S
S881 N882 1.613 . S
S881 N883 1.610 . S
N882 S881 1.613 . S
N882 C885 1.350 . S
N883 S881 1.610 . S
N883 C884 1.351 . S
C884 C878 1.428 . S
C884 N883 1.351 . S
C884 C885 1.434 . S
C885 C876 1.429 . S
C885 N882 1.350 . S
C885 C884 1.434 . S
C886 C887 1.369 . S
C886 C888 1.419 . S
C886 H890 0.930 . S
C887 C886 1.369 . S
C887 C896 1.429 . S
C888 C886 1.419 . S
C888 C889 1.363 . S
C888 H891 0.929 . S
C889 C888 1.363 . S
C889 C895 1.428 . S
H890 C886 0.930 . S
H891 C888 0.929 . S
S892 N893 1.613 . S
S892 N894 1.610 . S
N893 S892 1.613 . S
N893 C896 1.350 . S
N894 S892 1.610 . S
N894 C895 1.351 . S
C895 C889 1.428 . S
C895 N894 1.351 . S
C895 C896 1.434 . S
C896 C887 1.429 . S
C896 N893 1.350 . S
C896 C895 1.434 . S
C897 C898 1.369 . S
C897 C899 1.419 . S
C897 H901 0.930 . S
C898 C897 1.369 . S
C898 C907 1.429 . S
C899 C897 1.419 . S
C899 C900 1.363 . S
C899 H902 0.929 . S
C900 C899 1.363 . S
C900 C906 1.428 . S
H901 C897 0.930 . S
H902 C899 0.929 . S
S903 N904 1.613 . S
S903 N905 1.610 . S
N904 S903 1.613 . S
N904 C907 1.350 . S
N905 S903 1.610 . S
N905 C906 1.351 . S
C906 C900 1.428 . S
C906 N905 1.351 . S
C906 C907 1.434 . S
C907 C898 1.429 . S
C907 N904 1.350 . S
C907 C906 1.434 . S
C908 C909 1.369 . S
C908 C910 1.419 . S
C908 H912 0.930 . S
C909 C908 1.369 . S
C909 C918 1.429 . S
C910 C908 1.419 . S
C910 C911 1.363 . S
C910 H913 0.929 . S
C911 C910 1.363 . S
C911 C917 1.428 . S
H912 C908 0.930 . S
H913 C910 0.929 . S
S914 N915 1.613 . S
S914 N916 1.610 . S
N915 S914 1.613 . S
N915 C918 1.350 . S
N916 S914 1.610 . S
N916 C917 1.351 . S
C917 C911 1.428 . S
C917 N916 1.351 . S
C917 C918 1.434 . S
C918 C909 1.429 . S
C918 N915 1.350 . S
C918 C917 1.434 . S
C919 C920 1.369 . S
C919 C921 1.419 . S
C919 H923 0.930 . S
C920 C919 1.369 . S
C920 C929 1.429 . S
C921 C919 1.419 . S
C921 C922 1.363 . S
C921 H924 0.929 . S
C922 C921 1.363 . S
C922 C928 1.428 . S
H923 C919 0.930 . S
H924 C921 0.929 . S
S925 N926 1.613 . S
S925 N927 1.610 . S
N926 S925 1.613 . S
N926 C929 1.350 . S
N927 S925 1.610 . S
N927 C928 1.351 . S
C928 C922 1.428 . S
C928 N927 1.351 . S
C928 C929 1.434 . S
C929 C920 1.429 . S
C929 N926 1.350 . S
C929 C928 1.434 . S
C930 C931 1.369 . S
C930 C932 1.419 . S
C930 H934 0.930 . S
C931 C930 1.369 . S
C931 C940 1.429 . S
C932 C930 1.419 . S
C932 C933 1.363 . S
C932 H935 0.929 . S
C933 C932 1.363 . S
C933 C939 1.428 . S
H934 C930 0.930 . S
H935 C932 0.929 . S
S936 N937 1.613 . S
S936 N938 1.610 . S
N937 S936 1.613 . S
N937 C940 1.350 . S
N938 S936 1.610 . S
N938 C939 1.351 . S
C939 C933 1.428 . S
C939 N938 1.351 . S
C939 C940 1.434 . S
C940 C931 1.429 . S
C940 N937 1.350 . S
C940 C939 1.434 . S
C941 C942 1.369 . S
C941 C943 1.419 . S
C941 H945 0.930 . S
C942 C941 1.369 . S
C942 C951 1.429 . S
C943 C941 1.419 . S
C943 C944 1.363 . S
C943 H946 0.929 . S
C944 C943 1.363 . S
C944 C950 1.428 . S
H945 C941 0.930 . S
H946 C943 0.929 . S
S947 N948 1.613 . S
S947 N949 1.610 . S
N948 S947 1.613 . S
N948 C951 1.350 . S
N949 S947 1.610 . S
N949 C950 1.351 . S
C950 C944 1.428 . S
C950 N949 1.351 . S
C950 C951 1.434 . S
C951 C942 1.429 . S
C951 N948 1.350 . S
C951 C950 1.434 . S
C952 C953 1.369 . S
C952 C954 1.419 . S
C952 H956 0.930 . S
C953 C952 1.369 . S
C953 C962 1.429 . S
C954 C952 1.419 . S
C954 C955 1.363 . S
C954 H957 0.929 . S
C955 C954 1.363 . S
C955 C961 1.428 . S
H956 C952 0.930 . S
H957 C954 0.929 . S
S958 N959 1.613 . S
S958 N960 1.610 . S
N959 S958 1.613 . S
N959 C962 1.350 . S
N960 S958 1.610 . S
N960 C961 1.351 . S
C961 C955 1.428 . S
C961 N960 1.351 . S
C961 C962 1.434 . S
C962 C953 1.429 . S
C962 N959 1.350 . S
C962 C961 1.434 . S
C963 C964 1.369 . S
C963 C965 1.419 . S
C963 H967 0.930 . S
C964 C963 1.369 . S
C964 C973 1.429 . S
C965 C963 1.419 . S
C965 C966 1.363 . S
C965 H968 0.929 . S
C966 C965 1.363 . S
C966 C972 1.428 . S
H967 C963 0.930 . S
H968 C965 0.929 . S
S969 N970 1.613 . S
S969 N971 1.610 . S
N970 S969 1.613 . S
N970 C973 1.350 . S
N971 S969 1.610 . S
N971 C972 1.351 . S
C972 C966 1.428 . S
C972 N971 1.351 . S
C972 C973 1.434 . S
C973 C964 1.429 . S
C973 N970 1.350 . S
C973 C972 1.434 . S
C974 C975 1.369 . S
C974 C976 1.419 . S
C974 H978 0.930 . S
C975 C974 1.369 . S
C975 C984 1.429 . S
C976 C974 1.419 . S
C976 C977 1.363 . S
C976 H979 0.929 . S
C977 C976 1.363 . S
C977 C983 1.428 . S
H978 C974 0.930 . S
H979 C976 0.929 . S
S980 N981 1.613 . S
S980 N982 1.610 . S
N981 S980 1.613 . S
N981 C984 1.350 . S
N982 S980 1.610 . S
N982 C983 1.351 . S
C983 C977 1.428 . S
C983 N982 1.351 . S
C983 C984 1.434 . S
C984 C975 1.429 . S
C984 N981 1.350 . S
C984 C983 1.434 . S
C985 C986 1.369 . S
C985 C987 1.419 . S
C985 H989 0.930 . S
C986 C985 1.369 . S
C986 C995 1.429 . S
C987 C985 1.419 . S
C987 C988 1.363 . S
C987 H990 0.929 . S
C988 C987 1.363 . S
C988 C994 1.428 . S
H989 C985 0.930 . S
H990 C987 0.929 . S
S991 N992 1.613 . S
S991 N993 1.610 . S
N992 S991 1.613 . S
N992 C995 1.350 . S
N993 S991 1.610 . S
N993 C994 1.351 . S
C994 C988 1.428 . S
C994 N993 1.351 . S
C994 C995 1.434 . S
C995 C986 1.429 . S
C995 N992 1.350 . S
C995 C994 1.434 . S
C996 C997 1.369 . S
C996 C998 1.419 1_455 S
C996 H1000 0.930 . S
C997 C996 1.369 . S
C997 C1006 1.429 . S
C998 C996 1.419 1_655 S
C998 C999 1.363 . S
C998 H1001 0.929 . S
C999 C998 1.363 . S
C999 C1005 1.428 . S
H1000 C996 0.930 . S
H1001 C998 0.929 . S
S1002 N1003 1.613 . S
S1002 N1004 1.610 1_455 S
N1003 S1002 1.613 . S
N1003 C1006 1.350 . S
N1004 S1002 1.610 1_655 S
N1004 C1005 1.351 . S
C1005 C999 1.428 . S
C1005 N1004 1.351 . S
C1005 C1006 1.434 1_655 S
C1006 C997 1.429 . S
C1006 N1003 1.350 . S
C1006 C1005 1.434 1_455 S
C1007 C1008 1.369 . S
C1007 C1009 1.419 . S
C1007 H1011 0.930 . S
C1008 C1007 1.369 . S
C1008 C1017 1.429 . S
C1009 C1007 1.419 . S
C1009 C1010 1.363 . S
C1009 H1012 0.929 . S
C1010 C1009 1.363 . S
C1010 C1016 1.428 . S
H1011 C1007 0.930 . S
H1012 C1009 0.929 . S
S1013 N1014 1.613 . S
S1013 N1015 1.610 . S
N1014 S1013 1.613 . S
N1014 C1017 1.350 . S
N1015 S1013 1.610 . S
N1015 C1016 1.351 . S
C1016 C1010 1.428 . S
C1016 N1015 1.351 . S
C1016 C1017 1.434 . S
C1017 C1008 1.429 . S
C1017 N1014 1.350 . S
C1017 C1016 1.434 . S
C1018 C1019 1.369 . S
C1018 C1020 1.419 . S
C1018 H1022 0.930 . S
C1019 C1018 1.369 . S
C1019 C1028 1.429 1_565 S
C1020 C1018 1.419 . S
C1020 C1021 1.363 1_565 S
C1020 H1023 0.929 . S
C1021 C1020 1.363 1_545 S
C1021 C1027 1.428 . S
H1022 C1018 0.930 . S
H1023 C1020 0.929 . S
S1024 N1025 1.613 . S
S1024 N1026 1.610 . S
N1025 S1024 1.613 . S
N1025 C1028 1.350 . S
N1026 S1024 1.610 . S
N1026 C1027 1.351 . S
C1027 C1021 1.428 . S
C1027 N1026 1.351 . S
C1027 C1028 1.434 . S
C1028 C1019 1.429 1_545 S
C1028 N1025 1.350 . S
C1028 C1027 1.434 . S
C1029 C1030 1.369 . S
C1029 C1031 1.419 . S
C1029 H1033 0.930 . S
C1030 C1029 1.369 . S
C1030 C1039 1.429 1_565 S
C1031 C1029 1.419 . S
C1031 C1032 1.363 1_565 S
C1031 H1034 0.929 . S
C1032 C1031 1.363 1_545 S
C1032 C1038 1.428 . S
H1033 C1029 0.930 . S
H1034 C1031 0.929 . S
S1035 N1036 1.613 . S
S1035 N1037 1.610 . S
N1036 S1035 1.613 . S
N1036 C1039 1.350 . S
N1037 S1035 1.610 . S
N1037 C1038 1.351 . S
C1038 C1032 1.428 . S
C1038 N1037 1.351 . S
C1038 C1039 1.434 . S
C1039 C1030 1.429 1_545 S
C1039 N1036 1.350 . S
C1039 C1038 1.434 . S
C1040 C1041 1.369 . S
C1040 C1042 1.419 1_655 S
C1040 H1044 0.930 . S
C1041 C1040 1.369 . S
C1041 C1050 1.429 . S
C1042 C1040 1.419 1_455 S
C1042 C1043 1.363 . S
C1042 H1045 0.929 . S
C1043 C1042 1.363 . S
C1043 C1049 1.422 . S
H1044 C1040 0.930 . S
H1045 C1042 0.929 . S
S1046 N1047 1.613 . S
S1046 N1048 1.610 . S
N1047 S1046 1.613 . S
N1047 C1050 1.350 . S
N1048 S1046 1.610 . S
N1048 C1049 1.376 1_655 S
C1049 C1043 1.422 . S
C1049 N1048 1.376 1_455 S
C1049 C1050 1.423 1_455 S
C1050 C1041 1.429 . S
C1050 N1047 1.350 . S
C1050 C1049 1.423 1_655 S
C1051 C1052 1.369 . S
C1051 C1053 1.419 . S
C1051 H1055 0.930 . S
C1052 C1051 1.369 . S
C1052 C1061 1.429 . S
C1053 C1051 1.419 . S
C1053 C1054 1.363 . S
C1053 H1056 0.929 . S
C1054 C1053 1.363 . S
C1054 C1060 1.428 . S
H1055 C1051 0.930 . S
H1056 C1053 0.929 . S
S1057 N1058 1.613 . S
S1057 N1059 1.610 . S
N1058 S1057 1.613 . S
N1058 C1061 1.350 . S
N1059 S1057 1.610 . S
N1059 C1060 1.351 . S
C1060 C1054 1.428 . S
C1060 N1059 1.351 . S
C1060 C1061 1.434 . S
C1061 C1052 1.429 . S
C1061 N1058 1.350 . S
C1061 C1060 1.434 . S
C1062 C1063 1.369 . S
C1062 C1064 1.419 . S
C1062 H1066 0.930 . S
C1063 C1062 1.369 . S
C1063 C1072 1.429 . S
C1064 C1062 1.419 . S
C1064 C1065 1.363 . S
C1064 H1067 0.929 . S
C1065 C1064 1.363 . S
C1065 C1071 1.428 . S
H1066 C1062 0.930 . S
H1067 C1064 0.929 . S
S1068 N1069 1.613 . S
S1068 N1070 1.610 . S
N1069 S1068 1.613 . S
N1069 C1072 1.350 . S
N1070 S1068 1.610 . S
N1070 C1071 1.351 . S
C1071 C1065 1.428 . S
C1071 N1070 1.351 . S
C1071 C1072 1.434 . S
C1072 C1063 1.429 . S
C1072 N1069 1.350 . S
C1072 C1071 1.434 . S
C1073 C1074 1.369 . S
C1073 C1075 1.419 . S
C1073 H1077 0.930 . S
C1074 C1073 1.369 . S
C1074 C1083 1.429 . S
C1075 C1073 1.419 . S
C1075 C1076 1.363 . S
C1075 H1078 0.929 . S
C1076 C1075 1.363 . S
C1076 C1082 1.428 . S
H1077 C1073 0.930 . S
H1078 C1075 0.929 . S
S1079 N1080 1.613 . S
S1079 N1081 1.610 . S
N1080 S1079 1.613 . S
N1080 C1083 1.350 . S
N1081 S1079 1.610 . S
N1081 C1082 1.351 . S
C1082 C1076 1.428 . S
C1082 N1081 1.351 . S
C1082 C1083 1.434 . S
C1083 C1074 1.429 . S
C1083 N1080 1.350 . S
C1083 C1082 1.434 . S
C1084 C1085 1.369 . S
C1084 C1086 1.419 . S
C1084 H1088 0.930 . S
C1085 C1084 1.369 . S
C1085 C1094 1.429 . S
C1086 C1084 1.419 . S
C1086 C1087 1.363 . S
C1086 H1089 0.929 . S
C1087 C1086 1.363 . S
C1087 C1093 1.428 . S
H1088 C1084 0.930 . S
H1089 C1086 0.929 . S
S1090 N1091 1.613 . S
S1090 N1092 1.610 . S
N1091 S1090 1.613 . S
N1091 C1094 1.350 . S
N1092 S1090 1.610 . S
N1092 C1093 1.351 . S
C1093 C1087 1.428 . S
C1093 N1092 1.351 . S
C1093 C1094 1.434 . S
C1094 C1085 1.429 . S
C1094 N1091 1.350 . S
C1094 C1093 1.434 . S
C1095 C1096 1.369 . S
C1095 C1097 1.419 . S
C1095 H1099 0.930 . S
C1096 C1095 1.369 . S
C1096 C1105 1.429 . S
C1097 C1095 1.419 . S
C1097 C1098 1.363 . S
C1097 H1100 0.929 . S
C1098 C1097 1.363 . S
C1098 C1104 1.428 . S
H1099 C1095 0.930 . S
H1100 C1097 0.929 . S
S1101 N1102 1.613 . S
S1101 N1103 1.610 . S
N1102 S1101 1.613 . S
N1102 C1105 1.350 . S
N1103 S1101 1.610 . S
N1103 C1104 1.351 . S
C1104 C1098 1.428 . S
C1104 N1103 1.351 . S
C1104 C1105 1.434 . S
C1105 C1096 1.429 . S
C1105 N1102 1.350 . S
C1105 C1104 1.434 . S
C1106 C1107 1.369 . S
C1106 C1108 1.419 . S
C1106 H1110 0.930 . S
C1107 C1106 1.369 . S
C1107 C1116 1.429 . S
C1108 C1106 1.419 . S
C1108 C1109 1.363 . S
C1108 H1111 0.929 . S
C1109 C1108 1.363 . S
C1109 C1115 1.428 . S
H1110 C1106 0.930 . S
H1111 C1108 0.929 . S
S1112 N1113 1.613 . S
S1112 N1114 1.610 . S
N1113 S1112 1.613 . S
N1113 C1116 1.350 . S
N1114 S1112 1.610 . S
N1114 C1115 1.351 . S
C1115 C1109 1.428 . S
C1115 N1114 1.351 . S
C1115 C1116 1.434 . S
C1116 C1107 1.429 . S
C1116 N1113 1.350 . S
C1116 C1115 1.434 . S
C1117 C1118 1.369 . S
C1117 C1119 1.419 . S
C1117 H1121 0.930 . S
C1118 C1117 1.369 . S
C1118 C1127 1.429 . S
C1119 C1117 1.419 . S
C1119 C1120 1.363 . S
C1119 H1122 0.929 . S
C1120 C1119 1.363 . S
C1120 C1126 1.428 . S
H1121 C1117 0.930 . S
H1122 C1119 0.929 . S
S1123 N1124 1.613 . S
S1123 N1125 1.610 . S
N1124 S1123 1.613 . S
N1124 C1127 1.350 . S
N1125 S1123 1.610 . S
N1125 C1126 1.351 . S
C1126 C1120 1.428 . S
C1126 N1125 1.351 . S
C1126 C1127 1.434 . S
C1127 C1118 1.429 . S
C1127 N1124 1.350 . S
C1127 C1126 1.434 . S
C1128 C1129 1.369 . S
C1128 C1130 1.419 . S
C1128 H1132 0.930 . S
C1129 C1128 1.369 . S
C1129 C1138 1.429 . S
C1130 C1128 1.419 . S
C1130 C1131 1.363 . S
C1130 H1133 0.929 . S
C1131 C1130 1.363 . S
C1131 C1137 1.428 . S
H1132 C1128 0.930 . S
H1133 C1130 0.929 . S
S1134 N1135 1.613 . S
S1134 N1136 1.610 . S
N1135 S1134 1.613 . S
N1135 C1138 1.350 . S
N1136 S1134 1.610 . S
N1136 C1137 1.351 . S
C1137 C1131 1.428 . S
C1137 N1136 1.351 . S
C1137 C1138 1.434 . S
C1138 C1129 1.429 . S
C1138 N1135 1.350 . S
C1138 C1137 1.434 . S
C1139 C1140 1.369 . S
C1139 C1141 1.419 . S
C1139 H1143 0.930 . S
C1140 C1139 1.369 . S
C1140 C1149 1.429 . S
C1141 C1139 1.419 . S
C1141 C1142 1.363 . S
C1141 H1144 0.929 . S
C1142 C1141 1.363 . S
C1142 C1148 1.428 . S
H1143 C1139 0.930 . S
H1144 C1141 0.929 . S
S1145 N1146 1.613 . S
S1145 N1147 1.610 . S
N1146 S1145 1.613 . S
N1146 C1149 1.350 . S
N1147 S1145 1.610 . S
N1147 C1148 1.351 . S
C1148 C1142 1.428 . S
C1148 N1147 1.351 . S
C1148 C1149 1.434 . S
C1149 C1140 1.429 . S
C1149 N1146 1.350 . S
C1149 C1148 1.434 . S
C1150 C1151 1.369 . S
C1150 C1152 1.419 . S
C1150 H1154 0.930 . S
C1151 C1150 1.369 . S
C1151 C1160 1.429 . S
C1152 C1150 1.419 . S
C1152 C1153 1.363 . S
C1152 H1155 0.929 . S
C1153 C1152 1.363 . S
C1153 C1159 1.428 . S
H1154 C1150 0.930 . S
H1155 C1152 0.929 . S
S1156 N1157 1.613 . S
S1156 N1158 1.610 . S
N1157 S1156 1.613 . S
N1157 C1160 1.350 . S
N1158 S1156 1.610 . S
N1158 C1159 1.351 . S
C1159 C1153 1.428 . S
C1159 N1158 1.351 . S
C1159 C1160 1.434 . S
C1160 C1151 1.429 . S
C1160 N1157 1.350 . S
C1160 C1159 1.434 . S
C1161 C1162 1.369 . S
C1161 C1163 1.419 . S
C1161 H1165 0.930 . S
C1162 C1161 1.369 . S
C1162 C1171 1.429 . S
C1163 C1161 1.419 . S
C1163 C1164 1.363 . S
C1163 H1166 0.929 . S
C1164 C1163 1.363 . S
C1164 C1170 1.428 . S
H1165 C1161 0.930 . S
H1166 C1163 0.929 . S
S1167 N1168 1.613 . S
S1167 N1169 1.610 . S
N1168 S1167 1.613 . S
N1168 C1171 1.350 . S
N1169 S1167 1.610 . S
N1169 C1170 1.351 . S
C1170 C1164 1.428 . S
C1170 N1169 1.351 . S
C1170 C1171 1.434 . S
C1171 C1162 1.429 . S
C1171 N1168 1.350 . S
C1171 C1170 1.434 . S
C1172 C1173 1.369 . S
C1172 C1174 1.419 . S
C1172 H1176 0.930 . S
C1173 C1172 1.369 . S
C1173 C1182 1.429 . S
C1174 C1172 1.419 . S
C1174 C1175 1.363 . S
C1174 H1177 0.929 . S
C1175 C1174 1.363 . S
C1175 C1181 1.428 . S
H1176 C1172 0.930 . S
H1177 C1174 0.929 . S
S1178 N1179 1.613 . S
S1178 N1180 1.610 . S
N1179 S1178 1.613 . S
N1179 C1182 1.350 . S
N1180 S1178 1.610 . S
N1180 C1181 1.351 . S
C1181 C1175 1.428 . S
C1181 N1180 1.351 . S
C1181 C1182 1.434 . S
C1182 C1173 1.429 . S
C1182 N1179 1.350 . S
C1182 C1181 1.434 . S
C1183 C1184 1.369 . S
C1183 C1185 1.419 . S
C1183 H1187 0.930 . S
C1184 C1183 1.369 . S
C1184 C1193 1.429 . S
C1185 C1183 1.419 . S
C1185 C1186 1.363 . S
C1185 H1188 0.929 . S
C1186 C1185 1.363 . S
C1186 C1192 1.428 . S
H1187 C1183 0.930 . S
H1188 C1185 0.929 . S
S1189 N1190 1.613 . S
S1189 N1191 1.610 . S
N1190 S1189 1.613 . S
N1190 C1193 1.350 . S
N1191 S1189 1.610 . S
N1191 C1192 1.351 . S
C1192 C1186 1.428 . S
C1192 N1191 1.351 . S
C1192 C1193 1.434 . S
C1193 C1184 1.429 . S
C1193 N1190 1.350 . S
C1193 C1192 1.434 . S
C1194 C1195 1.369 . S
C1194 C1196 1.419 1_556 S
C1194 H1198 0.930 . S
C1195 C1194 1.369 . S
C1195 C1204 1.429 1_455 S
C1196 C1194 1.419 1_554 S
C1196 C1197 1.363 1_455 S
C1196 H1199 0.929 . S
C1197 C1196 1.363 1_655 S
C1197 C1203 1.428 . S
H1198 C1194 0.930 . S
H1199 C1196 0.929 . S
S1200 N1201 1.613 . S
S1200 N1202 1.610 1_556 S
N1201 S1200 1.613 . S
N1201 C1204 1.350 . S
N1202 S1200 1.610 1_554 S
N1202 C1203 1.351 . S
C1203 C1197 1.428 . S
C1203 N1202 1.351 . S
C1203 C1204 1.434 1_554 S
C1204 C1195 1.429 1_655 S
C1204 N1201 1.350 . S
C1204 C1203 1.434 1_556 S
C1205 C1206 1.369 . S
C1205 C1207 1.419 1_554 S
C1205 H1209 0.930 . S
C1206 C1205 1.369 . S
C1206 C1215 1.429 . S
C1207 C1205 1.419 1_556 S
C1207 C1208 1.363 . S
C1207 H1210 0.929 . S
C1208 C1207 1.363 . S
C1208 C1214 1.428 . S
H1209 C1205 0.930 . S
H1210 C1207 0.929 . S
S1211 N1212 1.613 1_556 S
S1211 N1213 1.610 . S
N1212 S1211 1.613 1_554 S
N1212 C1215 1.350 . S
N1213 S1211 1.610 . S
N1213 C1214 1.351 . S
C1214 C1208 1.428 . S
C1214 N1213 1.351 . S
C1214 C1215 1.434 1_556 S
C1215 C1206 1.429 . S
C1215 N1212 1.350 . S
C1215 C1214 1.434 1_554 S
C1216 C1217 1.369 . S
C1216 C1218 1.419 1_544 S
C1216 H1220 0.930 . S
C1217 C1216 1.369 . S
C1217 C1226 1.429 . S
C1218 C1216 1.419 1_566 S
C1218 C1219 1.363 . S
C1218 H1221 0.929 . S
C1219 C1218 1.363 . S
C1219 C1225 1.428 . S
H1220 C1216 0.930 . S
H1221 C1218 0.929 . S
S1222 N1223 1.613 1_556 S
S1222 N1224 1.610 1_545 S
N1223 S1222 1.613 1_554 S
N1223 C1226 1.350 . S
N1224 S1222 1.610 1_565 S
N1224 C1225 1.351 . S
C1225 C1219 1.428 . S
C1225 N1224 1.351 . S
C1225 C1226 1.434 1_566 S
C1226 C1217 1.429 . S
C1226 N1223 1.350 . S
C1226 C1225 1.434 1_544 S
C1227 C1228 1.370 1_545 S
C1227 C1229 1.441 1_556 S
C1227 H1231 0.910 . S
C1228 C1227 1.370 1_565 S
C1228 C1237 1.429 . S
C1229 C1227 1.441 1_554 S
C1229 C1230 1.363 . S
C1229 H1232 0.929 . S
C1230 C1229 1.363 . S
C1230 C1236 1.431 1_545 S
H1231 C1227 0.910 . S
H1232 C1229 0.929 . S
S1233 N1234 1.613 1_554 S
S1233 N1235 1.610 . S
N1234 S1233 1.613 1_556 S
N1234 C1237 1.350 . S
N1235 S1233 1.610 . S
N1235 C1236 1.328 . S
C1236 C1230 1.431 1_565 S
C1236 N1235 1.328 . S
C1236 C1237 1.458 1_554 S
C1237 C1228 1.429 . S
C1237 N1234 1.350 . S
C1237 C1236 1.458 1_556 S
C1238 C1239 1.369 1_655 S
C1238 C1240 1.419 1_556 S
C1238 H1242 0.930 . S
C1239 C1238 1.369 1_455 S
C1239 C1248 1.429 . S
C1240 C1238 1.419 1_554 S
C1240 C1241 1.363 . S
C1240 H1243 0.929 . S
C1241 C1240 1.363 . S
C1241 C1247 1.428 1_655 S
H1242 C1238 0.930 . S
H1243 C1240 0.929 . S
S1244 N1245 1.613 1_554 S
S1244 N1246 1.610 . S
N1245 S1244 1.613 1_556 S
N1245 C1248 1.350 . S
N1246 S1244 1.610 . S
N1246 C1247 1.351 . S
C1247 C1241 1.428 1_455 S
C1247 N1246 1.351 . S
C1247 C1248 1.434 1_554 S
C1248 C1239 1.429 . S
C1248 N1245 1.350 . S
C1248 C1247 1.434 1_556 S
C1249 C1250 1.369 . S
C1249 C1251 1.419 1_554 S
C1249 H1253 0.930 . S
C1250 C1249 1.369 . S
C1250 C1259 1.429 . S
C1251 C1249 1.419 1_556 S
C1251 C1252 1.363 . S
C1251 H1254 0.929 . S
C1252 C1251 1.363 . S
C1252 C1258 1.428 . S
H1253 C1249 0.930 . S
H1254 C1251 0.929 . S
S1255 N1256 1.613 . S
S1255 N1257 1.610 1_554 S
N1256 S1255 1.613 . S
N1256 C1259 1.350 . S
N1257 S1255 1.610 1_556 S
N1257 C1258 1.351 . S
C1258 C1252 1.428 . S
C1258 N1257 1.351 . S
C1258 C1259 1.434 1_556 S
C1259 C1250 1.429 . S
C1259 N1256 1.350 . S
C1259 C1258 1.434 1_554 S
C469 C10 1.479 . S
C471 C147 1.480 . S
C480 C23 1.480 . S
C482 C121 1.480 . S
C491 C140 1.479 . S
C493 C30 1.480 . S
C502 C43 1.482 . S
C504 C101 1.481 . S
C513 C108 1.482 . S
C515 C56 1.482 . S
C524 C75 1.482 . S
C526 C82 1.481 . S
C535 C303 1.479 . S
C537 C160 1.480 . S
C546 C179 1.479 . S
C548 C283 1.479 . S
C557 C192 1.482 . S
C559 C296 1.482 . S
C568 C251 1.480 . S
C570 C199 1.480 . S
C579 C218 1.480 . S
C581 C264 1.480 . S
C590 C244 1.482 . S
C592 C231 1.482 . S
C601 C316 1.480 . S
C603 C459 1.480 . S
C612 C439 1.479 . S
C614 C335 1.479 . S
C623 C446 1.479 . S
C625 C342 1.480 . S
C634 C413 1.480 . S
C636 C355 1.480 . S
C645 C426 1.480 . S
C647 C368 1.480 . S
C656 C400 1.479 . S
C658 C381 1.479 . S
C667 C3 1.432 . S
C669 C57 1.428 . S
C678 C68 1.433 . S
C680 C16 1.428 . S
C689 C31 1.429 . S
C691 C44 1.432 . S
C700 C83 1.428 . S
C702 C133 1.429 . S
C711 C94 1.433 . S
C713 C148 1.429 . S
C722 C109 1.428 . S
C724 C122 1.432 . S
C733 C211 1.427 . S
C735 C161 1.431 . S
C744 C224 1.430 . S
C746 C172 1.428 . S
C755 C185 1.433 . S
C757 C200 1.428 . S
C766 C289 1.428 . S
C768 C237 1.429 . S
C777 C304 1.430 . S
C779 C252 1.427 . S
C788 C265 1.430 . S
C790 C276 1.428 . S
C799 C369 1.428 . S
C801 C317 1.430 . S
C810 C328 1.428 . S
C812 C382 1.429 . S
C821 C343 1.432 . S
C823 C356 1.427 . S
C832 C447 1.427 . S
C834 C393 1.431 . S
C843 C406 1.428 . S
C845 C460 1.432 . S
C854 C432 1.432 . S
C856 C419 1.430 . S
C865 C380 1.368 . S
C867 C5 1.366 . S
C876 C18 1.365 . S
C878 C354 1.367 . S
C887 C29 1.367 . S
C889 C367 1.365 . S
C898 C42 1.367 . S
C900 C174 1.367 . S
C909 C187 1.367 . S
C911 C55 1.367 . S
C920 C159 1.365 . S
C922 C70 1.366 . S
C931 C81 1.366 . S
C933 C302 1.368 . S
C942 C96 1.365 . S
C944 C278 1.365 . S
C953 C107 1.366 . S
C955 C291 1.365 . S
C964 C408 1.368 . S
C966 C120 1.367 . S
C975 C421 1.366 . S
C977 C135 1.365 . S
C986 C146 1.366 . S
C988 C395 1.367 . S
C997 C330 1.366 . S
C999 C198 1.365 . S
C1008 C213 1.368 . S
C1010 C341 1.366 . S
C1019 C315 1.368 . S
C1021 C226 1.366 . S
C1030 C458 1.368 . S
C1032 C239 1.366 . S
C1041 C250 1.365 . S
C1043 C434 1.366 . S
C1052 C263 1.367 . S
C1054 C445 1.365 . S
C1063 C4 1.526 . S
C1065 C387 1.525 . S
C1074 C361 1.524 . S
C1076 C17 1.525 . S
C1085 C36 1.526 . S
C1087 C374 1.526 . S
C1096 C173 1.525 . S
C1098 C49 1.524 . S
C1107 C62 1.524 . S
C1109 C186 1.524 . S
C1118 C69 1.526 . S
C1120 C166 1.525 . S
C1129 C309 1.526 . S
C1131 C88 1.525 . S
C1140 C95 1.526 . S
C1142 C277 1.526 . S
C1151 C114 1.524 . S
C1153 C290 1.525 . S
C1162 C127 1.524 . S
C1164 C407 1.525 . S
C1173 C420 1.524 . S
C1175 C134 1.525 . S
C1184 C153 1.525 . S
C1186 C394 1.526 . S
C1195 C329 1.524 . S
C1197 C205 1.524 . S
C1206 C212 1.525 . S
C1208 C348 1.524 . S
C1217 C225 1.524 . S
C1219 C322 1.524 . S
C1228 C465 1.524 . S
C1230 C238 1.524 . S
C1239 C433 1.526 . S
C1241 C257 1.525 . S
C1250 C270 1.524 . S
C1252 C452 1.526 . S
