# Generated by pormake.
# Topology yfs, (5)-cn, num edge types: 1
# Building blocks:
#     Node 0, Type 0, BuildingBlock: BEQFEK_clean_sbu_0, # of connection points: 5
#     Node 1, Type 0, BuildingBlock: BEQFEK_clean_sbu_0, # of connection points: 5
#     Node 2, Type 0, BuildingBlock: BEQFEK_clean_sbu_0, # of connection points: 5
#     Node 3, Type 0, BuildingBlock: BEQFEK_clean_sbu_0, # of connection points: 5
#     Node 4, Type 0, BuildingBlock: BEQFEK_clean_sbu_0, # of connection points: 5
#     Node 5, Type 0, BuildingBlock: BEQFEK_clean_sbu_0, # of connection points: 5
#     Node 6, Type 0, BuildingBlock: BEQFEK_clean_sbu_0, # of connection points: 5
#     Node 7, Type 0, BuildingBlock: BEQFEK_clean_sbu_0, # of connection points: 5
#     Node 8, Type 0, BuildingBlock: BEQFEK_clean_sbu_0, # of connection points: 5
#     Node 9, Type 0, BuildingBlock: BEQFEK_clean_sbu_0, # of connection points: 5
#     Node 10, Type 0, BuildingBlock: BEQFEK_clean_sbu_0, # of connection points: 5
#     Node 11, Type 0, BuildingBlock: BEQFEK_clean_sbu_0, # of connection points: 5
#     Node 12, Type 0, BuildingBlock: BEQFEK_clean_sbu_0, # of connection points: 5
#     Node 13, Type 0, BuildingBlock: BEQFEK_clean_sbu_0, # of connection points: 5
#     Node 14, Type 0, BuildingBlock: BEQFEK_clean_sbu_0, # of connection points: 5
#     Node 15, Type 0, BuildingBlock: BEQFEK_clean_sbu_0, # of connection points: 5
#     Node 16, Type 0, BuildingBlock: BEQFEK_clean_sbu_0, # of connection points: 5
#     Node 17, Type 0, BuildingBlock: BEQFEK_clean_sbu_0, # of connection points: 5
#     Node 18, Type 0, BuildingBlock: BEQFEK_clean_sbu_0, # of connection points: 5
#     Node 19, Type 0, BuildingBlock: BEQFEK_clean_sbu_0, # of connection points: 5
#     Node 20, Type 0, BuildingBlock: BEQFEK_clean_sbu_0, # of connection points: 5
#     Node 21, Type 0, BuildingBlock: BEQFEK_clean_sbu_0, # of connection points: 5
#     Node 22, Type 0, BuildingBlock: BEQFEK_clean_sbu_0, # of connection points: 5
#     Node 23, Type 0, BuildingBlock: BEQFEK_clean_sbu_0, # of connection points: 5
#     Node 24, Type 0, BuildingBlock: BEQFEK_clean_sbu_0, # of connection points: 5
#     Node 25, Type 0, BuildingBlock: BEQFEK_clean_sbu_0, # of connection points: 5
#     Node 26, Type 0, BuildingBlock: BEQFEK_clean_sbu_0, # of connection points: 5
#     Node 27, Type 0, BuildingBlock: BEQFEK_clean_sbu_0, # of connection points: 5
#     Node 28, Type 0, BuildingBlock: BEQFEK_clean_sbu_0, # of connection points: 5
#     Node 29, Type 0, BuildingBlock: BEQFEK_clean_sbu_0, # of connection points: 5
#     Node 30, Type 0, BuildingBlock: BEQFEK_clean_sbu_0, # of connection points: 5
#     Node 31, Type 0, BuildingBlock: BEQFEK_clean_sbu_0, # of connection points: 5
#     Edge 32, Type (0, 0), BuildingBlock: ZUJKAS_clean_linker_0, # of connection points: 2
#     Edge 33, Type (0, 0), BuildingBlock: ZUJKAS_clean_linker_0, # of connection points: 2
#     Edge 34, Type (0, 0), BuildingBlock: ZUJKAS_clean_linker_0, # of connection points: 2
#     Edge 35, Type (0, 0), BuildingBlock: ZUJKAS_clean_linker_0, # of connection points: 2
#     Edge 36, Type (0, 0), BuildingBlock: ZUJKAS_clean_linker_0, # of connection points: 2
#     Edge 37, Type (0, 0), BuildingBlock: ZUJKAS_clean_linker_0, # of connection points: 2
#     Edge 38, Type (0, 0), BuildingBlock: ZUJKAS_clean_linker_0, # of connection points: 2
#     Edge 39, Type (0, 0), BuildingBlock: ZUJKAS_clean_linker_0, # of connection points: 2
#     Edge 40, Type (0, 0), BuildingBlock: ZUJKAS_clean_linker_0, # of connection points: 2
#     Edge 41, Type (0, 0), BuildingBlock: ZUJKAS_clean_linker_0, # of connection points: 2
#     Edge 42, Type (0, 0), BuildingBlock: ZUJKAS_clean_linker_0, # of connection points: 2
#     Edge 43, Type (0, 0), BuildingBlock: ZUJKAS_clean_linker_0, # of connection points: 2
#     Edge 44, Type (0, 0), BuildingBlock: ZUJKAS_clean_linker_0, # of connection points: 2
#     Edge 45, Type (0, 0), BuildingBlock: ZUJKAS_clean_linker_0, # of connection points: 2
#     Edge 46, Type (0, 0), BuildingBlock: ZUJKAS_clean_linker_0, # of connection points: 2
#     Edge 47, Type (0, 0), BuildingBlock: ZUJKAS_clean_linker_0, # of connection points: 2
#     Edge 48, Type (0, 0), BuildingBlock: ZUJKAS_clean_linker_0, # of connection points: 2
#     Edge 49, Type (0, 0), BuildingBlock: ZUJKAS_clean_linker_0, # of connection points: 2
#     Edge 50, Type (0, 0), BuildingBlock: ZUJKAS_clean_linker_0, # of connection points: 2
#     Edge 51, Type (0, 0), BuildingBlock: ZUJKAS_clean_linker_0, # of connection points: 2
#     Edge 52, Type (0, 0), BuildingBlock: ZUJKAS_clean_linker_0, # of connection points: 2
#     Edge 53, Type (0, 0), BuildingBlock: ZUJKAS_clean_linker_0, # of connection points: 2
#     Edge 54, Type (0, 0), BuildingBlock: ZUJKAS_clean_linker_0, # of connection points: 2
#     Edge 55, Type (0, 0), BuildingBlock: ZUJKAS_clean_linker_0, # of connection points: 2
#     Edge 56, Type (0, 0), BuildingBlock: ZUJKAS_clean_linker_0, # of connection points: 2
#     Edge 57, Type (0, 0), BuildingBlock: ZUJKAS_clean_linker_0, # of connection points: 2
#     Edge 58, Type (0, 0), BuildingBlock: ZUJKAS_clean_linker_0, # of connection points: 2
#     Edge 59, Type (0, 0), BuildingBlock: ZUJKAS_clean_linker_0, # of connection points: 2
#     Edge 60, Type (0, 0), BuildingBlock: ZUJKAS_clean_linker_0, # of connection points: 2
#     Edge 61, Type (0, 0), BuildingBlock: ZUJKAS_clean_linker_0, # of connection points: 2
#     Edge 62, Type (0, 0), BuildingBlock: ZUJKAS_clean_linker_0, # of connection points: 2
#     Edge 63, Type (0, 0), BuildingBlock: ZUJKAS_clean_linker_0, # of connection points: 2
#     Edge 64, Type (0, 0), BuildingBlock: ZUJKAS_clean_linker_0, # of connection points: 2
#     Edge 65, Type (0, 0), BuildingBlock: ZUJKAS_clean_linker_0, # of connection points: 2
#     Edge 66, Type (0, 0), BuildingBlock: ZUJKAS_clean_linker_0, # of connection points: 2
#     Edge 67, Type (0, 0), BuildingBlock: ZUJKAS_clean_linker_0, # of connection points: 2
#     Edge 68, Type (0, 0), BuildingBlock: ZUJKAS_clean_linker_0, # of connection points: 2
#     Edge 69, Type (0, 0), BuildingBlock: ZUJKAS_clean_linker_0, # of connection points: 2
#     Edge 70, Type (0, 0), BuildingBlock: ZUJKAS_clean_linker_0, # of connection points: 2
#     Edge 71, Type (0, 0), BuildingBlock: ZUJKAS_clean_linker_0, # of connection points: 2
#     Edge 72, Type (0, 0), BuildingBlock: ZUJKAS_clean_linker_0, # of connection points: 2
#     Edge 73, Type (0, 0), BuildingBlock: ZUJKAS_clean_linker_0, # of connection points: 2
#     Edge 74, Type (0, 0), BuildingBlock: ZUJKAS_clean_linker_0, # of connection points: 2
#     Edge 75, Type (0, 0), BuildingBlock: ZUJKAS_clean_linker_0, # of connection points: 2
#     Edge 76, Type (0, 0), BuildingBlock: ZUJKAS_clean_linker_0, # of connection points: 2
#     Edge 77, Type (0, 0), BuildingBlock: ZUJKAS_clean_linker_0, # of connection points: 2
#     Edge 78, Type (0, 0), BuildingBlock: ZUJKAS_clean_linker_0, # of connection points: 2
#     Edge 79, Type (0, 0), BuildingBlock: ZUJKAS_clean_linker_0, # of connection points: 2
#     Edge 80, Type (0, 0), BuildingBlock: ZUJKAS_clean_linker_0, # of connection points: 2
#     Edge 81, Type (0, 0), BuildingBlock: ZUJKAS_clean_linker_0, # of connection points: 2
#     Edge 82, Type (0, 0), BuildingBlock: ZUJKAS_clean_linker_0, # of connection points: 2
#     Edge 83, Type (0, 0), BuildingBlock: ZUJKAS_clean_linker_0, # of connection points: 2
#     Edge 84, Type (0, 0), BuildingBlock: ZUJKAS_clean_linker_0, # of connection points: 2
#     Edge 85, Type (0, 0), BuildingBlock: ZUJKAS_clean_linker_0, # of connection points: 2
#     Edge 86, Type (0, 0), BuildingBlock: ZUJKAS_clean_linker_0, # of connection points: 2
#     Edge 87, Type (0, 0), BuildingBlock: ZUJKAS_clean_linker_0, # of connection points: 2
#     Edge 88, Type (0, 0), BuildingBlock: ZUJKAS_clean_linker_0, # of connection points: 2
#     Edge 89, Type (0, 0), BuildingBlock: ZUJKAS_clean_linker_0, # of connection points: 2
#     Edge 90, Type (0, 0), BuildingBlock: ZUJKAS_clean_linker_0, # of connection points: 2
#     Edge 91, Type (0, 0), BuildingBlock: ZUJKAS_clean_linker_0, # of connection points: 2
#     Edge 92, Type (0, 0), BuildingBlock: ZUJKAS_clean_linker_0, # of connection points: 2
#     Edge 93, Type (0, 0), BuildingBlock: ZUJKAS_clean_linker_0, # of connection points: 2
#     Edge 94, Type (0, 0), BuildingBlock: ZUJKAS_clean_linker_0, # of connection points: 2
#     Edge 95, Type (0, 0), BuildingBlock: ZUJKAS_clean_linker_0, # of connection points: 2
#     Edge 96, Type (0, 0), BuildingBlock: ZUJKAS_clean_linker_0, # of connection points: 2
#     Edge 97, Type (0, 0), BuildingBlock: ZUJKAS_clean_linker_0, # of connection points: 2
#     Edge 98, Type (0, 0), BuildingBlock: ZUJKAS_clean_linker_0, # of connection points: 2
#     Edge 99, Type (0, 0), BuildingBlock: ZUJKAS_clean_linker_0, # of connection points: 2
#     Edge 100, Type (0, 0), BuildingBlock: ZUJKAS_clean_linker_0, # of connection points: 2
#     Edge 101, Type (0, 0), BuildingBlock: ZUJKAS_clean_linker_0, # of connection points: 2
#     Edge 102, Type (0, 0), BuildingBlock: ZUJKAS_clean_linker_0, # of connection points: 2
#     Edge 103, Type (0, 0), BuildingBlock: ZUJKAS_clean_linker_0, # of connection points: 2
#     Edge 104, Type (0, 0), BuildingBlock: ZUJKAS_clean_linker_0, # of connection points: 2
#     Edge 105, Type (0, 0), BuildingBlock: ZUJKAS_clean_linker_0, # of connection points: 2
#     Edge 106, Type (0, 0), BuildingBlock: ZUJKAS_clean_linker_0, # of connection points: 2
#     Edge 107, Type (0, 0), BuildingBlock: ZUJKAS_clean_linker_0, # of connection points: 2
#     Edge 108, Type (0, 0), BuildingBlock: ZUJKAS_clean_linker_0, # of connection points: 2
#     Edge 109, Type (0, 0), BuildingBlock: ZUJKAS_clean_linker_0, # of connection points: 2
#     Edge 110, Type (0, 0), BuildingBlock: ZUJKAS_clean_linker_0, # of connection points: 2
#     Edge 111, Type (0, 0), BuildingBlock: ZUJKAS_clean_linker_0, # of connection points: 2
# Relax obj value: 0.314
# Max RMSD: 0.161
# Mean RMSD: 0.161
data_MOF--net-yfs--node1-BEQFEK_clean_sbu_0--edge1-ZUJKAS_clean_linker_0
_symmetry_space_group_name_H-M    P1
_symmetry_Int_Tables_number       1
_symmetry_cell_setting            triclinic
loop_
_symmetry_equiv_pos_as_xyz
'x, y, z'
_cell_length_a     61.765568
_cell_length_b     61.745621
_cell_length_c     105.95422
_cell_angle_alpha  89.965679
_cell_angle_beta   90.003574
_cell_angle_gamma 90.003714
loop_
_atom_site_label
_atom_site_type_symbol
_atom_site_fract_x
_atom_site_fract_y
_atom_site_fract_z
_atom_type_partial_charge
Co0 Co 0.39826 0.13223 0.17921 0.0
Co1 Co 0.37115 0.15394 0.20075 0.0
C2 C 0.36154 0.1623 0.17335 0.0
O3 O 0.37661 0.14959 0.16973 0.0
O4 O 0.35768 0.16538 0.18505 0.0
C5 C 0.41189 0.1094 0.15635 0.0
O6 O 0.39321 0.11499 0.15139 0.0
C7 C 0.33665 0.17305 0.21637 0.0
C8 C 0.35247 0.17332 0.23511 0.0
C9 C 0.33381 0.17946 0.22883 0.0
N10 N 0.35606 0.16339 0.21541 0.0
N11 N 0.36536 0.16351 0.22664 0.0
C12 C 0.32307 0.17888 0.20518 0.0
H13 H 0.33162 0.19161 0.19974 0.0
H14 H 0.32118 0.16451 0.19899 0.0
H15 H 0.30694 0.1852 0.20783 0.0
C16 C 0.38559 0.09286 0.19332 0.0
N17 N 0.38472 0.11437 0.19136 0.0
N18 N 0.37298 0.12336 0.20029 0.0
C19 C 0.36578 0.10781 0.20816 0.0
C20 C 0.37365 0.08796 0.20404 0.0
C21 C 0.39814 0.07747 0.18523 0.0
H22 H 0.41565 0.08131 0.18595 0.0
H23 H 0.39324 0.07959 0.17524 0.0
H24 H 0.39538 0.06038 0.18804 0.0
O25 O 0.41917 0.15229 0.18717 0.0
O26 O 0.40002 0.16697 0.20259 0.0
H27 H 0.36497 0.11977 0.22704 0.0
H28 H 0.34702 0.0974 0.22445 0.0
C29 C 0.35374 0.11228 0.22015 0.0
H30 H 0.34033 0.12378 0.21827 0.0
H31 H 0.38089 0.15758 0.22843 0.0
O32 O 0.41617 0.11469 0.16766 0.0
C33 C 0.41761 0.16513 0.1965 0.0
Co34 Co 0.11566 0.14736 0.42898 0.0
Co35 Co 0.0929 0.12185 0.45084 0.0
C36 C 0.08392 0.11157 0.42377 0.0
O37 O 0.09729 0.12591 0.41999 0.0
O38 O 0.08073 0.10823 0.43549 0.0
C39 C 0.12234 0.17159 0.40756 0.0
O40 O 0.10151 0.16736 0.40697 0.0
C41 C 0.07588 0.08665 0.46656 0.0
C42 C 0.06971 0.10384 0.48452 0.0
C43 C 0.06736 0.08401 0.47859 0.0
N44 N 0.08297 0.10713 0.46549 0.0
N45 N 0.07949 0.11724 0.47629 0.0
C46 C 0.0747 0.07125 0.45568 0.0
H47 H 0.08865 0.07388 0.44927 0.0
H48 H 0.07451 0.05415 0.4588 0.0
H49 H 0.05957 0.0744 0.45036 0.0
C50 C 0.15442 0.13462 0.44357 0.0
N51 N 0.133 0.13386 0.44131 0.0
N52 N 0.12349 0.12277 0.45035 0.0
C53 C 0.13858 0.11591 0.4586 0.0
C54 C 0.15868 0.12324 0.45458 0.0
C55 C 0.17017 0.14707 0.43567 0.0
H56 H 0.16804 0.14262 0.4256 0.0
H57 H 0.18714 0.14383 0.43856 0.0
H58 H 0.16672 0.16464 0.43658 0.0
O59 O 0.09662 0.16941 0.43674 0.0
O60 O 0.08062 0.15116 0.45213 0.0
H61 H 0.14808 0.10034 0.47618 0.0
H62 H 0.12345 0.09041 0.46906 0.0
C63 C 0.13337 0.10505 0.47087 0.0
H64 H 0.12375 0.11628 0.4768 0.0
H65 H 0.08302 0.13354 0.47787 0.0
O66 O 0.13328 0.16349 0.41655 0.0
C67 C 0.08336 0.16854 0.4459 0.0
Co68 Co 0.09224 0.86414 0.67974 0.0
Co69 Co 0.12018 0.84211 0.70077 0.0
C70 C 0.13004 0.83601 0.67325 0.0
O71 O 0.11451 0.84827 0.66977 0.0
O72 O 0.13388 0.83253 0.68489 0.0
C73 C 0.07777 0.89043 0.6582 0.0
O74 O 0.09804 0.89126 0.65448 0.0
C75 C 0.15795 0.82728 0.71494 0.0
C76 C 0.14315 0.81741 0.73304 0.0
C77 C 0.16253 0.81761 0.72646 0.0
N78 N 0.1368 0.83221 0.71467 0.0
N79 N 0.12807 0.82648 0.72555 0.0
C80 C 0.17333 0.83238 0.70445 0.0
H81 H 0.1678 0.84699 0.69925 0.0
H82 H 0.18993 0.83503 0.70816 0.0
H83 H 0.17371 0.81861 0.69775 0.0
C84 C 0.10379 0.90319 0.69469 0.0
N85 N 0.10504 0.88182 0.69227 0.0
N86 N 0.1168 0.87248 0.70108 0.0
C87 C 0.12352 0.88755 0.70936 0.0
C88 C 0.11554 0.90753 0.70557 0.0
C89 C 0.0914 0.91894 0.68676 0.0
H90 H 0.09731 0.91805 0.6769 0.0
H91 H 0.09323 0.9358 0.69021 0.0
H92 H 0.07402 0.91439 0.68675 0.0
O93 O 0.07247 0.8427 0.68747 0.0
O94 O 0.09224 0.8272 0.70237 0.0
H95 H 0.1259 0.87047 0.72684 0.0
H96 H 0.13811 0.89687 0.72726 0.0
C97 C 0.1354 0.88238 0.72131 0.0
H98 H 0.15123 0.87492 0.71896 0.0
H99 H 0.11167 0.82814 0.72771 0.0
O100 O 0.07304 0.88079 0.66842 0.0
C101 C 0.07457 0.82899 0.69634 0.0
Co102 Co 0.38081 0.84022 0.93148 0.0
Co103 Co 0.4041 0.86813 0.95198 0.0
C104 C 0.40917 0.87731 0.9243 0.0
O105 O 0.39618 0.8622 0.92116 0.0
O106 O 0.41362 0.88108 0.93583 0.0
C107 C 0.35448 0.82742 0.91004 0.0
O108 O 0.35641 0.8476 0.90626 0.0
C109 C 0.42041 0.90604 0.96534 0.0
C110 C 0.42937 0.89212 0.98384 0.0
C111 C 0.42991 0.91107 0.97683 0.0
N112 N 0.41478 0.88506 0.96551 0.0
N113 N 0.42005 0.87684 0.97661 0.0
C114 C 0.41605 0.92088 0.95446 0.0
H115 H 0.40102 0.91584 0.94952 0.0
H116 H 0.41444 0.93789 0.95769 0.0
H117 H 0.42965 0.91983 0.94765 0.0
C118 C 0.34262 0.85275 0.94682 0.0
N119 N 0.36391 0.85352 0.94418 0.0
N120 N 0.37371 0.86549 0.95271 0.0
C121 C 0.35901 0.87279 0.96105 0.0
C122 C 0.3388 0.86497 0.95759 0.0
C123 C 0.32639 0.84048 0.93916 0.0
H124 H 0.33049 0.82298 0.93935 0.0
H125 H 0.32725 0.846 0.92921 0.0
H126 H 0.30966 0.84287 0.9427 0.0
O127 O 0.40263 0.82025 0.93882 0.0
O128 O 0.41816 0.83985 0.95379 0.0
H129 H 0.37619 0.87543 0.97847 0.0
H130 H 0.35034 0.88878 0.97864 0.0
C131 C 0.36469 0.88512 0.97276 0.0
H132 H 0.37283 0.90048 0.9701 0.0
H133 H 0.41775 0.86066 0.97913 0.0
O134 O 0.36289 0.82171 0.92046 0.0
C135 C 0.41633 0.82222 0.94772 0.0
Co136 Co 0.4063 0.86517 0.31399 0.0
Co137 Co 0.37308 0.84441 0.29525 0.0
C138 C 0.36767 0.83955 0.323 0.0
O139 O 0.3849 0.85037 0.32511 0.0
O140 O 0.36081 0.8364 0.31182 0.0
C141 C 0.42305 0.89284 0.33407 0.0
O142 O 0.40283 0.89593 0.33746 0.0
C143 C 0.3355 0.82552 0.28224 0.0
C144 C 0.34774 0.82416 0.26262 0.0
C145 C 0.33031 0.81857 0.27015 0.0
N146 N 0.35506 0.83502 0.28179 0.0
N147 N 0.36222 0.83424 0.27005 0.0
C148 C 0.3239 0.82049 0.29429 0.0
H149 H 0.33411 0.80947 0.30004 0.0
H150 H 0.32155 0.83565 0.29973 0.0
H151 H 0.30806 0.81256 0.2927 0.0
C152 C 0.395 0.90434 0.29909 0.0
N153 N 0.39259 0.88323 0.30197 0.0
N154 N 0.37814 0.87462 0.29435 0.0
C155 C 0.37045 0.8901 0.28659 0.0
C156 C 0.38098 0.9094 0.28929 0.0
C157 C 0.41056 0.91921 0.30557 0.0
H158 H 0.4269 0.91175 0.3057 0.0
H159 H 0.4053 0.9215 0.31548 0.0
H160 H 0.41133 0.9353 0.30094 0.0
O161 O 0.42383 0.84269 0.30564 0.0
O162 O 0.3999 0.82756 0.29286 0.0
H163 H 0.36326 0.87798 0.26821 0.0
H164 H 0.34744 0.90116 0.27247 0.0
C165 C 0.35469 0.886 0.27612 0.0
H166 H 0.34157 0.87519 0.27947 0.0
H167 H 0.37742 0.83979 0.26721 0.0
O168 O 0.42721 0.88125 0.32448 0.0
C169 C 0.41885 0.82846 0.29748 0.0
Co170 Co 0.37485 0.14461 0.56962 0.0
Co171 Co 0.39724 0.12034 0.54725 0.0
C172 C 0.40747 0.10948 0.57413 0.0
O173 O 0.39385 0.12324 0.5783 0.0
O174 O 0.41033 0.10685 0.56233 0.0
C175 C 0.36762 0.16719 0.59173 0.0
O176 O 0.38835 0.16268 0.59266 0.0
C177 C 0.41454 0.08542 0.53177 0.0
C178 C 0.42053 0.10202 0.51362 0.0
C179 C 0.42328 0.08246 0.51983 0.0
N180 N 0.40734 0.10585 0.53263 0.0
N181 N 0.41076 0.11566 0.52172 0.0
C182 C 0.41227 0.06905 0.5421 0.0
H183 H 0.39771 0.07265 0.54787 0.0
H184 H 0.41107 0.05244 0.53816 0.0
H185 H 0.42666 0.0699 0.54832 0.0
C186 C 0.33594 0.13258 0.55481 0.0
N187 N 0.35729 0.13117 0.55725 0.0
N188 N 0.36679 0.12043 0.54807 0.0
C189 C 0.3518 0.11446 0.53957 0.0
C190 C 0.33181 0.1221 0.54348 0.0
C191 C 0.32059 0.14631 0.56223 0.0
H192 H 0.32625 0.16337 0.56205 0.0
H193 H 0.32062 0.14089 0.57222 0.0
H194 H 0.30388 0.14543 0.55841 0.0
O195 O 0.39323 0.16732 0.56183 0.0
O196 O 0.40808 0.15011 0.54565 0.0
H197 H 0.36528 0.11515 0.52101 0.0
H198 H 0.34184 0.09786 0.52254 0.0
C199 C 0.3568 0.10356 0.5273 0.0
H200 H 0.3676 0.08952 0.52898 0.0
H201 H 0.40701 0.13185 0.51994 0.0
O202 O 0.35715 0.15997 0.58232 0.0
C203 C 0.40545 0.16718 0.55216 0.0
Co204 Co 0.09608 0.12847 0.81656 0.0
Co205 Co 0.12723 0.15096 0.79727 0.0
C206 C 0.13341 0.15614 0.82506 0.0
O207 O 0.11699 0.1443 0.82747 0.0
O208 O 0.13946 0.15975 0.81375 0.0
C209 C 0.07927 0.1051 0.83828 0.0
O210 O 0.09761 0.11008 0.84384 0.0
C211 C 0.16475 0.16931 0.78399 0.0
C212 C 0.1512 0.1739 0.76487 0.0
C213 C 0.16949 0.17757 0.77212 0.0
N214 N 0.14452 0.16136 0.78377 0.0
N215 N 0.13656 0.16407 0.7723 0.0
C216 C 0.17917 0.16852 0.79532 0.0
H217 H 0.17584 0.18283 0.80134 0.0
H218 H 0.17575 0.15371 0.80092 0.0
H219 H 0.19648 0.1687 0.79251 0.0
C220 C 0.1086 0.09015 0.80152 0.0
N221 N 0.11038 0.11127 0.80442 0.0
N222 N 0.12366 0.12061 0.79638 0.0
C223 C 0.13098 0.10566 0.78817 0.0
C224 C 0.12157 0.08587 0.79113 0.0
C225 C 0.09418 0.07462 0.80838 0.0
H226 H 0.07705 0.07947 0.80697 0.0
H227 H 0.09768 0.07542 0.81864 0.0
H228 H 0.09651 0.05774 0.80506 0.0
O229 O 0.07708 0.15003 0.80839 0.0
O230 O 0.09946 0.16615 0.79507 0.0
H231 H 0.13492 0.12028 0.77007 0.0
H232 H 0.15071 0.09613 0.77211 0.0
C233 C 0.1447 0.11086 0.77692 0.0
H234 H 0.15869 0.1209 0.77987 0.0
H235 H 0.12088 0.15972 0.76964 0.0
O236 O 0.0762 0.11075 0.82689 0.0
C237 C 0.08083 0.16429 0.80002 0.0
Co238 Co 0.11598 0.83966 0.06658 0.0
Co239 Co 0.09273 0.86787 0.04609 0.0
C240 C 0.08491 0.87504 0.07364 0.0
O241 O 0.09792 0.8599 0.07675 0.0
O242 O 0.08169 0.87994 0.06211 0.0
C243 C 0.13939 0.82625 0.08908 0.0
O244 O 0.13285 0.84463 0.09403 0.0
C245 C 0.07598 0.90522 0.03216 0.0
C246 C 0.06865 0.89065 0.01359 0.0
C247 C 0.06715 0.90974 0.0204 0.0
N248 N 0.08214 0.88438 0.03231 0.0
N249 N 0.07782 0.87578 0.02117 0.0
C250 C 0.07936 0.92044 0.04295 0.0
H251 H 0.09372 0.91543 0.04854 0.0
H252 H 0.08155 0.93728 0.03952 0.0
H253 H 0.06499 0.9199 0.04921 0.0
C254 C 0.15436 0.85436 0.05217 0.0
N255 N 0.13298 0.85466 0.05458 0.0
N256 N 0.12323 0.86662 0.04602 0.0
C257 C 0.13808 0.87443 0.03792 0.0
C258 C 0.15832 0.8669 0.04155 0.0
C259 C 0.17046 0.84158 0.05965 0.0
H260 H 0.16698 0.82405 0.05855 0.0
H261 H 0.16876 0.84565 0.0698 0.0
H262 H 0.18731 0.84497 0.05661 0.0
O263 O 0.09641 0.81869 0.05819 0.0
O264 O 0.08 0.83897 0.04385 0.0
H265 H 0.122 0.87627 0.02011 0.0
H266 H 0.14702 0.89113 0.02058 0.0
C267 C 0.13251 0.88655 0.02611 0.0
H268 H 0.12333 0.90139 0.02859 0.0
H269 H 0.08075 0.85963 0.01884 0.0
O270 O 0.13444 0.82181 0.07774 0.0
C271 C 0.08276 0.82084 0.04929 0.0
Co272 Co 0.59036 0.86737 0.8164 0.0
Co273 Co 0.62242 0.84522 0.79753 0.0
C274 C 0.62996 0.84286 0.82518 0.0
O275 O 0.61269 0.85357 0.82738 0.0
O276 O 0.63617 0.83899 0.81395 0.0
C277 C 0.57476 0.89297 0.83751 0.0
O278 O 0.59416 0.89037 0.84236 0.0
C279 C 0.65829 0.82425 0.78399 0.0
C280 C 0.64523 0.82363 0.76455 0.0
C281 C 0.66265 0.81713 0.77183 0.0
N282 N 0.63925 0.83476 0.78383 0.0
N283 N 0.63157 0.83436 0.77219 0.0
C284 C 0.67012 0.81858 0.79588 0.0
H285 H 0.659 0.80968 0.80226 0.0
H286 H 0.67512 0.83369 0.80073 0.0
H287 H 0.6845 0.8083 0.79414 0.0
C288 C 0.5993 0.90483 0.79978 0.0
N289 N 0.60281 0.88424 0.80343 0.0
N290 N 0.61678 0.87515 0.7957 0.0
C291 C 0.62301 0.88985 0.78705 0.0
C292 C 0.61195 0.90901 0.78923 0.0
C293 C 0.58259 0.91928 0.80558 0.0
H294 H 0.56716 0.91027 0.80663 0.0
H295 H 0.58806 0.92413 0.81515 0.0
H296 H 0.5797 0.93401 0.79983 0.0
O297 O 0.5722 0.84413 0.80926 0.0
O298 O 0.59554 0.82805 0.79649 0.0
H299 H 0.6315 0.87841 0.76868 0.0
H300 H 0.64707 0.90131 0.77388 0.0
C301 C 0.63951 0.88588 0.77697 0.0
H302 H 0.65229 0.87481 0.78047 0.0
H303 H 0.61656 0.84069 0.76956 0.0
O304 O 0.57052 0.88502 0.82674 0.0
C305 C 0.57687 0.82921 0.80146 0.0
Co306 Co 0.88419 0.83799 0.56296 0.0
Co307 Co 0.90561 0.86807 0.54265 0.0
C308 C 0.91214 0.87615 0.57013 0.0
O309 O 0.90024 0.86003 0.5731 0.0
O310 O 0.91541 0.88124 0.55864 0.0
C311 C 0.85521 0.82487 0.58347 0.0
O312 O 0.85193 0.84558 0.58559 0.0
C313 C 0.92341 0.90457 0.52808 0.0
C314 C 0.9261 0.88984 0.50912 0.0
C315 C 0.93064 0.90845 0.51589 0.0
N316 N 0.91489 0.88456 0.52846 0.0
N317 N 0.91633 0.87595 0.51707 0.0
C318 C 0.92727 0.91808 0.53957 0.0
H319 H 0.94117 0.91115 0.54482 0.0
H320 H 0.91282 0.91756 0.54578 0.0
H321 H 0.93114 0.93511 0.53722 0.0
C322 C 0.84527 0.84824 0.54753 0.0
N323 N 0.86629 0.85092 0.55055 0.0
N324 N 0.87523 0.86436 0.54243 0.0
C325 C 0.86007 0.87121 0.53424 0.0
C326 C 0.84064 0.86101 0.53706 0.0
C327 C 0.83074 0.83193 0.55365 0.0
H328 H 0.84006 0.81715 0.55606 0.0
H329 H 0.82417 0.83887 0.56252 0.0
H330 H 0.81704 0.82742 0.54742 0.0
O331 O 0.90543 0.81859 0.5549 0.0
O332 O 0.92059 0.84005 0.54068 0.0
H333 H 0.87168 0.87912 0.51581 0.0
H334 H 0.84871 0.89498 0.5208 0.0
C335 C 0.86405 0.88738 0.52397 0.0
H336 H 0.87515 0.90021 0.52738 0.0
H337 H 0.91139 0.86024 0.51486 0.0
O338 O 0.86755 0.81911 0.57449 0.0
C339 C 0.91905 0.82175 0.5461 0.0
Co340 Co 0.89858 0.12437 0.31817 0.0
Co341 Co 0.87454 0.14872 0.29639 0.0
C342 C 0.86575 0.15852 0.32369 0.0
O343 O 0.87881 0.14394 0.32751 0.0
O344 O 0.86282 0.16208 0.31197 0.0
C345 C 0.90924 0.10262 0.34157 0.0
O346 O 0.89142 0.11149 0.34595 0.0
C347 C 0.83958 0.16842 0.28185 0.0
C348 C 0.85518 0.17343 0.2633 0.0
C349 C 0.83626 0.17726 0.26995 0.0
N350 N 0.85961 0.16005 0.28222 0.0
N351 N 0.86883 0.16298 0.27109 0.0
C352 C 0.82395 0.16716 0.29261 0.0
H353 H 0.82699 0.15228 0.29822 0.0
H354 H 0.80699 0.16715 0.28914 0.0
H355 H 0.82636 0.18135 0.29887 0.0
C356 C 0.88199 0.08655 0.30401 0.0
N357 N 0.8833 0.10801 0.30603 0.0
N358 N 0.87288 0.11823 0.29698 0.0
C359 C 0.86454 0.10362 0.28891 0.0
C360 C 0.87006 0.08303 0.2931 0.0
C361 C 0.89282 0.06991 0.31211 0.0
H362 H 0.88853 0.07278 0.32213 0.0
H363 H 0.88795 0.05324 0.30942 0.0
H364 H 0.91064 0.0716 0.31119 0.0
O365 O 0.92154 0.14222 0.31019 0.0
O366 O 0.90462 0.15817 0.29427 0.0
H367 H 0.86583 0.11862 0.27077 0.0
H368 H 0.8486 0.09515 0.27127 0.0
C369 C 0.85407 0.10953 0.27664 0.0
H370 H 0.84 0.12025 0.27846 0.0
H371 H 0.88463 0.15829 0.26893 0.0
O372 O 0.9143 0.10537 0.33007 0.0
C373 C 0.9217 0.15469 0.30063 0.0
Co374 Co 0.61701 0.14723 0.06734 0.0
Co375 Co 0.59315 0.1227 0.04557 0.0
C376 C 0.58484 0.11205 0.07267 0.0
O377 O 0.59883 0.12572 0.07648 0.0
O378 O 0.58109 0.10938 0.06097 0.0
C379 C 0.62508 0.16948 0.08937 0.0
O380 O 0.60446 0.1646 0.09052 0.0
C381 C 0.57431 0.08767 0.03087 0.0
C382 C 0.56816 0.10351 0.01251 0.0
C383 C 0.56508 0.08437 0.0191 0.0
N384 N 0.58213 0.10792 0.03128 0.0
N385 N 0.57859 0.11728 0.02025 0.0
C386 C 0.57647 0.0718 0.04148 0.0
H387 H 0.59165 0.07492 0.04679 0.0
H388 H 0.57653 0.05491 0.03788 0.0
H389 H 0.56265 0.07382 0.04806 0.0
C390 C 0.65499 0.13492 0.05193 0.0
N391 N 0.63373 0.13388 0.05463 0.0
N392 N 0.6237 0.12315 0.04564 0.0
C393 C 0.63828 0.11685 0.03696 0.0
C394 C 0.65855 0.12422 0.04059 0.0
C395 C 0.67079 0.14833 0.05925 0.0
H396 H 0.66461 0.16516 0.05998 0.0
H397 H 0.6721 0.14179 0.06897 0.0
H398 H 0.68704 0.14853 0.0548 0.0
O399 O 0.59786 0.1697 0.05995 0.0
O400 O 0.58155 0.15219 0.04438 0.0
H401 H 0.62433 0.11624 0.01852 0.0
H402 H 0.64742 0.09854 0.02038 0.0
C403 C 0.63272 0.10502 0.02507 0.0
H404 H 0.62163 0.09141 0.02725 0.0
H405 H 0.58274 0.13326 0.01815 0.0
O406 O 0.63528 0.16272 0.07974 0.0
C407 C 0.58457 0.16932 0.05078 0.0
Co408 Co 0.59033 0.13371 0.67888 0.0
Co409 Co 0.6207 0.15564 0.69872 0.0
C410 C 0.63009 0.15867 0.67116 0.0
O411 O 0.61343 0.14739 0.66842 0.0
O412 O 0.635 0.16284 0.68258 0.0
C413 C 0.57627 0.10412 0.65898 0.0
O414 O 0.59687 0.10089 0.65652 0.0
C415 C 0.65829 0.1713 0.71295 0.0
C416 C 0.64346 0.17845 0.73147 0.0
C417 C 0.66271 0.17972 0.72481 0.0
N418 N 0.63733 0.16561 0.71259 0.0
N419 N 0.62858 0.16979 0.7237 0.0
C420 C 0.67373 0.16785 0.70227 0.0
H421 H 0.66899 0.15331 0.69678 0.0
H422 H 0.69054 0.16588 0.7058 0.0
H423 H 0.67314 0.1821 0.6959 0.0
C424 C 0.59846 0.09581 0.69552 0.0
N425 N 0.60195 0.11649 0.692 0.0
N426 N 0.61516 0.12568 0.70014 0.0
C427 C 0.62079 0.11107 0.70897 0.0
C428 C 0.61027 0.09175 0.70641 0.0
C429 C 0.58253 0.08103 0.68927 0.0
H430 H 0.56746 0.09005 0.68709 0.0
H431 H 0.5895 0.07516 0.68025 0.0
H432 H 0.57856 0.06689 0.69531 0.0
O433 O 0.57186 0.15693 0.68585 0.0
O434 O 0.59371 0.17251 0.69969 0.0
H435 H 0.62743 0.1251 0.72698 0.0
H436 H 0.64192 0.10025 0.724 0.0
C437 C 0.63597 0.11551 0.71968 0.0
H438 H 0.65003 0.12499 0.71625 0.0
H439 H 0.61233 0.16712 0.72589 0.0
O440 O 0.57092 0.11672 0.66793 0.0
C441 C 0.57556 0.17143 0.69409 0.0
Co442 Co 0.61019 0.84009 0.43101 0.0
Co443 Co 0.58844 0.87125 0.45053 0.0
C444 C 0.58527 0.87948 0.42279 0.0
O445 O 0.59665 0.86282 0.42023 0.0
O446 O 0.58103 0.88467 0.43416 0.0
C447 C 0.63879 0.8257 0.41088 0.0
O448 O 0.64093 0.84629 0.408 0.0
C449 C 0.57176 0.9093 0.46388 0.0
C450 C 0.56483 0.89557 0.48271 0.0
C451 C 0.56279 0.91421 0.47553 0.0
N452 N 0.57841 0.88862 0.4641 0.0
N453 N 0.57444 0.88056 0.47542 0.0
C454 C 0.57457 0.92406 0.45281 0.0
H455 H 0.58936 0.91961 0.44747 0.0
H456 H 0.57571 0.94119 0.4559 0.0
H457 H 0.56039 0.92232 0.44648 0.0
C458 C 0.64803 0.84852 0.44764 0.0
N459 N 0.62744 0.85213 0.44402 0.0
N460 N 0.61841 0.86591 0.45189 0.0
C461 C 0.63308 0.87193 0.46059 0.0
C462 C 0.65227 0.86094 0.4583 0.0
C463 C 0.66241 0.83182 0.44177 0.0
H464 H 0.65289 0.81709 0.43954 0.0
H465 H 0.66906 0.83832 0.43281 0.0
H466 H 0.67602 0.82733 0.44808 0.0
O467 O 0.58691 0.82201 0.43821 0.0
O468 O 0.57187 0.8441 0.45213 0.0
H469 H 0.61963 0.88014 0.47854 0.0
H470 H 0.64414 0.89467 0.47472 0.0
C471 C 0.62882 0.88809 0.47082 0.0
H472 H 0.61898 0.90165 0.46707 0.0
H473 H 0.57767 0.86458 0.47803 0.0
O474 O 0.62714 0.8203 0.42024 0.0
C475 C 0.57275 0.82584 0.44663 0.0
Co476 Co 0.89923 0.86798 0.17926 0.0
Co477 Co 0.87367 0.84272 0.20007 0.0
C478 C 0.86349 0.83749 0.17255 0.0
O479 O 0.87769 0.85138 0.16926 0.0
O480 O 0.86049 0.83265 0.18411 0.0
C481 C 0.91123 0.89193 0.15684 0.0
O482 O 0.89239 0.88568 0.15239 0.0
C483 C 0.83781 0.82366 0.21416 0.0
C484 C 0.85349 0.81562 0.23233 0.0
C485 C 0.83422 0.81374 0.22573 0.0
N486 N 0.85832 0.83079 0.2139 0.0
N487 N 0.86759 0.82605 0.2248 0.0
C488 C 0.82203 0.82707 0.20363 0.0
H489 H 0.82577 0.8424 0.1986 0.0
H490 H 0.80518 0.8276 0.20726 0.0
H491 H 0.82349 0.81356 0.1968 0.0
C492 C 0.88529 0.90507 0.19506 0.0
N493 N 0.88556 0.88382 0.19226 0.0
N494 N 0.87449 0.8732 0.20088 0.0
C495 C 0.86669 0.88733 0.20941 0.0
C496 C 0.87326 0.90801 0.20599 0.0
C497 C 0.89668 0.92205 0.18748 0.0
H498 H 0.91442 0.91942 0.18813 0.0
H499 H 0.89201 0.92046 0.17741 0.0
H500 H 0.89269 0.9386 0.19082 0.0
O501 O 0.92076 0.84725 0.18612 0.0
O502 O 0.90281 0.83038 0.2013 0.0
H503 H 0.8659 0.87005 0.22686 0.0
H504 H 0.85058 0.89479 0.22715 0.0
C505 C 0.85518 0.88073 0.22124 0.0
H506 H 0.84043 0.87142 0.21875 0.0
H507 H 0.88371 0.82949 0.22698 0.0
O508 O 0.91636 0.88706 0.1681 0.0
C509 C 0.92 0.83333 0.19496 0.0
Co510 Co 0.88161 0.15248 0.93056 0.0
Co511 Co 0.90616 0.12438 0.95059 0.0
C512 C 0.91024 0.11557 0.9229 0.0
O513 O 0.89706 0.13071 0.92005 0.0
O514 O 0.91509 0.11151 0.93435 0.0
C515 C 0.85657 0.16588 0.90875 0.0
O516 O 0.86091 0.14654 0.90426 0.0
C517 C 0.92502 0.08762 0.96415 0.0
C518 C 0.93177 0.10216 0.9828 0.0
C519 C 0.93428 0.08335 0.97583 0.0
N520 N 0.91768 0.10807 0.96419 0.0
N521 N 0.92164 0.11664 0.97538 0.0
C522 C 0.9223 0.07243 0.95327 0.0
H523 H 0.90715 0.07624 0.9481 0.0
H524 H 0.92183 0.05535 0.95655 0.0
H525 H 0.93609 0.07447 0.94668 0.0
C526 C 0.84463 0.14086 0.94706 0.0
N527 N 0.86553 0.13915 0.94361 0.0
N528 N 0.87581 0.1269 0.95182 0.0
C529 C 0.86175 0.12019 0.96068 0.0
C530 C 0.84159 0.12896 0.95805 0.0
C531 C 0.82871 0.1555 0.94068 0.0
H532 H 0.83581 0.17193 0.93976 0.0
H533 H 0.82552 0.14936 0.93102 0.0
H534 H 0.81324 0.15657 0.94595 0.0
O535 O 0.90332 0.17272 0.9376 0.0
O536 O 0.91994 0.15291 0.95208 0.0
H537 H 0.87667 0.11573 0.97869 0.0
H538 H 0.85298 0.09914 0.9762 0.0
C539 C 0.86761 0.10604 0.97164 0.0
H540 H 0.87812 0.0926 0.9684 0.0
H541 H 0.91784 0.13256 0.97785 0.0
O542 O 0.863 0.17084 0.91976 0.0
C543 C 0.91751 0.17068 0.94622 0.0
Co544 Co 0.89352 0.63078 0.67715 0.0
Co545 Co 0.8665 0.65242 0.69874 0.0
C546 C 0.85579 0.66056 0.67175 0.0
O547 O 0.87112 0.64816 0.66817 0.0
O548 O 0.8518 0.6635 0.68342 0.0
C549 C 0.91782 0.62502 0.65569 0.0
O550 O 0.91277 0.64567 0.65506 0.0
C551 C 0.83271 0.67078 0.71507 0.0
C552 C 0.84954 0.67118 0.73352 0.0
C553 C 0.83041 0.67693 0.7276 0.0
N554 N 0.85227 0.66161 0.71371 0.0
N555 N 0.86219 0.66178 0.72477 0.0
C556 C 0.81826 0.6762 0.70418 0.0
H557 H 0.82631 0.6888 0.69838 0.0
H558 H 0.81601 0.66164 0.69819 0.0
H559 H 0.80231 0.6825 0.70718 0.0
C560 C 0.88362 0.59166 0.69221 0.0
N561 N 0.88116 0.61287 0.68964 0.0
N562 N 0.86925 0.62188 0.69849 0.0
C563 C 0.86341 0.60657 0.70687 0.0
C564 C 0.87252 0.58701 0.70327 0.0
C565 C 0.89843 0.577 0.68501 0.0
H566 H 0.91471 0.58452 0.68438 0.0
H567 H 0.89222 0.57515 0.67524 0.0
H568 H 0.89981 0.56082 0.68948 0.0
O569 O 0.91471 0.65086 0.68476 0.0
O570 O 0.89509 0.66642 0.6997 0.0
H571 H 0.86026 0.61763 0.72588 0.0
H572 H 0.84276 0.5953 0.72196 0.0
C573 C 0.84993 0.6106 0.71836 0.0
H574 H 0.83673 0.62215 0.71614 0.0
H575 H 0.8779 0.6561 0.72624 0.0
O576 O 0.91018 0.61379 0.66469 0.0
C577 C 0.91279 0.66442 0.69371 0.0
Co578 Co 0.61793 0.6477 0.92668 0.0
Co579 Co 0.59629 0.62125 0.94852 0.0
C580 C 0.58655 0.6118 0.92139 0.0
O581 O 0.59977 0.62626 0.91758 0.0
O582 O 0.58366 0.60823 0.93311 0.0
C583 C 0.62481 0.67201 0.90501 0.0
O584 O 0.60431 0.66679 0.9037 0.0
C585 C 0.5788 0.58572 0.96369 0.0
C586 C 0.57491 0.60147 0.98228 0.0
C587 C 0.57101 0.58236 0.97583 0.0
N588 N 0.58666 0.60594 0.963 0.0
N589 N 0.58442 0.61523 0.97415 0.0
C590 C 0.57938 0.56997 0.95297 0.0
H591 H 0.59383 0.57302 0.947 0.0
H592 H 0.57971 0.55304 0.9565 0.0
H593 H 0.56474 0.57224 0.94705 0.0
C594 C 0.65741 0.63438 0.94055 0.0
N595 N 0.63587 0.63389 0.93869 0.0
N596 N 0.6268 0.62239 0.94771 0.0
C597 C 0.64225 0.61508 0.95558 0.0
C598 C 0.6622 0.62246 0.95131 0.0
C599 C 0.67288 0.64675 0.93242 0.0
H600 H 0.66997 0.66435 0.93366 0.0
H601 H 0.66987 0.64276 0.92236 0.0
H602 H 0.68996 0.64296 0.93481 0.0
O603 O 0.59849 0.66915 0.93478 0.0
O604 O 0.58407 0.65036 0.95048 0.0
H605 H 0.62837 0.61476 0.97402 0.0
H606 H 0.65239 0.59855 0.97277 0.0
C607 C 0.63753 0.60369 0.96776 0.0
H608 H 0.6273 0.58928 0.96588 0.0
H609 H 0.58884 0.6312 0.97611 0.0
O610 O 0.63518 0.6646 0.91442 0.0
C611 C 0.58596 0.66787 0.94428 0.0
Co612 Co 0.59377 0.36454 0.1809 0.0
Co613 Co 0.62361 0.34133 0.2006 0.0
C614 C 0.6303 0.33581 0.17277 0.0
O615 O 0.61447 0.34827 0.17014 0.0
O616 O 0.6357 0.33191 0.18416 0.0
C617 C 0.57786 0.38752 0.15892 0.0
O618 O 0.59606 0.38153 0.15354 0.0
C619 C 0.66174 0.32433 0.21373 0.0
C620 C 0.64819 0.31693 0.23255 0.0
C621 C 0.66685 0.31532 0.22536 0.0
N622 N 0.64097 0.3307 0.21401 0.0
N623 N 0.63299 0.32635 0.2253 0.0
C624 C 0.67633 0.32747 0.20262 0.0
H625 H 0.67144 0.34212 0.19726 0.0
H626 H 0.69345 0.32904 0.20567 0.0
H627 H 0.67488 0.31324 0.1963 0.0
C628 C 0.60748 0.40273 0.19577 0.0
N629 N 0.60834 0.38146 0.19309 0.0
N630 N 0.621 0.37176 0.20132 0.0
C631 C 0.62872 0.38656 0.20949 0.0
C632 C 0.62037 0.40669 0.20625 0.0
C633 C 0.59417 0.41874 0.18855 0.0
H634 H 0.57675 0.41508 0.18996 0.0
H635 H 0.59772 0.41715 0.17833 0.0
H636 H 0.59753 0.43562 0.19157 0.0
O637 O 0.57416 0.34337 0.18899 0.0
O638 O 0.5953 0.32723 0.203 0.0
H639 H 0.63218 0.3702 0.22713 0.0
H640 H 0.64655 0.39547 0.22643 0.0
C641 C 0.64182 0.38098 0.22093 0.0
H642 H 0.65659 0.37209 0.21801 0.0
H643 H 0.617 0.32936 0.22796 0.0
O644 O 0.57449 0.38265 0.1704 0.0
C645 C 0.57701 0.32944 0.19768 0.0
Co646 Co 0.8811 0.34504 0.43076 0.0
Co647 Co 0.90318 0.37555 0.45059 0.0
C648 C 0.90654 0.38487 0.42314 0.0
O649 O 0.89551 0.368 0.42048 0.0
O650 O 0.91036 0.39018 0.43455 0.0
C651 C 0.85729 0.33058 0.40863 0.0
O652 O 0.86151 0.34977 0.40386 0.0
C653 C 0.92531 0.40941 0.46527 0.0
C654 C 0.92156 0.39674 0.48468 0.0
C655 C 0.93063 0.41347 0.47778 0.0
N656 N 0.91324 0.39132 0.46486 0.0
N657 N 0.91116 0.38379 0.47648 0.0
C658 C 0.93407 0.42039 0.45375 0.0
H659 H 0.94084 0.40802 0.44728 0.0
H660 H 0.92066 0.42879 0.44878 0.0
H661 H 0.94704 0.43215 0.45601 0.0
C662 C 0.84321 0.35364 0.44709 0.0
N663 N 0.86401 0.35689 0.4438 0.0
N664 N 0.87296 0.37057 0.45176 0.0
C665 C 0.85787 0.37712 0.4601 0.0
C666 C 0.83864 0.36635 0.45756 0.0
C667 C 0.82886 0.33716 0.44097 0.0
H668 H 0.83817 0.32212 0.43916 0.0
H669 H 0.82319 0.34355 0.43176 0.0
H670 H 0.81464 0.3332 0.44693 0.0
O671 O 0.90364 0.32607 0.43784 0.0
O672 O 0.91972 0.34817 0.45135 0.0
H673 H 0.86722 0.38657 0.47873 0.0
H674 H 0.84591 0.40269 0.47206 0.0
C675 C 0.86133 0.39421 0.46991 0.0
H676 H 0.87343 0.40621 0.46662 0.0
H677 H 0.90321 0.3694 0.47875 0.0
O678 O 0.86359 0.3261 0.41973 0.0
C679 C 0.9183 0.32985 0.44596 0.0
Co680 Co 0.90447 0.367 0.81478 0.0
Co681 Co 0.87578 0.34162 0.79544 0.0
C682 C 0.86882 0.3368 0.82312 0.0
O683 O 0.88422 0.34993 0.82558 0.0
O684 O 0.86351 0.33245 0.81179 0.0
C685 C 0.91695 0.39256 0.83652 0.0
O686 O 0.89808 0.38691 0.8412 0.0
C687 C 0.83947 0.3217 0.78196 0.0
C688 C 0.85416 0.31536 0.7633 0.0
C689 C 0.83545 0.31234 0.77029 0.0
N690 N 0.85972 0.32957 0.78191 0.0
N691 N 0.86838 0.32585 0.77072 0.0
C692 C 0.82423 0.32396 0.79285 0.0
H693 H 0.82789 0.33896 0.7982 0.0
H694 H 0.80718 0.32437 0.78955 0.0
H695 H 0.82634 0.30993 0.79927 0.0
C696 C 0.89112 0.40352 0.79839 0.0
N697 N 0.88979 0.38268 0.80205 0.0
N698 N 0.8774 0.37205 0.79408 0.0
C699 C 0.87019 0.38583 0.78519 0.0
C700 C 0.8788 0.40617 0.78753 0.0
C701 C 0.90607 0.41966 0.80432 0.0
H702 H 0.92258 0.41265 0.80495 0.0
H703 H 0.90052 0.42306 0.81408 0.0
H704 H 0.90675 0.43502 0.79891 0.0
O705 O 0.92546 0.34665 0.80715 0.0
O706 O 0.90467 0.32852 0.79381 0.0
H707 H 0.86576 0.37058 0.76728 0.0
H708 H 0.84868 0.39391 0.76978 0.0
C709 C 0.85598 0.37949 0.77436 0.0
H710 H 0.84286 0.3687 0.77774 0.0
H711 H 0.88417 0.33009 0.76823 0.0
O712 O 0.92206 0.38647 0.82546 0.0
C713 C 0.92298 0.33189 0.79891 0.0
Co714 Co 0.876 0.65269 0.0661 0.0
Co715 Co 0.89876 0.62014 0.04779 0.0
C716 C 0.90366 0.61598 0.07564 0.0
O717 O 0.89185 0.63261 0.07755 0.0
O718 O 0.9073 0.60899 0.06454 0.0
C719 C 0.85144 0.66935 0.08725 0.0
O720 O 0.85542 0.65054 0.09258 0.0
C721 C 0.91616 0.5812 0.03563 0.0
C722 C 0.92256 0.59337 0.01636 0.0
C723 C 0.92481 0.57535 0.02403 0.0
N724 N 0.90932 0.60179 0.03484 0.0
N725 N 0.91311 0.60894 0.0233 0.0
C726 C 0.91387 0.56749 0.04719 0.0
H727 H 0.89904 0.57214 0.05244 0.0
H728 H 0.9131 0.55005 0.04469 0.0
H729 H 0.92804 0.57024 0.05341 0.0
C730 C 0.83793 0.6392 0.05103 0.0
N731 N 0.85897 0.63757 0.05419 0.0
N732 N 0.86847 0.62367 0.0466 0.0
C733 C 0.85376 0.6158 0.03843 0.0
C734 C 0.83391 0.62545 0.04093 0.0
C735 C 0.82229 0.65423 0.0573 0.0
H736 H 0.82755 0.67121 0.05572 0.0
H737 H 0.82242 0.65123 0.06762 0.0
H738 H 0.80558 0.65203 0.05368 0.0
O739 O 0.8977 0.67121 0.05762 0.0
O740 O 0.91408 0.64771 0.04507 0.0
H741 H 0.86956 0.61049 0.02079 0.0
H742 H 0.8448 0.59555 0.02244 0.0
C743 C 0.85932 0.60137 0.02754 0.0
H744 H 0.86868 0.58723 0.03099 0.0
H745 H 0.90969 0.62465 0.02024 0.0
O746 O 0.8581 0.67288 0.0761 0.0
C747 C 0.91219 0.66673 0.0495 0.0
Co748 Co 0.59487 0.62798 0.31621 0.0
Co749 Co 0.62136 0.65138 0.29508 0.0
C750 C 0.6293 0.66043 0.32248 0.0
O751 O 0.61486 0.64693 0.32596 0.0
O752 O 0.63347 0.66349 0.31084 0.0
C753 C 0.58287 0.60558 0.33925 0.0
O754 O 0.60111 0.61313 0.34387 0.0
C755 C 0.65828 0.66817 0.28102 0.0
C756 C 0.64345 0.67627 0.26263 0.0
C757 C 0.66264 0.67747 0.26937 0.0
N758 N 0.63745 0.66206 0.28119 0.0
N759 N 0.62868 0.66678 0.27016 0.0
C760 C 0.67363 0.66433 0.29171 0.0
H761 H 0.6687 0.6497 0.29709 0.0
H762 H 0.69043 0.66234 0.28819 0.0
H763 H 0.67313 0.67839 0.2982 0.0
C764 C 0.61022 0.58954 0.3021 0.0
N765 N 0.60998 0.611 0.30427 0.0
N766 N 0.62116 0.62084 0.29539 0.0
C767 C 0.62891 0.60599 0.28728 0.0
C768 C 0.62224 0.58562 0.29127 0.0
C769 C 0.59834 0.57332 0.30998 0.0
H770 H 0.60253 0.57575 0.32006 0.0
H771 H 0.60241 0.55647 0.30722 0.0
H772 H 0.58066 0.57595 0.30894 0.0
O773 O 0.57298 0.64653 0.30777 0.0
O774 O 0.592 0.66295 0.29286 0.0
H775 H 0.64386 0.59713 0.2694 0.0
H776 H 0.65511 0.62059 0.2772 0.0
C777 C 0.63997 0.61161 0.27513 0.0
H778 H 0.62928 0.62234 0.26951 0.0
H779 H 0.61248 0.66402 0.26788 0.0
O780 O 0.57801 0.60948 0.32782 0.0
C781 C 0.57423 0.65977 0.29859 0.0
Co782 Co 0.60912 0.33706 0.56395 0.0
Co783 Co 0.58742 0.37033 0.54554 0.0
C784 C 0.58659 0.37728 0.57334 0.0
O785 O 0.59692 0.35971 0.57532 0.0
O786 O 0.58218 0.38361 0.56219 0.0
C787 C 0.64002 0.32005 0.58241 0.0
O788 O 0.64577 0.3402 0.58455 0.0
C789 C 0.56738 0.4077 0.53284 0.0
C790 C 0.56644 0.39612 0.51309 0.0
C791 C 0.56048 0.41321 0.52079 0.0
N792 N 0.57725 0.38834 0.53223 0.0
N793 N 0.57665 0.38154 0.52041 0.0
C794 C 0.56215 0.41893 0.54499 0.0
H795 H 0.5535 0.40751 0.55131 0.0
H796 H 0.57745 0.42373 0.54971 0.0
H797 H 0.55181 0.43338 0.54361 0.0
C798 C 0.6464 0.3453 0.54681 0.0
N799 N 0.62604 0.34912 0.55078 0.0
N800 N 0.61716 0.36389 0.54346 0.0
C801 C 0.63184 0.37052 0.5349 0.0
C802 C 0.65073 0.35875 0.5366 0.0
C803 C 0.66061 0.32777 0.55197 0.0
H804 H 0.6507 0.3135 0.55461 0.0
H805 H 0.66891 0.33383 0.56055 0.0
H806 H 0.67303 0.32273 0.545 0.0
O807 O 0.58492 0.32026 0.55695 0.0
O808 O 0.56948 0.34389 0.54407 0.0
H809 H 0.62063 0.38201 0.51703 0.0
H810 H 0.64388 0.39622 0.523 0.0
C811 C 0.62829 0.38856 0.52568 0.0
H812 H 0.61752 0.40104 0.52982 0.0
H813 H 0.58257 0.36657 0.51741 0.0
O814 O 0.62567 0.31603 0.57415 0.0
C815 C 0.57018 0.32521 0.5491 0.0
Co816 Co 0.08709 0.36281 0.31659 0.0
Co817 Co 0.12023 0.34222 0.29767 0.0
C818 C 0.12743 0.33983 0.32543 0.0
O819 O 0.10991 0.35012 0.32761 0.0
O820 O 0.1337 0.33603 0.31419 0.0
C821 C 0.07 0.39285 0.33553 0.0
O822 O 0.09009 0.39875 0.3377 0.0
C823 C 0.15737 0.3229 0.2844 0.0
C824 C 0.14508 0.32242 0.26478 0.0
C825 C 0.16245 0.31632 0.27223 0.0
N826 N 0.13797 0.33274 0.28408 0.0
N827 N 0.13075 0.33241 0.27234 0.0
C828 C 0.16892 0.31726 0.29638 0.0
H829 H 0.15783 0.30789 0.30255 0.0
H830 H 0.17331 0.33238 0.30142 0.0
H831 H 0.18364 0.30743 0.29473 0.0
C832 C 0.09462 0.40088 0.29995 0.0
N833 N 0.09887 0.38044 0.30367 0.0
N834 N 0.11349 0.37199 0.29608 0.0
C835 C 0.11946 0.38699 0.28755 0.0
C836 C 0.10751 0.40563 0.2896 0.0
C837 C 0.07713 0.41473 0.30545 0.0
H838 H 0.06278 0.40467 0.30773 0.0
H839 H 0.08312 0.42217 0.31431 0.0
H840 H 0.07229 0.42784 0.29886 0.0
O841 O 0.0704 0.33872 0.30931 0.0
O842 O 0.09397 0.32419 0.29606 0.0
H843 H 0.1294 0.37635 0.26926 0.0
H844 H 0.14381 0.39965 0.27495 0.0
C845 C 0.13665 0.38387 0.27776 0.0
H846 H 0.14964 0.3732 0.28143 0.0
H847 H 0.11563 0.33828 0.26958 0.0
O848 O 0.06607 0.37875 0.32712 0.0
C849 C 0.0754 0.32441 0.3012 0.0
Co850 Co 0.38013 0.34191 0.06625 0.0
Co851 Co 0.40313 0.37471 0.04813 0.0
C852 C 0.40533 0.38057 0.07587 0.0
O853 O 0.3939 0.36362 0.07766 0.0
O854 O 0.40989 0.38712 0.06479 0.0
C855 C 0.34953 0.32641 0.08524 0.0
O856 O 0.34553 0.34686 0.08775 0.0
C857 C 0.42214 0.4124 0.03519 0.0
C858 C 0.42625 0.39927 0.01593 0.0
C859 C 0.43031 0.41731 0.02332 0.0
N860 N 0.41389 0.39228 0.03483 0.0
N861 N 0.4163 0.38459 0.02329 0.0
C862 C 0.42155 0.42662 0.0466 0.0
H863 H 0.43573 0.4229 0.05265 0.0
H864 H 0.40663 0.42343 0.05213 0.0
H865 H 0.42209 0.44398 0.04391 0.0
C866 C 0.34325 0.35198 0.04922 0.0
N867 N 0.36361 0.35518 0.05337 0.0
N868 N 0.37312 0.36971 0.04618 0.0
C869 C 0.35892 0.37674 0.03747 0.0
C870 C 0.33963 0.36553 0.03896 0.0
C871 C 0.32853 0.33469 0.05417 0.0
H872 H 0.33804 0.32005 0.05662 0.0
H873 H 0.32051 0.34064 0.06287 0.0
H874 H 0.31592 0.33028 0.04717 0.0
O875 O 0.4032 0.32396 0.05883 0.0
O876 O 0.41979 0.34761 0.04645 0.0
H877 H 0.37225 0.38702 0.01984 0.0
H878 H 0.34841 0.40173 0.02456 0.0
C879 C 0.3636 0.39415 0.02801 0.0
H880 H 0.37397 0.40681 0.0323 0.0
H881 H 0.41158 0.36907 0.02051 0.0
O882 O 0.36278 0.32163 0.07651 0.0
C883 C 0.41821 0.32871 0.05111 0.0
Co884 Co 0.3981 0.62838 0.81707 0.0
Co885 Co 0.37281 0.65251 0.79568 0.0
C886 C 0.36331 0.66063 0.823 0.0
O887 O 0.37751 0.64699 0.82665 0.0
O888 O 0.35986 0.66406 0.81132 0.0
C889 C 0.4104 0.60699 0.84035 0.0
O890 O 0.39309 0.61619 0.84516 0.0
C891 C 0.33689 0.67026 0.78112 0.0
C892 C 0.35289 0.6788 0.76313 0.0
C893 C 0.33337 0.68015 0.76953 0.0
N894 N 0.35758 0.66372 0.78159 0.0
N895 N 0.36703 0.66869 0.77078 0.0
C896 C 0.32089 0.66634 0.79147 0.0
H897 H 0.32524 0.65143 0.79675 0.0
H898 H 0.30426 0.66481 0.7876 0.0
H899 H 0.32129 0.68015 0.79814 0.0
C900 C 0.38337 0.59043 0.80226 0.0
N901 N 0.3837 0.61184 0.80462 0.0
N902 N 0.37299 0.622 0.79567 0.0
C903 C 0.36543 0.60743 0.78733 0.0
C904 C 0.37174 0.58691 0.79124 0.0
C905 C 0.39473 0.57389 0.81018 0.0
H906 H 0.41248 0.57621 0.80931 0.0
H907 H 0.39032 0.57627 0.82023 0.0
H908 H 0.39043 0.55717 0.80728 0.0
O909 O 0.42036 0.64735 0.80933 0.0
O910 O 0.40224 0.6642 0.79421 0.0
H911 H 0.36571 0.62424 0.76971 0.0
H912 H 0.35096 0.59914 0.76922 0.0
C913 C 0.35478 0.61344 0.77512 0.0
H914 H 0.33965 0.62249 0.77711 0.0
H915 H 0.38331 0.66573 0.76878 0.0
O916 O 0.41456 0.60947 0.8287 0.0
C917 C 0.41964 0.66091 0.8003 0.0
Co918 Co 0.12156 0.65326 0.56653 0.0
Co919 Co 0.10089 0.61997 0.54781 0.0
C920 C 0.09283 0.61662 0.57535 0.0
O921 O 0.10431 0.63342 0.57746 0.0
O922 O 0.09048 0.60915 0.56423 0.0
C923 C 0.14853 0.66942 0.5871 0.0
O924 O 0.15077 0.64916 0.59068 0.0
C925 C 0.08017 0.58347 0.53461 0.0
C926 C 0.08433 0.59358 0.51471 0.0
C927 C 0.07531 0.57767 0.52226 0.0
N928 N 0.09187 0.60181 0.5343 0.0
N929 N 0.09426 0.60776 0.5224 0.0
C930 C 0.07134 0.57383 0.54651 0.0
H931 H 0.06249 0.58651 0.55183 0.0
H932 H 0.08497 0.56818 0.55249 0.0
H933 H 0.06006 0.56024 0.54472 0.0
C934 C 0.16112 0.64008 0.55278 0.0
N935 N 0.13994 0.63795 0.55546 0.0
N936 N 0.13147 0.62312 0.54803 0.0
C937 C 0.14727 0.61467 0.54078 0.0
C938 C 0.16649 0.62532 0.54344 0.0
C939 C 0.17553 0.65692 0.55849 0.0
H940 H 0.17829 0.6529 0.56856 0.0
H941 H 0.19144 0.65774 0.55366 0.0
H942 H 0.16745 0.67296 0.55806 0.0
O943 O 0.1015 0.6716 0.55694 0.0
O944 O 0.08612 0.64776 0.54419 0.0
H945 H 0.13881 0.60653 0.52183 0.0
H946 H 0.15878 0.58901 0.52865 0.0
C947 C 0.14374 0.59818 0.53064 0.0
H948 H 0.13093 0.58661 0.53349 0.0
H949 H 0.10203 0.62195 0.51955 0.0
O950 O 0.13768 0.67375 0.57725 0.0
C951 C 0.08794 0.66698 0.54834 0.0
Co952 Co 0.09945 0.6308 0.17933 0.0
Co953 Co 0.12435 0.65299 0.20162 0.0
C954 C 0.138 0.6592 0.17473 0.0
O955 O 0.12334 0.64641 0.17073 0.0
O956 O 0.1402 0.66321 0.18646 0.0
C957 C 0.07636 0.62445 0.15746 0.0
O958 O 0.08206 0.64489 0.1565 0.0
C959 C 0.15766 0.67145 0.21821 0.0
C960 C 0.13986 0.67351 0.2363 0.0
C961 C 0.15945 0.67838 0.23064 0.0
N962 N 0.13794 0.66268 0.21669 0.0
N963 N 0.12744 0.66384 0.22753 0.0
C964 C 0.17285 0.67569 0.20748 0.0
H965 H 0.16533 0.68767 0.20104 0.0
H966 H 0.17539 0.6605 0.20208 0.0
H967 H 0.18865 0.68222 0.2106 0.0
C968 C 0.10684 0.59228 0.19533 0.0
N969 N 0.10991 0.61335 0.19259 0.0
N970 N 0.12096 0.62253 0.20176 0.0
C971 C 0.12554 0.60749 0.21056 0.0
C972 C 0.11657 0.58793 0.20686 0.0
C973 C 0.09283 0.57748 0.1877 0.0
H974 H 0.07659 0.5849 0.18653 0.0
H975 H 0.09995 0.57557 0.17816 0.0
H976 H 0.09109 0.56133 0.19218 0.0
O977 O 0.07851 0.65247 0.18568 0.0
O978 O 0.096 0.66737 0.20172 0.0
H979 H 0.12668 0.61951 0.22944 0.0
H980 H 0.14397 0.59652 0.22667 0.0
C981 C 0.1377 0.61179 0.22252 0.0
H982 H 0.15145 0.62286 0.22065 0.0
H983 H 0.1115 0.65868 0.22883 0.0
O984 O 0.08315 0.61358 0.16683 0.0
C985 C 0.07934 0.66593 0.19475 0.0
Co986 Co 0.11709 0.34954 0.92741 0.0
Co987 Co 0.09399 0.37633 0.94855 0.0
C988 C 0.0871 0.38679 0.92145 0.0
O989 O 0.10013 0.37184 0.91811 0.0
O990 O 0.08321 0.39051 0.93305 0.0
C991 C 0.12537 0.32662 0.90549 0.0
O992 O 0.105 0.33208 0.90385 0.0
C993 C 0.07452 0.41027 0.96422 0.0
C994 C 0.07187 0.39345 0.98259 0.0
C995 C 0.06676 0.41259 0.97645 0.0
N996 N 0.08351 0.39057 0.96318 0.0
N997 N 0.082 0.38065 0.97419 0.0
C998 C 0.07414 0.42658 0.95378 0.0
H999 H 0.08879 0.4248 0.94781 0.0
H1000 H 0.07338 0.44331 0.95758 0.0
H1001 H 0.05972 0.42367 0.94778 0.0
C1002 C 0.15504 0.35958 0.94348 0.0
N1003 N 0.13407 0.36203 0.94033 0.0
N1004 N 0.12447 0.37424 0.94882 0.0
C1005 C 0.13911 0.38043 0.95748 0.0
C1006 C 0.15891 0.37112 0.95452 0.0
C1007 C 0.1701 0.34434 0.93688 0.0
H1008 H 0.1616 0.32888 0.93489 0.0
H1009 H 0.17493 0.35153 0.9277 0.0
H1010 H 0.18481 0.34096 0.94254 0.0
O1011 O 0.09669 0.3281 0.93452 0.0
O1012 O 0.08094 0.34733 0.94957 0.0
H1013 H 0.12649 0.38486 0.97608 0.0
H1014 H 0.14911 0.40218 0.97235 0.0
C1015 C 0.13416 0.39468 0.96853 0.0
H1016 H 0.12275 0.40764 0.96568 0.0
H1017 H 0.08742 0.3649 0.97589 0.0
O1018 O 0.13517 0.33331 0.91527 0.0
C1019 C 0.08316 0.32973 0.94351 0.0
Co1020 Co 0.39706 0.3719 0.67657 0.0
Co1021 Co 0.3702 0.3483 0.69757 0.0
C1022 C 0.36096 0.34068 0.67037 0.0
O1023 O 0.376 0.35365 0.66707 0.0
O1024 O 0.35664 0.33728 0.68196 0.0
C1025 C 0.42042 0.38027 0.65483 0.0
O1026 O 0.41476 0.35997 0.65311 0.0
C1027 C 0.33559 0.32877 0.7127 0.0
C1028 C 0.35179 0.32501 0.73117 0.0
C1029 C 0.33278 0.3205 0.72477 0.0
N1030 N 0.35545 0.33749 0.71197 0.0
N1031 N 0.36501 0.3353 0.72306 0.0
C1032 C 0.31965 0.32897 0.70208 0.0
H1033 H 0.32247 0.3146 0.69602 0.0
H1034 H 0.32191 0.34372 0.69623 0.0
H1035 H 0.30279 0.32844 0.70569 0.0
C1036 C 0.3835 0.4101 0.69152 0.0
N1037 N 0.38297 0.38876 0.68897 0.0
N1038 N 0.37126 0.37889 0.69761 0.0
C1039 C 0.36366 0.39365 0.70582 0.0
C1040 C 0.37123 0.41393 0.70226 0.0
C1041 C 0.3964 0.42621 0.68413 0.0
H1042 H 0.39246 0.4246 0.67395 0.0
H1043 H 0.39307 0.44304 0.68724 0.0
H1044 H 0.4139 0.42263 0.68529 0.0
O1045 O 0.41886 0.35273 0.68439 0.0
O1046 O 0.39942 0.33572 0.69887 0.0
H1047 H 0.36273 0.37935 0.72416 0.0
H1048 H 0.3453 0.40248 0.72257 0.0
C1049 C 0.35164 0.38799 0.71765 0.0
H1050 H 0.33798 0.37704 0.71534 0.0
H1051 H 0.3808 0.34035 0.72498 0.0
O1052 O 0.41364 0.39008 0.6646 0.0
C1053 C 0.41726 0.33882 0.69319 0.0
Co1054 Co 0.37785 0.64531 0.42706 0.0
Co1055 Co 0.39913 0.621 0.44987 0.0
C1056 C 0.41088 0.61042 0.42316 0.0
O1057 O 0.39722 0.62398 0.41881 0.0
O1058 O 0.41343 0.60779 0.435 0.0
C1059 C 0.37251 0.66888 0.40526 0.0
O1060 O 0.39338 0.66472 0.40514 0.0
C1061 C 0.41726 0.58739 0.46639 0.0
C1062 C 0.41758 0.60435 0.48478 0.0
C1063 C 0.42339 0.58517 0.47894 0.0
N1064 N 0.40808 0.60695 0.46496 0.0
N1065 N 0.4082 0.61694 0.47599 0.0
C1066 C 0.4225 0.57276 0.45554 0.0
H1067 H 0.43571 0.5802 0.44993 0.0
H1068 H 0.40813 0.57123 0.44932 0.0
H1069 H 0.42791 0.55652 0.4586 0.0
C1070 C 0.33808 0.63167 0.44042 0.0
N1071 N 0.3597 0.63154 0.4389 0.0
N1072 N 0.3686 0.62066 0.44823 0.0
C1073 C 0.35291 0.61322 0.4559 0.0
C1074 C 0.33303 0.62004 0.45123 0.0
C1075 C 0.32281 0.64388 0.43208 0.0
H1076 H 0.32598 0.6615 0.43304 0.0
H1077 H 0.3258 0.63939 0.42209 0.0
H1078 H 0.30568 0.64044 0.43451 0.0
O1079 O 0.39576 0.66793 0.4352 0.0
O1080 O 0.40979 0.65082 0.45164 0.0
H1081 H 0.36426 0.61438 0.47491 0.0
H1082 H 0.34225 0.59579 0.47264 0.0
C1083 C 0.35717 0.60241 0.46831 0.0
H1084 H 0.36895 0.58905 0.46699 0.0
H1085 H 0.4025 0.63266 0.47741 0.0
O1086 O 0.36103 0.66091 0.41405 0.0
C1087 C 0.40753 0.66784 0.44505 0.0
H1088 H 0.29012 0.17371 0.22668 0.0
H1089 H 0.26159 0.19773 0.23464 0.0
H1090 H 0.31001 0.23845 0.2519 0.0
H1091 H 0.33857 0.21493 0.24358 0.0
H1092 H 0.25184 0.21 0.2594 0.0
H1093 H 0.27528 0.28101 0.23017 0.0
H1094 H 0.2853 0.25405 0.22712 0.0
H1095 H 0.29675 0.27 0.23964 0.0
C1096 C 0.29462 0.188 0.23199 0.0
C1097 C 0.31646 0.19295 0.23419 0.0
C1098 C 0.27837 0.20154 0.23663 0.0
C1099 C 0.28378 0.2201 0.24358 0.0
C1100 C 0.30557 0.2245 0.24627 0.0
H1101 H 0.20542 0.32181 0.27743 0.0
H1102 H 0.23542 0.2982 0.27093 0.0
C1103 C 0.32181 0.211 0.24161 0.0
C1104 C 0.2666 0.23485 0.24802 0.0
H1105 H 0.24771 0.2866 0.24535 0.0
C1106 C 0.25089 0.22674 0.25633 0.0
C1107 C 0.26551 0.25667 0.24398 0.0
C1108 C 0.28148 0.26596 0.23465 0.0
C1109 C 0.23411 0.23995 0.26078 0.0
C1110 C 0.23296 0.2617 0.25668 0.0
C1111 C 0.24877 0.2699 0.24848 0.0
C1112 C 0.21504 0.27602 0.2605 0.0
C1113 C 0.21786 0.23065 0.26993 0.0
C1114 C 0.19386 0.27153 0.25652 0.0
C1115 C 0.17682 0.28488 0.26023 0.0
C1116 C 0.18072 0.30282 0.26803 0.0
C1117 C 0.20201 0.3077 0.27169 0.0
C1118 C 0.21909 0.29436 0.26794 0.0
H1119 H 0.22386 0.21552 0.27441 0.0
H1120 H 0.21391 0.24253 0.27745 0.0
H1121 H 0.20269 0.22678 0.26479 0.0
H1122 H 0.19054 0.25767 0.25056 0.0
H1123 H 0.16054 0.28095 0.2572 0.0
H1124 H 0.92188 0.95166 0.5175 0.0
H1125 H 0.94549 0.98166 0.51102 0.0
H1126 H 0.99284 0.93576 0.49756 0.0
H1127 H 0.96927 0.90583 0.50399 0.0
H1128 H 0.98735 0.98981 0.51965 0.0
H1129 H 0.98641 0.97709 0.46779 0.0
H1130 H 0.96699 0.96454 0.47822 0.0
H1131 H 0.99377 0.95342 0.47665 0.0
C1132 C 0.93736 0.94808 0.51318 0.0
C1133 C 0.944 0.92658 0.51139 0.0
C1134 C 0.95074 0.96514 0.50944 0.0
C1135 C 0.9708 0.96088 0.50373 0.0
C1136 C 0.97725 0.93937 0.50174 0.0
H1137 H 0.07826 0.04108 0.47912 0.0
H1138 H 0.0552 0.0108 0.48583 0.0
C1139 C 0.96385 0.92233 0.50544 0.0
C1140 C 0.98542 0.9789 0.50037 0.0
H1141 H 0.01231 0.00212 0.47571 0.0
C1142 C 0.99273 0.9926 0.51004 0.0
C1143 C 0.99243 0.98237 0.48783 0.0
C1144 C 0.98436 0.96871 0.477 0.0
C1145 C 0.00714 0.00959 0.50751 0.0
C1146 C 0.01418 0.013 0.49498 0.0
C1147 C 0.00693 -0.00071 0.48532 0.0
C1148 C 0.0285 0.0312 0.49159 0.0
C1149 C 0.01499 0.02356 0.51825 0.0
C1150 C 0.02105 0.05256 0.49269 0.0
C1151 C 0.03401 0.06974 0.48872 0.0
C1152 C 0.05449 0.06577 0.48346 0.0
C1153 C 0.06221 0.04444 0.48273 0.0
C1154 C 0.04919 0.02722 0.48667 0.0
H1155 H 0.01219 0.01576 0.52756 0.0
H1156 H 0.03252 0.02715 0.51726 0.0
H1157 H 0.00609 0.03918 0.51812 0.0
H1158 H 0.005 0.05589 0.49634 0.0
H1159 H 0.02777 0.0861 0.4894 0.0
H1160 H 0.30686 0.70624 0.78357 0.0
H1161 H 0.27745 0.72909 0.77598 0.0
H1162 H 0.28907 0.70714 0.73795 0.0
H1163 H 0.31814 0.68351 0.74558 0.0
H1164 H 0.2824 0.76246 0.75834 0.0
H1165 H 0.22313 0.70089 0.74192 0.0
H1166 H 0.24518 0.69439 0.75245 0.0
H1167 H 0.25007 0.69759 0.73584 0.0
C1168 C 0.30265 0.70557 0.77368 0.0
C1169 C 0.31436 0.69255 0.76521 0.0
C1170 C 0.28604 0.71892 0.76933 0.0
C1171 C 0.28092 0.71953 0.75645 0.0
C1172 C 0.2925 0.70652 0.74796 0.0
H1173 H 0.18993 0.79321 0.71198 0.0
H1174 H 0.22028 0.77125 0.71919 0.0
C1175 C 0.30913 0.69314 0.75232 0.0
C1176 C 0.26433 0.73479 0.75184 0.0
H1177 H 0.21568 0.73749 0.73673 0.0
C1178 C 0.26775 0.75704 0.75365 0.0
C1179 C 0.24534 0.72758 0.74571 0.0
C1180 C 0.24054 0.70381 0.74394 0.0
C1181 C 0.25274 0.77237 0.74935 0.0
C1182 C 0.23375 0.76516 0.74324 0.0
C1183 C 0.23035 0.74291 0.74139 0.0
C1184 C 0.21697 0.78035 0.7388 0.0
C1185 C 0.25746 0.79614 0.75117 0.0
C1186 C 0.20523 0.79289 0.74745 0.0
C1187 C 0.18803 0.80575 0.74332 0.0
C1188 C 0.18239 0.80628 0.73049 0.0
C1189 C 0.19439 0.79391 0.72183 0.0
C1190 C 0.21156 0.78108 0.72596 0.0
H1191 H 0.27487 0.7991 0.75317 0.0
H1192 H 0.25273 0.8056 0.74269 0.0
H1193 H 0.24794 0.80226 0.7593 0.0
H1194 H 0.2089 0.79217 0.75744 0.0
H1195 H 0.17882 0.81488 0.7502 0.0
H1196 H 0.43138 0.92889 0.00021 0.0
H1197 H 0.45331 0.95978 0.00711 0.0
H1198 H 0.47697 0.96808 0.96912 0.0
H1199 H 0.45537 0.93725 0.96222 0.0
H1200 H 0.49836 0.96165 0.00511 0.0
H1201 H 0.45979 0.02981 0.9793 0.0
H1202 H 0.4465 0.00405 0.98161 0.0
H1203 H 0.4668 0.00705 0.96958 0.0
C1204 C 0.44097 0.93759 0.99331 0.0
C1205 C 0.44122 0.93105 0.98062 0.0
C1206 C 0.45345 0.95517 0.99725 0.0
C1207 C 0.46641 0.9664 0.98856 0.0
C1208 C 0.46657 0.96001 0.97588 0.0
H1209 H 0.56313 0.0679 0.99534 0.0
H1210 H 0.5398 0.03848 0.98773 0.0
C1211 C 0.45408 0.94246 0.97193 0.0
C1212 C 0.4811 0.98366 0.99295 0.0
H1213 H 0.49358 0.03709 0.98917 0.0
C1214 C 0.49726 0.97819 0.00169 0.0
C1215 C 0.47966 0.00511 0.98837 0.0
C1216 C 0.46215 0.01197 0.97927 0.0
C1217 C 0.51223 0.99361 0.0059 0.0
C1218 C 0.51074 0.01507 0.00136 0.0
C1219 C 0.49466 0.02055 0.99257 0.0
C1220 C 0.52529 0.03227 0.00596 0.0
C1221 C 0.52971 0.98676 0.01502 0.0
C1222 C 0.52457 0.03854 0.01866 0.0
C1223 C 0.5378 0.05523 0.02299 0.0
C1224 C 0.55203 0.06585 0.01471 0.0
C1225 C 0.55252 0.05973 0.00195 0.0
C1226 C 0.53924 0.04301 0.9976 0.0
H1227 H 0.532 0.96891 0.01506 0.0
H1228 H 0.54538 0.99459 0.01266 0.0
H1229 H 0.52509 0.99181 0.0247 0.0
H1230 H 0.51343 0.03083 0.02515 0.0
H1231 H 0.53626 0.06025 0.03273 0.0
H1232 H 0.20292 0.67049 0.23024 0.0
H1233 H 0.23173 0.69434 0.23806 0.0
H1234 H 0.18366 0.73883 0.2522 0.0
H1235 H 0.15486 0.71524 0.2442 0.0
H1236 H 0.23561 0.73934 0.22996 0.0
H1237 H 0.22708 0.73034 0.28198 0.0
H1238 H 0.21672 0.71053 0.27097 0.0
H1239 H 0.20253 0.73556 0.27336 0.0
C1240 C 0.19859 0.68541 0.23498 0.0
C1241 C 0.17681 0.6914 0.23636 0.0
C1242 C 0.21497 0.69887 0.23952 0.0
C1243 C 0.20973 0.71825 0.2457 0.0
C1244 C 0.18796 0.7238 0.24756 0.0
H1245 H 0.28723 0.82481 0.27465 0.0
H1246 H 0.25728 0.80093 0.26841 0.0
C1247 C 0.17159 0.71038 0.24298 0.0
C1248 C 0.22701 0.73345 0.24935 0.0
H1249 H 0.25124 0.75736 0.27468 0.0
C1250 C 0.23913 0.74324 0.23973 0.0
C1251 C 0.23125 0.7386 0.26209 0.0
C1252 C 0.21885 0.72813 0.27274 0.0
C1253 C 0.25542 0.75826 0.24252 0.0
C1254 C 0.25995 0.76317 0.25528 0.0
C1255 C 0.24768 0.75352 0.2649 0.0
C1256 C 0.27784 0.77778 0.25884 0.0
C1257 C 0.26737 0.769 0.23177 0.0
C1258 C 0.2992 0.77254 0.25556 0.0
C1259 C 0.31619 0.78608 0.2591 0.0
C1260 C 0.31211 0.80482 0.26619 0.0
C1261 C 0.29074 0.81017 0.26941 0.0
C1262 C 0.27369 0.79665 0.26581 0.0
H1263 H 0.25792 0.76834 0.22286 0.0
H1264 H 0.27104 0.78619 0.23397 0.0
H1265 H 0.2829 0.7604 0.23017 0.0
H1266 H 0.30275 0.75784 0.25039 0.0
H1267 H 0.33259 0.78164 0.25655 0.0
H1268 H 0.53488 0.93812 0.4611 0.0
H1269 H 0.51221 0.96822 0.46792 0.0
H1270 H 0.53798 0.96262 0.50562 0.0
H1271 H 0.5614 0.93286 0.49872 0.0
H1272 H 0.48074 0.9653 0.48665 0.0
H1273 H 0.54211 0.02785 0.49838 0.0
H1274 H 0.54823 0.0045 0.48876 0.0
H1275 H 0.54682 0.00199 0.50565 0.0
C1276 C 0.5364 0.9438 0.47071 0.0
C1277 C 0.55043 0.93359 0.4793 0.0
C1278 C 0.52319 0.96082 0.47463 0.0
C1279 C 0.52371 0.96783 0.4872 0.0
C1280 C 0.53773 0.95773 0.4958 0.0
H1281 H 0.45211 0.05736 0.53283 0.0
H1282 H 0.47508 0.02869 0.52448 0.0
C1283 C 0.55098 0.9407 0.49188 0.0
C1284 C 0.5085 0.98471 0.4915 0.0
H1285 H 0.506 0.03465 0.50512 0.0
C1286 C 0.48621 0.98055 0.4906 0.0
C1287 C 0.51579 0.00451 0.49664 0.0
C1288 C 0.53954 0.01013 0.49733 0.0
C1289 C 0.47095 0.99552 0.49502 0.0
C1290 C 0.47825 0.0152 0.50031 0.0
C1291 C 0.50053 0.01946 0.50108 0.0
C1292 C 0.46309 0.03146 0.50537 0.0
C1293 C 0.44719 0.98995 0.49434 0.0
C1294 C 0.4487 0.04241 0.49736 0.0
C1295 C 0.43526 0.05863 0.50216 0.0
C1296 C 0.43599 0.06402 0.51503 0.0
C1297 C 0.45044 0.05297 0.523 0.0
C1298 C 0.46384 0.0368 0.51821 0.0
H1299 H 0.44454 0.97242 0.49255 0.0
H1300 H 0.43882 0.99447 0.50323 0.0
H1301 H 0.43961 -0.00081 0.48652 0.0
H1302 H 0.44823 0.03877 0.48737 0.0
H1303 H 0.4245 0.06716 0.49579 0.0
H1304 H 0.19196 0.20797 0.78564 0.0
H1305 H 0.22049 0.2319 0.7779 0.0
H1306 H 0.21695 0.20154 0.74131 0.0
H1307 H 0.18849 0.17728 0.74905 0.0
H1308 H 0.2616 0.22259 0.76642 0.0
H1309 H 0.20532 0.26651 0.73446 0.0
H1310 H 0.19596 0.24896 0.74696 0.0
H1311 H 0.20579 0.23762 0.73244 0.0
C1312 C 0.1977 0.20587 0.77608 0.0
C1313 C 0.18831 0.19046 0.76801 0.0
C1314 C 0.21383 0.21975 0.77163 0.0
C1315 C 0.22058 0.21859 0.75902 0.0
C1316 C 0.21168 0.20283 0.75104 0.0
H1317 H 0.30996 0.2891 0.71235 0.0
H1318 H 0.28233 0.26517 0.72108 0.0
C1319 C 0.19555 0.18896 0.75547 0.0
C1320 C 0.23646 0.23433 0.75413 0.0
H1321 H 0.24253 0.27541 0.73288 0.0
C1322 C 0.25747 0.23422 0.75913 0.0
C1323 C 0.23086 0.24948 0.74467 0.0
C1324 C 0.20821 0.25087 0.73937 0.0
C1325 C 0.2733 0.24858 0.75466 0.0
C1326 C 0.26774 0.26362 0.74512 0.0
C1327 C 0.24667 0.26383 0.7402 0.0
C1328 C 0.28373 0.27888 0.73984 0.0
C1329 C 0.29596 0.24717 0.75992 0.0
C1330 C 0.29331 0.29477 0.74747 0.0
C1331 C 0.30895 0.30866 0.74246 0.0
C1332 C 0.31496 0.30705 0.72971 0.0
C1333 C 0.3051 0.29131 0.72207 0.0
C1334 C 0.28951 0.27743 0.72708 0.0
H1335 H 0.29876 0.23166 0.765 0.0
H1336 H 0.30818 0.24873 0.75229 0.0
H1337 H 0.29853 0.26062 0.7667 0.0
H1338 H 0.28879 0.29633 0.75731 0.0
H1339 H 0.31642 0.3206 0.74856 0.0
H1340 H 0.06692 0.92654 0.99673 0.0
H1341 H 0.04537 0.95707 0.98892 0.0
H1342 H 0.01941 0.96686 0.02627 0.0
H1343 H 0.0406 0.93638 0.03407 0.0
H1344 H 0.00017 0.95946 0.98989 0.0
H1345 H 0.03783 0.02804 0.01568 0.0
H1346 H 0.05098 0.00209 0.01395 0.0
H1347 H 0.03009 0.00572 0.02558 0.0
C1348 C 0.05688 0.93547 0.0033 0.0
C1349 C 0.0559 0.92946 0.01607 0.0
C1350 C 0.04461 0.95285 -0.00116 0.0
C1351 C 0.03115 0.96442 0.00708 0.0
C1352 C 0.03021 0.95852 0.01985 0.0
H1353 H 0.93571 0.06604 -0.00064 0.0
H1354 H 0.9586 0.03619 0.00677 0.0
C1355 C 0.04248 0.94117 0.02431 0.0
C1356 C 0.01687 0.98165 0.00219 0.0
H1357 H 0.00432 0.03515 0.00541 0.0
C1358 C 0.00116 0.97606 0.9932 0.0
C1359 C 0.01819 0.0032 0.0066 0.0
C1360 C 0.0353 0.01023 0.0159 0.0
C1361 C 0.98638 0.99143 0.98866 0.0
C1362 C 0.98762 0.01294 0.99313 0.0
C1363 C 0.00339 0.01856 0.00207 0.0
C1364 C 0.97293 0.03002 0.98849 0.0
C1365 C 0.96927 0.98442 0.97935 0.0
C1366 C 0.97354 0.03638 0.97579 0.0
C1367 C 0.96052 0.05335 0.97155 0.0
C1368 C 0.94664 0.06418 0.97995 0.0
C1369 C 0.94608 0.05777 0.99267 0.0
C1370 C 0.95912 0.04079 0.9969 0.0
H1371 H 0.96712 0.96656 0.97929 0.0
H1372 H 0.95345 0.99212 0.98153 0.0
H1373 H 0.97416 0.98953 0.96972 0.0
H1374 H 0.98455 0.02864 0.96924 0.0
H1375 H 0.96204 0.0585 0.96184 0.0
H1376 H 0.65893 0.78128 0.75733 0.0
H1377 H 0.68787 0.75679 0.75059 0.0
H1378 H 0.73493 0.79696 0.76949 0.0
H1379 H 0.70595 0.82148 0.77631 0.0
H1380 H 0.72398 0.76576 0.73607 0.0
H1381 H 0.74753 0.7366 0.78375 0.0
H1382 H 0.72262 0.75105 0.78085 0.0
H1383 H 0.7478 0.76552 0.78195 0.0
C1384 C 0.67547 0.78483 0.76004 0.0
C1385 C 0.68027 0.80291 0.76755 0.0
C1386 C 0.69192 0.77085 0.75622 0.0
C1387 C 0.71342 0.77484 0.75979 0.0
C1388 C 0.71834 0.7933 0.76696 0.0
H1389 H 0.83497 0.71279 0.74205 0.0
H1390 H 0.80616 0.7361 0.75034 0.0
C1391 C 0.70185 0.80725 0.77083 0.0
C1392 C 0.73068 0.75989 0.75572 0.0
H1393 H 0.7698 0.72564 0.76664 0.0
C1394 C 0.73395 0.75691 0.74274 0.0
C1395 C 0.7436 0.74841 0.76449 0.0
C1396 C 0.74014 0.75036 0.77854 0.0
C1397 C 0.75004 0.74292 0.73826 0.0
C1398 C 0.76295 0.73147 0.74702 0.0
C1399 C 0.75977 0.73448 0.76 0.0
C1400 C 0.78011 0.71656 0.74282 0.0
C1401 C 0.75341 0.74079 0.7242 0.0
C1402 C 0.77484 0.6976 0.73621 0.0
C1403 C 0.79122 0.6843 0.73152 0.0
C1404 C 0.81301 0.68991 0.7333 0.0
C1405 C 0.81823 0.70831 0.74045 0.0
C1406 C 0.80186 0.72159 0.74517 0.0
H1407 H 0.74532 0.75402 0.71888 0.0
H1408 H 0.77093 0.74088 0.72186 0.0
H1409 H 0.74653 0.72515 0.72096 0.0
H1410 H 0.75808 0.69326 0.73458 0.0
H1411 H 0.78687 0.66974 0.7264 0.0
H1412 H 0.81226 0.20689 0.28314 0.0
H1413 H 0.78348 0.23009 0.27503 0.0
H1414 H 0.79169 0.20243 0.23797 0.0
H1415 H 0.82006 0.1785 0.24615 0.0
H1416 H 0.78797 0.26071 0.25572 0.0
H1417 H 0.72601 0.19875 0.24376 0.0
H1418 H 0.74868 0.1931 0.25401 0.0
H1419 H 0.75238 0.19388 0.23719 0.0
C1420 C 0.80744 0.20515 0.27338 0.0
C1421 C 0.81792 0.19038 0.26536 0.0
C1422 C 0.79121 0.21866 0.26872 0.0
C1423 C 0.78526 0.2177 0.25597 0.0
C1424 C 0.79575 0.20306 0.24791 0.0
H1425 H 0.69188 0.28822 0.21104 0.0
H1426 H 0.72233 0.26618 0.21812 0.0
C1427 C 0.81199 0.18951 0.25257 0.0
C1428 C 0.76876 0.23274 0.25101 0.0
H1429 H 0.71898 0.23471 0.23715 0.0
C1430 C 0.77285 0.25507 0.25168 0.0
C1431 C 0.74914 0.22524 0.24573 0.0
C1432 C 0.74363 0.20145 0.2452 0.0
C1433 C 0.75783 0.27017 0.2471 0.0
C1434 C 0.73818 0.26267 0.24188 0.0
C1435 C 0.73415 0.24034 0.24113 0.0
C1436 C 0.72126 0.27768 0.23739 0.0
C1437 C 0.76324 0.29398 0.24771 0.0
C1438 C 0.71071 0.29151 0.24589 0.0
C1439 C 0.69346 0.30435 0.24183 0.0
C1440 C 0.68657 0.30359 0.2292 0.0
C1441 C 0.69733 0.28986 0.22069 0.0
C1442 C 0.71455 0.27702 0.22476 0.0
H1443 H 0.78088 0.29673 0.24897 0.0
H1444 H 0.75783 0.30247 0.23902 0.0
H1445 H 0.75472 0.30135 0.25587 0.0
H1446 H 0.71537 0.29188 0.25574 0.0
H1447 H 0.68523 0.31457 0.24861 0.0
H1448 H 0.81808 0.31073 0.74679 0.0
H1449 H 0.78862 0.28735 0.7394 0.0
H1450 H 0.78184 0.26088 0.77687 0.0
H1451 H 0.81134 0.28387 0.78425 0.0
H1452 H 0.78826 0.24144 0.74072 0.0
H1453 H 0.71945 0.27782 0.76705 0.0
H1454 H 0.74481 0.29182 0.76472 0.0
H1455 H 0.74263 0.27099 0.77649 0.0
C1456 C 0.81008 0.30012 0.75347 0.0
C1457 C 0.81657 0.29957 0.76617 0.0
C1458 C 0.79332 0.28681 0.74925 0.0
C1459 C 0.78287 0.27273 0.75766 0.0
C1460 C 0.78934 0.27209 0.77033 0.0
H1461 H 0.6792 0.17893 0.74855 0.0
H1462 H 0.70988 0.19989 0.75671 0.0
C1463 C 0.80609 0.28539 0.77456 0.0
C1464 C 0.76594 0.25788 0.75304 0.0
H1465 H 0.71253 0.24506 0.75618 0.0
C1466 C 0.77168 0.24223 0.74405 0.0
C1467 C 0.74443 0.25894 0.75752 0.0
C1468 C 0.73733 0.2759 0.7669 0.0
C1469 C 0.7564 0.22744 0.73944 0.0
C1470 C 0.73483 0.22864 0.74382 0.0
C1471 C 0.72915 0.24417 0.7529 0.0
C1472 C 0.71762 0.21459 0.73872 0.0
C1473 C 0.76352 0.2105 0.73006 0.0
C1474 C 0.7119 0.21599 0.72594 0.0
C1475 C 0.69448 0.20407 0.72129 0.0
C1476 C 0.68251 0.19053 0.72934 0.0
C1477 C 0.68835 0.18906 0.74213 0.0
C1478 C 0.7058 0.20099 0.74678 0.0
H1479 H 0.78131 0.2079 0.73037 0.0
H1480 H 0.75528 0.19481 0.73184 0.0
H1481 H 0.75922 0.21595 0.7204 0.0
H1482 H 0.72043 0.22691 0.71966 0.0
H1483 H 0.68982 0.20631 0.71153 0.0
H1484 H 0.80846 0.78692 0.21168 0.0
H1485 H 0.77879 0.76423 0.21918 0.0
H1486 H 0.78901 0.78752 0.25709 0.0
H1487 H 0.81832 0.81092 0.24955 0.0
H1488 H 0.78278 0.73148 0.23743 0.0
H1489 H 0.72328 0.79418 0.25197 0.0
H1490 H 0.74582 0.80003 0.24167 0.0
H1491 H 0.74998 0.79763 0.25839 0.0
C1492 C 0.80391 0.78785 0.22152 0.0
C1493 C 0.81525 0.8012 0.22998 0.0
C1494 C 0.78716 0.77462 0.22582 0.0
C1495 C 0.78154 0.77449 0.23863 0.0
C1496 C 0.79283 0.78777 0.24711 0.0
H1497 H 0.68911 0.70351 0.28347 0.0
H1498 H 0.71939 0.72536 0.27602 0.0
C1499 C 0.8096 0.80102 0.24281 0.0
C1500 C 0.76464 0.75956 0.24322 0.0
H1501 H 0.71545 0.75792 0.25777 0.0
C1502 C 0.768 0.73721 0.24183 0.0
C1503 C 0.74547 0.76719 0.24897 0.0
C1504 C 0.74075 0.79107 0.25026 0.0
C1505 C 0.75275 0.72219 0.24624 0.0
C1506 C 0.7336 0.72983 0.252 0.0
C1507 C 0.73024 0.75218 0.25337 0.0
C1508 C 0.71666 0.71495 0.2566 0.0
C1509 C 0.75744 0.69831 0.24493 0.0
C1510 C 0.70522 0.70178 0.24813 0.0
C1511 C 0.68808 0.68899 0.2524 0.0
C1512 C 0.68218 0.68917 0.2652 0.0
C1513 C 0.69379 0.70228 0.27366 0.0
C1514 C 0.71091 0.71504 0.26939 0.0
H1515 H 0.7749 0.69518 0.24319 0.0
H1516 H 0.75239 0.68936 0.25353 0.0
H1517 H 0.74816 0.69177 0.23681 0.0
H1518 H 0.70914 0.70188 0.23816 0.0
H1519 H 0.67918 0.67927 0.24566 0.0
H1520 H 0.54022 0.55857 0.9635 0.0
H1521 H 0.5171 0.53038 0.97235 0.0
H1522 H 0.54862 0.53758 0.00843 0.0
H1523 H 0.57207 0.5658 -0.00044 0.0
H1524 H 0.52795 0.49082 0.98419 0.0
H1525 H 0.48401 0.54671 0.01638 0.0
H1526 H 0.50081 0.55627 0.0036 0.0
H1527 H 0.51297 0.54679 0.01798 0.0
C1528 C 0.54272 0.55375 0.97321 0.0
C1529 C 0.55829 0.56403 0.98078 0.0
C1530 C 0.52929 0.53782 0.97829 0.0
C1531 C 0.53103 0.53212 0.99105 0.0
C1532 C 0.54683 0.54204 -0.0014 0.0
H1533 H 0.46096 0.43941 0.03688 0.0
H1534 H 0.4849 0.46803 0.02922 0.0
C1535 C 0.56026 0.55801 0.99352 0.0
C1536 C 0.51606 0.51595 0.99644 0.0
H1537 H 0.47526 0.50948 0.01784 0.0
C1538 C 0.51641 0.49487 0.99154 0.0
C1539 C 0.50106 0.52139 0.00601 0.0
C1540 C 0.49947 0.54405 0.01126 0.0
C1541 C 0.50222 0.47894 0.99604 0.0
C1542 C 0.4871 0.48443 0.00553 0.0
C1543 C 0.48688 0.50544 0.01053 0.0
C1544 C 0.47141 0.46847 0.01039 0.0
C1545 C 0.50369 0.45631 0.99073 0.0
C1546 C 0.45557 0.45974 0.00239 0.0
C1547 C 0.44169 0.44359 0.00678 0.0
C1548 C 0.44328 0.43613 0.01927 0.0
C1549 C 0.4588 0.44533 0.02735 0.0
C1550 C 0.47268 0.46149 0.02295 0.0
H1551 H 0.5193 0.45353 0.98577 0.0
H1552 H 0.50194 0.44403 -0.00168 0.0
H1553 H 0.49039 0.45382 0.98384 0.0
H1554 H 0.4542 0.46518 0.9927 0.0
H1555 H 0.42992 0.43668 0.00036 0.0
H1556 H 0.04399 0.58048 0.50446 0.0
H1557 H 0.01957 0.55179 0.49728 0.0
H1558 H 0.05085 0.50652 0.52239 0.0
H1559 H 0.07543 0.53521 0.52956 0.0
H1560 H 0.02983 0.5117 0.48619 0.0
H1561 H 0.98619 0.50162 0.53173 0.0
H1562 H 0.00298 0.52486 0.52836 0.0
H1563 H 0.01516 0.49949 0.53266 0.0
C1564 C 0.04564 0.56439 0.50843 0.0
C1565 C 0.06116 0.5601 0.51778 0.0
C1566 C 0.0317 0.54808 0.50435 0.0
C1567 C 0.03315 0.52723 0.50952 0.0
C1568 C 0.04914 0.52269 0.51855 0.0
H1569 H 0.96159 0.40887 0.49574 0.0
H1570 H 0.98656 0.43661 0.50359 0.0
C1571 C 0.06309 0.53904 0.52265 0.0
C1572 C 0.01804 0.51021 0.5053 0.0
H1573 H 0.97738 0.47704 0.51538 0.0
C1574 C 0.01832 0.50412 0.49255 0.0
C1575 C 0.00311 0.50043 0.51366 0.0
C1576 C 0.00162 0.50701 0.52735 0.0
C1577 C 0.00415 0.48828 0.48794 0.0
C1578 C 0.98913 0.47861 0.49628 0.0
C1579 C 0.98894 0.48457 0.50904 0.0
C1580 C 0.97349 0.46221 0.4919 0.0
C1581 C 0.00558 0.48178 0.47423 0.0
C1582 C 0.95757 0.46766 0.48301 0.0
C1583 C 0.94332 0.4519 0.47854 0.0
C1584 C 0.94488 0.43047 0.48288 0.0
C1585 C 0.96024 0.42526 0.49216 0.0
C1586 C 0.97449 0.44102 0.49663 0.0
H1587 H 0.02116 0.48687 0.46991 0.0
H1588 H 0.00384 0.46397 0.47316 0.0
H1589 H 0.99225 0.48964 0.46891 0.0
H1590 H 0.95622 0.4841 0.47951 0.0
H1591 H 0.9311 0.45644 0.4717 0.0
H1592 H 0.0348 0.43571 0.96469 0.0
H1593 H 0.01092 0.4627 0.97409 0.0
H1594 H 0.04257 0.45408 0.01003 0.0
H1595 H 0.06714 0.42751 0.00054 0.0
H1596 H 0.9826 0.45517 0.99447 0.0
H1597 H 0.04206 0.52031 0.00516 0.0
H1598 H 0.04784 0.49857 0.99428 0.0
H1599 H 0.04894 0.49386 0.01099 0.0
C1600 C 0.03724 0.44009 0.97447 0.0
C1601 C 0.0533 0.43003 0.9818 0.0
C1602 C 0.02335 0.45528 0.97987 0.0
C1603 C 0.02522 0.46056 0.99268 0.0
C1604 C 0.04118 0.45051 5e-05 0.0
H1605 H 0.95321 0.55216 0.03857 0.0
H1606 H 0.97599 0.52199 0.03185 0.0
C1607 C 0.05511 0.43531 0.99465 0.0
C1608 C 0.00981 0.47593 -0.0016 0.0
H1609 H 0.00625 0.52553 0.01235 0.0
C1610 C 0.98773 0.47055 -0.00161 0.0
C1611 C 0.01666 0.49587 0.00356 0.0
C1612 C 0.04014 0.50266 0.00344 0.0
C1613 C 0.97223 0.48472 0.00339 0.0
C1614 C 0.97904 0.50483 0.00834 0.0
C1615 C 0.00115 0.51003 0.00856 0.0
C1616 C 0.96346 0.52123 0.01279 0.0
C1617 C 0.94874 0.47802 0.0034 0.0
C1618 C 0.94879 0.53063 0.0043 0.0
C1619 C 0.93557 0.54771 0.00816 0.0
C1620 C 0.93679 0.55559 0.02056 0.0
C1621 C 0.95127 0.54592 0.0291 0.0
C1622 C 0.96451 0.52886 0.02524 0.0
H1623 H 0.94692 0.46017 0.00257 0.0
H1624 H 0.94047 0.4835 0.01214 0.0
H1625 H 0.94044 0.48557 0.99522 0.0
H1626 H 0.94811 0.52528 0.99458 0.0
H1627 H 0.92475 0.5551 0.00136 0.0
H1628 H 0.52481 0.41221 0.50596 0.0
H1629 H 0.5017 0.44271 0.49985 0.0
H1630 H 0.54293 0.48636 0.52064 0.0
H1631 H 0.56635 0.45589 0.52661 0.0
H1632 H 0.47999 0.47218 0.51737 0.0
H1633 H 0.53728 0.51324 0.48459 0.0
H1634 H 0.54032 0.48522 0.48915 0.0
H1635 H 0.5476 0.50637 0.49995 0.0
C1636 C 0.52899 0.42835 0.50915 0.0
C1637 C 0.54709 0.43176 0.5169 0.0
C1638 C 0.51577 0.44568 0.50571 0.0
C1639 C 0.52068 0.46669 0.5098 0.0
C1640 C 0.53899 0.47022 0.51736 0.0
H1641 H 0.45915 0.59 0.49342 0.0
H1642 H 0.48212 0.5614 0.50225 0.0
C1643 C 0.55218 0.45286 0.52085 0.0
C1644 C 0.50636 0.48481 0.5063 0.0
H1645 H 0.50391 0.53059 0.48838 0.0
C1646 C 0.48517 0.485 0.51104 0.0
C1647 C 0.51332 0.50146 0.49811 0.0
C1648 C 0.53581 0.50162 0.49255 0.0
C1649 C 0.47065 0.50154 0.50781 0.0
C1650 C 0.47746 0.51798 0.49941 0.0
C1651 C 0.49878 0.51793 0.49482 0.0
C1652 C 0.46262 0.53511 0.49496 0.0
C1653 C 0.44827 0.50141 0.51352 0.0
C1654 C 0.44399 0.52973 0.48806 0.0
C1655 C 0.43082 0.54601 0.48309 0.0
C1656 C 0.43637 0.56785 0.48475 0.0
C1657 C 0.45466 0.57322 0.49195 0.0
C1658 C 0.46779 0.55696 0.49695 0.0
H1659 H 0.44774 0.49173 0.52236 0.0
H1660 H 0.44266 0.51811 0.51562 0.0
H1661 H 0.43677 0.494 0.50673 0.0
H1662 H 0.43987 0.51295 0.48629 0.0
H1663 H 0.41642 0.54153 0.47788 0.0
H1664 H 0.32985 0.19262 0.17738 0.0
H1665 H 0.31607 0.21908 0.16228 0.0
H1666 H 0.35349 0.18907 0.13272 0.0
H1667 H 0.36731 0.16248 0.14772 0.0
H1668 H 0.34487 0.24676 0.15049 0.0
H1669 H 0.29635 0.20293 0.11482 0.0
H1670 H 0.30204 0.19187 0.13027 0.0
H1671 H 0.32194 0.19022 0.1179 0.0
C1672 C 0.33479 0.19128 0.16762 0.0
C1673 C 0.34997 0.17557 0.16383 0.0
C1674 C 0.32682 0.20642 0.15899 0.0
C1675 C 0.33364 0.20597 0.14637 0.0
C1676 C 0.34768 0.18948 0.14237 0.0
H1677 H 0.35774 0.28316 0.08346 0.0
H1678 H 0.34849 0.25504 0.09861 0.0
C1679 C 0.35571 0.17436 0.151 0.0
C1680 C 0.329 0.22449 0.13791 0.0
H1681 H 0.3114 0.23727 0.10831 0.0
C1682 C 0.33709 0.24486 0.14137 0.0
C1683 C 0.31891 0.22188 0.12604 0.0
C1684 C 0.30912 0.20058 0.12207 0.0
C1685 C 0.3368 0.26236 0.13294 0.0
C1686 C 0.32761 0.25951 0.12081 0.0
C1687 C 0.31841 0.23943 0.11761 0.0
C1688 C 0.33005 0.27618 0.11083 0.0
C1689 C 0.34773 0.28322 0.13679 0.0
C1690 C 0.32207 0.29731 0.11241 0.0
C1691 C 0.3276 0.31363 0.10381 0.0
C1692 C 0.34098 0.30894 0.09342 0.0
C1693 C 0.3476 0.28742 0.09142 0.0
C1694 C 0.34223 0.27125 0.10005 0.0
H1695 H 0.35764 0.28125 0.14547 0.0
H1696 H 0.35839 0.28929 0.12913 0.0
H1697 H 0.33524 0.2957 0.1387 0.0
H1698 H 0.3122 0.30135 0.12053 0.0
H1699 H 0.32202 0.32999 0.10553 0.0
H1700 H 0.90863 0.10294 0.3674 0.0
H1701 H 0.93917 0.09529 0.38142 0.0
H1702 H 0.9772 0.07421 0.34962 0.0
H1703 H 0.94681 0.08174 0.33549 0.0
H1704 H 0.98215 0.05036 0.37602 0.0
H1705 H 0.99202 0.14003 0.37415 0.0
H1706 H 0.96546 0.12976 0.37778 0.0
H1707 H 0.97679 0.1253 0.36241 0.0
C1708 C 0.92325 0.09607 0.36342 0.0
C1709 C 0.92546 0.09334 0.35031 0.0
C1710 C 0.94065 0.09168 0.37145 0.0
C1711 C 0.96039 0.08438 0.36649 0.0
C1712 C 0.96203 0.0798 0.35358 0.0
H1713 H 0.08522 0.11507 0.39803 0.0
H1714 H 0.05707 0.10403 0.3832 0.0
C1715 C 0.94468 0.08425 0.34554 0.0
C1716 C 0.98015 0.08504 0.3743 0.0
H1717 H 0.01609 0.1207 0.38707 0.0
C1718 C 0.98965 0.06567 0.37846 0.0
C1719 C 0.98998 0.10507 0.37723 0.0
C1720 C 0.98071 0.12628 0.37263 0.0
C1721 C 0.00867 0.06592 0.38578 0.0
C1722 C 0.0182 0.08602 0.38894 0.0
C1723 C 0.0088 0.1053 0.38457 0.0
C1724 C 0.03737 0.08792 0.39724 0.0
C1725 C 0.01851 0.04476 0.38996 0.0
C1726 C 0.03599 0.08183 0.40996 0.0
C1727 C 0.05207 0.08811 0.41848 0.0
C1728 C 0.0697 0.10079 0.41444 0.0
C1729 C 0.07181 0.10545 0.4015 0.0
C1730 C 0.05575 0.09912 0.39299 0.0
H1731 H 0.01279 0.03101 0.38408 0.0
H1732 H 0.03646 0.04545 0.38953 0.0
H1733 H 0.01376 0.04151 0.39988 0.0
H1734 H 0.02177 0.07351 0.41348 0.0
H1735 H 0.0499 0.08422 0.42836 0.0
H1736 H 0.16237 0.80661 0.67736 0.0
H1737 H 0.17689 0.78052 0.66236 0.0
H1738 H 0.13925 0.80971 0.6326 0.0
H1739 H 0.12471 0.83612 0.64753 0.0
H1740 H 0.14714 0.75286 0.65068 0.0
H1741 H 0.19741 0.79536 0.61511 0.0
H1742 H 0.19193 0.80648 0.63057 0.0
H1743 H 0.17192 0.80828 0.61829 0.0
C1744 C 0.15764 0.80798 0.66756 0.0
C1745 C 0.14216 0.82336 0.6637 0.0
C1746 C 0.16601 0.79303 0.65899 0.0
C1747 C 0.15923 0.79325 0.64638 0.0
C1748 C 0.14498 0.8095 0.64226 0.0
H1749 H 0.14089 0.7125 0.58388 0.0
H1750 H 0.14854 0.74166 0.59862 0.0
C1751 C 0.13655 0.82449 0.65084 0.0
C1752 C 0.16396 0.77452 0.63814 0.0
H1753 H 0.18376 0.76036 0.60926 0.0
C1754 C 0.15554 0.75434 0.64172 0.0
C1755 C 0.1748 0.77663 0.62648 0.0
C1756 C 0.18472 0.79782 0.6224 0.0
C1757 C 0.15645 0.73645 0.63361 0.0
C1758 C 0.16669 0.73868 0.62172 0.0
C1759 C 0.17602 0.75865 0.61839 0.0
C1760 C 0.16537 0.72136 0.61208 0.0
C1761 C 0.14513 0.71583 0.63754 0.0
C1762 C 0.17303 0.70033 0.6145 0.0
C1763 C 0.16832 0.68341 0.60615 0.0
C1764 C 0.15622 0.6874 0.59515 0.0
C1765 C 0.15006 0.70879 0.59232 0.0
C1766 C 0.15452 0.72556 0.60072 0.0
H1767 H 0.1342 0.71838 0.64573 0.0
H1768 H 0.13542 0.70913 0.62963 0.0
H1769 H 0.15739 0.70358 0.64029 0.0
H1770 H 0.18194 0.69685 0.62307 0.0
H1771 H 0.17356 0.66717 0.6085 0.0
H1772 H 0.57486 0.90234 0.86279 0.0
H1773 H 0.54314 0.90957 0.87601 0.0
H1774 H 0.50252 0.91053 0.84294 0.0
H1775 H 0.534 0.90328 0.82964 0.0
H1776 H 0.50428 0.94267 0.8745 0.0
H1777 H 0.48642 0.85538 0.86587 0.0
H1778 H 0.51307 0.86668 0.8635 0.0
H1779 H 0.49189 0.87222 0.85237 0.0
C1780 C 0.55928 0.90467 0.85829 0.0
C1781 C 0.55685 0.90181 0.8452 0.0
C1782 C 0.54121 0.90887 0.86585 0.0
C1783 C 0.52057 0.91037 0.86041 0.0
C1784 C 0.51836 0.90934 0.84727 0.0
H1785 H 0.40088 0.87832 0.89891 0.0
H1786 H 0.425 0.89159 0.88233 0.0
C1787 C 0.53636 0.9051 0.83971 0.0
C1788 C 0.50117 0.90951 0.86852 0.0
H1789 H 0.46313 0.87415 0.87932 0.0
C1790 C 0.49509 0.9278 0.87551 0.0
C1791 C 0.48926 0.89009 0.86972 0.0
C1792 C 0.49545 0.86987 0.86255 0.0
C1793 C 0.47737 0.92706 0.88383 0.0
C1794 C 0.46591 0.90736 0.88536 0.0
C1795 C 0.47177 0.88929 0.87809 0.0
C1796 C 0.44914 0.90416 0.89521 0.0
C1797 C 0.47113 0.94735 0.89085 0.0
C1798 C 0.45431 0.90749 0.90796 0.0
C1799 C 0.44045 0.90016 0.91744 0.0
C1800 C 0.42135 0.88892 0.91436 0.0
C1801 C 0.41555 0.88677 0.9016 0.0
C1802 C 0.4293 0.89438 0.89211 0.0
H1803 H 0.4756 0.96207 0.88541 0.0
H1804 H 0.4535 0.94782 0.89287 0.0
H1805 H 0.48003 0.94791 0.89994 0.0
H1806 H 0.46974 0.91445 0.91062 0.0
H1807 H 0.44547 0.90201 0.92718 0.0
H1808 H 0.3844 0.83182 0.34642 0.0
H1809 H 0.37261 0.80405 0.36121 0.0
H1810 H 0.31609 0.79183 0.33839 0.0
H1811 H 0.32813 0.81928 0.32327 0.0
H1812 H 0.33729 0.79301 0.37558 0.0
H1813 H 0.34861 0.73499 0.33583 0.0
H1814 H 0.35657 0.76299 0.33465 0.0
H1815 H 0.32847 0.75561 0.33364 0.0
C1816 C 0.36917 0.82365 0.34466 0.0
C1817 C 0.35752 0.82735 0.33347 0.0
C1818 C 0.36243 0.80776 0.35316 0.0
C1819 C 0.34382 0.79542 0.35069 0.0
C1820 C 0.33084 0.80073 0.34027 0.0
H1821 H 0.33168 0.68663 0.40504 0.0
H1822 H 0.31866 0.71614 0.39147 0.0
C1823 C 0.33772 0.81648 0.33167 0.0
C1824 C 0.33996 0.77545 0.35812 0.0
H1825 H 0.34422 0.72044 0.35595 0.0
C1826 C 0.33831 0.77709 0.3713 0.0
C1827 C 0.34143 0.7547 0.35247 0.0
C1828 C 0.34402 0.75182 0.33839 0.0
C1829 C 0.33955 0.75865 0.37904 0.0
C1830 C 0.3421 0.73805 0.37339 0.0
C1831 C 0.34219 0.73629 0.3602 0.0
C1832 C 0.34848 0.71882 0.38086 0.0
C1833 C 0.33975 0.76149 0.39318 0.0
C1834 C 0.36918 0.71003 0.37903 0.0
C1835 C 0.37656 0.69319 0.38665 0.0
C1836 C 0.36339 0.68475 0.39627 0.0
C1837 C 0.34224 0.69287 0.39773 0.0
C1838 C 0.33483 0.70981 0.39006 0.0
H1839 H 0.34039 0.77881 0.39599 0.0
H1840 H 0.32485 0.75425 0.39725 0.0
H1841 H 0.35388 0.753 0.39738 0.0
H1842 H 0.37995 0.71671 0.37196 0.0
H1843 H 0.39287 0.68723 0.38521 0.0
H1844 H 0.44024 0.08121 0.5686 0.0
H1845 H 0.46832 0.0681 0.58285 0.0
H1846 H 0.43663 0.09977 0.61405 0.0
H1847 H 0.40826 0.11271 0.59992 0.0
H1848 H 0.49403 0.09743 0.59495 0.0
H1849 H 0.45626 0.04291 0.63001 0.0
H1850 H 0.44372 0.04914 0.61503 0.0
H1851 H 0.44145 0.06768 0.62807 0.0
C1852 C 0.43883 0.08487 0.57855 0.0
C1853 C 0.42204 0.09818 0.58308 0.0
C1854 C 0.45493 0.07733 0.58668 0.0
C1855 C 0.45449 0.0828 0.59952 0.0
C1856 C 0.43707 0.09496 0.60423 0.0
H1857 H 0.5327 0.10943 0.66134 0.0
H1858 H 0.5047 0.09883 0.64644 0.0
C1859 C 0.42093 0.10251 0.5961 0.0
C1860 C 0.47377 0.079 0.60752 0.0
H1861 H 0.48954 0.06044 0.63642 0.0
C1862 C 0.49326 0.08889 0.60389 0.0
C1863 C 0.47264 0.06789 0.61916 0.0
C1864 C 0.45243 0.05612 0.62325 0.0
C1865 C 0.51119 0.08937 0.61199 0.0
C1866 C 0.50972 0.07919 0.62393 0.0
C1867 C 0.49063 0.06821 0.62726 0.0
C1868 C 0.5266 0.08244 0.63368 0.0
C1869 C 0.53094 0.1021 0.60803 0.0
C1870 C 0.54816 0.0761 0.63167 0.0
C1871 C 0.56438 0.08241 0.64014 0.0
C1872 C 0.55918 0.09496 0.65079 0.0
C1873 C 0.53734 0.09998 0.65317 0.0
C1874 C 0.52125 0.09382 0.64469 0.0
H1875 H 0.52786 0.1122 0.59954 0.0
H1876 H 0.53646 0.11285 0.61579 0.0
H1877 H 0.54429 0.09073 0.60577 0.0
H1878 H 0.55255 0.06691 0.62336 0.0
H1879 H 0.58101 0.07806 0.63814 0.0
H1880 H 0.16463 0.30622 0.90813 0.0
H1881 H 0.17918 0.27703 0.8949 0.0
H1882 H 0.12344 0.2819 0.87053 0.0
H1883 H 0.10906 0.31106 0.88346 0.0
H1884 H 0.16018 0.2379 0.89093 0.0
H1885 H 0.17193 0.27835 0.84512 0.0
H1886 H 0.16881 0.29334 0.85964 0.0
H1887 H 0.14537 0.28412 0.85103 0.0
C1888 C 0.15573 0.30135 0.89979 0.0
C1889 C 0.13567 0.31092 0.89684 0.0
C1890 C 0.16405 0.28466 0.89227 0.0
C1891 C 0.15256 0.27752 0.88163 0.0
C1892 C 0.13287 0.28751 0.87851 0.0
H1893 H 0.11769 0.16294 0.84879 0.0
H1894 H 0.12975 0.19022 0.86372 0.0
C1895 C 0.12456 0.30408 0.88599 0.0
C1896 C 0.15966 0.25826 0.87439 0.0
H1897 H 0.16284 0.23984 0.84418 0.0
C1898 C 0.16137 0.23835 0.88072 0.0
C1899 C 0.16184 0.25886 0.86112 0.0
C1900 C 0.16214 0.27989 0.85387 0.0
C1901 C 0.16302 0.21882 0.87401 0.0
C1902 C 0.16241 0.21927 0.86066 0.0
C1903 C 0.16291 0.23934 0.85441 0.0
C1904 C 0.15814 0.19959 0.85301 0.0
C1905 C 0.16467 0.19792 0.88132 0.0
C1906 C 0.17016 0.19545 0.84203 0.0
C1907 C 0.163 0.18006 0.8333 0.0
C1908 C 0.14369 0.16853 0.83541 0.0
C1909 C 0.13266 0.17146 0.84688 0.0
C1910 C 0.13968 0.187 0.85552 0.0
H1911 H 0.17397 0.20034 0.89018 0.0
H1912 H 0.14818 0.19245 0.884 0.0
H1913 H 0.1726 0.18498 0.8757 0.0
H1914 H 0.18444 0.20495 0.83987 0.0
H1915 H 0.172 0.17802 0.82461 0.0
H1916 H 0.95201 0.9054 0.16302 0.0
H1917 H 0.98209 0.91158 0.14857 0.0
H1918 H 0.93904 0.90393 0.11684 0.0
H1919 H 0.90881 0.89738 0.13124 0.0
H1920 H 0.97278 0.87504 0.11701 0.0
H1921 H 0.00391 0.95829 0.12435 0.0
H1922 H 9e-05 0.94344 0.13875 0.0
H1923 H 0.97705 0.95006 0.12912 0.0
C1924 C 0.94878 0.9056 0.15297 0.0
C1925 C 0.92807 0.90056 0.14827 0.0
C1926 C 0.966 0.90933 0.14472 0.0
C1927 C 0.96279 0.9083 0.13163 0.0
C1928 C 0.94182 0.90486 0.12692 0.0
H1929 H 0.05617 0.90842 0.07069 0.0
H1930 H 0.02794 0.91947 0.08548 0.0
C1931 C 0.92457 0.90112 0.13517 0.0
C1932 C 0.98166 0.90714 0.12305 0.0
H1933 H 0.02786 0.93333 0.11395 0.0
C1934 C 0.98467 0.88791 0.11624 0.0
C1935 C 0.9972 0.92391 0.12211 0.0
C1936 C 0.99434 0.94518 0.12888 0.0
C1937 C 0.00302 0.88475 0.10872 0.0
C1938 C 0.01891 0.90117 0.10811 0.0
C1939 C 0.01573 0.92068 0.11463 0.0
C1940 C 0.03859 0.89814 0.10041 0.0
C1941 C 0.00537 0.8638 0.1015 0.0
C1942 C 0.0544 0.88318 0.10417 0.0
C1943 C 0.07059 0.87678 0.09575 0.0
C1944 C 0.07107 0.88518 0.08341 0.0
C1945 C 0.05617 0.90147 0.08007 0.0
C1946 C 0.04006 0.9079 0.08852 0.0
H1947 H 0.99006 0.85436 0.10133 0.0
H1948 H 0.01049 0.86704 0.09163 0.0
H1949 H 0.01806 0.85371 0.10602 0.0
H1950 H 0.05348 0.87554 0.11337 0.0
H1951 H 0.08185 0.8643 0.09867 0.0
H1952 H 0.60754 0.68867 0.8835 0.0
H1953 H 0.6214 0.71844 0.8708 0.0
H1954 H 0.67806 0.7223 0.89449 0.0
H1955 H 0.66409 0.69244 0.90745 0.0
H1956 H 0.65837 0.76184 0.89113 0.0
H1957 H 0.66958 0.72242 0.84495 0.0
H1958 H 0.64327 0.71633 0.85114 0.0
H1959 H 0.66706 0.70715 0.85943 0.0
C1960 C 0.62312 0.69557 0.88592 0.0
C1961 C 0.63469 0.68821 0.8965 0.0
C1962 C 0.63111 0.71251 0.87858 0.0
C1963 C 0.65092 0.72238 0.88158 0.0
C1964 C 0.66282 0.71477 0.89196 0.0
H1965 H 0.66942 0.82252 0.82495 0.0
H1966 H 0.68243 0.79601 0.8403 0.0
C1967 C 0.65484 0.6977 0.89932 0.0
C1968 C 0.65782 0.74184 0.87446 0.0
H1969 H 0.66079 0.7609 0.84436 0.0
C1970 C 0.65949 0.76162 0.88092 0.0
C1971 C 0.6599 0.74153 0.86118 0.0
C1972 C 0.66011 0.72064 0.8538 0.0
C1973 C 0.66105 0.78131 0.87433 0.0
C1974 C 0.66042 0.78113 0.86098 0.0
C1975 C 0.66092 0.76119 0.8546 0.0
C1976 C 0.65606 0.80094 0.85343 0.0
C1977 C 0.66262 0.80207 0.88175 0.0
C1978 C 0.63744 0.81327 0.85595 0.0
C1979 C 0.63007 0.82857 0.84725 0.0
C1980 C 0.64092 0.83151 0.83572 0.0
C1981 C 0.66053 0.82045 0.83367 0.0
C1982 C 0.66802 0.8053 0.84245 0.0
H1983 H 0.67191 0.79951 0.89061 0.0
H1984 H 0.6705 0.81515 0.87622 0.0
H1985 H 0.6461 0.80742 0.88445 0.0
H1986 H 0.62759 0.80992 0.86418 0.0
H1987 H 0.6149 0.83676 0.84914 0.0
H1988 H 0.03455 0.88344 0.66118 0.0
H1989 H 0.00576 0.891 0.64617 0.0
H1990 H 0.05145 0.92299 0.62164 0.0
H1991 H 0.08077 0.91458 0.63647 0.0
H1992 H 0.98761 0.92569 0.63544 0.0
H1993 H 0.02924 0.8762 0.59887 0.0
H1994 H 0.0386 0.87737 0.61495 0.0
H1995 H 0.04429 0.89927 0.60424 0.0
C1996 C 0.03854 0.89226 0.65266 0.0
C1997 C 0.06006 0.89804 0.6499 0.0
C1998 C 0.02199 0.89666 0.64409 0.0
C1999 C 0.02651 0.9071 0.63264 0.0
C2000 C 0.0477 0.91434 0.63026 0.0
H2001 H 0.94085 0.90958 0.56725 0.0
H2002 H 0.96717 0.92245 0.58266 0.0
C2003 C 0.06441 0.90964 0.63877 0.0
C2004 C 0.00925 0.90867 0.62294 0.0
H2005 H 0.99515 0.89013 0.59372 0.0
C2006 C 0.98934 0.91814 0.62626 0.0
C2007 C 0.01147 0.89867 0.61097 0.0
C2008 C 0.03195 0.88713 0.60704 0.0
C2009 C 0.97144 0.91732 0.61808 0.0
C2010 C 0.97358 0.90685 0.60632 0.0
C2011 C 0.99368 0.89825 0.60276 0.0
C2012 C 0.9549 0.90275 0.59793 0.0
C2013 C 0.95027 0.92725 0.62216 0.0
C2014 C 0.9389 0.88785 0.60153 0.0
C2015 C 0.9239 0.88025 0.5927 0.0
C2016 C 0.92474 0.88739 0.58009 0.0
C2017 C 0.93982 0.90354 0.5768 0.0
C2018 C 0.95487 0.91101 0.58561 0.0
H2019 H 0.95256 0.93909 0.62994 0.0
H2020 H 0.94223 0.93549 0.6141 0.0
H2021 H 0.93932 0.91425 0.62556 0.0
H2022 H 0.93886 0.88106 0.61096 0.0
H2023 H 0.91249 0.86788 0.59558 0.0
H2024 H 0.86337 0.15326 0.3493 0.0
H2025 H 0.85233 0.1803 0.36484 0.0
H2026 H 0.83548 0.2244 0.33481 0.0
H2027 H 0.8458 0.19729 0.31924 0.0
H2028 H 0.87326 0.21732 0.36699 0.0
H2029 H 0.78681 0.23604 0.35889 0.0
H2030 H 0.79961 0.21216 0.35248 0.0
H2031 H 0.80232 0.2379 0.34463 0.0
C2032 C 0.85677 0.1685 0.346 0.0
C2033 C 0.85563 0.17318 0.33303 0.0
C2034 C 0.85043 0.18393 0.3549 0.0
C2035 C 0.84292 0.20434 0.35101 0.0
C2036 C 0.8407 0.20861 0.33806 0.0
H2037 H 0.85021 0.33125 0.38309 0.0
H2038 H 0.8427 0.30001 0.36953 0.0
C2039 C 0.8468 0.1931 0.32916 0.0
C2040 C 0.84064 0.22211 0.36033 0.0
H2041 H 0.80745 0.26309 0.37017 0.0
C2042 C 0.85871 0.22705 0.36783 0.0
C2043 C 0.82173 0.23496 0.36134 0.0
C2044 C 0.80146 0.22986 0.35399 0.0
C2045 C 0.85865 0.24482 0.37602 0.0
C2046 C 0.83998 0.25795 0.3768 0.0
C2047 C 0.82173 0.25294 0.36949 0.0
C2048 C 0.83976 0.27729 0.38498 0.0
C2049 C 0.87882 0.24984 0.38353 0.0
C2050 C 0.83971 0.27489 0.39812 0.0
C2051 C 0.84407 0.29261 0.40588 0.0
C2052 C 0.84857 0.31304 0.40059 0.0
C2053 C 0.84693 0.31572 0.38744 0.0
C2054 C 0.84258 0.29792 0.37968 0.0
H2055 H 0.89291 0.24001 0.38044 0.0
H2056 H 0.88305 0.26726 0.38266 0.0
H2057 H 0.87578 0.2464 0.39366 0.0
H2058 H 0.83748 0.25906 0.40234 0.0
H2059 H 0.84496 0.29005 0.41598 0.0
H2060 H 0.54575 0.09292 0.06826 0.0
H2061 H 0.51835 0.08374 0.08392 0.0
H2062 H 0.56371 0.09758 0.1138 0.0
H2063 H 0.59102 0.10779 0.09816 0.0
H2064 H 0.51194 0.05705 0.1039 0.0
H2065 H 0.51775 0.14261 0.11983 0.0
H2066 H 0.53167 0.13285 0.10603 0.0
H2067 H 0.54251 0.12773 0.12151 0.0
C2068 C 0.5501 0.0936 0.07816 0.0
C2069 C 0.57041 0.10156 0.08198 0.0
C2070 C 0.53439 0.0883 0.08711 0.0
C2071 C 0.53878 0.09062 0.10002 0.0
C2072 C 0.55978 0.09634 0.10387 0.0
H2073 H 0.45195 0.09627 0.16401 0.0
H2074 H 0.48276 0.08705 0.15065 0.0
C2075 C 0.57541 0.10204 0.09492 0.0
C2076 C 0.52077 0.08956 0.10924 0.0
H2077 H 0.4929 0.12037 0.13048 0.0
C2078 C 0.50784 0.07083 0.10978 0.0
C2079 C 0.51522 0.10773 0.11674 0.0
C2080 C 0.52735 0.12894 0.11594 0.0
C2081 C 0.48955 0.06982 0.11766 0.0
C2082 C 0.48423 0.08792 0.12516 0.0
C2083 C 0.49726 0.10646 0.12476 0.0
C2084 C 0.46474 0.08865 0.13319 0.0
C2085 C 0.47593 0.04958 0.11793 0.0
C2086 C 0.4443 0.09209 0.12776 0.0
C2087 C 0.42662 0.0976 0.13536 0.0
C2088 C 0.42921 0.09983 0.14848 0.0
C2089 C 0.44942 0.0949 0.15392 0.0
C2090 C 0.46705 0.08951 0.14632 0.0
H2091 H 0.48382 0.03592 0.11289 0.0
H2092 H 0.47267 0.04467 0.12783 0.0
H2093 H 0.4601 0.05291 0.11336 0.0
H2094 H 0.44234 0.09176 0.1176 0.0
H2095 H 0.41127 0.10122 0.13089 0.0
H2096 H 0.62846 0.27751 0.5814 0.0
H2097 H 0.63848 0.24878 0.59598 0.0
H2098 H 0.68126 0.29258 0.61556 0.0
H2099 H 0.67074 0.32186 0.60115 0.0
H2100 H 0.67608 0.22873 0.60334 0.0
H2101 H 0.63936 0.27491 0.64311 0.0
H2102 H 0.63617 0.28316 0.6269 0.0
H2103 H 0.66124 0.28809 0.63502 0.0
C2104 C 0.64016 0.28109 0.58873 0.0
C2105 C 0.64849 0.30212 0.59027 0.0
C2106 C 0.64596 0.26456 0.59702 0.0
C2107 C 0.66029 0.26863 0.607 0.0
C2108 C 0.66978 0.28923 0.60809 0.0
H2109 H 0.66519 0.18549 0.6734 0.0
H2110 H 0.67918 0.21027 0.65743 0.0
C2111 C 0.66382 0.30591 0.59982 0.0
C2112 C 0.66351 0.25173 0.61676 0.0
H2113 H 0.65077 0.23964 0.64728 0.0
C2114 C 0.67089 0.23118 0.61301 0.0
C2115 C 0.65669 0.25496 0.62937 0.0
C2116 C 0.64776 0.27638 0.63388 0.0
C2117 C 0.6708 0.21357 0.62141 0.0
C2118 C 0.66301 0.21661 0.63382 0.0
C2119 C 0.65682 0.2374 0.63776 0.0
C2120 C 0.65859 0.19831 0.64248 0.0
C2121 C 0.67855 0.19178 0.61686 0.0
C2122 C 0.6429 0.18282 0.63925 0.0
C2123 C 0.63479 0.16863 0.64837 0.0
C2124 C 0.6421 0.16982 0.66093 0.0
C2125 C 0.65905 0.1842 0.66387 0.0
C2126 C 0.66713 0.19839 0.65474 0.0
H2127 H 0.69028 0.1935 0.60897 0.0
H2128 H 0.68628 0.18245 0.6246 0.0
H2129 H 0.6645 0.18237 0.61332 0.0
H2130 H 0.63578 0.18272 0.6299 0.0
H2131 H 0.62179 0.15774 0.64576 0.0
H2132 H 0.4657 0.8823 0.33202 0.0
H2133 H 0.49477 0.89097 0.34665 0.0
H2134 H 0.45099 0.93053 0.36844 0.0
H2135 H 0.42137 0.92115 0.35403 0.0
H2136 H 0.51489 0.92682 0.3552 0.0
H2137 H 0.46978 0.8867 0.39425 0.0
H2138 H 0.46084 0.88536 0.37809 0.0
H2139 H 0.4563 0.90946 0.38725 0.0
C2140 C 0.46222 0.89301 0.33985 0.0
C2141 C 0.44111 0.9007 0.34201 0.0
C2142 C 0.47893 0.89804 0.34818 0.0
C2143 C 0.47496 0.91101 0.35879 0.0
C2144 C 0.45427 0.92001 0.36049 0.0
H2145 H 0.55903 0.91504 0.42467 0.0
H2146 H 0.53429 0.92883 0.40865 0.0
C2147 C 0.43739 0.91471 0.35223 0.0
C2148 C 0.49213 0.91334 0.36848 0.0
H2149 H 0.50476 0.8988 0.39866 0.0
C2150 C 0.51261 0.92097 0.36476 0.0
C2151 C 0.48916 0.9056 0.38094 0.0
C2152 C 0.46792 0.89614 0.38539 0.0
C2153 C 0.53035 0.92039 0.37304 0.0
C2154 C 0.52748 0.91196 0.38532 0.0
C2155 C 0.50682 0.90537 0.38924 0.0
C2156 C 0.54584 0.90758 0.39391 0.0
C2157 C 0.55211 0.92831 0.36854 0.0
C2158 C 0.56105 0.89157 0.39079 0.0
C2159 C 0.57519 0.88352 0.39997 0.0
C2160 C 0.5742 0.89126 0.41245 0.0
C2161 C 0.56012 0.90854 0.41522 0.0
C2162 C 0.54598 0.91652 0.40606 0.0
H2163 H 0.55045 0.93973 0.36049 0.0
H2164 H 0.56109 0.93646 0.37628 0.0
H2165 H 0.56186 0.91427 0.36532 0.0
H2166 H 0.56097 0.8842 0.38152 0.0
H2167 H 0.58585 0.87027 0.39748 0.0
H2168 H 0.86128 0.84582 0.14719 0.0
H2169 H 0.84854 0.82122 0.13072 0.0
H2170 H 0.8287 0.77533 0.15919 0.0
H2171 H 0.84061 0.80004 0.17564 0.0
H2172 H 0.86739 0.78391 0.12731 0.0
H2173 H 0.78045 0.76757 0.13464 0.0
H2174 H 0.79401 0.79024 0.14195 0.0
H2175 H 0.79528 0.76369 0.149 0.0
C2176 C 0.8536 0.83077 0.14994 0.0
C2177 C 0.85215 0.82481 0.16272 0.0
C2178 C 0.84629 0.81674 0.14052 0.0
C2179 C 0.8375 0.79646 0.1437 0.0
C2180 C 0.83487 0.79107 0.15647 0.0
H2181 H 0.84264 0.67033 0.11258 0.0
H2182 H 0.83482 0.70246 0.12532 0.0
C2183 C 0.84191 0.8052 0.1659 0.0
C2184 C 0.83463 0.77962 0.13386 0.0
H2185 H 0.80075 0.73948 0.12367 0.0
C2186 C 0.85262 0.77456 0.12632 0.0
C2187 C 0.81543 0.76726 0.13263 0.0
C2188 C 0.79515 0.77264 0.13991 0.0
C2189 C 0.85232 0.75692 0.11804 0.0
C2190 C 0.83346 0.74405 0.1172 0.0
C2191 C 0.81519 0.7494 0.12441 0.0
C2192 C 0.83327 0.72429 0.10937 0.0
C2193 C 0.87252 0.75156 0.11064 0.0
C2194 C 0.83408 0.72591 0.0962 0.0
C2195 C 0.83864 0.70765 0.0889 0.0
C2196 C 0.84247 0.68749 0.0947 0.0
C2197 C 0.83991 0.68563 0.10784 0.0
C2198 C 0.83537 0.70394 0.11513 0.0
H2199 H 0.88668 0.7613 0.11372 0.0
H2200 H 0.87657 0.73412 0.11163 0.0
H2201 H 0.86963 0.75486 0.10048 0.0
H2202 H 0.83239 0.74151 0.09162 0.0
H2203 H 0.84023 0.70959 0.07878 0.0
H2204 H 0.90224 0.11637 0.89745 0.0
H2205 H 0.92655 0.10419 0.88069 0.0
H2206 H 0.97062 0.07889 0.90865 0.0
H2207 H 0.9462 0.09025 0.92534 0.0
H2208 H 0.96471 0.12149 0.87819 0.0
H2209 H 0.97694 0.03329 0.88239 0.0
H2210 H 0.95472 0.04703 0.89004 0.0
H2211 H 0.98108 0.04617 0.89734 0.0
C2212 C 0.91678 0.1076 0.90001 0.0
C2213 C 0.92236 0.10446 0.91274 0.0
C2214 C 0.93065 0.10062 0.89042 0.0
C2215 C 0.95038 0.09047 0.89338 0.0
C2216 C 0.95528 0.08613 0.90606 0.0
H2217 H 0.07732 0.09735 0.86372 0.0
H2218 H 0.04479 0.08947 0.87611 0.0
C2219 C 0.94132 0.09285 0.91564 0.0
C2220 C 0.96737 0.08792 0.88359 0.0
H2221 H 0.00655 0.05354 0.87271 0.0
C2222 C 0.97348 0.10646 0.87679 0.0
C2223 C 0.97897 0.06837 0.8818 0.0
C2224 C 0.97241 0.04756 0.8882 0.0
C2225 C 0.99144 0.10629 0.86874 0.0
C2226 C 0.00362 0.08707 0.86744 0.0
C2227 C 0.99719 0.06827 0.87385 0.0
C2228 C 0.02368 0.08695 0.8599 0.0
C2229 C -0.00213 0.12691 0.86204 0.0
C2230 C 0.02257 0.08733 0.8467 0.0
C2231 C 0.04106 0.09188 0.8396 0.0
C2232 C 0.06092 0.09621 0.84561 0.0
C2233 C 0.06226 0.09421 0.85881 0.0
C2234 C 0.04373 0.08964 0.8659 0.0
H2235 H 0.98778 0.14095 0.86494 0.0
H2236 H 0.01512 0.13074 0.86399 0.0
H2237 H 0.99613 0.12467 0.8517 0.0
H2238 H 0.00718 0.08531 0.84194 0.0
H2239 H 0.03951 0.09308 0.82944 0.0
H2240 H 0.82856 0.83052 0.60399 0.0
H2241 H 0.81701 0.8028 0.61916 0.0
H2242 H 0.85049 0.754 0.59756 0.0
H2243 H 0.86151 0.78125 0.58227 0.0
H2244 H 0.81161 0.73917 0.60679 0.0
H2245 H 0.86003 0.77908 0.64457 0.0
H2246 H 0.83908 0.79526 0.63756 0.0
H2247 H 0.86199 0.78709 0.62825 0.0
C2248 C 0.83323 0.81384 0.60241 0.0
C2249 C 0.84623 0.80816 0.59203 0.0
C2250 C 0.82669 0.79804 0.6111 0.0
C2251 C 0.83326 0.77641 0.60961 0.0
C2252 C 0.84528 0.77059 0.59892 0.0
H2253 H 0.86109 0.66012 0.6461 0.0
H2254 H 0.8491 0.68769 0.63119 0.0
C2255 C 0.85167 0.78626 0.59021 0.0
C2256 C 0.82922 0.75992 0.61952 0.0
H2257 H 0.84455 0.74556 0.64931 0.0
C2258 C 0.81851 0.74068 0.61616 0.0
C2259 C 0.83823 0.76193 0.63175 0.0
C2260 C 0.85062 0.78184 0.63578 0.0
C2261 C 0.81735 0.72307 0.62453 0.0
C2262 C 0.82729 0.72474 0.6365 0.0
C2263 C 0.83688 0.74438 0.64012 0.0
C2264 C 0.83038 0.70576 0.64487 0.0
C2265 C 0.80598 0.70268 0.62039 0.0
C2266 C 0.82348 0.70649 0.65747 0.0
C2267 C 0.83038 0.69075 0.66606 0.0
C2268 C 0.84457 0.67416 0.66224 0.0
C2269 C 0.85022 0.67267 0.6494 0.0
C2270 C 0.84325 0.68837 0.64081 0.0
H2271 H 0.79353 0.70616 0.6131 0.0
H2272 H 0.81801 0.69143 0.61621 0.0
H2273 H 0.79812 0.6944 0.6285 0.0
H2274 H 0.81364 0.71984 0.6608 0.0
H2275 H 0.8256 0.69237 0.67583 0.0
H2276 H 0.4116 0.60718 0.86616 0.0
H2277 H 0.44284 0.59863 0.87948 0.0
H2278 H 0.47834 0.57719 0.84678 0.0
H2279 H 0.44726 0.58566 0.83335 0.0
H2280 H 0.48176 0.55302 0.87508 0.0
H2281 H 0.49905 0.64109 0.86905 0.0
H2282 H 0.47159 0.63281 0.8722 0.0
H2283 H 0.48398 0.62589 0.85745 0.0
C2284 C 0.4258 0.60006 0.86183 0.0
C2285 C 0.42709 0.59744 0.84867 0.0
C2286 C 0.44359 0.59513 0.86946 0.0
C2287 C 0.4628 0.58738 0.86406 0.0
C2288 C 0.46356 0.58308 0.85109 0.0
H2289 H 0.58913 0.61328 0.89561 0.0
H2290 H 0.56109 0.60255 0.88063 0.0
C2291 C 0.44582 0.58805 0.84344 0.0
C2292 C 0.48296 0.5873 0.8715 0.0
H2293 H 0.52195 0.62145 0.88246 0.0
C2294 C 0.49068 0.56789 0.87669 0.0
C2295 C 0.49459 0.60672 0.87336 0.0
C2296 C 0.48706 0.62787 0.86771 0.0
C2297 C 0.50969 0.56754 0.884 0.0
C2298 C 0.52096 0.58715 0.8862 0.0
C2299 C 0.51338 0.60641 0.88072 0.0
C2300 C 0.53988 0.58871 0.89475 0.0
C2301 C 0.51758 0.54626 0.88926 0.0
C2302 C 0.53762 0.58376 0.9076 0.0
C2303 C 0.55368 0.58978 0.9162 0.0
C2304 C 0.57214 0.60115 0.9121 0.0
C2305 C 0.57505 0.6047 0.8991 0.0
C2306 C 0.55905 0.59854 0.89051 0.0
H2307 H 0.51148 0.53237 0.88362 0.0
H2308 H 0.53554 0.54562 0.8895 0.0
H2309 H 0.51149 0.54436 0.89905 0.0
H2310 H 0.5228 0.5766 0.91113 0.0
H2311 H 0.55086 0.58683 0.92614 0.0
H2312 H 0.66466 0.1896 0.0876 0.0
H2313 H 0.67899 0.21789 0.10159 0.0
H2314 H 0.6223 0.21213 0.12514 0.0
H2315 H 0.60815 0.18391 0.11146 0.0
H2316 H 0.66011 0.25696 0.1061 0.0
H2317 H 0.6698 0.21385 0.15123 0.0
H2318 H 0.66722 0.19972 0.13638 0.0
H2319 H 0.64347 0.20848 0.14487 0.0
C2320 C 0.65551 0.19407 0.09593 0.0
C2321 C 0.63525 0.18456 0.09843 0.0
C2322 C 0.6637 0.21024 0.10388 0.0
C2323 C 0.65188 0.21687 0.11451 0.0
C2324 C 0.63198 0.20691 0.11718 0.0
H2325 H 0.61553 0.3297 0.14877 0.0
H2326 H 0.62822 0.30299 0.13365 0.0
C2327 C 0.62381 0.19087 0.10927 0.0
C2328 C 0.65881 0.23565 0.12221 0.0
H2329 H 0.66045 0.25229 0.15282 0.0
C2330 C 0.66081 0.25592 0.11631 0.0
C2331 C 0.66037 0.23428 0.1355 0.0
C2332 C 0.66035 0.21283 0.14233 0.0
C2333 C 0.66208 0.27504 0.12343 0.0
C2334 C 0.66076 0.27381 0.13675 0.0
C2335 C 0.66104 0.25339 0.14261 0.0
C2336 C 0.65601 0.29302 0.14471 0.0
C2337 C 0.66407 0.29636 0.11658 0.0
C2338 C 0.66743 0.29656 0.15598 0.0
C2339 C 0.65989 0.31158 0.16481 0.0
C2340 C 0.64081 0.32338 0.16252 0.0
C2341 C 0.63033 0.32097 0.15083 0.0
C2342 C 0.63772 0.30577 0.14208 0.0
H2343 H 0.67385 0.29447 0.10785 0.0
H2344 H 0.64772 0.30195 0.1137 0.0
H2345 H 0.67165 0.30898 0.12259 0.0
H2346 H 0.68157 0.28691 0.15823 0.0
H2347 H 0.66845 0.31323 0.17367 0.0
H2348 H 0.93247 0.42075 0.42513 0.0
H2349 H 0.95779 0.43427 0.4093 0.0
H2350 H 0.93223 0.38891 0.38219 0.0
H2351 H 0.90684 0.3753 0.39791 0.0
H2352 H 0.98813 0.40574 0.40003 0.0
H2353 H 0.94284 0.44261 0.36048 0.0
H2354 H 0.9313 0.43926 0.37605 0.0
H2355 H 0.93187 0.41691 0.36516 0.0
C2356 C 0.93179 0.41402 0.41571 0.0
C2357 C 0.91787 0.39663 0.41288 0.0
C2358 C 0.94625 0.42185 0.40666 0.0
C2359 C 0.94686 0.41265 0.39457 0.0
C2360 C 0.9318 0.39652 0.3914 0.0
H2361 H 0.02772 0.38042 0.33473 0.0
H2362 H -0.00125 0.39064 0.34908 0.0
C2363 C 0.91736 0.38864 0.40045 0.0
C2364 C 0.96542 0.41694 0.38608 0.0
H2365 H 0.97835 0.42841 0.3555 0.0
C2366 C 0.98614 0.41122 0.39037 0.0
C2367 C 0.9627 0.42401 0.3735 0.0
C2368 C 0.94099 0.43125 0.36855 0.0
C2369 C 0.00396 0.41079 0.38218 0.0
C2370 C 0.00104 0.41681 0.3694 0.0
C2371 C 0.98056 0.4238 0.36529 0.0
C2372 C 0.01822 0.41313 0.35987 0.0
C2373 C 0.02532 0.40235 0.38709 0.0
C2374 C 0.03871 0.42286 0.36092 0.0
C2375 C 0.05553 0.41678 0.35279 0.0
C2376 C 0.05199 0.40111 0.34339 0.0
C2377 C 0.03109 0.39241 0.34192 0.0
C2378 C 0.01443 0.39833 0.35009 0.0
H2379 H 0.02365 0.3945 0.39648 0.0
H2380 H 0.03241 0.39042 0.38043 0.0
H2381 H 0.03685 0.41602 0.38807 0.0
H2382 H 0.04185 0.43469 0.36823 0.0
H2383 H 0.07137 0.42398 0.35406 0.0
H2384 H 0.84642 0.20754 0.91511 0.0
H2385 H 0.83958 0.23761 0.90072 0.0
H2386 H 0.84061 0.19359 0.86914 0.0
H2387 H 0.84778 0.16336 0.88347 0.0
H2388 H 0.8705 0.2263 0.86735 0.0
H2389 H 0.78999 0.26058 0.87896 0.0
H2390 H 0.80699 0.25657 0.89251 0.0
H2391 H 0.79802 0.23355 0.88354 0.0
C2392 C 0.84466 0.20413 0.90513 0.0
C2393 C 0.84795 0.18308 0.90041 0.0
C2394 C 0.84055 0.22135 0.89692 0.0
C2395 C 0.83946 0.21783 0.88387 0.0
C2396 C 0.84131 0.19662 0.8792 0.0
H2397 H 0.83431 0.30905 0.8218 0.0
H2398 H 0.82413 0.28168 0.83737 0.0
C2399 C 0.84541 0.17937 0.88741 0.0
C2400 C 0.83988 0.23647 0.87507 0.0
H2401 H 0.81391 0.28336 0.86695 0.0
C2402 C 0.85799 0.23862 0.86717 0.0
C2403 C 0.82358 0.25258 0.87489 0.0
C2404 C 0.80344 0.25066 0.88284 0.0
C2405 C 0.86051 0.25667 0.85931 0.0
C2406 C 0.84461 0.27311 0.85943 0.0
C2407 C 0.82619 0.2708 0.86705 0.0
C2408 C 0.84709 0.29249 0.85141 0.0
C2409 C 0.88026 0.25815 0.85096 0.0
C2410 C 0.86269 0.30816 0.85442 0.0
C2411 C 0.8686 0.32383 0.84554 0.0
C2412 C 0.85908 0.32392 0.83347 0.0
C2413 C 0.84215 0.30929 0.83093 0.0
C2414 C 0.83621 0.29369 0.83983 0.0
H2415 H 0.88936 0.24264 0.8506 0.0
H2416 H 0.87556 0.26277 0.84121 0.0
H2417 H 0.89124 0.2709 0.85464 0.0
H2418 H 0.87123 0.30743 0.86334 0.0
H2419 H 0.88161 0.33489 0.84785 0.0
H2420 H 0.91127 0.63428 0.09865 0.0
H2421 H 0.93943 0.62397 0.11357 0.0
H2422 H 0.95274 0.56646 0.09183 0.0
H2423 H 0.92497 0.57707 0.07655 0.0
H2424 H 0.95112 0.59007 0.12862 0.0
H2425 H 0.009 0.59943 0.08865 0.0
H2426 H 0.98089 0.6068 0.08729 0.0
H2427 H 0.98879 0.57879 0.08683 0.0
C2428 C 0.91978 0.61916 0.09717 0.0
C2429 C 0.91627 0.60678 0.08623 0.0
C2430 C 0.93591 0.61327 0.10574 0.0
C2431 C 0.94863 0.59479 0.1036 0.0
C2432 C 0.94355 0.58113 0.09344 0.0
H2433 H 0.05699 0.58437 0.15823 0.0
H2434 H 0.02707 0.57152 0.14495 0.0
C2435 C 0.92761 0.58717 0.08476 0.0
C2436 C 0.96865 0.59166 0.1111 0.0
H2437 H 0.02366 0.5955 0.10879 0.0
C2438 C 0.96702 0.59082 0.12431 0.0
C2439 C 0.98938 0.59282 0.10541 0.0
C2440 C 0.99225 0.59467 0.09128 0.0
C2441 C 0.98547 0.59242 0.132 0.0
C2442 C 0.00608 0.59444 0.12629 0.0
C2443 C 0.00781 0.59386 0.1131 0.0
C2444 C 0.0255 0.60068 0.13364 0.0
C2445 C 0.98262 0.59348 0.14614 0.0
C2446 C 0.03507 0.62089 0.13132 0.0
C2447 C 0.0522 0.62815 0.13875 0.0
C2448 C 0.06011 0.61535 0.1487 0.0
C2449 C 0.05116 0.59466 0.15067 0.0
C2450 C 0.03398 0.58735 0.14317 0.0
H2451 H 0.96534 0.59495 0.14891 0.0
H2452 H 0.98922 0.57851 0.15047 0.0
H2453 H 0.99165 0.60747 0.15009 0.0
H2454 H 0.02882 0.63141 0.12398 0.0
H2455 H 0.05877 0.64411 0.13692 0.0
H2456 H 0.63631 0.78201 0.41422 0.0
H2457 H 0.64548 0.75388 0.39911 0.0
H2458 H 0.67051 0.80215 0.37353 0.0
H2459 H 0.66081 0.83067 0.38856 0.0
H2460 H 0.64093 0.77721 0.36253 0.0
H2461 H 0.69898 0.72372 0.38691 0.0
H2462 H 0.67558 0.72837 0.39654 0.0
H2463 H 0.69299 0.75073 0.39245 0.0
C2464 C 0.64416 0.78669 0.4055 0.0
C2465 C 0.64761 0.80863 0.40254 0.0
C2466 C 0.64964 0.7705 0.3969 0.0
C2467 C 0.65898 0.77584 0.38525 0.0
C2468 C 0.66346 0.79766 0.38251 0.0
H2469 H 0.65941 0.69223 0.31844 0.0
H2470 H 0.6715 0.71972 0.33341 0.0
C2471 C 0.65788 0.81393 0.39111 0.0
C2472 C 0.66097 0.759 0.37534 0.0
H2473 H 0.67755 0.70693 0.37028 0.0
C2474 C 0.6494 0.76205 0.36408 0.0
C2475 C 0.67195 0.73918 0.37741 0.0
C2476 C 0.68575 0.73541 0.38894 0.0
C2477 C 0.64737 0.74539 0.35519 0.0
C2478 C 0.65741 0.72521 0.35757 0.0
C2479 C 0.6698 0.72241 0.36854 0.0
C2480 C 0.65363 0.70648 0.34917 0.0
C2481 C 0.63348 0.74909 0.34366 0.0
C2482 C 0.64045 0.68938 0.35327 0.0
C2483 C 0.63352 0.67356 0.34475 0.0
C2484 C 0.6397 0.67463 0.33198 0.0
C2485 C 0.6542 0.69096 0.32816 0.0
C2486 C 0.66112 0.70674 0.33669 0.0
H2487 H 0.62405 0.76437 0.34427 0.0
H2488 H 0.64399 0.75001 0.33518 0.0
H2489 H 0.62203 0.73542 0.34231 0.0
H2490 H 0.63455 0.68892 0.3629 0.0
H2491 H 0.62249 0.66115 0.34804 0.0
H2492 H 0.56989 0.41837 0.57376 0.0
H2493 H 0.54546 0.43338 0.58964 0.0
H2494 H 0.55478 0.37644 0.61266 0.0
H2495 H 0.57966 0.3618 0.59711 0.0
H2496 H 0.50867 0.41594 0.59403 0.0
H2497 H 0.54986 0.41997 0.63985 0.0
H2498 H 0.56478 0.41758 0.62526 0.0
H2499 H 0.55479 0.39376 0.63326 0.0
C2500 C 0.56728 0.40939 0.5824 0.0
C2501 C 0.57649 0.38875 0.58409 0.0
C2502 C 0.55333 0.41802 0.59149 0.0
C2503 C 0.54828 0.40613 0.60241 0.0
C2504 C 0.55877 0.38626 0.60452 0.0
H2505 H 0.43431 0.36499 0.63222 0.0
H2506 H 0.4642 0.37839 0.6195 0.0
C2507 C 0.57293 0.37777 0.59552 0.0
C2508 C 0.52936 0.41218 0.61032 0.0
H2509 H 0.51106 0.40959 0.64066 0.0
C2510 C 0.50935 0.41524 0.60425 0.0
C2511 C 0.53007 0.41183 0.62367 0.0
C2512 C 0.55113 0.41086 0.63084 0.0
C2513 C 0.48994 0.41562 0.61109 0.0
C2514 C 0.49051 0.41231 0.62428 0.0
C2515 C 0.51058 0.41162 0.63049 0.0
C2516 C 0.47082 0.40612 0.6314 0.0
C2517 C 0.46893 0.41851 0.60402 0.0
C2518 C 0.46464 0.41718 0.6424 0.0
C2519 C 0.44747 0.40944 0.64977 0.0
C2520 C 0.43651 0.39035 0.64634 0.0
C2521 C 0.44239 0.37974 0.63513 0.0
C2522 C 0.45939 0.3875 0.62778 0.0
H2523 H 0.47127 0.42886 0.59555 0.0
H2524 H 0.46311 0.40247 0.60073 0.0
H2525 H 0.45626 0.42589 0.61009 0.0
H2526 H 0.47339 0.43147 0.64541 0.0
H2527 H 0.44337 0.41791 0.6584 0.0
H2528 H 0.16343 0.18879 0.40795 0.0
H2529 H 0.17748 0.21808 0.39455 0.0
H2530 H 0.1169 0.21977 0.3743 0.0
H2531 H 0.10299 0.19052 0.38736 0.0
H2532 H 0.15306 0.22263 0.35872 0.0
H2533 H 0.15725 0.28123 0.39864 0.0
H2534 H 0.17223 0.25635 0.40001 0.0
H2535 H 0.14319 0.25572 0.40001 0.0
C2536 C 0.15324 0.19525 0.40053 0.0
C2537 C 0.13202 0.18748 0.39878 0.0
C2538 C 0.16124 0.21206 0.39295 0.0
C2539 C 0.1481 0.2213 0.38358 0.0
C2540 C 0.1273 0.2129 0.38151 0.0
H2541 H 0.11217 0.33319 0.34928 0.0
H2542 H 0.12503 0.30612 0.36418 0.0
C2543 C 0.11934 0.19619 0.38902 0.0
C2544 C 0.15511 0.24034 0.37612 0.0
H2545 H 0.16039 0.29526 0.37821 0.0
C2546 C 0.15521 0.23848 0.36294 0.0
C2547 C 0.15786 0.26094 0.38173 0.0
C2548 C 0.15755 0.26388 0.39587 0.0
C2549 C 0.15613 0.25684 0.35516 0.0
C2550 C 0.15765 0.27763 0.36078 0.0
C2551 C 0.15931 0.27932 0.37395 0.0
C2552 C 0.15347 0.29754 0.35333 0.0
C2553 C 0.15353 0.25385 0.34109 0.0
C2554 C 0.16596 0.30278 0.3427 0.0
C2555 C 0.15843 0.3181 0.33401 0.0
C2556 C 0.1385 0.32863 0.33597 0.0
C2557 C 0.12747 0.32524 0.3474 0.0
C2558 C 0.13483 0.30974 0.35597 0.0
H2559 H 0.14903 0.23698 0.33857 0.0
H2560 H 0.1409 0.2649 0.33734 0.0
H2561 H 0.16905 0.2577 0.33631 0.0
H2562 H 0.18075 0.29403 0.34069 0.0
H2563 H 0.16756 0.3207 0.32542 0.0
H2564 H 0.53872 0.40233 0.1673 0.0
H2565 H 0.50653 0.4095 0.15453 0.0
H2566 H 0.5437 0.39953 0.12061 0.0
H2567 H 0.57603 0.39225 0.13326 0.0
H2568 H 0.49693 0.43852 0.13106 0.0
H2569 H 0.49602 0.34907 0.1244 0.0
H2570 H 0.51106 0.36196 0.13693 0.0
H2571 H 0.52116 0.36264 0.12105 0.0
C2572 C 0.5402 0.40215 0.15711 0.0
C2573 C 0.55984 0.39631 0.15129 0.0
C2574 C 0.52181 0.40637 0.14985 0.0
C2575 C 0.52279 0.40483 0.13668 0.0
C2576 C 0.54271 0.40073 0.13079 0.0
H2577 H 0.43413 0.41427 0.07554 0.0
H2578 H 0.45961 0.42377 0.09216 0.0
C2579 C 0.56114 0.39654 0.13804 0.0
C2580 C 0.50258 0.40426 0.12926 0.0
H2581 H 0.47005 0.36927 0.11321 0.0
C2582 C 0.49092 0.42343 0.12717 0.0
C2583 C 0.49467 0.38444 0.12446 0.0
C2584 C 0.50622 0.36328 0.12687 0.0
C2585 C 0.47175 0.42333 0.12 0.0
C2586 C 0.46429 0.40358 0.11481 0.0
C2587 C 0.47572 0.38439 0.11724 0.0
C2588 C 0.44563 0.40224 0.10607 0.0
C2589 C 0.45965 0.44426 0.11804 0.0
C2590 C 0.42883 0.38749 0.10848 0.0
C2591 C 0.41433 0.3818 0.09892 0.0
C2592 C 0.4165 0.39068 0.08676 0.0
C2593 C 0.43207 0.40698 0.08475 0.0
C2594 C 0.4466 0.4126 0.09431 0.0
H2595 H 0.46344 0.45619 0.12558 0.0
H2596 H 0.46454 0.45145 0.10887 0.0
H2597 H 0.44188 0.44151 0.11783 0.0
H2598 H 0.42782 0.37931 0.11751 0.0
H2599 H 0.40243 0.36934 0.10084 0.0
H2600 H 0.33694 0.8329 0.88647 0.0
H2601 H 0.32702 0.80441 0.87149 0.0
H2602 H 0.3422 0.75584 0.89941 0.0
H2603 H 0.35144 0.78403 0.91448 0.0
H2604 H 0.3557 0.77651 0.86289 0.0
H2605 H 0.28914 0.72951 0.88425 0.0
H2606 H 0.29658 0.75611 0.88985 0.0
H2607 H 0.31107 0.73248 0.89519 0.0
C2608 C 0.3376 0.81616 0.88952 0.0
C2609 C 0.34518 0.81073 0.90162 0.0
C2610 C 0.3319 0.7999 0.88096 0.0
C2611 C 0.33363 0.77797 0.88436 0.0
C2612 C 0.34016 0.77261 0.89665 0.0
H2613 H 0.3687 0.66089 0.8487 0.0
H2614 H 0.35665 0.689 0.86337 0.0
C2615 C 0.34569 0.78881 0.90522 0.0
C2616 C 0.33198 0.76076 0.87465 0.0
H2617 H 0.3117 0.71012 0.86914 0.0
C2618 C 0.34567 0.76224 0.86411 0.0
C2619 C 0.31899 0.74206 0.87627 0.0
C2620 C 0.30296 0.74006 0.88695 0.0
C2621 C 0.3476 0.74511 0.85554 0.0
C2622 C 0.33541 0.72604 0.85751 0.0
C2623 C 0.32109 0.72477 0.86774 0.0
C2624 C 0.3386 0.70694 0.84935 0.0
C2625 C 0.36344 0.74709 0.84474 0.0
C2626 C 0.33167 0.70736 0.83677 0.0
C2627 C 0.33856 0.69141 0.82836 0.0
C2628 C 0.35254 0.67477 0.83239 0.0
C2629 C 0.35806 0.67352 0.84526 0.0
C2630 C 0.35114 0.68952 0.85367 0.0
H2631 H 0.37367 0.76183 0.8455 0.0
H2632 H 0.37417 0.73267 0.84437 0.0
H2633 H 0.3544 0.74787 0.8357 0.0
H2634 H 0.32192 0.72069 0.83331 0.0
H2635 H 0.33387 0.69286 0.81855 0.0
H2636 H 0.07088 0.578 0.57571 0.0
H2637 H 0.04241 0.56741 0.59053 0.0
H2638 H 0.05515 0.62457 0.6127 0.0
H2639 H 0.08396 0.63492 0.59821 0.0
H2640 H 0.04321 0.59011 0.62744 0.0
H2641 H 0.98621 0.60065 0.58713 0.0
H2642 H 0.00649 0.58007 0.58531 0.0
H2643 H 0.01435 0.60807 0.58604 0.0
C2644 C 0.06794 0.58807 0.5839 0.0
C2645 C 0.07935 0.60757 0.58563 0.0
C2646 C 0.0516 0.58202 0.59233 0.0
C2647 C 0.04623 0.59555 0.60249 0.0
C2648 C 0.05891 0.61397 0.60485 0.0
H2649 H 0.93633 0.64513 0.63559 0.0
H2650 H 0.96636 0.63235 0.62274 0.0
C2651 C 0.0754 0.61989 0.59654 0.0
C2652 C 0.02605 0.59228 0.60981 0.0
H2653 H 0.97112 0.59655 0.60715 0.0
C2654 C 0.0274 0.59107 0.62302 0.0
C2655 C 0.00545 0.59368 0.60398 0.0
C2656 C 0.0029 0.59585 0.58985 0.0
C2657 C 0.0088 0.59256 0.6306 0.0
C2658 C 0.98833 0.59491 0.62476 0.0
C2659 C 0.98687 0.59466 0.61155 0.0
C2660 C 0.96886 0.60122 0.63203 0.0
C2661 C 0.01135 0.59319 0.64476 0.0
C2662 C 0.95991 0.5877 0.64131 0.0
C2663 C 0.94267 0.59504 0.64877 0.0
C2664 C 0.93416 0.61597 0.64698 0.0
C2665 C 0.94257 0.62899 0.63728 0.0
C2666 C 0.95973 0.62168 0.62989 0.0
H2667 H 0.02859 0.59425 0.64768 0.0
H2668 H 0.0025 0.60726 0.64877 0.0
H2669 H 0.00435 0.57825 0.64891 0.0
H2670 H 0.96649 0.57169 0.64295 0.0
H2671 H 0.93646 0.58459 0.65614 0.0
H2672 H 0.14419 0.65073 0.14966 0.0
H2673 H 0.15621 0.67644 0.13358 0.0
H2674 H 0.1696 0.72359 0.16259 0.0
H2675 H 0.15844 0.6978 0.17866 0.0
H2676 H 0.13357 0.71138 0.13001 0.0
H2677 H 0.21771 0.73738 0.13887 0.0
H2678 H 0.20644 0.71325 0.14593 0.0
H2679 H 0.20177 0.73942 0.15295 0.0
C2680 C 0.15046 0.6663 0.15264 0.0
C2681 C 0.15019 0.67228 0.16543 0.0
C2682 C 0.15734 0.68099 0.14344 0.0
C2683 C 0.16388 0.70198 0.14685 0.0
C2684 C 0.16515 0.70738 0.15969 0.0
H2685 H 0.14568 0.82676 0.11469 0.0
H2686 H 0.15615 0.79607 0.12801 0.0
C2687 C 0.1586 0.69259 0.16891 0.0
C2688 C 0.16532 0.71923 0.13711 0.0
H2689 H 0.195 0.76296 0.12745 0.0
C2690 C 0.14725 0.72232 0.12928 0.0
C2691 C 0.18305 0.73371 0.13622 0.0
C2692 C 0.20341 0.73062 0.14387 0.0
C2693 C 0.14601 0.7399 0.12097 0.0
C2694 C 0.16335 0.75477 0.12041 0.0
C2695 C 0.18171 0.75151 0.12796 0.0
C2696 C 0.16183 0.77427 0.11239 0.0
C2697 C 0.12575 0.74295 0.11318 0.0
C2698 C 0.16238 0.7723 0.09923 0.0
C2699 C 0.15632 0.78971 0.0916 0.0
C2700 C 0.14958 0.80938 0.09703 0.0
C2701 C 0.15065 0.81179 0.11021 0.0
C2702 C 0.15671 0.79432 0.11784 0.0
H2703 H 0.11262 0.73164 0.116 0.0
H2704 H 0.11969 0.75981 0.11408 0.0
H2705 H 0.12956 0.74007 0.10308 0.0
H2706 H 0.16635 0.75692 0.09488 0.0
H2707 H 0.15593 0.78739 0.08147 0.0
H2708 H 0.95662 0.40789 0.82946 0.0
H2709 H 0.98703 0.41647 0.84336 0.0
H2710 H 0.94612 0.40748 0.87588 0.0
H2711 H 0.9155 0.39887 0.86209 0.0
H2712 H 0.98854 0.44697 0.87105 0.0
H2713 H -4e-05 0.35731 0.86974 0.0
H2714 H 0.98906 0.37169 0.85634 0.0
H2715 H 0.97303 0.36856 0.87031 0.0
C2716 C 0.9539 0.40829 0.83956 0.0
C2717 C 0.93374 0.40233 0.84469 0.0
C2718 C 0.97127 0.41334 0.84746 0.0
C2719 C 0.96872 0.41256 0.86059 0.0
C2720 C 0.94826 0.40829 0.86574 0.0
H2721 H 0.05252 0.4139 0.92496 0.0
H2722 H 0.02578 0.42439 0.90918 0.0
C2723 C 0.93082 0.4033 0.85784 0.0
C2724 C 0.98803 0.41235 0.86877 0.0
H2725 H 0.024 0.37738 0.88214 0.0
C2726 C 0.99641 0.43183 0.87349 0.0
C2727 C -0.00178 0.39255 0.87177 0.0
C2728 C 0.98976 0.37125 0.86681 0.0
C2729 C 0.01481 0.43193 0.88132 0.0
C2730 C 0.02478 0.41203 0.88451 0.0
C2731 C 0.01644 0.39264 0.87961 0.0
C2732 C 0.04316 0.4104 0.89344 0.0
C2733 C 0.02352 0.45325 0.88603 0.0
C2734 C 0.0621 0.39951 0.8898 0.0
C2735 C 0.07735 0.39327 0.89882 0.0
C2736 C 0.07387 0.39773 0.91168 0.0
C2737 C 0.05573 0.41019 0.91515 0.0
C2738 C 0.04044 0.41634 0.90611 0.0
H2739 H 0.01819 0.46694 0.87997 0.0
H2740 H 0.01737 0.4562 0.89572 0.0
H2741 H 0.04149 0.45308 0.8864 0.0
H2742 H 0.06447 0.39474 0.88006 0.0
H2743 H 0.09119 0.38383 0.89579 0.0
H2744 H 0.38548 0.18375 0.61309 0.0
H2745 H 0.37138 0.21266 0.6263 0.0
H2746 H 0.31309 0.2149 0.6039 0.0
H2747 H 0.32735 0.18596 0.59038 0.0
H2748 H 0.33086 0.25468 0.60682 0.0
H2749 H 0.32574 0.21546 0.65338 0.0
H2750 H 0.35184 0.21049 0.6466 0.0
H2751 H 0.32793 0.20008 0.63894 0.0
C2752 C 0.36949 0.19007 0.61107 0.0
C2753 C 0.35757 0.1826 0.60066 0.0
C2754 C 0.36135 0.20651 0.61871 0.0
C2755 C 0.34102 0.21571 0.61622 0.0
C2756 C 0.32874 0.20788 0.60605 0.0
H2757 H 0.32386 0.31669 0.6727 0.0
H2758 H 0.31114 0.28842 0.65836 0.0
C2759 C 0.33689 0.19133 0.59836 0.0
C2760 C 0.33402 0.23494 0.62351 0.0
H2761 H 0.33357 0.25431 0.65358 0.0
C2762 C 0.33085 0.25455 0.61706 0.0
C2763 C 0.33337 0.23474 0.63684 0.0
C2764 C 0.33465 0.21397 0.64432 0.0
C2765 C 0.32921 0.27424 0.62361 0.0
C2766 C 0.33135 0.27429 0.6369 0.0
C2767 C 0.33233 0.25444 0.64337 0.0
C2768 C 0.33563 0.2944 0.64417 0.0
C2769 C 0.3259 0.29479 0.61616 0.0
C2770 C 0.35316 0.3077 0.64079 0.0
C2771 C 0.36031 0.324 0.6489 0.0
C2772 C 0.35038 0.32702 0.6607 0.0
C2773 C 0.33199 0.31462 0.66374 0.0
C2774 C 0.32468 0.29847 0.65553 0.0
H2775 H 0.31574 0.29169 0.6077 0.0
H2776 H 0.3181 0.30761 0.62192 0.0
H2777 H 0.34182 0.3008 0.61279 0.0
H2778 H 0.36232 0.30457 0.63227 0.0
H2779 H 0.37458 0.33317 0.64629 0.0
H2780 H 0.40598 0.60512 0.39772 0.0
H2781 H 0.43368 0.59369 0.38268 0.0
H2782 H 0.47776 0.58121 0.41343 0.0
H2783 H 0.44998 0.5919 0.4285 0.0
H2784 H 0.46943 0.61634 0.3803 0.0
H2785 H 0.49277 0.5317 0.39062 0.0
H2786 H 0.46809 0.54358 0.39659 0.0
H2787 H 0.49346 0.54827 0.4045 0.0
C2788 C 0.42136 0.59932 0.4013 0.0
C2789 C 0.42584 0.59956 0.4143 0.0
C2790 C 0.43717 0.59275 0.39269 0.0
C2791 C 0.45779 0.58646 0.39691 0.0
C2792 C 0.46185 0.58547 0.40993 0.0
H2793 H 0.58382 0.60226 0.36503 0.0
H2794 H 0.55335 0.59316 0.37885 0.0
C2795 C 0.44594 0.59175 0.41856 0.0
C2796 C 0.47588 0.58452 0.38778 0.0
H2797 H 0.51892 0.55308 0.37904 0.0
C2798 C 0.47998 0.60231 0.37989 0.0
C2799 C 0.48981 0.56631 0.38733 0.0
C2800 C 0.48568 0.54631 0.39514 0.0
C2801 C 0.49789 0.60269 0.37182 0.0
C2802 C 0.51209 0.58478 0.3716 0.0
C2803 C 0.50795 0.56678 0.3793 0.0
C2804 C 0.53158 0.58518 0.36356 0.0
C2805 C 0.50191 0.62251 0.36379 0.0
C2806 C 0.52952 0.58288 0.35047 0.0
C2807 C 0.5468 0.58814 0.34256 0.0
C2808 C 0.56639 0.59586 0.34764 0.0
C2809 C 0.56892 0.59648 0.36083 0.0
C2810 C 0.55158 0.59121 0.36874 0.0
H2811 H 0.49068 0.636 0.36611 0.0
H2812 H 0.51881 0.62826 0.36503 0.0
H2813 H 0.49973 0.61829 0.35369 0.0
H2814 H 0.51414 0.57826 0.34635 0.0
H2815 H 0.54439 0.58725 0.33245 0.0
H2816 H 0.53862 0.32372 0.1853 0.0
H2817 H 0.51164 0.29565 0.18906 0.0
H2818 H 0.54815 0.27277 0.22112 0.0
H2819 H 0.5756 0.3005 0.21723 0.0
H2820 H 0.53797 0.24033 0.20559 0.0
H2821 H 0.46443 0.28871 0.21483 0.0
H2822 H 0.47703 0.29666 0.20031 0.0
H2823 H 0.49121 0.30044 0.21502 0.0
C2824 C 0.54075 0.31299 0.19329 0.0
C2825 C 0.5593 0.31432 0.20094 0.0
C2826 C 0.52522 0.29701 0.19548 0.0
C2827 C 0.52773 0.2823 0.20548 0.0
C2828 C 0.54587 0.28402 0.21338 0.0
H2829 H 0.42234 0.19014 0.21759 0.0
H2830 H 0.45064 0.21682 0.22181 0.0
C2831 C 0.56152 0.29989 0.21114 0.0
C2832 C 0.51242 0.26402 0.20693 0.0
H2833 H 0.45863 0.25185 0.20805 0.0
C2834 C 0.52063 0.24283 0.20635 0.0
C2835 C 0.48986 0.26726 0.20813 0.0
C2836 C 0.48015 0.28951 0.20975 0.0
C2837 C 0.50679 0.22483 0.20628 0.0
C2838 C 0.48415 0.22818 0.20648 0.0
C2839 C 0.476 0.2493 0.20773 0.0
C2840 C 0.46855 0.21023 0.20468 0.0
C2841 C 0.51659 0.20246 0.2059 0.0
C2842 C 0.46938 0.19747 0.19373 0.0
C2843 C 0.45335 0.18207 0.19134 0.0
C2844 C 0.43597 0.17942 0.19977 0.0
C2845 C 0.43548 0.19183 0.21089 0.0
C2846 C 0.45163 0.20709 0.21332 0.0
H2847 H 0.53303 0.20233 0.21016 0.0
H2848 H 0.50633 0.19051 0.21096 0.0
H2849 H 0.51821 0.19722 0.19593 0.0
H2850 H 0.48197 0.19999 0.18677 0.0
H2851 H 0.45412 0.1729 0.18264 0.0
H2852 H 0.91714 0.28698 0.43962 0.0
H2853 H 0.94605 0.26032 0.44214 0.0
H2854 H 0.98623 0.3086 0.45995 0.0
H2855 H 0.95719 0.33517 0.45784 0.0
H2856 H 0.98497 0.26244 0.43143 0.0
H2857 H 0.99493 0.258 0.48336 0.0
H2858 H 0.9718 0.27066 0.47602 0.0
H2859 H 0.99703 0.28507 0.47732 0.0
C2860 C 0.932 0.29183 0.44426 0.0
C2861 C 0.93488 0.31318 0.44853 0.0
C2862 C 0.9485 0.27658 0.44569 0.0
C2863 C 0.96821 0.28241 0.45135 0.0
C2864 C 0.97098 0.3036 0.45583 0.0
H2865 H 0.08616 0.20948 0.43605 0.0
H2866 H 0.05978 0.23877 0.4383 0.0
C2867 C 0.95439 0.3188 0.45455 0.0
C2868 C 0.98639 0.2668 0.45158 0.0
H2869 H 0.02258 0.24147 0.47096 0.0
C2870 C 0.99314 0.25779 0.44008 0.0
C2871 C 0.99693 0.26069 0.46289 0.0
C2872 C 0.98968 0.26894 0.47561 0.0
C2873 C 0.0101 0.24278 0.43956 0.0
C2874 C 0.02109 0.23715 0.45081 0.0
C2875 C 0.01434 0.2461 0.46233 0.0
C2876 C 0.03867 0.22089 0.45085 0.0
C2877 C 0.01562 0.23263 0.427 0.0
C2878 C 0.03618 0.20169 0.45777 0.0
C2879 C 0.05137 0.18508 0.45667 0.0
C2880 C 0.06927 0.18735 0.44857 0.0
C2881 C 0.0724 0.20712 0.44224 0.0
C2882 C 0.05729 0.22382 0.44345 0.0
H2883 H 0.00224 0.23448 0.42007 0.0
H2884 H 0.03016 0.2407 0.42303 0.0
H2885 H 0.01923 0.21511 0.42807 0.0
H2886 H 0.02199 0.19917 0.4636 0.0
H2887 H 0.04851 0.17011 0.46174 0.0
H2888 H 0.91169 0.70021 0.7088 0.0
H2889 H 0.93967 0.72777 0.71115 0.0
H2890 H 0.98265 0.69029 0.68765 0.0
H2891 H 0.95445 0.66288 0.68489 0.0
H2892 H 0.98076 0.72851 0.72003 0.0
H2893 H 0.9795 0.74716 0.6688 0.0
H2894 H 0.95964 0.72989 0.67616 0.0
H2895 H 0.98597 0.71944 0.67219 0.0
C2896 C 0.92715 0.69768 0.70421 0.0
C2897 C 0.93074 0.6795 0.69649 0.0
C2898 C 0.94313 0.71346 0.70559 0.0
C2899 C 0.96301 0.7113 0.69933 0.0
C2900 C 0.96717 0.69253 0.69227 0.0
H2901 H 0.07675 0.79127 0.70973 0.0
H2902 H 0.04888 0.76347 0.71152 0.0
C2903 C 0.9511 0.67683 0.69077 0.0
C2904 C 0.97889 0.72922 0.69973 0.0
H2905 H 0.00644 0.76463 0.68098 0.0
C2906 C 0.98638 0.73647 0.71151 0.0
C2907 C 0.98578 0.73986 0.68861 0.0
C2908 C 0.97716 0.73387 0.67573 0.0
C2909 C 0.00085 0.75392 0.71244 0.0
C2910 C 0.00839 0.76397 0.70128 0.0
C2911 C 0.00071 0.75684 0.68953 0.0
C2912 C 0.02448 0.78173 0.70142 0.0
C2913 C 0.00753 0.76165 0.72538 0.0
C2914 C 0.02009 0.8012 0.69506 0.0
C2915 C 0.03613 0.81698 0.69381 0.0
C2916 C 0.05683 0.81359 0.69894 0.0
C2917 C 0.06091 0.79445 0.70575 0.0
C2918 C 0.04494 0.77857 0.70686 0.0
H2919 H 0.99539 0.75713 0.73265 0.0
H2920 H 0.02312 0.75392 0.728 0.0
H2921 H 0.00974 0.77949 0.72556 0.0
H2922 H 0.0044 0.80395 0.69078 0.0
H2923 H 0.03247 0.83158 0.68855 0.0
H2924 H 0.57766 0.70408 0.9302 0.0
H2925 H 0.54965 0.73119 0.93404 0.0
H2926 H 0.5337 0.70028 0.96935 0.0
H2927 H 0.56135 0.67282 0.96549 0.0
H2928 H 0.49854 0.70595 0.95466 0.0
H2929 H 0.54464 0.78267 0.95743 0.0
H2930 H 0.55082 0.76758 0.94342 0.0
H2931 H 0.55749 0.75648 0.95865 0.0
C2932 C 0.56854 0.70331 0.93892 0.0
C2933 C 0.57165 0.68623 0.9475 0.0
C2934 C 0.55258 0.71889 0.94112 0.0
C2935 C 0.53973 0.71784 0.95203 0.0
C2936 C 0.54347 0.70137 0.96088 0.0
H2937 H 0.44504 0.81925 0.96727 0.0
H2938 H 0.47383 0.79254 0.96998 0.0
C2939 C 0.5593 0.68572 0.95865 0.0
C2940 C 0.52104 0.73258 0.95359 0.0
H2941 H 0.5065 0.78583 0.95341 0.0
C2942 C 0.50029 0.72343 0.95456 0.0
C2943 C 0.52338 0.75534 0.95361 0.0
C2944 C 0.54531 0.7661 0.95335 0.0
C2945 C 0.48173 0.73645 0.95508 0.0
C2946 C 0.484 0.75919 0.95434 0.0
C2947 C 0.50479 0.76836 0.95386 0.0
C2948 C 0.46507 0.77379 0.9535 0.0
C2949 C 0.45989 0.72572 0.95639 0.0
C2950 C 0.4504 0.77189 0.94345 0.0
C2951 C 0.43382 0.78703 0.94191 0.0
C2952 C 0.43183 0.80453 0.95031 0.0
C2953 C 0.44615 0.80599 0.9606 0.0
C2954 C 0.46264 0.79077 0.96217 0.0
H2955 H 0.46131 0.70946 0.96082 0.0
H2956 H 0.44867 0.73573 0.96214 0.0
H2957 H 0.45268 0.72353 0.94689 0.0
H2958 H 0.45227 0.75917 0.9365 0.0
H2959 H 0.42317 0.78551 0.93384 0.0
H2960 H 0.41149 0.79109 0.28432 0.0
H2961 H 0.43594 0.76021 0.28214 0.0
H2962 H 0.48627 0.79595 0.30116 0.0
H2963 H 0.46182 0.82674 0.30367 0.0
H2964 H 0.47627 0.75355 0.27153 0.0
H2965 H 0.47863 0.74265 0.32343 0.0
H2966 H 0.45961 0.76051 0.31577 0.0
H2967 H 0.48701 0.76919 0.31856 0.0
C2968 C 0.42785 0.79252 0.2879 0.0
C2969 C 0.43461 0.81126 0.29435 0.0
C2970 C 0.44178 0.77484 0.28664 0.0
C2971 C 0.46269 0.77564 0.29177 0.0
C2972 C 0.46998 0.79484 0.29743 0.0
H2973 H 0.57308 0.69429 0.28251 0.0
H2974 H 0.54363 0.71996 0.27961 0.0
C2975 C 0.45602 0.81246 0.29879 0.0
C2976 C 0.47649 0.75608 0.2918 0.0
H2977 H 0.50418 0.72236 0.3115 0.0
C2978 C 0.48227 0.74659 0.28025 0.0
C2979 C 0.48377 0.74669 0.30322 0.0
C2980 C 0.47676 0.75513 0.31595 0.0
C2981 C 0.49595 0.72844 0.27981 0.0
C2982 C 0.50436 0.71994 0.29121 0.0
C2983 C 0.49786 0.72896 0.30275 0.0
C2984 C 0.52097 0.70264 0.29149 0.0
C2985 C 0.50116 0.71855 0.26715 0.0
C2986 C 0.51809 0.68432 0.29917 0.0
C2987 C 0.5351 0.66975 0.30106 0.0
C2988 C 0.55527 0.67325 0.29527 0.0
C2989 C 0.55774 0.69104 0.28708 0.0
C2990 C 0.54081 0.70568 0.28531 0.0
H2991 H 0.48801 0.72164 0.26023 0.0
H2992 H 0.51618 0.72604 0.2634 0.0
H2993 H 0.50373 0.7008 0.26791 0.0
H2994 H 0.50291 0.68171 0.30407 0.0
H2995 H 0.53264 0.65618 0.30738 0.0
H2996 H 0.56383 0.28574 0.56009 0.0
H2997 H 0.53386 0.2608 0.55669 0.0
H2998 H 0.50735 0.30353 0.52841 0.0
H2999 H 0.53714 0.32896 0.53196 0.0
H3000 H 0.47692 0.29046 0.54518 0.0
H3001 H 0.5225 0.21937 0.52801 0.0
H3002 H 0.53325 0.22902 0.54268 0.0
H3003 H 0.53437 0.24605 0.52888 0.0
C3004 C 0.55181 0.28977 0.55303 0.0
C3005 C 0.55292 0.30934 0.54628 0.0
C3006 C 0.53474 0.2754 0.55104 0.0
C3007 C 0.5186 0.28014 0.54214 0.0
C3008 C 0.51975 0.29953 0.53527 0.0
H3009 H 0.42549 0.17608 0.52981 0.0
H3010 H 0.4502 0.20597 0.52527 0.0
C3011 C 0.53679 0.31401 0.5373 0.0
C3012 C 0.49992 0.26538 0.54067 0.0
H3013 H 0.48716 0.21214 0.53674 0.0
C3014 C 0.47906 0.27339 0.54312 0.0
C3015 C 0.50268 0.24323 0.53772 0.0
C3016 C 0.5244 0.23397 0.53404 0.0
C3017 C 0.46105 0.25955 0.54342 0.0
C3018 C 0.46414 0.23709 0.54153 0.0
C3019 C 0.48481 0.22932 0.53836 0.0
C3020 C 0.44664 0.22106 0.54359 0.0
C3021 C 0.43899 0.26914 0.54588 0.0
C3022 C 0.43611 0.21985 0.55531 0.0
C3023 C 0.42177 0.20292 0.55789 0.0
C3024 C 0.4181 0.18666 0.54887 0.0
C3025 C 0.4281 0.18831 0.53699 0.0
C3026 C 0.4422 0.20538 0.53436 0.0
H3027 H 0.43814 0.2862 0.54257 0.0
H3028 H 0.42603 0.2597 0.54114 0.0
H3029 H 0.43583 0.26913 0.55619 0.0
H3030 H 0.43971 0.23141 0.5627 0.0
H3031 H 0.41444 0.202 0.56716 0.0
H3032 H 0.08508 0.20075 0.78558 0.0
H3033 H 0.05886 0.23003 0.78313 0.0
H3034 H 0.01209 0.19363 0.80468 0.0
H3035 H 0.03837 0.16442 0.80746 0.0
H3036 H 0.01751 0.23345 0.77344 0.0
H3037 H 0.01858 0.24932 0.82497 0.0
H3038 H 0.03785 0.23165 0.81739 0.0
H3039 H 0.01106 0.22206 0.82105 0.0
C3040 C 0.06913 0.19882 0.78968 0.0
C3041 C 0.06393 0.18039 0.7969 0.0
C3042 C 0.05418 0.21558 0.78826 0.0
C3043 C 0.03377 0.21418 0.79398 0.0
C3044 C 0.02799 0.19522 0.80046 0.0
H3045 H 0.92162 0.29487 0.78486 0.0
H3046 H 0.95007 0.26791 0.78246 0.0
C3047 C 0.04299 0.1785 0.80198 0.0
C3048 C 0.019 0.23302 0.79375 0.0
H3049 H 0.99223 0.26824 0.81298 0.0
C3050 C 0.01203 0.24115 0.78206 0.0
C3051 C 0.01234 0.24334 0.80501 0.0
C3052 C 0.0205 0.23631 0.81781 0.0
C3053 C -0.00201 0.25899 0.78137 0.0
C3054 C 0.99048 0.2686 0.79267 0.0
C3055 C -0.00207 0.26079 0.80432 0.0
C3056 C 0.97418 0.28618 0.79277 0.0
C3057 C 0.99156 0.26748 0.76855 0.0
C3058 C 0.97823 0.30541 0.79943 0.0
C3059 C 0.96184 0.32076 0.80102 0.0
C3060 C 0.94112 0.31712 0.79596 0.0
C3061 C 0.93741 0.29825 0.78884 0.0
C3062 C 0.95374 0.28285 0.78736 0.0
H3063 H 0.00386 0.26336 0.76128 0.0
H3064 H 0.97603 0.25992 0.76568 0.0
H3065 H 0.98936 0.28533 0.76869 0.0
H3066 H 0.9939 0.30825 0.80372 0.0
H3067 H 0.96525 0.33515 0.80652 0.0
H3068 H 0.94909 0.66091 0.03568 0.0
H3069 H 0.97908 0.68628 0.03326 0.0
H3070 H 0.94276 0.73514 0.05317 0.0
H3071 H 0.91281 0.70969 0.05597 0.0
H3072 H 0.98449 0.72668 0.02291 0.0
H3073 H 0.99683 0.72856 0.07475 0.0
H3074 H 0.97904 0.70937 0.0672 0.0
H3075 H 0.97013 0.73668 0.07006 0.0
C3076 C 0.94731 0.67714 0.03942 0.0
C3077 C 0.92868 0.68316 0.04621 0.0
C3078 C 0.9645 0.69161 0.03801 0.0
C3079 C 0.96333 0.71237 0.04331 0.0
C3080 C 0.94417 0.71897 0.0493 0.0
H3081 H 0.04748 0.82172 0.03377 0.0
H3082 H 0.0203 0.79357 0.03109 0.0
C3083 C 0.92703 0.70445 0.05082 0.0
C3084 C 0.98259 0.7266 0.0432 0.0
H3085 H 0.01726 0.75362 0.06266 0.0
C3086 C 0.99175 0.73253 0.03158 0.0
C3087 C 0.99234 0.7337 0.05455 0.0
C3088 C 0.98424 0.72659 0.06735 0.0
C3089 C 0.01007 0.74596 0.031 0.0
C3090 C 0.01911 0.75397 0.04235 0.0
C3091 C 0.01026 0.74755 0.05396 0.0
C3092 C 0.03708 0.76984 0.04252 0.0
C3093 C 0.01966 0.75121 0.01827 0.0
C3094 C 0.05561 0.76591 0.04986 0.0
C3095 C 0.07106 0.78215 0.05161 0.0
C3096 C 0.06826 0.80262 0.04603 0.0
C3097 C 0.05021 0.80613 0.03818 0.0
C3098 C 0.03469 0.78996 0.03654 0.0
H3099 H 0.01579 0.73845 0.01123 0.0
H3100 H 0.01268 0.76666 0.0148 0.0
H3101 H 0.03752 0.75303 0.01882 0.0
H3102 H 0.05773 0.7505 0.0546 0.0
H3103 H 0.0848 0.7789 0.05767 0.0
H3104 H 0.42155 0.69611 0.78476 0.0
H3105 H 0.451 0.72206 0.78282 0.0
H3106 H 0.49039 0.68312 0.80765 0.0
H3107 H 0.46063 0.6573 0.81 0.0
H3108 H 0.48884 0.72373 0.81538 0.0
H3109 H 0.50754 0.72376 0.76438 0.0
H3110 H 0.47927 0.72825 0.76715 0.0
H3111 H 0.49138 0.70286 0.77168 0.0
C3112 C 0.43661 0.69278 0.78962 0.0
C3113 C 0.43869 0.67468 0.7976 0.0
C3114 C 0.45353 0.70759 0.78841 0.0
C3115 C 0.47301 0.7044 0.79496 0.0
C3116 C 0.4755 0.68584 0.80248 0.0
H3117 H 0.58364 0.79124 0.78883 0.0
H3118 H 0.55877 0.76069 0.7869 0.0
C3119 C 0.45849 0.6711 0.80381 0.0
C3120 C 0.48968 0.72164 0.79508 0.0
H3121 H 0.51919 0.75516 0.77608 0.0
C3122 C 0.49569 0.7304 0.80679 0.0
C3123 C 0.49875 0.73023 0.78388 0.0
C3124 C 0.49407 0.72061 0.77108 0.0
C3125 C 0.51002 0.74792 0.8076 0.0
C3126 C 0.51805 0.75735 0.79636 0.0
C3127 C 0.51265 0.74816 0.78467 0.0
C3128 C 0.53238 0.77655 0.79663 0.0
C3129 C 0.51654 0.75601 0.8205 0.0
C3130 C 0.5255 0.79584 0.80236 0.0
C3131 C 0.53973 0.81329 0.80359 0.0
C3132 C 0.56098 0.81183 0.79894 0.0
C3133 C 0.5674 0.79288 0.79257 0.0
C3134 C 0.55322 0.77539 0.79145 0.0
H3135 H 0.51414 0.74341 0.82786 0.0
H3136 H 0.53377 0.76115 0.82063 0.0
H3137 H 0.50636 0.77016 0.82304 0.0
H3138 H 0.50925 0.79725 0.80612 0.0
H3139 H 0.5342 0.82773 0.80842 0.0
H3140 H 0.91933 0.77981 0.55444 0.0
H3141 H 0.94797 0.753 0.55146 0.0
H3142 H 0.98296 0.7978 0.52781 0.0
H3143 H 0.95425 0.82461 0.53051 0.0
H3144 H 0.98493 0.75421 0.51939 0.0
H3145 H 0.00547 0.76288 0.57017 0.0
H3146 H 0.97785 0.75529 0.56727 0.0
H3147 H 0.9875 0.78131 0.56212 0.0
C3148 C 0.93295 0.78388 0.54845 0.0
C3149 C 0.93468 0.80448 0.54288 0.0
C3150 C 0.94931 0.76855 0.54678 0.0
C3151 C 0.96773 0.77365 0.53964 0.0
C3152 C 0.96889 0.79365 0.53341 0.0
H3153 H 0.09069 0.71063 0.55208 0.0
H3154 H 0.06275 0.73765 0.54785 0.0
C3155 C 0.95248 0.80895 0.535 0.0
C3156 C 0.98653 0.75887 0.53951 0.0
H3157 H 0.02387 0.7355 0.55887 0.0
C3158 C 0.99353 0.75011 0.52799 0.0
C3159 C -0.00207 0.754 0.55073 0.0
C3160 C 0.99198 0.76401 0.56326 0.0
C3161 C 0.01143 0.73611 0.52746 0.0
C3162 C 0.0223 0.7306 0.53876 0.0
C3163 C 0.01548 0.73971 0.55022 0.0
C3164 C 0.04051 0.71504 0.53916 0.0
C3165 C 0.0187 0.72761 0.51481 0.0
C3166 C 0.03748 0.69349 0.53536 0.0
C3167 C 0.05351 0.67803 0.53767 0.0
C3168 C 0.07266 0.68382 0.54401 0.0
C3169 C 0.07605 0.70563 0.54726 0.0
C3170 C 0.06012 0.72109 0.54484 0.0
H3171 H 0.01315 0.73821 0.50697 0.0
H3172 H 0.03661 0.72619 0.51436 0.0
H3173 H 0.01164 0.71128 0.5133 0.0
H3174 H 0.0223 0.68837 0.53122 0.0
H3175 H 0.05037 0.66135 0.5351 0.0
H3176 H 0.95619 0.16291 0.31602 0.0
H3177 H 0.98467 0.18969 0.31257 0.0
H3178 H 0.96035 0.2017 0.27504 0.0
H3179 H 0.93132 0.17545 0.27857 0.0
H3180 H 0.0173 0.19682 0.29569 0.0
H3181 H 0.95396 0.26041 0.29157 0.0
H3182 H 0.94787 0.23313 0.29647 0.0
H3183 H 0.95203 0.23922 0.28004 0.0
C3184 C 0.95712 0.17095 0.30694 0.0
C3185 C 0.94129 0.16739 0.29765 0.0
C3186 C 0.97341 0.18625 0.30499 0.0
C3187 C 0.97423 0.19807 0.29368 0.0
C3188 C 0.9596 0.19318 0.28397 0.0
H3189 H 0.07831 0.29361 0.28268 0.0
H3190 H 0.054 0.26291 0.27917 0.0
C3191 C 0.94311 0.1781 0.28598 0.0
C3192 C 0.98919 0.21669 0.29257 0.0
H3193 H 0.99013 0.27176 0.28982 0.0
C3194 C 0.01144 0.2132 0.2943 0.0
C3195 C 0.98137 0.23807 0.29093 0.0
C3196 C 0.9575 0.24304 0.28976 0.0
C3197 C 0.02607 0.23058 0.29473 0.0
C3198 C 0.01822 0.25193 0.29306 0.0
C3199 C 0.99606 0.25535 0.291 0.0
C3200 C 0.03235 0.27111 0.2945 0.0
C3201 C 0.04958 0.22599 0.29755 0.0
C3202 C 0.02769 0.28638 0.30392 0.0
C3203 C 0.0413 0.30409 0.30582 0.0
C3204 C 0.05992 0.30682 0.29836 0.0
C3205 C 0.0642 0.29185 0.28866 0.0
C3206 C 0.05043 0.27422 0.2867 0.0
H3207 H 0.05197 0.20944 0.30143 0.0
H3208 H 0.05911 0.2273 0.28871 0.0
H3209 H 0.05614 0.23789 0.30441 0.0
H3210 H 0.01375 0.28432 0.31001 0.0
H3211 H 0.03753 0.31529 0.31337 0.0
H3212 H 0.58715 0.2097 0.06145 0.0
H3213 H 0.56107 0.23929 0.05926 0.0
H3214 H 0.52441 0.20138 0.03258 0.0
H3215 H 0.55062 0.17207 0.03438 0.0
H3216 H 0.52555 0.24407 0.02605 0.0
H3217 H 0.50261 0.23399 0.07642 0.0
H3218 H 0.53064 0.24041 0.07398 0.0
H3219 H 0.51999 0.21509 0.06833 0.0
C3220 C 0.57372 0.20779 0.05497 0.0
C3221 C 0.57078 0.18839 0.04824 0.0
C3222 C 0.55878 0.22466 0.05379 0.0
C3223 C 0.54055 0.22226 0.046 0.0
C3224 C 0.53831 0.20348 0.0387 0.0
H3225 H 0.41748 0.28531 0.05616 0.0
H3226 H 0.44709 0.25947 0.05354 0.0
C3227 C 0.55331 0.18672 0.03977 0.0
C3228 C 0.52298 0.23852 0.04606 0.0
H3229 H 0.48535 0.26206 0.06519 0.0
C3230 C 0.51676 0.24809 0.0346 0.0
C3231 C 0.5113 0.24334 0.0572 0.0
C3232 C 0.51629 0.23254 0.06966 0.0
C3233 C 0.49914 0.2624 0.03397 0.0
C3234 C 0.48782 0.26759 0.04517 0.0
C3235 C 0.49411 0.25807 0.05662 0.0
C3236 C 0.46925 0.28272 0.04534 0.0
C3237 C 0.49247 0.27131 0.02129 0.0
C3238 C 0.4718 0.30426 0.04141 0.0
C3239 C 0.45482 0.319 0.04276 0.0
C3240 C 0.43514 0.31253 0.04828 0.0
C3241 C 0.43246 0.29081 0.05191 0.0
C3242 C 0.44936 0.27604 0.05043 0.0
H3243 H 0.49849 0.26104 0.01343 0.0
H3244 H 0.47459 0.27259 0.02053 0.0
H3245 H 0.49947 0.28773 0.02009 0.0
H3246 H 0.48716 0.3099 0.03774 0.0
H3247 H 0.45746 0.33567 0.03995 0.0
H3248 H 0.41737 0.30248 0.70786 0.0
H3249 H 0.44658 0.27634 0.7103 0.0
H3250 H 0.48856 0.31678 0.68783 0.0
H3251 H 0.45911 0.34278 0.68497 0.0
H3252 H 0.48802 0.2767 0.67924 0.0
H3253 H 0.50095 0.27365 0.73083 0.0
H3254 H 0.47308 0.26925 0.72686 0.0
H3255 H 0.48555 0.29493 0.72335 0.0
C3256 C 0.43293 0.30606 0.70362 0.0
C3257 C 0.43588 0.32467 0.69615 0.0
C3258 C 0.44969 0.29114 0.70512 0.0
C3259 C 0.46985 0.29473 0.69939 0.0
C3260 C 0.47313 0.31374 0.69237 0.0
H3261 H 0.58054 0.20863 0.70775 0.0
H3262 H 0.55508 0.23873 0.70946 0.0
C3263 C 0.45629 0.32858 0.69074 0.0
C3264 C 0.48657 0.27755 0.69956 0.0
H3265 H 0.51424 0.24315 0.71895 0.0
C3266 C 0.49395 0.26956 0.68794 0.0
C3267 C 0.49445 0.26836 0.7109 0.0
C3268 C 0.48826 0.27716 0.72368 0.0
C3269 C 0.50853 0.25223 0.68732 0.0
C3270 C 0.51539 0.2422 0.69864 0.0
C3271 C 0.50859 0.25061 0.71028 0.0
C3272 C 0.52994 0.22318 0.69852 0.0
C3273 C 0.51658 0.245 0.67454 0.0
C3274 C 0.52391 0.20418 0.69216 0.0
C3275 C 0.53848 0.187 0.69106 0.0
C3276 C 0.55922 0.18843 0.69645 0.0
C3277 C 0.56472 0.20703 0.70343 0.0
C3278 C 0.55021 0.22426 0.70443 0.0
H3279 H 0.51482 0.258 0.66736 0.0
H3280 H 0.53385 0.24008 0.67496 0.0
H3281 H 0.5069 0.23089 0.67134 0.0
H3282 H 0.50809 0.20282 0.68782 0.0
H3283 H 0.53364 0.17281 0.68575 0.0
H3284 H 0.54154 0.82733 0.46495 0.0
H3285 H 0.5123 0.80135 0.46852 0.0
H3286 H 0.53656 0.76164 0.43818 0.0
H3287 H 0.56604 0.7872 0.43469 0.0
H3288 H 0.48068 0.79017 0.452 0.0
H3289 H 0.52718 0.71737 0.46577 0.0
H3290 H 0.53906 0.74408 0.46548 0.0
H3291 H 0.53669 0.72854 0.45116 0.0
C3292 C 0.54085 0.81291 0.45915 0.0
C3293 C 0.55616 0.80932 0.44953 0.0
C3294 C 0.52411 0.79811 0.4612 0.0
C3295 C 0.52244 0.77945 0.45373 0.0
C3296 C 0.53785 0.77568 0.44425 0.0
H3297 H 0.4156 0.70322 0.43027 0.0
H3298 H 0.44154 0.73214 0.43438 0.0
C3299 C 0.55464 0.79039 0.44223 0.0
C3300 C 0.50382 0.76461 0.45521 0.0
H3301 H 0.49089 0.71124 0.45832 0.0
C3302 C 0.48285 0.77294 0.45359 0.0
C3303 C 0.50666 0.74224 0.45751 0.0
C3304 C 0.52861 0.73257 0.46021 0.0
C3305 C 0.4647 0.75929 0.45354 0.0
C3306 C 0.46773 0.7367 0.45488 0.0
C3307 C 0.48859 0.72854 0.45716 0.0
C3308 C 0.44986 0.72101 0.45315 0.0
C3309 C 0.44254 0.76918 0.45196 0.0
C3310 C 0.4459 0.70512 0.46233 0.0
C3311 C 0.43133 0.68835 0.45993 0.0
C3312 C 0.42042 0.6872 0.4483 0.0
C3313 C 0.42362 0.70372 0.43936 0.0
C3314 C 0.43837 0.72037 0.44173 0.0
H3315 H 0.4422 0.78613 0.45548 0.0
H3316 H 0.43833 0.76955 0.44178 0.0
H3317 H 0.42999 0.75969 0.45703 0.0
H3318 H 0.45464 0.70529 0.4712 0.0
H3319 H 0.42914 0.67592 0.46703 0.0
H3320 H 0.95565 0.82778 0.17998 0.0
H3321 H 0.98314 0.79949 0.18185 0.0
H3322 H 0.95404 0.77761 0.2166 0.0
H3323 H 0.9262 0.80552 0.21469 0.0
H3324 H 0.01332 0.7886 0.19999 0.0
H3325 H 0.95175 0.72374 0.19437 0.0
H3326 H 0.94584 0.75191 0.19145 0.0
H3327 H 0.94672 0.74173 0.20735 0.0
C3328 C 0.95525 0.81715 0.18812 0.0
C3329 C 0.93856 0.81869 0.19709 0.0
C3330 C 0.97095 0.80098 0.18916 0.0
C3331 C 0.97025 0.78617 0.19919 0.0
C3332 C 0.95448 0.78855 0.2086 0.0
H3333 H 0.07315 0.69331 0.21467 0.0
H3334 H 0.04604 0.72193 0.21655 0.0
C3335 C 0.93868 0.80459 0.20753 0.0
C3336 C 0.98545 0.76769 0.19948 0.0
H3337 H 0.98763 0.71248 0.19859 0.0
C3338 C 0.00774 0.77195 0.19973 0.0
C3339 C 0.97805 0.74602 0.19891 0.0
C3340 C 0.9543 0.7405 0.19788 0.0
C3341 C 0.02291 0.75506 0.19945 0.0
C3342 C 0.0155 0.73337 0.19921 0.0
C3343 C 0.99321 0.72913 0.19893 0.0
C3344 C 0.03066 0.71488 0.19867 0.0
C3345 C 0.0467 0.76062 0.19903 0.0
C3346 C 0.03024 0.70076 0.1883 0.0
C3347 C 0.04551 0.68419 0.18727 0.0
C3348 C 0.06149 0.68153 0.19659 0.0
C3349 C 0.06121 0.69509 0.20725 0.0
C3350 C 0.04583 0.71155 0.20831 0.0
H3351 H 0.04943 0.77766 0.19605 0.0
H3352 H 0.05375 0.75858 0.20859 0.0
H3353 H 0.05552 0.74976 0.19245 0.0
H3354 H 0.01851 0.703 0.1808 0.0
H3355 H 0.04526 0.67401 0.17895 0.0
H3356 H 0.94651 0.17392 0.9656 0.0
H3357 H 0.97438 0.20155 0.96847 0.0
H3358 H 0.95144 0.235 0.9353 0.0
H3359 H 0.92322 0.20778 0.93252 0.0
H3360 H 0.0067 0.20999 0.9522 0.0
H3361 H 0.95861 0.28441 0.95984 0.0
H3362 H 0.94692 0.25767 0.9609 0.0
H3363 H 0.95057 0.27044 0.94577 0.0
C3364 C 0.94714 0.18737 0.95904 0.0
C3365 C 0.93267 0.18865 0.94881 0.0
C3366 C 0.96309 0.20312 0.96069 0.0
C3367 C 0.96484 0.22042 0.95218 0.0
C3368 C 0.95007 0.22205 0.94216 0.0
H3369 H 0.0755 0.29359 0.9293 0.0
H3370 H 0.04795 0.26593 0.93296 0.0
C3371 C 0.93401 0.2064 0.94054 0.0
C3372 C 0.98317 0.23574 0.95312 0.0
H3373 H 0.99562 0.2895 0.95348 0.0
C3374 C 0.0043 0.22738 0.95266 0.0
C3375 C 0.98002 0.25836 0.9539 0.0
C3376 C 0.9578 0.26824 0.95527 0.0
C3377 C 0.02237 0.24111 0.95245 0.0
C3378 C 0.01914 0.26377 0.95239 0.0
C3379 C -0.00194 0.2721 0.95338 0.0
C3380 C 0.03725 0.27921 0.95082 0.0
C3381 C 0.04469 0.23119 0.95226 0.0
C3382 C 0.04027 0.29592 0.95959 0.0
C3383 C 0.05579 0.31192 0.95744 0.0
C3384 C 0.06857 0.31147 0.94646 0.0
C3385 C 0.06603 0.29429 0.93789 0.0
C3386 C 0.05036 0.27839 0.94001 0.0
H3387 H 0.04464 0.21469 0.95646 0.0
H3388 H 0.05025 0.2297 0.94234 0.0
H3389 H 0.05651 0.24135 0.95749 0.0
H3390 H 0.03028 0.29686 0.96798 0.0
H3391 H 0.05741 0.32491 0.96424 0.0
H3392 H 0.41402 0.92811 0.27653 0.0
H3393 H 0.41201 0.95917 0.26216 0.0
H3394 H 0.3438 0.96565 0.2702 0.0
H3395 H 0.34606 0.93514 0.28498 0.0
H3396 H 0.38765 0.9609 0.24086 0.0
H3397 H 0.36428 0.02758 0.27322 0.0
H3398 H 0.37438 0.00192 0.27886 0.0
H3399 H 0.34659 0.00457 0.27403 0.0
C3400 C 0.39877 0.93658 0.27544 0.0
C3401 C 0.38019 0.92945 0.28181 0.0
C3402 C 0.39759 0.95416 0.2672 0.0
C3403 C 0.3778 0.9648 0.2652 0.0
C3404 C 0.35932 0.95794 0.27179 0.0
H3405 H 0.33864 0.06481 0.21193 0.0
H3406 H 0.33879 0.03333 0.22616 0.0
C3407 C 0.36056 0.94047 0.28013 0.0
C3408 C 0.37627 0.9821 0.2556 0.0
H3409 H 0.36238 0.03505 0.25122 0.0
C3410 C 0.38221 0.97714 0.24314 0.0
C3411 C 0.36907 0.00322 0.2586 0.0
C3412 C 0.36341 0.00974 0.27193 0.0
C3413 C 0.3811 0.99277 0.23357 0.0
C3414 C 0.37391 0.01381 0.23659 0.0
C3415 C 0.36773 0.01876 0.24899 0.0
C3416 C 0.37372 0.03131 0.22714 0.0
C3417 C 0.38752 0.98675 0.22029 0.0
C3418 C 0.3933 0.04025 0.22297 0.0
C3419 C 0.39323 0.05824 0.21501 0.0
C3420 C 0.37356 0.06746 0.21113 0.0
C3421 C 0.35397 0.05798 0.21492 0.0
C3422 C 0.35404 0.04009 0.22298 0.0
H3423 H 0.38883 0.96893 0.21904 0.0
H3424 H 0.37559 0.99319 0.2134 0.0
H3425 H 0.40348 0.99408 0.21809 0.0
H3426 H 0.40862 0.03377 0.22622 0.0
H3427 H 0.40852 0.06547 0.21228 0.0
H3428 H 0.32947 0.14541 0.52205 0.0
H3429 H 0.29945 0.14673 0.50699 0.0
H3430 H 0.26172 0.10523 0.53132 0.0
H3431 H 0.29185 0.10417 0.54654 0.0
H3432 H 0.28267 0.11039 0.49491 0.0
H3433 H 0.21945 0.15435 0.52208 0.0
H3434 H 0.24767 0.15462 0.52653 0.0
H3435 H 0.23118 0.1314 0.52998 0.0
C3436 C 0.3146 0.13687 0.52423 0.0
C3437 C 0.31274 0.12468 0.53534 0.0
C3438 C 0.29755 0.13759 0.51566 0.0
C3439 C 0.2784 0.12616 0.51809 0.0
C3440 C 0.27629 0.11442 0.52939 0.0
H3441 H 0.18155 0.08859 0.46303 0.0
H3442 H 0.21183 0.08907 0.47805 0.0
C3443 C 0.2934 0.11377 0.53803 0.0
C3444 C 0.26133 0.12551 0.50836 0.0
H3445 H 0.20896 0.13956 0.50237 0.0
C3446 C 0.26654 0.11678 0.49651 0.0
C3447 C 0.24044 0.13404 0.51051 0.0
C3448 C 0.23431 0.14431 0.52292 0.0
C3449 C 0.25132 0.11626 0.48672 0.0
C3450 C 0.23032 0.12444 0.48893 0.0
C3451 C 0.22512 0.13326 0.50076 0.0
C3452 C 0.21343 0.12406 0.4791 0.0
C3453 C 0.25791 0.10735 0.47403 0.0
C3454 C 0.20449 0.14355 0.47473 0.0
C3455 C 0.18727 0.14326 0.46622 0.0
C3456 C 0.17871 0.12347 0.46207 0.0
C3457 C 0.18807 0.10399 0.46613 0.0
C3458 C 0.20531 0.10427 0.47464 0.0
H3459 H 0.2758 0.10653 0.47301 0.0
H3460 H 0.25137 0.09072 0.47298 0.0
H3461 H 0.25126 0.11743 0.46626 0.0
H3462 H 0.21055 0.15895 0.47812 0.0
H3463 H 0.18007 0.15845 0.46329 0.0
H3464 H 0.15161 0.92892 0.71323 0.0
H3465 H 0.15332 0.95979 0.72779 0.0
H3466 H 0.08352 0.96267 0.72844 0.0
H3467 H 0.08181 0.93147 0.71417 0.0
H3468 H 0.13651 0.00211 0.7266 0.0
H3469 H 0.10007 0.95451 0.76569 0.0
H3470 H 0.11012 0.94209 0.75142 0.0
H3471 H 0.08406 0.95507 0.75154 0.0
C3472 C 0.1367 0.93636 0.71642 0.0
C3473 C 0.1166 0.9279 0.71273 0.0
C3474 C 0.13767 0.95391 0.72469 0.0
C3475 C 0.11854 0.96314 0.72936 0.0
C3476 C 0.09844 0.95544 0.72512 0.0
H3477 H 0.08685 0.06641 0.78043 0.0
H3478 H 0.08696 0.03577 0.76572 0.0
C3479 C 0.09748 0.93784 0.71689 0.0
C3480 C 0.1196 0.98031 0.73902 0.0
H3481 H 0.10489 0.99216 0.76929 0.0
C3482 C 0.12972 -5e-05 0.73596 0.0
C3483 C 0.11085 0.97725 0.75123 0.0
C3484 C 0.10084 0.95603 0.75525 0.0
C3485 C 0.13078 0.01692 0.74472 0.0
C3486 C 0.1217 0.01397 0.75684 0.0
C3487 C 0.11179 0.99427 0.75995 0.0
C3488 C 0.12171 0.03145 0.76629 0.0
C3489 C 0.14113 0.03806 0.74088 0.0
C3490 C 0.14117 0.03862 0.77169 0.0
C3491 C 0.14109 0.05593 0.78016 0.0
C3492 C 0.12157 0.06624 0.78327 0.0
C3493 C 0.10206 0.05856 0.77819 0.0
C3494 C 0.10212 0.04121 0.76978 0.0
H3495 H 0.14378 0.03904 0.73052 0.0
H3496 H 0.13091 0.05196 0.74385 0.0
H3497 H 0.15705 0.03966 0.74563 0.0
H3498 H 0.15638 0.03099 0.76923 0.0
H3499 H 0.15627 0.06155 0.7841 0.0
H3500 H 0.18012 0.90293 0.03403 0.0
H3501 H 0.21081 0.90453 0.01927 0.0
H3502 H 0.21192 0.83472 0.01758 0.0
H3503 H 0.18106 0.83313 0.03209 0.0
H3504 H 0.25306 0.88538 0.02053 0.0
H3505 H 0.20428 0.85416 0.98046 0.0
H3506 H 0.19218 0.86432 0.99479 0.0
H3507 H 0.20343 0.83749 0.99435 0.0
C3508 C 0.18714 0.88799 0.03055 0.0
C3509 C 0.17835 0.86792 0.03406 0.0
C3510 C 0.20456 0.8889 0.02217 0.0
C3511 C 0.21326 0.86975 0.01719 0.0
C3512 C 0.20511 0.84967 0.02116 0.0
H3513 H 0.31466 0.83192 0.96682 0.0
H3514 H 0.28317 0.83455 0.98083 0.0
C3515 C 0.1877 0.84876 0.02952 0.0
C3516 C 0.23056 0.87067 0.00762 0.0
H3517 H 0.24235 0.8564 0.97728 0.0
C3518 C 0.25073 0.87924 0.01104 0.0
C3519 C 0.22728 0.86274 0.99525 0.0
C3520 C 0.20557 0.85433 0.99092 0.0
C3521 C 0.26808 0.87934 0.0025 0.0
C3522 C 0.26493 0.87094 0.99022 0.0
C3523 C 0.24463 0.86278 0.98673 0.0
C3524 C 0.28282 0.8696 0.98105 0.0
C3525 C 0.28981 0.88773 0.0068 0.0
C3526 C 0.29252 0.88846 0.9763 0.0
C3527 C 0.31036 0.88696 0.96826 0.0
C3528 C 0.31862 0.86661 0.96489 0.0
C3529 C 0.3084 0.84777 0.96926 0.0
C3530 C 0.29055 0.84926 0.97727 0.0
H3531 H 0.29061 0.88961 0.01721 0.0
H3532 H 0.30299 0.87668 0.00375 0.0
H3533 H 0.29279 0.90381 0.00245 0.0
H3534 H 0.2865 0.90428 0.97897 0.0
H3535 H 0.318 0.90166 0.96489 0.0
H3536 H 0.61851 0.95127 0.7956 0.0
H3537 H 0.61754 0.98282 0.78138 0.0
H3538 H 0.60275 0.94083 0.75004 0.0
H3539 H 0.60362 0.90938 0.76417 0.0
H3540 H 0.64421 0.98229 0.7538 0.0
H3541 H 0.5549 0.99547 0.75515 0.0
H3542 H 0.56943 0.98466 0.76856 0.0
H3543 H 0.56545 0.96822 0.75484 0.0
C3544 C 0.61499 0.9489 0.78568 0.0
C3545 C 0.61122 0.92806 0.7809 0.0
C3546 C 0.6145 0.9668 0.77761 0.0
C3547 C 0.61007 0.96397 0.76474 0.0
C3548 C 0.60621 0.94319 0.75997 0.0
H3549 H 0.61878 0.04994 0.69992 0.0
H3550 H 0.61863 0.01815 0.71395 0.0
C3551 C 0.60679 0.92533 0.768 0.0
C3552 C 0.60962 0.98268 0.75616 0.0
H3553 H 0.57526 0.01799 0.74164 0.0
C3554 C 0.6292 0.99016 0.75112 0.0
C3555 C 0.58994 0.99271 0.75278 0.0
C3556 C 0.56864 0.98501 0.75809 0.0
C3557 C 0.62958 0.00762 0.74266 0.0
C3558 C 0.60986 0.01757 0.73917 0.0
C3559 C 0.5903 0.01014 0.74431 0.0
C3560 C 0.60934 0.03631 0.73057 0.0
C3561 C 0.65103 0.01555 0.73764 0.0
C3562 C 0.60374 0.05674 0.73528 0.0
C3563 C 0.60384 0.07473 0.72734 0.0
C3564 C 0.6094 0.07247 0.71456 0.0
C3565 C 0.61449 0.05194 0.70976 0.0
C3566 C 0.6145 0.03391 0.71774 0.0
H3567 H 0.66493 0.0085 0.74288 0.0
H3568 H 0.65256 0.01094 0.72756 0.0
H3569 H 0.65197 0.03349 0.73822 0.0
H3570 H 0.5996 0.0588 0.74514 0.0
H3571 H 0.59962 0.09044 0.73117 0.0
H3572 H 0.69447 0.86531 0.45121 0.0
H3573 H 0.72651 0.86439 0.46493 0.0
H3574 H 0.6853 0.85523 0.49739 0.0
H3575 H 0.65348 0.8552 0.48368 0.0
H3576 H 0.73677 0.89152 0.48454 0.0
H3577 H 0.72903 0.807 0.50175 0.0
H3578 H 0.7139 0.8171 0.48842 0.0
H3579 H 0.70509 0.82288 0.50425 0.0
C3580 C 0.69238 0.86284 0.46126 0.0
C3581 C 0.67163 0.86036 0.46643 0.0
C3582 C 0.7106 0.86242 0.46907 0.0
C3583 C 0.70826 0.85943 0.48214 0.0
C3584 C 0.68749 0.8571 0.4873 0.0
H3585 H 0.79891 0.86608 0.54505 0.0
H3586 H 0.76603 0.86604 0.53191 0.0
C3587 C 0.66933 0.85738 0.4795 0.0
C3588 C 0.72747 0.85945 0.49045 0.0
H3589 H 0.75464 0.82936 0.51238 0.0
C3590 C 0.74074 0.87789 0.49058 0.0
C3591 C 0.73256 0.84163 0.49832 0.0
C3592 C 0.71952 0.82095 0.49812 0.0
C3593 C 0.75889 0.87908 0.49849 0.0
C3594 C 0.7638 0.86137 0.50641 0.0
C3595 C 0.75057 0.84295 0.50634 0.0
C3596 C 0.78332 0.86129 0.51437 0.0
C3597 C 0.77269 0.89923 0.4984 0.0
C3598 C 0.80364 0.85832 0.50879 0.0
C3599 C 0.82224 0.85811 0.51623 0.0
C3600 C 0.82077 0.86103 0.52934 0.0
C3601 C 0.80037 0.86379 0.53495 0.0
C3602 C 0.78169 0.86383 0.52749 0.0
H3603 H 0.76486 0.91276 0.4932 0.0
H3604 H 0.77613 0.90457 0.50821 0.0
H3605 H 0.78842 0.8956 0.49381 0.0
H3606 H 0.80508 0.85605 0.49869 0.0
H3607 H 0.83775 0.85546 0.51173 0.0
H3608 H 0.83334 0.06356 0.28461 0.0
H3609 H 0.83098 0.03219 0.27038 0.0
H3610 H 0.90062 0.02649 0.27086 0.0
H3611 H 0.90295 0.05766 0.28504 0.0
H3612 H 0.84962 0.0305 0.24649 0.0
H3613 H 0.88085 0.96426 0.27673 0.0
H3614 H 0.87161 0.98977 0.28309 0.0
H3615 H 0.89832 0.98747 0.27644 0.0
C3616 C 0.84804 0.05528 0.2818 0.0
C3617 C 0.8683 0.06277 0.28588 0.0
C3618 C 0.8467 0.03748 0.27372 0.0
C3619 C 0.86561 0.02691 0.26972 0.0
C3620 C 0.88582 0.03412 0.27407 0.0
H3621 H 0.90574 0.93248 0.21551 0.0
H3622 H 0.90246 0.96259 0.23048 0.0
C3623 C 0.88715 0.05188 0.28214 0.0
C3624 C 0.86451 0.00949 0.26022 0.0
H3625 H 0.88038 0.95755 0.25448 0.0
C3626 C 0.85606 0.01444 0.24826 0.0
C3627 C 0.87296 0.98862 0.2626 0.0
C3628 C 0.88125 0.98211 0.27545 0.0
C3629 C 0.85663 -0.00075 0.23843 0.0
C3630 C 0.86569 0.97864 0.24072 0.0
C3631 C 0.87363 0.9735 0.25276 0.0
C3632 C 0.86743 0.96213 0.23074 0.0
C3633 C 0.84823 0.00555 0.22557 0.0
C3634 C 0.84878 0.95228 0.22583 0.0
C3635 C 0.85065 0.93521 0.21727 0.0
C3636 C 0.87117 0.92779 0.21359 0.0
C3637 C 0.88978 0.93814 0.21816 0.0
C3638 C 0.88792 0.95517 0.22673 0.0
H3639 H 0.84554 0.02328 0.22475 0.0
H3640 H 0.85971 0.00039 0.21809 0.0
H3641 H 0.83257 0.99724 0.22384 0.0
H3642 H 0.83285 0.9573 0.22895 0.0
H3643 H 0.83614 0.92732 0.21384 0.0
H3644 H 0.84041 0.14131 0.98251 0.0
H3645 H 0.80942 0.14018 0.99691 0.0
H3646 H 0.76909 0.11593 0.96681 0.0
H3647 H 0.80031 0.11679 0.95237 0.0
H3648 H 0.76864 0.16166 0.99396 0.0
H3649 H 0.76123 0.07196 0.99643 0.0
H3650 H 0.78536 0.08535 0.99078 0.0
H3651 H 0.76194 0.08338 0.98082 0.0
C3652 C 0.82493 0.13564 0.97902 0.0
C3653 C 0.82261 0.12895 0.96644 0.0
C3654 C 0.8073 0.13507 0.9872 0.0
C3655 C 0.78714 0.12771 0.98293 0.0
C3656 C 0.78467 0.12135 0.97029 0.0
H3657 H 0.66181 0.14152 0.01724 0.0
H3658 H 0.69381 0.14255 0.00361 0.0
C3659 C 0.80235 0.12198 0.96207 0.0
C3660 C 0.76868 0.12699 0.99174 0.0
H3661 H 0.73402 0.09248 0.00671 0.0
C3662 C 0.76106 0.14656 0.99677 0.0
C3663 C 0.75914 0.1072 0.99548 0.0
C3664 C 0.76739 0.08572 0.9907 0.0
C3665 C 0.74376 0.14689 0.00532 0.0
C3666 C 0.73383 0.12715 0.00879 0.0
C3667 C 0.7417 0.10755 0.00395 0.0
C3668 C 0.71474 0.12664 0.01712 0.0
C3669 C 0.73628 0.16829 0.01062 0.0
C3670 C 0.71599 0.11709 0.02912 0.0
C3671 C 0.69772 0.11646 0.0369 0.0
C3672 C 0.67805 0.12514 0.03265 0.0
C3673 C 0.67685 0.13463 0.02064 0.0
C3674 C 0.69508 0.13535 0.01291 0.0
H3675 H 0.7486 0.1812 0.00931 0.0
H3676 H 0.72125 0.17337 0.00571 0.0
H3677 H 0.73257 0.1668 0.02085 0.0
H3678 H 0.73108 0.11023 0.03246 0.0
H3679 H 0.69885 0.10904 0.04614 0.0
H3680 H 0.86047 0.54576 0.69729 0.0
H3681 H 0.86189 0.51376 0.71119 0.0
H3682 H 0.88989 0.55281 0.74073 0.0
H3683 H 0.88857 0.58459 0.72692 0.0
H3684 H 0.91088 0.51094 0.73556 0.0
H3685 H 0.8218 0.50642 0.74337 0.0
H3686 H 0.83103 0.50818 0.72728 0.0
H3687 H 0.835 0.53068 0.73773 0.0
C3688 C 0.86701 0.54734 0.70674 0.0
C3689 C 0.87426 0.56747 0.71115 0.0
C3690 C 0.86772 0.5292 0.71464 0.0
C3691 C 0.87579 0.5311 0.72698 0.0
C3692 C 0.88353 0.55112 0.73125 0.0
H3693 H 0.86652 0.44766 0.79256 0.0
H3694 H 0.86615 0.47839 0.77773 0.0
C3695 C 0.8827 0.5692 0.7234 0.0
C3696 C 0.87606 0.51237 0.7356 0.0
H3697 H 0.8433 0.47967 0.75319 0.0
C3698 C 0.89614 0.50399 0.73938 0.0
C3699 C 0.85676 0.50369 0.74066 0.0
C3700 C 0.83487 0.51272 0.73716 0.0
C3701 C 0.89742 0.48694 0.74809 0.0
C3702 C 0.87811 0.47808 0.75303 0.0
C3703 C 0.85803 0.48655 0.74932 0.0
C3704 C 0.87846 0.4598 0.76198 0.0
C3705 C 0.91938 0.47873 0.75209 0.0
C3706 C 0.88538 0.43934 0.75793 0.0
C3707 C 0.88556 0.42195 0.76631 0.0
C3708 C 0.87877 0.42478 0.77885 0.0
C3709 C 0.87187 0.44524 0.78292 0.0
C3710 C 0.8716 0.46267 0.77449 0.0
H3711 H 0.93254 0.49015 0.74947 0.0
H3712 H 0.91988 0.47603 0.76245 0.0
H3713 H 0.92261 0.463 0.7474 0.0
H3714 H 0.89052 0.43683 0.74826 0.0
H3715 H 0.89109 0.40629 0.76303 0.0
H3716 H 0.81489 0.65925 0.02899 0.0
H3717 H 0.78537 0.65776 0.01356 0.0
H3718 H 0.78104 0.58854 0.01868 0.0
H3719 H 0.81006 0.59017 0.03446 0.0
H3720 H 0.78695 0.63525 0.99121 0.0
H3721 H 0.718 0.60698 0.02053 0.0
H3722 H 0.74262 0.61758 0.02732 0.0
H3723 H 0.74164 0.59017 0.02163 0.0
C3724 C 0.8072 0.64384 0.02703 0.0
C3725 C 0.81455 0.62481 0.03285 0.0
C3726 C 0.79051 0.64297 0.01818 0.0
C3727 C 0.78095 0.62307 0.01505 0.0
C3728 C 0.78794 0.60411 0.02112 0.0
H3729 H 0.68418 0.58688 0.95933 0.0
H3730 H 0.71509 0.58616 0.97392 0.0
C3731 C 0.80455 0.60501 0.03004 0.0
C3732 C 0.76468 0.62203 0.00485 0.0
H3733 H 0.71263 0.60739 -0.00165 0.0
C3734 C 0.77067 0.62923 0.99277 0.0
C3735 C 0.74353 0.61405 0.00693 0.0
C3736 C 0.73595 0.60693 0.01983 0.0
C3737 C 0.75603 0.62861 0.98267 0.0
C3738 C 0.7349 0.62072 0.98478 0.0
C3739 C 0.72896 0.61329 0.9968 0.0
C3740 C 0.71826 0.62102 0.97481 0.0
C3741 C 0.76327 0.63624 0.96982 0.0
C3742 C 0.71018 0.64085 0.97038 0.0
C3743 C 0.69254 0.64126 0.96216 0.0
C3744 C 0.68278 0.62185 0.9583 0.0
C3745 C 0.6915 0.60201 0.96226 0.0
C3746 C 0.70906 0.60159 0.97055 0.0
H3747 H 0.7812 0.637 0.96908 0.0
H3748 H 0.75699 0.62538 0.96231 0.0
H3749 H 0.75675 0.65272 0.96808 0.0
H3750 H 0.71689 0.656 0.97373 0.0
H3751 H 0.68588 0.65674 0.95932 0.0
H3752 H 0.58863 0.56131 0.28299 0.0
H3753 H 0.59019 0.53014 0.26871 0.0
H3754 H 0.65994 0.53418 0.26828 0.0
H3755 H 0.65839 0.5651 0.28283 0.0
H3756 H 0.60862 0.5323 0.24445 0.0
H3757 H 0.64825 0.46927 0.274 0.0
H3758 H 0.63579 0.49312 0.28067 0.0
H3759 H 0.66198 0.4949 0.27338 0.0
C3760 C 0.60428 0.55514 0.28008 0.0
C3761 C 0.62341 0.56538 0.28397 0.0
C3762 C 0.60516 0.5375 0.27189 0.0
C3763 C 0.62518 0.52982 0.26753 0.0
C3764 C 0.64436 0.53966 0.27171 0.0
H3765 H 0.65665 0.42859 0.21321 0.0
H3766 H 0.65879 0.46 0.2274 0.0
C3767 C 0.64347 0.55731 0.27993 0.0
C3768 C 0.62581 0.51258 0.25791 0.0
H3769 H 0.64272 0.46086 0.25244 0.0
C3770 C 0.61604 0.51666 0.24618 0.0
C3771 C 0.6357 0.49233 0.26021 0.0
C3772 C 0.64589 0.48698 0.27277 0.0
C3773 C 0.61583 0.50093 0.23667 0.0
C3774 C 0.62536 0.48054 0.23904 0.0
C3775 C 0.63547 0.47657 0.25068 0.0
C3776 C 0.6241 0.4627 0.22981 0.0
C3777 C 0.60555 0.5063 0.22413 0.0
C3778 C 0.6039 0.45401 0.22648 0.0
C3779 C 0.6027 0.43618 0.21845 0.0
C3780 C 0.62167 0.42674 0.21371 0.0
C3781 C 0.64185 0.43569 0.21682 0.0
C3782 C 0.64307 0.45352 0.22488 0.0
H3783 H 0.60444 0.52407 0.22262 0.0
H3784 H 0.61484 0.49905 0.21621 0.0
H3785 H 0.58889 0.4996 0.22389 0.0
H3786 H 0.58912 0.46064 0.23039 0.0
H3787 H 0.58699 0.4293 0.21628 0.0
H3788 H 0.79666 0.37059 0.44982 0.0
H3789 H 0.76404 0.3697 0.46314 0.0
H3790 H 0.80392 0.36108 0.49617 0.0
H3791 H 0.83636 0.36142 0.48295 0.0
H3792 H 0.75261 0.33391 0.48108 0.0
H3793 H 0.76325 0.41444 0.50378 0.0
H3794 H 0.77586 0.40747 0.48894 0.0
H3795 H 0.78672 0.39719 0.50347 0.0
C3796 C 0.79836 0.36846 0.45992 0.0
C3797 C 0.81892 0.36624 0.46541 0.0
C3798 C 0.77982 0.36804 0.46749 0.0
C3799 C 0.78172 0.36562 0.48061 0.0
C3800 C 0.80224 0.36334 0.48608 0.0
H3801 H 0.69304 0.36084 0.54391 0.0
H3802 H 0.72508 0.36151 0.53019 0.0
C3803 C 0.8207 0.36362 0.47853 0.0
C3804 C 0.76227 0.36478 0.48863 0.0
H3805 H 0.73572 0.39183 0.51202 0.0
C3806 C 0.74877 0.3466 0.4878 0.0
C3807 C 0.75759 0.3813 0.49743 0.0
C3808 C 0.77149 0.40132 0.49846 0.0
C3809 C 0.73077 0.34431 0.49574 0.0
C3810 C 0.72597 0.36091 0.50451 0.0
C3811 C 0.73949 0.37912 0.5053 0.0
C3812 C 0.70676 0.3599 0.51279 0.0
C3813 C 0.7174 0.32389 0.4949 0.0
C3814 C 0.68597 0.35893 0.50752 0.0
C3815 C 0.6678 0.35832 0.51531 0.0
C3816 C 0.67012 0.35901 0.52848 0.0
C3817 C 0.69091 0.36011 0.53377 0.0
C3818 C 0.70914 0.3606 0.52596 0.0
H3819 H 0.72664 0.31043 0.49049 0.0
H3820 H 0.71181 0.31861 0.50437 0.0
H3821 H 0.70294 0.32703 0.48896 0.0
H3822 H 0.68378 0.35881 0.49738 0.0
H3823 H 0.65192 0.35723 0.51102 0.0
H3824 H 0.09763 0.58597 0.22979 0.0
H3825 H 0.09484 0.55444 0.24376 0.0
H3826 H 0.12681 0.51504 0.21579 0.0
H3827 H 0.12957 0.54671 0.20172 0.0
H3828 H 0.07555 0.51006 0.23692 0.0
H3829 H 0.16256 0.51178 0.25088 0.0
H3830 H 0.14874 0.53541 0.24484 0.0
H3831 H 0.15613 0.51391 0.23433 0.0
C3832 C 0.10398 0.57053 0.22664 0.0
C3833 C 0.11392 0.56859 0.21479 0.0
C3834 C 0.10233 0.55261 0.23458 0.0
C3835 C 0.11076 0.5326 0.23079 0.0
C3836 C 0.12034 0.53048 0.21884 0.0
H3837 H 0.1006 0.40613 0.26439 0.0
H3838 H 0.10044 0.43762 0.25033 0.0
C3839 C 0.12185 0.54843 0.21084 0.0
C3840 C 0.10987 0.5141 0.23953 0.0
H3841 H 0.14102 0.4838 0.2594 0.0
C3842 C 0.08983 0.50423 0.24183 0.0
C3843 C 0.12854 0.5069 0.24598 0.0
C3844 C 0.15026 0.51754 0.244 0.0
C3845 C 0.08802 0.48696 0.25036 0.0
C3846 C 0.10675 0.47955 0.25667 0.0
C3847 C 0.12674 0.48963 0.2545 0.0
C3848 C 0.10605 0.46083 0.26527 0.0
C3849 C 0.06614 0.47684 0.25266 0.0
C3850 C 0.10937 0.4636 0.27827 0.0
C3851 C 0.10946 0.44564 0.2863 0.0
C3852 C 0.10654 0.42479 0.28136 0.0
C3853 C 0.10309 0.4221 0.26836 0.0
C3854 C 0.10284 0.44001 0.26037 0.0
H3855 H 0.05276 0.48702 0.24892 0.0
H3856 H 0.06547 0.46084 0.24791 0.0
H3857 H 0.06351 0.47415 0.26291 0.0
H3858 H 0.11196 0.47961 0.28216 0.0
H3859 H 0.1122 0.44797 0.29631 0.0
H3860 H 0.34049 0.36237 0.01345 0.0
H3861 H 0.30986 0.36393 -0.00111 0.0
H3862 H 0.26596 0.36916 0.03042 0.0
H3863 H 0.29681 0.36854 0.04505 0.0
H3864 H 0.27531 0.33681 0.99671 0.0
H3865 H 0.24802 0.42009 0.00843 0.0
H3866 H 0.2739 0.40955 0.01342 0.0
H3867 H 0.24964 0.40235 0.02183 0.0
C3868 C 0.32432 0.36419 0.01726 0.0
C3869 C 0.32093 0.3657 0.03032 0.0
C3870 C 0.30686 0.3649 0.00895 0.0
C3871 C 0.28572 0.36705 0.01357 0.0
C3872 C 0.28222 0.368 0.02666 0.0
H3873 H 0.16006 0.3605 0.97932 0.0
H3874 H 0.19163 0.35973 0.99326 0.0
C3875 C 0.29975 0.36743 0.03499 0.0
C3876 C 0.26739 0.36796 0.00463 0.0
H3877 H 0.225 0.3994 0.99507 0.0
C3878 C 0.26439 0.35054 0.99629 0.0
C3879 C 0.25329 0.38599 0.00408 0.0
C3880 C 0.25644 0.40566 0.01233 0.0
C3881 C 0.24735 0.35052 0.98756 0.0
C3882 C 0.23309 0.36833 0.9872 0.0
C3883 C 0.2361 0.3858 0.99544 0.0
C3884 C 0.21435 0.3687 0.97865 0.0
C3885 C 0.24436 0.33137 0.9789 0.0
C3886 C 0.21688 0.37404 0.96586 0.0
C3887 C 0.19884 0.37475 0.95791 0.0
C3888 C 0.17817 0.37012 0.9627 0.0
C3889 C 0.1758 0.36453 0.97547 0.0
C3890 C 0.19376 0.36396 0.98341 0.0
H3891 H 0.25608 0.31816 0.98092 0.0
H3892 H 0.22766 0.32489 0.97986 0.0
H3893 H 0.24648 0.33664 0.96896 0.0
H3894 H 0.23275 0.37779 0.9621 0.0
H3895 H 0.20095 0.37913 0.94809 0.0
H3896 H 0.40511 0.5622 0.78299 0.0
H3897 H 0.40328 0.53188 0.7681 0.0
H3898 H 0.33359 0.53663 0.76767 0.0
H3899 H 0.33542 0.56704 0.78259 0.0
H3900 H 0.38089 0.49132 0.76898 0.0
H3901 H 0.35181 0.54507 0.73037 0.0
H3902 H 0.36334 0.55548 0.7448 0.0
H3903 H 0.33603 0.54552 0.74462 0.0
C3904 C 0.38942 0.55643 0.7799 0.0
C3905 C 0.37039 0.56684 0.78381 0.0
C3906 C 0.38839 0.53925 0.77138 0.0
C3907 C 0.36833 0.53237 0.76665 0.0
C3908 C 0.34922 0.54203 0.77106 0.0
H3909 H 0.33572 0.4365 0.70972 0.0
H3910 H 0.33456 0.46601 0.72527 0.0
C3911 C 0.35026 0.55923 0.77959 0.0
C3912 C 0.36758 0.51569 0.7567 0.0
H3913 H 0.3551 0.50783 0.72565 0.0
C3914 C 0.37524 0.49488 0.75951 0.0
C3915 C 0.3602 0.52051 0.74438 0.0
C3916 C 0.35253 0.54289 0.74077 0.0
C3917 C 0.37561 0.47862 0.7503 0.0
C3918 C 0.36852 0.48352 0.73793 0.0
C3919 C 0.36059 0.50424 0.73515 0.0
C3920 C 0.36932 0.46727 0.72775 0.0
C3921 C 0.38337 0.45627 0.75389 0.0
C3922 C 0.38928 0.45892 0.72372 0.0
C3923 C 0.38993 0.44218 0.71489 0.0
C3924 C 0.37063 0.43371 0.70997 0.0
C3925 C 0.35074 0.44284 0.71349 0.0
C3926 C 0.35009 0.45959 0.72233 0.0
H3927 H 0.38321 0.45381 0.76428 0.0
H3928 H 0.37318 0.44359 0.74942 0.0
H3929 H 0.40025 0.45409 0.75054 0.0
H3930 H 0.40429 0.46495 0.72766 0.0
H3931 H 0.40542 0.43526 0.71231 0.0
H3932 H 0.19559 0.59295 0.53968 0.0
H3933 H 0.22414 0.59186 0.52352 0.0
H3934 H 0.20811 0.65716 0.5124 0.0
H3935 H 0.1795 0.65815 0.52844 0.0
H3936 H 0.20865 0.62538 0.49238 0.0
H3937 H 0.28332 0.62436 0.52179 0.0
H3938 H 0.2626 0.60528 0.52615 0.0
H3939 H 0.25757 0.63378 0.52772 0.0
C3940 C 0.19856 0.60714 0.53392 0.0
C3941 C 0.18566 0.62567 0.53525 0.0
C3942 C 0.21478 0.60654 0.52475 0.0
C3943 C 0.2182 0.62448 0.51686 0.0
C3944 C 0.20569 0.64322 0.51845 0.0
H3945 H 0.31107 0.65523 0.45942 0.0
H3946 H 0.28082 0.65569 0.47443 0.0
C3947 C 0.18954 0.64383 0.52763 0.0
C3948 C 0.23386 0.62326 0.5064 0.0
H3949 H 0.28772 0.61909 0.4998 0.0
C3950 C 0.22594 0.62404 0.49398 0.0
C3951 C 0.25634 0.62151 0.50859 0.0
C3952 C 0.26558 0.62134 0.52177 0.0
C3953 C 0.24005 0.62298 0.48364 0.0
C3954 C 0.26246 0.62117 0.48586 0.0
C3955 C 0.27041 0.62036 0.49824 0.0
C3956 C 0.27813 0.62081 0.47544 0.0
C3957 C 0.23112 0.62383 0.47041 0.0
C3958 C 0.286 0.60103 0.47088 0.0
C3959 C 0.30308 0.60075 0.46226 0.0
C3960 C 0.3125 0.62024 0.45825 0.0
C3961 C 0.30384 0.64003 0.46233 0.0
C3962 C 0.28673 0.64031 0.47091 0.0
H3963 H 0.21315 0.62452 0.47028 0.0
H3964 H 0.2376 0.6383 0.46547 0.0
H3965 H 0.23651 0.60933 0.46507 0.0
H3966 H 0.27948 0.58587 0.47436 0.0
H3967 H 0.30961 0.58535 0.45918 0.0
loop_
_geom_bond_atom_site_label_1
_geom_bond_atom_site_label_2
_geom_bond_distance
_geom_bond_site_symmetry_2
_ccdc_geom_bond_type
Co0 O3 1.970 . S
Co0 N17 1.989 . S
Co0 O25 1.967 . S
Co0 O32 1.920 . S
Co1 O4 1.966 . S
Co1 N10 2.022 . S
Co1 N18 1.993 . S
Co1 O26 1.941 . S
C2 O3 1.258 . S
C2 O4 1.263 . S
O3 Co0 1.970 . S
O3 C2 1.258 . S
O4 Co1 1.966 . S
O4 C2 1.263 . S
C5 O6 1.235 . S
C5 O32 1.289 . S
O6 C5 1.235 . S
C7 C9 1.400 . S
C7 N10 1.351 . S
C7 C12 1.501 . S
C8 C9 1.387 . S
C8 N11 1.341 . S
C9 C7 1.400 . S
C9 C8 1.387 . S
N10 Co1 2.022 . S
N10 C7 1.351 . S
N10 N11 1.365 . S
N11 C8 1.341 . S
N11 N10 1.365 . S
N11 H31 0.862 . S
C12 C7 1.501 . S
C12 H13 0.961 . S
C12 H14 0.961 . S
C12 H15 0.960 . S
H13 C12 0.961 . S
H14 C12 0.961 . S
H15 C12 0.960 . S
C16 N17 1.342 . S
C16 C20 1.401 . S
C16 C21 1.499 . S
N17 Co0 1.989 . S
N17 C16 1.342 . S
N17 N18 1.388 . S
N18 Co1 1.993 . S
N18 N17 1.388 . S
N18 C19 1.346 . S
C19 N18 1.346 . S
C19 C20 1.396 . S
C19 C29 1.510 . S
C20 C16 1.401 . S
C20 C19 1.396 . S
C21 C16 1.499 . S
C21 H22 0.959 . S
C21 H23 0.960 . S
C21 H24 0.961 . S
H22 C21 0.959 . S
H23 C21 0.960 . S
H24 C21 0.961 . S
O25 Co0 1.967 . S
O25 C33 1.258 . S
O26 Co1 1.941 . S
O26 C33 1.266 . S
H27 C29 0.959 . S
H28 C29 0.961 . S
C29 C19 1.510 . S
C29 H27 0.959 . S
C29 H28 0.961 . S
C29 H30 0.960 . S
H30 C29 0.960 . S
H31 N11 0.862 . S
O32 Co0 1.920 . S
O32 C5 1.289 . S
C33 O25 1.258 . S
C33 O26 1.266 . S
Co34 O37 1.970 . S
Co34 N51 1.989 . S
Co34 O59 1.967 . S
Co34 O66 1.920 . S
Co35 O38 1.966 . S
Co35 N44 2.022 . S
Co35 N52 1.993 . S
Co35 O60 1.941 . S
C36 O37 1.258 . S
C36 O38 1.263 . S
O37 Co34 1.970 . S
O37 C36 1.258 . S
O38 Co35 1.966 . S
O38 C36 1.263 . S
C39 O40 1.235 . S
C39 O66 1.289 . S
O40 C39 1.235 . S
C41 C43 1.400 . S
C41 N44 1.351 . S
C41 C46 1.501 . S
C42 C43 1.387 . S
C42 N45 1.341 . S
C43 C41 1.400 . S
C43 C42 1.387 . S
N44 Co35 2.022 . S
N44 C41 1.351 . S
N44 N45 1.365 . S
N45 C42 1.341 . S
N45 N44 1.365 . S
N45 H65 0.862 . S
C46 C41 1.501 . S
C46 H47 0.961 . S
C46 H48 0.961 . S
C46 H49 0.960 . S
H47 C46 0.961 . S
H48 C46 0.961 . S
H49 C46 0.960 . S
C50 N51 1.342 . S
C50 C54 1.401 . S
C50 C55 1.499 . S
N51 Co34 1.989 . S
N51 C50 1.342 . S
N51 N52 1.388 . S
N52 Co35 1.993 . S
N52 N51 1.388 . S
N52 C53 1.346 . S
C53 N52 1.346 . S
C53 C54 1.396 . S
C53 C63 1.510 . S
C54 C50 1.401 . S
C54 C53 1.396 . S
C55 C50 1.499 . S
C55 H56 0.959 . S
C55 H57 0.960 . S
C55 H58 0.961 . S
H56 C55 0.959 . S
H57 C55 0.960 . S
H58 C55 0.961 . S
O59 Co34 1.967 . S
O59 C67 1.258 . S
O60 Co35 1.941 . S
O60 C67 1.266 . S
H61 C63 0.959 . S
H62 C63 0.961 . S
C63 C53 1.510 . S
C63 H61 0.959 . S
C63 H62 0.961 . S
C63 H64 0.960 . S
H64 C63 0.960 . S
H65 N45 0.862 . S
O66 Co34 1.920 . S
O66 C39 1.289 . S
C67 O59 1.258 . S
C67 O60 1.266 . S
Co68 O71 1.970 . S
Co68 N85 1.989 . S
Co68 O93 1.967 . S
Co68 O100 1.920 . S
Co69 O72 1.966 . S
Co69 N78 2.022 . S
Co69 N86 1.993 . S
Co69 O94 1.941 . S
C70 O71 1.258 . S
C70 O72 1.263 . S
O71 Co68 1.970 . S
O71 C70 1.258 . S
O72 Co69 1.966 . S
O72 C70 1.263 . S
C73 O74 1.235 . S
C73 O100 1.289 . S
O74 C73 1.235 . S
C75 C77 1.400 . S
C75 N78 1.351 . S
C75 C80 1.501 . S
C76 C77 1.387 . S
C76 N79 1.341 . S
C77 C75 1.400 . S
C77 C76 1.387 . S
N78 Co69 2.022 . S
N78 C75 1.351 . S
N78 N79 1.365 . S
N79 C76 1.341 . S
N79 N78 1.365 . S
N79 H99 0.862 . S
C80 C75 1.501 . S
C80 H81 0.961 . S
C80 H82 0.961 . S
C80 H83 0.960 . S
H81 C80 0.961 . S
H82 C80 0.961 . S
H83 C80 0.960 . S
C84 N85 1.342 . S
C84 C88 1.401 . S
C84 C89 1.499 . S
N85 Co68 1.989 . S
N85 C84 1.342 . S
N85 N86 1.388 . S
N86 Co69 1.993 . S
N86 N85 1.388 . S
N86 C87 1.346 . S
C87 N86 1.346 . S
C87 C88 1.396 . S
C87 C97 1.510 . S
C88 C84 1.401 . S
C88 C87 1.396 . S
C89 C84 1.499 . S
C89 H90 0.959 . S
C89 H91 0.960 . S
C89 H92 0.961 . S
H90 C89 0.959 . S
H91 C89 0.960 . S
H92 C89 0.961 . S
O93 Co68 1.967 . S
O93 C101 1.258 . S
O94 Co69 1.941 . S
O94 C101 1.266 . S
H95 C97 0.959 . S
H96 C97 0.961 . S
C97 C87 1.510 . S
C97 H95 0.959 . S
C97 H96 0.961 . S
C97 H98 0.960 . S
H98 C97 0.960 . S
H99 N79 0.862 . S
O100 Co68 1.920 . S
O100 C73 1.289 . S
C101 O93 1.258 . S
C101 O94 1.266 . S
Co102 O105 1.970 . S
Co102 N119 1.989 . S
Co102 O127 1.967 . S
Co102 O134 1.920 . S
Co103 O106 1.966 . S
Co103 N112 2.022 . S
Co103 N120 1.993 . S
Co103 O128 1.941 . S
C104 O105 1.258 . S
C104 O106 1.263 . S
O105 Co102 1.970 . S
O105 C104 1.258 . S
O106 Co103 1.966 . S
O106 C104 1.263 . S
C107 O108 1.235 . S
C107 O134 1.289 . S
O108 C107 1.235 . S
C109 C111 1.400 . S
C109 N112 1.351 . S
C109 C114 1.501 . S
C110 C111 1.387 . S
C110 N113 1.341 . S
C111 C109 1.400 . S
C111 C110 1.387 . S
N112 Co103 2.022 . S
N112 C109 1.351 . S
N112 N113 1.365 . S
N113 C110 1.341 . S
N113 N112 1.365 . S
N113 H133 0.862 . S
C114 C109 1.501 . S
C114 H115 0.961 . S
C114 H116 0.961 . S
C114 H117 0.960 . S
H115 C114 0.961 . S
H116 C114 0.961 . S
H117 C114 0.960 . S
C118 N119 1.342 . S
C118 C122 1.401 . S
C118 C123 1.499 . S
N119 Co102 1.989 . S
N119 C118 1.342 . S
N119 N120 1.388 . S
N120 Co103 1.993 . S
N120 N119 1.388 . S
N120 C121 1.346 . S
C121 N120 1.346 . S
C121 C122 1.396 . S
C121 C131 1.510 . S
C122 C118 1.401 . S
C122 C121 1.396 . S
C123 C118 1.499 . S
C123 H124 0.959 . S
C123 H125 0.960 . S
C123 H126 0.961 . S
H124 C123 0.959 . S
H125 C123 0.960 . S
H126 C123 0.961 . S
O127 Co102 1.967 . S
O127 C135 1.258 . S
O128 Co103 1.941 . S
O128 C135 1.266 . S
H129 C131 0.959 . S
H130 C131 0.961 . S
C131 C121 1.510 . S
C131 H129 0.959 . S
C131 H130 0.961 . S
C131 H132 0.960 . S
H132 C131 0.960 . S
H133 N113 0.862 . S
O134 Co102 1.920 . S
O134 C107 1.289 . S
C135 O127 1.258 . S
C135 O128 1.266 . S
Co136 O139 1.970 . S
Co136 N153 1.989 . S
Co136 O161 1.967 . S
Co136 O168 1.920 . S
Co137 O140 1.966 . S
Co137 N146 2.022 . S
Co137 N154 1.993 . S
Co137 O162 1.941 . S
C138 O139 1.258 . S
C138 O140 1.263 . S
O139 Co136 1.970 . S
O139 C138 1.258 . S
O140 Co137 1.966 . S
O140 C138 1.263 . S
C141 O142 1.235 . S
C141 O168 1.289 . S
O142 C141 1.235 . S
C143 C145 1.400 . S
C143 N146 1.351 . S
C143 C148 1.501 . S
C144 C145 1.387 . S
C144 N147 1.341 . S
C145 C143 1.400 . S
C145 C144 1.387 . S
N146 Co137 2.022 . S
N146 C143 1.351 . S
N146 N147 1.365 . S
N147 C144 1.341 . S
N147 N146 1.365 . S
N147 H167 0.862 . S
C148 C143 1.501 . S
C148 H149 0.961 . S
C148 H150 0.961 . S
C148 H151 0.960 . S
H149 C148 0.961 . S
H150 C148 0.961 . S
H151 C148 0.960 . S
C152 N153 1.342 . S
C152 C156 1.401 . S
C152 C157 1.499 . S
N153 Co136 1.989 . S
N153 C152 1.342 . S
N153 N154 1.388 . S
N154 Co137 1.993 . S
N154 N153 1.388 . S
N154 C155 1.346 . S
C155 N154 1.346 . S
C155 C156 1.396 . S
C155 C165 1.510 . S
C156 C152 1.401 . S
C156 C155 1.396 . S
C157 C152 1.499 . S
C157 H158 0.959 . S
C157 H159 0.960 . S
C157 H160 0.961 . S
H158 C157 0.959 . S
H159 C157 0.960 . S
H160 C157 0.961 . S
O161 Co136 1.967 . S
O161 C169 1.258 . S
O162 Co137 1.941 . S
O162 C169 1.266 . S
H163 C165 0.959 . S
H164 C165 0.961 . S
C165 C155 1.510 . S
C165 H163 0.959 . S
C165 H164 0.961 . S
C165 H166 0.960 . S
H166 C165 0.960 . S
H167 N147 0.862 . S
O168 Co136 1.920 . S
O168 C141 1.289 . S
C169 O161 1.258 . S
C169 O162 1.266 . S
Co170 O173 1.970 . S
Co170 N187 1.989 . S
Co170 O195 1.967 . S
Co170 O202 1.920 . S
Co171 O174 1.966 . S
Co171 N180 2.022 . S
Co171 N188 1.993 . S
Co171 O196 1.941 . S
C172 O173 1.258 . S
C172 O174 1.263 . S
O173 Co170 1.970 . S
O173 C172 1.258 . S
O174 Co171 1.966 . S
O174 C172 1.263 . S
C175 O176 1.235 . S
C175 O202 1.289 . S
O176 C175 1.235 . S
C177 C179 1.400 . S
C177 N180 1.351 . S
C177 C182 1.501 . S
C178 C179 1.387 . S
C178 N181 1.341 . S
C179 C177 1.400 . S
C179 C178 1.387 . S
N180 Co171 2.022 . S
N180 C177 1.351 . S
N180 N181 1.365 . S
N181 C178 1.341 . S
N181 N180 1.365 . S
N181 H201 0.862 . S
C182 C177 1.501 . S
C182 H183 0.961 . S
C182 H184 0.961 . S
C182 H185 0.960 . S
H183 C182 0.961 . S
H184 C182 0.961 . S
H185 C182 0.960 . S
C186 N187 1.342 . S
C186 C190 1.401 . S
C186 C191 1.499 . S
N187 Co170 1.989 . S
N187 C186 1.342 . S
N187 N188 1.388 . S
N188 Co171 1.993 . S
N188 N187 1.388 . S
N188 C189 1.346 . S
C189 N188 1.346 . S
C189 C190 1.396 . S
C189 C199 1.510 . S
C190 C186 1.401 . S
C190 C189 1.396 . S
C191 C186 1.499 . S
C191 H192 0.959 . S
C191 H193 0.960 . S
C191 H194 0.961 . S
H192 C191 0.959 . S
H193 C191 0.960 . S
H194 C191 0.961 . S
O195 Co170 1.967 . S
O195 C203 1.258 . S
O196 Co171 1.941 . S
O196 C203 1.266 . S
H197 C199 0.959 . S
H198 C199 0.961 . S
C199 C189 1.510 . S
C199 H197 0.959 . S
C199 H198 0.961 . S
C199 H200 0.960 . S
H200 C199 0.960 . S
H201 N181 0.862 . S
O202 Co170 1.920 . S
O202 C175 1.289 . S
C203 O195 1.258 . S
C203 O196 1.266 . S
Co204 O207 1.970 . S
Co204 N221 1.989 . S
Co204 O229 1.967 . S
Co204 O236 1.920 . S
Co205 O208 1.966 . S
Co205 N214 2.022 . S
Co205 N222 1.993 . S
Co205 O230 1.941 . S
C206 O207 1.258 . S
C206 O208 1.263 . S
O207 Co204 1.970 . S
O207 C206 1.258 . S
O208 Co205 1.966 . S
O208 C206 1.263 . S
C209 O210 1.235 . S
C209 O236 1.289 . S
O210 C209 1.235 . S
C211 C213 1.400 . S
C211 N214 1.351 . S
C211 C216 1.501 . S
C212 C213 1.387 . S
C212 N215 1.341 . S
C213 C211 1.400 . S
C213 C212 1.387 . S
N214 Co205 2.022 . S
N214 C211 1.351 . S
N214 N215 1.365 . S
N215 C212 1.341 . S
N215 N214 1.365 . S
N215 H235 0.862 . S
C216 C211 1.501 . S
C216 H217 0.961 . S
C216 H218 0.961 . S
C216 H219 0.960 . S
H217 C216 0.961 . S
H218 C216 0.961 . S
H219 C216 0.960 . S
C220 N221 1.342 . S
C220 C224 1.401 . S
C220 C225 1.499 . S
N221 Co204 1.989 . S
N221 C220 1.342 . S
N221 N222 1.388 . S
N222 Co205 1.993 . S
N222 N221 1.388 . S
N222 C223 1.346 . S
C223 N222 1.346 . S
C223 C224 1.396 . S
C223 C233 1.510 . S
C224 C220 1.401 . S
C224 C223 1.396 . S
C225 C220 1.499 . S
C225 H226 0.959 . S
C225 H227 0.960 . S
C225 H228 0.961 . S
H226 C225 0.959 . S
H227 C225 0.960 . S
H228 C225 0.961 . S
O229 Co204 1.967 . S
O229 C237 1.258 . S
O230 Co205 1.941 . S
O230 C237 1.266 . S
H231 C233 0.959 . S
H232 C233 0.961 . S
C233 C223 1.510 . S
C233 H231 0.959 . S
C233 H232 0.961 . S
C233 H234 0.960 . S
H234 C233 0.960 . S
H235 N215 0.862 . S
O236 Co204 1.920 . S
O236 C209 1.289 . S
C237 O229 1.258 . S
C237 O230 1.266 . S
Co238 O241 1.970 . S
Co238 N255 1.989 . S
Co238 O263 1.967 . S
Co238 O270 1.920 . S
Co239 O242 1.966 . S
Co239 N248 2.022 . S
Co239 N256 1.993 . S
Co239 O264 1.941 . S
C240 O241 1.258 . S
C240 O242 1.263 . S
O241 Co238 1.970 . S
O241 C240 1.258 . S
O242 Co239 1.966 . S
O242 C240 1.263 . S
C243 O244 1.235 . S
C243 O270 1.289 . S
O244 C243 1.235 . S
C245 C247 1.400 . S
C245 N248 1.351 . S
C245 C250 1.501 . S
C246 C247 1.387 . S
C246 N249 1.341 . S
C247 C245 1.400 . S
C247 C246 1.387 . S
N248 Co239 2.022 . S
N248 C245 1.351 . S
N248 N249 1.365 . S
N249 C246 1.341 . S
N249 N248 1.365 . S
N249 H269 0.862 . S
C250 C245 1.501 . S
C250 H251 0.961 . S
C250 H252 0.961 . S
C250 H253 0.960 . S
H251 C250 0.961 . S
H252 C250 0.961 . S
H253 C250 0.960 . S
C254 N255 1.342 . S
C254 C258 1.401 . S
C254 C259 1.499 . S
N255 Co238 1.989 . S
N255 C254 1.342 . S
N255 N256 1.388 . S
N256 Co239 1.993 . S
N256 N255 1.388 . S
N256 C257 1.346 . S
C257 N256 1.346 . S
C257 C258 1.396 . S
C257 C267 1.510 . S
C258 C254 1.401 . S
C258 C257 1.396 . S
C259 C254 1.499 . S
C259 H260 0.959 . S
C259 H261 0.960 . S
C259 H262 0.961 . S
H260 C259 0.959 . S
H261 C259 0.960 . S
H262 C259 0.961 . S
O263 Co238 1.967 . S
O263 C271 1.258 . S
O264 Co239 1.941 . S
O264 C271 1.266 . S
H265 C267 0.959 . S
H266 C267 0.961 . S
C267 C257 1.510 . S
C267 H265 0.959 . S
C267 H266 0.961 . S
C267 H268 0.960 . S
H268 C267 0.960 . S
H269 N249 0.862 . S
O270 Co238 1.920 . S
O270 C243 1.289 . S
C271 O263 1.258 . S
C271 O264 1.266 . S
Co272 O275 1.970 . S
Co272 N289 1.989 . S
Co272 O297 1.967 . S
Co272 O304 1.920 . S
Co273 O276 1.966 . S
Co273 N282 2.022 . S
Co273 N290 1.993 . S
Co273 O298 1.941 . S
C274 O275 1.258 . S
C274 O276 1.263 . S
O275 Co272 1.970 . S
O275 C274 1.258 . S
O276 Co273 1.966 . S
O276 C274 1.263 . S
C277 O278 1.235 . S
C277 O304 1.289 . S
O278 C277 1.235 . S
C279 C281 1.400 . S
C279 N282 1.351 . S
C279 C284 1.501 . S
C280 C281 1.387 . S
C280 N283 1.341 . S
C281 C279 1.400 . S
C281 C280 1.387 . S
N282 Co273 2.022 . S
N282 C279 1.351 . S
N282 N283 1.365 . S
N283 C280 1.341 . S
N283 N282 1.365 . S
N283 H303 0.862 . S
C284 C279 1.501 . S
C284 H285 0.961 . S
C284 H286 0.961 . S
C284 H287 0.960 . S
H285 C284 0.961 . S
H286 C284 0.961 . S
H287 C284 0.960 . S
C288 N289 1.342 . S
C288 C292 1.401 . S
C288 C293 1.499 . S
N289 Co272 1.989 . S
N289 C288 1.342 . S
N289 N290 1.388 . S
N290 Co273 1.993 . S
N290 N289 1.388 . S
N290 C291 1.346 . S
C291 N290 1.346 . S
C291 C292 1.396 . S
C291 C301 1.510 . S
C292 C288 1.401 . S
C292 C291 1.396 . S
C293 C288 1.499 . S
C293 H294 0.959 . S
C293 H295 0.960 . S
C293 H296 0.961 . S
H294 C293 0.959 . S
H295 C293 0.960 . S
H296 C293 0.961 . S
O297 Co272 1.967 . S
O297 C305 1.258 . S
O298 Co273 1.941 . S
O298 C305 1.266 . S
H299 C301 0.959 . S
H300 C301 0.961 . S
C301 C291 1.510 . S
C301 H299 0.959 . S
C301 H300 0.961 . S
C301 H302 0.960 . S
H302 C301 0.960 . S
H303 N283 0.862 . S
O304 Co272 1.920 . S
O304 C277 1.289 . S
C305 O297 1.258 . S
C305 O298 1.266 . S
Co306 O309 1.970 . S
Co306 N323 1.989 . S
Co306 O331 1.967 . S
Co306 O338 1.920 . S
Co307 O310 1.966 . S
Co307 N316 2.022 . S
Co307 N324 1.993 . S
Co307 O332 1.941 . S
C308 O309 1.258 . S
C308 O310 1.263 . S
O309 Co306 1.970 . S
O309 C308 1.258 . S
O310 Co307 1.966 . S
O310 C308 1.263 . S
C311 O312 1.235 . S
C311 O338 1.289 . S
O312 C311 1.235 . S
C313 C315 1.400 . S
C313 N316 1.351 . S
C313 C318 1.501 . S
C314 C315 1.387 . S
C314 N317 1.341 . S
C315 C313 1.400 . S
C315 C314 1.387 . S
N316 Co307 2.022 . S
N316 C313 1.351 . S
N316 N317 1.365 . S
N317 C314 1.341 . S
N317 N316 1.365 . S
N317 H337 0.862 . S
C318 C313 1.501 . S
C318 H319 0.961 . S
C318 H320 0.961 . S
C318 H321 0.960 . S
H319 C318 0.961 . S
H320 C318 0.961 . S
H321 C318 0.960 . S
C322 N323 1.342 . S
C322 C326 1.401 . S
C322 C327 1.499 . S
N323 Co306 1.989 . S
N323 C322 1.342 . S
N323 N324 1.388 . S
N324 Co307 1.993 . S
N324 N323 1.388 . S
N324 C325 1.346 . S
C325 N324 1.346 . S
C325 C326 1.396 . S
C325 C335 1.510 . S
C326 C322 1.401 . S
C326 C325 1.396 . S
C327 C322 1.499 . S
C327 H328 0.959 . S
C327 H329 0.960 . S
C327 H330 0.961 . S
H328 C327 0.959 . S
H329 C327 0.960 . S
H330 C327 0.961 . S
O331 Co306 1.967 . S
O331 C339 1.258 . S
O332 Co307 1.941 . S
O332 C339 1.266 . S
H333 C335 0.959 . S
H334 C335 0.961 . S
C335 C325 1.510 . S
C335 H333 0.959 . S
C335 H334 0.961 . S
C335 H336 0.960 . S
H336 C335 0.960 . S
H337 N317 0.862 . S
O338 Co306 1.920 . S
O338 C311 1.289 . S
C339 O331 1.258 . S
C339 O332 1.266 . S
Co340 O343 1.970 . S
Co340 N357 1.989 . S
Co340 O365 1.967 . S
Co340 O372 1.920 . S
Co341 O344 1.966 . S
Co341 N350 2.022 . S
Co341 N358 1.993 . S
Co341 O366 1.941 . S
C342 O343 1.258 . S
C342 O344 1.263 . S
O343 Co340 1.970 . S
O343 C342 1.258 . S
O344 Co341 1.966 . S
O344 C342 1.263 . S
C345 O346 1.235 . S
C345 O372 1.289 . S
O346 C345 1.235 . S
C347 C349 1.400 . S
C347 N350 1.351 . S
C347 C352 1.501 . S
C348 C349 1.387 . S
C348 N351 1.341 . S
C349 C347 1.400 . S
C349 C348 1.387 . S
N350 Co341 2.022 . S
N350 C347 1.351 . S
N350 N351 1.365 . S
N351 C348 1.341 . S
N351 N350 1.365 . S
N351 H371 0.862 . S
C352 C347 1.501 . S
C352 H353 0.961 . S
C352 H354 0.961 . S
C352 H355 0.960 . S
H353 C352 0.961 . S
H354 C352 0.961 . S
H355 C352 0.960 . S
C356 N357 1.342 . S
C356 C360 1.401 . S
C356 C361 1.499 . S
N357 Co340 1.989 . S
N357 C356 1.342 . S
N357 N358 1.388 . S
N358 Co341 1.993 . S
N358 N357 1.388 . S
N358 C359 1.346 . S
C359 N358 1.346 . S
C359 C360 1.396 . S
C359 C369 1.510 . S
C360 C356 1.401 . S
C360 C359 1.396 . S
C361 C356 1.499 . S
C361 H362 0.959 . S
C361 H363 0.960 . S
C361 H364 0.961 . S
H362 C361 0.959 . S
H363 C361 0.960 . S
H364 C361 0.961 . S
O365 Co340 1.967 . S
O365 C373 1.258 . S
O366 Co341 1.941 . S
O366 C373 1.266 . S
H367 C369 0.959 . S
H368 C369 0.961 . S
C369 C359 1.510 . S
C369 H367 0.959 . S
C369 H368 0.961 . S
C369 H370 0.960 . S
H370 C369 0.960 . S
H371 N351 0.862 . S
O372 Co340 1.920 . S
O372 C345 1.289 . S
C373 O365 1.258 . S
C373 O366 1.266 . S
Co374 O377 1.970 . S
Co374 N391 1.989 . S
Co374 O399 1.967 . S
Co374 O406 1.920 . S
Co375 O378 1.966 . S
Co375 N384 2.022 . S
Co375 N392 1.993 . S
Co375 O400 1.941 . S
C376 O377 1.258 . S
C376 O378 1.263 . S
O377 Co374 1.970 . S
O377 C376 1.258 . S
O378 Co375 1.966 . S
O378 C376 1.263 . S
C379 O380 1.235 . S
C379 O406 1.289 . S
O380 C379 1.235 . S
C381 C383 1.400 . S
C381 N384 1.351 . S
C381 C386 1.501 . S
C382 C383 1.387 . S
C382 N385 1.341 . S
C383 C381 1.400 . S
C383 C382 1.387 . S
N384 Co375 2.022 . S
N384 C381 1.351 . S
N384 N385 1.365 . S
N385 C382 1.341 . S
N385 N384 1.365 . S
N385 H405 0.862 . S
C386 C381 1.501 . S
C386 H387 0.961 . S
C386 H388 0.961 . S
C386 H389 0.960 . S
H387 C386 0.961 . S
H388 C386 0.961 . S
H389 C386 0.960 . S
C390 N391 1.342 . S
C390 C394 1.401 . S
C390 C395 1.499 . S
N391 Co374 1.989 . S
N391 C390 1.342 . S
N391 N392 1.388 . S
N392 Co375 1.993 . S
N392 N391 1.388 . S
N392 C393 1.346 . S
C393 N392 1.346 . S
C393 C394 1.396 . S
C393 C403 1.510 . S
C394 C390 1.401 . S
C394 C393 1.396 . S
C395 C390 1.499 . S
C395 H396 0.959 . S
C395 H397 0.960 . S
C395 H398 0.961 . S
H396 C395 0.959 . S
H397 C395 0.960 . S
H398 C395 0.961 . S
O399 Co374 1.967 . S
O399 C407 1.258 . S
O400 Co375 1.941 . S
O400 C407 1.266 . S
H401 C403 0.959 . S
H402 C403 0.961 . S
C403 C393 1.510 . S
C403 H401 0.959 . S
C403 H402 0.961 . S
C403 H404 0.960 . S
H404 C403 0.960 . S
H405 N385 0.862 . S
O406 Co374 1.920 . S
O406 C379 1.289 . S
C407 O399 1.258 . S
C407 O400 1.266 . S
Co408 O411 1.970 . S
Co408 N425 1.989 . S
Co408 O433 1.967 . S
Co408 O440 1.920 . S
Co409 O412 1.966 . S
Co409 N418 2.022 . S
Co409 N426 1.993 . S
Co409 O434 1.941 . S
C410 O411 1.258 . S
C410 O412 1.263 . S
O411 Co408 1.970 . S
O411 C410 1.258 . S
O412 Co409 1.966 . S
O412 C410 1.263 . S
C413 O414 1.235 . S
C413 O440 1.289 . S
O414 C413 1.235 . S
C415 C417 1.400 . S
C415 N418 1.351 . S
C415 C420 1.501 . S
C416 C417 1.387 . S
C416 N419 1.341 . S
C417 C415 1.400 . S
C417 C416 1.387 . S
N418 Co409 2.022 . S
N418 C415 1.351 . S
N418 N419 1.365 . S
N419 C416 1.341 . S
N419 N418 1.365 . S
N419 H439 0.862 . S
C420 C415 1.501 . S
C420 H421 0.961 . S
C420 H422 0.961 . S
C420 H423 0.960 . S
H421 C420 0.961 . S
H422 C420 0.961 . S
H423 C420 0.960 . S
C424 N425 1.342 . S
C424 C428 1.401 . S
C424 C429 1.499 . S
N425 Co408 1.989 . S
N425 C424 1.342 . S
N425 N426 1.388 . S
N426 Co409 1.993 . S
N426 N425 1.388 . S
N426 C427 1.346 . S
C427 N426 1.346 . S
C427 C428 1.396 . S
C427 C437 1.510 . S
C428 C424 1.401 . S
C428 C427 1.396 . S
C429 C424 1.499 . S
C429 H430 0.959 . S
C429 H431 0.960 . S
C429 H432 0.961 . S
H430 C429 0.959 . S
H431 C429 0.960 . S
H432 C429 0.961 . S
O433 Co408 1.967 . S
O433 C441 1.258 . S
O434 Co409 1.941 . S
O434 C441 1.266 . S
H435 C437 0.959 . S
H436 C437 0.961 . S
C437 C427 1.510 . S
C437 H435 0.959 . S
C437 H436 0.961 . S
C437 H438 0.960 . S
H438 C437 0.960 . S
H439 N419 0.862 . S
O440 Co408 1.920 . S
O440 C413 1.289 . S
C441 O433 1.258 . S
C441 O434 1.266 . S
Co442 O445 1.970 . S
Co442 N459 1.989 . S
Co442 O467 1.967 . S
Co442 O474 1.920 . S
Co443 O446 1.966 . S
Co443 N452 2.022 . S
Co443 N460 1.993 . S
Co443 O468 1.941 . S
C444 O445 1.258 . S
C444 O446 1.263 . S
O445 Co442 1.970 . S
O445 C444 1.258 . S
O446 Co443 1.966 . S
O446 C444 1.263 . S
C447 O448 1.235 . S
C447 O474 1.289 . S
O448 C447 1.235 . S
C449 C451 1.400 . S
C449 N452 1.351 . S
C449 C454 1.501 . S
C450 C451 1.387 . S
C450 N453 1.341 . S
C451 C449 1.400 . S
C451 C450 1.387 . S
N452 Co443 2.022 . S
N452 C449 1.351 . S
N452 N453 1.365 . S
N453 C450 1.341 . S
N453 N452 1.365 . S
N453 H473 0.862 . S
C454 C449 1.501 . S
C454 H455 0.961 . S
C454 H456 0.961 . S
C454 H457 0.960 . S
H455 C454 0.961 . S
H456 C454 0.961 . S
H457 C454 0.960 . S
C458 N459 1.342 . S
C458 C462 1.401 . S
C458 C463 1.499 . S
N459 Co442 1.989 . S
N459 C458 1.342 . S
N459 N460 1.388 . S
N460 Co443 1.993 . S
N460 N459 1.388 . S
N460 C461 1.346 . S
C461 N460 1.346 . S
C461 C462 1.396 . S
C461 C471 1.510 . S
C462 C458 1.401 . S
C462 C461 1.396 . S
C463 C458 1.499 . S
C463 H464 0.959 . S
C463 H465 0.960 . S
C463 H466 0.961 . S
H464 C463 0.959 . S
H465 C463 0.960 . S
H466 C463 0.961 . S
O467 Co442 1.967 . S
O467 C475 1.258 . S
O468 Co443 1.941 . S
O468 C475 1.266 . S
H469 C471 0.959 . S
H470 C471 0.961 . S
C471 C461 1.510 . S
C471 H469 0.959 . S
C471 H470 0.961 . S
C471 H472 0.960 . S
H472 C471 0.960 . S
H473 N453 0.862 . S
O474 Co442 1.920 . S
O474 C447 1.289 . S
C475 O467 1.258 . S
C475 O468 1.266 . S
Co476 O479 1.970 . S
Co476 N493 1.989 . S
Co476 O501 1.967 . S
Co476 O508 1.920 . S
Co477 O480 1.966 . S
Co477 N486 2.022 . S
Co477 N494 1.993 . S
Co477 O502 1.941 . S
C478 O479 1.258 . S
C478 O480 1.263 . S
O479 Co476 1.970 . S
O479 C478 1.258 . S
O480 Co477 1.966 . S
O480 C478 1.263 . S
C481 O482 1.235 . S
C481 O508 1.289 . S
O482 C481 1.235 . S
C483 C485 1.400 . S
C483 N486 1.351 . S
C483 C488 1.501 . S
C484 C485 1.387 . S
C484 N487 1.341 . S
C485 C483 1.400 . S
C485 C484 1.387 . S
N486 Co477 2.022 . S
N486 C483 1.351 . S
N486 N487 1.365 . S
N487 C484 1.341 . S
N487 N486 1.365 . S
N487 H507 0.862 . S
C488 C483 1.501 . S
C488 H489 0.961 . S
C488 H490 0.961 . S
C488 H491 0.960 . S
H489 C488 0.961 . S
H490 C488 0.961 . S
H491 C488 0.960 . S
C492 N493 1.342 . S
C492 C496 1.401 . S
C492 C497 1.499 . S
N493 Co476 1.989 . S
N493 C492 1.342 . S
N493 N494 1.388 . S
N494 Co477 1.993 . S
N494 N493 1.388 . S
N494 C495 1.346 . S
C495 N494 1.346 . S
C495 C496 1.396 . S
C495 C505 1.510 . S
C496 C492 1.401 . S
C496 C495 1.396 . S
C497 C492 1.499 . S
C497 H498 0.959 . S
C497 H499 0.960 . S
C497 H500 0.961 . S
H498 C497 0.959 . S
H499 C497 0.960 . S
H500 C497 0.961 . S
O501 Co476 1.967 . S
O501 C509 1.258 . S
O502 Co477 1.941 . S
O502 C509 1.266 . S
H503 C505 0.959 . S
H504 C505 0.961 . S
C505 C495 1.510 . S
C505 H503 0.959 . S
C505 H504 0.961 . S
C505 H506 0.960 . S
H506 C505 0.960 . S
H507 N487 0.862 . S
O508 Co476 1.920 . S
O508 C481 1.289 . S
C509 O501 1.258 . S
C509 O502 1.266 . S
Co510 O513 1.970 . S
Co510 N527 1.989 . S
Co510 O535 1.967 . S
Co510 O542 1.920 . S
Co511 O514 1.966 . S
Co511 N520 2.022 . S
Co511 N528 1.993 . S
Co511 O536 1.941 . S
C512 O513 1.258 . S
C512 O514 1.263 . S
O513 Co510 1.970 . S
O513 C512 1.258 . S
O514 Co511 1.966 . S
O514 C512 1.263 . S
C515 O516 1.235 . S
C515 O542 1.289 . S
O516 C515 1.235 . S
C517 C519 1.400 . S
C517 N520 1.351 . S
C517 C522 1.501 . S
C518 C519 1.387 . S
C518 N521 1.341 . S
C519 C517 1.400 . S
C519 C518 1.387 . S
N520 Co511 2.022 . S
N520 C517 1.351 . S
N520 N521 1.365 . S
N521 C518 1.341 . S
N521 N520 1.365 . S
N521 H541 0.862 . S
C522 C517 1.501 . S
C522 H523 0.961 . S
C522 H524 0.961 . S
C522 H525 0.960 . S
H523 C522 0.961 . S
H524 C522 0.961 . S
H525 C522 0.960 . S
C526 N527 1.342 . S
C526 C530 1.401 . S
C526 C531 1.499 . S
N527 Co510 1.989 . S
N527 C526 1.342 . S
N527 N528 1.388 . S
N528 Co511 1.993 . S
N528 N527 1.388 . S
N528 C529 1.346 . S
C529 N528 1.346 . S
C529 C530 1.396 . S
C529 C539 1.510 . S
C530 C526 1.401 . S
C530 C529 1.396 . S
C531 C526 1.499 . S
C531 H532 0.959 . S
C531 H533 0.960 . S
C531 H534 0.961 . S
H532 C531 0.959 . S
H533 C531 0.960 . S
H534 C531 0.961 . S
O535 Co510 1.967 . S
O535 C543 1.258 . S
O536 Co511 1.941 . S
O536 C543 1.266 . S
H537 C539 0.959 . S
H538 C539 0.961 . S
C539 C529 1.510 . S
C539 H537 0.959 . S
C539 H538 0.961 . S
C539 H540 0.960 . S
H540 C539 0.960 . S
H541 N521 0.862 . S
O542 Co510 1.920 . S
O542 C515 1.289 . S
C543 O535 1.258 . S
C543 O536 1.266 . S
Co544 O547 1.970 . S
Co544 N561 1.989 . S
Co544 O569 1.967 . S
Co544 O576 1.920 . S
Co545 O548 1.966 . S
Co545 N554 2.022 . S
Co545 N562 1.993 . S
Co545 O570 1.941 . S
C546 O547 1.258 . S
C546 O548 1.263 . S
O547 Co544 1.970 . S
O547 C546 1.258 . S
O548 Co545 1.966 . S
O548 C546 1.263 . S
C549 O550 1.235 . S
C549 O576 1.289 . S
O550 C549 1.235 . S
C551 C553 1.400 . S
C551 N554 1.351 . S
C551 C556 1.501 . S
C552 C553 1.387 . S
C552 N555 1.341 . S
C553 C551 1.400 . S
C553 C552 1.387 . S
N554 Co545 2.022 . S
N554 C551 1.351 . S
N554 N555 1.365 . S
N555 C552 1.341 . S
N555 N554 1.365 . S
N555 H575 0.862 . S
C556 C551 1.501 . S
C556 H557 0.961 . S
C556 H558 0.961 . S
C556 H559 0.960 . S
H557 C556 0.961 . S
H558 C556 0.961 . S
H559 C556 0.960 . S
C560 N561 1.342 . S
C560 C564 1.401 . S
C560 C565 1.499 . S
N561 Co544 1.989 . S
N561 C560 1.342 . S
N561 N562 1.388 . S
N562 Co545 1.993 . S
N562 N561 1.388 . S
N562 C563 1.346 . S
C563 N562 1.346 . S
C563 C564 1.396 . S
C563 C573 1.510 . S
C564 C560 1.401 . S
C564 C563 1.396 . S
C565 C560 1.499 . S
C565 H566 0.959 . S
C565 H567 0.960 . S
C565 H568 0.961 . S
H566 C565 0.959 . S
H567 C565 0.960 . S
H568 C565 0.961 . S
O569 Co544 1.967 . S
O569 C577 1.258 . S
O570 Co545 1.941 . S
O570 C577 1.266 . S
H571 C573 0.959 . S
H572 C573 0.961 . S
C573 C563 1.510 . S
C573 H571 0.959 . S
C573 H572 0.961 . S
C573 H574 0.960 . S
H574 C573 0.960 . S
H575 N555 0.862 . S
O576 Co544 1.920 . S
O576 C549 1.289 . S
C577 O569 1.258 . S
C577 O570 1.266 . S
Co578 O581 1.970 . S
Co578 N595 1.989 . S
Co578 O603 1.967 . S
Co578 O610 1.920 . S
Co579 O582 1.966 . S
Co579 N588 2.022 . S
Co579 N596 1.993 . S
Co579 O604 1.941 . S
C580 O581 1.258 . S
C580 O582 1.263 . S
O581 Co578 1.970 . S
O581 C580 1.258 . S
O582 Co579 1.966 . S
O582 C580 1.263 . S
C583 O584 1.235 . S
C583 O610 1.289 . S
O584 C583 1.235 . S
C585 C587 1.400 . S
C585 N588 1.351 . S
C585 C590 1.501 . S
C586 C587 1.387 . S
C586 N589 1.341 . S
C587 C585 1.400 . S
C587 C586 1.387 . S
N588 Co579 2.022 . S
N588 C585 1.351 . S
N588 N589 1.365 . S
N589 C586 1.341 . S
N589 N588 1.365 . S
N589 H609 0.862 . S
C590 C585 1.501 . S
C590 H591 0.961 . S
C590 H592 0.961 . S
C590 H593 0.960 . S
H591 C590 0.961 . S
H592 C590 0.961 . S
H593 C590 0.960 . S
C594 N595 1.342 . S
C594 C598 1.401 . S
C594 C599 1.499 . S
N595 Co578 1.989 . S
N595 C594 1.342 . S
N595 N596 1.388 . S
N596 Co579 1.993 . S
N596 N595 1.388 . S
N596 C597 1.346 . S
C597 N596 1.346 . S
C597 C598 1.396 . S
C597 C607 1.510 . S
C598 C594 1.401 . S
C598 C597 1.396 . S
C599 C594 1.499 . S
C599 H600 0.959 . S
C599 H601 0.960 . S
C599 H602 0.961 . S
H600 C599 0.959 . S
H601 C599 0.960 . S
H602 C599 0.961 . S
O603 Co578 1.967 . S
O603 C611 1.258 . S
O604 Co579 1.941 . S
O604 C611 1.266 . S
H605 C607 0.959 . S
H606 C607 0.961 . S
C607 C597 1.510 . S
C607 H605 0.959 . S
C607 H606 0.961 . S
C607 H608 0.960 . S
H608 C607 0.960 . S
H609 N589 0.862 . S
O610 Co578 1.920 . S
O610 C583 1.289 . S
C611 O603 1.258 . S
C611 O604 1.266 . S
Co612 O615 1.970 . S
Co612 N629 1.989 . S
Co612 O637 1.967 . S
Co612 O644 1.920 . S
Co613 O616 1.966 . S
Co613 N622 2.022 . S
Co613 N630 1.993 . S
Co613 O638 1.941 . S
C614 O615 1.258 . S
C614 O616 1.263 . S
O615 Co612 1.970 . S
O615 C614 1.258 . S
O616 Co613 1.966 . S
O616 C614 1.263 . S
C617 O618 1.235 . S
C617 O644 1.289 . S
O618 C617 1.235 . S
C619 C621 1.400 . S
C619 N622 1.351 . S
C619 C624 1.501 . S
C620 C621 1.387 . S
C620 N623 1.341 . S
C621 C619 1.400 . S
C621 C620 1.387 . S
N622 Co613 2.022 . S
N622 C619 1.351 . S
N622 N623 1.365 . S
N623 C620 1.341 . S
N623 N622 1.365 . S
N623 H643 0.862 . S
C624 C619 1.501 . S
C624 H625 0.961 . S
C624 H626 0.961 . S
C624 H627 0.960 . S
H625 C624 0.961 . S
H626 C624 0.961 . S
H627 C624 0.960 . S
C628 N629 1.342 . S
C628 C632 1.401 . S
C628 C633 1.499 . S
N629 Co612 1.989 . S
N629 C628 1.342 . S
N629 N630 1.388 . S
N630 Co613 1.993 . S
N630 N629 1.388 . S
N630 C631 1.346 . S
C631 N630 1.346 . S
C631 C632 1.396 . S
C631 C641 1.510 . S
C632 C628 1.401 . S
C632 C631 1.396 . S
C633 C628 1.499 . S
C633 H634 0.959 . S
C633 H635 0.960 . S
C633 H636 0.961 . S
H634 C633 0.959 . S
H635 C633 0.960 . S
H636 C633 0.961 . S
O637 Co612 1.967 . S
O637 C645 1.258 . S
O638 Co613 1.941 . S
O638 C645 1.266 . S
H639 C641 0.959 . S
H640 C641 0.961 . S
C641 C631 1.510 . S
C641 H639 0.959 . S
C641 H640 0.961 . S
C641 H642 0.960 . S
H642 C641 0.960 . S
H643 N623 0.862 . S
O644 Co612 1.920 . S
O644 C617 1.289 . S
C645 O637 1.258 . S
C645 O638 1.266 . S
Co646 O649 1.970 . S
Co646 N663 1.989 . S
Co646 O671 1.967 . S
Co646 O678 1.920 . S
Co647 O650 1.966 . S
Co647 N656 2.022 . S
Co647 N664 1.993 . S
Co647 O672 1.941 . S
C648 O649 1.258 . S
C648 O650 1.263 . S
O649 Co646 1.970 . S
O649 C648 1.258 . S
O650 Co647 1.966 . S
O650 C648 1.263 . S
C651 O652 1.235 . S
C651 O678 1.289 . S
O652 C651 1.235 . S
C653 C655 1.400 . S
C653 N656 1.351 . S
C653 C658 1.501 . S
C654 C655 1.387 . S
C654 N657 1.341 . S
C655 C653 1.400 . S
C655 C654 1.387 . S
N656 Co647 2.022 . S
N656 C653 1.351 . S
N656 N657 1.365 . S
N657 C654 1.341 . S
N657 N656 1.365 . S
N657 H677 0.862 . S
C658 C653 1.501 . S
C658 H659 0.961 . S
C658 H660 0.961 . S
C658 H661 0.960 . S
H659 C658 0.961 . S
H660 C658 0.961 . S
H661 C658 0.960 . S
C662 N663 1.342 . S
C662 C666 1.401 . S
C662 C667 1.499 . S
N663 Co646 1.989 . S
N663 C662 1.342 . S
N663 N664 1.388 . S
N664 Co647 1.993 . S
N664 N663 1.388 . S
N664 C665 1.346 . S
C665 N664 1.346 . S
C665 C666 1.396 . S
C665 C675 1.510 . S
C666 C662 1.401 . S
C666 C665 1.396 . S
C667 C662 1.499 . S
C667 H668 0.959 . S
C667 H669 0.960 . S
C667 H670 0.961 . S
H668 C667 0.959 . S
H669 C667 0.960 . S
H670 C667 0.961 . S
O671 Co646 1.967 . S
O671 C679 1.258 . S
O672 Co647 1.941 . S
O672 C679 1.266 . S
H673 C675 0.959 . S
H674 C675 0.961 . S
C675 C665 1.510 . S
C675 H673 0.959 . S
C675 H674 0.961 . S
C675 H676 0.960 . S
H676 C675 0.960 . S
H677 N657 0.862 . S
O678 Co646 1.920 . S
O678 C651 1.289 . S
C679 O671 1.258 . S
C679 O672 1.266 . S
Co680 O683 1.970 . S
Co680 N697 1.989 . S
Co680 O705 1.967 . S
Co680 O712 1.920 . S
Co681 O684 1.966 . S
Co681 N690 2.022 . S
Co681 N698 1.993 . S
Co681 O706 1.941 . S
C682 O683 1.258 . S
C682 O684 1.263 . S
O683 Co680 1.970 . S
O683 C682 1.258 . S
O684 Co681 1.966 . S
O684 C682 1.263 . S
C685 O686 1.235 . S
C685 O712 1.289 . S
O686 C685 1.235 . S
C687 C689 1.400 . S
C687 N690 1.351 . S
C687 C692 1.501 . S
C688 C689 1.387 . S
C688 N691 1.341 . S
C689 C687 1.400 . S
C689 C688 1.387 . S
N690 Co681 2.022 . S
N690 C687 1.351 . S
N690 N691 1.365 . S
N691 C688 1.341 . S
N691 N690 1.365 . S
N691 H711 0.862 . S
C692 C687 1.501 . S
C692 H693 0.961 . S
C692 H694 0.961 . S
C692 H695 0.960 . S
H693 C692 0.961 . S
H694 C692 0.961 . S
H695 C692 0.960 . S
C696 N697 1.342 . S
C696 C700 1.401 . S
C696 C701 1.499 . S
N697 Co680 1.989 . S
N697 C696 1.342 . S
N697 N698 1.388 . S
N698 Co681 1.993 . S
N698 N697 1.388 . S
N698 C699 1.346 . S
C699 N698 1.346 . S
C699 C700 1.396 . S
C699 C709 1.510 . S
C700 C696 1.401 . S
C700 C699 1.396 . S
C701 C696 1.499 . S
C701 H702 0.959 . S
C701 H703 0.960 . S
C701 H704 0.961 . S
H702 C701 0.959 . S
H703 C701 0.960 . S
H704 C701 0.961 . S
O705 Co680 1.967 . S
O705 C713 1.258 . S
O706 Co681 1.941 . S
O706 C713 1.266 . S
H707 C709 0.959 . S
H708 C709 0.961 . S
C709 C699 1.510 . S
C709 H707 0.959 . S
C709 H708 0.961 . S
C709 H710 0.960 . S
H710 C709 0.960 . S
H711 N691 0.862 . S
O712 Co680 1.920 . S
O712 C685 1.289 . S
C713 O705 1.258 . S
C713 O706 1.266 . S
Co714 O717 1.970 . S
Co714 N731 1.989 . S
Co714 O739 1.967 . S
Co714 O746 1.920 . S
Co715 O718 1.966 . S
Co715 N724 2.022 . S
Co715 N732 1.993 . S
Co715 O740 1.941 . S
C716 O717 1.258 . S
C716 O718 1.263 . S
O717 Co714 1.970 . S
O717 C716 1.258 . S
O718 Co715 1.966 . S
O718 C716 1.263 . S
C719 O720 1.235 . S
C719 O746 1.289 . S
O720 C719 1.235 . S
C721 C723 1.400 . S
C721 N724 1.351 . S
C721 C726 1.501 . S
C722 C723 1.387 . S
C722 N725 1.341 . S
C723 C721 1.400 . S
C723 C722 1.387 . S
N724 Co715 2.022 . S
N724 C721 1.351 . S
N724 N725 1.365 . S
N725 C722 1.341 . S
N725 N724 1.365 . S
N725 H745 0.862 . S
C726 C721 1.501 . S
C726 H727 0.961 . S
C726 H728 0.961 . S
C726 H729 0.960 . S
H727 C726 0.961 . S
H728 C726 0.961 . S
H729 C726 0.960 . S
C730 N731 1.342 . S
C730 C734 1.401 . S
C730 C735 1.499 . S
N731 Co714 1.989 . S
N731 C730 1.342 . S
N731 N732 1.388 . S
N732 Co715 1.993 . S
N732 N731 1.388 . S
N732 C733 1.346 . S
C733 N732 1.346 . S
C733 C734 1.396 . S
C733 C743 1.510 . S
C734 C730 1.401 . S
C734 C733 1.396 . S
C735 C730 1.499 . S
C735 H736 0.959 . S
C735 H737 0.960 . S
C735 H738 0.961 . S
H736 C735 0.959 . S
H737 C735 0.960 . S
H738 C735 0.961 . S
O739 Co714 1.967 . S
O739 C747 1.258 . S
O740 Co715 1.941 . S
O740 C747 1.266 . S
H741 C743 0.959 . S
H742 C743 0.961 . S
C743 C733 1.510 . S
C743 H741 0.959 . S
C743 H742 0.961 . S
C743 H744 0.960 . S
H744 C743 0.960 . S
H745 N725 0.862 . S
O746 Co714 1.920 . S
O746 C719 1.289 . S
C747 O739 1.258 . S
C747 O740 1.266 . S
Co748 O751 1.970 . S
Co748 N765 1.989 . S
Co748 O773 1.967 . S
Co748 O780 1.920 . S
Co749 O752 1.966 . S
Co749 N758 2.022 . S
Co749 N766 1.993 . S
Co749 O774 1.941 . S
C750 O751 1.258 . S
C750 O752 1.263 . S
O751 Co748 1.970 . S
O751 C750 1.258 . S
O752 Co749 1.966 . S
O752 C750 1.263 . S
C753 O754 1.235 . S
C753 O780 1.289 . S
O754 C753 1.235 . S
C755 C757 1.400 . S
C755 N758 1.351 . S
C755 C760 1.501 . S
C756 C757 1.387 . S
C756 N759 1.341 . S
C757 C755 1.400 . S
C757 C756 1.387 . S
N758 Co749 2.022 . S
N758 C755 1.351 . S
N758 N759 1.365 . S
N759 C756 1.341 . S
N759 N758 1.365 . S
N759 H779 0.862 . S
C760 C755 1.501 . S
C760 H761 0.961 . S
C760 H762 0.961 . S
C760 H763 0.960 . S
H761 C760 0.961 . S
H762 C760 0.961 . S
H763 C760 0.960 . S
C764 N765 1.342 . S
C764 C768 1.401 . S
C764 C769 1.499 . S
N765 Co748 1.989 . S
N765 C764 1.342 . S
N765 N766 1.388 . S
N766 Co749 1.993 . S
N766 N765 1.388 . S
N766 C767 1.346 . S
C767 N766 1.346 . S
C767 C768 1.396 . S
C767 C777 1.510 . S
C768 C764 1.401 . S
C768 C767 1.396 . S
C769 C764 1.499 . S
C769 H770 0.959 . S
C769 H771 0.960 . S
C769 H772 0.961 . S
H770 C769 0.959 . S
H771 C769 0.960 . S
H772 C769 0.961 . S
O773 Co748 1.967 . S
O773 C781 1.258 . S
O774 Co749 1.941 . S
O774 C781 1.266 . S
H775 C777 0.959 . S
H776 C777 0.961 . S
C777 C767 1.510 . S
C777 H775 0.959 . S
C777 H776 0.961 . S
C777 H778 0.960 . S
H778 C777 0.960 . S
H779 N759 0.862 . S
O780 Co748 1.920 . S
O780 C753 1.289 . S
C781 O773 1.258 . S
C781 O774 1.266 . S
Co782 O785 1.970 . S
Co782 N799 1.989 . S
Co782 O807 1.967 . S
Co782 O814 1.920 . S
Co783 O786 1.966 . S
Co783 N792 2.022 . S
Co783 N800 1.993 . S
Co783 O808 1.941 . S
C784 O785 1.258 . S
C784 O786 1.263 . S
O785 Co782 1.970 . S
O785 C784 1.258 . S
O786 Co783 1.966 . S
O786 C784 1.263 . S
C787 O788 1.235 . S
C787 O814 1.289 . S
O788 C787 1.235 . S
C789 C791 1.400 . S
C789 N792 1.351 . S
C789 C794 1.501 . S
C790 C791 1.387 . S
C790 N793 1.341 . S
C791 C789 1.400 . S
C791 C790 1.387 . S
N792 Co783 2.022 . S
N792 C789 1.351 . S
N792 N793 1.365 . S
N793 C790 1.341 . S
N793 N792 1.365 . S
N793 H813 0.862 . S
C794 C789 1.501 . S
C794 H795 0.961 . S
C794 H796 0.961 . S
C794 H797 0.960 . S
H795 C794 0.961 . S
H796 C794 0.961 . S
H797 C794 0.960 . S
C798 N799 1.342 . S
C798 C802 1.401 . S
C798 C803 1.499 . S
N799 Co782 1.989 . S
N799 C798 1.342 . S
N799 N800 1.388 . S
N800 Co783 1.993 . S
N800 N799 1.388 . S
N800 C801 1.346 . S
C801 N800 1.346 . S
C801 C802 1.396 . S
C801 C811 1.510 . S
C802 C798 1.401 . S
C802 C801 1.396 . S
C803 C798 1.499 . S
C803 H804 0.959 . S
C803 H805 0.960 . S
C803 H806 0.961 . S
H804 C803 0.959 . S
H805 C803 0.960 . S
H806 C803 0.961 . S
O807 Co782 1.967 . S
O807 C815 1.258 . S
O808 Co783 1.941 . S
O808 C815 1.266 . S
H809 C811 0.959 . S
H810 C811 0.961 . S
C811 C801 1.510 . S
C811 H809 0.959 . S
C811 H810 0.961 . S
C811 H812 0.960 . S
H812 C811 0.960 . S
H813 N793 0.862 . S
O814 Co782 1.920 . S
O814 C787 1.289 . S
C815 O807 1.258 . S
C815 O808 1.266 . S
Co816 O819 1.970 . S
Co816 N833 1.989 . S
Co816 O841 1.967 . S
Co816 O848 1.920 . S
Co817 O820 1.966 . S
Co817 N826 2.022 . S
Co817 N834 1.993 . S
Co817 O842 1.941 . S
C818 O819 1.258 . S
C818 O820 1.263 . S
O819 Co816 1.970 . S
O819 C818 1.258 . S
O820 Co817 1.966 . S
O820 C818 1.263 . S
C821 O822 1.235 . S
C821 O848 1.289 . S
O822 C821 1.235 . S
C823 C825 1.400 . S
C823 N826 1.351 . S
C823 C828 1.501 . S
C824 C825 1.387 . S
C824 N827 1.341 . S
C825 C823 1.400 . S
C825 C824 1.387 . S
N826 Co817 2.022 . S
N826 C823 1.351 . S
N826 N827 1.365 . S
N827 C824 1.341 . S
N827 N826 1.365 . S
N827 H847 0.862 . S
C828 C823 1.501 . S
C828 H829 0.961 . S
C828 H830 0.961 . S
C828 H831 0.960 . S
H829 C828 0.961 . S
H830 C828 0.961 . S
H831 C828 0.960 . S
C832 N833 1.342 . S
C832 C836 1.401 . S
C832 C837 1.499 . S
N833 Co816 1.989 . S
N833 C832 1.342 . S
N833 N834 1.388 . S
N834 Co817 1.993 . S
N834 N833 1.388 . S
N834 C835 1.346 . S
C835 N834 1.346 . S
C835 C836 1.396 . S
C835 C845 1.510 . S
C836 C832 1.401 . S
C836 C835 1.396 . S
C837 C832 1.499 . S
C837 H838 0.959 . S
C837 H839 0.960 . S
C837 H840 0.961 . S
H838 C837 0.959 . S
H839 C837 0.960 . S
H840 C837 0.961 . S
O841 Co816 1.967 . S
O841 C849 1.258 . S
O842 Co817 1.941 . S
O842 C849 1.266 . S
H843 C845 0.959 . S
H844 C845 0.961 . S
C845 C835 1.510 . S
C845 H843 0.959 . S
C845 H844 0.961 . S
C845 H846 0.960 . S
H846 C845 0.960 . S
H847 N827 0.862 . S
O848 Co816 1.920 . S
O848 C821 1.289 . S
C849 O841 1.258 . S
C849 O842 1.266 . S
Co850 O853 1.970 . S
Co850 N867 1.989 . S
Co850 O875 1.967 . S
Co850 O882 1.920 . S
Co851 O854 1.966 . S
Co851 N860 2.022 . S
Co851 N868 1.993 . S
Co851 O876 1.941 . S
C852 O853 1.258 . S
C852 O854 1.263 . S
O853 Co850 1.970 . S
O853 C852 1.258 . S
O854 Co851 1.966 . S
O854 C852 1.263 . S
C855 O856 1.235 . S
C855 O882 1.289 . S
O856 C855 1.235 . S
C857 C859 1.400 . S
C857 N860 1.351 . S
C857 C862 1.501 . S
C858 C859 1.387 . S
C858 N861 1.341 . S
C859 C857 1.400 . S
C859 C858 1.387 . S
N860 Co851 2.022 . S
N860 C857 1.351 . S
N860 N861 1.365 . S
N861 C858 1.341 . S
N861 N860 1.365 . S
N861 H881 0.862 . S
C862 C857 1.501 . S
C862 H863 0.961 . S
C862 H864 0.961 . S
C862 H865 0.960 . S
H863 C862 0.961 . S
H864 C862 0.961 . S
H865 C862 0.960 . S
C866 N867 1.342 . S
C866 C870 1.401 . S
C866 C871 1.499 . S
N867 Co850 1.989 . S
N867 C866 1.342 . S
N867 N868 1.388 . S
N868 Co851 1.993 . S
N868 N867 1.388 . S
N868 C869 1.346 . S
C869 N868 1.346 . S
C869 C870 1.396 . S
C869 C879 1.510 . S
C870 C866 1.401 . S
C870 C869 1.396 . S
C871 C866 1.499 . S
C871 H872 0.959 . S
C871 H873 0.960 . S
C871 H874 0.961 . S
H872 C871 0.959 . S
H873 C871 0.960 . S
H874 C871 0.961 . S
O875 Co850 1.967 . S
O875 C883 1.258 . S
O876 Co851 1.941 . S
O876 C883 1.266 . S
H877 C879 0.959 . S
H878 C879 0.961 . S
C879 C869 1.510 . S
C879 H877 0.959 . S
C879 H878 0.961 . S
C879 H880 0.960 . S
H880 C879 0.960 . S
H881 N861 0.862 . S
O882 Co850 1.920 . S
O882 C855 1.289 . S
C883 O875 1.258 . S
C883 O876 1.266 . S
Co884 O887 1.970 . S
Co884 N901 1.989 . S
Co884 O909 1.967 . S
Co884 O916 1.920 . S
Co885 O888 1.966 . S
Co885 N894 2.022 . S
Co885 N902 1.993 . S
Co885 O910 1.941 . S
C886 O887 1.258 . S
C886 O888 1.263 . S
O887 Co884 1.970 . S
O887 C886 1.258 . S
O888 Co885 1.966 . S
O888 C886 1.263 . S
C889 O890 1.235 . S
C889 O916 1.289 . S
O890 C889 1.235 . S
C891 C893 1.400 . S
C891 N894 1.351 . S
C891 C896 1.501 . S
C892 C893 1.387 . S
C892 N895 1.341 . S
C893 C891 1.400 . S
C893 C892 1.387 . S
N894 Co885 2.022 . S
N894 C891 1.351 . S
N894 N895 1.365 . S
N895 C892 1.341 . S
N895 N894 1.365 . S
N895 H915 0.862 . S
C896 C891 1.501 . S
C896 H897 0.961 . S
C896 H898 0.961 . S
C896 H899 0.960 . S
H897 C896 0.961 . S
H898 C896 0.961 . S
H899 C896 0.960 . S
C900 N901 1.342 . S
C900 C904 1.401 . S
C900 C905 1.499 . S
N901 Co884 1.989 . S
N901 C900 1.342 . S
N901 N902 1.388 . S
N902 Co885 1.993 . S
N902 N901 1.388 . S
N902 C903 1.346 . S
C903 N902 1.346 . S
C903 C904 1.396 . S
C903 C913 1.510 . S
C904 C900 1.401 . S
C904 C903 1.396 . S
C905 C900 1.499 . S
C905 H906 0.959 . S
C905 H907 0.960 . S
C905 H908 0.961 . S
H906 C905 0.959 . S
H907 C905 0.960 . S
H908 C905 0.961 . S
O909 Co884 1.967 . S
O909 C917 1.258 . S
O910 Co885 1.941 . S
O910 C917 1.266 . S
H911 C913 0.959 . S
H912 C913 0.961 . S
C913 C903 1.510 . S
C913 H911 0.959 . S
C913 H912 0.961 . S
C913 H914 0.960 . S
H914 C913 0.960 . S
H915 N895 0.862 . S
O916 Co884 1.920 . S
O916 C889 1.289 . S
C917 O909 1.258 . S
C917 O910 1.266 . S
Co918 O921 1.970 . S
Co918 N935 1.989 . S
Co918 O943 1.967 . S
Co918 O950 1.920 . S
Co919 O922 1.966 . S
Co919 N928 2.022 . S
Co919 N936 1.993 . S
Co919 O944 1.941 . S
C920 O921 1.258 . S
C920 O922 1.263 . S
O921 Co918 1.970 . S
O921 C920 1.258 . S
O922 Co919 1.966 . S
O922 C920 1.263 . S
C923 O924 1.235 . S
C923 O950 1.289 . S
O924 C923 1.235 . S
C925 C927 1.400 . S
C925 N928 1.351 . S
C925 C930 1.501 . S
C926 C927 1.387 . S
C926 N929 1.341 . S
C927 C925 1.400 . S
C927 C926 1.387 . S
N928 Co919 2.022 . S
N928 C925 1.351 . S
N928 N929 1.365 . S
N929 C926 1.341 . S
N929 N928 1.365 . S
N929 H949 0.862 . S
C930 C925 1.501 . S
C930 H931 0.961 . S
C930 H932 0.961 . S
C930 H933 0.960 . S
H931 C930 0.961 . S
H932 C930 0.961 . S
H933 C930 0.960 . S
C934 N935 1.342 . S
C934 C938 1.401 . S
C934 C939 1.499 . S
N935 Co918 1.989 . S
N935 C934 1.342 . S
N935 N936 1.388 . S
N936 Co919 1.993 . S
N936 N935 1.388 . S
N936 C937 1.346 . S
C937 N936 1.346 . S
C937 C938 1.396 . S
C937 C947 1.510 . S
C938 C934 1.401 . S
C938 C937 1.396 . S
C939 C934 1.499 . S
C939 H940 0.959 . S
C939 H941 0.960 . S
C939 H942 0.961 . S
H940 C939 0.959 . S
H941 C939 0.960 . S
H942 C939 0.961 . S
O943 Co918 1.967 . S
O943 C951 1.258 . S
O944 Co919 1.941 . S
O944 C951 1.266 . S
H945 C947 0.959 . S
H946 C947 0.961 . S
C947 C937 1.510 . S
C947 H945 0.959 . S
C947 H946 0.961 . S
C947 H948 0.960 . S
H948 C947 0.960 . S
H949 N929 0.862 . S
O950 Co918 1.920 . S
O950 C923 1.289 . S
C951 O943 1.258 . S
C951 O944 1.266 . S
Co952 O955 1.970 . S
Co952 N969 1.989 . S
Co952 O977 1.967 . S
Co952 O984 1.920 . S
Co953 O956 1.966 . S
Co953 N962 2.022 . S
Co953 N970 1.993 . S
Co953 O978 1.941 . S
C954 O955 1.258 . S
C954 O956 1.263 . S
O955 Co952 1.970 . S
O955 C954 1.258 . S
O956 Co953 1.966 . S
O956 C954 1.263 . S
C957 O958 1.235 . S
C957 O984 1.289 . S
O958 C957 1.235 . S
C959 C961 1.400 . S
C959 N962 1.351 . S
C959 C964 1.501 . S
C960 C961 1.387 . S
C960 N963 1.341 . S
C961 C959 1.400 . S
C961 C960 1.387 . S
N962 Co953 2.022 . S
N962 C959 1.351 . S
N962 N963 1.365 . S
N963 C960 1.341 . S
N963 N962 1.365 . S
N963 H983 0.862 . S
C964 C959 1.501 . S
C964 H965 0.961 . S
C964 H966 0.961 . S
C964 H967 0.960 . S
H965 C964 0.961 . S
H966 C964 0.961 . S
H967 C964 0.960 . S
C968 N969 1.342 . S
C968 C972 1.401 . S
C968 C973 1.499 . S
N969 Co952 1.989 . S
N969 C968 1.342 . S
N969 N970 1.388 . S
N970 Co953 1.993 . S
N970 N969 1.388 . S
N970 C971 1.346 . S
C971 N970 1.346 . S
C971 C972 1.396 . S
C971 C981 1.510 . S
C972 C968 1.401 . S
C972 C971 1.396 . S
C973 C968 1.499 . S
C973 H974 0.959 . S
C973 H975 0.960 . S
C973 H976 0.961 . S
H974 C973 0.959 . S
H975 C973 0.960 . S
H976 C973 0.961 . S
O977 Co952 1.967 . S
O977 C985 1.258 . S
O978 Co953 1.941 . S
O978 C985 1.266 . S
H979 C981 0.959 . S
H980 C981 0.961 . S
C981 C971 1.510 . S
C981 H979 0.959 . S
C981 H980 0.961 . S
C981 H982 0.960 . S
H982 C981 0.960 . S
H983 N963 0.862 . S
O984 Co952 1.920 . S
O984 C957 1.289 . S
C985 O977 1.258 . S
C985 O978 1.266 . S
Co986 O989 1.970 . S
Co986 N1003 1.989 . S
Co986 O1011 1.967 . S
Co986 O1018 1.920 . S
Co987 O990 1.966 . S
Co987 N996 2.022 . S
Co987 N1004 1.993 . S
Co987 O1012 1.941 . S
C988 O989 1.258 . S
C988 O990 1.263 . S
O989 Co986 1.970 . S
O989 C988 1.258 . S
O990 Co987 1.966 . S
O990 C988 1.263 . S
C991 O992 1.235 . S
C991 O1018 1.289 . S
O992 C991 1.235 . S
C993 C995 1.400 . S
C993 N996 1.351 . S
C993 C998 1.501 . S
C994 C995 1.387 . S
C994 N997 1.341 . S
C995 C993 1.400 . S
C995 C994 1.387 . S
N996 Co987 2.022 . S
N996 C993 1.351 . S
N996 N997 1.365 . S
N997 C994 1.341 . S
N997 N996 1.365 . S
N997 H1017 0.862 . S
C998 C993 1.501 . S
C998 H999 0.961 . S
C998 H1000 0.961 . S
C998 H1001 0.960 . S
H999 C998 0.961 . S
H1000 C998 0.961 . S
H1001 C998 0.960 . S
C1002 N1003 1.342 . S
C1002 C1006 1.401 . S
C1002 C1007 1.499 . S
N1003 Co986 1.989 . S
N1003 C1002 1.342 . S
N1003 N1004 1.388 . S
N1004 Co987 1.993 . S
N1004 N1003 1.388 . S
N1004 C1005 1.346 . S
C1005 N1004 1.346 . S
C1005 C1006 1.396 . S
C1005 C1015 1.510 . S
C1006 C1002 1.401 . S
C1006 C1005 1.396 . S
C1007 C1002 1.499 . S
C1007 H1008 0.959 . S
C1007 H1009 0.960 . S
C1007 H1010 0.961 . S
H1008 C1007 0.959 . S
H1009 C1007 0.960 . S
H1010 C1007 0.961 . S
O1011 Co986 1.967 . S
O1011 C1019 1.258 . S
O1012 Co987 1.941 . S
O1012 C1019 1.266 . S
H1013 C1015 0.959 . S
H1014 C1015 0.961 . S
C1015 C1005 1.510 . S
C1015 H1013 0.959 . S
C1015 H1014 0.961 . S
C1015 H1016 0.960 . S
H1016 C1015 0.960 . S
H1017 N997 0.862 . S
O1018 Co986 1.920 . S
O1018 C991 1.289 . S
C1019 O1011 1.258 . S
C1019 O1012 1.266 . S
Co1020 O1023 1.970 . S
Co1020 N1037 1.989 . S
Co1020 O1045 1.967 . S
Co1020 O1052 1.920 . S
Co1021 O1024 1.966 . S
Co1021 N1030 2.022 . S
Co1021 N1038 1.993 . S
Co1021 O1046 1.941 . S
C1022 O1023 1.258 . S
C1022 O1024 1.263 . S
O1023 Co1020 1.970 . S
O1023 C1022 1.258 . S
O1024 Co1021 1.966 . S
O1024 C1022 1.263 . S
C1025 O1026 1.235 . S
C1025 O1052 1.289 . S
O1026 C1025 1.235 . S
C1027 C1029 1.400 . S
C1027 N1030 1.351 . S
C1027 C1032 1.501 . S
C1028 C1029 1.387 . S
C1028 N1031 1.341 . S
C1029 C1027 1.400 . S
C1029 C1028 1.387 . S
N1030 Co1021 2.022 . S
N1030 C1027 1.351 . S
N1030 N1031 1.365 . S
N1031 C1028 1.341 . S
N1031 N1030 1.365 . S
N1031 H1051 0.862 . S
C1032 C1027 1.501 . S
C1032 H1033 0.961 . S
C1032 H1034 0.961 . S
C1032 H1035 0.960 . S
H1033 C1032 0.961 . S
H1034 C1032 0.961 . S
H1035 C1032 0.960 . S
C1036 N1037 1.342 . S
C1036 C1040 1.401 . S
C1036 C1041 1.499 . S
N1037 Co1020 1.989 . S
N1037 C1036 1.342 . S
N1037 N1038 1.388 . S
N1038 Co1021 1.993 . S
N1038 N1037 1.388 . S
N1038 C1039 1.346 . S
C1039 N1038 1.346 . S
C1039 C1040 1.396 . S
C1039 C1049 1.510 . S
C1040 C1036 1.401 . S
C1040 C1039 1.396 . S
C1041 C1036 1.499 . S
C1041 H1042 0.959 . S
C1041 H1043 0.960 . S
C1041 H1044 0.961 . S
H1042 C1041 0.959 . S
H1043 C1041 0.960 . S
H1044 C1041 0.961 . S
O1045 Co1020 1.967 . S
O1045 C1053 1.258 . S
O1046 Co1021 1.941 . S
O1046 C1053 1.266 . S
H1047 C1049 0.959 . S
H1048 C1049 0.961 . S
C1049 C1039 1.510 . S
C1049 H1047 0.959 . S
C1049 H1048 0.961 . S
C1049 H1050 0.960 . S
H1050 C1049 0.960 . S
H1051 N1031 0.862 . S
O1052 Co1020 1.920 . S
O1052 C1025 1.289 . S
C1053 O1045 1.258 . S
C1053 O1046 1.266 . S
Co1054 O1057 1.970 . S
Co1054 N1071 1.989 . S
Co1054 O1079 1.967 . S
Co1054 O1086 1.920 . S
Co1055 O1058 1.966 . S
Co1055 N1064 2.022 . S
Co1055 N1072 1.993 . S
Co1055 O1080 1.941 . S
C1056 O1057 1.258 . S
C1056 O1058 1.263 . S
O1057 Co1054 1.970 . S
O1057 C1056 1.258 . S
O1058 Co1055 1.966 . S
O1058 C1056 1.263 . S
C1059 O1060 1.235 . S
C1059 O1086 1.289 . S
O1060 C1059 1.235 . S
C1061 C1063 1.400 . S
C1061 N1064 1.351 . S
C1061 C1066 1.501 . S
C1062 C1063 1.387 . S
C1062 N1065 1.341 . S
C1063 C1061 1.400 . S
C1063 C1062 1.387 . S
N1064 Co1055 2.022 . S
N1064 C1061 1.351 . S
N1064 N1065 1.365 . S
N1065 C1062 1.341 . S
N1065 N1064 1.365 . S
N1065 H1085 0.862 . S
C1066 C1061 1.501 . S
C1066 H1067 0.961 . S
C1066 H1068 0.961 . S
C1066 H1069 0.960 . S
H1067 C1066 0.961 . S
H1068 C1066 0.961 . S
H1069 C1066 0.960 . S
C1070 N1071 1.342 . S
C1070 C1074 1.401 . S
C1070 C1075 1.499 . S
N1071 Co1054 1.989 . S
N1071 C1070 1.342 . S
N1071 N1072 1.388 . S
N1072 Co1055 1.993 . S
N1072 N1071 1.388 . S
N1072 C1073 1.346 . S
C1073 N1072 1.346 . S
C1073 C1074 1.396 . S
C1073 C1083 1.510 . S
C1074 C1070 1.401 . S
C1074 C1073 1.396 . S
C1075 C1070 1.499 . S
C1075 H1076 0.959 . S
C1075 H1077 0.960 . S
C1075 H1078 0.961 . S
H1076 C1075 0.959 . S
H1077 C1075 0.960 . S
H1078 C1075 0.961 . S
O1079 Co1054 1.967 . S
O1079 C1087 1.258 . S
O1080 Co1055 1.941 . S
O1080 C1087 1.266 . S
H1081 C1083 0.959 . S
H1082 C1083 0.961 . S
C1083 C1073 1.510 . S
C1083 H1081 0.959 . S
C1083 H1082 0.961 . S
C1083 H1084 0.960 . S
H1084 C1083 0.960 . S
H1085 N1065 0.862 . S
O1086 Co1054 1.920 . S
O1086 C1059 1.289 . S
C1087 O1079 1.258 . S
C1087 O1080 1.266 . S
H1088 C1096 0.929 . S
H1089 C1098 0.930 . S
H1090 C1100 0.930 . S
H1091 C1103 0.929 . S
H1092 C1106 0.930 . S
H1093 C1108 0.960 . S
H1094 C1108 0.960 . S
H1095 C1108 0.960 . S
C1096 H1088 0.929 . S
C1096 C1097 1.377 . S
C1096 C1098 1.384 . S
C1097 C1096 1.377 . S
C1097 C1103 1.390 . S
C1098 H1089 0.930 . S
C1098 C1096 1.384 . S
C1098 C1099 1.372 . S
C1099 C1098 1.372 . S
C1099 C1100 1.400 . S
C1099 C1104 1.490 . S
C1100 H1090 0.930 . S
C1100 C1099 1.400 . S
C1100 C1103 1.386 . S
H1101 C1117 0.930 . S
H1102 C1118 0.931 . S
C1103 H1091 0.929 . S
C1103 C1097 1.390 . S
C1103 C1100 1.386 . S
C1104 C1099 1.490 . S
C1104 C1106 1.395 . S
C1104 C1107 1.403 . S
H1105 C1111 0.930 . S
C1106 H1092 0.930 . S
C1106 C1104 1.395 . S
C1106 C1109 1.403 . S
C1107 C1104 1.403 . S
C1107 C1108 1.524 . S
C1107 C1111 1.400 . S
C1108 H1093 0.960 . S
C1108 H1094 0.960 . S
C1108 H1095 0.960 . S
C1108 C1107 1.524 . S
C1109 C1106 1.403 . S
C1109 C1110 1.392 . S
C1109 C1113 1.495 . S
C1110 C1109 1.392 . S
C1110 C1111 1.385 . S
C1110 C1112 1.478 . S
C1111 H1105 0.930 . S
C1111 C1107 1.400 . S
C1111 C1110 1.385 . S
C1112 C1110 1.478 . S
C1112 C1114 1.381 . S
C1112 C1118 1.383 . S
C1113 C1109 1.495 . S
C1113 H1119 0.959 . S
C1113 H1120 0.961 . S
C1113 H1121 0.960 . S
C1114 C1112 1.381 . S
C1114 C1115 1.394 . S
C1114 H1122 0.930 . S
C1115 C1114 1.394 . S
C1115 C1116 1.383 . S
C1115 H1123 0.929 . S
C1116 C1115 1.383 . S
C1116 C1117 1.377 . S
C1117 H1101 0.930 . S
C1117 C1116 1.377 . S
C1117 C1118 1.379 . S
C1118 H1102 0.931 . S
C1118 C1112 1.383 . S
C1118 C1117 1.379 . S
H1119 C1113 0.959 . S
H1120 C1113 0.961 . S
H1121 C1113 0.960 . S
H1122 C1114 0.930 . S
H1123 C1115 0.929 . S
H1124 C1132 0.929 . S
H1125 C1134 0.930 . S
H1126 C1136 0.930 . S
H1127 C1139 0.929 . S
H1128 C1142 0.930 . S
H1129 C1144 0.960 . S
H1130 C1144 0.960 . S
H1131 C1144 0.960 . S
C1132 H1124 0.929 . S
C1132 C1133 1.377 . S
C1132 C1134 1.384 . S
C1133 C1132 1.377 . S
C1133 C1139 1.390 . S
C1134 H1125 0.930 . S
C1134 C1132 1.384 . S
C1134 C1135 1.372 . S
C1135 C1134 1.372 . S
C1135 C1136 1.400 . S
C1135 C1140 1.490 . S
C1136 H1126 0.930 . S
C1136 C1135 1.400 . S
C1136 C1139 1.386 . S
H1137 C1153 0.930 . S
H1138 C1154 0.931 . S
C1139 H1127 0.929 . S
C1139 C1133 1.390 . S
C1139 C1136 1.386 . S
C1140 C1135 1.490 . S
C1140 C1142 1.395 1_565 S
C1140 C1143 1.403 . S
H1141 C1147 0.930 . S
C1142 H1128 0.930 . S
C1142 C1140 1.395 1_545 S
C1142 C1145 1.403 1_655 S
C1143 C1140 1.403 . S
C1143 C1144 1.524 . S
C1143 C1147 1.400 1_655 S
C1144 H1129 0.960 . S
C1144 H1130 0.960 . S
C1144 H1131 0.960 . S
C1144 C1143 1.524 . S
C1145 C1142 1.403 1_455 S
C1145 C1146 1.392 . S
C1145 C1149 1.495 . S
C1146 C1145 1.392 . S
C1146 C1147 1.385 1_545 S
C1146 C1148 1.478 . S
C1147 H1141 0.930 . S
C1147 C1143 1.400 1_455 S
C1147 C1146 1.385 1_565 S
C1148 C1146 1.478 . S
C1148 C1150 1.381 . S
C1148 C1154 1.383 . S
C1149 C1145 1.495 . S
C1149 H1155 0.959 . S
C1149 H1156 0.961 . S
C1149 H1157 0.960 . S
C1150 C1148 1.381 . S
C1150 C1151 1.394 . S
C1150 H1158 0.930 . S
C1151 C1150 1.394 . S
C1151 C1152 1.383 . S
C1151 H1159 0.929 . S
C1152 C1151 1.383 . S
C1152 C1153 1.377 . S
C1153 H1137 0.930 . S
C1153 C1152 1.377 . S
C1153 C1154 1.379 . S
C1154 H1138 0.931 . S
C1154 C1148 1.383 . S
C1154 C1153 1.379 . S
H1155 C1149 0.959 . S
H1156 C1149 0.961 . S
H1157 C1149 0.960 . S
H1158 C1150 0.930 . S
H1159 C1151 0.929 . S
H1160 C1168 0.929 . S
H1161 C1170 0.930 . S
H1162 C1172 0.930 . S
H1163 C1175 0.929 . S
H1164 C1178 0.930 . S
H1165 C1180 0.960 . S
H1166 C1180 0.960 . S
H1167 C1180 0.960 . S
C1168 H1160 0.929 . S
C1168 C1169 1.377 . S
C1168 C1170 1.384 . S
C1169 C1168 1.377 . S
C1169 C1175 1.390 . S
C1170 H1161 0.930 . S
C1170 C1168 1.384 . S
C1170 C1171 1.372 . S
C1171 C1170 1.372 . S
C1171 C1172 1.400 . S
C1171 C1176 1.490 . S
C1172 H1162 0.930 . S
C1172 C1171 1.400 . S
C1172 C1175 1.386 . S
H1173 C1189 0.930 . S
H1174 C1190 0.931 . S
C1175 H1163 0.929 . S
C1175 C1169 1.390 . S
C1175 C1172 1.386 . S
C1176 C1171 1.490 . S
C1176 C1178 1.395 . S
C1176 C1179 1.403 . S
H1177 C1183 0.930 . S
C1178 H1164 0.930 . S
C1178 C1176 1.395 . S
C1178 C1181 1.403 . S
C1179 C1176 1.403 . S
C1179 C1180 1.524 . S
C1179 C1183 1.400 . S
C1180 H1165 0.960 . S
C1180 H1166 0.960 . S
C1180 H1167 0.960 . S
C1180 C1179 1.524 . S
C1181 C1178 1.403 . S
C1181 C1182 1.392 . S
C1181 C1185 1.495 . S
C1182 C1181 1.392 . S
C1182 C1183 1.385 . S
C1182 C1184 1.478 . S
C1183 H1177 0.930 . S
C1183 C1179 1.400 . S
C1183 C1182 1.385 . S
C1184 C1182 1.478 . S
C1184 C1186 1.381 . S
C1184 C1190 1.383 . S
C1185 C1181 1.495 . S
C1185 H1191 0.959 . S
C1185 H1192 0.961 . S
C1185 H1193 0.960 . S
C1186 C1184 1.381 . S
C1186 C1187 1.394 . S
C1186 H1194 0.930 . S
C1187 C1186 1.394 . S
C1187 C1188 1.383 . S
C1187 H1195 0.929 . S
C1188 C1187 1.383 . S
C1188 C1189 1.377 . S
C1189 H1173 0.930 . S
C1189 C1188 1.377 . S
C1189 C1190 1.379 . S
C1190 H1174 0.931 . S
C1190 C1184 1.383 . S
C1190 C1189 1.379 . S
H1191 C1185 0.959 . S
H1192 C1185 0.961 . S
H1193 C1185 0.960 . S
H1194 C1186 0.930 . S
H1195 C1187 0.929 . S
H1196 C1204 0.929 . S
H1197 C1206 0.930 1_554 S
H1198 C1208 0.930 . S
H1199 C1211 0.929 . S
H1200 C1214 0.930 . S
H1201 C1216 0.960 . S
H1202 C1216 0.960 . S
H1203 C1216 0.960 . S
C1204 H1196 0.929 . S
C1204 C1205 1.377 . S
C1204 C1206 1.384 . S
C1205 C1204 1.377 . S
C1205 C1211 1.390 . S
C1206 H1197 0.930 1_556 S
C1206 C1204 1.384 . S
C1206 C1207 1.372 . S
C1207 C1206 1.372 . S
C1207 C1208 1.400 . S
C1207 C1212 1.490 . S
C1208 H1198 0.930 . S
C1208 C1207 1.400 . S
C1208 C1211 1.386 . S
H1209 C1225 0.930 . S
H1210 C1226 0.907 1_556 S
C1211 H1199 0.929 . S
C1211 C1205 1.390 . S
C1211 C1208 1.386 . S
C1212 C1207 1.490 . S
C1212 C1214 1.395 1_556 S
C1212 C1215 1.403 1_565 S
H1213 C1219 0.930 . S
C1214 H1200 0.930 . S
C1214 C1212 1.395 1_554 S
C1214 C1217 1.403 . S
C1215 C1212 1.403 1_545 S
C1215 C1216 1.524 . S
C1215 C1219 1.400 . S
C1216 H1201 0.960 . S
C1216 H1202 0.960 . S
C1216 H1203 0.960 . S
C1216 C1215 1.524 . S
C1217 C1214 1.403 . S
C1217 C1218 1.392 1_565 S
C1217 C1221 1.495 . S
C1218 C1217 1.392 1_545 S
C1218 C1219 1.385 1_554 S
C1218 C1220 1.478 . S
C1219 H1213 0.930 . S
C1219 C1215 1.400 . S
C1219 C1218 1.385 1_556 S
C1220 C1218 1.478 . S
C1220 C1222 1.381 . S
C1220 C1226 1.383 . S
C1221 C1217 1.495 . S
C1221 H1227 0.959 . S
C1221 H1228 0.961 . S
C1221 H1229 0.960 . S
C1222 C1220 1.381 . S
C1222 C1223 1.394 . S
C1222 H1230 0.930 . S
C1223 C1222 1.394 . S
C1223 C1224 1.383 . S
C1223 H1231 0.929 . S
C1224 C1223 1.383 . S
C1224 C1225 1.377 . S
C1225 H1209 0.930 . S
C1225 C1224 1.377 . S
C1225 C1226 1.379 . S
C1226 H1210 0.907 1_554 S
C1226 C1220 1.383 . S
C1226 C1225 1.379 . S
H1227 C1221 0.959 . S
H1228 C1221 0.961 . S
H1229 C1221 0.960 . S
H1230 C1222 0.930 . S
H1231 C1223 0.929 . S
H1232 C1240 0.929 . S
H1233 C1242 0.930 . S
H1234 C1244 0.930 . S
H1235 C1247 0.929 . S
H1236 C1250 0.930 . S
H1237 C1252 0.960 . S
H1238 C1252 0.960 . S
H1239 C1252 0.960 . S
C1240 H1232 0.929 . S
C1240 C1241 1.377 . S
C1240 C1242 1.384 . S
C1241 C1240 1.377 . S
C1241 C1247 1.390 . S
C1242 H1233 0.930 . S
C1242 C1240 1.384 . S
C1242 C1243 1.372 . S
C1243 C1242 1.372 . S
C1243 C1244 1.400 . S
C1243 C1248 1.490 . S
C1244 H1234 0.930 . S
C1244 C1243 1.400 . S
C1244 C1247 1.386 . S
H1245 C1261 0.930 . S
H1246 C1262 0.931 . S
C1247 H1235 0.929 . S
C1247 C1241 1.390 . S
C1247 C1244 1.386 . S
C1248 C1243 1.490 . S
C1248 C1250 1.395 . S
C1248 C1251 1.403 . S
H1249 C1255 0.930 . S
C1250 H1236 0.930 . S
C1250 C1248 1.395 . S
C1250 C1253 1.403 . S
C1251 C1248 1.403 . S
C1251 C1252 1.524 . S
C1251 C1255 1.400 . S
C1252 H1237 0.960 . S
C1252 H1238 0.960 . S
C1252 H1239 0.960 . S
C1252 C1251 1.524 . S
C1253 C1250 1.403 . S
C1253 C1254 1.392 . S
C1253 C1257 1.495 . S
C1254 C1253 1.392 . S
C1254 C1255 1.385 . S
C1254 C1256 1.478 . S
C1255 H1249 0.930 . S
C1255 C1251 1.400 . S
C1255 C1254 1.385 . S
C1256 C1254 1.478 . S
C1256 C1258 1.381 . S
C1256 C1262 1.383 . S
C1257 C1253 1.495 . S
C1257 H1263 0.959 . S
C1257 H1264 0.961 . S
C1257 H1265 0.960 . S
C1258 C1256 1.381 . S
C1258 C1259 1.394 . S
C1258 H1266 0.930 . S
C1259 C1258 1.394 . S
C1259 C1260 1.383 . S
C1259 H1267 0.929 . S
C1260 C1259 1.383 . S
C1260 C1261 1.377 . S
C1261 H1245 0.930 . S
C1261 C1260 1.377 . S
C1261 C1262 1.379 . S
C1262 H1246 0.931 . S
C1262 C1256 1.383 . S
C1262 C1261 1.379 . S
H1263 C1257 0.959 . S
H1264 C1257 0.961 . S
H1265 C1257 0.960 . S
H1266 C1258 0.930 . S
H1267 C1259 0.929 . S
H1268 C1276 0.929 . S
H1269 C1278 0.930 . S
H1270 C1280 0.930 . S
H1271 C1283 0.929 . S
H1272 C1286 0.930 . S
H1273 C1288 0.960 . S
H1274 C1288 0.960 . S
H1275 C1288 0.960 . S
C1276 H1268 0.929 . S
C1276 C1277 1.377 . S
C1276 C1278 1.384 . S
C1277 C1276 1.377 . S
C1277 C1283 1.390 . S
C1278 H1269 0.930 . S
C1278 C1276 1.384 . S
C1278 C1279 1.372 . S
C1279 C1278 1.372 . S
C1279 C1280 1.400 . S
C1279 C1284 1.490 . S
C1280 H1270 0.930 . S
C1280 C1279 1.400 . S
C1280 C1283 1.386 . S
H1281 C1297 0.930 . S
H1282 C1298 0.931 . S
C1283 H1271 0.929 . S
C1283 C1277 1.390 . S
C1283 C1280 1.386 . S
C1284 C1279 1.490 . S
C1284 C1286 1.395 . S
C1284 C1287 1.403 1_565 S
H1285 C1291 0.930 . S
C1286 H1272 0.930 . S
C1286 C1284 1.395 . S
C1286 C1289 1.403 . S
C1287 C1284 1.403 1_545 S
C1287 C1288 1.524 . S
C1287 C1291 1.400 . S
C1288 H1273 0.960 . S
C1288 H1274 0.960 . S
C1288 H1275 0.960 . S
C1288 C1287 1.524 . S
C1289 C1286 1.403 . S
C1289 C1290 1.392 1_565 S
C1289 C1293 1.495 . S
C1290 C1289 1.392 1_545 S
C1290 C1291 1.385 . S
C1290 C1292 1.478 . S
C1291 H1285 0.930 . S
C1291 C1287 1.400 . S
C1291 C1290 1.385 . S
C1292 C1290 1.478 . S
C1292 C1294 1.381 . S
C1292 C1298 1.383 . S
C1293 C1289 1.495 . S
C1293 H1299 0.959 . S
C1293 H1300 0.961 . S
C1293 H1301 0.960 . S
C1294 C1292 1.381 . S
C1294 C1295 1.394 . S
C1294 H1302 0.930 . S
C1295 C1294 1.394 . S
C1295 C1296 1.383 . S
C1295 H1303 0.929 . S
C1296 C1295 1.383 . S
C1296 C1297 1.377 . S
C1297 H1281 0.930 . S
C1297 C1296 1.377 . S
C1297 C1298 1.379 . S
C1298 H1282 0.931 . S
C1298 C1292 1.383 . S
C1298 C1297 1.379 . S
H1299 C1293 0.959 . S
H1300 C1293 0.961 . S
H1301 C1293 0.960 . S
H1302 C1294 0.930 . S
H1303 C1295 0.929 . S
H1304 C1312 0.929 . S
H1305 C1314 0.930 . S
H1306 C1316 0.930 . S
H1307 C1319 0.929 . S
H1308 C1322 0.930 . S
H1309 C1324 0.960 . S
H1310 C1324 0.960 . S
H1311 C1324 0.960 . S
C1312 H1304 0.929 . S
C1312 C1313 1.377 . S
C1312 C1314 1.384 . S
C1313 C1312 1.377 . S
C1313 C1319 1.390 . S
C1314 H1305 0.930 . S
C1314 C1312 1.384 . S
C1314 C1315 1.372 . S
C1315 C1314 1.372 . S
C1315 C1316 1.400 . S
C1315 C1320 1.490 . S
C1316 H1306 0.930 . S
C1316 C1315 1.400 . S
C1316 C1319 1.386 . S
H1317 C1333 0.930 . S
H1318 C1334 0.931 . S
C1319 H1307 0.929 . S
C1319 C1313 1.390 . S
C1319 C1316 1.386 . S
C1320 C1315 1.490 . S
C1320 C1322 1.395 . S
C1320 C1323 1.403 . S
H1321 C1327 0.930 . S
C1322 H1308 0.930 . S
C1322 C1320 1.395 . S
C1322 C1325 1.403 . S
C1323 C1320 1.403 . S
C1323 C1324 1.524 . S
C1323 C1327 1.400 . S
C1324 H1309 0.960 . S
C1324 H1310 0.960 . S
C1324 H1311 0.960 . S
C1324 C1323 1.524 . S
C1325 C1322 1.403 . S
C1325 C1326 1.392 . S
C1325 C1329 1.495 . S
C1326 C1325 1.392 . S
C1326 C1327 1.385 . S
C1326 C1328 1.478 . S
C1327 H1321 0.930 . S
C1327 C1323 1.400 . S
C1327 C1326 1.385 . S
C1328 C1326 1.478 . S
C1328 C1330 1.381 . S
C1328 C1334 1.383 . S
C1329 C1325 1.495 . S
C1329 H1335 0.959 . S
C1329 H1336 0.961 . S
C1329 H1337 0.960 . S
C1330 C1328 1.381 . S
C1330 C1331 1.394 . S
C1330 H1338 0.930 . S
C1331 C1330 1.394 . S
C1331 C1332 1.383 . S
C1331 H1339 0.929 . S
C1332 C1331 1.383 . S
C1332 C1333 1.377 . S
C1333 H1317 0.930 . S
C1333 C1332 1.377 . S
C1333 C1334 1.379 . S
C1334 H1318 0.931 . S
C1334 C1328 1.383 . S
C1334 C1333 1.379 . S
H1335 C1329 0.959 . S
H1336 C1329 0.961 . S
H1337 C1329 0.960 . S
H1338 C1330 0.930 . S
H1339 C1331 0.929 . S
H1340 C1348 0.929 . S
H1341 C1350 0.899 1_556 S
H1342 C1352 0.930 . S
H1343 C1355 0.929 . S
H1344 C1358 0.930 . S
H1345 C1360 0.960 . S
H1346 C1360 0.960 . S
H1347 C1360 0.960 . S
C1348 H1340 0.929 . S
C1348 C1349 1.377 . S
C1348 C1350 1.384 . S
C1349 C1348 1.377 . S
C1349 C1355 1.390 . S
C1350 H1341 0.899 1_554 S
C1350 C1348 1.384 . S
C1350 C1351 1.372 . S
C1351 C1350 1.372 . S
C1351 C1352 1.400 . S
C1351 C1356 1.490 . S
C1352 H1342 0.930 . S
C1352 C1351 1.400 . S
C1352 C1355 1.386 . S
H1353 C1369 0.930 . S
H1354 C1370 0.931 . S
C1355 H1343 0.929 . S
C1355 C1349 1.390 . S
C1355 C1352 1.386 . S
C1356 C1351 1.490 . S
C1356 C1358 1.395 1_554 S
C1356 C1359 1.403 1_565 S
H1357 C1363 0.930 . S
C1358 H1344 0.930 . S
C1358 C1356 1.395 1_556 S
C1358 C1361 1.403 1_455 S
C1359 C1356 1.403 1_545 S
C1359 C1360 1.524 . S
C1359 C1363 1.400 1_455 S
C1360 H1345 0.960 . S
C1360 H1346 0.960 . S
C1360 H1347 0.960 . S
C1360 C1359 1.524 . S
C1361 C1358 1.403 1_655 S
C1361 C1362 1.392 1_565 S
C1361 C1365 1.495 . S
C1362 C1361 1.392 1_545 S
C1362 C1363 1.385 1_556 S
C1362 C1364 1.478 . S
C1363 H1357 0.930 . S
C1363 C1359 1.400 1_655 S
C1363 C1362 1.385 1_554 S
C1364 C1362 1.478 . S
C1364 C1366 1.381 . S
C1364 C1370 1.383 . S
C1365 C1361 1.495 . S
C1365 H1371 0.959 . S
C1365 H1372 0.961 . S
C1365 H1373 0.960 . S
C1366 C1364 1.381 . S
C1366 C1367 1.394 . S
C1366 H1374 0.930 . S
C1367 C1366 1.394 . S
C1367 C1368 1.383 . S
C1367 H1375 0.929 . S
C1368 C1367 1.383 . S
C1368 C1369 1.377 . S
C1369 H1353 0.930 . S
C1369 C1368 1.377 . S
C1369 C1370 1.379 . S
C1370 H1354 0.931 . S
C1370 C1364 1.383 . S
C1370 C1369 1.379 . S
H1371 C1365 0.959 . S
H1372 C1365 0.961 . S
H1373 C1365 0.960 . S
H1374 C1366 0.930 . S
H1375 C1367 0.929 . S
H1376 C1384 0.929 . S
H1377 C1386 0.930 . S
H1378 C1388 0.930 . S
H1379 C1391 0.929 . S
H1380 C1394 0.930 . S
H1381 C1396 0.960 . S
H1382 C1396 0.960 . S
H1383 C1396 0.960 . S
C1384 H1376 0.929 . S
C1384 C1385 1.377 . S
C1384 C1386 1.384 . S
C1385 C1384 1.377 . S
C1385 C1391 1.390 . S
C1386 H1377 0.930 . S
C1386 C1384 1.384 . S
C1386 C1387 1.372 . S
C1387 C1386 1.372 . S
C1387 C1388 1.400 . S
C1387 C1392 1.490 . S
C1388 H1378 0.930 . S
C1388 C1387 1.400 . S
C1388 C1391 1.386 . S
H1389 C1405 0.930 . S
H1390 C1406 0.931 . S
C1391 H1379 0.929 . S
C1391 C1385 1.390 . S
C1391 C1388 1.386 . S
C1392 C1387 1.490 . S
C1392 C1394 1.395 . S
C1392 C1395 1.403 . S
H1393 C1399 0.930 . S
C1394 H1380 0.930 . S
C1394 C1392 1.395 . S
C1394 C1397 1.403 . S
C1395 C1392 1.403 . S
C1395 C1396 1.524 . S
C1395 C1399 1.400 . S
C1396 H1381 0.960 . S
C1396 H1382 0.960 . S
C1396 H1383 0.960 . S
C1396 C1395 1.524 . S
C1397 C1394 1.403 . S
C1397 C1398 1.392 . S
C1397 C1401 1.495 . S
C1398 C1397 1.392 . S
C1398 C1399 1.385 . S
C1398 C1400 1.478 . S
C1399 H1393 0.930 . S
C1399 C1395 1.400 . S
C1399 C1398 1.385 . S
C1400 C1398 1.478 . S
C1400 C1402 1.381 . S
C1400 C1406 1.383 . S
C1401 C1397 1.495 . S
C1401 H1407 0.959 . S
C1401 H1408 0.961 . S
C1401 H1409 0.960 . S
C1402 C1400 1.381 . S
C1402 C1403 1.394 . S
C1402 H1410 0.930 . S
C1403 C1402 1.394 . S
C1403 C1404 1.383 . S
C1403 H1411 0.929 . S
C1404 C1403 1.383 . S
C1404 C1405 1.377 . S
C1405 H1389 0.930 . S
C1405 C1404 1.377 . S
C1405 C1406 1.379 . S
C1406 H1390 0.931 . S
C1406 C1400 1.383 . S
C1406 C1405 1.379 . S
H1407 C1401 0.959 . S
H1408 C1401 0.961 . S
H1409 C1401 0.960 . S
H1410 C1402 0.930 . S
H1411 C1403 0.929 . S
H1412 C1420 0.929 . S
H1413 C1422 0.930 . S
H1414 C1424 0.930 . S
H1415 C1427 0.929 . S
H1416 C1430 0.930 . S
H1417 C1432 0.960 . S
H1418 C1432 0.960 . S
H1419 C1432 0.960 . S
C1420 H1412 0.929 . S
C1420 C1421 1.377 . S
C1420 C1422 1.384 . S
C1421 C1420 1.377 . S
C1421 C1427 1.390 . S
C1422 H1413 0.930 . S
C1422 C1420 1.384 . S
C1422 C1423 1.372 . S
C1423 C1422 1.372 . S
C1423 C1424 1.400 . S
C1423 C1428 1.490 . S
C1424 H1414 0.930 . S
C1424 C1423 1.400 . S
C1424 C1427 1.386 . S
H1425 C1441 0.930 . S
H1426 C1442 0.931 . S
C1427 H1415 0.929 . S
C1427 C1421 1.390 . S
C1427 C1424 1.386 . S
C1428 C1423 1.490 . S
C1428 C1430 1.395 . S
C1428 C1431 1.403 . S
H1429 C1435 0.930 . S
C1430 H1416 0.930 . S
C1430 C1428 1.395 . S
C1430 C1433 1.403 . S
C1431 C1428 1.403 . S
C1431 C1432 1.524 . S
C1431 C1435 1.400 . S
C1432 H1417 0.960 . S
C1432 H1418 0.960 . S
C1432 H1419 0.960 . S
C1432 C1431 1.524 . S
C1433 C1430 1.403 . S
C1433 C1434 1.392 . S
C1433 C1437 1.495 . S
C1434 C1433 1.392 . S
C1434 C1435 1.385 . S
C1434 C1436 1.478 . S
C1435 H1429 0.930 . S
C1435 C1431 1.400 . S
C1435 C1434 1.385 . S
C1436 C1434 1.478 . S
C1436 C1438 1.381 . S
C1436 C1442 1.383 . S
C1437 C1433 1.495 . S
C1437 H1443 0.959 . S
C1437 H1444 0.961 . S
C1437 H1445 0.960 . S
C1438 C1436 1.381 . S
C1438 C1439 1.394 . S
C1438 H1446 0.930 . S
C1439 C1438 1.394 . S
C1439 C1440 1.383 . S
C1439 H1447 0.929 . S
C1440 C1439 1.383 . S
C1440 C1441 1.377 . S
C1441 H1425 0.930 . S
C1441 C1440 1.377 . S
C1441 C1442 1.379 . S
C1442 H1426 0.931 . S
C1442 C1436 1.383 . S
C1442 C1441 1.379 . S
H1443 C1437 0.959 . S
H1444 C1437 0.961 . S
H1445 C1437 0.960 . S
H1446 C1438 0.930 . S
H1447 C1439 0.929 . S
H1448 C1456 0.929 . S
H1449 C1458 0.930 . S
H1450 C1460 0.930 . S
H1451 C1463 0.929 . S
H1452 C1466 0.930 . S
H1453 C1468 0.960 . S
H1454 C1468 0.960 . S
H1455 C1468 0.960 . S
C1456 H1448 0.929 . S
C1456 C1457 1.377 . S
C1456 C1458 1.384 . S
C1457 C1456 1.377 . S
C1457 C1463 1.390 . S
C1458 H1449 0.930 . S
C1458 C1456 1.384 . S
C1458 C1459 1.372 . S
C1459 C1458 1.372 . S
C1459 C1460 1.400 . S
C1459 C1464 1.490 . S
C1460 H1450 0.930 . S
C1460 C1459 1.400 . S
C1460 C1463 1.386 . S
H1461 C1477 0.930 . S
H1462 C1478 0.931 . S
C1463 H1451 0.929 . S
C1463 C1457 1.390 . S
C1463 C1460 1.386 . S
C1464 C1459 1.490 . S
C1464 C1466 1.395 . S
C1464 C1467 1.403 . S
H1465 C1471 0.930 . S
C1466 H1452 0.930 . S
C1466 C1464 1.395 . S
C1466 C1469 1.403 . S
C1467 C1464 1.403 . S
C1467 C1468 1.524 . S
C1467 C1471 1.400 . S
C1468 H1453 0.960 . S
C1468 H1454 0.960 . S
C1468 H1455 0.960 . S
C1468 C1467 1.524 . S
C1469 C1466 1.403 . S
C1469 C1470 1.392 . S
C1469 C1473 1.495 . S
C1470 C1469 1.392 . S
C1470 C1471 1.385 . S
C1470 C1472 1.478 . S
C1471 H1465 0.930 . S
C1471 C1467 1.400 . S
C1471 C1470 1.385 . S
C1472 C1470 1.478 . S
C1472 C1474 1.381 . S
C1472 C1478 1.383 . S
C1473 C1469 1.495 . S
C1473 H1479 0.959 . S
C1473 H1480 0.961 . S
C1473 H1481 0.960 . S
C1474 C1472 1.381 . S
C1474 C1475 1.394 . S
C1474 H1482 0.930 . S
C1475 C1474 1.394 . S
C1475 C1476 1.383 . S
C1475 H1483 0.929 . S
C1476 C1475 1.383 . S
C1476 C1477 1.377 . S
C1477 H1461 0.930 . S
C1477 C1476 1.377 . S
C1477 C1478 1.379 . S
C1478 H1462 0.931 . S
C1478 C1472 1.383 . S
C1478 C1477 1.379 . S
H1479 C1473 0.959 . S
H1480 C1473 0.961 . S
H1481 C1473 0.960 . S
H1482 C1474 0.930 . S
H1483 C1475 0.929 . S
H1484 C1492 0.929 . S
H1485 C1494 0.930 . S
H1486 C1496 0.930 . S
H1487 C1499 0.929 . S
H1488 C1502 0.930 . S
H1489 C1504 0.960 . S
H1490 C1504 0.960 . S
H1491 C1504 0.960 . S
C1492 H1484 0.929 . S
C1492 C1493 1.377 . S
C1492 C1494 1.384 . S
C1493 C1492 1.377 . S
C1493 C1499 1.390 . S
C1494 H1485 0.930 . S
C1494 C1492 1.384 . S
C1494 C1495 1.372 . S
C1495 C1494 1.372 . S
C1495 C1496 1.400 . S
C1495 C1500 1.490 . S
C1496 H1486 0.930 . S
C1496 C1495 1.400 . S
C1496 C1499 1.386 . S
H1497 C1513 0.930 . S
H1498 C1514 0.931 . S
C1499 H1487 0.929 . S
C1499 C1493 1.390 . S
C1499 C1496 1.386 . S
C1500 C1495 1.490 . S
C1500 C1502 1.395 . S
C1500 C1503 1.403 . S
H1501 C1507 0.930 . S
C1502 H1488 0.930 . S
C1502 C1500 1.395 . S
C1502 C1505 1.403 . S
C1503 C1500 1.403 . S
C1503 C1504 1.524 . S
C1503 C1507 1.400 . S
C1504 H1489 0.960 . S
C1504 H1490 0.960 . S
C1504 H1491 0.960 . S
C1504 C1503 1.524 . S
C1505 C1502 1.403 . S
C1505 C1506 1.392 . S
C1505 C1509 1.495 . S
C1506 C1505 1.392 . S
C1506 C1507 1.385 . S
C1506 C1508 1.478 . S
C1507 H1501 0.930 . S
C1507 C1503 1.400 . S
C1507 C1506 1.385 . S
C1508 C1506 1.478 . S
C1508 C1510 1.381 . S
C1508 C1514 1.383 . S
C1509 C1505 1.495 . S
C1509 H1515 0.959 . S
C1509 H1516 0.961 . S
C1509 H1517 0.960 . S
C1510 C1508 1.381 . S
C1510 C1511 1.394 . S
C1510 H1518 0.930 . S
C1511 C1510 1.394 . S
C1511 C1512 1.383 . S
C1511 H1519 0.929 . S
C1512 C1511 1.383 . S
C1512 C1513 1.377 . S
C1513 H1497 0.930 . S
C1513 C1512 1.377 . S
C1513 C1514 1.379 . S
C1514 H1498 0.931 . S
C1514 C1508 1.383 . S
C1514 C1513 1.379 . S
H1515 C1509 0.959 . S
H1516 C1509 0.961 . S
H1517 C1509 0.960 . S
H1518 C1510 0.930 . S
H1519 C1511 0.929 . S
H1520 C1528 0.929 . S
H1521 C1530 0.930 . S
H1522 C1532 0.930 . S
H1523 C1535 0.929 . S
H1524 C1538 0.930 . S
H1525 C1540 0.960 . S
H1526 C1540 0.960 . S
H1527 C1540 0.960 . S
C1528 H1520 0.929 . S
C1528 C1529 1.377 . S
C1528 C1530 1.384 . S
C1529 C1528 1.377 . S
C1529 C1535 1.390 . S
C1530 H1521 0.930 . S
C1530 C1528 1.384 . S
C1530 C1531 1.372 . S
C1531 C1530 1.372 . S
C1531 C1532 1.400 . S
C1531 C1536 1.490 . S
C1532 H1522 0.930 . S
C1532 C1531 1.400 . S
C1532 C1535 1.386 . S
H1533 C1549 0.930 . S
H1534 C1550 0.931 . S
C1535 H1523 0.929 . S
C1535 C1529 1.390 . S
C1535 C1532 1.386 . S
C1536 C1531 1.490 . S
C1536 C1538 1.395 . S
C1536 C1539 1.403 1_556 S
H1537 C1543 0.930 . S
C1538 H1524 0.930 . S
C1538 C1536 1.395 . S
C1538 C1541 1.403 . S
C1539 C1536 1.403 1_554 S
C1539 C1540 1.524 . S
C1539 C1543 1.400 . S
C1540 H1525 0.960 . S
C1540 H1526 0.960 . S
C1540 H1527 0.960 . S
C1540 C1539 1.524 . S
C1541 C1538 1.403 . S
C1541 C1542 1.392 1_556 S
C1541 C1545 1.495 . S
C1542 C1541 1.392 1_554 S
C1542 C1543 1.385 . S
C1542 C1544 1.478 . S
C1543 H1537 0.930 . S
C1543 C1539 1.400 . S
C1543 C1542 1.385 . S
C1544 C1542 1.478 . S
C1544 C1546 1.381 . S
C1544 C1550 1.383 . S
C1545 C1541 1.495 . S
C1545 H1551 0.959 . S
C1545 H1552 0.961 . S
C1545 H1553 0.960 . S
C1546 C1544 1.381 . S
C1546 C1547 1.394 . S
C1546 H1554 0.985 . S
C1547 C1546 1.394 . S
C1547 C1548 1.383 . S
C1547 H1555 0.929 . S
C1548 C1547 1.383 . S
C1548 C1549 1.377 . S
C1549 H1533 0.930 . S
C1549 C1548 1.377 . S
C1549 C1550 1.379 . S
C1550 H1534 0.931 . S
C1550 C1544 1.383 . S
C1550 C1549 1.379 . S
H1551 C1545 0.959 . S
H1552 C1545 0.961 . S
H1553 C1545 0.960 . S
H1554 C1546 0.985 . S
H1555 C1547 0.929 . S
H1556 C1564 0.929 . S
H1557 C1566 0.930 . S
H1558 C1568 0.930 . S
H1559 C1571 0.929 . S
H1560 C1574 0.930 . S
H1561 C1576 0.960 . S
H1562 C1576 0.960 . S
H1563 C1576 0.960 . S
C1564 H1556 0.929 . S
C1564 C1565 1.377 . S
C1564 C1566 1.384 . S
C1565 C1564 1.377 . S
C1565 C1571 1.390 . S
C1566 H1557 0.930 . S
C1566 C1564 1.384 . S
C1566 C1567 1.372 . S
C1567 C1566 1.372 . S
C1567 C1568 1.400 . S
C1567 C1572 1.490 . S
C1568 H1558 0.930 . S
C1568 C1567 1.400 . S
C1568 C1571 1.386 . S
H1569 C1585 0.930 . S
H1570 C1586 0.931 . S
C1571 H1559 0.929 . S
C1571 C1565 1.390 . S
C1571 C1568 1.386 . S
C1572 C1567 1.490 . S
C1572 C1574 1.395 . S
C1572 C1575 1.403 1_455 S
H1573 C1579 0.930 . S
C1574 H1560 0.930 . S
C1574 C1572 1.395 . S
C1574 C1577 1.403 . S
C1575 C1572 1.403 1_655 S
C1575 C1576 1.524 . S
C1575 C1579 1.400 . S
C1576 H1561 0.960 . S
C1576 H1562 0.960 . S
C1576 H1563 0.960 . S
C1576 C1575 1.524 . S
C1577 C1574 1.403 . S
C1577 C1578 1.392 1_455 S
C1577 C1581 1.495 . S
C1578 C1577 1.392 1_655 S
C1578 C1579 1.385 . S
C1578 C1580 1.478 . S
C1579 H1573 0.930 . S
C1579 C1575 1.400 . S
C1579 C1578 1.385 . S
C1580 C1578 1.478 . S
C1580 C1582 1.381 . S
C1580 C1586 1.383 . S
C1581 C1577 1.495 . S
C1581 H1587 0.959 . S
C1581 H1588 0.961 . S
C1581 H1589 0.960 . S
C1582 C1580 1.381 . S
C1582 C1583 1.394 . S
C1582 H1590 0.930 . S
C1583 C1582 1.394 . S
C1583 C1584 1.383 . S
C1583 H1591 0.929 . S
C1584 C1583 1.383 . S
C1584 C1585 1.377 . S
C1585 H1569 0.930 . S
C1585 C1584 1.377 . S
C1585 C1586 1.379 . S
C1586 H1570 0.931 . S
C1586 C1580 1.383 . S
C1586 C1585 1.379 . S
H1587 C1581 0.959 . S
H1588 C1581 0.961 . S
H1589 C1581 0.960 . S
H1590 C1582 0.930 . S
H1591 C1583 0.929 . S
H1592 C1600 0.929 . S
H1593 C1602 0.930 . S
H1594 C1604 0.930 . S
H1595 C1607 0.929 . S
H1596 C1610 0.930 . S
H1597 C1612 0.960 . S
H1598 C1612 0.960 . S
H1599 C1612 0.960 . S
C1600 H1592 0.929 . S
C1600 C1601 1.377 . S
C1600 C1602 1.384 . S
C1601 C1600 1.377 . S
C1601 C1607 1.390 . S
C1602 H1593 0.930 . S
C1602 C1600 1.384 . S
C1602 C1603 1.372 . S
C1603 C1602 1.372 . S
C1603 C1604 1.400 . S
C1603 C1608 1.490 . S
C1604 H1594 0.930 . S
C1604 C1603 1.400 . S
C1604 C1607 1.386 . S
H1605 C1621 0.930 . S
H1606 C1622 0.931 . S
C1607 H1595 0.929 . S
C1607 C1601 1.390 . S
C1607 C1604 1.386 . S
C1608 C1603 1.490 . S
C1608 C1610 1.395 1_455 S
C1608 C1611 1.403 . S
H1609 C1615 0.930 . S
C1610 H1596 0.930 . S
C1610 C1608 1.395 1_655 S
C1610 C1613 1.403 1_556 S
C1611 C1608 1.403 . S
C1611 C1612 1.524 . S
C1611 C1615 1.400 1_556 S
C1612 H1597 0.960 . S
C1612 H1598 0.960 . S
C1612 H1599 0.960 . S
C1612 C1611 1.524 . S
C1613 C1610 1.403 1_554 S
C1613 C1614 1.392 . S
C1613 C1617 1.495 . S
C1614 C1613 1.392 . S
C1614 C1615 1.385 1_655 S
C1614 C1616 1.478 . S
C1615 H1609 0.930 . S
C1615 C1611 1.400 1_554 S
C1615 C1614 1.385 1_455 S
C1616 C1614 1.478 . S
C1616 C1618 1.381 . S
C1616 C1622 1.383 . S
C1617 C1613 1.495 . S
C1617 H1623 0.959 . S
C1617 H1624 0.961 . S
C1617 H1625 0.960 . S
C1618 C1616 1.381 . S
C1618 C1619 1.394 . S
C1618 H1626 0.930 . S
C1619 C1618 1.394 . S
C1619 C1620 1.383 . S
C1619 H1627 0.929 . S
C1620 C1619 1.383 . S
C1620 C1621 1.377 . S
C1621 H1605 0.930 . S
C1621 C1620 1.377 . S
C1621 C1622 1.379 . S
C1622 H1606 0.931 . S
C1622 C1616 1.383 . S
C1622 C1621 1.379 . S
H1623 C1617 0.959 . S
H1624 C1617 0.961 . S
H1625 C1617 0.960 . S
H1626 C1618 0.930 . S
H1627 C1619 0.929 . S
H1628 C1636 0.929 . S
H1629 C1638 0.930 . S
H1630 C1640 0.930 . S
H1631 C1643 0.929 . S
H1632 C1646 0.930 . S
H1633 C1648 0.960 . S
H1634 C1648 0.960 . S
H1635 C1648 0.960 . S
C1636 H1628 0.929 . S
C1636 C1637 1.377 . S
C1636 C1638 1.384 . S
C1637 C1636 1.377 . S
C1637 C1643 1.390 . S
C1638 H1629 0.930 . S
C1638 C1636 1.384 . S
C1638 C1639 1.372 . S
C1639 C1638 1.372 . S
C1639 C1640 1.400 . S
C1639 C1644 1.490 . S
C1640 H1630 0.930 . S
C1640 C1639 1.400 . S
C1640 C1643 1.386 . S
H1641 C1657 0.930 . S
H1642 C1658 0.931 . S
C1643 H1631 0.929 . S
C1643 C1637 1.390 . S
C1643 C1640 1.386 . S
C1644 C1639 1.490 . S
C1644 C1646 1.395 . S
C1644 C1647 1.403 . S
H1645 C1651 0.930 . S
C1646 H1632 0.930 . S
C1646 C1644 1.395 . S
C1646 C1649 1.403 . S
C1647 C1644 1.403 . S
C1647 C1648 1.524 . S
C1647 C1651 1.400 . S
C1648 H1633 0.960 . S
C1648 H1634 0.960 . S
C1648 H1635 0.960 . S
C1648 C1647 1.524 . S
C1649 C1646 1.403 . S
C1649 C1650 1.392 . S
C1649 C1653 1.495 . S
C1650 C1649 1.392 . S
C1650 C1651 1.385 . S
C1650 C1652 1.478 . S
C1651 H1645 0.930 . S
C1651 C1647 1.400 . S
C1651 C1650 1.385 . S
C1652 C1650 1.478 . S
C1652 C1654 1.381 . S
C1652 C1658 1.383 . S
C1653 C1649 1.495 . S
C1653 H1659 0.959 . S
C1653 H1660 0.961 . S
C1653 H1661 0.960 . S
C1654 C1652 1.381 . S
C1654 C1655 1.394 . S
C1654 H1662 0.930 . S
C1655 C1654 1.394 . S
C1655 C1656 1.383 . S
C1655 H1663 0.929 . S
C1656 C1655 1.383 . S
C1656 C1657 1.377 . S
C1657 H1641 0.930 . S
C1657 C1656 1.377 . S
C1657 C1658 1.379 . S
C1658 H1642 0.931 . S
C1658 C1652 1.383 . S
C1658 C1657 1.379 . S
H1659 C1653 0.959 . S
H1660 C1653 0.961 . S
H1661 C1653 0.960 . S
H1662 C1654 0.930 . S
H1663 C1655 0.929 . S
H1664 C1672 0.929 . S
H1665 C1674 0.930 . S
H1666 C1676 0.930 . S
H1667 C1679 0.929 . S
H1668 C1682 0.930 . S
H1669 C1684 0.960 . S
H1670 C1684 0.960 . S
H1671 C1684 0.960 . S
C1672 H1664 0.929 . S
C1672 C1673 1.377 . S
C1672 C1674 1.384 . S
C1673 C1672 1.377 . S
C1673 C1679 1.390 . S
C1674 H1665 0.930 . S
C1674 C1672 1.384 . S
C1674 C1675 1.372 . S
C1675 C1674 1.372 . S
C1675 C1676 1.400 . S
C1675 C1680 1.490 . S
C1676 H1666 0.930 . S
C1676 C1675 1.400 . S
C1676 C1679 1.386 . S
H1677 C1693 0.930 . S
H1678 C1694 0.931 . S
C1679 H1667 0.929 . S
C1679 C1673 1.390 . S
C1679 C1676 1.386 . S
C1680 C1675 1.490 . S
C1680 C1682 1.395 . S
C1680 C1683 1.403 . S
H1681 C1687 0.930 . S
C1682 H1668 0.930 . S
C1682 C1680 1.395 . S
C1682 C1685 1.403 . S
C1683 C1680 1.403 . S
C1683 C1684 1.524 . S
C1683 C1687 1.400 . S
C1684 H1669 0.960 . S
C1684 H1670 0.960 . S
C1684 H1671 0.960 . S
C1684 C1683 1.524 . S
C1685 C1682 1.403 . S
C1685 C1686 1.392 . S
C1685 C1689 1.495 . S
C1686 C1685 1.392 . S
C1686 C1687 1.385 . S
C1686 C1688 1.478 . S
C1687 H1681 0.930 . S
C1687 C1683 1.400 . S
C1687 C1686 1.385 . S
C1688 C1686 1.478 . S
C1688 C1690 1.381 . S
C1688 C1694 1.383 . S
C1689 C1685 1.495 . S
C1689 H1695 0.959 . S
C1689 H1696 0.961 . S
C1689 H1697 0.960 . S
C1690 C1688 1.381 . S
C1690 C1691 1.394 . S
C1690 H1698 0.930 . S
C1691 C1690 1.394 . S
C1691 C1692 1.383 . S
C1691 H1699 0.929 . S
C1692 C1691 1.383 . S
C1692 C1693 1.377 . S
C1693 H1677 0.930 . S
C1693 C1692 1.377 . S
C1693 C1694 1.379 . S
C1694 H1678 0.931 . S
C1694 C1688 1.383 . S
C1694 C1693 1.379 . S
H1695 C1689 0.959 . S
H1696 C1689 0.961 . S
H1697 C1689 0.960 . S
H1698 C1690 0.930 . S
H1699 C1691 0.929 . S
H1700 C1708 0.929 . S
H1701 C1710 0.930 . S
H1702 C1712 0.930 . S
H1703 C1715 0.929 . S
H1704 C1718 0.930 . S
H1705 C1720 0.960 . S
H1706 C1720 0.960 . S
H1707 C1720 0.960 . S
C1708 H1700 0.929 . S
C1708 C1709 1.377 . S
C1708 C1710 1.384 . S
C1709 C1708 1.377 . S
C1709 C1715 1.390 . S
C1710 H1701 0.930 . S
C1710 C1708 1.384 . S
C1710 C1711 1.372 . S
C1711 C1710 1.372 . S
C1711 C1712 1.400 . S
C1711 C1716 1.490 . S
C1712 H1702 0.930 . S
C1712 C1711 1.400 . S
C1712 C1715 1.386 . S
H1713 C1729 0.930 . S
H1714 C1730 0.931 . S
C1715 H1703 0.929 . S
C1715 C1709 1.390 . S
C1715 C1712 1.386 . S
C1716 C1711 1.490 . S
C1716 C1718 1.395 . S
C1716 C1719 1.403 . S
H1717 C1723 0.930 . S
C1718 H1704 0.930 . S
C1718 C1716 1.395 . S
C1718 C1721 1.403 1_655 S
C1719 C1716 1.403 . S
C1719 C1720 1.524 . S
C1719 C1723 1.400 1_655 S
C1720 H1705 0.960 . S
C1720 H1706 0.960 . S
C1720 H1707 0.960 . S
C1720 C1719 1.524 . S
C1721 C1718 1.403 1_455 S
C1721 C1722 1.392 . S
C1721 C1725 1.495 . S
C1722 C1721 1.392 . S
C1722 C1723 1.385 . S
C1722 C1724 1.478 . S
C1723 H1717 0.930 . S
C1723 C1719 1.400 1_455 S
C1723 C1722 1.385 . S
C1724 C1722 1.478 . S
C1724 C1726 1.381 . S
C1724 C1730 1.383 . S
C1725 C1721 1.495 . S
C1725 H1731 0.959 . S
C1725 H1732 0.961 . S
C1725 H1733 0.960 . S
C1726 C1724 1.381 . S
C1726 C1727 1.394 . S
C1726 H1734 0.930 . S
C1727 C1726 1.394 . S
C1727 C1728 1.383 . S
C1727 H1735 0.929 . S
C1728 C1727 1.383 . S
C1728 C1729 1.377 . S
C1729 H1713 0.930 . S
C1729 C1728 1.377 . S
C1729 C1730 1.379 . S
C1730 H1714 0.931 . S
C1730 C1724 1.383 . S
C1730 C1729 1.379 . S
H1731 C1725 0.959 . S
H1732 C1725 0.961 . S
H1733 C1725 0.960 . S
H1734 C1726 0.930 . S
H1735 C1727 0.929 . S
H1736 C1744 0.929 . S
H1737 C1746 0.930 . S
H1738 C1748 0.930 . S
H1739 C1751 0.929 . S
H1740 C1754 0.930 . S
H1741 C1756 0.960 . S
H1742 C1756 0.960 . S
H1743 C1756 0.960 . S
C1744 H1736 0.929 . S
C1744 C1745 1.377 . S
C1744 C1746 1.384 . S
C1745 C1744 1.377 . S
C1745 C1751 1.390 . S
C1746 H1737 0.930 . S
C1746 C1744 1.384 . S
C1746 C1747 1.372 . S
C1747 C1746 1.372 . S
C1747 C1748 1.400 . S
C1747 C1752 1.490 . S
C1748 H1738 0.930 . S
C1748 C1747 1.400 . S
C1748 C1751 1.386 . S
H1749 C1765 0.930 . S
H1750 C1766 0.931 . S
C1751 H1739 0.929 . S
C1751 C1745 1.390 . S
C1751 C1748 1.386 . S
C1752 C1747 1.490 . S
C1752 C1754 1.395 . S
C1752 C1755 1.403 . S
H1753 C1759 0.930 . S
C1754 H1740 0.930 . S
C1754 C1752 1.395 . S
C1754 C1757 1.403 . S
C1755 C1752 1.403 . S
C1755 C1756 1.524 . S
C1755 C1759 1.400 . S
C1756 H1741 0.960 . S
C1756 H1742 0.960 . S
C1756 H1743 0.960 . S
C1756 C1755 1.524 . S
C1757 C1754 1.403 . S
C1757 C1758 1.392 . S
C1757 C1761 1.495 . S
C1758 C1757 1.392 . S
C1758 C1759 1.385 . S
C1758 C1760 1.478 . S
C1759 H1753 0.930 . S
C1759 C1755 1.400 . S
C1759 C1758 1.385 . S
C1760 C1758 1.478 . S
C1760 C1762 1.381 . S
C1760 C1766 1.383 . S
C1761 C1757 1.495 . S
C1761 H1767 0.959 . S
C1761 H1768 0.961 . S
C1761 H1769 0.960 . S
C1762 C1760 1.381 . S
C1762 C1763 1.394 . S
C1762 H1770 0.930 . S
C1763 C1762 1.394 . S
C1763 C1764 1.383 . S
C1763 H1771 0.929 . S
C1764 C1763 1.383 . S
C1764 C1765 1.377 . S
C1765 H1749 0.930 . S
C1765 C1764 1.377 . S
C1765 C1766 1.379 . S
C1766 H1750 0.931 . S
C1766 C1760 1.383 . S
C1766 C1765 1.379 . S
H1767 C1761 0.959 . S
H1768 C1761 0.961 . S
H1769 C1761 0.960 . S
H1770 C1762 0.930 . S
H1771 C1763 0.929 . S
H1772 C1780 0.929 . S
H1773 C1782 0.930 . S
H1774 C1784 0.930 . S
H1775 C1787 0.929 . S
H1776 C1790 0.930 . S
H1777 C1792 0.960 . S
H1778 C1792 0.960 . S
H1779 C1792 0.960 . S
C1780 H1772 0.929 . S
C1780 C1781 1.377 . S
C1780 C1782 1.384 . S
C1781 C1780 1.377 . S
C1781 C1787 1.390 . S
C1782 H1773 0.930 . S
C1782 C1780 1.384 . S
C1782 C1783 1.372 . S
C1783 C1782 1.372 . S
C1783 C1784 1.400 . S
C1783 C1788 1.490 . S
C1784 H1774 0.930 . S
C1784 C1783 1.400 . S
C1784 C1787 1.386 . S
H1785 C1801 0.930 . S
H1786 C1802 0.931 . S
C1787 H1775 0.929 . S
C1787 C1781 1.390 . S
C1787 C1784 1.386 . S
C1788 C1783 1.490 . S
C1788 C1790 1.395 . S
C1788 C1791 1.403 . S
H1789 C1795 0.930 . S
C1790 H1776 0.930 . S
C1790 C1788 1.395 . S
C1790 C1793 1.403 . S
C1791 C1788 1.403 . S
C1791 C1792 1.524 . S
C1791 C1795 1.400 . S
C1792 H1777 0.960 . S
C1792 H1778 0.960 . S
C1792 H1779 0.960 . S
C1792 C1791 1.524 . S
C1793 C1790 1.403 . S
C1793 C1794 1.392 . S
C1793 C1797 1.495 . S
C1794 C1793 1.392 . S
C1794 C1795 1.385 . S
C1794 C1796 1.478 . S
C1795 H1789 0.930 . S
C1795 C1791 1.400 . S
C1795 C1794 1.385 . S
C1796 C1794 1.478 . S
C1796 C1798 1.381 . S
C1796 C1802 1.383 . S
C1797 C1793 1.495 . S
C1797 H1803 0.959 . S
C1797 H1804 0.961 . S
C1797 H1805 0.960 . S
C1798 C1796 1.381 . S
C1798 C1799 1.394 . S
C1798 H1806 0.930 . S
C1799 C1798 1.394 . S
C1799 C1800 1.383 . S
C1799 H1807 0.929 . S
C1800 C1799 1.383 . S
C1800 C1801 1.377 . S
C1801 H1785 0.930 . S
C1801 C1800 1.377 . S
C1801 C1802 1.379 . S
C1802 H1786 0.931 . S
C1802 C1796 1.383 . S
C1802 C1801 1.379 . S
H1803 C1797 0.959 . S
H1804 C1797 0.961 . S
H1805 C1797 0.960 . S
H1806 C1798 0.930 . S
H1807 C1799 0.929 . S
H1808 C1816 0.929 . S
H1809 C1818 0.930 . S
H1810 C1820 0.930 . S
H1811 C1823 0.929 . S
H1812 C1826 0.930 . S
H1813 C1828 0.960 . S
H1814 C1828 0.960 . S
H1815 C1828 0.960 . S
C1816 H1808 0.929 . S
C1816 C1817 1.377 . S
C1816 C1818 1.384 . S
C1817 C1816 1.377 . S
C1817 C1823 1.390 . S
C1818 H1809 0.930 . S
C1818 C1816 1.384 . S
C1818 C1819 1.372 . S
C1819 C1818 1.372 . S
C1819 C1820 1.400 . S
C1819 C1824 1.490 . S
C1820 H1810 0.930 . S
C1820 C1819 1.400 . S
C1820 C1823 1.386 . S
H1821 C1837 0.930 . S
H1822 C1838 0.931 . S
C1823 H1811 0.929 . S
C1823 C1817 1.390 . S
C1823 C1820 1.386 . S
C1824 C1819 1.490 . S
C1824 C1826 1.395 . S
C1824 C1827 1.403 . S
H1825 C1831 0.930 . S
C1826 H1812 0.930 . S
C1826 C1824 1.395 . S
C1826 C1829 1.403 . S
C1827 C1824 1.403 . S
C1827 C1828 1.524 . S
C1827 C1831 1.400 . S
C1828 H1813 0.960 . S
C1828 H1814 0.960 . S
C1828 H1815 0.960 . S
C1828 C1827 1.524 . S
C1829 C1826 1.403 . S
C1829 C1830 1.392 . S
C1829 C1833 1.495 . S
C1830 C1829 1.392 . S
C1830 C1831 1.385 . S
C1830 C1832 1.478 . S
C1831 H1825 0.930 . S
C1831 C1827 1.400 . S
C1831 C1830 1.385 . S
C1832 C1830 1.478 . S
C1832 C1834 1.381 . S
C1832 C1838 1.383 . S
C1833 C1829 1.495 . S
C1833 H1839 0.959 . S
C1833 H1840 0.961 . S
C1833 H1841 0.960 . S
C1834 C1832 1.381 . S
C1834 C1835 1.394 . S
C1834 H1842 0.930 . S
C1835 C1834 1.394 . S
C1835 C1836 1.383 . S
C1835 H1843 0.929 . S
C1836 C1835 1.383 . S
C1836 C1837 1.377 . S
C1837 H1821 0.930 . S
C1837 C1836 1.377 . S
C1837 C1838 1.379 . S
C1838 H1822 0.931 . S
C1838 C1832 1.383 . S
C1838 C1837 1.379 . S
H1839 C1833 0.959 . S
H1840 C1833 0.961 . S
H1841 C1833 0.960 . S
H1842 C1834 0.930 . S
H1843 C1835 0.929 . S
H1844 C1852 0.929 . S
H1845 C1854 0.930 . S
H1846 C1856 0.930 . S
H1847 C1859 0.929 . S
H1848 C1862 0.930 . S
H1849 C1864 0.960 . S
H1850 C1864 0.960 . S
H1851 C1864 0.960 . S
C1852 H1844 0.929 . S
C1852 C1853 1.377 . S
C1852 C1854 1.384 . S
C1853 C1852 1.377 . S
C1853 C1859 1.390 . S
C1854 H1845 0.930 . S
C1854 C1852 1.384 . S
C1854 C1855 1.372 . S
C1855 C1854 1.372 . S
C1855 C1856 1.400 . S
C1855 C1860 1.490 . S
C1856 H1846 0.930 . S
C1856 C1855 1.400 . S
C1856 C1859 1.386 . S
H1857 C1873 0.930 . S
H1858 C1874 0.931 . S
C1859 H1847 0.929 . S
C1859 C1853 1.390 . S
C1859 C1856 1.386 . S
C1860 C1855 1.490 . S
C1860 C1862 1.395 . S
C1860 C1863 1.403 . S
H1861 C1867 0.930 . S
C1862 H1848 0.930 . S
C1862 C1860 1.395 . S
C1862 C1865 1.403 . S
C1863 C1860 1.403 . S
C1863 C1864 1.524 . S
C1863 C1867 1.400 . S
C1864 H1849 0.960 . S
C1864 H1850 0.960 . S
C1864 H1851 0.960 . S
C1864 C1863 1.524 . S
C1865 C1862 1.403 . S
C1865 C1866 1.392 . S
C1865 C1869 1.495 . S
C1866 C1865 1.392 . S
C1866 C1867 1.385 . S
C1866 C1868 1.478 . S
C1867 H1861 0.930 . S
C1867 C1863 1.400 . S
C1867 C1866 1.385 . S
C1868 C1866 1.478 . S
C1868 C1870 1.381 . S
C1868 C1874 1.383 . S
C1869 C1865 1.495 . S
C1869 H1875 0.959 . S
C1869 H1876 0.961 . S
C1869 H1877 0.960 . S
C1870 C1868 1.381 . S
C1870 C1871 1.394 . S
C1870 H1878 0.930 . S
C1871 C1870 1.394 . S
C1871 C1872 1.383 . S
C1871 H1879 0.929 . S
C1872 C1871 1.383 . S
C1872 C1873 1.377 . S
C1873 H1857 0.930 . S
C1873 C1872 1.377 . S
C1873 C1874 1.379 . S
C1874 H1858 0.931 . S
C1874 C1868 1.383 . S
C1874 C1873 1.379 . S
H1875 C1869 0.959 . S
H1876 C1869 0.961 . S
H1877 C1869 0.960 . S
H1878 C1870 0.930 . S
H1879 C1871 0.929 . S
H1880 C1888 0.929 . S
H1881 C1890 0.930 . S
H1882 C1892 0.930 . S
H1883 C1895 0.929 . S
H1884 C1898 0.930 . S
H1885 C1900 0.960 . S
H1886 C1900 0.960 . S
H1887 C1900 0.960 . S
C1888 H1880 0.929 . S
C1888 C1889 1.377 . S
C1888 C1890 1.384 . S
C1889 C1888 1.377 . S
C1889 C1895 1.390 . S
C1890 H1881 0.930 . S
C1890 C1888 1.384 . S
C1890 C1891 1.372 . S
C1891 C1890 1.372 . S
C1891 C1892 1.400 . S
C1891 C1896 1.490 . S
C1892 H1882 0.930 . S
C1892 C1891 1.400 . S
C1892 C1895 1.386 . S
H1893 C1909 0.930 . S
H1894 C1910 0.931 . S
C1895 H1883 0.929 . S
C1895 C1889 1.390 . S
C1895 C1892 1.386 . S
C1896 C1891 1.490 . S
C1896 C1898 1.395 . S
C1896 C1899 1.403 . S
H1897 C1903 0.930 . S
C1898 H1884 0.930 . S
C1898 C1896 1.395 . S
C1898 C1901 1.403 . S
C1899 C1896 1.403 . S
C1899 C1900 1.524 . S
C1899 C1903 1.400 . S
C1900 H1885 0.960 . S
C1900 H1886 0.960 . S
C1900 H1887 0.960 . S
C1900 C1899 1.524 . S
C1901 C1898 1.403 . S
C1901 C1902 1.392 . S
C1901 C1905 1.495 . S
C1902 C1901 1.392 . S
C1902 C1903 1.385 . S
C1902 C1904 1.478 . S
C1903 H1897 0.930 . S
C1903 C1899 1.400 . S
C1903 C1902 1.385 . S
C1904 C1902 1.478 . S
C1904 C1906 1.381 . S
C1904 C1910 1.383 . S
C1905 C1901 1.495 . S
C1905 H1911 0.959 . S
C1905 H1912 0.961 . S
C1905 H1913 0.960 . S
C1906 C1904 1.381 . S
C1906 C1907 1.394 . S
C1906 H1914 0.930 . S
C1907 C1906 1.394 . S
C1907 C1908 1.383 . S
C1907 H1915 0.929 . S
C1908 C1907 1.383 . S
C1908 C1909 1.377 . S
C1909 H1893 0.930 . S
C1909 C1908 1.377 . S
C1909 C1910 1.379 . S
C1910 H1894 0.931 . S
C1910 C1904 1.383 . S
C1910 C1909 1.379 . S
H1911 C1905 0.959 . S
H1912 C1905 0.961 . S
H1913 C1905 0.960 . S
H1914 C1906 0.930 . S
H1915 C1907 0.929 . S
H1916 C1924 0.929 . S
H1917 C1926 0.930 . S
H1918 C1928 0.930 . S
H1919 C1931 0.929 . S
H1920 C1934 0.930 . S
H1921 C1936 0.965 . S
H1922 C1936 0.960 . S
H1923 C1936 0.960 . S
C1924 H1916 0.929 . S
C1924 C1925 1.377 . S
C1924 C1926 1.384 . S
C1925 C1924 1.377 . S
C1925 C1931 1.390 . S
C1926 H1917 0.930 . S
C1926 C1924 1.384 . S
C1926 C1927 1.372 . S
C1927 C1926 1.372 . S
C1927 C1928 1.400 . S
C1927 C1932 1.490 . S
C1928 H1918 0.930 . S
C1928 C1927 1.400 . S
C1928 C1931 1.386 . S
H1929 C1945 0.930 . S
H1930 C1946 0.931 . S
C1931 H1919 0.929 . S
C1931 C1925 1.390 . S
C1931 C1928 1.386 . S
C1932 C1927 1.490 . S
C1932 C1934 1.395 . S
C1932 C1935 1.403 . S
H1933 C1939 0.930 . S
C1934 H1920 0.930 . S
C1934 C1932 1.395 . S
C1934 C1937 1.403 1_655 S
C1935 C1932 1.403 . S
C1935 C1936 1.524 . S
C1935 C1939 1.400 1_655 S
C1936 H1921 0.965 . S
C1936 H1922 0.960 . S
C1936 H1923 0.960 . S
C1936 C1935 1.524 . S
C1937 C1934 1.403 1_455 S
C1937 C1938 1.392 . S
C1937 C1941 1.495 . S
C1938 C1937 1.392 . S
C1938 C1939 1.385 . S
C1938 C1940 1.478 . S
C1939 H1933 0.930 . S
C1939 C1935 1.400 1_455 S
C1939 C1938 1.385 . S
C1940 C1938 1.478 . S
C1940 C1942 1.381 . S
C1940 C1946 1.383 . S
C1941 C1937 1.495 . S
C1941 H1947 0.959 . S
C1941 H1948 0.961 . S
C1941 H1949 0.960 . S
C1942 C1940 1.381 . S
C1942 C1943 1.394 . S
C1942 H1950 0.930 . S
C1943 C1942 1.394 . S
C1943 C1944 1.383 . S
C1943 H1951 0.929 . S
C1944 C1943 1.383 . S
C1944 C1945 1.377 . S
C1945 H1929 0.930 . S
C1945 C1944 1.377 . S
C1945 C1946 1.379 . S
C1946 H1930 0.931 . S
C1946 C1940 1.383 . S
C1946 C1945 1.379 . S
H1947 C1941 0.959 . S
H1948 C1941 0.961 . S
H1949 C1941 0.960 . S
H1950 C1942 0.930 . S
H1951 C1943 0.929 . S
H1952 C1960 0.929 . S
H1953 C1962 0.930 . S
H1954 C1964 0.930 . S
H1955 C1967 0.929 . S
H1956 C1970 0.930 . S
H1957 C1972 0.960 . S
H1958 C1972 0.960 . S
H1959 C1972 0.960 . S
C1960 H1952 0.929 . S
C1960 C1961 1.377 . S
C1960 C1962 1.384 . S
C1961 C1960 1.377 . S
C1961 C1967 1.390 . S
C1962 H1953 0.930 . S
C1962 C1960 1.384 . S
C1962 C1963 1.372 . S
C1963 C1962 1.372 . S
C1963 C1964 1.400 . S
C1963 C1968 1.490 . S
C1964 H1954 0.930 . S
C1964 C1963 1.400 . S
C1964 C1967 1.386 . S
H1965 C1981 0.930 . S
H1966 C1982 0.931 . S
C1967 H1955 0.929 . S
C1967 C1961 1.390 . S
C1967 C1964 1.386 . S
C1968 C1963 1.490 . S
C1968 C1970 1.395 . S
C1968 C1971 1.403 . S
H1969 C1975 0.930 . S
C1970 H1956 0.930 . S
C1970 C1968 1.395 . S
C1970 C1973 1.403 . S
C1971 C1968 1.403 . S
C1971 C1972 1.524 . S
C1971 C1975 1.400 . S
C1972 H1957 0.960 . S
C1972 H1958 0.960 . S
C1972 H1959 0.960 . S
C1972 C1971 1.524 . S
C1973 C1970 1.403 . S
C1973 C1974 1.392 . S
C1973 C1977 1.495 . S
C1974 C1973 1.392 . S
C1974 C1975 1.385 . S
C1974 C1976 1.478 . S
C1975 H1969 0.930 . S
C1975 C1971 1.400 . S
C1975 C1974 1.385 . S
C1976 C1974 1.478 . S
C1976 C1978 1.381 . S
C1976 C1982 1.383 . S
C1977 C1973 1.495 . S
C1977 H1983 0.959 . S
C1977 H1984 0.961 . S
C1977 H1985 0.960 . S
C1978 C1976 1.381 . S
C1978 C1979 1.394 . S
C1978 H1986 0.930 . S
C1979 C1978 1.394 . S
C1979 C1980 1.383 . S
C1979 H1987 0.929 . S
C1980 C1979 1.383 . S
C1980 C1981 1.377 . S
C1981 H1965 0.930 . S
C1981 C1980 1.377 . S
C1981 C1982 1.379 . S
C1982 H1966 0.931 . S
C1982 C1976 1.383 . S
C1982 C1981 1.379 . S
H1983 C1977 0.959 . S
H1984 C1977 0.961 . S
H1985 C1977 0.960 . S
H1986 C1978 0.930 . S
H1987 C1979 0.929 . S
H1988 C1996 0.929 . S
H1989 C1998 0.930 . S
H1990 C2000 0.930 . S
H1991 C2003 0.929 . S
H1992 C2006 0.930 . S
H1993 C2008 0.960 . S
H1994 C2008 0.960 . S
H1995 C2008 0.960 . S
C1996 H1988 0.929 . S
C1996 C1997 1.377 . S
C1996 C1998 1.384 . S
C1997 C1996 1.377 . S
C1997 C2003 1.390 . S
C1998 H1989 0.930 . S
C1998 C1996 1.384 . S
C1998 C1999 1.372 . S
C1999 C1998 1.372 . S
C1999 C2000 1.400 . S
C1999 C2004 1.490 . S
C2000 H1990 0.930 . S
C2000 C1999 1.400 . S
C2000 C2003 1.386 . S
H2001 C2017 0.930 . S
H2002 C2018 0.931 . S
C2003 H1991 0.929 . S
C2003 C1997 1.390 . S
C2003 C2000 1.386 . S
C2004 C1999 1.490 . S
C2004 C2006 1.395 1_455 S
C2004 C2007 1.403 . S
H2005 C2011 0.934 . S
C2006 H1992 0.930 . S
C2006 C2004 1.395 1_655 S
C2006 C2009 1.403 . S
C2007 C2004 1.403 . S
C2007 C2008 1.524 . S
C2007 C2011 1.416 . S
C2008 H1993 0.960 . S
C2008 H1994 0.960 . S
C2008 H1995 0.960 . S
C2008 C2007 1.524 . S
C2009 C2006 1.403 . S
C2009 C2010 1.392 . S
C2009 C2013 1.495 . S
C2010 C2009 1.392 . S
C2010 C2011 1.366 1_655 S
C2010 C2012 1.478 . S
C2011 H2005 0.934 . S
C2011 C2007 1.416 . S
C2011 C2010 1.366 1_455 S
C2012 C2010 1.478 . S
C2012 C2014 1.381 . S
C2012 C2018 1.383 . S
C2013 C2009 1.495 . S
C2013 H2019 0.959 . S
C2013 H2020 0.961 . S
C2013 H2021 0.960 . S
C2014 C2012 1.381 . S
C2014 C2015 1.394 . S
C2014 H2022 0.930 . S
C2015 C2014 1.394 . S
C2015 C2016 1.383 . S
C2015 H2023 0.929 . S
C2016 C2015 1.383 . S
C2016 C2017 1.377 . S
C2017 H2001 0.930 . S
C2017 C2016 1.377 . S
C2017 C2018 1.379 . S
C2018 H2002 0.931 . S
C2018 C2012 1.383 . S
C2018 C2017 1.379 . S
H2019 C2013 0.959 . S
H2020 C2013 0.961 . S
H2021 C2013 0.960 . S
H2022 C2014 0.930 . S
H2023 C2015 0.929 . S
H2024 C2032 0.929 . S
H2025 C2034 0.930 . S
H2026 C2036 0.930 . S
H2027 C2039 0.929 . S
H2028 C2042 0.930 . S
H2029 C2044 0.960 . S
H2030 C2044 0.960 . S
H2031 C2044 0.960 . S
C2032 H2024 0.929 . S
C2032 C2033 1.377 . S
C2032 C2034 1.384 . S
C2033 C2032 1.377 . S
C2033 C2039 1.390 . S
C2034 H2025 0.930 . S
C2034 C2032 1.384 . S
C2034 C2035 1.372 . S
C2035 C2034 1.372 . S
C2035 C2036 1.400 . S
C2035 C2040 1.490 . S
C2036 H2026 0.930 . S
C2036 C2035 1.400 . S
C2036 C2039 1.386 . S
H2037 C2053 0.930 . S
H2038 C2054 0.931 . S
C2039 H2027 0.929 . S
C2039 C2033 1.390 . S
C2039 C2036 1.386 . S
C2040 C2035 1.490 . S
C2040 C2042 1.395 . S
C2040 C2043 1.403 . S
H2041 C2047 0.930 . S
C2042 H2028 0.930 . S
C2042 C2040 1.395 . S
C2042 C2045 1.403 . S
C2043 C2040 1.403 . S
C2043 C2044 1.524 . S
C2043 C2047 1.400 . S
C2044 H2029 0.960 . S
C2044 H2030 0.960 . S
C2044 H2031 0.960 . S
C2044 C2043 1.524 . S
C2045 C2042 1.403 . S
C2045 C2046 1.392 . S
C2045 C2049 1.495 . S
C2046 C2045 1.392 . S
C2046 C2047 1.385 . S
C2046 C2048 1.478 . S
C2047 H2041 0.930 . S
C2047 C2043 1.400 . S
C2047 C2046 1.385 . S
C2048 C2046 1.478 . S
C2048 C2050 1.381 . S
C2048 C2054 1.383 . S
C2049 C2045 1.495 . S
C2049 H2055 0.959 . S
C2049 H2056 0.961 . S
C2049 H2057 0.960 . S
C2050 C2048 1.381 . S
C2050 C2051 1.394 . S
C2050 H2058 0.930 . S
C2051 C2050 1.394 . S
C2051 C2052 1.383 . S
C2051 H2059 0.929 . S
C2052 C2051 1.383 . S
C2052 C2053 1.377 . S
C2053 H2037 0.930 . S
C2053 C2052 1.377 . S
C2053 C2054 1.379 . S
C2054 H2038 0.931 . S
C2054 C2048 1.383 . S
C2054 C2053 1.379 . S
H2055 C2049 0.959 . S
H2056 C2049 0.961 . S
H2057 C2049 0.960 . S
H2058 C2050 0.930 . S
H2059 C2051 0.929 . S
H2060 C2068 0.929 . S
H2061 C2070 0.930 . S
H2062 C2072 0.930 . S
H2063 C2075 0.929 . S
H2064 C2078 0.930 . S
H2065 C2080 0.960 . S
H2066 C2080 0.960 . S
H2067 C2080 0.960 . S
C2068 H2060 0.929 . S
C2068 C2069 1.377 . S
C2068 C2070 1.384 . S
C2069 C2068 1.377 . S
C2069 C2075 1.390 . S
C2070 H2061 0.930 . S
C2070 C2068 1.384 . S
C2070 C2071 1.372 . S
C2071 C2070 1.372 . S
C2071 C2072 1.400 . S
C2071 C2076 1.490 . S
C2072 H2062 0.930 . S
C2072 C2071 1.400 . S
C2072 C2075 1.386 . S
H2073 C2089 0.930 . S
H2074 C2090 0.931 . S
C2075 H2063 0.929 . S
C2075 C2069 1.390 . S
C2075 C2072 1.386 . S
C2076 C2071 1.490 . S
C2076 C2078 1.395 . S
C2076 C2079 1.403 . S
H2077 C2083 0.930 . S
C2078 H2064 0.930 . S
C2078 C2076 1.395 . S
C2078 C2081 1.403 . S
C2079 C2076 1.403 . S
C2079 C2080 1.524 . S
C2079 C2083 1.400 . S
C2080 H2065 0.960 . S
C2080 H2066 0.960 . S
C2080 H2067 0.960 . S
C2080 C2079 1.524 . S
C2081 C2078 1.403 . S
C2081 C2082 1.392 . S
C2081 C2085 1.495 . S
C2082 C2081 1.392 . S
C2082 C2083 1.385 . S
C2082 C2084 1.478 . S
C2083 H2077 0.930 . S
C2083 C2079 1.400 . S
C2083 C2082 1.385 . S
C2084 C2082 1.478 . S
C2084 C2086 1.381 . S
C2084 C2090 1.383 . S
C2085 C2081 1.495 . S
C2085 H2091 0.959 . S
C2085 H2092 0.961 . S
C2085 H2093 0.960 . S
C2086 C2084 1.381 . S
C2086 C2087 1.394 . S
C2086 H2094 0.930 . S
C2087 C2086 1.394 . S
C2087 C2088 1.383 . S
C2087 H2095 0.929 . S
C2088 C2087 1.383 . S
C2088 C2089 1.377 . S
C2089 H2073 0.930 . S
C2089 C2088 1.377 . S
C2089 C2090 1.379 . S
C2090 H2074 0.931 . S
C2090 C2084 1.383 . S
C2090 C2089 1.379 . S
H2091 C2085 0.959 . S
H2092 C2085 0.961 . S
H2093 C2085 0.960 . S
H2094 C2086 0.930 . S
H2095 C2087 0.929 . S
H2096 C2104 0.929 . S
H2097 C2106 0.930 . S
H2098 C2108 0.930 . S
H2099 C2111 0.929 . S
H2100 C2114 0.930 . S
H2101 C2116 0.960 . S
H2102 C2116 0.960 . S
H2103 C2116 0.960 . S
C2104 H2096 0.929 . S
C2104 C2105 1.377 . S
C2104 C2106 1.384 . S
C2105 C2104 1.377 . S
C2105 C2111 1.390 . S
C2106 H2097 0.930 . S
C2106 C2104 1.384 . S
C2106 C2107 1.372 . S
C2107 C2106 1.372 . S
C2107 C2108 1.400 . S
C2107 C2112 1.490 . S
C2108 H2098 0.930 . S
C2108 C2107 1.400 . S
C2108 C2111 1.386 . S
H2109 C2125 0.930 . S
H2110 C2126 0.931 . S
C2111 H2099 0.929 . S
C2111 C2105 1.390 . S
C2111 C2108 1.386 . S
C2112 C2107 1.490 . S
C2112 C2114 1.395 . S
C2112 C2115 1.403 . S
H2113 C2119 0.930 . S
C2114 H2100 0.930 . S
C2114 C2112 1.395 . S
C2114 C2117 1.403 . S
C2115 C2112 1.403 . S
C2115 C2116 1.524 . S
C2115 C2119 1.400 . S
C2116 H2101 0.960 . S
C2116 H2102 0.960 . S
C2116 H2103 0.960 . S
C2116 C2115 1.524 . S
C2117 C2114 1.403 . S
C2117 C2118 1.392 . S
C2117 C2121 1.495 . S
C2118 C2117 1.392 . S
C2118 C2119 1.385 . S
C2118 C2120 1.478 . S
C2119 H2113 0.930 . S
C2119 C2115 1.400 . S
C2119 C2118 1.385 . S
C2120 C2118 1.478 . S
C2120 C2122 1.381 . S
C2120 C2126 1.383 . S
C2121 C2117 1.495 . S
C2121 H2127 0.959 . S
C2121 H2128 0.961 . S
C2121 H2129 0.960 . S
C2122 C2120 1.381 . S
C2122 C2123 1.394 . S
C2122 H2130 0.930 . S
C2123 C2122 1.394 . S
C2123 C2124 1.383 . S
C2123 H2131 0.929 . S
C2124 C2123 1.383 . S
C2124 C2125 1.377 . S
C2125 H2109 0.930 . S
C2125 C2124 1.377 . S
C2125 C2126 1.379 . S
C2126 H2110 0.931 . S
C2126 C2120 1.383 . S
C2126 C2125 1.379 . S
H2127 C2121 0.959 . S
H2128 C2121 0.961 . S
H2129 C2121 0.960 . S
H2130 C2122 0.930 . S
H2131 C2123 0.929 . S
H2132 C2140 0.929 . S
H2133 C2142 0.930 . S
H2134 C2144 0.930 . S
H2135 C2147 0.929 . S
H2136 C2150 0.930 . S
H2137 C2152 0.960 . S
H2138 C2152 0.960 . S
H2139 C2152 0.960 . S
C2140 H2132 0.929 . S
C2140 C2141 1.377 . S
C2140 C2142 1.384 . S
C2141 C2140 1.377 . S
C2141 C2147 1.390 . S
C2142 H2133 0.930 . S
C2142 C2140 1.384 . S
C2142 C2143 1.372 . S
C2143 C2142 1.372 . S
C2143 C2144 1.400 . S
C2143 C2148 1.490 . S
C2144 H2134 0.930 . S
C2144 C2143 1.400 . S
C2144 C2147 1.386 . S
H2145 C2161 0.930 . S
H2146 C2162 0.931 . S
C2147 H2135 0.929 . S
C2147 C2141 1.390 . S
C2147 C2144 1.386 . S
C2148 C2143 1.490 . S
C2148 C2150 1.395 . S
C2148 C2151 1.403 . S
H2149 C2155 0.930 . S
C2150 H2136 0.930 . S
C2150 C2148 1.395 . S
C2150 C2153 1.403 . S
C2151 C2148 1.403 . S
C2151 C2152 1.524 . S
C2151 C2155 1.400 . S
C2152 H2137 0.960 . S
C2152 H2138 0.960 . S
C2152 H2139 0.960 . S
C2152 C2151 1.524 . S
C2153 C2150 1.403 . S
C2153 C2154 1.392 . S
C2153 C2157 1.495 . S
C2154 C2153 1.392 . S
C2154 C2155 1.385 . S
C2154 C2156 1.478 . S
C2155 H2149 0.930 . S
C2155 C2151 1.400 . S
C2155 C2154 1.385 . S
C2156 C2154 1.478 . S
C2156 C2158 1.381 . S
C2156 C2162 1.383 . S
C2157 C2153 1.495 . S
C2157 H2163 0.959 . S
C2157 H2164 0.961 . S
C2157 H2165 0.960 . S
C2158 C2156 1.381 . S
C2158 C2159 1.394 . S
C2158 H2166 0.930 . S
C2159 C2158 1.394 . S
C2159 C2160 1.383 . S
C2159 H2167 0.929 . S
C2160 C2159 1.383 . S
C2160 C2161 1.377 . S
C2161 H2145 0.930 . S
C2161 C2160 1.377 . S
C2161 C2162 1.379 . S
C2162 H2146 0.931 . S
C2162 C2156 1.383 . S
C2162 C2161 1.379 . S
H2163 C2157 0.959 . S
H2164 C2157 0.961 . S
H2165 C2157 0.960 . S
H2166 C2158 0.930 . S
H2167 C2159 0.929 . S
H2168 C2176 0.929 . S
H2169 C2178 0.930 . S
H2170 C2180 0.930 . S
H2171 C2183 0.929 . S
H2172 C2186 0.930 . S
H2173 C2188 0.960 . S
H2174 C2188 0.960 . S
H2175 C2188 0.960 . S
C2176 H2168 0.929 . S
C2176 C2177 1.377 . S
C2176 C2178 1.384 . S
C2177 C2176 1.377 . S
C2177 C2183 1.390 . S
C2178 H2169 0.930 . S
C2178 C2176 1.384 . S
C2178 C2179 1.372 . S
C2179 C2178 1.372 . S
C2179 C2180 1.400 . S
C2179 C2184 1.490 . S
C2180 H2170 0.930 . S
C2180 C2179 1.400 . S
C2180 C2183 1.386 . S
H2181 C2197 0.930 . S
H2182 C2198 0.931 . S
C2183 H2171 0.929 . S
C2183 C2177 1.390 . S
C2183 C2180 1.386 . S
C2184 C2179 1.490 . S
C2184 C2186 1.395 . S
C2184 C2187 1.403 . S
H2185 C2191 0.930 . S
C2186 H2172 0.930 . S
C2186 C2184 1.395 . S
C2186 C2189 1.403 . S
C2187 C2184 1.403 . S
C2187 C2188 1.524 . S
C2187 C2191 1.400 . S
C2188 H2173 0.960 . S
C2188 H2174 0.960 . S
C2188 H2175 0.960 . S
C2188 C2187 1.524 . S
C2189 C2186 1.403 . S
C2189 C2190 1.392 . S
C2189 C2193 1.495 . S
C2190 C2189 1.392 . S
C2190 C2191 1.385 . S
C2190 C2192 1.478 . S
C2191 H2185 0.930 . S
C2191 C2187 1.400 . S
C2191 C2190 1.385 . S
C2192 C2190 1.478 . S
C2192 C2194 1.381 . S
C2192 C2198 1.383 . S
C2193 C2189 1.495 . S
C2193 H2199 0.959 . S
C2193 H2200 0.961 . S
C2193 H2201 0.960 . S
C2194 C2192 1.381 . S
C2194 C2195 1.394 . S
C2194 H2202 0.930 . S
C2195 C2194 1.394 . S
C2195 C2196 1.383 . S
C2195 H2203 0.929 . S
C2196 C2195 1.383 . S
C2196 C2197 1.377 . S
C2197 H2181 0.930 . S
C2197 C2196 1.377 . S
C2197 C2198 1.379 . S
C2198 H2182 0.931 . S
C2198 C2192 1.383 . S
C2198 C2197 1.379 . S
H2199 C2193 0.959 . S
H2200 C2193 0.961 . S
H2201 C2193 0.960 . S
H2202 C2194 0.930 . S
H2203 C2195 0.929 . S
H2204 C2212 0.929 . S
H2205 C2214 0.930 . S
H2206 C2216 0.930 . S
H2207 C2219 0.929 . S
H2208 C2222 0.930 . S
H2209 C2224 0.960 1_455 S
H2210 C2224 0.960 . S
H2211 C2224 0.961 . S
C2212 H2204 0.929 . S
C2212 C2213 1.377 . S
C2212 C2214 1.384 . S
C2213 C2212 1.377 . S
C2213 C2219 1.390 . S
C2214 H2205 0.930 . S
C2214 C2212 1.384 . S
C2214 C2215 1.372 . S
C2215 C2214 1.372 . S
C2215 C2216 1.400 . S
C2215 C2220 1.490 . S
C2216 H2206 0.930 . S
C2216 C2215 1.400 . S
C2216 C2219 1.386 . S
H2217 C2233 0.930 . S
H2218 C2234 0.931 . S
C2219 H2207 0.929 . S
C2219 C2213 1.390 . S
C2219 C2216 1.386 . S
C2220 C2215 1.490 . S
C2220 C2222 1.395 . S
C2220 C2223 1.403 . S
H2221 C2227 0.930 . S
C2222 H2208 0.930 . S
C2222 C2220 1.395 . S
C2222 C2225 1.403 . S
C2223 C2220 1.403 . S
C2223 C2224 1.524 . S
C2223 C2227 1.400 1_655 S
C2224 H2209 0.960 1_655 S
C2224 H2210 0.960 . S
C2224 H2211 0.961 . S
C2224 C2223 1.524 . S
C2225 C2222 1.403 . S
C2225 C2226 1.392 1_655 S
C2225 C2229 1.495 . S
C2226 C2225 1.392 1_455 S
C2226 C2227 1.385 . S
C2226 C2228 1.478 . S
C2227 H2221 0.930 . S
C2227 C2223 1.400 1_455 S
C2227 C2226 1.385 . S
C2228 C2226 1.478 . S
C2228 C2230 1.381 . S
C2228 C2234 1.383 . S
C2229 C2225 1.495 . S
C2229 H2235 0.959 . S
C2229 H2236 0.961 1_655 S
C2229 H2237 0.960 . S
C2230 C2228 1.381 . S
C2230 C2231 1.394 . S
C2230 H2238 0.930 . S
C2231 C2230 1.394 . S
C2231 C2232 1.383 . S
C2231 H2239 0.929 . S
C2232 C2231 1.383 . S
C2232 C2233 1.377 . S
C2233 H2217 0.930 . S
C2233 C2232 1.377 . S
C2233 C2234 1.379 . S
C2234 H2218 0.931 . S
C2234 C2228 1.383 . S
C2234 C2233 1.379 . S
H2235 C2229 0.959 . S
H2236 C2229 0.961 1_455 S
H2237 C2229 0.960 . S
H2238 C2230 0.930 . S
H2239 C2231 0.929 . S
H2240 C2248 0.929 . S
H2241 C2250 0.930 . S
H2242 C2252 0.930 . S
H2243 C2255 0.929 . S
H2244 C2258 0.930 . S
H2245 C2260 0.960 . S
H2246 C2260 0.960 . S
H2247 C2260 0.960 . S
C2248 H2240 0.929 . S
C2248 C2249 1.377 . S
C2248 C2250 1.384 . S
C2249 C2248 1.377 . S
C2249 C2255 1.390 . S
C2250 H2241 0.930 . S
C2250 C2248 1.384 . S
C2250 C2251 1.372 . S
C2251 C2250 1.372 . S
C2251 C2252 1.400 . S
C2251 C2256 1.490 . S
C2252 H2242 0.930 . S
C2252 C2251 1.400 . S
C2252 C2255 1.386 . S
H2253 C2269 0.930 . S
H2254 C2270 0.931 . S
C2255 H2243 0.929 . S
C2255 C2249 1.390 . S
C2255 C2252 1.386 . S
C2256 C2251 1.490 . S
C2256 C2258 1.395 . S
C2256 C2259 1.403 . S
H2257 C2263 0.930 . S
C2258 H2244 0.930 . S
C2258 C2256 1.395 . S
C2258 C2261 1.403 . S
C2259 C2256 1.403 . S
C2259 C2260 1.524 . S
C2259 C2263 1.400 . S
C2260 H2245 0.960 . S
C2260 H2246 0.960 . S
C2260 H2247 0.960 . S
C2260 C2259 1.524 . S
C2261 C2258 1.403 . S
C2261 C2262 1.392 . S
C2261 C2265 1.495 . S
C2262 C2261 1.392 . S
C2262 C2263 1.385 . S
C2262 C2264 1.478 . S
C2263 H2257 0.930 . S
C2263 C2259 1.400 . S
C2263 C2262 1.385 . S
C2264 C2262 1.478 . S
C2264 C2266 1.381 . S
C2264 C2270 1.383 . S
C2265 C2261 1.495 . S
C2265 H2271 0.959 . S
C2265 H2272 0.961 . S
C2265 H2273 0.960 . S
C2266 C2264 1.381 . S
C2266 C2267 1.394 . S
C2266 H2274 0.930 . S
C2267 C2266 1.394 . S
C2267 C2268 1.383 . S
C2267 H2275 0.929 . S
C2268 C2267 1.383 . S
C2268 C2269 1.377 . S
C2269 H2253 0.930 . S
C2269 C2268 1.377 . S
C2269 C2270 1.379 . S
C2270 H2254 0.931 . S
C2270 C2264 1.383 . S
C2270 C2269 1.379 . S
H2271 C2265 0.959 . S
H2272 C2265 0.961 . S
H2273 C2265 0.960 . S
H2274 C2266 0.930 . S
H2275 C2267 0.929 . S
H2276 C2284 0.929 . S
H2277 C2286 0.930 . S
H2278 C2288 0.930 . S
H2279 C2291 0.929 . S
H2280 C2294 0.930 . S
H2281 C2296 0.960 . S
H2282 C2296 0.960 . S
H2283 C2296 0.960 . S
C2284 H2276 0.929 . S
C2284 C2285 1.377 . S
C2284 C2286 1.384 . S
C2285 C2284 1.377 . S
C2285 C2291 1.390 . S
C2286 H2277 0.930 . S
C2286 C2284 1.384 . S
C2286 C2287 1.372 . S
C2287 C2286 1.372 . S
C2287 C2288 1.400 . S
C2287 C2292 1.490 . S
C2288 H2278 0.930 . S
C2288 C2287 1.400 . S
C2288 C2291 1.386 . S
H2289 C2305 0.930 . S
H2290 C2306 0.931 . S
C2291 H2279 0.929 . S
C2291 C2285 1.390 . S
C2291 C2288 1.386 . S
C2292 C2287 1.490 . S
C2292 C2294 1.395 . S
C2292 C2295 1.403 . S
H2293 C2299 0.930 . S
C2294 H2280 0.930 . S
C2294 C2292 1.395 . S
C2294 C2297 1.403 . S
C2295 C2292 1.403 . S
C2295 C2296 1.524 . S
C2295 C2299 1.400 . S
C2296 H2281 0.960 . S
C2296 H2282 0.960 . S
C2296 H2283 0.960 . S
C2296 C2295 1.524 . S
C2297 C2294 1.403 . S
C2297 C2298 1.392 . S
C2297 C2301 1.495 . S
C2298 C2297 1.392 . S
C2298 C2299 1.385 . S
C2298 C2300 1.478 . S
C2299 H2293 0.930 . S
C2299 C2295 1.400 . S
C2299 C2298 1.385 . S
C2300 C2298 1.478 . S
C2300 C2302 1.381 . S
C2300 C2306 1.383 . S
C2301 C2297 1.495 . S
C2301 H2307 0.959 . S
C2301 H2308 0.961 . S
C2301 H2309 0.960 . S
C2302 C2300 1.381 . S
C2302 C2303 1.394 . S
C2302 H2310 0.930 . S
C2303 C2302 1.394 . S
C2303 C2304 1.383 . S
C2303 H2311 0.929 . S
C2304 C2303 1.383 . S
C2304 C2305 1.377 . S
C2305 H2289 0.930 . S
C2305 C2304 1.377 . S
C2305 C2306 1.379 . S
C2306 H2290 0.931 . S
C2306 C2300 1.383 . S
C2306 C2305 1.379 . S
H2307 C2301 0.959 . S
H2308 C2301 0.961 . S
H2309 C2301 0.960 . S
H2310 C2302 0.930 . S
H2311 C2303 0.929 . S
H2312 C2320 0.929 . S
H2313 C2322 0.930 . S
H2314 C2324 0.930 . S
H2315 C2327 0.929 . S
H2316 C2330 0.930 . S
H2317 C2332 0.960 . S
H2318 C2332 0.960 . S
H2319 C2332 0.960 . S
C2320 H2312 0.929 . S
C2320 C2321 1.377 . S
C2320 C2322 1.384 . S
C2321 C2320 1.377 . S
C2321 C2327 1.390 . S
C2322 H2313 0.930 . S
C2322 C2320 1.384 . S
C2322 C2323 1.372 . S
C2323 C2322 1.372 . S
C2323 C2324 1.400 . S
C2323 C2328 1.490 . S
C2324 H2314 0.930 . S
C2324 C2323 1.400 . S
C2324 C2327 1.386 . S
H2325 C2341 0.930 . S
H2326 C2342 0.931 . S
C2327 H2315 0.929 . S
C2327 C2321 1.390 . S
C2327 C2324 1.386 . S
C2328 C2323 1.490 . S
C2328 C2330 1.395 . S
C2328 C2331 1.403 . S
H2329 C2335 0.930 . S
C2330 H2316 0.930 . S
C2330 C2328 1.395 . S
C2330 C2333 1.403 . S
C2331 C2328 1.403 . S
C2331 C2332 1.524 . S
C2331 C2335 1.400 . S
C2332 H2317 0.960 . S
C2332 H2318 0.960 . S
C2332 H2319 0.960 . S
C2332 C2331 1.524 . S
C2333 C2330 1.403 . S
C2333 C2334 1.392 . S
C2333 C2337 1.495 . S
C2334 C2333 1.392 . S
C2334 C2335 1.385 . S
C2334 C2336 1.478 . S
C2335 H2329 0.930 . S
C2335 C2331 1.400 . S
C2335 C2334 1.385 . S
C2336 C2334 1.478 . S
C2336 C2338 1.381 . S
C2336 C2342 1.383 . S
C2337 C2333 1.495 . S
C2337 H2343 0.959 . S
C2337 H2344 0.961 . S
C2337 H2345 0.960 . S
C2338 C2336 1.381 . S
C2338 C2339 1.394 . S
C2338 H2346 0.930 . S
C2339 C2338 1.394 . S
C2339 C2340 1.383 . S
C2339 H2347 0.929 . S
C2340 C2339 1.383 . S
C2340 C2341 1.377 . S
C2341 H2325 0.930 . S
C2341 C2340 1.377 . S
C2341 C2342 1.379 . S
C2342 H2326 0.931 . S
C2342 C2336 1.383 . S
C2342 C2341 1.379 . S
H2343 C2337 0.959 . S
H2344 C2337 0.961 . S
H2345 C2337 0.960 . S
H2346 C2338 0.930 . S
H2347 C2339 0.929 . S
H2348 C2356 0.929 . S
H2349 C2358 0.930 . S
H2350 C2360 0.930 . S
H2351 C2363 0.929 . S
H2352 C2366 0.930 . S
H2353 C2368 0.960 . S
H2354 C2368 0.960 . S
H2355 C2368 0.960 . S
C2356 H2348 0.929 . S
C2356 C2357 1.377 . S
C2356 C2358 1.384 . S
C2357 C2356 1.377 . S
C2357 C2363 1.390 . S
C2358 H2349 0.930 . S
C2358 C2356 1.384 . S
C2358 C2359 1.372 . S
C2359 C2358 1.372 . S
C2359 C2360 1.400 . S
C2359 C2364 1.490 . S
C2360 H2350 0.930 . S
C2360 C2359 1.400 . S
C2360 C2363 1.386 . S
H2361 C2377 0.930 . S
H2362 C2378 0.931 . S
C2363 H2351 0.929 . S
C2363 C2357 1.390 . S
C2363 C2360 1.386 . S
C2364 C2359 1.490 . S
C2364 C2366 1.395 1_655 S
C2364 C2367 1.403 . S
H2365 C2371 0.930 . S
C2366 H2352 0.930 . S
C2366 C2364 1.395 1_455 S
C2366 C2369 1.403 . S
C2367 C2364 1.403 . S
C2367 C2368 1.524 . S
C2367 C2371 1.400 . S
C2368 H2353 0.960 . S
C2368 H2354 0.960 . S
C2368 H2355 0.960 . S
C2368 C2367 1.524 . S
C2369 C2366 1.403 . S
C2369 C2370 1.392 . S
C2369 C2373 1.495 . S
C2370 C2369 1.392 . S
C2370 C2371 1.385 1_455 S
C2370 C2372 1.478 . S
C2371 H2365 0.930 . S
C2371 C2367 1.400 . S
C2371 C2370 1.385 1_655 S
C2372 C2370 1.478 . S
C2372 C2374 1.381 . S
C2372 C2378 1.383 . S
C2373 C2369 1.495 . S
C2373 H2379 0.959 . S
C2373 H2380 0.961 . S
C2373 H2381 0.960 . S
C2374 C2372 1.381 . S
C2374 C2375 1.394 . S
C2374 H2382 0.930 . S
C2375 C2374 1.394 . S
C2375 C2376 1.383 . S
C2375 H2383 0.929 . S
C2376 C2375 1.383 . S
C2376 C2377 1.377 . S
C2377 H2361 0.930 . S
C2377 C2376 1.377 . S
C2377 C2378 1.379 . S
C2378 H2362 0.931 . S
C2378 C2372 1.383 . S
C2378 C2377 1.379 . S
H2379 C2373 0.959 . S
H2380 C2373 0.961 . S
H2381 C2373 0.960 . S
H2382 C2374 0.930 . S
H2383 C2375 0.929 . S
H2384 C2392 0.929 . S
H2385 C2394 0.930 . S
H2386 C2396 0.930 . S
H2387 C2399 0.929 . S
H2388 C2402 0.930 . S
H2389 C2404 0.960 . S
H2390 C2404 0.960 . S
H2391 C2404 0.960 . S
C2392 H2384 0.929 . S
C2392 C2393 1.377 . S
C2392 C2394 1.384 . S
C2393 C2392 1.377 . S
C2393 C2399 1.390 . S
C2394 H2385 0.930 . S
C2394 C2392 1.384 . S
C2394 C2395 1.372 . S
C2395 C2394 1.372 . S
C2395 C2396 1.400 . S
C2395 C2400 1.490 . S
C2396 H2386 0.930 . S
C2396 C2395 1.400 . S
C2396 C2399 1.386 . S
H2397 C2413 0.930 . S
H2398 C2414 0.931 . S
C2399 H2387 0.929 . S
C2399 C2393 1.390 . S
C2399 C2396 1.386 . S
C2400 C2395 1.490 . S
C2400 C2402 1.395 . S
C2400 C2403 1.403 . S
H2401 C2407 0.930 . S
C2402 H2388 0.930 . S
C2402 C2400 1.395 . S
C2402 C2405 1.403 . S
C2403 C2400 1.403 . S
C2403 C2404 1.524 . S
C2403 C2407 1.400 . S
C2404 H2389 0.960 . S
C2404 H2390 0.960 . S
C2404 H2391 0.960 . S
C2404 C2403 1.524 . S
C2405 C2402 1.403 . S
C2405 C2406 1.392 . S
C2405 C2409 1.495 . S
C2406 C2405 1.392 . S
C2406 C2407 1.385 . S
C2406 C2408 1.478 . S
C2407 H2401 0.930 . S
C2407 C2403 1.400 . S
C2407 C2406 1.385 . S
C2408 C2406 1.478 . S
C2408 C2410 1.381 . S
C2408 C2414 1.383 . S
C2409 C2405 1.495 . S
C2409 H2415 0.959 . S
C2409 H2416 0.961 . S
C2409 H2417 0.960 . S
C2410 C2408 1.381 . S
C2410 C2411 1.394 . S
C2410 H2418 0.930 . S
C2411 C2410 1.394 . S
C2411 C2412 1.383 . S
C2411 H2419 0.929 . S
C2412 C2411 1.383 . S
C2412 C2413 1.377 . S
C2413 H2397 0.930 . S
C2413 C2412 1.377 . S
C2413 C2414 1.379 . S
C2414 H2398 0.931 . S
C2414 C2408 1.383 . S
C2414 C2413 1.379 . S
H2415 C2409 0.959 . S
H2416 C2409 0.961 . S
H2417 C2409 0.960 . S
H2418 C2410 0.930 . S
H2419 C2411 0.929 . S
H2420 C2428 0.929 . S
H2421 C2430 0.930 . S
H2422 C2432 0.930 . S
H2423 C2435 0.929 . S
H2424 C2438 0.930 . S
H2425 C2440 1.003 . S
H2426 C2440 0.969 . S
H2427 C2440 0.915 1_655 S
C2428 H2420 0.929 . S
C2428 C2429 1.377 . S
C2428 C2430 1.384 . S
C2429 C2428 1.377 . S
C2429 C2435 1.390 . S
C2430 H2421 0.930 . S
C2430 C2428 1.384 . S
C2430 C2431 1.372 . S
C2431 C2430 1.372 . S
C2431 C2432 1.400 . S
C2431 C2436 1.490 . S
C2432 H2422 0.930 . S
C2432 C2431 1.400 . S
C2432 C2435 1.386 . S
H2433 C2449 0.930 . S
H2434 C2450 0.931 . S
C2435 H2423 0.929 . S
C2435 C2429 1.390 . S
C2435 C2432 1.386 . S
C2436 C2431 1.490 . S
C2436 C2438 1.395 . S
C2436 C2439 1.439 . S
H2437 C2443 0.930 . S
C2438 H2424 0.930 . S
C2438 C2436 1.395 . S
C2438 C2441 1.403 . S
C2439 C2436 1.439 . S
C2439 C2440 1.519 1_655 S
C2439 C2443 1.366 1_655 S
C2440 H2425 1.003 . S
C2440 H2426 0.969 . S
C2440 H2427 0.915 1_455 S
C2440 C2439 1.519 1_455 S
C2441 C2438 1.403 . S
C2441 C2442 1.392 1_655 S
C2441 C2445 1.495 . S
C2442 C2441 1.392 1_455 S
C2442 C2443 1.385 . S
C2442 C2444 1.478 . S
C2443 H2437 0.930 . S
C2443 C2439 1.366 1_455 S
C2443 C2442 1.385 . S
C2444 C2442 1.478 . S
C2444 C2446 1.381 . S
C2444 C2450 1.383 . S
C2445 C2441 1.495 . S
C2445 H2451 0.959 . S
C2445 H2452 0.961 . S
C2445 H2453 0.960 1_655 S
C2446 C2444 1.381 . S
C2446 C2447 1.394 . S
C2446 H2454 0.930 . S
C2447 C2446 1.394 . S
C2447 C2448 1.383 . S
C2447 H2455 0.929 . S
C2448 C2447 1.383 . S
C2448 C2449 1.377 . S
C2449 H2433 0.930 . S
C2449 C2448 1.377 . S
C2449 C2450 1.379 . S
C2450 H2434 0.931 . S
C2450 C2444 1.383 . S
C2450 C2449 1.379 . S
H2451 C2445 0.959 . S
H2452 C2445 0.961 . S
H2453 C2445 0.960 1_455 S
H2454 C2446 0.930 . S
H2455 C2447 0.929 . S
H2456 C2464 0.929 . S
H2457 C2466 0.930 . S
H2458 C2468 0.930 . S
H2459 C2471 0.929 . S
H2460 C2474 0.930 . S
H2461 C2476 0.960 . S
H2462 C2476 0.960 . S
H2463 C2476 0.960 . S
C2464 H2456 0.929 . S
C2464 C2465 1.377 . S
C2464 C2466 1.384 . S
C2465 C2464 1.377 . S
C2465 C2471 1.390 . S
C2466 H2457 0.930 . S
C2466 C2464 1.384 . S
C2466 C2467 1.372 . S
C2467 C2466 1.372 . S
C2467 C2468 1.400 . S
C2467 C2472 1.490 . S
C2468 H2458 0.930 . S
C2468 C2467 1.400 . S
C2468 C2471 1.386 . S
H2469 C2485 0.930 . S
H2470 C2486 0.931 . S
C2471 H2459 0.929 . S
C2471 C2465 1.390 . S
C2471 C2468 1.386 . S
C2472 C2467 1.490 . S
C2472 C2474 1.395 . S
C2472 C2475 1.403 . S
H2473 C2479 0.930 . S
C2474 H2460 0.930 . S
C2474 C2472 1.395 . S
C2474 C2477 1.403 . S
C2475 C2472 1.403 . S
C2475 C2476 1.524 . S
C2475 C2479 1.400 . S
C2476 H2461 0.960 . S
C2476 H2462 0.960 . S
C2476 H2463 0.960 . S
C2476 C2475 1.524 . S
C2477 C2474 1.403 . S
C2477 C2478 1.392 . S
C2477 C2481 1.495 . S
C2478 C2477 1.392 . S
C2478 C2479 1.385 . S
C2478 C2480 1.478 . S
C2479 H2473 0.930 . S
C2479 C2475 1.400 . S
C2479 C2478 1.385 . S
C2480 C2478 1.478 . S
C2480 C2482 1.381 . S
C2480 C2486 1.383 . S
C2481 C2477 1.495 . S
C2481 H2487 0.959 . S
C2481 H2488 0.961 . S
C2481 H2489 0.960 . S
C2482 C2480 1.381 . S
C2482 C2483 1.394 . S
C2482 H2490 0.930 . S
C2483 C2482 1.394 . S
C2483 C2484 1.383 . S
C2483 H2491 0.929 . S
C2484 C2483 1.383 . S
C2484 C2485 1.377 . S
C2485 H2469 0.930 . S
C2485 C2484 1.377 . S
C2485 C2486 1.379 . S
C2486 H2470 0.931 . S
C2486 C2480 1.383 . S
C2486 C2485 1.379 . S
H2487 C2481 0.959 . S
H2488 C2481 0.961 . S
H2489 C2481 0.960 . S
H2490 C2482 0.930 . S
H2491 C2483 0.929 . S
H2492 C2500 0.929 . S
H2493 C2502 0.930 . S
H2494 C2504 0.930 . S
H2495 C2507 0.929 . S
H2496 C2510 0.930 . S
H2497 C2512 0.960 . S
H2498 C2512 0.960 . S
H2499 C2512 0.960 . S
C2500 H2492 0.929 . S
C2500 C2501 1.377 . S
C2500 C2502 1.384 . S
C2501 C2500 1.377 . S
C2501 C2507 1.390 . S
C2502 H2493 0.930 . S
C2502 C2500 1.384 . S
C2502 C2503 1.372 . S
C2503 C2502 1.372 . S
C2503 C2504 1.400 . S
C2503 C2508 1.490 . S
C2504 H2494 0.930 . S
C2504 C2503 1.400 . S
C2504 C2507 1.386 . S
H2505 C2521 0.930 . S
H2506 C2522 0.931 . S
C2507 H2495 0.929 . S
C2507 C2501 1.390 . S
C2507 C2504 1.386 . S
C2508 C2503 1.490 . S
C2508 C2510 1.395 . S
C2508 C2511 1.403 . S
H2509 C2515 0.930 . S
C2510 H2496 0.930 . S
C2510 C2508 1.395 . S
C2510 C2513 1.403 . S
C2511 C2508 1.403 . S
C2511 C2512 1.524 . S
C2511 C2515 1.400 . S
C2512 H2497 0.960 . S
C2512 H2498 0.960 . S
C2512 H2499 0.960 . S
C2512 C2511 1.524 . S
C2513 C2510 1.403 . S
C2513 C2514 1.392 . S
C2513 C2517 1.495 . S
C2514 C2513 1.392 . S
C2514 C2515 1.385 . S
C2514 C2516 1.478 . S
C2515 H2509 0.930 . S
C2515 C2511 1.400 . S
C2515 C2514 1.385 . S
C2516 C2514 1.478 . S
C2516 C2518 1.381 . S
C2516 C2522 1.383 . S
C2517 C2513 1.495 . S
C2517 H2523 0.959 . S
C2517 H2524 0.961 . S
C2517 H2525 0.960 . S
C2518 C2516 1.381 . S
C2518 C2519 1.394 . S
C2518 H2526 0.930 . S
C2519 C2518 1.394 . S
C2519 C2520 1.383 . S
C2519 H2527 0.929 . S
C2520 C2519 1.383 . S
C2520 C2521 1.377 . S
C2521 H2505 0.930 . S
C2521 C2520 1.377 . S
C2521 C2522 1.379 . S
C2522 H2506 0.931 . S
C2522 C2516 1.383 . S
C2522 C2521 1.379 . S
H2523 C2517 0.959 . S
H2524 C2517 0.961 . S
H2525 C2517 0.960 . S
H2526 C2518 0.930 . S
H2527 C2519 0.929 . S
H2528 C2536 0.929 . S
H2529 C2538 0.930 . S
H2530 C2540 0.930 . S
H2531 C2543 0.929 . S
H2532 C2546 0.930 . S
H2533 C2548 0.960 . S
H2534 C2548 0.960 . S
H2535 C2548 0.960 . S
C2536 H2528 0.929 . S
C2536 C2537 1.377 . S
C2536 C2538 1.384 . S
C2537 C2536 1.377 . S
C2537 C2543 1.390 . S
C2538 H2529 0.930 . S
C2538 C2536 1.384 . S
C2538 C2539 1.372 . S
C2539 C2538 1.372 . S
C2539 C2540 1.400 . S
C2539 C2544 1.490 . S
C2540 H2530 0.930 . S
C2540 C2539 1.400 . S
C2540 C2543 1.386 . S
H2541 C2557 0.930 . S
H2542 C2558 0.931 . S
C2543 H2531 0.929 . S
C2543 C2537 1.390 . S
C2543 C2540 1.386 . S
C2544 C2539 1.490 . S
C2544 C2546 1.395 . S
C2544 C2547 1.403 . S
H2545 C2551 0.930 . S
C2546 H2532 0.930 . S
C2546 C2544 1.395 . S
C2546 C2549 1.403 . S
C2547 C2544 1.403 . S
C2547 C2548 1.524 . S
C2547 C2551 1.400 . S
C2548 H2533 0.960 . S
C2548 H2534 0.960 . S
C2548 H2535 0.960 . S
C2548 C2547 1.524 . S
C2549 C2546 1.403 . S
C2549 C2550 1.392 . S
C2549 C2553 1.495 . S
C2550 C2549 1.392 . S
C2550 C2551 1.385 . S
C2550 C2552 1.478 . S
C2551 H2545 0.930 . S
C2551 C2547 1.400 . S
C2551 C2550 1.385 . S
C2552 C2550 1.478 . S
C2552 C2554 1.381 . S
C2552 C2558 1.383 . S
C2553 C2549 1.495 . S
C2553 H2559 0.959 . S
C2553 H2560 0.961 . S
C2553 H2561 0.960 . S
C2554 C2552 1.381 . S
C2554 C2555 1.394 . S
C2554 H2562 0.930 . S
C2555 C2554 1.394 . S
C2555 C2556 1.383 . S
C2555 H2563 0.929 . S
C2556 C2555 1.383 . S
C2556 C2557 1.377 . S
C2557 H2541 0.930 . S
C2557 C2556 1.377 . S
C2557 C2558 1.379 . S
C2558 H2542 0.931 . S
C2558 C2552 1.383 . S
C2558 C2557 1.379 . S
H2559 C2553 0.959 . S
H2560 C2553 0.961 . S
H2561 C2553 0.960 . S
H2562 C2554 0.930 . S
H2563 C2555 0.929 . S
H2564 C2572 0.929 . S
H2565 C2574 0.930 . S
H2566 C2576 0.930 . S
H2567 C2579 0.929 . S
H2568 C2582 0.930 . S
H2569 C2584 0.960 . S
H2570 C2584 0.960 . S
H2571 C2584 0.960 . S
C2572 H2564 0.929 . S
C2572 C2573 1.377 . S
C2572 C2574 1.384 . S
C2573 C2572 1.377 . S
C2573 C2579 1.390 . S
C2574 H2565 0.930 . S
C2574 C2572 1.384 . S
C2574 C2575 1.372 . S
C2575 C2574 1.372 . S
C2575 C2576 1.400 . S
C2575 C2580 1.490 . S
C2576 H2566 0.930 . S
C2576 C2575 1.400 . S
C2576 C2579 1.386 . S
H2577 C2593 0.930 . S
H2578 C2594 0.931 . S
C2579 H2567 0.929 . S
C2579 C2573 1.390 . S
C2579 C2576 1.386 . S
C2580 C2575 1.490 . S
C2580 C2582 1.395 . S
C2580 C2583 1.403 . S
H2581 C2587 0.930 . S
C2582 H2568 0.930 . S
C2582 C2580 1.395 . S
C2582 C2585 1.403 . S
C2583 C2580 1.403 . S
C2583 C2584 1.524 . S
C2583 C2587 1.400 . S
C2584 H2569 0.960 . S
C2584 H2570 0.960 . S
C2584 H2571 0.960 . S
C2584 C2583 1.524 . S
C2585 C2582 1.403 . S
C2585 C2586 1.392 . S
C2585 C2589 1.495 . S
C2586 C2585 1.392 . S
C2586 C2587 1.385 . S
C2586 C2588 1.478 . S
C2587 H2581 0.930 . S
C2587 C2583 1.400 . S
C2587 C2586 1.385 . S
C2588 C2586 1.478 . S
C2588 C2590 1.381 . S
C2588 C2594 1.383 . S
C2589 C2585 1.495 . S
C2589 H2595 0.959 . S
C2589 H2596 0.961 . S
C2589 H2597 0.960 . S
C2590 C2588 1.381 . S
C2590 C2591 1.394 . S
C2590 H2598 0.930 . S
C2591 C2590 1.394 . S
C2591 C2592 1.383 . S
C2591 H2599 0.929 . S
C2592 C2591 1.383 . S
C2592 C2593 1.377 . S
C2593 H2577 0.930 . S
C2593 C2592 1.377 . S
C2593 C2594 1.379 . S
C2594 H2578 0.931 . S
C2594 C2588 1.383 . S
C2594 C2593 1.379 . S
H2595 C2589 0.959 . S
H2596 C2589 0.961 . S
H2597 C2589 0.960 . S
H2598 C2590 0.930 . S
H2599 C2591 0.929 . S
H2600 C2608 0.929 . S
H2601 C2610 0.930 . S
H2602 C2612 0.930 . S
H2603 C2615 0.929 . S
H2604 C2618 0.930 . S
H2605 C2620 0.960 . S
H2606 C2620 0.960 . S
H2607 C2620 0.960 . S
C2608 H2600 0.929 . S
C2608 C2609 1.377 . S
C2608 C2610 1.384 . S
C2609 C2608 1.377 . S
C2609 C2615 1.390 . S
C2610 H2601 0.930 . S
C2610 C2608 1.384 . S
C2610 C2611 1.372 . S
C2611 C2610 1.372 . S
C2611 C2612 1.400 . S
C2611 C2616 1.490 . S
C2612 H2602 0.930 . S
C2612 C2611 1.400 . S
C2612 C2615 1.386 . S
H2613 C2629 0.930 . S
H2614 C2630 0.931 . S
C2615 H2603 0.929 . S
C2615 C2609 1.390 . S
C2615 C2612 1.386 . S
C2616 C2611 1.490 . S
C2616 C2618 1.395 . S
C2616 C2619 1.403 . S
H2617 C2623 0.930 . S
C2618 H2604 0.930 . S
C2618 C2616 1.395 . S
C2618 C2621 1.403 . S
C2619 C2616 1.403 . S
C2619 C2620 1.524 . S
C2619 C2623 1.400 . S
C2620 H2605 0.960 . S
C2620 H2606 0.960 . S
C2620 H2607 0.960 . S
C2620 C2619 1.524 . S
C2621 C2618 1.403 . S
C2621 C2622 1.392 . S
C2621 C2625 1.495 . S
C2622 C2621 1.392 . S
C2622 C2623 1.385 . S
C2622 C2624 1.478 . S
C2623 H2617 0.930 . S
C2623 C2619 1.400 . S
C2623 C2622 1.385 . S
C2624 C2622 1.478 . S
C2624 C2626 1.381 . S
C2624 C2630 1.383 . S
C2625 C2621 1.495 . S
C2625 H2631 0.959 . S
C2625 H2632 0.961 . S
C2625 H2633 0.960 . S
C2626 C2624 1.381 . S
C2626 C2627 1.394 . S
C2626 H2634 0.930 . S
C2627 C2626 1.394 . S
C2627 C2628 1.383 . S
C2627 H2635 0.929 . S
C2628 C2627 1.383 . S
C2628 C2629 1.377 . S
C2629 H2613 0.930 . S
C2629 C2628 1.377 . S
C2629 C2630 1.379 . S
C2630 H2614 0.931 . S
C2630 C2624 1.383 . S
C2630 C2629 1.379 . S
H2631 C2625 0.959 . S
H2632 C2625 0.961 . S
H2633 C2625 0.960 . S
H2634 C2626 0.930 . S
H2635 C2627 0.929 . S
H2636 C2644 0.929 . S
H2637 C2646 0.930 . S
H2638 C2648 0.930 . S
H2639 C2651 0.929 . S
H2640 C2654 0.930 . S
H2641 C2656 0.960 . S
H2642 C2656 0.960 . S
H2643 C2656 0.960 . S
C2644 H2636 0.929 . S
C2644 C2645 1.377 . S
C2644 C2646 1.384 . S
C2645 C2644 1.377 . S
C2645 C2651 1.390 . S
C2646 H2637 0.930 . S
C2646 C2644 1.384 . S
C2646 C2647 1.372 . S
C2647 C2646 1.372 . S
C2647 C2648 1.400 . S
C2647 C2652 1.490 . S
C2648 H2638 0.930 . S
C2648 C2647 1.400 . S
C2648 C2651 1.386 . S
H2649 C2665 0.930 . S
H2650 C2666 0.931 . S
C2651 H2639 0.929 . S
C2651 C2645 1.390 . S
C2651 C2648 1.386 . S
C2652 C2647 1.490 . S
C2652 C2654 1.395 . S
C2652 C2655 1.403 1_455 S
H2653 C2659 0.930 . S
C2654 H2640 0.930 . S
C2654 C2652 1.395 . S
C2654 C2657 1.403 . S
C2655 C2652 1.403 1_655 S
C2655 C2656 1.524 . S
C2655 C2659 1.400 . S
C2656 H2641 0.960 . S
C2656 H2642 0.960 . S
C2656 H2643 0.960 . S
C2656 C2655 1.524 . S
C2657 C2654 1.403 . S
C2657 C2658 1.392 1_455 S
C2657 C2661 1.495 . S
C2658 C2657 1.392 1_655 S
C2658 C2659 1.385 . S
C2658 C2660 1.478 . S
C2659 H2653 0.930 . S
C2659 C2655 1.400 . S
C2659 C2658 1.385 . S
C2660 C2658 1.478 . S
C2660 C2662 1.381 . S
C2660 C2666 1.383 . S
C2661 C2657 1.495 . S
C2661 H2667 0.959 . S
C2661 H2668 0.961 . S
C2661 H2669 0.960 . S
C2662 C2660 1.381 . S
C2662 C2663 1.394 . S
C2662 H2670 0.930 . S
C2663 C2662 1.394 . S
C2663 C2664 1.383 . S
C2663 H2671 0.929 . S
C2664 C2663 1.383 . S
C2664 C2665 1.377 . S
C2665 H2649 0.930 . S
C2665 C2664 1.377 . S
C2665 C2666 1.379 . S
C2666 H2650 0.931 . S
C2666 C2660 1.383 . S
C2666 C2665 1.379 . S
H2667 C2661 0.959 . S
H2668 C2661 0.961 . S
H2669 C2661 0.960 . S
H2670 C2662 0.930 . S
H2671 C2663 0.929 . S
H2672 C2680 0.929 . S
H2673 C2682 0.930 . S
H2674 C2684 0.930 . S
H2675 C2687 0.929 . S
H2676 C2690 0.930 . S
H2677 C2692 0.960 . S
H2678 C2692 0.960 . S
H2679 C2692 0.960 . S
C2680 H2672 0.929 . S
C2680 C2681 1.377 . S
C2680 C2682 1.384 . S
C2681 C2680 1.377 . S
C2681 C2687 1.390 . S
C2682 H2673 0.930 . S
C2682 C2680 1.384 . S
C2682 C2683 1.372 . S
C2683 C2682 1.372 . S
C2683 C2684 1.400 . S
C2683 C2688 1.490 . S
C2684 H2674 0.930 . S
C2684 C2683 1.400 . S
C2684 C2687 1.386 . S
H2685 C2701 0.930 . S
H2686 C2702 0.931 . S
C2687 H2675 0.929 . S
C2687 C2681 1.390 . S
C2687 C2684 1.386 . S
C2688 C2683 1.490 . S
C2688 C2690 1.395 . S
C2688 C2691 1.403 . S
H2689 C2695 0.930 . S
C2690 H2676 0.930 . S
C2690 C2688 1.395 . S
C2690 C2693 1.403 . S
C2691 C2688 1.403 . S
C2691 C2692 1.524 . S
C2691 C2695 1.400 . S
C2692 H2677 0.960 . S
C2692 H2678 0.960 . S
C2692 H2679 0.960 . S
C2692 C2691 1.524 . S
C2693 C2690 1.403 . S
C2693 C2694 1.392 . S
C2693 C2697 1.495 . S
C2694 C2693 1.392 . S
C2694 C2695 1.385 . S
C2694 C2696 1.478 . S
C2695 H2689 0.930 . S
C2695 C2691 1.400 . S
C2695 C2694 1.385 . S
C2696 C2694 1.478 . S
C2696 C2698 1.381 . S
C2696 C2702 1.383 . S
C2697 C2693 1.495 . S
C2697 H2703 0.959 . S
C2697 H2704 0.961 . S
C2697 H2705 0.960 . S
C2698 C2696 1.381 . S
C2698 C2699 1.394 . S
C2698 H2706 0.930 . S
C2699 C2698 1.394 . S
C2699 C2700 1.383 . S
C2699 H2707 0.929 . S
C2700 C2699 1.383 . S
C2700 C2701 1.377 . S
C2701 H2685 0.930 . S
C2701 C2700 1.377 . S
C2701 C2702 1.379 . S
C2702 H2686 0.931 . S
C2702 C2696 1.383 . S
C2702 C2701 1.379 . S
H2703 C2697 0.959 . S
H2704 C2697 0.961 . S
H2705 C2697 0.960 . S
H2706 C2698 0.930 . S
H2707 C2699 0.929 . S
H2708 C2716 0.929 . S
H2709 C2718 0.930 . S
H2710 C2720 0.930 . S
H2711 C2723 0.929 . S
H2712 C2726 0.930 . S
H2713 C2728 0.960 . S
H2714 C2728 0.960 . S
H2715 C2728 0.960 . S
C2716 H2708 0.929 . S
C2716 C2717 1.377 . S
C2716 C2718 1.384 . S
C2717 C2716 1.377 . S
C2717 C2723 1.390 . S
C2718 H2709 0.930 . S
C2718 C2716 1.384 . S
C2718 C2719 1.372 . S
C2719 C2718 1.372 . S
C2719 C2720 1.400 . S
C2719 C2724 1.490 . S
C2720 H2710 0.930 . S
C2720 C2719 1.400 . S
C2720 C2723 1.386 . S
H2721 C2737 0.930 . S
H2722 C2738 0.931 . S
C2723 H2711 0.929 . S
C2723 C2717 1.390 . S
C2723 C2720 1.386 . S
C2724 C2719 1.490 . S
C2724 C2726 1.395 . S
C2724 C2727 1.403 . S
H2725 C2731 0.930 . S
C2726 H2712 0.930 . S
C2726 C2724 1.395 . S
C2726 C2729 1.403 1_655 S
C2727 C2724 1.403 . S
C2727 C2728 1.524 . S
C2727 C2731 1.400 1_655 S
C2728 H2713 0.960 . S
C2728 H2714 0.960 . S
C2728 H2715 0.960 . S
C2728 C2727 1.524 . S
C2729 C2726 1.403 1_455 S
C2729 C2730 1.392 . S
C2729 C2733 1.495 . S
C2730 C2729 1.392 . S
C2730 C2731 1.385 . S
C2730 C2732 1.478 . S
C2731 H2725 0.930 . S
C2731 C2727 1.400 1_455 S
C2731 C2730 1.385 . S
C2732 C2730 1.478 . S
C2732 C2734 1.381 . S
C2732 C2738 1.383 . S
C2733 C2729 1.495 . S
C2733 H2739 0.959 . S
C2733 H2740 0.961 . S
C2733 H2741 0.960 . S
C2734 C2732 1.381 . S
C2734 C2735 1.394 . S
C2734 H2742 0.930 . S
C2735 C2734 1.394 . S
C2735 C2736 1.383 . S
C2735 H2743 0.929 . S
C2736 C2735 1.383 . S
C2736 C2737 1.377 . S
C2737 H2721 0.930 . S
C2737 C2736 1.377 . S
C2737 C2738 1.379 . S
C2738 H2722 0.931 . S
C2738 C2732 1.383 . S
C2738 C2737 1.379 . S
H2739 C2733 0.959 . S
H2740 C2733 0.961 . S
H2741 C2733 0.960 . S
H2742 C2734 0.930 . S
H2743 C2735 0.929 . S
H2744 C2752 0.929 . S
H2745 C2754 0.930 . S
H2746 C2756 0.930 . S
H2747 C2759 0.929 . S
H2748 C2762 0.930 . S
H2749 C2764 0.960 . S
H2750 C2764 0.960 . S
H2751 C2764 0.960 . S
C2752 H2744 0.929 . S
C2752 C2753 1.377 . S
C2752 C2754 1.384 . S
C2753 C2752 1.377 . S
C2753 C2759 1.390 . S
C2754 H2745 0.930 . S
C2754 C2752 1.384 . S
C2754 C2755 1.372 . S
C2755 C2754 1.372 . S
C2755 C2756 1.400 . S
C2755 C2760 1.490 . S
C2756 H2746 0.930 . S
C2756 C2755 1.400 . S
C2756 C2759 1.386 . S
H2757 C2773 0.930 . S
H2758 C2774 0.931 . S
C2759 H2747 0.929 . S
C2759 C2753 1.390 . S
C2759 C2756 1.386 . S
C2760 C2755 1.490 . S
C2760 C2762 1.395 . S
C2760 C2763 1.403 . S
H2761 C2767 0.930 . S
C2762 H2748 0.930 . S
C2762 C2760 1.395 . S
C2762 C2765 1.403 . S
C2763 C2760 1.403 . S
C2763 C2764 1.524 . S
C2763 C2767 1.400 . S
C2764 H2749 0.960 . S
C2764 H2750 0.960 . S
C2764 H2751 0.960 . S
C2764 C2763 1.524 . S
C2765 C2762 1.403 . S
C2765 C2766 1.392 . S
C2765 C2769 1.495 . S
C2766 C2765 1.392 . S
C2766 C2767 1.385 . S
C2766 C2768 1.478 . S
C2767 H2761 0.930 . S
C2767 C2763 1.400 . S
C2767 C2766 1.385 . S
C2768 C2766 1.478 . S
C2768 C2770 1.381 . S
C2768 C2774 1.383 . S
C2769 C2765 1.495 . S
C2769 H2775 0.959 . S
C2769 H2776 0.961 . S
C2769 H2777 0.960 . S
C2770 C2768 1.381 . S
C2770 C2771 1.394 . S
C2770 H2778 0.930 . S
C2771 C2770 1.394 . S
C2771 C2772 1.383 . S
C2771 H2779 0.929 . S
C2772 C2771 1.383 . S
C2772 C2773 1.377 . S
C2773 H2757 0.930 . S
C2773 C2772 1.377 . S
C2773 C2774 1.379 . S
C2774 H2758 0.931 . S
C2774 C2768 1.383 . S
C2774 C2773 1.379 . S
H2775 C2769 0.959 . S
H2776 C2769 0.961 . S
H2777 C2769 0.960 . S
H2778 C2770 0.930 . S
H2779 C2771 0.929 . S
H2780 C2788 0.929 . S
H2781 C2790 0.930 . S
H2782 C2792 0.930 . S
H2783 C2795 0.929 . S
H2784 C2798 0.930 . S
H2785 C2800 0.960 . S
H2786 C2800 0.960 . S
H2787 C2800 0.960 . S
C2788 H2780 0.929 . S
C2788 C2789 1.377 . S
C2788 C2790 1.384 . S
C2789 C2788 1.377 . S
C2789 C2795 1.390 . S
C2790 H2781 0.930 . S
C2790 C2788 1.384 . S
C2790 C2791 1.372 . S
C2791 C2790 1.372 . S
C2791 C2792 1.400 . S
C2791 C2796 1.490 . S
C2792 H2782 0.930 . S
C2792 C2791 1.400 . S
C2792 C2795 1.386 . S
H2793 C2809 0.930 . S
H2794 C2810 0.931 . S
C2795 H2783 0.929 . S
C2795 C2789 1.390 . S
C2795 C2792 1.386 . S
C2796 C2791 1.490 . S
C2796 C2798 1.395 . S
C2796 C2799 1.403 . S
H2797 C2803 0.930 . S
C2798 H2784 0.930 . S
C2798 C2796 1.395 . S
C2798 C2801 1.403 . S
C2799 C2796 1.403 . S
C2799 C2800 1.524 . S
C2799 C2803 1.400 . S
C2800 H2785 0.960 . S
C2800 H2786 0.960 . S
C2800 H2787 0.960 . S
C2800 C2799 1.524 . S
C2801 C2798 1.403 . S
C2801 C2802 1.392 . S
C2801 C2805 1.495 . S
C2802 C2801 1.392 . S
C2802 C2803 1.385 . S
C2802 C2804 1.478 . S
C2803 H2797 0.930 . S
C2803 C2799 1.400 . S
C2803 C2802 1.385 . S
C2804 C2802 1.478 . S
C2804 C2806 1.381 . S
C2804 C2810 1.383 . S
C2805 C2801 1.495 . S
C2805 H2811 0.959 . S
C2805 H2812 0.961 . S
C2805 H2813 0.960 . S
C2806 C2804 1.381 . S
C2806 C2807 1.394 . S
C2806 H2814 0.930 . S
C2807 C2806 1.394 . S
C2807 C2808 1.383 . S
C2807 H2815 0.929 . S
C2808 C2807 1.383 . S
C2808 C2809 1.377 . S
C2809 H2793 0.930 . S
C2809 C2808 1.377 . S
C2809 C2810 1.379 . S
C2810 H2794 0.931 . S
C2810 C2804 1.383 . S
C2810 C2809 1.379 . S
H2811 C2805 0.959 . S
H2812 C2805 0.961 . S
H2813 C2805 0.960 . S
H2814 C2806 0.930 . S
H2815 C2807 0.929 . S
H2816 C2824 0.929 . S
H2817 C2826 0.930 . S
H2818 C2828 0.930 . S
H2819 C2831 0.929 . S
H2820 C2834 0.930 . S
H2821 C2836 0.960 . S
H2822 C2836 0.960 . S
H2823 C2836 0.960 . S
C2824 H2816 0.929 . S
C2824 C2825 1.377 . S
C2824 C2826 1.384 . S
C2825 C2824 1.377 . S
C2825 C2831 1.390 . S
C2826 H2817 0.930 . S
C2826 C2824 1.384 . S
C2826 C2827 1.372 . S
C2827 C2826 1.372 . S
C2827 C2828 1.400 . S
C2827 C2832 1.490 . S
C2828 H2818 0.930 . S
C2828 C2827 1.400 . S
C2828 C2831 1.386 . S
H2829 C2845 0.930 . S
H2830 C2846 0.931 . S
C2831 H2819 0.929 . S
C2831 C2825 1.390 . S
C2831 C2828 1.386 . S
C2832 C2827 1.490 . S
C2832 C2834 1.395 . S
C2832 C2835 1.403 . S
H2833 C2839 0.930 . S
C2834 H2820 0.930 . S
C2834 C2832 1.395 . S
C2834 C2837 1.403 . S
C2835 C2832 1.403 . S
C2835 C2836 1.524 . S
C2835 C2839 1.400 . S
C2836 H2821 0.960 . S
C2836 H2822 0.960 . S
C2836 H2823 0.960 . S
C2836 C2835 1.524 . S
C2837 C2834 1.403 . S
C2837 C2838 1.392 . S
C2837 C2841 1.495 . S
C2838 C2837 1.392 . S
C2838 C2839 1.385 . S
C2838 C2840 1.478 . S
C2839 H2833 0.930 . S
C2839 C2835 1.400 . S
C2839 C2838 1.385 . S
C2840 C2838 1.478 . S
C2840 C2842 1.381 . S
C2840 C2846 1.383 . S
C2841 C2837 1.495 . S
C2841 H2847 0.959 . S
C2841 H2848 0.961 . S
C2841 H2849 0.960 . S
C2842 C2840 1.381 . S
C2842 C2843 1.394 . S
C2842 H2850 0.930 . S
C2843 C2842 1.394 . S
C2843 C2844 1.383 . S
C2843 H2851 0.929 . S
C2844 C2843 1.383 . S
C2844 C2845 1.377 . S
C2845 H2829 0.930 . S
C2845 C2844 1.377 . S
C2845 C2846 1.379 . S
C2846 H2830 0.931 . S
C2846 C2840 1.383 . S
C2846 C2845 1.379 . S
H2847 C2841 0.959 . S
H2848 C2841 0.961 . S
H2849 C2841 0.960 . S
H2850 C2842 0.930 . S
H2851 C2843 0.929 . S
H2852 C2860 0.929 . S
H2853 C2862 0.930 . S
H2854 C2864 0.930 . S
H2855 C2867 0.929 . S
H2856 C2870 0.930 . S
H2857 C2872 0.960 . S
H2858 C2872 0.960 1_655 S
H2859 C2872 0.960 . S
C2860 H2852 0.929 . S
C2860 C2861 1.377 . S
C2860 C2862 1.384 . S
C2861 C2860 1.377 . S
C2861 C2867 1.390 . S
C2862 H2853 0.930 . S
C2862 C2860 1.384 . S
C2862 C2863 1.372 . S
C2863 C2862 1.372 . S
C2863 C2864 1.400 . S
C2863 C2868 1.490 . S
C2864 H2854 0.930 . S
C2864 C2863 1.400 . S
C2864 C2867 1.386 . S
H2865 C2881 0.930 . S
H2866 C2882 0.931 . S
C2867 H2855 0.929 . S
C2867 C2861 1.390 . S
C2867 C2864 1.386 . S
C2868 C2863 1.490 . S
C2868 C2870 1.395 . S
C2868 C2871 1.363 1_655 S
H2869 C2875 0.930 . S
C2870 H2856 0.930 . S
C2870 C2868 1.395 . S
C2870 C2873 1.403 . S
C2871 C2868 1.363 1_455 S
C2871 C2872 1.532 . S
C2871 C2875 1.434 . S
C2872 H2857 0.960 . S
C2872 H2858 0.960 1_455 S
C2872 H2859 0.960 . S
C2872 C2871 1.532 . S
C2873 C2870 1.403 . S
C2873 C2874 1.392 1_655 S
C2873 C2877 1.495 . S
C2874 C2873 1.392 1_455 S
C2874 C2875 1.385 . S
C2874 C2876 1.478 . S
C2875 H2869 0.930 . S
C2875 C2871 1.434 . S
C2875 C2874 1.385 . S
C2876 C2874 1.478 . S
C2876 C2878 1.381 . S
C2876 C2882 1.383 . S
C2877 C2873 1.495 . S
C2877 H2883 0.959 . S
C2877 H2884 0.961 1_655 S
C2877 H2885 0.960 . S
C2878 C2876 1.381 . S
C2878 C2879 1.394 . S
C2878 H2886 0.930 . S
C2879 C2878 1.394 . S
C2879 C2880 1.383 . S
C2879 H2887 0.929 . S
C2880 C2879 1.383 . S
C2880 C2881 1.377 . S
C2881 H2865 0.930 . S
C2881 C2880 1.377 . S
C2881 C2882 1.379 . S
C2882 H2866 0.931 . S
C2882 C2876 1.383 . S
C2882 C2881 1.379 . S
H2883 C2877 0.959 . S
H2884 C2877 0.961 1_455 S
H2885 C2877 0.960 . S
H2886 C2878 0.930 . S
H2887 C2879 0.929 . S
H2888 C2896 0.929 . S
H2889 C2898 0.930 . S
H2890 C2900 0.930 . S
H2891 C2903 0.929 . S
H2892 C2906 0.930 . S
H2893 C2908 0.939 1_455 S
H2894 C2908 0.982 . S
H2895 C2908 0.959 1_455 S
C2896 H2888 0.929 . S
C2896 C2897 1.377 . S
C2896 C2898 1.384 . S
C2897 C2896 1.377 . S
C2897 C2903 1.390 . S
C2898 H2889 0.930 . S
C2898 C2896 1.384 . S
C2898 C2899 1.372 . S
C2899 C2898 1.372 . S
C2899 C2900 1.400 . S
C2899 C2904 1.490 . S
C2900 H2890 0.930 . S
C2900 C2899 1.400 . S
C2900 C2903 1.386 . S
H2901 C2917 0.930 . S
H2902 C2918 0.931 . S
C2903 H2891 0.929 . S
C2903 C2897 1.390 . S
C2903 C2900 1.386 . S
C2904 C2899 1.490 . S
C2904 C2906 1.395 . S
C2904 C2907 1.403 . S
H2905 C2911 0.930 . S
C2906 H2892 0.930 . S
C2906 C2904 1.395 . S
C2906 C2909 1.403 . S
C2907 C2904 1.403 . S
C2907 C2908 1.525 . S
C2907 C2911 1.400 1_655 S
C2908 H2893 0.939 1_655 S
C2908 H2894 0.982 . S
C2908 H2895 0.959 1_655 S
C2908 C2907 1.525 . S
C2909 C2906 1.403 . S
C2909 C2910 1.392 1_655 S
C2909 C2913 1.495 . S
C2910 C2909 1.392 1_455 S
C2910 C2911 1.385 . S
C2910 C2912 1.478 . S
C2911 H2905 0.930 . S
C2911 C2907 1.400 1_455 S
C2911 C2910 1.385 . S
C2912 C2910 1.478 . S
C2912 C2914 1.381 . S
C2912 C2918 1.383 . S
C2913 C2909 1.495 . S
C2913 H2919 0.959 . S
C2913 H2920 0.961 1_655 S
C2913 H2921 0.960 . S
C2914 C2912 1.381 . S
C2914 C2915 1.394 . S
C2914 H2922 0.930 . S
C2915 C2914 1.394 . S
C2915 C2916 1.383 . S
C2915 H2923 0.929 . S
C2916 C2915 1.383 . S
C2916 C2917 1.377 . S
C2917 H2901 0.930 . S
C2917 C2916 1.377 . S
C2917 C2918 1.379 . S
C2918 H2902 0.931 . S
C2918 C2912 1.383 . S
C2918 C2917 1.379 . S
H2919 C2913 0.959 . S
H2920 C2913 0.961 1_455 S
H2921 C2913 0.960 . S
H2922 C2914 0.930 . S
H2923 C2915 0.929 . S
H2924 C2932 0.929 . S
H2925 C2934 0.930 . S
H2926 C2936 0.930 . S
H2927 C2939 0.929 . S
H2928 C2942 0.930 . S
H2929 C2944 0.960 . S
H2930 C2944 0.960 . S
H2931 C2944 0.960 . S
C2932 H2924 0.929 . S
C2932 C2933 1.377 . S
C2932 C2934 1.384 . S
C2933 C2932 1.377 . S
C2933 C2939 1.390 . S
C2934 H2925 0.930 . S
C2934 C2932 1.384 . S
C2934 C2935 1.372 . S
C2935 C2934 1.372 . S
C2935 C2936 1.400 . S
C2935 C2940 1.490 . S
C2936 H2926 0.930 . S
C2936 C2935 1.400 . S
C2936 C2939 1.386 . S
H2937 C2953 0.930 . S
H2938 C2954 0.931 . S
C2939 H2927 0.929 . S
C2939 C2933 1.390 . S
C2939 C2936 1.386 . S
C2940 C2935 1.490 . S
C2940 C2942 1.395 . S
C2940 C2943 1.403 . S
H2941 C2947 0.930 . S
C2942 H2928 0.930 . S
C2942 C2940 1.395 . S
C2942 C2945 1.403 . S
C2943 C2940 1.403 . S
C2943 C2944 1.524 . S
C2943 C2947 1.400 . S
C2944 H2929 0.960 . S
C2944 H2930 0.960 . S
C2944 H2931 0.960 . S
C2944 C2943 1.524 . S
C2945 C2942 1.403 . S
C2945 C2946 1.392 . S
C2945 C2949 1.495 . S
C2946 C2945 1.392 . S
C2946 C2947 1.385 . S
C2946 C2948 1.478 . S
C2947 H2941 0.930 . S
C2947 C2943 1.400 . S
C2947 C2946 1.385 . S
C2948 C2946 1.478 . S
C2948 C2950 1.381 . S
C2948 C2954 1.383 . S
C2949 C2945 1.495 . S
C2949 H2955 0.959 . S
C2949 H2956 0.961 . S
C2949 H2957 0.960 . S
C2950 C2948 1.381 . S
C2950 C2951 1.394 . S
C2950 H2958 0.930 . S
C2951 C2950 1.394 . S
C2951 C2952 1.383 . S
C2951 H2959 0.929 . S
C2952 C2951 1.383 . S
C2952 C2953 1.377 . S
C2953 H2937 0.930 . S
C2953 C2952 1.377 . S
C2953 C2954 1.379 . S
C2954 H2938 0.931 . S
C2954 C2948 1.383 . S
C2954 C2953 1.379 . S
H2955 C2949 0.959 . S
H2956 C2949 0.961 . S
H2957 C2949 0.960 . S
H2958 C2950 0.930 . S
H2959 C2951 0.929 . S
H2960 C2968 0.929 . S
H2961 C2970 0.930 . S
H2962 C2972 0.930 . S
H2963 C2975 0.929 . S
H2964 C2978 0.930 . S
H2965 C2980 0.960 . S
H2966 C2980 0.960 . S
H2967 C2980 0.960 . S
C2968 H2960 0.929 . S
C2968 C2969 1.377 . S
C2968 C2970 1.384 . S
C2969 C2968 1.377 . S
C2969 C2975 1.390 . S
C2970 H2961 0.930 . S
C2970 C2968 1.384 . S
C2970 C2971 1.372 . S
C2971 C2970 1.372 . S
C2971 C2972 1.400 . S
C2971 C2976 1.490 . S
C2972 H2962 0.930 . S
C2972 C2971 1.400 . S
C2972 C2975 1.386 . S
H2973 C2989 0.930 . S
H2974 C2990 0.931 . S
C2975 H2963 0.929 . S
C2975 C2969 1.390 . S
C2975 C2972 1.386 . S
C2976 C2971 1.490 . S
C2976 C2978 1.395 . S
C2976 C2979 1.403 . S
H2977 C2983 0.930 . S
C2978 H2964 0.930 . S
C2978 C2976 1.395 . S
C2978 C2981 1.403 . S
C2979 C2976 1.403 . S
C2979 C2980 1.524 . S
C2979 C2983 1.400 . S
C2980 H2965 0.960 . S
C2980 H2966 0.960 . S
C2980 H2967 0.960 . S
C2980 C2979 1.524 . S
C2981 C2978 1.403 . S
C2981 C2982 1.392 . S
C2981 C2985 1.495 . S
C2982 C2981 1.392 . S
C2982 C2983 1.385 . S
C2982 C2984 1.478 . S
C2983 H2977 0.930 . S
C2983 C2979 1.400 . S
C2983 C2982 1.385 . S
C2984 C2982 1.478 . S
C2984 C2986 1.381 . S
C2984 C2990 1.383 . S
C2985 C2981 1.495 . S
C2985 H2991 0.959 . S
C2985 H2992 0.961 . S
C2985 H2993 0.960 . S
C2986 C2984 1.381 . S
C2986 C2987 1.394 . S
C2986 H2994 0.930 . S
C2987 C2986 1.394 . S
C2987 C2988 1.383 . S
C2987 H2995 0.929 . S
C2988 C2987 1.383 . S
C2988 C2989 1.377 . S
C2989 H2973 0.930 . S
C2989 C2988 1.377 . S
C2989 C2990 1.379 . S
C2990 H2974 0.931 . S
C2990 C2984 1.383 . S
C2990 C2989 1.379 . S
H2991 C2985 0.959 . S
H2992 C2985 0.961 . S
H2993 C2985 0.960 . S
H2994 C2986 0.930 . S
H2995 C2987 0.929 . S
H2996 C3004 0.929 . S
H2997 C3006 0.930 . S
H2998 C3008 0.930 . S
H2999 C3011 0.929 . S
H3000 C3014 0.930 . S
H3001 C3016 0.960 . S
H3002 C3016 0.960 . S
H3003 C3016 0.960 . S
C3004 H2996 0.929 . S
C3004 C3005 1.377 . S
C3004 C3006 1.384 . S
C3005 C3004 1.377 . S
C3005 C3011 1.390 . S
C3006 H2997 0.930 . S
C3006 C3004 1.384 . S
C3006 C3007 1.372 . S
C3007 C3006 1.372 . S
C3007 C3008 1.400 . S
C3007 C3012 1.490 . S
C3008 H2998 0.930 . S
C3008 C3007 1.400 . S
C3008 C3011 1.386 . S
H3009 C3025 0.930 . S
H3010 C3026 0.931 . S
C3011 H2999 0.929 . S
C3011 C3005 1.390 . S
C3011 C3008 1.386 . S
C3012 C3007 1.490 . S
C3012 C3014 1.395 . S
C3012 C3015 1.403 . S
H3013 C3019 0.930 . S
C3014 H3000 0.930 . S
C3014 C3012 1.395 . S
C3014 C3017 1.403 . S
C3015 C3012 1.403 . S
C3015 C3016 1.524 . S
C3015 C3019 1.400 . S
C3016 H3001 0.960 . S
C3016 H3002 0.960 . S
C3016 H3003 0.960 . S
C3016 C3015 1.524 . S
C3017 C3014 1.403 . S
C3017 C3018 1.392 . S
C3017 C3021 1.495 . S
C3018 C3017 1.392 . S
C3018 C3019 1.385 . S
C3018 C3020 1.478 . S
C3019 H3013 0.930 . S
C3019 C3015 1.400 . S
C3019 C3018 1.385 . S
C3020 C3018 1.478 . S
C3020 C3022 1.381 . S
C3020 C3026 1.383 . S
C3021 C3017 1.495 . S
C3021 H3027 0.959 . S
C3021 H3028 0.961 . S
C3021 H3029 0.960 . S
C3022 C3020 1.381 . S
C3022 C3023 1.394 . S
C3022 H3030 0.930 . S
C3023 C3022 1.394 . S
C3023 C3024 1.383 . S
C3023 H3031 0.929 . S
C3024 C3023 1.383 . S
C3024 C3025 1.377 . S
C3025 H3009 0.930 . S
C3025 C3024 1.377 . S
C3025 C3026 1.379 . S
C3026 H3010 0.931 . S
C3026 C3020 1.383 . S
C3026 C3025 1.379 . S
H3027 C3021 0.959 . S
H3028 C3021 0.961 . S
H3029 C3021 0.960 . S
H3030 C3022 0.930 . S
H3031 C3023 0.929 . S
H3032 C3040 0.929 . S
H3033 C3042 0.930 . S
H3034 C3044 0.930 . S
H3035 C3047 0.929 . S
H3036 C3050 0.930 . S
H3037 C3052 0.960 . S
H3038 C3052 0.960 . S
H3039 C3052 0.960 . S
C3040 H3032 0.929 . S
C3040 C3041 1.377 . S
C3040 C3042 1.384 . S
C3041 C3040 1.377 . S
C3041 C3047 1.390 . S
C3042 H3033 0.930 . S
C3042 C3040 1.384 . S
C3042 C3043 1.372 . S
C3043 C3042 1.372 . S
C3043 C3044 1.400 . S
C3043 C3048 1.490 . S
C3044 H3034 0.930 . S
C3044 C3043 1.400 . S
C3044 C3047 1.386 . S
H3045 C3061 0.930 . S
H3046 C3062 0.931 . S
C3047 H3035 0.929 . S
C3047 C3041 1.390 . S
C3047 C3044 1.386 . S
C3048 C3043 1.490 . S
C3048 C3050 1.395 . S
C3048 C3051 1.403 . S
H3049 C3055 0.930 . S
C3050 H3036 0.930 . S
C3050 C3048 1.395 . S
C3050 C3053 1.403 1_455 S
C3051 C3048 1.403 . S
C3051 C3052 1.524 . S
C3051 C3055 1.400 1_455 S
C3052 H3037 0.960 . S
C3052 H3038 0.960 . S
C3052 H3039 0.960 . S
C3052 C3051 1.524 . S
C3053 C3050 1.403 1_655 S
C3053 C3054 1.392 . S
C3053 C3057 1.495 . S
C3054 C3053 1.392 . S
C3054 C3055 1.385 . S
C3054 C3056 1.478 . S
C3055 H3049 0.930 . S
C3055 C3051 1.400 1_655 S
C3055 C3054 1.385 . S
C3056 C3054 1.478 . S
C3056 C3058 1.381 . S
C3056 C3062 1.383 . S
C3057 C3053 1.495 . S
C3057 H3063 0.959 . S
C3057 H3064 0.961 . S
C3057 H3065 0.960 . S
C3058 C3056 1.381 . S
C3058 C3059 1.394 . S
C3058 H3066 0.930 . S
C3059 C3058 1.394 . S
C3059 C3060 1.383 . S
C3059 H3067 0.929 . S
C3060 C3059 1.383 . S
C3060 C3061 1.377 . S
C3061 H3045 0.930 . S
C3061 C3060 1.377 . S
C3061 C3062 1.379 . S
C3062 H3046 0.931 . S
C3062 C3056 1.383 . S
C3062 C3061 1.379 . S
H3063 C3057 0.959 . S
H3064 C3057 0.961 . S
H3065 C3057 0.960 . S
H3066 C3058 0.930 . S
H3067 C3059 0.929 . S
H3068 C3076 0.929 . S
H3069 C3078 0.930 . S
H3070 C3080 0.930 . S
H3071 C3083 0.929 . S
H3072 C3086 0.930 . S
H3073 C3088 0.960 . S
H3074 C3088 0.960 . S
H3075 C3088 0.960 . S
C3076 H3068 0.929 . S
C3076 C3077 1.377 . S
C3076 C3078 1.384 . S
C3077 C3076 1.377 . S
C3077 C3083 1.390 . S
C3078 H3069 0.930 . S
C3078 C3076 1.384 . S
C3078 C3079 1.372 . S
C3079 C3078 1.372 . S
C3079 C3080 1.400 . S
C3079 C3084 1.490 . S
C3080 H3070 0.930 . S
C3080 C3079 1.400 . S
C3080 C3083 1.386 . S
H3081 C3097 0.930 . S
H3082 C3098 0.931 . S
C3083 H3071 0.929 . S
C3083 C3077 1.390 . S
C3083 C3080 1.386 . S
C3084 C3079 1.490 . S
C3084 C3086 1.395 1_655 S
C3084 C3087 1.403 . S
H3085 C3091 0.930 . S
C3086 H3072 0.930 . S
C3086 C3084 1.395 1_455 S
C3086 C3089 1.403 . S
C3087 C3084 1.403 . S
C3087 C3088 1.524 . S
C3087 C3091 1.400 . S
C3088 H3073 0.960 . S
C3088 H3074 0.960 . S
C3088 H3075 0.960 . S
C3088 C3087 1.524 . S
C3089 C3086 1.403 . S
C3089 C3090 1.392 . S
C3089 C3093 1.495 . S
C3090 C3089 1.392 . S
C3090 C3091 1.385 1_455 S
C3090 C3092 1.478 . S
C3091 H3085 0.930 . S
C3091 C3087 1.400 . S
C3091 C3090 1.385 1_655 S
C3092 C3090 1.478 . S
C3092 C3094 1.381 . S
C3092 C3098 1.383 . S
C3093 C3089 1.495 . S
C3093 H3099 0.959 . S
C3093 H3100 0.961 . S
C3093 H3101 0.960 . S
C3094 C3092 1.381 . S
C3094 C3095 1.394 . S
C3094 H3102 0.930 . S
C3095 C3094 1.394 . S
C3095 C3096 1.383 . S
C3095 H3103 0.929 . S
C3096 C3095 1.383 . S
C3096 C3097 1.377 . S
C3097 H3081 0.930 . S
C3097 C3096 1.377 . S
C3097 C3098 1.379 . S
C3098 H3082 0.931 . S
C3098 C3092 1.383 . S
C3098 C3097 1.379 . S
H3099 C3093 0.959 . S
H3100 C3093 0.961 . S
H3101 C3093 0.960 . S
H3102 C3094 0.930 . S
H3103 C3095 0.929 . S
H3104 C3112 0.929 . S
H3105 C3114 0.930 . S
H3106 C3116 0.930 . S
H3107 C3119 0.929 . S
H3108 C3122 0.930 . S
H3109 C3124 0.960 . S
H3110 C3124 0.960 . S
H3111 C3124 0.960 . S
C3112 H3104 0.929 . S
C3112 C3113 1.377 . S
C3112 C3114 1.384 . S
C3113 C3112 1.377 . S
C3113 C3119 1.390 . S
C3114 H3105 0.930 . S
C3114 C3112 1.384 . S
C3114 C3115 1.372 . S
C3115 C3114 1.372 . S
C3115 C3116 1.400 . S
C3115 C3120 1.490 . S
C3116 H3106 0.930 . S
C3116 C3115 1.400 . S
C3116 C3119 1.386 . S
H3117 C3133 0.930 . S
H3118 C3134 0.931 . S
C3119 H3107 0.929 . S
C3119 C3113 1.390 . S
C3119 C3116 1.386 . S
C3120 C3115 1.490 . S
C3120 C3122 1.395 . S
C3120 C3123 1.403 . S
H3121 C3127 0.930 . S
C3122 H3108 0.930 . S
C3122 C3120 1.395 . S
C3122 C3125 1.403 . S
C3123 C3120 1.403 . S
C3123 C3124 1.524 . S
C3123 C3127 1.400 . S
C3124 H3109 0.960 . S
C3124 H3110 0.960 . S
C3124 H3111 0.960 . S
C3124 C3123 1.524 . S
C3125 C3122 1.403 . S
C3125 C3126 1.392 . S
C3125 C3129 1.495 . S
C3126 C3125 1.392 . S
C3126 C3127 1.385 . S
C3126 C3128 1.478 . S
C3127 H3121 0.930 . S
C3127 C3123 1.400 . S
C3127 C3126 1.385 . S
C3128 C3126 1.478 . S
C3128 C3130 1.381 . S
C3128 C3134 1.383 . S
C3129 C3125 1.495 . S
C3129 H3135 0.959 . S
C3129 H3136 0.961 . S
C3129 H3137 0.960 . S
C3130 C3128 1.381 . S
C3130 C3131 1.394 . S
C3130 H3138 0.930 . S
C3131 C3130 1.394 . S
C3131 C3132 1.383 . S
C3131 H3139 0.929 . S
C3132 C3131 1.383 . S
C3132 C3133 1.377 . S
C3133 H3117 0.930 . S
C3133 C3132 1.377 . S
C3133 C3134 1.379 . S
C3134 H3118 0.931 . S
C3134 C3128 1.383 . S
C3134 C3133 1.379 . S
H3135 C3129 0.959 . S
H3136 C3129 0.961 . S
H3137 C3129 0.960 . S
H3138 C3130 0.930 . S
H3139 C3131 0.929 . S
H3140 C3148 0.929 . S
H3141 C3150 0.930 . S
H3142 C3152 0.930 . S
H3143 C3155 0.929 . S
H3144 C3158 0.930 . S
H3145 C3160 0.960 1_455 S
H3146 C3160 0.960 . S
H3147 C3160 0.956 1_455 S
C3148 H3140 0.929 . S
C3148 C3149 1.377 . S
C3148 C3150 1.384 . S
C3149 C3148 1.377 . S
C3149 C3155 1.390 . S
C3150 H3141 0.930 . S
C3150 C3148 1.384 . S
C3150 C3151 1.372 . S
C3151 C3150 1.372 . S
C3151 C3152 1.400 . S
C3151 C3156 1.490 . S
C3152 H3142 0.930 . S
C3152 C3151 1.400 . S
C3152 C3155 1.386 . S
H3153 C3169 0.930 . S
H3154 C3170 0.931 . S
C3155 H3143 0.929 . S
C3155 C3149 1.390 . S
C3155 C3152 1.386 . S
C3156 C3151 1.490 . S
C3156 C3158 1.395 . S
C3156 C3159 1.403 . S
H3157 C3163 0.930 . S
C3158 H3144 0.930 . S
C3158 C3156 1.395 . S
C3158 C3161 1.403 . S
C3159 C3156 1.403 . S
C3159 C3160 1.524 . S
C3159 C3163 1.400 1_655 S
C3160 H3145 0.960 1_655 S
C3160 H3146 0.960 . S
C3160 H3147 0.956 1_655 S
C3160 C3159 1.524 . S
C3161 C3158 1.403 . S
C3161 C3162 1.392 1_655 S
C3161 C3165 1.495 . S
C3162 C3161 1.392 1_455 S
C3162 C3163 1.385 . S
C3162 C3164 1.478 . S
C3163 H3157 0.930 . S
C3163 C3159 1.400 1_455 S
C3163 C3162 1.385 . S
C3164 C3162 1.478 . S
C3164 C3166 1.381 . S
C3164 C3170 1.383 . S
C3165 C3161 1.495 . S
C3165 H3171 0.959 . S
C3165 H3172 0.961 1_655 S
C3165 H3173 0.960 . S
C3166 C3164 1.381 . S
C3166 C3167 1.394 . S
C3166 H3174 0.930 . S
C3167 C3166 1.394 . S
C3167 C3168 1.383 . S
C3167 H3175 0.929 . S
C3168 C3167 1.383 . S
C3168 C3169 1.377 . S
C3169 H3153 0.930 . S
C3169 C3168 1.377 . S
C3169 C3170 1.379 . S
C3170 H3154 0.931 . S
C3170 C3164 1.383 . S
C3170 C3169 1.379 . S
H3171 C3165 0.959 . S
H3172 C3165 0.961 1_455 S
H3173 C3165 0.960 . S
H3174 C3166 0.930 . S
H3175 C3167 0.929 . S
H3176 C3184 0.929 . S
H3177 C3186 0.930 . S
H3178 C3188 0.930 . S
H3179 C3191 0.929 . S
H3180 C3194 0.930 . S
H3181 C3196 0.960 . S
H3182 C3196 0.960 . S
H3183 C3196 0.960 . S
C3184 H3176 0.929 . S
C3184 C3185 1.377 . S
C3184 C3186 1.384 . S
C3185 C3184 1.377 . S
C3185 C3191 1.390 . S
C3186 H3177 0.930 . S
C3186 C3184 1.384 . S
C3186 C3187 1.372 . S
C3187 C3186 1.372 . S
C3187 C3188 1.400 . S
C3187 C3192 1.490 . S
C3188 H3178 0.930 . S
C3188 C3187 1.400 . S
C3188 C3191 1.386 . S
H3189 C3205 0.930 . S
H3190 C3206 0.931 . S
C3191 H3179 0.929 . S
C3191 C3185 1.390 . S
C3191 C3188 1.386 . S
C3192 C3187 1.490 . S
C3192 C3194 1.395 1_655 S
C3192 C3195 1.403 . S
H3193 C3199 0.929 1_655 S
C3194 H3180 0.930 . S
C3194 C3192 1.395 1_455 S
C3194 C3197 1.403 . S
C3195 C3192 1.403 . S
C3195 C3196 1.524 . S
C3195 C3199 1.397 1_655 S
C3196 H3181 0.960 . S
C3196 H3182 0.960 . S
C3196 H3183 0.960 . S
C3196 C3195 1.524 . S
C3197 C3194 1.403 . S
C3197 C3198 1.392 . S
C3197 C3201 1.495 . S
C3198 C3197 1.392 . S
C3198 C3199 1.388 . S
C3198 C3200 1.478 . S
C3199 H3193 0.929 1_455 S
C3199 C3195 1.397 1_455 S
C3199 C3198 1.388 . S
C3200 C3198 1.478 . S
C3200 C3202 1.381 . S
C3200 C3206 1.383 . S
C3201 C3197 1.495 . S
C3201 H3207 0.959 . S
C3201 H3208 0.961 . S
C3201 H3209 0.960 . S
C3202 C3200 1.381 . S
C3202 C3203 1.394 . S
C3202 H3210 0.930 . S
C3203 C3202 1.394 . S
C3203 C3204 1.383 . S
C3203 H3211 0.929 . S
C3204 C3203 1.383 . S
C3204 C3205 1.377 . S
C3205 H3189 0.930 . S
C3205 C3204 1.377 . S
C3205 C3206 1.379 . S
C3206 H3190 0.931 . S
C3206 C3200 1.383 . S
C3206 C3205 1.379 . S
H3207 C3201 0.959 . S
H3208 C3201 0.961 . S
H3209 C3201 0.960 . S
H3210 C3202 0.930 . S
H3211 C3203 0.929 . S
H3212 C3220 0.929 . S
H3213 C3222 0.930 . S
H3214 C3224 0.930 . S
H3215 C3227 0.929 . S
H3216 C3230 0.930 . S
H3217 C3232 0.960 . S
H3218 C3232 0.960 . S
H3219 C3232 0.960 . S
C3220 H3212 0.929 . S
C3220 C3221 1.377 . S
C3220 C3222 1.384 . S
C3221 C3220 1.377 . S
C3221 C3227 1.390 . S
C3222 H3213 0.930 . S
C3222 C3220 1.384 . S
C3222 C3223 1.372 . S
C3223 C3222 1.372 . S
C3223 C3224 1.400 . S
C3223 C3228 1.490 . S
C3224 H3214 0.930 . S
C3224 C3223 1.400 . S
C3224 C3227 1.386 . S
H3225 C3241 0.930 . S
H3226 C3242 0.931 . S
C3227 H3215 0.929 . S
C3227 C3221 1.390 . S
C3227 C3224 1.386 . S
C3228 C3223 1.490 . S
C3228 C3230 1.395 . S
C3228 C3231 1.403 . S
H3229 C3235 0.930 . S
C3230 H3216 0.930 . S
C3230 C3228 1.395 . S
C3230 C3233 1.403 . S
C3231 C3228 1.403 . S
C3231 C3232 1.524 . S
C3231 C3235 1.400 . S
C3232 H3217 0.960 . S
C3232 H3218 0.960 . S
C3232 H3219 0.960 . S
C3232 C3231 1.524 . S
C3233 C3230 1.403 . S
C3233 C3234 1.392 . S
C3233 C3237 1.495 . S
C3234 C3233 1.392 . S
C3234 C3235 1.385 . S
C3234 C3236 1.478 . S
C3235 H3229 0.930 . S
C3235 C3231 1.400 . S
C3235 C3234 1.385 . S
C3236 C3234 1.478 . S
C3236 C3238 1.381 . S
C3236 C3242 1.383 . S
C3237 C3233 1.495 . S
C3237 H3243 0.959 . S
C3237 H3244 0.961 . S
C3237 H3245 0.960 . S
C3238 C3236 1.381 . S
C3238 C3239 1.394 . S
C3238 H3246 0.930 . S
C3239 C3238 1.394 . S
C3239 C3240 1.383 . S
C3239 H3247 0.929 . S
C3240 C3239 1.383 . S
C3240 C3241 1.377 . S
C3241 H3225 0.930 . S
C3241 C3240 1.377 . S
C3241 C3242 1.379 . S
C3242 H3226 0.931 . S
C3242 C3236 1.383 . S
C3242 C3241 1.379 . S
H3243 C3237 0.959 . S
H3244 C3237 0.961 . S
H3245 C3237 0.960 . S
H3246 C3238 0.930 . S
H3247 C3239 0.929 . S
H3248 C3256 0.929 . S
H3249 C3258 0.930 . S
H3250 C3260 0.930 . S
H3251 C3263 0.929 . S
H3252 C3266 0.930 . S
H3253 C3268 0.960 . S
H3254 C3268 0.960 . S
H3255 C3268 0.960 . S
C3256 H3248 0.929 . S
C3256 C3257 1.377 . S
C3256 C3258 1.384 . S
C3257 C3256 1.377 . S
C3257 C3263 1.390 . S
C3258 H3249 0.930 . S
C3258 C3256 1.384 . S
C3258 C3259 1.372 . S
C3259 C3258 1.372 . S
C3259 C3260 1.400 . S
C3259 C3264 1.490 . S
C3260 H3250 0.930 . S
C3260 C3259 1.400 . S
C3260 C3263 1.386 . S
H3261 C3277 0.930 . S
H3262 C3278 0.931 . S
C3263 H3251 0.929 . S
C3263 C3257 1.390 . S
C3263 C3260 1.386 . S
C3264 C3259 1.490 . S
C3264 C3266 1.395 . S
C3264 C3267 1.403 . S
H3265 C3271 0.930 . S
C3266 H3252 0.930 . S
C3266 C3264 1.395 . S
C3266 C3269 1.403 . S
C3267 C3264 1.403 . S
C3267 C3268 1.524 . S
C3267 C3271 1.400 . S
C3268 H3253 0.960 . S
C3268 H3254 0.960 . S
C3268 H3255 0.960 . S
C3268 C3267 1.524 . S
C3269 C3266 1.403 . S
C3269 C3270 1.392 . S
C3269 C3273 1.495 . S
C3270 C3269 1.392 . S
C3270 C3271 1.385 . S
C3270 C3272 1.478 . S
C3271 H3265 0.930 . S
C3271 C3267 1.400 . S
C3271 C3270 1.385 . S
C3272 C3270 1.478 . S
C3272 C3274 1.381 . S
C3272 C3278 1.383 . S
C3273 C3269 1.495 . S
C3273 H3279 0.959 . S
C3273 H3280 0.961 . S
C3273 H3281 0.960 . S
C3274 C3272 1.381 . S
C3274 C3275 1.394 . S
C3274 H3282 0.930 . S
C3275 C3274 1.394 . S
C3275 C3276 1.383 . S
C3275 H3283 0.929 . S
C3276 C3275 1.383 . S
C3276 C3277 1.377 . S
C3277 H3261 0.930 . S
C3277 C3276 1.377 . S
C3277 C3278 1.379 . S
C3278 H3262 0.931 . S
C3278 C3272 1.383 . S
C3278 C3277 1.379 . S
H3279 C3273 0.959 . S
H3280 C3273 0.961 . S
H3281 C3273 0.960 . S
H3282 C3274 0.930 . S
H3283 C3275 0.929 . S
H3284 C3292 0.929 . S
H3285 C3294 0.930 . S
H3286 C3296 0.930 . S
H3287 C3299 0.929 . S
H3288 C3302 0.930 . S
H3289 C3304 0.960 . S
H3290 C3304 0.960 . S
H3291 C3304 0.960 . S
C3292 H3284 0.929 . S
C3292 C3293 1.377 . S
C3292 C3294 1.384 . S
C3293 C3292 1.377 . S
C3293 C3299 1.390 . S
C3294 H3285 0.930 . S
C3294 C3292 1.384 . S
C3294 C3295 1.372 . S
C3295 C3294 1.372 . S
C3295 C3296 1.400 . S
C3295 C3300 1.490 . S
C3296 H3286 0.930 . S
C3296 C3295 1.400 . S
C3296 C3299 1.386 . S
H3297 C3313 0.930 . S
H3298 C3314 0.931 . S
C3299 H3287 0.929 . S
C3299 C3293 1.390 . S
C3299 C3296 1.386 . S
C3300 C3295 1.490 . S
C3300 C3302 1.395 . S
C3300 C3303 1.403 . S
H3301 C3307 0.930 . S
C3302 H3288 0.930 . S
C3302 C3300 1.395 . S
C3302 C3305 1.403 . S
C3303 C3300 1.403 . S
C3303 C3304 1.524 . S
C3303 C3307 1.400 . S
C3304 H3289 0.960 . S
C3304 H3290 0.960 . S
C3304 H3291 0.960 . S
C3304 C3303 1.524 . S
C3305 C3302 1.403 . S
C3305 C3306 1.392 . S
C3305 C3309 1.495 . S
C3306 C3305 1.392 . S
C3306 C3307 1.385 . S
C3306 C3308 1.478 . S
C3307 H3301 0.930 . S
C3307 C3303 1.400 . S
C3307 C3306 1.385 . S
C3308 C3306 1.478 . S
C3308 C3310 1.381 . S
C3308 C3314 1.383 . S
C3309 C3305 1.495 . S
C3309 H3315 0.959 . S
C3309 H3316 0.961 . S
C3309 H3317 0.960 . S
C3310 C3308 1.381 . S
C3310 C3311 1.394 . S
C3310 H3318 0.930 . S
C3311 C3310 1.394 . S
C3311 C3312 1.383 . S
C3311 H3319 0.929 . S
C3312 C3311 1.383 . S
C3312 C3313 1.377 . S
C3313 H3297 0.930 . S
C3313 C3312 1.377 . S
C3313 C3314 1.379 . S
C3314 H3298 0.931 . S
C3314 C3308 1.383 . S
C3314 C3313 1.379 . S
H3315 C3309 0.959 . S
H3316 C3309 0.961 . S
H3317 C3309 0.960 . S
H3318 C3310 0.930 . S
H3319 C3311 0.929 . S
H3320 C3328 0.929 . S
H3321 C3330 0.930 . S
H3322 C3332 0.930 . S
H3323 C3335 0.929 . S
H3324 C3338 0.930 . S
H3325 C3340 0.960 . S
H3326 C3340 0.960 . S
H3327 C3340 0.960 . S
C3328 H3320 0.929 . S
C3328 C3329 1.377 . S
C3328 C3330 1.384 . S
C3329 C3328 1.377 . S
C3329 C3335 1.390 . S
C3330 H3321 0.930 . S
C3330 C3328 1.384 . S
C3330 C3331 1.372 . S
C3331 C3330 1.372 . S
C3331 C3332 1.400 . S
C3331 C3336 1.490 . S
C3332 H3322 0.930 . S
C3332 C3331 1.400 . S
C3332 C3335 1.386 . S
H3333 C3349 0.930 . S
H3334 C3350 0.931 . S
C3335 H3323 0.929 . S
C3335 C3329 1.390 . S
C3335 C3332 1.386 . S
C3336 C3331 1.490 . S
C3336 C3338 1.395 1_655 S
C3336 C3339 1.403 . S
H3337 C3343 0.930 . S
C3338 H3324 0.930 . S
C3338 C3336 1.395 1_455 S
C3338 C3341 1.403 . S
C3339 C3336 1.403 . S
C3339 C3340 1.524 . S
C3339 C3343 1.400 . S
C3340 H3325 0.960 . S
C3340 H3326 0.960 . S
C3340 H3327 0.960 . S
C3340 C3339 1.524 . S
C3341 C3338 1.403 . S
C3341 C3342 1.392 . S
C3341 C3345 1.495 . S
C3342 C3341 1.392 . S
C3342 C3343 1.385 1_455 S
C3342 C3344 1.478 . S
C3343 H3337 0.930 . S
C3343 C3339 1.400 . S
C3343 C3342 1.385 1_655 S
C3344 C3342 1.478 . S
C3344 C3346 1.381 . S
C3344 C3350 1.383 . S
C3345 C3341 1.495 . S
C3345 H3351 0.959 . S
C3345 H3352 0.961 . S
C3345 H3353 0.960 . S
C3346 C3344 1.381 . S
C3346 C3347 1.394 . S
C3346 H3354 0.930 . S
C3347 C3346 1.394 . S
C3347 C3348 1.383 . S
C3347 H3355 0.929 . S
C3348 C3347 1.383 . S
C3348 C3349 1.377 . S
C3349 H3333 0.930 . S
C3349 C3348 1.377 . S
C3349 C3350 1.379 . S
C3350 H3334 0.931 . S
C3350 C3344 1.383 . S
C3350 C3349 1.379 . S
H3351 C3345 0.959 . S
H3352 C3345 0.961 . S
H3353 C3345 0.960 . S
H3354 C3346 0.930 . S
H3355 C3347 0.929 . S
H3356 C3364 0.929 . S
H3357 C3366 0.930 . S
H3358 C3368 0.930 . S
H3359 C3371 0.929 . S
H3360 C3374 0.930 . S
H3361 C3376 0.960 . S
H3362 C3376 0.960 . S
H3363 C3376 0.960 . S
C3364 H3356 0.929 . S
C3364 C3365 1.377 . S
C3364 C3366 1.384 . S
C3365 C3364 1.377 . S
C3365 C3371 1.390 . S
C3366 H3357 0.930 . S
C3366 C3364 1.384 . S
C3366 C3367 1.372 . S
C3367 C3366 1.372 . S
C3367 C3368 1.400 . S
C3367 C3372 1.490 . S
C3368 H3358 0.930 . S
C3368 C3367 1.400 . S
C3368 C3371 1.386 . S
H3369 C3385 0.930 . S
H3370 C3386 0.931 . S
C3371 H3359 0.929 . S
C3371 C3365 1.390 . S
C3371 C3368 1.386 . S
C3372 C3367 1.490 . S
C3372 C3374 1.395 1_655 S
C3372 C3375 1.403 . S
H3373 C3379 0.930 . S
C3374 H3360 0.930 . S
C3374 C3372 1.395 1_455 S
C3374 C3377 1.403 . S
C3375 C3372 1.403 . S
C3375 C3376 1.524 . S
C3375 C3379 1.400 . S
C3376 H3361 0.960 . S
C3376 H3362 0.960 . S
C3376 H3363 0.960 . S
C3376 C3375 1.524 . S
C3377 C3374 1.403 . S
C3377 C3378 1.392 . S
C3377 C3381 1.495 . S
C3378 C3377 1.392 . S
C3378 C3379 1.385 1_455 S
C3378 C3380 1.478 . S
C3379 H3373 0.930 . S
C3379 C3375 1.400 . S
C3379 C3378 1.385 1_655 S
C3380 C3378 1.478 . S
C3380 C3382 1.381 . S
C3380 C3386 1.383 . S
C3381 C3377 1.495 . S
C3381 H3387 0.959 . S
C3381 H3388 0.961 . S
C3381 H3389 0.960 . S
C3382 C3380 1.381 . S
C3382 C3383 1.394 . S
C3382 H3390 0.930 . S
C3383 C3382 1.394 . S
C3383 C3384 1.383 . S
C3383 H3391 0.929 . S
C3384 C3383 1.383 . S
C3384 C3385 1.377 . S
C3385 H3369 0.930 . S
C3385 C3384 1.377 . S
C3385 C3386 1.379 . S
C3386 H3370 0.931 . S
C3386 C3380 1.383 . S
C3386 C3385 1.379 . S
H3387 C3381 0.959 . S
H3388 C3381 0.961 . S
H3389 C3381 0.960 . S
H3390 C3382 0.930 . S
H3391 C3383 0.929 . S
H3392 C3400 0.929 . S
H3393 C3402 0.930 . S
H3394 C3404 0.930 . S
H3395 C3407 0.929 . S
H3396 C3410 0.930 . S
H3397 C3412 0.960 . S
H3398 C3412 0.960 . S
H3399 C3412 0.960 1_565 S
C3400 H3392 0.929 . S
C3400 C3401 1.377 . S
C3400 C3402 1.384 . S
C3401 C3400 1.377 . S
C3401 C3407 1.390 . S
C3402 H3393 0.930 . S
C3402 C3400 1.384 . S
C3402 C3403 1.372 . S
C3403 C3402 1.372 . S
C3403 C3404 1.400 . S
C3403 C3408 1.490 . S
C3404 H3394 0.930 . S
C3404 C3403 1.400 . S
C3404 C3407 1.386 . S
H3405 C3421 0.930 . S
H3406 C3422 0.931 . S
C3407 H3395 0.929 . S
C3407 C3401 1.390 . S
C3407 C3404 1.386 . S
C3408 C3403 1.490 . S
C3408 C3410 1.395 . S
C3408 C3411 1.403 1_565 S
H3409 C3415 0.930 . S
C3410 H3396 0.930 . S
C3410 C3408 1.395 . S
C3410 C3413 1.403 . S
C3411 C3408 1.403 1_545 S
C3411 C3412 1.524 . S
C3411 C3415 1.400 . S
C3412 H3397 0.960 . S
C3412 H3398 0.960 . S
C3412 H3399 0.960 1_545 S
C3412 C3411 1.524 . S
C3413 C3410 1.403 . S
C3413 C3414 1.392 1_565 S
C3413 C3417 1.495 . S
C3414 C3413 1.392 1_545 S
C3414 C3415 1.385 . S
C3414 C3416 1.478 . S
C3415 H3409 0.930 . S
C3415 C3411 1.400 . S
C3415 C3414 1.385 . S
C3416 C3414 1.478 . S
C3416 C3418 1.381 . S
C3416 C3422 1.383 . S
C3417 C3413 1.495 . S
C3417 H3423 0.959 . S
C3417 H3424 0.961 . S
C3417 H3425 0.960 1_565 S
C3418 C3416 1.381 . S
C3418 C3419 1.394 . S
C3418 H3426 0.930 . S
C3419 C3418 1.394 . S
C3419 C3420 1.383 . S
C3419 H3427 0.929 . S
C3420 C3419 1.383 . S
C3420 C3421 1.377 . S
C3421 H3405 0.930 . S
C3421 C3420 1.377 . S
C3421 C3422 1.379 . S
C3422 H3406 0.931 . S
C3422 C3416 1.383 . S
C3422 C3421 1.379 . S
H3423 C3417 0.959 . S
H3424 C3417 0.961 . S
H3425 C3417 0.960 1_545 S
H3426 C3418 0.930 . S
H3427 C3419 0.929 . S
H3428 C3436 0.929 . S
H3429 C3438 0.930 . S
H3430 C3440 0.930 . S
H3431 C3443 0.929 . S
H3432 C3446 0.930 . S
H3433 C3448 0.960 . S
H3434 C3448 0.960 . S
H3435 C3448 0.960 . S
C3436 H3428 0.929 . S
C3436 C3437 1.377 . S
C3436 C3438 1.384 . S
C3437 C3436 1.377 . S
C3437 C3443 1.390 . S
C3438 H3429 0.930 . S
C3438 C3436 1.384 . S
C3438 C3439 1.372 . S
C3439 C3438 1.372 . S
C3439 C3440 1.400 . S
C3439 C3444 1.490 . S
C3440 H3430 0.930 . S
C3440 C3439 1.400 . S
C3440 C3443 1.386 . S
H3441 C3457 0.930 . S
H3442 C3458 0.931 . S
C3443 H3431 0.929 . S
C3443 C3437 1.390 . S
C3443 C3440 1.386 . S
C3444 C3439 1.490 . S
C3444 C3446 1.395 . S
C3444 C3447 1.403 . S
H3445 C3451 0.930 . S
C3446 H3432 0.930 . S
C3446 C3444 1.395 . S
C3446 C3449 1.403 . S
C3447 C3444 1.403 . S
C3447 C3448 1.524 . S
C3447 C3451 1.400 . S
C3448 H3433 0.960 . S
C3448 H3434 0.960 . S
C3448 H3435 0.960 . S
C3448 C3447 1.524 . S
C3449 C3446 1.403 . S
C3449 C3450 1.392 . S
C3449 C3453 1.495 . S
C3450 C3449 1.392 . S
C3450 C3451 1.385 . S
C3450 C3452 1.478 . S
C3451 H3445 0.930 . S
C3451 C3447 1.400 . S
C3451 C3450 1.385 . S
C3452 C3450 1.478 . S
C3452 C3454 1.381 . S
C3452 C3458 1.383 . S
C3453 C3449 1.495 . S
C3453 H3459 0.959 . S
C3453 H3460 0.961 . S
C3453 H3461 0.960 . S
C3454 C3452 1.381 . S
C3454 C3455 1.394 . S
C3454 H3462 0.930 . S
C3455 C3454 1.394 . S
C3455 C3456 1.383 . S
C3455 H3463 0.929 . S
C3456 C3455 1.383 . S
C3456 C3457 1.377 . S
C3457 H3441 0.930 . S
C3457 C3456 1.377 . S
C3457 C3458 1.379 . S
C3458 H3442 0.931 . S
C3458 C3452 1.383 . S
C3458 C3457 1.379 . S
H3459 C3453 0.959 . S
H3460 C3453 0.961 . S
H3461 C3453 0.960 . S
H3462 C3454 0.930 . S
H3463 C3455 0.929 . S
H3464 C3472 0.929 . S
H3465 C3474 0.930 . S
H3466 C3476 0.930 . S
H3467 C3479 0.929 . S
H3468 C3482 0.929 1_565 S
H3469 C3484 0.960 . S
H3470 C3484 0.960 . S
H3471 C3484 0.960 . S
C3472 H3464 0.929 . S
C3472 C3473 1.377 . S
C3472 C3474 1.384 . S
C3473 C3472 1.377 . S
C3473 C3479 1.390 . S
C3474 H3465 0.930 . S
C3474 C3472 1.384 . S
C3474 C3475 1.372 . S
C3475 C3474 1.372 . S
C3475 C3476 1.400 . S
C3475 C3480 1.490 . S
C3476 H3466 0.930 . S
C3476 C3475 1.400 . S
C3476 C3479 1.386 . S
H3477 C3493 0.930 . S
H3478 C3494 0.931 . S
C3479 H3467 0.929 . S
C3479 C3473 1.390 . S
C3479 C3476 1.386 . S
C3480 C3475 1.490 . S
C3480 C3482 1.372 1_565 S
C3480 C3483 1.403 . S
H3481 C3487 0.930 . S
C3482 H3468 0.929 1_545 S
C3482 C3480 1.372 1_545 S
C3482 C3485 1.427 . S
C3483 C3480 1.403 . S
C3483 C3484 1.524 . S
C3483 C3487 1.400 1_565 S
C3484 H3469 0.960 . S
C3484 H3470 0.960 . S
C3484 H3471 0.960 . S
C3484 C3483 1.524 . S
C3485 C3482 1.427 . S
C3485 C3486 1.392 . S
C3485 C3489 1.495 . S
C3486 C3485 1.392 . S
C3486 C3487 1.385 . S
C3486 C3488 1.478 . S
C3487 H3481 0.930 . S
C3487 C3483 1.400 1_545 S
C3487 C3486 1.385 . S
C3488 C3486 1.478 . S
C3488 C3490 1.381 . S
C3488 C3494 1.383 . S
C3489 C3485 1.495 . S
C3489 H3495 0.959 . S
C3489 H3496 0.961 . S
C3489 H3497 0.960 . S
C3490 C3488 1.381 . S
C3490 C3491 1.394 . S
C3490 H3498 0.930 . S
C3491 C3490 1.394 . S
C3491 C3492 1.383 . S
C3491 H3499 0.929 . S
C3492 C3491 1.383 . S
C3492 C3493 1.377 . S
C3493 H3477 0.930 . S
C3493 C3492 1.377 . S
C3493 C3494 1.379 . S
C3494 H3478 0.931 . S
C3494 C3488 1.383 . S
C3494 C3493 1.379 . S
H3495 C3489 0.959 . S
H3496 C3489 0.961 . S
H3497 C3489 0.960 . S
H3498 C3490 0.930 . S
H3499 C3491 0.929 . S
H3500 C3508 0.929 . S
H3501 C3510 0.930 . S
H3502 C3512 0.930 . S
H3503 C3515 0.929 . S
H3504 C3518 0.930 . S
H3505 C3520 0.960 . S
H3506 C3520 0.960 . S
H3507 C3520 0.960 . S
C3508 H3500 0.929 . S
C3508 C3509 1.377 . S
C3508 C3510 1.384 . S
C3509 C3508 1.377 . S
C3509 C3515 1.390 . S
C3510 H3501 0.930 . S
C3510 C3508 1.384 . S
C3510 C3511 1.372 . S
C3511 C3510 1.372 . S
C3511 C3512 1.400 . S
C3511 C3516 1.490 . S
C3512 H3502 0.930 . S
C3512 C3511 1.400 . S
C3512 C3515 1.386 . S
H3513 C3529 0.930 . S
H3514 C3530 0.931 . S
C3515 H3503 0.929 . S
C3515 C3509 1.390 . S
C3515 C3512 1.386 . S
C3516 C3511 1.490 . S
C3516 C3518 1.395 . S
C3516 C3519 1.403 1_554 S
H3517 C3523 0.930 . S
C3518 H3504 0.930 . S
C3518 C3516 1.395 . S
C3518 C3521 1.403 . S
C3519 C3516 1.403 1_556 S
C3519 C3520 1.524 . S
C3519 C3523 1.400 . S
C3520 H3505 0.960 . S
C3520 H3506 0.960 . S
C3520 H3507 0.960 . S
C3520 C3519 1.524 . S
C3521 C3518 1.403 . S
C3521 C3522 1.392 1_554 S
C3521 C3525 1.495 . S
C3522 C3521 1.392 1_556 S
C3522 C3523 1.385 . S
C3522 C3524 1.478 . S
C3523 H3517 0.930 . S
C3523 C3519 1.400 . S
C3523 C3522 1.385 . S
C3524 C3522 1.478 . S
C3524 C3526 1.381 . S
C3524 C3530 1.383 . S
C3525 C3521 1.495 . S
C3525 H3531 0.959 . S
C3525 H3532 0.961 . S
C3525 H3533 0.960 . S
C3526 C3524 1.381 . S
C3526 C3527 1.394 . S
C3526 H3534 0.930 . S
C3527 C3526 1.394 . S
C3527 C3528 1.383 . S
C3527 H3535 0.929 . S
C3528 C3527 1.383 . S
C3528 C3529 1.377 . S
C3529 H3513 0.930 . S
C3529 C3528 1.377 . S
C3529 C3530 1.379 . S
C3530 H3514 0.931 . S
C3530 C3524 1.383 . S
C3530 C3529 1.379 . S
H3531 C3525 0.959 . S
H3532 C3525 0.961 . S
H3533 C3525 0.960 . S
H3534 C3526 0.930 . S
H3535 C3527 0.929 . S
H3536 C3544 0.929 . S
H3537 C3546 0.930 . S
H3538 C3548 0.930 . S
H3539 C3551 0.929 . S
H3540 C3554 0.930 . S
H3541 C3556 0.960 . S
H3542 C3556 0.960 . S
H3543 C3556 0.960 . S
C3544 H3536 0.929 . S
C3544 C3545 1.377 . S
C3544 C3546 1.384 . S
C3545 C3544 1.377 . S
C3545 C3551 1.390 . S
C3546 H3537 0.930 . S
C3546 C3544 1.384 . S
C3546 C3547 1.372 . S
C3547 C3546 1.372 . S
C3547 C3548 1.400 . S
C3547 C3552 1.490 . S
C3548 H3538 0.930 . S
C3548 C3547 1.400 . S
C3548 C3551 1.386 . S
H3549 C3565 0.930 . S
H3550 C3566 0.931 . S
C3551 H3539 0.929 . S
C3551 C3545 1.390 . S
C3551 C3548 1.386 . S
C3552 C3547 1.490 . S
C3552 C3554 1.395 . S
C3552 C3555 1.403 . S
H3553 C3559 0.930 . S
C3554 H3540 0.930 . S
C3554 C3552 1.395 . S
C3554 C3557 1.403 1_565 S
C3555 C3552 1.403 . S
C3555 C3556 1.524 . S
C3555 C3559 1.400 1_565 S
C3556 H3541 0.960 . S
C3556 H3542 0.960 . S
C3556 H3543 0.960 . S
C3556 C3555 1.524 . S
C3557 C3554 1.403 1_545 S
C3557 C3558 1.392 . S
C3557 C3561 1.495 . S
C3558 C3557 1.392 . S
C3558 C3559 1.385 . S
C3558 C3560 1.478 . S
C3559 H3553 0.930 . S
C3559 C3555 1.400 1_545 S
C3559 C3558 1.385 . S
C3560 C3558 1.478 . S
C3560 C3562 1.381 . S
C3560 C3566 1.383 . S
C3561 C3557 1.495 . S
C3561 H3567 0.959 . S
C3561 H3568 0.961 . S
C3561 H3569 0.960 . S
C3562 C3560 1.381 . S
C3562 C3563 1.394 . S
C3562 H3570 0.930 . S
C3563 C3562 1.394 . S
C3563 C3564 1.383 . S
C3563 H3571 0.929 . S
C3564 C3563 1.383 . S
C3564 C3565 1.377 . S
C3565 H3549 0.930 . S
C3565 C3564 1.377 . S
C3565 C3566 1.379 . S
C3566 H3550 0.931 . S
C3566 C3560 1.383 . S
C3566 C3565 1.379 . S
H3567 C3561 0.959 . S
H3568 C3561 0.961 . S
H3569 C3561 0.960 . S
H3570 C3562 0.930 . S
H3571 C3563 0.929 . S
H3572 C3580 0.929 . S
H3573 C3582 0.930 . S
H3574 C3584 0.930 . S
H3575 C3587 0.929 . S
H3576 C3590 0.930 . S
H3577 C3592 0.960 . S
H3578 C3592 0.960 . S
H3579 C3592 0.960 . S
C3580 H3572 0.929 . S
C3580 C3581 1.377 . S
C3580 C3582 1.384 . S
C3581 C3580 1.377 . S
C3581 C3587 1.390 . S
C3582 H3573 0.930 . S
C3582 C3580 1.384 . S
C3582 C3583 1.372 . S
C3583 C3582 1.372 . S
C3583 C3584 1.400 . S
C3583 C3588 1.490 . S
C3584 H3574 0.930 . S
C3584 C3583 1.400 . S
C3584 C3587 1.386 . S
H3585 C3601 0.930 . S
H3586 C3602 0.931 . S
C3587 H3575 0.929 . S
C3587 C3581 1.390 . S
C3587 C3584 1.386 . S
C3588 C3583 1.490 . S
C3588 C3590 1.395 . S
C3588 C3591 1.403 . S
H3589 C3595 0.930 . S
C3590 H3576 0.930 . S
C3590 C3588 1.395 . S
C3590 C3593 1.403 . S
C3591 C3588 1.403 . S
C3591 C3592 1.524 . S
C3591 C3595 1.400 . S
C3592 H3577 0.960 . S
C3592 H3578 0.960 . S
C3592 H3579 0.960 . S
C3592 C3591 1.524 . S
C3593 C3590 1.403 . S
C3593 C3594 1.392 . S
C3593 C3597 1.495 . S
C3594 C3593 1.392 . S
C3594 C3595 1.385 . S
C3594 C3596 1.478 . S
C3595 H3589 0.930 . S
C3595 C3591 1.400 . S
C3595 C3594 1.385 . S
C3596 C3594 1.478 . S
C3596 C3598 1.381 . S
C3596 C3602 1.383 . S
C3597 C3593 1.495 . S
C3597 H3603 0.959 . S
C3597 H3604 0.961 . S
C3597 H3605 0.960 . S
C3598 C3596 1.381 . S
C3598 C3599 1.394 . S
C3598 H3606 0.930 . S
C3599 C3598 1.394 . S
C3599 C3600 1.383 . S
C3599 H3607 0.929 . S
C3600 C3599 1.383 . S
C3600 C3601 1.377 . S
C3601 H3585 0.930 . S
C3601 C3600 1.377 . S
C3601 C3602 1.379 . S
C3602 H3586 0.931 . S
C3602 C3596 1.383 . S
C3602 C3601 1.379 . S
H3603 C3597 0.959 . S
H3604 C3597 0.961 . S
H3605 C3597 0.960 . S
H3606 C3598 0.930 . S
H3607 C3599 0.929 . S
H3608 C3616 0.929 . S
H3609 C3618 0.930 . S
H3610 C3620 0.930 . S
H3611 C3623 0.929 . S
H3612 C3626 0.930 . S
H3613 C3628 0.960 . S
H3614 C3628 0.960 . S
H3615 C3628 0.960 1_545 S
C3616 H3608 0.929 . S
C3616 C3617 1.377 . S
C3616 C3618 1.384 . S
C3617 C3616 1.377 . S
C3617 C3623 1.390 . S
C3618 H3609 0.930 . S
C3618 C3616 1.384 . S
C3618 C3619 1.372 . S
C3619 C3618 1.372 . S
C3619 C3620 1.400 . S
C3619 C3624 1.490 . S
C3620 H3610 0.930 . S
C3620 C3619 1.400 . S
C3620 C3623 1.386 . S
H3621 C3637 0.930 . S
H3622 C3638 0.931 . S
C3623 H3611 0.929 . S
C3623 C3617 1.390 . S
C3623 C3620 1.386 . S
C3624 C3619 1.490 . S
C3624 C3626 1.395 . S
C3624 C3627 1.403 1_545 S
H3625 C3631 0.930 . S
C3626 H3612 0.930 . S
C3626 C3624 1.395 . S
C3626 C3629 1.403 . S
C3627 C3624 1.403 1_565 S
C3627 C3628 1.524 . S
C3627 C3631 1.400 . S
C3628 H3613 0.960 . S
C3628 H3614 0.960 . S
C3628 H3615 0.960 1_565 S
C3628 C3627 1.524 . S
C3629 C3626 1.403 . S
C3629 C3630 1.392 1_545 S
C3629 C3633 1.495 . S
C3630 C3629 1.392 1_565 S
C3630 C3631 1.385 . S
C3630 C3632 1.478 . S
C3631 H3625 0.930 . S
C3631 C3627 1.400 . S
C3631 C3630 1.385 . S
C3632 C3630 1.478 . S
C3632 C3634 1.381 . S
C3632 C3638 1.383 . S
C3633 C3629 1.495 . S
C3633 H3639 0.959 . S
C3633 H3640 0.961 . S
C3633 H3641 0.962 . S
C3634 C3632 1.381 . S
C3634 C3635 1.394 . S
C3634 H3642 0.930 . S
C3635 C3634 1.394 . S
C3635 C3636 1.383 . S
C3635 H3643 0.929 . S
C3636 C3635 1.383 . S
C3636 C3637 1.377 . S
C3637 H3621 0.930 . S
C3637 C3636 1.377 . S
C3637 C3638 1.379 . S
C3638 H3622 0.931 . S
C3638 C3632 1.383 . S
C3638 C3637 1.379 . S
H3639 C3633 0.959 . S
H3640 C3633 0.961 . S
H3641 C3633 0.962 . S
H3642 C3634 0.930 . S
H3643 C3635 0.929 . S
H3644 C3652 0.929 . S
H3645 C3654 0.930 . S
H3646 C3656 0.930 . S
H3647 C3659 0.929 . S
H3648 C3662 0.930 . S
H3649 C3664 0.960 . S
H3650 C3664 0.960 . S
H3651 C3664 0.960 . S
C3652 H3644 0.929 . S
C3652 C3653 1.377 . S
C3652 C3654 1.384 . S
C3653 C3652 1.377 . S
C3653 C3659 1.390 . S
C3654 H3645 0.930 . S
C3654 C3652 1.384 . S
C3654 C3655 1.372 . S
C3655 C3654 1.372 . S
C3655 C3656 1.400 . S
C3655 C3660 1.490 . S
C3656 H3646 0.930 . S
C3656 C3655 1.400 . S
C3656 C3659 1.386 . S
H3657 C3673 0.930 . S
H3658 C3674 0.931 . S
C3659 H3647 0.929 . S
C3659 C3653 1.390 . S
C3659 C3656 1.386 . S
C3660 C3655 1.490 . S
C3660 C3662 1.395 1_556 S
C3660 C3663 1.403 . S
H3661 C3667 0.927 1_556 S
C3662 H3648 0.930 . S
C3662 C3660 1.395 1_554 S
C3662 C3665 1.403 . S
C3663 C3660 1.403 . S
C3663 C3664 1.524 . S
C3663 C3667 1.396 1_556 S
C3664 H3649 0.960 . S
C3664 H3650 0.960 . S
C3664 H3651 0.960 . S
C3664 C3663 1.524 . S
C3665 C3662 1.403 . S
C3665 C3666 1.392 . S
C3665 C3669 1.495 . S
C3666 C3665 1.392 . S
C3666 C3667 1.390 . S
C3666 C3668 1.478 . S
C3667 H3661 0.927 1_554 S
C3667 C3663 1.396 1_554 S
C3667 C3666 1.390 . S
C3668 C3666 1.478 . S
C3668 C3670 1.381 . S
C3668 C3674 1.383 . S
C3669 C3665 1.495 . S
C3669 H3675 0.959 . S
C3669 H3676 0.961 . S
C3669 H3677 0.960 . S
C3670 C3668 1.381 . S
C3670 C3671 1.394 . S
C3670 H3678 0.930 . S
C3671 C3670 1.394 . S
C3671 C3672 1.383 . S
C3671 H3679 0.929 . S
C3672 C3671 1.383 . S
C3672 C3673 1.377 . S
C3673 H3657 0.930 . S
C3673 C3672 1.377 . S
C3673 C3674 1.379 . S
C3674 H3658 0.931 . S
C3674 C3668 1.383 . S
C3674 C3673 1.379 . S
H3675 C3669 0.959 . S
H3676 C3669 0.961 . S
H3677 C3669 0.960 . S
H3678 C3670 0.930 . S
H3679 C3671 0.929 . S
H3680 C3688 0.929 . S
H3681 C3690 0.930 . S
H3682 C3692 0.930 . S
H3683 C3695 0.929 . S
H3684 C3698 0.930 . S
H3685 C3700 0.960 . S
H3686 C3700 0.960 . S
H3687 C3700 0.960 . S
C3688 H3680 0.929 . S
C3688 C3689 1.377 . S
C3688 C3690 1.384 . S
C3689 C3688 1.377 . S
C3689 C3695 1.390 . S
C3690 H3681 0.930 . S
C3690 C3688 1.384 . S
C3690 C3691 1.372 . S
C3691 C3690 1.372 . S
C3691 C3692 1.400 . S
C3691 C3696 1.490 . S
C3692 H3682 0.930 . S
C3692 C3691 1.400 . S
C3692 C3695 1.386 . S
H3693 C3709 0.930 . S
H3694 C3710 0.931 . S
C3695 H3683 0.929 . S
C3695 C3689 1.390 . S
C3695 C3692 1.386 . S
C3696 C3691 1.490 . S
C3696 C3698 1.395 . S
C3696 C3699 1.403 . S
H3697 C3703 0.930 . S
C3698 H3684 0.930 . S
C3698 C3696 1.395 . S
C3698 C3701 1.403 . S
C3699 C3696 1.403 . S
C3699 C3700 1.524 . S
C3699 C3703 1.400 . S
C3700 H3685 0.960 . S
C3700 H3686 0.960 . S
C3700 H3687 0.960 . S
C3700 C3699 1.524 . S
C3701 C3698 1.403 . S
C3701 C3702 1.392 . S
C3701 C3705 1.495 . S
C3702 C3701 1.392 . S
C3702 C3703 1.385 . S
C3702 C3704 1.478 . S
C3703 H3697 0.930 . S
C3703 C3699 1.400 . S
C3703 C3702 1.385 . S
C3704 C3702 1.478 . S
C3704 C3706 1.381 . S
C3704 C3710 1.383 . S
C3705 C3701 1.495 . S
C3705 H3711 0.959 . S
C3705 H3712 0.961 . S
C3705 H3713 0.960 . S
C3706 C3704 1.381 . S
C3706 C3707 1.394 . S
C3706 H3714 0.930 . S
C3707 C3706 1.394 . S
C3707 C3708 1.383 . S
C3707 H3715 0.929 . S
C3708 C3707 1.383 . S
C3708 C3709 1.377 . S
C3709 H3693 0.930 . S
C3709 C3708 1.377 . S
C3709 C3710 1.379 . S
C3710 H3694 0.931 . S
C3710 C3704 1.383 . S
C3710 C3709 1.379 . S
H3711 C3705 0.959 . S
H3712 C3705 0.961 . S
H3713 C3705 0.960 . S
H3714 C3706 0.930 . S
H3715 C3707 0.929 . S
H3716 C3724 0.929 . S
H3717 C3726 0.930 . S
H3718 C3728 0.930 . S
H3719 C3731 0.929 . S
H3720 C3734 0.930 . S
H3721 C3736 0.960 . S
H3722 C3736 0.960 . S
H3723 C3736 0.960 . S
C3724 H3716 0.929 . S
C3724 C3725 1.377 . S
C3724 C3726 1.384 . S
C3725 C3724 1.377 . S
C3725 C3731 1.390 . S
C3726 H3717 0.930 . S
C3726 C3724 1.384 . S
C3726 C3727 1.372 . S
C3727 C3726 1.372 . S
C3727 C3728 1.400 . S
C3727 C3732 1.490 . S
C3728 H3718 0.930 . S
C3728 C3727 1.400 . S
C3728 C3731 1.386 . S
H3729 C3745 0.930 . S
H3730 C3746 0.931 . S
C3731 H3719 0.929 . S
C3731 C3725 1.390 . S
C3731 C3728 1.386 . S
C3732 C3727 1.490 . S
C3732 C3734 1.395 1_554 S
C3732 C3735 1.403 . S
H3733 C3739 0.930 . S
C3734 H3720 0.930 . S
C3734 C3732 1.395 1_556 S
C3734 C3737 1.403 . S
C3735 C3732 1.403 . S
C3735 C3736 1.524 . S
C3735 C3739 1.400 . S
C3736 H3721 0.960 . S
C3736 H3722 0.960 . S
C3736 H3723 0.960 . S
C3736 C3735 1.524 . S
C3737 C3734 1.403 . S
C3737 C3738 1.392 . S
C3737 C3741 1.495 . S
C3738 C3737 1.392 . S
C3738 C3739 1.385 1_556 S
C3738 C3740 1.478 . S
C3739 H3733 0.930 . S
C3739 C3735 1.400 . S
C3739 C3738 1.385 1_554 S
C3740 C3738 1.478 . S
C3740 C3742 1.381 . S
C3740 C3746 1.383 . S
C3741 C3737 1.495 . S
C3741 H3747 0.959 . S
C3741 H3748 0.961 . S
C3741 H3749 0.960 . S
C3742 C3740 1.381 . S
C3742 C3743 1.394 . S
C3742 H3750 0.930 . S
C3743 C3742 1.394 . S
C3743 C3744 1.383 . S
C3743 H3751 0.929 . S
C3744 C3743 1.383 . S
C3744 C3745 1.377 . S
C3745 H3729 0.930 . S
C3745 C3744 1.377 . S
C3745 C3746 1.379 . S
C3746 H3730 0.931 . S
C3746 C3740 1.383 . S
C3746 C3745 1.379 . S
H3747 C3741 0.959 . S
H3748 C3741 0.961 . S
H3749 C3741 0.960 . S
H3750 C3742 0.930 . S
H3751 C3743 0.929 . S
H3752 C3760 0.929 . S
H3753 C3762 0.930 . S
H3754 C3764 0.930 . S
H3755 C3767 0.929 . S
H3756 C3770 0.930 . S
H3757 C3772 0.960 . S
H3758 C3772 0.960 . S
H3759 C3772 0.960 . S
C3760 H3752 0.929 . S
C3760 C3761 1.377 . S
C3760 C3762 1.384 . S
C3761 C3760 1.377 . S
C3761 C3767 1.390 . S
C3762 H3753 0.930 . S
C3762 C3760 1.384 . S
C3762 C3763 1.372 . S
C3763 C3762 1.372 . S
C3763 C3764 1.400 . S
C3763 C3768 1.490 . S
C3764 H3754 0.930 . S
C3764 C3763 1.400 . S
C3764 C3767 1.386 . S
H3765 C3781 0.930 . S
H3766 C3782 0.931 . S
C3767 H3755 0.929 . S
C3767 C3761 1.390 . S
C3767 C3764 1.386 . S
C3768 C3763 1.490 . S
C3768 C3770 1.395 . S
C3768 C3771 1.403 . S
H3769 C3775 0.930 . S
C3770 H3756 0.930 . S
C3770 C3768 1.395 . S
C3770 C3773 1.403 . S
C3771 C3768 1.403 . S
C3771 C3772 1.524 . S
C3771 C3775 1.400 . S
C3772 H3757 0.960 . S
C3772 H3758 0.960 . S
C3772 H3759 0.960 . S
C3772 C3771 1.524 . S
C3773 C3770 1.403 . S
C3773 C3774 1.392 . S
C3773 C3777 1.495 . S
C3774 C3773 1.392 . S
C3774 C3775 1.385 . S
C3774 C3776 1.478 . S
C3775 H3769 0.930 . S
C3775 C3771 1.400 . S
C3775 C3774 1.385 . S
C3776 C3774 1.478 . S
C3776 C3778 1.381 . S
C3776 C3782 1.383 . S
C3777 C3773 1.495 . S
C3777 H3783 0.959 . S
C3777 H3784 0.961 . S
C3777 H3785 0.960 . S
C3778 C3776 1.381 . S
C3778 C3779 1.394 . S
C3778 H3786 0.930 . S
C3779 C3778 1.394 . S
C3779 C3780 1.383 . S
C3779 H3787 0.929 . S
C3780 C3779 1.383 . S
C3780 C3781 1.377 . S
C3781 H3765 0.930 . S
C3781 C3780 1.377 . S
C3781 C3782 1.379 . S
C3782 H3766 0.931 . S
C3782 C3776 1.383 . S
C3782 C3781 1.379 . S
H3783 C3777 0.959 . S
H3784 C3777 0.961 . S
H3785 C3777 0.960 . S
H3786 C3778 0.930 . S
H3787 C3779 0.929 . S
H3788 C3796 0.929 . S
H3789 C3798 0.930 . S
H3790 C3800 0.930 . S
H3791 C3803 0.929 . S
H3792 C3806 0.930 . S
H3793 C3808 0.960 . S
H3794 C3808 0.960 . S
H3795 C3808 0.960 . S
C3796 H3788 0.929 . S
C3796 C3797 1.377 . S
C3796 C3798 1.384 . S
C3797 C3796 1.377 . S
C3797 C3803 1.390 . S
C3798 H3789 0.930 . S
C3798 C3796 1.384 . S
C3798 C3799 1.372 . S
C3799 C3798 1.372 . S
C3799 C3800 1.400 . S
C3799 C3804 1.490 . S
C3800 H3790 0.930 . S
C3800 C3799 1.400 . S
C3800 C3803 1.386 . S
H3801 C3817 0.930 . S
H3802 C3818 0.931 . S
C3803 H3791 0.929 . S
C3803 C3797 1.390 . S
C3803 C3800 1.386 . S
C3804 C3799 1.490 . S
C3804 C3806 1.395 . S
C3804 C3807 1.403 . S
H3805 C3811 0.930 . S
C3806 H3792 0.930 . S
C3806 C3804 1.395 . S
C3806 C3809 1.403 . S
C3807 C3804 1.403 . S
C3807 C3808 1.524 . S
C3807 C3811 1.400 . S
C3808 H3793 0.960 . S
C3808 H3794 0.960 . S
C3808 H3795 0.960 . S
C3808 C3807 1.524 . S
C3809 C3806 1.403 . S
C3809 C3810 1.392 . S
C3809 C3813 1.495 . S
C3810 C3809 1.392 . S
C3810 C3811 1.385 . S
C3810 C3812 1.478 . S
C3811 H3805 0.930 . S
C3811 C3807 1.400 . S
C3811 C3810 1.385 . S
C3812 C3810 1.478 . S
C3812 C3814 1.381 . S
C3812 C3818 1.383 . S
C3813 C3809 1.495 . S
C3813 H3819 0.959 . S
C3813 H3820 0.961 . S
C3813 H3821 0.960 . S
C3814 C3812 1.381 . S
C3814 C3815 1.394 . S
C3814 H3822 0.930 . S
C3815 C3814 1.394 . S
C3815 C3816 1.383 . S
C3815 H3823 0.929 . S
C3816 C3815 1.383 . S
C3816 C3817 1.377 . S
C3817 H3801 0.930 . S
C3817 C3816 1.377 . S
C3817 C3818 1.379 . S
C3818 H3802 0.931 . S
C3818 C3812 1.383 . S
C3818 C3817 1.379 . S
H3819 C3813 0.959 . S
H3820 C3813 0.961 . S
H3821 C3813 0.960 . S
H3822 C3814 0.930 . S
H3823 C3815 0.929 . S
H3824 C3832 0.929 . S
H3825 C3834 0.930 . S
H3826 C3836 0.930 . S
H3827 C3839 0.929 . S
H3828 C3842 0.930 . S
H3829 C3844 0.960 . S
H3830 C3844 0.960 . S
H3831 C3844 0.960 . S
C3832 H3824 0.929 . S
C3832 C3833 1.377 . S
C3832 C3834 1.384 . S
C3833 C3832 1.377 . S
C3833 C3839 1.390 . S
C3834 H3825 0.930 . S
C3834 C3832 1.384 . S
C3834 C3835 1.372 . S
C3835 C3834 1.372 . S
C3835 C3836 1.400 . S
C3835 C3840 1.490 . S
C3836 H3826 0.930 . S
C3836 C3835 1.400 . S
C3836 C3839 1.386 . S
H3837 C3853 0.930 . S
H3838 C3854 0.931 . S
C3839 H3827 0.929 . S
C3839 C3833 1.390 . S
C3839 C3836 1.386 . S
C3840 C3835 1.490 . S
C3840 C3842 1.395 . S
C3840 C3843 1.403 . S
H3841 C3847 0.930 . S
C3842 H3828 0.930 . S
C3842 C3840 1.395 . S
C3842 C3845 1.403 . S
C3843 C3840 1.403 . S
C3843 C3844 1.524 . S
C3843 C3847 1.400 . S
C3844 H3829 0.960 . S
C3844 H3830 0.960 . S
C3844 H3831 0.960 . S
C3844 C3843 1.524 . S
C3845 C3842 1.403 . S
C3845 C3846 1.392 . S
C3845 C3849 1.495 . S
C3846 C3845 1.392 . S
C3846 C3847 1.385 . S
C3846 C3848 1.478 . S
C3847 H3841 0.930 . S
C3847 C3843 1.400 . S
C3847 C3846 1.385 . S
C3848 C3846 1.478 . S
C3848 C3850 1.381 . S
C3848 C3854 1.383 . S
C3849 C3845 1.495 . S
C3849 H3855 0.959 . S
C3849 H3856 0.961 . S
C3849 H3857 0.960 . S
C3850 C3848 1.381 . S
C3850 C3851 1.394 . S
C3850 H3858 0.930 . S
C3851 C3850 1.394 . S
C3851 C3852 1.383 . S
C3851 H3859 0.929 . S
C3852 C3851 1.383 . S
C3852 C3853 1.377 . S
C3853 H3837 0.930 . S
C3853 C3852 1.377 . S
C3853 C3854 1.379 . S
C3854 H3838 0.931 . S
C3854 C3848 1.383 . S
C3854 C3853 1.379 . S
H3855 C3849 0.959 . S
H3856 C3849 0.961 . S
H3857 C3849 0.960 . S
H3858 C3850 0.930 . S
H3859 C3851 0.929 . S
H3860 C3868 0.929 . S
H3861 C3870 0.930 . S
H3862 C3872 0.930 . S
H3863 C3875 0.929 . S
H3864 C3878 0.930 . S
H3865 C3880 0.960 . S
H3866 C3880 0.960 . S
H3867 C3880 0.960 . S
C3868 H3860 0.929 . S
C3868 C3869 1.377 . S
C3868 C3870 1.384 . S
C3869 C3868 1.377 . S
C3869 C3875 1.390 . S
C3870 H3861 0.930 . S
C3870 C3868 1.384 . S
C3870 C3871 1.372 . S
C3871 C3870 1.372 . S
C3871 C3872 1.400 . S
C3871 C3876 1.490 . S
C3872 H3862 0.930 . S
C3872 C3871 1.400 . S
C3872 C3875 1.386 . S
H3873 C3889 0.930 . S
H3874 C3890 0.931 . S
C3875 H3863 0.929 . S
C3875 C3869 1.390 . S
C3875 C3872 1.386 . S
C3876 C3871 1.490 . S
C3876 C3878 1.395 1_554 S
C3876 C3879 1.403 . S
H3877 C3883 0.930 . S
C3878 H3864 0.930 . S
C3878 C3876 1.395 1_556 S
C3878 C3881 1.403 . S
C3879 C3876 1.403 . S
C3879 C3880 1.524 . S
C3879 C3883 1.400 . S
C3880 H3865 0.960 . S
C3880 H3866 0.960 . S
C3880 H3867 0.960 . S
C3880 C3879 1.524 . S
C3881 C3878 1.403 . S
C3881 C3882 1.392 . S
C3881 C3885 1.495 . S
C3882 C3881 1.392 . S
C3882 C3883 1.385 1_556 S
C3882 C3884 1.478 . S
C3883 H3877 0.930 . S
C3883 C3879 1.400 . S
C3883 C3882 1.385 1_554 S
C3884 C3882 1.478 . S
C3884 C3886 1.381 . S
C3884 C3890 1.383 . S
C3885 C3881 1.495 . S
C3885 H3891 0.959 . S
C3885 H3892 0.961 . S
C3885 H3893 0.960 . S
C3886 C3884 1.381 . S
C3886 C3887 1.394 . S
C3886 H3894 0.930 . S
C3887 C3886 1.394 . S
C3887 C3888 1.383 . S
C3887 H3895 0.929 . S
C3888 C3887 1.383 . S
C3888 C3889 1.377 . S
C3889 H3873 0.930 . S
C3889 C3888 1.377 . S
C3889 C3890 1.379 . S
C3890 H3874 0.931 . S
C3890 C3884 1.383 . S
C3890 C3889 1.379 . S
H3891 C3885 0.959 . S
H3892 C3885 0.961 . S
H3893 C3885 0.960 . S
H3894 C3886 0.930 . S
H3895 C3887 0.929 . S
H3896 C3904 0.929 . S
H3897 C3906 0.930 . S
H3898 C3908 0.930 . S
H3899 C3911 0.929 . S
H3900 C3914 0.930 . S
H3901 C3916 0.960 . S
H3902 C3916 0.960 . S
H3903 C3916 0.960 . S
C3904 H3896 0.929 . S
C3904 C3905 1.377 . S
C3904 C3906 1.384 . S
C3905 C3904 1.377 . S
C3905 C3911 1.390 . S
C3906 H3897 0.930 . S
C3906 C3904 1.384 . S
C3906 C3907 1.372 . S
C3907 C3906 1.372 . S
C3907 C3908 1.400 . S
C3907 C3912 1.490 . S
C3908 H3898 0.930 . S
C3908 C3907 1.400 . S
C3908 C3911 1.386 . S
H3909 C3925 0.930 . S
H3910 C3926 0.931 . S
C3911 H3899 0.929 . S
C3911 C3905 1.390 . S
C3911 C3908 1.386 . S
C3912 C3907 1.490 . S
C3912 C3914 1.395 . S
C3912 C3915 1.403 . S
H3913 C3919 0.930 . S
C3914 H3900 0.930 . S
C3914 C3912 1.395 . S
C3914 C3917 1.403 . S
C3915 C3912 1.403 . S
C3915 C3916 1.524 . S
C3915 C3919 1.400 . S
C3916 H3901 0.960 . S
C3916 H3902 0.960 . S
C3916 H3903 0.960 . S
C3916 C3915 1.524 . S
C3917 C3914 1.403 . S
C3917 C3918 1.392 . S
C3917 C3921 1.495 . S
C3918 C3917 1.392 . S
C3918 C3919 1.385 . S
C3918 C3920 1.478 . S
C3919 H3913 0.930 . S
C3919 C3915 1.400 . S
C3919 C3918 1.385 . S
C3920 C3918 1.478 . S
C3920 C3922 1.381 . S
C3920 C3926 1.383 . S
C3921 C3917 1.495 . S
C3921 H3927 0.959 . S
C3921 H3928 0.961 . S
C3921 H3929 0.960 . S
C3922 C3920 1.381 . S
C3922 C3923 1.394 . S
C3922 H3930 0.930 . S
C3923 C3922 1.394 . S
C3923 C3924 1.383 . S
C3923 H3931 0.929 . S
C3924 C3923 1.383 . S
C3924 C3925 1.377 . S
C3925 H3909 0.930 . S
C3925 C3924 1.377 . S
C3925 C3926 1.379 . S
C3926 H3910 0.931 . S
C3926 C3920 1.383 . S
C3926 C3925 1.379 . S
H3927 C3921 0.959 . S
H3928 C3921 0.961 . S
H3929 C3921 0.960 . S
H3930 C3922 0.930 . S
H3931 C3923 0.929 . S
H3932 C3940 0.929 . S
H3933 C3942 0.930 . S
H3934 C3944 0.930 . S
H3935 C3947 0.929 . S
H3936 C3950 0.930 . S
H3937 C3952 0.960 . S
H3938 C3952 0.960 . S
H3939 C3952 0.960 . S
C3940 H3932 0.929 . S
C3940 C3941 1.377 . S
C3940 C3942 1.384 . S
C3941 C3940 1.377 . S
C3941 C3947 1.390 . S
C3942 H3933 0.930 . S
C3942 C3940 1.384 . S
C3942 C3943 1.372 . S
C3943 C3942 1.372 . S
C3943 C3944 1.400 . S
C3943 C3948 1.490 . S
C3944 H3934 0.930 . S
C3944 C3943 1.400 . S
C3944 C3947 1.386 . S
H3945 C3961 0.930 . S
H3946 C3962 0.931 . S
C3947 H3935 0.929 . S
C3947 C3941 1.390 . S
C3947 C3944 1.386 . S
C3948 C3943 1.490 . S
C3948 C3950 1.395 . S
C3948 C3951 1.403 . S
H3949 C3955 0.930 . S
C3950 H3936 0.930 . S
C3950 C3948 1.395 . S
C3950 C3953 1.403 . S
C3951 C3948 1.403 . S
C3951 C3952 1.524 . S
C3951 C3955 1.400 . S
C3952 H3937 0.960 . S
C3952 H3938 0.960 . S
C3952 H3939 0.960 . S
C3952 C3951 1.524 . S
C3953 C3950 1.403 . S
C3953 C3954 1.392 . S
C3953 C3957 1.495 . S
C3954 C3953 1.392 . S
C3954 C3955 1.385 . S
C3954 C3956 1.478 . S
C3955 H3949 0.930 . S
C3955 C3951 1.400 . S
C3955 C3954 1.385 . S
C3956 C3954 1.478 . S
C3956 C3958 1.381 . S
C3956 C3962 1.383 . S
C3957 C3953 1.495 . S
C3957 H3963 0.959 . S
C3957 H3964 0.961 . S
C3957 H3965 0.960 . S
C3958 C3956 1.381 . S
C3958 C3959 1.394 . S
C3958 H3966 0.930 . S
C3959 C3958 1.394 . S
C3959 C3960 1.383 . S
C3959 H3967 0.929 . S
C3960 C3959 1.383 . S
C3960 C3961 1.377 . S
C3961 H3945 0.930 . S
C3961 C3960 1.377 . S
C3961 C3962 1.379 . S
C3962 H3946 0.931 . S
C3962 C3956 1.383 . S
C3962 C3961 1.379 . S
H3963 C3957 0.959 . S
H3964 C3957 0.961 . S
H3965 C3957 0.960 . S
H3966 C3958 0.930 . S
H3967 C3959 0.929 . S
C1097 C9 1.225 . S
C1116 C825 1.189 . S
C1133 C315 1.225 . S
C1152 C43 1.188 . S
C1169 C893 1.231 . S
C1188 C77 1.254 . S
C1205 C111 1.228 . S
C1224 C383 1.262 . S
C1241 C961 1.225 . S
C1260 C145 1.189 . S
C1277 C451 1.228 . S
C1296 C179 1.262 . S
C1313 C213 1.214 . S
C1332 C1029 1.197 . S
C1349 C247 1.230 . S
C1368 C519 1.257 . S
C1385 C281 1.217 . S
C1404 C553 1.238 . S
C1421 C349 1.230 . S
C1440 C621 1.259 . S
C1457 C689 1.224 . S
C1476 C417 1.260 . S
C1493 C485 1.231 . S
C1512 C757 1.249 . S
C1529 C587 1.214 . S
C1548 C859 1.187 . S
C1565 C927 1.214 . S
C1584 C655 1.209 . S
C1601 C995 1.228 . S
C1620 C723 1.262 . S
C1637 C791 1.215 . S
C1656 C1063 1.227 . S
C1673 C2 0.682 . S
C1692 C855 0.654 . S
C1709 C345 0.671 . S
C1728 C36 0.713 . S
C1745 C70 0.682 . S
C1764 C923 0.661 . S
C1781 C277 0.667 . S
C1800 C104 0.689 . S
C1817 C138 0.668 . S
C1836 C1059 0.666 . S
C1853 C172 0.682 . S
C1872 C413 0.663 . S
C1889 C991 0.686 . S
C1908 C206 0.677 . S
C1925 C481 0.684 . S
C1944 C240 0.635 . S
C1961 C583 0.668 . S
C1980 C274 0.674 . S
C1997 C73 0.667 . S
C2016 C308 0.693 . S
C2033 C342 0.682 . S
C2052 C651 0.663 . S
C2069 C376 0.666 . S
C2088 C5 0.693 . S
C2105 C787 0.667 . S
C2124 C410 0.691 . S
C2141 C141 0.667 . S
C2160 C444 0.687 . S
C2177 C478 0.680 . S
C2196 C719 0.686 . S
C2213 C512 0.682 . S
C2232 C209 0.648 . S
C2249 C311 0.678 . S
C2268 C546 0.709 . S
C2285 C889 0.669 . S
C2304 C580 0.709 . S
C2321 C379 0.684 . S
C2340 C614 0.691 . S
C2357 C648 0.682 . S
C2376 C821 0.666 . S
C2393 C515 0.686 . S
C2412 C682 0.638 . S
C2429 C716 0.669 . S
C2448 C957 0.655 . S
C2465 C447 0.677 . S
C2484 C750 0.640 . S
C2501 C784 0.679 . S
C2520 C1025 0.697 . S
C2537 C39 0.687 . S
C2556 C818 0.671 . S
C2573 C617 0.674 . S
C2592 C852 0.713 . S
C2609 C107 0.687 . S
C2628 C886 0.640 . S
C2645 C920 0.679 . S
C2664 C549 0.699 . S
C2681 C954 0.682 . S
C2700 C243 0.663 . S
C2717 C685 0.677 . S
C2736 C988 0.711 . S
C2753 C175 0.672 . S
C2772 C1022 0.657 . S
C2789 C1056 0.682 . S
C2808 C753 0.664 . S
C2825 C645 0.759 . S
C2844 C33 0.778 . S
C2861 C679 0.768 . S
C2880 C67 0.732 . S
C2897 C577 0.756 . S
C2916 C101 0.791 . S
C2933 C611 0.764 . S
C2952 C135 0.755 . S
C2969 C169 0.756 . S
C2988 C781 0.791 . S
C3005 C815 0.759 . S
C3024 C203 0.775 . S
C3041 C237 0.759 . S
C3060 C713 0.775 . S
C3077 C747 0.756 . S
C3096 C271 0.788 . S
C3113 C917 0.761 . S
C3132 C305 0.736 . S
C3149 C339 0.760 . S
C3168 C951 0.779 . S
C3185 C373 0.756 . S
C3204 C849 0.736 . S
C3221 C407 0.762 . S
C3240 C883 0.785 . S
C3257 C1053 0.760 . S
C3276 C441 0.734 . S
C3293 C475 0.768 . S
C3312 C1087 0.775 . S
C3329 C509 0.756 . S
C3348 C985 0.742 . S
C3365 C543 0.768 . S
C3384 C1019 0.782 . S
C3401 C156 2.137 . S
C3420 C20 2.134 . S
C3437 C190 2.137 . S
C3456 C54 2.137 . S
C3473 C88 2.137 . S
C3492 C224 2.133 . S
C3509 C258 2.137 . S
C3528 C122 2.132 . S
C3545 C292 2.138 . S
C3564 C428 2.137 . S
C3581 C462 2.137 . S
C3600 C326 2.134 . S
C3617 C360 2.138 . S
C3636 C496 2.137 . S
C3653 C530 2.138 . S
C3672 C394 2.132 . S
C3689 C564 2.138 . S
C3708 C700 2.129 . S
C3725 C734 2.137 . S
C3744 C598 2.134 . S
C3761 C768 2.138 . S
C3780 C632 2.132 . S
C3797 C666 2.138 . S
C3816 C802 2.129 . S
C3833 C972 2.137 . S
C3852 C836 2.129 . S
C3869 C870 2.138 . S
C3888 C1006 2.134 . S
C3905 C904 2.137 . S
C3924 C1040 2.129 . S
C3941 C938 2.138 . S
C3960 C1074 2.136 . S
