# Generated by pormake.
# Topology vmh, (6)-cn, num edge types: 1
# Building blocks:
#     Node 0, Type 0, BuildingBlock: IZENUY_clean_sbu_0, # of connection points: 6
#     Node 1, Type 0, BuildingBlock: IZENUY_clean_sbu_0, # of connection points: 6
#     Node 2, Type 0, BuildingBlock: IZENUY_clean_sbu_0, # of connection points: 6
#     Node 3, Type 0, BuildingBlock: IZENUY_clean_sbu_0, # of connection points: 6
#     Node 4, Type 0, BuildingBlock: IZENUY_clean_sbu_0, # of connection points: 6
#     Node 5, Type 0, BuildingBlock: IZENUY_clean_sbu_0, # of connection points: 6
#     Node 6, Type 0, BuildingBlock: IZENUY_clean_sbu_0, # of connection points: 6
#     Node 7, Type 0, BuildingBlock: IZENUY_clean_sbu_0, # of connection points: 6
#     Edge 8, Type (0, 0), BuildingBlock: XIVTED_clean_linker_0, # of connection points: 2
#     Edge 9, Type (0, 0), BuildingBlock: XIVTED_clean_linker_0, # of connection points: 2
#     Edge 10, Type (0, 0), BuildingBlock: XIVTED_clean_linker_0, # of connection points: 2
#     Edge 11, Type (0, 0), BuildingBlock: XIVTED_clean_linker_0, # of connection points: 2
#     Edge 12, Type (0, 0), BuildingBlock: XIVTED_clean_linker_0, # of connection points: 2
#     Edge 13, Type (0, 0), BuildingBlock: XIVTED_clean_linker_0, # of connection points: 2
#     Edge 14, Type (0, 0), BuildingBlock: XIVTED_clean_linker_0, # of connection points: 2
#     Edge 15, Type (0, 0), BuildingBlock: XIVTED_clean_linker_0, # of connection points: 2
#     Edge 16, Type (0, 0), BuildingBlock: XIVTED_clean_linker_0, # of connection points: 2
#     Edge 17, Type (0, 0), BuildingBlock: XIVTED_clean_linker_0, # of connection points: 2
#     Edge 18, Type (0, 0), BuildingBlock: XIVTED_clean_linker_0, # of connection points: 2
#     Edge 19, Type (0, 0), BuildingBlock: XIVTED_clean_linker_0, # of connection points: 2
#     Edge 20, Type (0, 0), BuildingBlock: XIVTED_clean_linker_0, # of connection points: 2
#     Edge 21, Type (0, 0), BuildingBlock: XIVTED_clean_linker_0, # of connection points: 2
#     Edge 22, Type (0, 0), BuildingBlock: XIVTED_clean_linker_0, # of connection points: 2
#     Edge 23, Type (0, 0), BuildingBlock: XIVTED_clean_linker_0, # of connection points: 2
#     Edge 24, Type (0, 0), BuildingBlock: XIVTED_clean_linker_0, # of connection points: 2
#     Edge 25, Type (0, 0), BuildingBlock: XIVTED_clean_linker_0, # of connection points: 2
#     Edge 26, Type (0, 0), BuildingBlock: XIVTED_clean_linker_0, # of connection points: 2
#     Edge 27, Type (0, 0), BuildingBlock: XIVTED_clean_linker_0, # of connection points: 2
#     Edge 28, Type (0, 0), BuildingBlock: XIVTED_clean_linker_0, # of connection points: 2
#     Edge 29, Type (0, 0), BuildingBlock: XIVTED_clean_linker_0, # of connection points: 2
#     Edge 30, Type (0, 0), BuildingBlock: XIVTED_clean_linker_0, # of connection points: 2
#     Edge 31, Type (0, 0), BuildingBlock: XIVTED_clean_linker_0, # of connection points: 2
# Relax obj value: 0.247
# Max RMSD: 0.263
# Mean RMSD: 0.263
data_MOF--net-vmh--node1-IZENUY_clean_sbu_0--edge1-XIVTED_clean_linker_0
_symmetry_space_group_name_H-M    P1
_symmetry_Int_Tables_number       1
_symmetry_cell_setting            triclinic
loop_
_symmetry_equiv_pos_as_xyz
'x, y, z'
_cell_length_a     28.13578
_cell_length_b     43.219137
_cell_length_c     29.233174
_cell_angle_alpha  89.883051
_cell_angle_beta   105.51909
_cell_angle_gamma 90.111299
loop_
_atom_site_label
_atom_site_type_symbol
_atom_site_fract_x
_atom_site_fract_y
_atom_site_fract_z
_atom_type_partial_charge
Fe0 Fe 0.25584 0.10269 0.09503 0.0
Fe1 Fe 0.26747 0.04184 0.04354 0.0
O2 O 0.28159 0.08165 0.05531 0.0
Fe3 Fe 0.32286 0.09986 0.02721 0.0
O4 O 0.36651 0.10711 0.08361 0.0
O5 O 0.31408 0.12418 0.1222 0.0
O6 O 0.2776 0.07509 0.14218 0.0
C7 C 0.26954 0.04651 0.1408 0.0
C8 C 0.25742 0.14885 0.03069 0.0
O9 O 0.25824 0.03223 0.10179 0.0
C10 C 0.26804 0.06621 0.95367 0.0
O11 O 0.19423 0.0831 0.07476 0.0
O12 O 0.2032 0.05039 0.01956 0.0
O13 O 0.2975 0.13837 0.02607 0.0
O14 O 0.23184 0.13355 0.05227 0.0
C15 C 0.36551 0.04197 0.05105 0.0
O16 O 0.27262 0.04375 0.98247 0.0
O17 O 0.28143 0.09315 0.96854 0.0
C18 C 0.176 0.06461 0.04035 0.0
O19 O 0.33178 0.03059 0.06682 0.0
O20 O 0.35736 0.06506 0.02379 0.0
C21 C 0.35816 0.11962 0.11962 0.0
Fe22 Fe 0.76554 0.10131 0.41459 0.0
Fe23 Fe 0.75386 0.0413 0.46827 0.0
O24 O 0.73989 0.08098 0.45521 0.0
Fe25 Fe 0.69897 0.09975 0.48291 0.0
O26 O 0.65527 0.1067 0.42639 0.0
O27 O 0.70771 0.12304 0.38721 0.0
O28 O 0.74291 0.07327 0.36836 0.0
C29 C 0.75118 0.04472 0.37078 0.0
C30 C 0.76545 0.14801 0.47808 0.0
O31 O 0.76298 0.031 0.41032 0.0
C32 C 0.75328 0.0666 0.55745 0.0
O33 O 0.82679 0.08152 0.43493 0.0
O34 O 0.81817 0.05003 0.49188 0.0
O35 O 0.72511 0.13804 0.48303 0.0
O36 O 0.7904 0.13235 0.45648 0.0
C37 C 0.65583 0.04177 0.46061 0.0
O38 O 0.74869 0.04388 0.52925 0.0
O39 O 0.74029 0.09343 0.54179 0.0
C40 C 0.84522 0.06361 0.47009 0.0
O41 O 0.68956 0.02999 0.44539 0.0
O42 O 0.66401 0.06518 0.48713 0.0
C43 C 0.66363 0.11884 0.39005 0.0
Fe44 Fe 0.7547 0.98244 0.96833 0.0
Fe45 Fe 0.76586 0.92141 0.91708 0.0
O46 O 0.7399 0.94275 0.95627 0.0
Fe47 Fe 0.69781 0.92487 0.98372 0.0
O48 O 0.66409 0.95996 0.98734 0.0
O49 O 0.69068 0.99421 0.94475 0.0
O50 O 0.76437 0.99192 0.91018 0.0
C51 C 0.75335 0.97759 0.87118 0.0
C52 C 0.75304 0.95783 0.0578 0.0
O53 O 0.7451 0.94901 0.86972 0.0
C54 C 0.76242 0.87536 0.98099 0.0
O55 O 0.81878 0.97349 0.99265 0.0
O56 O 0.82772 0.94061 0.93771 0.0
O57 O 0.739 0.93107 0.04257 0.0
O58 O 0.74916 0.98044 0.0293 0.0
C59 C 0.66315 0.90525 0.89141 0.0
O60 O 0.78894 0.89063 0.96034 0.0
O61 O 0.72212 0.88609 0.98457 0.0
C62 C 0.84599 0.95908 0.97211 0.0
O63 O 0.70735 0.90024 0.88947 0.0
O64 O 0.65452 0.91815 0.92701 0.0
C65 C 0.65656 0.98311 0.96023 0.0
Fe66 Fe 0.25572 0.92165 0.59639 0.0
Fe67 Fe 0.32282 0.92435 0.52856 0.0
O68 O 0.28124 0.9425 0.55614 0.0
Fe69 Fe 0.26643 0.9821 0.54328 0.0
O70 O 0.25672 0.99198 0.60113 0.0
O71 O 0.27733 0.94968 0.64293 0.0
O72 O 0.31398 0.9004 0.62392 0.0
C73 C 0.35804 0.90496 0.62124 0.0
C74 C 0.17545 0.95884 0.54071 0.0
O75 O 0.36636 0.91746 0.58514 0.0
C76 C 0.2682 0.95737 0.45407 0.0
O77 O 0.2319 0.89054 0.55422 0.0
O78 O 0.29753 0.88581 0.52789 0.0
O79 O 0.20239 0.97283 0.51924 0.0
O80 O 0.19405 0.9409 0.5758 0.0
C81 C 0.36459 0.98262 0.5516 0.0
O82 O 0.28165 0.9306 0.46962 0.0
O83 O 0.27207 0.97996 0.48241 0.0
C84 C 0.25734 0.87539 0.53248 0.0
O85 O 0.35708 0.95931 0.52486 0.0
O86 O 0.33042 0.99397 0.56662 0.0
C87 C 0.26866 0.9782 0.64061 0.0
Fe88 Fe 0.7615 0.60091 0.09889 0.0
Fe89 Fe 0.76818 0.53971 0.04615 0.0
O90 O 0.78686 0.57852 0.06027 0.0
Fe91 Fe 0.83235 0.59473 0.03561 0.0
O92 O 0.87386 0.59818 0.09357 0.0
O93 O 0.82177 0.62 0.12849 0.0
O94 O 0.77817 0.57273 0.14567 0.0
C95 C 0.76726 0.54451 0.14314 0.0
C96 C 0.77219 0.64664 0.03761 0.0
O97 O 0.7565 0.53039 0.10381 0.0
C98 C 0.77636 0.56531 0.95859 0.0
O99 O 0.69797 0.58389 0.07677 0.0
O100 O 0.70551 0.55137 0.02106 0.0
O101 O 0.81256 0.63462 0.03659 0.0
O102 O 0.74262 0.63214 0.05563 0.0
C103 C 0.86613 0.53418 0.05532 0.0
O104 O 0.77537 0.54231 0.98555 0.0
O105 O 0.79261 0.59126 0.97581 0.0
C106 C 0.67884 0.56592 0.04193 0.0
O107 O 0.83047 0.52493 0.07011 0.0
O108 O 0.86251 0.55832 0.03052 0.0
C109 C 0.86537 0.61143 0.12886 0.0
Fe110 Fe 0.28402 0.60275 0.4097 0.0
Fe111 Fe 0.25573 0.54386 0.45457 0.0
O112 O 0.24889 0.584 0.44365 0.0
Fe113 Fe 0.20577 0.60544 0.46506 0.0
O114 O 0.18938 0.63175 0.41386 0.0
O115 O 0.2272 0.61211 0.36416 0.0
O116 O 0.28921 0.56884 0.37406 0.0
C117 C 0.26153 0.54545 0.36298 0.0
C118 C 0.27655 0.64889 0.47762 0.0
O119 O 0.23837 0.53505 0.39123 0.0
C120 C 0.24765 0.56419 0.54088 0.0
O121 O 0.34246 0.59269 0.45315 0.0
O122 O 0.32125 0.54373 0.45773 0.0
O123 O 0.2535 0.631 0.4981 0.0
O124 O 0.28465 0.64081 0.43864 0.0
C125 C 0.15285 0.55276 0.43907 0.0
O126 O 0.27335 0.5499 0.51835 0.0
O127 O 0.21409 0.58274 0.5198 0.0
C128 C 0.35361 0.56486 0.46612 0.0
O129 O 0.1917 0.53707 0.45433 0.0
O130 O 0.15503 0.5815 0.43341 0.0
C131 C 0.19036 0.62587 0.37178 0.0
Fe132 Fe 0.25016 0.48172 0.95406 0.0
Fe133 Fe 0.27771 0.42344 0.9074 0.0
O134 O 0.24398 0.44151 0.94312 0.0
Fe135 Fe 0.20286 0.41927 0.96615 0.0
O136 O 0.15112 0.44284 0.93641 0.0
O137 O 0.18631 0.48769 0.95684 0.0
O138 O 0.23054 0.49084 0.89056 0.0
C139 C 0.25366 0.48107 0.86186 0.0
C140 C 0.24661 0.46051 0.04147 0.0
O141 O 0.2815 0.45778 0.87225 0.0
C142 C 0.27353 0.37625 0.97513 0.0
O143 O 0.31554 0.48254 0.95522 0.0
O144 O 0.33687 0.43366 0.94982 0.0
O145 O 0.21325 0.44141 0.02165 0.0
O146 O 0.27031 0.47544 0.01761 0.0
C147 C 0.1834 0.40042 0.87194 0.0
O148 O 0.27977 0.38496 0.93564 0.0
O149 O 0.25173 0.39376 0.9972 0.0
C150 C 0.3481 0.46148 0.963 0.0
O151 O 0.21979 0.41405 0.86285 0.0
O152 O 0.1849 0.39367 0.91443 0.0
C153 C 0.14786 0.47114 0.94424 0.0
Fe154 Fe 0.75541 0.42251 0.60041 0.0
Fe155 Fe 0.82526 0.42117 0.53606 0.0
O156 O 0.78458 0.44177 0.56167 0.0
Fe157 Fe 0.77393 0.48178 0.55 0.0
O158 O 0.79745 0.49159 0.61282 0.0
O159 O 0.75216 0.45658 0.63578 0.0
O160 O 0.81561 0.41459 0.64214 0.0
C161 C 0.8521 0.40245 0.63128 0.0
C162 C 0.6799 0.45831 0.54788 0.0
O163 O 0.84978 0.39666 0.5883 0.0
C164 C 0.77222 0.46031 0.46131 0.0
O165 O 0.75416 0.38419 0.57274 0.0
O166 O 0.77829 0.39328 0.50888 0.0
O167 O 0.71064 0.48031 0.55415 0.0
O168 O 0.69372 0.43086 0.56092 0.0
C169 C 0.87499 0.47568 0.55348 0.0
O170 O 0.808 0.44249 0.47967 0.0
O171 O 0.74986 0.47478 0.48682 0.0
C172 C 0.75887 0.37551 0.53283 0.0
O173 O 0.87562 0.44711 0.56133 0.0
O174 O 0.83483 0.49034 0.54242 0.0
C175 C 0.77969 0.48014 0.64449 0.0
H176 H 0.21756 0.0165 0.90986 0.0
H177 H 0.27021 0.04103 0.65755 0.0
H178 H 0.29325 0.09835 0.88158 0.0
H179 H 0.26057 0.95241 0.72302 0.0
H180 H 0.26277 0.06662 0.73065 0.0
H181 H 0.21304 0.99782 0.83042 0.0
C182 C 0.23269 0.03077 0.88663 0.0
C183 C 0.25667 0.05873 0.90263 0.0
C184 C 0.26232 0.0416 0.72867 0.0
C185 C 0.25199 0.03726 0.81162 0.0
C186 C 0.26657 0.02701 0.68718 0.0
C187 C 0.26624 0.99454 0.6843 0.0
C188 C 0.25656 0.0235 0.76675 0.0
C189 C 0.2614 0.97746 0.72364 0.0
C190 C 0.23027 0.02001 0.84136 0.0
C191 C 0.27475 0.07655 0.87066 0.0
N192 N 0.25646 0.99213 0.76298 0.0
N193 N 0.27263 0.06529 0.82661 0.0
H194 H 0.7604 0.95061 0.78947 0.0
H195 H 0.72825 0.09981 0.62849 0.0
H196 H 0.75255 0.0403 0.85195 0.0
H197 H 0.80202 0.01677 0.60275 0.0
H198 H 0.73242 0.08061 0.70895 0.0
H199 H 0.76765 0.9757 0.71744 0.0
C200 C 0.75995 0.97566 0.78802 0.0
C201 C 0.75579 0.99337 0.8269 0.0
C202 C 0.74839 0.06698 0.68578 0.0
C203 C 0.76431 0.0224 0.74393 0.0
C204 C 0.74624 0.07795 0.64007 0.0
C205 C 0.76404 0.05956 0.60868 0.0
C206 C 0.76805 0.03747 0.69952 0.0
C207 C 0.78694 0.03142 0.62542 0.0
C208 C 0.76455 0.99001 0.74689 0.0
C209 C 0.75577 0.0258 0.82277 0.0
N210 N 0.78761 0.02108 0.66931 0.0
N211 N 0.75959 0.03938 0.78174 0.0
H212 H 0.74936 0.98186 0.35369 0.0
H213 H 0.80451 1.00693 0.1026 0.0
H214 H 0.76 0.07055 0.28873 0.0
H215 H 0.7268 0.92548 0.12905 0.0
H216 H 0.80903 0.02513 0.18231 0.0
H217 H 0.75737 0.95636 0.28068 0.0
C218 C 0.75331 0.99591 0.3242 0.0
C219 C 0.75374 0.02838 0.32717 0.0
C220 C 0.79137 1.00312 0.1709 0.0
C221 C 0.76415 0.99953 0.24494 0.0
C222 C 0.78895 0.99265 0.12549 0.0
C223 C 0.76436 0.96497 0.10891 0.0
C224 C 0.76902 0.98588 0.20015 0.0
C225 C 0.74573 0.94709 0.14044 0.0
C226 C 0.75792 0.98137 0.28279 0.0
C227 C 0.75905 0.0455 0.28803 0.0
N228 N 0.74783 0.95809 0.18461 0.0
N229 N 0.76432 0.03088 0.24881 0.0
H230 H 0.26439 0.0735 0.22311 0.0
H231 H 0.29319 0.9241 0.38308 0.0
H232 H 0.26909 0.98379 0.15959 0.0
H233 H 0.22039 1.00754 0.40888 0.0
H234 H 0.28964 0.94336 0.3028 0.0
H235 H 0.257 0.04842 0.29509 0.0
C236 C 0.26413 0.04844 0.22432 0.0
C237 C 0.26739 0.03073 0.18514 0.0
C238 C 0.27376 0.95707 0.32595 0.0
C239 C 0.25869 1.00173 0.26804 0.0
C240 C 0.27556 0.94608 0.37156 0.0
C241 C 0.25786 0.96455 0.40293 0.0
C242 C 0.25456 0.98668 0.3123 0.0
C243 C 0.23541 0.99282 0.38625 0.0
C244 C 0.25945 0.03412 0.26542 0.0
C245 C 0.26657 0.9983 0.18899 0.0
N246 N 0.23508 1.00318 0.34246 0.0
N247 N 0.26265 0.98473 0.22999 0.0
H248 H 0.77192 0.45269 0.72461 0.0
H249 H 0.81279 0.59808 0.89406 0.0
H250 H 0.79871 0.54191 0.66952 0.0
H251 H 0.72574 0.51791 0.90757 0.0
H252 H 0.81505 0.57989 0.81486 0.0
H253 H 0.76731 0.477 0.79766 0.0
C254 C 0.77703 0.47753 0.728 0.0
C255 C 0.78484 0.49539 0.69061 0.0
C256 C 0.79486 0.56669 0.83504 0.0
C257 C 0.77921 0.52358 0.77468 0.0
C258 C 0.79327 0.57708 0.87999 0.0
C259 C 0.7697 0.55914 0.90767 0.0
C260 C 0.77306 0.53821 0.81837 0.0
C261 C 0.7451 0.53216 0.88787 0.0
C262 C 0.77408 0.49143 0.76971 0.0
C263 C 0.79238 0.52738 0.69753 0.0
N264 N 0.74798 0.52236 0.84478 0.0
N265 N 0.78911 0.54064 0.73894 0.0
H266 H 0.31912 0.52922 0.60042 0.0
H267 H 0.18736 0.52471 0.81212 0.0
H268 H 0.18655 0.58069 0.59597 0.0
H269 H 0.3214 0.47638 0.8116 0.0
H270 H 0.18813 0.54882 0.7358 0.0
H271 H 0.32261 0.51289 0.681 0.0
C272 C 0.29086 0.53722 0.61647 0.0
C273 C 0.25232 0.55616 0.59118 0.0
C274 C 0.21744 0.53307 0.75276 0.0
C275 C 0.2558 0.53733 0.68373 0.0
C276 C 0.21704 0.5194 0.79627 0.0
C277 C 0.25397 0.49822 0.81802 0.0
C278 C 0.25517 0.52552 0.73131 0.0
C279 C 0.29165 0.49217 0.79596 0.0
C280 C 0.29283 0.5279 0.6626 0.0
C281 C 0.2169 0.56599 0.61408 0.0
N282 N 0.29109 0.50559 0.75396 0.0
N283 N 0.21925 0.55626 0.65893 0.0
H284 H 0.19919 0.49878 0.31783 0.0
H285 H 0.31874 0.49658 0.0978 0.0
H286 H 0.32274 0.55483 0.30637 0.0
H287 H 0.18932 0.44337 0.10014 0.0
H288 H 0.32471 0.51394 0.17827 0.0
H289 H 0.19831 0.47436 0.24168 0.0
C290 C 0.22623 0.5058 0.29955 0.0
C291 C 0.26084 0.52903 0.3184 0.0
C292 C 0.29509 0.49834 0.16138 0.0
C293 C 0.26015 0.50127 0.23173 0.0
C294 C 0.29171 0.48838 0.11534 0.0
C295 C 0.25323 0.46869 0.09195 0.0
C296 C 0.25962 0.48874 0.18437 0.0
C297 C 0.21954 0.45863 0.11675 0.0
C298 C 0.22569 0.4919 0.25613 0.0
C299 C 0.29504 0.53725 0.29317 0.0
N300 N 0.22327 0.46897 0.16151 0.0
N301 N 0.29371 0.52347 0.25128 0.0
H302 H 0.74113 0.57182 0.21598 0.0
H303 H 0.80654 0.43101 0.39332 0.0
H304 H 0.77926 0.48292 0.16905 0.0
H305 H 0.71506 0.50733 0.41275 0.0
H306 H 0.79859 0.44858 0.31193 0.0
H307 H 0.73408 0.54826 0.28941 0.0
C308 C 0.74809 0.54725 0.2212 0.0
C309 C 0.76135 0.52933 0.18659 0.0
C310 C 0.77971 0.46116 0.33385 0.0
C311 C 0.75339 0.50213 0.27103 0.0
C312 C 0.7843 0.45123 0.38035 0.0
C313 C 0.76197 0.46797 0.4102 0.0
C314 C 0.75323 0.48825 0.31738 0.0
C315 C 0.73326 0.49382 0.39128 0.0
C316 C 0.74364 0.53376 0.26303 0.0
C317 C 0.76912 0.49752 0.19497 0.0
N318 N 0.73034 0.5034 0.34634 0.0
N319 N 0.76571 0.48493 0.2368 0.0
H320 H 0.37413 0.98876 0.00574 0.0
H321 H 0.6488 0.03621 0.00619 0.0
H322 H 0.45744 0.06044 0.09422 0.0
H323 H 0.5644 0.96557 0.91618 0.0
H324 H 0.57734 0.04767 0.03595 0.0
H325 H 0.44562 0.97754 0.97592 0.0
C326 C 0.40847 1.00094 0.02072 0.0
C327 C 0.41058 0.02519 0.05278 0.0
C328 C 0.57397 0.03019 0.00877 0.0
C329 C 0.49088 0.0141 0.01697 0.0
C330 C 0.61425 0.02434 0.99086 0.0
C331 C 0.61182 1.00028 0.95841 0.0
C332 C 0.53153 0.01161 0.99413 0.0
C333 C 0.56707 0.98464 0.94077 0.0
C334 C 0.44875 0.99522 1.00276 0.0
C335 C 0.45503 0.04122 0.06996 0.0
N336 N 0.52878 0.99019 0.95948 0.0
N337 N 0.49335 0.03576 0.05123 0.0
H338 H 0.37291 0.03604 0.50634 0.0
H339 H 0.64691 0.98843 0.50588 0.0
H340 H 0.45653 0.9646 0.59524 0.0
H341 H 0.56403 0.06061 0.41809 0.0
H342 H 0.57546 0.97708 0.53582 0.0
H343 H 0.44448 0.04771 0.47675 0.0
C344 C 0.40732 0.02401 0.52145 0.0
C345 C 0.40951 0.99967 0.5535 0.0
C346 C 0.57242 0.99491 0.50912 0.0
C347 C 0.48986 1.01126 0.51799 0.0
C348 C 0.61267 1.00071 0.4911 0.0
C349 C 0.61065 0.02513 0.45922 0.0
C350 C 0.53045 0.01388 0.49513 0.0
C351 C 0.56635 0.04128 0.44225 0.0
C352 C 0.44766 0.03 0.50364 0.0
C353 C 0.45406 0.98386 0.57092 0.0
N354 N 0.52807 0.03572 0.46103 0.0
N355 N 0.4924 0.98956 0.5523 0.0
H356 H 0.96047 0.54455 0.10235 0.0
H357 H 0.05649 0.44436 0.91668 0.0
H358 H 0.8661 0.48218 1.00378 0.0
H359 H 0.13629 0.52015 0.99891 0.0
H360 H 0.98861 0.45327 0.95267 0.0
H361 H 0.0304 0.52749 0.07484 0.0
C362 C 0.95511 0.52604 0.0766 0.0
C363 C 0.90794 0.5143 0.05581 0.0
C364 C 0.02083 0.46807 0.96245 0.0
C365 C 0.9867 0.49626 0.02162 0.0
C366 C 0.05927 0.4633 0.94151 0.0
C367 C 0.10219 0.48151 0.95493 0.0
C368 C 0.02559 0.49104 0.9972 0.0
C369 C 0.1039 0.50564 0.9873 0.0
C370 C 0.99472 0.51687 0.05997 0.0
C371 C 0.90233 0.49122 0.02122 0.0
N372 N 0.06637 0.50947 0.00771 0.0
N373 N 0.94123 0.4833 0.00442 0.0
H374 H 0.13457 0.4926 0.45711 0.0
H375 H 0.88356 0.53396 0.52005 0.0
H376 H 0.06499 0.58237 0.43093 0.0
H377 H 0.96479 0.44902 0.56127 0.0
H378 H 0.94765 0.55177 0.48436 0.0
H379 H 0.06649 0.47435 0.48662 0.0
C380 C 0.10447 0.50831 0.45664 0.0
C381 C 0.10606 0.53928 0.44272 0.0
C382 C 0.95156 0.52935 0.50154 0.0
C383 C 0.02875 0.51873 0.47734 0.0
C384 C 0.91531 0.51929 0.52242 0.0
C385 C 0.9185 0.48976 0.54306 0.0
C386 C 0.99113 0.50971 0.50138 0.0
C387 C 0.96054 0.47182 0.54528 0.0
C388 C 0.06591 0.49796 0.47402 0.0
C389 C 0.06567 0.55844 0.44211 0.0
N390 N 0.99501 0.48197 0.52414 0.0
N391 N 0.02891 0.54796 0.46003 0.0
H392 H 0.12056 0.04343 0.95514 0.0
H393 H 0.90139 0.98014 0.05741 0.0
H394 H 0.11317 0.05994 0.09848 0.0
H395 H 0.90902 0.9635 0.91418 0.0
H396 H 0.97958 1.00808 0.07355 0.0
H397 H 0.04249 0.01538 0.93912 0.0
C398 C 0.10197 0.04169 0.98308 0.0
C399 C 0.12356 0.05426 0.02828 0.0
C400 C 0.9646 0.99809 0.03872 0.0
C401 C 0.03411 0.02121 0.0103 0.0
C402 C 0.92007 0.98182 0.02953 0.0
C403 C 0.89851 0.96925 0.98433 0.0
C404 C 0.98807 1.00218 1.00242 0.0
C405 C 0.92443 0.97238 0.94967 0.0
C406 C 0.05751 0.02536 0.97395 0.0
C407 C 0.09774 0.05105 0.063 0.0
N408 N 0.96756 0.98875 0.95931 0.0
N409 N 0.05465 0.03463 0.05341 0.0
H410 H 0.90854 0.06187 0.41231 0.0
H411 H 0.11201 0.96029 0.59838 0.0
H412 H 0.89987 0.03934 0.55368 0.0
H413 H 0.12053 0.98265 0.45692 0.0
H414 H 0.03289 0.98783 0.582 0.0
H415 H 0.98747 0.03411 0.42857 0.0
C416 C 0.92371 0.05174 0.44707 0.0
C417 C 0.89743 0.05302 0.48161 0.0
C418 C 0.05189 0.98644 0.55438 0.0
C419 C 0.98711 0.02041 0.50015 0.0
C420 C 0.09675 0.97031 0.56356 0.0
C421 C 0.12306 0.96908 0.52904 0.0
C422 C 0.03317 1.00145 0.51037 0.0
C423 C 0.10171 0.98306 0.48474 0.0
C424 C 0.96847 0.0355 0.45618 0.0
C425 C 0.91867 0.0389 0.52584 0.0
N426 N 0.05842 0.99876 0.47684 0.0
N427 N 0.96187 0.02311 0.53368 0.0
H428 H 0.38463 0.49848 0.03903 0.0
H429 H 0.62505 0.54225 0.95794 0.0
H430 H 0.42785 0.451 0.92717 0.0
H431 H 0.61292 0.56507 0.09796 0.0
H432 H 0.5472 0.51427 0.94246 0.0
H433 H 0.46381 0.52605 0.05949 0.0
C434 C 0.41142 0.4933 0.01952 0.0
C435 C 0.39994 0.47203 0.98178 0.0
C436 C 0.56121 0.52555 0.97647 0.0
C437 C 0.4899 0.5046 1.00373 0.0
C438 C 0.60553 0.54193 0.98526 0.0
C439 C 0.62596 0.55616 0.02949 0.0
C440 C 0.53618 0.52339 0.01186 0.0
C441 C 0.59856 0.55482 0.06324 0.0
C442 C 0.45642 0.50925 0.03101 0.0
C443 C 0.43553 0.46669 0.95709 0.0
N444 N 0.55518 0.53859 0.0538 0.0
N445 N 0.47857 0.48317 0.96807 0.0
H446 H 0.60102 0.44307 0.58339 0.0
H447 H 0.43587 0.58143 0.43718 0.0
H448 H 0.6415 0.49716 0.4756 0.0
H449 H 0.38719 0.52192 0.53423 0.0
H450 H 0.51415 0.55277 0.45491 0.0
H451 H 0.52216 0.47129 0.56644 0.0
C452 C 0.59262 0.46013 0.55518 0.0
C453 C 0.62754 0.46761 0.53057 0.0
C454 C 0.48655 0.54623 0.47279 0.0
C455 C 0.53876 0.50085 0.51231 0.0
C456 C 0.44226 0.56298 0.46324 0.0
C457 C 0.40521 0.55416 0.48448 0.0
C458 C 0.4937 0.52056 0.50381 0.0
C459 C 0.41495 0.52949 0.51715 0.0
C460 C 0.54806 0.47664 0.54602 0.0
C461 C 0.6154 0.4906 0.49524 0.0
N462 N 0.45797 0.51348 0.52559 0.0
N463 N 0.57241 0.50652 0.48749 0.0
H464 H 0.36244 0.13115 0.21369 0.0
H465 H 0.6594 0.13059 0.29598 0.0
H466 H 0.45409 0.12594 0.11687 0.0
H467 H 0.56772 0.12519 0.39279 0.0
H468 H 0.58473 0.13677 0.23 0.0
H469 H 0.43719 0.13688 0.27973 0.0
C470 C 0.39808 0.13179 0.20615 0.0
C471 C 0.40175 0.12791 0.15954 0.0
C472 C 0.58105 0.13458 0.26579 0.0
C473 C 0.4877 0.13414 0.23508 0.0
C474 C 0.62378 0.13125 0.30353 0.0
C475 C 0.62008 0.12721 0.35013 0.0
C476 C 0.5342 0.13398 0.27464 0.0
C477 C 0.57261 0.128 0.35752 0.0
C478 C 0.44085 0.13484 0.24392 0.0
C479 C 0.44923 0.12863 0.15216 0.0
N480 N 0.53176 0.13109 0.32034 0.0
N481 N 0.49011 0.13145 0.18937 0.0
H482 H 0.65922 0.8934 0.7975 0.0
H483 H 0.3623 0.89285 0.71519 0.0
H484 H 0.56735 0.89863 0.89411 0.0
H485 H 0.45392 0.89891 0.61837 0.0
H486 H 0.43702 0.88677 0.78111 0.0
H487 H 0.58456 0.88722 0.73144 0.0
C488 C 0.62355 0.89268 0.80498 0.0
C489 C 0.61976 0.89671 0.85151 0.0
C490 C 0.44068 0.88908 0.74533 0.0
C491 C 0.53397 0.88994 0.77601 0.0
C492 C 0.39793 0.89235 0.70763 0.0
C493 C 0.40161 0.89658 0.66107 0.0
C494 C 0.48752 0.88991 0.73646 0.0
C495 C 0.44907 0.89598 0.65363 0.0
C496 C 0.58085 0.88936 0.76722 0.0
C497 C 0.57228 0.89585 0.85887 0.0
N498 N 0.48994 0.89294 0.69079 0.0
N499 N 0.53147 0.89277 0.82167 0.0
H500 H 0.93474 0.56906 0.16351 0.0
H501 H 0.11168 0.66379 0.371 0.0
H502 H 0.89497 0.66252 0.18838 0.0
H503 H 0.16327 0.59747 0.28513 0.0
H504 H 0.02994 0.66279 0.31347 0.0
H505 H 0.01483 0.57645 0.21987 0.0
C506 C 0.94292 0.5912 0.18116 0.0
C507 C 0.90853 0.61539 0.17053 0.0
C508 C 0.05948 0.64893 0.30696 0.0
C509 C 1.00062 0.62402 0.23582 0.0
C510 C 0.10618 0.64951 0.3396 0.0
C511 C 0.14457 0.63066 0.33292 0.0
C512 C 0.05084 0.62881 0.26804 0.0
C513 C 0.13512 0.61253 0.29173 0.0
C514 C 0.98875 0.59542 0.21322 0.0
C515 C 0.92048 0.64329 0.19559 0.0
N516 N 0.08912 0.61169 0.26138 0.0
N517 N 0.96587 0.64694 0.22716 0.0
H518 H 0.87176 0.40409 0.7292 0.0
H519 H 0.16423 0.40692 0.7744 0.0
H520 H 0.94205 0.38978 0.61657 0.0
H521 H 0.09396 0.38363 0.88436 0.0
H522 H 0.08327 0.40418 0.71583 0.0
H523 H 0.95293 0.40022 0.78711 0.0
C524 C 0.90402 0.39977 0.71664 0.0
C525 C 0.89974 0.39701 0.66784 0.0
C526 C 0.0858 0.39934 0.75277 0.0
C527 C 0.99301 0.39332 0.73389 0.0
C528 C 0.13206 0.40082 0.78619 0.0
C529 C 0.13627 0.39528 0.83448 0.0
C530 C 0.04324 0.39293 0.76779 0.0
C531 C 0.0929 0.38783 0.84758 0.0
C532 C 0.95039 0.39761 0.7497 0.0
C533 C 0.94321 0.39176 0.65376 0.0
N534 N 0.04837 0.38722 0.81466 0.0
N535 N 0.98787 0.39042 0.68646 0.0
H536 H 0.21887 0.19376 0.07717 0.0
H537 H 0.30522 0.32893 0.92836 0.0
H538 H 0.27594 0.17876 0.95605 0.0
H539 H 0.24625 0.34681 0.04776 0.0
H540 H 0.29475 0.27364 0.93902 0.0
H541 H 0.2239 0.24994 0.06526 0.0
C542 C 0.23099 0.20228 0.04727 0.0
C543 C 0.24696 0.18165 0.0175 0.0
C544 C 0.28432 0.28961 0.96311 0.0
C545 C 0.25435 0.24556 0.00458 0.0
C546 C 0.2908 0.32127 0.95732 0.0
C547 C 0.2765 0.34273 0.98705 0.0
C548 C 0.26332 0.27913 0.99891 0.0
C549 C 0.25782 0.33121 0.02389 0.0
C550 C 0.23462 0.2343 0.0409 0.0
C551 C 0.26335 0.1939 0.97988 0.0
N552 N 0.25147 0.30024 0.02858 0.0
N553 N 0.26702 0.22494 0.97477 0.0
H554 H 0.80605 0.19197 0.43143 0.0
H555 H 0.72543 0.32888 0.5796 0.0
H556 H 0.74813 0.1785 0.5525 0.0
H557 H 0.78604 0.34556 0.46076 0.0
H558 H 0.73373 0.27347 0.56916 0.0
H559 H 0.80385 0.24825 0.44326 0.0
C560 C 0.7943 0.20083 0.46128 0.0
C561 C 0.77722 0.18065 0.49104 0.0
C562 C 0.74502 0.2892 0.54515 0.0
C563 C 0.77314 0.24463 0.5039 0.0
C564 C 0.73983 0.32092 0.55084 0.0
C565 C 0.75517 0.34205 0.52116 0.0
C566 C 0.76577 0.27831 0.5095 0.0
C567 C 0.77367 0.33019 0.48452 0.0
C568 C 0.79232 0.23291 0.46761 0.0
C569 C 0.76146 0.1933 0.52865 0.0
N570 N 0.77874 0.29913 0.47991 0.0
N571 N 0.7594 0.2244 0.53372 0.0
H572 H 0.81825 0.83306 0.9471 0.0
H573 H 0.71373 0.68952 0.06647 0.0
H574 H 0.72712 0.84239 0.04385 0.0
H575 H 0.81685 0.67968 0.98154 0.0
H576 H 0.715 0.74573 0.05506 0.0
H577 H 0.81883 0.77675 0.95903 0.0
C578 C 0.79928 0.82337 0.97155 0.0
C579 C 0.77243 0.84245 0.9943 0.0
C580 C 0.73715 0.73122 0.03871 0.0
C581 C 0.77177 0.77818 0.00718 0.0
C582 C 0.73593 0.69911 0.04479 0.0
C583 C 0.76534 0.67988 0.02512 0.0
C584 C 0.76782 0.74413 0.01262 0.0
C585 C 0.79384 0.69365 0.99769 0.0
C586 C 0.79909 0.79122 0.97795 0.0
C587 C 0.74799 0.82855 0.02522 0.0
N588 N 0.79454 0.72486 0.99244 0.0
N589 N 0.7479 0.79736 0.03041 0.0
H590 H 0.25243 0.67622 0.55326 0.0
H591 H 0.26885 0.84738 0.45381 0.0
H592 H 0.30335 0.6978 0.42998 0.0
H593 H 0.22536 0.82917 0.58191 0.0
H594 H 0.27454 0.79193 0.44159 0.0
H595 H 0.24027 0.73144 0.56415 0.0
C596 C 0.26186 0.69254 0.5289 0.0
C597 C 0.27881 0.68219 0.49045 0.0
C598 C 0.26307 0.79988 0.47208 0.0
C599 C 0.26386 0.74548 0.50228 0.0
C600 C 0.2592 0.83156 0.47873 0.0
C601 C 0.2464 0.8428 0.51879 0.0
C602 C 0.25462 0.77913 0.50606 0.0
C603 C 0.23472 0.82138 0.55023 0.0
C604 C 0.2544 0.72408 0.53494 0.0
C605 C 0.29023 0.70453 0.46011 0.0
N606 N 0.23972 0.79047 0.54353 0.0
N607 N 0.2822 0.73501 0.46648 0.0
loop_
_geom_bond_atom_site_label_1
_geom_bond_atom_site_label_2
_geom_bond_distance
_geom_bond_site_symmetry_2
_ccdc_geom_bond_type
Fe0 O2 1.918 . S
Fe0 O5 1.997 . S
Fe0 O6 2.002 . S
Fe0 O11 1.976 . S
Fe0 O14 1.996 . S
Fe1 O2 1.918 . S
Fe1 O9 1.997 . S
Fe1 O12 1.996 . S
Fe1 O16 1.976 1_554 S
Fe1 O19 2.002 . S
O2 Fe0 1.918 . S
O2 Fe1 1.918 . S
O2 Fe3 1.918 . S
Fe3 O2 1.918 . S
Fe3 O4 2.002 . S
Fe3 O13 1.976 . S
Fe3 O17 1.996 1_554 S
Fe3 O20 1.997 . S
O4 Fe3 2.002 . S
O4 C21 1.295 . S
O5 Fe0 1.997 . S
O5 C21 1.235 . S
O6 Fe0 2.002 . S
O6 C7 1.295 . S
C7 O6 1.295 . S
C7 O9 1.235 . S
C8 O13 1.287 . S
C8 O14 1.255 . S
O9 Fe1 1.997 . S
O9 C7 1.235 . S
C10 O16 1.287 . S
C10 O17 1.255 . S
O11 Fe0 1.976 . S
O11 C18 1.287 . S
O12 Fe1 1.996 . S
O12 C18 1.255 . S
O13 Fe3 1.976 . S
O13 C8 1.287 . S
O14 Fe0 1.996 . S
O14 C8 1.255 . S
C15 O19 1.295 . S
C15 O20 1.235 . S
O16 Fe1 1.976 1_556 S
O16 C10 1.287 . S
O17 Fe3 1.996 1_556 S
O17 C10 1.255 . S
C18 O11 1.287 . S
C18 O12 1.255 . S
O19 Fe1 2.002 . S
O19 C15 1.295 . S
O20 Fe3 1.997 . S
O20 C15 1.235 . S
C21 O4 1.295 . S
C21 O5 1.235 . S
Fe22 O24 1.918 . S
Fe22 O27 1.997 . S
Fe22 O28 2.002 . S
Fe22 O33 1.976 . S
Fe22 O36 1.996 . S
Fe23 O24 1.918 . S
Fe23 O31 1.997 . S
Fe23 O34 1.996 . S
Fe23 O38 1.976 . S
Fe23 O41 2.002 . S
O24 Fe22 1.918 . S
O24 Fe23 1.918 . S
O24 Fe25 1.918 . S
Fe25 O24 1.918 . S
Fe25 O26 2.002 . S
Fe25 O35 1.976 . S
Fe25 O39 1.996 . S
Fe25 O42 1.997 . S
O26 Fe25 2.002 . S
O26 C43 1.295 . S
O27 Fe22 1.997 . S
O27 C43 1.235 . S
O28 Fe22 2.002 . S
O28 C29 1.295 . S
C29 O28 1.295 . S
C29 O31 1.235 . S
C30 O35 1.287 . S
C30 O36 1.255 . S
O31 Fe23 1.997 . S
O31 C29 1.235 . S
C32 O38 1.287 . S
C32 O39 1.255 . S
O33 Fe22 1.976 . S
O33 C40 1.287 . S
O34 Fe23 1.996 . S
O34 C40 1.255 . S
O35 Fe25 1.976 . S
O35 C30 1.287 . S
O36 Fe22 1.996 . S
O36 C30 1.255 . S
C37 O41 1.295 . S
C37 O42 1.235 . S
O38 Fe23 1.976 . S
O38 C32 1.287 . S
O39 Fe25 1.996 . S
O39 C32 1.255 . S
C40 O33 1.287 . S
C40 O34 1.255 . S
O41 Fe23 2.002 . S
O41 C37 1.295 . S
O42 Fe25 1.997 . S
O42 C37 1.235 . S
C43 O26 1.295 . S
C43 O27 1.235 . S
Fe44 O46 1.918 . S
Fe44 O49 1.997 . S
Fe44 O50 2.002 . S
Fe44 O55 1.976 . S
Fe44 O58 1.996 1_556 S
Fe45 O46 1.918 . S
Fe45 O53 1.997 . S
Fe45 O56 1.996 . S
Fe45 O60 1.976 . S
Fe45 O63 2.002 . S
O46 Fe44 1.918 . S
O46 Fe45 1.918 . S
O46 Fe47 1.918 . S
Fe47 O46 1.918 . S
Fe47 O48 2.002 . S
Fe47 O57 1.976 1_556 S
Fe47 O61 1.996 . S
Fe47 O64 1.997 . S
O48 Fe47 2.002 . S
O48 C65 1.295 . S
O49 Fe44 1.997 . S
O49 C65 1.235 . S
O50 Fe44 2.002 . S
O50 C51 1.295 . S
C51 O50 1.295 . S
C51 O53 1.235 . S
C52 O57 1.287 . S
C52 O58 1.255 . S
O53 Fe45 1.997 . S
O53 C51 1.235 . S
C54 O60 1.287 . S
C54 O61 1.255 . S
O55 Fe44 1.976 . S
O55 C62 1.287 . S
O56 Fe45 1.996 . S
O56 C62 1.255 . S
O57 Fe47 1.976 1_554 S
O57 C52 1.287 . S
O58 Fe44 1.996 1_554 S
O58 C52 1.255 . S
C59 O63 1.295 . S
C59 O64 1.235 . S
O60 Fe45 1.976 . S
O60 C54 1.287 . S
O61 Fe47 1.996 . S
O61 C54 1.255 . S
C62 O55 1.287 . S
C62 O56 1.255 . S
O63 Fe45 2.002 . S
O63 C59 1.295 . S
O64 Fe47 1.997 . S
O64 C59 1.235 . S
C65 O48 1.295 . S
C65 O49 1.235 . S
Fe66 O68 1.918 . S
Fe66 O71 1.997 . S
Fe66 O72 2.002 . S
Fe66 O77 1.976 . S
Fe66 O80 1.996 . S
Fe67 O68 1.918 . S
Fe67 O75 1.997 . S
Fe67 O78 1.996 . S
Fe67 O82 1.976 . S
Fe67 O85 2.002 . S
O68 Fe66 1.918 . S
O68 Fe67 1.918 . S
O68 Fe69 1.918 . S
Fe69 O68 1.918 . S
Fe69 O70 2.002 . S
Fe69 O79 1.976 . S
Fe69 O83 1.996 . S
Fe69 O86 1.997 . S
O70 Fe69 2.002 . S
O70 C87 1.295 . S
O71 Fe66 1.997 . S
O71 C87 1.235 . S
O72 Fe66 2.002 . S
O72 C73 1.295 . S
C73 O72 1.295 . S
C73 O75 1.235 . S
C74 O79 1.287 . S
C74 O80 1.255 . S
O75 Fe67 1.997 . S
O75 C73 1.235 . S
C76 O82 1.287 . S
C76 O83 1.255 . S
O77 Fe66 1.976 . S
O77 C84 1.287 . S
O78 Fe67 1.996 . S
O78 C84 1.255 . S
O79 Fe69 1.976 . S
O79 C74 1.287 . S
O80 Fe66 1.996 . S
O80 C74 1.255 . S
C81 O85 1.295 . S
C81 O86 1.235 . S
O82 Fe67 1.976 . S
O82 C76 1.287 . S
O83 Fe69 1.996 . S
O83 C76 1.255 . S
C84 O77 1.287 . S
C84 O78 1.255 . S
O85 Fe67 2.002 . S
O85 C81 1.295 . S
O86 Fe69 1.997 . S
O86 C81 1.235 . S
C87 O70 1.295 . S
C87 O71 1.235 . S
Fe88 O90 1.918 . S
Fe88 O93 1.997 . S
Fe88 O94 2.002 . S
Fe88 O99 1.976 . S
Fe88 O102 1.996 . S
Fe89 O90 1.918 . S
Fe89 O97 1.997 . S
Fe89 O100 1.996 . S
Fe89 O104 1.976 1_554 S
Fe89 O107 2.002 . S
O90 Fe88 1.918 . S
O90 Fe89 1.918 . S
O90 Fe91 1.918 . S
Fe91 O90 1.918 . S
Fe91 O92 2.002 . S
Fe91 O101 1.976 . S
Fe91 O105 1.996 1_554 S
Fe91 O108 1.997 . S
O92 Fe91 2.002 . S
O92 C109 1.295 . S
O93 Fe88 1.997 . S
O93 C109 1.235 . S
O94 Fe88 2.002 . S
O94 C95 1.295 . S
C95 O94 1.295 . S
C95 O97 1.235 . S
C96 O101 1.287 . S
C96 O102 1.255 . S
O97 Fe89 1.997 . S
O97 C95 1.235 . S
C98 O104 1.287 . S
C98 O105 1.255 . S
O99 Fe88 1.976 . S
O99 C106 1.287 . S
O100 Fe89 1.996 . S
O100 C106 1.255 . S
O101 Fe91 1.976 . S
O101 C96 1.287 . S
O102 Fe88 1.996 . S
O102 C96 1.255 . S
C103 O107 1.295 . S
C103 O108 1.235 . S
O104 Fe89 1.976 1_556 S
O104 C98 1.287 . S
O105 Fe91 1.996 1_556 S
O105 C98 1.255 . S
C106 O99 1.287 . S
C106 O100 1.255 . S
O107 Fe89 2.002 . S
O107 C103 1.295 . S
O108 Fe91 1.997 . S
O108 C103 1.235 . S
C109 O92 1.295 . S
C109 O93 1.235 . S
Fe110 O112 1.918 . S
Fe110 O115 1.997 . S
Fe110 O116 2.002 . S
Fe110 O121 1.976 . S
Fe110 O124 1.996 . S
Fe111 O112 1.918 . S
Fe111 O119 1.997 . S
Fe111 O122 1.996 . S
Fe111 O126 1.976 . S
Fe111 O129 2.002 . S
O112 Fe110 1.918 . S
O112 Fe111 1.918 . S
O112 Fe113 1.918 . S
Fe113 O112 1.918 . S
Fe113 O114 2.002 . S
Fe113 O123 1.976 . S
Fe113 O127 1.996 . S
Fe113 O130 1.997 . S
O114 Fe113 2.002 . S
O114 C131 1.295 . S
O115 Fe110 1.997 . S
O115 C131 1.235 . S
O116 Fe110 2.002 . S
O116 C117 1.295 . S
C117 O116 1.295 . S
C117 O119 1.235 . S
C118 O123 1.287 . S
C118 O124 1.255 . S
O119 Fe111 1.997 . S
O119 C117 1.235 . S
C120 O126 1.287 . S
C120 O127 1.255 . S
O121 Fe110 1.976 . S
O121 C128 1.287 . S
O122 Fe111 1.996 . S
O122 C128 1.255 . S
O123 Fe113 1.976 . S
O123 C118 1.287 . S
O124 Fe110 1.996 . S
O124 C118 1.255 . S
C125 O129 1.295 . S
C125 O130 1.235 . S
O126 Fe111 1.976 . S
O126 C120 1.287 . S
O127 Fe113 1.996 . S
O127 C120 1.255 . S
C128 O121 1.287 . S
C128 O122 1.255 . S
O129 Fe111 2.002 . S
O129 C125 1.295 . S
O130 Fe113 1.997 . S
O130 C125 1.235 . S
C131 O114 1.295 . S
C131 O115 1.235 . S
Fe132 O134 1.918 . S
Fe132 O137 1.997 . S
Fe132 O138 2.002 . S
Fe132 O143 1.976 . S
Fe132 O146 1.996 1_556 S
Fe133 O134 1.918 . S
Fe133 O141 1.997 . S
Fe133 O144 1.996 . S
Fe133 O148 1.976 . S
Fe133 O151 2.002 . S
O134 Fe132 1.918 . S
O134 Fe133 1.918 . S
O134 Fe135 1.918 . S
Fe135 O134 1.918 . S
Fe135 O136 2.002 . S
Fe135 O145 1.976 1_556 S
Fe135 O149 1.996 . S
Fe135 O152 1.997 . S
O136 Fe135 2.002 . S
O136 C153 1.295 . S
O137 Fe132 1.997 . S
O137 C153 1.235 . S
O138 Fe132 2.002 . S
O138 C139 1.295 . S
C139 O138 1.295 . S
C139 O141 1.235 . S
C140 O145 1.287 . S
C140 O146 1.255 . S
O141 Fe133 1.997 . S
O141 C139 1.235 . S
C142 O148 1.287 . S
C142 O149 1.255 . S
O143 Fe132 1.976 . S
O143 C150 1.287 . S
O144 Fe133 1.996 . S
O144 C150 1.255 . S
O145 Fe135 1.976 1_554 S
O145 C140 1.287 . S
O146 Fe132 1.996 1_554 S
O146 C140 1.255 . S
C147 O151 1.295 . S
C147 O152 1.235 . S
O148 Fe133 1.976 . S
O148 C142 1.287 . S
O149 Fe135 1.996 . S
O149 C142 1.255 . S
C150 O143 1.287 . S
C150 O144 1.255 . S
O151 Fe133 2.002 . S
O151 C147 1.295 . S
O152 Fe135 1.997 . S
O152 C147 1.235 . S
C153 O136 1.295 . S
C153 O137 1.235 . S
Fe154 O156 1.918 . S
Fe154 O159 1.997 . S
Fe154 O160 2.002 . S
Fe154 O165 1.976 . S
Fe154 O168 1.996 . S
Fe155 O156 1.918 . S
Fe155 O163 1.997 . S
Fe155 O166 1.996 . S
Fe155 O170 1.976 . S
Fe155 O173 2.002 . S
O156 Fe154 1.918 . S
O156 Fe155 1.918 . S
O156 Fe157 1.918 . S
Fe157 O156 1.918 . S
Fe157 O158 2.002 . S
Fe157 O167 1.976 . S
Fe157 O171 1.996 . S
Fe157 O174 1.997 . S
O158 Fe157 2.002 . S
O158 C175 1.295 . S
O159 Fe154 1.997 . S
O159 C175 1.235 . S
O160 Fe154 2.002 . S
O160 C161 1.295 . S
C161 O160 1.295 . S
C161 O163 1.235 . S
C162 O167 1.287 . S
C162 O168 1.255 . S
O163 Fe155 1.997 . S
O163 C161 1.235 . S
C164 O170 1.287 . S
C164 O171 1.255 . S
O165 Fe154 1.976 . S
O165 C172 1.287 . S
O166 Fe155 1.996 . S
O166 C172 1.255 . S
O167 Fe157 1.976 . S
O167 C162 1.287 . S
O168 Fe154 1.996 . S
O168 C162 1.255 . S
C169 O173 1.295 . S
C169 O174 1.235 . S
O170 Fe155 1.976 . S
O170 C164 1.287 . S
O171 Fe157 1.996 . S
O171 C164 1.255 . S
C172 O165 1.287 . S
C172 O166 1.255 . S
O173 Fe155 2.002 . S
O173 C169 1.295 . S
O174 Fe157 1.997 . S
O174 C169 1.235 . S
C175 O158 1.295 . S
C175 O159 1.235 . S
H176 C182 0.930 . S
H177 C186 0.930 . S
H178 C191 0.929 . S
H179 C189 0.929 . S
H180 C184 0.929 . S
H181 C190 0.929 1_565 S
C182 H176 0.930 . S
C182 C183 1.367 . S
C182 C190 1.378 . S
C183 C182 1.367 . S
C183 C191 1.433 . S
C184 H180 0.929 . S
C184 C186 1.378 . S
C184 C188 1.350 . S
C185 C188 1.463 . S
C185 C190 1.350 . S
C185 N193 1.427 . S
C186 H177 0.930 . S
C186 C184 1.378 . S
C186 C187 1.367 1_545 S
C187 C186 1.367 1_565 S
C187 C189 1.433 . S
C188 C184 1.350 . S
C188 C185 1.463 . S
C188 N192 1.427 1_545 S
C189 H179 0.929 . S
C189 C187 1.433 . S
C189 N192 1.384 . S
C190 H181 0.929 1_545 S
C190 C182 1.378 . S
C190 C185 1.350 . S
C191 H178 0.929 . S
C191 C183 1.433 . S
C191 N193 1.384 . S
N192 C188 1.427 1_565 S
N192 C189 1.384 . S
N193 C185 1.427 . S
N193 C191 1.384 . S
H194 C200 0.930 . S
H195 C204 0.930 . S
H196 C209 0.929 . S
H197 C207 0.929 . S
H198 C202 0.929 . S
H199 C208 0.929 . S
C200 H194 0.930 . S
C200 C201 1.367 . S
C200 C208 1.378 . S
C201 C200 1.367 . S
C201 C209 1.433 1_565 S
C202 H198 0.929 . S
C202 C204 1.378 . S
C202 C206 1.350 . S
C203 C206 1.463 . S
C203 C208 1.350 1_545 S
C203 N211 1.427 . S
C204 H195 0.930 . S
C204 C202 1.378 . S
C204 C205 1.367 . S
C205 C204 1.367 . S
C205 C207 1.433 . S
C206 C202 1.350 . S
C206 C203 1.463 . S
C206 N210 1.427 . S
C207 H197 0.929 . S
C207 C205 1.433 . S
C207 N210 1.384 . S
C208 H199 0.929 . S
C208 C200 1.378 . S
C208 C203 1.350 1_565 S
C209 H196 0.929 . S
C209 C201 1.433 1_545 S
C209 N211 1.384 . S
N210 C206 1.427 . S
N210 C207 1.384 . S
N211 C203 1.427 . S
N211 C209 1.384 . S
H212 C218 0.930 . S
H213 C222 0.930 . S
H214 C227 0.929 . S
H215 C225 0.929 . S
H216 C220 0.929 1_545 S
H217 C226 0.929 . S
C218 H212 0.930 . S
C218 C219 1.367 1_565 S
C218 C226 1.378 . S
C219 C218 1.367 1_545 S
C219 C227 1.433 . S
C220 H216 0.929 1_565 S
C220 C222 1.378 . S
C220 C224 1.350 . S
C221 C224 1.463 . S
C221 C226 1.350 . S
C221 N229 1.427 1_565 S
C222 H213 0.930 . S
C222 C220 1.378 . S
C222 C223 1.367 . S
C223 C222 1.367 . S
C223 C225 1.433 . S
C224 C220 1.350 . S
C224 C221 1.463 . S
C224 N228 1.427 . S
C225 H215 0.929 . S
C225 C223 1.433 . S
C225 N228 1.384 . S
C226 H217 0.929 . S
C226 C218 1.378 . S
C226 C221 1.350 . S
C227 H214 0.929 . S
C227 C219 1.433 . S
C227 N229 1.384 . S
N228 C224 1.427 . S
N228 C225 1.384 . S
N229 C221 1.427 1_545 S
N229 C227 1.384 . S
H230 C236 0.930 . S
H231 C240 0.930 . S
H232 C245 0.929 . S
H233 C243 0.929 . S
H234 C238 0.929 . S
H235 C244 0.929 . S
C236 H230 0.930 . S
C236 C237 1.367 . S
C236 C244 1.378 . S
C237 C236 1.367 . S
C237 C245 1.433 1_545 S
C238 H234 0.929 . S
C238 C240 1.378 . S
C238 C242 1.350 . S
C239 C242 1.463 . S
C239 C244 1.350 1_565 S
C239 N247 1.427 . S
C240 H231 0.930 . S
C240 C238 1.378 . S
C240 C241 1.367 . S
C241 C240 1.367 . S
C241 C243 1.433 . S
C242 C238 1.350 . S
C242 C239 1.463 . S
C242 N246 1.427 . S
C243 H233 0.929 . S
C243 C241 1.433 . S
C243 N246 1.384 . S
C244 H235 0.929 . S
C244 C236 1.378 . S
C244 C239 1.350 1_545 S
C245 H232 0.929 . S
C245 C237 1.433 1_565 S
C245 N247 1.384 . S
N246 C242 1.427 . S
N246 C243 1.384 . S
N247 C239 1.427 . S
N247 C245 1.384 . S
H248 C254 0.930 . S
H249 C258 0.930 . S
H250 C263 0.929 . S
H251 C261 0.929 . S
H252 C256 0.929 . S
H253 C262 0.929 . S
C254 H248 0.930 . S
C254 C255 1.367 . S
C254 C262 1.378 . S
C255 C254 1.367 . S
C255 C263 1.433 . S
C256 H252 0.929 . S
C256 C258 1.378 . S
C256 C260 1.350 . S
C257 C260 1.463 . S
C257 C262 1.350 . S
C257 N265 1.427 . S
C258 H249 0.930 . S
C258 C256 1.378 . S
C258 C259 1.367 . S
C259 C258 1.367 . S
C259 C261 1.433 . S
C260 C256 1.350 . S
C260 C257 1.463 . S
C260 N264 1.427 . S
C261 H251 0.929 . S
C261 C259 1.433 . S
C261 N264 1.384 . S
C262 H253 0.929 . S
C262 C254 1.378 . S
C262 C257 1.350 . S
C263 H250 0.929 . S
C263 C255 1.433 . S
C263 N265 1.384 . S
N264 C260 1.427 . S
N264 C261 1.384 . S
N265 C257 1.427 . S
N265 C263 1.384 . S
H266 C272 0.930 . S
H267 C276 0.930 . S
H268 C281 0.929 . S
H269 C279 0.929 . S
H270 C274 0.929 . S
H271 C280 0.929 . S
C272 H266 0.930 . S
C272 C273 1.367 . S
C272 C280 1.378 . S
C273 C272 1.367 . S
C273 C281 1.433 . S
C274 H270 0.929 . S
C274 C276 1.378 . S
C274 C278 1.350 . S
C275 C278 1.463 . S
C275 C280 1.350 . S
C275 N283 1.427 . S
C276 H267 0.930 . S
C276 C274 1.378 . S
C276 C277 1.367 . S
C277 C276 1.367 . S
C277 C279 1.433 . S
C278 C274 1.350 . S
C278 C275 1.463 . S
C278 N282 1.427 . S
C279 H269 0.929 . S
C279 C277 1.433 . S
C279 N282 1.384 . S
C280 H271 0.929 . S
C280 C272 1.378 . S
C280 C275 1.350 . S
C281 H268 0.929 . S
C281 C273 1.433 . S
C281 N283 1.384 . S
N282 C278 1.427 . S
N282 C279 1.384 . S
N283 C275 1.427 . S
N283 C281 1.384 . S
H284 C290 0.930 . S
H285 C294 0.930 . S
H286 C299 0.929 . S
H287 C297 0.929 . S
H288 C292 0.929 . S
H289 C298 0.929 . S
C290 H284 0.930 . S
C290 C291 1.367 . S
C290 C298 1.378 . S
C291 C290 1.367 . S
C291 C299 1.433 . S
C292 H288 0.929 . S
C292 C294 1.378 . S
C292 C296 1.350 . S
C293 C296 1.463 . S
C293 C298 1.350 . S
C293 N301 1.427 . S
C294 H285 0.930 . S
C294 C292 1.378 . S
C294 C295 1.367 . S
C295 C294 1.367 . S
C295 C297 1.433 . S
C296 C292 1.350 . S
C296 C293 1.463 . S
C296 N300 1.427 . S
C297 H287 0.929 . S
C297 C295 1.433 . S
C297 N300 1.384 . S
C298 H289 0.929 . S
C298 C290 1.378 . S
C298 C293 1.350 . S
C299 H286 0.929 . S
C299 C291 1.433 . S
C299 N301 1.384 . S
N300 C296 1.427 . S
N300 C297 1.384 . S
N301 C293 1.427 . S
N301 C299 1.384 . S
H302 C308 0.930 . S
H303 C312 0.930 . S
H304 C317 0.929 . S
H305 C315 0.929 . S
H306 C310 0.929 . S
H307 C316 0.929 . S
C308 H302 0.930 . S
C308 C309 1.367 . S
C308 C316 1.378 . S
C309 C308 1.367 . S
C309 C317 1.433 . S
C310 H306 0.929 . S
C310 C312 1.378 . S
C310 C314 1.350 . S
C311 C314 1.463 . S
C311 C316 1.350 . S
C311 N319 1.427 . S
C312 H303 0.930 . S
C312 C310 1.378 . S
C312 C313 1.367 . S
C313 C312 1.367 . S
C313 C315 1.433 . S
C314 C310 1.350 . S
C314 C311 1.463 . S
C314 N318 1.427 . S
C315 H305 0.929 . S
C315 C313 1.433 . S
C315 N318 1.384 . S
C316 H307 0.929 . S
C316 C308 1.378 . S
C316 C311 1.350 . S
C317 H304 0.929 . S
C317 C309 1.433 . S
C317 N319 1.384 . S
N318 C314 1.427 . S
N318 C315 1.384 . S
N319 C311 1.427 . S
N319 C317 1.384 . S
H320 C326 0.930 1_556 S
H321 C330 0.930 1_554 S
H322 C335 0.929 . S
H323 C333 0.929 . S
H324 C328 0.929 . S
H325 C334 0.929 . S
C326 H320 0.930 1_554 S
C326 C327 1.367 1_565 S
C326 C334 1.378 1_554 S
C327 C326 1.367 1_545 S
C327 C335 1.433 . S
C328 H324 0.929 . S
C328 C330 1.378 1_554 S
C328 C332 1.350 1_544 S
C329 C332 1.463 1_544 S
C329 C334 1.350 1_544 S
C329 N337 1.427 . S
C330 H321 0.930 1_556 S
C330 C328 1.378 1_556 S
C330 C331 1.367 1_545 S
C331 C330 1.367 1_565 S
C331 C333 1.433 . S
C332 C328 1.350 1_566 S
C332 C329 1.463 1_566 S
C332 N336 1.427 . S
C333 H323 0.929 . S
C333 C331 1.433 . S
C333 N336 1.384 . S
C334 H325 0.929 . S
C334 C326 1.378 1_556 S
C334 C329 1.350 1_566 S
C335 H322 0.929 . S
C335 C327 1.433 . S
C335 N337 1.384 . S
N336 C332 1.427 . S
N336 C333 1.384 . S
N337 C329 1.427 . S
N337 C335 1.384 . S
H338 C344 0.930 . S
H339 C348 0.930 . S
H340 C353 0.929 . S
H341 C351 0.929 . S
H342 C346 0.929 . S
H343 C352 0.929 . S
C344 H338 0.930 . S
C344 C345 1.367 1_545 S
C344 C352 1.378 . S
C345 C344 1.367 1_565 S
C345 C353 1.433 . S
C346 H342 0.929 . S
C346 C348 1.378 . S
C346 C350 1.350 1_565 S
C347 C350 1.463 1_565 S
C347 C352 1.350 1_565 S
C347 N355 1.427 . S
C348 H339 0.930 . S
C348 C346 1.378 . S
C348 C349 1.367 1_565 S
C349 C348 1.367 1_545 S
C349 C351 1.433 . S
C350 C346 1.350 1_545 S
C350 C347 1.463 1_545 S
C350 N354 1.427 . S
C351 H341 0.929 . S
C351 C349 1.433 . S
C351 N354 1.384 . S
C352 H343 0.929 . S
C352 C344 1.378 . S
C352 C347 1.350 1_545 S
C353 H340 0.929 . S
C353 C345 1.433 . S
C353 N355 1.384 . S
N354 C350 1.427 . S
N354 C351 1.384 . S
N355 C347 1.427 . S
N355 C353 1.384 . S
H356 C362 0.930 . S
H357 C366 0.930 . S
H358 C371 0.929 . S
H359 C369 0.929 . S
H360 C364 0.929 1_554 S
H361 C370 0.929 1_556 S
C362 H356 0.930 . S
C362 C363 1.367 . S
C362 C370 1.378 . S
C363 C362 1.367 . S
C363 C371 1.433 . S
C364 H360 0.929 1_556 S
C364 C366 1.378 . S
C364 C368 1.350 . S
C365 C368 1.463 1_654 S
C365 C370 1.350 . S
C365 N373 1.427 . S
C366 H357 0.930 . S
C366 C364 1.378 . S
C366 C367 1.367 . S
C367 C366 1.367 . S
C367 C369 1.433 . S
C368 C364 1.350 . S
C368 C365 1.463 1_456 S
C368 N372 1.427 . S
C369 H359 0.929 . S
C369 C367 1.433 . S
C369 N372 1.384 . S
C370 H361 0.929 1_554 S
C370 C362 1.378 . S
C370 C365 1.350 . S
C371 H358 0.929 . S
C371 C363 1.433 . S
C371 N373 1.384 . S
N372 C368 1.427 . S
N372 C369 1.384 . S
N373 C365 1.427 . S
N373 C371 1.384 . S
H374 C380 0.930 . S
H375 C384 0.930 . S
H376 C389 0.929 . S
H377 C387 0.929 . S
H378 C382 0.929 . S
H379 C388 0.929 . S
C380 H374 0.930 . S
C380 C381 1.367 . S
C380 C388 1.378 . S
C381 C380 1.367 . S
C381 C389 1.433 . S
C382 H378 0.929 . S
C382 C384 1.378 . S
C382 C386 1.350 . S
C383 C386 1.463 1_455 S
C383 C388 1.350 . S
C383 N391 1.427 . S
C384 H375 0.930 . S
C384 C382 1.378 . S
C384 C385 1.367 . S
C385 C384 1.367 . S
C385 C387 1.433 . S
C386 C382 1.350 . S
C386 C383 1.463 1_655 S
C386 N390 1.427 . S
C387 H377 0.929 . S
C387 C385 1.433 . S
C387 N390 1.384 . S
C388 H379 0.929 . S
C388 C380 1.378 . S
C388 C383 1.350 . S
C389 H376 0.929 . S
C389 C381 1.433 . S
C389 N391 1.384 . S
N390 C386 1.427 . S
N390 C387 1.384 . S
N391 C383 1.427 . S
N391 C389 1.384 . S
H392 C398 0.930 1_565 S
H393 C402 0.919 1_545 S
H394 C407 0.929 . S
H395 C405 0.929 . S
H396 C400 0.929 . S
H397 C406 0.929 . S
C398 H392 0.930 1_545 S
C398 C399 1.367 . S
C398 C406 1.378 1_545 S
C399 C398 1.367 . S
C399 C407 1.433 . S
C400 H396 0.929 . S
C400 C402 1.378 1_545 S
C400 C404 1.350 1_545 S
C401 C404 1.463 1_444 S
C401 C406 1.350 1_545 S
C401 N409 1.427 . S
C402 H393 0.919 1_565 S
C402 C400 1.378 1_565 S
C402 C403 1.367 . S
C403 C402 1.367 . S
C403 C405 1.433 . S
C404 C400 1.350 1_565 S
C404 C401 1.463 1_666 S
C404 N408 1.427 . S
C405 H395 0.929 . S
C405 C403 1.433 . S
C405 N408 1.384 . S
C406 H397 0.929 . S
C406 C398 1.378 1_565 S
C406 C401 1.350 1_565 S
C407 H394 0.929 . S
C407 C399 1.433 . S
C407 N409 1.384 . S
N408 C404 1.427 . S
N408 C405 1.384 . S
N409 C401 1.427 . S
N409 C407 1.384 . S
H410 C416 0.930 . S
H411 C420 0.930 . S
H412 C425 0.929 . S
H413 C423 0.929 . S
H414 C418 0.929 . S
H415 C424 0.929 . S
C416 H410 0.930 . S
C416 C417 1.367 . S
C416 C424 1.378 . S
C417 C416 1.367 . S
C417 C425 1.433 . S
C418 H414 0.929 . S
C418 C420 1.378 . S
C418 C422 1.350 . S
C419 C422 1.463 1_645 S
C419 C424 1.350 . S
C419 N427 1.427 . S
C420 H411 0.930 . S
C420 C418 1.378 . S
C420 C421 1.367 . S
C421 C420 1.367 . S
C421 C423 1.433 . S
C422 C418 1.350 . S
C422 C419 1.463 1_465 S
C422 N426 1.427 . S
C423 H413 0.929 . S
C423 C421 1.433 . S
C423 N426 1.384 . S
C424 H415 0.929 . S
C424 C416 1.378 . S
C424 C419 1.350 . S
C425 H412 0.929 . S
C425 C417 1.433 . S
C425 N427 1.384 . S
N426 C422 1.427 . S
N426 C423 1.384 . S
N427 C419 1.427 . S
N427 C425 1.384 . S
H428 C434 0.930 . S
H429 C438 0.930 . S
H430 C443 0.929 . S
H431 C441 0.929 . S
H432 C436 0.929 . S
H433 C442 0.929 . S
C434 H428 0.930 . S
C434 C435 1.367 1_554 S
C434 C442 1.378 . S
C435 C434 1.367 1_556 S
C435 C443 1.433 . S
C436 H432 0.929 . S
C436 C438 1.378 . S
C436 C440 1.350 1_556 S
C437 C440 1.463 1_556 S
C437 C442 1.350 1_556 S
C437 N445 1.427 . S
C438 H429 0.930 . S
C438 C436 1.378 . S
C438 C439 1.367 1_556 S
C439 C438 1.367 1_554 S
C439 C441 1.433 . S
C440 C436 1.350 1_554 S
C440 C437 1.463 1_554 S
C440 N444 1.427 . S
C441 H431 0.929 . S
C441 C439 1.433 . S
C441 N444 1.384 . S
C442 H433 0.929 . S
C442 C434 1.378 . S
C442 C437 1.350 1_554 S
C443 H430 0.929 . S
C443 C435 1.433 . S
C443 N445 1.384 . S
N444 C440 1.427 . S
N444 C441 1.384 . S
N445 C437 1.427 . S
N445 C443 1.384 . S
H446 C452 0.930 . S
H447 C456 0.930 . S
H448 C461 0.929 . S
H449 C459 0.929 . S
H450 C454 0.929 . S
H451 C460 0.929 . S
C452 H446 0.930 . S
C452 C453 1.367 . S
C452 C460 1.378 . S
C453 C452 1.367 . S
C453 C461 1.433 . S
C454 H450 0.929 . S
C454 C456 1.378 . S
C454 C458 1.350 . S
C455 C458 1.463 . S
C455 C460 1.350 . S
C455 N463 1.427 . S
C456 H447 0.930 . S
C456 C454 1.378 . S
C456 C457 1.367 . S
C457 C456 1.367 . S
C457 C459 1.433 . S
C458 C454 1.350 . S
C458 C455 1.463 . S
C458 N462 1.427 . S
C459 H449 0.929 . S
C459 C457 1.433 . S
C459 N462 1.384 . S
C460 H451 0.929 . S
C460 C452 1.378 . S
C460 C455 1.350 . S
C461 H448 0.929 . S
C461 C453 1.433 . S
C461 N463 1.384 . S
N462 C458 1.427 . S
N462 C459 1.384 . S
N463 C455 1.427 . S
N463 C461 1.384 . S
H464 C470 0.930 . S
H465 C474 0.930 . S
H466 C479 0.929 . S
H467 C477 0.929 . S
H468 C472 0.929 . S
H469 C478 0.929 . S
C470 H464 0.930 . S
C470 C471 1.367 . S
C470 C478 1.378 . S
C471 C470 1.367 . S
C471 C479 1.433 . S
C472 H468 0.929 . S
C472 C474 1.378 . S
C472 C476 1.350 . S
C473 C476 1.463 . S
C473 C478 1.350 . S
C473 N481 1.427 . S
C474 H465 0.930 . S
C474 C472 1.378 . S
C474 C475 1.367 . S
C475 C474 1.367 . S
C475 C477 1.433 . S
C476 C472 1.350 . S
C476 C473 1.463 . S
C476 N480 1.427 . S
C477 H467 0.929 . S
C477 C475 1.433 . S
C477 N480 1.384 . S
C478 H469 0.929 . S
C478 C470 1.378 . S
C478 C473 1.350 . S
C479 H466 0.929 . S
C479 C471 1.433 . S
C479 N481 1.384 . S
N480 C476 1.427 . S
N480 C477 1.384 . S
N481 C473 1.427 . S
N481 C479 1.384 . S
H482 C488 0.930 . S
H483 C492 0.930 . S
H484 C497 0.929 . S
H485 C495 0.929 . S
H486 C490 0.929 . S
H487 C496 0.929 . S
C488 H482 0.930 . S
C488 C489 1.367 . S
C488 C496 1.378 . S
C489 C488 1.367 . S
C489 C497 1.433 . S
C490 H486 0.929 . S
C490 C492 1.378 . S
C490 C494 1.350 . S
C491 C494 1.463 . S
C491 C496 1.350 . S
C491 N499 1.427 . S
C492 H483 0.930 . S
C492 C490 1.378 . S
C492 C493 1.367 . S
C493 C492 1.367 . S
C493 C495 1.433 . S
C494 C490 1.350 . S
C494 C491 1.463 . S
C494 N498 1.427 . S
C495 H485 0.929 . S
C495 C493 1.433 . S
C495 N498 1.384 . S
C496 H487 0.929 . S
C496 C488 1.378 . S
C496 C491 1.350 . S
C497 H484 0.929 . S
C497 C489 1.433 . S
C497 N499 1.384 . S
N498 C494 1.427 . S
N498 C495 1.384 . S
N499 C491 1.427 . S
N499 C497 1.384 . S
H500 C506 0.930 . S
H501 C510 0.930 . S
H502 C515 0.929 . S
H503 C513 0.929 . S
H504 C508 0.929 . S
H505 C514 0.929 . S
C506 H500 0.930 . S
C506 C507 1.367 . S
C506 C514 1.378 . S
C507 C506 1.367 . S
C507 C515 1.433 . S
C508 H504 0.929 . S
C508 C510 1.378 . S
C508 C512 1.350 . S
C509 C512 1.463 1_655 S
C509 C514 1.350 . S
C509 N517 1.427 . S
C510 H501 0.930 . S
C510 C508 1.378 . S
C510 C511 1.367 . S
C511 C510 1.367 . S
C511 C513 1.433 . S
C512 C508 1.350 . S
C512 C509 1.463 1_455 S
C512 N516 1.427 . S
C513 H503 0.929 . S
C513 C511 1.433 . S
C513 N516 1.384 . S
C514 H505 0.929 . S
C514 C506 1.378 . S
C514 C509 1.350 . S
C515 H502 0.929 . S
C515 C507 1.433 . S
C515 N517 1.384 . S
N516 C512 1.427 . S
N516 C513 1.384 . S
N517 C509 1.427 . S
N517 C515 1.384 . S
H518 C524 0.930 . S
H519 C528 0.930 . S
H520 C533 0.929 . S
H521 C531 0.929 . S
H522 C526 0.929 . S
H523 C532 0.929 . S
C524 H518 0.930 . S
C524 C525 1.367 . S
C524 C532 1.378 . S
C525 C524 1.367 . S
C525 C533 1.433 . S
C526 H522 0.929 . S
C526 C528 1.378 . S
C526 C530 1.350 . S
C527 C530 1.463 1_655 S
C527 C532 1.350 . S
C527 N535 1.427 . S
C528 H519 0.930 . S
C528 C526 1.378 . S
C528 C529 1.367 . S
C529 C528 1.367 . S
C529 C531 1.433 . S
C530 C526 1.350 . S
C530 C527 1.463 1_455 S
C530 N534 1.427 . S
C531 H521 0.929 . S
C531 C529 1.433 . S
C531 N534 1.384 . S
C532 H523 0.929 . S
C532 C524 1.378 . S
C532 C527 1.350 . S
C533 H520 0.929 . S
C533 C525 1.433 . S
C533 N535 1.384 . S
N534 C530 1.427 . S
N534 C531 1.384 . S
N535 C527 1.427 . S
N535 C533 1.384 . S
H536 C542 0.930 . S
H537 C546 0.930 . S
H538 C551 0.929 . S
H539 C549 0.929 . S
H540 C544 0.929 . S
H541 C550 0.929 . S
C542 H536 0.930 . S
C542 C543 1.367 . S
C542 C550 1.378 . S
C543 C542 1.367 . S
C543 C551 1.433 1_554 S
C544 H540 0.929 . S
C544 C546 1.378 . S
C544 C548 1.350 . S
C545 C548 1.463 1_554 S
C545 C550 1.350 . S
C545 N553 1.427 1_554 S
C546 H537 0.930 . S
C546 C544 1.378 . S
C546 C547 1.367 . S
C547 C546 1.367 . S
C547 C549 1.433 1_556 S
C548 C544 1.350 . S
C548 C545 1.463 1_556 S
C548 N552 1.427 1_556 S
C549 H539 0.929 . S
C549 C547 1.433 1_554 S
C549 N552 1.384 . S
C550 H541 0.929 . S
C550 C542 1.378 . S
C550 C545 1.350 . S
C551 H538 0.929 . S
C551 C543 1.433 1_556 S
C551 N553 1.384 . S
N552 C548 1.427 1_554 S
N552 C549 1.384 . S
N553 C545 1.427 1_556 S
N553 C551 1.384 . S
H554 C560 0.930 . S
H555 C564 0.930 . S
H556 C569 0.929 . S
H557 C567 0.929 . S
H558 C562 0.929 . S
H559 C568 0.929 . S
C560 H554 0.930 . S
C560 C561 1.367 . S
C560 C568 1.378 . S
C561 C560 1.367 . S
C561 C569 1.433 . S
C562 H558 0.929 . S
C562 C564 1.378 . S
C562 C566 1.350 . S
C563 C566 1.463 . S
C563 C568 1.350 . S
C563 N571 1.427 . S
C564 H555 0.930 . S
C564 C562 1.378 . S
C564 C565 1.367 . S
C565 C564 1.367 . S
C565 C567 1.433 . S
C566 C562 1.350 . S
C566 C563 1.463 . S
C566 N570 1.427 . S
C567 H557 0.929 . S
C567 C565 1.433 . S
C567 N570 1.384 . S
C568 H559 0.929 . S
C568 C560 1.378 . S
C568 C563 1.350 . S
C569 H556 0.929 . S
C569 C561 1.433 . S
C569 N571 1.384 . S
N570 C566 1.427 . S
N570 C567 1.384 . S
N571 C563 1.427 . S
N571 C569 1.384 . S
H572 C578 0.930 . S
H573 C582 0.930 . S
H574 C587 0.929 . S
H575 C585 0.929 . S
H576 C580 0.929 . S
H577 C586 0.929 . S
C578 H572 0.930 . S
C578 C579 1.367 . S
C578 C586 1.378 . S
C579 C578 1.367 . S
C579 C587 1.433 1_556 S
C580 H576 0.929 . S
C580 C582 1.378 . S
C580 C584 1.350 . S
C581 C584 1.463 1_556 S
C581 C586 1.350 . S
C581 N589 1.427 1_556 S
C582 H573 0.930 . S
C582 C580 1.378 . S
C582 C583 1.367 . S
C583 C582 1.367 . S
C583 C585 1.433 1_554 S
C584 C580 1.350 . S
C584 C581 1.463 1_554 S
C584 N588 1.427 1_554 S
C585 H575 0.929 . S
C585 C583 1.433 1_556 S
C585 N588 1.384 . S
C586 H577 0.929 . S
C586 C578 1.378 . S
C586 C581 1.350 . S
C587 H574 0.929 . S
C587 C579 1.433 1_554 S
C587 N589 1.384 . S
N588 C584 1.427 1_556 S
N588 C585 1.384 . S
N589 C581 1.427 1_554 S
N589 C587 1.384 . S
H590 C596 0.930 . S
H591 C600 0.930 . S
H592 C605 0.929 . S
H593 C603 0.929 . S
H594 C598 0.929 . S
H595 C604 0.929 . S
C596 H590 0.930 . S
C596 C597 1.367 . S
C596 C604 1.378 . S
C597 C596 1.367 . S
C597 C605 1.433 . S
C598 H594 0.929 . S
C598 C600 1.378 . S
C598 C602 1.350 . S
C599 C602 1.463 . S
C599 C604 1.350 . S
C599 N607 1.427 . S
C600 H591 0.930 . S
C600 C598 1.378 . S
C600 C601 1.367 . S
C601 C600 1.367 . S
C601 C603 1.433 . S
C602 C598 1.350 . S
C602 C599 1.463 . S
C602 N606 1.427 . S
C603 H593 0.929 . S
C603 C601 1.433 . S
C603 N606 1.384 . S
C604 H595 0.929 . S
C604 C596 1.378 . S
C604 C599 1.350 . S
C605 H592 0.929 . S
C605 C597 1.433 . S
C605 N607 1.384 . S
N606 C602 1.427 . S
N606 C603 1.384 . S
N607 C599 1.427 . S
N607 C605 1.384 . S
C183 C10 1.377 . S
C187 C87 1.396 . S
C201 C51 1.391 . S
C205 C32 1.383 . S
C219 C29 1.382 . S
C223 C52 1.362 . S
C237 C7 1.373 . S
C241 C76 1.368 . S
C255 C175 1.392 . S
C259 C98 1.384 . S
C273 C120 1.372 . S
C277 C139 1.393 . S
C291 C117 1.382 . S
C295 C140 1.362 . S
C309 C95 1.373 . S
C313 C164 1.367 . S
C327 C15 0.845 . S
C331 C65 0.844 . S
C345 C81 0.848 . S
C349 C37 0.849 . S
C363 C103 0.832 . S
C367 C153 0.829 . S
C381 C125 0.855 . S
C385 C169 0.854 . S
C399 C18 2.004 . S
C403 C62 2.016 . S
C417 C40 2.012 . S
C421 C74 2.023 . S
C435 C150 2.020 . S
C439 C106 2.008 . S
C453 C162 2.018 . S
C457 C128 2.007 . S
C471 C21 1.505 . S
C475 C43 1.500 . S
C489 C59 1.496 . S
C493 C73 1.494 . S
C507 C109 1.498 . S
C511 C131 1.506 . S
C525 C161 1.492 . S
C529 C147 1.498 . S
C543 C8 1.423 . S
C547 C142 1.422 . S
C561 C30 1.419 . S
C565 C172 1.418 . S
C579 C54 1.421 . S
C583 C96 1.421 . S
C597 C118 1.423 . S
C601 C84 1.421 . S
