# Generated by pormake.
# Topology snl, (6)-cn, num edge types: 1
# Building blocks:
#     Node 0, Type 0, BuildingBlock: CUKXOW_clean_sbu_0, # of connection points: 6
#     Node 1, Type 0, BuildingBlock: CUKXOW_clean_sbu_0, # of connection points: 6
#     Node 2, Type 0, BuildingBlock: CUKXOW_clean_sbu_0, # of connection points: 6
#     Node 3, Type 0, BuildingBlock: CUKXOW_clean_sbu_0, # of connection points: 6
#     Node 4, Type 0, BuildingBlock: CUKXOW_clean_sbu_0, # of connection points: 6
#     Node 5, Type 0, BuildingBlock: CUKXOW_clean_sbu_0, # of connection points: 6
#     Node 6, Type 0, BuildingBlock: CUKXOW_clean_sbu_0, # of connection points: 6
#     Node 7, Type 0, BuildingBlock: CUKXOW_clean_sbu_0, # of connection points: 6
#     Node 8, Type 0, BuildingBlock: CUKXOW_clean_sbu_0, # of connection points: 6
#     Node 9, Type 0, BuildingBlock: CUKXOW_clean_sbu_0, # of connection points: 6
#     Node 10, Type 0, BuildingBlock: CUKXOW_clean_sbu_0, # of connection points: 6
#     Node 11, Type 0, BuildingBlock: CUKXOW_clean_sbu_0, # of connection points: 6
#     Node 12, Type 0, BuildingBlock: CUKXOW_clean_sbu_0, # of connection points: 6
#     Node 13, Type 0, BuildingBlock: CUKXOW_clean_sbu_0, # of connection points: 6
#     Node 14, Type 0, BuildingBlock: CUKXOW_clean_sbu_0, # of connection points: 6
#     Node 15, Type 0, BuildingBlock: CUKXOW_clean_sbu_0, # of connection points: 6
#     Edge 16, Type (0, 0), BuildingBlock: EZIPEK_clean_linker_0, # of connection points: 2
#     Edge 17, Type (0, 0), BuildingBlock: EZIPEK_clean_linker_0, # of connection points: 2
#     Edge 18, Type (0, 0), BuildingBlock: EZIPEK_clean_linker_0, # of connection points: 2
#     Edge 19, Type (0, 0), BuildingBlock: EZIPEK_clean_linker_0, # of connection points: 2
#     Edge 20, Type (0, 0), BuildingBlock: EZIPEK_clean_linker_0, # of connection points: 2
#     Edge 21, Type (0, 0), BuildingBlock: EZIPEK_clean_linker_0, # of connection points: 2
#     Edge 22, Type (0, 0), BuildingBlock: EZIPEK_clean_linker_0, # of connection points: 2
#     Edge 23, Type (0, 0), BuildingBlock: EZIPEK_clean_linker_0, # of connection points: 2
#     Edge 24, Type (0, 0), BuildingBlock: EZIPEK_clean_linker_0, # of connection points: 2
#     Edge 25, Type (0, 0), BuildingBlock: EZIPEK_clean_linker_0, # of connection points: 2
#     Edge 26, Type (0, 0), BuildingBlock: EZIPEK_clean_linker_0, # of connection points: 2
#     Edge 27, Type (0, 0), BuildingBlock: EZIPEK_clean_linker_0, # of connection points: 2
#     Edge 28, Type (0, 0), BuildingBlock: EZIPEK_clean_linker_0, # of connection points: 2
#     Edge 29, Type (0, 0), BuildingBlock: EZIPEK_clean_linker_0, # of connection points: 2
#     Edge 30, Type (0, 0), BuildingBlock: EZIPEK_clean_linker_0, # of connection points: 2
#     Edge 31, Type (0, 0), BuildingBlock: EZIPEK_clean_linker_0, # of connection points: 2
#     Edge 32, Type (0, 0), BuildingBlock: EZIPEK_clean_linker_0, # of connection points: 2
#     Edge 33, Type (0, 0), BuildingBlock: EZIPEK_clean_linker_0, # of connection points: 2
#     Edge 34, Type (0, 0), BuildingBlock: EZIPEK_clean_linker_0, # of connection points: 2
#     Edge 35, Type (0, 0), BuildingBlock: EZIPEK_clean_linker_0, # of connection points: 2
#     Edge 36, Type (0, 0), BuildingBlock: EZIPEK_clean_linker_0, # of connection points: 2
#     Edge 37, Type (0, 0), BuildingBlock: EZIPEK_clean_linker_0, # of connection points: 2
#     Edge 38, Type (0, 0), BuildingBlock: EZIPEK_clean_linker_0, # of connection points: 2
#     Edge 39, Type (0, 0), BuildingBlock: EZIPEK_clean_linker_0, # of connection points: 2
#     Edge 40, Type (0, 0), BuildingBlock: EZIPEK_clean_linker_0, # of connection points: 2
#     Edge 41, Type (0, 0), BuildingBlock: EZIPEK_clean_linker_0, # of connection points: 2
#     Edge 42, Type (0, 0), BuildingBlock: EZIPEK_clean_linker_0, # of connection points: 2
#     Edge 43, Type (0, 0), BuildingBlock: EZIPEK_clean_linker_0, # of connection points: 2
#     Edge 44, Type (0, 0), BuildingBlock: EZIPEK_clean_linker_0, # of connection points: 2
#     Edge 45, Type (0, 0), BuildingBlock: EZIPEK_clean_linker_0, # of connection points: 2
#     Edge 46, Type (0, 0), BuildingBlock: EZIPEK_clean_linker_0, # of connection points: 2
#     Edge 47, Type (0, 0), BuildingBlock: EZIPEK_clean_linker_0, # of connection points: 2
#     Edge 48, Type (0, 0), BuildingBlock: EZIPEK_clean_linker_0, # of connection points: 2
#     Edge 49, Type (0, 0), BuildingBlock: EZIPEK_clean_linker_0, # of connection points: 2
#     Edge 50, Type (0, 0), BuildingBlock: EZIPEK_clean_linker_0, # of connection points: 2
#     Edge 51, Type (0, 0), BuildingBlock: EZIPEK_clean_linker_0, # of connection points: 2
#     Edge 52, Type (0, 0), BuildingBlock: EZIPEK_clean_linker_0, # of connection points: 2
#     Edge 53, Type (0, 0), BuildingBlock: EZIPEK_clean_linker_0, # of connection points: 2
#     Edge 54, Type (0, 0), BuildingBlock: EZIPEK_clean_linker_0, # of connection points: 2
#     Edge 55, Type (0, 0), BuildingBlock: EZIPEK_clean_linker_0, # of connection points: 2
#     Edge 56, Type (0, 0), BuildingBlock: EZIPEK_clean_linker_0, # of connection points: 2
#     Edge 57, Type (0, 0), BuildingBlock: EZIPEK_clean_linker_0, # of connection points: 2
#     Edge 58, Type (0, 0), BuildingBlock: EZIPEK_clean_linker_0, # of connection points: 2
#     Edge 59, Type (0, 0), BuildingBlock: EZIPEK_clean_linker_0, # of connection points: 2
#     Edge 60, Type (0, 0), BuildingBlock: EZIPEK_clean_linker_0, # of connection points: 2
#     Edge 61, Type (0, 0), BuildingBlock: EZIPEK_clean_linker_0, # of connection points: 2
#     Edge 62, Type (0, 0), BuildingBlock: EZIPEK_clean_linker_0, # of connection points: 2
#     Edge 63, Type (0, 0), BuildingBlock: EZIPEK_clean_linker_0, # of connection points: 2
# Relax obj value: 0.197
# Max RMSD: 0.289
# Mean RMSD: 0.226
data_MOF--net-snl--node1-CUKXOW_clean_sbu_0--edge1-EZIPEK_clean_linker_0
_symmetry_space_group_name_H-M    P1
_symmetry_Int_Tables_number       1
_symmetry_cell_setting            triclinic
loop_
_symmetry_equiv_pos_as_xyz
'x, y, z'
_cell_length_a     51.153905
_cell_length_b     48.686854
_cell_length_c     10.646359
_cell_angle_alpha  94.375222
_cell_angle_beta   94.670727
_cell_angle_gamma 90.268386
loop_
_atom_site_label
_atom_site_type_symbol
_atom_site_fract_x
_atom_site_fract_y
_atom_site_fract_z
_atom_type_partial_charge
Tb0 Tb 0.11207 0.61381 0.2242 0.0
C1 C 0.14205 0.67077 0.27663 0.0
Tb2 Tb 0.17391 0.61695 0.2679 0.0
O3 O 0.1034 0.61003 0.42329 0.0
O4 O 0.14115 0.61348 0.37653 0.0
O5 O 0.12156 0.65725 0.21623 0.0
C6 C 0.22158 0.61192 0.37786 0.0
O7 O 0.16307 0.65852 0.32648 0.0
C8 C 0.15793 0.61924 0.02217 0.0
C9 C 0.14565 0.55988 0.1819 0.0
O10 O 0.21441 0.63115 0.30448 0.0
O11 O 0.20195 0.59569 0.38973 0.0
O12 O 0.18235 0.6199 0.06756 0.0
O13 O 0.1447 0.61812 0.11735 0.0
O14 O 0.16783 0.57337 0.21873 0.0
O15 O 0.12203 0.57108 0.17979 0.0
C16 C 0.06414 0.61304 0.10888 0.0
O17 O 0.08224 0.59535 0.08412 0.0
O18 O 0.07304 0.63125 0.19764 0.0
C19 C 0.12765 0.6121 0.47082 0.0
Tb20 Tb 0.59093 0.87929 0.42853 0.0
C21 C 0.62081 0.82214 0.42219 0.0
Tb22 Tb 0.65069 0.88054 0.44038 0.0
O23 O 0.5899 0.86251 0.23071 0.0
O24 O 0.61978 0.88937 0.30251 0.0
O25 O 0.59875 0.83519 0.44808 0.0
C26 C 0.70044 0.87836 0.36398 0.0
O27 O 0.64209 0.83599 0.39695 0.0
C28 C 0.63232 0.88419 0.66911 0.0
C29 C 0.62189 0.93755 0.48972 0.0
O30 O 0.6923 0.86747 0.46201 0.0
O31 O 0.68045 0.89058 0.31029 0.0
O32 O 0.65526 0.89299 0.64334 0.0
O33 O 0.62206 0.87104 0.56864 0.0
O34 O 0.64426 0.92506 0.46554 0.0
O35 O 0.59937 0.92339 0.48825 0.0
C36 C 0.53759 0.88251 0.43857 0.0
O37 O 0.55144 0.89177 0.35375 0.0
O38 O 0.5541 0.87188 0.52082 0.0
C39 C 0.61126 0.87446 0.20465 0.0
Tb40 Tb 0.4185 0.35267 0.60586 0.0
C41 C 0.38295 0.30004 0.60351 0.0
Tb42 Tb 0.35907 0.35905 0.5894 0.0
O43 O 0.42192 0.37304 0.79785 0.0
O44 O 0.38862 0.35029 0.73552 0.0
O45 O 0.40669 0.30934 0.58507 0.0
C46 C 0.31077 0.36488 0.65539 0.0
O47 O 0.3625 0.31598 0.61979 0.0
C48 C 0.37494 0.35732 0.35615 0.0
C49 C 0.39496 0.41122 0.58914 0.0
O50 O 0.31813 0.3457 0.57502 0.0
O51 O 0.33036 0.38085 0.69742 0.0
O52 O 0.3507 0.35969 0.38277 0.0
O53 O 0.38822 0.35541 0.46085 0.0
O54 O 0.37188 0.40173 0.61471 0.0
O55 O 0.41541 0.39551 0.57163 0.0
C56 C 0.46835 0.34904 0.55553 0.0
O57 O 0.44929 0.35658 0.47869 0.0
O58 O 0.45911 0.34213 0.65899 0.0
C59 C 0.39892 0.36578 0.82789 0.0
Tb60 Tb 0.88162 0.15586 0.90132 0.0
C61 C 0.9363 0.12597 0.88128 0.0
Tb62 Tb 0.88185 0.09379 0.88937 0.0
O63 O 0.8955 0.15824 0.10263 0.0
O64 O 0.8725 0.12536 0.02904 0.0
O65 O 0.92233 0.14816 0.85461 0.0
C66 C 0.88558 0.04064 0.95581 0.0
O67 O 0.92463 0.10303 0.91097 0.0
C68 C 0.87611 0.11377 0.66097 0.0
C69 C 0.82673 0.12273 0.86583 0.0
O70 O 0.89036 0.06286 0.02993 0.0
O71 O 0.87926 0.04852 0.84345 0.0
O72 O 0.86772 0.08995 0.68894 0.0
O73 O 0.88992 0.12419 0.75815 0.0
O74 O 0.83957 0.10034 0.89876 0.0
O75 O 0.83938 0.14632 0.85445 0.0
C76 C 0.87756 0.21159 0.88554 0.0
O77 O 0.86281 0.19272 0.82147 0.0
O78 O 0.89471 0.19893 0.95583 0.0
C79 C 0.88636 0.13469 0.12734 0.0
Tb80 Tb 0.10498 0.39893 0.94897 0.0
C81 C 0.12367 0.33862 0.90318 0.0
Tb82 Tb 0.16525 0.38628 0.94642 0.0
O83 O 0.09645 0.4027 0.74225 0.0
O84 O 0.13318 0.39423 0.81584 0.0
O85 O 0.1062 0.35462 0.95675 0.0
C86 C 0.21159 0.37751 0.8621 0.0
O87 O 0.14627 0.348 0.87011 0.0
C88 C 0.14991 0.38764 0.18319 0.0
C89 C 0.14721 0.44679 1.0029 0.0
O90 O 0.19975 0.36074 0.92843 0.0
O91 O 0.19758 0.39918 0.84421 0.0
O92 O 0.17388 0.38362 0.15395 0.0
O93 O 0.13677 0.39044 0.07904 0.0
O94 O 0.16601 0.43087 0.96089 0.0
O95 O 0.1234 0.43778 1.02064 0.0
C96 C 0.05767 0.40816 0.02405 0.0
O97 O 0.07526 0.42706 1.01647 0.0
O98 O 0.06682 0.38412 0.99111 0.0
C99 C 0.1201 0.39733 0.71185 0.0
Tb100 Tb 0.91644 0.8684 0.13868 0.0
C101 C 0.88642 0.80997 0.11732 0.0
Tb102 Tb 0.85743 0.86735 0.11759 0.0
O103 O 0.91607 0.88632 0.33426 0.0
O104 O 0.88684 0.85909 0.26352 0.0
O105 O 0.90875 0.82337 0.1038 0.0
C106 C 0.80735 0.8729 0.18783 0.0
O107 O 0.86459 0.82347 0.14144 0.0
C108 C 0.87742 0.86049 0.89272 0.0
C109 C 0.88742 0.92504 0.09324 0.0
O110 O 0.81461 0.85849 0.08878 0.0
O111 O 0.82839 0.88467 0.24466 0.0
O112 O 0.85459 0.8515 0.91848 0.0
O113 O 0.88668 0.87533 0.98988 0.0
O114 O 0.86512 0.91255 0.11608 0.0
O115 O 0.90953 0.91084 0.08467 0.0
C116 C 0.96991 0.8664 0.13784 0.0
O117 O 0.95298 0.85672 0.04705 0.0
O118 O 0.95654 0.87694 0.22744 0.0
C119 C 0.89447 0.87492 0.35966 0.0
Tb120 Tb 0.38145 0.63699 0.47801 0.0
C121 C 0.43902 0.61434 0.48336 0.0
Tb122 Tb 0.38911 0.57823 0.46689 0.0
O123 O 0.36681 0.63919 0.66604 0.0
O124 O 0.39405 0.60952 0.61815 0.0
O125 O 0.42348 0.6352 0.45979 0.0
C126 C 0.39183 0.52588 0.51446 0.0
O127 O 0.43 0.58977 0.50288 0.0
C128 C 0.39182 0.5989 0.24414 0.0
C129 C 0.3315 0.60119 0.46829 0.0
O130 O 0.39962 0.54631 0.59342 0.0
O131 O 0.38246 0.53478 0.40862 0.0
O132 O 0.40514 0.57799 0.28179 0.0
O133 O 0.37621 0.60561 0.32764 0.0
O134 O 0.34686 0.57976 0.48441 0.0
O135 O 0.34061 0.62593 0.4536 0.0
C136 C 0.37808 0.68708 0.40152 0.0
O137 O 0.36858 0.66516 0.33818 0.0
O138 O 0.3894 0.68113 0.5095 0.0
C139 C 0.37879 0.61727 0.70209 0.0
Tb140 Tb 0.6021 0.11796 0.637 0.0
C141 C 0.63384 0.1743 0.65529 0.0
Tb142 Tb 0.66051 0.1145 0.65533 0.0
O143 O 0.60418 0.13552 0.83188 0.0
O144 O 0.63132 0.10619 0.7801 0.0
O145 O 0.61062 0.16199 0.62549 0.0
C146 C 0.71247 0.11754 0.73474 0.0
O147 O 0.65545 0.15981 0.68054 0.0
C148 C 0.63921 0.11156 0.41781 0.0
C149 C 0.62849 0.05894 0.6044 0.0
O150 O 0.70237 0.1095 0.62212 0.0
O151 O 0.69315 0.12364 0.80361 0.0
O152 O 0.66113 0.10038 0.45567 0.0
O153 O 0.63139 0.126 0.51156 0.0
O154 O 0.65043 0.07054 0.66122 0.0
O155 O 0.60808 0.0744 0.56965 0.0
C156 C 0.54884 0.11582 0.61203 0.0
O157 O 0.56412 0.10411 0.69459 0.0
O158 O 0.56369 0.12806 0.53917 0.0
C159 C 0.62444 0.12197 0.87165 0.0
Tb160 Tb 0.84233 0.39102 0.92296 0.0
C161 C 0.8687 0.44986 0.96157 0.0
Tb162 Tb 0.89825 0.39185 0.94679 0.0
O163 O 0.83937 0.40744 0.11839 0.0
O164 O 0.8703 0.38202 0.07498 0.0
O165 O 0.84648 0.43604 0.92908 0.0
C166 C 0.94877 0.40011 1.01984 0.0
O167 O 0.89102 0.43651 0.98328 0.0
C168 C 0.87847 0.38465 0.70798 0.0
C169 C 0.87253 0.33328 0.91094 0.0
O170 O 0.93116 0.39325 0.09228 0.0
O171 O 0.93802 0.40203 0.90678 0.0
O172 O 0.9001 0.37397 0.75278 0.0
O173 O 0.87013 0.40055 0.79539 0.0
O174 O 0.89411 0.34721 0.95506 0.0
O175 O 0.85063 0.34665 0.87846 0.0
C176 C 0.79257 0.38583 0.82998 0.0
O177 O 0.80306 0.37311 0.92388 0.0
O178 O 0.81 0.40142 0.7892 0.0
C179 C 0.86124 0.39715 0.16328 0.0
Tb180 Tb 0.32336 0.13406 0.65558 0.0
C181 C 0.34856 0.07611 0.61421 0.0
Tb182 Tb 0.38273 0.13047 0.66811 0.0
O183 O 0.31878 0.11975 0.45501 0.0
O184 O 0.35278 0.14108 0.52535 0.0
O185 O 0.32715 0.08954 0.64338 0.0
C186 C 0.43507 0.12511 0.64304 0.0
O187 O 0.37179 0.088 0.61193 0.0
C188 C 0.36258 0.13659 0.89368 0.0
C189 C 0.35808 0.18773 0.65773 0.0
O190 O 0.41678 0.10788 0.59565 0.0
O191 O 0.42384 0.14509 0.70477 0.0
O192 O 0.38582 0.14421 0.87055 0.0
O193 O 0.3531 0.12283 0.79459 0.0
O194 O 0.37688 0.1719 0.61602 0.0
O195 O 0.33594 0.17745 0.69291 0.0
C196 C 0.27303 0.13913 0.72085 0.0
O197 O 0.28162 0.14485 0.61401 0.0
O198 O 0.29304 0.13121 0.79155 0.0
C199 C 0.34176 0.12785 0.42709 0.0
Tb200 Tb 0.65849 0.64482 0.45279 0.0
C201 C 0.63143 0.58629 0.4625 0.0
Tb202 Tb 0.59946 0.6421 0.44488 0.0
O203 O 0.66863 0.64922 0.6609 0.0
O204 O 0.63038 0.64663 0.58699 0.0
O205 O 0.65198 0.59972 0.42652 0.0
C206 C 0.54955 0.63317 0.47657 0.0
O207 O 0.60968 0.59968 0.48899 0.0
C208 C 0.61837 0.64721 0.22107 0.0
C209 C 0.62531 0.701 0.45466 0.0
O210 O 0.56232 0.62128 0.38769 0.0
O211 O 0.56478 0.6503 0.54813 0.0
O212 O 0.59612 0.65672 0.25388 0.0
O213 O 0.62793 0.63338 0.30995 0.0
O214 O 0.60453 0.68685 0.4823 0.0
O215 O 0.64768 0.68841 0.4304 0.0
C216 C 0.70507 0.64758 0.36206 0.0
O217 O 0.68569 0.66383 0.33686 0.0
O218 O 0.69848 0.63001 0.44004 0.0
C219 C 0.64446 0.64877 0.6905 0.0
Tb220 Tb 0.13877 0.90449 0.20172 0.0
C221 C 0.19471 0.87555 0.23083 0.0
Tb222 Tb 0.14092 0.83981 0.19257 0.0
O223 O 0.13918 0.91283 0.41054 0.0
O224 O 0.13941 0.87337 0.32907 0.0
O225 O 0.18159 0.89857 0.20812 0.0
C226 C 0.14196 0.7881 0.25236 0.0
O227 O 0.18273 0.8513 0.23785 0.0
C228 C 0.14009 0.85767 0.95989 0.0
C229 C 0.08589 0.86921 0.1758 0.0
O230 O 0.16163 0.80522 0.27193 0.0
O231 O 0.12175 0.80002 0.20005 0.0
O232 O 0.14162 0.83194 0.98354 0.0
O233 O 0.13952 0.87082 0.06621 0.0
O234 O 0.09931 0.84807 0.21953 0.0
O235 O 0.09805 0.89142 0.14241 0.0
C236 C 0.1327 0.95387 0.11679 0.0
O237 O 0.11743 0.94283 0.1908 0.0
O238 O 0.15205 0.93754 0.09387 0.0
C239 C 0.13926 0.88702 0.43492 0.0
Tb240 Tb 0.84815 0.63069 0.03444 0.0
C241 C 0.87246 0.5718 1.00599 0.0
Tb242 Tb 0.90461 0.62851 0.04424 0.0
O243 O 0.84284 0.61658 0.83418 0.0
O244 O 0.8758 0.64026 0.90269 0.0
O245 O 0.8519 0.58588 0.04283 0.0
C246 C 0.95481 0.62085 1.00454 0.0
O247 O 0.89443 0.58486 0.98568 0.0
C248 C 0.88673 0.63274 0.27213 0.0
C249 C 0.88034 0.68807 0.06475 0.0
O250 O 0.9379 0.63244 0.92873 0.0
O251 O 0.94341 0.61327 0.10039 0.0
O252 O 0.90862 0.64334 0.24418 0.0
O253 O 0.87689 0.61868 0.17413 0.0
O254 O 0.90224 0.67369 0.05608 0.0
O255 O 0.85707 0.67545 0.05793 0.0
C256 C 0.80107 0.63936 0.11722 0.0
O257 O 0.80527 0.62941 1.00409 0.0
O258 O 0.8232 0.64473 0.18227 0.0
C259 C 0.86514 0.62629 0.80606 0.0
Tb260 Tb 0.10817 0.10856 0.835 0.0
C261 C 0.16098 0.1418 0.82402 0.0
Tb262 Tb 0.10389 0.16728 0.85644 0.0
O263 O 0.12104 0.10615 0.64486 0.0
O264 O 0.09562 0.13741 0.70025 0.0
O265 O 0.15025 0.11719 0.83146 0.0
C266 C 0.10711 0.22155 0.84914 0.0
O267 O 0.14618 0.16406 0.82944 0.0
C268 C 0.10013 0.14536 0.07383 0.0
C269 C 0.05075 0.13508 0.84501 0.0
O270 O 0.09737 0.2048 0.75643 0.0
O271 O 0.11485 0.20782 0.94402 0.0
O272 O 0.08806 0.16712 0.03976 0.0
O273 O 0.11575 0.13824 0.99059 0.0
O274 O 0.06161 0.15906 0.82577 0.0
O275 O 0.06551 0.11278 0.85758 0.0
C276 C 0.11217 0.05756 0.90618 0.0
O277 O 0.0992 0.06427 0.803 0.0
O278 O 0.12234 0.0794 0.96822 0.0
C279 C 0.10973 0.12869 0.61283 0.0
Tb280 Tb 0.62914 0.41281 0.58503 0.0
C281 C 0.68291 0.38489 0.65477 0.0
Tb282 Tb 0.6315 0.34954 0.57477 0.0
O283 O 0.63952 0.41723 0.78858 0.0
O284 O 0.62041 0.38157 0.71066 0.0
O285 O 0.67144 0.40708 0.61171 0.0
C286 C 0.63502 0.29461 0.61185 0.0
O287 O 0.67049 0.36119 0.6602 0.0
C288 C 0.62712 0.37033 0.34784 0.0
C289 C 0.57668 0.37691 0.54682 0.0
O290 O 0.65234 0.30957 0.56432 0.0
O291 O 0.616 0.31093 0.63988 0.0
O292 O 0.61997 0.34578 0.37097 0.0
O293 O 0.63964 0.38076 0.44853 0.0
O294 O 0.58984 0.35488 0.57842 0.0
O295 O 0.58788 0.40114 0.53446 0.0
C296 C 0.62709 0.46683 0.5304 0.0
O297 O 0.6183 0.45651 0.62807 0.0
O298 O 0.63676 0.44659 0.46265 0.0
C299 C 0.63179 0.39282 0.8127 0.0
Tb300 Tb 0.36559 0.90952 0.38522 0.0
C301 C 0.3105 0.87813 0.33056 0.0
Tb302 Tb 0.36567 0.85194 0.36782 0.0
O303 O 0.38351 0.91171 0.20724 0.0
O304 O 0.35711 0.87993 0.22701 0.0
O305 O 0.32284 0.90066 0.38431 0.0
C306 C 0.37179 0.79862 0.31493 0.0
O307 O 0.32448 0.85632 0.29745 0.0
C308 C 0.36018 0.87289 0.602 0.0
C309 C 0.42146 0.88314 0.40321 0.0
O310 O 0.38304 0.81765 0.25985 0.0
O311 O 0.35703 0.80944 0.39754 0.0
O312 O 0.34923 0.85038 0.55084 0.0
O313 O 0.37511 0.8815 0.52451 0.0
O314 O 0.40866 0.85935 0.37454 0.0
O315 O 0.40841 0.90641 0.42105 0.0
C316 C 0.35766 0.96172 0.46163 0.0
O317 O 0.36734 0.94334 0.53294 0.0
O318 O 0.35279 0.95086 0.34734 0.0
C319 C 0.37271 0.88916 0.15331 0.0
C320 C 0.15946 0.59572 0.80033 0.0
C321 C 0.14895 0.61673 0.88209 0.0
C322 C 0.12416 0.63413 0.69535 0.0
C323 C 0.13623 0.61449 0.61194 0.0
N324 N 0.16687 0.57758 0.58685 0.0
N325 N 0.12583 0.65952 0.9013 0.0
C326 C 0.15451 0.59578 0.66531 0.0
C327 C 0.13235 0.63674 0.82792 0.0
N328 N 0.17319 0.57474 0.85221 0.0
N329 N 0.10475 0.65062 0.6486 0.0
H330 H 0.13235 0.66278 0.99635 0.0
H331 H 0.11638 0.67652 0.86564 0.0
H332 H 0.0995 0.65154 0.55268 0.0
H333 H 0.09268 0.66227 0.70577 0.0
H334 H 0.17904 0.55718 0.80039 0.0
H335 H 0.17663 0.57345 0.94942 0.0
H336 H 0.18284 0.56583 0.61621 0.0
H337 H 0.16201 0.57539 0.48985 0.0
C338 C 0.61995 0.85326 0.98665 0.0
C339 C 0.61781 0.87733 0.06951 0.0
C340 C 0.6268 0.90534 0.89273 0.0
C341 C 0.62579 0.88146 0.80537 0.0
N342 N 0.61835 0.83213 0.773 0.0
N343 N 0.61294 0.92672 0.08932 0.0
C344 C 0.62124 0.85532 0.85334 0.0
C345 C 0.61967 0.90349 1.01949 0.0
N346 N 0.6221 0.8282 0.03633 0.0
N347 N 0.63475 0.9301 0.85581 0.0
H348 H 0.60631 0.92646 0.17909 0.0
H349 H 0.61114 0.94594 0.05274 0.0
H350 H 0.63891 0.93318 0.76379 0.0
H351 H 0.63902 0.94723 0.91916 0.0
H352 H 0.62679 0.81015 0.98447 0.0
H353 H 0.62193 0.82585 0.13278 0.0
H354 H 0.61143 0.81344 0.79943 0.0
H355 H 0.62116 0.83175 0.67783 0.0
C356 C 0.37234 0.38179 0.15418 0.0
C357 C 0.38406 0.3609 0.22636 0.0
C358 C 0.40753 0.34463 0.04031 0.0
C359 C 0.3934 0.36352 0.96458 0.0
N360 N 0.36085 0.39882 0.94905 0.0
N361 N 0.41186 0.32123 0.23507 0.0
C362 C 0.37535 0.38162 0.0217 0.0
C363 C 0.40166 0.3422 0.16893 0.0
N364 N 0.35957 0.40298 0.2141 0.0
N365 N 0.42681 0.32907 0.9897 0.0
H366 H 0.40897 0.31944 0.32974 0.0
H367 H 0.42195 0.30473 0.19481 0.0
H368 H 0.43045 0.32857 0.89464 0.0
H369 H 0.44016 0.31769 0.04296 0.0
H370 H 0.35297 0.42037 0.17045 0.0
H371 H 0.35834 0.40502 0.31162 0.0
H372 H 0.34473 0.40967 0.97931 0.0
H373 H 0.36389 0.40079 0.85488 0.0
C374 C 0.86431 0.1404 0.4667 0.0
C375 C 0.87951 0.1197 0.52496 0.0
C376 C 0.89948 0.10905 0.32214 0.0
C377 C 0.88272 0.12809 0.26156 0.0
N378 N 0.84688 0.15975 0.27307 0.0
N379 N 0.90841 0.0809 0.49882 0.0
C380 C 0.8645 0.14316 0.3333 0.0
C381 C 0.89613 0.10302 0.44974 0.0
N382 N 0.8498 0.15775 0.53936 0.0
N383 N 0.91946 0.09746 0.25948 0.0
H384 H 0.90732 0.07608 0.59181 0.0
H385 H 0.91806 0.06607 0.44463 0.0
H386 H 0.92247 0.1012 0.16657 0.0
H387 H 0.93432 0.08602 0.30261 0.0
H388 H 0.84065 0.17527 0.50764 0.0
H389 H 0.84847 0.15568 0.63507 0.0
H390 H 0.83112 0.16896 0.31519 0.0
H391 H 0.84677 0.16268 0.17705 0.0
C392 C 0.12206 0.37293 0.35649 0.0
C393 C 0.14138 0.39074 0.31725 0.0
C394 C 0.14925 0.41046 0.54007 0.0
C395 C 0.12848 0.39413 0.57735 0.0
N396 N 0.09276 0.36202 0.51391 0.0
N397 N 0.17121 0.42899 0.37031 0.0
C398 C 0.11412 0.37622 0.48306 0.0
C399 C 0.15453 0.41 0.40928 0.0
N400 N 0.11253 0.35143 0.27547 0.0
N401 N 0.16377 0.42695 0.62942 0.0
H402 H 0.17531 0.4294 0.27649 0.0
H403 H 0.17923 0.4457 0.42758 0.0
H404 H 0.15887 0.43018 0.7222 0.0
H405 H 0.1814 0.43634 0.61366 0.0
H406 H 0.10066 0.33576 0.30163 0.0
H407 H 0.11871 0.34761 0.18513 0.0
H408 H 0.0793 0.35198 0.44697 0.0
H409 H 0.08754 0.36149 0.60598 0.0
C410 C 0.8666 0.88372 0.68731 0.0
C411 C 0.88271 0.86554 0.75803 0.0
C412 C 0.90413 0.85121 0.56335 0.0
C413 C 0.8891 0.87048 0.49451 0.0
N414 N 0.8595 0.9087 0.49815 0.0
N415 N 0.92069 0.83668 0.76822 0.0
C416 C 0.87125 0.88768 0.55864 0.0
C417 C 0.90259 0.85066 0.69718 0.0
N418 N 0.84683 0.89746 0.74328 0.0
N419 N 0.91964 0.83299 0.50041 0.0
H420 H 0.92036 0.83638 0.86577 0.0
H421 H 0.93729 0.82767 0.73307 0.0
H422 H 0.92163 0.83297 0.40369 0.0
H423 H 0.92879 0.81644 0.54159 0.0
H424 H 0.83218 0.90792 0.69337 0.0
H425 H 0.84434 0.89744 0.83948 0.0
H426 H 0.84865 0.92403 0.54277 0.0
H427 H 0.86228 0.91205 0.40462 0.0
C428 C 0.3695 0.58958 0.88788 0.0
C429 C 0.38297 0.61167 0.83997 0.0
C430 C 0.39884 0.6277 0.05915 0.0
C431 C 0.38735 0.60422 0.10593 0.0
N432 N 0.36389 0.56104 0.06146 0.0
N433 N 0.41392 0.64935 0.87926 0.0
C434 C 0.37333 0.58466 1.0191 0.0
C435 C 0.39859 0.63005 0.92566 0.0
N436 N 0.35219 0.57375 0.80878 0.0
N437 N 0.40956 0.64818 0.14241 0.0
H438 H 0.4143 0.65172 0.78286 0.0
H439 H 0.428 0.66133 0.93499 0.0
H440 H 0.41049 0.64696 0.23971 0.0
H441 H 0.41553 0.66723 0.11595 0.0
H442 H 0.339 0.5599 0.83975 0.0
H443 H 0.34985 0.57573 0.7121 0.0
H444 H 0.35664 0.54433 1.00164 0.0
H445 H 0.3647 0.55734 0.15683 0.0
C446 C 0.63355 0.14206 0.09508 0.0
C447 C 0.62977 0.11816 1.01035 0.0
C448 C 0.63006 0.09008 0.19421 0.0
C449 C 0.63183 0.11432 0.27873 0.0
N450 N 0.62689 0.16381 0.30113 0.0
N451 N 0.61861 0.06962 0.98209 0.0
C452 C 0.63104 0.14044 0.22687 0.0
C453 C 0.6266 0.09215 0.06048 0.0
N454 N 0.64031 0.16644 0.05 0.0
N455 N 0.63116 0.06482 0.24188 0.0
H456 H 0.61535 0.06999 0.88472 0.0
H457 H 0.61293 0.05102 1.01436 0.0
H458 H 0.63005 0.06228 0.33747 0.0
H459 H 0.63402 0.04657 0.18728 0.0
H460 H 0.64598 0.18395 0.10854 0.0
H461 H 0.6431 0.16829 0.955 0.0
H462 H 0.62382 0.18299 0.26548 0.0
H463 H 0.623 0.16364 0.395 0.0
C464 C 0.88645 0.40814 0.37706 0.0
C465 C 0.86638 0.39277 0.30188 0.0
C466 C 0.85513 0.37073 0.49252 0.0
C467 C 0.87326 0.38832 0.5692 0.0
N468 N 0.90372 0.42657 0.58599 0.0
N469 N 0.82987 0.36088 0.29058 0.0
C470 C 0.88819 0.40784 0.51172 0.0
C471 C 0.85019 0.37452 0.36059 0.0
N472 N 0.90445 0.42245 0.31951 0.0
N473 N 0.84329 0.34966 0.54479 0.0
H474 H 0.82661 0.36155 0.19294 0.0
H475 H 0.81533 0.35014 0.33008 0.0
H476 H 0.84597 0.34662 0.64067 0.0
H477 H 0.83231 0.33409 0.49221 0.0
H478 H 0.92127 0.43159 0.36687 0.0
H479 H 0.90367 0.42312 0.2219 0.0
H480 H 0.91276 0.44329 0.55114 0.0
H481 H 0.90583 0.42684 0.68435 0.0
C482 C 0.36859 0.11674 0.23731 0.0
C483 C 0.34769 0.13141 0.29126 0.0
C484 C 0.33606 0.14955 0.08221 0.0
C485 C 0.35558 0.13301 0.02692 0.0
N486 N 0.38699 0.0967 0.04797 0.0
N487 N 0.30938 0.15969 0.2582 0.0
C488 C 0.37086 0.11545 0.10368 0.0
C489 C 0.33074 0.14707 0.21133 0.0
N490 N 0.38659 0.1041 0.31416 0.0
N491 N 0.32329 0.16862 1.01292 0.0
H492 H 0.30596 0.16088 0.35358 0.0
H493 H 0.29435 0.16799 0.20145 0.0
H494 H 0.32612 0.17049 0.91823 0.0
H495 H 0.31132 0.18378 0.05106 0.0
H496 H 0.40369 0.09523 0.28404 0.0
H497 H 0.38518 0.10432 0.41081 0.0
H498 H 0.39653 0.08122 0.09548 0.0
H499 H 0.38879 0.0948 0.9508 0.0
C500 C 0.62589 0.67214 0.0251 0.0
C501 C 0.62639 0.64703 0.08639 0.0
C502 C 0.63883 0.62286 0.88677 0.0
C503 C 0.63606 0.64756 0.8234 0.0
N504 N 0.6226 0.69482 0.82861 0.0
N505 N 0.62861 0.59736 0.06439 0.0
C506 C 0.62816 0.67187 0.89161 0.0
C507 C 0.63176 0.62208 1.0144 0.0
N508 N 0.62461 0.69661 0.09591 0.0
N509 N 0.64829 0.59994 0.8247 0.0
H510 H 0.62283 0.59555 0.15488 0.0
H511 H 0.62932 0.57844 1.0122 0.0
H512 H 0.65176 0.59927 0.72962 0.0
H513 H 0.6541 0.58234 0.86887 0.0
H514 H 0.6268 0.71575 0.06033 0.0
H515 H 0.62423 0.69776 0.19364 0.0
H516 H 0.61403 0.71233 0.86919 0.0
H517 H 0.62436 0.6954 0.73202 0.0
C518 C 0.16297 0.87352 0.63975 0.0
C519 C 0.13898 0.87692 0.56583 0.0
C520 C 0.11515 0.86905 0.75384 0.0
C521 C 0.13931 0.86812 0.82968 0.0
N522 N 0.18595 0.87541 0.84926 0.0
N523 N 0.09197 0.88035 0.55578 0.0
C524 C 0.16313 0.87213 0.77364 0.0
C525 C 0.11498 0.87542 0.62419 0.0
N526 N 0.18562 0.87057 0.58112 0.0
N527 N 0.09232 0.86325 0.8051 0.0
H528 H 0.09102 0.88305 0.45938 0.0
H529 H 0.07409 0.88298 0.59515 0.0
H530 H 0.09164 0.85997 0.9004 0.0
H531 H 0.07433 0.8603 0.75254 0.0
H532 H 0.20355 0.8657 0.62723 0.0
H533 H 0.1857 0.8699 0.48325 0.0
H534 H 0.20378 0.88075 0.81648 0.0
H535 H 0.18631 0.87584 0.94741 0.0
C536 C 0.87308 0.65409 0.61823 0.0
C537 C 0.87149 0.62827 0.6709 0.0
C538 C 0.87507 0.6051 0.45786 0.0
C539 C 0.87997 0.6309 0.40778 0.0
N540 N 0.88805 0.67994 0.45222 0.0
N541 N 0.87628 0.57912 0.64393 0.0
C542 C 0.88046 0.65531 0.49186 0.0
C543 C 0.87385 0.60379 0.59123 0.0
N544 N 0.86598 0.67751 0.68555 0.0
N545 N 0.87165 0.58155 0.37987 0.0
H546 H 0.8764 0.57744 0.74085 0.0
H547 H 0.88106 0.56084 0.59401 0.0
H548 H 0.8737 0.58049 0.28372 0.0
H549 H 0.86466 0.56317 0.40942 0.0
H550 H 0.86393 0.69649 0.64695 0.0
H551 H 0.85949 0.67753 0.77581 0.0
H552 H 0.89189 0.69745 0.51369 0.0
H553 H 0.89237 0.68261 0.36011 0.0
C554 C 0.11878 0.156 0.42855 0.0
C555 C 0.10486 0.13439 0.47634 0.0
C556 C 0.08596 0.12108 0.25998 0.0
C557 C 0.10337 0.13964 0.21058 0.0
N558 N 0.13839 0.17331 0.24987 0.0
N559 N 0.076 0.09486 0.43546 0.0
C560 C 0.12048 0.15658 0.29566 0.0
C561 C 0.08875 0.11641 0.39124 0.0
N562 N 0.12924 0.17682 0.51008 0.0
N563 N 0.06586 0.10891 0.18311 0.0
H564 H 0.07613 0.09181 0.5314 0.0
H565 H 0.06645 0.07925 0.37644 0.0
H566 H 0.06327 0.11159 0.08704 0.0
H567 H 0.05073 0.09783 0.21631 0.0
H568 H 0.13762 0.19458 0.48112 0.0
H569 H 0.1265 0.17763 0.60606 0.0
H570 H 0.15307 0.18405 0.30744 0.0
H571 H 0.14002 0.17459 0.15346 0.0
C572 C 0.61493 0.39961 0.162 0.0
C573 C 0.62992 0.37798 0.21369 0.0
C574 C 0.64092 0.36252 0.99703 0.0
C575 C 0.62809 0.38563 0.94687 0.0
N576 N 0.60323 0.42702 0.98484 0.0
N577 N 0.66145 0.34213 0.18155 0.0
C578 C 0.6153 0.40442 0.0307 0.0
C579 C 0.64411 0.3604 0.13115 0.0
N580 N 0.59932 0.41495 0.23735 0.0
N581 N 0.64949 0.34208 0.91624 0.0
H582 H 0.66488 0.34061 0.27872 0.0
H583 H 0.6744 0.33065 0.12872 0.0
H584 H 0.64576 0.34219 0.8189 0.0
H585 H 0.65727 0.32365 0.94513 0.0
H586 H 0.58486 0.42811 0.20352 0.0
H587 H 0.59999 0.41339 0.33416 0.0
H588 H 0.59712 0.44365 0.0422 0.0
H589 H 0.59996 0.42961 0.88861 0.0
C590 C 0.38466 0.86486 0.94734 0.0
C591 C 0.369 0.88442 1.01217 0.0
C592 C 0.34799 0.89679 0.80769 0.0
C593 C 0.36454 0.87826 0.74276 0.0
N594 N 0.40091 0.84704 0.74885 0.0
N595 N 0.33695 0.92053 1.00528 0.0
C596 C 0.38353 0.86296 0.81223 0.0
C597 C 0.35093 0.90074 0.9425 0.0
N598 N 0.40013 0.84755 1.01518 0.0
N599 N 0.32902 0.91029 0.73981 0.0
H600 H 0.33723 0.92294 0.10353 0.0
H601 H 0.32596 0.9355 0.96094 0.0
H602 H 0.32841 0.91033 0.64184 0.0
H603 H 0.3136 0.92076 0.77922 0.0
H604 H 0.40985 0.83075 0.97517 0.0
H605 H 0.40186 0.84888 0.11351 0.0
H606 H 0.41713 0.8378 0.79278 0.0
H607 H 0.40034 0.84467 0.65048 0.0
C608 C 0.16073 0.71328 0.20108 0.0
C609 C 0.14277 0.70094 0.2754 0.0
C610 C 0.12701 0.74632 0.3479 0.0
C611 C 0.14341 0.75839 0.26597 0.0
N612 N 0.17259 0.75369 0.0985 0.0
N613 N 0.10651 0.70478 0.40687 0.0
C614 C 0.15962 0.74204 0.18904 0.0
C615 C 0.12519 0.71719 0.34513 0.0
N616 N 0.17862 0.69751 0.14032 0.0
N617 N 0.11383 0.76277 0.43094 0.0
H618 H 0.10509 0.6835 0.40966 0.0
H619 H 0.09129 0.71532 0.44768 0.0
H620 H 0.11485 0.78424 0.43552 0.0
H621 H 0.10368 0.75532 0.50234 0.0
H622 H 0.19442 0.70572 0.09942 0.0
H623 H 0.17869 0.67607 0.1363 0.0
H624 H 0.18206 0.74236 0.02912 0.0
H625 H 0.17214 0.77467 0.08501 0.0
C626 C 0.49401 0.88936 0.54198 0.0
C627 C 0.50775 0.88199 0.43313 0.0
C628 C 0.46509 0.87914 0.30447 0.0
C629 C 0.45122 0.88359 0.41436 0.0
N630 N 0.45271 0.88946 0.64135 0.0
N631 N 0.50487 0.86301 0.21588 0.0
C632 C 0.46579 0.88768 0.53422 0.0
C633 C 0.49284 0.87501 0.31581 0.0
N634 N 0.50772 0.89928 0.65162 0.0
N635 N 0.45191 0.88001 0.1881 0.0
H636 H 0.52468 0.85793 0.22134 0.0
H637 H 0.49459 0.85507 0.13239 0.0
H638 H 0.43199 0.88443 0.17662 0.0
H639 H 0.46124 0.87957 0.10454 0.0
H640 H 0.49882 0.90774 0.73 0.0
H641 H 0.52808 0.90139 0.66078 0.0
H642 H 0.46204 0.88922 0.73192 0.0
H643 H 0.43228 0.88907 0.63917 0.0
C644 C 0.37608 0.26233 0.74194 0.0
C645 C 0.37873 0.27082 0.61877 0.0
C646 C 0.36168 0.22656 0.524 0.0
C647 C 0.36119 0.21727 0.64679 0.0
N648 N 0.3703 0.22444 0.87256 0.0
N649 N 0.37687 0.26096 0.39308 0.0
C650 C 0.36888 0.23468 0.75608 0.0
C651 C 0.37244 0.25285 0.50976 0.0
N652 N 0.37999 0.2809 0.84492 0.0
N653 N 0.35113 0.21037 0.42165 0.0
H654 H 0.38422 0.28042 0.37961 0.0
H655 H 0.37519 0.24788 0.31077 0.0
H656 H 0.34261 0.19121 0.43034 0.0
H657 H 0.34863 0.21672 0.33035 0.0
H658 H 0.37535 0.27698 0.9353 0.0
H659 H 0.38663 0.30097 0.83881 0.0
H660 H 0.3788 0.23507 0.95439 0.0
H661 H 0.36425 0.20449 0.88659 0.0
C662 C 0.97859 0.10942 0.78705 0.0
C663 C 0.96576 0.12716 0.87483 0.0
C664 C 0.00824 0.15056 0.94188 0.0
C665 C 0.02126 0.1329 0.85368 0.0
N666 N 0.01755 0.0991 0.67562 0.0
N667 N 0.96937 0.16045 0.05415 0.0
C668 C 0.00608 0.11305 0.77288 0.0
C669 C 0.98087 0.14675 0.95625 0.0
N670 N 0.96455 0.08871 0.71807 0.0
N671 N 0.02179 0.17158 1.01092 0.0
H672 H 0.94968 0.15789 0.06978 0.0
H673 H 0.97966 0.17233 0.12751 0.0
H674 H 0.04188 0.17429 1.01205 0.0
H675 H 0.01292 0.18765 0.06115 0.0
H676 H 0.97289 0.07287 0.66417 0.0
H677 H 0.94445 0.08617 0.72141 0.0
H678 H 0.00736 0.0866 0.60424 0.0
H679 H 0.03712 0.10194 0.6586 0.0
C680 C 0.13872 0.29077 0.92903 0.0
C681 C 0.11875 0.30869 0.88609 0.0
C682 C 0.09023 0.26899 0.81573 0.0
C683 C 0.11133 0.25136 0.84709 0.0
N684 N 0.15773 0.24575 0.89949 0.0
N685 N 0.077 0.31492 0.7681 0.0
C686 C 0.13624 0.26234 0.89306 0.0
C687 C 0.09488 0.29787 0.82334 0.0
N688 N 0.15937 0.30056 1.01004 0.0
N689 N 0.06553 0.25843 0.78499 0.0
H690 H 0.07942 0.33621 0.77248 0.0
H691 H 0.06078 0.30774 0.70901 0.0
H692 H 0.06122 0.23741 0.7788 0.0
H693 H 0.04893 0.27067 0.77575 0.0
H694 H 0.1731 0.28772 0.05276 0.0
H695 H 0.1611 0.32105 0.04647 0.0
H696 H 0.17675 0.25338 0.92178 0.0
H697 H 0.15692 0.22489 0.8684 0.0
C698 C 0.04205 0.84478 0.10344 0.0
C699 C 0.0561 0.86825 0.16364 0.0
C700 C 0.01363 0.8917 0.18347 0.0
C701 C 0.99957 0.86708 0.13939 0.0
N702 N 1.0012 0.81852 0.07607 0.0
N703 N 0.05397 0.91232 0.28352 0.0
C704 C 0.01401 0.84318 0.10403 0.0
C705 C 0.0415 0.89123 0.20965 0.0
N706 N 0.05524 0.82444 0.0403 0.0
N707 N 1.00056 0.91607 0.19503 0.0
H708 H 0.07409 0.91283 0.30842 0.0
H709 H 0.04396 0.92795 0.33116 0.0
H710 H 0.98048 0.91772 0.17112 0.0
H711 H 0.01007 0.93508 0.21397 0.0
H712 H 0.04582 0.80841 0.98339 0.0
H713 H 0.07544 0.825 0.03375 0.0
H714 H 0.01091 0.79986 0.0637 0.0
H715 H 0.98095 0.81626 0.0768 0.0
C716 C 0.35292 0.72572 0.31307 0.0
C717 C 0.37734 0.71435 0.35365 0.0
C718 C 0.4001 0.75747 0.33009 0.0
C719 C 0.37551 0.76903 0.29466 0.0
N720 N 0.33068 0.76286 0.21074 0.0
N721 N 0.42462 0.71576 0.36057 0.0
C722 C 0.35264 0.75253 0.27126 0.0
C723 C 0.40116 0.72906 0.3491 0.0
N724 N 0.32994 0.71186 0.32298 0.0
N725 N 0.422 0.77383 0.35352 0.0
H726 H 0.42601 0.69471 0.37214 0.0
H727 H 0.44246 0.72493 0.3461 0.0
H728 H 0.42224 0.79461 0.3364 0.0
H729 H 0.43966 0.7671 0.39579 0.0
H730 H 0.31153 0.7206 0.30753 0.0
H731 H 0.32908 0.69238 0.35688 0.0
H732 H 0.31395 0.75107 0.1812 0.0
H733 H 0.33034 0.78262 0.17863 0.0
C734 C 0.50919 0.12663 0.73408 0.0
C735 C 0.51963 0.11873 0.61683 0.0
C736 C 0.47458 0.11763 0.5134 0.0
C737 C 0.46414 0.12223 0.63313 0.0
N738 N 0.47196 0.12533 0.86036 0.0
N739 N 0.51164 0.10281 0.39702 0.0
C740 C 0.48159 0.12511 0.74423 0.0
C741 C 0.50213 0.11319 0.5069 0.0
N742 N 0.52545 0.13707 0.83488 0.0
N743 N 0.45842 0.11884 0.40539 0.0
H744 H 0.53152 0.09919 0.38863 0.0
H745 H 0.49964 0.09555 0.3176 0.0
H746 H 0.43847 0.12299 0.40633 0.0
H747 H 0.46519 0.11847 0.31563 0.0
H748 H 0.51859 0.14572 0.91838 0.0
H749 H 0.54552 0.14015 0.83044 0.0
H750 H 0.48392 0.1244 0.94395 0.0
H751 H 0.45203 0.12346 0.87251 0.0
C752 C 0.8532 0.2565 0.93054 0.0
C753 C 0.87519 0.24257 0.88326 0.0
C754 C 0.89334 0.28765 0.83744 0.0
C755 C 0.87294 0.30189 0.89822 0.0
N756 N 0.83591 0.29907 0.02364 0.0
N757 N 0.9179 0.24545 0.8047 0.0
C758 C 0.85337 0.28606 0.94934 0.0
C759 C 0.8958 0.25838 0.84134 0.0
N760 N 0.83213 0.24153 0.95931 0.0
N761 N 0.90961 0.30182 0.76922 0.0
H762 H 0.91983 0.22409 0.79749 0.0
H763 H 0.93498 0.25599 0.78922 0.0
H764 H 0.90782 0.3228 0.75874 0.0
H765 H 0.92301 0.29236 0.7118 0.0
H766 H 0.81431 0.25035 0.97978 0.0
H767 H 0.83171 0.22006 0.95334 0.0
H768 H 0.82306 0.28866 0.07494 0.0
H769 H 0.83598 0.3203 0.04493 0.0
C770 C 0.60368 0.77339 0.35577 0.0
C771 C 0.62215 0.79107 0.43004 0.0
C772 C 0.64217 0.74987 0.52298 0.0
C773 C 0.62365 0.73217 0.44852 0.0
N774 N 0.58401 0.72798 0.30785 0.0
N775 N 0.6607 0.79578 0.57736 0.0
C776 C 0.6036 0.74424 0.36939 0.0
C777 C 0.6419 0.77914 0.5113 0.0
N778 N 0.58731 0.78422 0.26451 0.0
N779 N 0.65881 0.73888 0.61278 0.0
H780 H 0.66001 0.81719 0.58343 0.0
H781 H 0.67784 0.78855 0.62228 0.0
H782 H 0.65928 0.71794 0.62697 0.0
H783 H 0.67068 0.75047 0.68127 0.0
H784 H 0.57581 0.77241 0.19524 0.0
H785 H 0.58688 0.80513 0.24974 0.0
H786 H 0.56679 0.73565 0.26547 0.0
H787 H 0.58396 0.70662 0.30477 0.0
C788 C 0.87183 0.73465 0.18336 0.0
C789 C 0.88181 0.71937 0.07798 0.0
C790 C 0.89237 0.76373 0.99261 0.0
C791 C 0.88552 0.7787 0.1051 0.0
N792 N 0.87321 0.77735 0.31811 0.0
N793 N 0.90446 0.72024 0.88746 0.0
C794 C 0.87641 0.76383 0.20316 0.0
C795 C 0.89321 0.7342 0.98511 0.0
N796 N 0.85763 0.72156 0.2647 0.0
N797 N 0.89618 0.77759 0.88873 0.0
H798 H 0.90378 0.69888 0.87112 0.0
H799 H 0.9159 0.72984 0.82668 0.0
H800 H 0.89382 0.79879 0.88784 0.0
H801 H 0.89855 0.7679 0.7998 0.0
H802 H 0.84732 0.73203 0.33364 0.0
H803 H 0.85428 0.70038 0.25764 0.0
H804 H 0.86948 0.76728 0.39778 0.0
H805 H 0.87694 0.79839 0.33751 0.0
C806 C 0.64968 0.2168 0.55577 0.0
C807 C 0.63589 0.20524 0.65046 0.0
C808 C 0.62556 0.25256 0.73246 0.0
C809 C 0.63602 0.26381 0.62692 0.0
N810 N 0.65262 0.25449 0.42175 0.0
N811 N 0.60799 0.21259 0.82164 0.0
C812 C 0.64682 0.24538 0.53466 0.0
C813 C 0.6229 0.22329 0.73599 0.0
N814 N 0.66546 0.20059 0.48438 0.0
N815 N 0.61946 0.26967 0.83344 0.0
H816 H 0.60672 0.19156 0.8327 0.0
H817 H 0.5955 0.22445 0.87569 0.0
H818 H 0.62231 0.29092 0.83866 0.0
H819 H 0.61439 0.26259 0.91817 0.0
H820 H 0.67822 0.20857 0.42455 0.0
H821 H 0.66747 0.17949 0.49188 0.0
H822 H 0.65784 0.24134 0.34621 0.0
H823 H 0.6492 0.27452 0.39706 0.0
C824 C 0.98698 0.43044 1.00712 0.0
C825 C 0.97631 0.40735 0.05865 0.0
C826 C 0.02018 0.39446 0.13808 0.0
C827 C 0.03064 0.41263 0.05691 0.0
N828 N 0.02379 0.44818 0.9101 0.0
N829 N 0.9826 0.36732 0.17909 0.0
C830 C 0.01416 0.43128 0.9926 0.0
C831 C 0.99274 0.38967 0.12895 0.0
N832 N 0.97106 0.45148 0.97213 0.0
N833 N 0.03658 0.3818 0.22304 0.0
H834 H 0.96261 0.36301 0.17595 0.0
H835 H 0.9942 0.35204 0.21755 0.0
H836 H 0.0568 0.38554 0.23274 0.0
H837 H 0.02993 0.37012 0.29226 0.0
H838 H 0.97816 0.4699 0.94347 0.0
H839 H 0.95108 0.45171 0.98602 0.0
H840 H 0.01175 0.4594 0.84947 0.0
H841 H 0.04353 0.44971 0.89467 0.0
C842 C 0.47811 0.62419 0.36981 0.0
C843 C 0.46743 0.61868 0.48393 0.0
C844 C 0.51111 0.62197 0.59592 0.0
C845 C 0.52122 0.62995 0.4838 0.0
N846 N 0.51333 0.64569 0.27438 0.0
N847 N 0.47254 0.61655 0.71031 0.0
C848 C 0.50442 0.63315 0.37366 0.0
C849 C 0.48356 0.61878 0.59871 0.0
N850 N 0.46349 0.61969 0.2569 0.0
N851 N 0.52779 0.6163 0.69739 0.0
H852 H 0.45242 0.61388 0.71559 0.0
H853 H 0.48304 0.6195 0.79836 0.0
H854 H 0.54812 0.61828 0.69871 0.0
H855 H 0.52165 0.60755 0.7764 0.0
H856 H 0.47115 0.62088 0.16972 0.0
H857 H 0.44449 0.61174 0.25002 0.0
H858 H 0.50107 0.6509 0.19698 0.0
H859 H 0.53231 0.65368 0.27552 0.0
C860 C 0.50982 0.34692 0.446 0.0
C861 C 0.49563 0.35783 0.54689 0.0
C862 C 0.5339 0.38485 0.63807 0.0
C863 C 0.54801 0.37425 0.53657 0.0
N864 N 0.5485 0.35058 0.33002 0.0
N865 N 0.49134 0.3937 0.71416 0.0
C866 C 0.53561 0.35696 0.43578 0.0
C867 C 0.5068 0.37874 0.63581 0.0
N868 N 0.49896 0.32639 0.36293 0.0
N869 N 0.54656 0.39974 0.73932 0.0
H870 H 0.4711 0.39087 0.7121 0.0
H871 H 0.4981 0.41097 0.77162 0.0
H872 H 0.56631 0.40535 0.74313 0.0
H873 H 0.53791 0.40489 0.82313 0.0
H874 H 0.50928 0.31559 0.29508 0.0
H875 H 0.47999 0.31877 0.36738 0.0
H876 H 0.53986 0.33999 0.2484 0.0
H877 H 0.56724 0.35822 0.31977 0.0
C878 C 0.02714 0.63723 1.00103 0.0
C879 C 0.0372 0.61266 0.04834 0.0
C880 C 0.99381 0.59112 1.0094 0.0
C881 C 0.98303 0.61734 0.99067 0.0
N882 N 0.98915 0.66598 0.96866 0.0
N883 N 0.03018 0.56583 0.10095 0.0
C884 C 0.99958 0.64052 0.98337 0.0
C885 C 0.02073 0.5892 0.05077 0.0
N886 N 0.044 0.65724 0.97217 0.0
N887 N 0.97816 0.56813 0.98782 0.0
H888 H 0.04971 0.56341 0.13358 0.0
H889 H 0.01822 0.54945 0.11887 0.0
H890 H 0.95838 0.56909 0.95556 0.0
H891 H 0.98531 0.54814 0.98891 0.0
H892 H 0.0379 0.67456 0.92652 0.0
H893 H 0.06435 0.65505 0.98192 0.0
H894 H 1.00033 0.68407 0.97917 0.0
H895 H 0.96911 0.6694 0.95345 0.0
C896 C 0.13479 0.52298 1.00796 0.0
C897 C 0.14785 0.53122 0.1282 0.0
C898 C 0.16945 0.48661 0.12949 0.0
C899 C 0.15187 0.4766 0.02696 0.0
N900 N 0.11843 0.48507 0.86197 0.0
N901 N 0.17513 0.51905 0.31199 0.0
C902 C 0.13474 0.49479 0.96393 0.0
C903 C 0.16476 0.51266 0.19093 0.0
N904 N 0.12365 0.54208 0.93298 0.0
N905 N 0.19066 0.47157 0.16774 0.0
H906 H 0.17094 0.53721 0.36396 0.0
H907 H 0.18546 0.50496 0.36538 0.0
H908 H 0.19527 0.45278 0.12185 0.0
H909 H 0.20521 0.47923 0.23581 0.0
H910 H 0.11624 0.53736 0.83975 0.0
H911 H 0.12438 0.56319 0.95785 0.0
H912 H 0.10303 0.49644 0.82286 0.0
H913 H 0.11971 0.46512 0.8196 0.0
C914 C 0.73166 0.87303 0.18764 0.0
C915 C 0.72788 0.87684 0.31907 0.0
C916 C 0.77604 0.87447 0.36427 0.0
C917 C 0.77993 0.87437 0.233 0.0
N918 N 0.76038 0.87998 0.02232 0.0
N919 N 0.7479 0.88767 0.53068 0.0
C920 C 0.75742 0.87544 0.14544 0.0
C921 C 0.75049 0.87937 0.40685 0.0
N922 N 0.71089 0.86577 0.10239 0.0
N923 N 0.79638 0.86852 0.44886 0.0
H924 H 0.72994 0.89273 0.56541 0.0
H925 H 0.7639 0.89255 0.59568 0.0
H926 H 0.81493 0.86304 0.42249 0.0
H927 H 0.79401 0.86577 0.54342 0.0
H928 H 0.71301 0.86011 1.00739 0.0
H929 H 0.69204 0.86223 0.12843 0.0
H930 H 0.74462 0.88371 0.95769 0.0
H931 H 0.77858 0.88318 0.98816 0.0
C932 C 0.39125 0.45955 0.67559 0.0
C933 C 0.39772 0.44073 0.57556 0.0
C934 C 0.40629 0.47879 0.44824 0.0
C935 C 0.39484 0.49687 0.53836 0.0
N936 N 0.37295 0.50389 0.73127 0.0
N937 N 0.40954 0.43195 0.3603 0.0
C938 C 0.3865 0.48721 0.65097 0.0
C939 C 0.40495 0.45014 0.46016 0.0
N940 N 0.39062 0.45117 0.79483 0.0
N941 N 0.41937 0.48897 0.35445 0.0
H942 H 0.40906 0.41066 0.36408 0.0
H943 H 0.41167 0.43797 0.26982 0.0
H944 H 0.42184 0.50999 0.34571 0.0
H945 H 0.43026 0.47668 0.294 0.0
H946 H 0.38798 0.46465 0.87353 0.0
H947 H 0.39611 0.43139 0.81684 0.0
H948 H 0.36433 0.49681 0.80829 0.0
H949 H 0.36799 0.52404 0.71393 0.0
C950 C 0.7853 0.0988 0.75792 0.0
C951 C 0.79717 0.12109 0.83776 0.0
C952 C 0.75326 0.14208 0.84658 0.0
C953 C 0.74137 0.1185 0.7769 0.0
N954 N 0.74612 0.07124 0.69721 0.0
N955 N 0.7907 0.16091 0.98101 0.0
C956 C 0.75742 0.09595 0.74188 0.0
C957 C 0.78062 0.14189 0.8886 0.0
N958 N 0.80041 0.08101 0.69069 0.0
N959 N 0.73883 0.16525 0.86813 0.0
H960 H 0.81021 0.16093 1.01765 0.0
H961 H 0.77914 0.17478 0.0306 0.0
H962 H 0.71904 0.16657 0.83737 0.0
H963 H 0.74709 0.18399 0.90589 0.0
H964 H 0.7926 0.06638 0.62098 0.0
H965 H 0.82066 0.08279 0.69355 0.0
H966 H 0.75688 0.05332 0.68271 0.0
H967 H 0.7259 0.06783 0.68864 0.0
C968 C 0.88608 0.52515 0.08208 0.0
C969 C 0.87135 0.54059 0.99326 0.0
C970 C 0.85662 0.49654 0.87611 0.0
C971 C 0.86882 0.48123 0.97329 0.0
N972 N 0.88824 0.48279 0.1873 0.0
N973 N 0.8384 0.54019 0.81744 0.0
C974 C 0.88178 0.49607 0.08113 0.0
C975 C 0.85522 0.52602 0.89433 0.0
N976 N 0.90413 0.53808 0.16859 0.0
N977 N 0.84759 0.48323 0.76319 0.0
H978 H 0.83705 0.56158 0.82589 0.0
H979 H 0.82428 0.53056 0.7525 0.0
H980 H 0.84928 0.46205 0.74336 0.0
H981 H 0.84099 0.49355 0.68465 0.0
H982 H 0.91715 0.52738 0.22691 0.0
H983 H 0.9077 0.55925 0.17464 0.0
H984 H 0.89577 0.49283 0.27262 0.0
H985 H 0.88239 0.46253 0.19452 0.0
C986 C 0.20186 0.16406 0.73723 0.0
C987 C 0.1905 0.14401 0.80965 0.0
C988 C 0.23343 0.12049 0.82153 0.0
C989 C 0.24495 0.14121 0.75575 0.0
N990 N 0.24146 0.18718 0.68767 0.0
N991 N 0.20025 0.1101 0.96082 0.0
C992 C 0.22953 0.16423 0.72416 0.0
C993 C 0.20773 0.12428 0.86358 0.0
N994 N 0.18668 0.18273 0.67671 0.0
N995 N 0.24638 0.09649 0.84002 0.0
H996 H 0.18291 0.11418 1.00362 0.0
H997 H 0.21286 0.0972 1.01025 0.0
H998 H 0.26462 0.09212 0.80674 0.0
H999 H 0.23767 0.07972 0.87632 0.0
H1000 H 0.19345 0.19423 0.60705 0.0
H1001 H 0.16719 0.18619 0.69001 0.0
H1002 H 0.23179 0.20577 0.67738 0.0
H1003 H 0.26166 0.18879 0.68227 0.0
C1004 C 0.61176 0.53804 0.40364 0.0
C1005 C 0.632 0.5551 0.47011 0.0
C1006 C 0.64863 0.5142 0.5765 0.0
C1007 C 0.62883 0.49716 0.50824 0.0
N1008 N 0.59384 0.49191 0.34327 0.0
N1009 N 0.67359 0.55702 0.59657 0.0
C1010 C 0.6111 0.50887 0.41773 0.0
C1011 C 0.65161 0.54244 0.54925 0.0
N1012 N 0.59312 0.54973 0.32569 0.0
N1013 N 0.66444 0.50352 0.67017 0.0
H1014 H 0.6768 0.57758 0.58198 0.0
H1015 H 0.6899 0.5481 0.64158 0.0
H1016 H 0.66377 0.48286 0.6894 0.0
H1017 H 0.67684 0.5155 0.73511 0.0
H1018 H 0.57588 0.53976 0.28819 0.0
H1019 H 0.59449 0.56994 0.3006 0.0
H1020 H 0.58234 0.49805 0.26547 0.0
H1021 H 0.59213 0.47091 0.35471 0.0
C1022 C 0.26868 0.86626 0.18532 0.0
C1023 C 0.28075 0.87764 0.30345 0.0
C1024 C 0.23671 0.89189 0.36285 0.0
C1025 C 0.22441 0.87699 0.25337 0.0
N1026 N 0.22966 0.84552 0.07062 0.0
N1027 N 0.27412 0.89395 0.51774 0.0
C1028 C 0.2407 0.86267 0.16821 0.0
C1029 C 0.26417 0.88863 0.39555 0.0
N1030 N 0.28362 0.86026 0.08633 0.0
N1031 N 0.22237 0.90904 0.43732 0.0
H1032 H 0.29312 0.88854 0.54776 0.0
H1033 H 0.26258 0.89981 0.59132 0.0
H1034 H 0.20228 0.91185 0.41923 0.0
H1035 H 0.23096 0.92228 0.51095 0.0
H1036 H 0.27557 0.85445 0.99502 0.0
H1037 H 0.30373 0.86421 0.09143 0.0
H1038 H 0.24069 0.83249 1.01382 0.0
H1039 H 0.20949 0.84247 0.05324 0.0
C1040 C 0.60754 0.9823 0.61209 0.0
C1041 C 0.62237 0.96883 0.51755 0.0
C1042 C 0.64361 0.01385 0.49381 0.0
C1043 C 0.6267 0.0278 0.57691 0.0
N1044 N 0.58911 0.02485 0.6988 0.0
N1045 N 0.64833 0.97505 0.3417 0.0
C1046 C 0.60749 0.01188 0.62999 0.0
C1047 C 0.63874 0.98553 0.45133 0.0
N1048 N 0.59458 0.9671 0.69069 0.0
N1049 N 0.66442 0.02744 0.45367 0.0
H1050 H 0.64354 0.95541 0.30026 0.0
H1051 H 0.65815 0.98707 0.28321 0.0
H1052 H 0.66845 0.04822 0.47744 0.0
H1053 H 0.67891 0.01739 0.40485 0.0
H1054 H 0.58616 0.97576 0.77013 0.0
H1055 H 0.59454 0.94569 0.68596 0.0
H1056 H 0.57278 0.01472 0.72637 0.0
H1057 H 0.58897 0.04607 0.7202 0.0
C1058 C 0.25952 0.36904 0.89013 0.0
C1059 C 0.23665 0.37224 0.80852 0.0
C1060 C 0.26243 0.37072 0.62498 0.0
C1061 C 0.28506 0.36608 0.7059 0.0
N1062 N 0.30475 0.35456 0.90894 0.0
N1063 N 0.21496 0.37058 0.59784 0.0
C1064 C 0.28352 0.36339 0.83674 0.0
C1065 C 0.23767 0.37147 0.67558 0.0
N1066 N 0.25856 0.37264 1.01838 0.0
N1067 N 0.26472 0.37551 0.50139 0.0
H1068 H 0.19638 0.37057 0.63156 0.0
H1069 H 0.21443 0.36732 0.49986 0.0
H1070 H 0.28259 0.37494 0.46065 0.0
H1071 H 0.24927 0.38213 0.44165 0.0
H1072 H 0.2752 0.37372 0.08186 0.0
H1073 H 0.2413 0.37691 0.06155 0.0
H1074 H 0.30398 0.34962 1.00205 0.0
H1075 H 0.3226 0.34956 0.8725 0.0
C1076 C 0.87787 0.97614 0.14311 0.0
C1077 C 0.88697 0.95479 0.05924 0.0
C1078 C 0.89822 0.99024 0.91662 0.0
C1079 C 0.88645 0.01116 0.99332 0.0
N1080 N 0.8604 0.02233 0.1693 0.0
N1081 N 0.90085 0.94161 0.85176 0.0
C1082 C 0.87507 0.00365 0.10409 0.0
C1083 C 0.89579 0.96191 0.94209 0.0
N1084 N 0.87276 0.97046 0.26241 0.0
N1085 N 0.91293 0.99739 0.82238 0.0
H1086 H 0.89902 0.92074 0.86457 0.0
H1087 H 0.90425 0.94547 0.75953 0.0
H1088 H 0.91619 0.01776 0.80337 0.0
H1089 H 0.92427 0.98337 0.77226 0.0
H1090 H 0.86886 0.98561 0.3327 0.0
H1091 H 0.87496 0.95088 0.2949 0.0
H1092 H 0.84938 0.01724 0.24243 0.0
H1093 H 0.85695 0.0422 0.14245 0.0
C1094 C 0.26347 0.5924 0.31151 0.0
C1095 C 0.24893 0.60457 0.40881 0.0
C1096 C 0.28813 0.60843 0.55562 0.0
C1097 C 0.30292 0.59747 0.45679 0.0
N1098 N 0.30484 0.5734 0.25147 0.0
N1099 N 0.24506 0.61774 0.62894 0.0
C1100 C 0.29056 0.58743 0.33825 0.0
C1101 C 0.26051 0.6104 0.53315 0.0
N1102 N 0.25144 0.58633 0.19291 0.0
N1103 N 0.30068 0.61785 0.66905 0.0
H1104 H 0.22475 0.61971 0.61425 0.0
H1105 H 0.25192 0.61985 0.72395 0.0
H1106 H 0.32071 0.61529 0.69041 0.0
H1107 H 0.2916 0.62908 0.74006 0.0
H1108 H 0.26139 0.58064 0.11374 0.0
H1109 H 0.23126 0.588 0.17173 0.0
H1110 H 0.29673 0.56341 0.16735 0.0
H1111 H 0.32486 0.56986 0.26772 0.0
C1112 C 0.34294 0.99862 0.61782 0.0
C1113 C 0.35391 0.99084 0.50192 0.0
C1114 C 0.35274 0.0383 0.44914 0.0
C1115 C 0.34664 0.04669 0.57332 0.0
N1116 N 0.33847 0.03501 0.78285 0.0
N1117 N 0.37539 0.00486 0.32205 0.0
C1118 C 0.34239 0.02692 0.66018 0.0
C1119 C 0.36056 0.01108 0.42138 0.0
N1120 N 0.33184 0.97931 0.68378 0.0
N1121 N 0.35003 0.05602 0.35617 0.0
H1122 H 0.38345 0.98551 0.30324 0.0
H1123 H 0.38236 0.01988 0.26801 0.0
H1124 H 0.34169 0.07522 0.37163 0.0
H1125 H 0.35247 0.05018 0.26158 0.0
H1126 H 0.32172 0.98423 0.76341 0.0
H1127 H 0.33005 0.95875 0.64995 0.0
H1128 H 0.33806 0.02123 0.85295 0.0
H1129 H 0.33752 0.05566 0.81625 0.0
C1130 C 0.75846 0.61886 0.16607 0.0
C1131 C 0.77537 0.64213 0.1696 0.0
C1132 C 0.74658 0.66887 0.30431 0.0
C1133 C 0.72899 0.6461 0.29418 0.0
N1134 N 0.71464 0.60224 0.18938 0.0
N1135 N 0.78325 0.6908 0.21955 0.0
C1136 C 0.73385 0.6219 0.2173 0.0
C1137 C 0.76877 0.66763 0.23224 0.0
N1138 N 0.7664 0.59348 0.12063 0.0
N1139 N 0.7426 0.69121 0.38609 0.0
H1140 H 0.79931 0.69076 0.16512 0.0
H1141 H 0.77793 0.71048 0.25275 0.0
H1142 H 0.72646 0.69288 0.44 0.0
H1143 H 0.75628 0.70711 0.40811 0.0
H1144 H 0.75598 0.57539 0.12944 0.0
H1145 H 0.78455 0.58997 0.08489 0.0
H1146 H 0.7162 0.58564 0.12271 0.0
H1147 H 0.69606 0.60392 0.22282 0.0
C1148 C 0.11084 0.02693 0.0812 0.0
C1149 C 0.11463 0.02985 0.9525 0.0
C1150 C 0.12712 0.98147 0.92687 0.0
C1151 C 0.12729 0.98007 0.05981 0.0
N1152 N 0.12395 0.00324 0.26676 0.0
N1153 N 0.13017 0.01099 0.75578 0.0
C1154 C 0.12039 0.00328 0.13806 0.0
C1155 C 0.12369 0.00741 0.8755 0.0
N1156 N 0.09728 0.04634 0.14806 0.0
N1157 N 0.12904 0.95802 0.849 0.0
H1158 H 0.1282 0.02967 0.7145 0.0
H1159 H 0.13963 0.99602 0.70136 0.0
H1160 H 0.13059 0.93841 0.88178 0.0
H1161 H 0.12635 0.95771 0.75082 0.0
H1162 H 0.09194 0.04401 0.23905 0.0
H1163 H 0.08867 0.06316 0.10676 0.0
H1164 H 0.12162 0.02074 0.32741 0.0
H1165 H 0.13193 0.98667 0.31272 0.0
C1166 C 0.71885 0.39299 0.82826 0.0
C1167 C 0.71107 0.38617 0.69842 0.0
C1168 C 0.75696 0.37955 0.65382 0.0
C1169 C 0.76455 0.38526 0.78481 0.0
N1170 N 0.75323 0.39629 0.99884 0.0
N1171 N 0.72159 0.37047 0.48872 0.0
C1172 C 0.74563 0.3915 0.87265 0.0
C1173 C 0.72984 0.3789 0.61124 0.0
N1174 N 0.7007 0.402 0.9086 0.0
N1175 N 0.77568 0.37464 0.57038 0.0
H1176 H 0.70195 0.3706 0.45346 0.0
H1177 H 0.73378 0.36193 0.42294 0.0
H1178 H 0.79547 0.3723 0.59858 0.0
H1179 H 0.77197 0.37383 0.47264 0.0
H1180 H 0.70513 0.41076 1.00008 0.0
H1181 H 0.6809 0.40237 0.88103 0.0
H1182 H 0.74039 0.39618 0.06977 0.0
H1183 H 0.77261 0.39956 0.03494 0.0
loop_
_geom_bond_atom_site_label_1
_geom_bond_atom_site_label_2
_geom_bond_distance
_geom_bond_site_symmetry_2
_ccdc_geom_bond_type
Tb0 O3 2.453 . S
Tb0 O4 2.596 . S
Tb0 O5 2.374 . S
Tb0 O13 2.338 1_554 S
Tb0 O15 2.353 . S
Tb0 O17 2.427 . S
Tb0 O18 2.513 . S
C1 O5 1.251 . S
C1 O7 1.263 . S
Tb2 O4 2.343 . S
Tb2 O7 2.353 . S
Tb2 O10 2.427 . S
Tb2 O11 2.513 . S
Tb2 O12 2.453 1_554 S
Tb2 O13 2.594 1_554 S
Tb2 O14 2.374 . S
O3 Tb0 2.453 . S
O3 C19 1.245 . S
O4 Tb0 2.596 . S
O4 Tb2 2.343 . S
O4 C19 1.259 . S
O5 Tb0 2.374 . S
O5 C1 1.251 . S
C6 O10 1.275 . S
C6 O11 1.246 . S
O7 C1 1.263 . S
O7 Tb2 2.353 . S
C8 O12 1.245 . S
C8 O13 1.265 . S
C9 O14 1.250 . S
C9 O15 1.263 . S
O10 Tb2 2.427 . S
O10 C6 1.275 . S
O11 Tb2 2.513 . S
O11 C6 1.246 . S
O12 Tb2 2.453 1_556 S
O12 C8 1.245 . S
O13 Tb0 2.338 1_556 S
O13 Tb2 2.594 1_556 S
O13 C8 1.265 . S
O14 Tb2 2.374 . S
O14 C9 1.250 . S
O15 Tb0 2.353 . S
O15 C9 1.263 . S
C16 O17 1.275 1_556 S
C16 O18 1.246 1_556 S
O17 Tb0 2.427 . S
O17 C16 1.275 1_554 S
O18 Tb0 2.513 . S
O18 C16 1.246 1_554 S
C19 O3 1.245 . S
C19 O4 1.259 . S
Tb20 O23 2.453 . S
Tb20 O24 2.596 . S
Tb20 O25 2.374 . S
Tb20 O33 2.343 . S
Tb20 O35 2.353 . S
Tb20 O37 2.427 . S
Tb20 O38 2.513 . S
C21 O25 1.251 . S
C21 O27 1.263 . S
Tb22 O24 2.343 . S
Tb22 O27 2.353 . S
Tb22 O30 2.427 . S
Tb22 O31 2.513 . S
Tb22 O32 2.453 . S
Tb22 O33 2.596 . S
Tb22 O34 2.374 . S
O23 Tb20 2.453 . S
O23 C39 1.245 . S
O24 Tb20 2.596 . S
O24 Tb22 2.343 . S
O24 C39 1.259 . S
O25 Tb20 2.374 . S
O25 C21 1.251 . S
C26 O30 1.275 . S
C26 O31 1.246 . S
O27 C21 1.263 . S
O27 Tb22 2.353 . S
C28 O32 1.245 . S
C28 O33 1.259 . S
C29 O34 1.250 . S
C29 O35 1.263 . S
O30 Tb22 2.427 . S
O30 C26 1.275 . S
O31 Tb22 2.513 . S
O31 C26 1.246 . S
O32 Tb22 2.453 . S
O32 C28 1.245 . S
O33 Tb20 2.343 . S
O33 Tb22 2.596 . S
O33 C28 1.259 . S
O34 Tb22 2.374 . S
O34 C29 1.250 . S
O35 Tb20 2.353 . S
O35 C29 1.263 . S
C36 O37 1.275 . S
C36 O38 1.246 . S
O37 Tb20 2.427 . S
O37 C36 1.275 . S
O38 Tb20 2.513 . S
O38 C36 1.246 . S
C39 O23 1.245 . S
C39 O24 1.259 . S
Tb40 O43 2.453 . S
Tb40 O44 2.596 . S
Tb40 O45 2.374 . S
Tb40 O53 2.343 . S
Tb40 O55 2.353 . S
Tb40 O57 2.427 . S
Tb40 O58 2.513 . S
C41 O45 1.251 . S
C41 O47 1.263 . S
Tb42 O44 2.343 . S
Tb42 O47 2.353 . S
Tb42 O50 2.427 . S
Tb42 O51 2.513 . S
Tb42 O52 2.453 . S
Tb42 O53 2.596 . S
Tb42 O54 2.374 . S
O43 Tb40 2.453 . S
O43 C59 1.245 . S
O44 Tb40 2.596 . S
O44 Tb42 2.343 . S
O44 C59 1.259 . S
O45 Tb40 2.374 . S
O45 C41 1.251 . S
C46 O50 1.275 . S
C46 O51 1.246 . S
O47 C41 1.263 . S
O47 Tb42 2.353 . S
C48 O52 1.245 . S
C48 O53 1.259 . S
C49 O54 1.250 . S
C49 O55 1.263 . S
O50 Tb42 2.427 . S
O50 C46 1.275 . S
O51 Tb42 2.513 . S
O51 C46 1.246 . S
O52 Tb42 2.453 . S
O52 C48 1.245 . S
O53 Tb40 2.343 . S
O53 Tb42 2.596 . S
O53 C48 1.259 . S
O54 Tb42 2.374 . S
O54 C49 1.250 . S
O55 Tb40 2.353 . S
O55 C49 1.263 . S
C56 O57 1.275 . S
C56 O58 1.246 . S
O57 Tb40 2.427 . S
O57 C56 1.275 . S
O58 Tb40 2.513 . S
O58 C56 1.246 . S
C59 O43 1.245 . S
C59 O44 1.259 . S
Tb60 O63 2.453 1_556 S
Tb60 O64 2.596 1_556 S
Tb60 O65 2.374 . S
Tb60 O73 2.343 . S
Tb60 O75 2.353 . S
Tb60 O77 2.427 . S
Tb60 O78 2.513 . S
C61 O65 1.251 . S
C61 O67 1.263 . S
Tb62 O64 2.343 1_556 S
Tb62 O67 2.353 . S
Tb62 O70 2.427 . S
Tb62 O71 2.513 . S
Tb62 O72 2.453 . S
Tb62 O73 2.596 . S
Tb62 O74 2.374 . S
O63 Tb60 2.453 1_554 S
O63 C79 1.245 . S
O64 Tb60 2.596 1_554 S
O64 Tb62 2.343 1_554 S
O64 C79 1.259 . S
O65 Tb60 2.374 . S
O65 C61 1.251 . S
C66 O70 1.275 1_554 S
C66 O71 1.246 1_554 S
O67 C61 1.263 . S
O67 Tb62 2.353 . S
C68 O72 1.245 . S
C68 O73 1.259 . S
C69 O74 1.250 . S
C69 O75 1.263 . S
O70 Tb62 2.427 . S
O70 C66 1.275 1_556 S
O71 Tb62 2.513 . S
O71 C66 1.246 1_556 S
O72 Tb62 2.453 . S
O72 C68 1.245 . S
O73 Tb60 2.343 . S
O73 Tb62 2.596 . S
O73 C68 1.259 . S
O74 Tb62 2.374 . S
O74 C69 1.250 . S
O75 Tb60 2.353 . S
O75 C69 1.263 . S
C76 O77 1.275 . S
C76 O78 1.246 . S
O77 Tb60 2.427 . S
O77 C76 1.275 . S
O78 Tb60 2.513 . S
O78 C76 1.246 . S
C79 O63 1.245 . S
C79 O64 1.259 . S
Tb80 O83 2.453 . S
Tb80 O84 2.596 . S
Tb80 O85 2.374 . S
Tb80 O93 2.343 1_556 S
Tb80 O95 2.353 . S
Tb80 O97 2.427 1_556 S
Tb80 O98 2.513 1_556 S
C81 O85 1.251 . S
C81 O87 1.263 . S
Tb82 O84 2.343 1_554 S
Tb82 O87 2.353 1_554 S
Tb82 O90 2.427 1_554 S
Tb82 O91 2.513 1_554 S
Tb82 O92 2.453 . S
Tb82 O93 2.596 . S
Tb82 O94 2.374 . S
O83 Tb80 2.453 . S
O83 C99 1.245 . S
O84 Tb80 2.596 . S
O84 Tb82 2.343 1_556 S
O84 C99 1.259 . S
O85 Tb80 2.374 . S
O85 C81 1.251 . S
C86 O90 1.275 . S
C86 O91 1.246 . S
O87 C81 1.263 . S
O87 Tb82 2.353 1_556 S
C88 O92 1.245 . S
C88 O93 1.259 . S
C89 O94 1.250 1_556 S
C89 O95 1.263 . S
O90 Tb82 2.427 1_556 S
O90 C86 1.275 . S
O91 Tb82 2.513 1_556 S
O91 C86 1.246 . S
O92 Tb82 2.453 . S
O92 C88 1.245 . S
O93 Tb80 2.343 1_554 S
O93 Tb82 2.596 . S
O93 C88 1.259 . S
O94 Tb82 2.374 . S
O94 C89 1.250 1_554 S
O95 Tb80 2.353 . S
O95 C89 1.263 . S
C96 O97 1.275 . S
C96 O98 1.246 . S
O97 Tb80 2.427 1_554 S
O97 C96 1.275 . S
O98 Tb80 2.513 1_554 S
O98 C96 1.246 . S
C99 O83 1.245 . S
C99 O84 1.259 . S
Tb100 O103 2.453 . S
Tb100 O104 2.596 . S
Tb100 O105 2.374 . S
Tb100 O113 2.343 1_554 S
Tb100 O115 2.353 . S
Tb100 O117 2.427 . S
Tb100 O118 2.513 . S
C101 O105 1.251 . S
C101 O107 1.263 . S
Tb102 O104 2.343 . S
Tb102 O107 2.353 . S
Tb102 O110 2.427 . S
Tb102 O111 2.513 . S
Tb102 O112 2.453 1_554 S
Tb102 O113 2.596 1_554 S
Tb102 O114 2.374 . S
O103 Tb100 2.453 . S
O103 C119 1.245 . S
O104 Tb100 2.596 . S
O104 Tb102 2.343 . S
O104 C119 1.259 . S
O105 Tb100 2.374 . S
O105 C101 1.251 . S
C106 O110 1.275 . S
C106 O111 1.246 . S
O107 C101 1.263 . S
O107 Tb102 2.353 . S
C108 O112 1.245 . S
C108 O113 1.259 . S
C109 O114 1.250 . S
C109 O115 1.263 . S
O110 Tb102 2.427 . S
O110 C106 1.275 . S
O111 Tb102 2.513 . S
O111 C106 1.246 . S
O112 Tb102 2.453 1_556 S
O112 C108 1.245 . S
O113 Tb100 2.343 1_556 S
O113 Tb102 2.596 1_556 S
O113 C108 1.259 . S
O114 Tb102 2.374 . S
O114 C109 1.250 . S
O115 Tb100 2.353 . S
O115 C109 1.263 . S
C116 O117 1.275 . S
C116 O118 1.246 . S
O117 Tb100 2.427 . S
O117 C116 1.275 . S
O118 Tb100 2.513 . S
O118 C116 1.246 . S
C119 O103 1.245 . S
C119 O104 1.259 . S
Tb120 O123 2.453 . S
Tb120 O124 2.596 . S
Tb120 O125 2.374 . S
Tb120 O133 2.343 . S
Tb120 O135 2.353 . S
Tb120 O137 2.427 . S
Tb120 O138 2.513 . S
C121 O125 1.251 . S
C121 O127 1.263 . S
Tb122 O124 2.343 . S
Tb122 O127 2.353 . S
Tb122 O130 2.427 . S
Tb122 O131 2.513 . S
Tb122 O132 2.453 . S
Tb122 O133 2.596 . S
Tb122 O134 2.374 . S
O123 Tb120 2.453 . S
O123 C139 1.245 . S
O124 Tb120 2.596 . S
O124 Tb122 2.343 . S
O124 C139 1.259 . S
O125 Tb120 2.374 . S
O125 C121 1.251 . S
C126 O130 1.275 . S
C126 O131 1.246 . S
O127 C121 1.263 . S
O127 Tb122 2.353 . S
C128 O132 1.245 . S
C128 O133 1.259 . S
C129 O134 1.250 . S
C129 O135 1.263 . S
O130 Tb122 2.427 . S
O130 C126 1.275 . S
O131 Tb122 2.513 . S
O131 C126 1.246 . S
O132 Tb122 2.453 . S
O132 C128 1.245 . S
O133 Tb120 2.343 . S
O133 Tb122 2.596 . S
O133 C128 1.259 . S
O134 Tb122 2.374 . S
O134 C129 1.250 . S
O135 Tb120 2.353 . S
O135 C129 1.263 . S
C136 O137 1.275 . S
C136 O138 1.246 . S
O137 Tb120 2.427 . S
O137 C136 1.275 . S
O138 Tb120 2.513 . S
O138 C136 1.246 . S
C139 O123 1.245 . S
C139 O124 1.259 . S
Tb140 O143 2.453 . S
Tb140 O144 2.596 . S
Tb140 O145 2.374 . S
Tb140 O153 2.343 . S
Tb140 O155 2.353 . S
Tb140 O157 2.427 . S
Tb140 O158 2.513 . S
C141 O145 1.251 . S
C141 O147 1.263 . S
Tb142 O144 2.343 . S
Tb142 O147 2.353 . S
Tb142 O150 2.427 . S
Tb142 O151 2.513 . S
Tb142 O152 2.453 . S
Tb142 O153 2.596 . S
Tb142 O154 2.374 . S
O143 Tb140 2.453 . S
O143 C159 1.245 . S
O144 Tb140 2.596 . S
O144 Tb142 2.343 . S
O144 C159 1.259 . S
O145 Tb140 2.374 . S
O145 C141 1.251 . S
C146 O150 1.275 . S
C146 O151 1.246 . S
O147 C141 1.263 . S
O147 Tb142 2.353 . S
C148 O152 1.245 . S
C148 O153 1.259 . S
C149 O154 1.250 . S
C149 O155 1.263 . S
O150 Tb142 2.427 . S
O150 C146 1.275 . S
O151 Tb142 2.513 . S
O151 C146 1.246 . S
O152 Tb142 2.453 . S
O152 C148 1.245 . S
O153 Tb140 2.343 . S
O153 Tb142 2.596 . S
O153 C148 1.259 . S
O154 Tb142 2.374 . S
O154 C149 1.250 . S
O155 Tb140 2.353 . S
O155 C149 1.263 . S
C156 O157 1.275 . S
C156 O158 1.246 . S
O157 Tb140 2.427 . S
O157 C156 1.275 . S
O158 Tb140 2.513 . S
O158 C156 1.246 . S
C159 O143 1.245 . S
C159 O144 1.259 . S
Tb160 O163 2.453 1_556 S
Tb160 O164 2.596 . S
Tb160 O165 2.374 . S
Tb160 O173 2.343 . S
Tb160 O175 2.353 . S
Tb160 O177 2.427 . S
Tb160 O178 2.513 . S
C161 O165 1.251 . S
C161 O167 1.263 . S
Tb162 O164 2.343 . S
Tb162 O167 2.353 . S
Tb162 O170 2.427 . S
Tb162 O171 2.513 . S
Tb162 O172 2.453 . S
Tb162 O173 2.596 . S
Tb162 O174 2.374 . S
O163 Tb160 2.453 1_554 S
O163 C179 1.245 . S
O164 Tb160 2.596 . S
O164 Tb162 2.343 . S
O164 C179 1.259 1_556 S
O165 Tb160 2.374 . S
O165 C161 1.251 . S
C166 O170 1.275 1_554 S
C166 O171 1.246 1_554 S
O167 C161 1.263 . S
O167 Tb162 2.353 . S
C168 O172 1.245 . S
C168 O173 1.259 . S
C169 O174 1.250 . S
C169 O175 1.263 . S
O170 Tb162 2.427 . S
O170 C166 1.275 1_556 S
O171 Tb162 2.513 . S
O171 C166 1.246 1_556 S
O172 Tb162 2.453 . S
O172 C168 1.245 . S
O173 Tb160 2.343 . S
O173 Tb162 2.596 . S
O173 C168 1.259 . S
O174 Tb162 2.374 . S
O174 C169 1.250 . S
O175 Tb160 2.353 . S
O175 C169 1.263 . S
C176 O177 1.275 . S
C176 O178 1.246 . S
O177 Tb160 2.427 . S
O177 C176 1.275 . S
O178 Tb160 2.513 . S
O178 C176 1.246 . S
C179 O163 1.245 . S
C179 O164 1.259 1_554 S
Tb180 O183 2.453 . S
Tb180 O184 2.596 . S
Tb180 O185 2.374 . S
Tb180 O193 2.343 . S
Tb180 O195 2.353 . S
Tb180 O197 2.427 . S
Tb180 O198 2.513 . S
C181 O185 1.251 . S
C181 O187 1.263 . S
Tb182 O184 2.343 . S
Tb182 O187 2.353 . S
Tb182 O190 2.427 . S
Tb182 O191 2.513 . S
Tb182 O192 2.453 . S
Tb182 O193 2.596 . S
Tb182 O194 2.374 . S
O183 Tb180 2.453 . S
O183 C199 1.245 . S
O184 Tb180 2.596 . S
O184 Tb182 2.343 . S
O184 C199 1.259 . S
O185 Tb180 2.374 . S
O185 C181 1.251 . S
C186 O190 1.275 . S
C186 O191 1.246 . S
O187 C181 1.263 . S
O187 Tb182 2.353 . S
C188 O192 1.245 . S
C188 O193 1.259 . S
C189 O194 1.250 . S
C189 O195 1.263 . S
O190 Tb182 2.427 . S
O190 C186 1.275 . S
O191 Tb182 2.513 . S
O191 C186 1.246 . S
O192 Tb182 2.453 . S
O192 C188 1.245 . S
O193 Tb180 2.343 . S
O193 Tb182 2.596 . S
O193 C188 1.259 . S
O194 Tb182 2.374 . S
O194 C189 1.250 . S
O195 Tb180 2.353 . S
O195 C189 1.263 . S
C196 O197 1.275 . S
C196 O198 1.246 . S
O197 Tb180 2.427 . S
O197 C196 1.275 . S
O198 Tb180 2.513 . S
O198 C196 1.246 . S
C199 O183 1.245 . S
C199 O184 1.259 . S
Tb200 O203 2.453 . S
Tb200 O204 2.596 . S
Tb200 O205 2.374 . S
Tb200 O213 2.343 . S
Tb200 O215 2.353 . S
Tb200 O217 2.427 . S
Tb200 O218 2.513 . S
C201 O205 1.251 . S
C201 O207 1.263 . S
Tb202 O204 2.343 . S
Tb202 O207 2.353 . S
Tb202 O210 2.427 . S
Tb202 O211 2.513 . S
Tb202 O212 2.453 . S
Tb202 O213 2.596 . S
Tb202 O214 2.374 . S
O203 Tb200 2.453 . S
O203 C219 1.245 . S
O204 Tb200 2.596 . S
O204 Tb202 2.343 . S
O204 C219 1.259 . S
O205 Tb200 2.374 . S
O205 C201 1.251 . S
C206 O210 1.275 . S
C206 O211 1.246 . S
O207 C201 1.263 . S
O207 Tb202 2.353 . S
C208 O212 1.245 . S
C208 O213 1.259 . S
C209 O214 1.250 . S
C209 O215 1.263 . S
O210 Tb202 2.427 . S
O210 C206 1.275 . S
O211 Tb202 2.513 . S
O211 C206 1.246 . S
O212 Tb202 2.453 . S
O212 C208 1.245 . S
O213 Tb200 2.343 . S
O213 Tb202 2.596 . S
O213 C208 1.259 . S
O214 Tb202 2.374 . S
O214 C209 1.250 . S
O215 Tb200 2.353 . S
O215 C209 1.263 . S
C216 O217 1.275 . S
C216 O218 1.246 . S
O217 Tb200 2.427 . S
O217 C216 1.275 . S
O218 Tb200 2.513 . S
O218 C216 1.246 . S
C219 O203 1.245 . S
C219 O204 1.259 . S
Tb220 O223 2.453 . S
Tb220 O224 2.596 . S
Tb220 O225 2.374 . S
Tb220 O233 2.343 . S
Tb220 O235 2.353 . S
Tb220 O237 2.427 . S
Tb220 O238 2.513 . S
C221 O225 1.251 . S
C221 O227 1.263 . S
Tb222 O224 2.343 . S
Tb222 O227 2.353 . S
Tb222 O230 2.427 . S
Tb222 O231 2.513 . S
Tb222 O232 2.453 1_554 S
Tb222 O233 2.596 . S
Tb222 O234 2.374 . S
O223 Tb220 2.453 . S
O223 C239 1.245 . S
O224 Tb220 2.596 . S
O224 Tb222 2.343 . S
O224 C239 1.259 . S
O225 Tb220 2.374 . S
O225 C221 1.251 . S
C226 O230 1.275 . S
C226 O231 1.246 . S
O227 C221 1.263 . S
O227 Tb222 2.353 . S
C228 O232 1.245 . S
C228 O233 1.259 1_556 S
C229 O234 1.250 . S
C229 O235 1.263 . S
O230 Tb222 2.427 . S
O230 C226 1.275 . S
O231 Tb222 2.513 . S
O231 C226 1.246 . S
O232 Tb222 2.453 1_556 S
O232 C228 1.245 . S
O233 Tb220 2.343 . S
O233 Tb222 2.596 . S
O233 C228 1.259 1_554 S
O234 Tb222 2.374 . S
O234 C229 1.250 . S
O235 Tb220 2.353 . S
O235 C229 1.263 . S
C236 O237 1.275 . S
C236 O238 1.246 . S
O237 Tb220 2.427 . S
O237 C236 1.275 . S
O238 Tb220 2.513 . S
O238 C236 1.246 . S
C239 O223 1.245 . S
C239 O224 1.259 . S
Tb240 O243 2.453 . S
Tb240 O244 2.596 . S
Tb240 O245 2.374 . S
Tb240 O253 2.343 1_556 S
Tb240 O255 2.353 . S
Tb240 O257 2.427 1_556 S
Tb240 O258 2.513 1_556 S
C241 O245 1.251 . S
C241 O247 1.263 1_556 S
Tb242 O244 2.343 1_554 S
Tb242 O247 2.353 . S
Tb242 O250 2.427 1_554 S
Tb242 O251 2.513 1_554 S
Tb242 O252 2.453 . S
Tb242 O253 2.596 . S
Tb242 O254 2.374 . S
O243 Tb240 2.453 . S
O243 C259 1.245 . S
O244 Tb240 2.596 . S
O244 Tb242 2.343 1_556 S
O244 C259 1.259 . S
O245 Tb240 2.374 . S
O245 C241 1.251 . S
C246 O250 1.275 . S
C246 O251 1.246 . S
O247 C241 1.263 1_554 S
O247 Tb242 2.353 . S
C248 O252 1.245 . S
C248 O253 1.259 . S
C249 O254 1.250 . S
C249 O255 1.263 1_554 S
O250 Tb242 2.427 1_556 S
O250 C246 1.275 . S
O251 Tb242 2.513 1_556 S
O251 C246 1.246 . S
O252 Tb242 2.453 . S
O252 C248 1.245 . S
O253 Tb240 2.343 1_554 S
O253 Tb242 2.596 . S
O253 C248 1.259 . S
O254 Tb242 2.374 . S
O254 C249 1.250 . S
O255 Tb240 2.353 . S
O255 C249 1.263 1_556 S
C256 O257 1.275 . S
C256 O258 1.246 . S
O257 Tb240 2.427 1_554 S
O257 C256 1.275 . S
O258 Tb240 2.513 1_554 S
O258 C256 1.246 . S
C259 O243 1.245 . S
C259 O244 1.259 . S
Tb260 O263 2.453 . S
Tb260 O264 2.596 . S
Tb260 O265 2.374 . S
Tb260 O273 2.343 1_556 S
Tb260 O275 2.353 . S
Tb260 O277 2.427 . S
Tb260 O278 2.513 . S
C261 O265 1.251 . S
C261 O267 1.263 . S
Tb262 O264 2.343 . S
Tb262 O267 2.353 . S
Tb262 O270 2.427 . S
Tb262 O271 2.513 . S
Tb262 O272 2.453 1_556 S
Tb262 O273 2.596 1_556 S
Tb262 O274 2.374 . S
O263 Tb260 2.453 . S
O263 C279 1.245 . S
O264 Tb260 2.596 . S
O264 Tb262 2.343 . S
O264 C279 1.259 . S
O265 Tb260 2.374 . S
O265 C261 1.251 . S
C266 O270 1.275 . S
C266 O271 1.246 . S
O267 C261 1.263 . S
O267 Tb262 2.353 . S
C268 O272 1.245 . S
C268 O273 1.259 . S
C269 O274 1.250 . S
C269 O275 1.263 . S
O270 Tb262 2.427 . S
O270 C266 1.275 . S
O271 Tb262 2.513 . S
O271 C266 1.246 . S
O272 Tb262 2.453 1_554 S
O272 C268 1.245 . S
O273 Tb260 2.343 1_554 S
O273 Tb262 2.596 1_554 S
O273 C268 1.259 . S
O274 Tb262 2.374 . S
O274 C269 1.250 . S
O275 Tb260 2.353 . S
O275 C269 1.263 . S
C276 O277 1.275 . S
C276 O278 1.246 . S
O277 Tb260 2.427 . S
O277 C276 1.275 . S
O278 Tb260 2.513 . S
O278 C276 1.246 . S
C279 O263 1.245 . S
C279 O264 1.259 . S
Tb280 O283 2.453 . S
Tb280 O284 2.596 . S
Tb280 O285 2.374 . S
Tb280 O293 2.343 . S
Tb280 O295 2.353 . S
Tb280 O297 2.427 . S
Tb280 O298 2.513 . S
C281 O285 1.251 . S
C281 O287 1.263 . S
Tb282 O284 2.343 . S
Tb282 O287 2.353 . S
Tb282 O290 2.427 . S
Tb282 O291 2.513 . S
Tb282 O292 2.453 . S
Tb282 O293 2.596 . S
Tb282 O294 2.374 . S
O283 Tb280 2.453 . S
O283 C299 1.245 . S
O284 Tb280 2.596 . S
O284 Tb282 2.343 . S
O284 C299 1.259 . S
O285 Tb280 2.374 . S
O285 C281 1.251 . S
C286 O290 1.275 . S
C286 O291 1.246 . S
O287 C281 1.263 . S
O287 Tb282 2.353 . S
C288 O292 1.245 . S
C288 O293 1.259 . S
C289 O294 1.250 . S
C289 O295 1.263 . S
O290 Tb282 2.427 . S
O290 C286 1.275 . S
O291 Tb282 2.513 . S
O291 C286 1.246 . S
O292 Tb282 2.453 . S
O292 C288 1.245 . S
O293 Tb280 2.343 . S
O293 Tb282 2.596 . S
O293 C288 1.259 . S
O294 Tb282 2.374 . S
O294 C289 1.250 . S
O295 Tb280 2.353 . S
O295 C289 1.263 . S
C296 O297 1.275 . S
C296 O298 1.246 . S
O297 Tb280 2.427 . S
O297 C296 1.275 . S
O298 Tb280 2.513 . S
O298 C296 1.246 . S
C299 O283 1.245 . S
C299 O284 1.259 . S
Tb300 O303 2.453 . S
Tb300 O304 2.596 . S
Tb300 O305 2.374 . S
Tb300 O313 2.343 . S
Tb300 O315 2.353 . S
Tb300 O317 2.427 . S
Tb300 O318 2.513 . S
C301 O305 1.251 . S
C301 O307 1.263 . S
Tb302 O304 2.343 . S
Tb302 O307 2.353 . S
Tb302 O310 2.427 . S
Tb302 O311 2.513 . S
Tb302 O312 2.453 . S
Tb302 O313 2.596 . S
Tb302 O314 2.374 . S
O303 Tb300 2.453 . S
O303 C319 1.245 . S
O304 Tb300 2.596 . S
O304 Tb302 2.343 . S
O304 C319 1.259 . S
O305 Tb300 2.374 . S
O305 C301 1.251 . S
C306 O310 1.275 . S
C306 O311 1.246 . S
O307 C301 1.263 . S
O307 Tb302 2.353 . S
C308 O312 1.245 . S
C308 O313 1.259 . S
C309 O314 1.250 . S
C309 O315 1.263 . S
O310 Tb302 2.427 . S
O310 C306 1.275 . S
O311 Tb302 2.513 . S
O311 C306 1.246 . S
O312 Tb302 2.453 . S
O312 C308 1.245 . S
O313 Tb300 2.343 . S
O313 Tb302 2.596 . S
O313 C308 1.259 . S
O314 Tb302 2.374 . S
O314 C309 1.250 . S
O315 Tb300 2.353 . S
O315 C309 1.263 . S
C316 O317 1.275 . S
C316 O318 1.246 . S
O317 Tb300 2.427 . S
O317 C316 1.275 . S
O318 Tb300 2.513 . S
O318 C316 1.246 . S
C319 O303 1.245 . S
C319 O304 1.259 . S
C320 C321 1.363 . S
C320 C326 1.379 . S
C320 N328 1.356 . S
C321 C320 1.363 . S
C321 C327 1.363 . S
C322 C323 1.363 . S
C322 C327 1.379 . S
C322 N329 1.356 . S
C323 C322 1.363 . S
C323 C326 1.363 . S
N324 C326 1.356 . S
N324 H336 0.984 . S
N324 H337 0.985 . S
N325 C327 1.356 . S
N325 H330 0.984 . S
N325 H331 0.985 . S
C326 C320 1.379 . S
C326 C323 1.363 . S
C326 N324 1.356 . S
C327 C321 1.363 . S
C327 C322 1.379 . S
C327 N325 1.356 . S
N328 C320 1.356 . S
N328 H334 0.984 . S
N328 H335 0.984 . S
N329 C322 1.356 . S
N329 H332 0.984 . S
N329 H333 0.985 . S
H330 N325 0.984 . S
H331 N325 0.985 . S
H332 N329 0.984 . S
H333 N329 0.985 . S
H334 N328 0.984 . S
H335 N328 0.984 . S
H336 N324 0.984 . S
H337 N324 0.985 . S
C338 C339 1.363 1_556 S
C338 C344 1.379 . S
C338 N346 1.356 1_556 S
C339 C338 1.363 1_554 S
C339 C345 1.363 . S
C340 C341 1.363 . S
C340 C345 1.379 1_556 S
C340 N347 1.356 . S
C341 C340 1.363 . S
C341 C344 1.363 . S
N342 C344 1.356 . S
N342 H354 0.984 . S
N342 H355 0.985 . S
N343 C345 1.356 . S
N343 H348 0.984 . S
N343 H349 0.985 . S
C344 C338 1.379 . S
C344 C341 1.363 . S
C344 N342 1.356 . S
C345 C339 1.363 . S
C345 C340 1.379 1_554 S
C345 N343 1.356 . S
N346 C338 1.356 1_554 S
N346 H352 0.984 1_554 S
N346 H353 0.984 . S
N347 C340 1.356 . S
N347 H350 0.984 . S
N347 H351 0.985 . S
H348 N343 0.984 . S
H349 N343 0.985 . S
H350 N347 0.984 . S
H351 N347 0.985 . S
H352 N346 0.984 1_556 S
H353 N346 0.984 . S
H354 N342 0.984 . S
H355 N342 0.985 . S
C356 C357 1.363 . S
C356 C362 1.379 . S
C356 N364 1.356 . S
C357 C356 1.363 . S
C357 C363 1.363 . S
C358 C359 1.363 1_554 S
C358 C363 1.379 . S
C358 N365 1.356 1_554 S
C359 C358 1.363 1_556 S
C359 C362 1.363 1_556 S
N360 C362 1.356 1_556 S
N360 H372 0.984 1_556 S
N360 H373 0.985 . S
N361 C363 1.356 . S
N361 H366 0.984 . S
N361 H367 0.985 . S
C362 C356 1.379 . S
C362 C359 1.363 1_554 S
C362 N360 1.356 1_554 S
C363 C357 1.363 . S
C363 C358 1.379 . S
C363 N361 1.356 . S
N364 C356 1.356 . S
N364 H370 0.984 . S
N364 H371 0.984 . S
N365 C358 1.356 1_556 S
N365 H368 0.984 . S
N365 H369 0.985 . S
H366 N361 0.984 . S
H367 N361 0.985 . S
H368 N365 0.984 . S
H369 N365 0.985 . S
H370 N364 0.984 . S
H371 N364 0.984 . S
H372 N360 0.984 1_554 S
H373 N360 0.985 . S
C374 C375 1.363 . S
C374 C380 1.379 . S
C374 N382 1.356 . S
C375 C374 1.363 . S
C375 C381 1.363 . S
C376 C377 1.363 . S
C376 C381 1.379 . S
C376 N383 1.356 . S
C377 C376 1.363 . S
C377 C380 1.363 . S
N378 C380 1.356 . S
N378 H390 0.984 . S
N378 H391 0.985 . S
N379 C381 1.356 . S
N379 H384 0.984 . S
N379 H385 0.985 . S
C380 C374 1.379 . S
C380 C377 1.363 . S
C380 N378 1.356 . S
C381 C375 1.363 . S
C381 C376 1.379 . S
C381 N379 1.356 . S
N382 C374 1.356 . S
N382 H388 0.984 . S
N382 H389 0.984 . S
N383 C376 1.356 . S
N383 H386 0.984 . S
N383 H387 0.985 . S
H384 N379 0.984 . S
H385 N379 0.985 . S
H386 N383 0.984 . S
H387 N383 0.985 . S
H388 N382 0.984 . S
H389 N382 0.984 . S
H390 N378 0.984 . S
H391 N378 0.985 . S
C392 C393 1.363 . S
C392 C398 1.379 . S
C392 N400 1.356 . S
C393 C392 1.363 . S
C393 C399 1.363 . S
C394 C395 1.363 . S
C394 C399 1.379 . S
C394 N401 1.356 . S
C395 C394 1.363 . S
C395 C398 1.363 . S
N396 C398 1.356 . S
N396 H408 0.984 . S
N396 H409 0.985 . S
N397 C399 1.356 . S
N397 H402 0.984 . S
N397 H403 0.985 . S
C398 C392 1.379 . S
C398 C395 1.363 . S
C398 N396 1.356 . S
C399 C393 1.363 . S
C399 C394 1.379 . S
C399 N397 1.356 . S
N400 C392 1.356 . S
N400 H406 0.984 . S
N400 H407 0.984 . S
N401 C394 1.356 . S
N401 H404 0.984 . S
N401 H405 0.985 . S
H402 N397 0.984 . S
H403 N397 0.985 . S
H404 N401 0.984 . S
H405 N401 0.985 . S
H406 N400 0.984 . S
H407 N400 0.984 . S
H408 N396 0.984 . S
H409 N396 0.985 . S
C410 C411 1.363 . S
C410 C416 1.379 . S
C410 N418 1.356 . S
C411 C410 1.363 . S
C411 C417 1.363 . S
C412 C413 1.363 . S
C412 C417 1.379 . S
C412 N419 1.356 . S
C413 C412 1.363 . S
C413 C416 1.363 . S
N414 C416 1.356 . S
N414 H426 0.984 . S
N414 H427 0.985 . S
N415 C417 1.356 . S
N415 H420 0.984 . S
N415 H421 0.985 . S
C416 C410 1.379 . S
C416 C413 1.363 . S
C416 N414 1.356 . S
C417 C411 1.363 . S
C417 C412 1.379 . S
C417 N415 1.356 . S
N418 C410 1.356 . S
N418 H424 0.984 . S
N418 H425 0.984 . S
N419 C412 1.356 . S
N419 H422 0.984 . S
N419 H423 0.985 . S
H420 N415 0.984 . S
H421 N415 0.985 . S
H422 N419 0.984 . S
H423 N419 0.985 . S
H424 N418 0.984 . S
H425 N418 0.984 . S
H426 N414 0.984 . S
H427 N414 0.985 . S
C428 C429 1.363 . S
C428 C434 1.379 . S
C428 N436 1.356 . S
C429 C428 1.363 . S
C429 C435 1.363 . S
C430 C431 1.363 1_556 S
C430 C435 1.379 . S
C430 N437 1.356 1_556 S
C431 C430 1.363 1_554 S
C431 C434 1.363 1_554 S
N432 C434 1.356 1_554 S
N432 H444 0.984 . S
N432 H445 0.985 . S
N433 C435 1.356 . S
N433 H438 0.984 . S
N433 H439 0.985 . S
C434 C428 1.379 . S
C434 C431 1.363 1_556 S
C434 N432 1.356 1_556 S
C435 C429 1.363 . S
C435 C430 1.379 . S
C435 N433 1.356 . S
N436 C428 1.356 . S
N436 H442 0.984 . S
N436 H443 0.984 . S
N437 C430 1.356 1_554 S
N437 H440 0.984 . S
N437 H441 0.985 . S
H438 N433 0.984 . S
H439 N433 0.985 . S
H440 N437 0.984 . S
H441 N437 0.985 . S
H442 N436 0.984 . S
H443 N436 0.984 . S
H444 N432 0.984 . S
H445 N432 0.985 . S
C446 C447 1.363 . S
C446 C452 1.379 . S
C446 N454 1.356 . S
C447 C446 1.363 . S
C447 C453 1.363 . S
C448 C449 1.363 . S
C448 C453 1.379 . S
C448 N455 1.356 . S
C449 C448 1.363 . S
C449 C452 1.363 . S
N450 C452 1.356 . S
N450 H462 0.984 . S
N450 H463 0.985 . S
N451 C453 1.356 1_556 S
N451 H456 0.984 . S
N451 H457 0.985 . S
C452 C446 1.379 . S
C452 C449 1.363 . S
C452 N450 1.356 . S
C453 C447 1.363 . S
C453 C448 1.379 . S
C453 N451 1.356 1_554 S
N454 C446 1.356 . S
N454 H460 0.984 . S
N454 H461 0.984 1_554 S
N455 C448 1.356 . S
N455 H458 0.984 . S
N455 H459 0.985 . S
H456 N451 0.984 . S
H457 N451 0.985 . S
H458 N455 0.984 . S
H459 N455 0.985 . S
H460 N454 0.984 . S
H461 N454 0.984 1_556 S
H462 N450 0.984 . S
H463 N450 0.985 . S
C464 C465 1.363 . S
C464 C470 1.379 . S
C464 N472 1.356 . S
C465 C464 1.363 . S
C465 C471 1.363 . S
C466 C467 1.363 . S
C466 C471 1.379 . S
C466 N473 1.356 . S
C467 C466 1.363 . S
C467 C470 1.363 . S
N468 C470 1.356 . S
N468 H480 0.984 . S
N468 H481 0.985 . S
N469 C471 1.356 . S
N469 H474 0.984 . S
N469 H475 0.985 . S
C470 C464 1.379 . S
C470 C467 1.363 . S
C470 N468 1.356 . S
C471 C465 1.363 . S
C471 C466 1.379 . S
C471 N469 1.356 . S
N472 C464 1.356 . S
N472 H478 0.984 . S
N472 H479 0.984 . S
N473 C466 1.356 . S
N473 H476 0.984 . S
N473 H477 0.985 . S
H474 N469 0.984 . S
H475 N469 0.985 . S
H476 N473 0.984 . S
H477 N473 0.985 . S
H478 N472 0.984 . S
H479 N472 0.984 . S
H480 N468 0.984 . S
H481 N468 0.985 . S
C482 C483 1.363 . S
C482 C488 1.379 . S
C482 N490 1.356 . S
C483 C482 1.363 . S
C483 C489 1.363 . S
C484 C485 1.363 . S
C484 C489 1.379 . S
C484 N491 1.356 . S
C485 C484 1.363 . S
C485 C488 1.363 . S
N486 C488 1.356 1_556 S
N486 H498 0.984 . S
N486 H499 0.985 . S
N487 C489 1.356 . S
N487 H492 0.984 . S
N487 H493 0.985 . S
C488 C482 1.379 . S
C488 C485 1.363 . S
C488 N486 1.356 1_554 S
C489 C483 1.363 . S
C489 C484 1.379 . S
C489 N487 1.356 . S
N490 C482 1.356 . S
N490 H496 0.984 . S
N490 H497 0.984 . S
N491 C484 1.356 . S
N491 H494 0.984 1_554 S
N491 H495 0.985 . S
H492 N487 0.984 . S
H493 N487 0.985 . S
H494 N491 0.984 1_556 S
H495 N491 0.985 . S
H496 N490 0.984 . S
H497 N490 0.984 . S
H498 N486 0.984 . S
H499 N486 0.985 . S
C500 C501 1.363 1_556 S
C500 C506 1.379 . S
C500 N508 1.356 1_556 S
C501 C500 1.363 1_554 S
C501 C507 1.363 1_554 S
C502 C503 1.363 . S
C502 C507 1.379 . S
C502 N509 1.356 . S
C503 C502 1.363 . S
C503 C506 1.363 . S
N504 C506 1.356 . S
N504 H516 0.984 . S
N504 H517 0.985 . S
N505 C507 1.356 1_554 S
N505 H510 0.984 . S
N505 H511 0.985 1_554 S
C506 C500 1.379 . S
C506 C503 1.363 . S
C506 N504 1.356 . S
C507 C501 1.363 1_556 S
C507 C502 1.379 . S
C507 N505 1.356 1_556 S
N508 C500 1.356 1_554 S
N508 H514 0.984 . S
N508 H515 0.984 . S
N509 C502 1.356 . S
N509 H512 0.984 . S
N509 H513 0.985 . S
H510 N505 0.984 . S
H511 N505 0.985 1_556 S
H512 N509 0.984 . S
H513 N509 0.985 . S
H514 N508 0.984 . S
H515 N508 0.984 . S
H516 N504 0.984 . S
H517 N504 0.985 . S
C518 C519 1.363 . S
C518 C524 1.379 . S
C518 N526 1.356 . S
C519 C518 1.363 . S
C519 C525 1.363 . S
C520 C521 1.363 . S
C520 C525 1.379 . S
C520 N527 1.356 . S
C521 C520 1.363 . S
C521 C524 1.363 . S
N522 C524 1.356 . S
N522 H534 0.984 . S
N522 H535 0.985 . S
N523 C525 1.356 . S
N523 H528 0.984 . S
N523 H529 0.985 . S
C524 C518 1.379 . S
C524 C521 1.363 . S
C524 N522 1.356 . S
C525 C519 1.363 . S
C525 C520 1.379 . S
C525 N523 1.356 . S
N526 C518 1.356 . S
N526 H532 0.984 . S
N526 H533 0.984 . S
N527 C520 1.356 . S
N527 H530 0.984 . S
N527 H531 0.985 . S
H528 N523 0.984 . S
H529 N523 0.985 . S
H530 N527 0.984 . S
H531 N527 0.985 . S
H532 N526 0.984 . S
H533 N526 0.984 . S
H534 N522 0.984 . S
H535 N522 0.985 . S
C536 C537 1.363 . S
C536 C542 1.379 . S
C536 N544 1.356 . S
C537 C536 1.363 . S
C537 C543 1.363 . S
C538 C539 1.363 . S
C538 C543 1.379 . S
C538 N545 1.356 . S
C539 C538 1.363 . S
C539 C542 1.363 . S
N540 C542 1.356 . S
N540 H552 0.984 . S
N540 H553 0.985 . S
N541 C543 1.356 . S
N541 H546 0.984 . S
N541 H547 0.985 . S
C542 C536 1.379 . S
C542 C539 1.363 . S
C542 N540 1.356 . S
C543 C537 1.363 . S
C543 C538 1.379 . S
C543 N541 1.356 . S
N544 C536 1.356 . S
N544 H550 0.984 . S
N544 H551 0.984 . S
N545 C538 1.356 . S
N545 H548 0.984 . S
N545 H549 0.985 . S
H546 N541 0.984 . S
H547 N541 0.985 . S
H548 N545 0.984 . S
H549 N545 0.985 . S
H550 N544 0.984 . S
H551 N544 0.984 . S
H552 N540 0.984 . S
H553 N540 0.985 . S
C554 C555 1.363 . S
C554 C560 1.379 . S
C554 N562 1.356 . S
C555 C554 1.363 . S
C555 C561 1.363 . S
C556 C557 1.363 . S
C556 C561 1.379 . S
C556 N563 1.356 . S
C557 C556 1.363 . S
C557 C560 1.363 . S
N558 C560 1.356 . S
N558 H570 0.984 . S
N558 H571 0.985 . S
N559 C561 1.356 . S
N559 H564 0.984 . S
N559 H565 0.985 . S
C560 C554 1.379 . S
C560 C557 1.363 . S
C560 N558 1.356 . S
C561 C555 1.363 . S
C561 C556 1.379 . S
C561 N559 1.356 . S
N562 C554 1.356 . S
N562 H568 0.984 . S
N562 H569 0.984 . S
N563 C556 1.356 . S
N563 H566 0.984 . S
N563 H567 0.985 . S
H564 N559 0.984 . S
H565 N559 0.985 . S
H566 N563 0.984 . S
H567 N563 0.985 . S
H568 N562 0.984 . S
H569 N562 0.984 . S
H570 N558 0.984 . S
H571 N558 0.985 . S
C572 C573 1.363 . S
C572 C578 1.379 1_554 S
C572 N580 1.356 . S
C573 C572 1.363 . S
C573 C579 1.363 . S
C574 C575 1.363 1_554 S
C574 C579 1.379 . S
C574 N581 1.356 1_554 S
C575 C574 1.363 1_556 S
C575 C578 1.363 . S
N576 C578 1.356 . S
N576 H588 0.984 . S
N576 H589 0.985 . S
N577 C579 1.356 . S
N577 H582 0.984 . S
N577 H583 0.985 . S
C578 C572 1.379 1_556 S
C578 C575 1.363 . S
C578 N576 1.356 . S
C579 C573 1.363 . S
C579 C574 1.379 . S
C579 N577 1.356 . S
N580 C572 1.356 . S
N580 H586 0.984 . S
N580 H587 0.984 . S
N581 C574 1.356 1_556 S
N581 H584 0.984 . S
N581 H585 0.985 . S
H582 N577 0.984 . S
H583 N577 0.985 . S
H584 N581 0.984 . S
H585 N581 0.985 . S
H586 N580 0.984 . S
H587 N580 0.984 . S
H588 N576 0.984 . S
H589 N576 0.985 . S
C590 C591 1.363 1_556 S
C590 C596 1.379 . S
C590 N598 1.356 1_556 S
C591 C590 1.363 1_554 S
C591 C597 1.363 1_554 S
C592 C593 1.363 . S
C592 C597 1.379 . S
C592 N599 1.356 . S
C593 C592 1.363 . S
C593 C596 1.363 . S
N594 C596 1.356 . S
N594 H606 0.984 . S
N594 H607 0.985 . S
N595 C597 1.356 1_554 S
N595 H600 0.984 . S
N595 H601 0.985 . S
C596 C590 1.379 . S
C596 C593 1.363 . S
C596 N594 1.356 . S
C597 C591 1.363 1_556 S
C597 C592 1.379 . S
C597 N595 1.356 1_556 S
N598 C590 1.356 1_554 S
N598 H604 0.984 1_554 S
N598 H605 0.984 . S
N599 C592 1.356 . S
N599 H602 0.984 . S
N599 H603 0.985 . S
H600 N595 0.984 . S
H601 N595 0.985 . S
H602 N599 0.984 . S
H603 N599 0.985 . S
H604 N598 0.984 1_556 S
H605 N598 0.984 . S
H606 N594 0.984 . S
H607 N594 0.985 . S
C608 C609 1.363 . S
C608 C614 1.379 . S
C608 N616 1.356 . S
C609 C608 1.363 . S
C609 C615 1.363 . S
C610 C611 1.363 . S
C610 C615 1.379 . S
C610 N617 1.356 . S
C611 C610 1.363 . S
C611 C614 1.363 . S
N612 C614 1.356 . S
N612 H624 0.984 . S
N612 H625 0.985 . S
N613 C615 1.356 . S
N613 H618 0.984 . S
N613 H619 0.985 . S
C614 C608 1.379 . S
C614 C611 1.363 . S
C614 N612 1.356 . S
C615 C609 1.363 . S
C615 C610 1.379 . S
C615 N613 1.356 . S
N616 C608 1.356 . S
N616 H622 0.984 . S
N616 H623 0.984 . S
N617 C610 1.356 . S
N617 H620 0.984 . S
N617 H621 0.985 . S
H618 N613 0.984 . S
H619 N613 0.985 . S
H620 N617 0.984 . S
H621 N617 0.985 . S
H622 N616 0.984 . S
H623 N616 0.984 . S
H624 N612 0.984 . S
H625 N612 0.985 . S
C626 C627 1.363 . S
C626 C632 1.379 . S
C626 N634 1.356 . S
C627 C626 1.363 . S
C627 C633 1.363 . S
C628 C629 1.363 . S
C628 C633 1.379 . S
C628 N635 1.356 . S
C629 C628 1.363 . S
C629 C632 1.363 . S
N630 C632 1.356 . S
N630 H642 0.984 . S
N630 H643 0.985 . S
N631 C633 1.356 . S
N631 H636 0.984 . S
N631 H637 0.985 . S
C632 C626 1.379 . S
C632 C629 1.363 . S
C632 N630 1.356 . S
C633 C627 1.363 . S
C633 C628 1.379 . S
C633 N631 1.356 . S
N634 C626 1.356 . S
N634 H640 0.984 . S
N634 H641 0.984 . S
N635 C628 1.356 . S
N635 H638 0.984 . S
N635 H639 0.985 . S
H636 N631 0.984 . S
H637 N631 0.985 . S
H638 N635 0.984 . S
H639 N635 0.985 . S
H640 N634 0.984 . S
H641 N634 0.984 . S
H642 N630 0.984 . S
H643 N630 0.985 . S
C644 C645 1.363 . S
C644 C650 1.379 . S
C644 N652 1.356 . S
C645 C644 1.363 . S
C645 C651 1.363 . S
C646 C647 1.363 . S
C646 C651 1.379 . S
C646 N653 1.356 . S
C647 C646 1.363 . S
C647 C650 1.363 . S
N648 C650 1.356 . S
N648 H660 0.984 . S
N648 H661 0.985 . S
N649 C651 1.356 . S
N649 H654 0.984 . S
N649 H655 0.985 . S
C650 C644 1.379 . S
C650 C647 1.363 . S
C650 N648 1.356 . S
C651 C645 1.363 . S
C651 C646 1.379 . S
C651 N649 1.356 . S
N652 C644 1.356 . S
N652 H658 0.984 . S
N652 H659 0.984 . S
N653 C646 1.356 . S
N653 H656 0.984 . S
N653 H657 0.985 . S
H654 N649 0.984 . S
H655 N649 0.985 . S
H656 N653 0.984 . S
H657 N653 0.985 . S
H658 N652 0.984 . S
H659 N652 0.984 . S
H660 N648 0.984 . S
H661 N648 0.985 . S
C662 C663 1.363 . S
C662 C668 1.379 1_655 S
C662 N670 1.356 . S
C663 C662 1.363 . S
C663 C669 1.363 1_556 S
C664 C665 1.363 . S
C664 C669 1.379 1_456 S
C664 N671 1.356 1_556 S
C665 C664 1.363 . S
C665 C668 1.363 . S
N666 C668 1.356 . S
N666 H678 0.984 . S
N666 H679 0.985 . S
N667 C669 1.356 . S
N667 H672 0.984 . S
N667 H673 0.985 . S
C668 C662 1.379 1_455 S
C668 C665 1.363 . S
C668 N666 1.356 . S
C669 C663 1.363 1_554 S
C669 C664 1.379 1_654 S
C669 N667 1.356 . S
N670 C662 1.356 . S
N670 H676 0.984 . S
N670 H677 0.984 . S
N671 C664 1.356 1_554 S
N671 H674 0.985 . S
N671 H675 0.985 . S
H672 N667 0.984 . S
H673 N667 0.985 . S
H674 N671 0.985 . S
H675 N671 0.985 . S
H676 N670 0.984 . S
H677 N670 0.984 . S
H678 N666 0.984 . S
H679 N666 0.985 . S
C680 C681 1.363 . S
C680 C686 1.379 . S
C680 N688 1.356 . S
C681 C680 1.363 . S
C681 C687 1.363 . S
C682 C683 1.363 . S
C682 C687 1.379 . S
C682 N689 1.356 . S
C683 C682 1.363 . S
C683 C686 1.363 . S
N684 C686 1.356 . S
N684 H696 0.984 . S
N684 H697 0.985 . S
N685 C687 1.356 . S
N685 H690 0.984 . S
N685 H691 0.985 . S
C686 C680 1.379 . S
C686 C683 1.363 . S
C686 N684 1.356 . S
C687 C681 1.363 . S
C687 C682 1.379 . S
C687 N685 1.356 . S
N688 C680 1.356 . S
N688 H694 0.984 1_556 S
N688 H695 0.984 . S
N689 C682 1.356 . S
N689 H692 0.984 . S
N689 H693 0.985 . S
H690 N685 0.984 . S
H691 N685 0.985 . S
H692 N689 0.984 . S
H693 N689 0.985 . S
H694 N688 0.984 1_554 S
H695 N688 0.984 . S
H696 N684 0.984 . S
H697 N684 0.985 . S
C698 C699 1.363 1_556 S
C698 C704 1.379 . S
C698 N706 1.356 . S
C699 C698 1.363 1_554 S
C699 C705 1.363 . S
C700 C701 1.363 1_455 S
C700 C705 1.379 . S
C700 N707 1.356 1_455 S
C701 C700 1.363 1_655 S
C701 C704 1.363 1_654 S
N702 C704 1.356 1_655 S
N702 H714 0.995 . S
N702 H715 0.985 . S
N703 C705 1.356 . S
N703 H708 0.984 . S
N703 H709 0.985 . S
C704 C698 1.379 . S
C704 C701 1.363 1_456 S
C704 N702 1.356 1_455 S
C705 C699 1.363 . S
C705 C700 1.379 . S
C705 N703 1.356 . S
N706 C698 1.356 . S
N706 H712 0.984 . S
N706 H713 0.984 . S
N707 C700 1.356 1_655 S
N707 H710 0.984 . S
N707 H711 0.985 . S
H708 N703 0.984 . S
H709 N703 0.985 . S
H710 N707 0.984 . S
H711 N707 0.985 . S
H712 N706 0.984 . S
H713 N706 0.984 . S
H714 N702 0.995 . S
H715 N702 0.985 . S
C716 C717 1.363 . S
C716 C722 1.379 . S
C716 N724 1.356 . S
C717 C716 1.363 . S
C717 C723 1.363 . S
C718 C719 1.363 . S
C718 C723 1.379 . S
C718 N725 1.356 . S
C719 C718 1.363 . S
C719 C722 1.363 . S
N720 C722 1.356 . S
N720 H732 0.984 . S
N720 H733 0.985 . S
N721 C723 1.356 . S
N721 H726 0.984 . S
N721 H727 0.985 . S
C722 C716 1.379 . S
C722 C719 1.363 . S
C722 N720 1.356 . S
C723 C717 1.363 . S
C723 C718 1.379 . S
C723 N721 1.356 . S
N724 C716 1.356 . S
N724 H730 0.984 . S
N724 H731 0.984 . S
N725 C718 1.356 . S
N725 H728 0.984 . S
N725 H729 0.985 . S
H726 N721 0.984 . S
H727 N721 0.985 . S
H728 N725 0.984 . S
H729 N725 0.985 . S
H730 N724 0.984 . S
H731 N724 0.984 . S
H732 N720 0.984 . S
H733 N720 0.985 . S
C734 C735 1.363 . S
C734 C740 1.379 . S
C734 N742 1.356 . S
C735 C734 1.363 . S
C735 C741 1.363 . S
C736 C737 1.363 . S
C736 C741 1.379 . S
C736 N743 1.356 . S
C737 C736 1.363 . S
C737 C740 1.363 . S
N738 C740 1.356 . S
N738 H750 0.984 . S
N738 H751 0.985 . S
N739 C741 1.356 . S
N739 H744 0.984 . S
N739 H745 0.985 . S
C740 C734 1.379 . S
C740 C737 1.363 . S
C740 N738 1.356 . S
C741 C735 1.363 . S
C741 C736 1.379 . S
C741 N739 1.356 . S
N742 C734 1.356 . S
N742 H748 0.984 . S
N742 H749 0.984 . S
N743 C736 1.356 . S
N743 H746 0.984 . S
N743 H747 0.985 . S
H744 N739 0.984 . S
H745 N739 0.985 . S
H746 N743 0.984 . S
H747 N743 0.985 . S
H748 N742 0.984 . S
H749 N742 0.984 . S
H750 N738 0.984 . S
H751 N738 0.985 . S
C752 C753 1.363 . S
C752 C758 1.379 . S
C752 N760 1.356 . S
C753 C752 1.363 . S
C753 C759 1.363 . S
C754 C755 1.363 . S
C754 C759 1.379 . S
C754 N761 1.356 . S
C755 C754 1.363 . S
C755 C758 1.363 . S
N756 C758 1.356 . S
N756 H768 0.984 1_556 S
N756 H769 0.985 . S
N757 C759 1.356 . S
N757 H762 0.984 . S
N757 H763 0.985 . S
C758 C752 1.379 . S
C758 C755 1.363 . S
C758 N756 1.356 . S
C759 C753 1.363 . S
C759 C754 1.379 . S
C759 N757 1.356 . S
N760 C752 1.356 . S
N760 H766 0.984 . S
N760 H767 0.984 . S
N761 C754 1.356 . S
N761 H764 0.984 . S
N761 H765 0.985 . S
H762 N757 0.984 . S
H763 N757 0.985 . S
H764 N761 0.984 . S
H765 N761 0.985 . S
H766 N760 0.984 . S
H767 N760 0.984 . S
H768 N756 0.984 1_554 S
H769 N756 0.985 . S
C770 C771 1.363 . S
C770 C776 1.379 . S
C770 N778 1.356 . S
C771 C770 1.363 . S
C771 C777 1.363 . S
C772 C773 1.363 . S
C772 C777 1.379 . S
C772 N779 1.356 . S
C773 C772 1.363 . S
C773 C776 1.363 . S
N774 C776 1.356 . S
N774 H786 0.984 . S
N774 H787 0.985 . S
N775 C777 1.356 . S
N775 H780 0.984 . S
N775 H781 0.985 . S
C776 C770 1.379 . S
C776 C773 1.363 . S
C776 N774 1.356 . S
C777 C771 1.363 . S
C777 C772 1.379 . S
C777 N775 1.356 . S
N778 C770 1.356 . S
N778 H784 0.984 . S
N778 H785 0.984 . S
N779 C772 1.356 . S
N779 H782 0.984 . S
N779 H783 0.985 . S
H780 N775 0.984 . S
H781 N775 0.985 . S
H782 N779 0.984 . S
H783 N779 0.985 . S
H784 N778 0.984 . S
H785 N778 0.984 . S
H786 N774 0.984 . S
H787 N774 0.985 . S
C788 C789 1.363 . S
C788 C794 1.379 . S
C788 N796 1.356 . S
C789 C788 1.363 . S
C789 C795 1.363 . S
C790 C791 1.363 . S
C790 C795 1.379 . S
C790 N797 1.356 1_554 S
C791 C790 1.363 . S
C791 C794 1.363 . S
N792 C794 1.356 . S
N792 H804 0.984 . S
N792 H805 0.985 . S
N793 C795 1.356 1_556 S
N793 H798 0.984 . S
N793 H799 0.985 . S
C794 C788 1.379 . S
C794 C791 1.363 . S
C794 N792 1.356 . S
C795 C789 1.363 . S
C795 C790 1.379 . S
C795 N793 1.356 1_554 S
N796 C788 1.356 . S
N796 H802 0.984 . S
N796 H803 0.984 . S
N797 C790 1.356 1_556 S
N797 H800 0.984 1_556 S
N797 H801 0.985 . S
H798 N793 0.984 . S
H799 N793 0.985 . S
H800 N797 0.984 1_554 S
H801 N797 0.985 . S
H802 N796 0.984 . S
H803 N796 0.984 . S
H804 N792 0.984 . S
H805 N792 0.985 . S
C806 C807 1.363 . S
C806 C812 1.379 . S
C806 N814 1.356 . S
C807 C806 1.363 . S
C807 C813 1.363 . S
C808 C809 1.363 . S
C808 C813 1.379 . S
C808 N815 1.356 . S
C809 C808 1.363 . S
C809 C812 1.363 . S
N810 C812 1.356 . S
N810 H822 0.984 . S
N810 H823 0.985 . S
N811 C813 1.356 . S
N811 H816 0.984 . S
N811 H817 0.985 . S
C812 C806 1.379 . S
C812 C809 1.363 . S
C812 N810 1.356 . S
C813 C807 1.363 . S
C813 C808 1.379 . S
C813 N811 1.356 . S
N814 C806 1.356 . S
N814 H820 0.984 . S
N814 H821 0.984 . S
N815 C808 1.356 . S
N815 H818 0.984 . S
N815 H819 0.985 . S
H816 N811 0.984 . S
H817 N811 0.985 . S
H818 N815 0.984 . S
H819 N815 0.985 . S
H820 N814 0.984 . S
H821 N814 0.984 . S
H822 N810 0.984 . S
H823 N810 0.985 . S
C824 C825 1.363 1_556 S
C824 C830 1.379 1_655 S
C824 N832 1.356 . S
C825 C824 1.363 1_554 S
C825 C831 1.363 . S
C826 C827 1.363 . S
C826 C831 1.379 1_455 S
C826 N833 1.356 . S
C827 C826 1.363 . S
C827 C830 1.363 1_554 S
N828 C830 1.356 . S
N828 H840 0.984 . S
N828 H841 0.985 . S
N829 C831 1.356 . S
N829 H834 0.984 . S
N829 H835 0.985 . S
C830 C824 1.379 1_455 S
C830 C827 1.363 1_556 S
C830 N828 1.356 . S
C831 C825 1.363 . S
C831 C826 1.379 1_655 S
C831 N829 1.356 . S
N832 C824 1.356 . S
N832 H838 0.984 . S
N832 H839 0.984 . S
N833 C826 1.356 . S
N833 H836 0.984 . S
N833 H837 0.985 . S
H834 N829 0.984 . S
H835 N829 0.985 . S
H836 N833 0.984 . S
H837 N833 0.985 . S
H838 N832 0.984 . S
H839 N832 0.984 . S
H840 N828 0.984 . S
H841 N828 0.985 . S
C842 C843 1.363 . S
C842 C848 1.379 . S
C842 N850 1.356 . S
C843 C842 1.363 . S
C843 C849 1.363 . S
C844 C845 1.363 . S
C844 C849 1.379 . S
C844 N851 1.356 . S
C845 C844 1.363 . S
C845 C848 1.363 . S
N846 C848 1.356 . S
N846 H858 0.984 . S
N846 H859 0.985 . S
N847 C849 1.356 . S
N847 H852 0.984 . S
N847 H853 0.985 . S
C848 C842 1.379 . S
C848 C845 1.363 . S
C848 N846 1.356 . S
C849 C843 1.363 . S
C849 C844 1.379 . S
C849 N847 1.356 . S
N850 C842 1.356 . S
N850 H856 0.984 . S
N850 H857 0.984 . S
N851 C844 1.356 . S
N851 H854 0.984 . S
N851 H855 0.985 . S
H852 N847 0.984 . S
H853 N847 0.985 . S
H854 N851 0.984 . S
H855 N851 0.985 . S
H856 N850 0.984 . S
H857 N850 0.984 . S
H858 N846 0.984 . S
H859 N846 0.985 . S
C860 C861 1.363 . S
C860 C866 1.379 . S
C860 N868 1.356 . S
C861 C860 1.363 . S
C861 C867 1.363 . S
C862 C863 1.363 . S
C862 C867 1.379 . S
C862 N869 1.356 . S
C863 C862 1.363 . S
C863 C866 1.363 . S
N864 C866 1.356 . S
N864 H876 0.984 . S
N864 H877 0.985 . S
N865 C867 1.356 . S
N865 H870 0.984 . S
N865 H871 0.985 . S
C866 C860 1.379 . S
C866 C863 1.363 . S
C866 N864 1.356 . S
C867 C861 1.363 . S
C867 C862 1.379 . S
C867 N865 1.356 . S
N868 C860 1.356 . S
N868 H874 0.984 . S
N868 H875 0.984 . S
N869 C862 1.356 . S
N869 H872 0.984 . S
N869 H873 0.985 . S
H870 N865 0.984 . S
H871 N865 0.985 . S
H872 N869 0.984 . S
H873 N869 0.985 . S
H874 N868 0.984 . S
H875 N868 0.984 . S
H876 N864 0.984 . S
H877 N864 0.985 . S
C878 C879 1.363 . S
C878 C884 1.379 1_455 S
C878 N886 1.356 . S
C879 C878 1.363 . S
C879 C885 1.363 . S
C880 C881 1.363 . S
C880 C885 1.379 1_655 S
C880 N887 1.356 1_556 S
C881 C880 1.363 . S
C881 C884 1.363 . S
N882 C884 1.356 . S
N882 H894 0.984 . S
N882 H895 0.985 . S
N883 C885 1.356 1_554 S
N883 H888 0.984 . S
N883 H889 0.985 . S
C884 C878 1.379 1_655 S
C884 C881 1.363 . S
C884 N882 1.356 . S
C885 C879 1.363 . S
C885 C880 1.379 1_455 S
C885 N883 1.356 1_556 S
N886 C878 1.356 . S
N886 H892 0.984 . S
N886 H893 0.984 . S
N887 C880 1.356 1_554 S
N887 H890 0.984 1_554 S
N887 H891 0.985 . S
H888 N883 0.984 . S
H889 N883 0.985 . S
H890 N887 0.984 1_556 S
H891 N887 0.985 . S
H892 N886 0.984 . S
H893 N886 0.984 . S
H894 N882 0.984 . S
H895 N882 0.985 . S
C896 C897 1.363 1_556 S
C896 C902 1.379 . S
C896 N904 1.356 . S
C897 C896 1.363 1_554 S
C897 C903 1.363 . S
C898 C899 1.363 . S
C898 C903 1.379 . S
C898 N905 1.356 . S
C899 C898 1.363 . S
C899 C902 1.363 1_554 S
N900 C902 1.356 . S
N900 H912 0.984 . S
N900 H913 0.985 . S
N901 C903 1.356 . S
N901 H906 0.984 . S
N901 H907 0.985 . S
C902 C896 1.379 . S
C902 C899 1.363 1_556 S
C902 N900 1.356 . S
C903 C897 1.363 . S
C903 C898 1.379 . S
C903 N901 1.356 . S
N904 C896 1.356 . S
N904 H910 0.984 . S
N904 H911 0.984 . S
N905 C898 1.356 . S
N905 H908 0.984 . S
N905 H909 0.985 . S
H906 N901 0.984 . S
H907 N901 0.985 . S
H908 N905 0.984 . S
H909 N905 0.985 . S
H910 N904 0.984 . S
H911 N904 0.984 . S
H912 N900 0.984 . S
H913 N900 0.985 . S
C914 C915 1.363 . S
C914 C920 1.379 . S
C914 N922 1.356 . S
C915 C914 1.363 . S
C915 C921 1.363 . S
C916 C917 1.363 . S
C916 C921 1.379 . S
C916 N923 1.356 . S
C917 C916 1.363 . S
C917 C920 1.363 . S
N918 C920 1.356 . S
N918 H930 0.984 1_554 S
N918 H931 0.985 . S
N919 C921 1.356 . S
N919 H924 0.984 . S
N919 H925 0.985 . S
C920 C914 1.379 . S
C920 C917 1.363 . S
C920 N918 1.356 . S
C921 C915 1.363 . S
C921 C916 1.379 . S
C921 N919 1.356 . S
N922 C914 1.356 . S
N922 H928 0.984 . S
N922 H929 0.984 . S
N923 C916 1.356 . S
N923 H926 0.984 . S
N923 H927 0.985 . S
H924 N919 0.984 . S
H925 N919 0.985 . S
H926 N923 0.984 . S
H927 N923 0.985 . S
H928 N922 0.984 . S
H929 N922 0.984 . S
H930 N918 0.984 1_556 S
H931 N918 0.985 . S
C932 C933 1.363 . S
C932 C938 1.379 . S
C932 N940 1.356 . S
C933 C932 1.363 . S
C933 C939 1.363 . S
C934 C935 1.363 . S
C934 C939 1.379 . S
C934 N941 1.356 . S
C935 C934 1.363 . S
C935 C938 1.363 . S
N936 C938 1.356 . S
N936 H948 0.984 . S
N936 H949 0.985 . S
N937 C939 1.356 . S
N937 H942 0.984 . S
N937 H943 0.985 . S
C938 C932 1.379 . S
C938 C935 1.363 . S
C938 N936 1.356 . S
C939 C933 1.363 . S
C939 C934 1.379 . S
C939 N937 1.356 . S
N940 C932 1.356 . S
N940 H946 0.984 . S
N940 H947 0.984 . S
N941 C934 1.356 . S
N941 H944 0.984 . S
N941 H945 0.985 . S
H942 N937 0.984 . S
H943 N937 0.985 . S
H944 N941 0.984 . S
H945 N941 0.985 . S
H946 N940 0.984 . S
H947 N940 0.984 . S
H948 N936 0.984 . S
H949 N936 0.985 . S
C950 C951 1.363 . S
C950 C956 1.379 . S
C950 N958 1.356 . S
C951 C950 1.363 . S
C951 C957 1.363 . S
C952 C953 1.363 . S
C952 C957 1.379 . S
C952 N959 1.356 . S
C953 C952 1.363 . S
C953 C956 1.363 . S
N954 C956 1.356 . S
N954 H966 0.984 . S
N954 H967 0.985 . S
N955 C957 1.356 . S
N955 H960 0.984 . S
N955 H961 0.985 . S
C956 C950 1.379 . S
C956 C953 1.363 . S
C956 N954 1.356 . S
C957 C951 1.363 . S
C957 C952 1.379 . S
C957 N955 1.356 . S
N958 C950 1.356 . S
N958 H964 0.984 . S
N958 H965 0.984 . S
N959 C952 1.356 . S
N959 H962 0.984 . S
N959 H963 0.985 . S
H960 N955 0.984 . S
H961 N955 0.985 . S
H962 N959 0.984 . S
H963 N959 0.985 . S
H964 N958 0.984 . S
H965 N958 0.984 . S
H966 N954 0.984 . S
H967 N954 0.985 . S
C968 C969 1.363 1_554 S
C968 C974 1.379 . S
C968 N976 1.356 . S
C969 C968 1.363 1_556 S
C969 C975 1.363 . S
C970 C971 1.363 . S
C970 C975 1.379 . S
C970 N977 1.356 . S
C971 C970 1.363 . S
C971 C974 1.363 1_556 S
N972 C974 1.356 . S
N972 H984 0.984 . S
N972 H985 0.985 . S
N973 C975 1.356 . S
N973 H978 0.984 . S
N973 H979 0.985 . S
C974 C968 1.379 . S
C974 C971 1.363 1_554 S
C974 N972 1.356 . S
C975 C969 1.363 . S
C975 C970 1.379 . S
C975 N973 1.356 . S
N976 C968 1.356 . S
N976 H982 0.984 . S
N976 H983 0.984 . S
N977 C970 1.356 . S
N977 H980 0.984 . S
N977 H981 0.985 . S
H978 N973 0.984 . S
H979 N973 0.985 . S
H980 N977 0.984 . S
H981 N977 0.985 . S
H982 N976 0.984 . S
H983 N976 0.984 . S
H984 N972 0.984 . S
H985 N972 0.985 . S
C986 C987 1.363 . S
C986 C992 1.379 . S
C986 N994 1.356 . S
C987 C986 1.363 . S
C987 C993 1.363 . S
C988 C989 1.363 . S
C988 C993 1.379 . S
C988 N995 1.356 . S
C989 C988 1.363 . S
C989 C992 1.363 . S
N990 C992 1.356 . S
N990 H1002 0.984 . S
N990 H1003 0.985 . S
N991 C993 1.356 . S
N991 H996 0.984 . S
N991 H997 0.985 . S
C992 C986 1.379 . S
C992 C989 1.363 . S
C992 N990 1.356 . S
C993 C987 1.363 . S
C993 C988 1.379 . S
C993 N991 1.356 . S
N994 C986 1.356 . S
N994 H1000 0.984 . S
N994 H1001 0.984 . S
N995 C988 1.356 . S
N995 H998 0.984 . S
N995 H999 0.985 . S
H996 N991 0.984 . S
H997 N991 0.985 . S
H998 N995 0.984 . S
H999 N995 0.985 . S
H1000 N994 0.984 . S
H1001 N994 0.984 . S
H1002 N990 0.984 . S
H1003 N990 0.985 . S
C1004 C1005 1.363 . S
C1004 C1010 1.379 . S
C1004 N1012 1.356 . S
C1005 C1004 1.363 . S
C1005 C1011 1.363 . S
C1006 C1007 1.363 . S
C1006 C1011 1.379 . S
C1006 N1013 1.356 . S
C1007 C1006 1.363 . S
C1007 C1010 1.363 . S
N1008 C1010 1.356 . S
N1008 H1020 0.984 . S
N1008 H1021 0.985 . S
N1009 C1011 1.356 . S
N1009 H1014 0.984 . S
N1009 H1015 0.985 . S
C1010 C1004 1.379 . S
C1010 C1007 1.363 . S
C1010 N1008 1.356 . S
C1011 C1005 1.363 . S
C1011 C1006 1.379 . S
C1011 N1009 1.356 . S
N1012 C1004 1.356 . S
N1012 H1018 0.984 . S
N1012 H1019 0.984 . S
N1013 C1006 1.356 . S
N1013 H1016 0.984 . S
N1013 H1017 0.985 . S
H1014 N1009 0.984 . S
H1015 N1009 0.985 . S
H1016 N1013 0.984 . S
H1017 N1013 0.985 . S
H1018 N1012 0.984 . S
H1019 N1012 0.984 . S
H1020 N1008 0.984 . S
H1021 N1008 0.985 . S
C1022 C1023 1.363 . S
C1022 C1028 1.379 . S
C1022 N1030 1.356 . S
C1023 C1022 1.363 . S
C1023 C1029 1.363 . S
C1024 C1025 1.363 . S
C1024 C1029 1.379 . S
C1024 N1031 1.356 . S
C1025 C1024 1.363 . S
C1025 C1028 1.363 . S
N1026 C1028 1.356 . S
N1026 H1038 0.984 1_554 S
N1026 H1039 0.985 . S
N1027 C1029 1.356 . S
N1027 H1032 0.984 . S
N1027 H1033 0.985 . S
C1028 C1022 1.379 . S
C1028 C1025 1.363 . S
C1028 N1026 1.356 . S
C1029 C1023 1.363 . S
C1029 C1024 1.379 . S
C1029 N1027 1.356 . S
N1030 C1022 1.356 . S
N1030 H1036 0.984 . S
N1030 H1037 0.984 . S
N1031 C1024 1.356 . S
N1031 H1034 0.984 . S
N1031 H1035 0.985 . S
H1032 N1027 0.984 . S
H1033 N1027 0.985 . S
H1034 N1031 0.984 . S
H1035 N1031 0.985 . S
H1036 N1030 0.984 . S
H1037 N1030 0.984 . S
H1038 N1026 0.984 1_556 S
H1039 N1026 0.985 . S
C1040 C1041 1.363 . S
C1040 C1046 1.379 1_565 S
C1040 N1048 1.356 . S
C1041 C1040 1.363 . S
C1041 C1047 1.363 . S
C1042 C1043 1.363 . S
C1042 C1047 1.379 1_545 S
C1042 N1049 1.356 . S
C1043 C1042 1.363 . S
C1043 C1046 1.363 . S
N1044 C1046 1.356 . S
N1044 H1056 0.984 . S
N1044 H1057 0.985 . S
N1045 C1047 1.356 . S
N1045 H1050 0.984 . S
N1045 H1051 0.985 . S
C1046 C1040 1.379 1_545 S
C1046 C1043 1.363 . S
C1046 N1044 1.356 . S
C1047 C1041 1.363 . S
C1047 C1042 1.379 1_565 S
C1047 N1045 1.356 . S
N1048 C1040 1.356 . S
N1048 H1054 0.984 . S
N1048 H1055 0.984 . S
N1049 C1042 1.356 . S
N1049 H1052 0.984 . S
N1049 H1053 0.985 . S
H1050 N1045 0.984 . S
H1051 N1045 0.985 . S
H1052 N1049 0.984 . S
H1053 N1049 0.985 . S
H1054 N1048 0.984 . S
H1055 N1048 0.984 . S
H1056 N1044 0.984 . S
H1057 N1044 0.985 . S
C1058 C1059 1.363 . S
C1058 C1064 1.379 . S
C1058 N1066 1.356 . S
C1059 C1058 1.363 . S
C1059 C1065 1.363 . S
C1060 C1061 1.363 . S
C1060 C1065 1.379 . S
C1060 N1067 1.356 . S
C1061 C1060 1.363 . S
C1061 C1064 1.363 . S
N1062 C1064 1.356 . S
N1062 H1074 0.984 1_556 S
N1062 H1075 0.985 . S
N1063 C1065 1.356 . S
N1063 H1068 0.984 . S
N1063 H1069 0.985 . S
C1064 C1058 1.379 . S
C1064 C1061 1.363 . S
C1064 N1062 1.356 . S
C1065 C1059 1.363 . S
C1065 C1060 1.379 . S
C1065 N1063 1.356 . S
N1066 C1058 1.356 . S
N1066 H1072 0.984 1_556 S
N1066 H1073 0.984 . S
N1067 C1060 1.356 . S
N1067 H1070 0.984 . S
N1067 H1071 0.985 . S
H1068 N1063 0.984 . S
H1069 N1063 0.985 . S
H1070 N1067 0.984 . S
H1071 N1067 0.985 . S
H1072 N1066 0.984 1_554 S
H1073 N1066 0.984 . S
H1074 N1062 0.984 1_554 S
H1075 N1062 0.985 . S
C1076 C1077 1.363 . S
C1076 C1082 1.379 1_565 S
C1076 N1084 1.356 . S
C1077 C1076 1.363 . S
C1077 C1083 1.363 1_554 S
C1078 C1079 1.363 1_566 S
C1078 C1083 1.379 . S
C1078 N1085 1.356 1_565 S
C1079 C1078 1.363 1_544 S
C1079 C1082 1.363 . S
N1080 C1082 1.356 . S
N1080 H1092 0.984 . S
N1080 H1093 0.985 . S
N1081 C1083 1.356 . S
N1081 H1086 0.984 . S
N1081 H1087 0.985 . S
C1082 C1076 1.379 1_545 S
C1082 C1079 1.363 . S
C1082 N1080 1.356 . S
C1083 C1077 1.363 1_556 S
C1083 C1078 1.379 . S
C1083 N1081 1.356 . S
N1084 C1076 1.356 . S
N1084 H1090 0.984 . S
N1084 H1091 0.984 . S
N1085 C1078 1.356 1_545 S
N1085 H1088 0.984 . S
N1085 H1089 0.985 . S
H1086 N1081 0.984 . S
H1087 N1081 0.985 . S
H1088 N1085 0.984 . S
H1089 N1085 0.985 . S
H1090 N1084 0.984 . S
H1091 N1084 0.984 . S
H1092 N1080 0.984 . S
H1093 N1080 0.985 . S
C1094 C1095 1.363 . S
C1094 C1100 1.379 . S
C1094 N1102 1.356 . S
C1095 C1094 1.363 . S
C1095 C1101 1.363 . S
C1096 C1097 1.363 . S
C1096 C1101 1.379 . S
C1096 N1103 1.356 . S
C1097 C1096 1.363 . S
C1097 C1100 1.363 . S
N1098 C1100 1.356 . S
N1098 H1110 0.984 . S
N1098 H1111 0.985 . S
N1099 C1101 1.356 . S
N1099 H1104 0.984 . S
N1099 H1105 0.985 . S
C1100 C1094 1.379 . S
C1100 C1097 1.363 . S
C1100 N1098 1.356 . S
C1101 C1095 1.363 . S
C1101 C1096 1.379 . S
C1101 N1099 1.356 . S
N1102 C1094 1.356 . S
N1102 H1108 0.984 . S
N1102 H1109 0.984 . S
N1103 C1096 1.356 . S
N1103 H1106 0.984 . S
N1103 H1107 0.985 . S
H1104 N1099 0.984 . S
H1105 N1099 0.985 . S
H1106 N1103 0.984 . S
H1107 N1103 0.985 . S
H1108 N1102 0.984 . S
H1109 N1102 0.984 . S
H1110 N1098 0.984 . S
H1111 N1098 0.985 . S
C1112 C1113 1.363 1_545 S
C1112 C1118 1.379 . S
C1112 N1120 1.356 1_545 S
C1113 C1112 1.363 1_565 S
C1113 C1119 1.363 1_565 S
C1114 C1115 1.363 . S
C1114 C1119 1.379 . S
C1114 N1121 1.356 . S
C1115 C1114 1.363 . S
C1115 C1118 1.363 . S
N1116 C1118 1.356 . S
N1116 H1128 0.984 . S
N1116 H1129 0.985 . S
N1117 C1119 1.356 1_565 S
N1117 H1122 0.984 . S
N1117 H1123 0.985 . S
C1118 C1112 1.379 . S
C1118 C1115 1.363 . S
C1118 N1116 1.356 . S
C1119 C1113 1.363 1_545 S
C1119 C1114 1.379 . S
C1119 N1117 1.356 1_545 S
N1120 C1112 1.356 1_565 S
N1120 H1126 0.984 . S
N1120 H1127 0.984 . S
N1121 C1114 1.356 . S
N1121 H1124 0.984 . S
N1121 H1125 0.985 . S
H1122 N1117 0.984 . S
H1123 N1117 0.985 . S
H1124 N1121 0.984 . S
H1125 N1121 0.985 . S
H1126 N1120 0.984 . S
H1127 N1120 0.984 . S
H1128 N1116 0.984 . S
H1129 N1116 0.985 . S
C1130 C1131 1.363 . S
C1130 C1136 1.379 . S
C1130 N1138 1.356 . S
C1131 C1130 1.363 . S
C1131 C1137 1.363 . S
C1132 C1133 1.363 . S
C1132 C1137 1.379 . S
C1132 N1139 1.356 . S
C1133 C1132 1.363 . S
C1133 C1136 1.363 . S
N1134 C1136 1.356 . S
N1134 H1146 0.984 . S
N1134 H1147 0.985 . S
N1135 C1137 1.356 . S
N1135 H1140 0.984 . S
N1135 H1141 0.985 . S
C1136 C1130 1.379 . S
C1136 C1133 1.363 . S
C1136 N1134 1.356 . S
C1137 C1131 1.363 . S
C1137 C1132 1.379 . S
C1137 N1135 1.356 . S
N1138 C1130 1.356 . S
N1138 H1144 0.984 . S
N1138 H1145 0.984 . S
N1139 C1132 1.356 . S
N1139 H1142 0.984 . S
N1139 H1143 0.985 . S
H1140 N1135 0.984 . S
H1141 N1135 0.985 . S
H1142 N1139 0.984 . S
H1143 N1139 0.985 . S
H1144 N1138 0.984 . S
H1145 N1138 0.984 . S
H1146 N1134 0.984 . S
H1147 N1134 0.985 . S
C1148 C1149 1.363 . S
C1148 C1154 1.379 1_545 S
C1148 N1156 1.356 . S
C1149 C1148 1.363 . S
C1149 C1155 1.363 1_554 S
C1150 C1151 1.363 1_556 S
C1150 C1155 1.379 1_565 S
C1150 N1157 1.356 . S
C1151 C1150 1.363 1_554 S
C1151 C1154 1.363 . S
N1152 C1154 1.356 . S
N1152 H1164 0.984 . S
N1152 H1165 0.985 . S
N1153 C1155 1.356 . S
N1153 H1158 0.984 . S
N1153 H1159 0.985 . S
C1154 C1148 1.379 1_565 S
C1154 C1151 1.363 . S
C1154 N1152 1.356 . S
C1155 C1149 1.363 1_556 S
C1155 C1150 1.379 1_545 S
C1155 N1153 1.356 . S
N1156 C1148 1.356 . S
N1156 H1162 0.984 . S
N1156 H1163 0.984 . S
N1157 C1150 1.356 . S
N1157 H1160 0.984 . S
N1157 H1161 0.985 . S
H1158 N1153 0.984 . S
H1159 N1153 0.985 . S
H1160 N1157 0.984 . S
H1161 N1157 0.985 . S
H1162 N1156 0.984 . S
H1163 N1156 0.984 . S
H1164 N1152 0.984 . S
H1165 N1152 0.985 . S
C1166 C1167 1.363 . S
C1166 C1172 1.379 . S
C1166 N1174 1.356 . S
C1167 C1166 1.363 . S
C1167 C1173 1.363 . S
C1168 C1169 1.363 . S
C1168 C1173 1.379 . S
C1168 N1175 1.356 . S
C1169 C1168 1.363 . S
C1169 C1172 1.363 . S
N1170 C1172 1.356 . S
N1170 H1182 0.984 . S
N1170 H1183 0.985 . S
N1171 C1173 1.356 . S
N1171 H1176 0.984 . S
N1171 H1177 0.985 . S
C1172 C1166 1.379 . S
C1172 C1169 1.363 . S
C1172 N1170 1.356 . S
C1173 C1167 1.363 . S
C1173 C1168 1.379 . S
C1173 N1171 1.356 . S
N1174 C1166 1.356 . S
N1174 H1180 0.984 . S
N1174 H1181 0.984 . S
N1175 C1168 1.356 . S
N1175 H1178 0.984 . S
N1175 H1179 0.985 . S
H1176 N1171 0.984 . S
H1177 N1171 0.985 . S
H1178 N1175 0.984 . S
H1179 N1175 0.985 . S
H1180 N1174 0.984 . S
H1181 N1174 0.984 . S
H1182 N1170 0.984 . S
H1183 N1170 0.985 . S
C321 C8 1.687 . S
C323 C19 1.687 . S
C339 C39 1.659 . S
C341 C28 1.659 . S
C357 C48 1.635 . S
C359 C59 1.635 . S
C375 C68 1.661 . S
C377 C79 1.661 . S
C393 C88 1.661 . S
C395 C99 1.661 . S
C411 C108 1.649 . S
C413 C119 1.649 . S
C429 C139 1.663 . S
C431 C128 1.663 . S
C447 C159 1.720 1_554 S
C449 C148 1.720 . S
C465 C179 1.700 . S
C467 C168 1.700 . S
C483 C199 1.663 . S
C485 C188 1.663 1_554 S
C501 C208 1.636 . S
C503 C219 1.636 . S
C519 C239 1.660 . S
C521 C228 1.660 . S
C537 C259 1.662 . S
C539 C248 1.662 . S
C555 C279 1.652 . S
C557 C268 1.652 . S
C573 C288 1.661 . S
C575 C299 1.661 . S
C591 C319 1.712 . S
C593 C308 1.712 . S
C609 C1 1.612 . S
C611 C226 1.454 . S
C627 C36 1.782 . S
C629 C309 1.937 . S
C645 C41 1.625 . S
C647 C189 1.556 . S
C663 C61 1.936 . S
C665 C269 1.997 . S
C681 C81 1.603 . S
C683 C266 1.438 . S
C699 C229 1.934 . S
C701 C116 1.760 . S
C717 C136 1.452 . S
C719 C306 1.366 . S
C735 C156 1.668 . S
C737 C186 1.764 . S
C753 C76 1.703 . S
C755 C169 1.786 . S
C771 C21 1.881 . S
C773 C209 1.885 . S
C789 C249 1.788 . S
C791 C101 1.764 . S
C807 C141 1.621 . S
C809 C286 1.588 . S
C825 C166 1.492 . S
C827 C96 1.486 . S
C843 C121 1.581 . S
C845 C206 1.499 . S
C861 C56 1.616 . S
C863 C289 1.665 . S
C879 C16 1.640 . S
C881 C246 1.584 . S
C897 C9 1.320 . S
C899 C89 1.319 1_554 S
C915 C26 1.629 . S
C917 C106 1.629 . S
C933 C49 1.371 . S
C935 C126 1.333 . S
C951 C69 1.697 . S
C953 C146 1.640 . S
C969 C241 1.658 . S
C971 C161 1.666 . S
C987 C261 1.718 . S
C989 C196 1.672 . S
C1005 C201 1.681 . S
C1007 C296 1.615 . S
C1023 C301 1.720 . S
C1025 C221 1.709 . S
C1041 C29 1.707 . S
C1043 C149 1.721 . S
C1059 C86 1.367 . S
C1061 C46 1.355 . S
C1077 C109 1.734 . S
C1079 C66 1.676 . S
C1095 C6 1.336 . S
C1097 C129 1.398 . S
C1113 C316 1.343 . S
C1115 C181 1.407 . S
C1131 C256 1.420 . S
C1133 C216 1.412 . S
C1149 C276 1.368 1_554 S
C1151 C236 1.372 . S
C1167 C281 1.437 . S
C1169 C176 1.392 . S
