# Generated by pormake.
# Topology deh, (3)-cn, num edge types: 1
# Building blocks:
#     Node 0, Type 0, BuildingBlock: OLANEW_clean_sbu_2, # of connection points: 3
#     Node 1, Type 0, BuildingBlock: OLANEW_clean_sbu_2, # of connection points: 3
#     Node 2, Type 0, BuildingBlock: OLANEW_clean_sbu_2, # of connection points: 3
#     Node 3, Type 0, BuildingBlock: OLANEW_clean_sbu_2, # of connection points: 3
#     Node 4, Type 0, BuildingBlock: OLANEW_clean_sbu_2, # of connection points: 3
#     Node 5, Type 0, BuildingBlock: OLANEW_clean_sbu_2, # of connection points: 3
#     Node 6, Type 0, BuildingBlock: OLANEW_clean_sbu_2, # of connection points: 3
#     Node 7, Type 0, BuildingBlock: OLANEW_clean_sbu_2, # of connection points: 3
#     Node 8, Type 0, BuildingBlock: OLANEW_clean_sbu_2, # of connection points: 3
#     Node 9, Type 0, BuildingBlock: OLANEW_clean_sbu_2, # of connection points: 3
#     Node 10, Type 0, BuildingBlock: OLANEW_clean_sbu_2, # of connection points: 3
#     Node 11, Type 0, BuildingBlock: OLANEW_clean_sbu_2, # of connection points: 3
#     Node 12, Type 0, BuildingBlock: OLANEW_clean_sbu_2, # of connection points: 3
#     Node 13, Type 0, BuildingBlock: OLANEW_clean_sbu_2, # of connection points: 3
#     Node 14, Type 0, BuildingBlock: OLANEW_clean_sbu_2, # of connection points: 3
#     Node 15, Type 0, BuildingBlock: OLANEW_clean_sbu_2, # of connection points: 3
#     Node 16, Type 0, BuildingBlock: OLANEW_clean_sbu_2, # of connection points: 3
#     Node 17, Type 0, BuildingBlock: OLANEW_clean_sbu_2, # of connection points: 3
#     Node 18, Type 0, BuildingBlock: OLANEW_clean_sbu_2, # of connection points: 3
#     Node 19, Type 0, BuildingBlock: OLANEW_clean_sbu_2, # of connection points: 3
#     Node 20, Type 0, BuildingBlock: OLANEW_clean_sbu_2, # of connection points: 3
#     Node 21, Type 0, BuildingBlock: OLANEW_clean_sbu_2, # of connection points: 3
#     Node 22, Type 0, BuildingBlock: OLANEW_clean_sbu_2, # of connection points: 3
#     Node 23, Type 0, BuildingBlock: OLANEW_clean_sbu_2, # of connection points: 3
#     Node 24, Type 0, BuildingBlock: OLANEW_clean_sbu_2, # of connection points: 3
#     Node 25, Type 0, BuildingBlock: OLANEW_clean_sbu_2, # of connection points: 3
#     Node 26, Type 0, BuildingBlock: OLANEW_clean_sbu_2, # of connection points: 3
#     Node 27, Type 0, BuildingBlock: OLANEW_clean_sbu_2, # of connection points: 3
#     Node 28, Type 0, BuildingBlock: OLANEW_clean_sbu_2, # of connection points: 3
#     Node 29, Type 0, BuildingBlock: OLANEW_clean_sbu_2, # of connection points: 3
#     Node 30, Type 0, BuildingBlock: OLANEW_clean_sbu_2, # of connection points: 3
#     Node 31, Type 0, BuildingBlock: OLANEW_clean_sbu_2, # of connection points: 3
#     Edge 32, Type (0, 0), BuildingBlock: UVAHIK_clean_linker_0, # of connection points: 2
#     Edge 33, Type (0, 0), BuildingBlock: UVAHIK_clean_linker_0, # of connection points: 2
#     Edge 34, Type (0, 0), BuildingBlock: UVAHIK_clean_linker_0, # of connection points: 2
#     Edge 35, Type (0, 0), BuildingBlock: UVAHIK_clean_linker_0, # of connection points: 2
#     Edge 36, Type (0, 0), BuildingBlock: UVAHIK_clean_linker_0, # of connection points: 2
#     Edge 37, Type (0, 0), BuildingBlock: UVAHIK_clean_linker_0, # of connection points: 2
#     Edge 38, Type (0, 0), BuildingBlock: UVAHIK_clean_linker_0, # of connection points: 2
#     Edge 39, Type (0, 0), BuildingBlock: UVAHIK_clean_linker_0, # of connection points: 2
#     Edge 40, Type (0, 0), BuildingBlock: UVAHIK_clean_linker_0, # of connection points: 2
#     Edge 41, Type (0, 0), BuildingBlock: UVAHIK_clean_linker_0, # of connection points: 2
#     Edge 42, Type (0, 0), BuildingBlock: UVAHIK_clean_linker_0, # of connection points: 2
#     Edge 43, Type (0, 0), BuildingBlock: UVAHIK_clean_linker_0, # of connection points: 2
#     Edge 44, Type (0, 0), BuildingBlock: UVAHIK_clean_linker_0, # of connection points: 2
#     Edge 45, Type (0, 0), BuildingBlock: UVAHIK_clean_linker_0, # of connection points: 2
#     Edge 46, Type (0, 0), BuildingBlock: UVAHIK_clean_linker_0, # of connection points: 2
#     Edge 47, Type (0, 0), BuildingBlock: UVAHIK_clean_linker_0, # of connection points: 2
#     Edge 48, Type (0, 0), BuildingBlock: UVAHIK_clean_linker_0, # of connection points: 2
#     Edge 49, Type (0, 0), BuildingBlock: UVAHIK_clean_linker_0, # of connection points: 2
#     Edge 50, Type (0, 0), BuildingBlock: UVAHIK_clean_linker_0, # of connection points: 2
#     Edge 51, Type (0, 0), BuildingBlock: UVAHIK_clean_linker_0, # of connection points: 2
#     Edge 52, Type (0, 0), BuildingBlock: UVAHIK_clean_linker_0, # of connection points: 2
#     Edge 53, Type (0, 0), BuildingBlock: UVAHIK_clean_linker_0, # of connection points: 2
#     Edge 54, Type (0, 0), BuildingBlock: UVAHIK_clean_linker_0, # of connection points: 2
#     Edge 55, Type (0, 0), BuildingBlock: UVAHIK_clean_linker_0, # of connection points: 2
#     Edge 56, Type (0, 0), BuildingBlock: UVAHIK_clean_linker_0, # of connection points: 2
#     Edge 57, Type (0, 0), BuildingBlock: UVAHIK_clean_linker_0, # of connection points: 2
#     Edge 58, Type (0, 0), BuildingBlock: UVAHIK_clean_linker_0, # of connection points: 2
#     Edge 59, Type (0, 0), BuildingBlock: UVAHIK_clean_linker_0, # of connection points: 2
#     Edge 60, Type (0, 0), BuildingBlock: UVAHIK_clean_linker_0, # of connection points: 2
#     Edge 61, Type (0, 0), BuildingBlock: UVAHIK_clean_linker_0, # of connection points: 2
#     Edge 62, Type (0, 0), BuildingBlock: UVAHIK_clean_linker_0, # of connection points: 2
#     Edge 63, Type (0, 0), BuildingBlock: UVAHIK_clean_linker_0, # of connection points: 2
#     Edge 64, Type (0, 0), BuildingBlock: UVAHIK_clean_linker_0, # of connection points: 2
#     Edge 65, Type (0, 0), BuildingBlock: UVAHIK_clean_linker_0, # of connection points: 2
#     Edge 66, Type (0, 0), BuildingBlock: UVAHIK_clean_linker_0, # of connection points: 2
#     Edge 67, Type (0, 0), BuildingBlock: UVAHIK_clean_linker_0, # of connection points: 2
#     Edge 68, Type (0, 0), BuildingBlock: UVAHIK_clean_linker_0, # of connection points: 2
#     Edge 69, Type (0, 0), BuildingBlock: UVAHIK_clean_linker_0, # of connection points: 2
#     Edge 70, Type (0, 0), BuildingBlock: UVAHIK_clean_linker_0, # of connection points: 2
#     Edge 71, Type (0, 0), BuildingBlock: UVAHIK_clean_linker_0, # of connection points: 2
#     Edge 72, Type (0, 0), BuildingBlock: UVAHIK_clean_linker_0, # of connection points: 2
#     Edge 73, Type (0, 0), BuildingBlock: UVAHIK_clean_linker_0, # of connection points: 2
#     Edge 74, Type (0, 0), BuildingBlock: UVAHIK_clean_linker_0, # of connection points: 2
#     Edge 75, Type (0, 0), BuildingBlock: UVAHIK_clean_linker_0, # of connection points: 2
#     Edge 76, Type (0, 0), BuildingBlock: UVAHIK_clean_linker_0, # of connection points: 2
#     Edge 77, Type (0, 0), BuildingBlock: UVAHIK_clean_linker_0, # of connection points: 2
#     Edge 78, Type (0, 0), BuildingBlock: UVAHIK_clean_linker_0, # of connection points: 2
#     Edge 79, Type (0, 0), BuildingBlock: UVAHIK_clean_linker_0, # of connection points: 2
# Relax obj value: 0.000
# Max RMSD: 0.054
# Mean RMSD: 0.054
data_MOF--net-deh--node1-OLANEW_clean_sbu_2--edge1-UVAHIK_clean_linker_0
_symmetry_space_group_name_H-M    P1
_symmetry_Int_Tables_number       1
_symmetry_cell_setting            triclinic
loop_
_symmetry_equiv_pos_as_xyz
'x, y, z'
_cell_length_a     77.5036
_cell_length_b     77.33037
_cell_length_c     132.62763
_cell_angle_alpha  89.866836
_cell_angle_beta   89.941659
_cell_angle_gamma 89.828768
loop_
_atom_site_label
_atom_site_type_symbol
_atom_site_fract_x
_atom_site_fract_y
_atom_site_fract_z
_atom_type_partial_charge
O0 O 0.15513 0.06362 0.30081 0.0
Cd1 Cd 0.1437 0.06434 0.28363 0.0
O2 O 0.13743 0.04301 0.30563 0.0
Cd3 Cd 0.12143 0.044 0.29212 0.0
O4 O 0.09486 0.04808 0.2872 0.0
C5 C 0.0866 0.05942 0.2922 0.0
O6 O 0.09482 0.06811 0.2992 0.0
C7 C 0.14991 0.0531 0.30754 0.0
C8 C 0.17014 0.06457 0.26931 0.0
O9 O 0.16392 0.07873 0.27279 0.0
O10 O 0.16383 0.05032 0.27258 0.0
O11 O 0.16914 0.89357 0.54457 0.0
Cd12 Cd 0.16522 0.88421 0.52712 0.0
O13 O 0.18984 0.87473 0.54757 0.0
Cd14 Cd 0.18659 0.86071 0.53342 0.0
O15 O 0.18213 0.83667 0.52521 0.0
C16 C 0.16741 0.82958 0.52602 0.0
O17 O 0.15526 0.83761 0.53112 0.0
C18 C 0.18047 0.8873 0.55048 0.0
C19 C 0.16365 0.9125 0.51403 0.0
O20 O 0.14991 0.90617 0.51793 0.0
O21 O 0.17811 0.90539 0.51629 0.0
O22 O 0.32271 0.91629 0.79892 0.0
Cd23 Cd 0.33439 0.91566 0.78177 0.0
O24 O 0.34018 0.93701 0.8038 0.0
Cd25 Cd 0.35573 0.93687 0.79006 0.0
O26 O 0.38089 0.93405 0.7828 0.0
C27 C 0.38729 0.91896 0.78199 0.0
O28 O 0.37795 0.90564 0.78481 0.0
C29 C 0.3278 0.92673 0.80568 0.0
C30 C 0.30821 0.91387 0.76736 0.0
O31 O 0.31503 0.9001 0.77102 0.0
O32 O 0.31381 0.92847 0.77051 0.0
O33 O 0.31252 0.07673 0.04775 0.0
Cd34 Cd 0.31835 0.08637 0.0305 0.0
O35 O 0.29332 0.09701 0.05094 0.0
Cd36 Cd 0.29698 0.11084 0.03672 0.0
O37 O 0.30096 0.13474 0.02821 0.0
C38 C 0.31543 0.14231 0.02903 0.0
O39 O 0.32767 0.13483 0.03434 0.0
C40 C 0.30173 0.08369 0.05374 0.0
C41 C 0.31728 0.05893 0.01687 0.0
O42 O 0.33093 0.06211 0.02198 0.0
O43 O 0.30411 0.06874 0.01818 0.0
O44 O 0.15862 0.90792 0.66137 0.0
Cd45 Cd 0.14674 0.90583 0.67842 0.0
O46 O 0.13735 0.92445 0.65599 0.0
Cd47 Cd 0.12115 0.92223 0.6694 0.0
O48 O 0.09479 0.91899 0.6749 0.0
C49 C 0.08502 0.93218 0.67541 0.0
O50 O 0.09154 0.94749 0.67342 0.0
C51 C 0.15166 0.91684 0.65439 0.0
C52 C 0.17267 0.90676 0.69303 0.0
O53 O 0.16757 0.89237 0.68931 0.0
O54 O 0.16548 0.92069 0.68985 0.0
O55 O 0.31116 0.89977 0.91571 0.0
Cd56 Cd 0.31748 0.89014 0.9329 0.0
O57 O 0.29391 0.87804 0.91223 0.0
Cd58 Cd 0.29807 0.86415 0.92639 0.0
O59 O 0.30225 0.84013 0.93478 0.0
C60 C 0.31664 0.83241 0.93373 0.0
O61 O 0.32871 0.83979 0.92827 0.0
C62 C 0.30117 0.89206 0.9096 0.0
C63 C 0.31665 0.91761 0.94653 0.0
O64 O 0.33018 0.9144 0.94129 0.0
O65 O 0.30349 0.90782 0.94536 0.0
O66 O 0.32344 0.06294 0.16474 0.0
Cd67 Cd 0.33463 0.06446 0.18196 0.0
O68 O 0.34332 0.04439 0.15987 0.0
Cd69 Cd 0.35828 0.04557 0.1738 0.0
O70 O 0.38253 0.04908 0.18194 0.0
C71 C 0.39173 0.06179 0.17914 0.0
O72 O 0.38568 0.07222 0.17214 0.0
C73 C 0.32989 0.0533 0.15795 0.0
C74 C 0.30806 0.06466 0.19619 0.0
O75 O 0.31396 0.07881 0.19253 0.0
O76 O 0.31475 0.05043 0.19314 0.0
O77 O 0.16281 0.0809 0.41785 0.0
Cd78 Cd 0.15884 0.08986 0.43537 0.0
O79 O 0.1802 0.10253 0.41432 0.0
Cd80 Cd 0.17673 0.11623 0.42857 0.0
O81 O 0.17366 0.14039 0.43691 0.0
C82 C 0.18641 0.15068 0.43703 0.0
O83 O 0.20095 0.14576 0.43279 0.0
C84 C 0.1726 0.08873 0.41165 0.0
C85 C 0.15903 0.06135 0.44833 0.0
O86 O 0.14488 0.06711 0.4446 0.0
O87 O 0.17305 0.06913 0.44598 0.0
O88 O 0.80974 0.90423 0.66677 0.0
Cd89 Cd 0.81088 0.90047 0.68511 0.0
O90 O 0.83774 0.90509 0.66826 0.0
Cd91 Cd 0.86517 0.90524 0.66429 0.0
O92 O 0.89333 0.90576 0.66512 0.0
C93 C 0.90081 0.91993 0.66716 0.0
O94 O 0.89141 0.93395 0.66835 0.0
C95 C 0.82447 0.90558 0.66262 0.0
C96 C 0.78018 0.9055 0.69573 0.0
O97 O 0.79043 0.91813 0.69394 0.0
O98 O 0.78422 0.89058 0.69223 0.0
O99 O 0.82387 0.07837 0.41322 0.0
Cd100 Cd 0.82134 0.08633 0.43106 0.0
O101 O 0.84032 0.10084 0.4099 0.0
Cd102 Cd 0.83768 0.11361 0.42451 0.0
O103 O 0.83355 0.13757 0.43293 0.0
C104 C 0.81867 0.14451 0.43257 0.0
O105 O 0.80625 0.13636 0.42782 0.0
C106 C 0.83291 0.08706 0.40701 0.0
C107 C 0.82207 0.05819 0.44438 0.0
O108 O 0.80779 0.06388 0.44079 0.0
O109 O 0.83603 0.06565 0.44158 0.0
O110 O 0.62841 0.05516 0.16221 0.0
Cd111 Cd 0.61641 0.05145 0.17917 0.0
O112 O 0.62295 0.08308 0.16193 0.0
Cd113 Cd 0.60746 0.08206 0.17568 0.0
O114 O 0.58274 0.07905 0.18342 0.0
C115 C 0.57334 0.0667 0.18036 0.0
O116 O 0.57945 0.05637 0.17335 0.0
C117 C 0.62935 0.06972 0.15776 0.0
C118 C 0.64176 0.05226 0.19411 0.0
O119 O 0.63715 0.03797 0.19006 0.0
O120 O 0.63439 0.0662 0.19108 0.0
O121 O 0.65459 0.89213 0.91745 0.0
Cd122 Cd 0.65306 0.8835 0.93521 0.0
O123 O 0.67502 0.87325 0.91394 0.0
Cd124 Cd 0.67391 0.85959 0.92837 0.0
O125 O 0.67236 0.83499 0.93649 0.0
C126 C 0.65876 0.82604 0.9354 0.0
O127 O 0.64594 0.83254 0.93012 0.0
C128 C 0.6652 0.8856 0.9112 0.0
C129 C 0.65475 0.91178 0.94828 0.0
O130 O 0.66847 0.90389 0.94541 0.0
O131 O 0.64024 0.90633 0.94495 0.0
O132 O 0.80959 0.05845 0.29575 0.0
Cd133 Cd 0.81069 0.05636 0.27732 0.0
O134 O 0.83693 0.06405 0.2937 0.0
Cd135 Cd 0.86409 0.06861 0.29729 0.0
O136 O 0.89208 0.07137 0.29626 0.0
C137 C 0.90188 0.05942 0.29953 0.0
O138 O 0.89493 0.0458 0.30385 0.0
C139 C 0.82415 0.06202 0.29961 0.0
C140 C 0.77937 0.05589 0.26697 0.0
O141 O 0.78648 0.04184 0.27003 0.0
O142 O 0.7868 0.07021 0.2691 0.0
O143 O 0.66311 0.08124 0.0459 0.0
Cd144 Cd 0.66471 0.08734 0.02778 0.0
O145 O 0.66059 0.10892 0.04949 0.0
Cd146 Cd 0.66179 0.11982 0.03429 0.0
O147 O 0.66257 0.14384 0.02557 0.0
C148 C 0.64943 0.15369 0.02604 0.0
O149 O 0.63575 0.1483 0.03099 0.0
C150 C 0.66144 0.09325 0.05237 0.0
C151 C 0.66304 0.05772 0.01576 0.0
O152 O 0.67754 0.06347 0.01894 0.0
O153 O 0.64932 0.06588 0.01834 0.0
O154 O 0.63409 0.92739 0.80176 0.0
Cd155 Cd 0.62182 0.93279 0.78503 0.0
O156 O 0.62352 0.90106 0.80251 0.0
Cd157 Cd 0.60764 0.90403 0.78903 0.0
O158 O 0.58155 0.90628 0.78294 0.0
C159 C 0.57017 0.90861 0.78972 0.0
O160 O 0.57521 0.90972 0.79916 0.0
C161 C 0.63253 0.91305 0.80638 0.0
C162 C 0.64594 0.92797 0.76962 0.0
O163 O 0.64393 0.94276 0.77381 0.0
O164 O 0.63655 0.91542 0.77274 0.0
O165 O 0.82697 0.89929 0.54869 0.0
Cd166 Cd 0.82472 0.89138 0.53084 0.0
O167 O 0.83887 0.87428 0.55262 0.0
Cd168 Cd 0.83624 0.86159 0.53799 0.0
O169 O 0.8322 0.83745 0.52975 0.0
C170 C 0.81737 0.8305 0.53026 0.0
O171 O 0.80496 0.83874 0.53502 0.0
C172 C 0.8337 0.88925 0.55522 0.0
C173 C 0.82448 0.91965 0.5176 0.0
O174 O 0.8104 0.91351 0.52119 0.0
O175 O 0.83869 0.91257 0.52037 0.0
O176 O 0.64742 0.55942 0.79732 0.0
Cd177 Cd 0.63765 0.56003 0.77978 0.0
O178 O 0.62439 0.54557 0.80271 0.0
Cd179 Cd 0.61009 0.54639 0.78851 0.0
O180 O 0.58587 0.54883 0.78016 0.0
C181 C 0.57821 0.56338 0.78024 0.0
O182 O 0.58572 0.57651 0.78471 0.0
C183 C 0.63905 0.55226 0.80445 0.0
C184 C 0.66531 0.5602 0.76622 0.0
O185 O 0.65883 0.57437 0.76953 0.0
O186 O 0.65871 0.54597 0.76932 0.0
O187 O 0.66326 0.39893 0.04852 0.0
Cd188 Cd 0.66146 0.38925 0.03098 0.0
O189 O 0.6833 0.37985 0.05241 0.0
Cd190 Cd 0.682 0.36592 0.03811 0.0
O191 O 0.67899 0.34233 0.02924 0.0
C192 C 0.66439 0.33489 0.02935 0.0
O193 O 0.65155 0.34229 0.03419 0.0
C194 C 0.67371 0.39251 0.05491 0.0
C195 C 0.66116 0.41684 0.01734 0.0
O196 O 0.64707 0.41071 0.02093 0.0
O197 O 0.67538 0.40995 0.02023 0.0
O198 O 0.82628 0.41542 0.29839 0.0
Cd199 Cd 0.83618 0.41525 0.28086 0.0
O200 O 0.84604 0.43401 0.30321 0.0
Cd201 Cd 0.86029 0.4339 0.28898 0.0
O202 O 0.88491 0.43101 0.28109 0.0
C203 C 0.89196 0.41615 0.28119 0.0
O204 O 0.88353 0.40318 0.28528 0.0
C205 C 0.83297 0.42473 0.30524 0.0
C206 C 0.80864 0.41475 0.26729 0.0
O207 O 0.81537 0.40066 0.27057 0.0
O208 O 0.81494 0.42907 0.27043 0.0
O209 O 0.81612 0.57826 0.54751 0.0
Cd210 Cd 0.8182 0.58779 0.52993 0.0
O211 O 0.79856 0.59945 0.55176 0.0
Cd212 Cd 0.80077 0.61397 0.53765 0.0
O213 O 0.80399 0.6386 0.52972 0.0
C214 C 0.79171 0.6495 0.5302 0.0
O215 O 0.77737 0.64501 0.5348 0.0
C216 C 0.8067 0.5857 0.55406 0.0
C217 C 0.81837 0.55992 0.51652 0.0
O218 O 0.83248 0.56601 0.52006 0.0
O219 O 0.80418 0.56701 0.51933 0.0
O220 O 0.6489 0.4147 0.16621 0.0
Cd221 Cd 0.63874 0.41356 0.18367 0.0
O222 O 0.62647 0.42975 0.161 0.0
Cd223 Cd 0.61173 0.42844 0.17504 0.0
O224 O 0.58623 0.42545 0.18191 0.0
C225 C 0.57672 0.4141 0.17781 0.0
O226 O 0.58323 0.40472 0.17047 0.0
C227 C 0.64094 0.4226 0.15919 0.0
C228 C 0.6662 0.41353 0.19732 0.0
O229 O 0.66005 0.39933 0.1939 0.0
O230 O 0.65934 0.42772 0.1943 0.0
O231 O 0.81497 0.39742 0.41634 0.0
Cd232 Cd 0.81733 0.3882 0.43396 0.0
O233 O 0.79906 0.37507 0.41208 0.0
Cd234 Cd 0.8015 0.36091 0.4263 0.0
O235 O 0.80475 0.33627 0.43424 0.0
C236 C 0.79247 0.32545 0.43375 0.0
O237 O 0.77814 0.33003 0.42917 0.0
C238 C 0.80629 0.38928 0.40976 0.0
C239 C 0.81774 0.41628 0.44721 0.0
O240 O 0.83179 0.41004 0.44362 0.0
O241 O 0.80351 0.40926 0.44453 0.0
O242 O 0.82696 0.55924 0.66552 0.0
Cd243 Cd 0.83637 0.55973 0.68313 0.0
O244 O 0.85011 0.54532 0.66031 0.0
Cd245 Cd 0.86415 0.5462 0.67459 0.0
O246 O 0.88826 0.54916 0.68297 0.0
C247 C 0.89581 0.56371 0.6825 0.0
O248 O 0.88825 0.57646 0.67764 0.0
C249 C 0.83547 0.55207 0.65846 0.0
C250 C 0.80845 0.55998 0.69651 0.0
O251 O 0.81498 0.57412 0.69322 0.0
O252 O 0.81511 0.54572 0.69346 0.0
O253 O 0.66174 0.57684 0.91522 0.0
Cd254 Cd 0.66029 0.58632 0.9328 0.0
O255 O 0.68042 0.59698 0.911 0.0
Cd256 Cd 0.67913 0.61104 0.92527 0.0
O257 O 0.67676 0.63513 0.93377 0.0
C258 C 0.66275 0.64362 0.93296 0.0
O259 O 0.65008 0.63698 0.92767 0.0
C260 C 0.6715 0.58381 0.90866 0.0
C261 C 0.6603 0.5585 0.9463 0.0
O262 O 0.64614 0.56475 0.94287 0.0
O263 O 0.67446 0.56539 0.94334 0.0
O264 O 0.32997 0.42147 0.16615 0.0
Cd265 Cd 0.33905 0.42542 0.18368 0.0
O266 O 0.34358 0.39655 0.16498 0.0
Cd267 Cd 0.35812 0.39959 0.17897 0.0
O268 O 0.38385 0.40312 0.18538 0.0
C269 C 0.39251 0.41558 0.18172 0.0
O270 O 0.38503 0.42584 0.17512 0.0
C271 C 0.3337 0.40796 0.16114 0.0
C272 C 0.31127 0.4242 0.19713 0.0
O273 O 0.31636 0.43857 0.19334 0.0
O274 O 0.31929 0.41038 0.19454 0.0
O275 O 0.30679 0.58026 0.91555 0.0
Cd276 Cd 0.3047 0.58737 0.93352 0.0
O277 O 0.31992 0.60489 0.91237 0.0
Cd278 Cd 0.31855 0.6165 0.92735 0.0
O279 O 0.31824 0.64072 0.93582 0.0
C280 C 0.33122 0.65058 0.93478 0.0
O281 O 0.34438 0.64512 0.92938 0.0
C282 C 0.31401 0.59049 0.90933 0.0
C283 C 0.30534 0.55863 0.94637 0.0
O284 O 0.29106 0.5646 0.94292 0.0
O285 O 0.31933 0.5661 0.94363 0.0
O286 O 0.14443 0.55142 0.66663 0.0
Cd287 Cd 0.13601 0.54732 0.68428 0.0
O288 O 0.12618 0.57305 0.66469 0.0
Cd289 Cd 0.11247 0.5697 0.67897 0.0
O290 O 0.08755 0.56779 0.68664 0.0
C291 C 0.07739 0.58067 0.68587 0.0
O292 O 0.08285 0.59462 0.68119 0.0
C293 C 0.1381 0.56344 0.66119 0.0
C294 C 0.16416 0.54797 0.69746 0.0
O295 O 0.15881 0.53373 0.69367 0.0
O296 O 0.15625 0.56193 0.69498 0.0
O297 O 0.16418 0.39612 0.41449 0.0
Cd298 Cd 0.16983 0.38914 0.43222 0.0
O299 O 0.14677 0.37394 0.41259 0.0
Cd300 Cd 0.15002 0.36282 0.42762 0.0
O301 O 0.15298 0.33929 0.43662 0.0
C302 C 0.16761 0.33182 0.43664 0.0
O303 O 0.18057 0.33929 0.43196 0.0
C304 C 0.15423 0.38719 0.40895 0.0
C305 C 0.16783 0.41753 0.44519 0.0
O306 O 0.18163 0.41425 0.4402 0.0
O307 O 0.15485 0.40751 0.44395 0.0
O308 O 0.32809 0.55302 0.79749 0.0
Cd309 Cd 0.33606 0.54869 0.77979 0.0
O310 O 0.34839 0.57253 0.79961 0.0
Cd311 Cd 0.36172 0.56873 0.78525 0.0
O312 O 0.38645 0.56645 0.77738 0.0
C313 C 0.39648 0.57942 0.77767 0.0
O314 O 0.39099 0.5937 0.78199 0.0
C315 C 0.33559 0.56409 0.80303 0.0
C316 C 0.30753 0.54898 0.76687 0.0
O317 O 0.31315 0.53483 0.77072 0.0
O318 O 0.31535 0.56302 0.76917 0.0
O319 O 0.16856 0.57768 0.54873 0.0
Cd320 Cd 0.17338 0.58449 0.5309 0.0
O321 O 0.15731 0.60335 0.55169 0.0
Cd322 Cd 0.15992 0.61453 0.53662 0.0
O323 O 0.16119 0.63826 0.52766 0.0
C324 C 0.14835 0.64849 0.52822 0.0
O325 O 0.13478 0.64366 0.53345 0.0
C326 C 0.16186 0.58847 0.55483 0.0
C327 C 0.17043 0.55608 0.51802 0.0
O328 O 0.18451 0.55916 0.52273 0.0
O329 O 0.15762 0.56629 0.51949 0.0
O330 O 0.14461 0.41798 0.29622 0.0
Cd331 Cd 0.13773 0.42202 0.27835 0.0
O332 O 0.12447 0.39819 0.29789 0.0
Cd333 Cd 0.11214 0.40201 0.28325 0.0
O334 O 0.08612 0.40523 0.27715 0.0
C335 C 0.07553 0.411 0.28366 0.0
O336 O 0.08138 0.4149 0.29267 0.0
C337 C 0.13684 0.40683 0.30162 0.0
C338 C 0.1669 0.4217 0.26592 0.0
O339 O 0.16104 0.43587 0.2696 0.0
O340 O 0.15904 0.40765 0.26818 0.0
O341 O 0.30849 0.39498 0.04841 0.0
Cd342 Cd 0.30772 0.38835 0.03034 0.0
O343 O 0.31674 0.36836 0.05191 0.0
Cd344 Cd 0.31637 0.35737 0.03676 0.0
O345 O 0.31638 0.33357 0.02789 0.0
C346 C 0.32949 0.32375 0.02868 0.0
O347 O 0.34267 0.32903 0.03407 0.0
C348 C 0.31289 0.38355 0.05484 0.0
C349 C 0.30739 0.41737 0.01772 0.0
O350 O 0.2933 0.41064 0.02091 0.0
O351 O 0.32164 0.41054 0.02062 0.0
C352 C 0.28733 0.04914 0.20754 0.0
C353 C 0.29393 0.06475 0.20372 0.0
C354 C 0.27397 0.04921 0.21463 0.0
C355 C 0.23884 0.07665 0.22473 0.0
H356 H 0.24008 0.04427 0.24709 0.0
C357 C 0.19093 0.08038 0.25812 0.0
C358 C 0.18424 0.06468 0.26176 0.0
C359 C 0.20429 0.08046 0.25103 0.0
C360 C 0.23944 0.05327 0.24083 0.0
H361 H 0.29171 0.0927 0.2044 0.0
H362 H 0.26854 0.09282 0.21685 0.0
H363 H 0.26345 0.0443 0.23478 0.0
H364 H 0.18631 0.03675 0.26077 0.0
H365 H 0.20953 0.03691 0.24835 0.0
H366 H 0.21484 0.08562 0.23081 0.0
C367 C 0.27353 0.08051 0.21426 0.0
C368 C 0.25284 0.05328 0.23377 0.0
C369 C 0.28689 0.08044 0.20716 0.0
C370 C 0.1912 0.04907 0.25814 0.0
C371 C 0.20458 0.04916 0.25107 0.0
C372 C 0.22545 0.07664 0.2318 0.0
C373 C 0.26691 0.0649 0.21808 0.0
C374 C 0.25269 0.06496 0.22563 0.0
C375 C 0.2113 0.06485 0.24743 0.0
C376 C 0.22558 0.06493 0.23993 0.0
H377 H 0.29243 0.03683 0.20502 0.0
H378 H 0.26902 0.03695 0.21731 0.0
H379 H 0.23819 0.08563 0.21847 0.0
H380 H 0.18589 0.09263 0.26076 0.0
H381 H 0.20931 0.09277 0.24847 0.0
C382 C 0.17492 0.03917 0.45857 0.0
C383 C 0.15921 0.04608 0.4551 0.0
C384 C 0.17513 0.02464 0.46485 0.0
C385 C 0.14824 -0.0003 0.48258 0.0
H386 H 0.18166 0.96328 0.47761 0.0
C387 C 0.14693 0.93475 0.50427 0.0
C388 C 0.16289 0.92762 0.50716 0.0
C389 C 0.14624 0.94907 0.49782 0.0
C390 C 0.17238 0.97342 0.47918 0.0
H391 H 0.13138 0.0432 0.45557 0.0
H392 H 0.13177 0.01781 0.46655 0.0
H393 H 0.18094 -0.01143 0.46662 0.0
H394 H 0.19064 0.93003 0.5056 0.0
H395 H 0.18945 0.95514 0.49451 0.0
H396 H 0.13978 0.98465 0.4952 0.0
C397 C 0.14392 0.02371 0.46444 0.0
C398 C 0.17195 0.98791 0.47287 0.0
C399 C 0.14371 0.0382 0.45811 0.0
C400 C 0.17813 0.93514 0.50348 0.0
C401 C 0.17745 0.94949 0.49706 0.0
C402 C 0.1487 0.98524 0.48892 0.0
C403 C 0.15964 0.01673 0.46786 0.0
C404 C 0.15992 0.00124 0.47451 0.0
C405 C 0.1615 0.95663 0.49414 0.0
C406 C 0.16081 0.97193 0.48732 0.0
H407 H 0.18709 0.04494 0.4564 0.0
H408 H 0.18744 0.0197 0.46745 0.0
H409 H 0.13895 0.00985 0.48411 0.0
H410 H 0.13494 0.92922 0.50695 0.0
H411 H 0.13374 0.95409 0.49562 0.0
C412 C 0.19406 0.89193 0.70432 0.0
C413 C 0.18646 0.90729 0.70075 0.0
C414 C 0.20712 0.89245 0.71159 0.0
C415 C 0.22586 0.92062 0.73124 0.0
H416 H 0.26542 0.89009 0.72879 0.0
C417 C 0.28661 0.92813 0.75598 0.0
C418 C 0.29426 0.91294 0.75975 0.0
C419 C 0.27339 0.92728 0.74884 0.0
C420 C 0.25436 0.89857 0.72965 0.0
H421 H 0.18667 0.93525 0.70199 0.0
H422 H 0.20955 0.93617 0.71456 0.0
H423 H 0.24247 0.8889 0.71624 0.0
H424 H 0.29401 0.88493 0.75898 0.0
H425 H 0.27087 0.88344 0.74656 0.0
H426 H 0.23779 0.93034 0.74461 0.0
C427 C 0.20526 0.92369 0.71186 0.0
C428 C 0.2412 0.89788 0.72246 0.0
C429 C 0.1922 0.92317 0.7046 0.0
C430 C 0.28842 0.89688 0.75621 0.0
C431 C 0.27522 0.89602 0.74905 0.0
C432 C 0.23902 0.92133 0.73842 0.0
C433 C 0.21288 0.90834 0.71544 0.0
C434 C 0.2268 0.90893 0.72315 0.0
C435 C 0.26753 0.91122 0.74529 0.0
C436 C 0.25345 0.91034 0.7377 0.0
H437 H 0.1899 0.87947 0.70153 0.0
H438 H 0.21255 0.88037 0.71427 0.0
H439 H 0.21482 0.92911 0.7321 0.0
H440 H 0.29083 0.94072 0.75853 0.0
H441 H 0.2679 0.93923 0.746 0.0
C442 C 0.30415 0.04377 0.00208 0.0
C443 C 0.31678 0.04436 0.00967 0.0
C444 C 0.30385 0.0301 -0.00481 0.0
C445 C 0.31576 0.98491 -0.00794 0.0
H446 H 0.31539 -0.0055 0.96333 0.0
C447 C 0.30384 0.93282 0.96144 0.0
C448 C 0.31628 0.93219 0.95373 0.0
C449 C 0.30367 0.94649 0.96833 0.0
C450 C 0.31549 -0.00833 0.97133 0.0
H451 H 0.33883 0.03098 0.01609 0.0
H452 H 0.33801 0.00688 0.00419 0.0
H453 H 0.31537 0.01851 0.97537 0.0
H454 H 0.3381 0.94552 0.94708 0.0
H455 H 0.33749 0.96964 0.95898 0.0
H456 H 0.31565 0.95806 -0.01197 0.0
C457 C 0.32846 0.01708 0.00354 0.0
C458 C 0.31538 0.00536 0.9782 0.0
C459 C 0.32897 0.03091 0.01031 0.0
C460 C 0.3284 0.94562 0.95297 0.0
C461 C 0.32801 0.95945 0.95973 0.0
C462 C 0.31553 0.97121 -0.0148 0.0
C463 C 0.31596 0.01661 -0.00411 0.0
C464 C 0.31564 0.0021 -0.01138 0.0
C465 C 0.31571 0.95996 0.96751 0.0
C466 C 0.31552 0.97447 0.97478 0.0
H467 H 0.29461 0.05397 0.00139 0.0
H468 H 0.29404 0.02997 -0.01062 0.0
H469 H 0.31589 0.98207 6e-05 0.0
H470 H 0.29436 0.92264 0.96224 0.0
H471 H 0.294 0.94664 0.97424 0.0
C472 C 0.66091 0.90918 0.75691 0.0
C473 C 0.65873 0.92546 0.76144 0.0
C474 C 0.67306 0.90682 0.74923 0.0
C475 C 0.69896 0.93077 0.73035 0.0
H476 H 0.72777 0.8897 0.73072 0.0
C477 C 0.76079 0.92413 0.70627 0.0
C478 C 0.76463 0.90789 0.70208 0.0
C479 C 0.74686 0.92613 0.71288 0.0
C480 C 0.71966 0.90112 0.73041 0.0
H481 H 0.6676 0.95204 0.76143 0.0
H482 H 0.6889 0.94789 0.74812 0.0
H483 H 0.70549 0.89339 0.74351 0.0
H484 H 0.75652 0.88109 0.70133 0.0
H485 H 0.73212 0.88462 0.71278 0.0
H486 H 0.71326 0.93857 0.71729 0.0
C487 C 0.68106 0.93699 0.75041 0.0
C488 C 0.70689 0.90324 0.73775 0.0
C489 C 0.66892 0.93934 0.75809 0.0
C490 C 0.75396 0.89378 0.70445 0.0
C491 C 0.74004 0.89577 0.71107 0.0
C492 C 0.71173 0.92864 0.723 0.0
C493 C 0.68331 0.92069 0.7459 0.0
C494 C 0.69647 0.91816 0.73786 0.0
C495 C 0.73645 0.91192 0.71546 0.0
C496 C 0.72232 0.91385 0.72298 0.0
H497 H 0.65322 0.89823 0.75929 0.0
H498 H 0.67433 0.89416 0.74584 0.0
H499 H 0.69096 0.94227 0.73011 0.0
H500 H 0.76876 0.93527 0.70462 0.0
H501 H 0.74459 0.93871 0.71621 0.0
C502 C 0.80862 0.94122 0.50687 0.0
C503 C 0.82432 0.93425 0.51033 0.0
C504 C 0.80846 0.95468 0.4998 0.0
C505 C 0.83566 0.97574 0.48035 0.0
H506 H 0.80206 0.01278 0.48259 0.0
C507 C 0.83815 0.03726 0.45544 0.0
C508 C 0.8224 0.04366 0.4517 0.0
C509 C 0.83844 0.02384 0.46253 0.0
C510 C 0.81141 0.00243 0.48179 0.0
H511 H 0.85216 0.93614 0.50916 0.0
H512 H 0.85188 0.95976 0.49695 0.0
H513 H 0.80253 -0.01022 0.49519 0.0
H514 H 0.79459 0.04084 0.45245 0.0
H515 H 0.7951 0.01739 0.46477 0.0
H516 H 0.84457 -0.01154 0.46697 0.0
C517 C 0.83968 0.95464 0.49957 0.0
C518 C 0.81168 -0.01077 0.48902 0.0
C519 C 0.83984 0.94116 0.50663 0.0
C520 C 0.80695 0.03625 0.45518 0.0
C521 C 0.80723 0.02287 0.4623 0.0
C522 C 0.83541 -0.01104 0.47314 0.0
C523 C 0.82398 0.96153 0.49603 0.0
C524 C 0.82379 0.97569 0.48839 0.0
C525 C 0.82298 0.01654 0.46609 0.0
C526 C 0.82326 0.00246 0.47376 0.0
H527 H 0.79642 0.93617 0.50954 0.0
H528 H 0.79613 0.9595 0.49716 0.0
H529 H 0.84498 0.96538 0.47952 0.0
H530 H 0.85029 0.0427 0.45294 0.0
H531 H 0.85078 0.0194 0.46537 0.0
C532 C 0.75649 0.03966 0.25763 0.0
C533 C 0.7636 0.05551 0.26067 0.0
C534 C 0.74251 0.03926 0.25098 0.0
C535 C 0.70715 0.06571 0.24026 0.0
H536 H 0.70999 0.03307 0.21816 0.0
C537 C 0.66093 0.06843 0.20604 0.0
C538 C 0.65518 0.05263 0.20206 0.0
C539 C 0.6737 0.06875 0.21348 0.0
C540 C 0.70885 0.0421 0.22435 0.0
H541 H 0.76127 0.08339 0.25933 0.0
H542 H 0.7369 0.08266 0.24772 0.0
H543 H 0.73267 0.03358 0.23084 0.0
H544 H 0.6582 0.02477 0.20287 0.0
H545 H 0.68024 0.02531 0.21593 0.0
H546 H 0.68331 0.07424 0.23376 0.0
C547 C 0.74207 0.07055 0.25052 0.0
C548 C 0.72187 0.04239 0.23162 0.0
C549 C 0.75609 0.07096 0.25715 0.0
C550 C 0.6624 0.03717 0.20573 0.0
C551 C 0.67512 0.03748 0.21319 0.0
C552 C 0.69408 0.06538 0.23299 0.0
C553 C 0.7353 0.05469 0.24724 0.0
C554 C 0.72119 0.05421 0.23966 0.0
C555 C 0.68098 0.05328 0.21714 0.0
C556 C 0.69478 0.05358 0.22494 0.0
H557 H 0.76192 0.02753 0.26022 0.0
H558 H 0.73742 0.02683 0.24872 0.0
H559 H 0.70616 0.07484 0.24641 0.0
H560 H 0.65566 0.08059 0.20335 0.0
H561 H 0.67806 0.08115 0.21625 0.0
C562 C 0.67734 0.03358 0.00626 0.0
C563 C 0.66219 0.0423 0.00915 0.0
C564 C 0.67657 0.0193 -0.00017 0.0
C565 C 0.64681 0.98586 -0.00984 0.0
H566 H 0.68071 0.98152 0.96878 0.0
C567 C 0.64052 0.93527 0.95835 0.0
C568 C 0.65564 0.92668 0.95527 0.0
C569 C 0.64135 0.94927 0.96499 0.0
C570 C 0.67126 0.98242 0.97478 0.0
H571 H 0.63433 0.04276 0.0076 0.0
H572 H 0.63301 0.01794 -0.00367 0.0
H573 H 0.68212 0.00598 0.98031 0.0
H574 H 0.6835 0.92608 0.95678 0.0
H575 H 0.68493 0.95039 0.96842 0.0
H576 H 0.63593 0.96231 -0.01539 0.0
C577 C 0.64548 0.02202 -0.00088 0.0
C578 C 0.67207 -0.00355 0.9814 0.0
C579 C 0.64625 0.03632 0.00554 0.0
C580 C 0.67161 0.93244 0.95897 0.0
C581 C 0.67244 0.94644 0.9656 0.0
C582 C 0.646 0.97183 -0.01646 0.0
C583 C 0.66064 0.01338 -0.00385 0.0
C584 C 0.65985 -0.00165 -0.01084 0.0
C585 C 0.65732 0.95503 0.9687 0.0
C586 C 0.65821 0.96994 0.97576 0.0
H587 H 0.68983 0.03782 0.00892 0.0
H588 H 0.68848 0.0128 -0.0022 0.0
H589 H 0.63734 0.98678 -0.00386 0.0
H590 H 0.62801 0.93121 0.95562 0.0
H591 H 0.62947 0.95573 0.96711 0.0
C592 C 0.68706 0.54466 0.75552 0.0
C593 C 0.67997 0.56028 0.75903 0.0
C594 C 0.70087 0.54472 0.74873 0.0
C595 C 0.73626 0.57228 0.73916 0.0
H596 H 0.73697 0.53949 0.71708 0.0
C597 C 0.78655 0.5758 0.70698 0.0
C598 C 0.79367 0.5601 0.70361 0.0
C599 C 0.77264 0.57591 0.7137 0.0
C600 C 0.73707 0.54861 0.72326 0.0
H601 H 0.68183 0.58823 0.75814 0.0
H602 H 0.70581 0.58833 0.74623 0.0
H603 H 0.71281 0.53954 0.72886 0.0
H604 H 0.79174 0.53218 0.70469 0.0
H605 H 0.76758 0.53237 0.71647 0.0
H606 H 0.76052 0.58135 0.73355 0.0
C607 C 0.70084 0.57602 0.74882 0.0
C608 C 0.72321 0.54863 0.73002 0.0
C609 C 0.68701 0.57596 0.75561 0.0
C610 C 0.78654 0.5445 0.70711 0.0
C611 C 0.77262 0.54461 0.71383 0.0
C612 C 0.75011 0.57226 0.73239 0.0
C613 C 0.70793 0.5604 0.74529 0.0
C614 C 0.72264 0.56045 0.73806 0.0
C615 C 0.7655 0.56031 0.71721 0.0
C616 C 0.7507 0.56041 0.72437 0.0
H617 H 0.68198 0.53235 0.75803 0.0
H618 H 0.70617 0.53246 0.74628 0.0
H619 H 0.73637 0.58138 0.74535 0.0
H620 H 0.7917 0.58805 0.70441 0.0
H621 H 0.76733 0.58823 0.71605 0.0
C622 C 0.67594 0.53683 0.95706 0.0
C623 C 0.66031 0.54382 0.95351 0.0
C624 C 0.67595 0.52304 0.96389 0.0
C625 C 0.64863 0.50102 -0.01724 0.0
H626 H 0.68137 0.46344 0.97947 0.0
C627 C 0.64531 0.43853 0.0067 0.0
C628 C 0.661 0.4314 0.01006 0.0
C629 C 0.64516 0.4522 -0.00022 0.0
C630 C 0.67227 0.47392 0.98057 0.0
H631 H 0.63244 0.54175 0.95434 0.0
H632 H 0.63248 0.51762 0.96622 0.0
H633 H 0.68124 0.48732 0.96744 0.0
H634 H 0.68885 0.43314 0.00881 0.0
H635 H 0.6886 0.45711 -0.00315 0.0
H636 H 0.6397 0.48767 -0.00408 0.0
C637 C 0.64472 0.52293 0.9638 0.0
C638 C 0.67219 0.48761 0.97367 0.0
C639 C 0.64471 0.5367 0.95694 0.0
C640 C 0.67653 0.43829 0.00635 0.0
C641 C 0.67639 0.45197 -0.00056 0.0
C642 C 0.64872 0.48734 -0.01032 0.0
C643 C 0.66035 0.51593 0.96736 0.0
C644 C 0.66038 0.50133 0.97468 0.0
C645 C 0.6607 0.45909 -0.00394 0.0
C646 C 0.66056 0.47363 -0.01132 0.0
H647 H 0.68819 0.54204 0.95458 0.0
H648 H 0.68821 0.51809 0.96658 0.0
H649 H 0.63953 0.5115 -0.01615 0.0
H650 H 0.63311 0.43349 0.00937 0.0
H651 H 0.63285 0.45722 -0.00277 0.0
C652 C 0.78732 0.39874 0.25661 0.0
C653 C 0.79403 0.41451 0.26009 0.0
C654 C 0.77354 0.39853 0.24981 0.0
C655 C 0.75078 0.42579 0.23108 0.0
H656 H 0.71404 0.39234 0.23448 0.0
C657 C 0.68758 0.42919 0.20812 0.0
C658 C 0.68081 0.41353 0.20451 0.0
C659 C 0.70141 0.42921 0.21487 0.0
C660 C 0.72429 0.40164 0.23336 0.0
H661 H 0.79148 0.44241 0.25917 0.0
H662 H 0.76736 0.44202 0.2474 0.0
H663 H 0.73812 0.39255 0.2463 0.0
H664 H 0.6833 0.3856 0.20519 0.0
H665 H 0.70751 0.38565 0.21692 0.0
H666 H 0.73694 0.43489 0.21815 0.0
C667 C 0.77289 0.42982 0.24982 0.0
C668 C 0.7381 0.40176 0.24013 0.0
C669 C 0.78666 0.43004 0.25662 0.0
C670 C 0.68817 0.39789 0.20784 0.0
C671 C 0.702 0.39791 0.21461 0.0
C672 C 0.73697 0.42567 0.22431 0.0
C673 C 0.76616 0.41406 0.24633 0.0
C674 C 0.75151 0.41385 0.23908 0.0
C675 C 0.7088 0.41357 0.2182 0.0
C676 C 0.72354 0.41361 0.22537 0.0
H677 H 0.79273 0.38654 0.25911 0.0
H678 H 0.76882 0.38617 0.24718 0.0
H679 H 0.76103 0.43509 0.22995 0.0
H680 H 0.68218 0.44146 0.20573 0.0
H681 H 0.70619 0.44149 0.21759 0.0
C682 C 0.80242 0.43824 0.45788 0.0
C683 C 0.81794 0.43113 0.45426 0.0
C684 C 0.8026 0.45223 0.46454 0.0
C685 C 0.83036 0.47479 0.48287 0.0
H686 H 0.79762 0.51233 0.47932 0.0
C687 C 0.83407 0.53792 0.50606 0.0
C688 C 0.81843 0.54519 0.50939 0.0
C689 C 0.83412 0.52406 0.4993 0.0
C690 C 0.80672 0.50186 0.4805 0.0
H691 H 0.84584 0.43319 0.4548 0.0
H692 H 0.84613 0.45764 0.46639 0.0
H693 H 0.7975 0.48808 0.46761 0.0
H694 H 0.79057 0.5435 0.50827 0.0
H695 H 0.79065 0.51921 0.4966 0.0
H696 H 0.83953 0.48851 0.49579 0.0
C697 C 0.83382 0.45229 0.46415 0.0
C698 C 0.80666 0.48796 0.47377 0.0
C699 C 0.83365 0.43833 0.45746 0.0
C700 C 0.80285 0.53826 0.50583 0.0
C701 C 0.8029 0.52438 0.49909 0.0
C702 C 0.8304 0.48867 0.48961 0.0
C703 C 0.8183 0.45941 0.46777 0.0
C704 C 0.81846 0.47425 0.47488 0.0
C705 C 0.81854 0.51712 0.49572 0.0
C706 C 0.81857 0.50238 0.48852 0.0
H707 H 0.7901 0.43299 0.45559 0.0
H708 H 0.79041 0.45727 0.46728 0.0
H709 H 0.83946 0.46432 0.48403 0.0
H710 H 0.84631 0.54299 0.50863 0.0
H711 H 0.8464 0.51894 0.49677 0.0
C712 C 0.28879 0.43897 0.20768 0.0
C713 C 0.29661 0.42361 0.20431 0.0
C714 C 0.27505 0.43845 0.21451 0.0
C715 C 0.2407 0.41001 0.22417 0.0
H716 H 0.23943 0.44244 0.24642 0.0
C717 C 0.18911 0.40594 0.25563 0.0
C718 C 0.18216 0.42161 0.25917 0.0
C719 C 0.20335 0.40589 0.24914 0.0
C720 C 0.23946 0.43342 0.24019 0.0
H721 H 0.29608 0.39563 0.20547 0.0
H722 H 0.27208 0.39473 0.2174 0.0
H723 H 0.26361 0.44295 0.23466 0.0
H724 H 0.18471 0.44952 0.25864 0.0
H725 H 0.20931 0.44946 0.2472 0.0
H726 H 0.21646 0.40061 0.22961 0.0
C727 C 0.27652 0.40718 0.2147 0.0
C728 C 0.25335 0.4337 0.23345 0.0
C729 C 0.29033 0.4077 0.2079 0.0
C730 C 0.18979 0.43721 0.25609 0.0
C731 C 0.20398 0.43717 0.24957 0.0
C732 C 0.22676 0.40978 0.23088 0.0
C733 C 0.26875 0.42255 0.2181 0.0
C734 C 0.2541 0.42204 0.22535 0.0
C735 C 0.21094 0.42151 0.246 0.0
C736 C 0.22594 0.42152 0.23896 0.0
H737 H 0.29329 0.45144 0.20505 0.0
H738 H 0.26921 0.45051 0.21689 0.0
H739 H 0.24079 0.401 0.21793 0.0
H740 H 0.18358 0.39368 0.25789 0.0
H741 H 0.20851 0.39359 0.24666 0.0
C742 C 0.32135 0.53724 0.95714 0.0
C743 C 0.30563 0.54378 0.95346 0.0
C744 C 0.3216 0.52355 0.96405 0.0
C745 C 0.29486 0.48774 0.97407 0.0
H746 H 0.32715 0.48903 -0.00363 0.0
C747 C 0.2915 0.43921 0.0072 0.0
C748 C 0.3072 0.43232 0.01069 0.0
C749 C 0.29132 0.45292 0.0003 0.0
C750 C 0.31817 0.48838 -0.00987 0.0
H751 H 0.27781 0.54099 0.95414 0.0
H752 H 0.27822 0.51726 0.96626 0.0
H753 H 0.32685 0.51252 -0.01593 0.0
H754 H 0.33505 0.43456 0.00974 0.0
H755 H 0.33474 0.45842 -0.00232 0.0
H756 H 0.28615 0.46362 0.98015 0.0
C757 C 0.2904 0.52255 0.96371 0.0
C758 C 0.31801 0.50184 -0.01693 0.0
C759 C 0.29015 0.53623 0.95679 0.0
C760 C 0.32273 0.43958 0.00722 0.0
C761 C 0.32255 0.45332 0.00034 0.0
C762 C 0.295 0.4743 0.98114 0.0
C763 C 0.30612 0.51608 0.96746 0.0
C764 C 0.30636 0.50169 0.97495 0.0
C765 C 0.30685 0.46009 -0.00325 0.0
C766 C 0.30666 0.47445 -0.01074 0.0
H767 H 0.33351 0.54272 0.95471 0.0
H768 H 0.33395 0.51873 0.96666 0.0
H769 H 0.2859 0.48706 0.96783 0.0
H770 H 0.27931 0.43395 0.00973 0.0
H771 H 0.279 0.45798 -0.0022 0.0
C772 C 0.18542 0.56405 0.70817 0.0
C773 C 0.17892 0.54827 0.70456 0.0
C774 C 0.19926 0.5643 0.71493 0.0
C775 C 0.22205 0.53727 0.73363 0.0
H776 H 0.25919 0.57017 0.72996 0.0
C777 C 0.28501 0.53349 0.7568 0.0
C778 C 0.29257 0.54908 0.75991 0.0
C779 C 0.27105 0.53355 0.75013 0.0
C780 C 0.24882 0.56105 0.73119 0.0
H781 H 0.18192 0.52039 0.70522 0.0
H782 H 0.20606 0.52085 0.71701 0.0
H783 H 0.23505 0.57004 0.71819 0.0
H784 H 0.29127 0.57701 0.75852 0.0
H785 H 0.26673 0.57714 0.74703 0.0
H786 H 0.2357 0.52834 0.74666 0.0
C787 C 0.20036 0.53302 0.71466 0.0
C788 C 0.23499 0.56096 0.72442 0.0
C789 C 0.18659 0.53277 0.70786 0.0
C790 C 0.28579 0.56476 0.75624 0.0
C791 C 0.27178 0.56482 0.7496 0.0
C792 C 0.23583 0.53741 0.74043 0.0
C793 C 0.20686 0.54879 0.71828 0.0
C794 C 0.22148 0.54903 0.72554 0.0
C795 C 0.26425 0.54922 0.74643 0.0
C796 C 0.24944 0.54925 0.73927 0.0
H797 H 0.1798 0.57623 0.70578 0.0
H798 H 0.20385 0.57665 0.71765 0.0
H799 H 0.2117 0.52809 0.7348 0.0
H800 H 0.28997 0.52118 0.75945 0.0
H801 H 0.26577 0.52128 0.74775 0.0
C802 C 0.15413 0.43305 0.45973 0.0
C803 C 0.1671 0.43219 0.45234 0.0
C804 C 0.15397 0.44645 0.46681 0.0
C805 C 0.18255 0.4801 0.47789 0.0
H806 H 0.13943 0.49808 0.4884 0.0
C807 C 0.18166 0.52821 0.51098 0.0
C808 C 0.16918 0.5414 0.51091 0.0
C809 C 0.18086 0.51466 0.50404 0.0
C810 C 0.15161 0.49337 0.48548 0.0
H811 H 0.18973 0.44501 0.44635 0.0
H812 H 0.1891 0.46871 0.45838 0.0
H813 H 0.13898 0.47579 0.47551 0.0
H814 H 0.146 0.55072 0.50351 0.0
H815 H 0.14492 0.52747 0.49117 0.0
H816 H 0.19519 0.4982 0.48748 0.0
C817 C 0.17936 0.45876 0.45898 0.0
C818 C 0.15135 0.48035 0.47817 0.0
C819 C 0.17966 0.44522 0.45201 0.0
C820 C 0.15577 0.54068 0.5038 0.0
C821 C 0.15511 0.52726 0.49675 0.0
C822 C 0.1828 0.49326 0.48509 0.0
C823 C 0.16665 0.45946 0.46657 0.0
C824 C 0.16683 0.4735 0.47428 0.0
C825 C 0.16771 0.5141 0.49673 0.0
C826 C 0.16734 0.50005 0.48903 0.0
H827 H 0.14432 0.42313 0.46022 0.0
H828 H 0.14413 0.44634 0.4726 0.0
H829 H 0.19475 0.47501 0.47523 0.0
H830 H 0.19207 0.52832 0.51642 0.0
H831 H 0.19058 0.50459 0.50444 0.0
C832 C 0.1853 0.09115 0.39433 0.0
C833 C 0.17446 0.08244 0.40116 0.0
C834 C 0.18596 0.08626 0.38421 0.0
C835 C 0.17451 0.05137 0.36629 0.0
H836 H 0.17121 0.08918 0.34713 0.0
C837 C 0.1504 0.04297 0.32549 0.0
C838 C 0.1572 0.05364 0.31786 0.0
C839 C 0.15555 0.04498 0.3355 0.0
C840 C 0.17249 0.07845 0.35234 0.0
H841 H 0.1563 0.06131 0.40274 0.0
H842 H 0.15731 0.05291 0.38503 0.0
H843 H 0.17451 0.09542 0.36497 0.0
H844 H 0.17555 0.07409 0.31472 0.0
H845 H 0.18472 0.07743 0.3322 0.0
H846 H 0.1721 0.0344 0.35363 0.0
C847 C 0.16543 0.06342 0.38755 0.0
C848 C 0.17435 0.08203 0.36259 0.0
C849 C 0.16478 0.06831 0.39769 0.0
C850 C 0.16995 0.06574 0.32041 0.0
C851 C 0.17513 0.06773 0.33044 0.0
C852 C 0.17268 0.04777 0.35601 0.0
C853 C 0.17579 0.07257 0.38065 0.0
C854 C 0.17515 0.06856 0.3697 0.0
C855 C 0.16767 0.05767 0.33814 0.0
C856 C 0.17139 0.06129 0.34893 0.0
H857 H 0.19306 0.102 0.39675 0.0
H858 H 0.19429 0.09339 0.37913 0.0
H859 H 0.17533 0.0407 0.37157 0.0
H860 H 0.14057 0.03348 0.3238 0.0
H861 H 0.14941 0.03711 0.34123 0.0
C862 C 0.17062 0.90642 0.56464 0.0
C863 C 0.18201 0.89373 0.56096 0.0
C864 C 0.17092 0.91114 0.57481 0.0
C865 C 0.18268 0.89315 0.59949 0.0
H866 H 0.17322 0.93964 0.60892 0.0
C867 C 0.17397 0.90736 0.64179 0.0
C868 C 0.15937 0.91739 0.64417 0.0
C869 C 0.17993 0.90638 0.63184 0.0
C870 C 0.17584 0.92658 0.60641 0.0
H871 H 0.20325 0.87672 0.56499 0.0
H872 H 0.20384 0.88507 0.58268 0.0
H873 H 0.17778 0.93449 0.59095 0.0
H874 H 0.14014 0.93495 0.63803 0.0
H875 H 0.15036 0.93307 0.62075 0.0
H876 H 0.18021 0.88511 0.61485 0.0
C877 C 0.19449 0.89115 0.57774 0.0
C878 C 0.17844 0.92364 0.59611 0.0
C879 C 0.19419 0.88643 0.56758 0.0
C880 C 0.15139 0.92705 0.63647 0.0
C881 C 0.15734 0.92607 0.62655 0.0
C882 C 0.18005 0.89608 0.60977 0.0
C883 C 0.18262 0.90329 0.58152 0.0
C884 C 0.18158 0.90683 0.59252 0.0
C885 C 0.17144 0.91543 0.62407 0.0
C886 C 0.17628 0.91278 0.61333 0.0
H887 H 0.16108 0.91232 0.55975 0.0
H888 H 0.16149 0.92042 0.57749 0.0
H889 H 0.18482 0.88 0.59697 0.0
H890 H 0.18049 0.89983 0.64754 0.0
H891 H 0.19098 0.89826 0.6302 0.0
C892 C 0.2883 0.88987 0.89232 0.0
C893 C 0.29906 0.89859 0.89915 0.0
C894 C 0.28783 0.89471 0.88216 0.0
C895 C 0.30025 0.92924 0.86404 0.0
H896 H 0.30434 0.89098 0.84533 0.0
C897 C 0.32688 0.93669 0.82364 0.0
C898 C 0.3203 0.92608 0.81597 0.0
C899 C 0.32124 0.93479 0.83359 0.0
C900 C 0.30286 0.90184 0.8504 0.0
H901 H 0.31712 0.91979 0.90073 0.0
H902 H 0.31642 0.9281 0.883 0.0
H903 H 0.29987 0.88517 0.86315 0.0
H904 H 0.30193 0.90575 0.81266 0.0
H905 H 0.29193 0.90259 0.83001 0.0
H906 H 0.30367 0.9459 0.85126 0.0
C907 C 0.30824 0.91761 0.88551 0.0
C908 C 0.3003 0.8985 0.86064 0.0
C909 C 0.30871 0.91278 0.89568 0.0
C910 C 0.30737 0.91405 0.8184 0.0
C911 C 0.3017 0.91217 0.82836 0.0
C912 C 0.30279 0.93259 0.85377 0.0
C913 C 0.2981 0.90837 0.87859 0.0
C914 C 0.29923 0.91214 0.86761 0.0
C915 C 0.30884 0.92226 0.83611 0.0
C916 C 0.3044 0.91891 0.84685 0.0
H917 H 0.28058 0.87897 0.89474 0.0
H918 H 0.27965 0.88752 0.87706 0.0
H919 H 0.29924 0.94004 0.86919 0.0
H920 H 0.33684 0.9461 0.82205 0.0
H921 H 0.32715 0.94266 0.83937 0.0
C922 C 0.28838 0.08521 0.07094 0.0
C923 C 0.29996 0.07724 0.06422 0.0
C924 C 0.28814 0.08057 0.08113 0.0
C925 C 0.30333 0.04757 0.09957 0.0
H926 H 0.3037 0.0864 0.11801 0.0
C927 C 0.33029 0.04328 0.14 0.0
C928 C 0.32259 0.05328 0.14762 0.0
C929 C 0.32461 0.04454 0.13003 0.0
C930 C 0.30328 0.07536 0.11301 0.0
H931 H 0.3198 0.05753 0.06288 0.0
H932 H 0.31954 0.04959 0.08066 0.0
H933 H 0.29889 0.09144 0.10014 0.0
H934 H 0.30228 0.07185 0.1508 0.0
H935 H 0.29224 0.07393 0.13341 0.0
H936 H 0.30817 0.03154 0.11246 0.0
C937 C 0.31051 0.05933 0.07804 0.0
C938 C 0.30052 0.07826 0.10274 0.0
C939 C 0.31074 0.06395 0.06784 0.0
C940 C 0.30857 0.06405 0.14511 0.0
C941 C 0.30288 0.0653 0.13513 0.0
C942 C 0.30608 0.04466 0.10986 0.0
C943 C 0.2995 0.06786 0.08485 0.0
C944 C 0.30078 0.06444 0.09587 0.0
C945 C 0.31106 0.05583 0.12744 0.0
C946 C 0.30637 0.05856 0.11668 0.0
H947 H 0.27978 0.09541 0.0684 0.0
H948 H 0.27929 0.08718 0.08614 0.0
H949 H 0.30336 0.03661 0.09449 0.0
H950 H 0.34111 0.03482 0.14165 0.0
H951 H 0.33132 0.03719 0.12429 0.0
C952 C 0.8435 0.88369 0.57291 0.0
C953 C 0.83479 0.89437 0.56597 0.0
C954 C 0.84345 0.88757 0.58318 0.0
C955 C 0.81782 0.91025 0.60232 0.0
H956 H 0.85772 0.90118 0.61917 0.0
C957 C 0.81271 0.90038 0.64535 0.0
C958 C 0.82592 0.90689 0.6515 0.0
C959 C 0.81413 0.90105 0.63484 0.0
C960 C 0.84651 0.90398 0.61458 0.0
H961 H 0.81962 0.91784 0.56441 0.0
H962 H 0.81958 0.92465 0.58241 0.0
H963 H 0.86032 0.89901 0.6009 0.0
H964 H 0.8504 0.92035 0.65142 0.0
H965 H 0.85305 0.92127 0.6331 0.0
H966 H 0.80399 0.91514 0.61601 0.0
C967 C 0.82632 0.91317 0.57986 0.0
C968 C 0.84796 0.90257 0.6041 0.0
C969 C 0.82643 0.90933 0.56954 0.0
C970 C 0.84034 0.91458 0.64692 0.0
C971 C 0.84179 0.91524 0.63641 0.0
C972 C 0.81636 0.91162 0.6128 0.0
C973 C 0.83467 0.90221 0.58681 0.0
C974 C 0.83357 0.90541 0.59786 0.0
C975 C 0.82876 0.90835 0.63024 0.0
C976 C 0.83062 0.90823 0.61907 0.0
H977 H 0.85009 0.87208 0.57044 0.0
H978 H 0.84983 0.87874 0.58833 0.0
H979 H 0.80645 0.91239 0.59774 0.0
H980 H 0.8014 0.89441 0.64864 0.0
H981 H 0.80395 0.89544 0.63034 0.0
C982 C 0.84544 0.0906 0.38973 0.0
C983 C 0.83398 0.082 0.39625 0.0
C984 C 0.84536 0.08721 0.37939 0.0
C985 C 0.83014 0.05633 0.35993 0.0
H986 H 0.83387 0.09641 0.34243 0.0
C987 C 0.8149 0.05434 0.31714 0.0
C988 C 0.82606 0.06343 0.31068 0.0
C989 C 0.81647 0.0558 0.32761 0.0
C990 C 0.83302 0.08505 0.3472 0.0
H991 H 0.81386 0.06261 0.39702 0.0
H992 H 0.81355 0.05687 0.37892 0.0
H993 H 0.83572 0.10005 0.36061 0.0
H994 H 0.84715 0.08175 0.31017 0.0
H995 H 0.85016 0.08403 0.3284 0.0
H996 H 0.82718 0.0414 0.34644 0.0
C997 C 0.82274 0.06612 0.38184 0.0
C998 C 0.83411 0.08712 0.35764 0.0
C999 C 0.82288 0.06945 0.39222 0.0
C1000 C 0.83871 0.07415 0.31492 0.0
C1001 C 0.84024 0.07568 0.32538 0.0
C1002 C 0.82898 0.05427 0.34947 0.0
C1003 C 0.83376 0.07521 0.37527 0.0
C1004 C 0.83273 0.0728 0.36415 0.0
C1005 C 0.82913 0.06655 0.33186 0.0
C1006 C 0.83044 0.06861 0.34298 0.0
H1007 H 0.8543 0.10022 0.39258 0.0
H1008 H 0.85431 0.09417 0.37461 0.0
H1009 H 0.82921 0.045 0.36471 0.0
H1010 H 0.80495 0.04604 0.3141 0.0
H1011 H 0.80755 0.04878 0.33239 0.0
C1012 C 0.66149 0.07217 0.0669 0.0
C1013 C 0.6605 0.08927 0.06331 0.0
C1014 C 0.66052 0.0687 0.07727 0.0
C1015 C 0.66513 0.08985 0.10224 0.0
H1016 H 0.63584 0.05268 0.11177 0.0
C1017 C 0.63813 0.0871 0.14265 0.0
C1018 C 0.63668 0.07095 0.14745 0.0
C1019 C 0.64348 0.08821 0.1326 0.0
C1020 C 0.6443 0.06293 0.10924 0.0
H1021 H 0.65771 0.11611 0.06783 0.0
H1022 H 0.65582 0.11007 0.08574 0.0
H1023 H 0.64049 0.0565 0.0937 0.0
H1024 H 0.64029 0.04331 0.14554 0.0
H1025 H 0.64968 0.04528 0.12799 0.0
H1026 H 0.6686 0.09655 0.11776 0.0
C1027 C 0.65763 0.09933 0.08061 0.0
C1028 C 0.64697 0.06512 0.09888 0.0
C1029 C 0.65858 0.10278 0.0703 0.0
C1030 C 0.64123 0.05596 0.14207 0.0
C1031 C 0.64651 0.05707 0.13199 0.0
C1032 C 0.66244 0.08769 0.11258 0.0
C1033 C 0.6586 0.08227 0.08424 0.0
C1034 C 0.65713 0.07882 0.09525 0.0
C1035 C 0.64747 0.07319 0.12711 0.0
C1036 C 0.65173 0.07441 0.1162 0.0
H1037 H 0.663 0.06146 0.06173 0.0
H1038 H 0.66142 0.05542 0.07983 0.0
H1039 H 0.67333 0.10031 0.09971 0.0
H1040 H 0.63474 0.09891 0.14656 0.0
H1041 H 0.6439 0.10082 0.12904 0.0
C1042 C 0.65223 0.90215 0.89675 0.0
C1043 C 0.66536 0.89137 0.90053 0.0
C1044 C 0.65135 0.90597 0.88644 0.0
C1045 C 0.66509 0.88809 0.86192 0.0
H1046 H 0.64773 0.93171 0.85158 0.0
C1047 C 0.6374 0.89516 0.82189 0.0
C1048 C 0.63999 0.9107 0.81659 0.0
C1049 C 0.64288 0.89343 0.83187 0.0
C1050 C 0.65283 0.91953 0.85432 0.0
H1051 H 0.68843 0.87696 0.89652 0.0
H1052 H 0.6871 0.88392 0.87863 0.0
H1053 H 0.65328 0.92849 0.86959 0.0
H1054 H 0.65097 0.93642 0.81754 0.0
H1055 H 0.66075 0.9333 0.83495 0.0
H1056 H 0.66475 0.87915 0.84668 0.0
C1057 C 0.67721 0.88906 0.88357 0.0
C1058 C 0.6558 0.91761 0.86467 0.0
C1059 C 0.67803 0.88516 0.89385 0.0
C1060 C 0.64872 0.92429 0.82141 0.0
C1061 C 0.65422 0.92255 0.83142 0.0
C1062 C 0.66217 0.89002 0.85159 0.0
C1063 C 0.66365 0.89919 0.87969 0.0
C1064 C 0.66174 0.90178 0.86862 0.0
C1065 C 0.65113 0.90718 0.83681 0.0
C1066 C 0.65573 0.90566 0.84767 0.0
H1067 H 0.64224 0.90712 0.90168 0.0
H1068 H 0.64062 0.91367 0.88372 0.0
H1069 H 0.66948 0.87565 0.86469 0.0
H1070 H 0.6307 0.88443 0.81844 0.0
H1071 H 0.64008 0.88149 0.83582 0.0
C1072 C 0.66075 0.5619 0.81733 0.0
C1073 C 0.64581 0.55251 0.81491 0.0
C1074 C 0.66616 0.56334 0.82735 0.0
C1075 C 0.66063 0.54458 0.85296 0.0
H1076 H 0.67188 0.59089 0.86187 0.0
C1077 C 0.65972 0.56503 0.89488 0.0
C1078 C 0.6717 0.57744 0.89813 0.0
C1079 C 0.6588 0.56037 0.8847 0.0
C1080 C 0.6691 0.57781 0.8595 0.0
H1081 H 0.62526 0.5367 0.82111 0.0
H1082 H 0.63465 0.53929 0.83854 0.0
H1083 H 0.66655 0.58556 0.84409 0.0
H1084 H 0.69271 0.59401 0.8933 0.0
H1085 H 0.6913 0.58567 0.87564 0.0
H1086 H 0.66291 0.5369 0.86843 0.0
C1087 C 0.64225 0.54546 0.8327 0.0
C1088 C 0.66603 0.57475 0.84929 0.0
C1089 C 0.6368 0.54407 0.8227 0.0
C1090 C 0.68321 0.58453 0.89105 0.0
C1091 C 0.68234 0.57983 0.8809 0.0
C1092 C 0.66375 0.54762 0.86319 0.0
C1093 C 0.65681 0.55535 0.83517 0.0
C1094 C 0.66154 0.55816 0.8459 0.0
C1095 C 0.66989 0.56797 0.87755 0.0
C1096 C 0.66781 0.56433 0.8666 0.0
H1097 H 0.66803 0.5685 0.81152 0.0
H1098 H 0.67756 0.57088 0.829 0.0
H1099 H 0.65742 0.5316 0.85057 0.0
H1100 H 0.65065 0.55932 0.90012 0.0
H1101 H 0.64894 0.55132 0.88239 0.0
C1102 C 0.68578 0.392 0.07244 0.0
C1103 C 0.67395 0.39887 0.06545 0.0
C1104 C 0.68494 0.39663 0.0826 0.0
C1105 C 0.6659 0.42834 0.1005 0.0
H1106 H 0.66929 0.3902 0.11944 0.0
C1107 C 0.63893 0.43132 0.14102 0.0
C1108 C 0.64786 0.42264 0.14876 0.0
C1109 C 0.64447 0.43013 0.13102 0.0
C1110 C 0.66861 0.40107 0.11429 0.0
H1111 H 0.65238 0.41655 0.06363 0.0
H1112 H 0.65077 0.42444 0.08139 0.0
H1113 H 0.6747 0.38514 0.10163 0.0
H1114 H 0.67006 0.40647 0.15208 0.0
H1115 H 0.6798 0.40448 0.1346 0.0
H1116 H 0.65939 0.44417 0.11319 0.0
C1117 C 0.66083 0.4156 0.07899 0.0
C1118 C 0.67171 0.39817 0.10406 0.0
C1119 C 0.6617 0.41101 0.06881 0.0
C1120 C 0.66283 0.41325 0.1463 0.0
C1121 C 0.66836 0.41203 0.13628 0.0
C1122 C 0.66278 0.43124 0.11075 0.0
C1123 C 0.67223 0.4082 0.08605 0.0
C1124 C 0.67018 0.41171 0.09701 0.0
C1125 C 0.65907 0.42022 0.1285 0.0
C1126 C 0.66387 0.41759 0.11775 0.0
H1127 H 0.69549 0.38273 0.07011 0.0
H1128 H 0.69412 0.39093 0.0878 0.0
H1129 H 0.66486 0.43911 0.0953 0.0
H1130 H 0.62735 0.4387 0.14263 0.0
H1131 H 0.6369 0.43644 0.12521 0.0
C1132 C 0.81573 0.40947 0.39595 0.0
C1133 C 0.80538 0.39564 0.39922 0.0
C1134 C 0.81606 0.41428 0.38577 0.0
C1135 C 0.80803 0.39583 0.36061 0.0
H1136 H 0.81311 0.44325 0.35155 0.0
C1137 C 0.81308 0.41246 0.31838 0.0
C1138 C 0.8264 0.42391 0.31574 0.0
C1139 C 0.80816 0.41043 0.32847 0.0
C1140 C 0.81176 0.42994 0.35397 0.0
H1141 H 0.78659 0.37661 0.39441 0.0
H1142 H 0.78697 0.38518 0.37675 0.0
H1143 H 0.80879 0.43719 0.36947 0.0
H1144 H 0.84448 0.44276 0.32161 0.0
H1145 H 0.83602 0.43909 0.33915 0.0
H1146 H 0.8113 0.38853 0.34519 0.0
C1147 C 0.79513 0.39206 0.382 0.0
C1148 C 0.80931 0.42646 0.36424 0.0
C1149 C 0.79485 0.38721 0.39215 0.0
C1150 C 0.83419 0.4338 0.32336 0.0
C1151 C 0.82926 0.43178 0.33344 0.0
C1152 C 0.81046 0.39931 0.35037 0.0
C1153 C 0.80601 0.4054 0.37864 0.0
C1154 C 0.80758 0.40935 0.36769 0.0
C1155 C 0.81643 0.41982 0.33613 0.0
C1156 C 0.81253 0.41638 0.34693 0.0
H1157 H 0.82401 0.41624 0.40119 0.0
H1158 H 0.8247 0.42452 0.38344 0.0
H1159 H 0.80708 0.38248 0.36301 0.0
H1160 H 0.80673 0.40472 0.3127 0.0
H1161 H 0.79805 0.4013 0.33028 0.0
C1162 C 0.79447 0.58643 0.57155 0.0
C1163 C 0.80602 0.57911 0.56456 0.0
C1164 C 0.79491 0.5815 0.58169 0.0
C1165 C 0.81233 0.54848 0.59949 0.0
H1166 H 0.80954 0.58616 0.61867 0.0
C1167 C 0.83808 0.5439 0.64024 0.0
C1168 C 0.82894 0.55241 0.64795 0.0
C1169 C 0.83291 0.54546 0.63019 0.0
C1170 C 0.81005 0.57543 0.61344 0.0
H1171 H 0.82665 0.56038 0.5627 0.0
H1172 H 0.82764 0.55201 0.58042 0.0
H1173 H 0.80488 0.59191 0.60085 0.0
H1174 H 0.80677 0.5687 0.65115 0.0
H1175 H 0.79774 0.57139 0.63358 0.0
H1176 H 0.81803 0.53212 0.61212 0.0
C1177 C 0.81807 0.5614 0.57805 0.0
C1178 C 0.80737 0.57872 0.60321 0.0
C1179 C 0.81757 0.56626 0.56788 0.0
C1180 C 0.81414 0.56203 0.6454 0.0
C1181 C 0.80902 0.56365 0.63533 0.0
C1182 C 0.81508 0.5452 0.60974 0.0
C1183 C 0.80697 0.5692 0.58511 0.0
C1184 C 0.80866 0.56533 0.59607 0.0
C1185 C 0.81852 0.55562 0.62759 0.0
C1186 C 0.81417 0.55869 0.61682 0.0
H1187 H 0.78528 0.59624 0.56924 0.0
H1188 H 0.78593 0.58752 0.58688 0.0
H1189 H 0.81316 0.53782 0.59423 0.0
H1190 H 0.84951 0.53635 0.64193 0.0
H1191 H 0.84061 0.53924 0.62442 0.0
C1192 C 0.30811 0.40374 0.06951 0.0
C1193 C 0.31323 0.38749 0.06578 0.0
C1194 C 0.30803 0.40696 0.07991 0.0
C1195 C 0.30739 0.38404 0.1045 0.0
H1196 H 0.32615 0.42663 0.1152 0.0
C1197 C 0.3306 0.39036 0.14543 0.0
C1198 C 0.32762 0.40593 0.15061 0.0
C1199 C 0.32634 0.38882 0.13525 0.0
C1200 C 0.32061 0.41479 0.11233 0.0
H1201 H 0.32256 0.36202 0.07011 0.0
H1202 H 0.32261 0.3677 0.08807 0.0
H1203 H 0.32368 0.4229 0.09697 0.0
H1204 H 0.31739 0.43197 0.14918 0.0
H1205 H 0.30994 0.42924 0.13134 0.0
H1206 H 0.30469 0.37575 0.11982 0.0
C1207 C 0.31833 0.37786 0.08302 0.0
C1208 C 0.3192 0.41265 0.10188 0.0
C1209 C 0.31842 0.37466 0.07268 0.0
C1210 C 0.31984 0.41979 0.14542 0.0
C1211 C 0.31568 0.41828 0.13518 0.0
C1212 C 0.30883 0.38616 0.11492 0.0
C1213 C 0.31301 0.39399 0.08678 0.0
C1214 C 0.31292 0.39709 0.09785 0.0
C1215 C 0.31906 0.40283 0.12996 0.0
C1216 C 0.31578 0.4014 0.11895 0.0
H1217 H 0.30401 0.4139 0.0644 0.0
H1218 H 0.3038 0.41951 0.08257 0.0
H1219 H 0.30213 0.37205 0.10165 0.0
H1220 H 0.33656 0.37942 0.14918 0.0
H1221 H 0.32929 0.37681 0.13143 0.0
C1222 C 0.30681 0.57158 0.89445 0.0
C1223 C 0.31504 0.58624 0.89844 0.0
C1224 C 0.30705 0.56842 0.88404 0.0
C1225 C 0.31349 0.59124 0.85974 0.0
H1226 H 0.32228 0.54558 0.84884 0.0
C1227 C 0.33677 0.58067 0.81918 0.0
C1228 C 0.3301 0.56674 0.81363 0.0
C1229 C 0.33266 0.58269 0.82935 0.0
C1230 C 0.31954 0.55836 0.85177 0.0
H1231 H 0.33043 0.60875 0.89461 0.0
H1232 H 0.33102 0.60312 0.87664 0.0
H1233 H 0.31973 0.5494 0.86709 0.0
H1234 H 0.31364 0.54414 0.81442 0.0
H1235 H 0.3065 0.54768 0.8323 0.0
H1236 H 0.31369 0.60029 0.84449 0.0
C1237 C 0.32405 0.59426 0.88148 0.0
C1238 C 0.31809 0.56055 0.86222 0.0
C1239 C 0.32381 0.59741 0.89182 0.0
C1240 C 0.31896 0.55503 0.81848 0.0
C1241 C 0.31496 0.55698 0.82872 0.0
C1242 C 0.31498 0.58906 0.84934 0.0
C1243 C 0.31549 0.57988 0.87743 0.0
C1244 C 0.31544 0.57709 0.86633 0.0
C1245 C 0.32185 0.5708 0.83427 0.0
C1246 C 0.31838 0.57267 0.84524 0.0
H1247 H 0.29992 0.56273 0.89933 0.0
H1248 H 0.30029 0.55724 0.88115 0.0
H1249 H 0.31102 0.60409 0.86264 0.0
H1250 H 0.34539 0.58993 0.8157 0.0
H1251 H 0.33835 0.59335 0.83344 0.0
C1252 C 0.15371 0.55313 0.64567 0.0
C1253 C 0.14379 0.56581 0.6506 0.0
C1254 C 0.15774 0.55486 0.63541 0.0
C1255 C 0.16024 0.58706 0.6148 0.0
H1256 H 0.15179 0.54809 0.59714 0.0
C1257 C 0.15227 0.59626 0.57224 0.0
C1258 C 0.16011 0.5843 0.5657 0.0
C1259 C 0.1516 0.59315 0.5826 0.0
C1260 C 0.15445 0.55902 0.60198 0.0
H1261 H 0.13079 0.5905 0.6487 0.0
H1262 H 0.13786 0.59352 0.63093 0.0
H1263 H 0.14912 0.54445 0.61539 0.0
H1264 H 0.17306 0.55943 0.56495 0.0
H1265 H 0.17193 0.55401 0.58313 0.0
H1266 H 0.16536 0.60171 0.60145 0.0
C1267 C 0.14258 0.58226 0.63495 0.0
C1268 C 0.15295 0.55693 0.61243 0.0
C1269 C 0.13844 0.58048 0.64514 0.0
C1270 C 0.16691 0.5689 0.56977 0.0
C1271 C 0.16624 0.56578 0.58018 0.0
C1272 C 0.16178 0.58914 0.60438 0.0
C1273 C 0.1521 0.5694 0.62993 0.0
C1274 C 0.15548 0.57103 0.61894 0.0
C1275 C 0.15879 0.57801 0.58672 0.0
C1276 C 0.15854 0.57525 0.59783 0.0
H1277 H 0.15801 0.54166 0.64965 0.0
H1278 H 0.16521 0.5448 0.63176 0.0
H1279 H 0.1626 0.59809 0.61962 0.0
H1280 H 0.14677 0.6082 0.56939 0.0
H1281 H 0.14542 0.60266 0.58739 0.0
C1282 C 0.16207 0.40434 0.39345 0.0
C1283 C 0.15228 0.39123 0.39807 0.0
C1284 C 0.16145 0.40679 0.38299 0.0
C1285 C 0.15147 0.38281 0.35973 0.0
H1286 H 0.14897 0.42801 0.3471 0.0
C1287 C 0.13305 0.39162 0.31813 0.0
C1288 C 0.14129 0.40451 0.31241 0.0
C1289 C 0.13602 0.39015 0.32847 0.0
C1290 C 0.14995 0.41531 0.35051 0.0
H1291 H 0.13356 0.37094 0.39532 0.0
H1292 H 0.13239 0.37532 0.37719 0.0
H1293 H 0.15043 0.42576 0.36547 0.0
H1294 H 0.15946 0.42576 0.31309 0.0
H1295 H 0.16477 0.42308 0.33121 0.0
H1296 H 0.15088 0.37232 0.34484 0.0
C1297 C 0.14081 0.38349 0.38161 0.0
C1298 C 0.15074 0.41402 0.36103 0.0
C1299 C 0.1414 0.38107 0.39203 0.0
C1300 C 0.1529 0.41568 0.31727 0.0
C1301 C 0.15585 0.41423 0.32766 0.0
C1302 C 0.15072 0.38409 0.34924 0.0
C1303 C 0.15108 0.39613 0.37693 0.0
C1304 C 0.15121 0.39774 0.36576 0.0
C1305 C 0.14732 0.40153 0.33339 0.0
C1306 C 0.14966 0.40033 0.3445 0.0
H1307 H 0.17059 0.41239 0.39787 0.0
H1308 H 0.16954 0.41662 0.3796 0.0
H1309 H 0.15224 0.37008 0.36313 0.0
H1310 H 0.12399 0.3828 0.31466 0.0
H1311 H 0.12905 0.38037 0.33266 0.0
C1312 C 0.05845 0.05142 0.2841 0.0
C1313 C 0.06771 0.06154 0.29101 0.0
C1314 C 0.04042 0.0523 0.28375 0.0
C1315 C 0.00269 0.07847 0.29222 0.0
H1316 H 0.97864 0.03467 0.29068 0.0
C1317 C 0.92813 0.074 0.29245 0.0
C1318 C 0.9208 0.06044 0.29807 0.0
C1319 C 0.94594 0.07461 0.2908 0.0
C1320 C 0.98515 0.047 0.29118 0.0
H1321 H 0.06533 0.081 0.30269 0.0
H1322 H 0.03404 0.08232 0.3022 0.0
H1323 H 0.00989 0.03531 0.28896 0.0
H1324 H 0.92648 0.03702 0.30648 0.0
H1325 H 0.95753 0.03827 0.30378 0.0
H1326 H 0.978 0.09006 0.29486 0.0
C1327 C 0.04063 0.07386 0.29695 0.0
C1328 C 0.00307 0.0474 0.29004 0.0
C1329 C 0.05861 0.07301 0.29728 0.0
C1330 C 0.93169 0.0476 0.30208 0.0
C1331 C 0.9495 0.04825 0.30046 0.0
C1332 C 0.98476 0.07806 0.2934 0.0
C1333 C 0.03128 0.0633 0.29031 0.0
C1334 C 0.01209 0.06311 0.29067 0.0
C1335 C 0.95684 0.06171 0.29475 0.0
C1336 C 0.9758 0.06229 0.29302 0.0
H1337 H 0.06507 0.04252 0.27912 0.0
H1338 H 0.03363 0.0442 0.27843 0.0
H1339 H 0.00919 0.09082 0.29263 0.0
H1340 H 0.9201 0.08406 0.28922 0.0
H1341 H 0.95114 0.08506 0.28628 0.0
C1342 C 0.1489 0.80328 0.52426 0.0
C1343 C 0.1647 0.81163 0.52249 0.0
C1344 C 0.14697 0.7857 0.52212 0.0
C1345 C 0.17312 0.74626 0.52032 0.0
H1346 H 0.13012 0.72566 0.51159 0.0
C1347 C 0.16472 0.67238 0.51968 0.0
C1348 C 0.14948 0.66637 0.52423 0.0
C1349 C 0.16649 0.68985 0.51711 0.0
C1350 C 0.14221 0.73122 0.51405 0.0
H1351 H 0.19056 0.80828 0.51651 0.0
H1352 H 0.18714 0.77763 0.5127 0.0
H1353 H 0.13337 0.75706 0.51124 0.0
H1354 H 0.1238 0.67382 0.52915 0.0
H1355 H 0.12696 0.7042 0.5248 0.0
H1356 H 0.18179 0.72055 0.52345 0.0
C1357 C 0.17632 0.78462 0.51591 0.0
C1358 C 0.14407 0.7492 0.51385 0.0
C1359 C 0.17825 0.80221 0.51804 0.0
C1360 C 0.13575 0.67801 0.52568 0.0
C1361 C 0.13751 0.69545 0.52312 0.0
C1362 C 0.17126 0.72831 0.52053 0.0
C1363 C 0.1608 0.77606 0.51815 0.0
C1364 C 0.15943 0.75695 0.51718 0.0
C1365 C 0.15305 0.70167 0.51903 0.0
C1366 C 0.15566 0.72057 0.51759 0.0
H1367 H 0.13817 0.81014 0.52765 0.0
H1368 H 0.13488 0.7795 0.52404 0.0
H1369 H 0.18503 0.75179 0.52308 0.0
H1370 H 0.17551 0.66373 0.5184 0.0
H1371 H 0.17853 0.69417 0.51383 0.0
C1372 C 0.41326 0.90006 0.77964 0.0
C1373 C 0.40575 0.91662 0.77942 0.0
C1374 C 0.43111 0.89803 0.7787 0.0
C1375 C 0.47191 0.92033 0.77185 0.0
H1376 H 0.4913 0.89101 0.79275 0.0
C1377 C 0.54575 0.90836 0.77721 0.0
C1378 C 0.55156 0.90937 0.78723 0.0
C1379 C 0.52805 0.90856 0.77505 0.0
C1380 C 0.48609 0.89924 0.78686 0.0
H1381 H 0.41101 0.94395 0.77736 0.0
H1382 H 0.44216 0.9404 0.77581 0.0
H1383 H 0.46018 0.8924 0.79057 0.0
H1384 H 0.54334 0.91169 0.80283 0.0
H1385 H 0.51268 0.91204 0.79907 0.0
H1386 H 0.49798 0.92755 0.76839 0.0
C1387 C 0.43425 0.92897 0.77667 0.0
C1388 C 0.46825 0.89988 0.78553 0.0
C1389 C 0.41638 0.93101 0.77761 0.0
C1390 C 0.53934 0.9108 0.79502 0.0
C1391 C 0.52174 0.91089 0.79288 0.0
C1392 C 0.48983 0.91961 0.77315 0.0
C1393 C 0.44186 0.9125 0.77751 0.0
C1394 C 0.46092 0.91063 0.77812 0.0
C1395 C 0.51587 0.90962 0.7829 0.0
C1396 C 0.49706 0.90931 0.78081 0.0
H1397 H 0.40544 0.88868 0.78092 0.0
H1398 H 0.43656 0.88514 0.77921 0.0
H1399 H 0.46664 0.92864 0.76602 0.0
H1400 H 0.55485 0.90728 0.77103 0.0
H1401 H 0.52388 0.90752 0.76729 0.0
C1402 C 0.30401 0.16905 0.02055 0.0
C1403 C 0.31771 0.16019 0.02523 0.0
C1404 C 0.30551 0.18659 0.01813 0.0
C1405 C 0.33686 0.22278 0.01569 0.0
H1406 H 0.29817 0.2508 0.02453 0.0
C1407 C 0.34301 0.29454 0.02657 0.0
C1408 C 0.32901 0.30577 0.02485 0.0
C1409 C 0.34178 0.27699 0.02421 0.0
C1410 C 0.30897 0.24321 0.02182 0.0
H1411 H 0.34407 0.16262 0.03054 0.0
H1412 H 0.3466 0.19319 0.02644 0.0
H1413 H 0.29574 0.21949 0.02465 0.0
H1414 H 0.30312 0.30755 0.01873 0.0
H1415 H 0.30105 0.27691 0.01452 0.0
H1416 H 0.35027 0.2466 0.01316 0.0
C1417 C 0.33473 0.18658 0.02455 0.0
C1418 C 0.30758 0.22521 0.02189 0.0
C1419 C 0.33324 0.16905 0.02696 0.0
C1420 C 0.31409 0.29923 0.02022 0.0
C1421 C 0.31287 0.28165 0.01786 0.0
C1422 C 0.33826 0.24082 0.01561 0.0
C1423 C 0.32074 0.19567 0.02033 0.0
C1424 C 0.32162 0.21476 0.01903 0.0
C1425 C 0.32653 0.27025 0.02006 0.0
C1426 C 0.32445 0.25124 0.01888 0.0
H1427 H 0.29191 0.16258 0.01904 0.0
H1428 H 0.29459 0.19315 0.01474 0.0
H1429 H 0.34783 0.21511 0.01329 0.0
H1430 H 0.35471 0.29915 0.0301 0.0
H1431 H 0.3525 0.26858 0.0261 0.0
C1432 C 0.92964 0.90526 0.66852 0.0
C1433 C 0.91975 0.92052 0.6686 0.0
C1434 C 0.94745 0.90582 0.67018 0.0
C1435 C 0.98186 0.9338 0.68067 0.0
H1436 H 0.01211 0.90475 0.66467 0.0
C1437 C 0.05536 0.94475 0.67724 0.0
C1438 C 0.06617 0.93014 0.67683 0.0
C1439 C 0.03743 0.94288 0.6774 0.0
C1440 C 0.00382 0.91276 0.66931 0.0
H1441 H 0.92086 0.94838 0.67038 0.0
H1442 H 0.95191 0.94939 0.67305 0.0
H1443 H 0.981 0.90291 0.66236 0.0
H1444 H 0.06663 0.90208 0.67673 0.0
H1445 H 0.03532 0.89885 0.67702 0.0
H1446 H 0.00479 0.94391 0.68745 0.0
C1447 C 0.94589 0.93693 0.67192 0.0
C1448 C 0.98597 0.91172 0.66799 0.0
C1449 C 0.92808 0.93636 0.67031 0.0
C1450 C 0.05867 0.91361 0.677 0.0
C1451 C 0.04073 0.91175 0.6771 0.0
C1452 C -0.00028 0.93491 0.68196 0.0
C1453 C 0.95579 0.92166 0.67191 0.0
C1454 C 0.97477 0.92232 0.67359 0.0
C1455 C 0.02992 0.92637 0.67711 0.0
C1456 C 0.01091 0.92449 0.67624 0.0
H1457 H 0.92362 0.89282 0.66729 0.0
H1458 H 0.95463 0.89378 0.67024 0.0
H1459 H 0.9736 0.94193 0.68526 0.0
H1460 H 0.06071 0.95767 0.67714 0.0
H1461 H 0.02945 0.95441 0.67733 0.0
C1462 C 0.30541 0.8057 0.94228 0.0
C1463 C 0.319 0.81449 0.93747 0.0
C1464 C 0.30697 0.78814 0.94467 0.0
C1465 C 0.33843 0.75185 0.94691 0.0
H1466 H 0.29961 0.72389 0.93849 0.0
C1467 C 0.34456 0.67987 0.93645 0.0
C1468 C 0.33066 0.66871 0.93838 0.0
C1469 C 0.34329 0.69749 0.93865 0.0
C1470 C 0.31045 0.73147 0.94108 0.0
H1471 H 0.34521 0.8119 0.9319 0.0
H1472 H 0.34785 0.78132 0.93598 0.0
H1473 H 0.29712 0.75522 0.93827 0.0
H1474 H 0.30486 0.66715 0.94466 0.0
H1475 H 0.30271 0.6979 0.9486 0.0
H1476 H 0.35192 0.72802 0.94944 0.0
C1477 C 0.33603 0.78799 0.93797 0.0
C1478 C 0.30903 0.74948 0.94095 0.0
C1479 C 0.33447 0.80553 0.93558 0.0
C1480 C 0.31577 0.67541 0.94302 0.0
C1481 C 0.3145 0.69306 0.94523 0.0
C1482 C 0.33985 0.73381 0.94705 0.0
C1483 C 0.32216 0.77899 0.94233 0.0
C1484 C 0.32311 0.7599 0.94367 0.0
C1485 C 0.32809 0.70437 0.94285 0.0
C1486 C 0.326 0.72341 0.94393 0.0
H1487 H 0.29335 0.81224 0.9439 0.0
H1488 H 0.29614 0.78164 0.94817 0.0
H1489 H 0.34942 0.75951 0.9492 0.0
H1490 H 0.35624 0.67514 0.9329 0.0
H1491 H 0.35395 0.70583 0.93662 0.0
C1492 C 0.42035 0.07659 0.17864 0.0
C1493 C 0.40968 0.06376 0.18279 0.0
C1494 C 0.43781 0.07737 0.18117 0.0
C1495 C 0.47296 0.04921 0.19013 0.0
H1496 H 0.49852 0.09222 0.18966 0.0
C1497 C 0.5446 0.0522 0.17957 0.0
C1498 C 0.5552 0.06503 0.18374 0.0
C1499 C 0.52704 0.05161 0.18186 0.0
C1500 C 0.49162 0.08008 0.19 0.0
H1501 H 0.40877 0.04226 0.19331 0.0
H1502 H 0.43924 0.04381 0.19788 0.0
H1503 H 0.46714 0.09293 0.18977 0.0
H1504 H 0.5558 0.0868 0.19401 0.0
H1505 H 0.5251 0.08562 0.19815 0.0
H1506 H 0.49744 0.03637 0.19038 0.0
C1507 C 0.43417 0.05306 0.19249 0.0
C1508 C 0.47359 0.08049 0.18993 0.0
C1509 C 0.41668 0.05222 0.18991 0.0
C1510 C 0.54796 0.07682 0.19062 0.0
C1511 C 0.53035 0.0762 0.19294 0.0
C1512 C 0.49099 0.04881 0.19027 0.0
C1513 C 0.44504 0.06541 0.18798 0.0
C1514 C 0.46403 0.06506 0.18966 0.0
C1515 C 0.5196 0.06379 0.18843 0.0
C1516 C 0.50055 0.06423 0.18989 0.0
H1517 H 0.41539 0.0857 0.17313 0.0
H1518 H 0.44578 0.08691 0.17742 0.0
H1519 H 0.46608 0.03706 0.18988 0.0
H1520 H 0.54974 0.0429 0.17425 0.0
H1521 H 0.51917 0.04203 0.17811 0.0
C1522 C 0.18538 0.30532 0.43991 0.0
C1523 C 0.16944 0.31395 0.44055 0.0
C1524 C 0.18669 0.28777 0.44232 0.0
C1525 C 0.16005 0.24875 0.44264 0.0
H1526 H 0.20089 0.22779 0.45437 0.0
C1527 C 0.16828 0.17474 0.44412 0.0
C1528 C 0.18437 0.16865 0.44071 0.0
C1529 C 0.16594 0.19223 0.44644 0.0
C1530 C 0.18941 0.23345 0.45107 0.0
H1531 H 0.14255 0.31112 0.44481 0.0
H1532 H 0.14488 0.28048 0.44908 0.0
H1533 H 0.19772 0.25922 0.45436 0.0
H1534 H 0.21082 0.17601 0.43755 0.0
H1535 H 0.2067 0.20643 0.44147 0.0
H1536 H 0.15199 0.22309 0.43902 0.0
C1537 C 0.15632 0.28726 0.44656 0.0
C1538 C 0.18759 0.25144 0.45107 0.0
C1539 C 0.15501 0.30484 0.44416 0.0
C1540 C 0.19825 0.18026 0.44013 0.0
C1541 C 0.19591 0.19772 0.44245 0.0
C1542 C 0.16188 0.23077 0.44263 0.0
C1543 C 0.17208 0.27842 0.44543 0.0
C1544 C 0.17307 0.25932 0.44665 0.0
C1545 C 0.17964 0.204 0.44542 0.0
C1546 C 0.17676 0.22291 0.44664 0.0
H1547 H 0.19677 0.31194 0.43718 0.0
H1548 H 0.199 0.28134 0.44127 0.0
H1549 H 0.14882 0.25437 0.43904 0.0
H1550 H 0.15734 0.16611 0.44471 0.0
H1551 H 0.15331 0.1966 0.44885 0.0
C1552 C 0.79965 0.17033 0.43523 0.0
C1553 C 0.81589 0.16239 0.43625 0.0
C1554 C 0.79743 0.18782 0.43755 0.0
C1555 C 0.82228 0.22807 0.43858 0.0
H1556 H 0.77979 0.2469 0.4495 0.0
C1557 C 0.811 0.30166 0.44086 0.0
C1558 C 0.79496 0.30733 0.43715 0.0
C1559 C 0.81386 0.28413 0.44293 0.0
C1560 C 0.79172 0.24184 0.44642 0.0
H1561 H 0.84235 0.16639 0.44103 0.0
H1562 H 0.83842 0.1969 0.44515 0.0
H1563 H 0.78428 0.21564 0.44931 0.0
H1564 H 0.76908 0.29915 0.4332 0.0
H1565 H 0.7741 0.26868 0.43672 0.0
H1566 H 0.82952 0.25418 0.4354 0.0
C1567 C 0.82746 0.18965 0.4424 0.0
C1568 C 0.7943 0.22393 0.44631 0.0
C1569 C 0.82968 0.17213 0.44009 0.0
C1570 C 0.78161 0.29523 0.43602 0.0
C1571 C 0.78446 0.27773 0.43811 0.0
C1572 C 0.8197 0.24596 0.43868 0.0
C1573 C 0.8114 0.19779 0.44095 0.0
C1574 C 0.80946 0.21682 0.4422 0.0
C1575 C 0.80072 0.27191 0.44138 0.0
C1576 C 0.80424 0.25305 0.44241 0.0
H1577 H 0.78874 0.16321 0.43231 0.0
H1578 H 0.78493 0.19369 0.43623 0.0
H1579 H 0.834 0.22304 0.43522 0.0
H1580 H 0.82154 0.31066 0.44187 0.0
H1581 H 0.82646 0.2801 0.44558 0.0
C1582 C 0.64647 0.6714 0.93508 0.0
C1583 C 0.66147 0.66157 0.9368 0.0
C1584 C 0.64592 0.68894 0.93758 0.0
C1585 C 0.67509 0.72583 0.94063 0.0
H1586 H 0.63351 0.74944 0.9494 0.0
C1587 C 0.67266 0.80004 0.94339 0.0
C1588 C 0.65821 0.80779 0.93882 0.0
C1589 C 0.67288 0.78229 0.94543 0.0
C1590 C 0.64522 0.74304 0.94694 0.0
H1591 H 0.68733 0.66224 0.94304 0.0
H1592 H 0.68629 0.69283 0.9475 0.0
H1593 H 0.63423 0.71787 0.94895 0.0
H1594 H 0.6323 0.80309 0.93331 0.0
H1595 H 0.63275 0.77219 0.93675 0.0
H1596 H 0.68593 0.75091 0.93832 0.0
C1597 C 0.67506 0.68703 0.94405 0.0
C1598 C 0.64563 0.72496 0.94668 0.0
C1599 C 0.67561 0.66947 0.94154 0.0
C1600 C 0.64367 0.79755 0.93681 0.0
C1601 C 0.64388 0.77981 0.93884 0.0
C1602 C 0.67468 0.74389 0.9409 0.0
C1603 C 0.66035 0.69707 0.94188 0.0
C1604 C 0.66046 0.71614 0.94333 0.0
C1605 C 0.65864 0.77189 0.94295 0.0
C1606 C 0.65963 0.75272 0.94386 0.0
H1607 H 0.63533 0.66572 0.93146 0.0
H1608 H 0.63444 0.69629 0.93571 0.0
H1609 H 0.68664 0.71951 0.93787 0.0
H1610 H 0.68404 0.80758 0.94511 0.0
H1611 H 0.68435 0.77663 0.94875 0.0
C1612 C 0.67658 0.30846 0.02096 0.0
C1613 C 0.66243 0.31719 0.02524 0.0
C1614 C 0.67524 0.29105 0.01823 0.0
C1615 C 0.64395 0.25525 0.01413 0.0
H1616 H 0.68146 0.22648 0.02387 0.0
C1617 C 0.63626 0.18304 0.02379 0.0
C1618 C 0.65035 0.1718 0.02241 0.0
C1619 C 0.63782 0.20068 0.02169 0.0
C1620 C 0.67101 0.2343 0.0209 0.0
H1621 H 0.63552 0.31473 0.02951 0.0
H1622 H 0.63325 0.2844 0.02489 0.0
H1623 H 0.68407 0.25776 0.02455 0.0
H1624 H 0.67681 0.17012 0.01713 0.0
H1625 H 0.67945 0.20091 0.01337 0.0
H1626 H 0.63068 0.23169 0.01079 0.0
C1627 C 0.64535 0.29099 0.02355 0.0
C1628 C 0.67251 0.25228 0.02129 0.0
C1629 C 0.64669 0.30838 0.02626 0.0
C1630 C 0.66574 0.17844 0.01835 0.0
C1631 C 0.66729 0.19611 0.01625 0.0
C1632 C 0.64245 0.23724 0.01374 0.0
C1633 C 0.65972 0.282 0.01972 0.0
C1634 C 0.65886 0.26298 0.01811 0.0
C1635 C 0.65349 0.20751 0.01815 0.0
C1636 C 0.65582 0.22655 0.01732 0.0
H1637 H 0.68887 0.31489 0.01999 0.0
H1638 H 0.68647 0.28457 0.01516 0.0
H1639 H 0.6333 0.26313 0.01147 0.0
H1640 H 0.6242 0.17836 0.02688 0.0
H1641 H 0.62697 0.20908 0.02333 0.0
C1642 C 0.8285 0.80267 0.52294 0.0
C1643 C 0.81467 0.81253 0.52673 0.0
C1644 C 0.82635 0.7851 0.52078 0.0
C1645 C 0.7933 0.75083 0.51715 0.0
H1646 H 0.82859 0.7207 0.52823 0.0
C1647 C 0.7808 0.67975 0.52785 0.0
C1648 C 0.79418 0.66758 0.52676 0.0
C1649 C 0.78361 0.69721 0.52569 0.0
C1650 C 0.81876 0.72888 0.52491 0.0
H1651 H 0.78753 0.81185 0.53072 0.0
H1652 H 0.78383 0.7813 0.52704 0.0
H1653 H 0.83298 0.75183 0.5282 0.0
H1654 H 0.82078 0.6641 0.52205 0.0
H1655 H 0.82564 0.6946 0.5182 0.0
H1656 H 0.77886 0.72785 0.51412 0.0
C1657 C 0.79631 0.78711 0.52566 0.0
C1658 C 0.82128 0.74677 0.52489 0.0
C1659 C 0.79847 0.80464 0.52784 0.0
C1660 C 0.81022 0.67316 0.52303 0.0
C1661 C 0.81304 0.69065 0.52088 0.0
C1662 C 0.79077 0.73293 0.51716 0.0
C1663 C 0.81031 0.77703 0.52232 0.0
C1664 C 0.80843 0.75799 0.5212 0.0
C1665 C 0.79987 0.70293 0.52238 0.0
C1666 C 0.80332 0.72176 0.52123 0.0
H1667 H 0.84114 0.80836 0.52195 0.0
H1668 H 0.83733 0.77776 0.51807 0.0
H1669 H 0.78326 0.7591 0.5141 0.0
H1670 H 0.76827 0.67591 0.53068 0.0
H1671 H 0.77323 0.70632 0.52704 0.0
C1672 C 0.55147 0.58093 0.77726 0.0
C1673 C 0.56026 0.56506 0.77649 0.0
C1674 C 0.53396 0.58212 0.77484 0.0
C1675 C 0.49521 0.55505 0.77394 0.0
H1676 H 0.47433 0.5961 0.76228 0.0
C1677 C 0.42137 0.56201 0.77096 0.0
C1678 C 0.41471 0.57788 0.77439 0.0
C1679 C 0.43903 0.5601 0.76904 0.0
C1680 C 0.47996 0.58456 0.76557 0.0
H1681 H 0.55774 0.53819 0.77208 0.0
H1682 H 0.52719 0.54033 0.76778 0.0
H1683 H 0.50571 0.59335 0.76276 0.0
H1684 H 0.42127 0.60441 0.778 0.0
H1685 H 0.45197 0.60103 0.77476 0.0
H1686 H 0.46954 0.54647 0.77703 0.0
C1687 C 0.5338 0.55179 0.7704 0.0
C1688 C 0.49794 0.58298 0.76584 0.0
C1689 C 0.55133 0.55059 0.77281 0.0
C1690 C 0.42596 0.59199 0.77539 0.0
C1691 C 0.44359 0.59009 0.77347 0.0
C1692 C 0.47725 0.55662 0.77367 0.0
C1693 C 0.52482 0.56748 0.77159 0.0
C1694 C 0.50578 0.56836 0.77021 0.0
C1695 C 0.4504 0.57402 0.77049 0.0
C1696 C 0.4694 0.57155 0.76966 0.0
H1697 H 0.55795 0.59234 0.78005 0.0
H1698 H 0.52743 0.59438 0.77595 0.0
H1699 H 0.50079 0.54373 0.7775 0.0
H1700 H 0.41304 0.5509 0.77006 0.0
H1701 H 0.44382 0.54762 0.76661 0.0
C1702 C 0.05001 0.40755 0.27208 0.0
C1703 C 0.05679 0.41204 0.28156 0.0
C1704 C 0.03213 0.40748 0.27049 0.0
C1705 C -0.00822 0.4024 0.28452 0.0
H1706 H 0.96933 0.42411 0.26162 0.0
C1707 C 0.91862 0.39802 0.27961 0.0
C1708 C 0.91027 0.414 0.2782 0.0
C1709 C 0.93644 0.39654 0.27826 0.0
C1710 C 0.97545 0.41794 0.26803 0.0
H1711 H 0.05011 0.42054 0.29666 0.0
H1712 H 0.01914 0.42033 0.29389 0.0
H1713 H 0.00092 0.42449 0.2629 0.0
H1714 H 0.91393 0.44068 0.27359 0.0
H1715 H 0.94508 0.43807 0.27126 0.0
H1716 H 0.96651 0.39615 0.2898 0.0
C1717 C 0.02759 0.4167 0.28773 0.0
C1718 C -0.0065 0.41807 0.26872 0.0
C1719 C 0.04537 0.41689 0.28929 0.0
C1720 C 0.91998 0.4282 0.27479 0.0
C1721 C 0.93782 0.42669 0.2734 0.0
C1722 C 0.97384 0.40213 0.28378 0.0
C1723 C 0.02076 0.41175 0.27837 0.0
C1724 C 0.00179 0.41057 0.27709 0.0
C1725 C 0.9463 0.41098 0.27544 0.0
C1726 C 0.96544 0.41008 0.2756 0.0
H1727 H 0.05848 0.40379 0.26596 0.0
H1728 H 0.02718 0.4036 0.26321 0.0
H1729 H -0.00216 0.39635 0.29099 0.0
H1730 H 0.91152 0.38677 0.28215 0.0
H1731 H 0.94259 0.38419 0.27973 0.0
C1732 C 0.42096 0.42973 0.17858 0.0
C1733 C 0.41124 0.41717 0.18372 0.0
C1734 C 0.43892 0.42995 0.17935 0.0
C1735 C 0.47644 0.41485 0.19394 0.0
H1736 H 0.49945 0.41621 0.16795 0.0
C1737 C 0.55066 0.42326 0.18783 0.0
C1738 C 0.55815 0.41275 0.18035 0.0
C1739 C 0.53277 0.42317 0.18938 0.0
C1740 C 0.49322 0.41574 0.17527 0.0
H1741 H 0.41273 0.39563 0.1942 0.0
H1742 H 0.44422 0.3961 0.19557 0.0
H1743 H 0.46813 0.41823 0.16875 0.0
H1744 H 0.55281 0.39329 0.16901 0.0
H1745 H 0.52174 0.39328 0.17168 0.0
H1746 H 0.50174 0.41237 0.20041 0.0
C1747 C 0.43786 0.40573 0.19093 0.0
C1748 C 0.4753 0.41708 0.17573 0.0
C1749 C 0.41984 0.40543 0.1901 0.0
C1750 C 0.54748 0.40165 0.17478 0.0
C1751 C 0.52966 0.40168 0.17627 0.0
C1752 C 0.49448 0.41372 0.19348 0.0
C1753 C 0.44758 0.41769 0.18533 0.0
C1754 C 0.4667 0.41662 0.18505 0.0
C1755 C 0.52208 0.4127 0.18343 0.0
C1756 C 0.50302 0.41403 0.18412 0.0
H1757 H 0.41477 0.43906 0.17365 0.0
H1758 H 0.44608 0.43948 0.17507 0.0
H1759 H 0.47012 0.4145 0.20122 0.0
H1760 H 0.55853 0.43191 0.19227 0.0
H1761 H 0.52725 0.43183 0.19493 0.0
C1762 C 0.92235 0.58154 0.6851 0.0
C1763 C 0.91369 0.56572 0.68628 0.0
C1764 C 0.93981 0.58298 0.68757 0.0
C1765 C 0.9788 0.55617 0.68952 0.0
H1766 H -0.00096 0.59817 0.7001 0.0
C1767 C 0.0525 0.56368 0.69286 0.0
C1768 C 0.05909 0.57929 0.68902 0.0
C1769 C 0.03482 0.56184 0.69469 0.0
C1770 C -0.00641 0.58637 0.69712 0.0
H1771 H 0.91637 0.53923 0.69149 0.0
H1772 H 0.94683 0.54181 0.6959 0.0
H1773 H 0.9677 0.59526 0.69949 0.0
H1774 H 0.05235 0.60546 0.68456 0.0
H1775 H 0.02161 0.6022 0.68763 0.0
H1776 H 0.00461 0.54746 0.68687 0.0
C1777 C 0.94017 0.55303 0.6929 0.0
C1778 C 0.97563 0.5847 0.69677 0.0
C1779 C 0.92268 0.55158 0.69043 0.0
C1780 C 0.04772 0.59325 0.68749 0.0
C1781 C 0.03007 0.59141 0.68932 0.0
C1782 C -0.00327 0.55784 0.68987 0.0
C1783 C 0.94902 0.56865 0.6913 0.0
C1784 C 0.96802 0.56971 0.69278 0.0
C1785 C 0.02334 0.57557 0.69273 0.0
C1786 C 0.00435 0.57309 0.69349 0.0
H1787 H 0.91582 0.5927 0.68194 0.0
H1788 H 0.94625 0.59516 0.68614 0.0
H1789 H 0.9734 0.54455 0.68627 0.0
H1790 H 0.06092 0.5527 0.69417 0.0
H1791 H 0.03008 0.54955 0.69745 0.0
loop_
_geom_bond_atom_site_label_1
_geom_bond_atom_site_label_2
_geom_bond_distance
_geom_bond_site_symmetry_2
_ccdc_geom_bond_type
O0 Cd1 2.300 . S
O0 C7 1.275 . S
Cd1 O0 2.300 . S
Cd1 O9 2.381 . S
Cd1 O10 2.378 . S
O2 Cd3 2.385 . S
O2 C7 1.255 . S
Cd3 O2 2.385 . S
Cd3 O4 2.317 . S
O4 Cd3 2.317 . S
O4 C5 1.232 . S
C5 O4 1.232 . S
C5 O6 1.218 . S
O6 C5 1.218 . S
C7 O0 1.275 . S
C7 O2 1.255 . S
C8 O9 1.258 . S
C8 O10 1.256 . S
O9 Cd1 2.381 . S
O9 C8 1.258 . S
O10 Cd1 2.378 . S
O10 C8 1.256 . S
O11 Cd12 2.300 . S
O11 C18 1.275 . S
Cd12 O11 2.300 . S
Cd12 O20 2.381 . S
Cd12 O21 2.378 . S
O13 Cd14 2.385 . S
O13 C18 1.255 . S
Cd14 O13 2.385 . S
Cd14 O15 2.317 . S
O15 Cd14 2.317 . S
O15 C16 1.232 . S
C16 O15 1.232 . S
C16 O17 1.218 . S
O17 C16 1.218 . S
C18 O11 1.275 . S
C18 O13 1.255 . S
C19 O20 1.258 . S
C19 O21 1.256 . S
O20 Cd12 2.381 . S
O20 C19 1.258 . S
O21 Cd12 2.378 . S
O21 C19 1.256 . S
O22 Cd23 2.300 . S
O22 C29 1.275 . S
Cd23 O22 2.300 . S
Cd23 O31 2.381 . S
Cd23 O32 2.378 . S
O24 Cd25 2.385 . S
O24 C29 1.255 . S
Cd25 O24 2.385 . S
Cd25 O26 2.317 . S
O26 Cd25 2.317 . S
O26 C27 1.232 . S
C27 O26 1.232 . S
C27 O28 1.218 . S
O28 C27 1.218 . S
C29 O22 1.275 . S
C29 O24 1.255 . S
C30 O31 1.258 . S
C30 O32 1.256 . S
O31 Cd23 2.381 . S
O31 C30 1.258 . S
O32 Cd23 2.378 . S
O32 C30 1.256 . S
O33 Cd34 2.300 . S
O33 C40 1.275 . S
Cd34 O33 2.300 . S
Cd34 O42 2.381 . S
Cd34 O43 2.378 . S
O35 Cd36 2.385 . S
O35 C40 1.255 . S
Cd36 O35 2.385 . S
Cd36 O37 2.317 . S
O37 Cd36 2.317 . S
O37 C38 1.232 . S
C38 O37 1.232 . S
C38 O39 1.218 . S
O39 C38 1.218 . S
C40 O33 1.275 . S
C40 O35 1.255 . S
C41 O42 1.258 . S
C41 O43 1.256 . S
O42 Cd34 2.381 . S
O42 C41 1.258 . S
O43 Cd34 2.378 . S
O43 C41 1.256 . S
O44 Cd45 2.300 . S
O44 C51 1.275 . S
Cd45 O44 2.300 . S
Cd45 O53 2.381 . S
Cd45 O54 2.378 . S
O46 Cd47 2.385 . S
O46 C51 1.255 . S
Cd47 O46 2.385 . S
Cd47 O48 2.317 . S
O48 Cd47 2.317 . S
O48 C49 1.232 . S
C49 O48 1.232 . S
C49 O50 1.218 . S
O50 C49 1.218 . S
C51 O44 1.275 . S
C51 O46 1.255 . S
C52 O53 1.258 . S
C52 O54 1.256 . S
O53 Cd45 2.381 . S
O53 C52 1.258 . S
O54 Cd45 2.378 . S
O54 C52 1.256 . S
O55 Cd56 2.300 . S
O55 C62 1.275 . S
Cd56 O55 2.300 . S
Cd56 O64 2.381 . S
Cd56 O65 2.378 . S
O57 Cd58 2.385 . S
O57 C62 1.255 . S
Cd58 O57 2.385 . S
Cd58 O59 2.317 . S
O59 Cd58 2.317 . S
O59 C60 1.232 . S
C60 O59 1.232 . S
C60 O61 1.218 . S
O61 C60 1.218 . S
C62 O55 1.275 . S
C62 O57 1.255 . S
C63 O64 1.258 . S
C63 O65 1.256 . S
O64 Cd56 2.381 . S
O64 C63 1.258 . S
O65 Cd56 2.378 . S
O65 C63 1.256 . S
O66 Cd67 2.300 . S
O66 C73 1.275 . S
Cd67 O66 2.300 . S
Cd67 O75 2.381 . S
Cd67 O76 2.378 . S
O68 Cd69 2.385 . S
O68 C73 1.255 . S
Cd69 O68 2.385 . S
Cd69 O70 2.317 . S
O70 Cd69 2.317 . S
O70 C71 1.232 . S
C71 O70 1.232 . S
C71 O72 1.218 . S
O72 C71 1.218 . S
C73 O66 1.275 . S
C73 O68 1.255 . S
C74 O75 1.258 . S
C74 O76 1.256 . S
O75 Cd67 2.381 . S
O75 C74 1.258 . S
O76 Cd67 2.378 . S
O76 C74 1.256 . S
O77 Cd78 2.300 . S
O77 C84 1.275 . S
Cd78 O77 2.300 . S
Cd78 O86 2.381 . S
Cd78 O87 2.378 . S
O79 Cd80 2.385 . S
O79 C84 1.255 . S
Cd80 O79 2.385 . S
Cd80 O81 2.317 . S
O81 Cd80 2.317 . S
O81 C82 1.232 . S
C82 O81 1.232 . S
C82 O83 1.218 . S
O83 C82 1.218 . S
C84 O77 1.275 . S
C84 O79 1.255 . S
C85 O86 1.258 . S
C85 O87 1.256 . S
O86 Cd78 2.381 . S
O86 C85 1.258 . S
O87 Cd78 2.378 . S
O87 C85 1.256 . S
O88 Cd89 2.300 . S
O88 C95 1.275 . S
Cd89 O88 2.300 . S
Cd89 O97 2.381 . S
Cd89 O98 2.378 . S
O90 Cd91 2.385 . S
O90 C95 1.255 . S
Cd91 O90 2.385 . S
Cd91 O92 2.317 . S
O92 Cd91 2.317 . S
O92 C93 1.232 . S
C93 O92 1.232 . S
C93 O94 1.218 . S
O94 C93 1.218 . S
C95 O88 1.275 . S
C95 O90 1.255 . S
C96 O97 1.258 . S
C96 O98 1.256 . S
O97 Cd89 2.381 . S
O97 C96 1.258 . S
O98 Cd89 2.378 . S
O98 C96 1.256 . S
O99 Cd100 2.300 . S
O99 C106 1.275 . S
Cd100 O99 2.300 . S
Cd100 O108 2.381 . S
Cd100 O109 2.378 . S
O101 Cd102 2.385 . S
O101 C106 1.255 . S
Cd102 O101 2.385 . S
Cd102 O103 2.317 . S
O103 Cd102 2.317 . S
O103 C104 1.232 . S
C104 O103 1.232 . S
C104 O105 1.218 . S
O105 C104 1.218 . S
C106 O99 1.275 . S
C106 O101 1.255 . S
C107 O108 1.258 . S
C107 O109 1.256 . S
O108 Cd100 2.381 . S
O108 C107 1.258 . S
O109 Cd100 2.378 . S
O109 C107 1.256 . S
O110 Cd111 2.300 . S
O110 C117 1.275 . S
Cd111 O110 2.300 . S
Cd111 O119 2.381 . S
Cd111 O120 2.378 . S
O112 Cd113 2.385 . S
O112 C117 1.255 . S
Cd113 O112 2.385 . S
Cd113 O114 2.317 . S
O114 Cd113 2.317 . S
O114 C115 1.232 . S
C115 O114 1.232 . S
C115 O116 1.218 . S
O116 C115 1.218 . S
C117 O110 1.275 . S
C117 O112 1.255 . S
C118 O119 1.258 . S
C118 O120 1.256 . S
O119 Cd111 2.381 . S
O119 C118 1.258 . S
O120 Cd111 2.378 . S
O120 C118 1.256 . S
O121 Cd122 2.300 . S
O121 C128 1.275 . S
Cd122 O121 2.300 . S
Cd122 O130 2.381 . S
Cd122 O131 2.378 . S
O123 Cd124 2.385 . S
O123 C128 1.255 . S
Cd124 O123 2.385 . S
Cd124 O125 2.317 . S
O125 Cd124 2.317 . S
O125 C126 1.232 . S
C126 O125 1.232 . S
C126 O127 1.218 . S
O127 C126 1.218 . S
C128 O121 1.275 . S
C128 O123 1.255 . S
C129 O130 1.258 . S
C129 O131 1.256 . S
O130 Cd122 2.381 . S
O130 C129 1.258 . S
O131 Cd122 2.378 . S
O131 C129 1.256 . S
O132 Cd133 2.300 . S
O132 C139 1.275 . S
Cd133 O132 2.300 . S
Cd133 O141 2.381 . S
Cd133 O142 2.378 . S
O134 Cd135 2.385 . S
O134 C139 1.255 . S
Cd135 O134 2.385 . S
Cd135 O136 2.317 . S
O136 Cd135 2.317 . S
O136 C137 1.232 . S
C137 O136 1.232 . S
C137 O138 1.218 . S
O138 C137 1.218 . S
C139 O132 1.275 . S
C139 O134 1.255 . S
C140 O141 1.258 . S
C140 O142 1.256 . S
O141 Cd133 2.381 . S
O141 C140 1.258 . S
O142 Cd133 2.378 . S
O142 C140 1.256 . S
O143 Cd144 2.300 . S
O143 C150 1.275 . S
Cd144 O143 2.300 . S
Cd144 O152 2.381 . S
Cd144 O153 2.378 . S
O145 Cd146 2.385 . S
O145 C150 1.255 . S
Cd146 O145 2.385 . S
Cd146 O147 2.317 . S
O147 Cd146 2.317 . S
O147 C148 1.232 . S
C148 O147 1.232 . S
C148 O149 1.218 . S
O149 C148 1.218 . S
C150 O143 1.275 . S
C150 O145 1.255 . S
C151 O152 1.258 . S
C151 O153 1.256 . S
O152 Cd144 2.381 . S
O152 C151 1.258 . S
O153 Cd144 2.378 . S
O153 C151 1.256 . S
O154 Cd155 2.300 . S
O154 C161 1.275 . S
Cd155 O154 2.300 . S
Cd155 O163 2.381 . S
Cd155 O164 2.378 . S
O156 Cd157 2.385 . S
O156 C161 1.255 . S
Cd157 O156 2.385 . S
Cd157 O158 2.317 . S
O158 Cd157 2.317 . S
O158 C159 1.232 . S
C159 O158 1.232 . S
C159 O160 1.218 . S
O160 C159 1.218 . S
C161 O154 1.275 . S
C161 O156 1.255 . S
C162 O163 1.258 . S
C162 O164 1.256 . S
O163 Cd155 2.381 . S
O163 C162 1.258 . S
O164 Cd155 2.378 . S
O164 C162 1.256 . S
O165 Cd166 2.300 . S
O165 C172 1.275 . S
Cd166 O165 2.300 . S
Cd166 O174 2.381 . S
Cd166 O175 2.378 . S
O167 Cd168 2.385 . S
O167 C172 1.255 . S
Cd168 O167 2.385 . S
Cd168 O169 2.317 . S
O169 Cd168 2.317 . S
O169 C170 1.232 . S
C170 O169 1.232 . S
C170 O171 1.218 . S
O171 C170 1.218 . S
C172 O165 1.275 . S
C172 O167 1.255 . S
C173 O174 1.258 . S
C173 O175 1.256 . S
O174 Cd166 2.381 . S
O174 C173 1.258 . S
O175 Cd166 2.378 . S
O175 C173 1.256 . S
O176 Cd177 2.300 . S
O176 C183 1.275 . S
Cd177 O176 2.300 . S
Cd177 O185 2.381 . S
Cd177 O186 2.378 . S
O178 Cd179 2.385 . S
O178 C183 1.255 . S
Cd179 O178 2.385 . S
Cd179 O180 2.317 . S
O180 Cd179 2.317 . S
O180 C181 1.232 . S
C181 O180 1.232 . S
C181 O182 1.218 . S
O182 C181 1.218 . S
C183 O176 1.275 . S
C183 O178 1.255 . S
C184 O185 1.258 . S
C184 O186 1.256 . S
O185 Cd177 2.381 . S
O185 C184 1.258 . S
O186 Cd177 2.378 . S
O186 C184 1.256 . S
O187 Cd188 2.300 . S
O187 C194 1.275 . S
Cd188 O187 2.300 . S
Cd188 O196 2.381 . S
Cd188 O197 2.378 . S
O189 Cd190 2.385 . S
O189 C194 1.255 . S
Cd190 O189 2.385 . S
Cd190 O191 2.317 . S
O191 Cd190 2.317 . S
O191 C192 1.232 . S
C192 O191 1.232 . S
C192 O193 1.218 . S
O193 C192 1.218 . S
C194 O187 1.275 . S
C194 O189 1.255 . S
C195 O196 1.258 . S
C195 O197 1.256 . S
O196 Cd188 2.381 . S
O196 C195 1.258 . S
O197 Cd188 2.378 . S
O197 C195 1.256 . S
O198 Cd199 2.300 . S
O198 C205 1.275 . S
Cd199 O198 2.300 . S
Cd199 O207 2.381 . S
Cd199 O208 2.378 . S
O200 Cd201 2.385 . S
O200 C205 1.255 . S
Cd201 O200 2.385 . S
Cd201 O202 2.317 . S
O202 Cd201 2.317 . S
O202 C203 1.232 . S
C203 O202 1.232 . S
C203 O204 1.218 . S
O204 C203 1.218 . S
C205 O198 1.275 . S
C205 O200 1.255 . S
C206 O207 1.258 . S
C206 O208 1.256 . S
O207 Cd199 2.381 . S
O207 C206 1.258 . S
O208 Cd199 2.378 . S
O208 C206 1.256 . S
O209 Cd210 2.300 . S
O209 C216 1.275 . S
Cd210 O209 2.300 . S
Cd210 O218 2.381 . S
Cd210 O219 2.378 . S
O211 Cd212 2.385 . S
O211 C216 1.255 . S
Cd212 O211 2.385 . S
Cd212 O213 2.317 . S
O213 Cd212 2.317 . S
O213 C214 1.232 . S
C214 O213 1.232 . S
C214 O215 1.218 . S
O215 C214 1.218 . S
C216 O209 1.275 . S
C216 O211 1.255 . S
C217 O218 1.258 . S
C217 O219 1.256 . S
O218 Cd210 2.381 . S
O218 C217 1.258 . S
O219 Cd210 2.378 . S
O219 C217 1.256 . S
O220 Cd221 2.300 . S
O220 C227 1.275 . S
Cd221 O220 2.300 . S
Cd221 O229 2.381 . S
Cd221 O230 2.378 . S
O222 Cd223 2.385 . S
O222 C227 1.255 . S
Cd223 O222 2.385 . S
Cd223 O224 2.317 . S
O224 Cd223 2.317 . S
O224 C225 1.232 . S
C225 O224 1.232 . S
C225 O226 1.218 . S
O226 C225 1.218 . S
C227 O220 1.275 . S
C227 O222 1.255 . S
C228 O229 1.258 . S
C228 O230 1.256 . S
O229 Cd221 2.381 . S
O229 C228 1.258 . S
O230 Cd221 2.378 . S
O230 C228 1.256 . S
O231 Cd232 2.300 . S
O231 C238 1.275 . S
Cd232 O231 2.300 . S
Cd232 O240 2.381 . S
Cd232 O241 2.378 . S
O233 Cd234 2.385 . S
O233 C238 1.255 . S
Cd234 O233 2.385 . S
Cd234 O235 2.317 . S
O235 Cd234 2.317 . S
O235 C236 1.232 . S
C236 O235 1.232 . S
C236 O237 1.218 . S
O237 C236 1.218 . S
C238 O231 1.275 . S
C238 O233 1.255 . S
C239 O240 1.258 . S
C239 O241 1.256 . S
O240 Cd232 2.381 . S
O240 C239 1.258 . S
O241 Cd232 2.378 . S
O241 C239 1.256 . S
O242 Cd243 2.300 . S
O242 C249 1.275 . S
Cd243 O242 2.300 . S
Cd243 O251 2.381 . S
Cd243 O252 2.378 . S
O244 Cd245 2.385 . S
O244 C249 1.255 . S
Cd245 O244 2.385 . S
Cd245 O246 2.317 . S
O246 Cd245 2.317 . S
O246 C247 1.232 . S
C247 O246 1.232 . S
C247 O248 1.218 . S
O248 C247 1.218 . S
C249 O242 1.275 . S
C249 O244 1.255 . S
C250 O251 1.258 . S
C250 O252 1.256 . S
O251 Cd243 2.381 . S
O251 C250 1.258 . S
O252 Cd243 2.378 . S
O252 C250 1.256 . S
O253 Cd254 2.300 . S
O253 C260 1.275 . S
Cd254 O253 2.300 . S
Cd254 O262 2.381 . S
Cd254 O263 2.378 . S
O255 Cd256 2.385 . S
O255 C260 1.255 . S
Cd256 O255 2.385 . S
Cd256 O257 2.317 . S
O257 Cd256 2.317 . S
O257 C258 1.232 . S
C258 O257 1.232 . S
C258 O259 1.218 . S
O259 C258 1.218 . S
C260 O253 1.275 . S
C260 O255 1.255 . S
C261 O262 1.258 . S
C261 O263 1.256 . S
O262 Cd254 2.381 . S
O262 C261 1.258 . S
O263 Cd254 2.378 . S
O263 C261 1.256 . S
O264 Cd265 2.300 . S
O264 C271 1.275 . S
Cd265 O264 2.300 . S
Cd265 O273 2.381 . S
Cd265 O274 2.378 . S
O266 Cd267 2.385 . S
O266 C271 1.255 . S
Cd267 O266 2.385 . S
Cd267 O268 2.317 . S
O268 Cd267 2.317 . S
O268 C269 1.232 . S
C269 O268 1.232 . S
C269 O270 1.218 . S
O270 C269 1.218 . S
C271 O264 1.275 . S
C271 O266 1.255 . S
C272 O273 1.258 . S
C272 O274 1.256 . S
O273 Cd265 2.381 . S
O273 C272 1.258 . S
O274 Cd265 2.378 . S
O274 C272 1.256 . S
O275 Cd276 2.300 . S
O275 C282 1.275 . S
Cd276 O275 2.300 . S
Cd276 O284 2.381 . S
Cd276 O285 2.378 . S
O277 Cd278 2.385 . S
O277 C282 1.255 . S
Cd278 O277 2.385 . S
Cd278 O279 2.317 . S
O279 Cd278 2.317 . S
O279 C280 1.232 . S
C280 O279 1.232 . S
C280 O281 1.218 . S
O281 C280 1.218 . S
C282 O275 1.275 . S
C282 O277 1.255 . S
C283 O284 1.258 . S
C283 O285 1.256 . S
O284 Cd276 2.381 . S
O284 C283 1.258 . S
O285 Cd276 2.378 . S
O285 C283 1.256 . S
O286 Cd287 2.300 . S
O286 C293 1.275 . S
Cd287 O286 2.300 . S
Cd287 O295 2.381 . S
Cd287 O296 2.378 . S
O288 Cd289 2.385 . S
O288 C293 1.255 . S
Cd289 O288 2.385 . S
Cd289 O290 2.317 . S
O290 Cd289 2.317 . S
O290 C291 1.232 . S
C291 O290 1.232 . S
C291 O292 1.218 . S
O292 C291 1.218 . S
C293 O286 1.275 . S
C293 O288 1.255 . S
C294 O295 1.258 . S
C294 O296 1.256 . S
O295 Cd287 2.381 . S
O295 C294 1.258 . S
O296 Cd287 2.378 . S
O296 C294 1.256 . S
O297 Cd298 2.300 . S
O297 C304 1.275 . S
Cd298 O297 2.300 . S
Cd298 O306 2.381 . S
Cd298 O307 2.378 . S
O299 Cd300 2.385 . S
O299 C304 1.255 . S
Cd300 O299 2.385 . S
Cd300 O301 2.317 . S
O301 Cd300 2.317 . S
O301 C302 1.232 . S
C302 O301 1.232 . S
C302 O303 1.218 . S
O303 C302 1.218 . S
C304 O297 1.275 . S
C304 O299 1.255 . S
C305 O306 1.258 . S
C305 O307 1.256 . S
O306 Cd298 2.381 . S
O306 C305 1.258 . S
O307 Cd298 2.378 . S
O307 C305 1.256 . S
O308 Cd309 2.300 . S
O308 C315 1.275 . S
Cd309 O308 2.300 . S
Cd309 O317 2.381 . S
Cd309 O318 2.378 . S
O310 Cd311 2.385 . S
O310 C315 1.255 . S
Cd311 O310 2.385 . S
Cd311 O312 2.317 . S
O312 Cd311 2.317 . S
O312 C313 1.232 . S
C313 O312 1.232 . S
C313 O314 1.218 . S
O314 C313 1.218 . S
C315 O308 1.275 . S
C315 O310 1.255 . S
C316 O317 1.258 . S
C316 O318 1.256 . S
O317 Cd309 2.381 . S
O317 C316 1.258 . S
O318 Cd309 2.378 . S
O318 C316 1.256 . S
O319 Cd320 2.300 . S
O319 C326 1.275 . S
Cd320 O319 2.300 . S
Cd320 O328 2.381 . S
Cd320 O329 2.378 . S
O321 Cd322 2.385 . S
O321 C326 1.255 . S
Cd322 O321 2.385 . S
Cd322 O323 2.317 . S
O323 Cd322 2.317 . S
O323 C324 1.232 . S
C324 O323 1.232 . S
C324 O325 1.218 . S
O325 C324 1.218 . S
C326 O319 1.275 . S
C326 O321 1.255 . S
C327 O328 1.258 . S
C327 O329 1.256 . S
O328 Cd320 2.381 . S
O328 C327 1.258 . S
O329 Cd320 2.378 . S
O329 C327 1.256 . S
O330 Cd331 2.300 . S
O330 C337 1.275 . S
Cd331 O330 2.300 . S
Cd331 O339 2.381 . S
Cd331 O340 2.378 . S
O332 Cd333 2.385 . S
O332 C337 1.255 . S
Cd333 O332 2.385 . S
Cd333 O334 2.317 . S
O334 Cd333 2.317 . S
O334 C335 1.232 . S
C335 O334 1.232 . S
C335 O336 1.218 . S
O336 C335 1.218 . S
C337 O330 1.275 . S
C337 O332 1.255 . S
C338 O339 1.258 . S
C338 O340 1.256 . S
O339 Cd331 2.381 . S
O339 C338 1.258 . S
O340 Cd331 2.378 . S
O340 C338 1.256 . S
O341 Cd342 2.300 . S
O341 C348 1.275 . S
Cd342 O341 2.300 . S
Cd342 O350 2.381 . S
Cd342 O351 2.378 . S
O343 Cd344 2.385 . S
O343 C348 1.255 . S
Cd344 O343 2.385 . S
Cd344 O345 2.317 . S
O345 Cd344 2.317 . S
O345 C346 1.232 . S
C346 O345 1.232 . S
C346 O347 1.218 . S
O347 C346 1.218 . S
C348 O341 1.275 . S
C348 O343 1.255 . S
C349 O350 1.258 . S
C349 O351 1.256 . S
O350 Cd342 2.381 . S
O350 C349 1.258 . S
O351 Cd342 2.378 . S
O351 C349 1.256 . S
C352 C353 1.349 . S
C352 C354 1.327 . S
C352 H377 0.950 . S
C353 C352 1.349 . S
C353 C369 1.349 . S
C354 C352 1.327 . S
C354 C373 1.429 . S
C354 H378 0.950 . S
C355 C372 1.574 . S
C355 C374 1.368 . S
C355 H379 0.949 . S
H356 C360 0.949 . S
C357 C358 1.349 . S
C357 C359 1.327 . S
C357 H380 0.950 . S
C358 C357 1.349 . S
C358 C370 1.349 . S
C359 C357 1.327 . S
C359 C375 1.429 . S
C359 H381 0.950 . S
C360 H356 0.949 . S
C360 C368 1.574 . S
C360 C376 1.368 . S
H361 C369 0.950 . S
H362 C367 0.950 . S
H363 C368 0.949 . S
H364 C370 0.950 . S
H365 C371 0.950 . S
H366 C372 0.949 . S
C367 H362 0.950 . S
C367 C369 1.327 . S
C367 C373 1.429 . S
C368 C360 1.574 . S
C368 H363 0.949 . S
C368 C374 1.368 . S
C369 C353 1.349 . S
C369 H361 0.950 . S
C369 C367 1.327 . S
C370 C358 1.349 . S
C370 H364 0.950 . S
C370 C371 1.327 . S
C371 H365 0.950 . S
C371 C370 1.327 . S
C371 C375 1.429 . S
C372 C355 1.574 . S
C372 H366 0.949 . S
C372 C376 1.368 . S
C373 C354 1.429 . S
C373 C367 1.429 . S
C373 C374 1.523 . S
C374 C355 1.368 . S
C374 C368 1.368 . S
C374 C373 1.523 . S
C375 C359 1.429 . S
C375 C371 1.429 . S
C375 C376 1.523 . S
C376 C360 1.368 . S
C376 C372 1.368 . S
C376 C375 1.523 . S
H377 C352 0.950 . S
H378 C354 0.950 . S
H379 C355 0.949 . S
H380 C357 0.950 . S
H381 C359 0.950 . S
C382 C383 1.349 . S
C382 C384 1.327 . S
C382 H407 0.950 . S
C383 C382 1.349 . S
C383 C399 1.349 . S
C384 C382 1.327 . S
C384 C403 1.429 . S
C384 H408 0.950 . S
C385 C402 1.619 . S
C385 C404 1.368 . S
C385 H409 0.949 . S
H386 C390 0.949 . S
C387 C388 1.349 . S
C387 C389 1.327 . S
C387 H410 0.950 . S
C388 C387 1.349 . S
C388 C400 1.349 . S
C389 C387 1.327 . S
C389 C405 1.429 . S
C389 H411 0.950 . S
C390 H386 0.949 . S
C390 C398 1.619 . S
C390 C406 1.368 . S
H391 C399 0.950 . S
H392 C397 0.950 . S
H393 C398 0.952 . S
H394 C400 0.950 . S
H395 C401 0.950 . S
H396 C402 0.952 . S
C397 H392 0.950 . S
C397 C399 1.327 . S
C397 C403 1.429 . S
C398 C390 1.619 . S
C398 H393 0.952 . S
C398 C404 1.323 1_565 S
C399 C383 1.349 . S
C399 H391 0.950 . S
C399 C397 1.327 . S
C400 C388 1.349 . S
C400 H394 0.950 . S
C400 C401 1.327 . S
C401 H395 0.950 . S
C401 C400 1.327 . S
C401 C405 1.429 . S
C402 C385 1.619 . S
C402 H396 0.952 . S
C402 C406 1.323 1_545 S
C403 C384 1.429 . S
C403 C397 1.429 . S
C403 C404 1.523 . S
C404 C385 1.368 . S
C404 C398 1.323 1_545 S
C404 C403 1.523 . S
C405 C389 1.429 . S
C405 C401 1.429 . S
C405 C406 1.523 . S
C406 C390 1.368 . S
C406 C402 1.323 1_565 S
C406 C405 1.523 . S
H407 C382 0.950 . S
H408 C384 0.950 . S
H409 C385 0.949 . S
H410 C387 0.950 . S
H411 C389 0.950 . S
C412 C413 1.349 . S
C412 C414 1.327 . S
C412 H437 0.950 . S
C413 C412 1.349 . S
C413 C429 1.349 . S
C414 C412 1.327 . S
C414 C433 1.429 . S
C414 H438 0.950 . S
C415 C432 1.574 . S
C415 C434 1.368 . S
C415 H439 0.949 . S
H416 C420 0.949 . S
C417 C418 1.349 . S
C417 C419 1.327 . S
C417 H440 0.950 . S
C418 C417 1.349 . S
C418 C430 1.349 . S
C419 C417 1.327 . S
C419 C435 1.429 . S
C419 H441 0.950 . S
C420 H416 0.949 . S
C420 C428 1.574 . S
C420 C436 1.368 . S
H421 C429 0.950 . S
H422 C427 0.950 . S
H423 C428 0.949 . S
H424 C430 0.950 . S
H425 C431 0.950 . S
H426 C432 0.949 . S
C427 H422 0.950 . S
C427 C429 1.327 . S
C427 C433 1.429 . S
C428 C420 1.574 . S
C428 H423 0.949 . S
C428 C434 1.368 . S
C429 C413 1.349 . S
C429 H421 0.950 . S
C429 C427 1.327 . S
C430 C418 1.349 . S
C430 H424 0.950 . S
C430 C431 1.327 . S
C431 H425 0.950 . S
C431 C430 1.327 . S
C431 C435 1.429 . S
C432 C415 1.574 . S
C432 H426 0.949 . S
C432 C436 1.368 . S
C433 C414 1.429 . S
C433 C427 1.429 . S
C433 C434 1.523 . S
C434 C415 1.368 . S
C434 C428 1.368 . S
C434 C433 1.523 . S
C435 C419 1.429 . S
C435 C431 1.429 . S
C435 C436 1.523 . S
C436 C420 1.368 . S
C436 C432 1.368 . S
C436 C435 1.523 . S
H437 C412 0.950 . S
H438 C414 0.950 . S
H439 C415 0.949 . S
H440 C417 0.950 . S
H441 C419 0.950 . S
C442 C443 1.349 . S
C442 C444 1.327 . S
C442 H467 0.950 . S
C443 C442 1.349 . S
C443 C459 1.349 . S
C444 C442 1.327 . S
C444 C463 1.429 . S
C444 H468 0.950 . S
C445 C462 1.574 . S
C445 C464 1.368 1_565 S
C445 H469 0.949 . S
H446 C450 0.949 . S
C447 C448 1.349 . S
C447 C449 1.327 . S
C447 H470 0.950 . S
C448 C447 1.349 . S
C448 C460 1.349 . S
C449 C447 1.327 . S
C449 C465 1.429 . S
C449 H471 0.950 . S
C450 H446 0.949 . S
C450 C458 1.574 . S
C450 C466 1.368 1_545 S
H451 C459 0.950 . S
H452 C457 0.950 . S
H453 C458 0.949 . S
H454 C460 0.950 . S
H455 C461 0.950 . S
H456 C462 0.949 . S
C457 H452 0.950 . S
C457 C459 1.327 . S
C457 C463 1.429 . S
C458 C450 1.574 . S
C458 H453 0.949 . S
C458 C464 1.368 1_556 S
C459 C443 1.349 . S
C459 H451 0.950 . S
C459 C457 1.327 . S
C460 C448 1.349 . S
C460 H454 0.950 . S
C460 C461 1.327 . S
C461 H455 0.950 . S
C461 C460 1.327 . S
C461 C465 1.429 . S
C462 C445 1.574 . S
C462 H456 0.949 . S
C462 C466 1.368 1_554 S
C463 C444 1.429 . S
C463 C457 1.429 . S
C463 C464 1.523 . S
C464 C445 1.368 1_545 S
C464 C458 1.368 1_554 S
C464 C463 1.523 . S
C465 C449 1.429 . S
C465 C461 1.429 . S
C465 C466 1.523 . S
C466 C450 1.368 1_565 S
C466 C462 1.368 1_556 S
C466 C465 1.523 . S
H467 C442 0.950 . S
H468 C444 0.950 . S
H469 C445 0.949 . S
H470 C447 0.950 . S
H471 C449 0.950 . S
C472 C473 1.349 . S
C472 C474 1.327 . S
C472 H497 0.950 . S
C473 C472 1.349 . S
C473 C489 1.349 . S
C474 C472 1.327 . S
C474 C493 1.429 . S
C474 H498 0.950 . S
C475 C492 1.574 . S
C475 C494 1.368 . S
C475 H499 0.949 . S
H476 C480 0.949 . S
C477 C478 1.349 . S
C477 C479 1.327 . S
C477 H500 0.950 . S
C478 C477 1.349 . S
C478 C490 1.349 . S
C479 C477 1.327 . S
C479 C495 1.429 . S
C479 H501 0.950 . S
C480 H476 0.949 . S
C480 C488 1.574 . S
C480 C496 1.368 . S
H481 C489 0.950 . S
H482 C487 0.950 . S
H483 C488 0.949 . S
H484 C490 0.950 . S
H485 C491 0.950 . S
H486 C492 0.949 . S
C487 H482 0.950 . S
C487 C489 1.327 . S
C487 C493 1.429 . S
C488 C480 1.574 . S
C488 H483 0.949 . S
C488 C494 1.368 . S
C489 C473 1.349 . S
C489 H481 0.950 . S
C489 C487 1.327 . S
C490 C478 1.349 . S
C490 H484 0.950 . S
C490 C491 1.327 . S
C491 H485 0.950 . S
C491 C490 1.327 . S
C491 C495 1.429 . S
C492 C475 1.574 . S
C492 H486 0.949 . S
C492 C496 1.368 . S
C493 C474 1.429 . S
C493 C487 1.429 . S
C493 C494 1.523 . S
C494 C475 1.368 . S
C494 C488 1.368 . S
C494 C493 1.523 . S
C495 C479 1.429 . S
C495 C491 1.429 . S
C495 C496 1.523 . S
C496 C480 1.368 . S
C496 C492 1.368 . S
C496 C495 1.523 . S
H497 C472 0.950 . S
H498 C474 0.950 . S
H499 C475 0.949 . S
H500 C477 0.950 . S
H501 C479 0.950 . S
C502 C503 1.349 . S
C502 C504 1.327 . S
C502 H527 0.950 . S
C503 C502 1.349 . S
C503 C519 1.349 . S
C504 C502 1.327 . S
C504 C523 1.429 . S
C504 H528 0.950 . S
C505 C522 1.567 1_565 S
C505 C524 1.374 . S
C505 H529 0.948 . S
H506 C510 0.948 . S
C507 C508 1.349 . S
C507 C509 1.327 . S
C507 H530 0.950 . S
C508 C507 1.349 . S
C508 C520 1.349 . S
C509 C507 1.327 . S
C509 C525 1.429 . S
C509 H531 0.950 . S
C510 H506 0.948 . S
C510 C518 1.567 1_545 S
C510 C526 1.375 . S
H511 C519 0.950 . S
H512 C517 0.950 . S
H513 C518 0.949 . S
H514 C520 0.950 . S
H515 C521 0.950 . S
H516 C522 0.949 . S
C517 H512 0.950 . S
C517 C519 1.327 . S
C517 C523 1.429 . S
C518 C510 1.567 1_565 S
C518 H513 0.949 . S
C518 C524 1.368 . S
C519 C503 1.349 . S
C519 H511 0.950 . S
C519 C517 1.327 . S
C520 C508 1.349 . S
C520 H514 0.950 . S
C520 C521 1.327 . S
C521 H515 0.950 . S
C521 C520 1.327 . S
C521 C525 1.429 . S
C522 C505 1.567 1_545 S
C522 H516 0.949 . S
C522 C526 1.368 . S
C523 C504 1.429 . S
C523 C517 1.429 . S
C523 C524 1.523 . S
C524 C505 1.374 . S
C524 C518 1.368 . S
C524 C523 1.523 . S
C525 C509 1.429 . S
C525 C521 1.429 . S
C525 C526 1.523 . S
C526 C510 1.375 . S
C526 C522 1.368 . S
C526 C525 1.523 . S
H527 C502 0.950 . S
H528 C504 0.950 . S
H529 C505 0.948 . S
H530 C507 0.950 . S
H531 C509 0.950 . S
C532 C533 1.349 . S
C532 C534 1.327 . S
C532 H557 0.950 . S
C533 C532 1.349 . S
C533 C549 1.349 . S
C534 C532 1.327 . S
C534 C553 1.429 . S
C534 H558 0.950 . S
C535 C552 1.574 . S
C535 C554 1.368 . S
C535 H559 0.949 . S
H536 C540 0.949 . S
C537 C538 1.349 . S
C537 C539 1.327 . S
C537 H560 0.950 . S
C538 C537 1.349 . S
C538 C550 1.349 . S
C539 C537 1.327 . S
C539 C555 1.429 . S
C539 H561 0.950 . S
C540 H536 0.949 . S
C540 C548 1.574 . S
C540 C556 1.368 . S
H541 C549 0.950 . S
H542 C547 0.950 . S
H543 C548 0.949 . S
H544 C550 0.950 . S
H545 C551 0.950 . S
H546 C552 0.949 . S
C547 H542 0.950 . S
C547 C549 1.327 . S
C547 C553 1.429 . S
C548 C540 1.574 . S
C548 H543 0.949 . S
C548 C554 1.368 . S
C549 C533 1.349 . S
C549 H541 0.950 . S
C549 C547 1.327 . S
C550 C538 1.349 . S
C550 H544 0.950 . S
C550 C551 1.327 . S
C551 H545 0.950 . S
C551 C550 1.327 . S
C551 C555 1.429 . S
C552 C535 1.574 . S
C552 H546 0.949 . S
C552 C556 1.368 . S
C553 C534 1.429 . S
C553 C547 1.429 . S
C553 C554 1.523 . S
C554 C535 1.368 . S
C554 C548 1.368 . S
C554 C553 1.523 . S
C555 C539 1.429 . S
C555 C551 1.429 . S
C555 C556 1.523 . S
C556 C540 1.368 . S
C556 C552 1.368 . S
C556 C555 1.523 . S
H557 C532 0.950 . S
H558 C534 0.950 . S
H559 C535 0.949 . S
H560 C537 0.950 . S
H561 C539 0.950 . S
C562 C563 1.349 . S
C562 C564 1.327 . S
C562 H587 0.950 . S
C563 C562 1.349 . S
C563 C579 1.349 . S
C564 C562 1.327 . S
C564 C583 1.429 . S
C564 H588 0.950 . S
C565 C582 1.524 1_545 S
C565 C584 1.368 1_556 S
C565 H589 0.949 . S
H566 C570 0.949 . S
C567 C568 1.349 . S
C567 C569 1.327 . S
C567 H590 0.950 . S
C568 C567 1.349 . S
C568 C580 1.349 . S
C569 C567 1.327 . S
C569 C585 1.429 . S
C569 H591 0.950 . S
C570 H566 0.949 . S
C570 C578 1.524 1_565 S
C570 C586 1.368 1_554 S
H571 C579 0.950 . S
H572 C577 0.950 . S
H573 C578 0.956 . S
H574 C580 0.950 . S
H575 C581 0.950 . S
H576 C582 0.956 . S
C577 H572 0.950 . S
C577 C579 1.327 . S
C577 C583 1.429 . S
C578 C570 1.524 1_545 S
C578 H573 0.956 . S
C578 C584 1.414 . S
C579 C563 1.349 . S
C579 H571 0.950 . S
C579 C577 1.327 . S
C580 C568 1.349 . S
C580 H574 0.950 . S
C580 C581 1.327 . S
C581 H575 0.950 . S
C581 C580 1.327 . S
C581 C585 1.429 . S
C582 C565 1.524 1_565 S
C582 H576 0.956 . S
C582 C586 1.414 . S
C583 C564 1.429 . S
C583 C577 1.429 . S
C583 C584 1.523 . S
C584 C565 1.368 1_554 S
C584 C578 1.414 . S
C584 C583 1.523 . S
C585 C569 1.429 . S
C585 C581 1.429 . S
C585 C586 1.523 . S
C586 C570 1.368 1_556 S
C586 C582 1.414 . S
C586 C585 1.523 . S
H587 C562 0.950 . S
H588 C564 0.950 . S
H589 C565 0.949 . S
H590 C567 0.950 . S
H591 C569 0.950 . S
C592 C593 1.349 . S
C592 C594 1.327 . S
C592 H617 0.950 . S
C593 C592 1.349 . S
C593 C609 1.349 . S
C594 C592 1.327 . S
C594 C613 1.429 . S
C594 H618 0.950 . S
C595 C612 1.574 . S
C595 C614 1.368 . S
C595 H619 0.949 . S
H596 C600 0.949 . S
C597 C598 1.349 . S
C597 C599 1.327 . S
C597 H620 0.950 . S
C598 C597 1.349 . S
C598 C610 1.349 . S
C599 C597 1.327 . S
C599 C615 1.429 . S
C599 H621 0.950 . S
C600 H596 0.949 . S
C600 C608 1.574 . S
C600 C616 1.368 . S
H601 C609 0.950 . S
H602 C607 0.950 . S
H603 C608 0.949 . S
H604 C610 0.950 . S
H605 C611 0.950 . S
H606 C612 0.949 . S
C607 H602 0.950 . S
C607 C609 1.327 . S
C607 C613 1.429 . S
C608 C600 1.574 . S
C608 H603 0.949 . S
C608 C614 1.368 . S
C609 C593 1.349 . S
C609 H601 0.950 . S
C609 C607 1.327 . S
C610 C598 1.349 . S
C610 H604 0.950 . S
C610 C611 1.327 . S
C611 H605 0.950 . S
C611 C610 1.327 . S
C611 C615 1.429 . S
C612 C595 1.574 . S
C612 H606 0.949 . S
C612 C616 1.368 . S
C613 C594 1.429 . S
C613 C607 1.429 . S
C613 C614 1.523 . S
C614 C595 1.368 . S
C614 C608 1.368 . S
C614 C613 1.523 . S
C615 C599 1.429 . S
C615 C611 1.429 . S
C615 C616 1.523 . S
C616 C600 1.368 . S
C616 C612 1.368 . S
C616 C615 1.523 . S
H617 C592 0.950 . S
H618 C594 0.950 . S
H619 C595 0.949 . S
H620 C597 0.950 . S
H621 C599 0.950 . S
C622 C623 1.349 . S
C622 C624 1.327 . S
C622 H647 0.950 . S
C623 C622 1.349 . S
C623 C639 1.349 . S
C624 C622 1.327 . S
C624 C643 1.429 . S
C624 H648 0.950 . S
C625 C642 1.574 . S
C625 C644 1.368 1_554 S
C625 H649 0.949 . S
H626 C630 0.949 . S
C627 C628 1.349 . S
C627 C629 1.327 . S
C627 H650 0.950 . S
C628 C627 1.349 . S
C628 C640 1.349 . S
C629 C627 1.327 . S
C629 C645 1.429 . S
C629 H651 0.950 . S
C630 H626 0.949 . S
C630 C638 1.574 . S
C630 C646 1.368 1_556 S
H631 C639 0.950 . S
H632 C637 0.950 . S
H633 C638 0.949 . S
H634 C640 0.950 . S
H635 C641 0.950 . S
H636 C642 0.949 . S
C637 H632 0.950 . S
C637 C639 1.327 . S
C637 C643 1.429 . S
C638 C630 1.574 . S
C638 H633 0.949 . S
C638 C644 1.368 . S
C639 C623 1.349 . S
C639 H631 0.950 . S
C639 C637 1.327 . S
C640 C628 1.349 . S
C640 H634 0.950 . S
C640 C641 1.327 . S
C641 H635 0.950 . S
C641 C640 1.327 . S
C641 C645 1.429 . S
C642 C625 1.574 . S
C642 H636 0.949 . S
C642 C646 1.368 . S
C643 C624 1.429 . S
C643 C637 1.429 . S
C643 C644 1.523 . S
C644 C625 1.368 1_556 S
C644 C638 1.368 . S
C644 C643 1.523 . S
C645 C629 1.429 . S
C645 C641 1.429 . S
C645 C646 1.523 . S
C646 C630 1.368 1_554 S
C646 C642 1.368 . S
C646 C645 1.523 . S
H647 C622 0.950 . S
H648 C624 0.950 . S
H649 C625 0.949 . S
H650 C627 0.950 . S
H651 C629 0.950 . S
C652 C653 1.349 . S
C652 C654 1.327 . S
C652 H677 0.950 . S
C653 C652 1.349 . S
C653 C669 1.349 . S
C654 C652 1.327 . S
C654 C673 1.429 . S
C654 H678 0.950 . S
C655 C672 1.574 . S
C655 C674 1.368 . S
C655 H679 0.949 . S
H656 C660 0.949 . S
C657 C658 1.349 . S
C657 C659 1.327 . S
C657 H680 0.950 . S
C658 C657 1.349 . S
C658 C670 1.349 . S
C659 C657 1.327 . S
C659 C675 1.429 . S
C659 H681 0.950 . S
C660 H656 0.949 . S
C660 C668 1.574 . S
C660 C676 1.368 . S
H661 C669 0.950 . S
H662 C667 0.950 . S
H663 C668 0.949 . S
H664 C670 0.950 . S
H665 C671 0.950 . S
H666 C672 0.949 . S
C667 H662 0.950 . S
C667 C669 1.327 . S
C667 C673 1.429 . S
C668 C660 1.574 . S
C668 H663 0.949 . S
C668 C674 1.368 . S
C669 C653 1.349 . S
C669 H661 0.950 . S
C669 C667 1.327 . S
C670 C658 1.349 . S
C670 H664 0.950 . S
C670 C671 1.327 . S
C671 H665 0.950 . S
C671 C670 1.327 . S
C671 C675 1.429 . S
C672 C655 1.574 . S
C672 H666 0.949 . S
C672 C676 1.368 . S
C673 C654 1.429 . S
C673 C667 1.429 . S
C673 C674 1.523 . S
C674 C655 1.368 . S
C674 C668 1.368 . S
C674 C673 1.523 . S
C675 C659 1.429 . S
C675 C671 1.429 . S
C675 C676 1.523 . S
C676 C660 1.368 . S
C676 C672 1.368 . S
C676 C675 1.523 . S
H677 C652 0.950 . S
H678 C654 0.950 . S
H679 C655 0.949 . S
H680 C657 0.950 . S
H681 C659 0.950 . S
C682 C683 1.349 . S
C682 C684 1.327 . S
C682 H707 0.950 . S
C683 C682 1.349 . S
C683 C699 1.349 . S
C684 C682 1.327 . S
C684 C703 1.429 . S
C684 H708 0.950 . S
C685 C702 1.574 . S
C685 C704 1.368 . S
C685 H709 0.949 . S
H686 C690 0.949 . S
C687 C688 1.349 . S
C687 C689 1.327 . S
C687 H710 0.950 . S
C688 C687 1.349 . S
C688 C700 1.349 . S
C689 C687 1.327 . S
C689 C705 1.429 . S
C689 H711 0.950 . S
C690 H686 0.949 . S
C690 C698 1.574 . S
C690 C706 1.368 . S
H691 C699 0.950 . S
H692 C697 0.950 . S
H693 C698 0.949 . S
H694 C700 0.950 . S
H695 C701 0.950 . S
H696 C702 0.949 . S
C697 H692 0.950 . S
C697 C699 1.327 . S
C697 C703 1.429 . S
C698 C690 1.574 . S
C698 H693 0.949 . S
C698 C704 1.368 . S
C699 C683 1.349 . S
C699 H691 0.950 . S
C699 C697 1.327 . S
C700 C688 1.349 . S
C700 H694 0.950 . S
C700 C701 1.327 . S
C701 H695 0.950 . S
C701 C700 1.327 . S
C701 C705 1.429 . S
C702 C685 1.574 . S
C702 H696 0.949 . S
C702 C706 1.368 . S
C703 C684 1.429 . S
C703 C697 1.429 . S
C703 C704 1.523 . S
C704 C685 1.368 . S
C704 C698 1.368 . S
C704 C703 1.523 . S
C705 C689 1.429 . S
C705 C701 1.429 . S
C705 C706 1.523 . S
C706 C690 1.368 . S
C706 C702 1.368 . S
C706 C705 1.523 . S
H707 C682 0.950 . S
H708 C684 0.950 . S
H709 C685 0.949 . S
H710 C687 0.950 . S
H711 C689 0.950 . S
C712 C713 1.349 . S
C712 C714 1.327 . S
C712 H737 0.950 . S
C713 C712 1.349 . S
C713 C729 1.349 . S
C714 C712 1.327 . S
C714 C733 1.429 . S
C714 H738 0.950 . S
C715 C732 1.574 . S
C715 C734 1.368 . S
C715 H739 0.949 . S
H716 C720 0.949 . S
C717 C718 1.349 . S
C717 C719 1.327 . S
C717 H740 0.950 . S
C718 C717 1.349 . S
C718 C730 1.349 . S
C719 C717 1.327 . S
C719 C735 1.429 . S
C719 H741 0.950 . S
C720 H716 0.949 . S
C720 C728 1.574 . S
C720 C736 1.368 . S
H721 C729 0.950 . S
H722 C727 0.950 . S
H723 C728 0.949 . S
H724 C730 0.950 . S
H725 C731 0.950 . S
H726 C732 0.949 . S
C727 H722 0.950 . S
C727 C729 1.327 . S
C727 C733 1.429 . S
C728 C720 1.574 . S
C728 H723 0.949 . S
C728 C734 1.368 . S
C729 C713 1.349 . S
C729 H721 0.950 . S
C729 C727 1.327 . S
C730 C718 1.349 . S
C730 H724 0.950 . S
C730 C731 1.327 . S
C731 H725 0.950 . S
C731 C730 1.327 . S
C731 C735 1.429 . S
C732 C715 1.574 . S
C732 H726 0.949 . S
C732 C736 1.368 . S
C733 C714 1.429 . S
C733 C727 1.429 . S
C733 C734 1.523 . S
C734 C715 1.368 . S
C734 C728 1.368 . S
C734 C733 1.523 . S
C735 C719 1.429 . S
C735 C731 1.429 . S
C735 C736 1.523 . S
C736 C720 1.368 . S
C736 C732 1.368 . S
C736 C735 1.523 . S
H737 C712 0.950 . S
H738 C714 0.950 . S
H739 C715 0.949 . S
H740 C717 0.950 . S
H741 C719 0.950 . S
C742 C743 1.349 . S
C742 C744 1.327 . S
C742 H767 0.950 . S
C743 C742 1.349 . S
C743 C759 1.349 . S
C744 C742 1.327 . S
C744 C763 1.429 . S
C744 H768 0.950 . S
C745 C762 1.574 . S
C745 C764 1.368 1_554 S
C745 H769 0.949 . S
H746 C750 0.949 . S
C747 C748 1.349 . S
C747 C749 1.327 . S
C747 H770 0.950 . S
C748 C747 1.349 . S
C748 C760 1.349 . S
C749 C747 1.327 . S
C749 C765 1.429 . S
C749 H771 0.950 . S
C750 H746 0.949 . S
C750 C758 1.574 . S
C750 C766 1.368 1_556 S
H751 C759 0.950 . S
H752 C757 0.950 . S
H753 C758 0.949 . S
H754 C760 0.950 . S
H755 C761 0.950 . S
H756 C762 0.949 . S
C757 H752 0.950 . S
C757 C759 1.327 . S
C757 C763 1.429 . S
C758 C750 1.574 . S
C758 H753 0.949 . S
C758 C764 1.368 . S
C759 C743 1.349 . S
C759 H751 0.950 . S
C759 C757 1.327 . S
C760 C748 1.349 . S
C760 H754 0.950 . S
C760 C761 1.327 . S
C761 H755 0.950 . S
C761 C760 1.327 . S
C761 C765 1.429 . S
C762 C745 1.574 . S
C762 H756 0.949 . S
C762 C766 1.368 . S
C763 C744 1.429 . S
C763 C757 1.429 . S
C763 C764 1.523 . S
C764 C745 1.368 1_556 S
C764 C758 1.368 . S
C764 C763 1.523 . S
C765 C749 1.429 . S
C765 C761 1.429 . S
C765 C766 1.523 . S
C766 C750 1.368 1_554 S
C766 C762 1.368 . S
C766 C765 1.523 . S
H767 C742 0.950 . S
H768 C744 0.950 . S
H769 C745 0.949 . S
H770 C747 0.950 . S
H771 C749 0.950 . S
C772 C773 1.349 . S
C772 C774 1.327 . S
C772 H797 0.950 . S
C773 C772 1.349 . S
C773 C789 1.349 . S
C774 C772 1.327 . S
C774 C793 1.429 . S
C774 H798 0.950 . S
C775 C792 1.574 . S
C775 C794 1.368 . S
C775 H799 0.949 . S
H776 C780 0.949 . S
C777 C778 1.349 . S
C777 C779 1.327 . S
C777 H800 0.950 . S
C778 C777 1.349 . S
C778 C790 1.349 . S
C779 C777 1.327 . S
C779 C795 1.429 . S
C779 H801 0.950 . S
C780 H776 0.949 . S
C780 C788 1.574 . S
C780 C796 1.368 . S
H781 C789 0.950 . S
H782 C787 0.950 . S
H783 C788 0.949 . S
H784 C790 0.950 . S
H785 C791 0.950 . S
H786 C792 0.949 . S
C787 H782 0.950 . S
C787 C789 1.327 . S
C787 C793 1.429 . S
C788 C780 1.574 . S
C788 H783 0.949 . S
C788 C794 1.368 . S
C789 C773 1.349 . S
C789 H781 0.950 . S
C789 C787 1.327 . S
C790 C778 1.349 . S
C790 H784 0.950 . S
C790 C791 1.327 . S
C791 H785 0.950 . S
C791 C790 1.327 . S
C791 C795 1.429 . S
C792 C775 1.574 . S
C792 H786 0.949 . S
C792 C796 1.368 . S
C793 C774 1.429 . S
C793 C787 1.429 . S
C793 C794 1.523 . S
C794 C775 1.368 . S
C794 C788 1.368 . S
C794 C793 1.523 . S
C795 C779 1.429 . S
C795 C791 1.429 . S
C795 C796 1.523 . S
C796 C780 1.368 . S
C796 C792 1.368 . S
C796 C795 1.523 . S
H797 C772 0.950 . S
H798 C774 0.950 . S
H799 C775 0.949 . S
H800 C777 0.950 . S
H801 C779 0.950 . S
C802 C803 1.349 . S
C802 C804 1.327 . S
C802 H827 0.950 . S
C803 C802 1.349 . S
C803 C819 1.349 . S
C804 C802 1.327 . S
C804 C823 1.429 . S
C804 H828 0.950 . S
C805 C822 1.574 . S
C805 C824 1.368 . S
C805 H829 0.949 . S
H806 C810 0.949 . S
C807 C808 1.349 . S
C807 C809 1.327 . S
C807 H830 0.950 . S
C808 C807 1.349 . S
C808 C820 1.349 . S
C809 C807 1.327 . S
C809 C825 1.429 . S
C809 H831 0.950 . S
C810 H806 0.949 . S
C810 C818 1.574 . S
C810 C826 1.368 . S
H811 C819 0.950 . S
H812 C817 0.950 . S
H813 C818 0.949 . S
H814 C820 0.950 . S
H815 C821 0.950 . S
H816 C822 0.949 . S
C817 H812 0.950 . S
C817 C819 1.327 . S
C817 C823 1.429 . S
C818 C810 1.574 . S
C818 H813 0.949 . S
C818 C824 1.368 . S
C819 C803 1.349 . S
C819 H811 0.950 . S
C819 C817 1.327 . S
C820 C808 1.349 . S
C820 H814 0.950 . S
C820 C821 1.327 . S
C821 H815 0.950 . S
C821 C820 1.327 . S
C821 C825 1.429 . S
C822 C805 1.574 . S
C822 H816 0.949 . S
C822 C826 1.368 . S
C823 C804 1.429 . S
C823 C817 1.429 . S
C823 C824 1.523 . S
C824 C805 1.368 . S
C824 C818 1.368 . S
C824 C823 1.523 . S
C825 C809 1.429 . S
C825 C821 1.429 . S
C825 C826 1.523 . S
C826 C810 1.368 . S
C826 C822 1.368 . S
C826 C825 1.523 . S
H827 C802 0.950 . S
H828 C804 0.950 . S
H829 C805 0.949 . S
H830 C807 0.950 . S
H831 C809 0.950 . S
C832 C833 1.349 . S
C832 C834 1.327 . S
C832 H857 0.950 . S
C833 C832 1.349 . S
C833 C849 1.349 . S
C834 C832 1.327 . S
C834 C853 1.429 . S
C834 H858 0.950 . S
C835 C852 1.574 . S
C835 C854 1.368 . S
C835 H859 0.949 . S
H836 C840 0.949 . S
C837 C838 1.349 . S
C837 C839 1.327 . S
C837 H860 0.950 . S
C838 C837 1.349 . S
C838 C850 1.349 . S
C839 C837 1.327 . S
C839 C855 1.429 . S
C839 H861 0.950 . S
C840 H836 0.949 . S
C840 C848 1.574 . S
C840 C856 1.368 . S
H841 C849 0.950 . S
H842 C847 0.950 . S
H843 C848 0.949 . S
H844 C850 0.950 . S
H845 C851 0.950 . S
H846 C852 0.949 . S
C847 H842 0.950 . S
C847 C849 1.327 . S
C847 C853 1.429 . S
C848 C840 1.574 . S
C848 H843 0.949 . S
C848 C854 1.368 . S
C849 C833 1.349 . S
C849 H841 0.950 . S
C849 C847 1.327 . S
C850 C838 1.349 . S
C850 H844 0.950 . S
C850 C851 1.327 . S
C851 H845 0.950 . S
C851 C850 1.327 . S
C851 C855 1.429 . S
C852 C835 1.574 . S
C852 H846 0.949 . S
C852 C856 1.368 . S
C853 C834 1.429 . S
C853 C847 1.429 . S
C853 C854 1.523 . S
C854 C835 1.368 . S
C854 C848 1.368 . S
C854 C853 1.523 . S
C855 C839 1.429 . S
C855 C851 1.429 . S
C855 C856 1.523 . S
C856 C840 1.368 . S
C856 C852 1.368 . S
C856 C855 1.523 . S
H857 C832 0.950 . S
H858 C834 0.950 . S
H859 C835 0.949 . S
H860 C837 0.950 . S
H861 C839 0.950 . S
C862 C863 1.349 . S
C862 C864 1.327 . S
C862 H887 0.950 . S
C863 C862 1.349 . S
C863 C879 1.349 . S
C864 C862 1.327 . S
C864 C883 1.429 . S
C864 H888 0.950 . S
C865 C882 1.574 . S
C865 C884 1.368 . S
C865 H889 0.949 . S
H866 C870 0.949 . S
C867 C868 1.349 . S
C867 C869 1.327 . S
C867 H890 0.950 . S
C868 C867 1.349 . S
C868 C880 1.349 . S
C869 C867 1.327 . S
C869 C885 1.429 . S
C869 H891 0.950 . S
C870 H866 0.949 . S
C870 C878 1.574 . S
C870 C886 1.368 . S
H871 C879 0.950 . S
H872 C877 0.950 . S
H873 C878 0.949 . S
H874 C880 0.950 . S
H875 C881 0.950 . S
H876 C882 0.949 . S
C877 H872 0.950 . S
C877 C879 1.327 . S
C877 C883 1.429 . S
C878 C870 1.574 . S
C878 H873 0.949 . S
C878 C884 1.368 . S
C879 C863 1.349 . S
C879 H871 0.950 . S
C879 C877 1.327 . S
C880 C868 1.349 . S
C880 H874 0.950 . S
C880 C881 1.327 . S
C881 H875 0.950 . S
C881 C880 1.327 . S
C881 C885 1.429 . S
C882 C865 1.574 . S
C882 H876 0.949 . S
C882 C886 1.368 . S
C883 C864 1.429 . S
C883 C877 1.429 . S
C883 C884 1.523 . S
C884 C865 1.368 . S
C884 C878 1.368 . S
C884 C883 1.523 . S
C885 C869 1.429 . S
C885 C881 1.429 . S
C885 C886 1.523 . S
C886 C870 1.368 . S
C886 C882 1.368 . S
C886 C885 1.523 . S
H887 C862 0.950 . S
H888 C864 0.950 . S
H889 C865 0.949 . S
H890 C867 0.950 . S
H891 C869 0.950 . S
C892 C893 1.349 . S
C892 C894 1.327 . S
C892 H917 0.950 . S
C893 C892 1.349 . S
C893 C909 1.349 . S
C894 C892 1.327 . S
C894 C913 1.429 . S
C894 H918 0.950 . S
C895 C912 1.574 . S
C895 C914 1.368 . S
C895 H919 0.949 . S
H896 C900 0.949 . S
C897 C898 1.349 . S
C897 C899 1.327 . S
C897 H920 0.950 . S
C898 C897 1.349 . S
C898 C910 1.349 . S
C899 C897 1.327 . S
C899 C915 1.429 . S
C899 H921 0.950 . S
C900 H896 0.949 . S
C900 C908 1.574 . S
C900 C916 1.368 . S
H901 C909 0.950 . S
H902 C907 0.950 . S
H903 C908 0.949 . S
H904 C910 0.950 . S
H905 C911 0.950 . S
H906 C912 0.949 . S
C907 H902 0.950 . S
C907 C909 1.327 . S
C907 C913 1.429 . S
C908 C900 1.574 . S
C908 H903 0.949 . S
C908 C914 1.368 . S
C909 C893 1.349 . S
C909 H901 0.950 . S
C909 C907 1.327 . S
C910 C898 1.349 . S
C910 H904 0.950 . S
C910 C911 1.327 . S
C911 H905 0.950 . S
C911 C910 1.327 . S
C911 C915 1.429 . S
C912 C895 1.574 . S
C912 H906 0.949 . S
C912 C916 1.368 . S
C913 C894 1.429 . S
C913 C907 1.429 . S
C913 C914 1.523 . S
C914 C895 1.368 . S
C914 C908 1.368 . S
C914 C913 1.523 . S
C915 C899 1.429 . S
C915 C911 1.429 . S
C915 C916 1.523 . S
C916 C900 1.368 . S
C916 C912 1.368 . S
C916 C915 1.523 . S
H917 C892 0.950 . S
H918 C894 0.950 . S
H919 C895 0.949 . S
H920 C897 0.950 . S
H921 C899 0.950 . S
C922 C923 1.349 . S
C922 C924 1.327 . S
C922 H947 0.950 . S
C923 C922 1.349 . S
C923 C939 1.349 . S
C924 C922 1.327 . S
C924 C943 1.429 . S
C924 H948 0.950 . S
C925 C942 1.574 . S
C925 C944 1.368 . S
C925 H949 0.949 . S
H926 C930 0.949 . S
C927 C928 1.349 . S
C927 C929 1.327 . S
C927 H950 0.950 . S
C928 C927 1.349 . S
C928 C940 1.349 . S
C929 C927 1.327 . S
C929 C945 1.429 . S
C929 H951 0.950 . S
C930 H926 0.949 . S
C930 C938 1.574 . S
C930 C946 1.368 . S
H931 C939 0.950 . S
H932 C937 0.950 . S
H933 C938 0.949 . S
H934 C940 0.950 . S
H935 C941 0.950 . S
H936 C942 0.949 . S
C937 H932 0.950 . S
C937 C939 1.327 . S
C937 C943 1.429 . S
C938 C930 1.574 . S
C938 H933 0.949 . S
C938 C944 1.368 . S
C939 C923 1.349 . S
C939 H931 0.950 . S
C939 C937 1.327 . S
C940 C928 1.349 . S
C940 H934 0.950 . S
C940 C941 1.327 . S
C941 H935 0.950 . S
C941 C940 1.327 . S
C941 C945 1.429 . S
C942 C925 1.574 . S
C942 H936 0.949 . S
C942 C946 1.368 . S
C943 C924 1.429 . S
C943 C937 1.429 . S
C943 C944 1.523 . S
C944 C925 1.368 . S
C944 C938 1.368 . S
C944 C943 1.523 . S
C945 C929 1.429 . S
C945 C941 1.429 . S
C945 C946 1.523 . S
C946 C930 1.368 . S
C946 C942 1.368 . S
C946 C945 1.523 . S
H947 C922 0.950 . S
H948 C924 0.950 . S
H949 C925 0.949 . S
H950 C927 0.950 . S
H951 C929 0.950 . S
C952 C953 1.349 . S
C952 C954 1.327 . S
C952 H977 0.950 . S
C953 C952 1.349 . S
C953 C969 1.349 . S
C954 C952 1.327 . S
C954 C973 1.429 . S
C954 H978 0.950 . S
C955 C972 1.574 . S
C955 C974 1.368 . S
C955 H979 0.949 . S
H956 C960 0.949 . S
C957 C958 1.349 . S
C957 C959 1.327 . S
C957 H980 0.950 . S
C958 C957 1.349 . S
C958 C970 1.349 . S
C959 C957 1.327 . S
C959 C975 1.429 . S
C959 H981 0.950 . S
C960 H956 0.949 . S
C960 C968 1.574 . S
C960 C976 1.368 . S
H961 C969 0.950 . S
H962 C967 0.950 . S
H963 C968 0.949 . S
H964 C970 0.950 . S
H965 C971 0.950 . S
H966 C972 0.949 . S
C967 H962 0.950 . S
C967 C969 1.327 . S
C967 C973 1.429 . S
C968 C960 1.574 . S
C968 H963 0.949 . S
C968 C974 1.368 . S
C969 C953 1.349 . S
C969 H961 0.950 . S
C969 C967 1.327 . S
C970 C958 1.349 . S
C970 H964 0.950 . S
C970 C971 1.327 . S
C971 H965 0.950 . S
C971 C970 1.327 . S
C971 C975 1.429 . S
C972 C955 1.574 . S
C972 H966 0.949 . S
C972 C976 1.368 . S
C973 C954 1.429 . S
C973 C967 1.429 . S
C973 C974 1.523 . S
C974 C955 1.368 . S
C974 C968 1.368 . S
C974 C973 1.523 . S
C975 C959 1.429 . S
C975 C971 1.429 . S
C975 C976 1.523 . S
C976 C960 1.368 . S
C976 C972 1.368 . S
C976 C975 1.523 . S
H977 C952 0.950 . S
H978 C954 0.950 . S
H979 C955 0.949 . S
H980 C957 0.950 . S
H981 C959 0.950 . S
C982 C983 1.349 . S
C982 C984 1.327 . S
C982 H1007 0.950 . S
C983 C982 1.349 . S
C983 C999 1.349 . S
C984 C982 1.327 . S
C984 C1003 1.429 . S
C984 H1008 0.950 . S
C985 C1002 1.574 . S
C985 C1004 1.368 . S
C985 H1009 0.949 . S
H986 C990 0.949 . S
C987 C988 1.349 . S
C987 C989 1.327 . S
C987 H1010 0.950 . S
C988 C987 1.349 . S
C988 C1000 1.349 . S
C989 C987 1.327 . S
C989 C1005 1.429 . S
C989 H1011 0.950 . S
C990 H986 0.949 . S
C990 C998 1.574 . S
C990 C1006 1.368 . S
H991 C999 0.950 . S
H992 C997 0.950 . S
H993 C998 0.949 . S
H994 C1000 0.950 . S
H995 C1001 0.950 . S
H996 C1002 0.949 . S
C997 H992 0.950 . S
C997 C999 1.327 . S
C997 C1003 1.429 . S
C998 C990 1.574 . S
C998 H993 0.949 . S
C998 C1004 1.368 . S
C999 C983 1.349 . S
C999 H991 0.950 . S
C999 C997 1.327 . S
C1000 C988 1.349 . S
C1000 H994 0.950 . S
C1000 C1001 1.327 . S
C1001 H995 0.950 . S
C1001 C1000 1.327 . S
C1001 C1005 1.429 . S
C1002 C985 1.574 . S
C1002 H996 0.949 . S
C1002 C1006 1.368 . S
C1003 C984 1.429 . S
C1003 C997 1.429 . S
C1003 C1004 1.523 . S
C1004 C985 1.368 . S
C1004 C998 1.368 . S
C1004 C1003 1.523 . S
C1005 C989 1.429 . S
C1005 C1001 1.429 . S
C1005 C1006 1.523 . S
C1006 C990 1.368 . S
C1006 C1002 1.368 . S
C1006 C1005 1.523 . S
H1007 C982 0.950 . S
H1008 C984 0.950 . S
H1009 C985 0.949 . S
H1010 C987 0.950 . S
H1011 C989 0.950 . S
C1012 C1013 1.349 . S
C1012 C1014 1.327 . S
C1012 H1037 0.950 . S
C1013 C1012 1.349 . S
C1013 C1029 1.349 . S
C1014 C1012 1.327 . S
C1014 C1033 1.429 . S
C1014 H1038 0.950 . S
C1015 C1032 1.574 . S
C1015 C1034 1.368 . S
C1015 H1039 0.949 . S
H1016 C1020 0.949 . S
C1017 C1018 1.349 . S
C1017 C1019 1.327 . S
C1017 H1040 0.950 . S
C1018 C1017 1.349 . S
C1018 C1030 1.349 . S
C1019 C1017 1.327 . S
C1019 C1035 1.429 . S
C1019 H1041 0.950 . S
C1020 H1016 0.949 . S
C1020 C1028 1.574 . S
C1020 C1036 1.368 . S
H1021 C1029 0.950 . S
H1022 C1027 0.950 . S
H1023 C1028 0.949 . S
H1024 C1030 0.950 . S
H1025 C1031 0.950 . S
H1026 C1032 0.949 . S
C1027 H1022 0.950 . S
C1027 C1029 1.327 . S
C1027 C1033 1.429 . S
C1028 C1020 1.574 . S
C1028 H1023 0.949 . S
C1028 C1034 1.368 . S
C1029 C1013 1.349 . S
C1029 H1021 0.950 . S
C1029 C1027 1.327 . S
C1030 C1018 1.349 . S
C1030 H1024 0.950 . S
C1030 C1031 1.327 . S
C1031 H1025 0.950 . S
C1031 C1030 1.327 . S
C1031 C1035 1.429 . S
C1032 C1015 1.574 . S
C1032 H1026 0.949 . S
C1032 C1036 1.368 . S
C1033 C1014 1.429 . S
C1033 C1027 1.429 . S
C1033 C1034 1.523 . S
C1034 C1015 1.368 . S
C1034 C1028 1.368 . S
C1034 C1033 1.523 . S
C1035 C1019 1.429 . S
C1035 C1031 1.429 . S
C1035 C1036 1.523 . S
C1036 C1020 1.368 . S
C1036 C1032 1.368 . S
C1036 C1035 1.523 . S
H1037 C1012 0.950 . S
H1038 C1014 0.950 . S
H1039 C1015 0.949 . S
H1040 C1017 0.950 . S
H1041 C1019 0.950 . S
C1042 C1043 1.349 . S
C1042 C1044 1.327 . S
C1042 H1067 0.950 . S
C1043 C1042 1.349 . S
C1043 C1059 1.349 . S
C1044 C1042 1.327 . S
C1044 C1063 1.429 . S
C1044 H1068 0.950 . S
C1045 C1062 1.574 . S
C1045 C1064 1.368 . S
C1045 H1069 0.949 . S
H1046 C1050 0.949 . S
C1047 C1048 1.349 . S
C1047 C1049 1.327 . S
C1047 H1070 0.950 . S
C1048 C1047 1.349 . S
C1048 C1060 1.349 . S
C1049 C1047 1.327 . S
C1049 C1065 1.429 . S
C1049 H1071 0.950 . S
C1050 H1046 0.949 . S
C1050 C1058 1.574 . S
C1050 C1066 1.368 . S
H1051 C1059 0.950 . S
H1052 C1057 0.950 . S
H1053 C1058 0.949 . S
H1054 C1060 0.950 . S
H1055 C1061 0.950 . S
H1056 C1062 0.949 . S
C1057 H1052 0.950 . S
C1057 C1059 1.327 . S
C1057 C1063 1.429 . S
C1058 C1050 1.574 . S
C1058 H1053 0.949 . S
C1058 C1064 1.368 . S
C1059 C1043 1.349 . S
C1059 H1051 0.950 . S
C1059 C1057 1.327 . S
C1060 C1048 1.349 . S
C1060 H1054 0.950 . S
C1060 C1061 1.327 . S
C1061 H1055 0.950 . S
C1061 C1060 1.327 . S
C1061 C1065 1.429 . S
C1062 C1045 1.574 . S
C1062 H1056 0.949 . S
C1062 C1066 1.368 . S
C1063 C1044 1.429 . S
C1063 C1057 1.429 . S
C1063 C1064 1.523 . S
C1064 C1045 1.368 . S
C1064 C1058 1.368 . S
C1064 C1063 1.523 . S
C1065 C1049 1.429 . S
C1065 C1061 1.429 . S
C1065 C1066 1.523 . S
C1066 C1050 1.368 . S
C1066 C1062 1.368 . S
C1066 C1065 1.523 . S
H1067 C1042 0.950 . S
H1068 C1044 0.950 . S
H1069 C1045 0.949 . S
H1070 C1047 0.950 . S
H1071 C1049 0.950 . S
C1072 C1073 1.349 . S
C1072 C1074 1.327 . S
C1072 H1097 0.950 . S
C1073 C1072 1.349 . S
C1073 C1089 1.349 . S
C1074 C1072 1.327 . S
C1074 C1093 1.429 . S
C1074 H1098 0.950 . S
C1075 C1092 1.574 . S
C1075 C1094 1.368 . S
C1075 H1099 0.949 . S
H1076 C1080 0.949 . S
C1077 C1078 1.349 . S
C1077 C1079 1.327 . S
C1077 H1100 0.950 . S
C1078 C1077 1.349 . S
C1078 C1090 1.349 . S
C1079 C1077 1.327 . S
C1079 C1095 1.429 . S
C1079 H1101 0.950 . S
C1080 H1076 0.949 . S
C1080 C1088 1.574 . S
C1080 C1096 1.368 . S
H1081 C1089 0.950 . S
H1082 C1087 0.950 . S
H1083 C1088 0.949 . S
H1084 C1090 0.950 . S
H1085 C1091 0.950 . S
H1086 C1092 0.949 . S
C1087 H1082 0.950 . S
C1087 C1089 1.327 . S
C1087 C1093 1.429 . S
C1088 C1080 1.574 . S
C1088 H1083 0.949 . S
C1088 C1094 1.368 . S
C1089 C1073 1.349 . S
C1089 H1081 0.950 . S
C1089 C1087 1.327 . S
C1090 C1078 1.349 . S
C1090 H1084 0.950 . S
C1090 C1091 1.327 . S
C1091 H1085 0.950 . S
C1091 C1090 1.327 . S
C1091 C1095 1.429 . S
C1092 C1075 1.574 . S
C1092 H1086 0.949 . S
C1092 C1096 1.368 . S
C1093 C1074 1.429 . S
C1093 C1087 1.429 . S
C1093 C1094 1.523 . S
C1094 C1075 1.368 . S
C1094 C1088 1.368 . S
C1094 C1093 1.523 . S
C1095 C1079 1.429 . S
C1095 C1091 1.429 . S
C1095 C1096 1.523 . S
C1096 C1080 1.368 . S
C1096 C1092 1.368 . S
C1096 C1095 1.523 . S
H1097 C1072 0.950 . S
H1098 C1074 0.950 . S
H1099 C1075 0.949 . S
H1100 C1077 0.950 . S
H1101 C1079 0.950 . S
C1102 C1103 1.349 . S
C1102 C1104 1.327 . S
C1102 H1127 0.950 . S
C1103 C1102 1.349 . S
C1103 C1119 1.349 . S
C1104 C1102 1.327 . S
C1104 C1123 1.429 . S
C1104 H1128 0.950 . S
C1105 C1122 1.574 . S
C1105 C1124 1.368 . S
C1105 H1129 0.949 . S
H1106 C1110 0.949 . S
C1107 C1108 1.349 . S
C1107 C1109 1.327 . S
C1107 H1130 0.950 . S
C1108 C1107 1.349 . S
C1108 C1120 1.349 . S
C1109 C1107 1.327 . S
C1109 C1125 1.429 . S
C1109 H1131 0.950 . S
C1110 H1106 0.949 . S
C1110 C1118 1.574 . S
C1110 C1126 1.368 . S
H1111 C1119 0.950 . S
H1112 C1117 0.950 . S
H1113 C1118 0.949 . S
H1114 C1120 0.950 . S
H1115 C1121 0.950 . S
H1116 C1122 0.949 . S
C1117 H1112 0.950 . S
C1117 C1119 1.327 . S
C1117 C1123 1.429 . S
C1118 C1110 1.574 . S
C1118 H1113 0.949 . S
C1118 C1124 1.368 . S
C1119 C1103 1.349 . S
C1119 H1111 0.950 . S
C1119 C1117 1.327 . S
C1120 C1108 1.349 . S
C1120 H1114 0.950 . S
C1120 C1121 1.327 . S
C1121 H1115 0.950 . S
C1121 C1120 1.327 . S
C1121 C1125 1.429 . S
C1122 C1105 1.574 . S
C1122 H1116 0.949 . S
C1122 C1126 1.368 . S
C1123 C1104 1.429 . S
C1123 C1117 1.429 . S
C1123 C1124 1.523 . S
C1124 C1105 1.368 . S
C1124 C1118 1.368 . S
C1124 C1123 1.523 . S
C1125 C1109 1.429 . S
C1125 C1121 1.429 . S
C1125 C1126 1.523 . S
C1126 C1110 1.368 . S
C1126 C1122 1.368 . S
C1126 C1125 1.523 . S
H1127 C1102 0.950 . S
H1128 C1104 0.950 . S
H1129 C1105 0.949 . S
H1130 C1107 0.950 . S
H1131 C1109 0.950 . S
C1132 C1133 1.349 . S
C1132 C1134 1.327 . S
C1132 H1157 0.950 . S
C1133 C1132 1.349 . S
C1133 C1149 1.349 . S
C1134 C1132 1.327 . S
C1134 C1153 1.429 . S
C1134 H1158 0.950 . S
C1135 C1152 1.574 . S
C1135 C1154 1.368 . S
C1135 H1159 0.949 . S
H1136 C1140 0.949 . S
C1137 C1138 1.349 . S
C1137 C1139 1.327 . S
C1137 H1160 0.950 . S
C1138 C1137 1.349 . S
C1138 C1150 1.349 . S
C1139 C1137 1.327 . S
C1139 C1155 1.429 . S
C1139 H1161 0.950 . S
C1140 H1136 0.949 . S
C1140 C1148 1.574 . S
C1140 C1156 1.368 . S
H1141 C1149 0.950 . S
H1142 C1147 0.950 . S
H1143 C1148 0.949 . S
H1144 C1150 0.950 . S
H1145 C1151 0.950 . S
H1146 C1152 0.949 . S
C1147 H1142 0.950 . S
C1147 C1149 1.327 . S
C1147 C1153 1.429 . S
C1148 C1140 1.574 . S
C1148 H1143 0.949 . S
C1148 C1154 1.368 . S
C1149 C1133 1.349 . S
C1149 H1141 0.950 . S
C1149 C1147 1.327 . S
C1150 C1138 1.349 . S
C1150 H1144 0.950 . S
C1150 C1151 1.327 . S
C1151 H1145 0.950 . S
C1151 C1150 1.327 . S
C1151 C1155 1.429 . S
C1152 C1135 1.574 . S
C1152 H1146 0.949 . S
C1152 C1156 1.368 . S
C1153 C1134 1.429 . S
C1153 C1147 1.429 . S
C1153 C1154 1.523 . S
C1154 C1135 1.368 . S
C1154 C1148 1.368 . S
C1154 C1153 1.523 . S
C1155 C1139 1.429 . S
C1155 C1151 1.429 . S
C1155 C1156 1.523 . S
C1156 C1140 1.368 . S
C1156 C1152 1.368 . S
C1156 C1155 1.523 . S
H1157 C1132 0.950 . S
H1158 C1134 0.950 . S
H1159 C1135 0.949 . S
H1160 C1137 0.950 . S
H1161 C1139 0.950 . S
C1162 C1163 1.349 . S
C1162 C1164 1.327 . S
C1162 H1187 0.950 . S
C1163 C1162 1.349 . S
C1163 C1179 1.349 . S
C1164 C1162 1.327 . S
C1164 C1183 1.429 . S
C1164 H1188 0.950 . S
C1165 C1182 1.574 . S
C1165 C1184 1.368 . S
C1165 H1189 0.949 . S
H1166 C1170 0.949 . S
C1167 C1168 1.349 . S
C1167 C1169 1.327 . S
C1167 H1190 0.950 . S
C1168 C1167 1.349 . S
C1168 C1180 1.349 . S
C1169 C1167 1.327 . S
C1169 C1185 1.429 . S
C1169 H1191 0.950 . S
C1170 H1166 0.949 . S
C1170 C1178 1.574 . S
C1170 C1186 1.368 . S
H1171 C1179 0.950 . S
H1172 C1177 0.950 . S
H1173 C1178 0.949 . S
H1174 C1180 0.950 . S
H1175 C1181 0.950 . S
H1176 C1182 0.949 . S
C1177 H1172 0.950 . S
C1177 C1179 1.327 . S
C1177 C1183 1.429 . S
C1178 C1170 1.574 . S
C1178 H1173 0.949 . S
C1178 C1184 1.368 . S
C1179 C1163 1.349 . S
C1179 H1171 0.950 . S
C1179 C1177 1.327 . S
C1180 C1168 1.349 . S
C1180 H1174 0.950 . S
C1180 C1181 1.327 . S
C1181 H1175 0.950 . S
C1181 C1180 1.327 . S
C1181 C1185 1.429 . S
C1182 C1165 1.574 . S
C1182 H1176 0.949 . S
C1182 C1186 1.368 . S
C1183 C1164 1.429 . S
C1183 C1177 1.429 . S
C1183 C1184 1.523 . S
C1184 C1165 1.368 . S
C1184 C1178 1.368 . S
C1184 C1183 1.523 . S
C1185 C1169 1.429 . S
C1185 C1181 1.429 . S
C1185 C1186 1.523 . S
C1186 C1170 1.368 . S
C1186 C1182 1.368 . S
C1186 C1185 1.523 . S
H1187 C1162 0.950 . S
H1188 C1164 0.950 . S
H1189 C1165 0.949 . S
H1190 C1167 0.950 . S
H1191 C1169 0.950 . S
C1192 C1193 1.349 . S
C1192 C1194 1.327 . S
C1192 H1217 0.950 . S
C1193 C1192 1.349 . S
C1193 C1209 1.349 . S
C1194 C1192 1.327 . S
C1194 C1213 1.429 . S
C1194 H1218 0.950 . S
C1195 C1212 1.574 . S
C1195 C1214 1.368 . S
C1195 H1219 0.949 . S
H1196 C1200 0.949 . S
C1197 C1198 1.349 . S
C1197 C1199 1.327 . S
C1197 H1220 0.950 . S
C1198 C1197 1.349 . S
C1198 C1210 1.349 . S
C1199 C1197 1.327 . S
C1199 C1215 1.429 . S
C1199 H1221 0.950 . S
C1200 H1196 0.949 . S
C1200 C1208 1.574 . S
C1200 C1216 1.368 . S
H1201 C1209 0.950 . S
H1202 C1207 0.950 . S
H1203 C1208 0.949 . S
H1204 C1210 0.950 . S
H1205 C1211 0.950 . S
H1206 C1212 0.949 . S
C1207 H1202 0.950 . S
C1207 C1209 1.327 . S
C1207 C1213 1.429 . S
C1208 C1200 1.574 . S
C1208 H1203 0.949 . S
C1208 C1214 1.368 . S
C1209 C1193 1.349 . S
C1209 H1201 0.950 . S
C1209 C1207 1.327 . S
C1210 C1198 1.349 . S
C1210 H1204 0.950 . S
C1210 C1211 1.327 . S
C1211 H1205 0.950 . S
C1211 C1210 1.327 . S
C1211 C1215 1.429 . S
C1212 C1195 1.574 . S
C1212 H1206 0.949 . S
C1212 C1216 1.368 . S
C1213 C1194 1.429 . S
C1213 C1207 1.429 . S
C1213 C1214 1.523 . S
C1214 C1195 1.368 . S
C1214 C1208 1.368 . S
C1214 C1213 1.523 . S
C1215 C1199 1.429 . S
C1215 C1211 1.429 . S
C1215 C1216 1.523 . S
C1216 C1200 1.368 . S
C1216 C1212 1.368 . S
C1216 C1215 1.523 . S
H1217 C1192 0.950 . S
H1218 C1194 0.950 . S
H1219 C1195 0.949 . S
H1220 C1197 0.950 . S
H1221 C1199 0.950 . S
C1222 C1223 1.349 . S
C1222 C1224 1.327 . S
C1222 H1247 0.950 . S
C1223 C1222 1.349 . S
C1223 C1239 1.349 . S
C1224 C1222 1.327 . S
C1224 C1243 1.429 . S
C1224 H1248 0.950 . S
C1225 C1242 1.574 . S
C1225 C1244 1.368 . S
C1225 H1249 0.949 . S
H1226 C1230 0.949 . S
C1227 C1228 1.349 . S
C1227 C1229 1.327 . S
C1227 H1250 0.950 . S
C1228 C1227 1.349 . S
C1228 C1240 1.349 . S
C1229 C1227 1.327 . S
C1229 C1245 1.429 . S
C1229 H1251 0.950 . S
C1230 H1226 0.949 . S
C1230 C1238 1.574 . S
C1230 C1246 1.368 . S
H1231 C1239 0.950 . S
H1232 C1237 0.950 . S
H1233 C1238 0.949 . S
H1234 C1240 0.950 . S
H1235 C1241 0.950 . S
H1236 C1242 0.949 . S
C1237 H1232 0.950 . S
C1237 C1239 1.327 . S
C1237 C1243 1.429 . S
C1238 C1230 1.574 . S
C1238 H1233 0.949 . S
C1238 C1244 1.368 . S
C1239 C1223 1.349 . S
C1239 H1231 0.950 . S
C1239 C1237 1.327 . S
C1240 C1228 1.349 . S
C1240 H1234 0.950 . S
C1240 C1241 1.327 . S
C1241 H1235 0.950 . S
C1241 C1240 1.327 . S
C1241 C1245 1.429 . S
C1242 C1225 1.574 . S
C1242 H1236 0.949 . S
C1242 C1246 1.368 . S
C1243 C1224 1.429 . S
C1243 C1237 1.429 . S
C1243 C1244 1.523 . S
C1244 C1225 1.368 . S
C1244 C1238 1.368 . S
C1244 C1243 1.523 . S
C1245 C1229 1.429 . S
C1245 C1241 1.429 . S
C1245 C1246 1.523 . S
C1246 C1230 1.368 . S
C1246 C1242 1.368 . S
C1246 C1245 1.523 . S
H1247 C1222 0.950 . S
H1248 C1224 0.950 . S
H1249 C1225 0.949 . S
H1250 C1227 0.950 . S
H1251 C1229 0.950 . S
C1252 C1253 1.349 . S
C1252 C1254 1.327 . S
C1252 H1277 0.950 . S
C1253 C1252 1.349 . S
C1253 C1269 1.349 . S
C1254 C1252 1.327 . S
C1254 C1273 1.429 . S
C1254 H1278 0.950 . S
C1255 C1272 1.574 . S
C1255 C1274 1.368 . S
C1255 H1279 0.949 . S
H1256 C1260 0.949 . S
C1257 C1258 1.349 . S
C1257 C1259 1.327 . S
C1257 H1280 0.950 . S
C1258 C1257 1.349 . S
C1258 C1270 1.349 . S
C1259 C1257 1.327 . S
C1259 C1275 1.429 . S
C1259 H1281 0.950 . S
C1260 H1256 0.949 . S
C1260 C1268 1.574 . S
C1260 C1276 1.368 . S
H1261 C1269 0.950 . S
H1262 C1267 0.950 . S
H1263 C1268 0.949 . S
H1264 C1270 0.950 . S
H1265 C1271 0.950 . S
H1266 C1272 0.949 . S
C1267 H1262 0.950 . S
C1267 C1269 1.327 . S
C1267 C1273 1.429 . S
C1268 C1260 1.574 . S
C1268 H1263 0.949 . S
C1268 C1274 1.368 . S
C1269 C1253 1.349 . S
C1269 H1261 0.950 . S
C1269 C1267 1.327 . S
C1270 C1258 1.349 . S
C1270 H1264 0.950 . S
C1270 C1271 1.327 . S
C1271 H1265 0.950 . S
C1271 C1270 1.327 . S
C1271 C1275 1.429 . S
C1272 C1255 1.574 . S
C1272 H1266 0.949 . S
C1272 C1276 1.368 . S
C1273 C1254 1.429 . S
C1273 C1267 1.429 . S
C1273 C1274 1.523 . S
C1274 C1255 1.368 . S
C1274 C1268 1.368 . S
C1274 C1273 1.523 . S
C1275 C1259 1.429 . S
C1275 C1271 1.429 . S
C1275 C1276 1.523 . S
C1276 C1260 1.368 . S
C1276 C1272 1.368 . S
C1276 C1275 1.523 . S
H1277 C1252 0.950 . S
H1278 C1254 0.950 . S
H1279 C1255 0.949 . S
H1280 C1257 0.950 . S
H1281 C1259 0.950 . S
C1282 C1283 1.349 . S
C1282 C1284 1.327 . S
C1282 H1307 0.950 . S
C1283 C1282 1.349 . S
C1283 C1299 1.349 . S
C1284 C1282 1.327 . S
C1284 C1303 1.429 . S
C1284 H1308 0.950 . S
C1285 C1302 1.574 . S
C1285 C1304 1.368 . S
C1285 H1309 0.949 . S
H1286 C1290 0.949 . S
C1287 C1288 1.349 . S
C1287 C1289 1.327 . S
C1287 H1310 0.950 . S
C1288 C1287 1.349 . S
C1288 C1300 1.349 . S
C1289 C1287 1.327 . S
C1289 C1305 1.429 . S
C1289 H1311 0.950 . S
C1290 H1286 0.949 . S
C1290 C1298 1.574 . S
C1290 C1306 1.368 . S
H1291 C1299 0.950 . S
H1292 C1297 0.950 . S
H1293 C1298 0.949 . S
H1294 C1300 0.950 . S
H1295 C1301 0.950 . S
H1296 C1302 0.949 . S
C1297 H1292 0.950 . S
C1297 C1299 1.327 . S
C1297 C1303 1.429 . S
C1298 C1290 1.574 . S
C1298 H1293 0.949 . S
C1298 C1304 1.368 . S
C1299 C1283 1.349 . S
C1299 H1291 0.950 . S
C1299 C1297 1.327 . S
C1300 C1288 1.349 . S
C1300 H1294 0.950 . S
C1300 C1301 1.327 . S
C1301 H1295 0.950 . S
C1301 C1300 1.327 . S
C1301 C1305 1.429 . S
C1302 C1285 1.574 . S
C1302 H1296 0.949 . S
C1302 C1306 1.368 . S
C1303 C1284 1.429 . S
C1303 C1297 1.429 . S
C1303 C1304 1.523 . S
C1304 C1285 1.368 . S
C1304 C1298 1.368 . S
C1304 C1303 1.523 . S
C1305 C1289 1.429 . S
C1305 C1301 1.429 . S
C1305 C1306 1.523 . S
C1306 C1290 1.368 . S
C1306 C1302 1.368 . S
C1306 C1305 1.523 . S
H1307 C1282 0.950 . S
H1308 C1284 0.950 . S
H1309 C1285 0.949 . S
H1310 C1287 0.950 . S
H1311 C1289 0.950 . S
C1312 C1313 1.349 . S
C1312 C1314 1.327 . S
C1312 H1337 0.950 . S
C1313 C1312 1.349 . S
C1313 C1329 1.349 . S
C1314 C1312 1.327 . S
C1314 C1333 1.429 . S
C1314 H1338 0.950 . S
C1315 C1332 1.574 1_455 S
C1315 C1334 1.368 . S
C1315 H1339 0.949 . S
H1316 C1320 0.949 . S
C1317 C1318 1.349 . S
C1317 C1319 1.327 . S
C1317 H1340 0.950 . S
C1318 C1317 1.349 . S
C1318 C1330 1.349 . S
C1319 C1317 1.327 . S
C1319 C1335 1.429 . S
C1319 H1341 0.950 . S
C1320 H1316 0.949 . S
C1320 C1328 1.574 1_655 S
C1320 C1336 1.368 . S
H1321 C1329 0.950 . S
H1322 C1327 0.950 . S
H1323 C1328 0.949 . S
H1324 C1330 0.950 . S
H1325 C1331 0.950 . S
H1326 C1332 0.949 . S
C1327 H1322 0.950 . S
C1327 C1329 1.327 . S
C1327 C1333 1.429 . S
C1328 C1320 1.574 1_455 S
C1328 H1323 0.949 . S
C1328 C1334 1.368 . S
C1329 C1313 1.349 . S
C1329 H1321 0.950 . S
C1329 C1327 1.327 . S
C1330 C1318 1.349 . S
C1330 H1324 0.950 . S
C1330 C1331 1.327 . S
C1331 H1325 0.950 . S
C1331 C1330 1.327 . S
C1331 C1335 1.429 . S
C1332 C1315 1.574 1_655 S
C1332 H1326 0.949 . S
C1332 C1336 1.368 . S
C1333 C1314 1.429 . S
C1333 C1327 1.429 . S
C1333 C1334 1.523 . S
C1334 C1315 1.368 . S
C1334 C1328 1.368 . S
C1334 C1333 1.523 . S
C1335 C1319 1.429 . S
C1335 C1331 1.429 . S
C1335 C1336 1.523 . S
C1336 C1320 1.368 . S
C1336 C1332 1.368 . S
C1336 C1335 1.523 . S
H1337 C1312 0.950 . S
H1338 C1314 0.950 . S
H1339 C1315 0.949 . S
H1340 C1317 0.950 . S
H1341 C1319 0.950 . S
C1342 C1343 1.349 . S
C1342 C1344 1.327 . S
C1342 H1367 0.950 . S
C1343 C1342 1.349 . S
C1343 C1359 1.349 . S
C1344 C1342 1.327 . S
C1344 C1363 1.429 . S
C1344 H1368 0.950 . S
C1345 C1362 1.574 . S
C1345 C1364 1.368 . S
C1345 H1369 0.949 . S
H1346 C1350 0.949 . S
C1347 C1348 1.349 . S
C1347 C1349 1.327 . S
C1347 H1370 0.950 . S
C1348 C1347 1.349 . S
C1348 C1360 1.349 . S
C1349 C1347 1.327 . S
C1349 C1365 1.429 . S
C1349 H1371 0.950 . S
C1350 H1346 0.949 . S
C1350 C1358 1.574 . S
C1350 C1366 1.368 . S
H1351 C1359 0.950 . S
H1352 C1357 0.950 . S
H1353 C1358 0.949 . S
H1354 C1360 0.950 . S
H1355 C1361 0.950 . S
H1356 C1362 0.949 . S
C1357 H1352 0.950 . S
C1357 C1359 1.327 . S
C1357 C1363 1.429 . S
C1358 C1350 1.574 . S
C1358 H1353 0.949 . S
C1358 C1364 1.368 . S
C1359 C1343 1.349 . S
C1359 H1351 0.950 . S
C1359 C1357 1.327 . S
C1360 C1348 1.349 . S
C1360 H1354 0.950 . S
C1360 C1361 1.327 . S
C1361 H1355 0.950 . S
C1361 C1360 1.327 . S
C1361 C1365 1.429 . S
C1362 C1345 1.574 . S
C1362 H1356 0.949 . S
C1362 C1366 1.368 . S
C1363 C1344 1.429 . S
C1363 C1357 1.429 . S
C1363 C1364 1.523 . S
C1364 C1345 1.368 . S
C1364 C1358 1.368 . S
C1364 C1363 1.523 . S
C1365 C1349 1.429 . S
C1365 C1361 1.429 . S
C1365 C1366 1.523 . S
C1366 C1350 1.368 . S
C1366 C1362 1.368 . S
C1366 C1365 1.523 . S
H1367 C1342 0.950 . S
H1368 C1344 0.950 . S
H1369 C1345 0.949 . S
H1370 C1347 0.950 . S
H1371 C1349 0.950 . S
C1372 C1373 1.349 . S
C1372 C1374 1.327 . S
C1372 H1397 0.950 . S
C1373 C1372 1.349 . S
C1373 C1389 1.349 . S
C1374 C1372 1.327 . S
C1374 C1393 1.429 . S
C1374 H1398 0.950 . S
C1375 C1392 1.574 . S
C1375 C1394 1.368 . S
C1375 H1399 0.949 . S
H1376 C1380 0.949 . S
C1377 C1378 1.349 . S
C1377 C1379 1.327 . S
C1377 H1400 0.950 . S
C1378 C1377 1.349 . S
C1378 C1390 1.349 . S
C1379 C1377 1.327 . S
C1379 C1395 1.429 . S
C1379 H1401 0.950 . S
C1380 H1376 0.949 . S
C1380 C1388 1.574 . S
C1380 C1396 1.368 . S
H1381 C1389 0.950 . S
H1382 C1387 0.950 . S
H1383 C1388 0.949 . S
H1384 C1390 0.950 . S
H1385 C1391 0.950 . S
H1386 C1392 0.949 . S
C1387 H1382 0.950 . S
C1387 C1389 1.327 . S
C1387 C1393 1.429 . S
C1388 C1380 1.574 . S
C1388 H1383 0.949 . S
C1388 C1394 1.368 . S
C1389 C1373 1.349 . S
C1389 H1381 0.950 . S
C1389 C1387 1.327 . S
C1390 C1378 1.349 . S
C1390 H1384 0.950 . S
C1390 C1391 1.327 . S
C1391 H1385 0.950 . S
C1391 C1390 1.327 . S
C1391 C1395 1.429 . S
C1392 C1375 1.574 . S
C1392 H1386 0.949 . S
C1392 C1396 1.368 . S
C1393 C1374 1.429 . S
C1393 C1387 1.429 . S
C1393 C1394 1.523 . S
C1394 C1375 1.368 . S
C1394 C1388 1.368 . S
C1394 C1393 1.523 . S
C1395 C1379 1.429 . S
C1395 C1391 1.429 . S
C1395 C1396 1.523 . S
C1396 C1380 1.368 . S
C1396 C1392 1.368 . S
C1396 C1395 1.523 . S
H1397 C1372 0.950 . S
H1398 C1374 0.950 . S
H1399 C1375 0.949 . S
H1400 C1377 0.950 . S
H1401 C1379 0.950 . S
C1402 C1403 1.349 . S
C1402 C1404 1.327 . S
C1402 H1427 0.950 . S
C1403 C1402 1.349 . S
C1403 C1419 1.349 . S
C1404 C1402 1.327 . S
C1404 C1423 1.429 . S
C1404 H1428 0.950 . S
C1405 C1422 1.574 . S
C1405 C1424 1.368 . S
C1405 H1429 0.949 . S
H1406 C1410 0.949 . S
C1407 C1408 1.349 . S
C1407 C1409 1.327 . S
C1407 H1430 0.950 . S
C1408 C1407 1.349 . S
C1408 C1420 1.349 . S
C1409 C1407 1.327 . S
C1409 C1425 1.429 . S
C1409 H1431 0.950 . S
C1410 H1406 0.949 . S
C1410 C1418 1.574 . S
C1410 C1426 1.368 . S
H1411 C1419 0.950 . S
H1412 C1417 0.950 . S
H1413 C1418 0.949 . S
H1414 C1420 0.950 . S
H1415 C1421 0.950 . S
H1416 C1422 0.949 . S
C1417 H1412 0.950 . S
C1417 C1419 1.327 . S
C1417 C1423 1.429 . S
C1418 C1410 1.574 . S
C1418 H1413 0.949 . S
C1418 C1424 1.368 . S
C1419 C1403 1.349 . S
C1419 H1411 0.950 . S
C1419 C1417 1.327 . S
C1420 C1408 1.349 . S
C1420 H1414 0.950 . S
C1420 C1421 1.327 . S
C1421 H1415 0.950 . S
C1421 C1420 1.327 . S
C1421 C1425 1.429 . S
C1422 C1405 1.574 . S
C1422 H1416 0.949 . S
C1422 C1426 1.368 . S
C1423 C1404 1.429 . S
C1423 C1417 1.429 . S
C1423 C1424 1.523 . S
C1424 C1405 1.368 . S
C1424 C1418 1.368 . S
C1424 C1423 1.523 . S
C1425 C1409 1.429 . S
C1425 C1421 1.429 . S
C1425 C1426 1.523 . S
C1426 C1410 1.368 . S
C1426 C1422 1.368 . S
C1426 C1425 1.523 . S
H1427 C1402 0.950 . S
H1428 C1404 0.950 . S
H1429 C1405 0.949 . S
H1430 C1407 0.950 . S
H1431 C1409 0.950 . S
C1432 C1433 1.349 . S
C1432 C1434 1.327 . S
C1432 H1457 0.950 . S
C1433 C1432 1.349 . S
C1433 C1449 1.349 . S
C1434 C1432 1.327 . S
C1434 C1453 1.429 . S
C1434 H1458 0.950 . S
C1435 C1452 1.574 1_655 S
C1435 C1454 1.368 . S
C1435 H1459 0.949 . S
H1436 C1440 0.949 . S
C1437 C1438 1.349 . S
C1437 C1439 1.327 . S
C1437 H1460 0.950 . S
C1438 C1437 1.349 . S
C1438 C1450 1.349 . S
C1439 C1437 1.327 . S
C1439 C1455 1.429 . S
C1439 H1461 0.950 . S
C1440 H1436 0.949 . S
C1440 C1448 1.574 1_455 S
C1440 C1456 1.368 . S
H1441 C1449 0.950 . S
H1442 C1447 0.950 . S
H1443 C1448 0.949 . S
H1444 C1450 0.950 . S
H1445 C1451 0.950 . S
H1446 C1452 0.949 . S
C1447 H1442 0.950 . S
C1447 C1449 1.327 . S
C1447 C1453 1.429 . S
C1448 C1440 1.574 1_655 S
C1448 H1443 0.949 . S
C1448 C1454 1.368 . S
C1449 C1433 1.349 . S
C1449 H1441 0.950 . S
C1449 C1447 1.327 . S
C1450 C1438 1.349 . S
C1450 H1444 0.950 . S
C1450 C1451 1.327 . S
C1451 H1445 0.950 . S
C1451 C1450 1.327 . S
C1451 C1455 1.429 . S
C1452 C1435 1.574 1_455 S
C1452 H1446 0.949 . S
C1452 C1456 1.368 . S
C1453 C1434 1.429 . S
C1453 C1447 1.429 . S
C1453 C1454 1.523 . S
C1454 C1435 1.368 . S
C1454 C1448 1.368 . S
C1454 C1453 1.523 . S
C1455 C1439 1.429 . S
C1455 C1451 1.429 . S
C1455 C1456 1.523 . S
C1456 C1440 1.368 . S
C1456 C1452 1.368 . S
C1456 C1455 1.523 . S
H1457 C1432 0.950 . S
H1458 C1434 0.950 . S
H1459 C1435 0.949 . S
H1460 C1437 0.950 . S
H1461 C1439 0.950 . S
C1462 C1463 1.349 . S
C1462 C1464 1.327 . S
C1462 H1487 0.950 . S
C1463 C1462 1.349 . S
C1463 C1479 1.349 . S
C1464 C1462 1.327 . S
C1464 C1483 1.429 . S
C1464 H1488 0.950 . S
C1465 C1482 1.574 . S
C1465 C1484 1.368 . S
C1465 H1489 0.949 . S
H1466 C1470 0.949 . S
C1467 C1468 1.349 . S
C1467 C1469 1.327 . S
C1467 H1490 0.950 . S
C1468 C1467 1.349 . S
C1468 C1480 1.349 . S
C1469 C1467 1.327 . S
C1469 C1485 1.429 . S
C1469 H1491 0.950 . S
C1470 H1466 0.949 . S
C1470 C1478 1.574 . S
C1470 C1486 1.368 . S
H1471 C1479 0.950 . S
H1472 C1477 0.950 . S
H1473 C1478 0.949 . S
H1474 C1480 0.950 . S
H1475 C1481 0.950 . S
H1476 C1482 0.949 . S
C1477 H1472 0.950 . S
C1477 C1479 1.327 . S
C1477 C1483 1.429 . S
C1478 C1470 1.574 . S
C1478 H1473 0.949 . S
C1478 C1484 1.368 . S
C1479 C1463 1.349 . S
C1479 H1471 0.950 . S
C1479 C1477 1.327 . S
C1480 C1468 1.349 . S
C1480 H1474 0.950 . S
C1480 C1481 1.327 . S
C1481 H1475 0.950 . S
C1481 C1480 1.327 . S
C1481 C1485 1.429 . S
C1482 C1465 1.574 . S
C1482 H1476 0.949 . S
C1482 C1486 1.368 . S
C1483 C1464 1.429 . S
C1483 C1477 1.429 . S
C1483 C1484 1.523 . S
C1484 C1465 1.368 . S
C1484 C1478 1.368 . S
C1484 C1483 1.523 . S
C1485 C1469 1.429 . S
C1485 C1481 1.429 . S
C1485 C1486 1.523 . S
C1486 C1470 1.368 . S
C1486 C1482 1.368 . S
C1486 C1485 1.523 . S
H1487 C1462 0.950 . S
H1488 C1464 0.950 . S
H1489 C1465 0.949 . S
H1490 C1467 0.950 . S
H1491 C1469 0.950 . S
C1492 C1493 1.349 . S
C1492 C1494 1.327 . S
C1492 H1517 0.950 . S
C1493 C1492 1.349 . S
C1493 C1509 1.349 . S
C1494 C1492 1.327 . S
C1494 C1513 1.429 . S
C1494 H1518 0.950 . S
C1495 C1512 1.574 . S
C1495 C1514 1.368 . S
C1495 H1519 0.949 . S
H1496 C1500 0.949 . S
C1497 C1498 1.349 . S
C1497 C1499 1.327 . S
C1497 H1520 0.950 . S
C1498 C1497 1.349 . S
C1498 C1510 1.349 . S
C1499 C1497 1.327 . S
C1499 C1515 1.429 . S
C1499 H1521 0.950 . S
C1500 H1496 0.949 . S
C1500 C1508 1.574 . S
C1500 C1516 1.368 . S
H1501 C1509 0.950 . S
H1502 C1507 0.950 . S
H1503 C1508 0.949 . S
H1504 C1510 0.950 . S
H1505 C1511 0.950 . S
H1506 C1512 0.949 . S
C1507 H1502 0.950 . S
C1507 C1509 1.327 . S
C1507 C1513 1.429 . S
C1508 C1500 1.574 . S
C1508 H1503 0.949 . S
C1508 C1514 1.368 . S
C1509 C1493 1.349 . S
C1509 H1501 0.950 . S
C1509 C1507 1.327 . S
C1510 C1498 1.349 . S
C1510 H1504 0.950 . S
C1510 C1511 1.327 . S
C1511 H1505 0.950 . S
C1511 C1510 1.327 . S
C1511 C1515 1.429 . S
C1512 C1495 1.574 . S
C1512 H1506 0.949 . S
C1512 C1516 1.368 . S
C1513 C1494 1.429 . S
C1513 C1507 1.429 . S
C1513 C1514 1.523 . S
C1514 C1495 1.368 . S
C1514 C1508 1.368 . S
C1514 C1513 1.523 . S
C1515 C1499 1.429 . S
C1515 C1511 1.429 . S
C1515 C1516 1.523 . S
C1516 C1500 1.368 . S
C1516 C1512 1.368 . S
C1516 C1515 1.523 . S
H1517 C1492 0.950 . S
H1518 C1494 0.950 . S
H1519 C1495 0.949 . S
H1520 C1497 0.950 . S
H1521 C1499 0.950 . S
C1522 C1523 1.349 . S
C1522 C1524 1.327 . S
C1522 H1547 0.950 . S
C1523 C1522 1.349 . S
C1523 C1539 1.349 . S
C1524 C1522 1.327 . S
C1524 C1543 1.429 . S
C1524 H1548 0.950 . S
C1525 C1542 1.574 . S
C1525 C1544 1.368 . S
C1525 H1549 0.949 . S
H1526 C1530 0.949 . S
C1527 C1528 1.349 . S
C1527 C1529 1.327 . S
C1527 H1550 0.950 . S
C1528 C1527 1.349 . S
C1528 C1540 1.349 . S
C1529 C1527 1.327 . S
C1529 C1545 1.429 . S
C1529 H1551 0.950 . S
C1530 H1526 0.949 . S
C1530 C1538 1.574 . S
C1530 C1546 1.368 . S
H1531 C1539 0.950 . S
H1532 C1537 0.950 . S
H1533 C1538 0.949 . S
H1534 C1540 0.950 . S
H1535 C1541 0.950 . S
H1536 C1542 0.949 . S
C1537 H1532 0.950 . S
C1537 C1539 1.327 . S
C1537 C1543 1.429 . S
C1538 C1530 1.574 . S
C1538 H1533 0.949 . S
C1538 C1544 1.368 . S
C1539 C1523 1.349 . S
C1539 H1531 0.950 . S
C1539 C1537 1.327 . S
C1540 C1528 1.349 . S
C1540 H1534 0.950 . S
C1540 C1541 1.327 . S
C1541 H1535 0.950 . S
C1541 C1540 1.327 . S
C1541 C1545 1.429 . S
C1542 C1525 1.574 . S
C1542 H1536 0.949 . S
C1542 C1546 1.368 . S
C1543 C1524 1.429 . S
C1543 C1537 1.429 . S
C1543 C1544 1.523 . S
C1544 C1525 1.368 . S
C1544 C1538 1.368 . S
C1544 C1543 1.523 . S
C1545 C1529 1.429 . S
C1545 C1541 1.429 . S
C1545 C1546 1.523 . S
C1546 C1530 1.368 . S
C1546 C1542 1.368 . S
C1546 C1545 1.523 . S
H1547 C1522 0.950 . S
H1548 C1524 0.950 . S
H1549 C1525 0.949 . S
H1550 C1527 0.950 . S
H1551 C1529 0.950 . S
C1552 C1553 1.349 . S
C1552 C1554 1.327 . S
C1552 H1577 0.950 . S
C1553 C1552 1.349 . S
C1553 C1569 1.349 . S
C1554 C1552 1.327 . S
C1554 C1573 1.429 . S
C1554 H1578 0.950 . S
C1555 C1572 1.574 . S
C1555 C1574 1.368 . S
C1555 H1579 0.949 . S
H1556 C1560 0.949 . S
C1557 C1558 1.349 . S
C1557 C1559 1.327 . S
C1557 H1580 0.950 . S
C1558 C1557 1.349 . S
C1558 C1570 1.349 . S
C1559 C1557 1.327 . S
C1559 C1575 1.429 . S
C1559 H1581 0.950 . S
C1560 H1556 0.949 . S
C1560 C1568 1.574 . S
C1560 C1576 1.368 . S
H1561 C1569 0.950 . S
H1562 C1567 0.950 . S
H1563 C1568 0.949 . S
H1564 C1570 0.950 . S
H1565 C1571 0.950 . S
H1566 C1572 0.949 . S
C1567 H1562 0.950 . S
C1567 C1569 1.327 . S
C1567 C1573 1.429 . S
C1568 C1560 1.574 . S
C1568 H1563 0.949 . S
C1568 C1574 1.368 . S
C1569 C1553 1.349 . S
C1569 H1561 0.950 . S
C1569 C1567 1.327 . S
C1570 C1558 1.349 . S
C1570 H1564 0.950 . S
C1570 C1571 1.327 . S
C1571 H1565 0.950 . S
C1571 C1570 1.327 . S
C1571 C1575 1.429 . S
C1572 C1555 1.574 . S
C1572 H1566 0.949 . S
C1572 C1576 1.368 . S
C1573 C1554 1.429 . S
C1573 C1567 1.429 . S
C1573 C1574 1.523 . S
C1574 C1555 1.368 . S
C1574 C1568 1.368 . S
C1574 C1573 1.523 . S
C1575 C1559 1.429 . S
C1575 C1571 1.429 . S
C1575 C1576 1.523 . S
C1576 C1560 1.368 . S
C1576 C1572 1.368 . S
C1576 C1575 1.523 . S
H1577 C1552 0.950 . S
H1578 C1554 0.950 . S
H1579 C1555 0.949 . S
H1580 C1557 0.950 . S
H1581 C1559 0.950 . S
C1582 C1583 1.349 . S
C1582 C1584 1.327 . S
C1582 H1607 0.950 . S
C1583 C1582 1.349 . S
C1583 C1599 1.349 . S
C1584 C1582 1.327 . S
C1584 C1603 1.429 . S
C1584 H1608 0.950 . S
C1585 C1602 1.574 . S
C1585 C1604 1.368 . S
C1585 H1609 0.949 . S
H1586 C1590 0.949 . S
C1587 C1588 1.349 . S
C1587 C1589 1.327 . S
C1587 H1610 0.950 . S
C1588 C1587 1.349 . S
C1588 C1600 1.349 . S
C1589 C1587 1.327 . S
C1589 C1605 1.429 . S
C1589 H1611 0.950 . S
C1590 H1586 0.949 . S
C1590 C1598 1.574 . S
C1590 C1606 1.368 . S
H1591 C1599 0.950 . S
H1592 C1597 0.950 . S
H1593 C1598 0.949 . S
H1594 C1600 0.950 . S
H1595 C1601 0.950 . S
H1596 C1602 0.949 . S
C1597 H1592 0.950 . S
C1597 C1599 1.327 . S
C1597 C1603 1.429 . S
C1598 C1590 1.574 . S
C1598 H1593 0.949 . S
C1598 C1604 1.368 . S
C1599 C1583 1.349 . S
C1599 H1591 0.950 . S
C1599 C1597 1.327 . S
C1600 C1588 1.349 . S
C1600 H1594 0.950 . S
C1600 C1601 1.327 . S
C1601 H1595 0.950 . S
C1601 C1600 1.327 . S
C1601 C1605 1.429 . S
C1602 C1585 1.574 . S
C1602 H1596 0.949 . S
C1602 C1606 1.368 . S
C1603 C1584 1.429 . S
C1603 C1597 1.429 . S
C1603 C1604 1.523 . S
C1604 C1585 1.368 . S
C1604 C1598 1.368 . S
C1604 C1603 1.523 . S
C1605 C1589 1.429 . S
C1605 C1601 1.429 . S
C1605 C1606 1.523 . S
C1606 C1590 1.368 . S
C1606 C1602 1.368 . S
C1606 C1605 1.523 . S
H1607 C1582 0.950 . S
H1608 C1584 0.950 . S
H1609 C1585 0.949 . S
H1610 C1587 0.950 . S
H1611 C1589 0.950 . S
C1612 C1613 1.349 . S
C1612 C1614 1.327 . S
C1612 H1637 0.950 . S
C1613 C1612 1.349 . S
C1613 C1629 1.349 . S
C1614 C1612 1.327 . S
C1614 C1633 1.429 . S
C1614 H1638 0.950 . S
C1615 C1632 1.574 . S
C1615 C1634 1.368 . S
C1615 H1639 0.949 . S
H1616 C1620 0.949 . S
C1617 C1618 1.349 . S
C1617 C1619 1.327 . S
C1617 H1640 0.950 . S
C1618 C1617 1.349 . S
C1618 C1630 1.349 . S
C1619 C1617 1.327 . S
C1619 C1635 1.429 . S
C1619 H1641 0.950 . S
C1620 H1616 0.949 . S
C1620 C1628 1.574 . S
C1620 C1636 1.368 . S
H1621 C1629 0.950 . S
H1622 C1627 0.950 . S
H1623 C1628 0.949 . S
H1624 C1630 0.950 . S
H1625 C1631 0.950 . S
H1626 C1632 0.949 . S
C1627 H1622 0.950 . S
C1627 C1629 1.327 . S
C1627 C1633 1.429 . S
C1628 C1620 1.574 . S
C1628 H1623 0.949 . S
C1628 C1634 1.368 . S
C1629 C1613 1.349 . S
C1629 H1621 0.950 . S
C1629 C1627 1.327 . S
C1630 C1618 1.349 . S
C1630 H1624 0.950 . S
C1630 C1631 1.327 . S
C1631 H1625 0.950 . S
C1631 C1630 1.327 . S
C1631 C1635 1.429 . S
C1632 C1615 1.574 . S
C1632 H1626 0.949 . S
C1632 C1636 1.368 . S
C1633 C1614 1.429 . S
C1633 C1627 1.429 . S
C1633 C1634 1.523 . S
C1634 C1615 1.368 . S
C1634 C1628 1.368 . S
C1634 C1633 1.523 . S
C1635 C1619 1.429 . S
C1635 C1631 1.429 . S
C1635 C1636 1.523 . S
C1636 C1620 1.368 . S
C1636 C1632 1.368 . S
C1636 C1635 1.523 . S
H1637 C1612 0.950 . S
H1638 C1614 0.950 . S
H1639 C1615 0.949 . S
H1640 C1617 0.950 . S
H1641 C1619 0.950 . S
C1642 C1643 1.349 . S
C1642 C1644 1.327 . S
C1642 H1667 0.950 . S
C1643 C1642 1.349 . S
C1643 C1659 1.349 . S
C1644 C1642 1.327 . S
C1644 C1663 1.429 . S
C1644 H1668 0.950 . S
C1645 C1662 1.574 . S
C1645 C1664 1.368 . S
C1645 H1669 0.949 . S
H1646 C1650 0.949 . S
C1647 C1648 1.349 . S
C1647 C1649 1.327 . S
C1647 H1670 0.950 . S
C1648 C1647 1.349 . S
C1648 C1660 1.349 . S
C1649 C1647 1.327 . S
C1649 C1665 1.429 . S
C1649 H1671 0.950 . S
C1650 H1646 0.949 . S
C1650 C1658 1.574 . S
C1650 C1666 1.368 . S
H1651 C1659 0.950 . S
H1652 C1657 0.950 . S
H1653 C1658 0.949 . S
H1654 C1660 0.950 . S
H1655 C1661 0.950 . S
H1656 C1662 0.949 . S
C1657 H1652 0.950 . S
C1657 C1659 1.327 . S
C1657 C1663 1.429 . S
C1658 C1650 1.574 . S
C1658 H1653 0.949 . S
C1658 C1664 1.368 . S
C1659 C1643 1.349 . S
C1659 H1651 0.950 . S
C1659 C1657 1.327 . S
C1660 C1648 1.349 . S
C1660 H1654 0.950 . S
C1660 C1661 1.327 . S
C1661 H1655 0.950 . S
C1661 C1660 1.327 . S
C1661 C1665 1.429 . S
C1662 C1645 1.574 . S
C1662 H1656 0.949 . S
C1662 C1666 1.368 . S
C1663 C1644 1.429 . S
C1663 C1657 1.429 . S
C1663 C1664 1.523 . S
C1664 C1645 1.368 . S
C1664 C1658 1.368 . S
C1664 C1663 1.523 . S
C1665 C1649 1.429 . S
C1665 C1661 1.429 . S
C1665 C1666 1.523 . S
C1666 C1650 1.368 . S
C1666 C1662 1.368 . S
C1666 C1665 1.523 . S
H1667 C1642 0.950 . S
H1668 C1644 0.950 . S
H1669 C1645 0.949 . S
H1670 C1647 0.950 . S
H1671 C1649 0.950 . S
C1672 C1673 1.349 . S
C1672 C1674 1.327 . S
C1672 H1697 0.950 . S
C1673 C1672 1.349 . S
C1673 C1689 1.349 . S
C1674 C1672 1.327 . S
C1674 C1693 1.429 . S
C1674 H1698 0.950 . S
C1675 C1692 1.574 . S
C1675 C1694 1.368 . S
C1675 H1699 0.949 . S
H1676 C1680 0.949 . S
C1677 C1678 1.349 . S
C1677 C1679 1.327 . S
C1677 H1700 0.950 . S
C1678 C1677 1.349 . S
C1678 C1690 1.349 . S
C1679 C1677 1.327 . S
C1679 C1695 1.429 . S
C1679 H1701 0.950 . S
C1680 H1676 0.949 . S
C1680 C1688 1.574 . S
C1680 C1696 1.368 . S
H1681 C1689 0.950 . S
H1682 C1687 0.950 . S
H1683 C1688 0.949 . S
H1684 C1690 0.950 . S
H1685 C1691 0.950 . S
H1686 C1692 0.949 . S
C1687 H1682 0.950 . S
C1687 C1689 1.327 . S
C1687 C1693 1.429 . S
C1688 C1680 1.574 . S
C1688 H1683 0.949 . S
C1688 C1694 1.368 . S
C1689 C1673 1.349 . S
C1689 H1681 0.950 . S
C1689 C1687 1.327 . S
C1690 C1678 1.349 . S
C1690 H1684 0.950 . S
C1690 C1691 1.327 . S
C1691 H1685 0.950 . S
C1691 C1690 1.327 . S
C1691 C1695 1.429 . S
C1692 C1675 1.574 . S
C1692 H1686 0.949 . S
C1692 C1696 1.368 . S
C1693 C1674 1.429 . S
C1693 C1687 1.429 . S
C1693 C1694 1.523 . S
C1694 C1675 1.368 . S
C1694 C1688 1.368 . S
C1694 C1693 1.523 . S
C1695 C1679 1.429 . S
C1695 C1691 1.429 . S
C1695 C1696 1.523 . S
C1696 C1680 1.368 . S
C1696 C1692 1.368 . S
C1696 C1695 1.523 . S
H1697 C1672 0.950 . S
H1698 C1674 0.950 . S
H1699 C1675 0.949 . S
H1700 C1677 0.950 . S
H1701 C1679 0.950 . S
C1702 C1703 1.349 . S
C1702 C1704 1.327 . S
C1702 H1727 0.950 . S
C1703 C1702 1.349 . S
C1703 C1719 1.349 . S
C1704 C1702 1.327 . S
C1704 C1723 1.429 . S
C1704 H1728 0.950 . S
C1705 C1722 1.574 1_455 S
C1705 C1724 1.368 . S
C1705 H1729 0.949 . S
H1706 C1710 0.949 . S
C1707 C1708 1.349 . S
C1707 C1709 1.327 . S
C1707 H1730 0.950 . S
C1708 C1707 1.349 . S
C1708 C1720 1.349 . S
C1709 C1707 1.327 . S
C1709 C1725 1.429 . S
C1709 H1731 0.950 . S
C1710 H1706 0.949 . S
C1710 C1718 1.574 1_655 S
C1710 C1726 1.368 . S
H1711 C1719 0.950 . S
H1712 C1717 0.950 . S
H1713 C1718 0.949 . S
H1714 C1720 0.950 . S
H1715 C1721 0.950 . S
H1716 C1722 0.949 . S
C1717 H1712 0.950 . S
C1717 C1719 1.327 . S
C1717 C1723 1.429 . S
C1718 C1710 1.574 1_455 S
C1718 H1713 0.949 . S
C1718 C1724 1.368 . S
C1719 C1703 1.349 . S
C1719 H1711 0.950 . S
C1719 C1717 1.327 . S
C1720 C1708 1.349 . S
C1720 H1714 0.950 . S
C1720 C1721 1.327 . S
C1721 H1715 0.950 . S
C1721 C1720 1.327 . S
C1721 C1725 1.429 . S
C1722 C1705 1.574 1_655 S
C1722 H1716 0.949 . S
C1722 C1726 1.368 . S
C1723 C1704 1.429 . S
C1723 C1717 1.429 . S
C1723 C1724 1.523 . S
C1724 C1705 1.368 . S
C1724 C1718 1.368 . S
C1724 C1723 1.523 . S
C1725 C1709 1.429 . S
C1725 C1721 1.429 . S
C1725 C1726 1.523 . S
C1726 C1710 1.368 . S
C1726 C1722 1.368 . S
C1726 C1725 1.523 . S
H1727 C1702 0.950 . S
H1728 C1704 0.950 . S
H1729 C1705 0.949 . S
H1730 C1707 0.950 . S
H1731 C1709 0.950 . S
C1732 C1733 1.349 . S
C1732 C1734 1.327 . S
C1732 H1757 0.950 . S
C1733 C1732 1.349 . S
C1733 C1749 1.349 . S
C1734 C1732 1.327 . S
C1734 C1753 1.429 . S
C1734 H1758 0.950 . S
C1735 C1752 1.574 . S
C1735 C1754 1.368 . S
C1735 H1759 0.949 . S
H1736 C1740 0.949 . S
C1737 C1738 1.349 . S
C1737 C1739 1.327 . S
C1737 H1760 0.950 . S
C1738 C1737 1.349 . S
C1738 C1750 1.349 . S
C1739 C1737 1.327 . S
C1739 C1755 1.429 . S
C1739 H1761 0.950 . S
C1740 H1736 0.949 . S
C1740 C1748 1.574 . S
C1740 C1756 1.368 . S
H1741 C1749 0.950 . S
H1742 C1747 0.950 . S
H1743 C1748 0.949 . S
H1744 C1750 0.950 . S
H1745 C1751 0.950 . S
H1746 C1752 0.949 . S
C1747 H1742 0.950 . S
C1747 C1749 1.327 . S
C1747 C1753 1.429 . S
C1748 C1740 1.574 . S
C1748 H1743 0.949 . S
C1748 C1754 1.368 . S
C1749 C1733 1.349 . S
C1749 H1741 0.950 . S
C1749 C1747 1.327 . S
C1750 C1738 1.349 . S
C1750 H1744 0.950 . S
C1750 C1751 1.327 . S
C1751 H1745 0.950 . S
C1751 C1750 1.327 . S
C1751 C1755 1.429 . S
C1752 C1735 1.574 . S
C1752 H1746 0.949 . S
C1752 C1756 1.368 . S
C1753 C1734 1.429 . S
C1753 C1747 1.429 . S
C1753 C1754 1.523 . S
C1754 C1735 1.368 . S
C1754 C1748 1.368 . S
C1754 C1753 1.523 . S
C1755 C1739 1.429 . S
C1755 C1751 1.429 . S
C1755 C1756 1.523 . S
C1756 C1740 1.368 . S
C1756 C1752 1.368 . S
C1756 C1755 1.523 . S
H1757 C1732 0.950 . S
H1758 C1734 0.950 . S
H1759 C1735 0.949 . S
H1760 C1737 0.950 . S
H1761 C1739 0.950 . S
C1762 C1763 1.349 . S
C1762 C1764 1.327 . S
C1762 H1787 0.950 . S
C1763 C1762 1.349 . S
C1763 C1779 1.349 . S
C1764 C1762 1.327 . S
C1764 C1783 1.429 . S
C1764 H1788 0.950 . S
C1765 C1782 1.574 1_655 S
C1765 C1784 1.368 . S
C1765 H1789 0.949 . S
H1766 C1770 0.949 . S
C1767 C1768 1.349 . S
C1767 C1769 1.327 . S
C1767 H1790 0.950 . S
C1768 C1767 1.349 . S
C1768 C1780 1.349 . S
C1769 C1767 1.327 . S
C1769 C1785 1.429 . S
C1769 H1791 0.950 . S
C1770 H1766 0.949 . S
C1770 C1778 1.574 1_455 S
C1770 C1786 1.368 . S
H1771 C1779 0.950 . S
H1772 C1777 0.950 . S
H1773 C1778 0.949 . S
H1774 C1780 0.950 . S
H1775 C1781 0.950 . S
H1776 C1782 0.949 . S
C1777 H1772 0.950 . S
C1777 C1779 1.327 . S
C1777 C1783 1.429 . S
C1778 C1770 1.574 1_655 S
C1778 H1773 0.949 . S
C1778 C1784 1.368 . S
C1779 C1763 1.349 . S
C1779 H1771 0.950 . S
C1779 C1777 1.327 . S
C1780 C1768 1.349 . S
C1780 H1774 0.950 . S
C1780 C1781 1.327 . S
C1781 H1775 0.950 . S
C1781 C1780 1.327 . S
C1781 C1785 1.429 . S
C1782 C1765 1.574 1_455 S
C1782 H1776 0.949 . S
C1782 C1786 1.368 . S
C1783 C1764 1.429 . S
C1783 C1777 1.429 . S
C1783 C1784 1.523 . S
C1784 C1765 1.368 . S
C1784 C1778 1.368 . S
C1784 C1783 1.523 . S
C1785 C1769 1.429 . S
C1785 C1781 1.429 . S
C1785 C1786 1.523 . S
C1786 C1770 1.368 . S
C1786 C1782 1.368 . S
C1786 C1785 1.523 . S
H1787 C1762 0.950 . S
H1788 C1764 0.950 . S
H1789 C1765 0.949 . S
H1790 C1767 0.950 . S
H1791 C1769 0.950 . S
C353 C74 1.498 . S
C358 C8 1.498 . S
C383 C85 1.498 . S
C388 C19 1.498 . S
C413 C52 1.498 . S
C418 C30 1.498 . S
C443 C41 1.498 . S
C448 C63 1.498 . S
C473 C162 1.493 . S
C478 C96 1.493 . S
C503 C173 1.493 . S
C508 C107 1.493 . S
C533 C140 1.493 . S
C538 C118 1.493 . S
C563 C151 1.493 . S
C568 C129 1.493 . S
C593 C184 1.498 . S
C598 C250 1.498 . S
C623 C261 1.498 . S
C628 C195 1.498 . S
C653 C206 1.498 . S
C658 C228 1.498 . S
C683 C239 1.498 . S
C688 C217 1.498 . S
C713 C272 1.493 . S
C718 C338 1.493 . S
C743 C283 1.493 . S
C748 C349 1.493 . S
C773 C294 1.493 . S
C778 C316 1.493 . S
C803 C305 1.493 . S
C808 C327 1.493 . S
C833 C84 1.468 . S
C838 C7 1.468 . S
C863 C18 1.468 . S
C868 C51 1.468 . S
C893 C62 1.467 . S
C898 C29 1.467 . S
C923 C40 1.468 . S
C928 C73 1.468 . S
C953 C172 1.457 . S
C958 C95 1.457 . S
C983 C106 1.457 . S
C988 C139 1.457 . S
C1013 C150 1.457 . S
C1018 C117 1.457 . S
C1043 C128 1.457 . S
C1048 C161 1.457 . S
C1073 C183 1.468 . S
C1078 C260 1.468 . S
C1103 C194 1.468 . S
C1108 C227 1.468 . S
C1133 C238 1.467 . S
C1138 C205 1.467 . S
C1163 C216 1.468 . S
C1168 C249 1.468 . S
C1193 C348 1.457 . S
C1198 C271 1.457 . S
C1223 C282 1.457 . S
C1228 C315 1.457 . S
C1253 C293 1.457 . S
C1258 C326 1.457 . S
C1283 C304 1.457 . S
C1288 C337 1.457 . S
C1313 C5 1.314 . S
C1318 C137 1.291 . S
C1343 C16 1.313 . S
C1348 C324 1.291 . S
C1373 C27 1.313 . S
C1378 C159 1.291 . S
C1403 C38 1.314 . S
C1408 C346 1.291 . S
C1433 C93 1.291 . S
C1438 C49 1.314 . S
C1463 C60 1.313 . S
C1468 C280 1.291 . S
C1493 C71 1.313 . S
C1498 C115 1.291 . S
C1523 C302 1.291 . S
C1528 C82 1.314 . S
C1553 C104 1.291 . S
C1558 C236 1.313 . S
C1583 C258 1.314 . S
C1588 C126 1.291 . S
C1613 C192 1.313 . S
C1618 C148 1.291 . S
C1643 C170 1.291 . S
C1648 C214 1.314 . S
C1673 C181 1.314 . S
C1678 C313 1.291 . S
C1703 C335 1.291 . S
C1708 C203 1.313 . S
C1733 C269 1.291 . S
C1738 C225 1.314 . S
C1763 C247 1.313 . S
C1768 C291 1.291 . S
