# Generated by pormake.
# Topology snp, (6)-cn, num edge types: 1
# Building blocks:
#     Node 0, Type 0, BuildingBlock: PAMTUU_clean_sbu_0, # of connection points: 6
#     Node 1, Type 0, BuildingBlock: PAMTUU_clean_sbu_0, # of connection points: 6
#     Node 2, Type 0, BuildingBlock: PAMTUU_clean_sbu_0, # of connection points: 6
#     Node 3, Type 0, BuildingBlock: PAMTUU_clean_sbu_0, # of connection points: 6
#     Edge 4, Type (0, 0), BuildingBlock: OJICUG_clean_linker_0, # of connection points: 2
#     Edge 5, Type (0, 0), BuildingBlock: OJICUG_clean_linker_0, # of connection points: 2
#     Edge 6, Type (0, 0), BuildingBlock: OJICUG_clean_linker_0, # of connection points: 2
#     Edge 7, Type (0, 0), BuildingBlock: OJICUG_clean_linker_0, # of connection points: 2
#     Edge 8, Type (0, 0), BuildingBlock: OJICUG_clean_linker_0, # of connection points: 2
#     Edge 9, Type (0, 0), BuildingBlock: OJICUG_clean_linker_0, # of connection points: 2
#     Edge 10, Type (0, 0), BuildingBlock: OJICUG_clean_linker_0, # of connection points: 2
#     Edge 11, Type (0, 0), BuildingBlock: OJICUG_clean_linker_0, # of connection points: 2
#     Edge 12, Type (0, 0), BuildingBlock: OJICUG_clean_linker_0, # of connection points: 2
#     Edge 13, Type (0, 0), BuildingBlock: OJICUG_clean_linker_0, # of connection points: 2
#     Edge 14, Type (0, 0), BuildingBlock: OJICUG_clean_linker_0, # of connection points: 2
#     Edge 15, Type (0, 0), BuildingBlock: OJICUG_clean_linker_0, # of connection points: 2
# Relax obj value: 0.534
# Max RMSD: 0.257
# Mean RMSD: 0.237
data_MOF--net-snp--node1-PAMTUU_clean_sbu_0--edge1-OJICUG_clean_linker_0
_symmetry_space_group_name_H-M    P1
_symmetry_Int_Tables_number       1
_symmetry_cell_setting            triclinic
loop_
_symmetry_equiv_pos_as_xyz
'x, y, z'
_cell_length_a     18.973661
_cell_length_b     19.429156
_cell_length_c     25.276804
_cell_angle_alpha  96.61908
_cell_angle_beta   80.477755
_cell_angle_gamma 99.813116
loop_
_atom_site_label
_atom_site_type_symbol
_atom_site_fract_x
_atom_site_fract_y
_atom_site_fract_z
_atom_type_partial_charge
Tb0 Tb 0.18696 0.87625 0.30641 0.0
Tb1 Tb 0.25323 0.03326 0.35681 0.0
C2 C 0.09592 -0.00558 0.33353 0.0
C3 C 0.17525 0.72202 0.21353 0.0
C4 C 0.22434 0.72858 1.1037 0.0
C5 C 0.15057 0.70725 0.12179 0.0
C6 C 0.12607 0.70372 0.17665 0.0
C7 C 0.25 0.7308 0.1943 0.0
C8 C 0.27445 0.73409 0.13943 0.0
C9 C 0.1495 0.75314 0.26758 0.0
O10 O 0.1911 0.94013 0.23923 0.0
O11 O 0.26217 0.04122 0.26943 0.0
O12 O 0.3279 0.95983 0.35468 0.0
O13 O 0.30174 0.89709 0.27778 0.0
O14 O 0.25068 0.12835 0.40469 0.0
O15 O 0.34884 0.10619 0.35309 0.0
O16 O 0.1955 0.98178 0.42805 0.0
O17 O 0.18367 0.86642 0.39198 0.0
O18 O 0.10102 0.93242 0.34695 0.0
O19 O 0.15169 0.04443 0.33334 0.0
C20 C 0.22705 0.00372 0.23194 0.0
O21 O 0.19756 0.76968 0.30029 0.0
O22 O 0.11244 0.80394 0.26769 0.0
C23 C 0.34866 0.92335 0.30984 0.0
C24 C 0.36091 0.17231 0.43555 0.0
C25 C 0.41002 0.23202 0.53177 0.0
C26 C 0.42975 0.26761 0.48474 0.0
C27 C 0.40421 0.23826 0.43706 0.0
C28 C 0.35114 0.13216 0.47946 0.0
C29 C 0.37556 0.1617 0.52725 0.0
C30 C 0.31997 0.14884 0.39088 0.0
C31 C 0.1775 0.91389 0.43338 0.0
H32 H 0.11122 0.70191 1.09443 0.0
H33 H 0.06833 0.69613 0.19055 0.0
H34 H 0.28945 0.744 0.22174 0.0
H35 H 0.33161 0.75014 0.12616 0.0
H36 H 0.45827 0.3209 0.48624 0.0
H37 H 0.41384 0.26908 0.40275 0.0
H38 H 0.31921 0.08027 0.47834 0.0
H39 H 0.35948 0.13184 0.56204 0.0
Tb40 Tb 0.14229 0.2874 0.82769 0.0
Tb41 Tb 0.07388 0.2804 0.7066 0.0
C42 C 0.12114 0.42391 0.7743 0.0
C43 C 0.18637 0.2269 0.95805 0.0
C44 C 0.1944 0.14958 1.04687 0.0
C45 C 0.19385 0.22274 1.05363 0.0
C46 C 0.19013 0.26058 1.01007 0.0
C47 C 0.18427 0.1534 0.95142 0.0
C48 C 0.18795 0.11543 0.99506 0.0
C49 C 0.19568 0.27001 0.91072 0.0
O50 O 0.03375 0.31191 0.84974 0.0
O51 O -0.01801 0.28217 0.77068 0.0
O52 O 0.11683 0.19375 0.72619 0.0
O53 O 0.07119 0.19031 0.81233 0.0
O54 O 0.06905 0.29912 0.62489 0.0
O55 O 0.00111 0.21192 0.66454 0.0
O56 O 0.18804 0.31802 0.68833 0.0
O57 O 0.23105 0.28351 0.76057 0.0
O58 O 0.1565 0.39612 0.8059 0.0
O59 O 0.07882 0.38778 0.74059 0.0
C60 C -0.02151 0.302 0.82265 0.0
O61 O 0.1531 0.31624 0.91029 0.0
O62 O 0.21106 0.23844 0.86283 0.0
C63 C 0.07593 0.15942 0.76377 0.0
C64 C -0.01282 0.21362 0.57083 0.0
C65 C 0.92837 0.15163 0.47566 0.0
C66 C 0.91383 0.11725 0.52332 0.0
C67 C 0.94267 0.1476 0.5699 0.0
C68 C 0.00166 0.24847 0.5235 0.0
C69 C -0.02739 0.21806 0.4767 0.0
C70 C 0.02092 0.24264 0.62017 0.0
C71 C 0.24098 0.30761 0.71276 0.0
H72 H 0.19715 0.25136 1.09273 0.0
H73 H 0.1926 0.31697 1.0168 0.0
H74 H 0.1822 0.12525 0.91201 0.0
H75 H 0.1886 0.05952 0.98753 0.0
H76 H 0.87939 0.06679 0.52499 0.0
H77 H 0.93036 0.11866 0.60529 0.0
H78 H 0.03624 0.29891 0.52236 0.0
H79 H -0.01382 0.24618 0.44092 0.0
Tb80 Tb 0.79533 0.88616 0.19115 0.0
Tb81 Tb 0.77905 0.04452 0.16219 0.0
C82 C 0.92537 0.00269 0.16846 0.0
C83 C 0.7726 0.72773 0.26301 0.0
C84 C 0.71579 0.66859 0.36056 0.0
C85 C 0.78549 0.65952 0.33417 0.0
C86 C 0.81353 0.68879 0.28577 0.0
C87 C 0.70153 0.73362 0.28742 0.0
C88 C 0.67315 0.70378 0.3356 0.0
C89 C 0.80699 0.76766 0.21727 0.0
O90 O 0.80613 0.95445 0.26677 0.0
O91 O 0.80435 0.06657 0.24413 0.0
O92 O 0.68391 0.00531 0.21699 0.0
O93 O 0.6801 0.88707 0.20012 0.0
O94 O 0.80951 0.14922 0.14422 0.0
O95 O 0.69852 0.09844 0.14775 0.0
O96 O 0.79912 0.98226 1.08353 0.0
O97 O 0.80752 0.87128 1.10395 0.0
O98 O 0.89414 0.94168 0.14937 0.0
O99 O 0.89123 0.05661 0.1729 0.0
C100 C 0.81301 0.02342 0.27847 0.0
O101 O 0.76459 0.77702 0.18397 0.0
O102 O 0.84971 0.82525 0.2294 0.0
C103 C 0.64901 0.94148 0.21922 0.0
C104 C 0.74042 0.18057 1.08493 0.0
C105 C 0.757 0.23835 0.98622 0.0
C106 C 0.7357 0.27802 1.03466 0.0
C107 C 0.72797 0.24931 1.08386 0.0
C108 C 0.75396 0.13857 1.0367 0.0
C109 C 0.76204 0.16713 0.98767 0.0
C110 C 0.74459 0.15435 0.13596 0.0
C111 C 0.80941 0.91661 1.0688 0.0
H112 H 0.82047 0.63389 0.35256 0.0
H113 H 0.86858 0.6841 0.26756 0.0
H114 H 0.66899 0.76374 0.27053 0.0
H115 H 0.61906 0.71102 0.35452 0.0
H116 H 0.73062 0.33272 1.03475 0.0
H117 H 0.71629 0.2819 0.12102 0.0
H118 H 0.76281 0.08503 1.03697 0.0
H119 H 0.77918 0.135 0.95145 0.0
Tb120 Tb 0.08227 0.857 0.76414 0.0
Tb121 Tb 0.93521 0.75473 0.73655 0.0
C122 C 0.95458 0.91519 0.72731 0.0
C123 C 0.24827 0.91273 0.82112 0.0
C124 C 0.29286 0.86882 0.91016 0.0
C125 C 0.28697 0.93979 0.90871 0.0
C126 C 0.26441 0.96158 0.86439 0.0
C127 C 0.26462 0.84449 0.81935 0.0
C128 C 0.28704 0.82277 0.86356 0.0
C129 C 0.20014 0.92766 0.78543 0.0
O130 O -0.0029 0.87985 0.82953 0.0
O131 O 0.92809 0.77155 0.82498 0.0
O132 O 0.02245 0.69447 0.73163 0.0
O133 O 0.08229 0.75786 0.79618 0.0
O134 O 0.82276 0.72305 0.75188 0.0
O135 O 0.89098 0.65949 0.69798 0.0
O136 O -0.01412 0.79518 0.65877 0.0
O137 O 0.10167 0.8221 0.67877 0.0
O138 O 0.02468 0.92011 0.72721 0.0
O139 O 0.90824 0.85862 0.73772 0.0
C140 C 0.94484 0.83356 0.85112 0.0
O141 O 0.1944 0.88429 0.74255 0.0
O142 O 0.13697 0.94037 0.80974 0.0
C143 C 0.06581 0.69884 0.7674 0.0
C144 C 0.77829 0.66419 0.67482 0.0
C145 C 0.71038 0.65069 0.58265 0.0
C146 C 0.70801 0.59208 0.61115 0.0
C147 C 0.74187 0.59886 0.65701 0.0
C148 C 0.77727 0.72339 0.64833 0.0
C149 C 0.7434 0.71677 0.6028 0.0
C150 C 0.82481 0.66908 0.71628 0.0
C151 C 0.05595 0.81487 0.64404 0.0
H152 H 0.29243 0.97659 0.94395 0.0
H153 H 0.25265 0.01456 0.86632 0.0
H154 H 0.25308 0.80563 0.78633 0.0
H155 H 0.29118 0.76783 0.86346 0.0
H156 H 0.6828 0.54062 0.59665 0.0
H157 H 0.74261 0.55261 0.67698 0.0
H158 H 0.80601 0.77412 0.66112 0.0
H159 H 0.74769 0.76277 0.5813 0.0
C160 C -0.01178 0.9391 0.22083 0.0
C161 C -0.0239 0.00326 0.20673 0.0
H162 H 0.02497 0.88557 0.27673 0.0
C163 C 0.0014 0.06558 0.23663 0.0
H164 H -0.02849 0.8903 0.19784 0.0
C165 C 0.03724 0.06307 0.28028 0.0
C166 C 0.04603 -0.00184 0.29562 0.0
H167 H -0.0075 0.11596 0.22689 0.0
H168 H 0.05841 0.1117 0.30176 0.0
C169 C 0.01931 0.93637 0.26622 0.0
C170 C 0.91461 0.01705 0.77462 0.0
C171 C 0.92968 0.98071 0.72389 0.0
H172 H 0.9562 0.10067 0.8294 0.0
C173 C -0.02985 0.01785 0.68187 0.0
H174 H 0.87922 -0.00918 0.80694 0.0
C175 C 0.01852 0.07717 0.69486 0.0
C176 C 0.01753 0.10472 0.74887 0.0
H177 H -0.02137 -0.00796 0.64145 0.0
H178 H 0.05979 0.09798 0.66327 0.0
C179 C 0.9609 0.07817 0.78795 0.0
C180 C 0.55055 0.98059 0.28787 0.0
C181 C 0.57326 0.93176 0.24579 0.0
H182 H 0.46191 0.01489 0.34226 0.0
C183 C 0.52248 0.87621 0.2281 0.0
H184 H 0.58885 0.02352 0.30263 0.0
C185 C 0.44934 0.87199 0.25014 0.0
C186 C 0.42636 0.92213 0.2912 0.0
H187 H 0.53878 0.83791 0.19572 0.0
H188 H 0.4106 0.8304 0.23432 0.0
C189 C 0.47796 0.97534 0.31082 0.0
C190 C 0.11566 0.5439 0.82266 0.0
C191 C 0.12801 0.50053 0.77463 0.0
H192 H 0.08644 0.64334 0.85818 0.0
C193 C 0.13306 0.52834 0.72511 0.0
H194 H 0.11107 0.52321 0.86129 0.0
C195 C 0.11844 0.59561 0.72336 0.0
C196 C 0.09902 0.6368 0.77109 0.0
H197 H 0.14328 0.49611 0.68752 0.0
H198 H 0.11798 0.61385 0.68449 0.0
C199 C 0.10139 0.61224 0.82087 0.0
C200 C 0.32954 0.35412 0.6374 0.0
C201 C 0.31223 0.3099 0.67923 0.0
H202 H 0.37855 0.36541 0.55668 0.0
C203 C 0.35302 0.25604 0.67907 0.0
H204 H 0.30037 0.39754 0.63759 0.0
C205 C 0.39927 0.23767 0.63242 0.0
C206 C 0.40321 0.27216 0.5857 0.0
H207 H 0.34197 0.22222 0.71163 0.0
H208 H 0.42311 0.19044 0.63053 0.0
C209 C 0.37531 0.3357 0.59092 0.0
C210 C 0.84859 0.25279 0.84488 0.0
C211 C 0.90724 0.30451 0.85502 0.0
H212 H 0.75035 0.19226 0.87965 0.0
C213 C 0.90204 0.34845 0.90305 0.0
H214 H 0.85111 0.21879 0.80771 0.0
C215 C 0.84475 0.33334 0.94409 0.0
C216 C 0.79249 0.27353 0.93763 0.0
H217 H 0.94611 0.38978 0.91109 0.0
H218 H 0.8474 0.36289 0.98293 0.0
C219 C 0.79107 0.2375 0.88612 0.0
C220 C 0.71314 0.58913 0.49012 0.0
C221 C 0.68977 0.64253 0.52797 0.0
H222 H 0.73748 0.55415 0.40671 0.0
C223 C 0.65956 0.6954 0.51038 0.0
H224 H 0.73651 0.54744 0.50231 0.0
C225 C 0.66171 0.70015 0.45551 0.0
C226 C 0.69338 0.65155 0.41724 0.0
H227 H 0.63969 0.73641 0.53879 0.0
H228 H 0.64457 0.74555 0.44333 0.0
C229 C 0.71461 0.59346 0.4352 0.0
C230 C 0.23066 0.858 1.0035 0.0
C231 C 0.28511 0.83906 0.96233 0.0
H232 H 0.16839 0.83649 1.07961 0.0
C233 C 0.32171 0.78393 0.9685 0.0
H234 H 0.20039 0.89924 0.99967 0.0
C235 C 0.30251 0.74718 1.01454 0.0
C236 C 0.2455 0.76431 1.05405 0.0
H237 H 0.36372 0.76826 0.93718 0.0
H238 H 0.3308 0.70464 1.01877 0.0
C239 C 0.21102 0.82094 1.04871 0.0
C240 C 0.834 0.82344 0.99204 0.0
C241 C 0.83521 0.89494 1.01081 0.0
H242 H 0.86628 0.74773 0.92722 0.0
C243 C 0.86935 0.94531 0.97525 0.0
H244 H 0.80847 0.78299 1.01818 0.0
C245 C 0.90394 0.92497 0.92361 0.0
C246 C 0.9044 0.85359 0.90535 0.0
H247 H 0.87214 0.00073 0.98807 0.0
H248 H 0.93112 0.96556 0.89805 0.0
C249 C 0.86737 0.80305 0.93984 0.0
C250 C 0.16583 0.92591 0.53501 0.0
C251 C 0.14573 0.88891 0.48738 0.0
H252 H 0.15419 0.93053 0.6212 0.0
C253 C 0.09388 0.8275 0.4917 0.0
H254 H 0.20516 0.9734 0.53335 0.0
C255 C 0.06292 0.80387 0.54231 0.0
C256 C 0.0849 0.83976 0.58972 0.0
H257 H 0.07645 0.79807 0.45584 0.0
H258 H 0.0231 0.75676 0.54425 0.0
C259 C 0.13669 0.90107 0.58535 0.0
C260 C 0.16965 0.04069 1.09985 0.0
C261 C 0.20426 0.11022 1.09308 0.0
H262 H 0.14928 0.95281 0.14794 0.0
C263 C 0.24909 0.14218 0.13121 0.0
H264 H 0.13426 0.01386 1.07196 0.0
C265 C 0.25789 0.10696 0.17478 0.0
C266 C 0.22233 0.03811 0.18221 0.0
H267 H 0.27818 0.19479 0.12737 0.0
H268 H 0.29222 0.13449 0.20316 0.0
C269 C 0.17834 0.00538 0.1437 0.0
C270 C 0.84603 0.12827 0.34429 0.0
C271 C 0.83822 0.05514 0.3307 0.0
H272 H 0.87913 0.21547 0.39963 0.0
C273 C 0.8603 0.01402 0.36551 0.0
H274 H 0.83032 0.1622 0.31865 0.0
C275 C 0.88935 0.045 0.41205 0.0
C276 C 0.8974 0.11827 0.42556 0.0
H277 H 0.85666 0.95782 0.35626 0.0
H278 H 0.90694 0.01134 0.43689 0.0
C279 C 0.875 0.1592 0.39077 0.0
loop_
_geom_bond_atom_site_label_1
_geom_bond_atom_site_label_2
_geom_bond_distance
_geom_bond_site_symmetry_2
_ccdc_geom_bond_type
Tb0 C9 2.764 . S
Tb0 O10 2.325 1_565 S
Tb0 O13 2.303 1_565 S
Tb0 O17 2.322 . S
Tb0 O18 2.349 . S
Tb0 O21 2.415 . S
Tb0 O22 2.399 . S
Tb1 O11 2.322 . S
Tb1 O12 2.349 . S
Tb1 O14 2.415 . S
Tb1 O15 2.399 . S
Tb1 O16 2.325 . S
Tb1 O19 2.303 . S
Tb1 C30 2.764 . S
C2 O18 1.261 1_545 S
C2 O19 1.257 . S
C3 C6 1.358 . S
C3 C7 1.332 . S
C3 C9 1.504 . S
C4 C5 1.373 . S
C4 C8 1.308 . S
C5 C4 1.373 . S
C5 C6 1.429 1_556 S
C5 H32 0.932 . S
C6 C3 1.358 . S
C6 C5 1.429 1_554 S
C6 H33 0.930 . S
C7 C3 1.332 . S
C7 C8 1.394 1_554 S
C7 H34 0.932 . S
C8 C4 1.308 . S
C8 C7 1.394 1_556 S
C8 H35 0.929 . S
C9 Tb0 2.764 . S
C9 C3 1.504 . S
C9 O21 1.239 . S
C9 O22 1.263 . S
O10 Tb0 2.325 1_545 S
O10 C20 1.236 . S
O11 Tb1 2.322 . S
O11 C20 1.257 . S
O12 Tb1 2.349 . S
O12 C23 1.261 . S
O13 Tb0 2.303 1_545 S
O13 C23 1.257 . S
O14 Tb1 2.415 . S
O14 C30 1.239 . S
O15 Tb1 2.399 . S
O15 C30 1.263 . S
O16 Tb1 2.325 . S
O16 C31 1.236 1_545 S
O17 Tb0 2.322 . S
O17 C31 1.257 . S
O18 Tb0 2.349 . S
O18 C2 1.261 1_565 S
O19 Tb1 2.303 . S
O19 C2 1.257 . S
C20 O10 1.236 . S
C20 O11 1.257 . S
O21 Tb0 2.415 . S
O21 C9 1.239 . S
O22 Tb0 2.399 . S
O22 C9 1.263 . S
C23 O12 1.261 . S
C23 O13 1.257 . S
C24 C27 1.358 . S
C24 C28 1.332 . S
C24 C30 1.504 . S
C25 C26 1.373 . S
C25 C29 1.308 . S
C26 C25 1.373 . S
C26 C27 1.429 . S
C26 H36 0.932 . S
C27 C24 1.358 . S
C27 C26 1.429 . S
C27 H37 0.930 . S
C28 C24 1.332 . S
C28 C29 1.394 . S
C28 H38 0.932 . S
C29 C25 1.308 . S
C29 C28 1.394 . S
C29 H39 0.929 . S
C30 Tb1 2.764 . S
C30 O14 1.239 . S
C30 O15 1.263 . S
C30 C24 1.504 . S
C31 O16 1.236 1_565 S
C31 O17 1.257 . S
H32 C5 0.932 . S
H33 C6 0.930 . S
H34 C7 0.932 . S
H35 C8 0.929 . S
H36 C26 0.932 . S
H37 C27 0.930 . S
H38 C28 0.932 . S
H39 C29 0.929 . S
Tb40 C49 2.764 . S
Tb40 O50 2.325 . S
Tb40 O53 2.303 . S
Tb40 O57 2.322 . S
Tb40 O58 2.349 . S
Tb40 O61 2.415 . S
Tb40 O62 2.399 . S
Tb41 O51 2.322 . S
Tb41 O52 2.349 . S
Tb41 O54 2.415 . S
Tb41 O55 2.399 1_455 S
Tb41 O56 2.325 . S
Tb41 O59 2.303 . S
Tb41 C70 2.764 1_455 S
C42 O58 1.261 . S
C42 O59 1.257 . S
C43 C46 1.358 . S
C43 C47 1.332 . S
C43 C49 1.504 . S
C44 C45 1.373 . S
C44 C48 1.308 . S
C45 C44 1.373 . S
C45 C46 1.429 . S
C45 H72 0.932 . S
C46 C43 1.358 . S
C46 C45 1.429 . S
C46 H73 0.930 . S
C47 C43 1.332 . S
C47 C48 1.394 . S
C47 H74 0.932 . S
C48 C44 1.308 . S
C48 C47 1.394 . S
C48 H75 0.929 . S
C49 Tb40 2.764 . S
C49 C43 1.504 . S
C49 O61 1.239 . S
C49 O62 1.263 . S
O50 Tb40 2.325 . S
O50 C60 1.236 . S
O51 Tb41 2.322 . S
O51 C60 1.257 . S
O52 Tb41 2.349 . S
O52 C63 1.261 . S
O53 Tb40 2.303 . S
O53 C63 1.257 . S
O54 Tb41 2.415 . S
O54 C70 1.239 1_455 S
O55 Tb41 2.399 1_655 S
O55 C70 1.263 . S
O56 Tb41 2.325 . S
O56 C71 1.236 . S
O57 Tb40 2.322 . S
O57 C71 1.257 . S
O58 Tb40 2.349 . S
O58 C42 1.261 . S
O59 Tb41 2.303 . S
O59 C42 1.257 . S
C60 O50 1.236 . S
C60 O51 1.257 . S
O61 Tb40 2.415 . S
O61 C49 1.239 . S
O62 Tb40 2.399 . S
O62 C49 1.263 . S
C63 O52 1.261 . S
C63 O53 1.257 . S
C64 C67 1.358 . S
C64 C68 1.332 . S
C64 C70 1.504 . S
C65 C66 1.373 . S
C65 C69 1.308 . S
C66 C65 1.373 . S
C66 C67 1.429 . S
C66 H76 0.932 . S
C67 C64 1.358 . S
C67 C66 1.429 . S
C67 H77 0.930 . S
C68 C64 1.332 . S
C68 C69 1.394 . S
C68 H78 0.932 1_655 S
C69 C65 1.308 . S
C69 C68 1.394 . S
C69 H79 0.929 . S
C70 Tb41 2.764 1_655 S
C70 O54 1.239 1_655 S
C70 O55 1.263 . S
C70 C64 1.504 . S
C71 O56 1.236 . S
C71 O57 1.257 . S
H72 C45 0.932 . S
H73 C46 0.930 . S
H74 C47 0.932 . S
H75 C48 0.929 . S
H76 C66 0.932 . S
H77 C67 0.930 . S
H78 C68 0.932 1_455 S
H79 C69 0.929 . S
Tb80 C89 2.764 . S
Tb80 O90 2.325 1_565 S
Tb80 O93 2.303 . S
Tb80 O97 2.322 . S
Tb80 O98 2.349 . S
Tb80 O101 2.415 . S
Tb80 O102 2.399 . S
Tb81 O91 2.322 . S
Tb81 O92 2.349 . S
Tb81 O94 2.415 . S
Tb81 O95 2.399 . S
Tb81 O96 2.325 1_545 S
Tb81 O99 2.303 . S
Tb81 C110 2.764 1_554 S
C82 O98 1.261 . S
C82 O99 1.257 1_565 S
C83 C86 1.358 . S
C83 C87 1.332 . S
C83 C89 1.504 . S
C84 C85 1.373 . S
C84 C88 1.308 . S
C85 C84 1.373 . S
C85 C86 1.429 . S
C85 H112 0.932 . S
C86 C83 1.358 . S
C86 C85 1.429 . S
C86 H113 0.930 . S
C87 C83 1.332 . S
C87 C88 1.394 . S
C87 H114 0.932 . S
C88 C84 1.308 . S
C88 C87 1.394 . S
C88 H115 0.929 . S
C89 Tb80 2.764 . S
C89 C83 1.504 . S
C89 O101 1.239 . S
C89 O102 1.263 . S
O90 Tb80 2.325 1_545 S
O90 C100 1.236 . S
O91 Tb81 2.322 . S
O91 C100 1.257 . S
O92 Tb81 2.349 . S
O92 C103 1.261 . S
O93 Tb80 2.303 . S
O93 C103 1.257 1_565 S
O94 Tb81 2.415 . S
O94 C110 1.239 1_554 S
O95 Tb81 2.399 . S
O95 C110 1.263 1_554 S
O96 Tb81 2.325 1_565 S
O96 C111 1.236 . S
O97 Tb80 2.322 . S
O97 C111 1.257 . S
O98 Tb80 2.349 . S
O98 C82 1.261 . S
O99 Tb81 2.303 . S
O99 C82 1.257 1_545 S
C100 O90 1.236 . S
C100 O91 1.257 . S
O101 Tb80 2.415 . S
O101 C89 1.239 . S
O102 Tb80 2.399 . S
O102 C89 1.263 . S
C103 O92 1.261 . S
C103 O93 1.257 1_545 S
C104 C107 1.358 . S
C104 C108 1.332 . S
C104 C110 1.504 . S
C105 C106 1.373 . S
C105 C109 1.308 . S
C106 C105 1.373 . S
C106 C107 1.429 . S
C106 H116 0.932 . S
C107 C104 1.358 . S
C107 C106 1.429 . S
C107 H117 0.930 . S
C108 C104 1.332 . S
C108 C109 1.394 . S
C108 H118 0.932 . S
C109 C105 1.308 . S
C109 C108 1.394 . S
C109 H119 0.929 1_655 S
C110 Tb81 2.764 1_556 S
C110 O94 1.239 1_556 S
C110 O95 1.263 1_556 S
C110 C104 1.504 . S
C111 O96 1.236 . S
C111 O97 1.257 . S
H112 C85 0.932 . S
H113 C86 0.930 . S
H114 C87 0.932 . S
H115 C88 0.929 . S
H116 C106 0.932 . S
H117 C107 0.930 . S
H118 C108 0.932 . S
H119 C109 0.929 1_455 S
Tb120 C129 2.764 . S
Tb120 O130 2.325 1_455 S
Tb120 O133 2.303 . S
Tb120 O137 2.322 . S
Tb120 O138 2.349 . S
Tb120 O141 2.415 . S
Tb120 O142 2.399 . S
Tb121 O131 2.322 . S
Tb121 O132 2.349 . S
Tb121 O134 2.415 . S
Tb121 O135 2.399 . S
Tb121 O136 2.325 1_655 S
Tb121 O139 2.303 . S
Tb121 C150 2.764 . S
C122 O138 1.261 . S
C122 O139 1.257 1_455 S
C123 C126 1.358 . S
C123 C127 1.332 . S
C123 C129 1.504 . S
C124 C125 1.373 . S
C124 C128 1.308 . S
C125 C124 1.373 . S
C125 C126 1.429 . S
C125 H152 0.932 . S
C126 C123 1.358 . S
C126 C125 1.429 . S
C126 H153 0.930 . S
C127 C123 1.332 . S
C127 C128 1.394 . S
C127 H154 0.932 . S
C128 C124 1.308 . S
C128 C127 1.394 . S
C128 H155 0.929 . S
C129 Tb120 2.764 . S
C129 C123 1.504 . S
C129 O141 1.239 . S
C129 O142 1.263 . S
O130 Tb120 2.325 1_655 S
O130 C140 1.236 . S
O131 Tb121 2.322 . S
O131 C140 1.257 . S
O132 Tb121 2.349 . S
O132 C143 1.261 . S
O133 Tb120 2.303 . S
O133 C143 1.257 1_455 S
O134 Tb121 2.415 . S
O134 C150 1.239 . S
O135 Tb121 2.399 . S
O135 C150 1.263 . S
O136 Tb121 2.325 1_455 S
O136 C151 1.236 . S
O137 Tb120 2.322 . S
O137 C151 1.257 . S
O138 Tb120 2.349 . S
O138 C122 1.261 . S
O139 Tb121 2.303 . S
O139 C122 1.257 1_655 S
C140 O130 1.236 . S
C140 O131 1.257 . S
O141 Tb120 2.415 . S
O141 C129 1.239 . S
O142 Tb120 2.399 . S
O142 C129 1.263 . S
C143 O132 1.261 . S
C143 O133 1.257 1_655 S
C144 C147 1.358 . S
C144 C148 1.332 . S
C144 C150 1.504 . S
C145 C146 1.373 . S
C145 C149 1.308 . S
C146 C145 1.373 . S
C146 C147 1.429 . S
C146 H156 0.932 . S
C147 C144 1.358 . S
C147 C146 1.429 . S
C147 H157 0.930 . S
C148 C144 1.332 . S
C148 C149 1.394 . S
C148 H158 0.932 . S
C149 C145 1.308 . S
C149 C148 1.394 . S
C149 H159 0.929 . S
C150 Tb121 2.764 . S
C150 O134 1.239 . S
C150 O135 1.263 . S
C150 C144 1.504 . S
C151 O136 1.236 . S
C151 O137 1.257 . S
H152 C125 0.932 . S
H153 C126 0.930 . S
H154 C127 0.932 . S
H155 C128 0.929 . S
H156 C146 0.932 . S
H157 C147 0.930 . S
H158 C148 0.932 . S
H159 C149 0.929 . S
C160 C161 1.387 1_565 S
C160 H164 0.950 . S
C160 C169 1.390 . S
C161 C160 1.387 1_545 S
C161 C163 1.387 . S
H162 C169 0.950 . S
C163 C161 1.387 . S
C163 C165 1.390 . S
C163 H167 0.950 . S
H164 C160 0.950 . S
C165 C163 1.390 . S
C165 C166 1.387 . S
C165 H168 0.950 . S
C166 C165 1.387 . S
C166 C169 1.387 1_545 S
H167 C163 0.950 . S
H168 C165 0.950 . S
C169 C160 1.390 . S
C169 H162 0.950 . S
C169 C166 1.387 1_565 S
C170 C171 1.387 . S
C170 H174 0.950 1_455 S
C170 C179 1.390 1_565 S
C171 C170 1.387 . S
C171 C173 1.387 . S
H172 C179 0.950 . S
C173 C171 1.387 . S
C173 C175 1.390 1_565 S
C173 H177 0.950 . S
H174 C170 0.950 1_655 S
C175 C173 1.390 1_545 S
C175 C176 1.387 . S
C175 H178 0.950 . S
C176 C175 1.387 . S
C176 C179 1.387 . S
H177 C173 0.950 . S
H178 C175 0.950 . S
C179 C170 1.390 1_545 S
C179 H172 0.950 . S
C179 C176 1.387 . S
C180 C181 1.387 . S
C180 H184 0.950 . S
C180 C189 1.390 . S
C181 C180 1.387 . S
C181 C183 1.387 1_545 S
H182 C189 0.950 . S
C183 C181 1.387 1_565 S
C183 C185 1.390 . S
C183 H187 0.950 . S
H184 C180 0.950 . S
C185 C183 1.390 . S
C185 C186 1.387 1_565 S
C185 H188 0.950 . S
C186 C185 1.387 1_545 S
C186 C189 1.387 . S
H187 C183 0.950 . S
H188 C185 0.950 . S
C189 C180 1.390 . S
C189 H182 0.950 . S
C189 C186 1.387 . S
C190 C191 1.387 . S
C190 H194 0.950 . S
C190 C199 1.390 . S
C191 C190 1.387 . S
C191 C193 1.387 . S
H192 C199 0.950 . S
C193 C191 1.387 . S
C193 C195 1.390 . S
C193 H197 0.950 . S
H194 C190 0.950 . S
C195 C193 1.390 . S
C195 C196 1.387 . S
C195 H198 0.950 . S
C196 C195 1.387 . S
C196 C199 1.387 . S
H197 C193 0.950 . S
H198 C195 0.950 . S
C199 C190 1.390 . S
C199 H192 0.950 . S
C199 C196 1.387 . S
C200 C201 1.387 . S
C200 H204 0.950 . S
C200 C209 1.390 . S
C201 C200 1.387 . S
C201 C203 1.387 . S
H202 C209 0.950 . S
C203 C201 1.387 . S
C203 C205 1.390 . S
C203 H207 0.950 . S
H204 C200 0.950 . S
C205 C203 1.390 . S
C205 C206 1.387 . S
C205 H208 0.950 . S
C206 C205 1.387 . S
C206 C209 1.387 . S
H207 C203 0.950 . S
H208 C205 0.950 . S
C209 C200 1.390 . S
C209 H202 0.950 . S
C209 C206 1.387 . S
C210 C211 1.387 1_655 S
C210 H214 0.950 . S
C210 C219 1.390 . S
C211 C210 1.387 1_455 S
C211 C213 1.387 . S
H212 C219 0.950 . S
C213 C211 1.387 . S
C213 C215 1.390 . S
C213 H217 0.950 . S
H214 C210 0.950 . S
C215 C213 1.390 . S
C215 C216 1.387 1_455 S
C215 H218 0.950 . S
C216 C215 1.387 1_655 S
C216 C219 1.387 . S
H217 C213 0.950 . S
H218 C215 0.950 . S
C219 C210 1.390 . S
C219 H212 0.950 . S
C219 C216 1.387 . S
C220 C221 1.387 . S
C220 H224 0.950 . S
C220 C229 1.390 . S
C221 C220 1.387 . S
C221 C223 1.387 . S
H222 C229 0.950 . S
C223 C221 1.387 . S
C223 C225 1.390 . S
C223 H227 0.950 . S
H224 C220 0.950 . S
C225 C223 1.390 . S
C225 C226 1.387 . S
C225 H228 0.950 . S
C226 C225 1.387 . S
C226 C229 1.387 . S
H227 C223 0.950 . S
H228 C225 0.950 . S
C229 C220 1.390 . S
C229 H222 0.950 . S
C229 C226 1.387 . S
C230 C231 1.387 . S
C230 H234 0.950 . S
C230 C239 1.390 . S
C231 C230 1.387 . S
C231 C233 1.387 . S
H232 C239 0.950 . S
C233 C231 1.387 . S
C233 C235 1.390 . S
C233 H237 0.950 . S
H234 C230 0.950 . S
C235 C233 1.390 . S
C235 C236 1.387 . S
C235 H238 0.950 . S
C236 C235 1.387 . S
C236 C239 1.387 . S
H237 C233 0.950 . S
H238 C235 0.950 . S
C239 C230 1.390 . S
C239 H232 0.950 . S
C239 C236 1.387 . S
C240 C241 1.387 . S
C240 H244 0.950 . S
C240 C249 1.390 . S
C241 C240 1.387 . S
C241 C243 1.387 . S
H242 C249 0.950 . S
C243 C241 1.387 . S
C243 C245 1.390 . S
C243 H247 0.950 . S
H244 C240 0.950 . S
C245 C243 1.390 . S
C245 C246 1.387 . S
C245 H248 0.950 . S
C246 C245 1.387 . S
C246 C249 1.387 . S
H247 C243 0.950 . S
H248 C245 0.950 . S
C249 C240 1.390 . S
C249 H242 0.950 . S
C249 C246 1.387 . S
C250 C251 1.387 . S
C250 H254 0.950 . S
C250 C259 1.390 . S
C251 C250 1.387 . S
C251 C253 1.387 . S
H252 C259 0.950 . S
C253 C251 1.387 . S
C253 C255 1.390 . S
C253 H257 0.950 . S
H254 C250 0.950 . S
C255 C253 1.390 . S
C255 C256 1.387 . S
C255 H258 0.950 . S
C256 C255 1.387 . S
C256 C259 1.387 . S
H257 C253 0.950 . S
H258 C255 0.950 . S
C259 C250 1.390 . S
C259 H252 0.950 . S
C259 C256 1.387 . S
C260 C261 1.387 . S
C260 H264 0.950 . S
C260 C269 1.390 1_556 S
C261 C260 1.387 . S
C261 C263 1.387 1_556 S
H262 C269 0.950 . S
C263 C261 1.387 1_554 S
C263 C265 1.390 . S
C263 H267 0.950 1_554 S
H264 C260 0.950 . S
C265 C263 1.390 . S
C265 C266 1.387 . S
C265 H268 0.950 . S
C266 C265 1.387 . S
C266 C269 1.387 . S
H267 C263 0.950 1_556 S
H268 C265 0.950 . S
C269 C260 1.390 1_554 S
C269 H262 0.950 . S
C269 C266 1.387 . S
C270 C271 1.387 . S
C270 H274 0.950 . S
C270 C279 1.390 . S
C271 C270 1.387 . S
C271 C273 1.387 . S
H272 C279 0.950 . S
C273 C271 1.387 . S
C273 C275 1.390 . S
C273 H277 0.950 . S
H274 C270 0.950 . S
C275 C273 1.390 . S
C275 C276 1.387 . S
C275 H278 0.950 . S
C276 C275 1.387 . S
C276 C279 1.387 . S
H277 C273 0.950 . S
H278 C275 0.950 . S
C279 C270 1.390 . S
C279 H272 0.950 . S
C279 C276 1.387 . S
C161 C82 1.542 1_445 S
C166 C2 1.512 . S
C171 C122 1.079 . S
C176 C63 1.079 . S
C181 C103 1.098 . S
C186 C23 1.123 . S
C191 C42 1.155 . S
C196 C143 1.154 1_455 S
C201 C71 0.610 . S
C206 C25 0.674 . S
C211 C60 0.762 . S
C216 C105 0.756 . S
C221 C145 0.474 . S
C226 C84 0.516 . S
C231 C124 0.360 . S
C236 C4 0.725 . S
C241 C111 3.493 1_556 S
C246 C140 3.354 . S
C251 C31 3.652 . S
C256 C151 3.626 . S
C261 C44 2.722 . S
C266 C20 2.832 . S
C271 C100 2.517 . S
C276 C65 2.465 . S
