# Generated by pormake.
# Topology gis, (4)-cn, num edge types: 1
# Building blocks:
#     Node 0, Type 0, BuildingBlock: QUQFOY_clean_sbu_3, # of connection points: 4
#     Node 1, Type 0, BuildingBlock: QUQFOY_clean_sbu_3, # of connection points: 4
#     Node 2, Type 0, BuildingBlock: QUQFOY_clean_sbu_3, # of connection points: 4
#     Node 3, Type 0, BuildingBlock: QUQFOY_clean_sbu_3, # of connection points: 4
#     Node 4, Type 0, BuildingBlock: QUQFOY_clean_sbu_3, # of connection points: 4
#     Node 5, Type 0, BuildingBlock: QUQFOY_clean_sbu_3, # of connection points: 4
#     Node 6, Type 0, BuildingBlock: QUQFOY_clean_sbu_3, # of connection points: 4
#     Node 7, Type 0, BuildingBlock: QUQFOY_clean_sbu_3, # of connection points: 4
#     Node 8, Type 0, BuildingBlock: QUQFOY_clean_sbu_3, # of connection points: 4
#     Node 9, Type 0, BuildingBlock: QUQFOY_clean_sbu_3, # of connection points: 4
#     Node 10, Type 0, BuildingBlock: QUQFOY_clean_sbu_3, # of connection points: 4
#     Node 11, Type 0, BuildingBlock: QUQFOY_clean_sbu_3, # of connection points: 4
#     Node 12, Type 0, BuildingBlock: QUQFOY_clean_sbu_3, # of connection points: 4
#     Node 13, Type 0, BuildingBlock: QUQFOY_clean_sbu_3, # of connection points: 4
#     Node 14, Type 0, BuildingBlock: QUQFOY_clean_sbu_3, # of connection points: 4
#     Node 15, Type 0, BuildingBlock: QUQFOY_clean_sbu_3, # of connection points: 4
#     Edge 16, Type (0, 0), BuildingBlock: OJICUG_clean_linker_0, # of connection points: 2
#     Edge 17, Type (0, 0), BuildingBlock: OJICUG_clean_linker_0, # of connection points: 2
#     Edge 18, Type (0, 0), BuildingBlock: OJICUG_clean_linker_0, # of connection points: 2
#     Edge 19, Type (0, 0), BuildingBlock: OJICUG_clean_linker_0, # of connection points: 2
#     Edge 20, Type (0, 0), BuildingBlock: OJICUG_clean_linker_0, # of connection points: 2
#     Edge 21, Type (0, 0), BuildingBlock: OJICUG_clean_linker_0, # of connection points: 2
#     Edge 22, Type (0, 0), BuildingBlock: OJICUG_clean_linker_0, # of connection points: 2
#     Edge 23, Type (0, 0), BuildingBlock: OJICUG_clean_linker_0, # of connection points: 2
#     Edge 24, Type (0, 0), BuildingBlock: OJICUG_clean_linker_0, # of connection points: 2
#     Edge 25, Type (0, 0), BuildingBlock: OJICUG_clean_linker_0, # of connection points: 2
#     Edge 26, Type (0, 0), BuildingBlock: OJICUG_clean_linker_0, # of connection points: 2
#     Edge 27, Type (0, 0), BuildingBlock: OJICUG_clean_linker_0, # of connection points: 2
#     Edge 28, Type (0, 0), BuildingBlock: OJICUG_clean_linker_0, # of connection points: 2
#     Edge 29, Type (0, 0), BuildingBlock: OJICUG_clean_linker_0, # of connection points: 2
#     Edge 30, Type (0, 0), BuildingBlock: OJICUG_clean_linker_0, # of connection points: 2
#     Edge 31, Type (0, 0), BuildingBlock: OJICUG_clean_linker_0, # of connection points: 2
#     Edge 32, Type (0, 0), BuildingBlock: OJICUG_clean_linker_0, # of connection points: 2
#     Edge 33, Type (0, 0), BuildingBlock: OJICUG_clean_linker_0, # of connection points: 2
#     Edge 34, Type (0, 0), BuildingBlock: OJICUG_clean_linker_0, # of connection points: 2
#     Edge 35, Type (0, 0), BuildingBlock: OJICUG_clean_linker_0, # of connection points: 2
#     Edge 36, Type (0, 0), BuildingBlock: OJICUG_clean_linker_0, # of connection points: 2
#     Edge 37, Type (0, 0), BuildingBlock: OJICUG_clean_linker_0, # of connection points: 2
#     Edge 38, Type (0, 0), BuildingBlock: OJICUG_clean_linker_0, # of connection points: 2
#     Edge 39, Type (0, 0), BuildingBlock: OJICUG_clean_linker_0, # of connection points: 2
#     Edge 40, Type (0, 0), BuildingBlock: OJICUG_clean_linker_0, # of connection points: 2
#     Edge 41, Type (0, 0), BuildingBlock: OJICUG_clean_linker_0, # of connection points: 2
#     Edge 42, Type (0, 0), BuildingBlock: OJICUG_clean_linker_0, # of connection points: 2
#     Edge 43, Type (0, 0), BuildingBlock: OJICUG_clean_linker_0, # of connection points: 2
#     Edge 44, Type (0, 0), BuildingBlock: OJICUG_clean_linker_0, # of connection points: 2
#     Edge 45, Type (0, 0), BuildingBlock: OJICUG_clean_linker_0, # of connection points: 2
#     Edge 46, Type (0, 0), BuildingBlock: OJICUG_clean_linker_0, # of connection points: 2
#     Edge 47, Type (0, 0), BuildingBlock: OJICUG_clean_linker_0, # of connection points: 2
# Relax obj value: 0.062
# Max RMSD: 0.132
# Mean RMSD: 0.125
data_MOF--net-gis--node1-QUQFOY_clean_sbu_3--edge1-OJICUG_clean_linker_0
_symmetry_space_group_name_H-M    P1
_symmetry_Int_Tables_number       1
_symmetry_cell_setting            triclinic
loop_
_symmetry_equiv_pos_as_xyz
'x, y, z'
_cell_length_a     40.427148
_cell_length_b     42.604534
_cell_length_c     29.438492
_cell_angle_alpha  90.103902
_cell_angle_beta   90.360075
_cell_angle_gamma 89.909125
loop_
_atom_site_label
_atom_site_type_symbol
_atom_site_fract_x
_atom_site_fract_y
_atom_site_fract_z
_atom_type_partial_charge
C0 C 0.15167 0.57851 0.17982 0.0
O1 O 0.12581 0.57908 0.20396 0.0
Cd2 Cd 0.0776 0.5998 0.16544 0.0
O3 O 0.14922 0.58151 0.13705 0.0
Cd4 Cd 0.10654 0.58189 0.07777 0.0
C5 C 0.11208 0.65778 0.09799 0.0
O6 O 0.05081 0.56818 0.10834 0.0
O7 O 0.0544 0.59558 0.04633 0.0
O8 O 0.12084 0.52764 0.06638 0.0
C9 C 0.03644 0.58075 0.07418 0.0
O10 O 0.09673 0.64889 0.13334 0.0
C11 C 0.12894 0.53016 0.025 0.0
O12 O 0.1206 0.63799 0.06767 0.0
O13 O 0.12742 0.55752 0.00757 0.0
C14 C 0.64581 0.86538 0.25078 0.0
O15 O 0.62021 0.86285 0.22587 0.0
Cd16 Cd 0.57097 0.84213 0.26019 0.0
O17 O 0.64362 0.86232 0.29357 0.0
Cd18 Cd 0.60344 0.85736 0.35495 0.0
C19 C 0.6068 0.78207 0.32521 0.0
O20 O 0.5507 0.87453 0.32018 0.0
O21 O 0.5487 0.84792 0.38285 0.0
O22 O 0.62227 0.90968 0.36957 0.0
C23 C 0.53343 0.86303 0.35208 0.0
O24 O 0.59073 0.79272 0.29119 0.0
C25 C 0.62847 0.9062 0.41152 0.0
O26 O 0.61637 0.80036 0.35709 0.0
O27 O 0.62391 0.87891 0.42811 0.0
C28 C 0.29924 0.36926 0.68408 0.0
O29 O 0.32491 0.36621 0.7087 0.0
Cd30 Cd 0.37444 0.34765 0.67138 0.0
O31 O 0.30152 0.3676 0.64121 0.0
Cd32 Cd 0.34175 0.36464 0.58051 0.0
C33 C 0.34095 0.28844 0.60378 0.0
O34 O 0.39596 0.38069 0.61266 0.0
O35 O 0.39493 0.35356 0.55011 0.0
O36 O 0.32469 0.41769 0.56735 0.0
C37 C 0.41164 0.36877 0.57936 0.0
O38 O 0.35783 0.29805 0.63774 0.0
C39 C 0.3169 0.41426 0.52586 0.0
O40 O 0.32915 0.30795 0.57505 0.0
O41 O 0.31978 0.38677 0.50909 0.0
C42 C 0.79172 0.08968 0.75405 0.0
O43 O 0.81774 0.09536 0.73165 0.0
Cd44 Cd 0.86838 0.10746 0.77315 0.0
O45 O 0.79345 0.08613 0.79674 0.0
Cd46 Cd 0.83497 0.08242 0.85677 0.0
C47 C 0.84046 0.15979 0.85411 0.0
O48 O 0.88975 0.06799 0.82325 0.0
O49 O 0.88821 0.08967 0.88997 0.0
O50 O 0.81758 0.02872 0.86528 0.0
C51 C 0.90517 0.07667 0.85907 0.0
O52 O 0.85803 0.15355 0.8195 0.0
C53 C 0.80927 0.03104 0.90662 0.0
O54 O 0.82481 0.13826 0.87492 0.0
O55 O 0.8121 0.05799 0.92508 0.0
C56 C 0.16825 0.36991 0.76018 0.0
O57 O 0.14354 0.3661 0.73395 0.0
Cd58 Cd 0.09155 0.34856 0.76371 0.0
O59 O 0.16453 0.36936 0.80297 0.0
Cd60 Cd 0.11939 0.36799 0.85813 0.0
C61 C 0.11925 0.29091 0.83888 0.0
O62 O 0.06833 0.38386 0.81739 0.0
O63 O 0.06362 0.35785 0.88026 0.0
O64 O 0.13447 0.42151 0.87319 0.0
C65 C 0.04971 0.37273 0.8481 0.0
O66 O 0.10483 0.29999 0.8026 0.0
C67 C 0.13781 0.4187 0.91584 0.0
O68 O 0.12997 0.31092 0.86778 0.0
O69 O 0.13417 0.39126 0.93232 0.0
C70 C 0.77581 0.87034 0.1718 0.0
O71 O 0.80113 0.86635 0.19684 0.0
Cd72 Cd 0.85234 0.84958 0.16337 0.0
O73 O 0.77858 0.87042 0.12885 0.0
Cd74 Cd 0.82157 0.86978 0.07054 0.0
C75 C 0.82206 0.79297 0.08802 0.0
O76 O 0.87348 0.88532 0.10879 0.0
O77 O 0.87686 0.85982 0.0452 0.0
O78 O 0.80484 0.92288 0.05654 0.0
C79 C 0.89148 0.87431 0.07718 0.0
O80 O 0.83752 0.80156 0.12379 0.0
C81 C 0.80039 0.91987 0.01408 0.0
O82 O 0.81075 0.81328 0.06011 0.0
O83 O 0.80433 0.89251 -0.00265 0.0
C84 C 0.28221 0.57966 0.2609 0.0
O85 O 0.30715 0.58577 0.23651 0.0
Cd86 Cd 0.36008 0.59851 0.27002 0.0
O87 O 0.28551 0.5767 0.30361 0.0
Cd88 Cd 0.33024 0.57525 0.36027 0.0
C89 C 0.33677 0.6529 0.35186 0.0
O90 O 0.38087 0.55892 0.31949 0.0
O91 O 0.38653 0.58193 0.38473 0.0
O92 O 0.31358 0.52187 0.37325 0.0
C93 C 0.3999 0.5678 0.35163 0.0
O94 O 0.35172 0.64538 0.31545 0.0
C95 C 0.30941 0.52459 0.41572 0.0
O96 O 0.32269 0.63201 0.37602 0.0
O97 O 0.31344 0.55184 0.43281 0.0
C98 C 0.66301 0.08537 0.66728 0.0
O99 O 0.63748 0.09315 0.68953 0.0
Cd100 Cd 0.58486 0.10277 0.65245 0.0
O101 O 0.66058 0.07857 0.62539 0.0
Cd102 Cd 0.61643 0.07228 0.56861 0.0
C103 C 0.61006 0.15016 0.56407 0.0
O104 O 0.56349 0.0604 0.60844 0.0
O105 O 0.56163 0.07907 0.54004 0.0
O106 O 0.631 0.01736 0.5609 0.0
C107 C 0.54628 0.06764 0.57359 0.0
O108 O 0.59351 0.14578 0.60016 0.0
C109 C 0.63678 0.01838 0.51862 0.0
O110 O 0.62532 0.12756 0.54482 0.0
O111 O 0.63477 0.04515 0.4996 0.0
C112 C 0.79569 0.35191 0.74026 0.0
O113 O 0.82185 0.3448 0.71897 0.0
Cd114 Cd 0.87272 0.33621 0.76089 0.0
O115 O 0.79706 0.3589 0.78215 0.0
Cd116 Cd 0.83724 0.36805 0.8426 0.0
C117 C 0.84267 0.2907 0.84951 0.0
O118 O 0.8904 0.37983 0.80535 0.0
O119 O 0.89136 0.3632 0.87489 0.0
O120 O 0.81943 0.42175 0.83969 0.0
C121 C 0.90712 0.37375 0.84107 0.0
O122 O 0.86047 0.29463 0.81443 0.0
C123 C 0.81281 0.42441 0.88156 0.0
O124 O 0.82703 0.31353 0.86754 0.0
O125 O 0.81608 0.39989 0.90595 0.0
C126 C 0.31326 0.04122 0.49463 0.0
O127 O 0.31809 0.0644 0.46852 0.0
Cd128 Cd 0.34181 0.11177 0.49941 0.0
O129 O 0.31606 0.0446 0.53732 0.0
Cd130 Cd 0.3253 0.08695 0.59257 0.0
C131 C 0.40444 0.07905 0.56458 0.0
O132 O 0.31165 0.13886 0.55756 0.0
O133 O 0.34491 0.13703 0.61561 0.0
O134 O 0.26974 0.07766 0.61863 0.0
C135 C 0.32821 0.15351 0.58789 0.0
O136 O 0.39446 0.09407 0.52971 0.0
C137 C 0.27746 0.07201 0.65964 0.0
O138 O 0.38417 0.07115 0.59558 0.0
O139 O 0.30814 0.07243 0.66977 0.0
C140 C 0.6454 0.56923 0.22651 0.0
O141 O 0.61746 0.5733 0.20747 0.0
Cd142 Cd 0.57067 0.59078 0.25009 0.0
O143 O 0.64795 0.5695 0.26961 0.0
Cd144 Cd 0.61241 0.57069 0.33757 0.0
C145 C 0.60984 0.64767 0.31786 0.0
O146 O 0.55812 0.55421 0.30799 0.0
O147 O 0.55919 0.578 0.37294 0.0
O148 O 0.63224 0.51797 0.34807 0.0
C149 C 0.54242 0.56409 0.34244 0.0
O150 O 0.5914 0.63862 0.2851 0.0
C151 C 0.64096 0.52103 0.38927 0.0
O152 O 0.62289 0.62787 0.34516 0.0
O153 O 0.6378 0.54825 0.40682 0.0
C154 C 0.13907 0.8644 0.19686 0.0
O155 O 0.11172 0.85958 0.2166 0.0
Cd156 Cd 0.06525 0.84277 0.17224 0.0
O157 O 0.14033 0.86604 0.15374 0.0
Cd158 Cd 0.10428 0.86816 0.08588 0.0
C159 C 0.10752 0.79093 0.09972 0.0
O160 O 0.05055 0.88186 0.11843 0.0
O161 O 0.05036 0.86087 0.05145 0.0
O162 O 0.12339 0.9214 0.08375 0.0
C163 C 0.03417 0.87333 0.08358 0.0
O164 O 0.08924 0.79781 0.13343 0.0
C165 C 0.1304 0.92212 0.04186 0.0
O166 O 0.11832 0.81219 0.07319 0.0
O167 O 0.1267 0.89666 0.01957 0.0
C168 C 0.80837 0.54795 0.95945 0.0
O169 O 0.81225 0.57191 0.93458 0.0
Cd170 Cd 0.83533 0.6179 -0.02916 0.0
O171 O 0.81088 0.55054 0.00226 0.0
Cd172 Cd 0.81531 0.59232 0.05899 0.0
C173 C 0.89565 0.5866 0.04141 0.0
O174 O 0.80209 0.64498 0.02573 0.0
O175 O 0.83219 0.6419 0.08693 0.0
O176 O 0.75847 0.58132 0.07418 0.0
C177 C 0.81637 0.65887 0.05887 0.0
O178 O 0.88717 0.60157 0.00576 0.0
C179 C 0.7621 0.57492 0.11596 0.0
O180 O 0.87383 0.57763 0.06965 0.0
O181 O 0.79142 0.57585 0.13205 0.0
C182 C 0.13703 0.04379 0.95891 0.0
O183 O 0.13345 0.06778 -0.01605 0.0
Cd184 Cd 0.1091 0.11391 0.95024 0.0
O185 O 0.13358 0.0463 0.91616 0.0
Cd186 Cd 0.12674 0.08918 0.86064 0.0
C187 C 0.04677 0.08306 0.8829 0.0
O188 O 0.141 0.14161 0.89478 0.0
O189 O 0.10802 0.13949 0.83653 0.0
O190 O 0.18259 0.07896 0.83557 0.0
C191 C 0.12515 0.15608 0.86363 0.0
O192 O 0.05605 0.0977 0.91852 0.0
C193 C 0.17508 0.07311 0.79453 0.0
O194 O 0.06788 0.07469 0.85323 0.0
O195 O 0.14448 0.07384 0.78404 0.0
C196 C 0.66776 0.34916 0.65206 0.0
O197 O 0.64212 0.34293 0.67502 0.0
Cd198 Cd 0.58885 0.33384 0.64049 0.0
O199 O 0.66558 0.35416 0.60961 0.0
Cd200 Cd 0.62285 0.35919 0.55065 0.0
C201 C 0.61239 0.28157 0.55558 0.0
O202 O 0.57335 0.37611 0.59279 0.0
O203 O 0.56608 0.35636 0.52578 0.0
O204 O 0.64276 0.41199 0.53948 0.0
C205 C 0.55358 0.36928 0.56054 0.0
O206 O 0.59636 0.28863 0.5913 0.0
C207 C 0.64683 0.40969 0.49692 0.0
O208 O 0.62844 0.30232 0.53358 0.0
O209 O 0.64138 0.38291 0.47907 0.0
C210 C 0.3086 0.9147 0.42526 0.0
O211 O 0.2925 0.89237 0.44293 0.0
Cd212 Cd 0.31652 0.85486 0.38915 0.0
O213 O 0.32596 0.9085 0.3907 0.0
Cd214 Cd 0.31823 0.85401 0.35504 0.0
C215 C 0.39085 0.86584 0.35895 0.0
O216 O 0.31004 0.8023 0.40198 0.0
O217 O 0.34091 0.80219 0.34227 0.0
O218 O 0.25933 0.86166 0.34461 0.0
C219 C 0.32749 0.78671 0.37403 0.0
O220 O 0.37664 0.86089 0.39651 0.0
C221 C 0.26009 0.86186 0.30152 0.0
O222 O 0.37279 0.86694 0.32357 0.0
O223 O 0.28824 0.85857 0.28291 0.0
C224 C 0.11331 0.74126 0.05352 0.0
C225 C 0.11712 0.75769 0.0947 0.0
H226 H 0.10894 0.69573 0.02191 0.0
C227 C 0.12508 0.74099 0.13429 0.0
H228 H 0.10697 0.7537 0.02262 0.0
C229 C 0.12622 0.7084 0.13392 0.0
C230 C 0.11935 0.69162 0.09394 0.0
H231 H 0.12849 0.75314 0.16637 0.0
H232 H 0.13051 0.69623 0.16572 0.0
C233 C 0.11444 0.70821 0.05314 0.0
C234 C 0.44386 0.87465 0.31624 0.0
C235 C 0.42734 0.86795 0.35699 0.0
H236 H 0.49072 0.87873 0.2827 0.0
C237 C 0.44611 0.86145 0.39619 0.0
H238 H 0.43004 0.87979 0.2855 0.0
C239 C 0.48051 0.86049 0.39445 0.0
C240 C 0.49709 0.86639 0.35362 0.0
H241 H 0.43424 0.85624 0.42819 0.0
H242 H 0.49412 0.85475 0.42516 0.0
C243 C 0.47853 0.87409 0.31465 0.0
C244 C 0.31942 0.24075 0.56114 0.0
C245 C 0.33569 0.25411 0.59894 0.0
H246 H 0.30405 0.19811 0.52772 0.0
C247 C 0.34795 0.2341 0.63304 0.0
H248 H 0.30962 0.25552 0.53434 0.0
C249 C 0.34483 0.20176 0.62925 0.0
C250 C 0.32927 0.18818 0.5913 0.0
H251 H 0.36041 0.24334 0.66287 0.0
H252 H 0.35498 0.18735 0.65625 0.0
C253 C 0.31619 0.20795 0.55738 0.0
C254 C -0.01041 0.08112 0.91345 0.0
C255 C 0.0109 0.07721 0.87636 0.0
H256 H 0.93997 0.08357 0.93701 0.0
C257 C -0.00284 0.07001 0.83351 0.0
H258 H -0.00077 0.08622 0.94709 0.0
C259 C 0.96264 0.06846 0.82767 0.0
C260 C 0.9415 0.07407 0.8646 0.0
H261 H 0.01295 0.06682 0.80428 0.0
H262 H 0.95255 0.0641 0.79408 0.0
C263 C 0.95547 0.07958 0.90767 0.0
C264 C 0.1373 0.2437 0.88562 0.0
C265 C 0.12268 0.25654 0.84624 0.0
H266 H 0.14983 0.20153 0.92228 0.0
C267 C 0.11028 0.23597 0.81286 0.0
H268 H 0.14715 0.25889 0.91194 0.0
C269 C 0.11171 0.20367 0.81879 0.0
C270 C 0.12571 0.19065 0.85821 0.0
H271 H 0.09898 0.24473 0.78192 0.0
H272 H 0.10153 0.18886 0.79222 0.0
C273 C 0.13888 0.21093 0.89151 0.0
C274 C 0.94487 0.88759 0.1169 0.0
C275 C 0.92796 0.87602 0.07855 0.0
H276 H -0.00804 0.8958 0.1487 0.0
C277 C 0.94627 0.86483 0.04147 0.0
H278 H 0.93139 0.89636 0.14597 0.0
C279 C -0.01929 0.86455 0.04298 0.0
C280 C -0.00229 0.87537 0.08165 0.0
H281 H 0.934 0.8559 0.01129 0.0
H282 H -0.00601 0.8554 0.01396 0.0
C283 C -0.0205 0.88723 0.11846 0.0
C284 C 0.31106 0.69966 0.39164 0.0
C285 C 0.33612 0.68656 0.36454 0.0
H286 H 0.28849 0.74222 0.4163 0.0
C287 C 0.36011 0.7065 0.34595 0.0
H288 H 0.29232 0.68482 0.40655 0.0
C289 C 0.35798 0.73881 0.35152 0.0
C290 C 0.33182 0.75226 0.37589 0.0
H291 H 0.38017 0.6972 0.3257 0.0
H292 H 0.37637 0.75339 0.33526 0.0
C293 C 0.3089 0.73242 0.39727 0.0
C294 C 0.49347 0.06969 0.53047 0.0
C295 C 0.50973 0.066 0.57237 0.0
H296 H 0.44782 0.07615 0.49535 0.0
C297 C 0.49072 0.06326 0.61206 0.0
H298 H 0.50729 0.07138 0.49915 0.0
C299 C 0.45606 0.06602 0.60986 0.0
C300 C 0.44016 0.0716 0.56797 0.0
H301 H 0.50263 0.06034 0.64483 0.0
H302 H 0.44195 0.06518 0.64098 0.0
C303 C 0.45925 0.07246 0.5283 0.0
C304 C 0.8695 0.20887 0.87269 0.0
C305 C 0.83942 0.19269 0.86917 0.0
H306 H 0.89376 0.25332 0.87062 0.0
C307 C 0.80959 0.20966 0.86991 0.0
H308 H 0.89278 0.19621 0.87219 0.0
C309 C 0.81015 0.24265 0.869 0.0
C310 C 0.84055 0.25857 0.8674 0.0
H311 H 0.78614 0.19757 0.86666 0.0
H312 H 0.78713 0.2554 0.86494 0.0
C313 C 0.87005 0.2415 0.87187 0.0
C314 C 0.61725 0.69735 0.36419 0.0
C315 C 0.6159 0.68178 0.322 0.0
H316 H 0.61541 0.74202 0.39873 0.0
C317 C 0.6163 0.69962 0.28203 0.0
H318 H 0.61694 0.68407 0.39553 0.0
C319 C 0.61546 0.73218 0.28381 0.0
C320 C 0.61408 0.74798 0.32564 0.0
H321 H 0.61587 0.68832 0.24901 0.0
H322 H 0.61451 0.74499 0.25206 0.0
C323 C 0.61633 0.73041 0.36602 0.0
C324 C 0.82715 0.70562 0.10681 0.0
C325 C 0.81527 0.69326 0.06564 0.0
H326 H 0.8382 0.74614 0.14605 0.0
C327 C 0.80381 0.71401 0.03187 0.0
H328 H 0.83587 0.69039 0.1338 0.0
C329 C 0.80524 0.74664 0.03894 0.0
C330 C 0.81807 0.75882 0.07991 0.0
H331 H 0.79447 0.70509 -0.00019 0.0
H332 H 0.79695 0.76223 0.01217 0.0
C333 C 0.82849 0.73781 0.11385 0.0
C334 C 0.64163 0.23115 0.53703 0.0
C335 C 0.61212 0.24833 0.54172 0.0
H336 H 0.66422 0.18535 0.53993 0.0
C337 C 0.58194 0.23222 0.54356 0.0
H338 H 0.66522 0.24315 0.53609 0.0
C339 C 0.58138 0.19962 0.54576 0.0
C340 C 0.61098 0.18242 0.54616 0.0
H341 H 0.55888 0.24498 0.5471 0.0
H342 H 0.55789 0.18796 0.55089 0.0
C343 C 0.64106 0.19817 0.53924 0.0
C344 C -0.00331 0.38513 0.80652 0.0
C345 C 0.01331 0.37534 0.84615 0.0
H346 H 0.94971 0.39223 0.77357 0.0
C347 C -0.00524 0.36668 0.88424 0.0
H348 H 0.01042 0.39193 0.77665 0.0
C349 C 0.96037 0.36699 0.88257 0.0
C350 C 0.94358 0.3758 0.84268 0.0
H351 H 0.00679 0.35926 0.91541 0.0
H352 H 0.94697 0.35974 0.91252 0.0
C353 C 0.96202 0.38526 0.80475 0.0
C354 C 0.48665 0.55184 0.30847 0.0
C355 C 0.50596 0.56258 0.34523 0.0
H356 H 0.4377 0.545 0.28153 0.0
C357 C 0.49007 0.57334 0.38456 0.0
H358 H 0.49825 0.54338 0.27771 0.0
C359 C 0.45568 0.57425 0.38673 0.0
C360 C 0.43626 0.56445 0.3496 0.0
H361 H 0.50419 0.5816 0.41359 0.0
H362 H 0.44433 0.58318 0.41739 0.0
C363 C 0.45204 0.55277 0.31064 0.0
C364 C 0.50263 0.3823 0.60568 0.0
C365 C 0.51729 0.37193 0.5651 0.0
H366 H 0.45738 0.3896 0.64219 0.0
C367 C 0.49685 0.36243 0.52891 0.0
H368 H 0.51779 0.38981 0.63414 0.0
C369 C 0.46263 0.36217 0.53357 0.0
C370 C 0.44787 0.37156 0.57447 0.0
H371 H 0.50729 0.35451 0.49707 0.0
H372 H 0.44774 0.35413 0.50513 0.0
C373 C 0.46812 0.38219 0.61029 0.0
C374 C -0.02193 0.57019 0.1004 0.0
C375 C 0.00036 0.57865 0.06603 0.0
H376 H 0.92704 0.56603 0.1198 0.0
C377 C -0.01216 0.58696 0.02313 0.0
H378 H -0.01293 0.5636 0.13378 0.0
C379 C 0.95395 0.58819 0.01513 0.0
C380 C 0.93142 0.58129 0.04984 0.0
H381 H 0.00428 0.59318 -0.00435 0.0
H382 H 0.94547 0.59536 -0.01826 0.0
C383 C 0.94377 0.57156 0.09238 0.0
C384 C 0.13676 0.47206 0.01847 0.0
C385 C 0.13691 0.50189 -0.00208 0.0
H386 H 0.1373 0.42222 0.00867 0.0
C387 C 0.14178 0.50398 0.9509 0.0
H388 H 0.13333 0.46965 0.05476 0.0
C389 C 0.14419 0.47675 0.92456 0.0
C390 C 0.14175 0.4469 0.94473 0.0
H391 H 0.14223 0.52658 0.93412 0.0
H392 H 0.14642 0.47917 0.88809 0.0
C393 C 0.13915 0.44483 -0.00788 0.0
C394 C 0.70715 0.87099 0.25843 0.0
C395 C 0.67879 0.87017 0.23048 0.0
H396 H 0.75999 0.87183 0.26194 0.0
C397 C 0.68259 0.87203 0.1832 0.0
H398 H 0.70513 0.86978 0.29506 0.0
C399 C 0.71414 0.87334 0.16423 0.0
C400 C 0.74254 0.87269 0.19215 0.0
H401 H 0.66126 0.8716 0.16075 0.0
H402 H 0.71624 0.87386 0.12757 0.0
C403 C 0.73867 0.87218 0.23948 0.0
C404 C 0.30541 0.43945 0.45059 0.0
C405 C 0.30831 0.44193 0.49796 0.0
H406 H 0.30296 0.46388 0.38729 0.0
C407 C 0.30657 0.47181 0.5183 0.0
H408 H 0.30645 0.41677 0.43398 0.0
C409 C 0.30465 0.49883 0.49163 0.0
C410 C 0.30437 0.49646 0.44411 0.0
H411 H 0.30838 0.4745 0.55483 0.0
H412 H 0.30518 0.52154 0.5082 0.0
C413 C 0.30343 0.46649 0.4239 0.0
C414 C 0.69886 0.08716 0.73689 0.0
C415 C 0.69598 0.08532 0.68944 0.0
H416 H 0.73124 0.08973 0.79434 0.0
C417 C 0.72496 0.08439 0.66318 0.0
H418 H 0.67705 0.0879 0.75808 0.0
C419 C 0.75615 0.08579 0.68394 0.0
C420 C 0.75898 0.08772 0.73141 0.0
H421 H 0.72359 0.08312 0.62646 0.0
H422 H 0.778 0.08535 0.66283 0.0
C423 C 0.72998 0.08816 0.75764 0.0
C424 C 0.80473 0.48224 0.87307 0.0
C425 C 0.80553 0.45558 0.90124 0.0
H426 H 0.80484 0.5324 0.86927 0.0
C427 C 0.80316 0.45959 0.9484 0.0
H428 H 0.80629 0.47993 0.83649 0.0
C429 C 0.80226 0.48972 -0.03282 0.0
C430 C 0.80383 0.51643 0.93914 0.0
H431 H 0.80358 0.43953 -0.02904 0.0
H432 H 0.80184 0.49201 0.00382 0.0
C433 C 0.80393 0.51236 0.89182 0.0
C434 C 0.23465 0.06757 0.77332 0.0
C435 C 0.20113 0.06827 0.76017 0.0
H436 H 0.28518 0.06788 0.75182 0.0
C437 C 0.19305 0.06697 0.71378 0.0
H438 H 0.24169 0.06837 0.80887 0.0
C439 C 0.21799 0.06675 0.68114 0.0
C440 C 0.25151 0.06772 0.69424 0.0
H441 H 0.16748 0.06737 0.70258 0.0
H442 H 0.21094 0.06691 0.64558 0.0
C443 C 0.2596 0.06723 0.74066 0.0
C444 C 0.65152 0.46341 0.39547 0.0
C445 C 0.65012 0.49311 0.41641 0.0
H446 H 0.65196 0.41357 0.40455 0.0
C447 C 0.65315 0.49506 0.46383 0.0
H448 H 0.6496 0.46111 0.3589 0.0
C449 C 0.65464 0.46773 0.48999 0.0
C450 C 0.65304 0.43797 0.46919 0.0
H451 H 0.65236 0.51758 0.48094 0.0
H452 H 0.65502 0.46997 0.52665 0.0
C453 C 0.65293 0.4361 0.42161 0.0
C454 C 0.19852 0.86523 0.29657 0.0
C455 C 0.22931 0.86472 0.27464 0.0
H456 H 0.14586 0.86563 0.28929 0.0
C457 C 0.23022 0.86594 0.22704 0.0
H458 H 0.197 0.86441 0.33327 0.0
C459 C 0.20086 0.86684 0.2018 0.0
C460 C 0.17002 0.86633 0.2237 0.0
H461 H 0.25358 0.86571 0.20922 0.0
H462 H 0.20239 0.86714 0.16509 0.0
C463 C 0.16918 0.86594 0.27137 0.0
C464 C 0.63863 0.95969 0.51332 0.0
C465 C 0.64142 -0.01083 0.49212 0.0
H466 H 0.63255 0.91005 0.50441 0.0
C467 C 0.64464 -0.00959 0.44475 0.0
H468 H 0.63627 0.95794 0.54986 0.0
C469 C 0.64258 0.96299 0.41885 0.0
C470 C 0.63719 0.93377 0.43974 0.0
H471 H 0.64707 0.01269 0.42743 0.0
H472 H 0.64359 0.96496 0.3822 0.0
C473 C 0.63652 0.93221 0.48734 0.0
C474 C 0.26169 0.37213 0.7516 0.0
C475 C 0.26609 0.37292 0.70436 0.0
H476 H 0.22723 0.37079 0.80639 0.0
C477 C 0.23806 0.3752 0.67592 0.0
H478 H 0.28275 0.37047 0.7744 0.0
C479 C 0.20632 0.37523 0.69412 0.0
C480 C 0.20183 0.37313 0.74122 0.0
H481 H 0.24052 0.37608 0.63932 0.0
H482 H 0.18531 0.37614 0.67114 0.0
C483 C 0.22985 0.37231 0.76987 0.0
C484 C 0.80029 -0.02687 0.91194 0.0
C485 C 0.80018 0.00287 0.93285 0.0
H486 H 0.80004 0.92329 0.92129 0.0
C487 C 0.79485 0.0049 -0.0202 0.0
H488 H 0.80403 0.97081 0.87568 0.0
C489 C 0.79242 -0.02234 0.00584 0.0
C490 C 0.79533 0.9479 -0.01458 0.0
H491 H 0.79432 0.02746 -0.00319 0.0
H492 H 0.79009 -0.02 0.04233 0.0
C493 C 0.7979 0.94587 0.93801 0.0
C494 C 0.2133 0.57806 0.17333 0.0
C495 C 0.18497 0.57615 0.20076 0.0
H496 H 0.26606 0.58069 0.17066 0.0
C497 C 0.18899 0.57373 0.24803 0.0
H498 H 0.21115 0.57989 0.13674 0.0
C499 C 0.22064 0.57409 0.26749 0.0
C500 C 0.24889 0.57703 0.24008 0.0
H501 H 0.16771 0.57218 0.27008 0.0
H502 H 0.22288 0.57277 0.30412 0.0
C503 C 0.24486 0.57858 0.19276 0.0
C504 C 0.29754 -0.01539 0.50359 0.0
C505 C 0.30806 0.00943 0.47564 0.0
H506 H 0.28911 0.93503 0.50947 0.0
C507 C 0.31674 0.00293 0.43052 0.0
H508 H 0.29064 -0.01109 0.53855 0.0
C509 C 0.31646 0.97215 0.41431 0.0
C510 C 0.30696 0.94721 0.44259 0.0
H511 H 0.32507 0.02145 0.40818 0.0
H512 H 0.32409 0.96786 0.37964 0.0
C513 C 0.29671 0.95378 0.48706 0.0
C514 C 0.70132 0.56756 0.12425 0.0
C515 C 0.73286 0.56907 0.14452 0.0
H516 H 0.64905 0.56618 0.13411 0.0
C517 C 0.73558 0.56754 0.19202 0.0
H518 H 0.69838 0.56843 0.08767 0.0
C519 C 0.70714 0.56622 0.21879 0.0
C520 C 0.67551 0.56644 0.19847 0.0
H521 H 0.75956 0.56857 0.20858 0.0
H522 H 0.70996 0.5662 0.2554 0.0
C523 C 0.67298 0.56627 0.15089 0.0
C524 C 0.13863 0.95532 -0.02752 0.0
C525 C 0.13865 0.95233 0.01995 0.0
H526 H 0.13839 -0.0133 0.91577 0.0
C527 C 0.14261 -0.02057 0.04683 0.0
H528 H 0.1357 0.9349 0.95087 0.0
C529 C 0.14401 0.00908 0.02685 0.0
C530 C 0.14155 0.01233 -0.02049 0.0
H531 H 0.14303 -0.02208 0.08356 0.0
H532 H 0.1455 0.02952 0.04871 0.0
C533 C 0.14009 -0.01494 0.95242 0.0
C534 C 0.72964 0.34985 0.64847 0.0
C535 C 0.70053 0.35029 0.67445 0.0
H536 H 0.78265 0.34975 0.64884 0.0
C537 C 0.70305 0.35147 0.72196 0.0
H538 H 0.72849 0.34881 0.61172 0.0
C539 C 0.73401 0.35231 0.74309 0.0
C540 C 0.76314 0.3516 0.71721 0.0
H541 H 0.68112 0.35188 0.74291 0.0
H542 H 0.73505 0.35317 0.77986 0.0
C543 C 0.76066 0.35029 0.66967 0.0
loop_
_geom_bond_atom_site_label_1
_geom_bond_atom_site_label_2
_geom_bond_distance
_geom_bond_site_symmetry_2
_ccdc_geom_bond_type
C0 O1 1.306 . S
C0 O3 1.160 . S
O1 C0 1.306 . S
O1 Cd2 2.228 . S
Cd2 O1 2.228 . S
Cd2 O6 2.273 . S
Cd2 O10 2.277 . S
O3 C0 1.160 . S
O3 Cd4 2.203 . S
Cd4 O3 2.203 . S
Cd4 O6 2.411 . S
Cd4 O7 2.333 . S
Cd4 O8 2.352 . S
Cd4 O12 2.277 . S
Cd4 O13 2.356 . S
C5 O10 1.209 . S
C5 O12 1.226 . S
O6 Cd2 2.273 . S
O6 Cd4 2.411 . S
O6 C9 1.320 . S
O7 Cd4 2.333 . S
O7 C9 1.214 . S
O8 Cd4 2.352 . S
O8 C11 1.258 . S
C9 O6 1.320 . S
C9 O7 1.214 . S
O10 Cd2 2.277 . S
O10 C5 1.209 . S
C11 O8 1.258 . S
C11 O13 1.282 . S
O12 Cd4 2.277 . S
O12 C5 1.226 . S
O13 Cd4 2.356 . S
O13 C11 1.282 . S
C14 O15 1.306 . S
C14 O17 1.160 . S
O15 C14 1.306 . S
O15 Cd16 2.228 . S
Cd16 O15 2.228 . S
Cd16 O20 2.273 . S
Cd16 O24 2.277 . S
O17 C14 1.160 . S
O17 Cd18 2.203 . S
Cd18 O17 2.203 . S
Cd18 O20 2.411 . S
Cd18 O21 2.333 . S
Cd18 O22 2.352 . S
Cd18 O26 2.277 . S
Cd18 O27 2.356 . S
C19 O24 1.209 . S
C19 O26 1.226 . S
O20 Cd16 2.273 . S
O20 Cd18 2.411 . S
O20 C23 1.320 . S
O21 Cd18 2.333 . S
O21 C23 1.214 . S
O22 Cd18 2.352 . S
O22 C25 1.258 . S
C23 O20 1.320 . S
C23 O21 1.214 . S
O24 Cd16 2.277 . S
O24 C19 1.209 . S
C25 O22 1.258 . S
C25 O27 1.282 . S
O26 Cd18 2.277 . S
O26 C19 1.226 . S
O27 Cd18 2.356 . S
O27 C25 1.282 . S
C28 O29 1.306 . S
C28 O31 1.160 . S
O29 C28 1.306 . S
O29 Cd30 2.228 . S
Cd30 O29 2.228 . S
Cd30 O34 2.273 . S
Cd30 O38 2.277 . S
O31 C28 1.160 . S
O31 Cd32 2.203 . S
Cd32 O31 2.203 . S
Cd32 O34 2.411 . S
Cd32 O35 2.333 . S
Cd32 O36 2.352 . S
Cd32 O40 2.277 . S
Cd32 O41 2.356 . S
C33 O38 1.209 . S
C33 O40 1.226 . S
O34 Cd30 2.273 . S
O34 Cd32 2.411 . S
O34 C37 1.320 . S
O35 Cd32 2.333 . S
O35 C37 1.214 . S
O36 Cd32 2.352 . S
O36 C39 1.258 . S
C37 O34 1.320 . S
C37 O35 1.214 . S
O38 Cd30 2.277 . S
O38 C33 1.209 . S
C39 O36 1.258 . S
C39 O41 1.282 . S
O40 Cd32 2.277 . S
O40 C33 1.226 . S
O41 Cd32 2.356 . S
O41 C39 1.282 . S
C42 O43 1.306 . S
C42 O45 1.160 . S
O43 C42 1.306 . S
O43 Cd44 2.228 . S
Cd44 O43 2.228 . S
Cd44 O48 2.273 . S
Cd44 O52 2.277 . S
O45 C42 1.160 . S
O45 Cd46 2.203 . S
Cd46 O45 2.203 . S
Cd46 O48 2.411 . S
Cd46 O49 2.333 . S
Cd46 O50 2.352 . S
Cd46 O54 2.277 . S
Cd46 O55 2.356 . S
C47 O52 1.209 . S
C47 O54 1.226 . S
O48 Cd44 2.273 . S
O48 Cd46 2.411 . S
O48 C51 1.320 . S
O49 Cd46 2.333 . S
O49 C51 1.214 . S
O50 Cd46 2.352 . S
O50 C53 1.258 . S
C51 O48 1.320 . S
C51 O49 1.214 . S
O52 Cd44 2.277 . S
O52 C47 1.209 . S
C53 O50 1.258 . S
C53 O55 1.282 . S
O54 Cd46 2.277 . S
O54 C47 1.226 . S
O55 Cd46 2.356 . S
O55 C53 1.282 . S
C56 O57 1.306 . S
C56 O59 1.160 . S
O57 C56 1.306 . S
O57 Cd58 2.228 . S
Cd58 O57 2.228 . S
Cd58 O62 2.273 . S
Cd58 O66 2.277 . S
O59 C56 1.160 . S
O59 Cd60 2.203 . S
Cd60 O59 2.203 . S
Cd60 O62 2.411 . S
Cd60 O63 2.333 . S
Cd60 O64 2.352 . S
Cd60 O68 2.277 . S
Cd60 O69 2.356 . S
C61 O66 1.209 . S
C61 O68 1.226 . S
O62 Cd58 2.273 . S
O62 Cd60 2.411 . S
O62 C65 1.320 . S
O63 Cd60 2.333 . S
O63 C65 1.214 . S
O64 Cd60 2.352 . S
O64 C67 1.258 . S
C65 O62 1.320 . S
C65 O63 1.214 . S
O66 Cd58 2.277 . S
O66 C61 1.209 . S
C67 O64 1.258 . S
C67 O69 1.282 . S
O68 Cd60 2.277 . S
O68 C61 1.226 . S
O69 Cd60 2.356 . S
O69 C67 1.282 . S
C70 O71 1.306 . S
C70 O73 1.160 . S
O71 C70 1.306 . S
O71 Cd72 2.228 . S
Cd72 O71 2.228 . S
Cd72 O76 2.273 . S
Cd72 O80 2.277 . S
O73 C70 1.160 . S
O73 Cd74 2.203 . S
Cd74 O73 2.203 . S
Cd74 O76 2.411 . S
Cd74 O77 2.333 . S
Cd74 O78 2.352 . S
Cd74 O82 2.277 . S
Cd74 O83 2.356 . S
C75 O80 1.209 . S
C75 O82 1.226 . S
O76 Cd72 2.273 . S
O76 Cd74 2.411 . S
O76 C79 1.320 . S
O77 Cd74 2.333 . S
O77 C79 1.214 . S
O78 Cd74 2.352 . S
O78 C81 1.258 . S
C79 O76 1.320 . S
C79 O77 1.214 . S
O80 Cd72 2.277 . S
O80 C75 1.209 . S
C81 O78 1.258 . S
C81 O83 1.282 . S
O82 Cd74 2.277 . S
O82 C75 1.226 . S
O83 Cd74 2.356 . S
O83 C81 1.282 . S
C84 O85 1.306 . S
C84 O87 1.160 . S
O85 C84 1.306 . S
O85 Cd86 2.228 . S
Cd86 O85 2.228 . S
Cd86 O90 2.273 . S
Cd86 O94 2.277 . S
O87 C84 1.160 . S
O87 Cd88 2.203 . S
Cd88 O87 2.203 . S
Cd88 O90 2.411 . S
Cd88 O91 2.333 . S
Cd88 O92 2.352 . S
Cd88 O96 2.277 . S
Cd88 O97 2.356 . S
C89 O94 1.209 . S
C89 O96 1.226 . S
O90 Cd86 2.273 . S
O90 Cd88 2.411 . S
O90 C93 1.320 . S
O91 Cd88 2.333 . S
O91 C93 1.214 . S
O92 Cd88 2.352 . S
O92 C95 1.258 . S
C93 O90 1.320 . S
C93 O91 1.214 . S
O94 Cd86 2.277 . S
O94 C89 1.209 . S
C95 O92 1.258 . S
C95 O97 1.282 . S
O96 Cd88 2.277 . S
O96 C89 1.226 . S
O97 Cd88 2.356 . S
O97 C95 1.282 . S
C98 O99 1.306 . S
C98 O101 1.160 . S
O99 C98 1.306 . S
O99 Cd100 2.228 . S
Cd100 O99 2.228 . S
Cd100 O104 2.273 . S
Cd100 O108 2.277 . S
O101 C98 1.160 . S
O101 Cd102 2.203 . S
Cd102 O101 2.203 . S
Cd102 O104 2.411 . S
Cd102 O105 2.333 . S
Cd102 O106 2.352 . S
Cd102 O110 2.277 . S
Cd102 O111 2.356 . S
C103 O108 1.209 . S
C103 O110 1.226 . S
O104 Cd100 2.273 . S
O104 Cd102 2.411 . S
O104 C107 1.320 . S
O105 Cd102 2.333 . S
O105 C107 1.214 . S
O106 Cd102 2.352 . S
O106 C109 1.258 . S
C107 O104 1.320 . S
C107 O105 1.214 . S
O108 Cd100 2.277 . S
O108 C103 1.209 . S
C109 O106 1.258 . S
C109 O111 1.282 . S
O110 Cd102 2.277 . S
O110 C103 1.226 . S
O111 Cd102 2.356 . S
O111 C109 1.282 . S
C112 O113 1.306 . S
C112 O115 1.160 . S
O113 C112 1.306 . S
O113 Cd114 2.228 . S
Cd114 O113 2.228 . S
Cd114 O118 2.273 . S
Cd114 O122 2.277 . S
O115 C112 1.160 . S
O115 Cd116 2.203 . S
Cd116 O115 2.203 . S
Cd116 O118 2.411 . S
Cd116 O119 2.333 . S
Cd116 O120 2.352 . S
Cd116 O124 2.277 . S
Cd116 O125 2.356 . S
C117 O122 1.209 . S
C117 O124 1.226 . S
O118 Cd114 2.273 . S
O118 Cd116 2.411 . S
O118 C121 1.320 . S
O119 Cd116 2.333 . S
O119 C121 1.214 . S
O120 Cd116 2.352 . S
O120 C123 1.258 . S
C121 O118 1.320 . S
C121 O119 1.214 . S
O122 Cd114 2.277 . S
O122 C117 1.209 . S
C123 O120 1.258 . S
C123 O125 1.282 . S
O124 Cd116 2.277 . S
O124 C117 1.226 . S
O125 Cd116 2.356 . S
O125 C123 1.282 . S
C126 O127 1.306 . S
C126 O129 1.160 . S
O127 C126 1.306 . S
O127 Cd128 2.228 . S
Cd128 O127 2.228 . S
Cd128 O132 2.273 . S
Cd128 O136 2.277 . S
O129 C126 1.160 . S
O129 Cd130 2.203 . S
Cd130 O129 2.203 . S
Cd130 O132 2.411 . S
Cd130 O133 2.333 . S
Cd130 O134 2.352 . S
Cd130 O138 2.277 . S
Cd130 O139 2.356 . S
C131 O136 1.209 . S
C131 O138 1.226 . S
O132 Cd128 2.273 . S
O132 Cd130 2.411 . S
O132 C135 1.320 . S
O133 Cd130 2.333 . S
O133 C135 1.214 . S
O134 Cd130 2.352 . S
O134 C137 1.258 . S
C135 O132 1.320 . S
C135 O133 1.214 . S
O136 Cd128 2.277 . S
O136 C131 1.209 . S
C137 O134 1.258 . S
C137 O139 1.282 . S
O138 Cd130 2.277 . S
O138 C131 1.226 . S
O139 Cd130 2.356 . S
O139 C137 1.282 . S
C140 O141 1.306 . S
C140 O143 1.160 . S
O141 C140 1.306 . S
O141 Cd142 2.228 . S
Cd142 O141 2.228 . S
Cd142 O146 2.273 . S
Cd142 O150 2.277 . S
O143 C140 1.160 . S
O143 Cd144 2.203 . S
Cd144 O143 2.203 . S
Cd144 O146 2.411 . S
Cd144 O147 2.333 . S
Cd144 O148 2.352 . S
Cd144 O152 2.277 . S
Cd144 O153 2.356 . S
C145 O150 1.209 . S
C145 O152 1.226 . S
O146 Cd142 2.273 . S
O146 Cd144 2.411 . S
O146 C149 1.320 . S
O147 Cd144 2.333 . S
O147 C149 1.214 . S
O148 Cd144 2.352 . S
O148 C151 1.258 . S
C149 O146 1.320 . S
C149 O147 1.214 . S
O150 Cd142 2.277 . S
O150 C145 1.209 . S
C151 O148 1.258 . S
C151 O153 1.282 . S
O152 Cd144 2.277 . S
O152 C145 1.226 . S
O153 Cd144 2.356 . S
O153 C151 1.282 . S
C154 O155 1.306 . S
C154 O157 1.160 . S
O155 C154 1.306 . S
O155 Cd156 2.228 . S
Cd156 O155 2.228 . S
Cd156 O160 2.273 . S
Cd156 O164 2.277 . S
O157 C154 1.160 . S
O157 Cd158 2.203 . S
Cd158 O157 2.203 . S
Cd158 O160 2.411 . S
Cd158 O161 2.333 . S
Cd158 O162 2.352 . S
Cd158 O166 2.277 . S
Cd158 O167 2.356 . S
C159 O164 1.209 . S
C159 O166 1.226 . S
O160 Cd156 2.273 . S
O160 Cd158 2.411 . S
O160 C163 1.320 . S
O161 Cd158 2.333 . S
O161 C163 1.214 . S
O162 Cd158 2.352 . S
O162 C165 1.258 . S
C163 O160 1.320 . S
C163 O161 1.214 . S
O164 Cd156 2.277 . S
O164 C159 1.209 . S
C165 O162 1.258 . S
C165 O167 1.282 . S
O166 Cd158 2.277 . S
O166 C159 1.226 . S
O167 Cd158 2.356 . S
O167 C165 1.282 . S
C168 O169 1.306 . S
C168 O171 1.160 . S
O169 C168 1.306 . S
O169 Cd170 2.228 . S
Cd170 O169 2.228 . S
Cd170 O174 2.273 . S
Cd170 O178 2.277 . S
O171 C168 1.160 . S
O171 Cd172 2.203 . S
Cd172 O171 2.203 . S
Cd172 O174 2.411 . S
Cd172 O175 2.333 . S
Cd172 O176 2.352 . S
Cd172 O180 2.277 . S
Cd172 O181 2.356 . S
C173 O178 1.209 . S
C173 O180 1.226 . S
O174 Cd170 2.273 . S
O174 Cd172 2.411 . S
O174 C177 1.320 . S
O175 Cd172 2.333 . S
O175 C177 1.214 . S
O176 Cd172 2.352 . S
O176 C179 1.258 . S
C177 O174 1.320 . S
C177 O175 1.214 . S
O178 Cd170 2.277 . S
O178 C173 1.209 . S
C179 O176 1.258 . S
C179 O181 1.282 . S
O180 Cd172 2.277 . S
O180 C173 1.226 . S
O181 Cd172 2.356 . S
O181 C179 1.282 . S
C182 O183 1.306 . S
C182 O185 1.160 . S
O183 C182 1.306 . S
O183 Cd184 2.228 . S
Cd184 O183 2.228 . S
Cd184 O188 2.273 . S
Cd184 O192 2.277 . S
O185 C182 1.160 . S
O185 Cd186 2.203 . S
Cd186 O185 2.203 . S
Cd186 O188 2.411 . S
Cd186 O189 2.333 . S
Cd186 O190 2.352 . S
Cd186 O194 2.277 . S
Cd186 O195 2.356 . S
C187 O192 1.209 . S
C187 O194 1.226 . S
O188 Cd184 2.273 . S
O188 Cd186 2.411 . S
O188 C191 1.320 . S
O189 Cd186 2.333 . S
O189 C191 1.214 . S
O190 Cd186 2.352 . S
O190 C193 1.258 . S
C191 O188 1.320 . S
C191 O189 1.214 . S
O192 Cd184 2.277 . S
O192 C187 1.209 . S
C193 O190 1.258 . S
C193 O195 1.282 . S
O194 Cd186 2.277 . S
O194 C187 1.226 . S
O195 Cd186 2.356 . S
O195 C193 1.282 . S
C196 O197 1.306 . S
C196 O199 1.160 . S
O197 C196 1.306 . S
O197 Cd198 2.228 . S
Cd198 O197 2.228 . S
Cd198 O202 2.273 . S
Cd198 O206 2.277 . S
O199 C196 1.160 . S
O199 Cd200 2.203 . S
Cd200 O199 2.203 . S
Cd200 O202 2.411 . S
Cd200 O203 2.333 . S
Cd200 O204 2.352 . S
Cd200 O208 2.277 . S
Cd200 O209 2.356 . S
C201 O206 1.209 . S
C201 O208 1.226 . S
O202 Cd198 2.273 . S
O202 Cd200 2.411 . S
O202 C205 1.320 . S
O203 Cd200 2.333 . S
O203 C205 1.214 . S
O204 Cd200 2.352 . S
O204 C207 1.258 . S
C205 O202 1.320 . S
C205 O203 1.214 . S
O206 Cd198 2.277 . S
O206 C201 1.209 . S
C207 O204 1.258 . S
C207 O209 1.282 . S
O208 Cd200 2.277 . S
O208 C201 1.226 . S
O209 Cd200 2.356 . S
O209 C207 1.282 . S
C210 O211 1.306 . S
C210 O213 1.160 . S
O211 C210 1.306 . S
O211 Cd212 2.228 . S
Cd212 O211 2.228 . S
Cd212 O216 2.273 . S
Cd212 O220 2.277 . S
O213 C210 1.160 . S
O213 Cd214 2.203 . S
Cd214 O213 2.203 . S
Cd214 O216 2.411 . S
Cd214 O217 2.333 . S
Cd214 O218 2.352 . S
Cd214 O222 2.277 . S
Cd214 O223 2.356 . S
C215 O220 1.209 . S
C215 O222 1.226 . S
O216 Cd212 2.273 . S
O216 Cd214 2.411 . S
O216 C219 1.320 . S
O217 Cd214 2.333 . S
O217 C219 1.214 . S
O218 Cd214 2.352 . S
O218 C221 1.258 . S
C219 O216 1.320 . S
C219 O217 1.214 . S
O220 Cd212 2.277 . S
O220 C215 1.209 . S
C221 O218 1.258 . S
C221 O223 1.282 . S
O222 Cd214 2.277 . S
O222 C215 1.226 . S
O223 Cd214 2.356 . S
O223 C221 1.282 . S
C224 C225 1.387 . S
C224 H228 0.950 . S
C224 C233 1.390 . S
C225 C224 1.387 . S
C225 C227 1.387 . S
H226 C233 0.950 . S
C227 C225 1.387 . S
C227 C229 1.390 . S
C227 H231 0.950 . S
H228 C224 0.950 . S
C229 C227 1.390 . S
C229 C230 1.387 . S
C229 H232 0.950 . S
C230 C229 1.387 . S
C230 C233 1.387 . S
H231 C227 0.950 . S
H232 C229 0.950 . S
C233 C224 1.390 . S
C233 H226 0.950 . S
C233 C230 1.387 . S
C234 C235 1.387 . S
C234 H238 0.950 . S
C234 C243 1.390 . S
C235 C234 1.387 . S
C235 C237 1.387 . S
H236 C243 0.950 . S
C237 C235 1.387 . S
C237 C239 1.390 . S
C237 H241 0.950 . S
H238 C234 0.950 . S
C239 C237 1.390 . S
C239 C240 1.387 . S
C239 H242 0.950 . S
C240 C239 1.387 . S
C240 C243 1.387 . S
H241 C237 0.950 . S
H242 C239 0.950 . S
C243 C234 1.390 . S
C243 H236 0.950 . S
C243 C240 1.387 . S
C244 C245 1.387 . S
C244 H248 0.950 . S
C244 C253 1.390 . S
C245 C244 1.387 . S
C245 C247 1.387 . S
H246 C253 0.950 . S
C247 C245 1.387 . S
C247 C249 1.390 . S
C247 H251 0.950 . S
H248 C244 0.950 . S
C249 C247 1.390 . S
C249 C250 1.387 . S
C249 H252 0.950 . S
C250 C249 1.387 . S
C250 C253 1.387 . S
H251 C247 0.950 . S
H252 C249 0.950 . S
C253 C244 1.390 . S
C253 H246 0.950 . S
C253 C250 1.387 . S
C254 C255 1.387 . S
C254 H258 0.950 . S
C254 C263 1.390 1_455 S
C255 C254 1.387 . S
C255 C257 1.387 . S
H256 C263 0.950 . S
C257 C255 1.387 . S
C257 C259 1.390 1_455 S
C257 H261 0.950 . S
H258 C254 0.950 . S
C259 C257 1.390 1_655 S
C259 C260 1.387 . S
C259 H262 0.950 . S
C260 C259 1.387 . S
C260 C263 1.387 . S
H261 C257 0.950 . S
H262 C259 0.950 . S
C263 C254 1.390 1_655 S
C263 H256 0.950 . S
C263 C260 1.387 . S
C264 C265 1.387 . S
C264 H268 0.950 . S
C264 C273 1.390 . S
C265 C264 1.387 . S
C265 C267 1.387 . S
H266 C273 0.950 . S
C267 C265 1.387 . S
C267 C269 1.390 . S
C267 H271 0.950 . S
H268 C264 0.950 . S
C269 C267 1.390 . S
C269 C270 1.387 . S
C269 H272 0.950 . S
C270 C269 1.387 . S
C270 C273 1.387 . S
H271 C267 0.950 . S
H272 C269 0.950 . S
C273 C264 1.390 . S
C273 H266 0.950 . S
C273 C270 1.387 . S
C274 C275 1.387 . S
C274 H278 0.950 . S
C274 C283 1.390 1_655 S
C275 C274 1.387 . S
C275 C277 1.387 . S
H276 C283 0.950 . S
C277 C275 1.387 . S
C277 C279 1.390 1_655 S
C277 H281 0.950 . S
H278 C274 0.950 . S
C279 C277 1.390 1_455 S
C279 C280 1.387 . S
C279 H282 0.950 . S
C280 C279 1.387 . S
C280 C283 1.387 . S
H281 C277 0.950 . S
H282 C279 0.950 . S
C283 C274 1.390 1_455 S
C283 H276 0.950 . S
C283 C280 1.387 . S
C284 C285 1.387 . S
C284 H288 0.950 . S
C284 C293 1.390 . S
C285 C284 1.387 . S
C285 C287 1.387 . S
H286 C293 0.950 . S
C287 C285 1.387 . S
C287 C289 1.390 . S
C287 H291 0.950 . S
H288 C284 0.950 . S
C289 C287 1.390 . S
C289 C290 1.387 . S
C289 H292 0.950 . S
C290 C289 1.387 . S
C290 C293 1.387 . S
H291 C287 0.950 . S
H292 C289 0.950 . S
C293 C284 1.390 . S
C293 H286 0.950 . S
C293 C290 1.387 . S
C294 C295 1.387 . S
C294 H298 0.950 . S
C294 C303 1.390 . S
C295 C294 1.387 . S
C295 C297 1.387 . S
H296 C303 0.950 . S
C297 C295 1.387 . S
C297 C299 1.390 . S
C297 H301 0.950 . S
H298 C294 0.950 . S
C299 C297 1.390 . S
C299 C300 1.387 . S
C299 H302 0.950 . S
C300 C299 1.387 . S
C300 C303 1.387 . S
H301 C297 0.950 . S
H302 C299 0.950 . S
C303 C294 1.390 . S
C303 H296 0.950 . S
C303 C300 1.387 . S
C304 C305 1.387 . S
C304 H308 0.950 . S
C304 C313 1.390 . S
C305 C304 1.387 . S
C305 C307 1.387 . S
H306 C313 0.950 . S
C307 C305 1.387 . S
C307 C309 1.390 . S
C307 H311 0.950 . S
H308 C304 0.950 . S
C309 C307 1.390 . S
C309 C310 1.387 . S
C309 H312 0.950 . S
C310 C309 1.387 . S
C310 C313 1.387 . S
H311 C307 0.950 . S
H312 C309 0.950 . S
C313 C304 1.390 . S
C313 H306 0.950 . S
C313 C310 1.387 . S
C314 C315 1.387 . S
C314 H318 0.950 . S
C314 C323 1.390 . S
C315 C314 1.387 . S
C315 C317 1.387 . S
H316 C323 0.950 . S
C317 C315 1.387 . S
C317 C319 1.390 . S
C317 H321 0.950 . S
H318 C314 0.950 . S
C319 C317 1.390 . S
C319 C320 1.387 . S
C319 H322 0.950 . S
C320 C319 1.387 . S
C320 C323 1.387 . S
H321 C317 0.950 . S
H322 C319 0.950 . S
C323 C314 1.390 . S
C323 H316 0.950 . S
C323 C320 1.387 . S
C324 C325 1.387 . S
C324 H328 0.950 . S
C324 C333 1.390 . S
C325 C324 1.387 . S
C325 C327 1.387 . S
H326 C333 0.950 . S
C327 C325 1.387 . S
C327 C329 1.390 . S
C327 H331 0.950 . S
H328 C324 0.950 . S
C329 C327 1.390 . S
C329 C330 1.387 . S
C329 H332 0.950 . S
C330 C329 1.387 . S
C330 C333 1.387 . S
H331 C327 0.950 . S
H332 C329 0.950 . S
C333 C324 1.390 . S
C333 H326 0.950 . S
C333 C330 1.387 . S
C334 C335 1.387 . S
C334 H338 0.950 . S
C334 C343 1.390 . S
C335 C334 1.387 . S
C335 C337 1.387 . S
H336 C343 0.950 . S
C337 C335 1.387 . S
C337 C339 1.390 . S
C337 H341 0.950 . S
H338 C334 0.950 . S
C339 C337 1.390 . S
C339 C340 1.387 . S
C339 H342 0.950 . S
C340 C339 1.387 . S
C340 C343 1.387 . S
H341 C337 0.950 . S
H342 C339 0.950 . S
C343 C334 1.390 . S
C343 H336 0.950 . S
C343 C340 1.387 . S
C344 C345 1.387 . S
C344 H348 0.950 . S
C344 C353 1.390 1_455 S
C345 C344 1.387 . S
C345 C347 1.387 . S
H346 C353 0.950 . S
C347 C345 1.387 . S
C347 C349 1.390 1_455 S
C347 H351 0.950 . S
H348 C344 0.950 . S
C349 C347 1.390 1_655 S
C349 C350 1.387 . S
C349 H352 0.950 . S
C350 C349 1.387 . S
C350 C353 1.387 . S
H351 C347 0.950 . S
H352 C349 0.950 . S
C353 C344 1.390 1_655 S
C353 H346 0.950 . S
C353 C350 1.387 . S
C354 C355 1.387 . S
C354 H358 0.950 . S
C354 C363 1.390 . S
C355 C354 1.387 . S
C355 C357 1.387 . S
H356 C363 0.950 . S
C357 C355 1.387 . S
C357 C359 1.390 . S
C357 H361 0.950 . S
H358 C354 0.950 . S
C359 C357 1.390 . S
C359 C360 1.387 . S
C359 H362 0.950 . S
C360 C359 1.387 . S
C360 C363 1.387 . S
H361 C357 0.950 . S
H362 C359 0.950 . S
C363 C354 1.390 . S
C363 H356 0.950 . S
C363 C360 1.387 . S
C364 C365 1.387 . S
C364 H368 0.950 . S
C364 C373 1.390 . S
C365 C364 1.387 . S
C365 C367 1.387 . S
H366 C373 0.950 . S
C367 C365 1.387 . S
C367 C369 1.390 . S
C367 H371 0.950 . S
H368 C364 0.950 . S
C369 C367 1.390 . S
C369 C370 1.387 . S
C369 H372 0.950 . S
C370 C369 1.387 . S
C370 C373 1.387 . S
H371 C367 0.950 . S
H372 C369 0.950 . S
C373 C364 1.390 . S
C373 H366 0.950 . S
C373 C370 1.387 . S
C374 C375 1.387 . S
C374 H378 0.950 . S
C374 C383 1.390 1_455 S
C375 C374 1.387 . S
C375 C377 1.387 . S
H376 C383 0.950 . S
C377 C375 1.387 . S
C377 C379 1.390 1_455 S
C377 H381 0.950 . S
H378 C374 0.950 . S
C379 C377 1.390 1_655 S
C379 C380 1.387 . S
C379 H382 0.950 . S
C380 C379 1.387 . S
C380 C383 1.387 . S
H381 C377 0.950 . S
H382 C379 0.950 . S
C383 C374 1.390 1_655 S
C383 H376 0.950 . S
C383 C380 1.387 . S
C384 C385 1.387 . S
C384 H388 0.950 . S
C384 C393 1.390 1_554 S
C385 C384 1.387 . S
C385 C387 1.387 . S
H386 C393 0.950 . S
C387 C385 1.387 . S
C387 C389 1.390 1_554 S
C387 H391 0.950 . S
H388 C384 0.950 . S
C389 C387 1.390 1_556 S
C389 C390 1.387 . S
C389 H392 0.950 . S
C390 C389 1.387 . S
C390 C393 1.387 . S
H391 C387 0.950 . S
H392 C389 0.950 . S
C393 C384 1.390 1_556 S
C393 H386 0.950 . S
C393 C390 1.387 . S
C394 C395 1.387 . S
C394 H398 0.950 . S
C394 C403 1.390 . S
C395 C394 1.387 . S
C395 C397 1.387 . S
H396 C403 0.950 . S
C397 C395 1.387 . S
C397 C399 1.390 . S
C397 H401 0.950 . S
H398 C394 0.950 . S
C399 C397 1.390 . S
C399 C400 1.387 . S
C399 H402 0.950 . S
C400 C399 1.387 . S
C400 C403 1.387 . S
H401 C397 0.950 . S
H402 C399 0.950 . S
C403 C394 1.390 . S
C403 H396 0.950 . S
C403 C400 1.387 . S
C404 C405 1.387 . S
C404 H408 0.950 . S
C404 C413 1.390 . S
C405 C404 1.387 . S
C405 C407 1.387 . S
H406 C413 0.950 . S
C407 C405 1.387 . S
C407 C409 1.390 . S
C407 H411 0.950 . S
H408 C404 0.950 . S
C409 C407 1.390 . S
C409 C410 1.387 . S
C409 H412 0.950 . S
C410 C409 1.387 . S
C410 C413 1.387 . S
H411 C407 0.950 . S
H412 C409 0.950 . S
C413 C404 1.390 . S
C413 H406 0.950 . S
C413 C410 1.387 . S
C414 C415 1.387 . S
C414 H418 0.950 . S
C414 C423 1.390 . S
C415 C414 1.387 . S
C415 C417 1.387 . S
H416 C423 0.950 . S
C417 C415 1.387 . S
C417 C419 1.390 . S
C417 H421 0.950 . S
H418 C414 0.950 . S
C419 C417 1.390 . S
C419 C420 1.387 . S
C419 H422 0.950 . S
C420 C419 1.387 . S
C420 C423 1.387 . S
H421 C417 0.950 . S
H422 C419 0.950 . S
C423 C414 1.390 . S
C423 H416 0.950 . S
C423 C420 1.387 . S
C424 C425 1.387 . S
C424 H428 0.950 . S
C424 C433 1.390 1_556 S
C425 C424 1.387 . S
C425 C427 1.387 . S
H426 C433 0.950 . S
C427 C425 1.387 . S
C427 C429 1.390 1_556 S
C427 H431 0.950 . S
H428 C424 0.950 . S
C429 C427 1.390 1_554 S
C429 C430 1.387 . S
C429 H432 0.950 . S
C430 C429 1.387 . S
C430 C433 1.387 . S
H431 C427 0.950 . S
H432 C429 0.950 . S
C433 C424 1.390 1_554 S
C433 H426 0.950 . S
C433 C430 1.387 . S
C434 C435 1.387 . S
C434 H438 0.950 . S
C434 C443 1.390 . S
C435 C434 1.387 . S
C435 C437 1.387 . S
H436 C443 0.950 . S
C437 C435 1.387 . S
C437 C439 1.390 . S
C437 H441 0.950 . S
H438 C434 0.950 . S
C439 C437 1.390 . S
C439 C440 1.387 . S
C439 H442 0.950 . S
C440 C439 1.387 . S
C440 C443 1.387 . S
H441 C437 0.950 . S
H442 C439 0.950 . S
C443 C434 1.390 . S
C443 H436 0.950 . S
C443 C440 1.387 . S
C444 C445 1.387 . S
C444 H448 0.950 . S
C444 C453 1.390 . S
C445 C444 1.387 . S
C445 C447 1.387 . S
H446 C453 0.950 . S
C447 C445 1.387 . S
C447 C449 1.390 . S
C447 H451 0.950 . S
H448 C444 0.950 . S
C449 C447 1.390 . S
C449 C450 1.387 . S
C449 H452 0.950 . S
C450 C449 1.387 . S
C450 C453 1.387 . S
H451 C447 0.950 . S
H452 C449 0.950 . S
C453 C444 1.390 . S
C453 H446 0.950 . S
C453 C450 1.387 . S
C454 C455 1.387 . S
C454 H458 0.950 . S
C454 C463 1.390 . S
C455 C454 1.387 . S
C455 C457 1.387 . S
H456 C463 0.950 . S
C457 C455 1.387 . S
C457 C459 1.390 . S
C457 H461 0.950 . S
H458 C454 0.950 . S
C459 C457 1.390 . S
C459 C460 1.387 . S
C459 H462 0.950 . S
C460 C459 1.387 . S
C460 C463 1.387 . S
H461 C457 0.950 . S
H462 C459 0.950 . S
C463 C454 1.390 . S
C463 H456 0.950 . S
C463 C460 1.387 . S
C464 C465 1.387 . S
C464 H468 0.950 . S
C464 C473 1.390 1_545 S
C465 C464 1.387 . S
C465 C467 1.387 . S
H466 C473 0.950 . S
C467 C465 1.387 . S
C467 C469 1.390 1_545 S
C467 H471 0.950 . S
H468 C464 0.950 . S
C469 C467 1.390 1_565 S
C469 C470 1.387 . S
C469 H472 0.950 . S
C470 C469 1.387 . S
C470 C473 1.387 . S
H471 C467 0.950 . S
H472 C469 0.950 . S
C473 C464 1.390 1_565 S
C473 H466 0.950 . S
C473 C470 1.387 . S
C474 C475 1.387 . S
C474 H478 0.950 . S
C474 C483 1.390 . S
C475 C474 1.387 . S
C475 C477 1.387 . S
H476 C483 0.950 . S
C477 C475 1.387 . S
C477 C479 1.390 . S
C477 H481 0.950 . S
H478 C474 0.950 . S
C479 C477 1.390 . S
C479 C480 1.387 . S
C479 H482 0.950 . S
C480 C479 1.387 . S
C480 C483 1.387 . S
H481 C477 0.950 . S
H482 C479 0.950 . S
C483 C474 1.390 . S
C483 H476 0.950 . S
C483 C480 1.387 . S
C484 C485 1.387 . S
C484 H488 0.950 . S
C484 C493 1.390 1_546 S
C485 C484 1.387 . S
C485 C487 1.387 . S
H486 C493 0.950 . S
C487 C485 1.387 . S
C487 C489 1.390 1_546 S
C487 H491 0.950 . S
H488 C484 0.950 . S
C489 C487 1.390 1_564 S
C489 C490 1.387 . S
C489 H492 0.950 . S
C490 C489 1.387 . S
C490 C493 1.387 . S
H491 C487 0.950 . S
H492 C489 0.950 . S
C493 C484 1.390 1_564 S
C493 H486 0.950 . S
C493 C490 1.387 . S
C494 C495 1.387 . S
C494 H498 0.950 . S
C494 C503 1.390 . S
C495 C494 1.387 . S
C495 C497 1.387 . S
H496 C503 0.950 . S
C497 C495 1.387 . S
C497 C499 1.390 . S
C497 H501 0.950 . S
H498 C494 0.950 . S
C499 C497 1.390 . S
C499 C500 1.387 . S
C499 H502 0.950 . S
C500 C499 1.387 . S
C500 C503 1.387 . S
H501 C497 0.950 . S
H502 C499 0.950 . S
C503 C494 1.390 . S
C503 H496 0.950 . S
C503 C500 1.387 . S
C504 C505 1.387 . S
C504 H508 0.950 . S
C504 C513 1.390 1_545 S
C505 C504 1.387 . S
C505 C507 1.387 . S
H506 C513 0.950 . S
C507 C505 1.387 . S
C507 C509 1.390 1_545 S
C507 H511 0.950 . S
H508 C504 0.950 . S
C509 C507 1.390 1_565 S
C509 C510 1.387 . S
C509 H512 0.950 . S
C510 C509 1.387 . S
C510 C513 1.387 . S
H511 C507 0.950 . S
H512 C509 0.950 . S
C513 C504 1.390 1_565 S
C513 H506 0.950 . S
C513 C510 1.387 . S
C514 C515 1.387 . S
C514 H518 0.950 . S
C514 C523 1.390 . S
C515 C514 1.387 . S
C515 C517 1.387 . S
H516 C523 0.950 . S
C517 C515 1.387 . S
C517 C519 1.390 . S
C517 H521 0.950 . S
H518 C514 0.950 . S
C519 C517 1.390 . S
C519 C520 1.387 . S
C519 H522 0.950 . S
C520 C519 1.387 . S
C520 C523 1.387 . S
H521 C517 0.950 . S
H522 C519 0.950 . S
C523 C514 1.390 . S
C523 H516 0.950 . S
C523 C520 1.387 . S
C524 C525 1.387 . S
C524 H528 0.950 . S
C524 C533 1.390 1_564 S
C525 C524 1.387 . S
C525 C527 1.387 . S
H526 C533 0.950 . S
C527 C525 1.387 . S
C527 C529 1.390 1_564 S
C527 H531 0.950 . S
H528 C524 0.950 . S
C529 C527 1.390 1_546 S
C529 C530 1.387 . S
C529 H532 0.950 . S
C530 C529 1.387 . S
C530 C533 1.387 . S
H531 C527 0.950 . S
H532 C529 0.950 . S
C533 C524 1.390 1_546 S
C533 H526 0.950 . S
C533 C530 1.387 . S
C534 C535 1.387 . S
C534 H538 0.950 . S
C534 C543 1.390 . S
C535 C534 1.387 . S
C535 C537 1.387 . S
H536 C543 0.950 . S
C537 C535 1.387 . S
C537 C539 1.390 . S
C537 H541 0.950 . S
H538 C534 0.950 . S
C539 C537 1.390 . S
C539 C540 1.387 . S
C539 H542 0.950 . S
C540 C539 1.387 . S
C540 C543 1.387 . S
H541 C537 0.950 . S
H542 C539 0.950 . S
C543 C534 1.390 . S
C543 H536 0.950 . S
C543 C540 1.387 . S
C225 C159 1.398 . S
C230 C5 1.396 . S
C235 C215 1.429 . S
C240 C23 1.418 . S
C245 C33 1.434 . S
C250 C135 1.420 . S
C255 C187 1.398 . S
C260 C51 1.392 . S
C265 C61 1.402 . S
C270 C191 1.389 . S
C275 C79 1.425 . S
C280 C163 1.424 . S
C285 C89 1.434 . S
C290 C219 1.428 . S
C295 C107 1.395 . S
C300 C131 1.404 . S
C305 C47 1.389 . S
C310 C117 1.395 . S
C315 C145 1.357 . S
C320 C19 1.356 . S
C325 C177 1.387 . S
C330 C75 1.392 . S
C335 C201 1.365 . S
C340 C103 1.357 . S
C345 C65 1.455 . S
C350 C121 1.456 . S
C355 C149 1.423 . S
C360 C93 1.431 . S
C365 C205 1.449 . S
C370 C37 1.457 . S
C375 C9 1.424 . S
C380 C173 1.429 . S
C385 C11 1.352 . S
C390 C67 1.352 . S
C395 C14 1.386 . S
C400 C70 1.387 . S
C405 C39 1.423 . S
C410 C95 1.422 . S
C415 C98 1.327 . S
C420 C42 1.327 . S
C425 C123 1.392 . S
C430 C168 1.387 . S
C435 C193 1.312 . S
C440 C137 1.311 . S
C445 C151 1.338 . S
C450 C207 1.338 . S
C455 C221 1.357 . S
C460 C154 1.352 . S
C465 C109 1.275 . S
C470 C25 1.276 . S
C475 C28 1.460 . S
C480 C56 1.460 . S
C485 C53 1.346 . S
C490 C81 1.347 . S
C495 C0 1.398 . S
C500 C84 1.399 . S
C505 C126 1.425 . S
C510 C210 1.425 . S
C515 C179 1.336 . S
C520 C140 1.331 . S
C525 C165 1.374 . S
C530 C182 1.369 . S
C535 C196 1.379 . S
C540 C112 1.378 . S
