# Generated by pormake.
# Topology snz, (6)-cn, num edge types: 1
# Building blocks:
#     Node 0, Type 0, BuildingBlock: PAMTOO_clean_sbu_0, # of connection points: 6
#     Node 1, Type 0, BuildingBlock: PAMTOO_clean_sbu_0, # of connection points: 6
#     Node 2, Type 0, BuildingBlock: PAMTOO_clean_sbu_0, # of connection points: 6
#     Node 3, Type 0, BuildingBlock: PAMTOO_clean_sbu_0, # of connection points: 6
#     Node 4, Type 0, BuildingBlock: PAMTOO_clean_sbu_0, # of connection points: 6
#     Node 5, Type 0, BuildingBlock: PAMTOO_clean_sbu_0, # of connection points: 6
#     Node 6, Type 0, BuildingBlock: PAMTOO_clean_sbu_0, # of connection points: 6
#     Node 7, Type 0, BuildingBlock: PAMTOO_clean_sbu_0, # of connection points: 6
#     Node 8, Type 0, BuildingBlock: PAMTOO_clean_sbu_0, # of connection points: 6
#     Edge 9, Type (0, 0), BuildingBlock: OJICUG_clean_linker_0, # of connection points: 2
#     Edge 10, Type (0, 0), BuildingBlock: OJICUG_clean_linker_0, # of connection points: 2
#     Edge 11, Type (0, 0), BuildingBlock: OJICUG_clean_linker_0, # of connection points: 2
#     Edge 12, Type (0, 0), BuildingBlock: OJICUG_clean_linker_0, # of connection points: 2
#     Edge 13, Type (0, 0), BuildingBlock: OJICUG_clean_linker_0, # of connection points: 2
#     Edge 14, Type (0, 0), BuildingBlock: OJICUG_clean_linker_0, # of connection points: 2
#     Edge 15, Type (0, 0), BuildingBlock: OJICUG_clean_linker_0, # of connection points: 2
#     Edge 16, Type (0, 0), BuildingBlock: OJICUG_clean_linker_0, # of connection points: 2
#     Edge 17, Type (0, 0), BuildingBlock: OJICUG_clean_linker_0, # of connection points: 2
#     Edge 18, Type (0, 0), BuildingBlock: OJICUG_clean_linker_0, # of connection points: 2
#     Edge 19, Type (0, 0), BuildingBlock: OJICUG_clean_linker_0, # of connection points: 2
#     Edge 20, Type (0, 0), BuildingBlock: OJICUG_clean_linker_0, # of connection points: 2
#     Edge 21, Type (0, 0), BuildingBlock: OJICUG_clean_linker_0, # of connection points: 2
#     Edge 22, Type (0, 0), BuildingBlock: OJICUG_clean_linker_0, # of connection points: 2
#     Edge 23, Type (0, 0), BuildingBlock: OJICUG_clean_linker_0, # of connection points: 2
#     Edge 24, Type (0, 0), BuildingBlock: OJICUG_clean_linker_0, # of connection points: 2
#     Edge 25, Type (0, 0), BuildingBlock: OJICUG_clean_linker_0, # of connection points: 2
#     Edge 26, Type (0, 0), BuildingBlock: OJICUG_clean_linker_0, # of connection points: 2
#     Edge 27, Type (0, 0), BuildingBlock: OJICUG_clean_linker_0, # of connection points: 2
#     Edge 28, Type (0, 0), BuildingBlock: OJICUG_clean_linker_0, # of connection points: 2
#     Edge 29, Type (0, 0), BuildingBlock: OJICUG_clean_linker_0, # of connection points: 2
#     Edge 30, Type (0, 0), BuildingBlock: OJICUG_clean_linker_0, # of connection points: 2
#     Edge 31, Type (0, 0), BuildingBlock: OJICUG_clean_linker_0, # of connection points: 2
#     Edge 32, Type (0, 0), BuildingBlock: OJICUG_clean_linker_0, # of connection points: 2
#     Edge 33, Type (0, 0), BuildingBlock: OJICUG_clean_linker_0, # of connection points: 2
#     Edge 34, Type (0, 0), BuildingBlock: OJICUG_clean_linker_0, # of connection points: 2
#     Edge 35, Type (0, 0), BuildingBlock: OJICUG_clean_linker_0, # of connection points: 2
# Relax obj value: 0.129
# Max RMSD: 0.273
# Mean RMSD: 0.175
data_MOF--net-snz--node1-PAMTOO_clean_sbu_0--edge1-OJICUG_clean_linker_0
_symmetry_space_group_name_H-M    P1
_symmetry_Int_Tables_number       1
_symmetry_cell_setting            triclinic
loop_
_symmetry_equiv_pos_as_xyz
'x, y, z'
_cell_length_a     67.045956
_cell_length_b     43.017857
_cell_length_c     10.965477
_cell_angle_alpha  102.03074
_cell_angle_beta   103.64271
_cell_angle_gamma 123.22283
loop_
_atom_site_label
_atom_site_type_symbol
_atom_site_fract_x
_atom_site_fract_y
_atom_site_fract_z
_atom_type_partial_charge
Dy0 Dy 0.07219 0.549 0.95882 0.0
Dy1 Dy 0.11662 0.53328 -0.00313 0.0
C2 C 0.08895 0.53387 0.71957 0.0
O3 O 0.0518 0.48564 0.94638 0.0
O4 O 0.07702 0.47028 0.88555 0.0
O5 O 0.03284 0.52903 0.86185 0.0
O6 O 0.06247 0.58617 0.0448 0.0
O7 O 0.10229 0.5212 0.15554 0.0
O8 O 0.09368 0.56603 0.17868 0.0
O9 O 0.13842 0.60111 0.08777 0.0
O10 O 0.10741 0.60498 0.96667 0.0
O11 O 0.15321 0.54952 0.13054 0.0
O12 O 0.13332 0.5079 0.9142 0.0
C13 C 0.05496 0.45892 0.89561 0.0
O14 O 0.06983 0.52889 0.74912 0.0
O15 O 0.11049 0.54393 0.80924 0.0
C16 C 1.02751 0.57992 0.89391 0.0
C17 C 1.00081 0.60755 0.78763 0.0
C18 C 1.00779 0.58937 0.70396 0.0
C19 C 1.02111 0.57567 0.75682 0.0
C20 C 1.02154 0.59955 -0.02118 0.0
C21 C 1.00835 0.6133 0.92642 0.0
C22 C 0.03835 0.56141 0.94887 0.0
C23 C 0.09717 0.5427 0.223 0.0
C24 C 0.13203 0.62179 0.04127 0.0
C25 C 0.16327 0.50534 0.06844 0.0
C26 C 0.18331 0.46509 0.13488 0.0
C27 C 0.1607 0.45577 0.15169 0.0
C28 C 0.15076 0.47584 0.11889 0.0
C29 C 0.18583 0.51486 0.05253 0.0
C30 C 0.19579 0.495 0.08546 0.0
C31 C 0.15367 0.52715 0.03225 0.0
H32 H 1.0025 0.58508 0.59718 0.0
H33 H 1.02572 0.5608 0.68977 0.0
H34 H 1.02626 0.60296 0.08472 0.0
H35 H 1.003 0.62677 -0.00688 0.0
H36 H 0.15073 0.433 0.1902 0.0
H37 H 0.13336 0.46829 0.13229 0.0
H38 H 0.19569 0.53757 0.01348 0.0
H39 H 0.21288 0.50236 0.06878 0.0
Dy40 Dy 0.57566 0.54768 0.00846 0.0
Dy41 Dy 0.62068 0.53147 0.04944 0.0
C42 C 0.59933 0.53962 0.27074 0.0
O43 O 0.61616 0.60937 0.12195 0.0
O44 O 0.64085 0.59406 0.05412 0.0
O45 O 0.56342 0.57908 0.10526 0.0
O46 O 0.53901 0.53492 0.89162 0.0
O47 O 0.60364 0.51999 0.83178 0.0
O48 O 0.5873 0.55556 0.83867 0.0
O49 O 0.58267 0.47224 0.01 0.0
O50 O 0.55297 0.48026 0.89981 0.0
O51 O 0.63138 0.49378 -0.01438 0.0
O52 O 0.66035 0.55297 0.15806 0.0
C53 C 0.63776 0.62075 0.10599 0.0
O54 O 0.57771 0.5263 0.17186 0.0
O55 O 0.6207 0.55163 0.25322 0.0
C56 C 0.51683 0.53972 0.02716 0.0
C57 C 0.47181 0.50983 0.08312 0.0
C58 C 0.49556 0.52274 0.18194 0.0
C59 C 0.51775 0.53736 0.15426 0.0
C60 C 0.49303 0.52617 0.92746 0.0
C61 C 0.47076 0.51125 0.95475 0.0
C62 C 0.54065 0.55775 -0.00074 0.0
C63 C 0.59551 0.53791 0.77993 0.0
C64 C 0.55838 0.45726 0.93425 0.0
C65 C 0.67532 0.53186 0.0106 0.0
C66 C 0.71132 0.54917 0.8906 0.0
C67 C 0.69076 0.55083 0.83846 0.0
C68 C 0.67301 0.54232 0.89795 0.0
C69 C 0.69591 0.53061 0.06419 0.0
C70 C 0.71374 0.53919 0.00499 0.0
C71 C 0.65623 0.52197 0.0714 0.0
H72 H 0.49702 0.5215 0.28105 0.0
H73 H 0.5357 0.54725 0.23325 0.0
H74 H 0.49176 0.52773 0.82886 0.0
H75 H 0.45293 0.50191 0.87654 0.0
H76 H 0.68845 0.55898 0.75207 0.0
H77 H 0.65734 0.54367 0.85563 0.0
H78 H 0.69807 0.52263 0.15115 0.0
H79 H 0.72909 0.53715 0.04718 0.0
Dy80 Dy 0.65153 0.13508 0.21258 0.0
Dy81 Dy 0.58737 0.051 0.07329 0.0
C82 C 0.61779 0.08772 0.89723 0.0
O83 O 0.62602 0.15282 0.15016 0.0
O84 O 0.59119 0.10508 0.18202 0.0
O85 O 0.68083 0.19049 0.20089 0.0
O86 O 0.69296 0.17079 0.34742 0.0
O87 O 0.60529 0.06544 0.2936 0.0
O88 O 0.64059 0.13456 0.38915 0.0
O89 O 0.6092 0.02741 0.03963 0.0
O90 O 0.65021 0.08231 0.21479 0.0
O91 O 0.55594 0.99153 0.05388 0.0
O92 O 0.54676 1.02097 0.94027 0.0
C93 C 0.60413 0.139 0.16522 0.0
O94 O 0.63904 0.09973 -0.00445 0.0
O95 O 0.5959 0.07299 0.91177 0.0
C96 C 0.71943 0.19813 0.23 0.0
C97 C 0.75435 0.20493 0.11224 0.0
C98 C 0.7285 0.16804 0.05915 0.0
C99 C 0.71131 0.16468 0.11754 0.0
C100 C 0.74525 0.23476 0.2851 0.0
C101 C 0.76256 0.23813 0.22717 0.0
C102 C 0.70058 0.19514 0.28502 0.0
C103 C 0.6229 0.10121 0.39871 0.0
C104 C 0.63337 0.04397 0.12394 0.0
C105 C 0.51546 0.98026 0.01827 0.0
C106 C 0.47236 0.95786 0.08616 0.0
C107 C 0.49591 0.96938 0.18232 0.0
C108 C 0.5172 0.9805 0.14893 0.0
C109 C 0.49215 0.9692 0.92285 0.0
C110 C 0.47094 0.9583 0.9563 0.0
C111 C 0.53736 0.99087 -0.0218 0.0
H112 H 0.72124 0.14195 0.96995 0.0
H113 H 0.69146 0.13608 0.07323 0.0
H114 H 0.75196 0.26092 0.37207 0.0
H115 H 0.78239 0.26681 0.27261 0.0
H116 H 0.49776 0.96906 0.28275 0.0
H117 H 0.53492 0.98896 0.22514 0.0
H118 H 0.4903 0.96893 0.82168 0.0
H119 H 0.45347 0.95047 0.88021 0.0
Dy120 Dy 0.7361 0.88203 0.31061 0.0
Dy121 Dy 0.78253 0.87025 0.36485 0.0
C122 C 0.7572 0.87228 0.08989 0.0
O123 O 0.71659 0.81898 0.30107 0.0
O124 O 0.74363 0.8062 0.25143 0.0
O125 O 0.69752 0.86177 0.1851 0.0
O126 O 0.72168 0.91236 0.38712 0.0
O127 O 0.76773 0.85724 0.52047 0.0
O128 O 0.75425 0.89628 0.53149 0.0
O129 O 0.80216 0.93669 0.47213 0.0
O130 O 0.77262 0.94118 0.33906 0.0
O131 O 0.81971 0.88934 0.50301 0.0
O132 O 0.80086 0.84719 0.28844 0.0
C133 C 0.72101 0.79342 0.25702 0.0
O134 O 0.73608 0.86098 0.10869 0.0
O135 O 0.77918 0.88651 0.18851 0.0
C136 C 0.68891 0.9087 0.22813 0.0
C137 C 0.66937 0.94941 0.15912 0.0
C138 C 0.69321 0.96072 0.15455 0.0
C139 C 0.70293 0.94048 0.18888 0.0
C140 C 0.66489 0.89667 0.22916 0.0
C141 C 0.65518 0.91677 0.19506 0.0
C142 C 0.69938 0.88908 0.27705 0.0
C143 C 0.76071 0.87643 0.58205 0.0
C144 C 0.79678 0.95814 0.42444 0.0
C145 C 0.83128 0.84629 0.45084 0.0
C146 C 0.8566 0.81379 0.52758 0.0
C147 C 0.8586 0.84268 0.6289 0.0
C148 C 0.84603 0.85878 0.59092 0.0
C149 C 0.8294 0.81746 0.34986 0.0
C150 C 0.84181 0.80124 0.38782 0.0
C151 C 0.82081 0.86686 0.40888 0.0
H152 H 0.70449 0.98552 0.12615 0.0
H153 H 0.72155 0.95013 0.18758 0.0
H154 H 0.65392 0.87233 0.26017 0.0
H155 H 0.63706 0.90771 0.2021 0.0
H156 H 0.86976 0.85264 0.73732 0.0
H157 H 0.84831 0.88156 0.67128 0.0
H158 H 0.81881 0.80805 0.24115 0.0
H159 H 0.84025 0.7794 0.30748 0.0
Dy160 Dy 0.23113 0.88164 0.23086 0.0
Dy161 Dy 0.27655 0.86613 0.27312 0.0
C162 C 0.25575 0.87416 0.49683 0.0
O163 O 0.26816 0.93926 0.25457 0.0
O164 O 0.29747 0.93297 0.38012 0.0
O165 O 0.22022 0.91824 0.30495 0.0
O166 O 0.19191 0.86155 0.12184 0.0
O167 O 0.27205 0.88124 0.09482 0.0
O168 O 0.22997 0.86081 0.02487 0.0
O169 O 0.23688 0.80363 0.16573 0.0
O170 O 0.21064 0.81817 0.21784 0.0
O171 O 0.29034 0.83579 0.1881 0.0
O172 O 0.31404 0.88252 0.39781 0.0
C173 C 0.29232 0.95512 0.3359 0.0
O174 O 0.25024 0.89539 0.4498 0.0
O175 O 0.26264 0.85484 0.43383 0.0
C176 C 0.17552 0.87918 0.26805 0.0
C177 C 0.13716 0.85735 0.37391 0.0
C178 C 0.15456 0.84849 0.40879 0.0
C179 C 0.17347 0.8592 0.35616 0.0
C180 C 0.15817 0.88781 0.23192 0.0
C181 C 0.13918 0.87698 0.28395 0.0
C182 C 0.19567 0.89121 0.21387 0.0
C183 C 0.25012 0.86868 0.00051 0.0
C184 C 0.21463 0.79207 0.17322 0.0
C185 C 0.33696 0.87684 0.26936 0.0
C186 C 0.382 0.90641 0.21436 0.0
C187 C 0.35915 0.89723 0.12062 0.0
C188 C 0.33694 0.88278 0.14796 0.0
C189 C 0.35988 0.88669 0.36427 0.0
C190 C 0.38217 0.90143 0.33745 0.0
C191 C 0.31305 0.85887 0.29583 0.0
H192 H 0.15392 0.8339 0.47879 0.0
H193 H 0.18661 0.85208 0.38483 0.0
H194 H 0.1593 0.90296 0.1633 0.0
H195 H 0.12592 0.88371 0.25248 0.0
H196 H 0.35842 0.90127 0.02585 0.0
H197 H 0.31966 0.8758 0.0732 0.0
H198 H 0.36039 0.88232 0.45844 0.0
H199 H 0.39929 0.90785 0.41151 0.0
Dy200 Dy 0.26616 0.36475 0.22514 0.0
Dy201 Dy 0.2017 0.28091 0.08631 0.0
C202 C 0.23034 0.31465 0.89979 0.0
O203 O 0.24466 0.38893 0.25936 0.0
O204 O 0.20344 0.33405 0.0854 0.0
O205 O 0.29781 0.42401 0.2441 0.0
O206 O 0.30675 0.39421 0.35683 0.0
O207 O 0.21444 0.31654 0.30347 0.0
O208 O 0.25753 0.34295 0.38702 0.0
O209 O 0.22701 0.26279 0.14841 0.0
O210 O 0.26184 0.31021 0.11568 0.0
O211 O 0.17209 0.22575 0.09805 0.0
O212 O 0.1603 0.24582 0.9519 0.0
C213 C 0.22042 0.37239 0.17613 0.0
O214 O 0.24811 0.35037 0.00499 0.0
O215 O 0.21254 0.28136 0.90932 0.0
C216 C 0.33817 0.43496 0.27939 0.0
C217 C 0.3813 0.45755 0.21142 0.0
C218 C 0.35695 0.44263 0.11166 0.0
C219 C 0.33565 0.43143 0.14515 0.0
C220 C 0.36226 0.44931 0.37841 0.0
C221 C 0.3835 0.46036 0.34501 0.0
C222 C 0.31628 0.42442 0.31949 0.0
C223 C 0.23565 0.32837 0.40163 0.0
C224 C 0.2489 0.27645 0.13341 0.0
C225 C 0.13369 0.21886 0.06926 0.0
C226 C 0.09885 0.21252 0.18692 0.0
C227 C 0.12513 0.24861 0.24419 0.0
C228 C 0.14228 0.25179 0.18566 0.0
C229 C 0.10738 0.18308 0.00983 0.0
C230 C 0.09008 0.17999 0.06759 0.0
C231 C 0.15248 0.22147 0.01418 0.0
H232 H 0.35446 0.44035 0.00814 0.0
H233 H 0.31731 0.42038 0.06627 0.0
H234 H 0.36471 0.45212 0.48239 0.0
H235 H 0.40163 0.47086 0.42418 0.0
H236 H 0.13249 0.2745 0.33454 0.0
H237 H 0.1624 0.27988 0.23252 0.0
H238 H 0.10031 0.15729 0.92001 0.0
H239 H 0.07005 0.15167 0.02114 0.0
Dy240 Dy 0.44579 0.19261 0.66215 0.0
Dy241 Dy 0.40622 0.21883 0.6212 0.0
C242 C 0.38208 0.12598 0.52058 0.0
O243 O 0.4289 0.17817 0.44031 0.0
O244 O 0.41767 0.22042 0.44975 0.0
O245 O 0.45195 0.15127 0.70686 0.0
O246 O 0.47964 0.19817 0.65571 0.0
O247 O 0.44744 0.27645 0.76281 0.0
O248 O 0.47204 0.25895 0.7065 0.0
O249 O 0.40883 0.20341 0.80028 0.0
O250 O 0.4496 0.21932 0.8695 0.0
O251 O 0.39982 0.26186 0.60014 0.0
O252 O 0.37018 0.20736 0.61518 0.0
C253 C 0.4229 0.1982 0.38759 0.0
O254 O 0.40471 0.13828 0.60864 0.0
O255 O 0.37979 0.15176 0.48599 0.0
C256 C 0.4958 0.1742 0.7982 0.0
C257 C 0.53646 0.17687 0.96562 0.0
C258 C 0.50977 0.14394 0.92295 0.0
C259 C 0.48976 0.14262 0.84033 0.0
C260 C 0.52244 0.20785 0.84391 0.0
C261 C 0.54258 0.2092 0.92702 0.0
C262 C 0.47412 0.16889 0.69516 0.0
C263 C 0.46966 0.28654 0.75876 0.0
C264 C 0.42946 0.21183 0.89274 0.0
C265 C 0.35533 0.23634 0.49345 0.0
C266 C 0.31568 0.23658 0.33111 0.0
C267 C 0.34258 0.26889 0.37485 0.0
C268 C 0.36211 0.26879 0.45504 0.0
C269 C 0.32846 0.20339 0.44657 0.0
C270 C 0.30885 0.20346 0.36601 0.0
C271 C 0.37624 0.23975 0.59543 0.0
H272 H 0.50419 0.11803 0.94773 0.0
H273 H 0.46944 0.11597 0.80498 0.0
H274 H 0.52778 0.23259 0.81249 0.0
H275 H 0.56291 0.23517 0.95883 0.0
H276 H 0.34871 0.29535 0.35277 0.0
H277 H 0.38259 0.29501 0.49142 0.0
H278 H 0.32252 0.17808 0.47549 0.0
H279 H 0.28836 0.17793 0.33328 0.0
Dy280 Dy 0.94633 0.19568 0.65621 0.0
Dy281 Dy 0.90542 0.21964 0.63791 0.0
C282 C 0.96773 0.28749 0.72894 0.0
O283 O 0.94948 0.21609 0.86908 0.0
O284 O 0.90983 0.20435 0.81539 0.0
O285 O 0.98487 0.21145 0.74474 0.0
O286 O 0.95278 0.15364 0.57085 0.0
O287 O 0.88006 0.15116 0.53618 0.0
O288 O 0.90893 0.14144 0.64324 0.0
O289 O 0.91706 0.22702 0.46682 0.0
O290 O 0.92407 0.18003 0.43951 0.0
O291 O 0.86821 0.20761 0.54105 0.0
O292 O 0.89891 0.26041 0.73335 0.0
C293 C 0.93094 0.21264 0.90195 0.0
O294 O 0.96864 0.25904 0.66609 0.0
O295 O 0.94717 0.27822 0.75265 0.0
C296 C 0.99578 0.18507 0.5834 0.0
C297 C 0.02946 0.19514 0.45248 0.0
C298 C 1.01144 0.20245 0.40993 0.0
C299 C 0.99491 0.19773 0.47535 0.0
C300 C 1.01371 0.17785 0.62629 0.0
C301 C 0.0304 0.18292 0.56199 0.0
C302 C 0.978 0.17883 0.65121 0.0
C303 C 0.88474 0.12766 0.57294 0.0
C304 C 0.92116 0.20409 0.39682 0.0
C305 C 0.85519 0.22916 0.70258 0.0
C306 C 0.82182 0.21953 0.83527 0.0
C307 C 0.83463 0.20236 0.85045 0.0
C308 C 0.85119 0.20722 0.78509 0.0
C309 C 0.8421 0.2456 0.6849 0.0
C310 C 0.82559 0.24082 0.75018 0.0
C311 C 0.87445 0.2379 0.64357 0.0
H312 H 1.01038 0.21239 0.32732 0.0
H313 H 0.98146 0.20398 0.44178 0.0
H314 H 1.01473 0.16807 0.70939 0.0
H315 H 0.04379 0.17661 0.59673 0.0
H316 H 0.83247 0.18613 0.91599 0.0
H317 H 0.86131 0.1946 0.80132 0.0
H318 H 0.84498 0.26278 0.62222 0.0
H319 H 0.81577 0.25388 0.73387 0.0
Dy320 Dy 0.88695 0.64516 0.5422 0.0
Dy321 Dy 0.95514 0.74184 0.7111 0.0
C322 C 0.90612 0.74124 0.64063 0.0
O323 O 0.90079 0.6571 0.37978 0.0
O324 O 0.93959 0.72547 0.49006 0.0
O325 O 0.84653 0.6161 0.40894 0.0
O326 O 0.85484 0.58807 0.53278 0.0
O327 O 0.93977 0.67919 0.63849 0.0
O328 O 0.90522 0.61456 0.53235 0.0
O329 O 0.94439 0.73419 0.88249 0.0
O330 O 0.90325 0.66854 0.76921 0.0
O331 O 0.99312 0.75589 0.79935 0.0
O332 O 0.99089 0.8017 0.76211 0.0
C333 C 0.92034 0.6912 0.38113 0.0
O334 O 0.88962 0.70082 0.58482 0.0
O335 O 0.93209 0.76414 0.70122 0.0
C336 C 0.81788 0.58457 0.51222 0.0
C337 C 0.78284 0.57552 0.63171 0.0
C338 C 0.8089 0.61225 0.68976 0.0
C339 C 0.82621 0.61671 0.63067 0.0
C340 C 0.79185 0.54817 0.45252 0.0
C341 C 0.77449 0.54369 0.51135 0.0
C342 C 0.83675 0.58816 0.45643 0.0
C343 C 0.93068 0.64177 0.5953 0.0
C344 C 0.92344 0.70182 0.87966 0.0
C345 C 1.02434 0.79984 0.72679 0.0
C346 C 0.06045 0.81697 0.60645 0.0
C347 C 0.06035 0.80118 0.70684 0.0
C348 C 0.0426 0.79288 0.76653 0.0
C349 C 1.02421 0.81512 0.62521 0.0
C350 C 0.04207 0.82368 0.56624 0.0
C351 C 1.00584 0.79128 0.79262 0.0
H352 H 0.81598 0.63764 0.78108 0.0
H353 H 0.84627 0.64508 0.67868 0.0
H354 H 0.78508 0.52288 0.36181 0.0
H355 H 0.75472 0.51481 0.46457 0.0
H356 H 0.07435 0.79599 0.74142 0.0
H357 H 0.04324 0.78118 0.84459 0.0
H358 H 1.01033 0.82056 0.59105 0.0
H359 H 0.04131 0.83526 0.48797 0.0
C360 C 0.10003 0.51807 0.53059 0.0
C361 C 0.08785 0.53167 0.5843 0.0
H362 H 0.1127 0.51122 0.37343 0.0
C363 C 0.07767 0.54737 0.51613 0.0
H364 H 0.10788 0.50567 0.58221 0.0
C365 C 0.08083 0.55123 0.39792 0.0
C366 C 0.09383 0.53885 0.34675 0.0
H367 H 0.0684 0.55827 0.55739 0.0
H368 H 0.07325 0.56409 0.34738 0.0
C369 C 0.10288 0.52142 0.41198 0.0
C370 C 0.57419 0.52495 0.54097 0.0
C371 C 0.59669 0.53934 0.65193 0.0
H372 H 0.55726 0.51295 0.33075 0.0
C373 C 0.62031 0.55424 0.63969 0.0
H374 H 0.55584 0.51313 0.5501 0.0
C375 C 0.6214 0.55457 0.51516 0.0
C376 C 0.59874 0.53962 0.40248 0.0
H377 H 0.63791 0.56604 0.72676 0.0
H378 H 0.63984 0.56647 0.50734 0.0
C379 C 0.57512 0.5248 0.41619 0.0
C380 C 0.59599 0.07185 0.65212 0.0
C381 C 0.61919 0.09321 0.77183 0.0
H382 H 0.57924 0.05843 0.43913 0.0
C383 C 0.64382 0.12059 0.77191 0.0
H384 H 0.57681 0.05098 0.65012 0.0
C385 C 0.64521 0.12538 0.65171 0.0
C386 C 0.62201 0.10234 0.53063 0.0
H387 H 0.66201 0.13806 0.86431 0.0
H388 H 0.66433 0.14551 0.65186 0.0
C389 C 0.59741 0.07622 0.53203 0.0
C390 C 0.77666 0.87195 0.79836 0.0
C391 C 0.75957 0.87506 0.71089 0.0
H392 H 0.78919 0.86861 -0.01094 0.0
C393 C 0.741 0.8759 0.74562 0.0
H394 H 0.7911 0.87127 0.77254 0.0
C395 C 0.7396 0.87376 0.86812 0.0
C396 C 0.75711 0.87154 0.95711 0.0
H397 H 0.72745 0.87779 0.67764 0.0
H398 H 0.72532 0.87477 0.89449 0.0
C399 C 0.77557 0.8705 0.92161 0.0
C400 C 0.23753 0.87824 0.66551 0.0
C401 C 0.25336 0.87112 0.62272 0.0
H402 H 0.22357 0.88207 0.81995 0.0
C403 C 0.26647 0.86035 0.69958 0.0
H404 H 0.22694 0.88604 0.60623 0.0
C405 C 0.2646 0.85828 0.82109 0.0
C406 C 0.24935 0.86645 0.86574 0.0
H407 H 0.27862 0.85446 0.66772 0.0
H408 H 0.27537 0.85084 0.88113 0.0
C409 C 0.23534 0.87555 0.78629 0.0
C410 C 0.25733 0.34364 0.64626 0.0
C411 C 0.23417 0.32282 0.52692 0.0
H412 H 0.27399 0.35653 0.85874 0.0
C413 C 0.20949 0.29585 0.52706 0.0
H414 H 0.27656 0.36417 0.64815 0.0
C415 C 0.20802 0.29099 0.64708 0.0
C416 C 0.2312 0.31349 0.7678 0.0
H417 H 0.19132 0.27875 0.43497 0.0
H418 H 0.18888 0.27122 0.6471 0.0
C419 C 0.25584 0.33917 0.76615 0.0
C420 C 0.44213 0.19792 0.22122 0.0
C421 C 0.42343 0.19818 0.25649 0.0
H422 H 0.45926 0.20328 0.07755 0.0
C423 C 0.40695 0.20295 0.17273 0.0
H424 H 0.45523 0.19481 0.28648 0.0
C425 C 0.40935 0.2081 0.05545 0.0
C426 C 0.42835 0.20869 0.02073 0.0
H427 H 0.3924 0.20319 0.19883 0.0
H428 H 0.39638 0.21184 -0.00741 0.0
C429 C 0.44471 0.20345 0.10375 0.0
C430 C 0.91893 0.22937 0.21474 0.0
C431 C 0.92463 0.2075 0.27243 0.0
H432 H 0.91706 0.2486 0.05108 0.0
C433 C 0.93485 0.19041 0.21396 0.0
H434 H 0.91128 0.24313 0.25843 0.0
C435 C 0.93881 0.19451 0.09754 0.0
C436 C 0.93208 0.21496 0.03745 0.0
H437 H 0.93952 0.17352 0.25698 0.0
H438 H 0.94583 0.18001 0.05082 0.0
C439 C 0.92246 0.23281 0.09731 0.0
C440 C 0.89744 0.66922 0.13245 0.0
C441 C 0.92095 0.69254 0.2516 0.0
H442 H 0.87983 0.65518 0.92009 0.0
C443 C 0.94529 0.71997 0.24963 0.0
H444 H 0.87851 0.64854 0.13333 0.0
C445 C 0.94612 0.72411 0.12895 0.0
C446 C 0.92263 0.70069 0.0094 0.0
H447 H 0.96371 0.73817 0.34129 0.0
H448 H 0.9651 0.7448 0.12863 0.0
C449 C 0.89826 0.6734 0.01165 0.0
C450 C 0.1842 0.37729 0.12205 0.0
C451 C 0.2114 0.39708 0.18014 0.0
H452 H 0.15409 0.38315 0.06263 0.0
C453 C 0.22938 0.43987 0.23375 0.0
H454 H 0.16978 0.34434 0.08107 0.0
C455 C 0.22029 0.46221 0.22326 0.0
C456 C 0.19306 0.44219 0.16029 0.0
H457 H 0.25043 0.45596 0.2793 0.0
H458 H 0.23458 0.49512 0.26245 0.0
C459 C 0.17515 0.39956 0.1126 0.0
C460 C 0.68278 0.67811 0.13267 0.0
C461 C 0.65921 0.66493 0.14531 0.0
H462 H 0.72066 0.72851 0.15754 0.0
C463 C 0.65633 0.69444 0.1948 0.0
H464 H 0.6858 0.65636 0.09491 0.0
C465 C 0.67631 0.7358 0.2303 0.0
C466 C 0.69989 0.74908 0.21782 0.0
H467 H 0.63855 0.68565 0.20591 0.0
H468 H 0.67318 0.75741 0.26787 0.0
C469 C 0.70285 0.7196 0.16859 0.0
C470 C 0.42325 0.91359 0.01778 0.0
C471 C 0.44927 0.94494 0.1198 0.0
H472 H 0.38195 0.87682 0.96736 0.0
C473 C 0.4529 0.9636 0.25373 0.0
H474 H 0.41952 0.89778 0.91422 0.0
C475 C 0.4312 0.95123 0.28449 0.0
C476 C 0.40524 0.92003 0.18208 0.0
H477 H 0.47252 0.98824 0.33478 0.0
H478 H 0.43477 0.96657 0.38826 0.0
C479 C 0.4016 0.90144 0.04832 0.0
C480 C 0.57123 0.14843 0.18378 0.0
C481 C 0.59105 0.15722 0.13958 0.0
H482 H 0.5391 0.14915 0.1679 0.0
C483 C 0.5953 0.17813 0.05378 0.0
H484 H 0.56767 0.13274 0.25122 0.0
C485 C 0.57854 0.18688 0.00367 0.0
C486 C 0.55738 0.17521 0.0395 0.0
H487 H 0.61033 0.18512 0.01734 0.0
H488 H 0.58114 0.2003 0.92974 0.0
C489 C 0.55472 0.15758 0.13514 0.0
C490 C 1.01306 0.34271 0.75285 0.0
C491 C 0.99031 0.33127 0.77238 0.0
H492 H 0.05127 0.39167 0.77624 0.0
C493 C 0.98926 0.36219 0.83324 0.0
H494 H 1.01461 0.31978 0.70631 0.0
C495 C 1.01022 0.40329 0.8729 0.0
C496 C 0.03297 0.41487 0.85338 0.0
H497 H 0.97216 0.35474 0.85001 0.0
H498 H 1.00847 0.42601 0.91907 0.0
C499 C 0.03414 0.38401 0.79305 0.0
C500 C 0.7377 0.54868 0.61785 0.0
C501 C 0.76467 0.57 0.6982 0.0
H502 H 0.69986 0.52518 0.61445 0.0
C503 C 0.77403 0.58522 0.8428 0.0
H504 H 0.72978 0.5369 0.50642 0.0
C505 C 0.75687 0.5788 0.90502 0.0
C506 C 0.72983 0.55707 0.82457 0.0
H507 H 0.79459 0.60145 0.90829 0.0
H508 H 0.76484 0.59105 0.01652 0.0
C509 C 0.72055 0.54236 0.68008 0.0
C510 C 0.94389 0.5976 0.55696 0.0
C511 C 0.94883 0.63305 0.63673 0.0
H512 H 0.957 0.56198 0.54177 0.0
C513 C 0.97182 0.6614 0.76086 0.0
H514 H 0.92638 0.57564 0.46043 0.0
C515 C 0.98932 0.654 0.80676 0.0
C516 C 0.98414 0.61795 0.72954 0.0
H517 H 0.97584 0.6887 0.82564 0.0
H518 H 1.00659 0.67606 0.90432 0.0
C519 C 0.96156 0.5902 0.60276 0.0
C520 C 0.53993 0.38477 0.89343 0.0
C521 C 0.53592 0.41356 0.89196 0.0
H522 H 0.52219 0.32207 0.85173 0.0
C523 C 0.51001 0.40032 0.85098 0.0
H524 H 0.55959 0.39387 0.92484 0.0
C525 C 0.48869 0.35944 0.81189 0.0
C526 C 0.4926 0.33046 0.81025 0.0
H527 H 0.50613 0.42164 0.84966 0.0
H528 H 0.46903 0.35035 0.77969 0.0
C529 C 0.51849 0.34361 0.85157 0.0
C530 C 0.80534 0.24889 0.96597 0.0
C531 C 0.80497 0.21593 0.9092 0.0
H532 H 0.7898 0.27131 0.07243 0.0
C533 C 0.78828 0.17963 0.92329 0.0
H534 H 0.81819 0.27758 0.95936 0.0
C535 C 0.77218 0.1762 -0.00975 0.0
C536 C 0.7723 0.20901 0.04542 0.0
H537 H 0.78728 0.15348 0.8804 0.0
H538 H 0.75967 0.14777 -0.0009 0.0
C539 C 0.78927 0.24548 0.0329 0.0
C540 C 0.62433 0.97635 0.0572 0.0
C541 C 0.64236 1.01922 0.12071 0.0
H542 H 0.61874 0.92054 0.01796 0.0
C543 C 0.66943 0.03876 0.18771 0.0
H544 H 0.60338 0.96039 0.00456 0.0
C545 C 0.6782 1.01605 0.19539 0.0
C546 C 0.66015 0.97319 0.1367 0.0
H547 H 0.68393 0.07178 0.23677 0.0
H548 H 0.69909 0.0322 0.25217 0.0
C549 C 0.63313 0.95356 0.06558 0.0
C550 C 0.16724 0.73282 0.09992 0.0
C551 C 0.19349 0.74819 0.1359 0.0
H552 H 0.1273 0.68099 0.04042 0.0
C553 C 0.19934 0.72152 0.13973 0.0
H554 H 0.16202 0.75249 0.09563 0.0
C555 C 0.17947 0.68063 0.11058 0.0
C556 C 0.1532 0.66527 0.07418 0.0
H557 H 0.21937 0.7324 0.16775 0.0
H558 H 0.18466 0.66094 0.11532 0.0
C559 C 0.1473 0.69179 0.06803 0.0
C560 C 0.42271 0.46241 0.01641 0.0
C561 C 0.44853 0.49603 0.11538 0.0
H562 H 0.3815 0.42338 0.96907 0.0
C563 C 0.45197 0.51684 0.24563 0.0
H564 H 0.41929 0.44534 0.91552 0.0
C565 C 0.43028 0.50447 0.27611 0.0
C566 C 0.40442 0.4707 0.17764 0.0
H567 H 0.47147 0.54332 0.32369 0.0
H568 H 0.43384 0.52196 0.37666 0.0
C569 C 0.40098 0.44985 0.04717 0.0
C570 C 0.90815 0.80317 0.68851 0.0
C571 C 0.89373 0.76074 0.62238 0.0
H572 H 0.90754 0.85345 0.71118 0.0
C573 C 0.86691 0.73624 0.53062 0.0
H574 H 0.9288 0.82284 0.75971 0.0
C575 C 0.85498 0.75362 0.50251 0.0
C576 C 0.8694 0.79594 0.56593 0.0
H577 H 0.85503 0.70343 0.47702 0.0
H578 H 0.83439 0.73383 0.43003 0.0
C579 C 0.89599 0.82063 0.66117 0.0
C580 C 0.33291 0.06699 0.38791 0.0
C581 C 0.35868 0.08214 0.46692 0.0
H582 H 0.29159 1.01502 0.28454 0.0
C583 C 0.36214 0.055 0.49966 0.0
H584 H 0.32949 0.08701 0.36096 0.0
C585 C 0.34063 1.0142 0.45686 0.0
C586 C 0.31481 0.99892 0.37949 0.0
H587 H 0.3816 0.06523 0.55957 0.0
H588 H 0.3444 0.99463 0.48507 0.0
C589 C 0.31118 0.02575 0.34451 0.0
C590 C 0.0738 0.21877 0.46233 0.0
C591 C 0.04726 0.20025 0.38375 0.0
H592 H 0.11066 0.23702 0.46268 0.0
C593 C 0.03787 0.18621 0.23928 0.0
H594 H 0.08184 0.23032 0.57375 0.0
C595 C 0.05448 0.19008 0.17527 0.0
C596 C 0.08102 0.20855 0.25411 0.0
H597 H 1.01752 0.17154 0.17529 0.0
H598 H 0.04658 0.17889 0.06395 0.0
C599 C 0.09044 0.22298 0.39857 0.0
C600 C 0.29835 0.25779 0.16558 0.0
C601 C 0.29526 0.23947 0.25928 0.0
H602 H 0.28585 0.2833 0.05076 0.0
C603 C 0.27396 0.22777 0.29401 0.0
H604 H 0.31407 0.26629 0.13367 0.0
C605 C 0.25741 0.23689 0.24418 0.0
C606 C 0.26196 0.25821 0.15967 0.0
H607 H 0.27103 0.21386 0.36651 0.0
H608 H 0.24222 0.22973 0.27952 0.0
C609 C 0.28201 0.26726 0.11709 0.0
C610 C 0.81465 0.02697 0.41997 0.0
C611 C 0.81893 1.002 0.46548 0.0
H612 H 0.83186 0.08598 0.41786 0.0
C613 C 0.84501 1.01898 0.54758 0.0
H614 H 0.79489 1.01501 0.35652 0.0
C615 C 0.8662 0.05952 0.58202 0.0
C616 C 0.86202 0.08447 0.53588 0.0
H617 H 0.84921 1.00082 0.58454 0.0
H618 H 0.88593 0.07123 0.64491 0.0
C619 C 0.83591 0.06772 0.45503 0.0
C620 C 0.09266 0.86297 0.52408 0.0
C621 C 0.07986 0.82694 0.54536 0.0
H622 H 0.12094 0.90122 0.45712 0.0
C623 C 0.08593 0.8008 0.50876 0.0
H624 H 0.08882 0.88416 0.55288 0.0
C625 C 0.10428 0.81044 0.45258 0.0
C626 C 0.11724 0.84664 0.43207 0.0
H627 H 0.07621 0.77252 0.52176 0.0
H628 H 0.10805 0.78916 0.42361 0.0
C629 C 0.11111 0.87272 0.4687 0.0
loop_
_geom_bond_atom_site_label_1
_geom_bond_atom_site_label_2
_geom_bond_distance
_geom_bond_site_symmetry_2
_ccdc_geom_bond_type
Dy0 O3 2.307 . S
Dy0 O5 2.395 . S
Dy0 O6 2.379 1_556 S
Dy0 O8 2.339 1_556 S
Dy0 O10 2.298 1_556 S
Dy0 O14 2.275 . S
Dy0 C22 2.738 . S
Dy1 O4 2.298 1_554 S
Dy1 O7 2.275 . S
Dy1 O9 2.307 . S
Dy1 O11 2.395 . S
Dy1 O12 2.379 1_554 S
Dy1 O15 2.339 1_554 S
Dy1 C31 2.738 . S
C2 O14 1.254 . S
C2 O15 1.257 . S
O3 Dy0 2.307 . S
O3 C13 1.266 . S
O4 Dy1 2.298 1_556 S
O4 C13 1.236 . S
O5 Dy0 2.395 . S
O5 C22 1.255 . S
O6 Dy0 2.379 1_554 S
O6 C22 1.249 1_554 S
O7 Dy1 2.275 . S
O7 C23 1.254 . S
O8 Dy0 2.339 1_554 S
O8 C23 1.257 . S
O9 Dy1 2.307 . S
O9 C24 1.266 . S
O10 Dy0 2.298 1_554 S
O10 C24 1.236 . S
O11 Dy1 2.395 . S
O11 C31 1.255 . S
O12 Dy1 2.379 1_556 S
O12 C31 1.249 1_556 S
C13 O3 1.266 . S
C13 O4 1.236 . S
O14 Dy0 2.275 . S
O14 C2 1.254 . S
O15 Dy1 2.339 1_556 S
O15 C2 1.257 . S
C16 C19 1.344 . S
C16 C20 1.328 1_456 S
C16 C22 1.516 . S
C17 C18 1.275 1_655 S
C17 C21 1.323 . S
C18 C17 1.275 1_455 S
C18 C19 1.396 . S
C18 H32 0.936 . S
C19 C16 1.344 . S
C19 C18 1.396 . S
C19 H33 0.931 . S
C20 C16 1.328 1_654 S
C20 C21 1.433 1_554 S
C20 H34 0.931 . S
C21 C17 1.323 . S
C21 C20 1.433 1_556 S
C21 H35 0.933 1_556 S
C22 Dy0 2.738 . S
C22 O5 1.255 . S
C22 O6 1.249 1_556 S
C22 C16 1.516 . S
C23 O7 1.254 . S
C23 O8 1.257 . S
C24 O9 1.266 . S
C24 O10 1.236 . S
C25 C28 1.344 . S
C25 C29 1.328 1_554 S
C25 C31 1.516 . S
C26 C27 1.304 . S
C26 C30 1.323 . S
C27 C26 1.304 . S
C27 C28 1.371 . S
C27 H36 0.930 . S
C28 C25 1.344 . S
C28 C27 1.371 . S
C28 H37 0.931 . S
C29 C25 1.328 1_556 S
C29 C30 1.433 1_556 S
C29 H38 0.931 . S
C30 C26 1.323 . S
C30 C29 1.433 1_554 S
C30 H39 0.933 1_554 S
C31 Dy1 2.738 . S
C31 O11 1.255 . S
C31 O12 1.249 1_554 S
C31 C25 1.516 . S
H32 C18 0.936 . S
H33 C19 0.931 . S
H34 C20 0.931 . S
H35 C21 0.933 1_554 S
H36 C27 0.930 . S
H37 C28 0.931 . S
H38 C29 0.931 . S
H39 C30 0.933 1_556 S
Dy40 O43 2.307 . S
Dy40 O45 2.395 . S
Dy40 O46 2.379 1_554 S
Dy40 O48 2.339 1_554 S
Dy40 O50 2.298 1_554 S
Dy40 O54 2.275 . S
Dy40 C62 2.738 . S
Dy41 O44 2.298 . S
Dy41 O47 2.275 1_554 S
Dy41 O49 2.307 . S
Dy41 O51 2.395 . S
Dy41 O52 2.379 . S
Dy41 O55 2.339 . S
Dy41 C71 2.738 . S
C42 O54 1.254 . S
C42 O55 1.257 . S
O43 Dy40 2.307 . S
O43 C53 1.266 . S
O44 Dy41 2.298 . S
O44 C53 1.236 . S
O45 Dy40 2.395 . S
O45 C62 1.255 . S
O46 Dy40 2.379 1_556 S
O46 C62 1.249 1_556 S
O47 Dy41 2.275 1_556 S
O47 C63 1.254 . S
O48 Dy40 2.339 1_556 S
O48 C63 1.257 . S
O49 Dy41 2.307 . S
O49 C64 1.266 . S
O50 Dy40 2.298 1_556 S
O50 C64 1.236 1_556 S
O51 Dy41 2.395 . S
O51 C71 1.255 . S
O52 Dy41 2.379 . S
O52 C71 1.249 . S
C53 O43 1.266 . S
C53 O44 1.236 . S
O54 Dy40 2.275 . S
O54 C42 1.254 . S
O55 Dy41 2.339 . S
O55 C42 1.257 . S
C56 C59 1.344 . S
C56 C60 1.328 1_554 S
C56 C62 1.516 . S
C57 C58 1.304 . S
C57 C61 1.323 1_554 S
C58 C57 1.304 . S
C58 C59 1.371 . S
C58 H72 0.930 . S
C59 C56 1.344 . S
C59 C58 1.371 . S
C59 H73 0.931 . S
C60 C56 1.328 1_556 S
C60 C61 1.433 . S
C60 H74 0.931 . S
C61 C57 1.323 1_556 S
C61 C60 1.433 . S
C61 H75 0.933 . S
C62 Dy40 2.738 . S
C62 O45 1.255 . S
C62 O46 1.249 1_554 S
C62 C56 1.516 . S
C63 O47 1.254 . S
C63 O48 1.257 . S
C64 O49 1.266 . S
C64 O50 1.236 1_554 S
C65 C68 1.344 . S
C65 C69 1.328 . S
C65 C71 1.516 . S
C66 C67 1.304 . S
C66 C70 1.323 . S
C67 C66 1.304 . S
C67 C68 1.371 . S
C67 H76 0.930 1_554 S
C68 C65 1.344 . S
C68 C67 1.371 . S
C68 H77 0.931 1_554 S
C69 C65 1.328 . S
C69 C70 1.433 . S
C69 H78 0.931 . S
C70 C66 1.323 . S
C70 C69 1.433 . S
C70 H79 0.933 . S
C71 Dy41 2.738 . S
C71 O51 1.255 . S
C71 O52 1.249 . S
C71 C65 1.516 . S
H72 C58 0.930 . S
H73 C59 0.931 . S
H74 C60 0.931 . S
H75 C61 0.933 . S
H76 C67 0.930 1_556 S
H77 C68 0.931 1_556 S
H78 C69 0.931 . S
H79 C70 0.933 . S
Dy80 O83 2.307 . S
Dy80 O85 2.395 . S
Dy80 O86 2.379 . S
Dy80 O88 2.339 . S
Dy80 O90 2.298 . S
Dy80 O94 2.275 . S
Dy80 C102 2.738 . S
Dy81 O84 2.298 . S
Dy81 O87 2.275 . S
Dy81 O89 2.307 . S
Dy81 O91 2.395 . S
Dy81 O92 2.379 1_545 S
Dy81 O95 2.339 1_554 S
Dy81 C111 2.738 . S
C82 O94 1.252 1_556 S
C82 O95 1.256 . S
O83 Dy80 2.307 . S
O83 C93 1.266 . S
O84 Dy81 2.298 . S
O84 C93 1.236 . S
O85 Dy80 2.395 . S
O85 C102 1.255 . S
O86 Dy80 2.379 . S
O86 C102 1.249 . S
O87 Dy81 2.275 . S
O87 C103 1.254 . S
O88 Dy80 2.339 . S
O88 C103 1.257 . S
O89 Dy81 2.307 . S
O89 C104 1.266 . S
O90 Dy80 2.298 . S
O90 C104 1.236 . S
O91 Dy81 2.395 . S
O91 C111 1.255 . S
O92 Dy81 2.379 1_565 S
O92 C111 1.249 1_565 S
C93 O83 1.266 . S
C93 O84 1.236 . S
O94 Dy80 2.275 . S
O94 C82 1.252 1_554 S
O95 Dy81 2.339 1_556 S
O95 C82 1.256 . S
C96 C99 1.344 . S
C96 C100 1.328 . S
C96 C102 1.516 . S
C97 C98 1.304 . S
C97 C101 1.323 . S
C98 C97 1.304 . S
C98 C99 1.371 . S
C98 H112 0.930 . S
C99 C96 1.344 . S
C99 C98 1.371 . S
C99 H113 0.931 . S
C100 C96 1.328 . S
C100 C101 1.433 . S
C100 H114 0.931 . S
C101 C97 1.323 . S
C101 C100 1.433 . S
C101 H115 0.933 . S
C102 Dy80 2.738 . S
C102 O85 1.255 . S
C102 O86 1.249 . S
C102 C96 1.516 . S
C103 O87 1.254 . S
C103 O88 1.257 . S
C104 O89 1.266 . S
C104 O90 1.236 . S
C105 C108 1.341 1_565 S
C105 C109 1.328 . S
C105 C111 1.516 1_565 S
C106 C107 1.304 . S
C106 C110 1.323 . S
C107 C106 1.304 . S
C107 C108 1.372 1_565 S
C107 H116 0.930 . S
C108 C105 1.341 1_545 S
C108 C107 1.372 1_545 S
C108 H117 0.933 . S
C109 C105 1.328 . S
C109 C110 1.433 . S
C109 H118 0.931 1_554 S
C110 C106 1.323 . S
C110 C109 1.433 . S
C110 H119 0.933 1_554 S
C111 Dy81 2.738 . S
C111 O91 1.255 . S
C111 O92 1.249 1_545 S
C111 C105 1.516 1_545 S
H112 C98 0.930 . S
H113 C99 0.931 . S
H114 C100 0.931 . S
H115 C101 0.933 . S
H116 C107 0.930 . S
H117 C108 0.933 . S
H118 C109 0.931 1_556 S
H119 C110 0.933 1_556 S
Dy120 O123 2.307 . S
Dy120 O125 2.395 . S
Dy120 O126 2.379 . S
Dy120 O128 2.339 . S
Dy120 O130 2.298 . S
Dy120 O134 2.275 . S
Dy120 C142 2.738 . S
Dy121 O124 2.298 . S
Dy121 O127 2.275 . S
Dy121 O129 2.307 . S
Dy121 O131 2.395 . S
Dy121 O132 2.379 . S
Dy121 O135 2.339 . S
Dy121 C151 2.738 . S
C122 O134 1.254 . S
C122 O135 1.257 . S
O123 Dy120 2.307 . S
O123 C133 1.266 . S
O124 Dy121 2.298 . S
O124 C133 1.236 . S
O125 Dy120 2.395 . S
O125 C142 1.255 . S
O126 Dy120 2.379 . S
O126 C142 1.249 . S
O127 Dy121 2.275 . S
O127 C143 1.254 . S
O128 Dy120 2.339 . S
O128 C143 1.257 . S
O129 Dy121 2.307 . S
O129 C144 1.266 . S
O130 Dy120 2.298 . S
O130 C144 1.236 . S
O131 Dy121 2.395 . S
O131 C151 1.255 . S
O132 Dy121 2.379 . S
O132 C151 1.249 . S
C133 O123 1.266 . S
C133 O124 1.236 . S
O134 Dy120 2.275 . S
O134 C122 1.254 . S
O135 Dy121 2.339 . S
O135 C122 1.257 . S
C136 C139 1.344 . S
C136 C140 1.328 . S
C136 C142 1.516 . S
C137 C138 1.304 . S
C137 C141 1.323 . S
C138 C137 1.304 . S
C138 C139 1.371 . S
C138 H152 0.930 . S
C139 C136 1.344 . S
C139 C138 1.371 . S
C139 H153 0.931 . S
C140 C136 1.328 . S
C140 C141 1.433 . S
C140 H154 0.931 . S
C141 C137 1.323 . S
C141 C140 1.433 . S
C141 H155 0.933 . S
C142 Dy120 2.738 . S
C142 O125 1.255 . S
C142 O126 1.249 . S
C142 C136 1.516 . S
C143 O127 1.254 . S
C143 O128 1.257 . S
C144 O129 1.266 . S
C144 O130 1.236 . S
C145 C148 1.344 . S
C145 C149 1.328 . S
C145 C151 1.516 . S
C146 C147 1.304 . S
C146 C150 1.323 . S
C147 C146 1.304 . S
C147 C148 1.371 . S
C147 H156 0.930 . S
C148 C145 1.344 . S
C148 C147 1.371 . S
C148 H157 0.931 . S
C149 C145 1.328 . S
C149 C150 1.433 . S
C149 H158 0.931 . S
C150 C146 1.323 . S
C150 C149 1.433 . S
C150 H159 0.933 . S
C151 Dy121 2.738 . S
C151 O131 1.255 . S
C151 O132 1.249 . S
C151 C145 1.516 . S
H152 C138 0.930 . S
H153 C139 0.931 . S
H154 C140 0.931 . S
H155 C141 0.933 . S
H156 C147 0.930 . S
H157 C148 0.931 . S
H158 C149 0.931 . S
H159 C150 0.933 . S
Dy160 O163 2.307 . S
Dy160 O165 2.395 . S
Dy160 O166 2.379 . S
Dy160 O168 2.339 1_554 S
Dy160 O170 2.298 . S
Dy160 O174 2.275 . S
Dy160 C182 2.738 . S
Dy161 O164 2.298 . S
Dy161 O167 2.275 . S
Dy161 O169 2.307 . S
Dy161 O171 2.395 . S
Dy161 O172 2.379 . S
Dy161 O175 2.339 . S
Dy161 C191 2.738 . S
C162 O174 1.254 . S
C162 O175 1.257 . S
O163 Dy160 2.307 . S
O163 C173 1.266 . S
O164 Dy161 2.298 . S
O164 C173 1.236 . S
O165 Dy160 2.395 . S
O165 C182 1.255 . S
O166 Dy160 2.379 . S
O166 C182 1.249 . S
O167 Dy161 2.275 . S
O167 C183 1.254 1_554 S
O168 Dy160 2.339 1_556 S
O168 C183 1.257 . S
O169 Dy161 2.307 . S
O169 C184 1.266 . S
O170 Dy160 2.298 . S
O170 C184 1.236 . S
O171 Dy161 2.395 . S
O171 C191 1.255 . S
O172 Dy161 2.379 . S
O172 C191 1.249 . S
C173 O163 1.266 . S
C173 O164 1.236 . S
O174 Dy160 2.275 . S
O174 C162 1.254 . S
O175 Dy161 2.339 . S
O175 C162 1.257 . S
C176 C179 1.344 . S
C176 C180 1.328 . S
C176 C182 1.516 . S
C177 C178 1.304 . S
C177 C181 1.323 . S
C178 C177 1.304 . S
C178 C179 1.371 . S
C178 H192 0.930 . S
C179 C176 1.344 . S
C179 C178 1.371 . S
C179 H193 0.931 . S
C180 C176 1.328 . S
C180 C181 1.433 . S
C180 H194 0.931 . S
C181 C177 1.323 . S
C181 C180 1.433 . S
C181 H195 0.933 . S
C182 Dy160 2.738 . S
C182 O165 1.255 . S
C182 O166 1.249 . S
C182 C176 1.516 . S
C183 O167 1.254 1_556 S
C183 O168 1.257 . S
C184 O169 1.266 . S
C184 O170 1.236 . S
C185 C188 1.344 . S
C185 C189 1.328 . S
C185 C191 1.516 . S
C186 C187 1.304 . S
C186 C190 1.323 . S
C187 C186 1.304 . S
C187 C188 1.371 . S
C187 H196 0.930 . S
C188 C185 1.344 . S
C188 C187 1.371 . S
C188 H197 0.931 . S
C189 C185 1.328 . S
C189 C190 1.433 . S
C189 H198 0.931 . S
C190 C186 1.323 . S
C190 C189 1.433 . S
C190 H199 0.933 . S
C191 Dy161 2.738 . S
C191 O171 1.255 . S
C191 O172 1.249 . S
C191 C185 1.516 . S
H192 C178 0.930 . S
H193 C179 0.931 . S
H194 C180 0.931 . S
H195 C181 0.933 . S
H196 C187 0.930 . S
H197 C188 0.931 . S
H198 C189 0.931 . S
H199 C190 0.933 . S
Dy200 O203 2.307 . S
Dy200 O205 2.395 . S
Dy200 O206 2.379 . S
Dy200 O208 2.339 . S
Dy200 O210 2.298 . S
Dy200 O214 2.275 1_554 S
Dy200 C222 2.738 . S
Dy201 O204 2.298 . S
Dy201 O207 2.275 1_556 S
Dy201 O209 2.307 . S
Dy201 O211 2.395 1_556 S
Dy201 O212 2.379 . S
Dy201 O215 2.339 . S
Dy201 C231 2.738 . S
C202 O214 1.254 . S
C202 O215 1.257 . S
O203 Dy200 2.307 . S
O203 C213 1.266 . S
O204 Dy201 2.298 . S
O204 C213 1.236 1_556 S
O205 Dy200 2.395 . S
O205 C222 1.255 . S
O206 Dy200 2.379 . S
O206 C222 1.249 . S
O207 Dy201 2.275 1_554 S
O207 C223 1.254 . S
O208 Dy200 2.339 . S
O208 C223 1.257 . S
O209 Dy201 2.307 . S
O209 C224 1.266 1_556 S
O210 Dy200 2.298 . S
O210 C224 1.236 . S
O211 Dy201 2.395 1_554 S
O211 C231 1.255 1_554 S
O212 Dy201 2.379 . S
O212 C231 1.249 . S
C213 O203 1.266 . S
C213 O204 1.236 1_554 S
O214 Dy200 2.275 1_556 S
O214 C202 1.254 . S
O215 Dy201 2.339 . S
O215 C202 1.257 . S
C216 C219 1.344 . S
C216 C220 1.328 . S
C216 C222 1.516 . S
C217 C218 1.304 . S
C217 C221 1.323 . S
C218 C217 1.304 . S
C218 C219 1.371 . S
C218 H232 0.930 1_554 S
C219 C216 1.344 . S
C219 C218 1.371 . S
C219 H233 0.931 1_554 S
C220 C216 1.328 . S
C220 C221 1.433 . S
C220 H234 0.931 . S
C221 C217 1.323 . S
C221 C220 1.433 . S
C221 H235 0.933 . S
C222 Dy200 2.738 . S
C222 O205 1.255 . S
C222 O206 1.249 . S
C222 C216 1.516 . S
C223 O207 1.254 . S
C223 O208 1.257 . S
C224 O209 1.266 1_554 S
C224 O210 1.236 . S
C225 C228 1.344 1_556 S
C225 C229 1.328 . S
C225 C231 1.516 . S
C226 C227 1.304 1_556 S
C226 C230 1.323 . S
C227 C226 1.304 1_554 S
C227 C228 1.371 . S
C227 H236 0.930 . S
C228 C225 1.344 1_554 S
C228 C227 1.371 . S
C228 H237 0.931 . S
C229 C225 1.328 . S
C229 C230 1.433 . S
C229 H238 0.931 . S
C230 C226 1.323 . S
C230 C229 1.433 . S
C230 H239 0.933 . S
C231 Dy201 2.738 . S
C231 O211 1.255 1_556 S
C231 O212 1.249 . S
C231 C225 1.516 . S
H232 C218 0.930 1_556 S
H233 C219 0.931 1_556 S
H234 C220 0.931 . S
H235 C221 0.933 . S
H236 C227 0.930 . S
H237 C228 0.931 . S
H238 C229 0.931 . S
H239 C230 0.933 . S
Dy240 O243 2.307 . S
Dy240 O245 2.395 . S
Dy240 O246 2.379 . S
Dy240 O248 2.339 . S
Dy240 O250 2.298 . S
Dy240 O254 2.275 . S
Dy240 C262 2.738 . S
Dy241 O244 2.298 . S
Dy241 O247 2.275 . S
Dy241 O249 2.307 . S
Dy241 O251 2.395 . S
Dy241 O252 2.379 . S
Dy241 O255 2.339 . S
Dy241 C271 2.738 . S
C242 O254 1.254 . S
C242 O255 1.257 . S
O243 Dy240 2.307 . S
O243 C253 1.266 . S
O244 Dy241 2.298 . S
O244 C253 1.236 . S
O245 Dy240 2.395 . S
O245 C262 1.255 . S
O246 Dy240 2.379 . S
O246 C262 1.249 . S
O247 Dy241 2.275 . S
O247 C263 1.254 . S
O248 Dy240 2.339 . S
O248 C263 1.257 . S
O249 Dy241 2.307 . S
O249 C264 1.266 . S
O250 Dy240 2.298 . S
O250 C264 1.236 . S
O251 Dy241 2.395 . S
O251 C271 1.255 . S
O252 Dy241 2.379 . S
O252 C271 1.249 . S
C253 O243 1.266 . S
C253 O244 1.236 . S
O254 Dy240 2.275 . S
O254 C242 1.254 . S
O255 Dy241 2.339 . S
O255 C242 1.257 . S
C256 C259 1.344 . S
C256 C260 1.328 . S
C256 C262 1.516 . S
C257 C258 1.304 1_554 S
C257 C261 1.323 . S
C258 C257 1.304 1_556 S
C258 C259 1.371 . S
C258 H272 0.930 1_556 S
C259 C256 1.344 . S
C259 C258 1.371 . S
C259 H273 0.931 . S
C260 C256 1.328 . S
C260 C261 1.433 1_556 S
C260 H274 0.931 . S
C261 C257 1.323 . S
C261 C260 1.433 1_554 S
C261 H275 0.933 . S
C262 Dy240 2.738 . S
C262 O245 1.255 . S
C262 O246 1.249 . S
C262 C256 1.516 . S
C263 O247 1.254 . S
C263 O248 1.257 . S
C264 O249 1.266 . S
C264 O250 1.236 . S
C265 C268 1.344 . S
C265 C269 1.328 . S
C265 C271 1.516 . S
C266 C267 1.304 . S
C266 C270 1.323 . S
C267 C266 1.304 . S
C267 C268 1.371 . S
C267 H276 0.930 . S
C268 C265 1.344 . S
C268 C267 1.371 . S
C268 H277 0.931 . S
C269 C265 1.328 . S
C269 C270 1.433 . S
C269 H278 0.931 . S
C270 C266 1.323 . S
C270 C269 1.433 . S
C270 H279 0.933 . S
C271 Dy241 2.738 . S
C271 O251 1.255 . S
C271 O252 1.249 . S
C271 C265 1.516 . S
H272 C258 0.930 1_554 S
H273 C259 0.931 . S
H274 C260 0.931 . S
H275 C261 0.933 . S
H276 C267 0.930 . S
H277 C268 0.931 . S
H278 C269 0.931 . S
H279 C270 0.933 . S
Dy280 O283 2.307 . S
Dy280 O285 2.395 . S
Dy280 O286 2.379 . S
Dy280 O288 2.339 . S
Dy280 O290 2.298 . S
Dy280 O294 2.275 . S
Dy280 C302 2.738 . S
Dy281 O284 2.298 . S
Dy281 O287 2.275 . S
Dy281 O289 2.307 . S
Dy281 O291 2.395 . S
Dy281 O292 2.379 . S
Dy281 O295 2.339 . S
Dy281 C311 2.738 . S
C282 O294 1.254 . S
C282 O295 1.257 . S
O283 Dy280 2.307 . S
O283 C293 1.266 . S
O284 Dy281 2.298 . S
O284 C293 1.236 . S
O285 Dy280 2.395 . S
O285 C302 1.255 . S
O286 Dy280 2.379 . S
O286 C302 1.249 . S
O287 Dy281 2.275 . S
O287 C303 1.254 . S
O288 Dy280 2.339 . S
O288 C303 1.257 . S
O289 Dy281 2.307 . S
O289 C304 1.266 . S
O290 Dy280 2.298 . S
O290 C304 1.236 . S
O291 Dy281 2.395 . S
O291 C311 1.255 . S
O292 Dy281 2.379 . S
O292 C311 1.249 . S
C293 O283 1.266 . S
C293 O284 1.236 . S
O294 Dy280 2.275 . S
O294 C282 1.254 . S
O295 Dy281 2.339 . S
O295 C282 1.257 . S
C296 C299 1.344 . S
C296 C300 1.328 . S
C296 C302 1.516 . S
C297 C298 1.304 . S
C297 C301 1.323 1_455 S
C298 C297 1.304 . S
C298 C299 1.371 1_455 S
C298 H312 0.930 . S
C299 C296 1.344 . S
C299 C298 1.371 1_655 S
C299 H313 0.931 . S
C300 C296 1.328 . S
C300 C301 1.433 . S
C300 H314 0.931 . S
C301 C297 1.323 1_655 S
C301 C300 1.433 . S
C301 H315 0.933 . S
C302 Dy280 2.738 . S
C302 O285 1.255 . S
C302 O286 1.249 . S
C302 C296 1.516 . S
C303 O287 1.254 . S
C303 O288 1.257 . S
C304 O289 1.266 . S
C304 O290 1.236 . S
C305 C308 1.344 . S
C305 C309 1.328 . S
C305 C311 1.516 . S
C306 C307 1.304 . S
C306 C310 1.323 . S
C307 C306 1.304 . S
C307 C308 1.371 . S
C307 H316 0.930 . S
C308 C305 1.344 . S
C308 C307 1.371 . S
C308 H317 0.931 . S
C309 C305 1.328 . S
C309 C310 1.433 . S
C309 H318 0.931 . S
C310 C306 1.323 . S
C310 C309 1.433 . S
C310 H319 0.933 . S
C311 Dy281 2.738 . S
C311 O291 1.255 . S
C311 O292 1.249 . S
C311 C305 1.516 . S
H312 C298 0.930 . S
H313 C299 0.931 . S
H314 C300 0.931 . S
H315 C301 0.933 . S
H316 C307 0.930 . S
H317 C308 0.931 . S
H318 C309 0.931 . S
H319 C310 0.933 . S
Dy320 O323 2.307 . S
Dy320 O325 2.395 . S
Dy320 O326 2.379 . S
Dy320 O328 2.339 . S
Dy320 O330 2.298 . S
Dy320 O334 2.275 . S
Dy320 C342 2.738 . S
Dy321 O324 2.298 . S
Dy321 O327 2.275 . S
Dy321 O329 2.307 . S
Dy321 O331 2.395 . S
Dy321 O332 2.379 . S
Dy321 O335 2.339 . S
Dy321 C351 2.738 . S
C322 O334 1.254 . S
C322 O335 1.257 . S
O323 Dy320 2.307 . S
O323 C333 1.266 . S
O324 Dy321 2.298 . S
O324 C333 1.236 . S
O325 Dy320 2.395 . S
O325 C342 1.255 . S
O326 Dy320 2.379 . S
O326 C342 1.249 . S
O327 Dy321 2.275 . S
O327 C343 1.254 . S
O328 Dy320 2.339 . S
O328 C343 1.257 . S
O329 Dy321 2.307 . S
O329 C344 1.266 . S
O330 Dy320 2.298 . S
O330 C344 1.236 . S
O331 Dy321 2.395 . S
O331 C351 1.255 . S
O332 Dy321 2.379 . S
O332 C351 1.249 . S
C333 O323 1.266 . S
C333 O324 1.236 . S
O334 Dy320 2.275 . S
O334 C322 1.254 . S
O335 Dy321 2.339 . S
O335 C322 1.257 . S
C336 C339 1.344 . S
C336 C340 1.328 . S
C336 C342 1.516 . S
C337 C338 1.304 . S
C337 C341 1.323 . S
C338 C337 1.304 . S
C338 C339 1.371 . S
C338 H352 0.930 . S
C339 C336 1.344 . S
C339 C338 1.371 . S
C339 H353 0.931 . S
C340 C336 1.328 . S
C340 C341 1.433 . S
C340 H354 0.931 . S
C341 C337 1.323 . S
C341 C340 1.433 . S
C341 H355 0.933 . S
C342 Dy320 2.738 . S
C342 O325 1.255 . S
C342 O326 1.249 . S
C342 C336 1.516 . S
C343 O327 1.254 . S
C343 O328 1.257 . S
C344 O329 1.266 . S
C344 O330 1.236 . S
C345 C348 1.344 . S
C345 C349 1.328 1_655 S
C345 C351 1.516 . S
C346 C347 1.304 . S
C346 C350 1.323 . S
C347 C346 1.304 . S
C347 C348 1.371 1_455 S
C347 H356 0.930 . S
C348 C345 1.344 . S
C348 C347 1.371 1_655 S
C348 H357 0.931 . S
C349 C345 1.328 1_455 S
C349 C350 1.433 . S
C349 H358 0.931 1_455 S
C350 C346 1.323 . S
C350 C349 1.433 . S
C350 H359 0.933 . S
C351 Dy321 2.738 . S
C351 O331 1.255 . S
C351 O332 1.249 . S
C351 C345 1.516 . S
H352 C338 0.930 . S
H353 C339 0.931 . S
H354 C340 0.931 . S
H355 C341 0.933 . S
H356 C347 0.930 . S
H357 C348 0.931 . S
H358 C349 0.931 1_655 S
H359 C350 0.933 . S
C360 C361 1.387 . S
C360 H364 0.950 . S
C360 C369 1.390 . S
C361 C360 1.387 . S
C361 C363 1.387 . S
H362 C369 0.950 . S
C363 C361 1.387 . S
C363 C365 1.390 . S
C363 H367 0.950 . S
H364 C360 0.950 . S
C365 C363 1.390 . S
C365 C366 1.387 . S
C365 H368 0.950 . S
C366 C365 1.387 . S
C366 C369 1.387 . S
H367 C363 0.950 . S
H368 C365 0.950 . S
C369 C360 1.390 . S
C369 H362 0.950 . S
C369 C366 1.387 . S
C370 C371 1.387 . S
C370 H374 0.950 . S
C370 C379 1.390 . S
C371 C370 1.387 . S
C371 C373 1.387 . S
H372 C379 0.950 . S
C373 C371 1.387 . S
C373 C375 1.390 . S
C373 H377 0.950 . S
H374 C370 0.950 . S
C375 C373 1.390 . S
C375 C376 1.387 . S
C375 H378 0.950 . S
C376 C375 1.387 . S
C376 C379 1.387 . S
H377 C373 0.950 . S
H378 C375 0.950 . S
C379 C370 1.390 . S
C379 H372 0.950 . S
C379 C376 1.387 . S
C380 C381 1.387 . S
C380 H384 0.950 . S
C380 C389 1.390 . S
C381 C380 1.387 . S
C381 C383 1.387 . S
H382 C389 0.950 . S
C383 C381 1.387 . S
C383 C385 1.390 . S
C383 H387 0.950 . S
H384 C380 0.950 . S
C385 C383 1.390 . S
C385 C386 1.387 . S
C385 H388 0.950 . S
C386 C385 1.387 . S
C386 C389 1.387 . S
H387 C383 0.950 . S
H388 C385 0.950 . S
C389 C380 1.390 . S
C389 H382 0.950 . S
C389 C386 1.387 . S
C390 C391 1.387 . S
C390 H394 0.950 . S
C390 C399 1.390 . S
C391 C390 1.387 . S
C391 C393 1.387 . S
H392 C399 0.950 1_554 S
C393 C391 1.387 . S
C393 C395 1.390 . S
C393 H397 0.950 . S
H394 C390 0.950 . S
C395 C393 1.390 . S
C395 C396 1.387 . S
C395 H398 0.950 . S
C396 C395 1.387 . S
C396 C399 1.387 . S
H397 C393 0.950 . S
H398 C395 0.950 . S
C399 C390 1.390 . S
C399 H392 0.950 1_556 S
C399 C396 1.387 . S
C400 C401 1.387 . S
C400 H404 0.950 . S
C400 C409 1.390 . S
C401 C400 1.387 . S
C401 C403 1.387 . S
H402 C409 0.950 . S
C403 C401 1.387 . S
C403 C405 1.390 . S
C403 H407 0.950 . S
H404 C400 0.950 . S
C405 C403 1.390 . S
C405 C406 1.387 . S
C405 H408 0.950 . S
C406 C405 1.387 . S
C406 C409 1.387 . S
H407 C403 0.950 . S
H408 C405 0.950 . S
C409 C400 1.390 . S
C409 H402 0.950 . S
C409 C406 1.387 . S
C410 C411 1.387 . S
C410 H414 0.950 . S
C410 C419 1.390 . S
C411 C410 1.387 . S
C411 C413 1.387 . S
H412 C419 0.950 . S
C413 C411 1.387 . S
C413 C415 1.390 . S
C413 H417 0.950 . S
H414 C410 0.950 . S
C415 C413 1.390 . S
C415 C416 1.387 . S
C415 H418 0.950 . S
C416 C415 1.387 . S
C416 C419 1.387 . S
H417 C413 0.950 . S
H418 C415 0.950 . S
C419 C410 1.390 . S
C419 H412 0.950 . S
C419 C416 1.387 . S
C420 C421 1.387 . S
C420 H424 0.950 . S
C420 C429 1.390 . S
C421 C420 1.387 . S
C421 C423 1.387 . S
H422 C429 0.950 . S
C423 C421 1.387 . S
C423 C425 1.390 . S
C423 H427 0.950 . S
H424 C420 0.950 . S
C425 C423 1.390 . S
C425 C426 1.387 . S
C425 H428 0.950 . S
C426 C425 1.387 . S
C426 C429 1.387 . S
H427 C423 0.950 . S
H428 C425 0.950 . S
C429 C420 1.390 . S
C429 H422 0.950 . S
C429 C426 1.387 . S
C430 C431 1.387 . S
C430 H434 0.950 . S
C430 C439 1.390 . S
C431 C430 1.387 . S
C431 C433 1.387 . S
H432 C439 0.950 . S
C433 C431 1.387 . S
C433 C435 1.390 . S
C433 H437 0.950 . S
H434 C430 0.950 . S
C435 C433 1.390 . S
C435 C436 1.387 . S
C435 H438 0.950 1_554 S
C436 C435 1.387 . S
C436 C439 1.387 . S
H437 C433 0.950 . S
H438 C435 0.950 1_556 S
C439 C430 1.390 . S
C439 H432 0.950 . S
C439 C436 1.387 . S
C440 C441 1.387 . S
C440 H444 0.950 . S
C440 C449 1.390 . S
C441 C440 1.387 . S
C441 C443 1.387 . S
H442 C449 0.950 . S
C443 C441 1.387 . S
C443 C445 1.390 . S
C443 H447 0.950 . S
H444 C440 0.950 . S
C445 C443 1.390 . S
C445 C446 1.387 . S
C445 H448 0.950 . S
C446 C445 1.387 . S
C446 C449 1.387 . S
H447 C443 0.950 . S
H448 C445 0.950 . S
C449 C440 1.390 . S
C449 H442 0.950 . S
C449 C446 1.387 . S
C450 C451 1.387 . S
C450 H454 0.950 . S
C450 C459 1.390 . S
C451 C450 1.387 . S
C451 C453 1.387 . S
H452 C459 0.950 . S
C453 C451 1.387 . S
C453 C455 1.390 . S
C453 H457 0.950 1_554 S
H454 C450 0.950 . S
C455 C453 1.390 . S
C455 C456 1.387 . S
C455 H458 0.950 1_554 S
C456 C455 1.387 . S
C456 C459 1.387 . S
H457 C453 0.950 1_556 S
H458 C455 0.950 1_556 S
C459 C450 1.390 . S
C459 H452 0.950 . S
C459 C456 1.387 . S
C460 C461 1.387 . S
C460 H464 0.950 1_554 S
C460 C469 1.390 . S
C461 C460 1.387 . S
C461 C463 1.387 . S
H462 C469 0.950 . S
C463 C461 1.387 . S
C463 C465 1.390 . S
C463 H467 0.950 . S
H464 C460 0.950 1_556 S
C465 C463 1.390 . S
C465 C466 1.387 . S
C465 H468 0.950 . S
C466 C465 1.387 . S
C466 C469 1.387 . S
H467 C463 0.950 . S
H468 C465 0.950 . S
C469 C460 1.390 . S
C469 H462 0.950 . S
C469 C466 1.387 . S
C470 C471 1.387 . S
C470 H474 0.950 1_554 S
C470 C479 1.390 . S
C471 C470 1.387 . S
C471 C473 1.387 . S
H472 C479 0.950 . S
C473 C471 1.387 . S
C473 C475 1.390 . S
C473 H477 0.950 . S
H474 C470 0.950 1_556 S
C475 C473 1.390 . S
C475 C476 1.387 . S
C475 H478 0.950 . S
C476 C475 1.387 . S
C476 C479 1.387 . S
H477 C473 0.950 . S
H478 C475 0.950 . S
C479 C470 1.390 . S
C479 H472 0.950 . S
C479 C476 1.387 . S
C480 C481 1.387 . S
C480 H484 0.950 . S
C480 C489 1.390 . S
C481 C480 1.387 . S
C481 C483 1.387 . S
H482 C489 0.950 . S
C483 C481 1.387 . S
C483 C485 1.390 . S
C483 H487 0.950 . S
H484 C480 0.950 . S
C485 C483 1.390 . S
C485 C486 1.387 . S
C485 H488 0.950 . S
C486 C485 1.387 . S
C486 C489 1.387 . S
H487 C483 0.950 . S
H488 C485 0.950 . S
C489 C480 1.390 . S
C489 H482 0.950 . S
C489 C486 1.387 . S
C490 C491 1.387 . S
C490 H494 0.950 1_556 S
C490 C499 1.390 . S
C491 C490 1.387 . S
C491 C493 1.387 . S
H492 C499 0.950 1_454 S
C493 C491 1.387 . S
C493 C495 1.390 . S
C493 H497 0.950 . S
H494 C490 0.950 1_554 S
C495 C493 1.390 . S
C495 C496 1.387 . S
C495 H498 0.950 . S
C496 C495 1.387 . S
C496 C499 1.387 . S
H497 C493 0.950 . S
H498 C495 0.950 . S
C499 C490 1.390 . S
C499 H492 0.950 1_656 S
C499 C496 1.387 . S
C500 C501 1.387 . S
C500 H504 0.950 . S
C500 C509 1.390 . S
C501 C500 1.387 . S
C501 C503 1.387 . S
H502 C509 0.950 . S
C503 C501 1.387 . S
C503 C505 1.390 1_556 S
C503 H507 0.950 . S
H504 C500 0.950 . S
C505 C503 1.390 1_554 S
C505 C506 1.387 . S
C505 H508 0.950 . S
C506 C505 1.387 . S
C506 C509 1.387 1_554 S
H507 C503 0.950 . S
H508 C505 0.950 . S
C509 C500 1.390 . S
C509 H502 0.950 . S
C509 C506 1.387 1_556 S
C510 C511 1.387 . S
C510 H514 0.950 . S
C510 C519 1.390 . S
C511 C510 1.387 . S
C511 C513 1.387 . S
H512 C519 0.950 . S
C513 C511 1.387 . S
C513 C515 1.390 . S
C513 H517 0.950 . S
H514 C510 0.950 . S
C515 C513 1.390 . S
C515 C516 1.387 . S
C515 H518 0.950 . S
C516 C515 1.387 . S
C516 C519 1.387 . S
H517 C513 0.950 . S
H518 C515 0.950 . S
C519 C510 1.390 . S
C519 H512 0.950 . S
C519 C516 1.387 . S
C520 C521 1.387 1_554 S
C520 H524 0.950 . S
C520 C529 1.390 1_554 S
C521 C520 1.387 1_556 S
C521 C523 1.387 . S
H522 C529 0.950 1_554 S
C523 C521 1.387 . S
C523 C525 1.390 . S
C523 H527 0.950 . S
H524 C520 0.950 . S
C525 C523 1.390 . S
C525 C526 1.387 . S
C525 H528 0.950 . S
C526 C525 1.387 . S
C526 C529 1.387 . S
H527 C523 0.950 . S
H528 C525 0.950 . S
C529 C520 1.390 1_556 S
C529 H522 0.950 1_556 S
C529 C526 1.387 . S
C530 C531 1.387 . S
C530 H534 0.950 . S
C530 C539 1.390 . S
C531 C530 1.387 . S
C531 C533 1.387 . S
H532 C539 0.950 . S
C533 C531 1.387 . S
C533 C535 1.390 . S
C533 H537 0.950 . S
H534 C530 0.950 . S
C535 C533 1.390 . S
C535 C536 1.387 . S
C535 H538 0.950 . S
C536 C535 1.387 . S
C536 C539 1.387 . S
H537 C533 0.950 . S
H538 C535 0.950 . S
C539 C530 1.390 . S
C539 H532 0.950 . S
C539 C536 1.387 . S
C540 C541 1.387 . S
C540 H544 0.950 1_545 S
C540 C549 1.390 1_545 S
C541 C540 1.387 . S
C541 C543 1.387 . S
H542 C549 0.950 . S
C543 C541 1.387 . S
C543 C545 1.390 . S
C543 H547 0.950 . S
H544 C540 0.950 1_565 S
C545 C543 1.390 . S
C545 C546 1.399 . S
C545 H548 0.950 . S
C546 C545 1.399 . S
C546 C549 1.386 1_545 S
H547 C543 0.950 . S
H548 C545 0.950 . S
C549 C540 1.390 1_565 S
C549 H542 0.950 . S
C549 C546 1.386 1_565 S
C550 C551 1.387 1_556 S
C550 H554 0.950 . S
C550 C559 1.390 . S
C551 C550 1.387 1_554 S
C551 C553 1.387 . S
H552 C559 0.950 . S
C553 C551 1.387 . S
C553 C555 1.390 . S
C553 H557 0.950 . S
H554 C550 0.950 . S
C555 C553 1.390 . S
C555 C556 1.387 . S
C555 H558 0.950 . S
C556 C555 1.387 . S
C556 C559 1.387 1_554 S
H557 C553 0.950 . S
H558 C555 0.950 . S
C559 C550 1.390 . S
C559 H552 0.950 . S
C559 C556 1.387 1_556 S
C560 C561 1.387 . S
C560 H564 0.950 1_554 S
C560 C569 1.390 . S
C561 C560 1.387 . S
C561 C563 1.387 . S
H562 C569 0.950 . S
C563 C561 1.387 . S
C563 C565 1.390 . S
C563 H567 0.950 . S
H564 C560 0.950 1_556 S
C565 C563 1.390 . S
C565 C566 1.387 . S
C565 H568 0.950 . S
C566 C565 1.387 . S
C566 C569 1.387 . S
H567 C563 0.950 . S
H568 C565 0.950 . S
C569 C560 1.390 . S
C569 H562 0.950 . S
C569 C566 1.387 . S
C570 C571 1.387 . S
C570 H574 0.950 . S
C570 C579 1.390 . S
C571 C570 1.387 . S
C571 C573 1.387 . S
H572 C579 0.950 . S
C573 C571 1.387 . S
C573 C575 1.390 . S
C573 H577 0.950 . S
H574 C570 0.950 . S
C575 C573 1.390 . S
C575 C576 1.387 . S
C575 H578 0.950 . S
C576 C575 1.387 . S
C576 C579 1.387 . S
H577 C573 0.950 . S
H578 C575 0.950 . S
C579 C570 1.390 . S
C579 H572 0.950 . S
C579 C576 1.387 . S
C580 C581 1.387 . S
C580 H584 0.950 . S
C580 C589 1.390 . S
C581 C580 1.387 . S
C581 C583 1.387 . S
H582 C589 0.950 1_565 S
C583 C581 1.387 . S
C583 C585 1.390 . S
C583 H587 0.950 . S
H584 C580 0.950 . S
C585 C583 1.390 . S
C585 C586 1.387 1_545 S
C585 H588 0.950 1_545 S
C586 C585 1.387 1_565 S
C586 C589 1.387 1_565 S
H587 C583 0.950 . S
H588 C585 0.950 1_565 S
C589 C580 1.390 . S
C589 H582 0.950 1_545 S
C589 C586 1.387 1_545 S
C590 C591 1.387 . S
C590 H594 0.950 . S
C590 C599 1.390 . S
C591 C590 1.387 . S
C591 C593 1.387 . S
H592 C599 0.950 . S
C593 C591 1.387 . S
C593 C595 1.390 . S
C593 H597 0.950 1_455 S
H594 C590 0.950 . S
C595 C593 1.390 . S
C595 C596 1.387 . S
C595 H598 0.950 1_454 S
C596 C595 1.387 . S
C596 C599 1.387 . S
H597 C593 0.950 1_655 S
H598 C595 0.950 1_656 S
C599 C590 1.390 . S
C599 H592 0.950 . S
C599 C596 1.387 . S
C600 C601 1.387 . S
C600 H604 0.950 . S
C600 C609 1.390 . S
C601 C600 1.387 . S
C601 C603 1.387 . S
H602 C609 0.950 . S
C603 C601 1.387 . S
C603 C605 1.390 . S
C603 H607 0.950 . S
H604 C600 0.950 . S
C605 C603 1.390 . S
C605 C606 1.387 . S
C605 H608 0.950 . S
C606 C605 1.387 . S
C606 C609 1.387 . S
H607 C603 0.950 . S
H608 C605 0.950 . S
C609 C600 1.390 . S
C609 H602 0.950 . S
C609 C606 1.387 . S
C610 C611 1.387 1_545 S
C610 H614 0.950 1_545 S
C610 C619 1.390 . S
C611 C610 1.387 1_565 S
C611 C613 1.387 1_565 S
H612 C619 0.950 . S
C613 C611 1.387 1_545 S
C613 C615 1.390 . S
C613 H617 0.950 1_545 S
H614 C610 0.950 1_565 S
C615 C613 1.390 . S
C615 C616 1.387 . S
C615 H618 0.950 . S
C616 C615 1.387 . S
C616 C619 1.387 . S
H617 C613 0.950 1_565 S
H618 C615 0.950 . S
C619 C610 1.390 . S
C619 H612 0.950 . S
C619 C616 1.387 . S
C620 C621 1.387 . S
C620 H624 0.950 . S
C620 C629 1.390 . S
C621 C620 1.387 . S
C621 C623 1.387 . S
H622 C629 0.950 . S
C623 C621 1.387 . S
C623 C625 1.390 . S
C623 H627 0.950 . S
H624 C620 0.950 . S
C625 C623 1.390 . S
C625 C626 1.387 . S
C625 H628 0.950 . S
C626 C625 1.387 . S
C626 C629 1.387 . S
H627 C623 0.950 . S
H628 C625 0.950 . S
C629 C620 1.390 . S
C629 H622 0.950 . S
C629 C626 1.387 . S
C361 C2 1.354 . S
C366 C23 1.354 . S
C371 C63 1.479 . S
C376 C42 1.479 . S
C381 C82 1.548 . S
C386 C103 1.545 . S
C391 C143 1.356 . S
C396 C122 1.356 1_556 S
C401 C162 1.478 . S
C406 C183 1.478 . S
C411 C223 1.545 . S
C416 C202 1.545 . S
C421 C253 1.278 . S
C426 C264 1.278 1_554 S
C431 C304 1.225 . S
C436 C293 1.225 1_554 S
C441 C333 1.372 . S
C446 C344 1.372 1_554 S
C451 C213 1.972 . S
C456 C26 1.961 . S
C461 C53 2.580 . S
C466 C133 2.569 . S
C471 C106 1.322 . S
C476 C186 1.356 . S
C481 C93 1.762 . S
C486 C257 1.847 . S
C491 C282 1.827 . S
C496 C13 1.818 1_655 S
C501 C337 1.581 . S
C506 C66 1.607 . S
C511 C343 1.590 . S
C516 C17 1.555 . S
C521 C64 1.854 1_556 S
C526 C263 1.788 . S
C531 C306 1.977 1_554 S
C536 C97 1.749 . S
C541 C104 1.973 . S
C546 C137 1.951 1_545 S
C551 C184 2.579 . S
C556 C24 2.569 . S
C561 C57 1.357 . S
C566 C217 1.324 . S
C571 C322 1.591 . S
C576 C146 1.554 . S
C581 C242 1.786 . S
C586 C173 1.854 . S
C591 C297 1.978 . S
C596 C226 1.751 1_554 S
C601 C266 1.848 . S
C606 C224 1.765 . S
C611 C144 1.818 . S
C616 C303 1.829 . S
C621 C346 1.577 . S
C626 C177 1.600 . S
