# Generated by pormake.
# Topology sqp, (5)-cn, num edge types: 1
# Building blocks:
#     Node 0, Type 0, BuildingBlock: XOMCOT_clean_sbu_1, # of connection points: 5
#     Node 1, Type 0, BuildingBlock: XOMCOT_clean_sbu_1, # of connection points: 5
#     Node 2, Type 0, BuildingBlock: XOMCOT_clean_sbu_1, # of connection points: 5
#     Node 3, Type 0, BuildingBlock: XOMCOT_clean_sbu_1, # of connection points: 5
#     Edge 4, Type (0, 0), BuildingBlock: UVAHIK_clean_linker_0, # of connection points: 2
#     Edge 5, Type (0, 0), BuildingBlock: UVAHIK_clean_linker_0, # of connection points: 2
#     Edge 6, Type (0, 0), BuildingBlock: UVAHIK_clean_linker_0, # of connection points: 2
#     Edge 7, Type (0, 0), BuildingBlock: UVAHIK_clean_linker_0, # of connection points: 2
#     Edge 8, Type (0, 0), BuildingBlock: UVAHIK_clean_linker_0, # of connection points: 2
#     Edge 9, Type (0, 0), BuildingBlock: UVAHIK_clean_linker_0, # of connection points: 2
#     Edge 10, Type (0, 0), BuildingBlock: UVAHIK_clean_linker_0, # of connection points: 2
#     Edge 11, Type (0, 0), BuildingBlock: UVAHIK_clean_linker_0, # of connection points: 2
#     Edge 12, Type (0, 0), BuildingBlock: UVAHIK_clean_linker_0, # of connection points: 2
#     Edge 13, Type (0, 0), BuildingBlock: UVAHIK_clean_linker_0, # of connection points: 2
# Relax obj value: 0.083
# Max RMSD: 0.168
# Mean RMSD: 0.168
data_MOF--net-sqp--node1-XOMCOT_clean_sbu_1--edge1-UVAHIK_clean_linker_0
_symmetry_space_group_name_H-M    P1
_symmetry_Int_Tables_number       1
_symmetry_cell_setting            triclinic
loop_
_symmetry_equiv_pos_as_xyz
'x, y, z'
_cell_length_a     30.33831
_cell_length_b     24.595267
_cell_length_c     58.834874
_cell_angle_alpha  90.557872
_cell_angle_beta   95.709181
_cell_angle_gamma 90.084154
loop_
_atom_site_label
_atom_site_type_symbol
_atom_site_fract_x
_atom_site_fract_y
_atom_site_fract_z
_atom_type_partial_charge
C0 C 0.03905 0.14519 0.30234 0.0
C1 C 1.00668 0.18387 0.29871 0.0
N2 N 0.96697 0.15872 0.29635 0.0
N3 N 0.02017 0.09558 0.30214 0.0
C4 C 0.97609 0.105 0.29848 0.0
H5 H 0.07427 0.15283 0.30526 0.0
Co6 Co 0.05324 0.03277 0.30815 0.0
C7 C 0.9978 0.93778 0.28922 0.0
O8 O 0.02563 0.90296 0.29945 0.0
N9 N 0.08945 0.97 0.31495 0.0
C10 C 0.12843 0.90475 0.33389 0.0
C11 C 0.09834 0.94585 0.33551 0.0
C12 C 0.11558 0.94271 0.30123 0.0
N13 N 0.13947 0.903 0.31236 0.0
O14 O 0.08039 0.04438 0.28053 0.0
H15 H 0.08516 0.95774 0.35117 0.0
H16 H 0.11729 0.95161 0.28338 0.0
O17 O 1.00509 0.98898 0.2916 0.0
C18 C 0.11921 0.06426 0.28482 0.0
O19 O 0.13618 0.06873 0.30619 0.0
N20 N 0.02923 1.02723 0.33591 0.0
C21 C 0.01332 1.02623 0.38166 0.0
C22 C 0.98919 0.99191 0.3657 0.0
C23 C 0.99734 0.9934 0.34265 0.0
C24 C 0.05143 0.06225 0.35101 0.0
C25 C 0.04403 0.06251 0.3739 0.0
H26 H 0.9793 0.96608 0.33068 0.0
H27 H 0.07669 0.08849 0.34531 0.0
H28 H 0.95123 0.07334 0.29802 0.0
H29 H 0.01212 0.22723 0.29767 0.0
H30 H 0.14262 0.87966 0.34775 0.0
H31 H 0.96497 0.96358 0.37104 0.0
H32 H 0.06397 0.08905 0.3856 0.0
C33 C 0.01575 0.15638 0.70644 0.0
C34 C 0.04663 0.19557 0.7133 0.0
N35 N 0.08712 0.17267 0.71475 0.0
N36 N 0.03646 0.10868 0.70371 0.0
C37 C 0.08004 0.11989 0.70872 0.0
H38 H 0.98041 0.16251 0.70326 0.0
Co39 Co 1.00724 0.04476 0.69395 0.0
C40 C 0.05439 0.97423 0.72965 0.0
O41 O 0.01976 0.96942 0.7412 0.0
N42 N 0.97639 0.98035 0.68371 0.0
C43 C 0.93861 0.92069 0.66062 0.0
C44 C 0.96647 0.96475 0.66171 0.0
C45 C 0.95333 0.94511 0.69562 0.0
N46 N 0.9297 0.90857 0.68196 0.0
O47 O 0.97149 0.05203 0.71892 0.0
H48 H 0.97682 0.98549 0.64704 0.0
H49 H 0.95122 0.94873 0.71377 0.0
O50 O 0.05209 1.00279 0.71162 0.0
C51 C 0.93229 0.0673 0.71213 0.0
O52 O 0.92081 0.07051 0.69005 0.0
N53 N 0.03981 0.04186 0.66874 0.0
C54 C 0.06684 0.03549 0.625 0.0
C55 C 0.08141 0.99695 0.64154 0.0
C56 C 0.06757 1.00092 0.6635 0.0
C57 C 0.02774 0.08143 0.65339 0.0
C58 C 0.04101 0.0792 0.63145 0.0
H59 H 0.07633 0.9689 0.67554 0.0
H60 H 1.00502 0.11286 0.65771 0.0
H61 H 0.10599 0.09001 0.70791 0.0
H62 H 0.03982 0.23806 0.71638 0.0
H63 H 0.92485 0.90057 0.64508 0.0
H64 H 0.10154 0.96273 0.63726 0.0
H65 H 0.02831 0.10935 0.61922 0.0
C66 C 0.53165 0.66839 0.79923 0.0
C67 C 0.50026 0.70822 0.79478 0.0
N68 N 0.46133 0.68401 0.78786 0.0
N69 N 0.51283 0.61922 0.79485 0.0
C70 C 0.46978 0.63008 0.78815 0.0
H71 H 0.56594 0.67499 0.80552 0.0
Co72 Co 0.54225 0.55277 0.79846 0.0
C73 C 0.48886 0.48091 0.76678 0.0
O74 O 0.52483 0.46912 0.75703 0.0
N75 N 0.5717 0.48543 0.80248 0.0
C76 C 0.58385 0.39826 0.81075 0.0
C77 C 0.55389 0.44004 0.81059 0.0
C78 C 0.61279 0.47003 0.79797 0.0
N79 N 0.62095 0.41708 0.80274 0.0
O80 O 0.56662 0.56406 0.77001 0.0
H81 H 0.52061 0.43697 0.81554 0.0
H82 H 0.63636 0.49674 0.79119 0.0
O83 O 0.49097 0.51481 0.78342 0.0
C84 C 0.60342 0.5893 0.77348 0.0
O85 O 0.61967 0.60021 0.79456 0.0
N86 N 0.52204 0.54607 0.82698 0.0
C87 C 0.50532 0.54493 0.87256 0.0
C88 C 0.47185 0.53071 0.85527 0.0
C89 C 0.48078 0.53215 0.83236 0.0
C90 C 0.55471 0.55991 0.84353 0.0
C91 C 0.54714 0.55955 0.86642 0.0
H92 H 0.45469 0.52231 0.81911 0.0
H93 H 0.58698 0.57135 0.83878 0.0
H94 H 0.44501 0.59924 0.78343 0.0
H95 H 0.50548 0.75159 0.79693 0.0
H96 H 0.57798 0.35669 0.81553 0.0
H97 H 0.43906 0.51956 0.8594 0.0
H98 H 0.574 0.57013 0.87923 0.0
C99 C 0.52789 0.64746 0.18442 0.0
C100 C 0.55731 0.69001 0.18849 0.0
N101 N 0.59213 0.67271 0.20259 0.0
N102 N 0.54405 0.60339 0.19584 0.0
C103 C 0.58296 0.62019 0.20692 0.0
H104 H 0.49702 0.64823 0.17352 0.0
Co105 Co 0.51699 0.53472 0.19576 0.0
C106 C 0.60507 0.47431 0.19942 0.0
O107 O 0.60312 0.46496 0.17738 0.0
N108 N 0.48976 0.46511 0.19643 0.0
C109 C 0.47775 0.3761 0.19207 0.0
C110 C 0.50607 0.41798 0.18876 0.0
C111 C 0.45072 0.45044 0.20407 0.0
N112 N 0.44293 0.39638 0.20174 0.0
O113 O 0.50256 0.54967 0.22615 0.0
H114 H 0.53586 0.41387 0.18044 0.0
H115 H 0.42847 0.47852 0.21133 0.0
O116 O 0.57396 0.50052 0.20793 0.0
C117 C 0.46684 0.57724 0.22347 0.0
O118 O 0.44806 0.58475 0.20264 0.0
N119 N 0.52592 0.52524 0.1644 0.0
C120 C 0.52553 0.52277 0.1168 0.0
C121 C 0.56205 0.54374 0.13064 0.0
C122 C 0.56119 0.54567 0.15437 0.0
C123 C 0.48923 0.50781 0.15092 0.0
C124 C 0.48874 0.50499 0.12727 0.0
H125 H 0.58913 0.56342 0.16468 0.0
H126 H 0.45918 0.49767 0.15837 0.0
H127 H 0.60419 0.59443 0.21802 0.0
H128 H 0.55384 0.73008 0.1811 0.0
H129 H 0.4819 0.33403 0.18714 0.0
H130 H 0.59087 0.55895 0.12323 0.0
H131 H 0.45893 0.4911 0.11721 0.0
C132 C 0.01206 0.06924 0.42028 0.0
C133 C 0.01012 1.02198 0.40658 0.0
C134 C 0.01872 0.06568 0.444 0.0
C135 C 0.01292 0.97831 0.4934 0.0
H136 H 0.11046 0.06783 0.52008 0.0
C137 C 0.06601 0.97583 0.59015 0.0
C138 C 0.07322 1.02727 0.6005 0.0
C139 C 0.06332 0.96999 0.56638 0.0
C140 C 0.08293 0.04289 0.51298 0.0
H141 H 0.01038 0.93383 0.40711 0.0
H142 H 0.0209 0.92768 0.44883 0.0
H143 H 0.09045 0.06874 0.47896 0.0
H144 H 0.0866 0.11209 0.59417 0.0
H145 H 0.08078 0.10237 0.55287 0.0
H146 H 1.00424 0.95389 0.52747 0.0
C147 C 0.01774 0.9674 0.44105 0.0
C148 C 0.0715 0.04342 0.48943 0.0
C149 C 0.01144 0.97095 0.41721 0.0
C150 C 0.08048 0.07203 0.58669 0.0
C151 C 0.07753 0.06629 0.56297 0.0
C152 C 0.024 0.97825 0.51706 0.0
C153 C 0.02309 1.01481 0.45457 0.0
C154 C 0.03599 1.0118 0.47945 0.0
C155 C 0.06763 1.01549 0.55247 0.0
C156 C 0.05876 1.01119 0.52718 0.0
H157 H 0.01029 0.10912 0.41259 0.0
H158 H 0.02172 0.10284 0.45408 0.0
H159 H 0.98538 0.95361 0.4861 0.0
H160 H 0.05993 0.94055 0.60027 0.0
H161 H 0.05652 0.9301 0.55889 0.0
C162 C 0.50536 0.47806 0.07869 0.0
C163 C 0.52413 0.52237 0.09151 0.0
C164 C 0.5005 0.47945 0.05485 0.0
C165 C 0.49238 0.57617 0.00722 0.0
H166 H 0.51741 0.45002 0.97063 0.0
C167 C 0.51319 0.58774 0.9114 0.0
C168 C 0.49763 0.54446 0.89702 0.0
C169 C 0.51119 0.58495 0.93492 0.0
C170 C 0.50954 0.4853 0.98061 0.0
H171 H 0.55327 0.60247 0.08933 0.0
H172 H 0.54563 0.60445 0.04768 0.0
H173 H 0.52701 0.44457 0.01221 0.0
H174 H 0.46614 0.46526 0.89581 0.0
H175 H 0.4622 0.46046 0.93715 0.0
H176 H 0.47542 0.6171 0.97564 0.0
C177 C 0.53409 0.56894 0.0561 0.0
C178 C 0.5152 0.48224 0.00443 0.0
C179 C 0.53903 0.5675 0.07996 0.0
C180 C 0.47822 0.49925 0.90652 0.0
C181 C 0.4764 0.49631 0.93016 0.0
C182 C 0.48671 0.57922 0.98343 0.0
C183 C 0.51424 0.52522 0.04329 0.0
C184 C 0.50718 0.52785 0.01799 0.0
C185 C 0.49361 0.53876 0.94464 0.0
C186 C 0.49573 0.53403 0.96985 0.0
H187 H 0.49396 0.44246 0.08711 0.0
H188 H 0.4849 0.44523 0.0455 0.0
H189 H 0.485 0.61166 0.01719 0.0
H190 H 0.52795 0.62332 0.90448 0.0
H191 H 0.52506 0.61814 0.94558 0.0
C192 C 0.1248 0.12869 0.25277 0.0
C193 C 0.14387 0.08782 0.26703 0.0
C194 C 0.15162 0.16136 0.24037 0.0
C195 C 0.26221 0.17249 0.21972 0.0
H196 H 0.25629 0.32559 0.2356 0.0
C197 C 0.41166 0.3115 0.21508 0.0
C198 C 0.40556 0.36538 0.20778 0.0
C199 C 0.37558 0.27917 0.21917 0.0
C200 C 0.25795 0.28323 0.23058 0.0
H201 H 0.2048 0.04663 0.27865 0.0
H202 H 0.2513 0.10185 0.25632 0.0
H203 H 0.19882 0.26335 0.24595 0.0
H204 H 0.35683 0.42815 0.19953 0.0
H205 H 0.29309 0.37125 0.20648 0.0
H206 H 0.32141 0.19173 0.20461 0.0
C207 C 0.21593 0.10918 0.25477 0.0
C208 C 0.22496 0.24759 0.23649 0.0
C209 C 0.18938 0.07752 0.26751 0.0
C210 C 0.36246 0.38684 0.20528 0.0
C211 C 0.32605 0.35417 0.20921 0.0
C212 C 0.29485 0.20808 0.21361 0.0
C213 C 0.19763 0.15268 0.24173 0.0
C214 C 0.22755 0.19162 0.23172 0.0
C215 C 0.33218 0.29959 0.21586 0.0
C216 C 0.29404 0.26359 0.21966 0.0
H217 H 0.08985 0.13797 0.25253 0.0
H218 H 0.13672 0.1946 0.23042 0.0
H219 H 0.26474 0.12964 0.21562 0.0
H220 H 0.44456 0.29423 0.21762 0.0
H221 H 0.38185 0.23803 0.22501 0.0
C222 C 0.88859 0.15797 0.27962 0.0
C223 C 0.92439 0.18484 0.29196 0.0
C224 C 0.84906 0.18579 0.27322 0.0
C225 C 0.78714 0.31442 0.28277 0.0
H226 H 0.74189 0.29272 0.21941 0.0
C227 C 0.63623 0.43265 0.23666 0.0
C228 C 0.64121 0.44786 0.21408 0.0
C229 C 0.66813 0.39961 0.24872 0.0
C230 C 0.75415 0.2994 0.23714 0.0
H231 H 0.94534 0.26082 0.30873 0.0
H232 H 0.87733 0.3094 0.29717 0.0
H233 H 0.80054 0.23438 0.2363 0.0
H234 H 0.68492 0.44385 0.1871 0.0
H235 H 0.74034 0.38773 0.20807 0.0
H236 H 0.74163 0.38115 0.28315 0.0
C237 C 0.87945 0.26689 0.29244 0.0
C238 C 0.78741 0.26534 0.24695 0.0
C239 C 0.91883 0.23917 0.2988 0.0
C240 C 0.67973 0.43216 0.20434 0.0
C241 C 0.71139 0.39957 0.21631 0.0
C242 C 0.75371 0.3486 0.27292 0.0
C243 C 0.8444 0.24103 0.2791 0.0
C244 C 0.80507 0.27305 0.26975 0.0
C245 C 0.70542 0.38141 0.23835 0.0
C246 C 0.73765 0.34231 0.2498 0.0
H247 H 0.89172 0.11617 0.2741 0.0
H248 H 0.82249 0.16432 0.26323 0.0
H249 H 0.79954 0.32106 0.30048 0.0
H250 H 0.60679 0.44399 0.24458 0.0
H251 H 0.66268 0.38647 0.26573 0.0
C252 C 0.67212 0.67602 0.21615 0.0
C253 C 0.63179 0.70301 0.21035 0.0
C254 C 0.71081 0.70532 0.22299 0.0
C255 C 0.75195 0.83842 0.24631 0.0
H256 H 0.86218 0.78998 0.2248 0.0
C257 C 0.91995 0.95069 0.27028 0.0
C258 C 0.95601 0.91654 0.27694 0.0
C259 C 0.87976 0.92873 0.26025 0.0
C260 C 0.83175 0.80393 0.23109 0.0
H261 H 0.60067 0.78232 0.2077 0.0
H262 H 0.6683 0.83349 0.21944 0.0
H263 H 0.79332 0.7435 0.2116 0.0
H264 H 0.97825 0.83264 0.27766 0.0
H265 H 0.90893 0.79487 0.26042 0.0
H266 H 0.79072 0.89843 0.26607 0.0
C267 C 0.66989 0.78953 0.21876 0.0
C268 C 0.79223 0.77716 0.22354 0.0
C269 C 0.63117 0.76017 0.21182 0.0
C270 C 0.95127 0.86031 0.27281 0.0
C271 C 0.91146 0.83855 0.26273 0.0
C272 C 0.79162 0.86524 0.2539 0.0
C273 C 0.71031 0.76248 0.22428 0.0
C274 C 0.75189 0.7934 0.23134 0.0
C275 C 0.87501 0.87227 0.25646 0.0
C276 C 0.83215 0.84768 0.24669 0.0
H277 H 0.67409 0.63217 0.21501 0.0
H278 H 0.74117 0.68305 0.22742 0.0
H279 H 0.72156 0.85184 0.25278 0.0
H280 H 0.92243 0.99416 0.27321 0.0
H281 H 0.85244 0.95593 0.25545 0.0
C282 C 0.17926 0.81566 0.31191 0.0
C283 C 0.17319 0.86911 0.30404 0.0
C284 C 0.21401 0.7838 0.30528 0.0
C285 C 0.29729 0.77661 0.26264 0.0
H286 H 0.35425 0.67311 0.30538 0.0
C287 C 0.45312 0.66456 0.24207 0.0
C288 C 0.44898 0.60776 0.24202 0.0
C289 C 0.42402 0.69707 0.25314 0.0
C290 C 0.3386 0.70186 0.29331 0.0
H291 H 0.19879 0.93132 0.28316 0.0
H292 H 0.26031 0.87669 0.27205 0.0
H293 H 0.29341 0.72906 0.31668 0.0
H294 H 0.41283 0.53999 0.25423 0.0
H295 H 0.36241 0.59696 0.27435 0.0
H296 H 0.34317 0.75006 0.23951 0.0
C297 C 0.23757 0.85843 0.28283 0.0
C298 C 0.30347 0.73371 0.29966 0.0
C299 C 0.20231 0.88994 0.28918 0.0
C300 C 0.41743 0.5837 0.25466 0.0
C301 C 0.38839 0.61631 0.26595 0.0
C302 C 0.33279 0.74548 0.25648 0.0
C303 C 0.24411 0.80491 0.29088 0.0
C304 C 0.2821 0.77139 0.28435 0.0
C305 C 0.39012 0.67333 0.26434 0.0
C306 C 0.35377 0.70768 0.2717 0.0
H307 H 0.15698 0.79848 0.32322 0.0
H308 H 0.21706 0.7425 0.31142 0.0
H309 H 0.28129 0.80404 0.25014 0.0
H310 H 0.47658 0.68393 0.23196 0.0
H311 H 0.42638 0.74086 0.25181 0.0
C312 C 0.4184 0.76143 0.77094 0.0
C313 C 0.41958 0.71057 0.78166 0.0
C314 C 0.3781 0.78781 0.76518 0.0
C315 C 0.26496 0.79957 0.78081 0.0
H316 H 0.23948 0.86018 0.72037 0.0
C317 C 0.09602 0.90034 0.75179 0.0
C318 C 0.09584 0.94434 0.73672 0.0
C319 C 0.13481 0.87047 0.75739 0.0
C320 C 0.24622 0.84438 0.73746 0.0
H321 H 0.37945 0.64769 0.79494 0.0
H322 H 0.30879 0.69431 0.78515 0.0
H323 H 0.30825 0.81078 0.7298 0.0
H324 H 0.13664 0.99247 0.71626 0.0
H325 H 0.20437 0.94221 0.7267 0.0
H326 H 0.20378 0.83452 0.78882 0.0
C327 C 0.33917 0.71349 0.7811 0.0
C328 C 0.2856 0.81572 0.74279 0.0
C329 C 0.3795 0.68664 0.78653 0.0
C330 C 0.13551 0.95853 0.72779 0.0
C331 C 0.17437 0.92926 0.73364 0.0
C332 C 0.22579 0.82896 0.7756 0.0
C333 C 0.33808 0.76431 0.77032 0.0
C334 C 0.29548 0.79317 0.76453 0.0
C335 C 0.17455 0.88433 0.7483 0.0
C336 C 0.21592 0.85205 0.75387 0.0
H337 H 0.44869 0.78061 0.76681 0.0
H338 H 0.37831 0.82708 0.75702 0.0
H339 H 0.27193 0.78306 0.79778 0.0
H340 H 0.06592 0.8881 0.75883 0.0
H341 H 0.1333 0.83577 0.76847 0.0
C342 C 0.16756 0.1834 0.71148 0.0
C343 C 0.12876 0.2002 0.72073 0.0
C344 C 0.20709 0.21282 0.71615 0.0
C345 C 0.24791 0.34966 0.73554 0.0
H346 H 0.36186 0.27813 0.74543 0.0
C347 C 0.40798 0.46395 0.76977 0.0
C348 C 0.44713 0.4508 0.76002 0.0
C349 C 0.3693 0.43353 0.76429 0.0
C350 C 0.33032 0.29875 0.74245 0.0
H351 H 0.10173 0.25932 0.74308 0.0
H352 H 0.17038 0.31 0.75143 0.0
H353 H 0.29466 0.22359 0.73763 0.0
H354 H 0.47603 0.39572 0.73661 0.0
H355 H 0.40852 0.34296 0.727 0.0
H356 H 0.2835 0.42475 0.74056 0.0
C357 C 0.17016 0.27514 0.74003 0.0
C358 C 0.29178 0.26747 0.73797 0.0
C359 C 0.13075 0.24597 0.73528 0.0
C360 C 0.44649 0.407 0.74444 0.0
C361 C 0.40788 0.37644 0.73906 0.0
C362 C 0.28637 0.38087 0.7401 0.0
C363 C 0.20871 0.25952 0.73026 0.0
C364 C 0.25003 0.29252 0.73458 0.0
C365 C 0.36888 0.38911 0.74902 0.0
C366 C 0.32804 0.35582 0.74371 0.0
H367 H 0.16703 0.1486 0.70006 0.0
H368 H 0.23604 0.19982 0.70819 0.0
H369 H 0.21646 0.37046 0.73255 0.0
H370 H 0.40725 0.49742 0.78181 0.0
H371 H 0.33994 0.4441 0.77243 0.0
C372 C 0.91877 0.11936 0.74765 0.0
C373 C 0.90224 0.09045 0.7279 0.0
C374 C 0.89049 0.15249 0.7592 0.0
C375 C 0.78832 0.22998 0.74543 0.0
H376 H 0.78935 0.25313 0.81073 0.0
C377 C 0.68501 0.40034 0.78063 0.0
C378 C 0.65916 0.38542 0.79812 0.0
C379 C 0.71897 0.36649 0.77453 0.0
C380 C 0.78869 0.24702 0.79245 0.0
H381 H 0.84296 0.0692 0.706 0.0
H382 H 0.79367 0.12544 0.72638 0.0
H383 H 0.83838 0.18468 0.79615 0.0
H384 H 0.65088 0.32486 0.82392 0.0
H385 H 0.70945 0.26529 0.81295 0.0
H386 H 0.73835 0.29108 0.74153 0.0
C387 C 0.82847 0.12411 0.73261 0.0
C388 C 0.81692 0.20809 0.78412 0.0
C389 C 0.85662 0.09154 0.72104 0.0
C390 C 0.66959 0.33712 0.8101 0.0
C391 C 0.70356 0.30326 0.804 0.0
C392 C 0.7604 0.26882 0.75369 0.0
C393 C 0.84536 0.15687 0.75117 0.0
C394 C 0.81655 0.19868 0.7605 0.0
C395 C 0.72793 0.31689 0.78576 0.0
C396 C 0.75995 0.27764 0.77729 0.0
H397 H 0.95392 0.11953 0.75317 0.0
H398 H 0.90445 0.17721 0.77348 0.0
H399 H 0.78782 0.22452 0.72711 0.0
H400 H 0.67792 0.43703 0.77097 0.0
H401 H 0.7376 0.37861 0.76063 0.0
C402 C 0.66695 0.58191 0.75036 0.0
C403 C 0.62792 0.60852 0.75487 0.0
C404 C 0.69796 0.6081 0.73817 0.0
C405 C 0.71801 0.73275 0.70462 0.0
H406 H 0.83855 0.71456 0.73219 0.0
C407 C 0.86423 0.84918 0.67199 0.0
C408 C 0.8973 0.86974 0.68836 0.0
C409 C 0.83188 0.8133 0.67821 0.0
C410 C 0.80507 0.72045 0.72438 0.0
H411 H 0.5897 0.68227 0.74996 0.0
H412 H 0.64376 0.72857 0.72884 0.0
H413 H 0.77972 0.65865 0.7448 0.0
H414 H 0.92223 0.86706 0.7242 0.0
H415 H 0.86501 0.80596 0.73515 0.0
H416 H 0.7431 0.79651 0.68503 0.0
C417 C 0.65026 0.68701 0.73404 0.0
C418 C 0.77132 0.68763 0.73133 0.0
C419 C 0.6191 0.66051 0.74605 0.0
C420 C 0.89721 0.85276 0.71112 0.0
C421 C 0.86459 0.81705 0.71737 0.0
C422 C 0.75175 0.7658 0.69776 0.0
C423 C 0.69088 0.66192 0.73071 0.0
C424 C 0.72723 0.69364 0.7217 0.0
C425 C 0.83132 0.7971 0.701 0.0
C426 C 0.79569 0.76045 0.7077 0.0
H427 H 0.67469 0.54215 0.75744 0.0
H428 H 0.7284 0.58709 0.73553 0.0
H429 H 0.68459 0.73828 0.69668 0.0
H430 H 0.86253 0.8614 0.65434 0.0
H431 H 0.80727 0.79823 0.66505 0.0
loop_
_geom_bond_atom_site_label_1
_geom_bond_atom_site_label_2
_geom_bond_distance
_geom_bond_site_symmetry_2
_ccdc_geom_bond_type
C0 C1 1.351 . S
C0 N3 1.368 . S
C0 H5 0.931 1_655 S
C1 C0 1.351 . S
C1 N2 1.373 . S
C1 H29 0.930 . S
N2 C1 1.373 . S
N2 C4 1.340 . S
N3 C0 1.368 . S
N3 C4 1.321 . S
N3 Co6 2.135 1_655 S
C4 N2 1.340 . S
C4 N3 1.321 . S
C4 H28 0.930 . S
H5 C0 0.931 1_455 S
Co6 N3 2.135 1_455 S
Co6 N9 2.121 1_545 S
Co6 O14 2.055 . S
Co6 O17 2.039 1_445 S
Co6 N20 2.140 . S
C7 O8 1.227 . S
C7 O17 1.265 . S
O8 C7 1.227 . S
N9 Co6 2.121 1_565 S
N9 C11 1.375 . S
N9 C12 1.313 . S
C10 C11 1.338 . S
C10 N13 1.377 . S
C10 H30 0.930 . S
C11 N9 1.375 . S
C11 C10 1.338 . S
C11 H15 0.931 . S
C12 N9 1.313 . S
C12 N13 1.344 . S
C12 H16 0.930 . S
N13 C10 1.377 . S
N13 C12 1.344 . S
O14 Co6 2.055 . S
O14 C18 1.253 . S
H15 C11 0.931 . S
H16 C12 0.930 . S
O17 Co6 2.039 1_665 S
O17 C7 1.265 . S
C18 O14 1.253 . S
C18 O19 1.227 . S
O19 C18 1.227 . S
N20 Co6 2.140 . S
N20 C23 1.346 1_455 S
N20 C24 1.345 1_545 S
C21 C22 1.387 1_465 S
C21 C25 1.391 . S
C22 C21 1.387 1_645 S
C22 C23 1.369 . S
C22 H31 0.929 . S
C23 N20 1.346 1_655 S
C23 C22 1.369 . S
C23 H26 0.928 . S
C24 N20 1.345 1_565 S
C24 C25 1.371 . S
C24 H27 0.931 . S
C25 C21 1.391 . S
C25 C24 1.371 . S
C25 H32 0.930 . S
H26 C23 0.928 . S
H27 C24 0.931 . S
H28 C4 0.930 . S
H29 C1 0.930 . S
H30 C10 0.930 . S
H31 C22 0.929 . S
H32 C25 0.930 . S
C33 C34 1.351 . S
C33 N36 1.368 . S
C33 H38 0.931 . S
C34 C33 1.351 . S
C34 N35 1.373 . S
C34 H62 0.930 . S
N35 C34 1.373 . S
N35 C37 1.340 . S
N36 C33 1.368 . S
N36 C37 1.321 . S
N36 Co39 2.135 . S
C37 N35 1.340 . S
C37 N36 1.321 . S
C37 H61 0.930 . S
H38 C33 0.931 . S
Co39 N36 2.135 . S
Co39 N42 2.121 1_445 S
Co39 O47 2.055 1_455 S
Co39 O50 2.039 1_545 S
Co39 N53 2.140 . S
C40 O41 1.227 . S
C40 O50 1.265 . S
O41 C40 1.227 . S
N42 Co39 2.121 1_665 S
N42 C44 1.375 . S
N42 C45 1.313 . S
C43 C44 1.338 . S
C43 N46 1.377 . S
C43 H63 0.930 . S
C44 N42 1.375 . S
C44 C43 1.338 . S
C44 H48 0.931 1_655 S
C45 N42 1.313 . S
C45 N46 1.344 . S
C45 H49 0.930 . S
N46 C43 1.377 . S
N46 C45 1.344 . S
O47 Co39 2.055 1_655 S
O47 C51 1.253 . S
H48 C44 0.931 1_455 S
H49 C45 0.930 . S
O50 Co39 2.039 1_565 S
O50 C40 1.265 . S
C51 O47 1.253 . S
C51 O52 1.227 . S
O52 C51 1.227 . S
N53 Co39 2.140 . S
N53 C56 1.346 . S
N53 C57 1.345 1_445 S
C54 C55 1.387 1_565 S
C54 C58 1.391 1_455 S
C55 C54 1.387 1_545 S
C55 C56 1.369 . S
C55 H64 0.929 . S
C56 N53 1.346 . S
C56 C55 1.369 . S
C56 H59 0.928 . S
C57 N53 1.345 1_665 S
C57 C58 1.371 . S
C57 H60 0.931 . S
C58 C54 1.391 1_655 S
C58 C57 1.371 . S
C58 H65 0.930 . S
H59 C56 0.928 . S
H60 C57 0.931 . S
H61 C37 0.930 . S
H62 C34 0.930 . S
H63 C43 0.930 . S
H64 C55 0.929 . S
H65 C58 0.930 . S
C66 C67 1.351 . S
C66 N69 1.368 . S
C66 H71 0.931 . S
C67 C66 1.351 . S
C67 N68 1.373 . S
C67 H95 0.930 . S
N68 C67 1.373 . S
N68 C70 1.340 . S
N69 C66 1.368 . S
N69 C70 1.321 . S
N69 Co72 2.135 . S
C70 N68 1.340 . S
C70 N69 1.321 . S
C70 H94 0.930 . S
H71 C66 0.931 . S
Co72 N69 2.135 . S
Co72 N75 2.121 . S
Co72 O80 2.055 . S
Co72 O83 2.039 . S
Co72 N86 2.140 . S
C73 O74 1.227 . S
C73 O83 1.265 . S
O74 C73 1.227 . S
N75 Co72 2.121 . S
N75 C77 1.375 . S
N75 C78 1.313 . S
C76 C77 1.338 . S
C76 N79 1.377 . S
C76 H96 0.930 . S
C77 N75 1.375 . S
C77 C76 1.338 . S
C77 H81 0.931 . S
C78 N75 1.313 . S
C78 N79 1.344 . S
C78 H82 0.930 . S
N79 C76 1.377 . S
N79 C78 1.344 . S
O80 Co72 2.055 . S
O80 C84 1.253 . S
H81 C77 0.931 . S
H82 C78 0.930 . S
O83 Co72 2.039 . S
O83 C73 1.265 . S
C84 O80 1.253 . S
C84 O85 1.227 . S
O85 C84 1.227 . S
N86 Co72 2.140 . S
N86 C89 1.346 . S
N86 C90 1.345 . S
C87 C88 1.387 . S
C87 C91 1.391 . S
C88 C87 1.387 . S
C88 C89 1.369 . S
C88 H97 0.929 . S
C89 N86 1.346 . S
C89 C88 1.369 . S
C89 H92 0.928 . S
C90 N86 1.345 . S
C90 C91 1.371 . S
C90 H93 0.931 . S
C91 C87 1.391 . S
C91 C90 1.371 . S
C91 H98 0.930 . S
H92 C89 0.928 . S
H93 C90 0.931 . S
H94 C70 0.930 . S
H95 C67 0.930 . S
H96 C76 0.930 . S
H97 C88 0.929 . S
H98 C91 0.930 . S
C99 C100 1.351 . S
C99 N102 1.368 . S
C99 H104 0.931 . S
C100 C99 1.351 . S
C100 N101 1.373 . S
C100 H128 0.930 . S
N101 C100 1.373 . S
N101 C103 1.340 . S
N102 C99 1.368 . S
N102 C103 1.321 . S
N102 Co105 2.135 . S
C103 N101 1.340 . S
C103 N102 1.321 . S
C103 H127 0.930 . S
H104 C99 0.931 . S
Co105 N102 2.135 . S
Co105 N108 2.121 . S
Co105 O113 2.055 . S
Co105 O116 2.039 . S
Co105 N119 2.140 . S
C106 O107 1.227 . S
C106 O116 1.265 . S
O107 C106 1.227 . S
N108 Co105 2.121 . S
N108 C110 1.375 . S
N108 C111 1.313 . S
C109 C110 1.338 . S
C109 N112 1.377 . S
C109 H129 0.930 . S
C110 N108 1.375 . S
C110 C109 1.338 . S
C110 H114 0.931 . S
C111 N108 1.313 . S
C111 N112 1.344 . S
C111 H115 0.930 . S
N112 C109 1.377 . S
N112 C111 1.344 . S
O113 Co105 2.055 . S
O113 C117 1.253 . S
H114 C110 0.931 . S
H115 C111 0.930 . S
O116 Co105 2.039 . S
O116 C106 1.265 . S
C117 O113 1.253 . S
C117 O118 1.227 . S
O118 C117 1.227 . S
N119 Co105 2.140 . S
N119 C122 1.346 . S
N119 C123 1.345 . S
C120 C121 1.387 . S
C120 C124 1.391 . S
C121 C120 1.387 . S
C121 C122 1.369 . S
C121 H130 0.929 . S
C122 N119 1.346 . S
C122 C121 1.369 . S
C122 H125 0.928 . S
C123 N119 1.345 . S
C123 C124 1.371 . S
C123 H126 0.931 . S
C124 C120 1.391 . S
C124 C123 1.371 . S
C124 H131 0.930 . S
H125 C122 0.928 . S
H126 C123 0.931 . S
H127 C103 0.930 . S
H128 C100 0.930 . S
H129 C109 0.930 . S
H130 C121 0.929 . S
H131 C124 0.930 . S
C132 C133 1.349 1_645 S
C132 C134 1.327 . S
C132 H157 0.950 . S
C133 C132 1.349 1_465 S
C133 C149 1.349 . S
C134 C132 1.327 . S
C134 C153 1.429 1_645 S
C134 H158 0.950 . S
C135 C152 1.574 . S
C135 C154 1.368 . S
C135 H159 0.949 . S
H136 C140 0.949 . S
C137 C138 1.349 . S
C137 C139 1.327 . S
C137 H160 0.950 . S
C138 C137 1.349 . S
C138 C150 1.349 1_465 S
C139 C137 1.327 . S
C139 C155 1.429 . S
C139 H161 0.950 . S
C140 H136 0.949 . S
C140 C148 1.574 . S
C140 C156 1.368 1_645 S
H141 C149 0.950 . S
H142 C147 0.950 . S
H143 C148 0.949 . S
H144 C150 0.950 . S
H145 C151 0.950 . S
H146 C152 0.949 . S
C147 H142 0.950 . S
C147 C149 1.327 . S
C147 C153 1.429 . S
C148 C140 1.574 . S
C148 H143 0.949 . S
C148 C154 1.368 1_645 S
C149 C133 1.349 . S
C149 H141 0.950 . S
C149 C147 1.327 . S
C150 C138 1.349 1_645 S
C150 H144 0.950 . S
C150 C151 1.327 . S
C151 H145 0.950 . S
C151 C150 1.327 . S
C151 C155 1.429 1_645 S
C152 C135 1.574 . S
C152 H146 0.949 . S
C152 C156 1.368 . S
C153 C134 1.429 1_465 S
C153 C147 1.429 . S
C153 C154 1.523 . S
C154 C135 1.368 . S
C154 C148 1.368 1_465 S
C154 C153 1.523 . S
C155 C139 1.429 . S
C155 C151 1.429 1_465 S
C155 C156 1.523 . S
C156 C140 1.368 1_465 S
C156 C152 1.368 . S
C156 C155 1.523 . S
H157 C132 0.950 . S
H158 C134 0.950 . S
H159 C135 0.949 . S
H160 C137 0.950 . S
H161 C139 0.950 . S
C162 C163 1.349 . S
C162 C164 1.327 . S
C162 H187 0.950 . S
C163 C162 1.349 . S
C163 C179 1.349 . S
C164 C162 1.327 . S
C164 C183 1.429 . S
C164 H188 0.950 . S
C165 C182 1.574 1_554 S
C165 C184 1.368 . S
C165 H189 0.949 . S
H166 C170 0.949 . S
C167 C168 1.349 . S
C167 C169 1.327 . S
C167 H190 0.950 . S
C168 C167 1.349 . S
C168 C180 1.349 . S
C169 C167 1.327 . S
C169 C185 1.429 . S
C169 H191 0.950 . S
C170 H166 0.949 . S
C170 C178 1.574 1_556 S
C170 C186 1.368 . S
H171 C179 0.950 . S
H172 C177 0.950 . S
H173 C178 0.949 . S
H174 C180 0.950 . S
H175 C181 0.950 . S
H176 C182 0.949 . S
C177 H172 0.950 . S
C177 C179 1.327 . S
C177 C183 1.429 . S
C178 C170 1.574 1_554 S
C178 H173 0.949 . S
C178 C184 1.368 . S
C179 C163 1.349 . S
C179 H171 0.950 . S
C179 C177 1.327 . S
C180 C168 1.349 . S
C180 H174 0.950 . S
C180 C181 1.327 . S
C181 H175 0.950 . S
C181 C180 1.327 . S
C181 C185 1.429 . S
C182 C165 1.574 1_556 S
C182 H176 0.949 . S
C182 C186 1.368 . S
C183 C164 1.429 . S
C183 C177 1.429 . S
C183 C184 1.523 . S
C184 C165 1.368 . S
C184 C178 1.368 . S
C184 C183 1.523 . S
C185 C169 1.429 . S
C185 C181 1.429 . S
C185 C186 1.523 . S
C186 C170 1.368 . S
C186 C182 1.368 . S
C186 C185 1.523 . S
H187 C162 0.950 . S
H188 C164 0.950 . S
H189 C165 0.949 . S
H190 C167 0.950 . S
H191 C169 0.950 . S
C192 C193 1.349 . S
C192 C194 1.327 . S
C192 H217 0.950 . S
C193 C192 1.349 . S
C193 C209 1.349 . S
C194 C192 1.327 . S
C194 C213 1.429 . S
C194 H218 0.950 . S
C195 C212 1.574 . S
C195 C214 1.368 . S
C195 H219 0.949 . S
H196 C200 0.949 . S
C197 C198 1.349 . S
C197 C199 1.327 . S
C197 H220 0.950 . S
C198 C197 1.349 . S
C198 C210 1.349 . S
C199 C197 1.327 . S
C199 C215 1.429 . S
C199 H221 0.950 . S
C200 H196 0.949 . S
C200 C208 1.574 . S
C200 C216 1.368 . S
H201 C209 0.950 . S
H202 C207 0.950 . S
H203 C208 0.949 . S
H204 C210 0.950 . S
H205 C211 0.950 . S
H206 C212 0.949 . S
C207 H202 0.950 . S
C207 C209 1.327 . S
C207 C213 1.429 . S
C208 C200 1.574 . S
C208 H203 0.949 . S
C208 C214 1.368 . S
C209 C193 1.349 . S
C209 H201 0.950 . S
C209 C207 1.327 . S
C210 C198 1.349 . S
C210 H204 0.950 . S
C210 C211 1.327 . S
C211 H205 0.950 . S
C211 C210 1.327 . S
C211 C215 1.429 . S
C212 C195 1.574 . S
C212 H206 0.949 . S
C212 C216 1.368 . S
C213 C194 1.429 . S
C213 C207 1.429 . S
C213 C214 1.523 . S
C214 C195 1.368 . S
C214 C208 1.368 . S
C214 C213 1.523 . S
C215 C199 1.429 . S
C215 C211 1.429 . S
C215 C216 1.523 . S
C216 C200 1.368 . S
C216 C212 1.368 . S
C216 C215 1.523 . S
H217 C192 0.950 . S
H218 C194 0.950 . S
H219 C195 0.949 . S
H220 C197 0.950 . S
H221 C199 0.950 . S
C222 C223 1.349 . S
C222 C224 1.327 . S
C222 H247 0.950 . S
C223 C222 1.349 . S
C223 C239 1.349 . S
C224 C222 1.327 . S
C224 C243 1.429 . S
C224 H248 0.950 . S
C225 C242 1.574 . S
C225 C244 1.368 . S
C225 H249 0.949 . S
H226 C230 0.949 . S
C227 C228 1.349 . S
C227 C229 1.327 . S
C227 H250 0.950 . S
C228 C227 1.349 . S
C228 C240 1.349 . S
C229 C227 1.327 . S
C229 C245 1.429 . S
C229 H251 0.950 . S
C230 H226 0.949 . S
C230 C238 1.574 . S
C230 C246 1.368 . S
H231 C239 0.950 . S
H232 C237 0.950 . S
H233 C238 0.949 . S
H234 C240 0.950 . S
H235 C241 0.950 . S
H236 C242 0.949 . S
C237 H232 0.950 . S
C237 C239 1.327 . S
C237 C243 1.429 . S
C238 C230 1.574 . S
C238 H233 0.949 . S
C238 C244 1.368 . S
C239 C223 1.349 . S
C239 H231 0.950 . S
C239 C237 1.327 . S
C240 C228 1.349 . S
C240 H234 0.950 . S
C240 C241 1.327 . S
C241 H235 0.950 . S
C241 C240 1.327 . S
C241 C245 1.429 . S
C242 C225 1.574 . S
C242 H236 0.949 . S
C242 C246 1.368 . S
C243 C224 1.429 . S
C243 C237 1.429 . S
C243 C244 1.523 . S
C244 C225 1.368 . S
C244 C238 1.368 . S
C244 C243 1.523 . S
C245 C229 1.429 . S
C245 C241 1.429 . S
C245 C246 1.523 . S
C246 C230 1.368 . S
C246 C242 1.368 . S
C246 C245 1.523 . S
H247 C222 0.950 . S
H248 C224 0.950 . S
H249 C225 0.949 . S
H250 C227 0.950 . S
H251 C229 0.950 . S
C252 C253 1.349 . S
C252 C254 1.327 . S
C252 H277 0.950 . S
C253 C252 1.349 . S
C253 C269 1.349 . S
C254 C252 1.327 . S
C254 C273 1.429 . S
C254 H278 0.950 . S
C255 C272 1.574 . S
C255 C274 1.368 . S
C255 H279 0.949 . S
H256 C260 0.949 . S
C257 C258 1.349 . S
C257 C259 1.327 . S
C257 H280 0.950 . S
C258 C257 1.349 . S
C258 C270 1.349 . S
C259 C257 1.327 . S
C259 C275 1.429 . S
C259 H281 0.950 . S
C260 H256 0.949 . S
C260 C268 1.574 . S
C260 C276 1.368 . S
H261 C269 0.950 . S
H262 C267 0.950 . S
H263 C268 0.949 . S
H264 C270 0.950 . S
H265 C271 0.950 . S
H266 C272 0.949 . S
C267 H262 0.950 . S
C267 C269 1.327 . S
C267 C273 1.429 . S
C268 C260 1.574 . S
C268 H263 0.949 . S
C268 C274 1.368 . S
C269 C253 1.349 . S
C269 H261 0.950 . S
C269 C267 1.327 . S
C270 C258 1.349 . S
C270 H264 0.950 . S
C270 C271 1.327 . S
C271 H265 0.950 . S
C271 C270 1.327 . S
C271 C275 1.429 . S
C272 C255 1.574 . S
C272 H266 0.949 . S
C272 C276 1.368 . S
C273 C254 1.429 . S
C273 C267 1.429 . S
C273 C274 1.523 . S
C274 C255 1.368 . S
C274 C268 1.368 . S
C274 C273 1.523 . S
C275 C259 1.429 . S
C275 C271 1.429 . S
C275 C276 1.523 . S
C276 C260 1.368 . S
C276 C272 1.368 . S
C276 C275 1.523 . S
H277 C252 0.950 . S
H278 C254 0.950 . S
H279 C255 0.949 . S
H280 C257 0.950 . S
H281 C259 0.950 . S
C282 C283 1.349 . S
C282 C284 1.327 . S
C282 H307 0.950 . S
C283 C282 1.349 . S
C283 C299 1.349 . S
C284 C282 1.327 . S
C284 C303 1.429 . S
C284 H308 0.950 . S
C285 C302 1.574 . S
C285 C304 1.368 . S
C285 H309 0.949 . S
H286 C290 0.949 . S
C287 C288 1.349 . S
C287 C289 1.327 . S
C287 H310 0.950 . S
C288 C287 1.349 . S
C288 C300 1.349 . S
C289 C287 1.327 . S
C289 C305 1.429 . S
C289 H311 0.950 . S
C290 H286 0.949 . S
C290 C298 1.574 . S
C290 C306 1.368 . S
H291 C299 0.950 . S
H292 C297 0.950 . S
H293 C298 0.949 . S
H294 C300 0.950 . S
H295 C301 0.950 . S
H296 C302 0.949 . S
C297 H292 0.950 . S
C297 C299 1.327 . S
C297 C303 1.429 . S
C298 C290 1.574 . S
C298 H293 0.949 . S
C298 C304 1.368 . S
C299 C283 1.349 . S
C299 H291 0.950 . S
C299 C297 1.327 . S
C300 C288 1.349 . S
C300 H294 0.950 . S
C300 C301 1.327 . S
C301 H295 0.950 . S
C301 C300 1.327 . S
C301 C305 1.429 . S
C302 C285 1.574 . S
C302 H296 0.949 . S
C302 C306 1.368 . S
C303 C284 1.429 . S
C303 C297 1.429 . S
C303 C304 1.523 . S
C304 C285 1.368 . S
C304 C298 1.368 . S
C304 C303 1.523 . S
C305 C289 1.429 . S
C305 C301 1.429 . S
C305 C306 1.523 . S
C306 C290 1.368 . S
C306 C302 1.368 . S
C306 C305 1.523 . S
H307 C282 0.950 . S
H308 C284 0.950 . S
H309 C285 0.949 . S
H310 C287 0.950 . S
H311 C289 0.950 . S
C312 C313 1.349 . S
C312 C314 1.327 . S
C312 H337 0.950 . S
C313 C312 1.349 . S
C313 C329 1.349 . S
C314 C312 1.327 . S
C314 C333 1.429 . S
C314 H338 0.950 . S
C315 C332 1.574 . S
C315 C334 1.368 . S
C315 H339 0.949 . S
H316 C320 0.949 . S
C317 C318 1.349 . S
C317 C319 1.327 . S
C317 H340 0.950 . S
C318 C317 1.349 . S
C318 C330 1.349 . S
C319 C317 1.327 . S
C319 C335 1.429 . S
C319 H341 0.950 . S
C320 H316 0.949 . S
C320 C328 1.574 . S
C320 C336 1.368 . S
H321 C329 0.950 . S
H322 C327 0.950 . S
H323 C328 0.949 . S
H324 C330 0.950 . S
H325 C331 0.950 . S
H326 C332 0.949 . S
C327 H322 0.950 . S
C327 C329 1.327 . S
C327 C333 1.429 . S
C328 C320 1.574 . S
C328 H323 0.949 . S
C328 C334 1.368 . S
C329 C313 1.349 . S
C329 H321 0.950 . S
C329 C327 1.327 . S
C330 C318 1.349 . S
C330 H324 0.950 . S
C330 C331 1.327 . S
C331 H325 0.950 . S
C331 C330 1.327 . S
C331 C335 1.429 . S
C332 C315 1.574 . S
C332 H326 0.949 . S
C332 C336 1.368 . S
C333 C314 1.429 . S
C333 C327 1.429 . S
C333 C334 1.523 . S
C334 C315 1.368 . S
C334 C328 1.368 . S
C334 C333 1.523 . S
C335 C319 1.429 . S
C335 C331 1.429 . S
C335 C336 1.523 . S
C336 C320 1.368 . S
C336 C332 1.368 . S
C336 C335 1.523 . S
H337 C312 0.950 . S
H338 C314 0.950 . S
H339 C315 0.949 . S
H340 C317 0.950 . S
H341 C319 0.950 . S
C342 C343 1.349 . S
C342 C344 1.327 . S
C342 H367 0.950 . S
C343 C342 1.349 . S
C343 C359 1.349 . S
C344 C342 1.327 . S
C344 C363 1.429 . S
C344 H368 0.950 . S
C345 C362 1.574 . S
C345 C364 1.368 . S
C345 H369 0.949 . S
H346 C350 0.949 . S
C347 C348 1.349 . S
C347 C349 1.327 . S
C347 H370 0.950 . S
C348 C347 1.349 . S
C348 C360 1.349 . S
C349 C347 1.327 . S
C349 C365 1.429 . S
C349 H371 0.950 . S
C350 H346 0.949 . S
C350 C358 1.574 . S
C350 C366 1.368 . S
H351 C359 0.950 . S
H352 C357 0.950 . S
H353 C358 0.949 . S
H354 C360 0.950 . S
H355 C361 0.950 . S
H356 C362 0.949 . S
C357 H352 0.950 . S
C357 C359 1.327 . S
C357 C363 1.429 . S
C358 C350 1.574 . S
C358 H353 0.949 . S
C358 C364 1.368 . S
C359 C343 1.349 . S
C359 H351 0.950 . S
C359 C357 1.327 . S
C360 C348 1.349 . S
C360 H354 0.950 . S
C360 C361 1.327 . S
C361 H355 0.950 . S
C361 C360 1.327 . S
C361 C365 1.429 . S
C362 C345 1.574 . S
C362 H356 0.949 . S
C362 C366 1.368 . S
C363 C344 1.429 . S
C363 C357 1.429 . S
C363 C364 1.523 . S
C364 C345 1.368 . S
C364 C358 1.368 . S
C364 C363 1.523 . S
C365 C349 1.429 . S
C365 C361 1.429 . S
C365 C366 1.523 . S
C366 C350 1.368 . S
C366 C362 1.368 . S
C366 C365 1.523 . S
H367 C342 0.950 . S
H368 C344 0.950 . S
H369 C345 0.949 . S
H370 C347 0.950 . S
H371 C349 0.950 . S
C372 C373 1.349 . S
C372 C374 1.327 . S
C372 H397 0.950 . S
C373 C372 1.349 . S
C373 C389 1.349 . S
C374 C372 1.327 . S
C374 C393 1.429 . S
C374 H398 0.950 . S
C375 C392 1.574 . S
C375 C394 1.368 . S
C375 H399 0.949 . S
H376 C380 0.949 . S
C377 C378 1.349 . S
C377 C379 1.327 . S
C377 H400 0.950 . S
C378 C377 1.349 . S
C378 C390 1.349 . S
C379 C377 1.327 . S
C379 C395 1.429 . S
C379 H401 0.950 . S
C380 H376 0.949 . S
C380 C388 1.574 . S
C380 C396 1.368 . S
H381 C389 0.950 . S
H382 C387 0.950 . S
H383 C388 0.949 . S
H384 C390 0.950 . S
H385 C391 0.950 . S
H386 C392 0.949 . S
C387 H382 0.950 . S
C387 C389 1.327 . S
C387 C393 1.429 . S
C388 C380 1.574 . S
C388 H383 0.949 . S
C388 C394 1.368 . S
C389 C373 1.349 . S
C389 H381 0.950 . S
C389 C387 1.327 . S
C390 C378 1.349 . S
C390 H384 0.950 . S
C390 C391 1.327 . S
C391 H385 0.950 . S
C391 C390 1.327 . S
C391 C395 1.429 . S
C392 C375 1.574 . S
C392 H386 0.949 . S
C392 C396 1.368 . S
C393 C374 1.429 . S
C393 C387 1.429 . S
C393 C394 1.523 . S
C394 C375 1.368 . S
C394 C388 1.368 . S
C394 C393 1.523 . S
C395 C379 1.429 . S
C395 C391 1.429 . S
C395 C396 1.523 . S
C396 C380 1.368 . S
C396 C392 1.368 . S
C396 C395 1.523 . S
H397 C372 0.950 . S
H398 C374 0.950 . S
H399 C375 0.949 . S
H400 C377 0.950 . S
H401 C379 0.950 . S
C402 C403 1.349 . S
C402 C404 1.327 . S
C402 H427 0.950 . S
C403 C402 1.349 . S
C403 C419 1.349 . S
C404 C402 1.327 . S
C404 C423 1.429 . S
C404 H428 0.950 . S
C405 C422 1.574 . S
C405 C424 1.368 . S
C405 H429 0.949 . S
H406 C410 0.949 . S
C407 C408 1.349 . S
C407 C409 1.327 . S
C407 H430 0.950 . S
C408 C407 1.349 . S
C408 C420 1.349 . S
C409 C407 1.327 . S
C409 C425 1.429 . S
C409 H431 0.950 . S
C410 H406 0.949 . S
C410 C418 1.574 . S
C410 C426 1.368 . S
H411 C419 0.950 . S
H412 C417 0.950 . S
H413 C418 0.949 . S
H414 C420 0.950 . S
H415 C421 0.950 . S
H416 C422 0.949 . S
C417 H412 0.950 . S
C417 C419 1.327 . S
C417 C423 1.429 . S
C418 C410 1.574 . S
C418 H413 0.949 . S
C418 C424 1.368 . S
C419 C403 1.349 . S
C419 H411 0.950 . S
C419 C417 1.327 . S
C420 C408 1.349 . S
C420 H414 0.950 . S
C420 C421 1.327 . S
C421 H415 0.950 . S
C421 C420 1.327 . S
C421 C425 1.429 . S
C422 C405 1.574 . S
C422 H416 0.949 . S
C422 C426 1.368 . S
C423 C404 1.429 . S
C423 C417 1.429 . S
C423 C424 1.523 . S
C424 C405 1.368 . S
C424 C418 1.368 . S
C424 C423 1.523 . S
C425 C409 1.429 . S
C425 C421 1.429 . S
C425 C426 1.523 . S
C426 C410 1.368 . S
C426 C422 1.368 . S
C426 C425 1.523 . S
H427 C402 0.950 . S
H428 C404 0.950 . S
H429 C405 0.949 . S
H430 C407 0.950 . S
H431 C409 0.950 . S
C133 C21 1.490 . S
C138 C54 1.490 . S
C163 C120 1.490 . S
C168 C87 1.490 . S
C193 C18 1.524 . S
C198 N112 1.482 . S
C223 N2 1.357 . S
C228 C106 1.400 . S
C253 N101 1.357 . S
C258 C7 1.403 . S
C283 N13 1.483 . S
C288 C117 1.525 . S
C313 N68 1.358 . S
C318 C40 1.403 . S
C343 N35 1.358 . S
C348 C73 1.400 . S
C373 C51 1.524 . S
C378 N79 1.482 . S
C403 C84 1.524 . S
C408 N46 1.484 . S
