# Generated by pormake.
# Topology umq, (4)-cn, num edge types: 1
# Building blocks:
#     Node 0, Type 0, BuildingBlock: UXUYUI_clean_sbu_0, # of connection points: 4
#     Node 1, Type 0, BuildingBlock: UXUYUI_clean_sbu_0, # of connection points: 4
#     Node 2, Type 0, BuildingBlock: UXUYUI_clean_sbu_0, # of connection points: 4
#     Node 3, Type 0, BuildingBlock: UXUYUI_clean_sbu_0, # of connection points: 4
#     Node 4, Type 0, BuildingBlock: UXUYUI_clean_sbu_0, # of connection points: 4
#     Node 5, Type 0, BuildingBlock: UXUYUI_clean_sbu_0, # of connection points: 4
#     Node 6, Type 0, BuildingBlock: UXUYUI_clean_sbu_0, # of connection points: 4
#     Node 7, Type 0, BuildingBlock: UXUYUI_clean_sbu_0, # of connection points: 4
#     Node 8, Type 0, BuildingBlock: UXUYUI_clean_sbu_0, # of connection points: 4
#     Node 9, Type 0, BuildingBlock: UXUYUI_clean_sbu_0, # of connection points: 4
#     Node 10, Type 0, BuildingBlock: UXUYUI_clean_sbu_0, # of connection points: 4
#     Node 11, Type 0, BuildingBlock: UXUYUI_clean_sbu_0, # of connection points: 4
#     Node 12, Type 0, BuildingBlock: UXUYUI_clean_sbu_0, # of connection points: 4
#     Node 13, Type 0, BuildingBlock: UXUYUI_clean_sbu_0, # of connection points: 4
#     Node 14, Type 0, BuildingBlock: UXUYUI_clean_sbu_0, # of connection points: 4
#     Node 15, Type 0, BuildingBlock: UXUYUI_clean_sbu_0, # of connection points: 4
#     Node 16, Type 0, BuildingBlock: UXUYUI_clean_sbu_0, # of connection points: 4
#     Node 17, Type 0, BuildingBlock: UXUYUI_clean_sbu_0, # of connection points: 4
#     Node 18, Type 0, BuildingBlock: UXUYUI_clean_sbu_0, # of connection points: 4
#     Node 19, Type 0, BuildingBlock: UXUYUI_clean_sbu_0, # of connection points: 4
#     Node 20, Type 0, BuildingBlock: UXUYUI_clean_sbu_0, # of connection points: 4
#     Node 21, Type 0, BuildingBlock: UXUYUI_clean_sbu_0, # of connection points: 4
#     Node 22, Type 0, BuildingBlock: UXUYUI_clean_sbu_0, # of connection points: 4
#     Node 23, Type 0, BuildingBlock: UXUYUI_clean_sbu_0, # of connection points: 4
#     Node 24, Type 0, BuildingBlock: UXUYUI_clean_sbu_0, # of connection points: 4
#     Node 25, Type 0, BuildingBlock: UXUYUI_clean_sbu_0, # of connection points: 4
#     Node 26, Type 0, BuildingBlock: UXUYUI_clean_sbu_0, # of connection points: 4
#     Node 27, Type 0, BuildingBlock: UXUYUI_clean_sbu_0, # of connection points: 4
#     Node 28, Type 0, BuildingBlock: UXUYUI_clean_sbu_0, # of connection points: 4
#     Node 29, Type 0, BuildingBlock: UXUYUI_clean_sbu_0, # of connection points: 4
#     Node 30, Type 0, BuildingBlock: UXUYUI_clean_sbu_0, # of connection points: 4
#     Node 31, Type 0, BuildingBlock: UXUYUI_clean_sbu_0, # of connection points: 4
#     Edge 32, Type (0, 0), BuildingBlock: OJICUG_clean_linker_0, # of connection points: 2
#     Edge 33, Type (0, 0), BuildingBlock: OJICUG_clean_linker_0, # of connection points: 2
#     Edge 34, Type (0, 0), BuildingBlock: OJICUG_clean_linker_0, # of connection points: 2
#     Edge 35, Type (0, 0), BuildingBlock: OJICUG_clean_linker_0, # of connection points: 2
#     Edge 36, Type (0, 0), BuildingBlock: OJICUG_clean_linker_0, # of connection points: 2
#     Edge 37, Type (0, 0), BuildingBlock: OJICUG_clean_linker_0, # of connection points: 2
#     Edge 38, Type (0, 0), BuildingBlock: OJICUG_clean_linker_0, # of connection points: 2
#     Edge 39, Type (0, 0), BuildingBlock: OJICUG_clean_linker_0, # of connection points: 2
#     Edge 40, Type (0, 0), BuildingBlock: OJICUG_clean_linker_0, # of connection points: 2
#     Edge 41, Type (0, 0), BuildingBlock: OJICUG_clean_linker_0, # of connection points: 2
#     Edge 42, Type (0, 0), BuildingBlock: OJICUG_clean_linker_0, # of connection points: 2
#     Edge 43, Type (0, 0), BuildingBlock: OJICUG_clean_linker_0, # of connection points: 2
#     Edge 44, Type (0, 0), BuildingBlock: OJICUG_clean_linker_0, # of connection points: 2
#     Edge 45, Type (0, 0), BuildingBlock: OJICUG_clean_linker_0, # of connection points: 2
#     Edge 46, Type (0, 0), BuildingBlock: OJICUG_clean_linker_0, # of connection points: 2
#     Edge 47, Type (0, 0), BuildingBlock: OJICUG_clean_linker_0, # of connection points: 2
#     Edge 48, Type (0, 0), BuildingBlock: OJICUG_clean_linker_0, # of connection points: 2
#     Edge 49, Type (0, 0), BuildingBlock: OJICUG_clean_linker_0, # of connection points: 2
#     Edge 50, Type (0, 0), BuildingBlock: OJICUG_clean_linker_0, # of connection points: 2
#     Edge 51, Type (0, 0), BuildingBlock: OJICUG_clean_linker_0, # of connection points: 2
#     Edge 52, Type (0, 0), BuildingBlock: OJICUG_clean_linker_0, # of connection points: 2
#     Edge 53, Type (0, 0), BuildingBlock: OJICUG_clean_linker_0, # of connection points: 2
#     Edge 54, Type (0, 0), BuildingBlock: OJICUG_clean_linker_0, # of connection points: 2
#     Edge 55, Type (0, 0), BuildingBlock: OJICUG_clean_linker_0, # of connection points: 2
#     Edge 56, Type (0, 0), BuildingBlock: OJICUG_clean_linker_0, # of connection points: 2
#     Edge 57, Type (0, 0), BuildingBlock: OJICUG_clean_linker_0, # of connection points: 2
#     Edge 58, Type (0, 0), BuildingBlock: OJICUG_clean_linker_0, # of connection points: 2
#     Edge 59, Type (0, 0), BuildingBlock: OJICUG_clean_linker_0, # of connection points: 2
#     Edge 60, Type (0, 0), BuildingBlock: OJICUG_clean_linker_0, # of connection points: 2
#     Edge 61, Type (0, 0), BuildingBlock: OJICUG_clean_linker_0, # of connection points: 2
#     Edge 62, Type (0, 0), BuildingBlock: OJICUG_clean_linker_0, # of connection points: 2
#     Edge 63, Type (0, 0), BuildingBlock: OJICUG_clean_linker_0, # of connection points: 2
#     Edge 64, Type (0, 0), BuildingBlock: OJICUG_clean_linker_0, # of connection points: 2
#     Edge 65, Type (0, 0), BuildingBlock: OJICUG_clean_linker_0, # of connection points: 2
#     Edge 66, Type (0, 0), BuildingBlock: OJICUG_clean_linker_0, # of connection points: 2
#     Edge 67, Type (0, 0), BuildingBlock: OJICUG_clean_linker_0, # of connection points: 2
#     Edge 68, Type (0, 0), BuildingBlock: OJICUG_clean_linker_0, # of connection points: 2
#     Edge 69, Type (0, 0), BuildingBlock: OJICUG_clean_linker_0, # of connection points: 2
#     Edge 70, Type (0, 0), BuildingBlock: OJICUG_clean_linker_0, # of connection points: 2
#     Edge 71, Type (0, 0), BuildingBlock: OJICUG_clean_linker_0, # of connection points: 2
#     Edge 72, Type (0, 0), BuildingBlock: OJICUG_clean_linker_0, # of connection points: 2
#     Edge 73, Type (0, 0), BuildingBlock: OJICUG_clean_linker_0, # of connection points: 2
#     Edge 74, Type (0, 0), BuildingBlock: OJICUG_clean_linker_0, # of connection points: 2
#     Edge 75, Type (0, 0), BuildingBlock: OJICUG_clean_linker_0, # of connection points: 2
#     Edge 76, Type (0, 0), BuildingBlock: OJICUG_clean_linker_0, # of connection points: 2
#     Edge 77, Type (0, 0), BuildingBlock: OJICUG_clean_linker_0, # of connection points: 2
#     Edge 78, Type (0, 0), BuildingBlock: OJICUG_clean_linker_0, # of connection points: 2
#     Edge 79, Type (0, 0), BuildingBlock: OJICUG_clean_linker_0, # of connection points: 2
#     Edge 80, Type (0, 0), BuildingBlock: OJICUG_clean_linker_0, # of connection points: 2
#     Edge 81, Type (0, 0), BuildingBlock: OJICUG_clean_linker_0, # of connection points: 2
#     Edge 82, Type (0, 0), BuildingBlock: OJICUG_clean_linker_0, # of connection points: 2
#     Edge 83, Type (0, 0), BuildingBlock: OJICUG_clean_linker_0, # of connection points: 2
#     Edge 84, Type (0, 0), BuildingBlock: OJICUG_clean_linker_0, # of connection points: 2
#     Edge 85, Type (0, 0), BuildingBlock: OJICUG_clean_linker_0, # of connection points: 2
#     Edge 86, Type (0, 0), BuildingBlock: OJICUG_clean_linker_0, # of connection points: 2
#     Edge 87, Type (0, 0), BuildingBlock: OJICUG_clean_linker_0, # of connection points: 2
#     Edge 88, Type (0, 0), BuildingBlock: OJICUG_clean_linker_0, # of connection points: 2
#     Edge 89, Type (0, 0), BuildingBlock: OJICUG_clean_linker_0, # of connection points: 2
#     Edge 90, Type (0, 0), BuildingBlock: OJICUG_clean_linker_0, # of connection points: 2
#     Edge 91, Type (0, 0), BuildingBlock: OJICUG_clean_linker_0, # of connection points: 2
#     Edge 92, Type (0, 0), BuildingBlock: OJICUG_clean_linker_0, # of connection points: 2
#     Edge 93, Type (0, 0), BuildingBlock: OJICUG_clean_linker_0, # of connection points: 2
#     Edge 94, Type (0, 0), BuildingBlock: OJICUG_clean_linker_0, # of connection points: 2
#     Edge 95, Type (0, 0), BuildingBlock: OJICUG_clean_linker_0, # of connection points: 2
# Relax obj value: 0.152
# Max RMSD: 0.133
# Mean RMSD: 0.133
data_MOF--net-umq--node1-UXUYUI_clean_sbu_0--edge1-OJICUG_clean_linker_0
_symmetry_space_group_name_H-M    P1
_symmetry_Int_Tables_number       1
_symmetry_cell_setting            triclinic
loop_
_symmetry_equiv_pos_as_xyz
'x, y, z'
_cell_length_a     80.825432
_cell_length_b     80.81972
_cell_length_c     52.092812
_cell_angle_alpha  90.004319
_cell_angle_beta   90.001283
_cell_angle_gamma 90.005282
loop_
_atom_site_label
_atom_site_type_symbol
_atom_site_fract_x
_atom_site_fract_y
_atom_site_fract_z
_atom_type_partial_charge
Li0 Li 0.22466 0.11016 0.18182 0.0
Li1 Li 0.25503 0.11242 0.17647 0.0
Li2 Li 0.23766 0.0994 0.1447 0.0
Li3 Li 0.24103 0.08525 0.18452 0.0
C4 C 0.23402 0.13061 0.13366 0.0
N5 N 0.22752 0.14489 0.08655 0.0
C6 C 0.24676 0.13806 0.11971 0.0
C7 C 0.21794 0.13054 0.12377 0.0
C8 C 0.24324 0.14518 0.09589 0.0
C9 C 0.21491 0.1378 0.09989 0.0
C10 C 0.23725 0.1131 0.22871 0.0
C11 C 0.2263 0.11326 0.27177 0.0
N12 N 0.22516 0.13004 0.2708 0.0
C13 C 0.23612 0.13036 0.22823 0.0
C14 C 0.23241 0.10447 0.25071 0.0
C15 C 0.22992 0.1387 0.24966 0.0
C16 C 0.19661 0.11381 0.21418 0.0
N17 N 0.20595 0.12138 0.19591 0.0
C18 C 0.19085 0.14656 0.20117 0.0
C19 C 0.20323 0.13739 0.18911 0.0
C20 C 0.18137 0.13927 0.22071 0.0
C21 C 0.18426 0.12263 0.22706 0.0
H22 H 0.19919 0.10111 0.21938 0.0
H23 H 0.21109 0.14324 0.17501 0.0
C24 C 0.28503 0.12602 0.16057 0.0
N25 N 0.27458 0.12528 0.18097 0.0
C26 C 0.29919 0.13587 0.16155 0.0
C27 C 0.29184 0.14375 0.20482 0.0
C28 C 0.27789 0.13359 0.20307 0.0
C29 C 0.3026 0.14521 0.18372 0.0
H30 H 0.28221 0.11909 0.14334 0.0
H31 H 0.26961 0.13255 0.21924 0.0
C32 C 0.2155 0.07395 0.15452 0.0
N33 N 0.20635 0.04404 0.13306 0.0
C34 C 0.22728 0.06406 0.14219 0.0
C35 C 0.19909 0.06861 0.15594 0.0
C36 C 0.2224 0.04899 0.13147 0.0
C37 C 0.1947 0.05345 0.14496 0.0
C38 C 0.27375 0.08479 0.16552 0.0
C39 C 0.2841 0.07788 0.14691 0.0
C40 C 0.27902 0.08552 0.19107 0.0
C41 C 0.29956 0.07173 0.15418 0.0
C42 C 0.29456 0.07923 0.19757 0.0
N43 N 0.30442 0.07252 0.17915 0.0
C44 C 0.25069 0.0992 0.09528 0.0
C45 C 0.22184 0.09385 0.09587 0.0
C46 C 0.25083 0.09886 0.06853 0.0
N47 N 0.23632 0.09689 0.10833 0.0
C48 C 0.22144 0.09328 0.06905 0.0
C49 C 0.23605 0.09602 0.05505 0.0
H50 H 0.26198 0.10169 0.10573 0.0
H51 H 0.21055 0.09227 0.10673 0.0
C52 C 0.23116 0.06048 0.21927 0.0
N53 N 0.24232 0.06392 0.20048 0.0
C54 C 0.23108 0.04499 0.2312 0.0
C55 C 0.25374 0.0367 0.20384 0.0
C56 C 0.25329 0.05228 0.19231 0.0
C57 C 0.24258 0.0329 0.22362 0.0
H58 H 0.22218 0.06974 0.22477 0.0
H59 H 0.26152 0.05489 0.17654 0.0
O60 O 0.2373 0.12313 0.15666 0.0
O61 O 0.2428 0.10469 0.20758 0.0
O62 O 0.2199 0.08872 0.16541 0.0
O63 O 0.25866 0.09099 0.15848 0.0
H64 H 0.25926 0.13825 0.12709 0.0
H65 H 0.20796 0.12468 0.13424 0.0
H66 H 0.253 0.1509 0.0848 0.0
H67 H 0.20256 0.13772 0.0919 0.0
H68 H 0.22245 0.10674 0.28889 0.0
H69 H 0.23968 0.13722 0.21125 0.0
H70 H 0.23335 0.09115 0.25154 0.0
H71 H 0.22881 0.15203 0.24943 0.0
H72 H 0.18918 0.15944 0.19603 0.0
H73 H 0.17719 0.11658 0.24203 0.0
H74 H 0.30729 0.13625 0.14502 0.0
H75 H 0.29385 0.15075 0.22225 0.0
H76 H 0.24004 0.06793 0.14086 0.0
H77 H 0.18984 0.0761 0.16547 0.0
H78 H 0.23138 0.04122 0.12189 0.0
H79 H 0.18203 0.04917 0.14592 0.0
H80 H 0.28022 0.07728 0.12704 0.0
H81 H 0.27123 0.09084 0.20577 0.0
H82 H 0.30769 0.06633 0.13998 0.0
H83 H 0.29879 0.07969 0.21726 0.0
H84 H 0.2624 0.10084 0.0585 0.0
H85 H 0.20977 0.09121 0.05937 0.0
H86 H 0.22222 0.04254 0.24632 0.0
H87 H 0.26253 0.0276 0.19698 0.0
Li88 Li 0.89155 0.22781 0.17857 0.0
Li89 Li 0.89072 0.25801 0.17221 0.0
Li90 Li 0.90378 0.23983 0.14159 0.0
Li91 Li 0.917 0.2432 0.1821 0.0
C92 C 0.87283 0.23485 0.12976 0.0
N93 N 0.85944 0.22355 0.08421 0.0
C94 C 0.86511 0.24588 0.11294 0.0
C95 C 0.87366 0.21805 0.12349 0.0
C96 C 0.85844 0.23993 0.08997 0.0
C97 C 0.86682 0.21258 0.10037 0.0
C98 C 0.8872 0.24143 0.22415 0.0
C99 C 0.88369 0.23002 0.26658 0.0
N100 N 0.867 0.23137 0.264 0.0
C101 C 0.87001 0.2428 0.22199 0.0
C102 C 0.89411 0.23506 0.24666 0.0
C103 C 0.86001 0.23761 0.24232 0.0
C104 C 0.88589 0.19951 0.21004 0.0
N105 N 0.87896 0.21005 0.19277 0.0
C106 C 0.85236 0.1979 0.1992 0.0
C107 C 0.86258 0.20934 0.18702 0.0
C108 C 0.85897 0.1872 0.21784 0.0
C109 C 0.87605 0.18792 0.22291 0.0
H110 H 0.89892 0.20055 0.21453 0.0
H111 H 0.85731 0.21806 0.1736 0.0
C112 C 0.87461 0.28592 0.15356 0.0
N113 N 0.87824 0.27781 0.17569 0.0
C114 C 0.8642 0.29968 0.15389 0.0
C115 C 0.86223 0.29712 0.20003 0.0
C116 C 0.87271 0.28338 0.19879 0.0
C117 C 0.85753 0.30522 0.17728 0.0
H118 H 0.87959 0.28147 0.13558 0.0
H119 H 0.87612 0.27696 0.21619 0.0
C120 C 0.928 0.21679 0.15365 0.0
N121 N 0.958 0.2062 0.13423 0.0
C122 C 0.93854 0.22797 0.14132 0.0
C123 C 0.93272 0.20024 0.15611 0.0
C124 C 0.95365 0.22237 0.13163 0.0
C125 C 0.94793 0.19512 0.14615 0.0
C126 C 0.91908 0.2757 0.16243 0.0
C127 C 0.92657 0.28578 0.144 0.0
C128 C 0.91811 0.28108 0.1879 0.0
C129 C 0.93305 0.30108 0.15139 0.0
C130 C 0.92474 0.29646 0.19451 0.0
N131 N 0.93202 0.30606 0.17628 0.0
C132 C 0.90591 0.25215 0.09179 0.0
C133 C 0.90939 0.22305 0.09366 0.0
C134 C 0.90707 0.25189 0.06509 0.0
N135 N 0.90701 0.23788 0.10544 0.0
C136 C 0.91056 0.2222 0.06692 0.0
C137 C 0.90933 0.23676 0.05227 0.0
H138 H 0.90377 0.26372 0.1017 0.0
H139 H 0.91005 0.21185 0.10499 0.0
C140 C 0.9405 0.23335 0.21902 0.0
N141 N 0.93799 0.24398 0.19917 0.0
C142 C 0.95575 0.23293 0.23168 0.0
C143 C 0.96567 0.25416 0.20291 0.0
C144 C 0.9503 0.25408 0.19071 0.0
C145 C 0.96855 0.24352 0.22373 0.0
H146 H 0.93071 0.22503 0.22478 0.0
H147 H 0.94837 0.26189 0.17419 0.0
O148 O 0.87988 0.24048 0.15199 0.0
O149 O 0.89715 0.24592 0.20406 0.0
O150 O 0.91316 0.22191 0.16354 0.0
O151 O 0.91259 0.26075 0.15528 0.0
H152 H 0.86431 0.25891 0.11747 0.0
H153 H 0.87978 0.20937 0.13614 0.0
H154 H 0.8525 0.24834 0.07672 0.0
H155 H 0.86748 0.19964 0.09519 0.0
H156 H 0.88887 0.22501 0.28408 0.0
H157 H 0.86444 0.24752 0.20457 0.0
H158 H 0.90737 0.23398 0.24874 0.0
H159 H 0.84669 0.23845 0.2408 0.0
H160 H 0.83934 0.19764 0.19434 0.0
H161 H 0.88166 0.18007 0.23733 0.0
H162 H 0.86124 0.30579 0.13597 0.0
H163 H 0.85739 0.30097 0.21847 0.0
H164 H 0.93516 0.24083 0.13919 0.0
H165 H 0.9247 0.19145 0.16566 0.0
H166 H 0.96193 0.23089 0.12206 0.0
H167 H 0.95174 0.18234 0.14793 0.0
H168 H 0.92738 0.28181 0.1242 0.0
H169 H 0.91237 0.2735 0.20247 0.0
H170 H 0.93891 0.30901 0.13733 0.0
H171 H 0.9241 0.30077 0.21415 0.0
H172 H 0.90576 0.26337 0.05457 0.0
H173 H 0.91241 0.21029 0.05782 0.0
H174 H 0.95745 0.22449 0.24762 0.0
H175 H 0.97533 0.26223 0.19575 0.0
Li176 Li 0.76168 0.90218 0.14466 0.0
Li177 Li 0.75862 0.91697 0.18394 0.0
Li178 Li 0.77484 0.89084 0.18228 0.0
Li179 Li 0.74387 0.8907 0.17659 0.0
C180 C 0.7855 0.92672 0.15472 0.0
N181 N 0.79698 0.95604 0.13404 0.0
C182 C 0.77495 0.93676 0.14023 0.0
C183 C 0.80188 0.93159 0.15868 0.0
C184 C 0.78099 0.95153 0.12994 0.0
C185 C 0.80746 0.94646 0.14806 0.0
C186 C 0.72668 0.91966 0.16521 0.0
C187 C 0.70618 0.92623 0.19727 0.0
N188 N 0.69764 0.93515 0.17954 0.0
C189 C 0.7177 0.92888 0.1473 0.0
C190 C 0.72089 0.91831 0.1904 0.0
C191 C 0.70305 0.93663 0.15492 0.0
C192 C 0.74876 0.90358 0.0952 0.0
N193 N 0.76328 0.9042 0.10827 0.0
C194 C 0.77855 0.90572 0.06904 0.0
C195 C 0.77804 0.9054 0.09587 0.0
C196 C 0.76372 0.90472 0.05499 0.0
C197 C 0.74869 0.90381 0.06844 0.0
H198 H 0.73723 0.90258 0.10562 0.0
H199 H 0.78942 0.90573 0.1068 0.0
C200 C 0.7644 0.93952 0.22417 0.0
N201 N 0.7577 0.93802 0.20037 0.0
C202 C 0.76417 0.95476 0.23683 0.0
C203 C 0.75037 0.96667 0.20006 0.0
C204 C 0.75075 0.95118 0.18821 0.0
C205 C 0.75714 0.96865 0.22474 0.0
H206 H 0.76994 0.92886 0.23331 0.0
H207 H 0.74566 0.94973 0.16917 0.0
C208 C 0.76234 0.87065 0.13429 0.0
N209 N 0.76482 0.85545 0.08694 0.0
C210 C 0.74813 0.865 0.12177 0.0
C211 C 0.77782 0.86847 0.12282 0.0
C212 C 0.74964 0.85737 0.09781 0.0
C213 C 0.77881 0.86078 0.09885 0.0
C214 C 0.75467 0.89119 0.23076 0.0
C215 C 0.76029 0.87526 0.23656 0.0
C216 C 0.74672 0.90052 0.2497 0.0
C217 C 0.75776 0.86888 0.26116 0.0
C218 C 0.74442 0.89369 0.27408 0.0
N219 N 0.74994 0.87815 0.27926 0.0
C220 C 0.80117 0.88613 0.21708 0.0
C221 C 0.79625 0.86354 0.18905 0.0
C222 C 0.81334 0.87714 0.23008 0.0
N223 N 0.79284 0.87916 0.19715 0.0
C224 C 0.80844 0.85419 0.20129 0.0
C225 C 0.81701 0.8609 0.22232 0.0
H226 H 0.79801 0.89851 0.2233 0.0
H227 H 0.78915 0.85814 0.17362 0.0
C228 C 0.71154 0.88033 0.16441 0.0
N229 N 0.72406 0.87809 0.1815 0.0
C230 C 0.69744 0.87037 0.16539 0.0
C231 C 0.70925 0.85602 0.2017 0.0
C232 C 0.72313 0.86625 0.19998 0.0
C233 C 0.69626 0.85786 0.18402 0.0
H234 H 0.71271 0.88951 0.14944 0.0
H235 H 0.73337 0.86429 0.21284 0.0
O236 O 0.7799 0.91223 0.16516 0.0
O237 O 0.74112 0.91217 0.15796 0.0
O238 O 0.76106 0.8786 0.15739 0.0
O239 O 0.75739 0.89785 0.20696 0.0
H240 H 0.76222 0.93322 0.13695 0.0
H241 H 0.8102 0.92396 0.16988 0.0
H242 H 0.77295 0.95941 0.11872 0.0
H243 H 0.82012 0.95039 0.15099 0.0
H244 H 0.70155 0.92527 0.21669 0.0
H245 H 0.72206 0.93008 0.12773 0.0
H246 H 0.7276 0.91118 0.20446 0.0
H247 H 0.69598 0.94382 0.14126 0.0
H248 H 0.79041 0.90628 0.05943 0.0
H249 H 0.73697 0.90326 0.05841 0.0
H250 H 0.76935 0.95559 0.25595 0.0
H251 H 0.74509 0.97704 0.18976 0.0
H252 H 0.73605 0.86662 0.13033 0.0
H253 H 0.78893 0.87298 0.13209 0.0
H254 H 0.73874 0.85302 0.08783 0.0
H255 H 0.7907 0.85914 0.08965 0.0
H256 H 0.7663 0.86778 0.22211 0.0
H257 H 0.74241 0.91292 0.24567 0.0
H258 H 0.76198 0.85654 0.26585 0.0
H259 H 0.73827 0.90077 0.2889 0.0
H260 H 0.8197 0.88277 0.24617 0.0
H261 H 0.81067 0.84161 0.19501 0.0
H262 H 0.68769 0.87227 0.15144 0.0
H263 H 0.70904 0.84633 0.21604 0.0
Li264 Li 0.10875 0.77265 0.18651 0.0
Li265 Li 0.10841 0.74288 0.17779 0.0
Li266 Li 0.09723 0.76314 0.14731 0.0
Li267 Li 0.08178 0.7581 0.18596 0.0
C268 C 0.13555 0.76703 0.15926 0.0
N269 N 0.16658 0.78128 0.16129 0.0
C270 C 0.1482 0.75946 0.17326 0.0
C271 C 0.13872 0.78173 0.14604 0.0
C272 C 0.1638 0.76688 0.17411 0.0
C273 C 0.15447 0.78878 0.14738 0.0
C274 C 0.09664 0.74414 0.22898 0.0
C275 C 0.08454 0.7185 0.24337 0.0
N276 N 0.08693 0.72325 0.26814 0.0
C277 C 0.09896 0.74879 0.25455 0.0
C278 C 0.08936 0.72889 0.22329 0.0
C279 C 0.09399 0.73804 0.27409 0.0
C280 C 0.11929 0.80542 0.19934 0.0
N281 N 0.12157 0.789 0.20369 0.0
C282 C 0.14357 0.79469 0.233 0.0
C283 C 0.13327 0.7835 0.22036 0.0
C284 C 0.14167 0.81178 0.22878 0.0
C285 C 0.12925 0.81709 0.21175 0.0
H286 H 0.10975 0.80948 0.18628 0.0
H287 H 0.13473 0.77035 0.22353 0.0
C288 C 0.12461 0.71488 0.15906 0.0
N289 N 0.12121 0.72315 0.18113 0.0
C290 C 0.13538 0.7014 0.15918 0.0
C291 C 0.13909 0.70514 0.20483 0.0
C292 C 0.12818 0.71857 0.20383 0.0
C293 C 0.14301 0.69651 0.1822 0.0
H294 H 0.1194 0.71914 0.14117 0.0
H295 H 0.1258 0.72569 0.22098 0.0
C296 C 0.0803 0.79126 0.15541 0.0
N297 N 0.06554 0.81424 0.12352 0.0
C298 C 0.06306 0.79221 0.15384 0.0
C299 C 0.09003 0.80209 0.14094 0.0
C300 C 0.05584 0.8039 0.13757 0.0
C301 C 0.08233 0.81359 0.12486 0.0
C302 C 0.07697 0.73812 0.13818 0.0
C303 C 0.0614 0.74549 0.1358 0.0
C304 C 0.08261 0.72749 0.11891 0.0
C305 C 0.05172 0.74208 0.11422 0.0
C306 C 0.0726 0.72444 0.09756 0.0
N307 N 0.05749 0.73173 0.09568 0.0
C308 C 0.10963 0.76156 0.09759 0.0
C309 C 0.08224 0.772 0.09831 0.0
C310 C 0.10976 0.76185 0.07083 0.0
N311 N 0.09599 0.76652 0.1108 0.0
C312 C 0.0819 0.77266 0.07149 0.0
C313 C 0.09572 0.76732 0.05745 0.0
H314 H 0.12029 0.75694 0.10784 0.0
H315 H 0.07133 0.77537 0.109 0.0
C316 C 0.05557 0.77018 0.21587 0.0
N317 N 0.06087 0.75674 0.20255 0.0
C318 C 0.04016 0.77 0.22799 0.0
C319 C 0.03613 0.74199 0.21297 0.0
C320 C 0.05162 0.74271 0.20112 0.0
C321 C 0.03016 0.75581 0.2265 0.0
H322 H 0.0633 0.78109 0.21689 0.0
H323 H 0.05621 0.73215 0.19053 0.0
O324 O 0.12009 0.76016 0.15865 0.0
O325 O 0.10127 0.75464 0.20969 0.0
O326 O 0.08759 0.77999 0.17141 0.0
O327 O 0.08677 0.74163 0.15893 0.0
H328 H 0.14596 0.74808 0.18361 0.0
H329 H 0.1291 0.78765 0.13491 0.0
H330 H 0.17368 0.76123 0.18502 0.0
H331 H 0.15708 0.80021 0.13736 0.0
H332 H 0.07889 0.70666 0.23926 0.0
H333 H 0.10455 0.76059 0.25924 0.0
H334 H 0.08745 0.72509 0.2036 0.0
H335 H 0.09571 0.74147 0.29399 0.0
H336 H 0.15311 0.78996 0.2456 0.0
H337 H 0.12714 0.83012 0.2082 0.0
H338 H 0.13794 0.69507 0.14129 0.0
H339 H 0.14492 0.70203 0.22291 0.0
H340 H 0.05533 0.78397 0.16494 0.0
H341 H 0.10337 0.80155 0.14194 0.0
H342 H 0.04251 0.80472 0.13608 0.0
H343 H 0.08971 0.82198 0.11343 0.0
H344 H 0.05693 0.75402 0.15018 0.0
H345 H 0.09463 0.72173 0.12024 0.0
H346 H 0.03969 0.74778 0.1121 0.0
H347 H 0.07686 0.7163 0.08246 0.0
H348 H 0.12071 0.75772 0.0607 0.0
H349 H 0.07074 0.77672 0.06185 0.0
H350 H 0.0362 0.78083 0.23857 0.0
H351 H 0.0288 0.73084 0.21115 0.0
Li352 Li 0.24444 0.91648 0.31187 0.0
Li353 Li 0.2403 0.90215 0.35367 0.0
Li354 Li 0.25833 0.8911 0.32217 0.0
Li355 Li 0.22932 0.88938 0.31464 0.0
C356 C 0.27735 0.9144 0.3392 0.0
N357 N 0.31144 0.91656 0.33711 0.0
C358 C 0.28686 0.91036 0.36071 0.0
C359 C 0.28517 0.91959 0.31666 0.0
C360 C 0.30409 0.91151 0.35925 0.0
C361 C 0.30242 0.92062 0.31599 0.0
C362 C 0.21581 0.92552 0.33833 0.0
C363 C 0.1919 0.94307 0.34329 0.0
N364 N 0.20155 0.95475 0.35467 0.0
C365 C 0.2255 0.9377 0.35006 0.0
C366 C 0.19888 0.92822 0.33486 0.0
C367 C 0.21806 0.95239 0.35819 0.0
C368 C 0.23481 0.93976 0.27446 0.0
N369 N 0.24479 0.93738 0.29512 0.0
C370 C 0.25427 0.96535 0.29301 0.0
C371 C 0.25437 0.94978 0.3046 0.0
C372 C 0.24405 0.96823 0.27166 0.0
C373 C 0.23421 0.95519 0.26239 0.0
H374 H 0.22722 0.92968 0.26751 0.0
H375 H 0.26195 0.94764 0.32138 0.0
C376 C 0.24905 0.89596 0.40376 0.0
N377 N 0.23734 0.90405 0.38991 0.0
C378 C 0.24828 0.89568 0.43048 0.0
C379 C 0.22323 0.91197 0.42838 0.0
C380 C 0.22442 0.91181 0.40159 0.0
C381 C 0.23526 0.90378 0.44315 0.0
H382 H 0.2589 0.88948 0.39394 0.0
H383 H 0.21488 0.91762 0.39027 0.0
C384 C 0.25394 0.88917 0.26994 0.0
N385 N 0.26961 0.87376 0.22937 0.0
C386 C 0.25385 0.87193 0.26805 0.0
C387 C 0.26189 0.8986 0.25115 0.0
C388 C 0.26189 0.86436 0.24741 0.0
C389 C 0.26977 0.89057 0.23078 0.0
C390 C 0.23122 0.86958 0.35724 0.0
C391 C 0.23599 0.85405 0.36646 0.0
C392 C 0.21542 0.87563 0.36295 0.0
C393 C 0.2249 0.84484 0.38125 0.0
C394 C 0.2047 0.86604 0.37782 0.0
N395 N 0.20962 0.85098 0.38659 0.0
C396 C 0.28117 0.86778 0.33855 0.0
C397 C 0.28952 0.88027 0.29952 0.0
C398 C 0.29499 0.85746 0.33829 0.0
N399 N 0.27852 0.8787 0.31916 0.0
C400 C 0.30352 0.87014 0.29843 0.0
C401 C 0.30631 0.85841 0.31789 0.0
H402 H 0.27243 0.86699 0.35419 0.0
H403 H 0.28748 0.88935 0.28467 0.0
C404 C 0.19908 0.8836 0.28804 0.0
N405 N 0.21219 0.87632 0.29986 0.0
C406 C 0.18675 0.87387 0.27673 0.0
C407 C 0.20162 0.84942 0.29025 0.0
C408 C 0.21371 0.85958 0.30099 0.0
C409 C 0.18793 0.85654 0.27787 0.0
H410 H 0.19827 0.89696 0.28729 0.0
H411 H 0.2244 0.85409 0.31008 0.0
O412 O 0.26049 0.91302 0.34001 0.0
O413 O 0.22283 0.91116 0.32974 0.0
O414 O 0.24625 0.89684 0.29002 0.0
O415 O 0.24206 0.8787 0.34279 0.0
H416 H 0.28104 0.90636 0.37832 0.0
H417 H 0.27801 0.92251 0.2997 0.0
H418 H 0.31161 0.90837 0.37572 0.0
H419 H 0.30863 0.92452 0.29863 0.0
H420 H 0.17881 0.94533 0.34074 0.0
H421 H 0.2386 0.9358 0.35301 0.0
H422 H 0.19123 0.91893 0.32572 0.0
H423 H 0.2254 0.9619 0.36732 0.0
H424 H 0.26186 0.97513 0.30099 0.0
H425 H 0.22624 0.95687 0.24588 0.0
H426 H 0.25784 0.88927 0.44112 0.0
H427 H 0.21284 0.9181 0.43741 0.0
H428 H 0.24785 0.86447 0.28256 0.0
H429 H 0.26203 0.91198 0.25238 0.0
H430 H 0.26202 0.85102 0.24578 0.0
H431 H 0.27602 0.8977 0.21613 0.0
H432 H 0.24813 0.84913 0.36216 0.0
H433 H 0.21141 0.88756 0.35604 0.0
H434 H 0.22844 0.83281 0.38849 0.0
H435 H 0.19246 0.87059 0.38238 0.0
H436 H 0.29655 0.84853 0.3536 0.0
H437 H 0.31208 0.87148 0.28258 0.0
H438 H 0.17635 0.87982 0.2674 0.0
H439 H 0.20314 0.83612 0.29117 0.0
Li440 Li 0.1095 0.22631 0.31722 0.0
Li441 Li 0.11131 0.25659 0.32358 0.0
Li442 Li 0.09822 0.23871 0.35451 0.0
Li443 Li 0.08447 0.2424 0.3145 0.0
C444 C 0.12928 0.23424 0.36586 0.0
N445 N 0.14306 0.22526 0.41237 0.0
C446 C 0.13636 0.24623 0.38177 0.0
C447 C 0.12931 0.21766 0.37353 0.0
C448 C 0.14322 0.24145 0.40524 0.0
C449 C 0.13633 0.21337 0.39711 0.0
C450 C 0.1132 0.23954 0.27125 0.0
C451 C 0.11486 0.22831 0.22843 0.0
N452 N 0.13165 0.22818 0.2302 0.0
C453 C 0.13048 0.23942 0.27257 0.0
C454 C 0.10531 0.23403 0.24896 0.0
C455 C 0.13958 0.23359 0.25164 0.0
C456 C 0.11309 0.19823 0.2851 0.0
N457 N 0.12092 0.20788 0.30269 0.0
C458 C 0.14619 0.19307 0.29646 0.0
C459 C 0.13713 0.20551 0.30861 0.0
C460 C 0.13857 0.18318 0.27773 0.0
C461 C 0.12177 0.1858 0.27216 0.0
H462 H 0.10023 0.20053 0.28058 0.0
H463 H 0.14318 0.21362 0.32216 0.0
C464 C 0.12594 0.28553 0.34154 0.0
N465 N 0.12407 0.27628 0.31996 0.0
C466 C 0.13602 0.29954 0.34134 0.0
C467 C 0.1415 0.29472 0.29635 0.0
C468 C 0.13125 0.2808 0.29742 0.0
C469 C 0.14426 0.30412 0.31867 0.0
H470 H 0.11975 0.28185 0.35904 0.0
H471 H 0.12925 0.27349 0.28035 0.0
C472 C 0.0732 0.21637 0.34349 0.0
N473 N 0.04324 0.20656 0.36404 0.0
C474 C 0.06307 0.22785 0.35602 0.0
C475 C 0.06807 0.19992 0.34142 0.0
C476 C 0.04798 0.22265 0.36627 0.0
C477 C 0.05289 0.19519 0.35194 0.0
C478 C 0.08336 0.27487 0.33419 0.0
C479 C 0.07594 0.28495 0.3527 0.0
C480 C 0.08443 0.28037 0.30878 0.0
C481 C 0.06964 0.30036 0.34547 0.0
C482 C 0.07799 0.29586 0.30233 0.0
N483 N 0.07079 0.30545 0.32065 0.0
C484 C 0.09633 0.251 0.40444 0.0
C485 C 0.09356 0.22183 0.40252 0.0
C486 C 0.09586 0.25062 0.43119 0.0
N487 N 0.09539 0.23673 0.39075 0.0
C488 C 0.09312 0.22086 0.42931 0.0
C489 C 0.09451 0.23538 0.44404 0.0
H490 H 0.09787 0.26266 0.39453 0.0
H491 H 0.09301 0.21065 0.39113 0.0
C492 C 0.06035 0.23246 0.27885 0.0
N493 N 0.06331 0.24351 0.29799 0.0
C494 C 0.045 0.23213 0.26651 0.0
C495 C 0.03588 0.25433 0.29415 0.0
C496 C 0.05135 0.25414 0.30607 0.0
C497 C 0.03255 0.24325 0.27404 0.0
H498 H 0.06987 0.22374 0.27341 0.0
H499 H 0.05361 0.2623 0.32207 0.0
O500 O 0.12205 0.23871 0.34315 0.0
O501 O 0.10408 0.24467 0.2919 0.0
O502 O 0.088 0.2211 0.33305 0.0
O503 O 0.08967 0.25982 0.34119 0.0
H504 H 0.13646 0.2591 0.37615 0.0
H505 H 0.1237 0.20824 0.3616 0.0
H506 H 0.14865 0.25062 0.41781 0.0
H507 H 0.13633 0.20061 0.40337 0.0
H508 H 0.10891 0.22395 0.2111 0.0
H509 H 0.13678 0.24349 0.28979 0.0
H510 H 0.09197 0.23415 0.24751 0.0
H511 H 0.15295 0.23327 0.25251 0.0
H512 H 0.1592 0.19163 0.30096 0.0
H513 H 0.11547 0.17841 0.25783 0.0
H514 H 0.13744 0.30663 0.35885 0.0
H515 H 0.1476 0.29776 0.27846 0.0
H516 H 0.06677 0.24064 0.35784 0.0
H517 H 0.07576 0.19089 0.33173 0.0
H518 H 0.04003 0.2314 0.376 0.0
H519 H 0.04877 0.18249 0.35047 0.0
H520 H 0.07504 0.28088 0.37245 0.0
H521 H 0.09013 0.27282 0.29415 0.0
H522 H 0.06385 0.30827 0.3596 0.0
H523 H 0.07872 0.30026 0.28275 0.0
H524 H 0.09669 0.26215 0.44169 0.0
H525 H 0.09226 0.20883 0.43835 0.0
H526 H 0.04295 0.22336 0.25111 0.0
H527 H 0.0265 0.26283 0.30098 0.0
Li528 Li 0.74332 0.1104 0.32285 0.0
Li529 Li 0.77474 0.11092 0.31431 0.0
Li530 Li 0.75877 0.08504 0.31417 0.0
Li531 Li 0.76323 0.09904 0.35327 0.0
C532 C 0.75092 0.09675 0.26928 0.0
N533 N 0.74115 0.07923 0.22636 0.0
C534 C 0.76258 0.09212 0.25082 0.0
C535 C 0.73429 0.09255 0.26588 0.0
C536 C 0.75739 0.08324 0.22926 0.0
C537 C 0.7296 0.08368 0.24405 0.0
C538 C 0.76319 0.13122 0.36333 0.0
C539 C 0.78032 0.14162 0.39766 0.0
N540 N 0.76666 0.14805 0.40921 0.0
C541 C 0.74936 0.1381 0.37539 0.0
C542 C 0.77882 0.13314 0.3744 0.0
C543 C 0.75136 0.14651 0.39862 0.0
C544 C 0.71208 0.12169 0.3383 0.0
N545 N 0.72344 0.12251 0.31913 0.0
C546 C 0.70752 0.14303 0.29722 0.0
C547 C 0.72134 0.13268 0.2986 0.0
C548 C 0.69594 0.143 0.31733 0.0
C549 C 0.69819 0.13195 0.33785 0.0
H550 H 0.71416 0.11352 0.35443 0.0
H551 H 0.73067 0.13311 0.28372 0.0
C552 C 0.80208 0.11689 0.28118 0.0
N553 N 0.79172 0.12368 0.29884 0.0
C554 C 0.81381 0.12674 0.26867 0.0
C555 C 0.80434 0.15017 0.29352 0.0
C556 C 0.79274 0.13992 0.30534 0.0
C557 C 0.8149 0.1437 0.27454 0.0
H558 H 0.80101 0.1039 0.27649 0.0
H559 H 0.78435 0.14498 0.31946 0.0
C560 C 0.73782 0.07511 0.35403 0.0
N561 N 0.72922 0.04647 0.3797 0.0
C562 C 0.75007 0.06421 0.36247 0.0
C563 C 0.72119 0.07148 0.35869 0.0
C564 C 0.74549 0.04979 0.37541 0.0
C565 C 0.71709 0.05693 0.37169 0.0
C566 C 0.79505 0.08494 0.34056 0.0
C567 C 0.79814 0.06827 0.34588 0.0
C568 C 0.80731 0.09673 0.34546 0.0
C569 C 0.8133 0.06372 0.35664 0.0
C570 C 0.82232 0.09168 0.3562 0.0
N571 N 0.82497 0.07543 0.36156 0.0
C572 C 0.77187 0.05786 0.28763 0.0
C573 C 0.74318 0.0555 0.29624 0.0
C574 C 0.77193 0.04245 0.27553 0.0
N575 N 0.75765 0.064 0.29776 0.0
C576 C 0.74269 0.03998 0.28446 0.0
C577 C 0.75723 0.03321 0.27395 0.0
H578 H 0.78316 0.065 0.28887 0.0
H579 H 0.732 0.06076 0.30421 0.0
C580 C 0.75166 0.1009 0.40302 0.0
N581 N 0.76563 0.09696 0.38984 0.0
C582 C 0.75161 0.10097 0.42977 0.0
C583 C 0.78016 0.0921 0.42916 0.0
C584 C 0.77973 0.09248 0.40232 0.0
C585 C 0.76602 0.09661 0.44315 0.0
H586 H 0.74057 0.1043 0.39265 0.0
H587 H 0.79072 0.08939 0.39167 0.0
O588 O 0.75581 0.10493 0.29095 0.0
O589 O 0.7614 0.12253 0.34094 0.0
O590 O 0.74199 0.08928 0.34124 0.0
O591 O 0.78033 0.08957 0.32976 0.0
H592 H 0.77551 0.0952 0.25326 0.0
H593 H 0.72515 0.09592 0.28014 0.0
H594 H 0.76629 0.07949 0.21488 0.0
H595 H 0.71679 0.08026 0.24122 0.0
H596 H 0.79232 0.14305 0.40655 0.0
H597 H 0.73719 0.13684 0.36706 0.0
H598 H 0.78967 0.12801 0.36529 0.0
H599 H 0.74074 0.15177 0.40826 0.0
H600 H 0.70629 0.15148 0.28119 0.0
H601 H 0.68947 0.13149 0.35363 0.0
H602 H 0.82156 0.12123 0.25405 0.0
H603 H 0.80493 0.16306 0.29909 0.0
H604 H 0.76297 0.06689 0.35914 0.0
H605 H 0.71156 0.07982 0.35226 0.0
H606 H 0.75485 0.04124 0.38205 0.0
H607 H 0.70426 0.05394 0.3754 0.0
H608 H 0.78896 0.05891 0.34167 0.0
H609 H 0.80531 0.10961 0.341 0.0
H610 H 0.81582 0.05088 0.36098 0.0
H611 H 0.83188 0.10069 0.36023 0.0
H612 H 0.78337 0.03793 0.26727 0.0
H613 H 0.7311 0.03328 0.28394 0.0
H614 H 0.74041 0.10434 0.43991 0.0
H615 H 0.79152 0.08872 0.43887 0.0
Li616 Li 0.91423 0.75722 0.3168 0.0
Li617 Li 0.90072 0.76126 0.35672 0.0
Li618 Li 0.8882 0.74357 0.3255 0.0
Li619 Li 0.8891 0.77382 0.31887 0.0
C620 C 0.91592 0.72526 0.33591 0.0
N621 N 0.92891 0.69511 0.3211 0.0
C622 C 0.92311 0.71479 0.3541 0.0
C623 C 0.91531 0.72038 0.31016 0.0
C624 C 0.92962 0.6996 0.34624 0.0
C625 C 0.92195 0.70509 0.30308 0.0
C626 C 0.92557 0.78409 0.34464 0.0
C627 C 0.94606 0.8055 0.35001 0.0
N628 N 0.95556 0.79486 0.36386 0.0
C629 C 0.93553 0.77336 0.35893 0.0
C630 C 0.93086 0.80028 0.34013 0.0
C631 C 0.95065 0.77904 0.36848 0.0
C632 C 0.9366 0.76277 0.27642 0.0
N633 N 0.93508 0.75563 0.29991 0.0
C634 C 0.96354 0.74759 0.29946 0.0
C635 C 0.94812 0.74808 0.31152 0.0
C636 C 0.96557 0.75499 0.27524 0.0
C637 C 0.9518 0.76257 0.26366 0.0
H638 H 0.92602 0.76874 0.26772 0.0
H639 H 0.94664 0.74263 0.33032 0.0
C640 C 0.89997 0.74902 0.40635 0.0
N641 N 0.90307 0.76313 0.39303 0.0
C642 C 0.90014 0.74911 0.4331 0.0
C643 C 0.90704 0.77821 0.43204 0.0
C644 C 0.90664 0.77759 0.40522 0.0
C645 C 0.90359 0.76386 0.44631 0.0
H646 H 0.89706 0.73775 0.39609 0.0
H647 H 0.9088 0.7887 0.39415 0.0
C648 C 0.88287 0.75526 0.27512 0.0
N649 N 0.85888 0.75428 0.23736 0.0
C650 C 0.86611 0.75579 0.28175 0.0
C651 C 0.88742 0.75426 0.24929 0.0
C652 C 0.85417 0.75528 0.26237 0.0
C653 C 0.87511 0.75376 0.23048 0.0
C654 C 0.86963 0.76813 0.36638 0.0
C655 C 0.85974 0.7585 0.38253 0.0
C656 C 0.87223 0.78483 0.37215 0.0
C657 C 0.8527 0.76572 0.40432 0.0
C658 C 0.86495 0.79159 0.3941 0.0
N659 N 0.85544 0.78197 0.40961 0.0
C660 C 0.86966 0.71772 0.34471 0.0
C661 C 0.87154 0.71659 0.29935 0.0
C662 C 0.85891 0.70424 0.34494 0.0
N663 N 0.87531 0.72392 0.32213 0.0
C664 C 0.86081 0.70301 0.29867 0.0
C665 C 0.85403 0.69694 0.32167 0.0
H666 H 0.87337 0.72344 0.36256 0.0
H667 H 0.87658 0.72142 0.28166 0.0
C668 C 0.88518 0.80138 0.28604 0.0
N669 N 0.87743 0.79186 0.30388 0.0
C670 C 0.87647 0.81379 0.27311 0.0
C671 C 0.8521 0.80655 0.29756 0.0
C672 C 0.86121 0.79419 0.30978 0.0
C673 C 0.85968 0.81644 0.27879 0.0
H674 H 0.89804 0.79907 0.28148 0.0
H675 H 0.8552 0.78615 0.32349 0.0
O676 O 0.90953 0.74015 0.34351 0.0
O677 O 0.91076 0.77885 0.33487 0.0
O678 O 0.89484 0.75601 0.29364 0.0
O679 O 0.8771 0.76122 0.34538 0.0
H680 H 0.92367 0.7184 0.3741 0.0
H681 H 0.90983 0.72827 0.29575 0.0
H682 H 0.93524 0.69139 0.36013 0.0
H683 H 0.92157 0.70117 0.28323 0.0
H684 H 0.95031 0.81801 0.34665 0.0
H685 H 0.93167 0.76078 0.36265 0.0
H686 H 0.92329 0.80873 0.32905 0.0
H687 H 0.95848 0.77086 0.37956 0.0
H688 H 0.97384 0.74183 0.30928 0.0
H689 H 0.95274 0.76825 0.24489 0.0
H690 H 0.89761 0.73772 0.44334 0.0
H691 H 0.90958 0.78987 0.4415 0.0
H692 H 0.86232 0.75652 0.30161 0.0
H693 H 0.90034 0.75389 0.24386 0.0
H694 H 0.84117 0.75567 0.26723 0.0
H695 H 0.87845 0.75298 0.21041 0.0
H696 H 0.8575 0.7456 0.37835 0.0
H697 H 0.88002 0.79242 0.36003 0.0
H698 H 0.84506 0.75839 0.41704 0.0
H699 H 0.86695 0.80446 0.39888 0.0
H700 H 0.85433 0.69968 0.36315 0.0
H701 H 0.85742 0.69771 0.28032 0.0
H702 H 0.88276 0.82118 0.25876 0.0
H703 H 0.83911 0.80796 0.30214 0.0
Li704 Li 0.73975 0.89095 0.82201 0.0
Li705 Li 0.75904 0.9013 0.85406 0.0
Li706 Li 0.75617 0.91658 0.81323 0.0
Li707 Li 0.77085 0.88986 0.81532 0.0
C708 C 0.72445 0.92078 0.83494 0.0
N709 N 0.69546 0.9374 0.82379 0.0
C710 C 0.71511 0.92784 0.85467 0.0
C711 C 0.71908 0.9222 0.80954 0.0
C712 C 0.70047 0.93618 0.84864 0.0
C713 C 0.70439 0.93065 0.80429 0.0
C714 C 0.75749 0.8694 0.86303 0.0
C715 C 0.7731 0.8558 0.89632 0.0
N716 N 0.75876 0.85237 0.90893 0.0
C717 C 0.74289 0.86564 0.87617 0.0
C718 C 0.77271 0.86436 0.87303 0.0
C719 C 0.7438 0.85705 0.89941 0.0
C720 C 0.72152 0.86474 0.80197 0.0
N721 N 0.72003 0.87859 0.81655 0.0
C722 C 0.69181 0.8721 0.82588 0.0
C723 C 0.70556 0.88245 0.82842 0.0
C724 C 0.69305 0.85746 0.81141 0.0
C725 C 0.70815 0.85396 0.79912 0.0
H726 H 0.73329 0.86183 0.79317 0.0
H727 H 0.70475 0.89329 0.84046 0.0
C728 C 0.77608 0.90481 0.90215 0.0
N729 N 0.76115 0.90328 0.89038 0.0
C730 C 0.77708 0.90525 0.92894 0.0
C731 C 0.74729 0.90287 0.93088 0.0
C732 C 0.74689 0.9025 0.90411 0.0
C733 C 0.76255 0.90413 0.94367 0.0
H734 H 0.78724 0.90548 0.89085 0.0
H735 H 0.73518 0.9013 0.89421 0.0
C736 C 0.75184 0.89626 0.76532 0.0
N737 N 0.74944 0.89461 0.71245 0.0
C738 C 0.76606 0.89732 0.75013 0.0
C739 C 0.73641 0.8942 0.75361 0.0
C740 C 0.76458 0.89652 0.72344 0.0
C741 C 0.73545 0.89344 0.72686 0.0
C742 C 0.79332 0.91338 0.83061 0.0
C743 C 0.79968 0.92631 0.81577 0.0
C744 C 0.80415 0.90268 0.84334 0.0
C745 C 0.81681 0.92827 0.81382 0.0
C746 C 0.8212 0.90505 0.8409 0.0
N747 N 0.82712 0.91768 0.82631 0.0
C748 C 0.74955 0.95093 0.81063 0.0
C749 C 0.76227 0.93993 0.77339 0.0
C750 C 0.74908 0.96668 0.7996 0.0
N751 N 0.75588 0.93791 0.79732 0.0
C752 C 0.76219 0.95548 0.76171 0.0
C753 C 0.75546 0.9691 0.7748 0.0
H754 H 0.7449 0.94911 0.82988 0.0
H755 H 0.76762 0.92954 0.76345 0.0
C756 C 0.78422 0.85973 0.79994 0.0
N757 N 0.78751 0.87621 0.80004 0.0
C758 C 0.79517 0.84864 0.78837 0.0
C759 C 0.8129 0.87166 0.77752 0.0
C760 C 0.80143 0.88232 0.78884 0.0
C761 C 0.80984 0.85451 0.777 0.0
H762 H 0.7729 0.85521 0.80851 0.0
H763 H 0.80359 0.89549 0.78833 0.0
O764 O 0.73878 0.91255 0.84063 0.0
O765 O 0.75688 0.87822 0.84067 0.0
O766 O 0.75304 0.89672 0.79152 0.0
O767 O 0.77658 0.91133 0.83277 0.0
H768 H 0.71912 0.92687 0.87444 0.0
H769 H 0.72622 0.91696 0.79405 0.0
H770 H 0.6931 0.94169 0.86372 0.0
H771 H 0.7001 0.93185 0.78471 0.0
H772 H 0.78479 0.85189 0.90439 0.0
H773 H 0.73102 0.8695 0.86868 0.0
H774 H 0.78409 0.86709 0.86296 0.0
H775 H 0.73263 0.85416 0.90991 0.0
H776 H 0.68042 0.87544 0.8355 0.0
H777 H 0.70987 0.84269 0.78821 0.0
H778 H 0.78911 0.90611 0.93799 0.0
H779 H 0.73577 0.90223 0.94142 0.0
H780 H 0.77807 0.89899 0.75883 0.0
H781 H 0.72528 0.89316 0.76503 0.0
H782 H 0.77548 0.89743 0.71147 0.0
H783 H 0.72359 0.89189 0.71755 0.0
H784 H 0.79148 0.93475 0.80589 0.0
H785 H 0.79945 0.89249 0.85464 0.0
H786 H 0.8219 0.93821 0.80237 0.0
H787 H 0.82972 0.8968 0.85052 0.0
H788 H 0.74404 0.9769 0.81053 0.0
H789 H 0.76719 0.95678 0.74253 0.0
H790 H 0.79195 0.83565 0.78797 0.0
H791 H 0.82405 0.87686 0.76933 0.0
Li792 Li 0.10017 0.76089 0.85673 0.0
Li793 Li 0.11049 0.74121 0.82423 0.0
Li794 Li 0.11098 0.7719 0.81541 0.0
Li795 Li 0.08535 0.75618 0.81493 0.0
C796 C 0.13657 0.76402 0.85486 0.0
N797 N 0.16495 0.77415 0.88001 0.0
C798 C 0.14785 0.75234 0.86414 0.0
C799 C 0.1399 0.78087 0.85805 0.0
C800 C 0.16207 0.7577 0.87692 0.0
C801 C 0.15427 0.78574 0.87088 0.0
C802 C 0.08737 0.72433 0.85064 0.0
C803 C 0.08342 0.69564 0.83949 0.0
N804 N 0.08428 0.69152 0.86477 0.0
C805 C 0.0881 0.71984 0.87653 0.0
C806 C 0.08489 0.71216 0.83197 0.0
C807 C 0.08655 0.70318 0.88328 0.0
C808 C 0.08552 0.77141 0.90406 0.0
N809 N 0.09863 0.76368 0.89294 0.0
C810 C 0.11031 0.75769 0.93401 0.0
C811 C 0.11085 0.75681 0.90732 0.0
C812 C 0.09688 0.76545 0.9462 0.0
C813 C 0.0844 0.77248 0.93083 0.0
H814 H 0.07582 0.77653 0.89215 0.0
H815 H 0.12089 0.75034 0.89807 0.0
C816 C 0.12964 0.71672 0.79847 0.0
N817 N 0.12314 0.72144 0.8214 0.0
C818 C 0.14054 0.70329 0.79721 0.0
C819 C 0.13731 0.69956 0.84296 0.0
C820 C 0.12667 0.71311 0.84337 0.0
C821 C 0.14475 0.69469 0.81978 0.0
H822 H 0.12682 0.72374 0.78135 0.0
H823 H 0.12166 0.71736 0.86144 0.0
C824 C 0.08816 0.79383 0.83985 0.0
N825 N 0.08481 0.82673 0.85344 0.0
C826 C 0.07663 0.80386 0.82729 0.0
C827 C 0.09778 0.80048 0.85961 0.0
C828 C 0.07518 0.82048 0.83435 0.0
C829 C 0.09596 0.81714 0.86613 0.0
C830 C 0.09806 0.75233 0.76845 0.0
C831 C 0.09706 0.76645 0.75304 0.0
C832 C 0.09168 0.73733 0.75952 0.0
C833 C 0.08945 0.76538 0.72903 0.0
C834 C 0.08413 0.73677 0.7354 0.0
N835 N 0.08317 0.75069 0.7208 0.0
C836 C 0.13946 0.7836 0.7923 0.0
C837 C 0.11858 0.80414 0.79431 0.0
C838 C 0.15016 0.79453 0.77992 0.0
N839 N 0.12404 0.78855 0.7993 0.0
C840 C 0.12891 0.81553 0.78201 0.0
C841 C 0.14492 0.81074 0.77456 0.0
H842 H 0.14342 0.77109 0.79638 0.0
H843 H 0.10618 0.80772 0.79954 0.0
C844 C 0.05386 0.74216 0.80323 0.0
N845 N 0.06418 0.75513 0.79878 0.0
C846 C 0.03834 0.74153 0.79144 0.0
C847 C 0.04435 0.76763 0.77081 0.0
C848 C 0.05974 0.76773 0.78295 0.0
C849 C 0.03338 0.75443 0.77505 0.0
H850 H 0.05759 0.73238 0.81612 0.0
H851 H 0.06821 0.77787 0.77969 0.0
O852 O 0.12263 0.75893 0.84213 0.0
O853 O 0.08903 0.74056 0.84366 0.0
O854 O 0.08969 0.77752 0.83315 0.0
O855 O 0.10521 0.75321 0.79219 0.0
H856 H 0.14562 0.73926 0.86165 0.0
H857 H 0.13166 0.79014 0.85038 0.0
H858 H 0.17082 0.74877 0.88433 0.0
H859 H 0.15697 0.79875 0.87347 0.0
H860 H 0.0816 0.68608 0.82523 0.0
H861 H 0.08988 0.72911 0.89125 0.0
H862 H 0.08426 0.71543 0.81187 0.0
H863 H 0.08716 0.69952 0.90323 0.0
H864 H 0.12033 0.75228 0.94495 0.0
H865 H 0.07371 0.77839 0.93935 0.0
H866 H 0.14612 0.70014 0.77895 0.0
H867 H 0.13994 0.69318 0.86079 0.0
H868 H 0.06891 0.79891 0.81218 0.0
H869 H 0.10643 0.79284 0.87003 0.0
H870 H 0.06637 0.8284 0.82467 0.0
H871 H 0.10337 0.82244 0.88135 0.0
H872 H 0.10195 0.77816 0.75968 0.0
H873 H 0.09249 0.72627 0.77111 0.0
H874 H 0.08848 0.77623 0.71696 0.0
H875 H 0.07905 0.72527 0.7283 0.0
H876 H 0.16246 0.79036 0.7748 0.0
H877 H 0.12431 0.82783 0.77792 0.0
H878 H 0.03018 0.73123 0.79552 0.0
H879 H 0.04114 0.77772 0.75808 0.0
Li880 Li 0.24238 0.09909 0.85426 0.0
Li881 Li 0.26136 0.11006 0.82172 0.0
Li882 Li 0.23043 0.11046 0.81585 0.0
Li883 Li 0.24557 0.08442 0.81228 0.0
C884 C 0.24459 0.13101 0.86385 0.0
N885 N 0.24559 0.14793 0.90993 0.0
C886 C 0.25968 0.13665 0.87361 0.0
C887 C 0.22999 0.13411 0.87742 0.0
C888 C 0.25993 0.14516 0.89695 0.0
C889 C 0.23077 0.14263 0.90072 0.0
C890 C 0.27761 0.08062 0.83885 0.0
C891 C 0.29943 0.06734 0.81487 0.0
N892 N 0.30803 0.06501 0.83702 0.0
C893 C 0.28659 0.07792 0.86141 0.0
C894 C 0.28403 0.07515 0.81542 0.0
C895 C 0.30197 0.07008 0.86007 0.0
C896 C 0.22564 0.09251 0.90174 0.0
N897 N 0.24022 0.09677 0.89052 0.0
C898 C 0.25302 0.10009 0.93152 0.0
C899 C 0.25381 0.10038 0.9048 0.0
C900 C 0.23806 0.09609 0.94378 0.0
C901 C 0.22427 0.09209 0.92851 0.0
H902 H 0.21501 0.08969 0.88994 0.0
H903 H 0.2652 0.10385 0.89537 0.0
C904 C 0.27791 0.13778 0.80431 0.0
N905 N 0.28067 0.12312 0.81633 0.0
C906 C 0.29068 0.14926 0.80152 0.0
C907 C 0.3091 0.13013 0.82284 0.0
C908 C 0.29592 0.11906 0.82539 0.0
C909 C 0.30652 0.14561 0.81115 0.0
H910 H 0.2656 0.14074 0.7976 0.0
H911 H 0.29784 0.10747 0.83518 0.0
C912 C 0.20841 0.08796 0.82799 0.0
N913 N 0.17484 0.08679 0.81812 0.0
C914 C 0.20218 0.077 0.80963 0.0
C915 C 0.19754 0.0982 0.84153 0.0
C916 C 0.18517 0.07662 0.80488 0.0
C917 C 0.18062 0.09747 0.83619 0.0
C918 C 0.2539 0.10289 0.76627 0.0
C919 C 0.24301 0.10313 0.74542 0.0
C920 C 0.27091 0.10158 0.76178 0.0
C921 C 0.24925 0.10154 0.72053 0.0
C922 C 0.27668 0.10004 0.73661 0.0
N923 N 0.26582 0.10002 0.71668 0.0
C924 C 0.21007 0.13869 0.81077 0.0
C925 C 0.20393 0.11709 0.78151 0.0
C926 C 0.19795 0.14874 0.79972 0.0
N927 N 0.21286 0.12322 0.80148 0.0
C928 C 0.19186 0.12679 0.76964 0.0
C929 C 0.18885 0.14288 0.77865 0.0
H930 H 0.21748 0.14337 0.82643 0.0
H931 H 0.20632 0.10471 0.77459 0.0
C932 C 0.2519 0.05009 0.80942 0.0
N933 N 0.24601 0.06325 0.79596 0.0
C934 C 0.25227 0.03436 0.79832 0.0
C935 C 0.23999 0.04588 0.75999 0.0
C936 C 0.23999 0.0614 0.77176 0.0
C937 C 0.24624 0.03211 0.77328 0.0
H938 H 0.25626 0.05181 0.82887 0.0
H939 H 0.23491 0.07192 0.76174 0.0
O940 O 0.24414 0.1223 0.84132 0.0
O941 O 0.26253 0.08833 0.83987 0.0
O942 O 0.22505 0.08868 0.83265 0.0
O943 O 0.24798 0.10469 0.79078 0.0
H944 H 0.27112 0.13432 0.86347 0.0
H945 H 0.21821 0.12983 0.87018 0.0
H946 H 0.27154 0.14951 0.90481 0.0
H947 H 0.21958 0.145 0.91151 0.0
H948 H 0.30452 0.06306 0.79685 0.0
H949 H 0.28176 0.08183 0.87978 0.0
H950 H 0.27709 0.07666 0.79789 0.0
H951 H 0.30907 0.06799 0.87737 0.0
H952 H 0.26404 0.10299 0.94244 0.0
H953 H 0.21246 0.08907 0.93711 0.0
H954 H 0.28798 0.1611 0.79278 0.0
H955 H 0.32112 0.12668 0.83028 0.0
H956 H 0.21038 0.06891 0.79909 0.0
H957 H 0.20214 0.10677 0.85578 0.0
H958 H 0.18019 0.06825 0.79063 0.0
H959 H 0.17209 0.10543 0.84638 0.0
H960 H 0.22985 0.10439 0.74836 0.0
H961 H 0.27963 0.1019 0.77745 0.0
H962 H 0.24092 0.10155 0.70428 0.0
H963 H 0.28981 0.09894 0.73293 0.0
H964 H 0.19611 0.16115 0.80703 0.0
H965 H 0.18498 0.1218 0.75356 0.0
H966 H 0.25694 0.02403 0.8094 0.0
H967 H 0.23525 0.04469 0.74063 0.0
Li968 Li 0.89017 0.26056 0.82133 0.0
Li969 Li 0.90207 0.24122 0.85185 0.0
Li970 Li 0.9157 0.24505 0.80982 0.0
Li971 Li 0.88956 0.22954 0.81377 0.0
C972 C 0.91991 0.27649 0.8324 0.0
N973 N 0.93527 0.30616 0.8212 0.0
C974 C 0.92712 0.28583 0.852 0.0
C975 C 0.92054 0.28221 0.80712 0.0
C976 C 0.93482 0.30081 0.84595 0.0
C977 C 0.92837 0.29723 0.80183 0.0
C978 C 0.87061 0.24068 0.86344 0.0
C979 C 0.8595 0.22265 0.89602 0.0
N980 N 0.85551 0.2361 0.91045 0.0
C981 C 0.86629 0.25434 0.87847 0.0
C982 C 0.8671 0.22471 0.87215 0.0
C983 C 0.85869 0.25176 0.90223 0.0
C984 C 0.86534 0.2806 0.80014 0.0
N985 N 0.87762 0.28023 0.81794 0.0
C986 C 0.86965 0.3068 0.83382 0.0
C987 C 0.88001 0.29297 0.83456 0.0
C988 C 0.85669 0.30744 0.81586 0.0
C989 C 0.85475 0.2942 0.79862 0.0
H990 H 0.86349 0.27009 0.7876 0.0
H991 H 0.88964 0.29219 0.84891 0.0
C992 C 0.90775 0.22394 0.89931 0.0
N993 N 0.90538 0.23888 0.88789 0.0
C994 C 0.90923 0.22285 0.926 0.0
C995 C 0.90609 0.25255 0.92854 0.0
C996 C 0.90466 0.25305 0.90187 0.0
C997 C 0.90834 0.23729 0.94099 0.0
H998 H 0.90838 0.21287 0.88778 0.0
H999 H 0.90261 0.26474 0.89227 0.0
C1000 C 0.89433 0.24884 0.76358 0.0
N1001 N 0.89245 0.25081 0.71068 0.0
C1002 C 0.89515 0.23449 0.74867 0.0
C1003 C 0.89249 0.2642 0.75156 0.0
C1004 C 0.8942 0.23574 0.72196 0.0
C1005 C 0.89159 0.26494 0.72481 0.0
C1006 C 0.91463 0.20777 0.82487 0.0
C1007 C 0.92657 0.20289 0.80699 0.0
C1008 C 0.9058 0.19577 0.8385 0.0
C1009 C 0.92943 0.18604 0.80296 0.0
C1010 C 0.90902 0.17904 0.8339 0.0
N1011 N 0.92067 0.17457 0.81638 0.0
C1012 C 0.95015 0.24955 0.80753 0.0
C1013 C 0.93803 0.24404 0.76703 0.0
C1014 C 0.96589 0.25026 0.79646 0.0
N1015 N 0.93662 0.24644 0.79277 0.0
C1016 C 0.95349 0.24461 0.75518 0.0
C1017 C 0.96772 0.24763 0.76994 0.0
H1018 H 0.9487 0.25131 0.828 0.0
H1019 H 0.92723 0.24151 0.75563 0.0
C1020 C 0.85914 0.21571 0.80099 0.0
N1021 N 0.87566 0.21268 0.79944 0.0
C1022 C 0.8478 0.20482 0.78988 0.0
C1023 C 0.87062 0.18766 0.77613 0.0
C1024 C 0.88153 0.19901 0.78718 0.0
C1025 C 0.85352 0.19061 0.77721 0.0
H1026 H 0.85479 0.22676 0.81054 0.0
H1027 H 0.89467 0.19708 0.78527 0.0
O1028 O 0.91227 0.26183 0.8381 0.0
O1029 O 0.8785 0.24293 0.84051 0.0
O1030 O 0.895 0.24786 0.7898 0.0
O1031 O 0.91179 0.22421 0.82921 0.0
H1032 H 0.92676 0.28156 0.87169 0.0
H1033 H 0.91515 0.27508 0.79172 0.0
H1034 H 0.94043 0.30819 0.86094 0.0
H1035 H 0.92896 0.30179 0.78233 0.0
H1036 H 0.85679 0.21036 0.90309 0.0
H1037 H 0.86896 0.26677 0.87199 0.0
H1038 H 0.87031 0.21404 0.86065 0.0
H1039 H 0.85539 0.2622 0.91417 0.0
H1040 H 0.87161 0.31676 0.84739 0.0
H1041 H 0.84474 0.29405 0.7848 0.0
H1042 H 0.91113 0.21086 0.93478 0.0
H1043 H 0.90505 0.26396 0.93931 0.0
H1044 H 0.89685 0.22255 0.75756 0.0
H1045 H 0.89176 0.27546 0.76273 0.0
H1046 H 0.89491 0.22473 0.7102 0.0
H1047 H 0.89018 0.27675 0.71527 0.0
H1048 H 0.93356 0.212 0.79632 0.0
H1049 H 0.89639 0.19931 0.85217 0.0
H1050 H 0.93862 0.18208 0.78917 0.0
H1051 H 0.90221 0.16962 0.84419 0.0
H1052 H 0.97653 0.25243 0.80863 0.0
H1053 H 0.95429 0.24271 0.73464 0.0
H1054 H 0.83469 0.20748 0.79117 0.0
H1055 H 0.87551 0.17697 0.76614 0.0
Li1056 Li 0.76932 0.11156 0.68534 0.0
Li1057 Li 0.75412 0.08539 0.6856 0.0
Li1058 Li 0.75862 0.10017 0.64412 0.0
Li1059 Li 0.73856 0.11025 0.67581 0.0
C1060 C 0.79179 0.08992 0.66054 0.0
N1061 N 0.82469 0.08928 0.64612 0.0
C1062 C 0.80206 0.07702 0.66866 0.0
C1063 C 0.79825 0.10242 0.64498 0.0
C1064 C 0.81866 0.07693 0.6612 0.0
C1065 C 0.8149 0.1019 0.6379 0.0
C1066 C 0.75042 0.09829 0.73209 0.0
C1067 C 0.7357 0.08583 0.76741 0.0
N1068 N 0.75027 0.08381 0.78012 0.0
C1069 C 0.76522 0.09622 0.74558 0.0
C1070 C 0.73551 0.09318 0.74314 0.0
C1071 C 0.76489 0.08883 0.76981 0.0
C1072 C 0.78027 0.13992 0.71004 0.0
N1073 N 0.78561 0.1249 0.70183 0.0
C1074 C 0.81275 0.13033 0.71807 0.0
C1075 C 0.80145 0.11986 0.70588 0.0
C1076 C 0.80763 0.14603 0.72664 0.0
C1077 C 0.79107 0.1507 0.72259 0.0
H1078 H 0.76753 0.1435 0.70687 0.0
H1079 H 0.80537 0.10772 0.6998 0.0
C1080 C 0.7403 0.05422 0.70036 0.0
N1081 N 0.75372 0.06429 0.70209 0.0
C1082 C 0.74025 0.03883 0.71257 0.0
C1083 C 0.76793 0.04436 0.72789 0.0
C1084 C 0.7674 0.05967 0.71549 0.0
C1085 C 0.75423 0.03371 0.7265 0.0
H1086 H 0.72966 0.05802 0.68935 0.0
H1087 H 0.77789 0.06793 0.71662 0.0
C1088 C 0.75923 0.13571 0.64191 0.0
N1089 N 0.76505 0.16205 0.60922 0.0
C1090 C 0.74646 0.14204 0.62672 0.0
C1091 C 0.77488 0.14308 0.6409 0.0
C1092 C 0.74967 0.15526 0.61018 0.0
C1093 C 0.7776 0.1563 0.62415 0.0
C1094 C 0.72215 0.08525 0.6522 0.0
C1095 C 0.71658 0.08286 0.62707 0.0
C1096 C 0.71095 0.08413 0.67257 0.0
C1097 C 0.69984 0.07957 0.62272 0.0
C1098 C 0.69431 0.08083 0.66744 0.0
N1099 N 0.68914 0.07865 0.64282 0.0
C1100 C 0.7743 0.09015 0.59654 0.0
C1101 C 0.74973 0.10593 0.59333 0.0
C1102 C 0.77583 0.08976 0.5698 0.0
N1103 N 0.76159 0.09849 0.60774 0.0
C1104 C 0.75063 0.10567 0.56661 0.0
C1105 C 0.76393 0.09769 0.55439 0.0
H1106 H 0.78326 0.08372 0.60824 0.0
H1107 H 0.73937 0.11185 0.60264 0.0
C1108 C 0.71519 0.13057 0.70118 0.0
N1109 N 0.71852 0.12254 0.67885 0.0
C1110 C 0.70162 0.14125 0.70285 0.0
C1111 C 0.69491 0.13473 0.65878 0.0
C1112 C 0.70862 0.12427 0.65794 0.0
C1113 C 0.69144 0.14369 0.68127 0.0
H1114 H 0.72341 0.12913 0.71741 0.0
H1115 H 0.71165 0.11793 0.64029 0.0
O1116 O 0.77558 0.09035 0.66813 0.0
O1117 O 0.75054 0.1052 0.70814 0.0
O1118 O 0.75627 0.12284 0.65843 0.0
O1119 O 0.73846 0.08872 0.65678 0.0
H1120 H 0.79727 0.06718 0.68062 0.0
H1121 H 0.7904 0.11226 0.63811 0.0
H1122 H 0.82675 0.06705 0.6674 0.0
H1123 H 0.82003 0.11149 0.62581 0.0
H1124 H 0.72427 0.08175 0.77616 0.0
H1125 H 0.77687 0.10007 0.73728 0.0
H1126 H 0.72393 0.09488 0.73311 0.0
H1127 H 0.77627 0.08703 0.78038 0.0
H1128 H 0.82539 0.12618 0.72048 0.0
H1129 H 0.78639 0.16248 0.72931 0.0
H1130 H 0.72952 0.0309 0.71071 0.0
H1131 H 0.77888 0.04098 0.73865 0.0
H1132 H 0.7342 0.13678 0.62755 0.0
H1133 H 0.78483 0.13876 0.65302 0.0
H1134 H 0.73991 0.16016 0.59816 0.0
H1135 H 0.78967 0.16204 0.6231 0.0
H1136 H 0.72509 0.08348 0.61108 0.0
H1137 H 0.71505 0.08595 0.69211 0.0
H1138 H 0.69536 0.07773 0.60336 0.0
H1139 H 0.6855 0.08004 0.68303 0.0
H1140 H 0.78631 0.08344 0.56137 0.0
H1141 H 0.74082 0.11147 0.55568 0.0
H1142 H 0.69955 0.14804 0.72048 0.0
H1143 H 0.68729 0.13602 0.6418 0.0
Li1144 Li 0.88964 0.77022 0.68728 0.0
Li1145 Li 0.91599 0.75489 0.68866 0.0
Li1146 Li 0.90083 0.75882 0.64726 0.0
Li1147 Li 0.89035 0.73923 0.67913 0.0
C1148 C 0.91357 0.79248 0.66987 0.0
N1149 N 0.91854 0.82631 0.67022 0.0
C1150 C 0.92647 0.79931 0.68426 0.0
C1151 C 0.90325 0.80285 0.65556 0.0
C1152 C 0.92877 0.81644 0.68421 0.0
C1153 C 0.90595 0.81992 0.65601 0.0
C1154 C 0.89859 0.7505 0.73643 0.0
C1155 C 0.90268 0.73388 0.77437 0.0
N1156 N 0.90326 0.74787 0.78883 0.0
C1157 C 0.899 0.7647 0.75172 0.0
C1158 C 0.90024 0.73494 0.74787 0.0
C1159 C 0.90147 0.76312 0.77815 0.0
C1160 C 0.86013 0.78268 0.70636 0.0
N1161 N 0.87628 0.78687 0.70309 0.0
C1162 C 0.8717 0.81303 0.72337 0.0
C1163 C 0.88226 0.80162 0.71163 0.0
C1164 C 0.855 0.80897 0.727 0.0
C1165 C 0.84922 0.79356 0.71849 0.0
H1166 H 0.85575 0.77078 0.6997 0.0
H1167 H 0.89524 0.80448 0.70984 0.0
C1168 C 0.9499 0.74574 0.69326 0.0
N1169 N 0.93735 0.75424 0.7046 0.0
C1170 C 0.96559 0.74534 0.70452 0.0
C1171 C 0.95533 0.76289 0.73851 0.0
C1172 C 0.93985 0.76288 0.72665 0.0
C1173 C 0.96847 0.75401 0.72747 0.0
H1174 H 0.94782 0.73941 0.67528 0.0
H1175 H 0.92991 0.77007 0.73481 0.0
C1176 C 0.86777 0.75989 0.64064 0.0
N1177 N 0.84765 0.76604 0.59886 0.0
C1178 C 0.8623 0.74683 0.62526 0.0
C1179 C 0.86277 0.77605 0.63508 0.0
C1180 C 0.85221 0.7502 0.60412 0.0
C1181 C 0.85265 0.77891 0.6138 0.0
C1182 C 0.91831 0.72287 0.66203 0.0
C1183 C 0.92167 0.7139 0.6397 0.0
C1184 C 0.92151 0.71579 0.68598 0.0
C1185 C 0.92812 0.69791 0.64174 0.0
C1186 C 0.92797 0.69978 0.68723 0.0
N1187 N 0.9311 0.69124 0.66526 0.0
C1188 C 0.90732 0.77554 0.59935 0.0
C1189 C 0.89863 0.74759 0.59701 0.0
C1190 C 0.90768 0.77664 0.57256 0.0
N1191 N 0.90262 0.76122 0.61095 0.0
C1192 C 0.89883 0.74812 0.57026 0.0
C1193 C 0.90324 0.76284 0.55763 0.0
H1194 H 0.91074 0.78613 0.61078 0.0
H1195 H 0.89512 0.73631 0.60675 0.0
C1196 C 0.86823 0.71724 0.70367 0.0
N1197 N 0.87812 0.71933 0.68282 0.0
C1198 C 0.85757 0.70365 0.70511 0.0
C1199 C 0.86774 0.69451 0.66383 0.0
C1200 C 0.87819 0.70825 0.66321 0.0
C1201 C 0.857 0.69224 0.68476 0.0
H1202 H 0.86818 0.72645 0.71873 0.0
H1203 H 0.88592 0.7104 0.64661 0.0
O1204 O 0.9111 0.77573 0.66983 0.0
O1205 O 0.89594 0.75179 0.71056 0.0
O1206 O 0.87789 0.75687 0.66116 0.0
O1207 O 0.91173 0.73843 0.66041 0.0
H1208 H 0.93463 0.79147 0.69533 0.0
H1209 H 0.89323 0.79779 0.64432 0.0
H1210 H 0.93869 0.8219 0.6953 0.0
H1211 H 0.89803 0.82809 0.64509 0.0
H1212 H 0.90403 0.72192 0.78345 0.0
H1213 H 0.89765 0.77683 0.74325 0.0
H1214 H 0.89951 0.72377 0.73647 0.0
H1215 H 0.90197 0.77403 0.79017 0.0
H1216 H 0.87661 0.82473 0.73008 0.0
H1217 H 0.83639 0.79004 0.721 0.0
H1218 H 0.97545 0.73862 0.69506 0.0
H1219 H 0.95697 0.76974 0.7562 0.0
H1220 H 0.86595 0.73424 0.62942 0.0
H1221 H 0.86659 0.78625 0.64712 0.0
H1222 H 0.84801 0.74023 0.5919 0.0
H1223 H 0.84875 0.79137 0.60919 0.0
H1224 H 0.9193 0.7192 0.62099 0.0
H1225 H 0.91915 0.72265 0.70338 0.0
H1226 H 0.93075 0.6908 0.62462 0.0
H1227 H 0.93052 0.69416 0.70566 0.0
H1228 H 0.9111 0.78826 0.56367 0.0
H1229 H 0.89565 0.73706 0.5596 0.0
H1230 H 0.84934 0.70253 0.72141 0.0
H1231 H 0.86782 0.68595 0.64783 0.0
Li1232 Li 0.24569 0.91536 0.68541 0.0
Li1233 Li 0.23014 0.88953 0.68502 0.0
Li1234 Li 0.26099 0.89027 0.67576 0.0
Li1235 Li 0.24102 0.90075 0.6439 0.0
C1236 C 0.24971 0.9027 0.73171 0.0
N1237 N 0.25115 0.9179 0.77914 0.0
C1238 C 0.23524 0.90529 0.74581 0.0
C1239 C 0.26494 0.90763 0.74184 0.0
C1240 C 0.23622 0.91305 0.76974 0.0
C1241 C 0.2654 0.91535 0.76582 0.0
C1242 C 0.20793 0.91103 0.66029 0.0
C1243 C 0.18516 0.89912 0.63674 0.0
N1244 N 0.17501 0.91117 0.64591 0.0
C1245 C 0.1973 0.92336 0.66934 0.0
C1246 C 0.20183 0.89886 0.64378 0.0
C1247 C 0.1807 0.9232 0.6619 0.0
C1248 C 0.2601 0.94628 0.70013 0.0
N1249 N 0.24645 0.93651 0.7018 0.0
C1250 C 0.23253 0.9569 0.72711 0.0
C1251 C 0.23281 0.9415 0.71496 0.0
C1252 C 0.24646 0.96726 0.72573 0.0
C1253 C 0.2604 0.96174 0.71211 0.0
H1254 H 0.27071 0.9422 0.68933 0.0
H1255 H 0.22216 0.93345 0.71611 0.0
C1256 C 0.21762 0.86042 0.7056 0.0
N1257 N 0.21348 0.87643 0.70094 0.0
C1258 C 0.20631 0.84974 0.7172 0.0
C1259 C 0.18675 0.87231 0.71953 0.0
C1260 C 0.19847 0.88258 0.70787 0.0
C1261 C 0.19058 0.85562 0.72424 0.0
H1262 H 0.22975 0.85596 0.70024 0.0
H1263 H 0.19559 0.89544 0.7045 0.0
C1264 C 0.27748 0.91541 0.65116 0.0
N1265 N 0.31013 0.92238 0.63973 0.0
C1266 C 0.28235 0.91787 0.6257 0.0
C1267 C 0.28919 0.9166 0.67081 0.0
C1268 C 0.29892 0.92136 0.62031 0.0
C1269 C 0.30564 0.92011 0.66464 0.0
C1270 C 0.24046 0.86495 0.64198 0.0
C1271 C 0.2537 0.85795 0.62855 0.0
C1272 C 0.22468 0.85801 0.63958 0.0
C1273 C 0.25086 0.84445 0.61239 0.0
C1274 C 0.22235 0.84449 0.62327 0.0
N1275 N 0.23537 0.83806 0.61009 0.0
C1276 C 0.2831 0.86844 0.70045 0.0
C1277 C 0.29144 0.87658 0.65873 0.0
C1278 C 0.29637 0.85739 0.70211 0.0
N1279 N 0.28079 0.87759 0.67886 0.0
C1280 C 0.30496 0.86588 0.65968 0.0
C1281 C 0.30739 0.85578 0.68134 0.0
H1282 H 0.27428 0.86929 0.71601 0.0
H1283 H 0.28914 0.88364 0.64149 0.0
C1284 C 0.22622 0.91187 0.59638 0.0
N1285 N 0.23815 0.90245 0.60761 0.0
C1286 C 0.22472 0.9123 0.56963 0.0
C1287 C 0.24823 0.89395 0.56657 0.0
C1288 C 0.24923 0.89384 0.59326 0.0
C1289 C 0.23574 0.90312 0.55435 0.0
H1290 H 0.21788 0.91908 0.60811 0.0
H1291 H 0.25906 0.88709 0.60261 0.0
O1292 O 0.24894 0.89547 0.70802 0.0
O1293 O 0.22415 0.91082 0.66782 0.0
O1294 O 0.26134 0.91175 0.65672 0.0
O1295 O 0.24307 0.87808 0.65816 0.0
H1296 H 0.22335 0.90156 0.73822 0.0
H1297 H 0.27627 0.90551 0.73131 0.0
H1298 H 0.2251 0.91526 0.78078 0.0
H1299 H 0.27709 0.91931 0.77386 0.0
H1300 H 0.1803 0.88977 0.62393 0.0
H1301 H 0.20181 0.93295 0.68203 0.0
H1302 H 0.20995 0.88949 0.63613 0.0
H1303 H 0.17233 0.93264 0.66883 0.0
H1304 H 0.22159 0.96059 0.73766 0.0
H1305 H 0.27132 0.96943 0.71029 0.0
H1306 H 0.20995 0.83707 0.72092 0.0
H1307 H 0.17477 0.87736 0.72456 0.0
H1308 H 0.27343 0.91715 0.61027 0.0
H1309 H 0.28564 0.91468 0.69058 0.0
H1310 H 0.30287 0.92327 0.60069 0.0
H1311 H 0.31485 0.92098 0.67966 0.0
H1312 H 0.26602 0.86295 0.63038 0.0
H1313 H 0.21433 0.86287 0.65032 0.0
H1314 H 0.26098 0.83903 0.60173 0.0
H1315 H 0.21018 0.83906 0.62118 0.0
H1316 H 0.29755 0.84972 0.71905 0.0
H1317 H 0.31322 0.8653 0.64335 0.0
H1318 H 0.21493 0.91959 0.56105 0.0
H1319 H 0.25734 0.88712 0.55562 0.0
Li1320 Li 0.08584 0.24327 0.68643 0.0
Li1321 Li 0.11059 0.22789 0.68662 0.0
Li1322 Li 0.11132 0.25736 0.67809 0.0
Li1323 Li 0.1007 0.23761 0.64469 0.0
C1324 C 0.0959 0.24818 0.73207 0.0
N1325 N 0.07642 0.25197 0.77527 0.0
C1326 C 0.09095 0.23433 0.7462 0.0
C1327 C 0.09102 0.26396 0.74 0.0
C1328 C 0.08109 0.23651 0.76796 0.0
C1329 C 0.08116 0.26562 0.76187 0.0
C1330 C 0.08999 0.20478 0.66797 0.0
C1331 C 0.09298 0.17914 0.64468 0.0
N1332 N 0.09043 0.17058 0.66681 0.0
C1333 C 0.08733 0.19571 0.69046 0.0
C1334 C 0.0928 0.19643 0.64486 0.0
C1335 C 0.08763 0.17844 0.68948 0.0
C1336 C 0.05682 0.26001 0.70474 0.0
N1337 N 0.06412 0.24504 0.70099 0.0
C1338 C 0.04069 0.23118 0.71889 0.0
C1339 C 0.05635 0.23077 0.70767 0.0
C1340 C 0.03285 0.24643 0.72317 0.0
C1341 C 0.04113 0.261 0.71596 0.0
H1342 H 0.06319 0.27118 0.69916 0.0
H1343 H 0.06233 0.21905 0.70441 0.0
C1344 C 0.12936 0.2142 0.72677 0.0
N1345 N 0.12344 0.2108 0.70292 0.0
C1346 C 0.13952 0.2029 0.73946 0.0
C1347 C 0.13745 0.18472 0.70281 0.0
C1348 C 0.12751 0.19649 0.6907 0.0
C1349 C 0.14368 0.18785 0.72755 0.0
H1350 H 0.12649 0.22591 0.73575 0.0
H1351 H 0.12324 0.19426 0.67137 0.0
C1352 C 0.09099 0.27464 0.6489 0.0
N1353 N 0.09307 0.30693 0.6317 0.0
C1354 C 0.0938 0.27793 0.62291 0.0
C1355 C 0.08913 0.28779 0.6661 0.0
C1356 C 0.09483 0.29433 0.6146 0.0
C1357 C 0.09027 0.30402 0.65704 0.0
C1358 C 0.13855 0.23348 0.66155 0.0
C1359 C 0.14912 0.23972 0.68046 0.0
C1360 C 0.14382 0.22043 0.64595 0.0
C1361 C 0.16481 0.23275 0.68349 0.0
C1362 C 0.15961 0.21381 0.64959 0.0
N1363 N 0.16969 0.22004 0.66813 0.0
C1364 C 0.1285 0.2841 0.70298 0.0
C1365 C 0.1315 0.28192 0.65785 0.0
C1366 C 0.13955 0.29743 0.7036 0.0
N1367 N 0.12474 0.27668 0.6803 0.0
C1368 C 0.14251 0.29518 0.65755 0.0
C1369 C 0.14688 0.30299 0.68068 0.0
H1370 H 0.12334 0.27939 0.72065 0.0
H1371 H 0.12853 0.27556 0.64017 0.0
C1372 C 0.08435 0.23208 0.59713 0.0
N1373 N 0.09925 0.23445 0.60867 0.0
C1374 C 0.08326 0.23133 0.57035 0.0
C1375 C 0.11289 0.23519 0.56803 0.0
C1376 C 0.11338 0.23595 0.59476 0.0
C1377 C 0.09765 0.23311 0.5554 0.0
H1378 H 0.07328 0.23118 0.60872 0.0
H1379 H 0.12501 0.23816 0.60442 0.0
O1380 O 0.10515 0.24624 0.71027 0.0
O1381 O 0.08959 0.22172 0.66841 0.0
O1382 O 0.0902 0.25865 0.65747 0.0
O1383 O 0.12297 0.23982 0.65883 0.0
H1384 H 0.09455 0.22202 0.74029 0.0
H1385 H 0.09456 0.2748 0.72916 0.0
H1386 H 0.07709 0.22589 0.77898 0.0
H1387 H 0.07719 0.27775 0.76812 0.0
H1388 H 0.09519 0.17254 0.62695 0.0
H1389 H 0.08535 0.20191 0.70859 0.0
H1390 H 0.09489 0.20319 0.62727 0.0
H1391 H 0.08571 0.17128 0.70677 0.0
H1392 H 0.03487 0.21964 0.72442 0.0
H1393 H 0.03547 0.27302 0.71864 0.0
H1394 H 0.14437 0.20614 0.75817 0.0
H1395 H 0.14022 0.17331 0.69282 0.0
H1396 H 0.09525 0.26795 0.60929 0.0
H1397 H 0.08717 0.28551 0.68631 0.0
H1398 H 0.09705 0.29704 0.59457 0.0
H1399 H 0.08899 0.3143 0.67019 0.0
H1400 H 0.14516 0.24969 0.69289 0.0
H1401 H 0.13569 0.21529 0.6315 0.0
H1402 H 0.17309 0.2374 0.69813 0.0
H1403 H 0.16382 0.20364 0.63776 0.0
H1404 H 0.14277 0.3029 0.7219 0.0
H1405 H 0.14768 0.29915 0.6394 0.0
H1406 H 0.07123 0.22994 0.56148 0.0
H1407 H 0.12433 0.2364 0.55737 0.0
Li1408 Li 0.72769 0.61075 0.68632 0.0
Li1409 Li 0.75747 0.61011 0.67862 0.0
Li1410 Li 0.73685 0.59912 0.64612 0.0
Li1411 Li 0.74244 0.58374 0.68584 0.0
C1412 C 0.73307 0.63733 0.6587 0.0
N1413 N 0.71791 0.66795 0.66039 0.0
C1414 C 0.74057 0.65044 0.67175 0.0
C1415 C 0.71796 0.63984 0.64624 0.0
C1416 C 0.73269 0.66582 0.67244 0.0
C1417 C 0.71047 0.6554 0.64739 0.0
C1418 C 0.75567 0.6009 0.73058 0.0
C1419 C 0.77887 0.58748 0.75095 0.0
N1420 N 0.77644 0.59688 0.77227 0.0
C1421 C 0.75331 0.61032 0.75279 0.0
C1422 C 0.76848 0.58931 0.72972 0.0
C1423 C 0.76398 0.60815 0.77362 0.0
C1424 C 0.69486 0.62167 0.69878 0.0
N1425 N 0.71132 0.62378 0.70312 0.0
C1426 C 0.70593 0.64626 0.73166 0.0
C1427 C 0.71697 0.63567 0.71932 0.0
C1428 C 0.68885 0.64461 0.72733 0.0
C1429 C 0.68334 0.63202 0.71077 0.0
H1430 H 0.6907 0.61209 0.68584 0.0
H1431 H 0.73013 0.63707 0.72234 0.0
C1432 C 0.78828 0.62222 0.66226 0.0
N1433 N 0.7775 0.62222 0.68227 0.0
C1434 C 0.80235 0.63223 0.66288 0.0
C1435 C 0.79401 0.64202 0.70478 0.0
C1436 C 0.78013 0.63176 0.70338 0.0
C1437 C 0.80524 0.64253 0.68417 0.0
H1438 H 0.78572 0.61471 0.64553 0.0
H1439 H 0.77111 0.63194 0.71868 0.0
C1440 C 0.70931 0.58163 0.65548 0.0
N1441 N 0.68691 0.56565 0.62399 0.0
C1442 C 0.70899 0.56435 0.6544 0.0
C1443 C 0.69812 0.59077 0.64074 0.0
C1444 C 0.6976 0.5565 0.63833 0.0
C1445 C 0.68694 0.58247 0.62487 0.0
C1446 C 0.77053 0.57868 0.65142 0.0
C1447 C 0.7683 0.56754 0.63118 0.0
C1448 C 0.78569 0.57909 0.66435 0.0
C1449 C 0.7811 0.55672 0.62464 0.0
C1450 C 0.7982 0.56809 0.65723 0.0
N1451 N 0.79566 0.55721 0.63771 0.0
C1452 C 0.73493 0.61138 0.59587 0.0
C1453 C 0.7293 0.58267 0.5986 0.0
C1454 C 0.73327 0.61095 0.56922 0.0
N1455 N 0.73298 0.59737 0.60998 0.0
C1456 C 0.72755 0.58166 0.57196 0.0
C1457 C 0.72965 0.59592 0.55687 0.0
H1458 H 0.73815 0.62285 0.60528 0.0
H1459 H 0.72801 0.57164 0.61012 0.0
C1460 C 0.73784 0.56105 0.72595 0.0
N1461 N 0.74343 0.56236 0.70142 0.0
C1462 C 0.73799 0.54578 0.73848 0.0
C1463 C 0.74939 0.5334 0.70014 0.0
C1464 C 0.74904 0.54892 0.68837 0.0
C1465 C 0.74382 0.53167 0.72555 0.0
H1466 H 0.73326 0.5719 0.73579 0.0
H1467 H 0.75294 0.55012 0.66868 0.0
O1468 O 0.74036 0.62206 0.65841 0.0
O1469 O 0.74536 0.60296 0.70996 0.0
O1470 O 0.72041 0.58953 0.67106 0.0
O1471 O 0.75817 0.58954 0.65782 0.0
H1472 H 0.75226 0.64873 0.68148 0.0
H1473 H 0.71205 0.62985 0.63592 0.0
H1474 H 0.7383 0.67605 0.68263 0.0
H1475 H 0.69872 0.65748 0.63799 0.0
H1476 H 0.78883 0.57854 0.7505 0.0
H1477 H 0.74336 0.61924 0.75393 0.0
H1478 H 0.77023 0.58165 0.713 0.0
H1479 H 0.76234 0.61541 0.79088 0.0
H1480 H 0.71074 0.65561 0.74455 0.0
H1481 H 0.6703 0.63039 0.70671 0.0
H1482 H 0.81073 0.6321 0.64667 0.0
H1483 H 0.79554 0.64997 0.72134 0.0
H1484 H 0.71747 0.55707 0.6658 0.0
H1485 H 0.69816 0.60414 0.64137 0.0
H1486 H 0.69726 0.54314 0.63723 0.0
H1487 H 0.67828 0.58939 0.61323 0.0
H1488 H 0.75675 0.5671 0.62081 0.0
H1489 H 0.78789 0.58791 0.67957 0.0
H1490 H 0.77947 0.54795 0.60917 0.0
H1491 H 0.80996 0.56825 0.66714 0.0
H1492 H 0.7353 0.62219 0.55835 0.0
H1493 H 0.72464 0.56984 0.56327 0.0
H1494 H 0.7337 0.54506 0.75814 0.0
H1495 H 0.75367 0.52281 0.68927 0.0
Li1496 Li 0.39037 0.75703 0.67561 0.0
Li1497 Li 0.39049 0.72528 0.68301 0.0
Li1498 Li 0.41584 0.74191 0.6836 0.0
Li1499 Li 0.40247 0.73742 0.64438 0.0
C1500 C 0.40356 0.74855 0.72935 0.0
N1501 N 0.41949 0.75756 0.77415 0.0
C1502 C 0.41053 0.73646 0.74519 0.0
C1503 C 0.40461 0.76521 0.73635 0.0
C1504 C 0.41857 0.74127 0.76773 0.0
C1505 C 0.41272 0.76951 0.75908 0.0
C1506 C 0.37087 0.73652 0.63371 0.0
C1507 C 0.3597 0.71857 0.60102 0.0
N1508 N 0.35578 0.73206 0.58664 0.0
C1509 C 0.36665 0.7502 0.61867 0.0
C1510 C 0.36735 0.72057 0.62488 0.0
C1511 C 0.35906 0.74768 0.5949 0.0
C1512 C 0.37891 0.78844 0.66115 0.0
N1513 N 0.37767 0.77654 0.67946 0.0
C1514 C 0.35635 0.79162 0.70095 0.0
C1515 C 0.36682 0.7779 0.69927 0.0
C1516 C 0.35695 0.80387 0.68183 0.0
C1517 C 0.36858 0.80227 0.66193 0.0
H1518 H 0.38761 0.78694 0.64555 0.0
H1519 H 0.36604 0.76814 0.71342 0.0
C1520 C 0.38547 0.69767 0.71565 0.0
N1521 N 0.37812 0.70788 0.6983 0.0
C1522 C 0.37622 0.68545 0.72809 0.0
C1523 C 0.35222 0.69407 0.70381 0.0
C1524 C 0.36184 0.70632 0.69223 0.0
C1525 C 0.35937 0.68359 0.7222 0.0
H1526 H 0.39847 0.69914 0.71998 0.0
H1527 H 0.35626 0.71476 0.67866 0.0
C1528 C 0.42568 0.7669 0.65296 0.0
N1529 N 0.45515 0.7835 0.64554 0.0
C1530 C 0.43883 0.75908 0.64049 0.0
C1531 C 0.42741 0.78322 0.66137 0.0
C1532 C 0.45366 0.76766 0.63701 0.0
C1533 C 0.44244 0.79139 0.65751 0.0
C1534 C 0.41674 0.70712 0.65253 0.0
C1535 C 0.4321 0.70726 0.64023 0.0
C1536 C 0.40638 0.69336 0.64998 0.0
C1537 C 0.43675 0.69373 0.62519 0.0
C1538 C 0.41149 0.68005 0.63482 0.0
N1539 N 0.42643 0.68052 0.62281 0.0
C1540 C 0.44615 0.72943 0.702 0.0
C1541 C 0.44255 0.75807 0.70994 0.0
C1542 C 0.46162 0.72971 0.7139 0.0
N1543 N 0.437 0.74349 0.70013 0.0
C1544 C 0.45795 0.75891 0.72201 0.0
C1545 C 0.46774 0.7446 0.72408 0.0
H1546 H 0.44137 0.71794 0.6944 0.0
H1547 H 0.435 0.76905 0.70853 0.0
C1548 C 0.40676 0.75005 0.5951 0.0
N1549 N 0.4048 0.73543 0.60766 0.0
C1550 C 0.40727 0.75053 0.56836 0.0
C1551 C 0.40382 0.72086 0.56766 0.0
C1552 C 0.40328 0.72096 0.59449 0.0
C1553 C 0.40568 0.73582 0.55425 0.0
H1554 H 0.40751 0.76146 0.60584 0.0
H1555 H 0.40106 0.70955 0.6046 0.0
O1556 O 0.39596 0.74413 0.70693 0.0
O1557 O 0.37881 0.73871 0.65664 0.0
O1558 O 0.4111 0.75868 0.65667 0.0
O1559 O 0.41209 0.72016 0.66763 0.0
H1560 H 0.40994 0.72353 0.73996 0.0
H1561 H 0.39943 0.77474 0.72419 0.0
H1562 H 0.42413 0.73205 0.78008 0.0
H1563 H 0.41371 0.78237 0.76466 0.0
H1564 H 0.35701 0.7063 0.59387 0.0
H1565 H 0.36939 0.76261 0.62515 0.0
H1566 H 0.37073 0.70983 0.63612 0.0
H1567 H 0.35582 0.75815 0.58298 0.0
H1568 H 0.34744 0.79231 0.71644 0.0
H1569 H 0.36951 0.81151 0.64693 0.0
H1570 H 0.38215 0.67753 0.74212 0.0
H1571 H 0.33921 0.69312 0.69903 0.0
H1572 H 0.43758 0.74652 0.63361 0.0
H1573 H 0.41731 0.78945 0.671 0.0
H1574 H 0.46398 0.76174 0.6275 0.0
H1575 H 0.44402 0.80399 0.66407 0.0
H1576 H 0.44039 0.71768 0.64235 0.0
H1577 H 0.39448 0.69298 0.65941 0.0
H1578 H 0.44857 0.6937 0.61548 0.0
H1579 H 0.40357 0.66936 0.63255 0.0
H1580 H 0.4686 0.71832 0.71545 0.0
H1581 H 0.46221 0.77069 0.7294 0.0
H1582 H 0.40882 0.76234 0.55882 0.0
H1583 H 0.40223 0.70927 0.55751 0.0
Li1584 Li 0.26093 0.40207 0.64602 0.0
Li1585 Li 0.25652 0.41541 0.68609 0.0
Li1586 Li 0.27323 0.39035 0.68408 0.0
Li1587 Li 0.24307 0.38935 0.67701 0.0
C1588 C 0.28363 0.42698 0.65903 0.0
N1589 N 0.29455 0.45717 0.64078 0.0
C1590 C 0.27312 0.43695 0.64435 0.0
C1591 C 0.29968 0.43237 0.66444 0.0
C1592 C 0.27887 0.45216 0.6353 0.0
C1593 C 0.30497 0.44767 0.65503 0.0
C1594 C 0.22469 0.41701 0.66635 0.0
C1595 C 0.20427 0.42292 0.69885 0.0
N1596 N 0.19435 0.42978 0.68065 0.0
C1597 C 0.21429 0.4241 0.64798 0.0
C1598 C 0.21965 0.4164 0.69202 0.0
C1599 C 0.199 0.4305 0.65558 0.0
C1600 C 0.24934 0.40006 0.59619 0.0
N1601 N 0.26306 0.40434 0.60972 0.0
C1602 C 0.27807 0.4093 0.57092 0.0
C1603 C 0.27731 0.40889 0.59774 0.0
C1604 C 0.26414 0.40468 0.55649 0.0
C1605 C 0.24963 0.40007 0.56944 0.0
H1606 H 0.23825 0.39635 0.60629 0.0
H1607 H 0.28816 0.41189 0.60895 0.0
C1608 C 0.26119 0.43771 0.72694 0.0
N1609 N 0.25468 0.43623 0.70302 0.0
C1610 C 0.26083 0.45292 0.73966 0.0
C1611 C 0.247 0.46479 0.70288 0.0
C1612 C 0.24756 0.44934 0.69094 0.0
C1613 C 0.25377 0.46679 0.72755 0.0
H1614 H 0.26682 0.42707 0.73604 0.0
H1615 H 0.24255 0.44788 0.67184 0.0
C1616 C 0.26832 0.37087 0.63679 0.0
N1617 N 0.2832 0.35641 0.59463 0.0
C1618 C 0.25924 0.36039 0.62076 0.0
C1619 C 0.28499 0.37393 0.63144 0.0
C1620 C 0.26698 0.35322 0.59952 0.0
C1621 C 0.29228 0.36652 0.61003 0.0
C1622 C 0.25446 0.38384 0.72746 0.0
C1623 C 0.25479 0.36712 0.72056 0.0
C1624 C 0.2536 0.38822 0.75337 0.0
C1625 C 0.25423 0.35506 0.73975 0.0
C1626 C 0.25304 0.37579 0.77199 0.0
N1627 N 0.25338 0.35961 0.76485 0.0
C1628 C 0.30133 0.3863 0.71603 0.0
C1629 C 0.29286 0.36216 0.69377 0.0
C1630 C 0.31372 0.37741 0.72874 0.0
N1631 N 0.2912 0.37855 0.69902 0.0
C1632 C 0.30511 0.35285 0.70587 0.0
C1633 C 0.31567 0.36043 0.72377 0.0
H1634 H 0.29957 0.39932 0.72005 0.0
H1635 H 0.28439 0.35618 0.68068 0.0
C1636 C 0.2178 0.37008 0.65747 0.0
N1637 N 0.22355 0.37624 0.68001 0.0
C1638 C 0.20456 0.35902 0.65723 0.0
C1639 C 0.20267 0.36162 0.70336 0.0
C1640 C 0.21599 0.37268 0.70269 0.0
C1641 C 0.19707 0.35433 0.68045 0.0
H1642 H 0.22371 0.37359 0.63968 0.0
H1643 H 0.22048 0.37809 0.72032 0.0
O1644 O 0.27829 0.41209 0.66838 0.0
O1645 O 0.23968 0.41072 0.65901 0.0
O1646 O 0.26086 0.37849 0.65721 0.0
O1647 O 0.25525 0.39593 0.70912 0.0
H1648 H 0.26066 0.433 0.63996 0.0
H1649 H 0.30794 0.42481 0.67584 0.0
H1650 H 0.27087 0.46 0.62393 0.0
H1651 H 0.31737 0.45201 0.65908 0.0
H1652 H 0.20022 0.42254 0.71864 0.0
H1653 H 0.21802 0.42466 0.62803 0.0
H1654 H 0.22749 0.41099 0.70657 0.0
H1655 H 0.19083 0.43604 0.64155 0.0
H1656 H 0.28953 0.41277 0.56157 0.0
H1657 H 0.2386 0.39653 0.55897 0.0
H1658 H 0.26599 0.45379 0.7588 0.0
H1659 H 0.24167 0.47514 0.6926 0.0
H1660 H 0.24635 0.35781 0.62461 0.0
H1661 H 0.29215 0.38217 0.64348 0.0
H1662 H 0.26009 0.34512 0.5869 0.0
H1663 H 0.30514 0.36887 0.60559 0.0
H1664 H 0.2554 0.36345 0.70064 0.0
H1665 H 0.25336 0.40111 0.75903 0.0
H1666 H 0.25447 0.34208 0.73468 0.0
H1667 H 0.25237 0.37901 0.79212 0.0
H1668 H 0.32163 0.38373 0.74235 0.0
H1669 H 0.30596 0.33973 0.70184 0.0
H1670 H 0.20036 0.35406 0.63905 0.0
H1671 H 0.19723 0.35839 0.72168 0.0
Li1672 Li 0.60875 0.27192 0.6865 0.0
Li1673 Li 0.60796 0.24208 0.67859 0.0
Li1674 Li 0.59682 0.26217 0.647 0.0
Li1675 Li 0.5819 0.2574 0.68631 0.0
C1676 C 0.63552 0.26508 0.65733 0.0
N1677 N 0.66744 0.27723 0.65478 0.0
C1678 C 0.64816 0.2576 0.6715 0.0
C1679 C 0.63919 0.27856 0.64151 0.0
C1680 C 0.6642 0.26397 0.67006 0.0
C1681 C 0.65538 0.28457 0.64057 0.0
C1682 C 0.59662 0.24361 0.72953 0.0
C1683 C 0.5851 0.21769 0.7439 0.0
N1684 N 0.5871 0.22262 0.76868 0.0
C1685 C 0.59857 0.24842 0.75511 0.0
C1686 C 0.58984 0.22813 0.72383 0.0
C1687 C 0.59368 0.23762 0.77464 0.0
C1688 C 0.61852 0.30467 0.7014 0.0
N1689 N 0.62182 0.28822 0.70332 0.0
C1690 C 0.645 0.29363 0.7305 0.0
C1691 C 0.63457 0.28256 0.71786 0.0
C1692 C 0.64208 0.31074 0.72871 0.0
C1693 C 0.62854 0.3162 0.714 0.0
H1694 H 0.60804 0.30885 0.69031 0.0
H1695 H 0.63668 0.2694 0.71952 0.0
C1696 C 0.62118 0.21227 0.66091 0.0
N1697 N 0.62021 0.22214 0.68194 0.0
C1698 C 0.63151 0.19843 0.66096 0.0
C1699 C 0.63939 0.20498 0.70456 0.0
C1700 C 0.6289 0.21871 0.70366 0.0
C1701 C 0.64103 0.1948 0.68283 0.0
H1702 H 0.61432 0.21547 0.6438 0.0
H1703 H 0.62817 0.22699 0.71993 0.0
C1704 C 0.5823 0.29179 0.6557 0.0
N1705 N 0.57168 0.31723 0.62431 0.0
C1706 C 0.56541 0.29524 0.65336 0.0
C1707 C 0.59377 0.30141 0.6423 0.0
C1708 C 0.56029 0.30812 0.63734 0.0
C1709 C 0.58817 0.31418 0.62646 0.0
C1710 C 0.57384 0.23657 0.64354 0.0
C1711 C 0.56053 0.24737 0.64012 0.0
C1712 C 0.57395 0.22135 0.63084 0.0
C1713 C 0.54753 0.24278 0.62394 0.0
C1714 C 0.56071 0.21719 0.61482 0.0
N1715 N 0.54789 0.22791 0.61173 0.0
C1716 C 0.6086 0.26015 0.59704 0.0
C1717 C 0.58178 0.2719 0.59871 0.0
C1718 C 0.60879 0.2614 0.57035 0.0
N1719 N 0.59529 0.26546 0.61068 0.0
C1720 C 0.58146 0.27345 0.57198 0.0
C1721 C 0.59511 0.26816 0.5574 0.0
H1722 H 0.61902 0.2547 0.6069 0.0
H1723 H 0.57116 0.27571 0.60979 0.0
C1724 C 0.55475 0.27053 0.7128 0.0
N1725 N 0.56087 0.25633 0.70257 0.0
C1726 C 0.5393 0.2706 0.72477 0.0
C1727 C 0.53694 0.24131 0.71609 0.0
C1728 C 0.55234 0.24185 0.70397 0.0
C1729 C 0.53021 0.25584 0.72654 0.0
H1730 H 0.5619 0.28182 0.71161 0.0
H1731 H 0.55749 0.23074 0.69562 0.0
O1732 O 0.61971 0.2591 0.65865 0.0
O1733 O 0.60125 0.25413 0.71026 0.0
O1734 O 0.58756 0.27917 0.6712 0.0
O1735 O 0.58676 0.24085 0.65915 0.0
H1736 H 0.64558 0.24711 0.68372 0.0
H1737 H 0.62967 0.28425 0.62993 0.0
H1738 H 0.67406 0.25839 0.68111 0.0
H1739 H 0.65837 0.29503 0.62849 0.0
H1740 H 0.57982 0.20569 0.73977 0.0
H1741 H 0.60379 0.26038 0.75981 0.0
H1742 H 0.58823 0.2242 0.70415 0.0
H1743 H 0.5951 0.24118 0.79454 0.0
H1744 H 0.65536 0.28877 0.74129 0.0
H1745 H 0.62556 0.32923 0.71247 0.0
H1746 H 0.63226 0.19083 0.64387 0.0
H1747 H 0.64667 0.20279 0.72168 0.0
H1748 H 0.55633 0.288 0.66367 0.0
H1749 H 0.60687 0.29904 0.64412 0.0
H1750 H 0.54726 0.31087 0.63526 0.0
H1751 H 0.59692 0.32167 0.61589 0.0
H1752 H 0.56027 0.2592 0.64973 0.0
H1753 H 0.58414 0.21282 0.63332 0.0
H1754 H 0.53717 0.25105 0.62108 0.0
H1755 H 0.56064 0.20545 0.60485 0.0
H1756 H 0.61942 0.25676 0.55995 0.0
H1757 H 0.57067 0.27879 0.56288 0.0
H1758 H 0.53462 0.28202 0.73287 0.0
H1759 H 0.53024 0.22971 0.71694 0.0
Li1760 Li 0.74299 0.41584 0.81589 0.0
Li1761 Li 0.73852 0.40177 0.85614 0.0
Li1762 Li 0.75837 0.3905 0.82438 0.0
Li1763 Li 0.7283 0.38906 0.81658 0.0
C1764 C 0.76286 0.42601 0.85703 0.0
N1765 N 0.76927 0.45456 0.88446 0.0
C1766 C 0.75015 0.43727 0.86207 0.0
C1767 C 0.77884 0.42928 0.8659 0.0
C1768 C 0.75363 0.45163 0.87598 0.0
C1769 C 0.78184 0.44378 0.87974 0.0
C1770 C 0.70665 0.41371 0.84345 0.0
C1771 C 0.68157 0.40439 0.86392 0.0
N1772 N 0.67673 0.4204 0.86691 0.0
C1773 C 0.70135 0.43006 0.84646 0.0
C1774 C 0.69662 0.40076 0.85202 0.0
C1775 C 0.68622 0.43319 0.85847 0.0
C1776 C 0.72953 0.44254 0.78862 0.0
N1777 N 0.74373 0.43676 0.79931 0.0
C1778 C 0.75837 0.46104 0.78633 0.0
C1779 C 0.75802 0.4456 0.79833 0.0
C1780 C 0.74386 0.46743 0.77523 0.0
C1781 C 0.7293 0.45793 0.77645 0.0
H1782 H 0.71838 0.43517 0.78958 0.0
H1783 H 0.76915 0.44071 0.80698 0.0
C1784 C 0.74441 0.39273 0.90641 0.0
N1785 N 0.73535 0.40358 0.89232 0.0
C1786 C 0.74329 0.39265 0.9331 0.0
C1787 C 0.72383 0.4153 0.93053 0.0
C1788 C 0.72528 0.41488 0.90378 0.0
C1789 C 0.73284 0.40399 0.94553 0.0
H1790 H 0.75257 0.3841 0.89683 0.0
H1791 H 0.71846 0.42363 0.89228 0.0
C1792 C 0.75661 0.40067 0.77307 0.0
N1793 N 0.77773 0.40959 0.73374 0.0
C1794 C 0.75198 0.39811 0.74753 0.0
C1795 C 0.77197 0.40775 0.77862 0.0
C1796 C 0.76284 0.4027 0.72791 0.0
C1797 C 0.78247 0.41219 0.75846 0.0
C1798 C 0.73675 0.36405 0.85446 0.0
C1799 C 0.74534 0.34965 0.84786 0.0
C1800 C 0.72363 0.36316 0.87189 0.0
C1801 C 0.74039 0.33453 0.85834 0.0
C1802 C 0.71908 0.34781 0.88199 0.0
N1803 N 0.72747 0.33392 0.87503 0.0
C1804 C 0.79058 0.3801 0.83768 0.0
C1805 C 0.77901 0.36684 0.80127 0.0
C1806 C 0.80458 0.37001 0.83636 0.0
N1807 N 0.77813 0.37821 0.82043 0.0
C1808 C 0.79274 0.35645 0.79928 0.0
C1809 C 0.80568 0.35779 0.81721 0.0
H1810 H 0.78945 0.3892 0.85281 0.0
H1811 H 0.76878 0.36551 0.78804 0.0
C1812 C 0.69737 0.38255 0.79238 0.0
N1813 N 0.71169 0.3757 0.80105 0.0
C1814 C 0.6853 0.37263 0.78081 0.0
C1815 C 0.70305 0.3489 0.7871 0.0
C1816 C 0.71482 0.35928 0.7982 0.0
C1817 C 0.68805 0.35555 0.7783 0.0
H1818 H 0.69533 0.39571 0.79443 0.0
H1819 H 0.72655 0.35426 0.80429 0.0
O1820 O 0.75977 0.41185 0.84347 0.0
O1821 O 0.72146 0.41047 0.83178 0.0
O1822 O 0.74604 0.39632 0.79243 0.0
O1823 O 0.74152 0.37896 0.84444 0.0
H1824 H 0.73774 0.43499 0.85527 0.0
H1825 H 0.78883 0.4207 0.8621 0.0
H1826 H 0.7439 0.46044 0.88001 0.0
H1827 H 0.79415 0.44647 0.88673 0.0
H1828 H 0.6737 0.39448 0.87069 0.0
H1829 H 0.70889 0.44024 0.83971 0.0
H1830 H 0.70032 0.38805 0.84927 0.0
H1831 H 0.68201 0.44578 0.86107 0.0
H1832 H 0.76981 0.46801 0.78609 0.0
H1833 H 0.7179 0.46225 0.76784 0.0
H1834 H 0.75073 0.38396 0.94391 0.0
H1835 H 0.71564 0.42425 0.93935 0.0
H1836 H 0.74011 0.39265 0.74294 0.0
H1837 H 0.77576 0.40987 0.79826 0.0
H1838 H 0.75942 0.4008 0.70805 0.0
H1839 H 0.79439 0.4177 0.76248 0.0
H1840 H 0.75563 0.35012 0.83461 0.0
H1841 H 0.71716 0.3742 0.87785 0.0
H1842 H 0.74685 0.32327 0.85323 0.0
H1843 H 0.70893 0.34694 0.89546 0.0
H1844 H 0.81434 0.37162 0.85039 0.0
H1845 H 0.79289 0.34706 0.78446 0.0
H1846 H 0.67389 0.37821 0.77417 0.0
H1847 H 0.70578 0.33585 0.78499 0.0
Li1848 Li 0.60958 0.72965 0.81574 0.0
Li1849 Li 0.60844 0.76046 0.82139 0.0
Li1850 Li 0.59739 0.74245 0.85561 0.0
Li1851 Li 0.58358 0.74538 0.81579 0.0
C1852 C 0.62971 0.74461 0.8636 0.0
N1853 N 0.64682 0.74611 0.90944 0.0
C1854 C 0.63223 0.75983 0.87571 0.0
C1855 C 0.6359 0.73015 0.87475 0.0
C1856 C 0.64091 0.76033 0.89889 0.0
C1857 C 0.64452 0.73117 0.89794 0.0
C1858 C 0.60929 0.75471 0.77101 0.0
C1859 C 0.61049 0.77774 0.74163 0.0
N1860 N 0.62453 0.77137 0.73118 0.0
C1861 C 0.62364 0.7483 0.75983 0.0
C1862 C 0.60256 0.76947 0.76171 0.0
C1863 C 0.6312 0.75694 0.73976 0.0
C1864 C 0.61624 0.70061 0.7864 0.0
N1865 N 0.62284 0.71242 0.80191 0.0
C1866 C 0.65005 0.70178 0.79506 0.0
C1867 C 0.63937 0.71314 0.80652 0.0
C1868 C 0.64368 0.68958 0.77856 0.0
C1869 C 0.62649 0.68895 0.77454 0.0
H1870 H 0.6031 0.70051 0.78268 0.0
H1871 H 0.64432 0.72283 0.8186 0.0
C1872 C 0.61618 0.79487 0.82348 0.0
N1873 N 0.62139 0.77974 0.81545 0.0
C1874 C 0.6266 0.80861 0.82129 0.0
C1875 C 0.64736 0.79096 0.80213 0.0
C1876 C 0.63665 0.77756 0.80504 0.0
C1877 C 0.64245 0.8067 0.81063 0.0
H1878 H 0.60415 0.79619 0.8323 0.0
H1879 H 0.64069 0.76528 0.79966 0.0
C1880 C 0.57393 0.71615 0.8347 0.0
N1881 N 0.54353 0.7005 0.83454 0.0
C1882 C 0.56397 0.71641 0.85664 0.0
C1883 C 0.56848 0.70785 0.81273 0.0
C1884 C 0.54864 0.70843 0.85617 0.0
C1885 C 0.55305 0.70006 0.81301 0.0
C1886 C 0.57367 0.77184 0.84184 0.0
C1887 C 0.56215 0.76944 0.86151 0.0
C1888 C 0.57034 0.78328 0.82241 0.0
C1889 C 0.54737 0.77841 0.86121 0.0
C1890 C 0.55541 0.79198 0.82276 0.0
N1891 N 0.54432 0.78938 0.84199 0.0
C1892 C 0.59385 0.75417 0.90603 0.0
C1893 C 0.59834 0.72523 0.90328 0.0
C1894 C 0.5932 0.75332 0.93275 0.0
N1895 N 0.59622 0.74023 0.89193 0.0
C1896 C 0.59801 0.72384 0.93003 0.0
C1897 C 0.59529 0.73802 0.94507 0.0
H1898 H 0.5926 0.76599 0.89649 0.0
H1899 H 0.6004 0.71438 0.89154 0.0
C1900 C 0.56162 0.74684 0.77352 0.0
N1901 N 0.56216 0.74595 0.79957 0.0
C1902 C 0.54644 0.74694 0.76068 0.0
C1903 C 0.5326 0.74517 0.80168 0.0
C1904 C 0.54803 0.74508 0.81369 0.0
C1905 C 0.53165 0.74609 0.7748 0.0
H1906 H 0.57299 0.74735 0.76264 0.0
H1907 H 0.54869 0.74406 0.83431 0.0
O1908 O 0.62073 0.74379 0.8414 0.0
O1909 O 0.6018 0.74654 0.79088 0.0
O1910 O 0.58894 0.72397 0.83477 0.0
O1911 O 0.5882 0.76316 0.84176 0.0
H1912 H 0.62735 0.77111 0.86748 0.0
H1913 H 0.63387 0.71825 0.86574 0.0
H1914 H 0.6429 0.77201 0.90855 0.0
H1915 H 0.64931 0.72008 0.90687 0.0
H1916 H 0.60546 0.78922 0.73434 0.0
H1917 H 0.62899 0.73687 0.76665 0.0
H1918 H 0.59136 0.77449 0.76991 0.0
H1919 H 0.64237 0.75218 0.73104 0.0
H1920 H 0.66319 0.70262 0.79892 0.0
H1921 H 0.62108 0.67989 0.76173 0.0
H1922 H 0.6224 0.82055 0.82814 0.0
H1923 H 0.6596 0.7889 0.79431 0.0
H1924 H 0.56793 0.72287 0.87375 0.0
H1925 H 0.57593 0.70769 0.79551 0.0
H1926 H 0.54077 0.7086 0.87296 0.0
H1927 H 0.54861 0.69371 0.79607 0.0
H1928 H 0.56444 0.76054 0.8766 0.0
H1929 H 0.57917 0.7854 0.80719 0.0
H1930 H 0.53829 0.77658 0.8762 0.0
H1931 H 0.55264 0.80081 0.80776 0.0
H1932 H 0.59137 0.76457 0.9437 0.0
H1933 H 0.59967 0.71182 0.93885 0.0
H1934 H 0.54631 0.7478 0.73994 0.0
H1935 H 0.52154 0.74419 0.81332 0.0
Li1936 Li 0.24187 0.6097 0.82375 0.0
Li1937 Li 0.27326 0.6087 0.81513 0.0
Li1938 Li 0.25655 0.58384 0.81564 0.0
Li1939 Li 0.26158 0.59773 0.85506 0.0
C1940 C 0.24987 0.5951 0.77002 0.0
N1941 N 0.24136 0.5773 0.72672 0.0
C1942 C 0.26208 0.59013 0.75268 0.0
C1943 C 0.23332 0.59118 0.76522 0.0
C1944 C 0.25753 0.58109 0.73093 0.0
C1945 C 0.22927 0.58213 0.74325 0.0
C1946 C 0.26521 0.6296 0.8632 0.0
C1947 C 0.28608 0.63751 0.89392 0.0
N1948 N 0.27441 0.64583 0.90763 0.0
C1949 C 0.25344 0.63829 0.8775 0.0
C1950 C 0.28168 0.62925 0.87137 0.0
C1951 C 0.25834 0.6464 0.89993 0.0
C1952 C 0.21311 0.62468 0.84211 0.0
N1953 N 0.22252 0.62272 0.82074 0.0
C1954 C 0.20535 0.64142 0.79724 0.0
C1955 C 0.21886 0.63064 0.79844 0.0
C1956 C 0.19572 0.64414 0.8193 0.0
C1957 C 0.19958 0.6354 0.84183 0.0
H1958 H 0.21638 0.61821 0.85957 0.0
H1959 H 0.22669 0.62892 0.78181 0.0
C1960 C 0.30139 0.61321 0.78311 0.0
N1961 N 0.29084 0.62075 0.79975 0.0
C1962 C 0.31364 0.62242 0.77062 0.0
C1963 C 0.30436 0.64673 0.79353 0.0
C1964 C 0.29211 0.63715 0.80515 0.0
C1965 C 0.31518 0.6394 0.77581 0.0
H1966 H 0.30014 0.60012 0.7793 0.0
H1967 H 0.28343 0.64288 0.8182 0.0
C1968 C 0.22705 0.57963 0.84921 0.0
N1969 N 0.19971 0.56092 0.86233 0.0
C1970 C 0.22777 0.56875 0.87004 0.0
C1971 C 0.21232 0.58121 0.83535 0.0
C1972 C 0.21384 0.55934 0.87628 0.0
C1973 C 0.19866 0.57158 0.8422 0.0
C1974 C 0.28514 0.57366 0.84301 0.0
C1975 C 0.2748 0.56163 0.85364 0.0
C1976 C 0.30227 0.57138 0.84344 0.0
C1977 C 0.28177 0.5475 0.86465 0.0
C1978 C 0.30878 0.55709 0.85465 0.0
N1979 N 0.29848 0.54555 0.86493 0.0
C1980 C 0.26895 0.55644 0.78863 0.0
C1981 C 0.24048 0.55385 0.79859 0.0
C1982 C 0.26894 0.54096 0.77673 0.0
N1983 N 0.25489 0.56252 0.79942 0.0
C1984 C 0.23992 0.53828 0.78698 0.0
C1985 C 0.2543 0.53158 0.77593 0.0
H1986 H 0.28019 0.56368 0.78917 0.0
H1987 H 0.2294 0.55895 0.80687 0.0
C1988 C 0.25063 0.60064 0.90514 0.0
N1989 N 0.26416 0.59606 0.89139 0.0
C1990 C 0.25122 0.60105 0.93186 0.0
C1991 C 0.27951 0.59142 0.92997 0.0
C1992 C 0.27848 0.59149 0.90315 0.0
C1993 C 0.26581 0.59645 0.94457 0.0
H1994 H 0.23945 0.60429 0.89523 0.0
H1995 H 0.28917 0.58819 0.89181 0.0
O1996 O 0.25412 0.60347 0.79187 0.0
O1997 O 0.26058 0.62109 0.84168 0.0
O1998 O 0.24047 0.58918 0.8431 0.0
O1999 O 0.27864 0.58762 0.83213 0.0
H2000 H 0.27494 0.59303 0.75613 0.0
H2001 H 0.22372 0.59498 0.77841 0.0
H2002 H 0.26687 0.57704 0.71744 0.0
H2003 H 0.21652 0.57892 0.73938 0.0
H2004 H 0.29875 0.63725 0.90058 0.0
H2005 H 0.24064 0.63865 0.87145 0.0
H2006 H 0.2909 0.62245 0.86061 0.0
H2007 H 0.24935 0.6531 0.91128 0.0
H2008 H 0.20288 0.64804 0.77957 0.0
H2009 H 0.19236 0.63701 0.85916 0.0
H2010 H 0.32183 0.61636 0.7571 0.0
H2011 H 0.30507 0.65983 0.79777 0.0
H2012 H 0.23892 0.56765 0.88141 0.0
H2013 H 0.21145 0.58971 0.8194 0.0
H2014 H 0.21425 0.55082 0.89229 0.0
H2015 H 0.18723 0.5726 0.83153 0.0
H2016 H 0.26154 0.56313 0.85321 0.0
H2017 H 0.31044 0.58059 0.83524 0.0
H2018 H 0.27389 0.53809 0.87292 0.0
H2019 H 0.32203 0.55517 0.85516 0.0
H2020 H 0.28025 0.53649 0.76803 0.0
H2021 H 0.22838 0.53148 0.78702 0.0
H2022 H 0.24037 0.6049 0.94251 0.0
H2023 H 0.29101 0.58792 0.93917 0.0
Li2024 Li 0.4151 0.25796 0.81934 0.0
Li2025 Li 0.40121 0.26131 0.859 0.0
Li2026 Li 0.38939 0.24418 0.82451 0.0
Li2027 Li 0.39002 0.27501 0.81931 0.0
C2028 C 0.42346 0.231 0.84638 0.0
N2029 N 0.45179 0.21199 0.84958 0.0
C2030 C 0.43365 0.23208 0.86801 0.0
C2031 C 0.4276 0.22015 0.82651 0.0
C2032 C 0.44794 0.22238 0.86924 0.0
C2033 C 0.44201 0.21069 0.82844 0.0
C2034 C 0.42612 0.28649 0.83711 0.0
C2035 C 0.44641 0.30246 0.8139 0.0
N2036 N 0.4573 0.3003 0.83352 0.0
C2037 C 0.43749 0.28448 0.85708 0.0
C2038 C 0.43056 0.29562 0.81539 0.0
C2039 C 0.4532 0.29156 0.8549 0.0
C2040 C 0.43681 0.25836 0.77701 0.0
N2041 N 0.43641 0.25667 0.80298 0.0
C2042 C 0.46589 0.2542 0.80442 0.0
C2043 C 0.45058 0.25479 0.81678 0.0
C2044 C 0.46665 0.25588 0.77765 0.0
C2045 C 0.45188 0.25805 0.7639 0.0
H2046 H 0.42543 0.26011 0.76647 0.0
H2047 H 0.45008 0.254 0.83743 0.0
C2048 C 0.40011 0.24873 0.90883 0.0
N2049 N 0.40253 0.26292 0.89536 0.0
C2050 C 0.40002 0.24899 0.93558 0.0
C2051 C 0.40511 0.27846 0.93419 0.0
C2052 C 0.40502 0.27764 0.90737 0.0
C2053 C 0.40247 0.264 0.94863 0.0
H2054 H 0.39807 0.23723 0.8987 0.0
H2055 H 0.40669 0.28877 0.89612 0.0
C2056 C 0.38927 0.2499 0.77454 0.0
N2057 N 0.37352 0.23356 0.73488 0.0
C2058 C 0.37444 0.25606 0.76459 0.0
C2059 C 0.39617 0.23552 0.76418 0.0
C2060 C 0.36665 0.2476 0.74456 0.0
C2061 C 0.38799 0.22741 0.74418 0.0
C2062 C 0.36893 0.2609 0.86704 0.0
C2063 C 0.36317 0.24581 0.87663 0.0
C2064 C 0.3662 0.27543 0.88097 0.0
C2065 C 0.35476 0.24551 0.90006 0.0
C2066 C 0.35777 0.27461 0.90434 0.0
N2067 N 0.35227 0.25979 0.91333 0.0
C2068 C 0.38172 0.20991 0.82411 0.0
C2069 C 0.36052 0.22757 0.80866 0.0
C2070 C 0.37145 0.19612 0.82134 0.0
N2071 N 0.37608 0.22524 0.81785 0.0
C2072 C 0.3499 0.21412 0.80536 0.0
C2073 C 0.35527 0.19816 0.81205 0.0
H2074 H 0.39401 0.20844 0.8319 0.0
H2075 H 0.35621 0.23995 0.80457 0.0
C2076 C 0.38466 0.30003 0.78273 0.0
N2077 N 0.37855 0.29318 0.80459 0.0
C2078 C 0.37572 0.31227 0.76983 0.0
C2079 C 0.35454 0.31036 0.80245 0.0
C2080 C 0.36385 0.29811 0.81465 0.0
C2081 C 0.36034 0.31746 0.77952 0.0
H2082 H 0.39622 0.29561 0.77488 0.0
H2083 H 0.35907 0.29216 0.83167 0.0
O2084 O 0.40939 0.24035 0.84488 0.0
O2085 O 0.41079 0.27943 0.83871 0.0
O2086 O 0.39697 0.25784 0.7944 0.0
O2087 O 0.37767 0.26137 0.84457 0.0
H2088 H 0.43068 0.24046 0.88353 0.0
H2089 H 0.41982 0.21912 0.8097 0.0
H2090 H 0.45599 0.22316 0.88578 0.0
H2091 H 0.44541 0.20231 0.81313 0.0
H2092 H 0.45006 0.30945 0.79712 0.0
H2093 H 0.43431 0.27731 0.87392 0.0
H2094 H 0.42192 0.29724 0.79973 0.0
H2095 H 0.46216 0.29001 0.87014 0.0
H2096 H 0.47704 0.2528 0.81575 0.0
H2097 H 0.45197 0.25938 0.74321 0.0
H2098 H 0.39815 0.23752 0.94593 0.0
H2099 H 0.40686 0.29031 0.9435 0.0
H2100 H 0.36888 0.26713 0.77245 0.0
H2101 H 0.4077 0.23067 0.77154 0.0
H2102 H 0.35511 0.25217 0.73678 0.0
H2103 H 0.39315 0.21623 0.73605 0.0
H2104 H 0.36533 0.23441 0.86628 0.0
H2105 H 0.37084 0.28718 0.87405 0.0
H2106 H 0.35029 0.23392 0.90777 0.0
H2107 H 0.35568 0.28574 0.91542 0.0
H2108 H 0.37606 0.18402 0.82668 0.0
H2109 H 0.33741 0.21627 0.79859 0.0
H2110 H 0.38069 0.31746 0.75227 0.0
H2111 H 0.34261 0.31376 0.81034 0.0
Li2112 Li 0.25846 0.40197 0.35552 0.0
Li2113 Li 0.23904 0.39159 0.32338 0.0
Li2114 Li 0.26985 0.39073 0.31495 0.0
Li2115 Li 0.25436 0.41691 0.31346 0.0
C2116 C 0.26099 0.36779 0.35967 0.0
N2117 N 0.26981 0.3447 0.39635 0.0
C2118 C 0.24887 0.36029 0.37487 0.0
C2119 C 0.27756 0.36326 0.36276 0.0
C2120 C 0.25359 0.34874 0.39343 0.0
C2121 C 0.28178 0.35163 0.38149 0.0
C2122 C 0.22184 0.41681 0.34413 0.0
C2123 C 0.1955 0.42295 0.3246 0.0
N2124 N 0.18846 0.42366 0.3483 0.0
C2125 C 0.21439 0.41773 0.3683 0.0
C2126 C 0.21236 0.41956 0.32212 0.0
C2127 C 0.19748 0.42116 0.37 0.0
C2128 C 0.27395 0.41148 0.4033 0.0
N2129 N 0.261 0.40367 0.39186 0.0
C2130 C 0.24953 0.3967 0.43273 0.0
C2131 C 0.2488 0.39657 0.406 0.0
C2132 C 0.26301 0.40419 0.44521 0.0
C2133 C 0.27528 0.41177 0.43007 0.0
H2134 H 0.28326 0.4175 0.39174 0.0
H2135 H 0.23841 0.39083 0.39643 0.0
C2136 C 0.21553 0.37133 0.29774 0.0
N2137 N 0.21919 0.3791 0.32018 0.0
C2138 C 0.20224 0.36026 0.29646 0.0
C2139 C 0.1965 0.36585 0.34117 0.0
C2140 C 0.20988 0.37674 0.34158 0.0
C2141 C 0.19276 0.35712 0.31856 0.0
H2142 H 0.22334 0.3732 0.28113 0.0
H2143 H 0.21323 0.38284 0.3593 0.0
C2144 C 0.29201 0.41443 0.33519 0.0
N2145 N 0.32574 0.41889 0.3405 0.0
C2146 C 0.30009 0.42684 0.32134 0.0
C2147 C 0.30107 0.40438 0.35189 0.0
C2148 C 0.31716 0.42888 0.32425 0.0
C2149 C 0.31811 0.4068 0.35427 0.0
C2150 C 0.25094 0.40164 0.26634 0.0
C2151 C 0.26552 0.4021 0.25193 0.0
C2152 C 0.23591 0.40579 0.25474 0.0
C2153 C 0.26487 0.40707 0.22626 0.0
C2154 C 0.23577 0.41069 0.22903 0.0
N2155 N 0.25013 0.41124 0.21544 0.0
C2156 C 0.28161 0.36173 0.29343 0.0
C2157 C 0.30208 0.38268 0.2938 0.0
C2158 C 0.29254 0.3507 0.28172 0.0
N2159 N 0.28654 0.37734 0.29936 0.0
C2160 C 0.31351 0.37199 0.28242 0.0
C2161 C 0.30882 0.35571 0.27618 0.0
H2162 H 0.26909 0.35789 0.29772 0.0
H2163 H 0.30568 0.39524 0.29797 0.0
C2164 C 0.24272 0.44978 0.3055 0.0
N2165 N 0.25362 0.43813 0.29718 0.0
C2166 C 0.24234 0.46543 0.2941 0.0
C2167 C 0.26453 0.45692 0.26599 0.0
C2168 C 0.26449 0.44146 0.27795 0.0
C2169 C 0.25337 0.46919 0.27407 0.0
H2170 H 0.23449 0.44704 0.32126 0.0
H2171 H 0.27333 0.43218 0.2721 0.0
O2172 O 0.2566 0.37918 0.34144 0.0
O2173 O 0.23833 0.4132 0.34201 0.0
O2174 O 0.27533 0.41217 0.33234 0.0
O2175 O 0.25134 0.39677 0.29148 0.0
H2176 H 0.23597 0.36343 0.37251 0.0
H2177 H 0.28707 0.36854 0.35071 0.0
H2178 H 0.24434 0.34297 0.40548 0.0
H2179 H 0.29457 0.34808 0.38415 0.0
H2180 H 0.188 0.42504 0.3077 0.0
H2181 H 0.22157 0.41583 0.38556 0.0
H2182 H 0.218 0.41908 0.30333 0.0
H2183 H 0.19153 0.42185 0.38857 0.0
H2184 H 0.23951 0.39112 0.44346 0.0
H2185 H 0.28592 0.41768 0.43875 0.0
H2186 H 0.19993 0.35367 0.27872 0.0
H2187 H 0.18941 0.36397 0.35857 0.0
H2188 H 0.29328 0.43483 0.30849 0.0
H2189 H 0.295 0.3949 0.36305 0.0
H2190 H 0.32358 0.4384 0.31359 0.0
H2191 H 0.32527 0.39909 0.36711 0.0
H2192 H 0.27726 0.39888 0.26054 0.0
H2193 H 0.22446 0.40513 0.2654 0.0
H2194 H 0.27608 0.40762 0.21495 0.0
H2195 H 0.22423 0.41399 0.21984 0.0
H2196 H 0.28815 0.33846 0.27678 0.0
H2197 H 0.32592 0.37643 0.27877 0.0
H2198 H 0.23374 0.4746 0.3013 0.0
H2199 H 0.27319 0.45919 0.25053 0.0
Li2200 Li 0.60004 0.25982 0.35724 0.0
Li2201 Li 0.61036 0.23977 0.32515 0.0
Li2202 Li 0.61105 0.27051 0.31578 0.0
Li2203 Li 0.58532 0.25496 0.31573 0.0
C2204 C 0.6368 0.26143 0.35566 0.0
N2205 N 0.6659 0.2689 0.3811 0.0
C2206 C 0.64649 0.2488 0.36615 0.0
C2207 C 0.64208 0.27786 0.3578 0.0
C2208 C 0.6611 0.25282 0.37905 0.0
C2209 C 0.65678 0.28138 0.3708 0.0
C2210 C 0.58656 0.22343 0.35213 0.0
C2211 C 0.58202 0.19467 0.34201 0.0
N2212 N 0.58205 0.19103 0.3675 0.0
C2213 C 0.58647 0.21943 0.37823 0.0
C2214 C 0.58423 0.21098 0.33386 0.0
C2215 C 0.5842 0.20296 0.38561 0.0
C2216 C 0.58536 0.27159 0.40372 0.0
N2217 N 0.59833 0.2632 0.39335 0.0
C2218 C 0.6097 0.25827 0.43497 0.0
C2219 C 0.61027 0.25642 0.40839 0.0
C2220 C 0.59657 0.26698 0.44628 0.0
C2221 C 0.58421 0.27362 0.43034 0.0
H2222 H 0.57589 0.27666 0.39132 0.0
H2223 H 0.62009 0.2493 0.39978 0.0
C2224 C 0.63086 0.21662 0.2996 0.0
N2225 N 0.62299 0.21992 0.32208 0.0
C2226 C 0.64178 0.20325 0.29782 0.0
C2227 C 0.63576 0.19657 0.34205 0.0
C2228 C 0.62519 0.21019 0.34307 0.0
C2229 C 0.64457 0.19314 0.31939 0.0
H2230 H 0.6291 0.22475 0.28332 0.0
H2231 H 0.61921 0.21332 0.36096 0.0
C2232 C 0.5892 0.29264 0.34119 0.0
N2233 N 0.58788 0.32526 0.35698 0.0
C2234 C 0.57725 0.30331 0.33109 0.0
C2235 C 0.60035 0.29852 0.35955 0.0
C2236 C 0.57682 0.31977 0.33924 0.0
C2237 C 0.59952 0.31506 0.36723 0.0
C2238 C 0.5976 0.25061 0.2695 0.0
C2239 C 0.59581 0.26473 0.25427 0.0
C2240 C 0.59153 0.23542 0.26079 0.0
C2241 C 0.58774 0.26345 0.23063 0.0
C2242 C 0.58352 0.23467 0.23705 0.0
N2243 N 0.58179 0.24858 0.22261 0.0
C2244 C 0.63954 0.28211 0.2923 0.0
C2245 C 0.61862 0.3026 0.29449 0.0
C2246 C 0.65021 0.29311 0.27997 0.0
N2247 N 0.62414 0.28702 0.29941 0.0
C2248 C 0.62892 0.31405 0.28228 0.0
C2249 C 0.64495 0.30934 0.27482 0.0
H2250 H 0.64355 0.2696 0.29633 0.0
H2251 H 0.6062 0.30613 0.29976 0.0
C2252 C 0.55416 0.24067 0.30231 0.0
N2253 N 0.56414 0.25409 0.29958 0.0
C2254 C 0.53865 0.24026 0.29046 0.0
C2255 C 0.54394 0.26755 0.27335 0.0
C2256 C 0.55935 0.2674 0.28545 0.0
C2257 C 0.53333 0.25387 0.27583 0.0
H2258 H 0.55815 0.23032 0.31385 0.0
H2259 H 0.56756 0.27788 0.28351 0.0
O2260 O 0.62252 0.25765 0.34271 0.0
O2261 O 0.58889 0.23947 0.34458 0.0
O2262 O 0.5898 0.2765 0.33328 0.0
O2263 O 0.60511 0.25169 0.29293 0.0
H2264 H 0.64272 0.23602 0.36459 0.0
H2265 H 0.63506 0.28781 0.34929 0.0
H2266 H 0.66864 0.24316 0.38741 0.0
H2267 H 0.66097 0.29404 0.3726 0.0
H2268 H 0.5803 0.1849 0.32807 0.0
H2269 H 0.58816 0.22892 0.39264 0.0
H2270 H 0.58432 0.21387 0.31359 0.0
H2271 H 0.58415 0.19967 0.40574 0.0
H2272 H 0.61927 0.25262 0.4466 0.0
H2273 H 0.57387 0.28041 0.43835 0.0
H2274 H 0.64844 0.2013 0.28005 0.0
H2275 H 0.63724 0.18904 0.35907 0.0
H2276 H 0.56842 0.29894 0.31704 0.0
H2277 H 0.6094 0.29038 0.36802 0.0
H2278 H 0.56769 0.32818 0.33149 0.0
H2279 H 0.60809 0.31976 0.38142 0.0
H2280 H 0.60043 0.27658 0.26078 0.0
H2281 H 0.59294 0.22437 0.27228 0.0
H2282 H 0.58616 0.2743 0.21871 0.0
H2283 H 0.57867 0.22302 0.23012 0.0
H2284 H 0.66252 0.289 0.2748 0.0
H2285 H 0.62429 0.32637 0.27833 0.0
H2286 H 0.53078 0.22956 0.29316 0.0
H2287 H 0.54043 0.27821 0.262 0.0
Li2288 Li 0.75836 0.60998 0.32456 0.0
Li2289 Li 0.73864 0.59876 0.35686 0.0
Li2290 Li 0.7445 0.58452 0.31473 0.0
Li2291 Li 0.72862 0.60965 0.31556 0.0
C2292 C 0.77575 0.58889 0.35204 0.0
N2293 N 0.80832 0.59046 0.36794 0.0
C2294 C 0.77951 0.59282 0.37751 0.0
C2295 C 0.78854 0.5856 0.33472 0.0
C2296 C 0.79607 0.59358 0.38516 0.0
C2297 C 0.80493 0.58651 0.3431 0.0
C2298 C 0.73402 0.63692 0.34261 0.0
C2299 C 0.71243 0.65631 0.3534 0.0
N2300 N 0.71998 0.66798 0.33867 0.0
C2301 C 0.74161 0.64913 0.3277 0.0
C2302 C 0.71936 0.64054 0.35569 0.0
C2303 C 0.7343 0.66475 0.32592 0.0
C2304 C 0.78539 0.62667 0.29996 0.0
N2305 N 0.7778 0.62316 0.32261 0.0
C2306 C 0.79607 0.64123 0.34519 0.0
C2307 C 0.7829 0.63012 0.34498 0.0
C2308 C 0.80392 0.64552 0.32205 0.0
C2309 C 0.7986 0.63786 0.29925 0.0
H2310 H 0.78085 0.62122 0.28237 0.0
H2311 H 0.77641 0.62732 0.36262 0.0
C2312 C 0.73116 0.5822 0.40393 0.0
N2313 N 0.73504 0.59689 0.39275 0.0
C2314 C 0.72908 0.58122 0.43055 0.0
C2315 C 0.73494 0.61051 0.43342 0.0
C2316 C 0.73694 0.6109 0.40685 0.0
C2317 C 0.731 0.59552 0.44566 0.0
H2318 H 0.72977 0.57125 0.39217 0.0
H2319 H 0.74023 0.62236 0.39745 0.0
C2320 C 0.74897 0.59732 0.26868 0.0
N2321 N 0.75237 0.58246 0.22122 0.0
C2322 C 0.73554 0.59667 0.25179 0.0
C2323 C 0.76415 0.59053 0.26136 0.0
C2324 C 0.73751 0.58908 0.22789 0.0
C2325 C 0.76561 0.58302 0.23731 0.0
C2326 C 0.70637 0.58642 0.33754 0.0
C2327 C 0.69651 0.57635 0.32198 0.0
C2328 C 0.69933 0.59431 0.3588 0.0
C2329 C 0.67974 0.57445 0.32781 0.0
C2330 C 0.68252 0.59207 0.36403 0.0
N2331 N 0.67316 0.58228 0.34854 0.0
C2332 C 0.7586 0.55278 0.30477 0.0
C2333 C 0.73433 0.55917 0.28129 0.0
C2334 C 0.75944 0.53716 0.29327 0.0
N2335 N 0.74616 0.56338 0.29863 0.0
C2336 C 0.73473 0.54377 0.26924 0.0
C2337 C 0.74732 0.53243 0.27531 0.0
H2338 H 0.76776 0.55636 0.31885 0.0
H2339 H 0.72456 0.5678 0.27679 0.0
C2340 C 0.71785 0.63364 0.28137 0.0
N2341 N 0.71186 0.6227 0.2989 0.0
C2342 C 0.70723 0.64456 0.26878 0.0
C2343 C 0.6843 0.63254 0.29192 0.0
C2344 C 0.6954 0.62197 0.3043 0.0
C2345 C 0.69022 0.64412 0.27407 0.0
H2346 H 0.73098 0.63402 0.27742 0.0
H2347 H 0.69079 0.61343 0.3184 0.0
O2348 O 0.75964 0.58839 0.34406 0.0
O2349 O 0.74072 0.62141 0.34399 0.0
O2350 O 0.74724 0.60452 0.29229 0.0
O2351 O 0.72287 0.58818 0.33232 0.0
H2352 H 0.76978 0.59538 0.39118 0.0
H2353 H 0.78584 0.58251 0.31497 0.0
H2354 H 0.79917 0.59669 0.40478 0.0
H2355 H 0.81495 0.5841 0.32986 0.0
H2356 H 0.70104 0.65925 0.36328 0.0
H2357 H 0.75289 0.64652 0.31729 0.0
H2358 H 0.71333 0.63125 0.36731 0.0
H2359 H 0.73998 0.67429 0.31431 0.0
H2360 H 0.79988 0.64661 0.36329 0.0
H2361 H 0.80412 0.64095 0.28093 0.0
H2362 H 0.72594 0.56945 0.43919 0.0
H2363 H 0.73685 0.62176 0.44431 0.0
H2364 H 0.72367 0.60176 0.2572 0.0
H2365 H 0.77466 0.59094 0.27418 0.0
H2366 H 0.7272 0.5884 0.21469 0.0
H2367 H 0.77726 0.57763 0.23145 0.0
H2368 H 0.70173 0.57006 0.30556 0.0
H2369 H 0.70665 0.60225 0.37097 0.0
H2370 H 0.67197 0.56673 0.31588 0.0
H2371 H 0.67692 0.59816 0.38034 0.0
H2372 H 0.76924 0.52876 0.29883 0.0
H2373 H 0.72529 0.54082 0.25522 0.0
H2374 H 0.71228 0.6532 0.25496 0.0
H2375 H 0.67128 0.63194 0.29673 0.0
Li2376 Li 0.39128 0.76156 0.32152 0.0
Li2377 Li 0.40213 0.74237 0.35335 0.0
Li2378 Li 0.41727 0.74563 0.31237 0.0
Li2379 Li 0.39108 0.73143 0.31462 0.0
C2380 C 0.4217 0.77668 0.33391 0.0
N2381 N 0.43973 0.80466 0.32184 0.0
C2382 C 0.4322 0.78379 0.35214 0.0
C2383 C 0.42039 0.78378 0.30951 0.0
C2384 C 0.4412 0.79795 0.34568 0.0
C2385 C 0.4296 0.79793 0.3038 0.0
C2386 C 0.3706 0.74372 0.36295 0.0
C2387 C 0.35705 0.72798 0.39616 0.0
N2388 N 0.35446 0.74217 0.4096 0.0
C2389 C 0.36769 0.75817 0.37697 0.0
C2390 C 0.36516 0.72851 0.37249 0.0
C2391 C 0.35955 0.75712 0.40057 0.0
C2392 C 0.36498 0.78051 0.30283 0.0
N2393 N 0.3788 0.7814 0.3176 0.0
C2394 C 0.37216 0.80912 0.3299 0.0
C2395 C 0.38255 0.79532 0.33107 0.0
C2396 C 0.35769 0.80851 0.31496 0.0
C2397 C 0.35426 0.794 0.30108 0.0
H2398 H 0.36196 0.76907 0.29319 0.0
H2399 H 0.3933 0.79557 0.34338 0.0
C2400 C 0.40401 0.72504 0.40128 0.0
N2401 N 0.40436 0.74009 0.38965 0.0
C2402 C 0.40452 0.72387 0.42804 0.0
C2403 C 0.40612 0.7537 0.43028 0.0
C2404 C 0.40554 0.75428 0.40352 0.0
C2405 C 0.40545 0.73835 0.44294 0.0
H2406 H 0.40303 0.71394 0.38988 0.0
H2407 H 0.40574 0.76608 0.39375 0.0
C2408 C 0.3956 0.74192 0.26642 0.0
N2409 N 0.39057 0.72656 0.21965 0.0
C2410 C 0.40678 0.73001 0.2576 0.0
C2411 C 0.38186 0.74602 0.25142 0.0
C2412 C 0.40404 0.7224 0.23391 0.0
C2413 C 0.37953 0.73811 0.22784 0.0
C2414 C 0.41379 0.70843 0.32808 0.0
C2415 C 0.42632 0.70212 0.31236 0.0
C2416 C 0.40284 0.69757 0.34021 0.0
C2417 C 0.42761 0.68502 0.30894 0.0
C2418 C 0.40453 0.68055 0.33628 0.0
N2419 N 0.41678 0.67468 0.32086 0.0
C2420 C 0.45189 0.74153 0.31043 0.0
C2421 C 0.44028 0.75379 0.27321 0.0
C2422 C 0.46768 0.7421 0.29956 0.0
N2423 N 0.43859 0.74714 0.29704 0.0
C2424 C 0.45581 0.75448 0.26154 0.0
C2425 C 0.46975 0.74848 0.27467 0.0
H2426 H 0.45016 0.73643 0.32944 0.0
H2427 H 0.42953 0.75844 0.26318 0.0
C2428 C 0.3608 0.71725 0.30119 0.0
N2429 N 0.37738 0.71469 0.29919 0.0
C2430 C 0.34966 0.7064 0.28954 0.0
C2431 C 0.3728 0.69032 0.27407 0.0
C2432 C 0.38351 0.70164 0.28567 0.0
C2433 C 0.35565 0.6927 0.27584 0.0
H2434 H 0.35622 0.72789 0.31158 0.0
H2435 H 0.39668 0.70009 0.28347 0.0
O2436 O 0.41298 0.7627 0.33991 0.0
O2437 O 0.37905 0.74443 0.34024 0.0
O2438 O 0.39795 0.7493 0.28979 0.0
O2439 O 0.41246 0.72512 0.33183 0.0
H2440 H 0.4334 0.77839 0.37107 0.0
H2441 H 0.41235 0.77845 0.29513 0.0
H2442 H 0.44937 0.80359 0.3596 0.0
H2443 H 0.42871 0.80355 0.285 0.0
H2444 H 0.35285 0.71628 0.40386 0.0
H2445 H 0.37191 0.77003 0.3699 0.0
H2446 H 0.36728 0.71723 0.3618 0.0
H2447 H 0.35733 0.76818 0.41175 0.0
H2448 H 0.37529 0.82005 0.3409 0.0
H2449 H 0.34306 0.7928 0.28984 0.0
H2450 H 0.40379 0.71179 0.43694 0.0
H2451 H 0.40708 0.76516 0.44092 0.0
H2452 H 0.41732 0.72646 0.26912 0.0
H2453 H 0.37307 0.75519 0.25787 0.0
H2454 H 0.41256 0.71311 0.22694 0.0
H2455 H 0.36894 0.74115 0.21606 0.0
H2456 H 0.43491 0.71033 0.30282 0.0
H2457 H 0.39293 0.70222 0.35211 0.0
H2458 H 0.43721 0.67998 0.29678 0.0
H2459 H 0.39607 0.67201 0.3454 0.0
H2460 H 0.47809 0.73725 0.31027 0.0
H2461 H 0.45691 0.75974 0.24249 0.0
H2462 H 0.3365 0.70863 0.29134 0.0
H2463 H 0.37788 0.68004 0.2633 0.0
Li2464 Li 0.27123 0.61264 0.18638 0.0
Li2465 Li 0.25564 0.58653 0.18738 0.0
Li2466 Li 0.2601 0.60145 0.14543 0.0
Li2467 Li 0.24051 0.61174 0.17742 0.0
C2468 C 0.29338 0.58911 0.16474 0.0
N2469 N 0.32691 0.58489 0.15655 0.0
C2470 C 0.30206 0.57683 0.178 0.0
C2471 C 0.30175 0.59914 0.14715 0.0
C2472 C 0.31901 0.57492 0.17364 0.0
C2473 C 0.31869 0.59684 0.14331 0.0
C2474 C 0.25236 0.60077 0.23425 0.0
C2475 C 0.23763 0.58953 0.27053 0.0
N2476 N 0.25202 0.58899 0.28404 0.0
C2477 C 0.26698 0.60027 0.24858 0.0
C2478 C 0.23753 0.59552 0.24537 0.0
C2479 C 0.26656 0.59421 0.27369 0.0
C2480 C 0.2824 0.64096 0.21073 0.0
N2481 N 0.28781 0.62598 0.20241 0.0
C2482 C 0.31512 0.63186 0.21756 0.0
C2483 C 0.30379 0.6212 0.20586 0.0
C2484 C 0.30992 0.64749 0.22628 0.0
C2485 C 0.29323 0.65191 0.22285 0.0
H2486 H 0.26957 0.64436 0.208 0.0
H2487 H 0.30784 0.60914 0.19967 0.0
C2488 C 0.2429 0.55422 0.19658 0.0
N2489 N 0.2547 0.56532 0.20361 0.0
C2490 C 0.24227 0.53861 0.20808 0.0
C2491 C 0.26603 0.54606 0.23371 0.0
C2492 C 0.26622 0.56149 0.22169 0.0
C2493 C 0.25396 0.53433 0.22692 0.0
H2494 H 0.2341 0.55737 0.18178 0.0
H2495 H 0.27565 0.5704 0.22666 0.0
C2496 C 0.26303 0.63608 0.14248 0.0
N2497 N 0.27277 0.66032 0.10819 0.0
C2498 C 0.25127 0.64437 0.12759 0.0
C2499 C 0.27972 0.64041 0.14031 0.0
C2500 C 0.25644 0.65649 0.11024 0.0
C2501 C 0.28441 0.65261 0.12278 0.0
C2502 C 0.22336 0.58743 0.15481 0.0
C2503 C 0.21687 0.58694 0.12995 0.0
C2504 C 0.21287 0.5851 0.17582 0.0
C2505 C 0.19991 0.5844 0.12655 0.0
C2506 C 0.19598 0.58261 0.17164 0.0
N2507 N 0.1899 0.58233 0.1473 0.0
C2508 C 0.27506 0.59057 0.09795 0.0
C2509 C 0.25157 0.60793 0.09469 0.0
C2510 C 0.27655 0.59003 0.07121 0.0
N2511 N 0.2629 0.5997 0.10911 0.0
C2512 C 0.25243 0.60755 0.06797 0.0
C2513 C 0.26516 0.59867 0.05577 0.0
H2514 H 0.2836 0.58365 0.10973 0.0
H2515 H 0.24167 0.61461 0.10401 0.0
C2516 C 0.21608 0.63098 0.20317 0.0
N2517 N 0.22059 0.62418 0.18035 0.0
C2518 C 0.20255 0.64176 0.20445 0.0
C2519 C 0.19836 0.63789 0.1589 0.0
C2520 C 0.21194 0.62725 0.1585 0.0
C2521 C 0.19371 0.64561 0.18197 0.0
H2522 H 0.22333 0.6285 0.22019 0.0
H2523 H 0.21591 0.62185 0.14056 0.0
O2524 O 0.27681 0.59123 0.169 0.0
O2525 O 0.25255 0.60658 0.20959 0.0
O2526 O 0.25816 0.6242 0.15964 0.0
O2527 O 0.2399 0.59015 0.15856 0.0
H2528 H 0.2958 0.56886 0.19154 0.0
H2529 H 0.2952 0.60847 0.13636 0.0
H2530 H 0.32589 0.5655 0.18384 0.0
H2531 H 0.3253 0.60453 0.12975 0.0
H2532 H 0.22625 0.58535 0.27934 0.0
H2533 H 0.27857 0.60429 0.24031 0.0
H2534 H 0.22606 0.5961 0.23475 0.0
H2535 H 0.2778 0.59362 0.28492 0.0
H2536 H 0.32786 0.6279 0.21947 0.0
H2537 H 0.28848 0.66362 0.22971 0.0
H2538 H 0.23292 0.52987 0.20189 0.0
H2539 H 0.27521 0.54339 0.24828 0.0
H2540 H 0.23827 0.64143 0.12927 0.0
H2541 H 0.28897 0.63453 0.15215 0.0
H2542 H 0.24747 0.66288 0.09845 0.0
H2543 H 0.29729 0.65601 0.12085 0.0
H2544 H 0.22483 0.58849 0.11345 0.0
H2545 H 0.21773 0.58529 0.19513 0.0
H2546 H 0.19471 0.58407 0.10743 0.0
H2547 H 0.18771 0.58089 0.18775 0.0
H2548 H 0.28659 0.58303 0.0628 0.0
H2549 H 0.24301 0.61397 0.05705 0.0
H2550 H 0.19952 0.64756 0.22258 0.0
H2551 H 0.19178 0.6403 0.14118 0.0
Li2552 Li 0.38925 0.27088 0.18898 0.0
Li2553 Li 0.41553 0.25551 0.19077 0.0
Li2554 Li 0.40047 0.25929 0.14952 0.0
Li2555 Li 0.38979 0.23984 0.18133 0.0
C2556 C 0.41326 0.293 0.17379 0.0
N2557 N 0.41825 0.32671 0.17816 0.0
C2558 C 0.42598 0.2991 0.1893 0.0
C2559 C 0.40315 0.30405 0.16036 0.0
C2560 C 0.42829 0.31619 0.19129 0.0
C2561 C 0.40585 0.32104 0.16287 0.0
C2562 C 0.39721 0.25096 0.23857 0.0
C2563 C 0.39944 0.23384 0.27637 0.0
N2564 N 0.40001 0.24767 0.29121 0.0
C2565 C 0.39762 0.26499 0.25425 0.0
C2566 C 0.39795 0.23524 0.24973 0.0
C2567 C 0.39913 0.26308 0.2808 0.0
C2568 C 0.35933 0.28451 0.2044 0.0
N2569 N 0.37585 0.2877 0.20427 0.0
C2570 C 0.37149 0.31312 0.22682 0.0
C2571 C 0.38208 0.3016 0.21543 0.0
C2572 C 0.3544 0.31008 0.22729 0.0
C2573 C 0.34833 0.29555 0.21593 0.0
H2574 H 0.35472 0.27326 0.19572 0.0
H2575 H 0.39527 0.30363 0.216 0.0
C2576 C 0.44968 0.24743 0.1939 0.0
N2577 N 0.43693 0.25472 0.20666 0.0
C2578 C 0.46546 0.24689 0.20483 0.0
C2579 C 0.45486 0.26179 0.2415 0.0
C2580 C 0.43928 0.26195 0.22993 0.0
C2581 C 0.46822 0.25417 0.22895 0.0
H2582 H 0.44765 0.24215 0.1751 0.0
H2583 H 0.42917 0.26817 0.23933 0.0
C2584 C 0.36805 0.26002 0.14158 0.0
N2585 N 0.34969 0.26529 0.0976 0.0
C2586 C 0.36298 0.24662 0.12656 0.0
C2587 C 0.36357 0.27608 0.13447 0.0
C2588 C 0.35377 0.24955 0.10433 0.0
C2589 C 0.35433 0.27849 0.11211 0.0
C2590 C 0.41836 0.22357 0.16591 0.0
C2591 C 0.42255 0.21404 0.14449 0.0
C2592 C 0.42139 0.21742 0.19052 0.0
C2593 C 0.42964 0.19845 0.14809 0.0
C2594 C 0.42852 0.20179 0.19334 0.0
N2595 N 0.43245 0.19269 0.17223 0.0
C2596 C 0.40551 0.27633 0.10159 0.0
C2597 C 0.39959 0.24765 0.09936 0.0
C2598 C 0.40571 0.27742 0.0748 0.0
N2599 N 0.4023 0.26162 0.11324 0.0
C2600 C 0.39965 0.24817 0.07261 0.0
C2601 C 0.40258 0.26324 0.05994 0.0
H2602 H 0.40776 0.28723 0.11301 0.0
H2603 H 0.39707 0.23613 0.10916 0.0
C2604 C 0.36689 0.21847 0.2054 0.0
N2605 N 0.37739 0.22007 0.18518 0.0
C2606 C 0.35597 0.20509 0.2066 0.0
C2607 C 0.36706 0.19519 0.16633 0.0
C2608 C 0.37785 0.20867 0.16601 0.0
C2609 C 0.35571 0.19345 0.18657 0.0
H2610 H 0.36653 0.22794 0.22006 0.0
H2611 H 0.38608 0.21045 0.14988 0.0
O2612 O 0.41084 0.27631 0.17164 0.0
O2613 O 0.39545 0.25259 0.21255 0.0
O2614 O 0.37744 0.25745 0.16305 0.0
O2615 O 0.41121 0.23878 0.16272 0.0
H2616 H 0.43401 0.29075 0.19966 0.0
H2617 H 0.39323 0.29956 0.14833 0.0
H2618 H 0.43807 0.32108 0.20327 0.0
H2619 H 0.39806 0.32973 0.15269 0.0
H2620 H 0.40007 0.22176 0.28524 0.0
H2621 H 0.39701 0.27723 0.24599 0.0
H2622 H 0.39725 0.22421 0.23803 0.0
H2623 H 0.3996 0.27384 0.29311 0.0
H2624 H 0.37663 0.32407 0.23577 0.0
H2625 H 0.33521 0.29281 0.21586 0.0
H2626 H 0.47548 0.24115 0.19427 0.0
H2627 H 0.4564 0.26753 0.26014 0.0
H2628 H 0.3663 0.23412 0.13182 0.0
H2629 H 0.36717 0.28656 0.1461 0.0
H2630 H 0.34989 0.2393 0.09238 0.0
H2631 H 0.35085 0.29086 0.1063 0.0
H2632 H 0.42032 0.21863 0.12528 0.0
H2633 H 0.41843 0.22473 0.20724 0.0
H2634 H 0.43291 0.19092 0.13168 0.0
H2635 H 0.43095 0.1969 0.2123 0.0
H2636 H 0.40793 0.28931 0.06584 0.0
H2637 H 0.39747 0.23687 0.06198 0.0
H2638 H 0.34725 0.20432 0.22236 0.0
H2639 H 0.36731 0.18644 0.15058 0.0
Li2640 Li 0.74554 0.41532 0.18807 0.0
Li2641 Li 0.72988 0.3894 0.18695 0.0
Li2642 Li 0.76044 0.39029 0.17731 0.0
Li2643 Li 0.74049 0.40076 0.14579 0.0
C2644 C 0.74998 0.40088 0.23445 0.0
N2645 N 0.75236 0.41276 0.28405 0.0
C2646 C 0.73631 0.40017 0.25086 0.0
C2647 C 0.76492 0.40739 0.24339 0.0
C2648 C 0.73775 0.4063 0.27584 0.0
C2649 C 0.76586 0.41341 0.26849 0.0
C2650 C 0.70762 0.41367 0.1668 0.0
C2651 C 0.68194 0.40851 0.14458 0.0
N2652 N 0.67417 0.41947 0.1603 0.0
C2653 C 0.69942 0.42504 0.18252 0.0
C2654 C 0.69885 0.40547 0.14749 0.0
C2655 C 0.6825 0.42774 0.17902 0.0
C2656 C 0.7578 0.44788 0.19634 0.0
N2657 N 0.74676 0.43636 0.20463 0.0
C2658 C 0.73648 0.455 0.2365 0.0
C2659 C 0.73617 0.43966 0.22424 0.0
C2660 C 0.74766 0.46723 0.22829 0.0
C2661 C 0.75848 0.46346 0.20796 0.0
H2662 H 0.76591 0.44507 0.18044 0.0
H2663 H 0.72736 0.4304 0.23027 0.0
C2664 C 0.71733 0.36 0.20649 0.0
N2665 N 0.71319 0.3761 0.20266 0.0
C2666 C 0.70612 0.3491 0.21784 0.0
C2667 C 0.68658 0.37161 0.22152 0.0
C2668 C 0.69821 0.38209 0.21011 0.0
C2669 C 0.69045 0.35484 0.22546 0.0
H2670 H 0.72942 0.35563 0.20072 0.0
H2671 H 0.69528 0.39498 0.20742 0.0
C2672 C 0.77719 0.41398 0.15267 0.0
N2673 N 0.81029 0.41765 0.14068 0.0
C2674 C 0.78247 0.41277 0.12718 0.0
C2675 C 0.78871 0.41729 0.172 0.0
C2676 C 0.79927 0.4146 0.12153 0.0
C2677 C 0.8054 0.41904 0.16557 0.0
C2678 C 0.73674 0.36558 0.14429 0.0
C2679 C 0.74771 0.35465 0.13234 0.0
C2680 C 0.71971 0.36343 0.14101 0.0
C2681 C 0.74148 0.34201 0.11681 0.0
C2682 C 0.71395 0.35063 0.12538 0.0
N2683 N 0.72486 0.34028 0.11366 0.0
C2684 C 0.7862 0.37201 0.20187 0.0
C2685 C 0.78772 0.37389 0.15653 0.0
C2686 C 0.79976 0.36125 0.2023 0.0
N2687 N 0.78038 0.37788 0.17915 0.0
C2688 C 0.80131 0.36328 0.15607 0.0
C2689 C 0.80728 0.35648 0.1791 0.0
H2690 H 0.77995 0.3752 0.21955 0.0
H2691 H 0.78265 0.3785 0.13872 0.0
C2692 C 0.72696 0.41403 0.09901 0.0
N2693 N 0.7371 0.40252 0.10973 0.0
C2694 C 0.72501 0.41471 0.07232 0.0
C2695 C 0.74425 0.39197 0.06837 0.0
C2696 C 0.74585 0.39176 0.09499 0.0
C2697 C 0.73364 0.40347 0.05666 0.0
H2698 H 0.72041 0.42269 0.11114 0.0
H2699 H 0.75431 0.38318 0.10392 0.0
O2700 O 0.74877 0.39505 0.20988 0.0
O2701 O 0.72421 0.4109 0.16999 0.0
O2702 O 0.76083 0.41199 0.15863 0.0
O2703 O 0.74267 0.37802 0.15961 0.0
H2704 H 0.72467 0.39511 0.2443 0.0
H2705 H 0.77569 0.40779 0.2311 0.0
H2706 H 0.72724 0.40594 0.28868 0.0
H2707 H 0.77732 0.41857 0.27561 0.0
H2708 H 0.67501 0.40221 0.12975 0.0
H2709 H 0.70602 0.43167 0.19734 0.0
H2710 H 0.70504 0.39701 0.13465 0.0
H2711 H 0.67598 0.43643 0.19116 0.0
H2712 H 0.72805 0.45723 0.25227 0.0
H2713 H 0.76712 0.47256 0.2007 0.0
H2714 H 0.70979 0.33638 0.22094 0.0
H2715 H 0.67464 0.37657 0.22696 0.0
H2716 H 0.77371 0.41039 0.11195 0.0
H2717 H 0.7848 0.41845 0.19175 0.0
H2718 H 0.80354 0.4136 0.10191 0.0
H2719 H 0.81446 0.4215 0.18037 0.0
H2720 H 0.76092 0.35595 0.13489 0.0
H2721 H 0.711 0.3714 0.1507 0.0
H2722 H 0.74985 0.33355 0.10731 0.0
H2723 H 0.7008 0.34886 0.12267 0.0
H2724 H 0.80383 0.35617 0.22047 0.0
H2725 H 0.80684 0.36016 0.13777 0.0
H2726 H 0.71672 0.4238 0.06408 0.0
H2727 H 0.7515 0.38338 0.05705 0.0
Li2728 Li 0.58614 0.74566 0.1853 0.0
Li2729 Li 0.612 0.72964 0.18434 0.0
Li2730 Li 0.61099 0.76148 0.17679 0.0
Li2731 Li 0.59913 0.74132 0.14622 0.0
C2732 C 0.59966 0.75025 0.23198 0.0
N2733 N 0.58616 0.75416 0.28029 0.0
C2734 C 0.59282 0.73669 0.24478 0.0
C2735 C 0.59978 0.76578 0.2438 0.0
C2736 C 0.586 0.73893 0.26917 0.0
C2737 C 0.59287 0.7675 0.26824 0.0
C2738 C 0.58561 0.71158 0.1531 0.0
C2739 C 0.59001 0.68482 0.13378 0.0
N2740 N 0.57598 0.68684 0.11969 0.0
C2741 C 0.57117 0.71334 0.13858 0.0
C2742 C 0.59507 0.69718 0.15081 0.0
C2743 C 0.56655 0.70071 0.12172 0.0
C2744 C 0.56085 0.76021 0.21702 0.0
N2745 N 0.56513 0.74684 0.2026 0.0
C2746 C 0.53909 0.73399 0.21141 0.0
C2747 C 0.55465 0.7338 0.19979 0.0
C2748 C 0.53431 0.74766 0.22631 0.0
C2749 C 0.54546 0.76086 0.22918 0.0
H2750 H 0.56933 0.77045 0.219 0.0
H2751 H 0.55836 0.72322 0.18854 0.0
C2752 C 0.64202 0.71451 0.19665 0.0
N2753 N 0.62538 0.71305 0.19945 0.0
C2754 C 0.65263 0.70315 0.20826 0.0
C2755 C 0.62877 0.68901 0.22566 0.0
C2756 C 0.6186 0.70061 0.21351 0.0
C2757 C 0.64607 0.69024 0.22324 0.0
H2758 H 0.64706 0.72463 0.18554 0.0
H2759 H 0.6053 0.69981 0.21549 0.0
C2760 C 0.57585 0.7717 0.15965 0.0
N2761 N 0.54707 0.78996 0.16351 0.0
C2762 C 0.56125 0.76592 0.14842 0.0
C2763 C 0.57588 0.78685 0.17259 0.0
C2764 C 0.5468 0.7753 0.15069 0.0
C2765 C 0.56118 0.79589 0.17437 0.0
C2766 C 0.63115 0.74186 0.13511 0.0
C2767 C 0.633 0.75552 0.11892 0.0
C2768 C 0.63759 0.72652 0.1278 0.0
C2769 C 0.64117 0.75357 0.09548 0.0
C2770 C 0.64572 0.72509 0.10423 0.0
N2771 N 0.6473 0.73852 0.08869 0.0
C2772 C 0.63523 0.78151 0.19949 0.0
C2773 C 0.62181 0.79357 0.16359 0.0
C2774 C 0.64593 0.79501 0.20136 0.0
N2775 N 0.6236 0.781 0.18068 0.0
C2776 C 0.63226 0.80732 0.16475 0.0
C2777 C 0.6447 0.80805 0.18359 0.0
H2778 H 0.63647 0.77119 0.21257 0.0
H2779 H 0.61253 0.79272 0.14868 0.0
C2780 C 0.60152 0.72436 0.09741 0.0
N2781 N 0.59671 0.73841 0.10972 0.0
C2782 C 0.60063 0.7233 0.07068 0.0
C2783 C 0.59015 0.75127 0.06965 0.0
C2784 C 0.59109 0.75172 0.09639 0.0
C2785 C 0.595 0.73692 0.05636 0.0
H2786 H 0.6064 0.71408 0.10822 0.0
H2787 H 0.58775 0.76292 0.10647 0.0
O2788 O 0.60619 0.74837 0.20796 0.0
O2789 O 0.59029 0.72375 0.16984 0.0
O2790 O 0.59006 0.76261 0.15789 0.0
O2791 O 0.6228 0.74344 0.1578 0.0
H2792 H 0.59257 0.72462 0.2358 0.0
H2793 H 0.605 0.7764 0.23408 0.0
H2794 H 0.58055 0.72857 0.27924 0.0
H2795 H 0.59279 0.77945 0.27758 0.0
H2796 H 0.59725 0.67365 0.1317 0.0
H2797 H 0.56367 0.72437 0.14021 0.0
H2798 H 0.60629 0.69562 0.16185 0.0
H2799 H 0.55546 0.70195 0.11026 0.0
H2800 H 0.53095 0.72345 0.20901 0.0
H2801 H 0.54221 0.77169 0.24033 0.0
H2802 H 0.66584 0.70446 0.20546 0.0
H2803 H 0.62314 0.67943 0.23725 0.0
H2804 H 0.56107 0.75428 0.1382 0.0
H2805 H 0.58706 0.79147 0.18147 0.0
H2806 H 0.53539 0.77092 0.14224 0.0
H2807 H 0.56098 0.80757 0.18448 0.0
H2808 H 0.62798 0.76745 0.12425 0.0
H2809 H 0.6361 0.71579 0.14 0.0
H2810 H 0.64259 0.764 0.08267 0.0
H2811 H 0.65068 0.71327 0.09823 0.0
H2812 H 0.65548 0.79492 0.21594 0.0
H2813 H 0.63076 0.81716 0.15083 0.0
H2814 H 0.60441 0.71193 0.06138 0.0
H2815 H 0.58611 0.76224 0.05953 0.0
C2816 C 0.33867 0.17129 0.20779 0.0
C2817 C 0.34282 0.18038 0.18573 0.0
H2818 H 0.32309 0.15271 0.22436 0.0
C2819 C 0.33402 0.17748 0.16292 0.0
H2820 H 0.34533 0.17318 0.22559 0.0
C2821 C 0.32116 0.16596 0.16226 0.0
C2822 C 0.31685 0.15691 0.18435 0.0
H2823 H 0.33672 0.18451 0.14572 0.0
H2824 H 0.3143 0.16452 0.14455 0.0
C2825 C 0.32588 0.15961 0.20708 0.0
C2826 C 0.83258 0.3192 0.15887 0.0
C2827 C 0.84504 0.31872 0.17766 0.0
H2828 H 0.81085 0.33118 0.14489 0.0
C2829 C 0.84511 0.33089 0.19697 0.0
H2830 H 0.83191 0.3098 0.14407 0.0
C2831 C 0.83298 0.34326 0.19742 0.0
C2832 C 0.82051 0.34369 0.17858 0.0
H2833 H 0.85463 0.33093 0.21161 0.0
H2834 H 0.83343 0.35255 0.21238 0.0
C2835 C 0.82048 0.33149 0.15934 0.0
C2836 C 0.66272 0.82846 0.20704 0.0
C2837 C 0.65696 0.82176 0.18378 0.0
H2838 H 0.67941 0.84532 0.22538 0.0
C2839 C 0.66364 0.82768 0.16061 0.0
H2840 H 0.65766 0.82435 0.2252 0.0
C2841 C 0.67607 0.83968 0.16072 0.0
C2842 C 0.68213 0.84608 0.18399 0.0
H2843 H 0.65971 0.8226 0.14237 0.0
H2844 H 0.68135 0.84351 0.14255 0.0
C2845 C 0.67517 0.84048 0.20714 0.0
C2846 C 0.16896 0.65937 0.20234 0.0
C2847 C 0.18043 0.65836 0.1821 0.0
H2848 H 0.14795 0.67202 0.21808 0.0
C2849 C 0.17943 0.66993 0.16202 0.0
H2850 H 0.16932 0.65057 0.218 0.0
C2851 C 0.16726 0.68217 0.16207 0.0
C2852 C 0.15573 0.68319 0.1822 0.0
H2853 H 0.1883 0.66977 0.14644 0.0
H2854 H 0.16714 0.69107 0.14654 0.0
C2855 C 0.15672 0.67165 0.20238 0.0
C2856 C 0.32934 0.84258 0.33897 0.0
C2857 C 0.32055 0.8468 0.31662 0.0
H2858 H 0.34784 0.82719 0.35601 0.0
C2859 C 0.32485 0.83911 0.29335 0.0
H2860 H 0.32648 0.84842 0.35715 0.0
C2861 C 0.33723 0.82704 0.29263 0.0
C2862 C 0.34563 0.82241 0.31516 0.0
H2863 H 0.31824 0.84199 0.27582 0.0
H2864 H 0.34007 0.82115 0.27448 0.0
C2865 C 0.34174 0.83054 0.33825 0.0
C2866 C 0.16915 0.34179 0.29767 0.0
C2867 C 0.17986 0.34399 0.31867 0.0
H2868 H 0.14929 0.32769 0.28133 0.0
C2869 C 0.17856 0.33316 0.33968 0.0
H2870 H 0.16974 0.35001 0.28127 0.0
C2871 C 0.16693 0.3204 0.3397 0.0
C2872 C 0.15624 0.31812 0.31871 0.0
H2873 H 0.18685 0.33424 0.35593 0.0
H2874 H 0.16662 0.31206 0.35595 0.0
C2875 C 0.15745 0.32899 0.29769 0.0
C2876 C 0.67261 0.15834 0.29598 0.0
C2877 C 0.68228 0.15525 0.31787 0.0
H2878 H 0.65278 0.17231 0.27942 0.0
C2879 C 0.67928 0.16444 0.34026 0.0
H2880 H 0.67461 0.15136 0.2785 0.0
C2881 C 0.66703 0.17659 0.34071 0.0
C2882 C 0.65728 0.17976 0.31887 0.0
H2883 H 0.68676 0.16256 0.35727 0.0
H2884 H 0.66554 0.18379 0.35808 0.0
C2885 C 0.66016 0.17039 0.29651 0.0
C2886 C 0.83089 0.65724 0.30571 0.0
C2887 C 0.81692 0.65856 0.32171 0.0
H2888 H 0.85369 0.66825 0.29329 0.0
C2889 C 0.81528 0.67263 0.33737 0.0
H2890 H 0.8326 0.64651 0.29355 0.0
C2891 C 0.82734 0.68496 0.33732 0.0
C2892 C 0.84136 0.68362 0.32151 0.0
H2893 H 0.8045 0.6743 0.34944 0.0
H2894 H 0.82554 0.69573 0.34939 0.0
C2895 C 0.84298 0.66967 0.30557 0.0
C2896 C 0.66911 0.84266 0.8321 0.0
C2897 C 0.67908 0.84542 0.81036 0.0
H2898 H 0.64973 0.82831 0.84915 0.0
C2899 C 0.67612 0.83598 0.78812 0.0
H2900 H 0.67118 0.84943 0.84974 0.0
C2901 C 0.66394 0.82369 0.78797 0.0
C2902 C 0.65431 0.8207 0.80992 0.0
H2903 H 0.6833 0.83796 0.77085 0.0
H2904 H 0.66213 0.81642 0.77072 0.0
C2905 C 0.65682 0.8305 0.83183 0.0
C2906 C 0.15882 0.67022 0.79898 0.0
C2907 C 0.15754 0.68142 0.81957 0.0
H2908 H 0.1718 0.64953 0.78281 0.0
C2909 C 0.16887 0.68012 0.83997 0.0
H2910 H 0.15021 0.67075 0.78308 0.0
C2911 C 0.18107 0.66792 0.83991 0.0
C2912 C 0.18237 0.65675 0.81936 0.0
H2913 H 0.16859 0.68878 0.85584 0.0
H2914 H 0.18974 0.66747 0.85575 0.0
C2915 C 0.17115 0.65804 0.79884 0.0
C2916 C 0.3425 0.17285 0.83148 0.0
C2917 C 0.34368 0.18394 0.8108 0.0
H2918 H 0.32972 0.15233 0.84806 0.0
C2919 C 0.33316 0.18181 0.78959 0.0
H2920 H 0.35028 0.17432 0.84826 0.0
C2921 C 0.32145 0.16907 0.78931 0.0
C2922 C 0.3199 0.15826 0.81036 0.0
H2923 H 0.33394 0.19006 0.77324 0.0
H2924 H 0.31355 0.16778 0.77265 0.0
C2925 C 0.33072 0.1602 0.83131 0.0
C2926 C 0.83865 0.32809 0.79307 0.0
C2927 C 0.8446 0.32128 0.81612 0.0
H2928 H 0.82202 0.34523 0.7753 0.0
C2929 C 0.83828 0.32721 0.83951 0.0
H2930 H 0.84344 0.32392 0.77475 0.0
C2931 C 0.82597 0.33933 0.83984 0.0
C2932 C 0.8197 0.34586 0.81679 0.0
H2933 H 0.84241 0.32204 0.85759 0.0
H2934 H 0.82094 0.34312 0.85819 0.0
C2935 C 0.82637 0.34027 0.7934 0.0
C2936 C 0.66327 0.17874 0.66045 0.0
C2937 C 0.65339 0.18118 0.68231 0.0
H2938 H 0.6831 0.16532 0.64316 0.0
C2939 C 0.65586 0.17092 0.70379 0.0
H2940 H 0.66196 0.18665 0.64378 0.0
C2941 C 0.66803 0.15859 0.70342 0.0
C2942 C 0.678 0.15627 0.68158 0.0
H2943 H 0.64835 0.17239 0.72085 0.0
H2944 H 0.66957 0.15083 0.7202 0.0
C2945 C 0.67542 0.16648 0.66009 0.0
C2946 C 0.82329 0.6632 0.66166 0.0
C2947 C 0.81922 0.65451 0.68417 0.0
H2948 H 0.83818 0.68196 0.6443 0.0
C2949 C 0.82814 0.6579 0.70677 0.0
H2950 H 0.81647 0.66118 0.64404 0.0
C2951 C 0.84062 0.66991 0.70692 0.0
C2952 C 0.84448 0.67876 0.68448 0.0
H2953 H 0.82546 0.65128 0.72436 0.0
H2954 H 0.84723 0.67227 0.72463 0.0
C2955 C 0.83575 0.67516 0.66181 0.0
C2956 C 0.32456 0.83429 0.65888 0.0
C2957 C 0.32066 0.84298 0.6815 0.0
H2958 H 0.33899 0.81521 0.64134 0.0
C2959 C 0.32915 0.83891 0.70425 0.0
H2960 H 0.31804 0.83675 0.64113 0.0
C2961 C 0.34106 0.82634 0.70439 0.0
C2962 C 0.34485 0.81768 0.68175 0.0
H2963 H 0.32663 0.84547 0.72195 0.0
H2964 H 0.34736 0.82343 0.72217 0.0
C2965 C 0.33656 0.82188 0.65898 0.0
C2966 C 0.1737 0.31489 0.6652 0.0
C2967 C 0.15961 0.31627 0.68086 0.0
H2968 H 0.19655 0.32562 0.65309 0.0
C2969 C 0.15794 0.33029 0.69667 0.0
H2970 H 0.1756 0.30409 0.65326 0.0
C2971 C 0.17005 0.3427 0.6966 0.0
C2972 C 0.18405 0.34134 0.6807 0.0
H2973 H 0.14717 0.33179 0.70881 0.0
H2974 H 0.16833 0.35345 0.70871 0.0
C2975 C 0.18574 0.32725 0.66511 0.0
C2976 C 0.24472 0.10858 0.01323 0.0
C2977 C 0.23595 0.09628 0.02656 0.0
H2978 H 0.25192 0.1184 0.97683 0.0
C2979 C 0.22734 0.08419 0.01248 0.0
H2980 H 0.25118 0.11827 0.02354 0.0
C2981 C 0.22785 0.08419 0.98561 0.0
C2982 C 0.23692 0.09632 0.97229 0.0
H2983 H 0.22056 0.0745 0.02224 0.0
H2984 H 0.22148 0.07444 0.97532 0.0
C2985 C 0.24516 0.10863 0.98645 0.0
C2986 C 0.90119 0.22401 0.98322 0.0
C2987 C 0.90941 0.23652 0.96946 0.0
H2988 H 0.89457 0.21436 0.02012 0.0
C2989 C 0.91822 0.24865 0.98317 0.0
H2990 H 0.89412 0.2146 0.97327 0.0
C2991 C 0.91847 0.24851 0.00998 0.0
C2992 C 0.90993 0.23624 0.02376 0.0
H2993 H 0.92494 0.25828 0.97315 0.0
H2994 H 0.92536 0.25805 0.01993 0.0
C2995 C 0.90145 0.22386 0.01008 0.0
C2996 C 0.77403 0.91469 0.9855 0.0
C2997 C 0.76324 0.90406 0.97219 0.0
H2998 H 0.78253 0.92338 0.02208 0.0
C2999 C 0.75296 0.8934 0.98634 0.0
H3000 H 0.78199 0.92317 0.97518 0.0
C3001 C 0.75326 0.89354 0.01313 0.0
C3002 C 0.76385 0.90433 0.02647 0.0
H3003 H 0.74476 0.88482 0.97669 0.0
H3004 H 0.74527 0.88506 0.02342 0.0
C3005 C 0.77434 0.91481 0.01236 0.0
C3006 C 0.08983 0.77986 0.98777 0.0
C3007 C 0.09588 0.76585 0.97474 0.0
H3008 H 0.08509 0.79135 0.02419 0.0
C3009 C 0.10128 0.7522 0.98924 0.0
H3010 H 0.08571 0.79065 0.97724 0.0
C3011 C 0.10111 0.7527 0.01601 0.0
C3012 C 0.09538 0.76679 0.029 0.0
H3013 H 0.1056 0.74102 0.97993 0.0
H3014 H 0.10537 0.74197 0.02658 0.0
C3015 C 0.08952 0.7803 0.01464 0.0
C3016 C 0.23747 0.88879 0.48507 0.0
C3017 C 0.23428 0.9035 0.47159 0.0
H3018 H 0.24001 0.87705 0.5216 0.0
C3019 C 0.23071 0.91796 0.4855 0.0
H3020 H 0.23994 0.87737 0.47488 0.0
C3021 C 0.23086 0.91782 0.51237 0.0
C3022 C 0.23451 0.90319 0.52586 0.0
H3023 H 0.22832 0.92951 0.47562 0.0
H3024 H 0.22863 0.9293 0.52254 0.0
C3025 C 0.23754 0.88862 0.51185 0.0
C3026 C 0.08596 0.22303 0.51331 0.0
C3027 C 0.09678 0.23351 0.52685 0.0
H3028 H 0.07661 0.21549 0.47664 0.0
C3029 C 0.10676 0.24457 0.5129 0.0
H3030 H 0.0782 0.21427 0.52342 0.0
C3031 C 0.10602 0.24509 0.48615 0.0
C3032 C 0.09519 0.23467 0.47257 0.0
H3033 H 0.11505 0.25301 0.52265 0.0
H3034 H 0.11411 0.2536 0.47611 0.0
C3035 C 0.08518 0.2236 0.48647 0.0
C3036 C 0.7714 0.08368 0.51263 0.0
C3037 C 0.76518 0.09757 0.52583 0.0
H3038 H 0.7766 0.07253 0.47611 0.0
C3039 C 0.75985 0.11131 0.51143 0.0
H3040 H 0.77542 0.07278 0.52297 0.0
C3041 C 0.76025 0.111 0.48464 0.0
C3042 C 0.76624 0.09705 0.47157 0.0
H3043 H 0.75539 0.1224 0.52082 0.0
H3044 H 0.75595 0.12173 0.4741 0.0
C3045 C 0.77203 0.08348 0.48578 0.0
C3046 C 0.89056 0.75573 0.51506 0.0
C3047 C 0.9031 0.7637 0.5291 0.0
H3048 H 0.88078 0.74973 0.47806 0.0
C3049 C 0.91556 0.77223 0.51564 0.0
H3050 H 0.88057 0.74937 0.52477 0.0
C3051 C 0.91562 0.77251 0.48878 0.0
C3052 C 0.90326 0.76421 0.47481 0.0
H3053 H 0.92549 0.77836 0.52584 0.0
H3054 H 0.92556 0.77887 0.47894 0.0
C3055 C 0.89066 0.75596 0.48827 0.0
C3056 C 0.73612 0.58188 0.51497 0.0
C3057 C 0.72879 0.5951 0.52838 0.0
H3058 H 0.74271 0.57173 0.4784 0.0
C3059 C 0.72132 0.60791 0.51431 0.0
H3060 H 0.74216 0.57191 0.52522 0.0
C3061 C 0.72163 0.6078 0.48749 0.0
C3062 C 0.72944 0.59488 0.47409 0.0
H3063 H 0.71529 0.61811 0.52403 0.0
H3064 H 0.71585 0.61793 0.47725 0.0
C3065 C 0.73644 0.58177 0.48813 0.0
C3066 C 0.41422 0.72505 0.4845 0.0
C3067 C 0.40542 0.73751 0.47147 0.0
H3068 H 0.42133 0.71483 0.52085 0.0
C3069 C 0.39652 0.7492 0.48593 0.0
H3070 H 0.42136 0.71596 0.47398 0.0
C3071 C 0.39659 0.74858 0.51272 0.0
C3072 C 0.4055 0.73624 0.52575 0.0
H3073 H 0.38931 0.75873 0.47655 0.0
H3074 H 0.38946 0.75769 0.52325 0.0
C3075 C 0.41423 0.72441 0.51135 0.0
C3076 C 0.25844 0.39038 0.48787 0.0
C3077 C 0.2641 0.40412 0.47377 0.0
H3078 H 0.25409 0.37981 0.52495 0.0
C3079 C 0.27044 0.41783 0.48726 0.0
H3080 H 0.25388 0.37943 0.47823 0.0
C3081 C 0.27081 0.4179 0.51412 0.0
C3082 C 0.26468 0.40434 0.52806 0.0
H3083 H 0.27472 0.42871 0.47712 0.0
H3084 H 0.27545 0.42874 0.52402 0.0
C3085 C 0.25863 0.39054 0.51466 0.0
C3086 C 0.58061 0.26566 0.51475 0.0
C3087 C 0.59504 0.26919 0.52887 0.0
H3088 H 0.5698 0.26217 0.47755 0.0
C3089 C 0.60964 0.27305 0.51545 0.0
H3090 H 0.5692 0.26245 0.52442 0.0
C3091 C 0.60999 0.27273 0.48866 0.0
C3092 C 0.59573 0.26868 0.47461 0.0
H3093 H 0.62088 0.27621 0.52565 0.0
H3094 H 0.62149 0.27554 0.47892 0.0
C3095 C 0.58095 0.26546 0.48789 0.0
C3096 C 0.73174 0.41897 0.98786 0.0
C3097 C 0.73164 0.40404 0.97399 0.0
H3098 H 0.7326 0.43053 0.02487 0.0
C3099 C 0.73109 0.38903 0.98757 0.0
H3100 H 0.73229 0.43074 0.97795 0.0
C3101 C 0.73126 0.38891 0.01436 0.0
C3102 C 0.73199 0.40379 0.02826 0.0
H3103 H 0.73065 0.37732 0.97747 0.0
H3104 H 0.73095 0.37711 0.0242 0.0
C3105 C 0.73191 0.41885 0.01473 0.0
C3106 C 0.58206 0.74464 0.01407 0.0
C3107 C 0.59464 0.73645 0.02776 0.0
H3108 H 0.57241 0.75149 0.97728 0.0
C3109 C 0.60713 0.72823 0.01386 0.0
H3110 H 0.57205 0.7508 0.02405 0.0
C3111 C 0.60715 0.72843 0.98701 0.0
C3112 C 0.5948 0.73699 0.97347 0.0
H3113 H 0.61717 0.72203 0.02368 0.0
H3114 H 0.6171 0.72229 0.97683 0.0
C3115 C 0.5822 0.74499 0.98726 0.0
C3116 C 0.26164 0.61221 0.01261 0.0
C3117 C 0.26628 0.59829 0.02718 0.0
H3118 H 0.25784 0.62247 0.97515 0.0
C3119 C 0.27156 0.58396 0.01414 0.0
H3120 H 0.25793 0.62362 0.02185 0.0
C3121 C 0.27186 0.58348 0.98728 0.0
C3122 C 0.26665 0.59722 0.97292 0.0
H3123 H 0.27503 0.57292 0.0246 0.0
H3124 H 0.27565 0.5722 0.97772 0.0
C3125 C 0.26168 0.61162 0.98583 0.0
C3126 C 0.39027 0.25527 0.99076 0.0
C3127 C 0.40214 0.26446 0.97714 0.0
H3128 H 0.3809 0.24796 0.02741 0.0
C3129 C 0.41385 0.27374 0.99096 0.0
H3130 H 0.38087 0.24826 0.98068 0.0
C3131 C 0.4139 0.27353 0.01783 0.0
C3132 C 0.40223 0.26405 0.03143 0.0
H3133 H 0.42325 0.28083 0.98102 0.0
H3134 H 0.42335 0.28046 0.02792 0.0
C3135 C 0.3903 0.25509 0.01755 0.0
C3136 C 0.22812 0.00773 0.24088 0.0
C3137 C 0.24289 0.01637 0.23605 0.0
H3138 H 0.21691 0.98571 0.25586 0.0
C3139 C 0.25802 0.00905 0.24297 0.0
H3140 H 0.21628 0.01299 0.23556 0.0
C3141 C 0.25838 0.99346 0.25455 0.0
C3142 C 0.24363 0.98477 0.25927 0.0
H3143 H 0.26959 0.01546 0.23966 0.0
H3144 H 0.27024 0.98811 0.25957 0.0
C3145 C 0.22849 0.99205 0.25226 0.0
C3146 C 0.993 0.25832 0.24254 0.0
C3147 C 0.98488 0.24339 0.23683 0.0
H3148 H 0.0144 0.26998 0.25864 0.0
C3149 C 0.99255 0.22838 0.24348 0.0
H3150 H 0.98735 0.27009 0.23784 0.0
C3151 C 0.00805 0.22831 0.25543 0.0
C3152 C 0.01614 0.24326 0.26118 0.0
H3153 H 0.98667 0.21666 0.23913 0.0
H3154 H 0.01361 0.21655 0.26043 0.0
C3155 C 0.00842 0.25826 0.25465 0.0
C3156 C 0.74355 0.01146 0.24658 0.0
C3157 C 0.7571 0.01661 0.26152 0.0
H3158 H 0.73276 0.9923 0.22374 0.0
C3159 C 0.77058 0.00576 0.26444 0.0
H3160 H 0.73302 0.01953 0.24365 0.0
C3161 C 0.77058 0.99026 0.25257 0.0
C3162 C 0.75704 0.98511 0.23761 0.0
H3163 H 0.78114 0.00919 0.27608 0.0
H3164 H 0.78132 0.9824 0.25489 0.0
C3165 C 0.7435 0.9959 0.23484 0.0
C3166 C 0.00791 0.74128 0.25167 0.0
C3167 C 0.01355 0.7555 0.2388 0.0
H3168 H 0.98834 0.72989 0.27298 0.0
C3169 C 0.00319 0.76946 0.23776 0.0
H3170 H 0.01563 0.73036 0.25302 0.0
C3171 C 0.98762 0.76925 0.24942 0.0
C3172 C 0.98201 0.75507 0.26241 0.0
H3173 H 0.00705 0.78055 0.22774 0.0
H3174 H 0.98007 0.78031 0.24857 0.0
C3175 C 0.99234 0.74107 0.26335 0.0
C3176 C 0.74107 0.99582 0.76445 0.0
C3177 C 0.7552 0.98573 0.7627 0.0
H3178 H 0.7297 0.01888 0.75446 0.0
C3179 C 0.76905 0.99162 0.74918 0.0
H3180 H 0.73016 0.99157 0.77457 0.0
C3181 C 0.76877 0.00722 0.73762 0.0
C3182 C 0.7546 0.01725 0.73918 0.0
H3183 H 0.78017 0.98421 0.7477 0.0
H3184 H 0.77958 0.01133 0.72712 0.0
C3185 C 0.74075 0.01138 0.75273 0.0
C3186 C 0.99459 0.73949 0.74094 0.0
C3187 C 0.98513 0.75407 0.73958 0.0
H3188 H 0.01724 0.72818 0.75307 0.0
C3189 C 0.99169 0.76874 0.74989 0.0
H3190 H 0.98982 0.72796 0.73336 0.0
C3191 C 0.00733 0.76884 0.76131 0.0
C3192 C 0.01678 0.75427 0.76276 0.0
H3193 H 0.98481 0.78022 0.74891 0.0
H3194 H 0.01194 0.78033 0.76929 0.0
C3195 C 0.01022 0.73958 0.75246 0.0
C3196 C 0.23246 0.99417 0.73605 0.0
C3197 C 0.24637 0.98381 0.73813 0.0
H3198 H 0.22152 0.0175 0.74555 0.0
C3199 C 0.26022 0.98943 0.75193 0.0
H3200 H 0.22166 0.99025 0.72535 0.0
C3201 C 0.26015 0.00506 0.76344 0.0
C3202 C 0.24629 0.01546 0.76121 0.0
H3203 H 0.27106 0.98167 0.75404 0.0
H3204 H 0.27104 0.00909 0.77381 0.0
C3205 C 0.23245 0.00984 0.74739 0.0
C3206 C 0.98832 0.23569 0.73907 0.0
C3207 C 0.98436 0.24757 0.7578 0.0
H3208 H 0.00655 0.22617 0.71328 0.0
C3209 C 0.99644 0.25924 0.76488 0.0
H3210 H 0.97939 0.22641 0.73337 0.0
C3211 C 0.01213 0.259 0.7535 0.0
C3212 C 0.01609 0.24704 0.73489 0.0
H3213 H 0.99373 0.26865 0.77908 0.0
H3214 H 0.02123 0.26802 0.75959 0.0
C3215 C 0.00398 0.23543 0.72776 0.0
C3216 C 0.75722 0.50429 0.73503 0.0
C3217 C 0.74388 0.51524 0.73836 0.0
H3218 H 0.76763 0.48061 0.74382 0.0
C3219 C 0.73054 0.51033 0.75393 0.0
H3220 H 0.76776 0.50774 0.72336 0.0
C3221 C 0.73054 0.49485 0.76586 0.0
C3222 C 0.74388 0.4839 0.76253 0.0
H3223 H 0.71998 0.51839 0.75668 0.0
H3224 H 0.72014 0.49153 0.77792 0.0
C3225 C 0.75723 0.48881 0.747 0.0
C3226 C 0.51305 0.73668 0.739 0.0
C3227 C 0.51534 0.74592 0.76159 0.0
H3228 H 0.49635 0.72915 0.70934 0.0
C3229 C 0.50188 0.75483 0.77164 0.0
H3230 H 0.52311 0.72953 0.7309 0.0
C3231 C 0.48648 0.75447 0.75943 0.0
C3232 C 0.48417 0.74516 0.73691 0.0
H3233 H 0.50326 0.7622 0.78887 0.0
H3234 H 0.47631 0.7613 0.76787 0.0
C3235 C 0.49765 0.7363 0.72681 0.0
C3236 C 0.24019 0.49405 0.73772 0.0
C3237 C 0.25376 0.48329 0.7403 0.0
H3238 H 0.22979 0.51773 0.74648 0.0
C3239 C 0.26746 0.48852 0.75484 0.0
H3240 H 0.22935 0.49038 0.72691 0.0
C3241 C 0.26759 0.50411 0.76645 0.0
C3242 C 0.25407 0.51492 0.76372 0.0
H3243 H 0.27822 0.48067 0.75699 0.0
H3244 H 0.27828 0.50763 0.77774 0.0
C3245 C 0.24035 0.50968 0.74923 0.0
C3246 C 0.49463 0.24346 0.76991 0.0
C3247 C 0.48282 0.25567 0.76422 0.0
H3248 H 0.51887 0.23388 0.76227 0.0
C3249 C 0.48661 0.26782 0.74585 0.0
H3250 H 0.49198 0.23389 0.78388 0.0
C3251 C 0.50201 0.26787 0.73364 0.0
C3252 C 0.51382 0.25565 0.7393 0.0
H3253 H 0.47778 0.27745 0.74125 0.0
H3254 H 0.50464 0.27741 0.71961 0.0
C3255 C 0.50995 0.24338 0.75743 0.0
C3256 C 0.26864 0.50924 0.2441 0.0
C3257 C 0.25376 0.51766 0.23908 0.0
H3258 H 0.28021 0.48755 0.25927 0.0
C3259 C 0.23873 0.51 0.24568 0.0
H3260 H 0.28044 0.51468 0.239 0.0
C3261 C 0.23858 0.49431 0.25701 0.0
C3262 C 0.25347 0.48589 0.262 0.0
H3263 H 0.22704 0.51619 0.24232 0.0
H3264 H 0.22678 0.4887 0.26161 0.0
C3265 C 0.2685 0.49357 0.25542 0.0
C3266 C 0.51057 0.23972 0.25131 0.0
C3267 C 0.51671 0.25393 0.2636 0.0
H3268 H 0.49045 0.22861 0.2308 0.0
C3269 C 0.50681 0.26823 0.2643 0.0
H3270 H 0.51795 0.22855 0.25025 0.0
C3271 C 0.49111 0.26829 0.25306 0.0
C3272 C 0.48495 0.25407 0.24078 0.0
H3273 H 0.51111 0.27934 0.27383 0.0
H3274 H 0.48385 0.27954 0.2538 0.0
C3275 C 0.49488 0.2398 0.23995 0.0
C3276 C 0.76252 0.50818 0.25609 0.0
C3277 C 0.74754 0.51569 0.26336 0.0
H3278 H 0.77437 0.48698 0.23963 0.0
C3279 C 0.73267 0.50709 0.25911 0.0
H3280 H 0.7742 0.5145 0.25885 0.0
C3281 C 0.73275 0.49145 0.24774 0.0
C3282 C 0.7477 0.48391 0.24044 0.0
H3283 H 0.72091 0.51236 0.26478 0.0
H3284 H 0.72101 0.48535 0.2444 0.0
C3285 C 0.7626 0.49247 0.24477 0.0
C3286 C 0.50043 0.75348 0.27597 0.0
C3287 C 0.48629 0.74856 0.26225 0.0
H3288 H 0.5267 0.7571 0.27535 0.0
C3289 C 0.48805 0.74349 0.23658 0.0
H3290 H 0.49944 0.75756 0.29572 0.0
C3291 C 0.50362 0.74322 0.22495 0.0
C3292 C 0.51777 0.74813 0.23866 0.0
H3293 H 0.47741 0.73948 0.22558 0.0
H3294 H 0.50458 0.73927 0.20514 0.0
C3295 C 0.516 0.75335 0.26426 0.0
C3296 C 0.15819 0.15988 0.22245 0.0
C3297 C 0.16928 0.14937 0.23531 0.0
H3298 H 0.13964 0.1787 0.22586 0.0
C3299 C 0.16951 0.14935 0.26229 0.0
H3300 H 0.15773 0.16008 0.20167 0.0
C3301 C 0.15926 0.16007 0.2761 0.0
C3302 C 0.14842 0.17084 0.26323 0.0
H3303 H 0.17805 0.14149 0.27268 0.0
H3304 H 0.15994 0.16009 0.29687 0.0
C3305 C 0.14777 0.17043 0.23628 0.0
C3306 C 0.83209 0.18135 0.24013 0.0
C3307 C 0.8479 0.17595 0.23258 0.0
H3308 H 0.80929 0.17543 0.2586 0.0
C3309 C 0.85292 0.15986 0.23928 0.0
H3310 H 0.82789 0.19376 0.23575 0.0
C3311 C 0.8423 0.14938 0.25299 0.0
C3312 C 0.82644 0.15478 0.26032 0.0
H3313 H 0.86497 0.15526 0.23365 0.0
H3314 H 0.84659 0.13711 0.258 0.0
C3315 C 0.82149 0.1709 0.25366 0.0
C3316 C 0.85081 0.82984 0.23758 0.0
C3317 C 0.84981 0.82889 0.26447 0.0
H3318 H 0.84125 0.84076 0.20315 0.0
C3319 C 0.83865 0.83926 0.27746 0.0
H3320 H 0.85921 0.8219 0.22704 0.0
C3321 C 0.8284 0.85006 0.26381 0.0
C3322 C 0.82899 0.8506 0.23686 0.0
H3323 H 0.8377 0.83888 0.2982 0.0
H3324 H 0.8196 0.85757 0.27431 0.0
C3325 C 0.84044 0.84052 0.2239 0.0
C3326 C 0.16954 0.84893 0.24086 0.0
C3327 C 0.17521 0.84579 0.26588 0.0
H3328 H 0.15483 0.84051 0.2093 0.0
C3329 C 0.1692 0.83186 0.27902 0.0
H3330 H 0.17409 0.85949 0.23018 0.0
C3331 C 0.15805 0.82108 0.26722 0.0
C3332 C 0.15274 0.82387 0.24187 0.0
H3333 H 0.17317 0.82927 0.29848 0.0
H3334 H 0.15361 0.81052 0.278 0.0
C3335 C 0.15848 0.83805 0.22893 0.0
C3336 C 0.84193 0.83691 0.73087 0.0
C3337 C 0.84366 0.82067 0.73994 0.0
H3338 H 0.82952 0.86009 0.73465 0.0
C3339 C 0.83444 0.8156 0.76135 0.0
H3340 H 0.84884 0.84103 0.71423 0.0
C3341 C 0.82371 0.82662 0.77359 0.0
C3342 C 0.82167 0.84288 0.76436 0.0
H3343 H 0.83573 0.80316 0.76883 0.0
H3344 H 0.81715 0.82238 0.79046 0.0
C3345 C 0.83093 0.84785 0.74276 0.0
C3346 C 0.16844 0.84985 0.75703 0.0
C3347 C 0.17839 0.84436 0.73658 0.0
H3348 H 0.1502 0.84352 0.78523 0.0
C3349 C 0.17684 0.82788 0.72827 0.0
H3350 H 0.16945 0.86241 0.76412 0.0
C3351 C 0.16587 0.81707 0.74041 0.0
C3352 C 0.15613 0.82247 0.76113 0.0
H3353 H 0.18406 0.82332 0.71224 0.0
H3354 H 0.16494 0.80447 0.73345 0.0
C3355 C 0.15741 0.83903 0.76915 0.0
C3356 C 0.15424 0.17369 0.76742 0.0
C3357 C 0.1548 0.17577 0.74059 0.0
H3358 H 0.16453 0.16165 0.80044 0.0
C3359 C 0.16636 0.16648 0.72641 0.0
H3360 H 0.14531 0.18035 0.77896 0.0
C3361 C 0.17713 0.15553 0.73873 0.0
C3362 C 0.17676 0.15377 0.76554 0.0
H3363 H 0.16742 0.16794 0.70582 0.0
H3364 H 0.1861 0.14879 0.72735 0.0
C3365 C 0.16518 0.16291 0.77976 0.0
C3366 C 0.843 0.16201 0.7681 0.0
C3367 C 0.84175 0.17918 0.76449 0.0
H3368 H 0.83297 0.13814 0.75975 0.0
C3369 C 0.82929 0.1854 0.74839 0.0
H3370 H 0.85241 0.15691 0.78061 0.0
C3371 C 0.81834 0.17467 0.73601 0.0
C3372 C 0.81943 0.15744 0.73971 0.0
H3373 H 0.82821 0.19858 0.74497 0.0
H3374 H 0.80917 0.1799 0.72322 0.0
C3375 C 0.83189 0.15127 0.75601 0.0
C3376 C 0.6619 0.65031 0.74995 0.0
C3377 C 0.67698 0.65611 0.73989 0.0
H3378 H 0.63965 0.65628 0.77036 0.0
C3379 C 0.68079 0.67301 0.74219 0.0
H3380 H 0.65866 0.63734 0.74873 0.0
C3381 C 0.66996 0.68381 0.75461 0.0
C3382 C 0.655 0.67801 0.76503 0.0
H3383 H 0.69212 0.67796 0.73417 0.0
H3384 H 0.67323 0.69679 0.75581 0.0
C3385 C 0.65102 0.66116 0.76237 0.0
C3386 C 0.32818 0.6496 0.73519 0.0
C3387 C 0.32752 0.64967 0.76213 0.0
H3388 H 0.33876 0.66046 0.70138 0.0
C3389 C 0.33802 0.66033 0.77585 0.0
H3390 H 0.32012 0.64158 0.72419 0.0
C3391 C 0.34881 0.67094 0.76285 0.0
C3392 C 0.34905 0.67129 0.73589 0.0
H3393 H 0.33774 0.66057 0.79664 0.0
H3394 H 0.35657 0.67926 0.77385 0.0
C3395 C 0.33875 0.66044 0.72217 0.0
C3396 C 0.34094 0.34178 0.77794 0.0
C3397 C 0.34992 0.32941 0.76505 0.0
H3398 H 0.32312 0.36131 0.77501 0.0
C3399 C 0.34824 0.32797 0.73828 0.0
H3400 H 0.34208 0.34329 0.79852 0.0
C3401 C 0.33746 0.33832 0.72482 0.0
C3402 C 0.32815 0.35041 0.73779 0.0
H3403 H 0.35485 0.31847 0.7278 0.0
H3404 H 0.33626 0.33674 0.70426 0.0
C3405 C 0.33021 0.35221 0.76444 0.0
C3406 C 0.65722 0.33799 0.73065 0.0
C3407 C 0.65316 0.32272 0.74204 0.0
H3408 H 0.67142 0.36036 0.73324 0.0
C3409 C 0.66013 0.31879 0.76603 0.0
H3410 H 0.65229 0.34137 0.71205 0.0
C3411 C 0.67126 0.32955 0.7779 0.0
C3412 C 0.67553 0.34463 0.76627 0.0
H3413 H 0.657 0.30736 0.77573 0.0
H3414 H 0.67653 0.32609 0.79626 0.0
C3415 C 0.66822 0.34887 0.74272 0.0
C3416 C 0.34368 0.3388 0.23455 0.0
C3417 C 0.34294 0.32181 0.24 0.0
H3418 H 0.33322 0.36273 0.24094 0.0
C3419 C 0.33113 0.31603 0.25759 0.0
H3420 H 0.35259 0.34354 0.22087 0.0
C3421 C 0.32025 0.32703 0.26954 0.0
C3422 C 0.32073 0.34406 0.26386 0.0
H3423 H 0.33047 0.303 0.26238 0.0
H3424 H 0.31157 0.32215 0.28344 0.0
C3425 C 0.33262 0.34979 0.24619 0.0
C3426 C 0.65745 0.33766 0.27015 0.0
C3427 C 0.65616 0.32119 0.26168 0.0
H3428 H 0.66946 0.36109 0.26573 0.0
C3429 C 0.66588 0.31603 0.2408 0.0
H3430 H 0.65026 0.34196 0.28638 0.0
C3431 C 0.67681 0.32699 0.22889 0.0
C3432 C 0.67835 0.34338 0.23762 0.0
H3433 H 0.66495 0.3035 0.23353 0.0
H3434 H 0.68399 0.32262 0.21269 0.0
C3435 C 0.66845 0.34862 0.25829 0.0
C3436 C 0.66366 0.65042 0.25103 0.0
C3437 C 0.67878 0.65588 0.26131 0.0
H3438 H 0.64167 0.65684 0.23043 0.0
C3439 C 0.68296 0.67269 0.2593 0.0
H3440 H 0.6602 0.63749 0.25211 0.0
C3441 C 0.6723 0.68381 0.24717 0.0
C3442 C 0.65725 0.67836 0.23654 0.0
H3443 H 0.69441 0.6773 0.26743 0.0
H3444 H 0.6758 0.69673 0.24643 0.0
C3445 C 0.65304 0.66152 0.23868 0.0
C3446 C 0.33462 0.65308 0.25461 0.0
C3447 C 0.32176 0.65908 0.23892 0.0
H3448 H 0.35542 0.659 0.27848 0.0
C3449 C 0.32029 0.6763 0.23546 0.0
H3450 H 0.33601 0.63995 0.25817 0.0
C3451 C 0.33122 0.68719 0.24757 0.0
C3452 C 0.34405 0.68113 0.26311 0.0
H3453 H 0.31081 0.68143 0.22312 0.0
H3454 H 0.32981 0.70037 0.24446 0.0
C3455 C 0.34571 0.66397 0.26639 0.0
loop_
_geom_bond_atom_site_label_1
_geom_bond_atom_site_label_2
_geom_bond_distance
_geom_bond_site_symmetry_2
_ccdc_geom_bond_type
Li0 N17 1.990 . S
Li0 O60 1.956 . S
Li0 O61 1.970 . S
Li0 O62 1.961 . S
Li1 N25 1.990 . S
Li1 O60 1.970 . S
Li1 O61 1.956 . S
Li1 O63 1.961 . S
Li2 N47 1.990 . S
Li2 O60 1.961 . S
Li2 O62 1.956 . S
Li2 O63 1.970 . S
Li3 N53 1.990 . S
Li3 O61 1.961 . S
Li3 O62 1.970 . S
Li3 O63 1.956 . S
C4 C6 1.348 . S
C4 C7 1.356 . S
C4 O60 1.325 . S
N5 C8 1.314 . S
N5 C9 1.279 . S
C6 C4 1.348 . S
C6 C8 1.353 . S
C6 H64 0.929 . S
C7 C4 1.356 . S
C7 C9 1.358 . S
C7 H65 0.930 . S
C8 N5 1.314 . S
C8 C6 1.353 . S
C8 H66 0.930 . S
C9 N5 1.279 . S
C9 C7 1.358 . S
C9 H67 0.930 . S
C10 C13 1.348 . S
C10 C14 1.356 . S
C10 O61 1.325 . S
C11 N12 1.279 . S
C11 C14 1.358 . S
C11 H68 0.930 . S
N12 C11 1.279 . S
N12 C15 1.314 . S
C13 C10 1.348 . S
C13 C15 1.353 . S
C13 H69 0.929 . S
C14 C10 1.356 . S
C14 C11 1.358 . S
C14 H70 0.930 . S
C15 N12 1.314 . S
C15 C13 1.353 . S
C15 H71 0.930 . S
C16 N17 1.314 . S
C16 C21 1.353 . S
C16 H22 0.930 . S
N17 Li0 1.990 . S
N17 C16 1.314 . S
N17 C19 1.279 . S
C18 C19 1.358 . S
C18 C20 1.356 . S
C18 H72 0.930 . S
C19 N17 1.279 . S
C19 C18 1.358 . S
C19 H23 0.930 . S
C20 C18 1.356 . S
C20 C21 1.348 . S
C21 C16 1.353 . S
C21 C20 1.348 . S
C21 H73 0.929 . S
H22 C16 0.930 . S
H23 C19 0.930 . S
C24 N25 1.314 . S
C24 C26 1.353 . S
C24 H30 0.930 . S
N25 Li1 1.990 . S
N25 C24 1.314 . S
N25 C28 1.279 . S
C26 C24 1.353 . S
C26 C29 1.348 . S
C26 H74 0.929 . S
C27 C28 1.358 . S
C27 C29 1.356 . S
C27 H75 0.930 . S
C28 N25 1.279 . S
C28 C27 1.358 . S
C28 H31 0.930 . S
C29 C26 1.348 . S
C29 C27 1.356 . S
H30 C24 0.930 . S
H31 C28 0.930 . S
C32 C34 1.348 . S
C32 C35 1.356 . S
C32 O62 1.325 . S
N33 C36 1.314 . S
N33 C37 1.279 . S
C34 C32 1.348 . S
C34 C36 1.353 . S
C34 H76 0.929 . S
C35 C32 1.356 . S
C35 C37 1.358 . S
C35 H77 0.930 . S
C36 N33 1.314 . S
C36 C34 1.353 . S
C36 H78 0.930 . S
C37 N33 1.279 . S
C37 C35 1.358 . S
C37 H79 0.930 . S
C38 C39 1.348 . S
C38 C40 1.356 . S
C38 O63 1.325 . S
C39 C38 1.348 . S
C39 C41 1.353 . S
C39 H80 0.929 . S
C40 C38 1.356 . S
C40 C42 1.358 . S
C40 H81 0.930 . S
C41 C39 1.353 . S
C41 N43 1.314 . S
C41 H82 0.930 . S
C42 C40 1.358 . S
C42 N43 1.279 . S
C42 H83 0.930 . S
N43 C41 1.314 . S
N43 C42 1.279 . S
C44 C46 1.353 . S
C44 N47 1.314 . S
C44 H50 0.930 . S
C45 N47 1.279 . S
C45 C48 1.358 . S
C45 H51 0.930 . S
C46 C44 1.353 . S
C46 C49 1.348 . S
C46 H84 0.929 . S
N47 Li2 1.990 . S
N47 C44 1.314 . S
N47 C45 1.279 . S
C48 C45 1.358 . S
C48 C49 1.356 . S
C48 H85 0.930 . S
C49 C46 1.348 . S
C49 C48 1.356 . S
H50 C44 0.930 . S
H51 C45 0.930 . S
C52 N53 1.314 . S
C52 C54 1.353 . S
C52 H58 0.930 . S
N53 Li3 1.990 . S
N53 C52 1.314 . S
N53 C56 1.279 . S
C54 C52 1.353 . S
C54 C57 1.348 . S
C54 H86 0.929 . S
C55 C56 1.358 . S
C55 C57 1.356 . S
C55 H87 0.930 . S
C56 N53 1.279 . S
C56 C55 1.358 . S
C56 H59 0.930 . S
C57 C54 1.348 . S
C57 C55 1.356 . S
H58 C52 0.930 . S
H59 C56 0.930 . S
O60 Li0 1.956 . S
O60 Li1 1.970 . S
O60 Li2 1.961 . S
O60 C4 1.325 . S
O61 Li0 1.970 . S
O61 Li1 1.956 . S
O61 Li3 1.961 . S
O61 C10 1.325 . S
O62 Li0 1.961 . S
O62 Li2 1.956 . S
O62 Li3 1.970 . S
O62 C32 1.325 . S
O63 Li1 1.961 . S
O63 Li2 1.970 . S
O63 Li3 1.956 . S
O63 C38 1.325 . S
H64 C6 0.929 . S
H65 C7 0.930 . S
H66 C8 0.930 . S
H67 C9 0.930 . S
H68 C11 0.930 . S
H69 C13 0.929 . S
H70 C14 0.930 . S
H71 C15 0.930 . S
H72 C18 0.930 . S
H73 C21 0.929 . S
H74 C26 0.929 . S
H75 C27 0.930 . S
H76 C34 0.929 . S
H77 C35 0.930 . S
H78 C36 0.930 . S
H79 C37 0.930 . S
H80 C39 0.929 . S
H81 C40 0.930 . S
H82 C41 0.930 . S
H83 C42 0.930 . S
H84 C46 0.929 . S
H85 C48 0.930 . S
H86 C54 0.929 . S
H87 C55 0.930 . S
Li88 N105 1.990 . S
Li88 O148 1.956 . S
Li88 O149 1.970 . S
Li88 O150 1.961 . S
Li89 N113 1.990 . S
Li89 O148 1.970 . S
Li89 O149 1.956 . S
Li89 O151 1.961 . S
Li90 N135 1.990 . S
Li90 O148 1.961 . S
Li90 O150 1.956 . S
Li90 O151 1.970 . S
Li91 N141 1.990 . S
Li91 O149 1.961 . S
Li91 O150 1.970 . S
Li91 O151 1.956 . S
C92 C94 1.348 . S
C92 C95 1.356 . S
C92 O148 1.325 . S
N93 C96 1.314 . S
N93 C97 1.279 . S
C94 C92 1.348 . S
C94 C96 1.353 . S
C94 H152 0.929 . S
C95 C92 1.356 . S
C95 C97 1.358 . S
C95 H153 0.930 . S
C96 N93 1.314 . S
C96 C94 1.353 . S
C96 H154 0.930 . S
C97 N93 1.279 . S
C97 C95 1.358 . S
C97 H155 0.930 . S
C98 C101 1.348 . S
C98 C102 1.356 . S
C98 O149 1.325 . S
C99 N100 1.279 . S
C99 C102 1.358 . S
C99 H156 0.930 . S
N100 C99 1.279 . S
N100 C103 1.314 . S
C101 C98 1.348 . S
C101 C103 1.353 . S
C101 H157 0.929 . S
C102 C98 1.356 . S
C102 C99 1.358 . S
C102 H158 0.930 . S
C103 N100 1.314 . S
C103 C101 1.353 . S
C103 H159 0.930 . S
C104 N105 1.314 . S
C104 C109 1.353 . S
C104 H110 0.930 . S
N105 Li88 1.990 . S
N105 C104 1.314 . S
N105 C107 1.279 . S
C106 C107 1.358 . S
C106 C108 1.356 . S
C106 H160 0.930 . S
C107 N105 1.279 . S
C107 C106 1.358 . S
C107 H111 0.930 . S
C108 C106 1.356 . S
C108 C109 1.348 . S
C109 C104 1.353 . S
C109 C108 1.348 . S
C109 H161 0.929 . S
H110 C104 0.930 . S
H111 C107 0.930 . S
C112 N113 1.314 . S
C112 C114 1.353 . S
C112 H118 0.930 . S
N113 Li89 1.990 . S
N113 C112 1.314 . S
N113 C116 1.279 . S
C114 C112 1.353 . S
C114 C117 1.348 . S
C114 H162 0.929 . S
C115 C116 1.358 . S
C115 C117 1.356 . S
C115 H163 0.930 . S
C116 N113 1.279 . S
C116 C115 1.358 . S
C116 H119 0.930 . S
C117 C114 1.348 . S
C117 C115 1.356 . S
H118 C112 0.930 . S
H119 C116 0.930 . S
C120 C122 1.348 . S
C120 C123 1.356 . S
C120 O150 1.325 . S
N121 C124 1.314 . S
N121 C125 1.279 . S
C122 C120 1.348 . S
C122 C124 1.353 . S
C122 H164 0.929 . S
C123 C120 1.356 . S
C123 C125 1.358 . S
C123 H165 0.930 . S
C124 N121 1.314 . S
C124 C122 1.353 . S
C124 H166 0.930 . S
C125 N121 1.279 . S
C125 C123 1.358 . S
C125 H167 0.930 . S
C126 C127 1.348 . S
C126 C128 1.356 . S
C126 O151 1.325 . S
C127 C126 1.348 . S
C127 C129 1.353 . S
C127 H168 0.929 . S
C128 C126 1.356 . S
C128 C130 1.358 . S
C128 H169 0.930 . S
C129 C127 1.353 . S
C129 N131 1.314 . S
C129 H170 0.930 . S
C130 C128 1.358 . S
C130 N131 1.279 . S
C130 H171 0.930 . S
N131 C129 1.314 . S
N131 C130 1.279 . S
C132 C134 1.353 . S
C132 N135 1.314 . S
C132 H138 0.930 . S
C133 N135 1.279 . S
C133 C136 1.358 . S
C133 H139 0.930 . S
C134 C132 1.353 . S
C134 C137 1.348 . S
C134 H172 0.929 . S
N135 Li90 1.990 . S
N135 C132 1.314 . S
N135 C133 1.279 . S
C136 C133 1.358 . S
C136 C137 1.356 . S
C136 H173 0.930 . S
C137 C134 1.348 . S
C137 C136 1.356 . S
H138 C132 0.930 . S
H139 C133 0.930 . S
C140 N141 1.314 . S
C140 C142 1.353 . S
C140 H146 0.930 . S
N141 Li91 1.990 . S
N141 C140 1.314 . S
N141 C144 1.279 . S
C142 C140 1.353 . S
C142 C145 1.348 . S
C142 H174 0.929 . S
C143 C144 1.358 . S
C143 C145 1.356 . S
C143 H175 0.930 . S
C144 N141 1.279 . S
C144 C143 1.358 . S
C144 H147 0.930 . S
C145 C142 1.348 . S
C145 C143 1.356 . S
H146 C140 0.930 . S
H147 C144 0.930 . S
O148 Li88 1.956 . S
O148 Li89 1.970 . S
O148 Li90 1.961 . S
O148 C92 1.325 . S
O149 Li88 1.970 . S
O149 Li89 1.956 . S
O149 Li91 1.961 . S
O149 C98 1.325 . S
O150 Li88 1.961 . S
O150 Li90 1.956 . S
O150 Li91 1.970 . S
O150 C120 1.325 . S
O151 Li89 1.961 . S
O151 Li90 1.970 . S
O151 Li91 1.956 . S
O151 C126 1.325 . S
H152 C94 0.929 . S
H153 C95 0.930 . S
H154 C96 0.930 . S
H155 C97 0.930 . S
H156 C99 0.930 . S
H157 C101 0.929 . S
H158 C102 0.930 . S
H159 C103 0.930 . S
H160 C106 0.930 . S
H161 C109 0.929 . S
H162 C114 0.929 . S
H163 C115 0.930 . S
H164 C122 0.929 . S
H165 C123 0.930 . S
H166 C124 0.930 . S
H167 C125 0.930 . S
H168 C127 0.929 . S
H169 C128 0.930 . S
H170 C129 0.930 . S
H171 C130 0.930 . S
H172 C134 0.929 . S
H173 C136 0.930 . S
H174 C142 0.929 . S
H175 C143 0.930 . S
Li176 N193 1.990 . S
Li176 O236 1.956 . S
Li176 O237 1.970 . S
Li176 O238 1.961 . S
Li177 N201 1.990 . S
Li177 O236 1.970 . S
Li177 O237 1.956 . S
Li177 O239 1.961 . S
Li178 N223 1.990 . S
Li178 O236 1.961 . S
Li178 O238 1.956 . S
Li178 O239 1.970 . S
Li179 N229 1.990 . S
Li179 O237 1.961 . S
Li179 O238 1.970 . S
Li179 O239 1.956 . S
C180 C182 1.348 . S
C180 C183 1.356 . S
C180 O236 1.325 . S
N181 C184 1.314 . S
N181 C185 1.279 . S
C182 C180 1.348 . S
C182 C184 1.353 . S
C182 H240 0.929 . S
C183 C180 1.356 . S
C183 C185 1.358 . S
C183 H241 0.930 . S
C184 N181 1.314 . S
C184 C182 1.353 . S
C184 H242 0.930 . S
C185 N181 1.279 . S
C185 C183 1.358 . S
C185 H243 0.930 . S
C186 C189 1.348 . S
C186 C190 1.356 . S
C186 O237 1.325 . S
C187 N188 1.279 . S
C187 C190 1.358 . S
C187 H244 0.930 . S
N188 C187 1.279 . S
N188 C191 1.314 . S
C189 C186 1.348 . S
C189 C191 1.353 . S
C189 H245 0.929 . S
C190 C186 1.356 . S
C190 C187 1.358 . S
C190 H246 0.930 . S
C191 N188 1.314 . S
C191 C189 1.353 . S
C191 H247 0.930 . S
C192 N193 1.314 . S
C192 C197 1.353 . S
C192 H198 0.930 . S
N193 Li176 1.990 . S
N193 C192 1.314 . S
N193 C195 1.279 . S
C194 C195 1.358 . S
C194 C196 1.356 . S
C194 H248 0.930 . S
C195 N193 1.279 . S
C195 C194 1.358 . S
C195 H199 0.930 . S
C196 C194 1.356 . S
C196 C197 1.348 . S
C197 C192 1.353 . S
C197 C196 1.348 . S
C197 H249 0.929 . S
H198 C192 0.930 . S
H199 C195 0.930 . S
C200 N201 1.314 . S
C200 C202 1.353 . S
C200 H206 0.930 . S
N201 Li177 1.990 . S
N201 C200 1.314 . S
N201 C204 1.279 . S
C202 C200 1.353 . S
C202 C205 1.348 . S
C202 H250 0.929 . S
C203 C204 1.358 . S
C203 C205 1.356 . S
C203 H251 0.930 . S
C204 N201 1.279 . S
C204 C203 1.358 . S
C204 H207 0.930 . S
C205 C202 1.348 . S
C205 C203 1.356 . S
H206 C200 0.930 . S
H207 C204 0.930 . S
C208 C210 1.348 . S
C208 C211 1.356 . S
C208 O238 1.325 . S
N209 C212 1.314 . S
N209 C213 1.279 . S
C210 C208 1.348 . S
C210 C212 1.353 . S
C210 H252 0.929 . S
C211 C208 1.356 . S
C211 C213 1.358 . S
C211 H253 0.930 . S
C212 N209 1.314 . S
C212 C210 1.353 . S
C212 H254 0.930 . S
C213 N209 1.279 . S
C213 C211 1.358 . S
C213 H255 0.930 . S
C214 C215 1.348 . S
C214 C216 1.356 . S
C214 O239 1.325 . S
C215 C214 1.348 . S
C215 C217 1.353 . S
C215 H256 0.929 . S
C216 C214 1.356 . S
C216 C218 1.358 . S
C216 H257 0.930 . S
C217 C215 1.353 . S
C217 N219 1.314 . S
C217 H258 0.930 . S
C218 C216 1.358 . S
C218 N219 1.279 . S
C218 H259 0.930 . S
N219 C217 1.314 . S
N219 C218 1.279 . S
C220 C222 1.353 . S
C220 N223 1.314 . S
C220 H226 0.930 . S
C221 N223 1.279 . S
C221 C224 1.358 . S
C221 H227 0.930 . S
C222 C220 1.353 . S
C222 C225 1.348 . S
C222 H260 0.929 . S
N223 Li178 1.990 . S
N223 C220 1.314 . S
N223 C221 1.279 . S
C224 C221 1.358 . S
C224 C225 1.356 . S
C224 H261 0.930 . S
C225 C222 1.348 . S
C225 C224 1.356 . S
H226 C220 0.930 . S
H227 C221 0.930 . S
C228 N229 1.314 . S
C228 C230 1.353 . S
C228 H234 0.930 . S
N229 Li179 1.990 . S
N229 C228 1.314 . S
N229 C232 1.279 . S
C230 C228 1.353 . S
C230 C233 1.348 . S
C230 H262 0.929 . S
C231 C232 1.358 . S
C231 C233 1.356 . S
C231 H263 0.930 . S
C232 N229 1.279 . S
C232 C231 1.358 . S
C232 H235 0.930 . S
C233 C230 1.348 . S
C233 C231 1.356 . S
H234 C228 0.930 . S
H235 C232 0.930 . S
O236 Li176 1.956 . S
O236 Li177 1.970 . S
O236 Li178 1.961 . S
O236 C180 1.325 . S
O237 Li176 1.970 . S
O237 Li177 1.956 . S
O237 Li179 1.961 . S
O237 C186 1.325 . S
O238 Li176 1.961 . S
O238 Li178 1.956 . S
O238 Li179 1.970 . S
O238 C208 1.325 . S
O239 Li177 1.961 . S
O239 Li178 1.970 . S
O239 Li179 1.956 . S
O239 C214 1.325 . S
H240 C182 0.929 . S
H241 C183 0.930 . S
H242 C184 0.930 . S
H243 C185 0.930 . S
H244 C187 0.930 . S
H245 C189 0.929 . S
H246 C190 0.930 . S
H247 C191 0.930 . S
H248 C194 0.930 . S
H249 C197 0.929 . S
H250 C202 0.929 . S
H251 C203 0.930 . S
H252 C210 0.929 . S
H253 C211 0.930 . S
H254 C212 0.930 . S
H255 C213 0.930 . S
H256 C215 0.929 . S
H257 C216 0.930 . S
H258 C217 0.930 . S
H259 C218 0.930 . S
H260 C222 0.929 . S
H261 C224 0.930 . S
H262 C230 0.929 . S
H263 C231 0.930 . S
Li264 N281 1.990 . S
Li264 O324 1.956 . S
Li264 O325 1.970 . S
Li264 O326 1.961 . S
Li265 N289 1.990 . S
Li265 O324 1.970 . S
Li265 O325 1.956 . S
Li265 O327 1.961 . S
Li266 N311 1.990 . S
Li266 O324 1.961 . S
Li266 O326 1.956 . S
Li266 O327 1.970 . S
Li267 N317 1.990 . S
Li267 O325 1.961 . S
Li267 O326 1.970 . S
Li267 O327 1.956 . S
C268 C270 1.348 . S
C268 C271 1.356 . S
C268 O324 1.325 . S
N269 C272 1.314 . S
N269 C273 1.279 . S
C270 C268 1.348 . S
C270 C272 1.353 . S
C270 H328 0.929 . S
C271 C268 1.356 . S
C271 C273 1.358 . S
C271 H329 0.930 . S
C272 N269 1.314 . S
C272 C270 1.353 . S
C272 H330 0.930 . S
C273 N269 1.279 . S
C273 C271 1.358 . S
C273 H331 0.930 . S
C274 C277 1.348 . S
C274 C278 1.356 . S
C274 O325 1.325 . S
C275 N276 1.279 . S
C275 C278 1.358 . S
C275 H332 0.930 . S
N276 C275 1.279 . S
N276 C279 1.314 . S
C277 C274 1.348 . S
C277 C279 1.353 . S
C277 H333 0.929 . S
C278 C274 1.356 . S
C278 C275 1.358 . S
C278 H334 0.930 . S
C279 N276 1.314 . S
C279 C277 1.353 . S
C279 H335 0.930 . S
C280 N281 1.314 . S
C280 C285 1.353 . S
C280 H286 0.930 . S
N281 Li264 1.990 . S
N281 C280 1.314 . S
N281 C283 1.279 . S
C282 C283 1.358 . S
C282 C284 1.356 . S
C282 H336 0.930 . S
C283 N281 1.279 . S
C283 C282 1.358 . S
C283 H287 0.930 . S
C284 C282 1.356 . S
C284 C285 1.348 . S
C285 C280 1.353 . S
C285 C284 1.348 . S
C285 H337 0.929 . S
H286 C280 0.930 . S
H287 C283 0.930 . S
C288 N289 1.314 . S
C288 C290 1.353 . S
C288 H294 0.930 . S
N289 Li265 1.990 . S
N289 C288 1.314 . S
N289 C292 1.279 . S
C290 C288 1.353 . S
C290 C293 1.348 . S
C290 H338 0.929 . S
C291 C292 1.358 . S
C291 C293 1.356 . S
C291 H339 0.930 . S
C292 N289 1.279 . S
C292 C291 1.358 . S
C292 H295 0.930 . S
C293 C290 1.348 . S
C293 C291 1.356 . S
H294 C288 0.930 . S
H295 C292 0.930 . S
C296 C298 1.348 . S
C296 C299 1.356 . S
C296 O326 1.325 . S
N297 C300 1.314 . S
N297 C301 1.279 . S
C298 C296 1.348 . S
C298 C300 1.353 . S
C298 H340 0.929 . S
C299 C296 1.356 . S
C299 C301 1.358 . S
C299 H341 0.930 . S
C300 N297 1.314 . S
C300 C298 1.353 . S
C300 H342 0.930 . S
C301 N297 1.279 . S
C301 C299 1.358 . S
C301 H343 0.930 . S
C302 C303 1.348 . S
C302 C304 1.356 . S
C302 O327 1.325 . S
C303 C302 1.348 . S
C303 C305 1.353 . S
C303 H344 0.929 . S
C304 C302 1.356 . S
C304 C306 1.358 . S
C304 H345 0.930 . S
C305 C303 1.353 . S
C305 N307 1.314 . S
C305 H346 0.930 . S
C306 C304 1.358 . S
C306 N307 1.279 . S
C306 H347 0.930 . S
N307 C305 1.314 . S
N307 C306 1.279 . S
C308 C310 1.353 . S
C308 N311 1.314 . S
C308 H314 0.930 . S
C309 N311 1.279 . S
C309 C312 1.358 . S
C309 H315 0.930 . S
C310 C308 1.353 . S
C310 C313 1.348 . S
C310 H348 0.929 . S
N311 Li266 1.990 . S
N311 C308 1.314 . S
N311 C309 1.279 . S
C312 C309 1.358 . S
C312 C313 1.356 . S
C312 H349 0.930 . S
C313 C310 1.348 . S
C313 C312 1.356 . S
H314 C308 0.930 . S
H315 C309 0.930 . S
C316 N317 1.314 . S
C316 C318 1.353 . S
C316 H322 0.930 . S
N317 Li267 1.990 . S
N317 C316 1.314 . S
N317 C320 1.279 . S
C318 C316 1.353 . S
C318 C321 1.348 . S
C318 H350 0.929 . S
C319 C320 1.358 . S
C319 C321 1.356 . S
C319 H351 0.930 . S
C320 N317 1.279 . S
C320 C319 1.358 . S
C320 H323 0.930 . S
C321 C318 1.348 . S
C321 C319 1.356 . S
H322 C316 0.930 . S
H323 C320 0.930 . S
O324 Li264 1.956 . S
O324 Li265 1.970 . S
O324 Li266 1.961 . S
O324 C268 1.325 . S
O325 Li264 1.970 . S
O325 Li265 1.956 . S
O325 Li267 1.961 . S
O325 C274 1.325 . S
O326 Li264 1.961 . S
O326 Li266 1.956 . S
O326 Li267 1.970 . S
O326 C296 1.325 . S
O327 Li265 1.961 . S
O327 Li266 1.970 . S
O327 Li267 1.956 . S
O327 C302 1.325 . S
H328 C270 0.929 . S
H329 C271 0.930 . S
H330 C272 0.930 . S
H331 C273 0.930 . S
H332 C275 0.930 . S
H333 C277 0.929 . S
H334 C278 0.930 . S
H335 C279 0.930 . S
H336 C282 0.930 . S
H337 C285 0.929 . S
H338 C290 0.929 . S
H339 C291 0.930 . S
H340 C298 0.929 . S
H341 C299 0.930 . S
H342 C300 0.930 . S
H343 C301 0.930 . S
H344 C303 0.929 . S
H345 C304 0.930 . S
H346 C305 0.930 . S
H347 C306 0.930 . S
H348 C310 0.929 . S
H349 C312 0.930 . S
H350 C318 0.929 . S
H351 C319 0.930 . S
Li352 N369 1.990 . S
Li352 O412 1.956 . S
Li352 O413 1.970 . S
Li352 O414 1.961 . S
Li353 N377 1.990 . S
Li353 O412 1.970 . S
Li353 O413 1.956 . S
Li353 O415 1.961 . S
Li354 N399 1.990 . S
Li354 O412 1.961 . S
Li354 O414 1.956 . S
Li354 O415 1.970 . S
Li355 N405 1.990 . S
Li355 O413 1.961 . S
Li355 O414 1.970 . S
Li355 O415 1.956 . S
C356 C358 1.348 . S
C356 C359 1.356 . S
C356 O412 1.325 . S
N357 C360 1.314 . S
N357 C361 1.279 . S
C358 C356 1.348 . S
C358 C360 1.353 . S
C358 H416 0.929 . S
C359 C356 1.356 . S
C359 C361 1.358 . S
C359 H417 0.930 . S
C360 N357 1.314 . S
C360 C358 1.353 . S
C360 H418 0.930 . S
C361 N357 1.279 . S
C361 C359 1.358 . S
C361 H419 0.930 . S
C362 C365 1.348 . S
C362 C366 1.356 . S
C362 O413 1.325 . S
C363 N364 1.279 . S
C363 C366 1.358 . S
C363 H420 0.930 . S
N364 C363 1.279 . S
N364 C367 1.314 . S
C365 C362 1.348 . S
C365 C367 1.353 . S
C365 H421 0.929 . S
C366 C362 1.356 . S
C366 C363 1.358 . S
C366 H422 0.930 . S
C367 N364 1.314 . S
C367 C365 1.353 . S
C367 H423 0.930 . S
C368 N369 1.314 . S
C368 C373 1.353 . S
C368 H374 0.930 . S
N369 Li352 1.990 . S
N369 C368 1.314 . S
N369 C371 1.279 . S
C370 C371 1.358 . S
C370 C372 1.356 . S
C370 H424 0.930 . S
C371 N369 1.279 . S
C371 C370 1.358 . S
C371 H375 0.930 . S
C372 C370 1.356 . S
C372 C373 1.348 . S
C373 C368 1.353 . S
C373 C372 1.348 . S
C373 H425 0.929 . S
H374 C368 0.930 . S
H375 C371 0.930 . S
C376 N377 1.314 . S
C376 C378 1.353 . S
C376 H382 0.930 . S
N377 Li353 1.990 . S
N377 C376 1.314 . S
N377 C380 1.279 . S
C378 C376 1.353 . S
C378 C381 1.348 . S
C378 H426 0.929 . S
C379 C380 1.358 . S
C379 C381 1.356 . S
C379 H427 0.930 . S
C380 N377 1.279 . S
C380 C379 1.358 . S
C380 H383 0.930 . S
C381 C378 1.348 . S
C381 C379 1.356 . S
H382 C376 0.930 . S
H383 C380 0.930 . S
C384 C386 1.348 . S
C384 C387 1.356 . S
C384 O414 1.325 . S
N385 C388 1.314 . S
N385 C389 1.279 . S
C386 C384 1.348 . S
C386 C388 1.353 . S
C386 H428 0.929 . S
C387 C384 1.356 . S
C387 C389 1.358 . S
C387 H429 0.930 . S
C388 N385 1.314 . S
C388 C386 1.353 . S
C388 H430 0.930 . S
C389 N385 1.279 . S
C389 C387 1.358 . S
C389 H431 0.930 . S
C390 C391 1.348 . S
C390 C392 1.356 . S
C390 O415 1.325 . S
C391 C390 1.348 . S
C391 C393 1.353 . S
C391 H432 0.929 . S
C392 C390 1.356 . S
C392 C394 1.358 . S
C392 H433 0.930 . S
C393 C391 1.353 . S
C393 N395 1.314 . S
C393 H434 0.930 . S
C394 C392 1.358 . S
C394 N395 1.279 . S
C394 H435 0.930 . S
N395 C393 1.314 . S
N395 C394 1.279 . S
C396 C398 1.353 . S
C396 N399 1.314 . S
C396 H402 0.930 . S
C397 N399 1.279 . S
C397 C400 1.358 . S
C397 H403 0.930 . S
C398 C396 1.353 . S
C398 C401 1.348 . S
C398 H436 0.929 . S
N399 Li354 1.990 . S
N399 C396 1.314 . S
N399 C397 1.279 . S
C400 C397 1.358 . S
C400 C401 1.356 . S
C400 H437 0.930 . S
C401 C398 1.348 . S
C401 C400 1.356 . S
H402 C396 0.930 . S
H403 C397 0.930 . S
C404 N405 1.314 . S
C404 C406 1.353 . S
C404 H410 0.930 . S
N405 Li355 1.990 . S
N405 C404 1.314 . S
N405 C408 1.279 . S
C406 C404 1.353 . S
C406 C409 1.348 . S
C406 H438 0.929 . S
C407 C408 1.358 . S
C407 C409 1.356 . S
C407 H439 0.930 . S
C408 N405 1.279 . S
C408 C407 1.358 . S
C408 H411 0.930 . S
C409 C406 1.348 . S
C409 C407 1.356 . S
H410 C404 0.930 . S
H411 C408 0.930 . S
O412 Li352 1.956 . S
O412 Li353 1.970 . S
O412 Li354 1.961 . S
O412 C356 1.325 . S
O413 Li352 1.970 . S
O413 Li353 1.956 . S
O413 Li355 1.961 . S
O413 C362 1.325 . S
O414 Li352 1.961 . S
O414 Li354 1.956 . S
O414 Li355 1.970 . S
O414 C384 1.325 . S
O415 Li353 1.961 . S
O415 Li354 1.970 . S
O415 Li355 1.956 . S
O415 C390 1.325 . S
H416 C358 0.929 . S
H417 C359 0.930 . S
H418 C360 0.930 . S
H419 C361 0.930 . S
H420 C363 0.930 . S
H421 C365 0.929 . S
H422 C366 0.930 . S
H423 C367 0.930 . S
H424 C370 0.930 . S
H425 C373 0.929 . S
H426 C378 0.929 . S
H427 C379 0.930 . S
H428 C386 0.929 . S
H429 C387 0.930 . S
H430 C388 0.930 . S
H431 C389 0.930 . S
H432 C391 0.929 . S
H433 C392 0.930 . S
H434 C393 0.930 . S
H435 C394 0.930 . S
H436 C398 0.929 . S
H437 C400 0.930 . S
H438 C406 0.929 . S
H439 C407 0.930 . S
Li440 N457 1.990 . S
Li440 O500 1.956 . S
Li440 O501 1.970 . S
Li440 O502 1.961 . S
Li441 N465 1.990 . S
Li441 O500 1.970 . S
Li441 O501 1.956 . S
Li441 O503 1.961 . S
Li442 N487 1.990 . S
Li442 O500 1.961 . S
Li442 O502 1.956 . S
Li442 O503 1.970 . S
Li443 N493 1.990 . S
Li443 O501 1.961 . S
Li443 O502 1.970 . S
Li443 O503 1.956 . S
C444 C446 1.348 . S
C444 C447 1.356 . S
C444 O500 1.325 . S
N445 C448 1.314 . S
N445 C449 1.279 . S
C446 C444 1.348 . S
C446 C448 1.353 . S
C446 H504 0.929 . S
C447 C444 1.356 . S
C447 C449 1.358 . S
C447 H505 0.930 . S
C448 N445 1.314 . S
C448 C446 1.353 . S
C448 H506 0.930 . S
C449 N445 1.279 . S
C449 C447 1.358 . S
C449 H507 0.930 . S
C450 C453 1.348 . S
C450 C454 1.356 . S
C450 O501 1.325 . S
C451 N452 1.279 . S
C451 C454 1.358 . S
C451 H508 0.930 . S
N452 C451 1.279 . S
N452 C455 1.314 . S
C453 C450 1.348 . S
C453 C455 1.353 . S
C453 H509 0.929 . S
C454 C450 1.356 . S
C454 C451 1.358 . S
C454 H510 0.930 . S
C455 N452 1.314 . S
C455 C453 1.353 . S
C455 H511 0.930 . S
C456 N457 1.314 . S
C456 C461 1.353 . S
C456 H462 0.930 . S
N457 Li440 1.990 . S
N457 C456 1.314 . S
N457 C459 1.279 . S
C458 C459 1.358 . S
C458 C460 1.356 . S
C458 H512 0.930 . S
C459 N457 1.279 . S
C459 C458 1.358 . S
C459 H463 0.930 . S
C460 C458 1.356 . S
C460 C461 1.348 . S
C461 C456 1.353 . S
C461 C460 1.348 . S
C461 H513 0.929 . S
H462 C456 0.930 . S
H463 C459 0.930 . S
C464 N465 1.314 . S
C464 C466 1.353 . S
C464 H470 0.930 . S
N465 Li441 1.990 . S
N465 C464 1.314 . S
N465 C468 1.279 . S
C466 C464 1.353 . S
C466 C469 1.348 . S
C466 H514 0.929 . S
C467 C468 1.358 . S
C467 C469 1.356 . S
C467 H515 0.930 . S
C468 N465 1.279 . S
C468 C467 1.358 . S
C468 H471 0.930 . S
C469 C466 1.348 . S
C469 C467 1.356 . S
H470 C464 0.930 . S
H471 C468 0.930 . S
C472 C474 1.348 . S
C472 C475 1.356 . S
C472 O502 1.325 . S
N473 C476 1.314 . S
N473 C477 1.279 . S
C474 C472 1.348 . S
C474 C476 1.353 . S
C474 H516 0.929 . S
C475 C472 1.356 . S
C475 C477 1.358 . S
C475 H517 0.930 . S
C476 N473 1.314 . S
C476 C474 1.353 . S
C476 H518 0.930 . S
C477 N473 1.279 . S
C477 C475 1.358 . S
C477 H519 0.930 . S
C478 C479 1.348 . S
C478 C480 1.356 . S
C478 O503 1.325 . S
C479 C478 1.348 . S
C479 C481 1.353 . S
C479 H520 0.929 . S
C480 C478 1.356 . S
C480 C482 1.358 . S
C480 H521 0.930 . S
C481 C479 1.353 . S
C481 N483 1.314 . S
C481 H522 0.930 . S
C482 C480 1.358 . S
C482 N483 1.279 . S
C482 H523 0.930 . S
N483 C481 1.314 . S
N483 C482 1.279 . S
C484 C486 1.353 . S
C484 N487 1.314 . S
C484 H490 0.930 . S
C485 N487 1.279 . S
C485 C488 1.358 . S
C485 H491 0.930 . S
C486 C484 1.353 . S
C486 C489 1.348 . S
C486 H524 0.929 . S
N487 Li442 1.990 . S
N487 C484 1.314 . S
N487 C485 1.279 . S
C488 C485 1.358 . S
C488 C489 1.356 . S
C488 H525 0.930 . S
C489 C486 1.348 . S
C489 C488 1.356 . S
H490 C484 0.930 . S
H491 C485 0.930 . S
C492 N493 1.314 . S
C492 C494 1.353 . S
C492 H498 0.930 . S
N493 Li443 1.990 . S
N493 C492 1.314 . S
N493 C496 1.279 . S
C494 C492 1.353 . S
C494 C497 1.348 . S
C494 H526 0.929 . S
C495 C496 1.358 . S
C495 C497 1.356 . S
C495 H527 0.930 . S
C496 N493 1.279 . S
C496 C495 1.358 . S
C496 H499 0.930 . S
C497 C494 1.348 . S
C497 C495 1.356 . S
H498 C492 0.930 . S
H499 C496 0.930 . S
O500 Li440 1.956 . S
O500 Li441 1.970 . S
O500 Li442 1.961 . S
O500 C444 1.325 . S
O501 Li440 1.970 . S
O501 Li441 1.956 . S
O501 Li443 1.961 . S
O501 C450 1.325 . S
O502 Li440 1.961 . S
O502 Li442 1.956 . S
O502 Li443 1.970 . S
O502 C472 1.325 . S
O503 Li441 1.961 . S
O503 Li442 1.970 . S
O503 Li443 1.956 . S
O503 C478 1.325 . S
H504 C446 0.929 . S
H505 C447 0.930 . S
H506 C448 0.930 . S
H507 C449 0.930 . S
H508 C451 0.930 . S
H509 C453 0.929 . S
H510 C454 0.930 . S
H511 C455 0.930 . S
H512 C458 0.930 . S
H513 C461 0.929 . S
H514 C466 0.929 . S
H515 C467 0.930 . S
H516 C474 0.929 . S
H517 C475 0.930 . S
H518 C476 0.930 . S
H519 C477 0.930 . S
H520 C479 0.929 . S
H521 C480 0.930 . S
H522 C481 0.930 . S
H523 C482 0.930 . S
H524 C486 0.929 . S
H525 C488 0.930 . S
H526 C494 0.929 . S
H527 C495 0.930 . S
Li528 N545 1.990 . S
Li528 O588 1.956 . S
Li528 O589 1.970 . S
Li528 O590 1.961 . S
Li529 N553 1.990 . S
Li529 O588 1.970 . S
Li529 O589 1.956 . S
Li529 O591 1.961 . S
Li530 N575 1.990 . S
Li530 O588 1.961 . S
Li530 O590 1.956 . S
Li530 O591 1.970 . S
Li531 N581 1.990 . S
Li531 O589 1.961 . S
Li531 O590 1.970 . S
Li531 O591 1.956 . S
C532 C534 1.348 . S
C532 C535 1.356 . S
C532 O588 1.325 . S
N533 C536 1.314 . S
N533 C537 1.279 . S
C534 C532 1.348 . S
C534 C536 1.353 . S
C534 H592 0.929 . S
C535 C532 1.356 . S
C535 C537 1.358 . S
C535 H593 0.930 . S
C536 N533 1.314 . S
C536 C534 1.353 . S
C536 H594 0.930 . S
C537 N533 1.279 . S
C537 C535 1.358 . S
C537 H595 0.930 . S
C538 C541 1.348 . S
C538 C542 1.356 . S
C538 O589 1.325 . S
C539 N540 1.279 . S
C539 C542 1.358 . S
C539 H596 0.930 . S
N540 C539 1.279 . S
N540 C543 1.314 . S
C541 C538 1.348 . S
C541 C543 1.353 . S
C541 H597 0.929 . S
C542 C538 1.356 . S
C542 C539 1.358 . S
C542 H598 0.930 . S
C543 N540 1.314 . S
C543 C541 1.353 . S
C543 H599 0.930 . S
C544 N545 1.314 . S
C544 C549 1.353 . S
C544 H550 0.930 . S
N545 Li528 1.990 . S
N545 C544 1.314 . S
N545 C547 1.279 . S
C546 C547 1.358 . S
C546 C548 1.356 . S
C546 H600 0.930 . S
C547 N545 1.279 . S
C547 C546 1.358 . S
C547 H551 0.930 . S
C548 C546 1.356 . S
C548 C549 1.348 . S
C549 C544 1.353 . S
C549 C548 1.348 . S
C549 H601 0.929 . S
H550 C544 0.930 . S
H551 C547 0.930 . S
C552 N553 1.314 . S
C552 C554 1.353 . S
C552 H558 0.930 . S
N553 Li529 1.990 . S
N553 C552 1.314 . S
N553 C556 1.279 . S
C554 C552 1.353 . S
C554 C557 1.348 . S
C554 H602 0.929 . S
C555 C556 1.358 . S
C555 C557 1.356 . S
C555 H603 0.930 . S
C556 N553 1.279 . S
C556 C555 1.358 . S
C556 H559 0.930 . S
C557 C554 1.348 . S
C557 C555 1.356 . S
H558 C552 0.930 . S
H559 C556 0.930 . S
C560 C562 1.348 . S
C560 C563 1.356 . S
C560 O590 1.325 . S
N561 C564 1.314 . S
N561 C565 1.279 . S
C562 C560 1.348 . S
C562 C564 1.353 . S
C562 H604 0.929 . S
C563 C560 1.356 . S
C563 C565 1.358 . S
C563 H605 0.930 . S
C564 N561 1.314 . S
C564 C562 1.353 . S
C564 H606 0.930 . S
C565 N561 1.279 . S
C565 C563 1.358 . S
C565 H607 0.930 . S
C566 C567 1.348 . S
C566 C568 1.356 . S
C566 O591 1.325 . S
C567 C566 1.348 . S
C567 C569 1.353 . S
C567 H608 0.929 . S
C568 C566 1.356 . S
C568 C570 1.358 . S
C568 H609 0.930 . S
C569 C567 1.353 . S
C569 N571 1.314 . S
C569 H610 0.930 . S
C570 C568 1.358 . S
C570 N571 1.279 . S
C570 H611 0.930 . S
N571 C569 1.314 . S
N571 C570 1.279 . S
C572 C574 1.353 . S
C572 N575 1.314 . S
C572 H578 0.930 . S
C573 N575 1.279 . S
C573 C576 1.358 . S
C573 H579 0.930 . S
C574 C572 1.353 . S
C574 C577 1.348 . S
C574 H612 0.929 . S
N575 Li530 1.990 . S
N575 C572 1.314 . S
N575 C573 1.279 . S
C576 C573 1.358 . S
C576 C577 1.356 . S
C576 H613 0.930 . S
C577 C574 1.348 . S
C577 C576 1.356 . S
H578 C572 0.930 . S
H579 C573 0.930 . S
C580 N581 1.314 . S
C580 C582 1.353 . S
C580 H586 0.930 . S
N581 Li531 1.990 . S
N581 C580 1.314 . S
N581 C584 1.279 . S
C582 C580 1.353 . S
C582 C585 1.348 . S
C582 H614 0.929 . S
C583 C584 1.358 . S
C583 C585 1.356 . S
C583 H615 0.930 . S
C584 N581 1.279 . S
C584 C583 1.358 . S
C584 H587 0.930 . S
C585 C582 1.348 . S
C585 C583 1.356 . S
H586 C580 0.930 . S
H587 C584 0.930 . S
O588 Li528 1.956 . S
O588 Li529 1.970 . S
O588 Li530 1.961 . S
O588 C532 1.325 . S
O589 Li528 1.970 . S
O589 Li529 1.956 . S
O589 Li531 1.961 . S
O589 C538 1.325 . S
O590 Li528 1.961 . S
O590 Li530 1.956 . S
O590 Li531 1.970 . S
O590 C560 1.325 . S
O591 Li529 1.961 . S
O591 Li530 1.970 . S
O591 Li531 1.956 . S
O591 C566 1.325 . S
H592 C534 0.929 . S
H593 C535 0.930 . S
H594 C536 0.930 . S
H595 C537 0.930 . S
H596 C539 0.930 . S
H597 C541 0.929 . S
H598 C542 0.930 . S
H599 C543 0.930 . S
H600 C546 0.930 . S
H601 C549 0.929 . S
H602 C554 0.929 . S
H603 C555 0.930 . S
H604 C562 0.929 . S
H605 C563 0.930 . S
H606 C564 0.930 . S
H607 C565 0.930 . S
H608 C567 0.929 . S
H609 C568 0.930 . S
H610 C569 0.930 . S
H611 C570 0.930 . S
H612 C574 0.929 . S
H613 C576 0.930 . S
H614 C582 0.929 . S
H615 C583 0.930 . S
Li616 N633 1.990 . S
Li616 O676 1.956 . S
Li616 O677 1.970 . S
Li616 O678 1.961 . S
Li617 N641 1.990 . S
Li617 O676 1.970 . S
Li617 O677 1.956 . S
Li617 O679 1.961 . S
Li618 N663 1.990 . S
Li618 O676 1.961 . S
Li618 O678 1.956 . S
Li618 O679 1.970 . S
Li619 N669 1.990 . S
Li619 O677 1.961 . S
Li619 O678 1.970 . S
Li619 O679 1.956 . S
C620 C622 1.348 . S
C620 C623 1.356 . S
C620 O676 1.325 . S
N621 C624 1.314 . S
N621 C625 1.279 . S
C622 C620 1.348 . S
C622 C624 1.353 . S
C622 H680 0.929 . S
C623 C620 1.356 . S
C623 C625 1.358 . S
C623 H681 0.930 . S
C624 N621 1.314 . S
C624 C622 1.353 . S
C624 H682 0.930 . S
C625 N621 1.279 . S
C625 C623 1.358 . S
C625 H683 0.930 . S
C626 C629 1.348 . S
C626 C630 1.356 . S
C626 O677 1.325 . S
C627 N628 1.279 . S
C627 C630 1.358 . S
C627 H684 0.930 . S
N628 C627 1.279 . S
N628 C631 1.314 . S
C629 C626 1.348 . S
C629 C631 1.353 . S
C629 H685 0.929 . S
C630 C626 1.356 . S
C630 C627 1.358 . S
C630 H686 0.930 . S
C631 N628 1.314 . S
C631 C629 1.353 . S
C631 H687 0.930 . S
C632 N633 1.314 . S
C632 C637 1.353 . S
C632 H638 0.930 . S
N633 Li616 1.990 . S
N633 C632 1.314 . S
N633 C635 1.279 . S
C634 C635 1.358 . S
C634 C636 1.356 . S
C634 H688 0.930 . S
C635 N633 1.279 . S
C635 C634 1.358 . S
C635 H639 0.930 . S
C636 C634 1.356 . S
C636 C637 1.348 . S
C637 C632 1.353 . S
C637 C636 1.348 . S
C637 H689 0.929 . S
H638 C632 0.930 . S
H639 C635 0.930 . S
C640 N641 1.314 . S
C640 C642 1.353 . S
C640 H646 0.930 . S
N641 Li617 1.990 . S
N641 C640 1.314 . S
N641 C644 1.279 . S
C642 C640 1.353 . S
C642 C645 1.348 . S
C642 H690 0.929 . S
C643 C644 1.358 . S
C643 C645 1.356 . S
C643 H691 0.930 . S
C644 N641 1.279 . S
C644 C643 1.358 . S
C644 H647 0.930 . S
C645 C642 1.348 . S
C645 C643 1.356 . S
H646 C640 0.930 . S
H647 C644 0.930 . S
C648 C650 1.348 . S
C648 C651 1.356 . S
C648 O678 1.325 . S
N649 C652 1.314 . S
N649 C653 1.279 . S
C650 C648 1.348 . S
C650 C652 1.353 . S
C650 H692 0.929 . S
C651 C648 1.356 . S
C651 C653 1.358 . S
C651 H693 0.930 . S
C652 N649 1.314 . S
C652 C650 1.353 . S
C652 H694 0.930 . S
C653 N649 1.279 . S
C653 C651 1.358 . S
C653 H695 0.930 . S
C654 C655 1.348 . S
C654 C656 1.356 . S
C654 O679 1.325 . S
C655 C654 1.348 . S
C655 C657 1.353 . S
C655 H696 0.929 . S
C656 C654 1.356 . S
C656 C658 1.358 . S
C656 H697 0.930 . S
C657 C655 1.353 . S
C657 N659 1.314 . S
C657 H698 0.930 . S
C658 C656 1.358 . S
C658 N659 1.279 . S
C658 H699 0.930 . S
N659 C657 1.314 . S
N659 C658 1.279 . S
C660 C662 1.353 . S
C660 N663 1.314 . S
C660 H666 0.930 . S
C661 N663 1.279 . S
C661 C664 1.358 . S
C661 H667 0.930 . S
C662 C660 1.353 . S
C662 C665 1.348 . S
C662 H700 0.929 . S
N663 Li618 1.990 . S
N663 C660 1.314 . S
N663 C661 1.279 . S
C664 C661 1.358 . S
C664 C665 1.356 . S
C664 H701 0.930 . S
C665 C662 1.348 . S
C665 C664 1.356 . S
H666 C660 0.930 . S
H667 C661 0.930 . S
C668 N669 1.314 . S
C668 C670 1.353 . S
C668 H674 0.930 . S
N669 Li619 1.990 . S
N669 C668 1.314 . S
N669 C672 1.279 . S
C670 C668 1.353 . S
C670 C673 1.348 . S
C670 H702 0.929 . S
C671 C672 1.358 . S
C671 C673 1.356 . S
C671 H703 0.930 . S
C672 N669 1.279 . S
C672 C671 1.358 . S
C672 H675 0.930 . S
C673 C670 1.348 . S
C673 C671 1.356 . S
H674 C668 0.930 . S
H675 C672 0.930 . S
O676 Li616 1.956 . S
O676 Li617 1.970 . S
O676 Li618 1.961 . S
O676 C620 1.325 . S
O677 Li616 1.970 . S
O677 Li617 1.956 . S
O677 Li619 1.961 . S
O677 C626 1.325 . S
O678 Li616 1.961 . S
O678 Li618 1.956 . S
O678 Li619 1.970 . S
O678 C648 1.325 . S
O679 Li617 1.961 . S
O679 Li618 1.970 . S
O679 Li619 1.956 . S
O679 C654 1.325 . S
H680 C622 0.929 . S
H681 C623 0.930 . S
H682 C624 0.930 . S
H683 C625 0.930 . S
H684 C627 0.930 . S
H685 C629 0.929 . S
H686 C630 0.930 . S
H687 C631 0.930 . S
H688 C634 0.930 . S
H689 C637 0.929 . S
H690 C642 0.929 . S
H691 C643 0.930 . S
H692 C650 0.929 . S
H693 C651 0.930 . S
H694 C652 0.930 . S
H695 C653 0.930 . S
H696 C655 0.929 . S
H697 C656 0.930 . S
H698 C657 0.930 . S
H699 C658 0.930 . S
H700 C662 0.929 . S
H701 C664 0.930 . S
H702 C670 0.929 . S
H703 C671 0.930 . S
Li704 N721 1.990 . S
Li704 O764 1.956 . S
Li704 O765 1.970 . S
Li704 O766 1.961 . S
Li705 N729 1.990 . S
Li705 O764 1.970 . S
Li705 O765 1.956 . S
Li705 O767 1.961 . S
Li706 N751 1.990 . S
Li706 O764 1.961 . S
Li706 O766 1.956 . S
Li706 O767 1.970 . S
Li707 N757 1.990 . S
Li707 O765 1.961 . S
Li707 O766 1.970 . S
Li707 O767 1.956 . S
C708 C710 1.348 . S
C708 C711 1.356 . S
C708 O764 1.325 . S
N709 C712 1.314 . S
N709 C713 1.279 . S
C710 C708 1.348 . S
C710 C712 1.353 . S
C710 H768 0.929 . S
C711 C708 1.356 . S
C711 C713 1.358 . S
C711 H769 0.930 . S
C712 N709 1.314 . S
C712 C710 1.353 . S
C712 H770 0.930 . S
C713 N709 1.279 . S
C713 C711 1.358 . S
C713 H771 0.930 . S
C714 C717 1.348 . S
C714 C718 1.356 . S
C714 O765 1.325 . S
C715 N716 1.279 . S
C715 C718 1.358 . S
C715 H772 0.930 . S
N716 C715 1.279 . S
N716 C719 1.314 . S
C717 C714 1.348 . S
C717 C719 1.353 . S
C717 H773 0.929 . S
C718 C714 1.356 . S
C718 C715 1.358 . S
C718 H774 0.930 . S
C719 N716 1.314 . S
C719 C717 1.353 . S
C719 H775 0.930 . S
C720 N721 1.314 . S
C720 C725 1.353 . S
C720 H726 0.930 . S
N721 Li704 1.990 . S
N721 C720 1.314 . S
N721 C723 1.279 . S
C722 C723 1.358 . S
C722 C724 1.356 . S
C722 H776 0.930 . S
C723 N721 1.279 . S
C723 C722 1.358 . S
C723 H727 0.930 . S
C724 C722 1.356 . S
C724 C725 1.348 . S
C725 C720 1.353 . S
C725 C724 1.348 . S
C725 H777 0.929 . S
H726 C720 0.930 . S
H727 C723 0.930 . S
C728 N729 1.314 . S
C728 C730 1.353 . S
C728 H734 0.930 . S
N729 Li705 1.990 . S
N729 C728 1.314 . S
N729 C732 1.279 . S
C730 C728 1.353 . S
C730 C733 1.348 . S
C730 H778 0.929 . S
C731 C732 1.358 . S
C731 C733 1.356 . S
C731 H779 0.930 . S
C732 N729 1.279 . S
C732 C731 1.358 . S
C732 H735 0.930 . S
C733 C730 1.348 . S
C733 C731 1.356 . S
H734 C728 0.930 . S
H735 C732 0.930 . S
C736 C738 1.348 . S
C736 C739 1.356 . S
C736 O766 1.325 . S
N737 C740 1.314 . S
N737 C741 1.279 . S
C738 C736 1.348 . S
C738 C740 1.353 . S
C738 H780 0.929 . S
C739 C736 1.356 . S
C739 C741 1.358 . S
C739 H781 0.930 . S
C740 N737 1.314 . S
C740 C738 1.353 . S
C740 H782 0.930 . S
C741 N737 1.279 . S
C741 C739 1.358 . S
C741 H783 0.930 . S
C742 C743 1.348 . S
C742 C744 1.356 . S
C742 O767 1.325 . S
C743 C742 1.348 . S
C743 C745 1.353 . S
C743 H784 0.929 . S
C744 C742 1.356 . S
C744 C746 1.358 . S
C744 H785 0.930 . S
C745 C743 1.353 . S
C745 N747 1.314 . S
C745 H786 0.930 . S
C746 C744 1.358 . S
C746 N747 1.279 . S
C746 H787 0.930 . S
N747 C745 1.314 . S
N747 C746 1.279 . S
C748 C750 1.353 . S
C748 N751 1.314 . S
C748 H754 0.930 . S
C749 N751 1.279 . S
C749 C752 1.358 . S
C749 H755 0.930 . S
C750 C748 1.353 . S
C750 C753 1.348 . S
C750 H788 0.929 . S
N751 Li706 1.990 . S
N751 C748 1.314 . S
N751 C749 1.279 . S
C752 C749 1.358 . S
C752 C753 1.356 . S
C752 H789 0.930 . S
C753 C750 1.348 . S
C753 C752 1.356 . S
H754 C748 0.930 . S
H755 C749 0.930 . S
C756 N757 1.314 . S
C756 C758 1.353 . S
C756 H762 0.930 . S
N757 Li707 1.990 . S
N757 C756 1.314 . S
N757 C760 1.279 . S
C758 C756 1.353 . S
C758 C761 1.348 . S
C758 H790 0.929 . S
C759 C760 1.358 . S
C759 C761 1.356 . S
C759 H791 0.930 . S
C760 N757 1.279 . S
C760 C759 1.358 . S
C760 H763 0.930 . S
C761 C758 1.348 . S
C761 C759 1.356 . S
H762 C756 0.930 . S
H763 C760 0.930 . S
O764 Li704 1.956 . S
O764 Li705 1.970 . S
O764 Li706 1.961 . S
O764 C708 1.325 . S
O765 Li704 1.970 . S
O765 Li705 1.956 . S
O765 Li707 1.961 . S
O765 C714 1.325 . S
O766 Li704 1.961 . S
O766 Li706 1.956 . S
O766 Li707 1.970 . S
O766 C736 1.325 . S
O767 Li705 1.961 . S
O767 Li706 1.970 . S
O767 Li707 1.956 . S
O767 C742 1.325 . S
H768 C710 0.929 . S
H769 C711 0.930 . S
H770 C712 0.930 . S
H771 C713 0.930 . S
H772 C715 0.930 . S
H773 C717 0.929 . S
H774 C718 0.930 . S
H775 C719 0.930 . S
H776 C722 0.930 . S
H777 C725 0.929 . S
H778 C730 0.929 . S
H779 C731 0.930 . S
H780 C738 0.929 . S
H781 C739 0.930 . S
H782 C740 0.930 . S
H783 C741 0.930 . S
H784 C743 0.929 . S
H785 C744 0.930 . S
H786 C745 0.930 . S
H787 C746 0.930 . S
H788 C750 0.929 . S
H789 C752 0.930 . S
H790 C758 0.929 . S
H791 C759 0.930 . S
Li792 N809 1.990 . S
Li792 O852 1.956 . S
Li792 O853 1.970 . S
Li792 O854 1.961 . S
Li793 N817 1.990 . S
Li793 O852 1.970 . S
Li793 O853 1.956 . S
Li793 O855 1.961 . S
Li794 N839 1.990 . S
Li794 O852 1.961 . S
Li794 O854 1.956 . S
Li794 O855 1.970 . S
Li795 N845 1.990 . S
Li795 O853 1.961 . S
Li795 O854 1.970 . S
Li795 O855 1.956 . S
C796 C798 1.348 . S
C796 C799 1.356 . S
C796 O852 1.325 . S
N797 C800 1.314 . S
N797 C801 1.279 . S
C798 C796 1.348 . S
C798 C800 1.353 . S
C798 H856 0.929 . S
C799 C796 1.356 . S
C799 C801 1.358 . S
C799 H857 0.930 . S
C800 N797 1.314 . S
C800 C798 1.353 . S
C800 H858 0.930 . S
C801 N797 1.279 . S
C801 C799 1.358 . S
C801 H859 0.930 . S
C802 C805 1.348 . S
C802 C806 1.356 . S
C802 O853 1.325 . S
C803 N804 1.279 . S
C803 C806 1.358 . S
C803 H860 0.930 . S
N804 C803 1.279 . S
N804 C807 1.314 . S
C805 C802 1.348 . S
C805 C807 1.353 . S
C805 H861 0.929 . S
C806 C802 1.356 . S
C806 C803 1.358 . S
C806 H862 0.930 . S
C807 N804 1.314 . S
C807 C805 1.353 . S
C807 H863 0.930 . S
C808 N809 1.314 . S
C808 C813 1.353 . S
C808 H814 0.930 . S
N809 Li792 1.990 . S
N809 C808 1.314 . S
N809 C811 1.279 . S
C810 C811 1.358 . S
C810 C812 1.356 . S
C810 H864 0.930 . S
C811 N809 1.279 . S
C811 C810 1.358 . S
C811 H815 0.930 . S
C812 C810 1.356 . S
C812 C813 1.348 . S
C813 C808 1.353 . S
C813 C812 1.348 . S
C813 H865 0.929 . S
H814 C808 0.930 . S
H815 C811 0.930 . S
C816 N817 1.314 . S
C816 C818 1.353 . S
C816 H822 0.930 . S
N817 Li793 1.990 . S
N817 C816 1.314 . S
N817 C820 1.279 . S
C818 C816 1.353 . S
C818 C821 1.348 . S
C818 H866 0.929 . S
C819 C820 1.358 . S
C819 C821 1.356 . S
C819 H867 0.930 . S
C820 N817 1.279 . S
C820 C819 1.358 . S
C820 H823 0.930 . S
C821 C818 1.348 . S
C821 C819 1.356 . S
H822 C816 0.930 . S
H823 C820 0.930 . S
C824 C826 1.348 . S
C824 C827 1.356 . S
C824 O854 1.325 . S
N825 C828 1.314 . S
N825 C829 1.279 . S
C826 C824 1.348 . S
C826 C828 1.353 . S
C826 H868 0.929 . S
C827 C824 1.356 . S
C827 C829 1.358 . S
C827 H869 0.930 . S
C828 N825 1.314 . S
C828 C826 1.353 . S
C828 H870 0.930 . S
C829 N825 1.279 . S
C829 C827 1.358 . S
C829 H871 0.930 . S
C830 C831 1.348 . S
C830 C832 1.356 . S
C830 O855 1.325 . S
C831 C830 1.348 . S
C831 C833 1.353 . S
C831 H872 0.929 . S
C832 C830 1.356 . S
C832 C834 1.358 . S
C832 H873 0.930 . S
C833 C831 1.353 . S
C833 N835 1.314 . S
C833 H874 0.930 . S
C834 C832 1.358 . S
C834 N835 1.279 . S
C834 H875 0.930 . S
N835 C833 1.314 . S
N835 C834 1.279 . S
C836 C838 1.353 . S
C836 N839 1.314 . S
C836 H842 0.930 . S
C837 N839 1.279 . S
C837 C840 1.358 . S
C837 H843 0.930 . S
C838 C836 1.353 . S
C838 C841 1.348 . S
C838 H876 0.929 . S
N839 Li794 1.990 . S
N839 C836 1.314 . S
N839 C837 1.279 . S
C840 C837 1.358 . S
C840 C841 1.356 . S
C840 H877 0.930 . S
C841 C838 1.348 . S
C841 C840 1.356 . S
H842 C836 0.930 . S
H843 C837 0.930 . S
C844 N845 1.314 . S
C844 C846 1.353 . S
C844 H850 0.930 . S
N845 Li795 1.990 . S
N845 C844 1.314 . S
N845 C848 1.279 . S
C846 C844 1.353 . S
C846 C849 1.348 . S
C846 H878 0.929 . S
C847 C848 1.358 . S
C847 C849 1.356 . S
C847 H879 0.930 . S
C848 N845 1.279 . S
C848 C847 1.358 . S
C848 H851 0.930 . S
C849 C846 1.348 . S
C849 C847 1.356 . S
H850 C844 0.930 . S
H851 C848 0.930 . S
O852 Li792 1.956 . S
O852 Li793 1.970 . S
O852 Li794 1.961 . S
O852 C796 1.325 . S
O853 Li792 1.970 . S
O853 Li793 1.956 . S
O853 Li795 1.961 . S
O853 C802 1.325 . S
O854 Li792 1.961 . S
O854 Li794 1.956 . S
O854 Li795 1.970 . S
O854 C824 1.325 . S
O855 Li793 1.961 . S
O855 Li794 1.970 . S
O855 Li795 1.956 . S
O855 C830 1.325 . S
H856 C798 0.929 . S
H857 C799 0.930 . S
H858 C800 0.930 . S
H859 C801 0.930 . S
H860 C803 0.930 . S
H861 C805 0.929 . S
H862 C806 0.930 . S
H863 C807 0.930 . S
H864 C810 0.930 . S
H865 C813 0.929 . S
H866 C818 0.929 . S
H867 C819 0.930 . S
H868 C826 0.929 . S
H869 C827 0.930 . S
H870 C828 0.930 . S
H871 C829 0.930 . S
H872 C831 0.929 . S
H873 C832 0.930 . S
H874 C833 0.930 . S
H875 C834 0.930 . S
H876 C838 0.929 . S
H877 C840 0.930 . S
H878 C846 0.929 . S
H879 C847 0.930 . S
Li880 N897 1.990 . S
Li880 O940 1.956 . S
Li880 O941 1.970 . S
Li880 O942 1.961 . S
Li881 N905 1.990 . S
Li881 O940 1.970 . S
Li881 O941 1.956 . S
Li881 O943 1.961 . S
Li882 N927 1.990 . S
Li882 O940 1.961 . S
Li882 O942 1.956 . S
Li882 O943 1.970 . S
Li883 N933 1.990 . S
Li883 O941 1.961 . S
Li883 O942 1.970 . S
Li883 O943 1.956 . S
C884 C886 1.348 . S
C884 C887 1.356 . S
C884 O940 1.325 . S
N885 C888 1.314 . S
N885 C889 1.279 . S
C886 C884 1.348 . S
C886 C888 1.353 . S
C886 H944 0.929 . S
C887 C884 1.356 . S
C887 C889 1.358 . S
C887 H945 0.930 . S
C888 N885 1.314 . S
C888 C886 1.353 . S
C888 H946 0.930 . S
C889 N885 1.279 . S
C889 C887 1.358 . S
C889 H947 0.930 . S
C890 C893 1.348 . S
C890 C894 1.356 . S
C890 O941 1.325 . S
C891 N892 1.279 . S
C891 C894 1.358 . S
C891 H948 0.930 . S
N892 C891 1.279 . S
N892 C895 1.314 . S
C893 C890 1.348 . S
C893 C895 1.353 . S
C893 H949 0.929 . S
C894 C890 1.356 . S
C894 C891 1.358 . S
C894 H950 0.930 . S
C895 N892 1.314 . S
C895 C893 1.353 . S
C895 H951 0.930 . S
C896 N897 1.314 . S
C896 C901 1.353 . S
C896 H902 0.930 . S
N897 Li880 1.990 . S
N897 C896 1.314 . S
N897 C899 1.279 . S
C898 C899 1.358 . S
C898 C900 1.356 . S
C898 H952 0.930 . S
C899 N897 1.279 . S
C899 C898 1.358 . S
C899 H903 0.930 . S
C900 C898 1.356 . S
C900 C901 1.348 . S
C901 C896 1.353 . S
C901 C900 1.348 . S
C901 H953 0.929 . S
H902 C896 0.930 . S
H903 C899 0.930 . S
C904 N905 1.314 . S
C904 C906 1.353 . S
C904 H910 0.930 . S
N905 Li881 1.990 . S
N905 C904 1.314 . S
N905 C908 1.279 . S
C906 C904 1.353 . S
C906 C909 1.348 . S
C906 H954 0.929 . S
C907 C908 1.358 . S
C907 C909 1.356 . S
C907 H955 0.930 . S
C908 N905 1.279 . S
C908 C907 1.358 . S
C908 H911 0.930 . S
C909 C906 1.348 . S
C909 C907 1.356 . S
H910 C904 0.930 . S
H911 C908 0.930 . S
C912 C914 1.348 . S
C912 C915 1.356 . S
C912 O942 1.325 . S
N913 C916 1.314 . S
N913 C917 1.279 . S
C914 C912 1.348 . S
C914 C916 1.353 . S
C914 H956 0.929 . S
C915 C912 1.356 . S
C915 C917 1.358 . S
C915 H957 0.930 . S
C916 N913 1.314 . S
C916 C914 1.353 . S
C916 H958 0.930 . S
C917 N913 1.279 . S
C917 C915 1.358 . S
C917 H959 0.930 . S
C918 C919 1.348 . S
C918 C920 1.356 . S
C918 O943 1.325 . S
C919 C918 1.348 . S
C919 C921 1.353 . S
C919 H960 0.929 . S
C920 C918 1.356 . S
C920 C922 1.358 . S
C920 H961 0.930 . S
C921 C919 1.353 . S
C921 N923 1.314 . S
C921 H962 0.930 . S
C922 C920 1.358 . S
C922 N923 1.279 . S
C922 H963 0.930 . S
N923 C921 1.314 . S
N923 C922 1.279 . S
C924 C926 1.353 . S
C924 N927 1.314 . S
C924 H930 0.930 . S
C925 N927 1.279 . S
C925 C928 1.358 . S
C925 H931 0.930 . S
C926 C924 1.353 . S
C926 C929 1.348 . S
C926 H964 0.929 . S
N927 Li882 1.990 . S
N927 C924 1.314 . S
N927 C925 1.279 . S
C928 C925 1.358 . S
C928 C929 1.356 . S
C928 H965 0.930 . S
C929 C926 1.348 . S
C929 C928 1.356 . S
H930 C924 0.930 . S
H931 C925 0.930 . S
C932 N933 1.314 . S
C932 C934 1.353 . S
C932 H938 0.930 . S
N933 Li883 1.990 . S
N933 C932 1.314 . S
N933 C936 1.279 . S
C934 C932 1.353 . S
C934 C937 1.348 . S
C934 H966 0.929 . S
C935 C936 1.358 . S
C935 C937 1.356 . S
C935 H967 0.930 . S
C936 N933 1.279 . S
C936 C935 1.358 . S
C936 H939 0.930 . S
C937 C934 1.348 . S
C937 C935 1.356 . S
H938 C932 0.930 . S
H939 C936 0.930 . S
O940 Li880 1.956 . S
O940 Li881 1.970 . S
O940 Li882 1.961 . S
O940 C884 1.325 . S
O941 Li880 1.970 . S
O941 Li881 1.956 . S
O941 Li883 1.961 . S
O941 C890 1.325 . S
O942 Li880 1.961 . S
O942 Li882 1.956 . S
O942 Li883 1.970 . S
O942 C912 1.325 . S
O943 Li881 1.961 . S
O943 Li882 1.970 . S
O943 Li883 1.956 . S
O943 C918 1.325 . S
H944 C886 0.929 . S
H945 C887 0.930 . S
H946 C888 0.930 . S
H947 C889 0.930 . S
H948 C891 0.930 . S
H949 C893 0.929 . S
H950 C894 0.930 . S
H951 C895 0.930 . S
H952 C898 0.930 . S
H953 C901 0.929 . S
H954 C906 0.929 . S
H955 C907 0.930 . S
H956 C914 0.929 . S
H957 C915 0.930 . S
H958 C916 0.930 . S
H959 C917 0.930 . S
H960 C919 0.929 . S
H961 C920 0.930 . S
H962 C921 0.930 . S
H963 C922 0.930 . S
H964 C926 0.929 . S
H965 C928 0.930 . S
H966 C934 0.929 . S
H967 C935 0.930 . S
Li968 N985 1.990 . S
Li968 O1028 1.956 . S
Li968 O1029 1.970 . S
Li968 O1030 1.961 . S
Li969 N993 1.990 . S
Li969 O1028 1.970 . S
Li969 O1029 1.956 . S
Li969 O1031 1.961 . S
Li970 N1015 1.990 . S
Li970 O1028 1.961 . S
Li970 O1030 1.956 . S
Li970 O1031 1.970 . S
Li971 N1021 1.990 . S
Li971 O1029 1.961 . S
Li971 O1030 1.970 . S
Li971 O1031 1.956 . S
C972 C974 1.348 . S
C972 C975 1.356 . S
C972 O1028 1.325 . S
N973 C976 1.314 . S
N973 C977 1.279 . S
C974 C972 1.348 . S
C974 C976 1.353 . S
C974 H1032 0.929 . S
C975 C972 1.356 . S
C975 C977 1.358 . S
C975 H1033 0.930 . S
C976 N973 1.314 . S
C976 C974 1.353 . S
C976 H1034 0.930 . S
C977 N973 1.279 . S
C977 C975 1.358 . S
C977 H1035 0.930 . S
C978 C981 1.348 . S
C978 C982 1.356 . S
C978 O1029 1.325 . S
C979 N980 1.279 . S
C979 C982 1.358 . S
C979 H1036 0.930 . S
N980 C979 1.279 . S
N980 C983 1.314 . S
C981 C978 1.348 . S
C981 C983 1.353 . S
C981 H1037 0.929 . S
C982 C978 1.356 . S
C982 C979 1.358 . S
C982 H1038 0.930 . S
C983 N980 1.314 . S
C983 C981 1.353 . S
C983 H1039 0.930 . S
C984 N985 1.314 . S
C984 C989 1.353 . S
C984 H990 0.930 . S
N985 Li968 1.990 . S
N985 C984 1.314 . S
N985 C987 1.279 . S
C986 C987 1.358 . S
C986 C988 1.356 . S
C986 H1040 0.930 . S
C987 N985 1.279 . S
C987 C986 1.358 . S
C987 H991 0.930 . S
C988 C986 1.356 . S
C988 C989 1.348 . S
C989 C984 1.353 . S
C989 C988 1.348 . S
C989 H1041 0.929 . S
H990 C984 0.930 . S
H991 C987 0.930 . S
C992 N993 1.314 . S
C992 C994 1.353 . S
C992 H998 0.930 . S
N993 Li969 1.990 . S
N993 C992 1.314 . S
N993 C996 1.279 . S
C994 C992 1.353 . S
C994 C997 1.348 . S
C994 H1042 0.929 . S
C995 C996 1.358 . S
C995 C997 1.356 . S
C995 H1043 0.930 . S
C996 N993 1.279 . S
C996 C995 1.358 . S
C996 H999 0.930 . S
C997 C994 1.348 . S
C997 C995 1.356 . S
H998 C992 0.930 . S
H999 C996 0.930 . S
C1000 C1002 1.348 . S
C1000 C1003 1.356 . S
C1000 O1030 1.325 . S
N1001 C1004 1.314 . S
N1001 C1005 1.279 . S
C1002 C1000 1.348 . S
C1002 C1004 1.353 . S
C1002 H1044 0.929 . S
C1003 C1000 1.356 . S
C1003 C1005 1.358 . S
C1003 H1045 0.930 . S
C1004 N1001 1.314 . S
C1004 C1002 1.353 . S
C1004 H1046 0.930 . S
C1005 N1001 1.279 . S
C1005 C1003 1.358 . S
C1005 H1047 0.930 . S
C1006 C1007 1.348 . S
C1006 C1008 1.356 . S
C1006 O1031 1.325 . S
C1007 C1006 1.348 . S
C1007 C1009 1.353 . S
C1007 H1048 0.929 . S
C1008 C1006 1.356 . S
C1008 C1010 1.358 . S
C1008 H1049 0.930 . S
C1009 C1007 1.353 . S
C1009 N1011 1.314 . S
C1009 H1050 0.930 . S
C1010 C1008 1.358 . S
C1010 N1011 1.279 . S
C1010 H1051 0.930 . S
N1011 C1009 1.314 . S
N1011 C1010 1.279 . S
C1012 C1014 1.353 . S
C1012 N1015 1.314 . S
C1012 H1018 0.930 . S
C1013 N1015 1.279 . S
C1013 C1016 1.358 . S
C1013 H1019 0.930 . S
C1014 C1012 1.353 . S
C1014 C1017 1.348 . S
C1014 H1052 0.929 . S
N1015 Li970 1.990 . S
N1015 C1012 1.314 . S
N1015 C1013 1.279 . S
C1016 C1013 1.358 . S
C1016 C1017 1.356 . S
C1016 H1053 0.930 . S
C1017 C1014 1.348 . S
C1017 C1016 1.356 . S
H1018 C1012 0.930 . S
H1019 C1013 0.930 . S
C1020 N1021 1.314 . S
C1020 C1022 1.353 . S
C1020 H1026 0.930 . S
N1021 Li971 1.990 . S
N1021 C1020 1.314 . S
N1021 C1024 1.279 . S
C1022 C1020 1.353 . S
C1022 C1025 1.348 . S
C1022 H1054 0.929 . S
C1023 C1024 1.358 . S
C1023 C1025 1.356 . S
C1023 H1055 0.930 . S
C1024 N1021 1.279 . S
C1024 C1023 1.358 . S
C1024 H1027 0.930 . S
C1025 C1022 1.348 . S
C1025 C1023 1.356 . S
H1026 C1020 0.930 . S
H1027 C1024 0.930 . S
O1028 Li968 1.956 . S
O1028 Li969 1.970 . S
O1028 Li970 1.961 . S
O1028 C972 1.325 . S
O1029 Li968 1.970 . S
O1029 Li969 1.956 . S
O1029 Li971 1.961 . S
O1029 C978 1.325 . S
O1030 Li968 1.961 . S
O1030 Li970 1.956 . S
O1030 Li971 1.970 . S
O1030 C1000 1.325 . S
O1031 Li969 1.961 . S
O1031 Li970 1.970 . S
O1031 Li971 1.956 . S
O1031 C1006 1.325 . S
H1032 C974 0.929 . S
H1033 C975 0.930 . S
H1034 C976 0.930 . S
H1035 C977 0.930 . S
H1036 C979 0.930 . S
H1037 C981 0.929 . S
H1038 C982 0.930 . S
H1039 C983 0.930 . S
H1040 C986 0.930 . S
H1041 C989 0.929 . S
H1042 C994 0.929 . S
H1043 C995 0.930 . S
H1044 C1002 0.929 . S
H1045 C1003 0.930 . S
H1046 C1004 0.930 . S
H1047 C1005 0.930 . S
H1048 C1007 0.929 . S
H1049 C1008 0.930 . S
H1050 C1009 0.930 . S
H1051 C1010 0.930 . S
H1052 C1014 0.929 . S
H1053 C1016 0.930 . S
H1054 C1022 0.929 . S
H1055 C1023 0.930 . S
Li1056 N1073 1.990 . S
Li1056 O1116 1.956 . S
Li1056 O1117 1.970 . S
Li1056 O1118 1.961 . S
Li1057 N1081 1.990 . S
Li1057 O1116 1.970 . S
Li1057 O1117 1.956 . S
Li1057 O1119 1.961 . S
Li1058 N1103 1.990 . S
Li1058 O1116 1.961 . S
Li1058 O1118 1.956 . S
Li1058 O1119 1.970 . S
Li1059 N1109 1.990 . S
Li1059 O1117 1.961 . S
Li1059 O1118 1.970 . S
Li1059 O1119 1.956 . S
C1060 C1062 1.348 . S
C1060 C1063 1.356 . S
C1060 O1116 1.325 . S
N1061 C1064 1.314 . S
N1061 C1065 1.279 . S
C1062 C1060 1.348 . S
C1062 C1064 1.353 . S
C1062 H1120 0.929 . S
C1063 C1060 1.356 . S
C1063 C1065 1.358 . S
C1063 H1121 0.930 . S
C1064 N1061 1.314 . S
C1064 C1062 1.353 . S
C1064 H1122 0.930 . S
C1065 N1061 1.279 . S
C1065 C1063 1.358 . S
C1065 H1123 0.930 . S
C1066 C1069 1.348 . S
C1066 C1070 1.356 . S
C1066 O1117 1.325 . S
C1067 N1068 1.279 . S
C1067 C1070 1.358 . S
C1067 H1124 0.930 . S
N1068 C1067 1.279 . S
N1068 C1071 1.314 . S
C1069 C1066 1.348 . S
C1069 C1071 1.353 . S
C1069 H1125 0.929 . S
C1070 C1066 1.356 . S
C1070 C1067 1.358 . S
C1070 H1126 0.930 . S
C1071 N1068 1.314 . S
C1071 C1069 1.353 . S
C1071 H1127 0.930 . S
C1072 N1073 1.314 . S
C1072 C1077 1.353 . S
C1072 H1078 0.930 . S
N1073 Li1056 1.990 . S
N1073 C1072 1.314 . S
N1073 C1075 1.279 . S
C1074 C1075 1.358 . S
C1074 C1076 1.356 . S
C1074 H1128 0.930 . S
C1075 N1073 1.279 . S
C1075 C1074 1.358 . S
C1075 H1079 0.930 . S
C1076 C1074 1.356 . S
C1076 C1077 1.348 . S
C1077 C1072 1.353 . S
C1077 C1076 1.348 . S
C1077 H1129 0.929 . S
H1078 C1072 0.930 . S
H1079 C1075 0.930 . S
C1080 N1081 1.314 . S
C1080 C1082 1.353 . S
C1080 H1086 0.930 . S
N1081 Li1057 1.990 . S
N1081 C1080 1.314 . S
N1081 C1084 1.279 . S
C1082 C1080 1.353 . S
C1082 C1085 1.348 . S
C1082 H1130 0.929 . S
C1083 C1084 1.358 . S
C1083 C1085 1.356 . S
C1083 H1131 0.930 . S
C1084 N1081 1.279 . S
C1084 C1083 1.358 . S
C1084 H1087 0.930 . S
C1085 C1082 1.348 . S
C1085 C1083 1.356 . S
H1086 C1080 0.930 . S
H1087 C1084 0.930 . S
C1088 C1090 1.348 . S
C1088 C1091 1.356 . S
C1088 O1118 1.325 . S
N1089 C1092 1.314 . S
N1089 C1093 1.279 . S
C1090 C1088 1.348 . S
C1090 C1092 1.353 . S
C1090 H1132 0.929 . S
C1091 C1088 1.356 . S
C1091 C1093 1.358 . S
C1091 H1133 0.930 . S
C1092 N1089 1.314 . S
C1092 C1090 1.353 . S
C1092 H1134 0.930 . S
C1093 N1089 1.279 . S
C1093 C1091 1.358 . S
C1093 H1135 0.930 . S
C1094 C1095 1.348 . S
C1094 C1096 1.356 . S
C1094 O1119 1.325 . S
C1095 C1094 1.348 . S
C1095 C1097 1.353 . S
C1095 H1136 0.929 . S
C1096 C1094 1.356 . S
C1096 C1098 1.358 . S
C1096 H1137 0.930 . S
C1097 C1095 1.353 . S
C1097 N1099 1.314 . S
C1097 H1138 0.930 . S
C1098 C1096 1.358 . S
C1098 N1099 1.279 . S
C1098 H1139 0.930 . S
N1099 C1097 1.314 . S
N1099 C1098 1.279 . S
C1100 C1102 1.353 . S
C1100 N1103 1.314 . S
C1100 H1106 0.930 . S
C1101 N1103 1.279 . S
C1101 C1104 1.358 . S
C1101 H1107 0.930 . S
C1102 C1100 1.353 . S
C1102 C1105 1.348 . S
C1102 H1140 0.929 . S
N1103 Li1058 1.990 . S
N1103 C1100 1.314 . S
N1103 C1101 1.279 . S
C1104 C1101 1.358 . S
C1104 C1105 1.356 . S
C1104 H1141 0.930 . S
C1105 C1102 1.348 . S
C1105 C1104 1.356 . S
H1106 C1100 0.930 . S
H1107 C1101 0.930 . S
C1108 N1109 1.314 . S
C1108 C1110 1.353 . S
C1108 H1114 0.930 . S
N1109 Li1059 1.990 . S
N1109 C1108 1.314 . S
N1109 C1112 1.279 . S
C1110 C1108 1.353 . S
C1110 C1113 1.348 . S
C1110 H1142 0.929 . S
C1111 C1112 1.358 . S
C1111 C1113 1.356 . S
C1111 H1143 0.930 . S
C1112 N1109 1.279 . S
C1112 C1111 1.358 . S
C1112 H1115 0.930 . S
C1113 C1110 1.348 . S
C1113 C1111 1.356 . S
H1114 C1108 0.930 . S
H1115 C1112 0.930 . S
O1116 Li1056 1.956 . S
O1116 Li1057 1.970 . S
O1116 Li1058 1.961 . S
O1116 C1060 1.325 . S
O1117 Li1056 1.970 . S
O1117 Li1057 1.956 . S
O1117 Li1059 1.961 . S
O1117 C1066 1.325 . S
O1118 Li1056 1.961 . S
O1118 Li1058 1.956 . S
O1118 Li1059 1.970 . S
O1118 C1088 1.325 . S
O1119 Li1057 1.961 . S
O1119 Li1058 1.970 . S
O1119 Li1059 1.956 . S
O1119 C1094 1.325 . S
H1120 C1062 0.929 . S
H1121 C1063 0.930 . S
H1122 C1064 0.930 . S
H1123 C1065 0.930 . S
H1124 C1067 0.930 . S
H1125 C1069 0.929 . S
H1126 C1070 0.930 . S
H1127 C1071 0.930 . S
H1128 C1074 0.930 . S
H1129 C1077 0.929 . S
H1130 C1082 0.929 . S
H1131 C1083 0.930 . S
H1132 C1090 0.929 . S
H1133 C1091 0.930 . S
H1134 C1092 0.930 . S
H1135 C1093 0.930 . S
H1136 C1095 0.929 . S
H1137 C1096 0.930 . S
H1138 C1097 0.930 . S
H1139 C1098 0.930 . S
H1140 C1102 0.929 . S
H1141 C1104 0.930 . S
H1142 C1110 0.929 . S
H1143 C1111 0.930 . S
Li1144 N1161 1.990 . S
Li1144 O1204 1.956 . S
Li1144 O1205 1.970 . S
Li1144 O1206 1.961 . S
Li1145 N1169 1.990 . S
Li1145 O1204 1.970 . S
Li1145 O1205 1.956 . S
Li1145 O1207 1.961 . S
Li1146 N1191 1.990 . S
Li1146 O1204 1.961 . S
Li1146 O1206 1.956 . S
Li1146 O1207 1.970 . S
Li1147 N1197 1.990 . S
Li1147 O1205 1.961 . S
Li1147 O1206 1.970 . S
Li1147 O1207 1.956 . S
C1148 C1150 1.348 . S
C1148 C1151 1.356 . S
C1148 O1204 1.325 . S
N1149 C1152 1.314 . S
N1149 C1153 1.279 . S
C1150 C1148 1.348 . S
C1150 C1152 1.353 . S
C1150 H1208 0.929 . S
C1151 C1148 1.356 . S
C1151 C1153 1.358 . S
C1151 H1209 0.930 . S
C1152 N1149 1.314 . S
C1152 C1150 1.353 . S
C1152 H1210 0.930 . S
C1153 N1149 1.279 . S
C1153 C1151 1.358 . S
C1153 H1211 0.930 . S
C1154 C1157 1.348 . S
C1154 C1158 1.356 . S
C1154 O1205 1.325 . S
C1155 N1156 1.279 . S
C1155 C1158 1.358 . S
C1155 H1212 0.930 . S
N1156 C1155 1.279 . S
N1156 C1159 1.314 . S
C1157 C1154 1.348 . S
C1157 C1159 1.353 . S
C1157 H1213 0.929 . S
C1158 C1154 1.356 . S
C1158 C1155 1.358 . S
C1158 H1214 0.930 . S
C1159 N1156 1.314 . S
C1159 C1157 1.353 . S
C1159 H1215 0.930 . S
C1160 N1161 1.314 . S
C1160 C1165 1.353 . S
C1160 H1166 0.930 . S
N1161 Li1144 1.990 . S
N1161 C1160 1.314 . S
N1161 C1163 1.279 . S
C1162 C1163 1.358 . S
C1162 C1164 1.356 . S
C1162 H1216 0.930 . S
C1163 N1161 1.279 . S
C1163 C1162 1.358 . S
C1163 H1167 0.930 . S
C1164 C1162 1.356 . S
C1164 C1165 1.348 . S
C1165 C1160 1.353 . S
C1165 C1164 1.348 . S
C1165 H1217 0.929 . S
H1166 C1160 0.930 . S
H1167 C1163 0.930 . S
C1168 N1169 1.314 . S
C1168 C1170 1.353 . S
C1168 H1174 0.930 . S
N1169 Li1145 1.990 . S
N1169 C1168 1.314 . S
N1169 C1172 1.279 . S
C1170 C1168 1.353 . S
C1170 C1173 1.348 . S
C1170 H1218 0.929 . S
C1171 C1172 1.358 . S
C1171 C1173 1.356 . S
C1171 H1219 0.930 . S
C1172 N1169 1.279 . S
C1172 C1171 1.358 . S
C1172 H1175 0.930 . S
C1173 C1170 1.348 . S
C1173 C1171 1.356 . S
H1174 C1168 0.930 . S
H1175 C1172 0.930 . S
C1176 C1178 1.348 . S
C1176 C1179 1.356 . S
C1176 O1206 1.325 . S
N1177 C1180 1.314 . S
N1177 C1181 1.279 . S
C1178 C1176 1.348 . S
C1178 C1180 1.353 . S
C1178 H1220 0.929 . S
C1179 C1176 1.356 . S
C1179 C1181 1.358 . S
C1179 H1221 0.930 . S
C1180 N1177 1.314 . S
C1180 C1178 1.353 . S
C1180 H1222 0.930 . S
C1181 N1177 1.279 . S
C1181 C1179 1.358 . S
C1181 H1223 0.930 . S
C1182 C1183 1.348 . S
C1182 C1184 1.356 . S
C1182 O1207 1.325 . S
C1183 C1182 1.348 . S
C1183 C1185 1.353 . S
C1183 H1224 0.929 . S
C1184 C1182 1.356 . S
C1184 C1186 1.358 . S
C1184 H1225 0.930 . S
C1185 C1183 1.353 . S
C1185 N1187 1.314 . S
C1185 H1226 0.930 . S
C1186 C1184 1.358 . S
C1186 N1187 1.279 . S
C1186 H1227 0.930 . S
N1187 C1185 1.314 . S
N1187 C1186 1.279 . S
C1188 C1190 1.353 . S
C1188 N1191 1.314 . S
C1188 H1194 0.930 . S
C1189 N1191 1.279 . S
C1189 C1192 1.358 . S
C1189 H1195 0.930 . S
C1190 C1188 1.353 . S
C1190 C1193 1.348 . S
C1190 H1228 0.929 . S
N1191 Li1146 1.990 . S
N1191 C1188 1.314 . S
N1191 C1189 1.279 . S
C1192 C1189 1.358 . S
C1192 C1193 1.356 . S
C1192 H1229 0.930 . S
C1193 C1190 1.348 . S
C1193 C1192 1.356 . S
H1194 C1188 0.930 . S
H1195 C1189 0.930 . S
C1196 N1197 1.314 . S
C1196 C1198 1.353 . S
C1196 H1202 0.930 . S
N1197 Li1147 1.990 . S
N1197 C1196 1.314 . S
N1197 C1200 1.279 . S
C1198 C1196 1.353 . S
C1198 C1201 1.348 . S
C1198 H1230 0.929 . S
C1199 C1200 1.358 . S
C1199 C1201 1.356 . S
C1199 H1231 0.930 . S
C1200 N1197 1.279 . S
C1200 C1199 1.358 . S
C1200 H1203 0.930 . S
C1201 C1198 1.348 . S
C1201 C1199 1.356 . S
H1202 C1196 0.930 . S
H1203 C1200 0.930 . S
O1204 Li1144 1.956 . S
O1204 Li1145 1.970 . S
O1204 Li1146 1.961 . S
O1204 C1148 1.325 . S
O1205 Li1144 1.970 . S
O1205 Li1145 1.956 . S
O1205 Li1147 1.961 . S
O1205 C1154 1.325 . S
O1206 Li1144 1.961 . S
O1206 Li1146 1.956 . S
O1206 Li1147 1.970 . S
O1206 C1176 1.325 . S
O1207 Li1145 1.961 . S
O1207 Li1146 1.970 . S
O1207 Li1147 1.956 . S
O1207 C1182 1.325 . S
H1208 C1150 0.929 . S
H1209 C1151 0.930 . S
H1210 C1152 0.930 . S
H1211 C1153 0.930 . S
H1212 C1155 0.930 . S
H1213 C1157 0.929 . S
H1214 C1158 0.930 . S
H1215 C1159 0.930 . S
H1216 C1162 0.930 . S
H1217 C1165 0.929 . S
H1218 C1170 0.929 . S
H1219 C1171 0.930 . S
H1220 C1178 0.929 . S
H1221 C1179 0.930 . S
H1222 C1180 0.930 . S
H1223 C1181 0.930 . S
H1224 C1183 0.929 . S
H1225 C1184 0.930 . S
H1226 C1185 0.930 . S
H1227 C1186 0.930 . S
H1228 C1190 0.929 . S
H1229 C1192 0.930 . S
H1230 C1198 0.929 . S
H1231 C1199 0.930 . S
Li1232 N1249 1.990 . S
Li1232 O1292 1.956 . S
Li1232 O1293 1.970 . S
Li1232 O1294 1.961 . S
Li1233 N1257 1.990 . S
Li1233 O1292 1.970 . S
Li1233 O1293 1.956 . S
Li1233 O1295 1.961 . S
Li1234 N1279 1.990 . S
Li1234 O1292 1.961 . S
Li1234 O1294 1.956 . S
Li1234 O1295 1.970 . S
Li1235 N1285 1.990 . S
Li1235 O1293 1.961 . S
Li1235 O1294 1.970 . S
Li1235 O1295 1.956 . S
C1236 C1238 1.348 . S
C1236 C1239 1.356 . S
C1236 O1292 1.325 . S
N1237 C1240 1.314 . S
N1237 C1241 1.279 . S
C1238 C1236 1.348 . S
C1238 C1240 1.353 . S
C1238 H1296 0.929 . S
C1239 C1236 1.356 . S
C1239 C1241 1.358 . S
C1239 H1297 0.930 . S
C1240 N1237 1.314 . S
C1240 C1238 1.353 . S
C1240 H1298 0.930 . S
C1241 N1237 1.279 . S
C1241 C1239 1.358 . S
C1241 H1299 0.930 . S
C1242 C1245 1.348 . S
C1242 C1246 1.356 . S
C1242 O1293 1.325 . S
C1243 N1244 1.279 . S
C1243 C1246 1.358 . S
C1243 H1300 0.930 . S
N1244 C1243 1.279 . S
N1244 C1247 1.314 . S
C1245 C1242 1.348 . S
C1245 C1247 1.353 . S
C1245 H1301 0.929 . S
C1246 C1242 1.356 . S
C1246 C1243 1.358 . S
C1246 H1302 0.930 . S
C1247 N1244 1.314 . S
C1247 C1245 1.353 . S
C1247 H1303 0.930 . S
C1248 N1249 1.314 . S
C1248 C1253 1.353 . S
C1248 H1254 0.930 . S
N1249 Li1232 1.990 . S
N1249 C1248 1.314 . S
N1249 C1251 1.279 . S
C1250 C1251 1.358 . S
C1250 C1252 1.356 . S
C1250 H1304 0.930 . S
C1251 N1249 1.279 . S
C1251 C1250 1.358 . S
C1251 H1255 0.930 . S
C1252 C1250 1.356 . S
C1252 C1253 1.348 . S
C1253 C1248 1.353 . S
C1253 C1252 1.348 . S
C1253 H1305 0.929 . S
H1254 C1248 0.930 . S
H1255 C1251 0.930 . S
C1256 N1257 1.314 . S
C1256 C1258 1.353 . S
C1256 H1262 0.930 . S
N1257 Li1233 1.990 . S
N1257 C1256 1.314 . S
N1257 C1260 1.279 . S
C1258 C1256 1.353 . S
C1258 C1261 1.348 . S
C1258 H1306 0.929 . S
C1259 C1260 1.358 . S
C1259 C1261 1.356 . S
C1259 H1307 0.930 . S
C1260 N1257 1.279 . S
C1260 C1259 1.358 . S
C1260 H1263 0.930 . S
C1261 C1258 1.348 . S
C1261 C1259 1.356 . S
H1262 C1256 0.930 . S
H1263 C1260 0.930 . S
C1264 C1266 1.348 . S
C1264 C1267 1.356 . S
C1264 O1294 1.325 . S
N1265 C1268 1.314 . S
N1265 C1269 1.279 . S
C1266 C1264 1.348 . S
C1266 C1268 1.353 . S
C1266 H1308 0.929 . S
C1267 C1264 1.356 . S
C1267 C1269 1.358 . S
C1267 H1309 0.930 . S
C1268 N1265 1.314 . S
C1268 C1266 1.353 . S
C1268 H1310 0.930 . S
C1269 N1265 1.279 . S
C1269 C1267 1.358 . S
C1269 H1311 0.930 . S
C1270 C1271 1.348 . S
C1270 C1272 1.356 . S
C1270 O1295 1.325 . S
C1271 C1270 1.348 . S
C1271 C1273 1.353 . S
C1271 H1312 0.929 . S
C1272 C1270 1.356 . S
C1272 C1274 1.358 . S
C1272 H1313 0.930 . S
C1273 C1271 1.353 . S
C1273 N1275 1.314 . S
C1273 H1314 0.930 . S
C1274 C1272 1.358 . S
C1274 N1275 1.279 . S
C1274 H1315 0.930 . S
N1275 C1273 1.314 . S
N1275 C1274 1.279 . S
C1276 C1278 1.353 . S
C1276 N1279 1.314 . S
C1276 H1282 0.930 . S
C1277 N1279 1.279 . S
C1277 C1280 1.358 . S
C1277 H1283 0.930 . S
C1278 C1276 1.353 . S
C1278 C1281 1.348 . S
C1278 H1316 0.929 . S
N1279 Li1234 1.990 . S
N1279 C1276 1.314 . S
N1279 C1277 1.279 . S
C1280 C1277 1.358 . S
C1280 C1281 1.356 . S
C1280 H1317 0.930 . S
C1281 C1278 1.348 . S
C1281 C1280 1.356 . S
H1282 C1276 0.930 . S
H1283 C1277 0.930 . S
C1284 N1285 1.314 . S
C1284 C1286 1.353 . S
C1284 H1290 0.930 . S
N1285 Li1235 1.990 . S
N1285 C1284 1.314 . S
N1285 C1288 1.279 . S
C1286 C1284 1.353 . S
C1286 C1289 1.348 . S
C1286 H1318 0.929 . S
C1287 C1288 1.358 . S
C1287 C1289 1.356 . S
C1287 H1319 0.930 . S
C1288 N1285 1.279 . S
C1288 C1287 1.358 . S
C1288 H1291 0.930 . S
C1289 C1286 1.348 . S
C1289 C1287 1.356 . S
H1290 C1284 0.930 . S
H1291 C1288 0.930 . S
O1292 Li1232 1.956 . S
O1292 Li1233 1.970 . S
O1292 Li1234 1.961 . S
O1292 C1236 1.325 . S
O1293 Li1232 1.970 . S
O1293 Li1233 1.956 . S
O1293 Li1235 1.961 . S
O1293 C1242 1.325 . S
O1294 Li1232 1.961 . S
O1294 Li1234 1.956 . S
O1294 Li1235 1.970 . S
O1294 C1264 1.325 . S
O1295 Li1233 1.961 . S
O1295 Li1234 1.970 . S
O1295 Li1235 1.956 . S
O1295 C1270 1.325 . S
H1296 C1238 0.929 . S
H1297 C1239 0.930 . S
H1298 C1240 0.930 . S
H1299 C1241 0.930 . S
H1300 C1243 0.930 . S
H1301 C1245 0.929 . S
H1302 C1246 0.930 . S
H1303 C1247 0.930 . S
H1304 C1250 0.930 . S
H1305 C1253 0.929 . S
H1306 C1258 0.929 . S
H1307 C1259 0.930 . S
H1308 C1266 0.929 . S
H1309 C1267 0.930 . S
H1310 C1268 0.930 . S
H1311 C1269 0.930 . S
H1312 C1271 0.929 . S
H1313 C1272 0.930 . S
H1314 C1273 0.930 . S
H1315 C1274 0.930 . S
H1316 C1278 0.929 . S
H1317 C1280 0.930 . S
H1318 C1286 0.929 . S
H1319 C1287 0.930 . S
Li1320 N1337 1.990 . S
Li1320 O1380 1.956 . S
Li1320 O1381 1.970 . S
Li1320 O1382 1.961 . S
Li1321 N1345 1.990 . S
Li1321 O1380 1.970 . S
Li1321 O1381 1.956 . S
Li1321 O1383 1.961 . S
Li1322 N1367 1.990 . S
Li1322 O1380 1.961 . S
Li1322 O1382 1.956 . S
Li1322 O1383 1.970 . S
Li1323 N1373 1.990 . S
Li1323 O1381 1.961 . S
Li1323 O1382 1.970 . S
Li1323 O1383 1.956 . S
C1324 C1326 1.348 . S
C1324 C1327 1.356 . S
C1324 O1380 1.325 . S
N1325 C1328 1.314 . S
N1325 C1329 1.279 . S
C1326 C1324 1.348 . S
C1326 C1328 1.353 . S
C1326 H1384 0.929 . S
C1327 C1324 1.356 . S
C1327 C1329 1.358 . S
C1327 H1385 0.930 . S
C1328 N1325 1.314 . S
C1328 C1326 1.353 . S
C1328 H1386 0.930 . S
C1329 N1325 1.279 . S
C1329 C1327 1.358 . S
C1329 H1387 0.930 . S
C1330 C1333 1.348 . S
C1330 C1334 1.356 . S
C1330 O1381 1.325 . S
C1331 N1332 1.279 . S
C1331 C1334 1.358 . S
C1331 H1388 0.930 . S
N1332 C1331 1.279 . S
N1332 C1335 1.314 . S
C1333 C1330 1.348 . S
C1333 C1335 1.353 . S
C1333 H1389 0.929 . S
C1334 C1330 1.356 . S
C1334 C1331 1.358 . S
C1334 H1390 0.930 . S
C1335 N1332 1.314 . S
C1335 C1333 1.353 . S
C1335 H1391 0.930 . S
C1336 N1337 1.314 . S
C1336 C1341 1.353 . S
C1336 H1342 0.930 . S
N1337 Li1320 1.990 . S
N1337 C1336 1.314 . S
N1337 C1339 1.279 . S
C1338 C1339 1.358 . S
C1338 C1340 1.356 . S
C1338 H1392 0.930 . S
C1339 N1337 1.279 . S
C1339 C1338 1.358 . S
C1339 H1343 0.930 . S
C1340 C1338 1.356 . S
C1340 C1341 1.348 . S
C1341 C1336 1.353 . S
C1341 C1340 1.348 . S
C1341 H1393 0.929 . S
H1342 C1336 0.930 . S
H1343 C1339 0.930 . S
C1344 N1345 1.314 . S
C1344 C1346 1.353 . S
C1344 H1350 0.930 . S
N1345 Li1321 1.990 . S
N1345 C1344 1.314 . S
N1345 C1348 1.279 . S
C1346 C1344 1.353 . S
C1346 C1349 1.348 . S
C1346 H1394 0.929 . S
C1347 C1348 1.358 . S
C1347 C1349 1.356 . S
C1347 H1395 0.930 . S
C1348 N1345 1.279 . S
C1348 C1347 1.358 . S
C1348 H1351 0.930 . S
C1349 C1346 1.348 . S
C1349 C1347 1.356 . S
H1350 C1344 0.930 . S
H1351 C1348 0.930 . S
C1352 C1354 1.348 . S
C1352 C1355 1.356 . S
C1352 O1382 1.325 . S
N1353 C1356 1.314 . S
N1353 C1357 1.279 . S
C1354 C1352 1.348 . S
C1354 C1356 1.353 . S
C1354 H1396 0.929 . S
C1355 C1352 1.356 . S
C1355 C1357 1.358 . S
C1355 H1397 0.930 . S
C1356 N1353 1.314 . S
C1356 C1354 1.353 . S
C1356 H1398 0.930 . S
C1357 N1353 1.279 . S
C1357 C1355 1.358 . S
C1357 H1399 0.930 . S
C1358 C1359 1.348 . S
C1358 C1360 1.356 . S
C1358 O1383 1.325 . S
C1359 C1358 1.348 . S
C1359 C1361 1.353 . S
C1359 H1400 0.929 . S
C1360 C1358 1.356 . S
C1360 C1362 1.358 . S
C1360 H1401 0.930 . S
C1361 C1359 1.353 . S
C1361 N1363 1.314 . S
C1361 H1402 0.930 . S
C1362 C1360 1.358 . S
C1362 N1363 1.279 . S
C1362 H1403 0.930 . S
N1363 C1361 1.314 . S
N1363 C1362 1.279 . S
C1364 C1366 1.353 . S
C1364 N1367 1.314 . S
C1364 H1370 0.930 . S
C1365 N1367 1.279 . S
C1365 C1368 1.358 . S
C1365 H1371 0.930 . S
C1366 C1364 1.353 . S
C1366 C1369 1.348 . S
C1366 H1404 0.929 . S
N1367 Li1322 1.990 . S
N1367 C1364 1.314 . S
N1367 C1365 1.279 . S
C1368 C1365 1.358 . S
C1368 C1369 1.356 . S
C1368 H1405 0.930 . S
C1369 C1366 1.348 . S
C1369 C1368 1.356 . S
H1370 C1364 0.930 . S
H1371 C1365 0.930 . S
C1372 N1373 1.314 . S
C1372 C1374 1.353 . S
C1372 H1378 0.930 . S
N1373 Li1323 1.990 . S
N1373 C1372 1.314 . S
N1373 C1376 1.279 . S
C1374 C1372 1.353 . S
C1374 C1377 1.348 . S
C1374 H1406 0.929 . S
C1375 C1376 1.358 . S
C1375 C1377 1.356 . S
C1375 H1407 0.930 . S
C1376 N1373 1.279 . S
C1376 C1375 1.358 . S
C1376 H1379 0.930 . S
C1377 C1374 1.348 . S
C1377 C1375 1.356 . S
H1378 C1372 0.930 . S
H1379 C1376 0.930 . S
O1380 Li1320 1.956 . S
O1380 Li1321 1.970 . S
O1380 Li1322 1.961 . S
O1380 C1324 1.325 . S
O1381 Li1320 1.970 . S
O1381 Li1321 1.956 . S
O1381 Li1323 1.961 . S
O1381 C1330 1.325 . S
O1382 Li1320 1.961 . S
O1382 Li1322 1.956 . S
O1382 Li1323 1.970 . S
O1382 C1352 1.325 . S
O1383 Li1321 1.961 . S
O1383 Li1322 1.970 . S
O1383 Li1323 1.956 . S
O1383 C1358 1.325 . S
H1384 C1326 0.929 . S
H1385 C1327 0.930 . S
H1386 C1328 0.930 . S
H1387 C1329 0.930 . S
H1388 C1331 0.930 . S
H1389 C1333 0.929 . S
H1390 C1334 0.930 . S
H1391 C1335 0.930 . S
H1392 C1338 0.930 . S
H1393 C1341 0.929 . S
H1394 C1346 0.929 . S
H1395 C1347 0.930 . S
H1396 C1354 0.929 . S
H1397 C1355 0.930 . S
H1398 C1356 0.930 . S
H1399 C1357 0.930 . S
H1400 C1359 0.929 . S
H1401 C1360 0.930 . S
H1402 C1361 0.930 . S
H1403 C1362 0.930 . S
H1404 C1366 0.929 . S
H1405 C1368 0.930 . S
H1406 C1374 0.929 . S
H1407 C1375 0.930 . S
Li1408 N1425 1.990 . S
Li1408 O1468 1.956 . S
Li1408 O1469 1.970 . S
Li1408 O1470 1.961 . S
Li1409 N1433 1.990 . S
Li1409 O1468 1.970 . S
Li1409 O1469 1.956 . S
Li1409 O1471 1.961 . S
Li1410 N1455 1.990 . S
Li1410 O1468 1.961 . S
Li1410 O1470 1.956 . S
Li1410 O1471 1.970 . S
Li1411 N1461 1.990 . S
Li1411 O1469 1.961 . S
Li1411 O1470 1.970 . S
Li1411 O1471 1.956 . S
C1412 C1414 1.348 . S
C1412 C1415 1.356 . S
C1412 O1468 1.325 . S
N1413 C1416 1.314 . S
N1413 C1417 1.279 . S
C1414 C1412 1.348 . S
C1414 C1416 1.353 . S
C1414 H1472 0.929 . S
C1415 C1412 1.356 . S
C1415 C1417 1.358 . S
C1415 H1473 0.930 . S
C1416 N1413 1.314 . S
C1416 C1414 1.353 . S
C1416 H1474 0.930 . S
C1417 N1413 1.279 . S
C1417 C1415 1.358 . S
C1417 H1475 0.930 . S
C1418 C1421 1.348 . S
C1418 C1422 1.356 . S
C1418 O1469 1.325 . S
C1419 N1420 1.279 . S
C1419 C1422 1.358 . S
C1419 H1476 0.930 . S
N1420 C1419 1.279 . S
N1420 C1423 1.314 . S
C1421 C1418 1.348 . S
C1421 C1423 1.353 . S
C1421 H1477 0.929 . S
C1422 C1418 1.356 . S
C1422 C1419 1.358 . S
C1422 H1478 0.930 . S
C1423 N1420 1.314 . S
C1423 C1421 1.353 . S
C1423 H1479 0.930 . S
C1424 N1425 1.314 . S
C1424 C1429 1.353 . S
C1424 H1430 0.930 . S
N1425 Li1408 1.990 . S
N1425 C1424 1.314 . S
N1425 C1427 1.279 . S
C1426 C1427 1.358 . S
C1426 C1428 1.356 . S
C1426 H1480 0.930 . S
C1427 N1425 1.279 . S
C1427 C1426 1.358 . S
C1427 H1431 0.930 . S
C1428 C1426 1.356 . S
C1428 C1429 1.348 . S
C1429 C1424 1.353 . S
C1429 C1428 1.348 . S
C1429 H1481 0.929 . S
H1430 C1424 0.930 . S
H1431 C1427 0.930 . S
C1432 N1433 1.314 . S
C1432 C1434 1.353 . S
C1432 H1438 0.930 . S
N1433 Li1409 1.990 . S
N1433 C1432 1.314 . S
N1433 C1436 1.279 . S
C1434 C1432 1.353 . S
C1434 C1437 1.348 . S
C1434 H1482 0.929 . S
C1435 C1436 1.358 . S
C1435 C1437 1.356 . S
C1435 H1483 0.930 . S
C1436 N1433 1.279 . S
C1436 C1435 1.358 . S
C1436 H1439 0.930 . S
C1437 C1434 1.348 . S
C1437 C1435 1.356 . S
H1438 C1432 0.930 . S
H1439 C1436 0.930 . S
C1440 C1442 1.348 . S
C1440 C1443 1.356 . S
C1440 O1470 1.325 . S
N1441 C1444 1.314 . S
N1441 C1445 1.279 . S
C1442 C1440 1.348 . S
C1442 C1444 1.353 . S
C1442 H1484 0.929 . S
C1443 C1440 1.356 . S
C1443 C1445 1.358 . S
C1443 H1485 0.930 . S
C1444 N1441 1.314 . S
C1444 C1442 1.353 . S
C1444 H1486 0.930 . S
C1445 N1441 1.279 . S
C1445 C1443 1.358 . S
C1445 H1487 0.930 . S
C1446 C1447 1.348 . S
C1446 C1448 1.356 . S
C1446 O1471 1.325 . S
C1447 C1446 1.348 . S
C1447 C1449 1.353 . S
C1447 H1488 0.929 . S
C1448 C1446 1.356 . S
C1448 C1450 1.358 . S
C1448 H1489 0.930 . S
C1449 C1447 1.353 . S
C1449 N1451 1.314 . S
C1449 H1490 0.930 . S
C1450 C1448 1.358 . S
C1450 N1451 1.279 . S
C1450 H1491 0.930 . S
N1451 C1449 1.314 . S
N1451 C1450 1.279 . S
C1452 C1454 1.353 . S
C1452 N1455 1.314 . S
C1452 H1458 0.930 . S
C1453 N1455 1.279 . S
C1453 C1456 1.358 . S
C1453 H1459 0.930 . S
C1454 C1452 1.353 . S
C1454 C1457 1.348 . S
C1454 H1492 0.929 . S
N1455 Li1410 1.990 . S
N1455 C1452 1.314 . S
N1455 C1453 1.279 . S
C1456 C1453 1.358 . S
C1456 C1457 1.356 . S
C1456 H1493 0.930 . S
C1457 C1454 1.348 . S
C1457 C1456 1.356 . S
H1458 C1452 0.930 . S
H1459 C1453 0.930 . S
C1460 N1461 1.314 . S
C1460 C1462 1.353 . S
C1460 H1466 0.930 . S
N1461 Li1411 1.990 . S
N1461 C1460 1.314 . S
N1461 C1464 1.279 . S
C1462 C1460 1.353 . S
C1462 C1465 1.348 . S
C1462 H1494 0.929 . S
C1463 C1464 1.358 . S
C1463 C1465 1.356 . S
C1463 H1495 0.930 . S
C1464 N1461 1.279 . S
C1464 C1463 1.358 . S
C1464 H1467 0.930 . S
C1465 C1462 1.348 . S
C1465 C1463 1.356 . S
H1466 C1460 0.930 . S
H1467 C1464 0.930 . S
O1468 Li1408 1.956 . S
O1468 Li1409 1.970 . S
O1468 Li1410 1.961 . S
O1468 C1412 1.325 . S
O1469 Li1408 1.970 . S
O1469 Li1409 1.956 . S
O1469 Li1411 1.961 . S
O1469 C1418 1.325 . S
O1470 Li1408 1.961 . S
O1470 Li1410 1.956 . S
O1470 Li1411 1.970 . S
O1470 C1440 1.325 . S
O1471 Li1409 1.961 . S
O1471 Li1410 1.970 . S
O1471 Li1411 1.956 . S
O1471 C1446 1.325 . S
H1472 C1414 0.929 . S
H1473 C1415 0.930 . S
H1474 C1416 0.930 . S
H1475 C1417 0.930 . S
H1476 C1419 0.930 . S
H1477 C1421 0.929 . S
H1478 C1422 0.930 . S
H1479 C1423 0.930 . S
H1480 C1426 0.930 . S
H1481 C1429 0.929 . S
H1482 C1434 0.929 . S
H1483 C1435 0.930 . S
H1484 C1442 0.929 . S
H1485 C1443 0.930 . S
H1486 C1444 0.930 . S
H1487 C1445 0.930 . S
H1488 C1447 0.929 . S
H1489 C1448 0.930 . S
H1490 C1449 0.930 . S
H1491 C1450 0.930 . S
H1492 C1454 0.929 . S
H1493 C1456 0.930 . S
H1494 C1462 0.929 . S
H1495 C1463 0.930 . S
Li1496 N1513 1.990 . S
Li1496 O1556 1.956 . S
Li1496 O1557 1.970 . S
Li1496 O1558 1.961 . S
Li1497 N1521 1.990 . S
Li1497 O1556 1.970 . S
Li1497 O1557 1.956 . S
Li1497 O1559 1.961 . S
Li1498 N1543 1.990 . S
Li1498 O1556 1.961 . S
Li1498 O1558 1.956 . S
Li1498 O1559 1.970 . S
Li1499 N1549 1.990 . S
Li1499 O1557 1.961 . S
Li1499 O1558 1.970 . S
Li1499 O1559 1.956 . S
C1500 C1502 1.348 . S
C1500 C1503 1.356 . S
C1500 O1556 1.325 . S
N1501 C1504 1.314 . S
N1501 C1505 1.279 . S
C1502 C1500 1.348 . S
C1502 C1504 1.353 . S
C1502 H1560 0.929 . S
C1503 C1500 1.356 . S
C1503 C1505 1.358 . S
C1503 H1561 0.930 . S
C1504 N1501 1.314 . S
C1504 C1502 1.353 . S
C1504 H1562 0.930 . S
C1505 N1501 1.279 . S
C1505 C1503 1.358 . S
C1505 H1563 0.930 . S
C1506 C1509 1.348 . S
C1506 C1510 1.356 . S
C1506 O1557 1.325 . S
C1507 N1508 1.279 . S
C1507 C1510 1.358 . S
C1507 H1564 0.930 . S
N1508 C1507 1.279 . S
N1508 C1511 1.314 . S
C1509 C1506 1.348 . S
C1509 C1511 1.353 . S
C1509 H1565 0.929 . S
C1510 C1506 1.356 . S
C1510 C1507 1.358 . S
C1510 H1566 0.930 . S
C1511 N1508 1.314 . S
C1511 C1509 1.353 . S
C1511 H1567 0.930 . S
C1512 N1513 1.314 . S
C1512 C1517 1.353 . S
C1512 H1518 0.930 . S
N1513 Li1496 1.990 . S
N1513 C1512 1.314 . S
N1513 C1515 1.279 . S
C1514 C1515 1.358 . S
C1514 C1516 1.356 . S
C1514 H1568 0.930 . S
C1515 N1513 1.279 . S
C1515 C1514 1.358 . S
C1515 H1519 0.930 . S
C1516 C1514 1.356 . S
C1516 C1517 1.348 . S
C1517 C1512 1.353 . S
C1517 C1516 1.348 . S
C1517 H1569 0.929 . S
H1518 C1512 0.930 . S
H1519 C1515 0.930 . S
C1520 N1521 1.314 . S
C1520 C1522 1.353 . S
C1520 H1526 0.930 . S
N1521 Li1497 1.990 . S
N1521 C1520 1.314 . S
N1521 C1524 1.279 . S
C1522 C1520 1.353 . S
C1522 C1525 1.348 . S
C1522 H1570 0.929 . S
C1523 C1524 1.358 . S
C1523 C1525 1.356 . S
C1523 H1571 0.930 . S
C1524 N1521 1.279 . S
C1524 C1523 1.358 . S
C1524 H1527 0.930 . S
C1525 C1522 1.348 . S
C1525 C1523 1.356 . S
H1526 C1520 0.930 . S
H1527 C1524 0.930 . S
C1528 C1530 1.348 . S
C1528 C1531 1.356 . S
C1528 O1558 1.325 . S
N1529 C1532 1.314 . S
N1529 C1533 1.279 . S
C1530 C1528 1.348 . S
C1530 C1532 1.353 . S
C1530 H1572 0.929 . S
C1531 C1528 1.356 . S
C1531 C1533 1.358 . S
C1531 H1573 0.930 . S
C1532 N1529 1.314 . S
C1532 C1530 1.353 . S
C1532 H1574 0.930 . S
C1533 N1529 1.279 . S
C1533 C1531 1.358 . S
C1533 H1575 0.930 . S
C1534 C1535 1.348 . S
C1534 C1536 1.356 . S
C1534 O1559 1.325 . S
C1535 C1534 1.348 . S
C1535 C1537 1.353 . S
C1535 H1576 0.929 . S
C1536 C1534 1.356 . S
C1536 C1538 1.358 . S
C1536 H1577 0.930 . S
C1537 C1535 1.353 . S
C1537 N1539 1.314 . S
C1537 H1578 0.930 . S
C1538 C1536 1.358 . S
C1538 N1539 1.279 . S
C1538 H1579 0.930 . S
N1539 C1537 1.314 . S
N1539 C1538 1.279 . S
C1540 C1542 1.353 . S
C1540 N1543 1.314 . S
C1540 H1546 0.930 . S
C1541 N1543 1.279 . S
C1541 C1544 1.358 . S
C1541 H1547 0.930 . S
C1542 C1540 1.353 . S
C1542 C1545 1.348 . S
C1542 H1580 0.929 . S
N1543 Li1498 1.990 . S
N1543 C1540 1.314 . S
N1543 C1541 1.279 . S
C1544 C1541 1.358 . S
C1544 C1545 1.356 . S
C1544 H1581 0.930 . S
C1545 C1542 1.348 . S
C1545 C1544 1.356 . S
H1546 C1540 0.930 . S
H1547 C1541 0.930 . S
C1548 N1549 1.314 . S
C1548 C1550 1.353 . S
C1548 H1554 0.930 . S
N1549 Li1499 1.990 . S
N1549 C1548 1.314 . S
N1549 C1552 1.279 . S
C1550 C1548 1.353 . S
C1550 C1553 1.348 . S
C1550 H1582 0.929 . S
C1551 C1552 1.358 . S
C1551 C1553 1.356 . S
C1551 H1583 0.930 . S
C1552 N1549 1.279 . S
C1552 C1551 1.358 . S
C1552 H1555 0.930 . S
C1553 C1550 1.348 . S
C1553 C1551 1.356 . S
H1554 C1548 0.930 . S
H1555 C1552 0.930 . S
O1556 Li1496 1.956 . S
O1556 Li1497 1.970 . S
O1556 Li1498 1.961 . S
O1556 C1500 1.325 . S
O1557 Li1496 1.970 . S
O1557 Li1497 1.956 . S
O1557 Li1499 1.961 . S
O1557 C1506 1.325 . S
O1558 Li1496 1.961 . S
O1558 Li1498 1.956 . S
O1558 Li1499 1.970 . S
O1558 C1528 1.325 . S
O1559 Li1497 1.961 . S
O1559 Li1498 1.970 . S
O1559 Li1499 1.956 . S
O1559 C1534 1.325 . S
H1560 C1502 0.929 . S
H1561 C1503 0.930 . S
H1562 C1504 0.930 . S
H1563 C1505 0.930 . S
H1564 C1507 0.930 . S
H1565 C1509 0.929 . S
H1566 C1510 0.930 . S
H1567 C1511 0.930 . S
H1568 C1514 0.930 . S
H1569 C1517 0.929 . S
H1570 C1522 0.929 . S
H1571 C1523 0.930 . S
H1572 C1530 0.929 . S
H1573 C1531 0.930 . S
H1574 C1532 0.930 . S
H1575 C1533 0.930 . S
H1576 C1535 0.929 . S
H1577 C1536 0.930 . S
H1578 C1537 0.930 . S
H1579 C1538 0.930 . S
H1580 C1542 0.929 . S
H1581 C1544 0.930 . S
H1582 C1550 0.929 . S
H1583 C1551 0.930 . S
Li1584 N1601 1.990 . S
Li1584 O1644 1.956 . S
Li1584 O1645 1.970 . S
Li1584 O1646 1.961 . S
Li1585 N1609 1.990 . S
Li1585 O1644 1.970 . S
Li1585 O1645 1.956 . S
Li1585 O1647 1.961 . S
Li1586 N1631 1.990 . S
Li1586 O1644 1.961 . S
Li1586 O1646 1.956 . S
Li1586 O1647 1.970 . S
Li1587 N1637 1.990 . S
Li1587 O1645 1.961 . S
Li1587 O1646 1.970 . S
Li1587 O1647 1.956 . S
C1588 C1590 1.348 . S
C1588 C1591 1.356 . S
C1588 O1644 1.325 . S
N1589 C1592 1.314 . S
N1589 C1593 1.279 . S
C1590 C1588 1.348 . S
C1590 C1592 1.353 . S
C1590 H1648 0.929 . S
C1591 C1588 1.356 . S
C1591 C1593 1.358 . S
C1591 H1649 0.930 . S
C1592 N1589 1.314 . S
C1592 C1590 1.353 . S
C1592 H1650 0.930 . S
C1593 N1589 1.279 . S
C1593 C1591 1.358 . S
C1593 H1651 0.930 . S
C1594 C1597 1.348 . S
C1594 C1598 1.356 . S
C1594 O1645 1.325 . S
C1595 N1596 1.279 . S
C1595 C1598 1.358 . S
C1595 H1652 0.930 . S
N1596 C1595 1.279 . S
N1596 C1599 1.314 . S
C1597 C1594 1.348 . S
C1597 C1599 1.353 . S
C1597 H1653 0.929 . S
C1598 C1594 1.356 . S
C1598 C1595 1.358 . S
C1598 H1654 0.930 . S
C1599 N1596 1.314 . S
C1599 C1597 1.353 . S
C1599 H1655 0.930 . S
C1600 N1601 1.314 . S
C1600 C1605 1.353 . S
C1600 H1606 0.930 . S
N1601 Li1584 1.990 . S
N1601 C1600 1.314 . S
N1601 C1603 1.279 . S
C1602 C1603 1.358 . S
C1602 C1604 1.356 . S
C1602 H1656 0.930 . S
C1603 N1601 1.279 . S
C1603 C1602 1.358 . S
C1603 H1607 0.930 . S
C1604 C1602 1.356 . S
C1604 C1605 1.348 . S
C1605 C1600 1.353 . S
C1605 C1604 1.348 . S
C1605 H1657 0.929 . S
H1606 C1600 0.930 . S
H1607 C1603 0.930 . S
C1608 N1609 1.314 . S
C1608 C1610 1.353 . S
C1608 H1614 0.930 . S
N1609 Li1585 1.990 . S
N1609 C1608 1.314 . S
N1609 C1612 1.279 . S
C1610 C1608 1.353 . S
C1610 C1613 1.348 . S
C1610 H1658 0.929 . S
C1611 C1612 1.358 . S
C1611 C1613 1.356 . S
C1611 H1659 0.930 . S
C1612 N1609 1.279 . S
C1612 C1611 1.358 . S
C1612 H1615 0.930 . S
C1613 C1610 1.348 . S
C1613 C1611 1.356 . S
H1614 C1608 0.930 . S
H1615 C1612 0.930 . S
C1616 C1618 1.348 . S
C1616 C1619 1.356 . S
C1616 O1646 1.325 . S
N1617 C1620 1.314 . S
N1617 C1621 1.279 . S
C1618 C1616 1.348 . S
C1618 C1620 1.353 . S
C1618 H1660 0.929 . S
C1619 C1616 1.356 . S
C1619 C1621 1.358 . S
C1619 H1661 0.930 . S
C1620 N1617 1.314 . S
C1620 C1618 1.353 . S
C1620 H1662 0.930 . S
C1621 N1617 1.279 . S
C1621 C1619 1.358 . S
C1621 H1663 0.930 . S
C1622 C1623 1.348 . S
C1622 C1624 1.356 . S
C1622 O1647 1.325 . S
C1623 C1622 1.348 . S
C1623 C1625 1.353 . S
C1623 H1664 0.929 . S
C1624 C1622 1.356 . S
C1624 C1626 1.358 . S
C1624 H1665 0.930 . S
C1625 C1623 1.353 . S
C1625 N1627 1.314 . S
C1625 H1666 0.930 . S
C1626 C1624 1.358 . S
C1626 N1627 1.279 . S
C1626 H1667 0.930 . S
N1627 C1625 1.314 . S
N1627 C1626 1.279 . S
C1628 C1630 1.353 . S
C1628 N1631 1.314 . S
C1628 H1634 0.930 . S
C1629 N1631 1.279 . S
C1629 C1632 1.358 . S
C1629 H1635 0.930 . S
C1630 C1628 1.353 . S
C1630 C1633 1.348 . S
C1630 H1668 0.929 . S
N1631 Li1586 1.990 . S
N1631 C1628 1.314 . S
N1631 C1629 1.279 . S
C1632 C1629 1.358 . S
C1632 C1633 1.356 . S
C1632 H1669 0.930 . S
C1633 C1630 1.348 . S
C1633 C1632 1.356 . S
H1634 C1628 0.930 . S
H1635 C1629 0.930 . S
C1636 N1637 1.314 . S
C1636 C1638 1.353 . S
C1636 H1642 0.930 . S
N1637 Li1587 1.990 . S
N1637 C1636 1.314 . S
N1637 C1640 1.279 . S
C1638 C1636 1.353 . S
C1638 C1641 1.348 . S
C1638 H1670 0.929 . S
C1639 C1640 1.358 . S
C1639 C1641 1.356 . S
C1639 H1671 0.930 . S
C1640 N1637 1.279 . S
C1640 C1639 1.358 . S
C1640 H1643 0.930 . S
C1641 C1638 1.348 . S
C1641 C1639 1.356 . S
H1642 C1636 0.930 . S
H1643 C1640 0.930 . S
O1644 Li1584 1.956 . S
O1644 Li1585 1.970 . S
O1644 Li1586 1.961 . S
O1644 C1588 1.325 . S
O1645 Li1584 1.970 . S
O1645 Li1585 1.956 . S
O1645 Li1587 1.961 . S
O1645 C1594 1.325 . S
O1646 Li1584 1.961 . S
O1646 Li1586 1.956 . S
O1646 Li1587 1.970 . S
O1646 C1616 1.325 . S
O1647 Li1585 1.961 . S
O1647 Li1586 1.970 . S
O1647 Li1587 1.956 . S
O1647 C1622 1.325 . S
H1648 C1590 0.929 . S
H1649 C1591 0.930 . S
H1650 C1592 0.930 . S
H1651 C1593 0.930 . S
H1652 C1595 0.930 . S
H1653 C1597 0.929 . S
H1654 C1598 0.930 . S
H1655 C1599 0.930 . S
H1656 C1602 0.930 . S
H1657 C1605 0.929 . S
H1658 C1610 0.929 . S
H1659 C1611 0.930 . S
H1660 C1618 0.929 . S
H1661 C1619 0.930 . S
H1662 C1620 0.930 . S
H1663 C1621 0.930 . S
H1664 C1623 0.929 . S
H1665 C1624 0.930 . S
H1666 C1625 0.930 . S
H1667 C1626 0.930 . S
H1668 C1630 0.929 . S
H1669 C1632 0.930 . S
H1670 C1638 0.929 . S
H1671 C1639 0.930 . S
Li1672 N1689 1.990 . S
Li1672 O1732 1.956 . S
Li1672 O1733 1.970 . S
Li1672 O1734 1.961 . S
Li1673 N1697 1.990 . S
Li1673 O1732 1.970 . S
Li1673 O1733 1.956 . S
Li1673 O1735 1.961 . S
Li1674 N1719 1.990 . S
Li1674 O1732 1.961 . S
Li1674 O1734 1.956 . S
Li1674 O1735 1.970 . S
Li1675 N1725 1.990 . S
Li1675 O1733 1.961 . S
Li1675 O1734 1.970 . S
Li1675 O1735 1.956 . S
C1676 C1678 1.348 . S
C1676 C1679 1.356 . S
C1676 O1732 1.325 . S
N1677 C1680 1.314 . S
N1677 C1681 1.279 . S
C1678 C1676 1.348 . S
C1678 C1680 1.353 . S
C1678 H1736 0.929 . S
C1679 C1676 1.356 . S
C1679 C1681 1.358 . S
C1679 H1737 0.930 . S
C1680 N1677 1.314 . S
C1680 C1678 1.353 . S
C1680 H1738 0.930 . S
C1681 N1677 1.279 . S
C1681 C1679 1.358 . S
C1681 H1739 0.930 . S
C1682 C1685 1.348 . S
C1682 C1686 1.356 . S
C1682 O1733 1.325 . S
C1683 N1684 1.279 . S
C1683 C1686 1.358 . S
C1683 H1740 0.930 . S
N1684 C1683 1.279 . S
N1684 C1687 1.314 . S
C1685 C1682 1.348 . S
C1685 C1687 1.353 . S
C1685 H1741 0.929 . S
C1686 C1682 1.356 . S
C1686 C1683 1.358 . S
C1686 H1742 0.930 . S
C1687 N1684 1.314 . S
C1687 C1685 1.353 . S
C1687 H1743 0.930 . S
C1688 N1689 1.314 . S
C1688 C1693 1.353 . S
C1688 H1694 0.930 . S
N1689 Li1672 1.990 . S
N1689 C1688 1.314 . S
N1689 C1691 1.279 . S
C1690 C1691 1.358 . S
C1690 C1692 1.356 . S
C1690 H1744 0.930 . S
C1691 N1689 1.279 . S
C1691 C1690 1.358 . S
C1691 H1695 0.930 . S
C1692 C1690 1.356 . S
C1692 C1693 1.348 . S
C1693 C1688 1.353 . S
C1693 C1692 1.348 . S
C1693 H1745 0.929 . S
H1694 C1688 0.930 . S
H1695 C1691 0.930 . S
C1696 N1697 1.314 . S
C1696 C1698 1.353 . S
C1696 H1702 0.930 . S
N1697 Li1673 1.990 . S
N1697 C1696 1.314 . S
N1697 C1700 1.279 . S
C1698 C1696 1.353 . S
C1698 C1701 1.348 . S
C1698 H1746 0.929 . S
C1699 C1700 1.358 . S
C1699 C1701 1.356 . S
C1699 H1747 0.930 . S
C1700 N1697 1.279 . S
C1700 C1699 1.358 . S
C1700 H1703 0.930 . S
C1701 C1698 1.348 . S
C1701 C1699 1.356 . S
H1702 C1696 0.930 . S
H1703 C1700 0.930 . S
C1704 C1706 1.348 . S
C1704 C1707 1.356 . S
C1704 O1734 1.325 . S
N1705 C1708 1.314 . S
N1705 C1709 1.279 . S
C1706 C1704 1.348 . S
C1706 C1708 1.353 . S
C1706 H1748 0.929 . S
C1707 C1704 1.356 . S
C1707 C1709 1.358 . S
C1707 H1749 0.930 . S
C1708 N1705 1.314 . S
C1708 C1706 1.353 . S
C1708 H1750 0.930 . S
C1709 N1705 1.279 . S
C1709 C1707 1.358 . S
C1709 H1751 0.930 . S
C1710 C1711 1.348 . S
C1710 C1712 1.356 . S
C1710 O1735 1.325 . S
C1711 C1710 1.348 . S
C1711 C1713 1.353 . S
C1711 H1752 0.929 . S
C1712 C1710 1.356 . S
C1712 C1714 1.358 . S
C1712 H1753 0.930 . S
C1713 C1711 1.353 . S
C1713 N1715 1.314 . S
C1713 H1754 0.930 . S
C1714 C1712 1.358 . S
C1714 N1715 1.279 . S
C1714 H1755 0.930 . S
N1715 C1713 1.314 . S
N1715 C1714 1.279 . S
C1716 C1718 1.353 . S
C1716 N1719 1.314 . S
C1716 H1722 0.930 . S
C1717 N1719 1.279 . S
C1717 C1720 1.358 . S
C1717 H1723 0.930 . S
C1718 C1716 1.353 . S
C1718 C1721 1.348 . S
C1718 H1756 0.929 . S
N1719 Li1674 1.990 . S
N1719 C1716 1.314 . S
N1719 C1717 1.279 . S
C1720 C1717 1.358 . S
C1720 C1721 1.356 . S
C1720 H1757 0.930 . S
C1721 C1718 1.348 . S
C1721 C1720 1.356 . S
H1722 C1716 0.930 . S
H1723 C1717 0.930 . S
C1724 N1725 1.314 . S
C1724 C1726 1.353 . S
C1724 H1730 0.930 . S
N1725 Li1675 1.990 . S
N1725 C1724 1.314 . S
N1725 C1728 1.279 . S
C1726 C1724 1.353 . S
C1726 C1729 1.348 . S
C1726 H1758 0.929 . S
C1727 C1728 1.358 . S
C1727 C1729 1.356 . S
C1727 H1759 0.930 . S
C1728 N1725 1.279 . S
C1728 C1727 1.358 . S
C1728 H1731 0.930 . S
C1729 C1726 1.348 . S
C1729 C1727 1.356 . S
H1730 C1724 0.930 . S
H1731 C1728 0.930 . S
O1732 Li1672 1.956 . S
O1732 Li1673 1.970 . S
O1732 Li1674 1.961 . S
O1732 C1676 1.325 . S
O1733 Li1672 1.970 . S
O1733 Li1673 1.956 . S
O1733 Li1675 1.961 . S
O1733 C1682 1.325 . S
O1734 Li1672 1.961 . S
O1734 Li1674 1.956 . S
O1734 Li1675 1.970 . S
O1734 C1704 1.325 . S
O1735 Li1673 1.961 . S
O1735 Li1674 1.970 . S
O1735 Li1675 1.956 . S
O1735 C1710 1.325 . S
H1736 C1678 0.929 . S
H1737 C1679 0.930 . S
H1738 C1680 0.930 . S
H1739 C1681 0.930 . S
H1740 C1683 0.930 . S
H1741 C1685 0.929 . S
H1742 C1686 0.930 . S
H1743 C1687 0.930 . S
H1744 C1690 0.930 . S
H1745 C1693 0.929 . S
H1746 C1698 0.929 . S
H1747 C1699 0.930 . S
H1748 C1706 0.929 . S
H1749 C1707 0.930 . S
H1750 C1708 0.930 . S
H1751 C1709 0.930 . S
H1752 C1711 0.929 . S
H1753 C1712 0.930 . S
H1754 C1713 0.930 . S
H1755 C1714 0.930 . S
H1756 C1718 0.929 . S
H1757 C1720 0.930 . S
H1758 C1726 0.929 . S
H1759 C1727 0.930 . S
Li1760 N1777 1.990 . S
Li1760 O1820 1.956 . S
Li1760 O1821 1.970 . S
Li1760 O1822 1.961 . S
Li1761 N1785 1.990 . S
Li1761 O1820 1.970 . S
Li1761 O1821 1.956 . S
Li1761 O1823 1.961 . S
Li1762 N1807 1.990 . S
Li1762 O1820 1.961 . S
Li1762 O1822 1.956 . S
Li1762 O1823 1.970 . S
Li1763 N1813 1.990 . S
Li1763 O1821 1.961 . S
Li1763 O1822 1.970 . S
Li1763 O1823 1.956 . S
C1764 C1766 1.348 . S
C1764 C1767 1.356 . S
C1764 O1820 1.325 . S
N1765 C1768 1.314 . S
N1765 C1769 1.279 . S
C1766 C1764 1.348 . S
C1766 C1768 1.353 . S
C1766 H1824 0.929 . S
C1767 C1764 1.356 . S
C1767 C1769 1.358 . S
C1767 H1825 0.930 . S
C1768 N1765 1.314 . S
C1768 C1766 1.353 . S
C1768 H1826 0.930 . S
C1769 N1765 1.279 . S
C1769 C1767 1.358 . S
C1769 H1827 0.930 . S
C1770 C1773 1.348 . S
C1770 C1774 1.356 . S
C1770 O1821 1.325 . S
C1771 N1772 1.279 . S
C1771 C1774 1.358 . S
C1771 H1828 0.930 . S
N1772 C1771 1.279 . S
N1772 C1775 1.314 . S
C1773 C1770 1.348 . S
C1773 C1775 1.353 . S
C1773 H1829 0.929 . S
C1774 C1770 1.356 . S
C1774 C1771 1.358 . S
C1774 H1830 0.930 . S
C1775 N1772 1.314 . S
C1775 C1773 1.353 . S
C1775 H1831 0.930 . S
C1776 N1777 1.314 . S
C1776 C1781 1.353 . S
C1776 H1782 0.930 . S
N1777 Li1760 1.990 . S
N1777 C1776 1.314 . S
N1777 C1779 1.279 . S
C1778 C1779 1.358 . S
C1778 C1780 1.356 . S
C1778 H1832 0.930 . S
C1779 N1777 1.279 . S
C1779 C1778 1.358 . S
C1779 H1783 0.930 . S
C1780 C1778 1.356 . S
C1780 C1781 1.348 . S
C1781 C1776 1.353 . S
C1781 C1780 1.348 . S
C1781 H1833 0.929 . S
H1782 C1776 0.930 . S
H1783 C1779 0.930 . S
C1784 N1785 1.314 . S
C1784 C1786 1.353 . S
C1784 H1790 0.930 . S
N1785 Li1761 1.990 . S
N1785 C1784 1.314 . S
N1785 C1788 1.279 . S
C1786 C1784 1.353 . S
C1786 C1789 1.348 . S
C1786 H1834 0.929 . S
C1787 C1788 1.358 . S
C1787 C1789 1.356 . S
C1787 H1835 0.930 . S
C1788 N1785 1.279 . S
C1788 C1787 1.358 . S
C1788 H1791 0.930 . S
C1789 C1786 1.348 . S
C1789 C1787 1.356 . S
H1790 C1784 0.930 . S
H1791 C1788 0.930 . S
C1792 C1794 1.348 . S
C1792 C1795 1.356 . S
C1792 O1822 1.325 . S
N1793 C1796 1.314 . S
N1793 C1797 1.279 . S
C1794 C1792 1.348 . S
C1794 C1796 1.353 . S
C1794 H1836 0.929 . S
C1795 C1792 1.356 . S
C1795 C1797 1.358 . S
C1795 H1837 0.930 . S
C1796 N1793 1.314 . S
C1796 C1794 1.353 . S
C1796 H1838 0.930 . S
C1797 N1793 1.279 . S
C1797 C1795 1.358 . S
C1797 H1839 0.930 . S
C1798 C1799 1.348 . S
C1798 C1800 1.356 . S
C1798 O1823 1.325 . S
C1799 C1798 1.348 . S
C1799 C1801 1.353 . S
C1799 H1840 0.929 . S
C1800 C1798 1.356 . S
C1800 C1802 1.358 . S
C1800 H1841 0.930 . S
C1801 C1799 1.353 . S
C1801 N1803 1.314 . S
C1801 H1842 0.930 . S
C1802 C1800 1.358 . S
C1802 N1803 1.279 . S
C1802 H1843 0.930 . S
N1803 C1801 1.314 . S
N1803 C1802 1.279 . S
C1804 C1806 1.353 . S
C1804 N1807 1.314 . S
C1804 H1810 0.930 . S
C1805 N1807 1.279 . S
C1805 C1808 1.358 . S
C1805 H1811 0.930 . S
C1806 C1804 1.353 . S
C1806 C1809 1.348 . S
C1806 H1844 0.929 . S
N1807 Li1762 1.990 . S
N1807 C1804 1.314 . S
N1807 C1805 1.279 . S
C1808 C1805 1.358 . S
C1808 C1809 1.356 . S
C1808 H1845 0.930 . S
C1809 C1806 1.348 . S
C1809 C1808 1.356 . S
H1810 C1804 0.930 . S
H1811 C1805 0.930 . S
C1812 N1813 1.314 . S
C1812 C1814 1.353 . S
C1812 H1818 0.930 . S
N1813 Li1763 1.990 . S
N1813 C1812 1.314 . S
N1813 C1816 1.279 . S
C1814 C1812 1.353 . S
C1814 C1817 1.348 . S
C1814 H1846 0.929 . S
C1815 C1816 1.358 . S
C1815 C1817 1.356 . S
C1815 H1847 0.930 . S
C1816 N1813 1.279 . S
C1816 C1815 1.358 . S
C1816 H1819 0.930 . S
C1817 C1814 1.348 . S
C1817 C1815 1.356 . S
H1818 C1812 0.930 . S
H1819 C1816 0.930 . S
O1820 Li1760 1.956 . S
O1820 Li1761 1.970 . S
O1820 Li1762 1.961 . S
O1820 C1764 1.325 . S
O1821 Li1760 1.970 . S
O1821 Li1761 1.956 . S
O1821 Li1763 1.961 . S
O1821 C1770 1.325 . S
O1822 Li1760 1.961 . S
O1822 Li1762 1.956 . S
O1822 Li1763 1.970 . S
O1822 C1792 1.325 . S
O1823 Li1761 1.961 . S
O1823 Li1762 1.970 . S
O1823 Li1763 1.956 . S
O1823 C1798 1.325 . S
H1824 C1766 0.929 . S
H1825 C1767 0.930 . S
H1826 C1768 0.930 . S
H1827 C1769 0.930 . S
H1828 C1771 0.930 . S
H1829 C1773 0.929 . S
H1830 C1774 0.930 . S
H1831 C1775 0.930 . S
H1832 C1778 0.930 . S
H1833 C1781 0.929 . S
H1834 C1786 0.929 . S
H1835 C1787 0.930 . S
H1836 C1794 0.929 . S
H1837 C1795 0.930 . S
H1838 C1796 0.930 . S
H1839 C1797 0.930 . S
H1840 C1799 0.929 . S
H1841 C1800 0.930 . S
H1842 C1801 0.930 . S
H1843 C1802 0.930 . S
H1844 C1806 0.929 . S
H1845 C1808 0.930 . S
H1846 C1814 0.929 . S
H1847 C1815 0.930 . S
Li1848 N1865 1.990 . S
Li1848 O1908 1.956 . S
Li1848 O1909 1.970 . S
Li1848 O1910 1.961 . S
Li1849 N1873 1.990 . S
Li1849 O1908 1.970 . S
Li1849 O1909 1.956 . S
Li1849 O1911 1.961 . S
Li1850 N1895 1.990 . S
Li1850 O1908 1.961 . S
Li1850 O1910 1.956 . S
Li1850 O1911 1.970 . S
Li1851 N1901 1.990 . S
Li1851 O1909 1.961 . S
Li1851 O1910 1.970 . S
Li1851 O1911 1.956 . S
C1852 C1854 1.348 . S
C1852 C1855 1.356 . S
C1852 O1908 1.325 . S
N1853 C1856 1.314 . S
N1853 C1857 1.279 . S
C1854 C1852 1.348 . S
C1854 C1856 1.353 . S
C1854 H1912 0.929 . S
C1855 C1852 1.356 . S
C1855 C1857 1.358 . S
C1855 H1913 0.930 . S
C1856 N1853 1.314 . S
C1856 C1854 1.353 . S
C1856 H1914 0.930 . S
C1857 N1853 1.279 . S
C1857 C1855 1.358 . S
C1857 H1915 0.930 . S
C1858 C1861 1.348 . S
C1858 C1862 1.356 . S
C1858 O1909 1.325 . S
C1859 N1860 1.279 . S
C1859 C1862 1.358 . S
C1859 H1916 0.930 . S
N1860 C1859 1.279 . S
N1860 C1863 1.314 . S
C1861 C1858 1.348 . S
C1861 C1863 1.353 . S
C1861 H1917 0.929 . S
C1862 C1858 1.356 . S
C1862 C1859 1.358 . S
C1862 H1918 0.930 . S
C1863 N1860 1.314 . S
C1863 C1861 1.353 . S
C1863 H1919 0.930 . S
C1864 N1865 1.314 . S
C1864 C1869 1.353 . S
C1864 H1870 0.930 . S
N1865 Li1848 1.990 . S
N1865 C1864 1.314 . S
N1865 C1867 1.279 . S
C1866 C1867 1.358 . S
C1866 C1868 1.356 . S
C1866 H1920 0.930 . S
C1867 N1865 1.279 . S
C1867 C1866 1.358 . S
C1867 H1871 0.930 . S
C1868 C1866 1.356 . S
C1868 C1869 1.348 . S
C1869 C1864 1.353 . S
C1869 C1868 1.348 . S
C1869 H1921 0.929 . S
H1870 C1864 0.930 . S
H1871 C1867 0.930 . S
C1872 N1873 1.314 . S
C1872 C1874 1.353 . S
C1872 H1878 0.930 . S
N1873 Li1849 1.990 . S
N1873 C1872 1.314 . S
N1873 C1876 1.279 . S
C1874 C1872 1.353 . S
C1874 C1877 1.348 . S
C1874 H1922 0.929 . S
C1875 C1876 1.358 . S
C1875 C1877 1.356 . S
C1875 H1923 0.930 . S
C1876 N1873 1.279 . S
C1876 C1875 1.358 . S
C1876 H1879 0.930 . S
C1877 C1874 1.348 . S
C1877 C1875 1.356 . S
H1878 C1872 0.930 . S
H1879 C1876 0.930 . S
C1880 C1882 1.348 . S
C1880 C1883 1.356 . S
C1880 O1910 1.325 . S
N1881 C1884 1.314 . S
N1881 C1885 1.279 . S
C1882 C1880 1.348 . S
C1882 C1884 1.353 . S
C1882 H1924 0.929 . S
C1883 C1880 1.356 . S
C1883 C1885 1.358 . S
C1883 H1925 0.930 . S
C1884 N1881 1.314 . S
C1884 C1882 1.353 . S
C1884 H1926 0.930 . S
C1885 N1881 1.279 . S
C1885 C1883 1.358 . S
C1885 H1927 0.930 . S
C1886 C1887 1.348 . S
C1886 C1888 1.356 . S
C1886 O1911 1.325 . S
C1887 C1886 1.348 . S
C1887 C1889 1.353 . S
C1887 H1928 0.929 . S
C1888 C1886 1.356 . S
C1888 C1890 1.358 . S
C1888 H1929 0.930 . S
C1889 C1887 1.353 . S
C1889 N1891 1.314 . S
C1889 H1930 0.930 . S
C1890 C1888 1.358 . S
C1890 N1891 1.279 . S
C1890 H1931 0.930 . S
N1891 C1889 1.314 . S
N1891 C1890 1.279 . S
C1892 C1894 1.353 . S
C1892 N1895 1.314 . S
C1892 H1898 0.930 . S
C1893 N1895 1.279 . S
C1893 C1896 1.358 . S
C1893 H1899 0.930 . S
C1894 C1892 1.353 . S
C1894 C1897 1.348 . S
C1894 H1932 0.929 . S
N1895 Li1850 1.990 . S
N1895 C1892 1.314 . S
N1895 C1893 1.279 . S
C1896 C1893 1.358 . S
C1896 C1897 1.356 . S
C1896 H1933 0.930 . S
C1897 C1894 1.348 . S
C1897 C1896 1.356 . S
H1898 C1892 0.930 . S
H1899 C1893 0.930 . S
C1900 N1901 1.314 . S
C1900 C1902 1.353 . S
C1900 H1906 0.930 . S
N1901 Li1851 1.990 . S
N1901 C1900 1.314 . S
N1901 C1904 1.279 . S
C1902 C1900 1.353 . S
C1902 C1905 1.348 . S
C1902 H1934 0.929 . S
C1903 C1904 1.358 . S
C1903 C1905 1.356 . S
C1903 H1935 0.930 . S
C1904 N1901 1.279 . S
C1904 C1903 1.358 . S
C1904 H1907 0.930 . S
C1905 C1902 1.348 . S
C1905 C1903 1.356 . S
H1906 C1900 0.930 . S
H1907 C1904 0.930 . S
O1908 Li1848 1.956 . S
O1908 Li1849 1.970 . S
O1908 Li1850 1.961 . S
O1908 C1852 1.325 . S
O1909 Li1848 1.970 . S
O1909 Li1849 1.956 . S
O1909 Li1851 1.961 . S
O1909 C1858 1.325 . S
O1910 Li1848 1.961 . S
O1910 Li1850 1.956 . S
O1910 Li1851 1.970 . S
O1910 C1880 1.325 . S
O1911 Li1849 1.961 . S
O1911 Li1850 1.970 . S
O1911 Li1851 1.956 . S
O1911 C1886 1.325 . S
H1912 C1854 0.929 . S
H1913 C1855 0.930 . S
H1914 C1856 0.930 . S
H1915 C1857 0.930 . S
H1916 C1859 0.930 . S
H1917 C1861 0.929 . S
H1918 C1862 0.930 . S
H1919 C1863 0.930 . S
H1920 C1866 0.930 . S
H1921 C1869 0.929 . S
H1922 C1874 0.929 . S
H1923 C1875 0.930 . S
H1924 C1882 0.929 . S
H1925 C1883 0.930 . S
H1926 C1884 0.930 . S
H1927 C1885 0.930 . S
H1928 C1887 0.929 . S
H1929 C1888 0.930 . S
H1930 C1889 0.930 . S
H1931 C1890 0.930 . S
H1932 C1894 0.929 . S
H1933 C1896 0.930 . S
H1934 C1902 0.929 . S
H1935 C1903 0.930 . S
Li1936 N1953 1.990 . S
Li1936 O1996 1.956 . S
Li1936 O1997 1.970 . S
Li1936 O1998 1.961 . S
Li1937 N1961 1.990 . S
Li1937 O1996 1.970 . S
Li1937 O1997 1.956 . S
Li1937 O1999 1.961 . S
Li1938 N1983 1.990 . S
Li1938 O1996 1.961 . S
Li1938 O1998 1.956 . S
Li1938 O1999 1.970 . S
Li1939 N1989 1.990 . S
Li1939 O1997 1.961 . S
Li1939 O1998 1.970 . S
Li1939 O1999 1.956 . S
C1940 C1942 1.348 . S
C1940 C1943 1.356 . S
C1940 O1996 1.325 . S
N1941 C1944 1.314 . S
N1941 C1945 1.279 . S
C1942 C1940 1.348 . S
C1942 C1944 1.353 . S
C1942 H2000 0.929 . S
C1943 C1940 1.356 . S
C1943 C1945 1.358 . S
C1943 H2001 0.930 . S
C1944 N1941 1.314 . S
C1944 C1942 1.353 . S
C1944 H2002 0.930 . S
C1945 N1941 1.279 . S
C1945 C1943 1.358 . S
C1945 H2003 0.930 . S
C1946 C1949 1.348 . S
C1946 C1950 1.356 . S
C1946 O1997 1.325 . S
C1947 N1948 1.279 . S
C1947 C1950 1.358 . S
C1947 H2004 0.930 . S
N1948 C1947 1.279 . S
N1948 C1951 1.314 . S
C1949 C1946 1.348 . S
C1949 C1951 1.353 . S
C1949 H2005 0.929 . S
C1950 C1946 1.356 . S
C1950 C1947 1.358 . S
C1950 H2006 0.930 . S
C1951 N1948 1.314 . S
C1951 C1949 1.353 . S
C1951 H2007 0.930 . S
C1952 N1953 1.314 . S
C1952 C1957 1.353 . S
C1952 H1958 0.930 . S
N1953 Li1936 1.990 . S
N1953 C1952 1.314 . S
N1953 C1955 1.279 . S
C1954 C1955 1.358 . S
C1954 C1956 1.356 . S
C1954 H2008 0.930 . S
C1955 N1953 1.279 . S
C1955 C1954 1.358 . S
C1955 H1959 0.930 . S
C1956 C1954 1.356 . S
C1956 C1957 1.348 . S
C1957 C1952 1.353 . S
C1957 C1956 1.348 . S
C1957 H2009 0.929 . S
H1958 C1952 0.930 . S
H1959 C1955 0.930 . S
C1960 N1961 1.314 . S
C1960 C1962 1.353 . S
C1960 H1966 0.930 . S
N1961 Li1937 1.990 . S
N1961 C1960 1.314 . S
N1961 C1964 1.279 . S
C1962 C1960 1.353 . S
C1962 C1965 1.348 . S
C1962 H2010 0.929 . S
C1963 C1964 1.358 . S
C1963 C1965 1.356 . S
C1963 H2011 0.930 . S
C1964 N1961 1.279 . S
C1964 C1963 1.358 . S
C1964 H1967 0.930 . S
C1965 C1962 1.348 . S
C1965 C1963 1.356 . S
H1966 C1960 0.930 . S
H1967 C1964 0.930 . S
C1968 C1970 1.348 . S
C1968 C1971 1.356 . S
C1968 O1998 1.325 . S
N1969 C1972 1.314 . S
N1969 C1973 1.279 . S
C1970 C1968 1.348 . S
C1970 C1972 1.353 . S
C1970 H2012 0.929 . S
C1971 C1968 1.356 . S
C1971 C1973 1.358 . S
C1971 H2013 0.930 . S
C1972 N1969 1.314 . S
C1972 C1970 1.353 . S
C1972 H2014 0.930 . S
C1973 N1969 1.279 . S
C1973 C1971 1.358 . S
C1973 H2015 0.930 . S
C1974 C1975 1.348 . S
C1974 C1976 1.356 . S
C1974 O1999 1.325 . S
C1975 C1974 1.348 . S
C1975 C1977 1.353 . S
C1975 H2016 0.929 . S
C1976 C1974 1.356 . S
C1976 C1978 1.358 . S
C1976 H2017 0.930 . S
C1977 C1975 1.353 . S
C1977 N1979 1.314 . S
C1977 H2018 0.930 . S
C1978 C1976 1.358 . S
C1978 N1979 1.279 . S
C1978 H2019 0.930 . S
N1979 C1977 1.314 . S
N1979 C1978 1.279 . S
C1980 C1982 1.353 . S
C1980 N1983 1.314 . S
C1980 H1986 0.930 . S
C1981 N1983 1.279 . S
C1981 C1984 1.358 . S
C1981 H1987 0.930 . S
C1982 C1980 1.353 . S
C1982 C1985 1.348 . S
C1982 H2020 0.929 . S
N1983 Li1938 1.990 . S
N1983 C1980 1.314 . S
N1983 C1981 1.279 . S
C1984 C1981 1.358 . S
C1984 C1985 1.356 . S
C1984 H2021 0.930 . S
C1985 C1982 1.348 . S
C1985 C1984 1.356 . S
H1986 C1980 0.930 . S
H1987 C1981 0.930 . S
C1988 N1989 1.314 . S
C1988 C1990 1.353 . S
C1988 H1994 0.930 . S
N1989 Li1939 1.990 . S
N1989 C1988 1.314 . S
N1989 C1992 1.279 . S
C1990 C1988 1.353 . S
C1990 C1993 1.348 . S
C1990 H2022 0.929 . S
C1991 C1992 1.358 . S
C1991 C1993 1.356 . S
C1991 H2023 0.930 . S
C1992 N1989 1.279 . S
C1992 C1991 1.358 . S
C1992 H1995 0.930 . S
C1993 C1990 1.348 . S
C1993 C1991 1.356 . S
H1994 C1988 0.930 . S
H1995 C1992 0.930 . S
O1996 Li1936 1.956 . S
O1996 Li1937 1.970 . S
O1996 Li1938 1.961 . S
O1996 C1940 1.325 . S
O1997 Li1936 1.970 . S
O1997 Li1937 1.956 . S
O1997 Li1939 1.961 . S
O1997 C1946 1.325 . S
O1998 Li1936 1.961 . S
O1998 Li1938 1.956 . S
O1998 Li1939 1.970 . S
O1998 C1968 1.325 . S
O1999 Li1937 1.961 . S
O1999 Li1938 1.970 . S
O1999 Li1939 1.956 . S
O1999 C1974 1.325 . S
H2000 C1942 0.929 . S
H2001 C1943 0.930 . S
H2002 C1944 0.930 . S
H2003 C1945 0.930 . S
H2004 C1947 0.930 . S
H2005 C1949 0.929 . S
H2006 C1950 0.930 . S
H2007 C1951 0.930 . S
H2008 C1954 0.930 . S
H2009 C1957 0.929 . S
H2010 C1962 0.929 . S
H2011 C1963 0.930 . S
H2012 C1970 0.929 . S
H2013 C1971 0.930 . S
H2014 C1972 0.930 . S
H2015 C1973 0.930 . S
H2016 C1975 0.929 . S
H2017 C1976 0.930 . S
H2018 C1977 0.930 . S
H2019 C1978 0.930 . S
H2020 C1982 0.929 . S
H2021 C1984 0.930 . S
H2022 C1990 0.929 . S
H2023 C1991 0.930 . S
Li2024 N2041 1.990 . S
Li2024 O2084 1.956 . S
Li2024 O2085 1.970 . S
Li2024 O2086 1.961 . S
Li2025 N2049 1.990 . S
Li2025 O2084 1.970 . S
Li2025 O2085 1.956 . S
Li2025 O2087 1.961 . S
Li2026 N2071 1.990 . S
Li2026 O2084 1.961 . S
Li2026 O2086 1.956 . S
Li2026 O2087 1.970 . S
Li2027 N2077 1.990 . S
Li2027 O2085 1.961 . S
Li2027 O2086 1.970 . S
Li2027 O2087 1.956 . S
C2028 C2030 1.348 . S
C2028 C2031 1.356 . S
C2028 O2084 1.325 . S
N2029 C2032 1.314 . S
N2029 C2033 1.279 . S
C2030 C2028 1.348 . S
C2030 C2032 1.353 . S
C2030 H2088 0.929 . S
C2031 C2028 1.356 . S
C2031 C2033 1.358 . S
C2031 H2089 0.930 . S
C2032 N2029 1.314 . S
C2032 C2030 1.353 . S
C2032 H2090 0.930 . S
C2033 N2029 1.279 . S
C2033 C2031 1.358 . S
C2033 H2091 0.930 . S
C2034 C2037 1.348 . S
C2034 C2038 1.356 . S
C2034 O2085 1.325 . S
C2035 N2036 1.279 . S
C2035 C2038 1.358 . S
C2035 H2092 0.930 . S
N2036 C2035 1.279 . S
N2036 C2039 1.314 . S
C2037 C2034 1.348 . S
C2037 C2039 1.353 . S
C2037 H2093 0.929 . S
C2038 C2034 1.356 . S
C2038 C2035 1.358 . S
C2038 H2094 0.930 . S
C2039 N2036 1.314 . S
C2039 C2037 1.353 . S
C2039 H2095 0.930 . S
C2040 N2041 1.314 . S
C2040 C2045 1.353 . S
C2040 H2046 0.930 . S
N2041 Li2024 1.990 . S
N2041 C2040 1.314 . S
N2041 C2043 1.279 . S
C2042 C2043 1.358 . S
C2042 C2044 1.356 . S
C2042 H2096 0.930 . S
C2043 N2041 1.279 . S
C2043 C2042 1.358 . S
C2043 H2047 0.930 . S
C2044 C2042 1.356 . S
C2044 C2045 1.348 . S
C2045 C2040 1.353 . S
C2045 C2044 1.348 . S
C2045 H2097 0.929 . S
H2046 C2040 0.930 . S
H2047 C2043 0.930 . S
C2048 N2049 1.314 . S
C2048 C2050 1.353 . S
C2048 H2054 0.930 . S
N2049 Li2025 1.990 . S
N2049 C2048 1.314 . S
N2049 C2052 1.279 . S
C2050 C2048 1.353 . S
C2050 C2053 1.348 . S
C2050 H2098 0.929 . S
C2051 C2052 1.358 . S
C2051 C2053 1.356 . S
C2051 H2099 0.930 . S
C2052 N2049 1.279 . S
C2052 C2051 1.358 . S
C2052 H2055 0.930 . S
C2053 C2050 1.348 . S
C2053 C2051 1.356 . S
H2054 C2048 0.930 . S
H2055 C2052 0.930 . S
C2056 C2058 1.348 . S
C2056 C2059 1.356 . S
C2056 O2086 1.325 . S
N2057 C2060 1.314 . S
N2057 C2061 1.279 . S
C2058 C2056 1.348 . S
C2058 C2060 1.353 . S
C2058 H2100 0.929 . S
C2059 C2056 1.356 . S
C2059 C2061 1.358 . S
C2059 H2101 0.930 . S
C2060 N2057 1.314 . S
C2060 C2058 1.353 . S
C2060 H2102 0.930 . S
C2061 N2057 1.279 . S
C2061 C2059 1.358 . S
C2061 H2103 0.930 . S
C2062 C2063 1.348 . S
C2062 C2064 1.356 . S
C2062 O2087 1.325 . S
C2063 C2062 1.348 . S
C2063 C2065 1.353 . S
C2063 H2104 0.929 . S
C2064 C2062 1.356 . S
C2064 C2066 1.358 . S
C2064 H2105 0.930 . S
C2065 C2063 1.353 . S
C2065 N2067 1.314 . S
C2065 H2106 0.930 . S
C2066 C2064 1.358 . S
C2066 N2067 1.279 . S
C2066 H2107 0.930 . S
N2067 C2065 1.314 . S
N2067 C2066 1.279 . S
C2068 C2070 1.353 . S
C2068 N2071 1.314 . S
C2068 H2074 0.930 . S
C2069 N2071 1.279 . S
C2069 C2072 1.358 . S
C2069 H2075 0.930 . S
C2070 C2068 1.353 . S
C2070 C2073 1.348 . S
C2070 H2108 0.929 . S
N2071 Li2026 1.990 . S
N2071 C2068 1.314 . S
N2071 C2069 1.279 . S
C2072 C2069 1.358 . S
C2072 C2073 1.356 . S
C2072 H2109 0.930 . S
C2073 C2070 1.348 . S
C2073 C2072 1.356 . S
H2074 C2068 0.930 . S
H2075 C2069 0.930 . S
C2076 N2077 1.314 . S
C2076 C2078 1.353 . S
C2076 H2082 0.930 . S
N2077 Li2027 1.990 . S
N2077 C2076 1.314 . S
N2077 C2080 1.279 . S
C2078 C2076 1.353 . S
C2078 C2081 1.348 . S
C2078 H2110 0.929 . S
C2079 C2080 1.358 . S
C2079 C2081 1.356 . S
C2079 H2111 0.930 . S
C2080 N2077 1.279 . S
C2080 C2079 1.358 . S
C2080 H2083 0.930 . S
C2081 C2078 1.348 . S
C2081 C2079 1.356 . S
H2082 C2076 0.930 . S
H2083 C2080 0.930 . S
O2084 Li2024 1.956 . S
O2084 Li2025 1.970 . S
O2084 Li2026 1.961 . S
O2084 C2028 1.325 . S
O2085 Li2024 1.970 . S
O2085 Li2025 1.956 . S
O2085 Li2027 1.961 . S
O2085 C2034 1.325 . S
O2086 Li2024 1.961 . S
O2086 Li2026 1.956 . S
O2086 Li2027 1.970 . S
O2086 C2056 1.325 . S
O2087 Li2025 1.961 . S
O2087 Li2026 1.970 . S
O2087 Li2027 1.956 . S
O2087 C2062 1.325 . S
H2088 C2030 0.929 . S
H2089 C2031 0.930 . S
H2090 C2032 0.930 . S
H2091 C2033 0.930 . S
H2092 C2035 0.930 . S
H2093 C2037 0.929 . S
H2094 C2038 0.930 . S
H2095 C2039 0.930 . S
H2096 C2042 0.930 . S
H2097 C2045 0.929 . S
H2098 C2050 0.929 . S
H2099 C2051 0.930 . S
H2100 C2058 0.929 . S
H2101 C2059 0.930 . S
H2102 C2060 0.930 . S
H2103 C2061 0.930 . S
H2104 C2063 0.929 . S
H2105 C2064 0.930 . S
H2106 C2065 0.930 . S
H2107 C2066 0.930 . S
H2108 C2070 0.929 . S
H2109 C2072 0.930 . S
H2110 C2078 0.929 . S
H2111 C2079 0.930 . S
Li2112 N2129 1.990 . S
Li2112 O2172 1.956 . S
Li2112 O2173 1.970 . S
Li2112 O2174 1.961 . S
Li2113 N2137 1.990 . S
Li2113 O2172 1.970 . S
Li2113 O2173 1.956 . S
Li2113 O2175 1.961 . S
Li2114 N2159 1.990 . S
Li2114 O2172 1.961 . S
Li2114 O2174 1.956 . S
Li2114 O2175 1.970 . S
Li2115 N2165 1.990 . S
Li2115 O2173 1.961 . S
Li2115 O2174 1.970 . S
Li2115 O2175 1.956 . S
C2116 C2118 1.348 . S
C2116 C2119 1.356 . S
C2116 O2172 1.325 . S
N2117 C2120 1.314 . S
N2117 C2121 1.279 . S
C2118 C2116 1.348 . S
C2118 C2120 1.353 . S
C2118 H2176 0.929 . S
C2119 C2116 1.356 . S
C2119 C2121 1.358 . S
C2119 H2177 0.930 . S
C2120 N2117 1.314 . S
C2120 C2118 1.353 . S
C2120 H2178 0.930 . S
C2121 N2117 1.279 . S
C2121 C2119 1.358 . S
C2121 H2179 0.930 . S
C2122 C2125 1.348 . S
C2122 C2126 1.356 . S
C2122 O2173 1.325 . S
C2123 N2124 1.279 . S
C2123 C2126 1.358 . S
C2123 H2180 0.930 . S
N2124 C2123 1.279 . S
N2124 C2127 1.314 . S
C2125 C2122 1.348 . S
C2125 C2127 1.353 . S
C2125 H2181 0.929 . S
C2126 C2122 1.356 . S
C2126 C2123 1.358 . S
C2126 H2182 0.930 . S
C2127 N2124 1.314 . S
C2127 C2125 1.353 . S
C2127 H2183 0.930 . S
C2128 N2129 1.314 . S
C2128 C2133 1.353 . S
C2128 H2134 0.930 . S
N2129 Li2112 1.990 . S
N2129 C2128 1.314 . S
N2129 C2131 1.279 . S
C2130 C2131 1.358 . S
C2130 C2132 1.356 . S
C2130 H2184 0.930 . S
C2131 N2129 1.279 . S
C2131 C2130 1.358 . S
C2131 H2135 0.930 . S
C2132 C2130 1.356 . S
C2132 C2133 1.348 . S
C2133 C2128 1.353 . S
C2133 C2132 1.348 . S
C2133 H2185 0.929 . S
H2134 C2128 0.930 . S
H2135 C2131 0.930 . S
C2136 N2137 1.314 . S
C2136 C2138 1.353 . S
C2136 H2142 0.930 . S
N2137 Li2113 1.990 . S
N2137 C2136 1.314 . S
N2137 C2140 1.279 . S
C2138 C2136 1.353 . S
C2138 C2141 1.348 . S
C2138 H2186 0.929 . S
C2139 C2140 1.358 . S
C2139 C2141 1.356 . S
C2139 H2187 0.930 . S
C2140 N2137 1.279 . S
C2140 C2139 1.358 . S
C2140 H2143 0.930 . S
C2141 C2138 1.348 . S
C2141 C2139 1.356 . S
H2142 C2136 0.930 . S
H2143 C2140 0.930 . S
C2144 C2146 1.348 . S
C2144 C2147 1.356 . S
C2144 O2174 1.325 . S
N2145 C2148 1.314 . S
N2145 C2149 1.279 . S
C2146 C2144 1.348 . S
C2146 C2148 1.353 . S
C2146 H2188 0.929 . S
C2147 C2144 1.356 . S
C2147 C2149 1.358 . S
C2147 H2189 0.930 . S
C2148 N2145 1.314 . S
C2148 C2146 1.353 . S
C2148 H2190 0.930 . S
C2149 N2145 1.279 . S
C2149 C2147 1.358 . S
C2149 H2191 0.930 . S
C2150 C2151 1.348 . S
C2150 C2152 1.356 . S
C2150 O2175 1.325 . S
C2151 C2150 1.348 . S
C2151 C2153 1.353 . S
C2151 H2192 0.929 . S
C2152 C2150 1.356 . S
C2152 C2154 1.358 . S
C2152 H2193 0.930 . S
C2153 C2151 1.353 . S
C2153 N2155 1.314 . S
C2153 H2194 0.930 . S
C2154 C2152 1.358 . S
C2154 N2155 1.279 . S
C2154 H2195 0.930 . S
N2155 C2153 1.314 . S
N2155 C2154 1.279 . S
C2156 C2158 1.353 . S
C2156 N2159 1.314 . S
C2156 H2162 0.930 . S
C2157 N2159 1.279 . S
C2157 C2160 1.358 . S
C2157 H2163 0.930 . S
C2158 C2156 1.353 . S
C2158 C2161 1.348 . S
C2158 H2196 0.929 . S
N2159 Li2114 1.990 . S
N2159 C2156 1.314 . S
N2159 C2157 1.279 . S
C2160 C2157 1.358 . S
C2160 C2161 1.356 . S
C2160 H2197 0.930 . S
C2161 C2158 1.348 . S
C2161 C2160 1.356 . S
H2162 C2156 0.930 . S
H2163 C2157 0.930 . S
C2164 N2165 1.314 . S
C2164 C2166 1.353 . S
C2164 H2170 0.930 . S
N2165 Li2115 1.990 . S
N2165 C2164 1.314 . S
N2165 C2168 1.279 . S
C2166 C2164 1.353 . S
C2166 C2169 1.348 . S
C2166 H2198 0.929 . S
C2167 C2168 1.358 . S
C2167 C2169 1.356 . S
C2167 H2199 0.930 . S
C2168 N2165 1.279 . S
C2168 C2167 1.358 . S
C2168 H2171 0.930 . S
C2169 C2166 1.348 . S
C2169 C2167 1.356 . S
H2170 C2164 0.930 . S
H2171 C2168 0.930 . S
O2172 Li2112 1.956 . S
O2172 Li2113 1.970 . S
O2172 Li2114 1.961 . S
O2172 C2116 1.325 . S
O2173 Li2112 1.970 . S
O2173 Li2113 1.956 . S
O2173 Li2115 1.961 . S
O2173 C2122 1.325 . S
O2174 Li2112 1.961 . S
O2174 Li2114 1.956 . S
O2174 Li2115 1.970 . S
O2174 C2144 1.325 . S
O2175 Li2113 1.961 . S
O2175 Li2114 1.970 . S
O2175 Li2115 1.956 . S
O2175 C2150 1.325 . S
H2176 C2118 0.929 . S
H2177 C2119 0.930 . S
H2178 C2120 0.930 . S
H2179 C2121 0.930 . S
H2180 C2123 0.930 . S
H2181 C2125 0.929 . S
H2182 C2126 0.930 . S
H2183 C2127 0.930 . S
H2184 C2130 0.930 . S
H2185 C2133 0.929 . S
H2186 C2138 0.929 . S
H2187 C2139 0.930 . S
H2188 C2146 0.929 . S
H2189 C2147 0.930 . S
H2190 C2148 0.930 . S
H2191 C2149 0.930 . S
H2192 C2151 0.929 . S
H2193 C2152 0.930 . S
H2194 C2153 0.930 . S
H2195 C2154 0.930 . S
H2196 C2158 0.929 . S
H2197 C2160 0.930 . S
H2198 C2166 0.929 . S
H2199 C2167 0.930 . S
Li2200 N2217 1.990 . S
Li2200 O2260 1.956 . S
Li2200 O2261 1.970 . S
Li2200 O2262 1.961 . S
Li2201 N2225 1.990 . S
Li2201 O2260 1.970 . S
Li2201 O2261 1.956 . S
Li2201 O2263 1.961 . S
Li2202 N2247 1.990 . S
Li2202 O2260 1.961 . S
Li2202 O2262 1.956 . S
Li2202 O2263 1.970 . S
Li2203 N2253 1.990 . S
Li2203 O2261 1.961 . S
Li2203 O2262 1.970 . S
Li2203 O2263 1.956 . S
C2204 C2206 1.348 . S
C2204 C2207 1.356 . S
C2204 O2260 1.325 . S
N2205 C2208 1.314 . S
N2205 C2209 1.279 . S
C2206 C2204 1.348 . S
C2206 C2208 1.353 . S
C2206 H2264 0.929 . S
C2207 C2204 1.356 . S
C2207 C2209 1.358 . S
C2207 H2265 0.930 . S
C2208 N2205 1.314 . S
C2208 C2206 1.353 . S
C2208 H2266 0.930 . S
C2209 N2205 1.279 . S
C2209 C2207 1.358 . S
C2209 H2267 0.930 . S
C2210 C2213 1.348 . S
C2210 C2214 1.356 . S
C2210 O2261 1.325 . S
C2211 N2212 1.279 . S
C2211 C2214 1.358 . S
C2211 H2268 0.930 . S
N2212 C2211 1.279 . S
N2212 C2215 1.314 . S
C2213 C2210 1.348 . S
C2213 C2215 1.353 . S
C2213 H2269 0.929 . S
C2214 C2210 1.356 . S
C2214 C2211 1.358 . S
C2214 H2270 0.930 . S
C2215 N2212 1.314 . S
C2215 C2213 1.353 . S
C2215 H2271 0.930 . S
C2216 N2217 1.314 . S
C2216 C2221 1.353 . S
C2216 H2222 0.930 . S
N2217 Li2200 1.990 . S
N2217 C2216 1.314 . S
N2217 C2219 1.279 . S
C2218 C2219 1.358 . S
C2218 C2220 1.356 . S
C2218 H2272 0.930 . S
C2219 N2217 1.279 . S
C2219 C2218 1.358 . S
C2219 H2223 0.930 . S
C2220 C2218 1.356 . S
C2220 C2221 1.348 . S
C2221 C2216 1.353 . S
C2221 C2220 1.348 . S
C2221 H2273 0.929 . S
H2222 C2216 0.930 . S
H2223 C2219 0.930 . S
C2224 N2225 1.314 . S
C2224 C2226 1.353 . S
C2224 H2230 0.930 . S
N2225 Li2201 1.990 . S
N2225 C2224 1.314 . S
N2225 C2228 1.279 . S
C2226 C2224 1.353 . S
C2226 C2229 1.348 . S
C2226 H2274 0.929 . S
C2227 C2228 1.358 . S
C2227 C2229 1.356 . S
C2227 H2275 0.930 . S
C2228 N2225 1.279 . S
C2228 C2227 1.358 . S
C2228 H2231 0.930 . S
C2229 C2226 1.348 . S
C2229 C2227 1.356 . S
H2230 C2224 0.930 . S
H2231 C2228 0.930 . S
C2232 C2234 1.348 . S
C2232 C2235 1.356 . S
C2232 O2262 1.325 . S
N2233 C2236 1.314 . S
N2233 C2237 1.279 . S
C2234 C2232 1.348 . S
C2234 C2236 1.353 . S
C2234 H2276 0.929 . S
C2235 C2232 1.356 . S
C2235 C2237 1.358 . S
C2235 H2277 0.930 . S
C2236 N2233 1.314 . S
C2236 C2234 1.353 . S
C2236 H2278 0.930 . S
C2237 N2233 1.279 . S
C2237 C2235 1.358 . S
C2237 H2279 0.930 . S
C2238 C2239 1.348 . S
C2238 C2240 1.356 . S
C2238 O2263 1.325 . S
C2239 C2238 1.348 . S
C2239 C2241 1.353 . S
C2239 H2280 0.929 . S
C2240 C2238 1.356 . S
C2240 C2242 1.358 . S
C2240 H2281 0.930 . S
C2241 C2239 1.353 . S
C2241 N2243 1.314 . S
C2241 H2282 0.930 . S
C2242 C2240 1.358 . S
C2242 N2243 1.279 . S
C2242 H2283 0.930 . S
N2243 C2241 1.314 . S
N2243 C2242 1.279 . S
C2244 C2246 1.353 . S
C2244 N2247 1.314 . S
C2244 H2250 0.930 . S
C2245 N2247 1.279 . S
C2245 C2248 1.358 . S
C2245 H2251 0.930 . S
C2246 C2244 1.353 . S
C2246 C2249 1.348 . S
C2246 H2284 0.929 . S
N2247 Li2202 1.990 . S
N2247 C2244 1.314 . S
N2247 C2245 1.279 . S
C2248 C2245 1.358 . S
C2248 C2249 1.356 . S
C2248 H2285 0.930 . S
C2249 C2246 1.348 . S
C2249 C2248 1.356 . S
H2250 C2244 0.930 . S
H2251 C2245 0.930 . S
C2252 N2253 1.314 . S
C2252 C2254 1.353 . S
C2252 H2258 0.930 . S
N2253 Li2203 1.990 . S
N2253 C2252 1.314 . S
N2253 C2256 1.279 . S
C2254 C2252 1.353 . S
C2254 C2257 1.348 . S
C2254 H2286 0.929 . S
C2255 C2256 1.358 . S
C2255 C2257 1.356 . S
C2255 H2287 0.930 . S
C2256 N2253 1.279 . S
C2256 C2255 1.358 . S
C2256 H2259 0.930 . S
C2257 C2254 1.348 . S
C2257 C2255 1.356 . S
H2258 C2252 0.930 . S
H2259 C2256 0.930 . S
O2260 Li2200 1.956 . S
O2260 Li2201 1.970 . S
O2260 Li2202 1.961 . S
O2260 C2204 1.325 . S
O2261 Li2200 1.970 . S
O2261 Li2201 1.956 . S
O2261 Li2203 1.961 . S
O2261 C2210 1.325 . S
O2262 Li2200 1.961 . S
O2262 Li2202 1.956 . S
O2262 Li2203 1.970 . S
O2262 C2232 1.325 . S
O2263 Li2201 1.961 . S
O2263 Li2202 1.970 . S
O2263 Li2203 1.956 . S
O2263 C2238 1.325 . S
H2264 C2206 0.929 . S
H2265 C2207 0.930 . S
H2266 C2208 0.930 . S
H2267 C2209 0.930 . S
H2268 C2211 0.930 . S
H2269 C2213 0.929 . S
H2270 C2214 0.930 . S
H2271 C2215 0.930 . S
H2272 C2218 0.930 . S
H2273 C2221 0.929 . S
H2274 C2226 0.929 . S
H2275 C2227 0.930 . S
H2276 C2234 0.929 . S
H2277 C2235 0.930 . S
H2278 C2236 0.930 . S
H2279 C2237 0.930 . S
H2280 C2239 0.929 . S
H2281 C2240 0.930 . S
H2282 C2241 0.930 . S
H2283 C2242 0.930 . S
H2284 C2246 0.929 . S
H2285 C2248 0.930 . S
H2286 C2254 0.929 . S
H2287 C2255 0.930 . S
Li2288 N2305 1.990 . S
Li2288 O2348 1.956 . S
Li2288 O2349 1.970 . S
Li2288 O2350 1.961 . S
Li2289 N2313 1.990 . S
Li2289 O2348 1.970 . S
Li2289 O2349 1.956 . S
Li2289 O2351 1.961 . S
Li2290 N2335 1.990 . S
Li2290 O2348 1.961 . S
Li2290 O2350 1.956 . S
Li2290 O2351 1.970 . S
Li2291 N2341 1.990 . S
Li2291 O2349 1.961 . S
Li2291 O2350 1.970 . S
Li2291 O2351 1.956 . S
C2292 C2294 1.348 . S
C2292 C2295 1.356 . S
C2292 O2348 1.325 . S
N2293 C2296 1.314 . S
N2293 C2297 1.279 . S
C2294 C2292 1.348 . S
C2294 C2296 1.353 . S
C2294 H2352 0.929 . S
C2295 C2292 1.356 . S
C2295 C2297 1.358 . S
C2295 H2353 0.930 . S
C2296 N2293 1.314 . S
C2296 C2294 1.353 . S
C2296 H2354 0.930 . S
C2297 N2293 1.279 . S
C2297 C2295 1.358 . S
C2297 H2355 0.930 . S
C2298 C2301 1.348 . S
C2298 C2302 1.356 . S
C2298 O2349 1.325 . S
C2299 N2300 1.279 . S
C2299 C2302 1.358 . S
C2299 H2356 0.930 . S
N2300 C2299 1.279 . S
N2300 C2303 1.314 . S
C2301 C2298 1.348 . S
C2301 C2303 1.353 . S
C2301 H2357 0.929 . S
C2302 C2298 1.356 . S
C2302 C2299 1.358 . S
C2302 H2358 0.930 . S
C2303 N2300 1.314 . S
C2303 C2301 1.353 . S
C2303 H2359 0.930 . S
C2304 N2305 1.314 . S
C2304 C2309 1.353 . S
C2304 H2310 0.930 . S
N2305 Li2288 1.990 . S
N2305 C2304 1.314 . S
N2305 C2307 1.279 . S
C2306 C2307 1.358 . S
C2306 C2308 1.356 . S
C2306 H2360 0.930 . S
C2307 N2305 1.279 . S
C2307 C2306 1.358 . S
C2307 H2311 0.930 . S
C2308 C2306 1.356 . S
C2308 C2309 1.348 . S
C2309 C2304 1.353 . S
C2309 C2308 1.348 . S
C2309 H2361 0.929 . S
H2310 C2304 0.930 . S
H2311 C2307 0.930 . S
C2312 N2313 1.314 . S
C2312 C2314 1.353 . S
C2312 H2318 0.930 . S
N2313 Li2289 1.990 . S
N2313 C2312 1.314 . S
N2313 C2316 1.279 . S
C2314 C2312 1.353 . S
C2314 C2317 1.348 . S
C2314 H2362 0.929 . S
C2315 C2316 1.358 . S
C2315 C2317 1.356 . S
C2315 H2363 0.930 . S
C2316 N2313 1.279 . S
C2316 C2315 1.358 . S
C2316 H2319 0.930 . S
C2317 C2314 1.348 . S
C2317 C2315 1.356 . S
H2318 C2312 0.930 . S
H2319 C2316 0.930 . S
C2320 C2322 1.348 . S
C2320 C2323 1.356 . S
C2320 O2350 1.325 . S
N2321 C2324 1.314 . S
N2321 C2325 1.279 . S
C2322 C2320 1.348 . S
C2322 C2324 1.353 . S
C2322 H2364 0.929 . S
C2323 C2320 1.356 . S
C2323 C2325 1.358 . S
C2323 H2365 0.930 . S
C2324 N2321 1.314 . S
C2324 C2322 1.353 . S
C2324 H2366 0.930 . S
C2325 N2321 1.279 . S
C2325 C2323 1.358 . S
C2325 H2367 0.930 . S
C2326 C2327 1.348 . S
C2326 C2328 1.356 . S
C2326 O2351 1.325 . S
C2327 C2326 1.348 . S
C2327 C2329 1.353 . S
C2327 H2368 0.929 . S
C2328 C2326 1.356 . S
C2328 C2330 1.358 . S
C2328 H2369 0.930 . S
C2329 C2327 1.353 . S
C2329 N2331 1.314 . S
C2329 H2370 0.930 . S
C2330 C2328 1.358 . S
C2330 N2331 1.279 . S
C2330 H2371 0.930 . S
N2331 C2329 1.314 . S
N2331 C2330 1.279 . S
C2332 C2334 1.353 . S
C2332 N2335 1.314 . S
C2332 H2338 0.930 . S
C2333 N2335 1.279 . S
C2333 C2336 1.358 . S
C2333 H2339 0.930 . S
C2334 C2332 1.353 . S
C2334 C2337 1.348 . S
C2334 H2372 0.929 . S
N2335 Li2290 1.990 . S
N2335 C2332 1.314 . S
N2335 C2333 1.279 . S
C2336 C2333 1.358 . S
C2336 C2337 1.356 . S
C2336 H2373 0.930 . S
C2337 C2334 1.348 . S
C2337 C2336 1.356 . S
H2338 C2332 0.930 . S
H2339 C2333 0.930 . S
C2340 N2341 1.314 . S
C2340 C2342 1.353 . S
C2340 H2346 0.930 . S
N2341 Li2291 1.990 . S
N2341 C2340 1.314 . S
N2341 C2344 1.279 . S
C2342 C2340 1.353 . S
C2342 C2345 1.348 . S
C2342 H2374 0.929 . S
C2343 C2344 1.358 . S
C2343 C2345 1.356 . S
C2343 H2375 0.930 . S
C2344 N2341 1.279 . S
C2344 C2343 1.358 . S
C2344 H2347 0.930 . S
C2345 C2342 1.348 . S
C2345 C2343 1.356 . S
H2346 C2340 0.930 . S
H2347 C2344 0.930 . S
O2348 Li2288 1.956 . S
O2348 Li2289 1.970 . S
O2348 Li2290 1.961 . S
O2348 C2292 1.325 . S
O2349 Li2288 1.970 . S
O2349 Li2289 1.956 . S
O2349 Li2291 1.961 . S
O2349 C2298 1.325 . S
O2350 Li2288 1.961 . S
O2350 Li2290 1.956 . S
O2350 Li2291 1.970 . S
O2350 C2320 1.325 . S
O2351 Li2289 1.961 . S
O2351 Li2290 1.970 . S
O2351 Li2291 1.956 . S
O2351 C2326 1.325 . S
H2352 C2294 0.929 . S
H2353 C2295 0.930 . S
H2354 C2296 0.930 . S
H2355 C2297 0.930 . S
H2356 C2299 0.930 . S
H2357 C2301 0.929 . S
H2358 C2302 0.930 . S
H2359 C2303 0.930 . S
H2360 C2306 0.930 . S
H2361 C2309 0.929 . S
H2362 C2314 0.929 . S
H2363 C2315 0.930 . S
H2364 C2322 0.929 . S
H2365 C2323 0.930 . S
H2366 C2324 0.930 . S
H2367 C2325 0.930 . S
H2368 C2327 0.929 . S
H2369 C2328 0.930 . S
H2370 C2329 0.930 . S
H2371 C2330 0.930 . S
H2372 C2334 0.929 . S
H2373 C2336 0.930 . S
H2374 C2342 0.929 . S
H2375 C2343 0.930 . S
Li2376 N2393 1.990 . S
Li2376 O2436 1.956 . S
Li2376 O2437 1.970 . S
Li2376 O2438 1.961 . S
Li2377 N2401 1.990 . S
Li2377 O2436 1.970 . S
Li2377 O2437 1.956 . S
Li2377 O2439 1.961 . S
Li2378 N2423 1.990 . S
Li2378 O2436 1.961 . S
Li2378 O2438 1.956 . S
Li2378 O2439 1.970 . S
Li2379 N2429 1.990 . S
Li2379 O2437 1.961 . S
Li2379 O2438 1.970 . S
Li2379 O2439 1.956 . S
C2380 C2382 1.348 . S
C2380 C2383 1.356 . S
C2380 O2436 1.325 . S
N2381 C2384 1.314 . S
N2381 C2385 1.279 . S
C2382 C2380 1.348 . S
C2382 C2384 1.353 . S
C2382 H2440 0.929 . S
C2383 C2380 1.356 . S
C2383 C2385 1.358 . S
C2383 H2441 0.930 . S
C2384 N2381 1.314 . S
C2384 C2382 1.353 . S
C2384 H2442 0.930 . S
C2385 N2381 1.279 . S
C2385 C2383 1.358 . S
C2385 H2443 0.930 . S
C2386 C2389 1.348 . S
C2386 C2390 1.356 . S
C2386 O2437 1.325 . S
C2387 N2388 1.279 . S
C2387 C2390 1.358 . S
C2387 H2444 0.930 . S
N2388 C2387 1.279 . S
N2388 C2391 1.314 . S
C2389 C2386 1.348 . S
C2389 C2391 1.353 . S
C2389 H2445 0.929 . S
C2390 C2386 1.356 . S
C2390 C2387 1.358 . S
C2390 H2446 0.930 . S
C2391 N2388 1.314 . S
C2391 C2389 1.353 . S
C2391 H2447 0.930 . S
C2392 N2393 1.314 . S
C2392 C2397 1.353 . S
C2392 H2398 0.930 . S
N2393 Li2376 1.990 . S
N2393 C2392 1.314 . S
N2393 C2395 1.279 . S
C2394 C2395 1.358 . S
C2394 C2396 1.356 . S
C2394 H2448 0.930 . S
C2395 N2393 1.279 . S
C2395 C2394 1.358 . S
C2395 H2399 0.930 . S
C2396 C2394 1.356 . S
C2396 C2397 1.348 . S
C2397 C2392 1.353 . S
C2397 C2396 1.348 . S
C2397 H2449 0.929 . S
H2398 C2392 0.930 . S
H2399 C2395 0.930 . S
C2400 N2401 1.314 . S
C2400 C2402 1.353 . S
C2400 H2406 0.930 . S
N2401 Li2377 1.990 . S
N2401 C2400 1.314 . S
N2401 C2404 1.279 . S
C2402 C2400 1.353 . S
C2402 C2405 1.348 . S
C2402 H2450 0.929 . S
C2403 C2404 1.358 . S
C2403 C2405 1.356 . S
C2403 H2451 0.930 . S
C2404 N2401 1.279 . S
C2404 C2403 1.358 . S
C2404 H2407 0.930 . S
C2405 C2402 1.348 . S
C2405 C2403 1.356 . S
H2406 C2400 0.930 . S
H2407 C2404 0.930 . S
C2408 C2410 1.348 . S
C2408 C2411 1.356 . S
C2408 O2438 1.325 . S
N2409 C2412 1.314 . S
N2409 C2413 1.279 . S
C2410 C2408 1.348 . S
C2410 C2412 1.353 . S
C2410 H2452 0.929 . S
C2411 C2408 1.356 . S
C2411 C2413 1.358 . S
C2411 H2453 0.930 . S
C2412 N2409 1.314 . S
C2412 C2410 1.353 . S
C2412 H2454 0.930 . S
C2413 N2409 1.279 . S
C2413 C2411 1.358 . S
C2413 H2455 0.930 . S
C2414 C2415 1.348 . S
C2414 C2416 1.356 . S
C2414 O2439 1.325 . S
C2415 C2414 1.348 . S
C2415 C2417 1.353 . S
C2415 H2456 0.929 . S
C2416 C2414 1.356 . S
C2416 C2418 1.358 . S
C2416 H2457 0.930 . S
C2417 C2415 1.353 . S
C2417 N2419 1.314 . S
C2417 H2458 0.930 . S
C2418 C2416 1.358 . S
C2418 N2419 1.279 . S
C2418 H2459 0.930 . S
N2419 C2417 1.314 . S
N2419 C2418 1.279 . S
C2420 C2422 1.353 . S
C2420 N2423 1.314 . S
C2420 H2426 0.930 . S
C2421 N2423 1.279 . S
C2421 C2424 1.358 . S
C2421 H2427 0.930 . S
C2422 C2420 1.353 . S
C2422 C2425 1.348 . S
C2422 H2460 0.929 . S
N2423 Li2378 1.990 . S
N2423 C2420 1.314 . S
N2423 C2421 1.279 . S
C2424 C2421 1.358 . S
C2424 C2425 1.356 . S
C2424 H2461 0.930 . S
C2425 C2422 1.348 . S
C2425 C2424 1.356 . S
H2426 C2420 0.930 . S
H2427 C2421 0.930 . S
C2428 N2429 1.314 . S
C2428 C2430 1.353 . S
C2428 H2434 0.930 . S
N2429 Li2379 1.990 . S
N2429 C2428 1.314 . S
N2429 C2432 1.279 . S
C2430 C2428 1.353 . S
C2430 C2433 1.348 . S
C2430 H2462 0.929 . S
C2431 C2432 1.358 . S
C2431 C2433 1.356 . S
C2431 H2463 0.930 . S
C2432 N2429 1.279 . S
C2432 C2431 1.358 . S
C2432 H2435 0.930 . S
C2433 C2430 1.348 . S
C2433 C2431 1.356 . S
H2434 C2428 0.930 . S
H2435 C2432 0.930 . S
O2436 Li2376 1.956 . S
O2436 Li2377 1.970 . S
O2436 Li2378 1.961 . S
O2436 C2380 1.325 . S
O2437 Li2376 1.970 . S
O2437 Li2377 1.956 . S
O2437 Li2379 1.961 . S
O2437 C2386 1.325 . S
O2438 Li2376 1.961 . S
O2438 Li2378 1.956 . S
O2438 Li2379 1.970 . S
O2438 C2408 1.325 . S
O2439 Li2377 1.961 . S
O2439 Li2378 1.970 . S
O2439 Li2379 1.956 . S
O2439 C2414 1.325 . S
H2440 C2382 0.929 . S
H2441 C2383 0.930 . S
H2442 C2384 0.930 . S
H2443 C2385 0.930 . S
H2444 C2387 0.930 . S
H2445 C2389 0.929 . S
H2446 C2390 0.930 . S
H2447 C2391 0.930 . S
H2448 C2394 0.930 . S
H2449 C2397 0.929 . S
H2450 C2402 0.929 . S
H2451 C2403 0.930 . S
H2452 C2410 0.929 . S
H2453 C2411 0.930 . S
H2454 C2412 0.930 . S
H2455 C2413 0.930 . S
H2456 C2415 0.929 . S
H2457 C2416 0.930 . S
H2458 C2417 0.930 . S
H2459 C2418 0.930 . S
H2460 C2422 0.929 . S
H2461 C2424 0.930 . S
H2462 C2430 0.929 . S
H2463 C2431 0.930 . S
Li2464 N2481 1.990 . S
Li2464 O2524 1.956 . S
Li2464 O2525 1.970 . S
Li2464 O2526 1.961 . S
Li2465 N2489 1.990 . S
Li2465 O2524 1.970 . S
Li2465 O2525 1.956 . S
Li2465 O2527 1.961 . S
Li2466 N2511 1.990 . S
Li2466 O2524 1.961 . S
Li2466 O2526 1.956 . S
Li2466 O2527 1.970 . S
Li2467 N2517 1.990 . S
Li2467 O2525 1.961 . S
Li2467 O2526 1.970 . S
Li2467 O2527 1.956 . S
C2468 C2470 1.348 . S
C2468 C2471 1.356 . S
C2468 O2524 1.325 . S
N2469 C2472 1.314 . S
N2469 C2473 1.279 . S
C2470 C2468 1.348 . S
C2470 C2472 1.353 . S
C2470 H2528 0.929 . S
C2471 C2468 1.356 . S
C2471 C2473 1.358 . S
C2471 H2529 0.930 . S
C2472 N2469 1.314 . S
C2472 C2470 1.353 . S
C2472 H2530 0.930 . S
C2473 N2469 1.279 . S
C2473 C2471 1.358 . S
C2473 H2531 0.930 . S
C2474 C2477 1.348 . S
C2474 C2478 1.356 . S
C2474 O2525 1.325 . S
C2475 N2476 1.279 . S
C2475 C2478 1.358 . S
C2475 H2532 0.930 . S
N2476 C2475 1.279 . S
N2476 C2479 1.314 . S
C2477 C2474 1.348 . S
C2477 C2479 1.353 . S
C2477 H2533 0.929 . S
C2478 C2474 1.356 . S
C2478 C2475 1.358 . S
C2478 H2534 0.930 . S
C2479 N2476 1.314 . S
C2479 C2477 1.353 . S
C2479 H2535 0.930 . S
C2480 N2481 1.314 . S
C2480 C2485 1.353 . S
C2480 H2486 0.930 . S
N2481 Li2464 1.990 . S
N2481 C2480 1.314 . S
N2481 C2483 1.279 . S
C2482 C2483 1.358 . S
C2482 C2484 1.356 . S
C2482 H2536 0.930 . S
C2483 N2481 1.279 . S
C2483 C2482 1.358 . S
C2483 H2487 0.930 . S
C2484 C2482 1.356 . S
C2484 C2485 1.348 . S
C2485 C2480 1.353 . S
C2485 C2484 1.348 . S
C2485 H2537 0.929 . S
H2486 C2480 0.930 . S
H2487 C2483 0.930 . S
C2488 N2489 1.314 . S
C2488 C2490 1.353 . S
C2488 H2494 0.930 . S
N2489 Li2465 1.990 . S
N2489 C2488 1.314 . S
N2489 C2492 1.279 . S
C2490 C2488 1.353 . S
C2490 C2493 1.348 . S
C2490 H2538 0.929 . S
C2491 C2492 1.358 . S
C2491 C2493 1.356 . S
C2491 H2539 0.930 . S
C2492 N2489 1.279 . S
C2492 C2491 1.358 . S
C2492 H2495 0.930 . S
C2493 C2490 1.348 . S
C2493 C2491 1.356 . S
H2494 C2488 0.930 . S
H2495 C2492 0.930 . S
C2496 C2498 1.348 . S
C2496 C2499 1.356 . S
C2496 O2526 1.325 . S
N2497 C2500 1.314 . S
N2497 C2501 1.279 . S
C2498 C2496 1.348 . S
C2498 C2500 1.353 . S
C2498 H2540 0.929 . S
C2499 C2496 1.356 . S
C2499 C2501 1.358 . S
C2499 H2541 0.930 . S
C2500 N2497 1.314 . S
C2500 C2498 1.353 . S
C2500 H2542 0.930 . S
C2501 N2497 1.279 . S
C2501 C2499 1.358 . S
C2501 H2543 0.930 . S
C2502 C2503 1.348 . S
C2502 C2504 1.356 . S
C2502 O2527 1.325 . S
C2503 C2502 1.348 . S
C2503 C2505 1.353 . S
C2503 H2544 0.929 . S
C2504 C2502 1.356 . S
C2504 C2506 1.358 . S
C2504 H2545 0.930 . S
C2505 C2503 1.353 . S
C2505 N2507 1.314 . S
C2505 H2546 0.930 . S
C2506 C2504 1.358 . S
C2506 N2507 1.279 . S
C2506 H2547 0.930 . S
N2507 C2505 1.314 . S
N2507 C2506 1.279 . S
C2508 C2510 1.353 . S
C2508 N2511 1.314 . S
C2508 H2514 0.930 . S
C2509 N2511 1.279 . S
C2509 C2512 1.358 . S
C2509 H2515 0.930 . S
C2510 C2508 1.353 . S
C2510 C2513 1.348 . S
C2510 H2548 0.929 . S
N2511 Li2466 1.990 . S
N2511 C2508 1.314 . S
N2511 C2509 1.279 . S
C2512 C2509 1.358 . S
C2512 C2513 1.356 . S
C2512 H2549 0.930 . S
C2513 C2510 1.348 . S
C2513 C2512 1.356 . S
H2514 C2508 0.930 . S
H2515 C2509 0.930 . S
C2516 N2517 1.314 . S
C2516 C2518 1.353 . S
C2516 H2522 0.930 . S
N2517 Li2467 1.990 . S
N2517 C2516 1.314 . S
N2517 C2520 1.279 . S
C2518 C2516 1.353 . S
C2518 C2521 1.348 . S
C2518 H2550 0.929 . S
C2519 C2520 1.358 . S
C2519 C2521 1.356 . S
C2519 H2551 0.930 . S
C2520 N2517 1.279 . S
C2520 C2519 1.358 . S
C2520 H2523 0.930 . S
C2521 C2518 1.348 . S
C2521 C2519 1.356 . S
H2522 C2516 0.930 . S
H2523 C2520 0.930 . S
O2524 Li2464 1.956 . S
O2524 Li2465 1.970 . S
O2524 Li2466 1.961 . S
O2524 C2468 1.325 . S
O2525 Li2464 1.970 . S
O2525 Li2465 1.956 . S
O2525 Li2467 1.961 . S
O2525 C2474 1.325 . S
O2526 Li2464 1.961 . S
O2526 Li2466 1.956 . S
O2526 Li2467 1.970 . S
O2526 C2496 1.325 . S
O2527 Li2465 1.961 . S
O2527 Li2466 1.970 . S
O2527 Li2467 1.956 . S
O2527 C2502 1.325 . S
H2528 C2470 0.929 . S
H2529 C2471 0.930 . S
H2530 C2472 0.930 . S
H2531 C2473 0.930 . S
H2532 C2475 0.930 . S
H2533 C2477 0.929 . S
H2534 C2478 0.930 . S
H2535 C2479 0.930 . S
H2536 C2482 0.930 . S
H2537 C2485 0.929 . S
H2538 C2490 0.929 . S
H2539 C2491 0.930 . S
H2540 C2498 0.929 . S
H2541 C2499 0.930 . S
H2542 C2500 0.930 . S
H2543 C2501 0.930 . S
H2544 C2503 0.929 . S
H2545 C2504 0.930 . S
H2546 C2505 0.930 . S
H2547 C2506 0.930 . S
H2548 C2510 0.929 . S
H2549 C2512 0.930 . S
H2550 C2518 0.929 . S
H2551 C2519 0.930 . S
Li2552 N2569 1.990 . S
Li2552 O2612 1.956 . S
Li2552 O2613 1.970 . S
Li2552 O2614 1.961 . S
Li2553 N2577 1.990 . S
Li2553 O2612 1.970 . S
Li2553 O2613 1.956 . S
Li2553 O2615 1.961 . S
Li2554 N2599 1.990 . S
Li2554 O2612 1.961 . S
Li2554 O2614 1.956 . S
Li2554 O2615 1.970 . S
Li2555 N2605 1.990 . S
Li2555 O2613 1.961 . S
Li2555 O2614 1.970 . S
Li2555 O2615 1.956 . S
C2556 C2558 1.348 . S
C2556 C2559 1.356 . S
C2556 O2612 1.325 . S
N2557 C2560 1.314 . S
N2557 C2561 1.279 . S
C2558 C2556 1.348 . S
C2558 C2560 1.353 . S
C2558 H2616 0.929 . S
C2559 C2556 1.356 . S
C2559 C2561 1.358 . S
C2559 H2617 0.930 . S
C2560 N2557 1.314 . S
C2560 C2558 1.353 . S
C2560 H2618 0.930 . S
C2561 N2557 1.279 . S
C2561 C2559 1.358 . S
C2561 H2619 0.930 . S
C2562 C2565 1.348 . S
C2562 C2566 1.356 . S
C2562 O2613 1.325 . S
C2563 N2564 1.279 . S
C2563 C2566 1.358 . S
C2563 H2620 0.930 . S
N2564 C2563 1.279 . S
N2564 C2567 1.314 . S
C2565 C2562 1.348 . S
C2565 C2567 1.353 . S
C2565 H2621 0.929 . S
C2566 C2562 1.356 . S
C2566 C2563 1.358 . S
C2566 H2622 0.930 . S
C2567 N2564 1.314 . S
C2567 C2565 1.353 . S
C2567 H2623 0.930 . S
C2568 N2569 1.314 . S
C2568 C2573 1.353 . S
C2568 H2574 0.930 . S
N2569 Li2552 1.990 . S
N2569 C2568 1.314 . S
N2569 C2571 1.279 . S
C2570 C2571 1.358 . S
C2570 C2572 1.356 . S
C2570 H2624 0.930 . S
C2571 N2569 1.279 . S
C2571 C2570 1.358 . S
C2571 H2575 0.930 . S
C2572 C2570 1.356 . S
C2572 C2573 1.348 . S
C2573 C2568 1.353 . S
C2573 C2572 1.348 . S
C2573 H2625 0.929 . S
H2574 C2568 0.930 . S
H2575 C2571 0.930 . S
C2576 N2577 1.314 . S
C2576 C2578 1.353 . S
C2576 H2582 0.930 . S
N2577 Li2553 1.990 . S
N2577 C2576 1.314 . S
N2577 C2580 1.279 . S
C2578 C2576 1.353 . S
C2578 C2581 1.348 . S
C2578 H2626 0.929 . S
C2579 C2580 1.358 . S
C2579 C2581 1.356 . S
C2579 H2627 0.930 . S
C2580 N2577 1.279 . S
C2580 C2579 1.358 . S
C2580 H2583 0.930 . S
C2581 C2578 1.348 . S
C2581 C2579 1.356 . S
H2582 C2576 0.930 . S
H2583 C2580 0.930 . S
C2584 C2586 1.348 . S
C2584 C2587 1.356 . S
C2584 O2614 1.325 . S
N2585 C2588 1.314 . S
N2585 C2589 1.279 . S
C2586 C2584 1.348 . S
C2586 C2588 1.353 . S
C2586 H2628 0.929 . S
C2587 C2584 1.356 . S
C2587 C2589 1.358 . S
C2587 H2629 0.930 . S
C2588 N2585 1.314 . S
C2588 C2586 1.353 . S
C2588 H2630 0.930 . S
C2589 N2585 1.279 . S
C2589 C2587 1.358 . S
C2589 H2631 0.930 . S
C2590 C2591 1.348 . S
C2590 C2592 1.356 . S
C2590 O2615 1.325 . S
C2591 C2590 1.348 . S
C2591 C2593 1.353 . S
C2591 H2632 0.929 . S
C2592 C2590 1.356 . S
C2592 C2594 1.358 . S
C2592 H2633 0.930 . S
C2593 C2591 1.353 . S
C2593 N2595 1.314 . S
C2593 H2634 0.930 . S
C2594 C2592 1.358 . S
C2594 N2595 1.279 . S
C2594 H2635 0.930 . S
N2595 C2593 1.314 . S
N2595 C2594 1.279 . S
C2596 C2598 1.353 . S
C2596 N2599 1.314 . S
C2596 H2602 0.930 . S
C2597 N2599 1.279 . S
C2597 C2600 1.358 . S
C2597 H2603 0.930 . S
C2598 C2596 1.353 . S
C2598 C2601 1.348 . S
C2598 H2636 0.929 . S
N2599 Li2554 1.990 . S
N2599 C2596 1.314 . S
N2599 C2597 1.279 . S
C2600 C2597 1.358 . S
C2600 C2601 1.356 . S
C2600 H2637 0.930 . S
C2601 C2598 1.348 . S
C2601 C2600 1.356 . S
H2602 C2596 0.930 . S
H2603 C2597 0.930 . S
C2604 N2605 1.314 . S
C2604 C2606 1.353 . S
C2604 H2610 0.930 . S
N2605 Li2555 1.990 . S
N2605 C2604 1.314 . S
N2605 C2608 1.279 . S
C2606 C2604 1.353 . S
C2606 C2609 1.348 . S
C2606 H2638 0.929 . S
C2607 C2608 1.358 . S
C2607 C2609 1.356 . S
C2607 H2639 0.930 . S
C2608 N2605 1.279 . S
C2608 C2607 1.358 . S
C2608 H2611 0.930 . S
C2609 C2606 1.348 . S
C2609 C2607 1.356 . S
H2610 C2604 0.930 . S
H2611 C2608 0.930 . S
O2612 Li2552 1.956 . S
O2612 Li2553 1.970 . S
O2612 Li2554 1.961 . S
O2612 C2556 1.325 . S
O2613 Li2552 1.970 . S
O2613 Li2553 1.956 . S
O2613 Li2555 1.961 . S
O2613 C2562 1.325 . S
O2614 Li2552 1.961 . S
O2614 Li2554 1.956 . S
O2614 Li2555 1.970 . S
O2614 C2584 1.325 . S
O2615 Li2553 1.961 . S
O2615 Li2554 1.970 . S
O2615 Li2555 1.956 . S
O2615 C2590 1.325 . S
H2616 C2558 0.929 . S
H2617 C2559 0.930 . S
H2618 C2560 0.930 . S
H2619 C2561 0.930 . S
H2620 C2563 0.930 . S
H2621 C2565 0.929 . S
H2622 C2566 0.930 . S
H2623 C2567 0.930 . S
H2624 C2570 0.930 . S
H2625 C2573 0.929 . S
H2626 C2578 0.929 . S
H2627 C2579 0.930 . S
H2628 C2586 0.929 . S
H2629 C2587 0.930 . S
H2630 C2588 0.930 . S
H2631 C2589 0.930 . S
H2632 C2591 0.929 . S
H2633 C2592 0.930 . S
H2634 C2593 0.930 . S
H2635 C2594 0.930 . S
H2636 C2598 0.929 . S
H2637 C2600 0.930 . S
H2638 C2606 0.929 . S
H2639 C2607 0.930 . S
Li2640 N2657 1.990 . S
Li2640 O2700 1.956 . S
Li2640 O2701 1.970 . S
Li2640 O2702 1.961 . S
Li2641 N2665 1.990 . S
Li2641 O2700 1.970 . S
Li2641 O2701 1.956 . S
Li2641 O2703 1.961 . S
Li2642 N2687 1.990 . S
Li2642 O2700 1.961 . S
Li2642 O2702 1.956 . S
Li2642 O2703 1.970 . S
Li2643 N2693 1.990 . S
Li2643 O2701 1.961 . S
Li2643 O2702 1.970 . S
Li2643 O2703 1.956 . S
C2644 C2646 1.348 . S
C2644 C2647 1.356 . S
C2644 O2700 1.325 . S
N2645 C2648 1.314 . S
N2645 C2649 1.279 . S
C2646 C2644 1.348 . S
C2646 C2648 1.353 . S
C2646 H2704 0.929 . S
C2647 C2644 1.356 . S
C2647 C2649 1.358 . S
C2647 H2705 0.930 . S
C2648 N2645 1.314 . S
C2648 C2646 1.353 . S
C2648 H2706 0.930 . S
C2649 N2645 1.279 . S
C2649 C2647 1.358 . S
C2649 H2707 0.930 . S
C2650 C2653 1.348 . S
C2650 C2654 1.356 . S
C2650 O2701 1.325 . S
C2651 N2652 1.279 . S
C2651 C2654 1.358 . S
C2651 H2708 0.930 . S
N2652 C2651 1.279 . S
N2652 C2655 1.314 . S
C2653 C2650 1.348 . S
C2653 C2655 1.353 . S
C2653 H2709 0.929 . S
C2654 C2650 1.356 . S
C2654 C2651 1.358 . S
C2654 H2710 0.930 . S
C2655 N2652 1.314 . S
C2655 C2653 1.353 . S
C2655 H2711 0.930 . S
C2656 N2657 1.314 . S
C2656 C2661 1.353 . S
C2656 H2662 0.930 . S
N2657 Li2640 1.990 . S
N2657 C2656 1.314 . S
N2657 C2659 1.279 . S
C2658 C2659 1.358 . S
C2658 C2660 1.356 . S
C2658 H2712 0.930 . S
C2659 N2657 1.279 . S
C2659 C2658 1.358 . S
C2659 H2663 0.930 . S
C2660 C2658 1.356 . S
C2660 C2661 1.348 . S
C2661 C2656 1.353 . S
C2661 C2660 1.348 . S
C2661 H2713 0.929 . S
H2662 C2656 0.930 . S
H2663 C2659 0.930 . S
C2664 N2665 1.314 . S
C2664 C2666 1.353 . S
C2664 H2670 0.930 . S
N2665 Li2641 1.990 . S
N2665 C2664 1.314 . S
N2665 C2668 1.279 . S
C2666 C2664 1.353 . S
C2666 C2669 1.348 . S
C2666 H2714 0.929 . S
C2667 C2668 1.358 . S
C2667 C2669 1.356 . S
C2667 H2715 0.930 . S
C2668 N2665 1.279 . S
C2668 C2667 1.358 . S
C2668 H2671 0.930 . S
C2669 C2666 1.348 . S
C2669 C2667 1.356 . S
H2670 C2664 0.930 . S
H2671 C2668 0.930 . S
C2672 C2674 1.348 . S
C2672 C2675 1.356 . S
C2672 O2702 1.325 . S
N2673 C2676 1.314 . S
N2673 C2677 1.279 . S
C2674 C2672 1.348 . S
C2674 C2676 1.353 . S
C2674 H2716 0.929 . S
C2675 C2672 1.356 . S
C2675 C2677 1.358 . S
C2675 H2717 0.930 . S
C2676 N2673 1.314 . S
C2676 C2674 1.353 . S
C2676 H2718 0.930 . S
C2677 N2673 1.279 . S
C2677 C2675 1.358 . S
C2677 H2719 0.930 . S
C2678 C2679 1.348 . S
C2678 C2680 1.356 . S
C2678 O2703 1.325 . S
C2679 C2678 1.348 . S
C2679 C2681 1.353 . S
C2679 H2720 0.929 . S
C2680 C2678 1.356 . S
C2680 C2682 1.358 . S
C2680 H2721 0.930 . S
C2681 C2679 1.353 . S
C2681 N2683 1.314 . S
C2681 H2722 0.930 . S
C2682 C2680 1.358 . S
C2682 N2683 1.279 . S
C2682 H2723 0.930 . S
N2683 C2681 1.314 . S
N2683 C2682 1.279 . S
C2684 C2686 1.353 . S
C2684 N2687 1.314 . S
C2684 H2690 0.930 . S
C2685 N2687 1.279 . S
C2685 C2688 1.358 . S
C2685 H2691 0.930 . S
C2686 C2684 1.353 . S
C2686 C2689 1.348 . S
C2686 H2724 0.929 . S
N2687 Li2642 1.990 . S
N2687 C2684 1.314 . S
N2687 C2685 1.279 . S
C2688 C2685 1.358 . S
C2688 C2689 1.356 . S
C2688 H2725 0.930 . S
C2689 C2686 1.348 . S
C2689 C2688 1.356 . S
H2690 C2684 0.930 . S
H2691 C2685 0.930 . S
C2692 N2693 1.314 . S
C2692 C2694 1.353 . S
C2692 H2698 0.930 . S
N2693 Li2643 1.990 . S
N2693 C2692 1.314 . S
N2693 C2696 1.279 . S
C2694 C2692 1.353 . S
C2694 C2697 1.348 . S
C2694 H2726 0.929 . S
C2695 C2696 1.358 . S
C2695 C2697 1.356 . S
C2695 H2727 0.930 . S
C2696 N2693 1.279 . S
C2696 C2695 1.358 . S
C2696 H2699 0.930 . S
C2697 C2694 1.348 . S
C2697 C2695 1.356 . S
H2698 C2692 0.930 . S
H2699 C2696 0.930 . S
O2700 Li2640 1.956 . S
O2700 Li2641 1.970 . S
O2700 Li2642 1.961 . S
O2700 C2644 1.325 . S
O2701 Li2640 1.970 . S
O2701 Li2641 1.956 . S
O2701 Li2643 1.961 . S
O2701 C2650 1.325 . S
O2702 Li2640 1.961 . S
O2702 Li2642 1.956 . S
O2702 Li2643 1.970 . S
O2702 C2672 1.325 . S
O2703 Li2641 1.961 . S
O2703 Li2642 1.970 . S
O2703 Li2643 1.956 . S
O2703 C2678 1.325 . S
H2704 C2646 0.929 . S
H2705 C2647 0.930 . S
H2706 C2648 0.930 . S
H2707 C2649 0.930 . S
H2708 C2651 0.930 . S
H2709 C2653 0.929 . S
H2710 C2654 0.930 . S
H2711 C2655 0.930 . S
H2712 C2658 0.930 . S
H2713 C2661 0.929 . S
H2714 C2666 0.929 . S
H2715 C2667 0.930 . S
H2716 C2674 0.929 . S
H2717 C2675 0.930 . S
H2718 C2676 0.930 . S
H2719 C2677 0.930 . S
H2720 C2679 0.929 . S
H2721 C2680 0.930 . S
H2722 C2681 0.930 . S
H2723 C2682 0.930 . S
H2724 C2686 0.929 . S
H2725 C2688 0.930 . S
H2726 C2694 0.929 . S
H2727 C2695 0.930 . S
Li2728 N2745 1.990 . S
Li2728 O2788 1.956 . S
Li2728 O2789 1.970 . S
Li2728 O2790 1.961 . S
Li2729 N2753 1.990 . S
Li2729 O2788 1.970 . S
Li2729 O2789 1.956 . S
Li2729 O2791 1.961 . S
Li2730 N2775 1.990 . S
Li2730 O2788 1.961 . S
Li2730 O2790 1.956 . S
Li2730 O2791 1.970 . S
Li2731 N2781 1.990 . S
Li2731 O2789 1.961 . S
Li2731 O2790 1.970 . S
Li2731 O2791 1.956 . S
C2732 C2734 1.348 . S
C2732 C2735 1.356 . S
C2732 O2788 1.325 . S
N2733 C2736 1.314 . S
N2733 C2737 1.279 . S
C2734 C2732 1.348 . S
C2734 C2736 1.353 . S
C2734 H2792 0.929 . S
C2735 C2732 1.356 . S
C2735 C2737 1.358 . S
C2735 H2793 0.930 . S
C2736 N2733 1.314 . S
C2736 C2734 1.353 . S
C2736 H2794 0.930 . S
C2737 N2733 1.279 . S
C2737 C2735 1.358 . S
C2737 H2795 0.930 . S
C2738 C2741 1.348 . S
C2738 C2742 1.356 . S
C2738 O2789 1.325 . S
C2739 N2740 1.279 . S
C2739 C2742 1.358 . S
C2739 H2796 0.930 . S
N2740 C2739 1.279 . S
N2740 C2743 1.314 . S
C2741 C2738 1.348 . S
C2741 C2743 1.353 . S
C2741 H2797 0.929 . S
C2742 C2738 1.356 . S
C2742 C2739 1.358 . S
C2742 H2798 0.930 . S
C2743 N2740 1.314 . S
C2743 C2741 1.353 . S
C2743 H2799 0.930 . S
C2744 N2745 1.314 . S
C2744 C2749 1.353 . S
C2744 H2750 0.930 . S
N2745 Li2728 1.990 . S
N2745 C2744 1.314 . S
N2745 C2747 1.279 . S
C2746 C2747 1.358 . S
C2746 C2748 1.356 . S
C2746 H2800 0.930 . S
C2747 N2745 1.279 . S
C2747 C2746 1.358 . S
C2747 H2751 0.930 . S
C2748 C2746 1.356 . S
C2748 C2749 1.348 . S
C2749 C2744 1.353 . S
C2749 C2748 1.348 . S
C2749 H2801 0.929 . S
H2750 C2744 0.930 . S
H2751 C2747 0.930 . S
C2752 N2753 1.314 . S
C2752 C2754 1.353 . S
C2752 H2758 0.930 . S
N2753 Li2729 1.990 . S
N2753 C2752 1.314 . S
N2753 C2756 1.279 . S
C2754 C2752 1.353 . S
C2754 C2757 1.348 . S
C2754 H2802 0.929 . S
C2755 C2756 1.358 . S
C2755 C2757 1.356 . S
C2755 H2803 0.930 . S
C2756 N2753 1.279 . S
C2756 C2755 1.358 . S
C2756 H2759 0.930 . S
C2757 C2754 1.348 . S
C2757 C2755 1.356 . S
H2758 C2752 0.930 . S
H2759 C2756 0.930 . S
C2760 C2762 1.348 . S
C2760 C2763 1.356 . S
C2760 O2790 1.325 . S
N2761 C2764 1.314 . S
N2761 C2765 1.279 . S
C2762 C2760 1.348 . S
C2762 C2764 1.353 . S
C2762 H2804 0.929 . S
C2763 C2760 1.356 . S
C2763 C2765 1.358 . S
C2763 H2805 0.930 . S
C2764 N2761 1.314 . S
C2764 C2762 1.353 . S
C2764 H2806 0.930 . S
C2765 N2761 1.279 . S
C2765 C2763 1.358 . S
C2765 H2807 0.930 . S
C2766 C2767 1.348 . S
C2766 C2768 1.356 . S
C2766 O2791 1.325 . S
C2767 C2766 1.348 . S
C2767 C2769 1.353 . S
C2767 H2808 0.929 . S
C2768 C2766 1.356 . S
C2768 C2770 1.358 . S
C2768 H2809 0.930 . S
C2769 C2767 1.353 . S
C2769 N2771 1.314 . S
C2769 H2810 0.930 . S
C2770 C2768 1.358 . S
C2770 N2771 1.279 . S
C2770 H2811 0.930 . S
N2771 C2769 1.314 . S
N2771 C2770 1.279 . S
C2772 C2774 1.353 . S
C2772 N2775 1.314 . S
C2772 H2778 0.930 . S
C2773 N2775 1.279 . S
C2773 C2776 1.358 . S
C2773 H2779 0.930 . S
C2774 C2772 1.353 . S
C2774 C2777 1.348 . S
C2774 H2812 0.929 . S
N2775 Li2730 1.990 . S
N2775 C2772 1.314 . S
N2775 C2773 1.279 . S
C2776 C2773 1.358 . S
C2776 C2777 1.356 . S
C2776 H2813 0.930 . S
C2777 C2774 1.348 . S
C2777 C2776 1.356 . S
H2778 C2772 0.930 . S
H2779 C2773 0.930 . S
C2780 N2781 1.314 . S
C2780 C2782 1.353 . S
C2780 H2786 0.930 . S
N2781 Li2731 1.990 . S
N2781 C2780 1.314 . S
N2781 C2784 1.279 . S
C2782 C2780 1.353 . S
C2782 C2785 1.348 . S
C2782 H2814 0.929 . S
C2783 C2784 1.358 . S
C2783 C2785 1.356 . S
C2783 H2815 0.930 . S
C2784 N2781 1.279 . S
C2784 C2783 1.358 . S
C2784 H2787 0.930 . S
C2785 C2782 1.348 . S
C2785 C2783 1.356 . S
H2786 C2780 0.930 . S
H2787 C2784 0.930 . S
O2788 Li2728 1.956 . S
O2788 Li2729 1.970 . S
O2788 Li2730 1.961 . S
O2788 C2732 1.325 . S
O2789 Li2728 1.970 . S
O2789 Li2729 1.956 . S
O2789 Li2731 1.961 . S
O2789 C2738 1.325 . S
O2790 Li2728 1.961 . S
O2790 Li2730 1.956 . S
O2790 Li2731 1.970 . S
O2790 C2760 1.325 . S
O2791 Li2729 1.961 . S
O2791 Li2730 1.970 . S
O2791 Li2731 1.956 . S
O2791 C2766 1.325 . S
H2792 C2734 0.929 . S
H2793 C2735 0.930 . S
H2794 C2736 0.930 . S
H2795 C2737 0.930 . S
H2796 C2739 0.930 . S
H2797 C2741 0.929 . S
H2798 C2742 0.930 . S
H2799 C2743 0.930 . S
H2800 C2746 0.930 . S
H2801 C2749 0.929 . S
H2802 C2754 0.929 . S
H2803 C2755 0.930 . S
H2804 C2762 0.929 . S
H2805 C2763 0.930 . S
H2806 C2764 0.930 . S
H2807 C2765 0.930 . S
H2808 C2767 0.929 . S
H2809 C2768 0.930 . S
H2810 C2769 0.930 . S
H2811 C2770 0.930 . S
H2812 C2774 0.929 . S
H2813 C2776 0.930 . S
H2814 C2782 0.929 . S
H2815 C2783 0.930 . S
C2816 C2817 1.387 . S
C2816 H2820 0.950 . S
C2816 C2825 1.390 . S
C2817 C2816 1.387 . S
C2817 C2819 1.387 . S
H2818 C2825 0.950 . S
C2819 C2817 1.387 . S
C2819 C2821 1.390 . S
C2819 H2823 0.950 . S
H2820 C2816 0.950 . S
C2821 C2819 1.390 . S
C2821 C2822 1.387 . S
C2821 H2824 0.950 . S
C2822 C2821 1.387 . S
C2822 C2825 1.387 . S
H2823 C2819 0.950 . S
H2824 C2821 0.950 . S
C2825 C2816 1.390 . S
C2825 H2818 0.950 . S
C2825 C2822 1.387 . S
C2826 C2827 1.387 . S
C2826 H2830 0.950 . S
C2826 C2835 1.390 . S
C2827 C2826 1.387 . S
C2827 C2829 1.387 . S
H2828 C2835 0.950 . S
C2829 C2827 1.387 . S
C2829 C2831 1.390 . S
C2829 H2833 0.950 . S
H2830 C2826 0.950 . S
C2831 C2829 1.390 . S
C2831 C2832 1.387 . S
C2831 H2834 0.950 . S
C2832 C2831 1.387 . S
C2832 C2835 1.387 . S
H2833 C2829 0.950 . S
H2834 C2831 0.950 . S
C2835 C2826 1.390 . S
C2835 H2828 0.950 . S
C2835 C2832 1.387 . S
C2836 C2837 1.387 . S
C2836 H2840 0.950 . S
C2836 C2845 1.390 . S
C2837 C2836 1.387 . S
C2837 C2839 1.387 . S
H2838 C2845 0.950 . S
C2839 C2837 1.387 . S
C2839 C2841 1.390 . S
C2839 H2843 0.950 . S
H2840 C2836 0.950 . S
C2841 C2839 1.390 . S
C2841 C2842 1.387 . S
C2841 H2844 0.950 . S
C2842 C2841 1.387 . S
C2842 C2845 1.387 . S
H2843 C2839 0.950 . S
H2844 C2841 0.950 . S
C2845 C2836 1.390 . S
C2845 H2838 0.950 . S
C2845 C2842 1.387 . S
C2846 C2847 1.387 . S
C2846 H2850 0.950 . S
C2846 C2855 1.390 . S
C2847 C2846 1.387 . S
C2847 C2849 1.387 . S
H2848 C2855 0.950 . S
C2849 C2847 1.387 . S
C2849 C2851 1.390 . S
C2849 H2853 0.950 . S
H2850 C2846 0.950 . S
C2851 C2849 1.390 . S
C2851 C2852 1.387 . S
C2851 H2854 0.950 . S
C2852 C2851 1.387 . S
C2852 C2855 1.387 . S
H2853 C2849 0.950 . S
H2854 C2851 0.950 . S
C2855 C2846 1.390 . S
C2855 H2848 0.950 . S
C2855 C2852 1.387 . S
C2856 C2857 1.387 . S
C2856 H2860 0.950 . S
C2856 C2865 1.390 . S
C2857 C2856 1.387 . S
C2857 C2859 1.387 . S
H2858 C2865 0.950 . S
C2859 C2857 1.387 . S
C2859 C2861 1.390 . S
C2859 H2863 0.950 . S
H2860 C2856 0.950 . S
C2861 C2859 1.390 . S
C2861 C2862 1.387 . S
C2861 H2864 0.950 . S
C2862 C2861 1.387 . S
C2862 C2865 1.387 . S
H2863 C2859 0.950 . S
H2864 C2861 0.950 . S
C2865 C2856 1.390 . S
C2865 H2858 0.950 . S
C2865 C2862 1.387 . S
C2866 C2867 1.387 . S
C2866 H2870 0.950 . S
C2866 C2875 1.390 . S
C2867 C2866 1.387 . S
C2867 C2869 1.387 . S
H2868 C2875 0.950 . S
C2869 C2867 1.387 . S
C2869 C2871 1.390 . S
C2869 H2873 0.950 . S
H2870 C2866 0.950 . S
C2871 C2869 1.390 . S
C2871 C2872 1.387 . S
C2871 H2874 0.950 . S
C2872 C2871 1.387 . S
C2872 C2875 1.387 . S
H2873 C2869 0.950 . S
H2874 C2871 0.950 . S
C2875 C2866 1.390 . S
C2875 H2868 0.950 . S
C2875 C2872 1.387 . S
C2876 C2877 1.387 . S
C2876 H2880 0.950 . S
C2876 C2885 1.390 . S
C2877 C2876 1.387 . S
C2877 C2879 1.387 . S
H2878 C2885 0.950 . S
C2879 C2877 1.387 . S
C2879 C2881 1.390 . S
C2879 H2883 0.950 . S
H2880 C2876 0.950 . S
C2881 C2879 1.390 . S
C2881 C2882 1.387 . S
C2881 H2884 0.950 . S
C2882 C2881 1.387 . S
C2882 C2885 1.387 . S
H2883 C2879 0.950 . S
H2884 C2881 0.950 . S
C2885 C2876 1.390 . S
C2885 H2878 0.950 . S
C2885 C2882 1.387 . S
C2886 C2887 1.387 . S
C2886 H2890 0.950 . S
C2886 C2895 1.390 . S
C2887 C2886 1.387 . S
C2887 C2889 1.387 . S
H2888 C2895 0.950 . S
C2889 C2887 1.387 . S
C2889 C2891 1.390 . S
C2889 H2893 0.950 . S
H2890 C2886 0.950 . S
C2891 C2889 1.390 . S
C2891 C2892 1.387 . S
C2891 H2894 0.950 . S
C2892 C2891 1.387 . S
C2892 C2895 1.387 . S
H2893 C2889 0.950 . S
H2894 C2891 0.950 . S
C2895 C2886 1.390 . S
C2895 H2888 0.950 . S
C2895 C2892 1.387 . S
C2896 C2897 1.387 . S
C2896 H2900 0.950 . S
C2896 C2905 1.390 . S
C2897 C2896 1.387 . S
C2897 C2899 1.387 . S
H2898 C2905 0.950 . S
C2899 C2897 1.387 . S
C2899 C2901 1.390 . S
C2899 H2903 0.950 . S
H2900 C2896 0.950 . S
C2901 C2899 1.390 . S
C2901 C2902 1.387 . S
C2901 H2904 0.950 . S
C2902 C2901 1.387 . S
C2902 C2905 1.387 . S
H2903 C2899 0.950 . S
H2904 C2901 0.950 . S
C2905 C2896 1.390 . S
C2905 H2898 0.950 . S
C2905 C2902 1.387 . S
C2906 C2907 1.387 . S
C2906 H2910 0.950 . S
C2906 C2915 1.390 . S
C2907 C2906 1.387 . S
C2907 C2909 1.387 . S
H2908 C2915 0.950 . S
C2909 C2907 1.387 . S
C2909 C2911 1.390 . S
C2909 H2913 0.950 . S
H2910 C2906 0.950 . S
C2911 C2909 1.390 . S
C2911 C2912 1.387 . S
C2911 H2914 0.950 . S
C2912 C2911 1.387 . S
C2912 C2915 1.387 . S
H2913 C2909 0.950 . S
H2914 C2911 0.950 . S
C2915 C2906 1.390 . S
C2915 H2908 0.950 . S
C2915 C2912 1.387 . S
C2916 C2917 1.387 . S
C2916 H2920 0.950 . S
C2916 C2925 1.390 . S
C2917 C2916 1.387 . S
C2917 C2919 1.387 . S
H2918 C2925 0.950 . S
C2919 C2917 1.387 . S
C2919 C2921 1.390 . S
C2919 H2923 0.950 . S
H2920 C2916 0.950 . S
C2921 C2919 1.390 . S
C2921 C2922 1.387 . S
C2921 H2924 0.950 . S
C2922 C2921 1.387 . S
C2922 C2925 1.387 . S
H2923 C2919 0.950 . S
H2924 C2921 0.950 . S
C2925 C2916 1.390 . S
C2925 H2918 0.950 . S
C2925 C2922 1.387 . S
C2926 C2927 1.387 . S
C2926 H2930 0.950 . S
C2926 C2935 1.390 . S
C2927 C2926 1.387 . S
C2927 C2929 1.387 . S
H2928 C2935 0.950 . S
C2929 C2927 1.387 . S
C2929 C2931 1.390 . S
C2929 H2933 0.950 . S
H2930 C2926 0.950 . S
C2931 C2929 1.390 . S
C2931 C2932 1.387 . S
C2931 H2934 0.950 . S
C2932 C2931 1.387 . S
C2932 C2935 1.387 . S
H2933 C2929 0.950 . S
H2934 C2931 0.950 . S
C2935 C2926 1.390 . S
C2935 H2928 0.950 . S
C2935 C2932 1.387 . S
C2936 C2937 1.387 . S
C2936 H2940 0.950 . S
C2936 C2945 1.390 . S
C2937 C2936 1.387 . S
C2937 C2939 1.387 . S
H2938 C2945 0.950 . S
C2939 C2937 1.387 . S
C2939 C2941 1.390 . S
C2939 H2943 0.950 . S
H2940 C2936 0.950 . S
C2941 C2939 1.390 . S
C2941 C2942 1.387 . S
C2941 H2944 0.950 . S
C2942 C2941 1.387 . S
C2942 C2945 1.387 . S
H2943 C2939 0.950 . S
H2944 C2941 0.950 . S
C2945 C2936 1.390 . S
C2945 H2938 0.950 . S
C2945 C2942 1.387 . S
C2946 C2947 1.387 . S
C2946 H2950 0.950 . S
C2946 C2955 1.390 . S
C2947 C2946 1.387 . S
C2947 C2949 1.387 . S
H2948 C2955 0.950 . S
C2949 C2947 1.387 . S
C2949 C2951 1.390 . S
C2949 H2953 0.950 . S
H2950 C2946 0.950 . S
C2951 C2949 1.390 . S
C2951 C2952 1.387 . S
C2951 H2954 0.950 . S
C2952 C2951 1.387 . S
C2952 C2955 1.387 . S
H2953 C2949 0.950 . S
H2954 C2951 0.950 . S
C2955 C2946 1.390 . S
C2955 H2948 0.950 . S
C2955 C2952 1.387 . S
C2956 C2957 1.387 . S
C2956 H2960 0.950 . S
C2956 C2965 1.390 . S
C2957 C2956 1.387 . S
C2957 C2959 1.387 . S
H2958 C2965 0.950 . S
C2959 C2957 1.387 . S
C2959 C2961 1.390 . S
C2959 H2963 0.950 . S
H2960 C2956 0.950 . S
C2961 C2959 1.390 . S
C2961 C2962 1.387 . S
C2961 H2964 0.950 . S
C2962 C2961 1.387 . S
C2962 C2965 1.387 . S
H2963 C2959 0.950 . S
H2964 C2961 0.950 . S
C2965 C2956 1.390 . S
C2965 H2958 0.950 . S
C2965 C2962 1.387 . S
C2966 C2967 1.387 . S
C2966 H2970 0.950 . S
C2966 C2975 1.390 . S
C2967 C2966 1.387 . S
C2967 C2969 1.387 . S
H2968 C2975 0.950 . S
C2969 C2967 1.387 . S
C2969 C2971 1.390 . S
C2969 H2973 0.950 . S
H2970 C2966 0.950 . S
C2971 C2969 1.390 . S
C2971 C2972 1.387 . S
C2971 H2974 0.950 . S
C2972 C2971 1.387 . S
C2972 C2975 1.387 . S
H2973 C2969 0.950 . S
H2974 C2971 0.950 . S
C2975 C2966 1.390 . S
C2975 H2968 0.950 . S
C2975 C2972 1.387 . S
C2976 C2977 1.387 . S
C2976 H2980 0.950 . S
C2976 C2985 1.390 1_554 S
C2977 C2976 1.387 . S
C2977 C2979 1.387 . S
H2978 C2985 0.950 . S
C2979 C2977 1.387 . S
C2979 C2981 1.390 1_554 S
C2979 H2983 0.950 . S
H2980 C2976 0.950 . S
C2981 C2979 1.390 1_556 S
C2981 C2982 1.387 . S
C2981 H2984 0.950 . S
C2982 C2981 1.387 . S
C2982 C2985 1.387 . S
H2983 C2979 0.950 . S
H2984 C2981 0.950 . S
C2985 C2976 1.390 1_556 S
C2985 H2978 0.950 . S
C2985 C2982 1.387 . S
C2986 C2987 1.387 . S
C2986 H2990 0.950 . S
C2986 C2995 1.390 1_556 S
C2987 C2986 1.387 . S
C2987 C2989 1.387 . S
H2988 C2995 0.950 . S
C2989 C2987 1.387 . S
C2989 C2991 1.390 1_556 S
C2989 H2993 0.950 . S
H2990 C2986 0.950 . S
C2991 C2989 1.390 1_554 S
C2991 C2992 1.387 . S
C2991 H2994 0.950 . S
C2992 C2991 1.387 . S
C2992 C2995 1.387 . S
H2993 C2989 0.950 . S
H2994 C2991 0.950 . S
C2995 C2986 1.390 1_554 S
C2995 H2988 0.950 . S
C2995 C2992 1.387 . S
C2996 C2997 1.387 . S
C2996 H3000 0.950 . S
C2996 C3005 1.390 1_556 S
C2997 C2996 1.387 . S
C2997 C2999 1.387 . S
H2998 C3005 0.950 . S
C2999 C2997 1.387 . S
C2999 C3001 1.390 1_556 S
C2999 H3003 0.950 . S
H3000 C2996 0.950 . S
C3001 C2999 1.390 1_554 S
C3001 C3002 1.387 . S
C3001 H3004 0.950 . S
C3002 C3001 1.387 . S
C3002 C3005 1.387 . S
H3003 C2999 0.950 . S
H3004 C3001 0.950 . S
C3005 C2996 1.390 1_554 S
C3005 H2998 0.950 . S
C3005 C3002 1.387 . S
C3006 C3007 1.387 . S
C3006 H3010 0.950 . S
C3006 C3015 1.390 1_556 S
C3007 C3006 1.387 . S
C3007 C3009 1.387 . S
H3008 C3015 0.950 . S
C3009 C3007 1.387 . S
C3009 C3011 1.390 1_556 S
C3009 H3013 0.950 . S
H3010 C3006 0.950 . S
C3011 C3009 1.390 1_554 S
C3011 C3012 1.387 . S
C3011 H3014 0.950 . S
C3012 C3011 1.387 . S
C3012 C3015 1.387 . S
H3013 C3009 0.950 . S
H3014 C3011 0.950 . S
C3015 C3006 1.390 1_554 S
C3015 H3008 0.950 . S
C3015 C3012 1.387 . S
C3016 C3017 1.387 . S
C3016 H3020 0.950 . S
C3016 C3025 1.390 . S
C3017 C3016 1.387 . S
C3017 C3019 1.387 . S
H3018 C3025 0.950 . S
C3019 C3017 1.387 . S
C3019 C3021 1.390 . S
C3019 H3023 0.950 . S
H3020 C3016 0.950 . S
C3021 C3019 1.390 . S
C3021 C3022 1.387 . S
C3021 H3024 0.950 . S
C3022 C3021 1.387 . S
C3022 C3025 1.387 . S
H3023 C3019 0.950 . S
H3024 C3021 0.950 . S
C3025 C3016 1.390 . S
C3025 H3018 0.950 . S
C3025 C3022 1.387 . S
C3026 C3027 1.387 . S
C3026 H3030 0.950 . S
C3026 C3035 1.390 . S
C3027 C3026 1.387 . S
C3027 C3029 1.387 . S
H3028 C3035 0.950 . S
C3029 C3027 1.387 . S
C3029 C3031 1.390 . S
C3029 H3033 0.950 . S
H3030 C3026 0.950 . S
C3031 C3029 1.390 . S
C3031 C3032 1.387 . S
C3031 H3034 0.950 . S
C3032 C3031 1.387 . S
C3032 C3035 1.387 . S
H3033 C3029 0.950 . S
H3034 C3031 0.950 . S
C3035 C3026 1.390 . S
C3035 H3028 0.950 . S
C3035 C3032 1.387 . S
C3036 C3037 1.387 . S
C3036 H3040 0.950 . S
C3036 C3045 1.390 . S
C3037 C3036 1.387 . S
C3037 C3039 1.387 . S
H3038 C3045 0.950 . S
C3039 C3037 1.387 . S
C3039 C3041 1.390 . S
C3039 H3043 0.950 . S
H3040 C3036 0.950 . S
C3041 C3039 1.390 . S
C3041 C3042 1.387 . S
C3041 H3044 0.950 . S
C3042 C3041 1.387 . S
C3042 C3045 1.387 . S
H3043 C3039 0.950 . S
H3044 C3041 0.950 . S
C3045 C3036 1.390 . S
C3045 H3038 0.950 . S
C3045 C3042 1.387 . S
C3046 C3047 1.387 . S
C3046 H3050 0.950 . S
C3046 C3055 1.390 . S
C3047 C3046 1.387 . S
C3047 C3049 1.387 . S
H3048 C3055 0.950 . S
C3049 C3047 1.387 . S
C3049 C3051 1.390 . S
C3049 H3053 0.950 . S
H3050 C3046 0.950 . S
C3051 C3049 1.390 . S
C3051 C3052 1.387 . S
C3051 H3054 0.950 . S
C3052 C3051 1.387 . S
C3052 C3055 1.387 . S
H3053 C3049 0.950 . S
H3054 C3051 0.950 . S
C3055 C3046 1.390 . S
C3055 H3048 0.950 . S
C3055 C3052 1.387 . S
C3056 C3057 1.387 . S
C3056 H3060 0.950 . S
C3056 C3065 1.390 . S
C3057 C3056 1.387 . S
C3057 C3059 1.387 . S
H3058 C3065 0.950 . S
C3059 C3057 1.387 . S
C3059 C3061 1.390 . S
C3059 H3063 0.950 . S
H3060 C3056 0.950 . S
C3061 C3059 1.390 . S
C3061 C3062 1.387 . S
C3061 H3064 0.950 . S
C3062 C3061 1.387 . S
C3062 C3065 1.387 . S
H3063 C3059 0.950 . S
H3064 C3061 0.950 . S
C3065 C3056 1.390 . S
C3065 H3058 0.950 . S
C3065 C3062 1.387 . S
C3066 C3067 1.387 . S
C3066 H3070 0.950 . S
C3066 C3075 1.390 . S
C3067 C3066 1.387 . S
C3067 C3069 1.387 . S
H3068 C3075 0.950 . S
C3069 C3067 1.387 . S
C3069 C3071 1.390 . S
C3069 H3073 0.950 . S
H3070 C3066 0.950 . S
C3071 C3069 1.390 . S
C3071 C3072 1.387 . S
C3071 H3074 0.950 . S
C3072 C3071 1.387 . S
C3072 C3075 1.387 . S
H3073 C3069 0.950 . S
H3074 C3071 0.950 . S
C3075 C3066 1.390 . S
C3075 H3068 0.950 . S
C3075 C3072 1.387 . S
C3076 C3077 1.387 . S
C3076 H3080 0.950 . S
C3076 C3085 1.390 . S
C3077 C3076 1.387 . S
C3077 C3079 1.387 . S
H3078 C3085 0.950 . S
C3079 C3077 1.387 . S
C3079 C3081 1.390 . S
C3079 H3083 0.950 . S
H3080 C3076 0.950 . S
C3081 C3079 1.390 . S
C3081 C3082 1.387 . S
C3081 H3084 0.950 . S
C3082 C3081 1.387 . S
C3082 C3085 1.387 . S
H3083 C3079 0.950 . S
H3084 C3081 0.950 . S
C3085 C3076 1.390 . S
C3085 H3078 0.950 . S
C3085 C3082 1.387 . S
C3086 C3087 1.387 . S
C3086 H3090 0.950 . S
C3086 C3095 1.390 . S
C3087 C3086 1.387 . S
C3087 C3089 1.387 . S
H3088 C3095 0.950 . S
C3089 C3087 1.387 . S
C3089 C3091 1.390 . S
C3089 H3093 0.950 . S
H3090 C3086 0.950 . S
C3091 C3089 1.390 . S
C3091 C3092 1.387 . S
C3091 H3094 0.950 . S
C3092 C3091 1.387 . S
C3092 C3095 1.387 . S
H3093 C3089 0.950 . S
H3094 C3091 0.950 . S
C3095 C3086 1.390 . S
C3095 H3088 0.950 . S
C3095 C3092 1.387 . S
C3096 C3097 1.387 . S
C3096 H3100 0.950 . S
C3096 C3105 1.390 1_556 S
C3097 C3096 1.387 . S
C3097 C3099 1.387 . S
H3098 C3105 0.950 . S
C3099 C3097 1.387 . S
C3099 C3101 1.390 1_556 S
C3099 H3103 0.950 . S
H3100 C3096 0.950 . S
C3101 C3099 1.390 1_554 S
C3101 C3102 1.387 . S
C3101 H3104 0.950 . S
C3102 C3101 1.387 . S
C3102 C3105 1.387 . S
H3103 C3099 0.950 . S
H3104 C3101 0.950 . S
C3105 C3096 1.390 1_554 S
C3105 H3098 0.950 . S
C3105 C3102 1.387 . S
C3106 C3107 1.387 . S
C3106 H3110 0.950 . S
C3106 C3115 1.390 1_554 S
C3107 C3106 1.387 . S
C3107 C3109 1.387 . S
H3108 C3115 0.950 . S
C3109 C3107 1.387 . S
C3109 C3111 1.390 1_554 S
C3109 H3113 0.950 . S
H3110 C3106 0.950 . S
C3111 C3109 1.390 1_556 S
C3111 C3112 1.387 . S
C3111 H3114 0.950 . S
C3112 C3111 1.387 . S
C3112 C3115 1.387 . S
H3113 C3109 0.950 . S
H3114 C3111 0.950 . S
C3115 C3106 1.390 1_556 S
C3115 H3108 0.950 . S
C3115 C3112 1.387 . S
C3116 C3117 1.387 . S
C3116 H3120 0.950 . S
C3116 C3125 1.390 1_554 S
C3117 C3116 1.387 . S
C3117 C3119 1.387 . S
H3118 C3125 0.950 . S
C3119 C3117 1.387 . S
C3119 C3121 1.390 1_554 S
C3119 H3123 0.950 . S
H3120 C3116 0.950 . S
C3121 C3119 1.390 1_556 S
C3121 C3122 1.387 . S
C3121 H3124 0.950 . S
C3122 C3121 1.387 . S
C3122 C3125 1.387 . S
H3123 C3119 0.950 . S
H3124 C3121 0.950 . S
C3125 C3116 1.390 1_556 S
C3125 H3118 0.950 . S
C3125 C3122 1.387 . S
C3126 C3127 1.387 . S
C3126 H3130 0.950 . S
C3126 C3135 1.390 1_556 S
C3127 C3126 1.387 . S
C3127 C3129 1.387 . S
H3128 C3135 0.950 . S
C3129 C3127 1.387 . S
C3129 C3131 1.390 1_556 S
C3129 H3133 0.950 . S
H3130 C3126 0.950 . S
C3131 C3129 1.390 1_554 S
C3131 C3132 1.387 . S
C3131 H3134 0.950 . S
C3132 C3131 1.387 . S
C3132 C3135 1.387 . S
H3133 C3129 0.950 . S
H3134 C3131 0.950 . S
C3135 C3126 1.390 1_554 S
C3135 H3128 0.950 . S
C3135 C3132 1.387 . S
C3136 C3137 1.387 . S
C3136 H3140 0.950 . S
C3136 C3145 1.390 1_545 S
C3137 C3136 1.387 . S
C3137 C3139 1.387 . S
H3138 C3145 0.950 . S
C3139 C3137 1.387 . S
C3139 C3141 1.390 1_545 S
C3139 H3143 0.950 . S
H3140 C3136 0.950 . S
C3141 C3139 1.390 1_565 S
C3141 C3142 1.387 . S
C3141 H3144 0.950 . S
C3142 C3141 1.387 . S
C3142 C3145 1.387 . S
H3143 C3139 0.950 . S
H3144 C3141 0.950 . S
C3145 C3136 1.390 1_565 S
C3145 H3138 0.950 . S
C3145 C3142 1.387 . S
C3146 C3147 1.387 . S
C3146 H3150 0.950 . S
C3146 C3155 1.390 1_655 S
C3147 C3146 1.387 . S
C3147 C3149 1.387 . S
H3148 C3155 0.950 . S
C3149 C3147 1.387 . S
C3149 C3151 1.390 1_655 S
C3149 H3153 0.950 . S
H3150 C3146 0.950 . S
C3151 C3149 1.390 1_455 S
C3151 C3152 1.387 . S
C3151 H3154 0.950 . S
C3152 C3151 1.387 . S
C3152 C3155 1.387 . S
H3153 C3149 0.950 . S
H3154 C3151 0.950 . S
C3155 C3146 1.390 1_455 S
C3155 H3148 0.950 . S
C3155 C3152 1.387 . S
C3156 C3157 1.387 . S
C3156 H3160 0.950 . S
C3156 C3165 1.390 1_545 S
C3157 C3156 1.387 . S
C3157 C3159 1.387 . S
H3158 C3165 0.950 . S
C3159 C3157 1.387 . S
C3159 C3161 1.390 1_545 S
C3159 H3163 0.950 . S
H3160 C3156 0.950 . S
C3161 C3159 1.390 1_565 S
C3161 C3162 1.387 . S
C3161 H3164 0.950 . S
C3162 C3161 1.387 . S
C3162 C3165 1.387 . S
H3163 C3159 0.950 . S
H3164 C3161 0.950 . S
C3165 C3156 1.390 1_565 S
C3165 H3158 0.950 . S
C3165 C3162 1.387 . S
C3166 C3167 1.387 . S
C3166 H3170 0.950 . S
C3166 C3175 1.390 1_455 S
C3167 C3166 1.387 . S
C3167 C3169 1.387 . S
H3168 C3175 0.950 . S
C3169 C3167 1.387 . S
C3169 C3171 1.390 1_455 S
C3169 H3173 0.950 . S
H3170 C3166 0.950 . S
C3171 C3169 1.390 1_655 S
C3171 C3172 1.387 . S
C3171 H3174 0.950 . S
C3172 C3171 1.387 . S
C3172 C3175 1.387 . S
H3173 C3169 0.950 . S
H3174 C3171 0.950 . S
C3175 C3166 1.390 1_655 S
C3175 H3168 0.950 . S
C3175 C3172 1.387 . S
C3176 C3177 1.387 . S
C3176 H3180 0.950 . S
C3176 C3185 1.390 1_565 S
C3177 C3176 1.387 . S
C3177 C3179 1.387 . S
H3178 C3185 0.950 . S
C3179 C3177 1.387 . S
C3179 C3181 1.390 1_565 S
C3179 H3183 0.950 . S
H3180 C3176 0.950 . S
C3181 C3179 1.390 1_545 S
C3181 C3182 1.387 . S
C3181 H3184 0.950 . S
C3182 C3181 1.387 . S
C3182 C3185 1.387 . S
H3183 C3179 0.950 . S
H3184 C3181 0.950 . S
C3185 C3176 1.390 1_545 S
C3185 H3178 0.950 . S
C3185 C3182 1.387 . S
C3186 C3187 1.387 . S
C3186 H3190 0.950 . S
C3186 C3195 1.390 1_655 S
C3187 C3186 1.387 . S
C3187 C3189 1.387 . S
H3188 C3195 0.950 . S
C3189 C3187 1.387 . S
C3189 C3191 1.390 1_655 S
C3189 H3193 0.950 . S
H3190 C3186 0.950 . S
C3191 C3189 1.390 1_455 S
C3191 C3192 1.387 . S
C3191 H3194 0.950 . S
C3192 C3191 1.387 . S
C3192 C3195 1.387 . S
H3193 C3189 0.950 . S
H3194 C3191 0.950 . S
C3195 C3186 1.390 1_455 S
C3195 H3188 0.950 . S
C3195 C3192 1.387 . S
C3196 C3197 1.387 . S
C3196 H3200 0.950 . S
C3196 C3205 1.390 1_565 S
C3197 C3196 1.387 . S
C3197 C3199 1.387 . S
H3198 C3205 0.950 . S
C3199 C3197 1.387 . S
C3199 C3201 1.390 1_565 S
C3199 H3203 0.950 . S
H3200 C3196 0.950 . S
C3201 C3199 1.390 1_545 S
C3201 C3202 1.387 . S
C3201 H3204 0.950 . S
C3202 C3201 1.387 . S
C3202 C3205 1.387 . S
H3203 C3199 0.950 . S
H3204 C3201 0.950 . S
C3205 C3196 1.390 1_545 S
C3205 H3198 0.950 . S
C3205 C3202 1.387 . S
C3206 C3207 1.387 . S
C3206 H3210 0.950 . S
C3206 C3215 1.390 1_655 S
C3207 C3206 1.387 . S
C3207 C3209 1.387 . S
H3208 C3215 0.950 . S
C3209 C3207 1.387 . S
C3209 C3211 1.390 1_655 S
C3209 H3213 0.950 . S
H3210 C3206 0.950 . S
C3211 C3209 1.390 1_455 S
C3211 C3212 1.387 . S
C3211 H3214 0.950 . S
C3212 C3211 1.387 . S
C3212 C3215 1.387 . S
H3213 C3209 0.950 . S
H3214 C3211 0.950 . S
C3215 C3206 1.390 1_455 S
C3215 H3208 0.950 . S
C3215 C3212 1.387 . S
C3216 C3217 1.387 . S
C3216 H3220 0.950 . S
C3216 C3225 1.390 . S
C3217 C3216 1.387 . S
C3217 C3219 1.387 . S
H3218 C3225 0.950 . S
C3219 C3217 1.387 . S
C3219 C3221 1.390 . S
C3219 H3223 0.950 . S
H3220 C3216 0.950 . S
C3221 C3219 1.390 . S
C3221 C3222 1.387 . S
C3221 H3224 0.950 . S
C3222 C3221 1.387 . S
C3222 C3225 1.387 . S
H3223 C3219 0.950 . S
H3224 C3221 0.950 . S
C3225 C3216 1.390 . S
C3225 H3218 0.950 . S
C3225 C3222 1.387 . S
C3226 C3227 1.387 . S
C3226 H3230 0.950 . S
C3226 C3235 1.390 . S
C3227 C3226 1.387 . S
C3227 C3229 1.387 . S
H3228 C3235 0.950 . S
C3229 C3227 1.387 . S
C3229 C3231 1.390 . S
C3229 H3233 0.950 . S
H3230 C3226 0.950 . S
C3231 C3229 1.390 . S
C3231 C3232 1.387 . S
C3231 H3234 0.950 . S
C3232 C3231 1.387 . S
C3232 C3235 1.387 . S
H3233 C3229 0.950 . S
H3234 C3231 0.950 . S
C3235 C3226 1.390 . S
C3235 H3228 0.950 . S
C3235 C3232 1.387 . S
C3236 C3237 1.387 . S
C3236 H3240 0.950 . S
C3236 C3245 1.390 . S
C3237 C3236 1.387 . S
C3237 C3239 1.387 . S
H3238 C3245 0.950 . S
C3239 C3237 1.387 . S
C3239 C3241 1.390 . S
C3239 H3243 0.950 . S
H3240 C3236 0.950 . S
C3241 C3239 1.390 . S
C3241 C3242 1.387 . S
C3241 H3244 0.950 . S
C3242 C3241 1.387 . S
C3242 C3245 1.387 . S
H3243 C3239 0.950 . S
H3244 C3241 0.950 . S
C3245 C3236 1.390 . S
C3245 H3238 0.950 . S
C3245 C3242 1.387 . S
C3246 C3247 1.387 . S
C3246 H3250 0.950 . S
C3246 C3255 1.390 . S
C3247 C3246 1.387 . S
C3247 C3249 1.387 . S
H3248 C3255 0.950 . S
C3249 C3247 1.387 . S
C3249 C3251 1.390 . S
C3249 H3253 0.950 . S
H3250 C3246 0.950 . S
C3251 C3249 1.390 . S
C3251 C3252 1.387 . S
C3251 H3254 0.950 . S
C3252 C3251 1.387 . S
C3252 C3255 1.387 . S
H3253 C3249 0.950 . S
H3254 C3251 0.950 . S
C3255 C3246 1.390 . S
C3255 H3248 0.950 . S
C3255 C3252 1.387 . S
C3256 C3257 1.387 . S
C3256 H3260 0.950 . S
C3256 C3265 1.390 . S
C3257 C3256 1.387 . S
C3257 C3259 1.387 . S
H3258 C3265 0.950 . S
C3259 C3257 1.387 . S
C3259 C3261 1.390 . S
C3259 H3263 0.950 . S
H3260 C3256 0.950 . S
C3261 C3259 1.390 . S
C3261 C3262 1.387 . S
C3261 H3264 0.950 . S
C3262 C3261 1.387 . S
C3262 C3265 1.387 . S
H3263 C3259 0.950 . S
H3264 C3261 0.950 . S
C3265 C3256 1.390 . S
C3265 H3258 0.950 . S
C3265 C3262 1.387 . S
C3266 C3267 1.387 . S
C3266 H3270 0.950 . S
C3266 C3275 1.390 . S
C3267 C3266 1.387 . S
C3267 C3269 1.387 . S
H3268 C3275 0.950 . S
C3269 C3267 1.387 . S
C3269 C3271 1.390 . S
C3269 H3273 0.950 . S
H3270 C3266 0.950 . S
C3271 C3269 1.390 . S
C3271 C3272 1.387 . S
C3271 H3274 0.950 . S
C3272 C3271 1.387 . S
C3272 C3275 1.387 . S
H3273 C3269 0.950 . S
H3274 C3271 0.950 . S
C3275 C3266 1.390 . S
C3275 H3268 0.950 . S
C3275 C3272 1.387 . S
C3276 C3277 1.387 . S
C3276 H3280 0.950 . S
C3276 C3285 1.390 . S
C3277 C3276 1.387 . S
C3277 C3279 1.387 . S
H3278 C3285 0.950 . S
C3279 C3277 1.387 . S
C3279 C3281 1.390 . S
C3279 H3283 0.950 . S
H3280 C3276 0.950 . S
C3281 C3279 1.390 . S
C3281 C3282 1.387 . S
C3281 H3284 0.950 . S
C3282 C3281 1.387 . S
C3282 C3285 1.387 . S
H3283 C3279 0.950 . S
H3284 C3281 0.950 . S
C3285 C3276 1.390 . S
C3285 H3278 0.950 . S
C3285 C3282 1.387 . S
C3286 C3287 1.387 . S
C3286 H3290 0.950 . S
C3286 C3295 1.390 . S
C3287 C3286 1.387 . S
C3287 C3289 1.387 . S
H3288 C3295 0.950 . S
C3289 C3287 1.387 . S
C3289 C3291 1.390 . S
C3289 H3293 0.950 . S
H3290 C3286 0.950 . S
C3291 C3289 1.390 . S
C3291 C3292 1.387 . S
C3291 H3294 0.950 . S
C3292 C3291 1.387 . S
C3292 C3295 1.387 . S
H3293 C3289 0.950 . S
H3294 C3291 0.950 . S
C3295 C3286 1.390 . S
C3295 H3288 0.950 . S
C3295 C3292 1.387 . S
C3296 C3297 1.387 . S
C3296 H3300 0.950 . S
C3296 C3305 1.390 . S
C3297 C3296 1.387 . S
C3297 C3299 1.387 . S
H3298 C3305 0.950 . S
C3299 C3297 1.387 . S
C3299 C3301 1.390 . S
C3299 H3303 0.950 . S
H3300 C3296 0.950 . S
C3301 C3299 1.390 . S
C3301 C3302 1.387 . S
C3301 H3304 0.950 . S
C3302 C3301 1.387 . S
C3302 C3305 1.387 . S
H3303 C3299 0.950 . S
H3304 C3301 0.950 . S
C3305 C3296 1.390 . S
C3305 H3298 0.950 . S
C3305 C3302 1.387 . S
C3306 C3307 1.387 . S
C3306 H3310 0.950 . S
C3306 C3315 1.390 . S
C3307 C3306 1.387 . S
C3307 C3309 1.387 . S
H3308 C3315 0.950 . S
C3309 C3307 1.387 . S
C3309 C3311 1.390 . S
C3309 H3313 0.950 . S
H3310 C3306 0.950 . S
C3311 C3309 1.390 . S
C3311 C3312 1.387 . S
C3311 H3314 0.950 . S
C3312 C3311 1.387 . S
C3312 C3315 1.387 . S
H3313 C3309 0.950 . S
H3314 C3311 0.950 . S
C3315 C3306 1.390 . S
C3315 H3308 0.950 . S
C3315 C3312 1.387 . S
C3316 C3317 1.387 . S
C3316 H3320 0.950 . S
C3316 C3325 1.390 . S
C3317 C3316 1.387 . S
C3317 C3319 1.387 . S
H3318 C3325 0.950 . S
C3319 C3317 1.387 . S
C3319 C3321 1.390 . S
C3319 H3323 0.950 . S
H3320 C3316 0.950 . S
C3321 C3319 1.390 . S
C3321 C3322 1.387 . S
C3321 H3324 0.950 . S
C3322 C3321 1.387 . S
C3322 C3325 1.387 . S
H3323 C3319 0.950 . S
H3324 C3321 0.950 . S
C3325 C3316 1.390 . S
C3325 H3318 0.950 . S
C3325 C3322 1.387 . S
C3326 C3327 1.387 . S
C3326 H3330 0.950 . S
C3326 C3335 1.390 . S
C3327 C3326 1.387 . S
C3327 C3329 1.387 . S
H3328 C3335 0.950 . S
C3329 C3327 1.387 . S
C3329 C3331 1.390 . S
C3329 H3333 0.950 . S
H3330 C3326 0.950 . S
C3331 C3329 1.390 . S
C3331 C3332 1.387 . S
C3331 H3334 0.950 . S
C3332 C3331 1.387 . S
C3332 C3335 1.387 . S
H3333 C3329 0.950 . S
H3334 C3331 0.950 . S
C3335 C3326 1.390 . S
C3335 H3328 0.950 . S
C3335 C3332 1.387 . S
C3336 C3337 1.387 . S
C3336 H3340 0.950 . S
C3336 C3345 1.390 . S
C3337 C3336 1.387 . S
C3337 C3339 1.387 . S
H3338 C3345 0.950 . S
C3339 C3337 1.387 . S
C3339 C3341 1.390 . S
C3339 H3343 0.950 . S
H3340 C3336 0.950 . S
C3341 C3339 1.390 . S
C3341 C3342 1.387 . S
C3341 H3344 0.950 . S
C3342 C3341 1.387 . S
C3342 C3345 1.387 . S
H3343 C3339 0.950 . S
H3344 C3341 0.950 . S
C3345 C3336 1.390 . S
C3345 H3338 0.950 . S
C3345 C3342 1.387 . S
C3346 C3347 1.387 . S
C3346 H3350 0.950 . S
C3346 C3355 1.390 . S
C3347 C3346 1.387 . S
C3347 C3349 1.387 . S
H3348 C3355 0.950 . S
C3349 C3347 1.387 . S
C3349 C3351 1.390 . S
C3349 H3353 0.950 . S
H3350 C3346 0.950 . S
C3351 C3349 1.390 . S
C3351 C3352 1.387 . S
C3351 H3354 0.950 . S
C3352 C3351 1.387 . S
C3352 C3355 1.387 . S
H3353 C3349 0.950 . S
H3354 C3351 0.950 . S
C3355 C3346 1.390 . S
C3355 H3348 0.950 . S
C3355 C3352 1.387 . S
C3356 C3357 1.387 . S
C3356 H3360 0.950 . S
C3356 C3365 1.390 . S
C3357 C3356 1.387 . S
C3357 C3359 1.387 . S
H3358 C3365 0.950 . S
C3359 C3357 1.387 . S
C3359 C3361 1.390 . S
C3359 H3363 0.950 . S
H3360 C3356 0.950 . S
C3361 C3359 1.390 . S
C3361 C3362 1.387 . S
C3361 H3364 0.950 . S
C3362 C3361 1.387 . S
C3362 C3365 1.387 . S
H3363 C3359 0.950 . S
H3364 C3361 0.950 . S
C3365 C3356 1.390 . S
C3365 H3358 0.950 . S
C3365 C3362 1.387 . S
C3366 C3367 1.387 . S
C3366 H3370 0.950 . S
C3366 C3375 1.390 . S
C3367 C3366 1.387 . S
C3367 C3369 1.387 . S
H3368 C3375 0.950 . S
C3369 C3367 1.387 . S
C3369 C3371 1.390 . S
C3369 H3373 0.950 . S
H3370 C3366 0.950 . S
C3371 C3369 1.390 . S
C3371 C3372 1.387 . S
C3371 H3374 0.950 . S
C3372 C3371 1.387 . S
C3372 C3375 1.387 . S
H3373 C3369 0.950 . S
H3374 C3371 0.950 . S
C3375 C3366 1.390 . S
C3375 H3368 0.950 . S
C3375 C3372 1.387 . S
C3376 C3377 1.387 . S
C3376 H3380 0.950 . S
C3376 C3385 1.390 . S
C3377 C3376 1.387 . S
C3377 C3379 1.387 . S
H3378 C3385 0.950 . S
C3379 C3377 1.387 . S
C3379 C3381 1.390 . S
C3379 H3383 0.950 . S
H3380 C3376 0.950 . S
C3381 C3379 1.390 . S
C3381 C3382 1.387 . S
C3381 H3384 0.950 . S
C3382 C3381 1.387 . S
C3382 C3385 1.387 . S
H3383 C3379 0.950 . S
H3384 C3381 0.950 . S
C3385 C3376 1.390 . S
C3385 H3378 0.950 . S
C3385 C3382 1.387 . S
C3386 C3387 1.387 . S
C3386 H3390 0.950 . S
C3386 C3395 1.390 . S
C3387 C3386 1.387 . S
C3387 C3389 1.387 . S
H3388 C3395 0.950 . S
C3389 C3387 1.387 . S
C3389 C3391 1.390 . S
C3389 H3393 0.950 . S
H3390 C3386 0.950 . S
C3391 C3389 1.390 . S
C3391 C3392 1.387 . S
C3391 H3394 0.950 . S
C3392 C3391 1.387 . S
C3392 C3395 1.387 . S
H3393 C3389 0.950 . S
H3394 C3391 0.950 . S
C3395 C3386 1.390 . S
C3395 H3388 0.950 . S
C3395 C3392 1.387 . S
C3396 C3397 1.387 . S
C3396 H3400 0.950 . S
C3396 C3405 1.390 . S
C3397 C3396 1.387 . S
C3397 C3399 1.387 . S
H3398 C3405 0.950 . S
C3399 C3397 1.387 . S
C3399 C3401 1.390 . S
C3399 H3403 0.950 . S
H3400 C3396 0.950 . S
C3401 C3399 1.390 . S
C3401 C3402 1.387 . S
C3401 H3404 0.950 . S
C3402 C3401 1.387 . S
C3402 C3405 1.387 . S
H3403 C3399 0.950 . S
H3404 C3401 0.950 . S
C3405 C3396 1.390 . S
C3405 H3398 0.950 . S
C3405 C3402 1.387 . S
C3406 C3407 1.387 . S
C3406 H3410 0.950 . S
C3406 C3415 1.390 . S
C3407 C3406 1.387 . S
C3407 C3409 1.387 . S
H3408 C3415 0.950 . S
C3409 C3407 1.387 . S
C3409 C3411 1.390 . S
C3409 H3413 0.950 . S
H3410 C3406 0.950 . S
C3411 C3409 1.390 . S
C3411 C3412 1.387 . S
C3411 H3414 0.950 . S
C3412 C3411 1.387 . S
C3412 C3415 1.387 . S
H3413 C3409 0.950 . S
H3414 C3411 0.950 . S
C3415 C3406 1.390 . S
C3415 H3408 0.950 . S
C3415 C3412 1.387 . S
C3416 C3417 1.387 . S
C3416 H3420 0.950 . S
C3416 C3425 1.390 . S
C3417 C3416 1.387 . S
C3417 C3419 1.387 . S
H3418 C3425 0.950 . S
C3419 C3417 1.387 . S
C3419 C3421 1.390 . S
C3419 H3423 0.950 . S
H3420 C3416 0.950 . S
C3421 C3419 1.390 . S
C3421 C3422 1.387 . S
C3421 H3424 0.950 . S
C3422 C3421 1.387 . S
C3422 C3425 1.387 . S
H3423 C3419 0.950 . S
H3424 C3421 0.950 . S
C3425 C3416 1.390 . S
C3425 H3418 0.950 . S
C3425 C3422 1.387 . S
C3426 C3427 1.387 . S
C3426 H3430 0.950 . S
C3426 C3435 1.390 . S
C3427 C3426 1.387 . S
C3427 C3429 1.387 . S
H3428 C3435 0.950 . S
C3429 C3427 1.387 . S
C3429 C3431 1.390 . S
C3429 H3433 0.950 . S
H3430 C3426 0.950 . S
C3431 C3429 1.390 . S
C3431 C3432 1.387 . S
C3431 H3434 0.950 . S
C3432 C3431 1.387 . S
C3432 C3435 1.387 . S
H3433 C3429 0.950 . S
H3434 C3431 0.950 . S
C3435 C3426 1.390 . S
C3435 H3428 0.950 . S
C3435 C3432 1.387 . S
C3436 C3437 1.387 . S
C3436 H3440 0.950 . S
C3436 C3445 1.390 . S
C3437 C3436 1.387 . S
C3437 C3439 1.387 . S
H3438 C3445 0.950 . S
C3439 C3437 1.387 . S
C3439 C3441 1.390 . S
C3439 H3443 0.950 . S
H3440 C3436 0.950 . S
C3441 C3439 1.390 . S
C3441 C3442 1.387 . S
C3441 H3444 0.950 . S
C3442 C3441 1.387 . S
C3442 C3445 1.387 . S
H3443 C3439 0.950 . S
H3444 C3441 0.950 . S
C3445 C3436 1.390 . S
C3445 H3438 0.950 . S
C3445 C3442 1.387 . S
C3446 C3447 1.387 . S
C3446 H3450 0.950 . S
C3446 C3455 1.390 . S
C3447 C3446 1.387 . S
C3447 C3449 1.387 . S
H3448 C3455 0.950 . S
C3449 C3447 1.387 . S
C3449 C3451 1.390 . S
C3449 H3453 0.950 . S
H3450 C3446 0.950 . S
C3451 C3449 1.390 . S
C3451 C3452 1.387 . S
C3451 H3454 0.950 . S
C3452 C3451 1.387 . S
C3452 C3455 1.387 . S
H3453 C3449 0.950 . S
H3454 C3451 0.950 . S
C3455 C3446 1.390 . S
C3455 H3448 0.950 . S
C3455 C3452 1.387 . S
C2817 C2609 1.397 . S
C2822 C29 1.396 . S
C2827 C117 1.397 . S
C2832 C2689 1.395 . S
C2837 C2777 1.397 . S
C2842 C233 1.396 . S
C2847 C2521 1.397 . S
C2852 C293 1.396 . S
C2857 C401 1.397 . S
C2862 C2396 1.395 . S
C2867 C2141 1.397 . S
C2872 C469 1.396 . S
C2877 C548 1.396 . S
C2882 C2229 1.397 . S
C2887 C2308 1.397 . S
C2892 C665 1.396 . S
C2897 C724 1.395 . S
C2902 C1877 1.397 . S
C2907 C821 1.397 . S
C2912 C1956 1.396 . S
C2917 C2073 1.397 . S
C2922 C909 1.395 . S
C2927 C988 1.397 . S
C2932 C1809 1.396 . S
C2937 C1701 1.397 . S
C2942 C1113 1.395 . S
C2947 C1437 1.397 . S
C2952 C1201 1.396 . S
C2957 C1281 1.395 . S
C2962 C1516 1.397 . S
C2967 C1369 1.395 . S
C2972 C1641 1.397 . S
C2977 C49 1.498 . S
C2982 C900 1.496 . S
C2987 C997 1.496 . S
C2992 C137 1.498 . S
C2997 C733 1.496 . S
C3002 C196 1.498 . S
C3007 C812 1.496 . S
C3012 C313 1.498 . S
C3017 C381 1.498 . S
C3022 C1289 1.495 . S
C3027 C1377 1.496 . S
C3032 C489 1.498 . S
C3037 C1105 1.496 . S
C3042 C585 1.497 . S
C3047 C1193 1.495 . S
C3052 C645 1.498 . S
C3057 C1457 1.497 . S
C3062 C2317 1.496 . S
C3067 C2405 1.496 . S
C3072 C1553 1.497 . S
C3077 C2132 1.495 . S
C3082 C1604 1.498 . S
C3087 C1721 1.497 . S
C3092 C2220 1.496 . S
C3097 C1789 1.497 . S
C3102 C2697 1.496 . S
C3107 C2785 1.496 . S
C3112 C1897 1.497 . S
C3117 C2513 1.495 . S
C3122 C1993 1.498 . S
C3127 C2053 1.498 . S
C3132 C2601 1.495 . S
C3137 C57 0.986 . S
C3142 C372 0.986 . S
C3147 C145 0.986 . S
C3152 C497 0.986 . S
C3157 C577 0.986 . S
C3162 C205 0.986 . S
C3167 C321 0.986 . S
C3172 C636 0.986 . S
C3177 C753 0.997 . S
C3182 C1085 0.997 . S
C3187 C1173 0.997 . S
C3192 C849 0.997 . S
C3197 C1252 0.996 . S
C3202 C937 0.996 . S
C3207 C1017 0.996 . S
C3212 C1340 0.996 . S
C3217 C1465 0.986 . S
C3222 C1780 0.986 . S
C3227 C1905 0.986 . S
C3232 C1545 0.986 . S
C3237 C1613 0.986 . S
C3242 C1985 0.986 . S
C3247 C2044 0.986 . S
C3252 C1729 0.986 . S
C3257 C2493 0.996 . S
C3262 C2169 0.996 . S
C3267 C2257 0.997 . S
C3272 C2581 0.997 . S
C3277 C2337 0.997 . S
C3282 C2660 0.997 . S
C3287 C2425 0.997 . S
C3292 C2748 0.997 . S
C3297 C20 1.559 . S
C3302 C460 1.560 . S
C3307 C108 1.560 . S
C3312 C557 1.560 . S
C3317 C673 1.560 . S
C3322 C225 1.559 . S
C3327 C409 1.560 . S
C3332 C284 1.560 . S
C3337 C1164 1.562 . S
C3342 C761 1.562 . S
C3347 C1261 1.562 . S
C3352 C841 1.562 . S
C3357 C1349 1.562 . S
C3362 C929 1.562 . S
C3367 C1025 1.562 . S
C3372 C1076 1.562 . S
C3377 C1428 1.560 . S
C3382 C1868 1.560 . S
C3387 C1965 1.560 . S
C3392 C1525 1.559 . S
C3397 C2081 1.559 . S
C3402 C1633 1.560 . S
C3407 C1692 1.560 . S
C3412 C1817 1.560 . S
C3417 C2572 1.562 . S
C3422 C2161 1.562 . S
C3427 C2249 1.562 . S
C3432 C2669 1.562 . S
C3437 C2345 1.562 . S
C3442 C2757 1.562 . S
C3447 C2484 1.562 . S
C3452 C2433 1.562 . S
