# Generated by pormake.
# Topology tfs, (6)-cn, num edge types: 1
# Building blocks:
#     Node 0, Type 0, BuildingBlock: JUFBIX_clean_sbu_0, # of connection points: 6
#     Node 1, Type 0, BuildingBlock: JUFBIX_clean_sbu_0, # of connection points: 6
#     Node 2, Type 0, BuildingBlock: JUFBIX_clean_sbu_0, # of connection points: 6
#     Node 3, Type 0, BuildingBlock: JUFBIX_clean_sbu_0, # of connection points: 6
#     Node 4, Type 0, BuildingBlock: JUFBIX_clean_sbu_0, # of connection points: 6
#     Node 5, Type 0, BuildingBlock: JUFBIX_clean_sbu_0, # of connection points: 6
#     Edge 6, Type (0, 0), BuildingBlock: MIFKUJ_clean_linker_0, # of connection points: 2
#     Edge 7, Type (0, 0), BuildingBlock: MIFKUJ_clean_linker_0, # of connection points: 2
#     Edge 8, Type (0, 0), BuildingBlock: MIFKUJ_clean_linker_0, # of connection points: 2
#     Edge 9, Type (0, 0), BuildingBlock: MIFKUJ_clean_linker_0, # of connection points: 2
#     Edge 10, Type (0, 0), BuildingBlock: MIFKUJ_clean_linker_0, # of connection points: 2
#     Edge 11, Type (0, 0), BuildingBlock: MIFKUJ_clean_linker_0, # of connection points: 2
#     Edge 12, Type (0, 0), BuildingBlock: MIFKUJ_clean_linker_0, # of connection points: 2
#     Edge 13, Type (0, 0), BuildingBlock: MIFKUJ_clean_linker_0, # of connection points: 2
#     Edge 14, Type (0, 0), BuildingBlock: MIFKUJ_clean_linker_0, # of connection points: 2
#     Edge 15, Type (0, 0), BuildingBlock: MIFKUJ_clean_linker_0, # of connection points: 2
#     Edge 16, Type (0, 0), BuildingBlock: MIFKUJ_clean_linker_0, # of connection points: 2
#     Edge 17, Type (0, 0), BuildingBlock: MIFKUJ_clean_linker_0, # of connection points: 2
#     Edge 18, Type (0, 0), BuildingBlock: MIFKUJ_clean_linker_0, # of connection points: 2
#     Edge 19, Type (0, 0), BuildingBlock: MIFKUJ_clean_linker_0, # of connection points: 2
#     Edge 20, Type (0, 0), BuildingBlock: MIFKUJ_clean_linker_0, # of connection points: 2
#     Edge 21, Type (0, 0), BuildingBlock: MIFKUJ_clean_linker_0, # of connection points: 2
#     Edge 22, Type (0, 0), BuildingBlock: MIFKUJ_clean_linker_0, # of connection points: 2
#     Edge 23, Type (0, 0), BuildingBlock: MIFKUJ_clean_linker_0, # of connection points: 2
# Relax obj value: 0.274
# Max RMSD: 0.213
# Mean RMSD: 0.174
data_MOF--net-tfs--node1-JUFBIX_clean_sbu_0--edge1-MIFKUJ_clean_linker_0
_symmetry_space_group_name_H-M    P1
_symmetry_Int_Tables_number       1
_symmetry_cell_setting            triclinic
loop_
_symmetry_equiv_pos_as_xyz
'x, y, z'
_cell_length_a     55.613038
_cell_length_b     59.115767
_cell_length_c     19.485209
_cell_angle_alpha  90.225873
_cell_angle_beta   92.258079
_cell_angle_gamma 114.26282
loop_
_atom_site_label
_atom_site_type_symbol
_atom_site_fract_x
_atom_site_fract_y
_atom_site_fract_z
_atom_type_partial_charge
Co0 Co 0.23532 0.41103 0.03705 0.0
C1 C 0.21113 0.39572 0.16349 0.0
Co2 Co 0.19337 0.38413 0.03017 0.0
C3 C 0.28209 0.45777 0.03051 0.0
C4 C 0.28798 0.43089 0.09431 0.0
N5 N 0.27007 0.43404 0.05116 0.0
N6 N 0.30657 0.46952 0.06015 0.0
C7 C 0.31034 0.4526 0.09997 0.0
H8 H 0.2726 0.46664 0.99743 0.0
H9 H 0.28458 0.41416 0.1223 0.0
C10 C 0.21748 0.39954 0.90359 0.0
N11 N 0.15866 0.36026 0.01605 0.0
C12 C 0.13499 0.35888 0.0358 0.0
C13 C 0.15271 0.33943 0.97795 0.0
N14 N 0.11457 0.3379 0.01132 0.0
C15 C 0.126 0.32571 0.9754 0.0
C16 C 0.19992 0.43322 0.0323 0.0
O17 O 0.23791 0.4132 0.9399 0.0
O18 O 0.19676 0.38566 0.93335 0.0
O19 O 0.18196 0.41112 0.02672 0.0
O20 O 0.22392 0.43651 0.03757 0.0
O21 O 0.19038 0.38288 0.12717 0.0
H22 H 0.16693 0.33451 0.95276 0.0
H23 H 0.13284 0.37317 0.06646 0.0
O24 O 0.23223 0.40868 0.13381 0.0
O25 O 0.24672 0.38535 0.03674 0.0
O26 O 0.20581 0.35781 0.03455 0.0
C27 C 0.2304 0.36284 0.03682 0.0
H28 H 0.32785 0.45588 0.13202 0.0
H29 H 0.11598 0.30795 0.94912 0.0
Co30 Co 0.78034 0.22221 0.06146 0.0
C31 C 0.78664 0.24609 0.19214 0.0
Co32 Co 0.79047 0.26283 0.06185 0.0
C33 C 0.77033 0.16938 0.03204 0.0
C34 C 0.75318 0.17548 0.12281 0.0
N35 N 0.7682 0.18761 0.07066 0.0
N36 N 0.75768 0.14668 0.05953 0.0
C37 C 0.74697 0.15062 0.11651 0.0
H38 H 0.78093 0.17264 0.98509 0.0
H39 H 0.74656 0.18407 0.16265 0.0
C40 C 0.78443 0.23925 0.93128 0.0
N41 N 0.80283 0.29735 0.05301 0.0
C42 C 0.795 0.3146 0.07788 0.0
C43 C 0.82437 0.31054 0.01743 0.0
N44 N 0.81128 0.33788 0.06001 0.0
C45 C 0.82968 0.33528 0.02212 0.0
C46 C 0.83366 0.24885 0.06853 0.0
O47 O 0.77845 0.2192 0.96403 0.0
O48 O 0.79038 0.25953 0.96457 0.0
O49 O 0.82605 0.26637 0.06992 0.0
O50 O 0.81648 0.22649 0.06292 0.0
O51 O 0.79042 0.26569 0.15903 0.0
H52 H 0.83569 0.30267 0.98976 0.0
H53 H 0.77813 0.31029 0.10938 0.0
O54 O 0.78267 0.22618 0.15913 0.0
O55 O 0.74452 0.21851 0.06005 0.0
O56 O 0.7546 0.25851 0.05475 0.0
C57 C 0.7372 0.23627 0.05654 0.0
H58 H 0.73487 0.13635 0.15036 0.0
H59 H 0.84571 0.35027 0.99879 0.0
Co60 Co 0.57447 0.77374 0.00705 0.0
C61 C 0.58614 0.79769 0.87972 0.0
Co62 Co 0.59673 0.81466 0.01256 0.0
C63 C 0.53369 0.72402 0.01979 0.0
C64 C 0.56292 0.72565 0.9493 0.0
N65 N 0.55681 0.73962 0.99446 0.0
N66 N 0.52498 0.70104 0.99118 0.0
C67 C 0.54335 0.70198 0.94697 0.0
H68 H 0.52273 0.72973 0.05558 0.0
H69 H 0.57996 0.73253 0.91783 0.0
C70 C 0.58505 0.79053 0.14 0.0
N71 N 0.61377 0.84927 0.02596 0.0
C72 C 0.63326 0.86766 0.99359 0.0
C73 C 0.60749 0.86108 0.07709 0.0
N74 N 0.63947 0.89017 0.02394 0.0
C75 C 0.62327 0.88596 0.07631 0.0
C76 C 0.54115 0.79728 0.00822 0.0
O77 O 0.57356 0.77061 0.10434 0.0
O78 O 0.59621 0.81093 0.10952 0.0
O79 O 0.56261 0.81689 0.01232 0.0
O80 O 0.5423 0.77637 0.00516 0.0
O81 O 0.59709 0.81774 0.91523 0.0
H82 H 0.59224 0.85214 0.11302 0.0
H83 H 0.64294 0.86459 0.9496 0.0
O84 O 0.57548 0.77721 0.91027 0.0
O85 O 0.60677 0.77111 0.00856 0.0
O86 O 0.6303 0.81143 0.01268 0.0
C87 C 0.62916 0.78938 0.01018 0.0
H88 H 0.54239 0.68675 0.91426 0.0
H89 H 0.6227 0.90003 0.11115 0.0
Co90 Co 0.8179 0.62888 0.0384 0.0
C91 C 0.79301 0.6153 0.16432 0.0
Co92 Co 0.77527 0.60396 0.03038 0.0
C93 C 0.87599 0.65421 0.02446 0.0
C94 C 0.85998 0.67167 0.09491 0.0
N95 N 0.85307 0.65174 0.05221 0.0
N96 N 0.89663 0.67513 0.04776 0.0
C97 C 0.8865 0.68599 0.09214 0.0
H98 H 0.8774 0.64135 0.98682 0.0
H99 H 0.84645 0.67574 0.12581 0.0
C100 C 0.8001 0.61742 0.90448 0.0
N101 N 0.74012 0.58196 0.01645 0.0
C102 C 0.72785 0.55827 0.03702 0.0
C103 C 0.72238 0.58532 0.97315 0.0
N104 N 0.70341 0.54667 0.00718 0.0
C105 C 0.69987 0.56369 0.96728 0.0
C106 C 0.78306 0.65289 0.02898 0.0
O107 O 0.82097 0.62965 0.94116 0.0
O108 O 0.77865 0.60536 0.9338 0.0
O109 O 0.76553 0.63083 0.02774 0.0
O110 O 0.80728 0.65646 0.03347 0.0
O111 O 0.77227 0.60272 0.12762 0.0
H112 H 0.72609 0.60204 0.94478 0.0
H113 H 0.73723 0.54922 0.0698 0.0
O114 O 0.81434 0.62776 0.135 0.0
O115 O 0.82759 0.60069 0.04316 0.0
O116 O 0.78508 0.57729 0.03274 0.0
C117 C 0.80859 0.57911 0.03884 0.0
H118 H 0.89758 0.70307 0.12101 0.0
H119 H 0.68252 0.5605 0.93464 0.0
Co120 Co 0.21916 0.74643 0.03299 0.0
C121 C 0.22735 0.77015 0.16383 0.0
Co122 Co 0.23132 0.78727 0.03351 0.0
C123 C 0.21007 0.69392 0.01188 0.0
C124 C 0.184 0.69978 0.08072 0.0
N125 N 0.20469 0.71201 0.04138 0.0
N126 N 0.19312 0.67104 0.0306 0.0
C127 C 0.17678 0.67475 0.07386 0.0
H128 H 0.2257 0.69739 0.9766 0.0
H129 H 0.17458 0.70855 0.11239 0.0
C130 C 0.22297 0.76332 0.90252 0.0
N131 N 0.24638 0.82197 0.02489 0.0
C132 C 0.24777 0.84112 0.06602 0.0
C133 C 0.26332 0.83296 0.97502 0.0
N134 N 0.26508 0.86329 0.04338 0.0
C135 C 0.27468 0.85808 0.98613 0.0
C136 C 0.27235 0.76992 0.03657 0.0
O137 O 0.21747 0.74338 0.93539 0.0
O138 O 0.22901 0.78357 0.93584 0.0
O139 O 0.26637 0.78852 0.03592 0.0
O140 O 0.25397 0.74816 0.03562 0.0
O141 O 0.23322 0.79017 0.13107 0.0
H142 H 0.26845 0.82326 0.93495 0.0
H143 H 0.23764 0.83879 0.11353 0.0
O144 O 0.22096 0.74982 0.13049 0.0
O145 O 0.18467 0.74518 0.02992 0.0
O146 O 0.19573 0.78533 0.03136 0.0
C147 C 0.17784 0.7632 0.02999 0.0
H148 H 0.16097 0.66033 0.09953 0.0
H149 H 0.2896 0.87154 0.95568 0.0
Co150 Co 0.41639 0.19805 0.07127 0.0
C151 C 0.42795 0.22186 0.94341 0.0
Co152 Co 0.44232 0.23829 0.07611 0.0
C153 C 0.39116 0.14364 0.09126 0.0
C154 C 0.37129 0.15732 0.01698 0.0
N155 N 0.39295 0.16467 0.05977 0.0
N156 N 0.36898 0.12374 0.07016 0.0
C157 C 0.35659 0.13238 0.02339 0.0
H158 H 0.40525 0.14308 0.13041 0.0
H159 H 0.36614 0.1695 0.9841 0.0
C160 C 0.43073 0.21451 0.20404 0.0
N161 N 0.4646 0.27165 0.08853 0.0
C162 C 0.48751 0.28572 0.05924 0.0
C163 C 0.46178 0.28657 0.13725 0.0
N164 N 0.49915 0.3086 0.0889 0.0
C165 C 0.48298 0.30918 0.13776 0.0
C166 C 0.38981 0.22944 0.08031 0.0
O167 O 0.41708 0.19498 0.16858 0.0
O168 O 0.44312 0.23466 0.1733 0.0
O169 O 0.41312 0.24618 0.08131 0.0
O170 O 0.38639 0.20681 0.07631 0.0
O171 O 0.44128 0.24148 0.97892 0.0
H172 H 0.44564 0.28109 0.17168 0.0
H173 H 0.49597 0.27903 0.01901 0.0
O174 O 0.41601 0.20156 0.97401 0.0
O175 O 0.447 0.19018 0.06606 0.0
O176 O 0.47142 0.2304 0.07004 0.0
C177 C 0.46969 0.20837 0.06496 0.0
H178 H 0.33809 0.12137 0.99588 0.0
H179 H 0.48636 0.32484 0.17172 0.0
H180 H 0.39283 0.27619 0.0949 0.0
H181 H 0.35717 0.28967 0.09587 0.0
H182 H 0.3 0.21376 0.07238 0.0
H183 H 0.33615 0.19986 0.07029 0.0
H184 H 0.28792 0.24566 0.98701 0.0
H185 H 0.30586 0.24239 0.22642 0.0
H186 H 0.3331 0.24864 0.3336 0.0
H187 H 0.36604 0.32746 0.3067 0.0
H188 H 0.33902 0.32173 0.19931 0.0
H189 H 0.20247 0.31178 0.03388 0.0
H190 H 0.22073 0.2804 0.04836 0.0
H191 H 0.29931 0.33867 0.0678 0.0
H192 H 0.2816 0.36969 0.05341 0.0
H193 H 0.28896 0.30435 0.17099 0.0
H194 H 0.2773 0.30593 0.92083 0.0
H195 H 0.25026 0.29994 0.81331 0.0
H196 H 0.20497 0.22373 0.86213 0.0
H197 H 0.23157 0.22939 0.97045 0.0
C198 C 0.37273 0.26219 0.09021 0.0
C199 C 0.3674 0.23688 0.08281 0.0
C200 C 0.35229 0.26998 0.09114 0.0
C201 C 0.32587 0.25273 0.08543 0.0
C202 C 0.32027 0.22738 0.07739 0.0
C203 C 0.3409 0.21948 0.07644 0.0
C204 C 0.30466 0.26191 0.08637 0.0
C205 C 0.28759 0.25795 0.02812 0.0
C206 C 0.3042 0.27798 0.13985 0.0
C207 C 0.32043 0.2816 0.20469 0.0
C208 C 0.319 0.26105 0.24319 0.0
C209 C 0.3344 0.2645 0.30401 0.0
C210 C 0.35137 0.28841 0.32682 0.0
C211 C 0.35288 0.30894 0.28901 0.0
C212 C 0.33744 0.30561 0.22829 0.0
C213 C 0.22363 0.31781 0.04097 0.0
C214 C 0.24054 0.34326 0.04259 0.0
C215 C 0.23401 0.29989 0.04917 0.0
C216 C 0.26138 0.30724 0.05947 0.0
C217 C 0.27813 0.33257 0.06043 0.0
C218 C 0.26791 0.35032 0.05188 0.0
C219 C 0.27329 0.2891 0.07026 0.0
C220 C 0.28861 0.2914 0.13094 0.0
C221 C 0.27203 0.27152 0.01917 0.0
C222 C 0.25616 0.26817 0.95408 0.0
C223 C 0.26142 0.28797 0.90891 0.0
C224 C 0.24621 0.28462 0.84778 0.0
C225 C 0.22584 0.2615 0.83102 0.0
C226 C 0.22071 0.24165 0.87526 0.0
C227 C 0.23584 0.24491 0.9365 0.0
H228 H 0.21409 0.25894 0.78366 0.0
H229 H 0.36331 0.29102 0.37386 0.0
H230 H 0.09 0.35517 0.10422 0.0
H231 H 0.04247 0.34023 0.11863 0.0
H232 H 0.02759 0.28639 0.9544 0.0
H233 H 0.0743 0.30209 0.93659 0.0
H234 H 0.99337 0.30381 0.94013 0.0
H235 H 0.02503 0.27217 0.13395 0.0
H236 H 0.05262 0.27461 0.23834 0.0
H237 H 0.02142 0.321 0.338 0.0
H238 H 0.99387 0.31909 0.23383 0.0
H239 H 0.86038 0.22358 0.01255 0.0
H240 H 0.90859 0.23793 0.00834 0.0
H241 H 0.91966 0.30289 0.1297 0.0
H242 H 0.87184 0.28904 0.13277 0.0
H243 H 0.9551 0.27974 0.16819 0.0
H244 H 0.92324 0.31024 0.97013 0.0
H245 H 0.89467 0.30527 0.86606 0.0
H246 H 0.92609 0.25762 0.77429 0.0
H247 H 0.95453 0.26197 0.87842 0.0
C248 C 0.07666 0.34033 0.07067 0.0
C249 C 0.08643 0.32974 0.01984 0.0
C250 C 0.04938 0.33157 0.07952 0.0
C251 C 0.03127 0.31176 0.03851 0.0
C252 C 0.04098 0.30156 0.98708 0.0
C253 C 0.06803 0.31049 0.97757 0.0
C254 C 1.00219 0.30153 0.04808 0.0
C255 C 0.98513 0.29828 0.99003 0.0
C256 C 0.99112 0.29456 0.11315 0.0
C257 C 0.00761 0.2957 0.17585 0.0
C258 C 0.0242 0.28304 0.17796 0.0
C259 C 0.03981 0.2843 0.23711 0.0
C260 C 0.03883 0.29801 0.29469 0.0
C261 C 0.02219 0.31043 0.29331 0.0
C262 C 1.00656 0.30924 0.23425 0.0
C263 C 0.87314 0.24069 0.03918 0.0
C264 C 0.86237 0.25525 0.07266 0.0
C265 C 0.90063 0.24891 0.0366 0.0
C266 C 0.91768 0.27155 0.06851 0.0
C267 C 0.9069 0.28539 0.10486 0.0
C268 C 0.87956 0.27747 0.10628 0.0
C269 C 0.94666 0.2818 0.06028 0.0
C270 C 0.96356 0.28518 0.11848 0.0
C271 C 0.95761 0.28857 0.99531 0.0
C272 C 0.94079 0.28621 0.93235 0.0
C273 C 0.92389 0.29853 0.928 0.0
C274 C 0.90775 0.29586 0.86897 0.0
C275 C 0.90851 0.28108 0.81367 0.0
C276 C 0.92548 0.26902 0.81722 0.0
C277 C 0.94163 0.27159 0.87622 0.0
H278 H 0.89599 0.27903 0.76801 0.0
H279 H 0.05093 0.29897 0.34044 0.0
H280 H 0.76276 0.11098 0.13506 0.0
H281 H 0.74967 0.06763 0.10103 0.0
H282 H 0.73109 0.0836 0.8948 0.0
H283 H 0.74432 0.12745 0.92956 0.0
H284 H 0.69057 0.04364 0.94549 0.0
H285 H 0.78201 0.06664 0.92371 0.0
H286 H 0.82956 0.08663 0.95585 0.0
H287 H 0.81694 0.04162 0.13459 0.0
H288 H 0.76925 0.0216 0.10415 0.0
H289 H 0.64679 0.91178 0.89929 0.0
H290 H 0.67384 0.95595 0.87743 0.0
H291 H 0.70204 0.96712 0.08964 0.0
H292 H 0.67507 0.92339 0.11107 0.0
H293 H 0.7414 0.99376 0.00413 0.0
H294 H 0.64986 0.97873 0.03828 0.0
H295 H 0.60199 0.9592 0.0096 0.0
H296 H 0.61534 0.98979 0.80795 0.0
H297 H 0.66337 0.00924 0.83523 0.0
C298 C 0.75645 0.10535 0.08207 0.0
C299 C 0.75464 0.12256 0.0349 0.0
C300 C 0.74904 0.08056 0.0625 0.0
C301 C 0.73952 0.07223 0.99512 0.0
C302 C 0.73849 0.08957 0.94699 0.0
C303 C 0.74625 0.11462 0.96658 0.0
C304 C 0.72866 0.04509 0.97806 0.0
C305 C 0.70194 0.03282 0.95634 0.0
C306 C 0.74326 0.03078 0.99313 0.0
C307 C 0.77198 0.04268 0.01172 0.0
C308 C 0.78933 0.06111 0.97012 0.0
C309 C 0.81632 0.07243 0.98801 0.0
C310 C 0.82626 0.06541 0.04726 0.0
C311 C 0.80922 0.04702 0.08869 0.0
C312 C 0.7822 0.03565 0.07106 0.0
C313 C 0.65939 0.92362 0.94045 0.0
C314 C 0.65893 0.91428 0.00682 0.0
C315 C 0.67465 0.94885 0.92821 0.0
C316 C 0.68983 0.96498 0.9821 0.0
C317 C 0.69059 0.95515 0.04719 0.0
C318 C 0.67517 0.93018 0.05948 0.0
C319 C 0.70322 0.99241 0.97364 0.0
C320 C 0.73033 1.00469 0.99105 0.0
C321 C 0.689 0.00674 0.95473 0.0
C322 C 0.66018 0.99513 0.93843 0.0
C323 C 0.64259 0.98111 0.98764 0.0
C324 C 0.61544 0.97009 0.97168 0.0
C325 C 0.60564 0.97317 0.90691 0.0
C326 C 0.62297 0.98736 0.85803 0.0
C327 C 0.65015 0.99838 0.8737 0.0
H328 H 0.58461 0.96464 0.89465 0.0
H329 H 0.84716 0.0742 0.06102 0.0
H330 H 0.81217 0.70269 0.06015 0.0
H331 H 0.79677 0.73626 0.0531 0.0
H332 H 0.72011 0.68352 0.9778 0.0
H333 H 0.73505 0.65026 0.98525 0.0
H334 H 0.73923 0.72687 0.90225 0.0
H335 H 0.73 0.70146 0.14221 0.0
H336 H 0.74776 0.696 0.25593 0.0
H337 H 0.79831 0.77383 0.26867 0.0
H338 H 0.78106 0.77967 0.1545 0.0
H339 H 0.62984 0.74595 0.96988 0.0
H340 H 0.66659 0.7342 0.96887 0.0
H341 H 0.71954 0.80745 0.04199 0.0
H342 H 0.68197 0.81965 0.04363 0.0
H343 H 0.72635 0.76742 0.11259 0.0
H344 H 0.72564 0.79349 0.88342 0.0
H345 H 0.70588 0.79787 0.77154 0.0
H346 H 0.67391 0.71896 0.73736 0.0
H347 H 0.6931 0.71402 0.84948 0.0
C348 C 0.79209 0.69836 0.04188 0.0
C349 C 0.77482 0.67378 0.02354 0.0
C350 C 0.78331 0.71752 0.03801 0.0
C351 C 0.75727 0.7124 0.01487 0.0
C352 C 0.7403 0.68796 0.99551 0.0
C353 C 0.74887 0.66891 1.00018 0.0
C354 C 0.74686 0.73192 0.01157 0.0
C355 C 0.73662 0.73594 0.9481 0.0
C356 C 0.74429 0.74447 0.07099 0.0
C357 C 0.75453 0.74094 0.13953 0.0
C358 C 0.74508 0.71736 0.16901 0.0
C359 C 0.75501 0.7142 0.23358 0.0
C360 C 0.77422 0.73454 0.26939 0.0
C361 C 0.78348 0.75809 0.24079 0.0
C362 C 0.77364 0.76133 0.17618 0.0
C363 C 0.64922 0.75979 0.98568 0.0
C364 C 0.65287 0.78382 0.00698 0.0
C365 C 0.67034 0.753 0.98467 0.0
C366 C 0.69591 0.76997 0.00454 0.0
C367 C 0.69994 0.79408 0.02605 0.0
C368 C 0.67854 0.80107 0.02666 0.0
C369 C 0.71764 0.76142 0.00363 0.0
C370 C 0.72991 0.75929 0.06619 0.0
C371 C 0.72214 0.75057 0.94324 0.0
C372 C 0.71085 0.75341 0.87505 0.0
C373 C 0.71431 0.77705 0.85221 0.0
C374 C 0.7032 0.77963 0.78871 0.0
C375 C 0.68865 0.75871 0.74737 0.0
C376 C 0.68522 0.73516 0.76939 0.0
C377 C 0.69627 0.73246 0.83287 0.0
H378 H 0.68004 0.76074 0.69826 0.0
H379 H 0.78188 0.73206 0.31938 0.0
H380 H 0.13782 0.71759 0.03854 0.0
H381 H 0.09072 0.70614 0.03279 0.0
H382 H 0.10425 0.78296 0.01186 0.0
H383 H 0.15237 0.79492 0.01848 0.0
H384 H 0.06462 0.75722 0.10324 0.0
H385 H 0.08529 0.74508 0.87378 0.0
H386 H 0.10616 0.72972 0.78674 0.0
H387 H 0.05942 0.65461 0.8425 0.0
H388 H 0.03872 0.66954 0.93134 0.0
H389 H 0.92902 0.72304 0.03008 0.0
H390 H 0.97668 0.7404 0.01707 0.0
H391 H 0.97441 0.66655 0.01626 0.0
H392 H 0.92628 0.64909 0.02768 0.0
H393 H 0.00897 0.69426 0.92833 0.0
H394 H 0.99245 0.70471 0.16335 0.0
H395 H 0.97314 0.71813 0.2587 0.0
H396 H 0.01253 0.79397 0.19865 0.0
H397 H 0.0318 0.78095 0.10228 0.0
C398 C 0.13105 0.73226 0.03268 0.0
C399 C 0.14908 0.75727 0.02836 0.0
C400 C 0.10393 0.72556 0.02917 0.0
C401 C 0.09385 0.74357 0.0205 0.0
C402 C 0.11162 0.76871 0.01798 0.0
C403 C 0.13907 0.77553 0.02167 0.0
C404 C 0.06469 0.73561 0.01428 0.0
C405 C 0.05247 0.74391 0.06405 0.0
C406 C 0.04875 0.71756 0.96448 0.0
C407 C 0.06055 0.70846 0.90956 0.0
C408 C 0.07953 0.72528 0.86775 0.0
C409 C 0.09135 0.71665 0.81806 0.0
C410 C 0.08413 0.69119 0.80901 0.0
C411 C 0.065 0.67432 0.84955 0.0
C412 C 0.05321 0.68286 0.89961 0.0
C413 C 0.93867 0.7105 0.02651 0.0
C414 C 0.92401 0.68473 0.03069 0.0
C415 C 0.96594 0.72044 0.01935 0.0
C416 C 0.97936 0.70488 0.01755 0.0
C417 C 0.96457 0.679 0.01804 0.0
C418 C 0.93709 0.66899 0.02434 0.0
C419 C 0.00881 0.71571 0.01769 0.0
C420 C 0.02109 0.70787 0.96692 0.0
C421 C 0.0248 0.73393 0.06714 0.0
C422 C 0.01332 0.74182 0.12516 0.0
C423 C 0.99683 0.72423 0.17016 0.0
C424 C 0.98592 0.73177 0.22444 0.0
C425 C 0.99154 0.75688 0.23461 0.0
C426 C 0.00815 0.77452 0.19063 0.0
C427 C 0.01909 0.76707 0.13619 0.0
H428 H 0.98308 0.76268 0.27667 0.0
H429 H 0.09336 0.68454 0.77063 0.0
H430 H 0.31552 0.89526 0.06702 0.0
H431 H 0.33174 0.9394 0.09661 0.0
H432 H 0.25163 0.93126 0.11677 0.0
H433 H 0.23537 0.8867 0.08678 0.0
H434 H 0.27871 0.96793 0.02915 0.0
H435 H 0.29453 0.94609 0.25671 0.0
H436 H 0.31116 0.92589 0.34554 0.0
H437 H 0.39056 0.96761 0.28535 0.0
H438 H 0.37438 0.98781 0.19544 0.0
H439 H 0.31898 0.0945 0.09912 0.0
H440 H 0.30047 0.04986 0.11823 0.0
H441 H 0.37808 0.0505 0.10721 0.0
H442 H 0.39678 0.09566 0.09003 0.0
H443 H 0.34991 0.01731 0.19966 0.0
H444 H 0.33493 0.03511 0.966 0.0
H445 H 0.31974 0.0548 0.87263 0.0
H446 H 0.24031 0.01969 0.93919 0.0
H447 H 0.25511 1.00007 0.03364 0.0
C448 C 0.30144 0.90281 0.07955 0.0
C449 C 0.27422 0.88766 0.07473 0.0
C450 C 0.31071 0.92801 0.0967 0.0
C451 C 0.29296 0.93874 0.10925 0.0
C452 C 0.26572 0.92339 0.10757 0.0
C453 C 0.25642 0.89796 0.09103 0.0
C454 C 0.30288 0.96626 0.11631 0.0
C455 C 0.29381 0.97868 0.06758 0.0
C456 C 0.32335 0.98039 0.16469 0.0
C457 C 0.33319 0.96835 0.21896 0.0
C458 C 0.31552 0.95083 0.26204 0.0
C459 C 0.32487 0.9394 0.31267 0.0
C460 C 0.35189 0.94543 0.32101 0.0
C461 C 0.36963 0.96295 0.27882 0.0
C462 C 0.36038 0.97443 0.22808 0.0
C463 C 0.33213 0.08515 0.10189 0.0
C464 C 0.35925 0.09842 0.09235 0.0
C465 C 0.32154 0.05962 0.11257 0.0
C466 C 0.33772 0.0466 0.11235 0.0
C467 C 0.36514 0.06007 0.10716 0.0
C468 C 0.37584 0.08584 0.09747 0.0
C469 C 0.32568 0.0189 0.11253 0.0
C470 C 0.3345 0.0065 0.16206 0.0
C471 C 0.30516 1.00469 0.0643 0.0
C472 C 0.29617 0.01634 0.00732 0.0
C473 C 0.31425 0.03174 0.96103 0.0
C474 C 0.30571 0.04286 0.90788 0.0
C475 C 0.27909 0.03855 0.9001 0.0
C476 C 0.26094 0.02305 0.94536 0.0
C477 C 0.26938 0.01191 0.99869 0.0
H478 H 0.27251 0.04718 0.85891 0.0
H479 H 0.35909 0.93655 0.36023 0.0
H480 H 0.1498 0.62992 0.99591 0.0
H481 H 0.14706 0.58777 0.98242 0.0
H482 H 0.23171 0.61578 0.01356 0.0
H483 H 0.23442 0.65822 0.02443 0.0
H484 H 0.21573 0.57891 0.92442 0.0
H485 H 0.18846 0.59113 0.14641 0.0
H486 H 0.16243 0.60218 0.22925 0.0
H487 H 0.09116 0.54421 0.14479 0.0
H488 H 0.11676 0.53305 0.06073 0.0
H489 H 0.23379 0.47989 0.07011 0.0
H490 H 0.2276 0.51798 0.05903 0.0
H491 H 0.14737 0.47645 0.98288 0.0
H492 H 0.15341 0.43749 0.99386 0.0
H493 H 0.15643 0.51739 0.08281 0.0
H494 H 0.18984 0.50169 0.87323 0.0
H495 H 0.22058 0.49019 0.80938 0.0
H496 H 0.28558 0.55647 0.88368 0.0
H497 H 0.25543 0.56774 0.95132 0.0
C498 C 0.16782 0.62705 0.99861 0.0
C499 C 0.1923 0.64718 0.01174 0.0
C500 C 0.16625 0.60297 0.99133 0.0
C501 C 0.18908 0.59843 0.99888 0.0
C502 C 0.21378 0.61875 0.00791 0.0
C503 C 0.21538 0.64298 0.01397 0.0
C504 C 0.18705 0.57252 1.00147 0.0
C505 C 0.20282 0.56553 0.9592 0.0
C506 C 0.16994 0.55482 0.04626 0.0
C507 C 0.15449 0.56146 0.09675 0.0
C508 C 0.16722 0.58087 0.14515 0.0
C509 C 0.15254 0.58714 0.19236 0.0
C510 C 0.12515 0.57396 0.19213 0.0
C511 C 0.11238 0.55444 0.14479 0.0
C512 C 0.12696 0.54813 0.09736 0.0
C513 C 0.21467 0.47862 0.05129 0.0
C514 C 0.19416 0.45558 0.03185 0.0
C515 C 0.21122 0.50052 0.0451 0.0
C516 C 0.18724 0.50009 0.01898 0.0
C517 C 0.16612 0.47712 0.00274 0.0
C518 C 0.16957 0.45493 0.00899 0.0
C519 C 0.18524 0.524 0.00632 0.0
C520 C 0.16885 0.53065 0.04692 0.0
C521 C 0.20228 0.54157 0.9613 0.0
C522 C 0.22031 0.5355 0.91777 0.0
C523 C 0.2107 0.51377 0.87639 0.0
C524 C 0.22804 0.50727 0.83951 0.0
C525 C 0.25499 0.52267 0.84195 0.0
C526 C 0.26468 0.54458 0.88166 0.0
C527 C 0.24747 0.55098 0.91956 0.0
H528 H 0.26836 0.5176 0.81316 0.0
H529 H 0.11382 0.57882 0.22876 0.0
H530 H 0.51356 0.24101 0.00799 0.0
H531 H 0.55606 0.23904 0.99976 0.0
H532 H 0.52519 0.16681 0.09096 0.0
H533 H 0.48186 0.16871 0.0994 0.0
H534 H 0.57233 0.19794 0.15295 0.0
H535 H 0.54131 0.17154 0.9253 0.0
H536 H 0.52171 0.16998 0.80873 0.0
H537 H 0.58187 0.24194 0.76884 0.0
H538 H 0.60164 0.24414 0.88554 0.0
H539 H 0.6967 0.19279 0.08903 0.0
H540 H 0.64952 0.18322 0.08707 0.0
H541 H 0.66555 0.25715 0.01915 0.0
H542 H 0.71298 0.26706 0.02177 0.0
H543 H 0.62387 0.21819 0.94242 0.0
H544 H 0.65168 0.24472 0.17851 0.0
H545 H 0.67246 0.24327 0.29157 0.0
H546 H 0.61771 0.16738 0.31204 0.0
H547 H 0.59684 0.16828 0.19853 0.0
C548 C 0.5156 0.22452 0.02582 0.0
C549 C 0.49434 0.20505 0.05483 0.0
C550 C 0.53995 0.22335 0.02052 0.0
C551 C 0.54386 0.20271 0.04416 0.0
C552 C 0.52257 0.1829 0.07207 0.0
C553 C 0.49784 0.18393 0.07666 0.0
C554 C 0.57084 0.20319 0.04374 0.0
C555 C 0.58338 0.20178 0.10656 0.0
C556 C 0.58551 0.20863 0.98349 0.0
C557 C 0.57291 0.20803 0.91443 0.0
C558 C 0.55019 0.18718 0.89203 0.0
C559 C 0.53912 0.18612 0.82578 0.0
C560 C 0.55066 0.20577 0.78128 0.0
C561 C 0.57307 0.22666 0.80324 0.0
C562 C 0.58421 0.22782 0.86944 0.0
C563 C 0.69024 0.20707 0.07368 0.0
C564 C 0.70863 0.23072 0.05549 0.0
C565 C 0.66325 0.20155 0.07283 0.0
C566 C 0.65404 0.21948 0.0532 0.0
C567 C 0.67227 0.24305 0.03446 0.0
C568 C 0.69936 0.24871 0.03619 0.0
C569 C 0.62535 0.2136 0.05163 0.0
C570 C 0.61261 0.21403 0.98846 0.0
C571 C 0.61046 0.20699 0.11131 0.0
C572 C 0.6229 0.20648 0.17968 0.0
C573 C 0.64423 0.22765 0.20683 0.0
C574 C 0.65599 0.22694 0.27105 0.0
C575 C 0.64647 0.20522 0.30888 0.0
C576 C 0.6251 0.18418 0.28263 0.0
C577 C 0.61329 0.18479 0.21838 0.0
H578 H 0.6556 0.20471 0.35859 0.0
H579 H 0.54216 0.20484 0.72986 0.0
H580 H 0.4931 0.66949 0.89312 0.0
H581 H 0.45195 0.63293 0.90969 0.0
H582 H 0.45994 0.64891 0.12759 0.0
H583 H 0.50095 0.68596 0.11084 0.0
H584 H 0.45299 0.59798 0.07835 0.0
H585 H 0.41522 0.65765 0.05795 0.0
H586 H 0.40748 0.6916 0.00247 0.0
H587 H 0.37275 0.64514 0.82385 0.0
H588 H 0.38087 0.61106 0.87749 0.0
H589 H 0.33654 0.49934 0.16354 0.0
H590 H 0.37018 0.54161 0.15502 0.0
H591 H 0.35129 0.54009 0.9376 0.0
H592 H 0.31678 0.49779 0.94681 0.0
H593 H 0.36331 0.58524 0.98985 0.0
H594 H 0.40368 0.52778 0.99945 0.0
H595 H 0.41324 0.49344 0.04573 0.0
H596 H 0.44487 0.53506 0.23377 0.0
H597 H 0.43514 0.56953 0.18895 0.0
C598 C 0.48597 0.66524 0.94445 0.0
C599 C 0.5002 0.68035 1.00085 0.0
C600 C 0.46243 0.64451 0.95377 0.0
C601 C 0.45296 0.63833 0.01977 0.0
C602 C 0.46696 0.65351 0.07623 0.0
C603 C 0.49025 0.6746 0.06669 0.0
C604 C 0.42943 0.61504 0.02985 0.0
C605 C 0.43327 0.5953 0.06032 0.0
C606 C 0.40399 0.61142 0.00371 0.0
C607 C 0.39893 0.63186 0.9715 0.0
C608 C 0.4062 0.65474 0.00654 0.0
C609 C 0.40168 0.674 0.9755 0.0
C610 C 0.38966 0.67055 0.9097 0.0
C611 C 0.38209 0.6478 0.8748 0.0
C612 C 0.38666 0.6285 0.9055 0.0
C613 C 0.33949 0.5081 0.11403 0.0
C614 C 0.32447 0.4952 0.05554 0.0
C615 C 0.3587 0.53224 0.10916 0.0
C616 C 0.36381 0.54381 0.04533 0.0
C617 C 0.34785 0.53147 0.98733 0.0
C618 C 0.32821 0.50735 0.9925 0.0
C619 C 0.38678 0.56808 0.03893 0.0
C620 C 0.38294 0.58795 0.00865 0.0
C621 C 0.41243 0.57177 0.06409 0.0
C622 C 0.41843 0.55113 0.09111 0.0
C623 C 0.4125 0.52954 0.05086 0.0
C624 C 0.41797 0.51006 0.0768 0.0
C625 C 0.42959 0.51204 0.14272 0.0
C626 C 0.43583 0.53354 0.18276 0.0
C627 C 0.43036 0.55306 0.15711 0.0
H628 H 0.43381 0.49694 0.16271 0.0
H629 H 0.38616 0.68548 0.8858 0.0
H630 H 0.8525 0.57147 0.08549 0.0
H631 H 0.85523 0.53112 0.09946 0.0
H632 H 0.77577 0.49374 0.01297 0.0
H633 H 0.77285 0.53327 0.99968 0.0
H634 H 0.78093 0.47162 0.12599 0.0
H635 H 0.83035 0.50085 0.92216 0.0
H636 H 0.86618 0.53013 0.85475 0.0
H637 H 0.9239 0.52264 0.99486 0.0
H638 H 0.88837 0.49353 0.06363 0.0
H639 H 0.76932 0.34961 0.04178 0.0
H640 H 0.77028 0.39149 0.04758 0.0
H641 H 0.85209 0.42077 0.11916 0.0
H642 H 0.85125 0.37916 0.10988 0.0
H643 H 0.84823 0.44847 0.02466 0.0
H644 H 0.79727 0.41577 0.2236 0.0
H645 H 0.76051 0.38618 0.28785 0.0
H646 H 0.70475 0.39994 0.15495 0.0
H647 H 0.74111 0.42933 0.08945 0.0
C648 C 0.8358 0.55463 0.06881 0.0
C649 C 0.81245 0.55566 0.04186 0.0
C650 C 0.83732 0.53157 0.07691 0.0
C651 C 0.8156 0.50928 0.05763 0.0
C652 C 0.79268 0.51052 0.02906 0.0
C653 C 0.79112 0.5333 0.02125 0.0
C654 C 0.816 0.4844 0.06763 0.0
C655 C 0.79559 0.46651 0.10355 0.0
C656 C 0.83538 0.47779 0.03974 0.0
C657 C 0.85672 0.49527 0.99848 0.0
C658 C 0.85069 0.50562 0.93891 0.0
C659 C 0.87094 0.52215 0.9004 0.0
C660 C 0.8973 0.52831 0.92064 0.0
C661 C 0.90347 0.5179 0.97934 0.0
C662 C 0.88329 0.50137 0.01808 0.0
C663 C 0.78722 0.36497 0.0603 0.0
C664 C 0.81015 0.36124 0.07577 0.0
C665 C 0.78784 0.38895 0.06367 0.0
C666 C 0.81126 0.40952 0.08436 0.0
C667 C 0.83381 0.40542 0.10271 0.0
C668 C 0.8333 0.38162 0.09795 0.0
C669 C 0.81294 0.43545 0.08259 0.0
C670 C 0.83373 0.45356 0.0481 0.0
C671 C 0.79381 0.44224 0.1116 0.0
C672 C 0.77193 0.42462 0.15129 0.0
C673 C 0.77716 0.41236 0.20783 0.0
C674 C 0.75638 0.39563 0.24452 0.0
C675 C 0.73029 0.39113 0.22543 0.0
C676 C 0.72493 0.4034 0.16971 0.0
C677 C 0.74563 0.42012 0.13284 0.0
H678 H 0.71423 0.37817 0.25386 0.0
H679 H 0.91295 0.54111 0.89074 0.0
H680 H 0.31569 0.81349 0.05997 0.0
H681 H 0.3621 0.82057 0.05922 0.0
H682 H 0.33941 0.74288 0.0128 0.0
H683 H 0.2928 0.7355 0.01571 0.0
H684 H 0.3788 0.75824 0.1037 0.0
H685 H 0.36147 0.78904 0.88826 0.0
H686 H 0.34641 0.81445 0.81265 0.0
H687 H 0.40436 0.88094 0.90932 0.0
H688 H 0.41953 0.8559 0.98619 0.0
H689 H 0.49412 0.75932 0.97437 0.0
H690 H 0.45012 0.75799 0.98233 0.0
H691 H 0.48342 0.83466 0.05056 0.0
H692 H 0.5282 0.8363 0.04176 0.0
H693 H 0.44035 0.82284 0.95655 0.0
H694 H 0.45962 0.79 0.16632 0.0
H695 H 0.47482 0.76303 0.23495 0.0
H696 H 0.41266 0.69839 0.14185 0.0
H697 H 0.39729 0.72498 0.07196 0.0
C698 C 0.32054 0.79787 0.04972 0.0
C699 C 0.30051 0.77392 0.03755 0.0
C700 C 0.34714 0.80199 0.04895 0.0
C701 C 0.35436 0.78237 0.03472 0.0
C702 C 0.33439 0.75835 0.02373 0.0
C703 C 0.30773 0.75415 0.02527 0.0
C704 C 0.38269 0.78684 0.03128 0.0
C705 C 0.39215 0.77221 0.071 0.0
C706 C 0.4004 0.8055 0.98992 0.0
C707 C 0.39144 0.82059 0.94345 0.0
C708 C 0.37087 0.80908 0.89372 0.0
C709 C 0.36233 0.82341 0.85059 0.0
C710 C 0.37437 0.84929 0.85631 0.0
C711 C 0.39503 0.86089 0.90503 0.0
C712 C 0.40362 0.84664 0.94836 0.0
C713 C 0.49227 0.77604 0.99084 0.0
C714 C 0.51475 0.79789 0.0082 0.0
C715 C 0.46699 0.77518 0.99551 0.0
C716 C 0.46343 0.79603 0.01847 0.0
C717 C 0.48576 0.81828 0.03322 0.0
C718 C 0.51129 0.81921 0.02818 0.0
C719 C 0.43624 0.79401 0.02819 0.0
C720 C 0.42701 0.80907 0.98975 0.0
C721 C 0.41863 0.77555 0.07013 0.0
C722 C 0.42741 0.75951 0.11354 0.0
C723 C 0.44926 0.77004 0.16025 0.0
C724 C 0.4579 0.75481 0.19939 0.0
C725 C 0.44475 0.72901 0.19266 0.0
C726 C 0.42284 0.71838 0.147 0.0
C727 C 0.41412 0.73353 0.10769 0.0
H728 H 0.4515 0.71726 0.2229 0.0
H729 H 0.36773 0.86036 0.82289 0.0
H730 H 0.67266 0.51729 0.90354 0.0
H731 H 0.64174 0.47383 0.9096 0.0
H732 H 0.66326 0.47399 0.12493 0.0
H733 H 0.69499 0.51746 0.11815 0.0
H734 H 0.65649 0.43141 0.06814 0.0
H735 H 0.60603 0.48047 0.06746 0.0
H736 H 0.59073 0.51173 0.02467 0.0
H737 H 0.56206 0.46995 0.83562 0.0
H738 H 0.57751 0.43859 0.87697 0.0
H739 H 0.53593 0.3383 0.18109 0.0
H740 H 0.57537 0.37551 0.15726 0.0
H741 H 0.55757 0.36153 0.93969 0.0
H742 H 0.51809 0.32388 0.96373 0.0
H743 H 0.56357 0.40917 0.98826 0.0
H744 H 0.6103 0.35704 1.00109 0.0
H745 H 0.62463 0.32618 0.05152 0.0
H746 H 0.65864 0.37398 0.22821 0.0
H747 H 0.64422 0.40502 0.17931 0.0
C748 C 0.67073 0.50806 0.95218 0.0
C749 C 0.68587 0.52082 0.0107 0.0
C750 C 0.65308 0.48321 0.95562 0.0
C751 C 0.64969 0.47073 0.01809 0.0
C752 C 0.66544 0.48322 0.07618 0.0
C753 C 0.68349 0.50803 0.07242 0.0
C754 C 0.62908 0.44501 0.02321 0.0
C755 C 0.63613 0.4266 0.05125 0.0
C756 C 0.60256 0.43855 0.99995 0.0
C757 C 0.59319 0.45734 0.97501 0.0
C758 C 0.59663 0.47805 0.01656 0.0
C759 C 0.58791 0.49577 0.9926 0.0
C760 C 0.5755 0.49287 0.92739 0.0
C761 C 0.57172 0.4722 0.88607 0.0
C762 C 0.58044 0.45444 0.90976 0.0
C763 C 0.54072 0.34298 0.12822 0.0
C764 C 0.52398 0.32842 0.07417 0.0
C765 C 0.5633 0.36411 0.11465 0.0
C766 C 0.56942 0.37122 0.04675 0.0
C767 C 0.55322 0.35624 0.99246 0.0
C768 C 0.53081 0.33478 0.0061 0.0
C769 C 0.59096 0.39566 0.03343 0.0
C770 C 0.58402 0.4139 0.00422 0.0
C771 C 0.61739 0.402 0.05687 0.0
C772 C 0.62595 0.38329 0.08673 0.0
C773 C 0.6206 0.36089 0.05101 0.0
C774 C 0.6288 0.34338 0.07926 0.0
C775 C 0.64248 0.34809 0.1431 0.0
C776 C 0.64799 0.37033 0.17882 0.0
C777 C 0.63986 0.38791 0.15078 0.0
H778 H 0.64886 0.33453 0.16482 0.0
H779 H 0.56875 0.5066 0.90893 0.0
H780 H 0.25613 0.42959 0.82037 0.0
H781 H 0.25493 0.42933 0.6944 0.0
H782 H 0.1771 0.36963 0.68922 0.0
H783 H 0.17821 0.36959 0.81436 0.0
H784 H 0.20728 0.36036 0.60039 0.0
H785 H 0.185 0.42888 0.65134 0.0
H786 H 0.19001 0.46887 0.70259 0.0
H787 H 0.26436 0.50564 0.60832 0.0
H788 H 0.25976 0.46582 0.55642 0.0
H789 H 0.17159 0.36722 0.2467 0.0
H790 H 0.17271 0.36779 0.37271 0.0
H791 H 0.25198 0.42506 0.37767 0.0
H792 H 0.25105 0.4247 0.25249 0.0
H793 H 0.22114 0.43551 0.46617 0.0
H794 H 0.24198 0.36653 0.41113 0.0
H795 H 0.23484 0.32677 0.35444 0.0
H796 H 0.16193 0.29062 0.45562 0.0
H797 H 0.16845 0.33027 0.51217 0.0
C798 C 0.23879 0.41641 0.79235 0.0
C799 C 0.21729 0.39963 0.82748 0.0
C800 C 0.23805 0.41637 0.72037 0.0
C801 C 0.21581 0.39958 0.68233 0.0
C802 C 0.19446 0.38274 0.7174 0.0
C803 C 0.19513 0.38281 0.78908 0.0
C804 C 0.21483 0.39914 0.60597 0.0
C805 C 0.21 0.37674 0.57107 0.0
C806 C 0.21888 0.42058 0.56757 0.0
C807 C 0.22216 0.44435 0.60064 0.0
C808 C 0.20254 0.44545 0.64214 0.0
C809 C 0.20525 0.4681 0.67101 0.0
C810 C 0.22752 0.48977 0.65881 0.0
C811 C 0.24713 0.48883 0.61774 0.0
C812 C 0.24445 0.46625 0.58844 0.0
C813 C 0.18924 0.37993 0.27468 0.0
C814 C 0.21124 0.39587 0.23953 0.0
C815 C 0.18989 0.38018 0.34663 0.0
C816 C 0.21252 0.39636 0.38453 0.0
C817 C 0.23433 0.41244 0.34948 0.0
C818 C 0.23376 0.41212 0.27783 0.0
C819 C 0.21357 0.39677 0.46077 0.0
C820 C 0.21845 0.41916 0.49558 0.0
C821 C 0.20948 0.37531 0.49903 0.0
C822 C 0.20557 0.35142 0.46532 0.0
C823 C 0.22431 0.35015 0.42085 0.0
C824 C 0.2204 0.32762 0.38882 0.0
C825 C 0.19791 0.30619 0.40127 0.0
C826 C 0.17932 0.30724 0.44594 0.0
C827 C 0.18312 0.32973 0.47803 0.0
H828 H 0.19491 0.28877 0.37644 0.0
H829 H 0.22955 0.50731 0.68102 0.0
H830 H 0.79645 0.27927 0.84903 0.0
H831 H 0.7965 0.28013 0.72406 0.0
H832 H 0.77363 0.201 0.71556 0.0
H833 H 0.77311 0.19989 0.84127 0.0
H834 H 0.82493 0.2689 0.63463 0.0
H835 H 0.73453 0.17686 0.56987 0.0
H836 H 0.6925 0.14972 0.61971 0.0
H837 H 0.69111 0.21208 0.73049 0.0
H838 H 0.73292 0.23963 0.6806 0.0
H839 H 0.77635 0.20637 0.27471 0.0
H840 H 0.77622 0.20555 0.39968 0.0
H841 H 0.7963 0.2842 0.40771 0.0
H842 H 0.79663 0.28526 0.2819 0.0
H843 H 0.74634 0.21657 0.48859 0.0
H844 H 0.83638 0.30868 0.55341 0.0
H845 H 0.87825 0.33605 0.50327 0.0
H846 H 0.88006 0.27393 0.39219 0.0
H847 H 0.83844 0.24615 0.44241 0.0
C848 C 0.79135 0.26198 0.82076 0.0
C849 C 0.78462 0.23945 0.85524 0.0
C850 C 0.7915 0.26255 0.74919 0.0
C851 C 0.78486 0.24063 0.7103 0.0
C852 C 0.77845 0.21811 0.74447 0.0
C853 C 0.77824 0.21751 0.81631 0.0
C854 C 0.78471 0.24153 0.63407 0.0
C855 C 0.80763 0.25767 0.60275 0.0
C856 C 0.76232 0.22657 0.59233 0.0
C857 C 0.73701 0.21023 0.62208 0.0
C858 C 0.72521 0.18478 0.6047 0.0
C859 C 0.70143 0.16933 0.63297 0.0
C860 C 0.6892 0.17915 0.67843 0.0
C861 C 0.70066 0.20447 0.6955 0.0
C862 C 0.72442 0.22 0.66731 0.0
C863 C 0.78078 0.22356 0.30283 0.0
C864 C 0.78659 0.24594 0.2682 0.0
C865 C 0.78059 0.22301 0.3744 0.0
C866 C 0.78641 0.2448 0.41309 0.0
C867 C 0.79205 0.26719 0.37884 0.0
C868 C 0.79216 0.26776 0.30698 0.0
C869 C 0.78654 0.24393 0.48927 0.0
C870 C 0.76362 0.2278 0.52054 0.0
C871 C 0.80891 0.25893 0.53096 0.0
C872 C 0.83413 0.27541 0.50109 0.0
C873 C 0.84577 0.30086 0.51846 0.0
C874 C 0.86945 0.31644 0.49001 0.0
C875 C 0.88175 0.30675 0.44437 0.0
C876 C 0.87045 0.28144 0.42731 0.0
C877 C 0.8468 0.26577 0.45569 0.0
H878 H 0.90007 0.31886 0.42236 0.0
H879 H 0.6708 0.16716 0.7003 0.0
H880 H 0.60982 0.83702 0.79472 0.0
H881 H 0.6098 0.83585 0.6689 0.0
H882 H 0.56162 0.75705 0.66741 0.0
H883 H 0.56194 0.75795 0.79237 0.0
H884 H 0.60027 0.76712 0.58181 0.0
H885 H 0.53544 0.79907 0.6255 0.0
H886 H 0.5188 0.82778 0.67666 0.0
H887 H 0.57723 0.88887 0.57508 0.0
H888 H 0.59446 0.86056 0.52402 0.0
H889 H 0.56098 0.75119 0.22472 0.0
H890 H 0.56104 0.75223 0.35058 0.0
H891 H 0.60989 0.83089 0.35269 0.0
H892 H 0.60962 0.8301 0.2277 0.0
H893 H 0.57083 0.82083 0.43794 0.0
H894 H 0.63555 0.78868 0.3941 0.0
H895 H 0.65217 0.75988 0.34338 0.0
H896 H 0.59371 0.69896 0.44546 0.0
H897 H 0.57651 0.72737 0.49606 0.0
C898 C 0.59917 0.81948 0.76751 0.0
C899 C 0.58585 0.79762 0.80364 0.0
C900 C 0.5991 0.81884 0.69561 0.0
C901 C 0.58552 0.79637 0.65862 0.0
C902 C 0.57228 0.77457 0.69473 0.0
C903 C 0.57241 0.77518 0.76632 0.0
C904 C 0.58515 0.79534 0.58232 0.0
C905 C 0.59352 0.77866 0.55034 0.0
C906 C 0.57683 0.81071 0.5412 0.0
C907 C 0.5664 0.82773 0.5715 0.0
C908 C 0.54486 0.81866 0.61448 0.0
C909 C 0.5353 0.83485 0.64339 0.0
C910 C 0.54699 0.86014 0.62928 0.0
C911 C 0.56822 0.86928 0.58605 0.0
C912 C 0.57788 0.85317 0.55706 0.0
C913 C 0.5718 0.76867 0.25207 0.0
C914 C 0.58534 0.79053 0.21611 0.0
C915 C 0.57187 0.76924 0.32399 0.0
C916 C 0.58564 0.79163 0.36114 0.0
C917 C 0.59909 0.81342 0.32522 0.0
C918 C 0.59899 0.81289 0.25362 0.0
C919 C 0.58595 0.7926 0.43743 0.0
C920 C 0.57756 0.80928 0.46941 0.0
C921 C 0.59422 0.77721 0.47855 0.0
C922 C 0.60457 0.76011 0.44828 0.0
C923 C 0.62611 0.76911 0.40528 0.0
C924 C 0.63566 0.75287 0.37664 0.0
C925 C 0.62396 0.7276 0.39103 0.0
C926 C 0.60273 0.71853 0.43426 0.0
C927 C 0.59308 0.7347 0.46298 0.0
H928 H 0.63138 0.71505 0.36882 0.0
H929 H 0.53956 0.87265 0.65172 0.0
H930 H 0.8413 0.6426 0.82174 0.0
H931 H 0.8402 0.64263 0.69569 0.0
H932 H 0.75819 0.59131 0.68982 0.0
H933 H 0.75895 0.59146 0.81482 0.0
H934 H 0.82976 0.60597 0.60005 0.0
H935 H 0.72523 0.60383 0.55618 0.0
H936 H 0.69515 0.61799 0.61456 0.0
H937 H 0.76141 0.67617 0.7183 0.0
H938 H 0.7919 0.66259 0.65981 0.0
H939 H 0.75199 0.58958 0.24701 0.0
H940 H 0.75308 0.58949 0.37307 0.0
H941 H 0.83478 0.64163 0.37908 0.0
H942 H 0.83399 0.64164 0.25406 0.0
H943 H 0.76337 0.62656 0.46869 0.0
H944 H 0.86791 0.62885 0.51268 0.0
H945 H 0.8981 0.61481 0.45433 0.0
H946 H 0.83196 0.55658 0.3503 0.0
H947 H 0.80138 0.57003 0.40877 0.0
C948 C 0.82305 0.63135 0.79353 0.0
C949 C 0.80018 0.61718 0.82841 0.0
C950 C 0.82246 0.63133 0.72155 0.0
C951 C 0.799 0.61726 0.68332 0.0
C952 C 0.77637 0.60269 0.71814 0.0
C953 C 0.7769 0.60274 0.78977 0.0
C954 C 0.79801 0.61767 0.60702 0.0
C955 C 0.81551 0.61084 0.57133 0.0
C956 C 0.77896 0.6234 0.5695 0.0
C957 C 0.76082 0.63201 0.60408 0.0
C958 C 0.73338 0.61971 0.5912 0.0
C959 C 0.71626 0.62763 0.62436 0.0
C960 C 0.72636 0.64792 0.67028 0.0
C961 C 0.75361 0.6604 0.68292 0.0
C962 C 0.77082 0.65258 0.64983 0.0
C963 C 0.77016 0.60102 0.27525 0.0
C964 C 0.79293 0.61548 0.2404 0.0
C965 C 0.77074 0.60099 0.34722 0.0
C966 C 0.79412 0.61529 0.38547 0.0
C967 C 0.81666 0.6301 0.35071 0.0
C968 C 0.81612 0.63013 0.27907 0.0
C969 C 0.79511 0.61486 0.46175 0.0
C970 C 0.77761 0.6217 0.49742 0.0
C971 C 0.81419 0.60916 0.49925 0.0
C972 C 0.83238 0.60063 0.46463 0.0
C973 C 0.85981 0.61299 0.47759 0.0
C974 C 0.87699 0.60514 0.44445 0.0
C975 C 0.86696 0.58487 0.39847 0.0
C976 C 0.83972 0.57234 0.38573 0.0
C977 C 0.82245 0.58009 0.4188 0.0
H978 H 0.88029 0.57885 0.37281 0.0
H979 H 0.71307 0.65399 0.69596 0.0
H980 H 0.2443 0.81 0.25441 0.0
H981 H 0.24399 0.8089 0.38026 0.0
H982 H 0.21036 0.72889 0.37054 0.0
H983 H 0.21049 0.72976 0.24551 0.0
H984 H 0.18489 0.74622 0.45871 0.0
H985 H 0.27452 0.76076 0.41522 0.0
H986 H 0.31817 0.78271 0.36653 0.0
H987 H 0.32893 0.8491 0.4787 0.0
H988 H 0.28515 0.82763 0.52734 0.0
H989 H 0.20584 0.72352 0.8117 0.0
H990 H 0.20639 0.72469 0.68585 0.0
H991 H 0.24066 0.80471 0.696 0.0
H992 H 0.24015 0.80374 0.82096 0.0
H993 H 0.26605 0.78749 0.60762 0.0
H994 H 0.17699 0.77471 0.64705 0.0
H995 H 0.13235 0.75471 0.69132 0.0
H996 H 0.12027 0.68661 0.58635 0.0
H997 H 0.16495 0.70627 0.54146 0.0
C998 C 0.23688 0.79219 0.27914 0.0
C999 C 0.22749 0.76999 0.23989 0.0
C1000 C 0.2368 0.79159 0.35101 0.0
C1001 C 0.22731 0.76879 0.38476 0.0
C1002 C 0.21777 0.74666 0.34561 0.0
C1003 C 0.21796 0.74724 0.27405 0.0
C1004 C 0.22694 0.76782 0.46086 0.0
C1005 C 0.2027 0.75494 0.49125 0.0
C1006 C 0.25007 0.77973 0.50333 0.0
C1007 C 0.27643 0.79266 0.47434 0.0
C1008 C 0.28609 0.7801 0.42905 0.0
C1009 C 0.31088 0.79244 0.40155 0.0
C1010 C 0.32628 0.8173 0.41936 0.0
C1011 C 0.31696 0.82985 0.46487 0.0
C1012 C 0.29217 0.8176 0.49245 0.0
C1013 C 0.21345 0.74134 0.78706 0.0
C1014 C 0.22291 0.76352 0.82643 0.0
C1015 C 0.21367 0.74199 0.71519 0.0
C1016 C 0.22347 0.76481 0.68155 0.0
C1017 C 0.23306 0.78691 0.72082 0.0
C1018 C 0.23266 0.78629 0.79237 0.0
C1019 C 0.224 0.7658 0.60544 0.0
C1020 C 0.24826 0.77869 0.57506 0.0
C1021 C 0.20089 0.75401 0.56291 0.0
C1022 C 0.1744 0.74187 0.59157 0.0
C1023 C 0.16493 0.75539 0.63407 0.0
C1024 C 0.13958 0.74414 0.65908 0.0
C1025 C 0.1235 0.71937 0.64187 0.0
C1026 C 0.13276 0.70579 0.5997 0.0
C1027 C 0.15807 0.71699 0.57435 0.0
H1028 H 0.10381 0.71073 0.66083 0.0
H1029 H 0.34547 0.82683 0.39802 0.0
H1030 H 0.40143 0.18275 0.85515 0.0
H1031 H 0.40158 0.18204 0.73008 0.0
H1032 H 0.45127 0.26051 0.73311 0.0
H1033 H 0.45168 0.2613 0.85894 0.0
H1034 H 0.38595 0.20442 0.62993 0.0
H1035 H 0.49559 0.27164 0.60054 0.0
H1036 H 0.53731 0.28748 0.6708 0.0
H1037 H 0.50867 0.2214 0.78995 0.0
H1038 H 0.46752 0.20458 0.71813 0.0
H1039 H 0.45688 0.25378 0.29213 0.0
H1040 H 0.45616 0.25474 0.4171 0.0
H1041 H 0.40619 0.17634 0.41451 0.0
H1042 H 0.40641 0.17528 0.28878 0.0
H1043 H 0.47166 0.23243 0.51754 0.0
H1044 H 0.36267 0.1647 0.54572 0.0
H1045 H 0.32044 0.14904 0.47771 0.0
H1046 H 0.34738 0.21614 0.36301 0.0
H1047 H 0.38941 0.23254 0.43164 0.0
C1048 C 0.41234 0.19994 0.82938 0.0
C1049 C 0.42677 0.22207 0.86722 0.0
C1050 C 0.41227 0.19949 0.7577 0.0
C1051 C 0.42667 0.22113 0.7221 0.0
C1052 C 0.44032 0.24349 0.75951 0.0
C1053 C 0.4405 0.24393 0.83144 0.0
C1054 C 0.42823 0.21988 0.64619 0.0
C1055 C 0.40469 0.21031 0.60542 0.0
C1056 C 0.45271 0.22787 0.61406 0.0
C1057 C 0.47825 0.23703 0.6545 0.0
C1058 C 0.49836 0.26034 0.64109 0.0
C1059 C 0.52197 0.26944 0.68105 0.0
C1060 C 0.52568 0.25544 0.73475 0.0
C1061 C 0.50591 0.23217 0.74805 0.0
C1062 C 0.48247 0.22279 0.70752 0.0
C1063 C 0.4458 0.23666 0.31797 0.0
C1064 C 0.43153 0.21446 0.28027 0.0
C1065 C 0.4455 0.23725 0.38961 0.0
C1066 C 0.43089 0.2157 0.42531 0.0
C1067 C 0.41728 0.1933 0.38804 0.0
C1068 C 0.4175 0.1927 0.31617 0.0
C1069 C 0.42936 0.21701 0.50125 0.0
C1070 C 0.45293 0.22656 0.54205 0.0
C1071 C 0.40491 0.20895 0.53346 0.0
C1072 C 0.37933 0.1997 0.49333 0.0
C1073 C 0.35949 0.17619 0.50635 0.0
C1074 C 0.33557 0.16721 0.46775 0.0
C1075 C 0.33123 0.18159 0.41604 0.0
C1076 C 0.35074 0.20506 0.40315 0.0
C1077 C 0.37461 0.21421 0.44192 0.0
H1078 H 0.31275 0.17456 0.38598 0.0
H1079 H 0.54386 0.26263 0.76609 0.0
loop_
_geom_bond_atom_site_label_1
_geom_bond_atom_site_label_2
_geom_bond_distance
_geom_bond_site_symmetry_2
_ccdc_geom_bond_type
Co0 N5 2.057 . S
Co0 O17 2.021 1_554 S
Co0 O20 2.062 . S
Co0 O24 2.117 . S
Co0 O25 2.020 . S
C1 O21 1.259 . S
C1 O24 1.258 . S
Co2 N11 2.057 . S
Co2 O18 2.117 1_554 S
Co2 O19 2.020 . S
Co2 O21 2.021 . S
Co2 O26 2.062 . S
C3 N5 1.316 . S
C3 N6 1.347 . S
C3 H8 0.931 1_554 S
C4 N5 1.375 . S
C4 C7 1.350 . S
C4 H9 0.930 . S
N5 Co0 2.057 . S
N5 C3 1.316 . S
N5 C4 1.375 . S
N6 C3 1.347 . S
N6 C7 1.373 . S
C7 C4 1.350 . S
C7 N6 1.373 . S
C7 H28 0.931 . S
H8 C3 0.931 1_556 S
H9 C4 0.930 . S
C10 O17 1.259 . S
C10 O18 1.258 . S
N11 Co2 2.057 . S
N11 C12 1.316 . S
N11 C13 1.375 1_554 S
C12 N11 1.316 . S
C12 N14 1.347 . S
C12 H23 0.931 . S
C13 N11 1.375 1_556 S
C13 C15 1.350 . S
C13 H22 0.930 . S
N14 C12 1.347 . S
N14 C15 1.373 1_554 S
C15 C13 1.350 . S
C15 N14 1.373 1_556 S
C15 H29 0.931 . S
C16 O19 1.256 . S
C16 O20 1.255 . S
O17 Co0 2.021 1_556 S
O17 C10 1.259 . S
O18 Co2 2.117 1_556 S
O18 C10 1.258 . S
O19 Co2 2.020 . S
O19 C16 1.256 . S
O20 Co0 2.062 . S
O20 C16 1.255 . S
O21 C1 1.259 . S
O21 Co2 2.021 . S
H22 C13 0.930 . S
H23 C12 0.931 . S
O24 Co0 2.117 . S
O24 C1 1.258 . S
O25 Co0 2.020 . S
O25 C27 1.256 . S
O26 Co2 2.062 . S
O26 C27 1.255 . S
C27 O25 1.256 . S
C27 O26 1.255 . S
H28 C7 0.931 . S
H29 C15 0.931 . S
Co30 N35 2.057 . S
Co30 O47 2.021 1_554 S
Co30 O50 2.062 . S
Co30 O54 2.117 . S
Co30 O55 2.020 . S
C31 O51 1.259 . S
C31 O54 1.258 . S
Co32 N41 2.057 . S
Co32 O48 2.117 1_554 S
Co32 O49 2.020 . S
Co32 O51 2.021 . S
Co32 O56 2.062 . S
C33 N35 1.316 . S
C33 N36 1.347 . S
C33 H38 0.931 1_554 S
C34 N35 1.375 . S
C34 C37 1.350 . S
C34 H39 0.930 . S
N35 Co30 2.057 . S
N35 C33 1.316 . S
N35 C34 1.375 . S
N36 C33 1.347 . S
N36 C37 1.373 . S
C37 C34 1.350 . S
C37 N36 1.373 . S
C37 H58 0.931 . S
H38 C33 0.931 1_556 S
H39 C34 0.930 . S
C40 O47 1.259 . S
C40 O48 1.258 . S
N41 Co32 2.057 . S
N41 C42 1.316 . S
N41 C43 1.375 1_554 S
C42 N41 1.316 . S
C42 N44 1.347 . S
C42 H53 0.931 . S
C43 N41 1.375 1_556 S
C43 C45 1.350 . S
C43 H52 0.930 . S
N44 C42 1.347 . S
N44 C45 1.373 1_554 S
C45 C43 1.350 . S
C45 N44 1.373 1_556 S
C45 H59 0.931 . S
C46 O49 1.256 . S
C46 O50 1.255 . S
O47 Co30 2.021 1_556 S
O47 C40 1.259 . S
O48 Co32 2.117 1_556 S
O48 C40 1.258 . S
O49 Co32 2.020 . S
O49 C46 1.256 . S
O50 Co30 2.062 . S
O50 C46 1.255 . S
O51 C31 1.259 . S
O51 Co32 2.021 . S
H52 C43 0.930 . S
H53 C42 0.931 . S
O54 Co30 2.117 . S
O54 C31 1.258 . S
O55 Co30 2.020 . S
O55 C57 1.256 . S
O56 Co32 2.062 . S
O56 C57 1.255 . S
C57 O55 1.256 . S
C57 O56 1.255 . S
H58 C37 0.931 . S
H59 C45 0.931 . S
Co60 N65 2.057 1_554 S
Co60 O77 2.021 . S
Co60 O80 2.062 . S
Co60 O84 2.117 1_554 S
Co60 O85 2.020 . S
C61 O81 1.259 . S
C61 O84 1.258 . S
Co62 N71 2.057 . S
Co62 O78 2.117 . S
Co62 O79 2.020 . S
Co62 O81 2.021 1_554 S
Co62 O86 2.062 . S
C63 N65 1.316 1_554 S
C63 N66 1.341 1_554 S
C63 H68 0.931 . S
C64 N65 1.375 . S
C64 C67 1.350 . S
C64 H69 0.930 . S
N65 Co60 2.057 1_556 S
N65 C63 1.316 1_556 S
N65 C64 1.375 . S
N66 C63 1.341 1_556 S
N66 C67 1.385 . S
C67 C64 1.350 . S
C67 N66 1.385 . S
C67 H88 0.931 . S
H68 C63 0.931 . S
H69 C64 0.930 . S
C70 O77 1.259 . S
C70 O78 1.258 . S
N71 Co62 2.057 . S
N71 C72 1.316 1_554 S
N71 C73 1.375 . S
C72 N71 1.316 1_556 S
C72 N74 1.347 1_556 S
C72 H83 0.931 . S
C73 N71 1.375 . S
C73 C75 1.350 . S
C73 H82 0.930 . S
N74 C72 1.347 1_554 S
N74 C75 1.373 . S
C75 C73 1.350 . S
C75 N74 1.373 . S
C75 H89 0.931 . S
C76 O79 1.256 . S
C76 O80 1.255 . S
O77 Co60 2.021 . S
O77 C70 1.259 . S
O78 Co62 2.117 . S
O78 C70 1.258 . S
O79 Co62 2.020 . S
O79 C76 1.256 . S
O80 Co60 2.062 . S
O80 C76 1.255 . S
O81 C61 1.259 . S
O81 Co62 2.021 1_556 S
H82 C73 0.930 . S
H83 C72 0.931 . S
O84 Co60 2.117 1_556 S
O84 C61 1.258 . S
O85 Co60 2.020 . S
O85 C87 1.256 . S
O86 Co62 2.062 . S
O86 C87 1.255 . S
C87 O85 1.256 . S
C87 O86 1.255 . S
H88 C67 0.931 . S
H89 C75 0.931 . S
Co90 N95 2.057 . S
Co90 O107 2.021 1_554 S
Co90 O110 2.062 . S
Co90 O114 2.117 . S
Co90 O115 2.020 . S
C91 O111 1.259 . S
C91 O114 1.258 . S
Co92 N101 2.057 . S
Co92 O108 2.117 1_554 S
Co92 O109 2.020 . S
Co92 O111 2.021 . S
Co92 O116 2.062 . S
C93 N95 1.316 . S
C93 N96 1.347 . S
C93 H98 0.931 1_554 S
C94 N95 1.375 . S
C94 C97 1.350 . S
C94 H99 0.930 . S
N95 Co90 2.057 . S
N95 C93 1.316 . S
N95 C94 1.375 . S
N96 C93 1.347 . S
N96 C97 1.373 . S
C97 C94 1.350 . S
C97 N96 1.373 . S
C97 H118 0.931 . S
H98 C93 0.931 1_556 S
H99 C94 0.930 . S
C100 O107 1.259 . S
C100 O108 1.258 . S
N101 Co92 2.057 . S
N101 C102 1.316 . S
N101 C103 1.375 1_554 S
C102 N101 1.316 . S
C102 N104 1.347 . S
C102 H113 0.931 . S
C103 N101 1.375 1_556 S
C103 C105 1.350 . S
C103 H112 0.930 . S
N104 C102 1.347 . S
N104 C105 1.373 1_554 S
C105 C103 1.350 . S
C105 N104 1.373 1_556 S
C105 H119 0.931 . S
C106 O109 1.256 . S
C106 O110 1.255 . S
O107 Co90 2.021 1_556 S
O107 C100 1.259 . S
O108 Co92 2.117 1_556 S
O108 C100 1.258 . S
O109 Co92 2.020 . S
O109 C106 1.256 . S
O110 Co90 2.062 . S
O110 C106 1.255 . S
O111 C91 1.259 . S
O111 Co92 2.021 . S
H112 C103 0.930 . S
H113 C102 0.931 . S
O114 Co90 2.117 . S
O114 C91 1.258 . S
O115 Co90 2.020 . S
O115 C117 1.256 . S
O116 Co92 2.062 . S
O116 C117 1.255 . S
C117 O115 1.256 . S
C117 O116 1.255 . S
H118 C97 0.931 . S
H119 C105 0.931 . S
Co120 N125 2.057 . S
Co120 O137 2.021 1_554 S
Co120 O140 2.062 . S
Co120 O144 2.117 . S
Co120 O145 2.020 . S
C121 O141 1.259 . S
C121 O144 1.258 . S
Co122 N131 2.057 . S
Co122 O138 2.117 1_554 S
Co122 O139 2.020 . S
Co122 O141 2.021 . S
Co122 O146 2.062 . S
C123 N125 1.316 1_556 S
C123 N126 1.347 1_556 S
C123 H128 0.931 . S
C124 N125 1.375 . S
C124 C127 1.350 . S
C124 H129 0.930 . S
N125 Co120 2.057 . S
N125 C123 1.316 1_554 S
N125 C124 1.375 . S
N126 C123 1.347 1_554 S
N126 C127 1.373 . S
C127 C124 1.350 . S
C127 N126 1.373 . S
C127 H148 0.931 . S
H128 C123 0.931 . S
H129 C124 0.930 . S
C130 O137 1.259 . S
C130 O138 1.258 . S
N131 Co122 2.057 . S
N131 C132 1.316 . S
N131 C133 1.375 1_554 S
C132 N131 1.316 . S
C132 N134 1.347 . S
C132 H143 0.931 . S
C133 N131 1.375 1_556 S
C133 C135 1.350 . S
C133 H142 0.930 . S
N134 C132 1.347 . S
N134 C135 1.373 1_554 S
C135 C133 1.350 . S
C135 N134 1.373 1_556 S
C135 H149 0.931 . S
C136 O139 1.256 . S
C136 O140 1.255 . S
O137 Co120 2.021 1_556 S
O137 C130 1.259 . S
O138 Co122 2.117 1_556 S
O138 C130 1.258 . S
O139 Co122 2.020 . S
O139 C136 1.256 . S
O140 Co120 2.062 . S
O140 C136 1.255 . S
O141 C121 1.259 . S
O141 Co122 2.021 . S
H142 C133 0.930 . S
H143 C132 0.931 . S
O144 Co120 2.117 . S
O144 C121 1.258 . S
O145 Co120 2.020 . S
O145 C147 1.256 . S
O146 Co122 2.062 . S
O146 C147 1.255 . S
C147 O145 1.256 . S
C147 O146 1.255 . S
H148 C127 0.931 . S
H149 C135 0.931 . S
Co150 N155 2.057 . S
Co150 O167 2.021 . S
Co150 O170 2.062 . S
Co150 O174 2.117 1_554 S
Co150 O175 2.020 . S
C151 O171 1.259 . S
C151 O174 1.258 . S
Co152 N161 2.057 . S
Co152 O168 2.117 . S
Co152 O169 2.020 . S
Co152 O171 2.021 1_554 S
Co152 O176 2.062 . S
C153 N155 1.316 . S
C153 N156 1.347 . S
C153 H158 0.931 . S
C154 N155 1.375 1_556 S
C154 C157 1.350 . S
C154 H159 0.930 . S
N155 Co150 2.057 . S
N155 C153 1.316 . S
N155 C154 1.375 1_554 S
N156 C153 1.347 . S
N156 C157 1.373 1_554 S
C157 C154 1.350 . S
C157 N156 1.373 1_556 S
C157 H178 0.931 . S
H158 C153 0.931 . S
H159 C154 0.930 . S
C160 O167 1.259 . S
C160 O168 1.258 . S
N161 Co152 2.057 . S
N161 C162 1.316 . S
N161 C163 1.375 . S
C162 N161 1.316 . S
C162 N164 1.347 . S
C162 H173 0.931 1_554 S
C163 N161 1.375 . S
C163 C165 1.350 . S
C163 H172 0.930 . S
N164 C162 1.347 . S
N164 C165 1.373 . S
C165 C163 1.350 . S
C165 N164 1.373 . S
C165 H179 0.931 . S
C166 O169 1.256 . S
C166 O170 1.255 . S
O167 Co150 2.021 . S
O167 C160 1.259 . S
O168 Co152 2.117 . S
O168 C160 1.258 . S
O169 Co152 2.020 . S
O169 C166 1.256 . S
O170 Co150 2.062 . S
O170 C166 1.255 . S
O171 C151 1.259 . S
O171 Co152 2.021 1_556 S
H172 C163 0.930 . S
H173 C162 0.931 1_556 S
O174 Co150 2.117 1_556 S
O174 C151 1.258 . S
O175 Co150 2.020 . S
O175 C177 1.256 . S
O176 Co152 2.062 . S
O176 C177 1.255 . S
C177 O175 1.256 . S
C177 O176 1.255 . S
H178 C157 0.931 . S
H179 C165 0.931 . S
H180 C198 0.951 . S
H181 C200 0.951 . S
H182 C202 0.950 . S
H183 C203 0.950 . S
H184 C205 0.950 . S
H185 C208 0.950 . S
H186 C209 0.950 . S
H187 C211 0.950 . S
H188 C212 0.950 . S
H189 C213 0.951 . S
H190 C215 0.951 . S
H191 C217 0.950 . S
H192 C218 0.950 1_556 S
H193 C220 0.950 . S
H194 C223 0.950 . S
H195 C224 0.950 . S
H196 C226 0.950 . S
H197 C227 0.950 1_554 S
C198 H180 0.951 . S
C198 C199 1.366 . S
C198 C200 1.388 . S
C199 C198 1.366 . S
C199 C203 1.385 . S
C200 H181 0.951 . S
C200 C198 1.388 . S
C200 C201 1.366 . S
C201 C200 1.366 . S
C201 C202 1.414 . S
C201 C204 1.499 . S
C202 H182 0.950 . S
C202 C201 1.414 . S
C202 C203 1.374 . S
C203 H183 0.950 . S
C203 C199 1.385 . S
C203 C202 1.374 . S
C204 C201 1.499 . S
C204 C205 1.373 . S
C204 C206 1.389 . S
C205 H184 0.950 . S
C205 C204 1.373 . S
C205 C221 1.377 . S
C206 C204 1.389 . S
C206 C207 1.524 . S
C206 C220 1.377 . S
C207 C206 1.524 . S
C207 C208 1.397 . S
C207 C212 1.363 . S
C208 H185 0.950 . S
C208 C207 1.397 . S
C208 C209 1.334 . S
C209 H186 0.950 . S
C209 C208 1.334 . S
C209 C210 1.287 . S
C210 C209 1.287 . S
C210 C211 1.524 . S
C210 H229 0.913 . S
C211 H187 0.950 . S
C211 C210 1.524 . S
C211 C212 1.415 . S
C212 H188 0.950 . S
C212 C207 1.363 . S
C212 C211 1.415 . S
C213 H189 0.951 . S
C213 C214 1.366 . S
C213 C215 1.388 . S
C214 C213 1.366 . S
C214 C218 1.385 . S
C215 H190 0.951 . S
C215 C213 1.388 . S
C215 C216 1.366 . S
C216 C215 1.366 . S
C216 C217 1.414 . S
C216 C219 1.499 . S
C217 H191 0.950 . S
C217 C216 1.414 . S
C217 C218 1.374 . S
C218 H192 0.950 1_554 S
C218 C214 1.385 . S
C218 C217 1.374 . S
C219 C216 1.499 . S
C219 C220 1.373 . S
C219 C221 1.389 . S
C220 H193 0.950 . S
C220 C206 1.377 . S
C220 C219 1.373 . S
C221 C205 1.377 . S
C221 C219 1.389 . S
C221 C222 1.524 1_554 S
C222 C221 1.524 1_556 S
C222 C223 1.397 . S
C222 C227 1.363 . S
C223 H194 0.950 . S
C223 C222 1.397 . S
C223 C224 1.334 . S
C224 H195 0.950 . S
C224 C223 1.334 . S
C224 C225 1.287 . S
C225 C224 1.287 . S
C225 C226 1.524 . S
C225 H228 0.999 . S
C226 H196 0.950 . S
C226 C225 1.524 . S
C226 C227 1.415 . S
C227 H197 0.950 1_556 S
C227 C222 1.363 . S
C227 C226 1.415 . S
H228 C225 0.999 . S
H229 C210 0.913 . S
H230 C248 0.951 . S
H231 C250 0.951 . S
H232 C252 0.950 . S
H233 C253 0.950 . S
H234 C255 0.950 . S
H235 C258 0.944 1_455 S
H236 C259 0.950 . S
H237 C261 0.950 . S
H238 C262 0.950 . S
H239 C263 0.951 . S
H240 C265 0.951 . S
H241 C267 0.950 . S
H242 C268 0.950 . S
H243 C270 0.950 . S
H244 C273 0.950 . S
H245 C274 0.950 . S
H246 C276 0.950 . S
H247 C277 0.950 . S
C248 H230 0.951 . S
C248 C249 1.366 . S
C248 C250 1.388 . S
C249 C248 1.366 . S
C249 C253 1.385 1_554 S
C250 H231 0.951 . S
C250 C248 1.388 . S
C250 C251 1.366 . S
C251 C250 1.366 . S
C251 C252 1.414 1_554 S
C251 C254 1.499 1_455 S
C252 H232 0.950 . S
C252 C251 1.414 1_556 S
C252 C253 1.374 . S
C253 H233 0.950 . S
C253 C249 1.385 1_556 S
C253 C252 1.374 . S
C254 C251 1.499 1_655 S
C254 C255 1.373 1_554 S
C254 C256 1.389 . S
C255 H234 0.950 . S
C255 C254 1.373 1_556 S
C255 C271 1.377 . S
C256 C254 1.389 . S
C256 C257 1.524 . S
C256 C270 1.377 . S
C257 C256 1.524 . S
C257 C258 1.402 . S
C257 C262 1.363 . S
C258 H235 0.944 1_655 S
C258 C257 1.402 . S
C258 C259 1.331 1_655 S
C259 H236 0.950 . S
C259 C258 1.331 1_455 S
C259 C260 1.287 . S
C260 C259 1.287 . S
C260 C261 1.524 1_455 S
C260 H279 0.913 . S
C261 H237 0.950 . S
C261 C260 1.524 1_655 S
C261 C262 1.415 . S
C262 H238 0.950 . S
C262 C257 1.363 . S
C262 C261 1.415 . S
C263 H239 0.951 . S
C263 C264 1.366 1_556 S
C263 C265 1.388 . S
C264 C263 1.366 1_554 S
C264 C268 1.385 . S
C265 H240 0.951 . S
C265 C263 1.388 . S
C265 C266 1.366 1_556 S
C266 C265 1.366 1_554 S
C266 C267 1.414 . S
C266 C269 1.499 . S
C267 H241 0.950 . S
C267 C266 1.414 . S
C267 C268 1.374 . S
C268 H242 0.950 . S
C268 C264 1.385 . S
C268 C267 1.374 . S
C269 C266 1.499 . S
C269 C270 1.373 . S
C269 C271 1.389 1_554 S
C270 H243 0.950 . S
C270 C256 1.377 . S
C270 C269 1.373 . S
C271 C255 1.377 . S
C271 C269 1.389 1_556 S
C271 C272 1.524 . S
C272 C271 1.524 . S
C272 C273 1.397 . S
C272 C277 1.363 . S
C273 H244 0.950 . S
C273 C272 1.397 . S
C273 C274 1.334 . S
C274 H245 0.950 . S
C274 C273 1.334 . S
C274 C275 1.287 . S
C275 C274 1.287 . S
C275 C276 1.524 . S
C275 H278 0.999 . S
C276 H246 0.950 . S
C276 C275 1.524 . S
C276 C277 1.415 . S
C277 H247 0.950 . S
C277 C272 1.363 . S
C277 C276 1.415 . S
H278 C275 0.999 . S
H279 C260 0.913 . S
H280 C298 0.951 . S
H281 C300 0.951 . S
H282 C302 0.950 . S
H283 C303 0.950 . S
H284 C305 0.950 . S
H285 C308 0.950 . S
H286 C309 0.950 . S
H287 C311 0.950 . S
H288 C312 0.950 . S
H289 C313 0.951 . S
H290 C315 0.951 . S
H291 C317 0.950 . S
H292 C318 0.950 . S
H293 C320 0.950 . S
H294 C323 0.950 . S
H295 C324 0.950 . S
H296 C326 0.950 . S
H297 C327 0.950 . S
C298 H280 0.951 . S
C298 C299 1.366 . S
C298 C300 1.388 . S
C299 C298 1.366 . S
C299 C303 1.385 1_554 S
C300 H281 0.951 . S
C300 C298 1.388 . S
C300 C301 1.366 . S
C301 C300 1.366 . S
C301 C302 1.414 1_554 S
C301 C304 1.499 . S
C302 H282 0.950 . S
C302 C301 1.414 1_556 S
C302 C303 1.374 . S
C303 H283 0.950 . S
C303 C299 1.385 1_556 S
C303 C302 1.374 . S
C304 C301 1.499 . S
C304 C305 1.373 . S
C304 C306 1.389 . S
C305 H284 0.950 . S
C305 C304 1.373 . S
C305 C321 1.377 1_545 S
C306 C304 1.389 . S
C306 C307 1.524 . S
C306 C320 1.377 1_545 S
C307 C306 1.524 . S
C307 C308 1.397 1_554 S
C307 C312 1.363 . S
C308 H285 0.950 . S
C308 C307 1.397 1_556 S
C308 C309 1.334 . S
C309 H286 0.950 . S
C309 C308 1.334 . S
C309 C310 1.287 . S
C310 C309 1.287 . S
C310 C311 1.524 1_556 S
C310 H329 0.913 . S
C311 H287 0.950 . S
C311 C310 1.524 1_554 S
C311 C312 1.415 . S
C312 H288 0.950 . S
C312 C307 1.363 . S
C312 C311 1.415 . S
C313 H289 0.951 . S
C313 C314 1.366 1_556 S
C313 C315 1.388 . S
C314 C313 1.366 1_554 S
C314 C318 1.385 . S
C315 H290 0.951 . S
C315 C313 1.388 . S
C315 C316 1.366 1_556 S
C316 C315 1.366 1_554 S
C316 C317 1.414 . S
C316 C319 1.499 . S
C317 H291 0.950 . S
C317 C316 1.414 . S
C317 C318 1.374 . S
C318 H292 0.950 . S
C318 C314 1.385 . S
C318 C317 1.374 . S
C319 C316 1.499 . S
C319 C320 1.373 . S
C319 C321 1.389 . S
C320 H293 0.950 . S
C320 C306 1.377 1_565 S
C320 C319 1.373 . S
C321 C305 1.377 1_565 S
C321 C319 1.389 . S
C321 C322 1.524 . S
C322 C321 1.524 . S
C322 C323 1.397 . S
C322 C327 1.363 1_554 S
C323 H294 0.950 . S
C323 C322 1.397 . S
C323 C324 1.334 . S
C324 H295 0.950 . S
C324 C323 1.334 . S
C324 C325 1.287 . S
C325 C324 1.287 . S
C325 C326 1.524 1_554 S
C325 H328 0.999 . S
C326 H296 0.950 . S
C326 C325 1.524 1_556 S
C326 C327 1.415 . S
C327 H297 0.950 . S
C327 C322 1.363 1_556 S
C327 C326 1.415 . S
H328 C325 0.999 . S
H329 C310 0.913 . S
H330 C348 0.951 . S
H331 C350 0.951 . S
H332 C352 0.950 . S
H333 C353 0.950 . S
H334 C355 0.950 . S
H335 C358 0.950 . S
H336 C359 0.950 . S
H337 C361 0.950 . S
H338 C362 0.950 . S
H339 C363 0.951 1_556 S
H340 C365 0.951 1_556 S
H341 C367 0.950 . S
H342 C368 0.950 . S
H343 C370 0.950 . S
H344 C373 0.950 . S
H345 C374 0.950 . S
H346 C376 0.950 . S
H347 C377 0.950 . S
C348 H330 0.951 . S
C348 C349 1.366 . S
C348 C350 1.388 . S
C349 C348 1.366 . S
C349 C353 1.385 . S
C350 H331 0.951 . S
C350 C348 1.388 . S
C350 C351 1.366 . S
C351 C350 1.366 . S
C351 C352 1.414 . S
C351 C354 1.499 . S
C352 H332 0.950 . S
C352 C351 1.414 . S
C352 C353 1.374 . S
C353 H333 0.950 . S
C353 C349 1.385 . S
C353 C352 1.374 . S
C354 C351 1.499 . S
C354 C355 1.373 1_554 S
C354 C356 1.389 . S
C355 H334 0.950 . S
C355 C354 1.373 1_556 S
C355 C371 1.377 . S
C356 C354 1.389 . S
C356 C357 1.524 . S
C356 C370 1.377 . S
C357 C356 1.524 . S
C357 C358 1.397 . S
C357 C362 1.363 . S
C358 H335 0.950 . S
C358 C357 1.397 . S
C358 C359 1.334 . S
C359 H336 0.950 . S
C359 C358 1.334 . S
C359 C360 1.287 . S
C360 C359 1.287 . S
C360 C361 1.524 . S
C360 H379 0.913 . S
C361 H337 0.950 . S
C361 C360 1.524 . S
C361 C362 1.415 . S
C362 H338 0.950 . S
C362 C357 1.363 . S
C362 C361 1.415 . S
C363 H339 0.951 1_554 S
C363 C364 1.366 . S
C363 C365 1.388 . S
C364 C363 1.366 . S
C364 C368 1.385 . S
C365 H340 0.951 1_554 S
C365 C363 1.388 . S
C365 C366 1.366 . S
C366 C365 1.366 . S
C366 C367 1.414 . S
C366 C369 1.499 . S
C367 H341 0.950 . S
C367 C366 1.414 . S
C367 C368 1.374 . S
C368 H342 0.950 . S
C368 C364 1.385 . S
C368 C367 1.374 . S
C369 C366 1.499 . S
C369 C370 1.373 . S
C369 C371 1.389 1_554 S
C370 H343 0.950 . S
C370 C356 1.377 . S
C370 C369 1.373 . S
C371 C355 1.377 . S
C371 C369 1.389 1_556 S
C371 C372 1.524 . S
C372 C371 1.524 . S
C372 C373 1.397 . S
C372 C377 1.363 . S
C373 H344 0.950 . S
C373 C372 1.397 . S
C373 C374 1.334 . S
C374 H345 0.950 . S
C374 C373 1.334 . S
C374 C375 1.287 . S
C375 C374 1.287 . S
C375 C376 1.524 . S
C375 H378 0.999 . S
C376 H346 0.950 . S
C376 C375 1.524 . S
C376 C377 1.415 . S
C377 H347 0.950 . S
C377 C372 1.363 . S
C377 C376 1.415 . S
H378 C375 0.999 . S
H379 C360 0.913 . S
H380 C398 0.951 . S
H381 C400 0.951 . S
H382 C402 0.950 1_556 S
H383 C403 0.958 . S
H384 C405 0.950 . S
H385 C408 0.950 . S
H386 C409 0.950 . S
H387 C411 0.950 . S
H388 C412 0.950 . S
H389 C413 0.951 1_556 S
H390 C415 0.951 1_556 S
H391 C417 0.950 . S
H392 C418 0.950 . S
H393 C420 0.950 . S
H394 C423 0.947 . S
H395 C424 0.953 . S
H396 C426 0.950 . S
H397 C427 0.950 . S
C398 H380 0.951 . S
C398 C399 1.366 . S
C398 C400 1.388 . S
C399 C398 1.366 . S
C399 C403 1.378 1_554 S
C400 H381 0.951 . S
C400 C398 1.388 . S
C400 C401 1.366 . S
C401 C400 1.366 . S
C401 C402 1.415 . S
C401 C404 1.499 . S
C402 H382 0.950 1_554 S
C402 C401 1.415 . S
C402 C403 1.373 1_554 S
C403 H383 0.958 . S
C403 C399 1.378 1_556 S
C403 C402 1.373 1_556 S
C404 C401 1.499 . S
C404 C405 1.373 . S
C404 C406 1.389 . S
C405 H384 0.950 . S
C405 C404 1.373 . S
C405 C421 1.377 . S
C406 C404 1.389 . S
C406 C407 1.524 1_554 S
C406 C420 1.377 . S
C407 C406 1.524 1_556 S
C407 C408 1.397 . S
C407 C412 1.363 1_556 S
C408 H385 0.950 . S
C408 C407 1.397 . S
C408 C409 1.334 . S
C409 H386 0.950 . S
C409 C408 1.334 . S
C409 C410 1.287 . S
C410 C409 1.287 . S
C410 C411 1.524 . S
C410 H429 0.913 . S
C411 H387 0.950 . S
C411 C410 1.524 . S
C411 C412 1.415 1_556 S
C412 H388 0.950 . S
C412 C407 1.363 1_554 S
C412 C411 1.415 1_554 S
C413 H389 0.951 1_554 S
C413 C414 1.366 . S
C413 C415 1.388 . S
C414 C413 1.366 . S
C414 C418 1.385 . S
C415 H390 0.951 1_554 S
C415 C413 1.388 . S
C415 C416 1.366 . S
C416 C415 1.366 . S
C416 C417 1.414 . S
C416 C419 1.499 1_655 S
C417 H391 0.950 . S
C417 C416 1.414 . S
C417 C418 1.374 . S
C418 H392 0.950 . S
C418 C414 1.385 . S
C418 C417 1.374 . S
C419 C416 1.499 1_455 S
C419 C420 1.373 . S
C419 C421 1.389 . S
C420 H393 0.950 . S
C420 C406 1.377 . S
C420 C419 1.373 . S
C421 C405 1.377 . S
C421 C419 1.389 . S
C421 C422 1.524 . S
C422 C421 1.524 . S
C422 C423 1.397 . S
C422 C427 1.363 . S
C423 H394 0.947 . S
C423 C422 1.397 . S
C423 C424 1.331 1_455 S
C424 H395 0.953 . S
C424 C423 1.331 1_655 S
C424 C425 1.287 1_655 S
C425 C424 1.287 1_455 S
C425 C426 1.524 . S
C425 H428 0.999 . S
C426 H396 0.950 . S
C426 C425 1.524 . S
C426 C427 1.415 . S
C427 H397 0.950 . S
C427 C422 1.363 . S
C427 C426 1.415 . S
H428 C425 0.999 . S
H429 C410 0.913 . S
H430 C448 0.951 . S
H431 C450 0.951 . S
H432 C452 0.950 . S
H433 C453 0.950 . S
H434 C455 0.947 1_556 S
H435 C458 0.950 . S
H436 C459 0.950 . S
H437 C461 0.950 . S
H438 C462 0.950 . S
H439 C463 0.951 . S
H440 C465 0.951 . S
H441 C467 0.950 . S
H442 C468 0.950 . S
H443 C470 0.950 . S
H444 C473 0.950 . S
H445 C474 0.950 . S
H446 C476 0.950 . S
H447 C477 0.950 1_564 S
C448 H430 0.951 . S
C448 C449 1.366 . S
C448 C450 1.388 . S
C449 C448 1.366 . S
C449 C453 1.385 . S
C450 H431 0.951 . S
C450 C448 1.388 . S
C450 C451 1.366 . S
C451 C450 1.366 . S
C451 C452 1.414 . S
C451 C454 1.499 . S
C452 H432 0.950 . S
C452 C451 1.414 . S
C452 C453 1.374 . S
C453 H433 0.950 . S
C453 C449 1.385 . S
C453 C452 1.374 . S
C454 C451 1.499 . S
C454 C455 1.373 . S
C454 C456 1.389 . S
C455 H434 0.947 1_554 S
C455 C454 1.373 . S
C455 C471 1.377 1_565 S
C456 C454 1.389 . S
C456 C457 1.524 . S
C456 C470 1.377 1_565 S
C457 C456 1.524 . S
C457 C458 1.397 . S
C457 C462 1.363 . S
C458 H435 0.950 . S
C458 C457 1.397 . S
C458 C459 1.334 . S
C459 H436 0.950 . S
C459 C458 1.334 . S
C459 C460 1.287 . S
C460 C459 1.287 . S
C460 C461 1.524 . S
C460 H479 0.913 . S
C461 H437 0.950 . S
C461 C460 1.524 . S
C461 C462 1.415 . S
C462 H438 0.950 . S
C462 C457 1.363 . S
C462 C461 1.415 . S
C463 H439 0.951 . S
C463 C464 1.366 . S
C463 C465 1.388 . S
C464 C463 1.366 . S
C464 C468 1.385 . S
C465 H440 0.951 . S
C465 C463 1.388 . S
C465 C466 1.366 . S
C466 C465 1.366 . S
C466 C467 1.414 . S
C466 C469 1.499 . S
C467 H441 0.950 . S
C467 C466 1.414 . S
C467 C468 1.374 . S
C468 H442 0.950 . S
C468 C464 1.385 . S
C468 C467 1.374 . S
C469 C466 1.499 . S
C469 C470 1.373 . S
C469 C471 1.389 . S
C470 H443 0.950 . S
C470 C456 1.377 1_545 S
C470 C469 1.373 . S
C471 C455 1.377 1_545 S
C471 C469 1.389 . S
C471 C472 1.524 1_554 S
C472 C471 1.524 1_556 S
C472 C473 1.397 . S
C472 C477 1.363 . S
C473 H444 0.950 . S
C473 C472 1.397 . S
C473 C474 1.334 . S
C474 H445 0.950 . S
C474 C473 1.334 . S
C474 C475 1.287 . S
C475 C474 1.287 . S
C475 C476 1.524 . S
C475 H478 0.999 . S
C476 H446 0.950 . S
C476 C475 1.524 . S
C476 C477 1.415 . S
C477 H447 0.950 1_546 S
C477 C472 1.363 . S
C477 C476 1.415 . S
H478 C475 0.999 . S
H479 C460 0.913 . S
H480 C498 0.951 . S
H481 C500 0.951 . S
H482 C502 0.950 . S
H483 C503 0.950 . S
H484 C505 0.950 . S
H485 C508 0.950 . S
H486 C509 0.950 . S
H487 C511 0.950 . S
H488 C512 0.950 . S
H489 C513 0.951 . S
H490 C515 0.951 . S
H491 C517 0.950 . S
H492 C518 0.950 . S
H493 C520 0.950 . S
H494 C523 0.950 . S
H495 C524 0.950 . S
H496 C526 0.950 . S
H497 C527 0.950 . S
C498 H480 0.951 . S
C498 C499 1.366 . S
C498 C500 1.388 . S
C499 C498 1.366 . S
C499 C503 1.385 1_554 S
C500 H481 0.951 . S
C500 C498 1.388 . S
C500 C501 1.366 . S
C501 C500 1.366 . S
C501 C502 1.414 1_554 S
C501 C504 1.499 . S
C502 H482 0.950 . S
C502 C501 1.414 1_556 S
C502 C503 1.374 . S
C503 H483 0.950 . S
C503 C499 1.385 1_556 S
C503 C502 1.374 . S
C504 C501 1.499 . S
C504 C505 1.373 1_554 S
C504 C506 1.389 . S
C505 H484 0.950 . S
C505 C504 1.373 1_556 S
C505 C521 1.377 . S
C506 C504 1.389 . S
C506 C507 1.524 . S
C506 C520 1.377 . S
C507 C506 1.524 . S
C507 C508 1.397 . S
C507 C512 1.363 . S
C508 H485 0.950 . S
C508 C507 1.397 . S
C508 C509 1.334 . S
C509 H486 0.950 . S
C509 C508 1.334 . S
C509 C510 1.287 . S
C510 C509 1.287 . S
C510 C511 1.524 . S
C510 H529 0.913 . S
C511 H487 0.950 . S
C511 C510 1.524 . S
C511 C512 1.415 . S
C512 H488 0.950 . S
C512 C507 1.363 . S
C512 C511 1.415 . S
C513 H489 0.951 . S
C513 C514 1.366 1_556 S
C513 C515 1.388 . S
C514 C513 1.366 1_554 S
C514 C518 1.385 . S
C515 H490 0.951 . S
C515 C513 1.388 . S
C515 C516 1.366 1_556 S
C516 C515 1.366 1_554 S
C516 C517 1.414 . S
C516 C519 1.499 . S
C517 H491 0.950 . S
C517 C516 1.414 . S
C517 C518 1.374 . S
C518 H492 0.950 . S
C518 C514 1.385 . S
C518 C517 1.374 . S
C519 C516 1.499 . S
C519 C520 1.373 . S
C519 C521 1.389 1_554 S
C520 H493 0.950 . S
C520 C506 1.377 . S
C520 C519 1.373 . S
C521 C505 1.377 . S
C521 C519 1.389 1_556 S
C521 C522 1.524 . S
C522 C521 1.524 . S
C522 C523 1.397 . S
C522 C527 1.363 . S
C523 H494 0.950 . S
C523 C522 1.397 . S
C523 C524 1.334 . S
C524 H495 0.950 . S
C524 C523 1.334 . S
C524 C525 1.287 . S
C525 C524 1.287 . S
C525 C526 1.524 . S
C525 H528 0.999 . S
C526 H496 0.950 . S
C526 C525 1.524 . S
C526 C527 1.415 . S
C527 H497 0.950 . S
C527 C522 1.363 . S
C527 C526 1.415 . S
H528 C525 0.999 . S
H529 C510 0.913 . S
H530 C548 0.951 1_556 S
H531 C550 0.951 1_556 S
H532 C552 0.950 . S
H533 C553 0.950 . S
H534 C555 0.950 . S
H535 C558 0.950 1_554 S
H536 C559 0.950 . S
H537 C561 0.950 . S
H538 C562 0.950 . S
H539 C563 0.951 . S
H540 C565 0.951 . S
H541 C567 0.950 1_556 S
H542 C568 0.938 1_556 S
H543 C570 0.950 1_556 S
H544 C573 0.950 . S
H545 C574 0.950 . S
H546 C576 0.950 . S
H547 C577 0.950 . S
C548 H530 0.951 1_554 S
C548 C549 1.366 . S
C548 C550 1.388 . S
C549 C548 1.366 . S
C549 C553 1.385 . S
C550 H531 0.951 1_554 S
C550 C548 1.388 . S
C550 C551 1.366 . S
C551 C550 1.366 . S
C551 C552 1.414 . S
C551 C554 1.499 . S
C552 H532 0.950 . S
C552 C551 1.414 . S
C552 C553 1.374 . S
C553 H533 0.950 . S
C553 C549 1.385 . S
C553 C552 1.374 . S
C554 C551 1.499 . S
C554 C555 1.373 . S
C554 C556 1.389 . S
C555 H534 0.950 . S
C555 C554 1.373 . S
C555 C571 1.377 . S
C556 C554 1.389 . S
C556 C557 1.524 1_554 S
C556 C570 1.377 . S
C557 C556 1.524 1_556 S
C557 C558 1.397 . S
C557 C562 1.363 . S
C558 H535 0.950 1_556 S
C558 C557 1.397 . S
C558 C559 1.334 . S
C559 H536 0.950 . S
C559 C558 1.334 . S
C559 C560 1.287 . S
C560 C559 1.287 . S
C560 C561 1.524 . S
C560 H579 0.913 . S
C561 H537 0.950 . S
C561 C560 1.524 . S
C561 C562 1.415 . S
C562 H538 0.950 . S
C562 C557 1.363 . S
C562 C561 1.415 . S
C563 H539 0.951 . S
C563 C564 1.366 . S
C563 C565 1.388 . S
C564 C563 1.366 . S
C564 C568 1.395 . S
C565 H540 0.951 . S
C565 C563 1.388 . S
C565 C566 1.366 . S
C566 C565 1.366 . S
C566 C567 1.414 . S
C566 C569 1.499 . S
C567 H541 0.950 1_554 S
C567 C566 1.414 . S
C567 C568 1.375 . S
C568 H542 0.938 1_554 S
C568 C564 1.395 . S
C568 C567 1.375 . S
C569 C566 1.499 . S
C569 C570 1.373 . S
C569 C571 1.389 . S
C570 H543 0.950 1_554 S
C570 C556 1.377 . S
C570 C569 1.373 . S
C571 C555 1.377 . S
C571 C569 1.389 . S
C571 C572 1.524 . S
C572 C571 1.524 . S
C572 C573 1.397 . S
C572 C577 1.363 . S
C573 H544 0.950 . S
C573 C572 1.397 . S
C573 C574 1.334 . S
C574 H545 0.950 . S
C574 C573 1.334 . S
C574 C575 1.287 . S
C575 C574 1.287 . S
C575 C576 1.524 . S
C575 H578 0.999 . S
C576 H546 0.950 . S
C576 C575 1.524 . S
C576 C577 1.415 . S
C577 H547 0.950 . S
C577 C572 1.363 . S
C577 C576 1.415 . S
H578 C575 0.999 . S
H579 C560 0.913 . S
H580 C598 0.951 . S
H581 C600 0.951 . S
H582 C602 0.950 . S
H583 C603 0.950 . S
H584 C605 0.950 . S
H585 C608 0.950 . S
H586 C609 0.950 1_554 S
H587 C611 0.950 . S
H588 C612 0.950 . S
H589 C613 0.951 . S
H590 C615 0.951 . S
H591 C617 0.950 . S
H592 C618 0.950 . S
H593 C620 0.950 . S
H594 C623 0.950 1_556 S
H595 C624 0.950 . S
H596 C626 0.950 . S
H597 C627 0.950 . S
C598 H580 0.951 . S
C598 C599 1.366 1_556 S
C598 C600 1.388 . S
C599 C598 1.366 1_554 S
C599 C603 1.385 . S
C600 H581 0.951 . S
C600 C598 1.388 . S
C600 C601 1.366 1_556 S
C601 C600 1.366 1_554 S
C601 C602 1.414 . S
C601 C604 1.499 . S
C602 H582 0.950 . S
C602 C601 1.414 . S
C602 C603 1.374 . S
C603 H583 0.950 . S
C603 C599 1.385 . S
C603 C602 1.374 . S
C604 C601 1.499 . S
C604 C605 1.373 . S
C604 C606 1.389 1_554 S
C605 H584 0.950 . S
C605 C604 1.373 . S
C605 C621 1.377 . S
C606 C604 1.389 1_556 S
C606 C607 1.524 . S
C606 C620 1.377 . S
C607 C606 1.524 . S
C607 C608 1.397 1_556 S
C607 C612 1.363 . S
C608 H585 0.950 . S
C608 C607 1.397 1_554 S
C608 C609 1.334 1_554 S
C609 H586 0.950 1_556 S
C609 C608 1.334 1_556 S
C609 C610 1.287 . S
C610 C609 1.287 . S
C610 C611 1.524 . S
C610 H629 0.913 . S
C611 H587 0.950 . S
C611 C610 1.524 . S
C611 C612 1.415 . S
C612 H588 0.950 . S
C612 C607 1.363 . S
C612 C611 1.415 . S
C613 H589 0.951 . S
C613 C614 1.366 . S
C613 C615 1.388 . S
C614 C613 1.366 . S
C614 C618 1.385 1_554 S
C615 H590 0.951 . S
C615 C613 1.388 . S
C615 C616 1.366 . S
C616 C615 1.366 . S
C616 C617 1.414 1_554 S
C616 C619 1.499 . S
C617 H591 0.950 . S
C617 C616 1.414 1_556 S
C617 C618 1.374 . S
C618 H592 0.950 . S
C618 C614 1.385 1_556 S
C618 C617 1.374 . S
C619 C616 1.499 . S
C619 C620 1.373 1_554 S
C619 C621 1.389 . S
C620 H593 0.950 . S
C620 C606 1.377 . S
C620 C619 1.373 1_556 S
C621 C605 1.377 . S
C621 C619 1.389 . S
C621 C622 1.524 . S
C622 C621 1.524 . S
C622 C623 1.397 . S
C622 C627 1.363 . S
C623 H594 0.950 1_554 S
C623 C622 1.397 . S
C623 C624 1.334 . S
C624 H595 0.950 . S
C624 C623 1.334 . S
C624 C625 1.287 . S
C625 C624 1.287 . S
C625 C626 1.524 . S
C625 H628 0.999 . S
C626 H596 0.950 . S
C626 C625 1.524 . S
C626 C627 1.415 . S
C627 H597 0.950 . S
C627 C622 1.363 . S
C627 C626 1.415 . S
H628 C625 0.999 . S
H629 C610 0.913 . S
H630 C648 0.951 . S
H631 C650 0.951 . S
H632 C652 0.950 . S
H633 C653 0.950 . S
H634 C655 0.950 . S
H635 C658 0.950 . S
H636 C659 0.950 . S
H637 C661 0.950 . S
H638 C662 0.950 1_554 S
H639 C663 0.951 . S
H640 C665 0.951 . S
H641 C667 0.950 . S
H642 C668 0.950 . S
H643 C670 0.950 . S
H644 C673 0.950 . S
H645 C674 0.950 . S
H646 C676 0.950 . S
H647 C677 0.950 . S
C648 H630 0.951 . S
C648 C649 1.366 . S
C648 C650 1.388 . S
C649 C648 1.366 . S
C649 C653 1.385 . S
C650 H631 0.951 . S
C650 C648 1.388 . S
C650 C651 1.366 . S
C651 C650 1.366 . S
C651 C652 1.414 . S
C651 C654 1.499 . S
C652 H632 0.950 . S
C652 C651 1.414 . S
C652 C653 1.374 . S
C653 H633 0.950 . S
C653 C649 1.385 . S
C653 C652 1.374 . S
C654 C651 1.499 . S
C654 C655 1.373 . S
C654 C656 1.389 . S
C655 H634 0.950 . S
C655 C654 1.373 . S
C655 C671 1.377 . S
C656 C654 1.389 . S
C656 C657 1.524 1_554 S
C656 C670 1.377 . S
C657 C656 1.524 1_556 S
C657 C658 1.397 . S
C657 C662 1.363 . S
C658 H635 0.950 . S
C658 C657 1.397 . S
C658 C659 1.334 . S
C659 H636 0.950 . S
C659 C658 1.334 . S
C659 C660 1.287 . S
C660 C659 1.287 . S
C660 C661 1.524 . S
C660 H679 0.913 . S
C661 H637 0.950 . S
C661 C660 1.524 . S
C661 C662 1.415 . S
C662 H638 0.950 1_556 S
C662 C657 1.363 . S
C662 C661 1.415 . S
C663 H639 0.951 . S
C663 C664 1.366 . S
C663 C665 1.388 . S
C664 C663 1.366 . S
C664 C668 1.385 . S
C665 H640 0.951 . S
C665 C663 1.388 . S
C665 C666 1.366 . S
C666 C665 1.366 . S
C666 C667 1.414 . S
C666 C669 1.499 . S
C667 H641 0.950 . S
C667 C666 1.414 . S
C667 C668 1.374 . S
C668 H642 0.950 . S
C668 C664 1.385 . S
C668 C667 1.374 . S
C669 C666 1.499 . S
C669 C670 1.373 . S
C669 C671 1.389 . S
C670 H643 0.950 . S
C670 C656 1.377 . S
C670 C669 1.373 . S
C671 C655 1.377 . S
C671 C669 1.389 . S
C671 C672 1.524 . S
C672 C671 1.524 . S
C672 C673 1.397 . S
C672 C677 1.363 . S
C673 H644 0.950 . S
C673 C672 1.397 . S
C673 C674 1.334 . S
C674 H645 0.950 . S
C674 C673 1.334 . S
C674 C675 1.287 . S
C675 C674 1.287 . S
C675 C676 1.524 . S
C675 H678 0.999 . S
C676 H646 0.950 . S
C676 C675 1.524 . S
C676 C677 1.415 . S
C677 H647 0.950 . S
C677 C672 1.363 . S
C677 C676 1.415 . S
H678 C675 0.999 . S
H679 C660 0.913 . S
H680 C698 0.951 . S
H681 C700 0.951 . S
H682 C702 0.950 . S
H683 C703 0.950 . S
H684 C705 0.950 . S
H685 C708 0.950 . S
H686 C709 0.950 . S
H687 C711 0.950 . S
H688 C712 0.950 . S
H689 C713 0.951 . S
H690 C715 0.951 . S
H691 C717 0.950 . S
H692 C718 0.950 . S
H693 C720 0.950 . S
H694 C723 0.950 . S
H695 C724 0.950 . S
H696 C726 0.950 . S
H697 C727 0.950 . S
C698 H680 0.951 . S
C698 C699 1.366 . S
C698 C700 1.388 . S
C699 C698 1.366 . S
C699 C703 1.385 . S
C700 H681 0.951 . S
C700 C698 1.388 . S
C700 C701 1.366 . S
C701 C700 1.366 . S
C701 C702 1.414 . S
C701 C704 1.499 . S
C702 H682 0.950 . S
C702 C701 1.414 . S
C702 C703 1.374 . S
C703 H683 0.950 . S
C703 C699 1.385 . S
C703 C702 1.374 . S
C704 C701 1.499 . S
C704 C705 1.373 . S
C704 C706 1.389 1_554 S
C705 H684 0.950 . S
C705 C704 1.373 . S
C705 C721 1.377 . S
C706 C704 1.389 1_556 S
C706 C707 1.524 . S
C706 C720 1.377 . S
C707 C706 1.524 . S
C707 C708 1.397 . S
C707 C712 1.363 . S
C708 H685 0.950 . S
C708 C707 1.397 . S
C708 C709 1.334 . S
C709 H686 0.950 . S
C709 C708 1.334 . S
C709 C710 1.287 . S
C710 C709 1.287 . S
C710 C711 1.524 . S
C710 H729 0.913 . S
C711 H687 0.950 . S
C711 C710 1.524 . S
C711 C712 1.415 . S
C712 H688 0.950 . S
C712 C707 1.363 . S
C712 C711 1.415 . S
C713 H689 0.951 . S
C713 C714 1.366 . S
C713 C715 1.388 . S
C714 C713 1.366 . S
C714 C718 1.385 . S
C715 H690 0.951 . S
C715 C713 1.388 . S
C715 C716 1.366 . S
C716 C715 1.366 . S
C716 C717 1.414 . S
C716 C719 1.499 . S
C717 H691 0.950 . S
C717 C716 1.414 . S
C717 C718 1.374 . S
C718 H692 0.950 . S
C718 C714 1.385 . S
C718 C717 1.374 . S
C719 C716 1.499 . S
C719 C720 1.373 1_554 S
C719 C721 1.389 . S
C720 H693 0.950 . S
C720 C706 1.377 . S
C720 C719 1.373 1_556 S
C721 C705 1.377 . S
C721 C719 1.389 . S
C721 C722 1.524 . S
C722 C721 1.524 . S
C722 C723 1.397 . S
C722 C727 1.363 . S
C723 H694 0.950 . S
C723 C722 1.397 . S
C723 C724 1.334 . S
C724 H695 0.950 . S
C724 C723 1.334 . S
C724 C725 1.287 . S
C725 C724 1.287 . S
C725 C726 1.524 . S
C725 H728 0.999 . S
C726 H696 0.950 . S
C726 C725 1.524 . S
C726 C727 1.415 . S
C727 H697 0.950 . S
C727 C722 1.363 . S
C727 C726 1.415 . S
H728 C725 0.999 . S
H729 C710 0.913 . S
H730 C748 0.960 . S
H731 C750 0.941 1_556 S
H732 C752 0.950 . S
H733 C753 0.950 . S
H734 C755 0.950 . S
H735 C758 0.950 . S
H736 C759 0.950 . S
H737 C761 0.950 . S
H738 C762 0.950 . S
H739 C763 0.951 . S
H740 C765 0.951 . S
H741 C767 0.950 1_556 S
H742 C768 0.950 1_556 S
H743 C770 0.950 . S
H744 C773 0.950 . S
H745 C774 0.950 . S
H746 C776 0.950 . S
H747 C777 0.950 . S
C748 H730 0.960 . S
C748 C749 1.357 1_556 S
C748 C750 1.387 1_556 S
C749 C748 1.357 1_554 S
C749 C753 1.385 . S
C750 H731 0.941 1_554 S
C750 C748 1.387 1_554 S
C750 C751 1.376 . S
C751 C750 1.376 . S
C751 C752 1.414 . S
C751 C754 1.499 . S
C752 H732 0.950 . S
C752 C751 1.414 . S
C752 C753 1.374 . S
C753 H733 0.950 . S
C753 C749 1.385 . S
C753 C752 1.374 . S
C754 C751 1.499 . S
C754 C755 1.373 . S
C754 C756 1.389 . S
C755 H734 0.950 . S
C755 C754 1.373 . S
C755 C771 1.377 . S
C756 C754 1.389 . S
C756 C757 1.524 . S
C756 C770 1.377 . S
C757 C756 1.524 . S
C757 C758 1.397 . S
C757 C762 1.363 1_554 S
C758 H735 0.950 . S
C758 C757 1.397 . S
C758 C759 1.334 . S
C759 H736 0.950 . S
C759 C758 1.334 . S
C759 C760 1.287 1_554 S
C760 C759 1.287 1_556 S
C760 C761 1.524 . S
C760 H779 0.913 . S
C761 H737 0.950 . S
C761 C760 1.524 . S
C761 C762 1.415 . S
C762 H738 0.950 . S
C762 C757 1.363 1_556 S
C762 C761 1.415 . S
C763 H739 0.951 . S
C763 C764 1.366 . S
C763 C765 1.388 . S
C764 C763 1.366 . S
C764 C768 1.385 . S
C765 H740 0.951 . S
C765 C763 1.388 . S
C765 C766 1.366 . S
C766 C765 1.366 . S
C766 C767 1.414 . S
C766 C769 1.499 . S
C767 H741 0.950 1_554 S
C767 C766 1.414 . S
C767 C768 1.374 . S
C768 H742 0.950 1_554 S
C768 C764 1.385 . S
C768 C767 1.374 . S
C769 C766 1.499 . S
C769 C770 1.373 . S
C769 C771 1.389 . S
C770 H743 0.950 . S
C770 C756 1.377 . S
C770 C769 1.373 . S
C771 C755 1.377 . S
C771 C769 1.389 . S
C771 C772 1.524 . S
C772 C771 1.524 . S
C772 C773 1.397 . S
C772 C777 1.363 . S
C773 H744 0.950 . S
C773 C772 1.397 . S
C773 C774 1.334 . S
C774 H745 0.950 . S
C774 C773 1.334 . S
C774 C775 1.287 . S
C775 C774 1.287 . S
C775 C776 1.524 . S
C775 H778 0.999 . S
C776 H746 0.950 . S
C776 C775 1.524 . S
C776 C777 1.415 . S
C777 H747 0.950 . S
C777 C772 1.363 . S
C777 C776 1.415 . S
H778 C775 0.999 . S
H779 C760 0.913 . S
H780 C798 0.951 . S
H781 C800 0.951 . S
H782 C802 0.950 . S
H783 C803 0.950 . S
H784 C805 0.950 . S
H785 C808 0.950 . S
H786 C809 0.950 . S
H787 C811 0.950 . S
H788 C812 0.950 . S
H789 C813 0.951 . S
H790 C815 0.951 . S
H791 C817 0.950 . S
H792 C818 0.950 . S
H793 C820 0.950 . S
H794 C823 0.950 . S
H795 C824 0.950 . S
H796 C826 0.950 . S
H797 C827 0.950 . S
C798 H780 0.951 . S
C798 C799 1.366 . S
C798 C800 1.388 . S
C799 C798 1.366 . S
C799 C803 1.385 . S
C800 H781 0.951 . S
C800 C798 1.388 . S
C800 C801 1.366 . S
C801 C800 1.366 . S
C801 C802 1.414 . S
C801 C804 1.499 . S
C802 H782 0.950 . S
C802 C801 1.414 . S
C802 C803 1.374 . S
C803 H783 0.950 . S
C803 C799 1.385 . S
C803 C802 1.374 . S
C804 C801 1.499 . S
C804 C805 1.373 . S
C804 C806 1.389 . S
C805 H784 0.950 . S
C805 C804 1.373 . S
C805 C821 1.377 . S
C806 C804 1.389 . S
C806 C807 1.524 . S
C806 C820 1.377 . S
C807 C806 1.524 . S
C807 C808 1.397 . S
C807 C812 1.363 . S
C808 H785 0.950 . S
C808 C807 1.397 . S
C808 C809 1.334 . S
C809 H786 0.950 . S
C809 C808 1.334 . S
C809 C810 1.287 . S
C810 C809 1.287 . S
C810 C811 1.524 . S
C810 H829 0.913 . S
C811 H787 0.950 . S
C811 C810 1.524 . S
C811 C812 1.415 . S
C812 H788 0.950 . S
C812 C807 1.363 . S
C812 C811 1.415 . S
C813 H789 0.951 . S
C813 C814 1.366 . S
C813 C815 1.388 . S
C814 C813 1.366 . S
C814 C818 1.385 . S
C815 H790 0.951 . S
C815 C813 1.388 . S
C815 C816 1.366 . S
C816 C815 1.366 . S
C816 C817 1.414 . S
C816 C819 1.499 . S
C817 H791 0.950 . S
C817 C816 1.414 . S
C817 C818 1.374 . S
C818 H792 0.950 . S
C818 C814 1.385 . S
C818 C817 1.374 . S
C819 C816 1.499 . S
C819 C820 1.373 . S
C819 C821 1.389 . S
C820 H793 0.950 . S
C820 C806 1.377 . S
C820 C819 1.373 . S
C821 C805 1.377 . S
C821 C819 1.389 . S
C821 C822 1.524 . S
C822 C821 1.524 . S
C822 C823 1.397 . S
C822 C827 1.363 . S
C823 H794 0.950 . S
C823 C822 1.397 . S
C823 C824 1.334 . S
C824 H795 0.950 . S
C824 C823 1.334 . S
C824 C825 1.287 . S
C825 C824 1.287 . S
C825 C826 1.524 . S
C825 H828 0.999 . S
C826 H796 0.950 . S
C826 C825 1.524 . S
C826 C827 1.415 . S
C827 H797 0.950 . S
C827 C822 1.363 . S
C827 C826 1.415 . S
H828 C825 0.999 . S
H829 C810 0.913 . S
H830 C848 0.951 . S
H831 C850 0.951 . S
H832 C852 0.950 . S
H833 C853 0.950 . S
H834 C855 0.950 . S
H835 C858 0.950 . S
H836 C859 0.950 . S
H837 C861 0.950 . S
H838 C862 0.950 . S
H839 C863 0.951 . S
H840 C865 0.951 . S
H841 C867 0.950 . S
H842 C868 0.950 . S
H843 C870 0.950 . S
H844 C873 0.950 . S
H845 C874 0.950 . S
H846 C876 0.950 . S
H847 C877 0.950 . S
C848 H830 0.951 . S
C848 C849 1.366 . S
C848 C850 1.388 . S
C849 C848 1.366 . S
C849 C853 1.385 . S
C850 H831 0.951 . S
C850 C848 1.388 . S
C850 C851 1.366 . S
C851 C850 1.366 . S
C851 C852 1.414 . S
C851 C854 1.499 . S
C852 H832 0.950 . S
C852 C851 1.414 . S
C852 C853 1.374 . S
C853 H833 0.950 . S
C853 C849 1.385 . S
C853 C852 1.374 . S
C854 C851 1.499 . S
C854 C855 1.373 . S
C854 C856 1.389 . S
C855 H834 0.950 . S
C855 C854 1.373 . S
C855 C871 1.377 . S
C856 C854 1.389 . S
C856 C857 1.524 . S
C856 C870 1.377 . S
C857 C856 1.524 . S
C857 C858 1.397 . S
C857 C862 1.363 . S
C858 H835 0.950 . S
C858 C857 1.397 . S
C858 C859 1.334 . S
C859 H836 0.950 . S
C859 C858 1.334 . S
C859 C860 1.287 . S
C860 C859 1.287 . S
C860 C861 1.524 . S
C860 H879 0.913 . S
C861 H837 0.950 . S
C861 C860 1.524 . S
C861 C862 1.415 . S
C862 H838 0.950 . S
C862 C857 1.363 . S
C862 C861 1.415 . S
C863 H839 0.951 . S
C863 C864 1.366 . S
C863 C865 1.388 . S
C864 C863 1.366 . S
C864 C868 1.385 . S
C865 H840 0.951 . S
C865 C863 1.388 . S
C865 C866 1.366 . S
C866 C865 1.366 . S
C866 C867 1.414 . S
C866 C869 1.499 . S
C867 H841 0.950 . S
C867 C866 1.414 . S
C867 C868 1.374 . S
C868 H842 0.950 . S
C868 C864 1.385 . S
C868 C867 1.374 . S
C869 C866 1.499 . S
C869 C870 1.373 . S
C869 C871 1.389 . S
C870 H843 0.950 . S
C870 C856 1.377 . S
C870 C869 1.373 . S
C871 C855 1.377 . S
C871 C869 1.389 . S
C871 C872 1.524 . S
C872 C871 1.524 . S
C872 C873 1.397 . S
C872 C877 1.363 . S
C873 H844 0.950 . S
C873 C872 1.397 . S
C873 C874 1.334 . S
C874 H845 0.950 . S
C874 C873 1.334 . S
C874 C875 1.287 . S
C875 C874 1.287 . S
C875 C876 1.524 . S
C875 H878 0.999 . S
C876 H846 0.950 . S
C876 C875 1.524 . S
C876 C877 1.415 . S
C877 H847 0.950 . S
C877 C872 1.363 . S
C877 C876 1.415 . S
H878 C875 0.999 . S
H879 C860 0.913 . S
H880 C898 0.951 . S
H881 C900 0.951 . S
H882 C902 0.950 . S
H883 C903 0.950 . S
H884 C905 0.950 . S
H885 C908 0.950 . S
H886 C909 0.950 . S
H887 C911 0.950 . S
H888 C912 0.950 . S
H889 C913 0.951 . S
H890 C915 0.951 . S
H891 C917 0.950 . S
H892 C918 0.950 . S
H893 C920 0.950 . S
H894 C923 0.950 . S
H895 C924 0.950 . S
H896 C926 0.950 . S
H897 C927 0.950 . S
C898 H880 0.951 . S
C898 C899 1.366 . S
C898 C900 1.388 . S
C899 C898 1.366 . S
C899 C903 1.385 . S
C900 H881 0.951 . S
C900 C898 1.388 . S
C900 C901 1.366 . S
C901 C900 1.366 . S
C901 C902 1.414 . S
C901 C904 1.499 . S
C902 H882 0.950 . S
C902 C901 1.414 . S
C902 C903 1.374 . S
C903 H883 0.950 . S
C903 C899 1.385 . S
C903 C902 1.374 . S
C904 C901 1.499 . S
C904 C905 1.373 . S
C904 C906 1.389 . S
C905 H884 0.950 . S
C905 C904 1.373 . S
C905 C921 1.377 . S
C906 C904 1.389 . S
C906 C907 1.524 . S
C906 C920 1.377 . S
C907 C906 1.524 . S
C907 C908 1.397 . S
C907 C912 1.363 . S
C908 H885 0.950 . S
C908 C907 1.397 . S
C908 C909 1.334 . S
C909 H886 0.950 . S
C909 C908 1.334 . S
C909 C910 1.287 . S
C910 C909 1.287 . S
C910 C911 1.524 . S
C910 H929 0.913 . S
C911 H887 0.950 . S
C911 C910 1.524 . S
C911 C912 1.415 . S
C912 H888 0.950 . S
C912 C907 1.363 . S
C912 C911 1.415 . S
C913 H889 0.951 . S
C913 C914 1.366 . S
C913 C915 1.388 . S
C914 C913 1.366 . S
C914 C918 1.385 . S
C915 H890 0.951 . S
C915 C913 1.388 . S
C915 C916 1.366 . S
C916 C915 1.366 . S
C916 C917 1.414 . S
C916 C919 1.499 . S
C917 H891 0.950 . S
C917 C916 1.414 . S
C917 C918 1.374 . S
C918 H892 0.950 . S
C918 C914 1.385 . S
C918 C917 1.374 . S
C919 C916 1.499 . S
C919 C920 1.373 . S
C919 C921 1.389 . S
C920 H893 0.950 . S
C920 C906 1.377 . S
C920 C919 1.373 . S
C921 C905 1.377 . S
C921 C919 1.389 . S
C921 C922 1.524 . S
C922 C921 1.524 . S
C922 C923 1.397 . S
C922 C927 1.363 . S
C923 H894 0.950 . S
C923 C922 1.397 . S
C923 C924 1.334 . S
C924 H895 0.950 . S
C924 C923 1.334 . S
C924 C925 1.287 . S
C925 C924 1.287 . S
C925 C926 1.524 . S
C925 H928 0.999 . S
C926 H896 0.950 . S
C926 C925 1.524 . S
C926 C927 1.415 . S
C927 H897 0.950 . S
C927 C922 1.363 . S
C927 C926 1.415 . S
H928 C925 0.999 . S
H929 C910 0.913 . S
H930 C948 0.951 . S
H931 C950 0.951 . S
H932 C952 0.950 . S
H933 C953 0.950 . S
H934 C955 0.950 . S
H935 C958 0.950 . S
H936 C959 0.950 . S
H937 C961 0.950 . S
H938 C962 0.950 . S
H939 C963 0.951 . S
H940 C965 0.951 . S
H941 C967 0.950 . S
H942 C968 0.950 . S
H943 C970 0.950 . S
H944 C973 0.950 . S
H945 C974 0.950 . S
H946 C976 0.950 . S
H947 C977 0.950 . S
C948 H930 0.951 . S
C948 C949 1.366 . S
C948 C950 1.388 . S
C949 C948 1.366 . S
C949 C953 1.385 . S
C950 H931 0.951 . S
C950 C948 1.388 . S
C950 C951 1.366 . S
C951 C950 1.366 . S
C951 C952 1.414 . S
C951 C954 1.499 . S
C952 H932 0.950 . S
C952 C951 1.414 . S
C952 C953 1.374 . S
C953 H933 0.950 . S
C953 C949 1.385 . S
C953 C952 1.374 . S
C954 C951 1.499 . S
C954 C955 1.373 . S
C954 C956 1.389 . S
C955 H934 0.950 . S
C955 C954 1.373 . S
C955 C971 1.377 . S
C956 C954 1.389 . S
C956 C957 1.524 . S
C956 C970 1.377 . S
C957 C956 1.524 . S
C957 C958 1.397 . S
C957 C962 1.363 . S
C958 H935 0.950 . S
C958 C957 1.397 . S
C958 C959 1.334 . S
C959 H936 0.950 . S
C959 C958 1.334 . S
C959 C960 1.287 . S
C960 C959 1.287 . S
C960 C961 1.524 . S
C960 H979 0.913 . S
C961 H937 0.950 . S
C961 C960 1.524 . S
C961 C962 1.415 . S
C962 H938 0.950 . S
C962 C957 1.363 . S
C962 C961 1.415 . S
C963 H939 0.951 . S
C963 C964 1.366 . S
C963 C965 1.388 . S
C964 C963 1.366 . S
C964 C968 1.385 . S
C965 H940 0.951 . S
C965 C963 1.388 . S
C965 C966 1.366 . S
C966 C965 1.366 . S
C966 C967 1.414 . S
C966 C969 1.499 . S
C967 H941 0.950 . S
C967 C966 1.414 . S
C967 C968 1.374 . S
C968 H942 0.950 . S
C968 C964 1.385 . S
C968 C967 1.374 . S
C969 C966 1.499 . S
C969 C970 1.373 . S
C969 C971 1.389 . S
C970 H943 0.950 . S
C970 C956 1.377 . S
C970 C969 1.373 . S
C971 C955 1.377 . S
C971 C969 1.389 . S
C971 C972 1.524 . S
C972 C971 1.524 . S
C972 C973 1.397 . S
C972 C977 1.363 . S
C973 H944 0.950 . S
C973 C972 1.397 . S
C973 C974 1.334 . S
C974 H945 0.950 . S
C974 C973 1.334 . S
C974 C975 1.287 . S
C975 C974 1.287 . S
C975 C976 1.524 . S
C975 H978 0.999 . S
C976 H946 0.950 . S
C976 C975 1.524 . S
C976 C977 1.415 . S
C977 H947 0.950 . S
C977 C972 1.363 . S
C977 C976 1.415 . S
H978 C975 0.999 . S
H979 C960 0.913 . S
H980 C998 0.951 . S
H981 C1000 0.951 . S
H982 C1002 0.950 . S
H983 C1003 0.950 . S
H984 C1005 0.950 . S
H985 C1008 0.950 . S
H986 C1009 0.950 . S
H987 C1011 0.950 . S
H988 C1012 0.950 . S
H989 C1013 0.951 . S
H990 C1015 0.951 . S
H991 C1017 0.950 . S
H992 C1018 0.950 . S
H993 C1020 0.950 . S
H994 C1023 0.950 . S
H995 C1024 0.950 . S
H996 C1026 0.950 . S
H997 C1027 0.950 . S
C998 H980 0.951 . S
C998 C999 1.366 . S
C998 C1000 1.388 . S
C999 C998 1.366 . S
C999 C1003 1.385 . S
C1000 H981 0.951 . S
C1000 C998 1.388 . S
C1000 C1001 1.366 . S
C1001 C1000 1.366 . S
C1001 C1002 1.414 . S
C1001 C1004 1.499 . S
C1002 H982 0.950 . S
C1002 C1001 1.414 . S
C1002 C1003 1.374 . S
C1003 H983 0.950 . S
C1003 C999 1.385 . S
C1003 C1002 1.374 . S
C1004 C1001 1.499 . S
C1004 C1005 1.373 . S
C1004 C1006 1.389 . S
C1005 H984 0.950 . S
C1005 C1004 1.373 . S
C1005 C1021 1.377 . S
C1006 C1004 1.389 . S
C1006 C1007 1.524 . S
C1006 C1020 1.377 . S
C1007 C1006 1.524 . S
C1007 C1008 1.397 . S
C1007 C1012 1.363 . S
C1008 H985 0.950 . S
C1008 C1007 1.397 . S
C1008 C1009 1.334 . S
C1009 H986 0.950 . S
C1009 C1008 1.334 . S
C1009 C1010 1.287 . S
C1010 C1009 1.287 . S
C1010 C1011 1.524 . S
C1010 H1029 0.913 . S
C1011 H987 0.950 . S
C1011 C1010 1.524 . S
C1011 C1012 1.415 . S
C1012 H988 0.950 . S
C1012 C1007 1.363 . S
C1012 C1011 1.415 . S
C1013 H989 0.951 . S
C1013 C1014 1.366 . S
C1013 C1015 1.388 . S
C1014 C1013 1.366 . S
C1014 C1018 1.385 . S
C1015 H990 0.951 . S
C1015 C1013 1.388 . S
C1015 C1016 1.366 . S
C1016 C1015 1.366 . S
C1016 C1017 1.414 . S
C1016 C1019 1.499 . S
C1017 H991 0.950 . S
C1017 C1016 1.414 . S
C1017 C1018 1.374 . S
C1018 H992 0.950 . S
C1018 C1014 1.385 . S
C1018 C1017 1.374 . S
C1019 C1016 1.499 . S
C1019 C1020 1.373 . S
C1019 C1021 1.389 . S
C1020 H993 0.950 . S
C1020 C1006 1.377 . S
C1020 C1019 1.373 . S
C1021 C1005 1.377 . S
C1021 C1019 1.389 . S
C1021 C1022 1.524 . S
C1022 C1021 1.524 . S
C1022 C1023 1.397 . S
C1022 C1027 1.363 . S
C1023 H994 0.950 . S
C1023 C1022 1.397 . S
C1023 C1024 1.334 . S
C1024 H995 0.950 . S
C1024 C1023 1.334 . S
C1024 C1025 1.287 . S
C1025 C1024 1.287 . S
C1025 C1026 1.524 . S
C1025 H1028 0.999 . S
C1026 H996 0.950 . S
C1026 C1025 1.524 . S
C1026 C1027 1.415 . S
C1027 H997 0.950 . S
C1027 C1022 1.363 . S
C1027 C1026 1.415 . S
H1028 C1025 0.999 . S
H1029 C1010 0.913 . S
H1030 C1048 0.951 . S
H1031 C1050 0.951 . S
H1032 C1052 0.950 . S
H1033 C1053 0.950 . S
H1034 C1055 0.950 . S
H1035 C1058 0.950 . S
H1036 C1059 0.950 . S
H1037 C1061 0.950 . S
H1038 C1062 0.950 . S
H1039 C1063 0.951 . S
H1040 C1065 0.951 . S
H1041 C1067 0.950 . S
H1042 C1068 0.950 . S
H1043 C1070 0.950 . S
H1044 C1073 0.950 . S
H1045 C1074 0.950 . S
H1046 C1076 0.950 . S
H1047 C1077 0.950 . S
C1048 H1030 0.951 . S
C1048 C1049 1.366 . S
C1048 C1050 1.388 . S
C1049 C1048 1.366 . S
C1049 C1053 1.385 . S
C1050 H1031 0.951 . S
C1050 C1048 1.388 . S
C1050 C1051 1.366 . S
C1051 C1050 1.366 . S
C1051 C1052 1.414 . S
C1051 C1054 1.499 . S
C1052 H1032 0.950 . S
C1052 C1051 1.414 . S
C1052 C1053 1.374 . S
C1053 H1033 0.950 . S
C1053 C1049 1.385 . S
C1053 C1052 1.374 . S
C1054 C1051 1.499 . S
C1054 C1055 1.373 . S
C1054 C1056 1.389 . S
C1055 H1034 0.950 . S
C1055 C1054 1.373 . S
C1055 C1071 1.377 . S
C1056 C1054 1.389 . S
C1056 C1057 1.524 . S
C1056 C1070 1.377 . S
C1057 C1056 1.524 . S
C1057 C1058 1.397 . S
C1057 C1062 1.363 . S
C1058 H1035 0.950 . S
C1058 C1057 1.397 . S
C1058 C1059 1.334 . S
C1059 H1036 0.950 . S
C1059 C1058 1.334 . S
C1059 C1060 1.287 . S
C1060 C1059 1.287 . S
C1060 C1061 1.524 . S
C1060 H1079 0.913 . S
C1061 H1037 0.950 . S
C1061 C1060 1.524 . S
C1061 C1062 1.415 . S
C1062 H1038 0.950 . S
C1062 C1057 1.363 . S
C1062 C1061 1.415 . S
C1063 H1039 0.951 . S
C1063 C1064 1.366 . S
C1063 C1065 1.388 . S
C1064 C1063 1.366 . S
C1064 C1068 1.385 . S
C1065 H1040 0.951 . S
C1065 C1063 1.388 . S
C1065 C1066 1.366 . S
C1066 C1065 1.366 . S
C1066 C1067 1.414 . S
C1066 C1069 1.499 . S
C1067 H1041 0.950 . S
C1067 C1066 1.414 . S
C1067 C1068 1.374 . S
C1068 H1042 0.950 . S
C1068 C1064 1.385 . S
C1068 C1067 1.374 . S
C1069 C1066 1.499 . S
C1069 C1070 1.373 . S
C1069 C1071 1.389 . S
C1070 H1043 0.950 . S
C1070 C1056 1.377 . S
C1070 C1069 1.373 . S
C1071 C1055 1.377 . S
C1071 C1069 1.389 . S
C1071 C1072 1.524 . S
C1072 C1071 1.524 . S
C1072 C1073 1.397 . S
C1072 C1077 1.363 . S
C1073 H1044 0.950 . S
C1073 C1072 1.397 . S
C1073 C1074 1.334 . S
C1074 H1045 0.950 . S
C1074 C1073 1.334 . S
C1074 C1075 1.287 . S
C1075 C1074 1.287 . S
C1075 C1076 1.524 . S
C1075 H1078 0.999 . S
C1076 H1046 0.950 . S
C1076 C1075 1.524 . S
C1076 C1077 1.415 . S
C1077 H1047 0.950 . S
C1077 C1072 1.363 . S
C1077 C1076 1.415 . S
H1078 C1075 0.999 . S
H1079 C1060 0.913 . S
C199 C166 0.886 . S
C214 C27 0.879 . S
C249 N14 1.408 . S
C264 C46 1.533 . S
C299 N36 1.574 . S
C314 N74 1.536 . S
C349 C106 0.880 . S
C364 C87 0.886 . S
C399 C147 1.533 . S
C414 N96 1.409 . S
C449 N134 1.574 . S
C464 N156 1.535 . S
C499 N126 1.468 . S
C514 C16 1.490 . S
C549 C177 1.892 . S
C564 C57 1.900 . S
C599 N66 1.209 1_554 S
C614 N6 1.210 . S
C649 C117 1.490 . S
C664 N44 1.467 . S
C699 C136 1.900 . S
C714 C76 1.892 . S
C749 N104 1.210 . S
C764 N164 1.212 . S
C799 C10 1.493 . S
C814 C1 1.493 . S
C849 C40 1.497 . S
C864 C31 1.497 . S
C899 C61 1.495 . S
C914 C70 1.495 . S
C949 C100 1.493 . S
C964 C91 1.493 . S
C999 C121 1.497 . S
C1014 C130 1.496 . S
C1049 C151 1.495 . S
C1064 C160 1.495 . S
