# Generated by pormake.
# Topology wfa, (4)-cn, num edge types: 1
# Building blocks:
#     Node 0, Type 0, BuildingBlock: KOZSID_clean_sbu_0, # of connection points: 4
#     Node 1, Type 0, BuildingBlock: KOZSID_clean_sbu_0, # of connection points: 4
#     Node 2, Type 0, BuildingBlock: KOZSID_clean_sbu_0, # of connection points: 4
#     Node 3, Type 0, BuildingBlock: KOZSID_clean_sbu_0, # of connection points: 4
#     Node 4, Type 0, BuildingBlock: KOZSID_clean_sbu_0, # of connection points: 4
#     Node 5, Type 0, BuildingBlock: KOZSID_clean_sbu_0, # of connection points: 4
#     Node 6, Type 0, BuildingBlock: KOZSID_clean_sbu_0, # of connection points: 4
#     Node 7, Type 0, BuildingBlock: KOZSID_clean_sbu_0, # of connection points: 4
#     Node 8, Type 0, BuildingBlock: KOZSID_clean_sbu_0, # of connection points: 4
#     Node 9, Type 0, BuildingBlock: KOZSID_clean_sbu_0, # of connection points: 4
#     Node 10, Type 0, BuildingBlock: KOZSID_clean_sbu_0, # of connection points: 4
#     Node 11, Type 0, BuildingBlock: KOZSID_clean_sbu_0, # of connection points: 4
#     Node 12, Type 0, BuildingBlock: KOZSID_clean_sbu_0, # of connection points: 4
#     Node 13, Type 0, BuildingBlock: KOZSID_clean_sbu_0, # of connection points: 4
#     Node 14, Type 0, BuildingBlock: KOZSID_clean_sbu_0, # of connection points: 4
#     Node 15, Type 0, BuildingBlock: KOZSID_clean_sbu_0, # of connection points: 4
#     Edge 16, Type (0, 0), BuildingBlock: EZIPEK_clean_linker_0, # of connection points: 2
#     Edge 17, Type (0, 0), BuildingBlock: EZIPEK_clean_linker_0, # of connection points: 2
#     Edge 18, Type (0, 0), BuildingBlock: EZIPEK_clean_linker_0, # of connection points: 2
#     Edge 19, Type (0, 0), BuildingBlock: EZIPEK_clean_linker_0, # of connection points: 2
#     Edge 20, Type (0, 0), BuildingBlock: EZIPEK_clean_linker_0, # of connection points: 2
#     Edge 21, Type (0, 0), BuildingBlock: EZIPEK_clean_linker_0, # of connection points: 2
#     Edge 22, Type (0, 0), BuildingBlock: EZIPEK_clean_linker_0, # of connection points: 2
#     Edge 23, Type (0, 0), BuildingBlock: EZIPEK_clean_linker_0, # of connection points: 2
#     Edge 24, Type (0, 0), BuildingBlock: EZIPEK_clean_linker_0, # of connection points: 2
#     Edge 25, Type (0, 0), BuildingBlock: EZIPEK_clean_linker_0, # of connection points: 2
#     Edge 26, Type (0, 0), BuildingBlock: EZIPEK_clean_linker_0, # of connection points: 2
#     Edge 27, Type (0, 0), BuildingBlock: EZIPEK_clean_linker_0, # of connection points: 2
#     Edge 28, Type (0, 0), BuildingBlock: EZIPEK_clean_linker_0, # of connection points: 2
#     Edge 29, Type (0, 0), BuildingBlock: EZIPEK_clean_linker_0, # of connection points: 2
#     Edge 30, Type (0, 0), BuildingBlock: EZIPEK_clean_linker_0, # of connection points: 2
#     Edge 31, Type (0, 0), BuildingBlock: EZIPEK_clean_linker_0, # of connection points: 2
#     Edge 32, Type (0, 0), BuildingBlock: EZIPEK_clean_linker_0, # of connection points: 2
#     Edge 33, Type (0, 0), BuildingBlock: EZIPEK_clean_linker_0, # of connection points: 2
#     Edge 34, Type (0, 0), BuildingBlock: EZIPEK_clean_linker_0, # of connection points: 2
#     Edge 35, Type (0, 0), BuildingBlock: EZIPEK_clean_linker_0, # of connection points: 2
#     Edge 36, Type (0, 0), BuildingBlock: EZIPEK_clean_linker_0, # of connection points: 2
#     Edge 37, Type (0, 0), BuildingBlock: EZIPEK_clean_linker_0, # of connection points: 2
#     Edge 38, Type (0, 0), BuildingBlock: EZIPEK_clean_linker_0, # of connection points: 2
#     Edge 39, Type (0, 0), BuildingBlock: EZIPEK_clean_linker_0, # of connection points: 2
#     Edge 40, Type (0, 0), BuildingBlock: EZIPEK_clean_linker_0, # of connection points: 2
#     Edge 41, Type (0, 0), BuildingBlock: EZIPEK_clean_linker_0, # of connection points: 2
#     Edge 42, Type (0, 0), BuildingBlock: EZIPEK_clean_linker_0, # of connection points: 2
#     Edge 43, Type (0, 0), BuildingBlock: EZIPEK_clean_linker_0, # of connection points: 2
#     Edge 44, Type (0, 0), BuildingBlock: EZIPEK_clean_linker_0, # of connection points: 2
#     Edge 45, Type (0, 0), BuildingBlock: EZIPEK_clean_linker_0, # of connection points: 2
#     Edge 46, Type (0, 0), BuildingBlock: EZIPEK_clean_linker_0, # of connection points: 2
#     Edge 47, Type (0, 0), BuildingBlock: EZIPEK_clean_linker_0, # of connection points: 2
# Relax obj value: 0.134
# Max RMSD: 0.285
# Mean RMSD: 0.214
data_MOF--net-wfa--node1-KOZSID_clean_sbu_0--edge1-EZIPEK_clean_linker_0
_symmetry_space_group_name_H-M    P1
_symmetry_Int_Tables_number       1
_symmetry_cell_setting            triclinic
loop_
_symmetry_equiv_pos_as_xyz
'x, y, z'
_cell_length_a     45.644176
_cell_length_b     48.005171
_cell_length_c     19.538704
_cell_angle_alpha  88.271992
_cell_angle_beta   88.226017
_cell_angle_gamma 89.377404
loop_
_atom_site_label
_atom_site_type_symbol
_atom_site_fract_x
_atom_site_fract_y
_atom_site_fract_z
_atom_type_partial_charge
C0 C 0.51249 0.0361 0.05564 0.0
C1 C 0.50466 0.06329 0.03783 0.0
C2 C 0.53025 0.07822 0.0306 0.0
C3 C 0.55251 0.05962 0.04511 0.0
N4 N 0.54244 0.03397 0.06067 0.0
Co5 Co 0.56615 1.00291 0.1012 0.0
N6 N 0.59987 0.02682 0.12239 0.0
C7 C 0.60416 0.05267 0.09532 0.0
C8 C 0.62788 0.06533 0.12221 0.0
C9 C 0.63929 0.04619 0.16819 0.0
C10 C 0.62228 0.02243 0.16631 0.0
N11 N 0.58779 0.97136 0.14567 0.0
C12 C 0.61158 0.97105 0.18616 0.0
C13 C 0.62081 0.94381 0.20006 0.0
C14 C 0.60237 0.92669 0.16724 0.0
C15 C 0.58301 0.94423 0.13467 0.0
N16 N 0.53355 0.97841 0.0753 0.0
C17 C 0.53594 0.95077 0.06741 0.0
C18 C 0.51093 0.93926 0.0435 0.0
C19 C 0.49144 0.96106 0.03631 0.0
C20 C 0.50563 0.98463 0.05706 0.0
N21 N 0.58704 0.99625 0.01229 0.0
C22 C 0.62403 1.00288 0.89423 0.0
C23 C 0.59398 1.00958 0.89221 0.0
C24 C 0.57575 1.00553 0.95137 0.0
C25 C 0.63443 0.9908 0.95473 0.0
C26 C 0.61591 0.98792 0.01265 0.0
N27 N 0.54634 0.01216 0.18888 0.0
C28 C 0.49982 0.01211 0.25089 0.0
C29 C 0.50247 0.04077 0.26078 0.0
C30 C 0.52942 0.05301 0.24648 0.0
C31 C 0.55124 0.03818 0.21308 0.0
C32 C 0.52236 0.99797 0.21431 0.0
H33 H 0.57068 0.04973 0.20191 0.0
H34 H 0.51957 0.97635 0.20251 0.0
H35 H 0.55293 0.0115 0.94867 0.0
H36 H 0.6261 0.98092 0.05883 0.0
C37 C 0.5815 0.06648 0.05999 0.0
C38 C 0.49147 0.0122 0.06309 0.0
C39 C 0.62842 0.99579 0.20466 0.0
C40 C 0.55951 0.93604 0.09563 0.0
H41 H 0.48279 0.07164 0.03151 0.0
H42 H 0.53213 0.10043 0.0205 0.0
H43 H 0.63485 0.08664 0.11325 0.0
H44 H 0.65775 0.04967 0.20011 0.0
H45 H 0.63969 0.93697 0.22843 0.0
H46 H 0.60322 0.90416 0.16656 0.0
H47 H 0.50671 0.91744 0.03607 0.0
H48 H 0.46901 0.95965 0.02043 0.0
H49 H 0.58487 0.01863 0.846 0.0
H50 H 0.65737 0.98508 0.95851 0.0
H51 H 0.48034 1.00124 0.26901 0.0
H52 H 0.53335 0.07448 0.2591 0.0
C53 C 0.56726 0.64875 0.09549 0.0
C54 C 0.59658 0.64278 0.10648 0.0
C55 C 0.61207 0.65497 0.05288 0.0
C56 C 0.59133 0.66776 0.01311 0.0
N57 N 0.56371 0.66528 0.03906 0.0
Co58 Co 0.52694 0.68084 0.99821 0.0
N59 N 0.54919 0.69685 0.91593 0.0
C60 C 0.5783 0.69411 0.90254 0.0
C61 C 0.58805 0.70903 0.84558 0.0
C62 C 0.5639 0.72266 0.82171 0.0
C63 C 0.54057 0.71517 0.86542 0.0
N64 N 0.49042 0.69697 0.95622 0.0
C65 C 0.48713 0.71501 0.90151 0.0
C66 C 0.45796 0.72229 0.89312 0.0
C67 C 0.44235 0.70916 0.94523 0.0
C68 C 0.46275 0.69453 0.98231 0.0
N69 N 0.50476 0.66509 0.07974 0.0
C70 C 0.47569 0.66772 0.0932 0.0
C71 C 0.4662 0.65223 0.14952 0.0
C72 C 0.49057 0.63845 0.17223 0.0
C73 C 0.51371 0.64638 0.12845 0.0
N74 N 0.53238 0.71667 0.04859 0.0
C75 C 0.53938 0.76032 0.14366 0.0
C76 C 0.51169 0.75258 0.12221 0.0
C77 C 0.5087 0.73084 0.07618 0.0
C78 C 0.56363 0.74712 0.11214 0.0
C79 C 0.55969 0.72615 0.06397 0.0
N80 N 0.52103 0.64364 0.95325 0.0
C81 C 0.49004 0.60232 0.95074 0.0
C82 C 0.51419 0.58431 0.94228 0.0
C83 C 0.54142 0.59737 0.92964 0.0
C84 C 0.54431 0.62671 0.93484 0.0
C85 C 0.49385 0.63141 0.95554 0.0
H86 H 0.56591 0.63513 0.92765 0.0
H87 H 0.47441 0.64336 0.96487 0.0
H88 H 0.4868 0.72543 0.06549 0.0
H89 H 0.57914 0.71745 0.04106 0.0
C90 C 0.5966 0.68081 0.94938 0.0
C91 C 0.54341 0.63447 0.13208 0.0
C92 C 0.51103 0.72723 0.85872 0.0
C93 C 0.45738 0.68123 0.04623 0.0
H94 H 0.60551 0.62935 0.14633 0.0
H95 H 0.63546 0.65353 0.04245 0.0
H96 H 0.6104 0.71107 0.82604 0.0
H97 H 0.56381 0.7373 0.77855 0.0
H98 H 0.44909 0.73651 0.85484 0.0
H99 H 0.41909 0.7112 0.95675 0.0
H100 H 0.44391 0.64988 0.16926 0.0
H101 H 0.49094 0.62355 0.21468 0.0
H102 H 0.49215 0.76244 0.14356 0.0
H103 H 0.58564 0.75262 0.12547 0.0
H104 H 0.4682 0.59382 0.95704 0.0
H105 H 0.5608 0.58481 0.91916 0.0
C106 C 0.99632 0.50386 0.9701 0.0
C107 C 1.00431 0.4768 0.95391 0.0
C108 C 0.97877 0.46231 0.94646 0.0
C109 C 0.95634 0.48096 0.95933 0.0
N110 N 0.9663 0.50633 0.97354 0.0
Co111 Co 0.94216 0.53706 0.01258 0.0
N112 N 0.90825 0.51289 0.03597 0.0
C113 C 0.90355 0.48812 0.00789 0.0
C114 C 0.87747 0.47651 0.03047 0.0
C115 C 0.86506 0.49527 0.07497 0.0
C116 C 0.88438 0.5173 0.07745 0.0
N117 N 0.92055 0.56786 0.05779 0.0
C118 C 0.89723 0.56704 0.10277 0.0
C119 C 0.88994 0.59368 0.12384 0.0
C120 C 0.90876 0.61168 0.08919 0.0
C121 C 0.92673 0.59514 0.04956 0.0
N122 N 0.97545 0.5616 0.98394 0.0
C123 C 0.97386 0.58946 0.97575 0.0
C124 C 1.00008 0.60085 0.95299 0.0
C125 C 0.01938 0.57878 0.94788 0.0
C126 C 1.00395 0.55515 0.96857 0.0
N127 N 0.92214 0.54527 0.92381 0.0
C128 C 0.88193 0.54076 0.81589 0.0
C129 C 0.8759 0.55775 0.87147 0.0
C130 C 0.89568 0.55935 0.92459 0.0
C131 C 0.90983 0.52797 0.81248 0.0
C132 C 0.92993 0.53144 0.86527 0.0
N133 N 0.96008 0.52717 0.10023 0.0
C134 C 1.00104 0.53177 0.17347 0.0
C135 C 0.99895 0.50351 0.19296 0.0
C136 C 0.97406 0.48918 0.17529 0.0
C137 C 0.95541 0.501 0.12799 0.0
C138 C 0.98055 0.54356 0.12838 0.0
H139 H 0.93917 0.48739 0.10981 0.0
H140 H 0.98292 0.56505 0.11154 0.0
H141 H 0.88781 0.57068 0.96786 0.0
H142 H 0.95107 0.52143 0.85983 0.0
C143 C 0.9267 0.47427 0.97308 0.0
C144 C 0.01732 0.52731 0.97928 0.0
C145 C 0.87937 0.54211 0.11906 0.0
C146 C 0.95068 0.60403 0.00779 0.0
H147 H 0.02618 0.46806 0.94968 0.0
H148 H 0.97689 0.44027 0.93764 0.0
H149 H 0.86912 0.45623 0.01878 0.0
H150 H 0.8444 0.49285 0.10309 0.0
H151 H 0.87227 0.59963 0.15875 0.0
H152 H 0.90936 0.63411 0.0929 0.0
H153 H 1.00531 0.62274 0.9469 0.0
H154 H 0.04257 0.58005 0.9354 0.0
H155 H 0.85489 0.56836 0.87631 0.0
H156 H 0.91588 0.51485 0.77008 0.0
H157 H 0.01927 0.54406 0.18868 0.0
H158 H 0.97094 0.46759 0.19143 0.0
C159 C 0.97337 0.89311 0.07997 0.0
C160 C 0.94573 0.9034 0.09826 0.0
C161 C 0.92655 0.89282 0.05381 0.0
C162 C 0.94346 0.87718 0.01008 0.0
N163 N 0.97228 0.87685 0.02453 0.0
Co164 Co 1.00518 0.8618 0.96526 0.0
N165 N 0.97765 0.84925 0.89429 0.0
C166 C 0.94847 0.85407 0.89356 0.0
C167 C 0.93475 0.84033 0.84312 0.0
C168 C 0.95629 0.8251 0.81105 0.0
C169 C 0.98205 0.83045 0.84371 0.0
N170 N 0.03773 0.84616 0.90552 0.0
C171 C 0.03663 0.82792 0.85344 0.0
C172 C 0.06442 0.82037 0.82974 0.0
C173 C 0.08379 0.83346 0.8696 0.0
C174 C 0.0668 0.84827 0.91521 0.0
N175 N 0.03297 0.87317 0.03558 0.0
C176 C 0.06237 0.86996 0.03313 0.0
C177 C 0.07547 0.87785 0.09161 0.0
C178 C 0.05304 0.88735 0.13295 0.0
C179 C 0.02754 0.88515 0.09653 0.0
N180 N 1.00119 0.82477 0.01457 0.0
C181 C 0.9959 0.78039 0.11351 0.0
C182 C 0.02323 0.78783 0.08408 0.0
C183 C 0.02541 0.81006 0.03567 0.0
C184 C 0.97112 0.79389 0.08734 0.0
C185 C 0.9742 0.81528 0.037 0.0
N186 N 0.00912 0.90073 0.92078 0.0
C187 C 0.0391 0.94233 0.89716 0.0
C188 C 0.01549 0.96069 0.91244 0.0
C189 C 0.98815 0.94778 0.92231 0.0
C190 C 0.98536 0.91858 0.92108 0.0
C191 C 0.03579 0.91285 0.90466 0.0
H192 H 0.96354 0.91097 0.92324 0.0
H193 H 0.05519 0.90034 0.89845 0.0
H194 H 0.04699 0.81572 0.0178 0.0
H195 H 0.95446 0.82465 0.01884 0.0
C196 C 0.93396 0.86676 0.94854 0.0
C197 C 1.00025 0.89984 0.11488 0.0
C198 C 0.00985 0.81591 0.82772 0.0
C199 C 0.07689 0.8593 0.97544 0.0
H200 H 0.93994 0.91782 0.13799 0.0
H201 H 0.90337 0.89754 0.05089 0.0
H202 H 0.91148 0.83972 0.83419 0.0
H203 H 0.95316 0.81067 0.77048 0.0
H204 H 0.07001 0.80584 0.78999 0.0
H205 H 0.10737 0.83073 0.8689 0.0
H206 H 0.0986 0.87738 0.10229 0.0
H207 H 0.0554 0.89665 0.18224 0.0
H208 H 0.04303 0.77751 0.10121 0.0
H209 H 0.94941 0.78846 0.107 0.0
H210 H 0.06036 0.9505 0.88163 0.0
H211 H 0.96851 0.96032 0.92987 0.0
C212 C 0.01162 0.97464 0.58642 0.0
C213 C 1.00385 0.95004 0.62085 0.0
C214 C 0.0296 0.93547 0.63248 0.0
C215 C 0.0518 0.95197 0.60498 0.0
N216 N 0.04143 0.97605 0.57811 0.0
Co217 Co 0.0651 1.00455 0.52681 0.0
N218 N 0.0977 0.97833 0.50663 0.0
C219 C 0.10262 0.95439 0.54234 0.0
C220 C 0.12781 0.94106 0.52003 0.0
C221 C 0.13943 0.95788 0.46781 0.0
C222 C 0.12064 0.98062 0.46082 0.0
N223 N 0.08696 0.0334 0.47203 0.0
C224 C 0.10948 0.03079 0.42557 0.0
C225 C 0.11762 0.05675 0.39837 0.0
C226 C 0.10021 0.07613 0.43059 0.0
C227 C 0.08224 0.06106 0.47508 0.0
N228 N 0.03235 0.03066 0.54814 0.0
C229 C 0.03394 0.05867 0.54533 0.0
C230 C 1.00686 0.0712 0.55172 0.0
C231 C 0.98712 0.04988 0.5572 0.0
C232 C 1.00318 0.02511 0.55581 0.0
N233 N 0.08682 0.01401 0.61121 0.0
C234 C 0.12729 0.01068 0.72013 0.0
C235 C 0.09771 1.00284 0.73049 0.0
C236 C 0.07775 1.00532 0.67609 0.0
C237 C 0.1351 0.02238 0.65596 0.0
C238 C 0.11507 0.02357 0.60301 0.0
N239 N 0.04572 0.99375 0.44401 0.0
C240 C 0.01943 1.00398 0.34097 0.0
C241 C 0.02043 0.97567 0.3252 0.0
C242 C 0.0335 0.95674 0.37054 0.0
C243 C 0.04574 0.96609 0.42943 0.0
C244 C 0.03268 0.01269 0.40056 0.0
H245 H 0.05538 0.95071 0.46309 0.0
H246 H 0.03253 0.03461 0.41135 0.0
H247 H 0.05546 0.99869 0.68603 0.0
H248 H 0.12388 0.03053 0.55425 0.0
C249 C 0.08084 0.94341 0.5885 0.0
C250 C 0.99054 0.9966 0.56247 0.0
C251 C 0.12618 1.00484 0.41367 0.0
C252 C 0.05816 0.07156 0.51261 0.0
H253 H 0.98189 0.94304 0.63414 0.0
H254 H 0.03161 0.91453 0.654 0.0
H255 H 0.13633 0.92114 0.53812 0.0
H256 H 0.15953 0.95401 0.43865 0.0
H257 H 0.13484 0.06137 0.36057 0.0
H258 H 0.10019 0.09848 0.42135 0.0
H259 H 1.00171 0.09316 0.54498 0.0
H260 H 0.96362 0.05271 0.55863 0.0
H261 H 0.09022 0.99416 0.77969 0.0
H262 H 0.15737 0.02921 0.64529 0.0
H263 H 0.00921 0.01913 0.30692 0.0
H264 H 0.03446 0.93468 0.36017 0.0
C265 C 0.4534 0.15097 0.41851 0.0
C266 C 0.4248 0.14402 0.40466 0.0
C267 C 0.40738 0.15474 0.45574 0.0
C268 C 0.42627 0.16749 0.49782 0.0
N269 N 0.45463 0.16595 0.47613 0.0
Co270 Co 0.4893 0.17963 0.52579 0.0
N271 N 0.46402 0.19442 0.60271 0.0
C272 C 0.43497 0.19031 0.61232 0.0
C273 C 0.42285 0.20474 0.66594 0.0
C274 C 0.44536 0.2195 0.6911 0.0
C275 C 0.47012 0.21318 0.65149 0.0
N276 N 0.52356 0.19471 0.57501 0.0
C277 C 0.52434 0.21358 0.62592 0.0
C278 C 0.5529 0.22007 0.6409 0.0
C279 C 0.57074 0.20545 0.59698 0.0
C280 C 0.55216 0.19086 0.5577 0.0
N281 N 0.51478 0.16547 0.44927 0.0
C282 C 0.54433 0.16557 0.44593 0.0
C283 C 0.55596 0.15426 0.38727 0.0
C284 C 0.53233 0.14587 0.35195 0.0
C285 C 0.50756 0.1526 0.3912 0.0
N286 N 0.48573 0.21623 0.47398 0.0
C287 C 0.48064 0.26084 0.37529 0.0
C288 C 0.50807 0.25114 0.39669 0.0
C289 C 0.51012 0.22887 0.44485 0.0
C290 C 0.45584 0.24919 0.40883 0.0
C291 C 0.45888 0.2276 0.4588 0.0
N292 N 0.49315 0.14109 0.57417 0.0
C293 C 0.52453 0.10167 0.61071 0.0
C294 C 0.50364 0.08161 0.5942 0.0
C295 C 0.47582 0.09282 0.5793 0.0
C296 C 0.4709 0.12193 0.57242 0.0
C297 C 0.51927 0.13077 0.59868 0.0
H298 H 0.44894 0.12808 0.56204 0.0
H299 H 0.53701 0.14437 0.60822 0.0
H300 H 0.53169 0.22145 0.45591 0.0
H301 H 0.43917 0.21965 0.48295 0.0
C302 C 0.41884 0.17796 0.56203 0.0
C303 C 0.47884 0.14047 0.3799 0.0
C304 C 0.49865 0.22649 0.66011 0.0
C305 C 0.56035 0.17685 0.49818 0.0
H306 H 0.41743 0.13149 0.36358 0.0
H307 H 0.38395 0.15225 0.46324 0.0
H308 H 0.39992 0.20608 0.68153 0.0
H309 H 0.44344 0.23416 0.73202 0.0
H310 H 0.56 0.23457 0.67823 0.0
H311 H 0.59438 0.20661 0.59168 0.0
H312 H 0.57889 0.1517 0.37279 0.0
H313 H 0.53317 0.13444 0.30499 0.0
H314 H 0.52798 0.25979 0.37354 0.0
H315 H 0.43409 0.25628 0.39539 0.0
H316 H 0.54554 0.09501 0.62994 0.0
H317 H 0.4579 0.07904 0.56934 0.0
C318 C 0.49582 0.54287 0.49425 0.0
C319 C 0.50289 0.56935 0.51452 0.0
C320 C 0.47694 0.58404 0.52138 0.0
C321 C 0.4553 0.56603 0.5042 0.0
N322 N 0.46611 0.54091 0.48749 0.0
Co323 Co 0.44361 0.51093 0.44546 0.0
N324 N 0.41047 0.53604 0.42122 0.0
C325 C 0.40478 0.56067 0.45037 0.0
C326 C 0.37938 0.57297 0.42781 0.0
C327 C 0.36832 0.55477 0.38238 0.0
C328 C 0.3877 0.53233 0.37937 0.0
N329 N 0.42318 0.48079 0.39886 0.0
C330 C 0.40089 0.48218 0.3541 0.0
C331 C 0.39402 0.45575 0.33292 0.0
C332 C 0.41198 0.43729 0.36711 0.0
C333 C 0.42901 0.45336 0.40677 0.0
N334 N 0.4761 0.48562 0.47408 0.0
C335 C 0.47459 0.45769 0.47966 0.0
C336 C 0.50038 0.44562 0.50083 0.0
C337 C 0.5193 0.46732 0.50803 0.0
C338 C 0.50412 0.49146 0.49047 0.0
N339 N 0.42122 0.50251 0.53279 0.0
C340 C 0.38131 0.50509 0.64648 0.0
C341 C 0.37306 0.49416 0.58476 0.0
C342 C 0.393 0.49317 0.52926 0.0
C343 C 0.41083 0.5127 0.65215 0.0
C344 C 0.43055 0.51083 0.59503 0.0
N345 N 0.46446 0.52071 0.35901 0.0
C346 C 0.50728 0.51436 0.28611 0.0
C347 C 0.50697 0.54287 0.26825 0.0
C348 C 0.48202 0.55839 0.28626 0.0
C349 C 0.46155 0.54728 0.33275 0.0
C350 C 0.48516 0.50345 0.33045 0.0
H351 H 0.44525 0.56154 0.35182 0.0
H352 H 0.48654 0.48181 0.34671 0.0
H353 H 0.38437 0.48658 0.4823 0.0
H354 H 0.45285 0.51748 0.60048 0.0
C355 C 0.4263 0.57345 0.48853 0.0
C356 C 0.51735 0.51941 0.48557 0.0
C357 C 0.38303 0.50737 0.33898 0.0
C358 C 0.45213 0.44386 0.44745 0.0
H359 H 0.5245 0.57739 0.52265 0.0
H360 H 0.47443 0.60585 0.53306 0.0
H361 H 0.37046 0.59317 0.44089 0.0
H362 H 0.34828 0.55766 0.35474 0.0
H363 H 0.37708 0.45025 0.29838 0.0
H364 H 0.41265 0.41485 0.36308 0.0
H365 H 0.50566 0.4236 0.50476 0.0
H366 H 0.54215 0.46563 0.52038 0.0
H367 H 0.35067 0.4877 0.57819 0.0
H368 H 0.41835 0.52084 0.69955 0.0
H369 H 0.52544 0.50101 0.27173 0.0
H370 H 0.48009 0.5802 0.27118 0.0
C371 C 0.0618 0.3962 0.35855 0.0
C372 C 0.09076 0.40181 0.33994 0.0
C373 C 0.10752 0.38789 0.38678 0.0
C374 C 0.08783 0.37451 0.43047 0.0
N375 N 0.05962 0.37826 0.41314 0.0
Co376 Co 0.02385 0.36322 0.46345 0.0
N377 N 0.04794 0.34642 0.53894 0.0
C378 C 0.07734 0.34817 0.54397 0.0
C379 C 0.08818 0.33342 0.5989 0.0
C380 C 0.06442 0.32108 0.63045 0.0
C381 C 0.04023 0.32909 0.593 0.0
N382 N 0.98832 0.34759 0.51425 0.0
C383 C 0.98609 0.33024 0.57073 0.0
C384 C 0.95716 0.3235 0.58662 0.0
C385 C 0.94056 0.33644 0.53784 0.0
C386 C 0.96019 0.35039 0.49511 0.0
N387 N 0.99988 0.38023 0.38899 0.0
C388 C 0.97053 0.37852 0.38346 0.0
C389 C 0.95976 0.3953 0.33185 0.0
C390 C 0.98355 0.40908 0.30413 0.0
C391 C 0.00764 0.3998 0.34031 0.0
N392 N 0.028 0.3277 0.41074 0.0
C393 C 0.03392 0.28371 0.31553 0.0
C394 C 1.00637 0.29346 0.33819 0.0
C395 C 1.00394 0.31531 0.38451 0.0
C396 C 0.05842 0.29515 0.34545 0.0
C397 C 0.05496 0.3164 0.39359 0.0
N398 N 0.01927 0.3998 0.51146 0.0
C399 C 0.98887 0.44161 0.52533 0.0
C400 C 0.01344 0.45894 0.52453 0.0
C401 C 0.04083 0.44519 0.5276 0.0
C402 C 0.04319 0.41595 0.52238 0.0
C403 C 0.99221 0.4125 0.51873 0.0
H404 H 0.06479 0.40698 0.52287 0.0
H405 H 0.97249 0.40092 0.51597 0.0
H406 H 0.98225 0.32227 0.39681 0.0
H407 H 0.07452 0.32375 0.41514 0.0
C408 C 0.0946 0.36103 0.49226 0.0
C409 C 0.03713 0.41141 0.33012 0.0
C410 C 0.01071 0.31842 0.60893 0.0
C411 C 0.95333 0.36472 0.4341 0.0
H412 H 0.09873 0.41606 0.29975 0.0
H413 H 0.13108 0.38883 0.39098 0.0
H414 H 0.11088 0.33087 0.61253 0.0
H415 H 0.06504 0.30702 0.67472 0.0
H416 H 0.94903 0.30998 0.62813 0.0
H417 H 0.91707 0.3351 0.53285 0.0
H418 H 0.93706 0.39859 0.319 0.0
H419 H 0.98291 0.42505 0.264 0.0
H420 H 0.98664 0.28499 0.31786 0.0
H421 H 0.08027 0.28802 0.33095 0.0
H422 H 0.96702 0.45063 0.52749 0.0
H423 H 0.06072 0.45712 0.53076 0.0
C424 C 0.34279 0.04449 0.05352 0.0
C425 C 0.35359 0.07105 0.06163 0.0
C426 C 0.33214 0.08942 0.04082 0.0
C427 C 0.30923 0.07314 0.02253 0.0
N428 N 0.31479 0.04577 0.03142 0.0
Co429 Co 0.28669 0.01555 0.01542 0.0
N430 N 0.26317 0.03959 0.95206 0.0
C431 C 0.26484 0.06759 0.94674 0.0
C432 C 0.24583 0.07917 0.9006 0.0
C433 C 0.23079 0.05719 0.87618 0.0
C434 C 0.2413 0.03327 0.90925 0.0
N435 N 0.25818 0.98537 1.00078 0.0
C436 C 0.23555 0.98392 0.95689 0.0
C437 C 0.21958 0.95984 0.97018 0.0
C438 C 0.23227 0.94612 0.02465 0.0
C439 C 0.25529 0.96247 0.04185 0.0
N440 N 0.3116 0.99201 0.07684 0.0
C441 C 0.30334 0.96771 0.10727 0.0
C442 C 0.32658 0.95356 0.13555 0.0
C443 C 0.35076 0.96996 0.12193 0.0
C444 C 0.34109 0.99383 0.0872 0.0
N445 N 0.26142 0.02664 0.09529 0.0
C446 C 0.22079 0.02114 0.20717 0.0
C447 C 0.25118 0.01977 0.21707 0.0
C448 C 0.27107 0.0234 0.16089 0.0
C449 C 0.21162 0.0289 0.14155 0.0
C450 C 0.23206 0.03133 0.0868 0.0
N451 N 0.31129 1.00271 0.93845 0.0
C452 C 0.34511 0.96651 0.90792 0.0
C453 C 0.35914 0.98372 0.85829 0.0
C454 C 0.34594 0.00998 0.84408 0.0
C455 C 0.32323 0.01985 0.8881 0.0
C456 C 0.3199 0.97543 0.94166 0.0
H457 H 0.31578 0.04121 0.88243 0.0
H458 H 0.30914 0.96063 0.97566 0.0
H459 H 0.2942 0.02159 0.17032 0.0
H460 H 0.22347 0.03515 0.03712 0.0
C461 C 0.28561 0.08203 0.98304 0.0
C462 C 0.35965 0.01851 0.06671 0.0
C463 C 0.22675 1.006 0.90675 0.0
C464 C 0.27646 0.95577 0.09093 0.0
H465 H 0.37511 0.0765 0.07843 0.0
H466 H 0.33383 0.11185 0.03551 0.0
H467 H 0.24308 0.101 0.8866 0.0
H468 H 0.21317 0.05877 0.84043 0.0
H469 H 0.20032 0.95327 0.9443 0.0
H470 H 0.22563 0.92644 0.04842 0.0
H471 H 0.32652 0.93268 0.15804 0.0
H472 H 0.37295 0.96432 0.13458 0.0
H473 H 0.25955 0.01471 0.26722 0.0
H474 H 0.1885 0.03139 0.13164 0.0
H475 H 0.35329 0.94575 0.92039 0.0
H476 H 0.35366 0.02319 0.80161 0.0
C477 C 0.47242 0.44747 0.94253 0.0
C478 C 0.44642 0.4626 0.94035 0.0
C479 C 0.42504 0.44422 0.92448 0.0
C480 C 0.43909 0.41897 0.91756 0.0
N481 N 0.46792 0.42016 0.92912 0.0
Co482 Co 0.49529 0.38751 0.92826 0.0
N483 N 0.46936 0.36587 0.86988 0.0
C484 C 0.44081 0.37152 0.86037 0.0
C485 C 0.42795 0.35303 0.81857 0.0
C486 C 0.44969 0.33435 0.80124 0.0
C487 C 0.47474 0.34245 0.8336 0.0
N488 N 0.52166 0.35431 0.93019 0.0
C489 C 0.52245 0.33118 0.89109 0.0
C490 C 0.54451 0.31312 0.91235 0.0
C491 C 0.55753 0.32525 0.96665 0.0
C492 C 0.54285 0.3501 0.97594 0.0
N493 N 0.52139 0.41081 0.98241 0.0
C494 C 0.5439 0.40089 0.01881 0.0
C495 C 0.55975 0.42199 0.04579 0.0
C496 C 0.54631 0.44658 0.02475 0.0
C497 C 0.52281 0.43933 0.98598 0.0
N498 N 0.47613 0.37135 0.01351 0.0
C499 C 0.47085 0.33957 0.13813 0.0
C500 C 0.47712 0.36821 0.13773 0.0
C501 C 0.4787 0.38386 0.07527 0.0
C502 C 0.46391 0.32825 0.07545 0.0
C503 C 0.46703 0.34416 0.01432 0.0
N504 N 0.51656 0.40235 0.84664 0.0
C505 C 0.56453 0.41548 0.8042 0.0
C506 C 0.55241 0.43687 0.76493 0.0
C507 C 0.52191 0.43785 0.7577 0.0
C508 C 0.50411 0.42011 0.7996 0.0
C509 C 0.54638 0.39854 0.84437 0.0
H510 H 0.48057 0.42247 0.79831 0.0
H511 H 0.55738 0.3846 0.87879 0.0
H512 H 0.48429 0.40561 0.07701 0.0
H513 H 0.46455 0.33328 0.96767 0.0
C514 C 0.4277 0.39572 0.88631 0.0
C515 C 0.50092 0.45973 0.95734 0.0
C516 C 0.50168 0.32519 0.83631 0.0
C517 C 0.55196 0.37239 0.01587 0.0
H518 H 0.44335 0.48467 0.94835 0.0
H519 H 0.40227 0.44903 0.91574 0.0
H520 H 0.40552 0.3532 0.80216 0.0
H521 H 0.4471 0.31626 0.77029 0.0
H522 H 0.55054 0.29327 0.89088 0.0
H523 H 0.57633 0.31742 0.99391 0.0
H524 H 0.57951 0.41988 0.07478 0.0
H525 H 0.55296 0.46741 0.03659 0.0
H526 H 0.48204 0.37819 0.18494 0.0
H527 H 0.45839 0.30641 0.07299 0.0
H528 H 0.58808 0.41355 0.80894 0.0
H529 H 0.51199 0.45359 0.72472 0.0
C530 C 0.16355 0.48522 0.01479 0.0
C531 C 0.15129 0.46001 0.03616 0.0
C532 C 0.17195 0.43978 0.02155 0.0
C533 C 0.19583 0.45381 0.99365 0.0
N534 N 0.19157 0.48151 0.99091 0.0
Co535 Co 0.22161 0.50935 0.96104 0.0
N536 N 0.24378 0.48191 0.90485 0.0
C537 C 0.24016 0.45409 0.90926 0.0
C538 C 0.25838 0.44006 0.86464 0.0
C539 C 0.27486 0.46024 0.83098 0.0
C540 C 0.26605 0.48562 0.85754 0.0
N541 N 0.25251 0.53681 0.93563 0.0
C542 C 0.27566 0.53538 0.89025 0.0
C543 C 0.29324 0.55863 0.89445 0.0
C544 C 0.28073 0.57491 0.94441 0.0
C545 C 0.2563 0.56075 0.96828 0.0
N546 N 0.19707 0.53637 0.01294 0.0
C547 C 0.20608 0.56122 0.03339 0.0
C548 C 0.18327 0.57711 0.05895 0.0
C549 C 0.15846 0.56132 0.05338 0.0
C550 C 0.16725 0.53631 0.02472 0.0
N551 N 0.24526 0.49932 0.04278 0.0
C552 C 0.28582 0.49969 0.14982 0.0
C553 C 0.25618 0.50696 0.16164 0.0
C554 C 0.23615 0.50605 0.10791 0.0
C555 C 0.29391 0.49005 0.08526 0.0
C556 C 0.27366 0.49022 0.03308 0.0
N557 N 0.19918 0.5211 0.88088 0.0
C558 C 0.17458 0.56054 0.82855 0.0
C559 C 0.14998 0.54417 0.81914 0.0
C560 C 0.15381 0.5151 0.82544 0.0
C561 C 0.17903 0.50387 0.85511 0.0
C562 C 0.19871 0.54875 0.86098 0.0
H563 H 0.18059 0.48162 0.8642 0.0
H564 H 0.21504 0.56297 0.87643 0.0
H565 H 0.21368 0.51211 0.11866 0.0
H566 H 0.28206 0.4844 0.98402 0.0
C567 C 0.21876 0.44214 0.95413 0.0
C568 C 0.14762 0.51209 0.01175 0.0
C569 C 0.28257 0.51173 0.84556 0.0
C570 C 0.23418 0.57086 0.01329 0.0
H571 H 0.1291 0.45656 0.05545 0.0
H572 H 0.16895 0.41745 0.02557 0.0
H573 H 0.25975 0.41779 0.85779 0.0
H574 H 0.29237 0.45649 0.79368 0.0
H575 H 0.31314 0.56322 0.86489 0.0
H576 H 0.2882 0.59499 0.96015 0.0
H577 H 0.18412 0.59848 0.07484 0.0
H578 H 0.13645 0.56829 0.06605 0.0
H579 H 0.24873 0.51405 0.21137 0.0
H580 H 0.31638 0.48379 0.07392 0.0
H581 H 0.17367 0.58291 0.81949 0.0
H582 H 0.13678 0.5011 0.812 0.0
C583 C 0.04213 0.09816 0.90115 0.0
C584 C 0.06752 0.08327 0.88506 0.0
C585 C 0.08733 0.10196 0.85788 0.0
C586 C 0.07299 0.12716 0.85785 0.0
N587 N 0.04528 0.12574 0.88351 0.0
Co588 Co 0.01749 0.15824 0.89109 0.0
N589 N 0.04153 0.18164 0.825 0.0
C590 C 0.06917 0.17598 0.80329 0.0
C591 C 0.08059 0.19578 0.7583 0.0
C592 C 0.0589 0.21542 0.75141 0.0
C593 C 0.03538 0.20643 0.79285 0.0
N594 N 0.99151 0.19153 0.90337 0.0
C595 C 0.99107 0.21671 0.86865 0.0
C596 C 0.96911 0.23375 0.89533 0.0
C597 C 0.95566 0.21888 0.94861 0.0
C598 C 0.96993 0.1935 0.95144 0.0
N599 N 0.99289 0.13318 0.95249 0.0
C600 C 0.97019 0.14164 0.99236 0.0
C601 C 0.95635 0.11985 0.02687 0.0
C602 C 0.97115 0.09613 0.00704 0.0
C603 C 0.99328 0.10464 0.96128 0.0
N604 N 0.03897 0.17241 0.97082 0.0
C605 C 0.04454 0.2042 0.09015 0.0
C606 C 0.03687 0.17589 0.09483 0.0
C607 C 0.03525 0.16018 0.03497 0.0
C608 C 0.05315 0.21489 0.02526 0.0
C609 C 0.05005 0.19897 0.96689 0.0
N610 N 0.99345 0.14562 0.8143 0.0
C611 C 0.94343 0.14567 0.77751 0.0
C612 C 0.94598 0.11776 0.76276 0.0
C613 C 0.97402 0.10565 0.75955 0.0
C614 C 0.99774 0.12015 0.78532 0.0
C615 C 0.9675 0.15935 0.80113 0.0
H616 H 0.01879 0.10991 0.78494 0.0
H617 H 0.96323 0.18053 0.8125 0.0
H618 H 0.02872 0.13871 0.04104 0.0
H619 H 0.05418 0.20968 0.9187 0.0
C620 C 0.08278 0.15099 0.8222 0.0
C621 C 0.01509 0.08512 0.92958 0.0
C622 C 0.00936 0.22378 0.80664 0.0
C623 C 0.9612 0.16978 0.99065 0.0
H624 H 0.07121 0.06108 0.89008 0.0
H625 H 0.10895 0.09741 0.83648 0.0
H626 H 0.10208 0.19588 0.73324 0.0
H627 H 0.06057 0.23465 0.72122 0.0
H628 H 0.96291 0.25439 0.87689 0.0
H629 H 0.93682 0.22536 0.97936 0.0
H630 H 0.93724 0.12094 0.06091 0.0
H631 H 0.96621 0.07497 0.02392 0.0
H632 H 0.03086 0.16627 0.14404 0.0
H633 H 0.06001 0.23637 0.01891 0.0
H634 H 0.92241 0.15635 0.77559 0.0
H635 H 0.97716 0.08457 0.74231 0.0
C636 C 0.84373 0.96726 0.5665 0.0
C637 C 0.85671 0.94117 0.57506 0.0
C638 C 0.83542 0.92374 0.60154 0.0
C639 C 0.8107 0.94004 0.60872 0.0
N640 N 0.81486 0.9667 0.58763 0.0
Co641 Co 0.78467 0.9973 0.59435 0.0
N642 N 0.76018 0.97583 0.66324 0.0
C643 C 0.76341 0.94854 0.67934 0.0
C644 C 0.74381 0.93914 0.72917 0.0
C645 C 0.72678 0.96183 0.74487 0.0
C646 C 0.73684 0.98388 0.70315 0.0
N647 N 0.75377 0.02695 0.59638 0.0
C648 C 0.7292 0.02963 0.6374 0.0
C649 C 0.71297 0.0529 0.61748 0.0
C650 C 0.7278 0.06503 0.56209 0.0
C651 C 0.75223 0.04855 0.55109 0.0
N652 N 0.81106 0.01857 0.52885 0.0
C653 C 0.80342 0.04168 0.493 0.0
C654 C 0.82666 0.0531 0.45579 0.0
C655 C 0.85047 0.03622 0.46959 0.0
C656 C 0.84057 0.01536 0.51473 0.0
N657 N 0.76224 0.98189 0.51762 0.0
C658 C 0.72301 0.9807 0.40618 0.0
C659 C 0.75385 0.97845 0.39552 0.0
C660 C 0.77304 0.98008 0.45152 0.0
C661 C 0.71303 0.98114 0.47456 0.0
C662 C 0.73252 0.9797 0.52809 0.0
N663 N 0.80518 0.01494 0.67062 0.0
C664 C 0.81545 0.05809 0.72581 0.0
C665 C 0.84391 0.04903 0.73645 0.0
C666 C 0.85023 0.02057 0.7297 0.0
C667 C 0.83008 1.00363 0.69808 0.0
C668 C 0.79673 0.04109 0.69147 0.0
H669 H 0.83577 0.98201 0.69276 0.0
H670 H 0.77651 0.05094 0.67874 0.0
H671 H 0.79641 0.98096 0.44104 0.0
H672 H 0.72276 0.97962 0.57826 0.0
C673 C 0.78637 0.93301 0.65038 0.0
C674 C 0.8597 0.99247 0.54217 0.0
C675 C 0.72065 0.01041 0.69494 0.0
C676 C 0.77571 0.05409 0.50449 0.0
H677 H 0.87941 0.93539 0.56611 0.0
H678 H 0.83835 0.9023 0.61901 0.0
H679 H 0.74213 0.91829 0.75155 0.0
H680 H 0.70829 0.96179 0.78091 0.0
H681 H 0.69264 0.06032 0.64073 0.0
H682 H 0.72182 0.08398 0.5343 0.0
H683 H 0.82666 0.07218 0.42485 0.0
H684 H 0.87267 0.0391 0.44978 0.0
H685 H 0.76318 0.97678 0.34419 0.0
H686 H 0.68986 0.98292 0.48754 0.0
H687 H 0.80902 0.07947 0.73532 0.0
H688 H 0.87144 0.01208 0.74322 0.0
C689 C 0.5459 0.94508 0.57211 0.0
C690 C 0.57143 0.95901 0.58654 0.0
C691 C 0.5922 0.93901 0.601 0.0
C692 C 0.57832 0.91397 0.59651 0.0
N693 N 0.55026 0.91701 0.57846 0.0
Co694 Co 0.52188 0.88627 0.57293 0.0
N695 N 0.54412 0.86206 0.63741 0.0
C696 C 0.57259 0.86512 0.65116 0.0
C697 C 0.58279 0.84493 0.69584 0.0
C698 C 0.55936 0.8279 0.71043 0.0
C699 C 0.53601 0.83869 0.67368 0.0
N700 N 0.49371 0.85547 0.567 0.0
C701 C 0.4897 0.83227 0.60811 0.0
C702 C 0.46754 0.81617 0.58336 0.0
C703 C 0.45794 0.82963 0.5246 0.0
C704 C 0.47459 0.8533 0.51637 0.0
N705 N 0.49991 0.91198 0.5113 0.0
C706 C 0.47976 0.90412 0.46726 0.0
C707 C 0.46647 0.92684 0.43585 0.0
C708 C 0.47899 0.95013 0.46255 0.0
C709 C 0.49925 0.94053 0.50926 0.0
N710 N 0.54348 0.86975 0.49261 0.0
C711 C 0.54977 0.83812 0.37188 0.0
C712 C 0.54566 0.86727 0.36832 0.0
C713 C 0.54368 0.88275 0.42897 0.0
C714 C 0.55438 0.82607 0.4369 0.0
C715 C 0.55075 0.84188 0.49587 0.0
N716 N 0.49836 0.90113 0.64899 0.0
C717 C 0.45027 0.91666 0.68325 0.0
C718 C 0.46072 0.92753 0.7429 0.0
C719 C 0.49056 0.92321 0.75741 0.0
C720 C 0.50935 0.91051 0.70837 0.0
C721 C 0.46893 0.90298 0.63899 0.0
H722 H 0.5325 0.90853 0.71769 0.0
H723 H 0.45925 0.89514 0.59448 0.0
H724 H 0.53977 0.90493 0.424 0.0
H725 H 0.55112 0.83044 0.54386 0.0
C726 C 0.58772 0.88903 0.62822 0.0
C727 C 0.51824 0.95869 0.55005 0.0
C728 C 0.50805 0.82412 0.66734 0.0
C729 C 0.46959 0.87625 0.47039 0.0
H730 H 0.57485 0.98119 0.5883 0.0
H731 H 0.61412 0.94237 0.61821 0.0
H732 H 0.60452 0.84304 0.7163 0.0
H733 H 0.55972 0.80918 0.74271 0.0
H734 H 0.45943 0.79663 0.60505 0.0
H735 H 0.4402 0.82335 0.49316 0.0
H736 H 0.44844 0.92663 0.40119 0.0
H737 H 0.47341 0.97164 0.45039 0.0
H738 H 0.54266 0.87788 0.3193 0.0
H739 H 0.55829 0.80383 0.44271 0.0
H740 H 0.42748 0.91905 0.66986 0.0
H741 H 0.49932 0.93017 0.80476 0.0
C742 C 0.6625 0.56269 0.48367 0.0
C743 C 0.64896 0.58833 0.47247 0.0
C744 C 0.66898 0.60818 0.48795 0.0
C745 C 0.69368 0.59361 0.50707 0.0
N746 N 0.69054 0.56589 0.50384 0.0
Co747 Co 0.7214 0.53758 0.52532 0.0
N748 N 0.74325 0.56379 0.5817 0.0
C749 C 0.73923 0.59162 0.58122 0.0
C750 C 0.75768 0.60477 0.62377 0.0
C751 C 0.77471 0.58398 0.65205 0.0
C752 C 0.7658 0.55917 0.62492 0.0
N753 N 0.75286 0.5096 0.5436 0.0
C754 C 0.77564 0.50988 0.58698 0.0
C755 C 0.79349 0.48659 0.57847 0.0
C756 C 0.78168 0.47151 0.52757 0.0
C757 C 0.75732 0.48635 0.50765 0.0
N758 N 0.69783 0.51156 0.47245 0.0
C759 C 0.70766 0.48728 0.44758 0.0
C760 C 0.68563 0.47208 0.42085 0.0
C761 C 0.66044 0.48775 0.4298 0.0
C762 C 0.66835 0.51206 0.46101 0.0
N763 N 0.74466 0.54926 0.44147 0.0
C764 C 0.78418 0.55027 0.32687 0.0
C765 C 0.7543 0.5446 0.31949 0.0
C766 C 0.7348 0.54492 0.37703 0.0
C767 C 0.79307 0.55786 0.3914 0.0
C768 C 0.77329 0.557 0.44745 0.0
N769 N 0.69917 0.52448 0.60727 0.0
C770 C 0.6749 0.48491 0.66068 0.0
C771 C 0.65259 0.50235 0.68532 0.0
C772 C 0.65729 0.53118 0.68269 0.0
C773 C 0.68104 0.54194 0.64325 0.0
C774 C 0.69784 0.49638 0.62114 0.0
H775 H 0.68295 0.56426 0.63638 0.0
H776 H 0.7124 0.482 0.59594 0.0
H777 H 0.71209 0.54015 0.36959 0.0
H778 H 0.78213 0.56103 0.49611 0.0
C779 C 0.71685 0.60433 0.54331 0.0
C780 C 0.64784 0.53569 0.47781 0.0
C781 C 0.78229 0.5327 0.63293 0.0
C782 C 0.73582 0.47729 0.46344 0.0
H783 H 0.62659 0.59214 0.45762 0.0
H784 H 0.66518 0.63044 0.48984 0.0
H785 H 0.75874 0.62685 0.63297 0.0
H786 H 0.79252 0.5869 0.68635 0.0
H787 H 0.8132 0.48128 0.60558 0.0
H788 H 0.78954 0.45175 0.50863 0.0
H789 H 0.68724 0.45124 0.40136 0.0
H790 H 0.63875 0.48144 0.41655 0.0
H791 H 0.74627 0.53912 0.27014 0.0
H792 H 0.81579 0.56285 0.39944 0.0
H793 H 0.67269 0.46246 0.66447 0.0
H794 H 0.64137 0.54529 0.70541 0.0
C795 C 0.97808 0.59625 0.54536 0.0
C796 C 0.95183 0.58209 0.55487 0.0
C797 C 0.931 0.60145 0.57343 0.0
C798 C 0.94555 0.62619 0.57577 0.0
N799 N 0.97426 0.62378 0.55915 0.0
Co800 Co 1.00322 0.65445 0.56201 0.0
N801 N 0.97723 0.6772 0.62296 0.0
C802 C 0.94827 0.67332 0.63343 0.0
C803 C 0.93546 0.69223 0.67664 0.0
C804 C 0.95767 0.7094 0.69394 0.0
C805 C 0.98293 0.69998 0.66021 0.0
N806 N 0.03195 0.68534 0.5639 0.0
C807 C 0.03301 0.7079 0.60468 0.0
C808 C 0.05664 0.72458 0.58518 0.0
C809 C 0.07034 0.71235 0.52987 0.0
C810 C 0.05452 0.68883 0.51852 0.0
N811 N 0.0291 0.63091 0.5029 0.0
C812 C 0.05215 0.64031 0.46478 0.0
C813 C 0.06605 0.61946 0.42902 0.0
C814 C 0.05072 0.59551 0.4458 0.0
C815 C 0.02826 0.60298 0.49117 0.0
N816 N 0.98675 0.67304 0.47923 0.0
C817 C 0.98325 0.7046 0.35516 0.0
C818 C 0.9865 0.67545 0.35521 0.0
C819 C 0.98722 0.66001 0.41769 0.0
C820 C 0.97848 0.717 0.41861 0.0
C821 C 0.98068 0.70107 0.47953 0.0
N822 N 0.02101 0.63661 0.64216 0.0
C823 C 0.06544 0.61984 0.69229 0.0
C824 C 0.04952 0.6053 0.74343 0.0
C825 C 0.01886 0.60804 0.74596 0.0
C826 C 1.00493 0.62393 0.69437 0.0
C827 C 0.05092 0.63526 0.64262 0.0
H828 H 0.98129 0.62518 0.69526 0.0
H829 H 0.06417 0.64498 0.60257 0.0
H830 H 0.99036 0.63773 0.4158 0.0
H831 H 0.97968 0.7121 0.52652 0.0
C832 C 0.93474 0.64989 0.60835 0.0
C833 C 1.00575 0.58333 0.51977 0.0
C834 C 0.01072 0.7154 0.65806 0.0
C835 C 0.06235 0.66759 0.47284 0.0
H836 H 0.94803 0.56008 0.54958 0.0
H837 H 0.90827 0.59772 0.58761 0.0
H838 H 0.91278 0.6932 0.69432 0.0
H839 H 0.95535 0.72729 0.72614 0.0
H840 H 0.06297 0.74383 0.6078 0.0
H841 H 0.08993 0.71946 0.50232 0.0
H842 H 0.08565 0.62119 0.39664 0.0
H843 H 0.0555 0.57491 0.42706 0.0
H844 H 0.98966 0.66479 0.30744 0.0
H845 H 0.97529 0.73934 0.42128 0.0
H846 H 0.08915 0.61822 0.68882 0.0
H847 H 1.00588 0.59717 0.78544 0.0
C848 C 0.46642 0.10877 0.28201 0.0
C849 C 0.47711 0.11225 0.34882 0.0
C850 C 0.48206 0.06165 0.36218 0.0
C851 C 0.47951 0.05885 0.292 0.0
N852 N 0.46441 0.0782 0.18447 0.0
N853 N 0.50366 0.09094 0.44137 0.0
C854 C 0.46924 0.08193 0.25203 0.0
C855 C 0.48653 0.08843 0.38679 0.0
N856 N 0.45507 0.13111 0.24664 0.0
N857 N 0.48362 0.03858 0.40422 0.0
H858 H 0.50857 0.10957 0.46351 0.0
H859 H 0.51614 0.07411 0.45773 0.0
H860 H 0.48143 0.01856 0.38575 0.0
H861 H 0.48395 0.03998 0.45734 0.0
H862 H 0.44512 0.12963 0.1997 0.0
H863 H 0.45436 0.15108 0.26634 0.0
H864 H 0.45978 0.09427 0.14943 0.0
H865 H 0.46574 0.05837 0.16399 0.0
C866 C 0.54356 0.55713 0.17412 0.0
C867 C 0.53315 0.5589 0.24261 0.0
C868 C 0.54694 0.60787 0.24447 0.0
C869 C 0.54888 0.6079 0.17217 0.0
N870 N 0.56285 0.58195 0.07252 0.0
N871 N 0.53923 0.58044 0.35016 0.0
C872 C 0.55208 0.58218 0.1383 0.0
C873 C 0.5405 0.58245 0.28038 0.0
N874 N 0.54503 0.53186 0.14409 0.0
N875 N 0.54926 0.63237 0.27753 0.0
H876 H 0.53388 0.56168 0.37555 0.0
H877 H 0.54534 0.59621 0.38203 0.0
H878 H 0.55491 0.65093 0.25144 0.0
H879 H 0.54531 0.63445 0.32986 0.0
H880 H 0.55217 0.52865 0.09393 0.0
H881 H 0.5402 0.51341 0.17088 0.0
H882 H 0.56577 0.56418 0.04396 0.0
H883 H 0.57078 0.59978 0.04728 0.0
C884 C 0.03233 0.46285 0.18129 0.0
C885 C 0.02371 0.48634 0.21966 0.0
C886 C 0.04406 0.46364 0.32086 0.0
C887 C 0.04166 0.43776 0.28826 0.0
N888 N 0.04099 0.41287 0.18351 0.0
N889 N 0.0301 0.51276 0.32064 0.0
C890 C 0.03899 0.43749 0.21656 0.0
C891 C 0.03284 0.48817 0.28774 0.0
N892 N 0.03278 0.46495 0.11159 0.0
N893 N 0.05715 0.4645 0.38236 0.0
H894 H 0.02113 0.53064 0.29798 0.0
H895 H 0.03662 0.51567 0.37035 0.0
H896 H 0.06714 0.44693 0.40404 0.0
H897 H 0.06098 0.48271 0.40799 0.0
H898 H 0.0404 0.44922 0.07987 0.0
H899 H 0.02804 0.48384 0.08645 0.0
H900 H 0.03599 0.41079 0.13229 0.0
H901 H 0.04694 0.39425 0.20865 0.0
C902 C 0.98446 0.92269 0.22546 0.0
C903 C 1.00102 0.9237 0.16289 0.0
C904 C 0.02576 0.96588 0.20005 0.0
C905 C 0.00877 0.96445 0.2617 0.0
N906 N 0.96419 0.94961 0.31822 0.0
N907 N 0.03656 0.94703 0.08856 0.0
C908 C 0.98544 0.94552 0.26914 0.0
C909 C 0.0208 0.9461 0.14883 0.0
N910 N 0.96978 0.89912 0.24624 0.0
N911 N 0.04606 0.98647 0.19016 0.0
H912 H 0.03049 0.93613 0.046 0.0
H913 H 0.05693 0.95637 0.08362 0.0
H914 H 0.05026 1.00093 0.22721 0.0
H915 H 0.05776 0.99036 0.14444 0.0
H916 H 0.95973 0.89674 0.29468 0.0
H917 H 0.97007 0.88105 0.2179 0.0
H918 H 0.94539 0.93747 0.32278 0.0
H919 H 0.96398 0.96742 0.34759 0.0
C920 C 0.38559 0.94353 0.80539 0.0
C921 C 0.38624 0.97202 0.82249 0.0
C922 C 0.43984 0.9714 0.79685 0.0
C923 C 0.43855 0.94223 0.78707 0.0
N924 N 0.41179 0.89973 0.80721 0.0
N925 N 0.41434 0.01447 0.82343 0.0
C926 C 0.41191 0.92813 0.80069 0.0
C927 C 0.41358 0.98638 0.81598 0.0
N928 N 0.35972 0.93148 0.78999 0.0
N929 N 0.46622 0.98458 0.79032 0.0
H930 H 0.39683 0.02605 0.84188 0.0
H931 H 0.43177 0.02696 0.80706 0.0
H932 H 0.48528 0.97503 0.77185 0.0
H933 H 0.46996 1.00464 0.80643 0.0
H934 H 0.35853 0.91129 0.77209 0.0
H935 H 0.34014 0.94286 0.78738 0.0
H936 H 0.39302 0.88855 0.82166 0.0
H937 H 0.43113 0.88789 0.80516 0.0
C938 C 0.60799 0.4756 0.65316 0.0
C939 C 0.62323 0.49027 0.70353 0.0
C940 C 0.58507 0.47667 0.7888 0.0
C941 C 0.57242 0.45931 0.74 0.0
N942 N 0.57169 0.44222 0.62554 0.0
N943 N 0.62724 0.50317 0.82115 0.0
C944 C 0.58358 0.45912 0.67216 0.0
C945 C 0.61166 0.49092 0.77169 0.0
N946 N 0.61659 0.47638 0.58598 0.0
N947 N 0.57191 0.47882 0.85219 0.0
H948 H 0.64708 0.51323 0.81098 0.0
H949 H 0.62176 0.50174 0.87321 0.0
H950 H 0.55344 0.46738 0.86726 0.0
H951 H 0.5778 0.49325 0.88787 0.0
H952 H 0.63392 0.48826 0.56602 0.0
H953 H 0.63392 0.48826 0.56602 0.0
H954 H 0.58049 0.44035 0.57592 0.0
H955 H 0.55331 0.42997 0.63661 0.0
C956 C 0.08592 0.59641 0.83432 0.0
C957 C 0.06626 0.58562 0.78792 0.0
C958 C 0.09987 0.54706 0.76494 0.0
C959 C 0.12027 0.55768 0.81058 0.0
N960 N 0.12512 0.58585 0.91084 0.0
N961 N 0.04948 0.54426 0.73601 0.0
C962 C 0.11104 0.58039 0.85234 0.0
C963 C 0.0713 0.55864 0.76366 0.0
N964 N 0.08092 0.62223 0.85981 0.0
N965 N 0.10782 0.52695 0.72006 0.0
H966 H 0.02782 0.55142 0.7347 0.0
H967 H 0.02782 0.55142 0.7347 0.0
H968 H 0.12964 0.52175 0.70879 0.0
H969 H 0.09281 0.51731 0.68992 0.0
H970 H 0.09627 0.6326 0.88784 0.0
H971 H 0.06171 0.63349 0.85005 0.0
H972 H 0.11763 0.60059 0.94551 0.0
H973 H 0.14201 0.57327 0.92873 0.0
C974 C 0.90616 0.08785 0.81636 0.0
C975 C 0.91882 0.10142 0.75712 0.0
C976 C 0.87665 0.08833 0.69184 0.0
C977 C 0.86744 0.06966 0.74673 0.0
N978 N 0.87369 0.05191 0.86224 0.0
N979 N 0.91443 0.11723 0.6396 0.0
C980 C 0.8823 0.06951 0.80934 0.0
C981 C 0.90345 0.10258 0.69558 0.0
N982 N 0.91548 0.09405 0.87985 0.0
N983 N 0.8619 0.09143 0.63242 0.0
H984 H 0.93437 0.12768 0.63932 0.0
H985 H 0.90378 0.11846 0.59306 0.0
H986 H 0.8427 0.08116 0.6214 0.0
H987 H 0.8427 0.08116 0.6214 0.0
H988 H 0.90514 0.08691 0.92522 0.0
H989 H 0.93186 0.10852 0.88728 0.0
H990 H 0.88605 0.04842 0.90569 0.0
H991 H 0.85492 0.03974 0.86113 0.0
C992 C 0.66893 0.02824 0.84671 0.0
C993 C 0.64552 1.00962 0.83603 0.0
C994 C 0.66683 1.00078 0.72135 0.0
C995 C 0.69286 0.01473 0.73788 0.0
N996 N 0.71905 0.04171 0.81723 0.0
N997 N 0.62368 0.97606 0.76419 0.0
C998 C 0.69387 0.02874 0.8006 0.0
C999 C 0.64461 0.99562 0.77312 0.0
N1000 N 0.66703 0.0458 0.90048 0.0
N1001 N 0.66331 0.99253 0.65595 0.0
H1002 H 0.60719 0.97141 0.80067 0.0
H1003 H 0.62424 0.96275 0.72314 0.0
H1004 H 0.67876 0.99688 0.61686 0.0
H1005 H 0.64379 0.98453 0.63904 0.0
H1006 H 0.68203 0.06153 0.90782 0.0
H1007 H 0.6488 0.04643 0.93402 0.0
H1008 H 0.72256 0.04936 0.86557 0.0
H1009 H 0.73714 0.04348 0.78346 0.0
C1010 C 0.49616 0.80181 0.78432 0.0
C1011 C 0.50259 0.79836 0.71334 0.0
C1012 C 0.5073 0.74757 0.73653 0.0
C1013 C 0.50557 0.75162 0.80839 0.0
N1014 N 0.50081 0.78354 0.90102 0.0
N1015 N 0.51875 0.7678 0.62363 0.0
C1016 C 0.50036 0.77901 0.83235 0.0
C1017 C 0.50906 0.77112 0.68976 0.0
N1018 N 0.48604 0.82707 0.80581 0.0
N1019 N 0.50725 0.72111 0.71283 0.0
H1020 H 0.52081 0.78435 0.58808 0.0
H1021 H 0.52702 0.749 0.6056 0.0
H1022 H 0.50608 0.70353 0.74553 0.0
H1023 H 0.50562 0.71674 0.66119 0.0
H1024 H 0.47831 0.83049 0.85558 0.0
H1025 H 0.48281 0.84402 0.77203 0.0
H1026 H 0.50051 0.80332 0.92148 0.0
H1027 H 0.50377 0.76756 0.93758 0.0
C1028 C 0.831 0.52339 0.79048 0.0
C1029 C 0.85791 0.5354 0.76575 0.0
C1030 C 0.83704 0.54013 0.6502 0.0
C1031 C 0.80919 0.53126 0.67728 0.0
N1032 N 0.77904 0.51624 0.77422 0.0
N1033 N 0.88796 0.5515 0.66942 0.0
C1034 C 0.80612 0.52323 0.74762 0.0
C1035 C 0.86134 0.5426 0.69469 0.0
N1036 N 0.82974 0.51064 0.85405 0.0
N1037 N 0.83973 0.54768 0.58229 0.0
H1038 H 0.90491 0.5572 0.70047 0.0
H1039 H 0.89393 0.55201 0.61766 0.0
H1040 H 0.82321 0.54447 0.54795 0.0
H1041 H 0.85785 0.55758 0.55952 0.0
H1042 H 0.81194 0.49904 0.87279 0.0
H1043 H 0.84775 0.50906 0.88559 0.0
H1044 H 0.77431 0.51375 0.8265 0.0
H1045 H 0.76066 0.51469 0.74416 0.0
C1046 C 0.01429 0.76306 0.81403 0.0
C1047 C 0.01118 0.79018 0.78332 0.0
C1048 C 0.00796 0.76862 0.67018 0.0
C1049 C 0.01305 0.74162 0.7002 0.0
N1050 N 0.02539 0.71376 0.79971 0.0
N1051 N 0.01052 0.81893 0.68037 0.0
C1052 C 0.01752 0.73911 0.77192 0.0
C1053 C 0.00968 0.79294 0.7108 0.0
N1054 N 0.01317 0.76008 0.88384 0.0
N1055 N 1.00021 0.77103 0.60328 0.0
H1056 H 0.01137 0.83709 0.70825 0.0
H1057 H 0.01282 0.82243 0.62763 0.0
H1058 H 0.99896 0.754 0.57173 0.0
H1059 H 0.99282 0.78958 0.58047 0.0
H1060 H 0.01202 0.74089 0.90997 0.0
H1061 H 0.01109 0.77698 0.91598 0.0
H1062 H 0.03195 0.71079 0.84998 0.0
H1063 H 0.02774 0.69592 0.7707 0.0
C1064 C 0.14925 0.01915 0.83754 0.0
C1065 C 0.15084 1.00596 0.77323 0.0
C1066 C 0.20168 0.99074 0.79844 0.0
C1067 C 0.19959 1.00313 0.86353 0.0
N1068 N 0.16792 0.02159 0.95225 0.0
N1069 N 0.17609 0.97256 0.70226 0.0
C1070 C 0.17222 0.01489 0.88532 0.0
C1071 C 0.17637 0.98974 0.75673 0.0
N1072 N 0.12668 0.03711 0.85186 0.0
N1073 N 0.2281 0.98047 0.77546 0.0
H1074 H 0.15772 0.97041 0.67245 0.0
H1075 H 0.19282 0.95832 0.6911 0.0
H1076 H 0.24668 0.97998 0.8053 0.0
H1077 H 0.23204 0.97418 0.72543 0.0
H1078 H 0.12603 0.04958 0.89458 0.0
H1079 H 0.11002 0.0415 0.81781 0.0
H1080 H 0.14767 0.02782 0.97299 0.0
H1081 H 0.18375 0.0177 0.98863 0.0
C1082 C 0.50628 0.27882 0.6771 0.0
C1083 C 0.50171 0.25158 0.70622 0.0
C1084 C 0.49773 0.2722 0.82115 0.0
C1085 C 0.50419 0.2992 0.79261 0.0
N1086 N 0.51932 0.3272 0.69394 0.0
N1087 N 0.49948 0.22196 0.80778 0.0
C1088 C 0.50992 0.30211 0.72066 0.0
C1089 C 0.49947 0.24822 0.77886 0.0
N1090 N 0.50606 0.28266 0.60753 0.0
N1091 N 0.48846 0.26951 0.88815 0.0
H1092 H 0.50062 0.20409 0.7787 0.0
H1093 H 0.501 0.21796 0.86024 0.0
H1094 H 0.48664 0.28635 0.92055 0.0
H1095 H 0.48023 0.25104 0.91003 0.0
H1096 H 0.5059 0.30219 0.58291 0.0
H1097 H 0.50377 0.26629 0.57426 0.0
H1098 H 0.52677 0.33024 0.6434 0.0
H1099 H 0.52208 0.34453 0.72401 0.0
C1100 C 0.35809 0.49328 0.76402 0.0
C1101 C 0.35818 0.50954 0.70214 0.0
C1102 C 0.30886 0.5277 0.73422 0.0
C1103 C 0.30946 0.51245 0.7976 0.0
N1104 N 0.33858 0.48727 0.88015 0.0
N1105 N 0.33655 0.54729 0.63631 0.0
C1106 C 0.33533 0.49729 0.81473 0.0
C1107 C 0.3344 0.52833 0.68979 0.0
N1108 N 0.37883 0.47292 0.77323 0.0
N1109 N 0.28358 0.54091 0.71534 0.0
H1110 H 0.35509 0.54876 0.60384 0.0
H1111 H 0.32133 0.56327 0.62823 0.0
H1112 H 0.2647 0.54131 0.74682 0.0
H1113 H 0.28062 0.5497 0.66664 0.0
H1114 H 0.37733 0.45793 0.81278 0.0
H1115 H 0.39597 0.46936 0.73795 0.0
H1116 H 0.35802 0.47836 0.89731 0.0
H1117 H 0.32293 0.49066 0.91894 0.0
C1118 C 0.00882 0.29955 0.73276 0.0
C1119 C 1.00618 0.29475 0.66173 0.0
C1120 C 0.99706 0.24509 0.6904 0.0
C1121 C 1.0041 0.24914 0.75986 0.0
N1122 N 0.02112 0.28017 0.84458 0.0
N1123 N 1.00086 0.26199 0.57201 0.0
C1124 C 0.01089 0.27644 0.78056 0.0
C1125 C 1.00086 0.26726 0.64038 0.0
N1126 N 0.00934 0.32629 0.7546 0.0
N1127 N 0.98668 0.21987 0.67218 0.0
H1128 H 1.00354 0.27751 0.53389 0.0
H1129 H 1.00056 0.24198 0.55292 0.0
H1130 H 0.98392 0.20322 0.70716 0.0
H1131 H 0.97833 0.21625 0.62429 0.0
H1132 H 0.00836 0.33128 0.80614 0.0
H1133 H 0.00806 0.34355 0.72101 0.0
H1134 H 0.02959 0.29895 0.86002 0.0
H1135 H 0.0234 0.26389 0.88062 0.0
C1136 C 0.17786 0.02058 0.38021 0.0
C1137 C 0.15245 1.00542 0.36441 0.0
C1138 C 0.1757 0.99454 0.25282 0.0
C1139 C 0.19842 0.01392 0.26366 0.0
N1140 N 0.21946 0.04746 0.33373 0.0
N1141 N 0.12618 0.97948 0.28281 0.0
C1142 C 0.19911 0.02728 0.32709 0.0
C1143 C 0.15116 0.99269 0.29995 0.0
N1144 N 0.18182 0.02816 0.44605 0.0
N1145 N 0.1782 0.97698 0.19916 0.0
H1146 H 0.12263 0.97263 0.23368 0.0
H1147 H 0.10811 0.97713 0.31645 0.0
H1148 H 0.19662 0.97655 0.16621 0.0
H1149 H 0.16367 0.96081 0.19201 0.0
H1150 H 0.20115 0.03672 0.46248 0.0
H1151 H 0.16689 0.0231 0.48581 0.0
H1152 H 0.22048 0.06025 0.37576 0.0
H1153 H 0.22048 0.06025 0.37576 0.0
C1154 C 0.49177 0.27589 0.25097 0.0
C1155 C 0.47815 0.28171 0.31558 0.0
C1156 C 0.45759 0.32503 0.26321 0.0
C1157 C 0.47407 0.32063 0.20127 0.0
N1158 N 0.51379 0.29526 0.14613 0.0
N1159 N 0.45329 0.31561 0.38598 0.0
C1160 C 0.49324 0.29707 0.19821 0.0
C1161 C 0.46253 0.3074 0.32251 0.0
N1162 N 0.50219 0.2497 0.23827 0.0
N1163 N 0.43637 0.34528 0.26504 0.0
H1164 H 0.45733 0.30389 0.43056 0.0
H1165 H 0.44436 0.33528 0.39495 0.0
H1166 H 0.4315 0.35799 0.22262 0.0
H1167 H 0.42177 0.34762 0.30657 0.0
H1168 H 0.5098 0.24382 0.18991 0.0
H1169 H 0.5001 0.23305 0.27353 0.0
H1170 H 0.52998 0.27978 0.14498 0.0
H1171 H 0.51688 0.31096 0.10858 0.0
C1172 C 0.33149 0.4912 0.31237 0.0
C1173 C 0.35715 0.50634 0.29218 0.0
C1174 C 0.33279 0.52189 0.18664 0.0
C1175 C 0.30912 0.50338 0.20202 0.0
N1176 N 0.28841 0.46715 0.27615 0.0
N1177 N 0.38342 0.53381 0.2058 0.0
C1178 C 0.30906 0.48724 0.2642 0.0
C1179 C 0.35808 0.52109 0.22808 0.0
N1180 N 0.32813 0.48117 0.37823 0.0
N1181 N 0.33068 0.54098 0.13365 0.0
H1182 H 0.40222 0.53395 0.23484 0.0
H1183 H 0.38657 0.54223 0.1564 0.0
H1184 H 0.31219 0.54288 0.10368 0.0
H1185 H 0.34583 0.55678 0.12389 0.0
H1186 H 0.3087 0.47248 0.39792 0.0
H1187 H 0.34376 0.48399 0.41502 0.0
H1188 H 0.28922 0.45267 0.31688 0.0
H1189 H 0.27189 0.46331 0.24209 0.0
C1190 C 0.05682 0.21885 0.21168 0.0
C1191 C 0.04121 0.2235 0.15028 0.0
C1192 C 0.02412 0.26878 0.19419 0.0
C1193 C 0.03683 0.26278 0.25869 0.0
N1194 N 0.06011 0.22856 0.33253 0.0
N1195 N 1.00316 0.24988 0.09345 0.0
C1196 C 0.05174 0.23677 0.26848 0.0
C1197 C 0.02283 0.24758 0.1447 0.0
N1198 N 0.07737 0.19803 0.21517 0.0
N1199 N 0.01437 0.29513 0.17841 0.0
H1200 H 1.00029 0.23429 0.0583 0.0
H1201 H 0.98741 0.26573 0.09084 0.0
H1202 H 0.01626 0.31171 0.21122 0.0
H1203 H 0.00752 0.30119 0.12973 0.0
H1204 H 0.09149 0.19545 0.25583 0.0
H1205 H 0.08224 0.185 0.17453 0.0
H1206 H 0.06842 0.20872 0.34403 0.0
H1207 H 0.05599 0.24051 0.37552 0.0
C1208 C 0.68306 0.99921 0.23627 0.0
C1209 C 0.65354 0.99215 0.25469 0.0
C1210 C 0.67263 0.96967 0.35932 0.0
C1211 C 0.70048 0.98275 0.34931 0.0
N1212 N 0.72792 0.01692 0.27985 0.0
N1213 N 0.62044 0.9752 0.34517 0.0
C1214 C 0.70466 0.99943 0.288 0.0
C1215 C 0.64838 0.97895 0.31999 0.0
N1216 N 0.69104 1.00465 0.16943 0.0
N1217 N 0.66945 0.94731 0.40359 0.0
H1218 H 0.61593 0.96731 0.39469 0.0
H1219 H 0.60211 0.98263 0.31943 0.0
H1220 H 0.68723 0.93794 0.42786 0.0
H1221 H 0.64999 0.93614 0.40888 0.0
H1222 H 0.71279 1.00799 0.1536 0.0
H1223 H 0.6765 1.00274 0.12972 0.0
H1224 H 0.73034 0.03057 0.23753 0.0
H1225 H 0.7424 0.02049 0.31869 0.0
C1226 C 0.52617 0.79728 0.31485 0.0
C1227 C 0.54658 0.81956 0.31057 0.0
C1228 C 0.55952 0.80552 0.19218 0.0
C1229 C 0.54246 0.78085 0.20111 0.0
N1230 N 0.5156 0.75051 0.28099 0.0
N1231 N 0.58658 0.84163 0.2469 0.0
C1232 C 0.52751 0.77599 0.26535 0.0
C1233 C 0.56433 0.82282 0.24956 0.0
N1234 N 0.50454 0.79688 0.36482 0.0
N1235 N 0.57024 0.81316 0.12844 0.0
H1236 H 0.59137 0.85399 0.28797 0.0
H1237 H 0.60198 0.843 0.20647 0.0
H1238 H 0.56637 0.80177 0.08509 0.0
H1239 H 0.5803 0.83224 0.11759 0.0
H1240 H 0.4876 0.78246 0.36644 0.0
H1241 H 0.50149 0.81283 0.39948 0.0
H1242 H 0.50687 0.74518 0.3295 0.0
H1243 H 0.51754 0.73372 0.24849 0.0
C1244 C 0.83027 0.52703 0.27924 0.0
C1245 C 0.80688 0.54654 0.26988 0.0
C1246 C 0.82826 0.55905 0.15577 0.0
C1247 C 0.85386 0.54307 0.17031 0.0
N1248 N 0.88054 0.51402 0.25008 0.0
N1249 N 0.78604 0.58414 0.20186 0.0
C1250 C 0.85518 0.52761 0.23323 0.0
C1251 C 0.80642 0.56327 0.20858 0.0
N1252 N 0.8282 0.50718 0.33077 0.0
N1253 N 0.82449 0.56975 0.09103 0.0
H1254 H 0.77011 0.58832 0.23964 0.0
H1255 H 0.78661 0.59885 0.16155 0.0
H1256 H 0.83982 0.56681 0.05109 0.0
H1257 H 0.80505 0.57922 0.07556 0.0
H1258 H 0.84317 0.49079 0.33619 0.0
H1259 H 0.80986 0.50531 0.36375 0.0
H1260 H 0.88393 0.50499 0.29837 0.0
H1261 H 0.89915 0.51377 0.2177 0.0
C1262 C 0.97527 0.73599 0.17173 0.0
C1263 C 0.99337 0.75993 0.17386 0.0
C1264 C 0.00887 0.74386 0.28816 0.0
C1265 C 0.98733 0.72261 0.2907 0.0
N1266 N 0.94624 0.70185 0.23713 0.0
N1267 N 0.02177 0.78974 0.24365 0.0
C1268 C 0.9695 0.71954 0.23295 0.0
C1269 C 0.00864 0.76471 0.23474 0.0
N1270 N 0.96435 0.72833 0.11089 0.0
N1271 N 0.03032 0.74372 0.33544 0.0
H1272 H 0.02072 0.80634 0.20814 0.0
H1273 H 0.03076 0.79506 0.28984 0.0
H1274 H 0.03238 0.72803 0.37314 0.0
H1275 H 0.04798 0.75733 0.33207 0.0
H1276 H 0.95336 0.70966 0.10514 0.0
H1277 H 0.96896 0.73914 0.06478 0.0
H1278 H 0.93086 0.70086 0.19899 0.0
H1279 H 0.94067 0.6902 0.28142 0.0
C1280 C 0.40905 1.00923 0.12545 0.0
C1281 C 0.39363 0.01873 0.06746 0.0
C1282 C 0.4423 0.02767 0.00842 0.0
C1283 C 0.45745 0.01486 0.06425 0.0
N1284 N 0.45149 0.98496 0.16617 0.0
N1285 N 0.39568 0.04553 0.96387 0.0
C1286 C 0.43979 1.00335 0.11998 0.0
C1287 C 0.4106 0.03044 0.01157 0.0
N1288 N 0.39492 1.00789 0.18802 0.0
N1289 N 0.45796 0.03476 0.94987 0.0
H1290 H 0.40535 0.05844 0.92597 0.0
H1291 H 0.40535 0.05844 0.92597 0.0
H1292 H 0.48013 0.02985 0.9429 0.0
H1293 H 0.44909 0.04386 0.9063 0.0
H1294 H 0.40586 1.00384 0.2334 0.0
H1295 H 0.37304 0.01404 0.19496 0.0
H1296 H 0.43875 0.97412 0.20311 0.0
H1297 H 0.47299 0.97798 0.16295 0.0
C1298 C 0.50022 0.50809 0.01436 0.0
C1299 C 0.50439 0.49195 0.95464 0.0
C1300 C 0.51503 0.536 0.88783 0.0
C1301 C 0.51078 0.55236 0.94694 0.0
N1302 N 0.49342 0.55379 0.06474 0.0
N1303 N 0.50244 0.49381 0.83165 0.0
C1304 C 0.50149 0.53828 0.00962 0.0
C1305 C 0.50812 0.50686 0.89064 0.0
N1306 N 0.49438 0.49453 0.0757 0.0
N1307 N 0.52485 0.54828 0.82759 0.0
H1308 H 0.49396 0.47387 0.83223 0.0
H1309 H 0.50211 0.50392 0.78373 0.0
H1310 H 0.52757 0.56971 0.82072 0.0
H1311 H 0.53202 0.53685 0.78561 0.0
H1312 H 0.49283 0.50421 0.12256 0.0
H1313 H 0.49186 0.47299 0.08025 0.0
H1314 H 0.48279 0.54573 0.10872 0.0
H1315 H 0.49636 0.57525 0.06599 0.0
C1316 C 0.06835 0.50936 0.93776 0.0
C1317 C 0.05097 0.52362 0.98729 0.0
C1318 C 0.09588 0.52657 0.0566 0.0
C1319 C 0.11366 0.51376 0.00546 0.0
N1320 N 0.1109 0.48107 0.91326 0.0
N1321 N 0.05313 0.55425 0.0834 0.0
C1322 C 0.09829 0.50176 0.95052 0.0
C1323 C 0.06608 0.53452 0.04379 0.0
N1324 N 0.05714 0.50499 0.87501 0.0
N1325 N 0.10638 0.52859 0.12092 0.0
H1326 H 0.03229 0.56212 0.07539 0.0
H1327 H 0.06446 0.56505 0.11962 0.0
H1328 H 0.12709 0.52105 0.13379 0.0
H1329 H 0.09332 0.53467 0.16272 0.0
H1330 H 0.06968 0.49738 0.83404 0.0
H1331 H 0.03628 0.51192 0.86166 0.0
H1332 H 0.09903 0.46885 0.88091 0.0
H1333 H 0.13247 0.47458 0.91713 0.0
C1334 C 0.99351 0.0389 0.88857 0.0
C1335 C 0.01262 0.05288 0.93202 0.0
C1336 C 0.03645 1.00705 0.95853 0.0
C1337 C 0.01743 0.9929 0.91422 0.0
N1338 N 0.98299 0.99784 0.82394 0.0
N1339 N 0.04608 0.04831 0.02383 0.0
C1340 C 0.99723 1.00963 0.87615 0.0
C1341 C 0.03217 0.03624 0.97154 0.0
N1342 N 0.97083 0.0535 0.86111 0.0
N1343 N 0.06004 0.99341 0.98512 0.0
H1344 H 0.04312 0.0693 0.03499 0.0
H1345 H 0.05795 0.03708 0.06023 0.0
H1346 H 0.06485 0.97263 0.97701 0.0
H1347 H 0.07667 1.00341 0.00982 0.0
H1348 H 0.9538 0.04465 0.83535 0.0
H1349 H 0.96754 0.0744 0.87091 0.0
H1350 H 0.96876 1.00864 0.79219 0.0
H1351 H 0.98759 0.9777 0.80781 0.0
C1352 C 0.94374 0.97482 0.51239 0.0
C1353 C 0.95701 0.99228 0.56034 0.0
C1354 C 0.90776 0.01091 0.58974 0.0
C1355 C 0.89375 0.99357 0.54353 0.0
N1356 N 0.90012 0.96218 0.45076 0.0
N1357 N 0.94865 0.01776 0.66297 0.0
C1358 C 0.9123 0.97604 0.50264 0.0
C1359 C 0.938 1.00727 0.60464 0.0
N1360 N 0.96091 0.95599 0.47861 0.0
N1361 N 0.89316 0.03309 0.61537 0.0
H1362 H 0.93518 0.0266 0.70079 0.0
H1363 H 0.97052 0.01519 0.676 0.0
H1364 H 0.87145 0.03764 0.60491 0.0
H1365 H 0.90447 0.04856 0.63909 0.0
H1366 H 0.95246 0.93921 0.4534 0.0
H1367 H 0.98368 0.95575 0.4807 0.0
H1368 H 0.91216 0.95095 0.41475 0.0
H1369 H 0.87782 0.96368 0.44076 0.0
C1370 C 0.53295 1.00991 0.52696 0.0
C1371 C 0.51321 0.99043 0.55856 0.0
C1372 C 0.48912 0.03016 0.61903 0.0
C1373 C 0.50969 0.04967 0.58907 0.0
N1374 N 0.55658 0.0546 0.52682 0.0
N1375 N 0.46842 0.98339 0.62381 0.0
C1376 C 0.53336 0.03841 0.54766 0.0
C1377 C 0.49013 1.00105 0.60152 0.0
N1378 N 0.55008 1.00166 0.47245 0.0
N1379 N 0.46976 0.03921 0.66848 0.0
H1380 H 0.4687 0.9624 0.61239 0.0
H1381 H 0.44894 0.98967 0.64792 0.0
H1382 H 0.47058 0.05916 0.68803 0.0
H1383 H 0.45455 0.02664 0.69465 0.0
H1384 H 0.56233 0.01543 0.44115 0.0
H1385 H 0.54951 0.9815 0.45398 0.0
H1386 H 0.57609 0.04625 0.50679 0.0
H1387 H 0.55719 0.07606 0.53093 0.0
C1388 C 0.59612 0.53995 0.53816 0.0
C1389 C 0.61391 0.53361 0.47882 0.0
C1390 C 0.56919 0.51591 0.42681 0.0
C1391 C 0.55108 0.52303 0.4849 0.0
N1392 N 0.55102 0.53628 0.60357 0.0
N1393 N 0.6132 0.52583 0.35805 0.0
C1394 C 0.56551 0.53353 0.54214 0.0
C1395 C 0.59915 0.52459 0.42075 0.0
N1396 N 0.60797 0.55288 0.59163 0.0
N1397 N 0.55875 0.49886 0.3791 0.0
H1398 H 0.63452 0.53327 0.3511 0.0
H1399 H 0.60257 0.52245 0.3126 0.0
H1400 H 0.53831 0.48971 0.38434 0.0
H1401 H 0.57186 0.49082 0.33959 0.0
H1402 H 0.59588 0.55771 0.63601 0.0
H1403 H 0.62913 0.5605 0.5897 0.0
H1404 H 0.52931 0.53035 0.61326 0.0
H1405 H 0.52931 0.53035 0.61326 0.0
C1406 C 0.02861 0.53659 0.55844 0.0
C1407 C 0.00906 0.55142 0.51528 0.0
C1408 C 0.99437 0.50561 0.47032 0.0
C1409 C 0.01084 0.49093 0.52149 0.0
N1410 N 0.03798 0.49401 0.62419 0.0
N1411 N 0.97456 0.54973 0.42497 0.0
C1412 C 0.02657 0.50693 0.56772 0.0
C1413 C 0.9921 0.53572 0.47007 0.0
N1414 N 0.04997 0.55062 0.58963 0.0
N1415 N 0.98263 0.49103 0.41889 0.0
H1416 H 0.97494 0.57137 0.41825 0.0
H1417 H 0.95882 0.54025 0.39639 0.0
H1418 H 0.98611 0.46974 0.41319 0.0
H1419 H 0.9721 0.50017 0.37734 0.0
H1420 H 0.06821 0.54031 0.609 0.0
H1421 H 0.05116 0.57228 0.58967 0.0
H1422 H 0.04823 0.50465 0.66178 0.0
H1423 H 0.03419 0.47318 0.63788 0.0
loop_
_geom_bond_atom_site_label_1
_geom_bond_atom_site_label_2
_geom_bond_distance
_geom_bond_site_symmetry_2
_ccdc_geom_bond_type
C0 C1 1.443 1_554 S
C0 N4 1.376 . S
C0 C38 1.413 . S
C1 C0 1.443 1_556 S
C1 C2 1.340 1_556 S
C1 H41 0.951 . S
C2 C1 1.340 1_554 S
C2 C3 1.439 . S
C2 H42 0.950 1_554 S
C3 C2 1.439 . S
C3 N4 1.374 . S
C3 C37 1.395 . S
N4 C0 1.376 . S
N4 C3 1.374 . S
N4 Co5 2.008 . S
Co5 N4 2.008 . S
Co5 N6 1.995 . S
Co5 N11 2.008 1_545 S
Co5 N16 1.995 1_545 S
Co5 N21 2.282 1_545 S
Co5 N27 2.282 . S
N6 Co5 1.995 . S
N6 C7 1.376 . S
N6 C10 1.383 . S
C7 N6 1.376 . S
C7 C8 1.446 . S
C7 C37 1.391 . S
C8 C7 1.446 . S
C8 C9 1.339 . S
C8 H43 0.949 . S
C9 C8 1.339 . S
C9 C10 1.439 . S
C9 H44 0.950 . S
C10 N6 1.383 . S
C10 C9 1.439 . S
C10 C39 1.376 1_545 S
N11 Co5 2.008 1_565 S
N11 C12 1.376 . S
N11 C15 1.374 . S
C12 N11 1.376 . S
C12 C13 1.443 . S
C12 C39 1.405 . S
C13 C12 1.443 . S
C13 C14 1.340 . S
C13 H45 0.951 . S
C14 C13 1.340 . S
C14 C15 1.439 . S
C14 H46 0.950 . S
C15 N11 1.374 . S
C15 C14 1.439 . S
C15 C40 1.395 . S
N16 Co5 1.995 1_565 S
N16 C17 1.376 . S
N16 C20 1.383 . S
C17 N16 1.376 . S
C17 C18 1.446 . S
C17 C40 1.391 . S
C18 C17 1.446 . S
C18 C19 1.339 . S
C18 H47 0.949 . S
C19 C18 1.339 . S
C19 C20 1.439 . S
C19 H48 0.950 . S
C20 N16 1.383 . S
C20 C19 1.439 . S
C20 C38 1.368 1_565 S
N21 Co5 2.282 1_565 S
N21 C24 1.332 . S
N21 C26 1.332 1_554 S
C22 C23 1.386 . S
C22 C25 1.388 . S
C23 C22 1.386 . S
C23 C24 1.382 1_556 S
C23 H49 0.950 . S
C24 N21 1.332 . S
C24 C23 1.382 1_554 S
C24 H35 0.952 . S
C25 C22 1.388 . S
C25 C26 1.382 . S
C25 H50 0.952 1_565 S
C26 N21 1.332 1_556 S
C26 C25 1.382 . S
C26 H36 0.948 1_565 S
N27 Co5 2.282 . S
N27 C31 1.332 . S
N27 C32 1.332 . S
C28 C29 1.388 . S
C28 C32 1.382 . S
C28 H51 0.952 . S
C29 C28 1.388 . S
C29 C30 1.386 . S
C30 C29 1.386 . S
C30 C31 1.382 . S
C30 H52 0.950 . S
C31 N27 1.332 . S
C31 C30 1.382 . S
C31 H33 0.952 . S
C32 N27 1.332 . S
C32 C28 1.382 . S
C32 H34 0.948 1_545 S
H33 C31 0.952 . S
H34 C32 0.948 1_565 S
H35 C24 0.952 . S
H36 C26 0.948 1_545 S
C37 C3 1.395 . S
C37 C7 1.391 . S
C38 C0 1.413 . S
C38 C20 1.368 1_545 S
C39 C10 1.376 1_565 S
C39 C12 1.405 . S
C40 C15 1.395 . S
C40 C17 1.391 . S
H41 C1 0.951 . S
H42 C2 0.950 1_556 S
H43 C8 0.949 . S
H44 C9 0.950 . S
H45 C13 0.951 . S
H46 C14 0.950 . S
H47 C18 0.949 . S
H48 C19 0.950 . S
H49 C23 0.950 . S
H50 C25 0.952 1_545 S
H51 C28 0.952 . S
H52 C30 0.950 . S
C53 C54 1.443 . S
C53 N57 1.376 . S
C53 C91 1.389 . S
C54 C53 1.443 . S
C54 C55 1.340 . S
C54 H94 0.951 . S
C55 C54 1.340 . S
C55 C56 1.439 . S
C55 H95 0.950 . S
C56 C55 1.439 . S
C56 N57 1.374 . S
C56 C90 1.395 . S
N57 C53 1.376 . S
N57 C56 1.374 . S
N57 Co58 2.008 . S
Co58 N57 2.008 . S
Co58 N59 1.995 1_554 S
Co58 N64 2.008 . S
Co58 N69 1.995 . S
Co58 N74 2.282 . S
Co58 N80 2.282 1_554 S
N59 Co58 1.995 1_556 S
N59 C60 1.376 . S
N59 C63 1.383 . S
C60 N59 1.376 . S
C60 C61 1.446 . S
C60 C90 1.391 1_556 S
C61 C60 1.446 . S
C61 C62 1.339 . S
C61 H96 0.949 . S
C62 C61 1.339 . S
C62 C63 1.439 . S
C62 H97 0.950 . S
C63 N59 1.383 . S
C63 C62 1.439 . S
C63 C92 1.392 . S
N64 Co58 2.008 . S
N64 C65 1.376 1_554 S
N64 C68 1.374 . S
C65 N64 1.376 1_556 S
C65 C66 1.443 . S
C65 C92 1.389 . S
C66 C65 1.443 . S
C66 C67 1.340 . S
C66 H98 0.951 . S
C67 C66 1.340 . S
C67 C68 1.439 1_556 S
C67 H99 0.950 . S
C68 N64 1.374 . S
C68 C67 1.439 1_554 S
C68 C93 1.395 . S
N69 Co58 1.995 . S
N69 C70 1.376 . S
N69 C73 1.383 . S
C70 N69 1.376 . S
C70 C71 1.446 . S
C70 C93 1.391 . S
C71 C70 1.446 . S
C71 C72 1.339 . S
C71 H100 0.949 . S
C72 C71 1.339 . S
C72 C73 1.439 . S
C72 H101 0.950 . S
C73 N69 1.383 . S
C73 C72 1.439 . S
C73 C91 1.392 . S
N74 Co58 2.282 . S
N74 C77 1.332 . S
N74 C79 1.332 . S
C75 C76 1.386 . S
C75 C78 1.388 . S
C76 C75 1.386 . S
C76 C77 1.382 . S
C76 H102 0.950 . S
C77 N74 1.332 . S
C77 C76 1.382 . S
C77 H88 0.952 . S
C78 C75 1.388 . S
C78 C79 1.382 . S
C78 H103 0.950 . S
C79 N74 1.332 . S
C79 C78 1.382 . S
C79 H89 0.948 . S
N80 Co58 2.282 1_556 S
N80 C84 1.332 . S
N80 C85 1.332 . S
C81 C82 1.388 . S
C81 C85 1.382 . S
C81 H104 0.950 . S
C82 C81 1.388 . S
C82 C83 1.386 . S
C83 C82 1.386 . S
C83 C84 1.382 . S
C83 H105 0.950 . S
C84 N80 1.332 . S
C84 C83 1.382 . S
C84 H86 0.952 . S
C85 N80 1.332 . S
C85 C81 1.382 . S
C85 H87 0.948 . S
H86 C84 0.952 . S
H87 C85 0.948 . S
H88 C77 0.952 . S
H89 C79 0.948 . S
C90 C56 1.395 . S
C90 C60 1.391 1_554 S
C91 C53 1.389 . S
C91 C73 1.392 . S
C92 C63 1.392 . S
C92 C65 1.389 . S
C93 C68 1.395 . S
C93 C70 1.391 . S
H94 C54 0.951 . S
H95 C55 0.950 . S
H96 C61 0.949 . S
H97 C62 0.950 . S
H98 C66 0.951 . S
H99 C67 0.950 . S
H100 C71 0.949 . S
H101 C72 0.950 . S
H102 C76 0.950 . S
H103 C78 0.950 . S
H104 C81 0.950 . S
H105 C83 0.950 . S
C106 C107 1.445 . S
C106 N110 1.375 1_556 S
C106 C144 1.389 1_655 S
C107 C106 1.445 . S
C107 C108 1.340 . S
C107 H147 0.951 1_655 S
C108 C107 1.340 . S
C108 C109 1.439 1_556 S
C108 H148 0.950 . S
C109 C108 1.439 1_554 S
C109 N110 1.374 . S
C109 C143 1.395 . S
N110 C106 1.375 1_554 S
N110 C109 1.374 . S
N110 Co111 2.008 . S
Co111 N110 2.008 . S
Co111 N112 1.995 . S
Co111 N117 2.008 . S
Co111 N122 1.995 . S
Co111 N127 2.282 1_554 S
Co111 N133 2.282 . S
N112 Co111 1.995 . S
N112 C113 1.376 . S
N112 C116 1.383 . S
C113 N112 1.376 . S
C113 C114 1.446 . S
C113 C143 1.391 . S
C114 C113 1.446 . S
C114 C115 1.339 . S
C114 H149 0.949 . S
C115 C114 1.339 . S
C115 C116 1.439 . S
C115 H150 0.950 . S
C116 N112 1.383 . S
C116 C115 1.439 . S
C116 C145 1.392 . S
N117 Co111 2.008 . S
N117 C118 1.376 . S
N117 C121 1.374 . S
C118 N117 1.376 . S
C118 C119 1.443 . S
C118 C145 1.389 . S
C119 C118 1.443 . S
C119 C120 1.340 . S
C119 H151 0.951 . S
C120 C119 1.340 . S
C120 C121 1.439 . S
C120 H152 0.950 . S
C121 N117 1.374 . S
C121 C120 1.439 . S
C121 C146 1.395 . S
N122 Co111 1.995 . S
N122 C123 1.376 . S
N122 C126 1.383 1_655 S
C123 N122 1.376 . S
C123 C124 1.446 1_655 S
C123 C146 1.391 . S
C124 C123 1.446 1_455 S
C124 C125 1.339 . S
C124 H153 0.949 . S
C125 C124 1.339 . S
C125 C126 1.439 . S
C125 H154 0.950 1_554 S
C126 N122 1.383 1_455 S
C126 C125 1.439 . S
C126 C144 1.392 1_554 S
N127 Co111 2.282 1_556 S
N127 C130 1.332 . S
N127 C132 1.332 . S
C128 C129 1.386 . S
C128 C131 1.388 . S
C129 C128 1.386 . S
C129 C130 1.382 . S
C129 H155 0.950 . S
C130 N127 1.332 . S
C130 C129 1.382 . S
C130 H141 0.952 . S
C131 C128 1.388 . S
C131 C132 1.382 . S
C131 H156 0.950 . S
C132 N127 1.332 . S
C132 C131 1.382 . S
C132 H142 0.948 . S
N133 Co111 2.282 . S
N133 C137 1.332 . S
N133 C138 1.351 . S
C134 C135 1.388 . S
C134 C138 1.368 1_455 S
C134 H157 0.950 . S
C135 C134 1.388 . S
C135 C136 1.386 1_455 S
C136 C135 1.386 1_655 S
C136 C137 1.382 . S
C136 H158 0.950 . S
C137 N133 1.332 . S
C137 C136 1.382 . S
C137 H139 0.952 . S
C138 N133 1.351 . S
C138 C134 1.368 1_655 S
C138 H140 0.943 1_655 S
H139 C137 0.952 . S
H140 C138 0.943 1_455 S
H141 C130 0.952 . S
H142 C132 0.948 . S
C143 C109 1.395 . S
C143 C113 1.391 . S
C144 C106 1.389 1_455 S
C144 C126 1.392 1_556 S
C145 C116 1.392 . S
C145 C118 1.389 . S
C146 C121 1.395 . S
C146 C123 1.391 . S
H147 C107 0.951 1_455 S
H148 C108 0.950 . S
H149 C114 0.949 . S
H150 C115 0.950 . S
H151 C119 0.951 . S
H152 C120 0.950 . S
H153 C124 0.949 . S
H154 C125 0.950 1_556 S
H155 C129 0.950 . S
H156 C131 0.950 . S
H157 C134 0.950 . S
H158 C136 0.950 . S
C159 C160 1.443 . S
C159 N163 1.376 . S
C159 C197 1.389 1_655 S
C160 C159 1.443 . S
C160 C161 1.340 . S
C160 H200 0.951 . S
C161 C160 1.340 . S
C161 C162 1.439 . S
C161 H201 0.950 . S
C162 C161 1.439 . S
C162 N163 1.374 . S
C162 C196 1.395 . S
N163 C159 1.376 . S
N163 C162 1.374 . S
N163 Co164 2.008 1_655 S
Co164 N163 2.008 1_455 S
Co164 N165 1.995 1_454 S
Co164 N170 2.008 1_554 S
Co164 N175 1.995 . S
Co164 N180 2.282 1_455 S
Co164 N186 2.282 1_554 S
N165 Co164 1.995 1_656 S
N165 C166 1.376 . S
N165 C169 1.383 . S
C166 N165 1.376 . S
C166 C167 1.446 . S
C166 C196 1.391 1_556 S
C167 C166 1.446 . S
C167 C168 1.339 . S
C167 H202 0.949 . S
C168 C167 1.339 . S
C168 C169 1.439 . S
C168 H203 0.950 . S
C169 N165 1.383 . S
C169 C168 1.439 . S
C169 C198 1.392 . S
N170 Co164 2.008 1_556 S
N170 C171 1.376 . S
N170 C174 1.374 . S
C171 N170 1.376 . S
C171 C172 1.443 . S
C171 C198 1.389 1_455 S
C172 C171 1.443 . S
C172 C173 1.340 . S
C172 H204 0.951 . S
C173 C172 1.340 . S
C173 C174 1.439 . S
C173 H205 0.950 . S
C174 N170 1.374 . S
C174 C173 1.439 . S
C174 C199 1.395 1_556 S
N175 Co164 1.995 . S
N175 C176 1.376 . S
N175 C179 1.383 . S
C176 N175 1.376 . S
C176 C177 1.446 . S
C176 C199 1.391 . S
C177 C176 1.446 . S
C177 C178 1.339 . S
C177 H206 0.949 . S
C178 C177 1.339 . S
C178 C179 1.439 . S
C178 H207 0.950 . S
C179 N175 1.383 . S
C179 C178 1.439 . S
C179 C197 1.392 . S
N180 Co164 2.282 1_655 S
N180 C183 1.332 1_655 S
N180 C185 1.332 . S
C181 C182 1.384 . S
C181 C184 1.390 1_455 S
C182 C181 1.384 . S
C182 C183 1.382 . S
C182 H208 0.950 . S
C183 N180 1.332 1_455 S
C183 C182 1.382 . S
C183 H194 0.952 . S
C184 C181 1.390 1_655 S
C184 C185 1.382 . S
C184 H209 0.950 . S
C185 N180 1.332 . S
C185 C184 1.382 . S
C185 H195 0.948 . S
N186 Co164 2.282 1_556 S
N186 C190 1.332 1_455 S
N186 C191 1.332 . S
C187 C188 1.390 . S
C187 C191 1.382 . S
C187 H210 0.950 . S
C188 C187 1.390 . S
C188 C189 1.384 1_455 S
C189 C188 1.384 1_655 S
C189 C190 1.382 . S
C189 H211 0.950 . S
C190 N186 1.332 1_655 S
C190 C189 1.382 . S
C190 H192 0.952 . S
C191 N186 1.332 . S
C191 C187 1.382 . S
C191 H193 0.948 . S
H192 C190 0.952 . S
H193 C191 0.948 . S
H194 C183 0.952 . S
H195 C185 0.948 . S
C196 C162 1.395 . S
C196 C166 1.391 1_554 S
C197 C159 1.389 1_455 S
C197 C179 1.392 . S
C198 C169 1.392 . S
C198 C171 1.389 1_655 S
C199 C174 1.395 1_554 S
C199 C176 1.391 . S
H200 C160 0.951 . S
H201 C161 0.950 . S
H202 C167 0.949 . S
H203 C168 0.950 . S
H204 C172 0.951 . S
H205 C173 0.950 . S
H206 C177 0.949 . S
H207 C178 0.950 . S
H208 C182 0.950 . S
H209 C184 0.950 . S
H210 C187 0.950 . S
H211 C189 0.950 . S
C212 C213 1.457 . S
C212 N216 1.339 1_655 S
C212 C250 1.411 . S
C213 C212 1.457 . S
C213 C214 1.340 1_655 S
C213 H253 0.951 . S
C214 C213 1.340 1_455 S
C214 C215 1.439 . S
C214 H254 0.950 . S
C215 C214 1.439 . S
C215 N216 1.374 . S
C215 C249 1.395 . S
N216 C212 1.339 1_455 S
N216 C215 1.374 . S
N216 Co217 2.008 . S
Co217 N216 2.008 . S
Co217 N218 1.995 . S
Co217 N223 2.008 1_565 S
Co217 N228 1.995 1_565 S
Co217 N233 2.282 1_565 S
Co217 N239 2.282 . S
N218 Co217 1.995 . S
N218 C219 1.376 . S
N218 C222 1.383 . S
C219 N218 1.376 . S
C219 C220 1.446 . S
C219 C249 1.391 . S
C220 C219 1.446 . S
C220 C221 1.339 . S
C220 H255 0.949 . S
C221 C220 1.339 . S
C221 C222 1.439 . S
C221 H256 0.950 . S
C222 N218 1.383 . S
C222 C221 1.439 . S
C222 C251 1.392 1_565 S
N223 Co217 2.008 1_545 S
N223 C224 1.376 . S
N223 C227 1.374 . S
C224 N223 1.376 . S
C224 C225 1.443 . S
C224 C251 1.389 . S
C225 C224 1.443 . S
C225 C226 1.340 . S
C225 H257 0.951 . S
C226 C225 1.340 . S
C226 C227 1.439 . S
C226 H258 0.950 . S
C227 N223 1.374 . S
C227 C226 1.439 . S
C227 C252 1.395 . S
N228 Co217 1.995 1_545 S
N228 C229 1.376 . S
N228 C232 1.383 1_455 S
C229 N228 1.376 . S
C229 C230 1.446 1_455 S
C229 C252 1.391 . S
C230 C229 1.446 1_655 S
C230 C231 1.339 . S
C230 H259 0.949 . S
C231 C230 1.339 . S
C231 C232 1.439 . S
C231 H260 0.950 . S
C232 N228 1.383 1_655 S
C232 C231 1.439 . S
C232 C250 1.392 1_545 S
N233 Co217 2.282 1_545 S
N233 C236 1.332 . S
N233 C238 1.330 1_545 S
C234 C235 1.386 . S
C234 C237 1.388 . S
C235 C234 1.386 . S
C235 C236 1.382 . S
C235 H261 0.950 . S
C236 N233 1.332 . S
C236 C235 1.382 . S
C236 H247 0.952 . S
C237 C234 1.388 . S
C237 C238 1.381 1_545 S
C237 H262 0.950 1_545 S
C238 N233 1.330 1_565 S
C238 C237 1.381 1_565 S
C238 H248 0.952 . S
N239 Co217 2.282 . S
N239 C243 1.332 . S
N239 C244 1.330 . S
C240 C241 1.388 . S
C240 C244 1.381 1_655 S
C240 H263 0.950 1_565 S
C241 C240 1.388 . S
C241 C242 1.386 1_655 S
C242 C241 1.386 1_455 S
C242 C243 1.382 . S
C242 H264 0.950 . S
C243 N239 1.332 . S
C243 C242 1.382 . S
C243 H245 0.952 . S
C244 N239 1.330 . S
C244 C240 1.381 1_455 S
C244 H246 0.952 1_565 S
H245 C243 0.952 . S
H246 C244 0.952 1_545 S
H247 C236 0.952 . S
H248 C238 0.952 . S
C249 C215 1.395 . S
C249 C219 1.391 . S
C250 C212 1.411 . S
C250 C232 1.392 1_565 S
C251 C222 1.392 1_545 S
C251 C224 1.389 . S
C252 C227 1.395 . S
C252 C229 1.391 . S
H253 C213 0.951 . S
H254 C214 0.950 . S
H255 C220 0.949 . S
H256 C221 0.950 . S
H257 C225 0.951 . S
H258 C226 0.950 . S
H259 C230 0.949 . S
H260 C231 0.950 . S
H261 C235 0.950 . S
H262 C237 0.950 1_565 S
H263 C240 0.950 1_545 S
H264 C242 0.950 . S
C265 C266 1.443 . S
C265 N269 1.376 . S
C265 C303 1.389 . S
C266 C265 1.443 . S
C266 C267 1.340 . S
C266 H306 0.951 . S
C267 C266 1.340 . S
C267 C268 1.439 . S
C267 H307 0.950 . S
C268 C267 1.439 . S
C268 N269 1.374 . S
C268 C302 1.395 . S
N269 C265 1.376 . S
N269 C268 1.374 . S
N269 Co270 2.008 . S
Co270 N269 2.008 . S
Co270 N271 1.995 . S
Co270 N276 2.008 . S
Co270 N281 1.995 . S
Co270 N286 2.282 . S
Co270 N292 2.282 . S
N271 Co270 1.995 . S
N271 C272 1.376 . S
N271 C275 1.383 . S
C272 N271 1.376 . S
C272 C273 1.446 . S
C272 C302 1.391 . S
C273 C272 1.446 . S
C273 C274 1.339 . S
C273 H308 0.949 . S
C274 C273 1.339 . S
C274 C275 1.439 . S
C274 H309 0.950 . S
C275 N271 1.383 . S
C275 C274 1.439 . S
C275 C304 1.392 . S
N276 Co270 2.008 . S
N276 C277 1.376 . S
N276 C280 1.374 . S
C277 N276 1.376 . S
C277 C278 1.443 . S
C277 C304 1.389 . S
C278 C277 1.443 . S
C278 C279 1.340 . S
C278 H310 0.951 . S
C279 C278 1.340 . S
C279 C280 1.439 . S
C279 H311 0.950 . S
C280 N276 1.374 . S
C280 C279 1.439 . S
C280 C305 1.395 . S
N281 Co270 1.995 . S
N281 C282 1.376 . S
N281 C285 1.383 . S
C282 N281 1.376 . S
C282 C283 1.446 . S
C282 C305 1.391 . S
C283 C282 1.446 . S
C283 C284 1.339 . S
C283 H312 0.949 . S
C284 C283 1.339 . S
C284 C285 1.439 . S
C284 H313 0.950 . S
C285 N281 1.383 . S
C285 C284 1.439 . S
C285 C303 1.392 . S
N286 Co270 2.282 . S
N286 C289 1.332 . S
N286 C291 1.332 . S
C287 C288 1.386 . S
C287 C290 1.388 . S
C288 C287 1.386 . S
C288 C289 1.382 . S
C288 H314 0.950 . S
C289 N286 1.332 . S
C289 C288 1.382 . S
C289 H300 0.952 . S
C290 C287 1.388 . S
C290 C291 1.382 . S
C290 H315 0.950 . S
C291 N286 1.332 . S
C291 C290 1.382 . S
C291 H301 0.948 . S
N292 Co270 2.282 . S
N292 C296 1.332 . S
N292 C297 1.332 . S
C293 C294 1.388 . S
C293 C297 1.382 . S
C293 H316 0.950 . S
C294 C293 1.388 . S
C294 C295 1.386 . S
C295 C294 1.386 . S
C295 C296 1.382 . S
C295 H317 0.950 . S
C296 N292 1.332 . S
C296 C295 1.382 . S
C296 H298 0.952 . S
C297 N292 1.332 . S
C297 C293 1.382 . S
C297 H299 0.948 . S
H298 C296 0.952 . S
H299 C297 0.948 . S
H300 C289 0.952 . S
H301 C291 0.948 . S
C302 C268 1.395 . S
C302 C272 1.391 . S
C303 C265 1.389 . S
C303 C285 1.392 . S
C304 C275 1.392 . S
C304 C277 1.389 . S
C305 C280 1.395 . S
C305 C282 1.391 . S
H306 C266 0.951 . S
H307 C267 0.950 . S
H308 C273 0.949 . S
H309 C274 0.950 . S
H310 C278 0.951 . S
H311 C279 0.950 . S
H312 C283 0.949 . S
H313 C284 0.950 . S
H314 C288 0.950 . S
H315 C290 0.950 . S
H316 C293 0.950 . S
H317 C295 0.950 . S
C318 C319 1.443 . S
C318 N322 1.376 . S
C318 C356 1.389 . S
C319 C318 1.443 . S
C319 C320 1.340 . S
C319 H359 0.951 . S
C320 C319 1.340 . S
C320 C321 1.439 . S
C320 H360 0.950 . S
C321 C320 1.439 . S
C321 N322 1.374 . S
C321 C355 1.395 . S
N322 C318 1.376 . S
N322 C321 1.374 . S
N322 Co323 2.008 . S
Co323 N322 2.008 . S
Co323 N324 1.995 . S
Co323 N329 2.008 . S
Co323 N334 1.995 . S
Co323 N339 2.282 . S
Co323 N345 2.282 . S
N324 Co323 1.995 . S
N324 C325 1.376 . S
N324 C328 1.383 . S
C325 N324 1.376 . S
C325 C326 1.446 . S
C325 C355 1.391 . S
C326 C325 1.446 . S
C326 C327 1.339 . S
C326 H361 0.949 . S
C327 C326 1.339 . S
C327 C328 1.439 . S
C327 H362 0.950 . S
C328 N324 1.383 . S
C328 C327 1.439 . S
C328 C357 1.392 . S
N329 Co323 2.008 . S
N329 C330 1.376 . S
N329 C333 1.374 . S
C330 N329 1.376 . S
C330 C331 1.443 . S
C330 C357 1.389 . S
C331 C330 1.443 . S
C331 C332 1.340 . S
C331 H363 0.951 . S
C332 C331 1.340 . S
C332 C333 1.439 . S
C332 H364 0.950 . S
C333 N329 1.374 . S
C333 C332 1.439 . S
C333 C358 1.395 . S
N334 Co323 1.995 . S
N334 C335 1.376 . S
N334 C338 1.383 . S
C335 N334 1.376 . S
C335 C336 1.446 . S
C335 C358 1.391 . S
C336 C335 1.446 . S
C336 C337 1.339 . S
C336 H365 0.949 . S
C337 C336 1.339 . S
C337 C338 1.439 . S
C337 H366 0.950 . S
C338 N334 1.383 . S
C338 C337 1.439 . S
C338 C356 1.392 . S
N339 Co323 2.282 . S
N339 C342 1.332 . S
N339 C344 1.332 . S
C340 C341 1.386 . S
C340 C343 1.388 . S
C341 C340 1.386 . S
C341 C342 1.382 . S
C341 H367 0.950 . S
C342 N339 1.332 . S
C342 C341 1.382 . S
C342 H353 0.952 . S
C343 C340 1.388 . S
C343 C344 1.382 . S
C343 H368 0.950 . S
C344 N339 1.332 . S
C344 C343 1.382 . S
C344 H354 0.948 . S
N345 Co323 2.282 . S
N345 C349 1.332 . S
N345 C350 1.332 . S
C346 C347 1.388 . S
C346 C350 1.382 . S
C346 H369 0.950 . S
C347 C346 1.388 . S
C347 C348 1.386 . S
C348 C347 1.386 . S
C348 C349 1.382 . S
C348 H370 0.950 . S
C349 N345 1.332 . S
C349 C348 1.382 . S
C349 H351 0.952 . S
C350 N345 1.332 . S
C350 C346 1.382 . S
C350 H352 0.948 . S
H351 C349 0.952 . S
H352 C350 0.948 . S
H353 C342 0.952 . S
H354 C344 0.948 . S
C355 C321 1.395 . S
C355 C325 1.391 . S
C356 C318 1.389 . S
C356 C338 1.392 . S
C357 C328 1.392 . S
C357 C330 1.389 . S
C358 C333 1.395 . S
C358 C335 1.391 . S
H359 C319 0.951 . S
H360 C320 0.950 . S
H361 C326 0.949 . S
H362 C327 0.950 . S
H363 C331 0.951 . S
H364 C332 0.950 . S
H365 C336 0.949 . S
H366 C337 0.950 . S
H367 C341 0.950 . S
H368 C343 0.950 . S
H369 C346 0.950 . S
H370 C348 0.950 . S
C371 C372 1.443 . S
C371 N375 1.376 . S
C371 C409 1.389 1_455 S
C372 C371 1.443 . S
C372 C373 1.340 . S
C372 H412 0.951 . S
C373 C372 1.340 . S
C373 C374 1.439 . S
C373 H413 0.950 . S
C374 C373 1.439 . S
C374 N375 1.374 . S
C374 C408 1.395 . S
N375 C371 1.376 . S
N375 C374 1.374 . S
N375 Co376 2.008 1_455 S
Co376 N375 2.008 1_655 S
Co376 N377 1.995 1_655 S
Co376 N382 2.008 . S
Co376 N387 1.995 . S
Co376 N392 2.282 1_655 S
Co376 N398 2.282 . S
N377 Co376 1.995 1_455 S
N377 C378 1.376 . S
N377 C381 1.383 . S
C378 N377 1.376 . S
C378 C379 1.446 . S
C378 C408 1.391 . S
C379 C378 1.446 . S
C379 C380 1.339 . S
C379 H414 0.949 . S
C380 C379 1.339 . S
C380 C381 1.439 . S
C380 H415 0.950 . S
C381 N377 1.383 . S
C381 C380 1.439 . S
C381 C410 1.392 . S
N382 Co376 2.008 . S
N382 C383 1.376 . S
N382 C386 1.374 . S
C383 N382 1.376 . S
C383 C384 1.443 . S
C383 C410 1.389 1_655 S
C384 C383 1.443 . S
C384 C385 1.340 . S
C384 H416 0.951 . S
C385 C384 1.340 . S
C385 C386 1.439 . S
C385 H417 0.950 . S
C386 N382 1.374 . S
C386 C385 1.439 . S
C386 C411 1.395 . S
N387 Co376 1.995 . S
N387 C388 1.376 . S
N387 C391 1.383 . S
C388 N387 1.376 . S
C388 C389 1.446 . S
C388 C411 1.391 . S
C389 C388 1.446 . S
C389 C390 1.339 . S
C389 H418 0.949 . S
C390 C389 1.339 . S
C390 C391 1.439 . S
C390 H419 0.950 . S
C391 N387 1.383 . S
C391 C390 1.439 . S
C391 C409 1.392 . S
N392 Co376 2.282 1_455 S
N392 C395 1.332 1_455 S
N392 C397 1.332 . S
C393 C394 1.395 . S
C393 C396 1.378 1_655 S
C394 C393 1.395 . S
C394 C395 1.382 . S
C394 H420 0.950 . S
C395 N392 1.332 1_655 S
C395 C394 1.382 . S
C395 H406 0.952 . S
C396 C393 1.378 1_455 S
C396 C397 1.382 . S
C396 H421 0.950 . S
C397 N392 1.332 . S
C397 C396 1.382 . S
C397 H407 0.948 . S
N398 Co376 2.282 . S
N398 C402 1.332 1_655 S
N398 C403 1.332 . S
C399 C400 1.386 1_655 S
C399 C403 1.382 . S
C399 H422 0.950 . S
C400 C399 1.386 1_455 S
C400 C401 1.388 . S
C401 C400 1.388 . S
C401 C402 1.382 . S
C401 H423 0.950 . S
C402 N398 1.332 1_455 S
C402 C401 1.382 . S
C402 H404 0.952 . S
C403 N398 1.332 . S
C403 C399 1.382 . S
C403 H405 0.948 . S
H404 C402 0.952 . S
H405 C403 0.948 . S
H406 C395 0.952 . S
H407 C397 0.948 . S
C408 C374 1.395 . S
C408 C378 1.391 . S
C409 C371 1.389 1_655 S
C409 C391 1.392 . S
C410 C381 1.392 . S
C410 C383 1.389 1_455 S
C411 C386 1.395 . S
C411 C388 1.391 . S
H412 C372 0.951 . S
H413 C373 0.950 . S
H414 C379 0.949 . S
H415 C380 0.950 . S
H416 C384 0.951 . S
H417 C385 0.950 . S
H418 C389 0.949 . S
H419 C390 0.950 . S
H420 C394 0.950 . S
H421 C396 0.950 . S
H422 C399 0.950 . S
H423 C401 0.950 . S
C424 C425 1.443 . S
C424 N428 1.376 . S
C424 C462 1.389 . S
C425 C424 1.443 . S
C425 C426 1.340 . S
C425 H465 0.951 . S
C426 C425 1.340 . S
C426 C427 1.439 1_554 S
C426 H466 0.950 . S
C427 C426 1.439 1_556 S
C427 N428 1.374 1_556 S
C427 C461 1.395 . S
N428 C424 1.376 . S
N428 C427 1.374 1_554 S
N428 Co429 2.008 1_544 S
Co429 N428 2.008 1_566 S
Co429 N430 1.995 1_565 S
Co429 N435 2.008 . S
Co429 N440 1.995 1_556 S
Co429 N445 2.282 1_566 S
Co429 N451 2.282 . S
N430 Co429 1.995 1_545 S
N430 C431 1.376 . S
N430 C434 1.383 . S
C431 N430 1.376 . S
C431 C432 1.446 . S
C431 C461 1.391 . S
C432 C431 1.446 . S
C432 C433 1.339 . S
C432 H467 0.949 . S
C433 C432 1.339 . S
C433 C434 1.439 . S
C433 H468 0.950 . S
C434 N430 1.383 . S
C434 C433 1.439 . S
C434 C463 1.392 1_545 S
N435 Co429 2.008 . S
N435 C436 1.376 . S
N435 C439 1.374 1_556 S
C436 N435 1.376 . S
C436 C437 1.443 . S
C436 C463 1.389 . S
C437 C436 1.443 . S
C437 C438 1.340 . S
C437 H469 0.951 . S
C438 C437 1.340 . S
C438 C439 1.439 1_556 S
C438 H470 0.950 . S
C439 N435 1.374 1_554 S
C439 C438 1.439 1_554 S
C439 C464 1.395 . S
N440 Co429 1.995 1_554 S
N440 C441 1.376 . S
N440 C444 1.383 . S
C441 N440 1.376 . S
C441 C442 1.446 . S
C441 C464 1.391 . S
C442 C441 1.446 . S
C442 C443 1.339 . S
C442 H471 0.949 . S
C443 C442 1.339 . S
C443 C444 1.439 . S
C443 H472 0.950 . S
C444 N440 1.383 . S
C444 C443 1.439 . S
C444 C462 1.392 1_565 S
N445 Co429 2.282 1_544 S
N445 C448 1.332 1_545 S
N445 C450 1.332 . S
C446 C447 1.386 1_545 S
C446 C449 1.388 . S
C447 C446 1.386 1_565 S
C447 C448 1.382 . S
C447 H473 0.950 . S
C448 N445 1.332 1_565 S
C448 C447 1.382 . S
C448 H459 0.952 . S
C449 C446 1.388 . S
C449 C450 1.382 . S
C449 H474 0.950 . S
C450 N445 1.332 . S
C450 C449 1.382 . S
C450 H460 0.948 . S
N451 Co429 2.282 . S
N451 C455 1.332 1_565 S
N451 C456 1.332 . S
C452 C453 1.388 . S
C452 C456 1.382 . S
C452 H475 0.950 . S
C453 C452 1.388 . S
C453 C454 1.386 1_565 S
C454 C453 1.386 1_545 S
C454 C455 1.382 . S
C454 H476 0.950 . S
C455 N451 1.332 1_545 S
C455 C454 1.382 . S
C455 H457 0.952 . S
C456 N451 1.332 . S
C456 C452 1.382 . S
C456 H458 0.948 . S
H457 C455 0.952 . S
H458 C456 0.948 . S
H459 C448 0.952 . S
H460 C450 0.948 . S
C461 C427 1.395 . S
C461 C431 1.391 . S
C462 C424 1.389 . S
C462 C444 1.392 1_545 S
C463 C434 1.392 1_565 S
C463 C436 1.389 . S
C464 C439 1.395 . S
C464 C441 1.391 . S
H465 C425 0.951 . S
H466 C426 0.950 . S
H467 C432 0.949 . S
H468 C433 0.950 . S
H469 C437 0.951 . S
H470 C438 0.950 . S
H471 C442 0.949 . S
H472 C443 0.950 . S
H473 C447 0.950 . S
H474 C449 0.950 . S
H475 C452 0.950 . S
H476 C454 0.950 . S
C477 C478 1.443 . S
C477 N481 1.376 . S
C477 C515 1.389 . S
C478 C477 1.443 . S
C478 C479 1.340 . S
C478 H518 0.951 . S
C479 C478 1.340 . S
C479 C480 1.439 . S
C479 H519 0.950 . S
C480 C479 1.439 . S
C480 N481 1.374 . S
C480 C514 1.395 . S
N481 C477 1.376 . S
N481 C480 1.374 . S
N481 Co482 2.008 . S
Co482 N481 2.008 . S
Co482 N483 1.995 . S
Co482 N488 2.008 . S
Co482 N493 1.995 . S
Co482 N498 2.282 . S
Co482 N504 2.282 . S
N483 Co482 1.995 . S
N483 C484 1.376 . S
N483 C487 1.383 . S
C484 N483 1.376 . S
C484 C485 1.446 . S
C484 C514 1.391 . S
C485 C484 1.446 . S
C485 C486 1.339 . S
C485 H520 0.949 . S
C486 C485 1.339 . S
C486 C487 1.439 . S
C486 H521 0.950 . S
C487 N483 1.383 . S
C487 C486 1.439 . S
C487 C516 1.392 . S
N488 Co482 2.008 . S
N488 C489 1.376 . S
N488 C492 1.374 . S
C489 N488 1.376 . S
C489 C490 1.443 . S
C489 C516 1.389 . S
C490 C489 1.443 . S
C490 C491 1.340 . S
C490 H522 0.951 . S
C491 C490 1.340 . S
C491 C492 1.439 . S
C491 H523 0.950 . S
C492 N488 1.374 . S
C492 C491 1.439 . S
C492 C517 1.395 . S
N493 Co482 1.995 . S
N493 C494 1.376 . S
N493 C497 1.383 . S
C494 N493 1.376 . S
C494 C495 1.446 . S
C494 C517 1.391 . S
C495 C494 1.446 . S
C495 C496 1.339 . S
C495 H524 0.949 . S
C496 C495 1.339 . S
C496 C497 1.439 . S
C496 H525 0.946 1_556 S
C497 N493 1.383 . S
C497 C496 1.439 . S
C497 C515 1.392 . S
N498 Co482 2.282 . S
N498 C501 1.332 . S
N498 C503 1.332 . S
C499 C500 1.386 . S
C499 C502 1.388 1_554 S
C500 C499 1.386 . S
C500 C501 1.382 1_554 S
C500 H526 0.950 . S
C501 N498 1.332 . S
C501 C500 1.382 1_556 S
C501 H512 0.952 . S
C502 C499 1.388 1_556 S
C502 C503 1.382 . S
C502 H527 0.950 . S
C503 N498 1.332 . S
C503 C502 1.382 . S
C503 H513 0.948 . S
N504 Co482 2.282 . S
N504 C508 1.332 . S
N504 C509 1.332 . S
C505 C506 1.388 . S
C505 C509 1.382 . S
C505 H528 0.950 . S
C506 C505 1.388 . S
C506 C507 1.386 . S
C507 C506 1.386 . S
C507 C508 1.382 . S
C507 H529 0.950 . S
C508 N504 1.332 . S
C508 C507 1.382 . S
C508 H510 0.952 . S
C509 N504 1.332 . S
C509 C505 1.382 . S
C509 H511 0.948 . S
H510 C508 0.952 . S
H511 C509 0.948 . S
H512 C501 0.952 . S
H513 C503 0.948 . S
C514 C480 1.395 . S
C514 C484 1.391 . S
C515 C477 1.389 . S
C515 C497 1.392 . S
C516 C487 1.392 . S
C516 C489 1.389 . S
C517 C492 1.395 . S
C517 C494 1.391 . S
H518 C478 0.951 . S
H519 C479 0.950 . S
H520 C485 0.949 . S
H521 C486 0.950 . S
H522 C490 0.951 . S
H523 C491 0.950 . S
H524 C495 0.949 . S
H525 C496 0.946 1_554 S
H526 C500 0.950 . S
H527 C502 0.950 . S
H528 C505 0.950 . S
H529 C507 0.950 . S
C530 C531 1.443 . S
C530 N534 1.376 1_554 S
C530 C568 1.389 . S
C531 C530 1.443 . S
C531 C532 1.340 1_554 S
C531 H571 0.951 . S
C532 C531 1.340 1_556 S
C532 C533 1.439 . S
C532 H572 0.950 . S
C533 C532 1.439 . S
C533 N534 1.374 . S
C533 C567 1.395 . S
N534 C530 1.376 1_556 S
N534 C533 1.374 . S
N534 Co535 2.008 . S
Co535 N534 2.008 . S
Co535 N536 1.995 . S
Co535 N541 2.008 . S
Co535 N546 1.995 . S
Co535 N551 2.282 1_556 S
Co535 N557 2.282 . S
N536 Co535 1.995 . S
N536 C537 1.376 . S
N536 C540 1.383 . S
C537 N536 1.376 . S
C537 C538 1.446 . S
C537 C567 1.391 . S
C538 C537 1.446 . S
C538 C539 1.339 . S
C538 H573 0.949 . S
C539 C538 1.339 . S
C539 C540 1.439 . S
C539 H574 0.950 . S
C540 N536 1.383 . S
C540 C539 1.439 . S
C540 C569 1.392 . S
N541 Co535 2.008 . S
N541 C542 1.376 . S
N541 C545 1.374 . S
C542 N541 1.376 . S
C542 C543 1.443 . S
C542 C569 1.389 . S
C543 C542 1.443 . S
C543 C544 1.340 . S
C543 H575 0.951 . S
C544 C543 1.340 . S
C544 C545 1.439 . S
C544 H576 0.950 . S
C545 N541 1.374 . S
C545 C544 1.439 . S
C545 C570 1.395 . S
N546 Co535 1.995 . S
N546 C547 1.376 1_556 S
N546 C550 1.383 1_556 S
C547 N546 1.376 1_554 S
C547 C548 1.446 . S
C547 C570 1.391 1_554 S
C548 C547 1.446 . S
C548 C549 1.339 . S
C548 H577 0.949 . S
C549 C548 1.339 . S
C549 C550 1.439 . S
C549 H578 0.950 . S
C550 N546 1.383 1_554 S
C550 C549 1.439 . S
C550 C568 1.392 . S
N551 Co535 2.282 1_554 S
N551 C554 1.332 . S
N551 C556 1.332 . S
C552 C553 1.386 . S
C552 C555 1.388 . S
C553 C552 1.386 . S
C553 C554 1.382 . S
C553 H579 0.950 . S
C554 N551 1.332 . S
C554 C553 1.382 . S
C554 H565 0.952 . S
C555 C552 1.388 . S
C555 C556 1.382 . S
C555 H580 0.950 . S
C556 N551 1.332 . S
C556 C555 1.382 . S
C556 H566 0.948 1_554 S
N557 Co535 2.282 . S
N557 C561 1.332 . S
N557 C562 1.332 . S
C558 C559 1.388 . S
C558 C562 1.382 . S
C558 H581 0.950 . S
C559 C558 1.388 . S
C559 C560 1.386 . S
C560 C559 1.386 . S
C560 C561 1.382 . S
C560 H582 0.950 . S
C561 N557 1.332 . S
C561 C560 1.382 . S
C561 H563 0.952 . S
C562 N557 1.332 . S
C562 C558 1.382 . S
C562 H564 0.948 . S
H563 C561 0.952 . S
H564 C562 0.948 . S
H565 C554 0.952 . S
H566 C556 0.948 1_556 S
C567 C533 1.395 . S
C567 C537 1.391 . S
C568 C530 1.389 . S
C568 C550 1.392 . S
C569 C540 1.392 . S
C569 C542 1.389 . S
C570 C545 1.395 . S
C570 C547 1.391 1_556 S
H571 C531 0.951 . S
H572 C532 0.950 . S
H573 C538 0.949 . S
H574 C539 0.950 . S
H575 C543 0.951 . S
H576 C544 0.950 . S
H577 C548 0.949 . S
H578 C549 0.950 . S
H579 C553 0.950 . S
H580 C555 0.950 . S
H581 C558 0.950 . S
H582 C560 0.950 . S
C583 C584 1.443 . S
C583 N587 1.376 . S
C583 C621 1.380 1_455 S
C584 C583 1.443 . S
C584 C585 1.340 . S
C584 H624 0.951 . S
C585 C584 1.340 . S
C585 C586 1.439 . S
C585 H625 0.950 . S
C586 C585 1.439 . S
C586 N587 1.374 . S
C586 C620 1.395 . S
N587 C583 1.376 . S
N587 C586 1.374 . S
N587 Co588 2.008 1_455 S
Co588 N587 2.008 1_655 S
Co588 N589 1.995 1_655 S
Co588 N594 2.008 . S
Co588 N599 1.995 . S
Co588 N604 2.282 1_655 S
Co588 N610 2.282 . S
N589 Co588 1.995 1_455 S
N589 C590 1.376 . S
N589 C593 1.383 . S
C590 N589 1.376 . S
C590 C591 1.446 . S
C590 C620 1.391 . S
C591 C590 1.446 . S
C591 C592 1.339 . S
C591 H626 0.949 . S
C592 C591 1.339 . S
C592 C593 1.439 . S
C592 H627 0.950 . S
C593 N589 1.383 . S
C593 C592 1.439 . S
C593 C622 1.394 . S
N594 Co588 2.008 . S
N594 C595 1.376 . S
N594 C598 1.374 . S
C595 N594 1.376 . S
C595 C596 1.443 . S
C595 C622 1.387 1_655 S
C596 C595 1.443 . S
C596 C597 1.340 . S
C596 H628 0.951 . S
C597 C596 1.340 . S
C597 C598 1.439 . S
C597 H629 0.950 . S
C598 N594 1.374 . S
C598 C597 1.439 . S
C598 C623 1.395 . S
N599 Co588 1.995 . S
N599 C600 1.376 . S
N599 C603 1.383 . S
C600 N599 1.376 . S
C600 C601 1.446 1_556 S
C600 C623 1.391 . S
C601 C600 1.446 1_554 S
C601 C602 1.339 . S
C601 H630 0.949 . S
C602 C601 1.339 . S
C602 C603 1.439 1_554 S
C602 H631 0.950 . S
C603 N599 1.383 . S
C603 C602 1.439 1_556 S
C603 C621 1.400 . S
N604 Co588 2.282 1_455 S
N604 C607 1.332 1_556 S
N604 C609 1.332 . S
C605 C606 1.386 . S
C605 C608 1.388 1_554 S
C606 C605 1.386 . S
C606 C607 1.382 . S
C606 H632 0.950 . S
C607 N604 1.332 1_554 S
C607 C606 1.382 . S
C607 H618 0.952 1_455 S
C608 C605 1.388 1_556 S
C608 C609 1.382 . S
C608 H633 0.950 . S
C609 N604 1.332 . S
C609 C608 1.382 . S
C609 H619 0.948 . S
N610 Co588 2.282 . S
N610 C614 1.332 . S
N610 C615 1.332 . S
C611 C612 1.388 . S
C611 C615 1.382 . S
C611 H634 0.950 . S
C612 C611 1.388 . S
C612 C613 1.386 . S
C613 C612 1.386 . S
C613 C614 1.382 . S
C613 H635 0.950 . S
C614 N610 1.332 . S
C614 C613 1.382 . S
C614 H616 0.952 1_655 S
C615 N610 1.332 . S
C615 C611 1.382 . S
C615 H617 0.948 . S
H616 C614 0.952 1_455 S
H617 C615 0.948 . S
H618 C607 0.952 1_655 S
H619 C609 0.948 . S
C620 C586 1.395 . S
C620 C590 1.391 . S
C621 C583 1.380 1_655 S
C621 C603 1.400 . S
C622 C593 1.394 . S
C622 C595 1.387 1_455 S
C623 C598 1.395 . S
C623 C600 1.391 . S
H624 C584 0.951 . S
H625 C585 0.950 . S
H626 C591 0.949 . S
H627 C592 0.950 . S
H628 C596 0.951 . S
H629 C597 0.950 . S
H630 C601 0.949 . S
H631 C602 0.950 . S
H632 C606 0.950 . S
H633 C608 0.950 . S
H634 C611 0.950 . S
H635 C613 0.950 . S
C636 C637 1.443 . S
C636 N640 1.376 . S
C636 C674 1.389 . S
C637 C636 1.443 . S
C637 C638 1.340 . S
C637 H677 0.951 . S
C638 C637 1.340 . S
C638 C639 1.439 . S
C638 H678 0.950 . S
C639 C638 1.439 . S
C639 N640 1.374 . S
C639 C673 1.395 . S
N640 C636 1.376 . S
N640 C639 1.374 . S
N640 Co641 2.008 1_565 S
Co641 N640 2.008 1_545 S
Co641 N642 1.995 1_545 S
Co641 N647 2.008 . S
Co641 N652 1.995 . S
Co641 N657 2.282 1_545 S
Co641 N663 2.282 . S
N642 Co641 1.995 1_565 S
N642 C643 1.376 . S
N642 C646 1.383 . S
C643 N642 1.376 . S
C643 C644 1.446 . S
C643 C673 1.391 . S
C644 C643 1.446 . S
C644 C645 1.339 . S
C644 H679 0.949 . S
C645 C644 1.339 . S
C645 C646 1.439 . S
C645 H680 0.950 . S
C646 N642 1.383 . S
C646 C645 1.439 . S
C646 C675 1.392 1_565 S
N647 Co641 2.008 . S
N647 C648 1.376 . S
N647 C651 1.374 . S
C648 N647 1.376 . S
C648 C649 1.443 . S
C648 C675 1.389 . S
C649 C648 1.443 . S
C649 C650 1.340 . S
C649 H681 0.951 . S
C650 C649 1.340 . S
C650 C651 1.439 . S
C650 H682 0.950 . S
C651 N647 1.374 . S
C651 C650 1.439 . S
C651 C676 1.395 . S
N652 Co641 1.995 . S
N652 C653 1.376 . S
N652 C656 1.383 . S
C653 N652 1.376 . S
C653 C654 1.446 . S
C653 C676 1.391 . S
C654 C653 1.446 . S
C654 C655 1.339 . S
C654 H683 0.949 . S
C655 C654 1.339 . S
C655 C656 1.439 . S
C655 H684 0.950 . S
C656 N652 1.383 . S
C656 C655 1.439 . S
C656 C674 1.392 1_545 S
N657 Co641 2.282 1_565 S
N657 C660 1.332 1_565 S
N657 C662 1.332 . S
C658 C659 1.423 . S
C658 C661 1.388 . S
C659 C658 1.423 . S
C659 C660 1.374 1_565 S
C659 H685 0.922 1_565 S
C660 N657 1.332 1_545 S
C660 C659 1.374 1_545 S
C660 H671 0.952 . S
C661 C658 1.388 . S
C661 C662 1.382 . S
C661 H686 0.950 . S
C662 N657 1.332 . S
C662 C661 1.382 . S
C662 H672 0.948 . S
N663 Co641 2.282 . S
N663 C667 1.332 1_545 S
N663 C668 1.332 . S
C664 C665 1.388 . S
C664 C668 1.382 . S
C664 H687 0.950 . S
C665 C664 1.388 . S
C665 C666 1.386 . S
C666 C665 1.386 . S
C666 C667 1.382 1_545 S
C666 H688 0.950 1_545 S
C667 N663 1.332 1_565 S
C667 C666 1.382 1_565 S
C667 H669 0.952 . S
C668 N663 1.332 . S
C668 C664 1.382 . S
C668 H670 0.948 . S
H669 C667 0.952 . S
H670 C668 0.948 . S
H671 C660 0.952 . S
H672 C662 0.948 . S
C673 C639 1.395 . S
C673 C643 1.391 . S
C674 C636 1.389 . S
C674 C656 1.392 1_565 S
C675 C646 1.392 1_545 S
C675 C648 1.389 . S
C676 C651 1.395 . S
C676 C653 1.391 . S
H677 C637 0.951 . S
H678 C638 0.950 . S
H679 C644 0.949 . S
H680 C645 0.950 . S
H681 C649 0.951 . S
H682 C650 0.950 . S
H683 C654 0.949 . S
H684 C655 0.950 . S
H685 C659 0.922 1_545 S
H686 C661 0.950 . S
H687 C664 0.950 . S
H688 C666 0.950 1_565 S
C689 C690 1.443 . S
C689 N693 1.376 . S
C689 C727 1.389 . S
C690 C689 1.443 . S
C690 C691 1.340 . S
C690 H730 0.951 1_565 S
C691 C690 1.340 . S
C691 C692 1.439 . S
C691 H731 0.950 . S
C692 C691 1.439 . S
C692 N693 1.374 . S
C692 C726 1.395 . S
N693 C689 1.376 . S
N693 C692 1.374 . S
N693 Co694 2.008 . S
Co694 N693 2.008 . S
Co694 N695 1.995 . S
Co694 N700 2.008 . S
Co694 N705 1.995 . S
Co694 N710 2.282 . S
Co694 N716 2.282 . S
N695 Co694 1.995 . S
N695 C696 1.376 . S
N695 C699 1.383 . S
C696 N695 1.376 . S
C696 C697 1.446 . S
C696 C726 1.391 . S
C697 C696 1.446 . S
C697 C698 1.339 . S
C697 H732 0.949 . S
C698 C697 1.339 . S
C698 C699 1.439 . S
C698 H733 0.950 . S
C699 N695 1.383 . S
C699 C698 1.439 . S
C699 C728 1.392 . S
N700 Co694 2.008 . S
N700 C701 1.376 . S
N700 C704 1.374 . S
C701 N700 1.376 . S
C701 C702 1.443 . S
C701 C728 1.389 . S
C702 C701 1.443 . S
C702 C703 1.340 . S
C702 H734 0.951 . S
C703 C702 1.340 . S
C703 C704 1.439 . S
C703 H735 0.950 . S
C704 N700 1.374 . S
C704 C703 1.439 . S
C704 C729 1.395 . S
N705 Co694 1.995 . S
N705 C706 1.376 . S
N705 C709 1.383 . S
C706 N705 1.376 . S
C706 C707 1.446 . S
C706 C729 1.391 . S
C707 C706 1.446 . S
C707 C708 1.339 . S
C707 H736 0.949 . S
C708 C707 1.339 . S
C708 C709 1.439 . S
C708 H737 0.950 . S
C709 N705 1.383 . S
C709 C708 1.439 . S
C709 C727 1.392 . S
N710 Co694 2.282 . S
N710 C713 1.332 . S
N710 C715 1.332 . S
C711 C712 1.386 . S
C711 C714 1.388 . S
C712 C711 1.386 . S
C712 C713 1.382 . S
C712 H738 0.950 . S
C713 N710 1.332 . S
C713 C712 1.382 . S
C713 H724 0.952 . S
C714 C711 1.388 . S
C714 C715 1.382 . S
C714 H739 0.950 . S
C715 N710 1.332 . S
C715 C714 1.382 . S
C715 H725 0.948 . S
N716 Co694 2.282 . S
N716 C720 1.332 . S
N716 C721 1.332 . S
C717 C718 1.388 . S
C717 C721 1.382 . S
C717 H740 0.950 . S
C718 C717 1.388 . S
C718 C719 1.386 . S
C719 C718 1.386 . S
C719 C720 1.382 . S
C719 H741 0.950 . S
C720 N716 1.332 . S
C720 C719 1.382 . S
C720 H722 0.952 . S
C721 N716 1.332 . S
C721 C717 1.382 . S
C721 H723 0.948 . S
H722 C720 0.952 . S
H723 C721 0.948 . S
H724 C713 0.952 . S
H725 C715 0.948 . S
C726 C692 1.395 . S
C726 C696 1.391 . S
C727 C689 1.389 . S
C727 C709 1.392 . S
C728 C699 1.392 . S
C728 C701 1.389 . S
C729 C704 1.395 . S
C729 C706 1.391 . S
H730 C690 0.951 1_545 S
H731 C691 0.950 . S
H732 C697 0.949 . S
H733 C698 0.950 . S
H734 C702 0.951 . S
H735 C703 0.950 . S
H736 C707 0.949 . S
H737 C708 0.950 . S
H738 C712 0.950 . S
H739 C714 0.950 . S
H740 C717 0.950 . S
H741 C719 0.950 . S
C742 C743 1.443 . S
C742 N746 1.376 . S
C742 C780 1.389 . S
C743 C742 1.443 . S
C743 C744 1.340 . S
C743 H783 0.951 . S
C744 C743 1.340 . S
C744 C745 1.439 . S
C744 H784 0.950 . S
C745 C744 1.439 . S
C745 N746 1.374 . S
C745 C779 1.395 . S
N746 C742 1.376 . S
N746 C745 1.374 . S
N746 Co747 2.008 . S
Co747 N746 2.008 . S
Co747 N748 1.995 . S
Co747 N753 2.008 . S
Co747 N758 1.995 . S
Co747 N763 2.282 . S
Co747 N769 2.282 . S
N748 Co747 1.995 . S
N748 C749 1.376 . S
N748 C752 1.383 . S
C749 N748 1.376 . S
C749 C750 1.446 . S
C749 C779 1.391 . S
C750 C749 1.446 . S
C750 C751 1.339 . S
C750 H785 0.949 . S
C751 C750 1.339 . S
C751 C752 1.439 . S
C751 H786 0.950 . S
C752 N748 1.383 . S
C752 C751 1.439 . S
C752 C781 1.392 . S
N753 Co747 2.008 . S
N753 C754 1.376 . S
N753 C757 1.374 . S
C754 N753 1.376 . S
C754 C755 1.443 . S
C754 C781 1.389 . S
C755 C754 1.443 . S
C755 C756 1.340 . S
C755 H787 0.951 . S
C756 C755 1.340 . S
C756 C757 1.439 . S
C756 H788 0.950 . S
C757 N753 1.374 . S
C757 C756 1.439 . S
C757 C782 1.395 . S
N758 Co747 1.995 . S
N758 C759 1.376 . S
N758 C762 1.383 . S
C759 N758 1.376 . S
C759 C760 1.446 . S
C759 C782 1.391 . S
C760 C759 1.446 . S
C760 C761 1.339 . S
C760 H789 0.949 . S
C761 C760 1.339 . S
C761 C762 1.439 . S
C761 H790 0.950 . S
C762 N758 1.383 . S
C762 C761 1.439 . S
C762 C780 1.392 . S
N763 Co747 2.282 . S
N763 C766 1.332 . S
N763 C768 1.332 . S
C764 C765 1.386 . S
C764 C767 1.388 . S
C765 C764 1.386 . S
C765 C766 1.382 . S
C765 H791 0.950 . S
C766 N763 1.332 . S
C766 C765 1.382 . S
C766 H777 0.952 . S
C767 C764 1.388 . S
C767 C768 1.382 . S
C767 H792 0.950 . S
C768 N763 1.332 . S
C768 C767 1.382 . S
C768 H778 0.948 . S
N769 Co747 2.282 . S
N769 C773 1.332 . S
N769 C774 1.332 . S
C770 C771 1.388 . S
C770 C774 1.382 . S
C770 H793 0.950 . S
C771 C770 1.388 . S
C771 C772 1.386 . S
C772 C771 1.386 . S
C772 C773 1.382 . S
C772 H794 0.950 . S
C773 N769 1.332 . S
C773 C772 1.382 . S
C773 H775 0.952 . S
C774 N769 1.332 . S
C774 C770 1.382 . S
C774 H776 0.948 . S
H775 C773 0.952 . S
H776 C774 0.948 . S
H777 C766 0.952 . S
H778 C768 0.948 . S
C779 C745 1.395 . S
C779 C749 1.391 . S
C780 C742 1.389 . S
C780 C762 1.392 . S
C781 C752 1.392 . S
C781 C754 1.389 . S
C782 C757 1.395 . S
C782 C759 1.391 . S
H783 C743 0.951 . S
H784 C744 0.950 . S
H785 C750 0.949 . S
H786 C751 0.950 . S
H787 C755 0.951 . S
H788 C756 0.950 . S
H789 C760 0.949 . S
H790 C761 0.950 . S
H791 C765 0.950 . S
H792 C767 0.950 . S
H793 C770 0.950 . S
H794 C772 0.950 . S
C795 C796 1.443 . S
C795 N799 1.376 . S
C795 C833 1.389 . S
C796 C795 1.443 . S
C796 C797 1.340 . S
C796 H836 0.951 . S
C797 C796 1.340 . S
C797 C798 1.439 . S
C797 H837 0.950 . S
C798 C797 1.439 . S
C798 N799 1.374 . S
C798 C832 1.395 . S
N799 C795 1.376 . S
N799 C798 1.374 . S
N799 Co800 2.008 1_655 S
Co800 N799 2.008 1_455 S
Co800 N801 1.995 1_455 S
Co800 N806 2.008 . S
Co800 N811 1.995 . S
Co800 N816 2.282 1_455 S
Co800 N822 2.282 . S
N801 Co800 1.995 1_655 S
N801 C802 1.376 . S
N801 C805 1.383 . S
C802 N801 1.376 . S
C802 C803 1.446 . S
C802 C832 1.391 . S
C803 C802 1.446 . S
C803 C804 1.339 . S
C803 H838 0.949 . S
C804 C803 1.339 . S
C804 C805 1.439 . S
C804 H839 0.950 . S
C805 N801 1.383 . S
C805 C804 1.439 . S
C805 C834 1.392 1_655 S
N806 Co800 2.008 . S
N806 C807 1.376 . S
N806 C810 1.374 . S
C807 N806 1.376 . S
C807 C808 1.443 . S
C807 C834 1.389 . S
C808 C807 1.443 . S
C808 C809 1.340 . S
C808 H840 0.951 . S
C809 C808 1.340 . S
C809 C810 1.439 . S
C809 H841 0.950 . S
C810 N806 1.374 . S
C810 C809 1.439 . S
C810 C835 1.395 . S
N811 Co800 1.995 . S
N811 C812 1.376 . S
N811 C815 1.383 . S
C812 N811 1.376 . S
C812 C813 1.446 . S
C812 C835 1.391 . S
C813 C812 1.446 . S
C813 C814 1.339 . S
C813 H842 0.949 . S
C814 C813 1.339 . S
C814 C815 1.439 . S
C814 H843 0.950 . S
C815 N811 1.383 . S
C815 C814 1.439 . S
C815 C833 1.392 1_455 S
N816 Co800 2.282 1_655 S
N816 C819 1.332 . S
N816 C821 1.332 . S
C817 C818 1.386 . S
C817 C820 1.388 . S
C818 C817 1.386 . S
C818 C819 1.382 . S
C818 H844 0.950 . S
C819 N816 1.332 . S
C819 C818 1.382 . S
C819 H830 0.952 1_655 S
C820 C817 1.388 . S
C820 C821 1.382 . S
C820 H845 0.950 . S
C821 N816 1.332 . S
C821 C820 1.382 . S
C821 H831 0.948 . S
N822 Co800 2.282 . S
N822 C826 1.332 . S
N822 C827 1.332 . S
C823 C824 1.388 . S
C823 C827 1.382 . S
C823 H846 0.950 . S
C824 C823 1.388 . S
C824 C825 1.386 . S
C825 C824 1.386 . S
C825 C826 1.382 . S
C825 H847 0.950 . S
C826 N822 1.332 . S
C826 C825 1.382 . S
C826 H828 0.952 1_455 S
C827 N822 1.332 . S
C827 C823 1.382 . S
C827 H829 0.948 . S
H828 C826 0.952 1_655 S
H829 C827 0.948 . S
H830 C819 0.952 1_455 S
H831 C821 0.948 . S
C832 C798 1.395 . S
C832 C802 1.391 . S
C833 C795 1.389 . S
C833 C815 1.392 1_655 S
C834 C805 1.392 1_455 S
C834 C807 1.389 . S
C835 C810 1.395 . S
C835 C812 1.391 . S
H836 C796 0.951 . S
H837 C797 0.950 . S
H838 C803 0.949 . S
H839 C804 0.950 . S
H840 C808 0.951 . S
H841 C809 0.950 . S
H842 C813 0.949 . S
H843 C814 0.950 . S
H844 C818 0.950 . S
H845 C820 0.950 . S
H846 C823 0.950 . S
H847 C825 0.950 . S
C848 C849 1.363 . S
C848 C854 1.379 . S
C848 N856 1.356 . S
C849 C848 1.363 . S
C849 C855 1.363 . S
C850 C851 1.363 . S
C850 C855 1.379 . S
C850 N857 1.356 . S
C851 C850 1.363 . S
C851 C854 1.363 . S
N852 C854 1.356 . S
N852 H864 0.984 . S
N852 H865 0.985 . S
N853 C855 1.356 . S
N853 H858 0.984 . S
N853 H859 0.985 . S
C854 C848 1.379 . S
C854 C851 1.363 . S
C854 N852 1.356 . S
C855 C849 1.363 . S
C855 C850 1.379 . S
C855 N853 1.356 . S
N856 C848 1.356 . S
N856 H862 0.984 . S
N856 H863 0.984 . S
N857 C850 1.356 . S
N857 H860 0.984 . S
N857 H861 0.985 . S
H858 N853 0.984 . S
H859 N853 0.985 . S
H860 N857 0.984 . S
H861 N857 0.985 . S
H862 N856 0.984 . S
H863 N856 0.984 . S
H864 N852 0.984 . S
H865 N852 0.985 . S
C866 C867 1.363 . S
C866 C872 1.379 . S
C866 N874 1.356 . S
C867 C866 1.363 . S
C867 C873 1.363 . S
C868 C869 1.363 . S
C868 C873 1.379 . S
C868 N875 1.356 . S
C869 C868 1.363 . S
C869 C872 1.363 . S
N870 C872 1.356 . S
N870 H882 0.984 . S
N870 H883 0.985 . S
N871 C873 1.356 . S
N871 H876 0.984 . S
N871 H877 0.985 . S
C872 C866 1.379 . S
C872 C869 1.363 . S
C872 N870 1.356 . S
C873 C867 1.363 . S
C873 C868 1.379 . S
C873 N871 1.356 . S
N874 C866 1.356 . S
N874 H880 0.984 . S
N874 H881 0.984 . S
N875 C868 1.356 . S
N875 H878 0.984 . S
N875 H879 0.985 . S
H876 N871 0.984 . S
H877 N871 0.985 . S
H878 N875 0.984 . S
H879 N875 0.985 . S
H880 N874 0.984 . S
H881 N874 0.984 . S
H882 N870 0.984 . S
H883 N870 0.985 . S
C884 C885 1.363 1_655 S
C884 C890 1.379 . S
C884 N892 1.356 . S
C885 C884 1.363 1_455 S
C885 C891 1.363 . S
C886 C887 1.363 1_455 S
C886 C891 1.379 . S
C886 N893 1.356 . S
C887 C886 1.363 1_655 S
C887 C890 1.363 . S
N888 C890 1.356 . S
N888 H900 0.984 . S
N888 H901 0.985 . S
N889 C891 1.356 . S
N889 H894 0.984 . S
N889 H895 0.985 . S
C890 C884 1.379 . S
C890 C887 1.363 . S
C890 N888 1.356 . S
C891 C885 1.363 . S
C891 C886 1.379 . S
C891 N889 1.356 . S
N892 C884 1.356 . S
N892 H898 0.984 . S
N892 H899 0.984 1_655 S
N893 C886 1.356 . S
N893 H896 0.984 . S
N893 H897 0.985 . S
H894 N889 0.984 . S
H895 N889 0.985 . S
H896 N893 0.984 . S
H897 N893 0.985 . S
H898 N892 0.984 . S
H899 N892 0.984 1_455 S
H900 N888 0.984 . S
H901 N888 0.985 . S
C902 C903 1.363 1_655 S
C902 C908 1.379 . S
C902 N910 1.356 . S
C903 C902 1.363 1_455 S
C903 C909 1.363 . S
C904 C905 1.363 1_455 S
C904 C909 1.379 . S
C904 N911 1.356 . S
C905 C904 1.363 1_655 S
C905 C908 1.363 . S
N906 C908 1.356 . S
N906 H918 0.984 . S
N906 H919 0.985 . S
N907 C909 1.356 . S
N907 H912 0.984 . S
N907 H913 0.985 . S
C908 C902 1.379 . S
C908 C905 1.363 . S
C908 N906 1.356 . S
C909 C903 1.363 . S
C909 C904 1.379 . S
C909 N907 1.356 . S
N910 C902 1.356 . S
N910 H916 0.984 . S
N910 H917 0.984 . S
N911 C904 1.356 . S
N911 H914 0.984 . S
N911 H915 0.985 . S
H912 N907 0.984 . S
H913 N907 0.985 . S
H914 N911 0.984 . S
H915 N911 0.985 . S
H916 N910 0.984 . S
H917 N910 0.984 . S
H918 N906 0.984 . S
H919 N906 0.985 . S
C920 C921 1.363 . S
C920 C926 1.379 . S
C920 N928 1.356 . S
C921 C920 1.363 . S
C921 C927 1.339 1_565 S
C922 C923 1.363 . S
C922 C927 1.377 1_565 S
C922 N929 1.356 1_565 S
C923 C922 1.363 . S
C923 C926 1.363 . S
N924 C926 1.356 . S
N924 H936 0.984 . S
N924 H937 0.985 . S
N925 C927 1.378 . S
N925 H930 0.984 . S
N925 H931 0.985 . S
C926 C920 1.379 . S
C926 C923 1.363 . S
C926 N924 1.356 . S
C927 C921 1.339 1_545 S
C927 C922 1.377 1_545 S
C927 N925 1.378 . S
N928 C920 1.356 . S
N928 H934 0.984 . S
N928 H935 0.984 . S
N929 C922 1.356 1_545 S
N929 H932 0.984 . S
N929 H933 0.985 . S
H930 N925 0.984 . S
H931 N925 0.985 . S
H932 N929 0.984 . S
H933 N929 0.985 . S
H934 N928 0.984 . S
H935 N928 0.984 . S
H936 N924 0.984 . S
H937 N924 0.985 . S
C938 C939 1.363 . S
C938 C944 1.379 . S
C938 N946 1.356 . S
C939 C938 1.363 . S
C939 C945 1.363 . S
C940 C941 1.363 . S
C940 C945 1.379 . S
C940 N947 1.356 . S
C941 C940 1.363 . S
C941 C944 1.363 . S
N942 C944 1.356 . S
N942 H954 0.984 . S
N942 H955 0.985 . S
N943 C945 1.356 . S
N943 H948 0.984 . S
N943 H949 0.985 . S
C944 C938 1.379 . S
C944 C941 1.363 . S
C944 N942 1.356 . S
C945 C939 1.363 . S
C945 C940 1.379 . S
C945 N943 1.356 . S
N946 C938 1.356 . S
N946 H952 0.984 . S
N946 H953 0.984 . S
N947 C940 1.356 . S
N947 H950 0.984 . S
N947 H951 0.985 . S
H948 N943 0.984 . S
H949 N943 0.985 . S
H950 N947 0.984 . S
H951 N947 0.985 . S
H952 N946 0.984 . S
H953 N946 0.984 . S
H954 N942 0.984 . S
H955 N942 0.985 . S
C956 C957 1.363 . S
C956 C962 1.379 . S
C956 N964 1.356 . S
C957 C956 1.363 . S
C957 C963 1.363 . S
C958 C959 1.363 . S
C958 C963 1.379 . S
C958 N965 1.356 . S
C959 C958 1.363 . S
C959 C962 1.363 . S
N960 C962 1.356 . S
N960 H972 0.984 . S
N960 H973 0.985 . S
N961 C963 1.356 . S
N961 H966 0.984 . S
N961 H967 0.985 . S
C962 C956 1.379 . S
C962 C959 1.363 . S
C962 N960 1.356 . S
C963 C957 1.363 . S
C963 C958 1.379 . S
C963 N961 1.356 . S
N964 C956 1.356 . S
N964 H970 0.984 . S
N964 H971 0.984 . S
N965 C958 1.356 . S
N965 H968 0.984 . S
N965 H969 0.985 . S
H966 N961 0.984 . S
H967 N961 0.985 . S
H968 N965 0.984 . S
H969 N965 0.985 . S
H970 N964 0.984 . S
H971 N964 0.984 . S
H972 N960 0.984 . S
H973 N960 0.985 . S
C974 C975 1.363 . S
C974 C980 1.379 . S
C974 N982 1.356 . S
C975 C974 1.363 . S
C975 C981 1.363 . S
C976 C977 1.363 . S
C976 C981 1.379 . S
C976 N983 1.356 . S
C977 C976 1.363 . S
C977 C980 1.363 . S
N978 C980 1.356 . S
N978 H990 0.984 . S
N978 H991 0.985 . S
N979 C981 1.356 . S
N979 H984 0.984 . S
N979 H985 0.985 . S
C980 C974 1.379 . S
C980 C977 1.363 . S
C980 N978 1.356 . S
C981 C975 1.363 . S
C981 C976 1.379 . S
C981 N979 1.356 . S
N982 C974 1.356 . S
N982 H988 0.984 . S
N982 H989 0.984 . S
N983 C976 1.356 . S
N983 H986 0.984 . S
N983 H987 0.985 . S
H984 N979 0.984 . S
H985 N979 0.985 . S
H986 N983 0.984 . S
H987 N983 0.985 . S
H988 N982 0.984 . S
H989 N982 0.984 . S
H990 N978 0.984 . S
H991 N978 0.985 . S
C992 C993 1.363 . S
C992 C998 1.379 1_565 S
C992 N1000 1.356 1_565 S
C993 C992 1.363 . S
C993 C999 1.363 . S
C994 C995 1.363 . S
C994 C999 1.379 . S
C994 N1001 1.356 . S
C995 C994 1.363 . S
C995 C998 1.363 1_565 S
N996 C998 1.356 . S
N996 H1008 0.984 . S
N996 H1009 0.985 . S
N997 C999 1.356 . S
N997 H1002 0.984 . S
N997 H1003 0.985 . S
C998 C992 1.379 1_545 S
C998 C995 1.363 1_545 S
C998 N996 1.356 . S
C999 C993 1.363 . S
C999 C994 1.379 . S
C999 N997 1.356 . S
N1000 C992 1.356 1_545 S
N1000 H1006 0.984 . S
N1000 H1007 0.984 1_545 S
N1001 C994 1.356 . S
N1001 H1004 0.984 . S
N1001 H1005 0.985 . S
H1002 N997 0.984 . S
H1003 N997 0.985 . S
H1004 N1001 0.984 . S
H1005 N1001 0.985 . S
H1006 N1000 0.984 . S
H1007 N1000 0.984 1_565 S
H1008 N996 0.984 . S
H1009 N996 0.985 . S
C1010 C1011 1.363 . S
C1010 C1016 1.379 . S
C1010 N1018 1.356 . S
C1011 C1010 1.363 . S
C1011 C1017 1.363 . S
C1012 C1013 1.363 . S
C1012 C1017 1.379 . S
C1012 N1019 1.356 . S
C1013 C1012 1.363 . S
C1013 C1016 1.363 . S
N1014 C1016 1.356 . S
N1014 H1026 0.984 . S
N1014 H1027 0.985 . S
N1015 C1017 1.356 . S
N1015 H1020 0.984 . S
N1015 H1021 0.985 . S
C1016 C1010 1.379 . S
C1016 C1013 1.363 . S
C1016 N1014 1.356 . S
C1017 C1011 1.363 . S
C1017 C1012 1.379 . S
C1017 N1015 1.356 . S
N1018 C1010 1.356 . S
N1018 H1024 0.984 . S
N1018 H1025 0.984 . S
N1019 C1012 1.356 . S
N1019 H1022 0.984 . S
N1019 H1023 0.985 . S
H1020 N1015 0.984 . S
H1021 N1015 0.985 . S
H1022 N1019 0.984 . S
H1023 N1019 0.985 . S
H1024 N1018 0.984 . S
H1025 N1018 0.984 . S
H1026 N1014 0.984 . S
H1027 N1014 0.985 . S
C1028 C1029 1.363 . S
C1028 C1034 1.379 . S
C1028 N1036 1.356 . S
C1029 C1028 1.363 . S
C1029 C1035 1.363 . S
C1030 C1031 1.363 . S
C1030 C1035 1.379 . S
C1030 N1037 1.356 . S
C1031 C1030 1.363 . S
C1031 C1034 1.363 . S
N1032 C1034 1.356 . S
N1032 H1044 0.984 . S
N1032 H1045 0.985 . S
N1033 C1035 1.356 . S
N1033 H1038 0.984 . S
N1033 H1039 0.985 . S
C1034 C1028 1.379 . S
C1034 C1031 1.363 . S
C1034 N1032 1.356 . S
C1035 C1029 1.363 . S
C1035 C1030 1.379 . S
C1035 N1033 1.356 . S
N1036 C1028 1.356 . S
N1036 H1042 0.984 . S
N1036 H1043 0.984 . S
N1037 C1030 1.356 . S
N1037 H1040 0.984 . S
N1037 H1041 0.985 . S
H1038 N1033 0.984 . S
H1039 N1033 0.985 . S
H1040 N1037 0.984 . S
H1041 N1037 0.985 . S
H1042 N1036 0.984 . S
H1043 N1036 0.984 . S
H1044 N1032 0.984 . S
H1045 N1032 0.985 . S
C1046 C1047 1.363 . S
C1046 C1052 1.379 . S
C1046 N1054 1.356 . S
C1047 C1046 1.363 . S
C1047 C1053 1.363 1_655 S
C1048 C1049 1.363 1_455 S
C1048 C1053 1.379 . S
C1048 N1055 1.356 . S
C1049 C1048 1.363 1_655 S
C1049 C1052 1.363 . S
N1050 C1052 1.356 . S
N1050 H1062 0.984 . S
N1050 H1063 0.985 . S
N1051 C1053 1.356 . S
N1051 H1056 0.984 . S
N1051 H1057 0.985 . S
C1052 C1046 1.379 . S
C1052 C1049 1.363 . S
C1052 N1050 1.356 . S
C1053 C1047 1.363 1_455 S
C1053 C1048 1.379 . S
C1053 N1051 1.356 . S
N1054 C1046 1.356 . S
N1054 H1060 0.984 . S
N1054 H1061 0.984 . S
N1055 C1048 1.356 . S
N1055 H1058 0.984 . S
N1055 H1059 0.985 . S
H1056 N1051 0.984 . S
H1057 N1051 0.985 . S
H1058 N1055 0.984 . S
H1059 N1055 0.985 . S
H1060 N1054 0.984 . S
H1061 N1054 0.984 . S
H1062 N1050 0.984 . S
H1063 N1050 0.985 . S
C1064 C1065 1.363 . S
C1064 C1070 1.379 . S
C1064 N1072 1.356 . S
C1065 C1064 1.363 . S
C1065 C1071 1.363 . S
C1066 C1067 1.363 1_565 S
C1066 C1071 1.379 1_565 S
C1066 N1073 1.356 . S
C1067 C1066 1.363 1_545 S
C1067 C1070 1.363 . S
N1068 C1070 1.356 . S
N1068 H1080 0.984 . S
N1068 H1081 0.985 . S
N1069 C1071 1.356 1_565 S
N1069 H1074 0.984 1_565 S
N1069 H1075 0.985 . S
C1070 C1064 1.379 . S
C1070 C1067 1.363 . S
C1070 N1068 1.356 . S
C1071 C1065 1.363 . S
C1071 C1066 1.379 1_545 S
C1071 N1069 1.356 1_545 S
N1072 C1064 1.356 . S
N1072 H1078 0.984 . S
N1072 H1079 0.984 . S
N1073 C1066 1.356 . S
N1073 H1076 0.984 . S
N1073 H1077 0.985 . S
H1074 N1069 0.984 1_545 S
H1075 N1069 0.985 . S
H1076 N1073 0.984 . S
H1077 N1073 0.985 . S
H1078 N1072 0.984 . S
H1079 N1072 0.984 . S
H1080 N1068 0.984 . S
H1081 N1068 0.985 . S
C1082 C1083 1.363 . S
C1082 C1088 1.379 . S
C1082 N1090 1.356 . S
C1083 C1082 1.363 . S
C1083 C1089 1.363 . S
C1084 C1085 1.363 . S
C1084 C1089 1.379 . S
C1084 N1091 1.356 . S
C1085 C1084 1.363 . S
C1085 C1088 1.363 . S
N1086 C1088 1.356 . S
N1086 H1098 0.984 . S
N1086 H1099 0.985 . S
N1087 C1089 1.356 . S
N1087 H1092 0.984 . S
N1087 H1093 0.985 . S
C1088 C1082 1.379 . S
C1088 C1085 1.363 . S
C1088 N1086 1.356 . S
C1089 C1083 1.363 . S
C1089 C1084 1.379 . S
C1089 N1087 1.356 . S
N1090 C1082 1.356 . S
N1090 H1096 0.984 . S
N1090 H1097 0.984 . S
N1091 C1084 1.356 . S
N1091 H1094 0.984 . S
N1091 H1095 0.985 . S
H1092 N1087 0.984 . S
H1093 N1087 0.985 . S
H1094 N1091 0.984 . S
H1095 N1091 0.985 . S
H1096 N1090 0.984 . S
H1097 N1090 0.984 . S
H1098 N1086 0.984 . S
H1099 N1086 0.985 . S
C1100 C1101 1.363 . S
C1100 C1106 1.379 . S
C1100 N1108 1.356 . S
C1101 C1100 1.363 . S
C1101 C1107 1.363 . S
C1102 C1103 1.363 . S
C1102 C1107 1.379 . S
C1102 N1109 1.356 . S
C1103 C1102 1.363 . S
C1103 C1106 1.363 . S
N1104 C1106 1.356 . S
N1104 H1116 0.984 . S
N1104 H1117 0.985 . S
N1105 C1107 1.356 . S
N1105 H1110 0.984 . S
N1105 H1111 0.985 . S
C1106 C1100 1.379 . S
C1106 C1103 1.363 . S
C1106 N1104 1.356 . S
C1107 C1101 1.363 . S
C1107 C1102 1.379 . S
C1107 N1105 1.356 . S
N1108 C1100 1.356 . S
N1108 H1114 0.984 . S
N1108 H1115 0.984 . S
N1109 C1102 1.356 . S
N1109 H1112 0.984 . S
N1109 H1113 0.985 . S
H1110 N1105 0.984 . S
H1111 N1105 0.985 . S
H1112 N1109 0.984 . S
H1113 N1109 0.985 . S
H1114 N1108 0.984 . S
H1115 N1108 0.984 . S
H1116 N1104 0.984 . S
H1117 N1104 0.985 . S
C1118 C1119 1.363 . S
C1118 C1124 1.379 . S
C1118 N1126 1.356 . S
C1119 C1118 1.363 . S
C1119 C1125 1.364 . S
C1120 C1121 1.363 1_655 S
C1120 C1125 1.379 1_655 S
C1120 N1127 1.356 . S
C1121 C1120 1.363 1_455 S
C1121 C1124 1.363 . S
N1122 C1124 1.356 . S
N1122 H1134 0.984 . S
N1122 H1135 0.985 . S
N1123 C1125 1.356 1_655 S
N1123 H1128 0.985 1_655 S
N1123 H1129 0.985 . S
C1124 C1118 1.379 . S
C1124 C1121 1.363 . S
C1124 N1122 1.356 . S
C1125 C1119 1.364 . S
C1125 C1120 1.379 1_455 S
C1125 N1123 1.356 1_455 S
N1126 C1118 1.356 . S
N1126 H1132 0.984 . S
N1126 H1133 0.984 . S
N1127 C1120 1.356 . S
N1127 H1130 0.984 . S
N1127 H1131 0.985 . S
H1128 N1123 0.985 1_455 S
H1129 N1123 0.985 . S
H1130 N1127 0.984 . S
H1131 N1127 0.985 . S
H1132 N1126 0.984 . S
H1133 N1126 0.984 . S
H1134 N1122 0.984 . S
H1135 N1122 0.985 . S
C1136 C1137 1.363 1_565 S
C1136 C1142 1.379 . S
C1136 N1144 1.356 . S
C1137 C1136 1.363 1_545 S
C1137 C1143 1.363 . S
C1138 C1139 1.363 . S
C1138 C1143 1.379 . S
C1138 N1145 1.356 . S
C1139 C1138 1.363 . S
C1139 C1142 1.363 1_545 S
N1140 C1142 1.356 . S
N1140 H1152 0.984 . S
N1140 H1153 0.985 . S
N1141 C1143 1.356 . S
N1141 H1146 0.984 . S
N1141 H1147 0.985 . S
C1142 C1136 1.379 . S
C1142 C1139 1.363 1_565 S
C1142 N1140 1.356 . S
C1143 C1137 1.363 . S
C1143 C1138 1.379 . S
C1143 N1141 1.356 . S
N1144 C1136 1.356 . S
N1144 H1150 0.984 . S
N1144 H1151 0.984 . S
N1145 C1138 1.356 . S
N1145 H1148 0.984 . S
N1145 H1149 0.985 . S
H1146 N1141 0.984 . S
H1147 N1141 0.985 . S
H1148 N1145 0.984 . S
H1149 N1145 0.985 . S
H1150 N1144 0.984 . S
H1151 N1144 0.984 . S
H1152 N1140 0.984 . S
H1153 N1140 0.985 . S
C1154 C1155 1.363 . S
C1154 C1160 1.379 . S
C1154 N1162 1.356 . S
C1155 C1154 1.363 . S
C1155 C1161 1.363 . S
C1156 C1157 1.363 . S
C1156 C1161 1.379 . S
C1156 N1163 1.356 . S
C1157 C1156 1.363 . S
C1157 C1160 1.363 . S
N1158 C1160 1.356 . S
N1158 H1170 0.984 . S
N1158 H1171 0.985 . S
N1159 C1161 1.356 . S
N1159 H1164 0.984 . S
N1159 H1165 0.985 . S
C1160 C1154 1.379 . S
C1160 C1157 1.363 . S
C1160 N1158 1.356 . S
C1161 C1155 1.363 . S
C1161 C1156 1.379 . S
C1161 N1159 1.356 . S
N1162 C1154 1.356 . S
N1162 H1168 0.984 . S
N1162 H1169 0.984 . S
N1163 C1156 1.356 . S
N1163 H1166 0.984 . S
N1163 H1167 0.985 . S
H1164 N1159 0.984 . S
H1165 N1159 0.985 . S
H1166 N1163 0.984 . S
H1167 N1163 0.985 . S
H1168 N1162 0.984 . S
H1169 N1162 0.984 . S
H1170 N1158 0.984 . S
H1171 N1158 0.985 . S
C1172 C1173 1.363 . S
C1172 C1178 1.379 . S
C1172 N1180 1.356 . S
C1173 C1172 1.363 . S
C1173 C1179 1.363 . S
C1174 C1175 1.363 . S
C1174 C1179 1.379 . S
C1174 N1181 1.356 . S
C1175 C1174 1.363 . S
C1175 C1178 1.363 . S
N1176 C1178 1.356 . S
N1176 H1188 0.984 . S
N1176 H1189 0.985 . S
N1177 C1179 1.356 . S
N1177 H1182 0.984 . S
N1177 H1183 0.985 . S
C1178 C1172 1.379 . S
C1178 C1175 1.363 . S
C1178 N1176 1.356 . S
C1179 C1173 1.363 . S
C1179 C1174 1.379 . S
C1179 N1177 1.356 . S
N1180 C1172 1.356 . S
N1180 H1186 0.984 . S
N1180 H1187 0.984 . S
N1181 C1174 1.356 . S
N1181 H1184 0.984 . S
N1181 H1185 0.985 . S
H1182 N1177 0.984 . S
H1183 N1177 0.985 . S
H1184 N1181 0.984 . S
H1185 N1181 0.985 . S
H1186 N1180 0.984 . S
H1187 N1180 0.984 . S
H1188 N1176 0.984 . S
H1189 N1176 0.985 . S
C1190 C1191 1.363 . S
C1190 C1196 1.379 . S
C1190 N1198 1.356 . S
C1191 C1190 1.363 . S
C1191 C1197 1.363 . S
C1192 C1193 1.363 . S
C1192 C1197 1.379 . S
C1192 N1199 1.356 . S
C1193 C1192 1.363 . S
C1193 C1196 1.363 . S
N1194 C1196 1.356 1_655 S
N1194 H1206 0.984 . S
N1194 H1207 0.985 . S
N1195 C1197 1.356 . S
N1195 H1200 0.984 . S
N1195 H1201 0.985 . S
C1196 C1190 1.379 . S
C1196 C1193 1.363 . S
C1196 N1194 1.356 1_455 S
C1197 C1191 1.363 . S
C1197 C1192 1.379 . S
C1197 N1195 1.356 . S
N1198 C1190 1.356 . S
N1198 H1204 0.968 1_455 S
N1198 H1205 0.984 . S
N1199 C1192 1.356 . S
N1199 H1202 0.984 . S
N1199 H1203 0.985 . S
H1200 N1195 0.984 . S
H1201 N1195 0.985 . S
H1202 N1199 0.984 . S
H1203 N1199 0.985 . S
H1204 N1198 0.968 1_655 S
H1205 N1198 0.984 . S
H1206 N1194 0.984 . S
H1207 N1194 0.985 . S
C1208 C1209 1.363 1_545 S
C1208 C1214 1.379 . S
C1208 N1216 1.356 . S
C1209 C1208 1.363 1_565 S
C1209 C1215 1.363 . S
C1210 C1211 1.363 . S
C1210 C1215 1.379 . S
C1210 N1217 1.356 . S
C1211 C1210 1.363 . S
C1211 C1214 1.363 1_565 S
N1212 C1214 1.356 . S
N1212 H1224 0.984 . S
N1212 H1225 0.985 . S
N1213 C1215 1.356 . S
N1213 H1218 0.984 . S
N1213 H1219 0.985 . S
C1214 C1208 1.379 . S
C1214 C1211 1.363 1_545 S
C1214 N1212 1.356 . S
C1215 C1209 1.363 . S
C1215 C1210 1.379 . S
C1215 N1213 1.356 . S
N1216 C1208 1.356 . S
N1216 H1222 0.984 . S
N1216 H1223 0.984 . S
N1217 C1210 1.356 . S
N1217 H1220 0.984 . S
N1217 H1221 0.985 . S
H1218 N1213 0.984 . S
H1219 N1213 0.985 . S
H1220 N1217 0.984 . S
H1221 N1217 0.985 . S
H1222 N1216 0.984 . S
H1223 N1216 0.984 . S
H1224 N1212 0.984 . S
H1225 N1212 0.985 . S
C1226 C1227 1.363 . S
C1226 C1232 1.379 . S
C1226 N1234 1.356 . S
C1227 C1226 1.363 . S
C1227 C1233 1.363 . S
C1228 C1229 1.363 . S
C1228 C1233 1.379 . S
C1228 N1235 1.356 . S
C1229 C1228 1.363 . S
C1229 C1232 1.363 . S
N1230 C1232 1.356 . S
N1230 H1242 0.984 . S
N1230 H1243 0.985 . S
N1231 C1233 1.356 . S
N1231 H1236 0.984 . S
N1231 H1237 0.985 . S
C1232 C1226 1.379 . S
C1232 C1229 1.363 . S
C1232 N1230 1.356 . S
C1233 C1227 1.363 . S
C1233 C1228 1.379 . S
C1233 N1231 1.356 . S
N1234 C1226 1.356 . S
N1234 H1240 0.984 . S
N1234 H1241 0.984 . S
N1235 C1228 1.356 . S
N1235 H1238 0.984 . S
N1235 H1239 0.985 . S
H1236 N1231 0.984 . S
H1237 N1231 0.985 . S
H1238 N1235 0.984 . S
H1239 N1235 0.985 . S
H1240 N1234 0.984 . S
H1241 N1234 0.984 . S
H1242 N1230 0.984 . S
H1243 N1230 0.985 . S
C1244 C1245 1.363 . S
C1244 C1250 1.379 . S
C1244 N1252 1.356 . S
C1245 C1244 1.363 . S
C1245 C1251 1.363 . S
C1246 C1247 1.363 . S
C1246 C1251 1.379 . S
C1246 N1253 1.356 . S
C1247 C1246 1.363 . S
C1247 C1250 1.363 . S
N1248 C1250 1.356 . S
N1248 H1260 0.984 . S
N1248 H1261 0.985 . S
N1249 C1251 1.356 . S
N1249 H1254 0.984 . S
N1249 H1255 0.985 . S
C1250 C1244 1.379 . S
C1250 C1247 1.363 . S
C1250 N1248 1.356 . S
C1251 C1245 1.363 . S
C1251 C1246 1.379 . S
C1251 N1249 1.356 . S
N1252 C1244 1.356 . S
N1252 H1258 0.984 . S
N1252 H1259 0.984 . S
N1253 C1246 1.356 . S
N1253 H1256 0.984 . S
N1253 H1257 0.985 . S
H1254 N1249 0.984 . S
H1255 N1249 0.985 . S
H1256 N1253 0.984 . S
H1257 N1253 0.985 . S
H1258 N1252 0.984 . S
H1259 N1252 0.984 . S
H1260 N1248 0.984 . S
H1261 N1248 0.985 . S
C1262 C1263 1.363 . S
C1262 C1268 1.379 . S
C1262 N1270 1.356 . S
C1263 C1262 1.363 . S
C1263 C1269 1.363 . S
C1264 C1265 1.363 . S
C1264 C1269 1.379 . S
C1264 N1271 1.356 . S
C1265 C1264 1.363 . S
C1265 C1268 1.363 . S
N1266 C1268 1.356 . S
N1266 H1278 0.984 . S
N1266 H1279 0.985 . S
N1267 C1269 1.356 1_455 S
N1267 H1272 0.984 . S
N1267 H1273 0.985 . S
C1268 C1262 1.379 . S
C1268 C1265 1.363 . S
C1268 N1266 1.356 . S
C1269 C1263 1.363 . S
C1269 C1264 1.379 . S
C1269 N1267 1.356 1_655 S
N1270 C1262 1.356 . S
N1270 H1276 0.984 . S
N1270 H1277 0.984 . S
N1271 C1264 1.356 . S
N1271 H1274 0.984 . S
N1271 H1275 0.977 1_655 S
H1272 N1267 0.984 . S
H1273 N1267 0.985 . S
H1274 N1271 0.984 . S
H1275 N1271 0.977 1_455 S
H1276 N1270 0.984 . S
H1277 N1270 0.984 . S
H1278 N1266 0.984 . S
H1279 N1266 0.985 . S
C1280 C1281 1.363 1_565 S
C1280 C1286 1.379 . S
C1280 N1288 1.356 . S
C1281 C1280 1.363 1_545 S
C1281 C1287 1.363 . S
C1282 C1283 1.391 . S
C1282 C1287 1.379 . S
C1282 N1289 1.356 1_554 S
C1283 C1282 1.391 . S
C1283 C1286 1.336 1_545 S
N1284 C1286 1.356 . S
N1284 H1296 0.984 . S
N1284 H1297 0.985 . S
N1285 C1287 1.356 . S
N1285 H1290 0.984 . S
N1285 H1291 0.985 . S
C1286 C1280 1.379 . S
C1286 C1283 1.336 1_565 S
C1286 N1284 1.356 . S
C1287 C1281 1.363 . S
C1287 C1282 1.379 . S
C1287 N1285 1.356 . S
N1288 C1280 1.356 . S
N1288 H1294 0.984 . S
N1288 H1295 0.984 . S
N1289 C1282 1.356 1_556 S
N1289 H1292 0.984 . S
N1289 H1293 0.985 . S
H1290 N1285 0.984 . S
H1291 N1285 0.985 . S
H1292 N1289 0.984 . S
H1293 N1289 0.985 . S
H1294 N1288 0.984 . S
H1295 N1288 0.984 . S
H1296 N1284 0.984 . S
H1297 N1284 0.985 . S
C1298 C1299 1.363 . S
C1298 C1304 1.379 . S
C1298 N1306 1.356 1_556 S
C1299 C1298 1.363 . S
C1299 C1305 1.363 . S
C1300 C1301 1.363 . S
C1300 C1305 1.379 . S
C1300 N1307 1.356 . S
C1301 C1300 1.363 . S
C1301 C1304 1.363 . S
N1302 C1304 1.356 . S
N1302 H1314 0.984 1_556 S
N1302 H1315 0.985 . S
N1303 C1305 1.356 . S
N1303 H1308 0.984 . S
N1303 H1309 0.985 . S
C1304 C1298 1.379 . S
C1304 C1301 1.363 . S
C1304 N1302 1.356 . S
C1305 C1299 1.363 . S
C1305 C1300 1.379 . S
C1305 N1303 1.356 . S
N1306 C1298 1.356 1_554 S
N1306 H1312 0.984 . S
N1306 H1313 0.984 . S
N1307 C1300 1.356 . S
N1307 H1310 0.984 . S
N1307 H1311 0.985 . S
H1308 N1303 0.984 . S
H1309 N1303 0.985 . S
H1310 N1307 0.984 . S
H1311 N1307 0.985 . S
H1312 N1306 0.984 . S
H1313 N1306 0.984 . S
H1314 N1302 0.984 1_554 S
H1315 N1302 0.985 . S
C1316 C1317 1.363 1_556 S
C1316 C1322 1.379 1_556 S
C1316 N1324 1.356 . S
C1317 C1316 1.363 1_554 S
C1317 C1323 1.363 . S
C1318 C1319 1.363 . S
C1318 C1323 1.379 . S
C1318 N1325 1.356 . S
C1319 C1318 1.363 . S
C1319 C1322 1.363 . S
N1320 C1322 1.356 1_556 S
N1320 H1332 0.984 . S
N1320 H1333 0.985 1_556 S
N1321 C1323 1.356 . S
N1321 H1326 0.984 . S
N1321 H1327 0.985 . S
C1322 C1316 1.379 1_554 S
C1322 C1319 1.363 . S
C1322 N1320 1.356 1_554 S
C1323 C1317 1.363 . S
C1323 C1318 1.379 . S
C1323 N1321 1.356 . S
N1324 C1316 1.356 . S
N1324 H1330 0.984 . S
N1324 H1331 0.984 . S
N1325 C1318 1.356 . S
N1325 H1328 0.984 . S
N1325 H1329 0.985 . S
H1326 N1321 0.984 . S
H1327 N1321 0.985 . S
H1328 N1325 0.984 . S
H1329 N1325 0.985 . S
H1330 N1324 0.984 . S
H1331 N1324 0.984 . S
H1332 N1320 0.984 . S
H1333 N1320 0.985 1_554 S
C1334 C1335 1.363 . S
C1334 C1340 1.379 1_545 S
C1334 N1342 1.356 . S
C1335 C1334 1.363 . S
C1335 C1341 1.363 1_645 S
C1336 C1337 1.350 1_455 S
C1336 C1341 1.379 . S
C1336 N1343 1.356 . S
C1337 C1336 1.350 1_655 S
C1337 C1340 1.376 . S
N1338 C1340 1.356 . S
N1338 H1350 0.984 . S
N1338 H1351 0.985 . S
N1339 C1341 1.356 1_544 S
N1339 H1344 0.984 . S
N1339 H1345 0.985 . S
C1340 C1334 1.379 1_565 S
C1340 C1337 1.376 . S
C1340 N1338 1.356 . S
C1341 C1335 1.363 1_465 S
C1341 C1336 1.379 . S
C1341 N1339 1.356 1_566 S
N1342 C1334 1.356 . S
N1342 H1348 0.984 . S
N1342 H1349 0.984 . S
N1343 C1336 1.356 . S
N1343 H1346 0.984 . S
N1343 H1347 0.985 . S
H1344 N1339 0.984 . S
H1345 N1339 0.985 . S
H1346 N1343 0.984 . S
H1347 N1343 0.985 . S
H1348 N1342 0.984 . S
H1349 N1342 0.984 . S
H1350 N1338 0.984 . S
H1351 N1338 0.985 . S
C1352 C1353 1.363 . S
C1352 C1358 1.379 . S
C1352 N1360 1.356 . S
C1353 C1352 1.363 . S
C1353 C1359 1.363 1_565 S
C1354 C1355 1.363 1_545 S
C1354 C1359 1.379 . S
C1354 N1361 1.356 . S
C1355 C1354 1.363 1_565 S
C1355 C1358 1.363 . S
N1356 C1358 1.356 . S
N1356 H1368 0.984 . S
N1356 H1369 0.985 . S
N1357 C1359 1.356 . S
N1357 H1362 0.984 . S
N1357 H1363 0.985 . S
C1358 C1352 1.379 . S
C1358 C1355 1.363 . S
C1358 N1356 1.356 . S
C1359 C1353 1.363 1_545 S
C1359 C1354 1.379 . S
C1359 N1357 1.356 . S
N1360 C1352 1.356 . S
N1360 H1366 0.984 . S
N1360 H1367 0.984 . S
N1361 C1354 1.356 . S
N1361 H1364 0.984 . S
N1361 H1365 0.985 . S
H1362 N1357 0.984 . S
H1363 N1357 0.985 . S
H1364 N1361 0.984 . S
H1365 N1361 0.985 . S
H1366 N1360 0.984 . S
H1367 N1360 0.984 . S
H1368 N1356 0.984 . S
H1369 N1356 0.985 . S
C1370 C1371 1.363 . S
C1370 C1376 1.379 . S
C1370 N1378 1.356 . S
C1371 C1370 1.363 . S
C1371 C1377 1.363 . S
C1372 C1373 1.363 . S
C1372 C1377 1.379 . S
C1372 N1379 1.356 . S
C1373 C1372 1.363 . S
C1373 C1376 1.363 . S
N1374 C1376 1.356 . S
N1374 H1386 0.984 . S
N1374 H1387 0.985 . S
N1375 C1377 1.356 1_565 S
N1375 H1380 0.984 . S
N1375 H1381 0.985 . S
C1376 C1370 1.379 . S
C1376 C1373 1.363 . S
C1376 N1374 1.356 . S
C1377 C1371 1.363 . S
C1377 C1372 1.379 . S
C1377 N1375 1.356 1_545 S
N1378 C1370 1.356 . S
N1378 H1384 0.984 . S
N1378 H1385 0.984 . S
N1379 C1372 1.356 . S
N1379 H1382 0.984 . S
N1379 H1383 0.985 . S
H1380 N1375 0.984 . S
H1381 N1375 0.985 . S
H1382 N1379 0.984 . S
H1383 N1379 0.985 . S
H1384 N1378 0.984 . S
H1385 N1378 0.984 . S
H1386 N1374 0.984 . S
H1387 N1374 0.985 . S
C1388 C1389 1.363 . S
C1388 C1394 1.379 . S
C1388 N1396 1.356 . S
C1389 C1388 1.363 . S
C1389 C1395 1.363 . S
C1390 C1391 1.363 . S
C1390 C1395 1.379 . S
C1390 N1397 1.356 . S
C1391 C1390 1.363 . S
C1391 C1394 1.363 . S
N1392 C1394 1.356 . S
N1392 H1404 0.984 . S
N1392 H1405 0.985 . S
N1393 C1395 1.356 . S
N1393 H1398 0.984 . S
N1393 H1399 0.985 . S
C1394 C1388 1.379 . S
C1394 C1391 1.363 . S
C1394 N1392 1.356 . S
C1395 C1389 1.363 . S
C1395 C1390 1.379 . S
C1395 N1393 1.356 . S
N1396 C1388 1.356 . S
N1396 H1402 0.984 . S
N1396 H1403 0.984 . S
N1397 C1390 1.356 . S
N1397 H1400 0.984 . S
N1397 H1401 0.985 . S
H1398 N1393 0.984 . S
H1399 N1393 0.985 . S
H1400 N1397 0.984 . S
H1401 N1397 0.985 . S
H1402 N1396 0.984 . S
H1403 N1396 0.984 . S
H1404 N1392 0.984 . S
H1405 N1392 0.985 . S
C1406 C1407 1.348 1_455 S
C1406 C1412 1.379 . S
C1406 N1414 1.356 . S
C1407 C1406 1.348 1_655 S
C1407 C1413 1.378 . S
C1408 C1409 1.359 1_655 S
C1408 C1413 1.379 . S
C1408 N1415 1.356 . S
C1409 C1408 1.359 1_455 S
C1409 C1412 1.367 . S
N1410 C1412 1.356 . S
N1410 H1422 0.984 . S
N1410 H1423 0.985 . S
N1411 C1413 1.356 . S
N1411 H1416 0.984 . S
N1411 H1417 0.985 . S
C1412 C1406 1.379 . S
C1412 C1409 1.367 . S
C1412 N1410 1.356 . S
C1413 C1407 1.378 . S
C1413 C1408 1.379 . S
C1413 N1411 1.356 . S
N1414 C1406 1.356 . S
N1414 H1420 0.984 . S
N1414 H1421 0.984 . S
N1415 C1408 1.356 . S
N1415 H1418 0.984 . S
N1415 H1419 0.985 . S
H1416 N1411 0.984 . S
H1417 N1411 0.985 . S
H1418 N1415 0.984 . S
H1419 N1415 0.985 . S
H1420 N1414 0.984 . S
H1421 N1414 0.984 . S
H1422 N1410 0.984 . S
H1423 N1410 0.985 . S
C849 C303 1.318 . S
C851 C29 1.243 . S
C867 C347 1.420 . S
C869 C91 1.493 . S
C885 C135 1.203 . S
C887 C409 1.360 . S
C903 C197 1.091 . S
C905 C241 0.958 . S
C921 C453 1.462 . S
C923 C718 1.334 . S
C939 C771 1.738 . S
C941 C506 1.708 . S
C957 C824 1.622 . S
C959 C559 1.616 . S
C975 C612 1.122 . S
C977 C665 1.206 . S
C993 C22 2.375 . S
C995 C675 2.465 1_565 S
C1011 C728 2.187 . S
C1013 C92 2.159 . S
C1029 C128 2.587 . S
C1031 C781 2.704 . S
C1047 C198 1.994 . S
C1049 C834 1.991 1_655 S
C1065 C234 2.404 . S
C1067 C463 2.494 1_545 S
C1083 C304 2.422 . S
C1085 C516 2.470 . S
C1101 C340 2.414 . S
C1103 C569 2.492 . S
C1119 C410 1.765 . S
C1121 C622 1.744 . S
C1137 C251 1.396 . S
C1139 C446 1.443 . S
C1155 C287 2.086 . S
C1157 C499 2.062 . S
C1173 C357 2.223 . S
C1175 C552 2.136 . S
C1191 C605 2.095 . S
C1193 C393 2.166 1_455 S
C1209 C39 1.696 . S
C1211 C658 1.688 . S
C1227 C711 2.212 . S
C1229 C75 2.282 . S
C1245 C764 1.813 . S
C1247 C145 1.846 . S
C1263 C181 2.099 1_655 S
C1265 C817 2.054 . S
C1281 C462 1.701 . S
C1283 C38 1.756 . S
C1299 C515 2.283 . S
C1301 C82 2.195 . S
C1317 C144 2.497 1_554 S
C1319 C568 2.412 . S
C1335 C621 2.076 . S
C1337 C188 2.025 1_655 S
C1353 C250 2.073 . S
C1355 C674 1.998 . S
C1371 C727 2.579 1_545 S
C1373 C294 2.477 . S
C1389 C780 2.093 . S
C1391 C356 2.155 . S
C1407 C833 1.758 . S
C1409 C400 1.710 . S
