# Generated by pormake.
# Topology sxp, (6)-cn, num edge types: 1
# Building blocks:
#     Node 0, Type 0, BuildingBlock: OJICUG_clean_sbu_0, # of connection points: 6
#     Node 1, Type 0, BuildingBlock: OJICUG_clean_sbu_0, # of connection points: 6
#     Node 2, Type 0, BuildingBlock: OJICUG_clean_sbu_0, # of connection points: 6
#     Node 3, Type 0, BuildingBlock: OJICUG_clean_sbu_0, # of connection points: 6
#     Node 4, Type 0, BuildingBlock: OJICUG_clean_sbu_0, # of connection points: 6
#     Node 5, Type 0, BuildingBlock: OJICUG_clean_sbu_0, # of connection points: 6
#     Node 6, Type 0, BuildingBlock: OJICUG_clean_sbu_0, # of connection points: 6
#     Node 7, Type 0, BuildingBlock: OJICUG_clean_sbu_0, # of connection points: 6
#     Node 8, Type 0, BuildingBlock: OJICUG_clean_sbu_0, # of connection points: 6
#     Node 9, Type 0, BuildingBlock: OJICUG_clean_sbu_0, # of connection points: 6
#     Node 10, Type 0, BuildingBlock: OJICUG_clean_sbu_0, # of connection points: 6
#     Node 11, Type 0, BuildingBlock: OJICUG_clean_sbu_0, # of connection points: 6
#     Node 12, Type 0, BuildingBlock: OJICUG_clean_sbu_0, # of connection points: 6
#     Node 13, Type 0, BuildingBlock: OJICUG_clean_sbu_0, # of connection points: 6
#     Node 14, Type 0, BuildingBlock: OJICUG_clean_sbu_0, # of connection points: 6
#     Node 15, Type 0, BuildingBlock: OJICUG_clean_sbu_0, # of connection points: 6
#     Node 16, Type 0, BuildingBlock: OJICUG_clean_sbu_0, # of connection points: 6
#     Node 17, Type 0, BuildingBlock: OJICUG_clean_sbu_0, # of connection points: 6
#     Node 18, Type 0, BuildingBlock: OJICUG_clean_sbu_0, # of connection points: 6
#     Node 19, Type 0, BuildingBlock: OJICUG_clean_sbu_0, # of connection points: 6
#     Node 20, Type 0, BuildingBlock: OJICUG_clean_sbu_0, # of connection points: 6
#     Node 21, Type 0, BuildingBlock: OJICUG_clean_sbu_0, # of connection points: 6
#     Node 22, Type 0, BuildingBlock: OJICUG_clean_sbu_0, # of connection points: 6
#     Node 23, Type 0, BuildingBlock: OJICUG_clean_sbu_0, # of connection points: 6
#     Node 24, Type 0, BuildingBlock: OJICUG_clean_sbu_0, # of connection points: 6
#     Node 25, Type 0, BuildingBlock: OJICUG_clean_sbu_0, # of connection points: 6
#     Node 26, Type 0, BuildingBlock: OJICUG_clean_sbu_0, # of connection points: 6
#     Node 27, Type 0, BuildingBlock: OJICUG_clean_sbu_0, # of connection points: 6
#     Node 28, Type 0, BuildingBlock: OJICUG_clean_sbu_0, # of connection points: 6
#     Node 29, Type 0, BuildingBlock: OJICUG_clean_sbu_0, # of connection points: 6
#     Node 30, Type 0, BuildingBlock: OJICUG_clean_sbu_0, # of connection points: 6
#     Node 31, Type 0, BuildingBlock: OJICUG_clean_sbu_0, # of connection points: 6
#     Node 32, Type 0, BuildingBlock: OJICUG_clean_sbu_0, # of connection points: 6
#     Node 33, Type 0, BuildingBlock: OJICUG_clean_sbu_0, # of connection points: 6
#     Node 34, Type 0, BuildingBlock: OJICUG_clean_sbu_0, # of connection points: 6
#     Node 35, Type 0, BuildingBlock: OJICUG_clean_sbu_0, # of connection points: 6
#     Node 36, Type 0, BuildingBlock: OJICUG_clean_sbu_0, # of connection points: 6
#     Node 37, Type 0, BuildingBlock: OJICUG_clean_sbu_0, # of connection points: 6
#     Node 38, Type 0, BuildingBlock: OJICUG_clean_sbu_0, # of connection points: 6
#     Node 39, Type 0, BuildingBlock: OJICUG_clean_sbu_0, # of connection points: 6
#     Node 40, Type 0, BuildingBlock: OJICUG_clean_sbu_0, # of connection points: 6
#     Node 41, Type 0, BuildingBlock: OJICUG_clean_sbu_0, # of connection points: 6
#     Node 42, Type 0, BuildingBlock: OJICUG_clean_sbu_0, # of connection points: 6
#     Node 43, Type 0, BuildingBlock: OJICUG_clean_sbu_0, # of connection points: 6
#     Node 44, Type 0, BuildingBlock: OJICUG_clean_sbu_0, # of connection points: 6
#     Node 45, Type 0, BuildingBlock: OJICUG_clean_sbu_0, # of connection points: 6
#     Node 46, Type 0, BuildingBlock: OJICUG_clean_sbu_0, # of connection points: 6
#     Node 47, Type 0, BuildingBlock: OJICUG_clean_sbu_0, # of connection points: 6
#     Node 48, Type 0, BuildingBlock: OJICUG_clean_sbu_0, # of connection points: 6
#     Node 49, Type 0, BuildingBlock: OJICUG_clean_sbu_0, # of connection points: 6
#     Node 50, Type 0, BuildingBlock: OJICUG_clean_sbu_0, # of connection points: 6
#     Node 51, Type 0, BuildingBlock: OJICUG_clean_sbu_0, # of connection points: 6
#     Node 52, Type 0, BuildingBlock: OJICUG_clean_sbu_0, # of connection points: 6
#     Node 53, Type 0, BuildingBlock: OJICUG_clean_sbu_0, # of connection points: 6
#     Node 54, Type 0, BuildingBlock: OJICUG_clean_sbu_0, # of connection points: 6
#     Node 55, Type 0, BuildingBlock: OJICUG_clean_sbu_0, # of connection points: 6
#     Node 56, Type 0, BuildingBlock: OJICUG_clean_sbu_0, # of connection points: 6
#     Node 57, Type 0, BuildingBlock: OJICUG_clean_sbu_0, # of connection points: 6
#     Node 58, Type 0, BuildingBlock: OJICUG_clean_sbu_0, # of connection points: 6
#     Node 59, Type 0, BuildingBlock: OJICUG_clean_sbu_0, # of connection points: 6
#     Node 60, Type 0, BuildingBlock: OJICUG_clean_sbu_0, # of connection points: 6
#     Node 61, Type 0, BuildingBlock: OJICUG_clean_sbu_0, # of connection points: 6
#     Node 62, Type 0, BuildingBlock: OJICUG_clean_sbu_0, # of connection points: 6
#     Node 63, Type 0, BuildingBlock: OJICUG_clean_sbu_0, # of connection points: 6
#     Node 64, Type 0, BuildingBlock: OJICUG_clean_sbu_0, # of connection points: 6
#     Node 65, Type 0, BuildingBlock: OJICUG_clean_sbu_0, # of connection points: 6
#     Node 66, Type 0, BuildingBlock: OJICUG_clean_sbu_0, # of connection points: 6
#     Node 67, Type 0, BuildingBlock: OJICUG_clean_sbu_0, # of connection points: 6
#     Node 68, Type 0, BuildingBlock: OJICUG_clean_sbu_0, # of connection points: 6
#     Node 69, Type 0, BuildingBlock: OJICUG_clean_sbu_0, # of connection points: 6
#     Node 70, Type 0, BuildingBlock: OJICUG_clean_sbu_0, # of connection points: 6
#     Node 71, Type 0, BuildingBlock: OJICUG_clean_sbu_0, # of connection points: 6
#     Node 72, Type 0, BuildingBlock: OJICUG_clean_sbu_0, # of connection points: 6
#     Node 73, Type 0, BuildingBlock: OJICUG_clean_sbu_0, # of connection points: 6
#     Node 74, Type 0, BuildingBlock: OJICUG_clean_sbu_0, # of connection points: 6
#     Node 75, Type 0, BuildingBlock: OJICUG_clean_sbu_0, # of connection points: 6
#     Node 76, Type 0, BuildingBlock: OJICUG_clean_sbu_0, # of connection points: 6
#     Node 77, Type 0, BuildingBlock: OJICUG_clean_sbu_0, # of connection points: 6
#     Node 78, Type 0, BuildingBlock: OJICUG_clean_sbu_0, # of connection points: 6
#     Node 79, Type 0, BuildingBlock: OJICUG_clean_sbu_0, # of connection points: 6
#     Node 80, Type 0, BuildingBlock: OJICUG_clean_sbu_0, # of connection points: 6
#     Node 81, Type 0, BuildingBlock: OJICUG_clean_sbu_0, # of connection points: 6
#     Node 82, Type 0, BuildingBlock: OJICUG_clean_sbu_0, # of connection points: 6
#     Node 83, Type 0, BuildingBlock: OJICUG_clean_sbu_0, # of connection points: 6
#     Node 84, Type 0, BuildingBlock: OJICUG_clean_sbu_0, # of connection points: 6
#     Node 85, Type 0, BuildingBlock: OJICUG_clean_sbu_0, # of connection points: 6
#     Node 86, Type 0, BuildingBlock: OJICUG_clean_sbu_0, # of connection points: 6
#     Node 87, Type 0, BuildingBlock: OJICUG_clean_sbu_0, # of connection points: 6
#     Node 88, Type 0, BuildingBlock: OJICUG_clean_sbu_0, # of connection points: 6
#     Node 89, Type 0, BuildingBlock: OJICUG_clean_sbu_0, # of connection points: 6
#     Node 90, Type 0, BuildingBlock: OJICUG_clean_sbu_0, # of connection points: 6
#     Node 91, Type 0, BuildingBlock: OJICUG_clean_sbu_0, # of connection points: 6
#     Node 92, Type 0, BuildingBlock: OJICUG_clean_sbu_0, # of connection points: 6
#     Node 93, Type 0, BuildingBlock: OJICUG_clean_sbu_0, # of connection points: 6
#     Node 94, Type 0, BuildingBlock: OJICUG_clean_sbu_0, # of connection points: 6
#     Node 95, Type 0, BuildingBlock: OJICUG_clean_sbu_0, # of connection points: 6
#     Edge 96, Type (0, 0), None
#     Edge 97, Type (0, 0), None
#     Edge 98, Type (0, 0), None
#     Edge 99, Type (0, 0), None
#     Edge 100, Type (0, 0), None
#     Edge 101, Type (0, 0), None
#     Edge 102, Type (0, 0), None
#     Edge 103, Type (0, 0), None
#     Edge 104, Type (0, 0), None
#     Edge 105, Type (0, 0), None
#     Edge 106, Type (0, 0), None
#     Edge 107, Type (0, 0), None
#     Edge 108, Type (0, 0), None
#     Edge 109, Type (0, 0), None
#     Edge 110, Type (0, 0), None
#     Edge 111, Type (0, 0), None
#     Edge 112, Type (0, 0), None
#     Edge 113, Type (0, 0), None
#     Edge 114, Type (0, 0), None
#     Edge 115, Type (0, 0), None
#     Edge 116, Type (0, 0), None
#     Edge 117, Type (0, 0), None
#     Edge 118, Type (0, 0), None
#     Edge 119, Type (0, 0), None
#     Edge 120, Type (0, 0), None
#     Edge 121, Type (0, 0), None
#     Edge 122, Type (0, 0), None
#     Edge 123, Type (0, 0), None
#     Edge 124, Type (0, 0), None
#     Edge 125, Type (0, 0), None
#     Edge 126, Type (0, 0), None
#     Edge 127, Type (0, 0), None
#     Edge 128, Type (0, 0), None
#     Edge 129, Type (0, 0), None
#     Edge 130, Type (0, 0), None
#     Edge 131, Type (0, 0), None
#     Edge 132, Type (0, 0), None
#     Edge 133, Type (0, 0), None
#     Edge 134, Type (0, 0), None
#     Edge 135, Type (0, 0), None
#     Edge 136, Type (0, 0), None
#     Edge 137, Type (0, 0), None
#     Edge 138, Type (0, 0), None
#     Edge 139, Type (0, 0), None
#     Edge 140, Type (0, 0), None
#     Edge 141, Type (0, 0), None
#     Edge 142, Type (0, 0), None
#     Edge 143, Type (0, 0), None
#     Edge 144, Type (0, 0), None
#     Edge 145, Type (0, 0), None
#     Edge 146, Type (0, 0), None
#     Edge 147, Type (0, 0), None
#     Edge 148, Type (0, 0), None
#     Edge 149, Type (0, 0), None
#     Edge 150, Type (0, 0), None
#     Edge 151, Type (0, 0), None
#     Edge 152, Type (0, 0), None
#     Edge 153, Type (0, 0), None
#     Edge 154, Type (0, 0), None
#     Edge 155, Type (0, 0), None
#     Edge 156, Type (0, 0), None
#     Edge 157, Type (0, 0), None
#     Edge 158, Type (0, 0), None
#     Edge 159, Type (0, 0), None
#     Edge 160, Type (0, 0), None
#     Edge 161, Type (0, 0), None
#     Edge 162, Type (0, 0), None
#     Edge 163, Type (0, 0), None
#     Edge 164, Type (0, 0), None
#     Edge 165, Type (0, 0), None
#     Edge 166, Type (0, 0), None
#     Edge 167, Type (0, 0), None
#     Edge 168, Type (0, 0), None
#     Edge 169, Type (0, 0), None
#     Edge 170, Type (0, 0), None
#     Edge 171, Type (0, 0), None
#     Edge 172, Type (0, 0), None
#     Edge 173, Type (0, 0), None
#     Edge 174, Type (0, 0), None
#     Edge 175, Type (0, 0), None
#     Edge 176, Type (0, 0), None
#     Edge 177, Type (0, 0), None
#     Edge 178, Type (0, 0), None
#     Edge 179, Type (0, 0), None
#     Edge 180, Type (0, 0), None
#     Edge 181, Type (0, 0), None
#     Edge 182, Type (0, 0), None
#     Edge 183, Type (0, 0), None
#     Edge 184, Type (0, 0), None
#     Edge 185, Type (0, 0), None
#     Edge 186, Type (0, 0), None
#     Edge 187, Type (0, 0), None
#     Edge 188, Type (0, 0), None
#     Edge 189, Type (0, 0), None
#     Edge 190, Type (0, 0), None
#     Edge 191, Type (0, 0), None
#     Edge 192, Type (0, 0), None
#     Edge 193, Type (0, 0), None
#     Edge 194, Type (0, 0), None
#     Edge 195, Type (0, 0), None
#     Edge 196, Type (0, 0), None
#     Edge 197, Type (0, 0), None
#     Edge 198, Type (0, 0), None
#     Edge 199, Type (0, 0), None
#     Edge 200, Type (0, 0), None
#     Edge 201, Type (0, 0), None
#     Edge 202, Type (0, 0), None
#     Edge 203, Type (0, 0), None
#     Edge 204, Type (0, 0), None
#     Edge 205, Type (0, 0), None
#     Edge 206, Type (0, 0), None
#     Edge 207, Type (0, 0), None
#     Edge 208, Type (0, 0), None
#     Edge 209, Type (0, 0), None
#     Edge 210, Type (0, 0), None
#     Edge 211, Type (0, 0), None
#     Edge 212, Type (0, 0), None
#     Edge 213, Type (0, 0), None
#     Edge 214, Type (0, 0), None
#     Edge 215, Type (0, 0), None
#     Edge 216, Type (0, 0), None
#     Edge 217, Type (0, 0), None
#     Edge 218, Type (0, 0), None
#     Edge 219, Type (0, 0), None
#     Edge 220, Type (0, 0), None
#     Edge 221, Type (0, 0), None
#     Edge 222, Type (0, 0), None
#     Edge 223, Type (0, 0), None
#     Edge 224, Type (0, 0), None
#     Edge 225, Type (0, 0), None
#     Edge 226, Type (0, 0), None
#     Edge 227, Type (0, 0), None
#     Edge 228, Type (0, 0), None
#     Edge 229, Type (0, 0), None
#     Edge 230, Type (0, 0), None
#     Edge 231, Type (0, 0), None
#     Edge 232, Type (0, 0), None
#     Edge 233, Type (0, 0), None
#     Edge 234, Type (0, 0), None
#     Edge 235, Type (0, 0), None
#     Edge 236, Type (0, 0), None
#     Edge 237, Type (0, 0), None
#     Edge 238, Type (0, 0), None
#     Edge 239, Type (0, 0), None
#     Edge 240, Type (0, 0), None
#     Edge 241, Type (0, 0), None
#     Edge 242, Type (0, 0), None
#     Edge 243, Type (0, 0), None
#     Edge 244, Type (0, 0), None
#     Edge 245, Type (0, 0), None
#     Edge 246, Type (0, 0), None
#     Edge 247, Type (0, 0), None
#     Edge 248, Type (0, 0), None
#     Edge 249, Type (0, 0), None
#     Edge 250, Type (0, 0), None
#     Edge 251, Type (0, 0), None
#     Edge 252, Type (0, 0), None
#     Edge 253, Type (0, 0), None
#     Edge 254, Type (0, 0), None
#     Edge 255, Type (0, 0), None
#     Edge 256, Type (0, 0), None
#     Edge 257, Type (0, 0), None
#     Edge 258, Type (0, 0), None
#     Edge 259, Type (0, 0), None
#     Edge 260, Type (0, 0), None
#     Edge 261, Type (0, 0), None
#     Edge 262, Type (0, 0), None
#     Edge 263, Type (0, 0), None
#     Edge 264, Type (0, 0), None
#     Edge 265, Type (0, 0), None
#     Edge 266, Type (0, 0), None
#     Edge 267, Type (0, 0), None
#     Edge 268, Type (0, 0), None
#     Edge 269, Type (0, 0), None
#     Edge 270, Type (0, 0), None
#     Edge 271, Type (0, 0), None
#     Edge 272, Type (0, 0), None
#     Edge 273, Type (0, 0), None
#     Edge 274, Type (0, 0), None
#     Edge 275, Type (0, 0), None
#     Edge 276, Type (0, 0), None
#     Edge 277, Type (0, 0), None
#     Edge 278, Type (0, 0), None
#     Edge 279, Type (0, 0), None
#     Edge 280, Type (0, 0), None
#     Edge 281, Type (0, 0), None
#     Edge 282, Type (0, 0), None
#     Edge 283, Type (0, 0), None
#     Edge 284, Type (0, 0), None
#     Edge 285, Type (0, 0), None
#     Edge 286, Type (0, 0), None
#     Edge 287, Type (0, 0), None
#     Edge 288, Type (0, 0), None
#     Edge 289, Type (0, 0), None
#     Edge 290, Type (0, 0), None
#     Edge 291, Type (0, 0), None
#     Edge 292, Type (0, 0), None
#     Edge 293, Type (0, 0), None
#     Edge 294, Type (0, 0), None
#     Edge 295, Type (0, 0), None
#     Edge 296, Type (0, 0), None
#     Edge 297, Type (0, 0), None
#     Edge 298, Type (0, 0), None
#     Edge 299, Type (0, 0), None
#     Edge 300, Type (0, 0), None
#     Edge 301, Type (0, 0), None
#     Edge 302, Type (0, 0), None
#     Edge 303, Type (0, 0), None
#     Edge 304, Type (0, 0), None
#     Edge 305, Type (0, 0), None
#     Edge 306, Type (0, 0), None
#     Edge 307, Type (0, 0), None
#     Edge 308, Type (0, 0), None
#     Edge 309, Type (0, 0), None
#     Edge 310, Type (0, 0), None
#     Edge 311, Type (0, 0), None
#     Edge 312, Type (0, 0), None
#     Edge 313, Type (0, 0), None
#     Edge 314, Type (0, 0), None
#     Edge 315, Type (0, 0), None
#     Edge 316, Type (0, 0), None
#     Edge 317, Type (0, 0), None
#     Edge 318, Type (0, 0), None
#     Edge 319, Type (0, 0), None
#     Edge 320, Type (0, 0), None
#     Edge 321, Type (0, 0), None
#     Edge 322, Type (0, 0), None
#     Edge 323, Type (0, 0), None
#     Edge 324, Type (0, 0), None
#     Edge 325, Type (0, 0), None
#     Edge 326, Type (0, 0), None
#     Edge 327, Type (0, 0), None
#     Edge 328, Type (0, 0), None
#     Edge 329, Type (0, 0), None
#     Edge 330, Type (0, 0), None
#     Edge 331, Type (0, 0), None
#     Edge 332, Type (0, 0), None
#     Edge 333, Type (0, 0), None
#     Edge 334, Type (0, 0), None
#     Edge 335, Type (0, 0), None
#     Edge 336, Type (0, 0), None
#     Edge 337, Type (0, 0), None
#     Edge 338, Type (0, 0), None
#     Edge 339, Type (0, 0), None
#     Edge 340, Type (0, 0), None
#     Edge 341, Type (0, 0), None
#     Edge 342, Type (0, 0), None
#     Edge 343, Type (0, 0), None
#     Edge 344, Type (0, 0), None
#     Edge 345, Type (0, 0), None
#     Edge 346, Type (0, 0), None
#     Edge 347, Type (0, 0), None
#     Edge 348, Type (0, 0), None
#     Edge 349, Type (0, 0), None
#     Edge 350, Type (0, 0), None
#     Edge 351, Type (0, 0), None
#     Edge 352, Type (0, 0), None
#     Edge 353, Type (0, 0), None
#     Edge 354, Type (0, 0), None
#     Edge 355, Type (0, 0), None
#     Edge 356, Type (0, 0), None
#     Edge 357, Type (0, 0), None
#     Edge 358, Type (0, 0), None
#     Edge 359, Type (0, 0), None
#     Edge 360, Type (0, 0), None
#     Edge 361, Type (0, 0), None
#     Edge 362, Type (0, 0), None
#     Edge 363, Type (0, 0), None
#     Edge 364, Type (0, 0), None
#     Edge 365, Type (0, 0), None
#     Edge 366, Type (0, 0), None
#     Edge 367, Type (0, 0), None
#     Edge 368, Type (0, 0), None
#     Edge 369, Type (0, 0), None
#     Edge 370, Type (0, 0), None
#     Edge 371, Type (0, 0), None
#     Edge 372, Type (0, 0), None
#     Edge 373, Type (0, 0), None
#     Edge 374, Type (0, 0), None
#     Edge 375, Type (0, 0), None
#     Edge 376, Type (0, 0), None
#     Edge 377, Type (0, 0), None
#     Edge 378, Type (0, 0), None
#     Edge 379, Type (0, 0), None
#     Edge 380, Type (0, 0), None
#     Edge 381, Type (0, 0), None
#     Edge 382, Type (0, 0), None
#     Edge 383, Type (0, 0), None
# Relax obj value: 0.485
# Max RMSD: 0.166
# Mean RMSD: 0.166
data_MOF--net-sxp--node1-OJICUG_clean_sbu_0--edge1-none
_symmetry_space_group_name_H-M    P1
_symmetry_Int_Tables_number       1
_symmetry_cell_setting            triclinic
loop_
_symmetry_equiv_pos_as_xyz
'x, y, z'
_cell_length_a     32.165209
_cell_length_b     32.165071
_cell_length_c     32.165312
_cell_angle_alpha  90.0002
_cell_angle_beta   89.999882
_cell_angle_gamma 89.999896
loop_
_atom_site_label
_atom_site_type_symbol
_atom_site_fract_x
_atom_site_fract_y
_atom_site_fract_z
_atom_type_partial_charge
Sc0 Sc 0.17125 0.22332 0.27142 0.0
Sc1 Sc 0.08347 0.17309 0.27717 0.0
Sc2 Sc 0.11404 0.21742 0.36295 0.0
O3 O 0.12175 0.21047 0.30278 0.0
C4 C 0.20676 0.18962 0.35419 0.0
C5 C 0.16364 0.13489 0.23902 0.0
C6 C 0.12726 0.12365 0.34899 0.0
C7 C 0.11197 0.23563 0.20343 0.0
C8 C 0.1659 0.29224 0.3414 0.0
C9 C 0.03375 0.25017 0.31549 0.0
O10 O 0.20675 0.18737 0.31452 0.0
O11 O 0.13504 0.12629 0.2659 0.0
O12 O 0.10456 0.15012 0.36871 0.0
O13 O 0.12905 0.25716 0.23189 0.0
O14 O 0.13246 0.28096 0.35924 0.0
O15 O 0.0399 0.22776 0.28251 0.0
O16 O 0.18185 0.27412 0.31046 0.0
O17 O 0.09755 0.19937 0.21336 0.0
O18 O 0.04996 0.23906 0.3504 0.0
O19 O 0.1674 0.17216 0.22826 0.0
O20 O 0.17672 0.20305 0.37578 0.0
O21 O 0.12521 0.12455 0.30858 0.0
Sc22 Sc 0.06499 0.92125 0.52142 0.0
Sc23 Sc 0.11523 0.83347 0.52717 0.0
Sc24 Sc 0.07088 0.86406 0.61295 0.0
O25 O 0.07784 0.87176 0.55278 0.0
C26 C 0.09869 0.95677 0.60418 0.0
C27 C 0.15342 0.91365 0.48902 0.0
C28 C 0.16465 0.87727 0.59899 0.0
C29 C 0.05267 0.86196 0.45343 0.0
C30 C 0.99606 0.9159 0.59138 0.0
C31 C 0.03814 0.78375 0.56548 0.0
O32 O 0.10093 0.95676 0.56451 0.0
O33 O 0.16202 0.88505 0.5159 0.0
O34 O 0.13818 0.85458 0.61871 0.0
O35 O 0.03114 0.87904 0.48189 0.0
O36 O 1.00734 0.88247 0.60923 0.0
O37 O 0.06056 0.78991 0.53251 0.0
O38 O 1.01419 0.93186 0.56045 0.0
O39 O 0.08894 0.84755 0.46336 0.0
O40 O 0.04924 0.79997 0.60039 0.0
O41 O 0.11615 0.9174 0.47826 0.0
O42 O 0.08525 0.92673 0.62577 0.0
O43 O 0.16376 0.87522 0.55858 0.0
Sc44 Sc 0.36705 0.81498 0.77142 0.0
Sc45 Sc 0.45483 0.86521 0.77717 0.0
Sc46 Sc 0.42425 0.82088 0.86296 0.0
O47 O 0.41655 0.82783 0.80278 0.0
C48 C 0.33154 0.84868 0.85419 0.0
C49 C 0.37465 0.90341 0.73902 0.0
C50 C 0.41104 0.91465 0.84899 0.0
C51 C 0.42633 0.80267 0.70343 0.0
C52 C 0.3724 0.74606 0.8414 0.0
C53 C 0.50455 0.78812 0.81549 0.0
O54 O 0.33155 0.85093 0.81452 0.0
O55 O 0.40326 0.91201 0.7659 0.0
O56 O 0.43373 0.88818 0.86871 0.0
O57 O 0.40924 0.78113 0.73189 0.0
O58 O 0.40584 0.75734 0.85924 0.0
O59 O 0.49839 0.81054 0.78251 0.0
O60 O 0.35644 0.76418 0.81046 0.0
O61 O 0.44074 0.83893 0.71337 0.0
O62 O 0.48833 0.79923 0.8504 0.0
O63 O 0.3709 0.86614 0.72827 0.0
O64 O 0.36157 0.83525 0.87578 0.0
O65 O 0.41308 0.91375 0.80858 0.0
Sc66 Sc 0.46741 0.17425 0.11295 0.0
Sc67 Sc 0.42307 0.20483 0.02717 0.0
Sc68 Sc 0.47331 0.11705 0.02141 0.0
O69 O 0.46045 0.16654 0.05277 0.0
C70 C 0.54223 0.1224 0.09138 0.0
C71 C 0.50015 0.25455 0.06548 0.0
C72 C 0.48562 0.17634 0.95343 0.0
C73 C 0.37364 0.16103 0.09899 0.0
C74 C 0.43961 0.08153 0.10418 0.0
C75 C 0.38488 0.12465 0.98901 0.0
O76 O 0.53095 0.15583 0.10923 0.0
O77 O 0.47774 0.24839 0.03251 0.0
O78 O 0.50715 0.15925 0.98189 0.0
O79 O 0.40011 0.18372 0.11871 0.0
O80 O 0.43736 0.08154 0.06451 0.0
O81 O 0.37628 0.15325 1.0159 0.0
O82 O 0.45304 0.11157 0.12577 0.0
O83 O 0.37454 0.16308 0.05858 0.0
O84 O 0.42215 0.1209 0.97826 0.0
O85 O 0.48905 0.23833 0.10039 0.0
O86 O 0.5241 0.10644 0.06045 0.0
O87 O 0.44935 0.19075 0.96336 0.0
Sc88 Sc 0.11405 0.82087 0.17534 0.0
Sc89 Sc 0.08347 0.86521 0.26112 0.0
Sc90 Sc 0.17126 0.81498 0.26687 0.0
O91 O 0.12176 0.82783 0.23551 0.0
C92 C 0.16591 0.74606 0.1969 0.0
C93 C 0.03376 0.78812 0.22281 0.0
C94 C 0.11198 0.80267 0.33486 0.0
C95 C 0.12727 0.91464 0.1893 0.0
C96 C 0.20676 0.84868 0.1841 0.0
C97 C 0.16365 0.90341 0.29927 0.0
O98 O 0.13247 0.75734 0.17906 0.0
O99 O 0.03991 0.81053 0.25579 0.0
O100 O 0.12906 0.78114 0.3064 0.0
O101 O 0.10457 0.88817 0.16958 0.0
O102 O 0.20676 0.85092 0.22377 0.0
O103 O 0.13504 0.91201 0.27239 0.0
O104 O 0.17673 0.83524 0.16251 0.0
O105 O 0.12522 0.91375 0.22971 0.0
O106 O 0.1674 0.86614 0.31003 0.0
O107 O 0.04997 0.79923 0.1879 0.0
O108 O 0.18186 0.76418 0.22783 0.0
O109 O 0.09756 0.83893 0.32493 0.0
Sc110 Sc 0.47331 0.92126 0.51688 0.0
Sc111 Sc 0.42308 0.83347 0.51112 0.0
Sc112 Sc 0.46742 0.86406 0.42534 0.0
O113 O 0.46046 0.87176 0.48551 0.0
C114 C 0.43961 0.95677 0.43411 0.0
C115 C 0.38488 0.91365 0.54927 0.0
C116 C 0.37365 0.87727 0.4393 0.0
C117 C 0.48562 0.86197 0.58486 0.0
C118 C 0.54223 0.91591 0.44691 0.0
C119 C 0.50017 0.78376 0.4728 0.0
O120 O 0.43736 0.95676 0.47378 0.0
O121 O 0.37628 0.88505 0.52239 0.0
O122 O 0.40012 0.85458 0.41958 0.0
O123 O 0.50715 0.87905 0.5564 0.0
O124 O 0.53095 0.88247 0.42906 0.0
O125 O 0.47775 0.78991 0.50578 0.0
O126 O 0.5241 0.93186 0.47784 0.0
O127 O 0.44936 0.84756 0.57493 0.0
O128 O 0.48906 0.79998 0.43789 0.0
O129 O 0.42215 0.9174 0.56003 0.0
O130 O 0.45304 0.92674 0.41252 0.0
O131 O 0.37454 0.87522 0.47971 0.0
Sc132 Sc 0.36704 0.22332 0.76687 0.0
Sc133 Sc 0.45482 0.17309 0.76112 0.0
Sc134 Sc 0.42424 0.21743 0.67534 0.0
O135 O 0.41654 0.21047 0.73551 0.0
C136 C 0.33153 0.18962 0.6841 0.0
C137 C 0.37465 0.13489 0.79927 0.0
C138 C 0.41103 0.12366 0.6893 0.0
C139 C 0.42632 0.23563 0.83486 0.0
C140 C 0.37239 0.29224 0.6969 0.0
C141 C 0.50454 0.25018 0.72281 0.0
O142 O 0.33154 0.18738 0.72377 0.0
O143 O 0.40325 0.12629 0.77239 0.0
O144 O 0.43373 0.15013 0.66958 0.0
O145 O 0.40923 0.25717 0.8064 0.0
O146 O 0.40583 0.28096 0.67906 0.0
O147 O 0.49838 0.22777 0.75579 0.0
O148 O 0.35643 0.27412 0.72783 0.0
O149 O 0.44074 0.19937 0.82493 0.0
O150 O 0.48833 0.23907 0.6879 0.0
O151 O 0.37089 0.17216 0.81003 0.0
O152 O 0.36157 0.20306 0.66251 0.0
O153 O 0.41308 0.12455 0.72971 0.0
Sc154 Sc 0.07088 0.17425 0.92534 0.0
Sc155 Sc 0.11522 0.20482 1.01112 0.0
Sc156 Sc 0.06498 0.11704 1.01687 0.0
O157 O 0.07783 0.16654 0.98552 0.0
C158 C 0.99606 0.1224 0.94689 0.0
C159 C 0.03813 0.25455 0.97281 0.0
C160 C 0.05267 0.17632 0.08486 0.0
C161 C 0.16465 0.16103 0.9393 0.0
C162 C 0.09868 0.08154 0.9341 0.0
C163 C 0.15341 0.12464 0.04927 0.0
O164 O 1.00734 0.15584 0.92906 0.0
O165 O 0.06055 0.24839 1.00579 0.0
O166 O 0.03114 0.15924 0.0564 0.0
O167 O 0.13818 0.18373 0.91958 0.0
O168 O 0.10093 0.08155 0.97377 0.0
O169 O 0.16201 0.15325 0.02239 0.0
O170 O 0.08525 0.11157 0.91251 0.0
O171 O 0.16375 0.16307 0.97972 0.0
O172 O 0.11614 0.12089 0.06003 0.0
O173 O 0.04924 0.23833 0.9379 0.0
O174 O 1.01418 0.10644 0.97783 0.0
O175 O 0.08894 0.19073 0.07493 0.0
Sc176 Sc 0.27143 0.17128 0.22331 0.0
Sc177 Sc 0.27716 0.08348 0.17309 0.0
Sc178 Sc 0.36295 0.11405 0.21743 0.0
O179 O 0.30277 0.12176 0.21047 0.0
C180 C 0.3542 0.20676 0.18961 0.0
C181 C 0.23901 0.16365 0.13489 0.0
C182 C 0.34898 0.12728 0.12366 0.0
C183 C 0.20346 0.11197 0.23565 0.0
C184 C 0.3414 0.16592 0.29223 0.0
C185 C 0.31548 0.03376 0.25017 0.0
O186 O 0.31453 0.20675 0.18734 0.0
O187 O 0.26589 0.13505 0.12629 0.0
O188 O 0.36871 0.10459 0.15012 0.0
O189 O 0.23188 0.12912 0.25719 0.0
O190 O 0.35922 0.13246 0.28096 0.0
O191 O 0.2825 0.03992 0.22776 0.0
O192 O 0.31048 0.18189 0.2741 0.0
O193 O 0.21336 0.09757 0.19937 0.0
O194 O 0.35039 0.04997 0.23906 0.0
O195 O 0.22826 0.16741 0.17216 0.0
O196 O 0.37578 0.17673 0.20306 0.0
O197 O 0.30857 0.12522 0.12455 0.0
Sc198 Sc 0.17424 0.11296 0.46743 0.0
Sc199 Sc 0.20481 0.02718 0.42309 0.0
Sc200 Sc 0.11701 0.02144 0.47332 0.0
O201 O 0.16653 0.05278 0.46048 0.0
C202 C 0.12238 0.09142 0.54224 0.0
C203 C 0.25454 0.06549 0.50017 0.0
C204 C 0.17633 0.95347 0.48565 0.0
C205 C 0.161 0.09899 0.37366 0.0
C206 C 0.08152 0.10421 0.43963 0.0
C207 C 0.12463 0.98902 0.3849 0.0
O208 O 0.15583 0.10924 0.53096 0.0
O209 O 0.24838 0.03251 0.47776 0.0
O210 O 0.15918 0.98189 0.50719 0.0
O211 O 0.1837 0.11872 0.40012 0.0
O212 O 0.08153 0.06454 0.43736 0.0
O213 O 0.15323 1.0159 0.3763 0.0
O214 O 0.11156 0.1258 0.45307 0.0
O215 O 0.16306 0.05858 0.37455 0.0
O216 O 0.12088 0.97827 0.42217 0.0
O217 O 0.23832 0.1004 0.48906 0.0
O218 O 0.10641 0.06049 0.52411 0.0
O219 O 0.19073 0.96337 0.44937 0.0
Sc220 Sc 0.26687 0.86702 0.72331 0.0
Sc221 Sc 0.26114 0.95482 0.67309 0.0
Sc222 Sc 0.17535 0.92425 0.71743 0.0
O223 O 0.23553 0.91654 0.71047 0.0
C224 C 0.1841 0.83154 0.68961 0.0
C225 C 0.29929 0.87465 0.63489 0.0
C226 C 0.18931 0.91102 0.62366 0.0
C227 C 0.33484 0.92633 0.73565 0.0
C228 C 0.19689 0.87238 0.79223 0.0
C229 C 0.22282 1.00454 0.75017 0.0
O230 O 0.22376 0.83155 0.68734 0.0
O231 O 0.27241 0.90325 0.62629 0.0
O232 O 0.16959 0.93371 0.65012 0.0
O233 O 0.30642 0.90918 0.75719 0.0
O234 O 0.17908 0.90584 0.78096 0.0
O235 O 0.2558 0.99839 0.72776 0.0
O236 O 0.22782 0.85641 0.7741 0.0
O237 O 0.32494 0.94073 0.69938 0.0
O238 O 0.18791 0.98833 0.73906 0.0
O239 O 0.31004 0.87089 0.67216 0.0
O240 O 0.16252 0.86157 0.70306 0.0
O241 O 0.22973 0.91308 0.62455 0.0
Sc242 Sc 0.42128 1.01686 0.97332 0.0
Sc243 Sc 0.33349 1.01112 0.92309 0.0
Sc244 Sc 0.36406 0.92534 0.96743 0.0
O245 O 0.37177 0.98552 0.96047 0.0
C246 C 0.45678 0.93409 0.93963 0.0
C247 C 0.41367 0.04928 0.8849 0.0
C248 C 0.37729 0.93931 0.87366 0.0
C249 C 0.36197 0.08483 0.98565 0.0
C250 C 0.41591 0.94688 0.04224 0.0
C251 C 0.28376 0.97281 1.00017 0.0
O252 O 0.45676 0.97376 0.93737 0.0
O253 O 0.38506 0.0224 0.8763 0.0
O254 O 0.3546 0.91958 0.90012 0.0
O255 O 0.37912 0.05641 1.00719 0.0
O256 O 0.38246 0.92906 0.03096 0.0
O257 O 0.28992 1.00579 0.97776 0.0
O258 O 0.43188 0.97781 0.02411 0.0
O259 O 0.34757 0.07493 0.94937 0.0
O260 O 0.29997 0.9379 0.98906 0.0
O261 O 0.41742 0.06003 0.92217 0.0
O262 O 0.42674 0.9125 0.95307 0.0
O263 O 0.37523 0.97972 0.87455 0.0
Sc264 Sc 0.36295 0.92424 0.32086 0.0
Sc265 Sc 0.27716 0.95482 0.36521 0.0
Sc266 Sc 0.27143 0.86702 0.31498 0.0
O267 O 0.30277 0.91654 0.32782 0.0
C268 C 0.3414 0.87238 0.24606 0.0
C269 C 0.31548 1.00454 0.28812 0.0
C270 C 0.20346 0.92633 0.30264 0.0
C271 C 0.34899 0.91102 0.41463 0.0
C272 C 0.3542 0.83153 0.34868 0.0
C273 C 0.23901 0.87465 0.40341 0.0
O274 O 0.35922 0.90583 0.25733 0.0
O275 O 0.2825 0.99838 0.31053 0.0
O276 O 0.23188 0.90918 0.28111 0.0
O277 O 0.36871 0.93371 0.38817 0.0
O278 O 0.31453 0.83155 0.35096 0.0
O279 O 0.26589 0.90325 0.41201 0.0
O280 O 0.37578 0.86156 0.33523 0.0
O281 O 0.30857 0.91308 0.41375 0.0
O282 O 0.22826 0.87089 0.36614 0.0
O283 O 0.35039 0.98833 0.29923 0.0
O284 O 0.31048 0.8564 0.2642 0.0
O285 O 0.21336 0.94073 0.33892 0.0
Sc286 Sc 0.36405 0.11296 0.57086 0.0
Sc287 Sc 0.33348 0.02718 0.6152 0.0
Sc288 Sc 0.42128 0.02144 0.56497 0.0
O289 O 0.37176 0.05278 0.57781 0.0
C290 C 0.41591 0.09142 0.49605 0.0
C291 C 0.28375 0.06549 0.53812 0.0
C292 C 0.36197 0.95347 0.55264 0.0
C293 C 0.37729 0.099 0.66463 0.0
C294 C 0.45677 0.10422 0.59866 0.0
C295 C 0.41366 0.98903 0.65339 0.0
O296 O 0.38246 0.10924 0.50733 0.0
O297 O 0.28991 0.03251 0.56053 0.0
O298 O 0.37912 0.98189 0.5311 0.0
O299 O 0.35459 0.11872 0.63817 0.0
O300 O 0.45676 0.06455 0.60093 0.0
O301 O 0.38505 1.0159 0.66199 0.0
O302 O 0.42673 0.1258 0.58522 0.0
O303 O 0.37523 0.05858 0.66374 0.0
O304 O 0.41741 0.97828 0.61612 0.0
O305 O 0.29997 0.1004 0.54923 0.0
O306 O 0.43188 0.06049 0.51418 0.0
O307 O 0.34756 0.96337 0.58892 0.0
Sc308 Sc 0.17535 0.11406 0.82086 0.0
Sc309 Sc 0.26113 0.08348 0.86521 0.0
Sc310 Sc 0.26687 0.17128 0.81498 0.0
O311 O 0.23553 0.12177 0.82782 0.0
C312 C 0.1969 0.16592 0.74606 0.0
C313 C 0.22282 0.03376 0.78812 0.0
C314 C 0.33483 0.11197 0.80264 0.0
C315 C 0.18931 0.12728 0.91463 0.0
C316 C 0.1841 0.20677 0.84868 0.0
C317 C 0.29929 0.16366 0.90341 0.0
O318 O 0.17908 0.13247 0.75733 0.0
O319 O 0.2558 0.03992 0.81054 0.0
O320 O 0.30641 0.12912 0.78111 0.0
O321 O 0.16958 0.10459 0.88817 0.0
O322 O 0.22377 0.20675 0.85095 0.0
O323 O 0.27241 0.13505 0.91201 0.0
O324 O 0.16252 0.17674 0.83523 0.0
O325 O 0.22973 0.12523 0.91375 0.0
O326 O 0.31004 0.16741 0.86614 0.0
O327 O 0.18791 0.04997 0.79923 0.0
O328 O 0.22782 0.1819 0.7642 0.0
O329 O 0.32494 0.09757 0.83892 0.0
Sc330 Sc 0.17424 0.92534 0.07086 0.0
Sc331 Sc 0.20482 1.01112 0.1152 0.0
Sc332 Sc 0.11702 1.01686 0.06498 0.0
O333 O 0.16653 0.98552 0.07782 0.0
C334 C 0.12238 0.94689 0.99606 0.0
C335 C 0.25454 0.97281 0.03812 0.0
C336 C 0.17633 0.08483 0.05264 0.0
C337 C 0.16101 0.9393 0.16463 0.0
C338 C 0.08153 0.93409 0.09868 0.0
C339 C 0.12465 0.04928 0.15341 0.0
O340 O 0.15583 0.92907 1.00733 0.0
O341 O 0.24838 1.00579 0.06053 0.0
O342 O 0.15917 0.05641 0.0311 0.0
O343 O 0.18371 0.91957 0.13816 0.0
O344 O 0.08155 0.97375 0.10095 0.0
O345 O 0.15325 0.0224 0.162 0.0
O346 O 0.11156 0.9125 0.08522 0.0
O347 O 0.16307 0.97972 0.16374 0.0
O348 O 0.12089 0.06002 0.11613 0.0
O349 O 0.23833 0.9379 0.04923 0.0
O350 O 0.1064 0.97781 1.01419 0.0
O351 O 0.19073 0.07493 0.08892 0.0
Sc352 Sc 0.22332 0.27143 0.17127 0.0
Sc353 Sc 0.17308 0.27717 0.08347 0.0
Sc354 Sc 0.21742 0.36295 0.11405 0.0
O355 O 0.21047 0.30278 0.12176 0.0
C356 C 0.18961 0.35419 0.20676 0.0
C357 C 0.1349 0.23901 0.16362 0.0
C358 C 0.12365 0.34899 0.12726 0.0
C359 C 0.23565 0.20347 0.11196 0.0
C360 C 0.29223 0.34141 0.16591 0.0
C361 C 0.25017 0.31549 0.03375 0.0
O362 O 0.18734 0.31452 0.20675 0.0
O363 O 0.12628 0.26589 0.13503 0.0
O364 O 0.15012 0.36872 0.10457 0.0
O365 O 0.25719 0.23189 0.12911 0.0
O366 O 0.28096 0.35923 0.13246 0.0
O367 O 0.22776 0.28251 0.03991 0.0
O368 O 0.2741 0.31048 0.18188 0.0
O369 O 0.19937 0.21337 0.09756 0.0
O370 O 0.23906 0.3504 0.04997 0.0
O371 O 0.17217 0.22826 0.16741 0.0
O372 O 0.20305 0.37578 0.17673 0.0
O373 O 0.12454 0.30858 0.12522 0.0
Sc374 Sc 0.71743 0.17535 0.92423 0.0
Sc375 Sc 0.67309 0.26112 0.95481 0.0
Sc376 Sc 0.72332 0.26688 0.86703 0.0
O377 O 0.71047 0.23552 0.91653 0.0
C378 C 0.79224 0.19691 0.87237 0.0
C379 C 0.75018 0.22281 1.00453 0.0
C380 C 0.73563 0.33487 0.92631 0.0
C381 C 0.62366 0.18931 0.91102 0.0
C382 C 0.68962 0.18411 0.83152 0.0
C383 C 0.63489 0.29928 0.87464 0.0
O384 O 0.78096 0.17906 0.90581 0.0
O385 O 0.72776 0.25578 0.99838 0.0
O386 O 0.75717 0.30641 0.90923 0.0
O387 O 0.65013 0.16959 0.93371 0.0
O388 O 0.68737 0.22378 0.83153 0.0
O389 O 0.62629 0.2724 0.90324 0.0
O390 O 0.70306 0.16252 0.86155 0.0
O391 O 0.62455 0.22972 0.91306 0.0
O392 O 0.67216 0.31004 0.87089 0.0
O393 O 0.73908 0.1879 0.98831 0.0
O394 O 0.77411 0.22784 0.85642 0.0
O395 O 0.69937 0.32493 0.94073 0.0
Sc396 Sc 0.02141 0.47333 0.11705 0.0
Sc397 Sc 0.02718 0.42309 0.20482 0.0
Sc398 Sc 0.11296 0.46742 0.17424 0.0
O399 O 0.05278 0.46047 0.16654 0.0
C400 C 0.10418 0.43964 0.08152 0.0
C401 C 0.98902 0.3849 0.12464 0.0
C402 C 0.09899 0.37366 0.16101 0.0
C403 C 0.95342 0.48562 0.17634 0.0
C404 C 0.09139 0.54225 0.1224 0.0
C405 C 0.06549 0.50017 0.25454 0.0
O406 O 0.06451 0.4374 0.08153 0.0
O407 O 1.0159 0.37629 0.15325 0.0
O408 O 0.11871 0.40012 0.18371 0.0
O409 O 0.98188 0.50716 0.15926 0.0
O410 O 0.10924 0.53096 0.15583 0.0
O411 O 0.03252 0.47776 0.24839 0.0
O412 O 0.06045 0.52413 0.10645 0.0
O413 O 0.96336 0.44936 0.19075 0.0
O414 O 0.1004 0.48906 0.23832 0.0
O415 O 0.97826 0.42217 0.12089 0.0
O416 O 0.12578 0.45306 0.11156 0.0
O417 O 0.05857 0.37454 0.16307 0.0
Sc418 Sc 0.81497 0.77142 0.36704 0.0
Sc419 Sc 0.86521 0.77717 0.45482 0.0
Sc420 Sc 0.82086 0.86295 0.42423 0.0
O421 O 0.82782 0.80278 0.41653 0.0
C422 C 0.84867 0.85418 0.33152 0.0
C423 C 0.9034 0.73902 0.37464 0.0
C424 C 0.91463 0.84899 0.41102 0.0
C425 C 0.80266 0.70343 0.42632 0.0
C426 C 0.74605 0.84139 0.37238 0.0
C427 C 0.78812 0.81549 0.50454 0.0
O428 O 0.85092 0.81451 0.33153 0.0
O429 O 0.912 0.7659 0.40324 0.0
O430 O 0.88816 0.8687 0.43371 0.0
O431 O 0.78113 0.73189 0.40924 0.0
O432 O 0.75733 0.85924 0.40582 0.0
O433 O 0.81054 0.78251 0.49838 0.0
O434 O 0.76418 0.81046 0.35643 0.0
O435 O 0.83893 0.71337 0.44073 0.0
O436 O 0.79922 0.8504 0.48832 0.0
O437 O 0.86613 0.72826 0.37089 0.0
O438 O 0.83524 0.87577 0.36156 0.0
O439 O 0.91374 0.80857 0.41307 0.0
Sc440 Sc 0.92535 0.07086 0.17424 0.0
Sc441 Sc 1.01113 0.1152 0.20482 0.0
Sc442 Sc 1.01687 0.06497 0.11702 0.0
O443 O 0.98553 0.07782 0.16653 0.0
C444 C 0.94689 0.99605 0.12238 0.0
C445 C 0.97281 0.03812 0.25454 0.0
C446 C 0.08483 0.05264 0.17633 0.0
C447 C 0.93931 0.16463 0.16103 0.0
C448 C 0.93411 0.09868 0.08153 0.0
C449 C 0.04929 0.15338 0.12467 0.0
O450 O 0.92907 1.00733 0.15583 0.0
O451 O 1.00579 0.06053 0.24838 0.0
O452 O 0.05641 0.0311 0.15918 0.0
O453 O 0.91959 0.13816 0.18372 0.0
O454 O 0.97378 0.10094 0.08155 0.0
O455 O 0.02241 0.16201 0.15326 0.0
O456 O 0.91252 0.08523 0.11156 0.0
O457 O 0.97972 0.16374 0.16307 0.0
O458 O 0.06004 0.11612 0.12088 0.0
O459 O 0.9379 0.04923 0.23832 0.0
O460 O 0.97782 1.01419 0.10641 0.0
O461 O 0.07493 0.08892 0.19073 0.0
Sc462 Sc 0.32087 0.67535 0.61405 0.0
Sc463 Sc 0.36521 0.76113 0.58347 0.0
Sc464 Sc 0.31498 0.76687 0.67127 0.0
O465 O 0.32783 0.73552 0.62176 0.0
C466 C 0.24606 0.69689 0.66592 0.0
C467 C 0.28812 0.72281 0.53376 0.0
C468 C 0.30265 0.83483 0.61196 0.0
C469 C 0.41465 0.68931 0.62727 0.0
C470 C 0.34869 0.68411 0.70676 0.0
C471 C 0.40339 0.79929 0.66363 0.0
O472 O 0.25734 0.67907 0.63247 0.0
O473 O 0.31054 0.75579 0.53991 0.0
O474 O 0.28111 0.80641 0.62911 0.0
O475 O 0.38817 0.66959 0.60458 0.0
O476 O 0.35095 0.72378 0.70675 0.0
O477 O 0.41201 0.77241 0.63503 0.0
O478 O 0.33524 0.66252 0.67673 0.0
O479 O 0.41375 0.72972 0.62522 0.0
O480 O 0.36613 0.81004 0.66741 0.0
O481 O 0.29923 0.6879 0.54997 0.0
O482 O 0.2642 0.72782 0.68188 0.0
O483 O 0.33893 0.82493 0.59756 0.0
Sc484 Sc 0.11296 0.57088 0.36405 0.0
Sc485 Sc 0.02718 0.61521 0.33347 0.0
Sc486 Sc 0.02142 0.56497 0.42124 0.0
O487 O 0.05278 0.57783 0.37175 0.0
C488 C 0.09139 0.49605 0.41589 0.0
C489 C 0.06549 0.53813 0.28375 0.0
C490 C 0.95342 0.55268 0.36196 0.0
C491 C 0.09899 0.66465 0.37727 0.0
C492 C 0.10418 0.59867 0.45677 0.0
C493 C 0.98902 0.65341 0.41365 0.0
O494 O 0.10924 0.50734 0.38246 0.0
O495 O 0.03252 0.56054 0.28991 0.0
O496 O 0.98188 0.53114 0.37904 0.0
O497 O 0.11871 0.63818 0.35458 0.0
O498 O 0.06451 0.6009 0.45676 0.0
O499 O 1.0159 0.66201 0.38504 0.0
O500 O 0.12578 0.58525 0.42673 0.0
O501 O 0.05858 0.66375 0.37522 0.0
O502 O 0.97827 0.61614 0.4174 0.0
O503 O 0.10041 0.54924 0.29997 0.0
O504 O 0.06045 0.51417 0.43184 0.0
O505 O 0.96336 0.58894 0.34755 0.0
Sc506 Sc 0.42534 0.46742 0.86405 0.0
Sc507 Sc 0.51112 0.42308 0.83347 0.0
Sc508 Sc 0.51688 0.47333 0.92124 0.0
O509 O 0.48552 0.46047 0.87175 0.0
C510 C 0.4469 0.54225 0.91589 0.0
C511 C 0.4728 0.50017 0.78375 0.0
C512 C 0.58488 0.48562 0.86196 0.0
C513 C 0.4393 0.37365 0.87727 0.0
C514 C 0.43411 0.43963 0.95677 0.0
C515 C 0.54927 0.38489 0.91365 0.0
O516 O 0.42905 0.53096 0.88246 0.0
O517 O 0.50578 0.47776 0.7899 0.0
O518 O 0.55642 0.50716 0.87904 0.0
O519 O 0.41958 0.40012 0.85457 0.0
O520 O 0.47378 0.4374 0.95676 0.0
O521 O 0.52239 0.37629 0.88504 0.0
O522 O 0.41252 0.45305 0.92673 0.0
O523 O 0.47972 0.37455 0.87522 0.0
O524 O 0.56003 0.42216 0.9174 0.0
O525 O 0.43789 0.48906 0.79997 0.0
O526 O 0.47785 0.52413 0.93184 0.0
O527 O 0.57493 0.44935 0.84755 0.0
Sc528 Sc 0.86702 0.81501 0.76685 0.0
Sc529 Sc 0.95482 0.8652 0.76112 0.0
Sc530 Sc 0.92425 0.82086 0.67534 0.0
O531 O 0.91654 0.82782 0.73551 0.0
C532 C 0.87235 0.74609 0.69687 0.0
C533 C 0.92628 0.80265 0.83484 0.0
C534 C 1.00454 0.78812 0.72282 0.0
C535 C 0.87467 0.90343 0.7993 0.0
C536 C 0.83155 0.8487 0.68407 0.0
C537 C 0.91103 0.91462 0.6893 0.0
O538 O 0.85639 0.76423 0.72779 0.0
O539 O 0.94072 0.83891 0.82492 0.0
O540 O 0.98833 0.79923 0.6879 0.0
O541 O 0.8709 0.86615 0.81003 0.0
O542 O 0.86158 0.83523 0.6625 0.0
O543 O 0.91307 0.91374 0.72971 0.0
O544 O 0.83156 0.85099 0.72374 0.0
O545 O 0.90325 0.912 0.77238 0.0
O546 O 0.93373 0.88816 0.66959 0.0
O547 O 0.90918 0.78113 0.80638 0.0
O548 O 0.90584 0.75732 0.67908 0.0
O549 O 0.99839 0.81054 0.75579 0.0
Sc550 Sc 0.97325 0.11701 0.51684 0.0
Sc551 Sc 0.92307 0.20482 0.51112 0.0
Sc552 Sc 0.96743 0.17425 0.42534 0.0
O553 O 0.96046 0.16654 0.48551 0.0
C554 C 0.04216 0.12233 0.44685 0.0
C555 C 0.98564 0.17628 0.58483 0.0
C556 C 1.00016 0.25455 0.47282 0.0
C557 C 0.88485 0.12467 0.5493 0.0
C558 C 0.93958 0.08154 0.43406 0.0
C559 C 0.87366 0.16102 0.43929 0.0
O560 O 0.02401 0.10636 0.47777 0.0
O561 O 0.94938 0.19073 0.57492 0.0
O562 O 0.98905 0.23834 0.43791 0.0
O563 O 0.92212 0.12091 0.56003 0.0
O564 O 0.95308 0.11157 0.4125 0.0
O565 O 0.87455 0.16306 0.4797 0.0
O566 O 0.93726 0.08157 0.47373 0.0
O567 O 0.87627 0.15324 0.52238 0.0
O568 O 0.90013 0.18372 0.41957 0.0
O569 O 1.00715 0.15917 0.55637 0.0
O570 O 0.03097 0.15585 0.42912 0.0
O571 O 0.97774 0.24839 0.5058 0.0
Sc572 Sc 0.61405 0.21744 0.17534 0.0
Sc573 Sc 0.58348 0.1731 0.26112 0.0
Sc574 Sc 0.67128 0.22329 0.26684 0.0
O575 O 0.62176 0.21048 0.23551 0.0
C576 C 0.70675 0.18959 0.18407 0.0
C577 C 0.62727 0.12367 0.18929 0.0
C578 C 0.66363 0.13487 0.29929 0.0
C579 C 0.53375 0.25018 0.22281 0.0
C580 C 0.66595 0.29221 0.19686 0.0
C581 C 0.61202 0.23565 0.33484 0.0
O582 O 0.67672 0.20307 0.1625 0.0
O583 O 0.62523 0.12456 0.22971 0.0
O584 O 0.6674 0.17215 0.31002 0.0
O585 O 0.54997 0.23907 0.1879 0.0
O586 O 0.68191 0.27407 0.22778 0.0
O587 O 0.59758 0.19939 0.32492 0.0
O588 O 0.63246 0.28097 0.17908 0.0
O589 O 0.53991 0.22776 0.25579 0.0
O590 O 0.62912 0.25717 0.30638 0.0
O591 O 0.60457 0.15014 0.16958 0.0
O592 O 0.70673 0.1873 0.22373 0.0
O593 O 0.63505 0.1263 0.27238 0.0
Sc594 Sc 0.57086 0.86405 0.92534 0.0
Sc595 Sc 0.61522 0.83348 1.01112 0.0
Sc596 Sc 0.56504 0.92129 1.01684 0.0
O597 O 0.57784 0.87176 0.98551 0.0
C598 C 0.59871 0.95675 0.93406 0.0
C599 C 0.66463 0.87728 0.93929 0.0
C600 C 0.65345 0.91363 0.0493 0.0
C601 C 0.53814 0.78375 0.97282 0.0
C602 C 0.49613 0.91597 0.94685 0.0
C603 C 0.55265 0.86202 0.08483 0.0
O604 O 0.58522 0.92673 0.9125 0.0
O605 O 0.66375 0.87523 0.9797 0.0
O606 O 0.61617 0.91739 0.06003 0.0
O607 O 0.54925 0.79996 0.93791 0.0
O608 O 0.51428 0.93194 0.97777 0.0
O609 O 0.58891 0.84757 0.07492 0.0
O610 O 0.50732 0.88245 0.92912 0.0
O611 O 0.56055 0.78991 1.0058 0.0
O612 O 0.53114 0.87913 0.05637 0.0
O613 O 0.63816 0.85458 0.91957 0.0
O614 O 0.60104 0.95673 0.97373 0.0
O615 O 0.66202 0.88505 0.02238 0.0
Sc616 Sc 0.867 0.2233 0.77144 0.0
Sc617 Sc 0.9548 0.1731 0.77718 0.0
Sc618 Sc 0.92424 0.21746 0.86295 0.0
O619 O 0.91652 0.21048 0.80278 0.0
C620 C 0.87233 0.29222 0.84142 0.0
C621 C 0.92628 0.23565 0.70345 0.0
C622 C 1.00453 0.25019 0.81547 0.0
C623 C 0.87465 0.13488 0.739 0.0
C624 C 0.83156 0.18956 0.85422 0.0
C625 C 0.91102 0.12369 0.849 0.0
O626 O 0.85637 0.27408 0.81049 0.0
O627 O 0.94072 0.19939 0.71338 0.0
O628 O 0.98832 0.23909 0.85039 0.0
O629 O 0.87089 0.17216 0.72827 0.0
O630 O 0.86157 0.20308 0.87579 0.0
O631 O 0.91306 0.12457 0.80859 0.0
O632 O 0.83151 0.18734 0.81455 0.0
O633 O 0.90323 0.1263 0.76592 0.0
O634 O 0.93372 0.15016 0.86871 0.0
O635 O 0.90918 0.25717 0.73192 0.0
O636 O 0.90582 0.28099 0.85921 0.0
O637 O 0.99837 0.22777 0.7825 0.0
Sc638 Sc 0.56504 0.11702 0.52145 0.0
Sc639 Sc 0.61521 0.20482 0.52718 0.0
Sc640 Sc 0.57085 0.17426 0.61295 0.0
O641 O 0.57783 0.16655 0.55278 0.0
C642 C 0.49613 0.12233 0.59144 0.0
C643 C 0.55265 0.17628 0.45346 0.0
C644 C 0.53813 0.25455 0.56548 0.0
C645 C 0.65344 0.12467 0.489 0.0
C646 C 0.59871 0.08155 0.60423 0.0
C647 C 0.66462 0.16103 0.59901 0.0
O648 O 0.51427 0.10637 0.56052 0.0
O649 O 0.5889 0.19073 0.46338 0.0
O650 O 0.54924 0.23834 0.60039 0.0
O651 O 0.61617 0.12092 0.47826 0.0
O652 O 0.58521 0.11158 0.62579 0.0
O653 O 0.66374 0.16307 0.55859 0.0
O654 O 0.60103 0.08157 0.56456 0.0
O655 O 0.66201 0.15325 0.51591 0.0
O656 O 0.63815 0.18372 0.61872 0.0
O657 O 0.53114 0.15917 0.48193 0.0
O658 O 0.50731 0.15586 0.60917 0.0
O659 O 0.56054 0.24839 0.5325 0.0
Sc660 Sc 0.67129 0.815 0.27145 0.0
Sc661 Sc 0.58349 0.8652 0.27718 0.0
Sc662 Sc 0.61406 0.82085 0.36296 0.0
O663 O 0.62178 0.82782 0.30279 0.0
C664 C 0.66596 0.74608 0.34142 0.0
C665 C 0.61202 0.80265 0.20346 0.0
C666 C 0.53376 0.78811 0.31547 0.0
C667 C 0.66364 0.90342 0.23901 0.0
C668 C 0.70673 0.84875 0.35423 0.0
C669 C 0.62727 0.91462 0.34901 0.0
O670 O 0.68192 0.76422 0.3105 0.0
O671 O 0.59758 0.83891 0.21338 0.0
O672 O 0.54998 0.79921 0.35039 0.0
O673 O 0.6674 0.86615 0.22827 0.0
O674 O 0.67672 0.83523 0.3758 0.0
O675 O 0.62523 0.91374 0.30859 0.0
O676 O 0.70678 0.85096 0.31456 0.0
O677 O 0.63506 0.912 0.26592 0.0
O678 O 0.60457 0.88815 0.36872 0.0
O679 O 0.62911 0.78113 0.23192 0.0
O680 O 0.63248 0.75732 0.35921 0.0
O681 O 0.53992 0.81053 0.2825 0.0
Sc682 Sc 0.96744 0.86405 0.11295 0.0
Sc683 Sc 0.92309 0.83349 0.02718 0.0
Sc684 Sc 0.97327 0.9213 0.02146 0.0
O685 O 0.96047 0.87177 0.05279 0.0
C686 C 0.93954 0.95673 0.10424 0.0
C687 C 0.87367 0.87727 0.09901 0.0
C688 C 0.88486 0.91365 0.989 0.0
C689 C 1.00017 0.78376 0.06547 0.0
C690 C 0.04217 0.91598 0.09145 0.0
C691 C 0.98565 0.86203 0.95346 0.0
O692 O 0.95308 0.92672 0.1258 0.0
O693 O 0.87455 0.87524 0.05859 0.0
O694 O 0.92214 0.9174 0.97827 0.0
O695 O 0.98906 0.79997 0.10038 0.0
O696 O 0.02403 0.93194 0.06052 0.0
O697 O 0.94939 0.84758 0.96338 0.0
O698 O 0.03098 0.88245 0.10918 0.0
O699 O 0.97775 0.78992 0.0325 0.0
O700 O 1.00716 0.87914 0.98193 0.0
O701 O 0.90014 0.85458 0.11872 0.0
O702 O 0.9373 0.95677 0.06457 0.0
O703 O 0.87629 0.88507 1.01592 0.0
Sc704 Sc 0.76684 0.86699 0.81501 0.0
Sc705 Sc 0.76113 0.95481 0.8652 0.0
Sc706 Sc 0.67535 0.92425 0.82085 0.0
O707 O 0.73552 0.91653 0.82781 0.0
C708 C 0.69686 0.87233 0.74609 0.0
C709 C 0.83481 0.92628 0.80262 0.0
C710 C 0.72283 1.00454 0.78811 0.0
C711 C 0.7993 0.87466 0.90343 0.0
C712 C 0.68406 0.83155 0.8487 0.0
C713 C 0.6893 0.91102 0.91461 0.0
O714 O 0.72777 0.85635 0.76424 0.0
O715 O 0.82493 0.94072 0.83889 0.0
O716 O 0.68791 0.98833 0.79922 0.0
O717 O 0.81003 0.87089 0.86615 0.0
O718 O 0.6625 0.86157 0.83521 0.0
O719 O 0.72972 0.91307 0.91373 0.0
O720 O 0.72372 0.83157 0.85102 0.0
O721 O 0.77239 0.90325 0.912 0.0
O722 O 0.66958 0.93372 0.88815 0.0
O723 O 0.80639 0.90911 0.7811 0.0
O724 O 0.6791 0.90584 0.75732 0.0
O725 O 0.7558 0.99838 0.81053 0.0
Sc726 Sc 0.92131 1.01683 0.56499 0.0
Sc727 Sc 0.8335 1.01112 0.6152 0.0
Sc728 Sc 0.86406 0.92533 0.57085 0.0
O729 O 0.87178 0.98551 0.57781 0.0
C730 C 0.91596 0.94685 0.49607 0.0
C731 C 0.86201 0.0848 0.55263 0.0
C732 C 0.78376 0.97282 0.53812 0.0
C733 C 0.91366 0.04929 0.65341 0.0
C734 C 0.95674 0.93405 0.59874 0.0
C735 C 0.87729 0.93929 0.66462 0.0
O736 O 0.93193 0.97777 0.51421 0.0
O737 O 0.84758 0.07492 0.5889 0.0
O738 O 0.79997 0.9379 0.54922 0.0
O739 O 0.91742 0.06002 0.61613 0.0
O740 O 0.92673 0.91248 0.58521 0.0
O741 O 0.87524 0.97971 0.66374 0.0
O742 O 0.95678 0.97372 0.60096 0.0
O743 O 0.88507 0.02238 0.66199 0.0
O744 O 0.85459 0.91957 0.63815 0.0
O745 O 0.87917 0.05638 0.5311 0.0
O746 O 0.88247 0.92908 0.50731 0.0
O747 O 0.78993 1.00579 0.56053 0.0
Sc748 Sc 0.77146 0.17131 0.31501 0.0
Sc749 Sc 0.77716 0.08349 0.3652 0.0
Sc750 Sc 0.86295 0.11405 0.32085 0.0
O751 O 0.80278 0.12177 0.32781 0.0
C752 C 0.84144 0.16596 0.24609 0.0
C753 C 0.70349 0.11202 0.30262 0.0
C754 C 0.81547 0.03376 0.28812 0.0
C755 C 0.73899 0.16363 0.40343 0.0
C756 C 0.85424 0.20675 0.3487 0.0
C757 C 0.84899 0.12728 0.41461 0.0
O758 O 0.81053 0.18194 0.26424 0.0
O759 O 0.71337 0.09758 0.33889 0.0
O760 O 0.85038 0.04996 0.29923 0.0
O761 O 0.72827 0.16741 0.36615 0.0
O762 O 0.8758 0.17672 0.33521 0.0
O763 O 0.80858 0.12523 0.41373 0.0
O764 O 0.81457 0.20673 0.35101 0.0
O765 O 0.7659 0.13505 0.412 0.0
O766 O 0.86871 0.10458 0.38815 0.0
O767 O 0.73191 0.12918 0.2811 0.0
O768 O 0.8592 0.13246 0.25731 0.0
O769 O 0.78249 0.03992 0.31053 0.0
Sc770 Sc 0.61698 0.02147 0.06499 0.0
Sc771 Sc 0.7048 0.02718 0.11519 0.0
Sc772 Sc 0.67424 0.11296 0.07085 0.0
O773 O 0.66651 0.05279 0.07781 0.0
C774 C 0.62234 0.09145 0.99607 0.0
C775 C 0.67629 0.9535 0.05262 0.0
C776 C 0.75453 0.06548 0.03812 0.0
C777 C 0.62464 0.98901 0.15341 0.0
C778 C 0.58156 0.10425 0.09874 0.0
C779 C 0.661 0.09901 0.16461 0.0
O780 O 0.60636 0.06053 1.01421 0.0
O781 O 0.69071 0.96338 0.0889 0.0
O782 O 0.73832 0.1004 0.04922 0.0
O783 O 0.62087 0.97828 0.11613 0.0
O784 O 0.61156 0.12581 0.08521 0.0
O785 O 0.66305 0.05859 0.16373 0.0
O786 O 0.58151 0.06458 0.10096 0.0
O787 O 0.65322 1.01592 0.16199 0.0
O788 O 0.6837 0.11873 0.13815 0.0
O789 O 0.65913 0.98191 0.0311 0.0
O790 O 0.65583 0.10922 1.00731 0.0
O791 O 0.74837 0.03251 0.06053 0.0
Sc792 Sc 0.67535 0.11405 0.71745 0.0
Sc793 Sc 0.76113 0.08349 0.67309 0.0
Sc794 Sc 0.76683 0.17132 0.72325 0.0
O795 O 0.73552 0.12177 0.71047 0.0
C796 C 0.68405 0.20676 0.68958 0.0
C797 C 0.68929 0.12729 0.62368 0.0
C798 C 0.7993 0.16364 0.63486 0.0
C799 C 0.72283 0.03376 0.75017 0.0
C800 C 0.69684 0.166 0.79216 0.0
C801 C 0.83479 0.11203 0.73568 0.0
O802 O 0.6625 0.17674 0.7031 0.0
O803 O 0.72971 0.12524 0.62456 0.0
O804 O 0.81003 0.1674 0.67213 0.0
O805 O 0.68791 0.04997 0.73906 0.0
O806 O 0.72774 0.18198 0.774 0.0
O807 O 0.82492 0.09759 0.69941 0.0
O808 O 0.67913 0.13245 0.78099 0.0
O809 O 0.7558 0.03992 0.72775 0.0
O810 O 0.80637 0.12921 0.75719 0.0
O811 O 0.66957 0.1046 0.65015 0.0
O812 O 0.72371 0.20673 0.68723 0.0
O813 O 0.77239 0.13506 0.62628 0.0
Sc814 Sc 0.67423 0.92534 0.46745 0.0
Sc815 Sc 0.70479 1.01112 0.4231 0.0
Sc816 Sc 0.61698 1.01684 0.47331 0.0
O817 O 0.66651 0.98551 0.46049 0.0
C818 C 0.58156 0.93406 0.43956 0.0
C819 C 0.661 0.9393 0.37369 0.0
C820 C 0.62464 0.04929 0.38489 0.0
C821 C 0.75453 0.97282 0.50018 0.0
C822 C 0.62233 0.94686 0.54222 0.0
C823 C 0.67628 0.08481 0.48567 0.0
O824 O 0.61156 0.91249 0.45309 0.0
O825 O 0.66305 0.97971 0.37457 0.0
O826 O 0.62087 0.06002 0.42217 0.0
O827 O 0.73832 0.93791 0.48908 0.0
O828 O 0.60636 0.97778 0.52408 0.0
O829 O 0.69071 0.07492 0.4494 0.0
O830 O 0.65582 0.92909 0.53099 0.0
O831 O 0.74837 1.00579 0.47777 0.0
O832 O 0.65912 0.05639 0.5072 0.0
O833 O 0.6837 0.91958 0.40015 0.0
O834 O 0.58151 0.97373 0.43733 0.0
O835 O 0.65322 0.02239 0.37631 0.0
Sc836 Sc 0.86294 0.92424 0.21745 0.0
Sc837 Sc 0.77716 0.95481 0.17309 0.0
Sc838 Sc 0.77146 0.86698 0.22326 0.0
O839 O 0.80277 0.91653 0.21048 0.0
C840 C 0.85424 0.83154 0.18958 0.0
C841 C 0.849 0.911 0.12369 0.0
C842 C 0.73899 0.87466 0.13486 0.0
C843 C 0.81547 1.00454 0.25017 0.0
C844 C 0.84145 0.8723 0.29216 0.0
C845 C 0.7035 0.92627 0.23568 0.0
O846 O 0.87579 0.86156 0.2031 0.0
O847 O 0.80858 0.91306 0.12456 0.0
O848 O 0.72826 0.8709 0.17214 0.0
O849 O 0.85038 0.98833 0.23906 0.0
O850 O 0.81055 0.85632 0.274 0.0
O851 O 0.71337 0.94071 0.19941 0.0
O852 O 0.85916 0.90584 0.28099 0.0
O853 O 0.78249 0.99838 0.22776 0.0
O854 O 0.73192 0.90909 0.25719 0.0
O855 O 0.86872 0.9337 0.15015 0.0
O856 O 0.81458 0.83157 0.18724 0.0
O857 O 0.7659 0.90324 0.12629 0.0
Sc858 Sc 0.92133 0.02148 0.97327 0.0
Sc859 Sc 0.8335 0.02718 0.92309 0.0
Sc860 Sc 0.86406 0.11296 0.96746 0.0
O861 O 0.87178 0.05279 0.96048 0.0
C862 C 0.916 0.09146 0.04217 0.0
C863 C 0.86202 0.95351 0.98568 0.0
C864 C 0.78376 0.06548 1.00018 0.0
C865 C 0.91364 0.98901 0.88487 0.0
C866 C 0.95673 0.10426 0.93954 0.0
C867 C 0.87729 0.09901 0.87369 0.0
O868 O 0.93198 0.06055 0.02402 0.0
O869 O 0.84759 0.96339 0.94941 0.0
O870 O 0.79997 0.1004 0.98907 0.0
O871 O 0.91741 0.97828 0.92214 0.0
O872 O 0.92673 0.12581 0.9531 0.0
O873 O 0.87524 0.0586 0.87456 0.0
O874 O 0.95677 0.06459 0.93727 0.0
O875 O 0.88506 1.01592 0.87629 0.0
O876 O 0.8546 0.11873 0.90016 0.0
O877 O 0.8792 0.98193 1.00719 0.0
O878 O 0.88246 0.10917 0.031 0.0
O879 O 0.78992 0.03251 0.97776 0.0
Sc880 Sc 0.81501 0.76684 0.867 0.0
Sc881 Sc 0.8652 0.76113 0.95482 0.0
Sc882 Sc 0.82085 0.67535 0.92425 0.0
O883 O 0.82782 0.73552 0.91653 0.0
C884 C 0.74609 0.69686 0.87234 0.0
C885 C 0.80262 0.83481 0.92629 0.0
C886 C 0.78812 0.72282 1.00454 0.0
C887 C 0.90341 0.79931 0.87469 0.0
C888 C 0.84871 0.68407 0.83154 0.0
C889 C 0.91462 0.6893 0.91103 0.0
O890 O 0.76424 0.72777 0.85636 0.0
O891 O 0.8389 0.82492 0.94072 0.0
O892 O 0.79922 0.68791 0.98833 0.0
O893 O 0.86613 0.81003 0.87089 0.0
O894 O 0.83522 0.6625 0.86157 0.0
O895 O 0.91374 0.72971 0.91307 0.0
O896 O 0.85101 0.72374 0.83156 0.0
O897 O 0.91201 0.7724 0.90326 0.0
O898 O 0.88816 0.66958 0.93373 0.0
O899 O 0.7811 0.80639 0.90913 0.0
O900 O 0.75732 0.67909 0.90583 0.0
O901 O 0.81053 0.7558 0.99838 0.0
Sc902 Sc 0.32084 0.86296 0.11406 0.0
Sc903 Sc 0.3652 0.77718 0.08349 0.0
Sc904 Sc 0.31502 0.77146 0.1713 0.0
O905 O 0.32782 0.80279 0.12178 0.0
C906 C 0.34875 0.85424 0.20673 0.0
C907 C 0.41462 0.84901 0.12728 0.0
C908 C 0.40343 0.739 0.16364 0.0
C909 C 0.28812 0.81548 0.03376 0.0
C910 C 0.24612 0.84145 0.16598 0.0
C911 C 0.30264 0.70347 0.11203 0.0
O912 O 0.33521 0.8758 0.17673 0.0
O913 O 0.41374 0.8086 0.12524 0.0
O914 O 0.36615 0.72827 0.1674 0.0
O915 O 0.29922 0.85039 0.04997 0.0
O916 O 0.26426 0.81052 0.18194 0.0
O917 O 0.3389 0.71338 0.09758 0.0
O918 O 0.25731 0.85919 0.13246 0.0
O919 O 0.31054 0.78251 0.03992 0.0
O920 O 0.28113 0.73193 0.12913 0.0
O921 O 0.38814 0.86872 0.10458 0.0
O922 O 0.35099 0.81456 0.20677 0.0
O923 O 0.412 0.76592 0.13506 0.0
Sc924 Sc 0.92533 0.57086 0.86405 0.0
Sc925 Sc 1.01111 0.61521 0.83348 0.0
Sc926 Sc 1.01685 0.56501 0.92127 0.0
O927 O 0.9855 0.57783 0.87176 0.0
C928 C 0.93407 0.59869 0.95676 0.0
C929 C 0.93929 0.66463 0.87729 0.0
C930 C 0.04929 0.65343 0.91364 0.0
C931 C 0.97281 0.53813 0.78376 0.0
C932 C 0.94687 0.49609 0.91594 0.0
C933 C 0.08484 0.55266 0.862 0.0
O934 O 0.9125 0.58523 0.92673 0.0
O935 O 0.97971 0.66375 0.87523 0.0
O936 O 0.06002 0.61615 0.91739 0.0
O937 O 0.93789 0.54924 0.79997 0.0
O938 O 0.9778 0.51422 0.9319 0.0
O939 O 0.07491 0.58892 0.84757 0.0
O940 O 0.92907 0.50733 0.88246 0.0
O941 O 1.00578 0.56055 0.78991 0.0
O942 O 0.05638 0.53114 0.8791 0.0
O943 O 0.91957 0.63817 0.85459 0.0
O944 O 0.97374 0.60097 0.95675 0.0
O945 O 0.02238 0.66201 0.88506 0.0
Sc946 Sc 0.22328 0.26684 0.6713 0.0
Sc947 Sc 0.17309 0.26112 0.58349 0.0
Sc948 Sc 0.21745 0.17535 0.61405 0.0
O949 O 0.21047 0.23551 0.62178 0.0
C950 C 0.29218 0.19685 0.66598 0.0
C951 C 0.23565 0.33483 0.61203 0.0
C952 C 0.25018 0.22282 0.53376 0.0
C953 C 0.13487 0.2993 0.66364 0.0
C954 C 0.18954 0.18406 0.70673 0.0
C955 C 0.12368 0.18929 0.62728 0.0
O956 O 0.27404 0.22778 0.68194 0.0
O957 O 0.19939 0.32492 0.59758 0.0
O958 O 0.23907 0.18791 0.54997 0.0
O959 O 0.17214 0.31003 0.6674 0.0
O960 O 0.20309 0.1625 0.67673 0.0
O961 O 0.12456 0.22971 0.62524 0.0
O962 O 0.1873 0.22374 0.70677 0.0
O963 O 0.12629 0.27238 0.63506 0.0
O964 O 0.15015 0.16958 0.60458 0.0
O965 O 0.25716 0.30637 0.62913 0.0
O966 O 0.28099 0.17912 0.63246 0.0
O967 O 0.22776 0.2558 0.53992 0.0
Sc968 Sc 0.11295 0.96746 0.86405 0.0
Sc969 Sc 0.02718 0.9231 0.83349 0.0
Sc970 Sc 0.02146 0.97328 0.92132 0.0
O971 O 0.05278 0.96048 0.87178 0.0
C972 C 0.10424 0.93954 0.95673 0.0
C973 C 0.09901 0.87368 0.87728 0.0
C974 C 0.98899 0.88489 0.91362 0.0
C975 C 0.06547 1.00018 0.78376 0.0
C976 C 0.09146 0.04218 0.91599 0.0
C977 C 0.9535 0.98568 0.86202 0.0
O978 O 0.1258 0.9531 0.92673 0.0
O979 O 0.05859 0.87456 0.87523 0.0
O980 O 0.97826 0.92216 0.91741 0.0
O981 O 0.10039 0.98908 0.79997 0.0
O982 O 0.06054 0.02403 0.93196 0.0
O983 O 0.96338 0.94941 0.84758 0.0
O984 O 0.10918 0.031 0.88245 0.0
O985 O 0.0325 0.97776 0.78992 0.0
O986 O 0.98192 1.0072 0.87919 0.0
O987 O 0.11872 0.90016 0.85458 0.0
O988 O 0.06457 0.93728 0.95677 0.0
O989 O 1.01591 0.87629 0.88505 0.0
Sc990 Sc 0.71745 0.36295 0.42424 0.0
Sc991 Sc 0.6731 0.27717 0.45481 0.0
Sc992 Sc 0.72329 0.27145 0.36699 0.0
O993 O 0.71048 0.30277 0.41653 0.0
C994 C 0.68959 0.35422 0.33154 0.0
C995 C 0.62368 0.349 0.41102 0.0
C996 C 0.63489 0.23899 0.37468 0.0
C997 C 0.75018 0.31548 0.50453 0.0
C998 C 0.79221 0.34144 0.37233 0.0
C999 C 0.73567 0.20349 0.42628 0.0
O1000 O 0.70308 0.37579 0.36157 0.0
O1001 O 0.62456 0.30858 0.41306 0.0
O1002 O 0.67216 0.22826 0.37088 0.0
O1003 O 0.73908 0.35039 0.48832 0.0
O1004 O 0.77406 0.31052 0.35635 0.0
O1005 O 0.6994 0.21337 0.44072 0.0
O1006 O 0.78098 0.3592 0.40583 0.0
O1007 O 0.72777 0.2825 0.49838 0.0
O1008 O 0.7572 0.23191 0.40912 0.0
O1009 O 0.65015 0.36871 0.43372 0.0
O1010 O 0.68729 0.31456 0.33156 0.0
O1011 O 0.62629 0.2659 0.40325 0.0
Sc1012 Sc 0.92534 0.46745 0.67424 0.0
Sc1013 Sc 1.01111 0.4231 0.70481 0.0
Sc1014 Sc 1.01685 0.4733 0.61702 0.0
O1015 O 0.98551 0.46049 0.66653 0.0
C1016 C 0.93408 0.43962 0.58153 0.0
C1017 C 0.9393 0.37368 0.66101 0.0
C1018 C 0.04929 0.38488 0.62466 0.0
C1019 C 0.97281 0.50018 0.75454 0.0
C1020 C 0.94687 0.54222 0.62235 0.0
C1021 C 0.08485 0.48565 0.67629 0.0
O1022 O 0.9125 0.45308 0.61156 0.0
O1023 O 0.97971 0.37457 0.66306 0.0
O1024 O 0.06003 0.42216 0.6209 0.0
O1025 O 0.93789 0.48908 0.73832 0.0
O1026 O 0.9778 0.52408 0.60639 0.0
O1027 O 0.07492 0.44939 0.69073 0.0
O1028 O 0.92908 0.53098 0.65582 0.0
O1029 O 1.00578 0.47777 0.74838 0.0
O1030 O 0.05639 0.50717 0.65919 0.0
O1031 O 0.91958 0.40015 0.68372 0.0
O1032 O 0.97375 0.43734 0.58155 0.0
O1033 O 0.02238 0.37631 0.65324 0.0
Sc1034 Sc 0.52144 0.565 0.11702 0.0
Sc1035 Sc 0.52718 0.6152 0.20481 0.0
Sc1036 Sc 0.61295 0.57085 0.17424 0.0
O1037 O 0.55278 0.57782 0.16653 0.0
C1038 C 0.59142 0.49608 0.12235 0.0
C1039 C 0.45345 0.55265 0.17629 0.0
C1040 C 0.56548 0.53812 0.25454 0.0
C1041 C 0.489 0.65342 0.12466 0.0
C1042 C 0.60421 0.59868 0.08153 0.0
C1043 C 0.599 0.66462 0.16102 0.0
O1044 O 0.56049 0.51422 0.1064 0.0
O1045 O 0.46337 0.58891 0.19073 0.0
O1046 O 0.60039 0.54922 0.23832 0.0
O1047 O 0.47826 0.61614 0.1209 0.0
O1048 O 0.62579 0.58522 0.11157 0.0
O1049 O 0.55858 0.66374 0.16306 0.0
O1050 O 0.56455 0.60096 0.08155 0.0
O1051 O 0.51592 0.662 0.15324 0.0
O1052 O 0.61871 0.63815 0.18372 0.0
O1053 O 0.48191 0.53113 0.1592 0.0
O1054 O 0.60922 0.50732 0.15583 0.0
O1055 O 0.53251 0.56054 0.24838 0.0
Sc1056 Sc 0.67128 0.72331 0.77144 0.0
Sc1057 Sc 0.58349 0.67308 0.77718 0.0
Sc1058 Sc 0.61406 0.71743 0.86296 0.0
O1059 O 0.62177 0.71046 0.80279 0.0
C1060 C 0.70675 0.68956 0.85421 0.0
C1061 C 0.66366 0.63489 0.73903 0.0
C1062 C 0.62728 0.62365 0.849 0.0
C1063 C 0.61199 0.73563 0.70345 0.0
C1064 C 0.66594 0.79221 0.84142 0.0
C1065 C 0.53376 0.75017 0.81549 0.0
O1066 O 0.70679 0.68736 0.81453 0.0
O1067 O 0.63506 0.62629 0.76591 0.0
O1068 O 0.60459 0.65013 0.86872 0.0
O1069 O 0.62908 0.75716 0.73191 0.0
O1070 O 0.63246 0.78097 0.85922 0.0
O1071 O 0.53992 0.72776 0.78252 0.0
O1072 O 0.68189 0.77408 0.81048 0.0
O1073 O 0.59757 0.69937 0.71338 0.0
O1074 O 0.54998 0.73906 0.8504 0.0
O1075 O 0.66741 0.67216 0.72827 0.0
O1076 O 0.67674 0.70306 0.87579 0.0
O1077 O 0.62523 0.62455 0.80859 0.0
Sc1078 Sc 0.56496 0.4213 0.02144 0.0
Sc1079 Sc 0.61519 0.33349 0.02717 0.0
Sc1080 Sc 0.57085 0.36406 0.11295 0.0
O1081 O 0.57781 0.37178 0.05278 0.0
C1082 C 0.59873 0.45674 0.10422 0.0
C1083 C 0.65339 0.41366 0.98902 0.0
C1084 C 0.66463 0.37727 0.09899 0.0
C1085 C 0.55263 0.36198 0.95347 0.0
C1086 C 0.49605 0.41593 0.09141 0.0
C1087 C 0.5381 0.28377 0.06548 0.0
O1088 O 0.60092 0.45679 0.06454 0.0
O1089 O 0.66199 0.38506 1.0159 0.0
O1090 O 0.63815 0.35458 0.11871 0.0
O1091 O 0.5311 0.37913 0.98189 0.0
O1092 O 0.50732 0.38248 0.10923 0.0
O1093 O 0.56052 0.28993 0.0325 0.0
O1094 O 0.51418 0.4319 0.06049 0.0
O1095 O 0.58891 0.34758 0.96337 0.0
O1096 O 0.54921 0.29998 0.10039 0.0
O1097 O 0.61612 0.41743 0.97828 0.0
O1098 O 0.58523 0.42673 0.12579 0.0
O1099 O 0.66373 0.37523 0.05858 0.0
Sc1100 Sc 0.86702 0.31499 0.27143 0.0
Sc1101 Sc 0.95481 0.36521 0.27718 0.0
Sc1102 Sc 0.92424 0.32087 0.36296 0.0
O1103 O 0.91652 0.32784 0.30278 0.0
C1104 C 0.83155 0.34874 0.3542 0.0
C1105 C 0.87464 0.40341 0.23902 0.0
C1106 C 0.91102 0.41465 0.349 0.0
C1107 C 0.92632 0.30266 0.20344 0.0
C1108 C 0.87236 0.24609 0.34142 0.0
C1109 C 1.00453 0.28813 0.31549 0.0
O1110 O 0.83151 0.35093 0.31453 0.0
O1111 O 0.90324 0.41201 0.26591 0.0
O1112 O 0.93371 0.38817 0.36872 0.0
O1113 O 0.90922 0.28114 0.2319 0.0
O1114 O 0.90584 0.25733 0.35921 0.0
O1115 O 0.99838 0.31054 0.28251 0.0
O1116 O 0.85641 0.26421 0.31048 0.0
O1117 O 0.94073 0.33893 0.21337 0.0
O1118 O 0.98832 0.29924 0.3504 0.0
O1119 O 0.87089 0.36614 0.22827 0.0
O1120 O 0.86156 0.33523 0.37578 0.0
O1121 O 0.91307 0.41375 0.30859 0.0
Sc1122 Sc 0.96745 0.67424 0.61295 0.0
Sc1123 Sc 0.92311 0.70481 0.52717 0.0
Sc1124 Sc 0.97333 0.617 0.52144 0.0
O1125 O 0.96049 0.66652 0.55278 0.0
C1126 C 0.04225 0.62237 0.59141 0.0
C1127 C 1.00019 0.75453 0.56548 0.0
C1128 C 0.98566 0.67632 0.45347 0.0
C1129 C 0.87367 0.66103 0.59899 0.0
C1130 C 0.93957 0.58156 0.60421 0.0
C1131 C 0.88491 0.62464 0.48902 0.0
O1132 O 0.03098 0.65582 0.60923 0.0
O1133 O 0.97778 0.74837 0.53251 0.0
O1134 O 1.0072 0.65917 0.48189 0.0
O1135 O 0.90014 0.68372 0.61871 0.0
O1136 O 0.93738 0.58151 0.56454 0.0
O1137 O 0.87631 0.65324 0.5159 0.0
O1138 O 0.95307 0.61157 0.62579 0.0
O1139 O 0.87456 0.66307 0.55858 0.0
O1140 O 0.92218 0.62087 0.47827 0.0
O1141 O 0.98909 0.73832 0.60039 0.0
O1142 O 0.02412 0.6064 0.56048 0.0
O1143 O 0.94939 0.69072 0.46337 0.0
Sc1144 Sc 0.61405 0.32087 0.67534 0.0
Sc1145 Sc 0.58348 0.36522 0.76113 0.0
Sc1146 Sc 0.67129 0.31501 0.76684 0.0
O1147 O 0.62176 0.32783 0.73552 0.0
C1148 C 0.66594 0.24611 0.69686 0.0
C1149 C 0.53375 0.28814 0.72281 0.0
C1150 C 0.61198 0.30264 0.83482 0.0
C1151 C 0.62727 0.41465 0.6893 0.0
C1152 C 0.70676 0.3487 0.68407 0.0
C1153 C 0.66365 0.40342 0.79928 0.0
O1154 O 0.63244 0.25733 0.6791 0.0
O1155 O 0.53991 0.31054 0.75579 0.0
O1156 O 0.62915 0.28112 0.8064 0.0
O1157 O 0.60458 0.38818 0.66957 0.0
O1158 O 0.70674 0.351 0.72374 0.0
O1159 O 0.63505 0.41202 0.7724 0.0
O1160 O 0.67673 0.33523 0.6625 0.0
O1161 O 0.62522 0.41375 0.72971 0.0
O1162 O 0.6674 0.36615 0.81003 0.0
O1163 O 0.54996 0.29925 0.6879 0.0
O1164 O 0.68192 0.26424 0.72778 0.0
O1165 O 0.59757 0.33892 0.82492 0.0
Sc1166 Sc 0.97333 0.42131 1.01685 0.0
Sc1167 Sc 0.9231 0.3335 1.01112 0.0
Sc1168 Sc 0.96744 0.36407 0.92534 0.0
O1169 O 0.96048 0.37179 0.98551 0.0
C1170 C 0.93956 0.45675 0.93407 0.0
C1171 C 0.8849 0.41367 0.04927 0.0
C1172 C 0.87366 0.37728 0.9393 0.0
C1173 C 0.98566 0.36199 0.08482 0.0
C1174 C 0.04224 0.41594 0.94687 0.0
C1175 C 1.00018 0.28377 0.97281 0.0
O1176 O 0.93737 0.4568 0.97375 0.0
O1177 O 0.8763 0.38506 0.02239 0.0
O1178 O 0.90013 0.35459 0.91958 0.0
O1179 O 1.00719 0.37914 0.0564 0.0
O1180 O 0.03097 0.38248 0.92906 0.0
O1181 O 0.97777 0.28993 1.00579 0.0
O1182 O 0.02411 0.43191 0.9778 0.0
O1183 O 0.94938 0.34758 0.07492 0.0
O1184 O 0.98908 0.29999 0.9379 0.0
O1185 O 0.92217 0.41743 0.06002 0.0
O1186 O 0.95306 0.42674 0.9125 0.0
O1187 O 0.87455 0.37524 0.97971 0.0
Sc1188 Sc 0.867 0.72329 0.26685 0.0
Sc1189 Sc 0.95481 0.67308 0.26113 0.0
Sc1190 Sc 0.92425 0.71743 0.17535 0.0
O1191 O 0.91653 0.71047 0.23552 0.0
C1192 C 0.83154 0.6896 0.18408 0.0
C1193 C 0.87464 0.63488 0.29928 0.0
C1194 C 0.91102 0.62366 0.1893 0.0
C1195 C 0.92631 0.73566 0.33482 0.0
C1196 C 0.87235 0.79219 0.19686 0.0
C1197 C 1.00454 0.75017 0.22281 0.0
O1198 O 0.83156 0.6873 0.22374 0.0
O1199 O 0.90325 0.62628 0.2724 0.0
O1200 O 0.93371 0.65013 0.16958 0.0
O1201 O 0.90915 0.75718 0.3064 0.0
O1202 O 0.90585 0.78097 0.1791 0.0
O1203 O 0.99838 0.72776 0.25579 0.0
O1204 O 0.85638 0.77406 0.22778 0.0
O1205 O 0.94073 0.69938 0.32493 0.0
O1206 O 0.98833 0.73905 0.1879 0.0
O1207 O 0.87089 0.67215 0.31003 0.0
O1208 O 0.86157 0.70308 0.16251 0.0
O1209 O 0.91307 0.62455 0.22971 0.0
Sc1210 Sc 0.57087 0.67424 0.42534 0.0
Sc1211 Sc 0.61521 0.70482 0.51112 0.0
Sc1212 Sc 0.56497 0.61704 0.51687 0.0
O1213 O 0.57782 0.66654 0.48551 0.0
C1214 C 0.49605 0.62239 0.44689 0.0
C1215 C 0.53812 0.75454 0.4728 0.0
C1216 C 0.55266 0.67632 0.58486 0.0
C1217 C 0.66464 0.66102 0.4393 0.0
C1218 C 0.59868 0.58153 0.43411 0.0
C1219 C 0.65341 0.62465 0.54928 0.0
O1220 O 0.50734 0.65583 0.42905 0.0
O1221 O 0.56053 0.74839 0.50578 0.0
O1222 O 0.53113 0.65924 0.5564 0.0
O1223 O 0.63817 0.68372 0.41958 0.0
O1224 O 0.60092 0.58154 0.47377 0.0
O1225 O 0.662 0.65326 0.52239 0.0
O1226 O 0.58524 0.61156 0.41251 0.0
O1227 O 0.66375 0.66307 0.47972 0.0
O1228 O 0.61613 0.6209 0.56003 0.0
O1229 O 0.54923 0.73833 0.43789 0.0
O1230 O 0.51418 0.60644 0.47783 0.0
O1231 O 0.58893 0.69074 0.57493 0.0
Sc1232 Sc 0.77145 0.6713 0.7233 0.0
Sc1233 Sc 0.77718 0.58349 0.67308 0.0
Sc1234 Sc 0.86295 0.61406 0.71744 0.0
O1235 O 0.80278 0.62178 0.71047 0.0
C1236 C 0.85422 0.70674 0.68956 0.0
C1237 C 0.73902 0.66367 0.63489 0.0
C1238 C 0.849 0.62729 0.62367 0.0
C1239 C 0.70348 0.61198 0.73566 0.0
C1240 C 0.84143 0.66595 0.7922 0.0
C1241 C 0.81548 0.53376 0.75017 0.0
O1242 O 0.81455 0.70679 0.68734 0.0
O1243 O 0.7659 0.63506 0.62629 0.0
O1244 O 0.86873 0.6046 0.65014 0.0
O1245 O 0.7319 0.62914 0.75718 0.0
O1246 O 0.8592 0.63245 0.78098 0.0
O1247 O 0.78251 0.53992 0.72775 0.0
O1248 O 0.81051 0.68192 0.77407 0.0
O1249 O 0.71337 0.59757 0.69938 0.0
O1250 O 0.85039 0.54997 0.73906 0.0
O1251 O 0.72827 0.66742 0.67216 0.0
O1252 O 0.87579 0.67674 0.70308 0.0
O1253 O 0.80859 0.62523 0.62455 0.0
Sc1254 Sc 0.67424 0.61294 0.96744 0.0
Sc1255 Sc 0.70483 0.52716 0.92308 0.0
Sc1256 Sc 0.61701 0.52143 0.97329 0.0
O1257 O 0.66654 0.55277 0.96046 0.0
C1258 C 0.62234 0.59142 0.04219 0.0
C1259 C 0.75454 0.56548 1.00018 0.0
C1260 C 0.67632 0.45348 0.98566 0.0
C1261 C 0.66102 0.59899 0.87367 0.0
C1262 C 0.58154 0.6042 0.9396 0.0
C1263 C 0.62468 0.489 0.88489 0.0
O1264 O 0.65585 0.60918 0.03098 0.0
O1265 O 0.74839 0.5325 0.97776 0.0
O1266 O 0.65916 0.4819 1.00719 0.0
O1267 O 0.68371 0.61871 0.90014 0.0
O1268 O 0.58156 0.56453 0.93729 0.0
O1269 O 0.65327 0.51588 0.87627 0.0
O1270 O 0.61156 0.62577 0.95308 0.0
O1271 O 0.66308 0.55857 0.87455 0.0
O1272 O 0.62089 0.47825 0.92216 0.0
O1273 O 0.73833 0.60039 0.98906 0.0
O1274 O 0.60637 0.5605 0.02405 0.0
O1275 O 0.69073 0.46336 0.94938 0.0
Sc1276 Sc 0.76685 0.36699 0.2233 0.0
Sc1277 Sc 0.76112 0.4548 0.17308 0.0
Sc1278 Sc 0.67534 0.42424 0.21744 0.0
O1279 O 0.73552 0.41652 0.21047 0.0
C1280 C 0.68407 0.33155 0.18955 0.0
C1281 C 0.79928 0.37463 0.13488 0.0
C1282 C 0.6893 0.41101 0.12367 0.0
C1283 C 0.83481 0.42632 0.23566 0.0
C1284 C 0.69687 0.37234 0.2922 0.0
C1285 C 0.72281 0.50454 0.25017 0.0
O1286 O 0.72375 0.33151 0.18733 0.0
O1287 O 0.7724 0.40324 0.12628 0.0
O1288 O 0.66957 0.4337 0.15014 0.0
O1289 O 0.80639 0.40915 0.25718 0.0
O1290 O 0.6791 0.40584 0.28098 0.0
O1291 O 0.75579 0.49837 0.22775 0.0
O1292 O 0.72779 0.35637 0.27406 0.0
O1293 O 0.82492 0.44072 0.19938 0.0
O1294 O 0.6879 0.48832 0.23906 0.0
O1295 O 0.81003 0.37088 0.17216 0.0
O1296 O 0.6625 0.36156 0.20308 0.0
O1297 O 0.72971 0.41306 0.12455 0.0
Sc1298 Sc 0.92129 0.51687 0.47328 0.0
Sc1299 Sc 0.83347 0.51114 0.42308 0.0
Sc1300 Sc 0.86405 0.42536 0.46744 0.0
O1301 O 0.87176 0.48553 0.46046 0.0
C1302 C 0.95675 0.4341 0.43959 0.0
C1303 C 0.91362 0.5493 0.38489 0.0
C1304 C 0.87728 0.43931 0.37367 0.0
C1305 C 0.86198 0.58482 0.48566 0.0
C1306 C 0.91595 0.44688 0.54219 0.0
C1307 C 0.78375 0.47283 0.50017 0.0
O1308 O 0.95673 0.47377 0.43729 0.0
O1309 O 0.88502 0.52242 0.37627 0.0
O1310 O 0.85459 0.41959 0.40014 0.0
O1311 O 0.87914 0.5564 0.50718 0.0
O1312 O 0.88245 0.42912 0.53098 0.0
O1313 O 0.78991 0.5058 0.47776 0.0
O1314 O 0.93192 0.4778 0.52404 0.0
O1315 O 0.84756 0.57494 0.44938 0.0
O1316 O 0.79996 0.43791 0.48906 0.0
O1317 O 0.9174 0.56005 0.42215 0.0
O1318 O 0.92673 0.41253 0.45308 0.0
O1319 O 0.87521 0.47972 0.37455 0.0
Sc1320 Sc 0.86295 0.42424 0.82085 0.0
Sc1321 Sc 0.77717 0.45482 0.8652 0.0
Sc1322 Sc 0.77143 0.36702 0.81496 0.0
O1323 O 0.80277 0.41653 0.82782 0.0
C1324 C 0.8414 0.37239 0.74604 0.0
C1325 C 0.81548 0.50454 0.78811 0.0
C1326 C 0.70347 0.42634 0.80264 0.0
C1327 C 0.84899 0.41102 0.91462 0.0
C1328 C 0.8542 0.33156 0.84872 0.0
C1329 C 0.73901 0.37466 0.90338 0.0
O1330 O 0.85923 0.40583 0.75732 0.0
O1331 O 0.7825 0.49838 0.81053 0.0
O1332 O 0.73188 0.4092 0.7811 0.0
O1333 O 0.86871 0.43371 0.88816 0.0
O1334 O 0.81452 0.33151 0.8509 0.0
O1335 O 0.76589 0.40326 0.912 0.0
O1336 O 0.87578 0.36157 0.83523 0.0
O1337 O 0.80858 0.41308 0.91375 0.0
O1338 O 0.72827 0.37087 0.86611 0.0
O1339 O 0.85039 0.48833 0.79922 0.0
O1340 O 0.81047 0.35642 0.76417 0.0
O1341 O 0.71337 0.44073 0.83892 0.0
Sc1342 Sc 0.86405 0.61295 0.07086 0.0
Sc1343 Sc 0.83347 0.52717 0.11522 0.0
Sc1344 Sc 0.92128 0.52144 0.06501 0.0
O1345 O 0.87176 0.55277 0.07784 0.0
C1346 C 0.91595 0.59142 0.99611 0.0
C1347 C 0.78375 0.56548 0.03813 0.0
C1348 C 0.86198 0.45348 0.05264 0.0
C1349 C 0.87728 0.59899 0.16463 0.0
C1350 C 0.95676 0.6042 0.0987 0.0
C1351 C 0.91362 0.489 0.15341 0.0
O1352 O 0.88244 0.60919 1.00732 0.0
O1353 O 0.78991 0.5325 0.06054 0.0
O1354 O 0.87913 0.48191 0.03111 0.0
O1355 O 0.85459 0.61872 0.13816 0.0
O1356 O 0.95673 0.56454 0.10101 0.0
O1357 O 0.88502 0.51589 0.16203 0.0
O1358 O 0.92673 0.62578 0.08522 0.0
O1359 O 0.87521 0.55858 0.16375 0.0
O1360 O 0.9174 0.47826 0.11614 0.0
O1361 O 0.79996 0.60039 0.04924 0.0
O1362 O 0.93192 0.56051 1.01425 0.0
O1363 O 0.84756 0.46337 0.08892 0.0
Sc1364 Sc 0.67534 0.61406 0.32086 0.0
Sc1365 Sc 0.76112 0.58348 0.3652 0.0
Sc1366 Sc 0.76686 0.67128 0.31496 0.0
O1367 O 0.73552 0.62177 0.32782 0.0
C1368 C 0.69689 0.66591 0.24605 0.0
C1369 C 0.72281 0.53376 0.28812 0.0
C1370 C 0.83483 0.61196 0.30264 0.0
C1371 C 0.6893 0.62728 0.41463 0.0
C1372 C 0.68409 0.70674 0.34873 0.0
C1373 C 0.79928 0.66363 0.40338 0.0
O1374 O 0.67906 0.63246 0.25733 0.0
O1375 O 0.75579 0.53992 0.31053 0.0
O1376 O 0.80641 0.6291 0.2811 0.0
O1377 O 0.66958 0.60459 0.38817 0.0
O1378 O 0.72377 0.70679 0.35091 0.0
O1379 O 0.7724 0.63503 0.412 0.0
O1380 O 0.66251 0.67673 0.33523 0.0
O1381 O 0.72972 0.62522 0.41375 0.0
O1382 O 0.81002 0.66743 0.36611 0.0
O1383 O 0.6879 0.54997 0.29922 0.0
O1384 O 0.72782 0.68188 0.26417 0.0
O1385 O 0.82493 0.59756 0.33893 0.0
Sc1386 Sc 0.67425 0.42535 0.57087 0.0
Sc1387 Sc 0.70482 0.51114 0.61521 0.0
Sc1388 Sc 0.61702 0.51687 0.56498 0.0
O1389 O 0.66653 0.48553 0.57782 0.0
C1390 C 0.62238 0.44689 0.49606 0.0
C1391 C 0.75454 0.47283 0.53813 0.0
C1392 C 0.67632 0.58484 0.55264 0.0
C1393 C 0.66102 0.43932 0.66463 0.0
C1394 C 0.58153 0.43409 0.59868 0.0
C1395 C 0.62464 0.54929 0.65341 0.0
O1396 O 0.65584 0.42908 0.50733 0.0
O1397 O 0.74838 0.5058 0.56054 0.0
O1398 O 0.65917 0.55642 0.53111 0.0
O1399 O 0.68371 0.41959 0.63817 0.0
O1400 O 0.58155 0.47376 0.60095 0.0
O1401 O 0.65325 0.52241 0.66201 0.0
O1402 O 0.61157 0.41252 0.58523 0.0
O1403 O 0.66307 0.47973 0.66375 0.0
O1404 O 0.62088 0.56003 0.61613 0.0
O1405 O 0.73833 0.43791 0.54924 0.0
O1406 O 0.60641 0.47781 0.51419 0.0
O1407 O 0.69073 0.57494 0.58892 0.0
Sc1408 Sc 0.72331 0.77144 0.6713 0.0
Sc1409 Sc 0.67309 0.77718 0.58349 0.0
Sc1410 Sc 0.71744 0.86295 0.61406 0.0
O1411 O 0.71047 0.80278 0.62178 0.0
C1412 C 0.68956 0.85421 0.70675 0.0
C1413 C 0.63491 0.73901 0.66364 0.0
C1414 C 0.62366 0.849 0.62728 0.0
C1415 C 0.73566 0.70348 0.61197 0.0
C1416 C 0.79221 0.84143 0.66595 0.0
C1417 C 0.75017 0.81549 0.53376 0.0
O1418 O 0.68735 0.81453 0.70679 0.0
O1419 O 0.62629 0.7659 0.63505 0.0
O1420 O 0.65014 0.86872 0.60459 0.0
O1421 O 0.75719 0.7319 0.62913 0.0
O1422 O 0.78098 0.8592 0.63246 0.0
O1423 O 0.72776 0.78251 0.53992 0.0
O1424 O 0.77408 0.8105 0.68192 0.0
O1425 O 0.69938 0.71338 0.59757 0.0
O1426 O 0.73907 0.8504 0.54998 0.0
O1427 O 0.67218 0.72826 0.66742 0.0
O1428 O 0.70307 0.87578 0.67674 0.0
O1429 O 0.62455 0.80859 0.62523 0.0
Sc1430 Sc 0.21743 0.67534 0.42425 0.0
Sc1431 Sc 0.17309 0.76113 0.45482 0.0
Sc1432 Sc 0.22332 0.76686 0.36702 0.0
O1433 O 0.21047 0.73552 0.41654 0.0
C1434 C 0.29224 0.69689 0.37239 0.0
C1435 C 0.25017 0.72281 0.50454 0.0
C1436 C 0.23565 0.83483 0.42633 0.0
C1437 C 0.12366 0.68931 0.41102 0.0
C1438 C 0.18961 0.6841 0.33154 0.0
C1439 C 0.13491 0.79929 0.37467 0.0
O1440 O 0.28096 0.67907 0.40584 0.0
O1441 O 0.22776 0.75579 0.49839 0.0
O1442 O 0.25719 0.80641 0.40919 0.0
O1443 O 0.15012 0.66958 0.43371 0.0
O1444 O 0.18735 0.72377 0.33155 0.0
O1445 O 0.12629 0.77241 0.40326 0.0
O1446 O 0.20306 0.66251 0.36157 0.0
O1447 O 0.12455 0.72972 0.41308 0.0
O1448 O 0.17218 0.81003 0.37088 0.0
O1449 O 0.23906 0.6879 0.48833 0.0
O1450 O 0.27411 0.72781 0.35642 0.0
O1451 O 0.19937 0.82493 0.44073 0.0
Sc1452 Sc 0.52144 0.97331 0.61699 0.0
Sc1453 Sc 0.52717 0.92309 0.70481 0.0
Sc1454 Sc 0.61295 0.96745 0.67424 0.0
O1455 O 0.55277 0.96047 0.66652 0.0
C1456 C 0.60421 0.93955 0.58156 0.0
C1457 C 0.48901 0.8849 0.62466 0.0
C1458 C 0.59899 0.87367 0.66102 0.0
C1459 C 0.45348 0.98567 0.6763 0.0
C1460 C 0.59143 0.04221 0.62234 0.0
C1461 C 0.56548 1.00018 0.75454 0.0
O1462 O 0.56454 0.93733 0.58152 0.0
O1463 O 0.51589 0.87628 0.65326 0.0
O1464 O 0.61872 0.90014 0.68371 0.0
O1465 O 0.4819 1.00719 0.65915 0.0
O1466 O 0.60919 0.03099 0.65585 0.0
O1467 O 0.5325 0.97777 0.74838 0.0
O1468 O 0.56051 0.02407 0.60637 0.0
O1469 O 0.46337 0.94939 0.69072 0.0
O1470 O 0.60039 0.98907 0.73833 0.0
O1471 O 0.47826 0.92217 0.62087 0.0
O1472 O 0.62578 0.95308 0.61157 0.0
O1473 O 0.55858 0.87455 0.66307 0.0
Sc1474 Sc 0.31497 0.27144 0.86702 0.0
Sc1475 Sc 0.36521 0.27718 0.95482 0.0
Sc1476 Sc 0.32087 0.36296 0.92424 0.0
O1477 O 0.32783 0.30278 0.91654 0.0
C1478 C 0.34868 0.3542 0.83153 0.0
C1479 C 0.40339 0.23901 0.87466 0.0
C1480 C 0.41464 0.34899 0.91102 0.0
C1481 C 0.30264 0.20347 0.92633 0.0
C1482 C 0.24606 0.34141 0.87239 0.0
C1483 C 0.28813 0.31549 1.00454 0.0
O1484 O 0.35095 0.31453 0.83155 0.0
O1485 O 0.41201 0.26589 0.90326 0.0
O1486 O 0.38818 0.36872 0.93371 0.0
O1487 O 0.2811 0.23189 0.90919 0.0
O1488 O 0.25733 0.35924 0.90584 0.0
O1489 O 0.31054 0.28251 0.99838 0.0
O1490 O 0.26419 0.31049 0.85642 0.0
O1491 O 0.33892 0.21337 0.94073 0.0
O1492 O 0.29924 0.3504 0.98833 0.0
O1493 O 0.36612 0.22827 0.87088 0.0
O1494 O 0.33524 0.37579 0.86157 0.0
O1495 O 0.41375 0.30858 0.91308 0.0
Sc1496 Sc 0.42534 0.57087 0.67424 0.0
Sc1497 Sc 0.51112 0.61521 0.70482 0.0
Sc1498 Sc 0.51686 0.56498 0.61702 0.0
O1499 O 0.48552 0.57783 0.66653 0.0
C1500 C 0.44689 0.49606 0.62238 0.0
C1501 C 0.4728 0.53812 0.75454 0.0
C1502 C 0.58483 0.55265 0.67633 0.0
C1503 C 0.43931 0.66464 0.66101 0.0
C1504 C 0.4341 0.59868 0.58153 0.0
C1505 C 0.54928 0.65339 0.62467 0.0
O1506 O 0.42907 0.50733 0.65583 0.0
O1507 O 0.50578 0.56054 0.74838 0.0
O1508 O 0.55641 0.53111 0.65919 0.0
O1509 O 0.41958 0.63817 0.68371 0.0
O1510 O 0.47377 0.60095 0.58154 0.0
O1511 O 0.5224 0.66201 0.65326 0.0
O1512 O 0.41252 0.58524 0.61156 0.0
O1513 O 0.47972 0.66375 0.66308 0.0
O1514 O 0.56003 0.61612 0.62088 0.0
O1515 O 0.43789 0.54923 0.73832 0.0
O1516 O 0.47781 0.51419 0.60641 0.0
O1517 O 0.57493 0.58893 0.69073 0.0
Sc1518 Sc 0.82086 0.17534 0.11406 0.0
Sc1519 Sc 0.86521 0.26112 0.08348 0.0
Sc1520 Sc 0.81499 0.26685 0.17129 0.0
O1521 O 0.82783 0.23551 0.12177 0.0
C1522 C 0.74609 0.19687 0.16594 0.0
C1523 C 0.78813 0.22281 0.03375 0.0
C1524 C 0.80264 0.33481 0.11197 0.0
C1525 C 0.91463 0.18929 0.12728 0.0
C1526 C 0.84874 0.18408 0.20674 0.0
C1527 C 0.90339 0.29928 0.16364 0.0
O1528 O 0.75732 0.17909 0.13245 0.0
O1529 O 0.81054 0.25578 0.03992 0.0
O1530 O 0.78111 0.30639 0.12913 0.0
O1531 O 0.88816 0.16956 0.1046 0.0
O1532 O 0.85095 0.22376 0.20678 0.0
O1533 O 0.91202 0.2724 0.13504 0.0
O1534 O 0.83522 0.16251 0.17674 0.0
O1535 O 0.91375 0.22971 0.12522 0.0
O1536 O 0.86612 0.31003 0.16742 0.0
O1537 O 0.79923 0.18789 0.04997 0.0
O1538 O 0.76422 0.22779 0.18191 0.0
O1539 O 0.83892 0.32492 0.09756 0.0
Sc1540 Sc 0.61295 0.07086 0.86405 0.0
Sc1541 Sc 0.52717 0.11522 0.83348 0.0
Sc1542 Sc 0.52145 0.065 0.9213 0.0
O1543 O 0.55278 0.07784 0.87177 0.0
C1544 C 0.59143 0.9961 0.91594 0.0
C1545 C 0.56548 0.03813 0.78375 0.0
C1546 C 0.45348 0.05264 0.86199 0.0
C1547 C 0.599 0.16464 0.87727 0.0
C1548 C 0.60422 0.09876 0.95673 0.0
C1549 C 0.48901 0.1534 0.91363 0.0
O1550 O 0.6092 1.00732 0.88245 0.0
O1551 O 0.5325 0.06054 0.78992 0.0
O1552 O 0.48191 0.03111 0.87914 0.0
O1553 O 0.61873 0.13817 0.85459 0.0
O1554 O 0.56454 0.10098 0.95677 0.0
O1555 O 0.51589 0.16202 0.88503 0.0
O1556 O 0.62579 0.08522 0.92672 0.0
O1557 O 0.55858 0.16375 0.87522 0.0
O1558 O 0.47827 0.11613 0.91742 0.0
O1559 O 0.60039 0.04924 0.79996 0.0
O1560 O 0.56052 1.01423 0.93192 0.0
O1561 O 0.46337 0.08892 0.84757 0.0
Sc1562 Sc 0.92534 0.96744 0.36405 0.0
Sc1563 Sc 1.01112 0.92308 0.33348 0.0
Sc1564 Sc 1.01685 0.9733 0.4213 0.0
O1565 O 0.98551 0.96046 0.37177 0.0
C1566 C 0.94686 0.0422 0.41595 0.0
C1567 C 0.97281 1.00017 0.28376 0.0
C1568 C 0.08481 0.98566 0.36199 0.0
C1569 C 0.9393 0.87366 0.37728 0.0
C1570 C 0.93408 0.93954 0.45673 0.0
C1571 C 0.04929 0.8849 0.41363 0.0
O1572 O 0.92909 0.03098 0.38245 0.0
O1573 O 1.00579 0.97776 0.28992 0.0
O1574 O 0.05639 1.00719 0.37914 0.0
O1575 O 0.91957 0.90013 0.35459 0.0
O1576 O 0.97375 0.93732 0.45677 0.0
O1577 O 0.02241 0.87628 0.38503 0.0
O1578 O 0.91251 0.95307 0.42673 0.0
O1579 O 0.97971 0.87454 0.37522 0.0
O1580 O 0.06003 0.92217 0.41742 0.0
O1581 O 0.9379 0.98906 0.29997 0.0
O1582 O 0.97778 0.02406 0.43192 0.0
O1583 O 0.07492 0.94938 0.34757 0.0
Sc1584 Sc 0.36698 0.31502 0.26683 0.0
Sc1585 Sc 0.4548 0.36521 0.26111 0.0
Sc1586 Sc 0.42424 0.32085 0.17534 0.0
O1587 O 0.41651 0.32783 0.2355 0.0
C1588 C 0.37231 0.24612 0.19684 0.0
C1589 C 0.42626 0.30265 0.33482 0.0
C1590 C 0.50453 0.28812 0.22281 0.0
C1591 C 0.37465 0.40343 0.29929 0.0
C1592 C 0.33156 0.34876 0.18405 0.0
C1593 C 0.41101 0.41462 0.18928 0.0
O1594 O 0.35635 0.26426 0.22777 0.0
O1595 O 0.44071 0.33891 0.32491 0.0
O1596 O 0.48832 0.29923 0.1879 0.0
O1597 O 0.37089 0.36616 0.31002 0.0
O1598 O 0.36156 0.33521 0.16249 0.0
O1599 O 0.41305 0.41374 0.2297 0.0
O1600 O 0.33152 0.351 0.22373 0.0
O1601 O 0.40323 0.41201 0.27237 0.0
O1602 O 0.4337 0.38815 0.16957 0.0
O1603 O 0.40915 0.28114 0.30636 0.0
O1604 O 0.40583 0.25731 0.1791 0.0
O1605 O 0.49837 0.31054 0.25579 0.0
Sc1606 Sc 0.47328 0.61696 1.01682 0.0
Sc1607 Sc 0.42311 0.7048 1.01112 0.0
Sc1608 Sc 0.46746 0.67425 0.92534 0.0
O1609 O 0.46049 0.66651 0.98551 0.0
C1610 C 0.54218 0.6223 0.94683 0.0
C1611 C 0.48568 0.67626 0.08479 0.0
C1612 C 0.50019 0.75453 0.97282 0.0
C1613 C 0.38487 0.62465 0.04929 0.0
C1614 C 0.43954 0.58157 0.93403 0.0
C1615 C 0.37369 0.66102 0.93929 0.0
O1616 O 0.52403 0.60631 0.97773 0.0
O1617 O 0.44941 0.6907 0.07491 0.0
O1618 O 0.48908 0.73833 0.93791 0.0
O1619 O 0.42215 0.62088 0.06002 0.0
O1620 O 0.4531 0.61158 0.91248 0.0
O1621 O 0.37457 0.66306 0.9797 0.0
O1622 O 0.43727 0.58153 0.9737 0.0
O1623 O 0.3763 0.65324 0.02238 0.0
O1624 O 0.40016 0.68372 0.91958 0.0
O1625 O 0.5072 0.65908 0.05637 0.0
O1626 O 0.531 0.65584 0.92912 0.0
O1627 O 0.47778 0.74837 1.0058 0.0
Sc1628 Sc 0.11406 0.71745 0.67534 0.0
Sc1629 Sc 0.0835 0.67309 0.76111 0.0
Sc1630 Sc 0.17131 0.72328 0.76684 0.0
O1631 O 0.12178 0.71047 0.73551 0.0
C1632 C 0.20674 0.68954 0.68406 0.0
C1633 C 0.12729 0.62368 0.68928 0.0
C1634 C 0.16365 0.63487 0.79929 0.0
C1635 C 0.03377 0.75018 0.72282 0.0
C1636 C 0.16599 0.79218 0.69684 0.0
C1637 C 0.11203 0.73565 0.83483 0.0
O1638 O 0.17673 0.70309 0.66249 0.0
O1639 O 0.12525 0.62456 0.7297 0.0
O1640 O 0.16741 0.67214 0.81002 0.0
O1641 O 0.04998 0.73907 0.6879 0.0
O1642 O 0.18195 0.77404 0.72777 0.0
O1643 O 0.09759 0.69939 0.82491 0.0
O1644 O 0.13246 0.78099 0.67911 0.0
O1645 O 0.03993 0.72776 0.75579 0.0
O1646 O 0.12914 0.75717 0.80636 0.0
O1647 O 0.10459 0.65015 0.66957 0.0
O1648 O 0.20678 0.6873 0.72373 0.0
O1649 O 0.13507 0.62629 0.77237 0.0
Sc1650 Sc 0.07083 0.36405 0.42534 0.0
Sc1651 Sc 0.11518 0.3335 0.51112 0.0
Sc1652 Sc 0.06502 0.42134 0.51682 0.0
O1653 O 0.0778 0.37178 0.48551 0.0
C1654 C 0.09876 0.45673 0.43403 0.0
C1655 C 0.1646 0.37728 0.43928 0.0
C1656 C 0.15342 0.41365 0.54929 0.0
C1657 C 0.0381 0.28377 0.47282 0.0
C1658 C 0.99612 0.416 0.44682 0.0
C1659 C 0.05261 0.36204 0.58479 0.0
O1660 O 0.08519 0.42672 0.41248 0.0
O1661 O 0.16372 0.37524 0.4797 0.0
O1662 O 0.11614 0.41742 0.56001 0.0
O1663 O 0.04921 0.29997 0.43791 0.0
O1664 O 1.01426 0.43198 0.47773 0.0
O1665 O 0.08888 0.3476 0.57491 0.0
O1666 O 1.0073 0.38246 0.42912 0.0
O1667 O 0.06051 0.28993 0.5058 0.0
O1668 O 0.0311 0.37922 0.55637 0.0
O1669 O 0.13813 0.35458 0.41957 0.0
O1670 O 0.10102 0.45677 0.4737 0.0
O1671 O 0.16199 0.38506 0.52238 0.0
Sc1672 Sc 0.36697 0.72327 0.27147 0.0
Sc1673 Sc 0.4548 0.67309 0.27717 0.0
Sc1674 Sc 0.42424 0.71746 0.36295 0.0
O1675 O 0.41652 0.71048 0.30278 0.0
C1676 C 0.3723 0.79217 0.34146 0.0
C1677 C 0.42627 0.73568 0.2035 0.0
C1678 C 0.50454 0.75017 0.31547 0.0
C1679 C 0.37465 0.63487 0.239 0.0
C1680 C 0.33157 0.68953 0.35425 0.0
C1681 C 0.41102 0.62368 0.34901 0.0
O1682 O 0.35632 0.77402 0.31055 0.0
O1683 O 0.44071 0.69941 0.21338 0.0
O1684 O 0.48833 0.73907 0.35039 0.0
O1685 O 0.37089 0.67215 0.22827 0.0
O1686 O 0.36157 0.7031 0.3758 0.0
O1687 O 0.41306 0.62456 0.30859 0.0
O1688 O 0.33153 0.68727 0.31458 0.0
O1689 O 0.40323 0.62629 0.26591 0.0
O1690 O 0.43371 0.65015 0.36872 0.0
O1691 O 0.40909 0.75719 0.23192 0.0
O1692 O 0.40584 0.78099 0.35917 0.0
O1693 O 0.49837 0.72776 0.2825 0.0
Sc1694 Sc 0.06502 0.61697 0.02148 0.0
Sc1695 Sc 0.11519 0.7048 0.02717 0.0
Sc1696 Sc 0.07084 0.67425 0.11295 0.0
O1697 O 0.07781 0.66652 0.05278 0.0
C1698 C 0.99612 0.62231 0.09147 0.0
C1699 C 0.05261 0.67626 0.9535 0.0
C1700 C 0.03811 0.75454 0.06547 0.0
C1701 C 0.15342 0.62465 0.989 0.0
C1702 C 0.09876 0.58157 0.10426 0.0
C1703 C 0.16461 0.66102 0.09901 0.0
O1704 O 1.01426 0.60632 0.06056 0.0
O1705 O 0.08888 0.69071 0.96338 0.0
O1706 O 0.04922 0.73833 0.10038 0.0
O1707 O 0.11614 0.62088 0.97828 0.0
O1708 O 0.08519 0.61158 0.12581 0.0
O1709 O 0.16373 0.66306 0.05859 0.0
O1710 O 0.10102 0.58153 0.06459 0.0
O1711 O 0.16199 0.65323 1.01591 0.0
O1712 O 0.13814 0.68372 0.11872 0.0
O1713 O 0.0311 0.65909 0.98192 0.0
O1714 O 1.0073 0.65585 0.10918 0.0
O1715 O 0.06052 0.74837 0.03249 0.0
Sc1716 Sc 0.17133 0.31503 0.77147 0.0
Sc1717 Sc 0.0835 0.36521 0.77717 0.0
Sc1718 Sc 0.11405 0.32085 0.86295 0.0
O1719 O 0.12178 0.32782 0.80278 0.0
C1720 C 0.16599 0.24613 0.84146 0.0
C1721 C 0.11203 0.30262 0.7035 0.0
C1722 C 0.03376 0.28813 0.81547 0.0
C1723 C 0.16365 0.40343 0.739 0.0
C1724 C 0.20673 0.34877 0.85425 0.0
C1725 C 0.12728 0.41462 0.849 0.0
O1726 O 0.18197 0.26428 0.81055 0.0
O1727 O 0.09759 0.3389 0.71338 0.0
O1728 O 0.04997 0.29923 0.85038 0.0
O1729 O 0.16741 0.36616 0.72827 0.0
O1730 O 0.17673 0.33521 0.8758 0.0
O1731 O 0.12524 0.41374 0.80859 0.0
O1732 O 0.20677 0.35103 0.81458 0.0
O1733 O 0.13507 0.41201 0.76591 0.0
O1734 O 0.10459 0.38815 0.86872 0.0
O1735 O 0.1292 0.28111 0.73192 0.0
O1736 O 0.13245 0.25731 0.85917 0.0
O1737 O 0.03992 0.31054 0.7825 0.0
Sc1738 Sc 0.46745 0.36406 0.61296 0.0
Sc1739 Sc 0.4231 0.33349 0.52718 0.0
Sc1740 Sc 0.47328 0.4213 0.52146 0.0
O1741 O 0.46047 0.37178 0.55279 0.0
C1742 C 0.43954 0.45673 0.60423 0.0
C1743 C 0.37368 0.37728 0.59901 0.0
C1744 C 0.38487 0.41364 0.489 0.0
C1745 C 0.50018 0.28377 0.56548 0.0
C1746 C 0.54218 0.41598 0.59145 0.0
C1747 C 0.48566 0.36203 0.45347 0.0
O1748 O 0.45309 0.42673 0.6258 0.0
O1749 O 0.37456 0.37524 0.55859 0.0
O1750 O 0.42215 0.4174 0.47827 0.0
O1751 O 0.48908 0.29997 0.60039 0.0
O1752 O 0.52404 0.43194 0.56052 0.0
O1753 O 0.4494 0.34758 0.46338 0.0
O1754 O 0.53099 0.38246 0.60919 0.0
O1755 O 0.47777 0.28992 0.53251 0.0
O1756 O 0.50717 0.37913 0.48193 0.0
O1757 O 0.40015 0.35458 0.61872 0.0
O1758 O 0.4373 0.45677 0.56456 0.0
O1759 O 0.3763 0.38506 0.51592 0.0
Sc1760 Sc 0.26682 0.36697 0.31502 0.0
Sc1761 Sc 0.26112 0.4548 0.3652 0.0
Sc1762 Sc 0.17534 0.42424 0.32083 0.0
O1763 O 0.23551 0.41652 0.32782 0.0
C1764 C 0.19683 0.3723 0.24612 0.0
C1765 C 0.33479 0.42627 0.30262 0.0
C1766 C 0.22282 0.50453 0.28812 0.0
C1767 C 0.29929 0.37465 0.40343 0.0
C1768 C 0.18404 0.33157 0.34875 0.0
C1769 C 0.18928 0.411 0.4146 0.0
O1770 O 0.22774 0.35632 0.26427 0.0
O1771 O 0.32491 0.44071 0.33889 0.0
O1772 O 0.18791 0.48833 0.29922 0.0
O1773 O 0.31002 0.37089 0.36615 0.0
O1774 O 0.16248 0.36157 0.33519 0.0
O1775 O 0.2297 0.41306 0.41373 0.0
O1776 O 0.22371 0.33153 0.35102 0.0
O1777 O 0.27238 0.40323 0.412 0.0
O1778 O 0.16957 0.4337 0.38813 0.0
O1779 O 0.30636 0.4091 0.2811 0.0
O1780 O 0.17912 0.40584 0.2573 0.0
O1781 O 0.25579 0.49837 0.31053 0.0
Sc1782 Sc 0.42132 0.51684 0.06503 0.0
Sc1783 Sc 0.33348 0.51113 0.1152 0.0
Sc1784 Sc 0.36405 0.42536 0.07083 0.0
O1785 O 0.37177 0.48553 0.07782 0.0
C1786 C 0.416 0.44685 0.99612 0.0
C1787 C 0.36202 0.5848 0.05262 0.0
C1788 C 0.28376 0.47283 0.03811 0.0
C1789 C 0.4136 0.54931 0.15342 0.0
C1790 C 0.45672 0.43407 0.09877 0.0
C1791 C 0.37728 0.4393 0.1646 0.0
O1792 O 0.43197 0.47776 1.01428 0.0
O1793 O 0.34758 0.57492 0.08889 0.0
O1794 O 0.29996 0.43792 0.04922 0.0
O1795 O 0.41741 0.56004 0.11615 0.0
O1796 O 0.42672 0.41251 0.08519 0.0
O1797 O 0.37522 0.47971 0.16374 0.0
O1798 O 0.45676 0.47374 0.10104 0.0
O1799 O 0.38503 0.5224 0.16201 0.0
O1800 O 0.35458 0.41958 0.13813 0.0
O1801 O 0.37919 0.55637 0.0311 0.0
O1802 O 0.38245 0.42914 1.0073 0.0
O1803 O 0.28992 0.50581 0.06053 0.0
Sc1804 Sc 0.27148 0.67133 0.81502 0.0
Sc1805 Sc 0.27718 0.5835 0.8652 0.0
Sc1806 Sc 0.36296 0.61406 0.82083 0.0
O1807 O 0.30279 0.62178 0.82782 0.0
C1808 C 0.34146 0.666 0.74612 0.0
C1809 C 0.20351 0.61203 0.80262 0.0
C1810 C 0.31547 0.53377 0.78812 0.0
C1811 C 0.23901 0.66365 0.90343 0.0
C1812 C 0.35426 0.70673 0.84876 0.0
C1813 C 0.34901 0.6273 0.9146 0.0
O1814 O 0.31056 0.68198 0.76427 0.0
O1815 O 0.21339 0.59759 0.83889 0.0
O1816 O 0.35039 0.54997 0.79922 0.0
O1817 O 0.22828 0.66741 0.86615 0.0
O1818 O 0.37581 0.67673 0.83519 0.0
O1819 O 0.3086 0.62524 0.91373 0.0
O1820 O 0.31459 0.70677 0.85102 0.0
O1821 O 0.26592 0.63507 0.912 0.0
O1822 O 0.36873 0.6046 0.88814 0.0
O1823 O 0.23193 0.6292 0.7811 0.0
O1824 O 0.35918 0.63246 0.7573 0.0
O1825 O 0.2825 0.53993 0.81053 0.0
Sc1826 Sc 0.11698 0.52146 0.56503 0.0
Sc1827 Sc 0.20481 0.52717 0.6152 0.0
Sc1828 Sc 0.17425 0.61294 0.57083 0.0
O1829 O 0.16652 0.55277 0.57782 0.0
C1830 C 0.1223 0.59145 0.49612 0.0
C1831 C 0.17627 0.4535 0.55262 0.0
C1832 C 0.25454 0.56546 0.53811 0.0
C1833 C 0.12469 0.48899 0.65342 0.0
C1834 C 0.08158 0.60424 0.59877 0.0
C1835 C 0.16102 0.599 0.6646 0.0
O1836 O 0.10632 0.56054 0.51428 0.0
O1837 O 0.19071 0.46338 0.58889 0.0
O1838 O 0.23833 0.60038 0.54922 0.0
O1839 O 0.12089 0.47826 0.61615 0.0
O1840 O 0.11157 0.62579 0.58519 0.0
O1841 O 0.16307 0.55859 0.66374 0.0
O1842 O 0.08154 0.56457 0.60104 0.0
O1843 O 0.15326 0.5159 0.66201 0.0
O1844 O 0.18371 0.61872 0.63813 0.0
O1845 O 0.15911 0.48193 0.5311 0.0
O1846 O 0.15584 0.60916 0.5073 0.0
O1847 O 0.24838 0.53249 0.56053 0.0
Sc1848 Sc 0.17534 0.61405 0.21746 0.0
Sc1849 Sc 0.26112 0.58349 0.17309 0.0
Sc1850 Sc 0.26683 0.67133 0.22328 0.0
O1851 O 0.23551 0.62178 0.21048 0.0
C1852 C 0.18405 0.70673 0.18954 0.0
C1853 C 0.18929 0.62729 0.12369 0.0
C1854 C 0.2993 0.66362 0.13489 0.0
C1855 C 0.22282 0.53376 0.25018 0.0
C1856 C 0.19684 0.66599 0.29218 0.0
C1857 C 0.33479 0.61202 0.23567 0.0
O1858 O 0.16249 0.67673 0.2031 0.0
O1859 O 0.2297 0.62524 0.12456 0.0
O1860 O 0.31003 0.66742 0.17216 0.0
O1861 O 0.18791 0.54997 0.23907 0.0
O1862 O 0.22775 0.68197 0.27403 0.0
O1863 O 0.32491 0.59759 0.1994 0.0
O1864 O 0.17912 0.63245 0.281 0.0
O1865 O 0.25579 0.53992 0.22776 0.0
O1866 O 0.30637 0.62919 0.25719 0.0
O1867 O 0.16957 0.60459 0.15016 0.0
O1868 O 0.22372 0.70677 0.18728 0.0
O1869 O 0.27239 0.63505 0.12629 0.0
Sc1870 Sc 0.17424 0.42536 0.96745 0.0
Sc1871 Sc 0.20481 0.51113 0.92309 0.0
Sc1872 Sc 0.11697 0.51684 0.97326 0.0
O1873 O 0.16652 0.48553 0.96047 0.0
C1874 C 0.08157 0.43407 0.93952 0.0
C1875 C 0.16101 0.4393 0.87369 0.0
C1876 C 0.12468 0.54932 0.88487 0.0
C1877 C 0.25453 0.47283 1.00017 0.0
C1878 C 0.1223 0.44685 0.04217 0.0
C1879 C 0.17627 0.5848 0.98567 0.0
O1880 O 0.11157 0.41251 0.95309 0.0
O1881 O 0.16307 0.47971 0.87455 0.0
O1882 O 0.12088 0.56004 0.92214 0.0
O1883 O 0.23832 0.43792 0.98907 0.0
O1884 O 0.10632 0.47776 0.02401 0.0
O1885 O 0.19071 0.57492 0.9494 0.0
O1886 O 0.15584 0.42914 0.03099 0.0
O1887 O 0.24837 0.50581 0.97776 0.0
O1888 O 0.1591 0.55637 1.00719 0.0
O1889 O 0.18371 0.41958 0.90016 0.0
O1890 O 0.08153 0.47374 0.93725 0.0
O1891 O 0.15325 0.5224 0.87628 0.0
Sc1892 Sc 0.36295 0.42425 0.71746 0.0
Sc1893 Sc 0.27718 0.45481 0.67309 0.0
Sc1894 Sc 0.27147 0.36698 0.72328 0.0
O1895 O 0.30278 0.41652 0.71048 0.0
C1896 C 0.35425 0.33157 0.68954 0.0
C1897 C 0.34901 0.41101 0.62369 0.0
C1898 C 0.23899 0.37468 0.63489 0.0
C1899 C 0.31547 0.50454 0.75018 0.0
C1900 C 0.34146 0.37231 0.79218 0.0
C1901 C 0.20351 0.42628 0.73567 0.0
O1902 O 0.3758 0.36157 0.7031 0.0
O1903 O 0.30859 0.41307 0.62456 0.0
O1904 O 0.22827 0.37088 0.67216 0.0
O1905 O 0.35039 0.48833 0.73907 0.0
O1906 O 0.31055 0.35634 0.77403 0.0
O1907 O 0.21339 0.44072 0.6994 0.0
O1908 O 0.35917 0.40585 0.781 0.0
O1909 O 0.2825 0.49838 0.72776 0.0
O1910 O 0.23193 0.40911 0.75719 0.0
O1911 O 0.36872 0.43371 0.65016 0.0
O1912 O 0.31458 0.33153 0.68728 0.0
O1913 O 0.26591 0.40325 0.62629 0.0
Sc1914 Sc 0.42133 0.52147 0.47327 0.0
Sc1915 Sc 0.3335 0.52717 0.42309 0.0
Sc1916 Sc 0.36405 0.61295 0.46745 0.0
O1917 O 0.37178 0.55278 0.46047 0.0
C1918 C 0.41599 0.59146 0.54217 0.0
C1919 C 0.36203 0.4535 0.48567 0.0
C1920 C 0.28376 0.56546 0.50017 0.0
C1921 C 0.41365 0.489 0.38486 0.0
C1922 C 0.45673 0.60425 0.43953 0.0
C1923 C 0.37729 0.599 0.37369 0.0
O1924 O 0.43197 0.56055 0.52402 0.0
O1925 O 0.34759 0.46338 0.4494 0.0
O1926 O 0.29997 0.60038 0.48906 0.0
O1927 O 0.41741 0.47827 0.42214 0.0
O1928 O 0.42673 0.6258 0.4531 0.0
O1929 O 0.37524 0.55859 0.37456 0.0
O1930 O 0.45677 0.56458 0.43727 0.0
O1931 O 0.38507 0.51591 0.37629 0.0
O1932 O 0.35459 0.61872 0.40015 0.0
O1933 O 0.3792 0.48192 0.50719 0.0
O1934 O 0.38245 0.60917 0.53099 0.0
O1935 O 0.28993 0.53249 0.47775 0.0
Sc1936 Sc 0.31501 0.26683 0.36697 0.0
Sc1937 Sc 0.3652 0.26112 0.4548 0.0
Sc1938 Sc 0.32083 0.17535 0.42424 0.0
O1939 O 0.32781 0.23552 0.41651 0.0
C1940 C 0.24611 0.19684 0.3723 0.0
C1941 C 0.30261 0.33479 0.42627 0.0
C1942 C 0.28811 0.22282 0.50453 0.0
C1943 C 0.4034 0.29931 0.37467 0.0
C1944 C 0.34876 0.18406 0.33156 0.0
C1945 C 0.41461 0.18929 0.41101 0.0
O1946 O 0.26426 0.22775 0.35633 0.0
O1947 O 0.33889 0.32491 0.44071 0.0
O1948 O 0.29922 0.18791 0.48832 0.0
O1949 O 0.36613 0.31003 0.37088 0.0
O1950 O 0.3352 0.1625 0.36156 0.0
O1951 O 0.41373 0.22971 0.41306 0.0
O1952 O 0.35101 0.22373 0.33152 0.0
O1953 O 0.412 0.27239 0.40324 0.0
O1954 O 0.38813 0.16958 0.4337 0.0
O1955 O 0.2811 0.30637 0.40911 0.0
O1956 O 0.2573 0.17912 0.40583 0.0
O1957 O 0.31053 0.2558 0.49837 0.0
Sc1958 Sc 0.82085 0.36296 0.61404 0.0
Sc1959 Sc 0.86521 0.27718 0.58348 0.0
Sc1960 Sc 0.81501 0.27147 0.67131 0.0
O1961 O 0.82783 0.30279 0.62177 0.0
C1962 C 0.84876 0.35425 0.70672 0.0
C1963 C 0.91462 0.34901 0.62728 0.0
C1964 C 0.90341 0.239 0.66361 0.0
C1965 C 0.78813 0.31548 0.53375 0.0
C1966 C 0.74612 0.34147 0.66597 0.0
C1967 C 0.80263 0.2035 0.61201 0.0
O1968 O 0.8352 0.37581 0.67671 0.0
O1969 O 0.91374 0.3086 0.62522 0.0
O1970 O 0.86614 0.22827 0.66741 0.0
O1971 O 0.79924 0.35039 0.54995 0.0
O1972 O 0.76426 0.31055 0.68195 0.0
O1973 O 0.8389 0.21339 0.59758 0.0
O1974 O 0.75731 0.35918 0.63243 0.0
O1975 O 0.81054 0.2825 0.53991 0.0
O1976 O 0.78111 0.23192 0.62918 0.0
O1977 O 0.88815 0.36874 0.60458 0.0
O1978 O 0.85101 0.31458 0.70675 0.0
O1979 O 0.91201 0.26591 0.63504 0.0
Sc1980 Sc 0.42534 0.07084 0.36405 0.0
Sc1981 Sc 0.51112 0.11521 0.33349 0.0
Sc1982 Sc 0.51682 0.06503 0.42133 0.0
O1983 O 0.48551 0.07783 0.37178 0.0
C1984 C 0.43404 0.09878 0.45672 0.0
C1985 C 0.43929 0.16461 0.37729 0.0
C1986 C 0.5493 0.15342 0.41362 0.0
C1987 C 0.47282 0.03812 0.28376 0.0
C1988 C 0.44683 0.99613 0.416 0.0
C1989 C 0.58478 0.05262 0.36204 0.0
O1990 O 0.41249 0.0852 0.42672 0.0
O1991 O 0.4797 0.16374 0.37523 0.0
O1992 O 0.56003 0.11614 0.41742 0.0
O1993 O 0.43791 0.04923 0.29997 0.0
O1994 O 0.47773 1.01429 0.43198 0.0
O1995 O 0.57491 0.08889 0.34759 0.0
O1996 O 0.42912 1.0073 0.38245 0.0
O1997 O 0.5058 0.06054 0.28992 0.0
O1998 O 0.55636 0.03111 0.37921 0.0
O1999 O 0.41957 0.13814 0.35459 0.0
O2000 O 0.47371 0.10105 0.45676 0.0
O2001 O 0.52239 0.16202 0.38505 0.0
Sc2002 Sc 0.72328 0.76683 0.17132 0.0
Sc2003 Sc 0.67309 0.76112 0.08349 0.0
Sc2004 Sc 0.71745 0.67534 0.11404 0.0
O2005 O 0.71047 0.73551 0.12177 0.0
C2006 C 0.79218 0.69683 0.16597 0.0
C2007 C 0.73567 0.8348 0.11202 0.0
C2008 C 0.75017 0.72282 0.03376 0.0
C2009 C 0.63488 0.7993 0.16362 0.0
C2010 C 0.68953 0.68405 0.20672 0.0
C2011 C 0.62368 0.68929 0.12728 0.0
O2012 O 0.77403 0.72775 0.18195 0.0
O2013 O 0.69939 0.82491 0.09758 0.0
O2014 O 0.73906 0.6879 0.04996 0.0
O2015 O 0.67216 0.81003 0.16742 0.0
O2016 O 0.70309 0.66249 0.17672 0.0
O2017 O 0.62455 0.7297 0.12523 0.0
O2018 O 0.68728 0.72372 0.20676 0.0
O2019 O 0.62628 0.77239 0.13504 0.0
O2020 O 0.65014 0.66956 0.10459 0.0
O2021 O 0.75719 0.80637 0.12918 0.0
O2022 O 0.78099 0.67911 0.13244 0.0
O2023 O 0.72776 0.75579 0.03992 0.0
Sc2024 Sc 0.61296 0.46745 0.36406 0.0
Sc2025 Sc 0.52718 0.42309 0.33349 0.0
Sc2026 Sc 0.52147 0.47327 0.42132 0.0
O2027 O 0.55279 0.46047 0.37178 0.0
C2028 C 0.60425 0.43953 0.45673 0.0
C2029 C 0.59901 0.37368 0.37729 0.0
C2030 C 0.489 0.38488 0.41362 0.0
C2031 C 0.56548 0.50018 0.28376 0.0
C2032 C 0.59146 0.54217 0.41599 0.0
C2033 C 0.45351 0.48567 0.36202 0.0
O2034 O 0.6258 0.45309 0.42673 0.0
O2035 O 0.5586 0.37455 0.37523 0.0
O2036 O 0.47827 0.42216 0.41741 0.0
O2037 O 0.6004 0.48907 0.29997 0.0
O2038 O 0.56055 0.52402 0.43197 0.0
O2039 O 0.46339 0.4494 0.34758 0.0
O2040 O 0.60918 0.53099 0.38246 0.0
O2041 O 0.53251 0.47776 0.28992 0.0
O2042 O 0.48193 0.50719 0.37918 0.0
O2043 O 0.61874 0.40015 0.35459 0.0
O2044 O 0.56458 0.43728 0.45677 0.0
O2045 O 0.51591 0.37628 0.38505 0.0
Sc2046 Sc 0.21746 0.86296 0.92424 0.0
Sc2047 Sc 0.1731 0.77718 0.9548 0.0
Sc2048 Sc 0.22328 0.77147 0.86697 0.0
O2049 O 0.21048 0.80279 0.91651 0.0
C2050 C 0.18954 0.85425 0.83156 0.0
C2051 C 0.12369 0.84901 0.911 0.0
C2052 C 0.13489 0.739 0.87467 0.0
C2053 C 0.25018 0.81548 1.00453 0.0
C2054 C 0.29218 0.84146 0.8723 0.0
C2055 C 0.23568 0.70351 0.92628 0.0
O2056 O 0.2031 0.8758 0.86156 0.0
O2057 O 0.12456 0.80859 0.91306 0.0
O2058 O 0.17217 0.72827 0.87088 0.0
O2059 O 0.23908 0.85039 0.98832 0.0
O2060 O 0.27403 0.81055 0.85633 0.0
O2061 O 0.19941 0.71339 0.94071 0.0
O2062 O 0.281 0.85918 0.90584 0.0
O2063 O 0.22776 0.78251 0.99837 0.0
O2064 O 0.2572 0.73193 0.90911 0.0
O2065 O 0.15016 0.86873 0.9337 0.0
O2066 O 0.18728 0.81457 0.83152 0.0
O2067 O 0.12629 0.76591 0.90324 0.0
Sc2068 Sc 0.42534 0.96746 0.17424 0.0
Sc2069 Sc 0.51112 0.9231 0.2048 0.0
Sc2070 Sc 0.51682 0.97327 0.11696 0.0
O2071 O 0.48551 0.96048 0.16651 0.0
C2072 C 0.43405 0.93953 0.08157 0.0
C2073 C 0.43929 0.87369 0.16101 0.0
C2074 C 0.54931 0.88489 0.12467 0.0
C2075 C 0.47282 1.00018 0.25453 0.0
C2076 C 0.44683 0.04217 0.12229 0.0
C2077 C 0.58478 0.98569 0.17626 0.0
O2078 O 0.41249 0.9531 0.11157 0.0
O2079 O 0.47971 0.87456 0.16306 0.0
O2080 O 0.56003 0.92216 0.12088 0.0
O2081 O 0.43791 0.98908 0.23832 0.0
O2082 O 0.47774 0.02402 0.10631 0.0
O2083 O 0.57491 0.94942 0.1907 0.0
O2084 O 0.42912 0.031 0.15584 0.0
O2085 O 0.5058 0.97777 0.24837 0.0
O2086 O 0.55636 1.0072 0.15909 0.0
O2087 O 0.41957 0.90016 0.1837 0.0
O2088 O 0.47372 0.93726 0.08153 0.0
O2089 O 0.52239 0.87629 0.15325 0.0
Sc2090 Sc 0.02147 0.06503 0.61696 0.0
Sc2091 Sc 0.02717 0.1152 0.7048 0.0
Sc2092 Sc 0.11295 0.07084 0.67424 0.0
O2093 O 0.05278 0.07782 0.66651 0.0
C2094 C 0.09146 0.99613 0.62229 0.0
C2095 C 0.95351 0.05261 0.67626 0.0
C2096 C 0.06547 0.03812 0.75453 0.0
C2097 C 0.98899 0.15341 0.62468 0.0
C2098 C 0.10425 0.09877 0.58157 0.0
C2099 C 0.099 0.16461 0.66101 0.0
O2100 O 0.06056 1.01428 0.60631 0.0
O2101 O 0.96339 0.08888 0.6907 0.0
O2102 O 0.10039 0.04922 0.73832 0.0
O2103 O 0.97827 0.11614 0.62088 0.0
O2104 O 0.1258 0.0852 0.61157 0.0
O2105 O 0.05859 0.16374 0.66306 0.0
O2106 O 0.06458 0.10104 0.58153 0.0
O2107 O 1.0159 0.16201 0.65325 0.0
O2108 O 0.11872 0.13814 0.6837 0.0
O2109 O 0.98194 0.0311 0.65909 0.0
O2110 O 0.10917 1.0073 0.65584 0.0
O2111 O 0.0325 0.06053 0.74837 0.0
loop_
_geom_bond_atom_site_label_1
_geom_bond_atom_site_label_2
_geom_bond_distance
_geom_bond_site_symmetry_2
_ccdc_geom_bond_type
Sc0 O3 2.025 . S
Sc0 O10 2.105 . S
Sc0 O13 2.105 . S
Sc0 O16 2.105 . S
Sc0 O19 2.105 . S
Sc1 O3 2.025 . S
Sc1 O11 2.105 . S
Sc1 O15 2.105 . S
Sc1 O17 2.105 . S
Sc1 O21 2.105 . S
Sc2 O3 2.025 . S
Sc2 O12 2.105 . S
Sc2 O14 2.105 . S
Sc2 O18 2.105 . S
Sc2 O20 2.105 . S
O3 Sc0 2.025 . S
O3 Sc1 2.025 . S
O3 Sc2 2.025 . S
C4 O10 1.268 . S
C4 O20 1.268 . S
C5 O11 1.268 . S
C5 O19 1.268 . S
C6 O12 1.268 . S
C6 O21 1.268 . S
C7 O13 1.268 . S
C7 O17 1.268 . S
C8 O14 1.268 . S
C8 O16 1.268 . S
C9 O15 1.268 . S
C9 O18 1.268 . S
O10 Sc0 2.105 . S
O10 C4 1.268 . S
O11 Sc1 2.105 . S
O11 C5 1.268 . S
O12 Sc2 2.105 . S
O12 C6 1.268 . S
O13 Sc0 2.105 . S
O13 C7 1.268 . S
O14 Sc2 2.105 . S
O14 C8 1.268 . S
O15 Sc1 2.105 . S
O15 C9 1.268 . S
O16 Sc0 2.105 . S
O16 C8 1.268 . S
O17 Sc1 2.105 . S
O17 C7 1.268 . S
O18 Sc2 2.105 . S
O18 C9 1.268 . S
O19 Sc0 2.105 . S
O19 C5 1.268 . S
O20 Sc2 2.105 . S
O20 C4 1.268 . S
O21 Sc1 2.105 . S
O21 C6 1.268 . S
Sc22 O25 2.025 . S
Sc22 O32 2.105 . S
Sc22 O35 2.105 . S
Sc22 O38 2.105 1_455 S
Sc22 O41 2.105 . S
Sc23 O25 2.025 . S
Sc23 O33 2.105 . S
Sc23 O37 2.105 . S
Sc23 O39 2.105 . S
Sc23 O43 2.105 . S
Sc24 O25 2.025 . S
Sc24 O34 2.105 . S
Sc24 O36 2.105 1_455 S
Sc24 O40 2.105 . S
Sc24 O42 2.105 . S
O25 Sc22 2.025 . S
O25 Sc23 2.025 . S
O25 Sc24 2.025 . S
C26 O32 1.268 . S
C26 O42 1.268 . S
C27 O33 1.268 . S
C27 O41 1.268 . S
C28 O34 1.268 . S
C28 O43 1.268 . S
C29 O35 1.268 . S
C29 O39 1.268 . S
C30 O36 1.268 . S
C30 O38 1.268 . S
C31 O37 1.268 . S
C31 O40 1.268 . S
O32 Sc22 2.105 . S
O32 C26 1.268 . S
O33 Sc23 2.105 . S
O33 C27 1.268 . S
O34 Sc24 2.105 . S
O34 C28 1.268 . S
O35 Sc22 2.105 . S
O35 C29 1.268 . S
O36 Sc24 2.105 1_655 S
O36 C30 1.268 . S
O37 Sc23 2.105 . S
O37 C31 1.268 . S
O38 Sc22 2.105 1_655 S
O38 C30 1.268 . S
O39 Sc23 2.105 . S
O39 C29 1.268 . S
O40 Sc24 2.105 . S
O40 C31 1.268 . S
O41 Sc22 2.105 . S
O41 C27 1.268 . S
O42 Sc24 2.105 . S
O42 C26 1.268 . S
O43 Sc23 2.105 . S
O43 C28 1.268 . S
Sc44 O47 2.025 . S
Sc44 O54 2.105 . S
Sc44 O57 2.105 . S
Sc44 O60 2.105 . S
Sc44 O63 2.105 . S
Sc45 O47 2.025 . S
Sc45 O55 2.105 . S
Sc45 O59 2.105 . S
Sc45 O61 2.105 . S
Sc45 O65 2.105 . S
Sc46 O47 2.025 . S
Sc46 O56 2.105 . S
Sc46 O58 2.105 . S
Sc46 O62 2.105 . S
Sc46 O64 2.105 . S
O47 Sc44 2.025 . S
O47 Sc45 2.025 . S
O47 Sc46 2.025 . S
C48 O54 1.268 . S
C48 O64 1.268 . S
C49 O55 1.268 . S
C49 O63 1.268 . S
C50 O56 1.268 . S
C50 O65 1.268 . S
C51 O57 1.268 . S
C51 O61 1.268 . S
C52 O58 1.268 . S
C52 O60 1.268 . S
C53 O59 1.268 . S
C53 O62 1.268 . S
O54 Sc44 2.105 . S
O54 C48 1.268 . S
O55 Sc45 2.105 . S
O55 C49 1.268 . S
O56 Sc46 2.105 . S
O56 C50 1.268 . S
O57 Sc44 2.105 . S
O57 C51 1.268 . S
O58 Sc46 2.105 . S
O58 C52 1.268 . S
O59 Sc45 2.105 . S
O59 C53 1.268 . S
O60 Sc44 2.105 . S
O60 C52 1.268 . S
O61 Sc45 2.105 . S
O61 C51 1.268 . S
O62 Sc46 2.105 . S
O62 C53 1.268 . S
O63 Sc44 2.105 . S
O63 C49 1.268 . S
O64 Sc46 2.105 . S
O64 C48 1.268 . S
O65 Sc45 2.105 . S
O65 C50 1.268 . S
Sc66 O69 2.025 . S
Sc66 O76 2.105 . S
Sc66 O79 2.105 . S
Sc66 O82 2.105 . S
Sc66 O85 2.105 . S
Sc67 O69 2.025 . S
Sc67 O77 2.105 . S
Sc67 O81 2.105 1_554 S
Sc67 O83 2.105 . S
Sc67 O87 2.105 1_554 S
Sc68 O69 2.025 . S
Sc68 O78 2.105 1_554 S
Sc68 O80 2.105 . S
Sc68 O84 2.105 1_554 S
Sc68 O86 2.105 . S
O69 Sc66 2.025 . S
O69 Sc67 2.025 . S
O69 Sc68 2.025 . S
C70 O76 1.268 . S
C70 O86 1.268 . S
C71 O77 1.268 . S
C71 O85 1.268 . S
C72 O78 1.268 . S
C72 O87 1.268 . S
C73 O79 1.268 . S
C73 O83 1.268 . S
C74 O80 1.268 . S
C74 O82 1.268 . S
C75 O81 1.268 . S
C75 O84 1.268 . S
O76 Sc66 2.105 . S
O76 C70 1.268 . S
O77 Sc67 2.105 . S
O77 C71 1.268 . S
O78 Sc68 2.105 1_556 S
O78 C72 1.268 . S
O79 Sc66 2.105 . S
O79 C73 1.268 . S
O80 Sc68 2.105 . S
O80 C74 1.268 . S
O81 Sc67 2.105 1_556 S
O81 C75 1.268 . S
O82 Sc66 2.105 . S
O82 C74 1.268 . S
O83 Sc67 2.105 . S
O83 C73 1.268 . S
O84 Sc68 2.105 1_556 S
O84 C75 1.268 . S
O85 Sc66 2.105 . S
O85 C71 1.268 . S
O86 Sc68 2.105 . S
O86 C70 1.268 . S
O87 Sc67 2.105 1_556 S
O87 C72 1.268 . S
Sc88 O91 2.025 . S
Sc88 O98 2.105 . S
Sc88 O101 2.105 . S
Sc88 O104 2.105 . S
Sc88 O107 2.105 . S
Sc89 O91 2.025 . S
Sc89 O99 2.105 . S
Sc89 O103 2.105 . S
Sc89 O105 2.105 . S
Sc89 O109 2.105 . S
Sc90 O91 2.025 . S
Sc90 O100 2.105 . S
Sc90 O102 2.105 . S
Sc90 O106 2.105 . S
Sc90 O108 2.105 . S
O91 Sc88 2.025 . S
O91 Sc89 2.025 . S
O91 Sc90 2.025 . S
C92 O98 1.268 . S
C92 O108 1.268 . S
C93 O99 1.268 . S
C93 O107 1.268 . S
C94 O100 1.268 . S
C94 O109 1.268 . S
C95 O101 1.268 . S
C95 O105 1.268 . S
C96 O102 1.268 . S
C96 O104 1.268 . S
C97 O103 1.268 . S
C97 O106 1.268 . S
O98 Sc88 2.105 . S
O98 C92 1.268 . S
O99 Sc89 2.105 . S
O99 C93 1.268 . S
O100 Sc90 2.105 . S
O100 C94 1.268 . S
O101 Sc88 2.105 . S
O101 C95 1.268 . S
O102 Sc90 2.105 . S
O102 C96 1.268 . S
O103 Sc89 2.105 . S
O103 C97 1.268 . S
O104 Sc88 2.105 . S
O104 C96 1.268 . S
O105 Sc89 2.105 . S
O105 C95 1.268 . S
O106 Sc90 2.105 . S
O106 C97 1.268 . S
O107 Sc88 2.105 . S
O107 C93 1.268 . S
O108 Sc90 2.105 . S
O108 C92 1.268 . S
O109 Sc89 2.105 . S
O109 C94 1.268 . S
Sc110 O113 2.025 . S
Sc110 O120 2.105 . S
Sc110 O123 2.105 . S
Sc110 O126 2.105 . S
Sc110 O129 2.105 . S
Sc111 O113 2.025 . S
Sc111 O121 2.105 . S
Sc111 O125 2.105 . S
Sc111 O127 2.105 . S
Sc111 O131 2.105 . S
Sc112 O113 2.025 . S
Sc112 O122 2.105 . S
Sc112 O124 2.105 . S
Sc112 O128 2.105 . S
Sc112 O130 2.105 . S
O113 Sc110 2.025 . S
O113 Sc111 2.025 . S
O113 Sc112 2.025 . S
C114 O120 1.268 . S
C114 O130 1.268 . S
C115 O121 1.268 . S
C115 O129 1.268 . S
C116 O122 1.268 . S
C116 O131 1.268 . S
C117 O123 1.268 . S
C117 O127 1.268 . S
C118 O124 1.268 . S
C118 O126 1.268 . S
C119 O125 1.268 . S
C119 O128 1.268 . S
O120 Sc110 2.105 . S
O120 C114 1.268 . S
O121 Sc111 2.105 . S
O121 C115 1.268 . S
O122 Sc112 2.105 . S
O122 C116 1.268 . S
O123 Sc110 2.105 . S
O123 C117 1.268 . S
O124 Sc112 2.105 . S
O124 C118 1.268 . S
O125 Sc111 2.105 . S
O125 C119 1.268 . S
O126 Sc110 2.105 . S
O126 C118 1.268 . S
O127 Sc111 2.105 . S
O127 C117 1.268 . S
O128 Sc112 2.105 . S
O128 C119 1.268 . S
O129 Sc110 2.105 . S
O129 C115 1.268 . S
O130 Sc112 2.105 . S
O130 C114 1.268 . S
O131 Sc111 2.105 . S
O131 C116 1.268 . S
Sc132 O135 2.025 . S
Sc132 O142 2.105 . S
Sc132 O145 2.105 . S
Sc132 O148 2.105 . S
Sc132 O151 2.105 . S
Sc133 O135 2.025 . S
Sc133 O143 2.105 . S
Sc133 O147 2.105 . S
Sc133 O149 2.105 . S
Sc133 O153 2.105 . S
Sc134 O135 2.025 . S
Sc134 O144 2.105 . S
Sc134 O146 2.105 . S
Sc134 O150 2.105 . S
Sc134 O152 2.105 . S
O135 Sc132 2.025 . S
O135 Sc133 2.025 . S
O135 Sc134 2.025 . S
C136 O142 1.268 . S
C136 O152 1.268 . S
C137 O143 1.268 . S
C137 O151 1.268 . S
C138 O144 1.268 . S
C138 O153 1.268 . S
C139 O145 1.268 . S
C139 O149 1.268 . S
C140 O146 1.268 . S
C140 O148 1.268 . S
C141 O147 1.268 . S
C141 O150 1.268 . S
O142 Sc132 2.105 . S
O142 C136 1.268 . S
O143 Sc133 2.105 . S
O143 C137 1.268 . S
O144 Sc134 2.105 . S
O144 C138 1.268 . S
O145 Sc132 2.105 . S
O145 C139 1.268 . S
O146 Sc134 2.105 . S
O146 C140 1.268 . S
O147 Sc133 2.105 . S
O147 C141 1.268 . S
O148 Sc132 2.105 . S
O148 C140 1.268 . S
O149 Sc133 2.105 . S
O149 C139 1.268 . S
O150 Sc134 2.105 . S
O150 C141 1.268 . S
O151 Sc132 2.105 . S
O151 C137 1.268 . S
O152 Sc134 2.105 . S
O152 C136 1.268 . S
O153 Sc133 2.105 . S
O153 C138 1.268 . S
Sc154 O157 2.025 . S
Sc154 O164 2.105 1_455 S
Sc154 O167 2.105 . S
Sc154 O170 2.105 . S
Sc154 O173 2.105 . S
Sc155 O157 2.025 . S
Sc155 O165 2.105 . S
Sc155 O169 2.105 1_556 S
Sc155 O171 2.105 . S
Sc155 O175 2.105 1_556 S
Sc156 O157 2.025 . S
Sc156 O166 2.105 1_556 S
Sc156 O168 2.105 . S
Sc156 O172 2.105 1_556 S
Sc156 O174 2.105 1_455 S
O157 Sc154 2.025 . S
O157 Sc155 2.025 . S
O157 Sc156 2.025 . S
C158 O164 1.268 . S
C158 O174 1.268 . S
C159 O165 1.268 . S
C159 O173 1.268 . S
C160 O166 1.268 . S
C160 O175 1.268 . S
C161 O167 1.268 . S
C161 O171 1.268 . S
C162 O168 1.268 . S
C162 O170 1.268 . S
C163 O169 1.268 . S
C163 O172 1.268 . S
O164 Sc154 2.105 1_655 S
O164 C158 1.268 . S
O165 Sc155 2.105 . S
O165 C159 1.268 . S
O166 Sc156 2.105 1_554 S
O166 C160 1.268 . S
O167 Sc154 2.105 . S
O167 C161 1.268 . S
O168 Sc156 2.105 . S
O168 C162 1.268 . S
O169 Sc155 2.105 1_554 S
O169 C163 1.268 . S
O170 Sc154 2.105 . S
O170 C162 1.268 . S
O171 Sc155 2.105 . S
O171 C161 1.268 . S
O172 Sc156 2.105 1_554 S
O172 C163 1.268 . S
O173 Sc154 2.105 . S
O173 C159 1.268 . S
O174 Sc156 2.105 1_655 S
O174 C158 1.268 . S
O175 Sc155 2.105 1_554 S
O175 C160 1.268 . S
Sc176 O179 2.025 . S
Sc176 O186 2.105 . S
Sc176 O189 2.105 . S
Sc176 O192 2.105 . S
Sc176 O195 2.105 . S
Sc177 O179 2.025 . S
Sc177 O187 2.105 . S
Sc177 O191 2.105 . S
Sc177 O193 2.105 . S
Sc177 O197 2.105 . S
Sc178 O179 2.025 . S
Sc178 O188 2.105 . S
Sc178 O190 2.105 . S
Sc178 O194 2.105 . S
Sc178 O196 2.105 . S
O179 Sc176 2.025 . S
O179 Sc177 2.025 . S
O179 Sc178 2.025 . S
C180 O186 1.268 . S
C180 O196 1.268 . S
C181 O187 1.268 . S
C181 O195 1.268 . S
C182 O188 1.268 . S
C182 O197 1.268 . S
C183 O189 1.268 . S
C183 O193 1.268 . S
C184 O190 1.268 . S
C184 O192 1.268 . S
C185 O191 1.268 . S
C185 O194 1.268 . S
O186 Sc176 2.105 . S
O186 C180 1.268 . S
O187 Sc177 2.105 . S
O187 C181 1.268 . S
O188 Sc178 2.105 . S
O188 C182 1.268 . S
O189 Sc176 2.105 . S
O189 C183 1.268 . S
O190 Sc178 2.105 . S
O190 C184 1.268 . S
O191 Sc177 2.105 . S
O191 C185 1.268 . S
O192 Sc176 2.105 . S
O192 C184 1.268 . S
O193 Sc177 2.105 . S
O193 C183 1.268 . S
O194 Sc178 2.105 . S
O194 C185 1.268 . S
O195 Sc176 2.105 . S
O195 C181 1.268 . S
O196 Sc178 2.105 . S
O196 C180 1.268 . S
O197 Sc177 2.105 . S
O197 C182 1.268 . S
Sc198 O201 2.025 . S
Sc198 O208 2.105 . S
Sc198 O211 2.105 . S
Sc198 O214 2.105 . S
Sc198 O217 2.105 . S
Sc199 O201 2.025 . S
Sc199 O209 2.105 . S
Sc199 O213 2.105 1_545 S
Sc199 O215 2.105 . S
Sc199 O219 2.105 1_545 S
Sc200 O201 2.025 . S
Sc200 O210 2.105 1_545 S
Sc200 O212 2.105 . S
Sc200 O216 2.105 1_545 S
Sc200 O218 2.105 . S
O201 Sc198 2.025 . S
O201 Sc199 2.025 . S
O201 Sc200 2.025 . S
C202 O208 1.268 . S
C202 O218 1.268 . S
C203 O209 1.268 . S
C203 O217 1.268 . S
C204 O210 1.268 . S
C204 O219 1.268 . S
C205 O211 1.268 . S
C205 O215 1.268 . S
C206 O212 1.268 . S
C206 O214 1.268 . S
C207 O213 1.268 . S
C207 O216 1.268 . S
O208 Sc198 2.105 . S
O208 C202 1.268 . S
O209 Sc199 2.105 . S
O209 C203 1.268 . S
O210 Sc200 2.105 1_565 S
O210 C204 1.268 . S
O211 Sc198 2.105 . S
O211 C205 1.268 . S
O212 Sc200 2.105 . S
O212 C206 1.268 . S
O213 Sc199 2.105 1_565 S
O213 C207 1.268 . S
O214 Sc198 2.105 . S
O214 C206 1.268 . S
O215 Sc199 2.105 . S
O215 C205 1.268 . S
O216 Sc200 2.105 1_565 S
O216 C207 1.268 . S
O217 Sc198 2.105 . S
O217 C203 1.268 . S
O218 Sc200 2.105 . S
O218 C202 1.268 . S
O219 Sc199 2.105 1_565 S
O219 C204 1.268 . S
Sc220 O223 2.025 . S
Sc220 O230 2.105 . S
Sc220 O233 2.105 . S
Sc220 O236 2.105 . S
Sc220 O239 2.105 . S
Sc221 O223 2.025 . S
Sc221 O231 2.105 . S
Sc221 O235 2.105 . S
Sc221 O237 2.105 . S
Sc221 O241 2.105 . S
Sc222 O223 2.025 . S
Sc222 O232 2.105 . S
Sc222 O234 2.105 . S
Sc222 O238 2.105 . S
Sc222 O240 2.105 . S
O223 Sc220 2.025 . S
O223 Sc221 2.025 . S
O223 Sc222 2.025 . S
C224 O230 1.268 . S
C224 O240 1.268 . S
C225 O231 1.268 . S
C225 O239 1.268 . S
C226 O232 1.268 . S
C226 O241 1.268 . S
C227 O233 1.268 . S
C227 O237 1.268 . S
C228 O234 1.268 . S
C228 O236 1.268 . S
C229 O235 1.268 . S
C229 O238 1.268 . S
O230 Sc220 2.105 . S
O230 C224 1.268 . S
O231 Sc221 2.105 . S
O231 C225 1.268 . S
O232 Sc222 2.105 . S
O232 C226 1.268 . S
O233 Sc220 2.105 . S
O233 C227 1.268 . S
O234 Sc222 2.105 . S
O234 C228 1.268 . S
O235 Sc221 2.105 . S
O235 C229 1.268 . S
O236 Sc220 2.105 . S
O236 C228 1.268 . S
O237 Sc221 2.105 . S
O237 C227 1.268 . S
O238 Sc222 2.105 . S
O238 C229 1.268 . S
O239 Sc220 2.105 . S
O239 C225 1.268 . S
O240 Sc222 2.105 . S
O240 C224 1.268 . S
O241 Sc221 2.105 . S
O241 C226 1.268 . S
Sc242 O245 2.025 . S
Sc242 O252 2.105 . S
Sc242 O255 2.105 1_565 S
Sc242 O258 2.105 1_556 S
Sc242 O261 2.105 1_565 S
Sc243 O245 2.025 . S
Sc243 O253 2.105 1_565 S
Sc243 O257 2.105 . S
Sc243 O259 2.105 1_565 S
Sc243 O263 2.105 . S
Sc244 O245 2.025 . S
Sc244 O254 2.105 . S
Sc244 O256 2.105 1_556 S
Sc244 O260 2.105 . S
Sc244 O262 2.105 . S
O245 Sc242 2.025 . S
O245 Sc243 2.025 . S
O245 Sc244 2.025 . S
C246 O252 1.268 . S
C246 O262 1.268 . S
C247 O253 1.268 . S
C247 O261 1.268 . S
C248 O254 1.268 . S
C248 O263 1.268 . S
C249 O255 1.268 . S
C249 O259 1.268 . S
C250 O256 1.268 . S
C250 O258 1.268 . S
C251 O257 1.268 . S
C251 O260 1.268 . S
O252 Sc242 2.105 . S
O252 C246 1.268 . S
O253 Sc243 2.105 1_545 S
O253 C247 1.268 . S
O254 Sc244 2.105 . S
O254 C248 1.268 . S
O255 Sc242 2.105 1_545 S
O255 C249 1.268 . S
O256 Sc244 2.105 1_554 S
O256 C250 1.268 . S
O257 Sc243 2.105 . S
O257 C251 1.268 . S
O258 Sc242 2.105 1_554 S
O258 C250 1.268 . S
O259 Sc243 2.105 1_545 S
O259 C249 1.268 . S
O260 Sc244 2.105 . S
O260 C251 1.268 . S
O261 Sc242 2.105 1_545 S
O261 C247 1.268 . S
O262 Sc244 2.105 . S
O262 C246 1.268 . S
O263 Sc243 2.105 . S
O263 C248 1.268 . S
Sc264 O267 2.025 . S
Sc264 O274 2.105 . S
Sc264 O277 2.105 . S
Sc264 O280 2.105 . S
Sc264 O283 2.105 . S
Sc265 O267 2.025 . S
Sc265 O275 2.105 . S
Sc265 O279 2.105 . S
Sc265 O281 2.105 . S
Sc265 O285 2.105 . S
Sc266 O267 2.025 . S
Sc266 O276 2.105 . S
Sc266 O278 2.105 . S
Sc266 O282 2.105 . S
Sc266 O284 2.105 . S
O267 Sc264 2.025 . S
O267 Sc265 2.025 . S
O267 Sc266 2.025 . S
C268 O274 1.268 . S
C268 O284 1.268 . S
C269 O275 1.268 . S
C269 O283 1.268 . S
C270 O276 1.268 . S
C270 O285 1.268 . S
C271 O277 1.268 . S
C271 O281 1.268 . S
C272 O278 1.268 . S
C272 O280 1.268 . S
C273 O279 1.268 . S
C273 O282 1.268 . S
O274 Sc264 2.105 . S
O274 C268 1.268 . S
O275 Sc265 2.105 . S
O275 C269 1.268 . S
O276 Sc266 2.105 . S
O276 C270 1.268 . S
O277 Sc264 2.105 . S
O277 C271 1.268 . S
O278 Sc266 2.105 . S
O278 C272 1.268 . S
O279 Sc265 2.105 . S
O279 C273 1.268 . S
O280 Sc264 2.105 . S
O280 C272 1.268 . S
O281 Sc265 2.105 . S
O281 C271 1.268 . S
O282 Sc266 2.105 . S
O282 C273 1.268 . S
O283 Sc264 2.105 . S
O283 C269 1.268 . S
O284 Sc266 2.105 . S
O284 C268 1.268 . S
O285 Sc265 2.105 . S
O285 C270 1.268 . S
Sc286 O289 2.025 . S
Sc286 O296 2.105 . S
Sc286 O299 2.105 . S
Sc286 O302 2.105 . S
Sc286 O305 2.105 . S
Sc287 O289 2.025 . S
Sc287 O297 2.105 . S
Sc287 O301 2.105 1_545 S
Sc287 O303 2.105 . S
Sc287 O307 2.105 1_545 S
Sc288 O289 2.025 . S
Sc288 O298 2.105 1_545 S
Sc288 O300 2.105 . S
Sc288 O304 2.105 1_545 S
Sc288 O306 2.105 . S
O289 Sc286 2.025 . S
O289 Sc287 2.025 . S
O289 Sc288 2.025 . S
C290 O296 1.268 . S
C290 O306 1.268 . S
C291 O297 1.268 . S
C291 O305 1.268 . S
C292 O298 1.268 . S
C292 O307 1.268 . S
C293 O299 1.268 . S
C293 O303 1.268 . S
C294 O300 1.268 . S
C294 O302 1.268 . S
C295 O301 1.268 . S
C295 O304 1.268 . S
O296 Sc286 2.105 . S
O296 C290 1.268 . S
O297 Sc287 2.105 . S
O297 C291 1.268 . S
O298 Sc288 2.105 1_565 S
O298 C292 1.268 . S
O299 Sc286 2.105 . S
O299 C293 1.268 . S
O300 Sc288 2.105 . S
O300 C294 1.268 . S
O301 Sc287 2.105 1_565 S
O301 C295 1.268 . S
O302 Sc286 2.105 . S
O302 C294 1.268 . S
O303 Sc287 2.105 . S
O303 C293 1.268 . S
O304 Sc288 2.105 1_565 S
O304 C295 1.268 . S
O305 Sc286 2.105 . S
O305 C291 1.268 . S
O306 Sc288 2.105 . S
O306 C290 1.268 . S
O307 Sc287 2.105 1_565 S
O307 C292 1.268 . S
Sc308 O311 2.025 . S
Sc308 O318 2.105 . S
Sc308 O321 2.105 . S
Sc308 O324 2.105 . S
Sc308 O327 2.105 . S
Sc309 O311 2.025 . S
Sc309 O319 2.105 . S
Sc309 O323 2.105 . S
Sc309 O325 2.105 . S
Sc309 O329 2.105 . S
Sc310 O311 2.025 . S
Sc310 O320 2.105 . S
Sc310 O322 2.105 . S
Sc310 O326 2.105 . S
Sc310 O328 2.105 . S
O311 Sc308 2.025 . S
O311 Sc309 2.025 . S
O311 Sc310 2.025 . S
C312 O318 1.268 . S
C312 O328 1.268 . S
C313 O319 1.268 . S
C313 O327 1.268 . S
C314 O320 1.268 . S
C314 O329 1.268 . S
C315 O321 1.268 . S
C315 O325 1.268 . S
C316 O322 1.268 . S
C316 O324 1.268 . S
C317 O323 1.268 . S
C317 O326 1.268 . S
O318 Sc308 2.105 . S
O318 C312 1.268 . S
O319 Sc309 2.105 . S
O319 C313 1.268 . S
O320 Sc310 2.105 . S
O320 C314 1.268 . S
O321 Sc308 2.105 . S
O321 C315 1.268 . S
O322 Sc310 2.105 . S
O322 C316 1.268 . S
O323 Sc309 2.105 . S
O323 C317 1.268 . S
O324 Sc308 2.105 . S
O324 C316 1.268 . S
O325 Sc309 2.105 . S
O325 C315 1.268 . S
O326 Sc310 2.105 . S
O326 C317 1.268 . S
O327 Sc308 2.105 . S
O327 C313 1.268 . S
O328 Sc310 2.105 . S
O328 C312 1.268 . S
O329 Sc309 2.105 . S
O329 C314 1.268 . S
Sc330 O333 2.025 . S
Sc330 O340 2.105 1_554 S
Sc330 O343 2.105 . S
Sc330 O346 2.105 . S
Sc330 O349 2.105 . S
Sc331 O333 2.025 . S
Sc331 O341 2.105 . S
Sc331 O345 2.105 1_565 S
Sc331 O347 2.105 . S
Sc331 O351 2.105 1_565 S
Sc332 O333 2.025 . S
Sc332 O342 2.105 1_565 S
Sc332 O344 2.105 . S
Sc332 O348 2.105 1_565 S
Sc332 O350 2.105 1_554 S
O333 Sc330 2.025 . S
O333 Sc331 2.025 . S
O333 Sc332 2.025 . S
C334 O340 1.268 . S
C334 O350 1.268 . S
C335 O341 1.268 . S
C335 O349 1.268 . S
C336 O342 1.268 . S
C336 O351 1.268 . S
C337 O343 1.268 . S
C337 O347 1.268 . S
C338 O344 1.268 . S
C338 O346 1.268 . S
C339 O345 1.268 . S
C339 O348 1.268 . S
O340 Sc330 2.105 1_556 S
O340 C334 1.268 . S
O341 Sc331 2.105 . S
O341 C335 1.268 . S
O342 Sc332 2.105 1_545 S
O342 C336 1.268 . S
O343 Sc330 2.105 . S
O343 C337 1.268 . S
O344 Sc332 2.105 . S
O344 C338 1.268 . S
O345 Sc331 2.105 1_545 S
O345 C339 1.268 . S
O346 Sc330 2.105 . S
O346 C338 1.268 . S
O347 Sc331 2.105 . S
O347 C337 1.268 . S
O348 Sc332 2.105 1_545 S
O348 C339 1.268 . S
O349 Sc330 2.105 . S
O349 C335 1.268 . S
O350 Sc332 2.105 1_556 S
O350 C334 1.268 . S
O351 Sc331 2.105 1_545 S
O351 C336 1.268 . S
Sc352 O355 2.025 . S
Sc352 O362 2.105 . S
Sc352 O365 2.105 . S
Sc352 O368 2.105 . S
Sc352 O371 2.105 . S
Sc353 O355 2.025 . S
Sc353 O363 2.105 . S
Sc353 O367 2.105 . S
Sc353 O369 2.105 . S
Sc353 O373 2.105 . S
Sc354 O355 2.025 . S
Sc354 O364 2.105 . S
Sc354 O366 2.105 . S
Sc354 O370 2.105 . S
Sc354 O372 2.105 . S
O355 Sc352 2.025 . S
O355 Sc353 2.025 . S
O355 Sc354 2.025 . S
C356 O362 1.268 . S
C356 O372 1.268 . S
C357 O363 1.268 . S
C357 O371 1.268 . S
C358 O364 1.268 . S
C358 O373 1.268 . S
C359 O365 1.268 . S
C359 O369 1.268 . S
C360 O366 1.268 . S
C360 O368 1.268 . S
C361 O367 1.268 . S
C361 O370 1.268 . S
O362 Sc352 2.105 . S
O362 C356 1.268 . S
O363 Sc353 2.105 . S
O363 C357 1.268 . S
O364 Sc354 2.105 . S
O364 C358 1.268 . S
O365 Sc352 2.105 . S
O365 C359 1.268 . S
O366 Sc354 2.105 . S
O366 C360 1.268 . S
O367 Sc353 2.105 . S
O367 C361 1.268 . S
O368 Sc352 2.105 . S
O368 C360 1.268 . S
O369 Sc353 2.105 . S
O369 C359 1.268 . S
O370 Sc354 2.105 . S
O370 C361 1.268 . S
O371 Sc352 2.105 . S
O371 C357 1.268 . S
O372 Sc354 2.105 . S
O372 C356 1.268 . S
O373 Sc353 2.105 . S
O373 C358 1.268 . S
Sc374 O377 2.025 . S
Sc374 O384 2.105 . S
Sc374 O387 2.105 . S
Sc374 O390 2.105 . S
Sc374 O393 2.105 . S
Sc375 O377 2.025 . S
Sc375 O385 2.105 . S
Sc375 O389 2.105 . S
Sc375 O391 2.105 . S
Sc375 O395 2.105 . S
Sc376 O377 2.025 . S
Sc376 O386 2.105 . S
Sc376 O388 2.105 . S
Sc376 O392 2.105 . S
Sc376 O394 2.105 . S
O377 Sc374 2.025 . S
O377 Sc375 2.025 . S
O377 Sc376 2.025 . S
C378 O384 1.268 . S
C378 O394 1.268 . S
C379 O385 1.268 . S
C379 O393 1.268 . S
C380 O386 1.268 . S
C380 O395 1.268 . S
C381 O387 1.268 . S
C381 O391 1.268 . S
C382 O388 1.268 . S
C382 O390 1.268 . S
C383 O389 1.268 . S
C383 O392 1.268 . S
O384 Sc374 2.105 . S
O384 C378 1.268 . S
O385 Sc375 2.105 . S
O385 C379 1.268 . S
O386 Sc376 2.105 . S
O386 C380 1.268 . S
O387 Sc374 2.105 . S
O387 C381 1.268 . S
O388 Sc376 2.105 . S
O388 C382 1.268 . S
O389 Sc375 2.105 . S
O389 C383 1.268 . S
O390 Sc374 2.105 . S
O390 C382 1.268 . S
O391 Sc375 2.105 . S
O391 C381 1.268 . S
O392 Sc376 2.105 . S
O392 C383 1.268 . S
O393 Sc374 2.105 . S
O393 C379 1.268 . S
O394 Sc376 2.105 . S
O394 C378 1.268 . S
O395 Sc375 2.105 . S
O395 C380 1.268 . S
Sc396 O399 2.025 . S
Sc396 O406 2.105 . S
Sc396 O409 2.105 1_455 S
Sc396 O412 2.105 . S
Sc396 O415 2.105 1_455 S
Sc397 O399 2.025 . S
Sc397 O407 2.105 1_455 S
Sc397 O411 2.105 . S
Sc397 O413 2.105 1_455 S
Sc397 O417 2.105 . S
Sc398 O399 2.025 . S
Sc398 O408 2.105 . S
Sc398 O410 2.105 . S
Sc398 O414 2.105 . S
Sc398 O416 2.105 . S
O399 Sc396 2.025 . S
O399 Sc397 2.025 . S
O399 Sc398 2.025 . S
C400 O406 1.268 . S
C400 O416 1.268 . S
C401 O407 1.268 . S
C401 O415 1.268 . S
C402 O408 1.268 . S
C402 O417 1.268 . S
C403 O409 1.268 . S
C403 O413 1.268 . S
C404 O410 1.268 . S
C404 O412 1.268 . S
C405 O411 1.268 . S
C405 O414 1.268 . S
O406 Sc396 2.105 . S
O406 C400 1.268 . S
O407 Sc397 2.105 1_655 S
O407 C401 1.268 . S
O408 Sc398 2.105 . S
O408 C402 1.268 . S
O409 Sc396 2.105 1_655 S
O409 C403 1.268 . S
O410 Sc398 2.105 . S
O410 C404 1.268 . S
O411 Sc397 2.105 . S
O411 C405 1.268 . S
O412 Sc396 2.105 . S
O412 C404 1.268 . S
O413 Sc397 2.105 1_655 S
O413 C403 1.268 . S
O414 Sc398 2.105 . S
O414 C405 1.268 . S
O415 Sc396 2.105 1_655 S
O415 C401 1.268 . S
O416 Sc398 2.105 . S
O416 C400 1.268 . S
O417 Sc397 2.105 . S
O417 C402 1.268 . S
Sc418 O421 2.025 . S
Sc418 O428 2.105 . S
Sc418 O431 2.105 . S
Sc418 O434 2.105 . S
Sc418 O437 2.105 . S
Sc419 O421 2.025 . S
Sc419 O429 2.105 . S
Sc419 O433 2.105 . S
Sc419 O435 2.105 . S
Sc419 O439 2.105 . S
Sc420 O421 2.025 . S
Sc420 O430 2.105 . S
Sc420 O432 2.105 . S
Sc420 O436 2.105 . S
Sc420 O438 2.105 . S
O421 Sc418 2.025 . S
O421 Sc419 2.025 . S
O421 Sc420 2.025 . S
C422 O428 1.268 . S
C422 O438 1.268 . S
C423 O429 1.268 . S
C423 O437 1.268 . S
C424 O430 1.268 . S
C424 O439 1.268 . S
C425 O431 1.268 . S
C425 O435 1.268 . S
C426 O432 1.268 . S
C426 O434 1.268 . S
C427 O433 1.268 . S
C427 O436 1.268 . S
O428 Sc418 2.105 . S
O428 C422 1.268 . S
O429 Sc419 2.105 . S
O429 C423 1.268 . S
O430 Sc420 2.105 . S
O430 C424 1.268 . S
O431 Sc418 2.105 . S
O431 C425 1.268 . S
O432 Sc420 2.105 . S
O432 C426 1.268 . S
O433 Sc419 2.105 . S
O433 C427 1.268 . S
O434 Sc418 2.105 . S
O434 C426 1.268 . S
O435 Sc419 2.105 . S
O435 C425 1.268 . S
O436 Sc420 2.105 . S
O436 C427 1.268 . S
O437 Sc418 2.105 . S
O437 C423 1.268 . S
O438 Sc420 2.105 . S
O438 C422 1.268 . S
O439 Sc419 2.105 . S
O439 C424 1.268 . S
Sc440 O443 2.025 . S
Sc440 O450 2.105 1_545 S
Sc440 O453 2.105 . S
Sc440 O456 2.105 . S
Sc440 O459 2.105 . S
Sc441 O443 2.025 . S
Sc441 O451 2.105 . S
Sc441 O455 2.105 1_655 S
Sc441 O457 2.105 . S
Sc441 O461 2.105 1_655 S
Sc442 O443 2.025 . S
Sc442 O452 2.105 1_655 S
Sc442 O454 2.105 . S
Sc442 O458 2.105 1_655 S
Sc442 O460 2.105 1_545 S
O443 Sc440 2.025 . S
O443 Sc441 2.025 . S
O443 Sc442 2.025 . S
C444 O450 1.268 . S
C444 O460 1.268 . S
C445 O451 1.268 . S
C445 O459 1.268 . S
C446 O452 1.268 . S
C446 O461 1.268 . S
C447 O453 1.268 . S
C447 O457 1.268 . S
C448 O454 1.268 . S
C448 O456 1.268 . S
C449 O455 1.268 . S
C449 O458 1.268 . S
O450 Sc440 2.105 1_565 S
O450 C444 1.268 . S
O451 Sc441 2.105 . S
O451 C445 1.268 . S
O452 Sc442 2.105 1_455 S
O452 C446 1.268 . S
O453 Sc440 2.105 . S
O453 C447 1.268 . S
O454 Sc442 2.105 . S
O454 C448 1.268 . S
O455 Sc441 2.105 1_455 S
O455 C449 1.268 . S
O456 Sc440 2.105 . S
O456 C448 1.268 . S
O457 Sc441 2.105 . S
O457 C447 1.268 . S
O458 Sc442 2.105 1_455 S
O458 C449 1.268 . S
O459 Sc440 2.105 . S
O459 C445 1.268 . S
O460 Sc442 2.105 1_565 S
O460 C444 1.268 . S
O461 Sc441 2.105 1_455 S
O461 C446 1.268 . S
Sc462 O465 2.025 . S
Sc462 O472 2.105 . S
Sc462 O475 2.105 . S
Sc462 O478 2.105 . S
Sc462 O481 2.105 . S
Sc463 O465 2.025 . S
Sc463 O473 2.105 . S
Sc463 O477 2.105 . S
Sc463 O479 2.105 . S
Sc463 O483 2.105 . S
Sc464 O465 2.025 . S
Sc464 O474 2.105 . S
Sc464 O476 2.105 . S
Sc464 O480 2.105 . S
Sc464 O482 2.105 . S
O465 Sc462 2.025 . S
O465 Sc463 2.025 . S
O465 Sc464 2.025 . S
C466 O472 1.268 . S
C466 O482 1.268 . S
C467 O473 1.268 . S
C467 O481 1.268 . S
C468 O474 1.268 . S
C468 O483 1.268 . S
C469 O475 1.268 . S
C469 O479 1.268 . S
C470 O476 1.268 . S
C470 O478 1.268 . S
C471 O477 1.268 . S
C471 O480 1.268 . S
O472 Sc462 2.105 . S
O472 C466 1.268 . S
O473 Sc463 2.105 . S
O473 C467 1.268 . S
O474 Sc464 2.105 . S
O474 C468 1.268 . S
O475 Sc462 2.105 . S
O475 C469 1.268 . S
O476 Sc464 2.105 . S
O476 C470 1.268 . S
O477 Sc463 2.105 . S
O477 C471 1.268 . S
O478 Sc462 2.105 . S
O478 C470 1.268 . S
O479 Sc463 2.105 . S
O479 C469 1.268 . S
O480 Sc464 2.105 . S
O480 C471 1.268 . S
O481 Sc462 2.105 . S
O481 C467 1.268 . S
O482 Sc464 2.105 . S
O482 C466 1.268 . S
O483 Sc463 2.105 . S
O483 C468 1.268 . S
Sc484 O487 2.025 . S
Sc484 O494 2.105 . S
Sc484 O497 2.105 . S
Sc484 O500 2.105 . S
Sc484 O503 2.105 . S
Sc485 O487 2.025 . S
Sc485 O495 2.105 . S
Sc485 O499 2.105 1_455 S
Sc485 O501 2.105 . S
Sc485 O505 2.105 1_455 S
Sc486 O487 2.025 . S
Sc486 O496 2.105 1_455 S
Sc486 O498 2.105 . S
Sc486 O502 2.105 1_455 S
Sc486 O504 2.105 . S
O487 Sc484 2.025 . S
O487 Sc485 2.025 . S
O487 Sc486 2.025 . S
C488 O494 1.268 . S
C488 O504 1.268 . S
C489 O495 1.268 . S
C489 O503 1.268 . S
C490 O496 1.268 . S
C490 O505 1.268 . S
C491 O497 1.268 . S
C491 O501 1.268 . S
C492 O498 1.268 . S
C492 O500 1.268 . S
C493 O499 1.268 . S
C493 O502 1.268 . S
O494 Sc484 2.105 . S
O494 C488 1.268 . S
O495 Sc485 2.105 . S
O495 C489 1.268 . S
O496 Sc486 2.105 1_655 S
O496 C490 1.268 . S
O497 Sc484 2.105 . S
O497 C491 1.268 . S
O498 Sc486 2.105 . S
O498 C492 1.268 . S
O499 Sc485 2.105 1_655 S
O499 C493 1.268 . S
O500 Sc484 2.105 . S
O500 C492 1.268 . S
O501 Sc485 2.105 . S
O501 C491 1.268 . S
O502 Sc486 2.105 1_655 S
O502 C493 1.268 . S
O503 Sc484 2.105 . S
O503 C489 1.268 . S
O504 Sc486 2.105 . S
O504 C488 1.268 . S
O505 Sc485 2.105 1_655 S
O505 C490 1.268 . S
Sc506 O509 2.025 . S
Sc506 O516 2.105 . S
Sc506 O519 2.105 . S
Sc506 O522 2.105 . S
Sc506 O525 2.105 . S
Sc507 O509 2.025 . S
Sc507 O517 2.105 . S
Sc507 O521 2.105 . S
Sc507 O523 2.105 . S
Sc507 O527 2.105 . S
Sc508 O509 2.025 . S
Sc508 O518 2.105 . S
Sc508 O520 2.105 . S
Sc508 O524 2.105 . S
Sc508 O526 2.105 . S
O509 Sc506 2.025 . S
O509 Sc507 2.025 . S
O509 Sc508 2.025 . S
C510 O516 1.268 . S
C510 O526 1.268 . S
C511 O517 1.268 . S
C511 O525 1.268 . S
C512 O518 1.268 . S
C512 O527 1.268 . S
C513 O519 1.268 . S
C513 O523 1.268 . S
C514 O520 1.268 . S
C514 O522 1.268 . S
C515 O521 1.268 . S
C515 O524 1.268 . S
O516 Sc506 2.105 . S
O516 C510 1.268 . S
O517 Sc507 2.105 . S
O517 C511 1.268 . S
O518 Sc508 2.105 . S
O518 C512 1.268 . S
O519 Sc506 2.105 . S
O519 C513 1.268 . S
O520 Sc508 2.105 . S
O520 C514 1.268 . S
O521 Sc507 2.105 . S
O521 C515 1.268 . S
O522 Sc506 2.105 . S
O522 C514 1.268 . S
O523 Sc507 2.105 . S
O523 C513 1.268 . S
O524 Sc508 2.105 . S
O524 C515 1.268 . S
O525 Sc506 2.105 . S
O525 C511 1.268 . S
O526 Sc508 2.105 . S
O526 C510 1.268 . S
O527 Sc507 2.105 . S
O527 C512 1.268 . S
Sc528 O531 2.025 . S
Sc528 O538 2.105 . S
Sc528 O541 2.105 . S
Sc528 O544 2.105 . S
Sc528 O547 2.105 . S
Sc529 O531 2.025 . S
Sc529 O539 2.105 . S
Sc529 O543 2.105 . S
Sc529 O545 2.105 . S
Sc529 O549 2.105 . S
Sc530 O531 2.025 . S
Sc530 O540 2.105 . S
Sc530 O542 2.105 . S
Sc530 O546 2.105 . S
Sc530 O548 2.105 . S
O531 Sc528 2.025 . S
O531 Sc529 2.025 . S
O531 Sc530 2.025 . S
C532 O538 1.268 . S
C532 O548 1.268 . S
C533 O539 1.268 . S
C533 O547 1.268 . S
C534 O540 1.268 . S
C534 O549 1.268 . S
C535 O541 1.268 . S
C535 O545 1.268 . S
C536 O542 1.268 . S
C536 O544 1.268 . S
C537 O543 1.268 . S
C537 O546 1.268 . S
O538 Sc528 2.105 . S
O538 C532 1.268 . S
O539 Sc529 2.105 . S
O539 C533 1.268 . S
O540 Sc530 2.105 . S
O540 C534 1.268 . S
O541 Sc528 2.105 . S
O541 C535 1.268 . S
O542 Sc530 2.105 . S
O542 C536 1.268 . S
O543 Sc529 2.105 . S
O543 C537 1.268 . S
O544 Sc528 2.105 . S
O544 C536 1.268 . S
O545 Sc529 2.105 . S
O545 C535 1.268 . S
O546 Sc530 2.105 . S
O546 C537 1.268 . S
O547 Sc528 2.105 . S
O547 C533 1.268 . S
O548 Sc530 2.105 . S
O548 C532 1.268 . S
O549 Sc529 2.105 . S
O549 C534 1.268 . S
Sc550 O553 2.025 . S
Sc550 O560 2.105 1_655 S
Sc550 O563 2.105 . S
Sc550 O566 2.105 . S
Sc550 O569 2.105 . S
Sc551 O553 2.025 . S
Sc551 O561 2.105 . S
Sc551 O565 2.105 . S
Sc551 O567 2.105 . S
Sc551 O571 2.105 . S
Sc552 O553 2.025 . S
Sc552 O562 2.105 . S
Sc552 O564 2.105 . S
Sc552 O568 2.105 . S
Sc552 O570 2.105 1_655 S
O553 Sc550 2.025 . S
O553 Sc551 2.025 . S
O553 Sc552 2.025 . S
C554 O560 1.268 . S
C554 O570 1.268 . S
C555 O561 1.268 . S
C555 O569 1.268 . S
C556 O562 1.268 . S
C556 O571 1.268 . S
C557 O563 1.268 . S
C557 O567 1.268 . S
C558 O564 1.268 . S
C558 O566 1.268 . S
C559 O565 1.268 . S
C559 O568 1.268 . S
O560 Sc550 2.105 1_455 S
O560 C554 1.268 . S
O561 Sc551 2.105 . S
O561 C555 1.268 . S
O562 Sc552 2.105 . S
O562 C556 1.268 . S
O563 Sc550 2.105 . S
O563 C557 1.268 . S
O564 Sc552 2.105 . S
O564 C558 1.268 . S
O565 Sc551 2.105 . S
O565 C559 1.268 . S
O566 Sc550 2.105 . S
O566 C558 1.268 . S
O567 Sc551 2.105 . S
O567 C557 1.268 . S
O568 Sc552 2.105 . S
O568 C559 1.268 . S
O569 Sc550 2.105 . S
O569 C555 1.268 . S
O570 Sc552 2.105 1_455 S
O570 C554 1.268 . S
O571 Sc551 2.105 . S
O571 C556 1.268 . S
Sc572 O575 2.025 . S
Sc572 O582 2.105 . S
Sc572 O585 2.105 . S
Sc572 O588 2.105 . S
Sc572 O591 2.105 . S
Sc573 O575 2.025 . S
Sc573 O583 2.105 . S
Sc573 O587 2.105 . S
Sc573 O589 2.105 . S
Sc573 O593 2.105 . S
Sc574 O575 2.025 . S
Sc574 O584 2.105 . S
Sc574 O586 2.105 . S
Sc574 O590 2.105 . S
Sc574 O592 2.105 . S
O575 Sc572 2.025 . S
O575 Sc573 2.025 . S
O575 Sc574 2.025 . S
C576 O582 1.268 . S
C576 O592 1.268 . S
C577 O583 1.268 . S
C577 O591 1.268 . S
C578 O584 1.268 . S
C578 O593 1.268 . S
C579 O585 1.268 . S
C579 O589 1.268 . S
C580 O586 1.268 . S
C580 O588 1.268 . S
C581 O587 1.268 . S
C581 O590 1.268 . S
O582 Sc572 2.105 . S
O582 C576 1.268 . S
O583 Sc573 2.105 . S
O583 C577 1.268 . S
O584 Sc574 2.105 . S
O584 C578 1.268 . S
O585 Sc572 2.105 . S
O585 C579 1.268 . S
O586 Sc574 2.105 . S
O586 C580 1.268 . S
O587 Sc573 2.105 . S
O587 C581 1.268 . S
O588 Sc572 2.105 . S
O588 C580 1.268 . S
O589 Sc573 2.105 . S
O589 C579 1.268 . S
O590 Sc574 2.105 . S
O590 C581 1.268 . S
O591 Sc572 2.105 . S
O591 C577 1.268 . S
O592 Sc574 2.105 . S
O592 C576 1.268 . S
O593 Sc573 2.105 . S
O593 C578 1.268 . S
Sc594 O597 2.025 . S
Sc594 O604 2.105 . S
Sc594 O607 2.105 . S
Sc594 O610 2.105 . S
Sc594 O613 2.105 . S
Sc595 O597 2.025 . S
Sc595 O605 2.105 . S
Sc595 O609 2.105 1_556 S
Sc595 O611 2.105 . S
Sc595 O615 2.105 1_556 S
Sc596 O597 2.025 . S
Sc596 O606 2.105 1_556 S
Sc596 O608 2.105 . S
Sc596 O612 2.105 1_556 S
Sc596 O614 2.105 . S
O597 Sc594 2.025 . S
O597 Sc595 2.025 . S
O597 Sc596 2.025 . S
C598 O604 1.268 . S
C598 O614 1.268 . S
C599 O605 1.268 . S
C599 O613 1.268 . S
C600 O606 1.268 . S
C600 O615 1.268 . S
C601 O607 1.268 . S
C601 O611 1.268 . S
C602 O608 1.268 . S
C602 O610 1.268 . S
C603 O609 1.268 . S
C603 O612 1.268 . S
O604 Sc594 2.105 . S
O604 C598 1.268 . S
O605 Sc595 2.105 . S
O605 C599 1.268 . S
O606 Sc596 2.105 1_554 S
O606 C600 1.268 . S
O607 Sc594 2.105 . S
O607 C601 1.268 . S
O608 Sc596 2.105 . S
O608 C602 1.268 . S
O609 Sc595 2.105 1_554 S
O609 C603 1.268 . S
O610 Sc594 2.105 . S
O610 C602 1.268 . S
O611 Sc595 2.105 . S
O611 C601 1.268 . S
O612 Sc596 2.105 1_554 S
O612 C603 1.268 . S
O613 Sc594 2.105 . S
O613 C599 1.268 . S
O614 Sc596 2.105 . S
O614 C598 1.268 . S
O615 Sc595 2.105 1_554 S
O615 C600 1.268 . S
Sc616 O619 2.025 . S
Sc616 O626 2.105 . S
Sc616 O629 2.105 . S
Sc616 O632 2.105 . S
Sc616 O635 2.105 . S
Sc617 O619 2.025 . S
Sc617 O627 2.105 . S
Sc617 O631 2.105 . S
Sc617 O633 2.105 . S
Sc617 O637 2.105 . S
Sc618 O619 2.025 . S
Sc618 O628 2.105 . S
Sc618 O630 2.105 . S
Sc618 O634 2.105 . S
Sc618 O636 2.105 . S
O619 Sc616 2.025 . S
O619 Sc617 2.025 . S
O619 Sc618 2.025 . S
C620 O626 1.268 . S
C620 O636 1.268 . S
C621 O627 1.268 . S
C621 O635 1.268 . S
C622 O628 1.268 . S
C622 O637 1.268 . S
C623 O629 1.268 . S
C623 O633 1.268 . S
C624 O630 1.268 . S
C624 O632 1.268 . S
C625 O631 1.268 . S
C625 O634 1.268 . S
O626 Sc616 2.105 . S
O626 C620 1.268 . S
O627 Sc617 2.105 . S
O627 C621 1.268 . S
O628 Sc618 2.105 . S
O628 C622 1.268 . S
O629 Sc616 2.105 . S
O629 C623 1.268 . S
O630 Sc618 2.105 . S
O630 C624 1.268 . S
O631 Sc617 2.105 . S
O631 C625 1.268 . S
O632 Sc616 2.105 . S
O632 C624 1.268 . S
O633 Sc617 2.105 . S
O633 C623 1.268 . S
O634 Sc618 2.105 . S
O634 C625 1.268 . S
O635 Sc616 2.105 . S
O635 C621 1.268 . S
O636 Sc618 2.105 . S
O636 C620 1.268 . S
O637 Sc617 2.105 . S
O637 C622 1.268 . S
Sc638 O641 2.025 . S
Sc638 O648 2.105 . S
Sc638 O651 2.105 . S
Sc638 O654 2.105 . S
Sc638 O657 2.105 . S
Sc639 O641 2.025 . S
Sc639 O649 2.105 . S
Sc639 O653 2.105 . S
Sc639 O655 2.105 . S
Sc639 O659 2.105 . S
Sc640 O641 2.025 . S
Sc640 O650 2.105 . S
Sc640 O652 2.105 . S
Sc640 O656 2.105 . S
Sc640 O658 2.105 . S
O641 Sc638 2.025 . S
O641 Sc639 2.025 . S
O641 Sc640 2.025 . S
C642 O648 1.268 . S
C642 O658 1.268 . S
C643 O649 1.268 . S
C643 O657 1.268 . S
C644 O650 1.268 . S
C644 O659 1.268 . S
C645 O651 1.268 . S
C645 O655 1.268 . S
C646 O652 1.268 . S
C646 O654 1.268 . S
C647 O653 1.268 . S
C647 O656 1.268 . S
O648 Sc638 2.105 . S
O648 C642 1.268 . S
O649 Sc639 2.105 . S
O649 C643 1.268 . S
O650 Sc640 2.105 . S
O650 C644 1.268 . S
O651 Sc638 2.105 . S
O651 C645 1.268 . S
O652 Sc640 2.105 . S
O652 C646 1.268 . S
O653 Sc639 2.105 . S
O653 C647 1.268 . S
O654 Sc638 2.105 . S
O654 C646 1.268 . S
O655 Sc639 2.105 . S
O655 C645 1.268 . S
O656 Sc640 2.105 . S
O656 C647 1.268 . S
O657 Sc638 2.105 . S
O657 C643 1.268 . S
O658 Sc640 2.105 . S
O658 C642 1.268 . S
O659 Sc639 2.105 . S
O659 C644 1.268 . S
Sc660 O663 2.025 . S
Sc660 O670 2.105 . S
Sc660 O673 2.105 . S
Sc660 O676 2.105 . S
Sc660 O679 2.105 . S
Sc661 O663 2.025 . S
Sc661 O671 2.105 . S
Sc661 O675 2.105 . S
Sc661 O677 2.105 . S
Sc661 O681 2.105 . S
Sc662 O663 2.025 . S
Sc662 O672 2.105 . S
Sc662 O674 2.105 . S
Sc662 O678 2.105 . S
Sc662 O680 2.105 . S
O663 Sc660 2.025 . S
O663 Sc661 2.025 . S
O663 Sc662 2.025 . S
C664 O670 1.268 . S
C664 O680 1.268 . S
C665 O671 1.268 . S
C665 O679 1.268 . S
C666 O672 1.268 . S
C666 O681 1.268 . S
C667 O673 1.268 . S
C667 O677 1.268 . S
C668 O674 1.268 . S
C668 O676 1.268 . S
C669 O675 1.268 . S
C669 O678 1.268 . S
O670 Sc660 2.105 . S
O670 C664 1.268 . S
O671 Sc661 2.105 . S
O671 C665 1.268 . S
O672 Sc662 2.105 . S
O672 C666 1.268 . S
O673 Sc660 2.105 . S
O673 C667 1.268 . S
O674 Sc662 2.105 . S
O674 C668 1.268 . S
O675 Sc661 2.105 . S
O675 C669 1.268 . S
O676 Sc660 2.105 . S
O676 C668 1.268 . S
O677 Sc661 2.105 . S
O677 C667 1.268 . S
O678 Sc662 2.105 . S
O678 C669 1.268 . S
O679 Sc660 2.105 . S
O679 C665 1.268 . S
O680 Sc662 2.105 . S
O680 C664 1.268 . S
O681 Sc661 2.105 . S
O681 C666 1.268 . S
Sc682 O685 2.025 . S
Sc682 O692 2.105 . S
Sc682 O695 2.105 . S
Sc682 O698 2.105 1_655 S
Sc682 O701 2.105 . S
Sc683 O685 2.025 . S
Sc683 O693 2.105 . S
Sc683 O697 2.105 1_554 S
Sc683 O699 2.105 . S
Sc683 O703 2.105 1_554 S
Sc684 O685 2.025 . S
Sc684 O694 2.105 1_554 S
Sc684 O696 2.105 1_655 S
Sc684 O700 2.105 1_554 S
Sc684 O702 2.105 . S
O685 Sc682 2.025 . S
O685 Sc683 2.025 . S
O685 Sc684 2.025 . S
C686 O692 1.268 . S
C686 O702 1.268 . S
C687 O693 1.268 . S
C687 O701 1.268 . S
C688 O694 1.268 . S
C688 O703 1.268 . S
C689 O695 1.268 . S
C689 O699 1.268 . S
C690 O696 1.268 . S
C690 O698 1.268 . S
C691 O697 1.268 . S
C691 O700 1.268 . S
O692 Sc682 2.105 . S
O692 C686 1.268 . S
O693 Sc683 2.105 . S
O693 C687 1.268 . S
O694 Sc684 2.105 1_556 S
O694 C688 1.268 . S
O695 Sc682 2.105 . S
O695 C689 1.268 . S
O696 Sc684 2.105 1_455 S
O696 C690 1.268 . S
O697 Sc683 2.105 1_556 S
O697 C691 1.268 . S
O698 Sc682 2.105 1_455 S
O698 C690 1.268 . S
O699 Sc683 2.105 . S
O699 C689 1.268 . S
O700 Sc684 2.105 1_556 S
O700 C691 1.268 . S
O701 Sc682 2.105 . S
O701 C687 1.268 . S
O702 Sc684 2.105 . S
O702 C686 1.268 . S
O703 Sc683 2.105 1_556 S
O703 C688 1.268 . S
Sc704 O707 2.025 . S
Sc704 O714 2.105 . S
Sc704 O717 2.105 . S
Sc704 O720 2.105 . S
Sc704 O723 2.105 . S
Sc705 O707 2.025 . S
Sc705 O715 2.105 . S
Sc705 O719 2.105 . S
Sc705 O721 2.105 . S
Sc705 O725 2.105 . S
Sc706 O707 2.025 . S
Sc706 O716 2.105 . S
Sc706 O718 2.105 . S
Sc706 O722 2.105 . S
Sc706 O724 2.105 . S
O707 Sc704 2.025 . S
O707 Sc705 2.025 . S
O707 Sc706 2.025 . S
C708 O714 1.268 . S
C708 O724 1.268 . S
C709 O715 1.268 . S
C709 O723 1.268 . S
C710 O716 1.268 . S
C710 O725 1.268 . S
C711 O717 1.268 . S
C711 O721 1.268 . S
C712 O718 1.268 . S
C712 O720 1.268 . S
C713 O719 1.268 . S
C713 O722 1.268 . S
O714 Sc704 2.105 . S
O714 C708 1.268 . S
O715 Sc705 2.105 . S
O715 C709 1.268 . S
O716 Sc706 2.105 . S
O716 C710 1.268 . S
O717 Sc704 2.105 . S
O717 C711 1.268 . S
O718 Sc706 2.105 . S
O718 C712 1.268 . S
O719 Sc705 2.105 . S
O719 C713 1.268 . S
O720 Sc704 2.105 . S
O720 C712 1.268 . S
O721 Sc705 2.105 . S
O721 C711 1.268 . S
O722 Sc706 2.105 . S
O722 C713 1.268 . S
O723 Sc704 2.105 . S
O723 C709 1.268 . S
O724 Sc706 2.105 . S
O724 C708 1.268 . S
O725 Sc705 2.105 . S
O725 C710 1.268 . S
Sc726 O729 2.025 . S
Sc726 O736 2.105 . S
Sc726 O739 2.105 1_565 S
Sc726 O742 2.105 . S
Sc726 O745 2.105 1_565 S
Sc727 O729 2.025 . S
Sc727 O737 2.105 1_565 S
Sc727 O741 2.105 . S
Sc727 O743 2.105 1_565 S
Sc727 O747 2.105 . S
Sc728 O729 2.025 . S
Sc728 O738 2.105 . S
Sc728 O740 2.105 . S
Sc728 O744 2.105 . S
Sc728 O746 2.105 . S
O729 Sc726 2.025 . S
O729 Sc727 2.025 . S
O729 Sc728 2.025 . S
C730 O736 1.268 . S
C730 O746 1.268 . S
C731 O737 1.268 . S
C731 O745 1.268 . S
C732 O738 1.268 . S
C732 O747 1.268 . S
C733 O739 1.268 . S
C733 O743 1.268 . S
C734 O740 1.268 . S
C734 O742 1.268 . S
C735 O741 1.268 . S
C735 O744 1.268 . S
O736 Sc726 2.105 . S
O736 C730 1.268 . S
O737 Sc727 2.105 1_545 S
O737 C731 1.268 . S
O738 Sc728 2.105 . S
O738 C732 1.268 . S
O739 Sc726 2.105 1_545 S
O739 C733 1.268 . S
O740 Sc728 2.105 . S
O740 C734 1.268 . S
O741 Sc727 2.105 . S
O741 C735 1.268 . S
O742 Sc726 2.105 . S
O742 C734 1.268 . S
O743 Sc727 2.105 1_545 S
O743 C733 1.268 . S
O744 Sc728 2.105 . S
O744 C735 1.268 . S
O745 Sc726 2.105 1_545 S
O745 C731 1.268 . S
O746 Sc728 2.105 . S
O746 C730 1.268 . S
O747 Sc727 2.105 . S
O747 C732 1.268 . S
Sc748 O751 2.025 . S
Sc748 O758 2.105 . S
Sc748 O761 2.105 . S
Sc748 O764 2.105 . S
Sc748 O767 2.105 . S
Sc749 O751 2.025 . S
Sc749 O759 2.105 . S
Sc749 O763 2.105 . S
Sc749 O765 2.105 . S
Sc749 O769 2.105 . S
Sc750 O751 2.025 . S
Sc750 O760 2.105 . S
Sc750 O762 2.105 . S
Sc750 O766 2.105 . S
Sc750 O768 2.105 . S
O751 Sc748 2.025 . S
O751 Sc749 2.025 . S
O751 Sc750 2.025 . S
C752 O758 1.268 . S
C752 O768 1.268 . S
C753 O759 1.268 . S
C753 O767 1.268 . S
C754 O760 1.268 . S
C754 O769 1.268 . S
C755 O761 1.268 . S
C755 O765 1.268 . S
C756 O762 1.268 . S
C756 O764 1.268 . S
C757 O763 1.268 . S
C757 O766 1.268 . S
O758 Sc748 2.105 . S
O758 C752 1.268 . S
O759 Sc749 2.105 . S
O759 C753 1.268 . S
O760 Sc750 2.105 . S
O760 C754 1.268 . S
O761 Sc748 2.105 . S
O761 C755 1.268 . S
O762 Sc750 2.105 . S
O762 C756 1.268 . S
O763 Sc749 2.105 . S
O763 C757 1.268 . S
O764 Sc748 2.105 . S
O764 C756 1.268 . S
O765 Sc749 2.105 . S
O765 C755 1.268 . S
O766 Sc750 2.105 . S
O766 C757 1.268 . S
O767 Sc748 2.105 . S
O767 C753 1.268 . S
O768 Sc750 2.105 . S
O768 C752 1.268 . S
O769 Sc749 2.105 . S
O769 C754 1.268 . S
Sc770 O773 2.025 . S
Sc770 O780 2.105 1_554 S
Sc770 O783 2.105 1_545 S
Sc770 O786 2.105 . S
Sc770 O789 2.105 1_545 S
Sc771 O773 2.025 . S
Sc771 O781 2.105 1_545 S
Sc771 O785 2.105 . S
Sc771 O787 2.105 1_545 S
Sc771 O791 2.105 . S
Sc772 O773 2.025 . S
Sc772 O782 2.105 . S
Sc772 O784 2.105 . S
Sc772 O788 2.105 . S
Sc772 O790 2.105 1_554 S
O773 Sc770 2.025 . S
O773 Sc771 2.025 . S
O773 Sc772 2.025 . S
C774 O780 1.268 . S
C774 O790 1.268 . S
C775 O781 1.268 . S
C775 O789 1.268 . S
C776 O782 1.268 . S
C776 O791 1.268 . S
C777 O783 1.268 . S
C777 O787 1.268 . S
C778 O784 1.268 . S
C778 O786 1.268 . S
C779 O785 1.268 . S
C779 O788 1.268 . S
O780 Sc770 2.105 1_556 S
O780 C774 1.268 . S
O781 Sc771 2.105 1_565 S
O781 C775 1.268 . S
O782 Sc772 2.105 . S
O782 C776 1.268 . S
O783 Sc770 2.105 1_565 S
O783 C777 1.268 . S
O784 Sc772 2.105 . S
O784 C778 1.268 . S
O785 Sc771 2.105 . S
O785 C779 1.268 . S
O786 Sc770 2.105 . S
O786 C778 1.268 . S
O787 Sc771 2.105 1_565 S
O787 C777 1.268 . S
O788 Sc772 2.105 . S
O788 C779 1.268 . S
O789 Sc770 2.105 1_565 S
O789 C775 1.268 . S
O790 Sc772 2.105 1_556 S
O790 C774 1.268 . S
O791 Sc771 2.105 . S
O791 C776 1.268 . S
Sc792 O795 2.025 . S
Sc792 O802 2.105 . S
Sc792 O805 2.105 . S
Sc792 O808 2.105 . S
Sc792 O811 2.105 . S
Sc793 O795 2.025 . S
Sc793 O803 2.105 . S
Sc793 O807 2.105 . S
Sc793 O809 2.105 . S
Sc793 O813 2.105 . S
Sc794 O795 2.025 . S
Sc794 O804 2.105 . S
Sc794 O806 2.105 . S
Sc794 O810 2.105 . S
Sc794 O812 2.105 . S
O795 Sc792 2.025 . S
O795 Sc793 2.025 . S
O795 Sc794 2.025 . S
C796 O802 1.268 . S
C796 O812 1.268 . S
C797 O803 1.268 . S
C797 O811 1.268 . S
C798 O804 1.268 . S
C798 O813 1.268 . S
C799 O805 1.268 . S
C799 O809 1.268 . S
C800 O806 1.268 . S
C800 O808 1.268 . S
C801 O807 1.268 . S
C801 O810 1.268 . S
O802 Sc792 2.105 . S
O802 C796 1.268 . S
O803 Sc793 2.105 . S
O803 C797 1.268 . S
O804 Sc794 2.105 . S
O804 C798 1.268 . S
O805 Sc792 2.105 . S
O805 C799 1.268 . S
O806 Sc794 2.105 . S
O806 C800 1.268 . S
O807 Sc793 2.105 . S
O807 C801 1.268 . S
O808 Sc792 2.105 . S
O808 C800 1.268 . S
O809 Sc793 2.105 . S
O809 C799 1.268 . S
O810 Sc794 2.105 . S
O810 C801 1.268 . S
O811 Sc792 2.105 . S
O811 C797 1.268 . S
O812 Sc794 2.105 . S
O812 C796 1.268 . S
O813 Sc793 2.105 . S
O813 C798 1.268 . S
Sc814 O817 2.025 . S
Sc814 O824 2.105 . S
Sc814 O827 2.105 . S
Sc814 O830 2.105 . S
Sc814 O833 2.105 . S
Sc815 O817 2.025 . S
Sc815 O825 2.105 . S
Sc815 O829 2.105 1_565 S
Sc815 O831 2.105 . S
Sc815 O835 2.105 1_565 S
Sc816 O817 2.025 . S
Sc816 O826 2.105 1_565 S
Sc816 O828 2.105 . S
Sc816 O832 2.105 1_565 S
Sc816 O834 2.105 . S
O817 Sc814 2.025 . S
O817 Sc815 2.025 . S
O817 Sc816 2.025 . S
C818 O824 1.268 . S
C818 O834 1.268 . S
C819 O825 1.268 . S
C819 O833 1.268 . S
C820 O826 1.268 . S
C820 O835 1.268 . S
C821 O827 1.268 . S
C821 O831 1.268 . S
C822 O828 1.268 . S
C822 O830 1.268 . S
C823 O829 1.268 . S
C823 O832 1.268 . S
O824 Sc814 2.105 . S
O824 C818 1.268 . S
O825 Sc815 2.105 . S
O825 C819 1.268 . S
O826 Sc816 2.105 1_545 S
O826 C820 1.268 . S
O827 Sc814 2.105 . S
O827 C821 1.268 . S
O828 Sc816 2.105 . S
O828 C822 1.268 . S
O829 Sc815 2.105 1_545 S
O829 C823 1.268 . S
O830 Sc814 2.105 . S
O830 C822 1.268 . S
O831 Sc815 2.105 . S
O831 C821 1.268 . S
O832 Sc816 2.105 1_545 S
O832 C823 1.268 . S
O833 Sc814 2.105 . S
O833 C819 1.268 . S
O834 Sc816 2.105 . S
O834 C818 1.268 . S
O835 Sc815 2.105 1_545 S
O835 C820 1.268 . S
Sc836 O839 2.025 . S
Sc836 O846 2.105 . S
Sc836 O849 2.105 . S
Sc836 O852 2.105 . S
Sc836 O855 2.105 . S
Sc837 O839 2.025 . S
Sc837 O847 2.105 . S
Sc837 O851 2.105 . S
Sc837 O853 2.105 . S
Sc837 O857 2.105 . S
Sc838 O839 2.025 . S
Sc838 O848 2.105 . S
Sc838 O850 2.105 . S
Sc838 O854 2.105 . S
Sc838 O856 2.105 . S
O839 Sc836 2.025 . S
O839 Sc837 2.025 . S
O839 Sc838 2.025 . S
C840 O846 1.268 . S
C840 O856 1.268 . S
C841 O847 1.268 . S
C841 O855 1.268 . S
C842 O848 1.268 . S
C842 O857 1.268 . S
C843 O849 1.268 . S
C843 O853 1.268 . S
C844 O850 1.268 . S
C844 O852 1.268 . S
C845 O851 1.268 . S
C845 O854 1.268 . S
O846 Sc836 2.105 . S
O846 C840 1.268 . S
O847 Sc837 2.105 . S
O847 C841 1.268 . S
O848 Sc838 2.105 . S
O848 C842 1.268 . S
O849 Sc836 2.105 . S
O849 C843 1.268 . S
O850 Sc838 2.105 . S
O850 C844 1.268 . S
O851 Sc837 2.105 . S
O851 C845 1.268 . S
O852 Sc836 2.105 . S
O852 C844 1.268 . S
O853 Sc837 2.105 . S
O853 C843 1.268 . S
O854 Sc838 2.105 . S
O854 C845 1.268 . S
O855 Sc836 2.105 . S
O855 C841 1.268 . S
O856 Sc838 2.105 . S
O856 C840 1.268 . S
O857 Sc837 2.105 . S
O857 C842 1.268 . S
Sc858 O861 2.025 . S
Sc858 O868 2.105 1_556 S
Sc858 O871 2.105 1_545 S
Sc858 O874 2.105 . S
Sc858 O877 2.105 1_545 S
Sc859 O861 2.025 . S
Sc859 O869 2.105 1_545 S
Sc859 O873 2.105 . S
Sc859 O875 2.105 1_545 S
Sc859 O879 2.105 . S
Sc860 O861 2.025 . S
Sc860 O870 2.105 . S
Sc860 O872 2.105 . S
Sc860 O876 2.105 . S
Sc860 O878 2.105 1_556 S
O861 Sc858 2.025 . S
O861 Sc859 2.025 . S
O861 Sc860 2.025 . S
C862 O868 1.268 . S
C862 O878 1.268 . S
C863 O869 1.268 . S
C863 O877 1.268 . S
C864 O870 1.268 . S
C864 O879 1.268 . S
C865 O871 1.268 . S
C865 O875 1.268 . S
C866 O872 1.268 . S
C866 O874 1.268 . S
C867 O873 1.268 . S
C867 O876 1.268 . S
O868 Sc858 2.105 1_554 S
O868 C862 1.268 . S
O869 Sc859 2.105 1_565 S
O869 C863 1.268 . S
O870 Sc860 2.105 . S
O870 C864 1.268 . S
O871 Sc858 2.105 1_565 S
O871 C865 1.268 . S
O872 Sc860 2.105 . S
O872 C866 1.268 . S
O873 Sc859 2.105 . S
O873 C867 1.268 . S
O874 Sc858 2.105 . S
O874 C866 1.268 . S
O875 Sc859 2.105 1_565 S
O875 C865 1.268 . S
O876 Sc860 2.105 . S
O876 C867 1.268 . S
O877 Sc858 2.105 1_565 S
O877 C863 1.268 . S
O878 Sc860 2.105 1_554 S
O878 C862 1.268 . S
O879 Sc859 2.105 . S
O879 C864 1.268 . S
Sc880 O883 2.025 . S
Sc880 O890 2.105 . S
Sc880 O893 2.105 . S
Sc880 O896 2.105 . S
Sc880 O899 2.105 . S
Sc881 O883 2.025 . S
Sc881 O891 2.105 . S
Sc881 O895 2.105 . S
Sc881 O897 2.105 . S
Sc881 O901 2.105 . S
Sc882 O883 2.025 . S
Sc882 O892 2.105 . S
Sc882 O894 2.105 . S
Sc882 O898 2.105 . S
Sc882 O900 2.105 . S
O883 Sc880 2.025 . S
O883 Sc881 2.025 . S
O883 Sc882 2.025 . S
C884 O890 1.268 . S
C884 O900 1.268 . S
C885 O891 1.268 . S
C885 O899 1.268 . S
C886 O892 1.268 . S
C886 O901 1.268 . S
C887 O893 1.268 . S
C887 O897 1.268 . S
C888 O894 1.268 . S
C888 O896 1.268 . S
C889 O895 1.268 . S
C889 O898 1.268 . S
O890 Sc880 2.105 . S
O890 C884 1.268 . S
O891 Sc881 2.105 . S
O891 C885 1.268 . S
O892 Sc882 2.105 . S
O892 C886 1.268 . S
O893 Sc880 2.105 . S
O893 C887 1.268 . S
O894 Sc882 2.105 . S
O894 C888 1.268 . S
O895 Sc881 2.105 . S
O895 C889 1.268 . S
O896 Sc880 2.105 . S
O896 C888 1.268 . S
O897 Sc881 2.105 . S
O897 C887 1.268 . S
O898 Sc882 2.105 . S
O898 C889 1.268 . S
O899 Sc880 2.105 . S
O899 C885 1.268 . S
O900 Sc882 2.105 . S
O900 C884 1.268 . S
O901 Sc881 2.105 . S
O901 C886 1.268 . S
Sc902 O905 2.025 . S
Sc902 O912 2.105 . S
Sc902 O915 2.105 . S
Sc902 O918 2.105 . S
Sc902 O921 2.105 . S
Sc903 O905 2.025 . S
Sc903 O913 2.105 . S
Sc903 O917 2.105 . S
Sc903 O919 2.105 . S
Sc903 O923 2.105 . S
Sc904 O905 2.025 . S
Sc904 O914 2.105 . S
Sc904 O916 2.105 . S
Sc904 O920 2.105 . S
Sc904 O922 2.105 . S
O905 Sc902 2.025 . S
O905 Sc903 2.025 . S
O905 Sc904 2.025 . S
C906 O912 1.268 . S
C906 O922 1.268 . S
C907 O913 1.268 . S
C907 O921 1.268 . S
C908 O914 1.268 . S
C908 O923 1.268 . S
C909 O915 1.268 . S
C909 O919 1.268 . S
C910 O916 1.268 . S
C910 O918 1.268 . S
C911 O917 1.268 . S
C911 O920 1.268 . S
O912 Sc902 2.105 . S
O912 C906 1.268 . S
O913 Sc903 2.105 . S
O913 C907 1.268 . S
O914 Sc904 2.105 . S
O914 C908 1.268 . S
O915 Sc902 2.105 . S
O915 C909 1.268 . S
O916 Sc904 2.105 . S
O916 C910 1.268 . S
O917 Sc903 2.105 . S
O917 C911 1.268 . S
O918 Sc902 2.105 . S
O918 C910 1.268 . S
O919 Sc903 2.105 . S
O919 C909 1.268 . S
O920 Sc904 2.105 . S
O920 C911 1.268 . S
O921 Sc902 2.105 . S
O921 C907 1.268 . S
O922 Sc904 2.105 . S
O922 C906 1.268 . S
O923 Sc903 2.105 . S
O923 C908 1.268 . S
Sc924 O927 2.025 . S
Sc924 O934 2.105 . S
Sc924 O937 2.105 . S
Sc924 O940 2.105 . S
Sc924 O943 2.105 . S
Sc925 O927 2.025 . S
Sc925 O935 2.105 . S
Sc925 O939 2.105 1_655 S
Sc925 O941 2.105 . S
Sc925 O945 2.105 1_655 S
Sc926 O927 2.025 . S
Sc926 O936 2.105 1_655 S
Sc926 O938 2.105 . S
Sc926 O942 2.105 1_655 S
Sc926 O944 2.105 . S
O927 Sc924 2.025 . S
O927 Sc925 2.025 . S
O927 Sc926 2.025 . S
C928 O934 1.268 . S
C928 O944 1.268 . S
C929 O935 1.268 . S
C929 O943 1.268 . S
C930 O936 1.268 . S
C930 O945 1.268 . S
C931 O937 1.268 . S
C931 O941 1.268 . S
C932 O938 1.268 . S
C932 O940 1.268 . S
C933 O939 1.268 . S
C933 O942 1.268 . S
O934 Sc924 2.105 . S
O934 C928 1.268 . S
O935 Sc925 2.105 . S
O935 C929 1.268 . S
O936 Sc926 2.105 1_455 S
O936 C930 1.268 . S
O937 Sc924 2.105 . S
O937 C931 1.268 . S
O938 Sc926 2.105 . S
O938 C932 1.268 . S
O939 Sc925 2.105 1_455 S
O939 C933 1.268 . S
O940 Sc924 2.105 . S
O940 C932 1.268 . S
O941 Sc925 2.105 . S
O941 C931 1.268 . S
O942 Sc926 2.105 1_455 S
O942 C933 1.268 . S
O943 Sc924 2.105 . S
O943 C929 1.268 . S
O944 Sc926 2.105 . S
O944 C928 1.268 . S
O945 Sc925 2.105 1_455 S
O945 C930 1.268 . S
Sc946 O949 2.025 . S
Sc946 O956 2.105 . S
Sc946 O959 2.105 . S
Sc946 O962 2.105 . S
Sc946 O965 2.105 . S
Sc947 O949 2.025 . S
Sc947 O957 2.105 . S
Sc947 O961 2.105 . S
Sc947 O963 2.105 . S
Sc947 O967 2.105 . S
Sc948 O949 2.025 . S
Sc948 O958 2.105 . S
Sc948 O960 2.105 . S
Sc948 O964 2.105 . S
Sc948 O966 2.105 . S
O949 Sc946 2.025 . S
O949 Sc947 2.025 . S
O949 Sc948 2.025 . S
C950 O956 1.268 . S
C950 O966 1.268 . S
C951 O957 1.268 . S
C951 O965 1.268 . S
C952 O958 1.268 . S
C952 O967 1.268 . S
C953 O959 1.268 . S
C953 O963 1.268 . S
C954 O960 1.268 . S
C954 O962 1.268 . S
C955 O961 1.268 . S
C955 O964 1.268 . S
O956 Sc946 2.105 . S
O956 C950 1.268 . S
O957 Sc947 2.105 . S
O957 C951 1.268 . S
O958 Sc948 2.105 . S
O958 C952 1.268 . S
O959 Sc946 2.105 . S
O959 C953 1.268 . S
O960 Sc948 2.105 . S
O960 C954 1.268 . S
O961 Sc947 2.105 . S
O961 C955 1.268 . S
O962 Sc946 2.105 . S
O962 C954 1.268 . S
O963 Sc947 2.105 . S
O963 C953 1.268 . S
O964 Sc948 2.105 . S
O964 C955 1.268 . S
O965 Sc946 2.105 . S
O965 C951 1.268 . S
O966 Sc948 2.105 . S
O966 C950 1.268 . S
O967 Sc947 2.105 . S
O967 C952 1.268 . S
Sc968 O971 2.025 . S
Sc968 O978 2.105 . S
Sc968 O981 2.105 . S
Sc968 O984 2.105 1_565 S
Sc968 O987 2.105 . S
Sc969 O971 2.025 . S
Sc969 O979 2.105 . S
Sc969 O983 2.105 1_455 S
Sc969 O985 2.105 . S
Sc969 O989 2.105 1_455 S
Sc970 O971 2.025 . S
Sc970 O980 2.105 1_455 S
Sc970 O982 2.105 1_565 S
Sc970 O986 2.105 1_455 S
Sc970 O988 2.105 . S
O971 Sc968 2.025 . S
O971 Sc969 2.025 . S
O971 Sc970 2.025 . S
C972 O978 1.268 . S
C972 O988 1.268 . S
C973 O979 1.268 . S
C973 O987 1.268 . S
C974 O980 1.268 . S
C974 O989 1.268 . S
C975 O981 1.268 . S
C975 O985 1.268 . S
C976 O982 1.268 . S
C976 O984 1.268 . S
C977 O983 1.268 . S
C977 O986 1.268 . S
O978 Sc968 2.105 . S
O978 C972 1.268 . S
O979 Sc969 2.105 . S
O979 C973 1.268 . S
O980 Sc970 2.105 1_655 S
O980 C974 1.268 . S
O981 Sc968 2.105 . S
O981 C975 1.268 . S
O982 Sc970 2.105 1_545 S
O982 C976 1.268 . S
O983 Sc969 2.105 1_655 S
O983 C977 1.268 . S
O984 Sc968 2.105 1_545 S
O984 C976 1.268 . S
O985 Sc969 2.105 . S
O985 C975 1.268 . S
O986 Sc970 2.105 1_655 S
O986 C977 1.268 . S
O987 Sc968 2.105 . S
O987 C973 1.268 . S
O988 Sc970 2.105 . S
O988 C972 1.268 . S
O989 Sc969 2.105 1_655 S
O989 C974 1.268 . S
Sc990 O993 2.025 . S
Sc990 O1000 2.105 . S
Sc990 O1003 2.105 . S
Sc990 O1006 2.105 . S
Sc990 O1009 2.105 . S
Sc991 O993 2.025 . S
Sc991 O1001 2.105 . S
Sc991 O1005 2.105 . S
Sc991 O1007 2.105 . S
Sc991 O1011 2.105 . S
Sc992 O993 2.025 . S
Sc992 O1002 2.105 . S
Sc992 O1004 2.105 . S
Sc992 O1008 2.105 . S
Sc992 O1010 2.105 . S
O993 Sc990 2.025 . S
O993 Sc991 2.025 . S
O993 Sc992 2.025 . S
C994 O1000 1.268 . S
C994 O1010 1.268 . S
C995 O1001 1.268 . S
C995 O1009 1.268 . S
C996 O1002 1.268 . S
C996 O1011 1.268 . S
C997 O1003 1.268 . S
C997 O1007 1.268 . S
C998 O1004 1.268 . S
C998 O1006 1.268 . S
C999 O1005 1.268 . S
C999 O1008 1.268 . S
O1000 Sc990 2.105 . S
O1000 C994 1.268 . S
O1001 Sc991 2.105 . S
O1001 C995 1.268 . S
O1002 Sc992 2.105 . S
O1002 C996 1.268 . S
O1003 Sc990 2.105 . S
O1003 C997 1.268 . S
O1004 Sc992 2.105 . S
O1004 C998 1.268 . S
O1005 Sc991 2.105 . S
O1005 C999 1.268 . S
O1006 Sc990 2.105 . S
O1006 C998 1.268 . S
O1007 Sc991 2.105 . S
O1007 C997 1.268 . S
O1008 Sc992 2.105 . S
O1008 C999 1.268 . S
O1009 Sc990 2.105 . S
O1009 C995 1.268 . S
O1010 Sc992 2.105 . S
O1010 C994 1.268 . S
O1011 Sc991 2.105 . S
O1011 C996 1.268 . S
Sc1012 O1015 2.025 . S
Sc1012 O1022 2.105 . S
Sc1012 O1025 2.105 . S
Sc1012 O1028 2.105 . S
Sc1012 O1031 2.105 . S
Sc1013 O1015 2.025 . S
Sc1013 O1023 2.105 . S
Sc1013 O1027 2.105 1_655 S
Sc1013 O1029 2.105 . S
Sc1013 O1033 2.105 1_655 S
Sc1014 O1015 2.025 . S
Sc1014 O1024 2.105 1_655 S
Sc1014 O1026 2.105 . S
Sc1014 O1030 2.105 1_655 S
Sc1014 O1032 2.105 . S
O1015 Sc1012 2.025 . S
O1015 Sc1013 2.025 . S
O1015 Sc1014 2.025 . S
C1016 O1022 1.268 . S
C1016 O1032 1.268 . S
C1017 O1023 1.268 . S
C1017 O1031 1.268 . S
C1018 O1024 1.268 . S
C1018 O1033 1.268 . S
C1019 O1025 1.268 . S
C1019 O1029 1.268 . S
C1020 O1026 1.268 . S
C1020 O1028 1.268 . S
C1021 O1027 1.268 . S
C1021 O1030 1.268 . S
O1022 Sc1012 2.105 . S
O1022 C1016 1.268 . S
O1023 Sc1013 2.105 . S
O1023 C1017 1.268 . S
O1024 Sc1014 2.105 1_455 S
O1024 C1018 1.268 . S
O1025 Sc1012 2.105 . S
O1025 C1019 1.268 . S
O1026 Sc1014 2.105 . S
O1026 C1020 1.268 . S
O1027 Sc1013 2.105 1_455 S
O1027 C1021 1.268 . S
O1028 Sc1012 2.105 . S
O1028 C1020 1.268 . S
O1029 Sc1013 2.105 . S
O1029 C1019 1.268 . S
O1030 Sc1014 2.105 1_455 S
O1030 C1021 1.268 . S
O1031 Sc1012 2.105 . S
O1031 C1017 1.268 . S
O1032 Sc1014 2.105 . S
O1032 C1016 1.268 . S
O1033 Sc1013 2.105 1_455 S
O1033 C1018 1.268 . S
Sc1034 O1037 2.025 . S
Sc1034 O1044 2.105 . S
Sc1034 O1047 2.105 . S
Sc1034 O1050 2.105 . S
Sc1034 O1053 2.105 . S
Sc1035 O1037 2.025 . S
Sc1035 O1045 2.105 . S
Sc1035 O1049 2.105 . S
Sc1035 O1051 2.105 . S
Sc1035 O1055 2.105 . S
Sc1036 O1037 2.025 . S
Sc1036 O1046 2.105 . S
Sc1036 O1048 2.105 . S
Sc1036 O1052 2.105 . S
Sc1036 O1054 2.105 . S
O1037 Sc1034 2.025 . S
O1037 Sc1035 2.025 . S
O1037 Sc1036 2.025 . S
C1038 O1044 1.268 . S
C1038 O1054 1.268 . S
C1039 O1045 1.268 . S
C1039 O1053 1.268 . S
C1040 O1046 1.268 . S
C1040 O1055 1.268 . S
C1041 O1047 1.268 . S
C1041 O1051 1.268 . S
C1042 O1048 1.268 . S
C1042 O1050 1.268 . S
C1043 O1049 1.268 . S
C1043 O1052 1.268 . S
O1044 Sc1034 2.105 . S
O1044 C1038 1.268 . S
O1045 Sc1035 2.105 . S
O1045 C1039 1.268 . S
O1046 Sc1036 2.105 . S
O1046 C1040 1.268 . S
O1047 Sc1034 2.105 . S
O1047 C1041 1.268 . S
O1048 Sc1036 2.105 . S
O1048 C1042 1.268 . S
O1049 Sc1035 2.105 . S
O1049 C1043 1.268 . S
O1050 Sc1034 2.105 . S
O1050 C1042 1.268 . S
O1051 Sc1035 2.105 . S
O1051 C1041 1.268 . S
O1052 Sc1036 2.105 . S
O1052 C1043 1.268 . S
O1053 Sc1034 2.105 . S
O1053 C1039 1.268 . S
O1054 Sc1036 2.105 . S
O1054 C1038 1.268 . S
O1055 Sc1035 2.105 . S
O1055 C1040 1.268 . S
Sc1056 O1059 2.025 . S
Sc1056 O1066 2.105 . S
Sc1056 O1069 2.105 . S
Sc1056 O1072 2.105 . S
Sc1056 O1075 2.105 . S
Sc1057 O1059 2.025 . S
Sc1057 O1067 2.105 . S
Sc1057 O1071 2.105 . S
Sc1057 O1073 2.105 . S
Sc1057 O1077 2.105 . S
Sc1058 O1059 2.025 . S
Sc1058 O1068 2.105 . S
Sc1058 O1070 2.105 . S
Sc1058 O1074 2.105 . S
Sc1058 O1076 2.105 . S
O1059 Sc1056 2.025 . S
O1059 Sc1057 2.025 . S
O1059 Sc1058 2.025 . S
C1060 O1066 1.268 . S
C1060 O1076 1.268 . S
C1061 O1067 1.268 . S
C1061 O1075 1.268 . S
C1062 O1068 1.268 . S
C1062 O1077 1.268 . S
C1063 O1069 1.268 . S
C1063 O1073 1.268 . S
C1064 O1070 1.268 . S
C1064 O1072 1.268 . S
C1065 O1071 1.268 . S
C1065 O1074 1.268 . S
O1066 Sc1056 2.105 . S
O1066 C1060 1.268 . S
O1067 Sc1057 2.105 . S
O1067 C1061 1.268 . S
O1068 Sc1058 2.105 . S
O1068 C1062 1.268 . S
O1069 Sc1056 2.105 . S
O1069 C1063 1.268 . S
O1070 Sc1058 2.105 . S
O1070 C1064 1.268 . S
O1071 Sc1057 2.105 . S
O1071 C1065 1.268 . S
O1072 Sc1056 2.105 . S
O1072 C1064 1.268 . S
O1073 Sc1057 2.105 . S
O1073 C1063 1.268 . S
O1074 Sc1058 2.105 . S
O1074 C1065 1.268 . S
O1075 Sc1056 2.105 . S
O1075 C1061 1.268 . S
O1076 Sc1058 2.105 . S
O1076 C1060 1.268 . S
O1077 Sc1057 2.105 . S
O1077 C1062 1.268 . S
Sc1078 O1081 2.025 . S
Sc1078 O1088 2.105 . S
Sc1078 O1091 2.105 1_554 S
Sc1078 O1094 2.105 . S
Sc1078 O1097 2.105 1_554 S
Sc1079 O1081 2.025 . S
Sc1079 O1089 2.105 1_554 S
Sc1079 O1093 2.105 . S
Sc1079 O1095 2.105 1_554 S
Sc1079 O1099 2.105 . S
Sc1080 O1081 2.025 . S
Sc1080 O1090 2.105 . S
Sc1080 O1092 2.105 . S
Sc1080 O1096 2.105 . S
Sc1080 O1098 2.105 . S
O1081 Sc1078 2.025 . S
O1081 Sc1079 2.025 . S
O1081 Sc1080 2.025 . S
C1082 O1088 1.268 . S
C1082 O1098 1.268 . S
C1083 O1089 1.268 . S
C1083 O1097 1.268 . S
C1084 O1090 1.268 . S
C1084 O1099 1.268 . S
C1085 O1091 1.268 . S
C1085 O1095 1.268 . S
C1086 O1092 1.268 . S
C1086 O1094 1.268 . S
C1087 O1093 1.268 . S
C1087 O1096 1.268 . S
O1088 Sc1078 2.105 . S
O1088 C1082 1.268 . S
O1089 Sc1079 2.105 1_556 S
O1089 C1083 1.268 . S
O1090 Sc1080 2.105 . S
O1090 C1084 1.268 . S
O1091 Sc1078 2.105 1_556 S
O1091 C1085 1.268 . S
O1092 Sc1080 2.105 . S
O1092 C1086 1.268 . S
O1093 Sc1079 2.105 . S
O1093 C1087 1.268 . S
O1094 Sc1078 2.105 . S
O1094 C1086 1.268 . S
O1095 Sc1079 2.105 1_556 S
O1095 C1085 1.268 . S
O1096 Sc1080 2.105 . S
O1096 C1087 1.268 . S
O1097 Sc1078 2.105 1_556 S
O1097 C1083 1.268 . S
O1098 Sc1080 2.105 . S
O1098 C1082 1.268 . S
O1099 Sc1079 2.105 . S
O1099 C1084 1.268 . S
Sc1100 O1103 2.025 . S
Sc1100 O1110 2.105 . S
Sc1100 O1113 2.105 . S
Sc1100 O1116 2.105 . S
Sc1100 O1119 2.105 . S
Sc1101 O1103 2.025 . S
Sc1101 O1111 2.105 . S
Sc1101 O1115 2.105 . S
Sc1101 O1117 2.105 . S
Sc1101 O1121 2.105 . S
Sc1102 O1103 2.025 . S
Sc1102 O1112 2.105 . S
Sc1102 O1114 2.105 . S
Sc1102 O1118 2.105 . S
Sc1102 O1120 2.105 . S
O1103 Sc1100 2.025 . S
O1103 Sc1101 2.025 . S
O1103 Sc1102 2.025 . S
C1104 O1110 1.268 . S
C1104 O1120 1.268 . S
C1105 O1111 1.268 . S
C1105 O1119 1.268 . S
C1106 O1112 1.268 . S
C1106 O1121 1.268 . S
C1107 O1113 1.268 . S
C1107 O1117 1.268 . S
C1108 O1114 1.268 . S
C1108 O1116 1.268 . S
C1109 O1115 1.268 . S
C1109 O1118 1.268 . S
O1110 Sc1100 2.105 . S
O1110 C1104 1.268 . S
O1111 Sc1101 2.105 . S
O1111 C1105 1.268 . S
O1112 Sc1102 2.105 . S
O1112 C1106 1.268 . S
O1113 Sc1100 2.105 . S
O1113 C1107 1.268 . S
O1114 Sc1102 2.105 . S
O1114 C1108 1.268 . S
O1115 Sc1101 2.105 . S
O1115 C1109 1.268 . S
O1116 Sc1100 2.105 . S
O1116 C1108 1.268 . S
O1117 Sc1101 2.105 . S
O1117 C1107 1.268 . S
O1118 Sc1102 2.105 . S
O1118 C1109 1.268 . S
O1119 Sc1100 2.105 . S
O1119 C1105 1.268 . S
O1120 Sc1102 2.105 . S
O1120 C1104 1.268 . S
O1121 Sc1101 2.105 . S
O1121 C1106 1.268 . S
Sc1122 O1125 2.025 . S
Sc1122 O1132 2.105 1_655 S
Sc1122 O1135 2.105 . S
Sc1122 O1138 2.105 . S
Sc1122 O1141 2.105 . S
Sc1123 O1125 2.025 . S
Sc1123 O1133 2.105 . S
Sc1123 O1137 2.105 . S
Sc1123 O1139 2.105 . S
Sc1123 O1143 2.105 . S
Sc1124 O1125 2.025 . S
Sc1124 O1134 2.105 . S
Sc1124 O1136 2.105 . S
Sc1124 O1140 2.105 . S
Sc1124 O1142 2.105 1_655 S
O1125 Sc1122 2.025 . S
O1125 Sc1123 2.025 . S
O1125 Sc1124 2.025 . S
C1126 O1132 1.268 . S
C1126 O1142 1.268 . S
C1127 O1133 1.268 . S
C1127 O1141 1.268 . S
C1128 O1134 1.268 . S
C1128 O1143 1.268 . S
C1129 O1135 1.268 . S
C1129 O1139 1.268 . S
C1130 O1136 1.268 . S
C1130 O1138 1.268 . S
C1131 O1137 1.268 . S
C1131 O1140 1.268 . S
O1132 Sc1122 2.105 1_455 S
O1132 C1126 1.268 . S
O1133 Sc1123 2.105 . S
O1133 C1127 1.268 . S
O1134 Sc1124 2.105 . S
O1134 C1128 1.268 . S
O1135 Sc1122 2.105 . S
O1135 C1129 1.268 . S
O1136 Sc1124 2.105 . S
O1136 C1130 1.268 . S
O1137 Sc1123 2.105 . S
O1137 C1131 1.268 . S
O1138 Sc1122 2.105 . S
O1138 C1130 1.268 . S
O1139 Sc1123 2.105 . S
O1139 C1129 1.268 . S
O1140 Sc1124 2.105 . S
O1140 C1131 1.268 . S
O1141 Sc1122 2.105 . S
O1141 C1127 1.268 . S
O1142 Sc1124 2.105 1_455 S
O1142 C1126 1.268 . S
O1143 Sc1123 2.105 . S
O1143 C1128 1.268 . S
Sc1144 O1147 2.025 . S
Sc1144 O1154 2.105 . S
Sc1144 O1157 2.105 . S
Sc1144 O1160 2.105 . S
Sc1144 O1163 2.105 . S
Sc1145 O1147 2.025 . S
Sc1145 O1155 2.105 . S
Sc1145 O1159 2.105 . S
Sc1145 O1161 2.105 . S
Sc1145 O1165 2.105 . S
Sc1146 O1147 2.025 . S
Sc1146 O1156 2.105 . S
Sc1146 O1158 2.105 . S
Sc1146 O1162 2.105 . S
Sc1146 O1164 2.105 . S
O1147 Sc1144 2.025 . S
O1147 Sc1145 2.025 . S
O1147 Sc1146 2.025 . S
C1148 O1154 1.268 . S
C1148 O1164 1.268 . S
C1149 O1155 1.268 . S
C1149 O1163 1.268 . S
C1150 O1156 1.268 . S
C1150 O1165 1.268 . S
C1151 O1157 1.268 . S
C1151 O1161 1.268 . S
C1152 O1158 1.268 . S
C1152 O1160 1.268 . S
C1153 O1159 1.268 . S
C1153 O1162 1.268 . S
O1154 Sc1144 2.105 . S
O1154 C1148 1.268 . S
O1155 Sc1145 2.105 . S
O1155 C1149 1.268 . S
O1156 Sc1146 2.105 . S
O1156 C1150 1.268 . S
O1157 Sc1144 2.105 . S
O1157 C1151 1.268 . S
O1158 Sc1146 2.105 . S
O1158 C1152 1.268 . S
O1159 Sc1145 2.105 . S
O1159 C1153 1.268 . S
O1160 Sc1144 2.105 . S
O1160 C1152 1.268 . S
O1161 Sc1145 2.105 . S
O1161 C1151 1.268 . S
O1162 Sc1146 2.105 . S
O1162 C1153 1.268 . S
O1163 Sc1144 2.105 . S
O1163 C1149 1.268 . S
O1164 Sc1146 2.105 . S
O1164 C1148 1.268 . S
O1165 Sc1145 2.105 . S
O1165 C1150 1.268 . S
Sc1166 O1169 2.025 . S
Sc1166 O1176 2.105 . S
Sc1166 O1179 2.105 1_556 S
Sc1166 O1182 2.105 1_655 S
Sc1166 O1185 2.105 1_556 S
Sc1167 O1169 2.025 . S
Sc1167 O1177 2.105 1_556 S
Sc1167 O1181 2.105 . S
Sc1167 O1183 2.105 1_556 S
Sc1167 O1187 2.105 . S
Sc1168 O1169 2.025 . S
Sc1168 O1178 2.105 . S
Sc1168 O1180 2.105 1_655 S
Sc1168 O1184 2.105 . S
Sc1168 O1186 2.105 . S
O1169 Sc1166 2.025 . S
O1169 Sc1167 2.025 . S
O1169 Sc1168 2.025 . S
C1170 O1176 1.268 . S
C1170 O1186 1.268 . S
C1171 O1177 1.268 . S
C1171 O1185 1.268 . S
C1172 O1178 1.268 . S
C1172 O1187 1.268 . S
C1173 O1179 1.268 . S
C1173 O1183 1.268 . S
C1174 O1180 1.268 . S
C1174 O1182 1.268 . S
C1175 O1181 1.268 . S
C1175 O1184 1.268 . S
O1176 Sc1166 2.105 . S
O1176 C1170 1.268 . S
O1177 Sc1167 2.105 1_554 S
O1177 C1171 1.268 . S
O1178 Sc1168 2.105 . S
O1178 C1172 1.268 . S
O1179 Sc1166 2.105 1_554 S
O1179 C1173 1.268 . S
O1180 Sc1168 2.105 1_455 S
O1180 C1174 1.268 . S
O1181 Sc1167 2.105 . S
O1181 C1175 1.268 . S
O1182 Sc1166 2.105 1_455 S
O1182 C1174 1.268 . S
O1183 Sc1167 2.105 1_554 S
O1183 C1173 1.268 . S
O1184 Sc1168 2.105 . S
O1184 C1175 1.268 . S
O1185 Sc1166 2.105 1_554 S
O1185 C1171 1.268 . S
O1186 Sc1168 2.105 . S
O1186 C1170 1.268 . S
O1187 Sc1167 2.105 . S
O1187 C1172 1.268 . S
Sc1188 O1191 2.025 . S
Sc1188 O1198 2.105 . S
Sc1188 O1201 2.105 . S
Sc1188 O1204 2.105 . S
Sc1188 O1207 2.105 . S
Sc1189 O1191 2.025 . S
Sc1189 O1199 2.105 . S
Sc1189 O1203 2.105 . S
Sc1189 O1205 2.105 . S
Sc1189 O1209 2.105 . S
Sc1190 O1191 2.025 . S
Sc1190 O1200 2.105 . S
Sc1190 O1202 2.105 . S
Sc1190 O1206 2.105 . S
Sc1190 O1208 2.105 . S
O1191 Sc1188 2.025 . S
O1191 Sc1189 2.025 . S
O1191 Sc1190 2.025 . S
C1192 O1198 1.268 . S
C1192 O1208 1.268 . S
C1193 O1199 1.268 . S
C1193 O1207 1.268 . S
C1194 O1200 1.268 . S
C1194 O1209 1.268 . S
C1195 O1201 1.268 . S
C1195 O1205 1.268 . S
C1196 O1202 1.268 . S
C1196 O1204 1.268 . S
C1197 O1203 1.268 . S
C1197 O1206 1.268 . S
O1198 Sc1188 2.105 . S
O1198 C1192 1.268 . S
O1199 Sc1189 2.105 . S
O1199 C1193 1.268 . S
O1200 Sc1190 2.105 . S
O1200 C1194 1.268 . S
O1201 Sc1188 2.105 . S
O1201 C1195 1.268 . S
O1202 Sc1190 2.105 . S
O1202 C1196 1.268 . S
O1203 Sc1189 2.105 . S
O1203 C1197 1.268 . S
O1204 Sc1188 2.105 . S
O1204 C1196 1.268 . S
O1205 Sc1189 2.105 . S
O1205 C1195 1.268 . S
O1206 Sc1190 2.105 . S
O1206 C1197 1.268 . S
O1207 Sc1188 2.105 . S
O1207 C1193 1.268 . S
O1208 Sc1190 2.105 . S
O1208 C1192 1.268 . S
O1209 Sc1189 2.105 . S
O1209 C1194 1.268 . S
Sc1210 O1213 2.025 . S
Sc1210 O1220 2.105 . S
Sc1210 O1223 2.105 . S
Sc1210 O1226 2.105 . S
Sc1210 O1229 2.105 . S
Sc1211 O1213 2.025 . S
Sc1211 O1221 2.105 . S
Sc1211 O1225 2.105 . S
Sc1211 O1227 2.105 . S
Sc1211 O1231 2.105 . S
Sc1212 O1213 2.025 . S
Sc1212 O1222 2.105 . S
Sc1212 O1224 2.105 . S
Sc1212 O1228 2.105 . S
Sc1212 O1230 2.105 . S
O1213 Sc1210 2.025 . S
O1213 Sc1211 2.025 . S
O1213 Sc1212 2.025 . S
C1214 O1220 1.268 . S
C1214 O1230 1.268 . S
C1215 O1221 1.268 . S
C1215 O1229 1.268 . S
C1216 O1222 1.268 . S
C1216 O1231 1.268 . S
C1217 O1223 1.268 . S
C1217 O1227 1.268 . S
C1218 O1224 1.268 . S
C1218 O1226 1.268 . S
C1219 O1225 1.268 . S
C1219 O1228 1.268 . S
O1220 Sc1210 2.105 . S
O1220 C1214 1.268 . S
O1221 Sc1211 2.105 . S
O1221 C1215 1.268 . S
O1222 Sc1212 2.105 . S
O1222 C1216 1.268 . S
O1223 Sc1210 2.105 . S
O1223 C1217 1.268 . S
O1224 Sc1212 2.105 . S
O1224 C1218 1.268 . S
O1225 Sc1211 2.105 . S
O1225 C1219 1.268 . S
O1226 Sc1210 2.105 . S
O1226 C1218 1.268 . S
O1227 Sc1211 2.105 . S
O1227 C1217 1.268 . S
O1228 Sc1212 2.105 . S
O1228 C1219 1.268 . S
O1229 Sc1210 2.105 . S
O1229 C1215 1.268 . S
O1230 Sc1212 2.105 . S
O1230 C1214 1.268 . S
O1231 Sc1211 2.105 . S
O1231 C1216 1.268 . S
Sc1232 O1235 2.025 . S
Sc1232 O1242 2.105 . S
Sc1232 O1245 2.105 . S
Sc1232 O1248 2.105 . S
Sc1232 O1251 2.105 . S
Sc1233 O1235 2.025 . S
Sc1233 O1243 2.105 . S
Sc1233 O1247 2.105 . S
Sc1233 O1249 2.105 . S
Sc1233 O1253 2.105 . S
Sc1234 O1235 2.025 . S
Sc1234 O1244 2.105 . S
Sc1234 O1246 2.105 . S
Sc1234 O1250 2.105 . S
Sc1234 O1252 2.105 . S
O1235 Sc1232 2.025 . S
O1235 Sc1233 2.025 . S
O1235 Sc1234 2.025 . S
C1236 O1242 1.268 . S
C1236 O1252 1.268 . S
C1237 O1243 1.268 . S
C1237 O1251 1.268 . S
C1238 O1244 1.268 . S
C1238 O1253 1.268 . S
C1239 O1245 1.268 . S
C1239 O1249 1.268 . S
C1240 O1246 1.268 . S
C1240 O1248 1.268 . S
C1241 O1247 1.268 . S
C1241 O1250 1.268 . S
O1242 Sc1232 2.105 . S
O1242 C1236 1.268 . S
O1243 Sc1233 2.105 . S
O1243 C1237 1.268 . S
O1244 Sc1234 2.105 . S
O1244 C1238 1.268 . S
O1245 Sc1232 2.105 . S
O1245 C1239 1.268 . S
O1246 Sc1234 2.105 . S
O1246 C1240 1.268 . S
O1247 Sc1233 2.105 . S
O1247 C1241 1.268 . S
O1248 Sc1232 2.105 . S
O1248 C1240 1.268 . S
O1249 Sc1233 2.105 . S
O1249 C1239 1.268 . S
O1250 Sc1234 2.105 . S
O1250 C1241 1.268 . S
O1251 Sc1232 2.105 . S
O1251 C1237 1.268 . S
O1252 Sc1234 2.105 . S
O1252 C1236 1.268 . S
O1253 Sc1233 2.105 . S
O1253 C1238 1.268 . S
Sc1254 O1257 2.025 . S
Sc1254 O1264 2.105 1_556 S
Sc1254 O1267 2.105 . S
Sc1254 O1270 2.105 . S
Sc1254 O1273 2.105 . S
Sc1255 O1257 2.025 . S
Sc1255 O1265 2.105 . S
Sc1255 O1269 2.105 . S
Sc1255 O1271 2.105 . S
Sc1255 O1275 2.105 . S
Sc1256 O1257 2.025 . S
Sc1256 O1266 2.105 . S
Sc1256 O1268 2.105 . S
Sc1256 O1272 2.105 . S
Sc1256 O1274 2.105 1_556 S
O1257 Sc1254 2.025 . S
O1257 Sc1255 2.025 . S
O1257 Sc1256 2.025 . S
C1258 O1264 1.268 . S
C1258 O1274 1.268 . S
C1259 O1265 1.268 . S
C1259 O1273 1.268 . S
C1260 O1266 1.268 . S
C1260 O1275 1.268 . S
C1261 O1267 1.268 . S
C1261 O1271 1.268 . S
C1262 O1268 1.268 . S
C1262 O1270 1.268 . S
C1263 O1269 1.268 . S
C1263 O1272 1.268 . S
O1264 Sc1254 2.105 1_554 S
O1264 C1258 1.268 . S
O1265 Sc1255 2.105 . S
O1265 C1259 1.268 . S
O1266 Sc1256 2.105 . S
O1266 C1260 1.268 . S
O1267 Sc1254 2.105 . S
O1267 C1261 1.268 . S
O1268 Sc1256 2.105 . S
O1268 C1262 1.268 . S
O1269 Sc1255 2.105 . S
O1269 C1263 1.268 . S
O1270 Sc1254 2.105 . S
O1270 C1262 1.268 . S
O1271 Sc1255 2.105 . S
O1271 C1261 1.268 . S
O1272 Sc1256 2.105 . S
O1272 C1263 1.268 . S
O1273 Sc1254 2.105 . S
O1273 C1259 1.268 . S
O1274 Sc1256 2.105 1_554 S
O1274 C1258 1.268 . S
O1275 Sc1255 2.105 . S
O1275 C1260 1.268 . S
Sc1276 O1279 2.025 . S
Sc1276 O1286 2.105 . S
Sc1276 O1289 2.105 . S
Sc1276 O1292 2.105 . S
Sc1276 O1295 2.105 . S
Sc1277 O1279 2.025 . S
Sc1277 O1287 2.105 . S
Sc1277 O1291 2.105 . S
Sc1277 O1293 2.105 . S
Sc1277 O1297 2.105 . S
Sc1278 O1279 2.025 . S
Sc1278 O1288 2.105 . S
Sc1278 O1290 2.105 . S
Sc1278 O1294 2.105 . S
Sc1278 O1296 2.105 . S
O1279 Sc1276 2.025 . S
O1279 Sc1277 2.025 . S
O1279 Sc1278 2.025 . S
C1280 O1286 1.268 . S
C1280 O1296 1.268 . S
C1281 O1287 1.268 . S
C1281 O1295 1.268 . S
C1282 O1288 1.268 . S
C1282 O1297 1.268 . S
C1283 O1289 1.268 . S
C1283 O1293 1.268 . S
C1284 O1290 1.268 . S
C1284 O1292 1.268 . S
C1285 O1291 1.268 . S
C1285 O1294 1.268 . S
O1286 Sc1276 2.105 . S
O1286 C1280 1.268 . S
O1287 Sc1277 2.105 . S
O1287 C1281 1.268 . S
O1288 Sc1278 2.105 . S
O1288 C1282 1.268 . S
O1289 Sc1276 2.105 . S
O1289 C1283 1.268 . S
O1290 Sc1278 2.105 . S
O1290 C1284 1.268 . S
O1291 Sc1277 2.105 . S
O1291 C1285 1.268 . S
O1292 Sc1276 2.105 . S
O1292 C1284 1.268 . S
O1293 Sc1277 2.105 . S
O1293 C1283 1.268 . S
O1294 Sc1278 2.105 . S
O1294 C1285 1.268 . S
O1295 Sc1276 2.105 . S
O1295 C1281 1.268 . S
O1296 Sc1278 2.105 . S
O1296 C1280 1.268 . S
O1297 Sc1277 2.105 . S
O1297 C1282 1.268 . S
Sc1298 O1301 2.025 . S
Sc1298 O1308 2.105 . S
Sc1298 O1311 2.105 . S
Sc1298 O1314 2.105 . S
Sc1298 O1317 2.105 . S
Sc1299 O1301 2.025 . S
Sc1299 O1309 2.105 . S
Sc1299 O1313 2.105 . S
Sc1299 O1315 2.105 . S
Sc1299 O1319 2.105 . S
Sc1300 O1301 2.025 . S
Sc1300 O1310 2.105 . S
Sc1300 O1312 2.105 . S
Sc1300 O1316 2.105 . S
Sc1300 O1318 2.105 . S
O1301 Sc1298 2.025 . S
O1301 Sc1299 2.025 . S
O1301 Sc1300 2.025 . S
C1302 O1308 1.268 . S
C1302 O1318 1.268 . S
C1303 O1309 1.268 . S
C1303 O1317 1.268 . S
C1304 O1310 1.268 . S
C1304 O1319 1.268 . S
C1305 O1311 1.268 . S
C1305 O1315 1.268 . S
C1306 O1312 1.268 . S
C1306 O1314 1.268 . S
C1307 O1313 1.268 . S
C1307 O1316 1.268 . S
O1308 Sc1298 2.105 . S
O1308 C1302 1.268 . S
O1309 Sc1299 2.105 . S
O1309 C1303 1.268 . S
O1310 Sc1300 2.105 . S
O1310 C1304 1.268 . S
O1311 Sc1298 2.105 . S
O1311 C1305 1.268 . S
O1312 Sc1300 2.105 . S
O1312 C1306 1.268 . S
O1313 Sc1299 2.105 . S
O1313 C1307 1.268 . S
O1314 Sc1298 2.105 . S
O1314 C1306 1.268 . S
O1315 Sc1299 2.105 . S
O1315 C1305 1.268 . S
O1316 Sc1300 2.105 . S
O1316 C1307 1.268 . S
O1317 Sc1298 2.105 . S
O1317 C1303 1.268 . S
O1318 Sc1300 2.105 . S
O1318 C1302 1.268 . S
O1319 Sc1299 2.105 . S
O1319 C1304 1.268 . S
Sc1320 O1323 2.025 . S
Sc1320 O1330 2.105 . S
Sc1320 O1333 2.105 . S
Sc1320 O1336 2.105 . S
Sc1320 O1339 2.105 . S
Sc1321 O1323 2.025 . S
Sc1321 O1331 2.105 . S
Sc1321 O1335 2.105 . S
Sc1321 O1337 2.105 . S
Sc1321 O1341 2.105 . S
Sc1322 O1323 2.025 . S
Sc1322 O1332 2.105 . S
Sc1322 O1334 2.105 . S
Sc1322 O1338 2.105 . S
Sc1322 O1340 2.105 . S
O1323 Sc1320 2.025 . S
O1323 Sc1321 2.025 . S
O1323 Sc1322 2.025 . S
C1324 O1330 1.268 . S
C1324 O1340 1.268 . S
C1325 O1331 1.268 . S
C1325 O1339 1.268 . S
C1326 O1332 1.268 . S
C1326 O1341 1.268 . S
C1327 O1333 1.268 . S
C1327 O1337 1.268 . S
C1328 O1334 1.268 . S
C1328 O1336 1.268 . S
C1329 O1335 1.268 . S
C1329 O1338 1.268 . S
O1330 Sc1320 2.105 . S
O1330 C1324 1.268 . S
O1331 Sc1321 2.105 . S
O1331 C1325 1.268 . S
O1332 Sc1322 2.105 . S
O1332 C1326 1.268 . S
O1333 Sc1320 2.105 . S
O1333 C1327 1.268 . S
O1334 Sc1322 2.105 . S
O1334 C1328 1.268 . S
O1335 Sc1321 2.105 . S
O1335 C1329 1.268 . S
O1336 Sc1320 2.105 . S
O1336 C1328 1.268 . S
O1337 Sc1321 2.105 . S
O1337 C1327 1.268 . S
O1338 Sc1322 2.105 . S
O1338 C1329 1.268 . S
O1339 Sc1320 2.105 . S
O1339 C1325 1.268 . S
O1340 Sc1322 2.105 . S
O1340 C1324 1.268 . S
O1341 Sc1321 2.105 . S
O1341 C1326 1.268 . S
Sc1342 O1345 2.025 . S
Sc1342 O1352 2.105 1_554 S
Sc1342 O1355 2.105 . S
Sc1342 O1358 2.105 . S
Sc1342 O1361 2.105 . S
Sc1343 O1345 2.025 . S
Sc1343 O1353 2.105 . S
Sc1343 O1357 2.105 . S
Sc1343 O1359 2.105 . S
Sc1343 O1363 2.105 . S
Sc1344 O1345 2.025 . S
Sc1344 O1354 2.105 . S
Sc1344 O1356 2.105 . S
Sc1344 O1360 2.105 . S
Sc1344 O1362 2.105 1_554 S
O1345 Sc1342 2.025 . S
O1345 Sc1343 2.025 . S
O1345 Sc1344 2.025 . S
C1346 O1352 1.268 . S
C1346 O1362 1.268 . S
C1347 O1353 1.268 . S
C1347 O1361 1.268 . S
C1348 O1354 1.268 . S
C1348 O1363 1.268 . S
C1349 O1355 1.268 . S
C1349 O1359 1.268 . S
C1350 O1356 1.268 . S
C1350 O1358 1.268 . S
C1351 O1357 1.268 . S
C1351 O1360 1.268 . S
O1352 Sc1342 2.105 1_556 S
O1352 C1346 1.268 . S
O1353 Sc1343 2.105 . S
O1353 C1347 1.268 . S
O1354 Sc1344 2.105 . S
O1354 C1348 1.268 . S
O1355 Sc1342 2.105 . S
O1355 C1349 1.268 . S
O1356 Sc1344 2.105 . S
O1356 C1350 1.268 . S
O1357 Sc1343 2.105 . S
O1357 C1351 1.268 . S
O1358 Sc1342 2.105 . S
O1358 C1350 1.268 . S
O1359 Sc1343 2.105 . S
O1359 C1349 1.268 . S
O1360 Sc1344 2.105 . S
O1360 C1351 1.268 . S
O1361 Sc1342 2.105 . S
O1361 C1347 1.268 . S
O1362 Sc1344 2.105 1_556 S
O1362 C1346 1.268 . S
O1363 Sc1343 2.105 . S
O1363 C1348 1.268 . S
Sc1364 O1367 2.025 . S
Sc1364 O1374 2.105 . S
Sc1364 O1377 2.105 . S
Sc1364 O1380 2.105 . S
Sc1364 O1383 2.105 . S
Sc1365 O1367 2.025 . S
Sc1365 O1375 2.105 . S
Sc1365 O1379 2.105 . S
Sc1365 O1381 2.105 . S
Sc1365 O1385 2.105 . S
Sc1366 O1367 2.025 . S
Sc1366 O1376 2.105 . S
Sc1366 O1378 2.105 . S
Sc1366 O1382 2.105 . S
Sc1366 O1384 2.105 . S
O1367 Sc1364 2.025 . S
O1367 Sc1365 2.025 . S
O1367 Sc1366 2.025 . S
C1368 O1374 1.268 . S
C1368 O1384 1.268 . S
C1369 O1375 1.268 . S
C1369 O1383 1.268 . S
C1370 O1376 1.268 . S
C1370 O1385 1.268 . S
C1371 O1377 1.268 . S
C1371 O1381 1.268 . S
C1372 O1378 1.268 . S
C1372 O1380 1.268 . S
C1373 O1379 1.268 . S
C1373 O1382 1.268 . S
O1374 Sc1364 2.105 . S
O1374 C1368 1.268 . S
O1375 Sc1365 2.105 . S
O1375 C1369 1.268 . S
O1376 Sc1366 2.105 . S
O1376 C1370 1.268 . S
O1377 Sc1364 2.105 . S
O1377 C1371 1.268 . S
O1378 Sc1366 2.105 . S
O1378 C1372 1.268 . S
O1379 Sc1365 2.105 . S
O1379 C1373 1.268 . S
O1380 Sc1364 2.105 . S
O1380 C1372 1.268 . S
O1381 Sc1365 2.105 . S
O1381 C1371 1.268 . S
O1382 Sc1366 2.105 . S
O1382 C1373 1.268 . S
O1383 Sc1364 2.105 . S
O1383 C1369 1.268 . S
O1384 Sc1366 2.105 . S
O1384 C1368 1.268 . S
O1385 Sc1365 2.105 . S
O1385 C1370 1.268 . S
Sc1386 O1389 2.025 . S
Sc1386 O1396 2.105 . S
Sc1386 O1399 2.105 . S
Sc1386 O1402 2.105 . S
Sc1386 O1405 2.105 . S
Sc1387 O1389 2.025 . S
Sc1387 O1397 2.105 . S
Sc1387 O1401 2.105 . S
Sc1387 O1403 2.105 . S
Sc1387 O1407 2.105 . S
Sc1388 O1389 2.025 . S
Sc1388 O1398 2.105 . S
Sc1388 O1400 2.105 . S
Sc1388 O1404 2.105 . S
Sc1388 O1406 2.105 . S
O1389 Sc1386 2.025 . S
O1389 Sc1387 2.025 . S
O1389 Sc1388 2.025 . S
C1390 O1396 1.268 . S
C1390 O1406 1.268 . S
C1391 O1397 1.268 . S
C1391 O1405 1.268 . S
C1392 O1398 1.268 . S
C1392 O1407 1.268 . S
C1393 O1399 1.268 . S
C1393 O1403 1.268 . S
C1394 O1400 1.268 . S
C1394 O1402 1.268 . S
C1395 O1401 1.268 . S
C1395 O1404 1.268 . S
O1396 Sc1386 2.105 . S
O1396 C1390 1.268 . S
O1397 Sc1387 2.105 . S
O1397 C1391 1.268 . S
O1398 Sc1388 2.105 . S
O1398 C1392 1.268 . S
O1399 Sc1386 2.105 . S
O1399 C1393 1.268 . S
O1400 Sc1388 2.105 . S
O1400 C1394 1.268 . S
O1401 Sc1387 2.105 . S
O1401 C1395 1.268 . S
O1402 Sc1386 2.105 . S
O1402 C1394 1.268 . S
O1403 Sc1387 2.105 . S
O1403 C1393 1.268 . S
O1404 Sc1388 2.105 . S
O1404 C1395 1.268 . S
O1405 Sc1386 2.105 . S
O1405 C1391 1.268 . S
O1406 Sc1388 2.105 . S
O1406 C1390 1.268 . S
O1407 Sc1387 2.105 . S
O1407 C1392 1.268 . S
Sc1408 O1411 2.025 . S
Sc1408 O1418 2.105 . S
Sc1408 O1421 2.105 . S
Sc1408 O1424 2.105 . S
Sc1408 O1427 2.105 . S
Sc1409 O1411 2.025 . S
Sc1409 O1419 2.105 . S
Sc1409 O1423 2.105 . S
Sc1409 O1425 2.105 . S
Sc1409 O1429 2.105 . S
Sc1410 O1411 2.025 . S
Sc1410 O1420 2.105 . S
Sc1410 O1422 2.105 . S
Sc1410 O1426 2.105 . S
Sc1410 O1428 2.105 . S
O1411 Sc1408 2.025 . S
O1411 Sc1409 2.025 . S
O1411 Sc1410 2.025 . S
C1412 O1418 1.268 . S
C1412 O1428 1.268 . S
C1413 O1419 1.268 . S
C1413 O1427 1.268 . S
C1414 O1420 1.268 . S
C1414 O1429 1.268 . S
C1415 O1421 1.268 . S
C1415 O1425 1.268 . S
C1416 O1422 1.268 . S
C1416 O1424 1.268 . S
C1417 O1423 1.268 . S
C1417 O1426 1.268 . S
O1418 Sc1408 2.105 . S
O1418 C1412 1.268 . S
O1419 Sc1409 2.105 . S
O1419 C1413 1.268 . S
O1420 Sc1410 2.105 . S
O1420 C1414 1.268 . S
O1421 Sc1408 2.105 . S
O1421 C1415 1.268 . S
O1422 Sc1410 2.105 . S
O1422 C1416 1.268 . S
O1423 Sc1409 2.105 . S
O1423 C1417 1.268 . S
O1424 Sc1408 2.105 . S
O1424 C1416 1.268 . S
O1425 Sc1409 2.105 . S
O1425 C1415 1.268 . S
O1426 Sc1410 2.105 . S
O1426 C1417 1.268 . S
O1427 Sc1408 2.105 . S
O1427 C1413 1.268 . S
O1428 Sc1410 2.105 . S
O1428 C1412 1.268 . S
O1429 Sc1409 2.105 . S
O1429 C1414 1.268 . S
Sc1430 O1433 2.025 . S
Sc1430 O1440 2.105 . S
Sc1430 O1443 2.105 . S
Sc1430 O1446 2.105 . S
Sc1430 O1449 2.105 . S
Sc1431 O1433 2.025 . S
Sc1431 O1441 2.105 . S
Sc1431 O1445 2.105 . S
Sc1431 O1447 2.105 . S
Sc1431 O1451 2.105 . S
Sc1432 O1433 2.025 . S
Sc1432 O1442 2.105 . S
Sc1432 O1444 2.105 . S
Sc1432 O1448 2.105 . S
Sc1432 O1450 2.105 . S
O1433 Sc1430 2.025 . S
O1433 Sc1431 2.025 . S
O1433 Sc1432 2.025 . S
C1434 O1440 1.268 . S
C1434 O1450 1.268 . S
C1435 O1441 1.268 . S
C1435 O1449 1.268 . S
C1436 O1442 1.268 . S
C1436 O1451 1.268 . S
C1437 O1443 1.268 . S
C1437 O1447 1.268 . S
C1438 O1444 1.268 . S
C1438 O1446 1.268 . S
C1439 O1445 1.268 . S
C1439 O1448 1.268 . S
O1440 Sc1430 2.105 . S
O1440 C1434 1.268 . S
O1441 Sc1431 2.105 . S
O1441 C1435 1.268 . S
O1442 Sc1432 2.105 . S
O1442 C1436 1.268 . S
O1443 Sc1430 2.105 . S
O1443 C1437 1.268 . S
O1444 Sc1432 2.105 . S
O1444 C1438 1.268 . S
O1445 Sc1431 2.105 . S
O1445 C1439 1.268 . S
O1446 Sc1430 2.105 . S
O1446 C1438 1.268 . S
O1447 Sc1431 2.105 . S
O1447 C1437 1.268 . S
O1448 Sc1432 2.105 . S
O1448 C1439 1.268 . S
O1449 Sc1430 2.105 . S
O1449 C1435 1.268 . S
O1450 Sc1432 2.105 . S
O1450 C1434 1.268 . S
O1451 Sc1431 2.105 . S
O1451 C1436 1.268 . S
Sc1452 O1455 2.025 . S
Sc1452 O1462 2.105 . S
Sc1452 O1465 2.105 . S
Sc1452 O1468 2.105 1_565 S
Sc1452 O1471 2.105 . S
Sc1453 O1455 2.025 . S
Sc1453 O1463 2.105 . S
Sc1453 O1467 2.105 . S
Sc1453 O1469 2.105 . S
Sc1453 O1473 2.105 . S
Sc1454 O1455 2.025 . S
Sc1454 O1464 2.105 . S
Sc1454 O1466 2.105 1_565 S
Sc1454 O1470 2.105 . S
Sc1454 O1472 2.105 . S
O1455 Sc1452 2.025 . S
O1455 Sc1453 2.025 . S
O1455 Sc1454 2.025 . S
C1456 O1462 1.268 . S
C1456 O1472 1.268 . S
C1457 O1463 1.268 . S
C1457 O1471 1.268 . S
C1458 O1464 1.268 . S
C1458 O1473 1.268 . S
C1459 O1465 1.268 . S
C1459 O1469 1.268 . S
C1460 O1466 1.268 . S
C1460 O1468 1.268 . S
C1461 O1467 1.268 . S
C1461 O1470 1.268 . S
O1462 Sc1452 2.105 . S
O1462 C1456 1.268 . S
O1463 Sc1453 2.105 . S
O1463 C1457 1.268 . S
O1464 Sc1454 2.105 . S
O1464 C1458 1.268 . S
O1465 Sc1452 2.105 . S
O1465 C1459 1.268 . S
O1466 Sc1454 2.105 1_545 S
O1466 C1460 1.268 . S
O1467 Sc1453 2.105 . S
O1467 C1461 1.268 . S
O1468 Sc1452 2.105 1_545 S
O1468 C1460 1.268 . S
O1469 Sc1453 2.105 . S
O1469 C1459 1.268 . S
O1470 Sc1454 2.105 . S
O1470 C1461 1.268 . S
O1471 Sc1452 2.105 . S
O1471 C1457 1.268 . S
O1472 Sc1454 2.105 . S
O1472 C1456 1.268 . S
O1473 Sc1453 2.105 . S
O1473 C1458 1.268 . S
Sc1474 O1477 2.025 . S
Sc1474 O1484 2.105 . S
Sc1474 O1487 2.105 . S
Sc1474 O1490 2.105 . S
Sc1474 O1493 2.105 . S
Sc1475 O1477 2.025 . S
Sc1475 O1485 2.105 . S
Sc1475 O1489 2.105 . S
Sc1475 O1491 2.105 . S
Sc1475 O1495 2.105 . S
Sc1476 O1477 2.025 . S
Sc1476 O1486 2.105 . S
Sc1476 O1488 2.105 . S
Sc1476 O1492 2.105 . S
Sc1476 O1494 2.105 . S
O1477 Sc1474 2.025 . S
O1477 Sc1475 2.025 . S
O1477 Sc1476 2.025 . S
C1478 O1484 1.268 . S
C1478 O1494 1.268 . S
C1479 O1485 1.268 . S
C1479 O1493 1.268 . S
C1480 O1486 1.268 . S
C1480 O1495 1.268 . S
C1481 O1487 1.268 . S
C1481 O1491 1.268 . S
C1482 O1488 1.268 . S
C1482 O1490 1.268 . S
C1483 O1489 1.268 . S
C1483 O1492 1.268 . S
O1484 Sc1474 2.105 . S
O1484 C1478 1.268 . S
O1485 Sc1475 2.105 . S
O1485 C1479 1.268 . S
O1486 Sc1476 2.105 . S
O1486 C1480 1.268 . S
O1487 Sc1474 2.105 . S
O1487 C1481 1.268 . S
O1488 Sc1476 2.105 . S
O1488 C1482 1.268 . S
O1489 Sc1475 2.105 . S
O1489 C1483 1.268 . S
O1490 Sc1474 2.105 . S
O1490 C1482 1.268 . S
O1491 Sc1475 2.105 . S
O1491 C1481 1.268 . S
O1492 Sc1476 2.105 . S
O1492 C1483 1.268 . S
O1493 Sc1474 2.105 . S
O1493 C1479 1.268 . S
O1494 Sc1476 2.105 . S
O1494 C1478 1.268 . S
O1495 Sc1475 2.105 . S
O1495 C1480 1.268 . S
Sc1496 O1499 2.025 . S
Sc1496 O1506 2.105 . S
Sc1496 O1509 2.105 . S
Sc1496 O1512 2.105 . S
Sc1496 O1515 2.105 . S
Sc1497 O1499 2.025 . S
Sc1497 O1507 2.105 . S
Sc1497 O1511 2.105 . S
Sc1497 O1513 2.105 . S
Sc1497 O1517 2.105 . S
Sc1498 O1499 2.025 . S
Sc1498 O1508 2.105 . S
Sc1498 O1510 2.105 . S
Sc1498 O1514 2.105 . S
Sc1498 O1516 2.105 . S
O1499 Sc1496 2.025 . S
O1499 Sc1497 2.025 . S
O1499 Sc1498 2.025 . S
C1500 O1506 1.268 . S
C1500 O1516 1.268 . S
C1501 O1507 1.268 . S
C1501 O1515 1.268 . S
C1502 O1508 1.268 . S
C1502 O1517 1.268 . S
C1503 O1509 1.268 . S
C1503 O1513 1.268 . S
C1504 O1510 1.268 . S
C1504 O1512 1.268 . S
C1505 O1511 1.268 . S
C1505 O1514 1.268 . S
O1506 Sc1496 2.105 . S
O1506 C1500 1.268 . S
O1507 Sc1497 2.105 . S
O1507 C1501 1.268 . S
O1508 Sc1498 2.105 . S
O1508 C1502 1.268 . S
O1509 Sc1496 2.105 . S
O1509 C1503 1.268 . S
O1510 Sc1498 2.105 . S
O1510 C1504 1.268 . S
O1511 Sc1497 2.105 . S
O1511 C1505 1.268 . S
O1512 Sc1496 2.105 . S
O1512 C1504 1.268 . S
O1513 Sc1497 2.105 . S
O1513 C1503 1.268 . S
O1514 Sc1498 2.105 . S
O1514 C1505 1.268 . S
O1515 Sc1496 2.105 . S
O1515 C1501 1.268 . S
O1516 Sc1498 2.105 . S
O1516 C1500 1.268 . S
O1517 Sc1497 2.105 . S
O1517 C1502 1.268 . S
Sc1518 O1521 2.025 . S
Sc1518 O1528 2.105 . S
Sc1518 O1531 2.105 . S
Sc1518 O1534 2.105 . S
Sc1518 O1537 2.105 . S
Sc1519 O1521 2.025 . S
Sc1519 O1529 2.105 . S
Sc1519 O1533 2.105 . S
Sc1519 O1535 2.105 . S
Sc1519 O1539 2.105 . S
Sc1520 O1521 2.025 . S
Sc1520 O1530 2.105 . S
Sc1520 O1532 2.105 . S
Sc1520 O1536 2.105 . S
Sc1520 O1538 2.105 . S
O1521 Sc1518 2.025 . S
O1521 Sc1519 2.025 . S
O1521 Sc1520 2.025 . S
C1522 O1528 1.268 . S
C1522 O1538 1.268 . S
C1523 O1529 1.268 . S
C1523 O1537 1.268 . S
C1524 O1530 1.268 . S
C1524 O1539 1.268 . S
C1525 O1531 1.268 . S
C1525 O1535 1.268 . S
C1526 O1532 1.268 . S
C1526 O1534 1.268 . S
C1527 O1533 1.268 . S
C1527 O1536 1.268 . S
O1528 Sc1518 2.105 . S
O1528 C1522 1.268 . S
O1529 Sc1519 2.105 . S
O1529 C1523 1.268 . S
O1530 Sc1520 2.105 . S
O1530 C1524 1.268 . S
O1531 Sc1518 2.105 . S
O1531 C1525 1.268 . S
O1532 Sc1520 2.105 . S
O1532 C1526 1.268 . S
O1533 Sc1519 2.105 . S
O1533 C1527 1.268 . S
O1534 Sc1518 2.105 . S
O1534 C1526 1.268 . S
O1535 Sc1519 2.105 . S
O1535 C1525 1.268 . S
O1536 Sc1520 2.105 . S
O1536 C1527 1.268 . S
O1537 Sc1518 2.105 . S
O1537 C1523 1.268 . S
O1538 Sc1520 2.105 . S
O1538 C1522 1.268 . S
O1539 Sc1519 2.105 . S
O1539 C1524 1.268 . S
Sc1540 O1543 2.025 . S
Sc1540 O1550 2.105 1_545 S
Sc1540 O1553 2.105 . S
Sc1540 O1556 2.105 . S
Sc1540 O1559 2.105 . S
Sc1541 O1543 2.025 . S
Sc1541 O1551 2.105 . S
Sc1541 O1555 2.105 . S
Sc1541 O1557 2.105 . S
Sc1541 O1561 2.105 . S
Sc1542 O1543 2.025 . S
Sc1542 O1552 2.105 . S
Sc1542 O1554 2.105 . S
Sc1542 O1558 2.105 . S
Sc1542 O1560 2.105 1_545 S
O1543 Sc1540 2.025 . S
O1543 Sc1541 2.025 . S
O1543 Sc1542 2.025 . S
C1544 O1550 1.268 . S
C1544 O1560 1.268 . S
C1545 O1551 1.268 . S
C1545 O1559 1.268 . S
C1546 O1552 1.268 . S
C1546 O1561 1.268 . S
C1547 O1553 1.268 . S
C1547 O1557 1.268 . S
C1548 O1554 1.268 . S
C1548 O1556 1.268 . S
C1549 O1555 1.268 . S
C1549 O1558 1.268 . S
O1550 Sc1540 2.105 1_565 S
O1550 C1544 1.268 . S
O1551 Sc1541 2.105 . S
O1551 C1545 1.268 . S
O1552 Sc1542 2.105 . S
O1552 C1546 1.268 . S
O1553 Sc1540 2.105 . S
O1553 C1547 1.268 . S
O1554 Sc1542 2.105 . S
O1554 C1548 1.268 . S
O1555 Sc1541 2.105 . S
O1555 C1549 1.268 . S
O1556 Sc1540 2.105 . S
O1556 C1548 1.268 . S
O1557 Sc1541 2.105 . S
O1557 C1547 1.268 . S
O1558 Sc1542 2.105 . S
O1558 C1549 1.268 . S
O1559 Sc1540 2.105 . S
O1559 C1545 1.268 . S
O1560 Sc1542 2.105 1_565 S
O1560 C1544 1.268 . S
O1561 Sc1541 2.105 . S
O1561 C1546 1.268 . S
Sc1562 O1565 2.025 . S
Sc1562 O1572 2.105 1_565 S
Sc1562 O1575 2.105 . S
Sc1562 O1578 2.105 . S
Sc1562 O1581 2.105 . S
Sc1563 O1565 2.025 . S
Sc1563 O1573 2.105 . S
Sc1563 O1577 2.105 1_655 S
Sc1563 O1579 2.105 . S
Sc1563 O1583 2.105 1_655 S
Sc1564 O1565 2.025 . S
Sc1564 O1574 2.105 1_655 S
Sc1564 O1576 2.105 . S
Sc1564 O1580 2.105 1_655 S
Sc1564 O1582 2.105 1_565 S
O1565 Sc1562 2.025 . S
O1565 Sc1563 2.025 . S
O1565 Sc1564 2.025 . S
C1566 O1572 1.268 . S
C1566 O1582 1.268 . S
C1567 O1573 1.268 . S
C1567 O1581 1.268 . S
C1568 O1574 1.268 . S
C1568 O1583 1.268 . S
C1569 O1575 1.268 . S
C1569 O1579 1.268 . S
C1570 O1576 1.268 . S
C1570 O1578 1.268 . S
C1571 O1577 1.268 . S
C1571 O1580 1.268 . S
O1572 Sc1562 2.105 1_545 S
O1572 C1566 1.268 . S
O1573 Sc1563 2.105 . S
O1573 C1567 1.268 . S
O1574 Sc1564 2.105 1_455 S
O1574 C1568 1.268 . S
O1575 Sc1562 2.105 . S
O1575 C1569 1.268 . S
O1576 Sc1564 2.105 . S
O1576 C1570 1.268 . S
O1577 Sc1563 2.105 1_455 S
O1577 C1571 1.268 . S
O1578 Sc1562 2.105 . S
O1578 C1570 1.268 . S
O1579 Sc1563 2.105 . S
O1579 C1569 1.268 . S
O1580 Sc1564 2.105 1_455 S
O1580 C1571 1.268 . S
O1581 Sc1562 2.105 . S
O1581 C1567 1.268 . S
O1582 Sc1564 2.105 1_545 S
O1582 C1566 1.268 . S
O1583 Sc1563 2.105 1_455 S
O1583 C1568 1.268 . S
Sc1584 O1587 2.025 . S
Sc1584 O1594 2.105 . S
Sc1584 O1597 2.105 . S
Sc1584 O1600 2.105 . S
Sc1584 O1603 2.105 . S
Sc1585 O1587 2.025 . S
Sc1585 O1595 2.105 . S
Sc1585 O1599 2.105 . S
Sc1585 O1601 2.105 . S
Sc1585 O1605 2.105 . S
Sc1586 O1587 2.025 . S
Sc1586 O1596 2.105 . S
Sc1586 O1598 2.105 . S
Sc1586 O1602 2.105 . S
Sc1586 O1604 2.105 . S
O1587 Sc1584 2.025 . S
O1587 Sc1585 2.025 . S
O1587 Sc1586 2.025 . S
C1588 O1594 1.268 . S
C1588 O1604 1.268 . S
C1589 O1595 1.268 . S
C1589 O1603 1.268 . S
C1590 O1596 1.268 . S
C1590 O1605 1.268 . S
C1591 O1597 1.268 . S
C1591 O1601 1.268 . S
C1592 O1598 1.268 . S
C1592 O1600 1.268 . S
C1593 O1599 1.268 . S
C1593 O1602 1.268 . S
O1594 Sc1584 2.105 . S
O1594 C1588 1.268 . S
O1595 Sc1585 2.105 . S
O1595 C1589 1.268 . S
O1596 Sc1586 2.105 . S
O1596 C1590 1.268 . S
O1597 Sc1584 2.105 . S
O1597 C1591 1.268 . S
O1598 Sc1586 2.105 . S
O1598 C1592 1.268 . S
O1599 Sc1585 2.105 . S
O1599 C1593 1.268 . S
O1600 Sc1584 2.105 . S
O1600 C1592 1.268 . S
O1601 Sc1585 2.105 . S
O1601 C1591 1.268 . S
O1602 Sc1586 2.105 . S
O1602 C1593 1.268 . S
O1603 Sc1584 2.105 . S
O1603 C1589 1.268 . S
O1604 Sc1586 2.105 . S
O1604 C1588 1.268 . S
O1605 Sc1585 2.105 . S
O1605 C1590 1.268 . S
Sc1606 O1609 2.025 . S
Sc1606 O1616 2.105 . S
Sc1606 O1619 2.105 1_556 S
Sc1606 O1622 2.105 . S
Sc1606 O1625 2.105 1_556 S
Sc1607 O1609 2.025 . S
Sc1607 O1617 2.105 1_556 S
Sc1607 O1621 2.105 . S
Sc1607 O1623 2.105 1_556 S
Sc1607 O1627 2.105 . S
Sc1608 O1609 2.025 . S
Sc1608 O1618 2.105 . S
Sc1608 O1620 2.105 . S
Sc1608 O1624 2.105 . S
Sc1608 O1626 2.105 . S
O1609 Sc1606 2.025 . S
O1609 Sc1607 2.025 . S
O1609 Sc1608 2.025 . S
C1610 O1616 1.268 . S
C1610 O1626 1.268 . S
C1611 O1617 1.268 . S
C1611 O1625 1.268 . S
C1612 O1618 1.268 . S
C1612 O1627 1.268 . S
C1613 O1619 1.268 . S
C1613 O1623 1.268 . S
C1614 O1620 1.268 . S
C1614 O1622 1.268 . S
C1615 O1621 1.268 . S
C1615 O1624 1.268 . S
O1616 Sc1606 2.105 . S
O1616 C1610 1.268 . S
O1617 Sc1607 2.105 1_554 S
O1617 C1611 1.268 . S
O1618 Sc1608 2.105 . S
O1618 C1612 1.268 . S
O1619 Sc1606 2.105 1_554 S
O1619 C1613 1.268 . S
O1620 Sc1608 2.105 . S
O1620 C1614 1.268 . S
O1621 Sc1607 2.105 . S
O1621 C1615 1.268 . S
O1622 Sc1606 2.105 . S
O1622 C1614 1.268 . S
O1623 Sc1607 2.105 1_554 S
O1623 C1613 1.268 . S
O1624 Sc1608 2.105 . S
O1624 C1615 1.268 . S
O1625 Sc1606 2.105 1_554 S
O1625 C1611 1.268 . S
O1626 Sc1608 2.105 . S
O1626 C1610 1.268 . S
O1627 Sc1607 2.105 . S
O1627 C1612 1.268 . S
Sc1628 O1631 2.025 . S
Sc1628 O1638 2.105 . S
Sc1628 O1641 2.105 . S
Sc1628 O1644 2.105 . S
Sc1628 O1647 2.105 . S
Sc1629 O1631 2.025 . S
Sc1629 O1639 2.105 . S
Sc1629 O1643 2.105 . S
Sc1629 O1645 2.105 . S
Sc1629 O1649 2.105 . S
Sc1630 O1631 2.025 . S
Sc1630 O1640 2.105 . S
Sc1630 O1642 2.105 . S
Sc1630 O1646 2.105 . S
Sc1630 O1648 2.105 . S
O1631 Sc1628 2.025 . S
O1631 Sc1629 2.025 . S
O1631 Sc1630 2.025 . S
C1632 O1638 1.268 . S
C1632 O1648 1.268 . S
C1633 O1639 1.268 . S
C1633 O1647 1.268 . S
C1634 O1640 1.268 . S
C1634 O1649 1.268 . S
C1635 O1641 1.268 . S
C1635 O1645 1.268 . S
C1636 O1642 1.268 . S
C1636 O1644 1.268 . S
C1637 O1643 1.268 . S
C1637 O1646 1.268 . S
O1638 Sc1628 2.105 . S
O1638 C1632 1.268 . S
O1639 Sc1629 2.105 . S
O1639 C1633 1.268 . S
O1640 Sc1630 2.105 . S
O1640 C1634 1.268 . S
O1641 Sc1628 2.105 . S
O1641 C1635 1.268 . S
O1642 Sc1630 2.105 . S
O1642 C1636 1.268 . S
O1643 Sc1629 2.105 . S
O1643 C1637 1.268 . S
O1644 Sc1628 2.105 . S
O1644 C1636 1.268 . S
O1645 Sc1629 2.105 . S
O1645 C1635 1.268 . S
O1646 Sc1630 2.105 . S
O1646 C1637 1.268 . S
O1647 Sc1628 2.105 . S
O1647 C1633 1.268 . S
O1648 Sc1630 2.105 . S
O1648 C1632 1.268 . S
O1649 Sc1629 2.105 . S
O1649 C1634 1.268 . S
Sc1650 O1653 2.025 . S
Sc1650 O1660 2.105 . S
Sc1650 O1663 2.105 . S
Sc1650 O1666 2.105 1_455 S
Sc1650 O1669 2.105 . S
Sc1651 O1653 2.025 . S
Sc1651 O1661 2.105 . S
Sc1651 O1665 2.105 . S
Sc1651 O1667 2.105 . S
Sc1651 O1671 2.105 . S
Sc1652 O1653 2.025 . S
Sc1652 O1662 2.105 . S
Sc1652 O1664 2.105 1_455 S
Sc1652 O1668 2.105 . S
Sc1652 O1670 2.105 . S
O1653 Sc1650 2.025 . S
O1653 Sc1651 2.025 . S
O1653 Sc1652 2.025 . S
C1654 O1660 1.268 . S
C1654 O1670 1.268 . S
C1655 O1661 1.268 . S
C1655 O1669 1.268 . S
C1656 O1662 1.268 . S
C1656 O1671 1.268 . S
C1657 O1663 1.268 . S
C1657 O1667 1.268 . S
C1658 O1664 1.268 . S
C1658 O1666 1.268 . S
C1659 O1665 1.268 . S
C1659 O1668 1.268 . S
O1660 Sc1650 2.105 . S
O1660 C1654 1.268 . S
O1661 Sc1651 2.105 . S
O1661 C1655 1.268 . S
O1662 Sc1652 2.105 . S
O1662 C1656 1.268 . S
O1663 Sc1650 2.105 . S
O1663 C1657 1.268 . S
O1664 Sc1652 2.105 1_655 S
O1664 C1658 1.268 . S
O1665 Sc1651 2.105 . S
O1665 C1659 1.268 . S
O1666 Sc1650 2.105 1_655 S
O1666 C1658 1.268 . S
O1667 Sc1651 2.105 . S
O1667 C1657 1.268 . S
O1668 Sc1652 2.105 . S
O1668 C1659 1.268 . S
O1669 Sc1650 2.105 . S
O1669 C1655 1.268 . S
O1670 Sc1652 2.105 . S
O1670 C1654 1.268 . S
O1671 Sc1651 2.105 . S
O1671 C1656 1.268 . S
Sc1672 O1675 2.025 . S
Sc1672 O1682 2.105 . S
Sc1672 O1685 2.105 . S
Sc1672 O1688 2.105 . S
Sc1672 O1691 2.105 . S
Sc1673 O1675 2.025 . S
Sc1673 O1683 2.105 . S
Sc1673 O1687 2.105 . S
Sc1673 O1689 2.105 . S
Sc1673 O1693 2.105 . S
Sc1674 O1675 2.025 . S
Sc1674 O1684 2.105 . S
Sc1674 O1686 2.105 . S
Sc1674 O1690 2.105 . S
Sc1674 O1692 2.105 . S
O1675 Sc1672 2.025 . S
O1675 Sc1673 2.025 . S
O1675 Sc1674 2.025 . S
C1676 O1682 1.268 . S
C1676 O1692 1.268 . S
C1677 O1683 1.268 . S
C1677 O1691 1.268 . S
C1678 O1684 1.268 . S
C1678 O1693 1.268 . S
C1679 O1685 1.268 . S
C1679 O1689 1.268 . S
C1680 O1686 1.268 . S
C1680 O1688 1.268 . S
C1681 O1687 1.268 . S
C1681 O1690 1.268 . S
O1682 Sc1672 2.105 . S
O1682 C1676 1.268 . S
O1683 Sc1673 2.105 . S
O1683 C1677 1.268 . S
O1684 Sc1674 2.105 . S
O1684 C1678 1.268 . S
O1685 Sc1672 2.105 . S
O1685 C1679 1.268 . S
O1686 Sc1674 2.105 . S
O1686 C1680 1.268 . S
O1687 Sc1673 2.105 . S
O1687 C1681 1.268 . S
O1688 Sc1672 2.105 . S
O1688 C1680 1.268 . S
O1689 Sc1673 2.105 . S
O1689 C1679 1.268 . S
O1690 Sc1674 2.105 . S
O1690 C1681 1.268 . S
O1691 Sc1672 2.105 . S
O1691 C1677 1.268 . S
O1692 Sc1674 2.105 . S
O1692 C1676 1.268 . S
O1693 Sc1673 2.105 . S
O1693 C1678 1.268 . S
Sc1694 O1697 2.025 . S
Sc1694 O1704 2.105 1_455 S
Sc1694 O1707 2.105 1_554 S
Sc1694 O1710 2.105 . S
Sc1694 O1713 2.105 1_554 S
Sc1695 O1697 2.025 . S
Sc1695 O1705 2.105 1_554 S
Sc1695 O1709 2.105 . S
Sc1695 O1711 2.105 1_554 S
Sc1695 O1715 2.105 . S
Sc1696 O1697 2.025 . S
Sc1696 O1706 2.105 . S
Sc1696 O1708 2.105 . S
Sc1696 O1712 2.105 . S
Sc1696 O1714 2.105 1_455 S
O1697 Sc1694 2.025 . S
O1697 Sc1695 2.025 . S
O1697 Sc1696 2.025 . S
C1698 O1704 1.268 . S
C1698 O1714 1.268 . S
C1699 O1705 1.268 . S
C1699 O1713 1.268 . S
C1700 O1706 1.268 . S
C1700 O1715 1.268 . S
C1701 O1707 1.268 . S
C1701 O1711 1.268 . S
C1702 O1708 1.268 . S
C1702 O1710 1.268 . S
C1703 O1709 1.268 . S
C1703 O1712 1.268 . S
O1704 Sc1694 2.105 1_655 S
O1704 C1698 1.268 . S
O1705 Sc1695 2.105 1_556 S
O1705 C1699 1.268 . S
O1706 Sc1696 2.105 . S
O1706 C1700 1.268 . S
O1707 Sc1694 2.105 1_556 S
O1707 C1701 1.268 . S
O1708 Sc1696 2.105 . S
O1708 C1702 1.268 . S
O1709 Sc1695 2.105 . S
O1709 C1703 1.268 . S
O1710 Sc1694 2.105 . S
O1710 C1702 1.268 . S
O1711 Sc1695 2.105 1_556 S
O1711 C1701 1.268 . S
O1712 Sc1696 2.105 . S
O1712 C1703 1.268 . S
O1713 Sc1694 2.105 1_556 S
O1713 C1699 1.268 . S
O1714 Sc1696 2.105 1_655 S
O1714 C1698 1.268 . S
O1715 Sc1695 2.105 . S
O1715 C1700 1.268 . S
Sc1716 O1719 2.025 . S
Sc1716 O1726 2.105 . S
Sc1716 O1729 2.105 . S
Sc1716 O1732 2.105 . S
Sc1716 O1735 2.105 . S
Sc1717 O1719 2.025 . S
Sc1717 O1727 2.105 . S
Sc1717 O1731 2.105 . S
Sc1717 O1733 2.105 . S
Sc1717 O1737 2.105 . S
Sc1718 O1719 2.025 . S
Sc1718 O1728 2.105 . S
Sc1718 O1730 2.105 . S
Sc1718 O1734 2.105 . S
Sc1718 O1736 2.105 . S
O1719 Sc1716 2.025 . S
O1719 Sc1717 2.025 . S
O1719 Sc1718 2.025 . S
C1720 O1726 1.268 . S
C1720 O1736 1.268 . S
C1721 O1727 1.268 . S
C1721 O1735 1.268 . S
C1722 O1728 1.268 . S
C1722 O1737 1.268 . S
C1723 O1729 1.268 . S
C1723 O1733 1.268 . S
C1724 O1730 1.268 . S
C1724 O1732 1.268 . S
C1725 O1731 1.268 . S
C1725 O1734 1.268 . S
O1726 Sc1716 2.105 . S
O1726 C1720 1.268 . S
O1727 Sc1717 2.105 . S
O1727 C1721 1.268 . S
O1728 Sc1718 2.105 . S
O1728 C1722 1.268 . S
O1729 Sc1716 2.105 . S
O1729 C1723 1.268 . S
O1730 Sc1718 2.105 . S
O1730 C1724 1.268 . S
O1731 Sc1717 2.105 . S
O1731 C1725 1.268 . S
O1732 Sc1716 2.105 . S
O1732 C1724 1.268 . S
O1733 Sc1717 2.105 . S
O1733 C1723 1.268 . S
O1734 Sc1718 2.105 . S
O1734 C1725 1.268 . S
O1735 Sc1716 2.105 . S
O1735 C1721 1.268 . S
O1736 Sc1718 2.105 . S
O1736 C1720 1.268 . S
O1737 Sc1717 2.105 . S
O1737 C1722 1.268 . S
Sc1738 O1741 2.025 . S
Sc1738 O1748 2.105 . S
Sc1738 O1751 2.105 . S
Sc1738 O1754 2.105 . S
Sc1738 O1757 2.105 . S
Sc1739 O1741 2.025 . S
Sc1739 O1749 2.105 . S
Sc1739 O1753 2.105 . S
Sc1739 O1755 2.105 . S
Sc1739 O1759 2.105 . S
Sc1740 O1741 2.025 . S
Sc1740 O1750 2.105 . S
Sc1740 O1752 2.105 . S
Sc1740 O1756 2.105 . S
Sc1740 O1758 2.105 . S
O1741 Sc1738 2.025 . S
O1741 Sc1739 2.025 . S
O1741 Sc1740 2.025 . S
C1742 O1748 1.268 . S
C1742 O1758 1.268 . S
C1743 O1749 1.268 . S
C1743 O1757 1.268 . S
C1744 O1750 1.268 . S
C1744 O1759 1.268 . S
C1745 O1751 1.268 . S
C1745 O1755 1.268 . S
C1746 O1752 1.268 . S
C1746 O1754 1.268 . S
C1747 O1753 1.268 . S
C1747 O1756 1.268 . S
O1748 Sc1738 2.105 . S
O1748 C1742 1.268 . S
O1749 Sc1739 2.105 . S
O1749 C1743 1.268 . S
O1750 Sc1740 2.105 . S
O1750 C1744 1.268 . S
O1751 Sc1738 2.105 . S
O1751 C1745 1.268 . S
O1752 Sc1740 2.105 . S
O1752 C1746 1.268 . S
O1753 Sc1739 2.105 . S
O1753 C1747 1.268 . S
O1754 Sc1738 2.105 . S
O1754 C1746 1.268 . S
O1755 Sc1739 2.105 . S
O1755 C1745 1.268 . S
O1756 Sc1740 2.105 . S
O1756 C1747 1.268 . S
O1757 Sc1738 2.105 . S
O1757 C1743 1.268 . S
O1758 Sc1740 2.105 . S
O1758 C1742 1.268 . S
O1759 Sc1739 2.105 . S
O1759 C1744 1.268 . S
Sc1760 O1763 2.025 . S
Sc1760 O1770 2.105 . S
Sc1760 O1773 2.105 . S
Sc1760 O1776 2.105 . S
Sc1760 O1779 2.105 . S
Sc1761 O1763 2.025 . S
Sc1761 O1771 2.105 . S
Sc1761 O1775 2.105 . S
Sc1761 O1777 2.105 . S
Sc1761 O1781 2.105 . S
Sc1762 O1763 2.025 . S
Sc1762 O1772 2.105 . S
Sc1762 O1774 2.105 . S
Sc1762 O1778 2.105 . S
Sc1762 O1780 2.105 . S
O1763 Sc1760 2.025 . S
O1763 Sc1761 2.025 . S
O1763 Sc1762 2.025 . S
C1764 O1770 1.268 . S
C1764 O1780 1.268 . S
C1765 O1771 1.268 . S
C1765 O1779 1.268 . S
C1766 O1772 1.268 . S
C1766 O1781 1.268 . S
C1767 O1773 1.268 . S
C1767 O1777 1.268 . S
C1768 O1774 1.268 . S
C1768 O1776 1.268 . S
C1769 O1775 1.268 . S
C1769 O1778 1.268 . S
O1770 Sc1760 2.105 . S
O1770 C1764 1.268 . S
O1771 Sc1761 2.105 . S
O1771 C1765 1.268 . S
O1772 Sc1762 2.105 . S
O1772 C1766 1.268 . S
O1773 Sc1760 2.105 . S
O1773 C1767 1.268 . S
O1774 Sc1762 2.105 . S
O1774 C1768 1.268 . S
O1775 Sc1761 2.105 . S
O1775 C1769 1.268 . S
O1776 Sc1760 2.105 . S
O1776 C1768 1.268 . S
O1777 Sc1761 2.105 . S
O1777 C1767 1.268 . S
O1778 Sc1762 2.105 . S
O1778 C1769 1.268 . S
O1779 Sc1760 2.105 . S
O1779 C1765 1.268 . S
O1780 Sc1762 2.105 . S
O1780 C1764 1.268 . S
O1781 Sc1761 2.105 . S
O1781 C1766 1.268 . S
Sc1782 O1785 2.025 . S
Sc1782 O1792 2.105 1_554 S
Sc1782 O1795 2.105 . S
Sc1782 O1798 2.105 . S
Sc1782 O1801 2.105 . S
Sc1783 O1785 2.025 . S
Sc1783 O1793 2.105 . S
Sc1783 O1797 2.105 . S
Sc1783 O1799 2.105 . S
Sc1783 O1803 2.105 . S
Sc1784 O1785 2.025 . S
Sc1784 O1794 2.105 . S
Sc1784 O1796 2.105 . S
Sc1784 O1800 2.105 . S
Sc1784 O1802 2.105 1_554 S
O1785 Sc1782 2.025 . S
O1785 Sc1783 2.025 . S
O1785 Sc1784 2.025 . S
C1786 O1792 1.268 . S
C1786 O1802 1.268 . S
C1787 O1793 1.268 . S
C1787 O1801 1.268 . S
C1788 O1794 1.268 . S
C1788 O1803 1.268 . S
C1789 O1795 1.268 . S
C1789 O1799 1.268 . S
C1790 O1796 1.268 . S
C1790 O1798 1.268 . S
C1791 O1797 1.268 . S
C1791 O1800 1.268 . S
O1792 Sc1782 2.105 1_556 S
O1792 C1786 1.268 . S
O1793 Sc1783 2.105 . S
O1793 C1787 1.268 . S
O1794 Sc1784 2.105 . S
O1794 C1788 1.268 . S
O1795 Sc1782 2.105 . S
O1795 C1789 1.268 . S
O1796 Sc1784 2.105 . S
O1796 C1790 1.268 . S
O1797 Sc1783 2.105 . S
O1797 C1791 1.268 . S
O1798 Sc1782 2.105 . S
O1798 C1790 1.268 . S
O1799 Sc1783 2.105 . S
O1799 C1789 1.268 . S
O1800 Sc1784 2.105 . S
O1800 C1791 1.268 . S
O1801 Sc1782 2.105 . S
O1801 C1787 1.268 . S
O1802 Sc1784 2.105 1_556 S
O1802 C1786 1.268 . S
O1803 Sc1783 2.105 . S
O1803 C1788 1.268 . S
Sc1804 O1807 2.025 . S
Sc1804 O1814 2.105 . S
Sc1804 O1817 2.105 . S
Sc1804 O1820 2.105 . S
Sc1804 O1823 2.105 . S
Sc1805 O1807 2.025 . S
Sc1805 O1815 2.105 . S
Sc1805 O1819 2.105 . S
Sc1805 O1821 2.105 . S
Sc1805 O1825 2.105 . S
Sc1806 O1807 2.025 . S
Sc1806 O1816 2.105 . S
Sc1806 O1818 2.105 . S
Sc1806 O1822 2.105 . S
Sc1806 O1824 2.105 . S
O1807 Sc1804 2.025 . S
O1807 Sc1805 2.025 . S
O1807 Sc1806 2.025 . S
C1808 O1814 1.268 . S
C1808 O1824 1.268 . S
C1809 O1815 1.268 . S
C1809 O1823 1.268 . S
C1810 O1816 1.268 . S
C1810 O1825 1.268 . S
C1811 O1817 1.268 . S
C1811 O1821 1.268 . S
C1812 O1818 1.268 . S
C1812 O1820 1.268 . S
C1813 O1819 1.268 . S
C1813 O1822 1.268 . S
O1814 Sc1804 2.105 . S
O1814 C1808 1.268 . S
O1815 Sc1805 2.105 . S
O1815 C1809 1.268 . S
O1816 Sc1806 2.105 . S
O1816 C1810 1.268 . S
O1817 Sc1804 2.105 . S
O1817 C1811 1.268 . S
O1818 Sc1806 2.105 . S
O1818 C1812 1.268 . S
O1819 Sc1805 2.105 . S
O1819 C1813 1.268 . S
O1820 Sc1804 2.105 . S
O1820 C1812 1.268 . S
O1821 Sc1805 2.105 . S
O1821 C1811 1.268 . S
O1822 Sc1806 2.105 . S
O1822 C1813 1.268 . S
O1823 Sc1804 2.105 . S
O1823 C1809 1.268 . S
O1824 Sc1806 2.105 . S
O1824 C1808 1.268 . S
O1825 Sc1805 2.105 . S
O1825 C1810 1.268 . S
Sc1826 O1829 2.025 . S
Sc1826 O1836 2.105 . S
Sc1826 O1839 2.105 . S
Sc1826 O1842 2.105 . S
Sc1826 O1845 2.105 . S
Sc1827 O1829 2.025 . S
Sc1827 O1837 2.105 . S
Sc1827 O1841 2.105 . S
Sc1827 O1843 2.105 . S
Sc1827 O1847 2.105 . S
Sc1828 O1829 2.025 . S
Sc1828 O1838 2.105 . S
Sc1828 O1840 2.105 . S
Sc1828 O1844 2.105 . S
Sc1828 O1846 2.105 . S
O1829 Sc1826 2.025 . S
O1829 Sc1827 2.025 . S
O1829 Sc1828 2.025 . S
C1830 O1836 1.268 . S
C1830 O1846 1.268 . S
C1831 O1837 1.268 . S
C1831 O1845 1.268 . S
C1832 O1838 1.268 . S
C1832 O1847 1.268 . S
C1833 O1839 1.268 . S
C1833 O1843 1.268 . S
C1834 O1840 1.268 . S
C1834 O1842 1.268 . S
C1835 O1841 1.268 . S
C1835 O1844 1.268 . S
O1836 Sc1826 2.105 . S
O1836 C1830 1.268 . S
O1837 Sc1827 2.105 . S
O1837 C1831 1.268 . S
O1838 Sc1828 2.105 . S
O1838 C1832 1.268 . S
O1839 Sc1826 2.105 . S
O1839 C1833 1.268 . S
O1840 Sc1828 2.105 . S
O1840 C1834 1.268 . S
O1841 Sc1827 2.105 . S
O1841 C1835 1.268 . S
O1842 Sc1826 2.105 . S
O1842 C1834 1.268 . S
O1843 Sc1827 2.105 . S
O1843 C1833 1.268 . S
O1844 Sc1828 2.105 . S
O1844 C1835 1.268 . S
O1845 Sc1826 2.105 . S
O1845 C1831 1.268 . S
O1846 Sc1828 2.105 . S
O1846 C1830 1.268 . S
O1847 Sc1827 2.105 . S
O1847 C1832 1.268 . S
Sc1848 O1851 2.025 . S
Sc1848 O1858 2.105 . S
Sc1848 O1861 2.105 . S
Sc1848 O1864 2.105 . S
Sc1848 O1867 2.105 . S
Sc1849 O1851 2.025 . S
Sc1849 O1859 2.105 . S
Sc1849 O1863 2.105 . S
Sc1849 O1865 2.105 . S
Sc1849 O1869 2.105 . S
Sc1850 O1851 2.025 . S
Sc1850 O1860 2.105 . S
Sc1850 O1862 2.105 . S
Sc1850 O1866 2.105 . S
Sc1850 O1868 2.105 . S
O1851 Sc1848 2.025 . S
O1851 Sc1849 2.025 . S
O1851 Sc1850 2.025 . S
C1852 O1858 1.268 . S
C1852 O1868 1.268 . S
C1853 O1859 1.268 . S
C1853 O1867 1.268 . S
C1854 O1860 1.268 . S
C1854 O1869 1.268 . S
C1855 O1861 1.268 . S
C1855 O1865 1.268 . S
C1856 O1862 1.268 . S
C1856 O1864 1.268 . S
C1857 O1863 1.268 . S
C1857 O1866 1.268 . S
O1858 Sc1848 2.105 . S
O1858 C1852 1.268 . S
O1859 Sc1849 2.105 . S
O1859 C1853 1.268 . S
O1860 Sc1850 2.105 . S
O1860 C1854 1.268 . S
O1861 Sc1848 2.105 . S
O1861 C1855 1.268 . S
O1862 Sc1850 2.105 . S
O1862 C1856 1.268 . S
O1863 Sc1849 2.105 . S
O1863 C1857 1.268 . S
O1864 Sc1848 2.105 . S
O1864 C1856 1.268 . S
O1865 Sc1849 2.105 . S
O1865 C1855 1.268 . S
O1866 Sc1850 2.105 . S
O1866 C1857 1.268 . S
O1867 Sc1848 2.105 . S
O1867 C1853 1.268 . S
O1868 Sc1850 2.105 . S
O1868 C1852 1.268 . S
O1869 Sc1849 2.105 . S
O1869 C1854 1.268 . S
Sc1870 O1873 2.025 . S
Sc1870 O1880 2.105 . S
Sc1870 O1883 2.105 . S
Sc1870 O1886 2.105 1_556 S
Sc1870 O1889 2.105 . S
Sc1871 O1873 2.025 . S
Sc1871 O1881 2.105 . S
Sc1871 O1885 2.105 . S
Sc1871 O1887 2.105 . S
Sc1871 O1891 2.105 . S
Sc1872 O1873 2.025 . S
Sc1872 O1882 2.105 . S
Sc1872 O1884 2.105 1_556 S
Sc1872 O1888 2.105 . S
Sc1872 O1890 2.105 . S
O1873 Sc1870 2.025 . S
O1873 Sc1871 2.025 . S
O1873 Sc1872 2.025 . S
C1874 O1880 1.268 . S
C1874 O1890 1.268 . S
C1875 O1881 1.268 . S
C1875 O1889 1.268 . S
C1876 O1882 1.268 . S
C1876 O1891 1.268 . S
C1877 O1883 1.268 . S
C1877 O1887 1.268 . S
C1878 O1884 1.268 . S
C1878 O1886 1.268 . S
C1879 O1885 1.268 . S
C1879 O1888 1.268 . S
O1880 Sc1870 2.105 . S
O1880 C1874 1.268 . S
O1881 Sc1871 2.105 . S
O1881 C1875 1.268 . S
O1882 Sc1872 2.105 . S
O1882 C1876 1.268 . S
O1883 Sc1870 2.105 . S
O1883 C1877 1.268 . S
O1884 Sc1872 2.105 1_554 S
O1884 C1878 1.268 . S
O1885 Sc1871 2.105 . S
O1885 C1879 1.268 . S
O1886 Sc1870 2.105 1_554 S
O1886 C1878 1.268 . S
O1887 Sc1871 2.105 . S
O1887 C1877 1.268 . S
O1888 Sc1872 2.105 . S
O1888 C1879 1.268 . S
O1889 Sc1870 2.105 . S
O1889 C1875 1.268 . S
O1890 Sc1872 2.105 . S
O1890 C1874 1.268 . S
O1891 Sc1871 2.105 . S
O1891 C1876 1.268 . S
Sc1892 O1895 2.025 . S
Sc1892 O1902 2.105 . S
Sc1892 O1905 2.105 . S
Sc1892 O1908 2.105 . S
Sc1892 O1911 2.105 . S
Sc1893 O1895 2.025 . S
Sc1893 O1903 2.105 . S
Sc1893 O1907 2.105 . S
Sc1893 O1909 2.105 . S
Sc1893 O1913 2.105 . S
Sc1894 O1895 2.025 . S
Sc1894 O1904 2.105 . S
Sc1894 O1906 2.105 . S
Sc1894 O1910 2.105 . S
Sc1894 O1912 2.105 . S
O1895 Sc1892 2.025 . S
O1895 Sc1893 2.025 . S
O1895 Sc1894 2.025 . S
C1896 O1902 1.268 . S
C1896 O1912 1.268 . S
C1897 O1903 1.268 . S
C1897 O1911 1.268 . S
C1898 O1904 1.268 . S
C1898 O1913 1.268 . S
C1899 O1905 1.268 . S
C1899 O1909 1.268 . S
C1900 O1906 1.268 . S
C1900 O1908 1.268 . S
C1901 O1907 1.268 . S
C1901 O1910 1.268 . S
O1902 Sc1892 2.105 . S
O1902 C1896 1.268 . S
O1903 Sc1893 2.105 . S
O1903 C1897 1.268 . S
O1904 Sc1894 2.105 . S
O1904 C1898 1.268 . S
O1905 Sc1892 2.105 . S
O1905 C1899 1.268 . S
O1906 Sc1894 2.105 . S
O1906 C1900 1.268 . S
O1907 Sc1893 2.105 . S
O1907 C1901 1.268 . S
O1908 Sc1892 2.105 . S
O1908 C1900 1.268 . S
O1909 Sc1893 2.105 . S
O1909 C1899 1.268 . S
O1910 Sc1894 2.105 . S
O1910 C1901 1.268 . S
O1911 Sc1892 2.105 . S
O1911 C1897 1.268 . S
O1912 Sc1894 2.105 . S
O1912 C1896 1.268 . S
O1913 Sc1893 2.105 . S
O1913 C1898 1.268 . S
Sc1914 O1917 2.025 . S
Sc1914 O1924 2.105 . S
Sc1914 O1927 2.105 . S
Sc1914 O1930 2.105 . S
Sc1914 O1933 2.105 . S
Sc1915 O1917 2.025 . S
Sc1915 O1925 2.105 . S
Sc1915 O1929 2.105 . S
Sc1915 O1931 2.105 . S
Sc1915 O1935 2.105 . S
Sc1916 O1917 2.025 . S
Sc1916 O1926 2.105 . S
Sc1916 O1928 2.105 . S
Sc1916 O1932 2.105 . S
Sc1916 O1934 2.105 . S
O1917 Sc1914 2.025 . S
O1917 Sc1915 2.025 . S
O1917 Sc1916 2.025 . S
C1918 O1924 1.268 . S
C1918 O1934 1.268 . S
C1919 O1925 1.268 . S
C1919 O1933 1.268 . S
C1920 O1926 1.268 . S
C1920 O1935 1.268 . S
C1921 O1927 1.268 . S
C1921 O1931 1.268 . S
C1922 O1928 1.268 . S
C1922 O1930 1.268 . S
C1923 O1929 1.268 . S
C1923 O1932 1.268 . S
O1924 Sc1914 2.105 . S
O1924 C1918 1.268 . S
O1925 Sc1915 2.105 . S
O1925 C1919 1.268 . S
O1926 Sc1916 2.105 . S
O1926 C1920 1.268 . S
O1927 Sc1914 2.105 . S
O1927 C1921 1.268 . S
O1928 Sc1916 2.105 . S
O1928 C1922 1.268 . S
O1929 Sc1915 2.105 . S
O1929 C1923 1.268 . S
O1930 Sc1914 2.105 . S
O1930 C1922 1.268 . S
O1931 Sc1915 2.105 . S
O1931 C1921 1.268 . S
O1932 Sc1916 2.105 . S
O1932 C1923 1.268 . S
O1933 Sc1914 2.105 . S
O1933 C1919 1.268 . S
O1934 Sc1916 2.105 . S
O1934 C1918 1.268 . S
O1935 Sc1915 2.105 . S
O1935 C1920 1.268 . S
Sc1936 O1939 2.025 . S
Sc1936 O1946 2.105 . S
Sc1936 O1949 2.105 . S
Sc1936 O1952 2.105 . S
Sc1936 O1955 2.105 . S
Sc1937 O1939 2.025 . S
Sc1937 O1947 2.105 . S
Sc1937 O1951 2.105 . S
Sc1937 O1953 2.105 . S
Sc1937 O1957 2.105 . S
Sc1938 O1939 2.025 . S
Sc1938 O1948 2.105 . S
Sc1938 O1950 2.105 . S
Sc1938 O1954 2.105 . S
Sc1938 O1956 2.105 . S
O1939 Sc1936 2.025 . S
O1939 Sc1937 2.025 . S
O1939 Sc1938 2.025 . S
C1940 O1946 1.268 . S
C1940 O1956 1.268 . S
C1941 O1947 1.268 . S
C1941 O1955 1.268 . S
C1942 O1948 1.268 . S
C1942 O1957 1.268 . S
C1943 O1949 1.268 . S
C1943 O1953 1.268 . S
C1944 O1950 1.268 . S
C1944 O1952 1.268 . S
C1945 O1951 1.268 . S
C1945 O1954 1.268 . S
O1946 Sc1936 2.105 . S
O1946 C1940 1.268 . S
O1947 Sc1937 2.105 . S
O1947 C1941 1.268 . S
O1948 Sc1938 2.105 . S
O1948 C1942 1.268 . S
O1949 Sc1936 2.105 . S
O1949 C1943 1.268 . S
O1950 Sc1938 2.105 . S
O1950 C1944 1.268 . S
O1951 Sc1937 2.105 . S
O1951 C1945 1.268 . S
O1952 Sc1936 2.105 . S
O1952 C1944 1.268 . S
O1953 Sc1937 2.105 . S
O1953 C1943 1.268 . S
O1954 Sc1938 2.105 . S
O1954 C1945 1.268 . S
O1955 Sc1936 2.105 . S
O1955 C1941 1.268 . S
O1956 Sc1938 2.105 . S
O1956 C1940 1.268 . S
O1957 Sc1937 2.105 . S
O1957 C1942 1.268 . S
Sc1958 O1961 2.025 . S
Sc1958 O1968 2.105 . S
Sc1958 O1971 2.105 . S
Sc1958 O1974 2.105 . S
Sc1958 O1977 2.105 . S
Sc1959 O1961 2.025 . S
Sc1959 O1969 2.105 . S
Sc1959 O1973 2.105 . S
Sc1959 O1975 2.105 . S
Sc1959 O1979 2.105 . S
Sc1960 O1961 2.025 . S
Sc1960 O1970 2.105 . S
Sc1960 O1972 2.105 . S
Sc1960 O1976 2.105 . S
Sc1960 O1978 2.105 . S
O1961 Sc1958 2.025 . S
O1961 Sc1959 2.025 . S
O1961 Sc1960 2.025 . S
C1962 O1968 1.268 . S
C1962 O1978 1.268 . S
C1963 O1969 1.268 . S
C1963 O1977 1.268 . S
C1964 O1970 1.268 . S
C1964 O1979 1.268 . S
C1965 O1971 1.268 . S
C1965 O1975 1.268 . S
C1966 O1972 1.268 . S
C1966 O1974 1.268 . S
C1967 O1973 1.268 . S
C1967 O1976 1.268 . S
O1968 Sc1958 2.105 . S
O1968 C1962 1.268 . S
O1969 Sc1959 2.105 . S
O1969 C1963 1.268 . S
O1970 Sc1960 2.105 . S
O1970 C1964 1.268 . S
O1971 Sc1958 2.105 . S
O1971 C1965 1.268 . S
O1972 Sc1960 2.105 . S
O1972 C1966 1.268 . S
O1973 Sc1959 2.105 . S
O1973 C1967 1.268 . S
O1974 Sc1958 2.105 . S
O1974 C1966 1.268 . S
O1975 Sc1959 2.105 . S
O1975 C1965 1.268 . S
O1976 Sc1960 2.105 . S
O1976 C1967 1.268 . S
O1977 Sc1958 2.105 . S
O1977 C1963 1.268 . S
O1978 Sc1960 2.105 . S
O1978 C1962 1.268 . S
O1979 Sc1959 2.105 . S
O1979 C1964 1.268 . S
Sc1980 O1983 2.025 . S
Sc1980 O1990 2.105 . S
Sc1980 O1993 2.105 . S
Sc1980 O1996 2.105 1_545 S
Sc1980 O1999 2.105 . S
Sc1981 O1983 2.025 . S
Sc1981 O1991 2.105 . S
Sc1981 O1995 2.105 . S
Sc1981 O1997 2.105 . S
Sc1981 O2001 2.105 . S
Sc1982 O1983 2.025 . S
Sc1982 O1992 2.105 . S
Sc1982 O1994 2.105 1_545 S
Sc1982 O1998 2.105 . S
Sc1982 O2000 2.105 . S
O1983 Sc1980 2.025 . S
O1983 Sc1981 2.025 . S
O1983 Sc1982 2.025 . S
C1984 O1990 1.268 . S
C1984 O2000 1.268 . S
C1985 O1991 1.268 . S
C1985 O1999 1.268 . S
C1986 O1992 1.268 . S
C1986 O2001 1.268 . S
C1987 O1993 1.268 . S
C1987 O1997 1.268 . S
C1988 O1994 1.268 . S
C1988 O1996 1.268 . S
C1989 O1995 1.268 . S
C1989 O1998 1.268 . S
O1990 Sc1980 2.105 . S
O1990 C1984 1.268 . S
O1991 Sc1981 2.105 . S
O1991 C1985 1.268 . S
O1992 Sc1982 2.105 . S
O1992 C1986 1.268 . S
O1993 Sc1980 2.105 . S
O1993 C1987 1.268 . S
O1994 Sc1982 2.105 1_565 S
O1994 C1988 1.268 . S
O1995 Sc1981 2.105 . S
O1995 C1989 1.268 . S
O1996 Sc1980 2.105 1_565 S
O1996 C1988 1.268 . S
O1997 Sc1981 2.105 . S
O1997 C1987 1.268 . S
O1998 Sc1982 2.105 . S
O1998 C1989 1.268 . S
O1999 Sc1980 2.105 . S
O1999 C1985 1.268 . S
O2000 Sc1982 2.105 . S
O2000 C1984 1.268 . S
O2001 Sc1981 2.105 . S
O2001 C1986 1.268 . S
Sc2002 O2005 2.025 . S
Sc2002 O2012 2.105 . S
Sc2002 O2015 2.105 . S
Sc2002 O2018 2.105 . S
Sc2002 O2021 2.105 . S
Sc2003 O2005 2.025 . S
Sc2003 O2013 2.105 . S
Sc2003 O2017 2.105 . S
Sc2003 O2019 2.105 . S
Sc2003 O2023 2.105 . S
Sc2004 O2005 2.025 . S
Sc2004 O2014 2.105 . S
Sc2004 O2016 2.105 . S
Sc2004 O2020 2.105 . S
Sc2004 O2022 2.105 . S
O2005 Sc2002 2.025 . S
O2005 Sc2003 2.025 . S
O2005 Sc2004 2.025 . S
C2006 O2012 1.268 . S
C2006 O2022 1.268 . S
C2007 O2013 1.268 . S
C2007 O2021 1.268 . S
C2008 O2014 1.268 . S
C2008 O2023 1.268 . S
C2009 O2015 1.268 . S
C2009 O2019 1.268 . S
C2010 O2016 1.268 . S
C2010 O2018 1.268 . S
C2011 O2017 1.268 . S
C2011 O2020 1.268 . S
O2012 Sc2002 2.105 . S
O2012 C2006 1.268 . S
O2013 Sc2003 2.105 . S
O2013 C2007 1.268 . S
O2014 Sc2004 2.105 . S
O2014 C2008 1.268 . S
O2015 Sc2002 2.105 . S
O2015 C2009 1.268 . S
O2016 Sc2004 2.105 . S
O2016 C2010 1.268 . S
O2017 Sc2003 2.105 . S
O2017 C2011 1.268 . S
O2018 Sc2002 2.105 . S
O2018 C2010 1.268 . S
O2019 Sc2003 2.105 . S
O2019 C2009 1.268 . S
O2020 Sc2004 2.105 . S
O2020 C2011 1.268 . S
O2021 Sc2002 2.105 . S
O2021 C2007 1.268 . S
O2022 Sc2004 2.105 . S
O2022 C2006 1.268 . S
O2023 Sc2003 2.105 . S
O2023 C2008 1.268 . S
Sc2024 O2027 2.025 . S
Sc2024 O2034 2.105 . S
Sc2024 O2037 2.105 . S
Sc2024 O2040 2.105 . S
Sc2024 O2043 2.105 . S
Sc2025 O2027 2.025 . S
Sc2025 O2035 2.105 . S
Sc2025 O2039 2.105 . S
Sc2025 O2041 2.105 . S
Sc2025 O2045 2.105 . S
Sc2026 O2027 2.025 . S
Sc2026 O2036 2.105 . S
Sc2026 O2038 2.105 . S
Sc2026 O2042 2.105 . S
Sc2026 O2044 2.105 . S
O2027 Sc2024 2.025 . S
O2027 Sc2025 2.025 . S
O2027 Sc2026 2.025 . S
C2028 O2034 1.268 . S
C2028 O2044 1.268 . S
C2029 O2035 1.268 . S
C2029 O2043 1.268 . S
C2030 O2036 1.268 . S
C2030 O2045 1.268 . S
C2031 O2037 1.268 . S
C2031 O2041 1.268 . S
C2032 O2038 1.268 . S
C2032 O2040 1.268 . S
C2033 O2039 1.268 . S
C2033 O2042 1.268 . S
O2034 Sc2024 2.105 . S
O2034 C2028 1.268 . S
O2035 Sc2025 2.105 . S
O2035 C2029 1.268 . S
O2036 Sc2026 2.105 . S
O2036 C2030 1.268 . S
O2037 Sc2024 2.105 . S
O2037 C2031 1.268 . S
O2038 Sc2026 2.105 . S
O2038 C2032 1.268 . S
O2039 Sc2025 2.105 . S
O2039 C2033 1.268 . S
O2040 Sc2024 2.105 . S
O2040 C2032 1.268 . S
O2041 Sc2025 2.105 . S
O2041 C2031 1.268 . S
O2042 Sc2026 2.105 . S
O2042 C2033 1.268 . S
O2043 Sc2024 2.105 . S
O2043 C2029 1.268 . S
O2044 Sc2026 2.105 . S
O2044 C2028 1.268 . S
O2045 Sc2025 2.105 . S
O2045 C2030 1.268 . S
Sc2046 O2049 2.025 . S
Sc2046 O2056 2.105 . S
Sc2046 O2059 2.105 . S
Sc2046 O2062 2.105 . S
Sc2046 O2065 2.105 . S
Sc2047 O2049 2.025 . S
Sc2047 O2057 2.105 . S
Sc2047 O2061 2.105 . S
Sc2047 O2063 2.105 . S
Sc2047 O2067 2.105 . S
Sc2048 O2049 2.025 . S
Sc2048 O2058 2.105 . S
Sc2048 O2060 2.105 . S
Sc2048 O2064 2.105 . S
Sc2048 O2066 2.105 . S
O2049 Sc2046 2.025 . S
O2049 Sc2047 2.025 . S
O2049 Sc2048 2.025 . S
C2050 O2056 1.268 . S
C2050 O2066 1.268 . S
C2051 O2057 1.268 . S
C2051 O2065 1.268 . S
C2052 O2058 1.268 . S
C2052 O2067 1.268 . S
C2053 O2059 1.268 . S
C2053 O2063 1.268 . S
C2054 O2060 1.268 . S
C2054 O2062 1.268 . S
C2055 O2061 1.268 . S
C2055 O2064 1.268 . S
O2056 Sc2046 2.105 . S
O2056 C2050 1.268 . S
O2057 Sc2047 2.105 . S
O2057 C2051 1.268 . S
O2058 Sc2048 2.105 . S
O2058 C2052 1.268 . S
O2059 Sc2046 2.105 . S
O2059 C2053 1.268 . S
O2060 Sc2048 2.105 . S
O2060 C2054 1.268 . S
O2061 Sc2047 2.105 . S
O2061 C2055 1.268 . S
O2062 Sc2046 2.105 . S
O2062 C2054 1.268 . S
O2063 Sc2047 2.105 . S
O2063 C2053 1.268 . S
O2064 Sc2048 2.105 . S
O2064 C2055 1.268 . S
O2065 Sc2046 2.105 . S
O2065 C2051 1.268 . S
O2066 Sc2048 2.105 . S
O2066 C2050 1.268 . S
O2067 Sc2047 2.105 . S
O2067 C2052 1.268 . S
Sc2068 O2071 2.025 . S
Sc2068 O2078 2.105 . S
Sc2068 O2081 2.105 . S
Sc2068 O2084 2.105 1_565 S
Sc2068 O2087 2.105 . S
Sc2069 O2071 2.025 . S
Sc2069 O2079 2.105 . S
Sc2069 O2083 2.105 . S
Sc2069 O2085 2.105 . S
Sc2069 O2089 2.105 . S
Sc2070 O2071 2.025 . S
Sc2070 O2080 2.105 . S
Sc2070 O2082 2.105 1_565 S
Sc2070 O2086 2.105 . S
Sc2070 O2088 2.105 . S
O2071 Sc2068 2.025 . S
O2071 Sc2069 2.025 . S
O2071 Sc2070 2.025 . S
C2072 O2078 1.268 . S
C2072 O2088 1.268 . S
C2073 O2079 1.268 . S
C2073 O2087 1.268 . S
C2074 O2080 1.268 . S
C2074 O2089 1.268 . S
C2075 O2081 1.268 . S
C2075 O2085 1.268 . S
C2076 O2082 1.268 . S
C2076 O2084 1.268 . S
C2077 O2083 1.268 . S
C2077 O2086 1.268 . S
O2078 Sc2068 2.105 . S
O2078 C2072 1.268 . S
O2079 Sc2069 2.105 . S
O2079 C2073 1.268 . S
O2080 Sc2070 2.105 . S
O2080 C2074 1.268 . S
O2081 Sc2068 2.105 . S
O2081 C2075 1.268 . S
O2082 Sc2070 2.105 1_545 S
O2082 C2076 1.268 . S
O2083 Sc2069 2.105 . S
O2083 C2077 1.268 . S
O2084 Sc2068 2.105 1_545 S
O2084 C2076 1.268 . S
O2085 Sc2069 2.105 . S
O2085 C2075 1.268 . S
O2086 Sc2070 2.105 . S
O2086 C2077 1.268 . S
O2087 Sc2068 2.105 . S
O2087 C2073 1.268 . S
O2088 Sc2070 2.105 . S
O2088 C2072 1.268 . S
O2089 Sc2069 2.105 . S
O2089 C2074 1.268 . S
Sc2090 O2093 2.025 . S
Sc2090 O2100 2.105 1_545 S
Sc2090 O2103 2.105 1_455 S
Sc2090 O2106 2.105 . S
Sc2090 O2109 2.105 1_455 S
Sc2091 O2093 2.025 . S
Sc2091 O2101 2.105 1_455 S
Sc2091 O2105 2.105 . S
Sc2091 O2107 2.105 1_455 S
Sc2091 O2111 2.105 . S
Sc2092 O2093 2.025 . S
Sc2092 O2102 2.105 . S
Sc2092 O2104 2.105 . S
Sc2092 O2108 2.105 . S
Sc2092 O2110 2.105 1_545 S
O2093 Sc2090 2.025 . S
O2093 Sc2091 2.025 . S
O2093 Sc2092 2.025 . S
C2094 O2100 1.268 . S
C2094 O2110 1.268 . S
C2095 O2101 1.268 . S
C2095 O2109 1.268 . S
C2096 O2102 1.268 . S
C2096 O2111 1.268 . S
C2097 O2103 1.268 . S
C2097 O2107 1.268 . S
C2098 O2104 1.268 . S
C2098 O2106 1.268 . S
C2099 O2105 1.268 . S
C2099 O2108 1.268 . S
O2100 Sc2090 2.105 1_565 S
O2100 C2094 1.268 . S
O2101 Sc2091 2.105 1_655 S
O2101 C2095 1.268 . S
O2102 Sc2092 2.105 . S
O2102 C2096 1.268 . S
O2103 Sc2090 2.105 1_655 S
O2103 C2097 1.268 . S
O2104 Sc2092 2.105 . S
O2104 C2098 1.268 . S
O2105 Sc2091 2.105 . S
O2105 C2099 1.268 . S
O2106 Sc2090 2.105 . S
O2106 C2098 1.268 . S
O2107 Sc2091 2.105 1_655 S
O2107 C2097 1.268 . S
O2108 Sc2092 2.105 . S
O2108 C2099 1.268 . S
O2109 Sc2090 2.105 1_655 S
O2109 C2095 1.268 . S
O2110 Sc2092 2.105 1_565 S
O2110 C2094 1.268 . S
O2111 Sc2091 2.105 . S
O2111 C2096 1.268 . S
C357 C7 1.381 . S
C1571 C29 1.381 . S
C471 C51 1.381 . S
C1549 C72 1.381 . S
C1439 C94 1.381 . S
C1457 C117 1.381 . S
C1479 C139 1.381 . S
C160 C449 1.381 . S
C5 C183 1.381 . S
C27 C204 1.381 . S
C49 C227 1.381 . S
C75 C249 1.381 . S
C97 C270 1.381 . S
C292 C115 1.381 . S
C314 C137 1.381 . S
C336 C163 1.381 . S
C181 C359 1.381 . S
C1329 C380 1.381 . S
C403 C1351 1.381 . S
C425 C1373 1.381 . S
C446 C339 1.381 . S
C468 C225 1.381 . S
C1303 C490 1.381 . S
C1263 C512 1.381 . S
C533 C887 1.381 . S
C555 C2097 1.381 . S
C581 C996 1.381 . S
C2074 C603 1.381 . S
C1964 C621 1.381 . S
C643 C1986 1.381 . S
C2009 C665 1.381 . S
C974 C691 1.381 . S
C535 C709 1.381 . S
C557 C731 1.381 . S
C753 C578 1.381 . S
C775 C600 1.381 . S
C623 C801 1.381 . S
C823 C645 1.381 . S
C845 C667 1.381 . S
C688 C863 1.381 . S
C885 C711 1.381 . S
C1854 C911 1.381 . S
C933 C1876 1.381 . S
C951 C1898 1.381 . S
C865 C977 1.381 . S
C755 C999 1.381 . S
C1833 C1021 1.381 . S
C1039 C1789 1.381 . S
C1413 C1063 1.381 . S
C1085 C515 1.381 . S
C1107 C1527 1.381 . S
C493 C1128 1.381 . S
C383 C1150 1.381 . S
C1173 C401 1.381 . S
C1195 C423 1.381 . S
C1216 C1505 1.381 . S
C1061 C1239 1.381 . S
C1260 C1083 1.381 . S
C1105 C1283 1.381 . S
C1131 C1305 1.381 . S
C1326 C1153 1.381 . S
C1171 C1348 1.381 . S
C1193 C1370 1.381 . S
C1392 C1219 1.381 . S
C1237 C1415 1.381 . S
C273 C1436 1.381 . S
C1459 C295 1.381 . S
C317 C1481 1.381 . S
C1502 C1395 1.381 . S
C1524 C1281 1.381 . S
C1546 C247 1.381 . S
C1568 C207 1.381 . S
C1943 C1589 1.381 . S
C1611 C1041 1.381 . S
C1637 C2052 1.381 . S
C1659 C1018 1.381 . S
C1677 C908 1.381 . S
C930 C1699 1.381 . S
C953 C1721 1.381 . S
C1747 C2030 1.381 . S
C1765 C1591 1.381 . S
C1613 C1787 1.381 . S
C1634 C1809 1.381 . S
C1831 C1656 1.381 . S
C1857 C1679 1.381 . S
C1879 C1701 1.381 . S
C1723 C1901 1.381 . S
C1744 C1919 1.381 . S
C1767 C1941 1.381 . S
C1967 C798 1.381 . S
C1989 C820 1.381 . S
C2007 C842 1.381 . S
C1921 C2033 1.381 . S
C1811 C2055 1.381 . S
C777 C2077 1.381 . S
C2095 C733 1.381 . S
C1109 C9 2.606 1_655 S
C1127 C31 2.606 1_655 S
C1065 C53 2.606 . S
C71 C1087 2.606 . S
C1197 C93 2.606 1_655 S
C1215 C119 2.606 . S
C1149 C141 2.606 . S
C1175 C159 2.606 1_655 S
C269 C185 2.606 1_565 S
C291 C203 2.606 . S
C229 C313 2.606 1_565 S
C251 C335 2.606 1_556 S
C1483 C361 2.606 1_556 S
C1523 C379 2.606 1_554 S
C405 C489 2.606 . S
C1417 C427 2.606 . S
C1567 C445 2.606 1_565 S
C467 C1435 2.606 . S
C511 C1501 2.606 . S
C1635 C534 2.606 1_455 S
C556 C1657 2.606 1_655 S
C579 C1590 2.606 . S
C601 C1612 2.606 . S
C1722 C622 2.606 1_455 S
C644 C1745 2.606 . S
C666 C1678 2.606 . S
C689 C1700 2.606 1_655 S
C710 C799 2.606 1_565 S
C732 C821 2.606 . S
C843 C754 2.606 1_565 S
C864 C776 2.606 1_556 S
C886 C2008 2.606 1_556 S
C2053 C909 2.606 1_556 S
C931 C1019 2.606 . S
C952 C1942 2.606 . S
C975 C2096 2.606 1_565 S
C997 C1965 2.606 . S
C1040 C2031 2.606 . S
C1241 C1325 2.606 . S
C1259 C1347 2.606 1_556 S
C1369 C1285 2.606 . S
C1391 C1307 2.606 . S
C1461 C1545 2.606 1_565 S
C1855 C1766 2.606 . S
C1788 C1877 2.606 1_554 S
C1899 C1810 2.606 . S
C1920 C1832 2.606 . S
C1987 C2075 2.606 1_545 S
C6 C205 3.538 . S
C226 C28 3.538 . S
C248 C50 3.538 . S
C182 C73 3.538 . S
C95 C337 3.538 . S
C116 C271 3.538 . S
C138 C293 3.538 . S
C161 C315 3.538 . S
C358 C402 3.538 . S
C381 C1547 3.538 . S
C1569 C424 3.538 . S
C447 C1525 3.538 . S
C1503 C469 3.538 . S
C491 C1437 3.538 . S
C513 C1480 3.538 . S
C735 C537 3.538 . S
C559 C757 3.538 . S
C577 C779 3.538 . S
C599 C713 3.538 . S
C867 C625 3.538 . S
C797 C647 3.538 . S
C669 C819 3.538 . S
C841 C687 3.538 . S
C929 C889 3.538 . S
C2073 C907 3.538 . S
C2099 C955 3.538 . S
C2051 C973 3.538 . S
C995 C2029 3.538 . S
C1017 C1963 3.538 . S
C2011 C1043 3.538 . S
C1062 C1261 3.538 . S
C1084 C1282 3.538 . S
C1106 C1304 3.538 . S
C1129 C1238 3.538 . S
C1393 C1151 3.538 . S
C1172 C1327 3.538 . S
C1349 C1194 3.538 . S
C1217 C1371 3.538 . S
C1458 C1414 3.538 . S
C1791 C1593 3.538 . S
C1813 C1615 3.538 . S
C1835 C1633 3.538 . S
C1769 C1655 3.538 . S
C1681 C1923 3.538 . S
C1703 C1853 3.538 . S
C1725 C1875 3.538 . S
C1897 C1743 3.538 . S
C1985 C1945 3.538 . S
C8 C1768 0.895 . S
C30 C734 0.895 . S
C52 C1812 0.895 . S
C70 C778 0.895 . S
C1852 C92 0.895 . S
C818 C118 0.895 . S
C1896 C140 0.895 . S
C866 C158 0.895 . S
C184 C1944 0.895 . S
C2098 C202 0.895 . S
C228 C2050 0.895 . S
C2072 C250 0.895 . S
C268 C906 0.895 . S
C1984 C290 0.895 . S
C954 C312 0.895 . S
C972 C334 0.895 . S
C1592 C360 0.895 . S
C624 C378 0.895 . S
C404 C1702 0.895 . S
C426 C668 0.895 . S
C444 C686 0.895 . S
C466 C1632 0.895 . S
C488 C1654 0.895 . S
C1614 C510 0.895 . S
C532 C1236 0.895 . S
C206 C554 0.895 . S
C580 C1280 0.895 . S
C602 C246 0.895 . S
C1328 C620 0.895 . S
C294 C642 0.895 . S
C1372 C664 0.895 . S
C690 C338 0.895 . S
C1412 C708 0.895 . S
C730 C1570 0.895 . S
C752 C1526 0.895 . S
C1548 C774 0.895 . S
C800 C382 0.895 . S
C822 C1456 0.895 . S
C422 C844 0.895 . S
C448 C862 0.895 . S
C1060 C884 0.895 . S
C96 C910 0.895 . S
C1170 C932 0.895 . S
C950 C136 0.895 . S
C976 C162 0.895 . S
C1104 C998 0.895 . S
C1130 C1020 0.895 . S
C1038 C1082 0.895 . S
C1064 C712 0.895 . S
C1086 C1790 0.895 . S
C1108 C756 0.895 . S
C1126 C1834 0.895 . S
C1148 C796 0.895 . S
C1874 C1174 0.895 . S
C840 C1196 0.895 . S
C1214 C1922 0.895 . S
C1240 C888 0.895 . S
C1042 C1258 0.895 . S
C994 C1284 0.895 . S
C1306 C1016 0.895 . S
C1962 C1324 0.895 . S
C928 C1346 0.895 . S
C2010 C1368 0.895 . S
C1390 C2028 0.895 . S
C536 C1416 0.895 . S
C1434 C1680 0.895 . S
C1460 C646 0.895 . S
C1482 C1724 0.895 . S
C1742 C1500 0.895 . S
C1522 C576 0.895 . S
C1544 C598 0.895 . S
C558 C1566 0.895 . S
C1588 C180 0.895 . S
C1610 C1262 0.895 . S
C224 C1636 0.895 . S
C1658 C1302 0.895 . S
C272 C1676 0.895 . S
C1350 C1698 0.895 . S
C316 C1720 0.895 . S
C1394 C1746 0.895 . S
C1764 C356 0.895 . S
C1786 C514 0.895 . S
C1808 C470 0.895 . S
C1830 C492 0.895 . S
C1438 C1856 0.895 . S
C400 C1878 0.895 . S
C1900 C1478 0.895 . S
C1918 C1504 0.895 . S
C1940 C4 0.895 . S
C1152 C1966 0.895 . S
C114 C1988 0.895 . S
C1192 C2006 0.895 . S
C2032 C1218 0.895 . S
C2054 C48 0.895 . S
C74 C2076 0.895 . S
C2094 C26 0.895 . S
