# Generated by pormake.
# Topology svz, (7)-cn, num edge types: 1
# Building blocks:
#     Node 0, Type 0, BuildingBlock: NUHQUE_clean_sbu_2, # of connection points: 7
#     Node 1, Type 0, BuildingBlock: NUHQUE_clean_sbu_2, # of connection points: 7
#     Node 2, Type 0, BuildingBlock: NUHQUE_clean_sbu_2, # of connection points: 7
#     Node 3, Type 0, BuildingBlock: NUHQUE_clean_sbu_2, # of connection points: 7
#     Node 4, Type 0, BuildingBlock: NUHQUE_clean_sbu_2, # of connection points: 7
#     Node 5, Type 0, BuildingBlock: NUHQUE_clean_sbu_2, # of connection points: 7
#     Node 6, Type 0, BuildingBlock: NUHQUE_clean_sbu_2, # of connection points: 7
#     Node 7, Type 0, BuildingBlock: NUHQUE_clean_sbu_2, # of connection points: 7
#     Node 8, Type 0, BuildingBlock: NUHQUE_clean_sbu_2, # of connection points: 7
#     Node 9, Type 0, BuildingBlock: NUHQUE_clean_sbu_2, # of connection points: 7
#     Node 10, Type 0, BuildingBlock: NUHQUE_clean_sbu_2, # of connection points: 7
#     Node 11, Type 0, BuildingBlock: NUHQUE_clean_sbu_2, # of connection points: 7
#     Node 12, Type 0, BuildingBlock: NUHQUE_clean_sbu_2, # of connection points: 7
#     Node 13, Type 0, BuildingBlock: NUHQUE_clean_sbu_2, # of connection points: 7
#     Node 14, Type 0, BuildingBlock: NUHQUE_clean_sbu_2, # of connection points: 7
#     Node 15, Type 0, BuildingBlock: NUHQUE_clean_sbu_2, # of connection points: 7
#     Node 16, Type 0, BuildingBlock: NUHQUE_clean_sbu_2, # of connection points: 7
#     Node 17, Type 0, BuildingBlock: NUHQUE_clean_sbu_2, # of connection points: 7
#     Node 18, Type 0, BuildingBlock: NUHQUE_clean_sbu_2, # of connection points: 7
#     Node 19, Type 0, BuildingBlock: NUHQUE_clean_sbu_2, # of connection points: 7
#     Node 20, Type 0, BuildingBlock: NUHQUE_clean_sbu_2, # of connection points: 7
#     Node 21, Type 0, BuildingBlock: NUHQUE_clean_sbu_2, # of connection points: 7
#     Node 22, Type 0, BuildingBlock: NUHQUE_clean_sbu_2, # of connection points: 7
#     Node 23, Type 0, BuildingBlock: NUHQUE_clean_sbu_2, # of connection points: 7
#     Node 24, Type 0, BuildingBlock: NUHQUE_clean_sbu_2, # of connection points: 7
#     Node 25, Type 0, BuildingBlock: NUHQUE_clean_sbu_2, # of connection points: 7
#     Node 26, Type 0, BuildingBlock: NUHQUE_clean_sbu_2, # of connection points: 7
#     Node 27, Type 0, BuildingBlock: NUHQUE_clean_sbu_2, # of connection points: 7
#     Node 28, Type 0, BuildingBlock: NUHQUE_clean_sbu_2, # of connection points: 7
#     Node 29, Type 0, BuildingBlock: NUHQUE_clean_sbu_2, # of connection points: 7
#     Node 30, Type 0, BuildingBlock: NUHQUE_clean_sbu_2, # of connection points: 7
#     Node 31, Type 0, BuildingBlock: NUHQUE_clean_sbu_2, # of connection points: 7
#     Node 32, Type 0, BuildingBlock: NUHQUE_clean_sbu_2, # of connection points: 7
#     Node 33, Type 0, BuildingBlock: NUHQUE_clean_sbu_2, # of connection points: 7
#     Node 34, Type 0, BuildingBlock: NUHQUE_clean_sbu_2, # of connection points: 7
#     Node 35, Type 0, BuildingBlock: NUHQUE_clean_sbu_2, # of connection points: 7
#     Node 36, Type 0, BuildingBlock: NUHQUE_clean_sbu_2, # of connection points: 7
#     Node 37, Type 0, BuildingBlock: NUHQUE_clean_sbu_2, # of connection points: 7
#     Node 38, Type 0, BuildingBlock: NUHQUE_clean_sbu_2, # of connection points: 7
#     Node 39, Type 0, BuildingBlock: NUHQUE_clean_sbu_2, # of connection points: 7
#     Node 40, Type 0, BuildingBlock: NUHQUE_clean_sbu_2, # of connection points: 7
#     Node 41, Type 0, BuildingBlock: NUHQUE_clean_sbu_2, # of connection points: 7
#     Node 42, Type 0, BuildingBlock: NUHQUE_clean_sbu_2, # of connection points: 7
#     Node 43, Type 0, BuildingBlock: NUHQUE_clean_sbu_2, # of connection points: 7
#     Node 44, Type 0, BuildingBlock: NUHQUE_clean_sbu_2, # of connection points: 7
#     Node 45, Type 0, BuildingBlock: NUHQUE_clean_sbu_2, # of connection points: 7
#     Node 46, Type 0, BuildingBlock: NUHQUE_clean_sbu_2, # of connection points: 7
#     Node 47, Type 0, BuildingBlock: NUHQUE_clean_sbu_2, # of connection points: 7
#     Edge 48, Type (0, 0), BuildingBlock: OJICUG_clean_linker_0, # of connection points: 2
#     Edge 49, Type (0, 0), BuildingBlock: OJICUG_clean_linker_0, # of connection points: 2
#     Edge 50, Type (0, 0), BuildingBlock: OJICUG_clean_linker_0, # of connection points: 2
#     Edge 51, Type (0, 0), BuildingBlock: OJICUG_clean_linker_0, # of connection points: 2
#     Edge 52, Type (0, 0), BuildingBlock: OJICUG_clean_linker_0, # of connection points: 2
#     Edge 53, Type (0, 0), BuildingBlock: OJICUG_clean_linker_0, # of connection points: 2
#     Edge 54, Type (0, 0), BuildingBlock: OJICUG_clean_linker_0, # of connection points: 2
#     Edge 55, Type (0, 0), BuildingBlock: OJICUG_clean_linker_0, # of connection points: 2
#     Edge 56, Type (0, 0), BuildingBlock: OJICUG_clean_linker_0, # of connection points: 2
#     Edge 57, Type (0, 0), BuildingBlock: OJICUG_clean_linker_0, # of connection points: 2
#     Edge 58, Type (0, 0), BuildingBlock: OJICUG_clean_linker_0, # of connection points: 2
#     Edge 59, Type (0, 0), BuildingBlock: OJICUG_clean_linker_0, # of connection points: 2
#     Edge 60, Type (0, 0), BuildingBlock: OJICUG_clean_linker_0, # of connection points: 2
#     Edge 61, Type (0, 0), BuildingBlock: OJICUG_clean_linker_0, # of connection points: 2
#     Edge 62, Type (0, 0), BuildingBlock: OJICUG_clean_linker_0, # of connection points: 2
#     Edge 63, Type (0, 0), BuildingBlock: OJICUG_clean_linker_0, # of connection points: 2
#     Edge 64, Type (0, 0), BuildingBlock: OJICUG_clean_linker_0, # of connection points: 2
#     Edge 65, Type (0, 0), BuildingBlock: OJICUG_clean_linker_0, # of connection points: 2
#     Edge 66, Type (0, 0), BuildingBlock: OJICUG_clean_linker_0, # of connection points: 2
#     Edge 67, Type (0, 0), BuildingBlock: OJICUG_clean_linker_0, # of connection points: 2
#     Edge 68, Type (0, 0), BuildingBlock: OJICUG_clean_linker_0, # of connection points: 2
#     Edge 69, Type (0, 0), BuildingBlock: OJICUG_clean_linker_0, # of connection points: 2
#     Edge 70, Type (0, 0), BuildingBlock: OJICUG_clean_linker_0, # of connection points: 2
#     Edge 71, Type (0, 0), BuildingBlock: OJICUG_clean_linker_0, # of connection points: 2
#     Edge 72, Type (0, 0), BuildingBlock: OJICUG_clean_linker_0, # of connection points: 2
#     Edge 73, Type (0, 0), BuildingBlock: OJICUG_clean_linker_0, # of connection points: 2
#     Edge 74, Type (0, 0), BuildingBlock: OJICUG_clean_linker_0, # of connection points: 2
#     Edge 75, Type (0, 0), BuildingBlock: OJICUG_clean_linker_0, # of connection points: 2
#     Edge 76, Type (0, 0), BuildingBlock: OJICUG_clean_linker_0, # of connection points: 2
#     Edge 77, Type (0, 0), BuildingBlock: OJICUG_clean_linker_0, # of connection points: 2
#     Edge 78, Type (0, 0), BuildingBlock: OJICUG_clean_linker_0, # of connection points: 2
#     Edge 79, Type (0, 0), BuildingBlock: OJICUG_clean_linker_0, # of connection points: 2
#     Edge 80, Type (0, 0), BuildingBlock: OJICUG_clean_linker_0, # of connection points: 2
#     Edge 81, Type (0, 0), BuildingBlock: OJICUG_clean_linker_0, # of connection points: 2
#     Edge 82, Type (0, 0), BuildingBlock: OJICUG_clean_linker_0, # of connection points: 2
#     Edge 83, Type (0, 0), BuildingBlock: OJICUG_clean_linker_0, # of connection points: 2
#     Edge 84, Type (0, 0), BuildingBlock: OJICUG_clean_linker_0, # of connection points: 2
#     Edge 85, Type (0, 0), BuildingBlock: OJICUG_clean_linker_0, # of connection points: 2
#     Edge 86, Type (0, 0), BuildingBlock: OJICUG_clean_linker_0, # of connection points: 2
#     Edge 87, Type (0, 0), BuildingBlock: OJICUG_clean_linker_0, # of connection points: 2
#     Edge 88, Type (0, 0), BuildingBlock: OJICUG_clean_linker_0, # of connection points: 2
#     Edge 89, Type (0, 0), BuildingBlock: OJICUG_clean_linker_0, # of connection points: 2
#     Edge 90, Type (0, 0), BuildingBlock: OJICUG_clean_linker_0, # of connection points: 2
#     Edge 91, Type (0, 0), BuildingBlock: OJICUG_clean_linker_0, # of connection points: 2
#     Edge 92, Type (0, 0), BuildingBlock: OJICUG_clean_linker_0, # of connection points: 2
#     Edge 93, Type (0, 0), BuildingBlock: OJICUG_clean_linker_0, # of connection points: 2
#     Edge 94, Type (0, 0), BuildingBlock: OJICUG_clean_linker_0, # of connection points: 2
#     Edge 95, Type (0, 0), BuildingBlock: OJICUG_clean_linker_0, # of connection points: 2
#     Edge 96, Type (0, 0), BuildingBlock: OJICUG_clean_linker_0, # of connection points: 2
#     Edge 97, Type (0, 0), BuildingBlock: OJICUG_clean_linker_0, # of connection points: 2
#     Edge 98, Type (0, 0), BuildingBlock: OJICUG_clean_linker_0, # of connection points: 2
#     Edge 99, Type (0, 0), BuildingBlock: OJICUG_clean_linker_0, # of connection points: 2
#     Edge 100, Type (0, 0), BuildingBlock: OJICUG_clean_linker_0, # of connection points: 2
#     Edge 101, Type (0, 0), BuildingBlock: OJICUG_clean_linker_0, # of connection points: 2
#     Edge 102, Type (0, 0), BuildingBlock: OJICUG_clean_linker_0, # of connection points: 2
#     Edge 103, Type (0, 0), BuildingBlock: OJICUG_clean_linker_0, # of connection points: 2
#     Edge 104, Type (0, 0), BuildingBlock: OJICUG_clean_linker_0, # of connection points: 2
#     Edge 105, Type (0, 0), BuildingBlock: OJICUG_clean_linker_0, # of connection points: 2
#     Edge 106, Type (0, 0), BuildingBlock: OJICUG_clean_linker_0, # of connection points: 2
#     Edge 107, Type (0, 0), BuildingBlock: OJICUG_clean_linker_0, # of connection points: 2
#     Edge 108, Type (0, 0), BuildingBlock: OJICUG_clean_linker_0, # of connection points: 2
#     Edge 109, Type (0, 0), BuildingBlock: OJICUG_clean_linker_0, # of connection points: 2
#     Edge 110, Type (0, 0), BuildingBlock: OJICUG_clean_linker_0, # of connection points: 2
#     Edge 111, Type (0, 0), BuildingBlock: OJICUG_clean_linker_0, # of connection points: 2
#     Edge 112, Type (0, 0), BuildingBlock: OJICUG_clean_linker_0, # of connection points: 2
#     Edge 113, Type (0, 0), BuildingBlock: OJICUG_clean_linker_0, # of connection points: 2
#     Edge 114, Type (0, 0), BuildingBlock: OJICUG_clean_linker_0, # of connection points: 2
#     Edge 115, Type (0, 0), BuildingBlock: OJICUG_clean_linker_0, # of connection points: 2
#     Edge 116, Type (0, 0), BuildingBlock: OJICUG_clean_linker_0, # of connection points: 2
#     Edge 117, Type (0, 0), BuildingBlock: OJICUG_clean_linker_0, # of connection points: 2
#     Edge 118, Type (0, 0), BuildingBlock: OJICUG_clean_linker_0, # of connection points: 2
#     Edge 119, Type (0, 0), BuildingBlock: OJICUG_clean_linker_0, # of connection points: 2
#     Edge 120, Type (0, 0), BuildingBlock: OJICUG_clean_linker_0, # of connection points: 2
#     Edge 121, Type (0, 0), BuildingBlock: OJICUG_clean_linker_0, # of connection points: 2
#     Edge 122, Type (0, 0), BuildingBlock: OJICUG_clean_linker_0, # of connection points: 2
#     Edge 123, Type (0, 0), BuildingBlock: OJICUG_clean_linker_0, # of connection points: 2
#     Edge 124, Type (0, 0), BuildingBlock: OJICUG_clean_linker_0, # of connection points: 2
#     Edge 125, Type (0, 0), BuildingBlock: OJICUG_clean_linker_0, # of connection points: 2
#     Edge 126, Type (0, 0), BuildingBlock: OJICUG_clean_linker_0, # of connection points: 2
#     Edge 127, Type (0, 0), BuildingBlock: OJICUG_clean_linker_0, # of connection points: 2
#     Edge 128, Type (0, 0), BuildingBlock: OJICUG_clean_linker_0, # of connection points: 2
#     Edge 129, Type (0, 0), BuildingBlock: OJICUG_clean_linker_0, # of connection points: 2
#     Edge 130, Type (0, 0), BuildingBlock: OJICUG_clean_linker_0, # of connection points: 2
#     Edge 131, Type (0, 0), BuildingBlock: OJICUG_clean_linker_0, # of connection points: 2
#     Edge 132, Type (0, 0), BuildingBlock: OJICUG_clean_linker_0, # of connection points: 2
#     Edge 133, Type (0, 0), BuildingBlock: OJICUG_clean_linker_0, # of connection points: 2
#     Edge 134, Type (0, 0), BuildingBlock: OJICUG_clean_linker_0, # of connection points: 2
#     Edge 135, Type (0, 0), BuildingBlock: OJICUG_clean_linker_0, # of connection points: 2
#     Edge 136, Type (0, 0), BuildingBlock: OJICUG_clean_linker_0, # of connection points: 2
#     Edge 137, Type (0, 0), BuildingBlock: OJICUG_clean_linker_0, # of connection points: 2
#     Edge 138, Type (0, 0), BuildingBlock: OJICUG_clean_linker_0, # of connection points: 2
#     Edge 139, Type (0, 0), BuildingBlock: OJICUG_clean_linker_0, # of connection points: 2
#     Edge 140, Type (0, 0), BuildingBlock: OJICUG_clean_linker_0, # of connection points: 2
#     Edge 141, Type (0, 0), BuildingBlock: OJICUG_clean_linker_0, # of connection points: 2
#     Edge 142, Type (0, 0), BuildingBlock: OJICUG_clean_linker_0, # of connection points: 2
#     Edge 143, Type (0, 0), BuildingBlock: OJICUG_clean_linker_0, # of connection points: 2
#     Edge 144, Type (0, 0), BuildingBlock: OJICUG_clean_linker_0, # of connection points: 2
#     Edge 145, Type (0, 0), BuildingBlock: OJICUG_clean_linker_0, # of connection points: 2
#     Edge 146, Type (0, 0), BuildingBlock: OJICUG_clean_linker_0, # of connection points: 2
#     Edge 147, Type (0, 0), BuildingBlock: OJICUG_clean_linker_0, # of connection points: 2
#     Edge 148, Type (0, 0), BuildingBlock: OJICUG_clean_linker_0, # of connection points: 2
#     Edge 149, Type (0, 0), BuildingBlock: OJICUG_clean_linker_0, # of connection points: 2
#     Edge 150, Type (0, 0), BuildingBlock: OJICUG_clean_linker_0, # of connection points: 2
#     Edge 151, Type (0, 0), BuildingBlock: OJICUG_clean_linker_0, # of connection points: 2
#     Edge 152, Type (0, 0), BuildingBlock: OJICUG_clean_linker_0, # of connection points: 2
#     Edge 153, Type (0, 0), BuildingBlock: OJICUG_clean_linker_0, # of connection points: 2
#     Edge 154, Type (0, 0), BuildingBlock: OJICUG_clean_linker_0, # of connection points: 2
#     Edge 155, Type (0, 0), BuildingBlock: OJICUG_clean_linker_0, # of connection points: 2
#     Edge 156, Type (0, 0), BuildingBlock: OJICUG_clean_linker_0, # of connection points: 2
#     Edge 157, Type (0, 0), BuildingBlock: OJICUG_clean_linker_0, # of connection points: 2
#     Edge 158, Type (0, 0), BuildingBlock: OJICUG_clean_linker_0, # of connection points: 2
#     Edge 159, Type (0, 0), BuildingBlock: OJICUG_clean_linker_0, # of connection points: 2
#     Edge 160, Type (0, 0), BuildingBlock: OJICUG_clean_linker_0, # of connection points: 2
#     Edge 161, Type (0, 0), BuildingBlock: OJICUG_clean_linker_0, # of connection points: 2
#     Edge 162, Type (0, 0), BuildingBlock: OJICUG_clean_linker_0, # of connection points: 2
#     Edge 163, Type (0, 0), BuildingBlock: OJICUG_clean_linker_0, # of connection points: 2
#     Edge 164, Type (0, 0), BuildingBlock: OJICUG_clean_linker_0, # of connection points: 2
#     Edge 165, Type (0, 0), BuildingBlock: OJICUG_clean_linker_0, # of connection points: 2
#     Edge 166, Type (0, 0), BuildingBlock: OJICUG_clean_linker_0, # of connection points: 2
#     Edge 167, Type (0, 0), BuildingBlock: OJICUG_clean_linker_0, # of connection points: 2
#     Edge 168, Type (0, 0), BuildingBlock: OJICUG_clean_linker_0, # of connection points: 2
#     Edge 169, Type (0, 0), BuildingBlock: OJICUG_clean_linker_0, # of connection points: 2
#     Edge 170, Type (0, 0), BuildingBlock: OJICUG_clean_linker_0, # of connection points: 2
#     Edge 171, Type (0, 0), BuildingBlock: OJICUG_clean_linker_0, # of connection points: 2
#     Edge 172, Type (0, 0), BuildingBlock: OJICUG_clean_linker_0, # of connection points: 2
#     Edge 173, Type (0, 0), BuildingBlock: OJICUG_clean_linker_0, # of connection points: 2
#     Edge 174, Type (0, 0), BuildingBlock: OJICUG_clean_linker_0, # of connection points: 2
#     Edge 175, Type (0, 0), BuildingBlock: OJICUG_clean_linker_0, # of connection points: 2
#     Edge 176, Type (0, 0), BuildingBlock: OJICUG_clean_linker_0, # of connection points: 2
#     Edge 177, Type (0, 0), BuildingBlock: OJICUG_clean_linker_0, # of connection points: 2
#     Edge 178, Type (0, 0), BuildingBlock: OJICUG_clean_linker_0, # of connection points: 2
#     Edge 179, Type (0, 0), BuildingBlock: OJICUG_clean_linker_0, # of connection points: 2
#     Edge 180, Type (0, 0), BuildingBlock: OJICUG_clean_linker_0, # of connection points: 2
#     Edge 181, Type (0, 0), BuildingBlock: OJICUG_clean_linker_0, # of connection points: 2
#     Edge 182, Type (0, 0), BuildingBlock: OJICUG_clean_linker_0, # of connection points: 2
#     Edge 183, Type (0, 0), BuildingBlock: OJICUG_clean_linker_0, # of connection points: 2
#     Edge 184, Type (0, 0), BuildingBlock: OJICUG_clean_linker_0, # of connection points: 2
#     Edge 185, Type (0, 0), BuildingBlock: OJICUG_clean_linker_0, # of connection points: 2
#     Edge 186, Type (0, 0), BuildingBlock: OJICUG_clean_linker_0, # of connection points: 2
#     Edge 187, Type (0, 0), BuildingBlock: OJICUG_clean_linker_0, # of connection points: 2
#     Edge 188, Type (0, 0), BuildingBlock: OJICUG_clean_linker_0, # of connection points: 2
#     Edge 189, Type (0, 0), BuildingBlock: OJICUG_clean_linker_0, # of connection points: 2
#     Edge 190, Type (0, 0), BuildingBlock: OJICUG_clean_linker_0, # of connection points: 2
#     Edge 191, Type (0, 0), BuildingBlock: OJICUG_clean_linker_0, # of connection points: 2
#     Edge 192, Type (0, 0), BuildingBlock: OJICUG_clean_linker_0, # of connection points: 2
#     Edge 193, Type (0, 0), BuildingBlock: OJICUG_clean_linker_0, # of connection points: 2
#     Edge 194, Type (0, 0), BuildingBlock: OJICUG_clean_linker_0, # of connection points: 2
#     Edge 195, Type (0, 0), BuildingBlock: OJICUG_clean_linker_0, # of connection points: 2
#     Edge 196, Type (0, 0), BuildingBlock: OJICUG_clean_linker_0, # of connection points: 2
#     Edge 197, Type (0, 0), BuildingBlock: OJICUG_clean_linker_0, # of connection points: 2
#     Edge 198, Type (0, 0), BuildingBlock: OJICUG_clean_linker_0, # of connection points: 2
#     Edge 199, Type (0, 0), BuildingBlock: OJICUG_clean_linker_0, # of connection points: 2
#     Edge 200, Type (0, 0), BuildingBlock: OJICUG_clean_linker_0, # of connection points: 2
#     Edge 201, Type (0, 0), BuildingBlock: OJICUG_clean_linker_0, # of connection points: 2
#     Edge 202, Type (0, 0), BuildingBlock: OJICUG_clean_linker_0, # of connection points: 2
#     Edge 203, Type (0, 0), BuildingBlock: OJICUG_clean_linker_0, # of connection points: 2
#     Edge 204, Type (0, 0), BuildingBlock: OJICUG_clean_linker_0, # of connection points: 2
#     Edge 205, Type (0, 0), BuildingBlock: OJICUG_clean_linker_0, # of connection points: 2
#     Edge 206, Type (0, 0), BuildingBlock: OJICUG_clean_linker_0, # of connection points: 2
#     Edge 207, Type (0, 0), BuildingBlock: OJICUG_clean_linker_0, # of connection points: 2
#     Edge 208, Type (0, 0), BuildingBlock: OJICUG_clean_linker_0, # of connection points: 2
#     Edge 209, Type (0, 0), BuildingBlock: OJICUG_clean_linker_0, # of connection points: 2
#     Edge 210, Type (0, 0), BuildingBlock: OJICUG_clean_linker_0, # of connection points: 2
#     Edge 211, Type (0, 0), BuildingBlock: OJICUG_clean_linker_0, # of connection points: 2
#     Edge 212, Type (0, 0), BuildingBlock: OJICUG_clean_linker_0, # of connection points: 2
#     Edge 213, Type (0, 0), BuildingBlock: OJICUG_clean_linker_0, # of connection points: 2
#     Edge 214, Type (0, 0), BuildingBlock: OJICUG_clean_linker_0, # of connection points: 2
#     Edge 215, Type (0, 0), BuildingBlock: OJICUG_clean_linker_0, # of connection points: 2
# Relax obj value: 0.209
# Max RMSD: 0.269
# Mean RMSD: 0.269
data_MOF--net-svz--node1-NUHQUE_clean_sbu_2--edge1-OJICUG_clean_linker_0
_symmetry_space_group_name_H-M    P1
_symmetry_Int_Tables_number       1
_symmetry_cell_setting            triclinic
loop_
_symmetry_equiv_pos_as_xyz
'x, y, z'
_cell_length_a     53.123915
_cell_length_b     53.15606
_cell_length_c     53.14596
_cell_angle_alpha  89.956303
_cell_angle_beta   90.004522
_cell_angle_gamma 89.918611
loop_
_atom_site_label
_atom_site_type_symbol
_atom_site_fract_x
_atom_site_fract_y
_atom_site_fract_z
_atom_type_partial_charge
O0 O 0.07032 0.60835 0.25943 0.0
Tb1 Tb 0.03137 0.61823 0.2512 0.0
Eu2 Eu 0.0487 0.58852 0.19372 0.0
C3 C 0.07465 0.5892 0.27463 0.0
O4 O 0.05632 0.57312 0.27856 0.0
C5 C 0.01657 0.56352 0.23834 0.0
O6 O 0.01602 0.5857 0.16664 0.0
C7 C 0.08972 0.57573 0.17049 0.0
C8 C 0.99266 0.58833 0.17446 0.0
O9 O 0.9884 0.59268 0.19836 0.0
C10 C 0.02836 0.64534 0.19891 0.0
C11 C 0.10363 0.58554 0.14842 0.0
C12 C 0.13 0.5828 0.14695 0.0
C13 C 0.14313 0.59182 0.12581 0.0
C14 C 0.12973 0.60287 0.10597 0.0
C15 C 0.10347 0.60528 0.10683 0.0
C16 C 0.09053 0.5971 0.12839 0.0
O17 O 0.00838 0.58544 0.24602 0.0
O18 O 0.03718 0.56112 0.22472 0.0
O19 O 0.01023 0.61978 0.28652 0.0
O20 O 0.02975 0.65232 0.27395 0.0
C21 C 0.01547 0.64312 0.29154 0.0
O22 O 0.0464 0.63093 0.18999 0.0
O23 O 0.017 0.64024 0.22017 0.0
O24 O 0.0676 0.56573 0.16564 0.0
O25 O 0.08974 0.58984 0.19087 0.0
H26 H 0.14022 0.57376 0.16212 0.0
H27 H 0.13991 0.60952 0.08957 0.0
H28 H 0.07024 0.59913 0.12928 0.0
O29 O 0.91119 0.08128 0.26121 0.0
Tb30 Tb 0.90041 0.04436 0.24692 0.0
Eu31 Eu 0.93381 0.04549 0.18612 0.0
C32 C 0.93147 0.0836 0.27531 0.0
O33 O 0.94829 0.06551 0.27488 0.0
C34 C 0.95589 0.02614 0.23748 0.0
O35 O 0.94218 0.01429 0.15862 0.0
C36 C 0.93486 0.08949 0.16528 0.0
C37 C 0.94736 0.99149 0.16688 0.0
O38 O 0.95104 0.98813 0.19109 0.0
C39 C 0.87494 0.03975 0.19449 0.0
C40 C 0.92412 0.10437 0.14454 0.0
C41 C 0.92975 0.13018 0.14355 0.0
C42 C 0.92107 0.14488 0.12352 0.0
C43 C 0.90709 0.13371 0.10427 0.0
C44 C 0.90179 0.1079 0.10451 0.0
C45 C 0.90993 0.09319 0.12504 0.0
O46 O 0.93286 0.01949 0.24366 0.0
O47 O 0.96044 0.04113 0.21844 0.0
O48 O 0.88921 0.0436 0.2864 0.0
O49 O 0.87318 0.01683 0.26176 0.0
C50 C 0.87391 0.02471 0.28491 0.0
O51 O 0.89531 0.02859 0.18622 0.0
O52 O 0.87468 0.05227 0.21586 0.0
O53 O 0.95021 0.07107 0.15893 0.0
O54 O 0.91989 0.084 0.18429 0.0
H55 H 0.9412 0.13873 0.15811 0.0
H56 H 0.90085 0.14517 0.08854 0.0
H57 H 0.90607 0.07318 0.12542 0.0
O58 O 0.43612 0.9135 0.26075 0.0
Tb59 Tb 0.47139 0.90032 0.24469 0.0
Eu60 Eu 0.46871 0.93723 0.18377 0.0
C61 C 0.4364 0.9325 0.27661 0.0
O62 O 0.45703 0.94596 0.27843 0.0
C63 C 0.49181 0.95269 0.23404 0.0
O64 O 0.49794 0.94566 0.1542 0.0
C65 C 0.42351 0.93712 0.16588 0.0
C66 C 0.52101 0.95158 0.16106 0.0
O67 O 0.52536 0.95686 0.1848 0.0
C68 C 0.47836 0.87765 0.19075 0.0
C69 C 0.41037 0.92528 0.14465 0.0
C70 C 0.384 0.9267 0.1433 0.0
C71 C 0.37116 0.91579 0.12302 0.0
C72 C 0.3849 0.90407 0.10378 0.0
C73 C 0.41128 0.90297 0.10459 0.0
C74 C 0.42398 0.91317 0.12539 0.0
O75 O 0.49799 0.92882 0.2329 0.0
O76 O 0.47609 0.96153 0.2173 0.0
O77 O 0.49536 0.8983 0.27823 0.0
O78 O 0.48048 0.86461 0.26326 0.0
C79 C 0.49439 0.87407 0.28097 0.0
O80 O 0.48664 0.89901 0.18148 0.0
O81 O 0.46579 0.87617 0.21207 0.0
O82 O 0.44039 0.95428 0.15985 0.0
O83 O 0.43081 0.92188 0.18409 0.0
H84 H 0.37351 0.93623 0.15798 0.0
H85 H 0.37497 0.89607 0.08784 0.0
H86 H 0.44436 0.91231 0.12627 0.0
O87 O 0.61146 0.43813 0.25734 0.0
Tb88 Tb 0.61513 0.47827 0.24989 0.0
Eu89 Eu 0.58801 0.46017 0.19058 0.0
C90 C 0.59176 0.42964 0.26977 0.0
O91 O 0.57143 0.44365 0.27063 0.0
C92 C 0.55709 0.48549 0.2383 0.0
O93 O 0.58983 0.4941 0.16489 0.0
C94 C 0.57758 0.41974 0.1654 0.0
C95 C 0.58225 0.51664 0.17195 0.0
O96 O 0.57227 0.51956 0.19435 0.0
C97 C 0.64196 0.48157 0.19913 0.0
C98 C 0.5901 0.40418 0.14598 0.0
C99 C 0.58698 0.37784 0.14631 0.0
C100 C 0.59848 0.36281 0.12783 0.0
C101 C 0.61247 0.37433 0.10871 0.0
C102 C 0.61507 0.40051 0.10751 0.0
C103 C 0.60442 0.41541 0.12659 0.0
O104 O 0.57739 0.49292 0.25031 0.0
O105 O 0.55708 0.47083 0.21821 0.0
O106 O 0.64884 0.47978 0.27337 0.0
O107 O 0.61759 0.50265 0.28307 0.0
C108 C 0.6404 0.49632 0.28925 0.0
O109 O 0.63029 0.46083 0.19288 0.0
O110 O 0.63362 0.49512 0.21785 0.0
O111 O 0.57027 0.44237 0.15842 0.0
O112 O 0.58754 0.41919 0.1881 0.0
H113 H 0.57554 0.3691 0.16076 0.0
H114 H 0.6207 0.3628 0.094 0.0
H115 H 0.60651 0.43568 0.12584 0.0
O116 O 0.07184 0.90034 0.25608 0.0
Tb117 Tb 0.03211 0.89832 0.26583 0.0
Eu118 Eu 0.0503 0.92767 0.32537 0.0
C119 C 0.07987 0.9198 0.24298 0.0
O120 O 0.06612 0.94034 0.24295 0.0
C121 C 0.02411 0.95548 0.27774 0.0
O122 O 0.01529 0.92701 0.34962 0.0
C123 C 0.08874 0.94062 0.3524 0.0
C124 C 0.99254 0.92978 0.34017 0.0
O125 O 0.98989 0.93329 0.3159 0.0
C126 C 0.0307 0.87262 0.318 0.0
C127 C 0.10257 0.93006 0.37407 0.0
C128 C 0.12887 0.93288 0.3754 0.0
C129 C 0.1423 0.92293 0.39585 0.0
C130 C 0.12926 0.91085 0.41533 0.0
C131 C 0.103 0.9083 0.41458 0.0
C132 C 0.08975 0.91744 0.3936 0.0
O133 O 0.0143 0.93459 0.26902 0.0
O134 O 0.04215 0.95623 0.29473 0.0
O135 O 0.02067 0.86377 0.24673 0.0
O136 O 0.01313 0.89892 0.22932 0.0
C137 C 0.0109 0.87468 0.22716 0.0
O138 O 0.05083 0.88534 0.32432 0.0
O139 O 0.01707 0.87955 0.29869 0.0
O140 O 0.06568 0.9485 0.35687 0.0
O141 O 0.09098 0.92846 0.33093 0.0
H142 H 0.13886 0.94263 0.36053 0.0
H143 H 0.13967 0.90351 0.4313 0.0
H144 H 0.06948 0.91523 0.39277 0.0
O145 O 0.60633 0.07194 0.2562 0.0
Tb146 Tb 0.61818 0.03351 0.26415 0.0
Eu147 Eu 0.58923 0.0491 0.32312 0.0
C148 C 0.5865 0.07533 0.24166 0.0
O149 O 0.57118 0.05626 0.23827 0.0
C150 C 0.56444 0.0174 0.27871 0.0
O151 O 0.58695 0.01571 0.34946 0.0
C152 C 0.57575 0.08949 0.34692 0.0
C153 C 0.59014 0.99261 0.3411 0.0
O154 O 0.59496 0.98908 0.31718 0.0
C155 C 0.64663 0.03077 0.31595 0.0
C156 C 0.58559 0.10343 0.36888 0.0
C157 C 0.58298 0.12977 0.37018 0.0
C158 C 0.59233 0.143 0.39106 0.0
C159 C 0.6036 0.12971 0.41089 0.0
C160 C 0.6059 0.10343 0.41016 0.0
C161 C 0.59734 0.09042 0.38883 0.0
O162 O 0.58628 0.00958 0.27042 0.0
O163 O 0.56204 0.03816 0.29197 0.0
O164 O 0.65161 0.03361 0.24039 0.0
O165 O 0.61991 0.01212 0.22898 0.0
C166 C 0.64278 0.01864 0.22322 0.0
O167 O 0.63171 0.04779 0.32595 0.0
O168 O 0.64156 0.01987 0.29445 0.0
O169 O 0.56639 0.0671 0.35174 0.0
O170 O 0.58957 0.09008 0.32634 0.0
H171 H 0.57388 0.13992 0.35499 0.0
H172 H 0.61056 0.13998 0.4271 0.0
H173 H 0.59931 0.07013 0.38801 0.0
O174 O 0.43935 0.60824 0.25611 0.0
Tb175 Tb 0.47925 0.61295 0.26446 0.0
Eu176 Eu 0.4617 0.58455 0.32317 0.0
C177 C 0.43187 0.58867 0.24284 0.0
O178 O 0.44687 0.56913 0.24126 0.0
C179 C 0.48748 0.55515 0.27499 0.0
O180 O 0.49558 0.58676 0.34878 0.0
C181 C 0.42225 0.57298 0.34931 0.0
C182 C 0.51833 0.57966 0.34194 0.0
O183 O 0.52176 0.56971 0.3196 0.0
C184 C 0.48234 0.63908 0.31576 0.0
C185 C 0.40857 0.5848 0.37045 0.0
C186 C 0.38221 0.58253 0.37207 0.0
C187 C 0.36907 0.59377 0.39207 0.0
C188 C 0.3825 0.60651 0.41084 0.0
C189 C 0.40878 0.60855 0.40978 0.0
C190 C 0.42172 0.59818 0.38922 0.0
O191 O 0.4954 0.57584 0.26402 0.0
O192 O 0.47193 0.55459 0.29439 0.0
O193 O 0.48105 0.64764 0.24254 0.0
O194 O 0.50316 0.61642 0.23105 0.0
C195 C 0.49721 0.63962 0.22605 0.0
O196 O 0.46197 0.62693 0.32235 0.0
O197 O 0.49584 0.63104 0.29686 0.0
O198 O 0.44495 0.56444 0.35446 0.0
O199 O 0.42084 0.58461 0.32744 0.0
H200 H 0.37197 0.57222 0.35777 0.0
H201 H 0.37241 0.61471 0.42658 0.0
H202 H 0.44202 0.6 0.38819 0.0
O203 O 0.91335 0.43526 0.25431 0.0
Tb204 Tb 0.89726 0.4697 0.2694 0.0
Eu205 Eu 0.93312 0.46528 0.33022 0.0
C206 C 0.93164 0.43685 0.23769 0.0
O207 O 0.94283 0.45864 0.2346 0.0
C208 C 0.94984 0.49041 0.28065 0.0
O209 O 0.94154 0.49404 0.36029 0.0
C210 C 0.93279 0.41975 0.34766 0.0
C211 C 0.94827 0.51702 0.35387 0.0
O212 O 0.9544 0.5215 0.33036 0.0
C213 C 0.8737 0.47713 0.32322 0.0
C214 C 0.92141 0.40557 0.36867 0.0
C215 C 0.92544 0.37941 0.37034 0.0
C216 C 0.91532 0.36565 0.39048 0.0
C217 C 0.90172 0.37824 0.40918 0.0
C218 C 0.89822 0.40437 0.40836 0.0
C219 C 0.90764 0.418 0.38769 0.0
O220 O 0.92589 0.49658 0.28052 0.0
O221 O 0.95779 0.47363 0.2969 0.0
O222 O 0.8938 0.49721 0.2387 0.0
O223 O 0.86367 0.47226 0.2455 0.0
C224 C 0.87151 0.49055 0.23131 0.0
O225 O 0.89528 0.48385 0.33319 0.0
O226 O 0.87182 0.46571 0.3013 0.0
O227 O 0.94995 0.43653 0.3539 0.0
O228 O 0.91735 0.4275 0.32978 0.0
H229 H 0.93653 0.36984 0.35614 0.0
H230 H 0.89441 0.36762 0.42503 0.0
H231 H 0.90505 0.43822 0.38684 0.0
O232 O 0.26137 0.08022 0.60997 0.0
Tb233 Tb 0.24908 0.04242 0.61968 0.0
Eu234 Eu 0.18985 0.04828 0.58548 0.0
C235 C 0.27549 0.08378 0.58992 0.0
O236 O 0.27587 0.06628 0.57252 0.0
C237 C 0.23983 0.02519 0.56416 0.0
O238 O 0.16355 0.01653 0.57572 0.0
C239 C 0.16856 0.092 0.58215 0.0
C240 C 0.17291 0.9936 0.57506 0.0
O241 O 0.19725 0.99065 0.57804 0.0
C242 C 0.19603 0.03919 0.6451 0.0
C243 C 0.14668 0.10586 0.59203 0.0
C244 C 0.14404 0.13153 0.58601 0.0
C245 C 0.12257 0.14476 0.59369 0.0
C246 C 0.10374 0.13232 0.60716 0.0
C247 C 0.10586 0.10675 0.61312 0.0
C248 C 0.12766 0.09353 0.60588 0.0
O249 O 0.24546 0.0179 0.58711 0.0
O250 O 0.22279 0.04248 0.5598 0.0
O251 O 0.28907 0.04137 0.62911 0.0
O252 O 0.26467 0.01589 0.64751 0.0
C253 C 0.28791 0.02328 0.64544 0.0
O254 O 0.18575 0.03172 0.62397 0.0
O255 O 0.21853 0.0495 0.64614 0.0
O256 O 0.16345 0.07319 0.56686 0.0
O257 O 0.18704 0.08719 0.59805 0.0
H258 H 0.15837 0.14101 0.57501 0.0
H259 H 0.08705 0.14268 0.61284 0.0
H260 H 0.12943 0.07367 0.61021 0.0
O261 O 0.43564 0.25884 0.60677 0.0
Tb262 Tb 0.47351 0.24579 0.61564 0.0
Eu263 Eu 0.47072 0.18804 0.58173 0.0
C264 C 0.43195 0.27332 0.58696 0.0
O265 O 0.44907 0.27347 0.56916 0.0
C266 C 0.49189 0.23857 0.55945 0.0
O267 O 0.49997 0.15889 0.57227 0.0
C268 C 0.42583 0.16923 0.58249 0.0
C269 C 0.52325 0.16652 0.56864 0.0
O270 O 0.5276 0.19079 0.56724 0.0
C271 C 0.48309 0.19417 0.64021 0.0
C272 C 0.41246 0.14756 0.59329 0.0
C273 C 0.38621 0.14576 0.59037 0.0
C274 C 0.37331 0.12461 0.59944 0.0
C275 C 0.38685 0.10505 0.61083 0.0
C276 C 0.41309 0.10635 0.6134 0.0
C277 C 0.42584 0.12792 0.60504 0.0
O278 O 0.49771 0.24559 0.58246 0.0
O279 O 0.47644 0.21993 0.55491 0.0
O280 O 0.47301 0.28469 0.62852 0.0
O281 O 0.5016 0.26054 0.64223 0.0
C282 C 0.49267 0.28331 0.64288 0.0
O283 O 0.49124 0.18578 0.61852 0.0
O284 O 0.46852 0.21414 0.64138 0.0
O285 O 0.44264 0.16375 0.56509 0.0
O286 O 0.43322 0.18689 0.5983 0.0
H287 H 0.37589 0.16065 0.58096 0.0
H288 H 0.37688 0.08853 0.61749 0.0
H289 H 0.44613 0.1291 0.60694 0.0
O290 O 0.25561 0.43597 0.60687 0.0
Tb291 Tb 0.26809 0.47401 0.61545 0.0
Eu292 Eu 0.32694 0.46908 0.58161 0.0
C293 C 0.24109 0.43201 0.58717 0.0
O294 O 0.24055 0.44909 0.56932 0.0
C295 C 0.27668 0.49159 0.55974 0.0
O296 O 0.35485 0.49944 0.5718 0.0
C297 C 0.34724 0.42471 0.58032 0.0
C298 C 0.34664 0.52276 0.56997 0.0
O299 O 0.3223 0.52687 0.57133 0.0
C300 C 0.32051 0.48022 0.6409 0.0
C301 C 0.36916 0.41121 0.59077 0.0
C302 C 0.3707 0.38488 0.5882 0.0
C303 C 0.39189 0.37181 0.59712 0.0
C304 C 0.41174 0.38527 0.60802 0.0
C305 C 0.41086 0.41158 0.6101 0.0
C306 C 0.38922 0.42448 0.6019 0.0
O307 O 0.27096 0.49856 0.58275 0.0
O308 O 0.29454 0.47517 0.55519 0.0
O309 O 0.22809 0.47539 0.62463 0.0
O310 O 0.25264 0.5006 0.64319 0.0
C311 C 0.22935 0.49345 0.64093 0.0
O312 O 0.33021 0.48756 0.61942 0.0
O313 O 0.29885 0.46828 0.64207 0.0
O314 O 0.3524 0.44258 0.56392 0.0
O315 O 0.32908 0.43075 0.59616 0.0
H316 H 0.35555 0.37463 0.5792 0.0
H317 H 0.42822 0.37514 0.61459 0.0
H318 H 0.3883 0.4448 0.60343 0.0
O319 O 0.07395 0.25413 0.60429 0.0
Tb320 Tb 0.04054 0.26817 0.62324 0.0
Eu321 Eu 0.04626 0.32562 0.58671 0.0
C322 C 0.07117 0.23571 0.588 0.0
O323 O 0.04828 0.22976 0.58087 0.0
C324 C 0.02068 0.27609 0.56926 0.0
O325 O 0.0178 0.35548 0.57648 0.0
C326 C 0.09154 0.34358 0.58499 0.0
C327 C 0.99442 0.34916 0.57123 0.0
O328 O 0.98901 0.32529 0.56796 0.0
C329 C 0.0335 0.32163 0.64644 0.0
C330 C 0.1048 0.36604 0.59435 0.0
C331 C 0.13098 0.36827 0.59092 0.0
C332 C 0.14361 0.39003 0.59896 0.0
C333 C 0.12982 0.40971 0.60984 0.0
C334 C 0.10362 0.40806 0.61283 0.0
C335 C 0.09122 0.38591 0.60548 0.0
O336 O 0.01388 0.27453 0.59295 0.0
O337 O 0.0384 0.29185 0.56256 0.0
O338 O 0.00933 0.2434 0.63399 0.0
O339 O 0.04532 0.2368 0.64967 0.0
C340 C 0.0222 0.22891 0.64888 0.0
O341 O 0.02769 0.33123 0.62438 0.0
O342 O 0.04475 0.29971 0.64889 0.0
O343 O 0.07448 0.3479 0.5675 0.0
O344 O 0.0843 0.327 0.60202 0.0
H345 H 0.14146 0.35321 0.58199 0.0
H346 H 0.13961 0.4266 0.61579 0.0
H347 H 0.07099 0.3844 0.6077 0.0
O348 O 0.26028 0.44677 0.90224 0.0
Tb349 Tb 0.24967 0.4863 0.89934 0.0
Eu350 Eu 0.19172 0.46397 0.92624 0.0
C351 C 0.27394 0.43957 0.92169 0.0
O352 O 0.27508 0.45451 0.94131 0.0
C353 C 0.23626 0.49348 0.95587 0.0
O354 O 0.16495 0.49706 0.9282 0.0
C355 C 0.16705 0.42303 0.9363 0.0
C356 C 0.17317 0.52039 0.92918 0.0
O357 O 0.19747 0.52457 0.92897 0.0
C358 C 0.19854 0.48772 0.87211 0.0
C359 C 0.14533 0.40965 0.92503 0.0
C360 C 0.14421 0.38314 0.92567 0.0
C361 C 0.1234 0.37042 0.91533 0.0
C362 C 0.10346 0.38444 0.90517 0.0
C363 C 0.10393 0.4108 0.90494 0.0
C364 C 0.12521 0.42333 0.91432 0.0
O365 O 0.24493 0.50405 0.93534 0.0
O366 O 0.22151 0.47349 0.95573 0.0
O367 O 0.26802 0.49737 0.86433 0.0
O368 O 0.28547 0.50652 0.89913 0.0
C369 C 0.28724 0.50822 0.87478 0.0
O370 O 0.19184 0.467 0.88373 0.0
O371 O 0.21674 0.50158 0.88102 0.0
O372 O 0.16201 0.44492 0.9467 0.0
O373 O 0.18815 0.42308 0.92329 0.0
H374 H 0.15942 0.37247 0.93413 0.0
H375 H 0.08716 0.37468 0.89771 0.0
H376 H 0.12575 0.44371 0.91395 0.0
O377 O 0.07485 0.26035 0.90051 0.0
Tb378 Tb 0.0356 0.24883 0.8975 0.0
Eu379 Eu 0.05612 0.18835 0.92429 0.0
C380 C 0.08225 0.27228 0.92096 0.0
O381 O 0.06818 0.27066 0.94118 0.0
C382 C 0.02785 0.23391 0.95424 0.0
O383 O 0.02167 0.16326 0.92332 0.0
C384 C 0.09605 0.16213 0.93482 0.0
C385 C 0.99879 0.17266 0.92515 0.0
O386 O 0.99595 0.19703 0.9275 0.0
C387 C 0.0353 0.19757 0.86995 0.0
C388 C 0.11101 0.14202 0.92253 0.0
C389 C 0.1374 0.14148 0.92556 0.0
C390 C 0.1518 0.1223 0.91434 0.0
C391 C 0.13957 0.10337 0.90073 0.0
C392 C 0.11333 0.10299 0.89829 0.0
C393 C 0.09909 0.12276 0.90862 0.0
O394 O 0.01811 0.2436 0.93368 0.0
O395 O 0.04634 0.21725 0.95442 0.0
O396 O 0.0143 0.28405 0.89884 0.0
O397 O 0.02374 0.26844 0.86332 0.0
C398 C 0.01236 0.28687 0.87462 0.0
O399 O 0.05587 0.19139 0.88205 0.0
O400 O 0.0213 0.21625 0.87779 0.0
O401 O 0.0733 0.15596 0.9424 0.0
O402 O 0.09709 0.18465 0.92452 0.0
H403 H 0.14666 0.1558 0.93673 0.0
H404 H 0.15059 0.08814 0.89273 0.0
H405 H 0.07879 0.12262 0.90665 0.0
O406 O 0.25861 0.06782 0.90779 0.0
Tb407 Tb 0.26641 0.02806 0.90136 0.0
Eu408 Eu 0.32472 0.04618 0.9287 0.0
C409 C 0.24486 0.07435 0.92739 0.0
O410 O 0.24201 0.05797 0.94563 0.0
C411 C 0.27849 0.01823 0.95813 0.0
O412 O 0.34969 0.01171 0.92911 0.0
C413 C 0.35061 0.08567 0.94099 0.0
C414 C 0.34014 0.9889 0.93037 0.0
O415 O 0.31564 0.98617 0.93131 0.0
C416 C 0.31735 0.02517 0.87391 0.0
C417 C 0.37156 0.10054 0.93022 0.0
C418 C 0.3717 0.12692 0.93295 0.0
C419 C 0.39175 0.14116 0.92326 0.0
C420 C 0.41197 0.12889 0.91163 0.0
C421 C 0.41238 0.10268 0.90911 0.0
C422 C 0.39185 0.08855 0.91792 0.0
O423 O 0.26811 0.0098 0.93739 0.0
O424 O 0.29592 0.03589 0.95872 0.0
O425 O 0.24379 0.02644 0.86716 0.0
O426 O 0.23197 1.00553 0.89908 0.0
C427 C 0.22676 0.01123 0.87587 0.0
O428 O 0.32423 0.04543 0.88616 0.0
O429 O 0.2983 0.01182 0.88187 0.0
O430 O 0.35623 0.06277 0.94855 0.0
O431 O 0.32872 0.0871 0.92941 0.0
H432 H 0.35631 0.13631 0.94252 0.0
H433 H 0.42763 0.1399 0.90453 0.0
H434 H 0.39199 0.06828 0.91571 0.0
O435 O 0.43301 0.25365 0.90822 0.0
Tb436 Tb 0.46983 0.26815 0.8973 0.0
Eu437 Eu 0.46458 0.32658 0.9312 0.0
C438 C 0.43082 0.23931 0.92836 0.0
O439 O 0.44932 0.23895 0.94467 0.0
C440 C 0.48701 0.27616 0.95359 0.0
O441 O 0.49342 0.35614 0.94077 0.0
C442 C 0.41957 0.34552 0.92998 0.0
C443 C 0.51654 0.34927 0.94654 0.0
O444 O 0.5212 0.32533 0.95056 0.0
C445 C 0.4763 0.32037 0.87259 0.0
C446 C 0.40706 0.36755 0.91857 0.0
C447 C 0.3807 0.37033 0.92029 0.0
C448 C 0.36884 0.39189 0.91044 0.0
C449 C 0.38363 0.41082 0.8996 0.0
C450 C 0.40992 0.40867 0.89844 0.0
C451 C 0.42155 0.3867 0.90741 0.0
O452 O 0.49371 0.26953 0.93067 0.0
O453 O 0.47077 0.29432 0.95779 0.0
O454 O 0.46908 0.23015 0.88187 0.0
O455 O 0.49963 0.25376 0.87231 0.0
C456 C 0.48994 0.23153 0.86928 0.0
O457 O 0.48443 0.32935 0.89406 0.0
O458 O 0.46309 0.29949 0.87167 0.0
O459 O 0.4361 0.3507 0.94772 0.0
O460 O 0.42711 0.32768 0.91444 0.0
H461 H 0.36952 0.35591 0.92939 0.0
H462 H 0.37462 0.42776 0.89257 0.0
H463 H 0.44188 0.38491 0.9066 0.0
O464 O 0.60573 0.25605 0.07585 0.0
Tb465 Tb 0.61207 0.24918 0.03595 0.0
Eu466 Eu 0.58536 0.18953 0.05285 0.0
C467 C 0.58554 0.2686 0.08297 0.0
O468 O 0.56656 0.27021 0.06726 0.0
C469 C 0.55512 0.23624 0.02529 0.0
O470 O 0.58641 0.16539 0.01787 0.0
C471 C 0.57441 0.16275 0.09223 0.0
C472 C 0.58426 0.17562 0.9954 0.0
O473 O 0.58158 0.20007 0.99354 0.0
C474 C 0.64009 0.19871 0.03285 0.0
C475 C 0.58711 0.14304 0.10747 0.0
C476 C 0.58341 0.14231 0.13377 0.0
C477 C 0.59505 0.12352 0.14838 0.0
C478 C 0.60972 0.10515 0.1365 0.0
C479 C 0.61294 0.10497 0.11036 0.0
C480 C 0.60216 0.12437 0.0959 0.0
O481 O 0.57569 0.248 0.01823 0.0
O482 O 0.55456 0.21731 0.04149 0.0
O483 O 0.64623 0.27193 0.03505 0.0
O484 O 0.61485 0.28358 0.01329 0.0
C485 C 0.63792 0.28884 0.01947 0.0
O486 O 0.62771 0.19144 0.05286 0.0
O487 O 0.63194 0.21771 0.01952 0.0
O488 O 0.56791 0.15642 0.06919 0.0
O489 O 0.58362 0.1857 0.09377 0.0
H490 H 0.57146 0.15617 0.14279 0.0
H491 H 0.6181 0.09027 0.14773 0.0
H492 H 0.60475 0.12441 0.07567 0.0
O493 O 0.60717 0.25516 0.43357 0.0
Tb494 Tb 0.6165 0.26817 0.47128 0.0
Eu495 Eu 0.58427 0.32887 0.46574 0.0
C496 C 0.58644 0.24209 0.42985 0.0
O497 O 0.56853 0.24339 0.4468 0.0
C498 C 0.56133 0.27958 0.48869 0.0
O499 O 0.57543 0.35708 0.49618 0.0
C500 C 0.58475 0.34811 0.42092 0.0
C501 C 0.57269 0.34856 0.51929 0.0
O502 O 0.57287 0.32414 0.52293 0.0
C503 C 0.64308 0.32034 0.47516 0.0
C504 C 0.59716 0.36819 0.40629 0.0
C505 C 0.59528 0.36785 0.37985 0.0
C506 C 0.60603 0.3872 0.36542 0.0
C507 C 0.61815 0.4071 0.37766 0.0
C508 C 0.61949 0.40825 0.40396 0.0
C509 C 0.60948 0.38839 0.41832 0.0
O510 O 0.5843 0.2739 0.49598 0.0
O511 O 0.55698 0.29736 0.47213 0.0
O512 O 0.62299 0.22772 0.47476 0.0
O513 O 0.64494 0.25232 0.49699 0.0
C514 C 0.64062 0.22886 0.49158 0.0
O515 O 0.6222 0.33013 0.4839 0.0
O516 O 0.64372 0.29811 0.46425 0.0
O517 O 0.5691 0.35547 0.43871 0.0
O518 O 0.59873 0.3286 0.42736 0.0
H519 H 0.58521 0.35276 0.37055 0.0
H520 H 0.62581 0.42245 0.36657 0.0
H521 H 0.6104 0.3891 0.43869 0.0
O522 O 0.25717 0.60904 0.43551 0.0
Tb523 Tb 0.24468 0.61807 0.47347 0.0
Eu524 Eu 0.18522 0.58528 0.46716 0.0
C525 C 0.27012 0.58828 0.43145 0.0
O526 O 0.26902 0.57023 0.44826 0.0
C527 C 0.2347 0.56227 0.4906 0.0
O528 O 0.15585 0.57595 0.49637 0.0
C529 C 0.16725 0.58641 0.4217 0.0
C530 C 0.16361 0.57164 0.51953 0.0
O531 O 0.18791 0.56997 0.52368 0.0
C532 C 0.19317 0.64358 0.48158 0.0
C533 C 0.14648 0.5976 0.40695 0.0
C534 C 0.145 0.59302 0.3808 0.0
C535 C 0.12469 0.60257 0.3667 0.0
C536 C 0.10571 0.61603 0.37899 0.0
C537 C 0.10652 0.62012 0.40497 0.0
C538 C 0.12721 0.61134 0.41894 0.0
O539 O 0.24102 0.58513 0.4976 0.0
O540 O 0.21688 0.55808 0.47401 0.0
O541 O 0.28472 0.62722 0.47506 0.0
O542 O 0.26019 0.64516 0.50072 0.0
C543 C 0.28349 0.64307 0.49354 0.0
O544 O 0.18309 0.62197 0.48785 0.0
O545 O 0.2139 0.64476 0.46811 0.0
O546 O 0.16067 0.56952 0.43863 0.0
O547 O 0.18518 0.60172 0.42952 0.0
H548 H 0.15939 0.58191 0.37154 0.0
H549 H 0.08965 0.62281 0.36829 0.0
H550 H 0.12786 0.61439 0.4391 0.0
O551 O 0.90784 0.25793 0.44316 0.0
Tb552 Tb 0.89646 0.25018 0.48168 0.0
Eu553 Eu 0.92683 0.19112 0.46755 0.0
C554 C 0.92728 0.27282 0.43942 0.0
O555 O 0.94293 0.27649 0.45819 0.0
C556 C 0.95036 0.23638 0.49848 0.0
O557 O 0.92945 0.16763 0.50299 0.0
C558 C 0.94174 0.1655 0.42877 0.0
C559 C 0.92139 0.17687 0.52451 0.0
O560 O 0.91178 0.1996 0.5248 0.0
C561 C 0.86826 0.19806 0.48319 0.0
C562 C 0.93209 0.14365 0.41443 0.0
C563 C 0.9349 0.14279 0.38806 0.0
C564 C 0.92572 0.12213 0.37437 0.0
C565 C 0.91443 0.10206 0.3872 0.0
C566 C 0.91192 0.1023 0.41347 0.0
C567 C 0.92032 0.12341 0.42697 0.0
O568 O 0.92818 0.24398 0.50602 0.0
O569 O 0.95331 0.22302 0.47786 0.0
O570 O 0.89536 0.28521 0.50336 0.0
O571 O 0.86336 0.27452 0.482 0.0
C572 C 0.87255 0.29141 0.49707 0.0
O573 O 0.88436 0.18772 0.46747 0.0
O574 O 0.87213 0.22001 0.49373 0.0
O575 O 0.94936 0.16089 0.45188 0.0
O576 O 0.92892 0.18664 0.42673 0.0
H577 H 0.94402 0.15817 0.37825 0.0
H578 H 0.90759 0.08606 0.37656 0.0
H579 H 0.91814 0.12384 0.44724 0.0
O580 O 0.25485 0.90894 0.43726 0.0
Tb581 Tb 0.2674 0.8983 0.47474 0.0
Eu582 Eu 0.32676 0.93127 0.47038 0.0
C583 C 0.24132 0.92949 0.43417 0.0
O584 O 0.24186 0.9467 0.45183 0.0
C585 C 0.27706 0.95363 0.49349 0.0
O586 O 0.35531 0.94114 0.50007 0.0
C587 C 0.34553 0.93268 0.42537 0.0
C588 C 0.34725 0.94371 0.52335 0.0
O589 O 0.32292 0.94284 0.52757 0.0
C590 C 0.31864 0.87263 0.48241 0.0
C591 C 0.3669 0.92317 0.4105 0.0
C592 C 0.36876 0.9298 0.38488 0.0
C593 C 0.38983 0.92237 0.37079 0.0
C594 C 0.40905 0.90867 0.38242 0.0
C595 C 0.40753 0.90208 0.40784 0.0
C596 C 0.38627 0.90905 0.42192 0.0
O597 O 0.26993 0.93076 0.49963 0.0
O598 O 0.29475 0.95789 0.47685 0.0
O599 O 0.22798 0.88674 0.47469 0.0
O600 O 0.25228 0.871 0.50202 0.0
C601 C 0.22929 0.87144 0.49365 0.0
O602 O 0.32891 0.89379 0.48977 0.0
O603 O 0.29851 0.87241 0.46807 0.0
O604 O 0.35124 0.94902 0.44308 0.0
O605 O 0.32814 0.91631 0.4322 0.0
H606 H 0.3541 0.94094 0.37605 0.0
H607 H 0.42544 0.90312 0.37155 0.0
H608 H 0.38506 0.90405 0.44166 0.0
O609 O 0.91732 0.25472 0.07632 0.0
Tb610 Tb 0.90208 0.26802 0.0408 0.0
Eu611 Eu 0.93693 0.32612 0.04513 0.0
C612 C 0.93476 0.23714 0.07625 0.0
O613 O 0.94609 0.23185 0.05497 0.0
C614 C 0.95817 0.27504 0.0232 0.0
O615 O 0.94628 0.35495 0.01551 0.0
C616 C 0.93742 0.34494 0.09009 0.0
C617 C 0.95116 0.34749 0.99239 0.0
O618 O 0.95517 0.32345 0.98829 0.0
C619 C 0.8779 0.32103 0.03385 0.0
C620 C 0.92697 0.36619 0.10453 0.0
C621 C 0.93273 0.36816 0.13033 0.0
C622 C 0.92427 0.38893 0.14421 0.0
C623 C 0.91037 0.40778 0.13223 0.0
C624 C 0.90477 0.40639 0.10653 0.0
C625 C 0.91274 0.38527 0.09267 0.0
O626 O 0.93503 0.26943 0.01645 0.0
O627 O 0.963 0.29337 0.039 0.0
O628 O 0.87849 0.23458 0.04585 0.0
O629 O 0.88585 0.24741 0.0089 0.0
C630 C 0.87451 0.23029 0.02213 0.0
O631 O 0.8994 0.33044 0.02631 0.0
O632 O 0.87649 0.29953 0.04593 0.0
O633 O 0.9541 0.35077 0.07268 0.0
O634 O 0.92158 0.32713 0.08314 0.0
H635 H 0.94404 0.35382 0.13946 0.0
H636 H 0.90414 0.42395 0.14305 0.0
H637 H 0.90864 0.38408 0.07272 0.0
O638 O 0.25837 0.90162 0.08151 0.0
Tb639 Tb 0.24625 0.89274 0.04347 0.0
Eu640 Eu 0.18761 0.92685 0.04977 0.0
C641 C 0.27154 0.92214 0.08574 0.0
O642 O 0.27067 0.94036 0.06911 0.0
C643 C 0.2376 0.9484 0.02684 0.0
O644 O 0.1579 0.93651 0.02105 0.0
C645 C 0.1688 0.9262 0.09475 0.0
C646 C 0.1646 0.94206 0.99784 0.0
O647 O 0.18852 0.94589 0.99297 0.0
C648 C 0.19397 0.86799 0.03735 0.0
C649 C 0.1465 0.91555 0.10734 0.0
C650 C 0.14431 0.91682 0.13372 0.0
C651 C 0.12253 0.90781 0.14575 0.0
C652 C 0.1028 0.89818 0.13111 0.0
C653 C 0.10442 0.89747 0.10475 0.0
C654 C 0.12659 0.90567 0.09296 0.0
O655 O 0.24233 0.9254 0.0191 0.0
O656 O 0.22009 0.95301 0.0436 0.0
O657 O 0.28634 0.88391 0.04174 0.0
O658 O 0.26171 0.86482 0.01702 0.0
C659 C 0.28506 0.86736 0.02389 0.0
O660 O 0.18463 0.88965 0.02999 0.0
O661 O 0.2154 0.86657 0.04963 0.0
O662 O 0.16405 0.94407 0.07822 0.0
O663 O 0.18618 0.91011 0.08723 0.0
H664 H 0.15937 0.92494 0.14481 0.0
H665 H 0.08577 0.89172 0.14031 0.0
H666 H 0.12802 0.90524 0.07261 0.0
O667 O 0.25395 0.60652 0.0794 0.0
Tb668 Tb 0.26921 0.61427 0.04215 0.0
Eu669 Eu 0.33121 0.5805 0.04641 0.0
C670 C 0.24052 0.58601 0.08305 0.0
O671 O 0.2415 0.56815 0.06603 0.0
C672 C 0.2807 0.55969 0.02597 0.0
O673 O 0.36073 0.57203 0.01702 0.0
C674 C 0.34912 0.58346 0.09174 0.0
C675 C 0.35355 0.56569 0.99414 0.0
O676 O 0.32973 0.56034 0.99028 0.0
C677 C 0.32109 0.63882 0.03304 0.0
C678 C 0.36921 0.59553 0.10663 0.0
C679 C 0.36916 0.59269 0.13303 0.0
C680 C 0.38848 0.60326 0.14766 0.0
C681 C 0.40807 0.6161 0.13565 0.0
C682 C 0.40874 0.61855 0.10946 0.0
C683 C 0.38905 0.60864 0.09487 0.0
O684 O 0.27892 0.58293 0.01773 0.0
O685 O 0.29911 0.5536 0.04121 0.0
O686 O 0.23063 0.61534 0.028 0.0
O687 O 0.25405 0.64679 0.02142 0.0
C688 C 0.23173 0.63747 0.01781 0.0
O689 O 0.33047 0.61725 0.02548 0.0
O690 O 0.30085 0.63994 0.04731 0.0
O691 O 0.35637 0.56633 0.07533 0.0
O692 O 0.33077 0.59805 0.08347 0.0
H693 H 0.35429 0.5821 0.14213 0.0
H694 H 0.42347 0.62363 0.14675 0.0
H695 H 0.38951 0.61049 0.07456 0.0
O696 O 0.93719 0.41156 0.7561 0.0
Tb697 Tb 0.97322 0.39914 0.77117 0.0
Eu698 Eu 0.96594 0.43425 0.82959 0.0
C699 C 0.93629 0.43193 0.74198 0.0
O700 O 0.95549 0.44745 0.74255 0.0
C701 C 0.99525 0.45083 0.78271 0.0
O702 O 0.99457 0.44159 0.86011 0.0
C703 C 0.92041 0.43553 0.84673 0.0
C704 C 0.0169 0.45086 0.85461 0.0
O705 O 0.02062 0.46052 0.8322 0.0
C706 C 0.97427 0.37437 0.82385 0.0
C707 C 0.90766 0.42364 0.86832 0.0
C708 C 0.88125 0.42464 0.87048 0.0
C709 C 0.86917 0.4136 0.8913 0.0
C710 C 0.8838 0.40231 0.91019 0.0
C711 C 0.91013 0.4016 0.9085 0.0
C712 C 0.92199 0.41181 0.88723 0.0
O713 O 1.00093 0.42685 0.78228 0.0
O714 O 0.97631 0.4585 0.79652 0.0
O715 O 0.98482 0.39677 0.73184 0.0
O716 O 0.9925 0.36589 0.75582 0.0
C717 C 0.99475 0.37452 0.73304 0.0
O718 O 0.98225 0.39548 0.83386 0.0
O719 O 0.96362 0.37351 0.80151 0.0
O720 O 0.93755 0.4525 0.85256 0.0
O721 O 0.92748 0.4202 0.82852 0.0
H722 H 0.87018 0.43392 0.85606 0.0
H723 H 0.87464 0.39438 0.92662 0.0
H724 H 0.94234 0.41121 0.88575 0.0
O725 O 0.11427 0.9403 0.75595 0.0
Tb726 Tb 0.11571 0.9797 0.76705 0.0
Eu727 Eu 0.08557 0.95876 0.82528 0.0
C728 C 0.09479 0.93211 0.74297 0.0
O729 O 0.07419 0.94574 0.74279 0.0
C730 C 0.05789 0.98533 0.77713 0.0
O731 O 0.08833 0.99339 0.84984 0.0
C732 C 0.07271 0.92027 0.85239 0.0
C733 C 0.07924 0.0156 0.84356 0.0
O734 O 0.06673 0.01814 0.82243 0.0
C735 C 0.14062 0.97835 0.81888 0.0
C736 C 0.0833 0.90677 0.87434 0.0
C737 C 0.08043 0.88048 0.87633 0.0
C738 C 0.09041 0.86752 0.89712 0.0
C739 C 0.10256 0.88101 0.91619 0.0
C740 C 0.10524 0.9072 0.91475 0.0
C741 C 0.09607 0.91998 0.8935 0.0
O742 O 0.07874 0.99613 0.76945 0.0
O743 O 0.05711 0.96753 0.79447 0.0
O744 O 0.1512 0.99133 0.74971 0.0
O745 O 0.11678 1.00152 0.73219 0.0
C746 C 0.14115 1.00313 0.7308 0.0
O747 O 0.128 0.9579 0.82432 0.0
O748 O 0.13256 0.9935 0.80127 0.0
O749 O 0.0644 0.94324 0.85656 0.0
O750 O 0.08516 0.9181 0.83106 0.0
H751 H 0.07062 0.87015 0.86174 0.0
H752 H 0.10995 0.87098 0.9324 0.0
H753 H 0.09838 0.9402 0.89217 0.0
O754 O 0.58088 0.11095 0.75543 0.0
Tb755 Tb 0.54285 0.12004 0.7679 0.0
Eu756 Eu 0.54987 0.08787 0.82712 0.0
C757 C 0.5848 0.09052 0.74192 0.0
O758 O 0.56763 0.0728 0.74222 0.0
C759 C 0.52611 0.06392 0.7784 0.0
O760 O 0.52138 0.07795 0.85698 0.0
C761 C 0.59556 0.09041 0.84428 0.0
C762 C 0.49781 0.07547 0.84965 0.0
O763 O 0.49286 0.07664 0.82548 0.0
C764 C 0.53395 0.14566 0.81921 0.0
C765 C 0.61019 0.10219 0.86475 0.0
C766 C 0.63667 0.09976 0.86505 0.0
C767 C 0.65078 0.10977 0.88508 0.0
C768 C 0.63817 0.1215 0.905 0.0
C769 C 0.61191 0.12343 0.90532 0.0
C770 C 0.59789 0.11425 0.8849 0.0
O771 O 0.51925 0.08658 0.77105 0.0
O772 O 0.54309 0.06027 0.79596 0.0
O773 O 0.54261 0.13045 0.72815 0.0
O774 O 0.51467 0.14596 0.75182 0.0
C775 C 0.52315 0.14515 0.72889 0.0
O776 O 0.52813 0.12392 0.82923 0.0
O777 O 0.54739 0.14711 0.79848 0.0
O778 O 0.57928 0.07305 0.85124 0.0
O779 O 0.58701 0.10535 0.82633 0.0
H780 H 0.6462 0.08989 0.84995 0.0
H781 H 0.64887 0.12853 0.92091 0.0
H782 H 0.57753 0.11565 0.88512 0.0
O783 O 0.40942 0.57618 0.7509 0.0
Tb784 Tb 0.39758 0.54006 0.76613 0.0
Eu785 Eu 0.43445 0.5466 0.82497 0.0
C786 C 0.4293 0.57721 0.73613 0.0
O787 O 0.44458 0.55777 0.73558 0.0
C788 C 0.44982 0.51857 0.77687 0.0
O789 O 0.44222 0.5168 0.85419 0.0
C790 C 0.43795 0.59108 0.84431 0.0
C791 C 0.451 0.4945 0.8479 0.0
O792 O 0.4597 0.49104 0.82505 0.0
C793 C 0.37421 0.5404 0.81971 0.0
C794 C 0.42763 0.60392 0.86665 0.0
C795 C 0.4299 0.6302 0.86875 0.0
C796 C 0.42057 0.64265 0.89006 0.0
C797 C 0.40961 0.62867 0.90953 0.0
C798 C 0.40767 0.6024 0.90806 0.0
C799 C 0.41625 0.59008 0.88625 0.0
O800 O 0.42586 0.51275 0.77703 0.0
O801 O 0.4577 0.53721 0.79092 0.0
O802 O 0.39486 0.52796 0.72702 0.0
O803 O 0.36405 0.52077 0.7512 0.0
C804 C 0.37257 0.51815 0.7284 0.0
O805 O 0.39523 0.53149 0.82923 0.0
O806 O 0.37293 0.55039 0.79706 0.0
O807 O 0.4543 0.57296 0.8489 0.0
O808 O 0.42173 0.58554 0.82634 0.0
H809 H 0.43888 0.64091 0.85388 0.0
H810 H 0.40278 0.63836 0.92616 0.0
H811 H 0.41471 0.56979 0.88482 0.0
O812 O 0.94029 0.10773 0.75534 0.0
Tb813 Tb 0.98059 0.11169 0.7484 0.0
Eu814 Eu 0.96331 0.08474 0.68987 0.0
C815 C 0.93162 0.08773 0.76721 0.0
O816 O 0.94561 0.0674 0.76781 0.0
C817 C 0.98866 0.05382 0.73781 0.0
O818 O 0.99719 0.08401 0.66416 0.0
C819 C 0.92261 0.07359 0.66523 0.0
C820 C 0.01999 0.07902 0.6726 0.0
O821 O 0.0231 0.0737 0.69652 0.0
C822 C 0.98571 0.13875 0.69786 0.0
C823 C 0.90694 0.08568 0.64566 0.0
C824 C 0.8811 0.0798 0.6438 0.0
C825 C 0.86612 0.09143 0.62533 0.0
C826 C 0.8771 0.10861 0.60868 0.0
C827 C 0.90278 0.11406 0.60983 0.0
C828 C 0.91773 0.10275 0.62842 0.0
O829 O 0.99548 0.07414 0.75009 0.0
O830 O 0.97438 0.05379 0.71742 0.0
O831 O 0.98166 0.14604 0.77089 0.0
O832 O 1.00413 0.11497 0.78211 0.0
C833 C 0.99779 0.13798 0.78741 0.0
O834 O 0.96526 0.12726 0.69029 0.0
O835 O 0.99871 0.12936 0.7165 0.0
O836 O 0.94526 0.06649 0.65814 0.0
O837 O 0.92226 0.08405 0.6877 0.0
H838 H 0.87276 0.06624 0.65655 0.0
H839 H 0.86568 0.11717 0.59404 0.0
H840 H 0.93764 0.10714 0.62938 0.0
O841 O 0.41473 0.93604 0.76111 0.0
Tb842 Tb 0.39991 0.97218 0.74868 0.0
Eu843 Eu 0.43424 0.96894 0.69094 0.0
C844 C 0.43242 0.93541 0.77845 0.0
O845 O 0.4444 0.95631 0.78376 0.0
C846 C 0.45596 0.99132 0.74132 0.0
O847 O 0.44442 0.99817 0.66201 0.0
C848 C 0.43419 0.92404 0.6719 0.0
C849 C 0.44759 0.02146 0.66978 0.0
O850 O 0.448 0.0258 0.69409 0.0
C851 C 0.37576 0.98365 0.69643 0.0
C852 C 0.4244 0.91088 0.64955 0.0
C853 C 0.42882 0.88488 0.6466 0.0
C854 C 0.42137 0.87264 0.6244 0.0
C855 C 0.40989 0.88652 0.60519 0.0
C856 C 0.40555 0.91239 0.60776 0.0
C857 C 0.41246 0.92451 0.63019 0.0
O858 O 0.43289 0.99668 0.74865 0.0
O859 O 0.46062 0.97526 0.7232 0.0
O860 O 0.37538 0.96606 0.78125 0.0
O861 O 0.38526 1.00334 0.77147 0.0
C862 C 0.37281 0.98958 0.78734 0.0
O863 O 0.39773 0.9899 0.68716 0.0
O864 O 0.37381 0.97006 0.71701 0.0
O865 O 0.45187 0.94079 0.66735 0.0
O866 O 0.41759 0.9315 0.68885 0.0
H867 H 0.43839 0.87436 0.66124 0.0
H868 H 0.40433 0.87703 0.58799 0.0
H869 H 0.40929 0.94456 0.63226 0.0
O870 O 0.57567 0.40373 0.76076 0.0
Tb871 Tb 0.5389 0.39324 0.7461 0.0
Eu872 Eu 0.54788 0.42936 0.68785 0.0
C873 C 0.5779 0.42448 0.77411 0.0
O874 O 0.55964 0.44112 0.77317 0.0
C875 C 0.51915 0.4462 0.73502 0.0
O876 O 0.51989 0.43883 0.6573 0.0
C877 C 0.59355 0.42996 0.67074 0.0
C878 C 0.49763 0.44821 0.66299 0.0
O879 O 0.49376 0.45668 0.68584 0.0
C880 C 0.53439 0.36994 0.69316 0.0
C881 C 0.60678 0.42004 0.64843 0.0
C882 C 0.63319 0.42195 0.64666 0.0
C883 C 0.64576 0.41317 0.62508 0.0
C884 C 0.63168 0.40331 0.60511 0.0
C885 C 0.60539 0.4018 0.60637 0.0
C886 C 0.59298 0.40969 0.62831 0.0
O887 O 0.51247 0.42245 0.73529 0.0
O888 O 0.53856 0.45313 0.7215 0.0
O889 O 0.52601 0.39215 0.78509 0.0
O890 O 0.51938 0.36038 0.76211 0.0
C891 C 0.51627 0.36982 0.78447 0.0
O892 O 0.52874 0.39193 0.68331 0.0
O893 O 0.5461 0.36781 0.71488 0.0
O894 O 0.57701 0.44792 0.66617 0.0
O895 O 0.58563 0.41323 0.68732 0.0
H896 H 0.64388 0.43021 0.66192 0.0
H897 H 0.64129 0.39699 0.58823 0.0
H898 H 0.57264 0.40842 0.62947 0.0
O899 O 0.09963 0.57417 0.76017 0.0
Tb900 Tb 0.11938 0.54158 0.74516 0.0
Eu901 Eu 0.08241 0.54535 0.68859 0.0
C902 C 0.08345 0.57057 0.77859 0.0
O903 O 0.07692 0.54738 0.78406 0.0
C904 C 0.06637 0.51925 0.73774 0.0
O905 O 0.07234 0.51663 0.65907 0.0
C906 C 0.08137 0.59067 0.67079 0.0
C907 C 0.06519 0.49391 0.66589 0.0
O908 O 0.0592 0.48992 0.68952 0.0
C909 C 0.14189 0.53299 0.6921 0.0
C910 C 0.09102 0.60429 0.64866 0.0
C911 C 0.08874 0.63065 0.64756 0.0
C912 C 0.09725 0.64383 0.62632 0.0
C913 C 0.10737 0.63049 0.60598 0.0
C914 C 0.10932 0.60419 0.60653 0.0
C915 C 0.10154 0.59112 0.62819 0.0
O916 O 0.09035 0.5135 0.73912 0.0
O917 O 0.05896 0.53742 0.72281 0.0
O918 O 0.14746 0.5463 0.775 0.0
O919 O 0.13042 0.51068 0.77017 0.0
C920 C 0.14638 0.5234 0.78351 0.0
O921 O 0.11978 0.52608 0.68351 0.0
O922 O 0.14422 0.54609 0.71294 0.0
O923 O 0.06374 0.57386 0.66617 0.0
O924 O 0.09821 0.58312 0.68745 0.0
H925 H 0.08038 0.64085 0.66313 0.0
H926 H 0.11367 0.64073 0.58947 0.0
H927 H 0.1031 0.57079 0.62888 0.0
O928 O 0.75652 0.93828 0.41234 0.0
Tb929 Tb 0.77129 0.97271 0.39567 0.0
Eu930 Eu 0.82929 0.96775 0.43089 0.0
C931 C 0.74033 0.94002 0.43105 0.0
O932 O 0.73754 0.96192 0.44212 0.0
C933 C 0.78192 0.99651 0.44696 0.0
O934 O 0.86086 0.9944 0.44059 0.0
C935 C 0.84372 0.92117 0.42977 0.0
C936 C 0.85548 0.01711 0.44894 0.0
O937 O 0.83235 0.02194 0.45617 0.0
C938 C 0.82404 0.98259 0.37202 0.0
C939 C 0.86437 0.90599 0.41904 0.0
C940 C 0.86506 0.87984 0.42347 0.0
C941 C 0.88503 0.86525 0.41405 0.0
C942 C 0.90453 0.87706 0.40088 0.0
C943 C 0.90451 0.90309 0.39693 0.0
C944 C 0.88411 0.91755 0.40558 0.0
O945 O 0.78119 1.00161 0.42282 0.0
O946 O 0.79604 0.97792 0.45493 0.0
O947 O 0.74816 0.97554 0.36166 0.0
O948 O 0.73932 0.99865 0.39282 0.0
C949 C 0.73296 0.99276 0.37004 0.0
O950 O 0.8338 0.98805 0.39405 0.0
O951 O 0.80303 0.9697 0.36982 0.0
O952 O 0.85018 0.93696 0.44777 0.0
O953 O 0.82726 0.93063 0.41371 0.0
H954 H 0.85026 0.87092 0.4343 0.0
H955 H 0.92031 0.86592 0.39421 0.0
H956 H 0.88397 0.93773 0.40261 0.0
O957 O 0.57222 0.75851 0.4066 0.0
Tb958 Tb 0.53381 0.76654 0.39491 0.0
Eu959 Eu 0.55084 0.82461 0.42444 0.0
C960 C 0.57567 0.74407 0.42646 0.0
O961 O 0.55664 0.7407 0.44186 0.0
C962 C 0.51809 0.78069 0.44907 0.0
O963 O 0.5169 0.84994 0.42878 0.0
C964 C 0.5917 0.84776 0.43805 0.0
C965 C 0.49442 0.8413 0.42304 0.0
O966 O 0.4924 0.81845 0.41403 0.0
C967 C 0.53254 0.81867 0.36639 0.0
C968 C 0.6071 0.86885 0.42835 0.0
C969 C 0.63279 0.87076 0.43495 0.0
C970 C 0.64707 0.89145 0.42669 0.0
C971 C 0.63555 0.91026 0.41234 0.0
C972 C 0.61017 0.90871 0.40567 0.0
C973 C 0.596 0.88776 0.41329 0.0
O974 O 0.51011 0.77291 0.4271 0.0
O975 O 0.5391 0.79359 0.4516 0.0
O976 O 0.5337 0.74181 0.36211 0.0
O977 O 0.51144 0.73193 0.39374 0.0
C978 C 0.5181 0.72532 0.37116 0.0
O979 O 0.54875 0.82887 0.38209 0.0
O980 O 0.52174 0.7969 0.37066 0.0
O981 O 0.56913 0.8538 0.44628 0.0
O982 O 0.59195 0.82674 0.42492 0.0
H983 H 0.64151 0.85642 0.44656 0.0
H984 H 0.64655 0.92636 0.40623 0.0
H985 H 0.57632 0.88651 0.40805 0.0
O986 O 0.75912 0.57607 0.40244 0.0
Tb987 Tb 0.74882 0.53645 0.40014 0.0
Eu988 Eu 0.68862 0.55504 0.42758 0.0
C989 C 0.76997 0.5846 0.42306 0.0
O990 O 0.76695 0.57192 0.44401 0.0
C991 C 0.73617 0.52944 0.45753 0.0
O992 O 0.66412 0.52023 0.42599 0.0
C993 C 0.66205 0.59458 0.43824 0.0
C994 C 0.67135 0.49821 0.43488 0.0
O995 O 0.69328 0.49624 0.44603 0.0
C996 C 0.69755 0.53436 0.37335 0.0
C997 C 0.64207 0.60957 0.42586 0.0
C998 C 0.64149 0.63587 0.42927 0.0
C999 C 0.62261 0.65039 0.41777 0.0
C1000 C 0.60398 0.63845 0.40351 0.0
C1001 C 0.60373 0.61228 0.40055 0.0
C1002 C 0.62322 0.59788 0.41122 0.0
O1003 O 0.74589 0.51978 0.43695 0.0
O1004 O 0.71771 0.54613 0.45776 0.0
O1005 O 0.76805 0.5258 0.36537 0.0
O1006 O 0.78458 0.51601 0.40039 0.0
C1007 C 0.78701 0.5147 0.3761 0.0
O1008 O 0.69102 0.55489 0.38528 0.0
O1009 O 0.71618 0.52063 0.38172 0.0
O1010 O 0.6559 0.57172 0.44553 0.0
O1011 O 0.68466 0.59589 0.42814 0.0
H1012 H 0.65557 0.64496 0.44087 0.0
H1013 H 0.589 0.64964 0.39524 0.0
H1014 H 0.62322 0.57763 0.40884 0.0
O1015 O 0.9382 0.75807 0.41113 0.0
Tb1016 Tb 0.97794 0.75055 0.4045 0.0
Eu1017 Eu 0.96114 0.69103 0.43227 0.0
C1018 C 0.93172 0.77209 0.43053 0.0
O1019 O 0.94807 0.77497 0.44881 0.0
C1020 C 0.98851 0.73784 0.46134 0.0
O1021 O 0.99613 0.66687 0.43096 0.0
C1022 C 0.92262 0.66337 0.44354 0.0
C1023 C 0.0188 0.67676 0.43237 0.0
O1024 O 0.02112 0.70121 0.43457 0.0
C1025 C 0.98055 0.69961 0.37726 0.0
C1026 C 0.90933 0.64225 0.43108 0.0
C1027 C 0.8828 0.64152 0.431 0.0
C1028 C 0.86999 0.62157 0.41922 0.0
C1029 C 0.88395 0.60199 0.40832 0.0
C1030 C 0.91032 0.60214 0.4086 0.0
C1031 C 0.92297 0.6226 0.41947 0.0
O1032 O 0.99626 0.74872 0.44054 0.0
O1033 O 0.97135 0.71988 0.4622 0.0
O1034 O 0.97896 0.77294 0.3701 0.0
O1035 O 1.00056 0.7849 0.40147 0.0
C1036 C 0.99445 0.78994 0.37832 0.0
O1037 O 0.96064 0.69268 0.38997 0.0
O1038 O 0.9939 0.71887 0.38464 0.0
O1039 O 0.94557 0.65864 0.45161 0.0
O1040 O 0.92037 0.68568 0.43294 0.0
H1041 H 0.87217 0.65646 0.43995 0.0
H1042 H 0.87418 0.58622 0.39983 0.0
H1043 H 0.94338 0.62287 0.4194 0.0
O1044 O 0.75957 0.57381 0.11042 0.0
Tb1045 Tb 0.767 0.53392 0.11686 0.0
Eu1046 Eu 0.82594 0.54857 0.0881 0.0
C1047 C 0.74689 0.58088 0.09025 0.0
O1048 O 0.74565 0.56532 0.07116 0.0
C1049 C 0.7773 0.52295 0.05963 0.0
O1050 O 0.8518 0.51477 0.08701 0.0
C1051 C 0.85017 0.58873 0.07468 0.0
C1052 C 0.84371 0.49204 0.08137 0.0
O1053 O 0.81988 0.48876 0.07577 0.0
C1054 C 0.81849 0.52866 0.14392 0.0
C1055 C 0.87112 0.60422 0.08421 0.0
C1056 C 0.87336 0.62944 0.07633 0.0
C1057 C 0.89416 0.64378 0.08394 0.0
C1058 C 0.9127 0.63286 0.0991 0.0
C1059 C 0.91071 0.60791 0.10717 0.0
C1060 C 0.88965 0.59365 0.10006 0.0
O1061 O 0.76626 0.51602 0.0806 0.0
O1062 O 0.79689 0.53813 0.05855 0.0
O1063 O 0.74337 0.53386 0.15053 0.0
O1064 O 0.73297 0.51094 0.11959 0.0
C1065 C 0.72692 0.51782 0.14223 0.0
O1066 O 0.82734 0.54749 0.13064 0.0
O1067 O 0.79824 0.51669 0.13668 0.0
O1068 O 0.85626 0.56596 0.06716 0.0
O1069 O 0.82889 0.58954 0.08738 0.0
H1070 H 0.85926 0.63771 0.06411 0.0
H1071 H 0.92884 0.64399 0.1048 0.0
H1072 H 0.88807 0.57427 0.10624 0.0
O1073 O 0.93857 0.75339 0.09638 0.0
Tb1074 Tb 0.97149 0.76844 0.11536 0.0
Eu1075 Eu 0.96646 0.82686 0.0794 0.0
C1076 C 0.94188 0.73673 0.07837 0.0
O1077 O 0.96472 0.73344 0.06948 0.0
C1078 C 0.99573 0.7795 0.06469 0.0
O1079 O 0.99493 0.85706 0.07077 0.0
C1080 C 0.92091 0.84409 0.07885 0.0
C1081 C 0.01711 0.8511 0.06145 0.0
O1082 O 0.02039 0.82857 0.05191 0.0
C1083 C 0.97683 0.82207 0.13905 0.0
C1084 C 0.90835 0.86595 0.09052 0.0
C1085 C 0.88199 0.86862 0.08902 0.0
C1086 C 0.87005 0.88966 0.09981 0.0
C1087 C 0.88477 0.90823 0.11135 0.0
C1088 C 0.91103 0.90613 0.11248 0.0
C1089 C 0.92278 0.88466 0.10254 0.0
O1090 O 1.00052 0.77946 0.0889 0.0
O1091 O 0.97699 0.79312 0.05617 0.0
O1092 O 0.97177 0.74419 0.14873 0.0
O1093 O 0.99917 0.73818 0.12053 0.0
C1094 C 0.99092 0.73047 0.14216 0.0
O1095 O 0.98385 0.83198 0.11753 0.0
O1096 O 0.96573 0.80003 0.14068 0.0
O1097 O 0.93765 0.8495 0.06131 0.0
O1098 O 0.92836 0.82621 0.09443 0.0
H1099 H 0.87084 0.85446 0.0795 0.0
H1100 H 0.87574 0.92487 0.11902 0.0
H1101 H 0.9431 0.88288 0.10345 0.0
O1102 O 0.76271 0.94526 0.11018 0.0
Tb1103 Tb 0.75215 0.98485 0.11245 0.0
Eu1104 Eu 0.69327 0.96405 0.08323 0.0
C1105 C 0.77513 0.9372 0.09027 0.0
O1106 O 0.77523 0.95131 0.07 0.0
C1107 C 0.74073 0.99154 0.05475 0.0
O1108 O 0.66711 0.9976 0.08564 0.0
C1109 C 0.66733 0.92424 0.07219 0.0
C1110 C 0.67326 0.0204 0.07807 0.0
O1111 O 0.69526 0.02415 0.06751 0.0
C1112 C 0.70027 0.98508 0.13757 0.0
C1113 C 0.64572 0.91109 0.08391 0.0
C1114 C 0.64411 0.8846 0.08302 0.0
C1115 C 0.62362 0.87208 0.09422 0.0
C1116 C 0.60442 0.88628 0.10546 0.0
C1117 C 0.60545 0.91261 0.10608 0.0
C1118 C 0.62643 0.92493 0.09584 0.0
O1119 O 0.74965 1.00148 0.07556 0.0
O1120 O 0.72313 0.97397 0.05409 0.0
O1121 O 0.76964 0.99571 0.1481 0.0
O1122 O 0.78746 1.00594 0.11388 0.0
C1123 C 0.78879 1.00726 0.13827 0.0
O1124 O 0.69487 0.9643 0.12556 0.0
O1125 O 0.71832 0.99964 0.12946 0.0
O1126 O 0.66258 0.94664 0.06269 0.0
O1127 O 0.68886 0.9232 0.08445 0.0
H1128 H 0.65877 0.8738 0.07381 0.0
H1129 H 0.5883 0.87673 0.11356 0.0
H1130 H 0.6274 0.94529 0.09661 0.0
O1131 O 0.5759 0.76179 0.1112 0.0
Tb1132 Tb 0.53666 0.75097 0.11609 0.0
Eu1133 Eu 0.55545 0.6896 0.08937 0.0
C1134 C 0.58235 0.77376 0.09043 0.0
O1135 O 0.56729 0.77221 0.07091 0.0
C1136 C 0.52636 0.73484 0.06008 0.0
O1137 O 0.5206 0.66507 0.089 0.0
C1138 C 0.59512 0.66302 0.07876 0.0
C1139 C 0.49793 0.67514 0.08944 0.0
O1140 O 0.49572 0.69964 0.09092 0.0
C1141 C 0.53563 0.69959 0.14414 0.0
C1142 C 0.61034 0.64329 0.09147 0.0
C1143 C 0.63682 0.64358 0.0892 0.0
C1144 C 0.6515 0.62481 0.10081 0.0
C1145 C 0.63949 0.60541 0.11399 0.0
C1146 C 0.61324 0.60427 0.1158 0.0
C1147 C 0.59867 0.62362 0.10509 0.0
O1148 O 0.51759 0.74509 0.0808 0.0
O1149 O 0.54521 0.71859 0.05947 0.0
O1150 O 0.52641 0.77124 0.15037 0.0
O1151 O 0.51634 0.78681 0.11498 0.0
C1152 C 0.51527 0.78992 0.13921 0.0
O1153 O 0.55566 0.69267 0.13158 0.0
O1154 O 0.52232 0.71906 0.13699 0.0
O1155 O 0.5722 0.65667 0.07188 0.0
O1156 O 0.59643 0.68591 0.08813 0.0
H1157 H 0.64594 0.65824 0.07836 0.0
H1158 H 0.65073 0.59048 0.12226 0.0
H1159 H 0.57834 0.62288 0.10663 0.0
O1160 O 0.40758 0.75349 0.937 0.0
Tb1161 Tb 0.39717 0.76552 0.97477 0.0
Eu1162 Eu 0.43154 0.82287 0.96935 0.0
C1163 C 0.42752 0.73909 0.93374 0.0
O1164 O 0.44417 0.73766 0.9519 0.0
C1165 C 0.45344 0.7726 0.99217 0.0
O1166 O 0.44169 0.8529 0.99745 0.0
C1167 C 0.43078 0.8402 0.92375 0.0
C1168 C 0.44809 0.84636 0.02049 0.0
O1169 O 0.45286 0.82256 0.02521 0.0
C1170 C 0.37302 0.81764 0.98319 0.0
C1171 C 0.42077 0.86141 0.90894 0.0
C1172 C 0.42715 0.86334 0.88326 0.0
C1173 C 0.41923 0.88421 0.86916 0.0
C1174 C 0.40538 0.90326 0.88087 0.0
C1175 C 0.39931 0.90191 0.90644 0.0
C1176 C 0.40664 0.8807 0.92047 0.0
O1177 O 0.43039 0.76647 0.9989 0.0
O1178 O 0.45785 0.79048 0.97575 0.0
O1179 O 0.38346 0.7269 0.97265 0.0
O1180 O 0.37155 0.74949 1.00314 0.0
C1181 C 0.36995 0.72733 0.99296 0.0
O1182 O 0.39495 0.8265 0.99016 0.0
O1183 O 0.37135 0.79702 0.96965 0.0
O1184 O 0.44835 0.84596 0.94026 0.0
O1185 O 0.41449 0.82338 0.93203 0.0
H1186 H 0.43853 0.84889 0.87441 0.0
H1187 H 0.39969 0.91962 0.87001 0.0
H1188 H 0.40217 0.8796 0.94035 0.0
O1189 O 0.40925 0.76167 0.5759 0.0
Tb1190 Tb 0.3928 0.74618 0.54162 0.0
Eu1191 Eu 0.43069 0.6907 0.54448 0.0
C1192 C 0.42578 0.78004 0.57382 0.0
O1193 O 0.43487 0.78519 0.55144 0.0
C1194 C 0.44771 0.74171 0.52051 0.0
O1195 O 0.44059 0.66145 0.51543 0.0
C1196 C 0.43264 0.67181 0.58939 0.0
C1197 C 0.44506 0.66831 0.49204 0.0
O1198 O 0.44809 0.69231 0.48703 0.0
C1199 C 0.37118 0.6932 0.53416 0.0
C1200 C 0.42386 0.64898 0.60245 0.0
C1201 C 0.42872 0.64595 0.62834 0.0
C1202 C 0.42175 0.62363 0.64062 0.0
C1203 C 0.41036 0.6043 0.62688 0.0
C1204 C 0.40552 0.60695 0.60109 0.0
C1205 C 0.41197 0.62954 0.58895 0.0
O1206 O 0.42383 0.74512 0.51486 0.0
O1207 O 0.45447 0.72491 0.53729 0.0
O1208 O 0.37229 0.78145 0.54661 0.0
O1209 O 0.37023 0.76314 0.51136 0.0
C1210 C 0.36308 0.78277 0.52404 0.0
O1211 O 0.39314 0.68576 0.52563 0.0
O1212 O 0.36925 0.71336 0.54835 0.0
O1213 O 0.45021 0.66811 0.57228 0.0
O1214 O 0.41525 0.68815 0.5824 0.0
H1215 H 0.43804 0.66075 0.63881 0.0
H1216 H 0.40507 0.58706 0.63646 0.0
H1217 H 0.40834 0.63174 0.56899 0.0
O1218 O 0.75412 0.40422 0.57205 0.0
Tb1219 Tb 0.76477 0.40256 0.53246 0.0
Eu1220 Eu 0.82397 0.43244 0.55184 0.0
C1221 C 0.74171 0.42399 0.58051 0.0
O1222 O 0.74193 0.44465 0.56701 0.0
C1223 C 0.77518 0.46057 0.52625 0.0
O1224 O 0.84875 0.4305 0.51727 0.0
C1225 C 0.85086 0.44493 0.59059 0.0
C1226 C 0.84143 0.43766 0.49467 0.0
O1227 O 0.81894 0.44746 0.4917 0.0
C1228 C 0.81686 0.37788 0.53164 0.0
C1229 C 0.87258 0.43418 0.60433 0.0
C1230 C 0.8746 0.43773 0.63052 0.0
C1231 C 0.89521 0.42773 0.64374 0.0
C1232 C 0.91408 0.41484 0.6306 0.0
C1233 C 0.9126 0.41143 0.60449 0.0
C1234 C 0.89151 0.42068 0.59145 0.0
O1235 O 0.76598 0.4398 0.5165 0.0
O1236 O 0.79352 0.46125 0.54304 0.0
O1237 O 0.74745 0.36671 0.52203 0.0
O1238 O 0.72991 0.40074 0.51065 0.0
C1239 C 0.72856 0.37633 0.50984 0.0
O1240 O 0.82295 0.39009 0.55213 0.0
O1241 O 0.79878 0.38629 0.51725 0.0
O1242 O 0.85538 0.45314 0.56766 0.0
O1243 O 0.82939 0.43272 0.59256 0.0
H1244 H 0.86018 0.44809 0.64058 0.0
H1245 H 0.93012 0.4074 0.64086 0.0
H1246 H 0.89013 0.41785 0.5713 0.0
O1247 O 0.10965 0.75592 0.58255 0.0
Tb1248 Tb 0.11838 0.76869 0.54458 0.0
Eu1249 Eu 0.08455 0.8263 0.54951 0.0
C1250 C 0.0895 0.74208 0.58662 0.0
O1251 O 0.07161 0.74201 0.56962 0.0
C1252 C 0.06143 0.77595 0.52861 0.0
O1253 O 0.07417 0.85656 0.52168 0.0
C1254 C 0.088 0.84388 0.59482 0.0
C1255 C 0.06808 0.85004 0.49857 0.0
O1256 O 0.06387 0.82618 0.49374 0.0
C1257 C 0.14229 0.82036 0.53446 0.0
C1258 C 0.09952 0.86539 0.60786 0.0
C1259 C 0.09773 0.86723 0.63424 0.0
C1260 C 0.10741 0.88838 0.64679 0.0
C1261 C 0.11817 0.90787 0.63267 0.0
C1262 C 0.11957 0.90649 0.60639 0.0
C1263 C 0.11071 0.88497 0.594 0.0
O1264 O 0.08421 0.76897 0.52173 0.0
O1265 O 0.05758 0.79445 0.54446 0.0
O1266 O 0.13281 0.73027 0.54577 0.0
O1267 O 0.14305 0.75335 0.51501 0.0
C1268 C 0.14543 0.73112 0.52491 0.0
O1269 O 0.12024 0.82858 0.5271 0.0
O1270 O 0.14413 0.80034 0.54887 0.0
O1271 O 0.06947 0.84959 0.57933 0.0
O1272 O 0.10345 0.82656 0.58591 0.0
H1273 H 0.08866 0.85241 0.64493 0.0
H1274 H 0.12505 0.92457 0.64217 0.0
H1275 H 0.11173 0.88384 0.57365 0.0
O1276 O 0.75778 0.10226 0.57536 0.0
Tb1277 Tb 0.74408 0.11697 0.53967 0.0
Eu1278 Eu 0.68685 0.08122 0.54492 0.0
C1279 C 0.77352 0.08309 0.57541 0.0
O1280 O 0.77629 0.07013 0.55456 0.0
C1281 C 0.73426 0.06575 0.51589 0.0
O1282 O 0.65571 0.072 0.51761 0.0
C1283 C 0.67126 0.08038 0.59107 0.0
C1284 C 0.66132 0.0645 0.49467 0.0
O1285 O 0.6845 0.05746 0.4898 0.0
C1286 C 0.69082 0.14063 0.5313 0.0
C1287 C 0.64939 0.09052 0.60481 0.0
C1288 C 0.64775 0.08788 0.63115 0.0
C1289 C 0.62656 0.09704 0.64409 0.0
C1290 C 0.60685 0.10811 0.63048 0.0
C1291 C 0.60802 0.11041 0.60423 0.0
C1292 C 0.62958 0.10201 0.59148 0.0
O1293 O 0.73447 0.08986 0.51066 0.0
O1294 O 0.72043 0.05769 0.53462 0.0
O1295 O 0.76437 0.15226 0.53336 0.0
O1296 O 0.77889 0.11873 0.51759 0.0
C1297 C 0.78236 0.14275 0.51982 0.0
O1298 O 0.68096 0.11864 0.52592 0.0
O1299 O 0.7124 0.1428 0.54323 0.0
O1300 O 0.66606 0.06255 0.57463 0.0
O1301 O 0.68768 0.09704 0.5827 0.0
H1302 H 0.66284 0.07881 0.64149 0.0
H1303 H 0.59035 0.11489 0.64045 0.0
H1304 H 0.63068 0.10382 0.57118 0.0
O1305 O 0.10776 0.75592 0.94113 0.0
Tb1306 Tb 0.11945 0.74137 0.97766 0.0
Eu1307 Eu 0.08369 0.6837 0.96924 0.0
C1308 C 0.08727 0.76985 0.93949 0.0
O1309 O 0.07128 0.76952 0.95832 0.0
C1310 C 0.06712 0.73093 0.99871 0.0
O1311 O 0.07566 0.6536 0.99819 0.0
C1312 C 0.07897 0.66668 0.92381 0.0
C1313 C 0.06675 0.65939 0.0206 0.0
O1314 O 0.05818 0.68221 0.02453 0.0
C1315 C 0.1443 0.68841 0.97844 0.0
C1316 C 0.08784 0.64491 0.9091 0.0
C1317 C 0.08064 0.64248 0.88368 0.0
C1318 C 0.0876 0.62098 0.87002 0.0
C1319 C 0.1015 0.60201 0.88182 0.0
C1320 C 0.1088 0.60408 0.90701 0.0
C1321 C 0.10225 0.62579 0.92062 0.0
O1322 O 0.09095 0.73125 1.00503 0.0
O1323 O 0.05991 0.71718 0.97959 0.0
O1324 O 0.12188 0.78109 0.98759 0.0
O1325 O 0.15187 0.75703 0.9981 0.0
C1326 C 0.14349 0.78001 0.99884 0.0
O1327 O 0.12279 0.67779 0.98456 0.0
O1328 O 0.1456 0.71118 0.96874 0.0
O1329 O 0.06302 0.66142 0.94206 0.0
O1330 O 0.09604 0.68356 0.93015 0.0
H1331 H 0.0694 0.65699 0.87473 0.0
H1332 H 0.1068 0.58541 0.87115 0.0
H1333 H 0.10773 0.6275 0.9402 0.0
O1334 O 0.75833 0.11544 0.93866 0.0
Tb1335 Tb 0.76652 0.1194 0.97873 0.0
Eu1336 Eu 0.82533 0.09236 0.96023 0.0
C1337 C 0.74511 0.09598 0.93076 0.0
O1338 O 0.74327 0.07628 0.94551 0.0
C1339 C 0.77762 0.06145 0.98543 0.0
O1340 O 0.85083 0.09108 0.99437 0.0
C1341 C 0.85035 0.08206 0.91951 0.0
C1342 C 0.84248 0.08495 0.01693 0.0
O1343 O 0.8187 0.07897 0.01976 0.0
C1344 C 0.81763 0.14611 0.98322 0.0
C1345 C 0.8702 0.09382 0.90383 0.0
C1346 C 0.86957 0.09091 0.87744 0.0
C1347 C 0.88868 0.10132 0.86237 0.0
C1348 C 0.90874 0.11388 0.8739 0.0
C1349 C 0.91003 0.11645 0.90004 0.0
C1350 C 0.89042 0.10696 0.91501 0.0
O1351 O 0.76624 0.0818 0.99368 0.0
O1352 O 0.79716 0.06155 0.97 0.0
O1353 O 0.74311 0.15315 0.98081 0.0
O1354 O 0.73298 0.12131 1.00264 0.0
C1355 C 0.7269 0.14427 0.9968 0.0
O1356 O 0.8243 0.1348 0.96237 0.0
O1357 O 0.79856 0.13759 0.99623 0.0
O1358 O 0.85717 0.07436 0.94204 0.0
O1359 O 0.82796 0.09275 0.91918 0.0
H1360 H 0.8544 0.08046 0.8687 0.0
H1361 H 0.92396 0.12121 0.86241 0.0
H1362 H 0.89135 0.1091 0.93527 0.0
O1363 O 0.759 0.40106 0.94093 0.0
Tb1364 Tb 0.74988 0.39746 0.98071 0.0
Eu1365 Eu 0.69005 0.42679 0.96358 0.0
C1366 C 0.77122 0.42124 0.93329 0.0
O1367 O 0.77046 0.44142 0.94747 0.0
C1368 C 0.73801 0.45428 0.99012 0.0
O1369 O 0.6653 0.42369 0.99804 0.0
C1370 C 0.66289 0.43981 0.9252 0.0
C1371 C 0.67165 0.43237 0.02036 0.0
O1372 O 0.69305 0.44432 0.02311 0.0
C1373 C 0.69796 0.3715 0.98255 0.0
C1374 C 0.64105 0.42916 0.91166 0.0
C1375 C 0.63944 0.43168 0.88531 0.0
C1376 C 0.61879 0.42163 0.87226 0.0
C1377 C 0.59945 0.4098 0.88568 0.0
C1378 C 0.60052 0.40749 0.91192 0.0
C1379 C 0.62165 0.41671 0.92484 0.0
O1380 O 0.74641 0.43307 0.99962 0.0
O1381 O 0.7203 0.45556 0.97275 0.0
O1382 O 0.76952 0.36276 0.99098 0.0
O1383 O 0.78677 0.39786 0.99893 0.0
C1384 C 0.78919 0.3736 1.00058 0.0
O1385 O 0.69151 0.38442 0.96255 0.0
O1386 O 0.71746 0.3782 0.99596 0.0
O1387 O 0.65862 0.44788 0.94822 0.0
O1388 O 0.68435 0.42758 0.92292 0.0
H1389 H 0.65422 0.44125 0.87502 0.0
H1390 H 0.58335 0.40239 0.87555 0.0
H1391 H 0.62269 0.41466 0.94511 0.0
C1392 C 0.975 0.54327 0.24072 0.0
C1393 C 1.001 0.54165 0.24492 0.0
H1394 H 0.93869 0.52815 0.2482 0.0
C1395 C 0.01066 0.52141 0.25888 0.0
H1396 H 0.96712 0.55876 0.23005 0.0
C1397 C 0.99418 0.5039 0.26987 0.0
C1398 C 0.96795 0.50647 0.26683 0.0
H1399 H 0.03067 0.52004 0.26259 0.0
H1400 H 1.00189 0.48908 0.28155 0.0
C1401 C 0.9587 0.52579 0.25132 0.0
C1402 C 0.99716 1.00397 0.23462 0.0
C1403 C 0.97694 0.01262 0.24928 0.0
H1404 H 0.02842 0.97846 0.23254 0.0
C1405 C 0.97548 1.00576 0.27474 0.0
H1406 H 0.99857 0.00891 0.21489 0.0
C1407 C 0.99307 0.98916 0.28501 0.0
C1408 C 0.01189 0.97877 0.26974 0.0
H1409 H 0.96007 0.01232 0.28639 0.0
H1410 H 0.99072 0.98292 0.30427 0.0
C1411 C 0.0143 0.98674 0.24471 0.0
C1412 C 0.52213 0.0123 0.25884 0.0
C1413 C 0.54257 1.00206 0.27205 0.0
H1414 H 0.48974 1.00447 0.23603 0.0
C1415 C 0.54433 0.97595 0.27521 0.0
H1416 H 0.52065 0.03243 0.25604 0.0
C1417 C 0.52685 0.96009 0.26404 0.0
C1418 C 0.50749 0.97001 0.24902 0.0
H1419 H 0.55998 0.9677 0.28538 0.0
H1420 H 0.52934 0.93997 0.26616 0.0
C1421 C 0.50467 0.9963 0.24727 0.0
C1422 C 0.52883 0.4984 0.27314 0.0
C1423 C 0.53333 0.4965 0.24714 0.0
H1424 H 0.50953 0.51823 0.3025 0.0
C1425 C 0.51833 0.51026 0.23036 0.0
H1426 H 0.54033 0.48798 0.2864 0.0
C1427 C 0.50128 0.52802 0.23959 0.0
C1428 C 0.49853 0.53161 0.26565 0.0
H1429 H 0.52164 0.50924 0.21027 0.0
H1430 H 0.49166 0.54027 0.2264 0.0
C1431 C 0.51122 0.51563 0.28236 0.0
C1432 C 0.23236 0.99585 0.52861 0.0
C1433 C 0.2492 0.01006 0.54312 0.0
H1434 H 0.22825 0.96591 0.50186 0.0
C1435 C 0.27517 0.00748 0.53925 0.0
H1436 H 0.21223 0.99769 0.53122 0.0
C1437 C 0.28425 0.99035 0.52151 0.0
C1438 C 0.26746 0.97471 0.50847 0.0
H1439 H 0.28841 0.01829 0.55034 0.0
H1440 H 0.30438 0.98835 0.51906 0.0
C1441 C 0.24147 0.97779 0.51183 0.0
C1442 C 0.50909 0.27539 0.53621 0.0
C1443 C 0.50639 0.24924 0.53851 0.0
H1444 H 0.52766 0.30567 0.51712 0.0
C1445 C 0.51971 0.2333 0.5222 0.0
H1446 H 0.4989 0.28798 0.5486 0.0
C1447 C 0.53707 0.24332 0.50522 0.0
C1448 C 0.54033 0.26943 0.50343 0.0
H1449 H 0.51781 0.21307 0.5236 0.0
H1450 H 0.54843 0.23067 0.49397 0.0
C1451 C 0.52551 0.28546 0.5183 0.0
C1452 C 0.27165 0.53902 0.50747 0.0
C1453 C 0.24545 0.54105 0.50474 0.0
H1454 H 0.3022 0.5204 0.52617 0.0
C1455 C 0.22971 0.5246 0.5181 0.0
H1456 H 0.28409 0.55159 0.49735 0.0
C1457 C 0.23999 0.50773 0.53552 0.0
C1458 C 0.26616 0.50626 0.5388 0.0
H1459 H 0.20945 0.52581 0.51623 0.0
H1460 H 0.2275 0.49633 0.54689 0.0
C1461 C 0.28196 0.52129 0.52395 0.0
C1462 C 0.96936 0.23663 0.54061 0.0
C1463 C 0.97167 0.24224 0.51496 0.0
H1464 H 0.98329 0.2425 0.5777 0.0
C1465 C 0.99189 0.257 0.50662 0.0
H1466 H 0.95384 0.22529 0.5474 0.0
C1467 C 0.00869 0.26739 0.52414 0.0
C1468 C 1.00539 0.26298 0.55007 0.0
H1469 H 0.99373 0.26177 0.48689 0.0
H1470 H 0.0235 0.27969 0.51749 0.0
C1471 C 0.98614 0.24669 0.55795 0.0
C1472 C 0.24346 0.54619 1.00114 0.0
C1473 C 0.26633 0.53989 0.0128 0.0
H1474 H 0.21529 0.53551 0.97451 0.0
C1475 C 0.27628 0.51559 0.00937 0.0
H1476 H 0.2352 0.56467 1.00369 0.0
C1477 C 0.26477 0.49882 0.99258 0.0
C1478 C 0.24297 0.50603 0.9795 0.0
H1479 H 0.29391 0.51024 0.01812 0.0
H1480 H 0.27394 0.48111 0.98839 0.0
C1481 C 0.23189 0.5294 0.98466 0.0
C1482 C 1.00176 0.2749 1.00504 0.0
C1483 C 0.97911 0.26224 0.01011 0.0
H1484 H 0.03563 0.27537 0.983 0.0
C1485 C 0.97554 0.23793 1.00039 0.0
H1486 H 1.00494 0.2937 0.0122 0.0
C1487 C 0.99345 0.22718 0.98448 0.0
C1488 C 0.015 0.24072 0.97766 0.0
H1489 H 0.95832 0.22768 1.00409 0.0
H1490 H 0.98943 0.20915 0.97591 0.0
C1491 C 0.01943 0.26434 0.98857 0.0
C1492 C 0.24691 0.00894 0.99113 0.0
C1493 C 0.27114 1.00527 0.98128 0.0
H1494 H 0.21733 0.99383 0.01406 0.0
C1495 C 0.28542 0.98455 0.98919 0.0
H1496 H 0.23539 0.02453 0.98476 0.0
C1497 C 0.27485 0.9666 1.00518 0.0
C1498 C 0.25003 0.96943 0.01384 0.0
H1499 H 0.30397 0.98115 0.98142 0.0
H1500 H 0.28565 0.94993 0.00986 0.0
C1501 C 0.23654 0.99132 0.00769 0.0
C1502 C 0.50684 0.27853 0.9962 0.0
C1503 C 0.50005 0.26425 0.97504 0.0
H1504 H 0.53002 0.2805 0.0292 0.0
C1505 C 0.50793 0.23905 0.97346 0.0
H1506 H 0.5011 0.29803 0.9978 0.0
C1507 C 0.52361 0.22876 0.99194 0.0
C1508 C 0.53214 0.24372 0.0119 0.0
H1509 H 0.50283 0.22761 0.95739 0.0
H1510 H 0.53072 0.20981 0.98947 0.0
C1511 C 0.52317 0.26847 0.01426 0.0
C1512 C 0.03806 0.46149 0.76741 0.0
C1513 C 0.0131 0.469 0.77174 0.0
H1514 H 0.07434 0.47151 0.75363 0.0
C1515 C 1.00561 0.49347 0.76507 0.0
H1516 H 0.04446 0.4428 0.77248 0.0
C1517 C 0.02281 0.50998 0.75378 0.0
C1518 C 0.0478 0.50234 0.74953 0.0
H1519 H 0.98642 0.49966 0.76816 0.0
H1520 H 0.01665 0.5287 0.74856 0.0
C1521 C 0.05525 0.47802 0.75667 0.0
C1522 C 1.00014 0.02506 0.77281 0.0
C1523 C 0.9997 0.03014 0.74684 0.0
H1524 H 0.01863 1.00546 0.8029 0.0
C1525 C 0.01486 0.01592 0.73063 0.0
H1526 H 0.98868 0.036 0.78564 0.0
C1527 C 0.03244 0.99905 0.74056 0.0
C1528 C 0.03446 0.99567 0.76672 0.0
H1529 H 0.01505 0.01979 0.7106 0.0
H1530 H 0.0458 0.99017 0.72796 0.0
C1531 C 0.0172 0.00759 0.78268 0.0
C1532 C 0.47846 0.01164 0.77709 0.0
C1533 C 0.47671 1.00677 0.7512 0.0
H1534 H 0.49694 0.03246 0.80619 0.0
C1535 C 0.49334 0.01886 0.73461 0.0
H1536 H 0.46583 1.00253 0.79024 0.0
C1537 C 0.51006 0.03708 0.74357 0.0
C1538 C 0.51131 0.0424 0.76938 0.0
H1539 H 0.49242 0.01534 0.71457 0.0
H1540 H 0.52161 0.04739 0.73031 0.0
C1541 C 0.49613 0.02884 0.78618 0.0
C1542 C 0.49311 0.50733 0.76126 0.0
C1543 C 0.46798 0.50058 0.76597 0.0
H1544 H 0.52919 0.49536 0.74735 0.0
C1545 C 0.46 0.47606 0.76029 0.0
H1546 H 0.49971 0.52615 0.7654 0.0
C1547 C 0.47677 0.45854 0.75045 0.0
C1548 C 0.50185 0.46519 0.74557 0.0
H1549 H 0.44079 0.47019 0.76376 0.0
H1550 H 0.46991 0.43978 0.74644 0.0
C1551 C 0.5099 0.4898 0.75089 0.0
C1552 C 0.76424 1.00644 0.48967 0.0
C1553 C 0.76998 0.014 0.46498 0.0
H1554 H 0.74798 0.01687 0.52517 0.0
C1555 C 0.76391 0.03856 0.45732 0.0
H1556 H 0.76862 0.98757 0.49601 0.0
C1557 C 0.75254 0.05532 0.47399 0.0
C1558 C 0.74648 0.04776 0.49857 0.0
H1559 H 0.76817 0.04498 0.43844 0.0
H1560 H 0.74821 0.07415 0.46746 0.0
C1561 C 0.75234 0.02313 0.50627 0.0
C1562 C 0.49282 0.74902 0.50733 0.0
C1563 C 0.46699 0.75464 0.50504 0.0
H1564 H 0.52982 0.7535 0.49137 0.0
C1565 C 0.45925 0.77184 0.48649 0.0
H1566 H 0.49941 0.73595 0.52154 0.0
C1567 C 0.47652 0.78166 0.46943 0.0
C1568 C 0.50199 0.77494 0.47077 0.0
H1569 H 0.43962 0.77694 0.48434 0.0
H1570 H 0.46973 0.79371 0.45444 0.0
C1571 C 0.51026 0.75919 0.49028 0.0
C1572 C 0.7816 0.5001 0.50243 0.0
C1573 C 0.76538 0.48414 0.51571 0.0
H1574 H 0.78461 0.52745 0.47296 0.0
C1575 C 0.73922 0.48757 0.51367 0.0
H1576 H 0.80181 0.49755 0.50354 0.0
C1577 C 0.72938 0.50522 0.49682 0.0
C1578 C 0.74563 0.51893 0.48126 0.0
H1579 H 0.72641 0.47525 0.52366 0.0
H1580 H 0.70919 0.50617 0.49411 0.0
C1581 C 0.77177 0.51714 0.48498 0.0
C1582 C 0.01872 0.77925 0.50931 0.0
C1583 C 0.03966 0.76448 0.51587 0.0
H1584 H 0.98556 0.78204 0.48646 0.0
C1585 C 0.04068 0.73927 0.50804 0.0
H1586 H 0.01755 0.79877 0.51505 0.0
C1587 C 0.02187 0.72947 0.49253 0.0
C1588 C 1.00215 0.74492 0.48419 0.0
H1589 H 0.05658 0.72748 0.51303 0.0
H1590 H 0.02388 0.71048 0.4854 0.0
C1591 C 1.00032 0.76966 0.49318 0.0
C1592 C 0.784 0.49736 0.02123 0.0
C1593 C 0.76773 0.51146 0.03644 0.0
H1594 H 0.78691 0.46755 0.99427 0.0
C1595 C 0.74163 0.51021 0.0323 0.0
H1596 H 0.80416 0.49789 0.02431 0.0
C1597 C 0.7318 0.49353 0.01454 0.0
C1598 C 0.74798 0.47735 1.00143 0.0
H1599 H 0.72877 0.5209 0.04398 0.0
H1600 H 0.71158 0.49159 0.01288 0.0
C1601 C 0.77415 0.48006 1.00411 0.0
C1602 C 0.03796 0.76131 0.05583 0.0
C1603 C 0.01366 0.76729 0.04731 0.0
H1604 H 0.07381 0.74542 0.04713 0.0
C1605 C 1.00685 0.76117 0.02251 0.0
H1606 H 0.04383 0.76584 0.07482 0.0
C1607 C 0.02407 0.749 1.00662 0.0
C1608 C 0.04845 0.74325 0.0152 0.0
H1609 H 0.98818 0.76547 0.01553 0.0
H1610 H 0.01843 0.74437 0.9876 0.0
C1611 C 0.05521 0.74965 0.03991 0.0
C1612 C 0.73356 0.01521 0.01512 0.0
C1613 C 0.75018 1.00253 0.0312 0.0
H1614 H 0.72956 0.0444 0.98757 0.0
C1615 C 0.77627 1.00559 0.02795 0.0
H1616 H 0.71339 0.01336 0.01754 0.0
C1617 C 0.78556 0.02276 0.01031 0.0
C1618 C 0.76881 0.03761 0.99633 0.0
H1619 H 0.78939 0.99613 0.04038 0.0
H1620 H 0.80563 0.02627 0.00957 0.0
C1621 C 0.74281 0.03295 0.99804 0.0
C1622 C 0.49059 0.72673 0.03176 0.0
C1623 C 0.51226 0.74076 0.03715 0.0
H1624 H 0.45479 0.72597 0.01327 0.0
C1625 C 0.5159 0.76401 0.02522 0.0
H1626 H 0.48719 0.70897 0.04116 0.0
C1627 C 0.49745 0.77373 0.0091 0.0
C1628 C 0.47481 0.76059 1.00533 0.0
H1629 H 0.53218 0.77542 0.02969 0.0
H1630 H 0.50014 0.79227 1.00108 0.0
C1631 C 0.47194 0.73662 0.01608 0.0
C1632 C 0.18585 0.61057 0.12115 0.0
C1633 C 0.1707 0.589 0.12289 0.0
H1634 H 0.22038 0.62647 0.10786 0.0
C1635 C 0.18081 0.56567 0.11584 0.0
H1636 H 0.17828 0.62882 0.1262 0.0
C1637 C 0.20481 0.5643 0.10496 0.0
C1638 C 0.21912 0.58625 0.10106 0.0
H1639 H 0.16933 0.54885 0.11668 0.0
H1640 H 0.21134 0.54632 0.09792 0.0
C1641 C 0.20995 0.60918 0.11058 0.0
C1642 C 0.95478 0.20023 0.09714 0.0
C1643 C 0.9351 0.21792 0.09634 0.0
H1644 H 0.96579 0.16279 0.10742 0.0
C1645 C 0.91321 0.21342 0.11053 0.0
H1646 H 0.97188 0.20327 0.08644 0.0
C1647 C 0.90969 0.19015 0.12228 0.0
C1648 C 0.92824 0.17144 0.12051 0.0
H1649 H 0.89767 0.22663 0.11023 0.0
H1650 H 0.89159 0.18594 0.13067 0.0
C1651 C 0.95138 0.17714 0.10922 0.0
C1652 C 0.3074 0.94284 0.10804 0.0
C1653 C 0.29369 0.92087 0.10261 0.0
H1654 H 0.34293 0.95835 0.11937 0.0
C1655 C 0.30429 0.89738 0.10869 0.0
H1656 H 0.29972 0.96119 0.10355 0.0
C1657 C 0.3291 0.89581 0.11729 0.0
C1658 C 0.3435 0.91768 0.12052 0.0
H1659 H 0.29433 0.88008 0.10466 0.0
H1660 H 0.33758 0.87744 0.11987 0.0
C1661 C 0.3321 0.94125 0.11709 0.0
C1662 C 0.56664 0.30296 0.10906 0.0
C1663 C 0.58767 0.28798 0.10296 0.0
H1664 H 0.55365 0.33875 0.12251 0.0
C1665 C 0.61151 0.29545 0.11163 0.0
H1666 H 0.54796 0.29762 0.10288 0.0
C1667 C 0.6147 0.31903 0.12284 0.0
C1668 C 0.59408 0.33536 0.12587 0.0
H1669 H 0.6281 0.28435 0.10745 0.0
H1670 H 0.6336 0.3255 0.12692 0.0
C1671 C 0.56983 0.32648 0.12046 0.0
C1672 C 0.18024 0.94925 0.40399 0.0
C1673 C 0.16987 0.92573 0.39816 0.0
H1674 H 0.21164 0.969 0.41974 0.0
C1675 C 0.18514 0.90421 0.39946 0.0
H1676 H 0.16868 0.96605 0.4033 0.0
C1677 C 0.2098 0.90586 0.4085 0.0
C1678 C 0.21936 0.92902 0.41697 0.0
H1679 H 0.17741 0.88586 0.39514 0.0
H1680 H 0.22042 0.88863 0.411 0.0
C1681 C 0.20479 0.95088 0.41343 0.0
C1682 C 0.61011 0.21013 0.40455 0.0
C1683 C 0.58695 0.22003 0.41274 0.0
H1684 H 0.62988 0.17756 0.39115 0.0
C1685 C 0.56494 0.20582 0.40879 0.0
H1686 H 0.62744 0.22045 0.40737 0.0
C1687 C 0.56638 0.18133 0.39914 0.0
C1688 C 0.58984 0.17063 0.39346 0.0
H1689 H 0.54681 0.21291 0.41487 0.0
H1690 H 0.54943 0.17006 0.39813 0.0
C1691 C 0.61156 0.18554 0.39527 0.0
C1692 C 0.33051 0.56809 0.4 0.0
C1693 C 0.34142 0.59154 0.39479 0.0
H1694 H 0.29879 0.5486 0.41548 0.0
C1695 C 0.32666 0.61336 0.39699 0.0
H1696 H 0.34161 0.55104 0.3986 0.0
C1697 C 0.30208 0.61202 0.40632 0.0
C1698 C 0.29203 0.58883 0.41414 0.0
H1699 H 0.33476 0.63166 0.39312 0.0
H1700 H 0.29191 0.6294 0.40949 0.0
C1701 C 0.30603 0.56675 0.40971 0.0
C1702 C 0.94429 0.33084 0.40255 0.0
C1703 C 0.92043 0.33852 0.39423 0.0
H1704 H 0.96534 0.30333 0.42324 0.0
C1705 C 0.90021 0.32161 0.3959 0.0
H1706 H 0.96008 0.34369 0.40173 0.0
C1707 C 0.9032 0.2984 0.408 0.0
C1708 C 0.92636 0.292 0.41912 0.0
H1709 H 0.88158 0.32728 0.3898 0.0
H1710 H 0.88672 0.28676 0.41083 0.0
C1711 C 0.94722 0.30777 0.41498 0.0
C1712 C 0.089 0.19903 0.56498 0.0
C1713 C 0.0914 0.21695 0.58427 0.0
H1714 H 0.09807 0.16175 0.5526 0.0
C1715 C 0.10962 0.2131 0.6031 0.0
H1716 H 0.07517 0.20154 0.5502 0.0
C1717 C 0.12265 0.19022 0.60447 0.0
C1718 C 0.11798 0.17122 0.58676 0.0
H1719 H 0.11182 0.22649 0.61829 0.0
H1720 H 0.13442 0.18644 0.62069 0.0
C1721 C 0.10221 0.17632 0.56623 0.0
C1722 C 0.31192 0.10582 0.56981 0.0
C1723 C 0.29702 0.10143 0.59127 0.0
H1724 H 0.34799 0.1173 0.55564 0.0
C1725 C 0.3059 0.1096 0.61482 0.0
H1726 H 0.30561 0.09973 0.55142 0.0
C1727 C 0.33025 0.11928 0.61721 0.0
C1728 C 0.34587 0.12154 0.59604 0.0
H1729 H 0.29502 0.10642 0.63176 0.0
H1730 H 0.3375 0.12338 0.63581 0.0
C1731 C 0.33614 0.11591 0.57218 0.0
C1732 C 0.3996 0.33429 0.56993 0.0
C1733 C 0.39483 0.34429 0.59389 0.0
H1734 H 0.41493 0.30348 0.54887 0.0
C1735 C 0.39791 0.32882 0.6151 0.0
H1736 H 0.39763 0.34599 0.55334 0.0
C1737 C 0.40743 0.30438 0.61258 0.0
C1738 C 0.41464 0.2952 0.58882 0.0
H1739 H 0.39452 0.33624 0.63378 0.0
H1740 H 0.41121 0.29362 0.62948 0.0
C1741 C 0.40956 0.30999 0.56742 0.0
C1742 C 0.20433 0.40944 0.56811 0.0
C1743 C 0.21953 0.41437 0.58924 0.0
H1744 H 0.16823 0.39715 0.55468 0.0
C1745 C 0.21105 0.40656 0.61308 0.0
H1746 H 0.2103 0.41526 0.54951 0.0
C1747 C 0.18687 0.39654 0.616 0.0
C1748 C 0.17097 0.39358 0.59511 0.0
H1749 H 0.22213 0.41019 0.62979 0.0
H1750 H 0.17995 0.39267 0.63478 0.0
C1751 C 0.18029 0.39902 0.57102 0.0
C1752 C 0.10815 0.30618 0.94103 0.0
C1753 C 0.10019 0.29365 0.91907 0.0
H1754 H 0.12242 0.34045 0.95697 0.0
C1755 C 0.10515 0.30482 0.89561 0.0
H1756 H 0.10468 0.29806 0.9594 0.0
C1757 C 0.11511 0.32917 0.89431 0.0
C1758 C 0.12072 0.34263 0.91638 0.0
H1759 H 0.09925 0.2958 0.87833 0.0
H1760 H 0.11669 0.33822 0.8761 0.0
C1761 C 0.11843 0.33043 0.93968 0.0
C1762 C 0.1954 0.11563 0.89807 0.0
C1763 C 0.17923 0.11937 0.9187 0.0
H1764 H 0.22958 0.09898 0.8847 0.0
C1765 C 0.188 0.11366 0.94293 0.0
H1766 H 0.189 0.11984 0.87917 0.0
C1767 C 0.21117 0.10144 0.94613 0.0
C1768 C 0.22597 0.09486 0.92514 0.0
H1769 H 0.17584 0.11617 0.95911 0.0
H1770 H 0.21636 0.09512 0.96481 0.0
C1771 C 0.21867 0.10364 0.90127 0.0
C1772 C 0.40975 0.20357 0.95052 0.0
C1773 C 0.4129 0.21795 0.92848 0.0
H1774 H 0.39975 0.16768 0.96615 0.0
C1775 C 0.40344 0.20851 0.90567 0.0
H1776 H 0.41682 0.21035 0.96839 0.0
C1777 C 0.3939 0.18401 0.90442 0.0
C1778 C 0.39316 0.16879 0.92603 0.0
H1779 H 0.40567 0.21899 0.88833 0.0
H1780 H 0.38903 0.17623 0.88623 0.0
C1781 C 0.39988 0.17919 0.94931 0.0
C1782 C 0.30342 0.41462 0.89457 0.0
C1783 C 0.29403 0.42033 0.91863 0.0
H1784 H 0.3348 0.40088 0.87314 0.0
C1785 C 0.3074 0.41165 0.93983 0.0
H1786 H 0.29373 0.4211 0.87784 0.0
C1787 C 0.33081 0.39974 0.93708 0.0
C1788 C 0.34138 0.39655 0.9131 0.0
H1789 H 0.30066 0.41572 0.95863 0.0
H1790 H 0.3416 0.3951 0.95376 0.0
C1791 C 0.32699 0.40307 0.89185 0.0
C1792 C 0.56704 0.11164 0.18402 0.0
C1793 C 0.59047 0.12053 0.17574 0.0
H1794 H 0.54726 0.09053 0.21208 0.0
C1795 C 0.61107 0.11966 0.19233 0.0
H1796 H 0.55097 0.11183 0.17147 0.0
C1797 C 0.60899 0.10758 0.21566 0.0
C1798 C 0.58636 0.09576 0.22257 0.0
H1799 H 0.62939 0.12622 0.18624 0.0
H1800 H 0.6258 0.10526 0.22696 0.0
C1801 C 0.56501 0.0993 0.20723 0.0
C1802 C 0.6232 0.39416 0.32222 0.0
C1803 C 0.60244 0.38906 0.33782 0.0
H1804 H 0.63612 0.41036 0.28774 0.0
C1805 C 0.57808 0.39176 0.32797 0.0
H1806 H 0.64218 0.39215 0.32942 0.0
C1807 C 0.57454 0.40243 0.30413 0.0
C1808 C 0.59532 0.41045 0.28976 0.0
H1809 H 0.56178 0.38807 0.33964 0.0
H1810 H 0.55552 0.40647 0.29797 0.0
C1811 C 0.61968 0.40459 0.29831 0.0
C1812 C 0.0999 0.56988 0.30949 0.0
C1813 C 0.09523 0.59055 0.29354 0.0
H1814 H 0.11387 0.55745 0.34533 0.0
C1815 C 0.10625 0.61384 0.29951 0.0
H1816 H 0.09175 0.55166 0.30539 0.0
C1817 C 0.1188 0.6171 0.32246 0.0
C1818 C 0.12099 0.59706 0.33961 0.0
H1819 H 0.10302 0.63017 0.28775 0.0
H1820 H 0.12477 0.63583 0.32783 0.0
C1821 C 0.11273 0.5731 0.3323 0.0
C1822 C 0.90687 0.11911 0.33151 0.0
C1823 C 0.92847 0.12012 0.34672 0.0
H1824 H 0.89098 0.10754 0.29637 0.0
C1825 C 0.95184 0.11365 0.33629 0.0
H1826 H 0.8886 0.12377 0.3393 0.0
C1827 C 0.95322 0.104 0.3118 0.0
C1828 C 0.93126 0.10083 0.2973 0.0
H1829 H 0.96867 0.11399 0.34779 0.0
H1830 H 0.97121 0.09726 0.30495 0.0
C1831 C 0.90828 0.10981 0.30691 0.0
C1832 C 0.41874 0.95347 0.31489 0.0
C1833 C 0.41754 0.93385 0.29716 0.0
H1834 H 0.41 0.96534 0.35247 0.0
C1835 C 0.40169 0.91324 0.3021 0.0
H1836 H 0.43066 0.96966 0.31163 0.0
C1837 C 0.38986 0.91087 0.32551 0.0
C1838 C 0.39331 0.92925 0.34412 0.0
H1839 H 0.4003 0.8978 0.28889 0.0
H1840 H 0.3799 0.89363 0.32988 0.0
C1841 C 0.40676 0.95115 0.33822 0.0
C1842 C 0.95376 0.41941 0.20004 0.0
C1843 C 0.93403 0.41764 0.21761 0.0
H1844 H 0.96631 0.41071 0.16268 0.0
C1845 C 0.91409 0.40095 0.21273 0.0
H1846 H 0.96943 0.43201 0.20328 0.0
C1847 C 0.91235 0.38881 0.18942 0.0
C1848 C 0.93076 0.39279 0.17092 0.0
H1849 H 0.89857 0.39917 0.22582 0.0
H1850 H 0.89552 0.37821 0.18502 0.0
C1851 C 0.95211 0.40708 0.17686 0.0
C1852 C 0.11137 0.88898 0.18746 0.0
C1853 C 0.11872 0.9101 0.17333 0.0
H1854 H 0.09409 0.87535 0.22119 0.0
C1855 C 0.11779 0.93394 0.18462 0.0
H1856 H 0.11191 0.87039 0.17913 0.0
C1857 C 0.10728 0.93688 0.20863 0.0
C1858 C 0.0978 0.91598 0.22189 0.0
H1859 H 0.12317 0.95052 0.17406 0.0
H1860 H 0.10491 0.95572 0.21604 0.0
C1861 C 0.10125 0.89185 0.21161 0.0
C1862 C 0.39423 0.57476 0.18453 0.0
C1863 C 0.39053 0.59917 0.17519 0.0
H1864 H 0.40998 0.5522 0.214 0.0
C1865 C 0.39493 0.61977 0.19116 0.0
H1866 H 0.39112 0.55858 0.17255 0.0
C1867 C 0.40563 0.61619 0.21495 0.0
C1868 C 0.41246 0.59192 0.223 0.0
H1869 H 0.39218 0.63879 0.18434 0.0
H1870 H 0.41086 0.6326 0.22581 0.0
C1871 C 0.40517 0.57116 0.20825 0.0
C1872 C 0.82947 0.4385 0.8966 0.0
C1873 C 0.84148 0.41504 0.89493 0.0
H1874 H 0.79724 0.45886 0.90983 0.0
C1875 C 0.82785 0.39325 0.90115 0.0
H1876 H 0.83959 0.45559 0.89203 0.0
C1877 C 0.8035 0.39504 0.91106 0.0
C1878 C 0.7925 0.41872 0.91535 0.0
H1879 H 0.83669 0.37491 0.89992 0.0
H1880 H 0.79432 0.378 0.91741 0.0
C1881 C 0.80523 0.44034 0.90684 0.0
C1882 C 0.06491 0.82996 0.90886 0.0
C1883 C 0.08776 0.83999 0.9003 0.0
H1884 H 0.04672 0.79934 0.92775 0.0
C1885 C 0.10935 0.82471 0.90034 0.0
H1886 H 0.04812 0.84154 0.90931 0.0
C1887 C 0.10858 0.80048 0.91066 0.0
C1888 C 0.0863 0.79134 0.92163 0.0
H1889 H 0.12724 0.83222 0.89407 0.0
H1890 H 0.12598 0.78991 0.91204 0.0
C1891 C 0.0642 0.80584 0.91951 0.0
C1892 C 0.69384 0.1269 0.89292 0.0
C1893 C 0.67838 0.10611 0.8876 0.0
H1894 H 0.72777 0.14003 0.91019 0.0
C1895 C 0.68807 0.08181 0.89117 0.0
H1896 H 0.68673 0.14585 0.89038 0.0
C1897 C 0.71152 0.07843 0.90278 0.0
C1898 C 0.7257 0.09929 0.91089 0.0
H1899 H 0.67647 0.06549 0.88743 0.0
H1900 H 0.71748 0.05948 0.90741 0.0
C1901 C 0.71739 0.12353 0.90429 0.0
C1902 C 0.40173 0.68519 0.89605 0.0
C1903 C 0.42329 0.6701 0.89349 0.0
H1904 H 0.38626 0.71963 0.91001 0.0
C1905 C 0.44689 0.68021 0.89951 0.0
H1906 H 0.38331 0.67761 0.89168 0.0
C1907 C 0.44862 0.70414 0.91037 0.0
C1908 C 0.42677 0.71837 0.91512 0.0
H1909 H 0.46372 0.66878 0.89792 0.0
H1910 H 0.46682 0.71066 0.91681 0.0
C1911 C 0.40347 0.70927 0.9065 0.0
C1912 C 0.83355 0.06305 0.60756 0.0
C1913 C 0.8394 0.08491 0.6211 0.0
H1914 H 0.80756 0.04509 0.58257 0.0
C1915 C 0.82092 0.10361 0.62389 0.0
H1916 H 0.84767 0.04857 0.60484 0.0
C1917 C 0.7979 0.10167 0.61122 0.0
C1918 C 0.79322 0.0812 0.59514 0.0
H1919 H 0.82519 0.12079 0.63397 0.0
H1920 H 0.78492 0.11738 0.61212 0.0
C1921 C 0.81065 0.06121 0.59464 0.0
C1922 C 0.44789 0.83907 0.60574 0.0
C1923 C 0.42643 0.84571 0.61959 0.0
H1924 H 0.46473 0.81243 0.58064 0.0
C1925 C 0.407 0.82804 0.62244 0.0
H1926 H 0.46287 0.8526 0.60292 0.0
C1927 C 0.40807 0.8049 0.60979 0.0
C1928 C 0.42837 0.7994 0.59371 0.0
H1929 H 0.39004 0.83302 0.63261 0.0
H1930 H 0.39188 0.79256 0.61061 0.0
C1931 C 0.44885 0.81613 0.59289 0.0
C1932 C 0.68439 0.43935 0.61949 0.0
C1933 C 0.67338 0.41548 0.62172 0.0
H1934 H 0.71525 0.46078 0.6049 0.0
C1935 C 0.68763 0.39416 0.61519 0.0
H1936 H 0.67371 0.45607 0.6242 0.0
C1937 C 0.71148 0.39676 0.60432 0.0
C1938 C 0.72132 0.42079 0.59936 0.0
H1939 H 0.67947 0.37554 0.61669 0.0
H1940 H 0.72106 0.38002 0.59769 0.0
C1941 C 0.70814 0.44199 0.60832 0.0
C1942 C 0.11629 0.68632 0.62102 0.0
C1943 C 0.09468 0.67143 0.62401 0.0
H1944 H 0.13154 0.72107 0.60766 0.0
C1945 C 0.07096 0.68209 0.61944 0.0
H1946 H 0.13479 0.67834 0.62427 0.0
C1947 C 0.06905 0.70645 0.60957 0.0
C1948 C 0.09083 0.72057 0.60433 0.0
H1949 H 0.05409 0.67083 0.62138 0.0
H1950 H 0.05065 0.71346 0.60423 0.0
C1951 C 0.11438 0.71081 0.61155 0.0
C1952 C 0.89118 0.8211 0.39952 0.0
C1953 C 0.88776 0.83805 0.41951 0.0
H1954 H 0.90715 0.78618 0.38743 0.0
C1955 C 0.89354 0.83021 0.44404 0.0
H1956 H 0.88697 0.82683 0.3804 0.0
C1957 C 0.90542 0.80702 0.4481 0.0
C1958 C 0.9116 0.7913 0.42768 0.0
H1959 H 0.89128 0.84305 0.45972 0.0
H1960 H 0.91178 0.80247 0.46693 0.0
C1961 C 0.9028 0.79781 0.40358 0.0
C1962 C 0.71545 0.90306 0.4154 0.0
C1963 C 0.72044 0.92068 0.43449 0.0
H1964 H 0.68772 0.87922 0.39827 0.0
C1965 C 0.70313 0.92303 0.45441 0.0
H1966 H 0.72831 0.90078 0.39975 0.0
C1967 C 0.68005 0.91038 0.45368 0.0
C1968 C 0.67391 0.89509 0.43308 0.0
H1969 H 0.70644 0.93632 0.46949 0.0
H1970 H 0.66602 0.91457 0.46787 0.0
C1971 C 0.69226 0.89052 0.41461 0.0
C1972 C 0.61166 0.6863 0.4457 0.0
C1973 C 0.61992 0.67775 0.42214 0.0
H1974 H 0.59133 0.71479 0.46569 0.0
C1975 C 0.61894 0.69419 0.40145 0.0
H1976 H 0.61201 0.67386 0.46185 0.0
C1977 C 0.60729 0.71771 0.40362 0.0
C1978 C 0.59597 0.7249 0.42643 0.0
H1979 H 0.62507 0.68788 0.38306 0.0
H1980 H 0.6048 0.72893 0.38677 0.0
C1981 C 0.59971 0.7097 0.44782 0.0
C1982 C 0.82914 0.61364 0.39711 0.0
C1983 C 0.8421 0.61955 0.41942 0.0
H1984 H 0.79563 0.59866 0.38059 0.0
C1985 C 0.82896 0.61897 0.44231 0.0
H1986 H 0.83882 0.61412 0.37917 0.0
C1987 C 0.8042 0.60997 0.44318 0.0
C1988 C 0.7921 0.60155 0.42115 0.0
H1989 H 0.8385 0.62337 0.45977 0.0
H1990 H 0.79525 0.60778 0.46137 0.0
C1991 C 0.80432 0.60489 0.39793 0.0
C1992 C 0.91493 0.67522 0.05666 0.0
C1993 C 0.89795 0.67013 0.07619 0.0
H1994 H 0.9419 0.70098 0.0416 0.0
C1995 C 0.89129 0.68949 0.09286 0.0
H1996 H 0.92061 0.66039 0.04386 0.0
C1997 C 0.90355 0.71276 0.09171 0.0
C1998 C 0.92291 0.71677 0.0741 0.0
H1999 H 0.87854 0.68577 0.10833 0.0
H2000 H 0.89966 0.72652 0.10623 0.0
C2001 C 0.92726 0.6984 0.05555 0.0
C2002 C 0.80492 0.91206 0.11686 0.0
C2003 C 0.79514 0.91784 0.09297 0.0
H2004 H 0.83663 0.89825 0.13771 0.0
C2005 C 0.80805 0.90911 0.07153 0.0
H2006 H 0.79553 0.91849 0.13377 0.0
C2007 C 0.83153 0.89727 0.07384 0.0
C2008 C 0.84255 0.89415 0.09763 0.0
H2009 H 0.80096 0.91316 0.05284 0.0
H2010 H 0.84201 0.89268 0.05697 0.0
C2011 C 0.82851 0.9005 0.11914 0.0
C2012 C 0.60608 0.80645 0.11474 0.0
C2013 C 0.60022 0.79523 0.09152 0.0
H2014 H 0.61831 0.83988 0.13371 0.0
C2015 C 0.6072 0.80781 0.06924 0.0
H2016 H 0.60094 0.7974 0.13226 0.0
C2017 C 0.61742 0.8321 0.07012 0.0
C2018 C 0.62065 0.84431 0.09329 0.0
H2019 H 0.603 0.79966 0.05104 0.0
H2020 H 0.62071 0.84212 0.05267 0.0
C2021 C 0.61598 0.83084 0.11559 0.0
C2022 C 0.71292 0.60724 0.0709 0.0
C2023 C 0.72712 0.60057 0.0923 0.0
H2024 H 0.67756 0.62091 0.05688 0.0
C2025 C 0.71851 0.6083 0.11608 0.0
H2026 H 0.71913 0.60175 0.05228 0.0
C2027 C 0.69466 0.61925 0.11864 0.0
C2028 C 0.67918 0.62294 0.09748 0.0
H2029 H 0.72893 0.60358 0.13295 0.0
H2030 H 0.68737 0.62265 0.13737 0.0
C2031 C 0.68914 0.61838 0.07347 0.0
C2032 C 0.41139 0.8999 0.80111 0.0
C2033 C 0.43292 0.91478 0.79723 0.0
H2034 H 0.39025 0.87795 0.82759 0.0
C2035 C 0.45252 0.91368 0.815 0.0
H2036 H 0.3959 0.90038 0.78786 0.0
C2037 C 0.44939 0.90046 0.83755 0.0
C2038 C 0.42659 0.88822 0.84268 0.0
H2039 H 0.46937 0.92487 0.8125 0.0
H2040 H 0.46368 0.90203 0.85202 0.0
C2041 C 0.40815 0.88694 0.82382 0.0
C2042 C 0.45088 0.59587 0.6986 0.0
C2043 C 0.43014 0.59562 0.7151 0.0
H2044 H 0.46451 0.60563 0.66184 0.0
C2045 C 0.40853 0.60951 0.70856 0.0
H2046 H 0.46783 0.58543 0.70306 0.0
C2047 C 0.40672 0.62103 0.68491 0.0
C2048 C 0.42662 0.61926 0.66764 0.0
H2049 H 0.39219 0.60969 0.72074 0.0
H2050 H 0.38906 0.62964 0.67938 0.0
C2051 C 0.44909 0.60755 0.67504 0.0
C2052 C 0.918 0.45473 0.70494 0.0
C2053 C 0.91892 0.43301 0.72011 0.0
H2054 H 0.90905 0.47013 0.66863 0.0
C2055 C 0.90715 0.41097 0.71143 0.0
H2056 H 0.92687 0.472 0.71108 0.0
C2057 C 0.89719 0.40993 0.68707 0.0
C2058 C 0.89831 0.43102 0.67119 0.0
H2059 H 0.90758 0.39388 0.72252 0.0
H2060 H 0.89024 0.39214 0.67998 0.0
C2061 C 0.90772 0.45374 0.68068 0.0
C2062 C 0.07756 0.90455 0.70892 0.0
C2063 C 0.09849 0.91359 0.72242 0.0
H2064 H 0.06411 0.88884 0.67423 0.0
C2065 C 0.12273 0.90911 0.7128 0.0
H2066 H 0.05864 0.90763 0.71588 0.0
C2067 C 0.12578 0.89859 0.68886 0.0
C2068 C 0.1047 0.89193 0.67433 0.0
H2069 H 0.13926 0.91583 0.72264 0.0
H2070 H 0.14453 0.89736 0.68093 0.0
C2071 C 0.08066 0.8937 0.6851 0.0
C2072 C 0.62116 0.11603 0.68665 0.0
C2073 C 0.62358 0.0944 0.67168 0.0
H2074 H 0.60777 0.13171 0.72124 0.0
C2075 C 0.6177 0.07089 0.6821 0.0
H2076 H 0.62538 0.1344 0.67887 0.0
C2077 C 0.60726 0.06931 0.70627 0.0
C2078 C 0.6027 0.09122 0.72046 0.0
H2079 H 0.61913 0.05401 0.67078 0.0
H2080 H 0.60104 0.05114 0.71306 0.0
C2081 C 0.61108 0.11444 0.71094 0.0
C2082 C 0.09745 0.62257 0.82436 0.0
C2083 C 0.08028 0.61675 0.84357 0.0
H2084 H 0.11155 0.61276 0.78788 0.0
C2085 C 0.06064 0.59988 0.83856 0.0
H2086 H 0.11304 0.63516 0.82804 0.0
C2087 C 0.05993 0.5868 0.81577 0.0
C2088 C 0.07888 0.59037 0.79765 0.0
H2089 H 0.04747 0.59481 0.85328 0.0
H2090 H 0.04592 0.5722 0.81335 0.0
C2091 C 0.09664 0.60961 0.80142 0.0
C2092 C 0.89374 0.07315 0.82521 0.0
C2093 C 0.89005 0.09745 0.83478 0.0
H2094 H 0.90947 0.0509 0.79556 0.0
C2095 C 0.89431 0.11822 0.81893 0.0
H2096 H 0.89072 0.05685 0.83708 0.0
C2097 C 0.90507 0.1149 0.79514 0.0
C2098 C 0.91203 0.09074 0.78693 0.0
H2099 H 0.89156 0.13717 0.82592 0.0
H2100 H 0.91027 0.13144 0.78443 0.0
C2101 C 0.90465 0.06981 0.80145 0.0
C2102 C 0.60579 0.40287 0.80538 0.0
C2103 C 0.59555 0.4253 0.79573 0.0
H2104 H 0.62138 0.38424 0.83766 0.0
C2105 C 0.5981 0.44755 0.80986 0.0
H2106 H 0.6041 0.38538 0.79509 0.0
C2107 C 0.60834 0.44689 0.83413 0.0
C2108 C 0.61607 0.42396 0.84467 0.0
H2109 H 0.59044 0.46514 0.80293 0.0
H2110 H 0.6082 0.46385 0.84542 0.0
C2111 C 0.61571 0.40217 0.82976 0.0
C2112 C 0.97965 0.66076 0.35049 0.0
C2113 C 0.98884 0.68513 0.35506 0.0
H2114 H 0.9812 0.62811 0.3268 0.0
C2115 C 1.00678 0.69541 0.33858 0.0
H2116 H 0.96596 0.65227 0.36298 0.0
C2117 C 0.01533 0.68169 0.31792 0.0
C2118 C 1.00632 0.65732 0.31347 0.0
H2119 H 0.0142 0.71415 0.34157 0.0
H2120 H 0.02911 0.69014 0.30551 0.0
C2121 C 0.98844 0.6469 0.3299 0.0
C2122 C 0.85531 0.01133 0.35201 0.0
C2123 C 0.83672 0.99271 0.3493 0.0
H2124 H 0.88121 0.03608 0.33383 0.0
C2125 C 0.83031 0.98457 0.32493 0.0
H2126 H 0.86068 0.01822 0.37042 0.0
C2127 C 0.84241 0.99479 0.30377 0.0
C2128 C 0.8608 0.01354 0.3067 0.0
H2129 H 0.81607 0.97026 0.3222 0.0
H2130 H 0.83729 0.98818 0.28519 0.0
C2131 C 0.86706 0.02169 0.33099 0.0
C2132 C 0.50133 0.83388 0.30411 0.0
C2133 C 0.5059 0.85974 0.3018 0.0
H2134 H 0.5063 0.80063 0.32614 0.0
C2135 C 0.52069 0.87186 0.32005 0.0
H2136 H 0.49006 0.82406 0.29026 0.0
C2137 C 0.53019 0.85841 0.34067 0.0
C2138 C 0.52488 0.83263 0.34345 0.0
H2139 H 0.52454 0.89182 0.31864 0.0
H2140 H 0.54102 0.86836 0.35476 0.0
C2141 C 0.51065 0.82049 0.32472 0.0
C2142 C 0.67862 0.49652 0.31624 0.0
C2143 C 0.6548 0.50644 0.31066 0.0
H2144 H 0.71078 0.49764 0.34032 0.0
C2145 C 0.64512 0.52603 0.32553 0.0
H2146 H 0.68653 0.48143 0.30504 0.0
C2147 C 0.65913 0.53554 0.34573 0.0
C2148 C 0.68293 0.52541 0.35145 0.0
H2149 H 0.62676 0.53401 0.32156 0.0
H2150 H 0.65118 0.55052 0.35704 0.0
C2151 C 0.6925 0.50583 0.33646 0.0
C2152 C 0.98713 0.86193 0.16157 0.0
C2153 C 0.98325 0.83578 0.16229 0.0
H2154 H 0.99855 0.89483 0.1818 0.0
C2155 C 0.98713 0.82277 0.18497 0.0
H2156 H 0.98409 0.87248 0.14437 0.0
C2157 C 0.99578 0.83553 0.20626 0.0
C2158 C 1.00024 0.86154 0.2053 0.0
H2159 H 0.98438 0.8026 0.18603 0.0
H2160 H 0.99932 0.82499 0.22336 0.0
C2161 C 0.99535 0.87474 0.18296 0.0
C2162 C 0.64749 0.99108 0.18529 0.0
C2163 C 0.65704 0.00992 0.20114 0.0
H2164 H 0.65387 0.96811 0.15269 0.0
C2165 C 0.68077 0.02026 0.19609 0.0
H2166 H 0.62921 0.98281 0.18885 0.0
C2167 C 0.69474 0.01202 0.17549 0.0
C2168 C 0.68538 0.99308 0.15962 0.0
H2169 H 0.68856 0.0348 0.20804 0.0
H2170 H 0.71298 0.02045 0.17209 0.0
C2171 C 0.66164 0.98259 0.16473 0.0
C2172 C 0.50757 0.69373 0.18135 0.0
C2173 C 0.5267 0.68437 0.16564 0.0
H2174 H 0.48336 0.68686 0.21277 0.0
C2175 C 0.53626 0.66009 0.1701 0.0
H2176 H 0.49979 0.71236 0.17845 0.0
C2177 C 0.52663 0.64538 0.18972 0.0
C2178 C 0.50745 0.65481 0.20527 0.0
H2179 H 0.55087 0.65227 0.15821 0.0
H2180 H 0.53416 0.62666 0.19269 0.0
C2181 C 0.49812 0.67913 0.20101 0.0
C2182 C 0.86829 0.52045 0.19485 0.0
C2183 C 0.85774 0.50116 0.20956 0.0
H2184 H 0.8642 0.54441 0.16257 0.0
C2185 C 0.83408 0.49155 0.20295 0.0
H2186 H 0.88655 0.52819 0.19953 0.0
C2187 C 0.82132 0.50076 0.18186 0.0
C2188 C 0.83189 0.51985 0.16686 0.0
H2189 H 0.82549 0.47669 0.21395 0.0
H2190 H 0.80317 0.49271 0.17725 0.0
C2191 C 0.85547 0.52975 0.17371 0.0
C2192 C 0.33414 0.02082 0.65204 0.0
C2193 C 0.30994 0.01271 0.65874 0.0
H2194 H 0.37366 0.01795 0.65842 0.0
C2195 C 0.30729 0.99468 0.6779 0.0
H2196 H 0.33678 0.03467 0.63731 0.0
C2197 C 0.32859 0.98509 0.6903 0.0
C2198 C 0.35287 0.99321 0.68351 0.0
H2199 H 0.28879 0.98813 0.6834 0.0
H2200 H 0.32604 0.97132 0.70511 0.0
C2201 C 0.35532 0.01113 0.66416 0.0
C2202 C 0.49495 0.32915 0.65053 0.0
C2203 C 0.50372 0.30493 0.65617 0.0
H2204 H 0.49793 0.36846 0.65746 0.0
C2205 C 0.52299 0.30192 0.67404 0.0
H2206 H 0.48015 0.33203 0.63678 0.0
C2207 C 0.53314 0.32298 0.68628 0.0
C2208 C 0.52443 0.34729 0.68043 0.0
H2209 H 0.53005 0.28335 0.67865 0.0
H2210 H 0.54786 0.32026 0.70013 0.0
C2211 C 0.50529 0.35007 0.66235 0.0
C2212 C 0.18894 0.53166 0.68573 0.0
C2213 C 0.16462 0.52386 0.67873 0.0
H2214 H 0.22872 0.52821 0.67908 0.0
C2215 C 0.16203 0.50637 0.65904 0.0
H2216 H 0.19158 0.54511 0.7008 0.0
C2217 C 0.18315 0.49661 0.64694 0.0
C2218 C 0.20739 0.50426 0.654 0.0
H2219 H 0.14365 0.49984 0.65312 0.0
H2220 H 0.18045 0.48301 0.63201 0.0
C2221 C 0.21018 0.52201 0.67335 0.0
C2222 C 0.02764 0.19327 0.67899 0.0
C2223 C 0.0125 0.20622 0.66166 0.0
H2224 H 0.03103 0.16198 0.70403 0.0
C2225 C 0.98836 0.19689 0.65618 0.0
H2226 H 0.04635 0.2 0.68349 0.0
C2227 C 0.9796 0.17487 0.66776 0.0
C2228 C 0.99472 0.16195 0.68523 0.0
H2229 H 0.97635 0.20646 0.64275 0.0
H2230 H 0.96096 0.16805 0.6631 0.0
C2231 C 0.01881 0.17147 0.69074 0.0
C2232 C 0.33089 0.52507 0.8737 0.0
C2233 C 0.30852 0.51924 0.861 0.0
H2234 H 0.36935 0.53645 0.87036 0.0
C2235 C 0.30709 0.52281 0.83485 0.0
H2236 H 0.3324 0.52259 0.89388 0.0
C2237 C 0.32809 0.53117 0.82141 0.0
C2238 C 0.35091 0.53563 0.83394 0.0
H2239 H 0.28992 0.51856 0.82471 0.0
H2240 H 0.3268 0.53293 0.80114 0.0
C2241 C 0.35198 0.53299 0.86024 0.0
C2242 C 0.99372 0.32986 0.87561 0.0
C2243 C 1.00018 0.30826 0.86192 0.0
H2244 H 0.98039 0.36782 0.87412 0.0
C2245 C 0.99583 0.30767 0.83585 0.0
H2246 H 0.99678 0.33072 0.89575 0.0
C2247 C 0.98595 0.32873 0.82351 0.0
C2248 C 0.98074 0.35081 0.83703 0.0
H2249 H 1.00054 0.29111 0.82493 0.0
H2250 H 0.98354 0.32812 0.80327 0.0
C2251 C 0.98432 0.35104 0.86324 0.0
C2252 C 0.17956 1.00383 0.8236 0.0
C2253 C 0.16314 0.98559 0.83342 0.0
H2254 H 0.21256 0.02603 0.82933 0.0
C2255 C 0.168 0.97542 0.85735 0.0
H2256 H 0.17638 0.01196 0.80517 0.0
C2257 C 0.18873 0.98374 0.87135 0.0
C2258 C 0.20497 1.0021 0.86145 0.0
H2259 H 0.15555 0.96146 0.86545 0.0
H2260 H 0.192 0.97589 0.88989 0.0
C2261 C 0.2003 0.0119 0.83741 0.0
C2262 C 0.50133 0.16567 0.8461 0.0
C2263 C 0.52279 0.1684 0.83083 0.0
H2264 H 0.47416 0.18344 0.86974 0.0
C2265 C 0.53315 0.19251 0.82757 0.0
H2266 H 0.49265 0.14744 0.84887 0.0
C2267 C 0.52255 0.21334 0.83997 0.0
C2268 C 0.50121 0.21032 0.85536 0.0
H2269 H 0.54968 0.19515 0.81594 0.0
H2270 H 0.53103 0.23171 0.83761 0.0
C2271 C 0.49061 0.18635 0.85803 0.0
C2272 C 0.65812 0.34592 0.98172 0.0
C2273 C 0.6825 0.35003 0.9912 0.0
H2274 H 0.62464 0.32337 0.98352 0.0
C2275 C 0.69186 0.33388 0.00997 0.0
H2276 H 0.6503 0.35817 0.96741 0.0
C2277 C 0.67726 0.31409 0.01908 0.0
C2278 C 0.6529 0.31007 0.00978 0.0
H2279 H 0.71055 0.33648 0.01767 0.0
H2280 H 0.68507 0.30195 0.0335 0.0
C2281 C 0.64339 0.32613 0.99102 0.0
C2282 C 0.67419 0.20923 0.51857 0.0
C2283 C 0.65327 0.20669 0.50263 0.0
H2284 H 0.70265 0.19033 0.54019 0.0
C2285 C 0.64438 0.18252 0.49691 0.0
H2286 H 0.68138 0.2277 0.52328 0.0
C2287 C 0.65628 0.16124 0.5067 0.0
C2288 C 0.67756 0.16357 0.52229 0.0
H2289 H 0.62822 0.17999 0.48474 0.0
H2290 H 0.64895 0.14292 0.50163 0.0
C2291 C 0.68633 0.18784 0.52824 0.0
C2292 C 0.35087 0.66066 0.50705 0.0
C2293 C 0.34834 0.67998 0.52498 0.0
H2294 H 0.33244 0.63423 0.48306 0.0
C2295 C 0.32402 0.68684 0.53297 0.0
H2296 H 0.36924 0.65479 0.50038 0.0
C2297 C 0.30275 0.67474 0.52301 0.0
C2298 C 0.30549 0.6558 0.50476 0.0
H2299 H 0.32141 0.70162 0.54673 0.0
H2300 H 0.2842 0.68039 0.52933 0.0
C2301 C 0.32974 0.64885 0.497 0.0
C2302 C 0.83491 0.31912 0.49611 0.0
C2303 C 0.85871 0.31364 0.50611 0.0
H2304 H 0.80308 0.34365 0.49643 0.0
C2305 C 0.86876 0.32923 0.52492 0.0
H2306 H 0.82673 0.30737 0.48162 0.0
C2307 C 0.85507 0.35 0.53366 0.0
C2308 C 0.83127 0.35557 0.52348 0.0
H2309 H 0.8871 0.32532 0.53295 0.0
H2310 H 0.86323 0.36184 0.54809 0.0
C2311 C 0.82139 0.33992 0.50462 0.0
C2312 C 0.18336 0.86326 0.49529 0.0
C2313 C 0.20755 0.85789 0.50436 0.0
H2314 H 0.14404 0.85591 0.49774 0.0
C2315 C 0.21043 0.83997 0.52362 0.0
H2316 H 0.18055 0.87702 0.48049 0.0
C2317 C 0.18932 0.82753 0.53353 0.0
C2318 C 0.16504 0.83309 0.52449 0.0
H2319 H 0.22894 0.83553 0.53094 0.0
H2320 H 0.19199 0.81374 0.54831 0.0
C2321 C 0.16238 0.85115 0.50529 0.0
C2322 C 0.84795 0.18189 0.97697 0.0
C2323 C 0.83223 0.16778 0.9929 0.0
H2324 H 0.87336 0.21311 0.97369 0.0
C2325 C 0.8306 0.17448 0.01845 0.0
H2326 H 0.84961 0.17718 0.95721 0.0
C2327 C 0.84446 0.19471 0.02791 0.0
C2328 C 0.85989 0.20898 0.01195 0.0
H2329 H 0.81883 0.16388 0.03128 0.0
H2330 H 0.84296 0.19928 0.04772 0.0
C2331 C 0.86146 0.20247 0.98637 0.0
C2332 C 0.35249 0.84983 0.01054 0.0
C2333 C 0.35006 0.83036 0.99278 0.0
H2334 H 0.33393 0.87641 0.0343 0.0
C2335 C 0.32577 0.82314 0.98508 0.0
H2336 H 0.37082 0.85592 0.01704 0.0
C2337 C 0.30443 0.83519 0.995 0.0
C2338 C 0.30708 0.85443 0.01293 0.0
H2339 H 0.32326 0.80822 0.97144 0.0
H2340 H 0.28591 0.82935 0.98881 0.0
C2341 C 0.33129 0.8616 0.02055 0.0
C2342 C 0.19094 0.68751 0.98721 0.0
C2343 C 0.16771 0.67493 0.9855 0.0
H2344 H 0.22962 0.68548 0.99894 0.0
C2345 C 0.16645 0.64951 0.99278 0.0
H2346 H 0.19254 0.7071 0.98181 0.0
C2347 C 0.18752 0.6373 1.0026 0.0
C2348 C 0.21038 0.65015 1.00536 0.0
H2349 H 0.14897 0.63912 0.99151 0.0
H2350 H 0.1857 0.6179 0.00859 0.0
C2351 C 0.21212 0.6752 0.9971 0.0
C2352 C 0.01601 0.36019 0.6669 0.0
C2353 C 0.02536 0.33553 0.6692 0.0
H2354 H 0.99912 0.39173 0.68531 0.0
C2355 C 0.02557 0.3241 0.6931 0.0
H2356 H 0.01569 0.36969 0.64886 0.0
C2357 C 0.01593 0.33684 0.71408 0.0
C2358 C 1.00605 0.36121 0.71149 0.0
H2359 H 0.03261 0.30512 0.69551 0.0
H2360 H 0.01587 0.3275 0.7322 0.0
C2361 C 1.00649 0.37288 0.68781 0.0
C2362 C 0.15576 0.03212 0.66781 0.0
C2363 C 0.18218 0.03348 0.66844 0.0
H2364 H 0.12207 0.02172 0.68726 0.0
C2365 C 0.19494 0.02675 0.69058 0.0
H2366 H 0.14544 0.03738 0.65101 0.0
C2367 C 0.18152 0.01739 0.71124 0.0
C2368 C 0.15519 0.01506 0.71012 0.0
H2369 H 0.21529 0.02749 0.69148 0.0
H2370 H 0.19178 0.0114 0.72781 0.0
C2371 C 0.14237 0.02315 0.68852 0.0
C2372 C 0.4832 0.18779 0.68741 0.0
C2373 C 0.49257 0.18176 0.66339 0.0
H2374 H 0.48541 0.18069 0.72725 0.0
C2375 C 0.51182 0.16365 0.66141 0.0
H2376 H 0.46838 0.20163 0.68958 0.0
C2377 C 0.52162 0.15203 0.68277 0.0
C2378 C 0.51232 0.15795 0.70672 0.0
H2379 H 0.51963 0.1585 0.64329 0.0
H2380 H 0.53653 0.13828 0.68046 0.0
C2381 C 0.49291 0.17583 0.70893 0.0
C2382 C 0.37155 0.50514 0.68358 0.0
C2383 C 0.35928 0.50663 0.70689 0.0
H2384 H 0.36911 0.49533 0.64478 0.0
C2385 C 0.33446 0.49772 0.70897 0.0
H2386 H 0.39075 0.51166 0.68144 0.0
C2387 C 0.32189 0.4882 0.68776 0.0
C2388 C 0.33397 0.48757 0.6642 0.0
H2389 H 0.32463 0.49859 0.72681 0.0
H2390 H 0.30254 0.48208 0.68965 0.0
C2391 C 0.35909 0.49576 0.66253 0.0
C2392 C 0.02716 0.14375 0.82381 0.0
C2393 C 0.00771 0.153 0.80846 0.0
H2394 H 0.05145 0.15073 0.85529 0.0
C2395 C 0.99785 0.17703 0.81312 0.0
H2396 H 0.0351 0.12525 0.82054 0.0
C2397 C 1.00708 0.19152 0.83294 0.0
C2398 C 0.02653 0.18238 0.84839 0.0
H2399 H 0.98288 0.18462 0.80153 0.0
H2400 H 0.99893 0.20994 0.83612 0.0
C2401 C 0.03659 0.15837 0.84358 0.0
C2402 C 0.36117 0.02399 0.8174 0.0
C2403 C 0.35858 0.99898 0.80926 0.0
H2404 H 0.35041 0.05192 0.84454 0.0
C2405 C 0.34254 0.98276 0.8225 0.0
H2406 H 0.37357 0.03683 0.80757 0.0
C2407 C 0.32909 0.99143 0.84335 0.0
C2408 C 0.33168 0.01641 0.85167 0.0
H2409 H 0.34027 0.96337 0.81667 0.0
H2410 H 0.31684 0.9784 0.85312 0.0
C2411 C 0.348 0.03259 0.83858 0.0
C2412 C 0.49454 0.33282 0.80449 0.0
C2413 C 0.50434 0.35731 0.80623 0.0
H2414 H 0.47761 0.30181 0.82418 0.0
C2415 C 0.50327 0.36993 0.82938 0.0
H2416 H 0.49506 0.32274 0.7868 0.0
C2417 C 0.4934 0.35808 0.8506 0.0
C2418 C 0.48423 0.33332 0.84921 0.0
H2419 H 0.51051 0.38888 0.83125 0.0
H2420 H 0.49332 0.36828 0.86824 0.0
C2421 C 0.48446 0.32092 0.82582 0.0
C2422 C 0.17806 0.52887 0.8176 0.0
C2423 C 0.16 0.51381 0.80573 0.0
H2424 H 0.20439 0.53241 0.8477 0.0
C2425 C 0.1546 0.48991 0.81568 0.0
H2426 H 0.18252 0.54739 0.81036 0.0
C2427 C 0.16699 0.48128 0.83732 0.0
C2428 C 0.18516 0.49637 0.8492 0.0
H2429 H 0.1406 0.47798 0.80691 0.0
H2430 H 0.16237 0.46286 0.84468 0.0
C2431 C 0.19057 0.52022 0.83902 0.0
C2432 C 0.67463 0.03068 0.3542 0.0
C2433 C 0.66951 0.02244 0.32959 0.0
H2434 H 0.69886 0.02765 0.38639 0.0
C2435 C 0.68596 1.00498 0.3183 0.0
H2436 H 0.66233 0.04403 0.36349 0.0
C2437 C 0.70669 0.99561 0.33141 0.0
C2438 C 0.71152 1.00349 0.35608 0.0
H2439 H 0.6827 0.99821 0.29936 0.0
H2440 H 0.71881 0.98198 0.32228 0.0
C2441 C 0.69548 0.02127 0.36733 0.0
C2442 C 0.48085 0.66707 0.35386 0.0
C2443 C 0.49099 0.66127 0.33012 0.0
H2444 H 0.48176 0.69187 0.38573 0.0
C2445 C 0.51014 0.6766 0.32025 0.0
H2446 H 0.46621 0.6555 0.36204 0.0
C2447 C 0.5189 0.69734 0.3337 0.0
C2448 C 0.50887 0.7031 0.35741 0.0
H2449 H 0.51835 0.67269 0.302 0.0
H2450 H 0.53359 0.70885 0.32551 0.0
C2451 C 0.48982 0.68778 0.36746 0.0
C2452 C 0.83034 0.49679 0.37596 0.0
C2453 C 0.80842 0.50327 0.36276 0.0
H2454 H 0.86826 0.48338 0.37368 0.0
C2455 C 0.80742 0.49946 0.33663 0.0
H2456 H 0.83152 0.49945 0.39614 0.0
C2457 C 0.8283 0.48985 0.32378 0.0
C2458 C 0.85062 0.48438 0.33685 0.0
H2459 H 0.79062 0.50421 0.32608 0.0
H2460 H 0.82729 0.48763 0.30354 0.0
C2461 C 0.85133 0.48763 0.3631 0.0
C2462 C 0.03191 0.84697 0.35776 0.0
C2463 C 0.02216 0.85116 0.3335 0.0
H2464 H 0.0305 0.82435 0.39123 0.0
C2465 C 1.00332 0.83507 0.32432 0.0
H2466 H 0.0463 0.85918 0.36544 0.0
C2467 C 0.9944 0.81523 0.33898 0.0
C2468 C 1.00398 0.81114 0.36323 0.0
H2469 H 0.99541 0.83774 0.30571 0.0
H2470 H 0.97991 0.80312 0.33132 0.0
C2471 C 0.02279 0.82716 0.37256 0.0
C2472 C 0.66972 0.47989 0.16099 0.0
C2473 C 0.6639 0.49041 0.18454 0.0
H2474 H 0.69422 0.4806 0.12891 0.0
C2475 C 0.67893 0.51003 0.19391 0.0
H2476 H 0.65838 0.46488 0.15319 0.0
C2477 C 0.69942 0.51889 0.18011 0.0
C2478 C 0.70516 0.50847 0.15657 0.0
H2479 H 0.67494 0.51852 0.21201 0.0
H2480 H 0.71073 0.53396 0.18785 0.0
C2481 C 0.69014 0.48895 0.14705 0.0
C2482 C 0.99999 0.68266 0.19393 0.0
C2483 C 0.01975 0.66769 0.1845 0.0
H2484 H 0.97548 0.71408 0.18793 0.0
C2485 C 0.03031 0.67391 0.16103 0.0
H2486 H 0.99132 0.67848 0.21189 0.0
C2487 C 0.02113 0.69451 0.14729 0.0
C2488 C 1.00122 0.70917 0.15674 0.0
H2489 H 0.04547 0.66277 0.15316 0.0
H2490 H 0.02945 0.69881 0.12918 0.0
C2491 C 0.99083 0.7031 0.1802 0.0
C2492 C 0.83193 0.02532 0.14017 0.0
C2493 C 0.80966 0.01856 0.15258 0.0
H2494 H 0.87011 0.0375 0.14398 0.0
C2495 C 0.80805 0.0215 0.17883 0.0
H2496 H 0.83362 0.02338 0.11995 0.0
C2497 C 0.82883 0.0301 0.19259 0.0
C2498 C 0.85157 0.03538 0.18026 0.0
H2499 H 0.79097 0.01654 0.18878 0.0
H2500 H 0.82754 0.03129 0.2129 0.0
C2501 C 0.85277 0.03342 0.15391 0.0
C2502 C 0.48998 0.83202 0.19065 0.0
C2503 C 0.48535 0.85438 0.17735 0.0
H2504 H 0.50359 0.79406 0.1889 0.0
C2505 C 0.48932 0.85493 0.1512 0.0
H2506 H 0.48722 0.83115 0.21083 0.0
C2507 C 0.49829 0.83366 0.13864 0.0
C2508 C 0.50396 0.81167 0.15211 0.0
H2509 H 0.48577 0.87192 0.14048 0.0
H2510 H 0.5015 0.83467 0.11853 0.0
C2511 C 0.49947 0.81089 0.17815 0.0
C2512 C 0.36015 0.68176 0.99202 0.0
C2513 C 0.35649 0.70533 1.00324 0.0
H2514 H 0.35205 0.64255 0.99264 0.0
C2515 C 0.34055 0.70726 0.02428 0.0
H2516 H 0.37232 0.67969 0.97578 0.0
C2517 C 0.32855 0.68579 0.03396 0.0
C2518 C 0.33268 0.66209 0.02294 0.0
H2519 H 0.33744 0.72529 0.03325 0.0
H2520 H 0.31645 0.68766 0.05025 0.0
C2521 C 0.34855 0.66042 1.00181 0.0
C2522 C 0.33777 0.80414 0.49024 0.0
C2523 C 0.34999 0.80493 0.51369 0.0
H2524 H 0.3177 0.82506 0.46192 0.0
C2525 C 0.351 0.82772 0.5269 0.0
H2526 H 0.33682 0.78673 0.4797 0.0
C2527 C 0.34072 0.84953 0.51657 0.0
C2528 C 0.3287 0.84897 0.49302 0.0
H2529 H 0.36038 0.8289 0.54497 0.0
H2530 H 0.3422 0.8669 0.52713 0.0
C2531 C 0.32688 0.82599 0.48009 0.0
C2532 C 0.70923 0.33551 0.4965 0.0
C2533 C 0.70797 0.36188 0.49822 0.0
H2534 H 0.68961 0.30142 0.48716 0.0
C2535 C 0.68633 0.37439 0.48975 0.0
H2536 H 0.72584 0.32547 0.50278 0.0
C2537 C 0.6657 0.36071 0.48108 0.0
C2538 C 0.66647 0.33428 0.48033 0.0
H2539 H 0.68495 0.39471 0.49069 0.0
H2540 H 0.64883 0.37081 0.47558 0.0
C2541 C 0.68865 0.32177 0.4874 0.0
C2542 C 0.16623 0.6644 0.5137 0.0
C2543 C 0.1818 0.66661 0.4924 0.0
H2544 H 0.14303 0.68302 0.54068 0.0
C2545 C 0.18594 0.6906 0.48203 0.0
H2546 H 0.16279 0.64627 0.52238 0.0
C2547 C 0.17419 0.71185 0.49251 0.0
C2548 C 0.15859 0.70938 0.51374 0.0
H2549 H 0.19784 0.69286 0.46563 0.0
H2550 H 0.17727 0.73013 0.48404 0.0
C2551 C 0.15495 0.68551 0.52432 0.0
C2552 C 0.84269 0.15831 0.48524 0.0
C2553 C 0.84535 0.18406 0.49066 0.0
H2554 H 0.8206 0.12493 0.49042 0.0
C2555 C 0.82655 0.19616 0.50488 0.0
H2556 H 0.85688 0.14839 0.47445 0.0
C2557 C 0.80591 0.18275 0.51397 0.0
C2558 C 0.80363 0.15695 0.50914 0.0
H2559 H 0.8279 0.21599 0.50935 0.0
H2560 H 0.79193 0.19254 0.52515 0.0
C2561 C 0.82201 0.14485 0.49447 0.0
C2562 C 0.18022 0.7997 0.02114 0.0
C2563 C 0.15627 0.80186 0.01012 0.0
H2564 H 0.21107 0.81901 0.03866 0.0
C2565 C 0.14444 0.82544 0.00941 0.0
H2566 H 0.18967 0.78165 0.02197 0.0
C2567 C 0.15651 0.84664 0.01891 0.0
C2568 C 0.18076 0.84481 0.02937 0.0
H2569 H 0.12591 0.82763 1.00116 0.0
H2570 H 0.14687 0.86458 0.0177 0.0
C2571 C 0.19238 0.82104 0.03075 0.0
C2572 C 0.69918 0.18202 0.99688 0.0
C2573 C 0.70496 0.15815 1.00654 0.0
H2574 H 0.6742 0.21353 0.99766 0.0
C2575 C 0.68959 0.14775 0.02536 0.0
H2576 H 0.71075 0.19045 0.98237 0.0
C2577 C 0.66868 0.16106 0.03432 0.0
C2578 C 0.66272 0.18487 0.02442 0.0
H2579 H 0.69369 0.12933 0.03311 0.0
H2580 H 0.657 0.15254 0.04869 0.0
C2581 C 0.67823 0.1952 1.00564 0.0
C2582 C 0.83185 0.3217 0.02399 0.0
C2583 C 0.85463 0.33467 0.02725 0.0
H2584 H 0.7932 0.32395 0.01254 0.0
C2585 C 0.85537 0.36073 0.02282 0.0
H2586 H 0.8308 0.30159 0.02717 0.0
C2587 C 0.83383 0.37352 0.01483 0.0
C2588 C 0.81134 0.36039 0.01069 0.0
H2589 H 0.87265 0.37123 0.02536 0.0
H2590 H 0.83498 0.39356 0.01128 0.0
C2591 C 0.81042 0.33443 0.01552 0.0
C2592 C 0.06427 0.6496 0.06683 0.0
C2593 C 0.07176 0.6426 0.04237 0.0
H2594 H 0.0683 0.64309 0.10653 0.0
C2595 C 0.087 0.62119 0.03939 0.0
H2596 H 0.05245 0.66595 0.06979 0.0
C2597 C 0.09613 0.60828 0.06041 0.0
C2598 C 0.0901 0.61633 0.08488 0.0
H2599 H 0.09307 0.61518 0.02089 0.0
H2600 H 0.10877 0.59252 0.05754 0.0
C2601 C 0.07328 0.6365 0.0879 0.0
C2602 C 0.89798 0.10204 0.05814 0.0
C2603 C 0.88862 0.09712 0.0824 0.0
H2604 H 0.8909 0.10198 0.01854 0.0
C2605 C 0.86504 0.08554 0.0849 0.0
H2606 H 0.91617 0.11092 0.05573 0.0
C2607 C 0.85036 0.0806 0.06351 0.0
C2608 C 0.85912 0.08702 0.03929 0.0
H2609 H 0.85736 0.0817 0.1034 0.0
H2610 H 0.83177 0.07264 0.06605 0.0
C2611 C 0.88345 0.097 0.03684 0.0
C2612 C 0.45035 0.85717 0.06646 0.0
C2613 C 0.44347 0.86385 0.04173 0.0
H2614 H 0.44577 0.86468 0.10594 0.0
C2615 C 0.42885 0.88558 0.03798 0.0
H2616 H 0.46167 0.84057 0.06997 0.0
C2617 C 0.41957 0.89908 0.05852 0.0
C2618 C 0.425 0.8914 0.08323 0.0
H2619 H 0.42318 0.89128 0.01924 0.0
H2620 H 0.40721 0.91495 0.05511 0.0
C2621 C 0.44131 0.87095 0.08705 0.0
C2622 C 0.62084 0.40361 0.06102 0.0
C2623 C 0.62775 0.41166 0.08525 0.0
H2624 H 0.62908 0.40388 0.0217 0.0
C2625 C 0.648 0.4284 0.08786 0.0
H2626 H 0.6051 0.39092 0.05845 0.0
C2627 C 0.66194 0.43581 0.06668 0.0
C2628 C 0.65567 0.42676 0.04255 0.0
H2629 H 0.65372 0.43484 0.10633 0.0
H2630 H 0.678 0.44805 0.06931 0.0
C2631 C 0.63458 0.41108 0.03995 0.0
C2632 C 0.06562 0.86105 0.45267 0.0
C2633 C 0.07236 0.86773 0.47741 0.0
H2634 H 0.06982 0.86896 0.41323 0.0
C2635 C 0.08647 0.88973 0.48124 0.0
H2636 H 0.05471 0.84423 0.44909 0.0
C2637 C 0.09531 0.90362 0.46075 0.0
C2638 C 0.08995 0.89603 0.43599 0.0
H2639 H 0.09203 0.89543 0.5 0.0
H2640 H 0.1072 0.91979 0.46422 0.0
C2641 C 0.07421 0.87519 0.43213 0.0
C2642 C 0.63691 0.07249 0.42817 0.0
C2643 C 0.61743 0.09 0.43184 0.0
H2644 H 0.66603 0.05043 0.44531 0.0
C2645 C 0.61029 0.09618 0.45656 0.0
H2646 H 0.6428 0.06738 0.40934 0.0
C2647 C 0.62337 0.08633 0.47715 0.0
C2648 C 0.64407 0.07026 0.47348 0.0
H2649 H 0.59508 0.10934 0.45994 0.0
H2650 H 0.61813 0.09249 0.49586 0.0
C2651 C 0.6502 0.06281 0.4488 0.0
C2652 C 0.41776 0.61389 0.45557 0.0
C2653 C 0.4222 0.62134 0.4306 0.0
H2654 H 0.42209 0.6225 0.49461 0.0
C2655 C 0.43729 0.64251 0.42601 0.0
H2656 H 0.4063 0.59751 0.45956 0.0
C2657 C 0.44616 0.65706 0.44613 0.0
C2658 C 0.44041 0.65044 0.47114 0.0
H2659 H 0.44094 0.64863 0.40691 0.0
H2660 H 0.45655 0.67411 0.44205 0.0
C2661 C 0.42693 0.62815 0.47563 0.0
C2662 C 0.85007 0.43929 0.44798 0.0
C2663 C 0.85759 0.43237 0.47248 0.0
H2664 H 0.85736 0.43619 0.40825 0.0
C2665 C 0.8801 0.41882 0.47552 0.0
H2666 H 0.83291 0.4499 0.44499 0.0
C2667 C 0.89395 0.41107 0.4546 0.0
C2668 C 0.88574 0.41673 0.43009 0.0
H2669 H 0.8866 0.41331 0.49404 0.0
H2670 H 0.91071 0.39981 0.45755 0.0
C2671 C 0.86411 0.43162 0.42694 0.0
C2672 C 0.03911 0.09128 0.63137 0.0
C2673 C 0.04219 0.08204 0.65593 0.0
H2674 H 0.05707 0.10585 0.5984 0.0
C2675 C 0.06676 0.0775 0.6649 0.0
H2676 H 0.02052 0.09479 0.62375 0.0
C2677 C 0.08779 0.08366 0.65018 0.0
C2678 C 0.08454 0.0946 0.62636 0.0
H2679 H 0.06978 0.07016 0.68368 0.0
H2680 H 0.10649 0.08133 0.658 0.0
C2681 C 0.06004 0.09754 0.61679 0.0
C2682 C 0.45001 0.06748 0.66016 0.0
C2683 C 0.44405 0.04289 0.65236 0.0
H2684 H 0.44515 0.10706 0.65354 0.0
C2685 C 0.43102 0.0395 0.62963 0.0
H2686 H 0.4601 0.07064 0.67758 0.0
C2687 C 0.42223 0.06031 0.61614 0.0
C2688 C 0.42664 0.08485 0.62491 0.0
H2689 H 0.42605 0.02084 0.62316 0.0
H2690 H 0.41094 0.05721 0.59945 0.0
C2691 C 0.44152 0.08831 0.64642 0.0
C2692 C 0.45142 0.45126 0.65328 0.0
C2693 C 0.47579 0.44341 0.64627 0.0
H2694 H 0.41163 0.44746 0.64714 0.0
C2695 C 0.47852 0.42786 0.62508 0.0
H2696 H 0.44865 0.46333 0.66946 0.0
C2697 C 0.45735 0.41872 0.61249 0.0
C2698 C 0.43296 0.42504 0.62065 0.0
H2699 H 0.49694 0.42152 0.61906 0.0
H2700 H 0.46003 0.40582 0.59694 0.0
C2701 C 0.43019 0.44223 0.6405 0.0
C2702 C 0.06373 0.44758 0.65682 0.0
C2703 C 0.07029 0.47212 0.64924 0.0
H2704 H 0.06899 0.40793 0.65103 0.0
C2705 C 0.08507 0.4752 0.62754 0.0
H2706 H 0.05229 0.44456 0.67342 0.0
C2707 C 0.09476 0.45426 0.61494 0.0
C2708 C 0.0897 0.42978 0.62359 0.0
H2709 H 0.09046 0.49377 0.62112 0.0
H2710 H 0.10707 0.45724 0.59897 0.0
C2711 C 0.07325 0.42659 0.64402 0.0
C2712 C 0.0632 0.45292 0.86411 0.0
C2713 C 0.03886 0.44482 0.87081 0.0
H2714 H 0.10302 0.44861 0.86986 0.0
C2715 C 0.0362 0.42798 0.89103 0.0
H2716 H 0.06592 0.46594 0.84866 0.0
C2717 C 0.05742 0.41798 0.90294 0.0
C2718 C 0.08177 0.42474 0.8951 0.0
H2719 H 0.01779 0.42138 0.89676 0.0
H2720 H 0.0548 0.40417 0.91771 0.0
C2721 C 0.08447 0.44305 0.87624 0.0
C2722 C 0.10885 0.05651 0.89363 0.0
C2723 C 0.10143 0.0808 0.88619 0.0
H2724 H 0.10762 0.01706 0.88623 0.0
C2725 C 0.08468 0.08344 0.86591 0.0
H2726 H 0.12152 0.05391 0.90941 0.0
C2727 C 0.07671 0.06218 0.85244 0.0
C2728 C 0.08521 0.03795 0.85919 0.0
H2729 H 0.07871 0.10195 0.85978 0.0
H2730 H 0.06452 0.06481 0.83631 0.0
C2731 C 0.10084 0.03537 0.88034 0.0
C2732 C 0.45228 0.07004 0.86021 0.0
C2733 C 0.47668 0.07714 0.86771 0.0
H2734 H 0.41263 0.07217 0.86787 0.0
C2735 C 0.47986 0.08938 0.89089 0.0
H2736 H 0.44929 0.06053 0.84244 0.0
C2737 C 0.45887 0.09629 0.9052 0.0
C2738 C 0.43438 0.09071 0.89683 0.0
H2739 H 0.49837 0.09521 0.8971 0.0
H2740 H 0.46168 0.10711 0.92224 0.0
C2741 C 0.43131 0.0766 0.87476 0.0
C2742 C 0.43027 0.47541 0.88553 0.0
C2743 C 0.44531 0.47244 0.864 0.0
H2744 H 0.40742 0.45738 0.91335 0.0
C2745 C 0.45166 0.44792 0.85613 0.0
H2746 H 0.42513 0.49396 0.89225 0.0
C2747 C 0.44153 0.42689 0.86839 0.0
C2748 C 0.42475 0.43009 0.88853 0.0
H2749 H 0.46333 0.44497 0.83967 0.0
H2750 H 0.44554 0.40826 0.86115 0.0
C2751 C 0.42002 0.45447 0.89758 0.0
C2752 C 0.61995 0.05877 0.10569 0.0
C2753 C 0.62654 0.08344 0.0988 0.0
H2754 H 0.62929 0.01969 0.1045 0.0
C2755 C 0.64746 0.08713 0.08308 0.0
H2756 H 0.60376 0.05536 0.11761 0.0
C2757 C 0.66231 0.06657 0.07561 0.0
C2758 C 0.65633 0.04197 0.08355 0.0
H2759 H 0.65299 0.10595 0.07756 0.0
H2760 H 0.67886 0.07003 0.06423 0.0
C2761 C 0.63459 0.03831 0.09814 0.0
C2762 C 0.66364 0.45165 0.43933 0.0
C2763 C 0.65606 0.47536 0.43009 0.0
H2764 H 0.65767 0.41162 0.43861 0.0
C2765 C 0.63459 0.4768 0.41477 0.0
H2766 H 0.68002 0.44991 0.45135 0.0
C2767 C 0.62191 0.45497 0.40759 0.0
C2768 C 0.63031 0.43118 0.41562 0.0
H2769 H 0.6281 0.49469 0.40745 0.0
H2770 H 0.606 0.4566 0.39493 0.0
C2771 C 0.65079 0.42973 0.43223 0.0
C2772 C 0.08721 0.65687 0.42715 0.0
C2773 C 0.08477 0.63273 0.41687 0.0
H2774 H 0.06804 0.68992 0.44011 0.0
C2775 C 0.06068 0.62221 0.41417 0.0
H2776 H 0.10561 0.6654 0.42913 0.0
C2777 C 0.03924 0.63609 0.4204 0.0
C2778 C 0.04149 0.66089 0.42916 0.0
H2779 H 0.05843 0.60362 0.40612 0.0
H2780 H 0.02091 0.62779 0.41718 0.0
C2781 C 0.0657 0.67091 0.43316 0.0
C2782 C 0.89402 0.03497 0.42852 0.0
C2783 C 0.87299 0.03832 0.44419 0.0
H2784 H 0.92289 0.05265 0.40667 0.0
C2785 C 0.86685 0.06282 0.45224 0.0
H2786 H 0.89931 0.01642 0.42195 0.0
C2787 C 0.88044 0.08363 0.44346 0.0
C2788 C 0.90026 0.08034 0.42629 0.0
H2789 H 0.85078 0.06607 0.46436 0.0
H2790 H 0.8745 0.10235 0.44895 0.0
C2791 C 0.90743 0.05576 0.41959 0.0
C2792 C 0.47385 0.88373 0.424 0.0
C2793 C 0.47178 0.85741 0.42446 0.0
H2794 H 0.45452 0.91879 0.41851 0.0
C2795 C 0.44769 0.84642 0.42393 0.0
H2796 H 0.49215 0.8927 0.42437 0.0
C2797 C 0.4262 0.86138 0.42114 0.0
C2798 C 0.42851 0.8875 0.41865 0.0
H2799 H 0.4455 0.82617 0.42449 0.0
H2800 H 0.40802 0.85241 0.41906 0.0
C2801 C 0.45237 0.89865 0.42084 0.0
C2802 C 0.86733 0.42451 0.08404 0.0
C2803 C 0.89115 0.42781 0.09494 0.0
H2804 H 0.83344 0.44236 0.07121 0.0
C2805 C 0.9003 0.45235 0.09854 0.0
H2806 H 0.85983 0.40578 0.08123 0.0
C2807 C 0.88532 0.47321 0.09295 0.0
C2808 C 0.86075 0.47002 0.08375 0.0
H2809 H 0.91867 0.45535 0.10687 0.0
H2810 H 0.89263 0.49179 0.09695 0.0
C2811 C 0.8522 0.44547 0.07854 0.0
C2812 C 0.03693 0.88671 0.08489 0.0
C2813 C 0.03941 0.8665 0.06805 0.0
H2814 H 0.05566 0.91238 0.10958 0.0
C2815 C 0.06374 0.85883 0.06077 0.0
H2816 H 0.01854 0.8932 0.09085 0.0
C2817 C 0.08508 0.86991 0.07156 0.0
C2818 C 0.08243 0.88866 0.08997 0.0
H2819 H 0.06632 0.84337 0.04776 0.0
H2820 H 0.10355 0.86277 0.06664 0.0
C2821 C 0.0582 0.89759 0.0958 0.0
C2822 C 0.42922 0.65612 0.09036 0.0
C2823 C 0.43088 0.63104 0.09827 0.0
H2824 H 0.44931 0.68983 0.08131 0.0
C2825 C 0.45469 0.61972 0.10061 0.0
H2826 H 0.41106 0.6653 0.08887 0.0
C2827 C 0.4766 0.63366 0.09638 0.0
C2828 C 0.47504 0.65929 0.09015 0.0
H2829 H 0.45633 0.60046 0.1071 0.0
H2830 H 0.4947 0.62474 0.09938 0.0
C2831 C 0.45113 0.67017 0.08637 0.0
C2832 C 0.94065 0.36978 0.92549 0.0
C2833 C 0.92479 0.39053 0.92949 0.0
H2834 H 0.96175 0.33983 0.94247 0.0
C2835 C 0.92082 0.39911 0.95416 0.0
H2836 H 0.94391 0.3628 0.90663 0.0
C2837 C 0.9312 0.38626 0.97462 0.0
C2838 C 0.94545 0.36428 0.97084 0.0
H2839 H 0.90878 0.41521 0.95766 0.0
H2840 H 0.92667 0.39267 0.99343 0.0
C2841 C 0.95079 0.35666 0.94602 0.0
C2842 C 0.15368 0.9439 0.95186 0.0
C2843 C 0.14676 0.93798 0.97677 0.0
H2844 H 0.14562 0.93906 0.91253 0.0
C2845 C 0.12417 0.9249 0.98093 0.0
H2846 H 0.17093 0.95404 0.94803 0.0
C2847 C 0.10993 0.91617 0.96064 0.0
C2848 C 0.11775 0.92061 0.93577 0.0
H2849 H 0.11824 0.92001 0.99981 0.0
H2850 H 0.09332 0.90496 0.96439 0.0
C2851 C 0.13919 0.93541 0.93153 0.0
C2852 C 0.58766 0.1577 0.9265 0.0
C2853 C 0.59989 0.13437 0.92786 0.0
H2854 H 0.5731 0.18918 0.94703 0.0
C2855 C 0.60438 0.12344 0.95153 0.0
H2856 H 0.58426 0.16654 0.90844 0.0
C2857 C 0.59801 0.13625 0.97357 0.0
C2858 C 0.58736 0.16039 0.97232 0.0
H2859 H 0.61395 0.10548 0.95295 0.0
H2860 H 0.60268 0.1278 0.99154 0.0
C2861 C 0.58153 0.17068 0.94858 0.0
C2862 C 0.36249 0.56401 0.94768 0.0
C2863 C 0.37029 0.57035 0.97222 0.0
H2864 H 0.36847 0.56896 0.90797 0.0
C2865 C 0.39254 0.58428 0.97522 0.0
H2866 H 0.34547 0.55321 0.94469 0.0
C2867 C 0.40552 0.59337 0.95422 0.0
C2868 C 0.39674 0.58851 0.92973 0.0
H2869 H 0.39914 0.5895 0.99378 0.0
H2870 H 0.42186 0.60519 0.95712 0.0
C2871 C 0.37568 0.57291 0.92661 0.0
C2872 C 0.92826 0.13604 0.54755 0.0
C2873 C 0.92089 0.16147 0.54776 0.0
H2874 H 0.92872 0.10099 0.56774 0.0
C2875 C 0.91124 0.17178 0.57016 0.0
H2876 H 0.93583 0.12756 0.53064 0.0
C2877 C 0.90732 0.15663 0.59127 0.0
C2878 C 0.9133 0.13097 0.59053 0.0
H2879 H 0.90556 0.19134 0.57108 0.0
H2880 H 0.89833 0.16464 0.60772 0.0
C2881 C 0.92445 0.12089 0.5688 0.0
C2882 C 0.38888 0.93127 0.54144 0.0
C2883 C 0.36477 0.94154 0.54488 0.0
H2884 H 0.42085 0.91404 0.559 0.0
C2885 C 0.35614 0.94607 0.56952 0.0
H2886 H 0.39608 0.92758 0.52273 0.0
C2887 C 0.37046 0.93851 0.5903 0.0
C2888 C 0.39347 0.92607 0.58671 0.0
H2889 H 0.33768 0.95413 0.57274 0.0
H2890 H 0.36272 0.9407 0.60903 0.0
C2891 C 0.40303 0.92345 0.56218 0.0
C2892 C 0.56922 0.35653 0.56553 0.0
C2893 C 0.57537 0.36536 0.54131 0.0
H2894 H 0.57356 0.36162 0.60538 0.0
C2895 C 0.58776 0.38854 0.5389 0.0
H2896 H 0.55955 0.33876 0.56794 0.0
C2897 C 0.59597 0.4014 0.56032 0.0
C2898 C 0.59157 0.39152 0.58448 0.0
H2899 H 0.59281 0.39581 0.52054 0.0
H2900 H 0.607 0.41837 0.55799 0.0
C2901 C 0.57712 0.36961 0.58696 0.0
C2902 C 0.15437 0.56749 0.56553 0.0
C2903 C 0.14648 0.57476 0.54128 0.0
H2904 H 0.14842 0.5708 0.60536 0.0
C2905 C 0.12404 0.58851 0.53873 0.0
H2906 H 0.17156 0.55679 0.56807 0.0
C2907 C 0.11101 0.59671 0.56008 0.0
C2908 C 0.11996 0.59102 0.58434 0.0
H2909 H 0.11749 0.59447 0.52037 0.0
H2910 H 0.09459 0.60858 0.55765 0.0
C2911 C 0.14112 0.57541 0.58688 0.0
C2912 C 0.97225 0.91618 0.38042 0.0
C2913 C 0.96998 0.92657 0.35623 0.0
H2914 H 0.95304 0.90085 0.41236 0.0
C2915 C 0.94578 0.93224 0.34692 0.0
H2916 H 0.99056 0.91165 0.38818 0.0
C2917 C 0.92426 0.92633 0.36099 0.0
C2918 C 0.92664 0.91446 0.38443 0.0
H2919 H 0.94342 0.94045 0.32841 0.0
H2920 H 0.90582 0.92972 0.35295 0.0
C2921 C 0.95079 0.91005 0.3943 0.0
C2922 C 0.59503 0.97461 0.3844 0.0
C2923 C 0.59077 0.97093 0.35859 0.0
H2924 H 0.60439 0.95739 0.41969 0.0
C2925 C 0.58916 0.94617 0.34928 0.0
H2926 H 0.59636 0.99341 0.39213 0.0
C2927 C 0.59326 0.92557 0.3652 0.0
C2928 C 0.59932 0.92942 0.39057 0.0
H2929 H 0.58567 0.94275 0.3295 0.0
H2930 H 0.59333 0.90676 0.35735 0.0
C2931 C 0.59951 0.95404 0.40019 0.0
C2932 C 0.56472 0.57744 0.35191 0.0
C2933 C 0.54018 0.58516 0.35844 0.0
H2934 H 0.60428 0.57966 0.36045 0.0
C2935 C 0.53679 0.59963 0.38029 0.0
H2936 H 0.56796 0.56615 0.33526 0.0
C2937 C 0.55747 0.60731 0.39452 0.0
C2938 C 0.58206 0.60062 0.38738 0.0
H2939 H 0.51822 0.60583 0.38599 0.0
H2940 H 0.55429 0.61917 0.41079 0.0
C2941 C 0.5855 0.585 0.36636 0.0
C2942 C 0.94122 0.58388 0.3778 0.0
C2943 C 0.9241 0.58045 0.39762 0.0
H2944 H 0.96251 0.56632 0.34835 0.0
C2945 C 0.91794 0.55586 0.40512 0.0
H2946 H 0.94622 0.60265 0.37164 0.0
C2947 C 0.92744 0.53508 0.39208 0.0
C2948 C 0.94302 0.53847 0.37098 0.0
H2949 H 0.90491 0.55274 0.42049 0.0
H2950 H 0.92128 0.51647 0.39762 0.0
C2951 C 0.95047 0.56306 0.36447 0.0
C2952 C 0.95597 0.59788 0.11428 0.0
C2953 C 0.93104 0.59756 0.12311 0.0
H2954 H 0.99507 0.59483 0.12357 0.0
C2955 C 0.92636 0.5914 0.14833 0.0
H2956 H 0.95995 0.60274 0.09489 0.0
C2957 C 0.94646 0.58732 0.16489 0.0
C2958 C 0.9715 0.58904 0.15637 0.0
H2959 H 0.90729 0.5913 0.15555 0.0
H2960 H 0.9424 0.58373 0.18454 0.0
C2961 C 0.97602 0.59343 0.13071 0.0
C2962 C 0.93938 0.92383 0.14578 0.0
C2963 C 0.92556 0.92715 0.12353 0.0
H2964 H 0.9574 0.9418 0.17707 0.0
C2965 C 0.92246 0.95153 0.11378 0.0
H2966 H 0.94193 0.9052 0.15366 0.0
C2967 C 0.93141 0.97241 0.12694 0.0
C2968 C 0.94334 0.96937 0.15035 0.0
H2969 H 0.91191 0.95449 0.09657 0.0
H2970 H 0.92748 0.99099 0.11951 0.0
C2971 C 0.94811 0.9448 0.15917 0.0
C2972 C 0.56724 0.95257 0.15107 0.0
C2973 C 0.54249 0.9462 0.14404 0.0
H2974 H 0.60677 0.94717 0.14422 0.0
C2975 C 0.53883 0.93147 0.1224 0.0
H2976 H 0.5707 0.96394 0.16762 0.0
C2977 C 0.55943 0.92169 0.1093 0.0
C2978 C 0.58412 0.92672 0.1173 0.0
H2979 H 0.52007 0.92617 0.11644 0.0
H2980 H 0.55606 0.90931 0.09348 0.0
C2981 C 0.5879 0.94304 0.1377 0.0
C2982 C 0.58563 0.58434 0.14876 0.0
C2983 C 0.60178 0.5819 0.128 0.0
H2984 H 0.5668 0.56553 0.17913 0.0
C2985 C 0.60944 0.55771 0.1205 0.0
H2986 H 0.57955 0.60278 0.15497 0.0
C2987 C 0.6022 0.53647 0.13416 0.0
C2988 C 0.58723 0.5389 0.15581 0.0
H2989 H 0.62178 0.5553 0.10445 0.0
H2990 H 0.60918 0.51824 0.12827 0.0
C2991 C 0.5785 0.56302 0.16263 0.0
C2992 C 0.39629 0.9477 0.9157 0.0
C2993 C 0.38591 0.92348 0.9178 0.0
H2994 H 0.39005 0.98738 0.91825 0.0
C2995 C 0.36124 0.92079 0.92674 0.0
H2996 H 0.41529 0.95018 0.90873 0.0
C2997 C 0.34661 0.94212 0.93188 0.0
C2998 C 0.35652 0.96644 0.92832 0.0
H2999 H 0.35281 0.9023 0.92826 0.0
H3000 H 0.32724 0.93955 0.93771 0.0
C3001 C 0.3818 0.96897 0.92105 0.0
C3002 C 0.36996 0.58967 0.57551 0.0
C3003 C 0.39314 0.58595 0.58761 0.0
H3004 H 0.33696 0.57231 0.56021 0.0
C3005 C 0.40263 0.56136 0.59004 0.0
H3006 H 0.36224 0.60844 0.57348 0.0
C3007 C 0.38835 0.54071 0.58227 0.0
C3008 C 0.36414 0.54428 0.57227 0.0
H3009 H 0.42056 0.55805 0.5992 0.0
H3010 H 0.39556 0.52196 0.58578 0.0
C3011 C 0.3555 0.56898 0.56804 0.0
C3012 C 0.95842 0.40535 0.59574 0.0
C3013 C 0.93337 0.39806 0.59145 0.0
H3014 H 0.99741 0.39597 0.59216 0.0
C3015 C 0.92865 0.37634 0.5772 0.0
H3016 H 0.96254 0.42215 0.60651 0.0
C3017 C 0.94867 0.36114 0.56912 0.0
C3018 C 0.97373 0.36759 0.57489 0.0
H3019 H 0.9095 0.3703 0.57368 0.0
H3020 H 0.94444 0.34374 0.55942 0.0
C3021 C 0.97839 0.39039 0.5874 0.0
C3022 C 0.11937 0.95204 0.59537 0.0
C3023 C 0.13018 0.92807 0.5925 0.0
H3024 H 0.12424 0.99182 0.59136 0.0
C3025 C 0.1532 0.92567 0.57986 0.0
H3026 H 0.10158 0.95423 0.60511 0.0
C3027 C 0.16634 0.94717 0.57229 0.0
C3028 C 0.15646 0.97131 0.57697 0.0
H3029 H 0.16188 0.90736 0.57756 0.0
H3030 H 0.1849 0.94495 0.56412 0.0
C3031 C 0.1323 0.9735 0.58744 0.0
C3032 C 0.56192 0.11337 0.59535 0.0
C3033 C 0.58652 0.12187 0.59065 0.0
H3034 H 0.52247 0.12051 0.59143 0.0
C3035 C 0.59007 0.14303 0.57527 0.0
H3036 H 0.55875 0.09694 0.607 0.0
C3037 C 0.56929 0.15669 0.56651 0.0
C3038 C 0.54466 0.14917 0.57269 0.0
H3039 H 0.60886 0.14993 0.57139 0.0
H3040 H 0.57254 0.17384 0.55598 0.0
C3041 C 0.54117 0.12677 0.58629 0.0
C3042 C 0.11441 0.55844 0.91629 0.0
C3043 C 0.12349 0.5832 0.91818 0.0
H3044 H 0.12291 0.51914 0.9185 0.0
C3045 C 0.14814 0.5872 0.92669 0.0
H3046 H 0.09542 0.55493 0.90972 0.0
C3047 C 0.16404 0.56669 0.9314 0.0
C3048 C 0.15544 0.54188 0.92788 0.0
H3049 H 0.15559 0.60611 0.92811 0.0
H3050 H 0.18336 0.5703 0.9368 0.0
C3051 C 0.13017 0.53798 0.92122 0.0
C3052 C 0.97825 0.13264 0.91121 0.0
C3053 C 0.97627 0.15651 0.92232 0.0
H3054 H 0.95853 0.10115 0.8956 0.0
C3055 C 0.95227 0.16562 0.92901 0.0
H3056 H 0.99643 0.12511 0.90583 0.0
C3057 C 0.93059 0.15169 0.9235 0.0
C3058 C 0.93258 0.1286 0.91094 0.0
H3059 H 0.95016 0.18388 0.93779 0.0
H3060 H 0.91227 0.1596 0.92774 0.0
C3061 C 0.9566 0.11892 0.9054 0.0
C3062 C 0.58314 0.37401 0.94037 0.0
C3063 C 0.57923 0.39533 0.92526 0.0
H3064 H 0.56617 0.34262 0.95917 0.0
C3065 C 0.55447 0.40333 0.92044 0.0
H3066 H 0.60206 0.36746 0.94431 0.0
C3067 C 0.53396 0.38936 0.92911 0.0
C3068 C 0.5378 0.36688 0.9425 0.0
H3069 H 0.55099 0.41984 0.90898 0.0
H3070 H 0.51518 0.3954 0.92393 0.0
C3071 C 0.56258 0.3598 0.94879 0.0
loop_
_geom_bond_atom_site_label_1
_geom_bond_atom_site_label_2
_geom_bond_distance
_geom_bond_site_symmetry_2
_ccdc_geom_bond_type
O0 Tb1 2.292 . S
O0 C3 1.255 . S
Tb1 O0 2.292 . S
Tb1 O17 2.326 . S
Tb1 O19 2.500 . S
Tb1 O20 2.473 . S
Tb1 O23 2.324 . S
Eu2 O6 2.292 1_455 S
Eu2 C7 2.852 . S
Eu2 O18 2.324 . S
Eu2 O22 2.326 . S
Eu2 O24 2.500 . S
Eu2 O25 2.473 . S
C3 O0 1.255 . S
C3 O4 1.247 . S
O4 C3 1.247 . S
C5 O17 1.242 . S
C5 O18 1.258 . S
O6 Eu2 2.292 1_655 S
O6 C8 1.255 . S
C7 Eu2 2.852 . S
C7 C11 1.503 . S
C7 O24 1.273 . S
C7 O25 1.257 . S
C8 O6 1.255 . S
C8 O9 1.247 . S
O9 C8 1.247 . S
C10 O22 1.242 . S
C10 O23 1.258 . S
C11 C7 1.503 . S
C11 C12 1.379 . S
C11 C16 1.392 . S
C12 C11 1.379 . S
C12 C13 1.404 . S
C12 H26 0.929 . S
C13 C12 1.404 . S
C13 C14 1.389 . S
C14 C13 1.389 . S
C14 C15 1.399 . S
C14 H27 0.931 . S
C15 C14 1.399 . S
C15 C16 1.390 . S
C16 C11 1.392 . S
C16 C15 1.390 . S
C16 H28 0.929 . S
O17 Tb1 2.326 . S
O17 C5 1.242 . S
O18 Eu2 2.324 . S
O18 C5 1.258 . S
O19 Tb1 2.500 . S
O19 C21 1.273 . S
O20 Tb1 2.473 . S
O20 C21 1.257 . S
C21 O19 1.273 . S
C21 O20 1.257 . S
O22 Eu2 2.326 . S
O22 C10 1.242 . S
O23 Tb1 2.324 . S
O23 C10 1.258 . S
O24 Eu2 2.500 . S
O24 C7 1.273 . S
O25 Eu2 2.473 . S
O25 C7 1.257 . S
H26 C12 0.929 . S
H27 C14 0.931 . S
H28 C16 0.929 . S
O29 Tb30 2.292 . S
O29 C32 1.255 . S
Tb30 O29 2.292 . S
Tb30 O46 2.326 . S
Tb30 O48 2.500 . S
Tb30 O49 2.473 . S
Tb30 O52 2.324 . S
Eu31 O35 2.292 1_545 S
Eu31 C36 2.852 . S
Eu31 O47 2.324 . S
Eu31 O51 2.326 . S
Eu31 O53 2.500 . S
Eu31 O54 2.473 . S
C32 O29 1.255 . S
C32 O33 1.247 . S
O33 C32 1.247 . S
C34 O46 1.242 . S
C34 O47 1.258 . S
O35 Eu31 2.292 1_565 S
O35 C37 1.255 . S
C36 Eu31 2.852 . S
C36 C40 1.503 . S
C36 O53 1.273 . S
C36 O54 1.257 . S
C37 O35 1.255 . S
C37 O38 1.247 . S
O38 C37 1.247 . S
C39 O51 1.242 . S
C39 O52 1.258 . S
C40 C36 1.503 . S
C40 C41 1.379 . S
C40 C45 1.392 . S
C41 C40 1.379 . S
C41 C42 1.404 . S
C41 H55 0.929 . S
C42 C41 1.404 . S
C42 C43 1.389 . S
C43 C42 1.389 . S
C43 C44 1.399 . S
C43 H56 0.931 . S
C44 C43 1.399 . S
C44 C45 1.390 . S
C45 C40 1.392 . S
C45 C44 1.390 . S
C45 H57 0.929 . S
O46 Tb30 2.326 . S
O46 C34 1.242 . S
O47 Eu31 2.324 . S
O47 C34 1.258 . S
O48 Tb30 2.500 . S
O48 C50 1.273 . S
O49 Tb30 2.473 . S
O49 C50 1.257 . S
C50 O48 1.273 . S
C50 O49 1.257 . S
O51 Eu31 2.326 . S
O51 C39 1.242 . S
O52 Tb30 2.324 . S
O52 C39 1.258 . S
O53 Eu31 2.500 . S
O53 C36 1.273 . S
O54 Eu31 2.473 . S
O54 C36 1.257 . S
H55 C41 0.929 . S
H56 C43 0.931 . S
H57 C45 0.929 . S
O58 Tb59 2.292 . S
O58 C61 1.255 . S
Tb59 O58 2.292 . S
Tb59 O75 2.326 . S
Tb59 O77 2.500 . S
Tb59 O78 2.473 . S
Tb59 O81 2.324 . S
Eu60 O64 2.292 . S
Eu60 C65 2.852 . S
Eu60 O76 2.324 . S
Eu60 O80 2.326 . S
Eu60 O82 2.500 . S
Eu60 O83 2.473 . S
C61 O58 1.255 . S
C61 O62 1.247 . S
O62 C61 1.247 . S
C63 O75 1.242 . S
C63 O76 1.258 . S
O64 Eu60 2.292 . S
O64 C66 1.255 . S
C65 Eu60 2.852 . S
C65 C69 1.503 . S
C65 O82 1.273 . S
C65 O83 1.257 . S
C66 O64 1.255 . S
C66 O67 1.247 . S
O67 C66 1.247 . S
C68 O80 1.242 . S
C68 O81 1.258 . S
C69 C65 1.503 . S
C69 C70 1.379 . S
C69 C74 1.392 . S
C70 C69 1.379 . S
C70 C71 1.404 . S
C70 H84 0.929 . S
C71 C70 1.404 . S
C71 C72 1.389 . S
C72 C71 1.389 . S
C72 C73 1.399 . S
C72 H85 0.931 . S
C73 C72 1.399 . S
C73 C74 1.390 . S
C74 C69 1.392 . S
C74 C73 1.390 . S
C74 H86 0.929 . S
O75 Tb59 2.326 . S
O75 C63 1.242 . S
O76 Eu60 2.324 . S
O76 C63 1.258 . S
O77 Tb59 2.500 . S
O77 C79 1.273 . S
O78 Tb59 2.473 . S
O78 C79 1.257 . S
C79 O77 1.273 . S
C79 O78 1.257 . S
O80 Eu60 2.326 . S
O80 C68 1.242 . S
O81 Tb59 2.324 . S
O81 C68 1.258 . S
O82 Eu60 2.500 . S
O82 C65 1.273 . S
O83 Eu60 2.473 . S
O83 C65 1.257 . S
H84 C70 0.929 . S
H85 C72 0.931 . S
H86 C74 0.929 . S
O87 Tb88 2.292 . S
O87 C90 1.255 . S
Tb88 O87 2.292 . S
Tb88 O104 2.326 . S
Tb88 O106 2.500 . S
Tb88 O107 2.473 . S
Tb88 O110 2.324 . S
Eu89 O93 2.292 . S
Eu89 C94 2.852 . S
Eu89 O105 2.324 . S
Eu89 O109 2.326 . S
Eu89 O111 2.500 . S
Eu89 O112 2.473 . S
C90 O87 1.255 . S
C90 O91 1.247 . S
O91 C90 1.247 . S
C92 O104 1.242 . S
C92 O105 1.258 . S
O93 Eu89 2.292 . S
O93 C95 1.255 . S
C94 Eu89 2.852 . S
C94 C98 1.503 . S
C94 O111 1.273 . S
C94 O112 1.257 . S
C95 O93 1.255 . S
C95 O96 1.247 . S
O96 C95 1.247 . S
C97 O109 1.242 . S
C97 O110 1.258 . S
C98 C94 1.503 . S
C98 C99 1.379 . S
C98 C103 1.392 . S
C99 C98 1.379 . S
C99 C100 1.404 . S
C99 H113 0.929 . S
C100 C99 1.404 . S
C100 C101 1.389 . S
C101 C100 1.389 . S
C101 C102 1.399 . S
C101 H114 0.931 . S
C102 C101 1.399 . S
C102 C103 1.390 . S
C103 C98 1.392 . S
C103 C102 1.390 . S
C103 H115 0.929 . S
O104 Tb88 2.326 . S
O104 C92 1.242 . S
O105 Eu89 2.324 . S
O105 C92 1.258 . S
O106 Tb88 2.500 . S
O106 C108 1.273 . S
O107 Tb88 2.473 . S
O107 C108 1.257 . S
C108 O106 1.273 . S
C108 O107 1.257 . S
O109 Eu89 2.326 . S
O109 C97 1.242 . S
O110 Tb88 2.324 . S
O110 C97 1.258 . S
O111 Eu89 2.500 . S
O111 C94 1.273 . S
O112 Eu89 2.473 . S
O112 C94 1.257 . S
H113 C99 0.929 . S
H114 C101 0.931 . S
H115 C103 0.929 . S
O116 Tb117 2.292 . S
O116 C119 1.255 . S
Tb117 O116 2.292 . S
Tb117 O133 2.326 . S
Tb117 O135 2.500 . S
Tb117 O136 2.473 . S
Tb117 O139 2.324 . S
Eu118 O122 2.292 1_455 S
Eu118 C123 2.852 . S
Eu118 O134 2.324 . S
Eu118 O138 2.326 . S
Eu118 O140 2.500 . S
Eu118 O141 2.473 . S
C119 O116 1.255 . S
C119 O120 1.247 . S
O120 C119 1.247 . S
C121 O133 1.242 . S
C121 O134 1.258 . S
O122 Eu118 2.292 1_655 S
O122 C124 1.255 . S
C123 Eu118 2.852 . S
C123 C127 1.503 . S
C123 O140 1.273 . S
C123 O141 1.257 . S
C124 O122 1.255 . S
C124 O125 1.247 . S
O125 C124 1.247 . S
C126 O138 1.242 . S
C126 O139 1.258 . S
C127 C123 1.503 . S
C127 C128 1.379 . S
C127 C132 1.392 . S
C128 C127 1.379 . S
C128 C129 1.404 . S
C128 H142 0.929 . S
C129 C128 1.404 . S
C129 C130 1.389 . S
C130 C129 1.389 . S
C130 C131 1.399 . S
C130 H143 0.931 . S
C131 C130 1.399 . S
C131 C132 1.390 . S
C132 C127 1.392 . S
C132 C131 1.390 . S
C132 H144 0.929 . S
O133 Tb117 2.326 . S
O133 C121 1.242 . S
O134 Eu118 2.324 . S
O134 C121 1.258 . S
O135 Tb117 2.500 . S
O135 C137 1.273 . S
O136 Tb117 2.473 . S
O136 C137 1.257 . S
C137 O135 1.273 . S
C137 O136 1.257 . S
O138 Eu118 2.326 . S
O138 C126 1.242 . S
O139 Tb117 2.324 . S
O139 C126 1.258 . S
O140 Eu118 2.500 . S
O140 C123 1.273 . S
O141 Eu118 2.473 . S
O141 C123 1.257 . S
H142 C128 0.929 . S
H143 C130 0.931 . S
H144 C132 0.929 . S
O145 Tb146 2.292 . S
O145 C148 1.255 . S
Tb146 O145 2.292 . S
Tb146 O162 2.326 . S
Tb146 O164 2.500 . S
Tb146 O165 2.473 . S
Tb146 O168 2.324 . S
Eu147 O151 2.292 1_545 S
Eu147 C152 2.852 . S
Eu147 O163 2.324 . S
Eu147 O167 2.326 . S
Eu147 O169 2.500 . S
Eu147 O170 2.473 . S
C148 O145 1.255 . S
C148 O149 1.247 . S
O149 C148 1.247 . S
C150 O162 1.242 . S
C150 O163 1.258 . S
O151 Eu147 2.292 1_565 S
O151 C153 1.255 . S
C152 Eu147 2.852 . S
C152 C156 1.503 . S
C152 O169 1.273 . S
C152 O170 1.257 . S
C153 O151 1.255 . S
C153 O154 1.247 . S
O154 C153 1.247 . S
C155 O167 1.242 . S
C155 O168 1.258 . S
C156 C152 1.503 . S
C156 C157 1.379 . S
C156 C161 1.392 . S
C157 C156 1.379 . S
C157 C158 1.404 . S
C157 H171 0.929 . S
C158 C157 1.404 . S
C158 C159 1.389 . S
C159 C158 1.389 . S
C159 C160 1.399 . S
C159 H172 0.931 . S
C160 C159 1.399 . S
C160 C161 1.390 . S
C161 C156 1.392 . S
C161 C160 1.390 . S
C161 H173 0.929 . S
O162 Tb146 2.326 . S
O162 C150 1.242 . S
O163 Eu147 2.324 . S
O163 C150 1.258 . S
O164 Tb146 2.500 . S
O164 C166 1.273 . S
O165 Tb146 2.473 . S
O165 C166 1.257 . S
C166 O164 1.273 . S
C166 O165 1.257 . S
O167 Eu147 2.326 . S
O167 C155 1.242 . S
O168 Tb146 2.324 . S
O168 C155 1.258 . S
O169 Eu147 2.500 . S
O169 C152 1.273 . S
O170 Eu147 2.473 . S
O170 C152 1.257 . S
H171 C157 0.929 . S
H172 C159 0.931 . S
H173 C161 0.929 . S
O174 Tb175 2.292 . S
O174 C177 1.255 . S
Tb175 O174 2.292 . S
Tb175 O191 2.326 . S
Tb175 O193 2.500 . S
Tb175 O194 2.473 . S
Tb175 O197 2.324 . S
Eu176 O180 2.292 . S
Eu176 C181 2.852 . S
Eu176 O192 2.324 . S
Eu176 O196 2.326 . S
Eu176 O198 2.500 . S
Eu176 O199 2.473 . S
C177 O174 1.255 . S
C177 O178 1.247 . S
O178 C177 1.247 . S
C179 O191 1.242 . S
C179 O192 1.258 . S
O180 Eu176 2.292 . S
O180 C182 1.255 . S
C181 Eu176 2.852 . S
C181 C185 1.503 . S
C181 O198 1.273 . S
C181 O199 1.257 . S
C182 O180 1.255 . S
C182 O183 1.247 . S
O183 C182 1.247 . S
C184 O196 1.242 . S
C184 O197 1.258 . S
C185 C181 1.503 . S
C185 C186 1.379 . S
C185 C190 1.392 . S
C186 C185 1.379 . S
C186 C187 1.404 . S
C186 H200 0.929 . S
C187 C186 1.404 . S
C187 C188 1.389 . S
C188 C187 1.389 . S
C188 C189 1.399 . S
C188 H201 0.931 . S
C189 C188 1.399 . S
C189 C190 1.390 . S
C190 C185 1.392 . S
C190 C189 1.390 . S
C190 H202 0.929 . S
O191 Tb175 2.326 . S
O191 C179 1.242 . S
O192 Eu176 2.324 . S
O192 C179 1.258 . S
O193 Tb175 2.500 . S
O193 C195 1.273 . S
O194 Tb175 2.473 . S
O194 C195 1.257 . S
C195 O193 1.273 . S
C195 O194 1.257 . S
O196 Eu176 2.326 . S
O196 C184 1.242 . S
O197 Tb175 2.324 . S
O197 C184 1.258 . S
O198 Eu176 2.500 . S
O198 C181 1.273 . S
O199 Eu176 2.473 . S
O199 C181 1.257 . S
H200 C186 0.929 . S
H201 C188 0.931 . S
H202 C190 0.929 . S
O203 Tb204 2.292 . S
O203 C206 1.255 . S
Tb204 O203 2.292 . S
Tb204 O220 2.326 . S
Tb204 O222 2.500 . S
Tb204 O223 2.473 . S
Tb204 O226 2.324 . S
Eu205 O209 2.292 . S
Eu205 C210 2.852 . S
Eu205 O221 2.324 . S
Eu205 O225 2.326 . S
Eu205 O227 2.500 . S
Eu205 O228 2.473 . S
C206 O203 1.255 . S
C206 O207 1.247 . S
O207 C206 1.247 . S
C208 O220 1.242 . S
C208 O221 1.258 . S
O209 Eu205 2.292 . S
O209 C211 1.255 . S
C210 Eu205 2.852 . S
C210 C214 1.503 . S
C210 O227 1.273 . S
C210 O228 1.257 . S
C211 O209 1.255 . S
C211 O212 1.247 . S
O212 C211 1.247 . S
C213 O225 1.242 . S
C213 O226 1.258 . S
C214 C210 1.503 . S
C214 C215 1.379 . S
C214 C219 1.392 . S
C215 C214 1.379 . S
C215 C216 1.404 . S
C215 H229 0.929 . S
C216 C215 1.404 . S
C216 C217 1.389 . S
C217 C216 1.389 . S
C217 C218 1.399 . S
C217 H230 0.931 . S
C218 C217 1.399 . S
C218 C219 1.390 . S
C219 C214 1.392 . S
C219 C218 1.390 . S
C219 H231 0.929 . S
O220 Tb204 2.326 . S
O220 C208 1.242 . S
O221 Eu205 2.324 . S
O221 C208 1.258 . S
O222 Tb204 2.500 . S
O222 C224 1.273 . S
O223 Tb204 2.473 . S
O223 C224 1.257 . S
C224 O222 1.273 . S
C224 O223 1.257 . S
O225 Eu205 2.326 . S
O225 C213 1.242 . S
O226 Tb204 2.324 . S
O226 C213 1.258 . S
O227 Eu205 2.500 . S
O227 C210 1.273 . S
O228 Eu205 2.473 . S
O228 C210 1.257 . S
H229 C215 0.929 . S
H230 C217 0.931 . S
H231 C219 0.929 . S
O232 Tb233 2.292 . S
O232 C235 1.255 . S
Tb233 O232 2.292 . S
Tb233 O249 2.326 . S
Tb233 O251 2.500 . S
Tb233 O252 2.473 . S
Tb233 O255 2.324 . S
Eu234 O238 2.292 1_545 S
Eu234 C239 2.852 . S
Eu234 O250 2.324 . S
Eu234 O254 2.326 . S
Eu234 O256 2.500 . S
Eu234 O257 2.473 . S
C235 O232 1.255 . S
C235 O236 1.247 . S
O236 C235 1.247 . S
C237 O249 1.242 . S
C237 O250 1.258 . S
O238 Eu234 2.292 1_565 S
O238 C240 1.255 . S
C239 Eu234 2.852 . S
C239 C243 1.503 . S
C239 O256 1.273 . S
C239 O257 1.257 . S
C240 O238 1.255 . S
C240 O241 1.247 . S
O241 C240 1.247 . S
C242 O254 1.242 . S
C242 O255 1.258 . S
C243 C239 1.503 . S
C243 C244 1.379 . S
C243 C248 1.392 . S
C244 C243 1.379 . S
C244 C245 1.404 . S
C244 H258 0.929 . S
C245 C244 1.404 . S
C245 C246 1.389 . S
C246 C245 1.389 . S
C246 C247 1.399 . S
C246 H259 0.931 . S
C247 C246 1.399 . S
C247 C248 1.390 . S
C248 C243 1.392 . S
C248 C247 1.390 . S
C248 H260 0.929 . S
O249 Tb233 2.326 . S
O249 C237 1.242 . S
O250 Eu234 2.324 . S
O250 C237 1.258 . S
O251 Tb233 2.500 . S
O251 C253 1.273 . S
O252 Tb233 2.473 . S
O252 C253 1.257 . S
C253 O251 1.273 . S
C253 O252 1.257 . S
O254 Eu234 2.326 . S
O254 C242 1.242 . S
O255 Tb233 2.324 . S
O255 C242 1.258 . S
O256 Eu234 2.500 . S
O256 C239 1.273 . S
O257 Eu234 2.473 . S
O257 C239 1.257 . S
H258 C244 0.929 . S
H259 C246 0.931 . S
H260 C248 0.929 . S
O261 Tb262 2.292 . S
O261 C264 1.255 . S
Tb262 O261 2.292 . S
Tb262 O278 2.326 . S
Tb262 O280 2.500 . S
Tb262 O281 2.473 . S
Tb262 O284 2.324 . S
Eu263 O267 2.292 . S
Eu263 C268 2.852 . S
Eu263 O279 2.324 . S
Eu263 O283 2.326 . S
Eu263 O285 2.500 . S
Eu263 O286 2.473 . S
C264 O261 1.255 . S
C264 O265 1.247 . S
O265 C264 1.247 . S
C266 O278 1.242 . S
C266 O279 1.258 . S
O267 Eu263 2.292 . S
O267 C269 1.255 . S
C268 Eu263 2.852 . S
C268 C272 1.503 . S
C268 O285 1.273 . S
C268 O286 1.257 . S
C269 O267 1.255 . S
C269 O270 1.247 . S
O270 C269 1.247 . S
C271 O283 1.242 . S
C271 O284 1.258 . S
C272 C268 1.503 . S
C272 C273 1.379 . S
C272 C277 1.392 . S
C273 C272 1.379 . S
C273 C274 1.404 . S
C273 H287 0.929 . S
C274 C273 1.404 . S
C274 C275 1.389 . S
C275 C274 1.389 . S
C275 C276 1.399 . S
C275 H288 0.931 . S
C276 C275 1.399 . S
C276 C277 1.390 . S
C277 C272 1.392 . S
C277 C276 1.390 . S
C277 H289 0.929 . S
O278 Tb262 2.326 . S
O278 C266 1.242 . S
O279 Eu263 2.324 . S
O279 C266 1.258 . S
O280 Tb262 2.500 . S
O280 C282 1.273 . S
O281 Tb262 2.473 . S
O281 C282 1.257 . S
C282 O280 1.273 . S
C282 O281 1.257 . S
O283 Eu263 2.326 . S
O283 C271 1.242 . S
O284 Tb262 2.324 . S
O284 C271 1.258 . S
O285 Eu263 2.500 . S
O285 C268 1.273 . S
O286 Eu263 2.473 . S
O286 C268 1.257 . S
H287 C273 0.929 . S
H288 C275 0.931 . S
H289 C277 0.929 . S
O290 Tb291 2.292 . S
O290 C293 1.255 . S
Tb291 O290 2.292 . S
Tb291 O307 2.326 . S
Tb291 O309 2.500 . S
Tb291 O310 2.473 . S
Tb291 O313 2.324 . S
Eu292 O296 2.292 . S
Eu292 C297 2.852 . S
Eu292 O308 2.324 . S
Eu292 O312 2.326 . S
Eu292 O314 2.500 . S
Eu292 O315 2.473 . S
C293 O290 1.255 . S
C293 O294 1.247 . S
O294 C293 1.247 . S
C295 O307 1.242 . S
C295 O308 1.258 . S
O296 Eu292 2.292 . S
O296 C298 1.255 . S
C297 Eu292 2.852 . S
C297 C301 1.503 . S
C297 O314 1.273 . S
C297 O315 1.257 . S
C298 O296 1.255 . S
C298 O299 1.247 . S
O299 C298 1.247 . S
C300 O312 1.242 . S
C300 O313 1.258 . S
C301 C297 1.503 . S
C301 C302 1.379 . S
C301 C306 1.392 . S
C302 C301 1.379 . S
C302 C303 1.404 . S
C302 H316 0.929 . S
C303 C302 1.404 . S
C303 C304 1.389 . S
C304 C303 1.389 . S
C304 C305 1.399 . S
C304 H317 0.931 . S
C305 C304 1.399 . S
C305 C306 1.390 . S
C306 C301 1.392 . S
C306 C305 1.390 . S
C306 H318 0.929 . S
O307 Tb291 2.326 . S
O307 C295 1.242 . S
O308 Eu292 2.324 . S
O308 C295 1.258 . S
O309 Tb291 2.500 . S
O309 C311 1.273 . S
O310 Tb291 2.473 . S
O310 C311 1.257 . S
C311 O309 1.273 . S
C311 O310 1.257 . S
O312 Eu292 2.326 . S
O312 C300 1.242 . S
O313 Tb291 2.324 . S
O313 C300 1.258 . S
O314 Eu292 2.500 . S
O314 C297 1.273 . S
O315 Eu292 2.473 . S
O315 C297 1.257 . S
H316 C302 0.929 . S
H317 C304 0.931 . S
H318 C306 0.929 . S
O319 Tb320 2.292 . S
O319 C322 1.255 . S
Tb320 O319 2.292 . S
Tb320 O336 2.326 . S
Tb320 O338 2.500 . S
Tb320 O339 2.473 . S
Tb320 O342 2.324 . S
Eu321 O325 2.292 1_455 S
Eu321 C326 2.852 . S
Eu321 O337 2.324 . S
Eu321 O341 2.326 . S
Eu321 O343 2.500 . S
Eu321 O344 2.473 . S
C322 O319 1.255 . S
C322 O323 1.247 . S
O323 C322 1.247 . S
C324 O336 1.242 . S
C324 O337 1.258 . S
O325 Eu321 2.292 1_655 S
O325 C327 1.255 . S
C326 Eu321 2.852 . S
C326 C330 1.503 . S
C326 O343 1.273 . S
C326 O344 1.257 . S
C327 O325 1.255 . S
C327 O328 1.247 . S
O328 C327 1.247 . S
C329 O341 1.242 . S
C329 O342 1.258 . S
C330 C326 1.503 . S
C330 C331 1.379 . S
C330 C335 1.392 . S
C331 C330 1.379 . S
C331 C332 1.404 . S
C331 H345 0.929 . S
C332 C331 1.404 . S
C332 C333 1.389 . S
C333 C332 1.389 . S
C333 C334 1.399 . S
C333 H346 0.931 . S
C334 C333 1.399 . S
C334 C335 1.390 . S
C335 C330 1.392 . S
C335 C334 1.390 . S
C335 H347 0.929 . S
O336 Tb320 2.326 . S
O336 C324 1.242 . S
O337 Eu321 2.324 . S
O337 C324 1.258 . S
O338 Tb320 2.500 . S
O338 C340 1.273 . S
O339 Tb320 2.473 . S
O339 C340 1.257 . S
C340 O338 1.273 . S
C340 O339 1.257 . S
O341 Eu321 2.326 . S
O341 C329 1.242 . S
O342 Tb320 2.324 . S
O342 C329 1.258 . S
O343 Eu321 2.500 . S
O343 C326 1.273 . S
O344 Eu321 2.473 . S
O344 C326 1.257 . S
H345 C331 0.929 . S
H346 C333 0.931 . S
H347 C335 0.929 . S
O348 Tb349 2.292 . S
O348 C351 1.255 . S
Tb349 O348 2.292 . S
Tb349 O365 2.326 . S
Tb349 O367 2.500 . S
Tb349 O368 2.473 . S
Tb349 O371 2.324 . S
Eu350 O354 2.292 . S
Eu350 C355 2.852 . S
Eu350 O366 2.324 . S
Eu350 O370 2.326 . S
Eu350 O372 2.500 . S
Eu350 O373 2.473 . S
C351 O348 1.255 . S
C351 O352 1.247 . S
O352 C351 1.247 . S
C353 O365 1.242 . S
C353 O366 1.258 . S
O354 Eu350 2.292 . S
O354 C356 1.255 . S
C355 Eu350 2.852 . S
C355 C359 1.503 . S
C355 O372 1.273 . S
C355 O373 1.257 . S
C356 O354 1.255 . S
C356 O357 1.247 . S
O357 C356 1.247 . S
C358 O370 1.242 . S
C358 O371 1.258 . S
C359 C355 1.503 . S
C359 C360 1.379 . S
C359 C364 1.392 . S
C360 C359 1.379 . S
C360 C361 1.404 . S
C360 H374 0.929 . S
C361 C360 1.404 . S
C361 C362 1.389 . S
C362 C361 1.389 . S
C362 C363 1.399 . S
C362 H375 0.931 . S
C363 C362 1.399 . S
C363 C364 1.390 . S
C364 C359 1.392 . S
C364 C363 1.390 . S
C364 H376 0.929 . S
O365 Tb349 2.326 . S
O365 C353 1.242 . S
O366 Eu350 2.324 . S
O366 C353 1.258 . S
O367 Tb349 2.500 . S
O367 C369 1.273 . S
O368 Tb349 2.473 . S
O368 C369 1.257 . S
C369 O367 1.273 . S
C369 O368 1.257 . S
O370 Eu350 2.326 . S
O370 C358 1.242 . S
O371 Tb349 2.324 . S
O371 C358 1.258 . S
O372 Eu350 2.500 . S
O372 C355 1.273 . S
O373 Eu350 2.473 . S
O373 C355 1.257 . S
H374 C360 0.929 . S
H375 C362 0.931 . S
H376 C364 0.929 . S
O377 Tb378 2.292 . S
O377 C380 1.255 . S
Tb378 O377 2.292 . S
Tb378 O394 2.326 . S
Tb378 O396 2.500 . S
Tb378 O397 2.473 . S
Tb378 O400 2.324 . S
Eu379 O383 2.292 1_455 S
Eu379 C384 2.852 . S
Eu379 O395 2.324 . S
Eu379 O399 2.326 . S
Eu379 O401 2.500 . S
Eu379 O402 2.473 . S
C380 O377 1.255 . S
C380 O381 1.247 . S
O381 C380 1.247 . S
C382 O394 1.242 . S
C382 O395 1.258 . S
O383 Eu379 2.292 1_655 S
O383 C385 1.255 . S
C384 Eu379 2.852 . S
C384 C388 1.503 . S
C384 O401 1.273 . S
C384 O402 1.257 . S
C385 O383 1.255 . S
C385 O386 1.247 . S
O386 C385 1.247 . S
C387 O399 1.242 . S
C387 O400 1.258 . S
C388 C384 1.503 . S
C388 C389 1.379 . S
C388 C393 1.392 . S
C389 C388 1.379 . S
C389 C390 1.404 . S
C389 H403 0.929 . S
C390 C389 1.404 . S
C390 C391 1.389 . S
C391 C390 1.389 . S
C391 C392 1.399 . S
C391 H404 0.931 . S
C392 C391 1.399 . S
C392 C393 1.390 . S
C393 C388 1.392 . S
C393 C392 1.390 . S
C393 H405 0.929 . S
O394 Tb378 2.326 . S
O394 C382 1.242 . S
O395 Eu379 2.324 . S
O395 C382 1.258 . S
O396 Tb378 2.500 . S
O396 C398 1.273 . S
O397 Tb378 2.473 . S
O397 C398 1.257 . S
C398 O396 1.273 . S
C398 O397 1.257 . S
O399 Eu379 2.326 . S
O399 C387 1.242 . S
O400 Tb378 2.324 . S
O400 C387 1.258 . S
O401 Eu379 2.500 . S
O401 C384 1.273 . S
O402 Eu379 2.473 . S
O402 C384 1.257 . S
H403 C389 0.929 . S
H404 C391 0.931 . S
H405 C393 0.929 . S
O406 Tb407 2.292 . S
O406 C409 1.255 . S
Tb407 O406 2.292 . S
Tb407 O423 2.326 . S
Tb407 O425 2.500 . S
Tb407 O426 2.473 . S
Tb407 O429 2.324 . S
Eu408 O412 2.292 1_545 S
Eu408 C413 2.852 . S
Eu408 O424 2.324 . S
Eu408 O428 2.326 . S
Eu408 O430 2.500 . S
Eu408 O431 2.473 . S
C409 O406 1.255 . S
C409 O410 1.247 . S
O410 C409 1.247 . S
C411 O423 1.242 . S
C411 O424 1.258 . S
O412 Eu408 2.292 1_565 S
O412 C414 1.255 . S
C413 Eu408 2.852 . S
C413 C417 1.503 . S
C413 O430 1.273 . S
C413 O431 1.257 . S
C414 O412 1.255 . S
C414 O415 1.247 . S
O415 C414 1.247 . S
C416 O428 1.242 . S
C416 O429 1.258 . S
C417 C413 1.503 . S
C417 C418 1.379 . S
C417 C422 1.392 . S
C418 C417 1.379 . S
C418 C419 1.404 . S
C418 H432 0.929 . S
C419 C418 1.404 . S
C419 C420 1.389 . S
C420 C419 1.389 . S
C420 C421 1.399 . S
C420 H433 0.931 . S
C421 C420 1.399 . S
C421 C422 1.390 . S
C422 C417 1.392 . S
C422 C421 1.390 . S
C422 H434 0.929 . S
O423 Tb407 2.326 . S
O423 C411 1.242 . S
O424 Eu408 2.324 . S
O424 C411 1.258 . S
O425 Tb407 2.500 . S
O425 C427 1.273 . S
O426 Tb407 2.473 . S
O426 C427 1.257 . S
C427 O425 1.273 . S
C427 O426 1.257 . S
O428 Eu408 2.326 . S
O428 C416 1.242 . S
O429 Tb407 2.324 . S
O429 C416 1.258 . S
O430 Eu408 2.500 . S
O430 C413 1.273 . S
O431 Eu408 2.473 . S
O431 C413 1.257 . S
H432 C418 0.929 . S
H433 C420 0.931 . S
H434 C422 0.929 . S
O435 Tb436 2.292 . S
O435 C438 1.255 . S
Tb436 O435 2.292 . S
Tb436 O452 2.326 . S
Tb436 O454 2.500 . S
Tb436 O455 2.473 . S
Tb436 O458 2.324 . S
Eu437 O441 2.292 . S
Eu437 C442 2.852 . S
Eu437 O453 2.324 . S
Eu437 O457 2.326 . S
Eu437 O459 2.500 . S
Eu437 O460 2.473 . S
C438 O435 1.255 . S
C438 O439 1.247 . S
O439 C438 1.247 . S
C440 O452 1.242 . S
C440 O453 1.258 . S
O441 Eu437 2.292 . S
O441 C443 1.255 . S
C442 Eu437 2.852 . S
C442 C446 1.503 . S
C442 O459 1.273 . S
C442 O460 1.257 . S
C443 O441 1.255 . S
C443 O444 1.247 . S
O444 C443 1.247 . S
C445 O457 1.242 . S
C445 O458 1.258 . S
C446 C442 1.503 . S
C446 C447 1.379 . S
C446 C451 1.392 . S
C447 C446 1.379 . S
C447 C448 1.404 . S
C447 H461 0.929 . S
C448 C447 1.404 . S
C448 C449 1.389 . S
C449 C448 1.389 . S
C449 C450 1.399 . S
C449 H462 0.931 . S
C450 C449 1.399 . S
C450 C451 1.390 . S
C451 C446 1.392 . S
C451 C450 1.390 . S
C451 H463 0.929 . S
O452 Tb436 2.326 . S
O452 C440 1.242 . S
O453 Eu437 2.324 . S
O453 C440 1.258 . S
O454 Tb436 2.500 . S
O454 C456 1.273 . S
O455 Tb436 2.473 . S
O455 C456 1.257 . S
C456 O454 1.273 . S
C456 O455 1.257 . S
O457 Eu437 2.326 . S
O457 C445 1.242 . S
O458 Tb436 2.324 . S
O458 C445 1.258 . S
O459 Eu437 2.500 . S
O459 C442 1.273 . S
O460 Eu437 2.473 . S
O460 C442 1.257 . S
H461 C447 0.929 . S
H462 C449 0.931 . S
H463 C451 0.929 . S
O464 Tb465 2.292 . S
O464 C467 1.255 . S
Tb465 O464 2.292 . S
Tb465 O481 2.326 . S
Tb465 O483 2.500 . S
Tb465 O484 2.473 . S
Tb465 O487 2.324 . S
Eu466 O470 2.292 1_554 S
Eu466 C471 2.852 . S
Eu466 O482 2.324 . S
Eu466 O486 2.326 . S
Eu466 O488 2.500 . S
Eu466 O489 2.473 . S
C467 O464 1.255 . S
C467 O468 1.247 . S
O468 C467 1.247 . S
C469 O481 1.242 . S
C469 O482 1.258 . S
O470 Eu466 2.292 1_556 S
O470 C472 1.255 . S
C471 Eu466 2.852 . S
C471 C475 1.503 . S
C471 O488 1.273 . S
C471 O489 1.257 . S
C472 O470 1.255 . S
C472 O473 1.247 . S
O473 C472 1.247 . S
C474 O486 1.242 . S
C474 O487 1.258 . S
C475 C471 1.503 . S
C475 C476 1.379 . S
C475 C480 1.392 . S
C476 C475 1.379 . S
C476 C477 1.404 . S
C476 H490 0.929 . S
C477 C476 1.404 . S
C477 C478 1.389 . S
C478 C477 1.389 . S
C478 C479 1.399 . S
C478 H491 0.931 . S
C479 C478 1.399 . S
C479 C480 1.390 . S
C480 C475 1.392 . S
C480 C479 1.390 . S
C480 H492 0.929 . S
O481 Tb465 2.326 . S
O481 C469 1.242 . S
O482 Eu466 2.324 . S
O482 C469 1.258 . S
O483 Tb465 2.500 . S
O483 C485 1.273 . S
O484 Tb465 2.473 . S
O484 C485 1.257 . S
C485 O483 1.273 . S
C485 O484 1.257 . S
O486 Eu466 2.326 . S
O486 C474 1.242 . S
O487 Tb465 2.324 . S
O487 C474 1.258 . S
O488 Eu466 2.500 . S
O488 C471 1.273 . S
O489 Eu466 2.473 . S
O489 C471 1.257 . S
H490 C476 0.929 . S
H491 C478 0.931 . S
H492 C480 0.929 . S
O493 Tb494 2.292 . S
O493 C496 1.255 . S
Tb494 O493 2.292 . S
Tb494 O510 2.326 . S
Tb494 O512 2.500 . S
Tb494 O513 2.473 . S
Tb494 O516 2.324 . S
Eu495 O499 2.292 . S
Eu495 C500 2.852 . S
Eu495 O511 2.324 . S
Eu495 O515 2.326 . S
Eu495 O517 2.500 . S
Eu495 O518 2.473 . S
C496 O493 1.255 . S
C496 O497 1.247 . S
O497 C496 1.247 . S
C498 O510 1.242 . S
C498 O511 1.258 . S
O499 Eu495 2.292 . S
O499 C501 1.255 . S
C500 Eu495 2.852 . S
C500 C504 1.503 . S
C500 O517 1.273 . S
C500 O518 1.257 . S
C501 O499 1.255 . S
C501 O502 1.247 . S
O502 C501 1.247 . S
C503 O515 1.242 . S
C503 O516 1.258 . S
C504 C500 1.503 . S
C504 C505 1.379 . S
C504 C509 1.392 . S
C505 C504 1.379 . S
C505 C506 1.404 . S
C505 H519 0.929 . S
C506 C505 1.404 . S
C506 C507 1.389 . S
C507 C506 1.389 . S
C507 C508 1.399 . S
C507 H520 0.931 . S
C508 C507 1.399 . S
C508 C509 1.390 . S
C509 C504 1.392 . S
C509 C508 1.390 . S
C509 H521 0.929 . S
O510 Tb494 2.326 . S
O510 C498 1.242 . S
O511 Eu495 2.324 . S
O511 C498 1.258 . S
O512 Tb494 2.500 . S
O512 C514 1.273 . S
O513 Tb494 2.473 . S
O513 C514 1.257 . S
C514 O512 1.273 . S
C514 O513 1.257 . S
O515 Eu495 2.326 . S
O515 C503 1.242 . S
O516 Tb494 2.324 . S
O516 C503 1.258 . S
O517 Eu495 2.500 . S
O517 C500 1.273 . S
O518 Eu495 2.473 . S
O518 C500 1.257 . S
H519 C505 0.929 . S
H520 C507 0.931 . S
H521 C509 0.929 . S
O522 Tb523 2.292 . S
O522 C525 1.255 . S
Tb523 O522 2.292 . S
Tb523 O539 2.326 . S
Tb523 O541 2.500 . S
Tb523 O542 2.473 . S
Tb523 O545 2.324 . S
Eu524 O528 2.292 . S
Eu524 C529 2.852 . S
Eu524 O540 2.324 . S
Eu524 O544 2.326 . S
Eu524 O546 2.500 . S
Eu524 O547 2.473 . S
C525 O522 1.255 . S
C525 O526 1.247 . S
O526 C525 1.247 . S
C527 O539 1.242 . S
C527 O540 1.258 . S
O528 Eu524 2.292 . S
O528 C530 1.255 . S
C529 Eu524 2.852 . S
C529 C533 1.503 . S
C529 O546 1.273 . S
C529 O547 1.257 . S
C530 O528 1.255 . S
C530 O531 1.247 . S
O531 C530 1.247 . S
C532 O544 1.242 . S
C532 O545 1.258 . S
C533 C529 1.503 . S
C533 C534 1.379 . S
C533 C538 1.392 . S
C534 C533 1.379 . S
C534 C535 1.404 . S
C534 H548 0.929 . S
C535 C534 1.404 . S
C535 C536 1.389 . S
C536 C535 1.389 . S
C536 C537 1.399 . S
C536 H549 0.931 . S
C537 C536 1.399 . S
C537 C538 1.390 . S
C538 C533 1.392 . S
C538 C537 1.390 . S
C538 H550 0.929 . S
O539 Tb523 2.326 . S
O539 C527 1.242 . S
O540 Eu524 2.324 . S
O540 C527 1.258 . S
O541 Tb523 2.500 . S
O541 C543 1.273 . S
O542 Tb523 2.473 . S
O542 C543 1.257 . S
C543 O541 1.273 . S
C543 O542 1.257 . S
O544 Eu524 2.326 . S
O544 C532 1.242 . S
O545 Tb523 2.324 . S
O545 C532 1.258 . S
O546 Eu524 2.500 . S
O546 C529 1.273 . S
O547 Eu524 2.473 . S
O547 C529 1.257 . S
H548 C534 0.929 . S
H549 C536 0.931 . S
H550 C538 0.929 . S
O551 Tb552 2.292 . S
O551 C554 1.255 . S
Tb552 O551 2.292 . S
Tb552 O568 2.326 . S
Tb552 O570 2.500 . S
Tb552 O571 2.473 . S
Tb552 O574 2.324 . S
Eu553 O557 2.292 . S
Eu553 C558 2.852 . S
Eu553 O569 2.324 . S
Eu553 O573 2.326 . S
Eu553 O575 2.500 . S
Eu553 O576 2.473 . S
C554 O551 1.255 . S
C554 O555 1.247 . S
O555 C554 1.247 . S
C556 O568 1.242 . S
C556 O569 1.258 . S
O557 Eu553 2.292 . S
O557 C559 1.255 . S
C558 Eu553 2.852 . S
C558 C562 1.503 . S
C558 O575 1.273 . S
C558 O576 1.257 . S
C559 O557 1.255 . S
C559 O560 1.247 . S
O560 C559 1.247 . S
C561 O573 1.242 . S
C561 O574 1.258 . S
C562 C558 1.503 . S
C562 C563 1.379 . S
C562 C567 1.392 . S
C563 C562 1.379 . S
C563 C564 1.404 . S
C563 H577 0.929 . S
C564 C563 1.404 . S
C564 C565 1.389 . S
C565 C564 1.389 . S
C565 C566 1.399 . S
C565 H578 0.931 . S
C566 C565 1.399 . S
C566 C567 1.390 . S
C567 C562 1.392 . S
C567 C566 1.390 . S
C567 H579 0.929 . S
O568 Tb552 2.326 . S
O568 C556 1.242 . S
O569 Eu553 2.324 . S
O569 C556 1.258 . S
O570 Tb552 2.500 . S
O570 C572 1.273 . S
O571 Tb552 2.473 . S
O571 C572 1.257 . S
C572 O570 1.273 . S
C572 O571 1.257 . S
O573 Eu553 2.326 . S
O573 C561 1.242 . S
O574 Tb552 2.324 . S
O574 C561 1.258 . S
O575 Eu553 2.500 . S
O575 C558 1.273 . S
O576 Eu553 2.473 . S
O576 C558 1.257 . S
H577 C563 0.929 . S
H578 C565 0.931 . S
H579 C567 0.929 . S
O580 Tb581 2.292 . S
O580 C583 1.255 . S
Tb581 O580 2.292 . S
Tb581 O597 2.326 . S
Tb581 O599 2.500 . S
Tb581 O600 2.473 . S
Tb581 O603 2.324 . S
Eu582 O586 2.292 . S
Eu582 C587 2.852 . S
Eu582 O598 2.324 . S
Eu582 O602 2.326 . S
Eu582 O604 2.500 . S
Eu582 O605 2.473 . S
C583 O580 1.255 . S
C583 O584 1.247 . S
O584 C583 1.247 . S
C585 O597 1.242 . S
C585 O598 1.258 . S
O586 Eu582 2.292 . S
O586 C588 1.255 . S
C587 Eu582 2.852 . S
C587 C591 1.503 . S
C587 O604 1.273 . S
C587 O605 1.257 . S
C588 O586 1.255 . S
C588 O589 1.247 . S
O589 C588 1.247 . S
C590 O602 1.242 . S
C590 O603 1.258 . S
C591 C587 1.503 . S
C591 C592 1.379 . S
C591 C596 1.392 . S
C592 C591 1.379 . S
C592 C593 1.404 . S
C592 H606 0.929 . S
C593 C592 1.404 . S
C593 C594 1.389 . S
C594 C593 1.389 . S
C594 C595 1.399 . S
C594 H607 0.931 . S
C595 C594 1.399 . S
C595 C596 1.390 . S
C596 C591 1.392 . S
C596 C595 1.390 . S
C596 H608 0.929 . S
O597 Tb581 2.326 . S
O597 C585 1.242 . S
O598 Eu582 2.324 . S
O598 C585 1.258 . S
O599 Tb581 2.500 . S
O599 C601 1.273 . S
O600 Tb581 2.473 . S
O600 C601 1.257 . S
C601 O599 1.273 . S
C601 O600 1.257 . S
O602 Eu582 2.326 . S
O602 C590 1.242 . S
O603 Tb581 2.324 . S
O603 C590 1.258 . S
O604 Eu582 2.500 . S
O604 C587 1.273 . S
O605 Eu582 2.473 . S
O605 C587 1.257 . S
H606 C592 0.929 . S
H607 C594 0.931 . S
H608 C596 0.929 . S
O609 Tb610 2.292 . S
O609 C612 1.255 . S
Tb610 O609 2.292 . S
Tb610 O626 2.326 . S
Tb610 O628 2.500 . S
Tb610 O629 2.473 . S
Tb610 O632 2.324 . S
Eu611 O615 2.292 1_554 S
Eu611 C616 2.852 . S
Eu611 O627 2.324 . S
Eu611 O631 2.326 . S
Eu611 O633 2.500 . S
Eu611 O634 2.473 . S
C612 O609 1.255 . S
C612 O613 1.247 . S
O613 C612 1.247 . S
C614 O626 1.242 . S
C614 O627 1.258 . S
O615 Eu611 2.292 1_556 S
O615 C617 1.255 . S
C616 Eu611 2.852 . S
C616 C620 1.503 . S
C616 O633 1.273 . S
C616 O634 1.257 . S
C617 O615 1.255 . S
C617 O618 1.247 . S
O618 C617 1.247 . S
C619 O631 1.242 . S
C619 O632 1.258 . S
C620 C616 1.503 . S
C620 C621 1.379 . S
C620 C625 1.392 . S
C621 C620 1.379 . S
C621 C622 1.404 . S
C621 H635 0.929 . S
C622 C621 1.404 . S
C622 C623 1.389 . S
C623 C622 1.389 . S
C623 C624 1.399 . S
C623 H636 0.931 . S
C624 C623 1.399 . S
C624 C625 1.390 . S
C625 C620 1.392 . S
C625 C624 1.390 . S
C625 H637 0.929 . S
O626 Tb610 2.326 . S
O626 C614 1.242 . S
O627 Eu611 2.324 . S
O627 C614 1.258 . S
O628 Tb610 2.500 . S
O628 C630 1.273 . S
O629 Tb610 2.473 . S
O629 C630 1.257 . S
C630 O628 1.273 . S
C630 O629 1.257 . S
O631 Eu611 2.326 . S
O631 C619 1.242 . S
O632 Tb610 2.324 . S
O632 C619 1.258 . S
O633 Eu611 2.500 . S
O633 C616 1.273 . S
O634 Eu611 2.473 . S
O634 C616 1.257 . S
H635 C621 0.929 . S
H636 C623 0.931 . S
H637 C625 0.929 . S
O638 Tb639 2.292 . S
O638 C641 1.255 . S
Tb639 O638 2.292 . S
Tb639 O655 2.326 . S
Tb639 O657 2.500 . S
Tb639 O658 2.473 . S
Tb639 O661 2.324 . S
Eu640 O644 2.292 1_554 S
Eu640 C645 2.852 . S
Eu640 O656 2.324 . S
Eu640 O660 2.326 . S
Eu640 O662 2.500 . S
Eu640 O663 2.473 . S
C641 O638 1.255 . S
C641 O642 1.247 . S
O642 C641 1.247 . S
C643 O655 1.242 . S
C643 O656 1.258 . S
O644 Eu640 2.292 1_556 S
O644 C646 1.255 . S
C645 Eu640 2.852 . S
C645 C649 1.503 . S
C645 O662 1.273 . S
C645 O663 1.257 . S
C646 O644 1.255 . S
C646 O647 1.247 . S
O647 C646 1.247 . S
C648 O660 1.242 . S
C648 O661 1.258 . S
C649 C645 1.503 . S
C649 C650 1.379 . S
C649 C654 1.392 . S
C650 C649 1.379 . S
C650 C651 1.404 . S
C650 H664 0.929 . S
C651 C650 1.404 . S
C651 C652 1.389 . S
C652 C651 1.389 . S
C652 C653 1.399 . S
C652 H665 0.931 . S
C653 C652 1.399 . S
C653 C654 1.390 . S
C654 C649 1.392 . S
C654 C653 1.390 . S
C654 H666 0.929 . S
O655 Tb639 2.326 . S
O655 C643 1.242 . S
O656 Eu640 2.324 . S
O656 C643 1.258 . S
O657 Tb639 2.500 . S
O657 C659 1.273 . S
O658 Tb639 2.473 . S
O658 C659 1.257 . S
C659 O657 1.273 . S
C659 O658 1.257 . S
O660 Eu640 2.326 . S
O660 C648 1.242 . S
O661 Tb639 2.324 . S
O661 C648 1.258 . S
O662 Eu640 2.500 . S
O662 C645 1.273 . S
O663 Eu640 2.473 . S
O663 C645 1.257 . S
H664 C650 0.929 . S
H665 C652 0.931 . S
H666 C654 0.929 . S
O667 Tb668 2.292 . S
O667 C670 1.255 . S
Tb668 O667 2.292 . S
Tb668 O684 2.326 . S
Tb668 O686 2.500 . S
Tb668 O687 2.473 . S
Tb668 O690 2.324 . S
Eu669 O673 2.292 1_554 S
Eu669 C674 2.852 . S
Eu669 O685 2.324 . S
Eu669 O689 2.326 . S
Eu669 O691 2.500 . S
Eu669 O692 2.473 . S
C670 O667 1.255 . S
C670 O671 1.247 . S
O671 C670 1.247 . S
C672 O684 1.242 . S
C672 O685 1.258 . S
O673 Eu669 2.292 1_556 S
O673 C675 1.255 . S
C674 Eu669 2.852 . S
C674 C678 1.503 . S
C674 O691 1.273 . S
C674 O692 1.257 . S
C675 O673 1.255 . S
C675 O676 1.247 . S
O676 C675 1.247 . S
C677 O689 1.242 . S
C677 O690 1.258 . S
C678 C674 1.503 . S
C678 C679 1.379 . S
C678 C683 1.392 . S
C679 C678 1.379 . S
C679 C680 1.404 . S
C679 H693 0.929 . S
C680 C679 1.404 . S
C680 C681 1.389 . S
C681 C680 1.389 . S
C681 C682 1.399 . S
C681 H694 0.931 . S
C682 C681 1.399 . S
C682 C683 1.390 . S
C683 C678 1.392 . S
C683 C682 1.390 . S
C683 H695 0.929 . S
O684 Tb668 2.326 . S
O684 C672 1.242 . S
O685 Eu669 2.324 . S
O685 C672 1.258 . S
O686 Tb668 2.500 . S
O686 C688 1.273 . S
O687 Tb668 2.473 . S
O687 C688 1.257 . S
C688 O686 1.273 . S
C688 O687 1.257 . S
O689 Eu669 2.326 . S
O689 C677 1.242 . S
O690 Tb668 2.324 . S
O690 C677 1.258 . S
O691 Eu669 2.500 . S
O691 C674 1.273 . S
O692 Eu669 2.473 . S
O692 C674 1.257 . S
H693 C679 0.929 . S
H694 C681 0.931 . S
H695 C683 0.929 . S
O696 Tb697 2.292 . S
O696 C699 1.255 . S
Tb697 O696 2.292 . S
Tb697 O713 2.326 . S
Tb697 O715 2.500 . S
Tb697 O716 2.473 . S
Tb697 O719 2.324 . S
Eu698 O702 2.292 1_655 S
Eu698 C703 2.852 . S
Eu698 O714 2.324 . S
Eu698 O718 2.326 . S
Eu698 O720 2.500 . S
Eu698 O721 2.473 . S
C699 O696 1.255 . S
C699 O700 1.247 . S
O700 C699 1.247 . S
C701 O713 1.242 . S
C701 O714 1.258 . S
O702 Eu698 2.292 1_455 S
O702 C704 1.255 . S
C703 Eu698 2.852 . S
C703 C707 1.503 . S
C703 O720 1.273 . S
C703 O721 1.257 . S
C704 O702 1.255 . S
C704 O705 1.247 . S
O705 C704 1.247 . S
C706 O718 1.242 . S
C706 O719 1.258 . S
C707 C703 1.503 . S
C707 C708 1.379 . S
C707 C712 1.392 . S
C708 C707 1.379 . S
C708 C709 1.404 . S
C708 H722 0.929 . S
C709 C708 1.404 . S
C709 C710 1.389 . S
C710 C709 1.389 . S
C710 C711 1.399 . S
C710 H723 0.931 . S
C711 C710 1.399 . S
C711 C712 1.390 . S
C712 C707 1.392 . S
C712 C711 1.390 . S
C712 H724 0.929 . S
O713 Tb697 2.326 . S
O713 C701 1.242 . S
O714 Eu698 2.324 . S
O714 C701 1.258 . S
O715 Tb697 2.500 . S
O715 C717 1.273 . S
O716 Tb697 2.473 . S
O716 C717 1.257 . S
C717 O715 1.273 . S
C717 O716 1.257 . S
O718 Eu698 2.326 . S
O718 C706 1.242 . S
O719 Tb697 2.324 . S
O719 C706 1.258 . S
O720 Eu698 2.500 . S
O720 C703 1.273 . S
O721 Eu698 2.473 . S
O721 C703 1.257 . S
H722 C708 0.929 . S
H723 C710 0.931 . S
H724 C712 0.929 . S
O725 Tb726 2.292 . S
O725 C728 1.255 . S
Tb726 O725 2.292 . S
Tb726 O742 2.326 . S
Tb726 O744 2.500 . S
Tb726 O745 2.473 . S
Tb726 O748 2.324 . S
Eu727 O731 2.292 1_565 S
Eu727 C732 2.852 . S
Eu727 O743 2.324 . S
Eu727 O747 2.326 . S
Eu727 O749 2.500 . S
Eu727 O750 2.473 . S
C728 O725 1.255 . S
C728 O729 1.247 . S
O729 C728 1.247 . S
C730 O742 1.242 . S
C730 O743 1.258 . S
O731 Eu727 2.292 1_545 S
O731 C733 1.255 . S
C732 Eu727 2.852 . S
C732 C736 1.503 . S
C732 O749 1.273 . S
C732 O750 1.257 . S
C733 O731 1.255 . S
C733 O734 1.247 . S
O734 C733 1.247 . S
C735 O747 1.242 . S
C735 O748 1.258 . S
C736 C732 1.503 . S
C736 C737 1.379 . S
C736 C741 1.392 . S
C737 C736 1.379 . S
C737 C738 1.404 . S
C737 H751 0.929 . S
C738 C737 1.404 . S
C738 C739 1.389 . S
C739 C738 1.389 . S
C739 C740 1.399 . S
C739 H752 0.931 . S
C740 C739 1.399 . S
C740 C741 1.390 . S
C741 C736 1.392 . S
C741 C740 1.390 . S
C741 H753 0.929 . S
O742 Tb726 2.326 . S
O742 C730 1.242 . S
O743 Eu727 2.324 . S
O743 C730 1.258 . S
O744 Tb726 2.500 . S
O744 C746 1.273 . S
O745 Tb726 2.473 . S
O745 C746 1.257 . S
C746 O744 1.273 . S
C746 O745 1.257 . S
O747 Eu727 2.326 . S
O747 C735 1.242 . S
O748 Tb726 2.324 . S
O748 C735 1.258 . S
O749 Eu727 2.500 . S
O749 C732 1.273 . S
O750 Eu727 2.473 . S
O750 C732 1.257 . S
H751 C737 0.929 . S
H752 C739 0.931 . S
H753 C741 0.929 . S
O754 Tb755 2.292 . S
O754 C757 1.255 . S
Tb755 O754 2.292 . S
Tb755 O771 2.326 . S
Tb755 O773 2.500 . S
Tb755 O774 2.473 . S
Tb755 O777 2.324 . S
Eu756 O760 2.292 . S
Eu756 C761 2.852 . S
Eu756 O772 2.324 . S
Eu756 O776 2.326 . S
Eu756 O778 2.500 . S
Eu756 O779 2.473 . S
C757 O754 1.255 . S
C757 O758 1.247 . S
O758 C757 1.247 . S
C759 O771 1.242 . S
C759 O772 1.258 . S
O760 Eu756 2.292 . S
O760 C762 1.255 . S
C761 Eu756 2.852 . S
C761 C765 1.503 . S
C761 O778 1.273 . S
C761 O779 1.257 . S
C762 O760 1.255 . S
C762 O763 1.247 . S
O763 C762 1.247 . S
C764 O776 1.242 . S
C764 O777 1.258 . S
C765 C761 1.503 . S
C765 C766 1.379 . S
C765 C770 1.392 . S
C766 C765 1.379 . S
C766 C767 1.404 . S
C766 H780 0.929 . S
C767 C766 1.404 . S
C767 C768 1.389 . S
C768 C767 1.389 . S
C768 C769 1.399 . S
C768 H781 0.931 . S
C769 C768 1.399 . S
C769 C770 1.390 . S
C770 C765 1.392 . S
C770 C769 1.390 . S
C770 H782 0.929 . S
O771 Tb755 2.326 . S
O771 C759 1.242 . S
O772 Eu756 2.324 . S
O772 C759 1.258 . S
O773 Tb755 2.500 . S
O773 C775 1.273 . S
O774 Tb755 2.473 . S
O774 C775 1.257 . S
C775 O773 1.273 . S
C775 O774 1.257 . S
O776 Eu756 2.326 . S
O776 C764 1.242 . S
O777 Tb755 2.324 . S
O777 C764 1.258 . S
O778 Eu756 2.500 . S
O778 C761 1.273 . S
O779 Eu756 2.473 . S
O779 C761 1.257 . S
H780 C766 0.929 . S
H781 C768 0.931 . S
H782 C770 0.929 . S
O783 Tb784 2.292 . S
O783 C786 1.255 . S
Tb784 O783 2.292 . S
Tb784 O800 2.326 . S
Tb784 O802 2.500 . S
Tb784 O803 2.473 . S
Tb784 O806 2.324 . S
Eu785 O789 2.292 . S
Eu785 C790 2.852 . S
Eu785 O801 2.324 . S
Eu785 O805 2.326 . S
Eu785 O807 2.500 . S
Eu785 O808 2.473 . S
C786 O783 1.255 . S
C786 O787 1.247 . S
O787 C786 1.247 . S
C788 O800 1.242 . S
C788 O801 1.258 . S
O789 Eu785 2.292 . S
O789 C791 1.255 . S
C790 Eu785 2.852 . S
C790 C794 1.503 . S
C790 O807 1.273 . S
C790 O808 1.257 . S
C791 O789 1.255 . S
C791 O792 1.247 . S
O792 C791 1.247 . S
C793 O805 1.242 . S
C793 O806 1.258 . S
C794 C790 1.503 . S
C794 C795 1.379 . S
C794 C799 1.392 . S
C795 C794 1.379 . S
C795 C796 1.404 . S
C795 H809 0.929 . S
C796 C795 1.404 . S
C796 C797 1.389 . S
C797 C796 1.389 . S
C797 C798 1.399 . S
C797 H810 0.931 . S
C798 C797 1.399 . S
C798 C799 1.390 . S
C799 C794 1.392 . S
C799 C798 1.390 . S
C799 H811 0.929 . S
O800 Tb784 2.326 . S
O800 C788 1.242 . S
O801 Eu785 2.324 . S
O801 C788 1.258 . S
O802 Tb784 2.500 . S
O802 C804 1.273 . S
O803 Tb784 2.473 . S
O803 C804 1.257 . S
C804 O802 1.273 . S
C804 O803 1.257 . S
O805 Eu785 2.326 . S
O805 C793 1.242 . S
O806 Tb784 2.324 . S
O806 C793 1.258 . S
O807 Eu785 2.500 . S
O807 C790 1.273 . S
O808 Eu785 2.473 . S
O808 C790 1.257 . S
H809 C795 0.929 . S
H810 C797 0.931 . S
H811 C799 0.929 . S
O812 Tb813 2.292 . S
O812 C815 1.255 . S
Tb813 O812 2.292 . S
Tb813 O829 2.326 . S
Tb813 O831 2.500 . S
Tb813 O832 2.473 . S
Tb813 O835 2.324 . S
Eu814 O818 2.292 1_655 S
Eu814 C819 2.852 . S
Eu814 O830 2.324 . S
Eu814 O834 2.326 . S
Eu814 O836 2.500 . S
Eu814 O837 2.473 . S
C815 O812 1.255 . S
C815 O816 1.247 . S
O816 C815 1.247 . S
C817 O829 1.242 . S
C817 O830 1.258 . S
O818 Eu814 2.292 1_455 S
O818 C820 1.255 . S
C819 Eu814 2.852 . S
C819 C823 1.503 . S
C819 O836 1.273 . S
C819 O837 1.257 . S
C820 O818 1.255 . S
C820 O821 1.247 . S
O821 C820 1.247 . S
C822 O834 1.242 . S
C822 O835 1.258 . S
C823 C819 1.503 . S
C823 C824 1.379 . S
C823 C828 1.392 . S
C824 C823 1.379 . S
C824 C825 1.404 . S
C824 H838 0.929 . S
C825 C824 1.404 . S
C825 C826 1.389 . S
C826 C825 1.389 . S
C826 C827 1.399 . S
C826 H839 0.931 . S
C827 C826 1.399 . S
C827 C828 1.390 . S
C828 C823 1.392 . S
C828 C827 1.390 . S
C828 H840 0.929 . S
O829 Tb813 2.326 . S
O829 C817 1.242 . S
O830 Eu814 2.324 . S
O830 C817 1.258 . S
O831 Tb813 2.500 . S
O831 C833 1.273 . S
O832 Tb813 2.473 . S
O832 C833 1.257 . S
C833 O831 1.273 . S
C833 O832 1.257 . S
O834 Eu814 2.326 . S
O834 C822 1.242 . S
O835 Tb813 2.324 . S
O835 C822 1.258 . S
O836 Eu814 2.500 . S
O836 C819 1.273 . S
O837 Eu814 2.473 . S
O837 C819 1.257 . S
H838 C824 0.929 . S
H839 C826 0.931 . S
H840 C828 0.929 . S
O841 Tb842 2.292 . S
O841 C844 1.255 . S
Tb842 O841 2.292 . S
Tb842 O858 2.326 . S
Tb842 O860 2.500 . S
Tb842 O861 2.473 . S
Tb842 O864 2.324 . S
Eu843 O847 2.292 1_565 S
Eu843 C848 2.852 . S
Eu843 O859 2.324 . S
Eu843 O863 2.326 . S
Eu843 O865 2.500 . S
Eu843 O866 2.473 . S
C844 O841 1.255 . S
C844 O845 1.247 . S
O845 C844 1.247 . S
C846 O858 1.242 . S
C846 O859 1.258 . S
O847 Eu843 2.292 1_545 S
O847 C849 1.255 . S
C848 Eu843 2.852 . S
C848 C852 1.503 . S
C848 O865 1.273 . S
C848 O866 1.257 . S
C849 O847 1.255 . S
C849 O850 1.247 . S
O850 C849 1.247 . S
C851 O863 1.242 . S
C851 O864 1.258 . S
C852 C848 1.503 . S
C852 C853 1.379 . S
C852 C857 1.392 . S
C853 C852 1.379 . S
C853 C854 1.404 . S
C853 H867 0.929 . S
C854 C853 1.404 . S
C854 C855 1.389 . S
C855 C854 1.389 . S
C855 C856 1.399 . S
C855 H868 0.931 . S
C856 C855 1.399 . S
C856 C857 1.390 . S
C857 C852 1.392 . S
C857 C856 1.390 . S
C857 H869 0.929 . S
O858 Tb842 2.326 . S
O858 C846 1.242 . S
O859 Eu843 2.324 . S
O859 C846 1.258 . S
O860 Tb842 2.500 . S
O860 C862 1.273 . S
O861 Tb842 2.473 . S
O861 C862 1.257 . S
C862 O860 1.273 . S
C862 O861 1.257 . S
O863 Eu843 2.326 . S
O863 C851 1.242 . S
O864 Tb842 2.324 . S
O864 C851 1.258 . S
O865 Eu843 2.500 . S
O865 C848 1.273 . S
O866 Eu843 2.473 . S
O866 C848 1.257 . S
H867 C853 0.929 . S
H868 C855 0.931 . S
H869 C857 0.929 . S
O870 Tb871 2.292 . S
O870 C873 1.255 . S
Tb871 O870 2.292 . S
Tb871 O887 2.326 . S
Tb871 O889 2.500 . S
Tb871 O890 2.473 . S
Tb871 O893 2.324 . S
Eu872 O876 2.292 . S
Eu872 C877 2.852 . S
Eu872 O888 2.324 . S
Eu872 O892 2.326 . S
Eu872 O894 2.500 . S
Eu872 O895 2.473 . S
C873 O870 1.255 . S
C873 O874 1.247 . S
O874 C873 1.247 . S
C875 O887 1.242 . S
C875 O888 1.258 . S
O876 Eu872 2.292 . S
O876 C878 1.255 . S
C877 Eu872 2.852 . S
C877 C881 1.503 . S
C877 O894 1.273 . S
C877 O895 1.257 . S
C878 O876 1.255 . S
C878 O879 1.247 . S
O879 C878 1.247 . S
C880 O892 1.242 . S
C880 O893 1.258 . S
C881 C877 1.503 . S
C881 C882 1.379 . S
C881 C886 1.392 . S
C882 C881 1.379 . S
C882 C883 1.404 . S
C882 H896 0.929 . S
C883 C882 1.404 . S
C883 C884 1.389 . S
C884 C883 1.389 . S
C884 C885 1.399 . S
C884 H897 0.931 . S
C885 C884 1.399 . S
C885 C886 1.390 . S
C886 C881 1.392 . S
C886 C885 1.390 . S
C886 H898 0.929 . S
O887 Tb871 2.326 . S
O887 C875 1.242 . S
O888 Eu872 2.324 . S
O888 C875 1.258 . S
O889 Tb871 2.500 . S
O889 C891 1.273 . S
O890 Tb871 2.473 . S
O890 C891 1.257 . S
C891 O889 1.273 . S
C891 O890 1.257 . S
O892 Eu872 2.326 . S
O892 C880 1.242 . S
O893 Tb871 2.324 . S
O893 C880 1.258 . S
O894 Eu872 2.500 . S
O894 C877 1.273 . S
O895 Eu872 2.473 . S
O895 C877 1.257 . S
H896 C882 0.929 . S
H897 C884 0.931 . S
H898 C886 0.929 . S
O899 Tb900 2.292 . S
O899 C902 1.255 . S
Tb900 O899 2.292 . S
Tb900 O916 2.326 . S
Tb900 O918 2.500 . S
Tb900 O919 2.473 . S
Tb900 O922 2.324 . S
Eu901 O905 2.292 . S
Eu901 C906 2.852 . S
Eu901 O917 2.324 . S
Eu901 O921 2.326 . S
Eu901 O923 2.500 . S
Eu901 O924 2.473 . S
C902 O899 1.255 . S
C902 O903 1.247 . S
O903 C902 1.247 . S
C904 O916 1.242 . S
C904 O917 1.258 . S
O905 Eu901 2.292 . S
O905 C907 1.255 . S
C906 Eu901 2.852 . S
C906 C910 1.503 . S
C906 O923 1.273 . S
C906 O924 1.257 . S
C907 O905 1.255 . S
C907 O908 1.247 . S
O908 C907 1.247 . S
C909 O921 1.242 . S
C909 O922 1.258 . S
C910 C906 1.503 . S
C910 C911 1.379 . S
C910 C915 1.392 . S
C911 C910 1.379 . S
C911 C912 1.404 . S
C911 H925 0.929 . S
C912 C911 1.404 . S
C912 C913 1.389 . S
C913 C912 1.389 . S
C913 C914 1.399 . S
C913 H926 0.931 . S
C914 C913 1.399 . S
C914 C915 1.390 . S
C915 C910 1.392 . S
C915 C914 1.390 . S
C915 H927 0.929 . S
O916 Tb900 2.326 . S
O916 C904 1.242 . S
O917 Eu901 2.324 . S
O917 C904 1.258 . S
O918 Tb900 2.500 . S
O918 C920 1.273 . S
O919 Tb900 2.473 . S
O919 C920 1.257 . S
C920 O918 1.273 . S
C920 O919 1.257 . S
O921 Eu901 2.326 . S
O921 C909 1.242 . S
O922 Tb900 2.324 . S
O922 C909 1.258 . S
O923 Eu901 2.500 . S
O923 C906 1.273 . S
O924 Eu901 2.473 . S
O924 C906 1.257 . S
H925 C911 0.929 . S
H926 C913 0.931 . S
H927 C915 0.929 . S
O928 Tb929 2.292 . S
O928 C931 1.255 . S
Tb929 O928 2.292 . S
Tb929 O945 2.326 . S
Tb929 O947 2.500 . S
Tb929 O948 2.473 . S
Tb929 O951 2.324 . S
Eu930 O934 2.292 1_565 S
Eu930 C935 2.852 . S
Eu930 O946 2.324 . S
Eu930 O950 2.326 . S
Eu930 O952 2.500 . S
Eu930 O953 2.473 . S
C931 O928 1.255 . S
C931 O932 1.247 . S
O932 C931 1.247 . S
C933 O945 1.242 . S
C933 O946 1.258 . S
O934 Eu930 2.292 1_545 S
O934 C936 1.255 . S
C935 Eu930 2.852 . S
C935 C939 1.503 . S
C935 O952 1.273 . S
C935 O953 1.257 . S
C936 O934 1.255 . S
C936 O937 1.247 . S
O937 C936 1.247 . S
C938 O950 1.242 . S
C938 O951 1.258 . S
C939 C935 1.503 . S
C939 C940 1.379 . S
C939 C944 1.392 . S
C940 C939 1.379 . S
C940 C941 1.404 . S
C940 H954 0.929 . S
C941 C940 1.404 . S
C941 C942 1.389 . S
C942 C941 1.389 . S
C942 C943 1.399 . S
C942 H955 0.931 . S
C943 C942 1.399 . S
C943 C944 1.390 . S
C944 C939 1.392 . S
C944 C943 1.390 . S
C944 H956 0.929 . S
O945 Tb929 2.326 . S
O945 C933 1.242 . S
O946 Eu930 2.324 . S
O946 C933 1.258 . S
O947 Tb929 2.500 . S
O947 C949 1.273 . S
O948 Tb929 2.473 . S
O948 C949 1.257 . S
C949 O947 1.273 . S
C949 O948 1.257 . S
O950 Eu930 2.326 . S
O950 C938 1.242 . S
O951 Tb929 2.324 . S
O951 C938 1.258 . S
O952 Eu930 2.500 . S
O952 C935 1.273 . S
O953 Eu930 2.473 . S
O953 C935 1.257 . S
H954 C940 0.929 . S
H955 C942 0.931 . S
H956 C944 0.929 . S
O957 Tb958 2.292 . S
O957 C960 1.255 . S
Tb958 O957 2.292 . S
Tb958 O974 2.326 . S
Tb958 O976 2.500 . S
Tb958 O977 2.473 . S
Tb958 O980 2.324 . S
Eu959 O963 2.292 . S
Eu959 C964 2.852 . S
Eu959 O975 2.324 . S
Eu959 O979 2.326 . S
Eu959 O981 2.500 . S
Eu959 O982 2.473 . S
C960 O957 1.255 . S
C960 O961 1.247 . S
O961 C960 1.247 . S
C962 O974 1.242 . S
C962 O975 1.258 . S
O963 Eu959 2.292 . S
O963 C965 1.255 . S
C964 Eu959 2.852 . S
C964 C968 1.503 . S
C964 O981 1.273 . S
C964 O982 1.257 . S
C965 O963 1.255 . S
C965 O966 1.247 . S
O966 C965 1.247 . S
C967 O979 1.242 . S
C967 O980 1.258 . S
C968 C964 1.503 . S
C968 C969 1.379 . S
C968 C973 1.392 . S
C969 C968 1.379 . S
C969 C970 1.404 . S
C969 H983 0.929 . S
C970 C969 1.404 . S
C970 C971 1.389 . S
C971 C970 1.389 . S
C971 C972 1.399 . S
C971 H984 0.931 . S
C972 C971 1.399 . S
C972 C973 1.390 . S
C973 C968 1.392 . S
C973 C972 1.390 . S
C973 H985 0.929 . S
O974 Tb958 2.326 . S
O974 C962 1.242 . S
O975 Eu959 2.324 . S
O975 C962 1.258 . S
O976 Tb958 2.500 . S
O976 C978 1.273 . S
O977 Tb958 2.473 . S
O977 C978 1.257 . S
C978 O976 1.273 . S
C978 O977 1.257 . S
O979 Eu959 2.326 . S
O979 C967 1.242 . S
O980 Tb958 2.324 . S
O980 C967 1.258 . S
O981 Eu959 2.500 . S
O981 C964 1.273 . S
O982 Eu959 2.473 . S
O982 C964 1.257 . S
H983 C969 0.929 . S
H984 C971 0.931 . S
H985 C973 0.929 . S
O986 Tb987 2.292 . S
O986 C989 1.255 . S
Tb987 O986 2.292 . S
Tb987 O1003 2.326 . S
Tb987 O1005 2.500 . S
Tb987 O1006 2.473 . S
Tb987 O1009 2.324 . S
Eu988 O992 2.292 . S
Eu988 C993 2.852 . S
Eu988 O1004 2.324 . S
Eu988 O1008 2.326 . S
Eu988 O1010 2.500 . S
Eu988 O1011 2.473 . S
C989 O986 1.255 . S
C989 O990 1.247 . S
O990 C989 1.247 . S
C991 O1003 1.242 . S
C991 O1004 1.258 . S
O992 Eu988 2.292 . S
O992 C994 1.255 . S
C993 Eu988 2.852 . S
C993 C997 1.503 . S
C993 O1010 1.273 . S
C993 O1011 1.257 . S
C994 O992 1.255 . S
C994 O995 1.247 . S
O995 C994 1.247 . S
C996 O1008 1.242 . S
C996 O1009 1.258 . S
C997 C993 1.503 . S
C997 C998 1.379 . S
C997 C1002 1.392 . S
C998 C997 1.379 . S
C998 C999 1.404 . S
C998 H1012 0.929 . S
C999 C998 1.404 . S
C999 C1000 1.389 . S
C1000 C999 1.389 . S
C1000 C1001 1.399 . S
C1000 H1013 0.931 . S
C1001 C1000 1.399 . S
C1001 C1002 1.390 . S
C1002 C997 1.392 . S
C1002 C1001 1.390 . S
C1002 H1014 0.929 . S
O1003 Tb987 2.326 . S
O1003 C991 1.242 . S
O1004 Eu988 2.324 . S
O1004 C991 1.258 . S
O1005 Tb987 2.500 . S
O1005 C1007 1.273 . S
O1006 Tb987 2.473 . S
O1006 C1007 1.257 . S
C1007 O1005 1.273 . S
C1007 O1006 1.257 . S
O1008 Eu988 2.326 . S
O1008 C996 1.242 . S
O1009 Tb987 2.324 . S
O1009 C996 1.258 . S
O1010 Eu988 2.500 . S
O1010 C993 1.273 . S
O1011 Eu988 2.473 . S
O1011 C993 1.257 . S
H1012 C998 0.929 . S
H1013 C1000 0.931 . S
H1014 C1002 0.929 . S
O1015 Tb1016 2.292 . S
O1015 C1018 1.255 . S
Tb1016 O1015 2.292 . S
Tb1016 O1032 2.326 . S
Tb1016 O1034 2.500 . S
Tb1016 O1035 2.473 . S
Tb1016 O1038 2.324 . S
Eu1017 O1021 2.292 1_655 S
Eu1017 C1022 2.852 . S
Eu1017 O1033 2.324 . S
Eu1017 O1037 2.326 . S
Eu1017 O1039 2.500 . S
Eu1017 O1040 2.473 . S
C1018 O1015 1.255 . S
C1018 O1019 1.247 . S
O1019 C1018 1.247 . S
C1020 O1032 1.242 . S
C1020 O1033 1.258 . S
O1021 Eu1017 2.292 1_455 S
O1021 C1023 1.255 . S
C1022 Eu1017 2.852 . S
C1022 C1026 1.503 . S
C1022 O1039 1.273 . S
C1022 O1040 1.257 . S
C1023 O1021 1.255 . S
C1023 O1024 1.247 . S
O1024 C1023 1.247 . S
C1025 O1037 1.242 . S
C1025 O1038 1.258 . S
C1026 C1022 1.503 . S
C1026 C1027 1.379 . S
C1026 C1031 1.392 . S
C1027 C1026 1.379 . S
C1027 C1028 1.404 . S
C1027 H1041 0.929 . S
C1028 C1027 1.404 . S
C1028 C1029 1.389 . S
C1029 C1028 1.389 . S
C1029 C1030 1.399 . S
C1029 H1042 0.931 . S
C1030 C1029 1.399 . S
C1030 C1031 1.390 . S
C1031 C1026 1.392 . S
C1031 C1030 1.390 . S
C1031 H1043 0.929 . S
O1032 Tb1016 2.326 . S
O1032 C1020 1.242 . S
O1033 Eu1017 2.324 . S
O1033 C1020 1.258 . S
O1034 Tb1016 2.500 . S
O1034 C1036 1.273 . S
O1035 Tb1016 2.473 . S
O1035 C1036 1.257 . S
C1036 O1034 1.273 . S
C1036 O1035 1.257 . S
O1037 Eu1017 2.326 . S
O1037 C1025 1.242 . S
O1038 Tb1016 2.324 . S
O1038 C1025 1.258 . S
O1039 Eu1017 2.500 . S
O1039 C1022 1.273 . S
O1040 Eu1017 2.473 . S
O1040 C1022 1.257 . S
H1041 C1027 0.929 . S
H1042 C1029 0.931 . S
H1043 C1031 0.929 . S
O1044 Tb1045 2.292 . S
O1044 C1047 1.255 . S
Tb1045 O1044 2.292 . S
Tb1045 O1061 2.326 . S
Tb1045 O1063 2.500 . S
Tb1045 O1064 2.473 . S
Tb1045 O1067 2.324 . S
Eu1046 O1050 2.292 . S
Eu1046 C1051 2.852 . S
Eu1046 O1062 2.324 . S
Eu1046 O1066 2.326 . S
Eu1046 O1068 2.500 . S
Eu1046 O1069 2.473 . S
C1047 O1044 1.255 . S
C1047 O1048 1.247 . S
O1048 C1047 1.247 . S
C1049 O1061 1.242 . S
C1049 O1062 1.258 . S
O1050 Eu1046 2.292 . S
O1050 C1052 1.255 . S
C1051 Eu1046 2.852 . S
C1051 C1055 1.503 . S
C1051 O1068 1.273 . S
C1051 O1069 1.257 . S
C1052 O1050 1.255 . S
C1052 O1053 1.247 . S
O1053 C1052 1.247 . S
C1054 O1066 1.242 . S
C1054 O1067 1.258 . S
C1055 C1051 1.503 . S
C1055 C1056 1.379 . S
C1055 C1060 1.392 . S
C1056 C1055 1.379 . S
C1056 C1057 1.404 . S
C1056 H1070 0.929 . S
C1057 C1056 1.404 . S
C1057 C1058 1.389 . S
C1058 C1057 1.389 . S
C1058 C1059 1.399 . S
C1058 H1071 0.931 . S
C1059 C1058 1.399 . S
C1059 C1060 1.390 . S
C1060 C1055 1.392 . S
C1060 C1059 1.390 . S
C1060 H1072 0.929 . S
O1061 Tb1045 2.326 . S
O1061 C1049 1.242 . S
O1062 Eu1046 2.324 . S
O1062 C1049 1.258 . S
O1063 Tb1045 2.500 . S
O1063 C1065 1.273 . S
O1064 Tb1045 2.473 . S
O1064 C1065 1.257 . S
C1065 O1063 1.273 . S
C1065 O1064 1.257 . S
O1066 Eu1046 2.326 . S
O1066 C1054 1.242 . S
O1067 Tb1045 2.324 . S
O1067 C1054 1.258 . S
O1068 Eu1046 2.500 . S
O1068 C1051 1.273 . S
O1069 Eu1046 2.473 . S
O1069 C1051 1.257 . S
H1070 C1056 0.929 . S
H1071 C1058 0.931 . S
H1072 C1060 0.929 . S
O1073 Tb1074 2.292 . S
O1073 C1076 1.255 . S
Tb1074 O1073 2.292 . S
Tb1074 O1090 2.326 . S
Tb1074 O1092 2.500 . S
Tb1074 O1093 2.473 . S
Tb1074 O1096 2.324 . S
Eu1075 O1079 2.292 1_655 S
Eu1075 C1080 2.852 . S
Eu1075 O1091 2.324 . S
Eu1075 O1095 2.326 . S
Eu1075 O1097 2.500 . S
Eu1075 O1098 2.473 . S
C1076 O1073 1.255 . S
C1076 O1077 1.247 . S
O1077 C1076 1.247 . S
C1078 O1090 1.242 . S
C1078 O1091 1.258 . S
O1079 Eu1075 2.292 1_455 S
O1079 C1081 1.255 . S
C1080 Eu1075 2.852 . S
C1080 C1084 1.503 . S
C1080 O1097 1.273 . S
C1080 O1098 1.257 . S
C1081 O1079 1.255 . S
C1081 O1082 1.247 . S
O1082 C1081 1.247 . S
C1083 O1095 1.242 . S
C1083 O1096 1.258 . S
C1084 C1080 1.503 . S
C1084 C1085 1.379 . S
C1084 C1089 1.392 . S
C1085 C1084 1.379 . S
C1085 C1086 1.404 . S
C1085 H1099 0.929 . S
C1086 C1085 1.404 . S
C1086 C1087 1.389 . S
C1087 C1086 1.389 . S
C1087 C1088 1.399 . S
C1087 H1100 0.931 . S
C1088 C1087 1.399 . S
C1088 C1089 1.390 . S
C1089 C1084 1.392 . S
C1089 C1088 1.390 . S
C1089 H1101 0.929 . S
O1090 Tb1074 2.326 . S
O1090 C1078 1.242 . S
O1091 Eu1075 2.324 . S
O1091 C1078 1.258 . S
O1092 Tb1074 2.500 . S
O1092 C1094 1.273 . S
O1093 Tb1074 2.473 . S
O1093 C1094 1.257 . S
C1094 O1092 1.273 . S
C1094 O1093 1.257 . S
O1095 Eu1075 2.326 . S
O1095 C1083 1.242 . S
O1096 Tb1074 2.324 . S
O1096 C1083 1.258 . S
O1097 Eu1075 2.500 . S
O1097 C1080 1.273 . S
O1098 Eu1075 2.473 . S
O1098 C1080 1.257 . S
H1099 C1085 0.929 . S
H1100 C1087 0.931 . S
H1101 C1089 0.929 . S
O1102 Tb1103 2.292 . S
O1102 C1105 1.255 . S
Tb1103 O1102 2.292 . S
Tb1103 O1119 2.326 . S
Tb1103 O1121 2.500 . S
Tb1103 O1122 2.473 . S
Tb1103 O1125 2.324 . S
Eu1104 O1108 2.292 1_565 S
Eu1104 C1109 2.852 . S
Eu1104 O1120 2.324 . S
Eu1104 O1124 2.326 . S
Eu1104 O1126 2.500 . S
Eu1104 O1127 2.473 . S
C1105 O1102 1.255 . S
C1105 O1106 1.247 . S
O1106 C1105 1.247 . S
C1107 O1119 1.242 . S
C1107 O1120 1.258 . S
O1108 Eu1104 2.292 1_545 S
O1108 C1110 1.255 . S
C1109 Eu1104 2.852 . S
C1109 C1113 1.503 . S
C1109 O1126 1.273 . S
C1109 O1127 1.257 . S
C1110 O1108 1.255 . S
C1110 O1111 1.247 . S
O1111 C1110 1.247 . S
C1112 O1124 1.242 . S
C1112 O1125 1.258 . S
C1113 C1109 1.503 . S
C1113 C1114 1.379 . S
C1113 C1118 1.392 . S
C1114 C1113 1.379 . S
C1114 C1115 1.404 . S
C1114 H1128 0.929 . S
C1115 C1114 1.404 . S
C1115 C1116 1.389 . S
C1116 C1115 1.389 . S
C1116 C1117 1.399 . S
C1116 H1129 0.931 . S
C1117 C1116 1.399 . S
C1117 C1118 1.390 . S
C1118 C1113 1.392 . S
C1118 C1117 1.390 . S
C1118 H1130 0.929 . S
O1119 Tb1103 2.326 . S
O1119 C1107 1.242 . S
O1120 Eu1104 2.324 . S
O1120 C1107 1.258 . S
O1121 Tb1103 2.500 . S
O1121 C1123 1.273 . S
O1122 Tb1103 2.473 . S
O1122 C1123 1.257 . S
C1123 O1121 1.273 . S
C1123 O1122 1.257 . S
O1124 Eu1104 2.326 . S
O1124 C1112 1.242 . S
O1125 Tb1103 2.324 . S
O1125 C1112 1.258 . S
O1126 Eu1104 2.500 . S
O1126 C1109 1.273 . S
O1127 Eu1104 2.473 . S
O1127 C1109 1.257 . S
H1128 C1114 0.929 . S
H1129 C1116 0.931 . S
H1130 C1118 0.929 . S
O1131 Tb1132 2.292 . S
O1131 C1134 1.255 . S
Tb1132 O1131 2.292 . S
Tb1132 O1148 2.326 . S
Tb1132 O1150 2.500 . S
Tb1132 O1151 2.473 . S
Tb1132 O1154 2.324 . S
Eu1133 O1137 2.292 . S
Eu1133 C1138 2.852 . S
Eu1133 O1149 2.324 . S
Eu1133 O1153 2.326 . S
Eu1133 O1155 2.500 . S
Eu1133 O1156 2.473 . S
C1134 O1131 1.255 . S
C1134 O1135 1.247 . S
O1135 C1134 1.247 . S
C1136 O1148 1.242 . S
C1136 O1149 1.258 . S
O1137 Eu1133 2.292 . S
O1137 C1139 1.255 . S
C1138 Eu1133 2.852 . S
C1138 C1142 1.503 . S
C1138 O1155 1.273 . S
C1138 O1156 1.257 . S
C1139 O1137 1.255 . S
C1139 O1140 1.247 . S
O1140 C1139 1.247 . S
C1141 O1153 1.242 . S
C1141 O1154 1.258 . S
C1142 C1138 1.503 . S
C1142 C1143 1.379 . S
C1142 C1147 1.392 . S
C1143 C1142 1.379 . S
C1143 C1144 1.404 . S
C1143 H1157 0.929 . S
C1144 C1143 1.404 . S
C1144 C1145 1.389 . S
C1145 C1144 1.389 . S
C1145 C1146 1.399 . S
C1145 H1158 0.931 . S
C1146 C1145 1.399 . S
C1146 C1147 1.390 . S
C1147 C1142 1.392 . S
C1147 C1146 1.390 . S
C1147 H1159 0.929 . S
O1148 Tb1132 2.326 . S
O1148 C1136 1.242 . S
O1149 Eu1133 2.324 . S
O1149 C1136 1.258 . S
O1150 Tb1132 2.500 . S
O1150 C1152 1.273 . S
O1151 Tb1132 2.473 . S
O1151 C1152 1.257 . S
C1152 O1150 1.273 . S
C1152 O1151 1.257 . S
O1153 Eu1133 2.326 . S
O1153 C1141 1.242 . S
O1154 Tb1132 2.324 . S
O1154 C1141 1.258 . S
O1155 Eu1133 2.500 . S
O1155 C1138 1.273 . S
O1156 Eu1133 2.473 . S
O1156 C1138 1.257 . S
H1157 C1143 0.929 . S
H1158 C1145 0.931 . S
H1159 C1147 0.929 . S
O1160 Tb1161 2.292 . S
O1160 C1163 1.255 . S
Tb1161 O1160 2.292 . S
Tb1161 O1177 2.326 . S
Tb1161 O1179 2.500 . S
Tb1161 O1180 2.473 . S
Tb1161 O1183 2.324 . S
Eu1162 O1166 2.292 1_556 S
Eu1162 C1167 2.852 . S
Eu1162 O1178 2.324 . S
Eu1162 O1182 2.326 . S
Eu1162 O1184 2.500 . S
Eu1162 O1185 2.473 . S
C1163 O1160 1.255 . S
C1163 O1164 1.247 . S
O1164 C1163 1.247 . S
C1165 O1177 1.242 . S
C1165 O1178 1.258 . S
O1166 Eu1162 2.292 1_554 S
O1166 C1168 1.255 . S
C1167 Eu1162 2.852 . S
C1167 C1171 1.503 . S
C1167 O1184 1.273 . S
C1167 O1185 1.257 . S
C1168 O1166 1.255 . S
C1168 O1169 1.247 . S
O1169 C1168 1.247 . S
C1170 O1182 1.242 . S
C1170 O1183 1.258 . S
C1171 C1167 1.503 . S
C1171 C1172 1.379 . S
C1171 C1176 1.392 . S
C1172 C1171 1.379 . S
C1172 C1173 1.404 . S
C1172 H1186 0.929 . S
C1173 C1172 1.404 . S
C1173 C1174 1.389 . S
C1174 C1173 1.389 . S
C1174 C1175 1.399 . S
C1174 H1187 0.931 . S
C1175 C1174 1.399 . S
C1175 C1176 1.390 . S
C1176 C1171 1.392 . S
C1176 C1175 1.390 . S
C1176 H1188 0.929 . S
O1177 Tb1161 2.326 . S
O1177 C1165 1.242 . S
O1178 Eu1162 2.324 . S
O1178 C1165 1.258 . S
O1179 Tb1161 2.500 . S
O1179 C1181 1.273 . S
O1180 Tb1161 2.473 . S
O1180 C1181 1.257 . S
C1181 O1179 1.273 . S
C1181 O1180 1.257 . S
O1182 Eu1162 2.326 . S
O1182 C1170 1.242 . S
O1183 Tb1161 2.324 . S
O1183 C1170 1.258 . S
O1184 Eu1162 2.500 . S
O1184 C1167 1.273 . S
O1185 Eu1162 2.473 . S
O1185 C1167 1.257 . S
H1186 C1172 0.929 . S
H1187 C1174 0.931 . S
H1188 C1176 0.929 . S
O1189 Tb1190 2.292 . S
O1189 C1192 1.255 . S
Tb1190 O1189 2.292 . S
Tb1190 O1206 2.326 . S
Tb1190 O1208 2.500 . S
Tb1190 O1209 2.473 . S
Tb1190 O1212 2.324 . S
Eu1191 O1195 2.292 . S
Eu1191 C1196 2.852 . S
Eu1191 O1207 2.324 . S
Eu1191 O1211 2.326 . S
Eu1191 O1213 2.500 . S
Eu1191 O1214 2.473 . S
C1192 O1189 1.255 . S
C1192 O1193 1.247 . S
O1193 C1192 1.247 . S
C1194 O1206 1.242 . S
C1194 O1207 1.258 . S
O1195 Eu1191 2.292 . S
O1195 C1197 1.255 . S
C1196 Eu1191 2.852 . S
C1196 C1200 1.503 . S
C1196 O1213 1.273 . S
C1196 O1214 1.257 . S
C1197 O1195 1.255 . S
C1197 O1198 1.247 . S
O1198 C1197 1.247 . S
C1199 O1211 1.242 . S
C1199 O1212 1.258 . S
C1200 C1196 1.503 . S
C1200 C1201 1.379 . S
C1200 C1205 1.392 . S
C1201 C1200 1.379 . S
C1201 C1202 1.404 . S
C1201 H1215 0.929 . S
C1202 C1201 1.404 . S
C1202 C1203 1.389 . S
C1203 C1202 1.389 . S
C1203 C1204 1.399 . S
C1203 H1216 0.931 . S
C1204 C1203 1.399 . S
C1204 C1205 1.390 . S
C1205 C1200 1.392 . S
C1205 C1204 1.390 . S
C1205 H1217 0.929 . S
O1206 Tb1190 2.326 . S
O1206 C1194 1.242 . S
O1207 Eu1191 2.324 . S
O1207 C1194 1.258 . S
O1208 Tb1190 2.500 . S
O1208 C1210 1.273 . S
O1209 Tb1190 2.473 . S
O1209 C1210 1.257 . S
C1210 O1208 1.273 . S
C1210 O1209 1.257 . S
O1211 Eu1191 2.326 . S
O1211 C1199 1.242 . S
O1212 Tb1190 2.324 . S
O1212 C1199 1.258 . S
O1213 Eu1191 2.500 . S
O1213 C1196 1.273 . S
O1214 Eu1191 2.473 . S
O1214 C1196 1.257 . S
H1215 C1201 0.929 . S
H1216 C1203 0.931 . S
H1217 C1205 0.929 . S
O1218 Tb1219 2.292 . S
O1218 C1221 1.255 . S
Tb1219 O1218 2.292 . S
Tb1219 O1235 2.326 . S
Tb1219 O1237 2.500 . S
Tb1219 O1238 2.473 . S
Tb1219 O1241 2.324 . S
Eu1220 O1224 2.292 . S
Eu1220 C1225 2.852 . S
Eu1220 O1236 2.324 . S
Eu1220 O1240 2.326 . S
Eu1220 O1242 2.500 . S
Eu1220 O1243 2.473 . S
C1221 O1218 1.255 . S
C1221 O1222 1.247 . S
O1222 C1221 1.247 . S
C1223 O1235 1.242 . S
C1223 O1236 1.258 . S
O1224 Eu1220 2.292 . S
O1224 C1226 1.255 . S
C1225 Eu1220 2.852 . S
C1225 C1229 1.503 . S
C1225 O1242 1.273 . S
C1225 O1243 1.257 . S
C1226 O1224 1.255 . S
C1226 O1227 1.247 . S
O1227 C1226 1.247 . S
C1228 O1240 1.242 . S
C1228 O1241 1.258 . S
C1229 C1225 1.503 . S
C1229 C1230 1.379 . S
C1229 C1234 1.392 . S
C1230 C1229 1.379 . S
C1230 C1231 1.404 . S
C1230 H1244 0.929 . S
C1231 C1230 1.404 . S
C1231 C1232 1.389 . S
C1232 C1231 1.389 . S
C1232 C1233 1.399 . S
C1232 H1245 0.931 . S
C1233 C1232 1.399 . S
C1233 C1234 1.390 . S
C1234 C1229 1.392 . S
C1234 C1233 1.390 . S
C1234 H1246 0.929 . S
O1235 Tb1219 2.326 . S
O1235 C1223 1.242 . S
O1236 Eu1220 2.324 . S
O1236 C1223 1.258 . S
O1237 Tb1219 2.500 . S
O1237 C1239 1.273 . S
O1238 Tb1219 2.473 . S
O1238 C1239 1.257 . S
C1239 O1237 1.273 . S
C1239 O1238 1.257 . S
O1240 Eu1220 2.326 . S
O1240 C1228 1.242 . S
O1241 Tb1219 2.324 . S
O1241 C1228 1.258 . S
O1242 Eu1220 2.500 . S
O1242 C1225 1.273 . S
O1243 Eu1220 2.473 . S
O1243 C1225 1.257 . S
H1244 C1230 0.929 . S
H1245 C1232 0.931 . S
H1246 C1234 0.929 . S
O1247 Tb1248 2.292 . S
O1247 C1250 1.255 . S
Tb1248 O1247 2.292 . S
Tb1248 O1264 2.326 . S
Tb1248 O1266 2.500 . S
Tb1248 O1267 2.473 . S
Tb1248 O1270 2.324 . S
Eu1249 O1253 2.292 . S
Eu1249 C1254 2.852 . S
Eu1249 O1265 2.324 . S
Eu1249 O1269 2.326 . S
Eu1249 O1271 2.500 . S
Eu1249 O1272 2.473 . S
C1250 O1247 1.255 . S
C1250 O1251 1.247 . S
O1251 C1250 1.247 . S
C1252 O1264 1.242 . S
C1252 O1265 1.258 . S
O1253 Eu1249 2.292 . S
O1253 C1255 1.255 . S
C1254 Eu1249 2.852 . S
C1254 C1258 1.503 . S
C1254 O1271 1.273 . S
C1254 O1272 1.257 . S
C1255 O1253 1.255 . S
C1255 O1256 1.247 . S
O1256 C1255 1.247 . S
C1257 O1269 1.242 . S
C1257 O1270 1.258 . S
C1258 C1254 1.503 . S
C1258 C1259 1.379 . S
C1258 C1263 1.392 . S
C1259 C1258 1.379 . S
C1259 C1260 1.404 . S
C1259 H1273 0.929 . S
C1260 C1259 1.404 . S
C1260 C1261 1.389 . S
C1261 C1260 1.389 . S
C1261 C1262 1.399 . S
C1261 H1274 0.931 . S
C1262 C1261 1.399 . S
C1262 C1263 1.390 . S
C1263 C1258 1.392 . S
C1263 C1262 1.390 . S
C1263 H1275 0.929 . S
O1264 Tb1248 2.326 . S
O1264 C1252 1.242 . S
O1265 Eu1249 2.324 . S
O1265 C1252 1.258 . S
O1266 Tb1248 2.500 . S
O1266 C1268 1.273 . S
O1267 Tb1248 2.473 . S
O1267 C1268 1.257 . S
C1268 O1266 1.273 . S
C1268 O1267 1.257 . S
O1269 Eu1249 2.326 . S
O1269 C1257 1.242 . S
O1270 Tb1248 2.324 . S
O1270 C1257 1.258 . S
O1271 Eu1249 2.500 . S
O1271 C1254 1.273 . S
O1272 Eu1249 2.473 . S
O1272 C1254 1.257 . S
H1273 C1259 0.929 . S
H1274 C1261 0.931 . S
H1275 C1263 0.929 . S
O1276 Tb1277 2.292 . S
O1276 C1279 1.255 . S
Tb1277 O1276 2.292 . S
Tb1277 O1293 2.326 . S
Tb1277 O1295 2.500 . S
Tb1277 O1296 2.473 . S
Tb1277 O1299 2.324 . S
Eu1278 O1282 2.292 . S
Eu1278 C1283 2.852 . S
Eu1278 O1294 2.324 . S
Eu1278 O1298 2.326 . S
Eu1278 O1300 2.500 . S
Eu1278 O1301 2.473 . S
C1279 O1276 1.255 . S
C1279 O1280 1.247 . S
O1280 C1279 1.247 . S
C1281 O1293 1.242 . S
C1281 O1294 1.258 . S
O1282 Eu1278 2.292 . S
O1282 C1284 1.255 . S
C1283 Eu1278 2.852 . S
C1283 C1287 1.503 . S
C1283 O1300 1.273 . S
C1283 O1301 1.257 . S
C1284 O1282 1.255 . S
C1284 O1285 1.247 . S
O1285 C1284 1.247 . S
C1286 O1298 1.242 . S
C1286 O1299 1.258 . S
C1287 C1283 1.503 . S
C1287 C1288 1.379 . S
C1287 C1292 1.392 . S
C1288 C1287 1.379 . S
C1288 C1289 1.404 . S
C1288 H1302 0.929 . S
C1289 C1288 1.404 . S
C1289 C1290 1.389 . S
C1290 C1289 1.389 . S
C1290 C1291 1.399 . S
C1290 H1303 0.931 . S
C1291 C1290 1.399 . S
C1291 C1292 1.390 . S
C1292 C1287 1.392 . S
C1292 C1291 1.390 . S
C1292 H1304 0.929 . S
O1293 Tb1277 2.326 . S
O1293 C1281 1.242 . S
O1294 Eu1278 2.324 . S
O1294 C1281 1.258 . S
O1295 Tb1277 2.500 . S
O1295 C1297 1.273 . S
O1296 Tb1277 2.473 . S
O1296 C1297 1.257 . S
C1297 O1295 1.273 . S
C1297 O1296 1.257 . S
O1298 Eu1278 2.326 . S
O1298 C1286 1.242 . S
O1299 Tb1277 2.324 . S
O1299 C1286 1.258 . S
O1300 Eu1278 2.500 . S
O1300 C1283 1.273 . S
O1301 Eu1278 2.473 . S
O1301 C1283 1.257 . S
H1302 C1288 0.929 . S
H1303 C1290 0.931 . S
H1304 C1292 0.929 . S
O1305 Tb1306 2.292 . S
O1305 C1308 1.255 . S
Tb1306 O1305 2.292 . S
Tb1306 O1322 2.326 . S
Tb1306 O1324 2.500 . S
Tb1306 O1325 2.473 . S
Tb1306 O1328 2.324 . S
Eu1307 O1311 2.292 1_556 S
Eu1307 C1312 2.852 . S
Eu1307 O1323 2.324 . S
Eu1307 O1327 2.326 . S
Eu1307 O1329 2.500 . S
Eu1307 O1330 2.473 . S
C1308 O1305 1.255 . S
C1308 O1309 1.247 . S
O1309 C1308 1.247 . S
C1310 O1322 1.242 . S
C1310 O1323 1.258 . S
O1311 Eu1307 2.292 1_554 S
O1311 C1313 1.255 . S
C1312 Eu1307 2.852 . S
C1312 C1316 1.503 . S
C1312 O1329 1.273 . S
C1312 O1330 1.257 . S
C1313 O1311 1.255 . S
C1313 O1314 1.247 . S
O1314 C1313 1.247 . S
C1315 O1327 1.242 . S
C1315 O1328 1.258 . S
C1316 C1312 1.503 . S
C1316 C1317 1.379 . S
C1316 C1321 1.392 . S
C1317 C1316 1.379 . S
C1317 C1318 1.404 . S
C1317 H1331 0.929 . S
C1318 C1317 1.404 . S
C1318 C1319 1.389 . S
C1319 C1318 1.389 . S
C1319 C1320 1.399 . S
C1319 H1332 0.931 . S
C1320 C1319 1.399 . S
C1320 C1321 1.390 . S
C1321 C1316 1.392 . S
C1321 C1320 1.390 . S
C1321 H1333 0.929 . S
O1322 Tb1306 2.326 . S
O1322 C1310 1.242 . S
O1323 Eu1307 2.324 . S
O1323 C1310 1.258 . S
O1324 Tb1306 2.500 . S
O1324 C1326 1.273 . S
O1325 Tb1306 2.473 . S
O1325 C1326 1.257 . S
C1326 O1324 1.273 . S
C1326 O1325 1.257 . S
O1327 Eu1307 2.326 . S
O1327 C1315 1.242 . S
O1328 Tb1306 2.324 . S
O1328 C1315 1.258 . S
O1329 Eu1307 2.500 . S
O1329 C1312 1.273 . S
O1330 Eu1307 2.473 . S
O1330 C1312 1.257 . S
H1331 C1317 0.929 . S
H1332 C1319 0.931 . S
H1333 C1321 0.929 . S
O1334 Tb1335 2.292 . S
O1334 C1337 1.255 . S
Tb1335 O1334 2.292 . S
Tb1335 O1351 2.326 . S
Tb1335 O1353 2.500 . S
Tb1335 O1354 2.473 . S
Tb1335 O1357 2.324 . S
Eu1336 O1340 2.292 1_556 S
Eu1336 C1341 2.852 . S
Eu1336 O1352 2.324 . S
Eu1336 O1356 2.326 . S
Eu1336 O1358 2.500 . S
Eu1336 O1359 2.473 . S
C1337 O1334 1.255 . S
C1337 O1338 1.247 . S
O1338 C1337 1.247 . S
C1339 O1351 1.242 . S
C1339 O1352 1.258 . S
O1340 Eu1336 2.292 1_554 S
O1340 C1342 1.255 . S
C1341 Eu1336 2.852 . S
C1341 C1345 1.503 . S
C1341 O1358 1.273 . S
C1341 O1359 1.257 . S
C1342 O1340 1.255 . S
C1342 O1343 1.247 . S
O1343 C1342 1.247 . S
C1344 O1356 1.242 . S
C1344 O1357 1.258 . S
C1345 C1341 1.503 . S
C1345 C1346 1.379 . S
C1345 C1350 1.392 . S
C1346 C1345 1.379 . S
C1346 C1347 1.404 . S
C1346 H1360 0.929 . S
C1347 C1346 1.404 . S
C1347 C1348 1.389 . S
C1348 C1347 1.389 . S
C1348 C1349 1.399 . S
C1348 H1361 0.931 . S
C1349 C1348 1.399 . S
C1349 C1350 1.390 . S
C1350 C1345 1.392 . S
C1350 C1349 1.390 . S
C1350 H1362 0.929 . S
O1351 Tb1335 2.326 . S
O1351 C1339 1.242 . S
O1352 Eu1336 2.324 . S
O1352 C1339 1.258 . S
O1353 Tb1335 2.500 . S
O1353 C1355 1.273 . S
O1354 Tb1335 2.473 . S
O1354 C1355 1.257 . S
C1355 O1353 1.273 . S
C1355 O1354 1.257 . S
O1356 Eu1336 2.326 . S
O1356 C1344 1.242 . S
O1357 Tb1335 2.324 . S
O1357 C1344 1.258 . S
O1358 Eu1336 2.500 . S
O1358 C1341 1.273 . S
O1359 Eu1336 2.473 . S
O1359 C1341 1.257 . S
H1360 C1346 0.929 . S
H1361 C1348 0.931 . S
H1362 C1350 0.929 . S
O1363 Tb1364 2.292 . S
O1363 C1366 1.255 . S
Tb1364 O1363 2.292 . S
Tb1364 O1380 2.326 . S
Tb1364 O1382 2.500 . S
Tb1364 O1383 2.473 . S
Tb1364 O1386 2.324 . S
Eu1365 O1369 2.292 1_556 S
Eu1365 C1370 2.852 . S
Eu1365 O1381 2.324 . S
Eu1365 O1385 2.326 . S
Eu1365 O1387 2.500 . S
Eu1365 O1388 2.473 . S
C1366 O1363 1.255 . S
C1366 O1367 1.247 . S
O1367 C1366 1.247 . S
C1368 O1380 1.242 . S
C1368 O1381 1.258 . S
O1369 Eu1365 2.292 1_554 S
O1369 C1371 1.255 . S
C1370 Eu1365 2.852 . S
C1370 C1374 1.503 . S
C1370 O1387 1.273 . S
C1370 O1388 1.257 . S
C1371 O1369 1.255 . S
C1371 O1372 1.247 . S
O1372 C1371 1.247 . S
C1373 O1385 1.242 . S
C1373 O1386 1.258 . S
C1374 C1370 1.503 . S
C1374 C1375 1.379 . S
C1374 C1379 1.392 . S
C1375 C1374 1.379 . S
C1375 C1376 1.404 . S
C1375 H1389 0.929 . S
C1376 C1375 1.404 . S
C1376 C1377 1.389 . S
C1377 C1376 1.389 . S
C1377 C1378 1.399 . S
C1377 H1390 0.931 . S
C1378 C1377 1.399 . S
C1378 C1379 1.390 . S
C1379 C1374 1.392 . S
C1379 C1378 1.390 . S
C1379 H1391 0.929 . S
O1380 Tb1364 2.326 . S
O1380 C1368 1.242 . S
O1381 Eu1365 2.324 . S
O1381 C1368 1.258 . S
O1382 Tb1364 2.500 . S
O1382 C1384 1.273 . S
O1383 Tb1364 2.473 . S
O1383 C1384 1.257 . S
C1384 O1382 1.273 . S
C1384 O1383 1.257 . S
O1385 Eu1365 2.326 . S
O1385 C1373 1.242 . S
O1386 Tb1364 2.324 . S
O1386 C1373 1.258 . S
O1387 Eu1365 2.500 . S
O1387 C1370 1.273 . S
O1388 Eu1365 2.473 . S
O1388 C1370 1.257 . S
H1389 C1375 0.929 . S
H1390 C1377 0.931 . S
H1391 C1379 0.929 . S
C1392 C1393 1.387 . S
C1392 H1396 0.950 . S
C1392 C1401 1.390 1_455 S
C1393 C1392 1.387 . S
C1393 C1395 1.387 . S
H1394 C1401 0.950 . S
C1395 C1393 1.387 . S
C1395 C1397 1.390 1_455 S
C1395 H1399 0.950 . S
H1396 C1392 0.950 . S
C1397 C1395 1.390 1_655 S
C1397 C1398 1.387 . S
C1397 H1400 0.950 . S
C1398 C1397 1.387 . S
C1398 C1401 1.387 . S
H1399 C1395 0.950 . S
H1400 C1397 0.950 . S
C1401 C1392 1.390 1_655 S
C1401 H1394 0.950 . S
C1401 C1398 1.387 . S
C1402 C1403 1.387 . S
C1402 H1406 0.950 . S
C1402 C1411 1.390 1_645 S
C1403 C1402 1.387 . S
C1403 C1405 1.387 . S
H1404 C1411 0.950 . S
C1405 C1403 1.387 . S
C1405 C1407 1.390 1_645 S
C1405 H1409 0.950 . S
H1406 C1402 0.950 . S
C1407 C1405 1.390 1_465 S
C1407 C1408 1.387 . S
C1407 H1410 0.950 . S
C1408 C1407 1.387 . S
C1408 C1411 1.387 . S
H1409 C1405 0.950 . S
H1410 C1407 0.950 . S
C1411 C1402 1.390 1_465 S
C1411 H1404 0.950 . S
C1411 C1408 1.387 . S
C1412 C1413 1.387 . S
C1412 H1416 0.950 . S
C1412 C1421 1.390 1_545 S
C1413 C1412 1.387 . S
C1413 C1415 1.387 . S
H1414 C1421 0.950 . S
C1415 C1413 1.387 . S
C1415 C1417 1.390 1_545 S
C1415 H1419 0.950 . S
H1416 C1412 0.950 . S
C1417 C1415 1.390 1_565 S
C1417 C1418 1.387 . S
C1417 H1420 0.950 . S
C1418 C1417 1.387 . S
C1418 C1421 1.387 . S
H1419 C1415 0.950 . S
H1420 C1417 0.950 . S
C1421 C1412 1.390 1_565 S
C1421 H1414 0.950 . S
C1421 C1418 1.387 . S
C1422 C1423 1.387 . S
C1422 H1426 0.950 . S
C1422 C1431 1.390 . S
C1423 C1422 1.387 . S
C1423 C1425 1.387 . S
H1424 C1431 0.950 . S
C1425 C1423 1.387 . S
C1425 C1427 1.390 . S
C1425 H1429 0.950 . S
H1426 C1422 0.950 . S
C1427 C1425 1.390 . S
C1427 C1428 1.387 . S
C1427 H1430 0.950 . S
C1428 C1427 1.387 . S
C1428 C1431 1.387 . S
H1429 C1425 0.950 . S
H1430 C1427 0.950 . S
C1431 C1422 1.390 . S
C1431 H1424 0.950 . S
C1431 C1428 1.387 . S
C1432 C1433 1.387 . S
C1432 H1436 0.950 . S
C1432 C1441 1.390 1_545 S
C1433 C1432 1.387 . S
C1433 C1435 1.387 . S
H1434 C1441 0.950 . S
C1435 C1433 1.387 . S
C1435 C1437 1.390 1_545 S
C1435 H1439 0.950 . S
H1436 C1432 0.950 . S
C1437 C1435 1.390 1_565 S
C1437 C1438 1.387 . S
C1437 H1440 0.950 . S
C1438 C1437 1.387 . S
C1438 C1441 1.387 . S
H1439 C1435 0.950 . S
H1440 C1437 0.950 . S
C1441 C1432 1.390 1_565 S
C1441 H1434 0.950 . S
C1441 C1438 1.387 . S
C1442 C1443 1.387 . S
C1442 H1446 0.950 . S
C1442 C1451 1.390 . S
C1443 C1442 1.387 . S
C1443 C1445 1.387 . S
H1444 C1451 0.950 . S
C1445 C1443 1.387 . S
C1445 C1447 1.390 . S
C1445 H1449 0.950 . S
H1446 C1442 0.950 . S
C1447 C1445 1.390 . S
C1447 C1448 1.387 . S
C1447 H1450 0.950 . S
C1448 C1447 1.387 . S
C1448 C1451 1.387 . S
H1449 C1445 0.950 . S
H1450 C1447 0.950 . S
C1451 C1442 1.390 . S
C1451 H1444 0.950 . S
C1451 C1448 1.387 . S
C1452 C1453 1.387 . S
C1452 H1456 0.950 . S
C1452 C1461 1.390 . S
C1453 C1452 1.387 . S
C1453 C1455 1.387 . S
H1454 C1461 0.950 . S
C1455 C1453 1.387 . S
C1455 C1457 1.390 . S
C1455 H1459 0.950 . S
H1456 C1452 0.950 . S
C1457 C1455 1.390 . S
C1457 C1458 1.387 . S
C1457 H1460 0.950 . S
C1458 C1457 1.387 . S
C1458 C1461 1.387 . S
H1459 C1455 0.950 . S
H1460 C1457 0.950 . S
C1461 C1452 1.390 . S
C1461 H1454 0.950 . S
C1461 C1458 1.387 . S
C1462 C1463 1.387 . S
C1462 H1466 0.950 . S
C1462 C1471 1.390 . S
C1463 C1462 1.387 . S
C1463 C1465 1.387 1_655 S
H1464 C1471 0.950 . S
C1465 C1463 1.387 1_455 S
C1465 C1467 1.390 . S
C1465 H1469 0.950 . S
H1466 C1462 0.950 . S
C1467 C1465 1.390 . S
C1467 C1468 1.387 . S
C1467 H1470 0.950 . S
C1468 C1467 1.387 . S
C1468 C1471 1.387 1_455 S
H1469 C1465 0.950 . S
H1470 C1467 0.950 . S
C1471 C1462 1.390 . S
C1471 H1464 0.950 . S
C1471 C1468 1.387 1_655 S
C1472 C1473 1.387 1_556 S
C1472 H1476 0.950 . S
C1472 C1481 1.390 . S
C1473 C1472 1.387 1_554 S
C1473 C1475 1.387 . S
H1474 C1481 0.950 . S
C1475 C1473 1.387 . S
C1475 C1477 1.390 . S
C1475 H1479 0.950 . S
H1476 C1472 0.950 . S
C1477 C1475 1.390 . S
C1477 C1478 1.387 1_554 S
C1477 H1480 0.950 . S
C1478 C1477 1.387 1_556 S
C1478 C1481 1.387 . S
H1479 C1475 0.950 . S
H1480 C1477 0.950 . S
C1481 C1472 1.390 . S
C1481 H1474 0.950 . S
C1481 C1478 1.387 . S
C1482 C1483 1.387 1_455 S
C1482 H1486 0.950 . S
C1482 C1491 1.390 . S
C1483 C1482 1.387 1_655 S
C1483 C1485 1.387 1_554 S
H1484 C1491 0.950 . S
C1485 C1483 1.387 1_556 S
C1485 C1487 1.390 . S
C1485 H1489 0.950 . S
H1486 C1482 0.950 . S
C1487 C1485 1.390 . S
C1487 C1488 1.387 1_655 S
C1487 H1490 0.950 . S
C1488 C1487 1.387 1_455 S
C1488 C1491 1.387 1_556 S
H1489 C1485 0.950 . S
H1490 C1487 0.950 . S
C1491 C1482 1.390 . S
C1491 H1484 0.950 . S
C1491 C1488 1.387 1_554 S
C1492 C1493 1.387 . S
C1492 H1496 0.950 . S
C1492 C1501 1.390 1_546 S
C1493 C1492 1.387 . S
C1493 C1495 1.387 . S
H1494 C1501 0.950 . S
C1495 C1493 1.387 . S
C1495 C1497 1.390 1_546 S
C1495 H1499 0.950 . S
H1496 C1492 0.950 . S
C1497 C1495 1.390 1_564 S
C1497 C1498 1.387 . S
C1497 H1500 0.950 . S
C1498 C1497 1.387 . S
C1498 C1501 1.387 . S
H1499 C1495 0.950 . S
H1500 C1497 0.950 . S
C1501 C1492 1.390 1_564 S
C1501 H1494 0.950 . S
C1501 C1498 1.387 . S
C1502 C1503 1.387 . S
C1502 H1506 0.950 . S
C1502 C1511 1.390 1_556 S
C1503 C1502 1.387 . S
C1503 C1505 1.387 . S
H1504 C1511 0.950 . S
C1505 C1503 1.387 . S
C1505 C1507 1.390 1_556 S
C1505 H1509 0.950 . S
H1506 C1502 0.950 . S
C1507 C1505 1.390 1_554 S
C1507 C1508 1.387 . S
C1507 H1510 0.950 . S
C1508 C1507 1.387 . S
C1508 C1511 1.387 . S
H1509 C1505 0.950 . S
H1510 C1507 0.950 . S
C1511 C1502 1.390 1_554 S
C1511 H1504 0.950 . S
C1511 C1508 1.387 . S
C1512 C1513 1.387 1_455 S
C1512 H1516 0.950 . S
C1512 C1521 1.390 . S
C1513 C1512 1.387 1_655 S
C1513 C1515 1.387 . S
H1514 C1521 0.950 . S
C1515 C1513 1.387 . S
C1515 C1517 1.390 . S
C1515 H1519 0.950 . S
H1516 C1512 0.950 . S
C1517 C1515 1.390 . S
C1517 C1518 1.387 1_655 S
C1517 H1520 0.950 . S
C1518 C1517 1.387 1_455 S
C1518 C1521 1.387 . S
H1519 C1515 0.950 . S
H1520 C1517 0.950 . S
C1521 C1512 1.390 . S
C1521 H1514 0.950 . S
C1521 C1518 1.387 . S
C1522 C1523 1.387 . S
C1522 H1526 0.950 . S
C1522 C1531 1.390 1_645 S
C1523 C1522 1.387 . S
C1523 C1525 1.387 . S
H1524 C1531 0.950 . S
C1525 C1523 1.387 . S
C1525 C1527 1.390 1_645 S
C1525 H1529 0.950 . S
H1526 C1522 0.950 . S
C1527 C1525 1.390 1_465 S
C1527 C1528 1.387 . S
C1527 H1530 0.950 . S
C1528 C1527 1.387 . S
C1528 C1531 1.387 . S
H1529 C1525 0.950 . S
H1530 C1527 0.950 . S
C1531 C1522 1.390 1_465 S
C1531 H1524 0.950 . S
C1531 C1528 1.387 . S
C1532 C1533 1.387 . S
C1532 H1536 0.950 . S
C1532 C1541 1.390 1_565 S
C1533 C1532 1.387 . S
C1533 C1535 1.387 . S
H1534 C1541 0.950 . S
C1535 C1533 1.387 . S
C1535 C1537 1.390 1_565 S
C1535 H1539 0.950 . S
H1536 C1532 0.950 . S
C1537 C1535 1.390 1_545 S
C1537 C1538 1.387 . S
C1537 H1540 0.950 . S
C1538 C1537 1.387 . S
C1538 C1541 1.387 . S
H1539 C1535 0.950 . S
H1540 C1537 0.950 . S
C1541 C1532 1.390 1_545 S
C1541 H1534 0.950 . S
C1541 C1538 1.387 . S
C1542 C1543 1.387 . S
C1542 H1546 0.950 . S
C1542 C1551 1.390 . S
C1543 C1542 1.387 . S
C1543 C1545 1.387 . S
H1544 C1551 0.950 . S
C1545 C1543 1.387 . S
C1545 C1547 1.390 . S
C1545 H1549 0.950 . S
H1546 C1542 0.950 . S
C1547 C1545 1.390 . S
C1547 C1548 1.387 . S
C1547 H1550 0.950 . S
C1548 C1547 1.387 . S
C1548 C1551 1.387 . S
H1549 C1545 0.950 . S
H1550 C1547 0.950 . S
C1551 C1542 1.390 . S
C1551 H1544 0.950 . S
C1551 C1548 1.387 . S
C1552 C1553 1.387 . S
C1552 H1556 0.950 . S
C1552 C1561 1.390 1_565 S
C1553 C1552 1.387 . S
C1553 C1555 1.387 . S
H1554 C1561 0.950 . S
C1555 C1553 1.387 . S
C1555 C1557 1.390 1_565 S
C1555 H1559 0.950 . S
H1556 C1552 0.950 . S
C1557 C1555 1.390 1_545 S
C1557 C1558 1.387 . S
C1557 H1560 0.950 . S
C1558 C1557 1.387 . S
C1558 C1561 1.387 . S
H1559 C1555 0.950 . S
H1560 C1557 0.950 . S
C1561 C1552 1.390 1_545 S
C1561 H1554 0.950 . S
C1561 C1558 1.387 . S
C1562 C1563 1.387 . S
C1562 H1566 0.950 . S
C1562 C1571 1.390 . S
C1563 C1562 1.387 . S
C1563 C1565 1.387 . S
H1564 C1571 0.950 . S
C1565 C1563 1.387 . S
C1565 C1567 1.390 . S
C1565 H1569 0.950 . S
H1566 C1562 0.950 . S
C1567 C1565 1.390 . S
C1567 C1568 1.387 . S
C1567 H1570 0.950 . S
C1568 C1567 1.387 . S
C1568 C1571 1.387 . S
H1569 C1565 0.950 . S
H1570 C1567 0.950 . S
C1571 C1562 1.390 . S
C1571 H1564 0.950 . S
C1571 C1568 1.387 . S
C1572 C1573 1.387 . S
C1572 H1576 0.950 . S
C1572 C1581 1.390 . S
C1573 C1572 1.387 . S
C1573 C1575 1.387 . S
H1574 C1581 0.950 . S
C1575 C1573 1.387 . S
C1575 C1577 1.390 . S
C1575 H1579 0.950 . S
H1576 C1572 0.950 . S
C1577 C1575 1.390 . S
C1577 C1578 1.387 . S
C1577 H1580 0.950 . S
C1578 C1577 1.387 . S
C1578 C1581 1.387 . S
H1579 C1575 0.950 . S
H1580 C1577 0.950 . S
C1581 C1572 1.390 . S
C1581 H1574 0.950 . S
C1581 C1578 1.387 . S
C1582 C1583 1.387 . S
C1582 H1586 0.950 . S
C1582 C1591 1.390 1_455 S
C1583 C1582 1.387 . S
C1583 C1585 1.387 . S
H1584 C1591 0.950 . S
C1585 C1583 1.387 . S
C1585 C1587 1.390 1_455 S
C1585 H1589 0.950 . S
H1586 C1582 0.950 . S
C1587 C1585 1.390 1_655 S
C1587 C1588 1.387 . S
C1587 H1590 0.950 . S
C1588 C1587 1.387 . S
C1588 C1591 1.387 . S
H1589 C1585 0.950 . S
H1590 C1587 0.950 . S
C1591 C1582 1.390 1_655 S
C1591 H1584 0.950 . S
C1591 C1588 1.387 . S
C1592 C1593 1.387 . S
C1592 H1596 0.950 . S
C1592 C1601 1.390 1_554 S
C1593 C1592 1.387 . S
C1593 C1595 1.387 . S
H1594 C1601 0.950 . S
C1595 C1593 1.387 . S
C1595 C1597 1.390 1_554 S
C1595 H1599 0.950 . S
H1596 C1592 0.950 . S
C1597 C1595 1.390 1_556 S
C1597 C1598 1.387 . S
C1597 H1600 0.950 . S
C1598 C1597 1.387 . S
C1598 C1601 1.387 . S
H1599 C1595 0.950 . S
H1600 C1597 0.950 . S
C1601 C1592 1.390 1_556 S
C1601 H1594 0.950 . S
C1601 C1598 1.387 . S
C1602 C1603 1.387 . S
C1602 H1606 0.950 . S
C1602 C1611 1.390 1_654 S
C1603 C1602 1.387 . S
C1603 C1605 1.387 . S
H1604 C1611 0.950 . S
C1605 C1603 1.387 . S
C1605 C1607 1.390 1_654 S
C1605 H1609 0.950 . S
H1606 C1602 0.950 . S
C1607 C1605 1.390 1_456 S
C1607 C1608 1.387 . S
C1607 H1610 0.950 . S
C1608 C1607 1.387 . S
C1608 C1611 1.387 . S
H1609 C1605 0.950 . S
H1610 C1607 0.950 . S
C1611 C1602 1.390 1_456 S
C1611 H1604 0.950 . S
C1611 C1608 1.387 . S
C1612 C1613 1.387 . S
C1612 H1616 0.950 . S
C1612 C1621 1.390 1_564 S
C1613 C1612 1.387 . S
C1613 C1615 1.387 . S
H1614 C1621 0.950 . S
C1615 C1613 1.387 . S
C1615 C1617 1.390 1_564 S
C1615 H1619 0.950 . S
H1616 C1612 0.950 . S
C1617 C1615 1.390 1_546 S
C1617 C1618 1.387 . S
C1617 H1620 0.950 . S
C1618 C1617 1.387 . S
C1618 C1621 1.387 . S
H1619 C1615 0.950 . S
H1620 C1617 0.950 . S
C1621 C1612 1.390 1_546 S
C1621 H1614 0.950 . S
C1621 C1618 1.387 . S
C1622 C1623 1.387 . S
C1622 H1626 0.950 . S
C1622 C1631 1.390 1_554 S
C1623 C1622 1.387 . S
C1623 C1625 1.387 . S
H1624 C1631 0.950 . S
C1625 C1623 1.387 . S
C1625 C1627 1.390 1_554 S
C1625 H1629 0.950 . S
H1626 C1622 0.950 . S
C1627 C1625 1.390 1_556 S
C1627 C1628 1.387 . S
C1627 H1630 0.950 . S
C1628 C1627 1.387 . S
C1628 C1631 1.387 . S
H1629 C1625 0.950 . S
H1630 C1627 0.950 . S
C1631 C1622 1.390 1_556 S
C1631 H1624 0.950 . S
C1631 C1628 1.387 . S
C1632 C1633 1.387 . S
C1632 H1636 0.950 . S
C1632 C1641 1.390 . S
C1633 C1632 1.387 . S
C1633 C1635 1.387 . S
H1634 C1641 0.950 . S
C1635 C1633 1.387 . S
C1635 C1637 1.390 . S
C1635 H1639 0.950 . S
H1636 C1632 0.950 . S
C1637 C1635 1.390 . S
C1637 C1638 1.387 . S
C1637 H1640 0.950 . S
C1638 C1637 1.387 . S
C1638 C1641 1.387 . S
H1639 C1635 0.950 . S
H1640 C1637 0.950 . S
C1641 C1632 1.390 . S
C1641 H1634 0.950 . S
C1641 C1638 1.387 . S
C1642 C1643 1.387 . S
C1642 H1646 0.950 . S
C1642 C1651 1.390 . S
C1643 C1642 1.387 . S
C1643 C1645 1.387 . S
H1644 C1651 0.950 . S
C1645 C1643 1.387 . S
C1645 C1647 1.390 . S
C1645 H1649 0.950 . S
H1646 C1642 0.950 . S
C1647 C1645 1.390 . S
C1647 C1648 1.387 . S
C1647 H1650 0.950 . S
C1648 C1647 1.387 . S
C1648 C1651 1.387 . S
H1649 C1645 0.950 . S
H1650 C1647 0.950 . S
C1651 C1642 1.390 . S
C1651 H1644 0.950 . S
C1651 C1648 1.387 . S
C1652 C1653 1.387 . S
C1652 H1656 0.950 . S
C1652 C1661 1.390 . S
C1653 C1652 1.387 . S
C1653 C1655 1.387 . S
H1654 C1661 0.950 . S
C1655 C1653 1.387 . S
C1655 C1657 1.390 . S
C1655 H1659 0.950 . S
H1656 C1652 0.950 . S
C1657 C1655 1.390 . S
C1657 C1658 1.387 . S
C1657 H1660 0.950 . S
C1658 C1657 1.387 . S
C1658 C1661 1.387 . S
H1659 C1655 0.950 . S
H1660 C1657 0.950 . S
C1661 C1652 1.390 . S
C1661 H1654 0.950 . S
C1661 C1658 1.387 . S
C1662 C1663 1.387 . S
C1662 H1666 0.950 . S
C1662 C1671 1.390 . S
C1663 C1662 1.387 . S
C1663 C1665 1.387 . S
H1664 C1671 0.950 . S
C1665 C1663 1.387 . S
C1665 C1667 1.390 . S
C1665 H1669 0.950 . S
H1666 C1662 0.950 . S
C1667 C1665 1.390 . S
C1667 C1668 1.387 . S
C1667 H1670 0.950 . S
C1668 C1667 1.387 . S
C1668 C1671 1.387 . S
H1669 C1665 0.950 . S
H1670 C1667 0.950 . S
C1671 C1662 1.390 . S
C1671 H1664 0.950 . S
C1671 C1668 1.387 . S
C1672 C1673 1.387 . S
C1672 H1676 0.950 . S
C1672 C1681 1.390 . S
C1673 C1672 1.387 . S
C1673 C1675 1.387 . S
H1674 C1681 0.950 . S
C1675 C1673 1.387 . S
C1675 C1677 1.390 . S
C1675 H1679 0.950 . S
H1676 C1672 0.950 . S
C1677 C1675 1.390 . S
C1677 C1678 1.387 . S
C1677 H1680 0.950 . S
C1678 C1677 1.387 . S
C1678 C1681 1.387 . S
H1679 C1675 0.950 . S
H1680 C1677 0.950 . S
C1681 C1672 1.390 . S
C1681 H1674 0.950 . S
C1681 C1678 1.387 . S
C1682 C1683 1.387 . S
C1682 H1686 0.950 . S
C1682 C1691 1.390 . S
C1683 C1682 1.387 . S
C1683 C1685 1.387 . S
H1684 C1691 0.950 . S
C1685 C1683 1.387 . S
C1685 C1687 1.390 . S
C1685 H1689 0.950 . S
H1686 C1682 0.950 . S
C1687 C1685 1.390 . S
C1687 C1688 1.387 . S
C1687 H1690 0.950 . S
C1688 C1687 1.387 . S
C1688 C1691 1.387 . S
H1689 C1685 0.950 . S
H1690 C1687 0.950 . S
C1691 C1682 1.390 . S
C1691 H1684 0.950 . S
C1691 C1688 1.387 . S
C1692 C1693 1.387 . S
C1692 H1696 0.950 . S
C1692 C1701 1.390 . S
C1693 C1692 1.387 . S
C1693 C1695 1.387 . S
H1694 C1701 0.950 . S
C1695 C1693 1.387 . S
C1695 C1697 1.390 . S
C1695 H1699 0.950 . S
H1696 C1692 0.950 . S
C1697 C1695 1.390 . S
C1697 C1698 1.387 . S
C1697 H1700 0.950 . S
C1698 C1697 1.387 . S
C1698 C1701 1.387 . S
H1699 C1695 0.950 . S
H1700 C1697 0.950 . S
C1701 C1692 1.390 . S
C1701 H1694 0.950 . S
C1701 C1698 1.387 . S
C1702 C1703 1.387 . S
C1702 H1706 0.950 . S
C1702 C1711 1.390 . S
C1703 C1702 1.387 . S
C1703 C1705 1.387 . S
H1704 C1711 0.950 . S
C1705 C1703 1.387 . S
C1705 C1707 1.390 . S
C1705 H1709 0.950 . S
H1706 C1702 0.950 . S
C1707 C1705 1.390 . S
C1707 C1708 1.387 . S
C1707 H1710 0.950 . S
C1708 C1707 1.387 . S
C1708 C1711 1.387 . S
H1709 C1705 0.950 . S
H1710 C1707 0.950 . S
C1711 C1702 1.390 . S
C1711 H1704 0.950 . S
C1711 C1708 1.387 . S
C1712 C1713 1.387 . S
C1712 H1716 0.950 . S
C1712 C1721 1.390 . S
C1713 C1712 1.387 . S
C1713 C1715 1.387 . S
H1714 C1721 0.950 . S
C1715 C1713 1.387 . S
C1715 C1717 1.390 . S
C1715 H1719 0.950 . S
H1716 C1712 0.950 . S
C1717 C1715 1.390 . S
C1717 C1718 1.387 . S
C1717 H1720 0.950 . S
C1718 C1717 1.387 . S
C1718 C1721 1.387 . S
H1719 C1715 0.950 . S
H1720 C1717 0.950 . S
C1721 C1712 1.390 . S
C1721 H1714 0.950 . S
C1721 C1718 1.387 . S
C1722 C1723 1.387 . S
C1722 H1726 0.950 . S
C1722 C1731 1.390 . S
C1723 C1722 1.387 . S
C1723 C1725 1.387 . S
H1724 C1731 0.950 . S
C1725 C1723 1.387 . S
C1725 C1727 1.390 . S
C1725 H1729 0.950 . S
H1726 C1722 0.950 . S
C1727 C1725 1.390 . S
C1727 C1728 1.387 . S
C1727 H1730 0.950 . S
C1728 C1727 1.387 . S
C1728 C1731 1.387 . S
H1729 C1725 0.950 . S
H1730 C1727 0.950 . S
C1731 C1722 1.390 . S
C1731 H1724 0.950 . S
C1731 C1728 1.387 . S
C1732 C1733 1.387 . S
C1732 H1736 0.950 . S
C1732 C1741 1.390 . S
C1733 C1732 1.387 . S
C1733 C1735 1.387 . S
H1734 C1741 0.950 . S
C1735 C1733 1.387 . S
C1735 C1737 1.390 . S
C1735 H1739 0.950 . S
H1736 C1732 0.950 . S
C1737 C1735 1.390 . S
C1737 C1738 1.387 . S
C1737 H1740 0.950 . S
C1738 C1737 1.387 . S
C1738 C1741 1.387 . S
H1739 C1735 0.950 . S
H1740 C1737 0.950 . S
C1741 C1732 1.390 . S
C1741 H1734 0.950 . S
C1741 C1738 1.387 . S
C1742 C1743 1.387 . S
C1742 H1746 0.950 . S
C1742 C1751 1.390 . S
C1743 C1742 1.387 . S
C1743 C1745 1.387 . S
H1744 C1751 0.950 . S
C1745 C1743 1.387 . S
C1745 C1747 1.390 . S
C1745 H1749 0.950 . S
H1746 C1742 0.950 . S
C1747 C1745 1.390 . S
C1747 C1748 1.387 . S
C1747 H1750 0.950 . S
C1748 C1747 1.387 . S
C1748 C1751 1.387 . S
H1749 C1745 0.950 . S
H1750 C1747 0.950 . S
C1751 C1742 1.390 . S
C1751 H1744 0.950 . S
C1751 C1748 1.387 . S
C1752 C1753 1.387 . S
C1752 H1756 0.950 . S
C1752 C1761 1.390 . S
C1753 C1752 1.387 . S
C1753 C1755 1.387 . S
H1754 C1761 0.950 . S
C1755 C1753 1.387 . S
C1755 C1757 1.390 . S
C1755 H1759 0.950 . S
H1756 C1752 0.950 . S
C1757 C1755 1.390 . S
C1757 C1758 1.387 . S
C1757 H1760 0.950 . S
C1758 C1757 1.387 . S
C1758 C1761 1.387 . S
H1759 C1755 0.950 . S
H1760 C1757 0.950 . S
C1761 C1752 1.390 . S
C1761 H1754 0.950 . S
C1761 C1758 1.387 . S
C1762 C1763 1.387 . S
C1762 H1766 0.950 . S
C1762 C1771 1.390 . S
C1763 C1762 1.387 . S
C1763 C1765 1.387 . S
H1764 C1771 0.950 . S
C1765 C1763 1.387 . S
C1765 C1767 1.390 . S
C1765 H1769 0.950 . S
H1766 C1762 0.950 . S
C1767 C1765 1.390 . S
C1767 C1768 1.387 . S
C1767 H1770 0.950 . S
C1768 C1767 1.387 . S
C1768 C1771 1.387 . S
H1769 C1765 0.950 . S
H1770 C1767 0.950 . S
C1771 C1762 1.390 . S
C1771 H1764 0.950 . S
C1771 C1768 1.387 . S
C1772 C1773 1.387 . S
C1772 H1776 0.950 . S
C1772 C1781 1.390 . S
C1773 C1772 1.387 . S
C1773 C1775 1.387 . S
H1774 C1781 0.950 . S
C1775 C1773 1.387 . S
C1775 C1777 1.390 . S
C1775 H1779 0.950 . S
H1776 C1772 0.950 . S
C1777 C1775 1.390 . S
C1777 C1778 1.387 . S
C1777 H1780 0.950 . S
C1778 C1777 1.387 . S
C1778 C1781 1.387 . S
H1779 C1775 0.950 . S
H1780 C1777 0.950 . S
C1781 C1772 1.390 . S
C1781 H1774 0.950 . S
C1781 C1778 1.387 . S
C1782 C1783 1.387 . S
C1782 H1786 0.950 . S
C1782 C1791 1.390 . S
C1783 C1782 1.387 . S
C1783 C1785 1.387 . S
H1784 C1791 0.950 . S
C1785 C1783 1.387 . S
C1785 C1787 1.390 . S
C1785 H1789 0.950 . S
H1786 C1782 0.950 . S
C1787 C1785 1.390 . S
C1787 C1788 1.387 . S
C1787 H1790 0.950 . S
C1788 C1787 1.387 . S
C1788 C1791 1.387 . S
H1789 C1785 0.950 . S
H1790 C1787 0.950 . S
C1791 C1782 1.390 . S
C1791 H1784 0.950 . S
C1791 C1788 1.387 . S
C1792 C1793 1.387 . S
C1792 H1796 0.950 . S
C1792 C1801 1.390 . S
C1793 C1792 1.387 . S
C1793 C1795 1.387 . S
H1794 C1801 0.950 . S
C1795 C1793 1.387 . S
C1795 C1797 1.390 . S
C1795 H1799 0.950 . S
H1796 C1792 0.950 . S
C1797 C1795 1.390 . S
C1797 C1798 1.387 . S
C1797 H1800 0.950 . S
C1798 C1797 1.387 . S
C1798 C1801 1.387 . S
H1799 C1795 0.950 . S
H1800 C1797 0.950 . S
C1801 C1792 1.390 . S
C1801 H1794 0.950 . S
C1801 C1798 1.387 . S
C1802 C1803 1.387 . S
C1802 H1806 0.950 . S
C1802 C1811 1.390 . S
C1803 C1802 1.387 . S
C1803 C1805 1.387 . S
H1804 C1811 0.950 . S
C1805 C1803 1.387 . S
C1805 C1807 1.390 . S
C1805 H1809 0.950 . S
H1806 C1802 0.950 . S
C1807 C1805 1.390 . S
C1807 C1808 1.387 . S
C1807 H1810 0.950 . S
C1808 C1807 1.387 . S
C1808 C1811 1.387 . S
H1809 C1805 0.950 . S
H1810 C1807 0.950 . S
C1811 C1802 1.390 . S
C1811 H1804 0.950 . S
C1811 C1808 1.387 . S
C1812 C1813 1.387 . S
C1812 H1816 0.950 . S
C1812 C1821 1.390 . S
C1813 C1812 1.387 . S
C1813 C1815 1.387 . S
H1814 C1821 0.950 . S
C1815 C1813 1.387 . S
C1815 C1817 1.390 . S
C1815 H1819 0.950 . S
H1816 C1812 0.950 . S
C1817 C1815 1.390 . S
C1817 C1818 1.387 . S
C1817 H1820 0.950 . S
C1818 C1817 1.387 . S
C1818 C1821 1.387 . S
H1819 C1815 0.950 . S
H1820 C1817 0.950 . S
C1821 C1812 1.390 . S
C1821 H1814 0.950 . S
C1821 C1818 1.387 . S
C1822 C1823 1.387 . S
C1822 H1826 0.950 . S
C1822 C1831 1.390 . S
C1823 C1822 1.387 . S
C1823 C1825 1.387 . S
H1824 C1831 0.950 . S
C1825 C1823 1.387 . S
C1825 C1827 1.390 . S
C1825 H1829 0.950 . S
H1826 C1822 0.950 . S
C1827 C1825 1.390 . S
C1827 C1828 1.387 . S
C1827 H1830 0.950 . S
C1828 C1827 1.387 . S
C1828 C1831 1.387 . S
H1829 C1825 0.950 . S
H1830 C1827 0.950 . S
C1831 C1822 1.390 . S
C1831 H1824 0.950 . S
C1831 C1828 1.387 . S
C1832 C1833 1.387 . S
C1832 H1836 0.950 . S
C1832 C1841 1.390 . S
C1833 C1832 1.387 . S
C1833 C1835 1.387 . S
H1834 C1841 0.950 . S
C1835 C1833 1.387 . S
C1835 C1837 1.390 . S
C1835 H1839 0.950 . S
H1836 C1832 0.950 . S
C1837 C1835 1.390 . S
C1837 C1838 1.387 . S
C1837 H1840 0.950 . S
C1838 C1837 1.387 . S
C1838 C1841 1.387 . S
H1839 C1835 0.950 . S
H1840 C1837 0.950 . S
C1841 C1832 1.390 . S
C1841 H1834 0.950 . S
C1841 C1838 1.387 . S
C1842 C1843 1.387 . S
C1842 H1846 0.950 . S
C1842 C1851 1.390 . S
C1843 C1842 1.387 . S
C1843 C1845 1.387 . S
H1844 C1851 0.950 . S
C1845 C1843 1.387 . S
C1845 C1847 1.390 . S
C1845 H1849 0.950 . S
H1846 C1842 0.950 . S
C1847 C1845 1.390 . S
C1847 C1848 1.387 . S
C1847 H1850 0.950 . S
C1848 C1847 1.387 . S
C1848 C1851 1.387 . S
H1849 C1845 0.950 . S
H1850 C1847 0.950 . S
C1851 C1842 1.390 . S
C1851 H1844 0.950 . S
C1851 C1848 1.387 . S
C1852 C1853 1.387 . S
C1852 H1856 0.950 . S
C1852 C1861 1.390 . S
C1853 C1852 1.387 . S
C1853 C1855 1.387 . S
H1854 C1861 0.950 . S
C1855 C1853 1.387 . S
C1855 C1857 1.390 . S
C1855 H1859 0.950 . S
H1856 C1852 0.950 . S
C1857 C1855 1.390 . S
C1857 C1858 1.387 . S
C1857 H1860 0.950 . S
C1858 C1857 1.387 . S
C1858 C1861 1.387 . S
H1859 C1855 0.950 . S
H1860 C1857 0.950 . S
C1861 C1852 1.390 . S
C1861 H1854 0.950 . S
C1861 C1858 1.387 . S
C1862 C1863 1.387 . S
C1862 H1866 0.950 . S
C1862 C1871 1.390 . S
C1863 C1862 1.387 . S
C1863 C1865 1.387 . S
H1864 C1871 0.950 . S
C1865 C1863 1.387 . S
C1865 C1867 1.390 . S
C1865 H1869 0.950 . S
H1866 C1862 0.950 . S
C1867 C1865 1.390 . S
C1867 C1868 1.387 . S
C1867 H1870 0.950 . S
C1868 C1867 1.387 . S
C1868 C1871 1.387 . S
H1869 C1865 0.950 . S
H1870 C1867 0.950 . S
C1871 C1862 1.390 . S
C1871 H1864 0.950 . S
C1871 C1868 1.387 . S
C1872 C1873 1.387 . S
C1872 H1876 0.950 . S
C1872 C1881 1.390 . S
C1873 C1872 1.387 . S
C1873 C1875 1.387 . S
H1874 C1881 0.950 . S
C1875 C1873 1.387 . S
C1875 C1877 1.390 . S
C1875 H1879 0.950 . S
H1876 C1872 0.950 . S
C1877 C1875 1.390 . S
C1877 C1878 1.387 . S
C1877 H1880 0.950 . S
C1878 C1877 1.387 . S
C1878 C1881 1.387 . S
H1879 C1875 0.950 . S
H1880 C1877 0.950 . S
C1881 C1872 1.390 . S
C1881 H1874 0.950 . S
C1881 C1878 1.387 . S
C1882 C1883 1.387 . S
C1882 H1886 0.950 . S
C1882 C1891 1.390 . S
C1883 C1882 1.387 . S
C1883 C1885 1.387 . S
H1884 C1891 0.950 . S
C1885 C1883 1.387 . S
C1885 C1887 1.390 . S
C1885 H1889 0.950 . S
H1886 C1882 0.950 . S
C1887 C1885 1.390 . S
C1887 C1888 1.387 . S
C1887 H1890 0.950 . S
C1888 C1887 1.387 . S
C1888 C1891 1.387 . S
H1889 C1885 0.950 . S
H1890 C1887 0.950 . S
C1891 C1882 1.390 . S
C1891 H1884 0.950 . S
C1891 C1888 1.387 . S
C1892 C1893 1.387 . S
C1892 H1896 0.950 . S
C1892 C1901 1.390 . S
C1893 C1892 1.387 . S
C1893 C1895 1.387 . S
H1894 C1901 0.950 . S
C1895 C1893 1.387 . S
C1895 C1897 1.390 . S
C1895 H1899 0.950 . S
H1896 C1892 0.950 . S
C1897 C1895 1.390 . S
C1897 C1898 1.387 . S
C1897 H1900 0.950 . S
C1898 C1897 1.387 . S
C1898 C1901 1.387 . S
H1899 C1895 0.950 . S
H1900 C1897 0.950 . S
C1901 C1892 1.390 . S
C1901 H1894 0.950 . S
C1901 C1898 1.387 . S
C1902 C1903 1.387 . S
C1902 H1906 0.950 . S
C1902 C1911 1.390 . S
C1903 C1902 1.387 . S
C1903 C1905 1.387 . S
H1904 C1911 0.950 . S
C1905 C1903 1.387 . S
C1905 C1907 1.390 . S
C1905 H1909 0.950 . S
H1906 C1902 0.950 . S
C1907 C1905 1.390 . S
C1907 C1908 1.387 . S
C1907 H1910 0.950 . S
C1908 C1907 1.387 . S
C1908 C1911 1.387 . S
H1909 C1905 0.950 . S
H1910 C1907 0.950 . S
C1911 C1902 1.390 . S
C1911 H1904 0.950 . S
C1911 C1908 1.387 . S
C1912 C1913 1.387 . S
C1912 H1916 0.950 . S
C1912 C1921 1.390 . S
C1913 C1912 1.387 . S
C1913 C1915 1.387 . S
H1914 C1921 0.950 . S
C1915 C1913 1.387 . S
C1915 C1917 1.390 . S
C1915 H1919 0.950 . S
H1916 C1912 0.950 . S
C1917 C1915 1.390 . S
C1917 C1918 1.387 . S
C1917 H1920 0.950 . S
C1918 C1917 1.387 . S
C1918 C1921 1.387 . S
H1919 C1915 0.950 . S
H1920 C1917 0.950 . S
C1921 C1912 1.390 . S
C1921 H1914 0.950 . S
C1921 C1918 1.387 . S
C1922 C1923 1.387 . S
C1922 H1926 0.950 . S
C1922 C1931 1.390 . S
C1923 C1922 1.387 . S
C1923 C1925 1.387 . S
H1924 C1931 0.950 . S
C1925 C1923 1.387 . S
C1925 C1927 1.390 . S
C1925 H1929 0.950 . S
H1926 C1922 0.950 . S
C1927 C1925 1.390 . S
C1927 C1928 1.387 . S
C1927 H1930 0.950 . S
C1928 C1927 1.387 . S
C1928 C1931 1.387 . S
H1929 C1925 0.950 . S
H1930 C1927 0.950 . S
C1931 C1922 1.390 . S
C1931 H1924 0.950 . S
C1931 C1928 1.387 . S
C1932 C1933 1.387 . S
C1932 H1936 0.950 . S
C1932 C1941 1.390 . S
C1933 C1932 1.387 . S
C1933 C1935 1.387 . S
H1934 C1941 0.950 . S
C1935 C1933 1.387 . S
C1935 C1937 1.390 . S
C1935 H1939 0.950 . S
H1936 C1932 0.950 . S
C1937 C1935 1.390 . S
C1937 C1938 1.387 . S
C1937 H1940 0.950 . S
C1938 C1937 1.387 . S
C1938 C1941 1.387 . S
H1939 C1935 0.950 . S
H1940 C1937 0.950 . S
C1941 C1932 1.390 . S
C1941 H1934 0.950 . S
C1941 C1938 1.387 . S
C1942 C1943 1.387 . S
C1942 H1946 0.950 . S
C1942 C1951 1.390 . S
C1943 C1942 1.387 . S
C1943 C1945 1.387 . S
H1944 C1951 0.950 . S
C1945 C1943 1.387 . S
C1945 C1947 1.390 . S
C1945 H1949 0.950 . S
H1946 C1942 0.950 . S
C1947 C1945 1.390 . S
C1947 C1948 1.387 . S
C1947 H1950 0.950 . S
C1948 C1947 1.387 . S
C1948 C1951 1.387 . S
H1949 C1945 0.950 . S
H1950 C1947 0.950 . S
C1951 C1942 1.390 . S
C1951 H1944 0.950 . S
C1951 C1948 1.387 . S
C1952 C1953 1.387 . S
C1952 H1956 0.950 . S
C1952 C1961 1.390 . S
C1953 C1952 1.387 . S
C1953 C1955 1.387 . S
H1954 C1961 0.950 . S
C1955 C1953 1.387 . S
C1955 C1957 1.390 . S
C1955 H1959 0.950 . S
H1956 C1952 0.950 . S
C1957 C1955 1.390 . S
C1957 C1958 1.387 . S
C1957 H1960 0.950 . S
C1958 C1957 1.387 . S
C1958 C1961 1.387 . S
H1959 C1955 0.950 . S
H1960 C1957 0.950 . S
C1961 C1952 1.390 . S
C1961 H1954 0.950 . S
C1961 C1958 1.387 . S
C1962 C1963 1.387 . S
C1962 H1966 0.950 . S
C1962 C1971 1.390 . S
C1963 C1962 1.387 . S
C1963 C1965 1.387 . S
H1964 C1971 0.950 . S
C1965 C1963 1.387 . S
C1965 C1967 1.390 . S
C1965 H1969 0.950 . S
H1966 C1962 0.950 . S
C1967 C1965 1.390 . S
C1967 C1968 1.387 . S
C1967 H1970 0.950 . S
C1968 C1967 1.387 . S
C1968 C1971 1.387 . S
H1969 C1965 0.950 . S
H1970 C1967 0.950 . S
C1971 C1962 1.390 . S
C1971 H1964 0.950 . S
C1971 C1968 1.387 . S
C1972 C1973 1.387 . S
C1972 H1976 0.950 . S
C1972 C1981 1.390 . S
C1973 C1972 1.387 . S
C1973 C1975 1.387 . S
H1974 C1981 0.950 . S
C1975 C1973 1.387 . S
C1975 C1977 1.390 . S
C1975 H1979 0.950 . S
H1976 C1972 0.950 . S
C1977 C1975 1.390 . S
C1977 C1978 1.387 . S
C1977 H1980 0.950 . S
C1978 C1977 1.387 . S
C1978 C1981 1.387 . S
H1979 C1975 0.950 . S
H1980 C1977 0.950 . S
C1981 C1972 1.390 . S
C1981 H1974 0.950 . S
C1981 C1978 1.387 . S
C1982 C1983 1.387 . S
C1982 H1986 0.950 . S
C1982 C1991 1.390 . S
C1983 C1982 1.387 . S
C1983 C1985 1.387 . S
H1984 C1991 0.950 . S
C1985 C1983 1.387 . S
C1985 C1987 1.390 . S
C1985 H1989 0.950 . S
H1986 C1982 0.950 . S
C1987 C1985 1.390 . S
C1987 C1988 1.387 . S
C1987 H1990 0.950 . S
C1988 C1987 1.387 . S
C1988 C1991 1.387 . S
H1989 C1985 0.950 . S
H1990 C1987 0.950 . S
C1991 C1982 1.390 . S
C1991 H1984 0.950 . S
C1991 C1988 1.387 . S
C1992 C1993 1.387 . S
C1992 H1996 0.950 . S
C1992 C2001 1.390 . S
C1993 C1992 1.387 . S
C1993 C1995 1.387 . S
H1994 C2001 0.950 . S
C1995 C1993 1.387 . S
C1995 C1997 1.390 . S
C1995 H1999 0.950 . S
H1996 C1992 0.950 . S
C1997 C1995 1.390 . S
C1997 C1998 1.387 . S
C1997 H2000 0.950 . S
C1998 C1997 1.387 . S
C1998 C2001 1.387 . S
H1999 C1995 0.950 . S
H2000 C1997 0.950 . S
C2001 C1992 1.390 . S
C2001 H1994 0.950 . S
C2001 C1998 1.387 . S
C2002 C2003 1.387 . S
C2002 H2006 0.950 . S
C2002 C2011 1.390 . S
C2003 C2002 1.387 . S
C2003 C2005 1.387 . S
H2004 C2011 0.950 . S
C2005 C2003 1.387 . S
C2005 C2007 1.390 . S
C2005 H2009 0.950 . S
H2006 C2002 0.950 . S
C2007 C2005 1.390 . S
C2007 C2008 1.387 . S
C2007 H2010 0.950 . S
C2008 C2007 1.387 . S
C2008 C2011 1.387 . S
H2009 C2005 0.950 . S
H2010 C2007 0.950 . S
C2011 C2002 1.390 . S
C2011 H2004 0.950 . S
C2011 C2008 1.387 . S
C2012 C2013 1.387 . S
C2012 H2016 0.950 . S
C2012 C2021 1.390 . S
C2013 C2012 1.387 . S
C2013 C2015 1.387 . S
H2014 C2021 0.950 . S
C2015 C2013 1.387 . S
C2015 C2017 1.390 . S
C2015 H2019 0.950 . S
H2016 C2012 0.950 . S
C2017 C2015 1.390 . S
C2017 C2018 1.387 . S
C2017 H2020 0.950 . S
C2018 C2017 1.387 . S
C2018 C2021 1.387 . S
H2019 C2015 0.950 . S
H2020 C2017 0.950 . S
C2021 C2012 1.390 . S
C2021 H2014 0.950 . S
C2021 C2018 1.387 . S
C2022 C2023 1.387 . S
C2022 H2026 0.950 . S
C2022 C2031 1.390 . S
C2023 C2022 1.387 . S
C2023 C2025 1.387 . S
H2024 C2031 0.950 . S
C2025 C2023 1.387 . S
C2025 C2027 1.390 . S
C2025 H2029 0.950 . S
H2026 C2022 0.950 . S
C2027 C2025 1.390 . S
C2027 C2028 1.387 . S
C2027 H2030 0.950 . S
C2028 C2027 1.387 . S
C2028 C2031 1.387 . S
H2029 C2025 0.950 . S
H2030 C2027 0.950 . S
C2031 C2022 1.390 . S
C2031 H2024 0.950 . S
C2031 C2028 1.387 . S
C2032 C2033 1.387 . S
C2032 H2036 0.950 . S
C2032 C2041 1.390 . S
C2033 C2032 1.387 . S
C2033 C2035 1.387 . S
H2034 C2041 0.950 . S
C2035 C2033 1.387 . S
C2035 C2037 1.390 . S
C2035 H2039 0.950 . S
H2036 C2032 0.950 . S
C2037 C2035 1.390 . S
C2037 C2038 1.387 . S
C2037 H2040 0.950 . S
C2038 C2037 1.387 . S
C2038 C2041 1.387 . S
H2039 C2035 0.950 . S
H2040 C2037 0.950 . S
C2041 C2032 1.390 . S
C2041 H2034 0.950 . S
C2041 C2038 1.387 . S
C2042 C2043 1.387 . S
C2042 H2046 0.950 . S
C2042 C2051 1.390 . S
C2043 C2042 1.387 . S
C2043 C2045 1.387 . S
H2044 C2051 0.950 . S
C2045 C2043 1.387 . S
C2045 C2047 1.390 . S
C2045 H2049 0.950 . S
H2046 C2042 0.950 . S
C2047 C2045 1.390 . S
C2047 C2048 1.387 . S
C2047 H2050 0.950 . S
C2048 C2047 1.387 . S
C2048 C2051 1.387 . S
H2049 C2045 0.950 . S
H2050 C2047 0.950 . S
C2051 C2042 1.390 . S
C2051 H2044 0.950 . S
C2051 C2048 1.387 . S
C2052 C2053 1.387 . S
C2052 H2056 0.950 . S
C2052 C2061 1.390 . S
C2053 C2052 1.387 . S
C2053 C2055 1.387 . S
H2054 C2061 0.950 . S
C2055 C2053 1.387 . S
C2055 C2057 1.390 . S
C2055 H2059 0.950 . S
H2056 C2052 0.950 . S
C2057 C2055 1.390 . S
C2057 C2058 1.387 . S
C2057 H2060 0.950 . S
C2058 C2057 1.387 . S
C2058 C2061 1.387 . S
H2059 C2055 0.950 . S
H2060 C2057 0.950 . S
C2061 C2052 1.390 . S
C2061 H2054 0.950 . S
C2061 C2058 1.387 . S
C2062 C2063 1.387 . S
C2062 H2066 0.950 . S
C2062 C2071 1.390 . S
C2063 C2062 1.387 . S
C2063 C2065 1.387 . S
H2064 C2071 0.950 . S
C2065 C2063 1.387 . S
C2065 C2067 1.390 . S
C2065 H2069 0.950 . S
H2066 C2062 0.950 . S
C2067 C2065 1.390 . S
C2067 C2068 1.387 . S
C2067 H2070 0.950 . S
C2068 C2067 1.387 . S
C2068 C2071 1.387 . S
H2069 C2065 0.950 . S
H2070 C2067 0.950 . S
C2071 C2062 1.390 . S
C2071 H2064 0.950 . S
C2071 C2068 1.387 . S
C2072 C2073 1.387 . S
C2072 H2076 0.950 . S
C2072 C2081 1.390 . S
C2073 C2072 1.387 . S
C2073 C2075 1.387 . S
H2074 C2081 0.950 . S
C2075 C2073 1.387 . S
C2075 C2077 1.390 . S
C2075 H2079 0.950 . S
H2076 C2072 0.950 . S
C2077 C2075 1.390 . S
C2077 C2078 1.387 . S
C2077 H2080 0.950 . S
C2078 C2077 1.387 . S
C2078 C2081 1.387 . S
H2079 C2075 0.950 . S
H2080 C2077 0.950 . S
C2081 C2072 1.390 . S
C2081 H2074 0.950 . S
C2081 C2078 1.387 . S
C2082 C2083 1.387 . S
C2082 H2086 0.950 . S
C2082 C2091 1.390 . S
C2083 C2082 1.387 . S
C2083 C2085 1.387 . S
H2084 C2091 0.950 . S
C2085 C2083 1.387 . S
C2085 C2087 1.390 . S
C2085 H2089 0.950 . S
H2086 C2082 0.950 . S
C2087 C2085 1.390 . S
C2087 C2088 1.387 . S
C2087 H2090 0.950 . S
C2088 C2087 1.387 . S
C2088 C2091 1.387 . S
H2089 C2085 0.950 . S
H2090 C2087 0.950 . S
C2091 C2082 1.390 . S
C2091 H2084 0.950 . S
C2091 C2088 1.387 . S
C2092 C2093 1.387 . S
C2092 H2096 0.950 . S
C2092 C2101 1.390 . S
C2093 C2092 1.387 . S
C2093 C2095 1.387 . S
H2094 C2101 0.950 . S
C2095 C2093 1.387 . S
C2095 C2097 1.390 . S
C2095 H2099 0.950 . S
H2096 C2092 0.950 . S
C2097 C2095 1.390 . S
C2097 C2098 1.387 . S
C2097 H2100 0.950 . S
C2098 C2097 1.387 . S
C2098 C2101 1.387 . S
H2099 C2095 0.950 . S
H2100 C2097 0.950 . S
C2101 C2092 1.390 . S
C2101 H2094 0.950 . S
C2101 C2098 1.387 . S
C2102 C2103 1.387 . S
C2102 H2106 0.950 . S
C2102 C2111 1.390 . S
C2103 C2102 1.387 . S
C2103 C2105 1.387 . S
H2104 C2111 0.950 . S
C2105 C2103 1.387 . S
C2105 C2107 1.390 . S
C2105 H2109 0.950 . S
H2106 C2102 0.950 . S
C2107 C2105 1.390 . S
C2107 C2108 1.387 . S
C2107 H2110 0.950 . S
C2108 C2107 1.387 . S
C2108 C2111 1.387 . S
H2109 C2105 0.950 . S
H2110 C2107 0.950 . S
C2111 C2102 1.390 . S
C2111 H2104 0.950 . S
C2111 C2108 1.387 . S
C2112 C2113 1.387 . S
C2112 H2116 0.950 . S
C2112 C2121 1.390 . S
C2113 C2112 1.387 . S
C2113 C2115 1.387 . S
H2114 C2121 0.950 . S
C2115 C2113 1.387 . S
C2115 C2117 1.390 . S
C2115 H2119 0.950 . S
H2116 C2112 0.950 . S
C2117 C2115 1.390 . S
C2117 C2118 1.387 . S
C2117 H2120 0.950 . S
C2118 C2117 1.387 . S
C2118 C2121 1.387 . S
H2119 C2115 0.950 . S
H2120 C2117 0.950 . S
C2121 C2112 1.390 . S
C2121 H2114 0.950 . S
C2121 C2118 1.387 . S
C2122 C2123 1.387 . S
C2122 H2126 0.950 . S
C2122 C2131 1.390 . S
C2123 C2122 1.387 . S
C2123 C2125 1.387 . S
H2124 C2131 0.950 . S
C2125 C2123 1.387 . S
C2125 C2127 1.390 . S
C2125 H2129 0.950 . S
H2126 C2122 0.950 . S
C2127 C2125 1.390 . S
C2127 C2128 1.387 . S
C2127 H2130 0.950 . S
C2128 C2127 1.387 . S
C2128 C2131 1.387 . S
H2129 C2125 0.950 . S
H2130 C2127 0.950 . S
C2131 C2122 1.390 . S
C2131 H2124 0.950 . S
C2131 C2128 1.387 . S
C2132 C2133 1.387 . S
C2132 H2136 0.950 . S
C2132 C2141 1.390 . S
C2133 C2132 1.387 . S
C2133 C2135 1.387 . S
H2134 C2141 0.950 . S
C2135 C2133 1.387 . S
C2135 C2137 1.390 . S
C2135 H2139 0.950 . S
H2136 C2132 0.950 . S
C2137 C2135 1.390 . S
C2137 C2138 1.387 . S
C2137 H2140 0.950 . S
C2138 C2137 1.387 . S
C2138 C2141 1.387 . S
H2139 C2135 0.950 . S
H2140 C2137 0.950 . S
C2141 C2132 1.390 . S
C2141 H2134 0.950 . S
C2141 C2138 1.387 . S
C2142 C2143 1.387 . S
C2142 H2146 0.950 . S
C2142 C2151 1.390 . S
C2143 C2142 1.387 . S
C2143 C2145 1.387 . S
H2144 C2151 0.950 . S
C2145 C2143 1.387 . S
C2145 C2147 1.390 . S
C2145 H2149 0.950 . S
H2146 C2142 0.950 . S
C2147 C2145 1.390 . S
C2147 C2148 1.387 . S
C2147 H2150 0.950 . S
C2148 C2147 1.387 . S
C2148 C2151 1.387 . S
H2149 C2145 0.950 . S
H2150 C2147 0.950 . S
C2151 C2142 1.390 . S
C2151 H2144 0.950 . S
C2151 C2148 1.387 . S
C2152 C2153 1.387 . S
C2152 H2156 0.950 . S
C2152 C2161 1.390 . S
C2153 C2152 1.387 . S
C2153 C2155 1.387 1_655 S
H2154 C2161 0.950 . S
C2155 C2153 1.387 1_455 S
C2155 C2157 1.390 . S
C2155 H2159 0.950 . S
H2156 C2152 0.950 . S
C2157 C2155 1.390 . S
C2157 C2158 1.387 1_455 S
C2157 H2160 0.950 . S
C2158 C2157 1.387 1_655 S
C2158 C2161 1.387 . S
H2159 C2155 0.950 . S
H2160 C2157 0.950 . S
C2161 C2152 1.390 . S
C2161 H2154 0.950 . S
C2161 C2158 1.387 . S
C2162 C2163 1.387 . S
C2162 H2166 0.950 . S
C2162 C2171 1.390 . S
C2163 C2162 1.387 . S
C2163 C2165 1.387 1_565 S
H2164 C2171 0.950 . S
C2165 C2163 1.387 1_545 S
C2165 C2167 1.390 . S
C2165 H2169 0.950 . S
H2166 C2162 0.950 . S
C2167 C2165 1.390 . S
C2167 C2168 1.387 1_545 S
C2167 H2170 0.950 . S
C2168 C2167 1.387 1_565 S
C2168 C2171 1.387 . S
H2169 C2165 0.950 . S
H2170 C2167 0.950 . S
C2171 C2162 1.390 . S
C2171 H2164 0.950 . S
C2171 C2168 1.387 . S
C2172 C2173 1.387 . S
C2172 H2176 0.950 . S
C2172 C2181 1.390 . S
C2173 C2172 1.387 . S
C2173 C2175 1.387 . S
H2174 C2181 0.950 . S
C2175 C2173 1.387 . S
C2175 C2177 1.390 . S
C2175 H2179 0.950 . S
H2176 C2172 0.950 . S
C2177 C2175 1.390 . S
C2177 C2178 1.387 . S
C2177 H2180 0.950 . S
C2178 C2177 1.387 . S
C2178 C2181 1.387 . S
H2179 C2175 0.950 . S
H2180 C2177 0.950 . S
C2181 C2172 1.390 . S
C2181 H2174 0.950 . S
C2181 C2178 1.387 . S
C2182 C2183 1.387 . S
C2182 H2186 0.950 . S
C2182 C2191 1.390 . S
C2183 C2182 1.387 . S
C2183 C2185 1.387 . S
H2184 C2191 0.950 . S
C2185 C2183 1.387 . S
C2185 C2187 1.390 . S
C2185 H2189 0.950 . S
H2186 C2182 0.950 . S
C2187 C2185 1.390 . S
C2187 C2188 1.387 . S
C2187 H2190 0.950 . S
C2188 C2187 1.387 . S
C2188 C2191 1.387 . S
H2189 C2185 0.950 . S
H2190 C2187 0.950 . S
C2191 C2182 1.390 . S
C2191 H2184 0.950 . S
C2191 C2188 1.387 . S
C2192 C2193 1.387 . S
C2192 H2196 0.950 . S
C2192 C2201 1.390 . S
C2193 C2192 1.387 . S
C2193 C2195 1.387 . S
H2194 C2201 0.950 . S
C2195 C2193 1.387 . S
C2195 C2197 1.390 . S
C2195 H2199 0.950 . S
H2196 C2192 0.950 . S
C2197 C2195 1.390 . S
C2197 C2198 1.387 . S
C2197 H2200 0.950 . S
C2198 C2197 1.387 . S
C2198 C2201 1.387 . S
H2199 C2195 0.950 . S
H2200 C2197 0.950 . S
C2201 C2192 1.390 . S
C2201 H2194 0.950 . S
C2201 C2198 1.387 . S
C2202 C2203 1.387 . S
C2202 H2206 0.950 . S
C2202 C2211 1.390 . S
C2203 C2202 1.387 . S
C2203 C2205 1.387 . S
H2204 C2211 0.950 . S
C2205 C2203 1.387 . S
C2205 C2207 1.390 . S
C2205 H2209 0.950 . S
H2206 C2202 0.950 . S
C2207 C2205 1.390 . S
C2207 C2208 1.387 . S
C2207 H2210 0.950 . S
C2208 C2207 1.387 . S
C2208 C2211 1.387 . S
H2209 C2205 0.950 . S
H2210 C2207 0.950 . S
C2211 C2202 1.390 . S
C2211 H2204 0.950 . S
C2211 C2208 1.387 . S
C2212 C2213 1.387 . S
C2212 H2216 0.950 . S
C2212 C2221 1.390 . S
C2213 C2212 1.387 . S
C2213 C2215 1.387 . S
H2214 C2221 0.950 . S
C2215 C2213 1.387 . S
C2215 C2217 1.390 . S
C2215 H2219 0.950 . S
H2216 C2212 0.950 . S
C2217 C2215 1.390 . S
C2217 C2218 1.387 . S
C2217 H2220 0.950 . S
C2218 C2217 1.387 . S
C2218 C2221 1.387 . S
H2219 C2215 0.950 . S
H2220 C2217 0.950 . S
C2221 C2212 1.390 . S
C2221 H2214 0.950 . S
C2221 C2218 1.387 . S
C2222 C2223 1.387 . S
C2222 H2226 0.950 . S
C2222 C2231 1.390 . S
C2223 C2222 1.387 . S
C2223 C2225 1.387 . S
H2224 C2231 0.950 . S
C2225 C2223 1.387 . S
C2225 C2227 1.390 . S
C2225 H2229 0.950 . S
H2226 C2222 0.950 . S
C2227 C2225 1.390 . S
C2227 C2228 1.387 . S
C2227 H2230 0.950 . S
C2228 C2227 1.387 . S
C2228 C2231 1.387 . S
H2229 C2225 0.950 . S
H2230 C2227 0.950 . S
C2231 C2222 1.390 . S
C2231 H2224 0.950 . S
C2231 C2228 1.387 . S
C2232 C2233 1.387 . S
C2232 H2236 0.950 . S
C2232 C2241 1.390 . S
C2233 C2232 1.387 . S
C2233 C2235 1.387 . S
H2234 C2241 0.950 . S
C2235 C2233 1.387 . S
C2235 C2237 1.390 . S
C2235 H2239 0.950 . S
H2236 C2232 0.950 . S
C2237 C2235 1.390 . S
C2237 C2238 1.387 . S
C2237 H2240 0.950 . S
C2238 C2237 1.387 . S
C2238 C2241 1.387 . S
H2239 C2235 0.950 . S
H2240 C2237 0.950 . S
C2241 C2232 1.390 . S
C2241 H2234 0.950 . S
C2241 C2238 1.387 . S
C2242 C2243 1.387 . S
C2242 H2246 0.950 . S
C2242 C2251 1.390 . S
C2243 C2242 1.387 . S
C2243 C2245 1.387 . S
H2244 C2251 0.950 . S
C2245 C2243 1.387 . S
C2245 C2247 1.390 . S
C2245 H2249 0.950 . S
H2246 C2242 0.950 . S
C2247 C2245 1.390 . S
C2247 C2248 1.387 . S
C2247 H2250 0.950 . S
C2248 C2247 1.387 . S
C2248 C2251 1.387 . S
H2249 C2245 0.950 . S
H2250 C2247 0.950 . S
C2251 C2242 1.390 . S
C2251 H2244 0.950 . S
C2251 C2248 1.387 . S
C2252 C2253 1.387 1_545 S
C2252 H2256 0.950 . S
C2252 C2261 1.390 . S
C2253 C2252 1.387 1_565 S
C2253 C2255 1.387 . S
H2254 C2261 0.950 . S
C2255 C2253 1.387 . S
C2255 C2257 1.390 . S
C2255 H2259 0.950 . S
H2256 C2252 0.950 . S
C2257 C2255 1.390 . S
C2257 C2258 1.387 . S
C2257 H2260 0.950 . S
C2258 C2257 1.387 . S
C2258 C2261 1.387 1_565 S
H2259 C2255 0.950 . S
H2260 C2257 0.950 . S
C2261 C2252 1.390 . S
C2261 H2254 0.950 . S
C2261 C2258 1.387 1_545 S
C2262 C2263 1.387 . S
C2262 H2266 0.950 . S
C2262 C2271 1.390 . S
C2263 C2262 1.387 . S
C2263 C2265 1.387 . S
H2264 C2271 0.950 . S
C2265 C2263 1.387 . S
C2265 C2267 1.390 . S
C2265 H2269 0.950 . S
H2266 C2262 0.950 . S
C2267 C2265 1.390 . S
C2267 C2268 1.387 . S
C2267 H2270 0.950 . S
C2268 C2267 1.387 . S
C2268 C2271 1.387 . S
H2269 C2265 0.950 . S
H2270 C2267 0.950 . S
C2271 C2262 1.390 . S
C2271 H2264 0.950 . S
C2271 C2268 1.387 . S
C2272 C2273 1.387 . S
C2272 H2276 0.950 . S
C2272 C2281 1.390 . S
C2273 C2272 1.387 . S
C2273 C2275 1.387 1_556 S
H2274 C2281 0.950 . S
C2275 C2273 1.387 1_554 S
C2275 C2277 1.390 . S
C2275 H2279 0.950 . S
H2276 C2272 0.950 . S
C2277 C2275 1.390 . S
C2277 C2278 1.387 1_554 S
C2277 H2280 0.950 . S
C2278 C2277 1.387 1_556 S
C2278 C2281 1.387 . S
H2279 C2275 0.950 . S
H2280 C2277 0.950 . S
C2281 C2272 1.390 . S
C2281 H2274 0.950 . S
C2281 C2278 1.387 . S
C2282 C2283 1.387 . S
C2282 H2286 0.950 . S
C2282 C2291 1.390 . S
C2283 C2282 1.387 . S
C2283 C2285 1.387 . S
H2284 C2291 0.950 . S
C2285 C2283 1.387 . S
C2285 C2287 1.390 . S
C2285 H2289 0.950 . S
H2286 C2282 0.950 . S
C2287 C2285 1.390 . S
C2287 C2288 1.387 . S
C2287 H2290 0.950 . S
C2288 C2287 1.387 . S
C2288 C2291 1.387 . S
H2289 C2285 0.950 . S
H2290 C2287 0.950 . S
C2291 C2282 1.390 . S
C2291 H2284 0.950 . S
C2291 C2288 1.387 . S
C2292 C2293 1.387 . S
C2292 H2296 0.950 . S
C2292 C2301 1.390 . S
C2293 C2292 1.387 . S
C2293 C2295 1.387 . S
H2294 C2301 0.950 . S
C2295 C2293 1.387 . S
C2295 C2297 1.390 . S
C2295 H2299 0.950 . S
H2296 C2292 0.950 . S
C2297 C2295 1.390 . S
C2297 C2298 1.387 . S
C2297 H2300 0.950 . S
C2298 C2297 1.387 . S
C2298 C2301 1.387 . S
H2299 C2295 0.950 . S
H2300 C2297 0.950 . S
C2301 C2292 1.390 . S
C2301 H2294 0.950 . S
C2301 C2298 1.387 . S
C2302 C2303 1.387 . S
C2302 H2306 0.950 . S
C2302 C2311 1.390 . S
C2303 C2302 1.387 . S
C2303 C2305 1.387 . S
H2304 C2311 0.950 . S
C2305 C2303 1.387 . S
C2305 C2307 1.390 . S
C2305 H2309 0.950 . S
H2306 C2302 0.950 . S
C2307 C2305 1.390 . S
C2307 C2308 1.387 . S
C2307 H2310 0.950 . S
C2308 C2307 1.387 . S
C2308 C2311 1.387 . S
H2309 C2305 0.950 . S
H2310 C2307 0.950 . S
C2311 C2302 1.390 . S
C2311 H2304 0.950 . S
C2311 C2308 1.387 . S
C2312 C2313 1.387 . S
C2312 H2316 0.950 . S
C2312 C2321 1.390 . S
C2313 C2312 1.387 . S
C2313 C2315 1.387 . S
H2314 C2321 0.950 . S
C2315 C2313 1.387 . S
C2315 C2317 1.390 . S
C2315 H2319 0.950 . S
H2316 C2312 0.950 . S
C2317 C2315 1.390 . S
C2317 C2318 1.387 . S
C2317 H2320 0.950 . S
C2318 C2317 1.387 . S
C2318 C2321 1.387 . S
H2319 C2315 0.950 . S
H2320 C2317 0.950 . S
C2321 C2312 1.390 . S
C2321 H2314 0.950 . S
C2321 C2318 1.387 . S
C2322 C2323 1.387 . S
C2322 H2326 0.950 . S
C2322 C2331 1.390 . S
C2323 C2322 1.387 . S
C2323 C2325 1.387 1_556 S
H2324 C2331 0.950 . S
C2325 C2323 1.387 1_554 S
C2325 C2327 1.390 . S
C2325 H2329 0.950 . S
H2326 C2322 0.950 . S
C2327 C2325 1.390 . S
C2327 C2328 1.387 1_554 S
C2327 H2330 0.950 . S
C2328 C2327 1.387 1_556 S
C2328 C2331 1.387 . S
H2329 C2325 0.950 . S
H2330 C2327 0.950 . S
C2331 C2322 1.390 . S
C2331 H2324 0.950 . S
C2331 C2328 1.387 . S
C2332 C2333 1.387 . S
C2332 H2336 0.950 . S
C2332 C2341 1.390 . S
C2333 C2332 1.387 . S
C2333 C2335 1.387 . S
H2334 C2341 0.950 . S
C2335 C2333 1.387 . S
C2335 C2337 1.390 . S
C2335 H2339 0.950 . S
H2336 C2332 0.950 . S
C2337 C2335 1.390 . S
C2337 C2338 1.387 . S
C2337 H2340 0.950 . S
C2338 C2337 1.387 . S
C2338 C2341 1.387 . S
H2339 C2335 0.950 . S
H2340 C2337 0.950 . S
C2341 C2332 1.390 . S
C2341 H2334 0.950 . S
C2341 C2338 1.387 . S
C2342 C2343 1.387 . S
C2342 H2346 0.950 . S
C2342 C2351 1.390 . S
C2343 C2342 1.387 . S
C2343 C2345 1.387 . S
H2344 C2351 0.950 . S
C2345 C2343 1.387 . S
C2345 C2347 1.390 . S
C2345 H2349 0.950 . S
H2346 C2342 0.950 . S
C2347 C2345 1.390 . S
C2347 C2348 1.387 . S
C2347 H2350 0.950 . S
C2348 C2347 1.387 . S
C2348 C2351 1.387 . S
H2349 C2345 0.950 . S
H2350 C2347 0.950 . S
C2351 C2342 1.390 . S
C2351 H2344 0.950 . S
C2351 C2348 1.387 . S
C2352 C2353 1.387 1_655 S
C2352 H2356 0.950 . S
C2352 C2361 1.390 . S
C2353 C2352 1.387 1_455 S
C2353 C2355 1.387 . S
H2354 C2361 0.950 . S
C2355 C2353 1.387 . S
C2355 C2357 1.390 . S
C2355 H2359 0.950 . S
H2356 C2352 0.950 . S
C2357 C2355 1.390 . S
C2357 C2358 1.387 . S
C2357 H2360 0.950 . S
C2358 C2357 1.387 . S
C2358 C2361 1.387 1_455 S
H2359 C2355 0.950 . S
H2360 C2357 0.950 . S
C2361 C2352 1.390 . S
C2361 H2354 0.950 . S
C2361 C2358 1.387 1_655 S
C2362 C2363 1.387 . S
C2362 H2366 0.950 . S
C2362 C2371 1.390 . S
C2363 C2362 1.387 . S
C2363 C2365 1.387 1_545 S
H2364 C2371 0.950 . S
C2365 C2363 1.387 1_565 S
C2365 C2367 1.390 . S
C2365 H2369 0.950 . S
H2366 C2362 0.950 . S
C2367 C2365 1.390 . S
C2367 C2368 1.387 1_565 S
C2367 H2370 0.950 . S
C2368 C2367 1.387 1_545 S
C2368 C2371 1.387 . S
H2369 C2365 0.950 . S
H2370 C2367 0.950 . S
C2371 C2362 1.390 . S
C2371 H2364 0.950 . S
C2371 C2368 1.387 . S
C2372 C2373 1.387 . S
C2372 H2376 0.950 . S
C2372 C2381 1.390 . S
C2373 C2372 1.387 . S
C2373 C2375 1.387 . S
H2374 C2381 0.950 . S
C2375 C2373 1.387 . S
C2375 C2377 1.390 . S
C2375 H2379 0.950 . S
H2376 C2372 0.950 . S
C2377 C2375 1.390 . S
C2377 C2378 1.387 . S
C2377 H2380 0.950 . S
C2378 C2377 1.387 . S
C2378 C2381 1.387 . S
H2379 C2375 0.950 . S
H2380 C2377 0.950 . S
C2381 C2372 1.390 . S
C2381 H2374 0.950 . S
C2381 C2378 1.387 . S
C2382 C2383 1.387 . S
C2382 H2386 0.950 . S
C2382 C2391 1.390 . S
C2383 C2382 1.387 . S
C2383 C2385 1.387 . S
H2384 C2391 0.950 . S
C2385 C2383 1.387 . S
C2385 C2387 1.390 . S
C2385 H2389 0.950 . S
H2386 C2382 0.950 . S
C2387 C2385 1.390 . S
C2387 C2388 1.387 . S
C2387 H2390 0.950 . S
C2388 C2387 1.387 . S
C2388 C2391 1.387 . S
H2389 C2385 0.950 . S
H2390 C2387 0.950 . S
C2391 C2382 1.390 . S
C2391 H2384 0.950 . S
C2391 C2388 1.387 . S
C2392 C2393 1.387 . S
C2392 H2396 0.950 . S
C2392 C2401 1.390 . S
C2393 C2392 1.387 . S
C2393 C2395 1.387 1_455 S
H2394 C2401 0.950 . S
C2395 C2393 1.387 1_655 S
C2395 C2397 1.390 . S
C2395 H2399 0.950 . S
H2396 C2392 0.950 . S
C2397 C2395 1.390 . S
C2397 C2398 1.387 1_655 S
C2397 H2400 0.950 . S
C2398 C2397 1.387 1_455 S
C2398 C2401 1.387 . S
H2399 C2395 0.950 . S
H2400 C2397 0.950 . S
C2401 C2392 1.390 . S
C2401 H2394 0.950 . S
C2401 C2398 1.387 . S
C2402 C2403 1.387 . S
C2402 H2406 0.950 . S
C2402 C2411 1.390 . S
C2403 C2402 1.387 . S
C2403 C2405 1.387 1_545 S
H2404 C2411 0.950 . S
C2405 C2403 1.387 1_565 S
C2405 C2407 1.390 . S
C2405 H2409 0.950 . S
H2406 C2402 0.950 . S
C2407 C2405 1.390 . S
C2407 C2408 1.387 1_565 S
C2407 H2410 0.950 . S
C2408 C2407 1.387 1_545 S
C2408 C2411 1.387 . S
H2409 C2405 0.950 . S
H2410 C2407 0.950 . S
C2411 C2402 1.390 . S
C2411 H2404 0.950 . S
C2411 C2408 1.387 . S
C2412 C2413 1.387 . S
C2412 H2416 0.950 . S
C2412 C2421 1.390 . S
C2413 C2412 1.387 . S
C2413 C2415 1.387 . S
H2414 C2421 0.950 . S
C2415 C2413 1.387 . S
C2415 C2417 1.390 . S
C2415 H2419 0.950 . S
H2416 C2412 0.950 . S
C2417 C2415 1.390 . S
C2417 C2418 1.387 . S
C2417 H2420 0.950 . S
C2418 C2417 1.387 . S
C2418 C2421 1.387 . S
H2419 C2415 0.950 . S
H2420 C2417 0.950 . S
C2421 C2412 1.390 . S
C2421 H2414 0.950 . S
C2421 C2418 1.387 . S
C2422 C2423 1.387 . S
C2422 H2426 0.950 . S
C2422 C2431 1.390 . S
C2423 C2422 1.387 . S
C2423 C2425 1.387 . S
H2424 C2431 0.950 . S
C2425 C2423 1.387 . S
C2425 C2427 1.390 . S
C2425 H2429 0.950 . S
H2426 C2422 0.950 . S
C2427 C2425 1.390 . S
C2427 C2428 1.387 . S
C2427 H2430 0.950 . S
C2428 C2427 1.387 . S
C2428 C2431 1.387 . S
H2429 C2425 0.950 . S
H2430 C2427 0.950 . S
C2431 C2422 1.390 . S
C2431 H2424 0.950 . S
C2431 C2428 1.387 . S
C2432 C2433 1.387 . S
C2432 H2436 0.950 . S
C2432 C2441 1.390 . S
C2433 C2432 1.387 . S
C2433 C2435 1.387 1_545 S
H2434 C2441 0.950 . S
C2435 C2433 1.387 1_565 S
C2435 C2437 1.390 . S
C2435 H2439 0.950 . S
H2436 C2432 0.950 . S
C2437 C2435 1.390 . S
C2437 C2438 1.387 1_565 S
C2437 H2440 0.950 . S
C2438 C2437 1.387 1_545 S
C2438 C2441 1.387 . S
H2439 C2435 0.950 . S
H2440 C2437 0.950 . S
C2441 C2432 1.390 . S
C2441 H2434 0.950 . S
C2441 C2438 1.387 . S
C2442 C2443 1.387 . S
C2442 H2446 0.950 . S
C2442 C2451 1.390 . S
C2443 C2442 1.387 . S
C2443 C2445 1.387 . S
H2444 C2451 0.950 . S
C2445 C2443 1.387 . S
C2445 C2447 1.390 . S
C2445 H2449 0.950 . S
H2446 C2442 0.950 . S
C2447 C2445 1.390 . S
C2447 C2448 1.387 . S
C2447 H2450 0.950 . S
C2448 C2447 1.387 . S
C2448 C2451 1.387 . S
H2449 C2445 0.950 . S
H2450 C2447 0.950 . S
C2451 C2442 1.390 . S
C2451 H2444 0.950 . S
C2451 C2448 1.387 . S
C2452 C2453 1.387 . S
C2452 H2456 0.950 . S
C2452 C2461 1.390 . S
C2453 C2452 1.387 . S
C2453 C2455 1.387 . S
H2454 C2461 0.950 . S
C2455 C2453 1.387 . S
C2455 C2457 1.390 . S
C2455 H2459 0.950 . S
H2456 C2452 0.950 . S
C2457 C2455 1.390 . S
C2457 C2458 1.387 . S
C2457 H2460 0.950 . S
C2458 C2457 1.387 . S
C2458 C2461 1.387 . S
H2459 C2455 0.950 . S
H2460 C2457 0.950 . S
C2461 C2452 1.390 . S
C2461 H2454 0.950 . S
C2461 C2458 1.387 . S
C2462 C2463 1.387 . S
C2462 H2466 0.950 . S
C2462 C2471 1.390 . S
C2463 C2462 1.387 . S
C2463 C2465 1.387 1_455 S
H2464 C2471 0.950 . S
C2465 C2463 1.387 1_655 S
C2465 C2467 1.390 . S
C2465 H2469 0.950 . S
H2466 C2462 0.950 . S
C2467 C2465 1.390 . S
C2467 C2468 1.387 1_655 S
C2467 H2470 0.950 . S
C2468 C2467 1.387 1_455 S
C2468 C2471 1.387 . S
H2469 C2465 0.950 . S
H2470 C2467 0.950 . S
C2471 C2462 1.390 . S
C2471 H2464 0.950 . S
C2471 C2468 1.387 . S
C2472 C2473 1.387 . S
C2472 H2476 0.950 . S
C2472 C2481 1.390 . S
C2473 C2472 1.387 . S
C2473 C2475 1.387 . S
H2474 C2481 0.950 . S
C2475 C2473 1.387 . S
C2475 C2477 1.390 . S
C2475 H2479 0.950 . S
H2476 C2472 0.950 . S
C2477 C2475 1.390 . S
C2477 C2478 1.387 . S
C2477 H2480 0.950 . S
C2478 C2477 1.387 . S
C2478 C2481 1.387 . S
H2479 C2475 0.950 . S
H2480 C2477 0.950 . S
C2481 C2472 1.390 . S
C2481 H2474 0.950 . S
C2481 C2478 1.387 . S
C2482 C2483 1.387 . S
C2482 H2486 0.950 1_455 S
C2482 C2491 1.390 1_455 S
C2483 C2482 1.387 . S
C2483 C2485 1.387 . S
H2484 C2491 0.950 . S
C2485 C2483 1.387 . S
C2485 C2487 1.390 . S
C2485 H2489 0.950 . S
H2486 C2482 0.950 1_655 S
C2487 C2485 1.390 . S
C2487 C2488 1.387 . S
C2487 H2490 0.950 . S
C2488 C2487 1.387 . S
C2488 C2491 1.387 1_455 S
H2489 C2485 0.950 . S
H2490 C2487 0.950 . S
C2491 C2482 1.390 1_655 S
C2491 H2484 0.950 . S
C2491 C2488 1.387 1_655 S
C2492 C2493 1.387 . S
C2492 H2496 0.950 . S
C2492 C2501 1.390 . S
C2493 C2492 1.387 . S
C2493 C2495 1.387 1_545 S
H2494 C2501 0.950 . S
C2495 C2493 1.387 1_565 S
C2495 C2497 1.390 . S
C2495 H2499 0.950 . S
H2496 C2492 0.950 . S
C2497 C2495 1.390 . S
C2497 C2498 1.387 1_565 S
C2497 H2500 0.950 . S
C2498 C2497 1.387 1_545 S
C2498 C2501 1.387 . S
H2499 C2495 0.950 . S
H2500 C2497 0.950 . S
C2501 C2492 1.390 . S
C2501 H2494 0.950 . S
C2501 C2498 1.387 . S
C2502 C2503 1.387 . S
C2502 H2506 0.950 . S
C2502 C2511 1.390 . S
C2503 C2502 1.387 . S
C2503 C2505 1.387 . S
H2504 C2511 0.950 . S
C2505 C2503 1.387 . S
C2505 C2507 1.390 . S
C2505 H2509 0.950 . S
H2506 C2502 0.950 . S
C2507 C2505 1.390 . S
C2507 C2508 1.387 . S
C2507 H2510 0.950 . S
C2508 C2507 1.387 . S
C2508 C2511 1.387 . S
H2509 C2505 0.950 . S
H2510 C2507 0.950 . S
C2511 C2502 1.390 . S
C2511 H2504 0.950 . S
C2511 C2508 1.387 . S
C2512 C2513 1.387 1_556 S
C2512 H2516 0.950 . S
C2512 C2521 1.390 . S
C2513 C2512 1.387 1_554 S
C2513 C2515 1.387 . S
H2514 C2521 0.950 . S
C2515 C2513 1.387 . S
C2515 C2517 1.390 . S
C2515 H2519 0.950 . S
H2516 C2512 0.950 . S
C2517 C2515 1.390 . S
C2517 C2518 1.387 . S
C2517 H2520 0.950 . S
C2518 C2517 1.387 . S
C2518 C2521 1.387 1_554 S
H2519 C2515 0.950 . S
H2520 C2517 0.950 . S
C2521 C2512 1.390 . S
C2521 H2514 0.950 . S
C2521 C2518 1.387 1_556 S
C2522 C2523 1.387 . S
C2522 H2526 0.950 . S
C2522 C2531 1.390 . S
C2523 C2522 1.387 . S
C2523 C2525 1.387 . S
H2524 C2531 0.950 . S
C2525 C2523 1.387 . S
C2525 C2527 1.390 . S
C2525 H2529 0.950 . S
H2526 C2522 0.950 . S
C2527 C2525 1.390 . S
C2527 C2528 1.387 . S
C2527 H2530 0.950 . S
C2528 C2527 1.387 . S
C2528 C2531 1.387 . S
H2529 C2525 0.950 . S
H2530 C2527 0.950 . S
C2531 C2522 1.390 . S
C2531 H2524 0.950 . S
C2531 C2528 1.387 . S
C2532 C2533 1.387 . S
C2532 H2536 0.950 . S
C2532 C2541 1.390 . S
C2533 C2532 1.387 . S
C2533 C2535 1.387 . S
H2534 C2541 0.950 . S
C2535 C2533 1.387 . S
C2535 C2537 1.390 . S
C2535 H2539 0.950 . S
H2536 C2532 0.950 . S
C2537 C2535 1.390 . S
C2537 C2538 1.387 . S
C2537 H2540 0.950 . S
C2538 C2537 1.387 . S
C2538 C2541 1.387 . S
H2539 C2535 0.950 . S
H2540 C2537 0.950 . S
C2541 C2532 1.390 . S
C2541 H2534 0.950 . S
C2541 C2538 1.387 . S
C2542 C2543 1.387 . S
C2542 H2546 0.950 . S
C2542 C2551 1.390 . S
C2543 C2542 1.387 . S
C2543 C2545 1.387 . S
H2544 C2551 0.950 . S
C2545 C2543 1.387 . S
C2545 C2547 1.390 . S
C2545 H2549 0.950 . S
H2546 C2542 0.950 . S
C2547 C2545 1.390 . S
C2547 C2548 1.387 . S
C2547 H2550 0.950 . S
C2548 C2547 1.387 . S
C2548 C2551 1.387 . S
H2549 C2545 0.950 . S
H2550 C2547 0.950 . S
C2551 C2542 1.390 . S
C2551 H2544 0.950 . S
C2551 C2548 1.387 . S
C2552 C2553 1.387 . S
C2552 H2556 0.950 . S
C2552 C2561 1.390 . S
C2553 C2552 1.387 . S
C2553 C2555 1.387 . S
H2554 C2561 0.950 . S
C2555 C2553 1.387 . S
C2555 C2557 1.390 . S
C2555 H2559 0.950 . S
H2556 C2552 0.950 . S
C2557 C2555 1.390 . S
C2557 C2558 1.387 . S
C2557 H2560 0.950 . S
C2558 C2557 1.387 . S
C2558 C2561 1.387 . S
H2559 C2555 0.950 . S
H2560 C2557 0.950 . S
C2561 C2552 1.390 . S
C2561 H2554 0.950 . S
C2561 C2558 1.387 . S
C2562 C2563 1.387 . S
C2562 H2566 0.950 . S
C2562 C2571 1.390 . S
C2563 C2562 1.387 . S
C2563 C2565 1.387 1_554 S
H2564 C2571 0.950 . S
C2565 C2563 1.387 1_556 S
C2565 C2567 1.390 . S
C2565 H2569 0.950 . S
H2566 C2562 0.950 . S
C2567 C2565 1.390 . S
C2567 C2568 1.387 1_556 S
C2567 H2570 0.950 . S
C2568 C2567 1.387 1_554 S
C2568 C2571 1.387 . S
H2569 C2565 0.950 . S
H2570 C2567 0.950 . S
C2571 C2562 1.390 . S
C2571 H2564 0.950 . S
C2571 C2568 1.387 . S
C2572 C2573 1.387 1_556 S
C2572 H2576 0.950 . S
C2572 C2581 1.390 . S
C2573 C2572 1.387 1_554 S
C2573 C2575 1.387 . S
H2574 C2581 0.950 . S
C2575 C2573 1.387 . S
C2575 C2577 1.390 . S
C2575 H2579 0.950 . S
H2576 C2572 0.950 . S
C2577 C2575 1.390 . S
C2577 C2578 1.387 . S
C2577 H2580 0.950 . S
C2578 C2577 1.387 . S
C2578 C2581 1.387 1_554 S
H2579 C2575 0.950 . S
H2580 C2577 0.950 . S
C2581 C2572 1.390 . S
C2581 H2574 0.950 . S
C2581 C2578 1.387 1_556 S
C2582 C2583 1.387 1_556 S
C2582 H2586 0.950 . S
C2582 C2591 1.390 . S
C2583 C2582 1.387 1_554 S
C2583 C2585 1.387 . S
H2584 C2591 0.950 . S
C2585 C2583 1.387 . S
C2585 C2587 1.390 . S
C2585 H2589 0.950 . S
H2586 C2582 0.950 . S
C2587 C2585 1.390 . S
C2587 C2588 1.387 . S
C2587 H2590 0.950 . S
C2588 C2587 1.387 . S
C2588 C2591 1.387 1_554 S
H2589 C2585 0.950 . S
H2590 C2587 0.950 . S
C2591 C2582 1.390 . S
C2591 H2584 0.950 . S
C2591 C2588 1.387 1_556 S
C2592 C2593 1.387 . S
C2592 H2596 0.950 . S
C2592 C2601 1.390 . S
C2593 C2592 1.387 . S
C2593 C2595 1.387 . S
H2594 C2601 0.950 . S
C2595 C2593 1.387 . S
C2595 C2597 1.390 . S
C2595 H2599 0.950 . S
H2596 C2592 0.950 . S
C2597 C2595 1.390 . S
C2597 C2598 1.387 . S
C2597 H2600 0.950 . S
C2598 C2597 1.387 . S
C2598 C2601 1.387 . S
H2599 C2595 0.950 . S
H2600 C2597 0.950 . S
C2601 C2592 1.390 . S
C2601 H2594 0.950 . S
C2601 C2598 1.387 . S
C2602 C2603 1.387 . S
C2602 H2606 0.950 . S
C2602 C2611 1.390 . S
C2603 C2602 1.387 . S
C2603 C2605 1.387 . S
H2604 C2611 0.950 . S
C2605 C2603 1.387 . S
C2605 C2607 1.390 . S
C2605 H2609 0.950 . S
H2606 C2602 0.950 . S
C2607 C2605 1.390 . S
C2607 C2608 1.387 . S
C2607 H2610 0.950 . S
C2608 C2607 1.387 . S
C2608 C2611 1.387 . S
H2609 C2605 0.950 . S
H2610 C2607 0.950 . S
C2611 C2602 1.390 . S
C2611 H2604 0.950 . S
C2611 C2608 1.387 . S
C2612 C2613 1.387 . S
C2612 H2616 0.950 . S
C2612 C2621 1.390 . S
C2613 C2612 1.387 . S
C2613 C2615 1.387 . S
H2614 C2621 0.950 . S
C2615 C2613 1.387 . S
C2615 C2617 1.390 . S
C2615 H2619 0.950 . S
H2616 C2612 0.950 . S
C2617 C2615 1.390 . S
C2617 C2618 1.387 . S
C2617 H2620 0.950 . S
C2618 C2617 1.387 . S
C2618 C2621 1.387 . S
H2619 C2615 0.950 . S
H2620 C2617 0.950 . S
C2621 C2612 1.390 . S
C2621 H2614 0.950 . S
C2621 C2618 1.387 . S
C2622 C2623 1.387 . S
C2622 H2626 0.950 . S
C2622 C2631 1.390 . S
C2623 C2622 1.387 . S
C2623 C2625 1.387 . S
H2624 C2631 0.950 . S
C2625 C2623 1.387 . S
C2625 C2627 1.390 . S
C2625 H2629 0.950 . S
H2626 C2622 0.950 . S
C2627 C2625 1.390 . S
C2627 C2628 1.387 . S
C2627 H2630 0.950 . S
C2628 C2627 1.387 . S
C2628 C2631 1.387 . S
H2629 C2625 0.950 . S
H2630 C2627 0.950 . S
C2631 C2622 1.390 . S
C2631 H2624 0.950 . S
C2631 C2628 1.387 . S
C2632 C2633 1.387 . S
C2632 H2636 0.950 . S
C2632 C2641 1.390 . S
C2633 C2632 1.387 . S
C2633 C2635 1.387 . S
H2634 C2641 0.950 . S
C2635 C2633 1.387 . S
C2635 C2637 1.390 . S
C2635 H2639 0.950 . S
H2636 C2632 0.950 . S
C2637 C2635 1.390 . S
C2637 C2638 1.387 . S
C2637 H2640 0.950 . S
C2638 C2637 1.387 . S
C2638 C2641 1.387 . S
H2639 C2635 0.950 . S
H2640 C2637 0.950 . S
C2641 C2632 1.390 . S
C2641 H2634 0.950 . S
C2641 C2638 1.387 . S
C2642 C2643 1.387 . S
C2642 H2646 0.950 . S
C2642 C2651 1.390 . S
C2643 C2642 1.387 . S
C2643 C2645 1.387 . S
H2644 C2651 0.950 . S
C2645 C2643 1.387 . S
C2645 C2647 1.390 . S
C2645 H2649 0.950 . S
H2646 C2642 0.950 . S
C2647 C2645 1.390 . S
C2647 C2648 1.387 . S
C2647 H2650 0.950 . S
C2648 C2647 1.387 . S
C2648 C2651 1.387 . S
H2649 C2645 0.950 . S
H2650 C2647 0.950 . S
C2651 C2642 1.390 . S
C2651 H2644 0.950 . S
C2651 C2648 1.387 . S
C2652 C2653 1.387 . S
C2652 H2656 0.950 . S
C2652 C2661 1.390 . S
C2653 C2652 1.387 . S
C2653 C2655 1.387 . S
H2654 C2661 0.950 . S
C2655 C2653 1.387 . S
C2655 C2657 1.390 . S
C2655 H2659 0.950 . S
H2656 C2652 0.950 . S
C2657 C2655 1.390 . S
C2657 C2658 1.387 . S
C2657 H2660 0.950 . S
C2658 C2657 1.387 . S
C2658 C2661 1.387 . S
H2659 C2655 0.950 . S
H2660 C2657 0.950 . S
C2661 C2652 1.390 . S
C2661 H2654 0.950 . S
C2661 C2658 1.387 . S
C2662 C2663 1.387 . S
C2662 H2666 0.950 . S
C2662 C2671 1.390 . S
C2663 C2662 1.387 . S
C2663 C2665 1.387 . S
H2664 C2671 0.950 . S
C2665 C2663 1.387 . S
C2665 C2667 1.390 . S
C2665 H2669 0.950 . S
H2666 C2662 0.950 . S
C2667 C2665 1.390 . S
C2667 C2668 1.387 . S
C2667 H2670 0.950 . S
C2668 C2667 1.387 . S
C2668 C2671 1.387 . S
H2669 C2665 0.950 . S
H2670 C2667 0.950 . S
C2671 C2662 1.390 . S
C2671 H2664 0.950 . S
C2671 C2668 1.387 . S
C2672 C2673 1.387 . S
C2672 H2676 0.950 . S
C2672 C2681 1.390 . S
C2673 C2672 1.387 . S
C2673 C2675 1.387 . S
H2674 C2681 0.950 . S
C2675 C2673 1.387 . S
C2675 C2677 1.390 . S
C2675 H2679 0.950 . S
H2676 C2672 0.950 . S
C2677 C2675 1.390 . S
C2677 C2678 1.387 . S
C2677 H2680 0.950 . S
C2678 C2677 1.387 . S
C2678 C2681 1.387 . S
H2679 C2675 0.950 . S
H2680 C2677 0.950 . S
C2681 C2672 1.390 . S
C2681 H2674 0.950 . S
C2681 C2678 1.387 . S
C2682 C2683 1.387 . S
C2682 H2686 0.950 . S
C2682 C2691 1.390 . S
C2683 C2682 1.387 . S
C2683 C2685 1.387 . S
H2684 C2691 0.950 . S
C2685 C2683 1.387 . S
C2685 C2687 1.390 . S
C2685 H2689 0.950 . S
H2686 C2682 0.950 . S
C2687 C2685 1.390 . S
C2687 C2688 1.387 . S
C2687 H2690 0.950 . S
C2688 C2687 1.387 . S
C2688 C2691 1.387 . S
H2689 C2685 0.950 . S
H2690 C2687 0.950 . S
C2691 C2682 1.390 . S
C2691 H2684 0.950 . S
C2691 C2688 1.387 . S
C2692 C2693 1.387 . S
C2692 H2696 0.950 . S
C2692 C2701 1.390 . S
C2693 C2692 1.387 . S
C2693 C2695 1.387 . S
H2694 C2701 0.950 . S
C2695 C2693 1.387 . S
C2695 C2697 1.390 . S
C2695 H2699 0.950 . S
H2696 C2692 0.950 . S
C2697 C2695 1.390 . S
C2697 C2698 1.387 . S
C2697 H2700 0.950 . S
C2698 C2697 1.387 . S
C2698 C2701 1.387 . S
H2699 C2695 0.950 . S
H2700 C2697 0.950 . S
C2701 C2692 1.390 . S
C2701 H2694 0.950 . S
C2701 C2698 1.387 . S
C2702 C2703 1.387 . S
C2702 H2706 0.950 . S
C2702 C2711 1.390 . S
C2703 C2702 1.387 . S
C2703 C2705 1.387 . S
H2704 C2711 0.950 . S
C2705 C2703 1.387 . S
C2705 C2707 1.390 . S
C2705 H2709 0.950 . S
H2706 C2702 0.950 . S
C2707 C2705 1.390 . S
C2707 C2708 1.387 . S
C2707 H2710 0.950 . S
C2708 C2707 1.387 . S
C2708 C2711 1.387 . S
H2709 C2705 0.950 . S
H2710 C2707 0.950 . S
C2711 C2702 1.390 . S
C2711 H2704 0.950 . S
C2711 C2708 1.387 . S
C2712 C2713 1.387 . S
C2712 H2716 0.950 . S
C2712 C2721 1.390 . S
C2713 C2712 1.387 . S
C2713 C2715 1.387 . S
H2714 C2721 0.950 . S
C2715 C2713 1.387 . S
C2715 C2717 1.390 . S
C2715 H2719 0.950 . S
H2716 C2712 0.950 . S
C2717 C2715 1.390 . S
C2717 C2718 1.387 . S
C2717 H2720 0.950 . S
C2718 C2717 1.387 . S
C2718 C2721 1.387 . S
H2719 C2715 0.950 . S
H2720 C2717 0.950 . S
C2721 C2712 1.390 . S
C2721 H2714 0.950 . S
C2721 C2718 1.387 . S
C2722 C2723 1.387 . S
C2722 H2726 0.950 . S
C2722 C2731 1.390 . S
C2723 C2722 1.387 . S
C2723 C2725 1.387 . S
H2724 C2731 0.950 . S
C2725 C2723 1.387 . S
C2725 C2727 1.390 . S
C2725 H2729 0.950 . S
H2726 C2722 0.950 . S
C2727 C2725 1.390 . S
C2727 C2728 1.387 . S
C2727 H2730 0.950 . S
C2728 C2727 1.387 . S
C2728 C2731 1.387 . S
H2729 C2725 0.950 . S
H2730 C2727 0.950 . S
C2731 C2722 1.390 . S
C2731 H2724 0.950 . S
C2731 C2728 1.387 . S
C2732 C2733 1.387 . S
C2732 H2736 0.950 . S
C2732 C2741 1.390 . S
C2733 C2732 1.387 . S
C2733 C2735 1.387 . S
H2734 C2741 0.950 . S
C2735 C2733 1.387 . S
C2735 C2737 1.390 . S
C2735 H2739 0.950 . S
H2736 C2732 0.950 . S
C2737 C2735 1.390 . S
C2737 C2738 1.387 . S
C2737 H2740 0.950 . S
C2738 C2737 1.387 . S
C2738 C2741 1.387 . S
H2739 C2735 0.950 . S
H2740 C2737 0.950 . S
C2741 C2732 1.390 . S
C2741 H2734 0.950 . S
C2741 C2738 1.387 . S
C2742 C2743 1.387 . S
C2742 H2746 0.950 . S
C2742 C2751 1.390 . S
C2743 C2742 1.387 . S
C2743 C2745 1.387 . S
H2744 C2751 0.950 . S
C2745 C2743 1.387 . S
C2745 C2747 1.390 . S
C2745 H2749 0.950 . S
H2746 C2742 0.950 . S
C2747 C2745 1.390 . S
C2747 C2748 1.387 . S
C2747 H2750 0.950 . S
C2748 C2747 1.387 . S
C2748 C2751 1.387 . S
H2749 C2745 0.950 . S
H2750 C2747 0.950 . S
C2751 C2742 1.390 . S
C2751 H2744 0.950 . S
C2751 C2748 1.387 . S
C2752 C2753 1.387 . S
C2752 H2756 0.950 . S
C2752 C2761 1.390 . S
C2753 C2752 1.387 . S
C2753 C2755 1.387 . S
H2754 C2761 0.950 . S
C2755 C2753 1.387 . S
C2755 C2757 1.390 . S
C2755 H2759 0.950 . S
H2756 C2752 0.950 . S
C2757 C2755 1.390 . S
C2757 C2758 1.387 . S
C2757 H2760 0.950 . S
C2758 C2757 1.387 . S
C2758 C2761 1.387 . S
H2759 C2755 0.950 . S
H2760 C2757 0.950 . S
C2761 C2752 1.390 . S
C2761 H2754 0.950 . S
C2761 C2758 1.387 . S
C2762 C2763 1.387 . S
C2762 H2766 0.950 . S
C2762 C2771 1.390 . S
C2763 C2762 1.387 . S
C2763 C2765 1.387 . S
H2764 C2771 0.950 . S
C2765 C2763 1.387 . S
C2765 C2767 1.390 . S
C2765 H2769 0.950 . S
H2766 C2762 0.950 . S
C2767 C2765 1.390 . S
C2767 C2768 1.387 . S
C2767 H2770 0.950 . S
C2768 C2767 1.387 . S
C2768 C2771 1.387 . S
H2769 C2765 0.950 . S
H2770 C2767 0.950 . S
C2771 C2762 1.390 . S
C2771 H2764 0.950 . S
C2771 C2768 1.387 . S
C2772 C2773 1.387 . S
C2772 H2776 0.950 . S
C2772 C2781 1.390 . S
C2773 C2772 1.387 . S
C2773 C2775 1.387 . S
H2774 C2781 0.950 . S
C2775 C2773 1.387 . S
C2775 C2777 1.390 . S
C2775 H2779 0.950 . S
H2776 C2772 0.950 . S
C2777 C2775 1.390 . S
C2777 C2778 1.387 . S
C2777 H2780 0.950 . S
C2778 C2777 1.387 . S
C2778 C2781 1.387 . S
H2779 C2775 0.950 . S
H2780 C2777 0.950 . S
C2781 C2772 1.390 . S
C2781 H2774 0.950 . S
C2781 C2778 1.387 . S
C2782 C2783 1.387 . S
C2782 H2786 0.950 . S
C2782 C2791 1.390 . S
C2783 C2782 1.387 . S
C2783 C2785 1.387 . S
H2784 C2791 0.950 . S
C2785 C2783 1.387 . S
C2785 C2787 1.390 . S
C2785 H2789 0.950 . S
H2786 C2782 0.950 . S
C2787 C2785 1.390 . S
C2787 C2788 1.387 . S
C2787 H2790 0.950 . S
C2788 C2787 1.387 . S
C2788 C2791 1.387 . S
H2789 C2785 0.950 . S
H2790 C2787 0.950 . S
C2791 C2782 1.390 . S
C2791 H2784 0.950 . S
C2791 C2788 1.387 . S
C2792 C2793 1.387 . S
C2792 H2796 0.950 . S
C2792 C2801 1.390 . S
C2793 C2792 1.387 . S
C2793 C2795 1.387 . S
H2794 C2801 0.950 . S
C2795 C2793 1.387 . S
C2795 C2797 1.390 . S
C2795 H2799 0.950 . S
H2796 C2792 0.950 . S
C2797 C2795 1.390 . S
C2797 C2798 1.387 . S
C2797 H2800 0.950 . S
C2798 C2797 1.387 . S
C2798 C2801 1.387 . S
H2799 C2795 0.950 . S
H2800 C2797 0.950 . S
C2801 C2792 1.390 . S
C2801 H2794 0.950 . S
C2801 C2798 1.387 . S
C2802 C2803 1.387 . S
C2802 H2806 0.950 . S
C2802 C2811 1.390 . S
C2803 C2802 1.387 . S
C2803 C2805 1.387 . S
H2804 C2811 0.950 . S
C2805 C2803 1.387 . S
C2805 C2807 1.390 . S
C2805 H2809 0.950 . S
H2806 C2802 0.950 . S
C2807 C2805 1.390 . S
C2807 C2808 1.387 . S
C2807 H2810 0.950 . S
C2808 C2807 1.387 . S
C2808 C2811 1.387 . S
H2809 C2805 0.950 . S
H2810 C2807 0.950 . S
C2811 C2802 1.390 . S
C2811 H2804 0.950 . S
C2811 C2808 1.387 . S
C2812 C2813 1.387 . S
C2812 H2816 0.950 . S
C2812 C2821 1.390 . S
C2813 C2812 1.387 . S
C2813 C2815 1.387 . S
H2814 C2821 0.950 . S
C2815 C2813 1.387 . S
C2815 C2817 1.390 . S
C2815 H2819 0.950 . S
H2816 C2812 0.950 . S
C2817 C2815 1.390 . S
C2817 C2818 1.387 . S
C2817 H2820 0.950 . S
C2818 C2817 1.387 . S
C2818 C2821 1.387 . S
H2819 C2815 0.950 . S
H2820 C2817 0.950 . S
C2821 C2812 1.390 . S
C2821 H2814 0.950 . S
C2821 C2818 1.387 . S
C2822 C2823 1.387 . S
C2822 H2826 0.950 . S
C2822 C2831 1.390 . S
C2823 C2822 1.387 . S
C2823 C2825 1.387 . S
H2824 C2831 0.950 . S
C2825 C2823 1.387 . S
C2825 C2827 1.390 . S
C2825 H2829 0.950 . S
H2826 C2822 0.950 . S
C2827 C2825 1.390 . S
C2827 C2828 1.387 . S
C2827 H2830 0.950 . S
C2828 C2827 1.387 . S
C2828 C2831 1.387 . S
H2829 C2825 0.950 . S
H2830 C2827 0.950 . S
C2831 C2822 1.390 . S
C2831 H2824 0.950 . S
C2831 C2828 1.387 . S
C2832 C2833 1.387 . S
C2832 H2836 0.950 . S
C2832 C2841 1.390 . S
C2833 C2832 1.387 . S
C2833 C2835 1.387 . S
H2834 C2841 0.950 . S
C2835 C2833 1.387 . S
C2835 C2837 1.390 . S
C2835 H2839 0.950 . S
H2836 C2832 0.950 . S
C2837 C2835 1.390 . S
C2837 C2838 1.387 . S
C2837 H2840 0.950 . S
C2838 C2837 1.387 . S
C2838 C2841 1.387 . S
H2839 C2835 0.950 . S
H2840 C2837 0.950 . S
C2841 C2832 1.390 . S
C2841 H2834 0.950 . S
C2841 C2838 1.387 . S
C2842 C2843 1.387 . S
C2842 H2846 0.950 . S
C2842 C2851 1.390 . S
C2843 C2842 1.387 . S
C2843 C2845 1.387 . S
H2844 C2851 0.950 . S
C2845 C2843 1.387 . S
C2845 C2847 1.390 . S
C2845 H2849 0.950 . S
H2846 C2842 0.950 . S
C2847 C2845 1.390 . S
C2847 C2848 1.387 . S
C2847 H2850 0.950 . S
C2848 C2847 1.387 . S
C2848 C2851 1.387 . S
H2849 C2845 0.950 . S
H2850 C2847 0.950 . S
C2851 C2842 1.390 . S
C2851 H2844 0.950 . S
C2851 C2848 1.387 . S
C2852 C2853 1.387 . S
C2852 H2856 0.950 . S
C2852 C2861 1.390 . S
C2853 C2852 1.387 . S
C2853 C2855 1.387 . S
H2854 C2861 0.950 . S
C2855 C2853 1.387 . S
C2855 C2857 1.390 . S
C2855 H2859 0.950 . S
H2856 C2852 0.950 . S
C2857 C2855 1.390 . S
C2857 C2858 1.387 . S
C2857 H2860 0.950 . S
C2858 C2857 1.387 . S
C2858 C2861 1.387 . S
H2859 C2855 0.950 . S
H2860 C2857 0.950 . S
C2861 C2852 1.390 . S
C2861 H2854 0.950 . S
C2861 C2858 1.387 . S
C2862 C2863 1.387 . S
C2862 H2866 0.950 . S
C2862 C2871 1.390 . S
C2863 C2862 1.387 . S
C2863 C2865 1.387 . S
H2864 C2871 0.950 . S
C2865 C2863 1.387 . S
C2865 C2867 1.390 . S
C2865 H2869 0.950 . S
H2866 C2862 0.950 . S
C2867 C2865 1.390 . S
C2867 C2868 1.387 . S
C2867 H2870 0.950 . S
C2868 C2867 1.387 . S
C2868 C2871 1.387 . S
H2869 C2865 0.950 . S
H2870 C2867 0.950 . S
C2871 C2862 1.390 . S
C2871 H2864 0.950 . S
C2871 C2868 1.387 . S
C2872 C2873 1.387 . S
C2872 H2876 0.950 . S
C2872 C2881 1.390 . S
C2873 C2872 1.387 . S
C2873 C2875 1.387 . S
H2874 C2881 0.950 . S
C2875 C2873 1.387 . S
C2875 C2877 1.390 . S
C2875 H2879 0.950 . S
H2876 C2872 0.950 . S
C2877 C2875 1.390 . S
C2877 C2878 1.387 . S
C2877 H2880 0.950 . S
C2878 C2877 1.387 . S
C2878 C2881 1.387 . S
H2879 C2875 0.950 . S
H2880 C2877 0.950 . S
C2881 C2872 1.390 . S
C2881 H2874 0.950 . S
C2881 C2878 1.387 . S
C2882 C2883 1.387 . S
C2882 H2886 0.950 . S
C2882 C2891 1.390 . S
C2883 C2882 1.387 . S
C2883 C2885 1.387 . S
H2884 C2891 0.950 . S
C2885 C2883 1.387 . S
C2885 C2887 1.390 . S
C2885 H2889 0.950 . S
H2886 C2882 0.950 . S
C2887 C2885 1.390 . S
C2887 C2888 1.387 . S
C2887 H2890 0.950 . S
C2888 C2887 1.387 . S
C2888 C2891 1.387 . S
H2889 C2885 0.950 . S
H2890 C2887 0.950 . S
C2891 C2882 1.390 . S
C2891 H2884 0.950 . S
C2891 C2888 1.387 . S
C2892 C2893 1.387 . S
C2892 H2896 0.950 . S
C2892 C2901 1.390 . S
C2893 C2892 1.387 . S
C2893 C2895 1.387 . S
H2894 C2901 0.950 . S
C2895 C2893 1.387 . S
C2895 C2897 1.390 . S
C2895 H2899 0.950 . S
H2896 C2892 0.950 . S
C2897 C2895 1.390 . S
C2897 C2898 1.387 . S
C2897 H2900 0.950 . S
C2898 C2897 1.387 . S
C2898 C2901 1.387 . S
H2899 C2895 0.950 . S
H2900 C2897 0.950 . S
C2901 C2892 1.390 . S
C2901 H2894 0.950 . S
C2901 C2898 1.387 . S
C2902 C2903 1.387 . S
C2902 H2906 0.950 . S
C2902 C2911 1.390 . S
C2903 C2902 1.387 . S
C2903 C2905 1.387 . S
H2904 C2911 0.950 . S
C2905 C2903 1.387 . S
C2905 C2907 1.390 . S
C2905 H2909 0.950 . S
H2906 C2902 0.950 . S
C2907 C2905 1.390 . S
C2907 C2908 1.387 . S
C2907 H2910 0.950 . S
C2908 C2907 1.387 . S
C2908 C2911 1.387 . S
H2909 C2905 0.950 . S
H2910 C2907 0.950 . S
C2911 C2902 1.390 . S
C2911 H2904 0.950 . S
C2911 C2908 1.387 . S
C2912 C2913 1.387 . S
C2912 H2916 0.950 . S
C2912 C2921 1.390 . S
C2913 C2912 1.387 . S
C2913 C2915 1.387 . S
H2914 C2921 0.950 . S
C2915 C2913 1.387 . S
C2915 C2917 1.390 . S
C2915 H2919 0.950 . S
H2916 C2912 0.950 . S
C2917 C2915 1.390 . S
C2917 C2918 1.387 . S
C2917 H2920 0.950 . S
C2918 C2917 1.387 . S
C2918 C2921 1.387 . S
H2919 C2915 0.950 . S
H2920 C2917 0.950 . S
C2921 C2912 1.390 . S
C2921 H2914 0.950 . S
C2921 C2918 1.387 . S
C2922 C2923 1.387 . S
C2922 H2926 0.950 . S
C2922 C2931 1.390 . S
C2923 C2922 1.387 . S
C2923 C2925 1.387 . S
H2924 C2931 0.950 . S
C2925 C2923 1.387 . S
C2925 C2927 1.390 . S
C2925 H2929 0.950 . S
H2926 C2922 0.950 . S
C2927 C2925 1.390 . S
C2927 C2928 1.387 . S
C2927 H2930 0.950 . S
C2928 C2927 1.387 . S
C2928 C2931 1.387 . S
H2929 C2925 0.950 . S
H2930 C2927 0.950 . S
C2931 C2922 1.390 . S
C2931 H2924 0.950 . S
C2931 C2928 1.387 . S
C2932 C2933 1.387 . S
C2932 H2936 0.950 . S
C2932 C2941 1.390 . S
C2933 C2932 1.387 . S
C2933 C2935 1.387 . S
H2934 C2941 0.950 . S
C2935 C2933 1.387 . S
C2935 C2937 1.390 . S
C2935 H2939 0.950 . S
H2936 C2932 0.950 . S
C2937 C2935 1.390 . S
C2937 C2938 1.387 . S
C2937 H2940 0.950 . S
C2938 C2937 1.387 . S
C2938 C2941 1.387 . S
H2939 C2935 0.950 . S
H2940 C2937 0.950 . S
C2941 C2932 1.390 . S
C2941 H2934 0.950 . S
C2941 C2938 1.387 . S
C2942 C2943 1.387 . S
C2942 H2946 0.950 . S
C2942 C2951 1.390 . S
C2943 C2942 1.387 . S
C2943 C2945 1.387 . S
H2944 C2951 0.950 . S
C2945 C2943 1.387 . S
C2945 C2947 1.390 . S
C2945 H2949 0.950 . S
H2946 C2942 0.950 . S
C2947 C2945 1.390 . S
C2947 C2948 1.387 . S
C2947 H2950 0.950 . S
C2948 C2947 1.387 . S
C2948 C2951 1.387 . S
H2949 C2945 0.950 . S
H2950 C2947 0.950 . S
C2951 C2942 1.390 . S
C2951 H2944 0.950 . S
C2951 C2948 1.387 . S
C2952 C2953 1.387 . S
C2952 H2956 0.950 . S
C2952 C2961 1.390 . S
C2953 C2952 1.387 . S
C2953 C2955 1.387 . S
H2954 C2961 0.950 . S
C2955 C2953 1.387 . S
C2955 C2957 1.390 . S
C2955 H2959 0.950 . S
H2956 C2952 0.950 . S
C2957 C2955 1.390 . S
C2957 C2958 1.387 . S
C2957 H2960 0.950 . S
C2958 C2957 1.387 . S
C2958 C2961 1.387 . S
H2959 C2955 0.950 . S
H2960 C2957 0.950 . S
C2961 C2952 1.390 . S
C2961 H2954 0.950 . S
C2961 C2958 1.387 . S
C2962 C2963 1.387 . S
C2962 H2966 0.950 . S
C2962 C2971 1.390 . S
C2963 C2962 1.387 . S
C2963 C2965 1.387 . S
H2964 C2971 0.950 . S
C2965 C2963 1.387 . S
C2965 C2967 1.390 . S
C2965 H2969 0.950 . S
H2966 C2962 0.950 . S
C2967 C2965 1.390 . S
C2967 C2968 1.387 . S
C2967 H2970 0.950 . S
C2968 C2967 1.387 . S
C2968 C2971 1.387 . S
H2969 C2965 0.950 . S
H2970 C2967 0.950 . S
C2971 C2962 1.390 . S
C2971 H2964 0.950 . S
C2971 C2968 1.387 . S
C2972 C2973 1.387 . S
C2972 H2976 0.950 . S
C2972 C2981 1.390 . S
C2973 C2972 1.387 . S
C2973 C2975 1.387 . S
H2974 C2981 0.950 . S
C2975 C2973 1.387 . S
C2975 C2977 1.390 . S
C2975 H2979 0.950 . S
H2976 C2972 0.950 . S
C2977 C2975 1.390 . S
C2977 C2978 1.387 . S
C2977 H2980 0.950 . S
C2978 C2977 1.387 . S
C2978 C2981 1.387 . S
H2979 C2975 0.950 . S
H2980 C2977 0.950 . S
C2981 C2972 1.390 . S
C2981 H2974 0.950 . S
C2981 C2978 1.387 . S
C2982 C2983 1.387 . S
C2982 H2986 0.950 . S
C2982 C2991 1.390 . S
C2983 C2982 1.387 . S
C2983 C2985 1.387 . S
H2984 C2991 0.950 . S
C2985 C2983 1.387 . S
C2985 C2987 1.390 . S
C2985 H2989 0.950 . S
H2986 C2982 0.950 . S
C2987 C2985 1.390 . S
C2987 C2988 1.387 . S
C2987 H2990 0.950 . S
C2988 C2987 1.387 . S
C2988 C2991 1.387 . S
H2989 C2985 0.950 . S
H2990 C2987 0.950 . S
C2991 C2982 1.390 . S
C2991 H2984 0.950 . S
C2991 C2988 1.387 . S
C2992 C2993 1.387 . S
C2992 H2996 0.950 . S
C2992 C3001 1.390 . S
C2993 C2992 1.387 . S
C2993 C2995 1.387 . S
H2994 C3001 0.950 . S
C2995 C2993 1.387 . S
C2995 C2997 1.390 . S
C2995 H2999 0.950 . S
H2996 C2992 0.950 . S
C2997 C2995 1.390 . S
C2997 C2998 1.387 . S
C2997 H3000 0.950 . S
C2998 C2997 1.387 . S
C2998 C3001 1.387 . S
H2999 C2995 0.950 . S
H3000 C2997 0.950 . S
C3001 C2992 1.390 . S
C3001 H2994 0.950 . S
C3001 C2998 1.387 . S
C3002 C3003 1.387 . S
C3002 H3006 0.950 . S
C3002 C3011 1.390 . S
C3003 C3002 1.387 . S
C3003 C3005 1.387 . S
H3004 C3011 0.950 . S
C3005 C3003 1.387 . S
C3005 C3007 1.390 . S
C3005 H3009 0.950 . S
H3006 C3002 0.950 . S
C3007 C3005 1.390 . S
C3007 C3008 1.387 . S
C3007 H3010 0.950 . S
C3008 C3007 1.387 . S
C3008 C3011 1.387 . S
H3009 C3005 0.950 . S
H3010 C3007 0.950 . S
C3011 C3002 1.390 . S
C3011 H3004 0.950 . S
C3011 C3008 1.387 . S
C3012 C3013 1.387 . S
C3012 H3016 0.950 . S
C3012 C3021 1.390 . S
C3013 C3012 1.387 . S
C3013 C3015 1.387 . S
H3014 C3021 0.950 . S
C3015 C3013 1.387 . S
C3015 C3017 1.390 . S
C3015 H3019 0.950 . S
H3016 C3012 0.950 . S
C3017 C3015 1.390 . S
C3017 C3018 1.387 . S
C3017 H3020 0.950 . S
C3018 C3017 1.387 . S
C3018 C3021 1.387 . S
H3019 C3015 0.950 . S
H3020 C3017 0.950 . S
C3021 C3012 1.390 . S
C3021 H3014 0.950 . S
C3021 C3018 1.387 . S
C3022 C3023 1.387 . S
C3022 H3026 0.950 . S
C3022 C3031 1.390 . S
C3023 C3022 1.387 . S
C3023 C3025 1.387 . S
H3024 C3031 0.950 . S
C3025 C3023 1.387 . S
C3025 C3027 1.390 . S
C3025 H3029 0.950 . S
H3026 C3022 0.950 . S
C3027 C3025 1.390 . S
C3027 C3028 1.387 . S
C3027 H3030 0.950 . S
C3028 C3027 1.387 . S
C3028 C3031 1.387 . S
H3029 C3025 0.950 . S
H3030 C3027 0.950 . S
C3031 C3022 1.390 . S
C3031 H3024 0.950 . S
C3031 C3028 1.387 . S
C3032 C3033 1.387 . S
C3032 H3036 0.950 . S
C3032 C3041 1.390 . S
C3033 C3032 1.387 . S
C3033 C3035 1.387 . S
H3034 C3041 0.950 . S
C3035 C3033 1.387 . S
C3035 C3037 1.390 . S
C3035 H3039 0.950 . S
H3036 C3032 0.950 . S
C3037 C3035 1.390 . S
C3037 C3038 1.387 . S
C3037 H3040 0.950 . S
C3038 C3037 1.387 . S
C3038 C3041 1.387 . S
H3039 C3035 0.950 . S
H3040 C3037 0.950 . S
C3041 C3032 1.390 . S
C3041 H3034 0.950 . S
C3041 C3038 1.387 . S
C3042 C3043 1.387 . S
C3042 H3046 0.950 . S
C3042 C3051 1.390 . S
C3043 C3042 1.387 . S
C3043 C3045 1.387 . S
H3044 C3051 0.950 . S
C3045 C3043 1.387 . S
C3045 C3047 1.390 . S
C3045 H3049 0.950 . S
H3046 C3042 0.950 . S
C3047 C3045 1.390 . S
C3047 C3048 1.387 . S
C3047 H3050 0.950 . S
C3048 C3047 1.387 . S
C3048 C3051 1.387 . S
H3049 C3045 0.950 . S
H3050 C3047 0.950 . S
C3051 C3042 1.390 . S
C3051 H3044 0.950 . S
C3051 C3048 1.387 . S
C3052 C3053 1.387 . S
C3052 H3056 0.950 . S
C3052 C3061 1.390 . S
C3053 C3052 1.387 . S
C3053 C3055 1.387 . S
H3054 C3061 0.950 . S
C3055 C3053 1.387 . S
C3055 C3057 1.390 . S
C3055 H3059 0.950 . S
H3056 C3052 0.950 . S
C3057 C3055 1.390 . S
C3057 C3058 1.387 . S
C3057 H3060 0.950 . S
C3058 C3057 1.387 . S
C3058 C3061 1.387 . S
H3059 C3055 0.950 . S
H3060 C3057 0.950 . S
C3061 C3052 1.390 . S
C3061 H3054 0.950 . S
C3061 C3058 1.387 . S
C3062 C3063 1.387 . S
C3062 H3066 0.950 . S
C3062 C3071 1.390 . S
C3063 C3062 1.387 . S
C3063 C3065 1.387 . S
H3064 C3071 0.950 . S
C3065 C3063 1.387 . S
C3065 C3067 1.390 . S
C3065 H3069 0.950 . S
H3066 C3062 0.950 . S
C3067 C3065 1.390 . S
C3067 C3068 1.387 . S
C3067 H3070 0.950 . S
C3068 C3067 1.387 . S
C3068 C3071 1.387 . S
H3069 C3065 0.950 . S
H3070 C3067 0.950 . S
C3071 C3062 1.390 . S
C3071 H3064 0.950 . S
C3071 C3068 1.387 . S
C1393 C5 2.246 . S
C1398 C208 2.248 . S
C1403 C34 2.246 . S
C1408 C121 2.248 . S
C1413 C150 2.248 . S
C1418 C63 2.246 . S
C1423 C92 2.248 . S
C1428 C179 2.246 . S
C1433 C237 2.246 . S
C1438 C585 2.248 . S
C1443 C266 2.248 . S
C1448 C498 2.246 . S
C1453 C527 2.248 . S
C1458 C295 2.246 . S
C1463 C556 2.248 . S
C1468 C324 2.248 . S
C1473 C672 2.248 . S
C1478 C353 2.248 . S
C1483 C614 2.246 . S
C1488 C382 2.246 . S
C1493 C411 2.248 . S
C1498 C643 2.246 . S
C1503 C440 2.246 . S
C1508 C469 2.248 . S
C1513 C701 2.246 . S
C1518 C904 2.246 . S
C1523 C817 2.246 . S
C1528 C730 2.248 . S
C1533 C846 2.246 . S
C1538 C759 2.248 . S
C1543 C788 2.248 . S
C1548 C875 2.248 . S
C1553 C933 2.249 . S
C1558 C1281 2.246 . S
C1563 C1194 2.248 . S
C1568 C962 2.246 . S
C1573 C1223 2.248 . S
C1578 C991 2.246 . S
C1583 C1252 2.248 . S
C1588 C1020 2.246 . S
C1593 C1049 2.248 . S
C1598 C1368 2.246 . S
C1603 C1078 2.246 . S
C1608 C1310 2.248 . S
C1613 C1107 2.248 . S
C1618 C1339 2.246 . S
C1623 C1136 2.248 . S
C1628 C1165 2.246 . S
C1633 C13 1.475 . S
C1638 C670 1.640 . S
C1643 C612 1.639 . S
C1648 C42 1.480 . S
C1653 C641 1.639 . S
C1658 C71 1.480 . S
C1663 C467 1.639 . S
C1668 C100 1.480 . S
C1673 C129 1.480 . S
C1678 C583 1.639 . S
C1683 C496 1.640 . S
C1688 C158 1.475 . S
C1693 C187 1.480 . S
C1698 C525 1.639 . S
C1703 C216 1.480 . S
C1708 C554 1.639 . S
C1713 C322 1.639 . S
C1718 C245 1.480 . S
C1723 C235 1.639 . S
C1728 C274 1.480 . S
C1733 C303 1.477 . S
C1738 C264 1.639 . S
C1743 C293 1.639 . S
C1748 C332 1.480 . S
C1753 C380 1.639 . S
C1758 C361 1.480 . S
C1763 C390 1.475 . S
C1768 C409 1.640 . S
C1773 C438 1.639 . S
C1778 C419 1.477 . S
C1783 C351 1.640 . S
C1788 C448 1.475 . S
C1793 C477 1.480 . S
C1798 C148 1.639 . S
C1803 C506 1.475 . S
C1808 C90 1.640 . S
C1813 C3 1.639 . S
C1818 C535 1.480 . S
C1823 C564 1.475 . S
C1828 C32 1.640 . S
C1833 C61 1.639 . S
C1838 C593 1.480 . S
C1843 C206 1.639 . S
C1848 C622 1.480 . S
C1853 C651 1.475 . S
C1858 C119 1.640 . S
C1863 C680 1.480 . S
C1868 C177 1.639 . S
C1873 C709 1.475 . S
C1878 C1366 1.640 . S
C1883 C738 1.475 . S
C1888 C1308 1.640 . S
C1893 C767 1.480 . S
C1898 C1337 1.639 . S
C1903 C796 1.480 . S
C1908 C1163 1.639 . S
C1913 C825 1.475 . S
C1918 C1279 1.640 . S
C1923 C854 1.475 . S
C1928 C1192 1.640 . S
C1933 C883 1.475 . S
C1938 C1221 1.640 . S
C1943 C912 1.480 . S
C1948 C1250 1.639 . S
C1953 C941 1.480 . S
C1958 C1018 1.639 . S
C1963 C931 1.639 . S
C1968 C970 1.477 . S
C1973 C999 1.478 . S
C1978 C960 1.640 . S
C1983 C1028 1.477 . S
C1988 C989 1.639 . S
C1993 C1057 1.475 . S
C1998 C1076 1.640 . S
C2003 C1105 1.639 . S
C2008 C1086 1.480 . S
C2013 C1134 1.639 . S
C2018 C1115 1.480 . S
C2023 C1047 1.640 . S
C2028 C1144 1.475 . S
C2033 C844 1.639 . S
C2038 C1173 1.480 . S
C2043 C786 1.640 . S
C2048 C1202 1.476 . S
C2053 C699 1.640 . S
C2058 C1231 1.475 . S
C2063 C728 1.640 . S
C2068 C1260 1.476 . S
C2073 C1289 1.477 . S
C2078 C757 1.639 . S
C2083 C1318 1.480 . S
C2088 C902 1.639 . S
C2093 C1347 1.478 . S
C2098 C815 1.640 . S
C2103 C873 1.639 . S
C2108 C1376 1.480 . S
C2113 C1025 2.308 . S
C2118 C21 1.988 1_655 S
C2123 C938 2.308 . S
C2128 C50 1.988 1_565 S
C2133 C79 1.984 . S
C2138 C967 2.308 . S
C2143 C108 1.987 . S
C2148 C996 2.308 . S
C2153 C1083 2.308 . S
C2158 C137 1.985 1_655 S
C2163 C166 1.985 1_565 S
C2168 C1112 2.308 . S
C2173 C1141 2.308 . S
C2178 C195 1.987 . S
C2183 C224 1.988 . S
C2188 C1054 2.308 . S
C2193 C253 1.988 1_565 S
C2198 C851 2.308 . S
C2203 C282 1.987 . S
C2208 C880 2.308 . S
C2213 C909 2.308 . S
C2218 C311 1.984 . S
C2223 C340 1.984 1_655 S
C2228 C822 2.308 . S
C2233 C369 1.985 . S
C2238 C793 2.308 . S
C2243 C398 1.988 1_655 S
C2248 C706 2.308 . S
C2253 C735 2.308 . S
C2258 C427 1.986 1_565 S
C2263 C764 2.308 . S
C2268 C456 1.987 . S
C2273 C1373 2.308 . S
C2278 C485 1.984 1_556 S
C2283 C514 1.984 . S
C2288 C1286 2.308 . S
C2293 C1199 2.308 . S
C2298 C543 1.988 . S
C2303 C572 1.985 . S
C2308 C1228 2.308 . S
C2313 C601 1.987 . S
C2318 C1257 2.308 . S
C2323 C1344 2.308 . S
C2328 C630 1.984 1_556 S
C2333 C1170 2.308 . S
C2338 C659 1.988 1_556 S
C2343 C1315 2.308 . S
C2348 C688 1.984 1_556 S
C2353 C329 2.308 . S
C2358 C717 1.985 1_455 S
C2363 C242 2.308 . S
C2368 C746 1.987 1_545 S
C2373 C271 2.308 . S
C2378 C775 1.988 . S
C2383 C804 1.985 . S
C2388 C300 2.308 . S
C2393 C833 1.987 1_455 S
C2398 C387 2.308 . S
C2403 C862 1.987 1_545 S
C2408 C416 2.308 . S
C2413 C891 1.988 . S
C2418 C445 2.308 . S
C2423 C920 1.985 . S
C2428 C358 2.308 . S
C2433 C155 2.308 . S
C2438 C949 1.987 1_545 S
C2443 C184 2.308 . S
C2448 C978 1.986 . S
C2453 C1007 1.987 . S
C2458 C213 2.308 . S
C2463 C126 2.308 . S
C2468 C1036 1.987 1_455 S
C2473 C97 2.308 . S
C2478 C1065 1.986 . S
C2483 C10 2.308 . S
C2488 C1094 1.986 1_455 S
C2493 C1123 1.987 1_545 S
C2498 C39 2.308 . S
C2503 C68 2.308 . S
C2508 C1152 1.985 . S
C2513 C1181 1.985 1_554 S
C2518 C677 2.308 . S
C2523 C1210 1.988 . S
C2528 C590 2.308 . S
C2533 C1239 1.985 . S
C2538 C503 2.308 . S
C2543 C532 2.308 . S
C2548 C1268 1.985 . S
C2553 C561 2.308 . S
C2558 C1297 1.986 . S
C2563 C1326 1.987 1_554 S
C2568 C648 2.308 . S
C2573 C1355 1.985 1_554 S
C2578 C474 2.308 . S
C2583 C619 2.308 . S
C2588 C1384 1.985 1_554 S
C2593 C1313 1.196 . S
C2598 C15 1.166 . S
C2603 C44 1.165 . S
C2608 C1342 1.196 . S
C2613 C1168 1.196 . S
C2618 C73 1.166 . S
C2623 C102 1.165 . S
C2628 C1371 1.196 . S
C2633 C1255 1.196 . S
C2638 C131 1.166 . S
C2643 C160 1.165 . S
C2648 C1284 1.196 . S
C2653 C189 1.169 . S
C2658 C1197 1.193 . S
C2663 C1226 1.194 . S
C2668 C218 1.169 . S
C2673 C820 1.194 . S
C2678 C247 1.167 . S
C2683 C849 1.194 . S
C2688 C276 1.169 . S
C2693 C878 1.194 . S
C2698 C305 1.169 . S
C2703 C907 1.196 . S
C2708 C334 1.165 . S
C2713 C704 1.195 . S
C2718 C363 1.167 . S
C2723 C392 1.169 . S
C2728 C733 1.193 . S
C2733 C762 1.194 . S
C2738 C421 1.169 . S
C2743 C791 1.194 . S
C2748 C450 1.169 . S
C2753 C479 1.165 . S
C2758 C1110 1.196 . S
C2763 C994 1.196 . S
C2768 C508 1.165 . S
C2773 C537 1.167 . S
C2778 C1023 1.195 . S
C2783 C936 1.194 . S
C2788 C566 1.169 . S
C2793 C965 1.196 . S
C2798 C595 1.165 . S
C2803 C624 1.169 . S
C2808 C1052 1.194 . S
C2813 C1081 1.194 . S
C2818 C653 1.169 . S
C2823 C682 1.165 . S
C2828 C1139 1.196 . S
C2833 C711 1.169 . S
C2838 C617 1.193 . S
C2843 C646 1.194 . S
C2848 C740 1.169 . S
C2853 C769 1.169 . S
C2858 C472 1.194 . S
C2863 C675 1.194 . S
C2868 C798 1.169 . S
C2873 C559 1.196 . S
C2878 C827 1.165 . S
C2883 C588 1.196 . S
C2888 C856 1.165 . S
C2893 C501 1.194 . S
C2898 C885 1.169 . S
C2903 C530 1.196 . S
C2908 C914 1.165 . S
C2913 C124 1.195 . S
C2918 C943 1.167 . S
C2923 C153 1.194 . S
C2928 C972 1.169 . S
C2933 C182 1.196 . S
C2938 C1001 1.165 . S
C2943 C1030 1.165 . S
C2948 C211 1.196 . S
C2953 C1059 1.167 . S
C2958 C8 1.195 . S
C2963 C1088 1.169 . S
C2968 C37 1.193 . S
C2973 C66 1.194 . S
C2978 C1117 1.169 . S
C2983 C1146 1.169 . S
C2988 C95 1.194 . S
C2993 C1175 1.169 . S
C2998 C414 1.194 . S
C3003 C1204 1.165 . S
C3008 C298 1.196 . S
C3013 C1233 1.167 . S
C3018 C327 1.195 . S
C3023 C1262 1.169 . S
C3028 C240 1.194 . S
C3033 C1291 1.169 . S
C3038 C269 1.194 . S
C3043 C1320 1.167 . S
C3048 C356 1.195 . S
C3053 C385 1.195 . S
C3058 C1349 1.167 . S
C3063 C1378 1.169 . S
C3068 C443 1.194 . S
