# Generated by pormake.
# Topology umc, (4)-cn, num edge types: 1
# Building blocks:
#     Node 0, Type 0, BuildingBlock: KOZSID_clean_sbu_0, # of connection points: 4
#     Node 1, Type 0, BuildingBlock: KOZSID_clean_sbu_0, # of connection points: 4
#     Node 2, Type 0, BuildingBlock: KOZSID_clean_sbu_0, # of connection points: 4
#     Node 3, Type 0, BuildingBlock: KOZSID_clean_sbu_0, # of connection points: 4
#     Node 4, Type 0, BuildingBlock: KOZSID_clean_sbu_0, # of connection points: 4
#     Node 5, Type 0, BuildingBlock: KOZSID_clean_sbu_0, # of connection points: 4
#     Node 6, Type 0, BuildingBlock: KOZSID_clean_sbu_0, # of connection points: 4
#     Node 7, Type 0, BuildingBlock: KOZSID_clean_sbu_0, # of connection points: 4
#     Node 8, Type 0, BuildingBlock: KOZSID_clean_sbu_0, # of connection points: 4
#     Node 9, Type 0, BuildingBlock: KOZSID_clean_sbu_0, # of connection points: 4
#     Node 10, Type 0, BuildingBlock: KOZSID_clean_sbu_0, # of connection points: 4
#     Node 11, Type 0, BuildingBlock: KOZSID_clean_sbu_0, # of connection points: 4
#     Node 12, Type 0, BuildingBlock: KOZSID_clean_sbu_0, # of connection points: 4
#     Node 13, Type 0, BuildingBlock: KOZSID_clean_sbu_0, # of connection points: 4
#     Node 14, Type 0, BuildingBlock: KOZSID_clean_sbu_0, # of connection points: 4
#     Node 15, Type 0, BuildingBlock: KOZSID_clean_sbu_0, # of connection points: 4
#     Edge 16, Type (0, 0), BuildingBlock: EZIPEK_clean_linker_0, # of connection points: 2
#     Edge 17, Type (0, 0), BuildingBlock: EZIPEK_clean_linker_0, # of connection points: 2
#     Edge 18, Type (0, 0), BuildingBlock: EZIPEK_clean_linker_0, # of connection points: 2
#     Edge 19, Type (0, 0), BuildingBlock: EZIPEK_clean_linker_0, # of connection points: 2
#     Edge 20, Type (0, 0), BuildingBlock: EZIPEK_clean_linker_0, # of connection points: 2
#     Edge 21, Type (0, 0), BuildingBlock: EZIPEK_clean_linker_0, # of connection points: 2
#     Edge 22, Type (0, 0), BuildingBlock: EZIPEK_clean_linker_0, # of connection points: 2
#     Edge 23, Type (0, 0), BuildingBlock: EZIPEK_clean_linker_0, # of connection points: 2
#     Edge 24, Type (0, 0), BuildingBlock: EZIPEK_clean_linker_0, # of connection points: 2
#     Edge 25, Type (0, 0), BuildingBlock: EZIPEK_clean_linker_0, # of connection points: 2
#     Edge 26, Type (0, 0), BuildingBlock: EZIPEK_clean_linker_0, # of connection points: 2
#     Edge 27, Type (0, 0), BuildingBlock: EZIPEK_clean_linker_0, # of connection points: 2
#     Edge 28, Type (0, 0), BuildingBlock: EZIPEK_clean_linker_0, # of connection points: 2
#     Edge 29, Type (0, 0), BuildingBlock: EZIPEK_clean_linker_0, # of connection points: 2
#     Edge 30, Type (0, 0), BuildingBlock: EZIPEK_clean_linker_0, # of connection points: 2
#     Edge 31, Type (0, 0), BuildingBlock: EZIPEK_clean_linker_0, # of connection points: 2
#     Edge 32, Type (0, 0), BuildingBlock: EZIPEK_clean_linker_0, # of connection points: 2
#     Edge 33, Type (0, 0), BuildingBlock: EZIPEK_clean_linker_0, # of connection points: 2
#     Edge 34, Type (0, 0), BuildingBlock: EZIPEK_clean_linker_0, # of connection points: 2
#     Edge 35, Type (0, 0), BuildingBlock: EZIPEK_clean_linker_0, # of connection points: 2
#     Edge 36, Type (0, 0), BuildingBlock: EZIPEK_clean_linker_0, # of connection points: 2
#     Edge 37, Type (0, 0), BuildingBlock: EZIPEK_clean_linker_0, # of connection points: 2
#     Edge 38, Type (0, 0), BuildingBlock: EZIPEK_clean_linker_0, # of connection points: 2
#     Edge 39, Type (0, 0), BuildingBlock: EZIPEK_clean_linker_0, # of connection points: 2
#     Edge 40, Type (0, 0), BuildingBlock: EZIPEK_clean_linker_0, # of connection points: 2
#     Edge 41, Type (0, 0), BuildingBlock: EZIPEK_clean_linker_0, # of connection points: 2
#     Edge 42, Type (0, 0), BuildingBlock: EZIPEK_clean_linker_0, # of connection points: 2
#     Edge 43, Type (0, 0), BuildingBlock: EZIPEK_clean_linker_0, # of connection points: 2
#     Edge 44, Type (0, 0), BuildingBlock: EZIPEK_clean_linker_0, # of connection points: 2
#     Edge 45, Type (0, 0), BuildingBlock: EZIPEK_clean_linker_0, # of connection points: 2
#     Edge 46, Type (0, 0), BuildingBlock: EZIPEK_clean_linker_0, # of connection points: 2
#     Edge 47, Type (0, 0), BuildingBlock: EZIPEK_clean_linker_0, # of connection points: 2
# Relax obj value: 0.054
# Max RMSD: 0.171
# Mean RMSD: 0.171
data_MOF--net-umc--node1-KOZSID_clean_sbu_0--edge1-EZIPEK_clean_linker_0
_symmetry_space_group_name_H-M    P1
_symmetry_Int_Tables_number       1
_symmetry_cell_setting            triclinic
loop_
_symmetry_equiv_pos_as_xyz
'x, y, z'
_cell_length_a     53.362781
_cell_length_b     30.706112
_cell_length_c     47.364192
_cell_angle_alpha  89.89493
_cell_angle_beta   90.07692
_cell_angle_gamma 90.085631
loop_
_atom_site_label
_atom_site_type_symbol
_atom_site_fract_x
_atom_site_fract_y
_atom_site_fract_z
_atom_type_partial_charge
C0 C 0.3818 0.03127 0.32238 0.0
C1 C 0.36498 0.99802 0.31612 0.0
C2 C 0.35425 0.98569 0.34115 0.0
C3 C 0.36455 0.01273 0.36107 0.0
N4 N 0.38091 0.04149 0.35012 0.0
Co5 Co 0.39542 0.09172 0.37062 0.0
N6 N 0.38876 0.0646 0.40775 0.0
C7 C 0.3776 0.02578 0.41193 0.0
C8 C 0.38603 0.00529 0.4359 0.0
C9 C 0.40289 0.03358 0.44782 0.0
C10 C 0.40259 0.07112 0.43136 0.0
N11 N 0.4082 0.14324 0.39164 0.0
C12 C 0.40928 0.1504 0.42009 0.0
C13 C 0.41022 0.19493 0.42539 0.0
C14 C 0.41147 0.21562 0.39969 0.0
C15 C 0.41013 0.18308 0.37997 0.0
N16 N 0.40395 0.11633 0.33302 0.0
C17 C 0.41103 0.15764 0.32816 0.0
C18 C 0.42163 0.16276 0.30193 0.0
C19 C 0.42089 0.12219 0.28958 0.0
C20 C 0.40901 0.09453 0.30855 0.0
N21 N 0.36186 0.12102 0.36994 0.0
C22 C 0.32014 0.17907 0.368 0.0
C23 C 0.32948 0.15925 0.34343 0.0
C24 C 0.35008 0.13032 0.34484 0.0
C25 C 0.33132 0.16697 0.3937 0.0
C26 C 0.35181 0.1379 0.39425 0.0
N27 N 0.42922 0.0649 0.37124 0.0
C28 C 0.47422 0.07465 0.3689 0.0
C29 C 0.47825 0.03027 0.37356 0.0
C30 C 0.45715 0.00328 0.37677 0.0
C31 C 0.43283 0.02118 0.37549 0.0
C32 C 0.4498 0.09116 0.36778 0.0
H33 H 0.41702 0.99963 0.37794 0.0
H34 H 0.4477 0.12552 0.36409 0.0
H35 H 0.35701 0.11676 0.32536 0.0
H36 H 0.36012 0.13066 0.41445 0.0
C37 C 0.3643 0.00539 0.39017 0.0
C38 C 0.40006 0.0494 0.30227 0.0
C39 C 0.40864 0.11538 0.44203 0.0
C40 C 0.41183 0.18783 0.35046 0.0
H41 H 0.36168 0.98283 0.29586 0.0
H42 H 0.34176 0.9584 0.34461 0.0
H43 H 0.38141 0.97283 0.44318 0.0
H44 H 0.41263 0.02852 0.46761 0.0
H45 H 0.40951 0.21129 0.44553 0.0
H46 H 0.41279 0.25032 0.3959 0.0
H47 H 0.43021 0.19187 0.29336 0.0
H48 H 0.42816 0.11425 0.26894 0.0
H49 H 0.32131 0.16694 0.32309 0.0
H50 H 0.32463 0.18079 0.41331 0.0
H51 H 0.48996 0.09658 0.36613 0.0
H52 H 0.45945 0.96864 0.38018 0.0
C53 C 0.67433 0.9673 0.33063 0.0
C54 C 0.68711 0.00664 0.32848 0.0
C55 C 0.69977 0.0123 0.35333 0.0
C56 C 0.69374 0.97675 0.36951 0.0
N57 N 0.67797 0.94903 0.35647 0.0
Co58 Co 0.66238 0.89648 0.37376 0.0
N59 N 0.67019 0.91679 0.41262 0.0
C60 C 0.68754 0.94698 0.4193 0.0
C61 C 0.6904 0.95269 0.4478 0.0
C62 C 0.674 0.92402 0.4599 0.0
C63 C 0.66186 0.90248 0.43805 0.0
N64 N 0.64662 0.84426 0.39119 0.0
C65 C 0.63926 0.83683 0.41833 0.0
C66 C 0.62901 0.79551 0.42101 0.0
C67 C 0.63043 0.77636 0.39483 0.0
C68 C 0.64136 0.80696 0.37754 0.0
N69 N 0.65499 0.8769 0.33466 0.0
C70 C 0.64941 0.8358 0.32716 0.0
C71 C 0.64525 0.83176 0.29862 0.0
C72 C 0.6485 0.87287 0.28758 0.0
C73 C 0.65438 0.89994 0.31003 0.0
N74 N 0.69501 0.8646 0.37268 0.0
C75 C 0.73722 0.80819 0.36964 0.0
C76 C 0.72284 0.81144 0.39425 0.0
C77 C 0.70212 0.83965 0.39538 0.0
C78 C 0.7305 0.83521 0.34681 0.0
C79 C 0.70948 0.86317 0.34877 0.0
N80 N 0.62947 0.92612 0.37483 0.0
C81 C 0.58487 0.92278 0.36563 0.0
C82 C 0.58144 0.96469 0.3763 0.0
C83 C 0.60266 0.98721 0.38625 0.0
C84 C 0.62652 0.96735 0.38531 0.0
C85 C 0.60878 0.90421 0.36514 0.0
H86 H 0.64255 0.98523 0.39305 0.0
H87 H 0.61039 0.87176 0.35689 0.0
H88 H 0.69139 0.84004 0.41456 0.0
H89 H 0.70452 0.88271 0.33063 0.0
C90 C 0.69823 0.97311 0.39843 0.0
C91 C 0.66066 0.94672 0.30703 0.0
C92 C 0.64439 0.86606 0.44244 0.0
C93 C 0.64382 0.80449 0.34798 0.0
H94 H 0.68732 0.02916 0.31091 0.0
H95 H 0.71088 0.04026 0.35944 0.0
H96 H 0.70264 0.97545 0.45852 0.0
H97 H 0.67185 0.91866 0.48226 0.0
H98 H 0.62189 0.78047 0.44007 0.0
H99 H 0.62375 0.74431 0.389 0.0
H100 H 0.63948 0.80283 0.28732 0.0
H101 H 0.64668 0.88195 0.26559 0.0
H102 H 0.72732 0.79157 0.41249 0.0
H103 H 0.74114 0.8341 0.32737 0.0
H104 H 0.56905 0.90432 0.35769 0.0
H105 H 0.6008 0.01985 0.3946 0.0
C106 C 0.37866 0.95452 0.18428 0.0
C107 C 0.36135 0.98568 0.1927 0.0
C108 C 0.34949 0.99983 0.16873 0.0
C109 C 0.35968 0.97578 0.14725 0.0
N110 N 0.37703 0.9472 0.15622 0.0
Co111 Co 0.39132 0.89965 0.13319 0.0
N112 N 0.38237 0.92939 0.09752 0.0
C113 C 0.37079 0.96819 0.09545 0.0
C114 C 0.3781 0.99117 0.07198 0.0
C115 C 0.39462 0.96455 0.05815 0.0
C116 C 0.39513 0.92544 0.07298 0.0
N117 N 0.40343 0.85054 0.10972 0.0
C118 C 0.4025 0.84556 0.08109 0.0
C119 C 0.40334 0.80153 0.0743 0.0
C120 C 0.4067 0.77902 0.09914 0.0
C121 C 0.40661 0.81003 0.11994 0.0
N122 N 0.40274 0.87304 0.16927 0.0
C123 C 0.4112 0.83212 0.17221 0.0
C124 C 0.42332 0.82596 0.19753 0.0
C125 C 0.42214 0.86543 0.21131 0.0
C126 C 0.40855 0.89341 0.1941 0.0
N127 N 0.35824 0.86815 0.13513 0.0
C128 C 0.31715 0.80761 0.13583 0.0
C129 C 0.33146 0.8167 0.16012 0.0
C130 C 0.35076 0.84813 0.15968 0.0
C131 C 0.32341 0.8317 0.11145 0.0
C132 C 0.34424 0.86036 0.11127 0.0
N133 N 0.42462 0.92826 0.13126 0.0
C134 C 0.46976 0.9204 0.13145 0.0
C135 C 0.47305 0.96536 0.12926 0.0
C136 C 0.45156 0.99167 0.12794 0.0
C137 C 0.42752 0.97249 0.12899 0.0
C138 C 0.44564 0.90266 0.13236 0.0
H139 H 0.41135 0.99348 0.12828 0.0
H140 H 0.44418 0.86789 0.13423 0.0
H141 H 0.36005 0.85482 0.17939 0.0
H142 H 0.34926 0.87503 0.09138 0.0
C143 C 0.35815 0.98596 0.11856 0.0
C144 C 0.3986 0.93701 0.20248 0.0
C145 C 0.40113 0.88235 0.06044 0.0
C146 C 0.4108 0.80338 0.14904 0.0
H147 H 0.35859 0.99862 0.2137 0.0
H148 H 0.33632 0.02648 0.167 0.0
H149 H 0.37304 0.02416 0.06629 0.0
H150 H 0.40368 0.97196 0.03829 0.0
H151 H 0.40152 0.78678 0.05372 0.0
H152 H 0.40873 0.74417 0.10167 0.0
H153 H 0.43294 0.79692 0.20462 0.0
H154 H 0.43016 0.87236 0.23178 0.0
H155 H 0.32771 0.79967 0.17971 0.0
H156 H 0.31283 0.82722 0.09215 0.0
H157 H 0.48585 0.89898 0.13261 0.0
H158 H 0.45334 0.02672 0.1264 0.0
C159 C 0.66974 0.02579 0.17573 0.0
C160 C 0.68241 0.98633 0.17712 0.0
C161 C 0.69443 0.98123 0.15189 0.0
C162 C 0.68815 0.01723 0.13629 0.0
N163 N 0.67276 0.04472 0.14999 0.0
Co164 Co 0.65732 0.09823 0.13369 0.0
N165 N 0.66501 0.0797 0.0944 0.0
C166 C 0.68209 0.04946 0.08716 0.0
C167 C 0.68521 0.0454 0.0586 0.0
C168 C 0.66926 0.07522 0.04702 0.0
C169 C 0.65707 0.09569 0.0692 0.0
N170 N 0.64176 0.15144 0.11718 0.0
C171 C 0.63467 0.16046 0.09011 0.0
C172 C 0.62455 0.20192 0.08825 0.0
C173 C 0.6258 0.2196 0.11487 0.0
C174 C 0.6365 0.18803 0.13158 0.0
N175 N 0.65005 0.11612 0.17321 0.0
C176 C 0.64445 0.15688 0.1814 0.0
C177 C 0.64077 0.16001 0.21005 0.0
C178 C 0.64445 0.11868 0.2205 0.0
C179 C 0.6501 0.09241 0.19761 0.0
N180 N 0.68996 0.12972 0.13552 0.0
C181 C 0.73145 0.18709 0.1405 0.0
C182 C 0.71755 0.1845 0.11548 0.0
C183 C 0.69715 0.15575 0.1134 0.0
C184 C 0.72483 0.15876 0.16263 0.0
C185 C 0.70416 0.13025 0.15968 0.0
N186 N 0.62432 0.069 0.13197 0.0
C187 C 0.57975 0.07264 0.14091 0.0
C188 C 0.57611 0.03131 0.12941 0.0
C189 C 0.59719 0.00888 0.1192 0.0
C190 C 0.62116 0.02831 0.12069 0.0
C191 C 0.60377 0.09076 0.14197 0.0
H192 H 0.6371 0.01059 0.11269 0.0
H193 H 0.60554 0.12276 0.15087 0.0
H194 H 0.68664 0.15598 0.09404 0.0
H195 H 0.69918 0.10974 0.17731 0.0
C196 C 0.69254 0.0221 0.10748 0.0
C197 C 0.65706 0.04589 0.20007 0.0
C198 C 0.64003 0.13276 0.06533 0.0
C199 C 0.63889 0.18905 0.16116 0.0
H200 H 0.68307 0.96351 0.19451 0.0
H201 H 0.70545 0.95352 0.14524 0.0
H202 H 0.69742 0.02313 0.0475 0.0
H203 H 0.66753 0.0822 0.02483 0.0
H204 H 0.61768 0.21807 0.06945 0.0
H205 H 0.61922 0.25138 0.12133 0.0
H206 H 0.63522 0.18855 0.22185 0.0
H207 H 0.64321 0.10898 0.24243 0.0
H208 H 0.72207 0.20544 0.09777 0.0
H209 H 0.73518 0.15936 0.1823 0.0
H210 H 0.56402 0.09099 0.14905 0.0
H211 H 0.59513 0.97669 0.1102 0.0
C212 C 0.64064 0.91144 0.69604 0.0
C213 C 0.63586 0.88374 0.71855 0.0
C214 C 0.63454 0.84231 0.70767 0.0
C215 C 0.63863 0.84683 0.67916 0.0
N216 N 0.6423 0.88852 0.67143 0.0
Co217 Co 0.64932 0.90861 0.6322 0.0
N218 N 0.63751 0.85313 0.61487 0.0
C219 C 0.63419 0.81544 0.62894 0.0
C220 C 0.62638 0.78211 0.6117 0.0
C221 C 0.62502 0.79979 0.58507 0.0
C222 C 0.63219 0.84305 0.58746 0.0
N223 N 0.65626 0.92978 0.59316 0.0
C224 C 0.64873 0.91414 0.56772 0.0
C225 C 0.65736 0.94042 0.54591 0.0
C226 C 0.67138 0.97266 0.55792 0.0
C227 C 0.67033 0.9647 0.58635 0.0
N228 N 0.66135 0.96421 0.6493 0.0
C229 C 0.67506 0.99496 0.63609 0.0
C230 C 0.67939 0.03111 0.6523 0.0
C231 C 0.66781 0.02278 0.67742 0.0
C232 C 0.65731 0.98146 0.67532 0.0
N233 N 0.68378 0.88295 0.63465 0.0
C234 C 0.7276 0.83047 0.64009 0.0
C235 C 0.71492 0.83451 0.61428 0.0
C236 C 0.6934 0.86082 0.612 0.0
C237 C 0.71855 0.8554 0.66281 0.0
C238 C 0.69685 0.88152 0.65962 0.0
N239 N 0.6146 0.93174 0.62988 0.0
C240 C 0.58428 0.98776 0.61807 0.0
C241 C 0.56423 0.96084 0.62647 0.0
C242 C 0.57009 0.9192 0.63648 0.0
C243 C 0.5951 0.90551 0.63813 0.0
C244 C 0.60927 0.97261 0.61988 0.0
H245 H 0.59852 0.87333 0.64618 0.0
H246 H 0.62424 0.99392 0.61321 0.0
H247 H 0.684 0.86178 0.59198 0.0
H248 H 0.69017 0.89926 0.67772 0.0
C249 C 0.63564 0.8143 0.65858 0.0
C250 C 0.64539 0.95871 0.69917 0.0
C251 C 0.63618 0.87215 0.56295 0.0
C252 C 0.67914 0.99277 0.60714 0.0
H253 H 0.63376 0.89258 0.74052 0.0
H254 H 0.63036 0.81264 0.71911 0.0
H255 H 0.62177 0.74907 0.61781 0.0
H256 H 0.61996 0.78263 0.56595 0.0
H257 H 0.65401 0.93658 0.5236 0.0
H258 H 0.68053 0.99951 0.54724 0.0
H259 H 0.68869 0.06098 0.64608 0.0
H260 H 0.66719 0.04484 0.69518 0.0
H261 H 0.72126 0.81646 0.59601 0.0
H262 H 0.72782 0.85387 0.68314 0.0
H263 H 0.58066 0.02032 0.61027 0.0
H264 H 0.55533 0.89732 0.64327 0.0
C265 C 0.40705 0.11195 0.69785 0.0
C266 C 0.42244 0.13349 0.7169 0.0
C267 C 0.42764 0.17368 0.70541 0.0
C268 C 0.4158 0.17448 0.67961 0.0
N269 N 0.40354 0.13701 0.67433 0.0
Co270 Co 0.38886 0.12024 0.63736 0.0
N271 N 0.40794 0.16514 0.61592 0.0
C272 C 0.42092 0.1982 0.62749 0.0
C273 C 0.43762 0.21611 0.60867 0.0
C274 C 0.43443 0.19355 0.58383 0.0
C275 C 0.41504 0.16417 0.5882 0.0
N276 N 0.37301 0.10362 0.60123 0.0
C277 C 0.37716 0.12032 0.57522 0.0
C278 C 0.35624 0.1149 0.55799 0.0
C279 C 0.33894 0.09212 0.57337 0.0
C280 C 0.34986 0.08621 0.59929 0.0
N281 N 0.37003 0.07463 0.65804 0.0
C282 C 0.34821 0.05694 0.64958 0.0
C283 C 0.33793 0.02936 0.66922 0.0
C284 C 0.35433 0.02981 0.69152 0.0
C285 C 0.37385 0.05758 0.68407 0.0
N286 N 0.36068 0.16207 0.64294 0.0
C287 C 0.31747 0.21552 0.64691 0.0
C288 C 0.32468 0.1881 0.66931 0.0
C289 C 0.3464 0.162 0.66702 0.0
C290 C 0.33297 0.21689 0.62315 0.0
C291 C 0.35434 0.19041 0.62164 0.0
N292 N 0.4178 0.08013 0.63172 0.0
C293 C 0.43761 0.01146 0.61943 0.0
C294 C 0.46156 0.02844 0.62601 0.0
C295 C 0.46287 0.07132 0.63514 0.0
C296 C 0.44123 0.09608 0.63785 0.0
C297 C 0.41589 0.03802 0.62236 0.0
H298 H 0.44394 0.12849 0.64526 0.0
H299 H 0.39767 0.0246 0.61737 0.0
H300 H 0.35135 0.14117 0.68454 0.0
H301 H 0.36535 0.19243 0.60268 0.0
C302 C 0.42258 0.20209 0.65708 0.0
C303 C 0.39484 0.06894 0.70289 0.0
C304 C 0.40108 0.13966 0.56588 0.0
C305 C 0.339 0.06502 0.62243 0.0
H306 H 0.4296 0.12134 0.73676 0.0
H307 H 0.4405 0.19771 0.71378 0.0
H308 H 0.45199 0.24006 0.61312 0.0
H309 H 0.44553 0.19809 0.56503 0.0
H310 H 0.35379 0.12615 0.53651 0.0
H311 H 0.32047 0.08187 0.56662 0.0
H312 H 0.3207 0.01093 0.66752 0.0
H313 H 0.35189 0.01241 0.71121 0.0
H314 H 0.31345 0.18647 0.6883 0.0
H315 H 0.32836 0.23792 0.60551 0.0
H316 H 0.43569 0.97811 0.61238 0.0
H317 H 0.48078 0.08582 0.64054 0.0
C318 C 0.63992 0.10193 0.81086 0.0
C319 C 0.63503 0.13043 0.78881 0.0
C320 C 0.63342 0.17137 0.8004 0.0
C321 C 0.63747 0.16579 0.82885 0.0
N322 N 0.64139 0.12389 0.83585 0.0
Co323 Co 0.6484 0.10235 0.87475 0.0
N324 N 0.63602 0.1566 0.893 0.0
C325 C 0.63253 0.19482 0.87964 0.0
C326 C 0.62433 0.22708 0.89744 0.0
C327 C 0.62287 0.20807 0.9237 0.0
C328 C 0.63035 0.16515 0.92053 0.0
N329 N 0.65538 0.07974 0.9134 0.0
C330 C 0.64729 0.09363 0.939 0.0
C331 C 0.65583 0.06642 0.96035 0.0
C332 C 0.67045 0.03549 0.94795 0.0
C333 C 0.66978 0.04504 0.91971 0.0
N334 N 0.66096 0.0479 0.85677 0.0
C335 C 0.67498 0.01713 0.8695 0.0
C336 C 0.67967 0.9818 0.8527 0.0
C337 C 0.66801 0.99073 0.82769 0.0
C338 C 0.65709 0.03158 0.83046 0.0
N339 N 0.68271 0.12924 0.873 0.0
C340 C 0.72643 0.18284 0.86859 0.0
C341 C 0.71344 0.17812 0.89416 0.0
C342 C 0.69199 0.15127 0.89594 0.0
C343 C 0.71766 0.15811 0.84558 0.0
C344 C 0.69602 0.13152 0.84824 0.0
N345 N 0.61377 0.07809 0.87633 0.0
C346 C 0.58365 0.02098 0.88705 0.0
C347 C 0.56346 0.04762 0.87872 0.0
C348 C 0.56918 0.08966 0.86927 0.0
C349 C 0.59413 0.10404 0.86816 0.0
C350 C 0.6086 0.03679 0.88574 0.0
H351 H 0.59739 0.13657 0.86062 0.0
H352 H 0.62367 0.01564 0.89232 0.0
H353 H 0.68239 0.1497 0.91581 0.0
H354 H 0.68958 0.11401 0.82989 0.0
C355 C 0.63414 0.19733 0.85002 0.0
C356 C 0.64495 0.05488 0.80698 0.0
C357 C 0.63415 0.13479 0.94447 0.0
C358 C 0.67897 0.01822 0.8985 0.0
H359 H 0.63302 0.12243 0.76667 0.0
H360 H 0.62905 0.20139 0.78946 0.0
H361 H 0.61949 0.26025 0.89194 0.0
H362 H 0.61747 0.22413 0.94308 0.0
H363 H 0.65187 0.06865 0.98258 0.0
H364 H 0.67963 0.00829 0.9582 0.0
H365 H 0.68925 0.95201 0.85845 0.0
H366 H 0.66759 0.96936 0.80958 0.0
H367 H 0.71951 0.19597 0.91266 0.0
H368 H 0.72712 0.16011 0.82541 0.0
H369 H 0.58018 0.98812 0.89442 0.0
H370 H 0.55435 0.11139 0.86255 0.0
C371 C 0.40391 0.90435 0.80391 0.0
C372 C 0.41893 0.88236 0.78479 0.0
C373 C 0.42289 0.84142 0.7957 0.0
C374 C 0.41072 0.84059 0.82127 0.0
N375 N 0.39942 0.87875 0.82697 0.0
Co376 Co 0.38474 0.89517 0.86396 0.0
N377 N 0.40211 0.84764 0.88492 0.0
C378 C 0.41444 0.81424 0.87296 0.0
C379 C 0.43045 0.79437 0.89172 0.0
C380 C 0.42745 0.81594 0.91692 0.0
C381 C 0.40876 0.84666 0.91281 0.0
N382 N 0.36889 0.91143 0.90015 0.0
C383 C 0.37178 0.89242 0.92574 0.0
C384 C 0.3505 0.89812 0.94227 0.0
C385 C 0.33438 0.92361 0.92708 0.0
C386 C 0.34625 0.93069 0.90185 0.0
N387 N 0.36771 0.94342 0.8438 0.0
C388 C 0.34646 0.96289 0.85228 0.0
C389 C 0.33732 0.99226 0.83303 0.0
C390 C 0.35387 0.99114 0.81096 0.0
C391 C 0.37235 0.96119 0.81813 0.0
N392 N 0.35524 0.85619 0.85699 0.0
C393 C 0.30997 0.80759 0.85148 0.0
C394 C 0.31808 0.83623 0.83009 0.0
C395 C 0.34082 0.85962 0.83306 0.0
C396 C 0.32566 0.80264 0.87499 0.0
C397 C 0.34795 0.82683 0.87732 0.0
N398 N 0.41487 0.93252 0.87089 0.0
C399 C 0.43639 0.9996 0.88374 0.0
C400 C 0.45997 0.98106 0.87741 0.0
C401 C 0.46022 0.93812 0.86819 0.0
C402 C 0.43793 0.91493 0.86508 0.0
C403 C 0.41402 0.97467 0.88041 0.0
H404 H 0.43985 0.88247 0.85746 0.0
H405 H 0.39613 0.98943 0.88513 0.0
H406 H 0.34642 0.88118 0.81618 0.0
H407 H 0.35889 0.82223 0.89617 0.0
C408 C 0.41643 0.81156 0.84338 0.0
C409 C 0.39298 0.94843 0.79927 0.0
C410 C 0.39486 0.8705 0.93541 0.0
C411 C 0.33656 0.95419 0.879 0.0
H412 H 0.42665 0.89467 0.76525 0.0
H413 H 0.43516 0.81671 0.78715 0.0
H414 H 0.44432 0.76973 0.88706 0.0
H415 H 0.43823 0.80986 0.93581 0.0
H416 H 0.34702 0.88526 0.96318 0.0
H417 H 0.316 0.93473 0.93342 0.0
H418 H 0.32067 0.01215 0.8348 0.0
H419 H 0.35215 0.0095 0.79154 0.0
H420 H 0.3068 0.84083 0.81131 0.0
H421 H 0.32045 0.78063 0.8919 0.0
H422 H 0.43525 0.03302 0.89085 0.0
H423 H 0.47778 0.92241 0.86294 0.0
C424 C 0.8856 0.52565 0.33455 0.0
C425 C 0.87434 0.48494 0.33242 0.0
C426 C 0.86337 0.47655 0.35786 0.0
C427 C 0.86883 0.51202 0.37426 0.0
N428 N 0.88272 0.54238 0.36091 0.0
Co429 Co 0.89642 0.59671 0.37825 0.0
N430 N 0.88941 0.57539 0.41732 0.0
C431 C 0.8746 0.54136 0.42409 0.0
C432 C 0.87297 0.53382 0.45254 0.0
C433 C 0.88739 0.56539 0.46467 0.0
C434 C 0.89696 0.59071 0.44285 0.0
N435 N 0.90994 0.65092 0.3958 0.0
C436 C 0.91559 0.66031 0.42323 0.0
C437 C 0.92411 0.70281 0.42579 0.0
C438 C 0.92323 0.72086 0.39926 0.0
C439 C 0.91437 0.68846 0.38193 0.0
N440 N 0.90336 0.61716 0.33901 0.0
C441 C 0.90821 0.65864 0.3316 0.0
C442 C 0.91162 0.66371 0.30303 0.0
C443 C 0.90854 0.6229 0.2917 0.0
C444 C 0.90347 0.59501 0.31403 0.0
N445 N 0.86266 0.62501 0.37657 0.0
C446 C 0.82012 0.68055 0.37205 0.0
C447 C 0.82818 0.65512 0.34913 0.0
C448 C 0.84927 0.6275 0.35187 0.0
C449 C 0.83305 0.67555 0.39762 0.0
C450 C 0.85393 0.64767 0.39945 0.0
N451 N 0.93053 0.57068 0.37973 0.0
C452 C 0.9752 0.57915 0.37179 0.0
C453 C 0.98005 0.53697 0.38156 0.0
C454 C 0.95942 0.51186 0.39049 0.0
C455 C 0.93488 0.52929 0.38946 0.0
C456 C 0.9506 0.59517 0.37099 0.0
H457 H 0.91946 0.50927 0.3965 0.0
H458 H 0.94797 0.62772 0.36319 0.0
H459 H 0.85523 0.60942 0.33363 0.0
H460 H 0.86353 0.64582 0.41929 0.0
C461 C 0.86515 0.51402 0.40328 0.0
C462 C 0.89691 0.54854 0.31039 0.0
C463 C 0.91057 0.63165 0.44767 0.0
C464 C 0.91256 0.69032 0.35237 0.0
H465 H 0.87399 0.46339 0.31439 0.0
H466 H 0.85361 0.44712 0.36407 0.0
H467 H 0.86295 0.50789 0.46317 0.0
H468 H 0.89016 0.56965 0.48708 0.0
H469 H 0.92966 0.71933 0.44497 0.0
H470 H 0.92873 0.75354 0.3933 0.0
H471 H 0.91638 0.69332 0.29181 0.0
H472 H 0.90963 0.61465 0.26953 0.0
H473 H 0.81862 0.65738 0.329 0.0
H474 H 0.82741 0.69395 0.41603 0.0
H475 H 0.99043 0.59971 0.3646 0.0
H476 H 0.96223 0.47897 0.39812 0.0
C477 C 0.17995 0.47552 0.33435 0.0
C478 C 0.19549 0.51179 0.33301 0.0
C479 C 0.20787 0.51393 0.35831 0.0
C480 C 0.19918 0.4791 0.37364 0.0
N481 N 0.18207 0.4552 0.35965 0.0
Co482 Co 0.165 0.40228 0.37423 0.0
N483 N 0.17256 0.41848 0.41382 0.0
C484 C 0.19082 0.44607 0.42203 0.0
C485 C 0.19344 0.44855 0.45074 0.0
C486 C 0.17589 0.42046 0.46127 0.0
C487 C 0.16333 0.40254 0.43837 0.0
N488 N 0.14808 0.34941 0.38904 0.0
C489 C 0.14007 0.33997 0.41564 0.0
C490 C 0.12934 0.29886 0.41656 0.0
C491 C 0.13099 0.28204 0.38969 0.0
C492 C 0.14261 0.3137 0.37381 0.0
N493 N 0.15782 0.3872 0.33431 0.0
C494 C 0.15148 0.34744 0.32485 0.0
C495 C 0.14699 0.34724 0.29622 0.0
C496 C 0.15084 0.38947 0.28728 0.0
C497 C 0.15745 0.41326 0.31098 0.0
N498 N 0.19711 0.36852 0.37251 0.0
C499 C 0.2387 0.31047 0.36866 0.0
C500 C 0.22379 0.31238 0.39293 0.0
C501 C 0.20342 0.3414 0.39448 0.0
C502 C 0.23276 0.33951 0.34657 0.0
C503 C 0.21201 0.36816 0.34891 0.0
N504 N 0.13236 0.43345 0.37593 0.0
C505 C 0.08754 0.43123 0.36733 0.0
C506 C 0.08416 0.47224 0.37946 0.0
C507 C 0.10569 0.49383 0.38968 0.0
C508 C 0.12959 0.47384 0.38779 0.0
C509 C 0.11146 0.41274 0.36567 0.0
H510 H 0.14576 0.49083 0.39603 0.0
H511 H 0.11283 0.3811 0.35617 0.0
H512 H 0.19233 0.34076 0.41338 0.0
H513 H 0.20767 0.38926 0.3313 0.0
C514 C 0.20313 0.4725 0.40244 0.0
C515 C 0.16483 0.45976 0.31059 0.0
C516 C 0.14481 0.36728 0.44078 0.0
C517 C 0.14527 0.31416 0.34418 0.0
H518 H 0.19775 0.53428 0.31559 0.0
H519 H 0.22082 0.53897 0.36512 0.0
H520 H 0.20643 0.46851 0.46261 0.0
H521 H 0.17352 0.4126 0.48324 0.0
H522 H 0.12161 0.2825 0.43484 0.0
H523 H 0.12393 0.25091 0.38249 0.0
H524 H 0.14055 0.32015 0.28353 0.0
H525 H 0.14901 0.40142 0.26587 0.0
H526 H 0.22761 0.29095 0.4106 0.0
H527 H 0.24378 0.33949 0.3274 0.0
H528 H 0.07163 0.41336 0.35906 0.0
H529 H 0.10403 0.52578 0.39912 0.0
C530 C 0.8752 0.47734 0.17888 0.0
C531 C 0.8625 0.51649 0.18213 0.0
C532 C 0.8492 0.52323 0.1578 0.0
C533 C 0.85475 0.48842 0.14084 0.0
N534 N 0.87078 0.46013 0.15293 0.0
Co535 Co 0.88563 0.40813 0.13439 0.0
N536 N 0.8767 0.42973 0.09605 0.0
C537 C 0.85984 0.46113 0.09032 0.0
C538 C 0.85724 0.46939 0.06202 0.0
C539 C 0.87324 0.44108 0.04904 0.0
C540 C 0.8847 0.41686 0.07018 0.0
N541 N 0.9005 0.35623 0.11575 0.0
C542 C 0.90648 0.34911 0.08818 0.0
C543 C 0.9161 0.30756 0.08463 0.0
C544 C 0.91572 0.28791 0.11072 0.0
C545 C 0.90598 0.31846 0.12881 0.0
N546 N 0.89444 0.3873 0.1729 0.0
C547 C 0.90019 0.34598 0.17974 0.0
C548 C 0.90539 0.34105 0.20801 0.0
C549 C 0.90266 0.38181 0.2196 0.0
C550 C 0.896 0.40954 0.19772 0.0
N551 N 0.85308 0.37652 0.13673 0.0
C552 C 0.81178 0.31869 0.14135 0.0
C553 C 0.81952 0.34429 0.16437 0.0
C554 C 0.84005 0.37312 0.16159 0.0
C555 C 0.82442 0.32438 0.11574 0.0
C556 C 0.84473 0.35334 0.11386 0.0
N557 N 0.91837 0.4378 0.13215 0.0
C558 C 0.96317 0.43494 0.1394 0.0
C559 C 0.9659 0.47752 0.1295 0.0
C560 C 0.94433 0.50006 0.12086 0.0
C561 C 0.92071 0.47964 0.12241 0.0
C562 C 0.93943 0.41575 0.14046 0.0
H563 H 0.90437 0.49761 0.11577 0.0
H564 H 0.93822 0.38282 0.1481 0.0
H565 H 0.84589 0.39159 0.17983 0.0
H566 H 0.85423 0.35571 0.09399 0.0
C567 C 0.84977 0.48637 0.11196 0.0
C568 C 0.88977 0.45608 0.20152 0.0
C569 C 0.90081 0.37904 0.06455 0.0
C570 C 0.90473 0.3152 0.15841 0.0
H571 H 0.86284 0.53824 0.20005 0.0
H572 H 0.83805 0.55151 0.1525 0.0
H573 H 0.84566 0.49393 0.05204 0.0
H574 H 0.8759 0.4382 0.02655 0.0
H575 H 0.92218 0.29273 0.06509 0.0
H576 H 0.92225 0.25553 0.11594 0.0
H577 H 0.91145 0.31175 0.21874 0.0
H578 H 0.90525 0.3902 0.2416 0.0
H579 H 0.81013 0.3413 0.18454 0.0
H580 H 0.81898 0.3057 0.09734 0.0
H581 H 0.97938 0.41652 0.14628 0.0
H582 H 0.94574 0.53319 0.11313 0.0
C583 C 0.16109 0.53489 0.18418 0.0
C584 C 0.1668 0.49093 0.18707 0.0
C585 C 0.17649 0.47753 0.16205 0.0
C586 C 0.17492 0.51301 0.14464 0.0
N587 N 0.16457 0.54834 0.15706 0.0
Co588 Co 0.15279 0.60234 0.13704 0.0
N589 N 0.16041 0.57771 0.09916 0.0
C590 C 0.1671 0.5362 0.09392 0.0
C591 C 0.15872 0.52104 0.0684 0.0
C592 C 0.14634 0.55525 0.0565 0.0
C593 C 0.14934 0.59026 0.07472 0.0
N594 N 0.14279 0.65697 0.11661 0.0
C595 C 0.14603 0.66825 0.08892 0.0
C596 C 0.14359 0.71295 0.08548 0.0
C597 C 0.13628 0.7294 0.11113 0.0
C598 C 0.13588 0.69434 0.12915 0.0
N599 N 0.14261 0.62509 0.17497 0.0
C600 C 0.12888 0.66164 0.1785 0.0
C601 C 0.1155 0.66168 0.20311 0.0
C602 C 0.12137 0.62319 0.21611 0.0
C603 C 0.13959 0.60298 0.1999 0.0
N604 N 0.18716 0.62933 0.14069 0.0
C605 C 0.23265 0.67964 0.1388 0.0
C606 C 0.21089 0.69488 0.15192 0.0
C607 C 0.18934 0.669 0.15381 0.0
C608 C 0.23123 0.63703 0.12747 0.0
C609 C 0.20829 0.61307 0.12796 0.0
N610 N 0.11801 0.5777 0.13322 0.0
C611 C 0.07305 0.58941 0.12962 0.0
C612 C 0.06837 0.54477 0.13008 0.0
C613 C 0.08891 0.51666 0.1315 0.0
C614 C 0.11339 0.53362 0.13297 0.0
C615 C 0.09769 0.60501 0.13103 0.0
H616 H 0.12821 0.51034 0.13394 0.0
H617 H 0.09967 0.63954 0.13043 0.0
H618 H 0.1743 0.68273 0.16551 0.0
H619 H 0.20774 0.58174 0.11775 0.0
C620 C 0.17534 0.50934 0.11549 0.0
C621 C 0.15364 0.56281 0.20812 0.0
C622 C 0.14792 0.63616 0.06561 0.0
C623 C 0.12782 0.69394 0.15737 0.0
H624 H 0.16382 0.47012 0.2052 0.0
H625 H 0.18165 0.44458 0.15641 0.0
H626 H 0.16006 0.48825 0.06019 0.0
H627 H 0.13743 0.55518 0.03598 0.0
H628 H 0.14582 0.73167 0.06632 0.0
H629 H 0.13156 0.76283 0.11594 0.0
H630 H 0.10187 0.6855 0.20995 0.0
H631 H 0.11187 0.61059 0.23445 0.0
H632 H 0.21047 0.72708 0.16122 0.0
H633 H 0.24754 0.62264 0.11764 0.0
H634 H 0.05765 0.61229 0.12832 0.0
H635 H 0.08607 0.48172 0.13171 0.0
C636 C 0.135 0.40681 0.69265 0.0
C637 C 0.12309 0.38197 0.71317 0.0
C638 C 0.12076 0.3406 0.7025 0.0
C639 C 0.13061 0.34244 0.67575 0.0
N640 N 0.13873 0.38261 0.66891 0.0
Co641 Co 0.14863 0.40225 0.63045 0.0
N642 N 0.13437 0.34955 0.61189 0.0
C643 C 0.12823 0.31225 0.62518 0.0
C644 C 0.11865 0.28139 0.60715 0.0
C645 C 0.11908 0.30026 0.58085 0.0
C646 C 0.12903 0.34167 0.58424 0.0
N647 N 0.15807 0.42322 0.59217 0.0
C648 C 0.14993 0.41046 0.56633 0.0
C649 C 0.1603 0.43631 0.54532 0.0
C650 C 0.17633 0.46475 0.55822 0.0
C651 C 0.17453 0.45533 0.58642 0.0
N652 N 0.16374 0.45431 0.64866 0.0
C653 C 0.1815 0.47985 0.63707 0.0
C654 C 0.19156 0.50934 0.65557 0.0
C655 C 0.17942 0.50195 0.68051 0.0
C656 C 0.1622 0.46874 0.67561 0.0
N657 N 0.18131 0.37152 0.63421 0.0
C658 C 0.22597 0.32228 0.64041 0.0
C659 C 0.21333 0.32456 0.61446 0.0
C660 C 0.19123 0.34924 0.61181 0.0
C661 C 0.21594 0.34591 0.66308 0.0
C662 C 0.19377 0.37025 0.65956 0.0
N663 N 0.11557 0.43143 0.62715 0.0
C664 C 0.08907 0.49421 0.6185 0.0
C665 C 0.06743 0.46995 0.62517 0.0
C666 C 0.07051 0.42628 0.63246 0.0
C667 C 0.09442 0.40788 0.63334 0.0
C668 C 0.11299 0.4743 0.61958 0.0
H669 H 0.09555 0.37434 0.63949 0.0
H670 H 0.12935 0.49354 0.61458 0.0
H671 H 0.18201 0.34978 0.59163 0.0
H672 H 0.18655 0.3876 0.67758 0.0
C673 C 0.12727 0.31069 0.65478 0.0
C674 C 0.14497 0.45155 0.69712 0.0
C675 C 0.13531 0.37088 0.56048 0.0
C676 C 0.1858 0.47898 0.60808 0.0
H677 H 0.11687 0.39236 0.7338 0.0
H678 H 0.11155 0.31318 0.71247 0.0
H679 H 0.11133 0.24958 0.61259 0.0
H680 H 0.11317 0.2851 0.56133 0.0
H681 H 0.15672 0.43466 0.52298 0.0
H682 H 0.18743 0.48999 0.54828 0.0
H683 H 0.20561 0.53393 0.6513 0.0
H684 H 0.18294 0.51916 0.70002 0.0
H685 H 0.22039 0.307 0.59633 0.0
H686 H 0.22509 0.34524 0.6835 0.0
H687 H 0.08752 0.52827 0.61284 0.0
H688 H 0.0544 0.40641 0.63785 0.0
C689 C 0.901 0.60957 0.70044 0.0
C690 C 0.91435 0.63317 0.72041 0.0
C691 C 0.91771 0.67433 0.70954 0.0
C692 C 0.90707 0.67366 0.68311 0.0
N693 N 0.8974 0.63437 0.67674 0.0
Co694 Co 0.88671 0.61554 0.63839 0.0
N695 N 0.90371 0.66494 0.61921 0.0
C696 C 0.91123 0.70184 0.63193 0.0
C697 C 0.92252 0.73036 0.61347 0.0
C698 C 0.92179 0.71021 0.58755 0.0
C699 C 0.91008 0.67036 0.59159 0.0
N700 N 0.87609 0.59519 0.60045 0.0
C701 C 0.88449 0.60634 0.5744 0.0
C702 C 0.87076 0.58518 0.55358 0.0
C703 C 0.85303 0.56053 0.56708 0.0
C704 C 0.85688 0.56786 0.59531 0.0
N705 N 0.86921 0.56658 0.65738 0.0
C706 C 0.84976 0.54438 0.64641 0.0
C707 C 0.83895 0.51612 0.66527 0.0
C708 C 0.85245 0.52083 0.6897 0.0
C709 C 0.87109 0.55135 0.68422 0.0
N710 N 0.85563 0.65178 0.64103 0.0
C711 C 0.81338 0.70832 0.64419 0.0
C712 C 0.82109 0.68326 0.66757 0.0
C713 C 0.84219 0.6554 0.6656 0.0
C714 C 0.82719 0.70385 0.61924 0.0
C715 C 0.84795 0.67567 0.61808 0.0
N716 N 0.91823 0.58154 0.63549 0.0
C717 C 0.94226 0.51717 0.62349 0.0
C718 C 0.96491 0.53861 0.63009 0.0
C719 C 0.96349 0.58149 0.63953 0.0
C720 C 0.94031 0.60206 0.64209 0.0
C721 C 0.91908 0.53929 0.62628 0.0
H722 H 0.94055 0.63509 0.64934 0.0
H723 H 0.90193 0.52246 0.62093 0.0
H724 H 0.84778 0.63714 0.68407 0.0
H725 H 0.85799 0.67379 0.59845 0.0
C726 C 0.91187 0.70426 0.66158 0.0
C727 C 0.89007 0.56524 0.70505 0.0
C728 C 0.90325 0.64027 0.56849 0.0
C729 C 0.84461 0.5466 0.61749 0.0
H730 H 0.9212 0.622 0.74064 0.0
H731 H 0.92843 0.7005 0.71897 0.0
H732 H 0.9312 0.7613 0.61841 0.0
H733 H 0.92881 0.72343 0.56789 0.0
H734 H 0.87276 0.58832 0.53098 0.0
H735 H 0.83917 0.53948 0.55745 0.0
H736 H 0.82357 0.49384 0.66152 0.0
H737 H 0.84896 0.50362 0.70926 0.0
H738 H 0.81102 0.68551 0.68734 0.0
H739 H 0.82202 0.72232 0.60062 0.0
H740 H 0.94249 0.48376 0.61624 0.0
H741 H 0.98038 0.59924 0.64497 0.0
C742 C 0.13161 0.5946 0.80888 0.0
C743 C 0.11204 0.60926 0.79196 0.0
C744 C 0.09932 0.63983 0.8071 0.0
C745 C 0.1113 0.64173 0.83264 0.0
N746 N 0.13112 0.61477 0.83469 0.0
Co747 Co 0.14899 0.60087 0.87103 0.0
N748 N 0.13173 0.64846 0.89283 0.0
C749 C 0.11084 0.66878 0.8839 0.0
C750 C 0.09802 0.68942 0.90498 0.0
C751 C 0.11157 0.68175 0.92896 0.0
C752 C 0.1327 0.65833 0.92106 0.0
N753 N 0.16755 0.5878 0.9066 0.0
C754 C 0.17236 0.61646 0.92772 0.0
C755 C 0.1947 0.60647 0.9413 0.0
C756 C 0.20251 0.56754 0.93055 0.0
C757 C 0.18537 0.55716 0.91 0.0
N758 N 0.16588 0.55222 0.85014 0.0
C759 C 0.18163 0.52248 0.86144 0.0
C760 C 0.19362 0.49759 0.84166 0.0
C761 C 0.18455 0.5115 0.81631 0.0
C762 C 0.16672 0.54318 0.82204 0.0
N763 N 0.17701 0.64166 0.86067 0.0
C764 C 0.21761 0.70124 0.8533 0.0
C765 C 0.22171 0.65668 0.85721 0.0
C766 C 0.20148 0.62784 0.86056 0.0
C767 C 0.1925 0.71518 0.85194 0.0
C768 C 0.1726 0.68504 0.85563 0.0
N769 N 0.1203 0.56146 0.88142 0.0
C770 C 0.08351 0.52344 0.86374 0.0
C771 C 0.07027 0.53114 0.88869 0.0
C772 C 0.08365 0.55013 0.91114 0.0
C773 C 0.10874 0.56397 0.90727 0.0
C774 C 0.1083 0.5382 0.86076 0.0
H775 H 0.11819 0.57868 0.9249 0.0
H776 H 0.11695 0.53307 0.84086 0.0
H777 H 0.20622 0.59445 0.86366 0.0
H778 H 0.15366 0.69715 0.85488 0.0
C779 C 0.10267 0.6643 0.85615 0.0
C780 C 0.14812 0.55762 0.801 0.0
C781 C 0.15263 0.64329 0.94079 0.0
C782 C 0.18959 0.52607 0.88929 0.0
H783 H 0.1064 0.59746 0.77144 0.0
H784 H 0.08236 0.65659 0.80088 0.0
H785 H 0.08014 0.70585 0.90342 0.0
H786 H 0.10546 0.69056 0.94985 0.0
H787 H 0.20316 0.62344 0.95893 0.0
H788 H 0.21938 0.54996 0.93614 0.0
H789 H 0.20827 0.47382 0.84516 0.0
H790 H 0.18986 0.4986 0.79593 0.0
H791 H 0.24065 0.64409 0.85808 0.0
H792 H 0.18828 0.74927 0.84856 0.0
H793 H 0.07437 0.50766 0.84606 0.0
H794 H 0.07456 0.55544 0.93127 0.0
C795 C 0.9007 0.40472 0.81033 0.0
C796 C 0.91413 0.38081 0.79067 0.0
C797 C 0.91744 0.33989 0.80191 0.0
C798 C 0.90667 0.34101 0.82824 0.0
N799 N 0.89697 0.38037 0.83421 0.0
Co800 Co 0.88584 0.39972 0.8723 0.0
N801 N 0.90258 0.35064 0.89212 0.0
C802 C 0.91056 0.31385 0.8797 0.0
C803 C 0.92158 0.2856 0.89852 0.0
C804 C 0.92014 0.30575 0.92439 0.0
C805 C 0.90825 0.3453 0.91997 0.0
N806 N 0.87463 0.42057 0.90989 0.0
C807 C 0.88228 0.40937 0.93623 0.0
C808 C 0.86824 0.43089 0.95654 0.0
C809 C 0.85101 0.45573 0.94247 0.0
C810 C 0.85546 0.44818 0.91442 0.0
N811 N 0.86865 0.44844 0.85266 0.0
C812 C 0.84909 0.47081 0.86309 0.0
C813 C 0.83841 0.49853 0.84382 0.0
C814 C 0.85209 0.4933 0.81965 0.0
C815 C 0.87071 0.46306 0.8257 0.0
N816 N 0.85467 0.36323 0.86923 0.0
C817 C 0.81239 0.30612 0.86566 0.0
C818 C 0.82043 0.3309 0.84226 0.0
C819 C 0.84152 0.35901 0.84444 0.0
C820 C 0.82591 0.31122 0.89082 0.0
C821 C 0.84665 0.33964 0.89218 0.0
N822 N 0.91759 0.43382 0.87574 0.0
C823 C 0.94214 0.4966 0.89053 0.0
C824 C 0.96478 0.47543 0.88355 0.0
C825 C 0.963 0.43357 0.87233 0.0
C826 C 0.93964 0.41361 0.86874 0.0
C827 C 0.91875 0.4753 0.88637 0.0
H828 H 0.93978 0.38105 0.86069 0.0
H829 H 0.90169 0.49199 0.8921 0.0
H830 H 0.84732 0.37699 0.82594 0.0
H831 H 0.85639 0.34193 0.91199 0.0
C832 C 0.91145 0.31095 0.85007 0.0
C833 C 0.88985 0.44892 0.80526 0.0
C834 C 0.90042 0.37489 0.94292 0.0
C835 C 0.84358 0.4691 0.89188 0.0
H836 H 0.92106 0.39163 0.77041 0.0
H837 H 0.92822 0.3136 0.7928 0.0
H838 H 0.93042 0.25473 0.8939 0.0
H839 H 0.92669 0.29261 0.94429 0.0
H840 H 0.86966 0.42776 0.97917 0.0
H841 H 0.83702 0.47691 0.95161 0.0
H842 H 0.82296 0.52073 0.84713 0.0
H843 H 0.84874 0.50998 0.79986 0.0
H844 H 0.81063 0.32824 0.82231 0.0
H845 H 0.82053 0.29306 0.90948 0.0
H846 H 0.94254 0.52911 0.89932 0.0
H847 H 0.97979 0.41584 0.86665 0.0
C848 C 0.42342 0.15621 0.48783 0.0
C849 C 0.40833 0.12428 0.47397 0.0
C850 C 0.3997 0.09572 0.52078 0.0
C851 C 0.40791 0.13417 0.53463 0.0
N852 N 0.41741 0.21003 0.52395 0.0
N853 N 0.37088 0.08138 0.48325 0.0
C854 C 0.41752 0.1674 0.5164 0.0
C855 C 0.39297 0.0989 0.49211 0.0
N856 N 0.44341 0.17501 0.47486 0.0
N857 N 0.39668 0.05735 0.53482 0.0
H858 H 0.36337 0.08845 0.4634 0.0
H859 H 0.35931 0.06389 0.49697 0.0
H860 H 0.39026 0.02944 0.52448 0.0
H861 H 0.40283 0.05316 0.55559 0.0
H862 H 0.45465 0.19775 0.4853 0.0
H863 H 0.44973 0.16456 0.45517 0.0
H864 H 0.42346 0.23436 0.51009 0.0
H865 H 0.40806 0.22078 0.54194 0.0
C866 C 0.61405 0.87464 0.51566 0.0
C867 C 0.63349 0.85681 0.5326 0.0
C868 C 0.65422 0.82997 0.48939 0.0
C869 C 0.63734 0.85466 0.47257 0.0
N870 N 0.60036 0.89881 0.46907 0.0
N871 N 0.672 0.81617 0.53573 0.0
C872 C 0.6167 0.87582 0.48556 0.0
C873 C 0.65324 0.83319 0.51949 0.0
N874 N 0.59326 0.89104 0.52863 0.0
N875 N 0.67154 0.80406 0.47649 0.0
H876 H 0.67119 0.81521 0.55765 0.0
H877 H 0.6888 0.80439 0.52767 0.0
H878 H 0.67322 0.802 0.45462 0.0
H879 H 0.68281 0.78185 0.48718 0.0
H880 H 0.57744 0.90192 0.51789 0.0
H881 H 0.59109 0.8904 0.55054 0.0
H882 H 0.58653 0.91924 0.477 0.0
H883 H 0.60127 0.89851 0.44706 0.0
C884 C 0.38572 0.90354 0.01092 0.0
C885 C 0.40083 0.87636 0.02819 0.0
C886 C 0.40978 0.83717 0.98416 0.0
C887 C 0.40079 0.87241 0.96716 0.0
N888 N 0.3905 0.94949 0.97031 0.0
N889 N 0.43561 0.82528 0.02534 0.0
C890 C 0.39276 0.90953 0.98254 0.0
C891 C 0.41571 0.84549 0.01315 0.0
N892 N 0.36358 0.92017 0.02015 0.0
N893 N 0.40893 0.7953 0.97506 0.0
H894 H 0.44219 0.83408 0.04529 0.0
H895 H 0.44662 0.80327 0.01404 0.0
H896 H 0.39941 0.78664 0.95665 0.0
H897 H 0.41455 0.76954 0.98802 0.0
H898 H 0.35222 0.9391 0.007 0.0
H899 H 0.3559 0.91123 0.03958 0.0
H900 H 0.39714 0.95583 0.94998 0.0
H901 H 0.3842 0.97632 0.98181 0.0
C902 C 0.65026 0.171 0.98945 0.0
C903 C 0.63079 0.14816 0.97513 0.0
C904 C 0.61318 0.1258 0.02117 0.0
C905 C 0.63355 0.14618 0.03533 0.0
N906 N 0.66782 0.19712 0.03373 0.0
N907 N 0.5906 0.11323 0.97705 0.0
C908 C 0.65072 0.17207 0.01965 0.0
C909 C 0.61109 0.12899 0.99104 0.0
N910 N 0.66924 0.18933 0.97418 0.0
N911 N 0.59654 0.10164 0.03654 0.0
H912 H 0.58885 0.11535 0.95513 0.0
H913 H 0.57461 0.10142 0.98702 0.0
H914 H 0.59702 0.10047 0.05857 0.0
H915 H 0.58286 0.08172 0.02769 0.0
H916 H 0.68588 0.20073 0.98298 0.0
H917 H 0.66879 0.19178 0.95229 0.0
H918 H 0.67928 0.22009 0.02398 0.0
H919 H 0.66912 0.19766 0.05566 0.0
C920 C 0.92993 0.62649 0.52502 0.0
C921 C 0.90992 0.64944 0.53797 0.0
C922 C 0.89457 0.67199 0.49106 0.0
C923 C 0.91364 0.6467 0.47799 0.0
N924 N 0.95287 0.60911 0.48195 0.0
N925 N 0.87706 0.70267 0.53401 0.0
C926 C 0.93257 0.62728 0.49492 0.0
C927 C 0.89365 0.6753 0.52114 0.0
N928 N 0.94571 0.60238 0.54153 0.0
N929 N 0.87641 0.69074 0.47477 0.0
H930 H 0.87544 0.70497 0.55586 0.0
H931 H 0.86638 0.72572 0.52328 0.0
H932 H 0.87742 0.69199 0.45287 0.0
H933 H 0.85992 0.70386 0.48276 0.0
H934 H 0.95898 0.58087 0.53361 0.0
H935 H 0.94486 0.60284 0.56355 0.0
H936 H 0.96839 0.59696 0.49266 0.0
H937 H 0.95503 0.6095 0.46004 0.0
C938 C 0.15073 0.32967 0.51725 0.0
C939 C 0.13241 0.35708 0.52992 0.0
C940 C 0.11597 0.3754 0.48261 0.0
C941 C 0.13673 0.35405 0.47016 0.0
N942 N 0.17243 0.30698 0.47452 0.0
N943 N 0.09591 0.40225 0.52544 0.0
C944 C 0.15323 0.32893 0.48719 0.0
C945 C 0.11418 0.37807 0.51274 0.0
N946 N 0.16612 0.30517 0.534 0.0
N947 N 0.0983 0.39361 0.46537 0.0
H948 H 0.09361 0.40302 0.54732 0.0
H949 H 0.08331 0.4221 0.5147 0.0
H950 H 0.0994 0.39163 0.4434 0.0
H951 H 0.08182 0.40793 0.47244 0.0
H952 H 0.17836 0.28158 0.52652 0.0
H953 H 0.16564 0.30622 0.55592 0.0
H954 H 0.18727 0.2925 0.48522 0.0
H955 H 0.17388 0.30405 0.45267 0.0
C956 C 0.92382 0.39014 0.98857 0.0
C957 C 0.90556 0.36527 0.97379 0.0
C958 C 0.88797 0.34037 0.01919 0.0
C959 C 0.90551 0.36686 0.03399 0.0
N960 N 0.94353 0.40869 0.03348 0.0
N961 N 0.87393 0.30928 0.97473 0.0
C962 C 0.92466 0.38882 0.0188 0.0
C963 C 0.889 0.33767 0.98908 0.0
N964 N 0.93958 0.41659 0.97361 0.0
N965 N 0.86932 0.31985 0.03383 0.0
H966 H 0.87352 0.30749 0.9528 0.0
H967 H 0.86333 0.28502 0.98441 0.0
H968 H 0.86879 0.31877 0.05576 0.0
H969 H 0.85378 0.30539 0.02441 0.0
H970 H 0.95149 0.43943 0.98276 0.0
H971 H 0.93998 0.41683 0.95158 0.0
H972 H 0.95924 0.4226 0.0241 0.0
H973 H 0.94441 0.40806 0.0555 0.0
C974 C 0.13685 0.67712 0.01821 0.0
C975 C 0.15141 0.6467 0.03418 0.0
C976 C 0.16035 0.61084 0.99 0.0
C977 C 0.15104 0.64569 0.97322 0.0
N978 N 0.14056 0.72254 0.97666 0.0
N979 N 0.18783 0.59999 0.02955 0.0
C980 C 0.14228 0.68249 0.98875 0.0
C981 C 0.16734 0.61957 0.01807 0.0
N982 N 0.11662 0.6975 0.02947 0.0
N983 N 0.16056 0.56897 0.9806 0.0
H984 H 0.19401 0.60736 0.04992 0.0
H985 H 0.1993 0.57962 0.01757 0.0
H986 H 0.16698 0.54345 0.9933 0.0
H987 H 0.15183 0.55988 0.96179 0.0
H988 H 0.1055 0.71843 0.0174 0.0
H989 H 0.10954 0.6892 0.04926 0.0
H990 H 0.13502 0.74976 0.98826 0.0
H991 H 0.14695 0.72848 0.95619 0.0
C992 C 0.54085 0.98436 0.40136 0.0
C993 C 0.55555 0.9843 0.37633 0.0
C994 C 0.51879 0.0096 0.34923 0.0
C995 C 0.5046 0.01272 0.37454 0.0
N996 N 0.50332 0.00958 0.42536 0.0
N997 N 0.55984 0.00412 0.32739 0.0
C998 C 0.51599 1.00186 0.40081 0.0
C999 C 0.54485 0.99905 0.35054 0.0
N1000 N 0.55038 0.96642 0.42552 0.0
N1001 N 0.50712 0.01536 0.32379 0.0
H1002 H 0.57896 0.9972 0.32774 0.0
H1003 H 0.55395 0.01887 0.30873 0.0
H1004 H 0.48812 0.02287 0.32197 0.0
H1005 H 0.51562 0.009 0.30447 0.0
H1006 H 0.53975 0.96071 0.44357 0.0
H1007 H 0.5686 0.95436 0.42691 0.0
H1008 H 0.51148 0.00709 0.44527 0.0
H1009 H 0.48509 0.02177 0.42581 0.0
C1010 C 0.5129 0.98655 0.15478 0.0
C1011 C 0.49914 0.984 0.12911 0.0
C1012 C 0.53579 0.01293 0.10337 0.0
C1013 C 0.55012 0.01225 0.12872 0.0
N1014 N 0.55355 0.99205 0.17773 0.0
N1015 N 0.49842 0.98896 0.07836 0.0
C1016 C 0.53897 0.99724 0.1542 0.0
C1017 C 0.51087 0.99564 0.10322 0.0
N1018 N 0.50081 0.97985 0.17986 0.0
N1019 N 0.54572 0.03148 0.07963 0.0
H1020 H 0.48004 0.9774 0.07744 0.0
H1021 H 0.50681 0.9919 0.05862 0.0
H1022 H 0.56397 0.04361 0.07876 0.0
H1023 H 0.53539 0.03769 0.0614 0.0
H1024 H 0.50894 0.98572 0.19948 0.0
H1025 H 0.48181 0.97194 0.1811 0.0
H1026 H 0.54735 0.97706 0.19617 0.0
H1027 H 0.57265 0.99933 0.17803 0.0
C1028 C 0.52386 0.98207 0.65145 0.0
C1029 C 0.5372 0.97587 0.62575 0.0
C1030 C 0.49937 0.99888 0.5993 0.0
C1031 C 0.48578 0.003 0.62498 0.0
N1032 N 0.48357 0.98943 0.67491 0.0
N1033 N 0.53591 0.96996 0.57504 0.0
C1034 C 0.49762 0.99151 0.65083 0.0
C1035 C 0.5244 0.9818 0.5996 0.0
N1036 N 0.53655 0.98111 0.67654 0.0
N1037 N 0.48872 0.01289 0.57467 0.0
H1038 H 0.55406 0.95745 0.57441 0.0
H1039 H 0.52679 0.96909 0.5556 0.0
H1040 H 0.47028 0.02401 0.57352 0.0
H1041 H 0.49855 0.01591 0.5558 0.0
H1042 H 0.52858 0.98997 0.69574 0.0
H1043 H 0.55577 0.97537 0.67793 0.0
H1044 H 0.4903 0.97723 0.69399 0.0
H1045 H 0.46438 0.99597 0.67508 0.0
C1046 C 0.52338 0.02573 0.85301 0.0
C1047 C 0.53643 0.03201 0.87895 0.0
C1048 C 0.49816 0.00899 0.90467 0.0
C1049 C 0.48481 0.00505 0.87875 0.0
N1050 N 0.4834 0.0183 0.82873 0.0
N1051 N 0.53456 0.03749 0.92964 0.0
C1052 C 0.49708 0.01626 0.85311 0.0
C1053 C 0.52329 0.0259 0.90484 0.0
N1054 N 0.5364 0.02682 0.82817 0.0
N1055 N 0.48717 0.99501 0.92909 0.0
H1056 H 0.55279 0.04974 0.93063 0.0
H1057 H 0.52523 0.03835 0.94892 0.0
H1058 H 0.46869 0.98391 0.92991 0.0
H1059 H 0.49676 0.99188 0.94814 0.0
H1060 H 0.5287 0.01791 0.80881 0.0
H1061 H 0.55562 0.03277 0.82718 0.0
H1062 H 0.49043 0.0304 0.80978 0.0
H1063 H 0.4642 0.01179 0.82812 0.0
C1064 C 1.02005 0.5132 0.40719 0.0
C1065 C 1.00665 0.51959 0.38149 0.0
C1066 C 0.04534 0.50234 0.35507 0.0
C1067 C 0.05803 0.49167 0.38062 0.0
N1068 N 0.05588 0.48064 0.43096 0.0
N1069 N 1.00563 0.51263 0.33084 0.0
C1070 C 0.04494 0.4955 0.4067 0.0
C1071 C 1.0191 0.51207 0.3554 0.0
N1072 N 1.00933 0.52541 0.43213 0.0
N1073 N 0.05857 0.50447 0.33043 0.0
H1074 H 0.98643 0.51889 0.33019 0.0
H1075 H 1.0129 0.50285 0.31147 0.0
H1076 H 0.07774 0.49813 0.32937 0.0
H1077 H 0.05117 0.51652 0.31163 0.0
H1078 H 1.01902 0.52621 0.45122 0.0
H1079 H 0.99128 0.53823 0.43341 0.0
H1080 H 0.04636 0.47776 0.45005 0.0
H1081 H 0.07396 0.46787 0.43155 0.0
C1082 C 0.03122 0.51259 0.10399 0.0
C1083 C 0.04194 0.52796 0.1296 0.0
C1084 C 1.00148 0.51697 0.15363 0.0
C1085 C 0.99146 0.49788 0.12875 0.0
N1086 N 0.99729 0.47329 0.08095 0.0
N1087 N 0.03845 0.5398 0.17972 0.0
C1088 C 1.00648 0.49463 0.10408 0.0
C1089 C 0.02734 0.52887 0.15467 0.0
N1090 N 0.04447 0.51627 0.07941 0.0
N1091 N 0.98605 0.52453 0.1761 0.0
H1092 H 0.05723 0.54897 0.1813 0.0
H1093 H 0.02972 0.5365 0.19925 0.0
H1094 H 0.96709 0.51621 0.176 0.0
H1095 H 0.99136 0.54229 0.19383 0.0
H1096 H 0.03685 0.51025 0.05955 0.0
H1097 H 0.0627 0.52852 0.07862 0.0
H1098 H 1.00813 0.46517 0.06349 0.0
H1099 H 0.97904 0.46116 0.0799 0.0
C1100 C 1.00367 0.50757 0.65342 0.0
C1101 C 0.99036 0.51733 0.62816 0.0
C1102 C 0.02751 0.49521 0.60049 0.0
C1103 C 0.04147 0.48939 0.62583 0.0
N1104 N 0.04392 0.49647 0.67639 0.0
N1105 N 0.99061 0.52554 0.57758 0.0
C1106 C 0.02979 0.49739 0.65229 0.0
C1107 C 1.00256 0.5124 0.60165 0.0
N1108 N 0.99108 0.5069 0.67854 0.0
N1109 N 0.03783 0.48304 0.57532 0.0
H1110 H 0.97222 0.53691 0.57751 0.0
H1111 H 0.99939 0.52786 0.55801 0.0
H1112 H 0.0561 0.47134 0.57358 0.0
H1113 H 0.02778 0.48164 0.55649 0.0
H1114 H 0.9989 0.49576 0.69736 0.0
H1115 H 0.97197 0.51364 0.6801 0.0
H1116 H 0.03731 0.50646 0.696 0.0
H1117 H 0.06304 0.48944 0.67639 0.0
C1118 C 0.03348 0.48595 0.90755 0.0
C1119 C 0.04247 0.52062 0.89035 0.0
C1120 C 0.99982 0.52869 0.87012 0.0
C1121 C 0.99062 0.49513 0.88811 0.0
N1122 N 0.99768 0.44886 0.9284 0.0
N1123 N 0.03265 0.58158 0.86021 0.0
C1124 C 1.0072 0.47607 0.90823 0.0
C1125 C 0.0251 0.54399 0.87318 0.0
N1126 N 0.05017 0.46087 0.92221 0.0
N1127 N 0.98481 0.54462 0.84912 0.0
H1128 H 0.05076 0.59407 0.86223 0.0
H1129 H 1.02041 0.60253 0.84976 0.0
H1130 H 0.96626 0.53476 0.84635 0.0
H1131 H 0.99126 0.56516 0.83319 0.0
H1132 H 0.04525 0.43211 0.93249 0.0
H1133 H 0.06941 0.46684 0.92223 0.0
H1134 H 1.00809 0.43728 0.94544 0.0
H1135 H 0.97867 0.44126 0.9296 0.0
C1136 C 0.28502 0.28946 0.37334 0.0
C1137 C 0.25993 0.27742 0.36661 0.0
C1138 C 0.27399 0.20067 0.36176 0.0
C1139 C 0.29932 0.2131 0.3669 0.0
N1140 N 0.3294 0.27091 0.3729 0.0
N1141 N 0.23129 0.22245 0.35015 0.0
C1142 C 0.3049 0.258 0.37139 0.0
C1143 C 0.25471 0.23322 0.35956 0.0
N1144 N 0.28979 0.33084 0.38248 0.0
N1145 N 0.26813 0.1574 0.36009 0.0
H1146 H 0.21675 0.24504 0.34863 0.0
H1147 H 0.22674 0.19219 0.34169 0.0
H1148 H 0.28158 0.13287 0.36142 0.0
H1149 H 0.24986 0.14555 0.3596 0.0
H1150 H 0.30689 0.34062 0.39098 0.0
H1151 H 0.27601 0.35486 0.38344 0.0
H1152 H 0.33504 0.30337 0.37305 0.0
H1153 H 0.34435 0.24915 0.37162 0.0
C1154 C 0.75356 0.73032 0.36556 0.0
C1155 C 0.75867 0.77572 0.368 0.0
C1156 C 0.80408 0.75877 0.36885 0.0
C1157 C 0.79883 0.71324 0.36941 0.0
N1158 N 0.76816 0.65579 0.37164 0.0
N1159 N 0.78893 0.83283 0.37531 0.0
C1160 C 0.77342 0.6991 0.36853 0.0
C1161 C 0.78401 0.78981 0.37042 0.0
N1162 N 0.72966 0.717 0.35968 0.0
N1163 N 0.82834 0.77243 0.36601 0.0
H1164 H 0.77492 0.85645 0.37617 0.0
H1165 H 0.8066 0.84471 0.38061 0.0
H1166 H 0.84341 0.75092 0.3648 0.0
H1167 H 0.83339 0.80472 0.36239 0.0
H1168 H 0.72497 0.68504 0.35462 0.0
H1169 H 0.71475 0.73868 0.35742 0.0
H1170 H 0.75012 0.64361 0.3745 0.0
H1171 H 0.78205 0.6321 0.37355 0.0
C1172 C 0.27037 0.71614 0.11293 0.0
C1173 C 0.25608 0.70891 0.13799 0.0
C1174 C 0.27906 0.77063 0.15947 0.0
C1175 C 0.29594 0.77354 0.13623 0.0
N1176 N 0.31105 0.73656 0.09445 0.0
N1177 N 0.25489 0.72127 0.18842 0.0
C1178 C 0.29262 0.74259 0.11398 0.0
C1179 C 0.26298 0.73362 0.16228 0.0
N1180 N 0.26233 0.69998 0.08768 0.0
N1181 N 0.27705 0.80412 0.17822 0.0
H1182 H 0.24488 0.69253 0.19181 0.0
H1183 H 0.26088 0.73676 0.20682 0.0
H1184 H 0.28627 0.83378 0.17547 0.0
H1185 H 0.26368 0.8043 0.19427 0.0
H1186 H 0.27115 0.70756 0.06865 0.0
H1187 H 0.24538 0.68357 0.08527 0.0
H1188 H 0.31015 0.71212 0.07921 0.0
H1189 H 0.32844 0.75194 0.09573 0.0
C1190 C 0.74622 0.26539 0.14639 0.0
C1191 C 0.75222 0.22046 0.14338 0.0
C1192 C 0.79723 0.23984 0.14406 0.0
C1193 C 0.79114 0.28498 0.14383 0.0
N1194 N 0.75957 0.34083 0.14162 0.0
N1195 N 0.78354 0.16523 0.13618 0.0
C1196 C 0.76553 0.29775 0.14431 0.0
C1197 C 0.77779 0.20778 0.14152 0.0
N1198 N 0.72202 0.2771 0.15194 0.0
N1199 N 0.82166 0.22753 0.1474 0.0
H1200 H 0.76996 0.14088 0.13457 0.0
H1201 H 0.80151 0.15452 0.13126 0.0
H1202 H 0.8363 0.2499 0.14934 0.0
H1203 H 0.82723 0.19545 0.15075 0.0
H1204 H 0.71669 0.3086 0.15734 0.0
H1205 H 0.70748 0.2545 0.15361 0.0
H1206 H 0.74139 0.35207 0.13846 0.0
H1207 H 0.77307 0.36537 0.1404 0.0
C1208 C 0.74544 0.75329 0.64291 0.0
C1209 C 0.7496 0.79917 0.6432 0.0
C1210 C 0.79516 0.78502 0.6486 0.0
C1211 C 0.79118 0.7394 0.64542 0.0
N1212 N 0.76251 0.68051 0.63628 0.0
N1213 N 0.779 0.85871 0.64304 0.0
C1214 C 0.76627 0.72371 0.64178 0.0
C1215 C 0.77465 0.81498 0.64533 0.0
N1216 N 0.72145 0.73784 0.6446 0.0
N1217 N 0.81859 0.79975 0.65533 0.0
H1218 H 0.76464 0.88147 0.64084 0.0
H1219 H 0.79681 0.87226 0.64115 0.0
H1220 H 0.83395 0.77904 0.65756 0.0
H1221 H 0.82245 0.83181 0.661 0.0
H1222 H 0.71706 0.7051 0.64753 0.0
H1223 H 0.70585 0.75821 0.64557 0.0
H1224 H 0.74534 0.6676 0.63002 0.0
H1225 H 0.77706 0.65785 0.63595 0.0
C1226 C 0.27333 0.31483 0.64637 0.0
C1227 C 0.24936 0.29481 0.64377 0.0
C1228 C 0.26994 0.22262 0.64335 0.0
C1229 C 0.29374 0.24252 0.64769 0.0
N1230 N 0.31745 0.30716 0.6584 0.0
N1231 N 0.22456 0.22923 0.64517 0.0
C1232 C 0.29519 0.28855 0.6507 0.0
C1233 C 0.24762 0.24854 0.64383 0.0
N1234 N 0.27537 0.359 0.64353 0.0
N1235 N 0.26869 0.17906 0.63761 0.0
H1236 H 0.2079 0.24694 0.64559 0.0
H1237 H 0.22196 0.19597 0.64837 0.0
H1238 H 0.28441 0.15894 0.63733 0.0
H1239 H 0.25239 0.16346 0.63095 0.0
H1240 H 0.29245 0.37526 0.64198 0.0
H1241 H 0.25994 0.37926 0.6404 0.0
H1242 H 0.31932 0.33981 0.66389 0.0
H1243 H 0.33372 0.28905 0.66175 0.0
C1244 C 0.77363 0.19892 0.86438 0.0
C1245 C 0.74851 0.21445 0.86602 0.0
C1246 C 0.76516 0.29016 0.86743 0.0
C1247 C 0.79016 0.27472 0.86425 0.0
N1248 N 0.81771 0.21443 0.85518 0.0
N1249 N 0.72036 0.27559 0.86409 0.0
C1250 C 0.79418 0.22905 0.86139 0.0
C1251 C 0.74434 0.26034 0.86613 0.0
N1252 N 0.77799 0.15523 0.86685 0.0
N1253 N 0.7613 0.33338 0.87265 0.0
H1254 H 0.70478 0.25508 0.86305 0.0
H1255 H 0.71595 0.30825 0.86097 0.0
H1256 H 0.77582 0.35617 0.87306 0.0
H1257 H 0.74405 0.34623 0.87857 0.0
H1258 H 0.79578 0.14182 0.86911 0.0
H1259 H 0.76362 0.13238 0.86883 0.0
H1260 H 0.82167 0.18235 0.84974 0.0
H1261 H 0.83308 0.23523 0.85319 0.0
C1262 C 0.25716 0.72815 0.82839 0.0
C1263 C 0.23981 0.73223 0.85107 0.0
C1264 C 0.26611 0.79167 0.8704 0.0
C1265 C 0.28511 0.78332 0.85 0.0
N1266 N 0.29981 0.7385 0.81172 0.0
N1267 N 0.23014 0.76414 0.89626 0.0
C1268 C 0.28084 0.75033 0.82945 0.0
C1269 C 0.24487 0.76321 0.87269 0.0
N1270 N 0.25077 0.70375 0.80538 0.0
N1271 N 0.268 0.82764 0.88722 0.0
H1272 H 0.2147 0.74376 0.89906 0.0
H1273 H 0.23453 0.78237 0.91412 0.0
H1274 H 0.28289 0.8496 0.88585 0.0
H1275 H 0.25364 0.83806 0.90045 0.0
H1276 H 0.26137 0.70292 0.78695 0.0
H1277 H 0.23357 0.68776 0.80365 0.0
H1278 H 0.29886 0.71149 0.79849 0.0
H1279 H 0.3174 0.7533 0.81199 0.0
C1280 C 0.40321 0.03794 0.24808 0.0
C1281 C 0.40632 0.02225 0.2761 0.0
C1282 C 0.40506 0.94803 0.25647 0.0
C1283 C 0.4061 0.96409 0.22831 0.0
N1284 N 0.41563 0.02723 0.19959 0.0
N1285 N 0.41923 0.96038 0.30433 0.0
C1286 C 0.40907 0.01001 0.22504 0.0
C1287 C 0.41092 0.9767 0.27925 0.0
N1288 N 0.3916 0.07662 0.24289 0.0
N1289 N 0.39543 0.90788 0.26222 0.0
H1290 H 0.42418 0.98058 0.32112 0.0
H1291 H 0.42342 0.92743 0.30697 0.0
H1292 H 0.38707 0.88861 0.24676 0.0
H1293 H 0.39286 0.89675 0.28285 0.0
H1294 H 0.38758 0.08721 0.22242 0.0
H1295 H 0.38318 0.09482 0.25881 0.0
H1296 H 0.42055 0.00755 0.18257 0.0
H1297 H 0.41851 0.06059 0.19677 0.0
C1298 C 0.63469 0.00671 0.24088 0.0
C1299 C 0.65725 0.02249 0.22849 0.0
C1300 C 0.68132 0.98132 0.264 0.0
C1301 C 0.65902 0.96997 0.27862 0.0
N1302 N 0.61414 0.97578 0.28225 0.0
N1303 N 0.70178 0.03357 0.23339 0.0
C1304 C 0.63556 0.98374 0.26736 0.0
C1305 C 0.68047 0.01256 0.24174 0.0
N1306 N 0.6125 0.01267 0.22702 0.0
N1307 N 0.70339 0.96157 0.271 0.0
H1308 H 0.70179 0.05743 0.21769 0.0
H1309 H 0.71881 0.03046 0.24401 0.0
H1310 H 0.70461 0.93766 0.28663 0.0
H1311 H 0.7198 0.96573 0.25939 0.0
H1312 H 0.59576 0.99805 0.2332 0.0
H1313 H 0.61117 0.02995 0.20808 0.0
H1314 H 0.59678 0.98877 0.27681 0.0
H1315 H 0.61406 0.95845 0.30121 0.0
C1316 C 0.66707 0.0233 0.76413 0.0
C1317 C 0.64421 0.03338 0.77801 0.0
C1318 C 0.6214 0.99524 0.73971 0.0
C1319 C 0.6445 0.98115 0.72784 0.0
N1320 N 0.68917 0.97342 0.73344 0.0
N1321 N 0.59944 0.02473 0.78053 0.0
C1322 C 0.66727 0.99258 0.7416 0.0
C1323 C 0.62128 0.0182 0.76616 0.0
N1324 N 0.68869 0.04356 0.7723 0.0
N1325 N 0.5996 0.98761 0.72539 0.0
H1326 H 0.59866 0.04229 0.79935 0.0
H1327 H 0.58245 0.01054 0.77479 0.0
H1328 H 0.59901 0.97013 0.70653 0.0
H1329 H 0.58243 1.00092 0.73118 0.0
H1330 H 0.7055 0.04063 0.7613 0.0
H1331 H 0.68917 0.06674 0.78835 0.0
H1332 H 0.70596 0.97731 0.7444 0.0
H1333 H 0.68997 0.95017 0.71745 0.0
C1334 C 0.40256 0.02335 0.77891 0.0
C1335 C 0.39885 0.978 0.77418 0.0
C1336 C 0.40218 0.99349 0.72338 0.0
C1337 C 0.39991 0.03911 0.72806 0.0
N1338 N 0.38876 0.09376 0.76264 0.0
N1339 N 0.38605 0.92448 0.73951 0.0
C1340 C 0.39787 0.05342 0.75653 0.0
C1341 C 0.39644 0.96392 0.7457 0.0
N1342 N 0.40929 0.03804 0.80499 0.0
N1343 N 0.40855 0.97817 0.69736 0.0
H1344 H 0.37843 0.90416 0.75493 0.0
H1345 H 0.38229 0.91477 0.71883 0.0
H1346 H 0.41328 0.99893 0.68072 0.0
H1347 H 0.41154 0.94513 0.69355 0.0
H1348 H 0.41331 0.07077 0.80884 0.0
H1349 H 0.41324 0.01689 0.82168 0.0
H1350 H 0.38524 0.10381 0.78328 0.0
H1351 H 0.38185 0.11473 0.74715 0.0
C1352 C 0.87056 0.48794 0.24607 0.0
C1353 C 0.89235 0.47815 0.23013 0.0
C1354 C 0.91792 0.51332 0.26737 0.0
C1355 C 0.89577 0.52752 0.2813 0.0
N1356 N 0.85097 0.53723 0.27912 0.0
N1357 N 0.93697 0.48557 0.22429 0.0
C1358 C 0.8721 0.51767 0.26905 0.0
C1359 C 0.91613 0.49198 0.24046 0.0
N1360 N 0.84837 0.468 0.23969 0.0
N1361 N 0.94061 0.51911 0.28022 0.0
H1362 H 0.93639 0.46938 0.20495 0.0
H1363 H 0.95444 0.49876 0.22911 0.0
H1364 H 0.94258 0.53521 0.29948 0.0
H1365 H 0.95719 0.50545 0.27281 0.0
H1366 H 0.83242 0.47085 0.25222 0.0
H1367 H 0.84666 0.44512 0.22353 0.0
H1368 H 0.83354 0.53431 0.26935 0.0
H1369 H 0.85141 0.55986 0.29549 0.0
C1370 C 0.14493 0.52255 0.28389 0.0
C1371 C 0.16289 0.48842 0.2846 0.0
C1372 C 0.18269 0.52153 0.24265 0.0
C1373 C 0.1612 0.54812 0.23842 0.0
N1374 N 0.14214 0.59764 0.27075 0.0
N1375 N 0.20093 0.45801 0.26548 0.0
C1376 C 0.14688 0.55586 0.26301 0.0
C1377 C 0.1826 0.48894 0.26434 0.0
N1378 N 0.12658 0.52465 0.30384 0.0
N1379 N 0.20353 0.5293 0.22675 0.0
H1380 H 0.20179 0.43448 0.28136 0.0
H1381 H 0.21428 0.45392 0.24969 0.0
H1382 H 0.20409 0.55479 0.21211 0.0
H1383 H 0.22065 0.51384 0.23 0.0
H1384 H 0.1124 0.54801 0.30293 0.0
H1385 H 0.12471 0.5015 0.31987 0.0
H1386 H 0.13409 0.60573 0.29011 0.0
H1387 H 0.14984 0.62374 0.25955 0.0
C1388 C 0.14323 0.48365 0.77579 0.0
C1389 C 0.14382 0.53016 0.77439 0.0
C1390 C 0.13651 0.52259 0.72331 0.0
C1391 C 0.14201 0.47722 0.72437 0.0
N1392 N 0.16086 0.42079 0.75313 0.0
N1393 N 0.14865 0.59199 0.74304 0.0
C1394 C 0.14818 0.45919 0.75104 0.0
C1395 C 0.14249 0.54931 0.74702 0.0
N1396 N 0.13853 0.46231 0.80046 0.0
N1397 N 0.12638 0.54051 0.69954 0.0
H1398 H 0.15518 0.61175 0.75936 0.0
H1399 H 0.14973 0.60602 0.723 0.0
H1400 H 0.12121 0.52172 0.68213 0.0
H1401 H 0.12093 0.5731 0.69857 0.0
H1402 H 0.13685 0.42846 0.80139 0.0
H1403 H 0.13408 0.47837 0.81906 0.0
H1404 H 0.16705 0.40855 0.77249 0.0
H1405 H 0.16774 0.40435 0.73553 0.0
C1406 C 0.89743 0.49048 0.72783 0.0
C1407 C 0.89442 0.53635 0.73118 0.0
C1408 C 0.89743 0.5235 0.78244 0.0
C1409 C 0.89446 0.47761 0.7791 0.0
N1410 N 0.88142 0.42237 0.7457 0.0
N1411 N 0.88123 0.59138 0.76455 0.0
C1412 C 0.89188 0.46205 0.75094 0.0
C1413 C 0.8918 0.55185 0.75934 0.0
N1414 N 0.90451 0.47365 0.70247 0.0
N1415 N 0.90449 0.54041 0.80783 0.0
H1416 H 0.87343 0.61047 0.74858 0.0
H1417 H 0.87747 0.60213 0.785 0.0
H1418 H 0.90948 0.52071 0.82492 0.0
H1419 H 0.90772 0.57366 0.81057 0.0
H1420 H 0.90779 0.44043 0.69972 0.0
H1421 H 0.90949 0.49339 0.6854 0.0
H1422 H 0.87769 0.41156 0.72524 0.0
H1423 H 0.87368 0.40317 0.76165 0.0
loop_
_geom_bond_atom_site_label_1
_geom_bond_atom_site_label_2
_geom_bond_distance
_geom_bond_site_symmetry_2
_ccdc_geom_bond_type
C0 C1 1.443 . S
C0 N4 1.376 . S
C0 C38 1.389 . S
C1 C0 1.443 . S
C1 C2 1.340 1_545 S
C1 H41 0.951 1_545 S
C2 C1 1.340 1_565 S
C2 C3 1.439 1_565 S
C2 H42 0.950 . S
C3 C2 1.439 1_545 S
C3 N4 1.374 . S
C3 C37 1.395 . S
N4 C0 1.376 . S
N4 C3 1.374 . S
N4 Co5 2.008 . S
Co5 N4 2.008 . S
Co5 N6 1.995 . S
Co5 N11 2.008 . S
Co5 N16 1.995 . S
Co5 N21 2.282 . S
Co5 N27 2.282 . S
N6 Co5 1.995 . S
N6 C7 1.376 . S
N6 C10 1.383 . S
C7 N6 1.376 . S
C7 C8 1.446 . S
C7 C37 1.391 . S
C8 C7 1.446 . S
C8 C9 1.339 . S
C8 H43 0.949 . S
C9 C8 1.339 . S
C9 C10 1.439 . S
C9 H44 0.950 . S
C10 N6 1.383 . S
C10 C9 1.439 . S
C10 C39 1.392 . S
N11 Co5 2.008 . S
N11 C12 1.376 . S
N11 C15 1.374 . S
C12 N11 1.376 . S
C12 C13 1.443 . S
C12 C39 1.389 . S
C13 C12 1.443 . S
C13 C14 1.340 . S
C13 H45 0.951 . S
C14 C13 1.340 . S
C14 C15 1.439 . S
C14 H46 0.950 . S
C15 N11 1.374 . S
C15 C14 1.439 . S
C15 C40 1.395 . S
N16 Co5 1.995 . S
N16 C17 1.376 . S
N16 C20 1.383 . S
C17 N16 1.376 . S
C17 C18 1.446 . S
C17 C40 1.391 . S
C18 C17 1.446 . S
C18 C19 1.339 . S
C18 H47 0.949 . S
C19 C18 1.339 . S
C19 C20 1.439 . S
C19 H48 0.950 . S
C20 N16 1.383 . S
C20 C19 1.439 . S
C20 C38 1.392 . S
N21 Co5 2.282 . S
N21 C24 1.332 . S
N21 C26 1.332 . S
C22 C23 1.386 . S
C22 C25 1.388 . S
C23 C22 1.386 . S
C23 C24 1.382 . S
C23 H49 0.950 . S
C24 N21 1.332 . S
C24 C23 1.382 . S
C24 H35 0.952 . S
C25 C22 1.388 . S
C25 C26 1.382 . S
C25 H50 0.950 . S
C26 N21 1.332 . S
C26 C25 1.382 . S
C26 H36 0.948 . S
N27 Co5 2.282 . S
N27 C31 1.332 . S
N27 C32 1.332 . S
C28 C29 1.388 . S
C28 C32 1.382 . S
C28 H51 0.950 . S
C29 C28 1.388 . S
C29 C30 1.386 . S
C30 C29 1.386 . S
C30 C31 1.382 . S
C30 H52 0.950 1_545 S
C31 N27 1.332 . S
C31 C30 1.382 . S
C31 H33 0.952 . S
C32 N27 1.332 . S
C32 C28 1.382 . S
C32 H34 0.948 . S
H33 C31 0.952 . S
H34 C32 0.948 . S
H35 C24 0.952 . S
H36 C26 0.948 . S
C37 C3 1.395 . S
C37 C7 1.391 . S
C38 C0 1.389 . S
C38 C20 1.392 . S
C39 C10 1.392 . S
C39 C12 1.389 . S
C40 C15 1.395 . S
C40 C17 1.391 . S
H41 C1 0.951 1_565 S
H42 C2 0.950 . S
H43 C8 0.949 . S
H44 C9 0.950 . S
H45 C13 0.951 . S
H46 C14 0.950 . S
H47 C18 0.949 . S
H48 C19 0.950 . S
H49 C23 0.950 . S
H50 C25 0.950 . S
H51 C28 0.950 . S
H52 C30 0.950 1_565 S
C53 C54 1.443 . S
C53 N57 1.376 . S
C53 C91 1.389 . S
C54 C53 1.443 . S
C54 C55 1.340 1_565 S
C54 H94 0.951 1_565 S
C55 C54 1.340 1_545 S
C55 C56 1.439 1_545 S
C55 H95 0.950 . S
C56 C55 1.439 1_565 S
C56 N57 1.374 . S
C56 C90 1.395 . S
N57 C53 1.376 . S
N57 C56 1.374 . S
N57 Co58 2.008 . S
Co58 N57 2.008 . S
Co58 N59 1.995 . S
Co58 N64 2.008 . S
Co58 N69 1.995 . S
Co58 N74 2.282 . S
Co58 N80 2.282 . S
N59 Co58 1.995 . S
N59 C60 1.376 . S
N59 C63 1.383 . S
C60 N59 1.376 . S
C60 C61 1.446 . S
C60 C90 1.391 . S
C61 C60 1.446 . S
C61 C62 1.339 . S
C61 H96 0.949 . S
C62 C61 1.339 . S
C62 C63 1.439 . S
C62 H97 0.950 . S
C63 N59 1.383 . S
C63 C62 1.439 . S
C63 C92 1.392 . S
N64 Co58 2.008 . S
N64 C65 1.376 . S
N64 C68 1.374 . S
C65 N64 1.376 . S
C65 C66 1.443 . S
C65 C92 1.389 . S
C66 C65 1.443 . S
C66 C67 1.340 . S
C66 H98 0.951 . S
C67 C66 1.340 . S
C67 C68 1.439 . S
C67 H99 0.950 . S
C68 N64 1.374 . S
C68 C67 1.439 . S
C68 C93 1.395 . S
N69 Co58 1.995 . S
N69 C70 1.376 . S
N69 C73 1.383 . S
C70 N69 1.376 . S
C70 C71 1.446 . S
C70 C93 1.391 . S
C71 C70 1.446 . S
C71 C72 1.339 . S
C71 H100 0.949 . S
C72 C71 1.339 . S
C72 C73 1.439 . S
C72 H101 0.950 . S
C73 N69 1.383 . S
C73 C72 1.439 . S
C73 C91 1.392 . S
N74 Co58 2.282 . S
N74 C77 1.332 . S
N74 C79 1.332 . S
C75 C76 1.386 . S
C75 C78 1.388 . S
C76 C75 1.386 . S
C76 C77 1.382 . S
C76 H102 0.950 . S
C77 N74 1.332 . S
C77 C76 1.382 . S
C77 H88 0.952 . S
C78 C75 1.388 . S
C78 C79 1.382 . S
C78 H103 0.950 . S
C79 N74 1.332 . S
C79 C78 1.382 . S
C79 H89 0.948 . S
N80 Co58 2.282 . S
N80 C84 1.332 . S
N80 C85 1.332 . S
C81 C82 1.388 . S
C81 C85 1.382 . S
C81 H104 0.950 . S
C82 C81 1.388 . S
C82 C83 1.386 . S
C83 C82 1.386 . S
C83 C84 1.382 . S
C83 H105 0.950 1_565 S
C84 N80 1.332 . S
C84 C83 1.382 . S
C84 H86 0.952 . S
C85 N80 1.332 . S
C85 C81 1.382 . S
C85 H87 0.948 . S
H86 C84 0.952 . S
H87 C85 0.948 . S
H88 C77 0.952 . S
H89 C79 0.948 . S
C90 C56 1.395 . S
C90 C60 1.391 . S
C91 C53 1.389 . S
C91 C73 1.392 . S
C92 C63 1.392 . S
C92 C65 1.389 . S
C93 C68 1.395 . S
C93 C70 1.391 . S
H94 C54 0.951 1_545 S
H95 C55 0.950 . S
H96 C61 0.949 . S
H97 C62 0.950 . S
H98 C66 0.951 . S
H99 C67 0.950 . S
H100 C71 0.949 . S
H101 C72 0.950 . S
H102 C76 0.950 . S
H103 C78 0.950 . S
H104 C81 0.950 . S
H105 C83 0.950 1_545 S
C106 C107 1.443 . S
C106 N110 1.376 . S
C106 C144 1.389 . S
C107 C106 1.443 . S
C107 C108 1.340 1_565 S
C107 H147 0.951 1_565 S
C108 C107 1.340 1_545 S
C108 C109 1.439 1_545 S
C108 H148 0.950 . S
C109 C108 1.439 1_565 S
C109 N110 1.374 . S
C109 C143 1.395 . S
N110 C106 1.376 . S
N110 C109 1.374 . S
N110 Co111 2.008 . S
Co111 N110 2.008 . S
Co111 N112 1.995 . S
Co111 N117 2.008 . S
Co111 N122 1.995 . S
Co111 N127 2.282 . S
Co111 N133 2.282 . S
N112 Co111 1.995 . S
N112 C113 1.376 . S
N112 C116 1.383 . S
C113 N112 1.376 . S
C113 C114 1.446 . S
C113 C143 1.391 . S
C114 C113 1.446 . S
C114 C115 1.339 . S
C114 H149 0.949 . S
C115 C114 1.339 . S
C115 C116 1.439 . S
C115 H150 0.950 . S
C116 N112 1.383 . S
C116 C115 1.439 . S
C116 C145 1.392 . S
N117 Co111 2.008 . S
N117 C118 1.376 . S
N117 C121 1.374 . S
C118 N117 1.376 . S
C118 C119 1.443 . S
C118 C145 1.389 . S
C119 C118 1.443 . S
C119 C120 1.340 . S
C119 H151 0.951 . S
C120 C119 1.340 . S
C120 C121 1.439 . S
C120 H152 0.950 . S
C121 N117 1.374 . S
C121 C120 1.439 . S
C121 C146 1.395 . S
N122 Co111 1.995 . S
N122 C123 1.376 . S
N122 C126 1.383 . S
C123 N122 1.376 . S
C123 C124 1.446 . S
C123 C146 1.391 . S
C124 C123 1.446 . S
C124 C125 1.339 . S
C124 H153 0.949 . S
C125 C124 1.339 . S
C125 C126 1.439 . S
C125 H154 0.950 . S
C126 N122 1.383 . S
C126 C125 1.439 . S
C126 C144 1.392 . S
N127 Co111 2.282 . S
N127 C130 1.332 . S
N127 C132 1.332 . S
C128 C129 1.386 . S
C128 C131 1.388 . S
C129 C128 1.386 . S
C129 C130 1.382 . S
C129 H155 0.950 . S
C130 N127 1.332 . S
C130 C129 1.382 . S
C130 H141 0.952 . S
C131 C128 1.388 . S
C131 C132 1.382 . S
C131 H156 0.950 . S
C132 N127 1.332 . S
C132 C131 1.382 . S
C132 H142 0.948 . S
N133 Co111 2.282 . S
N133 C137 1.332 . S
N133 C138 1.332 . S
C134 C135 1.388 . S
C134 C138 1.382 . S
C134 H157 0.950 . S
C135 C134 1.388 . S
C135 C136 1.386 . S
C136 C135 1.386 . S
C136 C137 1.382 . S
C136 H158 0.950 1_565 S
C137 N133 1.332 . S
C137 C136 1.382 . S
C137 H139 0.952 . S
C138 N133 1.332 . S
C138 C134 1.382 . S
C138 H140 0.948 . S
H139 C137 0.952 . S
H140 C138 0.948 . S
H141 C130 0.952 . S
H142 C132 0.948 . S
C143 C109 1.395 . S
C143 C113 1.391 . S
C144 C106 1.389 . S
C144 C126 1.392 . S
C145 C116 1.392 . S
C145 C118 1.389 . S
C146 C121 1.395 . S
C146 C123 1.391 . S
H147 C107 0.951 1_545 S
H148 C108 0.950 . S
H149 C114 0.949 . S
H150 C115 0.950 . S
H151 C119 0.951 . S
H152 C120 0.950 . S
H153 C124 0.949 . S
H154 C125 0.950 . S
H155 C129 0.950 . S
H156 C131 0.950 . S
H157 C134 0.950 . S
H158 C136 0.950 1_545 S
C159 C160 1.443 . S
C159 N163 1.376 . S
C159 C197 1.389 . S
C160 C159 1.443 . S
C160 C161 1.340 1_545 S
C160 H200 0.951 1_545 S
C161 C160 1.340 1_565 S
C161 C162 1.439 1_565 S
C161 H201 0.950 . S
C162 C161 1.439 1_545 S
C162 N163 1.374 . S
C162 C196 1.395 . S
N163 C159 1.376 . S
N163 C162 1.374 . S
N163 Co164 2.008 . S
Co164 N163 2.008 . S
Co164 N165 1.995 . S
Co164 N170 2.008 . S
Co164 N175 1.995 . S
Co164 N180 2.282 . S
Co164 N186 2.282 . S
N165 Co164 1.995 . S
N165 C166 1.376 . S
N165 C169 1.383 . S
C166 N165 1.376 . S
C166 C167 1.446 . S
C166 C196 1.391 . S
C167 C166 1.446 . S
C167 C168 1.339 . S
C167 H202 0.949 . S
C168 C167 1.339 . S
C168 C169 1.439 . S
C168 H203 0.950 . S
C169 N165 1.383 . S
C169 C168 1.439 . S
C169 C198 1.392 . S
N170 Co164 2.008 . S
N170 C171 1.376 . S
N170 C174 1.374 . S
C171 N170 1.376 . S
C171 C172 1.443 . S
C171 C198 1.389 . S
C172 C171 1.443 . S
C172 C173 1.340 . S
C172 H204 0.951 . S
C173 C172 1.340 . S
C173 C174 1.439 . S
C173 H205 0.950 . S
C174 N170 1.374 . S
C174 C173 1.439 . S
C174 C199 1.395 . S
N175 Co164 1.995 . S
N175 C176 1.376 . S
N175 C179 1.383 . S
C176 N175 1.376 . S
C176 C177 1.446 . S
C176 C199 1.391 . S
C177 C176 1.446 . S
C177 C178 1.339 . S
C177 H206 0.949 . S
C178 C177 1.339 . S
C178 C179 1.439 . S
C178 H207 0.950 . S
C179 N175 1.383 . S
C179 C178 1.439 . S
C179 C197 1.392 . S
N180 Co164 2.282 . S
N180 C183 1.332 . S
N180 C185 1.332 . S
C181 C182 1.386 . S
C181 C184 1.388 . S
C182 C181 1.386 . S
C182 C183 1.382 . S
C182 H208 0.950 . S
C183 N180 1.332 . S
C183 C182 1.382 . S
C183 H194 0.952 . S
C184 C181 1.388 . S
C184 C185 1.382 . S
C184 H209 0.950 . S
C185 N180 1.332 . S
C185 C184 1.382 . S
C185 H195 0.948 . S
N186 Co164 2.282 . S
N186 C190 1.332 . S
N186 C191 1.332 . S
C187 C188 1.388 . S
C187 C191 1.382 . S
C187 H210 0.950 . S
C188 C187 1.388 . S
C188 C189 1.386 . S
C189 C188 1.386 . S
C189 C190 1.382 . S
C189 H211 0.950 1_545 S
C190 N186 1.332 . S
C190 C189 1.382 . S
C190 H192 0.952 . S
C191 N186 1.332 . S
C191 C187 1.382 . S
C191 H193 0.948 . S
H192 C190 0.952 . S
H193 C191 0.948 . S
H194 C183 0.952 . S
H195 C185 0.948 . S
C196 C162 1.395 . S
C196 C166 1.391 . S
C197 C159 1.389 . S
C197 C179 1.392 . S
C198 C169 1.392 . S
C198 C171 1.389 . S
C199 C174 1.395 . S
C199 C176 1.391 . S
H200 C160 0.951 1_565 S
H201 C161 0.950 . S
H202 C167 0.949 . S
H203 C168 0.950 . S
H204 C172 0.951 . S
H205 C173 0.950 . S
H206 C177 0.949 . S
H207 C178 0.950 . S
H208 C182 0.950 . S
H209 C184 0.950 . S
H210 C187 0.950 . S
H211 C189 0.950 1_565 S
C212 C213 1.443 . S
C212 N216 1.376 . S
C212 C250 1.389 . S
C213 C212 1.443 . S
C213 C214 1.340 . S
C213 H253 0.951 . S
C214 C213 1.340 . S
C214 C215 1.439 . S
C214 H254 0.950 . S
C215 C214 1.439 . S
C215 N216 1.374 . S
C215 C249 1.395 . S
N216 C212 1.376 . S
N216 C215 1.374 . S
N216 Co217 2.008 . S
Co217 N216 2.008 . S
Co217 N218 1.995 . S
Co217 N223 2.008 . S
Co217 N228 1.995 . S
Co217 N233 2.282 . S
Co217 N239 2.282 . S
N218 Co217 1.995 . S
N218 C219 1.376 . S
N218 C222 1.383 . S
C219 N218 1.376 . S
C219 C220 1.446 . S
C219 C249 1.391 . S
C220 C219 1.446 . S
C220 C221 1.339 . S
C220 H255 0.949 . S
C221 C220 1.339 . S
C221 C222 1.439 . S
C221 H256 0.950 . S
C222 N218 1.383 . S
C222 C221 1.439 . S
C222 C251 1.392 . S
N223 Co217 2.008 . S
N223 C224 1.376 . S
N223 C227 1.374 . S
C224 N223 1.376 . S
C224 C225 1.443 . S
C224 C251 1.389 . S
C225 C224 1.443 . S
C225 C226 1.340 . S
C225 H257 0.951 . S
C226 C225 1.340 . S
C226 C227 1.439 . S
C226 H258 0.950 . S
C227 N223 1.374 . S
C227 C226 1.439 . S
C227 C252 1.395 . S
N228 Co217 1.995 . S
N228 C229 1.376 . S
N228 C232 1.383 . S
C229 N228 1.376 . S
C229 C230 1.446 1_565 S
C229 C252 1.391 . S
C230 C229 1.446 1_545 S
C230 C231 1.339 1_545 S
C230 H259 0.949 . S
C231 C230 1.339 1_565 S
C231 C232 1.439 . S
C231 H260 0.950 . S
C232 N228 1.383 . S
C232 C231 1.439 . S
C232 C250 1.392 . S
N233 Co217 2.282 . S
N233 C236 1.332 . S
N233 C238 1.332 . S
C234 C235 1.386 . S
C234 C237 1.388 . S
C235 C234 1.386 . S
C235 C236 1.382 . S
C235 H261 0.950 . S
C236 N233 1.332 . S
C236 C235 1.382 . S
C236 H247 0.952 . S
C237 C234 1.388 . S
C237 C238 1.382 . S
C237 H262 0.950 . S
C238 N233 1.332 . S
C238 C237 1.382 . S
C238 H248 0.948 . S
N239 Co217 2.282 . S
N239 C243 1.332 . S
N239 C244 1.332 . S
C240 C241 1.388 . S
C240 C244 1.382 . S
C240 H263 0.950 1_565 S
C241 C240 1.388 . S
C241 C242 1.386 . S
C242 C241 1.386 . S
C242 C243 1.382 . S
C242 H264 0.950 . S
C243 N239 1.332 . S
C243 C242 1.382 . S
C243 H245 0.952 . S
C244 N239 1.332 . S
C244 C240 1.382 . S
C244 H246 0.948 . S
H245 C243 0.952 . S
H246 C244 0.948 . S
H247 C236 0.952 . S
H248 C238 0.948 . S
C249 C215 1.395 . S
C249 C219 1.391 . S
C250 C212 1.389 . S
C250 C232 1.392 . S
C251 C222 1.392 . S
C251 C224 1.389 . S
C252 C227 1.395 . S
C252 C229 1.391 . S
H253 C213 0.951 . S
H254 C214 0.950 . S
H255 C220 0.949 . S
H256 C221 0.950 . S
H257 C225 0.951 . S
H258 C226 0.950 . S
H259 C230 0.949 . S
H260 C231 0.950 . S
H261 C235 0.950 . S
H262 C237 0.950 . S
H263 C240 0.950 1_545 S
H264 C242 0.950 . S
C265 C266 1.443 . S
C265 N269 1.376 . S
C265 C303 1.389 . S
C266 C265 1.443 . S
C266 C267 1.340 . S
C266 H306 0.951 . S
C267 C266 1.340 . S
C267 C268 1.439 . S
C267 H307 0.950 . S
C268 C267 1.439 . S
C268 N269 1.374 . S
C268 C302 1.395 . S
N269 C265 1.376 . S
N269 C268 1.374 . S
N269 Co270 2.008 . S
Co270 N269 2.008 . S
Co270 N271 1.995 . S
Co270 N276 2.008 . S
Co270 N281 1.995 . S
Co270 N286 2.282 . S
Co270 N292 2.282 . S
N271 Co270 1.995 . S
N271 C272 1.376 . S
N271 C275 1.383 . S
C272 N271 1.376 . S
C272 C273 1.446 . S
C272 C302 1.391 . S
C273 C272 1.446 . S
C273 C274 1.339 . S
C273 H308 0.949 . S
C274 C273 1.339 . S
C274 C275 1.439 . S
C274 H309 0.950 . S
C275 N271 1.383 . S
C275 C274 1.439 . S
C275 C304 1.392 . S
N276 Co270 2.008 . S
N276 C277 1.376 . S
N276 C280 1.374 . S
C277 N276 1.376 . S
C277 C278 1.443 . S
C277 C304 1.389 . S
C278 C277 1.443 . S
C278 C279 1.340 . S
C278 H310 0.951 . S
C279 C278 1.340 . S
C279 C280 1.439 . S
C279 H311 0.950 . S
C280 N276 1.374 . S
C280 C279 1.439 . S
C280 C305 1.395 . S
N281 Co270 1.995 . S
N281 C282 1.376 . S
N281 C285 1.383 . S
C282 N281 1.376 . S
C282 C283 1.446 1_545 S
C282 C305 1.391 . S
C283 C282 1.446 1_565 S
C283 C284 1.339 1_565 S
C283 H312 0.949 . S
C284 C283 1.339 1_545 S
C284 C285 1.439 . S
C284 H313 0.950 . S
C285 N281 1.383 . S
C285 C284 1.439 . S
C285 C303 1.392 . S
N286 Co270 2.282 . S
N286 C289 1.332 . S
N286 C291 1.332 . S
C287 C288 1.386 . S
C287 C290 1.388 . S
C288 C287 1.386 . S
C288 C289 1.382 . S
C288 H314 0.950 . S
C289 N286 1.332 . S
C289 C288 1.382 . S
C289 H300 0.952 . S
C290 C287 1.388 . S
C290 C291 1.382 . S
C290 H315 0.950 . S
C291 N286 1.332 . S
C291 C290 1.382 . S
C291 H301 0.948 . S
N292 Co270 2.282 . S
N292 C296 1.332 . S
N292 C297 1.332 . S
C293 C294 1.388 . S
C293 C297 1.382 . S
C293 H316 0.950 1_545 S
C294 C293 1.388 . S
C294 C295 1.386 . S
C295 C294 1.386 . S
C295 C296 1.382 . S
C295 H317 0.950 . S
C296 N292 1.332 . S
C296 C295 1.382 . S
C296 H298 0.952 . S
C297 N292 1.332 . S
C297 C293 1.382 . S
C297 H299 0.948 . S
H298 C296 0.952 . S
H299 C297 0.948 . S
H300 C289 0.952 . S
H301 C291 0.948 . S
C302 C268 1.395 . S
C302 C272 1.391 . S
C303 C265 1.389 . S
C303 C285 1.392 . S
C304 C275 1.392 . S
C304 C277 1.389 . S
C305 C280 1.395 . S
C305 C282 1.391 . S
H306 C266 0.951 . S
H307 C267 0.950 . S
H308 C273 0.949 . S
H309 C274 0.950 . S
H310 C278 0.951 . S
H311 C279 0.950 . S
H312 C283 0.949 . S
H313 C284 0.950 . S
H314 C288 0.950 . S
H315 C290 0.950 . S
H316 C293 0.950 1_565 S
H317 C295 0.950 . S
C318 C319 1.443 . S
C318 N322 1.376 . S
C318 C356 1.389 . S
C319 C318 1.443 . S
C319 C320 1.340 . S
C319 H359 0.951 . S
C320 C319 1.340 . S
C320 C321 1.439 . S
C320 H360 0.950 . S
C321 C320 1.439 . S
C321 N322 1.374 . S
C321 C355 1.395 . S
N322 C318 1.376 . S
N322 C321 1.374 . S
N322 Co323 2.008 . S
Co323 N322 2.008 . S
Co323 N324 1.995 . S
Co323 N329 2.008 . S
Co323 N334 1.995 . S
Co323 N339 2.282 . S
Co323 N345 2.282 . S
N324 Co323 1.995 . S
N324 C325 1.376 . S
N324 C328 1.383 . S
C325 N324 1.376 . S
C325 C326 1.446 . S
C325 C355 1.391 . S
C326 C325 1.446 . S
C326 C327 1.339 . S
C326 H361 0.949 . S
C327 C326 1.339 . S
C327 C328 1.439 . S
C327 H362 0.950 . S
C328 N324 1.383 . S
C328 C327 1.439 . S
C328 C357 1.392 . S
N329 Co323 2.008 . S
N329 C330 1.376 . S
N329 C333 1.374 . S
C330 N329 1.376 . S
C330 C331 1.443 . S
C330 C357 1.389 . S
C331 C330 1.443 . S
C331 C332 1.340 . S
C331 H363 0.951 . S
C332 C331 1.340 . S
C332 C333 1.439 . S
C332 H364 0.950 . S
C333 N329 1.374 . S
C333 C332 1.439 . S
C333 C358 1.395 . S
N334 Co323 1.995 . S
N334 C335 1.376 . S
N334 C338 1.383 . S
C335 N334 1.376 . S
C335 C336 1.446 1_545 S
C335 C358 1.391 . S
C336 C335 1.446 1_565 S
C336 C337 1.339 1_565 S
C336 H365 0.949 . S
C337 C336 1.339 1_545 S
C337 C338 1.439 . S
C337 H366 0.950 . S
C338 N334 1.383 . S
C338 C337 1.439 . S
C338 C356 1.392 . S
N339 Co323 2.282 . S
N339 C342 1.332 . S
N339 C344 1.332 . S
C340 C341 1.386 . S
C340 C343 1.388 . S
C341 C340 1.386 . S
C341 C342 1.382 . S
C341 H367 0.950 . S
C342 N339 1.332 . S
C342 C341 1.382 . S
C342 H353 0.952 . S
C343 C340 1.388 . S
C343 C344 1.382 . S
C343 H368 0.950 . S
C344 N339 1.332 . S
C344 C343 1.382 . S
C344 H354 0.948 . S
N345 Co323 2.282 . S
N345 C349 1.332 . S
N345 C350 1.332 . S
C346 C347 1.388 . S
C346 C350 1.382 . S
C346 H369 0.950 1_545 S
C347 C346 1.388 . S
C347 C348 1.386 . S
C348 C347 1.386 . S
C348 C349 1.382 . S
C348 H370 0.950 . S
C349 N345 1.332 . S
C349 C348 1.382 . S
C349 H351 0.952 . S
C350 N345 1.332 . S
C350 C346 1.382 . S
C350 H352 0.948 . S
H351 C349 0.952 . S
H352 C350 0.948 . S
H353 C342 0.952 . S
H354 C344 0.948 . S
C355 C321 1.395 . S
C355 C325 1.391 . S
C356 C318 1.389 . S
C356 C338 1.392 . S
C357 C328 1.392 . S
C357 C330 1.389 . S
C358 C333 1.395 . S
C358 C335 1.391 . S
H359 C319 0.951 . S
H360 C320 0.950 . S
H361 C326 0.949 . S
H362 C327 0.950 . S
H363 C331 0.951 . S
H364 C332 0.950 . S
H365 C336 0.949 . S
H366 C337 0.950 . S
H367 C341 0.950 . S
H368 C343 0.950 . S
H369 C346 0.950 1_565 S
H370 C348 0.950 . S
C371 C372 1.443 . S
C371 N375 1.376 . S
C371 C409 1.389 . S
C372 C371 1.443 . S
C372 C373 1.340 . S
C372 H412 0.951 . S
C373 C372 1.340 . S
C373 C374 1.439 . S
C373 H413 0.950 . S
C374 C373 1.439 . S
C374 N375 1.374 . S
C374 C408 1.395 . S
N375 C371 1.376 . S
N375 C374 1.374 . S
N375 Co376 2.008 . S
Co376 N375 2.008 . S
Co376 N377 1.995 . S
Co376 N382 2.008 . S
Co376 N387 1.995 . S
Co376 N392 2.282 . S
Co376 N398 2.282 . S
N377 Co376 1.995 . S
N377 C378 1.376 . S
N377 C381 1.383 . S
C378 N377 1.376 . S
C378 C379 1.446 . S
C378 C408 1.391 . S
C379 C378 1.446 . S
C379 C380 1.339 . S
C379 H414 0.949 . S
C380 C379 1.339 . S
C380 C381 1.439 . S
C380 H415 0.950 . S
C381 N377 1.383 . S
C381 C380 1.439 . S
C381 C410 1.392 . S
N382 Co376 2.008 . S
N382 C383 1.376 . S
N382 C386 1.374 . S
C383 N382 1.376 . S
C383 C384 1.443 . S
C383 C410 1.389 . S
C384 C383 1.443 . S
C384 C385 1.340 . S
C384 H416 0.951 . S
C385 C384 1.340 . S
C385 C386 1.439 . S
C385 H417 0.950 . S
C386 N382 1.374 . S
C386 C385 1.439 . S
C386 C411 1.395 . S
N387 Co376 1.995 . S
N387 C388 1.376 . S
N387 C391 1.383 . S
C388 N387 1.376 . S
C388 C389 1.446 1_565 S
C388 C411 1.391 . S
C389 C388 1.446 1_545 S
C389 C390 1.339 1_545 S
C389 H418 0.949 . S
C390 C389 1.339 1_565 S
C390 C391 1.439 . S
C390 H419 0.950 . S
C391 N387 1.383 . S
C391 C390 1.439 . S
C391 C409 1.392 . S
N392 Co376 2.282 . S
N392 C395 1.332 . S
N392 C397 1.332 . S
C393 C394 1.386 . S
C393 C396 1.388 . S
C394 C393 1.386 . S
C394 C395 1.382 . S
C394 H420 0.950 . S
C395 N392 1.332 . S
C395 C394 1.382 . S
C395 H406 0.952 . S
C396 C393 1.388 . S
C396 C397 1.382 . S
C396 H421 0.950 . S
C397 N392 1.332 . S
C397 C396 1.382 . S
C397 H407 0.948 . S
N398 Co376 2.282 . S
N398 C402 1.332 . S
N398 C403 1.332 . S
C399 C400 1.388 . S
C399 C403 1.382 . S
C399 H422 0.950 1_565 S
C400 C399 1.388 . S
C400 C401 1.386 . S
C401 C400 1.386 . S
C401 C402 1.382 . S
C401 H423 0.950 . S
C402 N398 1.332 . S
C402 C401 1.382 . S
C402 H404 0.952 . S
C403 N398 1.332 . S
C403 C399 1.382 . S
C403 H405 0.948 . S
H404 C402 0.952 . S
H405 C403 0.948 . S
H406 C395 0.952 . S
H407 C397 0.948 . S
C408 C374 1.395 . S
C408 C378 1.391 . S
C409 C371 1.389 . S
C409 C391 1.392 . S
C410 C381 1.392 . S
C410 C383 1.389 . S
C411 C386 1.395 . S
C411 C388 1.391 . S
H412 C372 0.951 . S
H413 C373 0.950 . S
H414 C379 0.949 . S
H415 C380 0.950 . S
H416 C384 0.951 . S
H417 C385 0.950 . S
H418 C389 0.949 . S
H419 C390 0.950 . S
H420 C394 0.950 . S
H421 C396 0.950 . S
H422 C399 0.950 1_545 S
H423 C401 0.950 . S
C424 C425 1.443 . S
C424 N428 1.376 . S
C424 C462 1.389 . S
C425 C424 1.443 . S
C425 C426 1.340 . S
C425 H465 0.951 . S
C426 C425 1.340 . S
C426 C427 1.439 . S
C426 H466 0.950 . S
C427 C426 1.439 . S
C427 N428 1.374 . S
C427 C461 1.395 . S
N428 C424 1.376 . S
N428 C427 1.374 . S
N428 Co429 2.008 . S
Co429 N428 2.008 . S
Co429 N430 1.995 . S
Co429 N435 2.008 . S
Co429 N440 1.995 . S
Co429 N445 2.282 . S
Co429 N451 2.282 . S
N430 Co429 1.995 . S
N430 C431 1.376 . S
N430 C434 1.383 . S
C431 N430 1.376 . S
C431 C432 1.446 . S
C431 C461 1.391 . S
C432 C431 1.446 . S
C432 C433 1.339 . S
C432 H467 0.949 . S
C433 C432 1.339 . S
C433 C434 1.439 . S
C433 H468 0.950 . S
C434 N430 1.383 . S
C434 C433 1.439 . S
C434 C463 1.392 . S
N435 Co429 2.008 . S
N435 C436 1.376 . S
N435 C439 1.374 . S
C436 N435 1.376 . S
C436 C437 1.443 . S
C436 C463 1.389 . S
C437 C436 1.443 . S
C437 C438 1.340 . S
C437 H469 0.951 . S
C438 C437 1.340 . S
C438 C439 1.439 . S
C438 H470 0.950 . S
C439 N435 1.374 . S
C439 C438 1.439 . S
C439 C464 1.395 . S
N440 Co429 1.995 . S
N440 C441 1.376 . S
N440 C444 1.383 . S
C441 N440 1.376 . S
C441 C442 1.446 . S
C441 C464 1.391 . S
C442 C441 1.446 . S
C442 C443 1.339 . S
C442 H471 0.949 . S
C443 C442 1.339 . S
C443 C444 1.439 . S
C443 H472 0.950 . S
C444 N440 1.383 . S
C444 C443 1.439 . S
C444 C462 1.392 . S
N445 Co429 2.282 . S
N445 C448 1.332 . S
N445 C450 1.332 . S
C446 C447 1.386 . S
C446 C449 1.388 . S
C447 C446 1.386 . S
C447 C448 1.382 . S
C447 H473 0.950 . S
C448 N445 1.332 . S
C448 C447 1.382 . S
C448 H459 0.952 . S
C449 C446 1.388 . S
C449 C450 1.382 . S
C449 H474 0.950 . S
C450 N445 1.332 . S
C450 C449 1.382 . S
C450 H460 0.948 . S
N451 Co429 2.282 . S
N451 C455 1.332 . S
N451 C456 1.332 . S
C452 C453 1.388 . S
C452 C456 1.382 . S
C452 H475 0.950 . S
C453 C452 1.388 . S
C453 C454 1.386 . S
C454 C453 1.386 . S
C454 C455 1.382 . S
C454 H476 0.950 . S
C455 N451 1.332 . S
C455 C454 1.382 . S
C455 H457 0.952 . S
C456 N451 1.332 . S
C456 C452 1.382 . S
C456 H458 0.948 . S
H457 C455 0.952 . S
H458 C456 0.948 . S
H459 C448 0.952 . S
H460 C450 0.948 . S
C461 C427 1.395 . S
C461 C431 1.391 . S
C462 C424 1.389 . S
C462 C444 1.392 . S
C463 C434 1.392 . S
C463 C436 1.389 . S
C464 C439 1.395 . S
C464 C441 1.391 . S
H465 C425 0.951 . S
H466 C426 0.950 . S
H467 C432 0.949 . S
H468 C433 0.950 . S
H469 C437 0.951 . S
H470 C438 0.950 . S
H471 C442 0.949 . S
H472 C443 0.950 . S
H473 C447 0.950 . S
H474 C449 0.950 . S
H475 C452 0.950 . S
H476 C454 0.950 . S
C477 C478 1.443 . S
C477 N481 1.376 . S
C477 C515 1.389 . S
C478 C477 1.443 . S
C478 C479 1.340 . S
C478 H518 0.951 . S
C479 C478 1.340 . S
C479 C480 1.439 . S
C479 H519 0.950 . S
C480 C479 1.439 . S
C480 N481 1.374 . S
C480 C514 1.395 . S
N481 C477 1.376 . S
N481 C480 1.374 . S
N481 Co482 2.008 . S
Co482 N481 2.008 . S
Co482 N483 1.995 . S
Co482 N488 2.008 . S
Co482 N493 1.995 . S
Co482 N498 2.282 . S
Co482 N504 2.282 . S
N483 Co482 1.995 . S
N483 C484 1.376 . S
N483 C487 1.383 . S
C484 N483 1.376 . S
C484 C485 1.446 . S
C484 C514 1.391 . S
C485 C484 1.446 . S
C485 C486 1.339 . S
C485 H520 0.949 . S
C486 C485 1.339 . S
C486 C487 1.439 . S
C486 H521 0.950 . S
C487 N483 1.383 . S
C487 C486 1.439 . S
C487 C516 1.392 . S
N488 Co482 2.008 . S
N488 C489 1.376 . S
N488 C492 1.374 . S
C489 N488 1.376 . S
C489 C490 1.443 . S
C489 C516 1.389 . S
C490 C489 1.443 . S
C490 C491 1.340 . S
C490 H522 0.951 . S
C491 C490 1.340 . S
C491 C492 1.439 . S
C491 H523 0.950 . S
C492 N488 1.374 . S
C492 C491 1.439 . S
C492 C517 1.395 . S
N493 Co482 1.995 . S
N493 C494 1.376 . S
N493 C497 1.383 . S
C494 N493 1.376 . S
C494 C495 1.446 . S
C494 C517 1.391 . S
C495 C494 1.446 . S
C495 C496 1.339 . S
C495 H524 0.949 . S
C496 C495 1.339 . S
C496 C497 1.439 . S
C496 H525 0.950 . S
C497 N493 1.383 . S
C497 C496 1.439 . S
C497 C515 1.392 . S
N498 Co482 2.282 . S
N498 C501 1.332 . S
N498 C503 1.332 . S
C499 C500 1.386 . S
C499 C502 1.388 . S
C500 C499 1.386 . S
C500 C501 1.382 . S
C500 H526 0.950 . S
C501 N498 1.332 . S
C501 C500 1.382 . S
C501 H512 0.952 . S
C502 C499 1.388 . S
C502 C503 1.382 . S
C502 H527 0.950 . S
C503 N498 1.332 . S
C503 C502 1.382 . S
C503 H513 0.948 . S
N504 Co482 2.282 . S
N504 C508 1.332 . S
N504 C509 1.332 . S
C505 C506 1.388 . S
C505 C509 1.382 . S
C505 H528 0.950 . S
C506 C505 1.388 . S
C506 C507 1.386 . S
C507 C506 1.386 . S
C507 C508 1.382 . S
C507 H529 0.950 . S
C508 N504 1.332 . S
C508 C507 1.382 . S
C508 H510 0.952 . S
C509 N504 1.332 . S
C509 C505 1.382 . S
C509 H511 0.948 . S
H510 C508 0.952 . S
H511 C509 0.948 . S
H512 C501 0.952 . S
H513 C503 0.948 . S
C514 C480 1.395 . S
C514 C484 1.391 . S
C515 C477 1.389 . S
C515 C497 1.392 . S
C516 C487 1.392 . S
C516 C489 1.389 . S
C517 C492 1.395 . S
C517 C494 1.391 . S
H518 C478 0.951 . S
H519 C479 0.950 . S
H520 C485 0.949 . S
H521 C486 0.950 . S
H522 C490 0.951 . S
H523 C491 0.950 . S
H524 C495 0.949 . S
H525 C496 0.950 . S
H526 C500 0.950 . S
H527 C502 0.950 . S
H528 C505 0.950 . S
H529 C507 0.950 . S
C530 C531 1.443 . S
C530 N534 1.376 . S
C530 C568 1.389 . S
C531 C530 1.443 . S
C531 C532 1.340 . S
C531 H571 0.951 . S
C532 C531 1.340 . S
C532 C533 1.439 . S
C532 H572 0.950 . S
C533 C532 1.439 . S
C533 N534 1.374 . S
C533 C567 1.395 . S
N534 C530 1.376 . S
N534 C533 1.374 . S
N534 Co535 2.008 . S
Co535 N534 2.008 . S
Co535 N536 1.995 . S
Co535 N541 2.008 . S
Co535 N546 1.995 . S
Co535 N551 2.282 . S
Co535 N557 2.282 . S
N536 Co535 1.995 . S
N536 C537 1.376 . S
N536 C540 1.383 . S
C537 N536 1.376 . S
C537 C538 1.446 . S
C537 C567 1.391 . S
C538 C537 1.446 . S
C538 C539 1.339 . S
C538 H573 0.949 . S
C539 C538 1.339 . S
C539 C540 1.439 . S
C539 H574 0.950 . S
C540 N536 1.383 . S
C540 C539 1.439 . S
C540 C569 1.392 . S
N541 Co535 2.008 . S
N541 C542 1.376 . S
N541 C545 1.374 . S
C542 N541 1.376 . S
C542 C543 1.443 . S
C542 C569 1.389 . S
C543 C542 1.443 . S
C543 C544 1.340 . S
C543 H575 0.951 . S
C544 C543 1.340 . S
C544 C545 1.439 . S
C544 H576 0.950 . S
C545 N541 1.374 . S
C545 C544 1.439 . S
C545 C570 1.395 . S
N546 Co535 1.995 . S
N546 C547 1.376 . S
N546 C550 1.383 . S
C547 N546 1.376 . S
C547 C548 1.446 . S
C547 C570 1.391 . S
C548 C547 1.446 . S
C548 C549 1.339 . S
C548 H577 0.949 . S
C549 C548 1.339 . S
C549 C550 1.439 . S
C549 H578 0.950 . S
C550 N546 1.383 . S
C550 C549 1.439 . S
C550 C568 1.392 . S
N551 Co535 2.282 . S
N551 C554 1.332 . S
N551 C556 1.332 . S
C552 C553 1.386 . S
C552 C555 1.388 . S
C553 C552 1.386 . S
C553 C554 1.382 . S
C553 H579 0.950 . S
C554 N551 1.332 . S
C554 C553 1.382 . S
C554 H565 0.952 . S
C555 C552 1.388 . S
C555 C556 1.382 . S
C555 H580 0.950 . S
C556 N551 1.332 . S
C556 C555 1.382 . S
C556 H566 0.948 . S
N557 Co535 2.282 . S
N557 C561 1.332 . S
N557 C562 1.332 . S
C558 C559 1.388 . S
C558 C562 1.382 . S
C558 H581 0.950 . S
C559 C558 1.388 . S
C559 C560 1.386 . S
C560 C559 1.386 . S
C560 C561 1.382 . S
C560 H582 0.950 . S
C561 N557 1.332 . S
C561 C560 1.382 . S
C561 H563 0.952 . S
C562 N557 1.332 . S
C562 C558 1.382 . S
C562 H564 0.948 . S
H563 C561 0.952 . S
H564 C562 0.948 . S
H565 C554 0.952 . S
H566 C556 0.948 . S
C567 C533 1.395 . S
C567 C537 1.391 . S
C568 C530 1.389 . S
C568 C550 1.392 . S
C569 C540 1.392 . S
C569 C542 1.389 . S
C570 C545 1.395 . S
C570 C547 1.391 . S
H571 C531 0.951 . S
H572 C532 0.950 . S
H573 C538 0.949 . S
H574 C539 0.950 . S
H575 C543 0.951 . S
H576 C544 0.950 . S
H577 C548 0.949 . S
H578 C549 0.950 . S
H579 C553 0.950 . S
H580 C555 0.950 . S
H581 C558 0.950 . S
H582 C560 0.950 . S
C583 C584 1.443 . S
C583 N587 1.376 . S
C583 C621 1.389 . S
C584 C583 1.443 . S
C584 C585 1.340 . S
C584 H624 0.951 . S
C585 C584 1.340 . S
C585 C586 1.439 . S
C585 H625 0.950 . S
C586 C585 1.439 . S
C586 N587 1.374 . S
C586 C620 1.395 . S
N587 C583 1.376 . S
N587 C586 1.374 . S
N587 Co588 2.008 . S
Co588 N587 2.008 . S
Co588 N589 1.995 . S
Co588 N594 2.008 . S
Co588 N599 1.995 . S
Co588 N604 2.282 . S
Co588 N610 2.282 . S
N589 Co588 1.995 . S
N589 C590 1.376 . S
N589 C593 1.383 . S
C590 N589 1.376 . S
C590 C591 1.446 . S
C590 C620 1.391 . S
C591 C590 1.446 . S
C591 C592 1.339 . S
C591 H626 0.949 . S
C592 C591 1.339 . S
C592 C593 1.439 . S
C592 H627 0.950 . S
C593 N589 1.383 . S
C593 C592 1.439 . S
C593 C622 1.392 . S
N594 Co588 2.008 . S
N594 C595 1.376 . S
N594 C598 1.374 . S
C595 N594 1.376 . S
C595 C596 1.443 . S
C595 C622 1.389 . S
C596 C595 1.443 . S
C596 C597 1.340 . S
C596 H628 0.951 . S
C597 C596 1.340 . S
C597 C598 1.439 . S
C597 H629 0.950 . S
C598 N594 1.374 . S
C598 C597 1.439 . S
C598 C623 1.395 . S
N599 Co588 1.995 . S
N599 C600 1.376 . S
N599 C603 1.383 . S
C600 N599 1.376 . S
C600 C601 1.446 . S
C600 C623 1.391 . S
C601 C600 1.446 . S
C601 C602 1.339 . S
C601 H630 0.949 . S
C602 C601 1.339 . S
C602 C603 1.439 . S
C602 H631 0.950 . S
C603 N599 1.383 . S
C603 C602 1.439 . S
C603 C621 1.392 . S
N604 Co588 2.282 . S
N604 C607 1.332 . S
N604 C609 1.332 . S
C605 C606 1.386 . S
C605 C608 1.388 . S
C606 C605 1.386 . S
C606 C607 1.382 . S
C606 H632 0.950 . S
C607 N604 1.332 . S
C607 C606 1.382 . S
C607 H618 0.952 . S
C608 C605 1.388 . S
C608 C609 1.382 . S
C608 H633 0.950 . S
C609 N604 1.332 . S
C609 C608 1.382 . S
C609 H619 0.948 . S
N610 Co588 2.282 . S
N610 C614 1.332 . S
N610 C615 1.332 . S
C611 C612 1.388 . S
C611 C615 1.382 . S
C611 H634 0.950 . S
C612 C611 1.388 . S
C612 C613 1.386 . S
C613 C612 1.386 . S
C613 C614 1.382 . S
C613 H635 0.950 . S
C614 N610 1.332 . S
C614 C613 1.382 . S
C614 H616 0.952 . S
C615 N610 1.332 . S
C615 C611 1.382 . S
C615 H617 0.948 . S
H616 C614 0.952 . S
H617 C615 0.948 . S
H618 C607 0.952 . S
H619 C609 0.948 . S
C620 C586 1.395 . S
C620 C590 1.391 . S
C621 C583 1.389 . S
C621 C603 1.392 . S
C622 C593 1.392 . S
C622 C595 1.389 . S
C623 C598 1.395 . S
C623 C600 1.391 . S
H624 C584 0.951 . S
H625 C585 0.950 . S
H626 C591 0.949 . S
H627 C592 0.950 . S
H628 C596 0.951 . S
H629 C597 0.950 . S
H630 C601 0.949 . S
H631 C602 0.950 . S
H632 C606 0.950 . S
H633 C608 0.950 . S
H634 C611 0.950 . S
H635 C613 0.950 . S
C636 C637 1.443 . S
C636 N640 1.376 . S
C636 C674 1.389 . S
C637 C636 1.443 . S
C637 C638 1.340 . S
C637 H677 0.951 . S
C638 C637 1.340 . S
C638 C639 1.439 . S
C638 H678 0.950 . S
C639 C638 1.439 . S
C639 N640 1.374 . S
C639 C673 1.395 . S
N640 C636 1.376 . S
N640 C639 1.374 . S
N640 Co641 2.008 . S
Co641 N640 2.008 . S
Co641 N642 1.995 . S
Co641 N647 2.008 . S
Co641 N652 1.995 . S
Co641 N657 2.282 . S
Co641 N663 2.282 . S
N642 Co641 1.995 . S
N642 C643 1.376 . S
N642 C646 1.383 . S
C643 N642 1.376 . S
C643 C644 1.446 . S
C643 C673 1.391 . S
C644 C643 1.446 . S
C644 C645 1.339 . S
C644 H679 0.949 . S
C645 C644 1.339 . S
C645 C646 1.439 . S
C645 H680 0.950 . S
C646 N642 1.383 . S
C646 C645 1.439 . S
C646 C675 1.392 . S
N647 Co641 2.008 . S
N647 C648 1.376 . S
N647 C651 1.374 . S
C648 N647 1.376 . S
C648 C649 1.443 . S
C648 C675 1.389 . S
C649 C648 1.443 . S
C649 C650 1.340 . S
C649 H681 0.951 . S
C650 C649 1.340 . S
C650 C651 1.439 . S
C650 H682 0.950 . S
C651 N647 1.374 . S
C651 C650 1.439 . S
C651 C676 1.395 . S
N652 Co641 1.995 . S
N652 C653 1.376 . S
N652 C656 1.383 . S
C653 N652 1.376 . S
C653 C654 1.446 . S
C653 C676 1.391 . S
C654 C653 1.446 . S
C654 C655 1.339 . S
C654 H683 0.949 . S
C655 C654 1.339 . S
C655 C656 1.439 . S
C655 H684 0.950 . S
C656 N652 1.383 . S
C656 C655 1.439 . S
C656 C674 1.392 . S
N657 Co641 2.282 . S
N657 C660 1.332 . S
N657 C662 1.332 . S
C658 C659 1.386 . S
C658 C661 1.388 . S
C659 C658 1.386 . S
C659 C660 1.382 . S
C659 H685 0.950 . S
C660 N657 1.332 . S
C660 C659 1.382 . S
C660 H671 0.952 . S
C661 C658 1.388 . S
C661 C662 1.382 . S
C661 H686 0.950 . S
C662 N657 1.332 . S
C662 C661 1.382 . S
C662 H672 0.948 . S
N663 Co641 2.282 . S
N663 C667 1.332 . S
N663 C668 1.332 . S
C664 C665 1.388 . S
C664 C668 1.382 . S
C664 H687 0.950 . S
C665 C664 1.388 . S
C665 C666 1.386 . S
C666 C665 1.386 . S
C666 C667 1.382 . S
C666 H688 0.950 . S
C667 N663 1.332 . S
C667 C666 1.382 . S
C667 H669 0.952 . S
C668 N663 1.332 . S
C668 C664 1.382 . S
C668 H670 0.948 . S
H669 C667 0.952 . S
H670 C668 0.948 . S
H671 C660 0.952 . S
H672 C662 0.948 . S
C673 C639 1.395 . S
C673 C643 1.391 . S
C674 C636 1.389 . S
C674 C656 1.392 . S
C675 C646 1.392 . S
C675 C648 1.389 . S
C676 C651 1.395 . S
C676 C653 1.391 . S
H677 C637 0.951 . S
H678 C638 0.950 . S
H679 C644 0.949 . S
H680 C645 0.950 . S
H681 C649 0.951 . S
H682 C650 0.950 . S
H683 C654 0.949 . S
H684 C655 0.950 . S
H685 C659 0.950 . S
H686 C661 0.950 . S
H687 C664 0.950 . S
H688 C666 0.950 . S
C689 C690 1.443 . S
C689 N693 1.376 . S
C689 C727 1.389 . S
C690 C689 1.443 . S
C690 C691 1.340 . S
C690 H730 0.951 . S
C691 C690 1.340 . S
C691 C692 1.439 . S
C691 H731 0.950 . S
C692 C691 1.439 . S
C692 N693 1.374 . S
C692 C726 1.395 . S
N693 C689 1.376 . S
N693 C692 1.374 . S
N693 Co694 2.008 . S
Co694 N693 2.008 . S
Co694 N695 1.995 . S
Co694 N700 2.008 . S
Co694 N705 1.995 . S
Co694 N710 2.282 . S
Co694 N716 2.282 . S
N695 Co694 1.995 . S
N695 C696 1.376 . S
N695 C699 1.383 . S
C696 N695 1.376 . S
C696 C697 1.446 . S
C696 C726 1.391 . S
C697 C696 1.446 . S
C697 C698 1.339 . S
C697 H732 0.949 . S
C698 C697 1.339 . S
C698 C699 1.439 . S
C698 H733 0.950 . S
C699 N695 1.383 . S
C699 C698 1.439 . S
C699 C728 1.392 . S
N700 Co694 2.008 . S
N700 C701 1.376 . S
N700 C704 1.374 . S
C701 N700 1.376 . S
C701 C702 1.443 . S
C701 C728 1.389 . S
C702 C701 1.443 . S
C702 C703 1.340 . S
C702 H734 0.951 . S
C703 C702 1.340 . S
C703 C704 1.439 . S
C703 H735 0.950 . S
C704 N700 1.374 . S
C704 C703 1.439 . S
C704 C729 1.395 . S
N705 Co694 1.995 . S
N705 C706 1.376 . S
N705 C709 1.383 . S
C706 N705 1.376 . S
C706 C707 1.446 . S
C706 C729 1.391 . S
C707 C706 1.446 . S
C707 C708 1.339 . S
C707 H736 0.949 . S
C708 C707 1.339 . S
C708 C709 1.439 . S
C708 H737 0.950 . S
C709 N705 1.383 . S
C709 C708 1.439 . S
C709 C727 1.392 . S
N710 Co694 2.282 . S
N710 C713 1.332 . S
N710 C715 1.332 . S
C711 C712 1.386 . S
C711 C714 1.388 . S
C712 C711 1.386 . S
C712 C713 1.382 . S
C712 H738 0.950 . S
C713 N710 1.332 . S
C713 C712 1.382 . S
C713 H724 0.952 . S
C714 C711 1.388 . S
C714 C715 1.382 . S
C714 H739 0.950 . S
C715 N710 1.332 . S
C715 C714 1.382 . S
C715 H725 0.948 . S
N716 Co694 2.282 . S
N716 C720 1.332 . S
N716 C721 1.332 . S
C717 C718 1.388 . S
C717 C721 1.382 . S
C717 H740 0.950 . S
C718 C717 1.388 . S
C718 C719 1.386 . S
C719 C718 1.386 . S
C719 C720 1.382 . S
C719 H741 0.950 . S
C720 N716 1.332 . S
C720 C719 1.382 . S
C720 H722 0.952 . S
C721 N716 1.332 . S
C721 C717 1.382 . S
C721 H723 0.948 . S
H722 C720 0.952 . S
H723 C721 0.948 . S
H724 C713 0.952 . S
H725 C715 0.948 . S
C726 C692 1.395 . S
C726 C696 1.391 . S
C727 C689 1.389 . S
C727 C709 1.392 . S
C728 C699 1.392 . S
C728 C701 1.389 . S
C729 C704 1.395 . S
C729 C706 1.391 . S
H730 C690 0.951 . S
H731 C691 0.950 . S
H732 C697 0.949 . S
H733 C698 0.950 . S
H734 C702 0.951 . S
H735 C703 0.950 . S
H736 C707 0.949 . S
H737 C708 0.950 . S
H738 C712 0.950 . S
H739 C714 0.950 . S
H740 C717 0.950 . S
H741 C719 0.950 . S
C742 C743 1.443 . S
C742 N746 1.376 . S
C742 C780 1.389 . S
C743 C742 1.443 . S
C743 C744 1.340 . S
C743 H783 0.951 . S
C744 C743 1.340 . S
C744 C745 1.439 . S
C744 H784 0.950 . S
C745 C744 1.439 . S
C745 N746 1.374 . S
C745 C779 1.395 . S
N746 C742 1.376 . S
N746 C745 1.374 . S
N746 Co747 2.008 . S
Co747 N746 2.008 . S
Co747 N748 1.995 . S
Co747 N753 2.008 . S
Co747 N758 1.995 . S
Co747 N763 2.282 . S
Co747 N769 2.282 . S
N748 Co747 1.995 . S
N748 C749 1.376 . S
N748 C752 1.383 . S
C749 N748 1.376 . S
C749 C750 1.446 . S
C749 C779 1.391 . S
C750 C749 1.446 . S
C750 C751 1.339 . S
C750 H785 0.949 . S
C751 C750 1.339 . S
C751 C752 1.439 . S
C751 H786 0.950 . S
C752 N748 1.383 . S
C752 C751 1.439 . S
C752 C781 1.392 . S
N753 Co747 2.008 . S
N753 C754 1.376 . S
N753 C757 1.374 . S
C754 N753 1.376 . S
C754 C755 1.443 . S
C754 C781 1.389 . S
C755 C754 1.443 . S
C755 C756 1.340 . S
C755 H787 0.951 . S
C756 C755 1.340 . S
C756 C757 1.439 . S
C756 H788 0.950 . S
C757 N753 1.374 . S
C757 C756 1.439 . S
C757 C782 1.395 . S
N758 Co747 1.995 . S
N758 C759 1.376 . S
N758 C762 1.383 . S
C759 N758 1.376 . S
C759 C760 1.446 . S
C759 C782 1.391 . S
C760 C759 1.446 . S
C760 C761 1.339 . S
C760 H789 0.949 . S
C761 C760 1.339 . S
C761 C762 1.439 . S
C761 H790 0.950 . S
C762 N758 1.383 . S
C762 C761 1.439 . S
C762 C780 1.392 . S
N763 Co747 2.282 . S
N763 C766 1.332 . S
N763 C768 1.332 . S
C764 C765 1.386 . S
C764 C767 1.388 . S
C765 C764 1.386 . S
C765 C766 1.382 . S
C765 H791 0.950 . S
C766 N763 1.332 . S
C766 C765 1.382 . S
C766 H777 0.952 . S
C767 C764 1.388 . S
C767 C768 1.382 . S
C767 H792 0.950 . S
C768 N763 1.332 . S
C768 C767 1.382 . S
C768 H778 0.948 . S
N769 Co747 2.282 . S
N769 C773 1.332 . S
N769 C774 1.332 . S
C770 C771 1.388 . S
C770 C774 1.382 . S
C770 H793 0.950 . S
C771 C770 1.388 . S
C771 C772 1.386 . S
C772 C771 1.386 . S
C772 C773 1.382 . S
C772 H794 0.950 . S
C773 N769 1.332 . S
C773 C772 1.382 . S
C773 H775 0.952 . S
C774 N769 1.332 . S
C774 C770 1.382 . S
C774 H776 0.948 . S
H775 C773 0.952 . S
H776 C774 0.948 . S
H777 C766 0.952 . S
H778 C768 0.948 . S
C779 C745 1.395 . S
C779 C749 1.391 . S
C780 C742 1.389 . S
C780 C762 1.392 . S
C781 C752 1.392 . S
C781 C754 1.389 . S
C782 C757 1.395 . S
C782 C759 1.391 . S
H783 C743 0.951 . S
H784 C744 0.950 . S
H785 C750 0.949 . S
H786 C751 0.950 . S
H787 C755 0.951 . S
H788 C756 0.950 . S
H789 C760 0.949 . S
H790 C761 0.950 . S
H791 C765 0.950 . S
H792 C767 0.950 . S
H793 C770 0.950 . S
H794 C772 0.950 . S
C795 C796 1.443 . S
C795 N799 1.376 . S
C795 C833 1.389 . S
C796 C795 1.443 . S
C796 C797 1.340 . S
C796 H836 0.951 . S
C797 C796 1.340 . S
C797 C798 1.439 . S
C797 H837 0.950 . S
C798 C797 1.439 . S
C798 N799 1.374 . S
C798 C832 1.395 . S
N799 C795 1.376 . S
N799 C798 1.374 . S
N799 Co800 2.008 . S
Co800 N799 2.008 . S
Co800 N801 1.995 . S
Co800 N806 2.008 . S
Co800 N811 1.995 . S
Co800 N816 2.282 . S
Co800 N822 2.282 . S
N801 Co800 1.995 . S
N801 C802 1.376 . S
N801 C805 1.383 . S
C802 N801 1.376 . S
C802 C803 1.446 . S
C802 C832 1.391 . S
C803 C802 1.446 . S
C803 C804 1.339 . S
C803 H838 0.949 . S
C804 C803 1.339 . S
C804 C805 1.439 . S
C804 H839 0.950 . S
C805 N801 1.383 . S
C805 C804 1.439 . S
C805 C834 1.392 . S
N806 Co800 2.008 . S
N806 C807 1.376 . S
N806 C810 1.374 . S
C807 N806 1.376 . S
C807 C808 1.443 . S
C807 C834 1.389 . S
C808 C807 1.443 . S
C808 C809 1.340 . S
C808 H840 0.951 . S
C809 C808 1.340 . S
C809 C810 1.439 . S
C809 H841 0.950 . S
C810 N806 1.374 . S
C810 C809 1.439 . S
C810 C835 1.395 . S
N811 Co800 1.995 . S
N811 C812 1.376 . S
N811 C815 1.383 . S
C812 N811 1.376 . S
C812 C813 1.446 . S
C812 C835 1.391 . S
C813 C812 1.446 . S
C813 C814 1.339 . S
C813 H842 0.949 . S
C814 C813 1.339 . S
C814 C815 1.439 . S
C814 H843 0.950 . S
C815 N811 1.383 . S
C815 C814 1.439 . S
C815 C833 1.392 . S
N816 Co800 2.282 . S
N816 C819 1.332 . S
N816 C821 1.332 . S
C817 C818 1.386 . S
C817 C820 1.388 . S
C818 C817 1.386 . S
C818 C819 1.382 . S
C818 H844 0.950 . S
C819 N816 1.332 . S
C819 C818 1.382 . S
C819 H830 0.952 . S
C820 C817 1.388 . S
C820 C821 1.382 . S
C820 H845 0.950 . S
C821 N816 1.332 . S
C821 C820 1.382 . S
C821 H831 0.948 . S
N822 Co800 2.282 . S
N822 C826 1.332 . S
N822 C827 1.332 . S
C823 C824 1.388 . S
C823 C827 1.382 . S
C823 H846 0.950 . S
C824 C823 1.388 . S
C824 C825 1.386 . S
C825 C824 1.386 . S
C825 C826 1.382 . S
C825 H847 0.950 . S
C826 N822 1.332 . S
C826 C825 1.382 . S
C826 H828 0.952 . S
C827 N822 1.332 . S
C827 C823 1.382 . S
C827 H829 0.948 . S
H828 C826 0.952 . S
H829 C827 0.948 . S
H830 C819 0.952 . S
H831 C821 0.948 . S
C832 C798 1.395 . S
C832 C802 1.391 . S
C833 C795 1.389 . S
C833 C815 1.392 . S
C834 C805 1.392 . S
C834 C807 1.389 . S
C835 C810 1.395 . S
C835 C812 1.391 . S
H836 C796 0.951 . S
H837 C797 0.950 . S
H838 C803 0.949 . S
H839 C804 0.950 . S
H840 C808 0.951 . S
H841 C809 0.950 . S
H842 C813 0.949 . S
H843 C814 0.950 . S
H844 C818 0.950 . S
H845 C820 0.950 . S
H846 C823 0.950 . S
H847 C825 0.950 . S
C848 C849 1.363 . S
C848 C854 1.379 . S
C848 N856 1.356 . S
C849 C848 1.363 . S
C849 C855 1.363 . S
C850 C851 1.363 . S
C850 C855 1.379 . S
C850 N857 1.356 . S
C851 C850 1.363 . S
C851 C854 1.363 . S
N852 C854 1.356 . S
N852 H864 0.984 . S
N852 H865 0.985 . S
N853 C855 1.356 . S
N853 H858 0.984 . S
N853 H859 0.985 . S
C854 C848 1.379 . S
C854 C851 1.363 . S
C854 N852 1.356 . S
C855 C849 1.363 . S
C855 C850 1.379 . S
C855 N853 1.356 . S
N856 C848 1.356 . S
N856 H862 0.984 . S
N856 H863 0.984 . S
N857 C850 1.356 . S
N857 H860 0.984 . S
N857 H861 0.985 . S
H858 N853 0.984 . S
H859 N853 0.985 . S
H860 N857 0.984 . S
H861 N857 0.985 . S
H862 N856 0.984 . S
H863 N856 0.984 . S
H864 N852 0.984 . S
H865 N852 0.985 . S
C866 C867 1.363 . S
C866 C872 1.379 . S
C866 N874 1.356 . S
C867 C866 1.363 . S
C867 C873 1.363 . S
C868 C869 1.363 . S
C868 C873 1.379 . S
C868 N875 1.356 . S
C869 C868 1.363 . S
C869 C872 1.363 . S
N870 C872 1.356 . S
N870 H882 0.984 . S
N870 H883 0.985 . S
N871 C873 1.356 . S
N871 H876 0.984 . S
N871 H877 0.985 . S
C872 C866 1.379 . S
C872 C869 1.363 . S
C872 N870 1.356 . S
C873 C867 1.363 . S
C873 C868 1.379 . S
C873 N871 1.356 . S
N874 C866 1.356 . S
N874 H880 0.984 . S
N874 H881 0.984 . S
N875 C868 1.356 . S
N875 H878 0.984 . S
N875 H879 0.985 . S
H876 N871 0.984 . S
H877 N871 0.985 . S
H878 N875 0.984 . S
H879 N875 0.985 . S
H880 N874 0.984 . S
H881 N874 0.984 . S
H882 N870 0.984 . S
H883 N870 0.985 . S
C884 C885 1.363 . S
C884 C890 1.379 1_554 S
C884 N892 1.356 . S
C885 C884 1.363 . S
C885 C891 1.363 . S
C886 C887 1.363 . S
C886 C891 1.379 1_556 S
C886 N893 1.356 . S
C887 C886 1.363 . S
C887 C890 1.363 . S
N888 C890 1.356 . S
N888 H900 0.984 . S
N888 H901 0.985 . S
N889 C891 1.356 . S
N889 H894 0.984 . S
N889 H895 0.985 . S
C890 C884 1.379 1_556 S
C890 C887 1.363 . S
C890 N888 1.356 . S
C891 C885 1.363 . S
C891 C886 1.379 1_554 S
C891 N889 1.356 . S
N892 C884 1.356 . S
N892 H898 0.984 . S
N892 H899 0.984 . S
N893 C886 1.356 . S
N893 H896 0.984 . S
N893 H897 0.985 . S
H894 N889 0.984 . S
H895 N889 0.985 . S
H896 N893 0.984 . S
H897 N893 0.985 . S
H898 N892 0.984 . S
H899 N892 0.984 . S
H900 N888 0.984 . S
H901 N888 0.985 . S
C902 C903 1.363 . S
C902 C908 1.379 1_556 S
C902 N910 1.356 . S
C903 C902 1.363 . S
C903 C909 1.363 . S
C904 C905 1.363 . S
C904 C909 1.379 1_554 S
C904 N911 1.356 . S
C905 C904 1.363 . S
C905 C908 1.363 . S
N906 C908 1.356 . S
N906 H918 0.984 . S
N906 H919 0.985 . S
N907 C909 1.356 . S
N907 H912 0.984 . S
N907 H913 0.985 . S
C908 C902 1.379 1_554 S
C908 C905 1.363 . S
C908 N906 1.356 . S
C909 C903 1.363 . S
C909 C904 1.379 1_556 S
C909 N907 1.356 . S
N910 C902 1.356 . S
N910 H916 0.984 . S
N910 H917 0.984 . S
N911 C904 1.356 . S
N911 H914 0.984 . S
N911 H915 0.985 . S
H912 N907 0.984 . S
H913 N907 0.985 . S
H914 N911 0.984 . S
H915 N911 0.985 . S
H916 N910 0.984 . S
H917 N910 0.984 . S
H918 N906 0.984 . S
H919 N906 0.985 . S
C920 C921 1.363 . S
C920 C926 1.379 . S
C920 N928 1.356 . S
C921 C920 1.363 . S
C921 C927 1.363 . S
C922 C923 1.363 . S
C922 C927 1.379 . S
C922 N929 1.356 . S
C923 C922 1.363 . S
C923 C926 1.363 . S
N924 C926 1.356 . S
N924 H936 0.984 . S
N924 H937 0.985 . S
N925 C927 1.356 . S
N925 H930 0.984 . S
N925 H931 0.985 . S
C926 C920 1.379 . S
C926 C923 1.363 . S
C926 N924 1.356 . S
C927 C921 1.363 . S
C927 C922 1.379 . S
C927 N925 1.356 . S
N928 C920 1.356 . S
N928 H934 0.984 . S
N928 H935 0.984 . S
N929 C922 1.356 . S
N929 H932 0.984 . S
N929 H933 0.985 . S
H930 N925 0.984 . S
H931 N925 0.985 . S
H932 N929 0.984 . S
H933 N929 0.985 . S
H934 N928 0.984 . S
H935 N928 0.984 . S
H936 N924 0.984 . S
H937 N924 0.985 . S
C938 C939 1.363 . S
C938 C944 1.379 . S
C938 N946 1.356 . S
C939 C938 1.363 . S
C939 C945 1.363 . S
C940 C941 1.363 . S
C940 C945 1.379 . S
C940 N947 1.356 . S
C941 C940 1.363 . S
C941 C944 1.363 . S
N942 C944 1.356 . S
N942 H954 0.984 . S
N942 H955 0.985 . S
N943 C945 1.356 . S
N943 H948 0.984 . S
N943 H949 0.985 . S
C944 C938 1.379 . S
C944 C941 1.363 . S
C944 N942 1.356 . S
C945 C939 1.363 . S
C945 C940 1.379 . S
C945 N943 1.356 . S
N946 C938 1.356 . S
N946 H952 0.984 . S
N946 H953 0.984 . S
N947 C940 1.356 . S
N947 H950 0.984 . S
N947 H951 0.985 . S
H948 N943 0.984 . S
H949 N943 0.985 . S
H950 N947 0.984 . S
H951 N947 0.985 . S
H952 N946 0.984 . S
H953 N946 0.984 . S
H954 N942 0.984 . S
H955 N942 0.985 . S
C956 C957 1.363 . S
C956 C962 1.379 1_556 S
C956 N964 1.356 . S
C957 C956 1.363 . S
C957 C963 1.363 . S
C958 C959 1.363 . S
C958 C963 1.379 1_554 S
C958 N965 1.356 . S
C959 C958 1.363 . S
C959 C962 1.363 . S
N960 C962 1.356 . S
N960 H972 0.984 . S
N960 H973 0.985 . S
N961 C963 1.356 . S
N961 H966 0.984 . S
N961 H967 0.985 . S
C962 C956 1.379 1_554 S
C962 C959 1.363 . S
C962 N960 1.356 . S
C963 C957 1.363 . S
C963 C958 1.379 1_556 S
C963 N961 1.356 . S
N964 C956 1.356 . S
N964 H970 0.984 . S
N964 H971 0.984 . S
N965 C958 1.356 . S
N965 H968 0.984 . S
N965 H969 0.985 . S
H966 N961 0.984 . S
H967 N961 0.985 . S
H968 N965 0.984 . S
H969 N965 0.985 . S
H970 N964 0.984 . S
H971 N964 0.984 . S
H972 N960 0.984 . S
H973 N960 0.985 . S
C974 C975 1.363 . S
C974 C980 1.379 1_554 S
C974 N982 1.356 . S
C975 C974 1.363 . S
C975 C981 1.363 . S
C976 C977 1.363 . S
C976 C981 1.379 1_556 S
C976 N983 1.356 . S
C977 C976 1.363 . S
C977 C980 1.363 . S
N978 C980 1.356 . S
N978 H990 0.984 . S
N978 H991 0.985 . S
N979 C981 1.356 . S
N979 H984 0.984 . S
N979 H985 0.985 . S
C980 C974 1.379 1_556 S
C980 C977 1.363 . S
C980 N978 1.356 . S
C981 C975 1.363 . S
C981 C976 1.379 1_554 S
C981 N979 1.356 . S
N982 C974 1.356 . S
N982 H988 0.984 . S
N982 H989 0.984 . S
N983 C976 1.356 . S
N983 H986 0.984 . S
N983 H987 0.985 . S
H984 N979 0.984 . S
H985 N979 0.985 . S
H986 N983 0.984 . S
H987 N983 0.985 . S
H988 N982 0.984 . S
H989 N982 0.984 . S
H990 N978 0.984 . S
H991 N978 0.985 . S
C992 C993 1.363 . S
C992 C998 1.379 . S
C992 N1000 1.356 . S
C993 C992 1.363 . S
C993 C999 1.363 1_565 S
C994 C995 1.363 . S
C994 C999 1.379 . S
C994 N1001 1.356 . S
C995 C994 1.363 . S
C995 C998 1.363 1_545 S
N996 C998 1.356 . S
N996 H1008 0.984 . S
N996 H1009 0.985 . S
N997 C999 1.356 . S
N997 H1002 0.984 . S
N997 H1003 0.985 . S
C998 C992 1.379 . S
C998 C995 1.363 1_565 S
C998 N996 1.356 . S
C999 C993 1.363 1_545 S
C999 C994 1.379 . S
C999 N997 1.356 . S
N1000 C992 1.356 . S
N1000 H1006 0.984 . S
N1000 H1007 0.984 . S
N1001 C994 1.356 . S
N1001 H1004 0.984 . S
N1001 H1005 0.985 . S
H1002 N997 0.984 . S
H1003 N997 0.985 . S
H1004 N1001 0.984 . S
H1005 N1001 0.985 . S
H1006 N1000 0.984 . S
H1007 N1000 0.984 . S
H1008 N996 0.984 . S
H1009 N996 0.985 . S
C1010 C1011 1.363 1_545 S
C1010 C1016 1.379 . S
C1010 N1018 1.356 . S
C1011 C1010 1.363 1_565 S
C1011 C1017 1.363 . S
C1012 C1013 1.363 1_565 S
C1012 C1017 1.379 . S
C1012 N1019 1.356 . S
C1013 C1012 1.363 1_545 S
C1013 C1016 1.363 . S
N1014 C1016 1.356 . S
N1014 H1026 0.984 . S
N1014 H1027 0.985 . S
N1015 C1017 1.356 . S
N1015 H1020 0.984 . S
N1015 H1021 0.985 . S
C1016 C1010 1.379 . S
C1016 C1013 1.363 . S
C1016 N1014 1.356 . S
C1017 C1011 1.363 . S
C1017 C1012 1.379 . S
C1017 N1015 1.356 . S
N1018 C1010 1.356 . S
N1018 H1024 0.984 . S
N1018 H1025 0.984 . S
N1019 C1012 1.356 . S
N1019 H1022 0.984 . S
N1019 H1023 0.985 . S
H1020 N1015 0.984 . S
H1021 N1015 0.985 . S
H1022 N1019 0.984 . S
H1023 N1019 0.985 . S
H1024 N1018 0.984 . S
H1025 N1018 0.984 . S
H1026 N1014 0.984 . S
H1027 N1014 0.985 . S
C1028 C1029 1.363 . S
C1028 C1034 1.379 . S
C1028 N1036 1.356 . S
C1029 C1028 1.363 . S
C1029 C1035 1.363 1_565 S
C1030 C1031 1.363 . S
C1030 C1035 1.379 . S
C1030 N1037 1.356 . S
C1031 C1030 1.363 . S
C1031 C1034 1.363 1_545 S
N1032 C1034 1.356 . S
N1032 H1044 0.984 . S
N1032 H1045 0.985 . S
N1033 C1035 1.356 . S
N1033 H1038 0.984 . S
N1033 H1039 0.985 . S
C1034 C1028 1.379 . S
C1034 C1031 1.363 1_565 S
C1034 N1032 1.356 . S
C1035 C1029 1.363 1_545 S
C1035 C1030 1.379 . S
C1035 N1033 1.356 . S
N1036 C1028 1.356 . S
N1036 H1042 0.984 . S
N1036 H1043 0.984 . S
N1037 C1030 1.356 . S
N1037 H1040 0.984 . S
N1037 H1041 0.985 . S
H1038 N1033 0.984 . S
H1039 N1033 0.985 . S
H1040 N1037 0.984 . S
H1041 N1037 0.985 . S
H1042 N1036 0.984 . S
H1043 N1036 0.984 . S
H1044 N1032 0.984 . S
H1045 N1032 0.985 . S
C1046 C1047 1.363 . S
C1046 C1052 1.379 . S
C1046 N1054 1.356 . S
C1047 C1046 1.363 . S
C1047 C1053 1.363 1_545 S
C1048 C1049 1.363 . S
C1048 C1053 1.379 . S
C1048 N1055 1.356 . S
C1049 C1048 1.363 . S
C1049 C1052 1.363 1_565 S
N1050 C1052 1.356 . S
N1050 H1062 0.984 . S
N1050 H1063 0.985 . S
N1051 C1053 1.356 . S
N1051 H1056 0.984 . S
N1051 H1057 0.985 . S
C1052 C1046 1.379 . S
C1052 C1049 1.363 1_545 S
C1052 N1050 1.356 . S
C1053 C1047 1.363 1_565 S
C1053 C1048 1.379 . S
C1053 N1051 1.356 . S
N1054 C1046 1.356 . S
N1054 H1060 0.984 . S
N1054 H1061 0.984 . S
N1055 C1048 1.356 . S
N1055 H1058 0.984 . S
N1055 H1059 0.985 . S
H1056 N1051 0.984 . S
H1057 N1051 0.985 . S
H1058 N1055 0.984 . S
H1059 N1055 0.985 . S
H1060 N1054 0.984 . S
H1061 N1054 0.984 . S
H1062 N1050 0.984 . S
H1063 N1050 0.985 . S
C1064 C1065 1.363 . S
C1064 C1070 1.379 1_655 S
C1064 N1072 1.356 . S
C1065 C1064 1.363 . S
C1065 C1071 1.363 . S
C1066 C1067 1.363 . S
C1066 C1071 1.379 1_455 S
C1066 N1073 1.356 . S
C1067 C1066 1.363 . S
C1067 C1070 1.363 . S
N1068 C1070 1.356 . S
N1068 H1080 0.984 . S
N1068 H1081 0.985 . S
N1069 C1071 1.356 . S
N1069 H1074 0.984 . S
N1069 H1075 0.985 . S
C1070 C1064 1.379 1_455 S
C1070 C1067 1.363 . S
C1070 N1068 1.356 . S
C1071 C1065 1.363 . S
C1071 C1066 1.379 1_655 S
C1071 N1069 1.356 . S
N1072 C1064 1.356 . S
N1072 H1078 0.984 . S
N1072 H1079 0.984 . S
N1073 C1066 1.356 . S
N1073 H1076 0.984 . S
N1073 H1077 0.985 . S
H1074 N1069 0.984 . S
H1075 N1069 0.985 . S
H1076 N1073 0.984 . S
H1077 N1073 0.985 . S
H1078 N1072 0.984 . S
H1079 N1072 0.984 . S
H1080 N1068 0.984 . S
H1081 N1068 0.985 . S
C1082 C1083 1.363 . S
C1082 C1088 1.379 1_455 S
C1082 N1090 1.356 . S
C1083 C1082 1.363 . S
C1083 C1089 1.363 . S
C1084 C1085 1.363 . S
C1084 C1089 1.379 1_655 S
C1084 N1091 1.356 . S
C1085 C1084 1.363 . S
C1085 C1088 1.363 . S
N1086 C1088 1.356 . S
N1086 H1098 0.984 . S
N1086 H1099 0.985 . S
N1087 C1089 1.356 . S
N1087 H1092 0.984 . S
N1087 H1093 0.985 . S
C1088 C1082 1.379 1_655 S
C1088 C1085 1.363 . S
C1088 N1086 1.356 . S
C1089 C1083 1.363 . S
C1089 C1084 1.379 1_455 S
C1089 N1087 1.356 . S
N1090 C1082 1.356 . S
N1090 H1096 0.984 . S
N1090 H1097 0.984 . S
N1091 C1084 1.356 . S
N1091 H1094 0.984 . S
N1091 H1095 0.985 . S
H1092 N1087 0.984 . S
H1093 N1087 0.985 . S
H1094 N1091 0.984 . S
H1095 N1091 0.985 . S
H1096 N1090 0.984 . S
H1097 N1090 0.984 . S
H1098 N1086 0.984 . S
H1099 N1086 0.985 . S
C1100 C1101 1.363 . S
C1100 C1106 1.379 1_655 S
C1100 N1108 1.356 . S
C1101 C1100 1.363 . S
C1101 C1107 1.363 . S
C1102 C1103 1.363 . S
C1102 C1107 1.379 1_455 S
C1102 N1109 1.356 . S
C1103 C1102 1.363 . S
C1103 C1106 1.363 . S
N1104 C1106 1.356 . S
N1104 H1116 0.984 . S
N1104 H1117 0.985 . S
N1105 C1107 1.356 . S
N1105 H1110 0.984 . S
N1105 H1111 0.985 . S
C1106 C1100 1.379 1_455 S
C1106 C1103 1.363 . S
C1106 N1104 1.356 . S
C1107 C1101 1.363 . S
C1107 C1102 1.379 1_655 S
C1107 N1105 1.356 . S
N1108 C1100 1.356 . S
N1108 H1114 0.984 . S
N1108 H1115 0.984 . S
N1109 C1102 1.356 . S
N1109 H1112 0.984 . S
N1109 H1113 0.985 . S
H1110 N1105 0.984 . S
H1111 N1105 0.985 . S
H1112 N1109 0.984 . S
H1113 N1109 0.985 . S
H1114 N1108 0.984 . S
H1115 N1108 0.984 . S
H1116 N1104 0.984 . S
H1117 N1104 0.985 . S
C1118 C1119 1.363 . S
C1118 C1124 1.379 1_455 S
C1118 N1126 1.356 . S
C1119 C1118 1.363 . S
C1119 C1125 1.363 . S
C1120 C1121 1.363 . S
C1120 C1125 1.379 1_655 S
C1120 N1127 1.356 . S
C1121 C1120 1.363 . S
C1121 C1124 1.363 . S
N1122 C1124 1.356 . S
N1122 H1134 0.984 . S
N1122 H1135 0.985 . S
N1123 C1125 1.356 . S
N1123 H1128 0.984 . S
N1123 H1129 0.985 . S
C1124 C1118 1.379 1_655 S
C1124 C1121 1.363 . S
C1124 N1122 1.356 . S
C1125 C1119 1.363 . S
C1125 C1120 1.379 1_455 S
C1125 N1123 1.356 . S
N1126 C1118 1.356 . S
N1126 H1132 0.984 . S
N1126 H1133 0.984 . S
N1127 C1120 1.356 . S
N1127 H1130 0.984 . S
N1127 H1131 0.985 . S
H1128 N1123 0.984 . S
H1129 N1123 0.985 . S
H1130 N1127 0.984 . S
H1131 N1127 0.985 . S
H1132 N1126 0.984 . S
H1133 N1126 0.984 . S
H1134 N1122 0.984 . S
H1135 N1122 0.985 . S
C1136 C1137 1.363 . S
C1136 C1142 1.379 . S
C1136 N1144 1.356 . S
C1137 C1136 1.363 . S
C1137 C1143 1.363 . S
C1138 C1139 1.363 . S
C1138 C1143 1.379 . S
C1138 N1145 1.356 . S
C1139 C1138 1.363 . S
C1139 C1142 1.363 . S
N1140 C1142 1.356 . S
N1140 H1152 0.984 . S
N1140 H1153 0.985 . S
N1141 C1143 1.356 . S
N1141 H1146 0.984 . S
N1141 H1147 0.985 . S
C1142 C1136 1.379 . S
C1142 C1139 1.363 . S
C1142 N1140 1.356 . S
C1143 C1137 1.363 . S
C1143 C1138 1.379 . S
C1143 N1141 1.356 . S
N1144 C1136 1.356 . S
N1144 H1150 0.984 . S
N1144 H1151 0.984 . S
N1145 C1138 1.356 . S
N1145 H1148 0.984 . S
N1145 H1149 0.985 . S
H1146 N1141 0.984 . S
H1147 N1141 0.985 . S
H1148 N1145 0.984 . S
H1149 N1145 0.985 . S
H1150 N1144 0.984 . S
H1151 N1144 0.984 . S
H1152 N1140 0.984 . S
H1153 N1140 0.985 . S
C1154 C1155 1.363 . S
C1154 C1160 1.379 . S
C1154 N1162 1.356 . S
C1155 C1154 1.363 . S
C1155 C1161 1.363 . S
C1156 C1157 1.363 . S
C1156 C1161 1.379 . S
C1156 N1163 1.356 . S
C1157 C1156 1.363 . S
C1157 C1160 1.363 . S
N1158 C1160 1.356 . S
N1158 H1170 0.984 . S
N1158 H1171 0.985 . S
N1159 C1161 1.356 . S
N1159 H1164 0.984 . S
N1159 H1165 0.985 . S
C1160 C1154 1.379 . S
C1160 C1157 1.363 . S
C1160 N1158 1.356 . S
C1161 C1155 1.363 . S
C1161 C1156 1.379 . S
C1161 N1159 1.356 . S
N1162 C1154 1.356 . S
N1162 H1168 0.984 . S
N1162 H1169 0.984 . S
N1163 C1156 1.356 . S
N1163 H1166 0.984 . S
N1163 H1167 0.985 . S
H1164 N1159 0.984 . S
H1165 N1159 0.985 . S
H1166 N1163 0.984 . S
H1167 N1163 0.985 . S
H1168 N1162 0.984 . S
H1169 N1162 0.984 . S
H1170 N1158 0.984 . S
H1171 N1158 0.985 . S
C1172 C1173 1.363 . S
C1172 C1178 1.379 . S
C1172 N1180 1.356 . S
C1173 C1172 1.363 . S
C1173 C1179 1.363 . S
C1174 C1175 1.363 . S
C1174 C1179 1.379 . S
C1174 N1181 1.356 . S
C1175 C1174 1.363 . S
C1175 C1178 1.363 . S
N1176 C1178 1.356 . S
N1176 H1188 0.984 . S
N1176 H1189 0.985 . S
N1177 C1179 1.356 . S
N1177 H1182 0.984 . S
N1177 H1183 0.985 . S
C1178 C1172 1.379 . S
C1178 C1175 1.363 . S
C1178 N1176 1.356 . S
C1179 C1173 1.363 . S
C1179 C1174 1.379 . S
C1179 N1177 1.356 . S
N1180 C1172 1.356 . S
N1180 H1186 0.984 . S
N1180 H1187 0.984 . S
N1181 C1174 1.356 . S
N1181 H1184 0.984 . S
N1181 H1185 0.985 . S
H1182 N1177 0.984 . S
H1183 N1177 0.985 . S
H1184 N1181 0.984 . S
H1185 N1181 0.985 . S
H1186 N1180 0.984 . S
H1187 N1180 0.984 . S
H1188 N1176 0.984 . S
H1189 N1176 0.985 . S
C1190 C1191 1.363 . S
C1190 C1196 1.379 . S
C1190 N1198 1.356 . S
C1191 C1190 1.363 . S
C1191 C1197 1.363 . S
C1192 C1193 1.363 . S
C1192 C1197 1.379 . S
C1192 N1199 1.356 . S
C1193 C1192 1.363 . S
C1193 C1196 1.363 . S
N1194 C1196 1.356 . S
N1194 H1206 0.984 . S
N1194 H1207 0.985 . S
N1195 C1197 1.356 . S
N1195 H1200 0.984 . S
N1195 H1201 0.985 . S
C1196 C1190 1.379 . S
C1196 C1193 1.363 . S
C1196 N1194 1.356 . S
C1197 C1191 1.363 . S
C1197 C1192 1.379 . S
C1197 N1195 1.356 . S
N1198 C1190 1.356 . S
N1198 H1204 0.984 . S
N1198 H1205 0.984 . S
N1199 C1192 1.356 . S
N1199 H1202 0.984 . S
N1199 H1203 0.985 . S
H1200 N1195 0.984 . S
H1201 N1195 0.985 . S
H1202 N1199 0.984 . S
H1203 N1199 0.985 . S
H1204 N1198 0.984 . S
H1205 N1198 0.984 . S
H1206 N1194 0.984 . S
H1207 N1194 0.985 . S
C1208 C1209 1.363 . S
C1208 C1214 1.379 . S
C1208 N1216 1.356 . S
C1209 C1208 1.363 . S
C1209 C1215 1.363 . S
C1210 C1211 1.363 . S
C1210 C1215 1.379 . S
C1210 N1217 1.356 . S
C1211 C1210 1.363 . S
C1211 C1214 1.363 . S
N1212 C1214 1.356 . S
N1212 H1224 0.984 . S
N1212 H1225 0.985 . S
N1213 C1215 1.356 . S
N1213 H1218 0.984 . S
N1213 H1219 0.985 . S
C1214 C1208 1.379 . S
C1214 C1211 1.363 . S
C1214 N1212 1.356 . S
C1215 C1209 1.363 . S
C1215 C1210 1.379 . S
C1215 N1213 1.356 . S
N1216 C1208 1.356 . S
N1216 H1222 0.984 . S
N1216 H1223 0.984 . S
N1217 C1210 1.356 . S
N1217 H1220 0.984 . S
N1217 H1221 0.985 . S
H1218 N1213 0.984 . S
H1219 N1213 0.985 . S
H1220 N1217 0.984 . S
H1221 N1217 0.985 . S
H1222 N1216 0.984 . S
H1223 N1216 0.984 . S
H1224 N1212 0.984 . S
H1225 N1212 0.985 . S
C1226 C1227 1.363 . S
C1226 C1232 1.379 . S
C1226 N1234 1.356 . S
C1227 C1226 1.363 . S
C1227 C1233 1.363 . S
C1228 C1229 1.363 . S
C1228 C1233 1.379 . S
C1228 N1235 1.356 . S
C1229 C1228 1.363 . S
C1229 C1232 1.363 . S
N1230 C1232 1.356 . S
N1230 H1242 0.984 . S
N1230 H1243 0.985 . S
N1231 C1233 1.356 . S
N1231 H1236 0.984 . S
N1231 H1237 0.985 . S
C1232 C1226 1.379 . S
C1232 C1229 1.363 . S
C1232 N1230 1.356 . S
C1233 C1227 1.363 . S
C1233 C1228 1.379 . S
C1233 N1231 1.356 . S
N1234 C1226 1.356 . S
N1234 H1240 0.984 . S
N1234 H1241 0.984 . S
N1235 C1228 1.356 . S
N1235 H1238 0.984 . S
N1235 H1239 0.985 . S
H1236 N1231 0.984 . S
H1237 N1231 0.985 . S
H1238 N1235 0.984 . S
H1239 N1235 0.985 . S
H1240 N1234 0.984 . S
H1241 N1234 0.984 . S
H1242 N1230 0.984 . S
H1243 N1230 0.985 . S
C1244 C1245 1.363 . S
C1244 C1250 1.379 . S
C1244 N1252 1.356 . S
C1245 C1244 1.363 . S
C1245 C1251 1.363 . S
C1246 C1247 1.363 . S
C1246 C1251 1.379 . S
C1246 N1253 1.356 . S
C1247 C1246 1.363 . S
C1247 C1250 1.363 . S
N1248 C1250 1.356 . S
N1248 H1260 0.984 . S
N1248 H1261 0.985 . S
N1249 C1251 1.356 . S
N1249 H1254 0.984 . S
N1249 H1255 0.985 . S
C1250 C1244 1.379 . S
C1250 C1247 1.363 . S
C1250 N1248 1.356 . S
C1251 C1245 1.363 . S
C1251 C1246 1.379 . S
C1251 N1249 1.356 . S
N1252 C1244 1.356 . S
N1252 H1258 0.984 . S
N1252 H1259 0.984 . S
N1253 C1246 1.356 . S
N1253 H1256 0.984 . S
N1253 H1257 0.985 . S
H1254 N1249 0.984 . S
H1255 N1249 0.985 . S
H1256 N1253 0.984 . S
H1257 N1253 0.985 . S
H1258 N1252 0.984 . S
H1259 N1252 0.984 . S
H1260 N1248 0.984 . S
H1261 N1248 0.985 . S
C1262 C1263 1.363 . S
C1262 C1268 1.379 . S
C1262 N1270 1.356 . S
C1263 C1262 1.363 . S
C1263 C1269 1.363 . S
C1264 C1265 1.363 . S
C1264 C1269 1.379 . S
C1264 N1271 1.356 . S
C1265 C1264 1.363 . S
C1265 C1268 1.363 . S
N1266 C1268 1.356 . S
N1266 H1278 0.984 . S
N1266 H1279 0.985 . S
N1267 C1269 1.356 . S
N1267 H1272 0.984 . S
N1267 H1273 0.985 . S
C1268 C1262 1.379 . S
C1268 C1265 1.363 . S
C1268 N1266 1.356 . S
C1269 C1263 1.363 . S
C1269 C1264 1.379 . S
C1269 N1267 1.356 . S
N1270 C1262 1.356 . S
N1270 H1276 0.984 . S
N1270 H1277 0.984 . S
N1271 C1264 1.356 . S
N1271 H1274 0.984 . S
N1271 H1275 0.985 . S
H1272 N1267 0.984 . S
H1273 N1267 0.985 . S
H1274 N1271 0.984 . S
H1275 N1271 0.985 . S
H1276 N1270 0.984 . S
H1277 N1270 0.984 . S
H1278 N1266 0.984 . S
H1279 N1266 0.985 . S
C1280 C1281 1.363 . S
C1280 C1286 1.379 . S
C1280 N1288 1.356 . S
C1281 C1280 1.363 . S
C1281 C1287 1.363 1_545 S
C1282 C1283 1.363 . S
C1282 C1287 1.379 . S
C1282 N1289 1.356 . S
C1283 C1282 1.363 . S
C1283 C1286 1.363 1_565 S
N1284 C1286 1.356 1_565 S
N1284 H1296 0.984 1_565 S
N1284 H1297 0.985 . S
N1285 C1287 1.356 1_545 S
N1285 H1290 0.984 . S
N1285 H1291 0.985 1_545 S
C1286 C1280 1.379 . S
C1286 C1283 1.363 1_545 S
C1286 N1284 1.356 1_545 S
C1287 C1281 1.363 1_565 S
C1287 C1282 1.379 . S
C1287 N1285 1.356 1_565 S
N1288 C1280 1.356 . S
N1288 H1294 0.984 . S
N1288 H1295 0.984 . S
N1289 C1282 1.356 . S
N1289 H1292 0.984 . S
N1289 H1293 0.985 . S
H1290 N1285 0.984 . S
H1291 N1285 0.985 1_565 S
H1292 N1289 0.984 . S
H1293 N1289 0.985 . S
H1294 N1288 0.984 . S
H1295 N1288 0.984 . S
H1296 N1284 0.984 1_545 S
H1297 N1284 0.985 . S
C1298 C1299 1.380 . S
C1298 C1304 1.362 1_545 S
C1298 N1306 1.362 . S
C1299 C1298 1.380 . S
C1299 C1305 1.363 . S
C1300 C1301 1.380 . S
C1300 C1305 1.362 1_565 S
C1300 N1307 1.362 . S
C1301 C1300 1.380 . S
C1301 C1304 1.363 . S
N1302 C1304 1.356 . S
N1302 H1314 0.984 . S
N1302 H1315 0.985 . S
N1303 C1305 1.356 . S
N1303 H1308 0.984 . S
N1303 H1309 0.985 . S
C1304 C1298 1.362 1_565 S
C1304 C1301 1.363 . S
C1304 N1302 1.356 . S
C1305 C1299 1.363 . S
C1305 C1300 1.362 1_545 S
C1305 N1303 1.356 . S
N1306 C1298 1.362 . S
N1306 H1312 0.984 1_545 S
N1306 H1313 0.984 . S
N1307 C1300 1.362 . S
N1307 H1310 0.984 . S
N1307 H1311 0.985 1_565 S
H1308 N1303 0.984 . S
H1309 N1303 0.985 . S
H1310 N1307 0.984 . S
H1311 N1307 0.985 1_545 S
H1312 N1306 0.984 1_565 S
H1313 N1306 0.984 . S
H1314 N1302 0.984 . S
H1315 N1302 0.985 . S
C1316 C1317 1.363 . S
C1316 C1322 1.379 1_545 S
C1316 N1324 1.356 . S
C1317 C1316 1.363 . S
C1317 C1323 1.363 . S
C1318 C1319 1.363 . S
C1318 C1323 1.379 1_565 S
C1318 N1325 1.356 . S
C1319 C1318 1.363 . S
C1319 C1322 1.363 . S
N1320 C1322 1.356 . S
N1320 H1332 0.984 . S
N1320 H1333 0.985 . S
N1321 C1323 1.356 . S
N1321 H1326 0.984 . S
N1321 H1327 0.985 . S
C1322 C1316 1.379 1_565 S
C1322 C1319 1.363 . S
C1322 N1320 1.356 . S
C1323 C1317 1.363 . S
C1323 C1318 1.379 1_545 S
C1323 N1321 1.356 . S
N1324 C1316 1.356 . S
N1324 H1330 0.984 1_545 S
N1324 H1331 0.984 . S
N1325 C1318 1.356 . S
N1325 H1328 0.984 . S
N1325 H1329 0.985 1_565 S
H1326 N1321 0.984 . S
H1327 N1321 0.985 . S
H1328 N1325 0.984 . S
H1329 N1325 0.985 1_545 S
H1330 N1324 0.984 1_565 S
H1331 N1324 0.984 . S
H1332 N1320 0.984 . S
H1333 N1320 0.985 . S
C1334 C1335 1.363 1_545 S
C1334 C1340 1.379 . S
C1334 N1342 1.356 1_545 S
C1335 C1334 1.363 1_565 S
C1335 C1341 1.363 . S
C1336 C1337 1.363 1_565 S
C1336 C1341 1.379 . S
C1336 N1343 1.356 1_565 S
C1337 C1336 1.363 1_545 S
C1337 C1340 1.363 . S
N1338 C1340 1.356 . S
N1338 H1350 0.984 . S
N1338 H1351 0.985 . S
N1339 C1341 1.356 . S
N1339 H1344 0.984 . S
N1339 H1345 0.985 . S
C1340 C1334 1.379 . S
C1340 C1337 1.363 . S
C1340 N1338 1.356 . S
C1341 C1335 1.363 . S
C1341 C1336 1.379 . S
C1341 N1339 1.356 . S
N1342 C1334 1.356 1_565 S
N1342 H1348 0.984 1_565 S
N1342 H1349 0.984 . S
N1343 C1336 1.356 1_545 S
N1343 H1346 0.984 . S
N1343 H1347 0.985 1_545 S
H1344 N1339 0.984 . S
H1345 N1339 0.985 . S
H1346 N1343 0.984 . S
H1347 N1343 0.985 1_565 S
H1348 N1342 0.984 1_545 S
H1349 N1342 0.984 . S
H1350 N1338 0.984 . S
H1351 N1338 0.985 . S
C1352 C1353 1.363 . S
C1352 C1358 1.379 . S
C1352 N1360 1.356 . S
C1353 C1352 1.363 . S
C1353 C1359 1.363 . S
C1354 C1355 1.363 . S
C1354 C1359 1.379 . S
C1354 N1361 1.356 . S
C1355 C1354 1.363 . S
C1355 C1358 1.363 . S
N1356 C1358 1.356 . S
N1356 H1368 0.984 . S
N1356 H1369 0.985 . S
N1357 C1359 1.356 . S
N1357 H1362 0.984 . S
N1357 H1363 0.985 . S
C1358 C1352 1.379 . S
C1358 C1355 1.363 . S
C1358 N1356 1.356 . S
C1359 C1353 1.363 . S
C1359 C1354 1.379 . S
C1359 N1357 1.356 . S
N1360 C1352 1.356 . S
N1360 H1366 0.984 . S
N1360 H1367 0.984 . S
N1361 C1354 1.356 . S
N1361 H1364 0.984 . S
N1361 H1365 0.985 . S
H1362 N1357 0.984 . S
H1363 N1357 0.985 . S
H1364 N1361 0.984 . S
H1365 N1361 0.985 . S
H1366 N1360 0.984 . S
H1367 N1360 0.984 . S
H1368 N1356 0.984 . S
H1369 N1356 0.985 . S
C1370 C1371 1.363 . S
C1370 C1376 1.379 . S
C1370 N1378 1.356 . S
C1371 C1370 1.363 . S
C1371 C1377 1.363 . S
C1372 C1373 1.363 . S
C1372 C1377 1.379 . S
C1372 N1379 1.356 . S
C1373 C1372 1.363 . S
C1373 C1376 1.363 . S
N1374 C1376 1.356 . S
N1374 H1386 0.984 . S
N1374 H1387 0.985 . S
N1375 C1377 1.356 . S
N1375 H1380 0.984 . S
N1375 H1381 0.985 . S
C1376 C1370 1.379 . S
C1376 C1373 1.363 . S
C1376 N1374 1.356 . S
C1377 C1371 1.363 . S
C1377 C1372 1.379 . S
C1377 N1375 1.356 . S
N1378 C1370 1.356 . S
N1378 H1384 0.984 . S
N1378 H1385 0.984 . S
N1379 C1372 1.356 . S
N1379 H1382 0.984 . S
N1379 H1383 0.985 . S
H1380 N1375 0.984 . S
H1381 N1375 0.985 . S
H1382 N1379 0.984 . S
H1383 N1379 0.985 . S
H1384 N1378 0.984 . S
H1385 N1378 0.984 . S
H1386 N1374 0.984 . S
H1387 N1374 0.985 . S
C1388 C1389 1.363 . S
C1388 C1394 1.379 . S
C1388 N1396 1.356 . S
C1389 C1388 1.363 . S
C1389 C1395 1.363 . S
C1390 C1391 1.363 . S
C1390 C1395 1.379 . S
C1390 N1397 1.356 . S
C1391 C1390 1.363 . S
C1391 C1394 1.363 . S
N1392 C1394 1.356 . S
N1392 H1404 0.984 . S
N1392 H1405 0.985 . S
N1393 C1395 1.356 . S
N1393 H1398 0.984 . S
N1393 H1399 0.985 . S
C1394 C1388 1.379 . S
C1394 C1391 1.363 . S
C1394 N1392 1.356 . S
C1395 C1389 1.363 . S
C1395 C1390 1.379 . S
C1395 N1393 1.356 . S
N1396 C1388 1.356 . S
N1396 H1402 0.984 . S
N1396 H1403 0.984 . S
N1397 C1390 1.356 . S
N1397 H1400 0.984 . S
N1397 H1401 0.985 . S
H1398 N1393 0.984 . S
H1399 N1393 0.985 . S
H1400 N1397 0.984 . S
H1401 N1397 0.985 . S
H1402 N1396 0.984 . S
H1403 N1396 0.984 . S
H1404 N1392 0.984 . S
H1405 N1392 0.985 . S
C1406 C1407 1.363 . S
C1406 C1412 1.379 . S
C1406 N1414 1.356 . S
C1407 C1406 1.363 . S
C1407 C1413 1.363 . S
C1408 C1409 1.363 . S
C1408 C1413 1.379 . S
C1408 N1415 1.356 . S
C1409 C1408 1.363 . S
C1409 C1412 1.363 . S
N1410 C1412 1.356 . S
N1410 H1422 0.984 . S
N1410 H1423 0.985 . S
N1411 C1413 1.356 . S
N1411 H1416 0.984 . S
N1411 H1417 0.985 . S
C1412 C1406 1.379 . S
C1412 C1409 1.363 . S
C1412 N1410 1.356 . S
C1413 C1407 1.363 . S
C1413 C1408 1.379 . S
C1413 N1411 1.356 . S
N1414 C1406 1.356 . S
N1414 H1420 0.984 . S
N1414 H1421 0.984 . S
N1415 C1408 1.356 . S
N1415 H1418 0.984 . S
N1415 H1419 0.985 . S
H1416 N1411 0.984 . S
H1417 N1411 0.985 . S
H1418 N1415 0.984 . S
H1419 N1415 0.985 . S
H1420 N1414 0.984 . S
H1421 N1414 0.984 . S
H1422 N1410 0.984 . S
H1423 N1410 0.985 . S
C849 C39 1.843 . S
C851 C304 1.838 . S
C867 C251 1.838 . S
C869 C92 1.843 . S
C885 C145 1.843 . S
C887 C410 1.838 . S
C903 C357 1.838 . S
C905 C198 1.843 . S
C921 C728 1.838 . S
C923 C463 1.843 . S
C939 C675 1.838 . S
C941 C516 1.843 . S
C957 C834 1.838 . S
C959 C569 1.843 . S
C975 C622 1.843 . S
C977 C781 1.838 . S
C993 C82 1.553 . S
C995 C29 1.553 . S
C1011 C135 1.553 . S
C1013 C188 1.553 . S
C1029 C241 1.556 . S
C1031 C294 1.556 . S
C1047 C347 1.556 . S
C1049 C400 1.556 . S
C1065 C453 1.553 . S
C1067 C506 1.553 . S
C1083 C612 1.553 . S
C1085 C559 1.553 . S
C1101 C718 1.556 . S
C1103 C665 1.556 . S
C1119 C771 1.556 . S
C1121 C824 1.556 . S
C1137 C499 1.535 . S
C1139 C22 1.535 . S
C1155 C75 1.535 . S
C1157 C446 1.535 . S
C1173 C605 1.535 . S
C1175 C128 1.535 . S
C1191 C181 1.535 . S
C1193 C552 1.535 . S
C1209 C234 1.533 . S
C1211 C711 1.533 . S
C1227 C658 1.533 . S
C1229 C287 1.533 . S
C1245 C340 1.533 . S
C1247 C817 1.533 . S
C1263 C764 1.533 . S
C1265 C393 1.533 . S
C1281 C38 1.941 . S
C1283 C144 1.941 . S
C1299 C197 1.941 . S
C1301 C91 1.941 . S
C1317 C356 1.953 . S
C1319 C250 1.953 . S
C1335 C409 1.953 . S
C1337 C303 1.953 . S
C1353 C568 1.941 . S
C1355 C462 1.941 . S
C1371 C515 1.941 . S
C1373 C621 1.941 . S
C1389 C780 1.953 . S
C1391 C674 1.953 . S
C1407 C727 1.953 . S
C1409 C833 1.953 . S
