# Generated by pormake.
# Topology wme, (6)-cn, num edge types: 1
# Building blocks:
#     Node 0, Type 0, BuildingBlock: CUWYAW_clean_sbu_0, # of connection points: 6
#     Node 1, Type 0, BuildingBlock: CUWYAW_clean_sbu_0, # of connection points: 6
#     Node 2, Type 0, BuildingBlock: CUWYAW_clean_sbu_0, # of connection points: 6
#     Node 3, Type 0, BuildingBlock: CUWYAW_clean_sbu_0, # of connection points: 6
#     Node 4, Type 0, BuildingBlock: CUWYAW_clean_sbu_0, # of connection points: 6
#     Node 5, Type 0, BuildingBlock: CUWYAW_clean_sbu_0, # of connection points: 6
#     Node 6, Type 0, BuildingBlock: CUWYAW_clean_sbu_0, # of connection points: 6
#     Node 7, Type 0, BuildingBlock: CUWYAW_clean_sbu_0, # of connection points: 6
#     Node 8, Type 0, BuildingBlock: CUWYAW_clean_sbu_0, # of connection points: 6
#     Node 9, Type 0, BuildingBlock: CUWYAW_clean_sbu_0, # of connection points: 6
#     Node 10, Type 0, BuildingBlock: CUWYAW_clean_sbu_0, # of connection points: 6
#     Node 11, Type 0, BuildingBlock: CUWYAW_clean_sbu_0, # of connection points: 6
#     Edge 12, Type (0, 0), BuildingBlock: XIVTED_clean_linker_0, # of connection points: 2
#     Edge 13, Type (0, 0), BuildingBlock: XIVTED_clean_linker_0, # of connection points: 2
#     Edge 14, Type (0, 0), BuildingBlock: XIVTED_clean_linker_0, # of connection points: 2
#     Edge 15, Type (0, 0), BuildingBlock: XIVTED_clean_linker_0, # of connection points: 2
#     Edge 16, Type (0, 0), BuildingBlock: XIVTED_clean_linker_0, # of connection points: 2
#     Edge 17, Type (0, 0), BuildingBlock: XIVTED_clean_linker_0, # of connection points: 2
#     Edge 18, Type (0, 0), BuildingBlock: XIVTED_clean_linker_0, # of connection points: 2
#     Edge 19, Type (0, 0), BuildingBlock: XIVTED_clean_linker_0, # of connection points: 2
#     Edge 20, Type (0, 0), BuildingBlock: XIVTED_clean_linker_0, # of connection points: 2
#     Edge 21, Type (0, 0), BuildingBlock: XIVTED_clean_linker_0, # of connection points: 2
#     Edge 22, Type (0, 0), BuildingBlock: XIVTED_clean_linker_0, # of connection points: 2
#     Edge 23, Type (0, 0), BuildingBlock: XIVTED_clean_linker_0, # of connection points: 2
#     Edge 24, Type (0, 0), BuildingBlock: XIVTED_clean_linker_0, # of connection points: 2
#     Edge 25, Type (0, 0), BuildingBlock: XIVTED_clean_linker_0, # of connection points: 2
#     Edge 26, Type (0, 0), BuildingBlock: XIVTED_clean_linker_0, # of connection points: 2
#     Edge 27, Type (0, 0), BuildingBlock: XIVTED_clean_linker_0, # of connection points: 2
#     Edge 28, Type (0, 0), BuildingBlock: XIVTED_clean_linker_0, # of connection points: 2
#     Edge 29, Type (0, 0), BuildingBlock: XIVTED_clean_linker_0, # of connection points: 2
#     Edge 30, Type (0, 0), BuildingBlock: XIVTED_clean_linker_0, # of connection points: 2
#     Edge 31, Type (0, 0), BuildingBlock: XIVTED_clean_linker_0, # of connection points: 2
#     Edge 32, Type (0, 0), BuildingBlock: XIVTED_clean_linker_0, # of connection points: 2
#     Edge 33, Type (0, 0), BuildingBlock: XIVTED_clean_linker_0, # of connection points: 2
#     Edge 34, Type (0, 0), BuildingBlock: XIVTED_clean_linker_0, # of connection points: 2
#     Edge 35, Type (0, 0), BuildingBlock: XIVTED_clean_linker_0, # of connection points: 2
#     Edge 36, Type (0, 0), BuildingBlock: XIVTED_clean_linker_0, # of connection points: 2
#     Edge 37, Type (0, 0), BuildingBlock: XIVTED_clean_linker_0, # of connection points: 2
#     Edge 38, Type (0, 0), BuildingBlock: XIVTED_clean_linker_0, # of connection points: 2
#     Edge 39, Type (0, 0), BuildingBlock: XIVTED_clean_linker_0, # of connection points: 2
#     Edge 40, Type (0, 0), BuildingBlock: XIVTED_clean_linker_0, # of connection points: 2
#     Edge 41, Type (0, 0), BuildingBlock: XIVTED_clean_linker_0, # of connection points: 2
#     Edge 42, Type (0, 0), BuildingBlock: XIVTED_clean_linker_0, # of connection points: 2
#     Edge 43, Type (0, 0), BuildingBlock: XIVTED_clean_linker_0, # of connection points: 2
#     Edge 44, Type (0, 0), BuildingBlock: XIVTED_clean_linker_0, # of connection points: 2
#     Edge 45, Type (0, 0), BuildingBlock: XIVTED_clean_linker_0, # of connection points: 2
#     Edge 46, Type (0, 0), BuildingBlock: XIVTED_clean_linker_0, # of connection points: 2
#     Edge 47, Type (0, 0), BuildingBlock: XIVTED_clean_linker_0, # of connection points: 2
# Relax obj value: 0.087
# Max RMSD: 0.189
# Mean RMSD: 0.189
data_MOF--net-wme--node1-CUWYAW_clean_sbu_0--edge1-XIVTED_clean_linker_0
_symmetry_space_group_name_H-M    P1
_symmetry_Int_Tables_number       1
_symmetry_cell_setting            triclinic
loop_
_symmetry_equiv_pos_as_xyz
'x, y, z'
_cell_length_a     40.838664
_cell_length_b     40.810429
_cell_length_c     51.1547
_cell_angle_alpha  89.873259
_cell_angle_beta   90.071914
_cell_angle_gamma 119.96262
loop_
_atom_site_label
_atom_site_type_symbol
_atom_site_fract_x
_atom_site_fract_y
_atom_site_fract_z
_atom_type_partial_charge
C0 C 0.26775 0.27115 0.12816 0.0
Eu1 Eu 0.2439 0.31892 0.13444 0.0
C2 C 0.25251 0.23019 0.13252 0.0
C3 C 0.2434 0.21385 0.15759 0.0
C4 C 0.22754 0.17467 0.1607 0.0
C5 C 0.22012 0.15111 0.13881 0.0
C6 C 0.22921 0.16759 0.11382 0.0
C7 C 0.24538 0.20665 0.11074 0.0
C8 C 0.22204 0.34104 0.17764 0.0
C9 C 0.15077 0.2778 0.13247 0.0
C10 C 0.17812 0.41001 0.10601 0.0
Eu11 Eu 0.20299 0.3639 0.11681 0.0
C12 C 0.18219 0.44737 0.11104 0.0
C13 C 0.1785 0.46718 0.08991 0.0
C14 C 0.1781 0.50076 0.09398 0.0
C15 C 0.18132 0.51526 0.11935 0.0
C16 C 0.18616 0.49594 0.1405 0.0
C17 C 0.18669 0.46226 0.13637 0.0
C18 C 0.22463 0.33116 0.07923 0.0
C19 C 0.29202 0.40949 0.13266 0.0
O20 O 0.25028 0.27923 0.11002 0.0
O21 O 0.27696 0.29364 0.14855 0.0
O22 O 0.24064 0.32287 0.17843 0.0
O23 O 0.21663 0.3468 0.15417 0.0
O24 O 0.18109 0.27381 0.13112 0.0
O25 O 0.15267 0.31086 0.13034 0.0
O26 O 0.16422 0.38465 0.12471 0.0
O27 O 0.2049 0.40897 0.09264 0.0
O28 O 0.19234 0.33011 0.07857 0.0
O29 O 0.24245 0.34862 0.09916 0.0
O30 O 0.25943 0.40928 0.1323 0.0
O31 O 0.29412 0.37813 0.13035 0.0
H32 H 0.24824 0.23119 0.17475 0.0
H33 H 0.22066 0.16275 0.1802 0.0
H34 H 0.22444 0.15035 0.09661 0.0
H35 H 0.25213 0.21852 0.0912 0.0
H36 H 0.17475 0.45603 0.07024 0.0
H37 H 0.17384 0.5146 0.0773 0.0
H38 H 0.1892 0.50669 0.16022 0.0
H39 H 0.18976 0.44749 0.15298 0.0
C40 C 1.00722 0.2584 0.63076 0.0
Eu41 Eu 0.936 0.23665 0.63615 0.0
C42 C 0.03076 0.24043 0.63441 0.0
C43 C 0.06008 0.25454 0.65295 0.0
C44 C 0.08419 0.23938 0.65484 0.0
C45 C 0.07961 0.21022 0.63797 0.0
C46 C 0.04949 0.19527 0.62013 0.0
C47 C 0.02527 0.21004 0.61843 0.0
C48 C 0.89447 0.21124 0.68004 0.0
C49 C 0.88132 0.14474 0.62863 0.0
C50 C 0.78442 0.18333 0.60522 0.0
Eu51 Eu 0.85359 0.20322 0.61846 0.0
C52 C 0.75024 0.18565 0.61058 0.0
C53 C 0.72769 0.18401 0.58938 0.0
C54 C 0.69259 0.1812 0.59356 0.0
C55 C 0.67937 0.18005 0.61909 0.0
C56 C 0.70283 0.1835 0.64034 0.0
C57 C 0.73799 0.18614 0.63613 0.0
C58 C 0.90822 0.22705 0.58077 0.0
C59 C 0.89773 0.28841 0.63962 0.0
O60 O 0.98257 0.24477 0.61171 0.0
O61 O 0.99384 0.26622 0.6517 0.0
O62 O 0.93101 0.22797 0.67911 0.0
O63 O 0.88035 0.20868 0.65741 0.0
O64 O 0.9163 0.17393 0.62902 0.0
O65 O 0.85167 0.14924 0.62757 0.0
O66 O 0.79313 0.16414 0.62158 0.0
O67 O 0.814 0.21337 0.59588 0.0
O68 O 0.87718 0.1948 0.57959 0.0
O69 O 0.9087 0.24327 0.60152 0.0
O70 O 0.865 0.25651 0.63909 0.0
O71 O 0.93026 0.28923 0.6357 0.0
H72 H 0.06492 0.27787 0.66552 0.0
H73 H 0.10733 0.25151 0.6687 0.0
H74 H 0.04506 0.1725 0.60711 0.0
H75 H 1.00279 0.19807 0.60407 0.0
H76 H 0.73671 0.18367 0.56952 0.0
H77 H 0.67548 0.17924 0.57679 0.0
H78 H 0.69334 0.18255 0.66023 0.0
H79 H 0.75499 0.18739 0.65278 0.0
C80 C 0.75878 1.00196 0.12906 0.0
Eu81 Eu 0.71084 0.93041 0.1359 0.0
C82 C 0.79975 0.02806 0.13299 0.0
C83 C 0.81667 0.03584 0.15786 0.0
C84 C 0.85584 0.05973 0.16048 0.0
C85 C 0.8788 0.07588 0.1383 0.0
C86 C 0.86172 0.06795 0.11351 0.0
C87 C 0.82269 0.04452 0.11092 0.0
C88 C 0.69167 0.88784 0.1796 0.0
C89 C 0.75166 0.87805 0.13078 0.0
C90 C 0.61919 0.77547 0.10624 0.0
Eu91 Eu 0.66536 0.84606 0.11803 0.0
C92 C 0.5817 0.74179 0.11015 0.0
C93 C 0.564 0.71823 0.08866 0.0
C94 C 0.53089 0.68353 0.09196 0.0
C95 C 0.51477 0.67166 0.11689 0.0
C96 C 0.53155 0.69616 0.13826 0.0
C97 C 0.56487 0.73095 0.13494 0.0
C98 C 0.69684 0.90091 0.08054 0.0
C99 C 0.6198 0.88864 0.1347 0.0
O100 O 0.75066 0.9761 0.11121 0.0
O101 O 0.73651 0.98898 0.14959 0.0
O102 O 0.71013 0.92458 0.17939 0.0
O103 O 0.68348 0.87494 0.15646 0.0
O104 O 0.75591 0.91251 0.13161 0.0
O105 O 0.71838 0.84744 0.12868 0.0
O106 O 0.6435 0.78618 0.12553 0.0
O107 O 0.62094 0.8038 0.09305 0.0
O108 O 0.69862 0.87008 0.07962 0.0
O109 O 0.67981 0.90085 0.1008 0.0
O110 O 0.62013 0.85642 0.13385 0.0
O111 O 0.65135 0.92216 0.1335 0.0
H112 H 0.79979 0.02335 0.17523 0.0
H113 H 0.86823 0.06521 0.17984 0.0
H114 H 0.87847 0.0804 0.09608 0.0
H115 H 0.81038 0.03904 0.09152 0.0
H116 H 0.57649 0.72615 0.06935 0.0
H117 H 0.51829 0.66564 0.07504 0.0
H118 H 0.51984 0.68776 0.15772 0.0
H119 H 0.57805 0.74874 0.15182 0.0
C120 C 0.76682 0.75077 0.63191 0.0
Eu121 Eu 0.7917 0.70356 0.63702 0.0
C122 C 0.78271 0.79221 0.63347 0.0
C123 C 0.79591 0.81246 0.65701 0.0
C124 C 0.81076 0.8518 0.6574 0.0
C125 C 0.81255 0.87142 0.63429 0.0
C126 C 0.80019 0.85108 0.61077 0.0
C127 C 0.78532 0.81204 0.6104 0.0
C128 C 0.81463 0.6818 0.67983 0.0
C129 C 0.88464 0.74499 0.63168 0.0
C130 C 0.85469 0.61201 0.60555 0.0
Eu131 Eu 0.83125 0.65881 0.61784 0.0
C132 C 0.85084 0.57462 0.61081 0.0
C133 C 0.84616 0.55086 0.58964 0.0
C134 C 0.84792 0.51782 0.59334 0.0
C135 C 0.85447 0.50786 0.61834 0.0
C136 C 0.85731 0.53077 0.63974 0.0
C137 C 0.85559 0.56388 0.63602 0.0
C138 C 0.80966 0.69304 0.58126 0.0
C139 C 0.74302 0.61305 0.63563 0.0
O140 O 0.7796 0.73953 0.61253 0.0
O141 O 0.76257 0.73161 0.65351 0.0
O142 O 0.79581 0.69969 0.6806 0.0
O143 O 0.81947 0.67517 0.65636 0.0
O144 O 0.85426 0.74888 0.63281 0.0
O145 O 0.88267 0.71202 0.62899 0.0
O146 O 0.87062 0.63821 0.62352 0.0
O147 O 0.82688 0.61289 0.59343 0.0
O148 O 0.84184 0.69401 0.58023 0.0
O149 O 0.79176 0.67475 0.60099 0.0
O150 O 0.77553 0.61331 0.63409 0.0
O151 O 0.74093 0.64448 0.63425 0.0
H152 H 0.79454 0.79798 0.6751 0.0
H153 H 0.81987 0.86666 0.67584 0.0
H154 H 0.8018 0.86538 0.59254 0.0
H155 H 0.77573 0.79725 0.59194 0.0
H156 H 0.84246 0.55855 0.57001 0.0
H157 H 0.84496 0.50047 0.57651 0.0
H158 H 0.8626 0.52405 0.65923 0.0
H159 H 0.8593 0.58168 0.65272 0.0
C160 C 0.02808 0.76044 0.13406 0.0
Eu161 Eu 0.10044 0.78638 0.13732 0.0
C162 C 1.00391 0.77807 0.13475 0.0
C163 C 0.9941 0.78856 0.15841 0.0
C164 C 0.971 0.80496 0.15841 0.0
C165 C 0.95716 0.81102 0.13478 0.0
C166 C 0.96782 0.80136 0.11118 0.0
C167 C 0.99068 0.78494 0.11117 0.0
C168 C 0.14683 0.80829 0.17924 0.0
C169 C 0.14947 0.8794 0.13583 0.0
C170 C 0.25645 0.85746 0.10606 0.0
Eu171 Eu 0.18527 0.83043 0.1174 0.0
C172 C 0.28981 0.85336 0.1116 0.0
C173 C 0.30891 0.84813 0.09067 0.0
C174 C 0.34307 0.84875 0.09476 0.0
C175 C 0.35909 0.85494 0.11989 0.0
C176 C 0.33933 0.85894 0.141 0.0
C177 C 0.30497 0.85806 0.13693 0.0
C178 C 0.12876 0.81049 0.08176 0.0
C179 C 0.14451 0.74016 0.1316 0.0
O180 O 0.05025 0.76896 0.11372 0.0
O181 O 0.04466 0.75942 0.15578 0.0
O182 O 0.11024 0.78908 0.18091 0.0
O183 O 0.1569 0.81443 0.15556 0.0
O184 O 0.11568 0.84856 0.1337 0.0
O185 O 0.18115 0.87856 0.13374 0.0
O186 O 0.24449 0.87097 0.12463 0.0
O187 O 0.22888 0.83076 0.09245 0.0
O188 O 0.15975 0.84302 0.08109 0.0
O189 O 0.12994 0.79137 0.10048 0.0
O190 O 0.17611 0.77311 0.12899 0.0
O191 O 0.1105 0.73682 0.13344 0.0
H192 H 1.0039 0.78377 0.17693 0.0
H193 H 0.96303 0.81178 0.17692 0.0
H194 H 0.95814 0.80617 0.0926 0.0
H195 H 0.99785 0.77743 0.09259 0.0
H196 H 0.29798 0.84474 0.07095 0.0
H197 H 0.35768 0.84588 0.07804 0.0
H198 H 0.35066 0.86316 0.16064 0.0
H199 H 0.29085 0.86202 0.1535 0.0
C200 C 0.27685 0.02125 0.63065 0.0
Eu201 Eu 0.32538 0.09273 0.63623 0.0
C202 C 0.23519 0.99759 0.63353 0.0
C203 C 0.21877 0.97517 0.65589 0.0
C204 C 0.1794 0.95176 0.65766 0.0
C205 C 0.15587 0.95016 0.637 0.0
C206 C 0.17229 0.9734 0.61508 0.0
C207 C 0.21133 0.99667 0.61331 0.0
C208 C 0.34088 0.13478 0.67975 0.0
C209 C 0.28431 0.14407 0.62833 0.0
C210 C 0.41779 0.24629 0.60537 0.0
Eu211 Eu 0.37126 0.17605 0.61802 0.0
C212 C 0.45424 0.28088 0.60982 0.0
C213 C 0.46895 0.30782 0.58973 0.0
C214 C 0.50132 0.34282 0.59385 0.0
C215 C 0.51974 0.3516 0.61819 0.0
C216 C 0.50585 0.32389 0.63802 0.0
C217 C 0.47317 0.28877 0.6339 0.0
C218 C 0.34123 0.12112 0.58057 0.0
C219 C 0.41557 0.13368 0.63822 0.0
O220 O 0.28829 0.04589 0.61156 0.0
O221 O 0.29746 0.03482 0.65184 0.0
O222 O 0.32269 0.09813 0.67925 0.0
O223 O 0.35137 0.14861 0.65693 0.0
O224 O 0.28048 0.10994 0.63014 0.0
O225 O 0.31729 0.17495 0.62577 0.0
O226 O 0.3918 0.23609 0.62346 0.0
O227 O 0.4181 0.21763 0.59422 0.0
O228 O 0.33931 0.15181 0.57928 0.0
O229 O 0.35765 0.12123 0.60122 0.0
O230 O 0.41548 0.16601 0.6368 0.0
O231 O 0.38427 0.10039 0.63564 0.0
H232 H 0.23635 0.9752 0.67177 0.0
H233 H 0.16749 0.9339 0.67472 0.0
H234 H 0.15488 0.97314 0.59899 0.0
H235 H 0.22274 0.01352 0.59577 0.0
H236 H 0.45477 0.30214 0.57098 0.0
H237 H 0.51169 0.36325 0.57804 0.0
H238 H 0.51941 0.32986 0.65699 0.0
H239 H 0.46221 0.26825 0.64964 0.0
C240 C 0.75713 0.76245 0.4044 0.0
Eu241 Eu 0.70769 0.78499 0.40476 0.0
C242 C 0.79889 0.78112 0.40244 0.0
C243 C 0.81581 0.77998 0.37883 0.0
C244 C 0.85502 0.79617 0.377 0.0
C245 C 0.87831 0.8137 0.39878 0.0
C246 C 0.86149 0.81565 0.42225 0.0
C247 C 0.82222 0.79948 0.42409 0.0
C248 C 0.67649 0.79775 0.36239 0.0
C249 C 0.75296 0.878 0.41056 0.0
C250 C 0.62236 0.85222 0.42922 0.0
Eu251 Eu 0.66646 0.8244 0.41941 0.0
C252 C 0.58468 0.84869 0.42698 0.0
C253 C 0.57007 0.85797 0.44873 0.0
C254 C 0.53716 0.86027 0.44657 0.0
C255 C 0.51808 0.85334 0.42254 0.0
C256 C 0.53187 0.84239 0.401 0.0
C257 C 0.56495 0.84019 0.40317 0.0
C258 C 0.69799 0.80462 0.45934 0.0
C259 C 0.61882 0.73533 0.40891 0.0
O260 O 0.74331 0.76821 0.42583 0.0
O261 O 0.73886 0.76293 0.3835 0.0
O262 O 0.6785 0.76738 0.36641 0.0
O263 O 0.69192 0.82139 0.38101 0.0
O264 O 0.75519 0.84678 0.40912 0.0
O265 O 0.72044 0.87691 0.41212 0.0
O266 O 0.64299 0.85994 0.40811 0.0
O267 O 0.62643 0.82945 0.44518 0.0
O268 O 0.70213 0.8381 0.45711 0.0
O269 O 0.67896 0.78471 0.44058 0.0
O270 O 0.61968 0.76779 0.40556 0.0
O271 O 0.65022 0.73427 0.41333 0.0
H272 H 0.79866 0.76613 0.36181 0.0
H273 H 0.8671 0.79462 0.35852 0.0
H274 H 0.87854 0.82852 0.43949 0.0
H275 H 0.81019 0.80086 0.44263 0.0
H276 H 0.58485 0.86468 0.46728 0.0
H277 H 0.52694 0.86803 0.46367 0.0
H278 H 0.51797 0.83698 0.38218 0.0
H279 H 0.57569 0.83302 0.38607 0.0
C280 C 1.008 0.75267 0.91588 0.0
Eu281 Eu 0.93705 0.70458 0.90762 0.0
C282 C 0.03274 0.79399 0.91227 0.0
C283 C 0.05341 0.80932 0.88911 0.0
C284 C 0.07745 0.84848 0.88659 0.0
C285 C 0.08136 0.87285 0.90726 0.0
C286 C 0.05991 0.85752 0.93005 0.0
C287 C 0.03612 0.81865 0.9326 0.0
C288 C 0.90139 0.68824 0.86111 0.0
C289 C 0.88421 0.74407 0.90816 0.0
C290 C 0.78353 0.61172 0.93295 0.0
Eu291 Eu 0.85403 0.65872 0.92123 0.0
C292 C 0.74955 0.57463 0.92827 0.0
C293 C 0.73152 0.55101 0.94978 0.0
C294 C 0.69632 0.51835 0.94689 0.0
C295 C 0.67837 0.50866 0.92239 0.0
C296 C 0.69728 0.53143 0.90061 0.0
C297 C 0.73251 0.5642 0.90352 0.0
C298 C 0.90458 0.69097 0.96123 0.0
C299 C 0.8979 0.61461 0.90629 0.0
O300 O 0.98154 0.74279 0.93349 0.0
O301 O 0.99621 0.73107 0.89506 0.0
O302 O 0.93765 0.70715 0.86436 0.0
O303 O 0.88407 0.67746 0.88292 0.0
O304 O 0.9185 0.74898 0.91186 0.0
O305 O 0.85422 0.71021 0.9075 0.0
O306 O 0.79408 0.63781 0.91486 0.0
O307 O 0.81199 0.61226 0.94506 0.0
O308 O 0.87521 0.69495 0.95876 0.0
O309 O 0.90631 0.67291 0.94215 0.0
O310 O 0.86534 0.61403 0.90501 0.0
O311 O 0.93025 0.64614 0.91067 0.0
H312 H 0.05147 0.79107 0.87313 0.0
H313 H 0.09394 0.85955 0.86889 0.0
H314 H 0.06197 0.87562 0.94618 0.0
H315 H 0.02068 0.80796 0.95074 0.0
H316 H 0.74408 0.55855 0.96907 0.0
H317 H 0.68282 0.50107 0.96395 0.0
H318 H 0.68411 0.52487 0.88149 0.0
H319 H 0.74572 0.58195 0.8866 0.0
C320 C 0.26974 1.00221 0.40297 0.0
Eu321 Eu 0.24122 0.92927 0.40281 0.0
C322 C 0.25428 0.02812 0.40302 0.0
C323 C 0.26005 0.05086 0.38097 0.0
C324 C 0.245 0.07487 0.37984 0.0
C325 C 0.22413 0.07708 0.40091 0.0
C326 C 0.21791 0.05399 0.42293 0.0
C327 C 0.23285 0.02969 0.42398 0.0
C328 C 0.22729 0.88476 0.35995 0.0
C329 C 0.14952 0.87886 0.40519 0.0
C330 C 0.16573 0.77055 0.42797 0.0
Eu331 Eu 0.20336 0.84358 0.42067 0.0
C332 C 0.17009 0.7367 0.42661 0.0
C333 C 0.1651 0.71534 0.44934 0.0
C334 C 0.16499 0.68104 0.44811 0.0
C335 C 0.16968 0.66725 0.42407 0.0
C336 C 0.17606 0.68938 0.40147 0.0
C337 C 0.17625 0.72371 0.40271 0.0
C338 C 0.22822 0.89788 0.45845 0.0
C339 C 0.29129 0.88762 0.40928 0.0
O340 O 0.26635 0.98273 0.42421 0.0
O341 O 0.26321 0.98225 0.38168 0.0
O342 O 0.24179 0.9211 0.35915 0.0
O343 O 0.22142 0.87434 0.38353 0.0
O344 O 0.17927 0.91324 0.40239 0.0
O345 O 0.15234 0.84893 0.41156 0.0
O346 O 0.16562 0.78692 0.40594 0.0
O347 O 0.18372 0.79481 0.44668 0.0
O348 O 0.23248 0.86846 0.45984 0.0
O349 O 0.2112 0.89671 0.43774 0.0
O350 O 0.25987 0.85465 0.40734 0.0
O351 O 0.29103 0.91994 0.41222 0.0
H352 H 0.27614 0.04994 0.36444 0.0
H353 H 0.24977 0.09177 0.3624 0.0
H354 H 0.20226 0.05531 0.43958 0.0
H355 H 0.22768 0.01234 0.44117 0.0
H356 H 0.16032 0.72471 0.46801 0.0
H357 H 0.16067 0.66505 0.46596 0.0
H358 H 0.17943 0.6795 0.38258 0.0
H359 H 0.18015 0.73946 0.3848 0.0
C360 C 0.27835 0.26195 0.89809 0.0
Eu361 Eu 0.32534 0.23653 0.89975 0.0
C362 C 0.23672 0.24476 0.8999 0.0
C363 C 0.21383 0.22635 0.87811 0.0
C364 C 0.17487 0.21162 0.87914 0.0
C365 C 0.15764 0.21504 0.9019 0.0
C366 C 0.18024 0.23251 0.92399 0.0
C367 C 0.21947 0.24738 0.92296 0.0
C368 C 0.36237 0.22722 0.85893 0.0
C369 C 0.28567 0.14482 0.9047 0.0
C370 C 0.41051 0.16545 0.93027 0.0
Eu371 Eu 0.3736 0.20104 0.92077 0.0
C372 C 0.44813 0.16878 0.92758 0.0
C373 C 0.46791 0.16921 0.95018 0.0
C374 C 0.50155 0.16821 0.9483 0.0
C375 C 0.5161 0.16661 0.92375 0.0
C376 C 0.49695 0.16749 0.9011 0.0
C377 C 0.46328 0.1685 0.90298 0.0
C378 C 0.34149 0.22544 0.95676 0.0
C379 C 0.41554 0.28856 0.90856 0.0
O380 O 0.29693 0.2632 0.91935 0.0
O381 O 0.29097 0.25309 0.87736 0.0
O382 O 0.34076 0.24185 0.85686 0.0
O383 O 0.36404 0.2193 0.88257 0.0
O384 O 0.28125 0.17388 0.89824 0.0
O385 O 0.31783 0.14882 0.91363 0.0
O386 O 0.39057 0.16042 0.90902 0.0
O387 O 0.40739 0.18778 0.94716 0.0
O388 O 0.37504 0.22977 0.95936 0.0
O389 O 0.32674 0.20801 0.93594 0.0
O390 O 0.41815 0.2577 0.90677 0.0
O391 O 0.38252 0.28738 0.91094 0.0
H392 H 0.22597 0.22363 0.86 0.0
H393 H 0.1582 0.19778 0.86193 0.0
H394 H 0.16779 0.23577 0.94177 0.0
H395 H 0.23633 0.26146 0.94004 0.0
H396 H 0.45683 0.16936 0.96939 0.0
H397 H 0.51592 0.16821 0.96611 0.0
H398 H 0.5072 0.16596 0.88188 0.0
H399 H 0.44869 0.16804 0.88517 0.0
C400 C 0.0249 0.27002 0.40278 0.0
Eu401 Eu 0.09757 0.31614 0.40191 0.0
C402 C 0.99997 0.22868 0.40543 0.0
C403 C 0.97711 0.20807 0.38421 0.0
C404 C 0.95465 0.16873 0.38557 0.0
C405 C 0.9543 0.14922 0.40831 0.0
C406 C 0.97708 0.16984 0.42958 0.0
C407 C 0.99978 0.20915 0.42811 0.0
C408 C 0.13868 0.3445 0.35751 0.0
C409 C 0.1494 0.27648 0.40545 0.0
C410 C 0.25526 0.4027 0.42557 0.0
Eu411 Eu 0.18225 0.36559 0.41817 0.0
C412 C 0.28864 0.44119 0.42375 0.0
C413 C 0.30597 0.46136 0.44669 0.0
C414 C 0.33996 0.49579 0.44548 0.0
C415 C 0.35744 0.51074 0.42129 0.0
C416 C 0.33943 0.49116 0.3983 0.0
C417 C 0.30548 0.45674 0.3995 0.0
C418 C 0.12934 0.33698 0.45693 0.0
C419 C 0.13691 0.40752 0.40672 0.0
O420 O 0.04399 0.28939 0.42332 0.0
O421 O 0.04498 0.28079 0.38139 0.0
O422 O 0.10237 0.32355 0.35844 0.0
O423 O 0.15181 0.35102 0.38054 0.0
O424 O 0.11471 0.271 0.40277 0.0
O425 O 0.17884 0.30987 0.41085 0.0
O426 O 0.23926 0.38528 0.40376 0.0
O427 O 0.2307 0.39653 0.44402 0.0
O428 O 0.15747 0.37143 0.45692 0.0
O429 O 0.13064 0.3202 0.4368 0.0
O430 O 0.16993 0.40962 0.40364 0.0
O431 O 0.10536 0.37473 0.41083 0.0
H432 H 0.97678 0.22243 0.36646 0.0
H433 H 0.93699 0.15368 0.36901 0.0
H434 H 0.97756 0.15552 0.44731 0.0
H435 H 1.01724 0.22408 0.44466 0.0
H436 H 0.29377 0.45002 0.46566 0.0
H437 H 0.35286 0.51043 0.46352 0.0
H438 H 0.35236 0.50166 0.37937 0.0
H439 H 0.29309 0.44183 0.38145 0.0
C440 C 0.76736 0.02096 0.89971 0.0
Eu441 Eu 0.79341 0.09346 0.90161 0.0
C442 C 0.78382 0.99585 0.90085 0.0
C443 C 0.78487 0.97755 0.87793 0.0
C444 C 0.80077 0.95423 0.878 0.0
C445 C 0.81568 0.94819 0.90111 0.0
C446 C 0.81513 0.96686 0.92405 0.0
C447 C 0.79928 0.99042 0.92393 0.0
C448 C 0.80394 0.1397 0.86007 0.0
C449 C 0.88533 0.14433 0.90521 0.0
C450 C 0.86797 0.25223 0.92769 0.0
Eu451 Eu 0.8317 0.17923 0.92062 0.0
C452 C 0.86277 0.28543 0.92569 0.0
C453 C 0.8783 0.31324 0.94512 0.0
C454 C 0.87687 0.34661 0.94279 0.0
C455 C 0.85981 0.35295 0.92091 0.0
C456 C 0.84306 0.32437 0.90185 0.0
C457 C 0.84448 0.29088 0.90423 0.0
C458 C 0.80751 0.12393 0.95776 0.0
C459 C 0.74308 0.13364 0.91065 0.0
O460 O 0.76654 0.03825 0.92112 0.0
O461 O 0.77673 0.04271 0.87905 0.0
O462 O 0.78873 0.10339 0.85831 0.0
O463 O 0.81183 0.14897 0.88366 0.0
O464 O 0.85547 0.11019 0.90207 0.0
O465 O 0.8831 0.17458 0.91138 0.0
O466 O 0.86896 0.23604 0.90585 0.0
O467 O 0.84958 0.22792 0.94635 0.0
O468 O 0.8043 0.15387 0.96013 0.0
O469 O 0.82381 0.1254 0.93666 0.0
O470 O 0.77419 0.16687 0.90828 0.0
O471 O 0.74368 0.10143 0.91315 0.0
H472 H 0.77338 0.98132 0.8598 0.0
H473 H 0.80126 0.9408 0.85988 0.0
H474 H 0.82601 0.96249 0.94224 0.0
H475 H 0.79891 1.00407 0.94188 0.0
H476 H 0.89253 0.30959 0.96182 0.0
H477 H 0.8905 0.36804 0.95769 0.0
H478 H 0.82916 0.32801 0.88497 0.0
H479 H 0.83193 0.26963 0.88908 0.0
H480 H 0.10337 0.90621 0.11818 0.0
H481 H 0.24041 0.11439 0.17445 0.0
H482 H 0.20458 0.93802 0.16279 0.0
H483 H 0.16412 0.09346 0.11005 0.0
H484 H 0.21804 0.04664 0.17695 0.0
H485 H 0.11618 0.97188 0.12139 0.0
C486 C 0.12784 0.92682 0.12901 0.0
C487 C 0.15309 0.91685 0.14011 0.0
C488 C 0.20598 0.05683 0.16238 0.0
C489 C 0.16777 0.99141 0.14391 0.0
C490 C 0.21857 0.09548 0.16107 0.0
C491 C 0.20432 0.10966 0.14191 0.0
C492 C 0.1787 0.03198 0.14454 0.0
C493 C 0.17627 0.08377 0.12489 0.0
C494 C 0.13528 0.96423 0.13067 0.0
C495 C 0.18458 0.94463 0.15373 0.0
N496 N 0.16444 0.04617 0.12654 0.0
N497 N 0.19102 0.98055 0.15522 0.0
H498 H 0.26834 0.18484 0.59438 0.0
H499 H 0.10809 0.18819 0.67899 0.0
H500 H 0.22544 0.11509 0.66325 0.0
H501 H 0.11512 0.20321 0.59531 0.0
H502 H 0.15555 0.16777 0.67647 0.0
H503 H 0.21641 0.19829 0.59683 0.0
C504 C 0.24764 0.17209 0.60989 0.0
C505 C 0.25076 0.14859 0.62849 0.0
C506 C 0.14635 0.17527 0.65871 0.0
C507 C 0.19202 0.16469 0.63191 0.0
C508 C 0.11959 0.18713 0.66015 0.0
C509 C 0.10766 0.19725 0.63731 0.0
C510 C 0.16176 0.17445 0.63434 0.0
C511 C 0.12329 0.19531 0.61335 0.0
C512 C 0.21809 0.17976 0.61129 0.0
C513 C 0.22351 0.13294 0.64835 0.0
N514 N 0.14974 0.18449 0.61253 0.0
N515 N 0.1954 0.14168 0.64978 0.0
H516 H 0.91587 0.13388 0.17309 0.0
H517 H 0.12351 0.20429 0.11613 0.0
H518 H 0.93611 0.07769 0.10904 0.0
H519 H 0.09144 0.27581 0.15768 0.0
H520 H 0.05785 0.15172 0.11983 0.0
H521 H 0.9835 0.18006 0.17445 0.0
C522 C 0.93461 0.13095 0.15955 0.0
C523 C 0.92025 0.10204 0.14081 0.0
C524 C 0.06542 0.1789 0.12829 0.0
C525 C 0.99775 0.15494 0.14218 0.0
C526 C 0.10282 0.20875 0.12631 0.0
C527 C 0.11279 0.24446 0.13645 0.0
C528 C 0.03821 0.18477 0.14094 0.0
C529 C 0.08488 0.24884 0.14934 0.0
C530 C 0.97317 0.15747 0.16021 0.0
C531 C 0.94592 0.09986 0.12357 0.0
N532 N 0.04898 0.21943 0.15122 0.0
N533 N 0.98341 0.126 0.12462 0.0
H534 H 0.87351 0.92989 0.65989 0.0
H535 H 0.81729 0.08211 0.61309 0.0
H536 H 0.77966 0.90647 0.60933 0.0
H537 H 0.92788 0.1171 0.64496 0.0
H538 H 0.80226 0.01688 0.61532 0.0
H539 H 0.89292 0.99763 0.65857 0.0
C540 C 0.85699 0.93894 0.64858 0.0
C541 C 0.82505 0.91248 0.63452 0.0
C542 C 0.82994 0.03865 0.62177 0.0
C543 C 0.84703 0.98949 0.63294 0.0
C544 C 0.83858 0.07611 0.62057 0.0
C545 C 0.87395 0.10529 0.6289 0.0
C546 C 0.85663 0.02972 0.63156 0.0
C547 C 0.90033 0.09548 0.63822 0.0
C548 C 0.86824 0.97755 0.6477 0.0
C549 C 0.8048 0.92578 0.62012 0.0
N550 N 0.89106 0.05836 0.63947 0.0
N551 N 0.81606 0.96313 0.61977 0.0
H552 H 0.95719 0.86832 0.16385 0.0
H553 H 0.75371 0.8178 0.11118 0.0
H554 H 0.89349 0.78418 0.10532 0.0
H555 H 0.8244 0.92395 0.15035 0.0
H556 H 0.80467 0.80412 0.11257 0.0
H557 H 0.90924 0.88826 0.16276 0.0
C558 C 0.93325 0.85412 0.15077 0.0
C559 C 0.92947 0.82464 0.13452 0.0
C560 C 0.80943 0.83058 0.12079 0.0
C561 C 0.8749 0.84721 0.13324 0.0
C562 C 0.78011 0.83842 0.12013 0.0
C563 C 0.78462 0.87209 0.13079 0.0
C564 C 0.84395 0.85635 0.13236 0.0
C565 C 0.81979 0.89772 0.14183 0.0
C566 C 0.90613 0.8657 0.15005 0.0
C567 C 0.89804 0.80739 0.11788 0.0
N568 N 0.84821 0.8892 0.14253 0.0
N569 N 0.87209 0.81881 0.11779 0.0
H570 H 0.94319 0.75507 0.60189 0.0
H571 H 0.10354 0.93328 0.67644 0.0
H572 H 0.91329 0.81013 0.66142 0.0
H573 H 0.11473 0.90338 0.59743 0.0
H574 H 0.03556 0.88582 0.67496 0.0
H575 H 1.00819 0.80676 0.60342 0.0
C576 C 0.95038 0.77829 0.61524 0.0
C577 C 0.92292 0.77843 0.63154 0.0
C578 C 0.053 0.89006 0.65795 0.0
C579 C 0.99768 0.83767 0.63369 0.0
C580 C 0.0917 0.91681 0.65883 0.0
C581 C 0.11474 0.92232 0.63698 0.0
C582 C 0.03767 0.86833 0.63525 0.0
C583 C 0.09802 0.90042 0.61462 0.0
C584 C 0.9875 0.80785 0.61606 0.0
C585 C 0.93372 0.80925 0.64841 0.0
N586 N 0.0607 0.87431 0.61442 0.0
N587 N 0.97055 0.83761 0.64931 0.0
H588 H 0.08774 0.81392 0.38996 0.0
H589 H 0.93748 0.87879 0.41972 0.0
H590 H 0.1231 0.92884 0.41215 0.0
H591 H 0.91322 0.77938 0.37527 0.0
H592 H 1.00488 0.89778 0.41932 0.0
H593 H 0.023 0.80081 0.38658 0.0
C594 C 0.08186 0.83652 0.39406 0.0
C595 C 0.11086 0.87251 0.40146 0.0
C596 C 0.98475 0.87206 0.40944 0.0
C597 C 0.03626 0.85752 0.39776 0.0
C598 C 0.9463 0.86107 0.40979 0.0
C599 C 0.91958 0.8274 0.39749 0.0
C600 C 0.9964 0.84895 0.397 0.0
C601 C 0.93268 0.80575 0.38473 0.0
C602 C 0.04481 0.82903 0.39202 0.0
C603 C 0.10154 0.90074 0.4063 0.0
N604 N 0.96999 0.81675 0.385 0.0
N605 N 0.06485 0.89254 0.40464 0.0
H606 H 0.13122 0.91451 0.94521 0.0
H607 H 0.22085 0.11524 0.87438 0.0
H608 H 0.09645 0.92403 0.8672 0.0
H609 H 0.27667 0.08552 0.93383 0.0
H610 H 0.1689 0.04878 0.87398 0.0
H611 H 0.17825 0.98136 0.94427 0.0
C612 C 0.13331 0.9308 0.92791 0.0
C613 C 0.1098 0.91372 0.90628 0.0
C614 C 0.19267 0.0571 0.88702 0.0
C615 C 0.16412 0.99053 0.90496 0.0
C616 C 0.22209 0.09489 0.88736 0.0
C617 C 0.25317 0.10584 0.90405 0.0
C618 C 0.19426 0.0307 0.9039 0.0
C619 C 0.25352 0.0784 0.92044 0.0
C620 C 0.16037 0.96895 0.92731 0.0
C621 C 0.11425 0.93616 0.88421 0.0
N622 N 0.22454 0.04231 0.92001 0.0
N623 N 0.14091 0.97362 0.8841 0.0
H624 H 0.09924 0.19953 0.40963 0.0
H625 H 0.2625 0.14961 0.38307 0.0
H626 H 0.21668 0.28113 0.39559 0.0
H627 H 0.15574 0.0683 0.41735 0.0
H628 H 0.24157 0.19573 0.38202 0.0
H629 H 0.11517 0.14869 0.40751 0.0
C630 C 0.12819 0.20671 0.40594 0.0
C631 C 0.1567 0.24462 0.40293 0.0
C632 C 0.22258 0.16782 0.38978 0.0
C633 C 0.17491 0.18708 0.40041 0.0
C634 C 0.23445 0.14131 0.39019 0.0
C635 C 0.21082 0.10494 0.40023 0.0
C636 C 0.18675 0.15819 0.39953 0.0
C637 C 0.17499 0.09616 0.40966 0.0
C638 C 0.13726 0.1778 0.40488 0.0
C639 C 0.19376 0.25241 0.39828 0.0
N640 N 0.16397 0.12265 0.40908 0.0
N641 N 0.2017 0.22399 0.39716 0.0
H642 H 0.11709 0.22488 0.86339 0.0
H643 H 0.91708 0.11295 0.93587 0.0
H644 H 0.10471 0.17606 0.9402 0.0
H645 H 0.93985 0.18845 0.87075 0.0
H646 H 0.98355 0.12821 0.93516 0.0
H647 H 0.04984 0.2039 0.86304 0.0
C648 C 0.10014 0.20947 0.88014 0.0
C649 C 0.11658 0.20213 0.90184 0.0
C650 C 0.97386 0.14105 0.92085 0.0
C651 C 0.03934 0.17829 0.90166 0.0
C652 C 0.93602 0.13211 0.92111 0.0
C653 C 0.92332 0.14925 0.90313 0.0
C654 C 0.9987 0.16684 0.90221 0.0
C655 C 0.94879 0.17457 0.88479 0.0
C656 C 0.06175 0.19771 0.87999 0.0
C657 C 0.09325 0.18258 0.92317 0.0
N658 N 0.98526 0.1825 0.88471 0.0
N659 N 0.05572 0.17124 0.92253 0.0
H660 H 0.90864 0.10963 0.44909 0.0
H661 H 0.82021 0.90484 0.38377 0.0
H662 H 0.9418 0.09452 0.372 0.0
H663 H 0.7628 0.93654 0.44032 0.0
H664 H 0.87349 0.97066 0.38406 0.0
H665 H 0.86372 0.04189 0.45125 0.0
C666 C 0.90681 0.09196 0.43275 0.0
C667 C 0.92885 0.10773 0.41029 0.0
C668 C 0.84927 0.9629 0.39651 0.0
C669 C 0.87732 0.03015 0.41259 0.0
C670 C 0.81914 0.92549 0.39647 0.0
C671 C 0.78718 0.91555 0.41193 0.0
C672 C 0.84745 0.98986 0.4126 0.0
C673 C 0.78685 0.94321 0.42794 0.0
C674 C 0.88101 0.05335 0.43392 0.0
C675 C 0.92496 0.08348 0.38955 0.0
N676 N 0.81649 0.97901 0.42789 0.0
N677 N 0.89958 0.0458 0.39116 0.0
H678 H 0.82266 0.74283 0.88735 0.0
H679 H 0.8785 0.95371 0.9259 0.0
H680 H 0.93082 0.81914 0.92216 0.0
H681 H 0.78398 0.87959 0.87708 0.0
H682 H 0.89868 0.90606 0.9264 0.0
H683 H 0.80872 0.79374 0.88489 0.0
C684 C 0.84368 0.77046 0.89443 0.0
C685 C 0.87795 0.77661 0.9051 0.0
C686 C 0.87374 0.90052 0.91544 0.0
C687 C 0.86191 0.83567 0.90236 0.0
C688 C 0.86205 0.92752 0.91529 0.0
C689 C 0.82951 0.92069 0.90137 0.0
C690 C 0.85245 0.86641 0.90181 0.0
C691 C 0.80951 0.88645 0.88777 0.0
C692 C 0.83568 0.79969 0.89293 0.0
C693 C 0.90408 0.81322 0.91373 0.0
N694 N 0.8212 0.8607 0.88844 0.0
N695 N 0.89539 0.84144 0.91238 0.0
H696 H 0.19437 0.73164 0.10213 0.0
H697 H 0.14188 0.52797 0.15772 0.0
H698 H 0.10444 0.67196 0.15785 0.0
H699 H 0.21246 0.58031 0.09025 0.0
H700 H 0.13221 0.58247 0.16165 0.0
H701 H 0.20452 0.67789 0.10046 0.0
C702 C 0.17677 0.70711 0.11412 0.0
C703 C 0.1486 0.70625 0.13025 0.0
C704 C 0.1498 0.58194 0.14602 0.0
C705 C 0.16033 0.64439 0.12858 0.0
C706 C 0.15566 0.55107 0.14391 0.0
C707 C 0.17784 0.54945 0.12352 0.0
C708 C 0.16646 0.61148 0.12771 0.0
C709 C 0.19469 0.58003 0.10604 0.0
C710 C 0.18254 0.67635 0.1131 0.0
C711 C 0.12631 0.67358 0.14508 0.0
N712 N 0.1886 0.60966 0.10853 0.0
N713 N 0.13284 0.64391 0.14405 0.0
H714 H 0.6555 0.21511 0.65378 0.0
H715 H 0.43602 0.08386 0.61901 0.0
H716 H 0.61442 0.12867 0.59438 0.0
H717 H 0.48034 0.19017 0.65968 0.0
H718 H 0.50045 0.09436 0.6153 0.0
H719 H 0.59055 0.20155 0.66103 0.0
C720 C 0.63282 0.19323 0.64233 0.0
C721 C 0.64041 0.17305 0.62342 0.0
C722 C 0.49597 0.11516 0.62529 0.0
C723 C 0.5661 0.15719 0.63173 0.0
C724 C 0.45918 0.10895 0.62768 0.0
C725 C 0.45286 0.13611 0.63974 0.0
C726 C 0.5265 0.14851 0.63534 0.0
C727 C 0.484 0.16851 0.6502 0.0
C728 C 0.59581 0.18559 0.64641 0.0
C729 C 0.60994 0.14522 0.60896 0.0
N730 N 0.51946 0.17383 0.64774 0.0
N731 N 0.57416 0.13801 0.61348 0.0
H732 H 0.45106 0.6497 0.14667 0.0
H733 H 0.36348 0.4287 0.11635 0.0
H734 H 0.50397 0.60542 0.0959 0.0
H735 H 0.29967 0.4757 0.151 0.0
H736 H 0.41852 0.49258 0.11364 0.0
H737 H 0.39801 0.5853 0.15288 0.0
C738 C 0.45156 0.62644 0.1369 0.0
C739 C 0.48192 0.63299 0.12066 0.0
C740 C 0.39252 0.48882 0.122 0.0
C741 C 0.4215 0.55927 0.12776 0.0
C742 C 0.36122 0.45234 0.12376 0.0
C743 C 0.32692 0.44687 0.13384 0.0
C744 C 0.38958 0.51995 0.13065 0.0
C745 C 0.32549 0.47862 0.14291 0.0
C746 C 0.42125 0.58973 0.14037 0.0
C747 C 0.48094 0.60178 0.10831 0.0
N748 N 0.3563 0.51375 0.14107 0.0
N749 N 0.45132 0.56633 0.11217 0.0
H750 H 0.89558 0.48715 0.58716 0.0
H751 H 0.8473 0.30044 0.66653 0.0
H752 H 0.82835 0.45446 0.65755 0.0
H753 H 0.94274 0.35542 0.61444 0.0
H754 H 0.83698 0.35432 0.66202 0.0
H755 H 0.90856 0.43546 0.59423 0.0
C756 C 0.88328 0.46893 0.60401 0.0
C757 C 0.86085 0.47525 0.62182 0.0
C758 C 0.86052 0.35489 0.65188 0.0
C759 C 0.87614 0.4163 0.63021 0.0
C760 C 0.86655 0.32427 0.65454 0.0
C761 C 0.89618 0.32374 0.64106 0.0
C762 C 0.88378 0.38486 0.63513 0.0
C763 C 0.91999 0.35506 0.62553 0.0
C764 C 0.89109 0.4397 0.60818 0.0
C765 C 0.84612 0.45094 0.64347 0.0
N766 N 0.91297 0.38417 0.6227 0.0
N767 N 0.85391 0.42247 0.64701 0.0
H768 H 0.59894 0.94117 0.14941 0.0
H769 H 0.38645 0.81171 0.09873 0.0
H770 H 0.55419 0.82842 0.11844 0.0
H771 H 0.41833 0.90737 0.14942 0.0
H772 H 0.45001 0.82084 0.10312 0.0
H773 H 0.53483 0.93284 0.14719 0.0
C774 C 0.57578 0.91479 0.14221 0.0
C775 C 0.58197 0.88542 0.13431 0.0
C776 C 0.44311 0.83977 0.11342 0.0
C777 C 0.50912 0.87592 0.13137 0.0
C778 C 0.40683 0.83463 0.11082 0.0
C779 C 0.39701 0.85881 0.12371 0.0
C780 C 0.47011 0.86958 0.12882 0.0
C781 C 0.42457 0.88783 0.13934 0.0
C782 C 0.53926 0.90999 0.14102 0.0
C783 C 0.55089 0.85177 0.12509 0.0
N784 N 0.45995 0.89259 0.14133 0.0
N785 N 0.51607 0.84809 0.12375 0.0
H786 H 0.66978 0.59477 0.62482 0.0
H787 H 0.58706 0.37153 0.64276 0.0
H788 H 0.73708 0.54553 0.64914 0.0
H789 H 0.52629 0.41948 0.60465 0.0
H790 H 0.64028 0.43555 0.6498 0.0
H791 H 0.61443 0.53107 0.62232 0.0
C792 C 0.67282 0.57068 0.63001 0.0
C793 C 0.70816 0.57556 0.63712 0.0
C794 C 0.61525 0.43205 0.63994 0.0
C795 C 0.64511 0.50263 0.6341 0.0
C796 C 0.58484 0.39552 0.63602 0.0
C797 C 0.55226 0.39014 0.62299 0.0
C798 C 0.61293 0.46346 0.63101 0.0
C799 C 0.55106 0.42228 0.61446 0.0
C800 C 0.6413 0.5343 0.62838 0.0
C801 C 0.71047 0.5432 0.6434 0.0
N802 N 0.58089 0.4575 0.61864 0.0
N803 N 0.67947 0.5082 0.64167 0.0
H804 H 0.36124 0.93977 0.42916 0.0
H805 H 0.45196 0.80956 0.3957 0.0
H806 H 0.30273 0.83281 0.38883 0.0
H807 H 0.50863 0.91028 0.44296 0.0
H808 H 0.39852 0.82025 0.39079 0.0
H809 H 0.41752 0.93259 0.43187 0.0
C810 C 0.36037 0.9151 0.4206 0.0
C811 C 0.32717 0.8868 0.40889 0.0
C812 C 0.42263 0.84006 0.40225 0.0
C813 C 0.39109 0.87824 0.41204 0.0
C814 C 0.45325 0.83401 0.40496 0.0
C815 C 0.48489 0.85899 0.41978 0.0
C816 C 0.42358 0.87147 0.41432 0.0
C817 C 0.48466 0.88997 0.43163 0.0
C818 C 0.39236 0.91085 0.42231 0.0
C819 C 0.32754 0.85523 0.39829 0.0
N820 N 0.45456 0.89536 0.42861 0.0
N821 N 0.35882 0.8518 0.40018 0.0
H822 H 0.64923 0.4555 0.88344 0.0
H823 H 0.43747 0.35088 0.93967 0.0
H824 H 0.61829 0.48813 0.95538 0.0
H825 H 0.47553 0.30705 0.87739 0.0
H826 H 0.50182 0.40569 0.94304 0.0
H827 H 0.58396 0.40429 0.87858 0.0
C828 C 0.62869 0.45193 0.89819 0.0
C829 C 0.63927 0.47619 0.91982 0.0
C830 C 0.49589 0.38426 0.92843 0.0
C831 C 0.56438 0.41762 0.91439 0.0
C832 C 0.45917 0.35334 0.92633 0.0
C833 C 0.45138 0.32473 0.90815 0.0
C834 C 0.52462 0.38655 0.91201 0.0
C835 C 0.48053 0.32863 0.89167 0.0
C836 C 0.59144 0.42262 0.89547 0.0
C837 C 0.6115 0.46987 0.93853 0.0
N838 N 0.51582 0.35889 0.894 0.0
N839 N 0.57531 0.4413 0.93534 0.0
H840 H 0.21139 0.64531 0.39437 0.0
H841 H 0.08923 0.42557 0.43313 0.0
H842 H 0.11895 0.60194 0.44938 0.0
H843 H 0.18649 0.47264 0.38228 0.0
H844 H 0.09732 0.48916 0.43811 0.0
H845 H 0.20136 0.58153 0.38913 0.0
C846 C 0.18896 0.62238 0.40535 0.0
C847 C 0.16585 0.62907 0.42222 0.0
C848 C 0.11666 0.48542 0.4257 0.0
C849 C 0.15416 0.55569 0.41635 0.0
C850 C 0.11178 0.4491 0.42265 0.0
C851 C 0.13716 0.44385 0.40725 0.0
C852 C 0.14694 0.51645 0.41309 0.0
C853 C 0.16633 0.47542 0.39445 0.0
C854 C 0.18328 0.58592 0.40241 0.0
C855 C 0.13767 0.59825 0.43631 0.0
N856 N 0.17044 0.51025 0.3977 0.0
N857 N 0.1325 0.5629 0.43297 0.0
H858 H 0.67771 0.08742 0.93781 0.0
H859 H 0.57526 0.2009 0.88921 0.0
H860 H 0.72736 0.18158 0.88413 0.0
H861 H 0.53408 0.12182 0.95357 0.0
H862 H 0.62888 0.19043 0.88481 0.0
H863 H 0.62177 0.09509 0.94122 0.0
C864 C 0.67651 0.10921 0.92643 0.0
C865 C 0.70707 0.13389 0.91069 0.0
C866 C 0.60817 0.17541 0.89995 0.0
C867 C 0.64374 0.14303 0.91456 0.0
C868 C 0.57745 0.1813 0.9024 0.0
C869 C 0.55002 0.16216 0.92174 0.0
C870 C 0.61146 0.14998 0.91684 0.0
C871 C 0.55471 0.13748 0.93854 0.0
C872 C 0.64484 0.11385 0.92855 0.0
C873 C 0.70445 0.16207 0.89663 0.0
N874 N 0.58473 0.13198 0.93563 0.0
N875 N 0.67342 0.16586 0.89889 0.0
H876 H 0.38283 0.56996 0.38666 0.0
H877 H 0.59759 0.66935 0.43561 0.0
H878 H 0.41871 0.52993 0.45283 0.0
H879 H 0.55504 0.72291 0.38368 0.0
H880 H 0.53334 0.61493 0.43939 0.0
H881 H 0.44693 0.62392 0.3829 0.0
C882 C 0.40417 0.57255 0.40043 0.0
C883 C 0.39538 0.54527 0.42003 0.0
C884 C 0.53817 0.63853 0.42705 0.0
C885 C 0.46888 0.60692 0.41579 0.0
C886 C 0.57484 0.66935 0.42469 0.0
C887 C 0.58155 0.70051 0.40925 0.0
C888 C 0.50826 0.63877 0.41355 0.0
C889 C 0.55102 0.69943 0.39585 0.0
C890 C 0.44072 0.60342 0.39833 0.0
C891 C 0.42409 0.5504 0.43755 0.0
N892 N 0.51575 0.66906 0.39825 0.0
N893 N 0.4596 0.58046 0.43491 0.0
H894 H 0.90147 0.57896 0.94956 0.0
H895 H 0.87139 0.39381 0.87558 0.0
H896 H 0.88726 0.56623 0.8661 0.0
H897 H 0.85286 0.39739 0.95836 0.0
H898 H 0.88059 0.45756 0.87119 0.0
H899 H 0.88908 0.51383 0.95288 0.0
C900 C 0.89661 0.56255 0.93189 0.0
C901 C 0.89623 0.5779 0.90749 0.0
C902 C 0.87429 0.44425 0.89027 0.0
C903 C 0.88141 0.50341 0.91103 0.0
C904 C 0.86872 0.40769 0.8928 0.0
C905 C 0.86166 0.39015 0.91745 0.0
C906 C 0.87314 0.46363 0.91257 0.0
C907 C 0.85909 0.40997 0.93906 0.0
C908 C 0.88908 0.52531 0.93378 0.0
C909 C 0.88849 0.55536 0.88518 0.0
N910 N 0.86512 0.44567 0.93614 0.0
N911 N 0.88161 0.51919 0.88744 0.0
H912 H 0.11935 0.29046 0.32201 0.0
H913 H 0.26993 0.39079 0.21353 0.0
H914 H 0.20206 0.40733 0.33618 0.0
H915 H 0.1518 0.31839 0.19636 0.0
H916 H 0.2534 0.39759 0.25874 0.0
H917 H 0.14043 0.29723 0.27698 0.0
C918 C 0.14245 0.31756 0.31566 0.0
C919 C 0.15883 0.34847 0.33276 0.0
C920 C 0.23113 0.38117 0.24485 0.0
C921 C 0.18275 0.35651 0.28084 0.0
C922 C 0.24043 0.37743 0.21912 0.0
C923 C 0.21203 0.3544 0.20129 0.0
C924 C 0.19333 0.36047 0.25285 0.0
C925 C 0.17438 0.3369 0.20944 0.0
C926 C 0.15412 0.32146 0.28986 0.0
C927 C 0.18892 0.38279 0.32357 0.0
N928 N 0.16616 0.33963 0.23481 0.0
N929 N 0.20002 0.38601 0.29799 0.0
H930 H 0.82744 0.20734 0.69632 0.0
H931 H 0.87604 0.18719 0.84505 0.0
H932 H 0.91804 0.18943 0.72175 0.0
H933 H 0.76032 0.14346 0.82152 0.0
H934 H 0.89604 0.20727 0.79988 0.0
H935 H 0.80449 0.19805 0.74214 0.0
C936 C 0.84195 0.20074 0.71136 0.0
C937 C 0.87465 0.19913 0.70536 0.0
C938 C 0.86633 0.19432 0.80475 0.0
C939 C 0.84983 0.19017 0.75724 0.0
C940 C 0.85506 0.18355 0.83059 0.0
C941 C 0.81662 0.16422 0.83691 0.0
C942 C 0.83894 0.18585 0.78521 0.0
C943 C 0.7903 0.15876 0.81727 0.0
C944 C 0.82922 0.19596 0.73742 0.0
C945 C 0.89291 0.19123 0.72558 0.0
N946 N 0.80187 0.16926 0.79215 0.0
N947 N 0.8805 0.18739 0.75052 0.0
H948 H 0.68634 0.8198 0.1937 0.0
H949 H 0.67064 0.85887 0.34555 0.0
H950 H 0.66892 0.90925 0.22216 0.0
H951 H 0.6714 0.75954 0.31768 0.0
H952 H 0.66672 0.87596 0.30003 0.0
H953 H 0.67701 0.79436 0.23858 0.0
C954 C 0.67955 0.83339 0.20924 0.0
C955 C 0.6785 0.86664 0.20438 0.0
C956 C 0.66754 0.85029 0.30392 0.0
C957 C 0.66849 0.83847 0.25549 0.0
C958 C 0.66982 0.84064 0.3299 0.0
C959 C 0.67153 0.80792 0.33543 0.0
C960 C 0.66753 0.82731 0.28334 0.0
C961 C 0.67016 0.7851 0.31437 0.0
C962 C 0.67456 0.81918 0.23486 0.0
C963 C 0.67027 0.88368 0.22521 0.0
N964 N 0.66865 0.79541 0.28932 0.0
N965 N 0.6659 0.86964 0.24981 0.0
H966 H 0.88328 0.69021 0.69343 0.0
H967 H 0.82633 0.64365 0.84523 0.0
H968 H 0.76957 0.64745 0.72129 0.0
H969 H 0.93953 0.71521 0.81608 0.0
H970 H 0.8032 0.63271 0.79957 0.0
H971 H 0.90277 0.68537 0.73809 0.0
C972 C 0.86223 0.6785 0.70879 0.0
C973 C 0.82487 0.66911 0.70385 0.0
C974 C 0.83311 0.65064 0.80336 0.0
C975 C 0.84678 0.66426 0.75487 0.0
C976 C 0.8462 0.65697 0.82934 0.0
C977 C 0.88485 0.68041 0.83448 0.0
C978 C 0.85898 0.6677 0.78262 0.0
C979 C 0.90948 0.69682 0.81315 0.0
C980 C 0.87334 0.67622 0.73433 0.0
C981 C 0.79872 0.65497 0.72449 0.0
N982 N 0.89618 0.6902 0.78833 0.0
N983 N 0.81017 0.65322 0.74917 0.0
H984 H 0.17323 0.77066 0.20853 0.0
H985 H 0.172 0.88439 0.33198 0.0
H986 H 0.16957 0.87412 0.20411 0.0
H987 H 0.2457 0.83724 0.33369 0.0
H988 H 0.15793 0.86633 0.28614 0.0
H989 H 0.19239 0.78422 0.25482 0.0
C990 C 0.17811 0.797 0.21705 0.0
C991 C 0.17091 0.82193 0.2025 0.0
C992 C 0.17665 0.85927 0.29663 0.0
C993 C 0.19011 0.83615 0.25531 0.0
C994 C 0.18411 0.8689 0.32287 0.0
C995 C 0.20959 0.86178 0.3366 0.0
C996 C 0.1947 0.84224 0.28392 0.0
C997 C 0.22531 0.84248 0.32379 0.0
C998 C 0.18845 0.8044 0.24344 0.0
C999 C 0.17583 0.85478 0.21457 0.0
N1000 N 0.21773 0.83342 0.29795 0.0
N1001 N 0.1845 0.86064 0.2404 0.0
H1002 H 0.40954 0.27258 0.82097 0.0
H1003 H 0.29415 0.11182 0.72057 0.0
H1004 H 0.34001 0.15585 0.84321 0.0
H1005 H 0.40359 0.20191 0.69646 0.0
H1006 H 0.30814 0.13457 0.76527 0.0
H1007 H 0.40944 0.25281 0.77554 0.0
C1008 C 0.39569 0.24269 0.81643 0.0
C1009 C 0.37528 0.21567 0.8358 0.0
C1010 C 0.32922 0.14948 0.7503 0.0
C1011 C 0.37307 0.19321 0.78398 0.0
C1012 C 0.32109 0.13683 0.7247 0.0
C1013 C 0.34781 0.15494 0.70484 0.0
C1014 C 0.3644 0.18077 0.75636 0.0
C1015 C 0.38213 0.18741 0.71124 0.0
C1016 C 0.39528 0.23151 0.79052 0.0
C1017 C 0.35678 0.17742 0.82893 0.0
N1018 N 0.38957 0.19939 0.73664 0.0
N1019 N 0.35536 0.16737 0.80346 0.0
H1020 H 0.37512 0.27608 0.99639 0.0
H1021 H 0.1877 0.28058 0.03898 0.0
H1022 H 0.26747 0.20843 0.9585 0.0
H1023 H 0.2969 0.34616 0.07537 0.0
H1024 H 0.21541 0.25399 1.00874 0.0
H1025 H 0.346 0.30169 0.0255 0.0
C1026 C 0.3453 0.26659 0.99424 0.0
C1027 C 0.32378 0.24038 0.97488 0.0
C1028 C 0.23323 0.27423 0.02337 0.0
C1029 C 0.29002 0.26962 1.00814 0.0
C1030 C 0.21744 0.28946 0.04052 0.0
C1031 C 0.23996 0.31541 0.05979 0.0
C1032 C 0.27178 0.28521 0.02553 0.0
C1033 C 0.27838 0.32604 0.06093 0.0
C1034 C 0.32864 0.28128 1.01082 0.0
C1035 C 0.28518 0.22895 0.97302 0.0
N1036 N 0.29294 0.31087 0.04418 0.0
N1037 N 0.26953 0.24369 0.98938 0.0
H1038 H 0.07854 0.26253 0.46462 0.0
H1039 H 0.96611 0.29929 0.57831 0.0
H1040 H 0.10907 0.37349 0.49298 0.0
H1041 H 0.92308 0.19112 0.54055 0.0
H1042 H 0.02049 0.32593 0.54902 0.0
H1043 H 0.02409 0.23493 0.49431 0.0
C1044 C 0.07364 0.28107 0.47709 0.0
C1045 C 0.09794 0.32036 0.47608 0.0
C1046 C 0.99918 0.29641 0.54699 0.0
C1047 C 0.03588 0.28901 0.51025 0.0
C1048 C 0.96805 0.28114 0.56371 0.0
C1049 C 0.93999 0.24289 0.56185 0.0
C1050 C 1.00262 0.27334 0.52818 0.0
C1051 C 0.944 0.22075 0.54258 0.0
C1052 C 0.04259 0.26531 0.49401 0.0
C1053 C 0.0909 0.34306 0.49304 0.0
N1054 N 0.97486 0.23626 0.52655 0.0
N1055 N 0.06045 0.32708 0.50936 0.0
H1056 H 0.68142 0.95808 0.07755 0.0
H1057 H 0.82669 0.06894 0.96115 0.0
H1058 H 0.74814 0.91633 0.04047 0.0
H1059 H 0.75457 0.10549 0.99637 0.0
H1060 H 0.80006 0.014 0.99055 0.0
H1061 H 0.70888 0.01248 0.04828 0.0
C1062 C 0.70182 0.9603 0.0631 0.0
C1063 C 0.71261 0.93264 0.06151 0.0
C1064 C 0.78994 0.03392 0.9918 0.0
C1065 C 0.74439 0.99531 0.02772 0.0
C1066 C 0.80511 0.06526 0.97505 0.0
C1067 C 0.79249 0.09153 0.97617 0.0
C1068 C 0.76185 0.02873 1.00984 0.0
C1069 C 0.765 0.08585 0.9948 0.0
C1070 C 0.71756 0.9915 0.04639 0.0
C1071 C 0.73905 0.93699 0.04235 0.0
N1072 N 0.7505 0.05502 1.0108 0.0
N1073 N 0.75416 0.96784 0.02624 0.0
H1074 H 0.73638 0.66985 0.57127 0.0
H1075 H 0.76604 0.8456 0.48551 0.0
H1076 H 0.84894 0.75603 0.54955 0.0
H1077 H 0.67075 0.73318 0.47649 0.0
H1078 H 0.79576 0.81965 0.51494 0.0
H1079 H 0.7104 0.69907 0.54257 0.0
C1080 C 0.75566 0.6949 0.5603 0.0
C1081 C 0.79486 0.71034 0.56259 0.0
C1082 C 0.76829 0.80087 0.50654 0.0
C1083 C 0.7652 0.7445 0.52998 0.0
C1084 C 0.75121 0.81566 0.49004 0.0
C1085 C 0.71577 0.79147 0.47881 0.0
C1086 C 0.74924 0.76191 0.5122 0.0
C1087 C 0.698 0.75281 0.48485 0.0
C1088 C 0.7408 0.71159 0.54395 0.0
C1089 C 0.81853 0.74303 0.54806 0.0
N1090 N 0.71472 0.73934 0.50124 0.0
N1091 N 0.80333 0.7593 0.53247 0.0
H1092 H 0.95126 0.6658 0.97635 0.0
H1093 H 0.10052 0.8493 0.05384 0.0
H1094 H 0.92884 0.75702 0.9897 0.0
H1095 H 0.08352 0.7377 0.06795 0.0
H1096 H 0.04378 0.82101 0.02546 0.0
H1097 H 1.00599 0.69653 1.00515 0.0
C1098 C 0.95768 0.6922 0.98564 0.0
C1099 C 0.93522 0.70865 0.98091 0.0
C1100 C 0.05266 0.8029 0.03481 0.0
C1101 C 0.99868 0.74464 1.01358 0.0
C1102 C 0.08514 0.81902 0.05071 0.0
C1103 C 0.09676 0.79577 0.06308 0.0
C1104 C 0.03247 0.7635 0.0309 0.0
C1105 C 0.0756 0.75666 0.05874 0.0
C1106 C 0.98902 0.70979 1.00203 0.0
C1107 C 0.94515 0.74316 0.9932 0.0
N1108 N 0.04479 0.74187 0.04295 0.0
N1109 N 0.97646 0.76029 1.00886 0.0
H1110 H 0.20757 0.9515 0.46362 0.0
H1111 H 0.35684 0.06393 0.57765 0.0
H1112 H 0.2829 0.91674 0.496 0.0
H1113 H 0.28925 0.10522 0.54104 0.0
H1114 H 0.32871 1.00916 0.54869 0.0
H1115 H 0.23508 1.00654 0.49272 0.0
C1116 C 0.23 0.95556 0.47688 0.0
C1117 C 0.24338 0.92986 0.47715 0.0
C1118 C 0.32002 0.03015 0.54685 0.0
C1119 C 0.27481 0.99262 0.51073 0.0
C1120 C 0.33614 0.06153 0.56336 0.0
C1121 C 0.32531 0.08917 0.56178 0.0
C1122 C 0.29274 0.02615 0.52844 0.0
C1123 C 0.29843 0.08461 0.54288 0.0
C1124 C 0.24567 0.98695 0.49348 0.0
C1125 C 0.2719 0.93596 0.49505 0.0
N1126 N 0.28295 0.05361 0.527 0.0
N1127 N 0.28675 0.96676 0.51103 0.0
loop_
_geom_bond_atom_site_label_1
_geom_bond_atom_site_label_2
_geom_bond_distance
_geom_bond_site_symmetry_2
_ccdc_geom_bond_type
C0 Eu1 2.835 . S
C0 C2 1.500 . S
C0 O20 1.257 . S
C0 O21 1.260 . S
Eu1 C0 2.835 . S
Eu1 O20 2.473 . S
Eu1 O21 2.480 . S
Eu1 O22 2.430 . S
Eu1 O23 2.670 . S
Eu1 O24 2.394 . S
Eu1 O29 2.355 . S
Eu1 O31 2.374 . S
C2 C0 1.500 . S
C2 C3 1.377 . S
C2 C7 1.377 . S
C3 C2 1.377 . S
C3 C4 1.395 . S
C3 H32 0.931 . S
C4 C3 1.395 . S
C4 C5 1.383 . S
C4 H33 0.931 . S
C5 C4 1.383 . S
C5 C6 1.394 . S
C6 C5 1.394 . S
C6 C7 1.378 . S
C6 H34 0.931 . S
C7 C2 1.377 . S
C7 C6 1.378 . S
C7 H35 0.931 . S
C8 O22 1.259 . S
C8 O23 1.270 . S
C9 O24 1.251 . S
C9 O25 1.251 . S
C10 Eu11 2.835 . S
C10 C12 1.500 . S
C10 O26 1.257 . S
C10 O27 1.260 . S
Eu11 C10 2.835 . S
Eu11 O23 2.355 . S
Eu11 O25 2.374 . S
Eu11 O26 2.473 . S
Eu11 O27 2.480 . S
Eu11 O28 2.430 . S
Eu11 O29 2.670 . S
Eu11 O30 2.394 . S
C12 C10 1.500 . S
C12 C13 1.377 . S
C12 C17 1.377 . S
C13 C12 1.377 . S
C13 C14 1.395 . S
C13 H36 0.931 . S
C14 C13 1.395 . S
C14 C15 1.383 . S
C14 H37 0.931 . S
C15 C14 1.383 . S
C15 C16 1.394 . S
C16 C15 1.394 . S
C16 C17 1.378 . S
C16 H38 0.931 . S
C17 C12 1.377 . S
C17 C16 1.378 . S
C17 H39 0.931 . S
C18 O28 1.259 . S
C18 O29 1.270 . S
C19 O30 1.251 . S
C19 O31 1.251 . S
O20 C0 1.257 . S
O20 Eu1 2.473 . S
O21 C0 1.260 . S
O21 Eu1 2.480 . S
O22 Eu1 2.430 . S
O22 C8 1.259 . S
O23 Eu1 2.670 . S
O23 C8 1.270 . S
O23 Eu11 2.355 . S
O24 Eu1 2.394 . S
O24 C9 1.251 . S
O25 C9 1.251 . S
O25 Eu11 2.374 . S
O26 C10 1.257 . S
O26 Eu11 2.473 . S
O27 C10 1.260 . S
O27 Eu11 2.480 . S
O28 Eu11 2.430 . S
O28 C18 1.259 . S
O29 Eu1 2.355 . S
O29 Eu11 2.670 . S
O29 C18 1.270 . S
O30 Eu11 2.394 . S
O30 C19 1.251 . S
O31 Eu1 2.374 . S
O31 C19 1.251 . S
H32 C3 0.931 . S
H33 C4 0.931 . S
H34 C6 0.931 . S
H35 C7 0.931 . S
H36 C13 0.931 . S
H37 C14 0.931 . S
H38 C16 0.931 . S
H39 C17 0.931 . S
C40 Eu41 2.835 . S
C40 C42 1.500 1_655 S
C40 O60 1.257 . S
C40 O61 1.260 . S
Eu41 C40 2.835 . S
Eu41 O60 2.473 . S
Eu41 O61 2.480 . S
Eu41 O62 2.430 . S
Eu41 O63 2.670 . S
Eu41 O64 2.394 . S
Eu41 O69 2.355 . S
Eu41 O71 2.374 . S
C42 C40 1.500 1_455 S
C42 C43 1.377 . S
C42 C47 1.377 . S
C43 C42 1.377 . S
C43 C44 1.395 . S
C43 H72 0.931 . S
C44 C43 1.395 . S
C44 C45 1.383 . S
C44 H73 0.931 . S
C45 C44 1.383 . S
C45 C46 1.394 . S
C46 C45 1.394 . S
C46 C47 1.378 . S
C46 H74 0.931 . S
C47 C42 1.377 . S
C47 C46 1.378 . S
C47 H75 0.931 . S
C48 O62 1.259 . S
C48 O63 1.270 . S
C49 O64 1.251 . S
C49 O65 1.251 . S
C50 Eu51 2.835 . S
C50 C52 1.500 . S
C50 O66 1.257 . S
C50 O67 1.260 . S
Eu51 C50 2.835 . S
Eu51 O63 2.355 . S
Eu51 O65 2.374 . S
Eu51 O66 2.473 . S
Eu51 O67 2.480 . S
Eu51 O68 2.430 . S
Eu51 O69 2.670 . S
Eu51 O70 2.394 . S
C52 C50 1.500 . S
C52 C53 1.377 . S
C52 C57 1.377 . S
C53 C52 1.377 . S
C53 C54 1.395 . S
C53 H76 0.931 . S
C54 C53 1.395 . S
C54 C55 1.383 . S
C54 H77 0.931 . S
C55 C54 1.383 . S
C55 C56 1.394 . S
C56 C55 1.394 . S
C56 C57 1.378 . S
C56 H78 0.931 . S
C57 C52 1.377 . S
C57 C56 1.378 . S
C57 H79 0.931 . S
C58 O68 1.259 . S
C58 O69 1.270 . S
C59 O70 1.251 . S
C59 O71 1.251 . S
O60 C40 1.257 . S
O60 Eu41 2.473 . S
O61 C40 1.260 . S
O61 Eu41 2.480 . S
O62 Eu41 2.430 . S
O62 C48 1.259 . S
O63 Eu41 2.670 . S
O63 C48 1.270 . S
O63 Eu51 2.355 . S
O64 Eu41 2.394 . S
O64 C49 1.251 . S
O65 C49 1.251 . S
O65 Eu51 2.374 . S
O66 C50 1.257 . S
O66 Eu51 2.473 . S
O67 C50 1.260 . S
O67 Eu51 2.480 . S
O68 Eu51 2.430 . S
O68 C58 1.259 . S
O69 Eu41 2.355 . S
O69 Eu51 2.670 . S
O69 C58 1.270 . S
O70 Eu51 2.394 . S
O70 C59 1.251 . S
O71 Eu41 2.374 . S
O71 C59 1.251 . S
H72 C43 0.931 . S
H73 C44 0.931 . S
H74 C46 0.931 . S
H75 C47 0.931 . S
H76 C53 0.931 . S
H77 C54 0.931 . S
H78 C56 0.931 . S
H79 C57 0.931 . S
C80 Eu81 2.835 . S
C80 C82 1.500 1_565 S
C80 O100 1.257 . S
C80 O101 1.260 . S
Eu81 C80 2.835 . S
Eu81 O100 2.473 . S
Eu81 O101 2.480 . S
Eu81 O102 2.430 . S
Eu81 O103 2.670 . S
Eu81 O104 2.394 . S
Eu81 O109 2.355 . S
Eu81 O111 2.374 . S
C82 C80 1.500 1_545 S
C82 C83 1.377 . S
C82 C87 1.377 . S
C83 C82 1.377 . S
C83 C84 1.395 . S
C83 H112 0.931 . S
C84 C83 1.395 . S
C84 C85 1.383 . S
C84 H113 0.931 . S
C85 C84 1.383 . S
C85 C86 1.394 . S
C86 C85 1.394 . S
C86 C87 1.378 . S
C86 H114 0.931 . S
C87 C82 1.377 . S
C87 C86 1.378 . S
C87 H115 0.931 . S
C88 O102 1.259 . S
C88 O103 1.270 . S
C89 O104 1.251 . S
C89 O105 1.251 . S
C90 Eu91 2.835 . S
C90 C92 1.500 . S
C90 O106 1.257 . S
C90 O107 1.260 . S
Eu91 C90 2.835 . S
Eu91 O103 2.355 . S
Eu91 O105 2.374 . S
Eu91 O106 2.473 . S
Eu91 O107 2.480 . S
Eu91 O108 2.430 . S
Eu91 O109 2.670 . S
Eu91 O110 2.394 . S
C92 C90 1.500 . S
C92 C93 1.377 . S
C92 C97 1.377 . S
C93 C92 1.377 . S
C93 C94 1.395 . S
C93 H116 0.931 . S
C94 C93 1.395 . S
C94 C95 1.383 . S
C94 H117 0.931 . S
C95 C94 1.383 . S
C95 C96 1.394 . S
C96 C95 1.394 . S
C96 C97 1.378 . S
C96 H118 0.931 . S
C97 C92 1.377 . S
C97 C96 1.378 . S
C97 H119 0.931 . S
C98 O108 1.259 . S
C98 O109 1.270 . S
C99 O110 1.251 . S
C99 O111 1.251 . S
O100 C80 1.257 . S
O100 Eu81 2.473 . S
O101 C80 1.260 . S
O101 Eu81 2.480 . S
O102 Eu81 2.430 . S
O102 C88 1.259 . S
O103 Eu81 2.670 . S
O103 C88 1.270 . S
O103 Eu91 2.355 . S
O104 Eu81 2.394 . S
O104 C89 1.251 . S
O105 C89 1.251 . S
O105 Eu91 2.374 . S
O106 C90 1.257 . S
O106 Eu91 2.473 . S
O107 C90 1.260 . S
O107 Eu91 2.480 . S
O108 Eu91 2.430 . S
O108 C98 1.259 . S
O109 Eu81 2.355 . S
O109 Eu91 2.670 . S
O109 C98 1.270 . S
O110 Eu91 2.394 . S
O110 C99 1.251 . S
O111 Eu81 2.374 . S
O111 C99 1.251 . S
H112 C83 0.931 . S
H113 C84 0.931 . S
H114 C86 0.931 . S
H115 C87 0.931 . S
H116 C93 0.931 . S
H117 C94 0.931 . S
H118 C96 0.931 . S
H119 C97 0.931 . S
C120 Eu121 2.835 . S
C120 C122 1.500 . S
C120 O140 1.257 . S
C120 O141 1.260 . S
Eu121 C120 2.835 . S
Eu121 O140 2.473 . S
Eu121 O141 2.480 . S
Eu121 O142 2.430 . S
Eu121 O143 2.670 . S
Eu121 O144 2.394 . S
Eu121 O149 2.355 . S
Eu121 O151 2.374 . S
C122 C120 1.500 . S
C122 C123 1.377 . S
C122 C127 1.377 . S
C123 C122 1.377 . S
C123 C124 1.395 . S
C123 H152 0.931 . S
C124 C123 1.395 . S
C124 C125 1.383 . S
C124 H153 0.931 . S
C125 C124 1.383 . S
C125 C126 1.394 . S
C126 C125 1.394 . S
C126 C127 1.378 . S
C126 H154 0.931 . S
C127 C122 1.377 . S
C127 C126 1.378 . S
C127 H155 0.931 . S
C128 O142 1.259 . S
C128 O143 1.270 . S
C129 O144 1.251 . S
C129 O145 1.251 . S
C130 Eu131 2.835 . S
C130 C132 1.500 . S
C130 O146 1.257 . S
C130 O147 1.260 . S
Eu131 C130 2.835 . S
Eu131 O143 2.355 . S
Eu131 O145 2.374 . S
Eu131 O146 2.473 . S
Eu131 O147 2.480 . S
Eu131 O148 2.430 . S
Eu131 O149 2.670 . S
Eu131 O150 2.394 . S
C132 C130 1.500 . S
C132 C133 1.377 . S
C132 C137 1.377 . S
C133 C132 1.377 . S
C133 C134 1.395 . S
C133 H156 0.931 . S
C134 C133 1.395 . S
C134 C135 1.383 . S
C134 H157 0.931 . S
C135 C134 1.383 . S
C135 C136 1.394 . S
C136 C135 1.394 . S
C136 C137 1.378 . S
C136 H158 0.931 . S
C137 C132 1.377 . S
C137 C136 1.378 . S
C137 H159 0.931 . S
C138 O148 1.259 . S
C138 O149 1.270 . S
C139 O150 1.251 . S
C139 O151 1.251 . S
O140 C120 1.257 . S
O140 Eu121 2.473 . S
O141 C120 1.260 . S
O141 Eu121 2.480 . S
O142 Eu121 2.430 . S
O142 C128 1.259 . S
O143 Eu121 2.670 . S
O143 C128 1.270 . S
O143 Eu131 2.355 . S
O144 Eu121 2.394 . S
O144 C129 1.251 . S
O145 C129 1.251 . S
O145 Eu131 2.374 . S
O146 C130 1.257 . S
O146 Eu131 2.473 . S
O147 C130 1.260 . S
O147 Eu131 2.480 . S
O148 Eu131 2.430 . S
O148 C138 1.259 . S
O149 Eu121 2.355 . S
O149 Eu131 2.670 . S
O149 C138 1.270 . S
O150 Eu131 2.394 . S
O150 C139 1.251 . S
O151 Eu121 2.374 . S
O151 C139 1.251 . S
H152 C123 0.931 . S
H153 C124 0.931 . S
H154 C126 0.931 . S
H155 C127 0.931 . S
H156 C133 0.931 . S
H157 C134 0.931 . S
H158 C136 0.931 . S
H159 C137 0.931 . S
C160 Eu161 2.835 . S
C160 C162 1.500 1_455 S
C160 O180 1.257 . S
C160 O181 1.260 . S
Eu161 C160 2.835 . S
Eu161 O180 2.473 . S
Eu161 O181 2.480 . S
Eu161 O182 2.430 . S
Eu161 O183 2.670 . S
Eu161 O184 2.394 . S
Eu161 O189 2.355 . S
Eu161 O191 2.374 . S
C162 C160 1.500 1_655 S
C162 C163 1.377 . S
C162 C167 1.377 . S
C163 C162 1.377 . S
C163 C164 1.395 . S
C163 H192 0.931 . S
C164 C163 1.395 . S
C164 C165 1.383 . S
C164 H193 0.931 . S
C165 C164 1.383 . S
C165 C166 1.394 . S
C166 C165 1.394 . S
C166 C167 1.378 . S
C166 H194 0.931 . S
C167 C162 1.377 . S
C167 C166 1.378 . S
C167 H195 0.931 . S
C168 O182 1.259 . S
C168 O183 1.270 . S
C169 O184 1.251 . S
C169 O185 1.251 . S
C170 Eu171 2.835 . S
C170 C172 1.500 . S
C170 O186 1.257 . S
C170 O187 1.260 . S
Eu171 C170 2.835 . S
Eu171 O183 2.355 . S
Eu171 O185 2.374 . S
Eu171 O186 2.473 . S
Eu171 O187 2.480 . S
Eu171 O188 2.430 . S
Eu171 O189 2.670 . S
Eu171 O190 2.394 . S
C172 C170 1.500 . S
C172 C173 1.377 . S
C172 C177 1.377 . S
C173 C172 1.377 . S
C173 C174 1.395 . S
C173 H196 0.931 . S
C174 C173 1.395 . S
C174 C175 1.383 . S
C174 H197 0.931 . S
C175 C174 1.383 . S
C175 C176 1.394 . S
C176 C175 1.394 . S
C176 C177 1.378 . S
C176 H198 0.931 . S
C177 C172 1.377 . S
C177 C176 1.378 . S
C177 H199 0.931 . S
C178 O188 1.259 . S
C178 O189 1.270 . S
C179 O190 1.251 . S
C179 O191 1.251 . S
O180 C160 1.257 . S
O180 Eu161 2.473 . S
O181 C160 1.260 . S
O181 Eu161 2.480 . S
O182 Eu161 2.430 . S
O182 C168 1.259 . S
O183 Eu161 2.670 . S
O183 C168 1.270 . S
O183 Eu171 2.355 . S
O184 Eu161 2.394 . S
O184 C169 1.251 . S
O185 C169 1.251 . S
O185 Eu171 2.374 . S
O186 C170 1.257 . S
O186 Eu171 2.473 . S
O187 C170 1.260 . S
O187 Eu171 2.480 . S
O188 Eu171 2.430 . S
O188 C178 1.259 . S
O189 Eu161 2.355 . S
O189 Eu171 2.670 . S
O189 C178 1.270 . S
O190 Eu171 2.394 . S
O190 C179 1.251 . S
O191 Eu161 2.374 . S
O191 C179 1.251 . S
H192 C163 0.931 . S
H193 C164 0.931 . S
H194 C166 0.931 . S
H195 C167 0.931 . S
H196 C173 0.931 . S
H197 C174 0.931 . S
H198 C176 0.931 . S
H199 C177 0.931 . S
C200 Eu201 2.835 . S
C200 C202 1.500 1_545 S
C200 O220 1.257 . S
C200 O221 1.260 . S
Eu201 C200 2.835 . S
Eu201 O220 2.473 . S
Eu201 O221 2.480 . S
Eu201 O222 2.430 . S
Eu201 O223 2.670 . S
Eu201 O224 2.394 . S
Eu201 O229 2.355 . S
Eu201 O231 2.374 . S
C202 C200 1.500 1_565 S
C202 C203 1.377 . S
C202 C207 1.377 . S
C203 C202 1.377 . S
C203 C204 1.395 . S
C203 H232 0.931 . S
C204 C203 1.395 . S
C204 C205 1.383 . S
C204 H233 0.931 . S
C205 C204 1.383 . S
C205 C206 1.394 . S
C206 C205 1.394 . S
C206 C207 1.378 . S
C206 H234 0.931 . S
C207 C202 1.377 . S
C207 C206 1.378 . S
C207 H235 0.931 . S
C208 O222 1.259 . S
C208 O223 1.270 . S
C209 O224 1.251 . S
C209 O225 1.251 . S
C210 Eu211 2.835 . S
C210 C212 1.500 . S
C210 O226 1.257 . S
C210 O227 1.260 . S
Eu211 C210 2.835 . S
Eu211 O223 2.355 . S
Eu211 O225 2.374 . S
Eu211 O226 2.473 . S
Eu211 O227 2.480 . S
Eu211 O228 2.430 . S
Eu211 O229 2.670 . S
Eu211 O230 2.394 . S
C212 C210 1.500 . S
C212 C213 1.377 . S
C212 C217 1.377 . S
C213 C212 1.377 . S
C213 C214 1.395 . S
C213 H236 0.931 . S
C214 C213 1.395 . S
C214 C215 1.383 . S
C214 H237 0.931 . S
C215 C214 1.383 . S
C215 C216 1.394 . S
C216 C215 1.394 . S
C216 C217 1.378 . S
C216 H238 0.931 . S
C217 C212 1.377 . S
C217 C216 1.378 . S
C217 H239 0.931 . S
C218 O228 1.259 . S
C218 O229 1.270 . S
C219 O230 1.251 . S
C219 O231 1.251 . S
O220 C200 1.257 . S
O220 Eu201 2.473 . S
O221 C200 1.260 . S
O221 Eu201 2.480 . S
O222 Eu201 2.430 . S
O222 C208 1.259 . S
O223 Eu201 2.670 . S
O223 C208 1.270 . S
O223 Eu211 2.355 . S
O224 Eu201 2.394 . S
O224 C209 1.251 . S
O225 C209 1.251 . S
O225 Eu211 2.374 . S
O226 C210 1.257 . S
O226 Eu211 2.473 . S
O227 C210 1.260 . S
O227 Eu211 2.480 . S
O228 Eu211 2.430 . S
O228 C218 1.259 . S
O229 Eu201 2.355 . S
O229 Eu211 2.670 . S
O229 C218 1.270 . S
O230 Eu211 2.394 . S
O230 C219 1.251 . S
O231 Eu201 2.374 . S
O231 C219 1.251 . S
H232 C203 0.931 . S
H233 C204 0.931 . S
H234 C206 0.931 . S
H235 C207 0.931 . S
H236 C213 0.931 . S
H237 C214 0.931 . S
H238 C216 0.931 . S
H239 C217 0.931 . S
C240 Eu241 2.835 . S
C240 C242 1.500 . S
C240 O260 1.257 . S
C240 O261 1.260 . S
Eu241 C240 2.835 . S
Eu241 O260 2.473 . S
Eu241 O261 2.480 . S
Eu241 O262 2.430 . S
Eu241 O263 2.670 . S
Eu241 O264 2.394 . S
Eu241 O269 2.355 . S
Eu241 O271 2.374 . S
C242 C240 1.500 . S
C242 C243 1.377 . S
C242 C247 1.377 . S
C243 C242 1.377 . S
C243 C244 1.395 . S
C243 H272 0.931 . S
C244 C243 1.395 . S
C244 C245 1.383 . S
C244 H273 0.931 . S
C245 C244 1.383 . S
C245 C246 1.394 . S
C246 C245 1.394 . S
C246 C247 1.378 . S
C246 H274 0.931 . S
C247 C242 1.377 . S
C247 C246 1.378 . S
C247 H275 0.931 . S
C248 O262 1.259 . S
C248 O263 1.270 . S
C249 O264 1.251 . S
C249 O265 1.251 . S
C250 Eu251 2.835 . S
C250 C252 1.500 . S
C250 O266 1.257 . S
C250 O267 1.260 . S
Eu251 C250 2.835 . S
Eu251 O263 2.355 . S
Eu251 O265 2.374 . S
Eu251 O266 2.473 . S
Eu251 O267 2.480 . S
Eu251 O268 2.430 . S
Eu251 O269 2.670 . S
Eu251 O270 2.394 . S
C252 C250 1.500 . S
C252 C253 1.377 . S
C252 C257 1.377 . S
C253 C252 1.377 . S
C253 C254 1.395 . S
C253 H276 0.931 . S
C254 C253 1.395 . S
C254 C255 1.383 . S
C254 H277 0.931 . S
C255 C254 1.383 . S
C255 C256 1.394 . S
C256 C255 1.394 . S
C256 C257 1.378 . S
C256 H278 0.931 . S
C257 C252 1.377 . S
C257 C256 1.378 . S
C257 H279 0.931 . S
C258 O268 1.259 . S
C258 O269 1.270 . S
C259 O270 1.251 . S
C259 O271 1.251 . S
O260 C240 1.257 . S
O260 Eu241 2.473 . S
O261 C240 1.260 . S
O261 Eu241 2.480 . S
O262 Eu241 2.430 . S
O262 C248 1.259 . S
O263 Eu241 2.670 . S
O263 C248 1.270 . S
O263 Eu251 2.355 . S
O264 Eu241 2.394 . S
O264 C249 1.251 . S
O265 C249 1.251 . S
O265 Eu251 2.374 . S
O266 C250 1.257 . S
O266 Eu251 2.473 . S
O267 C250 1.260 . S
O267 Eu251 2.480 . S
O268 Eu251 2.430 . S
O268 C258 1.259 . S
O269 Eu241 2.355 . S
O269 Eu251 2.670 . S
O269 C258 1.270 . S
O270 Eu251 2.394 . S
O270 C259 1.251 . S
O271 Eu241 2.374 . S
O271 C259 1.251 . S
H272 C243 0.931 . S
H273 C244 0.931 . S
H274 C246 0.931 . S
H275 C247 0.931 . S
H276 C253 0.931 . S
H277 C254 0.931 . S
H278 C256 0.931 . S
H279 C257 0.931 . S
C280 Eu281 2.835 . S
C280 C282 1.500 1_655 S
C280 O300 1.257 . S
C280 O301 1.260 . S
Eu281 C280 2.835 . S
Eu281 O300 2.473 . S
Eu281 O301 2.480 . S
Eu281 O302 2.430 . S
Eu281 O303 2.670 . S
Eu281 O304 2.394 . S
Eu281 O309 2.355 . S
Eu281 O311 2.374 . S
C282 C280 1.500 1_455 S
C282 C283 1.377 . S
C282 C287 1.377 . S
C283 C282 1.377 . S
C283 C284 1.395 . S
C283 H312 0.931 . S
C284 C283 1.395 . S
C284 C285 1.383 . S
C284 H313 0.931 . S
C285 C284 1.383 . S
C285 C286 1.394 . S
C286 C285 1.394 . S
C286 C287 1.378 . S
C286 H314 0.931 . S
C287 C282 1.377 . S
C287 C286 1.378 . S
C287 H315 0.931 . S
C288 O302 1.259 . S
C288 O303 1.270 . S
C289 O304 1.251 . S
C289 O305 1.251 . S
C290 Eu291 2.835 . S
C290 C292 1.500 . S
C290 O306 1.257 . S
C290 O307 1.260 . S
Eu291 C290 2.835 . S
Eu291 O303 2.355 . S
Eu291 O305 2.374 . S
Eu291 O306 2.473 . S
Eu291 O307 2.480 . S
Eu291 O308 2.430 . S
Eu291 O309 2.670 . S
Eu291 O310 2.394 . S
C292 C290 1.500 . S
C292 C293 1.377 . S
C292 C297 1.377 . S
C293 C292 1.377 . S
C293 C294 1.395 . S
C293 H316 0.931 . S
C294 C293 1.395 . S
C294 C295 1.383 . S
C294 H317 0.931 . S
C295 C294 1.383 . S
C295 C296 1.394 . S
C296 C295 1.394 . S
C296 C297 1.378 . S
C296 H318 0.931 . S
C297 C292 1.377 . S
C297 C296 1.378 . S
C297 H319 0.931 . S
C298 O308 1.259 . S
C298 O309 1.270 . S
C299 O310 1.251 . S
C299 O311 1.251 . S
O300 C280 1.257 . S
O300 Eu281 2.473 . S
O301 C280 1.260 . S
O301 Eu281 2.480 . S
O302 Eu281 2.430 . S
O302 C288 1.259 . S
O303 Eu281 2.670 . S
O303 C288 1.270 . S
O303 Eu291 2.355 . S
O304 Eu281 2.394 . S
O304 C289 1.251 . S
O305 C289 1.251 . S
O305 Eu291 2.374 . S
O306 C290 1.257 . S
O306 Eu291 2.473 . S
O307 C290 1.260 . S
O307 Eu291 2.480 . S
O308 Eu291 2.430 . S
O308 C298 1.259 . S
O309 Eu281 2.355 . S
O309 Eu291 2.670 . S
O309 C298 1.270 . S
O310 Eu291 2.394 . S
O310 C299 1.251 . S
O311 Eu281 2.374 . S
O311 C299 1.251 . S
H312 C283 0.931 . S
H313 C284 0.931 . S
H314 C286 0.931 . S
H315 C287 0.931 . S
H316 C293 0.931 . S
H317 C294 0.931 . S
H318 C296 0.931 . S
H319 C297 0.931 . S
C320 Eu321 2.835 . S
C320 C322 1.500 1_565 S
C320 O340 1.257 . S
C320 O341 1.260 . S
Eu321 C320 2.835 . S
Eu321 O340 2.473 . S
Eu321 O341 2.480 . S
Eu321 O342 2.430 . S
Eu321 O343 2.670 . S
Eu321 O344 2.394 . S
Eu321 O349 2.355 . S
Eu321 O351 2.374 . S
C322 C320 1.500 1_545 S
C322 C323 1.377 . S
C322 C327 1.377 . S
C323 C322 1.377 . S
C323 C324 1.395 . S
C323 H352 0.931 . S
C324 C323 1.395 . S
C324 C325 1.383 . S
C324 H353 0.931 . S
C325 C324 1.383 . S
C325 C326 1.394 . S
C326 C325 1.394 . S
C326 C327 1.378 . S
C326 H354 0.931 . S
C327 C322 1.377 . S
C327 C326 1.378 . S
C327 H355 0.931 . S
C328 O342 1.259 . S
C328 O343 1.270 . S
C329 O344 1.251 . S
C329 O345 1.251 . S
C330 Eu331 2.835 . S
C330 C332 1.500 . S
C330 O346 1.257 . S
C330 O347 1.260 . S
Eu331 C330 2.835 . S
Eu331 O343 2.355 . S
Eu331 O345 2.374 . S
Eu331 O346 2.473 . S
Eu331 O347 2.480 . S
Eu331 O348 2.430 . S
Eu331 O349 2.670 . S
Eu331 O350 2.394 . S
C332 C330 1.500 . S
C332 C333 1.377 . S
C332 C337 1.377 . S
C333 C332 1.377 . S
C333 C334 1.395 . S
C333 H356 0.931 . S
C334 C333 1.395 . S
C334 C335 1.383 . S
C334 H357 0.931 . S
C335 C334 1.383 . S
C335 C336 1.394 . S
C336 C335 1.394 . S
C336 C337 1.378 . S
C336 H358 0.931 . S
C337 C332 1.377 . S
C337 C336 1.378 . S
C337 H359 0.931 . S
C338 O348 1.259 . S
C338 O349 1.270 . S
C339 O350 1.251 . S
C339 O351 1.251 . S
O340 C320 1.257 . S
O340 Eu321 2.473 . S
O341 C320 1.260 . S
O341 Eu321 2.480 . S
O342 Eu321 2.430 . S
O342 C328 1.259 . S
O343 Eu321 2.670 . S
O343 C328 1.270 . S
O343 Eu331 2.355 . S
O344 Eu321 2.394 . S
O344 C329 1.251 . S
O345 C329 1.251 . S
O345 Eu331 2.374 . S
O346 C330 1.257 . S
O346 Eu331 2.473 . S
O347 C330 1.260 . S
O347 Eu331 2.480 . S
O348 Eu331 2.430 . S
O348 C338 1.259 . S
O349 Eu321 2.355 . S
O349 Eu331 2.670 . S
O349 C338 1.270 . S
O350 Eu331 2.394 . S
O350 C339 1.251 . S
O351 Eu321 2.374 . S
O351 C339 1.251 . S
H352 C323 0.931 . S
H353 C324 0.931 . S
H354 C326 0.931 . S
H355 C327 0.931 . S
H356 C333 0.931 . S
H357 C334 0.931 . S
H358 C336 0.931 . S
H359 C337 0.931 . S
C360 Eu361 2.835 . S
C360 C362 1.500 . S
C360 O380 1.257 . S
C360 O381 1.260 . S
Eu361 C360 2.835 . S
Eu361 O380 2.473 . S
Eu361 O381 2.480 . S
Eu361 O382 2.430 . S
Eu361 O383 2.670 . S
Eu361 O384 2.394 . S
Eu361 O389 2.355 . S
Eu361 O391 2.374 . S
C362 C360 1.500 . S
C362 C363 1.377 . S
C362 C367 1.377 . S
C363 C362 1.377 . S
C363 C364 1.395 . S
C363 H392 0.931 . S
C364 C363 1.395 . S
C364 C365 1.383 . S
C364 H393 0.931 . S
C365 C364 1.383 . S
C365 C366 1.394 . S
C366 C365 1.394 . S
C366 C367 1.378 . S
C366 H394 0.931 . S
C367 C362 1.377 . S
C367 C366 1.378 . S
C367 H395 0.931 . S
C368 O382 1.259 . S
C368 O383 1.270 . S
C369 O384 1.251 . S
C369 O385 1.251 . S
C370 Eu371 2.835 . S
C370 C372 1.500 . S
C370 O386 1.257 . S
C370 O387 1.260 . S
Eu371 C370 2.835 . S
Eu371 O383 2.355 . S
Eu371 O385 2.374 . S
Eu371 O386 2.473 . S
Eu371 O387 2.480 . S
Eu371 O388 2.430 . S
Eu371 O389 2.670 . S
Eu371 O390 2.394 . S
C372 C370 1.500 . S
C372 C373 1.377 . S
C372 C377 1.377 . S
C373 C372 1.377 . S
C373 C374 1.395 . S
C373 H396 0.931 . S
C374 C373 1.395 . S
C374 C375 1.383 . S
C374 H397 0.931 . S
C375 C374 1.383 . S
C375 C376 1.394 . S
C376 C375 1.394 . S
C376 C377 1.378 . S
C376 H398 0.931 . S
C377 C372 1.377 . S
C377 C376 1.378 . S
C377 H399 0.931 . S
C378 O388 1.259 . S
C378 O389 1.270 . S
C379 O390 1.251 . S
C379 O391 1.251 . S
O380 C360 1.257 . S
O380 Eu361 2.473 . S
O381 C360 1.260 . S
O381 Eu361 2.480 . S
O382 Eu361 2.430 . S
O382 C368 1.259 . S
O383 Eu361 2.670 . S
O383 C368 1.270 . S
O383 Eu371 2.355 . S
O384 Eu361 2.394 . S
O384 C369 1.251 . S
O385 C369 1.251 . S
O385 Eu371 2.374 . S
O386 C370 1.257 . S
O386 Eu371 2.473 . S
O387 C370 1.260 . S
O387 Eu371 2.480 . S
O388 Eu371 2.430 . S
O388 C378 1.259 . S
O389 Eu361 2.355 . S
O389 Eu371 2.670 . S
O389 C378 1.270 . S
O390 Eu371 2.394 . S
O390 C379 1.251 . S
O391 Eu361 2.374 . S
O391 C379 1.251 . S
H392 C363 0.931 . S
H393 C364 0.931 . S
H394 C366 0.931 . S
H395 C367 0.931 . S
H396 C373 0.931 . S
H397 C374 0.931 . S
H398 C376 0.931 . S
H399 C377 0.931 . S
C400 Eu401 2.835 . S
C400 C402 1.500 1_455 S
C400 O420 1.257 . S
C400 O421 1.260 . S
Eu401 C400 2.835 . S
Eu401 O420 2.473 . S
Eu401 O421 2.480 . S
Eu401 O422 2.430 . S
Eu401 O423 2.670 . S
Eu401 O424 2.394 . S
Eu401 O429 2.355 . S
Eu401 O431 2.374 . S
C402 C400 1.500 1_655 S
C402 C403 1.377 . S
C402 C407 1.377 . S
C403 C402 1.377 . S
C403 C404 1.395 . S
C403 H432 0.931 . S
C404 C403 1.395 . S
C404 C405 1.383 . S
C404 H433 0.931 . S
C405 C404 1.383 . S
C405 C406 1.394 . S
C406 C405 1.394 . S
C406 C407 1.378 . S
C406 H434 0.931 . S
C407 C402 1.377 . S
C407 C406 1.378 . S
C407 H435 0.931 . S
C408 O422 1.259 . S
C408 O423 1.270 . S
C409 O424 1.251 . S
C409 O425 1.251 . S
C410 Eu411 2.835 . S
C410 C412 1.500 . S
C410 O426 1.257 . S
C410 O427 1.260 . S
Eu411 C410 2.835 . S
Eu411 O423 2.355 . S
Eu411 O425 2.374 . S
Eu411 O426 2.473 . S
Eu411 O427 2.480 . S
Eu411 O428 2.430 . S
Eu411 O429 2.670 . S
Eu411 O430 2.394 . S
C412 C410 1.500 . S
C412 C413 1.377 . S
C412 C417 1.377 . S
C413 C412 1.377 . S
C413 C414 1.395 . S
C413 H436 0.931 . S
C414 C413 1.395 . S
C414 C415 1.383 . S
C414 H437 0.931 . S
C415 C414 1.383 . S
C415 C416 1.394 . S
C416 C415 1.394 . S
C416 C417 1.378 . S
C416 H438 0.931 . S
C417 C412 1.377 . S
C417 C416 1.378 . S
C417 H439 0.931 . S
C418 O428 1.259 . S
C418 O429 1.270 . S
C419 O430 1.251 . S
C419 O431 1.251 . S
O420 C400 1.257 . S
O420 Eu401 2.473 . S
O421 C400 1.260 . S
O421 Eu401 2.480 . S
O422 Eu401 2.430 . S
O422 C408 1.259 . S
O423 Eu401 2.670 . S
O423 C408 1.270 . S
O423 Eu411 2.355 . S
O424 Eu401 2.394 . S
O424 C409 1.251 . S
O425 C409 1.251 . S
O425 Eu411 2.374 . S
O426 C410 1.257 . S
O426 Eu411 2.473 . S
O427 C410 1.260 . S
O427 Eu411 2.480 . S
O428 Eu411 2.430 . S
O428 C418 1.259 . S
O429 Eu401 2.355 . S
O429 Eu411 2.670 . S
O429 C418 1.270 . S
O430 Eu411 2.394 . S
O430 C419 1.251 . S
O431 Eu401 2.374 . S
O431 C419 1.251 . S
H432 C403 0.931 . S
H433 C404 0.931 . S
H434 C406 0.931 . S
H435 C407 0.931 . S
H436 C413 0.931 . S
H437 C414 0.931 . S
H438 C416 0.931 . S
H439 C417 0.931 . S
C440 Eu441 2.835 . S
C440 C442 1.500 1_545 S
C440 O460 1.257 . S
C440 O461 1.260 . S
Eu441 C440 2.835 . S
Eu441 O460 2.473 . S
Eu441 O461 2.480 . S
Eu441 O462 2.430 . S
Eu441 O463 2.670 . S
Eu441 O464 2.394 . S
Eu441 O469 2.355 . S
Eu441 O471 2.374 . S
C442 C440 1.500 1_565 S
C442 C443 1.377 . S
C442 C447 1.377 . S
C443 C442 1.377 . S
C443 C444 1.395 . S
C443 H472 0.931 . S
C444 C443 1.395 . S
C444 C445 1.383 . S
C444 H473 0.931 . S
C445 C444 1.383 . S
C445 C446 1.394 . S
C446 C445 1.394 . S
C446 C447 1.378 . S
C446 H474 0.931 . S
C447 C442 1.377 . S
C447 C446 1.378 . S
C447 H475 0.931 . S
C448 O462 1.259 . S
C448 O463 1.270 . S
C449 O464 1.251 . S
C449 O465 1.251 . S
C450 Eu451 2.835 . S
C450 C452 1.500 . S
C450 O466 1.257 . S
C450 O467 1.260 . S
Eu451 C450 2.835 . S
Eu451 O463 2.355 . S
Eu451 O465 2.374 . S
Eu451 O466 2.473 . S
Eu451 O467 2.480 . S
Eu451 O468 2.430 . S
Eu451 O469 2.670 . S
Eu451 O470 2.394 . S
C452 C450 1.500 . S
C452 C453 1.377 . S
C452 C457 1.377 . S
C453 C452 1.377 . S
C453 C454 1.395 . S
C453 H476 0.931 . S
C454 C453 1.395 . S
C454 C455 1.383 . S
C454 H477 0.931 . S
C455 C454 1.383 . S
C455 C456 1.394 . S
C456 C455 1.394 . S
C456 C457 1.378 . S
C456 H478 0.931 . S
C457 C452 1.377 . S
C457 C456 1.378 . S
C457 H479 0.931 . S
C458 O468 1.259 . S
C458 O469 1.270 . S
C459 O470 1.251 . S
C459 O471 1.251 . S
O460 C440 1.257 . S
O460 Eu441 2.473 . S
O461 C440 1.260 . S
O461 Eu441 2.480 . S
O462 Eu441 2.430 . S
O462 C448 1.259 . S
O463 Eu441 2.670 . S
O463 C448 1.270 . S
O463 Eu451 2.355 . S
O464 Eu441 2.394 . S
O464 C449 1.251 . S
O465 C449 1.251 . S
O465 Eu451 2.374 . S
O466 C450 1.257 . S
O466 Eu451 2.473 . S
O467 C450 1.260 . S
O467 Eu451 2.480 . S
O468 Eu451 2.430 . S
O468 C458 1.259 . S
O469 Eu441 2.355 . S
O469 Eu451 2.670 . S
O469 C458 1.270 . S
O470 Eu451 2.394 . S
O470 C459 1.251 . S
O471 Eu441 2.374 . S
O471 C459 1.251 . S
H472 C443 0.931 . S
H473 C444 0.931 . S
H474 C446 0.931 . S
H475 C447 0.931 . S
H476 C453 0.931 . S
H477 C454 0.931 . S
H478 C456 0.931 . S
H479 C457 0.931 . S
H480 C486 0.930 . S
H481 C490 0.930 . S
H482 C495 0.929 . S
H483 C493 0.929 . S
H484 C488 0.929 . S
H485 C494 0.929 . S
C486 H480 0.930 . S
C486 C487 1.367 . S
C486 C494 1.378 . S
C487 C486 1.367 . S
C487 C495 1.433 . S
C488 H484 0.929 . S
C488 C490 1.378 . S
C488 C492 1.350 . S
C489 C492 1.463 1_565 S
C489 C494 1.350 . S
C489 N497 1.427 . S
C490 H481 0.930 . S
C490 C488 1.378 . S
C490 C491 1.367 . S
C491 C490 1.367 . S
C491 C493 1.433 . S
C492 C488 1.350 . S
C492 C489 1.463 1_545 S
C492 N496 1.427 . S
C493 H483 0.929 . S
C493 C491 1.433 . S
C493 N496 1.384 . S
C494 H485 0.929 . S
C494 C486 1.378 . S
C494 C489 1.350 . S
C495 H482 0.929 . S
C495 C487 1.433 . S
C495 N497 1.384 . S
N496 C492 1.427 . S
N496 C493 1.384 . S
N497 C489 1.427 . S
N497 C495 1.384 . S
H498 C504 0.930 . S
H499 C508 0.930 . S
H500 C513 0.929 . S
H501 C511 0.929 . S
H502 C506 0.929 . S
H503 C512 0.929 . S
C504 H498 0.930 . S
C504 C505 1.367 . S
C504 C512 1.378 . S
C505 C504 1.367 . S
C505 C513 1.433 . S
C506 H502 0.929 . S
C506 C508 1.378 . S
C506 C510 1.350 . S
C507 C510 1.463 . S
C507 C512 1.350 . S
C507 N515 1.427 . S
C508 H499 0.930 . S
C508 C506 1.378 . S
C508 C509 1.367 . S
C509 C508 1.367 . S
C509 C511 1.433 . S
C510 C506 1.350 . S
C510 C507 1.463 . S
C510 N514 1.427 . S
C511 H501 0.929 . S
C511 C509 1.433 . S
C511 N514 1.384 . S
C512 H503 0.929 . S
C512 C504 1.378 . S
C512 C507 1.350 . S
C513 H500 0.929 . S
C513 C505 1.433 . S
C513 N515 1.384 . S
N514 C510 1.427 . S
N514 C511 1.384 . S
N515 C507 1.427 . S
N515 C513 1.384 . S
H516 C522 0.930 . S
H517 C526 0.930 . S
H518 C531 0.929 . S
H519 C529 0.929 . S
H520 C524 0.929 . S
H521 C530 0.929 . S
C522 H516 0.930 . S
C522 C523 1.367 . S
C522 C530 1.378 . S
C523 C522 1.367 . S
C523 C531 1.433 . S
C524 H520 0.929 . S
C524 C526 1.378 . S
C524 C528 1.350 . S
C525 C528 1.463 1_655 S
C525 C530 1.350 . S
C525 N533 1.427 . S
C526 H517 0.930 . S
C526 C524 1.378 . S
C526 C527 1.367 . S
C527 C526 1.367 . S
C527 C529 1.433 . S
C528 C524 1.350 . S
C528 C525 1.463 1_455 S
C528 N532 1.427 . S
C529 H519 0.929 . S
C529 C527 1.433 . S
C529 N532 1.384 . S
C530 H521 0.929 . S
C530 C522 1.378 . S
C530 C525 1.350 . S
C531 H518 0.929 . S
C531 C523 1.433 . S
C531 N533 1.384 . S
N532 C528 1.427 . S
N532 C529 1.384 . S
N533 C525 1.427 . S
N533 C531 1.384 . S
H534 C540 0.930 . S
H535 C544 0.930 . S
H536 C549 0.929 . S
H537 C547 0.929 . S
H538 C542 0.929 . S
H539 C548 0.926 1_545 S
C540 H534 0.930 . S
C540 C541 1.367 . S
C540 C548 1.378 . S
C541 C540 1.367 . S
C541 C549 1.433 . S
C542 H538 0.929 . S
C542 C544 1.378 . S
C542 C546 1.350 . S
C543 C546 1.463 1_565 S
C543 C548 1.350 . S
C543 N551 1.427 . S
C544 H535 0.930 . S
C544 C542 1.378 . S
C544 C545 1.367 . S
C545 C544 1.367 . S
C545 C547 1.433 . S
C546 C542 1.350 . S
C546 C543 1.463 1_545 S
C546 N550 1.427 . S
C547 H537 0.929 . S
C547 C545 1.433 . S
C547 N550 1.384 . S
C548 H539 0.926 1_565 S
C548 C540 1.378 . S
C548 C543 1.350 . S
C549 H536 0.929 . S
C549 C541 1.433 . S
C549 N551 1.384 . S
N550 C546 1.427 . S
N550 C547 1.384 . S
N551 C543 1.427 . S
N551 C549 1.384 . S
H552 C558 0.930 . S
H553 C562 0.930 . S
H554 C567 0.929 . S
H555 C565 0.929 . S
H556 C560 0.929 . S
H557 C566 0.929 . S
C558 H552 0.930 . S
C558 C559 1.367 . S
C558 C566 1.378 . S
C559 C558 1.367 . S
C559 C567 1.433 . S
C560 H556 0.929 . S
C560 C562 1.378 . S
C560 C564 1.350 . S
C561 C564 1.463 . S
C561 C566 1.350 . S
C561 N569 1.427 . S
C562 H553 0.930 . S
C562 C560 1.378 . S
C562 C563 1.367 . S
C563 C562 1.367 . S
C563 C565 1.433 . S
C564 C560 1.350 . S
C564 C561 1.463 . S
C564 N568 1.427 . S
C565 H555 0.929 . S
C565 C563 1.433 . S
C565 N568 1.384 . S
C566 H557 0.929 . S
C566 C558 1.378 . S
C566 C561 1.350 . S
C567 H554 0.929 . S
C567 C559 1.433 . S
C567 N569 1.384 . S
N568 C564 1.427 . S
N568 C565 1.384 . S
N569 C561 1.427 . S
N569 C567 1.384 . S
H570 C576 0.930 . S
H571 C580 0.930 . S
H572 C585 0.929 . S
H573 C583 0.929 . S
H574 C578 0.929 . S
H575 C584 0.929 . S
C576 H570 0.930 . S
C576 C577 1.367 . S
C576 C584 1.378 . S
C577 C576 1.367 . S
C577 C585 1.433 . S
C578 H574 0.929 . S
C578 C580 1.378 . S
C578 C582 1.350 . S
C579 C582 1.463 1_655 S
C579 C584 1.350 . S
C579 N587 1.427 . S
C580 H571 0.930 . S
C580 C578 1.378 . S
C580 C581 1.367 . S
C581 C580 1.367 . S
C581 C583 1.433 . S
C582 C578 1.350 . S
C582 C579 1.463 1_455 S
C582 N586 1.427 . S
C583 H573 0.929 . S
C583 C581 1.433 . S
C583 N586 1.384 . S
C584 H575 0.929 . S
C584 C576 1.378 . S
C584 C579 1.350 . S
C585 H572 0.929 . S
C585 C577 1.433 . S
C585 N587 1.384 . S
N586 C582 1.427 . S
N586 C583 1.384 . S
N587 C579 1.427 . S
N587 C585 1.384 . S
H588 C594 0.930 . S
H589 C598 0.930 . S
H590 C603 0.929 . S
H591 C601 0.929 . S
H592 C596 0.929 . S
H593 C602 0.929 . S
C594 H588 0.930 . S
C594 C595 1.367 . S
C594 C602 1.378 . S
C595 C594 1.367 . S
C595 C603 1.433 . S
C596 H592 0.929 . S
C596 C598 1.378 . S
C596 C600 1.350 . S
C597 C600 1.463 1_455 S
C597 C602 1.350 . S
C597 N605 1.427 . S
C598 H589 0.930 . S
C598 C596 1.378 . S
C598 C599 1.367 . S
C599 C598 1.367 . S
C599 C601 1.433 . S
C600 C596 1.350 . S
C600 C597 1.463 1_655 S
C600 N604 1.427 . S
C601 H591 0.929 . S
C601 C599 1.433 . S
C601 N604 1.384 . S
C602 H593 0.929 . S
C602 C594 1.378 . S
C602 C597 1.350 . S
C603 H590 0.929 . S
C603 C595 1.433 . S
C603 N605 1.384 . S
N604 C600 1.427 . S
N604 C601 1.384 . S
N605 C597 1.427 . S
N605 C603 1.384 . S
H606 C612 0.930 . S
H607 C616 0.930 . S
H608 C621 0.929 . S
H609 C619 0.929 . S
H610 C614 0.929 . S
H611 C620 0.929 . S
C612 H606 0.930 . S
C612 C613 1.367 . S
C612 C620 1.378 . S
C613 C612 1.367 . S
C613 C621 1.433 . S
C614 H610 0.929 . S
C614 C616 1.378 . S
C614 C618 1.350 . S
C615 C618 1.463 1_565 S
C615 C620 1.350 . S
C615 N623 1.427 . S
C616 H607 0.930 . S
C616 C614 1.378 . S
C616 C617 1.367 . S
C617 C616 1.367 . S
C617 C619 1.433 . S
C618 C614 1.350 . S
C618 C615 1.463 1_545 S
C618 N622 1.427 . S
C619 H609 0.929 . S
C619 C617 1.433 . S
C619 N622 1.384 . S
C620 H611 0.929 . S
C620 C612 1.378 . S
C620 C615 1.350 . S
C621 H608 0.929 . S
C621 C613 1.433 . S
C621 N623 1.384 . S
N622 C618 1.427 . S
N622 C619 1.384 . S
N623 C615 1.427 . S
N623 C621 1.384 . S
H624 C630 0.930 . S
H625 C634 0.930 . S
H626 C639 0.929 . S
H627 C637 0.929 . S
H628 C632 0.929 . S
H629 C638 0.929 . S
C630 H624 0.930 . S
C630 C631 1.367 . S
C630 C638 1.378 . S
C631 C630 1.367 . S
C631 C639 1.433 . S
C632 H628 0.929 . S
C632 C634 1.378 . S
C632 C636 1.350 . S
C633 C636 1.463 . S
C633 C638 1.350 . S
C633 N641 1.427 . S
C634 H625 0.930 . S
C634 C632 1.378 . S
C634 C635 1.367 . S
C635 C634 1.367 . S
C635 C637 1.433 . S
C636 C632 1.350 . S
C636 C633 1.463 . S
C636 N640 1.427 . S
C637 H627 0.929 . S
C637 C635 1.433 . S
C637 N640 1.384 . S
C638 H629 0.929 . S
C638 C630 1.378 . S
C638 C633 1.350 . S
C639 H626 0.929 . S
C639 C631 1.433 . S
C639 N641 1.384 . S
N640 C636 1.427 . S
N640 C637 1.384 . S
N641 C633 1.427 . S
N641 C639 1.384 . S
H642 C648 0.930 . S
H643 C652 0.930 . S
H644 C657 0.929 . S
H645 C655 0.929 . S
H646 C650 0.929 . S
H647 C656 0.929 . S
C648 H642 0.930 . S
C648 C649 1.367 . S
C648 C656 1.378 . S
C649 C648 1.367 . S
C649 C657 1.433 . S
C650 H646 0.929 . S
C650 C652 1.378 . S
C650 C654 1.350 . S
C651 C654 1.463 1_455 S
C651 C656 1.350 . S
C651 N659 1.427 . S
C652 H643 0.930 . S
C652 C650 1.378 . S
C652 C653 1.367 . S
C653 C652 1.367 . S
C653 C655 1.433 . S
C654 C650 1.350 . S
C654 C651 1.463 1_655 S
C654 N658 1.427 . S
C655 H645 0.929 . S
C655 C653 1.433 . S
C655 N658 1.384 . S
C656 H647 0.929 . S
C656 C648 1.378 . S
C656 C651 1.350 . S
C657 H644 0.929 . S
C657 C649 1.433 . S
C657 N659 1.384 . S
N658 C654 1.427 . S
N658 C655 1.384 . S
N659 C651 1.427 . S
N659 C657 1.384 . S
H660 C666 0.930 . S
H661 C670 0.930 . S
H662 C675 0.929 . S
H663 C673 0.929 . S
H664 C668 0.929 . S
H665 C674 0.929 . S
C666 H660 0.930 . S
C666 C667 1.367 . S
C666 C674 1.378 . S
C667 C666 1.367 . S
C667 C675 1.433 . S
C668 H664 0.929 . S
C668 C670 1.378 . S
C668 C672 1.350 . S
C669 C672 1.463 1_545 S
C669 C674 1.350 . S
C669 N677 1.427 . S
C670 H661 0.930 . S
C670 C668 1.378 . S
C670 C671 1.367 . S
C671 C670 1.367 . S
C671 C673 1.433 . S
C672 C668 1.350 . S
C672 C669 1.463 1_565 S
C672 N676 1.427 . S
C673 H663 0.929 . S
C673 C671 1.433 . S
C673 N676 1.384 . S
C674 H665 0.929 . S
C674 C666 1.378 . S
C674 C669 1.350 . S
C675 H662 0.929 . S
C675 C667 1.433 . S
C675 N677 1.384 . S
N676 C672 1.427 . S
N676 C673 1.384 . S
N677 C669 1.427 . S
N677 C675 1.384 . S
H678 C684 0.930 . S
H679 C688 0.930 . S
H680 C693 0.929 . S
H681 C691 0.929 . S
H682 C686 0.929 . S
H683 C692 0.929 . S
C684 H678 0.930 . S
C684 C685 1.367 . S
C684 C692 1.378 . S
C685 C684 1.367 . S
C685 C693 1.433 . S
C686 H682 0.929 . S
C686 C688 1.378 . S
C686 C690 1.350 . S
C687 C690 1.463 . S
C687 C692 1.350 . S
C687 N695 1.427 . S
C688 H679 0.930 . S
C688 C686 1.378 . S
C688 C689 1.367 . S
C689 C688 1.367 . S
C689 C691 1.433 . S
C690 C686 1.350 . S
C690 C687 1.463 . S
C690 N694 1.427 . S
C691 H681 0.929 . S
C691 C689 1.433 . S
C691 N694 1.384 . S
C692 H683 0.929 . S
C692 C684 1.378 . S
C692 C687 1.350 . S
C693 H680 0.929 . S
C693 C685 1.433 . S
C693 N695 1.384 . S
N694 C690 1.427 . S
N694 C691 1.384 . S
N695 C687 1.427 . S
N695 C693 1.384 . S
H696 C702 0.930 . S
H697 C706 0.930 . S
H698 C711 0.929 . S
H699 C709 0.929 . S
H700 C704 0.929 . S
H701 C710 0.929 . S
C702 H696 0.930 . S
C702 C703 1.367 . S
C702 C710 1.378 . S
C703 C702 1.367 . S
C703 C711 1.433 . S
C704 H700 0.929 . S
C704 C706 1.378 . S
C704 C708 1.350 . S
C705 C708 1.463 . S
C705 C710 1.350 . S
C705 N713 1.427 . S
C706 H697 0.930 . S
C706 C704 1.378 . S
C706 C707 1.367 . S
C707 C706 1.367 . S
C707 C709 1.433 . S
C708 C704 1.350 . S
C708 C705 1.463 . S
C708 N712 1.427 . S
C709 H699 0.929 . S
C709 C707 1.433 . S
C709 N712 1.384 . S
C710 H701 0.929 . S
C710 C702 1.378 . S
C710 C705 1.350 . S
C711 H698 0.929 . S
C711 C703 1.433 . S
C711 N713 1.384 . S
N712 C708 1.427 . S
N712 C709 1.384 . S
N713 C705 1.427 . S
N713 C711 1.384 . S
H714 C720 0.930 . S
H715 C724 0.930 . S
H716 C729 0.929 . S
H717 C727 0.929 . S
H718 C722 0.929 . S
H719 C728 0.929 . S
C720 H714 0.930 . S
C720 C721 1.367 . S
C720 C728 1.378 . S
C721 C720 1.367 . S
C721 C729 1.433 . S
C722 H718 0.929 . S
C722 C724 1.378 . S
C722 C726 1.350 . S
C723 C726 1.463 . S
C723 C728 1.350 . S
C723 N731 1.427 . S
C724 H715 0.930 . S
C724 C722 1.378 . S
C724 C725 1.367 . S
C725 C724 1.367 . S
C725 C727 1.433 . S
C726 C722 1.350 . S
C726 C723 1.463 . S
C726 N730 1.427 . S
C727 H717 0.929 . S
C727 C725 1.433 . S
C727 N730 1.384 . S
C728 H719 0.929 . S
C728 C720 1.378 . S
C728 C723 1.350 . S
C729 H716 0.929 . S
C729 C721 1.433 . S
C729 N731 1.384 . S
N730 C726 1.427 . S
N730 C727 1.384 . S
N731 C723 1.427 . S
N731 C729 1.384 . S
H732 C738 0.930 . S
H733 C742 0.930 . S
H734 C747 0.929 . S
H735 C745 0.929 . S
H736 C740 0.929 . S
H737 C746 0.929 . S
C738 H732 0.930 . S
C738 C739 1.367 . S
C738 C746 1.378 . S
C739 C738 1.367 . S
C739 C747 1.433 . S
C740 H736 0.929 . S
C740 C742 1.378 . S
C740 C744 1.350 . S
C741 C744 1.463 . S
C741 C746 1.350 . S
C741 N749 1.427 . S
C742 H733 0.930 . S
C742 C740 1.378 . S
C742 C743 1.367 . S
C743 C742 1.367 . S
C743 C745 1.433 . S
C744 C740 1.350 . S
C744 C741 1.463 . S
C744 N748 1.427 . S
C745 H735 0.929 . S
C745 C743 1.433 . S
C745 N748 1.384 . S
C746 H737 0.929 . S
C746 C738 1.378 . S
C746 C741 1.350 . S
C747 H734 0.929 . S
C747 C739 1.433 . S
C747 N749 1.384 . S
N748 C744 1.427 . S
N748 C745 1.384 . S
N749 C741 1.427 . S
N749 C747 1.384 . S
H750 C756 0.930 . S
H751 C760 0.930 . S
H752 C765 0.929 . S
H753 C763 0.929 . S
H754 C758 0.929 . S
H755 C764 0.929 . S
C756 H750 0.930 . S
C756 C757 1.367 . S
C756 C764 1.378 . S
C757 C756 1.367 . S
C757 C765 1.433 . S
C758 H754 0.929 . S
C758 C760 1.378 . S
C758 C762 1.350 . S
C759 C762 1.463 . S
C759 C764 1.350 . S
C759 N767 1.427 . S
C760 H751 0.930 . S
C760 C758 1.378 . S
C760 C761 1.367 . S
C761 C760 1.367 . S
C761 C763 1.433 . S
C762 C758 1.350 . S
C762 C759 1.463 . S
C762 N766 1.427 . S
C763 H753 0.929 . S
C763 C761 1.433 . S
C763 N766 1.384 . S
C764 H755 0.929 . S
C764 C756 1.378 . S
C764 C759 1.350 . S
C765 H752 0.929 . S
C765 C757 1.433 . S
C765 N767 1.384 . S
N766 C762 1.427 . S
N766 C763 1.384 . S
N767 C759 1.427 . S
N767 C765 1.384 . S
H768 C774 0.930 . S
H769 C778 0.930 . S
H770 C783 0.929 . S
H771 C781 0.929 . S
H772 C776 0.929 . S
H773 C782 0.929 . S
C774 H768 0.930 . S
C774 C775 1.367 . S
C774 C782 1.378 . S
C775 C774 1.367 . S
C775 C783 1.433 . S
C776 H772 0.929 . S
C776 C778 1.378 . S
C776 C780 1.350 . S
C777 C780 1.463 . S
C777 C782 1.350 . S
C777 N785 1.427 . S
C778 H769 0.930 . S
C778 C776 1.378 . S
C778 C779 1.367 . S
C779 C778 1.367 . S
C779 C781 1.433 . S
C780 C776 1.350 . S
C780 C777 1.463 . S
C780 N784 1.427 . S
C781 H771 0.929 . S
C781 C779 1.433 . S
C781 N784 1.384 . S
C782 H773 0.929 . S
C782 C774 1.378 . S
C782 C777 1.350 . S
C783 H770 0.929 . S
C783 C775 1.433 . S
C783 N785 1.384 . S
N784 C780 1.427 . S
N784 C781 1.384 . S
N785 C777 1.427 . S
N785 C783 1.384 . S
H786 C792 0.930 . S
H787 C796 0.930 . S
H788 C801 0.929 . S
H789 C799 0.929 . S
H790 C794 0.929 . S
H791 C800 0.929 . S
C792 H786 0.930 . S
C792 C793 1.367 . S
C792 C800 1.378 . S
C793 C792 1.367 . S
C793 C801 1.433 . S
C794 H790 0.929 . S
C794 C796 1.378 . S
C794 C798 1.350 . S
C795 C798 1.463 . S
C795 C800 1.350 . S
C795 N803 1.427 . S
C796 H787 0.930 . S
C796 C794 1.378 . S
C796 C797 1.367 . S
C797 C796 1.367 . S
C797 C799 1.433 . S
C798 C794 1.350 . S
C798 C795 1.463 . S
C798 N802 1.427 . S
C799 H789 0.929 . S
C799 C797 1.433 . S
C799 N802 1.384 . S
C800 H791 0.929 . S
C800 C792 1.378 . S
C800 C795 1.350 . S
C801 H788 0.929 . S
C801 C793 1.433 . S
C801 N803 1.384 . S
N802 C798 1.427 . S
N802 C799 1.384 . S
N803 C795 1.427 . S
N803 C801 1.384 . S
H804 C810 0.930 . S
H805 C814 0.930 . S
H806 C819 0.929 . S
H807 C817 0.929 . S
H808 C812 0.929 . S
H809 C818 0.929 . S
C810 H804 0.930 . S
C810 C811 1.367 . S
C810 C818 1.378 . S
C811 C810 1.367 . S
C811 C819 1.433 . S
C812 H808 0.929 . S
C812 C814 1.378 . S
C812 C816 1.350 . S
C813 C816 1.463 . S
C813 C818 1.350 . S
C813 N821 1.427 . S
C814 H805 0.930 . S
C814 C812 1.378 . S
C814 C815 1.367 . S
C815 C814 1.367 . S
C815 C817 1.433 . S
C816 C812 1.350 . S
C816 C813 1.463 . S
C816 N820 1.427 . S
C817 H807 0.929 . S
C817 C815 1.433 . S
C817 N820 1.384 . S
C818 H809 0.929 . S
C818 C810 1.378 . S
C818 C813 1.350 . S
C819 H806 0.929 . S
C819 C811 1.433 . S
C819 N821 1.384 . S
N820 C816 1.427 . S
N820 C817 1.384 . S
N821 C813 1.427 . S
N821 C819 1.384 . S
H822 C828 0.930 . S
H823 C832 0.930 . S
H824 C837 0.929 . S
H825 C835 0.929 . S
H826 C830 0.929 . S
H827 C836 0.929 . S
C828 H822 0.930 . S
C828 C829 1.367 . S
C828 C836 1.378 . S
C829 C828 1.367 . S
C829 C837 1.433 . S
C830 H826 0.929 . S
C830 C832 1.378 . S
C830 C834 1.350 . S
C831 C834 1.463 . S
C831 C836 1.350 . S
C831 N839 1.427 . S
C832 H823 0.930 . S
C832 C830 1.378 . S
C832 C833 1.367 . S
C833 C832 1.367 . S
C833 C835 1.433 . S
C834 C830 1.350 . S
C834 C831 1.463 . S
C834 N838 1.427 . S
C835 H825 0.929 . S
C835 C833 1.433 . S
C835 N838 1.384 . S
C836 H827 0.929 . S
C836 C828 1.378 . S
C836 C831 1.350 . S
C837 H824 0.929 . S
C837 C829 1.433 . S
C837 N839 1.384 . S
N838 C834 1.427 . S
N838 C835 1.384 . S
N839 C831 1.427 . S
N839 C837 1.384 . S
H840 C846 0.930 . S
H841 C850 0.930 . S
H842 C855 0.929 . S
H843 C853 0.929 . S
H844 C848 0.929 . S
H845 C854 0.929 . S
C846 H840 0.930 . S
C846 C847 1.367 . S
C846 C854 1.378 . S
C847 C846 1.367 . S
C847 C855 1.433 . S
C848 H844 0.929 . S
C848 C850 1.378 . S
C848 C852 1.350 . S
C849 C852 1.463 . S
C849 C854 1.350 . S
C849 N857 1.427 . S
C850 H841 0.930 . S
C850 C848 1.378 . S
C850 C851 1.367 . S
C851 C850 1.367 . S
C851 C853 1.433 . S
C852 C848 1.350 . S
C852 C849 1.463 . S
C852 N856 1.427 . S
C853 H843 0.929 . S
C853 C851 1.433 . S
C853 N856 1.384 . S
C854 H845 0.929 . S
C854 C846 1.378 . S
C854 C849 1.350 . S
C855 H842 0.929 . S
C855 C847 1.433 . S
C855 N857 1.384 . S
N856 C852 1.427 . S
N856 C853 1.384 . S
N857 C849 1.427 . S
N857 C855 1.384 . S
H858 C864 0.930 . S
H859 C868 0.930 . S
H860 C873 0.929 . S
H861 C871 0.929 . S
H862 C866 0.929 . S
H863 C872 0.929 . S
C864 H858 0.930 . S
C864 C865 1.367 . S
C864 C872 1.378 . S
C865 C864 1.367 . S
C865 C873 1.433 . S
C866 H862 0.929 . S
C866 C868 1.378 . S
C866 C870 1.350 . S
C867 C870 1.463 . S
C867 C872 1.350 . S
C867 N875 1.427 . S
C868 H859 0.930 . S
C868 C866 1.378 . S
C868 C869 1.367 . S
C869 C868 1.367 . S
C869 C871 1.433 . S
C870 C866 1.350 . S
C870 C867 1.463 . S
C870 N874 1.427 . S
C871 H861 0.929 . S
C871 C869 1.433 . S
C871 N874 1.384 . S
C872 H863 0.929 . S
C872 C864 1.378 . S
C872 C867 1.350 . S
C873 H860 0.929 . S
C873 C865 1.433 . S
C873 N875 1.384 . S
N874 C870 1.427 . S
N874 C871 1.384 . S
N875 C867 1.427 . S
N875 C873 1.384 . S
H876 C882 0.930 . S
H877 C886 0.930 . S
H878 C891 0.929 . S
H879 C889 0.929 . S
H880 C884 0.929 . S
H881 C890 0.929 . S
C882 H876 0.930 . S
C882 C883 1.367 . S
C882 C890 1.378 . S
C883 C882 1.367 . S
C883 C891 1.433 . S
C884 H880 0.929 . S
C884 C886 1.378 . S
C884 C888 1.350 . S
C885 C888 1.463 . S
C885 C890 1.350 . S
C885 N893 1.427 . S
C886 H877 0.930 . S
C886 C884 1.378 . S
C886 C887 1.367 . S
C887 C886 1.367 . S
C887 C889 1.433 . S
C888 C884 1.350 . S
C888 C885 1.463 . S
C888 N892 1.427 . S
C889 H879 0.929 . S
C889 C887 1.433 . S
C889 N892 1.384 . S
C890 H881 0.929 . S
C890 C882 1.378 . S
C890 C885 1.350 . S
C891 H878 0.929 . S
C891 C883 1.433 . S
C891 N893 1.384 . S
N892 C888 1.427 . S
N892 C889 1.384 . S
N893 C885 1.427 . S
N893 C891 1.384 . S
H894 C900 0.930 . S
H895 C904 0.930 . S
H896 C909 0.929 . S
H897 C907 0.929 . S
H898 C902 0.929 . S
H899 C908 0.929 . S
C900 H894 0.930 . S
C900 C901 1.367 . S
C900 C908 1.378 . S
C901 C900 1.367 . S
C901 C909 1.433 . S
C902 H898 0.929 . S
C902 C904 1.378 . S
C902 C906 1.350 . S
C903 C906 1.463 . S
C903 C908 1.350 . S
C903 N911 1.427 . S
C904 H895 0.930 . S
C904 C902 1.378 . S
C904 C905 1.367 . S
C905 C904 1.367 . S
C905 C907 1.433 . S
C906 C902 1.350 . S
C906 C903 1.463 . S
C906 N910 1.427 . S
C907 H897 0.929 . S
C907 C905 1.433 . S
C907 N910 1.384 . S
C908 H899 0.929 . S
C908 C900 1.378 . S
C908 C903 1.350 . S
C909 H896 0.929 . S
C909 C901 1.433 . S
C909 N911 1.384 . S
N910 C906 1.427 . S
N910 C907 1.384 . S
N911 C903 1.427 . S
N911 C909 1.384 . S
H912 C918 0.930 . S
H913 C922 0.930 . S
H914 C927 0.929 . S
H915 C925 0.929 . S
H916 C920 0.929 . S
H917 C926 0.929 . S
C918 H912 0.930 . S
C918 C919 1.367 . S
C918 C926 1.378 . S
C919 C918 1.367 . S
C919 C927 1.433 . S
C920 H916 0.929 . S
C920 C922 1.378 . S
C920 C924 1.350 . S
C921 C924 1.463 . S
C921 C926 1.350 . S
C921 N929 1.427 . S
C922 H913 0.930 . S
C922 C920 1.378 . S
C922 C923 1.367 . S
C923 C922 1.367 . S
C923 C925 1.433 . S
C924 C920 1.350 . S
C924 C921 1.463 . S
C924 N928 1.427 . S
C925 H915 0.929 . S
C925 C923 1.433 . S
C925 N928 1.384 . S
C926 H917 0.929 . S
C926 C918 1.378 . S
C926 C921 1.350 . S
C927 H914 0.929 . S
C927 C919 1.433 . S
C927 N929 1.384 . S
N928 C924 1.427 . S
N928 C925 1.384 . S
N929 C921 1.427 . S
N929 C927 1.384 . S
H930 C936 0.930 . S
H931 C940 0.930 . S
H932 C945 0.929 . S
H933 C943 0.929 . S
H934 C938 0.929 . S
H935 C944 0.929 . S
C936 H930 0.930 . S
C936 C937 1.367 . S
C936 C944 1.378 . S
C937 C936 1.367 . S
C937 C945 1.433 . S
C938 H934 0.929 . S
C938 C940 1.378 . S
C938 C942 1.350 . S
C939 C942 1.463 . S
C939 C944 1.350 . S
C939 N947 1.427 . S
C940 H931 0.930 . S
C940 C938 1.378 . S
C940 C941 1.367 . S
C941 C940 1.367 . S
C941 C943 1.433 . S
C942 C938 1.350 . S
C942 C939 1.463 . S
C942 N946 1.427 . S
C943 H933 0.929 . S
C943 C941 1.433 . S
C943 N946 1.384 . S
C944 H935 0.929 . S
C944 C936 1.378 . S
C944 C939 1.350 . S
C945 H932 0.929 . S
C945 C937 1.433 . S
C945 N947 1.384 . S
N946 C942 1.427 . S
N946 C943 1.384 . S
N947 C939 1.427 . S
N947 C945 1.384 . S
H948 C954 0.930 . S
H949 C958 0.930 . S
H950 C963 0.929 . S
H951 C961 0.929 . S
H952 C956 0.929 . S
H953 C962 0.929 . S
C954 H948 0.930 . S
C954 C955 1.367 . S
C954 C962 1.378 . S
C955 C954 1.367 . S
C955 C963 1.433 . S
C956 H952 0.929 . S
C956 C958 1.378 . S
C956 C960 1.350 . S
C957 C960 1.463 . S
C957 C962 1.350 . S
C957 N965 1.427 . S
C958 H949 0.930 . S
C958 C956 1.378 . S
C958 C959 1.367 . S
C959 C958 1.367 . S
C959 C961 1.433 . S
C960 C956 1.350 . S
C960 C957 1.463 . S
C960 N964 1.427 . S
C961 H951 0.929 . S
C961 C959 1.433 . S
C961 N964 1.384 . S
C962 H953 0.929 . S
C962 C954 1.378 . S
C962 C957 1.350 . S
C963 H950 0.929 . S
C963 C955 1.433 . S
C963 N965 1.384 . S
N964 C960 1.427 . S
N964 C961 1.384 . S
N965 C957 1.427 . S
N965 C963 1.384 . S
H966 C972 0.930 . S
H967 C976 0.930 . S
H968 C981 0.929 . S
H969 C979 0.929 . S
H970 C974 0.929 . S
H971 C980 0.929 . S
C972 H966 0.930 . S
C972 C973 1.367 . S
C972 C980 1.378 . S
C973 C972 1.367 . S
C973 C981 1.433 . S
C974 H970 0.929 . S
C974 C976 1.378 . S
C974 C978 1.350 . S
C975 C978 1.463 . S
C975 C980 1.350 . S
C975 N983 1.427 . S
C976 H967 0.930 . S
C976 C974 1.378 . S
C976 C977 1.367 . S
C977 C976 1.367 . S
C977 C979 1.433 . S
C978 C974 1.350 . S
C978 C975 1.463 . S
C978 N982 1.427 . S
C979 H969 0.929 . S
C979 C977 1.433 . S
C979 N982 1.384 . S
C980 H971 0.929 . S
C980 C972 1.378 . S
C980 C975 1.350 . S
C981 H968 0.929 . S
C981 C973 1.433 . S
C981 N983 1.384 . S
N982 C978 1.427 . S
N982 C979 1.384 . S
N983 C975 1.427 . S
N983 C981 1.384 . S
H984 C990 0.930 . S
H985 C994 0.930 . S
H986 C999 0.929 . S
H987 C997 0.929 . S
H988 C992 0.929 . S
H989 C998 0.929 . S
C990 H984 0.930 . S
C990 C991 1.367 . S
C990 C998 1.378 . S
C991 C990 1.367 . S
C991 C999 1.433 . S
C992 H988 0.929 . S
C992 C994 1.378 . S
C992 C996 1.350 . S
C993 C996 1.463 . S
C993 C998 1.350 . S
C993 N1001 1.427 . S
C994 H985 0.930 . S
C994 C992 1.378 . S
C994 C995 1.367 . S
C995 C994 1.367 . S
C995 C997 1.433 . S
C996 C992 1.350 . S
C996 C993 1.463 . S
C996 N1000 1.427 . S
C997 H987 0.929 . S
C997 C995 1.433 . S
C997 N1000 1.384 . S
C998 H989 0.929 . S
C998 C990 1.378 . S
C998 C993 1.350 . S
C999 H986 0.929 . S
C999 C991 1.433 . S
C999 N1001 1.384 . S
N1000 C996 1.427 . S
N1000 C997 1.384 . S
N1001 C993 1.427 . S
N1001 C999 1.384 . S
H1002 C1008 0.930 . S
H1003 C1012 0.930 . S
H1004 C1017 0.929 . S
H1005 C1015 0.929 . S
H1006 C1010 0.929 . S
H1007 C1016 0.929 . S
C1008 H1002 0.930 . S
C1008 C1009 1.367 . S
C1008 C1016 1.378 . S
C1009 C1008 1.367 . S
C1009 C1017 1.433 . S
C1010 H1006 0.929 . S
C1010 C1012 1.378 . S
C1010 C1014 1.350 . S
C1011 C1014 1.463 . S
C1011 C1016 1.350 . S
C1011 N1019 1.427 . S
C1012 H1003 0.930 . S
C1012 C1010 1.378 . S
C1012 C1013 1.367 . S
C1013 C1012 1.367 . S
C1013 C1015 1.433 . S
C1014 C1010 1.350 . S
C1014 C1011 1.463 . S
C1014 N1018 1.427 . S
C1015 H1005 0.929 . S
C1015 C1013 1.433 . S
C1015 N1018 1.384 . S
C1016 H1007 0.929 . S
C1016 C1008 1.378 . S
C1016 C1011 1.350 . S
C1017 H1004 0.929 . S
C1017 C1009 1.433 . S
C1017 N1019 1.384 . S
N1018 C1014 1.427 . S
N1018 C1015 1.384 . S
N1019 C1011 1.427 . S
N1019 C1017 1.384 . S
H1020 C1026 0.930 . S
H1021 C1030 0.930 . S
H1022 C1035 0.929 . S
H1023 C1033 0.929 . S
H1024 C1028 0.929 1_556 S
H1025 C1034 0.929 1_554 S
C1026 H1020 0.930 . S
C1026 C1027 1.367 . S
C1026 C1034 1.378 . S
C1027 C1026 1.367 . S
C1027 C1035 1.433 . S
C1028 H1024 0.929 1_554 S
C1028 C1030 1.378 . S
C1028 C1032 1.350 . S
C1029 C1032 1.463 1_556 S
C1029 C1034 1.350 . S
C1029 N1037 1.427 . S
C1030 H1021 0.930 . S
C1030 C1028 1.378 . S
C1030 C1031 1.367 . S
C1031 C1030 1.367 . S
C1031 C1033 1.433 . S
C1032 C1028 1.350 . S
C1032 C1029 1.463 1_554 S
C1032 N1036 1.427 . S
C1033 H1023 0.929 . S
C1033 C1031 1.433 . S
C1033 N1036 1.384 . S
C1034 H1025 0.929 1_556 S
C1034 C1026 1.378 . S
C1034 C1029 1.350 . S
C1035 H1022 0.929 . S
C1035 C1027 1.433 . S
C1035 N1037 1.384 . S
N1036 C1032 1.427 . S
N1036 C1033 1.384 . S
N1037 C1029 1.427 . S
N1037 C1035 1.384 . S
H1038 C1044 0.930 . S
H1039 C1048 0.930 . S
H1040 C1053 0.929 . S
H1041 C1051 0.929 . S
H1042 C1046 0.929 1_455 S
H1043 C1052 0.929 1_655 S
C1044 H1038 0.930 . S
C1044 C1045 1.367 . S
C1044 C1052 1.378 . S
C1045 C1044 1.367 . S
C1045 C1053 1.433 . S
C1046 H1042 0.929 1_655 S
C1046 C1048 1.378 . S
C1046 C1050 1.350 . S
C1047 C1050 1.463 1_455 S
C1047 C1052 1.350 . S
C1047 N1055 1.427 . S
C1048 H1039 0.930 . S
C1048 C1046 1.378 . S
C1048 C1049 1.367 . S
C1049 C1048 1.367 . S
C1049 C1051 1.433 . S
C1050 C1046 1.350 . S
C1050 C1047 1.463 1_655 S
C1050 N1054 1.427 . S
C1051 H1041 0.929 . S
C1051 C1049 1.433 . S
C1051 N1054 1.384 . S
C1052 H1043 0.929 1_455 S
C1052 C1044 1.378 . S
C1052 C1047 1.350 . S
C1053 H1040 0.929 . S
C1053 C1045 1.433 . S
C1053 N1055 1.384 . S
N1054 C1050 1.427 . S
N1054 C1051 1.384 . S
N1055 C1047 1.427 . S
N1055 C1053 1.384 . S
H1056 C1062 0.930 . S
H1057 C1066 0.930 . S
H1058 C1071 0.929 . S
H1059 C1069 0.929 . S
H1060 C1064 0.929 1_565 S
H1061 C1070 0.929 1_545 S
C1062 H1056 0.930 . S
C1062 C1063 1.367 . S
C1062 C1070 1.378 . S
C1063 C1062 1.367 . S
C1063 C1071 1.433 . S
C1064 H1060 0.929 1_545 S
C1064 C1066 1.378 . S
C1064 C1068 1.350 . S
C1065 C1068 1.463 1_564 S
C1065 C1070 1.350 . S
C1065 N1073 1.411 1_554 S
C1066 H1057 0.930 . S
C1066 C1064 1.378 . S
C1066 C1067 1.367 . S
C1067 C1066 1.367 . S
C1067 C1069 1.433 . S
C1068 C1064 1.350 . S
C1068 C1065 1.463 1_546 S
C1068 N1072 1.411 1_556 S
C1069 H1059 0.929 . S
C1069 C1067 1.433 . S
C1069 N1072 1.357 1_556 S
C1070 H1061 0.929 1_565 S
C1070 C1062 1.378 . S
C1070 C1065 1.350 . S
C1071 H1058 0.929 . S
C1071 C1063 1.433 . S
C1071 N1073 1.357 1_554 S
N1072 C1068 1.411 1_554 S
N1072 C1069 1.357 1_554 S
N1073 C1065 1.411 1_556 S
N1073 C1071 1.357 1_556 S
H1074 C1080 0.930 . S
H1075 C1084 0.930 . S
H1076 C1089 0.929 . S
H1077 C1087 0.929 . S
H1078 C1082 0.929 . S
H1079 C1088 0.929 . S
C1080 H1074 0.930 . S
C1080 C1081 1.367 . S
C1080 C1088 1.378 . S
C1081 C1080 1.367 . S
C1081 C1089 1.433 . S
C1082 H1078 0.929 . S
C1082 C1084 1.378 . S
C1082 C1086 1.350 . S
C1083 C1086 1.463 . S
C1083 C1088 1.350 . S
C1083 N1091 1.427 . S
C1084 H1075 0.930 . S
C1084 C1082 1.378 . S
C1084 C1085 1.367 . S
C1085 C1084 1.367 . S
C1085 C1087 1.433 . S
C1086 C1082 1.350 . S
C1086 C1083 1.463 . S
C1086 N1090 1.427 . S
C1087 H1077 0.929 . S
C1087 C1085 1.433 . S
C1087 N1090 1.384 . S
C1088 H1079 0.929 . S
C1088 C1080 1.378 . S
C1088 C1083 1.350 . S
C1089 H1076 0.929 . S
C1089 C1081 1.433 . S
C1089 N1091 1.384 . S
N1090 C1086 1.427 . S
N1090 C1087 1.384 . S
N1091 C1083 1.427 . S
N1091 C1089 1.384 . S
H1092 C1098 0.930 . S
H1093 C1102 0.930 . S
H1094 C1107 0.929 . S
H1095 C1105 0.929 . S
H1096 C1100 0.929 . S
H1097 C1106 0.929 . S
C1098 H1092 0.930 . S
C1098 C1099 1.367 . S
C1098 C1106 1.378 . S
C1099 C1098 1.367 . S
C1099 C1107 1.433 . S
C1100 H1096 0.929 . S
C1100 C1102 1.378 . S
C1100 C1104 1.350 . S
C1101 C1104 1.463 1_656 S
C1101 C1106 1.350 . S
C1101 N1109 1.427 . S
C1102 H1093 0.930 . S
C1102 C1100 1.378 . S
C1102 C1103 1.367 . S
C1103 C1102 1.367 . S
C1103 C1105 1.433 . S
C1104 C1100 1.350 . S
C1104 C1101 1.463 1_454 S
C1104 N1108 1.427 . S
C1105 H1095 0.929 . S
C1105 C1103 1.433 . S
C1105 N1108 1.384 . S
C1106 H1097 0.929 . S
C1106 C1098 1.378 . S
C1106 C1101 1.350 . S
C1107 H1094 0.929 . S
C1107 C1099 1.433 . S
C1107 N1109 1.384 . S
N1108 C1104 1.427 . S
N1108 C1105 1.384 . S
N1109 C1101 1.427 . S
N1109 C1107 1.384 . S
H1110 C1116 0.930 . S
H1111 C1120 0.930 . S
H1112 C1125 0.929 . S
H1113 C1123 0.929 . S
H1114 C1118 0.929 1_565 S
H1115 C1124 0.929 1_545 S
C1116 H1110 0.930 . S
C1116 C1117 1.367 . S
C1116 C1124 1.378 . S
C1117 C1116 1.367 . S
C1117 C1125 1.433 . S
C1118 H1114 0.929 1_545 S
C1118 C1120 1.378 . S
C1118 C1122 1.350 . S
C1119 C1122 1.463 1_565 S
C1119 C1124 1.350 . S
C1119 N1127 1.427 . S
C1120 H1111 0.930 . S
C1120 C1118 1.378 . S
C1120 C1121 1.367 . S
C1121 C1120 1.367 . S
C1121 C1123 1.433 . S
C1122 C1118 1.350 . S
C1122 C1119 1.463 1_545 S
C1122 N1126 1.427 . S
C1123 H1113 0.929 . S
C1123 C1121 1.433 . S
C1123 N1126 1.384 . S
C1124 H1115 0.929 1_565 S
C1124 C1116 1.378 . S
C1124 C1119 1.350 . S
C1125 H1112 0.929 . S
C1125 C1117 1.433 . S
C1125 N1127 1.384 . S
N1126 C1122 1.427 . S
N1126 C1123 1.384 . S
N1127 C1119 1.427 . S
N1127 C1125 1.384 . S
C487 C169 1.257 . S
C491 C5 1.288 . S
C505 C209 1.255 . S
C509 C45 1.287 . S
C523 C85 1.288 . S
C527 C9 1.257 . S
C541 C125 1.283 . S
C545 C49 1.247 . S
C559 C165 1.283 . S
C563 C89 1.247 . S
C577 C129 1.254 . S
C581 C205 1.286 . S
C595 C329 1.241 . S
C599 C245 1.280 . S
C613 C285 1.282 . S
C617 C369 1.246 . S
C631 C409 1.257 . S
C635 C325 1.287 . S
C649 C365 1.287 . S
C653 C449 1.257 . S
C667 C405 1.282 . S
C671 C249 1.245 . S
C685 C289 1.241 . S
C689 C445 1.280 . S
C703 C179 1.691 . S
C707 C15 1.694 . S
C721 C55 1.698 . S
C725 C219 1.692 . S
C739 C95 1.699 . S
C743 C19 1.694 . S
C757 C135 1.699 . S
C761 C59 1.699 . S
C775 C99 1.699 . S
C779 C175 1.702 . S
C793 C139 1.696 . S
C797 C215 1.701 . S
C811 C339 1.696 . S
C815 C255 1.701 . S
C829 C295 1.696 . S
C833 C379 1.691 . S
C847 C335 1.698 . S
C851 C419 1.693 . S
C865 C459 1.692 . S
C869 C375 1.697 . S
C883 C415 1.695 . S
C887 C259 1.691 . S
C901 C299 1.691 . S
C905 C455 1.695 . S
C919 C408 1.608 . S
C923 C8 1.611 . S
C937 C48 1.621 . S
C941 C448 1.615 . S
C955 C88 1.622 . S
C959 C248 1.626 . S
C973 C128 1.621 . S
C977 C288 1.625 . S
C991 C168 1.613 . S
C995 C328 1.608 . S
C1009 C368 1.615 . S
C1013 C208 1.610 . S
C1027 C378 2.151 . S
C1031 C18 2.149 . S
C1045 C418 2.147 . S
C1049 C58 2.148 . S
C1063 C98 2.148 . S
C1067 C458 2.147 . S
C1081 C138 2.150 . S
C1085 C258 2.147 . S
C1099 C298 2.150 . S
C1103 C178 2.147 . S
C1117 C338 2.147 . S
C1121 C218 2.149 . S
