# Generated by pormake.
# Topology uog, (4)-cn, num edge types: 1
# Building blocks:
#     Node 0, Type 0, BuildingBlock: KUFVIS_clean_sbu_0, # of connection points: 4
#     Node 1, Type 0, BuildingBlock: KUFVIS_clean_sbu_0, # of connection points: 4
#     Node 2, Type 0, BuildingBlock: KUFVIS_clean_sbu_0, # of connection points: 4
#     Node 3, Type 0, BuildingBlock: KUFVIS_clean_sbu_0, # of connection points: 4
#     Node 4, Type 0, BuildingBlock: KUFVIS_clean_sbu_0, # of connection points: 4
#     Node 5, Type 0, BuildingBlock: KUFVIS_clean_sbu_0, # of connection points: 4
#     Edge 6, Type (0, 0), BuildingBlock: FUNLAD_clean_linker_1, # of connection points: 2
#     Edge 7, Type (0, 0), BuildingBlock: FUNLAD_clean_linker_1, # of connection points: 2
#     Edge 8, Type (0, 0), BuildingBlock: FUNLAD_clean_linker_1, # of connection points: 2
#     Edge 9, Type (0, 0), BuildingBlock: FUNLAD_clean_linker_1, # of connection points: 2
#     Edge 10, Type (0, 0), BuildingBlock: FUNLAD_clean_linker_1, # of connection points: 2
#     Edge 11, Type (0, 0), BuildingBlock: FUNLAD_clean_linker_1, # of connection points: 2
#     Edge 12, Type (0, 0), BuildingBlock: FUNLAD_clean_linker_1, # of connection points: 2
#     Edge 13, Type (0, 0), BuildingBlock: FUNLAD_clean_linker_1, # of connection points: 2
#     Edge 14, Type (0, 0), BuildingBlock: FUNLAD_clean_linker_1, # of connection points: 2
#     Edge 15, Type (0, 0), BuildingBlock: FUNLAD_clean_linker_1, # of connection points: 2
#     Edge 16, Type (0, 0), BuildingBlock: FUNLAD_clean_linker_1, # of connection points: 2
#     Edge 17, Type (0, 0), BuildingBlock: FUNLAD_clean_linker_1, # of connection points: 2
# Relax obj value: 0.108
# Max RMSD: 0.206
# Mean RMSD: 0.204
data_MOF--net-uog--node1-KUFVIS_clean_sbu_0--edge1-FUNLAD_clean_linker_1
_symmetry_space_group_name_H-M    P1
_symmetry_Int_Tables_number       1
_symmetry_cell_setting            triclinic
loop_
_symmetry_equiv_pos_as_xyz
'x, y, z'
_cell_length_a     29.887825
_cell_length_b     29.432612
_cell_length_c     43.255159
_cell_angle_alpha  90.059667
_cell_angle_beta   90.14525
_cell_angle_gamma 119.79644
loop_
_atom_site_label
_atom_site_type_symbol
_atom_site_fract_x
_atom_site_fract_y
_atom_site_fract_z
_atom_type_partial_charge
Mn0 Mn 0.60563 0.31648 0.1517 0.0
Mn1 Mn 0.71868 0.42983 0.15739 0.0
C2 C 0.65051 0.35847 0.10746 0.0
C3 C 0.56285 0.22453 0.1523 0.0
C4 C 0.61463 0.4239 0.16287 0.0
O5 O 0.62388 0.3187 0.1971 0.0
O6 O 0.70092 0.39262 0.19746 0.0
C7 C 0.78538 0.38311 0.16707 0.0
N8 N 0.77371 0.4156 0.15093 0.0
C9 C 0.85058 0.44753 0.1204 0.0
C10 C 0.86356 0.41451 0.13671 0.0
C11 C 0.83056 0.38182 0.15997 0.0
C12 C 0.80426 0.44591 0.12787 0.0
H13 H 0.76057 0.35862 0.18533 0.0
C14 C 0.66501 0.3522 0.21066 0.0
O15 O 0.53856 0.24987 0.15837 0.0
O16 O 0.61137 0.25242 0.14583 0.0
N17 N 0.74251 0.47122 0.1207 0.0
C18 C 0.72459 0.50106 0.10739 0.0
C19 C 0.7541 0.53755 0.08455 0.0
C20 C 0.80215 0.54371 0.07605 0.0
C21 C 0.81963 0.51226 0.0899 0.0
C22 C 0.78836 0.47629 0.11233 0.0
H23 H 0.68861 0.4979 0.11464 0.0
O24 O 0.60189 0.32358 0.10623 0.0
O25 O 0.67206 0.36631 0.13453 0.0
O26 O 0.58634 0.3744 0.15858 0.0
O27 O 0.66387 0.44774 0.16358 0.0
C28 C 0.86713 0.51563 0.08259 0.0
C29 C 0.88219 0.48268 0.09745 0.0
H30 H 0.89885 0.41411 0.13166 0.0
H31 H 0.8403 0.35624 0.17267 0.0
H32 H 0.74026 0.56153 0.07389 0.0
H33 H 0.82501 0.57224 0.05864 0.0
H34 H 0.89235 0.54333 0.06549 0.0
H35 H 0.91854 0.48528 0.0914 0.0
Mn36 Mn 0.34466 0.58734 0.48518 0.0
Mn37 Mn 0.31563 0.68503 0.48377 0.0
C38 C 0.34316 0.62444 0.43875 0.0
C39 C 0.4035 0.55814 0.49113 0.0
C40 C 0.23511 0.57082 0.4907 0.0
O41 O 0.35435 0.61146 0.52967 0.0
O42 O 0.33647 0.67732 0.52643 0.0
C43 C 0.42069 0.77331 0.49572 0.0
N44 N 0.37757 0.75023 0.47768 0.0
C45 C 0.41491 0.82088 0.44103 0.0
C46 C 0.45953 0.84565 0.45937 0.0
C47 C 0.46241 0.82176 0.48683 0.0
C48 C 0.3742 0.77308 0.45133 0.0
H49 H 0.42328 0.75477 0.51665 0.0
C50 C 0.3498 0.64848 0.54156 0.0
O51 O 0.35481 0.52769 0.49653 0.0
O52 O 0.4183 0.60585 0.48267 0.0
N53 N 0.29483 0.69758 0.44429 0.0
C54 C 0.25143 0.66601 0.42766 0.0
C55 C 0.24375 0.68296 0.39882 0.0
C56 C 0.28057 0.7322 0.38744 0.0
C57 C 0.3247 0.76419 0.40507 0.0
C58 C 0.32991 0.74564 0.43392 0.0
H59 H 0.22333 0.62783 0.4361 0.0
O60 O 0.33861 0.57822 0.43961 0.0
O61 O 0.34887 0.64797 0.46521 0.0
O62 O 0.26596 0.55268 0.48939 0.0
O63 O 0.24964 0.61956 0.48922 0.0
C64 C 0.36481 0.81266 0.39452 0.0
C65 C 0.40982 0.84104 0.41252 0.0
H66 H 0.49206 0.8827 0.45241 0.0
H67 H 0.49686 0.84045 0.50099 0.0
H68 H 0.20982 0.65787 0.38523 0.0
H69 H 0.275 0.74463 0.36489 0.0
H70 H 0.36195 0.8279 0.37227 0.0
H71 H 0.44075 0.87783 0.40391 0.0
Mn72 Mn 0.67542 0.29449 0.82564 0.0
Mn73 Mn 0.69881 0.4179 0.83718 0.0
C74 C 0.68163 0.32494 0.87525 0.0
C75 C 0.61299 0.20753 0.8161 0.0
C76 C 0.78242 0.39212 0.82036 0.0
O77 O 0.66372 0.3162 0.78364 0.0
O78 O 0.67407 0.3958 0.79402 0.0
C79 C 0.59032 0.39395 0.83345 0.0
N80 N 0.63558 0.41402 0.84939 0.0
C81 C 0.59961 0.43619 0.89268 0.0
C82 C 0.55272 0.41614 0.87663 0.0
C83 C 0.54803 0.39482 0.84692 0.0
C84 C 0.64034 0.43416 0.87809 0.0
H85 H 0.58652 0.37726 0.81069 0.0
C86 C 0.66401 0.35788 0.77558 0.0
O87 O 0.66096 0.22473 0.80873 0.0
O88 O 0.60178 0.24053 0.82852 0.0
N89 N 0.72323 0.44585 0.87757 0.0
C90 C 0.77148 0.46478 0.88951 0.0
C91 C 0.78335 0.4894 0.91853 0.0
C92 C 0.74522 0.49331 0.93532 0.0
C93 C 0.69606 0.47431 0.92233 0.0
C94 C 0.68712 0.45201 0.89276 0.0
H95 H 0.80088 0.4618 0.87677 0.0
O96 O 0.68552 0.28368 0.86985 0.0
O97 O 0.67224 0.34594 0.85144 0.0
O98 O 0.75398 0.34211 0.81994 0.0
O99 O 0.76539 0.42363 0.82576 0.0
C100 C 0.65572 0.47703 0.93741 0.0
C101 C 0.60745 0.45777 0.92264 0.0
H102 H 0.52 0.41669 0.88694 0.0
H103 H 0.51189 0.37902 0.83445 0.0
H104 H 0.82184 0.50527 0.92793 0.0
H105 H 0.75429 0.51147 0.95798 0.0
H106 H 0.6614 0.49381 0.96037 0.0
H107 H 0.57665 0.45986 0.93452 0.0
Mn108 Mn 0.4259 0.7366 0.14765 0.0
Mn109 Mn 0.31189 0.62801 0.1599 0.0
C110 C 0.37253 0.69425 0.1057 0.0
C111 C 0.47038 0.82862 0.14845 0.0
C112 C 0.41492 0.62997 0.1606 0.0
O113 O 0.41694 0.73461 0.19421 0.0
O114 O 0.33409 0.67107 0.19817 0.0
C115 C 0.24719 0.67729 0.168 0.0
N116 N 0.25683 0.64216 0.15327 0.0
C117 C 0.17734 0.6069 0.12473 0.0
C118 C 0.16645 0.64269 0.13957 0.0
C119 C 0.20175 0.67832 0.16113 0.0
C120 C 0.22395 0.60882 0.13185 0.0
H121 H 0.27387 0.70408 0.18498 0.0
C122 C 0.37592 0.70791 0.20967 0.0
O123 O 0.4947 0.80251 0.15147 0.0
O124 O 0.42093 0.80145 0.14477 0.0
N125 N 0.28429 0.58152 0.12534 0.0
C126 C 0.3003 0.5491 0.11347 0.0
C127 C 0.26807 0.509 0.09299 0.0
C128 C 0.21945 0.50216 0.08525 0.0
C129 C 0.20415 0.53662 0.09727 0.0
C130 C 0.23786 0.57576 0.11764 0.0
H131 H 0.33673 0.55277 0.12024 0.0
O132 O 0.42079 0.72869 0.10176 0.0
O133 O 0.35659 0.68776 0.13412 0.0
O134 O 0.44342 0.67718 0.15129 0.0
O135 O 0.36677 0.60976 0.16639 0.0
C136 C 0.15646 0.53316 0.09025 0.0
C137 C 0.14343 0.56882 0.10357 0.0
H138 H 0.13102 0.64298 0.13471 0.0
H139 H 0.19361 0.70601 0.17271 0.0
H140 H 0.28024 0.48274 0.08366 0.0
H141 H 0.19436 0.47055 0.06988 0.0
H142 H 0.12953 0.50329 0.07457 0.0
H143 H 0.10686 0.56603 0.09779 0.0
Mn144 Mn 0.73818 0.41547 0.48358 0.0
Mn145 Mn 0.74076 0.30214 0.48485 0.0
C146 C 0.72942 0.37103 0.43813 0.0
C147 C 0.6919 0.45932 0.48847 0.0
C148 C 0.83648 0.40913 0.49104 0.0
O149 O 0.72689 0.39481 0.52855 0.0
O150 O 0.72205 0.31588 0.52667 0.0
C151 C 0.62957 0.22922 0.4951 0.0
N152 N 0.67272 0.24504 0.47771 0.0
C153 C 0.62633 0.17586 0.44082 0.0
C154 C 0.58147 0.15857 0.45846 0.0
C155 C 0.5831 0.18545 0.48568 0.0
C156 C 0.67154 0.21961 0.4514 0.0
H157 H 0.63059 0.2499 0.51597 0.0
C158 C 0.71919 0.3524 0.54109 0.0
O159 O 0.74134 0.48325 0.4932 0.0
O160 O 0.66944 0.41007 0.48116 0.0
N161 N 0.75766 0.28365 0.44591 0.0
C162 C 0.80393 0.30621 0.4311 0.0
C163 C 0.80891 0.28396 0.40352 0.0
C164 C 0.76621 0.23905 0.39131 0.0
C165 C 0.71904 0.21643 0.40702 0.0
C166 C 0.7167 0.23964 0.43479 0.0
H167 H 0.83688 0.34078 0.44031 0.0
O168 O 0.74369 0.42055 0.43782 0.0
O169 O 0.72043 0.34908 0.46517 0.0
O170 O 0.8141 0.43604 0.48748 0.0
O171 O 0.8127 0.35906 0.49144 0.0
C172 C 0.67416 0.17197 0.39611 0.0
C173 C 0.62781 0.15177 0.41296 0.0
H174 H 0.54551 0.12493 0.45123 0.0
H175 H 0.54858 0.17251 0.49934 0.0
H176 H 0.84547 0.30165 0.39153 0.0
H177 H 0.77003 0.22245 0.36979 0.0
H178 H 0.67477 0.15324 0.37467 0.0
H179 H 0.59345 0.11783 0.40421 0.0
Mn180 Mn 0.29518 0.72418 0.82687 0.0
Mn181 Mn 0.26217 0.59736 0.83561 0.0
C182 C 0.28461 0.69003 0.87597 0.0
C183 C 0.36115 0.81029 0.81972 0.0
C184 C 0.18464 0.63152 0.81972 0.0
O185 O 0.30876 0.7046 0.78465 0.0
O186 O 0.28623 0.62044 0.7926 0.0
C187 C 0.36797 0.61399 0.82991 0.0
N188 N 0.32346 0.59575 0.84627 0.0
C189 C 0.35648 0.56505 0.88708 0.0
C190 C 0.4026 0.58324 0.8706 0.0
C191 C 0.40842 0.60798 0.84194 0.0
C192 C 0.31775 0.5726 0.87405 0.0
H193 H 0.37257 0.633 0.80787 0.0
C194 C 0.30285 0.66095 0.77549 0.0
O195 O 0.31405 0.79581 0.81139 0.0
O196 O 0.36951 0.77519 0.832 0.0
N197 N 0.23768 0.56781 0.87553 0.0
C198 C 0.19024 0.55122 0.88799 0.0
C199 C 0.17715 0.52336 0.9159 0.0
C200 C 0.21309 0.51327 0.93086 0.0
C201 C 0.26159 0.53057 0.91756 0.0
C202 C 0.27186 0.55673 0.88922 0.0
H203 H 0.16225 0.55832 0.87643 0.0
O204 O 0.28334 0.73285 0.87102 0.0
O205 O 0.29345 0.66904 0.85186 0.0
O206 O 0.2164 0.68095 0.81914 0.0
O207 O 0.1978 0.59714 0.82558 0.0
C208 C 0.29984 0.52221 0.93105 0.0
C209 C 0.34741 0.53976 0.91592 0.0
H210 H 0.4338 0.57849 0.87975 0.0
H211 H 0.44395 0.62227 0.82913 0.0
H212 H 0.13941 0.50966 0.92584 0.0
H213 H 0.20293 0.49195 0.95248 0.0
H214 H 0.29308 0.50232 0.95305 0.0
H215 H 0.37662 0.53329 0.92657 0.0
H216 H 0.4952 0.14453 0.15625 0.0
C217 C 0.53663 0.1665 0.15272 0.0
H218 H 0.60471 0.16252 0.14631 0.0
H219 H 0.50933 0.93455 0.204 0.0
H220 H 0.55414 0.98618 0.2491 0.0
H221 H 0.59251 0.08222 0.24896 0.0
H222 H 0.58568 0.12718 0.20376 0.0
C223 C 0.56306 0.14076 0.14889 0.0
C224 C 0.53785 0.08236 0.1492 0.0
C225 C 0.54321 0.05656 0.17544 0.0
C226 C 0.52197 1.00112 0.17526 0.0
C227 C 0.52596 0.97651 0.20242 0.0
C228 C 0.55134 1.0057 0.22859 0.0
C229 C 0.5729 0.05977 0.22853 0.0
C230 C 0.56885 0.0851 0.20239 0.0
H231 H 0.53915 0.90818 0.15155 0.0
C232 C 0.49739 0.88671 0.14953 0.0
H233 H 0.42941 0.89142 0.14562 0.0
H234 H 0.52217 0.11935 0.09465 0.0
H235 H 0.47813 0.06808 0.04921 0.0
H236 H 0.4422 0.97236 0.04855 0.0
H237 H 0.45019 0.92729 0.09327 0.0
C238 C 0.47107 0.91299 0.14839 0.0
C239 C 0.49641 0.97151 0.14846 0.0
C240 C 0.49118 0.99745 0.12219 0.0
C241 C 0.51191 0.05279 0.12255 0.0
C242 C 0.5068 0.07747 0.09575 0.0
C243 C 0.4817 0.04852 0.06947 0.0
C244 C 0.46145 0.99462 0.0691 0.0
C245 C 0.46612 0.96921 0.09502 0.0
H246 H 0.42512 0.49858 0.50237 0.0
C247 C 0.43979 0.53823 0.49386 0.0
H248 H 0.50391 0.60507 0.47505 0.0
H249 H 0.60963 0.47855 0.54381 0.0
H250 H 0.59126 0.50926 0.59156 0.0
H251 H 0.54266 0.5568 0.59112 0.0
H252 H 0.51162 0.57337 0.54289 0.0
C253 C 0.48915 0.5663 0.48492 0.0
C254 C 0.52307 0.54272 0.48509 0.0
C255 C 0.54225 0.53478 0.51337 0.0
C256 C 0.5716 0.50877 0.51352 0.0
C257 C 0.58842 0.49938 0.54222 0.0
C258 C 0.57792 0.51659 0.56985 0.0
C259 C 0.55045 0.54324 0.56961 0.0
C260 C 0.53269 0.55232 0.54178 0.0
H261 H 0.68323 0.52861 0.49697 0.0
C262 C 0.66266 0.48731 0.49087 0.0
H263 H 0.59125 0.42232 0.47791 0.0
H264 H 0.49342 0.55342 0.42685 0.0
H265 H 0.51318 0.52428 0.37892 0.0
H266 H 0.56526 0.48041 0.37904 0.0
H267 H 0.59787 0.46537 0.42708 0.0
C268 C 0.61177 0.46313 0.4851 0.0
C269 C 0.58268 0.49193 0.48527 0.0
C270 C 0.56434 0.50081 0.45695 0.0
C271 C 0.53463 0.52641 0.45685 0.0
C272 C 0.51638 0.53438 0.42825 0.0
C273 C 0.52743 0.51784 0.40056 0.0
C274 C 0.55672 0.49311 0.40063 0.0
C275 C 0.57511 0.48464 0.4284 0.0
H276 H 0.85398 0.38906 0.81134 0.0
C277 C 0.83863 0.41513 0.81546 0.0
H278 H 0.85643 0.49351 0.82263 0.0
H279 H 0.08194 0.57422 0.87159 0.0
H280 H 0.03744 0.56622 0.91977 0.0
H281 H 0.94253 0.52391 0.92122 0.0
H282 H 0.89172 0.48904 0.87452 0.0
C283 C 0.87111 0.46721 0.8174 0.0
C284 C 0.92817 0.4908 0.81627 0.0
C285 C 0.9575 0.51176 0.84371 0.0
C286 C 0.01222 0.53637 0.84285 0.0
C287 C 0.04036 0.55563 0.87079 0.0
C288 C 0.01528 0.55122 0.89866 0.0
C289 C 0.96188 0.52743 0.89948 0.0
C290 C 0.93315 0.50776 0.87245 0.0
H291 H 0.11583 0.64111 0.81448 0.0
C292 C 0.12895 0.61268 0.81525 0.0
H293 H 0.10686 0.53224 0.8144 0.0
H294 H 0.88392 0.45787 0.75915 0.0
H295 H 0.92855 0.46547 0.71096 0.0
H296 H 0.02338 0.50713 0.70964 0.0
H297 H 0.07429 0.54186 0.75651 0.0
C298 C 0.09424 0.56107 0.8142 0.0
C299 C 0.03761 0.54042 0.81448 0.0
C300 C 1.00835 0.51978 0.78702 0.0
C301 C 0.95358 0.49522 0.78786 0.0
C302 C 0.92549 0.47612 0.75993 0.0
C303 C 0.95064 0.48039 0.73209 0.0
C304 C 1.00405 0.50386 0.73134 0.0
C305 C 0.03279 0.52348 0.7584 0.0
H306 H 0.16676 0.49155 0.4942 0.0
C307 C 0.17933 0.53309 0.49309 0.0
H308 H 0.15586 0.59009 0.49246 0.0
H309 H 0.94005 0.38882 0.44252 0.0
H310 H 0.98854 0.39285 0.39674 0.0
H311 H 0.08273 0.45171 0.39475 0.0
H312 H 0.12899 0.50649 0.43855 0.0
C313 C 0.14396 0.54869 0.49283 0.0
C314 C 0.08768 0.5109 0.49432 0.0
C315 C 0.06128 0.47916 0.46839 0.0
C316 C 1.00684 0.44588 0.46933 0.0
C317 C 0.98134 0.41484 0.44307 0.0
C318 C 1.00869 0.41683 0.4166 0.0
C319 C 0.06172 0.44991 0.41549 0.0
C320 C 0.08787 0.48096 0.44093 0.0
H321 H 0.91255 0.48066 0.49446 0.0
C322 C 0.89316 0.43811 0.49415 0.0
H323 H 0.90321 0.37184 0.49396 0.0
H324 H 0.1267 0.56532 0.54825 0.0
H325 H 0.07813 0.56087 0.59414 0.0
H326 H 0.98384 0.50257 0.59589 0.0
H327 H 0.93752 0.44857 0.55171 0.0
C328 C 0.9215 0.41421 0.4955 0.0
C329 C 0.97884 0.44532 0.49588 0.0
C330 C 1.00539 0.47597 0.52209 0.0
C331 C 0.05982 0.50908 0.52121 0.0
C332 C 0.08535 0.53961 0.54762 0.0
C333 C 0.05797 0.53732 0.57415 0.0
C334 C 1.00488 0.50453 0.57513 0.0
C335 C 0.97872 0.47399 0.54952 0.0
H336 H 0.4417 0.87207 0.82531 0.0
C337 C 0.40437 0.86421 0.81652 0.0
H338 H 0.36354 0.89691 0.79474 0.0
H339 H 0.57193 0.09543 0.86136 0.0
H340 H 0.53047 0.05568 0.90982 0.0
H341 H 0.44828 0.97203 0.91046 0.0
H342 H 0.40773 0.9272 0.86271 0.0
C343 C 0.39987 0.9038 0.80459 0.0
C344 C 0.44541 0.95781 0.80404 0.0
C345 C 0.46723 0.98485 0.83216 0.0
C346 C 0.51308 0.03448 0.83173 0.0
C347 C 0.53583 0.05888 0.86025 0.0
C348 C 0.51265 0.03629 0.88828 0.0
C349 C 0.46652 0.98911 0.88864 0.0
C350 C 0.44387 0.96356 0.86102 0.0
H351 H 0.53328 0.14349 0.81936 0.0
C352 C 0.57177 0.15274 0.81223 0.0
H353 H 0.61694 0.12147 0.79481 0.0
H354 H 0.41398 0.91663 0.74611 0.0
H355 H 0.45406 0.95788 0.69755 0.0
H356 H 0.53135 0.04576 0.69675 0.0
H357 H 0.56941 0.09279 0.74455 0.0
C358 C 0.57929 0.11367 0.80266 0.0
C359 C 0.53539 0.05867 0.80312 0.0
C360 C 0.51351 0.03178 0.77503 0.0
C361 C 0.46854 0.98128 0.77549 0.0
C362 C 0.44783 0.95517 0.74708 0.0
C363 C 0.47046 0.9784 0.71905 0.0
C364 C 0.51399 0.02789 0.7186 0.0
C365 C 0.53542 0.05447 0.74619 0.0
H366 H 0.41179 0.55686 0.1752 0.0
C367 C 0.43656 0.59468 0.16454 0.0
H368 H 0.50725 0.64097 0.14161 0.0
H369 H 0.53711 0.4586 0.21721 0.0
H370 H 0.53426 0.50258 0.26401 0.0
H371 H 0.5168 0.57608 0.26163 0.0
H372 H 0.50133 0.60557 0.21249 0.0
C373 C 0.48287 0.60486 0.15398 0.0
C374 C 0.49858 0.56385 0.15546 0.0
C375 C 0.50926 0.54815 0.1843 0.0
C376 C 0.52143 0.50708 0.18557 0.0
C377 C 0.52957 0.49076 0.2148 0.0
C378 C 0.52771 0.51545 0.24187 0.0
C379 C 0.5177 0.55671 0.24054 0.0
C380 C 0.50859 0.57305 0.21218 0.0
H381 H 0.61676 0.4981 0.17318 0.0
C382 C 0.59118 0.45766 0.16627 0.0
H383 H 0.51666 0.40403 0.14984 0.0
H384 H 0.47953 0.58347 0.0965 0.0
H385 H 0.48473 0.54113 0.04962 0.0
H386 H 0.5089 0.47233 0.05163 0.0
H387 H 0.52756 0.44504 0.10054 0.0
C388 C 0.54224 0.44317 0.15869 0.0
C389 C 0.52486 0.48294 0.15791 0.0
C390 C 0.51429 0.49874 0.1291 0.0
C391 C 0.50111 0.53909 0.12788 0.0
C392 C 0.49028 0.55353 0.09877 0.0
C393 C 0.49307 0.5295 0.07166 0.0
C394 C 0.50662 0.49073 0.07279 0.0
C395 C 0.51719 0.4754 0.10107 0.0
H396 H 0.65544 0.35747 0.9123 0.0
C397 C 0.67887 0.33978 0.90724 0.0
H398 H 0.72297 0.30826 0.9262 0.0
H399 H 0.74883 0.45503 0.043 0.0
H400 H 0.83501 0.50368 0.02067 0.0
H401 H 0.85696 0.47181 0.97374 0.0
H402 H 0.79163 0.39473 0.9467 0.0
C403 C 0.69952 0.32632 0.93058 0.0
C404 C 0.69042 0.33585 0.96297 0.0
C405 C 0.72993 0.37794 0.97968 0.0
C406 C 0.71855 0.39345 0.00835 0.0
C407 C 0.75691 0.43979 0.02246 0.0
C408 C 0.80618 0.46789 0.00987 0.0
C409 C 0.81845 0.45023 0.9832 0.0
C410 C 0.78068 0.40605 0.96794 0.0
H411 H 0.71644 0.37573 0.07756 0.0
C412 C 0.67999 0.37546 0.07851 0.0
H413 H 0.61986 0.37675 0.05434 0.0
H414 H 0.60863 0.2481 0.93847 0.0
H415 H 0.52509 0.19488 0.9623 0.0
H416 H 0.50687 0.21674 0.0141 0.0
H417 H 0.57144 0.29202 0.04209 0.0
C418 C 0.65627 0.37704 0.05242 0.0
C419 C 0.669 0.36338 0.02172 0.0
C420 C 0.63059 0.31828 0.00595 0.0
C421 C 0.64116 0.30506 0.97632 0.0
C422 C 0.60227 0.26024 0.96088 0.0
C423 C 0.55428 0.2291 0.97438 0.0
C424 C 0.54404 0.24143 0.00352 0.0
C425 C 0.58156 0.28521 0.01927 0.0
H426 H 0.4131 0.71782 0.25463 0.0
C427 C 0.37879 0.71388 0.24341 0.0
H428 H 0.30464 0.70344 0.24822 0.0
H429 H 0.24421 0.565 0.3678 0.0
H430 H 0.16884 0.52045 0.33505 0.0
H431 H 0.16845 0.55226 0.28241 0.0
H432 H 0.2424 0.62946 0.26268 0.0
C433 C 0.33788 0.70632 0.26022 0.0
C434 C 0.33389 0.69226 0.29368 0.0
C435 C 0.29035 0.6456 0.30432 0.0
C436 C 0.29143 0.62567 0.33409 0.0
C437 C 0.2465 0.58067 0.34489 0.0
C438 C 0.2027 0.55481 0.32641 0.0
C439 C 0.20244 0.5728 0.29682 0.0
C440 C 0.24555 0.6175 0.28577 0.0
H441 H 0.36178 0.69178 0.40889 0.0
C442 C 0.34807 0.65051 0.40901 0.0
H443 H 0.32597 0.58371 0.38159 0.0
H444 H 0.41261 0.79252 0.2863 0.0
H445 H 0.48928 0.83757 0.31869 0.0
H446 H 0.5 0.79415 0.36463 0.0
H447 H 0.43338 0.70728 0.37935 0.0
C448 C 0.33866 0.62531 0.3819 0.0
C449 C 0.33699 0.65044 0.35233 0.0
C450 C 0.37944 0.69858 0.3423 0.0
C451 C 0.37597 0.7212 0.31404 0.0
C452 C 0.41542 0.77233 0.30647 0.0
C453 C 0.45927 0.79862 0.32492 0.0
C454 C 0.46513 0.77432 0.35088 0.0
C455 C 0.42608 0.72466 0.35938 0.0
H456 H 0.66134 0.40263 0.73539 0.0
C457 C 0.65869 0.36595 0.74251 0.0
H458 H 0.65672 0.29643 0.72751 0.0
H459 H 0.60169 0.31615 0.58843 0.0
H460 H 0.51601 0.25289 0.60639 0.0
H461 H 0.49912 0.23265 0.66193 0.0
H462 H 0.5678 0.27568 0.69987 0.0
C463 C 0.65907 0.33321 0.72101 0.0
C464 C 0.66832 0.34817 0.68801 0.0
C465 C 0.62783 0.32259 0.66627 0.0
C466 C 0.63764 0.33396 0.6343 0.0
C467 C 0.59645 0.30834 0.61299 0.0
C468 C 0.54708 0.27213 0.62299 0.0
C469 C 0.53756 0.26076 0.65427 0.0
C470 C 0.57731 0.28563 0.67578 0.0
H471 H 0.70008 0.30847 0.5849 0.0
C472 C 0.70556 0.34421 0.57406 0.0
H473 H 0.7059 0.41574 0.58085 0.0
H474 H 0.7557 0.40262 0.72367 0.0
H475 H 0.84051 0.4668 0.70568 0.0
H476 H 0.8567 0.4883 0.65026 0.0
H477 H 0.78787 0.4454 0.6125 0.0
C478 C 0.69962 0.3792 0.59088 0.0
C479 C 0.68802 0.37055 0.62429 0.0
C480 C 0.72819 0.39733 0.64608 0.0
C481 C 0.71858 0.38562 0.67802 0.0
C482 C 0.76019 0.41092 0.69918 0.0
C483 C 0.80932 0.44768 0.68915 0.0
C484 C 0.81844 0.45975 0.65795 0.0
C485 C 0.77856 0.43486 0.63654 0.0
H486 H 0.30429 0.64998 0.9123 0.0
C487 C 0.28785 0.67488 0.90802 0.0
H488 H 0.26558 0.72603 0.92843 0.0
H489 H 0.27257 0.58568 0.04628 0.0
H490 H 0.18648 0.52078 0.02797 0.0
H491 H 0.1482 0.53832 0.98257 0.0
H492 H 0.19765 0.61751 0.9523 0.0
C493 C 0.27917 0.69838 0.9321 0.0
C494 C 0.29626 0.69436 0.9637 0.0
C495 C 0.26591 0.64986 0.98204 0.0
C496 C 0.28606 0.64238 0.01019 0.0
C497 C 0.25727 0.59466 0.02607 0.0
C498 C 0.20822 0.55735 0.01584 0.0
C499 C 0.18674 0.56693 0.98994 0.0
C500 C 0.21545 0.61228 0.97279 0.0
H501 H 0.29906 0.66862 0.08074 0.0
C502 C 0.33782 0.67464 0.07859 0.0
H503 H 0.39679 0.68233 0.04905 0.0
H504 H 0.36161 0.78702 0.93536 0.0
H505 H 0.44283 0.85614 0.9557 0.0
H506 H 0.47468 0.84737 0.00675 0.0
H507 H 0.42613 0.7693 0.0375 0.0
C508 C 0.35757 0.67545 0.05051 0.0
C509 C 0.33465 0.68195 0.02133 0.0
C510 C 0.36311 0.72878 0.00403 0.0
C511 C 0.34424 0.73453 0.97496 0.0
C512 C 0.37406 0.78085 0.9577 0.0
C513 C 0.42069 0.82089 0.96912 0.0
C514 C 0.43865 0.81591 -0.00217 0.0
C515 C 0.41041 0.7706 0.01519 0.0
H516 H 0.68306 0.2993 0.41052 0.0
C517 C 0.71165 0.34048 0.40935 0.0
H518 H 0.75145 0.40593 0.38016 0.0
H519 H 0.71174 0.27474 0.2576 0.0
H520 H 0.79475 0.28323 0.27124 0.0
H521 H 0.83424 0.31789 0.32233 0.0
H522 H 0.79077 0.34365 0.36008 0.0
C523 C 0.72343 0.36446 0.38187 0.0
C524 C 0.69677 0.33681 0.35313 0.0
C525 C 0.72317 0.32311 0.33127 0.0
C526 C 0.70127 0.30474 0.3016 0.0
C527 C 0.72769 0.29017 0.28023 0.0
C528 C 0.77505 0.29463 0.28782 0.0
C529 C 0.79724 0.31407 0.31659 0.0
C530 C 0.77188 0.32848 0.33809 0.0
H531 H 0.70793 0.37679 0.25416 0.0
C532 C 0.6734 0.34542 0.24336 0.0
H533 H 0.60633 0.27181 0.25062 0.0
H534 H 0.63322 0.35451 0.39098 0.0
H535 H 0.54931 0.34274 0.37758 0.0
H536 H 0.51207 0.31165 0.32566 0.0
H537 H 0.55886 0.29222 0.28678 0.0
C538 C 0.64182 0.30338 0.26026 0.0
C539 C 0.65444 0.30281 0.29343 0.0
C540 C 0.62562 0.31149 0.31619 0.0
C541 C 0.64694 0.3289 0.34616 0.0
C542 C 0.61866 0.34036 0.368 0.0
C543 C 0.57044 0.33393 0.36057 0.0
C544 C 0.5495 0.3165 0.33132 0.0
C545 C 0.57673 0.30561 0.30923 0.0
H546 H 0.28516 0.61856 0.73143 0.0
C547 C 0.31159 0.65534 0.74271 0.0
H548 H 0.37595 0.73063 0.73839 0.0
H549 H 0.31622 0.57722 0.61006 0.0
H550 H 0.32563 0.51486 0.64183 0.0
H551 H 0.35324 0.53503 0.69633 0.0
H552 H 0.36854 0.61667 0.71967 0.0
C553 C 0.34945 0.6945 0.72655 0.0
C554 C 0.35252 0.69132 0.69224 0.0
C555 C 0.34997 0.64653 0.67814 0.0
C556 C 0.34001 0.6377 0.64593 0.0
C557 C 0.32893 0.58849 0.63363 0.0
C558 C 0.33345 0.55188 0.65177 0.0
C559 C 0.34859 0.56304 0.68249 0.0
C560 C 0.35673 0.60973 0.69566 0.0
H561 H 0.39044 0.65187 0.58474 0.0
C562 C 0.3606 0.65824 0.57475 0.0
H563 H 0.30133 0.67558 0.58293 0.0
H564 H 0.36114 0.78479 0.71117 0.0
H565 H 0.36505 0.85295 0.67836 0.0
H566 H 0.35965 0.84289 0.62164 0.0
H567 H 0.34931 0.76395 0.59752 0.0
C568 C 0.33154 0.66992 0.59306 0.0
C569 C 0.34031 0.6774 0.62708 0.0
C570 C 0.34844 0.72476 0.6408 0.0
C571 C 0.3534 0.7313 0.67346 0.0
C572 C 0.35847 0.77786 0.68654 0.0
C573 C 0.36066 0.81749 0.66793 0.0
C574 C 0.35754 0.8118 0.63602 0.0
C575 C 0.35141 0.76609 0.62248 0.0
loop_
_geom_bond_atom_site_label_1
_geom_bond_atom_site_label_2
_geom_bond_distance
_geom_bond_site_symmetry_2
_ccdc_geom_bond_type
Mn0 O5 2.095 . S
Mn0 O15 2.162 . S
Mn0 O16 2.297 . S
Mn0 O24 2.385 . S
Mn0 O25 2.209 . S
Mn0 O26 2.094 . S
Mn1 O6 2.121 . S
Mn1 N8 2.257 . S
Mn1 N17 2.282 . S
Mn1 O25 2.215 . S
Mn1 O27 2.117 . S
C2 O24 1.234 . S
C2 O25 1.283 . S
C3 O15 1.281 . S
C3 O16 1.236 . S
C4 O26 1.240 . S
C4 O27 1.264 . S
O5 Mn0 2.095 . S
O5 C14 1.250 . S
O6 Mn1 2.121 . S
O6 C14 1.258 . S
C7 N8 1.326 . S
C7 C11 1.460 . S
C7 H13 0.929 . S
N8 Mn1 2.257 . S
N8 C7 1.326 . S
N8 C12 1.362 . S
C9 C10 1.258 . S
C9 C12 1.431 . S
C9 C29 1.449 . S
C10 C9 1.258 . S
C10 C11 1.477 . S
C10 H30 0.931 . S
C11 C7 1.460 . S
C11 C10 1.477 . S
C11 H31 0.930 . S
C12 N8 1.362 . S
C12 C9 1.431 . S
C12 C22 1.476 . S
H13 C7 0.929 . S
C14 O5 1.250 . S
C14 O6 1.258 . S
O15 Mn0 2.162 . S
O15 C3 1.281 . S
O16 Mn0 2.297 . S
O16 C3 1.236 . S
N17 Mn1 2.282 . S
N17 C18 1.328 . S
N17 C22 1.318 . S
C18 N17 1.328 . S
C18 C19 1.457 . S
C18 H23 0.929 . S
C19 C18 1.457 . S
C19 C20 1.291 . S
C19 H32 0.931 . S
C20 C19 1.291 . S
C20 C21 1.373 . S
C20 H33 0.929 . S
C21 C20 1.373 . S
C21 C22 1.396 . S
C21 C28 1.403 . S
C22 C12 1.476 . S
C22 N17 1.318 . S
C22 C21 1.396 . S
H23 C18 0.929 . S
O24 Mn0 2.385 . S
O24 C2 1.234 . S
O25 Mn0 2.209 . S
O25 Mn1 2.215 . S
O25 C2 1.283 . S
O26 Mn0 2.094 . S
O26 C4 1.240 . S
O27 Mn1 2.117 . S
O27 C4 1.264 . S
C28 C21 1.403 . S
C28 C29 1.399 . S
C28 H34 0.929 . S
C29 C9 1.449 . S
C29 C28 1.399 . S
C29 H35 0.930 . S
H30 C10 0.931 . S
H31 C11 0.930 . S
H32 C19 0.931 . S
H33 C20 0.929 . S
H34 C28 0.929 . S
H35 C29 0.930 . S
Mn36 O41 2.095 . S
Mn36 O51 2.162 . S
Mn36 O52 2.297 . S
Mn36 O60 2.385 . S
Mn36 O61 2.209 . S
Mn36 O62 2.094 . S
Mn37 O42 2.121 . S
Mn37 N44 2.257 . S
Mn37 N53 2.282 . S
Mn37 O61 2.215 . S
Mn37 O63 2.117 . S
C38 O60 1.234 . S
C38 O61 1.283 . S
C39 O51 1.281 . S
C39 O52 1.236 . S
C40 O62 1.240 . S
C40 O63 1.264 . S
O41 Mn36 2.095 . S
O41 C50 1.250 . S
O42 Mn37 2.121 . S
O42 C50 1.258 . S
C43 N44 1.326 . S
C43 C47 1.460 . S
C43 H49 0.929 . S
N44 Mn37 2.257 . S
N44 C43 1.326 . S
N44 C48 1.362 . S
C45 C46 1.258 . S
C45 C48 1.431 . S
C45 C65 1.449 . S
C46 C45 1.258 . S
C46 C47 1.477 . S
C46 H66 0.931 . S
C47 C43 1.460 . S
C47 C46 1.477 . S
C47 H67 0.930 . S
C48 N44 1.362 . S
C48 C45 1.431 . S
C48 C58 1.476 . S
H49 C43 0.929 . S
C50 O41 1.250 . S
C50 O42 1.258 . S
O51 Mn36 2.162 . S
O51 C39 1.281 . S
O52 Mn36 2.297 . S
O52 C39 1.236 . S
N53 Mn37 2.282 . S
N53 C54 1.328 . S
N53 C58 1.318 . S
C54 N53 1.328 . S
C54 C55 1.457 . S
C54 H59 0.929 . S
C55 C54 1.457 . S
C55 C56 1.291 . S
C55 H68 0.931 . S
C56 C55 1.291 . S
C56 C57 1.373 . S
C56 H69 0.929 . S
C57 C56 1.373 . S
C57 C58 1.396 . S
C57 C64 1.403 . S
C58 C48 1.476 . S
C58 N53 1.318 . S
C58 C57 1.396 . S
H59 C54 0.929 . S
O60 Mn36 2.385 . S
O60 C38 1.234 . S
O61 Mn36 2.209 . S
O61 Mn37 2.215 . S
O61 C38 1.283 . S
O62 Mn36 2.094 . S
O62 C40 1.240 . S
O63 Mn37 2.117 . S
O63 C40 1.264 . S
C64 C57 1.403 . S
C64 C65 1.399 . S
C64 H70 0.929 . S
C65 C45 1.449 . S
C65 C64 1.399 . S
C65 H71 0.930 . S
H66 C46 0.931 . S
H67 C47 0.930 . S
H68 C55 0.931 . S
H69 C56 0.929 . S
H70 C64 0.929 . S
H71 C65 0.930 . S
Mn72 O77 2.095 . S
Mn72 O87 2.162 . S
Mn72 O88 2.297 . S
Mn72 O96 2.385 . S
Mn72 O97 2.209 . S
Mn72 O98 2.094 . S
Mn73 O78 2.121 . S
Mn73 N80 2.257 . S
Mn73 N89 2.282 . S
Mn73 O97 2.215 . S
Mn73 O99 2.117 . S
C74 O96 1.234 . S
C74 O97 1.283 . S
C75 O87 1.281 . S
C75 O88 1.236 . S
C76 O98 1.240 . S
C76 O99 1.264 . S
O77 Mn72 2.095 . S
O77 C86 1.250 . S
O78 Mn73 2.121 . S
O78 C86 1.258 . S
C79 N80 1.326 . S
C79 C83 1.460 . S
C79 H85 0.929 . S
N80 Mn73 2.257 . S
N80 C79 1.326 . S
N80 C84 1.362 . S
C81 C82 1.258 . S
C81 C84 1.431 . S
C81 C101 1.449 . S
C82 C81 1.258 . S
C82 C83 1.477 . S
C82 H102 0.931 . S
C83 C79 1.460 . S
C83 C82 1.477 . S
C83 H103 0.930 . S
C84 N80 1.362 . S
C84 C81 1.431 . S
C84 C94 1.476 . S
H85 C79 0.929 . S
C86 O77 1.250 . S
C86 O78 1.258 . S
O87 Mn72 2.162 . S
O87 C75 1.281 . S
O88 Mn72 2.297 . S
O88 C75 1.236 . S
N89 Mn73 2.282 . S
N89 C90 1.328 . S
N89 C94 1.318 . S
C90 N89 1.328 . S
C90 C91 1.457 . S
C90 H95 0.929 . S
C91 C90 1.457 . S
C91 C92 1.291 . S
C91 H104 0.931 . S
C92 C91 1.291 . S
C92 C93 1.373 . S
C92 H105 0.929 . S
C93 C92 1.373 . S
C93 C94 1.396 . S
C93 C100 1.403 . S
C94 C84 1.476 . S
C94 N89 1.318 . S
C94 C93 1.396 . S
H95 C90 0.929 . S
O96 Mn72 2.385 . S
O96 C74 1.234 . S
O97 Mn72 2.209 . S
O97 Mn73 2.215 . S
O97 C74 1.283 . S
O98 Mn72 2.094 . S
O98 C76 1.240 . S
O99 Mn73 2.117 . S
O99 C76 1.264 . S
C100 C93 1.403 . S
C100 C101 1.399 . S
C100 H106 0.929 . S
C101 C81 1.449 . S
C101 C100 1.399 . S
C101 H107 0.930 . S
H102 C82 0.931 . S
H103 C83 0.930 . S
H104 C91 0.931 . S
H105 C92 0.929 . S
H106 C100 0.929 . S
H107 C101 0.930 . S
Mn108 O113 2.095 . S
Mn108 O123 2.162 . S
Mn108 O124 2.297 . S
Mn108 O132 2.385 . S
Mn108 O133 2.209 . S
Mn108 O134 2.094 . S
Mn109 O114 2.121 . S
Mn109 N116 2.257 . S
Mn109 N125 2.282 . S
Mn109 O133 2.215 . S
Mn109 O135 2.117 . S
C110 O132 1.234 . S
C110 O133 1.283 . S
C111 O123 1.281 . S
C111 O124 1.236 . S
C112 O134 1.240 . S
C112 O135 1.264 . S
O113 Mn108 2.095 . S
O113 C122 1.250 . S
O114 Mn109 2.121 . S
O114 C122 1.258 . S
C115 N116 1.326 . S
C115 C119 1.460 . S
C115 H121 0.929 . S
N116 Mn109 2.257 . S
N116 C115 1.326 . S
N116 C120 1.362 . S
C117 C118 1.258 . S
C117 C120 1.431 . S
C117 C137 1.449 . S
C118 C117 1.258 . S
C118 C119 1.477 . S
C118 H138 0.931 . S
C119 C115 1.460 . S
C119 C118 1.477 . S
C119 H139 0.930 . S
C120 N116 1.362 . S
C120 C117 1.431 . S
C120 C130 1.476 . S
H121 C115 0.929 . S
C122 O113 1.250 . S
C122 O114 1.258 . S
O123 Mn108 2.162 . S
O123 C111 1.281 . S
O124 Mn108 2.297 . S
O124 C111 1.236 . S
N125 Mn109 2.282 . S
N125 C126 1.328 . S
N125 C130 1.318 . S
C126 N125 1.328 . S
C126 C127 1.457 . S
C126 H131 0.929 . S
C127 C126 1.457 . S
C127 C128 1.291 . S
C127 H140 0.931 . S
C128 C127 1.291 . S
C128 C129 1.373 . S
C128 H141 0.929 . S
C129 C128 1.373 . S
C129 C130 1.396 . S
C129 C136 1.403 . S
C130 C120 1.476 . S
C130 N125 1.318 . S
C130 C129 1.396 . S
H131 C126 0.929 . S
O132 Mn108 2.385 . S
O132 C110 1.234 . S
O133 Mn108 2.209 . S
O133 Mn109 2.215 . S
O133 C110 1.283 . S
O134 Mn108 2.094 . S
O134 C112 1.240 . S
O135 Mn109 2.117 . S
O135 C112 1.264 . S
C136 C129 1.403 . S
C136 C137 1.399 . S
C136 H142 0.929 . S
C137 C117 1.449 . S
C137 C136 1.399 . S
C137 H143 0.930 . S
H138 C118 0.931 . S
H139 C119 0.930 . S
H140 C127 0.931 . S
H141 C128 0.929 . S
H142 C136 0.929 . S
H143 C137 0.930 . S
Mn144 O149 2.095 . S
Mn144 O159 2.162 . S
Mn144 O160 2.297 . S
Mn144 O168 2.385 . S
Mn144 O169 2.209 . S
Mn144 O170 2.094 . S
Mn145 O150 2.121 . S
Mn145 N152 2.257 . S
Mn145 N161 2.282 . S
Mn145 O169 2.215 . S
Mn145 O171 2.117 . S
C146 O168 1.234 . S
C146 O169 1.283 . S
C147 O159 1.281 . S
C147 O160 1.236 . S
C148 O170 1.240 . S
C148 O171 1.264 . S
O149 Mn144 2.095 . S
O149 C158 1.250 . S
O150 Mn145 2.121 . S
O150 C158 1.258 . S
C151 N152 1.326 . S
C151 C155 1.460 . S
C151 H157 0.929 . S
N152 Mn145 2.257 . S
N152 C151 1.326 . S
N152 C156 1.362 . S
C153 C154 1.258 . S
C153 C156 1.431 . S
C153 C173 1.449 . S
C154 C153 1.258 . S
C154 C155 1.477 . S
C154 H174 0.931 . S
C155 C151 1.460 . S
C155 C154 1.477 . S
C155 H175 0.930 . S
C156 N152 1.362 . S
C156 C153 1.431 . S
C156 C166 1.476 . S
H157 C151 0.929 . S
C158 O149 1.250 . S
C158 O150 1.258 . S
O159 Mn144 2.162 . S
O159 C147 1.281 . S
O160 Mn144 2.297 . S
O160 C147 1.236 . S
N161 Mn145 2.282 . S
N161 C162 1.328 . S
N161 C166 1.318 . S
C162 N161 1.328 . S
C162 C163 1.457 . S
C162 H167 0.929 . S
C163 C162 1.457 . S
C163 C164 1.291 . S
C163 H176 0.931 . S
C164 C163 1.291 . S
C164 C165 1.373 . S
C164 H177 0.929 . S
C165 C164 1.373 . S
C165 C166 1.396 . S
C165 C172 1.403 . S
C166 C156 1.476 . S
C166 N161 1.318 . S
C166 C165 1.396 . S
H167 C162 0.929 . S
O168 Mn144 2.385 . S
O168 C146 1.234 . S
O169 Mn144 2.209 . S
O169 Mn145 2.215 . S
O169 C146 1.283 . S
O170 Mn144 2.094 . S
O170 C148 1.240 . S
O171 Mn145 2.117 . S
O171 C148 1.264 . S
C172 C165 1.403 . S
C172 C173 1.399 . S
C172 H178 0.929 . S
C173 C153 1.449 . S
C173 C172 1.399 . S
C173 H179 0.930 . S
H174 C154 0.931 . S
H175 C155 0.930 . S
H176 C163 0.931 . S
H177 C164 0.929 . S
H178 C172 0.929 . S
H179 C173 0.930 . S
Mn180 O185 2.095 . S
Mn180 O195 2.162 . S
Mn180 O196 2.297 . S
Mn180 O204 2.385 . S
Mn180 O205 2.209 . S
Mn180 O206 2.094 . S
Mn181 O186 2.121 . S
Mn181 N188 2.257 . S
Mn181 N197 2.282 . S
Mn181 O205 2.215 . S
Mn181 O207 2.117 . S
C182 O204 1.234 . S
C182 O205 1.283 . S
C183 O195 1.281 . S
C183 O196 1.236 . S
C184 O206 1.240 . S
C184 O207 1.264 . S
O185 Mn180 2.095 . S
O185 C194 1.250 . S
O186 Mn181 2.121 . S
O186 C194 1.258 . S
C187 N188 1.326 . S
C187 C191 1.460 . S
C187 H193 0.929 . S
N188 Mn181 2.257 . S
N188 C187 1.326 . S
N188 C192 1.362 . S
C189 C190 1.258 . S
C189 C192 1.431 . S
C189 C209 1.449 . S
C190 C189 1.258 . S
C190 C191 1.477 . S
C190 H210 0.931 . S
C191 C187 1.460 . S
C191 C190 1.477 . S
C191 H211 0.930 . S
C192 N188 1.362 . S
C192 C189 1.431 . S
C192 C202 1.476 . S
H193 C187 0.929 . S
C194 O185 1.250 . S
C194 O186 1.258 . S
O195 Mn180 2.162 . S
O195 C183 1.281 . S
O196 Mn180 2.297 . S
O196 C183 1.236 . S
N197 Mn181 2.282 . S
N197 C198 1.328 . S
N197 C202 1.318 . S
C198 N197 1.328 . S
C198 C199 1.457 . S
C198 H203 0.929 . S
C199 C198 1.457 . S
C199 C200 1.291 . S
C199 H212 0.931 . S
C200 C199 1.291 . S
C200 C201 1.373 . S
C200 H213 0.929 . S
C201 C200 1.373 . S
C201 C202 1.396 . S
C201 C208 1.403 . S
C202 C192 1.476 . S
C202 N197 1.318 . S
C202 C201 1.396 . S
H203 C198 0.929 . S
O204 Mn180 2.385 . S
O204 C182 1.234 . S
O205 Mn180 2.209 . S
O205 Mn181 2.215 . S
O205 C182 1.283 . S
O206 Mn180 2.094 . S
O206 C184 1.240 . S
O207 Mn181 2.117 . S
O207 C184 1.264 . S
C208 C201 1.403 . S
C208 C209 1.399 . S
C208 H214 0.929 . S
C209 C189 1.449 . S
C209 C208 1.399 . S
C209 H215 0.930 . S
H210 C190 0.931 . S
H211 C191 0.930 . S
H212 C199 0.931 . S
H213 C200 0.929 . S
H214 C208 0.929 . S
H215 C209 0.930 . S
H216 C217 0.951 . S
C217 H216 0.951 . S
C217 C223 1.265 . S
H218 C223 0.950 . S
H219 C227 0.949 . S
H220 C228 0.950 . S
H221 C229 0.951 . S
H222 C230 0.951 . S
C223 C217 1.265 . S
C223 H218 0.950 . S
C223 C224 1.478 . S
C224 C223 1.478 . S
C224 C225 1.397 . S
C224 C241 1.394 . S
C225 C224 1.397 . S
C225 C226 1.438 1_545 S
C225 C230 1.429 . S
C226 C225 1.438 1_565 S
C226 C227 1.428 . S
C226 C239 1.394 . S
C227 H219 0.949 . S
C227 C226 1.428 . S
C227 C228 1.345 . S
C228 H220 0.950 . S
C228 C227 1.345 . S
C228 C229 1.424 1_565 S
C229 H221 0.951 . S
C229 C228 1.424 1_545 S
C229 C230 1.347 . S
C230 H222 0.951 . S
C230 C225 1.429 . S
C230 C229 1.347 . S
H231 C232 0.951 . S
C232 H231 0.951 . S
C232 C238 1.265 . S
H233 C238 0.950 . S
H234 C242 0.949 . S
H235 C243 0.950 . S
H236 C244 0.951 . S
H237 C245 0.951 . S
C238 C232 1.265 . S
C238 H233 0.950 . S
C238 C239 1.478 . S
C239 C226 1.394 . S
C239 C238 1.478 . S
C239 C240 1.397 . S
C240 C239 1.397 . S
C240 C241 1.438 1_565 S
C240 C245 1.429 . S
C241 C224 1.394 . S
C241 C240 1.438 1_545 S
C241 C242 1.428 . S
C242 H234 0.949 . S
C242 C241 1.428 . S
C242 C243 1.345 . S
C243 H235 0.950 . S
C243 C242 1.345 . S
C243 C244 1.424 1_545 S
C244 H236 0.951 . S
C244 C243 1.424 1_565 S
C244 C245 1.347 . S
C245 H237 0.951 . S
C245 C240 1.429 . S
C245 C244 1.347 . S
H246 C247 0.951 . S
C247 H246 0.951 . S
C247 C253 1.265 . S
H248 C253 0.950 . S
H249 C257 0.949 . S
H250 C258 0.950 . S
H251 C259 0.951 . S
H252 C260 0.951 . S
C253 C247 1.265 . S
C253 H248 0.950 . S
C253 C254 1.478 . S
C254 C253 1.478 . S
C254 C255 1.397 . S
C254 C271 1.394 . S
C255 C254 1.397 . S
C255 C256 1.438 . S
C255 C260 1.429 . S
C256 C255 1.438 . S
C256 C257 1.428 . S
C256 C269 1.394 . S
C257 H249 0.949 . S
C257 C256 1.428 . S
C257 C258 1.345 . S
C258 H250 0.950 . S
C258 C257 1.345 . S
C258 C259 1.424 . S
C259 H251 0.951 . S
C259 C258 1.424 . S
C259 C260 1.347 . S
C260 H252 0.951 . S
C260 C255 1.429 . S
C260 C259 1.347 . S
H261 C262 0.951 . S
C262 H261 0.951 . S
C262 C268 1.265 . S
H263 C268 0.950 . S
H264 C272 0.949 . S
H265 C273 0.950 . S
H266 C274 0.951 . S
H267 C275 0.951 . S
C268 C262 1.265 . S
C268 H263 0.950 . S
C268 C269 1.478 . S
C269 C256 1.394 . S
C269 C268 1.478 . S
C269 C270 1.397 . S
C270 C269 1.397 . S
C270 C271 1.438 . S
C270 C275 1.429 . S
C271 C254 1.394 . S
C271 C270 1.438 . S
C271 C272 1.428 . S
C272 H264 0.949 . S
C272 C271 1.428 . S
C272 C273 1.345 . S
C273 H265 0.950 . S
C273 C272 1.345 . S
C273 C274 1.424 . S
C274 H266 0.951 . S
C274 C273 1.424 . S
C274 C275 1.347 . S
C275 H267 0.951 . S
C275 C270 1.429 . S
C275 C274 1.347 . S
H276 C277 0.951 . S
C277 H276 0.951 . S
C277 C283 1.265 . S
H278 C283 0.950 . S
H279 C287 0.949 . S
H280 C288 0.950 . S
H281 C289 0.951 . S
H282 C290 0.951 . S
C283 C277 1.265 . S
C283 H278 0.950 . S
C283 C284 1.478 . S
C284 C283 1.478 . S
C284 C285 1.397 . S
C284 C301 1.394 . S
C285 C284 1.397 . S
C285 C286 1.438 1_655 S
C285 C290 1.429 . S
C286 C285 1.438 1_455 S
C286 C287 1.428 . S
C286 C299 1.394 . S
C287 H279 0.949 . S
C287 C286 1.428 . S
C287 C288 1.345 . S
C288 H280 0.950 . S
C288 C287 1.345 . S
C288 C289 1.424 1_455 S
C289 H281 0.951 . S
C289 C288 1.424 1_655 S
C289 C290 1.347 . S
C290 H282 0.951 . S
C290 C285 1.429 . S
C290 C289 1.347 . S
H291 C292 0.951 . S
C292 H291 0.951 . S
C292 C298 1.265 . S
H293 C298 0.950 . S
H294 C302 0.949 . S
H295 C303 0.950 . S
H296 C304 0.951 . S
H297 C305 0.951 . S
C298 C292 1.265 . S
C298 H293 0.950 . S
C298 C299 1.478 . S
C299 C286 1.394 . S
C299 C298 1.478 . S
C299 C300 1.397 . S
C300 C299 1.397 . S
C300 C301 1.438 1_455 S
C300 C305 1.429 . S
C301 C284 1.394 . S
C301 C300 1.438 1_655 S
C301 C302 1.428 . S
C302 H294 0.949 . S
C302 C301 1.428 . S
C302 C303 1.345 . S
C303 H295 0.950 . S
C303 C302 1.345 . S
C303 C304 1.424 1_655 S
C304 H296 0.951 . S
C304 C303 1.424 1_455 S
C304 C305 1.347 . S
C305 H297 0.951 . S
C305 C300 1.429 . S
C305 C304 1.347 . S
H306 C307 0.951 . S
C307 H306 0.951 . S
C307 C313 1.265 . S
H308 C313 0.950 . S
H309 C317 0.949 . S
H310 C318 0.950 . S
H311 C319 0.951 . S
H312 C320 0.951 . S
C313 C307 1.265 . S
C313 H308 0.950 . S
C313 C314 1.478 . S
C314 C313 1.478 . S
C314 C315 1.397 . S
C314 C331 1.394 . S
C315 C314 1.397 . S
C315 C316 1.438 1_455 S
C315 C320 1.429 . S
C316 C315 1.438 1_655 S
C316 C317 1.428 . S
C316 C329 1.394 . S
C317 H309 0.949 . S
C317 C316 1.428 . S
C317 C318 1.345 . S
C318 H310 0.950 . S
C318 C317 1.345 . S
C318 C319 1.424 . S
C319 H311 0.951 . S
C319 C318 1.424 . S
C319 C320 1.347 1_655 S
C320 H312 0.951 . S
C320 C315 1.429 . S
C320 C319 1.347 1_455 S
H321 C322 0.951 . S
C322 H321 0.951 . S
C322 C328 1.265 . S
H323 C328 0.950 . S
H324 C332 0.949 . S
H325 C333 0.950 . S
H326 C334 0.951 . S
H327 C335 0.951 . S
C328 C322 1.265 . S
C328 H323 0.950 . S
C328 C329 1.478 . S
C329 C316 1.394 . S
C329 C328 1.478 . S
C329 C330 1.397 . S
C330 C329 1.397 . S
C330 C331 1.438 1_655 S
C330 C335 1.429 . S
C331 C314 1.394 . S
C331 C330 1.438 1_455 S
C331 C332 1.428 . S
C332 H324 0.949 . S
C332 C331 1.428 . S
C332 C333 1.345 . S
C333 H325 0.950 . S
C333 C332 1.345 . S
C333 C334 1.424 . S
C334 H326 0.951 . S
C334 C333 1.424 . S
C334 C335 1.347 1_455 S
C335 H327 0.951 . S
C335 C330 1.429 . S
C335 C334 1.347 1_655 S
H336 C337 0.951 . S
C337 H336 0.951 . S
C337 C343 1.265 . S
H338 C343 0.950 . S
H339 C347 0.949 . S
H340 C348 0.950 . S
H341 C349 0.951 . S
H342 C350 0.951 . S
C343 C337 1.265 . S
C343 H338 0.950 . S
C343 C344 1.478 . S
C344 C343 1.478 . S
C344 C345 1.397 . S
C344 C361 1.394 . S
C345 C344 1.397 . S
C345 C346 1.438 1_565 S
C345 C350 1.429 . S
C346 C345 1.438 1_545 S
C346 C347 1.428 . S
C346 C359 1.394 . S
C347 H339 0.949 . S
C347 C346 1.428 . S
C347 C348 1.345 . S
C348 H340 0.950 . S
C348 C347 1.345 . S
C348 C349 1.411 1_545 S
C349 H341 0.951 . S
C349 C348 1.411 1_565 S
C349 C350 1.360 . S
C350 H342 0.951 . S
C350 C345 1.429 . S
C350 C349 1.360 . S
H351 C352 0.951 . S
C352 H351 0.951 . S
C352 C358 1.265 . S
H353 C358 0.950 . S
H354 C362 0.949 . S
H355 C363 0.950 . S
H356 C364 0.951 . S
H357 C365 0.951 . S
C358 C352 1.265 . S
C358 H353 0.950 . S
C358 C359 1.478 . S
C359 C346 1.394 . S
C359 C358 1.478 . S
C359 C360 1.397 . S
C360 C359 1.397 . S
C360 C361 1.438 1_545 S
C360 C365 1.429 . S
C361 C344 1.394 . S
C361 C360 1.438 1_565 S
C361 C362 1.428 . S
C362 H354 0.949 . S
C362 C361 1.428 . S
C362 C363 1.345 . S
C363 H355 0.950 . S
C363 C362 1.345 . S
C363 C364 1.411 1_565 S
C364 H356 0.951 . S
C364 C363 1.411 1_545 S
C364 C365 1.360 . S
C365 H357 0.951 . S
C365 C360 1.429 . S
C365 C364 1.360 . S
H366 C367 0.951 . S
C367 H366 0.951 . S
C367 C373 1.265 . S
H368 C373 0.950 . S
H369 C377 0.949 . S
H370 C378 0.950 . S
H371 C379 0.951 . S
H372 C380 0.951 . S
C373 C367 1.265 . S
C373 H368 0.950 . S
C373 C374 1.478 . S
C374 C373 1.478 . S
C374 C375 1.397 . S
C374 C391 1.394 . S
C375 C374 1.397 . S
C375 C376 1.438 . S
C375 C380 1.429 . S
C376 C375 1.438 . S
C376 C377 1.428 . S
C376 C389 1.394 . S
C377 H369 0.949 . S
C377 C376 1.428 . S
C377 C378 1.345 . S
C378 H370 0.950 . S
C378 C377 1.345 . S
C378 C379 1.424 . S
C379 H371 0.951 . S
C379 C378 1.424 . S
C379 C380 1.347 . S
C380 H372 0.951 . S
C380 C375 1.429 . S
C380 C379 1.347 . S
H381 C382 0.951 . S
C382 H381 0.951 . S
C382 C388 1.265 . S
H383 C388 0.950 . S
H384 C392 0.949 . S
H385 C393 0.950 . S
H386 C394 0.951 . S
H387 C395 0.951 . S
C388 C382 1.265 . S
C388 H383 0.950 . S
C388 C389 1.478 . S
C389 C376 1.394 . S
C389 C388 1.478 . S
C389 C390 1.397 . S
C390 C389 1.397 . S
C390 C391 1.438 . S
C390 C395 1.429 . S
C391 C374 1.394 . S
C391 C390 1.438 . S
C391 C392 1.428 . S
C392 H384 0.949 . S
C392 C391 1.428 . S
C392 C393 1.345 . S
C393 H385 0.950 . S
C393 C392 1.345 . S
C393 C394 1.424 . S
C394 H386 0.951 . S
C394 C393 1.424 . S
C394 C395 1.347 . S
C395 H387 0.951 . S
C395 C390 1.429 . S
C395 C394 1.347 . S
H396 C397 0.951 . S
C397 H396 0.951 . S
C397 C403 1.265 . S
H398 C403 0.950 . S
H399 C407 0.949 . S
H400 C408 0.950 . S
H401 C409 0.951 . S
H402 C410 0.951 . S
C403 C397 1.265 . S
C403 H398 0.950 . S
C403 C404 1.478 . S
C404 C403 1.478 . S
C404 C405 1.397 . S
C404 C421 1.394 . S
C405 C404 1.397 . S
C405 C406 1.438 1_556 S
C405 C410 1.429 . S
C406 C405 1.438 1_554 S
C406 C407 1.428 . S
C406 C419 1.394 . S
C407 H399 0.949 . S
C407 C406 1.428 . S
C407 C408 1.345 . S
C408 H400 0.950 . S
C408 C407 1.345 . S
C408 C409 1.424 1_554 S
C409 H401 0.951 . S
C409 C408 1.424 1_556 S
C409 C410 1.347 . S
C410 H402 0.951 . S
C410 C405 1.429 . S
C410 C409 1.347 . S
H411 C412 0.951 . S
C412 H411 0.951 . S
C412 C418 1.265 . S
H413 C418 0.950 . S
H414 C422 0.949 . S
H415 C423 0.950 . S
H416 C424 0.951 . S
H417 C425 0.951 . S
C418 C412 1.265 . S
C418 H413 0.950 . S
C418 C419 1.478 . S
C419 C406 1.394 . S
C419 C418 1.478 . S
C419 C420 1.397 . S
C420 C419 1.397 . S
C420 C421 1.438 1_554 S
C420 C425 1.429 . S
C421 C404 1.394 . S
C421 C420 1.438 1_556 S
C421 C422 1.428 . S
C422 H414 0.949 . S
C422 C421 1.428 . S
C422 C423 1.345 . S
C423 H415 0.950 . S
C423 C422 1.345 . S
C423 C424 1.424 1_556 S
C424 H416 0.951 . S
C424 C423 1.424 1_554 S
C424 C425 1.347 . S
C425 H417 0.951 . S
C425 C420 1.429 . S
C425 C424 1.347 . S
H426 C427 0.951 . S
C427 H426 0.951 . S
C427 C433 1.265 . S
H428 C433 0.950 . S
H429 C437 0.949 . S
H430 C438 0.950 . S
H431 C439 0.951 . S
H432 C440 0.951 . S
C433 C427 1.265 . S
C433 H428 0.950 . S
C433 C434 1.478 . S
C434 C433 1.478 . S
C434 C435 1.397 . S
C434 C451 1.394 . S
C435 C434 1.397 . S
C435 C436 1.438 . S
C435 C440 1.429 . S
C436 C435 1.438 . S
C436 C437 1.428 . S
C436 C449 1.394 . S
C437 H429 0.949 . S
C437 C436 1.428 . S
C437 C438 1.345 . S
C438 H430 0.950 . S
C438 C437 1.345 . S
C438 C439 1.424 . S
C439 H431 0.951 . S
C439 C438 1.424 . S
C439 C440 1.347 . S
C440 H432 0.951 . S
C440 C435 1.429 . S
C440 C439 1.347 . S
H441 C442 0.951 . S
C442 H441 0.951 . S
C442 C448 1.265 . S
H443 C448 0.950 . S
H444 C452 0.949 . S
H445 C453 0.950 . S
H446 C454 0.951 . S
H447 C455 0.951 . S
C448 C442 1.265 . S
C448 H443 0.950 . S
C448 C449 1.478 . S
C449 C436 1.394 . S
C449 C448 1.478 . S
C449 C450 1.397 . S
C450 C449 1.397 . S
C450 C451 1.438 . S
C450 C455 1.429 . S
C451 C434 1.394 . S
C451 C450 1.438 . S
C451 C452 1.428 . S
C452 H444 0.949 . S
C452 C451 1.428 . S
C452 C453 1.345 . S
C453 H445 0.950 . S
C453 C452 1.345 . S
C453 C454 1.424 . S
C454 H446 0.951 . S
C454 C453 1.424 . S
C454 C455 1.347 . S
C455 H447 0.951 . S
C455 C450 1.429 . S
C455 C454 1.347 . S
H456 C457 0.951 . S
C457 H456 0.951 . S
C457 C463 1.265 . S
H458 C463 0.950 . S
H459 C467 0.949 . S
H460 C468 0.950 . S
H461 C469 0.951 . S
H462 C470 0.951 . S
C463 C457 1.265 . S
C463 H458 0.950 . S
C463 C464 1.478 . S
C464 C463 1.478 . S
C464 C465 1.397 . S
C464 C481 1.394 . S
C465 C464 1.397 . S
C465 C466 1.438 . S
C465 C470 1.429 . S
C466 C465 1.438 . S
C466 C467 1.428 . S
C466 C479 1.394 . S
C467 H459 0.949 . S
C467 C466 1.428 . S
C467 C468 1.345 . S
C468 H460 0.950 . S
C468 C467 1.345 . S
C468 C469 1.424 . S
C469 H461 0.951 . S
C469 C468 1.424 . S
C469 C470 1.347 . S
C470 H462 0.951 . S
C470 C465 1.429 . S
C470 C469 1.347 . S
H471 C472 0.951 . S
C472 H471 0.951 . S
C472 C478 1.265 . S
H473 C478 0.950 . S
H474 C482 0.949 . S
H475 C483 0.950 . S
H476 C484 0.951 . S
H477 C485 0.951 . S
C478 C472 1.265 . S
C478 H473 0.950 . S
C478 C479 1.478 . S
C479 C466 1.394 . S
C479 C478 1.478 . S
C479 C480 1.397 . S
C480 C479 1.397 . S
C480 C481 1.438 . S
C480 C485 1.429 . S
C481 C464 1.394 . S
C481 C480 1.438 . S
C481 C482 1.428 . S
C482 H474 0.949 . S
C482 C481 1.428 . S
C482 C483 1.345 . S
C483 H475 0.950 . S
C483 C482 1.345 . S
C483 C484 1.424 . S
C484 H476 0.951 . S
C484 C483 1.424 . S
C484 C485 1.347 . S
C485 H477 0.951 . S
C485 C480 1.429 . S
C485 C484 1.347 . S
H486 C487 0.951 . S
C487 H486 0.951 . S
C487 C493 1.265 . S
H488 C493 0.950 . S
H489 C497 0.949 . S
H490 C498 0.950 . S
H491 C499 0.951 . S
H492 C500 0.951 . S
C493 C487 1.265 . S
C493 H488 0.950 . S
C493 C494 1.478 . S
C494 C493 1.478 . S
C494 C495 1.397 . S
C494 C511 1.394 . S
C495 C494 1.397 . S
C495 C496 1.438 1_556 S
C495 C500 1.429 . S
C496 C495 1.438 1_554 S
C496 C497 1.428 . S
C496 C509 1.394 . S
C497 H489 0.949 . S
C497 C496 1.428 . S
C497 C498 1.345 . S
C498 H490 0.950 . S
C498 C497 1.345 . S
C498 C499 1.424 1_554 S
C499 H491 0.951 . S
C499 C498 1.424 1_556 S
C499 C500 1.347 . S
C500 H492 0.951 . S
C500 C495 1.429 . S
C500 C499 1.347 . S
H501 C502 0.951 . S
C502 H501 0.951 . S
C502 C508 1.265 . S
H503 C508 0.950 . S
H504 C512 0.949 . S
H505 C513 0.950 . S
H506 C514 0.951 . S
H507 C515 0.951 . S
C508 C502 1.265 . S
C508 H503 0.950 . S
C508 C509 1.478 . S
C509 C496 1.394 . S
C509 C508 1.478 . S
C509 C510 1.397 . S
C510 C509 1.397 . S
C510 C511 1.438 1_554 S
C510 C515 1.429 . S
C511 C494 1.394 . S
C511 C510 1.438 1_556 S
C511 C512 1.428 . S
C512 H504 0.949 . S
C512 C511 1.428 . S
C512 C513 1.345 . S
C513 H505 0.950 . S
C513 C512 1.345 . S
C513 C514 1.424 1_556 S
C514 H506 0.951 . S
C514 C513 1.424 1_554 S
C514 C515 1.347 . S
C515 H507 0.951 . S
C515 C510 1.429 . S
C515 C514 1.347 . S
H516 C517 0.951 . S
C517 H516 0.951 . S
C517 C523 1.265 . S
H518 C523 0.950 . S
H519 C527 0.949 . S
H520 C528 0.950 . S
H521 C529 0.951 . S
H522 C530 0.951 . S
C523 C517 1.265 . S
C523 H518 0.950 . S
C523 C524 1.478 . S
C524 C523 1.478 . S
C524 C525 1.397 . S
C524 C541 1.394 . S
C525 C524 1.397 . S
C525 C526 1.438 . S
C525 C530 1.429 . S
C526 C525 1.438 . S
C526 C527 1.428 . S
C526 C539 1.394 . S
C527 H519 0.949 . S
C527 C526 1.428 . S
C527 C528 1.345 . S
C528 H520 0.950 . S
C528 C527 1.345 . S
C528 C529 1.424 . S
C529 H521 0.951 . S
C529 C528 1.424 . S
C529 C530 1.347 . S
C530 H522 0.951 . S
C530 C525 1.429 . S
C530 C529 1.347 . S
H531 C532 0.951 . S
C532 H531 0.951 . S
C532 C538 1.265 . S
H533 C538 0.950 . S
H534 C542 0.949 . S
H535 C543 0.950 . S
H536 C544 0.951 . S
H537 C545 0.951 . S
C538 C532 1.265 . S
C538 H533 0.950 . S
C538 C539 1.478 . S
C539 C526 1.394 . S
C539 C538 1.478 . S
C539 C540 1.397 . S
C540 C539 1.397 . S
C540 C541 1.438 . S
C540 C545 1.429 . S
C541 C524 1.394 . S
C541 C540 1.438 . S
C541 C542 1.428 . S
C542 H534 0.949 . S
C542 C541 1.428 . S
C542 C543 1.345 . S
C543 H535 0.950 . S
C543 C542 1.345 . S
C543 C544 1.424 . S
C544 H536 0.951 . S
C544 C543 1.424 . S
C544 C545 1.347 . S
C545 H537 0.951 . S
C545 C540 1.429 . S
C545 C544 1.347 . S
H546 C547 0.951 . S
C547 H546 0.951 . S
C547 C553 1.265 . S
H548 C553 0.950 . S
H549 C557 0.949 . S
H550 C558 0.950 . S
H551 C559 0.951 . S
H552 C560 0.951 . S
C553 C547 1.265 . S
C553 H548 0.950 . S
C553 C554 1.478 . S
C554 C553 1.478 . S
C554 C555 1.397 . S
C554 C571 1.394 . S
C555 C554 1.397 . S
C555 C556 1.438 . S
C555 C560 1.429 . S
C556 C555 1.438 . S
C556 C557 1.428 . S
C556 C569 1.394 . S
C557 H549 0.949 . S
C557 C556 1.428 . S
C557 C558 1.345 . S
C558 H550 0.950 . S
C558 C557 1.345 . S
C558 C559 1.424 . S
C559 H551 0.951 . S
C559 C558 1.424 . S
C559 C560 1.347 . S
C560 H552 0.951 . S
C560 C555 1.429 . S
C560 C559 1.347 . S
H561 C562 0.951 . S
C562 H561 0.951 . S
C562 C568 1.265 . S
H563 C568 0.950 . S
H564 C572 0.949 . S
H565 C573 0.950 . S
H566 C574 0.951 . S
H567 C575 0.951 . S
C568 C562 1.265 . S
C568 H563 0.950 . S
C568 C569 1.478 . S
C569 C556 1.394 . S
C569 C568 1.478 . S
C569 C570 1.397 . S
C570 C569 1.397 . S
C570 C571 1.438 . S
C570 C575 1.429 . S
C571 C554 1.394 . S
C571 C570 1.438 . S
C571 C572 1.428 . S
C572 H564 0.949 . S
C572 C571 1.428 . S
C572 C573 1.345 . S
C573 H565 0.950 . S
C573 C572 1.345 . S
C573 C574 1.424 . S
C574 H566 0.951 . S
C574 C573 1.424 . S
C574 C575 1.347 . S
C575 H567 0.951 . S
C575 C570 1.429 . S
C575 C574 1.347 . S
C217 C3 1.437 . S
C232 C111 1.436 . S
C247 C39 1.424 . S
C262 C147 1.424 . S
C277 C76 1.434 . S
C292 C184 1.435 . S
C307 C40 1.364 . S
C322 C148 1.362 . S
C337 C183 1.406 . S
C352 C75 1.406 . S
C367 C112 1.376 . S
C382 C4 1.376 . S
C397 C74 1.194 . S
C412 C2 1.197 . S
C427 C122 1.147 . S
C442 C38 1.133 . S
C457 C86 1.261 . S
C472 C158 1.174 . S
C487 C182 1.193 . S
C502 C110 1.198 . S
C517 C146 1.151 . S
C532 C14 1.238 . S
C547 C194 1.170 . S
C562 C50 1.255 . S
