# Generated by pormake.
# Topology snk, (6)-cn, num edge types: 1
# Building blocks:
#     Node 0, Type 0, BuildingBlock: BETFAJ_clean_sbu_0, # of connection points: 6
#     Node 1, Type 0, BuildingBlock: BETFAJ_clean_sbu_0, # of connection points: 6
#     Node 2, Type 0, BuildingBlock: BETFAJ_clean_sbu_0, # of connection points: 6
#     Node 3, Type 0, BuildingBlock: BETFAJ_clean_sbu_0, # of connection points: 6
#     Node 4, Type 0, BuildingBlock: BETFAJ_clean_sbu_0, # of connection points: 6
#     Node 5, Type 0, BuildingBlock: BETFAJ_clean_sbu_0, # of connection points: 6
#     Node 6, Type 0, BuildingBlock: BETFAJ_clean_sbu_0, # of connection points: 6
#     Node 7, Type 0, BuildingBlock: BETFAJ_clean_sbu_0, # of connection points: 6
#     Edge 8, Type (0, 0), BuildingBlock: UVAHIK_clean_linker_0, # of connection points: 2
#     Edge 9, Type (0, 0), BuildingBlock: UVAHIK_clean_linker_0, # of connection points: 2
#     Edge 10, Type (0, 0), BuildingBlock: UVAHIK_clean_linker_0, # of connection points: 2
#     Edge 11, Type (0, 0), BuildingBlock: UVAHIK_clean_linker_0, # of connection points: 2
#     Edge 12, Type (0, 0), BuildingBlock: UVAHIK_clean_linker_0, # of connection points: 2
#     Edge 13, Type (0, 0), BuildingBlock: UVAHIK_clean_linker_0, # of connection points: 2
#     Edge 14, Type (0, 0), BuildingBlock: UVAHIK_clean_linker_0, # of connection points: 2
#     Edge 15, Type (0, 0), BuildingBlock: UVAHIK_clean_linker_0, # of connection points: 2
#     Edge 16, Type (0, 0), BuildingBlock: UVAHIK_clean_linker_0, # of connection points: 2
#     Edge 17, Type (0, 0), BuildingBlock: UVAHIK_clean_linker_0, # of connection points: 2
#     Edge 18, Type (0, 0), BuildingBlock: UVAHIK_clean_linker_0, # of connection points: 2
#     Edge 19, Type (0, 0), BuildingBlock: UVAHIK_clean_linker_0, # of connection points: 2
#     Edge 20, Type (0, 0), BuildingBlock: UVAHIK_clean_linker_0, # of connection points: 2
#     Edge 21, Type (0, 0), BuildingBlock: UVAHIK_clean_linker_0, # of connection points: 2
#     Edge 22, Type (0, 0), BuildingBlock: UVAHIK_clean_linker_0, # of connection points: 2
#     Edge 23, Type (0, 0), BuildingBlock: UVAHIK_clean_linker_0, # of connection points: 2
#     Edge 24, Type (0, 0), BuildingBlock: UVAHIK_clean_linker_0, # of connection points: 2
#     Edge 25, Type (0, 0), BuildingBlock: UVAHIK_clean_linker_0, # of connection points: 2
#     Edge 26, Type (0, 0), BuildingBlock: UVAHIK_clean_linker_0, # of connection points: 2
#     Edge 27, Type (0, 0), BuildingBlock: UVAHIK_clean_linker_0, # of connection points: 2
#     Edge 28, Type (0, 0), BuildingBlock: UVAHIK_clean_linker_0, # of connection points: 2
#     Edge 29, Type (0, 0), BuildingBlock: UVAHIK_clean_linker_0, # of connection points: 2
#     Edge 30, Type (0, 0), BuildingBlock: UVAHIK_clean_linker_0, # of connection points: 2
#     Edge 31, Type (0, 0), BuildingBlock: UVAHIK_clean_linker_0, # of connection points: 2
# Relax obj value: 0.080
# Max RMSD: 0.135
# Mean RMSD: 0.118
data_MOF--net-snk--node1-BETFAJ_clean_sbu_0--edge1-UVAHIK_clean_linker_0
_symmetry_space_group_name_H-M    P1
_symmetry_Int_Tables_number       1
_symmetry_cell_setting            triclinic
loop_
_symmetry_equiv_pos_as_xyz
'x, y, z'
_cell_length_a     50.167317
_cell_length_b     49.987163
_cell_length_c     30.088601
_cell_angle_alpha  83.354279
_cell_angle_beta   96.64112
_cell_angle_gamma 89.012097
loop_
_atom_site_label
_atom_site_type_symbol
_atom_site_fract_x
_atom_site_fract_y
_atom_site_fract_z
_atom_type_partial_charge
Sm0 Sm 0.99173 1.00292 0.46121 0.0
Sm1 Sm 0.02127 0.01217 0.55565 0.0
C2 C 0.96642 0.00757 0.37809 0.0
C3 C 0.97278 0.01008 0.33127 0.0
C4 C 0.95209 0.01596 0.29583 0.0
C5 C 0.95744 0.01698 0.25106 0.0
C6 C 0.98364 0.01207 0.24086 0.0
C7 C 0.00444 0.00658 0.27665 0.0
C8 C 0.99906 0.00564 0.32146 0.0
C9 C 0.03258 0.96651 0.49581 0.0
C10 C 0.04462 0.04172 0.46818 0.0
C11 C 0.04641 0.00784 0.63887 0.0
C12 C 0.03994 0.0063 0.68555 0.0
C13 C 0.06054 1.00073 0.72122 0.0
C14 C 0.05502 1.00006 0.76585 0.0
C15 C 0.02873 0.00498 0.77567 0.0
C16 C 0.00805 0.01028 0.73964 0.0
C17 C 0.01361 0.01088 0.69496 0.0
C18 C 0.98123 0.04901 0.52036 0.0
C19 C 0.96794 0.97355 0.54862 0.0
O20 O 0.97151 0.02822 0.40047 0.0
O21 O 0.97293 0.98443 0.40229 0.0
O22 O 0.03248 0.99137 0.49824 0.0
O23 O 0.01137 0.96001 0.47093 0.0
O24 O 0.02144 0.03675 0.44519 0.0
O25 O 0.05163 0.03026 0.50989 0.0
O26 O 0.04036 0.98704 0.61735 0.0
O27 O 0.04085 0.03088 0.61382 0.0
O28 O 0.98054 0.02407 0.51857 0.0
O29 O 1.00278 0.05534 0.54459 0.0
O30 O 0.99048 0.97948 0.57255 0.0
O31 O 0.96167 0.98371 0.50606 0.0
H32 H 0.93166 0.01934 0.3028 0.0
H33 H 0.94088 0.02092 0.22447 0.0
H34 H 0.02489 1.00306 0.27002 0.0
H35 H 0.01532 1.00114 0.34846 0.0
H36 H 0.08099 0.9972 0.71455 0.0
H37 H 0.07148 0.99626 0.79263 0.0
H38 H 0.98755 0.01383 0.74598 0.0
H39 H 0.99742 0.01509 0.66775 0.0
Sm40 Sm 0.23996 0.73646 0.8331 0.0
Sm41 Sm 0.24948 0.76507 0.73796 0.0
C42 C 0.2439 0.71086 0.91596 0.0
C43 C 0.24591 0.71715 0.96274 0.0
C44 C 0.25299 0.69659 0.99811 0.0
C45 C 0.25407 0.70192 0.04288 0.0
C46 C 0.24803 0.72796 0.0531 0.0
C47 C 0.24127 0.74863 0.01738 0.0
C48 C 0.24027 0.74327 0.97257 0.0
C49 C 0.20639 0.77998 0.79992 0.0
C50 C 0.28209 0.78663 0.82455 0.0
C51 C 0.24573 0.79051 0.65498 0.0
C52 C 0.24443 0.78408 0.60834 0.0
C53 C 0.23754 0.8045 0.57267 0.0
C54 C 0.23701 0.79902 0.52805 0.0
C55 C 0.2434 0.77296 0.51828 0.0
C56 C 0.25006 0.75246 0.5543 0.0
C57 C 0.25051 0.75797 0.59896 0.0
C58 C 0.28332 0.72187 0.77133 0.0
C59 C 0.20749 0.71497 0.74612 0.0
O60 O 0.26471 0.71629 0.89432 0.0
O61 O 0.22099 0.71725 0.89118 0.0
O62 O 0.23096 0.77789 0.79656 0.0
O63 O 0.19871 0.75938 0.8251 0.0
O64 O 0.27625 0.76374 0.8478 0.0
O65 O 0.27014 0.79426 0.78339 0.0
O66 O 0.22482 0.78452 0.67606 0.0
O67 O 0.26855 0.78477 0.68035 0.0
O68 O 0.25872 0.72363 0.77469 0.0
O69 O 0.29069 0.74245 0.74578 0.0
O70 O 0.21323 0.73798 0.72322 0.0
O71 O 0.21929 0.70727 0.78738 0.0
H72 H 0.25738 0.6763 0.99109 0.0
H73 H 0.25903 0.68548 0.06949 0.0
H74 H 0.23685 0.76896 0.02406 0.0
H75 H 0.2349 0.75943 0.94559 0.0
H76 H 0.23284 0.82479 0.57935 0.0
H77 H 0.23213 0.81535 0.50122 0.0
H78 H 0.25475 0.73211 0.54797 0.0
H79 H 0.25577 0.74192 0.62617 0.0
Sm80 Sm 0.51598 0.99017 0.06369 0.0
Sm81 Sm 0.49124 0.0113 0.96765 0.0
C82 C 0.53852 0.9841 0.14854 0.0
C83 C 0.53198 0.98626 0.19446 0.0
C84 C 0.51439 0.00657 0.20348 0.0
C85 C 0.50921 0.00858 0.24772 0.0
C86 C 0.52144 0.99025 0.28362 0.0
C87 C 0.53881 0.96979 0.27421 0.0
C88 C 0.54402 0.96785 0.23007 0.0
C89 C 0.47732 0.95833 0.02693 0.0
C90 C 0.46373 0.03332 0.0485 0.0
C91 C 0.4688 0.01772 0.88276 0.0
C92 C 0.47533 0.01555 0.83684 0.0
C93 C 0.49287 0.9952 0.82781 0.0
C94 C 0.49813 0.99325 0.7836 0.0
C95 C 0.48602 0.01168 0.74772 0.0
C96 C 0.46868 0.03217 0.75714 0.0
C97 C 0.4634 0.03405 0.80126 0.0
C98 C 0.52991 0.04296 1.00512 0.0
C99 C 0.54363 0.96846 0.98244 0.0
O100 O 0.53885 0.00654 0.1215 0.0
O101 O 0.52791 0.9643 0.12848 0.0
O102 O 0.47617 0.98373 0.02303 0.0
O103 O 0.49846 0.94882 0.05336 0.0
O104 O 0.48495 0.02281 0.07557 0.0
O105 O 0.45941 0.02855 1.00605 0.0
O106 O 0.46815 0.99527 0.90968 0.0
O107 O 0.47968 0.03735 0.90296 0.0
O108 O 0.53096 0.01761 1.0083 0.0
O109 O 0.50872 0.05266 0.97899 0.0
O110 O 0.52236 0.97892 0.95547 0.0
O111 O 0.54785 0.97299 0.02504 0.0
H112 H 0.50479 0.02095 0.17643 0.0
H113 H 0.4955 0.02438 0.25378 0.0
H114 H 0.54883 0.95557 0.3011 0.0
H115 H 0.55771 0.95209 0.22376 0.0
H116 H 0.50238 0.98076 0.85484 0.0
H117 H 0.51181 0.97743 0.77754 0.0
H118 H 0.45875 0.04646 0.73027 0.0
H119 H 0.44976 0.04984 0.80757 0.0
Sm120 Sm 0.24287 0.26997 0.20383 0.0
Sm121 Sm 0.26731 0.24772 0.29932 0.0
C122 C 0.23353 0.29075 0.11815 0.0
C123 C 0.23638 0.28407 0.07254 0.0
C124 C 0.2585 0.26881 0.06367 0.0
C125 C 0.26114 0.26367 0.0196 0.0
C126 C 0.24163 0.2736 0.98376 0.0
C127 C 0.21934 0.28854 0.99308 0.0
C128 C 0.21678 0.29373 0.03703 0.0
C129 C 0.21325 0.23153 0.24662 0.0
C130 C 0.28702 0.21849 0.21835 0.0
C131 C 0.27742 0.22721 0.38505 0.0
C132 C 0.27431 0.23364 0.4307 0.0
C133 C 0.25192 0.2485 0.43957 0.0
C134 C 0.24911 0.25348 0.48366 0.0
C135 C 0.2687 0.24377 0.51952 0.0
C136 C 0.29122 0.22919 0.51021 0.0
C137 C 0.29397 0.22418 0.46623 0.0
C138 C 0.29691 0.28585 0.25547 0.0
C139 C 0.22269 0.29858 0.28524 0.0
O140 O 0.25562 0.29439 0.14414 0.0
O141 O 0.21562 0.27767 0.1396 0.0
O142 O 0.23847 0.23073 0.24787 0.0
O143 O 0.20264 0.25225 0.22007 0.0
O144 O 0.27531 0.23901 0.19077 0.0
O145 O 0.28393 0.21518 0.2616 0.0
O146 O 0.25552 0.22273 0.35923 0.0
O147 O 0.29475 0.24111 0.36344 0.0
O148 O 0.27176 0.28684 0.25515 0.0
O149 O 0.30752 0.26493 0.2815 0.0
O150 O 0.23452 0.27804 0.31251 0.0
O151 O 0.22577 0.30219 0.24197 0.0
H152 H 0.27381 0.26104 0.09067 0.0
H153 H 0.27838 0.25185 0.0136 0.0
H154 H 0.20415 0.29676 0.96622 0.0
H155 H 0.19961 0.3056 0.04324 0.0
H156 H 0.23655 0.25608 0.41254 0.0
H157 H 0.23168 0.26503 0.48964 0.0
H158 H 0.30649 0.22112 0.53707 0.0
H159 H 0.31134 0.21262 0.46002 0.0
Sm160 Sm 0.742 0.23929 0.32074 0.0
Sm161 Sm 0.74732 0.27109 0.22641 0.0
C162 C 0.74901 0.21415 0.4042 0.0
C163 C 0.75056 0.22113 0.45078 0.0
C164 C 0.76029 0.20187 0.48689 0.0
C165 C 0.7605 0.2076 0.53142 0.0
C166 C 0.75091 0.23276 0.5408 0.0
C167 C 0.74157 0.25219 0.50431 0.0
C168 C 0.74145 0.24644 0.45976 0.0
C169 C 0.70249 0.27777 0.28928 0.0
C170 C 0.77736 0.29482 0.31238 0.0
C171 C 0.74035 0.29629 0.14293 0.0
C172 C 0.73911 0.28968 0.09617 0.0
C173 C 0.72896 0.30897 0.06038 0.0
C174 C 0.72894 0.30363 0.01568 0.0
C175 C 0.73912 0.27883 1.00578 0.0
C176 C 0.74889 0.25936 0.04195 0.0
C177 C 0.74885 0.26471 0.08668 0.0
C178 C 0.78656 0.23234 0.25752 0.0
C179 C 0.71182 0.21575 0.23455 0.0
O180 O 0.76897 0.22128 0.38138 0.0
O181 O 0.72559 0.2181 0.38001 0.0
O182 O 0.72707 0.27992 0.28593 0.0
O183 O 0.69808 0.25536 0.31319 0.0
O184 O 0.77441 0.27081 0.3347 0.0
O185 O 0.76432 0.30204 0.27187 0.0
O186 O 0.72041 0.28866 0.16541 0.0
O187 O 0.76373 0.2926 0.16736 0.0
O188 O 0.76201 0.23025 0.26099 0.0
O189 O 0.79121 0.25481 0.23403 0.0
O190 O 0.71479 0.23978 0.21235 0.0
O191 O 0.72485 0.20843 0.27507 0.0
H192 H 0.76733 0.18218 0.48067 0.0
H193 H 0.76755 0.19204 0.55853 0.0
H194 H 0.7344 0.27188 0.51017 0.0
H195 H 0.73394 0.26165 0.43232 0.0
H196 H 0.72142 0.32839 0.067 0.0
H197 H 0.72154 0.31924 0.98886 0.0
H198 H 0.75651 0.23991 0.03572 0.0
H199 H 0.75668 0.24948 0.11386 0.0
Sm200 Sm 0.74844 0.76873 0.71921 0.0
Sm201 Sm 0.77212 0.74464 0.8144 0.0
C202 C 0.74075 0.79095 0.63412 0.0
C203 C 0.74353 0.7845 0.58823 0.0
C204 C 0.76554 0.76918 0.57901 0.0
C205 C 0.76798 0.76406 0.53484 0.0
C206 C 0.74842 0.77408 0.49912 0.0
C207 C 0.72629 0.78916 0.50874 0.0
C208 C 0.72391 0.79431 0.55282 0.0
C209 C 0.71919 0.72837 0.75802 0.0
C210 C 0.79285 0.71753 0.73198 0.0
C211 C 0.78124 0.72306 0.89979 0.0
C212 C 0.77838 0.72939 0.9457 0.0
C213 C 0.75629 0.74459 0.95492 0.0
C214 C 0.75375 0.74957 0.99913 0.0
C215 C 0.77329 0.73952 0.03487 0.0
C216 C 0.79549 0.72456 0.02524 0.0
C217 C 0.79797 0.71955 0.98112 0.0
C218 C 0.80156 0.7841 0.77381 0.0
C219 C 0.72692 0.79519 0.80146 0.0
O220 O 0.76288 0.79318 0.66096 0.0
O221 O 0.72192 0.77878 0.6546 0.0
O222 O 0.74443 0.72846 0.76051 0.0
O223 O 0.70836 0.74918 0.73194 0.0
O224 O 0.78133 0.73859 0.70554 0.0
O225 O 0.78939 0.7131 0.77507 0.0
O226 O 0.75917 0.71972 0.87351 0.0
O227 O 0.79927 0.7362 0.87868 0.0
O228 O 0.77639 0.7847 0.77299 0.0
O229 O 0.81231 0.76277 0.79851 0.0
O230 O 0.73874 0.77433 0.82801 0.0
O231 O 0.73046 0.79973 0.75847 0.0
H232 H 0.7809 0.76131 0.60585 0.0
H233 H 0.7851 0.75211 0.5287 0.0
H234 H 0.71105 0.79748 0.48204 0.0
H235 H 0.70682 0.80623 0.55921 0.0
H236 H 0.74096 0.75247 0.92805 0.0
H237 H 0.73657 0.76144 1.00528 0.0
H238 H 0.81071 0.71621 0.05195 0.0
H239 H 0.81511 0.70771 0.97472 0.0
Sm240 Sm 0.49487 0.49144 0.93223 0.0
Sm241 Sm 0.52316 0.49724 0.02903 0.0
C242 C 0.47286 0.4956 0.84693 0.0
C243 C 0.47973 0.50376 0.80102 0.0
C244 C 0.45913 0.50864 0.76514 0.0
C245 C 0.46512 0.51206 0.72055 0.0
C246 C 0.49187 0.51049 0.71094 0.0
C247 C 0.51255 0.5068 0.74719 0.0
C248 C 0.50654 0.50352 0.79179 0.0
C249 C 0.52751 0.44899 0.97294 0.0
C250 C 0.55094 0.5249 0.94169 0.0
C251 C 0.552 0.49682 0.10865 0.0
C252 C 0.54682 0.49699 0.15589 0.0
C253 C 0.56819 0.49315 0.19058 0.0
C254 C 0.56366 0.49394 0.23549 0.0
C255 C 0.5376 0.49863 0.24662 0.0
C256 C 0.51618 0.50225 0.21158 0.0
C257 C 0.52075 0.5014 0.16668 0.0
C258 C 0.47905 0.53052 1.00012 0.0
C259 C 0.46885 0.46319 0.01757 0.0
O260 O 0.46982 0.51438 0.87309 0.0
O261 O 0.48563 0.47405 0.86827 0.0
O262 O 0.5325 0.47347 0.97367 0.0
O263 O 0.50461 0.44586 0.94963 0.0
O264 O 0.53086 0.51672 0.91456 0.0
O265 O 0.55313 0.51905 0.98603 0.0
O266 O 0.54599 0.47483 0.09022 0.0
O267 O 0.54502 0.51892 0.08159 0.0
O268 O 0.49697 0.52458 0.97684 0.0
O269 O 0.48447 0.51974 0.04156 0.0
O270 O 0.49314 0.46357 0.03994 0.0
O271 O 0.46254 0.47741 0.97762 0.0
H272 H 0.43831 0.50869 0.77153 0.0
H273 H 0.44868 0.51465 0.69356 0.0
H274 H 0.53338 0.5059 0.74106 0.0
H275 H 0.52277 0.49977 0.819 0.0
H276 H 0.58847 0.48977 0.18289 0.0
H277 H 0.58068 0.49138 0.2614 0.0
H278 H 0.49582 0.50552 0.21888 0.0
H279 H 0.50395 0.50429 0.14035 0.0
Sm280 Sm 0.01511 0.49309 0.55318 0.0
Sm281 Sm 0.99092 0.51684 0.45777 0.0
C282 C 0.0369 0.48461 0.63845 0.0
C283 C 0.0306 0.48702 0.6845 0.0
C284 C 0.01552 0.50907 0.69434 0.0
C285 C 0.01092 0.51142 0.73878 0.0
C286 C 0.02133 0.49176 0.77418 0.0
C287 C 0.03599 0.46949 0.76388 0.0
C288 C 0.04058 0.46719 0.71953 0.0
C289 C 0.97566 0.46326 0.51335 0.0
C290 C 0.96403 0.53752 0.54048 0.0
C291 C 0.96878 0.52525 0.37272 0.0
C292 C 0.97474 0.52237 0.32665 0.0
C293 C 0.98993 0.50031 0.31715 0.0
C294 C 0.99438 0.49767 0.27274 0.0
C295 C 0.98374 0.51704 0.23705 0.0
C296 C 0.96893 0.5393 0.24702 0.0
C297 C 0.96448 0.54189 0.29133 0.0
C298 C 0.02956 0.54719 0.49826 0.0
C299 C 0.0425 0.47295 0.47057 0.0
O300 O 0.03918 0.507 0.61217 0.0
O301 O 0.0247 0.46597 0.61742 0.0
O302 O 0.97521 0.48858 0.51149 0.0
O303 O 0.99663 0.45263 0.53904 0.0
O304 O 0.98495 0.5259 0.56696 0.0
O305 O 0.9596 0.5341 0.49737 0.0
O306 O 0.96608 0.50308 0.39938 0.0
O307 O 0.98164 0.5437 0.39326 0.0
O308 O 0.03052 0.52186 0.4998 0.0
O309 O 0.00858 0.55752 0.47224 0.0
O310 O 0.0215 0.48436 0.44402 0.0
O311 O 0.0467 0.47625 0.51372 0.0
H312 H 0.00762 0.52466 0.66783 0.0
H313 H 0.99975 0.52894 0.74552 0.0
H314 H 0.04389 0.45374 0.79012 0.0
H315 H 0.05218 0.44998 0.71261 0.0
H316 H 0.99807 0.48499 0.34393 0.0
H317 H 0.00568 0.48016 0.26627 0.0
H318 H 0.96086 0.55485 0.22057 0.0
H319 H 0.95282 0.55913 0.29801 0.0
C320 C 0.05391 0.0773 0.40692 0.0
C321 C 0.0633 0.05992 0.44586 0.0
C322 C 0.07132 0.09466 0.3857 0.0
C323 C 0.13809 0.12562 0.40437 0.0
H324 H 0.1265 0.14254 0.27438 0.0
C325 C 0.21021 0.18924 0.29922 0.0
C326 C 0.19748 0.21058 0.26937 0.0
C327 C 0.19498 0.16978 0.3212 0.0
C328 C 0.12991 0.13803 0.31072 0.0
H329 H 0.09842 0.04689 0.49285 0.0
H330 H 0.12906 0.07654 0.45499 0.0
H331 H 0.09822 0.11008 0.31168 0.0
H332 H 0.15897 0.22813 0.23857 0.0
H333 H 0.13246 0.19382 0.27607 0.0
H334 H 0.17026 0.15333 0.40282 0.0
C335 C 0.10808 0.07731 0.44141 0.0
C336 C 0.11361 0.11954 0.33222 0.0
C337 C 0.09054 0.06018 0.46303 0.0
C338 C 0.16933 0.21191 0.26141 0.0
C339 C 0.15415 0.19224 0.28273 0.0
C340 C 0.15467 0.14382 0.38272 0.0
C341 C 0.09869 0.09483 0.40244 0.0
C342 C 0.11716 0.11339 0.37943 0.0
C343 C 0.16681 0.17106 0.31296 0.0
C344 C 0.15046 0.15048 0.33576 0.0
H345 H 0.03297 0.07781 0.39307 0.0
H346 H 0.06312 0.10824 0.35646 0.0
H347 H 0.14126 0.12172 0.44077 0.0
H348 H 0.23189 0.1876 0.30563 0.0
H349 H 0.20521 0.15353 0.34414 0.0
C350 C 0.07153 0.95682 0.55434 0.0
C351 C 0.05184 0.94731 0.52364 0.0
C352 C 0.08816 0.93886 0.58441 0.0
C353 C 0.09417 0.86683 0.63329 0.0
H354 H 0.16537 0.8884 0.6767 0.0
C355 C 0.1608 0.80119 0.77539 0.0
C356 C 0.18846 0.80055 0.7724 0.0
C357 C 0.14389 0.81977 0.74646 0.0
C358 C 0.14572 0.88175 0.66456 0.0
H359 H 0.03502 0.91176 0.49794 0.0
H360 H 0.06545 0.88012 0.5484 0.0
H361 H 0.13798 0.91778 0.61948 0.0
H362 H 0.2204 0.81908 0.73814 0.0
H363 H 0.1911 0.84987 0.68593 0.0
H364 H 0.10285 0.82983 0.67602 0.0
C365 C 0.06716 0.90145 0.55104 0.0
C366 C 0.1297 0.89895 0.63218 0.0
C367 C 0.04994 0.91952 0.52172 0.0
C368 C 0.19906 0.81901 0.74091 0.0
C369 C 0.18221 0.83698 0.71128 0.0
C370 C 0.11054 0.84924 0.66481 0.0
C371 C 0.08617 0.9109 0.58335 0.0
C372 C 0.10361 0.89187 0.61636 0.0
C373 C 0.15436 0.83761 0.71351 0.0
C374 C 0.13652 0.85651 0.68095 0.0
H375 H 0.07358 0.97822 0.55616 0.0
H376 H 0.10208 0.94704 0.60919 0.0
H377 H 0.07404 0.86082 0.62261 0.0
H378 H 0.15223 0.78724 0.79974 0.0
H379 H 0.12265 0.82004 0.7499 0.0
C380 C 0.30264 0.8318 0.82799 0.0
C381 C 0.3016 0.8046 0.84577 0.0
C382 C 0.32111 0.84878 0.84792 0.0
C383 C 0.38633 0.84828 0.91566 0.0
H384 H 0.36342 0.91818 0.94403 0.0
C385 C 0.45847 0.91327 0.0173 0.0
C386 C 0.45658 0.94136 1.0066 0.0
C387 C 0.4392 0.89692 0.99787 0.0
C388 C 0.3703 0.89893 0.9357 0.0
H389 H 0.31925 0.77386 0.89823 0.0
H390 H 0.35188 0.80348 0.9325 0.0
H391 H 0.33059 0.8891 0.90929 0.0
H392 H 0.43298 0.9745 0.96748 0.0
H393 H 0.39987 0.94597 0.93196 0.0
H394 H 0.42609 0.85816 0.94065 0.0
C395 C 0.33826 0.81162 0.90329 0.0
C396 C 0.35142 0.88223 0.916 0.0
C397 C 0.3195 0.79473 0.8838 0.0
C398 C 0.43498 0.95286 0.97618 0.0
C399 C 0.41586 0.93648 0.95618 0.0
C400 C 0.40528 0.8651 0.93474 0.0
C401 C 0.33921 0.83882 0.88558 0.0
C402 C 0.35923 0.85668 0.90606 0.0
C403 C 0.41773 0.90824 0.96671 0.0
C404 C 0.39752 0.8906 0.94537 0.0
H405 H 0.28907 0.84005 0.7988 0.0
H406 H 0.32154 0.86962 0.83342 0.0
H407 H 0.39296 0.82883 0.90773 0.0
H408 H 0.47481 0.90385 0.04092 0.0
H409 H 0.44106 0.87538 1.0077 0.0
C410 C 0.42494 0.06682 0.03656 0.0
C411 C 0.4444 0.05104 0.06615 0.0
C412 C 0.40742 0.08437 0.05292 0.0
C413 C 0.39956 0.11967 0.15326 0.0
H414 H 0.32613 0.13152 0.09694 0.0
C415 C 0.32034 0.17957 0.23001 0.0
C416 C 0.30409 0.19869 0.20041 0.0
C417 C 0.33704 0.16135 0.21343 0.0
C418 C 0.34665 0.12858 0.11278 0.0
H419 H 0.4602 0.04094 0.1364 0.0
H420 H 0.42927 0.07094 0.16504 0.0
H421 H 0.35569 0.09964 0.06912 0.0
H422 H 0.29246 0.21332 0.12997 0.0
H423 H 0.3215 0.18131 0.10106 0.0
H424 H 0.39029 0.14833 0.19736 0.0
C425 C 0.42794 0.07032 0.129 0.0
C426 C 0.36366 0.11034 0.09678 0.0
C427 C 0.44562 0.05294 0.11259 0.0
C428 C 0.30472 0.19891 0.15375 0.0
C429 C 0.32126 0.18047 0.13714 0.0
C430 C 0.38248 0.1377 0.16949 0.0
C431 C 0.40872 0.08647 0.09937 0.0
C432 C 0.39039 0.10565 0.11674 0.0
C433 C 0.33775 0.16161 0.16683 0.0
C434 C 0.35584 0.1424 0.14941 0.0
H435 H 0.42354 0.06603 1.00055 0.0
H436 H 0.39323 0.09673 0.02893 0.0
H437 H 0.42011 0.11708 0.16898 0.0
H438 H 0.32041 0.17881 0.26614 0.0
H439 H 0.34927 0.14689 0.23716 0.0
C440 C 0.95039 0.95095 0.61769 0.0
C441 C 0.94894 0.95554 0.57047 0.0
C442 C 0.93265 0.9336 0.63824 0.0
C443 C 0.89304 0.87478 0.62074 0.0
H444 H 0.85413 0.8953 0.7164 0.0
C445 C 0.84365 0.79862 0.74287 0.0
C446 C 0.81692 0.80443 0.74886 0.0
C447 C 0.85839 0.81762 0.71909 0.0
C448 C 0.86478 0.8894 0.68956 0.0
H449 H 0.9278 0.9455 0.5078 0.0
H450 H 0.89724 0.91471 0.54384 0.0
H451 H 0.88263 0.92796 0.6788 0.0
H452 H 0.78454 0.83456 0.73491 0.0
H453 H 0.81069 0.86824 0.69418 0.0
H454 H 0.87577 0.83602 0.63226 0.0
C455 C 0.91196 0.92474 0.56482 0.0
C456 C 0.88117 0.90797 0.66832 0.0
C457 C 0.92938 0.94245 0.54425 0.0
C458 C 0.80516 0.82963 0.73079 0.0
C459 C 0.82009 0.84887 0.70766 0.0
C460 C 0.87704 0.85608 0.64251 0.0
C461 C 0.91344 0.92015 0.61198 0.0
C462 C 0.89549 0.9008 0.63378 0.0
C463 C 0.84681 0.84297 0.70149 0.0
C464 C 0.86283 0.86319 0.67721 0.0
H465 H 0.96518 0.96081 0.63882 0.0
H466 H 0.93432 0.93024 0.67469 0.0
H467 H 0.90399 0.8687 0.59439 0.0
H468 H 0.85315 0.77928 0.75632 0.0
H469 H 0.87901 0.81265 0.71505 0.0
C470 C 0.93658 0.05966 0.4765 0.0
C471 C 0.96136 0.06848 0.49504 0.0
C472 C 0.9179 0.07802 0.45132 0.0
C473 C 0.91191 0.14089 0.37908 0.0
H474 H 0.83912 0.14496 0.40994 0.0
C475 C 0.83402 0.22118 0.28879 0.0
C476 C 0.80729 0.21344 0.28187 0.0
C477 C 0.85333 0.20377 0.31478 0.0
C478 C 0.85923 0.14379 0.40039 0.0
H479 H 0.98642 0.10302 0.50181 0.0
H480 H 0.95375 0.13521 0.4567 0.0
H481 H 0.87194 0.11375 0.45583 0.0
H482 H 0.77964 0.18147 0.29501 0.0
H483 H 0.81346 0.15055 0.33872 0.0
H484 H 0.89916 0.17016 0.32276 0.0
C485 C 0.9488 0.11416 0.46211 0.0
C486 C 0.87799 0.12607 0.42687 0.0
C487 C 0.96732 0.09585 0.48799 0.0
C488 C 0.80017 0.18788 0.30019 0.0
C489 C 0.8195 0.17031 0.32554 0.0
C490 C 0.89303 0.15832 0.35211 0.0
C491 C 0.92397 0.10533 0.44374 0.0
C492 C 0.90441 0.12451 0.41634 0.0
C493 C 0.84623 0.17819 0.3337 0.0
C494 C 0.86645 0.15991 0.36241 0.0
H495 H 0.93165 0.03859 0.48146 0.0
H496 H 0.89889 0.07083 0.4371 0.0
H497 H 0.9322 0.13975 0.37025 0.0
H498 H 0.83986 0.24096 0.27521 0.0
H499 H 0.87363 0.21062 0.32092 0.0
C500 C 0.69522 0.16903 0.22806 0.0
C501 C 0.69373 0.19675 0.2128 0.0
C502 C 0.67803 0.1513 0.20696 0.0
C503 C 0.61257 0.14914 0.13986 0.0
H504 H 0.64057 0.08427 0.10026 0.0
C505 C 0.54657 0.08773 0.02251 0.0
C506 C 0.54969 0.05956 0.02875 0.0
C507 C 0.56459 0.10362 0.04588 0.0
C508 C 0.63231 0.10205 0.11171 0.0
H509 H 0.67286 0.22762 0.1638 0.0
H510 H 0.64272 0.19677 0.12761 0.0
H511 H 0.67102 0.11323 0.14078 0.0
H512 H 0.57438 0.02584 0.06358 0.0
H513 H 0.60538 0.05349 0.10578 0.0
H514 H 0.57387 0.13799 0.11182 0.0
C515 C 0.65722 0.18875 0.15571 0.0
C516 C 0.64981 0.11866 0.13481 0.0
C517 C 0.67461 0.20637 0.17629 0.0
C518 C 0.5714 0.04754 0.05838 0.0
C519 C 0.5893 0.06344 0.08224 0.0
C520 C 0.59505 0.13241 0.11732 0.0
C521 C 0.65875 0.16104 0.17076 0.0
C522 C 0.64014 0.14255 0.14857 0.0
C523 C 0.58603 0.09172 0.07651 0.0
C524 C 0.6047 0.10883 0.10233 0.0
H525 H 0.70979 0.16101 0.25604 0.0
H526 H 0.67953 0.13004 0.21934 0.0
H527 H 0.60452 0.16723 0.15071 0.0
H528 H 0.53012 0.09755 0.99959 0.0
H529 H 0.56175 0.12531 0.03966 0.0
C530 C 0.69238 0.83301 0.79185 0.0
C531 C 0.70919 0.8139 0.82045 0.0
C532 C 0.675 0.85006 0.80956 0.0
C533 C 0.66387 0.87957 0.9128 0.0
H534 H 0.59017 0.88919 0.85705 0.0
C535 C 0.58313 0.9358 0.99299 0.0
C536 C 0.56335 0.95154 0.96407 0.0
C537 C 0.60125 0.91931 0.97566 0.0
C538 C 0.61077 0.88712 0.87269 0.0
H539 H 0.72118 0.79813 0.89031 0.0
H540 H 0.69097 0.82805 0.92115 0.0
H541 H 0.62128 0.86033 0.8264 0.0
H542 H 0.54755 0.96271 0.89405 0.0
H543 H 0.57944 0.9346 0.86382 0.0
H544 H 0.65356 0.90666 0.95868 0.0
C545 C 0.69127 0.8298 0.885 0.0
C546 C 0.62859 0.87046 0.85514 0.0
C547 C 0.70847 0.81254 0.86726 0.0
C548 C 0.56235 0.95067 0.91738 0.0
C549 C 0.58059 0.93438 0.90002 0.0
C550 C 0.6461 0.89644 0.93014 0.0
C551 C 0.67419 0.84862 0.85632 0.0
C552 C 0.65534 0.86646 0.875 0.0
C553 C 0.6002 0.9183 0.92892 0.0
C554 C 0.61927 0.90043 0.91037 0.0
H555 H 0.69238 0.83462 0.75564 0.0
H556 H 0.6623 0.86454 0.7866 0.0
H557 H 0.68443 0.87714 0.92854 0.0
H558 H 0.58439 0.93585 0.02916 0.0
H559 H 0.61575 0.90696 0.99908 0.0
C560 C 0.56476 0.55659 0.87858 0.0
C561 C 0.57108 0.54226 0.92161 0.0
C562 C 0.58275 0.57468 0.86074 0.0
C563 C 0.64247 0.61405 0.89555 0.0
H564 H 0.64329 0.62864 0.76629 0.0
C565 C 0.71684 0.68486 0.8076 0.0
C566 C 0.70389 0.70572 0.77696 0.0
C567 C 0.70217 0.66357 0.82576 0.0
C568 C 0.64324 0.6247 0.80245 0.0
H569 H 0.60171 0.53486 0.97898 0.0
H570 H 0.6337 0.56548 0.94708 0.0
H571 H 0.61597 0.59264 0.79657 0.0
H572 H 0.66566 0.72049 0.74061 0.0
H573 H 0.64021 0.68275 0.77121 0.0
H574 H 0.67048 0.64583 0.90094 0.0
C575 C 0.61443 0.56354 0.92764 0.0
C576 C 0.62744 0.60422 0.81991 0.0
C577 C 0.59617 0.54578 0.94586 0.0
C578 C 0.67614 0.70471 0.76425 0.0
C579 C 0.66161 0.68313 0.78159 0.0
C580 C 0.65871 0.63417 0.87805 0.0
C581 C 0.60782 0.57858 0.88508 0.0
C582 C 0.6264 0.59892 0.8667 0.0
C583 C 0.67447 0.66247 0.81264 0.0
C584 C 0.65884 0.63994 0.83135 0.0
H585 H 0.54548 0.55454 0.85917 0.0
H586 H 0.57655 0.58619 0.82835 0.0
H587 H 0.64196 0.611 0.93165 0.0
H588 H 0.73827 0.68501 0.81761 0.0
H589 H 0.71251 0.64776 0.84952 0.0
C590 C 0.68855 0.31777 0.23463 0.0
C591 C 0.68176 0.29362 0.25859 0.0
C592 C 0.67014 0.33129 0.20109 0.0
C593 C 0.59864 0.33872 0.1587 0.0
H594 H 0.62674 0.37005 0.05015 0.0
C595 C 0.53365 0.40163 1.00967 0.0
C596 C 0.5441 0.4272 0.9997 0.0
C597 C 0.54925 0.38156 0.03759 0.0
C598 C 0.61864 0.36123 0.08018 0.0
H599 H 0.65038 0.26492 0.26771 0.0
H600 H 0.61799 0.28866 0.20863 0.0
H601 H 0.65617 0.34199 0.10798 0.0
H602 H 0.57884 0.45195 1.00976 0.0
H603 H 0.60622 0.4168 0.05784 0.0
H604 H 0.56117 0.35848 0.13086 0.0
C605 C 0.63749 0.29716 0.21597 0.0
C606 C 0.63545 0.34537 0.11333 0.0
C607 C 0.65595 0.28365 0.24976 0.0
C608 C 0.57043 0.43232 0.01697 0.0
C609 C 0.58609 0.41222 0.04419 0.0
C610 C 0.58174 0.35449 0.12528 0.0
C611 C 0.64465 0.32083 0.19077 0.0
C612 C 0.62585 0.33472 0.15354 0.0
C613 C 0.57557 0.38678 0.05502 0.0
C614 C 0.59188 0.3665 0.08646 0.0
H615 H 0.70833 0.32587 0.24107 0.0
H616 H 0.67596 0.34986 0.18296 0.0
H617 H 0.59075 0.3308 0.18942 0.0
H618 H 0.51328 0.39739 0.99684 0.0
H619 H 0.5408 0.36205 0.04569 0.0
C620 C 0.95479 0.4193 0.50152 0.0
C621 C 0.95394 0.44752 0.49265 0.0
C622 C 0.93424 0.40423 0.4824 0.0
C623 C 0.88246 0.40493 0.38673 0.0
H624 H 0.85083 0.34925 0.46288 0.0
C625 C 0.79547 0.34117 0.31627 0.0
C626 C 0.79577 0.3138 0.33355 0.0
C627 C 0.81332 0.3588 0.33614 0.0
C628 C 0.85965 0.36444 0.44093 0.0
H629 H 0.93095 0.48216 0.45692 0.0
H630 H 0.89526 0.45566 0.4224 0.0
H631 H 0.88509 0.37729 0.49619 0.0
H632 H 0.81529 0.28342 0.38488 0.0
H633 H 0.8468 0.31376 0.41843 0.0
H634 H 0.85783 0.39157 0.33118 0.0
C635 C 0.91183 0.44528 0.4443 0.0
C636 C 0.87919 0.38059 0.46014 0.0
C637 C 0.93221 0.46041 0.46405 0.0
C638 C 0.81431 0.30445 0.37099 0.0
C639 C 0.83232 0.32195 0.39047 0.0
C640 C 0.86315 0.38852 0.36735 0.0
C641 C 0.91258 0.41705 0.45353 0.0
C642 C 0.89095 0.40084 0.43322 0.0
C643 C 0.83208 0.3494 0.37342 0.0
C644 C 0.85166 0.36786 0.39415 0.0
H645 H 0.9713 0.40883 0.52342 0.0
H646 H 0.93544 0.38248 0.48974 0.0
H647 H 0.89137 0.42029 0.36517 0.0
H648 H 0.78134 0.34903 0.28757 0.0
H649 H 0.81224 0.37985 0.32243 0.0
C650 C 0.82598 0.67849 0.74014 0.0
C651 C 0.80955 0.69824 0.71231 0.0
C652 C 0.84209 0.66066 0.72145 0.0
C653 C 0.87183 0.65205 0.616 0.0
H654 H 0.88302 0.57793 0.67039 0.0
C655 C 0.92569 0.57146 0.53185 0.0
C656 C 0.94513 0.55479 0.55992 0.0
C657 C 0.90859 0.58849 0.55021 0.0
C658 C 0.88023 0.59862 0.65501 0.0
H659 H 0.7968 0.71431 0.64284 0.0
H660 H 0.82429 0.68293 0.61032 0.0
H661 H 0.85416 0.60839 0.70267 0.0
H662 H 0.96144 0.54265 0.62948 0.0
H663 H 0.93154 0.57222 0.66139 0.0
H664 H 0.89767 0.64209 0.56803 0.0
C665 C 0.82532 0.68158 0.64666 0.0
C666 C 0.86375 0.61615 0.67359 0.0
C667 C 0.8094 0.69953 0.66535 0.0
C668 C 0.94677 0.55525 0.60682 0.0
C669 C 0.92951 0.57209 0.62518 0.0
C670 C 0.88812 0.63446 0.59723 0.0
C671 C 0.84202 0.66197 0.67443 0.0
C672 C 0.85938 0.64315 0.65443 0.0
C673 C 0.91035 0.58906 0.59708 0.0
C674 C 0.89258 0.60757 0.61659 0.0
H675 H 0.82671 0.67702 0.77646 0.0
H676 H 0.85496 0.64614 0.744 0.0
H677 H 0.86939 0.67279 0.60076 0.0
H678 H 0.92388 0.57165 0.49559 0.0
H679 H 0.89386 0.60113 0.5277 0.0
C680 C 0.29974 0.32724 0.2005 0.0
C681 C 0.31242 0.30514 0.22855 0.0
C682 C 0.31465 0.34473 0.17389 0.0
C683 C 0.38032 0.34831 0.12745 0.0
H684 H 0.36601 0.42552 0.11245 0.0
C685 C 0.45759 0.42429 0.07113 0.0
C686 C 0.44887 0.44555 0.03755 0.0
C687 C 0.43915 0.4074 0.09046 0.0
C688 C 0.36999 0.40396 0.1159 0.0
H689 H 0.35064 0.28439 0.25176 0.0
H690 H 0.37669 0.31514 0.20669 0.0
H691 H 0.33715 0.39566 0.15453 0.0
H692 H 0.41389 0.46593 0.99817 0.0
H693 H 0.3814 0.43646 0.03283 0.0
H694 H 0.41366 0.3567 0.09017 0.0
C695 C 0.35518 0.31867 0.20398 0.0
C696 C 0.35346 0.38683 0.13993 0.0
C697 C 0.34028 0.30115 0.23022 0.0
C698 C 0.42119 0.44964 0.02386 0.0
C699 C 0.40263 0.4329 0.0438 0.0
C700 C 0.39693 0.36541 0.1039 0.0
C701 C 0.34257 0.34055 0.17508 0.0
C702 C 0.35873 0.3588 0.14671 0.0
C703 C 0.41149 0.41151 0.07711 0.0
C704 C 0.39223 0.39343 0.0985 0.0
H705 H 0.27828 0.33087 0.19882 0.0
H706 H 0.30423 0.36125 0.15188 0.0
H707 H 0.38458 0.32681 0.13087 0.0
H708 H 0.47877 0.4205 0.08233 0.0
H709 H 0.44655 0.39127 0.11639 0.0
C710 C 0.4347 0.55209 1.0069 0.0
C711 C 0.45712 0.55008 0.98343 0.0
C712 C 0.41399 0.57096 0.99029 0.0
C713 C 0.4007 0.63552 0.92475 0.0
H714 H 0.33066 0.61115 0.88058 0.0
C715 C 0.32935 0.70242 0.79513 0.0
C716 C 0.30175 0.70154 0.79825 0.0
C717 C 0.34703 0.68409 0.82276 0.0
C718 C 0.3499 0.6184 0.89357 0.0
H719 H 0.47585 0.56596 0.92484 0.0
H720 H 0.44008 0.59935 0.89667 0.0
H721 H 0.36393 0.57883 0.92325 0.0
H722 H 0.27067 0.68068 0.8316 0.0
H723 H 0.3016 0.6492 0.88103 0.0
H724 H 0.38705 0.67499 0.89536 0.0
C725 C 0.43842 0.58629 0.92753 0.0
C726 C 0.36885 0.59989 0.9179 0.0
C727 C 0.45873 0.56716 0.9435 0.0
C728 C 0.29196 0.68181 0.82879 0.0
C729 C 0.30965 0.6637 0.85688 0.0
C730 C 0.38168 0.65408 0.9011 0.0
C731 C 0.41596 0.5883 0.95075 0.0
C732 C 0.39457 0.60827 0.93244 0.0
C733 C 0.33741 0.66476 0.85437 0.0
C734 C 0.35637 0.64558 0.88397 0.0
H735 H 0.43309 0.53896 0.03769 0.0
H736 H 0.39666 0.57224 1.00843 0.0
H737 H 0.42048 0.64229 0.93604 0.0
H738 H 0.33733 0.71737 0.77159 0.0
H739 H 0.36823 0.68502 0.81912 0.0
C740 C 0.17076 0.70703 0.68594 0.0
C741 C 0.18875 0.69683 0.72365 0.0
C742 C 0.15345 0.68991 0.66386 0.0
C743 C 0.14633 0.62057 0.64009 0.0
H744 H 0.07054 0.63983 0.61272 0.0
C745 C 0.07037 0.5508 0.5537 0.0
C746 C 0.04895 0.56323 0.52389 0.0
C747 C 0.08762 0.56623 0.57972 0.0
C748 C 0.09171 0.63429 0.6194 0.0
H749 H 0.20281 0.66066 0.76764 0.0
H750 H 0.17283 0.63061 0.72827 0.0
H751 H 0.10012 0.66852 0.65492 0.0
H752 H 0.02942 0.60154 0.49636 0.0
H753 H 0.06001 0.62849 0.53987 0.0
H754 H 0.13826 0.58689 0.60325 0.0
C755 C 0.17207 0.65191 0.71617 0.0
C756 C 0.10859 0.65068 0.64387 0.0
C757 C 0.18908 0.66913 0.73881 0.0
C758 C 0.04561 0.59137 0.51943 0.0
C759 C 0.06303 0.6068 0.54482 0.0
C760 C 0.12951 0.60434 0.61496 0.0
C761 C 0.15407 0.66217 0.67855 0.0
C762 C 0.13607 0.64408 0.65423 0.0
C763 C 0.08405 0.59446 0.57586 0.0
C764 C 0.10197 0.6111 0.60395 0.0
H765 H 0.16999 0.72828 0.6735 0.0
H766 H 0.13989 0.69829 0.63474 0.0
H767 H 0.16752 0.61515 0.64736 0.0
H768 H 0.07358 0.52914 0.5574 0.0
H769 H 0.10341 0.55593 0.60342 0.0
C770 C 0.20496 0.31701 0.35067 0.0
C771 C 0.20541 0.3179 0.30386 0.0
C772 C 0.18811 0.33468 0.36822 0.0
C773 C 0.12586 0.37609 0.33853 0.0
H774 H 0.1517 0.41159 0.44245 0.0
C775 C 0.06056 0.45591 0.40425 0.0
C776 C 0.06191 0.45621 0.45114 0.0
C777 C 0.07855 0.43981 0.38594 0.0
C778 C 0.14401 0.40159 0.41378 0.0
H779 H 0.18852 0.33827 0.23884 0.0
H780 H 0.15905 0.36899 0.26953 0.0
H781 H 0.18212 0.38207 0.41141 0.0
H782 H 0.08328 0.43966 0.51551 0.0
H783 H 0.11419 0.41117 0.48375 0.0
H784 H 0.08764 0.39507 0.34127 0.0
C785 C 0.17169 0.35453 0.29261 0.0
C786 C 0.16151 0.38472 0.39591 0.0
C787 C 0.18872 0.33702 0.27505 0.0
C788 C 0.08175 0.44007 0.47924 0.0
C789 C 0.09962 0.42381 0.46094 0.0
C790 C 0.1083 0.39278 0.3566 0.0
C791 C 0.17114 0.35352 0.3394 0.0
C792 C 0.15264 0.37176 0.35808 0.0
C793 C 0.09826 0.4234 0.41402 0.0
C794 C 0.1171 0.40578 0.39451 0.0
H795 H 0.21756 0.3026 0.37389 0.0
H796 H 0.18799 0.33322 0.4044 0.0
H797 H 0.11829 0.36611 0.30976 0.0
H798 H 0.04568 0.46823 0.38153 0.0
H799 H 0.07713 0.44045 0.34964 0.0
C800 C 0.03574 0.98592 0.85754 0.0
C801 C 0.02314 0.00507 0.82328 0.0
C802 C 0.03128 0.98659 0.90246 0.0
C803 C 0.98433 0.0136 0.9742 0.0
H804 H 0.04468 1.00017 0.06757 0.0
C805 C 0.97632 0.03119 0.15898 0.0
C806 C 0.98902 0.01202 0.19313 0.0
C807 C 0.98064 0.03055 0.11398 0.0
C808 C 0.02754 0.00368 0.04201 0.0
H809 H 0.99595 0.04002 0.80968 0.0
H810 H 0.98819 0.04121 0.88797 0.0
H811 H 0.05149 0.99832 0.98908 0.0
H812 H 0.01617 0.97704 0.2064 0.0
H813 H 0.0237 0.97593 0.12802 0.0
H814 H 0.96037 0.01897 0.02715 0.0
C815 C 1.00125 0.0254 0.88002 0.0
C816 C 0.03144 1.0026 0.99693 0.0
C817 C 0.00569 0.02472 0.83506 0.0
C818 C 0.00638 0.99237 0.18112 0.0
C819 C 0.01068 0.99172 0.13611 0.0
C820 C 0.98042 0.01468 0.01929 0.0
C821 C 0.01412 0.00644 0.91436 0.0
C822 C 0.00989 0.00753 0.96241 0.0
C823 C 0.99777 0.01073 0.1019 0.0
C824 C 1.00197 0.00973 0.05381 0.0
H825 H 0.04895 0.97023 0.84961 0.0
H826 H 0.04114 0.97136 0.92785 0.0
H827 H 0.96719 0.01712 0.94863 0.0
H828 H 0.96315 0.04687 0.16707 0.0
H829 H 0.97072 0.0458 0.08867 0.0
C830 C 0.264 0.75119 0.45846 0.0
C831 C 0.24351 0.76741 0.47071 0.0
C832 C 0.26456 0.74669 0.41353 0.0
C833 C 0.22166 0.7494 0.30413 0.0
H834 H 0.28964 0.75132 0.25439 0.0
C835 C 0.22787 0.74952 0.11352 0.0
C836 C 0.24822 0.73331 0.10082 0.0
C837 C 0.2275 0.75378 0.15859 0.0
C838 C 0.27053 0.75043 0.26787 0.0
H839 H 0.20719 0.79112 0.44528 0.0
H840 H 0.20837 0.78361 0.36691 0.0
H841 H 0.28842 0.75804 0.33315 0.0
H842 H 0.28448 0.70936 0.12559 0.0
H843 H 0.28363 0.71647 0.20426 0.0
H844 H 0.20377 0.74183 0.23885 0.0
C845 C 0.22394 0.77421 0.39208 0.0
C846 C 0.26983 0.75426 0.31306 0.0
C847 C 0.22342 0.77876 0.43698 0.0
C848 C 0.26837 0.72173 0.13426 0.0
C849 C 0.26803 0.72604 0.17931 0.0
C850 C 0.22237 0.74559 0.25895 0.0
C851 C 0.24458 0.75822 0.37974 0.0
C852 C 0.24538 0.75383 0.33176 0.0
C853 C 0.2475 0.74199 0.19209 0.0
C854 C 0.2468 0.74609 0.24021 0.0
H855 H 0.27993 0.74235 0.4835 0.0
H856 H 0.28058 0.73403 0.4053 0.0
H857 H 0.20255 0.74852 0.31758 0.0
H858 H 0.2119 0.75854 0.08873 0.0
H859 H 0.21157 0.76643 0.16715 0.0
C860 C 0.49144 0.98407 0.68443 0.0
C861 C 0.49095 0.00937 0.70049 0.0
C862 C 0.49495 0.98202 0.6395 0.0
C863 C 0.48797 0.02187 0.52712 0.0
H864 H 0.53262 0.96432 0.49629 0.0
C865 C 0.51612 0.01796 0.34681 0.0
C866 C 0.5166 0.99263 0.33086 0.0
C867 C 0.51269 0.02007 0.39176 0.0
C868 C 0.51982 0.98033 0.50427 0.0
H869 H 0.49465 0.05228 0.68222 0.0
H870 H 0.50088 0.04872 0.60393 0.0
H871 H 0.52784 0.96782 0.57513 0.0
H872 H 0.51297 0.94973 0.34933 0.0
H873 H 0.50687 0.9534 0.42764 0.0
H874 H 0.47995 0.03437 0.45626 0.0
C875 C 0.49801 0.03049 0.62584 0.0
C876 C 0.5171 0.98235 0.54949 0.0
C877 C 0.49448 0.03253 0.67074 0.0
C878 C 0.51315 0.9695 0.36073 0.0
C879 C 0.50969 0.97161 0.40564 0.0
C880 C 0.49069 0.01985 0.48189 0.0
C881 C 0.4981 0.00523 0.60958 0.0
C882 C 0.50114 1.00314 0.56148 0.0
C883 C 0.50961 0.9969 0.4218 0.0
C884 C 0.50664 0.99904 0.46991 0.0
H885 H 0.48841 0.96587 0.7063 0.0
H886 H 0.49457 0.96229 0.62795 0.0
H887 H 0.47518 0.03788 0.53511 0.0
H888 H 0.51909 0.03614 0.32484 0.0
H889 H 0.51308 0.03983 0.40322 0.0
C890 C 0.26973 0.27185 0.92017 0.0
C891 C 0.2447 0.26904 0.93664 0.0
C892 C 0.27231 0.26887 0.87521 0.0
C893 C 0.2324 0.2715 0.76341 0.0
H894 H 0.29501 0.23489 0.73164 0.0
C895 C 0.24047 0.24518 0.58306 0.0
C896 C 0.26551 0.24822 0.56666 0.0
C897 C 0.2378 0.24808 0.62803 0.0
C898 C 0.27755 0.24545 0.73989 0.0
H899 H 0.20294 0.25999 0.91914 0.0
H900 H 0.20747 0.25463 0.84082 0.0
H901 H 0.29073 0.2385 0.81061 0.0
H902 H 0.30716 0.25762 0.5843 0.0
H903 H 0.30248 0.26277 0.66264 0.0
H904 H 0.21922 0.27843 0.69268 0.0
C905 C 0.225 0.25969 0.8624 0.0
C906 C 0.27508 0.2475 0.78519 0.0
C907 C 0.22242 0.26271 0.90731 0.0
C908 C 0.28769 0.25469 0.59606 0.0
C909 C 0.28502 0.25761 0.64098 0.0
C910 C 0.23486 0.26944 0.71811 0.0
C911 C 0.24993 0.26295 0.84569 0.0
C912 C 0.25249 0.26056 0.79751 0.0
C913 C 0.2601 0.25411 0.65762 0.0
C914 C 0.25747 0.25641 0.7058 0.0
H915 H 0.2872 0.27709 0.94171 0.0
H916 H 0.29173 0.27186 0.86331 0.0
H917 H 0.21495 0.28208 0.77166 0.0
H918 H 0.22307 0.23983 0.56147 0.0
H919 H 0.21839 0.24492 0.63988 0.0
C920 C 0.76233 0.26011 0.94541 0.0
C921 C 0.74002 0.27359 0.95801 0.0
C922 C 0.76351 0.25581 0.90047 0.0
C923 C 0.72082 0.25357 0.79137 0.0
H924 H 0.78834 0.26186 0.74102 0.0
C925 C 0.72797 0.25228 0.60068 0.0
C926 C 0.75012 0.2384 0.58838 0.0
C927 C 0.72682 0.25685 0.64551 0.0
C928 C 0.76937 0.25916 0.75463 0.0
H929 H 0.70119 0.29265 0.93279 0.0
H930 H 0.70343 0.28556 0.85447 0.0
H931 H 0.78607 0.26895 0.81933 0.0
H932 H 0.78872 0.21896 0.61391 0.0
H933 H 0.78657 0.22659 0.69204 0.0
H934 H 0.70413 0.2438 0.72665 0.0
C935 C 0.71998 0.2781 0.87944 0.0
C936 C 0.76807 0.26322 0.79965 0.0
C937 C 0.71882 0.28245 0.92438 0.0
C938 C 0.77122 0.22947 0.62213 0.0
C939 C 0.77011 0.23412 0.66694 0.0
C940 C 0.72212 0.24953 0.74634 0.0
C941 C 0.74238 0.2648 0.86679 0.0
C942 C 0.74377 0.26046 0.81871 0.0
C943 C 0.74783 0.24775 0.67933 0.0
C944 C 0.74642 0.25225 0.72732 0.0
H945 H 0.77917 0.25325 0.9702 0.0
H946 H 0.78095 0.24522 0.8922 0.0
H947 H 0.70185 0.25084 0.80497 0.0
H948 H 0.71121 0.25922 0.57577 0.0
H949 H 0.70949 0.26769 0.65361 0.0
C950 C 0.77623 0.77136 0.4352 0.0
C951 C 0.75119 0.76931 0.45187 0.0
C952 C 0.77861 0.76793 0.3903 0.0
C953 C 0.73843 0.77023 0.2785 0.0
H954 H 0.80022 0.73182 0.24764 0.0
C955 C 0.74537 0.74201 0.09873 0.0
C956 C 0.77043 0.74416 0.08216 0.0
C957 C 0.74292 0.74533 0.14366 0.0
C958 C 0.78298 0.74289 0.25559 0.0
H959 H 0.70917 0.76121 0.43458 0.0
H960 H 0.71332 0.75513 0.35642 0.0
H961 H 0.79625 0.73656 0.32635 0.0
H962 H 0.81242 0.75232 0.09965 0.0
H963 H 0.80815 0.75819 0.17785 0.0
H964 H 0.72517 0.77656 0.20774 0.0
C965 C 0.73105 0.75992 0.37781 0.0
C966 C 0.7807 0.74559 0.30078 0.0
C967 C 0.72867 0.76337 0.42267 0.0
C968 C 0.7929 0.75008 0.11148 0.0
C969 C 0.79046 0.75341 0.15636 0.0
C970 C 0.74071 0.76753 0.23331 0.0
C971 C 0.75601 0.76233 0.36094 0.0
C972 C 0.7584 0.7593 0.31283 0.0
C973 C 0.76548 0.7509 0.17314 0.0
C974 C 0.76303 0.75384 0.22126 0.0
H975 H 0.79391 0.77629 0.45656 0.0
H976 H 0.79807 0.77029 0.37833 0.0
H977 H 0.7212 0.7813 0.28645 0.0
H978 H 0.72772 0.7371 0.07728 0.0
H979 H 0.72344 0.7429 0.15555 0.0
C980 C 0.48396 0.52872 0.62852 0.0
C981 C 0.498 0.51097 0.66346 0.0
C982 C 0.48873 0.528 0.58368 0.0
C983 C 0.51506 0.48276 0.5087 0.0
H984 H 0.518 0.54844 0.42739 0.0
C985 C 0.54666 0.48222 0.32963 0.0
C986 C 0.53288 0.5 0.29446 0.0
C987 C 0.54249 0.48373 0.37451 0.0
C988 C 0.51692 0.52987 0.44946 0.0
H989 H 0.52812 0.47853 0.67834 0.0
H990 H 0.53668 0.47754 0.60043 0.0
H991 H 0.51088 0.55108 0.50565 0.0
H992 H 0.50397 0.53352 0.27938 0.0
H993 H 0.49631 0.53581 0.35742 0.0
H994 H 0.52093 0.46153 0.45257 0.0
C995 C 0.52182 0.49191 0.60762 0.0
C996 C 0.51286 0.5314 0.49441 0.0
C997 C 0.51716 0.49272 0.65243 0.0
C998 C 0.51474 0.5193 0.30545 0.0
C999 C 0.51059 0.52083 0.35035 0.0
C1000 C 0.51906 0.48123 0.46376 0.0
C1001 C 0.50754 0.50939 0.57258 0.0
C1002 C 0.51192 0.50786 0.52466 0.0
C1003 C 0.52443 0.50309 0.38554 0.0
C1004 C 0.52007 0.50476 0.43348 0.0
H1005 H 0.4692 0.54316 0.63582 0.0
H1006 H 0.47722 0.54164 0.55758 0.0
H1007 H 0.51398 0.4642 0.53079 0.0
H1008 H 0.56057 0.46691 0.32248 0.0
H1009 H 0.55373 0.4699 0.40066 0.0
C1010 C 0.99264 0.50403 0.83269 0.0
C1011 C 0.01735 0.49459 0.82176 0.0
C1012 C 0.98899 0.50646 0.87749 0.0
C1013 C 0.0266 0.51181 0.98946 0.0
H1014 H 0.95979 0.49003 0.03387 0.0
C1015 C 0.01242 0.5046 0.17864 0.0
C1016 C 0.98768 0.51397 0.18954 0.0
C1017 C 0.01608 0.50205 0.13387 0.0
C1018 C 0.97846 0.49648 0.02191 0.0
H1019 H 0.05776 0.4808 0.8495 0.0
H1020 H 0.05122 0.48452 0.9275 0.0
H1021 H 0.96597 0.48635 0.95561 0.0
H1022 H 0.9472 0.52749 0.16175 0.0
H1023 H 0.95375 0.52361 0.08382 0.0
H1024 H 0.03908 0.52197 0.05574 0.0
C1025 C 0.0347 0.49026 0.90144 0.0
C1026 C 0.982 0.49438 0.97699 0.0
C1027 C 0.03835 0.48781 0.85671 0.0
C1028 C 0.96664 0.52055 0.15458 0.0
C1029 C 0.97029 0.518 0.10988 0.0
C1030 C 0.02306 0.51392 0.03437 0.0
C1031 C 0.00997 0.49959 0.91244 0.0
C1032 C 0.00611 0.50202 0.96018 0.0
C1033 C 0.99506 0.50876 0.09892 0.0
C1034 C 0.99894 0.50629 0.05118 0.0
H1035 H 0.97598 0.50923 0.80669 0.0
H1036 H 0.96976 0.51399 0.88469 0.0
H1037 H 0.04527 0.51826 0.97749 0.0
H1038 H 0.02913 0.49956 0.20463 0.0
H1039 H 0.03534 0.49459 0.12672 0.0
loop_
_geom_bond_atom_site_label_1
_geom_bond_atom_site_label_2
_geom_bond_distance
_geom_bond_site_symmetry_2
_ccdc_geom_bond_type
Sm0 C2 2.846 1_655 S
Sm0 O20 2.543 1_565 S
Sm0 O21 2.450 1_655 S
Sm0 O22 2.681 1_655 S
Sm0 O23 2.464 1_655 S
Sm0 O24 2.396 1_665 S
Sm0 O28 2.386 1_565 S
Sm0 O31 2.408 . S
Sm1 C11 2.846 1_455 S
Sm1 O22 2.386 1_545 S
Sm1 O25 2.408 . S
Sm1 O26 2.543 1_545 S
Sm1 O27 2.450 1_455 S
Sm1 O28 2.681 1_455 S
Sm1 O29 2.464 1_455 S
Sm1 O30 2.396 1_445 S
C2 Sm0 2.846 1_455 S
C2 C3 1.506 . S
C2 O20 1.261 1_465 S
C2 O21 1.242 . S
C3 C2 1.506 . S
C3 C4 1.358 1_565 S
C3 C8 1.382 . S
C4 C3 1.358 1_545 S
C4 C5 1.385 . S
C4 H32 0.930 1_455 S
C5 C4 1.385 . S
C5 C6 1.395 . S
C5 H33 0.929 . S
C6 C5 1.395 . S
C6 C7 1.335 1_545 S
C7 C6 1.335 1_565 S
C7 C8 1.398 . S
C7 H34 0.930 . S
C8 C3 1.382 . S
C8 C7 1.398 . S
C8 H35 0.929 . S
C9 O22 1.271 . S
C9 O23 1.251 . S
C10 O24 1.252 . S
C10 O25 1.272 . S
C11 Sm1 2.846 1_655 S
C11 C12 1.506 . S
C11 O26 1.261 1_645 S
C11 O27 1.242 . S
C12 C11 1.506 . S
C12 C13 1.358 1_545 S
C12 C17 1.382 . S
C13 C12 1.358 1_565 S
C13 C14 1.385 . S
C13 H36 0.930 1_655 S
C14 C13 1.385 . S
C14 C15 1.395 . S
C14 H37 0.937 . S
C15 C14 1.395 . S
C15 C16 1.335 1_565 S
C16 C15 1.335 1_545 S
C16 C17 1.398 . S
C16 H38 0.930 . S
C17 C12 1.382 . S
C17 C16 1.398 . S
C17 H39 0.929 . S
C18 O28 1.271 . S
C18 O29 1.251 . S
C19 O30 1.252 . S
C19 O31 1.272 . S
O20 Sm0 2.543 1_545 S
O20 C2 1.261 1_645 S
O21 Sm0 2.450 1_455 S
O21 C2 1.242 . S
O22 Sm0 2.681 1_455 S
O22 Sm1 2.386 1_565 S
O22 C9 1.271 . S
O23 Sm0 2.464 1_455 S
O23 C9 1.251 . S
O24 Sm0 2.396 1_445 S
O24 C10 1.252 . S
O25 Sm1 2.408 . S
O25 C10 1.272 . S
O26 Sm1 2.543 1_565 S
O26 C11 1.261 1_465 S
O27 Sm1 2.450 1_655 S
O27 C11 1.242 . S
O28 Sm0 2.386 1_545 S
O28 Sm1 2.681 1_655 S
O28 C18 1.271 . S
O29 Sm1 2.464 1_655 S
O29 C18 1.251 . S
O30 Sm1 2.396 1_665 S
O30 C19 1.252 . S
O31 Sm0 2.408 . S
O31 C19 1.272 . S
H32 C4 0.930 1_655 S
H33 C5 0.929 . S
H34 C7 0.930 . S
H35 C8 0.929 . S
H36 C13 0.930 1_455 S
H37 C14 0.937 . S
H38 C16 0.930 . S
H39 C17 0.929 . S
Sm40 C42 2.846 . S
Sm40 O60 2.543 . S
Sm40 O61 2.450 . S
Sm40 O62 2.681 . S
Sm40 O63 2.464 . S
Sm40 O64 2.396 . S
Sm40 O68 2.386 . S
Sm40 O71 2.408 . S
Sm41 C51 2.846 . S
Sm41 O62 2.386 . S
Sm41 O65 2.408 . S
Sm41 O66 2.543 . S
Sm41 O67 2.450 . S
Sm41 O68 2.681 . S
Sm41 O69 2.464 . S
Sm41 O70 2.396 . S
C42 Sm40 2.846 . S
C42 C43 1.506 . S
C42 O60 1.261 . S
C42 O61 1.242 . S
C43 C42 1.506 . S
C43 C44 1.358 . S
C43 C48 1.382 . S
C44 C43 1.358 . S
C44 C45 1.385 1_556 S
C44 H72 0.930 . S
C45 C44 1.385 1_554 S
C45 C46 1.395 . S
C45 H73 0.929 . S
C46 C45 1.395 . S
C46 C47 1.335 1_554 S
C47 C46 1.335 1_556 S
C47 C48 1.398 . S
C47 H74 0.930 1_556 S
C48 C43 1.382 . S
C48 C47 1.398 . S
C48 H75 0.929 . S
C49 O62 1.271 . S
C49 O63 1.251 . S
C50 O64 1.252 . S
C50 O65 1.272 . S
C51 Sm41 2.846 . S
C51 C52 1.506 . S
C51 O66 1.261 . S
C51 O67 1.242 . S
C52 C51 1.506 . S
C52 C53 1.358 . S
C52 C57 1.382 . S
C53 C52 1.358 . S
C53 C54 1.385 . S
C53 H76 0.930 . S
C54 C53 1.385 . S
C54 C55 1.395 . S
C54 H77 0.929 . S
C55 C54 1.395 . S
C55 C56 1.335 . S
C56 C55 1.335 . S
C56 C57 1.398 . S
C56 H78 0.930 . S
C57 C52 1.382 . S
C57 C56 1.398 . S
C57 H79 0.929 . S
C58 O68 1.271 . S
C58 O69 1.251 . S
C59 O70 1.252 . S
C59 O71 1.272 . S
O60 Sm40 2.543 . S
O60 C42 1.261 . S
O61 Sm40 2.450 . S
O61 C42 1.242 . S
O62 Sm40 2.681 . S
O62 Sm41 2.386 . S
O62 C49 1.271 . S
O63 Sm40 2.464 . S
O63 C49 1.251 . S
O64 Sm40 2.396 . S
O64 C50 1.252 . S
O65 Sm41 2.408 . S
O65 C50 1.272 . S
O66 Sm41 2.543 . S
O66 C51 1.261 . S
O67 Sm41 2.450 . S
O67 C51 1.242 . S
O68 Sm40 2.386 . S
O68 Sm41 2.681 . S
O68 C58 1.271 . S
O69 Sm41 2.464 . S
O69 C58 1.251 . S
O70 Sm41 2.396 . S
O70 C59 1.252 . S
O71 Sm40 2.408 . S
O71 C59 1.272 . S
H72 C44 0.930 . S
H73 C45 0.929 . S
H74 C47 0.930 1_554 S
H75 C48 0.929 . S
H76 C53 0.930 . S
H77 C54 0.929 . S
H78 C56 0.930 . S
H79 C57 0.929 . S
Sm80 C82 2.846 . S
Sm80 O100 2.552 . S
Sm80 O101 2.450 . S
Sm80 O102 2.681 1_554 S
Sm80 O103 2.464 . S
Sm80 O104 2.396 1_565 S
Sm80 O108 2.386 1_565 S
Sm80 O111 2.408 . S
Sm81 C91 2.846 . S
Sm81 O102 2.386 1_545 S
Sm81 O105 2.408 . S
Sm81 O106 2.558 . S
Sm81 O107 2.450 . S
Sm81 O108 2.681 1_556 S
Sm81 O109 2.464 . S
Sm81 O110 2.396 1_545 S
C82 Sm80 2.846 . S
C82 C83 1.506 . S
C82 O100 1.272 . S
C82 O101 1.242 . S
C83 C82 1.506 . S
C83 C84 1.358 1_565 S
C83 C88 1.382 . S
C84 C83 1.358 1_545 S
C84 C85 1.385 . S
C84 H112 0.930 . S
C85 C84 1.385 . S
C85 C86 1.395 1_545 S
C85 H113 0.929 . S
C86 C85 1.395 1_565 S
C86 C87 1.335 . S
C87 C86 1.335 . S
C87 C88 1.398 . S
C87 H114 0.930 . S
C88 C83 1.382 . S
C88 C87 1.398 . S
C88 H115 0.929 . S
C89 O102 1.271 . S
C89 O103 1.251 1_556 S
C90 O104 1.252 . S
C90 O105 1.272 1_554 S
C91 Sm81 2.846 . S
C91 C92 1.506 . S
C91 O106 1.279 . S
C91 O107 1.242 . S
C92 C91 1.506 . S
C92 C93 1.358 1_545 S
C92 C97 1.382 . S
C93 C92 1.358 1_565 S
C93 C94 1.385 . S
C93 H116 0.930 . S
C94 C93 1.385 . S
C94 C95 1.395 1_565 S
C94 H117 0.929 . S
C95 C94 1.395 1_545 S
C95 C96 1.335 . S
C96 C95 1.335 . S
C96 C97 1.398 . S
C96 H118 0.930 . S
C97 C92 1.382 . S
C97 C96 1.398 . S
C97 H119 0.929 . S
C98 O108 1.271 . S
C98 O109 1.251 1_554 S
C99 O110 1.252 . S
C99 O111 1.272 1_556 S
O100 Sm80 2.552 . S
O100 C82 1.272 . S
O101 Sm80 2.450 . S
O101 C82 1.242 . S
O102 Sm80 2.681 1_556 S
O102 Sm81 2.386 1_565 S
O102 C89 1.271 . S
O103 Sm80 2.464 . S
O103 C89 1.251 1_554 S
O104 Sm80 2.396 1_545 S
O104 C90 1.252 . S
O105 Sm81 2.408 . S
O105 C90 1.272 1_556 S
O106 Sm81 2.558 . S
O106 C91 1.279 . S
O107 Sm81 2.450 . S
O107 C91 1.242 . S
O108 Sm80 2.386 1_545 S
O108 Sm81 2.681 1_554 S
O108 C98 1.271 . S
O109 Sm81 2.464 . S
O109 C98 1.251 1_556 S
O110 Sm81 2.396 1_565 S
O110 C99 1.252 . S
O111 Sm80 2.408 . S
O111 C99 1.272 1_554 S
H112 C84 0.930 . S
H113 C85 0.929 . S
H114 C87 0.930 . S
H115 C88 0.929 . S
H116 C93 0.930 . S
H117 C94 0.929 . S
H118 C96 0.930 . S
H119 C97 0.929 . S
Sm120 C122 2.846 . S
Sm120 O140 2.543 . S
Sm120 O141 2.450 . S
Sm120 O142 2.681 . S
Sm120 O143 2.464 . S
Sm120 O144 2.396 . S
Sm120 O148 2.386 . S
Sm120 O151 2.408 . S
Sm121 C131 2.846 . S
Sm121 O142 2.386 . S
Sm121 O145 2.408 . S
Sm121 O146 2.543 . S
Sm121 O147 2.450 . S
Sm121 O148 2.681 . S
Sm121 O149 2.464 . S
Sm121 O150 2.396 . S
C122 Sm120 2.846 . S
C122 C123 1.506 . S
C122 O140 1.261 . S
C122 O141 1.242 . S
C123 C122 1.506 . S
C123 C124 1.358 . S
C123 C128 1.382 . S
C124 C123 1.358 . S
C124 C125 1.385 1_554 S
C124 H152 0.930 . S
C125 C124 1.385 1_556 S
C125 C126 1.395 . S
C125 H153 0.929 . S
C126 C125 1.395 . S
C126 C127 1.335 . S
C127 C126 1.335 . S
C127 C128 1.398 1_556 S
C127 H154 0.930 . S
C128 C123 1.382 . S
C128 C127 1.398 1_554 S
C128 H155 0.929 . S
C129 O142 1.271 . S
C129 O143 1.251 . S
C130 O144 1.252 . S
C130 O145 1.272 . S
C131 Sm121 2.846 . S
C131 C132 1.506 . S
C131 O146 1.261 . S
C131 O147 1.242 . S
C132 C131 1.506 . S
C132 C133 1.358 . S
C132 C137 1.382 . S
C133 C132 1.358 . S
C133 C134 1.385 . S
C133 H156 0.930 . S
C134 C133 1.385 . S
C134 C135 1.395 . S
C134 H157 0.929 . S
C135 C134 1.395 . S
C135 C136 1.335 . S
C136 C135 1.335 . S
C136 C137 1.398 . S
C136 H158 0.930 . S
C137 C132 1.382 . S
C137 C136 1.398 . S
C137 H159 0.929 . S
C138 O148 1.271 . S
C138 O149 1.251 . S
C139 O150 1.252 . S
C139 O151 1.272 . S
O140 Sm120 2.543 . S
O140 C122 1.261 . S
O141 Sm120 2.450 . S
O141 C122 1.242 . S
O142 Sm120 2.681 . S
O142 Sm121 2.386 . S
O142 C129 1.271 . S
O143 Sm120 2.464 . S
O143 C129 1.251 . S
O144 Sm120 2.396 . S
O144 C130 1.252 . S
O145 Sm121 2.408 . S
O145 C130 1.272 . S
O146 Sm121 2.543 . S
O146 C131 1.261 . S
O147 Sm121 2.450 . S
O147 C131 1.242 . S
O148 Sm120 2.386 . S
O148 Sm121 2.681 . S
O148 C138 1.271 . S
O149 Sm121 2.464 . S
O149 C138 1.251 . S
O150 Sm121 2.396 . S
O150 C139 1.252 . S
O151 Sm120 2.408 . S
O151 C139 1.272 . S
H152 C124 0.930 . S
H153 C125 0.929 . S
H154 C127 0.930 . S
H155 C128 0.929 . S
H156 C133 0.930 . S
H157 C134 0.929 . S
H158 C136 0.930 . S
H159 C137 0.929 . S
Sm160 C162 2.846 . S
Sm160 O180 2.543 . S
Sm160 O181 2.450 . S
Sm160 O182 2.681 . S
Sm160 O183 2.464 . S
Sm160 O184 2.396 . S
Sm160 O188 2.386 . S
Sm160 O191 2.408 . S
Sm161 C171 2.846 . S
Sm161 O182 2.386 . S
Sm161 O185 2.408 . S
Sm161 O186 2.543 . S
Sm161 O187 2.450 . S
Sm161 O188 2.681 . S
Sm161 O189 2.464 . S
Sm161 O190 2.396 . S
C162 Sm160 2.846 . S
C162 C163 1.506 . S
C162 O180 1.261 . S
C162 O181 1.242 . S
C163 C162 1.506 . S
C163 C164 1.358 . S
C163 C168 1.382 . S
C164 C163 1.358 . S
C164 C165 1.385 . S
C164 H192 0.930 . S
C165 C164 1.385 . S
C165 C166 1.395 . S
C165 H193 0.929 . S
C166 C165 1.395 . S
C166 C167 1.335 . S
C167 C166 1.335 . S
C167 C168 1.398 . S
C167 H194 0.930 . S
C168 C163 1.382 . S
C168 C167 1.398 . S
C168 H195 0.929 . S
C169 O182 1.271 . S
C169 O183 1.251 . S
C170 O184 1.252 . S
C170 O185 1.272 . S
C171 Sm161 2.846 . S
C171 C172 1.506 . S
C171 O186 1.261 . S
C171 O187 1.242 . S
C172 C171 1.506 . S
C172 C173 1.358 . S
C172 C177 1.382 . S
C173 C172 1.358 . S
C173 C174 1.385 1_554 S
C173 H196 0.930 . S
C174 C173 1.385 1_556 S
C174 C175 1.395 . S
C174 H197 0.929 . S
C175 C174 1.395 . S
C175 C176 1.335 1_556 S
C176 C175 1.335 1_554 S
C176 C177 1.398 . S
C176 H198 0.930 1_554 S
C177 C172 1.382 . S
C177 C176 1.398 . S
C177 H199 0.929 . S
C178 O188 1.271 . S
C178 O189 1.251 . S
C179 O190 1.252 . S
C179 O191 1.272 . S
O180 Sm160 2.543 . S
O180 C162 1.261 . S
O181 Sm160 2.450 . S
O181 C162 1.242 . S
O182 Sm160 2.681 . S
O182 Sm161 2.386 . S
O182 C169 1.271 . S
O183 Sm160 2.464 . S
O183 C169 1.251 . S
O184 Sm160 2.396 . S
O184 C170 1.252 . S
O185 Sm161 2.408 . S
O185 C170 1.272 . S
O186 Sm161 2.543 . S
O186 C171 1.261 . S
O187 Sm161 2.450 . S
O187 C171 1.242 . S
O188 Sm160 2.386 . S
O188 Sm161 2.681 . S
O188 C178 1.271 . S
O189 Sm161 2.464 . S
O189 C178 1.251 . S
O190 Sm161 2.396 . S
O190 C179 1.252 . S
O191 Sm160 2.408 . S
O191 C179 1.272 . S
H192 C164 0.930 . S
H193 C165 0.929 . S
H194 C167 0.930 . S
H195 C168 0.929 . S
H196 C173 0.930 . S
H197 C174 0.929 . S
H198 C176 0.930 1_556 S
H199 C177 0.929 . S
Sm200 C202 2.846 . S
Sm200 O220 2.543 . S
Sm200 O221 2.450 . S
Sm200 O222 2.681 . S
Sm200 O223 2.464 . S
Sm200 O224 2.396 . S
Sm200 O228 2.386 . S
Sm200 O231 2.408 . S
Sm201 C211 2.846 . S
Sm201 O222 2.386 . S
Sm201 O225 2.408 . S
Sm201 O226 2.543 . S
Sm201 O227 2.450 . S
Sm201 O228 2.681 . S
Sm201 O229 2.464 . S
Sm201 O230 2.396 . S
C202 Sm200 2.846 . S
C202 C203 1.506 . S
C202 O220 1.261 . S
C202 O221 1.242 . S
C203 C202 1.506 . S
C203 C204 1.358 . S
C203 C208 1.382 . S
C204 C203 1.358 . S
C204 C205 1.385 . S
C204 H232 0.930 . S
C205 C204 1.385 . S
C205 C206 1.395 . S
C205 H233 0.929 . S
C206 C205 1.395 . S
C206 C207 1.335 . S
C207 C206 1.335 . S
C207 C208 1.398 . S
C207 H234 0.930 . S
C208 C203 1.382 . S
C208 C207 1.398 . S
C208 H235 0.929 . S
C209 O222 1.271 . S
C209 O223 1.251 . S
C210 O224 1.252 . S
C210 O225 1.272 . S
C211 Sm201 2.846 . S
C211 C212 1.506 . S
C211 O226 1.261 . S
C211 O227 1.242 . S
C212 C211 1.506 . S
C212 C213 1.358 . S
C212 C217 1.382 . S
C213 C212 1.358 . S
C213 C214 1.385 1_556 S
C213 H236 0.930 . S
C214 C213 1.385 1_554 S
C214 C215 1.395 . S
C214 H237 0.929 . S
C215 C214 1.395 . S
C215 C216 1.335 . S
C216 C215 1.335 . S
C216 C217 1.398 1_554 S
C216 H238 0.930 . S
C217 C212 1.382 . S
C217 C216 1.398 1_556 S
C217 H239 0.929 . S
C218 O228 1.271 . S
C218 O229 1.251 . S
C219 O230 1.252 . S
C219 O231 1.272 . S
O220 Sm200 2.543 . S
O220 C202 1.261 . S
O221 Sm200 2.450 . S
O221 C202 1.242 . S
O222 Sm200 2.681 . S
O222 Sm201 2.386 . S
O222 C209 1.271 . S
O223 Sm200 2.464 . S
O223 C209 1.251 . S
O224 Sm200 2.396 . S
O224 C210 1.252 . S
O225 Sm201 2.408 . S
O225 C210 1.272 . S
O226 Sm201 2.543 . S
O226 C211 1.261 . S
O227 Sm201 2.450 . S
O227 C211 1.242 . S
O228 Sm200 2.386 . S
O228 Sm201 2.681 . S
O228 C218 1.271 . S
O229 Sm201 2.464 . S
O229 C218 1.251 . S
O230 Sm201 2.396 . S
O230 C219 1.252 . S
O231 Sm200 2.408 . S
O231 C219 1.272 . S
H232 C204 0.930 . S
H233 C205 0.929 . S
H234 C207 0.930 . S
H235 C208 0.929 . S
H236 C213 0.930 . S
H237 C214 0.929 . S
H238 C216 0.930 . S
H239 C217 0.929 . S
Sm240 C242 2.846 . S
Sm240 O260 2.543 . S
Sm240 O261 2.450 . S
Sm240 O262 2.681 1_556 S
Sm240 O263 2.464 . S
Sm240 O264 2.396 . S
Sm240 O268 2.386 . S
Sm240 O271 2.408 1_556 S
Sm241 C251 2.846 . S
Sm241 O262 2.386 . S
Sm241 O265 2.408 1_554 S
Sm241 O266 2.543 . S
Sm241 O267 2.450 . S
Sm241 O268 2.681 1_554 S
Sm241 O269 2.464 . S
Sm241 O270 2.396 . S
C242 Sm240 2.846 . S
C242 C243 1.506 . S
C242 O260 1.261 . S
C242 O261 1.242 . S
C243 C242 1.506 . S
C243 C244 1.358 . S
C243 C248 1.382 . S
C244 C243 1.358 . S
C244 C245 1.385 . S
C244 H272 0.930 . S
C245 C244 1.385 . S
C245 C246 1.395 . S
C245 H273 0.929 . S
C246 C245 1.395 . S
C246 C247 1.335 . S
C247 C246 1.335 . S
C247 C248 1.398 . S
C247 H274 0.930 . S
C248 C243 1.382 . S
C248 C247 1.398 . S
C248 H275 0.929 . S
C249 O262 1.271 . S
C249 O263 1.251 1_554 S
C250 O264 1.252 . S
C250 O265 1.272 . S
C251 Sm241 2.846 . S
C251 C252 1.506 . S
C251 O266 1.261 . S
C251 O267 1.242 . S
C252 C251 1.506 . S
C252 C253 1.358 . S
C252 C257 1.382 . S
C253 C252 1.358 . S
C253 C254 1.385 . S
C253 H276 0.930 . S
C254 C253 1.385 . S
C254 C255 1.395 . S
C254 H277 0.929 . S
C255 C254 1.395 . S
C255 C256 1.335 . S
C256 C255 1.335 . S
C256 C257 1.398 . S
C256 H278 0.930 . S
C257 C252 1.382 . S
C257 C256 1.398 . S
C257 H279 0.929 . S
C258 O268 1.271 . S
C258 O269 1.251 1_556 S
C259 O270 1.252 . S
C259 O271 1.272 . S
O260 Sm240 2.543 . S
O260 C242 1.261 . S
O261 Sm240 2.450 . S
O261 C242 1.242 . S
O262 Sm240 2.681 1_554 S
O262 Sm241 2.386 . S
O262 C249 1.271 . S
O263 Sm240 2.464 . S
O263 C249 1.251 1_556 S
O264 Sm240 2.396 . S
O264 C250 1.252 . S
O265 Sm241 2.408 1_556 S
O265 C250 1.272 . S
O266 Sm241 2.543 . S
O266 C251 1.261 . S
O267 Sm241 2.450 . S
O267 C251 1.242 . S
O268 Sm240 2.386 . S
O268 Sm241 2.681 1_556 S
O268 C258 1.271 . S
O269 Sm241 2.464 . S
O269 C258 1.251 1_554 S
O270 Sm241 2.396 . S
O270 C259 1.252 . S
O271 Sm240 2.408 1_554 S
O271 C259 1.272 . S
H272 C244 0.930 . S
H273 C245 0.929 . S
H274 C247 0.930 . S
H275 C248 0.929 . S
H276 C253 0.930 . S
H277 C254 0.929 . S
H278 C256 0.930 . S
H279 C257 0.929 . S
Sm280 C282 2.846 1_455 S
Sm280 O300 2.543 . S
Sm280 O301 2.450 1_455 S
Sm280 O302 2.681 1_455 S
Sm280 O303 2.464 1_455 S
Sm280 O304 2.396 1_455 S
Sm280 O308 2.386 . S
Sm280 O311 2.408 . S
Sm281 C291 2.846 1_655 S
Sm281 O302 2.386 . S
Sm281 O305 2.408 . S
Sm281 O306 2.543 . S
Sm281 O307 2.450 1_655 S
Sm281 O308 2.681 1_655 S
Sm281 O309 2.464 1_655 S
Sm281 O310 2.396 1_655 S
C282 Sm280 2.846 1_655 S
C282 C283 1.506 . S
C282 O300 1.261 1_655 S
C282 O301 1.242 . S
C283 C282 1.506 . S
C283 C284 1.358 . S
C283 C288 1.382 . S
C284 C283 1.358 . S
C284 C285 1.385 . S
C284 H312 0.930 1_655 S
C285 C284 1.385 . S
C285 C286 1.395 . S
C285 H313 0.929 . S
C286 C285 1.395 . S
C286 C287 1.335 . S
C287 C286 1.335 . S
C287 C288 1.398 . S
C287 H314 0.930 . S
C288 C283 1.382 . S
C288 C287 1.398 . S
C288 H315 0.929 . S
C289 O302 1.271 . S
C289 O303 1.251 . S
C290 O304 1.252 . S
C290 O305 1.272 . S
C291 Sm281 2.846 1_455 S
C291 C292 1.506 . S
C291 O306 1.261 1_455 S
C291 O307 1.242 . S
C292 C291 1.506 . S
C292 C293 1.358 . S
C292 C297 1.382 . S
C293 C292 1.358 . S
C293 C294 1.385 . S
C293 H316 0.930 1_455 S
C294 C293 1.385 . S
C294 C295 1.395 . S
C294 H317 0.929 . S
C295 C294 1.395 . S
C295 C296 1.335 . S
C296 C295 1.335 . S
C296 C297 1.398 . S
C296 H318 0.930 . S
C297 C292 1.382 . S
C297 C296 1.398 . S
C297 H319 0.929 . S
C298 O308 1.271 . S
C298 O309 1.251 . S
C299 O310 1.252 . S
C299 O311 1.272 . S
O300 Sm280 2.543 . S
O300 C282 1.261 1_455 S
O301 Sm280 2.450 1_655 S
O301 C282 1.242 . S
O302 Sm280 2.681 1_655 S
O302 Sm281 2.386 . S
O302 C289 1.271 . S
O303 Sm280 2.464 1_655 S
O303 C289 1.251 . S
O304 Sm280 2.396 1_655 S
O304 C290 1.252 . S
O305 Sm281 2.408 . S
O305 C290 1.272 . S
O306 Sm281 2.543 . S
O306 C291 1.261 1_655 S
O307 Sm281 2.450 1_455 S
O307 C291 1.242 . S
O308 Sm280 2.386 . S
O308 Sm281 2.681 1_455 S
O308 C298 1.271 . S
O309 Sm281 2.464 1_455 S
O309 C298 1.251 . S
O310 Sm281 2.396 1_455 S
O310 C299 1.252 . S
O311 Sm280 2.408 . S
O311 C299 1.272 . S
H312 C284 0.930 1_455 S
H313 C285 0.929 . S
H314 C287 0.930 . S
H315 C288 0.929 . S
H316 C293 0.930 1_655 S
H317 C294 0.929 . S
H318 C296 0.930 . S
H319 C297 0.929 . S
C320 C321 1.349 . S
C320 C322 1.327 . S
C320 H345 0.950 . S
C321 C320 1.349 . S
C321 C337 1.349 . S
C322 C320 1.327 . S
C322 C341 1.429 . S
C322 H346 0.950 . S
C323 C340 1.574 . S
C323 C342 1.368 . S
C323 H347 0.949 . S
H324 C328 0.949 . S
C325 C326 1.349 . S
C325 C327 1.327 . S
C325 H348 0.950 . S
C326 C325 1.349 . S
C326 C338 1.349 . S
C327 C325 1.327 . S
C327 C343 1.429 . S
C327 H349 0.950 . S
C328 H324 0.949 . S
C328 C336 1.574 . S
C328 C344 1.368 . S
H329 C337 0.950 . S
H330 C335 0.950 . S
H331 C336 0.949 . S
H332 C338 0.950 . S
H333 C339 0.950 . S
H334 C340 0.949 . S
C335 H330 0.950 . S
C335 C337 1.327 . S
C335 C341 1.429 . S
C336 C328 1.574 . S
C336 H331 0.949 . S
C336 C342 1.368 . S
C337 C321 1.349 . S
C337 H329 0.950 . S
C337 C335 1.327 . S
C338 C326 1.349 . S
C338 H332 0.950 . S
C338 C339 1.327 . S
C339 H333 0.950 . S
C339 C338 1.327 . S
C339 C343 1.429 . S
C340 C323 1.574 . S
C340 H334 0.949 . S
C340 C344 1.368 . S
C341 C322 1.429 . S
C341 C335 1.429 . S
C341 C342 1.523 . S
C342 C323 1.368 . S
C342 C336 1.368 . S
C342 C341 1.523 . S
C343 C327 1.429 . S
C343 C339 1.429 . S
C343 C344 1.523 . S
C344 C328 1.368 . S
C344 C340 1.368 . S
C344 C343 1.523 . S
H345 C320 0.950 . S
H346 C322 0.950 . S
H347 C323 0.949 . S
H348 C325 0.950 . S
H349 C327 0.950 . S
C350 C351 1.349 . S
C350 C352 1.327 . S
C350 H375 0.950 . S
C351 C350 1.349 . S
C351 C367 1.349 . S
C352 C350 1.327 . S
C352 C371 1.429 . S
C352 H376 0.950 . S
C353 C370 1.574 . S
C353 C372 1.368 . S
C353 H377 0.949 . S
H354 C358 0.949 . S
C355 C356 1.349 . S
C355 C357 1.327 . S
C355 H378 0.950 . S
C356 C355 1.349 . S
C356 C368 1.349 . S
C357 C355 1.327 . S
C357 C373 1.429 . S
C357 H379 0.950 . S
C358 H354 0.949 . S
C358 C366 1.574 . S
C358 C374 1.368 . S
H359 C367 0.950 . S
H360 C365 0.950 . S
H361 C366 0.949 . S
H362 C368 0.950 . S
H363 C369 0.950 . S
H364 C370 0.949 . S
C365 H360 0.950 . S
C365 C367 1.327 . S
C365 C371 1.429 . S
C366 C358 1.574 . S
C366 H361 0.949 . S
C366 C372 1.368 . S
C367 C351 1.349 . S
C367 H359 0.950 . S
C367 C365 1.327 . S
C368 C356 1.349 . S
C368 H362 0.950 . S
C368 C369 1.327 . S
C369 H363 0.950 . S
C369 C368 1.327 . S
C369 C373 1.429 . S
C370 C353 1.574 . S
C370 H364 0.949 . S
C370 C374 1.368 . S
C371 C352 1.429 . S
C371 C365 1.429 . S
C371 C372 1.523 . S
C372 C353 1.368 . S
C372 C366 1.368 . S
C372 C371 1.523 . S
C373 C357 1.429 . S
C373 C369 1.429 . S
C373 C374 1.523 . S
C374 C358 1.368 . S
C374 C370 1.368 . S
C374 C373 1.523 . S
H375 C350 0.950 . S
H376 C352 0.950 . S
H377 C353 0.949 . S
H378 C355 0.950 . S
H379 C357 0.950 . S
C380 C381 1.349 . S
C380 C382 1.327 . S
C380 H405 0.950 . S
C381 C380 1.349 . S
C381 C397 1.349 . S
C382 C380 1.327 . S
C382 C401 1.429 . S
C382 H406 0.950 . S
C383 C400 1.574 . S
C383 C402 1.368 . S
C383 H407 0.949 . S
H384 C388 0.949 . S
C385 C386 1.349 . S
C385 C387 1.327 . S
C385 H408 0.950 1_556 S
C386 C385 1.349 . S
C386 C398 1.349 . S
C387 C385 1.327 . S
C387 C403 1.429 . S
C387 H409 0.950 . S
C388 H384 0.949 . S
C388 C396 1.574 . S
C388 C404 1.368 . S
H389 C397 0.950 . S
H390 C395 0.950 . S
H391 C396 0.949 . S
H392 C398 0.950 . S
H393 C399 0.950 . S
H394 C400 0.949 . S
C395 H390 0.950 . S
C395 C397 1.327 . S
C395 C401 1.429 . S
C396 C388 1.574 . S
C396 H391 0.949 . S
C396 C402 1.368 . S
C397 C381 1.349 . S
C397 H389 0.950 . S
C397 C395 1.327 . S
C398 C386 1.349 . S
C398 H392 0.950 . S
C398 C399 1.327 . S
C399 H393 0.950 . S
C399 C398 1.327 . S
C399 C403 1.429 . S
C400 C383 1.574 . S
C400 H394 0.949 . S
C400 C404 1.368 . S
C401 C382 1.429 . S
C401 C395 1.429 . S
C401 C402 1.523 . S
C402 C383 1.368 . S
C402 C396 1.368 . S
C402 C401 1.523 . S
C403 C387 1.429 . S
C403 C399 1.429 . S
C403 C404 1.523 . S
C404 C388 1.368 . S
C404 C400 1.368 . S
C404 C403 1.523 . S
H405 C380 0.950 . S
H406 C382 0.950 . S
H407 C383 0.949 . S
H408 C385 0.950 1_554 S
H409 C387 0.950 . S
C410 C411 1.349 . S
C410 C412 1.327 . S
C410 H435 0.950 . S
C411 C410 1.349 . S
C411 C427 1.349 . S
C412 C410 1.327 . S
C412 C431 1.429 . S
C412 H436 0.950 . S
C413 C430 1.574 . S
C413 C432 1.368 . S
C413 H437 0.949 . S
H414 C418 0.949 . S
C415 C416 1.349 . S
C415 C417 1.327 . S
C415 H438 0.950 . S
C416 C415 1.349 . S
C416 C428 1.349 . S
C417 C415 1.327 . S
C417 C433 1.429 . S
C417 H439 0.950 . S
C418 H414 0.949 . S
C418 C426 1.574 . S
C418 C434 1.368 . S
H419 C427 0.950 . S
H420 C425 0.950 . S
H421 C426 0.949 . S
H422 C428 0.950 . S
H423 C429 0.950 . S
H424 C430 0.949 . S
C425 H420 0.950 . S
C425 C427 1.327 . S
C425 C431 1.429 . S
C426 C418 1.574 . S
C426 H421 0.949 . S
C426 C432 1.368 . S
C427 C411 1.349 . S
C427 H419 0.950 . S
C427 C425 1.327 . S
C428 C416 1.349 . S
C428 H422 0.950 . S
C428 C429 1.327 . S
C429 H423 0.950 . S
C429 C428 1.327 . S
C429 C433 1.429 . S
C430 C413 1.574 . S
C430 H424 0.949 . S
C430 C434 1.368 . S
C431 C412 1.429 . S
C431 C425 1.429 . S
C431 C432 1.523 . S
C432 C413 1.368 . S
C432 C426 1.368 . S
C432 C431 1.523 . S
C433 C417 1.429 . S
C433 C429 1.429 . S
C433 C434 1.523 . S
C434 C418 1.368 . S
C434 C430 1.368 . S
C434 C433 1.523 . S
H435 C410 0.950 . S
H436 C412 0.950 . S
H437 C413 0.949 . S
H438 C415 0.950 . S
H439 C417 0.950 . S
C440 C441 1.349 . S
C440 C442 1.327 . S
C440 H465 0.950 . S
C441 C440 1.349 . S
C441 C457 1.349 . S
C442 C440 1.327 . S
C442 C461 1.429 . S
C442 H466 0.950 . S
C443 C460 1.574 . S
C443 C462 1.368 . S
C443 H467 0.949 . S
H444 C448 0.949 . S
C445 C446 1.349 . S
C445 C447 1.327 . S
C445 H468 0.950 . S
C446 C445 1.349 . S
C446 C458 1.349 . S
C447 C445 1.327 . S
C447 C463 1.429 . S
C447 H469 0.950 . S
C448 H444 0.949 . S
C448 C456 1.574 . S
C448 C464 1.368 . S
H449 C457 0.950 . S
H450 C455 0.950 . S
H451 C456 0.949 . S
H452 C458 0.950 . S
H453 C459 0.950 . S
H454 C460 0.949 . S
C455 H450 0.950 . S
C455 C457 1.327 . S
C455 C461 1.429 . S
C456 C448 1.574 . S
C456 H451 0.949 . S
C456 C462 1.368 . S
C457 C441 1.349 . S
C457 H449 0.950 . S
C457 C455 1.327 . S
C458 C446 1.349 . S
C458 H452 0.950 . S
C458 C459 1.327 . S
C459 H453 0.950 . S
C459 C458 1.327 . S
C459 C463 1.429 . S
C460 C443 1.574 . S
C460 H454 0.949 . S
C460 C464 1.368 . S
C461 C442 1.429 . S
C461 C455 1.429 . S
C461 C462 1.523 . S
C462 C443 1.368 . S
C462 C456 1.368 . S
C462 C461 1.523 . S
C463 C447 1.429 . S
C463 C459 1.429 . S
C463 C464 1.523 . S
C464 C448 1.368 . S
C464 C460 1.368 . S
C464 C463 1.523 . S
H465 C440 0.950 . S
H466 C442 0.950 . S
H467 C443 0.949 . S
H468 C445 0.950 . S
H469 C447 0.950 . S
C470 C471 1.349 . S
C470 C472 1.327 . S
C470 H495 0.950 . S
C471 C470 1.349 . S
C471 C487 1.349 . S
C472 C470 1.327 . S
C472 C491 1.429 . S
C472 H496 0.950 . S
C473 C490 1.574 . S
C473 C492 1.368 . S
C473 H497 0.949 . S
H474 C478 0.949 . S
C475 C476 1.349 . S
C475 C477 1.327 . S
C475 H498 0.950 . S
C476 C475 1.349 . S
C476 C488 1.349 . S
C477 C475 1.327 . S
C477 C493 1.429 . S
C477 H499 0.950 . S
C478 H474 0.949 . S
C478 C486 1.574 . S
C478 C494 1.368 . S
H479 C487 0.950 . S
H480 C485 0.950 . S
H481 C486 0.949 . S
H482 C488 0.950 . S
H483 C489 0.950 . S
H484 C490 0.949 . S
C485 H480 0.950 . S
C485 C487 1.327 . S
C485 C491 1.429 . S
C486 C478 1.574 . S
C486 H481 0.949 . S
C486 C492 1.368 . S
C487 C471 1.349 . S
C487 H479 0.950 . S
C487 C485 1.327 . S
C488 C476 1.349 . S
C488 H482 0.950 . S
C488 C489 1.327 . S
C489 H483 0.950 . S
C489 C488 1.327 . S
C489 C493 1.429 . S
C490 C473 1.574 . S
C490 H484 0.949 . S
C490 C494 1.368 . S
C491 C472 1.429 . S
C491 C485 1.429 . S
C491 C492 1.523 . S
C492 C473 1.368 . S
C492 C486 1.368 . S
C492 C491 1.523 . S
C493 C477 1.429 . S
C493 C489 1.429 . S
C493 C494 1.523 . S
C494 C478 1.368 . S
C494 C490 1.368 . S
C494 C493 1.523 . S
H495 C470 0.950 . S
H496 C472 0.950 . S
H497 C473 0.949 . S
H498 C475 0.950 . S
H499 C477 0.950 . S
C500 C501 1.349 . S
C500 C502 1.327 . S
C500 H525 0.950 . S
C501 C500 1.349 . S
C501 C517 1.349 . S
C502 C500 1.327 . S
C502 C521 1.429 . S
C502 H526 0.950 . S
C503 C520 1.574 . S
C503 C522 1.368 . S
C503 H527 0.949 . S
H504 C508 0.949 . S
C505 C506 1.349 . S
C505 C507 1.327 . S
C505 H528 0.950 1_554 S
C506 C505 1.349 . S
C506 C518 1.349 . S
C507 C505 1.327 . S
C507 C523 1.429 . S
C507 H529 0.950 . S
C508 H504 0.949 . S
C508 C516 1.574 . S
C508 C524 1.368 . S
H509 C517 0.950 . S
H510 C515 0.950 . S
H511 C516 0.949 . S
H512 C518 0.950 . S
H513 C519 0.950 . S
H514 C520 0.949 . S
C515 H510 0.950 . S
C515 C517 1.327 . S
C515 C521 1.429 . S
C516 C508 1.574 . S
C516 H511 0.949 . S
C516 C522 1.368 . S
C517 C501 1.349 . S
C517 H509 0.950 . S
C517 C515 1.327 . S
C518 C506 1.349 . S
C518 H512 0.950 . S
C518 C519 1.327 . S
C519 H513 0.950 . S
C519 C518 1.327 . S
C519 C523 1.429 . S
C520 C503 1.574 . S
C520 H514 0.949 . S
C520 C524 1.368 . S
C521 C502 1.429 . S
C521 C515 1.429 . S
C521 C522 1.523 . S
C522 C503 1.368 . S
C522 C516 1.368 . S
C522 C521 1.523 . S
C523 C507 1.429 . S
C523 C519 1.429 . S
C523 C524 1.523 . S
C524 C508 1.368 . S
C524 C520 1.368 . S
C524 C523 1.523 . S
H525 C500 0.950 . S
H526 C502 0.950 . S
H527 C503 0.949 . S
H528 C505 0.950 1_556 S
H529 C507 0.950 . S
C530 C531 1.349 . S
C530 C532 1.327 . S
C530 H555 0.950 . S
C531 C530 1.349 . S
C531 C547 1.349 . S
C532 C530 1.327 . S
C532 C551 1.429 . S
C532 H556 0.950 . S
C533 C550 1.574 . S
C533 C552 1.368 . S
C533 H557 0.949 . S
H534 C538 0.949 . S
C535 C536 1.349 . S
C535 C537 1.327 . S
C535 H558 0.950 . S
C536 C535 1.349 . S
C536 C548 1.349 . S
C537 C535 1.327 . S
C537 C553 1.429 . S
C537 H559 0.950 . S
C538 H534 0.949 . S
C538 C546 1.574 . S
C538 C554 1.368 . S
H539 C547 0.950 . S
H540 C545 0.950 . S
H541 C546 0.949 . S
H542 C548 0.950 . S
H543 C549 0.950 . S
H544 C550 0.949 . S
C545 H540 0.950 . S
C545 C547 1.327 . S
C545 C551 1.429 . S
C546 C538 1.574 . S
C546 H541 0.949 . S
C546 C552 1.368 . S
C547 C531 1.349 . S
C547 H539 0.950 . S
C547 C545 1.327 . S
C548 C536 1.349 . S
C548 H542 0.950 . S
C548 C549 1.327 . S
C549 H543 0.950 . S
C549 C548 1.327 . S
C549 C553 1.429 . S
C550 C533 1.574 . S
C550 H544 0.949 . S
C550 C554 1.368 . S
C551 C532 1.429 . S
C551 C545 1.429 . S
C551 C552 1.523 . S
C552 C533 1.368 . S
C552 C546 1.368 . S
C552 C551 1.523 . S
C553 C537 1.429 . S
C553 C549 1.429 . S
C553 C554 1.523 . S
C554 C538 1.368 . S
C554 C550 1.368 . S
C554 C553 1.523 . S
H555 C530 0.950 . S
H556 C532 0.950 . S
H557 C533 0.949 . S
H558 C535 0.950 . S
H559 C537 0.950 . S
C560 C561 1.349 . S
C560 C562 1.327 . S
C560 H585 0.950 . S
C561 C560 1.349 . S
C561 C577 1.349 . S
C562 C560 1.327 . S
C562 C581 1.429 . S
C562 H586 0.950 . S
C563 C580 1.574 . S
C563 C582 1.368 . S
C563 H587 0.949 . S
H564 C568 0.949 . S
C565 C566 1.349 . S
C565 C567 1.327 . S
C565 H588 0.950 . S
C566 C565 1.349 . S
C566 C578 1.349 . S
C567 C565 1.327 . S
C567 C583 1.429 . S
C567 H589 0.950 . S
C568 H564 0.949 . S
C568 C576 1.574 . S
C568 C584 1.368 . S
H569 C577 0.950 . S
H570 C575 0.950 . S
H571 C576 0.949 . S
H572 C578 0.950 . S
H573 C579 0.950 . S
H574 C580 0.949 . S
C575 H570 0.950 . S
C575 C577 1.327 . S
C575 C581 1.429 . S
C576 C568 1.574 . S
C576 H571 0.949 . S
C576 C582 1.368 . S
C577 C561 1.349 . S
C577 H569 0.950 . S
C577 C575 1.327 . S
C578 C566 1.349 . S
C578 H572 0.950 . S
C578 C579 1.327 . S
C579 H573 0.950 . S
C579 C578 1.327 . S
C579 C583 1.429 . S
C580 C563 1.574 . S
C580 H574 0.949 . S
C580 C584 1.368 . S
C581 C562 1.429 . S
C581 C575 1.429 . S
C581 C582 1.523 . S
C582 C563 1.368 . S
C582 C576 1.368 . S
C582 C581 1.523 . S
C583 C567 1.429 . S
C583 C579 1.429 . S
C583 C584 1.523 . S
C584 C568 1.368 . S
C584 C580 1.368 . S
C584 C583 1.523 . S
H585 C560 0.950 . S
H586 C562 0.950 . S
H587 C563 0.949 . S
H588 C565 0.950 . S
H589 C567 0.950 . S
C590 C591 1.349 . S
C590 C592 1.327 . S
C590 H615 0.950 . S
C591 C590 1.349 . S
C591 C607 1.349 . S
C592 C590 1.327 . S
C592 C611 1.429 . S
C592 H616 0.950 . S
C593 C610 1.574 . S
C593 C612 1.368 . S
C593 H617 0.949 . S
H594 C598 0.949 . S
C595 C596 1.349 . S
C595 C597 1.327 . S
C595 H618 0.950 1_554 S
C596 C595 1.349 . S
C596 C608 1.349 . S
C597 C595 1.327 . S
C597 C613 1.429 . S
C597 H619 0.950 . S
C598 H594 0.949 . S
C598 C606 1.574 . S
C598 C614 1.368 . S
H599 C607 0.950 . S
H600 C605 0.950 . S
H601 C606 0.949 . S
H602 C608 0.950 . S
H603 C609 0.950 . S
H604 C610 0.949 . S
C605 H600 0.950 . S
C605 C607 1.327 . S
C605 C611 1.429 . S
C606 C598 1.574 . S
C606 H601 0.949 . S
C606 C612 1.368 . S
C607 C591 1.349 . S
C607 H599 0.950 . S
C607 C605 1.327 . S
C608 C596 1.349 . S
C608 H602 0.950 . S
C608 C609 1.327 . S
C609 H603 0.950 . S
C609 C608 1.327 . S
C609 C613 1.429 . S
C610 C593 1.574 . S
C610 H604 0.949 . S
C610 C614 1.368 . S
C611 C592 1.429 . S
C611 C605 1.429 . S
C611 C612 1.523 . S
C612 C593 1.368 . S
C612 C606 1.368 . S
C612 C611 1.523 . S
C613 C597 1.429 . S
C613 C609 1.429 . S
C613 C614 1.523 . S
C614 C598 1.368 . S
C614 C610 1.368 . S
C614 C613 1.523 . S
H615 C590 0.950 . S
H616 C592 0.950 . S
H617 C593 0.949 . S
H618 C595 0.950 1_556 S
H619 C597 0.950 . S
C620 C621 1.349 . S
C620 C622 1.327 . S
C620 H645 0.950 . S
C621 C620 1.349 . S
C621 C637 1.349 . S
C622 C620 1.327 . S
C622 C641 1.429 . S
C622 H646 0.950 . S
C623 C640 1.574 . S
C623 C642 1.368 . S
C623 H647 0.949 . S
H624 C628 0.949 . S
C625 C626 1.349 . S
C625 C627 1.327 . S
C625 H648 0.950 . S
C626 C625 1.349 . S
C626 C638 1.349 . S
C627 C625 1.327 . S
C627 C643 1.429 . S
C627 H649 0.950 . S
C628 H624 0.949 . S
C628 C636 1.574 . S
C628 C644 1.368 . S
H629 C637 0.950 . S
H630 C635 0.950 . S
H631 C636 0.949 . S
H632 C638 0.950 . S
H633 C639 0.950 . S
H634 C640 0.949 . S
C635 H630 0.950 . S
C635 C637 1.327 . S
C635 C641 1.429 . S
C636 C628 1.574 . S
C636 H631 0.949 . S
C636 C642 1.368 . S
C637 C621 1.349 . S
C637 H629 0.950 . S
C637 C635 1.327 . S
C638 C626 1.349 . S
C638 H632 0.950 . S
C638 C639 1.327 . S
C639 H633 0.950 . S
C639 C638 1.327 . S
C639 C643 1.429 . S
C640 C623 1.574 . S
C640 H634 0.949 . S
C640 C644 1.368 . S
C641 C622 1.429 . S
C641 C635 1.429 . S
C641 C642 1.523 . S
C642 C623 1.368 . S
C642 C636 1.368 . S
C642 C641 1.523 . S
C643 C627 1.429 . S
C643 C639 1.429 . S
C643 C644 1.523 . S
C644 C628 1.368 . S
C644 C640 1.368 . S
C644 C643 1.523 . S
H645 C620 0.950 . S
H646 C622 0.950 . S
H647 C623 0.949 . S
H648 C625 0.950 . S
H649 C627 0.950 . S
C650 C651 1.349 . S
C650 C652 1.327 . S
C650 H675 0.950 . S
C651 C650 1.349 . S
C651 C667 1.349 . S
C652 C650 1.327 . S
C652 C671 1.429 . S
C652 H676 0.950 . S
C653 C670 1.574 . S
C653 C672 1.368 . S
C653 H677 0.949 . S
H654 C658 0.949 . S
C655 C656 1.349 . S
C655 C657 1.327 . S
C655 H678 0.950 . S
C656 C655 1.349 . S
C656 C668 1.349 . S
C657 C655 1.327 . S
C657 C673 1.429 . S
C657 H679 0.950 . S
C658 H654 0.949 . S
C658 C666 1.574 . S
C658 C674 1.368 . S
H659 C667 0.950 . S
H660 C665 0.950 . S
H661 C666 0.949 . S
H662 C668 0.950 . S
H663 C669 0.950 . S
H664 C670 0.949 . S
C665 H660 0.950 . S
C665 C667 1.327 . S
C665 C671 1.429 . S
C666 C658 1.574 . S
C666 H661 0.949 . S
C666 C672 1.368 . S
C667 C651 1.349 . S
C667 H659 0.950 . S
C667 C665 1.327 . S
C668 C656 1.349 . S
C668 H662 0.950 . S
C668 C669 1.327 . S
C669 H663 0.950 . S
C669 C668 1.327 . S
C669 C673 1.429 . S
C670 C653 1.574 . S
C670 H664 0.949 . S
C670 C674 1.368 . S
C671 C652 1.429 . S
C671 C665 1.429 . S
C671 C672 1.523 . S
C672 C653 1.368 . S
C672 C666 1.368 . S
C672 C671 1.523 . S
C673 C657 1.429 . S
C673 C669 1.429 . S
C673 C674 1.523 . S
C674 C658 1.368 . S
C674 C670 1.368 . S
C674 C673 1.523 . S
H675 C650 0.950 . S
H676 C652 0.950 . S
H677 C653 0.949 . S
H678 C655 0.950 . S
H679 C657 0.950 . S
C680 C681 1.349 . S
C680 C682 1.327 . S
C680 H705 0.950 . S
C681 C680 1.349 . S
C681 C697 1.349 . S
C682 C680 1.327 . S
C682 C701 1.429 . S
C682 H706 0.950 . S
C683 C700 1.574 . S
C683 C702 1.368 . S
C683 H707 0.949 . S
H684 C688 0.949 . S
C685 C686 1.349 . S
C685 C687 1.327 . S
C685 H708 0.950 . S
C686 C685 1.349 . S
C686 C698 1.349 . S
C687 C685 1.327 . S
C687 C703 1.429 . S
C687 H709 0.950 . S
C688 H684 0.949 . S
C688 C696 1.574 . S
C688 C704 1.368 . S
H689 C697 0.950 . S
H690 C695 0.950 . S
H691 C696 0.949 . S
H692 C698 0.950 . S
H693 C699 0.950 . S
H694 C700 0.949 . S
C695 H690 0.950 . S
C695 C697 1.327 . S
C695 C701 1.429 . S
C696 C688 1.574 . S
C696 H691 0.949 . S
C696 C702 1.368 . S
C697 C681 1.349 . S
C697 H689 0.950 . S
C697 C695 1.327 . S
C698 C686 1.349 . S
C698 H692 0.950 . S
C698 C699 1.327 . S
C699 H693 0.950 . S
C699 C698 1.327 . S
C699 C703 1.429 . S
C700 C683 1.574 . S
C700 H694 0.949 . S
C700 C704 1.368 . S
C701 C682 1.429 . S
C701 C695 1.429 . S
C701 C702 1.523 . S
C702 C683 1.368 . S
C702 C696 1.368 . S
C702 C701 1.523 . S
C703 C687 1.429 . S
C703 C699 1.429 . S
C703 C704 1.523 . S
C704 C688 1.368 . S
C704 C700 1.368 . S
C704 C703 1.523 . S
H705 C680 0.950 . S
H706 C682 0.950 . S
H707 C683 0.949 . S
H708 C685 0.950 . S
H709 C687 0.950 . S
C710 C711 1.349 . S
C710 C712 1.327 . S
C710 H735 0.950 . S
C711 C710 1.349 . S
C711 C727 1.349 . S
C712 C710 1.327 . S
C712 C731 1.429 . S
C712 H736 0.950 . S
C713 C730 1.574 . S
C713 C732 1.368 . S
C713 H737 0.949 . S
H714 C718 0.949 . S
C715 C716 1.349 . S
C715 C717 1.327 . S
C715 H738 0.950 . S
C716 C715 1.349 . S
C716 C728 1.349 . S
C717 C715 1.327 . S
C717 C733 1.429 . S
C717 H739 0.950 . S
C718 H714 0.949 . S
C718 C726 1.574 . S
C718 C734 1.368 . S
H719 C727 0.950 . S
H720 C725 0.950 . S
H721 C726 0.949 . S
H722 C728 0.950 . S
H723 C729 0.950 . S
H724 C730 0.949 . S
C725 H720 0.950 . S
C725 C727 1.327 . S
C725 C731 1.429 . S
C726 C718 1.574 . S
C726 H721 0.949 . S
C726 C732 1.368 . S
C727 C711 1.349 . S
C727 H719 0.950 . S
C727 C725 1.327 . S
C728 C716 1.349 . S
C728 H722 0.950 . S
C728 C729 1.327 . S
C729 H723 0.950 . S
C729 C728 1.327 . S
C729 C733 1.429 . S
C730 C713 1.574 . S
C730 H724 0.949 . S
C730 C734 1.368 . S
C731 C712 1.429 . S
C731 C725 1.429 . S
C731 C732 1.523 . S
C732 C713 1.368 . S
C732 C726 1.368 . S
C732 C731 1.523 . S
C733 C717 1.429 . S
C733 C729 1.429 . S
C733 C734 1.523 . S
C734 C718 1.368 . S
C734 C730 1.368 . S
C734 C733 1.523 . S
H735 C710 0.950 . S
H736 C712 0.950 . S
H737 C713 0.949 . S
H738 C715 0.950 . S
H739 C717 0.950 . S
C740 C741 1.349 . S
C740 C742 1.327 . S
C740 H765 0.950 . S
C741 C740 1.349 . S
C741 C757 1.349 . S
C742 C740 1.327 . S
C742 C761 1.429 . S
C742 H766 0.950 . S
C743 C760 1.574 . S
C743 C762 1.368 . S
C743 H767 0.949 . S
H744 C748 0.949 . S
C745 C746 1.349 . S
C745 C747 1.327 . S
C745 H768 0.950 . S
C746 C745 1.349 . S
C746 C758 1.349 . S
C747 C745 1.327 . S
C747 C763 1.429 . S
C747 H769 0.950 . S
C748 H744 0.949 . S
C748 C756 1.574 . S
C748 C764 1.368 . S
H749 C757 0.950 . S
H750 C755 0.950 . S
H751 C756 0.949 . S
H752 C758 0.950 . S
H753 C759 0.950 . S
H754 C760 0.949 . S
C755 H750 0.950 . S
C755 C757 1.327 . S
C755 C761 1.429 . S
C756 C748 1.574 . S
C756 H751 0.949 . S
C756 C762 1.368 . S
C757 C741 1.349 . S
C757 H749 0.950 . S
C757 C755 1.327 . S
C758 C746 1.349 . S
C758 H752 0.950 . S
C758 C759 1.327 . S
C759 H753 0.950 . S
C759 C758 1.327 . S
C759 C763 1.429 . S
C760 C743 1.574 . S
C760 H754 0.949 . S
C760 C764 1.368 . S
C761 C742 1.429 . S
C761 C755 1.429 . S
C761 C762 1.523 . S
C762 C743 1.368 . S
C762 C756 1.368 . S
C762 C761 1.523 . S
C763 C747 1.429 . S
C763 C759 1.429 . S
C763 C764 1.523 . S
C764 C748 1.368 . S
C764 C760 1.368 . S
C764 C763 1.523 . S
H765 C740 0.950 . S
H766 C742 0.950 . S
H767 C743 0.949 . S
H768 C745 0.950 . S
H769 C747 0.950 . S
C770 C771 1.349 . S
C770 C772 1.327 . S
C770 H795 0.950 . S
C771 C770 1.349 . S
C771 C787 1.349 . S
C772 C770 1.327 . S
C772 C791 1.429 . S
C772 H796 0.950 . S
C773 C790 1.574 . S
C773 C792 1.368 . S
C773 H797 0.949 . S
H774 C778 0.949 . S
C775 C776 1.349 . S
C775 C777 1.327 . S
C775 H798 0.950 . S
C776 C775 1.349 . S
C776 C788 1.349 . S
C777 C775 1.327 . S
C777 C793 1.429 . S
C777 H799 0.950 . S
C778 H774 0.949 . S
C778 C786 1.574 . S
C778 C794 1.368 . S
H779 C787 0.950 . S
H780 C785 0.950 . S
H781 C786 0.949 . S
H782 C788 0.950 . S
H783 C789 0.950 . S
H784 C790 0.949 . S
C785 H780 0.950 . S
C785 C787 1.327 . S
C785 C791 1.429 . S
C786 C778 1.574 . S
C786 H781 0.949 . S
C786 C792 1.368 . S
C787 C771 1.349 . S
C787 H779 0.950 . S
C787 C785 1.327 . S
C788 C776 1.349 . S
C788 H782 0.950 . S
C788 C789 1.327 . S
C789 H783 0.950 . S
C789 C788 1.327 . S
C789 C793 1.429 . S
C790 C773 1.574 . S
C790 H784 0.949 . S
C790 C794 1.368 . S
C791 C772 1.429 . S
C791 C785 1.429 . S
C791 C792 1.523 . S
C792 C773 1.368 . S
C792 C786 1.368 . S
C792 C791 1.523 . S
C793 C777 1.429 . S
C793 C789 1.429 . S
C793 C794 1.523 . S
C794 C778 1.368 . S
C794 C790 1.368 . S
C794 C793 1.523 . S
H795 C770 0.950 . S
H796 C772 0.950 . S
H797 C773 0.949 . S
H798 C775 0.950 . S
H799 C777 0.950 . S
C800 C801 1.349 . S
C800 C802 1.327 . S
C800 H825 0.950 . S
C801 C800 1.349 . S
C801 C817 1.349 1_565 S
C802 C800 1.327 . S
C802 C821 1.429 . S
C802 H826 0.950 . S
C803 C820 1.574 1_556 S
C803 C822 1.368 1_545 S
C803 H827 0.949 . S
H804 C808 0.949 . S
C805 C806 1.349 . S
C805 C807 1.327 . S
C805 H828 0.950 . S
C806 C805 1.349 . S
C806 C818 1.349 1_545 S
C807 C805 1.327 . S
C807 C823 1.429 . S
C807 H829 0.950 . S
C808 H804 0.949 . S
C808 C816 1.574 1_554 S
C808 C824 1.368 1_565 S
H809 C817 0.950 . S
H810 C815 0.950 . S
H811 C816 0.949 . S
H812 C818 0.950 . S
H813 C819 0.950 . S
H814 C820 0.949 . S
C815 H810 0.950 . S
C815 C817 1.327 . S
C815 C821 1.429 1_545 S
C816 C808 1.574 1_556 S
C816 H811 0.949 . S
C816 C822 1.368 1_455 S
C817 C801 1.349 1_545 S
C817 H809 0.950 . S
C817 C815 1.327 . S
C818 C806 1.349 1_565 S
C818 H812 0.950 . S
C818 C819 1.327 . S
C819 H813 0.950 . S
C819 C818 1.327 . S
C819 C823 1.429 1_565 S
C820 C803 1.574 1_554 S
C820 H814 0.949 . S
C820 C824 1.368 1_655 S
C821 C802 1.429 . S
C821 C815 1.429 1_565 S
C821 C822 1.523 . S
C822 C803 1.368 1_565 S
C822 C816 1.368 1_655 S
C822 C821 1.523 . S
C823 C807 1.429 . S
C823 C819 1.429 1_545 S
C823 C824 1.523 . S
C824 C808 1.368 1_545 S
C824 C820 1.368 1_455 S
C824 C823 1.523 . S
H825 C800 0.950 . S
H826 C802 0.950 . S
H827 C803 0.949 . S
H828 C805 0.950 . S
H829 C807 0.950 . S
C830 C831 1.349 . S
C830 C832 1.327 . S
C830 H855 0.950 . S
C831 C830 1.349 . S
C831 C847 1.349 . S
C832 C830 1.327 . S
C832 C851 1.429 . S
C832 H856 0.950 . S
C833 C850 1.574 . S
C833 C852 1.368 . S
C833 H857 0.949 . S
H834 C838 0.949 . S
C835 C836 1.349 . S
C835 C837 1.327 . S
C835 H858 0.950 . S
C836 C835 1.349 . S
C836 C848 1.349 . S
C837 C835 1.327 . S
C837 C853 1.429 . S
C837 H859 0.950 . S
C838 H834 0.949 . S
C838 C846 1.574 . S
C838 C854 1.368 . S
H839 C847 0.950 . S
H840 C845 0.950 . S
H841 C846 0.949 . S
H842 C848 0.950 . S
H843 C849 0.950 . S
H844 C850 0.949 . S
C845 H840 0.950 . S
C845 C847 1.327 . S
C845 C851 1.429 . S
C846 C838 1.574 . S
C846 H841 0.949 . S
C846 C852 1.368 . S
C847 C831 1.349 . S
C847 H839 0.950 . S
C847 C845 1.327 . S
C848 C836 1.349 . S
C848 H842 0.950 . S
C848 C849 1.327 . S
C849 H843 0.950 . S
C849 C848 1.327 . S
C849 C853 1.429 . S
C850 C833 1.574 . S
C850 H844 0.949 . S
C850 C854 1.368 . S
C851 C832 1.429 . S
C851 C845 1.429 . S
C851 C852 1.523 . S
C852 C833 1.368 . S
C852 C846 1.368 . S
C852 C851 1.523 . S
C853 C837 1.429 . S
C853 C849 1.429 . S
C853 C854 1.523 . S
C854 C838 1.368 . S
C854 C850 1.368 . S
C854 C853 1.523 . S
H855 C830 0.950 . S
H856 C832 0.950 . S
H857 C833 0.949 . S
H858 C835 0.950 . S
H859 C837 0.950 . S
C860 C861 1.349 1_565 S
C860 C862 1.327 . S
C860 H885 0.950 . S
C861 C860 1.349 1_545 S
C861 C877 1.349 . S
C862 C860 1.327 . S
C862 C881 1.429 1_565 S
C862 H886 0.950 . S
C863 C880 1.574 . S
C863 C882 1.368 . S
C863 H887 0.949 . S
H864 C868 0.949 . S
C865 C866 1.349 1_545 S
C865 C867 1.327 . S
C865 H888 0.950 . S
C866 C865 1.349 1_565 S
C866 C878 1.349 . S
C867 C865 1.327 . S
C867 C883 1.429 1_545 S
C867 H889 0.950 . S
C868 H864 0.949 . S
C868 C876 1.574 . S
C868 C884 1.368 . S
H869 C877 0.950 . S
H870 C875 0.950 . S
H871 C876 0.949 . S
H872 C878 0.950 . S
H873 C879 0.950 . S
H874 C880 0.949 . S
C875 H870 0.950 . S
C875 C877 1.327 . S
C875 C881 1.429 . S
C876 C868 1.574 . S
C876 H871 0.949 . S
C876 C882 1.368 1_565 S
C877 C861 1.349 . S
C877 H869 0.950 . S
C877 C875 1.327 . S
C878 C866 1.349 . S
C878 H872 0.950 . S
C878 C879 1.327 . S
C879 H873 0.950 . S
C879 C878 1.327 . S
C879 C883 1.429 . S
C880 C863 1.574 . S
C880 H874 0.949 . S
C880 C884 1.368 1_545 S
C881 C862 1.429 1_545 S
C881 C875 1.429 . S
C881 C882 1.523 . S
C882 C863 1.368 . S
C882 C876 1.368 1_545 S
C882 C881 1.523 . S
C883 C867 1.429 1_565 S
C883 C879 1.429 . S
C883 C884 1.523 . S
C884 C868 1.368 . S
C884 C880 1.368 1_565 S
C884 C883 1.523 . S
H885 C860 0.950 . S
H886 C862 0.950 . S
H887 C863 0.949 . S
H888 C865 0.950 . S
H889 C867 0.950 . S
C890 C891 1.349 . S
C890 C892 1.327 . S
C890 H915 0.950 . S
C891 C890 1.349 . S
C891 C907 1.349 . S
C892 C890 1.327 . S
C892 C911 1.429 . S
C892 H916 0.950 . S
C893 C910 1.574 . S
C893 C912 1.368 . S
C893 H917 0.949 . S
H894 C898 0.949 . S
C895 C896 1.349 . S
C895 C897 1.327 . S
C895 H918 0.950 . S
C896 C895 1.349 . S
C896 C908 1.349 . S
C897 C895 1.327 . S
C897 C913 1.429 . S
C897 H919 0.950 . S
C898 H894 0.949 . S
C898 C906 1.574 . S
C898 C914 1.368 . S
H899 C907 0.950 . S
H900 C905 0.950 . S
H901 C906 0.949 . S
H902 C908 0.950 . S
H903 C909 0.950 . S
H904 C910 0.949 . S
C905 H900 0.950 . S
C905 C907 1.327 . S
C905 C911 1.429 . S
C906 C898 1.574 . S
C906 H901 0.949 . S
C906 C912 1.368 . S
C907 C891 1.349 . S
C907 H899 0.950 . S
C907 C905 1.327 . S
C908 C896 1.349 . S
C908 H902 0.950 . S
C908 C909 1.327 . S
C909 H903 0.950 . S
C909 C908 1.327 . S
C909 C913 1.429 . S
C910 C893 1.574 . S
C910 H904 0.949 . S
C910 C914 1.368 . S
C911 C892 1.429 . S
C911 C905 1.429 . S
C911 C912 1.523 . S
C912 C893 1.368 . S
C912 C906 1.368 . S
C912 C911 1.523 . S
C913 C897 1.429 . S
C913 C909 1.429 . S
C913 C914 1.523 . S
C914 C898 1.368 . S
C914 C910 1.368 . S
C914 C913 1.523 . S
H915 C890 0.950 . S
H916 C892 0.950 . S
H917 C893 0.949 . S
H918 C895 0.950 . S
H919 C897 0.950 . S
C920 C921 1.349 . S
C920 C922 1.327 . S
C920 H945 0.950 . S
C921 C920 1.349 . S
C921 C937 1.349 . S
C922 C920 1.327 . S
C922 C941 1.429 . S
C922 H946 0.950 . S
C923 C940 1.574 . S
C923 C942 1.368 . S
C923 H947 0.949 . S
H924 C928 0.949 . S
C925 C926 1.349 . S
C925 C927 1.327 . S
C925 H948 0.950 . S
C926 C925 1.349 . S
C926 C938 1.349 . S
C927 C925 1.327 . S
C927 C943 1.429 . S
C927 H949 0.950 . S
C928 H924 0.949 . S
C928 C936 1.574 . S
C928 C944 1.368 . S
H929 C937 0.950 . S
H930 C935 0.950 . S
H931 C936 0.949 . S
H932 C938 0.950 . S
H933 C939 0.950 . S
H934 C940 0.949 . S
C935 H930 0.950 . S
C935 C937 1.327 . S
C935 C941 1.429 . S
C936 C928 1.574 . S
C936 H931 0.949 . S
C936 C942 1.368 . S
C937 C921 1.349 . S
C937 H929 0.950 . S
C937 C935 1.327 . S
C938 C926 1.349 . S
C938 H932 0.950 . S
C938 C939 1.327 . S
C939 H933 0.950 . S
C939 C938 1.327 . S
C939 C943 1.429 . S
C940 C923 1.574 . S
C940 H934 0.949 . S
C940 C944 1.368 . S
C941 C922 1.429 . S
C941 C935 1.429 . S
C941 C942 1.523 . S
C942 C923 1.368 . S
C942 C936 1.368 . S
C942 C941 1.523 . S
C943 C927 1.429 . S
C943 C939 1.429 . S
C943 C944 1.523 . S
C944 C928 1.368 . S
C944 C940 1.368 . S
C944 C943 1.523 . S
H945 C920 0.950 . S
H946 C922 0.950 . S
H947 C923 0.949 . S
H948 C925 0.950 . S
H949 C927 0.950 . S
C950 C951 1.349 . S
C950 C952 1.327 . S
C950 H975 0.950 . S
C951 C950 1.349 . S
C951 C967 1.349 . S
C952 C950 1.327 . S
C952 C971 1.429 . S
C952 H976 0.950 . S
C953 C970 1.574 . S
C953 C972 1.368 . S
C953 H977 0.949 . S
H954 C958 0.949 . S
C955 C956 1.349 . S
C955 C957 1.327 . S
C955 H978 0.950 . S
C956 C955 1.349 . S
C956 C968 1.349 . S
C957 C955 1.327 . S
C957 C973 1.429 . S
C957 H979 0.950 . S
C958 H954 0.949 . S
C958 C966 1.574 . S
C958 C974 1.368 . S
H959 C967 0.950 . S
H960 C965 0.950 . S
H961 C966 0.949 . S
H962 C968 0.950 . S
H963 C969 0.950 . S
H964 C970 0.949 . S
C965 H960 0.950 . S
C965 C967 1.327 . S
C965 C971 1.429 . S
C966 C958 1.574 . S
C966 H961 0.949 . S
C966 C972 1.368 . S
C967 C951 1.349 . S
C967 H959 0.950 . S
C967 C965 1.327 . S
C968 C956 1.349 . S
C968 H962 0.950 . S
C968 C969 1.327 . S
C969 H963 0.950 . S
C969 C968 1.327 . S
C969 C973 1.429 . S
C970 C953 1.574 . S
C970 H964 0.949 . S
C970 C974 1.368 . S
C971 C952 1.429 . S
C971 C965 1.429 . S
C971 C972 1.523 . S
C972 C953 1.368 . S
C972 C966 1.368 . S
C972 C971 1.523 . S
C973 C957 1.429 . S
C973 C969 1.429 . S
C973 C974 1.523 . S
C974 C958 1.368 . S
C974 C970 1.368 . S
C974 C973 1.523 . S
H975 C950 0.950 . S
H976 C952 0.950 . S
H977 C953 0.949 . S
H978 C955 0.950 . S
H979 C957 0.950 . S
C980 C981 1.349 . S
C980 C982 1.327 . S
C980 H1005 0.950 . S
C981 C980 1.349 . S
C981 C997 1.349 . S
C982 C980 1.327 . S
C982 C1001 1.429 . S
C982 H1006 0.950 . S
C983 C1000 1.574 . S
C983 C1002 1.368 . S
C983 H1007 0.949 . S
H984 C988 0.949 . S
C985 C986 1.349 . S
C985 C987 1.327 . S
C985 H1008 0.950 . S
C986 C985 1.349 . S
C986 C998 1.349 . S
C987 C985 1.327 . S
C987 C1003 1.429 . S
C987 H1009 0.950 . S
C988 H984 0.949 . S
C988 C996 1.574 . S
C988 C1004 1.368 . S
H989 C997 0.950 . S
H990 C995 0.950 . S
H991 C996 0.949 . S
H992 C998 0.950 . S
H993 C999 0.950 . S
H994 C1000 0.949 . S
C995 H990 0.950 . S
C995 C997 1.327 . S
C995 C1001 1.429 . S
C996 C988 1.574 . S
C996 H991 0.949 . S
C996 C1002 1.368 . S
C997 C981 1.349 . S
C997 H989 0.950 . S
C997 C995 1.327 . S
C998 C986 1.349 . S
C998 H992 0.950 . S
C998 C999 1.327 . S
C999 H993 0.950 . S
C999 C998 1.327 . S
C999 C1003 1.429 . S
C1000 C983 1.574 . S
C1000 H994 0.949 . S
C1000 C1004 1.368 . S
C1001 C982 1.429 . S
C1001 C995 1.429 . S
C1001 C1002 1.523 . S
C1002 C983 1.368 . S
C1002 C996 1.368 . S
C1002 C1001 1.523 . S
C1003 C987 1.429 . S
C1003 C999 1.429 . S
C1003 C1004 1.523 . S
C1004 C988 1.368 . S
C1004 C1000 1.368 . S
C1004 C1003 1.523 . S
H1005 C980 0.950 . S
H1006 C982 0.950 . S
H1007 C983 0.949 . S
H1008 C985 0.950 . S
H1009 C987 0.950 . S
C1010 C1011 1.349 . S
C1010 C1012 1.327 . S
C1010 H1035 0.950 . S
C1011 C1010 1.349 . S
C1011 C1027 1.349 . S
C1012 C1010 1.327 . S
C1012 C1031 1.429 . S
C1012 H1036 0.950 . S
C1013 C1030 1.574 1_556 S
C1013 C1032 1.368 1_455 S
C1013 H1037 0.949 . S
H1014 C1018 0.949 . S
C1015 C1016 1.349 . S
C1015 C1017 1.327 . S
C1015 H1038 0.950 . S
C1016 C1015 1.349 . S
C1016 C1028 1.349 . S
C1017 C1015 1.327 . S
C1017 C1033 1.429 . S
C1017 H1039 0.950 . S
C1018 H1014 0.949 . S
C1018 C1026 1.574 1_554 S
C1018 C1034 1.368 1_655 S
H1019 C1027 0.950 1_455 S
H1020 C1025 0.950 . S
H1021 C1026 0.949 . S
H1022 C1028 0.950 1_655 S
H1023 C1029 0.950 . S
H1024 C1030 0.949 . S
C1025 H1020 0.950 . S
C1025 C1027 1.327 1_455 S
C1025 C1031 1.429 1_455 S
C1026 C1018 1.574 1_556 S
C1026 H1021 0.949 . S
C1026 C1032 1.368 . S
C1027 C1011 1.349 . S
C1027 H1019 0.950 1_655 S
C1027 C1025 1.327 1_655 S
C1028 C1016 1.349 . S
C1028 H1022 0.950 1_455 S
C1028 C1029 1.327 1_455 S
C1029 H1023 0.950 . S
C1029 C1028 1.327 1_655 S
C1029 C1033 1.429 1_655 S
C1030 C1013 1.574 1_554 S
C1030 H1024 0.949 . S
C1030 C1034 1.368 . S
C1031 C1012 1.429 . S
C1031 C1025 1.429 1_655 S
C1031 C1032 1.523 . S
C1032 C1013 1.368 1_655 S
C1032 C1026 1.368 . S
C1032 C1031 1.523 . S
C1033 C1017 1.429 . S
C1033 C1029 1.429 1_455 S
C1033 C1034 1.523 . S
C1034 C1018 1.368 1_455 S
C1034 C1030 1.368 . S
C1034 C1033 1.523 . S
H1035 C1010 0.950 . S
H1036 C1012 0.950 . S
H1037 C1013 0.949 . S
H1038 C1015 0.950 . S
H1039 C1017 0.950 . S
C321 C10 1.520 . S
C326 C129 1.501 . S
C351 C9 0.775 . S
C356 C49 0.776 . S
C381 C50 1.520 . S
C386 C89 1.511 . S
C411 C90 2.158 . S
C416 C130 2.153 . S
C441 C19 1.520 . S
C446 C218 1.512 . S
C471 C18 0.774 . S
C476 C178 0.773 . S
C501 C179 1.520 . S
C506 C98 1.502 . S
C531 C219 2.158 . S
C536 C99 2.163 . S
C561 C250 1.520 . S
C566 C209 1.508 . S
C591 C169 0.775 . S
C596 C249 0.773 . S
C621 C289 1.507 . S
C626 C170 1.523 . S
C651 C210 2.158 . S
C656 C290 2.161 . S
C681 C138 1.507 . S
C686 C259 1.518 . S
C711 C258 0.775 . S
C716 C58 0.776 . S
C741 C59 1.520 . S
C746 C298 1.504 . S
C771 C139 2.158 . S
C776 C299 2.155 . S
C801 C15 1.462 . S
C806 C6 1.462 . S
C831 C55 1.462 . S
C836 C46 1.462 . S
C861 C95 1.537 . S
C866 C86 1.537 . S
C891 C126 1.537 . S
C896 C135 1.537 . S
C921 C175 1.462 . S
C926 C166 1.462 . S
C951 C206 1.537 . S
C956 C215 1.537 . S
C981 C246 1.462 . S
C986 C255 1.462 . S
C1011 C286 1.537 . S
C1016 C295 1.537 . S
