# Generated by pormake.
# Topology wje, (4)-cn, num edge types: 1
# Building blocks:
#     Node 0, Type 0, BuildingBlock: QUQFOY_clean_sbu_1, # of connection points: 4
#     Node 1, Type 0, BuildingBlock: QUQFOY_clean_sbu_1, # of connection points: 4
#     Node 2, Type 0, BuildingBlock: QUQFOY_clean_sbu_1, # of connection points: 4
#     Node 3, Type 0, BuildingBlock: QUQFOY_clean_sbu_1, # of connection points: 4
#     Node 4, Type 0, BuildingBlock: QUQFOY_clean_sbu_1, # of connection points: 4
#     Node 5, Type 0, BuildingBlock: QUQFOY_clean_sbu_1, # of connection points: 4
#     Node 6, Type 0, BuildingBlock: QUQFOY_clean_sbu_1, # of connection points: 4
#     Node 7, Type 0, BuildingBlock: QUQFOY_clean_sbu_1, # of connection points: 4
#     Node 8, Type 0, BuildingBlock: QUQFOY_clean_sbu_1, # of connection points: 4
#     Node 9, Type 0, BuildingBlock: QUQFOY_clean_sbu_1, # of connection points: 4
#     Node 10, Type 0, BuildingBlock: QUQFOY_clean_sbu_1, # of connection points: 4
#     Node 11, Type 0, BuildingBlock: QUQFOY_clean_sbu_1, # of connection points: 4
#     Edge 12, Type (0, 0), BuildingBlock: XIVTED_clean_linker_0, # of connection points: 2
#     Edge 13, Type (0, 0), BuildingBlock: XIVTED_clean_linker_0, # of connection points: 2
#     Edge 14, Type (0, 0), BuildingBlock: XIVTED_clean_linker_0, # of connection points: 2
#     Edge 15, Type (0, 0), BuildingBlock: XIVTED_clean_linker_0, # of connection points: 2
#     Edge 16, Type (0, 0), BuildingBlock: XIVTED_clean_linker_0, # of connection points: 2
#     Edge 17, Type (0, 0), BuildingBlock: XIVTED_clean_linker_0, # of connection points: 2
#     Edge 18, Type (0, 0), BuildingBlock: XIVTED_clean_linker_0, # of connection points: 2
#     Edge 19, Type (0, 0), BuildingBlock: XIVTED_clean_linker_0, # of connection points: 2
#     Edge 20, Type (0, 0), BuildingBlock: XIVTED_clean_linker_0, # of connection points: 2
#     Edge 21, Type (0, 0), BuildingBlock: XIVTED_clean_linker_0, # of connection points: 2
#     Edge 22, Type (0, 0), BuildingBlock: XIVTED_clean_linker_0, # of connection points: 2
#     Edge 23, Type (0, 0), BuildingBlock: XIVTED_clean_linker_0, # of connection points: 2
#     Edge 24, Type (0, 0), BuildingBlock: XIVTED_clean_linker_0, # of connection points: 2
#     Edge 25, Type (0, 0), BuildingBlock: XIVTED_clean_linker_0, # of connection points: 2
#     Edge 26, Type (0, 0), BuildingBlock: XIVTED_clean_linker_0, # of connection points: 2
#     Edge 27, Type (0, 0), BuildingBlock: XIVTED_clean_linker_0, # of connection points: 2
#     Edge 28, Type (0, 0), BuildingBlock: XIVTED_clean_linker_0, # of connection points: 2
#     Edge 29, Type (0, 0), BuildingBlock: XIVTED_clean_linker_0, # of connection points: 2
#     Edge 30, Type (0, 0), BuildingBlock: XIVTED_clean_linker_0, # of connection points: 2
#     Edge 31, Type (0, 0), BuildingBlock: XIVTED_clean_linker_0, # of connection points: 2
#     Edge 32, Type (0, 0), BuildingBlock: XIVTED_clean_linker_0, # of connection points: 2
#     Edge 33, Type (0, 0), BuildingBlock: XIVTED_clean_linker_0, # of connection points: 2
#     Edge 34, Type (0, 0), BuildingBlock: XIVTED_clean_linker_0, # of connection points: 2
#     Edge 35, Type (0, 0), BuildingBlock: XIVTED_clean_linker_0, # of connection points: 2
# Relax obj value: 0.100
# Max RMSD: 0.085
# Mean RMSD: 0.085
data_MOF--net-wje--node1-QUQFOY_clean_sbu_1--edge1-XIVTED_clean_linker_0
_symmetry_space_group_name_H-M    P1
_symmetry_Int_Tables_number       1
_symmetry_cell_setting            triclinic
loop_
_symmetry_equiv_pos_as_xyz
'x, y, z'
_cell_length_a     42.599537
_cell_length_b     42.527996
_cell_length_c     38.732501
_cell_angle_alpha  89.984864
_cell_angle_beta   89.93887
_cell_angle_gamma 120.05723
loop_
_atom_site_label
_atom_site_type_symbol
_atom_site_fract_x
_atom_site_fract_y
_atom_site_fract_z
_atom_type_partial_charge
O0 O 0.25973 0.99613 0.32442 0.0
Cd1 Cd 0.30955 0.04274 0.32921 0.0
Cd2 Cd 0.33201 0.99619 0.31798 0.0
O3 O 0.27983 0.96198 0.302 0.0
O4 O 0.30218 0.08361 0.31443 0.0
O5 O 0.33826 0.06857 0.28664 0.0
C6 C 0.32311 0.08836 0.2884 0.0
C7 C 0.38077 0.99591 0.29025 0.0
C8 C 0.25358 0.96604 0.3117 0.0
C9 C 0.33635 0.02415 0.39091 0.0
O10 O 0.33663 0.00066 0.37085 0.0
O11 O 0.33063 0.04871 0.3788 0.0
O12 O 0.35672 0.9681 0.30702 0.0
O13 O 0.37652 0.02384 0.28796 0.0
O14 O 0.25344 0.25161 0.65746 0.0
Cd15 Cd 0.25488 0.30023 0.66369 0.0
Cd16 Cd 0.32645 0.32817 0.65724 0.0
O17 O 0.31163 0.27517 0.64609 0.0
O18 O 0.20733 0.29229 0.64636 0.0
O19 O 0.25997 0.33126 0.62232 0.0
C20 C 0.22492 0.31506 0.62187 0.0
C21 C 0.37687 0.37545 0.62918 0.0
C22 C 0.28032 0.24758 0.65048 0.0
C23 C 0.29696 0.33077 0.72785 0.0
O24 O 0.32399 0.3371 0.7091 0.0
O25 O 0.26551 0.31786 0.7146 0.0
O26 O 0.37986 0.35311 0.64937 0.0
O27 O 0.34478 0.37038 0.62373 0.0
O28 O 0.00864 0.27137 0.98304 0.0
Cd29 Cd 0.95918 0.26782 0.98994 0.0
Cd30 Cd -0.00125 0.34058 0.98677 0.0
O31 O 0.04008 0.33056 0.97502 0.0
O32 O 0.92256 0.21876 0.97233 0.0
O33 O 0.93037 0.26995 0.94951 0.0
C34 C 0.9144 0.23487 0.94868 0.0
C35 C -0.00048 0.39079 0.96063 0.0
C36 C 0.03874 0.30014 0.97769 0.0
C37 C 0.96715 0.30597 0.05616 0.0
O38 O 0.9862 0.33461 0.03857 0.0
O39 O 0.95088 0.27502 0.04147 0.0
O40 O 0.02458 0.39442 0.98146 0.0
O41 O 0.97386 0.35827 0.95378 0.0
O42 O 0.73626 0.00074 0.32024 0.0
Cd43 Cd 0.6875 0.95361 0.32627 0.0
Cd44 Cd 0.65958 0.99679 0.31935 0.0
O45 O 0.71203 0.03404 0.3056 0.0
O46 O 0.69144 0.91141 0.30886 0.0
O47 O 0.65758 0.93093 0.28377 0.0
C48 C 0.67041 0.90904 0.28373 0.0
C49 C 0.61134 0.99835 0.29183 0.0
C50 C 0.73985 0.03111 0.31127 0.0
C51 C 0.65843 0.96696 0.39054 0.0
O52 O 0.65285 0.98819 0.3718 0.0
O53 O 0.66946 0.94692 0.377 0.0
O54 O 0.63423 0.02474 0.31073 0.0
O55 O 0.61634 0.9711 0.28742 0.0
O56 O 0.72554 0.73513 0.64884 0.0
Cd57 Cd 0.72887 0.68902 0.65588 0.0
Cd58 Cd 0.65589 0.65627 0.65409 0.0
O59 O 0.66635 0.70771 0.64177 0.0
O60 O 0.77804 0.70191 0.63836 0.0
O61 O 0.72728 0.65816 0.61545 0.0
C62 C 0.76228 0.67761 0.61469 0.0
C63 C 0.60495 0.60692 0.62888 0.0
C64 C 0.69693 0.7367 0.64376 0.0
C65 C 0.69157 0.65952 0.72279 0.0
O66 O 0.66271 0.65016 0.7058 0.0
O67 O 0.72217 0.67376 0.70748 0.0
O68 O 0.60204 0.62882 0.64972 0.0
O69 O 0.63715 0.61321 0.62153 0.0
O70 O -0.00073 0.74191 0.98854 0.0
Cd71 Cd 0.04275 0.73341 0.99285 0.0
Cd72 Cd 0.99259 0.6665 0.98033 0.0
O73 O 0.96349 0.68978 0.9628 0.0
O74 O 0.08841 0.77786 0.97759 0.0
O75 O 0.06295 0.72589 0.94876 0.0
C76 C 0.08805 0.75966 0.95071 0.0
C77 C 0.99159 0.617 0.95284 0.0
C78 C 0.96927 0.72032 0.97406 0.0
C79 C 0.01894 0.68613 0.05359 0.0
O80 O 0.99402 0.66463 0.03326 0.0
O81 O 0.04615 0.71483 0.04175 0.0
O82 O 0.96305 0.61416 0.96732 0.0
O83 O 0.02048 0.64864 0.95234 0.0
O84 O -0.00063 0.73781 0.3752 0.0
Cd85 Cd 0.95277 0.68791 0.37073 0.0
Cd86 Cd -0.00033 0.6653 0.38104 0.0
O87 O 0.03375 0.71766 0.39685 0.0
O88 O 0.91221 0.6955 0.38593 0.0
O89 O 0.92719 0.6592 0.4134 0.0
C90 C 0.90752 0.67449 0.41188 0.0
C91 C 0.00278 0.61732 0.40751 0.0
C92 C 0.02958 0.74395 0.38743 0.0
C93 C 0.97056 0.66105 0.30854 0.0
O94 O 0.99423 0.66072 0.32823 0.0
O95 O 0.94622 0.66683 0.32107 0.0
O96 O 0.02954 0.64213 0.39025 0.0
O97 O 0.97423 0.62027 0.411 0.0
O98 O 0.25555 0.99352 0.70993 0.0
Cd99 Cd 0.26279 0.9492 0.70562 0.0
Cd100 Cd 0.3297 0.99823 0.7189 0.0
O101 O 0.30707 0.0277 0.73708 0.0
O102 O 0.21779 0.90404 0.72073 0.0
O103 O 0.26952 0.92855 0.74977 0.0
C104 C 0.2356 0.90398 0.74773 0.0
C105 C 0.37918 0.99927 0.74624 0.0
C106 C 0.27719 0.02298 0.72525 0.0
C107 C 0.31027 0.97275 0.6453 0.0
O108 O 0.33174 0.99738 0.6659 0.0
O109 O 0.28139 0.94554 0.65685 0.0
O110 O 0.38194 0.02781 0.7318 0.0
O111 O 0.34765 0.97025 0.74668 0.0
O112 O 0.26278 0.27107 0.05147 0.0
Cd113 Cd 0.3086 0.26734 0.04452 0.0
Cd114 Cd 0.34169 0.34037 0.04555 0.0
O115 O 0.29042 0.33053 0.05727 0.0
O116 O 0.29538 0.21809 0.06233 0.0
O117 O 0.33948 0.26892 0.08485 0.0
C118 C 0.31983 0.23389 0.08584 0.0
C119 C 0.39121 0.39121 0.07078 0.0
C120 C 0.26139 0.29995 0.05569 0.0
C121 C 0.33779 0.30383 0.9772 0.0
O122 O 0.3477 0.333 0.99396 0.0
O123 O 0.32337 0.27334 0.9928 0.0
O124 O 0.3697 0.39434 0.04966 0.0
O125 O 0.38445 0.35885 0.07838 0.0
O126 O 0.99382 0.259 0.37788 0.0
Cd127 Cd 0.04272 0.30585 0.37153 0.0
Cd128 Cd 0.00165 0.3372 0.37492 0.0
O129 O 0.96104 0.2852 0.3861 0.0
O130 O 0.07966 0.29406 0.38914 0.0
O131 O 0.07041 0.33619 0.4127 0.0
C132 C 0.08681 0.31753 0.41338 0.0
C133 C 0.00031 0.3861 0.40155 0.0
C134 C 0.96333 0.25665 0.3833 0.0
C135 C 0.03465 0.33642 0.30565 0.0
O136 O 0.01476 0.34481 0.3233 0.0
O137 O 0.05146 0.32229 0.32022 0.0
O138 O 0.97558 0.36489 0.38029 0.0
O139 O 0.02576 0.3791 0.40871 0.0
O140 O 0.72907 0.99342 0.71161 0.0
Cd141 Cd 0.73245 0.04297 0.70532 0.0
Cd142 Cd 0.65953 0.00315 0.70876 0.0
O143 O 0.66988 0.9617 0.71898 0.0
O144 O 0.78192 0.07939 0.72208 0.0
O145 O 0.73154 0.07184 0.74639 0.0
C146 C 0.76656 0.08761 0.74642 0.0
C147 C 0.60923 0.00101 0.73601 0.0
C148 C 0.70031 0.96316 0.71643 0.0
C149 C 0.69358 0.03616 0.63965 0.0
O150 O 0.66505 0.01705 0.65731 0.0
O151 O 0.72462 0.05173 0.65409 0.0
O152 O 0.60581 0.97669 0.71426 0.0
O153 O 0.64161 0.02674 0.7431 0.0
O154 O 0.74246 0.74709 0.04056 0.0
Cd155 Cd 0.69255 0.7429 0.03517 0.0
Cd156 Cd 0.66686 0.67209 0.04378 0.0
O157 O 0.72025 0.68989 0.05604 0.0
O158 O 0.69405 0.78799 0.0525 0.0
O159 O 0.66286 0.73433 0.07813 0.0
C160 C 0.6739 0.76876 0.07795 0.0
C161 C 0.61997 0.62193 0.07256 0.0
C162 C 0.74731 0.72113 0.04967 0.0
C163 C 0.66246 0.69812 0.97226 0.0
O164 O 0.65815 0.67212 0.99157 0.0
O165 O 0.67341 0.72957 0.98491 0.0
O166 O 0.64318 0.61896 0.05368 0.0
O167 O 0.62415 0.65394 0.07653 0.0
H168 H 0.37901 0.12345 0.24162 0.0
H169 H 0.26687 0.16916 0.11097 0.0
H170 H 0.27449 0.10888 0.26958 0.0
H171 H 0.37918 0.25003 0.12657 0.0
H172 H 0.26993 0.13574 0.16112 0.0
H173 H 0.38083 0.16067 0.19187 0.0
C174 C 0.35663 0.12827 0.23744 0.0
C175 C 0.32663 0.11323 0.25987 0.0
C176 C 0.29393 0.16069 0.15338 0.0
C177 C 0.3281 0.15447 0.20276 0.0
C178 C 0.29233 0.17966 0.12466 0.0
C179 C 0.32283 0.21247 0.11459 0.0
C180 C 0.32651 0.17399 0.17169 0.0
C181 C 0.35503 0.2249 0.13357 0.0
C182 C 0.35774 0.14947 0.20918 0.0
C183 C 0.29828 0.12019 0.25318 0.0
N184 N 0.35618 0.20546 0.16112 0.0
N185 N 0.29944 0.13977 0.22497 0.0
H186 H 0.24751 0.37347 0.57779 0.0
H187 H 0.10045 0.26527 0.43666 0.0
H188 H 0.15777 0.26609 0.59837 0.0
H189 H 0.126 0.37525 0.45743 0.0
H190 H 0.13451 0.26705 0.48819 0.0
H191 H 0.21506 0.37695 0.52641 0.0
C192 C 0.22096 0.3508 0.57165 0.0
C193 C 0.2052 0.31951 0.59246 0.0
C194 C 0.13286 0.29086 0.48125 0.0
C195 C 0.16888 0.32291 0.53355 0.0
C196 C 0.11369 0.29001 0.45176 0.0
C197 C 0.11035 0.32017 0.44274 0.0
C198 C 0.14971 0.32239 0.50147 0.0
C199 C 0.12784 0.35139 0.46355 0.0
C200 C 0.20256 0.35285 0.54248 0.0
C201 C 0.17081 0.29084 0.58327 0.0
N202 N 0.14707 0.35184 0.4919 0.0
N203 N 0.15409 0.29299 0.55423 0.0
H204 H 0.83326 0.10201 0.76785 0.0
H205 H 0.87335 0.25287 0.90688 0.0
H206 H 0.74974 0.12813 0.79043 0.0
H207 H 0.90026 0.16898 0.92453 0.0
H208 H 0.83591 0.21797 0.85713 0.0
H209 H 0.86766 0.13816 0.81767 0.0
C210 C 0.82235 0.11574 0.78301 0.0
C211 C 0.78852 0.112 0.77497 0.0
C212 C 0.84991 0.20728 0.87216 0.0
C213 C 0.82809 0.15377 0.83182 0.0
C214 C 0.87126 0.22711 0.90041 0.0
C215 C 0.8898 0.21371 0.91996 0.0
C216 C 0.84818 0.17454 0.86284 0.0
C217 C 0.88623 0.18022 0.9104 0.0
C218 C 0.8419 0.13613 0.81156 0.0
C219 C 0.77565 0.13022 0.79581 0.0
N220 N 0.86631 0.16208 0.88228 0.0
N221 N 0.79559 0.15061 0.82321 0.0
H222 H 0.67723 0.8348 0.0791 0.0
H223 H 0.67756 0.8485 0.28254 0.0
H224 H 0.65395 0.74314 0.14396 0.0
H225 H 0.64894 0.91293 0.21795 0.0
H226 H 0.67268 0.8113 0.23226 0.0
H227 H 0.67061 0.86597 0.12943 0.0
C228 C 0.67038 0.82109 0.10385 0.0
C229 C 0.66615 0.7863 0.10731 0.0
C230 C 0.66705 0.83332 0.2292 0.0
C231 C 0.65928 0.82215 0.16514 0.0
C232 C 0.6699 0.8546 0.25786 0.0
C233 C 0.66365 0.88389 0.25446 0.0
C234 C 0.65877 0.84188 0.19668 0.0
C235 C 0.65383 0.89053 0.2218 0.0
C236 C 0.66654 0.83887 0.13254 0.0
C237 C 0.65729 0.76986 0.14006 0.0
N238 N 0.65222 0.87006 0.19409 0.0
N239 N 0.65468 0.78813 0.16779 0.0
H240 H 0.87227 0.6183 0.45842 0.0
H241 H 0.82726 0.73047 0.59003 0.0
H242 H 0.88754 0.72344 0.43122 0.0
H243 H 0.74593 0.61833 0.57355 0.0
H244 H 0.86071 0.72748 0.53989 0.0
H245 H 0.83517 0.61643 0.50828 0.0
C246 C 0.86764 0.64082 0.4628 0.0
C247 C 0.88283 0.671 0.44055 0.0
C248 C 0.83565 0.70349 0.54744 0.0
C249 C 0.84173 0.66947 0.49777 0.0
C250 C 0.81667 0.70505 0.57615 0.0
C251 C 0.78372 0.67459 0.58598 0.0
C252 C 0.82222 0.67098 0.52888 0.0
C253 C 0.77117 0.64245 0.56676 0.0
C254 C 0.84651 0.63968 0.49112 0.0
C255 C 0.87612 0.69951 0.44749 0.0
N256 N 0.79062 0.64134 0.53921 0.0
N257 N 0.85659 0.69831 0.47574 0.0
H258 H 0.16932 0.84143 0.74718 0.0
H259 H 0.15144 0.82524 0.95117 0.0
H260 H 0.25867 0.90877 0.81458 0.0
H261 H 0.08304 0.73593 0.88404 0.0
H262 H 0.19012 0.8575 0.90164 0.0
H263 H 0.13611 0.80342 0.79677 0.0
C264 C 0.18212 0.84801 0.77234 0.0
C265 C 0.21685 0.87839 0.7767 0.0
C266 C 0.16688 0.83067 0.89782 0.0
C267 C 0.17866 0.83533 0.83372 0.0
C268 C 0.14474 0.81224 0.92609 0.0
C269 C 0.11389 0.77781 0.92178 0.0
C270 C 0.15774 0.81492 0.86482 0.0
C271 C 0.10658 0.76235 0.88862 0.0
C272 C 0.16315 0.82627 0.80063 0.0
C273 C 0.23203 0.88558 0.80996 0.0
N274 N 0.12804 0.78119 0.86136 0.0
N275 N 0.21268 0.86454 0.83723 0.0
H276 H 0.4453 0.05496 0.27059 0.0
H277 H 0.5478 0.94054 0.2685 0.0
H278 H 0.39158 0.93838 0.28131 0.0
H279 H 0.60062 0.05617 0.28586 0.0
H280 H 0.49093 0.94001 0.25712 0.0
H281 H 0.50257 0.05606 0.26004 0.0
C282 C 0.44539 0.02954 0.26999 0.0
C283 C 0.41378 0.99659 0.27735 0.0
C284 C 0.51515 0.96557 0.26287 0.0
C285 C 0.47907 0.99766 0.26547 0.0
C286 C 0.54762 0.96591 0.2692 0.0
C287 C 0.5788 0.99835 0.27864 0.0
C288 C 0.51402 0.99795 0.26578 0.0
C289 C 0.57706 0.03046 0.27916 0.0
C290 C 0.4781 0.0302 0.26414 0.0
C291 C 0.41545 0.96445 0.27623 0.0
N292 N 0.54514 0.02939 0.27318 0.0
N293 N 0.44762 0.96582 0.2708 0.0
H294 H 0.53693 0.59711 0.62367 0.0
H295 H 0.44468 0.38464 0.62267 0.0
H296 H 0.59782 0.5425 0.60632 0.0
H297 H 0.3842 0.43986 0.60651 0.0
H298 H 0.50089 0.44153 0.61169 0.0
H299 H 0.48087 0.54024 0.61257 0.0
C300 C 0.53851 0.5732 0.61698 0.0
C301 C 0.572 0.57437 0.61629 0.0
C302 C 0.47532 0.44112 0.60986 0.0
C303 C 0.50785 0.50898 0.60411 0.0
C304 C 0.44321 0.40865 0.61618 0.0
C305 C 0.40979 0.40767 0.6159 0.0
C306 C 0.47408 0.47304 0.60391 0.0
C307 C 0.40941 0.43947 0.60712 0.0
C308 C 0.50648 0.54075 0.61055 0.0
C309 C 0.57252 0.54271 0.60722 0.0
N310 N 0.44117 0.47107 0.60214 0.0
N311 N 0.54083 0.51108 0.60214 0.0
H312 H 0.93375 0.54859 0.94374 0.0
H313 H 0.05703 0.4594 0.95525 0.0
H314 H 0.05046 0.61035 0.93603 0.0
H315 H 0.94184 0.39643 0.9368 0.0
H316 H 0.05543 0.51475 0.94267 0.0
H317 H 0.93584 0.49273 0.93536 0.0
C318 C 0.95979 0.55046 0.93966 0.0
C319 C 0.99204 0.58416 0.94105 0.0
C320 C 0.03055 0.48885 0.94079 0.0
C321 C 0.99464 0.52024 0.93196 0.0
C322 C 0.03144 0.45721 0.94804 0.0
C323 C -0.00056 0.42334 0.94743 0.0
C324 C 0.99727 0.48675 0.93352 0.0
C325 C 0.96711 0.42205 0.93767 0.0
C326 C 0.96096 0.51852 0.93485 0.0
C327 C 0.02496 0.58496 0.93536 0.0
N328 N 0.96672 0.4534 0.9317 0.0
N329 N 0.02546 0.55342 0.93168 0.0
H330 H 0.06239 0.60998 0.41507 0.0
H331 H 0.05527 0.44499 0.43495 0.0
H332 H 0.94597 0.55078 0.4262 0.0
H333 H 0.94576 0.40187 0.39796 0.0
H334 H 0.05758 0.50244 0.44805 0.0
H335 H 0.06338 0.55386 0.4239 0.0
C336 C 0.03707 0.58524 0.42025 0.0
C337 C 0.00401 0.58499 0.41964 0.0
C338 C 0.03307 0.48045 0.437 0.0
C339 C 0.00487 0.52033 0.43007 0.0
C340 C 0.03161 0.4475 0.4299 0.0
C341 C 0.00055 0.41888 0.41469 0.0
C342 C 0.00326 0.48472 0.42869 0.0
C343 C 0.97053 0.42346 0.40907 0.0
C344 C 0.03767 0.55311 0.4256 0.0
C345 C 0.97205 0.55217 0.42645 0.0
N346 N 0.97275 0.45584 0.41579 0.0
N347 N 0.97321 0.52101 0.43068 0.0
H348 H 0.6031 0.05738 0.76306 0.0
H349 H 0.38624 0.94051 0.76293 0.0
H350 H 0.54094 0.94284 0.74017 0.0
H351 H 0.44715 0.0575 0.7558 0.0
H352 H 0.44308 0.94029 0.7712 0.0
H353 H 0.54643 0.05672 0.77659 0.0
C354 C 0.57763 0.03198 0.76159 0.0
C355 C 0.5766 0.00023 0.75002 0.0
C356 C 0.44391 0.96603 0.76839 0.0
C357 C 0.51198 0.99926 0.76542 0.0
C358 C 0.41147 0.96619 0.76385 0.0
C359 C 0.41203 0.99903 0.75813 0.0
C360 C 0.47707 0.99895 0.76735 0.0
C361 C 0.44553 0.03151 0.75964 0.0
C362 C 0.54534 0.03165 0.76914 0.0
C363 C 0.54289 0.96805 0.74852 0.0
N364 N 0.47676 0.03063 0.76371 0.0
N365 N 0.51192 0.96844 0.75583 0.0
H366 H 0.45475 0.39757 0.09478 0.0
H367 H 0.55572 0.61492 0.09495 0.0
H368 H 0.40186 0.45973 0.07517 0.0
H369 H 0.61034 0.55374 0.07924 0.0
H370 H 0.499 0.55788 0.10522 0.0
H371 H 0.51149 0.45444 0.10621 0.0
C372 C 0.4549 0.42309 0.09361 0.0
C373 C 0.42377 0.42406 0.08357 0.0
C374 C 0.52358 0.55706 0.10012 0.0
C375 C 0.48823 0.48889 0.09665 0.0
C376 C 0.55597 0.58959 0.09446 0.0
C377 C 0.58763 0.58899 0.08573 0.0
C378 C 0.52299 0.52381 0.09731 0.0
C379 C 0.58641 0.55537 0.08542 0.0
C380 C 0.48726 0.45549 0.09996 0.0
C381 C 0.42542 0.45784 0.08236 0.0
N382 N 0.55453 0.52408 0.09075 0.0
N383 N 0.45716 0.48892 0.08855 0.0
H384 H 0.03215 0.80813 0.37115 0.0
H385 H 0.23459 0.89484 0.30418 0.0
H386 H 0.10066 0.76215 0.39109 0.0
H387 H 0.19 0.96334 0.33039 0.0
H388 H 0.17928 0.84235 0.32537 0.0
H389 H 0.08533 0.86346 0.34951 0.0
C390 C 0.05842 0.80992 0.37168 0.0
C391 C 0.06188 0.78033 0.38279 0.0
C392 C 0.18152 0.86886 0.32618 0.0
C393 C 0.12214 0.84273 0.35697 0.0
C394 C 0.21288 0.89881 0.31363 0.0
C395 C 0.21716 0.93369 0.31584 0.0
C396 C 0.15399 0.87364 0.34062 0.0
C397 C 0.18795 0.93699 0.32843 0.0
C398 C 0.08861 0.84135 0.35908 0.0
C399 C 0.09658 0.78416 0.3828 0.0
N400 N 0.15758 0.90731 0.34057 0.0
N401 N 0.12522 0.81449 0.36951 0.0
H402 H 0.21797 0.18121 0.65619 0.0
H403 H 0.32458 0.09335 0.74306 0.0
H404 H 0.33477 0.23204 0.65784 0.0
H405 H 0.21901 0.02547 0.69765 0.0
H406 H 0.32338 0.14686 0.72255 0.0
H407 H 0.2137 0.12499 0.67801 0.0
C408 C 0.24266 0.18037 0.66045 0.0
C409 C 0.2768 0.21147 0.6553 0.0
C410 C 0.30033 0.12023 0.71738 0.0
C411 C 0.27199 0.14796 0.68134 0.0
C412 C 0.30074 0.08962 0.72949 0.0
C413 C 0.27208 0.05475 0.72163 0.0
C414 C 0.2709 0.11605 0.69765 0.0
C415 C 0.24186 0.05182 0.70402 0.0
C416 C 0.24016 0.14842 0.67315 0.0
C417 C 0.30788 0.20884 0.66137 0.0
N418 N 0.24216 0.08213 0.69232 0.0
N419 N 0.30471 0.17784 0.67458 0.0
H420 H 0.19378 0.24 0.04828 0.0
H421 H 0.10826 0.3577 0.97854 0.0
H422 H 0.24944 0.35728 0.04999 0.0
H423 H 0.04676 0.24096 0.98952 0.0
H424 H 0.1617 0.35732 1.00041 0.0
H425 H 0.13979 0.2393 0.02614 0.0
C426 C 0.19447 0.2656 0.0447 0.0
C427 C 0.22637 0.29877 0.05082 0.0
C428 C 0.13658 0.33175 0.99779 0.0
C429 C 0.16491 0.29812 0.02458 0.0
C430 C 0.10611 0.33188 0.98485 0.0
C431 C 0.07279 0.29934 0.98243 0.0
C432 C 0.13381 0.29885 1.0083 0.0
C433 C 0.07179 0.26675 0.99109 0.0
C434 C 0.16371 0.26516 0.03171 0.0
C435 C 0.22557 0.33105 0.0456 0.0
N436 N 0.10176 0.26737 1.00393 0.0
N437 N 0.1955 0.32991 0.03241 0.0
H438 H 0.95692 0.18936 0.37743 0.0
H439 H 0.75593 0.1015 0.30299 0.0
H440 H 0.89378 0.24324 0.377 0.0
H441 H 0.80484 0.03697 0.32957 0.0
H442 H 0.81037 0.15557 0.32298 0.0
H443 H 0.90383 0.13399 0.35653 0.0
C444 C 0.93175 0.18938 0.37361 0.0
C445 C 0.92991 0.22112 0.37882 0.0
C446 C 0.8093 0.12961 0.32421 0.0
C447 C 0.86953 0.15823 0.35398 0.0
C448 C 0.77837 0.09873 0.31237 0.0
C449 C 0.77557 0.06448 0.31493 0.0
C450 C 0.83779 0.12637 0.33853 0.0
C451 C 0.80568 0.06275 0.32729 0.0
C452 C 0.90157 0.15785 0.3614 0.0
C453 C 0.89656 0.21951 0.37335 0.0
N454 N 0.83547 0.09325 0.33892 0.0
N455 N 0.86785 0.18876 0.36082 0.0
H456 H 0.63998 0.74947 0.64434 0.0
H457 H 0.75985 0.95518 0.70757 0.0
H458 H 0.7566 0.80398 0.654 0.0
H459 H 0.64285 0.89375 0.7126 0.0
H460 H 0.7598 0.90097 0.68665 0.0
H461 H 0.6413 0.80439 0.66452 0.0
C462 C 0.66597 0.77318 0.65003 0.0
C463 C 0.69821 0.77192 0.64772 0.0
C464 C 0.73418 0.8993 0.69266 0.0
C465 C 0.69978 0.83472 0.67161 0.0
C466 C 0.73418 0.93015 0.70493 0.0
C467 C 0.70128 0.92914 0.71169 0.0
C468 C 0.70105 0.86729 0.68688 0.0
C469 C 0.66888 0.89592 0.70769 0.0
C470 C 0.66664 0.80443 0.66198 0.0
C471 C 0.73103 0.8036 0.65552 0.0
N472 N 0.66958 0.86645 0.6952 0.0
N473 N 0.73094 0.83361 0.6674 0.0
H474 H 0.76457 0.66749 0.05297 0.0
H475 H 0.96983 0.78204 0.99645 0.0
H476 H 0.81225 0.78273 0.03467 0.0
H477 H 0.89767 0.67184 0.96308 0.0
H478 H 0.9171 0.78517 0.01768 0.0
H479 H 0.81974 0.67063 0.03135 0.0
C480 C 0.78689 0.69365 0.04515 0.0
C481 C 0.78352 0.72483 0.04527 0.0
C482 C 0.913 0.76061 1.00521 0.0
C483 C 0.84663 0.72837 0.02006 0.0
C484 C 0.94294 0.75883 0.99286 0.0
C485 C 0.93824 0.72648 0.97823 0.0
C486 C 0.87845 0.7296 1.00353 0.0
C487 C 0.90276 0.69728 0.97429 0.0
C488 C 0.81819 0.69528 0.03236 0.0
C489 C 0.81357 0.75796 0.0348 0.0
N490 N 0.87433 0.69931 0.98748 0.0
N491 N 0.84393 0.75887 0.0224 0.0
H492 H 0.34763 0.07232 0.44382 0.0
H493 H 0.28086 0.92336 0.59189 0.0
H494 H 0.32646 0.96345 0.42422 0.0
H495 H 0.35458 0.03685 0.61287 0.0
H496 H 0.29009 0.9368 0.52971 0.0
H497 H 0.34348 0.05955 0.50615 0.0
C498 C 0.34246 0.04595 0.45256 0.0
C499 C 0.3376 0.01905 0.42871 0.0
C500 C 0.30439 0.95861 0.54808 0.0
C501 C 0.33186 0.004 0.49964 0.0
C502 C 0.29913 0.95095 0.58348 0.0
C503 C 0.31713 0.97892 0.60766 0.0
C504 C 0.32705 0.99458 0.53687 0.0
C505 C 0.34037 0.01431 0.59524 0.0
C506 C 0.34006 0.03867 0.48805 0.0
C507 C 0.3307 0.98518 0.44157 0.0
N508 N 0.34434 0.02119 0.56078 0.0
N509 N 0.32761 0.97851 0.47605 0.0
H510 H 0.29072 0.25106 0.93293 0.0
H511 H 0.35783 0.37569 0.76458 0.0
H512 H 0.38019 0.3613 0.93502 0.0
H513 H 0.2482 0.2871 0.77684 0.0
H514 H 0.37002 0.36834 0.82493 0.0
H515 H 0.27973 0.25961 0.87244 0.0
C516 C 0.30868 0.27672 0.92043 0.0
C517 C 0.3365 0.30549 0.93905 0.0
C518 C 0.34316 0.35083 0.81455 0.0
C519 C 0.32359 0.31564 0.87014 0.0
C520 C 0.33609 0.3552 0.78022 0.0
C521 C 0.30185 0.33217 0.76576 0.0
C522 C 0.31607 0.32266 0.83439 0.0
C523 C 0.27481 0.30577 0.78708 0.0
C524 C 0.30199 0.28177 0.88609 0.0
C525 C 0.35847 0.33838 0.92164 0.0
N526 N 0.28264 0.30138 0.8202 0.0
N527 N 0.35153 0.34258 0.88821 0.0
H528 H 0.04139 0.29189 0.25879 0.0
H529 H 0.98041 0.36401 0.09646 0.0
H530 H 0.01879 0.37985 0.26618 0.0
H531 H 0.96447 0.25567 0.102 0.0
H532 H 0.0 0.37369 0.1568 0.0
H533 H 0.02197 0.28326 0.19825 0.0
C534 C 0.03331 0.31003 0.24744 0.0
C535 C 0.03181 0.33671 0.26755 0.0
C536 C 0.99176 0.34763 0.14496 0.0
C537 C 0.00886 0.32648 0.19862 0.0
C538 C 0.98028 0.34197 0.11062 0.0
C539 C 0.97051 0.30888 0.09423 0.0
C540 C 0.99429 0.32029 0.16289 0.0
C541 C 0.97128 0.28141 0.11372 0.0
C542 C 0.02165 0.30469 0.21308 0.0
C543 C 0.02041 0.35898 0.25162 0.0
N544 N 0.98348 0.28791 0.14689 0.0
N545 N 0.00932 0.35333 0.21816 0.0
H546 H 0.69896 0.95561 0.43842 0.0
H547 H 0.63633 0.02628 0.59998 0.0
H548 H 0.62032 0.99074 0.42866 0.0
H549 H 0.74227 0.03684 0.59319 0.0
H550 H 0.62557 0.00723 0.53938 0.0
H551 H 0.70899 0.9761 0.49864 0.0
C552 C 0.68312 0.96675 0.44917 0.0
C553 C 0.65866 0.97135 0.4285 0.0
C554 C 0.65136 0.01423 0.55103 0.0
C555 C 0.67049 0.99541 0.49711 0.0
C556 C 0.65764 0.02539 0.58549 0.0
C557 C 0.69037 0.03346 0.60157 0.0
C558 C 0.67759 0.01019 0.53276 0.0
C559 C 0.71686 0.03138 0.5817 0.0
C560 C 0.6893 0.97899 0.48335 0.0
C561 C 0.63939 0.98663 0.44368 0.0
N562 N 0.70968 0.01939 0.54849 0.0
N563 N 0.6457 0.9981 0.47705 0.0
H564 H 0.6206 0.63546 0.93637 0.0
H565 H 0.74351 0.70656 0.7676 0.0
H566 H 0.70346 0.74753 0.92263 0.0
H567 H 0.63405 0.61591 0.76439 0.0
H568 H 0.73429 0.71649 0.82824 0.0
H569 H 0.6284 0.62363 0.87593 0.0
C570 C 0.6399 0.65773 0.92041 0.0
C571 C 0.66117 0.69262 0.93445 0.0
C572 C 0.71247 0.69419 0.81431 0.0
C573 C 0.67128 0.6789 0.86582 0.0
C574 C 0.7179 0.68812 0.77989 0.0
C575 C 0.68953 0.66028 0.76093 0.0
C576 C 0.67866 0.67191 0.83002 0.0
C577 C 0.65666 0.63766 0.77807 0.0
C578 C 0.64453 0.65089 0.88605 0.0
C579 C 0.68613 0.72038 0.91274 0.0
N580 N 0.6521 0.64396 0.81162 0.0
N581 N 0.69088 0.71281 0.87963 0.0
H582 H 0.9219 0.64984 0.25624 0.0
H583 H 0.06888 0.71565 0.10646 0.0
H584 H 0.03072 0.67082 0.27444 0.0
H585 H 0.95522 0.64224 0.08669 0.0
H586 H 0.05617 0.70678 0.16878 0.0
H587 H 0.9339 0.65384 0.19376 0.0
C588 C 0.9481 0.65494 0.24717 0.0
C589 C 0.97521 0.65977 0.27067 0.0
C590 C 0.03415 0.69247 0.15065 0.0
C591 C 0.98939 0.66534 0.19957 0.0
C592 C 0.0414 0.69753 0.11517 0.0
C593 C 0.01318 0.67951 0.09129 0.0
C594 C -0.00165 0.66999 0.16224 0.0
C595 C 0.97795 0.65646 0.10408 0.0
C596 C 0.95495 0.65725 0.21159 0.0
C597 C 0.00884 0.66659 0.25738 0.0
N598 N 0.97148 0.65269 0.13861 0.0
N599 N 0.01509 0.66959 0.22282 0.0
loop_
_geom_bond_atom_site_label_1
_geom_bond_atom_site_label_2
_geom_bond_distance
_geom_bond_site_symmetry_2
_ccdc_geom_bond_type
O0 Cd1 2.223 . S
O0 C8 1.315 1_545 S
Cd1 O0 2.223 . S
Cd1 O4 2.297 . S
Cd1 O5 2.439 . S
Cd1 O11 2.240 . S
Cd2 O3 2.240 . S
Cd2 O10 2.223 . S
Cd2 O12 2.297 . S
Cd2 O13 2.439 1_565 S
O3 Cd2 2.240 . S
O3 C8 1.279 . S
O4 Cd1 2.297 . S
O4 C6 1.247 . S
O5 Cd1 2.439 . S
O5 C6 1.208 . S
C6 O4 1.247 . S
C6 O5 1.208 . S
C7 O12 1.247 1_545 S
C7 O13 1.208 . S
C8 O0 1.315 1_565 S
C8 O3 1.279 . S
C9 O10 1.315 1_545 S
C9 O11 1.279 . S
O10 Cd2 2.223 . S
O10 C9 1.315 1_565 S
O11 Cd1 2.240 . S
O11 C9 1.279 . S
O12 Cd2 2.297 . S
O12 C7 1.247 1_565 S
O13 Cd2 2.439 1_545 S
O13 C7 1.208 . S
O14 Cd15 2.223 . S
O14 C22 1.315 . S
Cd15 O14 2.223 . S
Cd15 O18 2.297 . S
Cd15 O19 2.439 . S
Cd15 O25 2.240 . S
Cd16 O17 2.240 . S
Cd16 O24 2.223 . S
Cd16 O26 2.297 . S
Cd16 O27 2.439 . S
O17 Cd16 2.240 . S
O17 C22 1.279 . S
O18 Cd15 2.297 . S
O18 C20 1.247 . S
O19 Cd15 2.439 . S
O19 C20 1.208 . S
C20 O18 1.247 . S
C20 O19 1.208 . S
C21 O26 1.247 . S
C21 O27 1.208 . S
C22 O14 1.315 . S
C22 O17 1.279 . S
C23 O24 1.315 . S
C23 O25 1.279 . S
O24 Cd16 2.223 . S
O24 C23 1.315 . S
O25 Cd15 2.240 . S
O25 C23 1.279 . S
O26 Cd16 2.297 . S
O26 C21 1.247 . S
O27 Cd16 2.439 . S
O27 C21 1.208 . S
O28 Cd29 2.223 1_554 S
O28 C36 1.315 1_654 S
Cd29 O28 2.223 1_556 S
Cd29 O32 2.297 . S
Cd29 O33 2.439 . S
Cd29 O39 2.240 1_556 S
Cd30 O31 2.240 . S
Cd30 O38 2.223 1_556 S
Cd30 O40 2.297 1_556 S
Cd30 O41 2.439 1_455 S
O31 Cd30 2.240 . S
O31 C36 1.279 . S
O32 Cd29 2.297 . S
O32 C34 1.247 . S
O33 Cd29 2.439 . S
O33 C34 1.208 . S
C34 O32 1.247 . S
C34 O33 1.208 . S
C35 O40 1.247 1_656 S
C35 O41 1.208 . S
C36 O28 1.315 1_456 S
C36 O31 1.279 . S
C37 O38 1.315 1_655 S
C37 O39 1.279 . S
O38 Cd30 2.223 1_554 S
O38 C37 1.315 1_455 S
O39 Cd29 2.240 1_554 S
O39 C37 1.279 . S
O40 Cd30 2.297 1_554 S
O40 C35 1.247 1_454 S
O41 Cd30 2.439 1_655 S
O41 C35 1.208 . S
O42 Cd43 2.223 . S
O42 C50 1.315 1_565 S
Cd43 O42 2.223 . S
Cd43 O46 2.297 . S
Cd43 O47 2.439 . S
Cd43 O53 2.240 . S
Cd44 O45 2.240 . S
Cd44 O52 2.223 . S
Cd44 O54 2.297 . S
Cd44 O55 2.439 1_545 S
O45 Cd44 2.240 . S
O45 C50 1.279 . S
O46 Cd43 2.297 . S
O46 C48 1.247 . S
O47 Cd43 2.439 . S
O47 C48 1.208 . S
C48 O46 1.247 . S
C48 O47 1.208 . S
C49 O54 1.247 1_565 S
C49 O55 1.208 . S
C50 O42 1.315 1_545 S
C50 O45 1.279 . S
C51 O52 1.315 1_565 S
C51 O53 1.279 . S
O52 Cd44 2.223 . S
O52 C51 1.315 1_545 S
O53 Cd43 2.240 . S
O53 C51 1.279 . S
O54 Cd44 2.297 . S
O54 C49 1.247 1_545 S
O55 Cd44 2.439 1_565 S
O55 C49 1.208 . S
O56 Cd57 2.223 . S
O56 C64 1.315 . S
Cd57 O56 2.223 . S
Cd57 O60 2.297 . S
Cd57 O61 2.439 . S
Cd57 O67 2.240 . S
Cd58 O59 2.240 . S
Cd58 O66 2.223 . S
Cd58 O68 2.297 . S
Cd58 O69 2.439 . S
O59 Cd58 2.240 . S
O59 C64 1.279 . S
O60 Cd57 2.297 . S
O60 C62 1.247 . S
O61 Cd57 2.439 . S
O61 C62 1.208 . S
C62 O60 1.247 . S
C62 O61 1.208 . S
C63 O68 1.247 . S
C63 O69 1.208 . S
C64 O56 1.315 . S
C64 O59 1.279 . S
C65 O66 1.315 . S
C65 O67 1.279 . S
O66 Cd58 2.223 . S
O66 C65 1.315 . S
O67 Cd57 2.240 . S
O67 C65 1.279 . S
O68 Cd58 2.297 . S
O68 C63 1.247 . S
O69 Cd58 2.439 . S
O69 C63 1.208 . S
O70 Cd71 2.223 1_554 S
O70 C78 1.315 1_454 S
Cd71 O70 2.223 1_556 S
Cd71 O74 2.297 . S
Cd71 O75 2.439 . S
Cd71 O81 2.240 1_556 S
Cd72 O73 2.240 . S
Cd72 O80 2.223 1_556 S
Cd72 O82 2.297 1_556 S
Cd72 O83 2.439 1_655 S
O73 Cd72 2.240 . S
O73 C78 1.279 . S
O74 Cd71 2.297 . S
O74 C76 1.247 . S
O75 Cd71 2.439 . S
O75 C76 1.208 . S
C76 O74 1.247 . S
C76 O75 1.208 . S
C77 O82 1.247 1_456 S
C77 O83 1.208 . S
C78 O70 1.315 1_656 S
C78 O73 1.279 . S
C79 O80 1.315 1_455 S
C79 O81 1.279 . S
O80 Cd72 2.223 1_554 S
O80 C79 1.315 1_655 S
O81 Cd71 2.240 1_554 S
O81 C79 1.279 . S
O82 Cd72 2.297 1_554 S
O82 C77 1.247 1_654 S
O83 Cd72 2.439 1_455 S
O83 C77 1.208 . S
O84 Cd85 2.223 . S
O84 C92 1.315 1_655 S
Cd85 O84 2.223 . S
Cd85 O88 2.297 . S
Cd85 O89 2.439 . S
Cd85 O95 2.240 . S
Cd86 O87 2.240 . S
Cd86 O94 2.223 . S
Cd86 O96 2.297 . S
Cd86 O97 2.439 1_455 S
O87 Cd86 2.240 . S
O87 C92 1.279 . S
O88 Cd85 2.297 . S
O88 C90 1.247 . S
O89 Cd85 2.439 . S
O89 C90 1.208 . S
C90 O88 1.247 . S
C90 O89 1.208 . S
C91 O96 1.247 1_655 S
C91 O97 1.208 . S
C92 O84 1.315 1_455 S
C92 O87 1.279 . S
C93 O94 1.315 1_655 S
C93 O95 1.279 . S
O94 Cd86 2.223 . S
O94 C93 1.315 1_455 S
O95 Cd85 2.240 . S
O95 C93 1.279 . S
O96 Cd86 2.297 . S
O96 C91 1.247 1_455 S
O97 Cd86 2.439 1_655 S
O97 C91 1.208 . S
O98 Cd99 2.223 . S
O98 C106 1.315 1_565 S
Cd99 O98 2.223 . S
Cd99 O102 2.297 . S
Cd99 O103 2.439 . S
Cd99 O109 2.240 . S
Cd100 O101 2.240 . S
Cd100 O108 2.223 . S
Cd100 O110 2.297 . S
Cd100 O111 2.439 1_545 S
O101 Cd100 2.240 . S
O101 C106 1.279 . S
O102 Cd99 2.297 . S
O102 C104 1.247 . S
O103 Cd99 2.439 . S
O103 C104 1.208 . S
C104 O102 1.247 . S
C104 O103 1.208 . S
C105 O110 1.247 1_565 S
C105 O111 1.208 . S
C106 O98 1.315 1_545 S
C106 O101 1.279 . S
C107 O108 1.315 1_565 S
C107 O109 1.279 . S
O108 Cd100 2.223 . S
O108 C107 1.315 1_545 S
O109 Cd99 2.240 . S
O109 C107 1.279 . S
O110 Cd100 2.297 . S
O110 C105 1.247 1_545 S
O111 Cd100 2.439 1_565 S
O111 C105 1.208 . S
O112 Cd113 2.225 . S
O112 C120 1.315 1_556 S
Cd113 O112 2.225 . S
Cd113 O116 2.285 1_556 S
Cd113 O117 2.425 1_556 S
Cd113 O123 2.250 . S
Cd114 O115 2.230 1_556 S
Cd114 O122 2.248 . S
Cd114 O124 2.304 . S
Cd114 O125 2.431 1_556 S
O115 Cd114 2.230 1_554 S
O115 C120 1.279 . S
O116 Cd113 2.285 1_554 S
O116 C118 1.247 . S
O117 Cd113 2.425 1_554 S
O117 C118 1.208 . S
C118 O116 1.247 . S
C118 O117 1.208 . S
C119 O124 1.247 1_554 S
C119 O125 1.208 . S
C120 O112 1.315 1_554 S
C120 O115 1.279 . S
C121 O122 1.315 . S
C121 O123 1.279 . S
O122 Cd114 2.248 . S
O122 C121 1.315 . S
O123 Cd113 2.250 . S
O123 C121 1.279 . S
O124 Cd114 2.304 . S
O124 C119 1.247 1_556 S
O125 Cd114 2.431 1_554 S
O125 C119 1.208 . S
O126 Cd127 2.223 . S
O126 C134 1.315 1_455 S
Cd127 O126 2.223 . S
Cd127 O130 2.297 . S
Cd127 O131 2.439 . S
Cd127 O137 2.240 . S
Cd128 O129 2.240 . S
Cd128 O136 2.223 . S
Cd128 O138 2.297 . S
Cd128 O139 2.439 1_655 S
O129 Cd128 2.240 . S
O129 C134 1.279 . S
O130 Cd127 2.297 . S
O130 C132 1.247 . S
O131 Cd127 2.439 . S
O131 C132 1.208 . S
C132 O130 1.247 . S
C132 O131 1.208 . S
C133 O138 1.247 1_455 S
C133 O139 1.208 . S
C134 O126 1.315 1_655 S
C134 O129 1.279 . S
C135 O136 1.315 1_455 S
C135 O137 1.279 . S
O136 Cd128 2.223 . S
O136 C135 1.315 1_655 S
O137 Cd127 2.240 . S
O137 C135 1.279 . S
O138 Cd128 2.297 . S
O138 C133 1.247 1_655 S
O139 Cd128 2.439 1_455 S
O139 C133 1.208 . S
O140 Cd141 2.223 . S
O140 C148 1.315 1_545 S
Cd141 O140 2.223 . S
Cd141 O144 2.297 . S
Cd141 O145 2.439 . S
Cd141 O151 2.240 . S
Cd142 O143 2.240 . S
Cd142 O150 2.223 . S
Cd142 O152 2.297 . S
Cd142 O153 2.439 1_565 S
O143 Cd142 2.240 . S
O143 C148 1.279 . S
O144 Cd141 2.297 . S
O144 C146 1.247 . S
O145 Cd141 2.439 . S
O145 C146 1.208 . S
C146 O144 1.247 . S
C146 O145 1.208 . S
C147 O152 1.247 1_545 S
C147 O153 1.208 . S
C148 O140 1.315 1_565 S
C148 O143 1.279 . S
C149 O150 1.315 1_545 S
C149 O151 1.279 . S
O150 Cd142 2.223 . S
O150 C149 1.315 1_565 S
O151 Cd141 2.240 . S
O151 C149 1.279 . S
O152 Cd142 2.297 . S
O152 C147 1.247 1_565 S
O153 Cd142 2.439 1_545 S
O153 C147 1.208 . S
O154 Cd155 2.225 . S
O154 C162 1.315 1_556 S
Cd155 O154 2.225 . S
Cd155 O158 2.285 1_556 S
Cd155 O159 2.425 1_556 S
Cd155 O165 2.250 . S
Cd156 O157 2.230 1_556 S
Cd156 O164 2.248 . S
Cd156 O166 2.304 . S
Cd156 O167 2.431 1_556 S
O157 Cd156 2.230 1_554 S
O157 C162 1.279 . S
O158 Cd155 2.285 1_554 S
O158 C160 1.247 . S
O159 Cd155 2.425 1_554 S
O159 C160 1.208 . S
C160 O158 1.247 . S
C160 O159 1.208 . S
C161 O166 1.247 1_554 S
C161 O167 1.208 . S
C162 O154 1.315 1_554 S
C162 O157 1.279 . S
C163 O164 1.315 . S
C163 O165 1.279 . S
O164 Cd156 2.248 . S
O164 C163 1.315 . S
O165 Cd155 2.250 . S
O165 C163 1.279 . S
O166 Cd156 2.304 . S
O166 C161 1.247 1_556 S
O167 Cd156 2.431 1_554 S
O167 C161 1.208 . S
H168 C174 0.930 . S
H169 C178 0.930 . S
H170 C183 0.929 . S
H171 C181 0.929 . S
H172 C176 0.929 . S
H173 C182 0.929 . S
C174 H168 0.930 . S
C174 C175 1.367 . S
C174 C182 1.378 . S
C175 C174 1.367 . S
C175 C183 1.433 . S
C176 H172 0.929 . S
C176 C178 1.378 . S
C176 C180 1.350 . S
C177 C180 1.463 . S
C177 C182 1.350 . S
C177 N185 1.427 . S
C178 H169 0.930 . S
C178 C176 1.378 . S
C178 C179 1.367 . S
C179 C178 1.367 . S
C179 C181 1.433 . S
C180 C176 1.350 . S
C180 C177 1.463 . S
C180 N184 1.427 . S
C181 H171 0.929 . S
C181 C179 1.433 . S
C181 N184 1.384 . S
C182 H173 0.929 . S
C182 C174 1.378 . S
C182 C177 1.350 . S
C183 H170 0.929 . S
C183 C175 1.433 . S
C183 N185 1.384 . S
N184 C180 1.427 . S
N184 C181 1.384 . S
N185 C177 1.427 . S
N185 C183 1.384 . S
H186 C192 0.930 . S
H187 C196 0.930 . S
H188 C201 0.929 . S
H189 C199 0.929 . S
H190 C194 0.929 . S
H191 C200 0.929 . S
C192 H186 0.930 . S
C192 C193 1.367 . S
C192 C200 1.378 . S
C193 C192 1.367 . S
C193 C201 1.433 . S
C194 H190 0.929 . S
C194 C196 1.378 . S
C194 C198 1.350 . S
C195 C198 1.463 . S
C195 C200 1.350 . S
C195 N203 1.427 . S
C196 H187 0.930 . S
C196 C194 1.378 . S
C196 C197 1.367 . S
C197 C196 1.367 . S
C197 C199 1.433 . S
C198 C194 1.350 . S
C198 C195 1.463 . S
C198 N202 1.427 . S
C199 H189 0.929 . S
C199 C197 1.433 . S
C199 N202 1.384 . S
C200 H191 0.929 . S
C200 C192 1.378 . S
C200 C195 1.350 . S
C201 H188 0.929 . S
C201 C193 1.433 . S
C201 N203 1.384 . S
N202 C198 1.427 . S
N202 C199 1.384 . S
N203 C195 1.427 . S
N203 C201 1.384 . S
H204 C210 0.930 . S
H205 C214 0.930 . S
H206 C219 0.929 . S
H207 C217 0.929 . S
H208 C212 0.929 . S
H209 C218 0.929 . S
C210 H204 0.930 . S
C210 C211 1.367 . S
C210 C218 1.378 . S
C211 C210 1.367 . S
C211 C219 1.433 . S
C212 H208 0.929 . S
C212 C214 1.378 . S
C212 C216 1.350 . S
C213 C216 1.463 . S
C213 C218 1.350 . S
C213 N221 1.427 . S
C214 H205 0.930 . S
C214 C212 1.378 . S
C214 C215 1.367 . S
C215 C214 1.367 . S
C215 C217 1.433 . S
C216 C212 1.350 . S
C216 C213 1.463 . S
C216 N220 1.427 . S
C217 H207 0.929 . S
C217 C215 1.433 . S
C217 N220 1.384 . S
C218 H209 0.929 . S
C218 C210 1.378 . S
C218 C213 1.350 . S
C219 H206 0.929 . S
C219 C211 1.433 . S
C219 N221 1.384 . S
N220 C216 1.427 . S
N220 C217 1.384 . S
N221 C213 1.427 . S
N221 C219 1.384 . S
H222 C228 0.930 . S
H223 C232 0.930 . S
H224 C237 0.929 . S
H225 C235 0.929 . S
H226 C230 0.929 . S
H227 C236 0.929 . S
C228 H222 0.930 . S
C228 C229 1.367 . S
C228 C236 1.378 . S
C229 C228 1.367 . S
C229 C237 1.433 . S
C230 H226 0.929 . S
C230 C232 1.378 . S
C230 C234 1.350 . S
C231 C234 1.463 . S
C231 C236 1.350 . S
C231 N239 1.427 . S
C232 H223 0.930 . S
C232 C230 1.378 . S
C232 C233 1.367 . S
C233 C232 1.367 . S
C233 C235 1.433 . S
C234 C230 1.350 . S
C234 C231 1.463 . S
C234 N238 1.427 . S
C235 H225 0.929 . S
C235 C233 1.433 . S
C235 N238 1.384 . S
C236 H227 0.929 . S
C236 C228 1.378 . S
C236 C231 1.350 . S
C237 H224 0.929 . S
C237 C229 1.433 . S
C237 N239 1.384 . S
N238 C234 1.427 . S
N238 C235 1.384 . S
N239 C231 1.427 . S
N239 C237 1.384 . S
H240 C246 0.930 . S
H241 C250 0.930 . S
H242 C255 0.929 . S
H243 C253 0.929 . S
H244 C248 0.929 . S
H245 C254 0.929 . S
C246 H240 0.930 . S
C246 C247 1.367 . S
C246 C254 1.378 . S
C247 C246 1.367 . S
C247 C255 1.433 . S
C248 H244 0.929 . S
C248 C250 1.378 . S
C248 C252 1.350 . S
C249 C252 1.463 . S
C249 C254 1.350 . S
C249 N257 1.427 . S
C250 H241 0.930 . S
C250 C248 1.378 . S
C250 C251 1.367 . S
C251 C250 1.367 . S
C251 C253 1.433 . S
C252 C248 1.350 . S
C252 C249 1.463 . S
C252 N256 1.427 . S
C253 H243 0.929 . S
C253 C251 1.433 . S
C253 N256 1.384 . S
C254 H245 0.929 . S
C254 C246 1.378 . S
C254 C249 1.350 . S
C255 H242 0.929 . S
C255 C247 1.433 . S
C255 N257 1.384 . S
N256 C252 1.427 . S
N256 C253 1.384 . S
N257 C249 1.427 . S
N257 C255 1.384 . S
H258 C264 0.930 . S
H259 C268 0.930 . S
H260 C273 0.929 . S
H261 C271 0.929 . S
H262 C266 0.929 . S
H263 C272 0.929 . S
C264 H258 0.930 . S
C264 C265 1.367 . S
C264 C272 1.378 . S
C265 C264 1.367 . S
C265 C273 1.433 . S
C266 H262 0.929 . S
C266 C268 1.378 . S
C266 C270 1.350 . S
C267 C270 1.463 . S
C267 C272 1.350 . S
C267 N275 1.427 . S
C268 H259 0.930 . S
C268 C266 1.378 . S
C268 C269 1.367 . S
C269 C268 1.367 . S
C269 C271 1.433 . S
C270 C266 1.350 . S
C270 C267 1.463 . S
C270 N274 1.427 . S
C271 H261 0.929 . S
C271 C269 1.433 . S
C271 N274 1.384 . S
C272 H263 0.929 . S
C272 C264 1.378 . S
C272 C267 1.350 . S
C273 H260 0.929 . S
C273 C265 1.433 . S
C273 N275 1.384 . S
N274 C270 1.427 . S
N274 C271 1.384 . S
N275 C267 1.427 . S
N275 C273 1.384 . S
H276 C282 0.930 . S
H277 C286 0.930 . S
H278 C291 0.929 . S
H279 C289 0.929 . S
H280 C284 0.929 . S
H281 C290 0.929 . S
C282 H276 0.930 . S
C282 C283 1.367 . S
C282 C290 1.378 . S
C283 C282 1.367 . S
C283 C291 1.433 1_545 S
C284 H280 0.929 . S
C284 C286 1.378 . S
C284 C288 1.350 . S
C285 C288 1.463 1_545 S
C285 C290 1.350 . S
C285 N293 1.427 1_545 S
C286 H277 0.930 . S
C286 C284 1.378 . S
C286 C287 1.367 . S
C287 C286 1.367 . S
C287 C289 1.433 1_565 S
C288 C284 1.350 . S
C288 C285 1.463 1_565 S
C288 N292 1.427 1_565 S
C289 H279 0.929 . S
C289 C287 1.433 1_545 S
C289 N292 1.384 . S
C290 H281 0.929 . S
C290 C282 1.378 . S
C290 C285 1.350 . S
C291 H278 0.929 . S
C291 C283 1.433 1_565 S
C291 N293 1.384 . S
N292 C288 1.427 1_545 S
N292 C289 1.384 . S
N293 C285 1.427 1_565 S
N293 C291 1.384 . S
H294 C300 0.930 . S
H295 C304 0.930 . S
H296 C309 0.929 . S
H297 C307 0.929 . S
H298 C302 0.929 . S
H299 C308 0.929 . S
C300 H294 0.930 . S
C300 C301 1.367 . S
C300 C308 1.378 . S
C301 C300 1.367 . S
C301 C309 1.433 . S
C302 H298 0.929 . S
C302 C304 1.378 . S
C302 C306 1.350 . S
C303 C306 1.463 . S
C303 C308 1.350 . S
C303 N311 1.427 . S
C304 H295 0.930 . S
C304 C302 1.378 . S
C304 C305 1.367 . S
C305 C304 1.367 . S
C305 C307 1.433 . S
C306 C302 1.350 . S
C306 C303 1.463 . S
C306 N310 1.427 . S
C307 H297 0.929 . S
C307 C305 1.433 . S
C307 N310 1.384 . S
C308 H299 0.929 . S
C308 C300 1.378 . S
C308 C303 1.350 . S
C309 H296 0.929 . S
C309 C301 1.433 . S
C309 N311 1.384 . S
N310 C306 1.427 . S
N310 C307 1.384 . S
N311 C303 1.427 . S
N311 C309 1.384 . S
H312 C318 0.930 . S
H313 C322 0.930 . S
H314 C327 0.929 . S
H315 C325 0.929 . S
H316 C320 0.929 . S
H317 C326 0.929 . S
C318 H312 0.930 . S
C318 C319 1.367 1_654 S
C318 C326 1.378 . S
C319 C318 1.367 1_456 S
C319 C327 1.433 . S
C320 H316 0.929 . S
C320 C322 1.378 . S
C320 C324 1.350 1_455 S
C321 C324 1.463 1_455 S
C321 C326 1.350 1_456 S
C321 N329 1.427 . S
C322 H313 0.930 . S
C322 C320 1.378 . S
C322 C323 1.367 1_455 S
C323 C322 1.367 1_655 S
C323 C325 1.433 1_556 S
C324 C320 1.350 1_655 S
C324 C321 1.463 1_655 S
C324 N328 1.427 1_556 S
C325 H315 0.929 . S
C325 C323 1.433 1_554 S
C325 N328 1.384 . S
C326 H317 0.929 . S
C326 C318 1.378 . S
C326 C321 1.350 1_654 S
C327 H314 0.929 . S
C327 C319 1.433 . S
C327 N329 1.384 . S
N328 C324 1.427 1_554 S
N328 C325 1.384 . S
N329 C321 1.427 . S
N329 C327 1.384 . S
H330 C336 0.930 . S
H331 C340 0.930 . S
H332 C345 0.929 . S
H333 C343 0.929 . S
H334 C338 0.929 . S
H335 C344 0.929 . S
C336 H330 0.930 . S
C336 C337 1.367 . S
C336 C344 1.378 . S
C337 C336 1.367 . S
C337 C345 1.433 . S
C338 H334 0.929 . S
C338 C340 1.378 . S
C338 C342 1.350 . S
C339 C342 1.463 1_655 S
C339 C344 1.350 . S
C339 N347 1.427 . S
C340 H331 0.930 . S
C340 C338 1.378 . S
C340 C341 1.367 . S
C341 C340 1.367 . S
C341 C343 1.433 . S
C342 C338 1.350 . S
C342 C339 1.463 1_455 S
C342 N346 1.427 . S
C343 H333 0.929 . S
C343 C341 1.433 . S
C343 N346 1.384 . S
C344 H335 0.929 . S
C344 C336 1.378 . S
C344 C339 1.350 . S
C345 H332 0.929 . S
C345 C337 1.433 . S
C345 N347 1.384 . S
N346 C342 1.427 . S
N346 C343 1.384 . S
N347 C339 1.427 . S
N347 C345 1.384 . S
H348 C354 0.930 . S
H349 C358 0.930 . S
H350 C363 0.929 1_565 S
H351 C361 0.929 1_545 S
H352 C356 0.929 . S
H353 C362 0.929 . S
C354 H348 0.930 . S
C354 C355 1.367 . S
C354 C362 1.378 . S
C355 C354 1.367 . S
C355 C363 1.433 . S
C356 H352 0.929 . S
C356 C358 1.378 . S
C356 C360 1.350 . S
C357 C360 1.463 1_545 S
C357 C362 1.350 . S
C357 N365 1.427 1_545 S
C358 H349 0.930 . S
C358 C356 1.378 . S
C358 C359 1.367 . S
C359 C358 1.367 . S
C359 C361 1.433 . S
C360 C356 1.350 . S
C360 C357 1.463 1_565 S
C360 N364 1.427 1_565 S
C361 H351 0.929 1_565 S
C361 C359 1.433 . S
C361 N364 1.384 1_565 S
C362 H353 0.929 . S
C362 C354 1.378 . S
C362 C357 1.350 . S
C363 H350 0.929 1_545 S
C363 C355 1.433 . S
C363 N365 1.384 1_545 S
N364 C360 1.427 1_545 S
N364 C361 1.384 1_545 S
N365 C357 1.427 1_565 S
N365 C363 1.384 1_565 S
H366 C372 0.930 . S
H367 C376 0.930 . S
H368 C381 0.929 . S
H369 C379 0.929 . S
H370 C374 0.929 . S
H371 C380 0.929 . S
C372 H366 0.930 . S
C372 C373 1.367 . S
C372 C380 1.378 . S
C373 C372 1.367 . S
C373 C381 1.433 1_554 S
C374 H370 0.929 . S
C374 C376 1.378 . S
C374 C378 1.350 1_556 S
C375 C378 1.463 . S
C375 C380 1.350 . S
C375 N383 1.427 1_554 S
C376 H367 0.930 . S
C376 C374 1.378 . S
C376 C377 1.367 1_556 S
C377 C376 1.367 1_554 S
C377 C379 1.433 . S
C378 C374 1.350 1_554 S
C378 C375 1.463 . S
C378 N382 1.427 . S
C379 H369 0.929 . S
C379 C377 1.433 . S
C379 N382 1.384 . S
C380 H371 0.929 . S
C380 C372 1.378 . S
C380 C375 1.350 . S
C381 H368 0.929 . S
C381 C373 1.433 1_556 S
C381 N383 1.384 . S
N382 C378 1.427 . S
N382 C379 1.384 . S
N383 C375 1.427 1_556 S
N383 C381 1.384 . S
H384 C390 0.930 . S
H385 C394 0.930 . S
H386 C399 0.929 . S
H387 C397 0.929 . S
H388 C392 0.929 . S
H389 C398 0.929 . S
C390 H384 0.930 . S
C390 C391 1.367 . S
C390 C398 1.378 . S
C391 C390 1.367 . S
C391 C399 1.433 . S
C392 H388 0.929 . S
C392 C394 1.378 . S
C392 C396 1.350 . S
C393 C396 1.463 . S
C393 C398 1.350 . S
C393 N401 1.427 . S
C394 H385 0.930 . S
C394 C392 1.378 . S
C394 C395 1.367 . S
C395 C394 1.367 . S
C395 C397 1.433 . S
C396 C392 1.350 . S
C396 C393 1.463 . S
C396 N400 1.427 . S
C397 H387 0.929 . S
C397 C395 1.433 . S
C397 N400 1.384 . S
C398 H389 0.929 . S
C398 C390 1.378 . S
C398 C393 1.350 . S
C399 H386 0.929 . S
C399 C391 1.433 . S
C399 N401 1.384 . S
N400 C396 1.427 . S
N400 C397 1.384 . S
N401 C393 1.427 . S
N401 C399 1.384 . S
H402 C408 0.930 . S
H403 C412 0.930 . S
H404 C417 0.929 . S
H405 C415 0.929 . S
H406 C410 0.929 . S
H407 C416 0.929 . S
C408 H402 0.930 . S
C408 C409 1.367 . S
C408 C416 1.378 . S
C409 C408 1.367 . S
C409 C417 1.433 . S
C410 H406 0.929 . S
C410 C412 1.378 . S
C410 C414 1.350 . S
C411 C414 1.463 . S
C411 C416 1.350 . S
C411 N419 1.427 . S
C412 H403 0.930 . S
C412 C410 1.378 . S
C412 C413 1.367 . S
C413 C412 1.367 . S
C413 C415 1.433 . S
C414 C410 1.350 . S
C414 C411 1.463 . S
C414 N418 1.427 . S
C415 H405 0.929 . S
C415 C413 1.433 . S
C415 N418 1.384 . S
C416 H407 0.929 . S
C416 C408 1.378 . S
C416 C411 1.350 . S
C417 H404 0.929 . S
C417 C409 1.433 . S
C417 N419 1.384 . S
N418 C414 1.427 . S
N418 C415 1.384 . S
N419 C411 1.427 . S
N419 C417 1.384 . S
H420 C426 0.930 . S
H421 C430 0.930 . S
H422 C435 0.929 . S
H423 C433 0.929 . S
H424 C428 0.929 . S
H425 C434 0.929 . S
C426 H420 0.930 . S
C426 C427 1.367 . S
C426 C434 1.378 . S
C427 C426 1.367 . S
C427 C435 1.433 1_554 S
C428 H424 0.929 . S
C428 C430 1.378 . S
C428 C432 1.350 . S
C429 C432 1.460 1_554 S
C429 C434 1.369 . S
C429 N437 1.410 1_554 S
C430 H421 0.930 . S
C430 C428 1.378 . S
C430 C431 1.367 . S
C431 C430 1.367 . S
C431 C433 1.433 1_556 S
C432 C428 1.350 . S
C432 C429 1.460 1_556 S
C432 N436 1.427 1_556 S
C433 H423 0.929 . S
C433 C431 1.433 1_554 S
C433 N436 1.384 . S
C434 H425 0.929 . S
C434 C426 1.378 . S
C434 C429 1.369 . S
C435 H422 0.929 . S
C435 C427 1.433 1_556 S
C435 N437 1.384 . S
N436 C432 1.427 1_554 S
N436 C433 1.384 . S
N437 C429 1.410 1_556 S
N437 C435 1.384 . S
H438 C444 0.930 . S
H439 C448 0.930 . S
H440 C453 0.929 . S
H441 C451 0.929 . S
H442 C446 0.929 . S
H443 C452 0.929 . S
C444 H438 0.930 . S
C444 C445 1.367 . S
C444 C452 1.378 . S
C445 C444 1.367 . S
C445 C453 1.433 . S
C446 H442 0.929 . S
C446 C448 1.378 . S
C446 C450 1.350 . S
C447 C450 1.463 . S
C447 C452 1.350 . S
C447 N455 1.427 . S
C448 H439 0.930 . S
C448 C446 1.378 . S
C448 C449 1.367 . S
C449 C448 1.367 . S
C449 C451 1.433 . S
C450 C446 1.350 . S
C450 C447 1.463 . S
C450 N454 1.427 . S
C451 H441 0.929 . S
C451 C449 1.433 . S
C451 N454 1.384 . S
C452 H443 0.929 . S
C452 C444 1.378 . S
C452 C447 1.350 . S
C453 H440 0.929 . S
C453 C445 1.433 . S
C453 N455 1.384 . S
N454 C450 1.427 . S
N454 C451 1.384 . S
N455 C447 1.427 . S
N455 C453 1.384 . S
H456 C462 0.930 . S
H457 C466 0.930 . S
H458 C471 0.929 . S
H459 C469 0.929 . S
H460 C464 0.929 . S
H461 C470 0.929 . S
C462 H456 0.930 . S
C462 C463 1.367 . S
C462 C470 1.378 . S
C463 C462 1.367 . S
C463 C471 1.433 . S
C464 H460 0.929 . S
C464 C466 1.378 . S
C464 C468 1.350 . S
C465 C468 1.463 . S
C465 C470 1.350 . S
C465 N473 1.427 . S
C466 H457 0.930 . S
C466 C464 1.378 . S
C466 C467 1.367 . S
C467 C466 1.367 . S
C467 C469 1.433 . S
C468 C464 1.350 . S
C468 C465 1.463 . S
C468 N472 1.427 . S
C469 H459 0.929 . S
C469 C467 1.433 . S
C469 N472 1.384 . S
C470 H461 0.929 . S
C470 C462 1.378 . S
C470 C465 1.350 . S
C471 H458 0.929 . S
C471 C463 1.433 . S
C471 N473 1.384 . S
N472 C468 1.427 . S
N472 C469 1.384 . S
N473 C465 1.427 . S
N473 C471 1.384 . S
H474 C480 0.930 . S
H475 C484 0.930 . S
H476 C489 0.929 . S
H477 C487 0.929 . S
H478 C482 0.929 . S
H479 C488 0.929 . S
C480 H474 0.930 . S
C480 C481 1.367 . S
C480 C488 1.378 . S
C481 C480 1.367 . S
C481 C489 1.433 1_554 S
C482 H478 0.929 . S
C482 C484 1.378 . S
C482 C486 1.350 . S
C483 C486 1.461 1_554 S
C483 C488 1.358 . S
C483 N491 1.420 1_554 S
C484 H475 0.930 . S
C484 C482 1.378 . S
C484 C485 1.367 . S
C485 C484 1.367 . S
C485 C487 1.433 1_556 S
C486 C482 1.350 . S
C486 C483 1.461 1_556 S
C486 N490 1.427 1_556 S
C487 H477 0.929 . S
C487 C485 1.433 1_554 S
C487 N490 1.384 . S
C488 H479 0.929 . S
C488 C480 1.378 . S
C488 C483 1.358 . S
C489 H476 0.929 . S
C489 C481 1.433 1_556 S
C489 N491 1.384 . S
N490 C486 1.427 1_554 S
N490 C487 1.384 . S
N491 C483 1.420 1_556 S
N491 C489 1.384 . S
H492 C498 0.930 . S
H493 C502 0.930 . S
H494 C507 0.929 . S
H495 C505 0.929 . S
H496 C500 0.929 . S
H497 C506 0.929 . S
C498 H492 0.930 . S
C498 C499 1.367 . S
C498 C506 1.378 . S
C499 C498 1.367 . S
C499 C507 1.433 1_545 S
C500 H496 0.929 . S
C500 C502 1.378 . S
C500 C504 1.350 . S
C501 C504 1.463 1_545 S
C501 C506 1.350 . S
C501 N509 1.427 1_545 S
C502 H493 0.930 . S
C502 C500 1.378 . S
C502 C503 1.367 . S
C503 C502 1.367 . S
C503 C505 1.433 1_565 S
C504 C500 1.350 . S
C504 C501 1.463 1_565 S
C504 N508 1.427 1_565 S
C505 H495 0.929 . S
C505 C503 1.433 1_545 S
C505 N508 1.384 . S
C506 H497 0.929 . S
C506 C498 1.378 . S
C506 C501 1.350 . S
C507 H494 0.929 . S
C507 C499 1.433 1_565 S
C507 N509 1.384 . S
N508 C504 1.427 1_545 S
N508 C505 1.384 . S
N509 C501 1.427 1_565 S
N509 C507 1.384 . S
H510 C516 0.930 . S
H511 C520 0.930 . S
H512 C525 0.929 . S
H513 C523 0.929 . S
H514 C518 0.929 . S
H515 C524 0.929 . S
C516 H510 0.930 . S
C516 C517 1.367 . S
C516 C524 1.378 . S
C517 C516 1.367 . S
C517 C525 1.433 . S
C518 H514 0.929 . S
C518 C520 1.378 . S
C518 C522 1.350 . S
C519 C522 1.463 . S
C519 C524 1.350 . S
C519 N527 1.427 . S
C520 H511 0.930 . S
C520 C518 1.378 . S
C520 C521 1.367 . S
C521 C520 1.367 . S
C521 C523 1.433 . S
C522 C518 1.350 . S
C522 C519 1.463 . S
C522 N526 1.427 . S
C523 H513 0.929 . S
C523 C521 1.433 . S
C523 N526 1.384 . S
C524 H515 0.929 . S
C524 C516 1.378 . S
C524 C519 1.350 . S
C525 H512 0.929 . S
C525 C517 1.433 . S
C525 N527 1.384 . S
N526 C522 1.427 . S
N526 C523 1.384 . S
N527 C519 1.427 . S
N527 C525 1.384 . S
H528 C534 0.930 . S
H529 C538 0.930 . S
H530 C543 0.929 . S
H531 C541 0.929 . S
H532 C536 0.929 . S
H533 C542 0.929 . S
C534 H528 0.930 . S
C534 C535 1.367 1_655 S
C534 C542 1.378 . S
C535 C534 1.367 1_455 S
C535 C543 1.433 . S
C536 H532 0.929 . S
C536 C538 1.378 . S
C536 C540 1.350 1_455 S
C537 C540 1.463 1_455 S
C537 C542 1.350 1_455 S
C537 N545 1.427 . S
C538 H529 0.930 . S
C538 C536 1.378 . S
C538 C539 1.367 1_455 S
C539 C538 1.367 1_655 S
C539 C541 1.433 . S
C540 C536 1.350 1_655 S
C540 C537 1.463 1_655 S
C540 N544 1.427 . S
C541 H531 0.929 . S
C541 C539 1.433 . S
C541 N544 1.384 . S
C542 H533 0.929 . S
C542 C534 1.378 . S
C542 C537 1.350 1_655 S
C543 H530 0.929 . S
C543 C535 1.433 . S
C543 N545 1.384 . S
N544 C540 1.427 . S
N544 C541 1.384 . S
N545 C537 1.427 . S
N545 C543 1.384 . S
H546 C552 0.930 . S
H547 C556 0.930 . S
H548 C561 0.929 . S
H549 C559 0.929 . S
H550 C554 0.929 . S
H551 C560 0.929 . S
C552 H546 0.930 . S
C552 C553 1.367 . S
C552 C560 1.378 . S
C553 C552 1.367 . S
C553 C561 1.433 1_565 S
C554 H550 0.929 . S
C554 C556 1.378 . S
C554 C558 1.350 . S
C555 C558 1.463 1_565 S
C555 C560 1.350 . S
C555 N563 1.427 1_565 S
C556 H547 0.930 . S
C556 C554 1.378 . S
C556 C557 1.367 . S
C557 C556 1.367 . S
C557 C559 1.433 1_545 S
C558 C554 1.350 . S
C558 C555 1.463 1_545 S
C558 N562 1.427 1_545 S
C559 H549 0.929 . S
C559 C557 1.433 1_565 S
C559 N562 1.384 . S
C560 H551 0.929 . S
C560 C552 1.378 . S
C560 C555 1.350 . S
C561 H548 0.929 . S
C561 C553 1.433 1_545 S
C561 N563 1.384 . S
N562 C558 1.427 1_565 S
N562 C559 1.384 . S
N563 C555 1.427 1_545 S
N563 C561 1.384 . S
H564 C570 0.930 . S
H565 C574 0.930 . S
H566 C579 0.929 . S
H567 C577 0.929 . S
H568 C572 0.929 . S
H569 C578 0.929 . S
C570 H564 0.930 . S
C570 C571 1.367 . S
C570 C578 1.378 . S
C571 C570 1.367 . S
C571 C579 1.433 . S
C572 H568 0.929 . S
C572 C574 1.378 . S
C572 C576 1.350 . S
C573 C576 1.463 . S
C573 C578 1.350 . S
C573 N581 1.427 . S
C574 H565 0.930 . S
C574 C572 1.378 . S
C574 C575 1.367 . S
C575 C574 1.367 . S
C575 C577 1.433 . S
C576 C572 1.350 . S
C576 C573 1.463 . S
C576 N580 1.427 . S
C577 H567 0.929 . S
C577 C575 1.433 . S
C577 N580 1.384 . S
C578 H569 0.929 . S
C578 C570 1.378 . S
C578 C573 1.350 . S
C579 H566 0.929 . S
C579 C571 1.433 . S
C579 N581 1.384 . S
N580 C576 1.427 . S
N580 C577 1.384 . S
N581 C573 1.427 . S
N581 C579 1.384 . S
H582 C588 0.930 . S
H583 C592 0.930 . S
H584 C597 0.929 . S
H585 C595 0.929 . S
H586 C590 0.929 . S
H587 C596 0.929 . S
C588 H582 0.930 . S
C588 C589 1.367 . S
C588 C596 1.378 . S
C589 C588 1.367 . S
C589 C597 1.433 1_655 S
C590 H586 0.929 . S
C590 C592 1.378 . S
C590 C594 1.350 . S
C591 C594 1.463 1_655 S
C591 C596 1.350 . S
C591 N599 1.427 1_655 S
C592 H583 0.930 . S
C592 C590 1.378 . S
C592 C593 1.367 . S
C593 C592 1.367 . S
C593 C595 1.433 1_455 S
C594 C590 1.350 . S
C594 C591 1.463 1_455 S
C594 N598 1.427 1_455 S
C595 H585 0.929 . S
C595 C593 1.433 1_655 S
C595 N598 1.384 . S
C596 H587 0.929 . S
C596 C588 1.378 . S
C596 C591 1.350 . S
C597 H584 0.929 . S
C597 C589 1.433 1_455 S
C597 N599 1.384 . S
N598 C594 1.427 1_655 S
N598 C595 1.384 . S
N599 C591 1.427 1_455 S
N599 C597 1.384 . S
C175 C6 1.665 . S
C179 C118 1.663 . S
C193 C20 1.666 . S
C197 C132 1.664 . S
C211 C146 1.666 . S
C215 C34 1.669 . S
C229 C160 1.663 . S
C233 C48 1.662 . S
C247 C90 1.668 . S
C251 C62 1.666 . S
C265 C104 1.663 . S
C269 C76 1.662 . S
C283 C7 1.728 . S
C287 C49 1.726 . S
C301 C63 1.715 . S
C305 C21 1.718 . S
C319 C77 1.713 . S
C323 C35 1.714 . S
C337 C91 1.720 . S
C341 C133 1.723 . S
C355 C147 1.725 . S
C359 C105 1.723 . S
C373 C119 1.726 . S
C377 C161 1.724 . S
C391 C92 1.236 . S
C395 C8 1.236 . S
C409 C22 1.235 . S
C413 C106 1.237 . S
C427 C120 1.239 . S
C431 C36 1.240 . S
C445 C134 1.235 . S
C449 C50 1.237 . S
C463 C64 1.239 . S
C467 C148 1.238 . S
C481 C162 1.240 . S
C485 C78 1.237 . S
C499 C9 1.076 . S
C503 C107 1.071 . S
C517 C121 1.076 . S
C521 C23 1.066 . S
C535 C135 1.064 . S
C539 C37 1.058 . S
C553 C51 1.076 . S
C557 C149 1.070 . S
C571 C163 1.062 . S
C575 C65 1.075 . S
C589 C93 1.071 . S
C593 C79 1.076 . S
