# Generated by pormake.
# Topology snz, (6)-cn, num edge types: 1
# Building blocks:
#     Node 0, Type 0, BuildingBlock: JUFBIX_clean_sbu_0, # of connection points: 6
#     Node 1, Type 0, BuildingBlock: JUFBIX_clean_sbu_0, # of connection points: 6
#     Node 2, Type 0, BuildingBlock: JUFBIX_clean_sbu_0, # of connection points: 6
#     Node 3, Type 0, BuildingBlock: JUFBIX_clean_sbu_0, # of connection points: 6
#     Node 4, Type 0, BuildingBlock: JUFBIX_clean_sbu_0, # of connection points: 6
#     Node 5, Type 0, BuildingBlock: JUFBIX_clean_sbu_0, # of connection points: 6
#     Node 6, Type 0, BuildingBlock: JUFBIX_clean_sbu_0, # of connection points: 6
#     Node 7, Type 0, BuildingBlock: JUFBIX_clean_sbu_0, # of connection points: 6
#     Node 8, Type 0, BuildingBlock: JUFBIX_clean_sbu_0, # of connection points: 6
#     Edge 9, Type (0, 0), BuildingBlock: TEMPAE_clean_linker_10, # of connection points: 2
#     Edge 10, Type (0, 0), BuildingBlock: TEMPAE_clean_linker_10, # of connection points: 2
#     Edge 11, Type (0, 0), BuildingBlock: TEMPAE_clean_linker_10, # of connection points: 2
#     Edge 12, Type (0, 0), BuildingBlock: TEMPAE_clean_linker_10, # of connection points: 2
#     Edge 13, Type (0, 0), BuildingBlock: TEMPAE_clean_linker_10, # of connection points: 2
#     Edge 14, Type (0, 0), BuildingBlock: TEMPAE_clean_linker_10, # of connection points: 2
#     Edge 15, Type (0, 0), BuildingBlock: TEMPAE_clean_linker_10, # of connection points: 2
#     Edge 16, Type (0, 0), BuildingBlock: TEMPAE_clean_linker_10, # of connection points: 2
#     Edge 17, Type (0, 0), BuildingBlock: TEMPAE_clean_linker_10, # of connection points: 2
#     Edge 18, Type (0, 0), BuildingBlock: TEMPAE_clean_linker_10, # of connection points: 2
#     Edge 19, Type (0, 0), BuildingBlock: TEMPAE_clean_linker_10, # of connection points: 2
#     Edge 20, Type (0, 0), BuildingBlock: TEMPAE_clean_linker_10, # of connection points: 2
#     Edge 21, Type (0, 0), BuildingBlock: TEMPAE_clean_linker_10, # of connection points: 2
#     Edge 22, Type (0, 0), BuildingBlock: TEMPAE_clean_linker_10, # of connection points: 2
#     Edge 23, Type (0, 0), BuildingBlock: TEMPAE_clean_linker_10, # of connection points: 2
#     Edge 24, Type (0, 0), BuildingBlock: TEMPAE_clean_linker_10, # of connection points: 2
#     Edge 25, Type (0, 0), BuildingBlock: TEMPAE_clean_linker_10, # of connection points: 2
#     Edge 26, Type (0, 0), BuildingBlock: TEMPAE_clean_linker_10, # of connection points: 2
#     Edge 27, Type (0, 0), BuildingBlock: TEMPAE_clean_linker_10, # of connection points: 2
#     Edge 28, Type (0, 0), BuildingBlock: TEMPAE_clean_linker_10, # of connection points: 2
#     Edge 29, Type (0, 0), BuildingBlock: TEMPAE_clean_linker_10, # of connection points: 2
#     Edge 30, Type (0, 0), BuildingBlock: TEMPAE_clean_linker_10, # of connection points: 2
#     Edge 31, Type (0, 0), BuildingBlock: TEMPAE_clean_linker_10, # of connection points: 2
#     Edge 32, Type (0, 0), BuildingBlock: TEMPAE_clean_linker_10, # of connection points: 2
#     Edge 33, Type (0, 0), BuildingBlock: TEMPAE_clean_linker_10, # of connection points: 2
#     Edge 34, Type (0, 0), BuildingBlock: TEMPAE_clean_linker_10, # of connection points: 2
#     Edge 35, Type (0, 0), BuildingBlock: TEMPAE_clean_linker_10, # of connection points: 2
# Relax obj value: 0.336
# Max RMSD: 0.272
# Mean RMSD: 0.226
data_MOF--net-snz--node1-JUFBIX_clean_sbu_0--edge1-TEMPAE_clean_linker_10
_symmetry_space_group_name_H-M    P1
_symmetry_Int_Tables_number       1
_symmetry_cell_setting            triclinic
loop_
_symmetry_equiv_pos_as_xyz
'x, y, z'
_cell_length_a     54.380938
_cell_length_b     58.912596
_cell_length_c     14.740794
_cell_angle_alpha  90.24891
_cell_angle_beta   90.232566
_cell_angle_gamma 120.25719
loop_
_atom_site_label
_atom_site_type_symbol
_atom_site_fract_x
_atom_site_fract_y
_atom_site_fract_z
_atom_type_partial_charge
Co0 Co 0.13828 0.5678 0.87139 0.0
C1 C 0.11096 0.54792 0.03416 0.0
Co2 Co 0.0997 0.52773 0.86513 0.0
C3 C 0.17709 0.61851 0.95272 0.0
C4 C 0.19378 0.612 0.83056 0.0
N5 N 0.17048 0.60115 0.88363 0.0
N6 N 0.20356 0.63951 0.94539 0.0
C7 C 0.21405 0.63558 0.86807 0.0
H8 H 0.16299 0.6156 0.00863 0.0
H9 H 0.19643 0.6029 0.77041 0.0
C10 C 0.12725 0.54702 0.70239 0.0
N11 N 0.06794 0.49366 0.85242 0.0
C12 C 0.06809 0.47098 0.83783 0.0
C13 C 0.0401 0.48643 0.84894 0.0
N14 N 0.04169 0.45016 0.82501 0.0
C15 C 0.02399 0.4598 0.83146 0.0
C16 C 0.0888 0.56895 0.83503 0.0
O17 O 0.1444 0.56734 0.74742 0.0
O18 O 0.10664 0.52771 0.74144 0.0
O19 O 0.07678 0.54397 0.84078 0.0
O20 O 0.11554 0.58296 0.84704 0.0
O21 O 0.09308 0.52784 -0.01052 0.0
H22 H 0.0319 0.49964 0.85712 0.0
H23 H 0.08721 0.46971 0.83343 0.0
O24 O 0.13136 0.5672 -0.00542 0.0
O25 O 0.16114 0.55278 0.89614 0.0
O26 O 0.12376 0.51313 0.8903 0.0
C27 C 0.15037 0.52811 0.90309 0.0
H28 H 0.23535 0.64818 0.84273 0.0
H29 H 1.00105 0.44838 0.82424 0.0
Co30 Co 0.62821 0.52396 0.94744 0.0
C31 C 0.62714 0.54715 0.78455 0.0
Co32 Co 0.6333 0.56362 0.95456 0.0
C33 C 0.60086 0.46656 0.93602 0.0
C34 C 0.6428 0.48664 0.88026 0.0
N35 N 0.62394 0.49083 0.926 0.0
N36 N 0.60462 0.4477 0.89715 0.0
C37 C 0.63105 0.4603 0.86274 0.0
H38 H 0.58104 0.46289 0.96578 0.0
H39 H 0.66323 0.50182 0.85588 0.0
C40 C 0.63592 0.54097 0.11716 0.0
N41 N 0.63889 0.59699 0.97426 0.0
C42 C 0.66039 0.61603 0.02368 0.0
C43 C 0.62261 0.60723 0.95014 0.0
N44 N 0.65827 0.63782 0.03259 0.0
C45 C 0.63442 0.63228 -0.0141 0.0
C46 C 0.57706 0.52354 0.96875 0.0
O47 O 0.62957 0.52028 0.07229 0.0
O48 O 0.63881 0.56121 0.0776 0.0
O49 O 0.59341 0.54832 0.97457 0.0
O50 O 0.58778 0.50906 0.95309 0.0
O51 O 0.62799 0.56576 0.83057 0.0
H52 H 0.60308 0.59693 0.9111 0.0
H53 H 0.67712 0.61359 0.05334 0.0
O54 O 0.62719 0.52804 0.82334 0.0
O55 O 0.66888 0.53979 0.94238 0.0
O56 O 0.673 0.5786 0.93438 0.0
C57 C 0.68453 0.56448 0.93323 0.0
H58 H 0.6408 0.4512 0.82453 0.0
H59 H 0.62548 0.64497 -0.02003 0.0
Co60 Co 0.66838 0.02045 0.19714 0.0
C61 C 0.67374 0.04464 0.36144 0.0
Co62 Co 0.66001 0.05346 0.1938 0.0
C63 C 0.69991 0.99442 0.23722 0.0
C64 C 0.65764 0.96711 0.19108 0.0
N65 N 0.67581 0.99299 0.20534 0.0
N66 N 0.69732 0.97052 0.24437 0.0
C67 C 0.67076 0.95322 0.21586 0.0
H68 H 0.71857 0.01251 0.25889 0.0
H69 H 0.63595 0.95878 0.167 0.0
C70 C 0.65544 0.02981 0.02932 0.0
N71 N 0.65343 0.08134 0.18779 0.0
C72 C 0.63327 0.0832 0.14009 0.0
C73 C 0.66933 0.10508 0.22732 0.0
N74 N 0.63603 0.10728 0.14778 0.0
C75 C 0.65879 0.12103 0.20285 0.0
C76 C 0.71627 0.06846 0.15762 0.0
O77 O 0.65954 0.01352 0.0733 0.0
O78 O 0.65466 0.04843 0.06994 0.0
O79 O 0.69938 0.07699 0.17294 0.0
O80 O 0.70711 0.04399 0.16519 0.0
O81 O 0.66558 0.05826 0.31841 0.0
H82 H 0.68786 0.11064 0.26951 0.0
H83 H 0.61708 0.06716 0.09999 0.0
O84 O 0.67736 0.02767 0.32016 0.0
O85 O 0.62916 0.9973 0.22813 0.0
O86 O 0.6207 0.02981 0.21297 0.0
C87 C 0.61168 1.0057 0.22888 0.0
H88 H 0.66147 0.93208 0.21424 0.0
H89 H 0.66791 0.14148 0.22195 0.0
Co90 Co 0.87972 0.90951 0.49673 0.0
C91 C 0.85362 0.88948 0.65862 0.0
Co92 Co 0.84108 0.86959 0.48765 0.0
C93 C 0.91424 0.96695 0.49933 0.0
C94 C 0.93692 0.94889 0.55158 0.0
N95 N 0.91217 0.94319 0.51061 0.0
N96 N 0.93887 0.98695 0.53309 0.0
C97 C 0.95324 0.97561 0.56551 0.0
H98 H 0.89726 0.96956 0.4728 0.0
H99 H 0.9422 0.93453 0.57543 0.0
C100 C 0.86812 0.88948 0.32617 0.0
N101 N 0.80827 0.83691 0.47661 0.0
C102 C 0.80221 0.81701 0.41808 0.0
C103 C 0.78372 0.82944 0.52059 0.0
N104 N 0.77469 0.79746 0.4232 0.0
C105 C 0.76315 0.80535 0.48813 0.0
C106 C 0.82981 0.91027 0.46268 0.0
O107 O 0.88527 0.90977 0.37178 0.0
O108 O 0.84756 0.86994 0.36448 0.0
O109 O 0.81898 0.88555 0.46537 0.0
O110 O 0.85632 0.92499 0.47762 0.0
O111 O 0.83545 0.86983 0.61297 0.0
H112 H 0.78061 0.84129 0.57038 0.0
H113 H 0.81761 0.81726 0.37125 0.0
O114 O 0.87411 0.90886 0.61996 0.0
O115 O 0.90201 0.8925 0.51591 0.0
O116 O 0.8632 0.85358 0.50788 0.0
C117 C 0.89001 0.86749 0.51866 0.0
H118 H 0.9736 0.98578 0.60029 0.0
H119 H 0.74105 0.79517 0.50817 0.0
Co120 Co 0.3484 0.86673 0.41784 0.0
C121 C 0.34383 0.88478 0.25321 0.0
Co122 Co 0.35443 0.90689 0.42202 0.0
C123 C 0.31935 0.81295 0.36372 0.0
C124 C 0.35386 0.82081 0.45311 0.0
N125 N 0.34048 0.83223 0.41349 0.0
N126 N 0.31895 0.78992 0.36967 0.0
C127 C 0.34071 0.79478 0.42603 0.0
H128 H 0.30509 0.8161 0.3212 0.0
H129 H 0.3722 0.83083 0.49756 0.0
C130 C 0.35966 0.88883 0.58633 0.0
N131 N 0.3622 0.94145 0.42181 0.0
C132 C 0.35637 0.95543 0.48228 0.0
C133 C 0.37736 0.95874 0.35638 0.0
N134 N 0.36724 0.98075 0.4564 0.0
C135 C 0.38048 0.98272 0.37724 0.0
C136 C 0.29868 0.86923 0.449 0.0
O137 O 0.35419 0.86824 0.54228 0.0
O138 O 0.36105 0.90846 0.54625 0.0
O139 O 0.31498 0.89402 0.44356 0.0
O140 O 0.30913 0.85437 0.4381 0.0
O141 O 0.34778 0.90488 0.2968 0.0
H142 H 0.38633 0.95438 0.29809 0.0
H143 H 0.34471 0.94725 0.54432 0.0
O144 O 0.34303 0.86564 0.294 0.0
O145 O 0.38784 0.8795 0.39754 0.0
O146 O 0.39388 0.91929 0.4016 0.0
C147 C 0.4042 0.90426 0.39259 0.0
H148 H 0.34684 0.78065 0.44594 0.0
H149 H 0.39268 1.00051 0.33862 0.0
Co150 Co 0.31848 0.38312 0.16413 0.0
C151 C 0.32671 0.40996 0.3268 0.0
Co152 Co 0.31262 0.41777 0.15832 0.0
C153 C 0.32103 0.3405 0.25094 0.0
C154 C 0.33308 0.344 0.11149 0.0
N155 N 0.32392 0.35448 0.17522 0.0
N156 N 0.32819 0.32191 0.23725 0.0
C157 C 0.33562 0.32393 0.14933 0.0
H158 H 0.31413 0.34407 0.31549 0.0
H159 H 0.33839 0.35098 0.04261 0.0
C160 C 0.3049 0.39164 -0.0047 0.0
N161 N 0.30657 0.4461 0.14651 0.0
C162 C 0.28231 0.44515 0.11872 0.0
C163 C 0.32576 0.47198 0.15475 0.0
N164 N 0.28574 0.4693 0.10849 0.0
C165 C 0.31306 0.48629 0.13065 0.0
C166 C 0.36808 0.4294 0.12241 0.0
O167 O 0.31029 0.37619 0.03935 0.0
O168 O 0.30403 0.41024 0.03568 0.0
O169 O 0.35219 0.4395 0.127 0.0
O170 O 0.35753 0.40502 0.13728 0.0
O171 O 0.3214 0.42535 0.28185 0.0
H172 H 0.34778 0.47999 0.17474 0.0
H173 H 0.26278 0.42713 0.1025 0.0
O174 O 0.32678 0.39083 0.28736 0.0
O175 O 0.27951 0.3613 0.19255 0.0
O176 O 0.27362 0.39546 0.19042 0.0
C177 C 0.26356 0.37105 0.20408 0.0
H178 H 0.34353 0.31251 0.11585 0.0
H179 H 0.3231 0.50749 0.12891 0.0
Co180 Co 0.47567 0.20449 0.76582 0.0
C181 C 0.42855 0.15488 0.73366 0.0
Co182 Co 0.43479 0.20415 0.75915 0.0
C183 C 0.51262 0.18553 0.82439 0.0
C184 C 0.53515 0.22135 0.75025 0.0
N185 N 0.50904 0.20365 0.77998 0.0
N186 N 0.54002 0.19119 0.82413 0.0
C187 C 0.55421 0.21383 0.77738 0.0
H188 H 0.49528 0.16851 0.85616 0.0
H189 H 0.54007 0.2388 0.71229 0.0
C190 C 0.4824 0.25371 0.79228 0.0
N191 N 0.40181 0.2056 0.74144 0.0
C192 C 0.40073 0.22415 0.69118 0.0
C193 C 0.37443 0.18798 0.75969 0.0
N194 N 0.37386 0.21874 0.67488 0.0
C195 C 0.35718 0.19601 0.71891 0.0
C196 C 0.44755 0.19785 0.92852 0.0
O197 O 0.49579 0.24128 0.78598 0.0
O198 O 0.4555 0.24127 0.78221 0.0
O199 O 0.42797 0.19838 0.88314 0.0
O200 O 0.46923 0.19973 0.88955 0.0
O201 O 0.41458 0.1669 0.73639 0.0
H202 H 0.36741 0.16983 0.79594 0.0
H203 H 0.41956 0.24087 0.66413 0.0
O204 O 0.45532 0.16783 0.7461 0.0
O205 O 0.482 0.2095 0.64141 0.0
O206 O 0.44201 0.2101 0.63586 0.0
C207 C 0.4635 0.21183 0.59654 0.0
H208 H 0.57687 0.22469 0.76516 0.0
H209 H 0.33415 0.18515 0.71786 0.0
Co210 Co 1.0106 0.22623 0.66537 0.0
C211 C 0.99472 0.26422 0.693 0.0
Co212 Co 0.96395 0.21008 0.67233 0.0
C213 C 0.06625 0.25839 0.58919 0.0
C214 C 0.0673 0.23523 0.6989 0.0
N215 N 0.04963 0.24078 0.65215 0.0
N216 N 0.09351 0.26392 0.59414 0.0
C217 C 0.09431 0.2495 0.66359 0.0
H218 H 0.05842 0.26686 0.53996 0.0
H219 H 0.06082 0.22124 0.75364 0.0
C220 C 0.97987 0.17211 0.64407 0.0
N221 N 0.92453 0.19463 0.68462 0.0
C222 C 0.90944 0.19087 0.76147 0.0
C223 C 0.90482 0.1801 0.62114 0.0
N224 N 0.88122 0.17415 0.74897 0.0
C225 C 0.87834 0.1676 0.66018 0.0
C226 C 0.98372 0.22162 0.50225 0.0
O227 O 1.00509 0.19161 0.65136 0.0
O228 O 0.95896 0.17601 0.65022 0.0
O229 O 0.96126 0.2144 0.5475 0.0
O230 O 1.00688 0.22748 0.54158 0.0
O231 O 0.96952 0.24446 0.69525 0.0
H232 H 0.90951 0.17719 0.55227 0.0
H233 H 0.91915 0.19929 0.8264 0.0
O234 O 0.01554 0.26057 0.67836 0.0
O235 O 0.01389 0.22453 0.79085 0.0
O236 O 0.96731 0.20583 0.79503 0.0
C237 C 0.99087 0.21368 0.83507 0.0
H238 H 0.11283 0.24857 0.6852 0.0
H239 H 0.85882 0.15331 0.62674 0.0
Co240 Co 0.96821 0.70367 0.68385 0.0
C241 C 0.97509 0.75382 0.66162 0.0
Co242 Co 1.01344 0.73632 0.68844 0.0
C243 C 0.91005 0.66331 0.73532 0.0
C244 C 0.91496 0.66982 0.59242 0.0
N245 N 0.92983 0.67699 0.67119 0.0
N246 N 0.88362 0.64809 0.69944 0.0
C247 C 0.88692 0.65224 0.60938 0.0
H248 H 0.91479 0.66509 0.80718 0.0
H249 H 0.92339 0.67779 0.52644 0.0
C250 C 1.00642 0.68608 0.71163 0.0
N251 N 0.05111 0.76344 0.69933 0.0
C252 C 0.0741 0.76763 0.65095 0.0
C253 C 0.06113 0.7839 0.75792 0.0
N254 N 0.098 0.78979 0.67747 0.0
C255 C 0.08989 0.8 0.74501 0.0
C256 C 0.98586 0.722 0.85263 0.0
O257 O 0.98001 0.67833 0.70178 0.0
O258 O 0.02466 0.71058 0.70741 0.0
O259 O 1.00887 0.73728 0.8125 0.0
O260 O 0.9641 0.70538 0.80853 0.0
O261 O 1.00148 0.76152 0.66966 0.0
H262 H 0.04827 0.78709 0.80638 0.0
H263 H 0.07336 0.7546 0.59762 0.0
O264 O 0.95699 0.72937 0.66624 0.0
O265 O 0.97352 0.7025 0.55952 0.0
O266 O 0.01778 0.73496 0.56448 0.0
C267 C 0.99663 0.71774 0.51988 0.0
H268 H 0.87003 0.64442 0.5591 0.0
H269 H 0.10367 0.81815 0.78113 0.0
C270 C 0.13896 0.57036 0.55677 0.0
C271 C 0.12891 0.54684 0.60411 0.0
C272 C 0.13609 0.57005 0.46271 0.0
C273 C 0.12351 0.54569 0.41615 0.0
C274 C 0.11479 0.52203 0.46324 0.0
C275 C 0.11731 0.52287 0.55748 0.0
C276 C 0.14536 0.59558 0.41374 0.0
C277 C 0.10217 0.49588 0.41445 0.0
C278 C 0.0903 0.54166 0.18755 0.0
C279 C 0.11294 0.54646 0.1314 0.0
C280 C 0.09344 0.54134 0.28164 0.0
C281 C 0.11939 0.54501 0.31786 0.0
C282 C 0.14182 0.54884 0.26042 0.0
C283 C 0.13843 0.54992 0.16741 0.0
C284 C 0.06941 0.53773 0.34221 0.0
C285 C 0.16942 0.55205 0.297 0.0
H286 H 0.14764 0.58883 0.59362 0.0
H287 H 0.10971 0.50475 0.59491 0.0
H288 H 0.16119 0.59865 0.36089 0.0
H289 H 0.12679 0.59474 0.37886 0.0
H290 H 0.15491 0.61282 0.46046 0.0
H291 H 0.0982 0.4796 0.46096 0.0
H292 H 0.08172 0.49119 0.38175 0.0
H293 H 0.11665 0.49683 0.35988 0.0
H294 H 0.07069 0.53895 0.1581 0.0
H295 H 0.15564 0.55323 0.12238 0.0
H296 H 0.07686 0.55511 0.38751 0.0
H297 H 0.0626 0.52036 0.38615 0.0
H298 H 0.05067 0.5351 0.30287 0.0
H299 H 0.18084 0.57049 0.33729 0.0
H300 H 0.18371 0.55271 0.24208 0.0
H301 H 0.16506 0.5356 0.34301 0.0
C302 C 0.65056 0.54334 0.64989 0.0
C303 C 0.63081 0.54918 0.68746 0.0
C304 C 0.65366 0.54318 0.55653 0.0
C305 C 0.63606 0.54844 0.5006 0.0
C306 C 0.61657 0.55509 0.5383 0.0
C307 C 0.61442 0.55572 0.63256 0.0
C308 C 0.67517 0.53674 0.51795 0.0
C309 C 0.59741 0.56055 0.47923 0.0
C310 C 0.65617 0.566 0.25777 0.0
C311 C 0.63857 0.54179 0.21506 0.0
C312 C 0.65596 0.56839 0.35157 0.0
C313 C 0.63742 0.54604 0.40244 0.0
C314 C 0.62031 0.52132 0.35993 0.0
C315 C 0.62131 0.51942 0.26585 0.0
C316 C 0.67496 0.59485 0.39581 0.0
C317 C 0.60028 0.4972 0.41337 0.0
H318 H 0.66351 0.53875 0.69385 0.0
H319 H 0.59925 0.56023 0.66313 0.0
H320 H 0.66399 0.51784 0.48009 0.0
H321 H 0.68926 0.55208 0.46927 0.0
H322 H 0.68861 0.53511 0.57155 0.0
H323 H 0.58404 0.56614 0.51963 0.0
H324 H 0.6103 0.57661 0.43116 0.0
H325 H 0.58321 0.54282 0.43817 0.0
H326 H 0.66966 0.58321 0.2175 0.0
H327 H 0.60758 0.50083 0.23179 0.0
H328 H 0.6886 0.59317 0.44841 0.0
H329 H 0.66179 0.60174 0.43032 0.0
H330 H 0.68888 0.60999 0.34609 0.0
H331 H 0.6123 0.49316 0.46558 0.0
H332 H 0.58854 0.47948 0.36951 0.0
H333 H 0.58459 0.50067 0.44945 0.0
C334 C 0.64472 0.00886 0.87715 0.0
C335 C 0.65849 0.0313 0.93175 0.0
C336 C 0.64837 0.011 0.78312 0.0
C337 C 0.66691 0.03596 0.74541 0.0
C338 C 0.68168 0.05843 0.80125 0.0
C339 C 0.67697 0.05584 0.89411 0.0
C340 C 0.63191 0.98686 0.72413 0.0
C341 C 0.70216 0.08517 0.76296 0.0
C342 C 0.69231 0.03863 0.50684 0.0
C343 C 0.67457 0.04539 0.45983 0.0
C344 C 0.69037 0.03581 0.60089 0.0
C345 C 0.66963 0.03909 0.64699 0.0
C346 C 0.65188 0.0462 0.59972 0.0
C347 C 0.65491 0.04969 0.50628 0.0
C348 C 0.7102 0.02912 0.65067 0.0
C349 C 0.6293 0.04948 0.64742 0.0
H350 H 0.63071 0.98995 0.9077 0.0
H351 H 0.68818 0.07301 0.93778 0.0
H352 H 0.61757 0.98969 0.67771 0.0
H353 H 0.6467 0.98378 0.68127 0.0
H354 H 0.61889 0.96886 0.76464 0.0
H355 H 0.71263 0.10039 0.81682 0.0
H356 H 0.71886 0.0842 0.72302 0.0
H357 H 0.69075 0.09149 0.7162 0.0
H358 H 0.70743 0.0353 0.4699 0.0
H359 H 0.6409 0.05448 0.46901 0.0
H360 H 0.69774 0.00995 0.6852 0.0
H361 H 0.72218 0.04412 0.70395 0.0
H362 H 0.72568 0.02802 0.60454 0.0
H363 H 0.61457 0.03118 0.68392 0.0
H364 H 0.61665 0.05418 0.59966 0.0
H365 H 0.63931 0.06548 0.69876 0.0
C366 C 0.88052 0.89092 0.79253 0.0
C367 C 0.85519 0.88758 0.75563 0.0
C368 C 0.88357 0.88979 0.88567 0.0
C369 C 0.86094 0.88599 0.9421 0.0
C370 C 0.83506 0.8822 0.90489 0.0
C371 C 0.8323 0.88262 0.81075 0.0
C372 C 0.91108 0.89311 0.92355 0.0
C373 C 0.81079 0.87851 0.96442 0.0
C374 C 0.85879 0.86496 0.18282 0.0
C375 C 0.87004 0.88911 0.22819 0.0
C376 C 0.85631 0.86368 0.08869 0.0
C377 C 0.86489 0.8871 0.04036 0.0
C378 C 0.87716 0.91166 0.08564 0.0
C379 C 0.8799 0.9124 0.17979 0.0
C380 C 0.84385 0.83731 0.04138 0.0
C381 C 0.88626 0.93692 0.03513 0.0
H382 H 0.8979 0.89428 0.74815 0.0
H383 H 0.8128 0.87996 0.78047 0.0
H384 H 0.92235 0.91164 0.96344 0.0
H385 H 0.90662 0.87677 0.97024 0.0
H386 H 0.92553 0.89368 0.86937 0.0
H387 H 0.79199 0.87539 0.92427 0.0
H388 H 0.80419 0.86142 0.00962 0.0
H389 H 0.8179 0.89608 0.00851 0.0
H390 H 0.85136 0.84701 0.22118 0.0
H391 H 0.88831 0.93097 0.21576 0.0
H392 H 0.85853 0.83803 -0.01207 0.0
H393 H 0.82352 0.83248 0.00744 0.0
H394 H 0.83969 0.82123 0.08909 0.0
H395 H 0.90222 0.93988 -0.0171 0.0
H396 H 0.89559 0.95435 0.08097 0.0
H397 H 0.86765 0.93574 -0.00065 0.0
C398 C 0.37692 0.9126 0.73171 0.0
C399 C 0.36119 0.88889 0.6844 0.0
C400 C 0.37588 0.91313 0.82607 0.0
C401 C 0.35806 0.88949 0.87216 0.0
C402 C 0.34257 0.86541 0.82464 0.0
C403 C 0.34467 0.86536 0.73069 0.0
C404 C 0.39331 0.9389 0.87614 0.0
C405 C 0.32303 0.83996 0.87258 0.0
C406 C 0.36768 0.88169 0.11877 0.0
C407 C 0.34684 0.88605 0.15617 0.0
C408 C 0.37247 0.88395 0.02596 0.0
C409 C 0.35522 0.88978 0.97038 0.0
C410 C 0.33416 0.89431 0.00812 0.0
C411 C 0.33057 0.89287 0.10197 0.0
C412 C 0.39568 0.87984 -0.0125 0.0
C413 C 0.31506 0.89994 0.94938 0.0
H414 H 0.38976 0.9307 0.69487 0.0
H415 H 0.3323 0.84712 0.69317 0.0
H416 H 0.37898 0.94447 0.9105 0.0
H417 H 0.4065 0.93686 0.92954 0.0
H418 H 0.40753 0.9551 0.83014 0.0
H419 H 0.31236 0.82302 0.82484 0.0
H420 H 0.3352 0.83561 0.92328 0.0
H421 H 0.30643 0.84181 0.90985 0.0
H422 H 0.38061 0.87704 0.16258 0.0
H423 H 0.31472 0.89643 0.13276 0.0
H424 H 0.40979 0.89646 0.94297 0.0
H425 H 0.38609 0.86172 0.94524 0.0
H426 H 0.40888 0.87799 0.04147 0.0
H427 H 0.32803 0.9175 0.90712 0.0
H428 H 0.30003 0.90333 -0.00995 0.0
H429 H 0.30256 0.88314 0.90243 0.0
C430 C 0.31399 0.42171 0.47346 0.0
C431 C 0.32834 0.41135 0.42572 0.0
C432 C 0.31029 0.41827 0.56712 0.0
C433 C 0.32175 0.40465 0.61328 0.0
C434 C 0.33757 0.3954 0.56605 0.0
C435 C 0.34048 0.39869 0.47227 0.0
C436 C 0.2932 0.42826 0.61602 0.0
C437 C 0.35059 0.38129 0.61386 0.0
C438 C 0.33211 0.41641 0.86446 0.0
C439 C 0.30869 0.39363 0.89784 0.0
C440 C 0.33699 0.41994 0.77167 0.0
C441 C 0.31747 0.4004 0.71146 0.0
C442 C 0.29376 0.37717 0.74496 0.0
C443 C 0.28982 0.37386 0.83892 0.0
C444 C 0.36286 0.4446 0.73825 0.0
C445 C 0.27241 0.3562 0.68166 0.0
H446 H 0.30428 0.43118 0.43703 0.0
H447 H 0.35156 0.39067 0.43492 0.0
H448 H 0.27419 0.41155 0.64722 0.0
H449 H 0.30606 0.44186 0.67173 0.0
H450 H 0.28602 0.4387 0.57001 0.0
H451 H 0.36478 0.37794 0.56869 0.0
H452 H 0.36305 0.39271 0.67413 0.0
H453 H 0.33345 0.36196 0.6382 0.0
H454 H 0.34676 0.43144 0.91145 0.0
H455 H 0.2718 0.35631 0.86614 0.0
H456 H 0.35611 0.45627 0.69718 0.0
H457 H 0.37571 0.43941 0.69367 0.0
H458 H 0.37665 0.45716 0.79481 0.0
H459 H 0.26274 0.36471 0.63671 0.0
H460 H 0.25511 0.33942 0.71883 0.0
H461 H 0.28323 0.34869 0.63743 0.0
C462 C 0.47625 0.20124 0.44861 0.0
C463 C 0.46493 0.21399 0.49854 0.0
C464 C 0.47298 0.19909 0.35456 0.0
C465 C 0.45866 0.21051 0.31092 0.0
C466 C 0.44848 0.22456 0.36081 0.0
C467 C 0.45158 0.22597 0.45477 0.0
C468 C 0.48382 0.1838 0.3024 0.0
C469 C 0.43381 0.23753 0.31534 0.0
C470 C 0.47331 0.22248 0.06301 0.0
C471 C 0.44885 0.20116 0.02576 0.0
C472 C 0.47631 0.2263 0.15632 0.0
C473 C 0.45455 0.20787 0.21261 0.0
C474 C 0.42948 0.18649 0.17512 0.0
C475 C 0.42671 0.18358 0.08085 0.0
C476 C 0.50291 0.24968 0.19451 0.0
C477 C 0.40617 0.16638 0.23447 0.0
H478 H 0.48625 0.19177 0.4834 0.0
H479 H 0.44299 0.23592 0.49433 0.0
H480 H 0.46584 0.16694 0.26668 0.0
H481 H 0.49915 0.19641 0.24997 0.0
H482 H 0.49449 0.17617 0.34709 0.0
H483 H 0.42796 0.24838 0.36438 0.0
H484 H 0.44786 0.25146 0.26299 0.0
H485 H 0.41417 0.2225 0.28032 0.0
H486 H 0.49009 0.23622 0.01876 0.0
H487 H 0.40788 0.16723 0.05042 0.0
H488 H 0.5154 0.24285 0.23368 0.0
H489 H 0.49719 0.26094 0.24193 0.0
H490 H 0.51672 0.26314 0.14058 0.0
H491 H 0.41473 0.15638 0.27691 0.0
H492 H 0.38784 0.15128 0.19421 0.0
H493 H 0.39842 0.17617 0.28125 0.0
C494 C 0.97019 0.22936 0.35041 0.0
C495 C 0.9824 0.2184 0.40511 0.0
C496 C 0.97127 0.22761 0.25616 0.0
C497 C 0.98409 0.21397 0.21838 0.0
C498 C 0.9952 0.20185 0.27414 0.0
C499 C 0.99451 0.20452 0.36748 0.0
C500 C 0.95957 0.24093 0.19719 0.0
C501 C 1.00828 0.18657 0.23542 0.0
C502 C 0.96667 0.19235 0.97609 0.0
C503 C 0.99099 0.21189 0.93297 0.0
C504 C 0.96431 0.19252 0.06991 0.0
C505 C 0.98669 0.21294 0.12027 0.0
C506 C 1.01171 0.23227 0.07736 0.0
C507 C 0.0137 0.23134 -0.01664 0.0
C508 C 0.93778 0.17121 0.11482 0.0
C509 C 0.03582 0.25437 0.13029 0.0
H510 H 0.96087 0.24001 0.38117 0.0
H511 H 1.00347 0.19574 0.41141 0.0
H512 H 0.97688 0.25613 0.15513 0.0
H513 H 0.94314 0.22646 0.15004 0.0
H514 H 0.94999 0.25043 0.23772 0.0
H515 H 0.01401 0.17679 0.28896 0.0
H516 H 0.99329 0.17137 0.18695 0.0
H517 H 0.02781 0.19996 0.1973 0.0
H518 H 0.94925 0.17724 0.93616 0.0
H519 H 0.03231 0.24652 0.94902 0.0
H520 H 0.92707 0.18003 0.15292 0.0
H521 H 0.94359 0.16058 0.16456 0.0
H522 H 0.92238 0.15676 0.06508 0.0
H523 H 0.02792 0.26599 0.16643 0.0
H524 H 0.05376 0.26779 0.08606 0.0
H525 H 0.04402 0.2463 0.18244 0.0
C526 C 0.97997 0.69324 0.37612 0.0
C527 C 0.99766 0.71684 0.42194 0.0
C528 C 0.97793 0.69272 0.28192 0.0
C529 C 0.99345 0.71652 0.23427 0.0
C530 C 1.01191 0.74029 0.28016 0.0
C531 C 0.0141 0.74009 0.37422 0.0
C532 C 0.95878 0.66697 0.23373 0.0
C533 C 0.02845 0.76602 0.23039 0.0
C534 C 1.008 0.71624 -0.01292 0.0
C535 C 0.9867 0.72001 0.94966 0.0
C536 C 1.00981 0.7141 0.08028 0.0
C537 C 0.99032 0.71666 0.13606 0.0
C538 C 0.96856 0.72028 0.09832 0.0
C539 C 0.96668 0.72146 0.00419 0.0
C540 C 0.03265 0.7094 0.1189 0.0
C541 C 0.94789 0.72357 0.15724 0.0
H542 H 0.96746 0.6753 0.41409 0.0
H543 H 0.02752 0.75832 0.41066 0.0
H544 H 0.94101 0.66778 0.19969 0.0
H545 H 0.9708 0.66345 0.18027 0.0
H546 H 0.94965 0.65004 0.2809 0.0
H547 H 0.04188 0.78269 0.27683 0.0
H548 H 0.04238 0.76455 0.17882 0.0
H549 H 1.01349 0.77046 0.1939 0.0
H550 H 0.02303 0.71465 0.94306 0.0
H551 H 0.95025 0.72425 0.97342 0.0
H552 H 0.02304 0.69218 0.16462 0.0
H553 H 0.04794 0.72665 0.16 0.0
H554 H 0.04464 0.70591 0.06508 0.0
H555 H 0.93621 0.70624 0.20163 0.0
H556 H 0.93217 0.72607 0.11662 0.0
H557 H 0.95974 0.74101 0.20212 0.0
C558 C 0.23803 0.46434 0.11604 0.0
C559 C 0.26494 0.47564 0.07609 0.0
C560 C 0.21803 0.47139 0.08798 0.0
C561 C 0.22481 0.48946 0.01603 0.0
C562 C 0.25167 0.50012 0.9733 0.0
C563 C 0.27159 0.49344 0.00501 0.0
C564 C 0.19011 0.46027 0.13749 0.0
C565 C 0.25948 0.51881 0.8947 0.0
C566 C 0.16477 0.4938 0.89721 0.0
C567 C 0.16857 0.51747 0.93257 0.0
C568 C 0.18298 0.4844 0.92333 0.0
C569 C 0.20467 0.49852 -0.01104 0.0
C570 C 0.20776 0.52193 0.02717 0.0
C571 C 0.19008 0.53137 -0.00284 0.0
C572 C 0.17952 0.45982 0.87897 0.0
C573 C 0.22982 0.5371 0.0997 0.0
H574 H 0.23309 0.45068 0.17135 0.0
H575 H 0.29234 0.50189 0.97371 0.0
H576 H 0.18851 0.47648 0.17021 0.0
H577 H 0.17203 0.45036 0.08905 0.0
H578 H 0.18781 0.44598 0.19047 0.0
H579 H 0.28006 0.52341 0.86368 0.0
H580 H 0.24259 0.51028 0.84171 0.0
H581 H 0.26114 0.53746 0.91808 0.0
H582 H 0.14816 0.48309 0.84711 0.0
H583 H 0.1928 0.54953 0.02542 0.0
H584 H 0.17592 0.44496 0.93111 0.0
H585 H 0.19937 0.46446 0.84283 0.0
H586 H 0.1615 0.45102 0.82975 0.0
H587 H 0.22774 0.52385 0.15617 0.0
H588 H 0.22788 0.55366 0.12768 0.0
H589 H 0.25148 0.54512 0.07135 0.0
C590 C 0.69616 0.66138 0.14876 0.0
C591 C 0.67678 0.6613 0.08496 0.0
C592 C 0.71385 0.68379 0.20116 0.0
C593 C 0.71183 0.70666 0.1914 0.0
C594 C 0.69257 0.70692 0.1271 0.0
C595 C 0.67551 0.68438 0.0742 0.0
C596 C 0.73434 0.68279 0.2683 0.0
C597 C 0.68949 0.73083 0.11563 0.0
C598 C 0.73337 0.75313 0.39356 0.0
C599 C 0.75979 0.77419 0.36653 0.0
C600 C 0.71759 0.73119 0.33713 0.0
C601 C 0.7287 0.7298 0.25202 0.0
C602 C 0.75569 0.75051 0.22508 0.0
C603 C 0.77081 0.77253 0.28224 0.0
C604 C 0.68878 0.70962 0.36818 0.0
C605 C 0.7685 0.74953 0.13548 0.0
H606 H 0.69733 0.64382 0.15959 0.0
H607 H 0.66109 0.68493 0.02471 0.0
H608 H 0.75615 0.69957 0.25751 0.0
H609 H 0.72812 0.68455 0.3384 0.0
H610 H 0.73487 0.66422 0.26288 0.0
H611 H 0.67399 0.72811 0.06131 0.0
H612 H 0.6823 0.73525 0.18027 0.0
H613 H 0.71037 0.74822 0.09915 0.0
H614 H 0.7248 0.75374 0.45901 0.0
H615 H 0.79099 0.78861 0.25971 0.0
H616 H 0.68855 0.69071 0.37186 0.0
H617 H 0.67216 0.70696 0.31835 0.0
H618 H 0.68297 0.71386 0.43575 0.0
H619 H 0.76982 0.73136 0.13099 0.0
H620 H 0.79013 0.76677 0.12588 0.0
H621 H 0.75464 0.74884 0.07886 0.0
C622 C 0.57269 0.96667 0.30837 0.0
C623 C 0.58122 0.98792 0.24939 0.0
C624 C 0.54399 0.95102 0.33358 0.0
C625 C 0.52327 0.95629 0.29671 0.0
C626 C 0.53171 0.97708 0.23417 0.0
C627 C 0.56061 0.99288 0.21245 0.0
C628 C 0.53602 0.92954 0.40232 0.0
C629 C 0.51027 0.98296 0.19133 0.0
C630 C 0.44421 0.90504 0.30699 0.0
C631 C 0.43485 0.91582 0.37401 0.0
C632 C 0.47305 0.91773 0.28185 0.0
C633 C 0.49304 0.94122 0.32711 0.0
C634 C 0.48375 0.95138 0.39798 0.0
C635 C 0.45469 0.93884 0.41929 0.0
C636 C 0.48187 0.90671 0.20408 0.0
C637 C 0.5044 0.9759 0.44985 0.0
H638 H 0.58863 0.96292 0.33752 0.0
H639 H 0.56711 0.00916 0.16619 0.0
H640 H 0.52783 0.93414 0.4644 0.0
H641 H 0.51871 0.91053 0.37528 0.0
H642 H 0.55437 0.92717 0.42154 0.0
H643 H 0.51989 0.99821 0.138 0.0
H644 H 0.49246 0.96484 0.16073 0.0
H645 H 0.50108 0.98995 0.24403 0.0
H646 H 0.42876 0.88739 0.27126 0.0
H647 H 0.44742 0.94708 0.47145 0.0
H648 H 0.49974 0.90387 0.22506 0.0
H649 H 0.48958 0.9209 0.14726 0.0
H650 H 0.46406 0.88766 0.17884 0.0
H651 H 0.52276 0.97427 0.47443 0.0
H652 H 0.49428 0.97964 0.50894 0.0
H653 H 0.51289 0.99315 0.40439 0.0
C654 C 0.60339 0.10451 0.02448 0.0
C655 C 0.6195 0.117 0.10277 0.0
C656 C 0.58848 0.11466 0.97783 0.0
C657 C 0.59003 0.13808 0.0093 0.0
C658 C 0.60574 0.15051 0.08901 0.0
C659 C 0.62001 0.1397 0.13511 0.0
C660 C 0.57155 0.10062 0.89381 0.0
C661 C 0.60806 0.17562 0.12453 0.0
C662 C 0.57905 0.18144 0.84382 0.0
C663 C 0.55186 0.17673 0.86731 0.0
C664 C 0.59148 0.16867 0.88842 0.0
C665 C 0.57622 0.1503 0.95726 0.0
C666 C 0.54842 0.14469 -0.02066 0.0
C667 C 0.53669 0.15811 0.93479 0.0
C668 C 0.62129 0.17536 0.86336 0.0
C669 C 0.5313 0.12491 0.05149 0.0
H670 H 0.60289 0.08713 -0.00194 0.0
H671 H 0.63174 0.14925 0.19643 0.0
H672 H 0.54946 0.09686 0.89933 0.0
H673 H 0.5812 0.1132 0.83359 0.0
H674 H 0.57072 0.0816 0.88212 0.0
H675 H 0.62079 0.18264 0.1882 0.0
H676 H 0.61817 0.19126 0.0728 0.0
H677 H 0.58656 0.17263 0.13757 0.0
H678 H 0.59085 0.19526 0.79076 0.0
H679 H 0.51584 0.1543 0.95464 0.0
H680 H 0.62151 0.1573 0.84322 0.0
H681 H 0.63562 0.18387 0.92313 0.0
H682 H 0.63006 0.18963 0.80682 0.0
H683 H 0.53053 0.10602 0.0379 0.0
H684 H 0.50915 0.12115 0.05536 0.0
H685 H 0.54169 0.13216 0.11865 0.0
C686 C 0.02401 0.31286 0.67066 0.0
C687 C 1.00017 0.29129 0.70911 0.0
C688 C 0.03016 0.33873 0.68735 0.0
C689 C 1.01257 0.34331 0.74633 0.0
C690 C 0.98849 0.32158 0.78564 0.0
C691 C 0.98234 0.29582 0.76544 0.0
C692 C 0.05554 0.36119 0.64186 0.0
C693 C 0.96963 0.32555 0.85081 0.0
C694 C 0.04653 0.41145 0.85581 0.0
C695 C 0.03415 0.42337 0.80598 0.0
C696 C 0.03918 0.38524 0.83867 0.0
C697 C 0.01967 0.37085 0.76781 0.0
C698 C 1.00741 0.383 0.71648 0.0
C699 C 0.01444 0.40895 0.7372 0.0
C700 C 0.05216 0.3729 0.89679 0.0
C701 C 0.98728 0.36876 0.63851 0.0
H702 H 0.03779 0.30947 0.62664 0.0
H703 H 0.96405 0.27925 0.79606 0.0
H704 H 0.04884 0.37347 0.6042 0.0
H705 H 0.07137 0.37399 0.69374 0.0
H706 H 0.06611 0.35426 0.59388 0.0
H707 H 0.95192 0.30665 0.87633 0.0
H708 H 0.98244 0.33761 0.90959 0.0
H709 H 0.96046 0.33645 0.81726 0.0
H710 H 0.06159 0.42256 0.90946 0.0
H711 H 1.00511 0.41828 0.69812 0.0
H712 H 0.0653 0.36754 0.85439 0.0
H713 H 0.03511 0.35451 0.92733 0.0
H714 H 0.06578 0.38625 0.95212 0.0
H715 H 0.99794 0.36272 0.58777 0.0
H716 H 0.97995 0.3811 0.6043 0.0
H717 H 0.96838 0.35061 0.66305 0.0
C718 C 0.85359 0.63863 0.83667 0.0
C719 C 0.8567 0.63319 0.74588 0.0
C720 C 0.82668 0.62636 0.87819 0.0
C721 C 0.80223 0.6086 0.82734 0.0
C722 C 0.80539 0.60215 0.73725 0.0
C723 C 0.83254 0.61417 0.69833 0.0
C724 C 0.82427 0.63323 0.97525 0.0
C725 C 0.77991 0.5835 0.68012 0.0
C726 C 0.72964 0.56258 0.92969 0.0
C727 C 0.7154 0.57656 0.91491 0.0
C728 C 0.75844 0.57333 0.90609 0.0
C729 C 0.77308 0.59835 0.86471 0.0
C730 C 0.75896 0.61278 0.85181 0.0
C731 C 0.73044 0.60184 0.8779 0.0
C732 C 0.77293 0.55761 0.92305 0.0
C733 C 0.77356 0.63931 0.80644 0.0
H734 H 0.87192 0.65319 0.87454 0.0
H735 H 0.83463 0.60909 0.62932 0.0
H736 H 0.81398 0.64538 0.97704 0.0
H737 H 0.81069 0.61515 0.01455 0.0
H738 H 0.8454 0.64437 0.00922 0.0
H739 H 0.78609 0.57977 0.61234 0.0
H740 H 0.76735 0.56443 0.71513 0.0
H741 H 0.76576 0.59181 0.67032 0.0
H742 H 0.71821 0.54311 0.95886 0.0
H743 H 0.71959 0.61276 0.86598 0.0
H744 H 0.79381 0.57002 0.95709 0.0
H745 H 0.77708 0.55091 0.85746 0.0
H746 H 0.75982 0.54008 0.96554 0.0
H747 H 0.79378 0.65282 0.84216 0.0
H748 H 0.76005 0.64849 0.805 0.0
H749 H 0.77898 0.63714 0.73563 0.0
C750 C 0.03921 0.67382 0.78828 0.0
C751 C 0.01596 0.66692 0.73024 0.0
C752 C 0.04866 0.65604 0.80695 0.0
C753 C 0.03522 0.631 0.76402 0.0
C754 C 1.01171 0.62396 0.70518 0.0
C755 C 1.00204 0.64182 0.69031 0.0
C756 C 0.07321 0.66417 0.87225 0.0
C757 C 0.99733 0.59789 0.65567 0.0
C758 C 0.08286 0.60108 0.74234 0.0
C759 C 0.07264 0.58221 0.81112 0.0
C760 C 0.06997 0.61609 0.72352 0.0
C761 C 0.04689 0.61293 0.77712 0.0
C762 C 0.03619 0.59356 0.84601 0.0
C763 C 0.04893 0.5781 0.86121 0.0
C764 C 0.08157 0.63581 0.64756 0.0
C765 C 1.01222 0.59003 0.90652 0.0
H766 H 0.0498 0.69308 0.82026 0.0
H767 H 0.98413 0.63645 0.64512 0.0
H768 H 0.06744 0.64892 0.92491 0.0
H769 H 0.09188 0.66603 0.83545 0.0
H770 H 0.07958 0.68323 0.90633 0.0
H771 H 0.97897 0.59511 0.61381 0.0
H772 H 1.01289 0.59656 0.61073 0.0
H773 H 0.98974 0.58153 0.7047 0.0
H774 H 0.1012 0.60422 0.70344 0.0
H775 H 0.04126 0.56375 0.9152 0.0
H776 H 0.09184 0.65603 0.67607 0.0
H777 H 0.06401 0.63331 0.60226 0.0
H778 H 0.09751 0.63392 0.60632 0.0
H779 H 0.01915 0.60826 0.94679 0.0
H780 H 1.00543 0.57334 0.95396 0.0
H781 H 0.99358 0.58667 0.86516 0.0
C782 C 0.56532 0.40555 0.95338 0.0
C783 C 0.58386 0.42035 0.88372 0.0
C784 C 0.54664 0.37834 0.94258 0.0
C785 C 0.54626 0.3659 0.8596 0.0
C786 C 0.56408 0.38108 0.78778 0.0
C787 C 0.58276 0.40804 0.80098 0.0
C788 C 0.52815 0.36277 0.02097 0.0
C789 C 0.56401 0.36872 0.69769 0.0
C790 C 0.52566 0.29409 0.84934 0.0
C791 C 0.49802 0.28222 0.813 0.0
C792 C 0.54109 0.32114 0.86825 0.0
C793 C 0.52878 0.33682 0.84904 0.0
C794 C 0.50069 0.32488 0.8137 0.0
C795 C 0.48555 0.29766 0.79672 0.0
C796 C 0.57085 0.33302 0.90694 0.0
C797 C 0.487 0.34099 0.79115 0.0
H798 H 0.56624 0.4151 0.01732 0.0
H799 H 0.59668 0.41959 0.74641 0.0
H800 H 0.50561 0.35088 -0.00126 0.0
H801 H 0.53482 0.34887 0.04534 0.0
H802 H 0.52951 0.37558 0.07858 0.0
H803 H 0.5776 0.38358 0.64674 0.0
H804 H 0.57193 0.35482 0.70708 0.0
H805 H 0.54201 0.3573 0.67024 0.0
H806 H 0.5353 0.28222 0.86316 0.0
H807 H 0.46418 0.28857 0.76865 0.0
H808 H 0.573 0.34467 0.96886 0.0
H809 H 0.58646 0.34664 0.85696 0.0
H810 H 0.5765 0.31787 0.92437 0.0
H811 H 0.48786 0.35291 0.85081 0.0
H812 H 0.46444 0.32856 0.76927 0.0
H813 H 0.49895 0.35487 0.73581 0.0
C814 C 0.86648 0.16141 0.90876 0.0
C815 C 0.85937 0.1623 0.81749 0.0
C816 C 0.84529 0.14804 0.97418 0.0
C817 C 0.81627 0.13475 0.94761 0.0
C818 C 0.80892 0.13609 0.85632 0.0
C819 C 0.83048 0.15002 0.79284 0.0
C820 C 0.85414 0.14742 0.0709 0.0
C821 C 0.77822 0.12224 0.82507 0.0
C822 C 0.75989 0.07569 0.07592 0.0
C823 C 0.74466 0.08617 0.11803 0.0
C824 C 0.78405 0.09156 0.02351 0.0
C825 C 0.79341 0.11862 0.01373 0.0
C826 C 0.77925 0.12964 0.061 0.0
C827 C 0.75496 0.11327 0.11213 0.0
C828 C 0.79855 0.07903 0.97431 0.0
C829 C 0.78899 0.15852 0.05417 0.0
H830 H 0.88859 0.17045 0.92915 0.0
H831 H 0.82462 0.15097 0.72331 0.0
H832 H 0.83986 0.14945 0.11964 0.0
H833 H 0.85274 0.12826 0.08364 0.0
H834 H 0.87636 0.16327 0.0847 0.0
H835 H 0.77602 0.12536 0.7519 0.0
H836 H 0.7682 0.1008 0.83703 0.0
H837 H 0.76613 0.12935 0.86487 0.0
H838 H 0.7521 0.05478 0.07992 0.0
H839 H 0.74344 0.12159 0.14487 0.0
H840 H 0.82179 0.09014 -0.01178 0.0
H841 H 0.79554 0.07969 0.90005 0.0
H842 H 0.79003 0.05823 -0.00581 0.0
H843 H 0.81222 0.17054 0.06766 0.0
H844 H 0.77765 0.16455 0.10243 0.0
H845 H 0.78513 0.16301 -0.01569 0.0
C846 C 0.71077 0.94723 0.35362 0.0
C847 C 0.71792 0.96457 0.2809 0.0
C848 C 0.7304 0.94065 0.38867 0.0
C849 C 0.75745 0.95092 0.34762 0.0
C850 C 0.76482 0.9687 0.27446 0.0
C851 C 0.74508 0.97567 0.24302 0.0
C852 C 0.72197 0.92227 0.46843 0.0
C853 C 0.793 0.9794 0.22677 0.0
C854 C 0.81621 0.94517 0.46912 0.0
C855 C 0.81194 0.92131 0.43389 0.0
C856 C 0.79853 0.95507 0.44228 0.0
C857 C 0.7769 0.94125 0.37625 0.0
C858 C 0.77323 0.91759 0.33857 0.0
C859 C 0.79043 0.9077 0.36903 0.0
C860 C 0.80255 0.97994 0.48601 0.0
C861 C 0.75113 0.90267 0.26583 0.0
H862 H 0.68979 0.93897 0.38319 0.0
H863 H 0.75038 0.98902 0.18651 0.0
H864 H 0.71968 0.90327 0.44644 0.0
H865 H 0.7388 0.93066 0.52161 0.0
H866 H 0.70154 0.91838 0.4987 0.0
H867 H 0.796 0.99395 0.17391 0.0
H868 H 0.81083 0.98886 0.27626 0.0
H869 H 0.79426 0.96301 0.19414 0.0
H870 H 0.83285 0.95568 0.51932 0.0
H871 H 0.7874 0.88944 0.34063 0.0
H872 H 0.78272 0.97578 0.52123 0.0
H873 H 0.80674 0.99488 0.43355 0.0
H874 H 0.8204 0.9884 0.53587 0.0
H875 H 0.7295 0.89536 0.29346 0.0
H876 H 0.75239 0.88563 0.23907 0.0
H877 H 0.75386 0.9159 0.2086 0.0
C878 C 0.30954 0.74839 0.29611 0.0
C879 C 0.30046 0.76611 0.31953 0.0
C880 C 0.29279 0.72652 0.24001 0.0
C881 C 0.26639 0.72231 0.20612 0.0
C882 C 0.25661 0.73953 0.23227 0.0
C883 C 0.27368 0.76109 0.28893 0.0
C884 C 0.30382 0.70845 0.21433 0.0
C885 C 0.22856 0.7357 0.19793 0.0
C886 C 0.23959 0.68542 -0.01776 0.0
C887 C 0.21863 0.6604 0.01076 0.0
C888 C 0.25514 0.70573 0.04512 0.0
C889 C 0.24979 0.70086 0.13906 0.0
C890 C 0.22858 0.67567 0.1684 0.0
C891 C 0.2132 0.65576 0.10387 0.0
C892 C 0.27734 0.73241 0.01097 0.0
C893 C 0.22237 0.66963 0.26793 0.0
H894 H 0.33021 0.75212 0.31886 0.0
H895 H 0.26613 0.77426 0.30834 0.0
H896 H 0.28746 0.68771 0.22773 0.0
H897 H 0.30839 0.71006 0.1406 0.0
H898 H 0.32358 0.71315 0.25205 0.0
H899 H 0.22329 0.74999 0.22856 0.0
H900 H 0.22936 0.73802 0.12315 0.0
H901 H 0.21109 0.71552 0.21288 0.0
H902 H 0.24365 0.68915 0.91041 0.0
H903 H 0.19737 0.63636 0.12651 0.0
H904 H 0.29852 0.73781 0.03955 0.0
H905 H 0.27229 0.74754 0.03407 0.0
H906 H 0.27877 0.73303 0.93578 0.0
H907 H 0.2418 0.67268 0.30373 0.0
H908 H 0.20496 0.64913 0.27951 0.0
H909 H 0.2163 0.68327 0.29904 0.0
C910 C 0.52673 0.48715 0.94557 0.0
C911 C 0.54607 0.51156 -0.0156 0.0
C912 C 0.4974 0.47508 0.96323 0.0
C913 C 0.48727 0.48728 0.02366 0.0
C914 C 0.50674 0.51204 0.06249 0.0
C915 C 0.53582 0.52406 0.04127 0.0
C916 C 0.47732 0.44904 0.91839 0.0
C917 C 0.49704 0.52535 0.12936 0.0
C918 C 0.40788 0.46425 0.03109 0.0
C919 C 0.39861 0.44549 0.10008 0.0
C920 C 0.43664 0.47788 0.00468 0.0
C921 C 0.45668 0.47332 0.05082 0.0
C922 C 0.44742 0.45499 0.12266 0.0
C923 C 0.41844 0.44095 0.14514 0.0
C924 C 0.44542 0.49656 0.92579 0.0
C925 C 0.46811 0.45007 0.1756 0.0
H926 H 0.53453 0.4775 0.90109 0.0
H927 H 0.55073 0.54283 0.07205 0.0
H928 H 0.46813 0.43338 0.97024 0.0
H929 H 0.45936 0.44983 0.88557 0.0
H930 H 0.48811 0.44346 0.86649 0.0
H931 H 0.51467 0.54492 0.15142 0.0
H932 H 0.47986 0.52786 0.09909 0.0
H933 H 0.48808 0.51282 0.19014 0.0
H934 H 0.39246 0.46753 -0.00445 0.0
H935 H 0.41126 0.42649 0.19878 0.0
H936 H 0.45473 0.49007 0.87177 0.0
H937 H 0.46212 0.51653 0.94758 0.0
H938 H 0.42724 0.49774 0.89654 0.0
H939 H 0.47756 0.44145 0.13036 0.0
H940 H 0.45779 0.43651 0.2333 0.0
H941 H 0.48583 0.4689 0.20243 0.0
C942 C 0.93904 0.76806 0.6784 0.0
C943 C 0.96537 0.77292 0.64515 0.0
C944 C 0.92895 0.78541 0.66076 0.0
C945 C 0.94507 0.80773 0.60565 0.0
C946 C 0.97178 0.81278 0.5722 0.0
C947 C 0.98181 0.79556 0.59364 0.0
C948 C 0.9008 0.77961 0.70013 0.0
C949 C 0.98923 0.8358 0.51089 0.0
C950 C 0.90064 0.83189 0.48444 0.0
C951 C 0.90654 0.8542 0.53554 0.0
C952 C 0.91409 0.8174 0.50394 0.0
C953 C 0.93308 0.82474 0.57886 0.0
C954 C 0.9393 0.84747 0.6303 0.0
C955 C 0.92632 0.86222 0.60697 0.0
C956 C 0.90746 0.79386 0.4454 0.0
C957 C 0.95862 0.85553 0.7124 0.0
H958 H 0.92636 0.75069 0.71887 0.0
H959 H 1.00208 0.79928 0.56715 0.0
H960 H 0.90317 0.79724 0.73583 0.0
H961 H 0.88498 0.77467 0.64478 0.0
H962 H 0.89222 0.76297 0.74847 0.0
H963 H 1.00993 0.83754 0.49291 0.0
H964 H 0.97713 0.83356 0.44743 0.0
H965 H 0.99339 0.85437 0.5439 0.0
H966 H 0.88536 0.82571 0.42908 0.0
H967 H 0.93056 0.87927 0.64732 0.0
H968 H 0.89555 0.77561 0.48538 0.0
H969 H 0.92747 0.79499 0.42263 0.0
H970 H 0.89451 0.79232 0.38469 0.0
H971 H 0.94925 0.83978 0.76399 0.0
H972 H 0.96199 0.8741 0.74358 0.0
H973 H 0.97961 0.8581 0.69375 0.0
C974 C 0.43155 0.11514 0.69463 0.0
C975 C 0.41464 0.12653 0.7101 0.0
C976 C 0.41965 0.08928 0.66265 0.0
C977 C 0.38994 0.07409 0.64697 0.0
C978 C 0.37244 0.08487 0.6676 0.0
C979 C 0.38504 0.1111 0.69813 0.0
C980 C 0.43921 0.07876 0.64073 0.0
C981 C 0.3406 0.06907 0.65404 0.0
C982 C 0.37208 0.02466 0.45753 0.0
C983 C 0.36765 1.00231 0.50498 0.0
C984 C 0.37771 0.04771 0.50319 0.0
C985 C 0.37816 0.04831 0.59915 0.0
C986 C 0.37112 0.02512 0.6477 0.0
C987 C 0.36619 1.00241 0.60005 0.0
C988 C 0.38528 0.07197 0.44841 0.0
C989 C 0.37051 0.02474 0.75001 0.0
H990 H 0.45442 0.12679 0.70413 0.0
H991 H 0.37178 0.11965 0.71075 0.0
H992 H 0.43193 0.05974 0.67519 0.0
H993 H 0.43866 0.0751 0.56661 0.0
H994 H 0.46161 0.09256 0.6614 0.0
H995 H 0.32966 0.07845 0.68749 0.0
H996 H 0.33552 0.06718 0.58047 0.0
H997 H 0.33192 0.04892 0.6811 0.0
H998 H 0.37228 0.02453 0.38411 0.0
H999 H 0.36262 0.98526 0.63755 0.0
H1000 H 0.408 0.0869 0.46012 0.0
H1001 H 0.37242 0.08079 0.4703 0.0
H1002 H 0.38188 0.06772 0.37447 0.0
H1003 H 0.39263 0.03506 0.77692 0.0
H1004 H 0.35944 1.00436 0.77659 0.0
H1005 H 0.35979 0.03519 0.77626 0.0
C1006 C 0.11084 0.28231 0.44192 0.0
C1007 C 0.11642 0.28023 0.53364 0.0
C1008 C 0.13305 0.29721 0.38136 0.0
C1009 C 0.16153 0.31054 0.41344 0.0
C1010 C 0.16726 0.30895 0.50635 0.0
C1011 C 0.14465 0.2937 0.56514 0.0
C1012 C 0.12608 0.2982 0.28271 0.0
C1013 C 0.19733 0.32312 0.54352 0.0
C1014 C 0.22367 0.32782 0.25661 0.0
C1015 C 0.23506 0.35492 0.2451 0.0
C1016 C 0.19902 0.31293 0.30807 0.0
C1017 C 0.18554 0.32546 0.34969 0.0
C1018 C 0.19615 0.35256 0.33486 0.0
C1019 C 0.22072 0.36695 0.28239 0.0
C1020 C 0.18818 0.284 0.32124 0.0
C1021 C 0.18243 0.36667 0.37823 0.0
H1022 H 0.08912 0.27166 0.41688 0.0
H1023 H 0.14902 0.2924 0.6361 0.0
H1024 H 0.13506 0.3189 0.26118 0.0
H1025 H 0.136 0.28947 0.24001 0.0
H1026 H 0.10278 0.28745 0.26919 0.0
H1027 H 0.19809 0.32067 0.61798 0.0
H1028 H 0.21005 0.31558 0.50998 0.0
H1029 H 0.20769 0.34442 0.52856 0.0
H1030 H 0.23455 0.31833 0.22783 0.0
H1031 H 0.22942 0.38791 0.27418 0.0
H1032 H 0.16509 0.27235 0.30531 0.0
H1033 H 0.19097 0.28033 0.39328 0.0
H1034 H 0.19955 0.27678 0.2781 0.0
H1035 H 0.15919 0.35595 0.3644 0.0
H1036 H 0.19167 0.38715 0.3536 0.0
H1037 H 0.18537 0.36725 0.45292 0.0
C1038 C 0.33765 0.22935 0.61915 0.0
C1039 C 0.36517 0.23287 0.61479 0.0
C1040 C 0.32901 0.24273 0.55986 0.0
C1041 C 0.34846 0.26037 0.49557 0.0
C1042 C 0.37625 0.26414 0.49112 0.0
C1043 C 0.38411 0.25017 0.54971 0.0
C1044 C 0.29906 0.23794 0.56571 0.0
C1045 C 0.39776 0.28288 0.42394 0.0
C1046 C 0.32545 0.28034 0.2811 0.0
C1047 C 0.33061 0.30546 0.30455 0.0
C1048 C 0.32978 0.26486 0.34415 0.0
C1049 C 0.34002 0.27496 0.43231 0.0
C1050 C 0.3445 0.30003 0.45716 0.0
C1051 C 0.33955 0.3149 0.39316 0.0
C1052 C 0.32422 0.23803 0.31551 0.0
C1053 C 0.35594 0.31175 0.54979 0.0
H1054 H 0.32285 0.21624 0.66914 0.0
H1055 H 0.40513 0.25269 0.54311 0.0
H1056 H 0.29957 0.25658 0.58193 0.0
H1057 H 0.28813 0.23094 0.49912 0.0
H1058 H 0.28631 0.22321 0.6181 0.0
H1059 H 0.41915 0.28515 0.43403 0.0
H1060 H 0.39046 0.27562 0.35384 0.0
H1061 H 0.39979 0.30253 0.4299 0.0
H1062 H 0.31819 0.27289 0.21302 0.0
H1063 H 0.3439 0.33442 0.4113 0.0
H1064 H 0.31069 0.2231 0.3662 0.0
H1065 H 0.34464 0.23811 0.31223 0.0
H1066 H 0.31359 0.23198 0.24806 0.0
H1067 H 0.34319 0.29768 0.60368 0.0
H1068 H 0.35588 0.33037 0.56118 0.0
H1069 H 0.37812 0.3158 0.55702 0.0
C1070 C 0.93868 0.02665 0.47965 0.0
C1071 C 0.94608 0.01398 0.54548 0.0
C1072 C 0.94496 0.05275 0.49234 0.0
C1073 C 0.95841 0.06635 0.57378 0.0
C1074 C 0.96589 0.0536 0.64046 0.0
C1075 C 0.95987 0.02772 0.62515 0.0
C1076 C 0.93709 0.06575 0.41879 0.0
C1077 C 0.97966 0.06708 0.72904 0.0
C1078 C 0.99571 0.14124 0.5875 0.0
C1079 C 0.97467 0.14516 0.62685 0.0
C1080 C 0.99054 0.11576 0.5682 0.0
C1081 C 0.96394 0.09361 0.59068 0.0
C1082 C 0.94275 0.0975 0.63127 0.0
C1083 C 0.94825 0.12317 0.64785 0.0
C1084 C 1.01349 0.11254 0.5232 0.0
C1085 C 0.91432 0.0745 0.65811 0.0
H1086 H 0.92818 0.01615 0.41783 0.0
H1087 H 0.96522 0.01791 0.67696 0.0
H1088 H 0.92119 0.07065 0.44474 0.0
H1089 H 0.95613 0.08447 0.3986 0.0
H1090 H 0.92808 0.05302 0.35768 0.0
H1091 H 0.98431 0.05454 0.77369 0.0
H1092 H 0.99984 0.08562 0.71598 0.0
H1093 H 0.96545 0.07236 0.76581 0.0
H1094 H 0.01606 0.15814 0.57018 0.0
H1095 H 0.93191 0.12603 0.67854 0.0
H1096 H 1.00514 0.101 0.45945 0.0
H1097 H 0.02003 0.10143 0.56813 0.0
H1098 H 0.03261 0.13172 0.50709 0.0
H1099 H 0.90325 0.06226 0.59762 0.0
H1100 H 0.90027 0.08083 0.69012 0.0
H1101 H 0.91756 0.06185 0.70651 0.0
C1102 C 0.13024 0.79901 0.54762 0.0
C1103 C 0.12624 0.8008 0.64072 0.0
C1104 C 0.15775 0.8105 0.51087 0.0
C1105 C 0.18181 0.82369 0.56891 0.0
C1106 C 0.17785 0.82531 0.66312 0.0
C1107 C 0.15014 0.81404 0.69767 0.0
C1108 C 0.16108 0.80866 0.40994 0.0
C1109 C 0.20287 0.83869 0.72769 0.0
C1110 C 0.25233 0.83079 0.49661 0.0
C1111 C 0.26821 0.85748 0.47349 0.0
C1112 C 0.22411 0.8195 0.52634 0.0
C1113 C 0.21118 0.83513 0.532 0.0
C1114 C 0.22677 0.8619 0.50622 0.0
C1115 C 0.25518 0.87282 0.47792 0.0
C1116 C 0.20844 0.791 0.55432 0.0
C1117 C 0.21358 0.87911 0.51013 0.0
H1118 H 0.11181 0.78909 0.50331 0.0
H1119 H 0.14711 0.8152 0.76976 0.0
H1120 H 0.17404 0.82865 0.38134 0.0
H1121 H 0.17259 0.79793 0.3964 0.0
H1122 H 0.14026 0.79843 0.37376 0.0
H1123 H 0.19616 0.83826 0.79904 0.0
H1124 H 0.21579 0.82895 0.7242 0.0
H1125 H 0.21687 0.85947 0.70773 0.0
H1126 H 0.26219 0.81875 0.49378 0.0
H1127 H 0.26725 0.89342 0.45997 0.0
H1128 H 0.18819 0.77999 0.51565 0.0
H1129 H 0.20291 0.78954 0.62727 0.0
H1130 H 0.22122 0.78132 0.54326 0.0
H1131 H 0.19322 0.86981 0.47152 0.0
H1132 H 0.22784 0.89899 0.4822 0.0
H1133 H 0.20862 0.88127 0.58146 0.0
loop_
_geom_bond_atom_site_label_1
_geom_bond_atom_site_label_2
_geom_bond_distance
_geom_bond_site_symmetry_2
_ccdc_geom_bond_type
Co0 N5 2.057 . S
Co0 O17 2.021 1_554 S
Co0 O20 2.062 . S
Co0 O24 2.117 . S
Co0 O25 2.020 . S
C1 O21 1.259 . S
C1 O24 1.258 . S
Co2 N11 2.057 1_554 S
Co2 O18 2.117 1_554 S
Co2 O19 2.020 1_554 S
Co2 O21 2.021 . S
Co2 O26 2.062 . S
C3 N5 1.316 . S
C3 N6 1.347 . S
C3 H8 0.931 1_554 S
C4 N5 1.375 . S
C4 C7 1.350 . S
C4 H9 0.930 . S
N5 Co0 2.057 . S
N5 C3 1.316 . S
N5 C4 1.375 . S
N6 C3 1.347 . S
N6 C7 1.373 . S
C7 C4 1.350 . S
C7 N6 1.373 . S
C7 H28 0.931 . S
H8 C3 0.931 1_556 S
H9 C4 0.930 . S
C10 O17 1.259 . S
C10 O18 1.258 . S
N11 Co2 2.057 1_556 S
N11 C12 1.316 1_556 S
N11 C13 1.375 . S
C12 N11 1.316 1_554 S
C12 N14 1.347 1_554 S
C12 H23 0.931 . S
C13 N11 1.375 . S
C13 C15 1.350 . S
C13 H22 0.930 . S
N14 C12 1.347 1_556 S
N14 C15 1.373 . S
C15 C13 1.350 . S
C15 N14 1.373 . S
C15 H29 0.931 . S
C16 O19 1.256 . S
C16 O20 1.255 1_556 S
O17 Co0 2.021 1_556 S
O17 C10 1.259 . S
O18 Co2 2.117 1_556 S
O18 C10 1.258 . S
O19 Co2 2.020 1_556 S
O19 C16 1.256 . S
O20 Co0 2.062 . S
O20 C16 1.255 1_554 S
O21 C1 1.259 . S
O21 Co2 2.021 . S
H22 C13 0.930 . S
H23 C12 0.931 . S
O24 Co0 2.117 . S
O24 C1 1.258 . S
O25 Co0 2.020 . S
O25 C27 1.256 . S
O26 Co2 2.062 . S
O26 C27 1.255 . S
C27 O25 1.256 . S
C27 O26 1.255 . S
H28 C7 0.931 . S
H29 C15 0.931 . S
Co30 N35 2.057 . S
Co30 O47 2.021 . S
Co30 O50 2.062 . S
Co30 O54 2.117 1_554 S
Co30 O55 2.020 . S
C31 O51 1.259 . S
C31 O54 1.258 . S
Co32 N41 2.057 . S
Co32 O48 2.117 . S
Co32 O49 2.020 . S
Co32 O51 2.021 1_554 S
Co32 O56 2.062 . S
C33 N35 1.316 . S
C33 N36 1.347 . S
C33 H38 0.931 . S
C34 N35 1.375 1_556 S
C34 C37 1.350 . S
C34 H39 0.930 . S
N35 Co30 2.057 . S
N35 C33 1.316 . S
N35 C34 1.375 1_554 S
N36 C33 1.347 . S
N36 C37 1.373 1_554 S
C37 C34 1.350 . S
C37 N36 1.373 1_556 S
C37 H58 0.931 . S
H38 C33 0.931 . S
H39 C34 0.930 . S
C40 O47 1.259 . S
C40 O48 1.258 . S
N41 Co32 2.057 . S
N41 C42 1.316 . S
N41 C43 1.375 . S
C42 N41 1.316 . S
C42 N44 1.347 . S
C42 H53 0.931 . S
C43 N41 1.375 . S
C43 C45 1.350 . S
C43 H52 0.930 . S
N44 C42 1.347 . S
N44 C45 1.373 . S
C45 C43 1.350 . S
C45 N44 1.373 . S
C45 H59 0.931 . S
C46 O49 1.256 . S
C46 O50 1.255 . S
O47 Co30 2.021 . S
O47 C40 1.259 . S
O48 Co32 2.117 . S
O48 C40 1.258 . S
O49 Co32 2.020 . S
O49 C46 1.256 . S
O50 Co30 2.062 . S
O50 C46 1.255 . S
O51 C31 1.259 . S
O51 Co32 2.021 1_556 S
H52 C43 0.930 . S
H53 C42 0.931 . S
O54 Co30 2.117 1_556 S
O54 C31 1.258 . S
O55 Co30 2.020 . S
O55 C57 1.256 . S
O56 Co32 2.062 . S
O56 C57 1.255 . S
C57 O55 1.256 . S
C57 O56 1.255 . S
H58 C37 0.931 . S
H59 C45 0.931 . S
Co60 N65 2.057 1_545 S
Co60 O77 2.021 1_545 S
Co60 O80 2.062 . S
Co60 O84 2.117 . S
Co60 O85 2.020 1_545 S
C61 O81 1.259 . S
C61 O84 1.258 . S
Co62 N71 2.057 . S
Co62 O78 2.117 . S
Co62 O79 2.020 . S
Co62 O81 2.021 . S
Co62 O86 2.062 . S
C63 N65 1.316 . S
C63 N66 1.347 . S
C63 H68 0.931 . S
C64 N65 1.375 . S
C64 C67 1.350 . S
C64 H69 0.930 . S
N65 Co60 2.057 1_565 S
N65 C63 1.316 . S
N65 C64 1.375 . S
N66 C63 1.347 . S
N66 C67 1.373 . S
C67 C64 1.350 . S
C67 N66 1.373 . S
C67 H88 0.931 . S
H68 C63 0.931 . S
H69 C64 0.930 . S
C70 O77 1.259 1_546 S
C70 O78 1.258 1_556 S
N71 Co62 2.057 . S
N71 C72 1.316 . S
N71 C73 1.375 . S
C72 N71 1.316 . S
C72 N74 1.347 . S
C72 H83 0.931 . S
C73 N71 1.375 . S
C73 C75 1.350 1_554 S
C73 H82 0.930 1_554 S
N74 C72 1.347 . S
N74 C75 1.373 1_554 S
C75 C73 1.350 1_556 S
C75 N74 1.373 1_556 S
C75 H89 0.931 . S
C76 O79 1.256 . S
C76 O80 1.255 . S
O77 Co60 2.021 1_565 S
O77 C70 1.259 1_564 S
O78 Co62 2.117 . S
O78 C70 1.258 1_554 S
O79 Co62 2.020 . S
O79 C76 1.256 . S
O80 Co60 2.062 . S
O80 C76 1.255 . S
O81 C61 1.259 . S
O81 Co62 2.021 . S
H82 C73 0.930 1_556 S
H83 C72 0.931 . S
O84 Co60 2.117 . S
O84 C61 1.258 . S
O85 Co60 2.020 1_565 S
O85 C87 1.256 . S
O86 Co62 2.062 . S
O86 C87 1.255 1_545 S
C87 O85 1.256 . S
C87 O86 1.255 1_565 S
H88 C67 0.931 . S
H89 C75 0.931 . S
Co90 N95 2.057 . S
Co90 O107 2.021 . S
Co90 O110 2.062 . S
Co90 O114 2.117 . S
Co90 O115 2.020 . S
C91 O111 1.259 . S
C91 O114 1.258 . S
Co92 N101 2.057 . S
Co92 O108 2.117 . S
Co92 O109 2.020 . S
Co92 O111 2.021 . S
Co92 O116 2.062 . S
C93 N95 1.316 . S
C93 N96 1.347 . S
C93 H98 0.931 . S
C94 N95 1.375 . S
C94 C97 1.350 . S
C94 H99 0.930 . S
N95 Co90 2.057 . S
N95 C93 1.316 . S
N95 C94 1.375 . S
N96 C93 1.347 . S
N96 C97 1.373 . S
C97 C94 1.350 . S
C97 N96 1.373 . S
C97 H118 0.931 . S
H98 C93 0.931 . S
H99 C94 0.930 . S
C100 O107 1.259 . S
C100 O108 1.258 . S
N101 Co92 2.057 . S
N101 C102 1.316 . S
N101 C103 1.375 . S
C102 N101 1.316 . S
C102 N104 1.347 . S
C102 H113 0.931 . S
C103 N101 1.375 . S
C103 C105 1.350 . S
C103 H112 0.930 . S
N104 C102 1.347 . S
N104 C105 1.373 . S
C105 C103 1.350 . S
C105 N104 1.373 . S
C105 H119 0.931 . S
C106 O109 1.256 . S
C106 O110 1.255 . S
O107 Co90 2.021 . S
O107 C100 1.259 . S
O108 Co92 2.117 . S
O108 C100 1.258 . S
O109 Co92 2.020 . S
O109 C106 1.256 . S
O110 Co90 2.062 . S
O110 C106 1.255 . S
O111 C91 1.259 . S
O111 Co92 2.021 . S
H112 C103 0.930 . S
H113 C102 0.931 . S
O114 Co90 2.117 . S
O114 C91 1.258 . S
O115 Co90 2.020 . S
O115 C117 1.256 . S
O116 Co92 2.062 . S
O116 C117 1.255 . S
C117 O115 1.256 . S
C117 O116 1.255 . S
H118 C97 0.931 . S
H119 C105 0.931 . S
Co120 N125 2.057 . S
Co120 O137 2.021 . S
Co120 O140 2.062 . S
Co120 O144 2.117 . S
Co120 O145 2.020 . S
C121 O141 1.259 . S
C121 O144 1.258 . S
Co122 N131 2.057 . S
Co122 O138 2.117 . S
Co122 O139 2.020 . S
Co122 O141 2.021 . S
Co122 O146 2.062 . S
C123 N125 1.316 . S
C123 N126 1.347 . S
C123 H128 0.931 . S
C124 N125 1.375 . S
C124 C127 1.350 . S
C124 H129 0.930 . S
N125 Co120 2.057 . S
N125 C123 1.316 . S
N125 C124 1.375 . S
N126 C123 1.347 . S
N126 C127 1.373 . S
C127 C124 1.350 . S
C127 N126 1.373 . S
C127 H148 0.931 . S
H128 C123 0.931 . S
H129 C124 0.930 . S
C130 O137 1.259 . S
C130 O138 1.258 . S
N131 Co122 2.057 . S
N131 C132 1.316 . S
N131 C133 1.375 . S
C132 N131 1.316 . S
C132 N134 1.347 1_565 S
C132 H143 0.931 . S
C133 N131 1.375 . S
C133 C135 1.395 . S
C133 H142 0.930 . S
N134 C132 1.347 1_545 S
N134 C135 1.358 1_545 S
C135 C133 1.395 . S
C135 N134 1.358 1_565 S
C135 H149 0.907 1_565 S
C136 O139 1.256 . S
C136 O140 1.255 . S
O137 Co120 2.021 . S
O137 C130 1.259 . S
O138 Co122 2.117 . S
O138 C130 1.258 . S
O139 Co122 2.020 . S
O139 C136 1.256 . S
O140 Co120 2.062 . S
O140 C136 1.255 . S
O141 C121 1.259 . S
O141 Co122 2.021 . S
H142 C133 0.930 . S
H143 C132 0.931 . S
O144 Co120 2.117 . S
O144 C121 1.258 . S
O145 Co120 2.020 . S
O145 C147 1.256 . S
O146 Co122 2.062 . S
O146 C147 1.255 . S
C147 O145 1.256 . S
C147 O146 1.255 . S
H148 C127 0.931 . S
H149 C135 0.907 1_545 S
Co150 N155 2.057 . S
Co150 O167 2.021 . S
Co150 O170 2.062 . S
Co150 O174 2.117 . S
Co150 O175 2.020 . S
C151 O171 1.259 . S
C151 O174 1.258 . S
Co152 N161 2.057 . S
Co152 O168 2.117 . S
Co152 O169 2.020 . S
Co152 O171 2.021 . S
Co152 O176 2.062 . S
C153 N155 1.316 . S
C153 N156 1.347 . S
C153 H158 0.931 . S
C154 N155 1.375 . S
C154 C157 1.350 . S
C154 H159 0.930 . S
N155 Co150 2.057 . S
N155 C153 1.316 . S
N155 C154 1.375 . S
N156 C153 1.347 . S
N156 C157 1.373 . S
C157 C154 1.350 . S
C157 N156 1.373 . S
C157 H178 0.931 . S
H158 C153 0.931 . S
H159 C154 0.930 . S
C160 O167 1.259 . S
C160 O168 1.258 . S
N161 Co152 2.057 . S
N161 C162 1.316 . S
N161 C163 1.375 . S
C162 N161 1.316 . S
C162 N164 1.347 . S
C162 H173 0.931 . S
C163 N161 1.375 . S
C163 C165 1.350 . S
C163 H172 0.930 . S
N164 C162 1.347 . S
N164 C165 1.373 . S
C165 C163 1.350 . S
C165 N164 1.373 . S
C165 H179 0.931 . S
C166 O169 1.256 . S
C166 O170 1.255 . S
O167 Co150 2.021 . S
O167 C160 1.259 . S
O168 Co152 2.117 . S
O168 C160 1.258 . S
O169 Co152 2.020 . S
O169 C166 1.256 . S
O170 Co150 2.062 . S
O170 C166 1.255 . S
O171 C151 1.259 . S
O171 Co152 2.021 . S
H172 C163 0.930 . S
H173 C162 0.931 . S
O174 Co150 2.117 . S
O174 C151 1.258 . S
O175 Co150 2.020 . S
O175 C177 1.256 . S
O176 Co152 2.062 . S
O176 C177 1.255 . S
C177 O175 1.256 . S
C177 O176 1.255 . S
H178 C157 0.931 . S
H179 C165 0.931 . S
Co180 N185 2.057 . S
Co180 O197 2.021 . S
Co180 O200 2.062 . S
Co180 O204 2.117 . S
Co180 O205 2.020 . S
C181 O201 1.259 . S
C181 O204 1.258 . S
Co182 N191 2.057 . S
Co182 O198 2.117 . S
Co182 O199 2.020 . S
Co182 O201 2.021 . S
Co182 O206 2.062 . S
C183 N185 1.316 . S
C183 N186 1.347 . S
C183 H188 0.931 . S
C184 N185 1.375 . S
C184 C187 1.350 . S
C184 H189 0.930 . S
N185 Co180 2.057 . S
N185 C183 1.316 . S
N185 C184 1.375 . S
N186 C183 1.347 . S
N186 C187 1.373 . S
C187 C184 1.350 . S
C187 N186 1.373 . S
C187 H208 0.931 . S
H188 C183 0.931 . S
H189 C184 0.930 . S
C190 O197 1.259 . S
C190 O198 1.258 . S
N191 Co182 2.057 . S
N191 C192 1.316 . S
N191 C193 1.375 . S
C192 N191 1.316 . S
C192 N194 1.347 . S
C192 H203 0.931 . S
C193 N191 1.375 . S
C193 C195 1.350 . S
C193 H202 0.930 . S
N194 C192 1.347 . S
N194 C195 1.373 . S
C195 C193 1.350 . S
C195 N194 1.373 . S
C195 H209 0.931 . S
C196 O199 1.256 . S
C196 O200 1.255 . S
O197 Co180 2.021 . S
O197 C190 1.259 . S
O198 Co182 2.117 . S
O198 C190 1.258 . S
O199 Co182 2.020 . S
O199 C196 1.256 . S
O200 Co180 2.062 . S
O200 C196 1.255 . S
O201 C181 1.259 . S
O201 Co182 2.021 . S
H202 C193 0.930 . S
H203 C192 0.931 . S
O204 Co180 2.117 . S
O204 C181 1.258 . S
O205 Co180 2.020 . S
O205 C207 1.256 . S
O206 Co182 2.062 . S
O206 C207 1.255 . S
C207 O205 1.256 . S
C207 O206 1.255 . S
H208 C187 0.931 . S
H209 C195 0.931 . S
Co210 N215 2.057 . S
Co210 O227 2.021 1_455 S
Co210 O230 2.062 1_455 S
Co210 O234 2.117 1_455 S
Co210 O235 2.020 . S
C211 O231 1.259 . S
C211 O234 1.258 . S
Co212 N221 2.057 . S
Co212 O228 2.117 . S
Co212 O229 2.020 . S
Co212 O231 2.021 . S
Co212 O236 2.062 . S
C213 N215 1.316 . S
C213 N216 1.347 . S
C213 H218 0.931 . S
C214 N215 1.375 . S
C214 C217 1.350 . S
C214 H219 0.930 . S
N215 Co210 2.057 . S
N215 C213 1.316 . S
N215 C214 1.375 . S
N216 C213 1.347 . S
N216 C217 1.373 . S
C217 C214 1.350 . S
C217 N216 1.373 . S
C217 H238 0.931 . S
H218 C213 0.931 . S
H219 C214 0.930 . S
C220 O227 1.259 . S
C220 O228 1.258 . S
N221 Co212 2.057 . S
N221 C222 1.316 . S
N221 C223 1.375 . S
C222 N221 1.316 . S
C222 N224 1.347 . S
C222 H233 0.931 . S
C223 N221 1.375 . S
C223 C225 1.350 . S
C223 H232 0.930 . S
N224 C222 1.347 . S
N224 C225 1.373 . S
C225 C223 1.350 . S
C225 N224 1.373 . S
C225 H239 0.931 . S
C226 O229 1.256 . S
C226 O230 1.255 . S
O227 Co210 2.021 1_655 S
O227 C220 1.259 . S
O228 Co212 2.117 . S
O228 C220 1.258 . S
O229 Co212 2.020 . S
O229 C226 1.256 . S
O230 Co210 2.062 1_655 S
O230 C226 1.255 . S
O231 C211 1.259 . S
O231 Co212 2.021 . S
H232 C223 0.930 . S
H233 C222 0.931 . S
O234 Co210 2.117 1_655 S
O234 C211 1.258 . S
O235 Co210 2.020 . S
O235 C237 1.256 1_455 S
O236 Co212 2.062 . S
O236 C237 1.255 . S
C237 O235 1.256 1_655 S
C237 O236 1.255 . S
H238 C217 0.931 . S
H239 C225 0.931 . S
Co240 N245 2.057 . S
Co240 O257 2.021 . S
Co240 O260 2.062 . S
Co240 O264 2.117 . S
Co240 O265 2.020 . S
C241 O261 1.259 . S
C241 O264 1.258 . S
Co242 N251 2.057 . S
Co242 O258 2.094 . S
Co242 O259 2.020 1_455 S
Co242 O261 2.021 1_455 S
Co242 O266 2.062 1_455 S
C243 N245 1.316 . S
C243 N246 1.347 . S
C243 H248 0.931 . S
C244 N245 1.375 . S
C244 C247 1.350 . S
C244 H249 0.930 . S
N245 Co240 2.057 . S
N245 C243 1.316 . S
N245 C244 1.375 . S
N246 C243 1.347 . S
N246 C247 1.373 . S
C247 C244 1.350 . S
C247 N246 1.373 . S
C247 H268 0.931 . S
H248 C243 0.931 . S
H249 C244 0.930 . S
C250 O257 1.259 . S
C250 O258 1.250 1_655 S
N251 Co242 2.057 . S
N251 C252 1.316 . S
N251 C253 1.375 . S
C252 N251 1.316 . S
C252 N254 1.347 . S
C252 H263 0.931 . S
C253 N251 1.375 . S
C253 C255 1.350 . S
C253 H262 0.930 . S
N254 C252 1.347 . S
N254 C255 1.373 . S
C255 C253 1.350 . S
C255 N254 1.373 . S
C255 H269 0.931 . S
C256 O259 1.256 . S
C256 O260 1.255 . S
O257 Co240 2.021 . S
O257 C250 1.259 . S
O258 Co242 2.094 . S
O258 C250 1.250 1_455 S
O259 Co242 2.020 1_655 S
O259 C256 1.256 . S
O260 Co240 2.062 . S
O260 C256 1.255 . S
O261 C241 1.259 . S
O261 Co242 2.021 1_655 S
H262 C253 0.930 . S
H263 C252 0.931 . S
O264 Co240 2.117 . S
O264 C241 1.258 . S
O265 Co240 2.020 . S
O265 C267 1.256 . S
O266 Co242 2.062 1_655 S
O266 C267 1.255 . S
C267 O265 1.256 . S
C267 O266 1.255 . S
H268 C247 0.931 . S
H269 C255 0.931 . S
C270 C271 1.391 . S
C270 C272 1.394 . S
C270 H286 0.931 . S
C271 C270 1.391 . S
C271 C275 1.376 . S
C272 C270 1.394 . S
C272 C273 1.369 . S
C272 C276 1.531 . S
C273 C272 1.369 . S
C273 C274 1.410 . S
C273 C281 1.503 . S
C274 C273 1.410 . S
C274 C275 1.392 . S
C274 C277 1.511 . S
C275 C271 1.376 . S
C275 C274 1.392 . S
C275 H287 0.929 . S
C276 C272 1.531 . S
C276 H288 0.960 . S
C276 H289 0.962 . S
C276 H290 0.960 . S
C277 C274 1.511 . S
C277 H291 0.961 . S
C277 H292 0.961 . S
C277 H293 0.961 . S
C278 C279 1.370 . S
C278 C280 1.363 . S
C278 H294 0.931 . S
C279 C278 1.370 . S
C279 C283 1.408 . S
C280 C278 1.363 . S
C280 C281 1.370 . S
C280 C284 1.524 . S
C281 C273 1.503 . S
C281 C280 1.370 . S
C281 C282 1.403 . S
C282 C281 1.403 . S
C282 C283 1.404 . S
C282 C285 1.539 . S
C283 C279 1.408 . S
C283 C282 1.404 . S
C283 H295 0.930 . S
C284 C280 1.524 . S
C284 H296 0.956 . S
C284 H297 0.961 . S
C284 H298 0.961 . S
C285 C282 1.539 . S
C285 H299 0.958 . S
C285 H300 0.961 . S
C285 H301 0.960 . S
H286 C270 0.931 . S
H287 C275 0.929 . S
H288 C276 0.960 . S
H289 C276 0.962 . S
H290 C276 0.960 . S
H291 C277 0.961 . S
H292 C277 0.961 . S
H293 C277 0.961 . S
H294 C278 0.931 . S
H295 C283 0.930 . S
H296 C284 0.956 . S
H297 C284 0.961 . S
H298 C284 0.961 . S
H299 C285 0.958 . S
H300 C285 0.961 . S
H301 C285 0.960 . S
C302 C303 1.391 . S
C302 C304 1.394 . S
C302 H318 0.931 . S
C303 C302 1.391 . S
C303 C307 1.376 . S
C304 C302 1.394 . S
C304 C305 1.369 . S
C304 C308 1.531 . S
C305 C304 1.369 . S
C305 C306 1.410 . S
C305 C313 1.503 . S
C306 C305 1.410 . S
C306 C307 1.392 . S
C306 C309 1.511 . S
C307 C303 1.376 . S
C307 C306 1.392 . S
C307 H319 0.929 . S
C308 C304 1.531 . S
C308 H320 0.960 . S
C308 H321 0.962 . S
C308 H322 0.960 . S
C309 C306 1.511 . S
C309 H323 0.961 . S
C309 H324 0.961 . S
C309 H325 0.961 . S
C310 C311 1.370 . S
C310 C312 1.363 . S
C310 H326 0.931 . S
C311 C310 1.370 . S
C311 C315 1.408 . S
C312 C310 1.363 . S
C312 C313 1.370 . S
C312 C316 1.524 . S
C313 C305 1.503 . S
C313 C312 1.370 . S
C313 C314 1.403 . S
C314 C313 1.403 . S
C314 C315 1.404 . S
C314 C317 1.539 . S
C315 C311 1.408 . S
C315 C314 1.404 . S
C315 H327 0.930 . S
C316 C312 1.524 . S
C316 H328 0.956 . S
C316 H329 0.961 . S
C316 H330 0.961 . S
C317 C314 1.539 . S
C317 H331 0.958 . S
C317 H332 0.961 . S
C317 H333 0.960 . S
H318 C302 0.931 . S
H319 C307 0.929 . S
H320 C308 0.960 . S
H321 C308 0.962 . S
H322 C308 0.960 . S
H323 C309 0.961 . S
H324 C309 0.961 . S
H325 C309 0.961 . S
H326 C310 0.931 . S
H327 C315 0.930 . S
H328 C316 0.956 . S
H329 C316 0.961 . S
H330 C316 0.961 . S
H331 C317 0.958 . S
H332 C317 0.961 . S
H333 C317 0.960 . S
C334 C335 1.391 1_565 S
C334 C336 1.394 . S
C334 H350 0.931 . S
C335 C334 1.391 1_545 S
C335 C339 1.376 . S
C336 C334 1.394 . S
C336 C337 1.369 1_565 S
C336 C340 1.531 . S
C337 C336 1.369 1_545 S
C337 C338 1.410 . S
C337 C345 1.503 . S
C338 C337 1.410 . S
C338 C339 1.392 . S
C338 C341 1.511 . S
C339 C335 1.376 . S
C339 C338 1.392 . S
C339 H351 0.929 . S
C340 C336 1.531 . S
C340 H352 0.960 . S
C340 H353 0.962 . S
C340 H354 0.960 . S
C341 C338 1.511 . S
C341 H355 0.961 . S
C341 H356 0.961 . S
C341 H357 0.961 . S
C342 C343 1.370 . S
C342 C344 1.363 . S
C342 H358 0.931 . S
C343 C342 1.370 . S
C343 C347 1.408 . S
C344 C342 1.363 . S
C344 C345 1.370 . S
C344 C348 1.524 . S
C345 C337 1.503 . S
C345 C344 1.370 . S
C345 C346 1.403 . S
C346 C345 1.403 . S
C346 C347 1.404 . S
C346 C349 1.539 . S
C347 C343 1.408 . S
C347 C346 1.404 . S
C347 H359 0.930 . S
C348 C344 1.524 . S
C348 H360 0.956 1_545 S
C348 H361 0.961 . S
C348 H362 0.961 . S
C349 C346 1.539 . S
C349 H363 0.958 . S
C349 H364 0.961 . S
C349 H365 0.960 . S
H350 C334 0.931 . S
H351 C339 0.929 . S
H352 C340 0.960 . S
H353 C340 0.962 . S
H354 C340 0.960 . S
H355 C341 0.961 . S
H356 C341 0.961 . S
H357 C341 0.961 . S
H358 C342 0.931 . S
H359 C347 0.930 . S
H360 C348 0.956 1_565 S
H361 C348 0.961 . S
H362 C348 0.961 . S
H363 C349 0.958 . S
H364 C349 0.961 . S
H365 C349 0.960 . S
C366 C367 1.391 . S
C366 C368 1.394 . S
C366 H382 0.931 . S
C367 C366 1.391 . S
C367 C371 1.376 . S
C368 C366 1.394 . S
C368 C369 1.369 . S
C368 C372 1.531 . S
C369 C368 1.369 . S
C369 C370 1.410 . S
C369 C377 1.503 . S
C370 C369 1.410 . S
C370 C371 1.392 . S
C370 C373 1.511 . S
C371 C367 1.376 . S
C371 C370 1.392 . S
C371 H383 0.929 . S
C372 C368 1.531 . S
C372 H384 0.960 . S
C372 H385 0.962 . S
C372 H386 0.960 . S
C373 C370 1.511 . S
C373 H387 0.961 . S
C373 H388 0.961 . S
C373 H389 0.961 . S
C374 C375 1.370 . S
C374 C376 1.363 1_554 S
C374 H390 0.931 . S
C375 C374 1.370 . S
C375 C379 1.408 . S
C376 C374 1.363 1_556 S
C376 C377 1.370 . S
C376 C380 1.524 . S
C377 C369 1.503 . S
C377 C376 1.370 . S
C377 C378 1.403 . S
C378 C377 1.403 . S
C378 C379 1.404 1_556 S
C378 C381 1.539 . S
C379 C375 1.408 . S
C379 C378 1.404 1_554 S
C379 H391 0.930 . S
C380 C376 1.524 . S
C380 H392 0.956 . S
C380 H393 0.961 . S
C380 H394 0.961 . S
C381 C378 1.539 . S
C381 H395 0.958 . S
C381 H396 0.961 . S
C381 H397 0.960 . S
H382 C366 0.931 . S
H383 C371 0.929 . S
H384 C372 0.960 . S
H385 C372 0.962 . S
H386 C372 0.960 . S
H387 C373 0.961 . S
H388 C373 0.961 . S
H389 C373 0.961 . S
H390 C374 0.931 . S
H391 C379 0.930 . S
H392 C380 0.956 . S
H393 C380 0.961 . S
H394 C380 0.961 . S
H395 C381 0.958 . S
H396 C381 0.961 . S
H397 C381 0.960 . S
C398 C399 1.391 . S
C398 C400 1.394 . S
C398 H414 0.931 . S
C399 C398 1.391 . S
C399 C403 1.376 . S
C400 C398 1.394 . S
C400 C401 1.369 . S
C400 C404 1.531 . S
C401 C400 1.369 . S
C401 C402 1.410 . S
C401 C409 1.503 . S
C402 C401 1.410 . S
C402 C403 1.392 . S
C402 C405 1.511 . S
C403 C399 1.376 . S
C403 C402 1.392 . S
C403 H415 0.929 . S
C404 C400 1.531 . S
C404 H416 0.960 . S
C404 H417 0.962 . S
C404 H418 0.960 . S
C405 C402 1.511 . S
C405 H419 0.961 . S
C405 H420 0.961 . S
C405 H421 0.961 . S
C406 C407 1.370 . S
C406 C408 1.363 1_554 S
C406 H422 0.931 . S
C407 C406 1.370 . S
C407 C411 1.408 . S
C408 C406 1.363 1_556 S
C408 C409 1.370 . S
C408 C412 1.524 . S
C409 C401 1.503 . S
C409 C408 1.370 . S
C409 C410 1.403 . S
C410 C409 1.403 . S
C410 C411 1.404 1_556 S
C410 C413 1.539 . S
C411 C407 1.408 . S
C411 C410 1.404 1_554 S
C411 H423 0.930 . S
C412 C408 1.524 . S
C412 H424 0.956 . S
C412 H425 0.961 . S
C412 H426 0.961 . S
C413 C410 1.539 . S
C413 H427 0.958 . S
C413 H428 0.961 . S
C413 H429 0.960 . S
H414 C398 0.931 . S
H415 C403 0.929 . S
H416 C404 0.960 . S
H417 C404 0.962 . S
H418 C404 0.960 . S
H419 C405 0.961 . S
H420 C405 0.961 . S
H421 C405 0.961 . S
H422 C406 0.931 . S
H423 C411 0.930 . S
H424 C412 0.956 . S
H425 C412 0.961 . S
H426 C412 0.961 . S
H427 C413 0.958 . S
H428 C413 0.961 . S
H429 C413 0.960 . S
C430 C431 1.391 . S
C430 C432 1.394 . S
C430 H446 0.931 . S
C431 C430 1.391 . S
C431 C435 1.376 . S
C432 C430 1.394 . S
C432 C433 1.369 . S
C432 C436 1.531 . S
C433 C432 1.369 . S
C433 C434 1.410 . S
C433 C441 1.503 . S
C434 C433 1.410 . S
C434 C435 1.392 . S
C434 C437 1.511 . S
C435 C431 1.376 . S
C435 C434 1.392 . S
C435 H447 0.929 . S
C436 C432 1.531 . S
C436 H448 0.960 . S
C436 H449 0.962 . S
C436 H450 0.960 . S
C437 C434 1.511 . S
C437 H451 0.961 . S
C437 H452 0.961 . S
C437 H453 0.961 . S
C438 C439 1.370 1_556 S
C438 C440 1.363 . S
C438 H454 0.931 1_556 S
C439 C438 1.370 1_554 S
C439 C443 1.408 1_554 S
C440 C438 1.363 . S
C440 C441 1.370 . S
C440 C444 1.524 . S
C441 C433 1.503 . S
C441 C440 1.370 . S
C441 C442 1.403 . S
C442 C441 1.403 . S
C442 C443 1.404 . S
C442 C445 1.539 . S
C443 C439 1.408 1_556 S
C443 C442 1.404 . S
C443 H455 0.930 . S
C444 C440 1.524 . S
C444 H456 0.956 . S
C444 H457 0.961 . S
C444 H458 0.961 . S
C445 C442 1.539 . S
C445 H459 0.958 . S
C445 H460 0.961 . S
C445 H461 0.960 . S
H446 C430 0.931 . S
H447 C435 0.929 . S
H448 C436 0.960 . S
H449 C436 0.962 . S
H450 C436 0.960 . S
H451 C437 0.961 . S
H452 C437 0.961 . S
H453 C437 0.961 . S
H454 C438 0.931 1_554 S
H455 C443 0.930 . S
H456 C444 0.956 . S
H457 C444 0.961 . S
H458 C444 0.961 . S
H459 C445 0.958 . S
H460 C445 0.961 . S
H461 C445 0.960 . S
C462 C463 1.391 . S
C462 C464 1.394 . S
C462 H478 0.931 . S
C463 C462 1.391 . S
C463 C467 1.376 . S
C464 C462 1.394 . S
C464 C465 1.369 . S
C464 C468 1.531 . S
C465 C464 1.369 . S
C465 C466 1.410 . S
C465 C473 1.503 . S
C466 C465 1.410 . S
C466 C467 1.392 . S
C466 C469 1.511 . S
C467 C463 1.376 . S
C467 C466 1.392 . S
C467 H479 0.929 . S
C468 C464 1.531 . S
C468 H480 0.960 . S
C468 H481 0.962 . S
C468 H482 0.960 . S
C469 C466 1.511 . S
C469 H483 0.961 . S
C469 H484 0.961 . S
C469 H485 0.961 . S
C470 C471 1.370 1_554 S
C470 C472 1.363 . S
C470 H486 0.931 1_554 S
C471 C470 1.370 1_556 S
C471 C475 1.408 1_556 S
C472 C470 1.363 . S
C472 C473 1.370 . S
C472 C476 1.524 . S
C473 C465 1.503 . S
C473 C472 1.370 . S
C473 C474 1.403 . S
C474 C473 1.403 . S
C474 C475 1.404 . S
C474 C477 1.539 . S
C475 C471 1.408 1_554 S
C475 C474 1.404 . S
C475 H487 0.930 1_554 S
C476 C472 1.524 . S
C476 H488 0.956 . S
C476 H489 0.961 . S
C476 H490 0.961 . S
C477 C474 1.539 . S
C477 H491 0.958 . S
C477 H492 0.961 . S
C477 H493 0.960 . S
H478 C462 0.931 . S
H479 C467 0.929 . S
H480 C468 0.960 . S
H481 C468 0.962 . S
H482 C468 0.960 . S
H483 C469 0.961 . S
H484 C469 0.961 . S
H485 C469 0.961 . S
H486 C470 0.931 1_556 S
H487 C475 0.930 1_556 S
H488 C476 0.956 . S
H489 C476 0.961 . S
H490 C476 0.961 . S
H491 C477 0.958 . S
H492 C477 0.961 . S
H493 C477 0.960 . S
C494 C495 1.391 . S
C494 C496 1.394 . S
C494 H510 0.931 . S
C495 C494 1.391 . S
C495 C499 1.376 . S
C496 C494 1.394 . S
C496 C497 1.369 . S
C496 C500 1.531 . S
C497 C496 1.369 . S
C497 C498 1.410 . S
C497 C505 1.503 . S
C498 C497 1.410 . S
C498 C499 1.392 . S
C498 C501 1.511 1_655 S
C499 C495 1.376 . S
C499 C498 1.392 . S
C499 H511 0.929 . S
C500 C496 1.531 . S
C500 H512 0.960 . S
C500 H513 0.962 . S
C500 H514 0.960 . S
C501 C498 1.511 1_455 S
C501 H515 0.961 . S
C501 H516 0.961 . S
C501 H517 0.961 . S
C502 C503 1.370 1_554 S
C502 C504 1.363 . S
C502 H518 0.931 1_554 S
C503 C502 1.370 1_556 S
C503 C507 1.408 1_656 S
C504 C502 1.363 . S
C504 C505 1.370 . S
C504 C508 1.524 . S
C505 C497 1.503 . S
C505 C504 1.370 . S
C505 C506 1.410 . S
C506 C505 1.410 . S
C506 C507 1.401 1_655 S
C506 C509 1.533 1_655 S
C507 C503 1.408 1_454 S
C507 C506 1.401 1_455 S
C507 H519 0.930 1_554 S
C508 C504 1.524 . S
C508 H520 0.956 . S
C508 H521 0.961 . S
C508 H522 0.961 . S
C509 C506 1.533 1_455 S
C509 H523 0.958 . S
C509 H524 0.961 . S
C509 H525 0.960 . S
H510 C494 0.931 . S
H511 C499 0.929 . S
H512 C500 0.960 . S
H513 C500 0.962 . S
H514 C500 0.960 . S
H515 C501 0.961 . S
H516 C501 0.961 . S
H517 C501 0.961 . S
H518 C502 0.931 1_556 S
H519 C507 0.930 1_556 S
H520 C508 0.956 . S
H521 C508 0.961 . S
H522 C508 0.961 . S
H523 C509 0.958 . S
H524 C509 0.961 . S
H525 C509 0.960 . S
C526 C527 1.391 . S
C526 C528 1.394 . S
C526 H542 0.931 . S
C527 C526 1.391 . S
C527 C531 1.376 . S
C528 C526 1.394 . S
C528 C529 1.369 . S
C528 C532 1.531 . S
C529 C528 1.369 . S
C529 C530 1.410 . S
C529 C537 1.503 . S
C530 C529 1.410 . S
C530 C531 1.392 . S
C530 C533 1.511 1_655 S
C531 C527 1.376 . S
C531 C530 1.392 . S
C531 H543 0.929 1_655 S
C532 C528 1.531 . S
C532 H544 0.960 . S
C532 H545 0.962 . S
C532 H546 0.960 . S
C533 C530 1.511 1_455 S
C533 H547 0.961 . S
C533 H548 0.961 . S
C533 H549 0.961 . S
C534 C535 1.370 1_554 S
C534 C536 1.363 . S
C534 H550 0.931 1_554 S
C535 C534 1.370 1_556 S
C535 C539 1.408 1_556 S
C536 C534 1.363 . S
C536 C537 1.370 . S
C536 C540 1.524 . S
C537 C529 1.503 . S
C537 C536 1.370 . S
C537 C538 1.403 . S
C538 C537 1.403 . S
C538 C539 1.404 . S
C538 C541 1.539 1_655 S
C539 C535 1.408 1_554 S
C539 C538 1.404 . S
C539 H551 0.930 1_654 S
C540 C536 1.524 . S
C540 H552 0.956 . S
C540 H553 0.961 . S
C540 H554 0.961 . S
C541 C538 1.539 1_455 S
C541 H555 0.958 1_455 S
C541 H556 0.961 . S
C541 H557 0.960 . S
H542 C526 0.931 . S
H543 C531 0.929 1_455 S
H544 C532 0.960 . S
H545 C532 0.962 . S
H546 C532 0.960 . S
H547 C533 0.961 . S
H548 C533 0.961 . S
H549 C533 0.961 . S
H550 C534 0.931 1_556 S
H551 C539 0.930 1_456 S
H552 C540 0.956 . S
H553 C540 0.961 . S
H554 C540 0.961 . S
H555 C541 0.958 1_655 S
H556 C541 0.961 . S
H557 C541 0.960 . S
C558 C559 1.391 . S
C558 C560 1.394 . S
C558 H574 0.931 . S
C559 C558 1.391 . S
C559 C563 1.376 . S
C560 C558 1.394 . S
C560 C561 1.369 . S
C560 C564 1.531 . S
C561 C560 1.369 . S
C561 C562 1.410 . S
C561 C569 1.503 . S
C562 C561 1.410 . S
C562 C563 1.392 . S
C562 C565 1.511 . S
C563 C559 1.376 . S
C563 C562 1.392 . S
C563 H575 0.929 . S
C564 C560 1.531 . S
C564 H576 0.960 . S
C564 H577 0.962 . S
C564 H578 0.960 . S
C565 C562 1.511 . S
C565 H579 0.961 . S
C565 H580 0.961 . S
C565 H581 0.961 . S
C566 C567 1.370 . S
C566 C568 1.363 . S
C566 H582 0.931 1_554 S
C567 C566 1.370 . S
C567 C571 1.408 . S
C568 C566 1.363 . S
C568 C569 1.370 . S
C568 C572 1.524 1_554 S
C569 C561 1.503 . S
C569 C568 1.370 . S
C569 C570 1.403 . S
C570 C569 1.403 . S
C570 C571 1.404 . S
C570 C573 1.539 . S
C571 C567 1.408 . S
C571 C570 1.404 . S
C571 H583 0.930 . S
C572 C568 1.524 1_556 S
C572 H584 0.956 . S
C572 H585 0.961 . S
C572 H586 0.961 . S
C573 C570 1.539 . S
C573 H587 0.958 . S
C573 H588 0.961 . S
C573 H589 0.960 . S
H574 C558 0.931 . S
H575 C563 0.929 . S
H576 C564 0.960 . S
H577 C564 0.962 . S
H578 C564 0.960 . S
H579 C565 0.961 . S
H580 C565 0.961 . S
H581 C565 0.961 . S
H582 C566 0.931 1_556 S
H583 C571 0.930 . S
H584 C572 0.956 . S
H585 C572 0.961 . S
H586 C572 0.961 . S
H587 C573 0.958 . S
H588 C573 0.961 . S
H589 C573 0.960 . S
C590 C591 1.391 . S
C590 C592 1.394 . S
C590 H606 0.931 . S
C591 C590 1.391 . S
C591 C595 1.376 . S
C592 C590 1.394 . S
C592 C593 1.369 . S
C592 C596 1.531 . S
C593 C592 1.369 . S
C593 C594 1.410 . S
C593 C601 1.503 . S
C594 C593 1.410 . S
C594 C595 1.392 . S
C594 C597 1.511 . S
C595 C591 1.376 . S
C595 C594 1.392 . S
C595 H607 0.929 . S
C596 C592 1.531 . S
C596 H608 0.960 . S
C596 H609 0.962 . S
C596 H610 0.960 . S
C597 C594 1.511 . S
C597 H611 0.961 . S
C597 H612 0.961 . S
C597 H613 0.961 . S
C598 C599 1.370 . S
C598 C600 1.363 . S
C598 H614 0.931 . S
C599 C598 1.370 . S
C599 C603 1.408 . S
C600 C598 1.363 . S
C600 C601 1.370 . S
C600 C604 1.524 . S
C601 C593 1.503 . S
C601 C600 1.370 . S
C601 C602 1.403 . S
C602 C601 1.403 . S
C602 C603 1.404 . S
C602 C605 1.539 . S
C603 C599 1.408 . S
C603 C602 1.404 . S
C603 H615 0.930 . S
C604 C600 1.524 . S
C604 H616 0.956 . S
C604 H617 0.961 . S
C604 H618 0.961 . S
C605 C602 1.539 . S
C605 H619 0.958 . S
C605 H620 0.961 . S
C605 H621 0.960 . S
H606 C590 0.931 . S
H607 C595 0.929 . S
H608 C596 0.960 . S
H609 C596 0.962 . S
H610 C596 0.960 . S
H611 C597 0.961 . S
H612 C597 0.961 . S
H613 C597 0.961 . S
H614 C598 0.931 . S
H615 C603 0.930 . S
H616 C604 0.956 . S
H617 C604 0.961 . S
H618 C604 0.961 . S
H619 C605 0.958 . S
H620 C605 0.961 . S
H621 C605 0.960 . S
C622 C623 1.391 . S
C622 C624 1.394 . S
C622 H638 0.931 . S
C623 C622 1.391 . S
C623 C627 1.376 . S
C624 C622 1.394 . S
C624 C625 1.369 . S
C624 C628 1.531 . S
C625 C624 1.369 . S
C625 C626 1.410 . S
C625 C633 1.503 . S
C626 C625 1.410 . S
C626 C627 1.392 . S
C626 C629 1.511 1_565 S
C627 C623 1.376 . S
C627 C626 1.392 . S
C627 H639 0.929 1_565 S
C628 C624 1.531 . S
C628 H640 0.960 . S
C628 H641 0.962 . S
C628 H642 0.960 . S
C629 C626 1.511 1_545 S
C629 H643 0.961 . S
C629 H644 0.961 1_545 S
C629 H645 0.961 . S
C630 C631 1.370 . S
C630 C632 1.363 . S
C630 H646 0.931 . S
C631 C630 1.370 . S
C631 C635 1.408 . S
C632 C630 1.363 . S
C632 C633 1.370 . S
C632 C636 1.524 . S
C633 C625 1.503 . S
C633 C632 1.370 . S
C633 C634 1.403 . S
C634 C633 1.403 . S
C634 C635 1.404 . S
C634 C637 1.539 . S
C635 C631 1.408 . S
C635 C634 1.404 . S
C635 H647 0.930 . S
C636 C632 1.524 . S
C636 H648 0.956 . S
C636 H649 0.961 . S
C636 H650 0.961 . S
C637 C634 1.539 . S
C637 H651 0.958 . S
C637 H652 0.961 . S
C637 H653 0.960 . S
H638 C622 0.931 . S
H639 C627 0.929 1_545 S
H640 C628 0.960 . S
H641 C628 0.962 . S
H642 C628 0.960 . S
H643 C629 0.961 . S
H644 C629 0.961 1_565 S
H645 C629 0.961 . S
H646 C630 0.931 . S
H647 C635 0.930 . S
H648 C636 0.956 . S
H649 C636 0.961 . S
H650 C636 0.961 . S
H651 C637 0.958 . S
H652 C637 0.961 . S
H653 C637 0.960 . S
C654 C655 1.391 . S
C654 C656 1.394 1_554 S
C654 H670 0.931 . S
C655 C654 1.391 . S
C655 C659 1.376 . S
C656 C654 1.394 1_556 S
C656 C657 1.369 1_556 S
C656 C660 1.531 . S
C657 C656 1.369 1_554 S
C657 C658 1.410 . S
C657 C665 1.503 1_554 S
C658 C657 1.410 . S
C658 C659 1.392 . S
C658 C661 1.511 . S
C659 C655 1.376 . S
C659 C658 1.392 . S
C659 H671 0.929 . S
C660 C656 1.531 . S
C660 H672 0.960 . S
C660 H673 0.962 . S
C660 H674 0.960 . S
C661 C658 1.511 . S
C661 H675 0.961 . S
C661 H676 0.961 . S
C661 H677 0.961 . S
C662 C663 1.370 . S
C662 C664 1.363 . S
C662 H678 0.931 . S
C663 C662 1.370 . S
C663 C667 1.408 . S
C664 C662 1.363 . S
C664 C665 1.370 . S
C664 C668 1.524 . S
C665 C657 1.503 1_556 S
C665 C664 1.370 . S
C665 C666 1.403 . S
C666 C665 1.403 . S
C666 C667 1.404 . S
C666 C669 1.539 1_556 S
C667 C663 1.408 . S
C667 C666 1.404 . S
C667 H679 0.930 . S
C668 C664 1.524 . S
C668 H680 0.956 . S
C668 H681 0.961 . S
C668 H682 0.961 . S
C669 C666 1.539 1_554 S
C669 H683 0.958 . S
C669 H684 0.961 . S
C669 H685 0.960 . S
H670 C654 0.931 . S
H671 C659 0.929 . S
H672 C660 0.960 . S
H673 C660 0.962 . S
H674 C660 0.960 . S
H675 C661 0.961 . S
H676 C661 0.961 . S
H677 C661 0.961 . S
H678 C662 0.931 . S
H679 C667 0.930 . S
H680 C668 0.956 . S
H681 C668 0.961 . S
H682 C668 0.961 . S
H683 C669 0.958 . S
H684 C669 0.961 . S
H685 C669 0.960 . S
C686 C687 1.391 1_455 S
C686 C688 1.394 . S
C686 H702 0.931 . S
C687 C686 1.391 1_655 S
C687 C691 1.376 . S
C688 C686 1.394 . S
C688 C689 1.369 1_455 S
C688 C692 1.531 . S
C689 C688 1.369 1_655 S
C689 C690 1.410 . S
C689 C697 1.503 . S
C690 C689 1.410 . S
C690 C691 1.392 . S
C690 C693 1.511 . S
C691 C687 1.376 . S
C691 C690 1.392 . S
C691 H703 0.929 . S
C692 C688 1.531 . S
C692 H704 0.960 . S
C692 H705 0.962 . S
C692 H706 0.960 . S
C693 C690 1.511 . S
C693 H707 0.961 . S
C693 H708 0.961 . S
C693 H709 0.961 . S
C694 C695 1.370 . S
C694 C696 1.363 . S
C694 H710 0.931 1_556 S
C695 C694 1.370 . S
C695 C699 1.408 1_455 S
C696 C694 1.363 . S
C696 C697 1.370 1_455 S
C696 C700 1.524 1_556 S
C697 C689 1.503 . S
C697 C696 1.370 1_655 S
C697 C698 1.403 . S
C698 C697 1.403 . S
C698 C699 1.404 . S
C698 C701 1.539 . S
C699 C695 1.408 1_655 S
C699 C698 1.404 . S
C699 H711 0.930 . S
C700 C696 1.524 1_554 S
C700 H712 0.956 1_554 S
C700 H713 0.961 1_455 S
C700 H714 0.961 . S
C701 C698 1.539 . S
C701 H715 0.958 . S
C701 H716 0.961 . S
C701 H717 0.960 . S
H702 C686 0.931 . S
H703 C691 0.929 . S
H704 C692 0.960 . S
H705 C692 0.962 . S
H706 C692 0.960 . S
H707 C693 0.961 . S
H708 C693 0.961 . S
H709 C693 0.961 . S
H710 C694 0.931 1_554 S
H711 C699 0.930 . S
H712 C700 0.956 1_556 S
H713 C700 0.961 1_655 S
H714 C700 0.961 . S
H715 C701 0.958 . S
H716 C701 0.961 . S
H717 C701 0.960 . S
C718 C719 1.391 . S
C718 C720 1.394 . S
C718 H734 0.931 . S
C719 C718 1.391 . S
C719 C723 1.376 . S
C720 C718 1.394 . S
C720 C721 1.369 . S
C720 C724 1.531 1_556 S
C721 C720 1.369 . S
C721 C722 1.410 . S
C721 C729 1.503 . S
C722 C721 1.410 . S
C722 C723 1.392 . S
C722 C725 1.511 . S
C723 C719 1.376 . S
C723 C722 1.392 . S
C723 H735 0.929 . S
C724 C720 1.531 1_554 S
C724 H736 0.960 . S
C724 H737 0.962 . S
C724 H738 0.960 . S
C725 C722 1.511 . S
C725 H739 0.961 . S
C725 H740 0.961 . S
C725 H741 0.961 . S
C726 C727 1.370 . S
C726 C728 1.363 1_554 S
C726 H742 0.931 . S
C727 C726 1.370 . S
C727 C731 1.408 . S
C728 C726 1.363 1_556 S
C728 C729 1.370 . S
C728 C732 1.524 . S
C729 C721 1.503 . S
C729 C728 1.370 . S
C729 C730 1.403 . S
C730 C729 1.403 . S
C730 C731 1.404 1_556 S
C730 C733 1.539 . S
C731 C727 1.408 . S
C731 C730 1.404 1_554 S
C731 H743 0.930 . S
C732 C728 1.524 . S
C732 H744 0.956 . S
C732 H745 0.961 . S
C732 H746 0.961 . S
C733 C730 1.539 . S
C733 H747 0.958 1_556 S
C733 H748 0.961 . S
C733 H749 0.960 . S
H734 C718 0.931 . S
H735 C723 0.929 . S
H736 C724 0.960 . S
H737 C724 0.962 . S
H738 C724 0.960 . S
H739 C725 0.961 . S
H740 C725 0.961 . S
H741 C725 0.961 . S
H742 C726 0.931 . S
H743 C731 0.930 . S
H744 C732 0.956 . S
H745 C732 0.961 . S
H746 C732 0.961 . S
H747 C733 0.958 1_554 S
H748 C733 0.961 . S
H749 C733 0.960 . S
C750 C751 1.391 1_455 S
C750 C752 1.394 . S
C750 H766 0.931 . S
C751 C750 1.391 1_655 S
C751 C755 1.376 . S
C752 C750 1.394 . S
C752 C753 1.369 . S
C752 C756 1.531 . S
C753 C752 1.369 . S
C753 C754 1.410 1_455 S
C753 C761 1.503 . S
C754 C753 1.410 1_655 S
C754 C755 1.392 . S
C754 C757 1.511 . S
C755 C751 1.376 . S
C755 C754 1.392 . S
C755 H767 0.929 . S
C756 C752 1.531 . S
C756 H768 0.960 1_556 S
C756 H769 0.962 . S
C756 H770 0.960 1_556 S
C757 C754 1.511 . S
C757 H771 0.961 . S
C757 H772 0.961 . S
C757 H773 0.961 . S
C758 C759 1.370 . S
C758 C760 1.363 . S
C758 H774 0.931 . S
C759 C758 1.370 . S
C759 C763 1.408 1_556 S
C760 C758 1.363 . S
C760 C761 1.370 . S
C760 C764 1.524 . S
C761 C753 1.503 . S
C761 C760 1.370 . S
C761 C762 1.403 . S
C762 C761 1.403 . S
C762 C763 1.404 1_556 S
C762 C765 1.539 1_456 S
C763 C759 1.408 1_554 S
C763 C762 1.404 1_554 S
C763 H775 0.930 . S
C764 C760 1.524 . S
C764 H776 0.956 . S
C764 H777 0.961 . S
C764 H778 0.961 . S
C765 C762 1.539 1_654 S
C765 H779 0.958 . S
C765 H780 0.961 . S
C765 H781 0.960 1_554 S
H766 C750 0.931 . S
H767 C755 0.929 . S
H768 C756 0.960 1_554 S
H769 C756 0.962 . S
H770 C756 0.960 1_554 S
H771 C757 0.961 . S
H772 C757 0.961 . S
H773 C757 0.961 . S
H774 C758 0.931 . S
H775 C763 0.930 . S
H776 C764 0.956 . S
H777 C764 0.961 . S
H778 C764 0.961 . S
H779 C765 0.958 . S
H780 C765 0.961 . S
H781 C765 0.960 1_556 S
C782 C783 1.391 . S
C782 C784 1.394 . S
C782 H798 0.931 . S
C783 C782 1.391 . S
C783 C787 1.376 1_554 S
C784 C782 1.394 . S
C784 C785 1.369 1_554 S
C784 C788 1.531 . S
C785 C784 1.369 1_556 S
C785 C786 1.410 . S
C785 C793 1.503 . S
C786 C785 1.410 . S
C786 C787 1.392 . S
C786 C789 1.511 . S
C787 C783 1.376 1_556 S
C787 C786 1.392 . S
C787 H799 0.929 . S
C788 C784 1.531 . S
C788 H800 0.960 . S
C788 H801 0.962 . S
C788 H802 0.960 . S
C789 C786 1.511 . S
C789 H803 0.961 . S
C789 H804 0.961 . S
C789 H805 0.961 . S
C790 C791 1.370 . S
C790 C792 1.363 . S
C790 H806 0.931 . S
C791 C790 1.370 . S
C791 C795 1.408 . S
C792 C790 1.363 . S
C792 C793 1.370 . S
C792 C796 1.524 . S
C793 C785 1.503 . S
C793 C792 1.370 . S
C793 C794 1.403 . S
C794 C793 1.403 . S
C794 C795 1.404 . S
C794 C797 1.539 . S
C795 C791 1.408 . S
C795 C794 1.404 . S
C795 H807 0.930 . S
C796 C792 1.524 . S
C796 H808 0.956 . S
C796 H809 0.961 . S
C796 H810 0.961 . S
C797 C794 1.539 . S
C797 H811 0.958 . S
C797 H812 0.961 . S
C797 H813 0.960 . S
H798 C782 0.931 . S
H799 C787 0.929 . S
H800 C788 0.960 . S
H801 C788 0.962 . S
H802 C788 0.960 . S
H803 C789 0.961 . S
H804 C789 0.961 . S
H805 C789 0.961 . S
H806 C790 0.931 . S
H807 C795 0.930 . S
H808 C796 0.956 . S
H809 C796 0.961 . S
H810 C796 0.961 . S
H811 C797 0.958 . S
H812 C797 0.961 . S
H813 C797 0.960 . S
C814 C815 1.391 . S
C814 C816 1.394 . S
C814 H830 0.931 . S
C815 C814 1.391 . S
C815 C819 1.376 . S
C816 C814 1.394 . S
C816 C817 1.369 . S
C816 C820 1.531 1_556 S
C817 C816 1.369 . S
C817 C818 1.410 . S
C817 C825 1.503 1_556 S
C818 C817 1.410 . S
C818 C819 1.392 . S
C818 C821 1.511 . S
C819 C815 1.376 . S
C819 C818 1.392 . S
C819 H831 0.929 . S
C820 C816 1.531 1_554 S
C820 H832 0.960 . S
C820 H833 0.962 . S
C820 H834 0.960 . S
C821 C818 1.511 . S
C821 H835 0.961 . S
C821 H836 0.961 . S
C821 H837 0.961 . S
C822 C823 1.370 . S
C822 C824 1.363 . S
C822 H838 0.931 . S
C823 C822 1.370 . S
C823 C827 1.408 . S
C824 C822 1.363 . S
C824 C825 1.370 . S
C824 C828 1.524 1_554 S
C825 C817 1.503 1_554 S
C825 C824 1.370 . S
C825 C826 1.403 . S
C826 C825 1.403 . S
C826 C827 1.404 . S
C826 C829 1.539 . S
C827 C823 1.408 . S
C827 C826 1.404 . S
C827 H839 0.930 . S
C828 C824 1.524 1_556 S
C828 H840 0.956 . S
C828 H841 0.961 . S
C828 H842 0.961 . S
C829 C826 1.539 . S
C829 H843 0.958 . S
C829 H844 0.961 . S
C829 H845 0.960 . S
H830 C814 0.931 . S
H831 C819 0.929 . S
H832 C820 0.960 . S
H833 C820 0.962 . S
H834 C820 0.960 . S
H835 C821 0.961 . S
H836 C821 0.961 . S
H837 C821 0.961 . S
H838 C822 0.931 . S
H839 C827 0.930 . S
H840 C828 0.956 . S
H841 C828 0.961 . S
H842 C828 0.961 . S
H843 C829 0.958 . S
H844 C829 0.961 . S
H845 C829 0.960 . S
C846 C847 1.391 . S
C846 C848 1.394 . S
C846 H862 0.931 . S
C847 C846 1.391 . S
C847 C851 1.376 . S
C848 C846 1.394 . S
C848 C849 1.369 . S
C848 C852 1.531 . S
C849 C848 1.369 . S
C849 C850 1.410 . S
C849 C857 1.503 . S
C850 C849 1.410 . S
C850 C851 1.392 . S
C850 C853 1.511 . S
C851 C847 1.376 . S
C851 C850 1.392 . S
C851 H863 0.929 . S
C852 C848 1.531 . S
C852 H864 0.960 . S
C852 H865 0.962 . S
C852 H866 0.960 . S
C853 C850 1.511 . S
C853 H867 0.961 . S
C853 H868 0.961 . S
C853 H869 0.961 . S
C854 C855 1.370 . S
C854 C856 1.363 . S
C854 H870 0.931 . S
C855 C854 1.370 . S
C855 C859 1.408 . S
C856 C854 1.363 . S
C856 C857 1.370 . S
C856 C860 1.524 . S
C857 C849 1.503 . S
C857 C856 1.370 . S
C857 C858 1.403 . S
C858 C857 1.403 . S
C858 C859 1.404 . S
C858 C861 1.539 . S
C859 C855 1.408 . S
C859 C858 1.404 . S
C859 H871 0.930 . S
C860 C856 1.524 . S
C860 H872 0.956 . S
C860 H873 0.961 . S
C860 H874 0.961 . S
C861 C858 1.539 . S
C861 H875 0.958 . S
C861 H876 0.961 . S
C861 H877 0.960 . S
H862 C846 0.931 . S
H863 C851 0.929 . S
H864 C852 0.960 . S
H865 C852 0.962 . S
H866 C852 0.960 . S
H867 C853 0.961 . S
H868 C853 0.961 . S
H869 C853 0.961 . S
H870 C854 0.931 . S
H871 C859 0.930 . S
H872 C860 0.956 . S
H873 C860 0.961 . S
H874 C860 0.961 . S
H875 C861 0.958 . S
H876 C861 0.961 . S
H877 C861 0.960 . S
C878 C879 1.391 . S
C878 C880 1.394 . S
C878 H894 0.931 . S
C879 C878 1.391 . S
C879 C883 1.376 . S
C880 C878 1.394 . S
C880 C881 1.369 . S
C880 C884 1.531 . S
C881 C880 1.369 . S
C881 C882 1.410 . S
C881 C889 1.503 . S
C882 C881 1.410 . S
C882 C883 1.392 . S
C882 C885 1.511 . S
C883 C879 1.376 . S
C883 C882 1.392 . S
C883 H895 0.929 . S
C884 C880 1.531 . S
C884 H896 0.960 . S
C884 H897 0.962 . S
C884 H898 0.960 . S
C885 C882 1.511 . S
C885 H899 0.961 . S
C885 H900 0.961 . S
C885 H901 0.961 . S
C886 C887 1.370 . S
C886 C888 1.363 . S
C886 H902 0.931 . S
C887 C886 1.370 . S
C887 C891 1.408 . S
C888 C886 1.363 . S
C888 C889 1.370 . S
C888 C892 1.524 . S
C889 C881 1.503 . S
C889 C888 1.370 . S
C889 C890 1.403 . S
C890 C889 1.403 . S
C890 C891 1.404 . S
C890 C893 1.539 . S
C891 C887 1.408 . S
C891 C890 1.404 . S
C891 H903 0.930 . S
C892 C888 1.524 . S
C892 H904 0.956 . S
C892 H905 0.961 . S
C892 H906 0.961 . S
C893 C890 1.539 . S
C893 H907 0.958 . S
C893 H908 0.961 . S
C893 H909 0.960 . S
H894 C878 0.931 . S
H895 C883 0.929 . S
H896 C884 0.960 . S
H897 C884 0.962 . S
H898 C884 0.960 . S
H899 C885 0.961 . S
H900 C885 0.961 . S
H901 C885 0.961 . S
H902 C886 0.931 . S
H903 C891 0.930 . S
H904 C892 0.956 . S
H905 C892 0.961 . S
H906 C892 0.961 . S
H907 C893 0.958 . S
H908 C893 0.961 . S
H909 C893 0.960 . S
C910 C911 1.391 . S
C910 C912 1.394 . S
C910 H926 0.931 . S
C911 C910 1.391 . S
C911 C915 1.376 . S
C912 C910 1.394 . S
C912 C913 1.369 . S
C912 C916 1.531 . S
C913 C912 1.369 . S
C913 C914 1.410 . S
C913 C921 1.503 . S
C914 C913 1.410 . S
C914 C915 1.392 . S
C914 C917 1.511 . S
C915 C911 1.376 . S
C915 C914 1.392 . S
C915 H927 0.929 . S
C916 C912 1.531 . S
C916 H928 0.960 . S
C916 H929 0.962 . S
C916 H930 0.960 . S
C917 C914 1.511 . S
C917 H931 0.961 . S
C917 H932 0.961 . S
C917 H933 0.961 . S
C918 C919 1.370 . S
C918 C920 1.363 . S
C918 H934 0.931 . S
C919 C918 1.370 . S
C919 C923 1.408 . S
C920 C918 1.363 . S
C920 C921 1.370 . S
C920 C924 1.524 . S
C921 C913 1.503 . S
C921 C920 1.370 . S
C921 C922 1.403 . S
C922 C921 1.403 . S
C922 C923 1.404 . S
C922 C925 1.539 . S
C923 C919 1.408 . S
C923 C922 1.404 . S
C923 H935 0.930 . S
C924 C920 1.524 . S
C924 H936 0.955 1_554 S
C924 H937 0.961 . S
C924 H938 0.961 1_554 S
C925 C922 1.539 . S
C925 H939 0.958 . S
C925 H940 0.961 . S
C925 H941 0.960 . S
H926 C910 0.931 . S
H927 C915 0.929 . S
H928 C916 0.960 . S
H929 C916 0.962 . S
H930 C916 0.960 . S
H931 C917 0.961 . S
H932 C917 0.961 . S
H933 C917 0.961 . S
H934 C918 0.931 . S
H935 C923 0.930 . S
H936 C924 0.955 1_556 S
H937 C924 0.961 . S
H938 C924 0.961 1_556 S
H939 C925 0.958 . S
H940 C925 0.961 . S
H941 C925 0.960 . S
C942 C943 1.391 . S
C942 C944 1.394 . S
C942 H958 0.931 . S
C943 C942 1.391 . S
C943 C947 1.376 . S
C944 C942 1.394 . S
C944 C945 1.369 . S
C944 C948 1.531 . S
C945 C944 1.369 . S
C945 C946 1.410 . S
C945 C953 1.503 . S
C946 C945 1.410 . S
C946 C947 1.392 . S
C946 C949 1.511 . S
C947 C943 1.376 . S
C947 C946 1.392 . S
C947 H959 0.929 . S
C948 C944 1.531 . S
C948 H960 0.960 . S
C948 H961 0.962 . S
C948 H962 0.960 . S
C949 C946 1.511 . S
C949 H963 0.961 . S
C949 H964 0.961 . S
C949 H965 0.961 . S
C950 C951 1.370 . S
C950 C952 1.363 . S
C950 H966 0.931 . S
C951 C950 1.370 . S
C951 C955 1.408 . S
C952 C950 1.363 . S
C952 C953 1.370 . S
C952 C956 1.524 . S
C953 C945 1.503 . S
C953 C952 1.370 . S
C953 C954 1.403 . S
C954 C953 1.403 . S
C954 C955 1.404 . S
C954 C957 1.539 . S
C955 C951 1.408 . S
C955 C954 1.404 . S
C955 H967 0.930 . S
C956 C952 1.524 . S
C956 H968 0.956 . S
C956 H969 0.961 . S
C956 H970 0.961 . S
C957 C954 1.539 . S
C957 H971 0.958 . S
C957 H972 0.961 . S
C957 H973 0.960 . S
H958 C942 0.931 . S
H959 C947 0.929 . S
H960 C948 0.960 . S
H961 C948 0.962 . S
H962 C948 0.960 . S
H963 C949 0.961 . S
H964 C949 0.961 . S
H965 C949 0.961 . S
H966 C950 0.931 . S
H967 C955 0.930 . S
H968 C956 0.956 . S
H969 C956 0.961 . S
H970 C956 0.961 . S
H971 C957 0.958 . S
H972 C957 0.961 . S
H973 C957 0.960 . S
C974 C975 1.391 . S
C974 C976 1.394 . S
C974 H990 0.931 . S
C975 C974 1.391 . S
C975 C979 1.376 . S
C976 C974 1.394 . S
C976 C977 1.369 . S
C976 C980 1.531 . S
C977 C976 1.369 . S
C977 C978 1.410 . S
C977 C985 1.503 . S
C978 C977 1.410 . S
C978 C979 1.392 . S
C978 C981 1.511 . S
C979 C975 1.376 . S
C979 C978 1.392 . S
C979 H991 0.929 . S
C980 C976 1.531 . S
C980 H992 0.960 . S
C980 H993 0.962 . S
C980 H994 0.960 . S
C981 C978 1.511 . S
C981 H995 0.961 . S
C981 H996 0.961 . S
C981 H997 0.961 . S
C982 C983 1.370 . S
C982 C984 1.363 . S
C982 H998 0.931 . S
C983 C982 1.370 . S
C983 C987 1.408 . S
C984 C982 1.363 . S
C984 C985 1.370 . S
C984 C988 1.524 . S
C985 C977 1.503 . S
C985 C984 1.370 . S
C985 C986 1.403 . S
C986 C985 1.403 . S
C986 C987 1.404 . S
C986 C989 1.539 . S
C987 C983 1.408 . S
C987 C986 1.404 . S
C987 H999 0.930 . S
C988 C984 1.524 . S
C988 H1000 0.956 . S
C988 H1001 0.961 . S
C988 H1002 0.961 . S
C989 C986 1.539 . S
C989 H1003 0.958 . S
C989 H1004 0.961 . S
C989 H1005 0.960 . S
H990 C974 0.931 . S
H991 C979 0.929 . S
H992 C980 0.960 . S
H993 C980 0.962 . S
H994 C980 0.960 . S
H995 C981 0.961 . S
H996 C981 0.961 . S
H997 C981 0.961 . S
H998 C982 0.931 . S
H999 C987 0.930 . S
H1000 C988 0.956 . S
H1001 C988 0.961 . S
H1002 C988 0.961 . S
H1003 C989 0.958 . S
H1004 C989 0.961 . S
H1005 C989 0.960 . S
C1006 C1007 1.391 . S
C1006 C1008 1.394 . S
C1006 H1022 0.931 . S
C1007 C1006 1.391 . S
C1007 C1011 1.376 . S
C1008 C1006 1.394 . S
C1008 C1009 1.369 . S
C1008 C1012 1.531 . S
C1009 C1008 1.369 . S
C1009 C1010 1.410 . S
C1009 C1017 1.503 . S
C1010 C1009 1.410 . S
C1010 C1011 1.392 . S
C1010 C1013 1.511 . S
C1011 C1007 1.376 . S
C1011 C1010 1.392 . S
C1011 H1023 0.929 . S
C1012 C1008 1.531 . S
C1012 H1024 0.960 . S
C1012 H1025 0.962 . S
C1012 H1026 0.960 . S
C1013 C1010 1.511 . S
C1013 H1027 0.961 . S
C1013 H1028 0.961 . S
C1013 H1029 0.961 . S
C1014 C1015 1.370 . S
C1014 C1016 1.363 . S
C1014 H1030 0.931 . S
C1015 C1014 1.370 . S
C1015 C1019 1.408 . S
C1016 C1014 1.363 . S
C1016 C1017 1.370 . S
C1016 C1020 1.524 . S
C1017 C1009 1.503 . S
C1017 C1016 1.370 . S
C1017 C1018 1.403 . S
C1018 C1017 1.403 . S
C1018 C1019 1.404 . S
C1018 C1021 1.539 . S
C1019 C1015 1.408 . S
C1019 C1018 1.404 . S
C1019 H1031 0.930 . S
C1020 C1016 1.524 . S
C1020 H1032 0.956 . S
C1020 H1033 0.961 . S
C1020 H1034 0.961 . S
C1021 C1018 1.539 . S
C1021 H1035 0.958 . S
C1021 H1036 0.961 . S
C1021 H1037 0.960 . S
H1022 C1006 0.931 . S
H1023 C1011 0.929 . S
H1024 C1012 0.960 . S
H1025 C1012 0.962 . S
H1026 C1012 0.960 . S
H1027 C1013 0.961 . S
H1028 C1013 0.961 . S
H1029 C1013 0.961 . S
H1030 C1014 0.931 . S
H1031 C1019 0.930 . S
H1032 C1020 0.956 . S
H1033 C1020 0.961 . S
H1034 C1020 0.961 . S
H1035 C1021 0.958 . S
H1036 C1021 0.961 . S
H1037 C1021 0.960 . S
C1038 C1039 1.391 . S
C1038 C1040 1.394 . S
C1038 H1054 0.931 . S
C1039 C1038 1.391 . S
C1039 C1043 1.376 . S
C1040 C1038 1.394 . S
C1040 C1041 1.369 . S
C1040 C1044 1.531 . S
C1041 C1040 1.369 . S
C1041 C1042 1.410 . S
C1041 C1049 1.503 . S
C1042 C1041 1.410 . S
C1042 C1043 1.392 . S
C1042 C1045 1.511 . S
C1043 C1039 1.376 . S
C1043 C1042 1.392 . S
C1043 H1055 0.929 . S
C1044 C1040 1.531 . S
C1044 H1056 0.960 . S
C1044 H1057 0.962 . S
C1044 H1058 0.960 . S
C1045 C1042 1.511 . S
C1045 H1059 0.961 . S
C1045 H1060 0.961 . S
C1045 H1061 0.961 . S
C1046 C1047 1.370 . S
C1046 C1048 1.363 . S
C1046 H1062 0.931 . S
C1047 C1046 1.370 . S
C1047 C1051 1.408 . S
C1048 C1046 1.363 . S
C1048 C1049 1.370 . S
C1048 C1052 1.524 . S
C1049 C1041 1.503 . S
C1049 C1048 1.370 . S
C1049 C1050 1.403 . S
C1050 C1049 1.403 . S
C1050 C1051 1.404 . S
C1050 C1053 1.539 . S
C1051 C1047 1.408 . S
C1051 C1050 1.404 . S
C1051 H1063 0.930 . S
C1052 C1048 1.524 . S
C1052 H1064 0.956 . S
C1052 H1065 0.961 . S
C1052 H1066 0.961 . S
C1053 C1050 1.539 . S
C1053 H1067 0.958 . S
C1053 H1068 0.961 . S
C1053 H1069 0.960 . S
H1054 C1038 0.931 . S
H1055 C1043 0.929 . S
H1056 C1044 0.960 . S
H1057 C1044 0.962 . S
H1058 C1044 0.960 . S
H1059 C1045 0.961 . S
H1060 C1045 0.961 . S
H1061 C1045 0.961 . S
H1062 C1046 0.931 . S
H1063 C1051 0.930 . S
H1064 C1052 0.956 . S
H1065 C1052 0.961 . S
H1066 C1052 0.961 . S
H1067 C1053 0.958 . S
H1068 C1053 0.961 . S
H1069 C1053 0.960 . S
C1070 C1071 1.391 . S
C1070 C1072 1.394 . S
C1070 H1086 0.931 . S
C1071 C1070 1.391 . S
C1071 C1075 1.376 . S
C1072 C1070 1.394 . S
C1072 C1073 1.369 . S
C1072 C1076 1.531 . S
C1073 C1072 1.369 . S
C1073 C1074 1.410 . S
C1073 C1081 1.503 . S
C1074 C1073 1.410 . S
C1074 C1075 1.392 . S
C1074 C1077 1.511 . S
C1075 C1071 1.376 . S
C1075 C1074 1.392 . S
C1075 H1087 0.929 . S
C1076 C1072 1.531 . S
C1076 H1088 0.960 . S
C1076 H1089 0.962 . S
C1076 H1090 0.960 . S
C1077 C1074 1.511 . S
C1077 H1091 0.961 . S
C1077 H1092 0.961 . S
C1077 H1093 0.961 . S
C1078 C1079 1.370 . S
C1078 C1080 1.363 . S
C1078 H1094 0.937 . S
C1079 C1078 1.370 . S
C1079 C1083 1.408 . S
C1080 C1078 1.363 . S
C1080 C1081 1.370 . S
C1080 C1084 1.558 . S
C1081 C1073 1.503 . S
C1081 C1080 1.370 . S
C1081 C1082 1.403 . S
C1082 C1081 1.403 . S
C1082 C1083 1.404 . S
C1082 C1085 1.539 . S
C1083 C1079 1.408 . S
C1083 C1082 1.404 . S
C1083 H1095 0.930 . S
C1084 C1080 1.558 . S
C1084 H1096 0.944 1_655 S
C1084 H1097 0.957 . S
C1084 H1098 0.943 1_655 S
C1085 C1082 1.539 . S
C1085 H1099 0.958 . S
C1085 H1100 0.961 . S
C1085 H1101 0.960 . S
H1086 C1070 0.931 . S
H1087 C1075 0.929 . S
H1088 C1076 0.960 . S
H1089 C1076 0.962 . S
H1090 C1076 0.960 . S
H1091 C1077 0.961 . S
H1092 C1077 0.961 . S
H1093 C1077 0.961 . S
H1094 C1078 0.937 . S
H1095 C1083 0.930 . S
H1096 C1084 0.944 1_455 S
H1097 C1084 0.957 . S
H1098 C1084 0.943 1_455 S
H1099 C1085 0.958 . S
H1100 C1085 0.961 . S
H1101 C1085 0.960 . S
C1102 C1103 1.391 . S
C1102 C1104 1.394 . S
C1102 H1118 0.931 . S
C1103 C1102 1.391 . S
C1103 C1107 1.376 . S
C1104 C1102 1.394 . S
C1104 C1105 1.369 . S
C1104 C1108 1.531 . S
C1105 C1104 1.369 . S
C1105 C1106 1.410 . S
C1105 C1113 1.503 . S
C1106 C1105 1.410 . S
C1106 C1107 1.392 . S
C1106 C1109 1.511 . S
C1107 C1103 1.376 . S
C1107 C1106 1.392 . S
C1107 H1119 0.929 . S
C1108 C1104 1.531 . S
C1108 H1120 0.960 . S
C1108 H1121 0.962 . S
C1108 H1122 0.960 . S
C1109 C1106 1.511 . S
C1109 H1123 0.961 . S
C1109 H1124 0.961 . S
C1109 H1125 0.961 . S
C1110 C1111 1.370 . S
C1110 C1112 1.363 . S
C1110 H1126 0.931 . S
C1111 C1110 1.370 . S
C1111 C1115 1.408 . S
C1112 C1110 1.363 . S
C1112 C1113 1.370 . S
C1112 C1116 1.524 . S
C1113 C1105 1.503 . S
C1113 C1112 1.370 . S
C1113 C1114 1.403 . S
C1114 C1113 1.403 . S
C1114 C1115 1.404 . S
C1114 C1117 1.539 . S
C1115 C1111 1.408 . S
C1115 C1114 1.404 . S
C1115 H1127 0.930 . S
C1116 C1112 1.524 . S
C1116 H1128 0.956 . S
C1116 H1129 0.961 . S
C1116 H1130 0.961 . S
C1117 C1114 1.539 . S
C1117 H1131 0.958 . S
C1117 H1132 0.961 . S
C1117 H1133 0.960 . S
H1118 C1102 0.931 . S
H1119 C1107 0.929 . S
H1120 C1108 0.960 . S
H1121 C1108 0.962 . S
H1122 C1108 0.960 . S
H1123 C1109 0.961 . S
H1124 C1109 0.961 . S
H1125 C1109 0.961 . S
H1126 C1110 0.931 . S
H1127 C1115 0.930 . S
H1128 C1116 0.956 . S
H1129 C1116 0.961 . S
H1130 C1116 0.961 . S
H1131 C1117 0.958 . S
H1132 C1117 0.961 . S
H1133 C1117 0.960 . S
C271 C10 1.078 . S
C279 C1 1.055 . S
C303 C31 1.076 . S
C311 C40 1.074 . S
C335 C70 1.090 . S
C343 C61 1.103 . S
C367 C91 1.061 . S
C375 C100 1.061 . S
C399 C130 1.059 . S
C407 C121 1.082 . S
C431 C151 1.075 . S
C439 C160 1.108 . S
C463 C207 1.061 . S
C471 C196 1.109 . S
C495 C226 1.064 . S
C503 C237 1.067 . S
C527 C267 1.012 . S
C535 C256 1.051 . S
C559 N164 1.429 . S
C567 C27 1.456 . S
C591 N44 1.090 . S
C599 N104 1.025 . S
C623 C87 1.862 . S
C631 C147 1.902 . S
C655 N74 0.866 . S
C663 N186 0.785 . S
C687 C211 1.490 . S
C695 N14 1.381 . S
C719 N246 1.345 . S
C727 C57 1.368 . S
C751 C250 1.885 . S
C759 C16 1.864 . S
C783 N36 0.967 . S
C791 C190 0.983 . S
C815 N224 1.153 . S
C823 C76 1.142 . S
C847 N66 1.396 . S
C855 C106 1.459 . S
C879 N126 1.052 . S
C887 N6 1.048 . S
C911 C46 1.894 . S
C919 C166 1.869 . S
C943 C241 1.893 . S
C951 C117 1.861 . S
C975 C181 1.012 . S
C983 N134 0.909 . S
C1007 N216 1.090 . S
C1015 C177 1.129 . S
C1039 N194 0.717 . S
C1047 N156 0.800 . S
C1071 N96 1.374 1_545 S
C1079 C220 1.491 . S
C1103 N254 1.366 . S
C1111 C136 1.368 . S
