# Generated by pormake.
# Topology yfw, (5)-cn, num edge types: 1
# Building blocks:
#     Node 0, Type 0, BuildingBlock: XOMCOT_clean_sbu_0, # of connection points: 5
#     Node 1, Type 0, BuildingBlock: XOMCOT_clean_sbu_0, # of connection points: 5
#     Node 2, Type 0, BuildingBlock: XOMCOT_clean_sbu_0, # of connection points: 5
#     Node 3, Type 0, BuildingBlock: XOMCOT_clean_sbu_0, # of connection points: 5
#     Node 4, Type 0, BuildingBlock: XOMCOT_clean_sbu_0, # of connection points: 5
#     Node 5, Type 0, BuildingBlock: XOMCOT_clean_sbu_0, # of connection points: 5
#     Node 6, Type 0, BuildingBlock: XOMCOT_clean_sbu_0, # of connection points: 5
#     Node 7, Type 0, BuildingBlock: XOMCOT_clean_sbu_0, # of connection points: 5
#     Node 8, Type 0, BuildingBlock: XOMCOT_clean_sbu_0, # of connection points: 5
#     Node 9, Type 0, BuildingBlock: XOMCOT_clean_sbu_0, # of connection points: 5
#     Node 10, Type 0, BuildingBlock: XOMCOT_clean_sbu_0, # of connection points: 5
#     Node 11, Type 0, BuildingBlock: XOMCOT_clean_sbu_0, # of connection points: 5
#     Node 12, Type 0, BuildingBlock: XOMCOT_clean_sbu_0, # of connection points: 5
#     Node 13, Type 0, BuildingBlock: XOMCOT_clean_sbu_0, # of connection points: 5
#     Node 14, Type 0, BuildingBlock: XOMCOT_clean_sbu_0, # of connection points: 5
#     Node 15, Type 0, BuildingBlock: XOMCOT_clean_sbu_0, # of connection points: 5
#     Edge 16, Type (0, 0), BuildingBlock: UVAHIK_clean_linker_0, # of connection points: 2
#     Edge 17, Type (0, 0), BuildingBlock: UVAHIK_clean_linker_0, # of connection points: 2
#     Edge 18, Type (0, 0), BuildingBlock: UVAHIK_clean_linker_0, # of connection points: 2
#     Edge 19, Type (0, 0), BuildingBlock: UVAHIK_clean_linker_0, # of connection points: 2
#     Edge 20, Type (0, 0), BuildingBlock: UVAHIK_clean_linker_0, # of connection points: 2
#     Edge 21, Type (0, 0), BuildingBlock: UVAHIK_clean_linker_0, # of connection points: 2
#     Edge 22, Type (0, 0), BuildingBlock: UVAHIK_clean_linker_0, # of connection points: 2
#     Edge 23, Type (0, 0), BuildingBlock: UVAHIK_clean_linker_0, # of connection points: 2
#     Edge 24, Type (0, 0), BuildingBlock: UVAHIK_clean_linker_0, # of connection points: 2
#     Edge 25, Type (0, 0), BuildingBlock: UVAHIK_clean_linker_0, # of connection points: 2
#     Edge 26, Type (0, 0), BuildingBlock: UVAHIK_clean_linker_0, # of connection points: 2
#     Edge 27, Type (0, 0), BuildingBlock: UVAHIK_clean_linker_0, # of connection points: 2
#     Edge 28, Type (0, 0), BuildingBlock: UVAHIK_clean_linker_0, # of connection points: 2
#     Edge 29, Type (0, 0), BuildingBlock: UVAHIK_clean_linker_0, # of connection points: 2
#     Edge 30, Type (0, 0), BuildingBlock: UVAHIK_clean_linker_0, # of connection points: 2
#     Edge 31, Type (0, 0), BuildingBlock: UVAHIK_clean_linker_0, # of connection points: 2
#     Edge 32, Type (0, 0), BuildingBlock: UVAHIK_clean_linker_0, # of connection points: 2
#     Edge 33, Type (0, 0), BuildingBlock: UVAHIK_clean_linker_0, # of connection points: 2
#     Edge 34, Type (0, 0), BuildingBlock: UVAHIK_clean_linker_0, # of connection points: 2
#     Edge 35, Type (0, 0), BuildingBlock: UVAHIK_clean_linker_0, # of connection points: 2
#     Edge 36, Type (0, 0), BuildingBlock: UVAHIK_clean_linker_0, # of connection points: 2
#     Edge 37, Type (0, 0), BuildingBlock: UVAHIK_clean_linker_0, # of connection points: 2
#     Edge 38, Type (0, 0), BuildingBlock: UVAHIK_clean_linker_0, # of connection points: 2
#     Edge 39, Type (0, 0), BuildingBlock: UVAHIK_clean_linker_0, # of connection points: 2
#     Edge 40, Type (0, 0), BuildingBlock: UVAHIK_clean_linker_0, # of connection points: 2
#     Edge 41, Type (0, 0), BuildingBlock: UVAHIK_clean_linker_0, # of connection points: 2
#     Edge 42, Type (0, 0), BuildingBlock: UVAHIK_clean_linker_0, # of connection points: 2
#     Edge 43, Type (0, 0), BuildingBlock: UVAHIK_clean_linker_0, # of connection points: 2
#     Edge 44, Type (0, 0), BuildingBlock: UVAHIK_clean_linker_0, # of connection points: 2
#     Edge 45, Type (0, 0), BuildingBlock: UVAHIK_clean_linker_0, # of connection points: 2
#     Edge 46, Type (0, 0), BuildingBlock: UVAHIK_clean_linker_0, # of connection points: 2
#     Edge 47, Type (0, 0), BuildingBlock: UVAHIK_clean_linker_0, # of connection points: 2
#     Edge 48, Type (0, 0), BuildingBlock: UVAHIK_clean_linker_0, # of connection points: 2
#     Edge 49, Type (0, 0), BuildingBlock: UVAHIK_clean_linker_0, # of connection points: 2
#     Edge 50, Type (0, 0), BuildingBlock: UVAHIK_clean_linker_0, # of connection points: 2
#     Edge 51, Type (0, 0), BuildingBlock: UVAHIK_clean_linker_0, # of connection points: 2
#     Edge 52, Type (0, 0), BuildingBlock: UVAHIK_clean_linker_0, # of connection points: 2
#     Edge 53, Type (0, 0), BuildingBlock: UVAHIK_clean_linker_0, # of connection points: 2
#     Edge 54, Type (0, 0), BuildingBlock: UVAHIK_clean_linker_0, # of connection points: 2
#     Edge 55, Type (0, 0), BuildingBlock: UVAHIK_clean_linker_0, # of connection points: 2
# Relax obj value: 0.118
# Max RMSD: 0.166
# Mean RMSD: 0.166
data_MOF--net-yfw--node1-XOMCOT_clean_sbu_0--edge1-UVAHIK_clean_linker_0
_symmetry_space_group_name_H-M    P1
_symmetry_Int_Tables_number       1
_symmetry_cell_setting            triclinic
loop_
_symmetry_equiv_pos_as_xyz
'x, y, z'
_cell_length_a     72.214699
_cell_length_b     72.310612
_cell_length_c     31.000076
_cell_angle_alpha  90.040973
_cell_angle_beta   89.963894
_cell_angle_gamma 90.00164
loop_
_atom_site_label
_atom_site_type_symbol
_atom_site_fract_x
_atom_site_fract_y
_atom_site_fract_z
_atom_type_partial_charge
Co0 Co 0.13282 0.07791 0.99809 0.0
C1 C 0.17151 0.08639 0.97309 0.0
C2 C 0.16862 0.08228 0.04135 0.0
C3 C 0.18698 0.08569 0.03232 0.0
N4 N 0.159 0.08249 1.00417 0.0
N5 N 0.18872 0.08828 0.98943 0.0
H6 H 0.16825 0.08753 0.93916 0.0
H7 H 0.16275 0.07987 0.0729 0.0
C8 C 0.13635 0.0486 0.0528 0.0
O9 O 0.13127 0.06286 0.07626 0.0
N10 N 0.10655 0.07367 0.9915 0.0
C11 C 0.09548 0.08354 0.96522 0.0
C12 C 0.07792 0.07629 0.96683 0.0
C13 C 0.09557 0.06051 0.00887 0.0
N14 N 0.07799 0.06178 0.99414 0.0
C15 C 0.13321 0.11694 0.97551 0.0
C16 C 0.11704 0.12711 0.0531 0.0
C17 C 0.12198 0.141 0.02367 0.0
C18 C 0.13021 0.13574 0.98435 0.0
C19 C 0.12023 0.10867 0.043 0.0
N20 N 0.12813 0.10385 1.00486 0.0
H21 H 0.13975 0.11291 0.94558 0.0
H22 H 0.11662 0.09803 0.06602 0.0
H23 H 0.09994 0.0951 0.94572 0.0
H24 H 0.10033 0.0499 0.03069 0.0
O25 O 0.13487 0.0778 0.93402 0.0
O26 O 0.13811 0.05304 0.97025 0.0
O27 O 0.13745 0.05075 0.01151 0.0
C28 C 0.1377 0.06053 0.93248 0.0
H29 H 0.19816 0.08639 0.05551 0.0
H30 H 0.06603 0.08134 0.94919 0.0
H31 H 0.11115 0.13043 0.08429 0.0
H32 H 0.13426 0.146 0.96074 0.0
Co33 Co 0.92121 0.62948 0.26167 0.0
C34 C 0.91397 0.66839 0.23838 0.0
C35 C 0.91812 0.66509 0.3065 0.0
C36 C 0.91453 0.68346 0.29808 0.0
N37 N 0.91784 0.65572 0.26901 0.0
N38 N 0.91194 0.68551 0.25519 0.0
H39 H 0.91223 0.66512 0.20459 0.0
H40 H 0.92061 0.65899 0.33778 0.0
C41 C 0.95051 0.62962 0.32142 0.0
O42 O 0.9361 0.62493 0.34491 0.0
N43 N 0.92428 0.60314 0.25337 0.0
C44 C 0.91517 0.59301 0.22374 0.0
C45 C 0.92219 0.57535 0.22378 0.0
C46 C 0.93672 0.59148 0.27113 0.0
N47 N 0.93582 0.57439 0.25349 0.0
C48 C 0.88298 0.63105 0.23092 0.0
C49 C 0.86987 0.61472 0.30591 0.0
C50 C 0.85722 0.61929 0.27336 0.0
C51 C 0.86389 0.6278 0.23558 0.0
C52 C 0.88859 0.61828 0.30008 0.0
N53 N 0.89488 0.62607 0.26303 0.0
H54 H 0.88819 0.63741 0.20181 0.0
H55 H 0.89833 0.6147 0.32523 0.0
H56 H 0.90463 0.59831 0.20231 0.0
H57 H 0.9465 0.5954 0.29571 0.0
O58 O 0.92429 0.6327 0.19769 0.0
O59 O 0.94725 0.63355 0.2406 0.0
O60 O 0.94819 0.63222 0.28053 0.0
C61 C 0.94173 0.63434 0.20115 0.0
H62 H 0.91401 0.69446 0.32174 0.0
H63 H 0.91815 0.56437 0.20202 0.0
H64 H 0.86533 0.60857 0.33596 0.0
H65 H 0.85452 0.63161 0.20981 0.0
Co66 Co 0.36535 0.42402 0.51843 0.0
C67 C 0.32586 0.41644 0.49774 0.0
C68 C 0.33171 0.41445 0.56546 0.0
C69 C 0.31348 0.40966 0.55882 0.0
N70 N 0.33943 0.41871 0.52721 0.0
N71 N 0.30984 0.41092 0.51624 0.0
H72 H 0.32774 0.418 0.46335 0.0
H73 H 0.339 0.41429 0.59591 0.0
C74 C 0.36072 0.45456 0.56914 0.0
O75 O 0.36528 0.44091 0.59495 0.0
N76 N 0.39137 0.42895 0.50973 0.0
C77 C 0.40269 0.41894 0.48424 0.0
C78 C 0.42012 0.42655 0.48556 0.0
C79 C 0.40203 0.44257 0.52616 0.0
N80 N 0.41968 0.44142 0.51185 0.0
C81 C 0.3648 0.38444 0.5027 0.0
C82 C 0.38298 0.37679 0.57938 0.0
C83 C 0.37635 0.36205 0.55438 0.0
C84 C 0.3675 0.36597 0.51505 0.0
C85 C 0.38007 0.39487 0.56584 0.0
N86 N 0.37097 0.39844 0.52843 0.0
H87 H 0.35728 0.38752 0.47342 0.0
H88 H 0.38466 0.40623 0.58587 0.0
H89 H 0.39848 0.40701 0.4656 0.0
H90 H 0.3971 0.45306 0.54812 0.0
O91 O 0.36262 0.42229 0.45462 0.0
O92 O 0.35905 0.44792 0.48732 0.0
O93 O 0.35998 0.45132 0.52818 0.0
C94 C 0.3594 0.43944 0.45067 0.0
H95 H 0.30371 0.40541 0.58338 0.0
H96 H 0.43207 0.4218 0.4676 0.0
H97 H 0.39012 0.37437 0.60958 0.0
H98 H 0.36212 0.35494 0.495 0.0
Co99 Co 0.57986 0.86774 0.75588 0.0
C100 C 0.58888 0.82915 0.73195 0.0
C101 C 0.58204 0.8317 0.7991 0.0
C102 C 0.58551 0.81336 0.79014 0.0
N103 N 0.58395 0.84153 0.76249 0.0
N104 N 0.5898 0.81183 0.74793 0.0
H105 H 0.59136 0.8326 0.69851 0.0
H106 H 0.57832 0.83739 0.83014 0.0
C107 C 0.54881 0.86484 0.80671 0.0
O108 O 0.5624 0.86937 0.83275 0.0
N109 N 0.5761 0.89401 0.74881 0.0
C110 C 0.58573 0.90489 0.72163 0.0
C111 C 0.57868 0.92253 0.72368 0.0
C112 C 0.56337 0.90516 0.76721 0.0
N113 N 0.56458 0.92269 0.75228 0.0
C114 C 0.6194 0.86855 0.73675 0.0
C115 C 0.6278 0.88312 0.81714 0.0
C116 C 0.64228 0.87994 0.78784 0.0
C117 C 0.63794 0.87237 0.74722 0.0
C118 C 0.60967 0.87917 0.80542 0.0
N119 N 0.6057 0.87219 0.76583 0.0
H120 H 0.61607 0.86276 0.70556 0.0
H121 H 0.59856 0.88171 0.82807 0.0
H122 H 0.59686 0.90022 0.70097 0.0
H123 H 0.55337 0.90065 0.79076 0.0
O124 O 0.58113 0.86542 0.69186 0.0
O125 O 0.55552 0.86282 0.72509 0.0
O126 O 0.55227 0.86358 0.7659 0.0
C127 C 0.56385 0.86283 0.68824 0.0
H128 H 0.58499 0.80205 0.81296 0.0
H129 H 0.58318 0.93414 0.70434 0.0
H130 H 0.63044 0.88843 0.84922 0.0
H131 H 0.64869 0.86965 0.72369 0.0
Co132 Co 0.87172 0.07928 0.51952 0.0
C133 C 0.83334 0.0876 0.49088 0.0
C134 C 0.83643 0.08928 0.55961 0.0
C135 C 0.81847 0.09379 0.54916 0.0
N136 N 0.84571 0.08529 0.52312 0.0
N137 N 0.81654 0.09276 0.5059 0.0
H138 H 0.83664 0.0861 0.45706 0.0
H139 H 0.84237 0.08926 0.59159 0.0
C140 C 0.865 0.05088 0.57468 0.0
O141 O 0.86905 0.06553 0.59788 0.0
N142 N 0.8978 0.07366 0.51552 0.0
C143 C 0.90982 0.0827 0.48988 0.0
C144 C 0.92699 0.0748 0.49415 0.0
C145 C 0.90781 0.0603 0.53508 0.0
N146 N 0.92576 0.06072 0.52254 0.0
C147 C 0.87291 0.11841 0.4976 0.0
C148 C 0.89048 0.12759 0.57419 0.0
C149 C 0.88586 0.14179 0.54533 0.0
C150 C 0.87688 0.13705 0.50656 0.0
C151 C 0.88623 0.10935 0.56412 0.0
N152 N 0.87771 0.105 0.5264 0.0
H153 H 0.86584 0.11477 0.46807 0.0
H154 H 0.88957 0.09849 0.5868 0.0
H155 H 0.90623 0.09409 0.4689 0.0
H156 H 0.90215 0.05047 0.55775 0.0
O157 O 0.87081 0.07903 0.45532 0.0
O158 O 0.86565 0.05458 0.49159 0.0
O159 O 0.86559 0.05242 0.53318 0.0
C160 C 0.86714 0.0619 0.45376 0.0
H161 H 0.80769 0.0975 0.57182 0.0
H162 H 0.9393 0.07875 0.47648 0.0
H163 H 0.89695 0.13054 0.60494 0.0
H164 H 0.87302 0.14759 0.48346 0.0
Co165 Co 0.92188 0.37297 0.7603 0.0
C166 C 0.91596 0.3339 0.7373 0.0
C167 C 0.92686 0.33668 0.80143 0.0
C168 C 0.92496 0.31812 0.79214 0.0
N169 N 0.92138 0.34649 0.76685 0.0
N170 N 0.9181 0.31644 0.75183 0.0
H171 H 0.91096 0.3374 0.70545 0.0
H172 H 0.93199 0.34254 0.83118 0.0
C173 C 0.95196 0.37616 0.8176 0.0
O174 O 0.93762 0.3803 0.84188 0.0
N175 N 0.92212 0.39959 0.75267 0.0
C176 C 0.91058 0.40913 0.72674 0.0
C177 C 0.91632 0.42725 0.72487 0.0
C178 C 0.93477 0.41209 0.76613 0.0
N179 N 0.93155 0.42905 0.74959 0.0
C180 C 0.88326 0.36959 0.7321 0.0
C181 C 0.87049 0.3775 0.81448 0.0
C182 C 0.85761 0.3736 0.78201 0.0
C183 C 0.86408 0.36983 0.7401 0.0
C184 C 0.88927 0.37738 0.80504 0.0
N185 N 0.89538 0.37345 0.76465 0.0
H186 H 0.88834 0.36635 0.70017 0.0
H187 H 0.89919 0.3803 0.83025 0.0
H188 H 0.89921 0.4032 0.70878 0.0
H189 H 0.94673 0.40884 0.78544 0.0
O190 O 0.92434 0.37021 0.69595 0.0
O191 O 0.94785 0.37163 0.73718 0.0
O192 O 0.94927 0.3729 0.77707 0.0
C193 C 0.94191 0.37029 0.69816 0.0
H194 H 0.92829 0.30676 0.81347 0.0
H195 H 0.91004 0.43813 0.7059 0.0
H196 H 0.86606 0.38072 0.84704 0.0
H197 H 0.85448 0.36677 0.71425 0.0
Co198 Co 0.6296 0.42347 0.99954 0.0
C199 C 0.66851 0.41698 0.97313 0.0
C200 C 0.66554 0.41879 0.04189 0.0
C201 C 0.68374 0.4147 0.03241 0.0
N202 N 0.65605 0.42028 1.00471 0.0
N203 N 0.68555 0.41357 0.98915 0.0
H204 H 0.66514 0.41626 0.93921 0.0
H205 H 0.65955 0.42003 0.07373 0.0
C206 C 0.63238 0.4545 0.04961 0.0
O207 O 0.62918 0.44066 0.07596 0.0
N208 N 0.60309 0.42624 0.99388 0.0
C209 C 0.59218 0.41509 0.97012 0.0
C210 C 0.57435 0.42168 0.97157 0.0
C211 C 0.59175 0.43948 0.00957 0.0
N212 N 0.57409 0.43706 0.99623 0.0
C213 C 0.63199 0.38389 0.98341 0.0
C214 C 0.61771 0.37539 0.06405 0.0
C215 C 0.62378 0.36097 0.03734 0.0
C216 C 0.63068 0.3653 0.99613 0.0
C217 C 0.61913 0.39358 0.05005 0.0
N218 N 0.6263 0.39758 0.01064 0.0
H219 H 0.63794 0.3873 0.95241 0.0
H220 H 0.61484 0.40471 0.07113 0.0
H221 H 0.59693 0.40311 0.95238 0.0
H222 H 0.59632 0.45096 0.02909 0.0
O223 O 0.6312 0.42188 0.93549 0.0
O224 O 0.63332 0.44774 0.96785 0.0
O225 O 0.63288 0.45116 0.00867 0.0
C226 C 0.63319 0.4392 0.93127 0.0
H227 H 0.69472 0.41252 0.05559 0.0
H228 H 0.56251 0.41561 0.95554 0.0
H229 H 0.61205 0.37264 0.09578 0.0
H230 H 0.63556 0.35451 0.97471 0.0
Co231 Co 0.58047 0.13182 0.25765 0.0
C232 C 0.58787 0.17059 0.23215 0.0
C233 C 0.58471 0.16766 0.30064 0.0
C234 C 0.58851 0.18591 0.29152 0.0
N235 N 0.5842 0.15812 0.26338 0.0
N236 N 0.59048 0.18772 0.24841 0.0
H237 H 0.58914 0.16719 0.19833 0.0
H238 H 0.58272 0.16175 0.33231 0.0
C239 C 0.54954 0.13511 0.30854 0.0
O240 O 0.56332 0.13135 0.33471 0.0
N241 N 0.57708 0.10546 0.25164 0.0
C242 C 0.58706 0.09443 0.22547 0.0
C243 C 0.58003 0.07679 0.22769 0.0
C244 C 0.56417 0.0944 0.26961 0.0
N245 N 0.56559 0.07677 0.25538 0.0
C246 C 0.62002 0.13265 0.23936 0.0
C247 C 0.62883 0.11953 0.32084 0.0
C248 C 0.6432 0.12459 0.29286 0.0
C249 C 0.63871 0.13089 0.25126 0.0
C250 C 0.61054 0.1213 0.3076 0.0
N251 N 0.60639 0.12793 0.26777 0.0
H252 H 0.61652 0.13815 0.20801 0.0
H253 H 0.59946 0.11776 0.32958 0.0
H254 H 0.59838 0.09902 0.20529 0.0
H255 H 0.55386 0.09909 0.29226 0.0
O256 O 0.5817 0.13365 0.19354 0.0
O257 O 0.55605 0.13613 0.22672 0.0
O258 O 0.55284 0.13568 0.26758 0.0
C259 C 0.56438 0.13597 0.18987 0.0
H260 H 0.58964 0.19698 0.31489 0.0
H261 H 0.58477 0.06507 0.20898 0.0
H262 H 0.63172 0.1144 0.35297 0.0
H263 H 0.64947 0.13499 0.22887 0.0
Co264 Co 0.63035 0.57585 0.5005 0.0
C265 C 0.66803 0.58491 0.47019 0.0
C266 C 0.66837 0.57401 0.53457 0.0
C267 C 0.68637 0.57711 0.52162 0.0
N268 N 0.65692 0.57868 0.50207 0.0
N269 N 0.68607 0.58396 0.48117 0.0
H270 H 0.66312 0.58951 0.43904 0.0
H271 H 0.66405 0.56851 0.56535 0.0
C272 C 0.63303 0.5445 0.55008 0.0
O273 O 0.62995 0.5582 0.57698 0.0
N274 N 0.60367 0.5734 0.49814 0.0
C275 C 0.59221 0.58495 0.4769 0.0
C276 C 0.57434 0.57867 0.48113 0.0
C277 C 0.59259 0.56014 0.51475 0.0
N278 N 0.57461 0.56305 0.50483 0.0
C279 C 0.63025 0.61548 0.48239 0.0
C280 C 0.6194 0.62397 0.56589 0.0
C281 C 0.62148 0.6384 0.53607 0.0
C282 C 0.62727 0.63404 0.4939 0.0
C283 C 0.62247 0.60582 0.55313 0.0
N284 N 0.62754 0.6018 0.51199 0.0
H285 H 0.63447 0.61211 0.44988 0.0
H286 H 0.62063 0.59473 0.5761 0.0
H287 H 0.59658 0.59694 0.45877 0.0
H288 H 0.59742 0.54855 0.53345 0.0
O289 O 0.63058 0.57731 0.43628 0.0
O290 O 0.6332 0.55151 0.46854 0.0
O291 O 0.63339 0.54807 0.50924 0.0
C292 C 0.63249 0.55999 0.43196 0.0
H293 H 0.69871 0.57448 0.54043 0.0
H294 H 0.56216 0.58478 0.46664 0.0
H295 H 0.61548 0.62666 0.59903 0.0
H296 H 0.6291 0.64477 0.46993 0.0
Co297 Co 0.42704 0.13152 0.75703 0.0
C298 C 0.41849 0.17039 0.73571 0.0
C299 C 0.42502 0.16699 0.80276 0.0
C300 C 0.42101 0.18535 0.79531 0.0
N301 N 0.42354 0.1577 0.76532 0.0
N302 N 0.41693 0.18745 0.75309 0.0
H303 H 0.41559 0.1672 0.70233 0.0
H304 H 0.42865 0.16089 0.83341 0.0
C305 C 0.45798 0.13283 0.80833 0.0
O306 O 0.44425 0.12786 0.83358 0.0
N307 N 0.43017 0.10524 0.74811 0.0
C308 C 0.41932 0.09475 0.72261 0.0
C309 C 0.42616 0.07703 0.72196 0.0
C310 C 0.44352 0.09375 0.76264 0.0
N311 N 0.44141 0.07642 0.74701 0.0
C312 C 0.38759 0.1319 0.73723 0.0
C313 C 0.37841 0.11698 0.81676 0.0
C314 C 0.36417 0.12074 0.78725 0.0
C315 C 0.36892 0.12849 0.74707 0.0
C316 C 0.3967 0.1205 0.80561 0.0
N317 N 0.40105 0.12765 0.76641 0.0
H318 H 0.39121 0.13782 0.70636 0.0
H319 H 0.40763 0.1175 0.8284 0.0
H320 H 0.4074 0.09972 0.70501 0.0
H321 H 0.45489 0.09798 0.78289 0.0
O322 O 0.42596 0.13456 0.69323 0.0
O323 O 0.45157 0.1362 0.72677 0.0
O324 O 0.45467 0.13496 0.76767 0.0
C325 C 0.4433 0.13678 0.68988 0.0
H326 H 0.42127 0.1963 0.81911 0.0
H327 H 0.42037 0.06551 0.7042 0.0
H328 H 0.37547 0.11153 0.84857 0.0
H329 H 0.35838 0.13164 0.72337 0.0
Co330 Co 0.86985 0.92334 0.01974 0.0
C331 C 0.83163 0.91517 0.99052 0.0
C332 C 0.83308 0.91939 0.05899 0.0
C333 C 0.81491 0.91614 0.04787 0.0
N334 N 0.8435 0.91901 0.02296 0.0
N335 N 0.81407 0.91347 1.00486 0.0
H336 H 0.8356 0.91392 0.95701 0.0
H337 H 0.83826 0.92183 0.09116 0.0
C338 C 0.86548 0.9527 0.07397 0.0
O339 O 0.86961 0.93827 0.09781 0.0
N340 N 0.89626 0.92735 0.01593 0.0
C341 C 0.90783 0.91725 0.99131 0.0
C342 C 0.92535 0.92451 0.99451 0.0
C343 C 0.90688 0.94067 0.03379 0.0
N344 N 0.92477 0.93927 0.02118 0.0
C345 C 0.86887 0.88395 0.99958 0.0
C346 C 0.88351 0.8746 0.07931 0.0
C347 C 0.87768 0.86043 0.05162 0.0
C348 C 0.87066 0.8652 0.01079 0.0
C349 C 0.88158 0.89294 0.06686 0.0
N350 N 0.87419 0.89737 0.02793 0.0
H351 H 0.8628 0.8877 0.96894 0.0
H352 H 0.8856 0.90383 0.08886 0.0
H353 H 0.9037 0.90565 0.97148 0.0
H354 H 0.9017 0.95129 0.05511 0.0
O355 O 0.86908 0.92332 0.95542 0.0
O356 O 0.86529 0.94817 0.99117 0.0
O357 O 0.86529 0.95062 0.03256 0.0
C358 C 0.86631 0.94061 0.9535 0.0
H359 H 0.80324 0.91559 0.06976 0.0
H360 H 0.93741 0.9197 0.97708 0.0
H361 H 0.88928 0.87153 0.11076 0.0
H362 H 0.86599 0.85462 0.98858 0.0
Co363 Co 0.07655 0.36859 0.24351 0.0
C364 C 0.08808 0.33037 0.22448 0.0
C365 C 0.0636 0.33125 0.26378 0.0
C366 C 0.06729 0.31313 0.25347 0.0
N367 N 0.07666 0.34199 0.24565 0.0
N368 N 0.08265 0.31256 0.22857 0.0
H369 H 0.09977 0.33498 0.20549 0.0
H370 H 0.05171 0.33628 0.28149 0.0
C371 C 0.06525 0.38027 0.33294 0.0
O372 O 0.07825 0.39298 0.33258 0.0
N373 N 0.07582 0.3954 0.24079 0.0
C374 C 0.08821 0.40724 0.22343 0.0
C375 C 0.0809 0.4248 0.2242 0.0
C376 C 0.06097 0.40592 0.2507 0.0
N377 N 0.06379 0.42394 0.24146 0.0
C378 C 0.11603 0.37338 0.24513 0.0
C379 C 0.12136 0.36386 0.33044 0.0
C380 C 0.13647 0.37068 0.30676 0.0
C381 C 0.13371 0.37478 0.26302 0.0
C382 C 0.10394 0.36248 0.31099 0.0
N383 N 0.10112 0.36867 0.26986 0.0
H384 H 0.11439 0.37611 0.21117 0.0
H385 H 0.09276 0.35648 0.32932 0.0
H386 H 0.10132 0.40359 0.2093 0.0
H387 H 0.0481 0.40038 0.26304 0.0
O388 O 0.08355 0.36776 0.18312 0.0
O389 O 0.05473 0.3677 0.20775 0.0
O390 O 0.06338 0.36922 0.30103 0.0
C391 C 0.06589 0.36728 0.17482 0.0
H392 H 0.05869 0.30142 0.26183 0.0
H393 H 0.08757 0.43721 0.2124 0.0
H394 H 0.1228 0.35995 0.36397 0.0
H395 H 0.14511 0.37899 0.24256 0.0
Co396 Co 0.36491 0.57593 0.01809 0.0
C397 C 0.32543 0.584 0.99862 0.0
C398 C 0.33129 0.58506 0.0664 0.0
C399 C 0.31294 0.58953 0.06021 0.0
N400 N 0.33906 0.58147 0.02782 0.0
N401 N 0.30929 0.5889 0.01754 0.0
H402 H 0.32722 0.58244 0.96421 0.0
H403 H 0.33857 0.58493 0.09686 0.0
C404 C 0.36032 0.54657 0.0712 0.0
O405 O 0.36561 0.56071 0.09479 0.0
N406 N 0.39079 0.57076 0.00823 0.0
C407 C 0.40158 0.57981 0.97983 0.0
C408 C 0.41904 0.5723 0.98094 0.0
C409 C 0.4018 0.55784 0.02637 0.0
N410 N 0.4192 0.55847 0.0102 0.0
C411 C 0.36414 0.6154 1.00087 0.0
C412 C 0.3834 0.62355 0.07585 0.0
C413 C 0.37622 0.63812 0.05122 0.0
C414 C 0.36686 0.63396 0.01265 0.0
C415 C 0.38046 0.60539 0.06292 0.0
N416 N 0.37077 0.60157 0.02643 0.0
H417 H 0.35619 0.61213 0.97233 0.0
H418 H 0.38542 0.59416 0.08284 0.0
H419 H 0.39698 0.59101 0.95935 0.0
H420 H 0.39725 0.54823 0.05084 0.0
O421 O 0.36133 0.577 0.9545 0.0
O422 O 0.35834 0.55167 0.98867 0.0
O423 O 0.35939 0.54883 0.02994 0.0
C424 C 0.3581 0.55982 0.95161 0.0
H425 H 0.30323 0.59351 0.08514 0.0
H426 H 0.43057 0.5764 0.96079 0.0
H427 H 0.39093 0.62616 0.10546 0.0
H428 H 0.36105 0.64486 0.99291 0.0
Co429 Co 0.42679 0.86857 0.25549 0.0
C430 C 0.41787 0.8298 0.23379 0.0
C431 C 0.42454 0.83303 0.30082 0.0
C432 C 0.42045 0.8147 0.29312 0.0
N433 N 0.42303 0.84241 0.26353 0.0
N434 N 0.41628 0.81271 0.25091 0.0
H435 H 0.41495 0.83307 0.20047 0.0
H436 H 0.42829 0.83905 0.33151 0.0
C437 C 0.45774 0.8669 0.30664 0.0
O438 O 0.44407 0.87197 0.33198 0.0
N439 N 0.43017 0.89483 0.2468 0.0
C440 C 0.41947 0.90542 0.2212 0.0
C441 C 0.42648 0.92308 0.22071 0.0
C442 C 0.44358 0.9062 0.26157 0.0
N443 N 0.44166 0.92355 0.24599 0.0
C444 C 0.38731 0.86872 0.2358 0.0
C445 C 0.37835 0.88333 0.31582 0.0
C446 C 0.36405 0.87986 0.28627 0.0
C447 C 0.36869 0.87228 0.24583 0.0
C448 C 0.3966 0.87969 0.30448 0.0
N449 N 0.40085 0.87269 0.26505 0.0
H450 H 0.39085 0.86291 0.20475 0.0
H451 H 0.40757 0.88246 0.32731 0.0
H452 H 0.40756 0.90056 0.20341 0.0
H453 H 0.45485 0.90188 0.282 0.0
O454 O 0.42563 0.86559 0.19167 0.0
O455 O 0.45124 0.86366 0.22508 0.0
O456 O 0.45438 0.86485 0.26597 0.0
C457 C 0.44294 0.86318 0.18823 0.0
H458 H 0.42074 0.8037 0.31675 0.0
H459 H 0.42083 0.93465 0.20293 0.0
H460 H 0.37549 0.88863 0.34782 0.0
H461 H 0.35811 0.86935 0.22206 0.0
Co462 Co 0.13246 0.9221 0.49691 0.0
C463 C 0.17131 0.91426 0.47193 0.0
C464 C 0.16813 0.91705 0.54048 0.0
C465 C 0.18653 0.9138 0.53151 0.0
N466 N 0.15866 0.91754 0.5031 0.0
N467 N 0.18844 0.91201 0.48844 0.0
H468 H 0.1682 0.91374 0.43784 0.0
H469 H 0.16212 0.91883 0.57213 0.0
C470 C 0.13596 0.95084 0.55323 0.0
O471 O 0.13103 0.93628 0.57581 0.0
N472 N 0.10619 0.92637 0.49022 0.0
C473 C 0.09524 0.91695 0.46278 0.0
C474 C 0.07761 0.92396 0.46521 0.0
C475 C 0.09507 0.93903 0.50911 0.0
N476 N 0.0775 0.93789 0.4942 0.0
C477 C 0.13432 0.88345 0.47247 0.0
C478 C 0.1148 0.87197 0.54467 0.0
C479 C 0.12133 0.85864 0.51552 0.0
C480 C 0.13129 0.86451 0.47907 0.0
C481 C 0.11832 0.89059 0.53715 0.0
N482 N 0.1278 0.89605 0.50149 0.0
H483 H 0.14204 0.88797 0.44454 0.0
H484 H 0.11355 0.90084 0.56003 0.0
H485 H 0.09982 0.9058 0.44211 0.0
H486 H 0.09971 0.94917 0.53227 0.0
O487 O 0.13463 0.92277 0.433 0.0
O488 O 0.13776 0.94726 0.47033 0.0
O489 O 0.13698 0.94915 0.51182 0.0
C490 C 0.13742 0.94004 0.43222 0.0
H491 H 0.1976 0.91259 0.55486 0.0
H492 H 0.06577 0.91912 0.44702 0.0
H493 H 0.10737 0.86801 0.5736 0.0
H494 H 0.13656 0.85461 0.45591 0.0
Co495 Co 0.07603 0.63384 0.74676 0.0
C496 C 0.08674 0.67174 0.72192 0.0
C497 C 0.06577 0.67175 0.77104 0.0
C498 C 0.06878 0.68969 0.7581 0.0
N499 N 0.07699 0.66052 0.74825 0.0
N500 N 0.08185 0.68964 0.72696 0.0
H501 H 0.09631 0.66681 0.69763 0.0
H502 H 0.05542 0.66725 0.79393 0.0
C503 C 0.06516 0.62319 0.83702 0.0
O504 O 0.07813 0.61044 0.83691 0.0
N505 N 0.07436 0.60702 0.74468 0.0
C506 C 0.08571 0.59476 0.72525 0.0
C507 C 0.07765 0.57755 0.72645 0.0
C508 C 0.05928 0.59709 0.75605 0.0
N509 N 0.06099 0.57898 0.7459 0.0
C510 C 0.1153 0.62697 0.74966 0.0
C511 C 0.12081 0.63914 0.83311 0.0
C512 C 0.13563 0.63085 0.81113 0.0
C513 C 0.13283 0.62528 0.76829 0.0
C514 C 0.10353 0.64058 0.81312 0.0
N515 N 0.10056 0.63318 0.77313 0.0
H516 H 0.11367 0.6234 0.71615 0.0
H517 H 0.09255 0.64764 0.83006 0.0
H518 H 0.09839 0.59796 0.70864 0.0
H519 H 0.04711 0.60321 0.7705 0.0
O520 O 0.08297 0.63406 0.68629 0.0
O521 O 0.05421 0.63526 0.71119 0.0
O522 O 0.06302 0.6338 0.80445 0.0
C523 C 0.06532 0.63515 0.67815 0.0
H524 H 0.06142 0.70175 0.76967 0.0
H525 H 0.08327 0.56516 0.71188 0.0
H526 H 0.12257 0.64458 0.86541 0.0
H527 H 0.14397 0.61933 0.74943 0.0
C528 C 0.95833 0.94574 0.02615 0.0
C529 C 0.93989 0.95169 0.03065 0.0
C530 C 0.973 0.95815 0.03084 0.0
C531 C 0.98283 0.0079 0.02143 0.0
H532 H 0.03131 0.99313 0.06275 0.0
C533 C 0.0484 0.04728 0.97315 0.0
C534 C 0.06258 0.04976 1.00363 0.0
C535 C 0.03326 0.03596 0.98219 0.0
C536 C 0.01781 0.99758 0.05163 0.0
H537 H 0.92256 0.97535 0.0458 0.0
H538 H 0.94817 0.99688 0.05516 0.0
H539 H 0.00501 0.9723 0.07166 0.0
H540 H 0.07196 0.04219 0.06761 0.0
H541 H 0.04537 0.02237 0.08363 0.0
H542 H 0.99555 0.03321 1.00168 0.0
C543 C 0.95125 0.98264 0.04704 0.0
C544 C 0.00277 0.98555 0.05629 0.0
C545 C 0.93654 0.97022 0.04213 0.0
C546 C 0.06134 0.04045 0.04333 0.0
C547 C 0.0461 0.02911 0.05249 0.0
C548 C 0.99783 0.01994 0.01696 0.0
C549 C 0.96965 0.97684 0.04048 0.0
C550 C 0.98517 0.9904 0.04039 0.0
C551 C 0.03183 0.02683 0.02206 0.0
C552 C 0.01559 0.01476 0.03104 0.0
H553 H 0.96147 0.93151 0.01816 0.0
H554 H 0.98694 0.95318 0.02518 0.0
H555 H 0.96956 0.01207 0.00843 0.0
H556 H 0.0491 0.05389 0.94189 0.0
H557 H 0.0228 0.03414 0.95753 0.0
C558 C 0.96579 0.56166 0.27891 0.0
C559 C 0.94808 0.55894 0.26104 0.0
C560 C 0.97817 0.54691 0.28287 0.0
C561 C 0.98147 0.49549 0.27866 0.0
H562 H 0.03242 0.50563 0.24718 0.0
C563 C 0.03802 0.43872 0.28106 0.0
C564 C 0.05095 0.43898 0.24718 0.0
C565 C 0.02566 0.45342 0.28675 0.0
C566 C 0.01823 0.50251 0.25579 0.0
H567 H 0.92931 0.53822 0.2355 0.0
H568 H 0.95106 0.51275 0.24089 0.0
H569 H 0.01026 0.53086 0.25036 0.0
H570 H 0.0608 0.45461 0.19217 0.0
H571 H 0.03911 0.48004 0.20147 0.0
H572 H 0.98929 0.46699 0.28205 0.0
C573 C 0.95533 0.52624 0.25235 0.0
C574 C 0.00555 0.51705 0.25828 0.0
C575 C 0.9429 0.54095 0.24867 0.0
C576 C 0.05121 0.45416 0.219 0.0
C577 C 0.03879 0.46877 0.22445 0.0
C578 C 0.99413 0.48091 0.27588 0.0
C579 C 0.97323 0.52908 0.26887 0.0
C580 C 0.98695 0.51371 0.26929 0.0
C581 C 0.02589 0.46863 0.25848 0.0
C582 C 0.01262 0.48421 0.26388 0.0
H583 H 0.97039 0.57526 0.28867 0.0
H584 H 0.99173 0.54955 0.29644 0.0
H585 H 0.96732 0.49243 0.28782 0.0
H586 H 0.03767 0.4273 0.30361 0.0
H587 H 0.0161 0.45296 0.31364 0.0
C588 C 0.54121 0.55899 0.51899 0.0
C589 C 0.559 0.55136 0.51464 0.0
C590 C 0.52582 0.54761 0.52545 0.0
C591 C 0.51176 0.4997 0.55506 0.0
H592 H 0.4676 0.51208 0.49006 0.0
C593 C 0.45317 0.44756 0.51917 0.0
C594 C 0.43478 0.45391 0.52053 0.0
C595 C 0.46792 0.45985 0.5244 0.0
C596 C 0.47971 0.50857 0.50896 0.0
H597 H 0.57465 0.5258 0.51443 0.0
H598 H 0.54781 0.50586 0.52496 0.0
H599 H 0.49418 0.53272 0.48803 0.0
H600 H 0.41746 0.4781 0.52946 0.0
H601 H 0.44328 0.4996 0.53871 0.0
H602 H 0.49735 0.47522 0.57483 0.0
C603 C 0.54574 0.52069 0.52421 0.0
C604 C 0.49498 0.52042 0.50786 0.0
C605 C 0.56115 0.53211 0.51809 0.0
C606 C 0.43146 0.47276 0.52847 0.0
C607 C 0.44624 0.4851 0.53338 0.0
C608 C 0.49651 0.48778 0.55593 0.0
C609 C 0.52783 0.52828 0.52736 0.0
C610 C 0.51127 0.51608 0.5306 0.0
C611 C 0.46464 0.4788 0.53086 0.0
C612 C 0.48037 0.49201 0.53257 0.0
H613 H 0.53917 0.5738 0.51727 0.0
H614 H 0.51232 0.55398 0.52869 0.0
H615 H 0.52395 0.49606 0.57352 0.0
H616 H 0.45617 0.43309 0.51367 0.0
H617 H 0.48193 0.45458 0.52197 0.0
C618 C 0.53429 0.93499 0.77662 0.0
C619 C 0.55246 0.93803 0.76184 0.0
C620 C 0.52211 0.94981 0.78245 0.0
C621 C 0.51975 0.00118 0.79008 0.0
H622 H 0.47013 0.99384 0.74558 0.0
C623 C 0.46424 0.05921 0.79111 0.0
C624 C 0.45346 0.06077 0.75353 0.0
C625 C 0.47591 0.04398 0.79714 0.0
C626 C 0.48396 0.99615 0.75802 0.0
H627 H 0.57227 0.95923 0.74387 0.0
H628 H 0.55092 0.98492 0.75267 0.0
H629 H 0.49155 0.96793 0.74786 0.0
H630 H 0.44691 0.04775 0.69236 0.0
H631 H 0.46721 0.02139 0.70266 0.0
H632 H 0.51234 0.02963 0.79836 0.0
C633 C 0.54612 0.97111 0.76021 0.0
C634 C 0.49617 0.98121 0.7599 0.0
C635 C 0.55831 0.95632 0.75456 0.0
C636 C 0.45469 0.04682 0.72208 0.0
C637 C 0.46634 0.03166 0.72803 0.0
C638 C 0.50753 0.01615 0.78806 0.0
C639 C 0.52776 0.96802 0.77352 0.0
C640 C 0.51432 0.98359 0.77533 0.0
C641 C 0.47706 0.03 0.76566 0.0
C642 C 0.48959 0.01387 0.77129 0.0
H643 H 0.52921 0.92114 0.78234 0.0
H644 H 0.50815 0.94695 0.79335 0.0
H645 H 0.53355 0.00344 0.80268 0.0
H646 H 0.46348 0.06962 0.81615 0.0
H647 H 0.48386 0.04303 0.82667 0.0
C648 C 0.06073 0.95814 0.5457 0.0
C649 C 0.06194 0.94949 0.50514 0.0
C650 C 0.04542 0.96919 0.55611 0.0
C651 C 0.99704 0.97889 0.5219 0.0
H652 H 0.00465 0.02606 0.57862 0.0
C653 C 0.9365 0.0297 0.54564 0.0
C654 C 0.94042 0.04806 0.53382 0.0
C655 C 0.95087 0.01696 0.5516 0.0
C656 C 0.00228 0.01292 0.56277 0.0
H657 H 0.04826 0.94619 0.44335 0.0
H658 H 0.02184 0.9654 0.46121 0.0
H659 H 0.03073 0.00502 0.56906 0.0
H660 H 0.96255 0.0677 0.52213 0.0
H661 H 0.98744 0.04552 0.53115 0.0
H662 H 0.96887 0.98714 0.51341 0.0
C663 C 0.03239 0.96329 0.48552 0.0
C664 C 0.0172 0.00077 0.55772 0.0
C665 C 0.04761 0.95227 0.4752 0.0
C666 C 0.95902 0.05359 0.53035 0.0
C667 C 0.97334 0.04089 0.53619 0.0
C668 C 0.98216 0.99105 0.52678 0.0
C669 C 0.03103 0.97182 0.52614 0.0
C670 C 0.01485 0.98381 0.53622 0.0
C671 C 0.96946 0.02231 0.54591 0.0
C672 C 0.98468 0.00841 0.54634 0.0
H673 H 0.07145 0.95615 0.56961 0.0
H674 H 0.04475 0.97547 0.58779 0.0
H675 H 0.99466 0.96578 0.50594 0.0
H676 H 0.92235 0.02496 0.54856 0.0
H677 H 0.94739 0.00282 0.55972 0.0
C678 C 0.95371 0.44808 0.79112 0.0
C679 C 0.94323 0.44512 0.75358 0.0
C680 C 0.96562 0.46328 0.79424 0.0
C681 C 0.97638 0.50865 0.74318 0.0
H682 H 0.02419 0.50161 0.79748 0.0
C683 C 0.0287 0.5686 0.7593 0.0
C684 C 0.04746 0.56444 0.75171 0.0
C685 C 0.01559 0.55449 0.76348 0.0
C686 C 0.01095 0.50379 0.78193 0.0
H687 H 0.93718 0.45568 0.68972 0.0
H688 H 0.95811 0.48192 0.69471 0.0
H689 H 0.00205 0.47627 0.79619 0.0
H690 H 0.06705 0.54188 0.74405 0.0
H691 H 0.0442 0.51746 0.74954 0.0
H692 H 0.9856 0.53587 0.72708 0.0
C693 C 0.95681 0.47283 0.7223 0.0
C694 C 0.99812 0.48932 0.78174 0.0
C695 C 0.94481 0.45775 0.71937 0.0
C696 C 0.05275 0.54574 0.74915 0.0
C697 C 0.03963 0.53164 0.75297 0.0
C698 C 0.98926 0.52307 0.74306 0.0
C699 C 0.96744 0.47577 0.75971 0.0
C700 C 0.98072 0.4915 0.762 0.0
C701 C 0.02085 0.53582 0.75992 0.0
C702 C 0.00678 0.52078 0.76209 0.0
H703 H 0.95262 0.43869 0.81819 0.0
H704 H 0.97335 0.46525 0.82381 0.0
H705 H 0.96302 0.51095 0.72827 0.0
H706 H 0.02395 0.58275 0.76129 0.0
H707 H 0.0013 0.55824 0.76946 0.0
C708 C 0.54369 0.44966 0.97467 0.0
C709 C 0.55837 0.44888 1.00435 0.0
C710 C 0.52841 0.46101 0.9822 0.0
C711 C 0.51331 0.50215 0.04321 0.0
H712 H 0.46468 0.48543 0.0073 0.0
C713 C 0.45286 0.55222 0.01179 0.0
C714 C 0.43459 0.54641 0.01982 0.0
C715 C 0.46772 0.5401 0.01733 0.0
C716 C 0.47807 0.49026 0.0182 0.0
H717 H 0.5684 0.45945 0.06549 0.0
H718 H 0.54159 0.47929 0.07883 0.0
H719 H 0.49084 0.46434 1.00342 0.0
H720 H 0.41779 0.5234 0.04177 0.0
H721 H 0.44378 0.50237 0.05245 0.0
H722 H 0.50048 0.52804 0.05829 0.0
C723 C 0.54204 0.47121 0.04943 0.0
C724 C 0.49316 0.47823 0.01538 0.0
C725 C 0.55741 0.45984 0.04179 0.0
C726 C 0.43165 0.52838 0.03535 0.0
C727 C 0.44655 0.51625 0.04103 0.0
C728 C 0.49819 0.51418 0.04621 0.0
C729 C 0.52732 0.47188 0.01973 0.0
C730 C 0.51104 0.48414 0.02691 0.0
C731 C 0.46475 0.52186 0.03131 0.0
C732 C 0.48044 0.5085 0.03288 0.0
H733 H 0.54412 0.44175 0.94506 0.0
H734 H 0.51758 0.46152 0.95808 0.0
H735 H 0.52689 0.5072 0.05223 0.0
H736 H 0.45571 0.56609 1.00058 0.0
H737 H 0.48148 0.54489 0.00911 0.0
C738 C 0.46443 0.94063 0.29061 0.0
C739 C 0.45382 0.9391 0.25275 0.0
C740 C 0.47617 0.9558 0.29692 0.0
C741 C 0.48467 0.00356 0.25783 0.0
H742 H 0.53388 0.99615 0.30463 0.0
C743 C 0.53504 0.06459 0.27825 0.0
C744 C 0.55334 0.06148 0.26449 0.0
C745 C 0.52276 0.04982 0.28357 0.0
C746 C 0.5202 0.99845 0.29141 0.0
H747 H 0.44766 0.95209 0.19137 0.0
H748 H 0.46809 0.97833 0.20214 0.0
H749 H 0.51262 0.97003 0.29953 0.0
H750 H 0.57327 0.04018 0.24784 0.0
H751 H 0.55177 0.01457 0.25569 0.0
H752 H 0.49245 0.03172 0.24783 0.0
C753 C 0.46704 0.96809 0.22752 0.0
C754 C 0.50793 0.98351 0.28895 0.0
C755 C 0.45531 0.95301 0.22129 0.0
C756 C 0.55922 0.04316 0.25773 0.0
C757 C 0.54693 0.02841 0.26285 0.0
C758 C 0.49693 0.01845 0.26013 0.0
C759 C 0.47756 0.96974 0.26545 0.0
C760 C 0.49013 0.98583 0.27143 0.0
C761 C 0.52845 0.03157 0.27511 0.0
C762 C 0.51495 0.01603 0.27636 0.0
H763 H 0.46347 0.93025 0.31564 0.0
H764 H 0.48396 0.95673 0.32668 0.0
H765 H 0.47096 0.0059 0.24482 0.0
H766 H 0.52993 0.07847 0.28356 0.0
H767 H 0.50871 0.05274 0.2937 0.0
C768 C 0.13235 0.94243 0.35305 0.0
C769 C 0.13922 0.95035 0.3912 0.0
C770 C 0.1339 0.95166 0.31366 0.0
C771 C 0.14398 0.9982 0.26636 0.0
H772 H 0.14715 0.96995 0.16006 0.0
C773 C 0.15714 0.0339 0.10513 0.0
C774 C 0.14242 0.03193 0.07594 0.0
C775 C 0.15905 0.0218 0.1399 0.0
C776 C 0.14626 0.97797 0.18952 0.0
H777 H 0.15333 0.97407 0.41807 0.0
H778 H 0.15694 0.98996 0.34892 0.0
H779 H 0.14643 0.95384 0.22927 0.0
H780 H 0.11875 0.0152 0.05858 0.0
H781 H 0.12252 0.99338 0.11888 0.0
H782 H 0.14445 0.02232 0.22626 0.0
C783 C 0.14975 0.97684 0.34942 0.0
C784 C 0.14569 0.96879 0.22934 0.0
C785 C 0.14781 0.96771 0.38916 0.0
C786 C 0.13054 0.01666 0.07992 0.0
C787 C 0.13258 0.00434 0.11466 0.0
C788 C 0.14496 0.00734 0.22668 0.0
C789 C 0.14276 0.96896 0.31098 0.0
C790 C 0.14433 0.97875 0.26845 0.0
C791 C 0.14631 0.0074 0.1461 0.0
C792 C 0.14598 0.99734 0.18786 0.0
H793 H 0.12548 0.92911 0.35368 0.0
H794 H 0.12784 0.94525 0.28545 0.0
H795 H 0.14252 0.00647 0.29526 0.0
H796 H 0.16624 0.04579 0.10321 0.0
H797 H 0.16983 0.02438 0.16346 0.0
C798 C 0.06929 0.63211 0.598 0.0
C799 C 0.05812 0.63657 0.63368 0.0
C800 C 0.0621 0.63301 0.55608 0.0
C801 C 0.02452 0.6536 0.49147 0.0
H802 H 0.02694 0.60885 0.42269 0.0
C803 C 0.9735 0.61572 0.37069 0.0
C804 C 0.9689 0.62986 0.34169 0.0
C805 C 0.98918 0.61719 0.39664 0.0
C806 C 0.02641 0.62156 0.44118 0.0
H807 H 0.0309 0.64597 0.65347 0.0
H808 H 0.01847 0.64775 0.58054 0.0
H809 H 0.04519 0.61122 0.48896 0.0
H810 H 0.97732 0.65623 0.31528 0.0
H811 H 0.00473 0.65917 0.36204 0.0
H812 H 0.00507 0.6636 0.44489 0.0
C813 C 0.03275 0.64355 0.58485 0.0
C814 C 0.03689 0.62294 0.47899 0.0
C815 C 0.03982 0.64236 0.62664 0.0
C816 C 0.98075 0.64511 0.33728 0.0
C817 C 0.9963 0.64681 0.3641 0.0
C818 C 0.01422 0.65232 0.45342 0.0
C819 C 0.04374 0.63874 0.54915 0.0
C820 C 0.03548 0.63869 0.50533 0.0
C821 C 1.00038 0.63305 0.39477 0.0
C822 C 0.01452 0.63601 0.42877 0.0
H823 H 0.08347 0.62761 0.60251 0.0
H824 H 0.07085 0.62922 0.52911 0.0
H825 H 0.02332 0.66597 0.511 0.0
H826 H 0.96452 0.60382 0.37454 0.0
H827 H 0.99181 0.60646 0.42022 0.0
C828 C 0.33954 0.47577 0.60734 0.0
C829 C 0.35704 0.47263 0.58907 0.0
C830 C 0.33744 0.48819 0.64173 0.0
C831 C 0.34118 0.5003 0.73521 0.0
H832 H 0.37026 0.54463 0.75344 0.0
C833 C 0.35448 0.53121 0.90576 0.0
C834 C 0.35517 0.55055 0.90946 0.0
C835 C 0.35305 0.52281 0.865 0.0
C836 C 0.36187 0.53238 0.74886 0.0
H837 H 0.38588 0.48057 0.59086 0.0
H838 H 0.38231 0.50245 0.65012 0.0
H839 H 0.36993 0.53007 0.68253 0.0
H840 H 0.35428 0.57626 0.87351 0.0
H841 H 0.35149 0.56174 0.80306 0.0
H842 H 0.33309 0.50262 0.80153 0.0
C843 C 0.37007 0.49561 0.6378 0.0
C844 C 0.36181 0.52393 0.70818 0.0
C845 C 0.37213 0.48318 0.60345 0.0
C846 C 0.35392 0.5613 0.87179 0.0
C847 C 0.35245 0.55296 0.83125 0.0
C848 C 0.34124 0.50874 0.77591 0.0
C849 C 0.35287 0.49759 0.65879 0.0
C850 C 0.35159 0.50768 0.70083 0.0
C851 C 0.35226 0.5336 0.82713 0.0
C852 C 0.35171 0.52482 0.78344 0.0
H853 H 0.3278 0.4674 0.59765 0.0
H854 H 0.32393 0.48961 0.65654 0.0
H855 H 0.33337 0.48763 0.73111 0.0
H856 H 0.35549 0.52257 0.93419 0.0
H857 H 0.3531 0.50786 0.86312 0.0
C858 C 0.44136 0.85974 0.10819 0.0
C859 C 0.45216 0.86071 0.14586 0.0
C860 C 0.44968 0.85833 0.06761 0.0
C861 C 0.49366 0.84631 0.0122 0.0
H862 H 0.47311 0.87569 0.91913 0.0
C863 C 0.52047 0.87696 0.84102 0.0
C864 C 0.53055 0.86163 0.82623 0.0
C865 C 0.50786 0.87512 0.87507 0.0
C866 C 0.47902 0.86736 0.94469 0.0
H867 H 0.48019 0.86065 0.17052 0.0
H868 H 0.49486 0.85833 0.09937 0.0
H869 H 0.45847 0.87623 0.99 0.0
H870 H 0.53477 0.83222 0.83378 0.0
H871 H 0.51226 0.82877 0.89229 0.0
H872 H 0.5146 0.83798 0.96734 0.0
C873 C 0.47989 0.85848 0.1013 0.0
C874 C 0.47053 0.86755 0.98534 0.0
C875 C 0.47152 0.85988 0.14209 0.0
C876 C 0.52676 0.84416 0.84378 0.0
C877 C 0.51416 0.84229 0.87792 0.0
C878 C 0.50212 0.84609 0.97152 0.0
C879 C 0.46906 0.85787 0.06347 0.0
C880 C 0.47783 0.85717 0.0198 0.0
C881 C 0.50523 0.85791 0.89539 0.0
C882 C 0.49503 0.85675 0.93729 0.0
H883 H 0.42639 0.86022 0.10998 0.0
H884 H 0.44087 0.85755 0.0394 0.0
H885 H 0.49955 0.83798 0.03774 0.0
H886 H 0.5236 0.89067 0.829 0.0
H887 H 0.50138 0.8875 0.88774 0.0
C888 C 0.87139 0.01857 0.59963 0.0
C889 C 0.8596 0.03401 0.59822 0.0
C890 C 0.8702 0.00596 0.63413 0.0
C891 C 0.86048 0.00815 0.74807 0.0
H892 H 0.85764 0.9547 0.74937 0.0
C893 C 0.85682 0.96835 0.90977 0.0
C894 C 0.86477 0.95068 0.91199 0.0
C895 C 0.85521 0.97749 0.87002 0.0
C896 C 0.85877 0.96962 0.74976 0.0
H897 H 0.83669 0.04778 0.62972 0.0
H898 H 0.83451 0.02586 0.68926 0.0
H899 H 0.85646 0.97122 0.6806 0.0
H900 H 0.87757 0.92885 0.87452 0.0
H901 H 0.8757 0.94501 0.80597 0.0
H902 H 0.86364 0.00687 0.81642 0.0
C903 C 0.84463 0.02341 0.66408 0.0
C904 C 0.85797 0.97905 0.7102 0.0
C905 C 0.84573 0.03581 0.62971 0.0
C906 C 0.87124 0.94243 0.8738 0.0
C907 C 0.86999 0.95168 0.83426 0.0
C908 C 0.86166 0.99878 0.78741 0.0
C909 C 0.85738 0.00885 0.66776 0.0
C910 C 0.85862 0.99843 0.70905 0.0
C911 C 0.86189 0.96937 0.83156 0.0
C912 C 0.86069 0.97934 0.7891 0.0
H913 H 0.88253 0.01718 0.57644 0.0
H914 H 0.88023 0.99487 0.6363 0.0
H915 H 0.86131 0.02312 0.74809 0.0
H916 H 0.85157 0.97498 0.93864 0.0
H917 H 0.84851 0.99088 0.86956 0.0
C918 C 0.97506 0.39004 0.8667 0.0
C919 C 0.97048 0.37608 0.83717 0.0
C920 C 0.99069 0.38836 0.89277 0.0
C921 C 0.0277 0.38332 0.93822 0.0
H922 H 0.02376 0.33839 0.00583 0.0
C923 C 0.07009 0.37059 0.09486 0.0
C924 C 0.05875 0.36619 0.13026 0.0
C925 C 0.06294 0.37018 0.05287 0.0
C926 C 0.02519 0.3509 0.98692 0.0
H927 H 0.9789 0.34985 0.80989 0.0
H928 H 0.00621 0.34657 0.85674 0.0
H929 H 0.00584 0.34152 0.9394 0.0
H930 H 0.03127 0.35737 0.14949 0.0
H931 H 0.01891 0.35637 0.07634 0.0
H932 H 0.04642 0.39302 0.9869 0.0
C933 C 0.99783 0.35895 0.85913 0.0
C934 C 0.01509 0.35262 0.94869 0.0
C935 C 0.98233 0.36086 0.83223 0.0
C936 C 0.04031 0.36091 0.12286 0.0
C937 C 0.03329 0.36019 0.08096 0.0
C938 C 0.03801 0.3815 0.97618 0.0
C939 C 0.00182 0.37247 0.89048 0.0
C940 C 0.01572 0.36912 0.9248 0.0
C941 C 0.04446 0.36498 0.04557 0.0
C942 C 0.0363 0.36554 1.0017 0.0
H943 H 0.96604 0.40188 0.87103 0.0
H944 H 0.99328 0.3989 0.91687 0.0
H945 H 0.02846 0.39617 0.92035 0.0
H946 H 0.08436 0.37472 0.09966 0.0
H947 H 0.07183 0.37394 0.02612 0.0
C948 C 0.63547 0.53167 0.38508 0.0
C949 C 0.63387 0.55095 0.38913 0.0
C950 C 0.63659 0.52343 0.34414 0.0
C951 C 0.62604 0.53234 0.22853 0.0
H952 H 0.658 0.49009 0.20946 0.0
C953 C 0.65199 0.47759 0.08632 0.0
C954 C 0.63468 0.47292 0.06894 0.0
C955 C 0.65329 0.49027 0.12039 0.0
C956 C 0.64921 0.50207 0.2139 0.0
H957 H 0.63243 0.57671 0.35352 0.0
H958 H 0.63457 0.56244 0.28257 0.0
H959 H 0.65753 0.50503 0.27986 0.0
H960 H 0.60528 0.47843 0.07194 0.0
H961 H 0.60746 0.50074 0.13065 0.0
H962 H 0.61774 0.52938 0.1625 0.0
C963 C 0.63466 0.5536 0.31073 0.0
C964 C 0.64872 0.51046 0.25462 0.0
C965 C 0.63354 0.5618 0.35151 0.0
C966 C 0.61887 0.48223 0.08382 0.0
C967 C 0.62013 0.49491 0.11786 0.0
C968 C 0.62651 0.52393 0.1878 0.0
C969 C 0.63613 0.5343 0.30639 0.0
C970 C 0.63701 0.52561 0.26265 0.0
C971 C 0.63725 0.49839 0.13803 0.0
C972 C 0.63799 0.50858 0.17999 0.0
H973 H 0.63573 0.52296 0.41348 0.0
H974 H 0.63749 0.50851 0.34208 0.0
H975 H 0.61672 0.54388 0.23352 0.0
H976 H 0.66431 0.47019 0.07624 0.0
H977 H 0.66674 0.49286 0.13458 0.0
C978 C 0.52124 0.12274 0.34265 0.0
C979 C 0.53125 0.13815 0.32808 0.0
C980 C 0.50862 0.12446 0.37675 0.0
C981 C 0.47975 0.13205 0.44657 0.0
H982 H 0.50015 0.16152 0.53973 0.0
C983 C 0.44186 0.14002 0.60979 0.0
C984 C 0.45259 0.13911 0.64756 0.0
C985 C 0.45024 0.14129 0.56925 0.0
C986 C 0.49429 0.15316 0.51416 0.0
H987 H 0.53534 0.16756 0.33606 0.0
H988 H 0.51282 0.1708 0.39456 0.0
H989 H 0.51526 0.16151 0.46942 0.0
H990 H 0.48059 0.13911 0.67244 0.0
H991 H 0.49537 0.14121 0.60138 0.0
H992 H 0.45916 0.12319 0.4918 0.0
C993 C 0.51479 0.15732 0.38004 0.0
C994 C 0.50279 0.15337 0.47353 0.0
C995 C 0.52739 0.15557 0.34589 0.0
C996 C 0.47196 0.13984 0.64392 0.0
C997 C 0.4804 0.14111 0.6032 0.0
C998 C 0.47122 0.13187 0.48719 0.0
C999 C 0.50593 0.14163 0.39731 0.0
C1000 C 0.49574 0.1427 0.43924 0.0
C1001 C 0.46963 0.14167 0.56527 0.0
C1002 C 0.47847 0.1423 0.52167 0.0
H1003 H 0.52442 0.10907 0.33042 0.0
H1004 H 0.5022 0.11204 0.38926 0.0
H1005 H 0.47388 0.12371 0.42097 0.0
H1006 H 0.42688 0.1396 0.61145 0.0
H1007 H 0.44148 0.14203 0.54096 0.0
C1008 C 0.63528 0.43725 0.85098 0.0
C1009 C 0.63507 0.44818 0.88852 0.0
C1010 C 0.63657 0.44539 0.8102 0.0
C1011 C 0.64999 0.48867 0.75409 0.0
H1012 H 0.61954 0.4691 0.66166 0.0
C1013 C 0.61992 0.51641 0.58338 0.0
C1014 C 0.63559 0.52601 0.56875 0.0
C1015 C 0.62136 0.50368 0.61723 0.0
C1016 C 0.62817 0.47472 0.68704 0.0
H1017 H 0.63622 0.47624 0.91273 0.0
H1018 H 0.6383 0.49058 0.84129 0.0
H1019 H 0.61864 0.45465 0.7327 0.0
H1020 H 0.66518 0.52914 0.57611 0.0
H1021 H 0.66793 0.50639 0.6341 0.0
H1022 H 0.65899 0.50916 0.70899 0.0
C1023 C 0.63767 0.47565 0.84345 0.0
C1024 C 0.62777 0.46635 0.72778 0.0
C1025 C 0.63638 0.46747 0.88439 0.0
C1026 C 0.65296 0.52154 0.58603 0.0
C1027 C 0.65445 0.5088 0.6199 0.0
C1028 C 0.65041 0.49702 0.71336 0.0
C1029 C 0.63766 0.4647 0.80577 0.0
C1030 C 0.63853 0.47332 0.762 0.0
C1031 C 0.63852 0.50043 0.63741 0.0
C1032 C 0.63938 0.49028 0.67935 0.0
H1033 H 0.6344 0.42232 0.85305 0.0
H1034 H 0.63683 0.43649 0.78209 0.0
H1035 H 0.65863 0.49429 0.77945 0.0
H1036 H 0.60628 0.52003 0.57153 0.0
H1037 H 0.60877 0.49763 0.62991 0.0
C1038 C 0.56589 0.13796 0.1095 0.0
C1039 C 0.55516 0.13793 0.14736 0.0
C1040 C 0.55753 0.13909 0.06892 0.0
C1041 C 0.51392 0.15209 0.01326 0.0
H1042 H 0.533 0.12064 0.92206 0.0
C1043 C 0.48546 0.12007 0.8449 0.0
C1044 C 0.47618 0.13559 0.82852 0.0
C1045 C 0.49812 0.1219 0.87881 0.0
C1046 C 0.52752 0.12955 0.94709 0.0
H1047 H 0.52719 0.13933 0.17233 0.0
H1048 H 0.51245 0.14118 0.10124 0.0
H1049 H 0.54782 0.12049 0.9927 0.0
H1050 H 0.4733 0.16526 0.83338 0.0
H1051 H 0.49583 0.16866 0.89191 0.0
H1052 H 0.49322 0.16066 0.96809 0.0
C1053 C 0.52741 0.1405 0.10299 0.0
C1054 C 0.5361 0.12958 0.9876 0.0
C1055 C 0.53583 0.13935 0.14375 0.0
C1056 C 0.48072 0.15315 0.84457 0.0
C1057 C 0.49332 0.15502 0.87871 0.0
C1058 C 0.50536 0.1521 0.97269 0.0
C1059 C 0.53817 0.14022 0.065 0.0
C1060 C 0.52931 0.1407 0.02141 0.0
C1061 C 0.50155 0.13931 0.89754 0.0
C1062 C 0.51192 0.14069 0.93916 0.0
H1063 H 0.58084 0.13699 0.11114 0.0
H1064 H 0.56629 0.13916 0.04056 0.0
H1065 H 0.50843 0.16099 0.03829 0.0
H1066 H 0.48174 0.10631 0.83404 0.0
H1067 H 0.50402 0.10947 0.8926 0.0
C1068 C 0.87276 0.0595 0.37454 0.0
C1069 C 0.86527 0.05181 0.41234 0.0
C1070 C 0.87122 0.05034 0.33496 0.0
C1071 C 0.85973 0.0041 0.28708 0.0
H1072 H 0.85859 0.03219 0.18046 0.0
C1073 C 0.84541 0.96851 0.12619 0.0
C1074 C 0.86014 0.96976 0.09675 0.0
C1075 C 0.84408 0.98079 0.16084 0.0
C1076 C 0.85892 0.02421 0.21 0.0
H1077 H 0.84999 0.02862 0.43823 0.0
H1078 H 0.84642 0.01294 0.36887 0.0
H1079 H 0.85966 0.04843 0.24957 0.0
H1080 H 0.88446 0.98543 0.07892 0.0
H1081 H 0.88175 0.00756 0.13901 0.0
H1082 H 0.85833 0.97993 0.2472 0.0
C1083 C 0.85411 0.02577 0.36977 0.0
C1084 C 0.85968 0.03346 0.24979 0.0
C1085 C 0.85603 0.03479 0.40966 0.0
C1086 C 0.87266 0.98454 0.1004 0.0
C1087 C 0.87122 0.99703 0.13507 0.0
C1088 C 0.85856 0.99491 0.24744 0.0
C1089 C 0.86177 0.03336 0.33171 0.0
C1090 C 0.86025 0.02355 0.28906 0.0
C1091 C 0.85744 0.99465 0.16677 0.0
C1092 C 0.85823 0.00483 0.20847 0.0
H1093 H 0.88012 0.07255 0.37563 0.0
H1094 H 0.87775 0.05654 0.30707 0.0
H1095 H 0.86059 0.99583 0.31608 0.0
H1096 H 0.83581 0.95701 0.12457 0.0
H1097 H 0.83324 0.97874 0.18453 0.0
C1098 C 0.05723 0.38661 0.41036 0.0
C1099 C 0.05268 0.37855 0.37048 0.0
C1100 C 0.04526 0.38493 0.44567 0.0
C1101 C 0.99668 0.37827 0.47424 0.0
H1102 H 0.01548 0.3617 0.58472 0.0
C1103 C 0.94771 0.36547 0.61914 0.0
C1104 C 0.95437 0.36993 0.66037 0.0
C1105 C 0.95964 0.36565 0.58348 0.0
C1106 C 0.00999 0.36663 0.55435 0.0
H1107 H 0.03189 0.3626 0.33626 0.0
H1108 H 0.01085 0.36005 0.39772 0.0
H1109 H 0.03648 0.36437 0.52347 0.0
H1110 H 0.97861 0.37821 0.69674 0.0
H1111 H 0.99918 0.37923 0.63477 0.0
H1112 H 0.97036 0.38119 0.50507 0.0
C1113 C 0.02374 0.36752 0.40167 0.0
C1114 C 0.02206 0.36807 0.51921 0.0
C1115 C 0.03584 0.36891 0.36659 0.0
C1116 C 0.97312 0.37455 0.66535 0.0
C1117 C 0.98497 0.375 0.62973 0.0
C1118 C 0.98466 0.37713 0.50954 0.0
C1119 C 0.02835 0.37546 0.44159 0.0
C1120 C 0.01553 0.3739 0.47883 0.0
C1121 C 0.97843 0.37055 0.58822 0.0
C1122 C 0.99114 0.37132 0.55018 0.0
H1123 H 0.07011 0.39409 0.41439 0.0
H1124 H 0.0491 0.39128 0.47605 0.0
H1125 H 0.99133 0.38297 0.4435 0.0
H1126 H 0.93332 0.36178 0.61447 0.0
H1127 H 0.95412 0.36181 0.55228 0.0
C1128 C 0.34085 0.53248 0.12716 0.0
C1129 C 0.35394 0.52995 0.09426 0.0
C1130 C 0.33893 0.51952 0.16018 0.0
C1131 C 0.3672 0.48388 0.21559 0.0
H1132 H 0.32332 0.48019 0.28733 0.0
C1133 C 0.36313 0.43904 0.37065 0.0
C1134 C 0.35718 0.44838 0.40799 0.0
C1135 C 0.36162 0.44729 0.33003 0.0
C1136 C 0.33568 0.48114 0.26763 0.0
H1137 H 0.37458 0.51136 0.06838 0.0
H1138 H 0.37067 0.488 0.12508 0.0
H1139 H 0.32137 0.49529 0.21713 0.0
H1140 H 0.3447 0.4736 0.43197 0.0
H1141 H 0.34153 0.48791 0.36037 0.0
H1142 H 0.38129 0.46928 0.26609 0.0
C1143 C 0.36211 0.50028 0.12604 0.0
C1144 C 0.33463 0.48985 0.22734 0.0
C1145 C 0.3641 0.51343 0.09293 0.0
C1146 C 0.34941 0.4661 0.40376 0.0
C1147 C 0.34754 0.47422 0.36285 0.0
C1148 C 0.36813 0.47484 0.2555 0.0
C1149 C 0.35008 0.50356 0.16124 0.0
C1150 C 0.35048 0.49178 0.20108 0.0
C1151 C 0.35378 0.46495 0.32562 0.0
C1152 C 0.35248 0.47373 0.28233 0.0
H1153 H 0.33311 0.5453 0.1293 0.0
H1154 H 0.3297 0.52288 0.18655 0.0
H1155 H 0.37982 0.48529 0.19705 0.0
H1156 H 0.36923 0.42539 0.37285 0.0
H1157 H 0.36647 0.4398 0.30193 0.0
C1158 C 0.48024 0.84628 0.34266 0.0
C1159 C 0.47591 0.86392 0.32676 0.0
C1160 C 0.49281 0.84423 0.3768 0.0
C1161 C 0.50485 0.84691 0.47083 0.0
H1162 H 0.54764 0.87804 0.49121 0.0
C1163 C 0.53532 0.85936 0.64208 0.0
C1164 C 0.55466 0.86067 0.64576 0.0
C1165 C 0.52693 0.85821 0.60129 0.0
C1166 C 0.53583 0.86908 0.486 0.0
H1167 H 0.48182 0.89312 0.33254 0.0
H1168 H 0.50405 0.88963 0.39109 0.0
H1169 H 0.53287 0.8781 0.42052 0.0
H1170 H 0.58038 0.86136 0.60964 0.0
H1171 H 0.56586 0.85918 0.53902 0.0
H1172 H 0.50777 0.83794 0.53638 0.0
C1173 C 0.49801 0.87729 0.37719 0.0
C1174 C 0.52727 0.86923 0.44547 0.0
C1175 C 0.48538 0.87931 0.34328 0.0
C1176 C 0.56542 0.86048 0.60795 0.0
C1177 C 0.55708 0.85934 0.56735 0.0
C1178 C 0.51338 0.8468 0.51143 0.0
C1179 C 0.50122 0.85982 0.39578 0.0
C1180 C 0.51155 0.85828 0.43741 0.0
C1181 C 0.53771 0.85838 0.56334 0.0
C1182 C 0.52889 0.85801 0.51971 0.0
H1183 H 0.47267 0.83427 0.33136 0.0
H1184 H 0.49515 0.83055 0.38989 0.0
H1185 H 0.49261 0.8385 0.46612 0.0
H1186 H 0.52666 0.85952 0.67063 0.0
H1187 H 0.51197 0.85766 0.59948 0.0
C1188 C 0.15599 0.96495 0.6081 0.0
C1189 C 0.14193 0.96733 0.57734 0.0
C1190 C 0.15777 0.9772 0.64263 0.0
C1191 C 0.14617 0.02186 0.68973 0.0
H1192 H 0.14016 0.99415 0.79595 0.0
C1193 C 0.13327 0.05868 0.85284 0.0
C1194 C 0.13952 0.05041 0.89115 0.0
C1195 C 0.13457 0.04937 0.81341 0.0
C1196 C 0.14226 0.00219 0.76692 0.0
H1197 H 0.11935 0.98491 0.55702 0.0
H1198 H 0.12285 0.00693 0.61717 0.0
H1199 H 0.14185 0.97787 0.72748 0.0
H1200 H 0.15239 0.02604 0.9182 0.0
H1201 H 0.15557 0.01002 0.84917 0.0
H1202 H 0.14722 0.04618 0.72895 0.0
C1203 C 0.13251 0.99553 0.61429 0.0
C1204 C 0.14308 0.9928 0.72753 0.0
C1205 C 0.13062 0.98309 0.57967 0.0
C1206 C 0.14734 0.03268 0.88919 0.0
C1207 C 0.14901 0.02347 0.84951 0.0
C1208 C 0.14574 0.03129 0.72931 0.0
C1209 C 0.14554 0.99214 0.64715 0.0
C1210 C 0.14498 0.00251 0.68854 0.0
C1211 C 0.14252 0.03162 0.81095 0.0
C1212 C 0.14365 0.0216 0.7686 0.0
H1213 H 0.16467 0.95272 0.60737 0.0
H1214 H 0.16802 0.97436 0.66727 0.0
H1215 H 0.14773 0.02966 0.66013 0.0
H1216 H 0.12701 0.07229 0.85338 0.0
H1217 H 0.12898 0.05604 0.78504 0.0
C1218 C 0.94787 0.63921 0.12248 0.0
C1219 C 0.95451 0.63547 0.16409 0.0
C1220 C 0.95995 0.63918 0.08716 0.0
C1221 C 0.01036 0.63932 0.05833 0.0
H1222 H 0.99211 0.62047 0.94922 0.0
C1223 C 0.05771 0.61798 0.91515 0.0
C1224 C 0.0528 0.62533 0.87479 0.0
C1225 C 0.04589 0.62001 0.95066 0.0
C1226 C 0.99735 0.62587 0.97945 0.0
H1227 H 0.97892 0.62883 0.20159 0.0
H1228 H 0.99983 0.62805 0.14013 0.0
H1229 H 0.97117 0.62267 0.01065 0.0
H1230 H 0.03161 0.64043 0.8399 0.0
H1231 H 0.01084 0.64358 0.90168 0.0
H1232 H 0.03675 0.6418 0.02705 0.0
C1233 C 0.98547 0.63158 0.13453 0.0
C1234 C 0.98533 0.62727 0.01468 0.0
C1235 C 0.97345 0.63191 0.16986 0.0
C1236 C 0.03582 0.63466 0.87061 0.0
C1237 C 0.02388 0.6364 0.90587 0.0
C1238 C 0.02244 0.63762 0.02326 0.0
C1239 C 0.97889 0.6351 0.09257 0.0
C1240 C 0.99164 0.63403 0.05467 0.0
C1241 C 0.02881 0.62913 0.94624 0.0
C1242 C 0.01604 0.6309 0.98349 0.0
H1243 H 0.93332 0.6421 0.11721 0.0
H1244 H 0.95438 0.64236 0.0556 0.0
H1245 H 0.01571 0.64494 0.0882 0.0
H1246 H 0.07072 0.61076 0.91939 0.0
H1247 H 0.04996 0.61419 0.98141 0.0
C1248 C 0.10103 0.29813 0.1697 0.0
C1249 C 0.09024 0.29645 0.20735 0.0
C1250 C 0.10721 0.28239 0.14766 0.0
C1251 C 0.11272 0.23133 0.16001 0.0
H1252 H 0.10983 0.23097 0.035 0.0
C1253 C 0.10319 0.16586 0.0591 0.0
C1254 C 0.11903 0.16073 0.03548 0.0
C1255 C 0.10156 0.1836 0.07628 0.0
C1256 C 0.1109 0.23102 0.06986 0.0
H1257 H 0.07822 0.27673 0.25205 0.0
H1258 H 0.08823 0.24953 0.21303 0.0
H1259 H 0.10399 0.25974 0.07453 0.0
H1260 H 0.14501 0.17071 0.00903 0.0
H1261 H 0.14172 0.20215 0.03818 0.0
H1262 H 0.11856 0.20234 0.15515 0.0
C1263 C 0.09225 0.26296 0.20074 0.0
C1264 C 0.10765 0.24746 0.09256 0.0
C1265 C 0.08623 0.27864 0.22289 0.0
C1266 C 0.1326 0.17422 0.02688 0.0
C1267 C 0.13081 0.19214 0.04368 0.0
C1268 C 0.11568 0.21491 0.13737 0.0
C1269 C 0.1027 0.26459 0.16262 0.0
C1270 C 0.10814 0.24772 0.13803 0.0
C1271 C 0.11551 0.19672 0.06948 0.0
C1272 C 0.11449 0.21459 0.09226 0.0
H1273 H 0.10433 0.31157 0.15648 0.0
H1274 H 0.11542 0.28419 0.11873 0.0
H1275 H 0.11369 0.23106 0.19485 0.0
H1276 H 0.09225 0.15598 0.06543 0.0
H1277 H 0.08956 0.18697 0.09578 0.0
C1278 C 0.82356 0.62851 0.2724 0.0
C1279 C 0.83728 0.61513 0.28008 0.0
C1280 C 0.80521 0.62534 0.28534 0.0
C1281 C 0.77332 0.58829 0.32584 0.0
H1282 H 0.74941 0.62882 0.386 0.0
C1283 C 0.71793 0.57745 0.45673 0.0
C1284 C 0.70175 0.58815 0.45414 0.0
C1285 C 0.73295 0.58108 0.42961 0.0
C1286 C 0.75582 0.61744 0.36883 0.0
H1287 H 0.8423 0.58748 0.30436 0.0
H1288 H 0.81075 0.58215 0.32775 0.0
H1289 H 0.77815 0.63438 0.34652 0.0
H1290 H 0.68869 0.61125 0.42175 0.0
H1291 H 0.71523 0.6179 0.37477 0.0
H1292 H 0.75144 0.5712 0.35017 0.0
C1293 C 0.81388 0.59503 0.31153 0.0
C1294 C 0.77224 0.62062 0.34596 0.0
C1295 C 0.83209 0.59817 0.29854 0.0
C1296 C 0.70097 0.60272 0.42419 0.0
C1297 C 0.71615 0.60657 0.39752 0.0
C1298 C 0.75708 0.58508 0.34916 0.0
C1299 C 0.80025 0.60872 0.30607 0.0
C1300 C 0.78145 0.60598 0.325 0.0
C1301 C 0.73222 0.59568 0.39976 0.0
C1302 C 0.74838 0.59954 0.37161 0.0
H1303 H 0.82716 0.64172 0.25828 0.0
H1304 H 0.79502 0.63608 0.28002 0.0
H1305 H 0.77973 0.57676 0.30926 0.0
H1306 H 0.71884 0.56603 0.47919 0.0
H1307 H 0.74525 0.57258 0.4323 0.0
C1308 C 0.37407 0.33912 0.61428 0.0
C1309 C 0.37818 0.34287 0.57086 0.0
C1310 C 0.37737 0.32166 0.63166 0.0
C1311 C 0.38622 0.27263 0.60514 0.0
H1312 H 0.40906 0.27258 0.71838 0.0
C1313 C 0.4152 0.20636 0.68657 0.0
C1314 C 0.41197 0.20432 0.7311 0.0
C1315 C 0.41066 0.22283 0.66544 0.0
C1316 C 0.40249 0.27232 0.68699 0.0
H1317 H 0.38819 0.33105 0.51103 0.0
H1318 H 0.39412 0.30032 0.5416 0.0
H1319 H 0.40163 0.3018 0.6838 0.0
H1320 H 0.40092 0.21791 0.78792 0.0
H1321 H 0.39305 0.24659 0.75119 0.0
H1322 H 0.38717 0.24302 0.60851 0.0
C1323 C 0.38826 0.31095 0.56211 0.0
C1324 C 0.39823 0.28909 0.66712 0.0
C1325 C 0.38489 0.32851 0.5446 0.0
C1326 C 0.40391 0.2191 0.75384 0.0
C1327 C 0.39939 0.23555 0.73273 0.0
C1328 C 0.39051 0.25578 0.62508 0.0
C1329 C 0.38492 0.30748 0.60612 0.0
C1330 C 0.38987 0.28947 0.62617 0.0
C1331 C 0.40282 0.23767 0.68835 0.0
C1332 C 0.39855 0.25545 0.66642 0.0
H1333 H 0.36849 0.3498 0.63507 0.0
H1334 H 0.37416 0.31932 0.66535 0.0
H1335 H 0.37968 0.27245 0.57371 0.0
H1336 H 0.42161 0.19538 0.66814 0.0
H1337 H 0.4137 0.22409 0.63135 0.0
C1338 C 0.66519 0.90019 0.82592 0.0
C1339 C 0.66163 0.88437 0.80081 0.0
C1340 C 0.68263 0.90316 0.84385 0.0
C1341 C 0.7318 0.89309 0.83846 0.0
H1342 H 0.73008 0.89928 0.96268 0.0
C1343 C 0.79836 0.89838 0.94328 0.0
C1344 C 0.79771 0.91003 0.97954 0.0
C1345 C 0.7823 0.89476 0.91939 0.0
C1346 C 0.73087 0.8979 0.92796 0.0
H1347 H 0.67409 0.85992 0.77244 0.0
H1348 H 0.70494 0.86548 0.80313 0.0
H1349 H 0.70152 0.89454 0.92275 0.0
H1350 H 0.78002 0.92761 0.0182 0.0
H1351 H 0.75222 0.92191 0.97602 0.0
H1352 H 0.76112 0.89709 0.84338 0.0
C1353 C 0.69399 0.87538 0.80919 0.0
C1354 C 0.71448 0.89505 0.90514 0.0
C1355 C 0.67637 0.87225 0.79154 0.0
C1356 C 0.78083 0.91829 0.9909 0.0
C1357 C 0.76487 0.91493 0.96673 0.0
C1358 C 0.74826 0.89626 0.86126 0.0
C1359 C 0.69706 0.89056 0.83659 0.0
C1360 C 0.71475 0.89278 0.86019 0.0
C1361 C 0.7653 0.90292 0.93094 0.0
C1362 C 0.74799 0.89889 0.90634 0.0
H1363 H 0.65431 0.91009 0.83272 0.0
H1364 H 0.68475 0.91515 0.86423 0.0
H1365 H 0.73233 0.89142 0.80375 0.0
H1366 H 0.81119 0.89173 0.93404 0.0
H1367 H 0.78318 0.88527 0.89244 0.0
C1368 C 0.90024 0.29856 0.6979 0.0
C1369 C 0.91455 0.29955 0.72852 0.0
C1370 C 0.8968 0.28211 0.67542 0.0
C1371 C 0.90653 0.23155 0.68038 0.0
H1372 H 0.89119 0.23214 0.56047 0.0
C1373 C 0.90662 0.16561 0.57861 0.0
C1374 C 0.89 0.16131 0.55722 0.0
C1375 C 0.90952 0.18317 0.59595 0.0
C1376 C 0.89536 0.23181 0.59402 0.0
H1377 H 0.93684 0.28424 0.75858 0.0
H1378 H 0.93124 0.25577 0.71889 0.0
H1379 H 0.89644 0.26136 0.59847 0.0
H1380 H 0.86386 0.17255 0.53494 0.0
H1381 H 0.86916 0.20355 0.56468 0.0
H1382 H 0.90586 0.20205 0.67561 0.0
C1383 C 0.92222 0.26746 0.71303 0.0
C1384 C 0.8983 0.24853 0.61592 0.0
C1385 C 0.92549 0.28381 0.7358 0.0
C1386 C 0.87684 0.17543 0.55107 0.0
C1387 C 0.87984 0.19314 0.56821 0.0
C1388 C 0.90382 0.21492 0.6584 0.0
C1389 C 0.90773 0.2663 0.68275 0.0
C1390 C 0.90406 0.24861 0.65936 0.0
C1391 C 0.89597 0.19698 0.59197 0.0
C1392 C 0.89835 0.21485 0.61494 0.0
H1393 H 0.89146 0.31043 0.69192 0.0
H1394 H 0.88536 0.28172 0.65287 0.0
H1395 H 0.91045 0.23099 0.71406 0.0
H1396 H 0.91725 0.15521 0.58299 0.0
H1397 H 0.92226 0.18587 0.6133 0.0
C1398 C 0.82509 0.38525 0.77176 0.0
C1399 C 0.83766 0.37365 0.79329 0.0
C1400 C 0.8073 0.38817 0.78872 0.0
C1401 C 0.7846 0.38822 0.89431 0.0
H1402 H 0.73845 0.39177 0.83116 0.0
C1403 C 0.71534 0.39695 0.98318 0.0
C1404 C 0.70193 0.40866 0.96508 0.0
C1405 C 0.73119 0.39211 0.95989 0.0
C1406 C 0.75126 0.39104 0.84919 0.0
H1407 H 0.84105 0.35478 0.84693 0.0
H1408 H 0.8101 0.35966 0.8761 0.0
H1409 H 0.76702 0.38371 0.79287 0.0
H1410 H 0.6947 0.42457 0.90833 0.0
H1411 H 0.72257 0.41643 0.86786 0.0
H1412 H 0.76922 0.39589 0.95034 0.0
C1413 C 0.81402 0.36686 0.84685 0.0
C1414 C 0.7676 0.38637 0.82723 0.0
C1415 C 0.83169 0.36397 0.83003 0.0
C1416 C 0.70471 0.41537 0.923 0.0
C1417 C 0.72066 0.41065 0.89976 0.0
C1418 C 0.76839 0.393 0.91611 0.0
C1419 C 0.80188 0.37952 0.8274 0.0
C1420 C 0.7844 0.38471 0.84972 0.0
C1421 C 0.73416 0.39901 0.91799 0.0
C1422 C 0.75145 0.39431 0.89401 0.0
H1423 H 0.82941 0.39293 0.74352 0.0
H1424 H 0.79822 0.39799 0.77301 0.0
H1425 H 0.79741 0.3875 0.91241 0.0
H1426 H 0.71346 0.39126 0.01516 0.0
H1427 H 0.74105 0.38279 0.97468 0.0
C1428 C 0.58951 0.2063 0.18128 0.0
C1429 C 0.59476 0.20437 0.22476 0.0
C1430 C 0.59342 0.22256 0.15861 0.0
C1431 C 0.60377 0.27191 0.17665 0.0
H1432 H 0.62102 0.27115 0.05812 0.0
C1433 C 0.62957 0.33797 0.0957 0.0
C1434 C 0.62322 0.34172 0.0538 0.0
C1435 C 0.6271 0.32054 0.11397 0.0
C1436 C 0.61605 0.27157 0.09107 0.0
H1437 H 0.60878 0.21791 0.27795 0.0
H1438 H 0.61556 0.24621 0.23859 0.0
H1439 H 0.61452 0.24201 0.09533 0.0
H1440 H 0.61015 0.32993 0.99728 0.0
H1441 H 0.60567 0.29925 0.02945 0.0
H1442 H 0.60519 0.30136 0.1726 0.0
C1443 C 0.60811 0.23527 0.2222 0.0
C1444 C 0.61232 0.2549 0.11238 0.0
C1445 C 0.6042 0.21903 0.24482 0.0
C1446 C 0.6152 0.32737 0.02962 0.0
C1447 C 0.61264 0.30985 0.04806 0.0
C1448 C 0.60748 0.28851 0.15543 0.0
C1449 C 0.60266 0.23729 0.17892 0.0
C1450 C 0.60629 0.25489 0.15557 0.0
C1451 C 0.61814 0.30641 0.09088 0.0
C1452 C 0.61384 0.28856 0.11254 0.0
H1453 H 0.58201 0.19539 0.16495 0.0
H1454 H 0.58883 0.22376 0.12548 0.0
H1455 H 0.59873 0.27244 0.20954 0.0
H1456 H 0.63615 0.34867 0.11477 0.0
H1457 H 0.63196 0.31822 0.14657 0.0
C1458 C 0.67636 0.11428 0.28538 0.0
C1459 C 0.66258 0.12377 0.3085 0.0
C1460 C 0.69394 0.11157 0.30357 0.0
C1461 C 0.71609 0.10974 0.41102 0.0
H1462 H 0.76235 0.11155 0.34766 0.0
C1463 C 0.78614 0.10819 0.49805 0.0
C1464 C 0.80008 0.09672 0.48107 0.0
C1465 C 0.76997 0.11166 0.47474 0.0
C1466 C 0.74951 0.11083 0.36565 0.0
H1467 H 0.65671 0.13905 0.36706 0.0
H1468 H 0.6873 0.13474 0.39826 0.0
H1469 H 0.73315 0.1178 0.3102 0.0
H1470 H 0.80786 0.08004 0.42573 0.0
H1471 H 0.77962 0.08622 0.38491 0.0
H1472 H 0.73229 0.10287 0.46639 0.0
C1473 C 0.68448 0.12881 0.36684 0.0
C1474 C 0.73279 0.1144 0.3442 0.0
C1475 C 0.66698 0.13138 0.34889 0.0
C1476 C 0.79754 0.08909 0.43969 0.0
C1477 C 0.78135 0.09262 0.41625 0.0
C1478 C 0.73272 0.10625 0.43237 0.0
C1479 C 0.69802 0.11841 0.34505 0.0
C1480 C 0.7159 0.11411 0.36681 0.0
C1481 C 0.76729 0.10379 0.43374 0.0
C1482 C 0.74965 0.10694 0.41012 0.0
H1483 H 0.67327 0.10824 0.25422 0.0
H1484 H 0.70405 0.10347 0.28595 0.0
H1485 H 0.70331 0.10888 0.42924 0.0
H1486 H 0.78772 0.11465 0.52931 0.0
H1487 H 0.75957 0.12062 0.48879 0.0
C1488 C 0.60582 0.7952 0.68892 0.0
C1489 C 0.59368 0.79508 0.72439 0.0
C1490 C 0.60952 0.77889 0.66611 0.0
C1491 C 0.60583 0.72774 0.67644 0.0
H1492 H 0.61171 0.72819 0.55203 0.0
C1493 C 0.60251 0.66127 0.57754 0.0
C1494 C 0.61755 0.65771 0.54989 0.0
C1495 C 0.59998 0.67873 0.5956 0.0
C1496 C 0.61024 0.72793 0.5868 0.0
H1497 H 0.5755 0.77795 0.76291 0.0
H1498 H 0.58152 0.74968 0.72279 0.0
H1499 H 0.6066 0.75728 0.59071 0.0
H1500 H 0.64106 0.67013 0.51739 0.0
H1501 H 0.63633 0.70101 0.54853 0.0
H1502 H 0.60891 0.69838 0.67235 0.0
C1503 C 0.5887 0.76217 0.71324 0.0
C1504 C 0.60738 0.74457 0.60904 0.0
C1505 C 0.58518 0.77839 0.73627 0.0
C1506 C 0.62933 0.67242 0.53852 0.0
C1507 C 0.62667 0.69006 0.55641 0.0
C1508 C 0.60844 0.71117 0.65422 0.0
C1509 C 0.60102 0.76214 0.67802 0.0
C1510 C 0.60492 0.74465 0.65415 0.0
C1511 C 0.61228 0.69318 0.58609 0.0
C1512 C 0.61046 0.71106 0.60917 0.0
H1513 H 0.6127 0.80784 0.6793 0.0
H1514 H 0.61927 0.77939 0.63958 0.0
H1515 H 0.60452 0.72726 0.71122 0.0
H1516 H 0.59287 0.65039 0.58606 0.0
H1517 H 0.58854 0.68088 0.61767 0.0
C1518 C 0.34051 0.10094 0.82418 0.0
C1519 C 0.34463 0.11672 0.79944 0.0
C1520 C 0.32281 0.09823 0.84095 0.0
C1521 C 0.27395 0.10869 0.83153 0.0
H1522 H 0.27349 0.10266 0.95584 0.0
C1523 C 0.20558 0.10348 0.92975 0.0
C1524 C 0.20555 0.09183 0.96598 0.0
C1525 C 0.22207 0.10716 0.90758 0.0
C1526 C 0.27331 0.10401 0.92107 0.0
H1527 H 0.3329 0.14142 0.77062 0.0
H1528 H 0.30161 0.13629 0.79915 0.0
H1529 H 0.30274 0.10724 0.91851 0.0
H1530 H 0.22252 0.07433 0.00645 0.0
H1531 H 0.2511 0.0801 0.96719 0.0
H1532 H 0.24457 0.10477 0.83375 0.0
C1533 C 0.31233 0.12623 0.80586 0.0
C1534 C 0.29009 0.10677 0.89976 0.0
C1535 C 0.33021 0.1291 0.78945 0.0
C1536 C 0.22222 0.08364 0.97912 0.0
C1537 C 0.23862 0.08705 0.95663 0.0
C1538 C 0.2571 0.1056 0.85281 0.0
C1539 C 0.30868 0.11104 0.83279 0.0
C1540 C 0.2906 0.10897 0.85482 0.0
C1541 C 0.23885 0.09903 0.92082 0.0
C1542 C 0.25658 0.10303 0.89788 0.0
H1543 H 0.35112 0.09083 0.83149 0.0
H1544 H 0.32023 0.08623 0.86101 0.0
H1545 H 0.27403 0.11031 0.79679 0.0
H1546 H 0.19292 0.11008 0.9192 0.0
H1547 H 0.22169 0.11664 0.88058 0.0
C1548 C 0.87227 0.83673 0.10871 0.0
C1549 C 0.87849 0.84099 0.06692 0.0
C1550 C 0.87501 0.81917 0.12606 0.0
C1551 C 0.8863 0.77051 0.10099 0.0
H1552 H 0.90425 0.77066 0.21891 0.0
C1553 C 0.91256 0.70438 0.18844 0.0
C1554 C 0.90774 0.70236 0.23219 0.0
C1555 C 0.90871 0.72082 0.16637 0.0
C1556 C 0.89903 0.77032 0.18617 0.0
H1557 H 0.89155 0.82987 0.00961 0.0
H1558 H 0.89644 0.79892 0.04015 0.0
H1559 H 0.89762 0.7998 0.18311 0.0
H1560 H 0.8946 0.71593 0.28654 0.0
H1561 H 0.88786 0.7445 0.24821 0.0
H1562 H 0.88774 0.74092 0.10431 0.0
C1563 C 0.88941 0.80927 0.0594 0.0
C1564 C 0.89524 0.78705 0.16559 0.0
C1565 C 0.88662 0.82695 0.04189 0.0
C1566 C 0.89882 0.71711 0.25315 0.0
C1567 C 0.89495 0.73351 0.23111 0.0
C1568 C 0.89009 0.7537 0.12169 0.0
C1569 C 0.88408 0.80536 0.10215 0.0
C1570 C 0.88863 0.78738 0.12293 0.0
C1571 C 0.89996 0.73564 0.18753 0.0
C1572 C 0.89634 0.75341 0.16472 0.0
H1573 H 0.8656 0.84716 0.12844 0.0
H1574 H 0.87027 0.81649 0.15863 0.0
H1575 H 0.88115 0.7703 0.06819 0.0
H1576 H 0.91966 0.6934 0.17141 0.0
H1577 H 0.91297 0.72206 0.133 0.0
C1578 C 0.28104 0.39256 0.51139 0.0
C1579 C 0.29273 0.40637 0.49478 0.0
C1580 C 0.26448 0.38806 0.49053 0.0
C1581 C 0.23991 0.39303 0.38554 0.0
H1582 H 0.19675 0.38055 0.45412 0.0
C1583 C 0.16594 0.3889 0.31503 0.0
C1584 C 0.15489 0.37375 0.32738 0.0
C1585 C 0.18302 0.39216 0.33475 0.0
C1586 C 0.20874 0.38382 0.43454 0.0
H1587 H 0.29611 0.42644 0.44361 0.0
H1588 H 0.26702 0.41897 0.40766 0.0
H1589 H 0.22584 0.38802 0.48995 0.0
H1590 H 0.15354 0.34997 0.37001 0.0
H1591 H 0.18318 0.35598 0.40512 0.0
H1592 H 0.22255 0.38927 0.33018 0.0
C1593 C 0.27082 0.41124 0.43621 0.0
C1594 C 0.22546 0.38807 0.45504 0.0
C1595 C 0.28748 0.4156 0.45687 0.0
C1596 C 0.16145 0.36195 0.36008 0.0
C1597 C 0.17848 0.36534 0.38014 0.0
C1598 C 0.22314 0.38897 0.36509 0.0
C1599 C 0.25909 0.39739 0.45274 0.0
C1600 C 0.24129 0.39275 0.43083 0.0
C1601 C 0.18944 0.38049 0.36768 0.0
C1602 C 0.20737 0.38434 0.38937 0.0
H1603 H 0.28486 0.38499 0.54014 0.0
H1604 H 0.25605 0.37707 0.50379 0.0
H1605 H 0.25185 0.39621 0.36574 0.0
H1606 H 0.16124 0.39855 0.29069 0.0
H1607 H 0.19104 0.4041 0.3249 0.0
C1608 C 0.40339 0.781 0.25127 0.0
C1609 C 0.4113 0.79588 0.22867 0.0
C1610 C 0.3989 0.76457 0.22996 0.0
C1611 C 0.38984 0.74449 0.1222 0.0
H1612 H 0.40162 0.69846 0.18003 0.0
C1613 C 0.38429 0.67175 0.04116 0.0
C1614 C 0.37789 0.65733 0.06759 0.0
C1615 C 0.38762 0.68934 0.05866 0.0
C1616 C 0.39803 0.71118 0.1636 0.0
H1617 H 0.42072 0.80503 0.16571 0.0
H1618 H 0.41286 0.77636 0.12856 0.0
H1619 H 0.40894 0.72768 0.21482 0.0
H1620 H 0.36864 0.65029 0.13205 0.0
H1621 H 0.37418 0.68082 0.16229 0.0
H1622 H 0.37891 0.72781 0.07088 0.0
C1623 C 0.40991 0.77752 0.16271 0.0
C1624 C 0.40223 0.72794 0.18358 0.0
C1625 C 0.41442 0.79397 0.18406 0.0
C1626 C 0.37399 0.66104 0.11113 0.0
C1627 C 0.37722 0.67852 0.12848 0.0
C1628 C 0.3856 0.72764 0.10214 0.0
C1629 C 0.40223 0.76258 0.18549 0.0
C1630 C 0.39805 0.74481 0.16336 0.0
C1631 C 0.38451 0.69277 0.1028 0.0
C1632 C 0.38947 0.71079 0.12287 0.0
H1633 H 0.40048 0.78208 0.28542 0.0
H1634 H 0.39269 0.75345 0.24832 0.0
H1635 H 0.38633 0.75725 0.10589 0.0
H1636 H 0.38742 0.66924 0.00748 0.0
H1637 H 0.39327 0.70003 0.03803 0.0
C1638 C 0.22202 0.91652 0.4791 0.0
C1639 C 0.20532 0.90866 0.46503 0.0
C1640 C 0.23847 0.91326 0.45665 0.0
C1641 C 0.25709 0.89575 0.35183 0.0
H1642 H 0.30255 0.89295 0.41798 0.0
C1643 C 0.32999 0.87186 0.28808 0.0
C1644 C 0.34455 0.88399 0.29868 0.0
C1645 C 0.31214 0.87482 0.30454 0.0
C1646 C 0.28995 0.89375 0.39911 0.0
H1647 H 0.19269 0.89114 0.4167 0.0
H1648 H 0.22153 0.88481 0.37817 0.0
H1649 H 0.27326 0.89749 0.4552 0.0
H1650 H 0.3513 0.90956 0.33195 0.0
H1651 H 0.32045 0.91426 0.36158 0.0
H1652 H 0.2741 0.89138 0.29578 0.0
C1653 C 0.22191 0.89395 0.40584 0.0
C1654 C 0.27314 0.8965 0.42036 0.0
C1655 C 0.20538 0.89749 0.42796 0.0
C1656 C 0.34059 0.89962 0.32415 0.0
C1657 C 0.32291 0.9024 0.34098 0.0
C1658 C 0.27395 0.89267 0.3306 0.0
C1659 C 0.23871 0.90175 0.41997 0.0
C1660 C 0.25648 0.89787 0.39703 0.0
C1661 C 0.30863 0.88983 0.33214 0.0
C1662 C 0.29054 0.89196 0.35407 0.0
H1663 H 0.22229 0.92544 0.50714 0.0
H1664 H 0.25097 0.91995 0.46796 0.0
H1665 H 0.24462 0.89691 0.33265 0.0
H1666 H 0.33255 0.85966 0.2687 0.0
H1667 H 0.3013 0.86493 0.2973 0.0
C1668 C 0.10048 0.8329 0.53853 0.0
C1669 C 0.11799 0.83877 0.52442 0.0
C1670 C 0.0977 0.81475 0.55219 0.0
C1671 C 0.12297 0.77592 0.59966 0.0
H1672 H 0.07625 0.75052 0.5824 0.0
C1673 C 0.10487 0.70561 0.68088 0.0
C1674 C 0.08726 0.70502 0.70022 0.0
C1675 C 0.10983 0.72038 0.65405 0.0
C1676 C 0.08937 0.75746 0.58754 0.0
H1677 H 0.1462 0.83006 0.51188 0.0
H1678 H 0.14131 0.7981 0.53557 0.0
H1679 H 0.08275 0.77882 0.54244 0.0
H1680 H 0.06096 0.71932 0.70586 0.0
H1681 H 0.06964 0.74504 0.65972 0.0
H1682 H 0.12936 0.75471 0.64558 0.0
C1683 C 0.12977 0.80765 0.53637 0.0
C1684 C 0.09309 0.77365 0.56465 0.0
C1685 C 0.13252 0.82587 0.52243 0.0
C1686 C 0.07472 0.71946 0.69204 0.0
C1687 C 0.0796 0.73408 0.66505 0.0
C1688 C 0.11925 0.75965 0.62251 0.0
C1689 C 0.11239 0.80199 0.55212 0.0
C1690 C 0.1097 0.78336 0.57134 0.0
C1691 C 0.09717 0.73471 0.64565 0.0
C1692 C 0.10219 0.75055 0.61756 0.0
H1693 H 0.08898 0.84252 0.54004 0.0
H1694 H 0.0842 0.81094 0.56454 0.0
H1695 H 0.13583 0.78315 0.60587 0.0
H1696 H 0.11484 0.69472 0.68676 0.0
H1697 H 0.12347 0.72049 0.63948 0.0
C1698 C 0.29162 0.5996 0.95371 0.0
C1699 C 0.29196 0.59322 0.99657 0.0
C1700 C 0.27484 0.60396 0.93362 0.0
C1701 C 0.22442 0.59541 0.94063 0.0
H1702 H 0.22088 0.6391 0.86862 0.0
C1703 C 0.15435 0.62177 0.876 0.0
C1704 C 0.15375 0.6278 0.8329 0.0
C1705 C 0.17127 0.61799 0.89603 0.0
C1706 C 0.22168 0.62675 0.88826 0.0
H1707 H 0.2748 0.58623 0.0516 0.0
H1708 H 0.2456 0.59411 0.01688 0.0
H1709 H 0.25025 0.63146 0.90314 0.0
H1710 H 0.17061 0.63505 0.77749 0.0
H1711 H 0.20011 0.62817 0.81223 0.0
H1712 H 0.19588 0.59068 0.92574 0.0
C1713 C 0.25831 0.59559 0.99865 0.0
C1714 C 0.23853 0.62236 0.90804 0.0
C1715 C 0.27509 0.59127 0.01875 0.0
C1716 C 0.17054 0.63024 0.81055 0.0
C1717 C 0.18747 0.62648 0.83063 0.0
C1718 C 0.20759 0.5998 0.92087 0.0
C1719 C 0.25798 0.60201 0.95585 0.0
C1720 C 0.2401 0.60665 0.93453 0.0
C1721 C 0.18804 0.62015 0.87351 0.0
C1722 C 0.20599 0.61554 0.8945 0.0
H1723 H 0.30433 0.60149 0.93576 0.0
H1724 H 0.27508 0.60869 0.90049 0.0
H1725 H 0.22521 0.58304 0.96022 0.0
H1726 H 0.1417 0.61956 0.89406 0.0
H1727 H 0.1712 0.61338 0.92927 0.0
loop_
_geom_bond_atom_site_label_1
_geom_bond_atom_site_label_2
_geom_bond_distance
_geom_bond_site_symmetry_2
_ccdc_geom_bond_type
Co0 N4 2.148 . S
Co0 N10 2.128 . S
Co0 N20 2.194 1_556 S
Co0 O25 2.351 . S
Co0 O26 2.155 . S
Co0 O27 2.096 1_556 S
C1 N4 1.301 . S
C1 N5 1.328 . S
C1 H6 0.930 . S
C2 C3 1.333 . S
C2 N4 1.317 1_554 S
C2 H7 0.930 . S
C3 C2 1.333 . S
C3 N5 1.350 1_554 S
C3 H29 0.931 . S
N4 Co0 2.148 . S
N4 C1 1.301 . S
N4 C2 1.317 1_556 S
N5 C1 1.328 . S
N5 C3 1.350 1_556 S
H6 C1 0.930 . S
H7 C2 0.930 . S
C8 O9 1.224 . S
C8 O27 1.247 . S
O9 C8 1.224 . S
N10 Co0 2.128 . S
N10 C11 1.355 . S
N10 C13 1.311 1_556 S
C11 N10 1.355 . S
C11 C12 1.363 . S
C11 H23 0.929 . S
C12 C11 1.363 . S
C12 N14 1.375 1_556 S
C12 H30 0.931 . S
C13 N10 1.311 1_554 S
C13 N14 1.347 . S
C13 H24 0.929 . S
N14 C12 1.375 1_554 S
N14 C13 1.347 . S
C15 C18 1.365 . S
C15 N20 1.328 1_556 S
C15 H21 0.929 . S
C16 C17 1.362 . S
C16 C19 1.378 . S
C16 H31 0.929 . S
C17 C16 1.362 . S
C17 C18 1.366 1_554 S
C18 C15 1.365 . S
C18 C17 1.366 1_556 S
C18 H32 0.930 . S
C19 C16 1.378 . S
C19 N20 1.315 . S
C19 H22 0.930 . S
N20 Co0 2.194 1_554 S
N20 C15 1.328 1_554 S
N20 C19 1.315 . S
H21 C15 0.929 . S
H22 C19 0.930 . S
H23 C11 0.929 . S
H24 C13 0.929 . S
O25 Co0 2.351 . S
O25 C28 1.244 . S
O26 Co0 2.155 . S
O26 C28 1.240 . S
O27 Co0 2.096 1_554 S
O27 C8 1.247 . S
C28 O25 1.244 . S
C28 O26 1.240 . S
H29 C3 0.931 . S
H30 C12 0.931 . S
H31 C16 0.929 . S
H32 C18 0.930 . S
Co33 N37 2.148 . S
Co33 N43 2.128 . S
Co33 N53 2.194 . S
Co33 O58 2.351 . S
Co33 O59 2.155 . S
Co33 O60 2.096 . S
C34 N37 1.301 . S
C34 N38 1.328 . S
C34 H39 0.930 . S
C35 C36 1.333 . S
C35 N37 1.317 . S
C35 H40 0.930 . S
C36 C35 1.333 . S
C36 N38 1.350 . S
C36 H62 0.931 . S
N37 Co33 2.148 . S
N37 C34 1.301 . S
N37 C35 1.317 . S
N38 C34 1.328 . S
N38 C36 1.350 . S
H39 C34 0.930 . S
H40 C35 0.930 . S
C41 O42 1.224 . S
C41 O60 1.247 . S
O42 C41 1.224 . S
N43 Co33 2.128 . S
N43 C44 1.355 . S
N43 C46 1.311 . S
C44 N43 1.355 . S
C44 C45 1.363 . S
C44 H56 0.929 . S
C45 C44 1.363 . S
C45 N47 1.375 . S
C45 H63 0.931 . S
C46 N43 1.311 . S
C46 N47 1.347 . S
C46 H57 0.929 . S
N47 C45 1.375 . S
N47 C46 1.347 . S
C48 C51 1.365 . S
C48 N53 1.328 . S
C48 H54 0.929 . S
C49 C50 1.362 . S
C49 C52 1.378 . S
C49 H64 0.929 . S
C50 C49 1.362 . S
C50 C51 1.366 . S
C51 C48 1.365 . S
C51 C50 1.366 . S
C51 H65 0.930 . S
C52 C49 1.378 . S
C52 N53 1.315 . S
C52 H55 0.930 . S
N53 Co33 2.194 . S
N53 C48 1.328 . S
N53 C52 1.315 . S
H54 C48 0.929 . S
H55 C52 0.930 . S
H56 C44 0.929 . S
H57 C46 0.929 . S
O58 Co33 2.351 . S
O58 C61 1.244 . S
O59 Co33 2.155 . S
O59 C61 1.240 . S
O60 Co33 2.096 . S
O60 C41 1.247 . S
C61 O58 1.244 . S
C61 O59 1.240 . S
H62 C36 0.931 . S
H63 C45 0.931 . S
H64 C49 0.929 . S
H65 C51 0.930 . S
Co66 N70 2.148 . S
Co66 N76 2.128 . S
Co66 N86 2.194 . S
Co66 O91 2.351 . S
Co66 O92 2.155 . S
Co66 O93 2.096 . S
C67 N70 1.301 . S
C67 N71 1.328 . S
C67 H72 0.930 . S
C68 C69 1.333 . S
C68 N70 1.317 . S
C68 H73 0.930 . S
C69 C68 1.333 . S
C69 N71 1.350 . S
C69 H95 0.931 . S
N70 Co66 2.148 . S
N70 C67 1.301 . S
N70 C68 1.317 . S
N71 C67 1.328 . S
N71 C69 1.350 . S
H72 C67 0.930 . S
H73 C68 0.930 . S
C74 O75 1.224 . S
C74 O93 1.247 . S
O75 C74 1.224 . S
N76 Co66 2.128 . S
N76 C77 1.355 . S
N76 C79 1.311 . S
C77 N76 1.355 . S
C77 C78 1.363 . S
C77 H89 0.929 . S
C78 C77 1.363 . S
C78 N80 1.375 . S
C78 H96 0.931 . S
C79 N76 1.311 . S
C79 N80 1.347 . S
C79 H90 0.929 . S
N80 C78 1.375 . S
N80 C79 1.347 . S
C81 C84 1.365 . S
C81 N86 1.328 . S
C81 H87 0.929 . S
C82 C83 1.362 . S
C82 C85 1.378 . S
C82 H97 0.929 . S
C83 C82 1.362 . S
C83 C84 1.366 . S
C84 C81 1.365 . S
C84 C83 1.366 . S
C84 H98 0.930 . S
C85 C82 1.378 . S
C85 N86 1.315 . S
C85 H88 0.930 . S
N86 Co66 2.194 . S
N86 C81 1.328 . S
N86 C85 1.315 . S
H87 C81 0.929 . S
H88 C85 0.930 . S
H89 C77 0.929 . S
H90 C79 0.929 . S
O91 Co66 2.351 . S
O91 C94 1.244 . S
O92 Co66 2.155 . S
O92 C94 1.240 . S
O93 Co66 2.096 . S
O93 C74 1.247 . S
C94 O91 1.244 . S
C94 O92 1.240 . S
H95 C69 0.931 . S
H96 C78 0.931 . S
H97 C82 0.929 . S
H98 C84 0.930 . S
Co99 N103 2.148 . S
Co99 N109 2.128 . S
Co99 N119 2.194 . S
Co99 O124 2.351 . S
Co99 O125 2.155 . S
Co99 O126 2.096 . S
C100 N103 1.301 . S
C100 N104 1.328 . S
C100 H105 0.930 . S
C101 C102 1.333 . S
C101 N103 1.317 . S
C101 H106 0.930 . S
C102 C101 1.333 . S
C102 N104 1.350 . S
C102 H128 0.931 . S
N103 Co99 2.148 . S
N103 C100 1.301 . S
N103 C101 1.317 . S
N104 C100 1.328 . S
N104 C102 1.350 . S
H105 C100 0.930 . S
H106 C101 0.930 . S
C107 O108 1.224 . S
C107 O126 1.247 . S
O108 C107 1.224 . S
N109 Co99 2.128 . S
N109 C110 1.355 . S
N109 C112 1.311 . S
C110 N109 1.355 . S
C110 C111 1.363 . S
C110 H122 0.929 . S
C111 C110 1.363 . S
C111 N113 1.375 . S
C111 H129 0.931 . S
C112 N109 1.311 . S
C112 N113 1.347 . S
C112 H123 0.929 . S
N113 C111 1.375 . S
N113 C112 1.347 . S
C114 C117 1.365 . S
C114 N119 1.328 . S
C114 H120 0.929 . S
C115 C116 1.362 . S
C115 C118 1.378 . S
C115 H130 0.929 . S
C116 C115 1.362 . S
C116 C117 1.366 . S
C117 C114 1.365 . S
C117 C116 1.366 . S
C117 H131 0.930 . S
C118 C115 1.378 . S
C118 N119 1.315 . S
C118 H121 0.930 . S
N119 Co99 2.194 . S
N119 C114 1.328 . S
N119 C118 1.315 . S
H120 C114 0.929 . S
H121 C118 0.930 . S
H122 C110 0.929 . S
H123 C112 0.929 . S
O124 Co99 2.351 . S
O124 C127 1.244 . S
O125 Co99 2.155 . S
O125 C127 1.240 . S
O126 Co99 2.096 . S
O126 C107 1.247 . S
C127 O124 1.244 . S
C127 O125 1.240 . S
H128 C102 0.931 . S
H129 C111 0.931 . S
H130 C115 0.929 . S
H131 C117 0.930 . S
Co132 N136 2.148 . S
Co132 N142 2.128 . S
Co132 N152 2.194 . S
Co132 O157 2.351 . S
Co132 O158 2.155 . S
Co132 O159 2.096 . S
C133 N136 1.301 . S
C133 N137 1.328 . S
C133 H138 0.930 . S
C134 C135 1.333 . S
C134 N136 1.317 . S
C134 H139 0.930 . S
C135 C134 1.333 . S
C135 N137 1.350 . S
C135 H161 0.931 . S
N136 Co132 2.148 . S
N136 C133 1.301 . S
N136 C134 1.317 . S
N137 C133 1.328 . S
N137 C135 1.350 . S
H138 C133 0.930 . S
H139 C134 0.930 . S
C140 O141 1.224 . S
C140 O159 1.247 . S
O141 C140 1.224 . S
N142 Co132 2.128 . S
N142 C143 1.355 . S
N142 C145 1.311 . S
C143 N142 1.355 . S
C143 C144 1.363 . S
C143 H155 0.929 . S
C144 C143 1.363 . S
C144 N146 1.375 . S
C144 H162 0.931 . S
C145 N142 1.311 . S
C145 N146 1.347 . S
C145 H156 0.929 . S
N146 C144 1.375 . S
N146 C145 1.347 . S
C147 C150 1.365 . S
C147 N152 1.328 . S
C147 H153 0.929 . S
C148 C149 1.362 . S
C148 C151 1.378 . S
C148 H163 0.929 . S
C149 C148 1.362 . S
C149 C150 1.366 . S
C150 C147 1.365 . S
C150 C149 1.366 . S
C150 H164 0.930 . S
C151 C148 1.378 . S
C151 N152 1.315 . S
C151 H154 0.930 . S
N152 Co132 2.194 . S
N152 C147 1.328 . S
N152 C151 1.315 . S
H153 C147 0.929 . S
H154 C151 0.930 . S
H155 C143 0.929 . S
H156 C145 0.929 . S
O157 Co132 2.351 . S
O157 C160 1.244 . S
O158 Co132 2.155 . S
O158 C160 1.240 . S
O159 Co132 2.096 . S
O159 C140 1.247 . S
C160 O157 1.244 . S
C160 O158 1.240 . S
H161 C135 0.931 . S
H162 C144 0.931 . S
H163 C148 0.929 . S
H164 C150 0.930 . S
Co165 N169 2.148 . S
Co165 N175 2.128 . S
Co165 N185 2.194 . S
Co165 O190 2.351 . S
Co165 O191 2.155 . S
Co165 O192 2.096 . S
C166 N169 1.301 . S
C166 N170 1.328 . S
C166 H171 0.930 . S
C167 C168 1.333 . S
C167 N169 1.317 . S
C167 H172 0.930 . S
C168 C167 1.333 . S
C168 N170 1.350 . S
C168 H194 0.931 . S
N169 Co165 2.148 . S
N169 C166 1.301 . S
N169 C167 1.317 . S
N170 C166 1.328 . S
N170 C168 1.350 . S
H171 C166 0.930 . S
H172 C167 0.930 . S
C173 O174 1.224 . S
C173 O192 1.247 . S
O174 C173 1.224 . S
N175 Co165 2.128 . S
N175 C176 1.355 . S
N175 C178 1.311 . S
C176 N175 1.355 . S
C176 C177 1.363 . S
C176 H188 0.929 . S
C177 C176 1.363 . S
C177 N179 1.375 . S
C177 H195 0.931 . S
C178 N175 1.311 . S
C178 N179 1.347 . S
C178 H189 0.929 . S
N179 C177 1.375 . S
N179 C178 1.347 . S
C180 C183 1.365 . S
C180 N185 1.328 . S
C180 H186 0.929 . S
C181 C182 1.362 . S
C181 C184 1.378 . S
C181 H196 0.929 . S
C182 C181 1.362 . S
C182 C183 1.366 . S
C183 C180 1.365 . S
C183 C182 1.366 . S
C183 H197 0.930 . S
C184 C181 1.378 . S
C184 N185 1.315 . S
C184 H187 0.930 . S
N185 Co165 2.194 . S
N185 C180 1.328 . S
N185 C184 1.315 . S
H186 C180 0.929 . S
H187 C184 0.930 . S
H188 C176 0.929 . S
H189 C178 0.929 . S
O190 Co165 2.351 . S
O190 C193 1.244 . S
O191 Co165 2.155 . S
O191 C193 1.240 . S
O192 Co165 2.096 . S
O192 C173 1.247 . S
C193 O190 1.244 . S
C193 O191 1.240 . S
H194 C168 0.931 . S
H195 C177 0.931 . S
H196 C181 0.929 . S
H197 C183 0.930 . S
Co198 N202 2.148 . S
Co198 N208 2.128 . S
Co198 N218 2.194 1_556 S
Co198 O223 2.351 . S
Co198 O224 2.155 . S
Co198 O225 2.096 1_556 S
C199 N202 1.301 . S
C199 N203 1.328 . S
C199 H204 0.930 . S
C200 C201 1.333 . S
C200 N202 1.317 1_554 S
C200 H205 0.930 . S
C201 C200 1.333 . S
C201 N203 1.350 1_554 S
C201 H227 0.931 . S
N202 Co198 2.148 . S
N202 C199 1.301 . S
N202 C200 1.317 1_556 S
N203 C199 1.328 . S
N203 C201 1.350 1_556 S
H204 C199 0.930 . S
H205 C200 0.930 . S
C206 O207 1.224 . S
C206 O225 1.247 . S
O207 C206 1.224 . S
N208 Co198 2.128 . S
N208 C209 1.355 . S
N208 C211 1.311 1_556 S
C209 N208 1.355 . S
C209 C210 1.363 . S
C209 H221 0.929 . S
C210 C209 1.363 . S
C210 N212 1.375 1_556 S
C210 H228 0.931 . S
C211 N208 1.311 1_554 S
C211 N212 1.347 . S
C211 H222 0.929 . S
N212 C210 1.375 1_554 S
N212 C211 1.347 . S
C213 C216 1.365 . S
C213 N218 1.328 1_556 S
C213 H219 0.929 . S
C214 C215 1.362 . S
C214 C217 1.378 . S
C214 H229 0.929 . S
C215 C214 1.362 . S
C215 C216 1.366 1_554 S
C216 C213 1.365 . S
C216 C215 1.366 1_556 S
C216 H230 0.930 . S
C217 C214 1.378 . S
C217 N218 1.315 . S
C217 H220 0.930 . S
N218 Co198 2.194 1_554 S
N218 C213 1.328 1_554 S
N218 C217 1.315 . S
H219 C213 0.929 . S
H220 C217 0.930 . S
H221 C209 0.929 . S
H222 C211 0.929 . S
O223 Co198 2.351 . S
O223 C226 1.244 . S
O224 Co198 2.155 . S
O224 C226 1.240 . S
O225 Co198 2.096 1_554 S
O225 C206 1.247 . S
C226 O223 1.244 . S
C226 O224 1.240 . S
H227 C201 0.931 . S
H228 C210 0.931 . S
H229 C214 0.929 . S
H230 C216 0.930 . S
Co231 N235 2.148 . S
Co231 N241 2.128 . S
Co231 N251 2.194 . S
Co231 O256 2.351 . S
Co231 O257 2.155 . S
Co231 O258 2.096 . S
C232 N235 1.301 . S
C232 N236 1.328 . S
C232 H237 0.930 . S
C233 C234 1.333 . S
C233 N235 1.317 . S
C233 H238 0.930 . S
C234 C233 1.333 . S
C234 N236 1.350 . S
C234 H260 0.931 . S
N235 Co231 2.148 . S
N235 C232 1.301 . S
N235 C233 1.317 . S
N236 C232 1.328 . S
N236 C234 1.350 . S
H237 C232 0.930 . S
H238 C233 0.930 . S
C239 O240 1.224 . S
C239 O258 1.247 . S
O240 C239 1.224 . S
N241 Co231 2.128 . S
N241 C242 1.355 . S
N241 C244 1.311 . S
C242 N241 1.355 . S
C242 C243 1.363 . S
C242 H254 0.929 . S
C243 C242 1.363 . S
C243 N245 1.375 . S
C243 H261 0.931 . S
C244 N241 1.311 . S
C244 N245 1.347 . S
C244 H255 0.929 . S
N245 C243 1.375 . S
N245 C244 1.347 . S
C246 C249 1.365 . S
C246 N251 1.328 . S
C246 H252 0.929 . S
C247 C248 1.362 . S
C247 C250 1.378 . S
C247 H262 0.929 . S
C248 C247 1.362 . S
C248 C249 1.366 . S
C249 C246 1.365 . S
C249 C248 1.366 . S
C249 H263 0.930 . S
C250 C247 1.378 . S
C250 N251 1.315 . S
C250 H253 0.930 . S
N251 Co231 2.194 . S
N251 C246 1.328 . S
N251 C250 1.315 . S
H252 C246 0.929 . S
H253 C250 0.930 . S
H254 C242 0.929 . S
H255 C244 0.929 . S
O256 Co231 2.351 . S
O256 C259 1.244 . S
O257 Co231 2.155 . S
O257 C259 1.240 . S
O258 Co231 2.096 . S
O258 C239 1.247 . S
C259 O256 1.244 . S
C259 O257 1.240 . S
H260 C234 0.931 . S
H261 C243 0.931 . S
H262 C247 0.929 . S
H263 C249 0.930 . S
Co264 N268 2.148 . S
Co264 N274 2.128 . S
Co264 N284 2.194 . S
Co264 O289 2.351 . S
Co264 O290 2.155 . S
Co264 O291 2.096 . S
C265 N268 1.301 . S
C265 N269 1.328 . S
C265 H270 0.930 . S
C266 C267 1.333 . S
C266 N268 1.317 . S
C266 H271 0.930 . S
C267 C266 1.333 . S
C267 N269 1.350 . S
C267 H293 0.931 . S
N268 Co264 2.148 . S
N268 C265 1.301 . S
N268 C266 1.317 . S
N269 C265 1.328 . S
N269 C267 1.350 . S
H270 C265 0.930 . S
H271 C266 0.930 . S
C272 O273 1.224 . S
C272 O291 1.247 . S
O273 C272 1.224 . S
N274 Co264 2.128 . S
N274 C275 1.355 . S
N274 C277 1.311 . S
C275 N274 1.355 . S
C275 C276 1.363 . S
C275 H287 0.929 . S
C276 C275 1.363 . S
C276 N278 1.375 . S
C276 H294 0.931 . S
C277 N274 1.311 . S
C277 N278 1.347 . S
C277 H288 0.929 . S
N278 C276 1.375 . S
N278 C277 1.347 . S
C279 C282 1.365 . S
C279 N284 1.328 . S
C279 H285 0.929 . S
C280 C281 1.362 . S
C280 C283 1.378 . S
C280 H295 0.929 . S
C281 C280 1.362 . S
C281 C282 1.366 . S
C282 C279 1.365 . S
C282 C281 1.366 . S
C282 H296 0.930 . S
C283 C280 1.378 . S
C283 N284 1.315 . S
C283 H286 0.930 . S
N284 Co264 2.194 . S
N284 C279 1.328 . S
N284 C283 1.315 . S
H285 C279 0.929 . S
H286 C283 0.930 . S
H287 C275 0.929 . S
H288 C277 0.929 . S
O289 Co264 2.351 . S
O289 C292 1.244 . S
O290 Co264 2.155 . S
O290 C292 1.240 . S
O291 Co264 2.096 . S
O291 C272 1.247 . S
C292 O289 1.244 . S
C292 O290 1.240 . S
H293 C267 0.931 . S
H294 C276 0.931 . S
H295 C280 0.929 . S
H296 C282 0.930 . S
Co297 N301 2.148 . S
Co297 N307 2.128 . S
Co297 N317 2.194 . S
Co297 O322 2.351 . S
Co297 O323 2.155 . S
Co297 O324 2.096 . S
C298 N301 1.301 . S
C298 N302 1.328 . S
C298 H303 0.930 . S
C299 C300 1.333 . S
C299 N301 1.317 . S
C299 H304 0.930 . S
C300 C299 1.333 . S
C300 N302 1.350 . S
C300 H326 0.931 . S
N301 Co297 2.148 . S
N301 C298 1.301 . S
N301 C299 1.317 . S
N302 C298 1.328 . S
N302 C300 1.350 . S
H303 C298 0.930 . S
H304 C299 0.930 . S
C305 O306 1.224 . S
C305 O324 1.247 . S
O306 C305 1.224 . S
N307 Co297 2.128 . S
N307 C308 1.355 . S
N307 C310 1.311 . S
C308 N307 1.355 . S
C308 C309 1.363 . S
C308 H320 0.929 . S
C309 C308 1.363 . S
C309 N311 1.375 . S
C309 H327 0.931 . S
C310 N307 1.311 . S
C310 N311 1.347 . S
C310 H321 0.929 . S
N311 C309 1.375 . S
N311 C310 1.347 . S
C312 C315 1.365 . S
C312 N317 1.328 . S
C312 H318 0.929 . S
C313 C314 1.362 . S
C313 C316 1.378 . S
C313 H328 0.929 . S
C314 C313 1.362 . S
C314 C315 1.366 . S
C315 C312 1.365 . S
C315 C314 1.366 . S
C315 H329 0.930 . S
C316 C313 1.378 . S
C316 N317 1.315 . S
C316 H319 0.930 . S
N317 Co297 2.194 . S
N317 C312 1.328 . S
N317 C316 1.315 . S
H318 C312 0.929 . S
H319 C316 0.930 . S
H320 C308 0.929 . S
H321 C310 0.929 . S
O322 Co297 2.351 . S
O322 C325 1.244 . S
O323 Co297 2.155 . S
O323 C325 1.240 . S
O324 Co297 2.096 . S
O324 C305 1.247 . S
C325 O322 1.244 . S
C325 O323 1.240 . S
H326 C300 0.931 . S
H327 C309 0.931 . S
H328 C313 0.929 . S
H329 C315 0.930 . S
Co330 N334 2.148 . S
Co330 N340 2.128 . S
Co330 N350 2.194 1_556 S
Co330 O355 2.351 . S
Co330 O356 2.155 . S
Co330 O357 2.096 1_556 S
C331 N334 1.301 . S
C331 N335 1.328 . S
C331 H336 0.930 . S
C332 C333 1.333 . S
C332 N334 1.317 1_554 S
C332 H337 0.930 . S
C333 C332 1.333 . S
C333 N335 1.350 1_554 S
C333 H359 0.931 . S
N334 Co330 2.148 . S
N334 C331 1.301 . S
N334 C332 1.317 1_556 S
N335 C331 1.328 . S
N335 C333 1.350 1_556 S
H336 C331 0.930 . S
H337 C332 0.930 . S
C338 O339 1.224 . S
C338 O357 1.247 . S
O339 C338 1.224 . S
N340 Co330 2.128 . S
N340 C341 1.355 . S
N340 C343 1.311 1_556 S
C341 N340 1.355 . S
C341 C342 1.363 . S
C341 H353 0.929 . S
C342 C341 1.363 . S
C342 N344 1.375 1_556 S
C342 H360 0.931 . S
C343 N340 1.311 1_554 S
C343 N344 1.347 . S
C343 H354 0.929 . S
N344 C342 1.375 1_554 S
N344 C343 1.347 . S
C345 C348 1.365 . S
C345 N350 1.328 1_556 S
C345 H351 0.929 . S
C346 C347 1.362 . S
C346 C349 1.378 . S
C346 H361 0.929 . S
C347 C346 1.362 . S
C347 C348 1.366 1_554 S
C348 C345 1.365 . S
C348 C347 1.366 1_556 S
C348 H362 0.930 . S
C349 C346 1.378 . S
C349 N350 1.315 . S
C349 H352 0.930 . S
N350 Co330 2.194 1_554 S
N350 C345 1.328 1_554 S
N350 C349 1.315 . S
H351 C345 0.929 . S
H352 C349 0.930 . S
H353 C341 0.929 . S
H354 C343 0.929 . S
O355 Co330 2.351 . S
O355 C358 1.244 . S
O356 Co330 2.155 . S
O356 C358 1.240 . S
O357 Co330 2.096 1_554 S
O357 C338 1.247 . S
C358 O355 1.244 . S
C358 O356 1.240 . S
H359 C333 0.931 . S
H360 C342 0.931 . S
H361 C346 0.929 . S
H362 C348 0.930 . S
Co363 N367 2.148 . S
Co363 N373 2.128 . S
Co363 N383 2.194 . S
Co363 O388 2.351 . S
Co363 O389 2.155 . S
Co363 O390 2.096 . S
C364 N367 1.301 . S
C364 N368 1.328 . S
C364 H369 0.930 . S
C365 C366 1.333 . S
C365 N367 1.317 . S
C365 H370 0.930 . S
C366 C365 1.333 . S
C366 N368 1.350 . S
C366 H392 0.931 . S
N367 Co363 2.148 . S
N367 C364 1.301 . S
N367 C365 1.317 . S
N368 C364 1.328 . S
N368 C366 1.350 . S
H369 C364 0.930 . S
H370 C365 0.930 . S
C371 O372 1.224 . S
C371 O390 1.247 . S
O372 C371 1.224 . S
N373 Co363 2.128 . S
N373 C374 1.355 . S
N373 C376 1.311 . S
C374 N373 1.355 . S
C374 C375 1.363 . S
C374 H386 0.929 . S
C375 C374 1.363 . S
C375 N377 1.375 . S
C375 H393 0.931 . S
C376 N373 1.311 . S
C376 N377 1.347 . S
C376 H387 0.929 . S
N377 C375 1.375 . S
N377 C376 1.347 . S
C378 C381 1.365 . S
C378 N383 1.328 . S
C378 H384 0.929 . S
C379 C380 1.362 . S
C379 C382 1.378 . S
C379 H394 0.929 . S
C380 C379 1.362 . S
C380 C381 1.366 . S
C381 C378 1.365 . S
C381 C380 1.366 . S
C381 H395 0.930 . S
C382 C379 1.378 . S
C382 N383 1.315 . S
C382 H385 0.930 . S
N383 Co363 2.194 . S
N383 C378 1.328 . S
N383 C382 1.315 . S
H384 C378 0.929 . S
H385 C382 0.930 . S
H386 C374 0.929 . S
H387 C376 0.929 . S
O388 Co363 2.351 . S
O388 C391 1.244 . S
O389 Co363 2.155 . S
O389 C391 1.240 . S
O390 Co363 2.096 . S
O390 C371 1.247 . S
C391 O388 1.244 . S
C391 O389 1.240 . S
H392 C366 0.931 . S
H393 C375 0.931 . S
H394 C379 0.929 . S
H395 C381 0.930 . S
Co396 N400 2.148 . S
Co396 N406 2.128 . S
Co396 N416 2.194 1_556 S
Co396 O421 2.351 . S
Co396 O422 2.155 . S
Co396 O423 2.096 1_556 S
C397 N400 1.301 . S
C397 N401 1.328 . S
C397 H402 0.930 . S
C398 C399 1.333 . S
C398 N400 1.317 1_554 S
C398 H403 0.930 . S
C399 C398 1.333 . S
C399 N401 1.350 1_554 S
C399 H425 0.931 . S
N400 Co396 2.148 . S
N400 C397 1.301 . S
N400 C398 1.317 1_556 S
N401 C397 1.328 . S
N401 C399 1.350 1_556 S
H402 C397 0.930 . S
H403 C398 0.930 . S
C404 O405 1.224 . S
C404 O423 1.247 . S
O405 C404 1.224 . S
N406 Co396 2.128 . S
N406 C407 1.355 . S
N406 C409 1.311 1_556 S
C407 N406 1.355 . S
C407 C408 1.363 . S
C407 H419 0.929 . S
C408 C407 1.363 . S
C408 N410 1.375 1_556 S
C408 H426 0.931 . S
C409 N406 1.311 1_554 S
C409 N410 1.347 . S
C409 H420 0.929 . S
N410 C408 1.375 1_554 S
N410 C409 1.347 . S
C411 C414 1.365 . S
C411 N416 1.328 1_556 S
C411 H417 0.929 . S
C412 C413 1.362 . S
C412 C415 1.378 . S
C412 H427 0.929 . S
C413 C412 1.362 . S
C413 C414 1.366 1_554 S
C414 C411 1.365 . S
C414 C413 1.366 1_556 S
C414 H428 0.930 . S
C415 C412 1.378 . S
C415 N416 1.315 . S
C415 H418 0.930 . S
N416 Co396 2.194 1_554 S
N416 C411 1.328 1_554 S
N416 C415 1.315 . S
H417 C411 0.929 . S
H418 C415 0.930 . S
H419 C407 0.929 . S
H420 C409 0.929 . S
O421 Co396 2.351 . S
O421 C424 1.244 . S
O422 Co396 2.155 . S
O422 C424 1.240 . S
O423 Co396 2.096 1_554 S
O423 C404 1.247 . S
C424 O421 1.244 . S
C424 O422 1.240 . S
H425 C399 0.931 . S
H426 C408 0.931 . S
H427 C412 0.929 . S
H428 C414 0.930 . S
Co429 N433 2.148 . S
Co429 N439 2.128 . S
Co429 N449 2.194 . S
Co429 O454 2.351 . S
Co429 O455 2.155 . S
Co429 O456 2.096 . S
C430 N433 1.301 . S
C430 N434 1.328 . S
C430 H435 0.930 . S
C431 C432 1.333 . S
C431 N433 1.317 . S
C431 H436 0.930 . S
C432 C431 1.333 . S
C432 N434 1.350 . S
C432 H458 0.931 . S
N433 Co429 2.148 . S
N433 C430 1.301 . S
N433 C431 1.317 . S
N434 C430 1.328 . S
N434 C432 1.350 . S
H435 C430 0.930 . S
H436 C431 0.930 . S
C437 O438 1.224 . S
C437 O456 1.247 . S
O438 C437 1.224 . S
N439 Co429 2.128 . S
N439 C440 1.355 . S
N439 C442 1.311 . S
C440 N439 1.355 . S
C440 C441 1.363 . S
C440 H452 0.929 . S
C441 C440 1.363 . S
C441 N443 1.375 . S
C441 H459 0.931 . S
C442 N439 1.311 . S
C442 N443 1.347 . S
C442 H453 0.929 . S
N443 C441 1.375 . S
N443 C442 1.347 . S
C444 C447 1.365 . S
C444 N449 1.328 . S
C444 H450 0.929 . S
C445 C446 1.362 . S
C445 C448 1.378 . S
C445 H460 0.929 . S
C446 C445 1.362 . S
C446 C447 1.366 . S
C447 C444 1.365 . S
C447 C446 1.366 . S
C447 H461 0.930 . S
C448 C445 1.378 . S
C448 N449 1.315 . S
C448 H451 0.930 . S
N449 Co429 2.194 . S
N449 C444 1.328 . S
N449 C448 1.315 . S
H450 C444 0.929 . S
H451 C448 0.930 . S
H452 C440 0.929 . S
H453 C442 0.929 . S
O454 Co429 2.351 . S
O454 C457 1.244 . S
O455 Co429 2.155 . S
O455 C457 1.240 . S
O456 Co429 2.096 . S
O456 C437 1.247 . S
C457 O454 1.244 . S
C457 O455 1.240 . S
H458 C432 0.931 . S
H459 C441 0.931 . S
H460 C445 0.929 . S
H461 C447 0.930 . S
Co462 N466 2.148 . S
Co462 N472 2.128 . S
Co462 N482 2.194 . S
Co462 O487 2.351 . S
Co462 O488 2.155 . S
Co462 O489 2.096 . S
C463 N466 1.301 . S
C463 N467 1.328 . S
C463 H468 0.930 . S
C464 C465 1.333 . S
C464 N466 1.317 . S
C464 H469 0.930 . S
C465 C464 1.333 . S
C465 N467 1.350 . S
C465 H491 0.931 . S
N466 Co462 2.148 . S
N466 C463 1.301 . S
N466 C464 1.317 . S
N467 C463 1.328 . S
N467 C465 1.350 . S
H468 C463 0.930 . S
H469 C464 0.930 . S
C470 O471 1.224 . S
C470 O489 1.247 . S
O471 C470 1.224 . S
N472 Co462 2.128 . S
N472 C473 1.355 . S
N472 C475 1.311 . S
C473 N472 1.355 . S
C473 C474 1.363 . S
C473 H485 0.929 . S
C474 C473 1.363 . S
C474 N476 1.375 . S
C474 H492 0.931 . S
C475 N472 1.311 . S
C475 N476 1.347 . S
C475 H486 0.929 . S
N476 C474 1.375 . S
N476 C475 1.347 . S
C477 C480 1.365 . S
C477 N482 1.328 . S
C477 H483 0.929 . S
C478 C479 1.362 . S
C478 C481 1.378 . S
C478 H493 0.929 . S
C479 C478 1.362 . S
C479 C480 1.366 . S
C480 C477 1.365 . S
C480 C479 1.366 . S
C480 H494 0.930 . S
C481 C478 1.378 . S
C481 N482 1.315 . S
C481 H484 0.930 . S
N482 Co462 2.194 . S
N482 C477 1.328 . S
N482 C481 1.315 . S
H483 C477 0.929 . S
H484 C481 0.930 . S
H485 C473 0.929 . S
H486 C475 0.929 . S
O487 Co462 2.351 . S
O487 C490 1.244 . S
O488 Co462 2.155 . S
O488 C490 1.240 . S
O489 Co462 2.096 . S
O489 C470 1.247 . S
C490 O487 1.244 . S
C490 O488 1.240 . S
H491 C465 0.931 . S
H492 C474 0.931 . S
H493 C478 0.929 . S
H494 C480 0.930 . S
Co495 N499 2.148 . S
Co495 N505 2.128 . S
Co495 N515 2.194 . S
Co495 O520 2.351 . S
Co495 O521 2.155 . S
Co495 O522 2.096 . S
C496 N499 1.301 . S
C496 N500 1.328 . S
C496 H501 0.930 . S
C497 C498 1.333 . S
C497 N499 1.317 . S
C497 H502 0.930 . S
C498 C497 1.333 . S
C498 N500 1.350 . S
C498 H524 0.931 . S
N499 Co495 2.148 . S
N499 C496 1.301 . S
N499 C497 1.317 . S
N500 C496 1.328 . S
N500 C498 1.350 . S
H501 C496 0.930 . S
H502 C497 0.930 . S
C503 O504 1.224 . S
C503 O522 1.247 . S
O504 C503 1.224 . S
N505 Co495 2.128 . S
N505 C506 1.355 . S
N505 C508 1.311 . S
C506 N505 1.355 . S
C506 C507 1.363 . S
C506 H518 0.929 . S
C507 C506 1.363 . S
C507 N509 1.375 . S
C507 H525 0.931 . S
C508 N505 1.311 . S
C508 N509 1.347 . S
C508 H519 0.929 . S
N509 C507 1.375 . S
N509 C508 1.347 . S
C510 C513 1.365 . S
C510 N515 1.328 . S
C510 H516 0.929 . S
C511 C512 1.362 . S
C511 C514 1.378 . S
C511 H526 0.929 . S
C512 C511 1.362 . S
C512 C513 1.366 . S
C513 C510 1.365 . S
C513 C512 1.366 . S
C513 H527 0.930 . S
C514 C511 1.378 . S
C514 N515 1.315 . S
C514 H517 0.930 . S
N515 Co495 2.194 . S
N515 C510 1.328 . S
N515 C514 1.315 . S
H516 C510 0.929 . S
H517 C514 0.930 . S
H518 C506 0.929 . S
H519 C508 0.929 . S
O520 Co495 2.351 . S
O520 C523 1.244 . S
O521 Co495 2.155 . S
O521 C523 1.240 . S
O522 Co495 2.096 . S
O522 C503 1.247 . S
C523 O520 1.244 . S
C523 O521 1.240 . S
H524 C498 0.931 . S
H525 C507 0.931 . S
H526 C511 0.929 . S
H527 C513 0.930 . S
C528 C529 1.349 . S
C528 C530 1.327 . S
C528 H553 0.950 . S
C529 C528 1.349 . S
C529 C545 1.349 1_554 S
C530 C528 1.327 . S
C530 C549 1.429 . S
C530 H554 0.950 . S
C531 C548 1.574 1_655 S
C531 C550 1.368 1_546 S
C531 H555 0.949 . S
H532 C536 0.949 . S
C533 C534 1.349 1_556 S
C533 C535 1.327 . S
C533 H556 0.950 . S
C534 C533 1.349 1_554 S
C534 C546 1.349 . S
C535 C533 1.327 . S
C535 C551 1.429 1_556 S
C535 H557 0.950 . S
C536 H532 0.949 . S
C536 C544 1.574 1_455 S
C536 C552 1.368 1_565 S
H537 C545 0.950 . S
H538 C543 0.950 . S
H539 C544 0.949 . S
H540 C546 0.950 . S
H541 C547 0.950 . S
H542 C548 0.949 . S
C543 H538 0.950 . S
C543 C545 1.327 . S
C543 C549 1.429 1_556 S
C544 C536 1.574 1_655 S
C544 H539 0.949 . S
C544 C550 1.368 . S
C545 C529 1.349 1_556 S
C545 H537 0.950 . S
C545 C543 1.327 . S
C546 C534 1.349 . S
C546 H540 0.950 . S
C546 C547 1.327 . S
C547 H541 0.950 . S
C547 C546 1.327 . S
C547 C551 1.429 . S
C548 C531 1.574 1_455 S
C548 H542 0.949 . S
C548 C552 1.368 1_556 S
C549 C530 1.429 . S
C549 C543 1.429 1_554 S
C549 C550 1.523 . S
C550 C531 1.368 1_564 S
C550 C544 1.368 . S
C550 C549 1.523 . S
C551 C535 1.429 1_554 S
C551 C547 1.429 . S
C551 C552 1.523 . S
C552 C536 1.368 1_545 S
C552 C548 1.368 1_554 S
C552 C551 1.523 . S
H553 C528 0.950 . S
H554 C530 0.950 . S
H555 C531 0.949 . S
H556 C533 0.950 . S
H557 C535 0.950 . S
C558 C559 1.349 . S
C558 C560 1.327 . S
C558 H583 0.950 . S
C559 C558 1.349 . S
C559 C575 1.349 . S
C560 C558 1.327 . S
C560 C579 1.429 . S
C560 H584 0.950 . S
C561 C578 1.574 . S
C561 C580 1.368 . S
C561 H585 0.949 . S
H562 C566 0.949 . S
C563 C564 1.349 . S
C563 C565 1.327 . S
C563 H586 0.950 . S
C564 C563 1.349 . S
C564 C576 1.349 . S
C565 C563 1.327 . S
C565 C581 1.429 . S
C565 H587 0.950 . S
C566 H562 0.949 . S
C566 C574 1.574 . S
C566 C582 1.368 . S
H567 C575 0.950 . S
H568 C573 0.950 . S
H569 C574 0.949 . S
H570 C576 0.950 . S
H571 C577 0.950 . S
H572 C578 0.949 . S
C573 H568 0.950 . S
C573 C575 1.327 . S
C573 C579 1.429 . S
C574 C566 1.574 . S
C574 H569 0.949 . S
C574 C580 1.368 1_455 S
C575 C559 1.349 . S
C575 H567 0.950 . S
C575 C573 1.327 . S
C576 C564 1.349 . S
C576 H570 0.950 . S
C576 C577 1.327 . S
C577 H571 0.950 . S
C577 C576 1.327 . S
C577 C581 1.429 . S
C578 C561 1.574 . S
C578 H572 0.949 . S
C578 C582 1.368 1_655 S
C579 C560 1.429 . S
C579 C573 1.429 . S
C579 C580 1.523 . S
C580 C561 1.368 . S
C580 C574 1.368 1_655 S
C580 C579 1.523 . S
C581 C565 1.429 . S
C581 C577 1.429 . S
C581 C582 1.523 . S
C582 C566 1.368 . S
C582 C578 1.368 1_455 S
C582 C581 1.523 . S
H583 C558 0.950 . S
H584 C560 0.950 . S
H585 C561 0.949 . S
H586 C563 0.950 . S
H587 C565 0.950 . S
C588 C589 1.349 . S
C588 C590 1.327 . S
C588 H613 0.950 . S
C589 C588 1.349 . S
C589 C605 1.349 . S
C590 C588 1.327 . S
C590 C609 1.429 . S
C590 H614 0.950 . S
C591 C608 1.574 . S
C591 C610 1.368 . S
C591 H615 0.949 . S
H592 C596 0.949 . S
C593 C594 1.349 . S
C593 C595 1.327 . S
C593 H616 0.950 . S
C594 C593 1.349 . S
C594 C606 1.349 . S
C595 C593 1.327 . S
C595 C611 1.429 . S
C595 H617 0.950 . S
C596 H592 0.949 . S
C596 C604 1.574 . S
C596 C612 1.368 . S
H597 C605 0.950 . S
H598 C603 0.950 . S
H599 C604 0.949 . S
H600 C606 0.950 . S
H601 C607 0.950 . S
H602 C608 0.949 . S
C603 H598 0.950 . S
C603 C605 1.327 . S
C603 C609 1.429 . S
C604 C596 1.574 . S
C604 H599 0.949 . S
C604 C610 1.368 . S
C605 C589 1.349 . S
C605 H597 0.950 . S
C605 C603 1.327 . S
C606 C594 1.349 . S
C606 H600 0.950 . S
C606 C607 1.327 . S
C607 H601 0.950 . S
C607 C606 1.327 . S
C607 C611 1.429 . S
C608 C591 1.574 . S
C608 H602 0.949 . S
C608 C612 1.368 . S
C609 C590 1.429 . S
C609 C603 1.429 . S
C609 C610 1.523 . S
C610 C591 1.368 . S
C610 C604 1.368 . S
C610 C609 1.523 . S
C611 C595 1.429 . S
C611 C607 1.429 . S
C611 C612 1.523 . S
C612 C596 1.368 . S
C612 C608 1.368 . S
C612 C611 1.523 . S
H613 C588 0.950 . S
H614 C590 0.950 . S
H615 C591 0.949 . S
H616 C593 0.950 . S
H617 C595 0.950 . S
C618 C619 1.349 . S
C618 C620 1.327 . S
C618 H643 0.950 . S
C619 C618 1.349 . S
C619 C635 1.349 . S
C620 C618 1.327 . S
C620 C639 1.429 . S
C620 H644 0.950 . S
C621 C638 1.574 1_565 S
C621 C640 1.368 . S
C621 H645 0.949 . S
H622 C626 0.949 . S
C623 C624 1.349 . S
C623 C625 1.327 . S
C623 H646 0.950 . S
C624 C623 1.349 . S
C624 C636 1.349 . S
C625 C623 1.327 . S
C625 C641 1.429 . S
C625 H647 0.950 . S
C626 H622 0.949 . S
C626 C634 1.574 1_545 S
C626 C642 1.368 . S
H627 C635 0.950 . S
H628 C633 0.950 . S
H629 C634 0.949 . S
H630 C636 0.950 . S
H631 C637 0.950 . S
H632 C638 0.949 . S
C633 H628 0.950 . S
C633 C635 1.327 . S
C633 C639 1.429 . S
C634 C626 1.574 1_565 S
C634 H629 0.949 . S
C634 C640 1.368 . S
C635 C619 1.349 . S
C635 H627 0.950 . S
C635 C633 1.327 . S
C636 C624 1.349 . S
C636 H630 0.950 . S
C636 C637 1.327 . S
C637 H631 0.950 . S
C637 C636 1.327 . S
C637 C641 1.429 . S
C638 C621 1.574 1_545 S
C638 H632 0.949 . S
C638 C642 1.368 . S
C639 C620 1.429 . S
C639 C633 1.429 . S
C639 C640 1.523 . S
C640 C621 1.368 . S
C640 C634 1.368 . S
C640 C639 1.523 . S
C641 C625 1.429 . S
C641 C637 1.429 . S
C641 C642 1.523 . S
C642 C626 1.368 . S
C642 C638 1.368 . S
C642 C641 1.523 . S
H643 C618 0.950 . S
H644 C620 0.950 . S
H645 C621 0.949 . S
H646 C623 0.950 . S
H647 C625 0.950 . S
C648 C649 1.349 . S
C648 C650 1.327 . S
C648 H673 0.950 . S
C649 C648 1.349 . S
C649 C665 1.349 . S
C650 C648 1.327 . S
C650 C669 1.429 . S
C650 H674 0.950 . S
C651 C668 1.574 1_455 S
C651 C670 1.368 . S
C651 H675 0.949 . S
H652 C656 0.949 . S
C653 C654 1.349 . S
C653 C655 1.327 . S
C653 H676 0.950 . S
C654 C653 1.349 . S
C654 C666 1.349 . S
C655 C653 1.327 . S
C655 C671 1.429 . S
C655 H677 0.950 . S
C656 H652 0.949 . S
C656 C664 1.574 1_655 S
C656 C672 1.368 . S
H657 C665 0.950 . S
H658 C663 0.950 . S
H659 C664 0.949 . S
H660 C666 0.950 . S
H661 C667 0.950 . S
H662 C668 0.949 . S
C663 H658 0.950 . S
C663 C665 1.327 . S
C663 C669 1.429 . S
C664 C656 1.574 1_455 S
C664 H659 0.949 . S
C664 C670 1.368 1_545 S
C665 C649 1.349 . S
C665 H657 0.950 . S
C665 C663 1.327 . S
C666 C654 1.349 . S
C666 H660 0.950 . S
C666 C667 1.327 . S
C667 H661 0.950 . S
C667 C666 1.327 . S
C667 C671 1.429 . S
C668 C651 1.574 1_655 S
C668 H662 0.949 . S
C668 C672 1.368 1_565 S
C669 C650 1.429 . S
C669 C663 1.429 . S
C669 C670 1.523 . S
C670 C651 1.368 . S
C670 C664 1.368 1_565 S
C670 C669 1.523 . S
C671 C655 1.429 . S
C671 C667 1.429 . S
C671 C672 1.523 . S
C672 C656 1.368 . S
C672 C668 1.368 1_545 S
C672 C671 1.523 . S
H673 C648 0.950 . S
H674 C650 0.950 . S
H675 C651 0.949 . S
H676 C653 0.950 . S
H677 C655 0.950 . S
C678 C679 1.349 . S
C678 C680 1.327 . S
C678 H703 0.950 . S
C679 C678 1.349 . S
C679 C695 1.349 . S
C680 C678 1.327 . S
C680 C699 1.429 . S
C680 H704 0.950 . S
C681 C698 1.574 . S
C681 C700 1.368 . S
C681 H705 0.949 . S
H682 C686 0.949 . S
C683 C684 1.349 . S
C683 C685 1.327 . S
C683 H706 0.950 . S
C684 C683 1.349 . S
C684 C696 1.349 . S
C685 C683 1.327 . S
C685 C701 1.429 . S
C685 H707 0.950 . S
C686 H682 0.949 . S
C686 C694 1.574 . S
C686 C702 1.368 . S
H687 C695 0.950 . S
H688 C693 0.950 . S
H689 C694 0.949 . S
H690 C696 0.950 . S
H691 C697 0.950 . S
H692 C698 0.949 . S
C693 H688 0.950 . S
C693 C695 1.327 . S
C693 C699 1.429 . S
C694 C686 1.574 . S
C694 H689 0.949 . S
C694 C700 1.368 1_455 S
C695 C679 1.349 . S
C695 H687 0.950 . S
C695 C693 1.327 . S
C696 C684 1.349 . S
C696 H690 0.950 . S
C696 C697 1.327 . S
C697 H691 0.950 . S
C697 C696 1.327 . S
C697 C701 1.429 . S
C698 C681 1.574 . S
C698 H692 0.949 . S
C698 C702 1.368 1_655 S
C699 C680 1.429 . S
C699 C693 1.429 . S
C699 C700 1.523 . S
C700 C681 1.368 . S
C700 C694 1.368 1_655 S
C700 C699 1.523 . S
C701 C685 1.429 . S
C701 C697 1.429 . S
C701 C702 1.523 . S
C702 C686 1.368 . S
C702 C698 1.368 1_455 S
C702 C701 1.523 . S
H703 C678 0.950 . S
H704 C680 0.950 . S
H705 C681 0.949 . S
H706 C683 0.950 . S
H707 C685 0.950 . S
C708 C709 1.349 1_556 S
C708 C710 1.327 . S
C708 H733 0.950 . S
C709 C708 1.349 1_554 S
C709 C725 1.349 . S
C710 C708 1.327 . S
C710 C729 1.429 1_556 S
C710 H734 0.950 . S
C711 C728 1.574 . S
C711 C730 1.368 . S
C711 H735 0.949 . S
H712 C716 0.949 . S
C713 C714 1.349 . S
C713 C715 1.327 . S
C713 H736 0.950 . S
C714 C713 1.349 . S
C714 C726 1.349 1_554 S
C715 C713 1.327 . S
C715 C731 1.429 . S
C715 H737 0.950 . S
C716 H712 0.949 . S
C716 C724 1.574 . S
C716 C732 1.368 1_556 S
H717 C725 0.950 . S
H718 C723 0.950 . S
H719 C724 0.949 . S
H720 C726 0.950 . S
H721 C727 0.950 . S
H722 C728 0.949 . S
C723 H718 0.950 . S
C723 C725 1.327 . S
C723 C729 1.429 . S
C724 C716 1.574 . S
C724 H719 0.949 . S
C724 C730 1.368 1_556 S
C725 C709 1.349 . S
C725 H717 0.950 . S
C725 C723 1.327 . S
C726 C714 1.349 1_556 S
C726 H720 0.950 . S
C726 C727 1.327 . S
C727 H721 0.950 . S
C727 C726 1.327 . S
C727 C731 1.429 1_556 S
C728 C711 1.574 . S
C728 H722 0.949 . S
C728 C732 1.368 . S
C729 C710 1.429 1_554 S
C729 C723 1.429 . S
C729 C730 1.523 . S
C730 C711 1.368 . S
C730 C724 1.368 1_554 S
C730 C729 1.523 . S
C731 C715 1.429 . S
C731 C727 1.429 1_554 S
C731 C732 1.523 . S
C732 C716 1.368 1_554 S
C732 C728 1.368 . S
C732 C731 1.523 . S
H733 C708 0.950 . S
H734 C710 0.950 . S
H735 C711 0.949 . S
H736 C713 0.950 . S
H737 C715 0.950 . S
C738 C739 1.349 . S
C738 C740 1.327 . S
C738 H763 0.950 . S
C739 C738 1.349 . S
C739 C755 1.349 . S
C740 C738 1.327 . S
C740 C759 1.429 . S
C740 H764 0.950 . S
C741 C758 1.574 1_565 S
C741 C760 1.368 . S
C741 H765 0.949 . S
H742 C746 0.949 . S
C743 C744 1.349 . S
C743 C745 1.327 . S
C743 H766 0.950 . S
C744 C743 1.349 . S
C744 C756 1.349 . S
C745 C743 1.327 . S
C745 C761 1.429 . S
C745 H767 0.950 . S
C746 H742 0.949 . S
C746 C754 1.574 1_545 S
C746 C762 1.368 . S
H747 C755 0.950 . S
H748 C753 0.950 . S
H749 C754 0.949 . S
H750 C756 0.950 . S
H751 C757 0.950 . S
H752 C758 0.949 . S
C753 H748 0.950 . S
C753 C755 1.327 . S
C753 C759 1.429 . S
C754 C746 1.574 1_565 S
C754 H749 0.949 . S
C754 C760 1.368 . S
C755 C739 1.349 . S
C755 H747 0.950 . S
C755 C753 1.327 . S
C756 C744 1.349 . S
C756 H750 0.950 . S
C756 C757 1.327 . S
C757 H751 0.950 . S
C757 C756 1.327 . S
C757 C761 1.429 . S
C758 C741 1.574 1_545 S
C758 H752 0.949 . S
C758 C762 1.368 . S
C759 C740 1.429 . S
C759 C753 1.429 . S
C759 C760 1.523 . S
C760 C741 1.368 . S
C760 C754 1.368 . S
C760 C759 1.523 . S
C761 C745 1.429 . S
C761 C757 1.429 . S
C761 C762 1.523 . S
C762 C746 1.368 . S
C762 C758 1.368 . S
C762 C761 1.523 . S
H763 C738 0.950 . S
H764 C740 0.950 . S
H765 C741 0.949 . S
H766 C743 0.950 . S
H767 C745 0.950 . S
C768 C769 1.349 . S
C768 C770 1.327 . S
C768 H793 0.950 . S
C769 C768 1.349 . S
C769 C785 1.349 . S
C770 C768 1.327 . S
C770 C789 1.429 . S
C770 H794 0.950 . S
C771 C788 1.596 . S
C771 C790 1.334 1_545 S
C771 H795 0.961 . S
H772 C776 0.949 . S
C773 C774 1.349 . S
C773 C775 1.327 . S
C773 H796 0.950 . S
C774 C773 1.349 . S
C774 C786 1.349 . S
C775 C773 1.327 . S
C775 C791 1.429 . S
C775 H797 0.950 . S
C776 H772 0.949 . S
C776 C784 1.574 . S
C776 C792 1.368 1_565 S
H777 C785 0.950 . S
H778 C783 0.950 . S
H779 C784 0.949 . S
H780 C786 0.950 . S
H781 C787 0.950 1_565 S
H782 C788 0.949 . S
C783 H778 0.950 . S
C783 C785 1.327 . S
C783 C789 1.429 . S
C784 C776 1.574 . S
C784 H779 0.949 . S
C784 C790 1.368 . S
C785 C769 1.349 . S
C785 H777 0.950 . S
C785 C783 1.327 . S
C786 C774 1.349 . S
C786 H780 0.950 . S
C786 C787 1.327 . S
C787 H781 0.950 1_545 S
C787 C786 1.327 . S
C787 C791 1.429 . S
C788 C771 1.596 . S
C788 H782 0.949 . S
C788 C792 1.368 . S
C789 C770 1.429 . S
C789 C783 1.429 . S
C789 C790 1.523 . S
C790 C771 1.334 1_565 S
C790 C784 1.368 . S
C790 C789 1.523 . S
C791 C775 1.429 . S
C791 C787 1.429 . S
C791 C792 1.523 . S
C792 C776 1.368 1_545 S
C792 C788 1.368 . S
C792 C791 1.523 . S
H793 C768 0.950 . S
H794 C770 0.950 . S
H795 C771 0.961 . S
H796 C773 0.950 . S
H797 C775 0.950 . S
C798 C799 1.349 . S
C798 C800 1.327 . S
C798 H823 0.950 . S
C799 C798 1.349 . S
C799 C815 1.349 . S
C800 C798 1.327 . S
C800 C819 1.429 . S
C800 H824 0.950 . S
C801 C818 1.574 1_455 S
C801 C820 1.368 . S
C801 H825 0.949 . S
H802 C806 0.949 . S
C803 C804 1.349 . S
C803 C805 1.327 . S
C803 H826 0.950 . S
C804 C803 1.349 . S
C804 C816 1.349 . S
C805 C803 1.327 . S
C805 C821 1.429 . S
C805 H827 0.950 . S
C806 H802 0.949 . S
C806 C814 1.574 . S
C806 C822 1.368 1_455 S
H807 C815 0.950 . S
H808 C813 0.950 . S
H809 C814 0.949 . S
H810 C816 0.950 . S
H811 C817 0.950 . S
H812 C818 0.949 . S
C813 H808 0.950 . S
C813 C815 1.327 . S
C813 C819 1.429 . S
C814 C806 1.574 . S
C814 H809 0.949 . S
C814 C820 1.368 . S
C815 C799 1.349 . S
C815 H807 0.950 . S
C815 C813 1.327 . S
C816 C804 1.349 . S
C816 H810 0.950 . S
C816 C817 1.327 . S
C817 H811 0.950 . S
C817 C816 1.327 . S
C817 C821 1.429 . S
C818 C801 1.574 1_655 S
C818 H812 0.949 . S
C818 C822 1.368 . S
C819 C800 1.429 . S
C819 C813 1.429 . S
C819 C820 1.523 . S
C820 C801 1.368 . S
C820 C814 1.368 . S
C820 C819 1.523 . S
C821 C805 1.429 . S
C821 C817 1.429 . S
C821 C822 1.523 . S
C822 C806 1.368 1_655 S
C822 C818 1.368 . S
C822 C821 1.523 . S
H823 C798 0.950 . S
H824 C800 0.950 . S
H825 C801 0.949 . S
H826 C803 0.950 . S
H827 C805 0.950 . S
C828 C829 1.349 . S
C828 C830 1.327 . S
C828 H853 0.950 . S
C829 C828 1.349 . S
C829 C845 1.349 . S
C830 C828 1.327 . S
C830 C849 1.429 . S
C830 H854 0.950 . S
C831 C848 1.574 . S
C831 C850 1.368 . S
C831 H855 0.949 . S
H832 C836 0.949 . S
C833 C834 1.349 . S
C833 C835 1.327 . S
C833 H856 0.950 . S
C834 C833 1.349 . S
C834 C846 1.349 . S
C835 C833 1.327 . S
C835 C851 1.429 . S
C835 H857 0.950 . S
C836 H832 0.949 . S
C836 C844 1.574 . S
C836 C852 1.368 . S
H837 C845 0.950 . S
H838 C843 0.950 . S
H839 C844 0.949 . S
H840 C846 0.950 . S
H841 C847 0.950 . S
H842 C848 0.949 . S
C843 H838 0.950 . S
C843 C845 1.327 . S
C843 C849 1.429 . S
C844 C836 1.574 . S
C844 H839 0.949 . S
C844 C850 1.368 . S
C845 C829 1.349 . S
C845 H837 0.950 . S
C845 C843 1.327 . S
C846 C834 1.349 . S
C846 H840 0.950 . S
C846 C847 1.327 . S
C847 H841 0.950 . S
C847 C846 1.327 . S
C847 C851 1.429 . S
C848 C831 1.574 . S
C848 H842 0.949 . S
C848 C852 1.368 . S
C849 C830 1.429 . S
C849 C843 1.429 . S
C849 C850 1.523 . S
C850 C831 1.368 . S
C850 C844 1.368 . S
C850 C849 1.523 . S
C851 C835 1.429 . S
C851 C847 1.429 . S
C851 C852 1.523 . S
C852 C836 1.368 . S
C852 C848 1.368 . S
C852 C851 1.523 . S
H853 C828 0.950 . S
H854 C830 0.950 . S
H855 C831 0.949 . S
H856 C833 0.950 . S
H857 C835 0.950 . S
C858 C859 1.349 . S
C858 C860 1.327 . S
C858 H883 0.950 . S
C859 C858 1.349 . S
C859 C875 1.349 . S
C860 C858 1.327 . S
C860 C879 1.429 . S
C860 H884 0.950 . S
C861 C878 1.574 1_554 S
C861 C880 1.368 . S
C861 H885 0.949 . S
H862 C866 0.949 . S
C863 C864 1.349 . S
C863 C865 1.327 . S
C863 H886 0.950 . S
C864 C863 1.349 . S
C864 C876 1.349 . S
C865 C863 1.327 . S
C865 C881 1.429 . S
C865 H887 0.950 . S
C866 H862 0.949 . S
C866 C874 1.596 . S
C866 C882 1.368 . S
H867 C875 0.950 . S
H868 C873 0.950 . S
H869 C874 0.944 1_554 S
H870 C876 0.950 . S
H871 C877 0.950 . S
H872 C878 0.949 . S
C873 H868 0.950 . S
C873 C875 1.327 . S
C873 C879 1.429 . S
C874 C866 1.596 . S
C874 H869 0.944 1_556 S
C874 C880 1.352 1_556 S
C875 C859 1.349 . S
C875 H867 0.950 . S
C875 C873 1.327 . S
C876 C864 1.349 . S
C876 H870 0.950 . S
C876 C877 1.327 . S
C877 H871 0.950 . S
C877 C876 1.327 . S
C877 C881 1.429 . S
C878 C861 1.574 1_556 S
C878 H872 0.949 . S
C878 C882 1.368 . S
C879 C860 1.429 . S
C879 C873 1.429 . S
C879 C880 1.523 . S
C880 C861 1.368 . S
C880 C874 1.352 1_554 S
C880 C879 1.523 . S
C881 C865 1.429 . S
C881 C877 1.429 . S
C881 C882 1.523 . S
C882 C866 1.368 . S
C882 C878 1.368 . S
C882 C881 1.523 . S
H883 C858 0.950 . S
H884 C860 0.950 . S
H885 C861 0.949 . S
H886 C863 0.950 . S
H887 C865 0.950 . S
C888 C889 1.349 . S
C888 C890 1.327 . S
C888 H913 0.950 . S
C889 C888 1.349 . S
C889 C905 1.349 . S
C890 C888 1.327 . S
C890 C909 1.429 . S
C890 H914 0.898 1_545 S
C891 C908 1.593 . S
C891 C910 1.368 . S
C891 H915 0.949 . S
H892 C896 0.949 . S
C893 C894 1.349 . S
C893 C895 1.327 . S
C893 H916 0.950 . S
C894 C893 1.349 . S
C894 C906 1.349 . S
C895 C893 1.327 . S
C895 C911 1.429 . S
C895 H917 0.950 . S
C896 H892 0.949 . S
C896 C904 1.574 . S
C896 C912 1.368 . S
H897 C905 0.950 . S
H898 C903 0.950 . S
H899 C904 0.949 . S
H900 C906 0.950 . S
H901 C907 0.950 . S
H902 C908 0.959 . S
C903 H898 0.950 . S
C903 C905 1.327 . S
C903 C909 1.429 . S
C904 C896 1.574 . S
C904 H899 0.949 . S
C904 C910 1.368 1_565 S
C905 C889 1.349 . S
C905 H897 0.950 . S
C905 C903 1.327 . S
C906 C894 1.349 . S
C906 H900 0.950 . S
C906 C907 1.327 . S
C907 H901 0.950 . S
C907 C906 1.327 . S
C907 C911 1.429 . S
C908 C891 1.593 . S
C908 H902 0.959 . S
C908 C912 1.339 1_545 S
C909 C890 1.429 . S
C909 C903 1.429 . S
C909 C910 1.523 . S
C910 C891 1.368 . S
C910 C904 1.368 1_545 S
C910 C909 1.523 . S
C911 C895 1.429 . S
C911 C907 1.429 . S
C911 C912 1.523 . S
C912 C896 1.368 . S
C912 C908 1.339 1_565 S
C912 C911 1.523 . S
H913 C888 0.950 . S
H914 C890 0.898 1_565 S
H915 C891 0.949 . S
H916 C893 0.950 . S
H917 C895 0.950 . S
C918 C919 1.349 . S
C918 C920 1.327 . S
C918 H943 0.950 . S
C919 C918 1.349 . S
C919 C935 1.349 . S
C920 C918 1.327 . S
C920 C939 1.429 . S
C920 H944 0.950 . S
C921 C938 1.587 . S
C921 C940 1.368 1_455 S
C921 H945 0.949 . S
H922 C926 0.949 . S
C923 C924 1.349 . S
C923 C925 1.327 . S
C923 H946 0.950 . S
C924 C923 1.349 . S
C924 C936 1.349 . S
C925 C923 1.327 . S
C925 C941 1.429 . S
C925 H947 0.950 . S
C926 H922 0.949 . S
C926 C934 1.574 1_454 S
C926 C942 1.368 . S
H927 C935 0.950 . S
H928 C933 0.950 . S
H929 C934 0.949 . S
H930 C936 0.950 . S
H931 C937 0.950 . S
H932 C938 0.946 1_554 S
C933 H928 0.950 . S
C933 C935 1.327 . S
C933 C939 1.429 . S
C934 C926 1.574 1_656 S
C934 H929 0.949 . S
C934 C940 1.368 . S
C935 C919 1.349 . S
C935 H927 0.950 . S
C935 C933 1.327 . S
C936 C924 1.349 . S
C936 H930 0.950 . S
C936 C937 1.327 . S
C937 H931 0.950 . S
C937 C936 1.327 . S
C937 C941 1.429 . S
C938 C921 1.587 . S
C938 H932 0.946 1_556 S
C938 C942 1.359 1_556 S
C939 C920 1.429 . S
C939 C933 1.429 . S
C939 C940 1.523 . S
C940 C921 1.368 1_655 S
C940 C934 1.368 . S
C940 C939 1.523 . S
C941 C925 1.429 . S
C941 C937 1.429 . S
C941 C942 1.523 . S
C942 C926 1.368 . S
C942 C938 1.359 1_554 S
C942 C941 1.523 . S
H943 C918 0.950 . S
H944 C920 0.950 . S
H945 C921 0.949 . S
H946 C923 0.950 . S
H947 C925 0.950 . S
C948 C949 1.349 . S
C948 C950 1.327 . S
C948 H973 0.950 . S
C949 C948 1.349 . S
C949 C965 1.349 . S
C950 C948 1.327 . S
C950 C969 1.429 . S
C950 H974 0.950 . S
C951 C968 1.574 . S
C951 C970 1.368 . S
C951 H975 0.949 . S
H952 C956 0.949 . S
C953 C954 1.349 . S
C953 C955 1.327 . S
C953 H976 0.950 . S
C954 C953 1.349 . S
C954 C966 1.349 . S
C955 C953 1.327 . S
C955 C971 1.429 . S
C955 H977 0.950 . S
C956 H952 0.949 . S
C956 C964 1.574 . S
C956 C972 1.368 . S
H957 C965 0.950 . S
H958 C963 0.950 . S
H959 C964 0.949 . S
H960 C966 0.950 . S
H961 C967 0.950 . S
H962 C968 0.949 . S
C963 H958 0.950 . S
C963 C965 1.327 . S
C963 C969 1.429 . S
C964 C956 1.574 . S
C964 H959 0.949 . S
C964 C970 1.368 . S
C965 C949 1.349 . S
C965 H957 0.950 . S
C965 C963 1.327 . S
C966 C954 1.349 . S
C966 H960 0.950 . S
C966 C967 1.327 . S
C967 H961 0.950 . S
C967 C966 1.327 . S
C967 C971 1.429 . S
C968 C951 1.574 . S
C968 H962 0.949 . S
C968 C972 1.368 . S
C969 C950 1.429 . S
C969 C963 1.429 . S
C969 C970 1.523 . S
C970 C951 1.368 . S
C970 C964 1.368 . S
C970 C969 1.523 . S
C971 C955 1.429 . S
C971 C967 1.429 . S
C971 C972 1.523 . S
C972 C956 1.368 . S
C972 C968 1.368 . S
C972 C971 1.523 . S
H973 C948 0.950 . S
H974 C950 0.950 . S
H975 C951 0.949 . S
H976 C953 0.950 . S
H977 C955 0.950 . S
C978 C979 1.349 . S
C978 C980 1.327 . S
C978 H1003 0.950 . S
C979 C978 1.349 . S
C979 C995 1.349 . S
C980 C978 1.327 . S
C980 C999 1.429 . S
C980 H1004 0.950 . S
C981 C998 1.574 . S
C981 C1000 1.368 . S
C981 H1005 0.949 . S
H982 C986 0.949 . S
C983 C984 1.349 . S
C983 C985 1.327 . S
C983 H1006 0.950 . S
C984 C983 1.349 . S
C984 C996 1.349 . S
C985 C983 1.327 . S
C985 C1001 1.429 . S
C985 H1007 0.950 . S
C986 H982 0.949 . S
C986 C994 1.574 . S
C986 C1002 1.368 . S
H987 C995 0.950 . S
H988 C993 0.950 . S
H989 C994 0.949 . S
H990 C996 0.950 . S
H991 C997 0.950 . S
H992 C998 0.949 . S
C993 H988 0.950 . S
C993 C995 1.327 . S
C993 C999 1.429 . S
C994 C986 1.574 . S
C994 H989 0.949 . S
C994 C1000 1.368 . S
C995 C979 1.349 . S
C995 H987 0.950 . S
C995 C993 1.327 . S
C996 C984 1.349 . S
C996 H990 0.950 . S
C996 C997 1.327 . S
C997 H991 0.950 . S
C997 C996 1.327 . S
C997 C1001 1.429 . S
C998 C981 1.574 . S
C998 H992 0.949 . S
C998 C1002 1.368 . S
C999 C980 1.429 . S
C999 C993 1.429 . S
C999 C1000 1.523 . S
C1000 C981 1.368 . S
C1000 C994 1.368 . S
C1000 C999 1.523 . S
C1001 C985 1.429 . S
C1001 C997 1.429 . S
C1001 C1002 1.523 . S
C1002 C986 1.368 . S
C1002 C998 1.368 . S
C1002 C1001 1.523 . S
H1003 C978 0.950 . S
H1004 C980 0.950 . S
H1005 C981 0.949 . S
H1006 C983 0.950 . S
H1007 C985 0.950 . S
C1008 C1009 1.349 . S
C1008 C1010 1.327 . S
C1008 H1033 0.950 . S
C1009 C1008 1.349 . S
C1009 C1025 1.349 . S
C1010 C1008 1.327 . S
C1010 C1029 1.429 . S
C1010 H1034 0.950 . S
C1011 C1028 1.574 . S
C1011 C1030 1.368 . S
C1011 H1035 0.949 . S
H1012 C1016 0.949 . S
C1013 C1014 1.349 . S
C1013 C1015 1.327 . S
C1013 H1036 0.950 . S
C1014 C1013 1.349 . S
C1014 C1026 1.349 . S
C1015 C1013 1.327 . S
C1015 C1031 1.429 . S
C1015 H1037 0.950 . S
C1016 H1012 0.949 . S
C1016 C1024 1.574 . S
C1016 C1032 1.368 . S
H1017 C1025 0.950 . S
H1018 C1023 0.950 . S
H1019 C1024 0.949 . S
H1020 C1026 0.950 . S
H1021 C1027 0.950 . S
H1022 C1028 0.949 . S
C1023 H1018 0.950 . S
C1023 C1025 1.327 . S
C1023 C1029 1.429 . S
C1024 C1016 1.574 . S
C1024 H1019 0.949 . S
C1024 C1030 1.368 . S
C1025 C1009 1.349 . S
C1025 H1017 0.950 . S
C1025 C1023 1.327 . S
C1026 C1014 1.349 . S
C1026 H1020 0.950 . S
C1026 C1027 1.327 . S
C1027 H1021 0.950 . S
C1027 C1026 1.327 . S
C1027 C1031 1.429 . S
C1028 C1011 1.574 . S
C1028 H1022 0.949 . S
C1028 C1032 1.368 . S
C1029 C1010 1.429 . S
C1029 C1023 1.429 . S
C1029 C1030 1.523 . S
C1030 C1011 1.368 . S
C1030 C1024 1.368 . S
C1030 C1029 1.523 . S
C1031 C1015 1.429 . S
C1031 C1027 1.429 . S
C1031 C1032 1.523 . S
C1032 C1016 1.368 . S
C1032 C1028 1.368 . S
C1032 C1031 1.523 . S
H1033 C1008 0.950 . S
H1034 C1010 0.950 . S
H1035 C1011 0.949 . S
H1036 C1013 0.950 . S
H1037 C1015 0.950 . S
C1038 C1039 1.349 . S
C1038 C1040 1.327 . S
C1038 H1063 0.950 . S
C1039 C1038 1.349 . S
C1039 C1055 1.349 . S
C1040 C1038 1.327 . S
C1040 C1059 1.429 . S
C1040 H1064 0.950 . S
C1041 C1058 1.574 1_554 S
C1041 C1060 1.368 . S
C1041 H1065 0.949 . S
H1042 C1046 0.949 . S
C1043 C1044 1.349 . S
C1043 C1045 1.327 . S
C1043 H1066 0.950 . S
C1044 C1043 1.349 . S
C1044 C1056 1.349 . S
C1045 C1043 1.327 . S
C1045 C1061 1.429 . S
C1045 H1067 0.950 . S
C1046 H1042 0.949 . S
C1046 C1054 1.589 . S
C1046 C1062 1.368 . S
H1047 C1055 0.950 . S
H1048 C1053 0.950 . S
H1049 C1054 0.946 1_554 S
H1050 C1056 0.950 . S
H1051 C1057 0.950 . S
H1052 C1058 0.949 . S
C1053 H1048 0.950 . S
C1053 C1055 1.327 . S
C1053 C1059 1.429 . S
C1054 C1046 1.589 . S
C1054 H1049 0.946 1_556 S
C1054 C1060 1.357 1_556 S
C1055 C1039 1.349 . S
C1055 H1047 0.950 . S
C1055 C1053 1.327 . S
C1056 C1044 1.349 . S
C1056 H1050 0.950 . S
C1056 C1057 1.327 . S
C1057 H1051 0.950 . S
C1057 C1056 1.327 . S
C1057 C1061 1.429 . S
C1058 C1041 1.574 1_556 S
C1058 H1052 0.949 . S
C1058 C1062 1.368 . S
C1059 C1040 1.429 . S
C1059 C1053 1.429 . S
C1059 C1060 1.523 . S
C1060 C1041 1.368 . S
C1060 C1054 1.357 1_554 S
C1060 C1059 1.523 . S
C1061 C1045 1.429 . S
C1061 C1057 1.429 . S
C1061 C1062 1.523 . S
C1062 C1046 1.368 . S
C1062 C1058 1.368 . S
C1062 C1061 1.523 . S
H1063 C1038 0.950 . S
H1064 C1040 0.950 . S
H1065 C1041 0.949 . S
H1066 C1043 0.950 . S
H1067 C1045 0.950 . S
C1068 C1069 1.349 . S
C1068 C1070 1.327 . S
C1068 H1093 0.950 . S
C1069 C1068 1.349 . S
C1069 C1085 1.349 . S
C1070 C1068 1.327 . S
C1070 C1089 1.429 . S
C1070 H1094 0.950 . S
C1071 C1088 1.574 . S
C1071 C1090 1.368 1_565 S
C1071 H1095 0.949 . S
H1072 C1076 0.949 . S
C1073 C1074 1.349 . S
C1073 C1075 1.327 . S
C1073 H1096 0.950 . S
C1074 C1073 1.349 . S
C1074 C1086 1.349 . S
C1075 C1073 1.327 . S
C1075 C1091 1.429 . S
C1075 H1097 0.950 . S
C1076 H1072 0.949 . S
C1076 C1084 1.574 . S
C1076 C1092 1.368 1_545 S
H1077 C1085 0.950 . S
H1078 C1083 0.950 . S
H1079 C1084 0.949 . S
H1080 C1086 0.950 . S
H1081 C1087 0.950 1_545 S
H1082 C1088 0.949 . S
C1083 H1078 0.950 . S
C1083 C1085 1.327 . S
C1083 C1089 1.429 . S
C1084 C1076 1.574 . S
C1084 H1079 0.949 . S
C1084 C1090 1.368 . S
C1085 C1069 1.349 . S
C1085 H1077 0.950 . S
C1085 C1083 1.327 . S
C1086 C1074 1.349 . S
C1086 H1080 0.950 . S
C1086 C1087 1.327 . S
C1087 H1081 0.950 1_565 S
C1087 C1086 1.327 . S
C1087 C1091 1.429 . S
C1088 C1071 1.574 . S
C1088 H1082 0.949 . S
C1088 C1092 1.368 . S
C1089 C1070 1.429 . S
C1089 C1083 1.429 . S
C1089 C1090 1.523 . S
C1090 C1071 1.368 1_545 S
C1090 C1084 1.368 . S
C1090 C1089 1.523 . S
C1091 C1075 1.429 . S
C1091 C1087 1.429 . S
C1091 C1092 1.523 . S
C1092 C1076 1.368 1_565 S
C1092 C1088 1.368 . S
C1092 C1091 1.523 . S
H1093 C1068 0.950 . S
H1094 C1070 0.950 . S
H1095 C1071 0.949 . S
H1096 C1073 0.950 . S
H1097 C1075 0.950 . S
C1098 C1099 1.349 . S
C1098 C1100 1.327 . S
C1098 H1123 0.950 . S
C1099 C1098 1.349 . S
C1099 C1115 1.349 . S
C1100 C1098 1.327 . S
C1100 C1119 1.429 . S
C1100 H1124 0.950 . S
C1101 C1118 1.574 . S
C1101 C1120 1.368 1_655 S
C1101 H1125 0.949 . S
H1102 C1106 0.949 . S
C1103 C1104 1.349 . S
C1103 C1105 1.327 . S
C1103 H1126 0.950 . S
C1104 C1103 1.349 . S
C1104 C1116 1.349 . S
C1105 C1103 1.327 . S
C1105 C1121 1.429 . S
C1105 H1127 0.950 . S
C1106 H1102 0.949 . S
C1106 C1114 1.574 1_655 S
C1106 C1122 1.368 . S
H1107 C1115 0.950 . S
H1108 C1113 0.950 . S
H1109 C1114 0.949 . S
H1110 C1116 0.950 . S
H1111 C1117 0.950 . S
H1112 C1118 0.949 . S
C1113 H1108 0.950 . S
C1113 C1115 1.327 . S
C1113 C1119 1.429 . S
C1114 C1106 1.574 1_455 S
C1114 H1109 0.949 . S
C1114 C1120 1.368 . S
C1115 C1099 1.349 . S
C1115 H1107 0.950 . S
C1115 C1113 1.327 . S
C1116 C1104 1.349 . S
C1116 H1110 0.950 . S
C1116 C1117 1.327 . S
C1117 H1111 0.950 . S
C1117 C1116 1.327 . S
C1117 C1121 1.429 . S
C1118 C1101 1.574 . S
C1118 H1112 0.949 . S
C1118 C1122 1.368 . S
C1119 C1100 1.429 . S
C1119 C1113 1.429 . S
C1119 C1120 1.523 . S
C1120 C1101 1.368 1_455 S
C1120 C1114 1.368 . S
C1120 C1119 1.523 . S
C1121 C1105 1.429 . S
C1121 C1117 1.429 . S
C1121 C1122 1.523 . S
C1122 C1106 1.368 . S
C1122 C1118 1.368 . S
C1122 C1121 1.523 . S
H1123 C1098 0.950 . S
H1124 C1100 0.950 . S
H1125 C1101 0.949 . S
H1126 C1103 0.950 . S
H1127 C1105 0.950 . S
C1128 C1129 1.349 . S
C1128 C1130 1.327 . S
C1128 H1153 0.950 . S
C1129 C1128 1.349 . S
C1129 C1145 1.349 . S
C1130 C1128 1.327 . S
C1130 C1149 1.429 . S
C1130 H1154 0.950 . S
C1131 C1148 1.574 . S
C1131 C1150 1.368 . S
C1131 H1155 0.949 . S
H1132 C1136 0.949 . S
C1133 C1134 1.349 . S
C1133 C1135 1.327 . S
C1133 H1156 0.950 . S
C1134 C1133 1.349 . S
C1134 C1146 1.349 . S
C1135 C1133 1.327 . S
C1135 C1151 1.429 . S
C1135 H1157 0.950 . S
C1136 H1132 0.949 . S
C1136 C1144 1.574 . S
C1136 C1152 1.368 . S
H1137 C1145 0.950 . S
H1138 C1143 0.950 . S
H1139 C1144 0.949 . S
H1140 C1146 0.950 . S
H1141 C1147 0.950 . S
H1142 C1148 0.949 . S
C1143 H1138 0.950 . S
C1143 C1145 1.327 . S
C1143 C1149 1.429 . S
C1144 C1136 1.574 . S
C1144 H1139 0.949 . S
C1144 C1150 1.368 . S
C1145 C1129 1.349 . S
C1145 H1137 0.950 . S
C1145 C1143 1.327 . S
C1146 C1134 1.349 . S
C1146 H1140 0.950 . S
C1146 C1147 1.327 . S
C1147 H1141 0.950 . S
C1147 C1146 1.327 . S
C1147 C1151 1.429 . S
C1148 C1131 1.574 . S
C1148 H1142 0.949 . S
C1148 C1152 1.368 . S
C1149 C1130 1.429 . S
C1149 C1143 1.429 . S
C1149 C1150 1.523 . S
C1150 C1131 1.368 . S
C1150 C1144 1.368 . S
C1150 C1149 1.523 . S
C1151 C1135 1.429 . S
C1151 C1147 1.429 . S
C1151 C1152 1.523 . S
C1152 C1136 1.368 . S
C1152 C1148 1.368 . S
C1152 C1151 1.523 . S
H1153 C1128 0.950 . S
H1154 C1130 0.950 . S
H1155 C1131 0.949 . S
H1156 C1133 0.950 . S
H1157 C1135 0.950 . S
C1158 C1159 1.349 . S
C1158 C1160 1.327 . S
C1158 H1183 0.950 . S
C1159 C1158 1.349 . S
C1159 C1175 1.349 . S
C1160 C1158 1.327 . S
C1160 C1179 1.429 . S
C1160 H1184 0.950 . S
C1161 C1178 1.574 . S
C1161 C1180 1.368 . S
C1161 H1185 0.949 . S
H1162 C1166 0.949 . S
C1163 C1164 1.349 . S
C1163 C1165 1.327 . S
C1163 H1186 0.950 . S
C1164 C1163 1.349 . S
C1164 C1176 1.349 . S
C1165 C1163 1.327 . S
C1165 C1181 1.429 . S
C1165 H1187 0.950 . S
C1166 H1162 0.949 . S
C1166 C1174 1.574 . S
C1166 C1182 1.368 . S
H1167 C1175 0.950 . S
H1168 C1173 0.950 . S
H1169 C1174 0.949 . S
H1170 C1176 0.950 . S
H1171 C1177 0.950 . S
H1172 C1178 0.949 . S
C1173 H1168 0.950 . S
C1173 C1175 1.327 . S
C1173 C1179 1.429 . S
C1174 C1166 1.574 . S
C1174 H1169 0.949 . S
C1174 C1180 1.368 . S
C1175 C1159 1.349 . S
C1175 H1167 0.950 . S
C1175 C1173 1.327 . S
C1176 C1164 1.349 . S
C1176 H1170 0.950 . S
C1176 C1177 1.327 . S
C1177 H1171 0.950 . S
C1177 C1176 1.327 . S
C1177 C1181 1.429 . S
C1178 C1161 1.574 . S
C1178 H1172 0.949 . S
C1178 C1182 1.368 . S
C1179 C1160 1.429 . S
C1179 C1173 1.429 . S
C1179 C1180 1.523 . S
C1180 C1161 1.368 . S
C1180 C1174 1.368 . S
C1180 C1179 1.523 . S
C1181 C1165 1.429 . S
C1181 C1177 1.429 . S
C1181 C1182 1.523 . S
C1182 C1166 1.368 . S
C1182 C1178 1.368 . S
C1182 C1181 1.523 . S
H1183 C1158 0.950 . S
H1184 C1160 0.950 . S
H1185 C1161 0.949 . S
H1186 C1163 0.950 . S
H1187 C1165 0.950 . S
C1188 C1189 1.349 . S
C1188 C1190 1.327 . S
C1188 H1213 0.950 . S
C1189 C1188 1.349 . S
C1189 C1205 1.349 . S
C1190 C1188 1.327 . S
C1190 C1209 1.429 . S
C1190 H1214 0.950 . S
C1191 C1208 1.574 . S
C1191 C1210 1.368 1_545 S
C1191 H1215 0.949 . S
H1192 C1196 0.949 . S
C1193 C1194 1.349 . S
C1193 C1195 1.327 . S
C1193 H1216 0.950 . S
C1194 C1193 1.349 . S
C1194 C1206 1.349 . S
C1195 C1193 1.327 . S
C1195 C1211 1.429 . S
C1195 H1217 0.950 . S
C1196 H1192 0.949 . S
C1196 C1204 1.574 . S
C1196 C1212 1.368 1_565 S
H1197 C1205 0.950 . S
H1198 C1203 0.950 1_545 S
H1199 C1204 0.949 . S
H1200 C1206 0.950 . S
H1201 C1207 0.950 . S
H1202 C1208 0.949 . S
C1203 H1198 0.950 1_565 S
C1203 C1205 1.327 . S
C1203 C1209 1.429 . S
C1204 C1196 1.574 . S
C1204 H1199 0.949 . S
C1204 C1210 1.368 . S
C1205 C1189 1.349 . S
C1205 H1197 0.950 . S
C1205 C1203 1.327 . S
C1206 C1194 1.349 . S
C1206 H1200 0.950 . S
C1206 C1207 1.327 . S
C1207 H1201 0.950 . S
C1207 C1206 1.327 . S
C1207 C1211 1.429 . S
C1208 C1191 1.574 . S
C1208 H1202 0.949 . S
C1208 C1212 1.368 . S
C1209 C1190 1.429 . S
C1209 C1203 1.429 . S
C1209 C1210 1.523 . S
C1210 C1191 1.368 1_565 S
C1210 C1204 1.368 . S
C1210 C1209 1.523 . S
C1211 C1195 1.429 . S
C1211 C1207 1.429 . S
C1211 C1212 1.523 . S
C1212 C1196 1.368 1_545 S
C1212 C1208 1.368 . S
C1212 C1211 1.523 . S
H1213 C1188 0.950 . S
H1214 C1190 0.950 . S
H1215 C1191 0.949 . S
H1216 C1193 0.950 . S
H1217 C1195 0.950 . S
C1218 C1219 1.349 . S
C1218 C1220 1.327 . S
C1218 H1243 0.950 . S
C1219 C1218 1.349 . S
C1219 C1235 1.349 . S
C1220 C1218 1.327 . S
C1220 C1239 1.429 . S
C1220 H1244 0.950 . S
C1221 C1238 1.574 1_654 S
C1221 C1240 1.368 . S
C1221 H1245 0.949 . S
H1222 C1226 0.949 . S
C1223 C1224 1.349 . S
C1223 C1225 1.327 . S
C1223 H1246 0.950 . S
C1224 C1223 1.349 . S
C1224 C1236 1.349 . S
C1225 C1223 1.327 . S
C1225 C1241 1.429 . S
C1225 H1247 0.950 . S
C1226 H1222 0.949 . S
C1226 C1234 1.591 . S
C1226 C1242 1.368 1_655 S
H1227 C1235 0.950 . S
H1228 C1233 0.950 . S
H1229 C1234 0.945 1_554 S
H1230 C1236 0.950 . S
H1231 C1237 0.950 . S
H1232 C1238 0.949 . S
C1233 H1228 0.950 . S
C1233 C1235 1.327 . S
C1233 C1239 1.429 . S
C1234 C1226 1.591 . S
C1234 H1229 0.945 1_556 S
C1234 C1240 1.356 1_556 S
C1235 C1219 1.349 . S
C1235 H1227 0.950 . S
C1235 C1233 1.327 . S
C1236 C1224 1.349 . S
C1236 H1230 0.950 . S
C1236 C1237 1.327 . S
C1237 H1231 0.950 . S
C1237 C1236 1.327 . S
C1237 C1241 1.429 . S
C1238 C1221 1.574 1_456 S
C1238 H1232 0.949 . S
C1238 C1242 1.368 . S
C1239 C1220 1.429 . S
C1239 C1233 1.429 . S
C1239 C1240 1.523 . S
C1240 C1221 1.368 . S
C1240 C1234 1.356 1_554 S
C1240 C1239 1.523 . S
C1241 C1225 1.429 . S
C1241 C1237 1.429 . S
C1241 C1242 1.523 . S
C1242 C1226 1.368 1_455 S
C1242 C1238 1.368 . S
C1242 C1241 1.523 . S
H1243 C1218 0.950 . S
H1244 C1220 0.950 . S
H1245 C1221 0.949 . S
H1246 C1223 0.950 . S
H1247 C1225 0.950 . S
C1248 C1249 1.349 . S
C1248 C1250 1.327 . S
C1248 H1273 0.950 . S
C1249 C1248 1.349 . S
C1249 C1265 1.349 . S
C1250 C1248 1.327 . S
C1250 C1269 1.429 . S
C1250 H1274 0.950 . S
C1251 C1268 1.574 . S
C1251 C1270 1.368 . S
C1251 H1275 0.949 . S
H1252 C1256 0.949 . S
C1253 C1254 1.349 . S
C1253 C1255 1.327 . S
C1253 H1276 0.950 . S
C1254 C1253 1.349 . S
C1254 C1266 1.349 . S
C1255 C1253 1.327 . S
C1255 C1271 1.429 . S
C1255 H1277 0.950 . S
C1256 H1252 0.949 . S
C1256 C1264 1.574 . S
C1256 C1272 1.368 . S
H1257 C1265 0.950 . S
H1258 C1263 0.950 . S
H1259 C1264 0.949 . S
H1260 C1266 0.950 1_556 S
H1261 C1267 0.950 . S
H1262 C1268 0.949 . S
C1263 H1258 0.950 . S
C1263 C1265 1.327 . S
C1263 C1269 1.429 . S
C1264 C1256 1.574 . S
C1264 H1259 0.949 . S
C1264 C1270 1.368 . S
C1265 C1249 1.349 . S
C1265 H1257 0.950 . S
C1265 C1263 1.327 . S
C1266 C1254 1.349 . S
C1266 H1260 0.950 1_554 S
C1266 C1267 1.327 . S
C1267 H1261 0.950 . S
C1267 C1266 1.327 . S
C1267 C1271 1.429 . S
C1268 C1251 1.574 . S
C1268 H1262 0.949 . S
C1268 C1272 1.368 . S
C1269 C1250 1.429 . S
C1269 C1263 1.429 . S
C1269 C1270 1.523 . S
C1270 C1251 1.368 . S
C1270 C1264 1.368 . S
C1270 C1269 1.523 . S
C1271 C1255 1.429 . S
C1271 C1267 1.429 . S
C1271 C1272 1.523 . S
C1272 C1256 1.368 . S
C1272 C1268 1.368 . S
C1272 C1271 1.523 . S
H1273 C1248 0.950 . S
H1274 C1250 0.950 . S
H1275 C1251 0.949 . S
H1276 C1253 0.950 . S
H1277 C1255 0.950 . S
C1278 C1279 1.349 . S
C1278 C1280 1.327 . S
C1278 H1303 0.950 . S
C1279 C1278 1.349 . S
C1279 C1295 1.349 . S
C1280 C1278 1.327 . S
C1280 C1299 1.429 . S
C1280 H1304 0.950 . S
C1281 C1298 1.574 . S
C1281 C1300 1.368 . S
C1281 H1305 0.949 . S
H1282 C1286 0.949 . S
C1283 C1284 1.349 . S
C1283 C1285 1.327 . S
C1283 H1306 0.950 . S
C1284 C1283 1.349 . S
C1284 C1296 1.349 . S
C1285 C1283 1.327 . S
C1285 C1301 1.429 . S
C1285 H1307 0.950 . S
C1286 H1282 0.949 . S
C1286 C1294 1.574 . S
C1286 C1302 1.368 . S
H1287 C1295 0.950 . S
H1288 C1293 0.950 . S
H1289 C1294 0.949 . S
H1290 C1296 0.950 . S
H1291 C1297 0.950 . S
H1292 C1298 0.949 . S
C1293 H1288 0.950 . S
C1293 C1295 1.327 . S
C1293 C1299 1.429 . S
C1294 C1286 1.574 . S
C1294 H1289 0.949 . S
C1294 C1300 1.368 . S
C1295 C1279 1.349 . S
C1295 H1287 0.950 . S
C1295 C1293 1.327 . S
C1296 C1284 1.349 . S
C1296 H1290 0.950 . S
C1296 C1297 1.327 . S
C1297 H1291 0.950 . S
C1297 C1296 1.327 . S
C1297 C1301 1.429 . S
C1298 C1281 1.574 . S
C1298 H1292 0.949 . S
C1298 C1302 1.368 . S
C1299 C1280 1.429 . S
C1299 C1293 1.429 . S
C1299 C1300 1.523 . S
C1300 C1281 1.368 . S
C1300 C1294 1.368 . S
C1300 C1299 1.523 . S
C1301 C1285 1.429 . S
C1301 C1297 1.429 . S
C1301 C1302 1.523 . S
C1302 C1286 1.368 . S
C1302 C1298 1.368 . S
C1302 C1301 1.523 . S
H1303 C1278 0.950 . S
H1304 C1280 0.950 . S
H1305 C1281 0.949 . S
H1306 C1283 0.950 . S
H1307 C1285 0.950 . S
C1308 C1309 1.349 . S
C1308 C1310 1.327 . S
C1308 H1333 0.950 . S
C1309 C1308 1.349 . S
C1309 C1325 1.349 . S
C1310 C1308 1.327 . S
C1310 C1329 1.429 . S
C1310 H1334 0.950 . S
C1311 C1328 1.574 . S
C1311 C1330 1.368 . S
C1311 H1335 0.949 . S
H1312 C1316 0.949 . S
C1313 C1314 1.349 . S
C1313 C1315 1.327 . S
C1313 H1336 0.950 . S
C1314 C1313 1.349 . S
C1314 C1326 1.349 . S
C1315 C1313 1.327 . S
C1315 C1331 1.429 . S
C1315 H1337 0.950 . S
C1316 H1312 0.949 . S
C1316 C1324 1.574 . S
C1316 C1332 1.368 . S
H1317 C1325 0.950 . S
H1318 C1323 0.950 . S
H1319 C1324 0.949 . S
H1320 C1326 0.950 . S
H1321 C1327 0.950 . S
H1322 C1328 0.949 . S
C1323 H1318 0.950 . S
C1323 C1325 1.327 . S
C1323 C1329 1.429 . S
C1324 C1316 1.574 . S
C1324 H1319 0.949 . S
C1324 C1330 1.368 . S
C1325 C1309 1.349 . S
C1325 H1317 0.950 . S
C1325 C1323 1.327 . S
C1326 C1314 1.349 . S
C1326 H1320 0.950 . S
C1326 C1327 1.327 . S
C1327 H1321 0.950 . S
C1327 C1326 1.327 . S
C1327 C1331 1.429 . S
C1328 C1311 1.574 . S
C1328 H1322 0.949 . S
C1328 C1332 1.368 . S
C1329 C1310 1.429 . S
C1329 C1323 1.429 . S
C1329 C1330 1.523 . S
C1330 C1311 1.368 . S
C1330 C1324 1.368 . S
C1330 C1329 1.523 . S
C1331 C1315 1.429 . S
C1331 C1327 1.429 . S
C1331 C1332 1.523 . S
C1332 C1316 1.368 . S
C1332 C1328 1.368 . S
C1332 C1331 1.523 . S
H1333 C1308 0.950 . S
H1334 C1310 0.950 . S
H1335 C1311 0.949 . S
H1336 C1313 0.950 . S
H1337 C1315 0.950 . S
C1338 C1339 1.349 . S
C1338 C1340 1.327 . S
C1338 H1363 0.950 . S
C1339 C1338 1.349 . S
C1339 C1355 1.349 . S
C1340 C1338 1.327 . S
C1340 C1359 1.429 . S
C1340 H1364 0.950 . S
C1341 C1358 1.574 . S
C1341 C1360 1.368 . S
C1341 H1365 0.949 . S
H1342 C1346 0.949 . S
C1343 C1344 1.349 . S
C1343 C1345 1.327 . S
C1343 H1366 0.950 . S
C1344 C1343 1.349 . S
C1344 C1356 1.349 . S
C1345 C1343 1.327 . S
C1345 C1361 1.429 . S
C1345 H1367 0.950 . S
C1346 H1342 0.949 . S
C1346 C1354 1.574 . S
C1346 C1362 1.368 . S
H1347 C1355 0.950 . S
H1348 C1353 0.950 . S
H1349 C1354 0.949 . S
H1350 C1356 0.950 . S
H1351 C1357 0.950 . S
H1352 C1358 0.949 . S
C1353 H1348 0.950 . S
C1353 C1355 1.327 . S
C1353 C1359 1.429 . S
C1354 C1346 1.574 . S
C1354 H1349 0.949 . S
C1354 C1360 1.368 . S
C1355 C1339 1.349 . S
C1355 H1347 0.950 . S
C1355 C1353 1.327 . S
C1356 C1344 1.349 . S
C1356 H1350 0.950 . S
C1356 C1357 1.327 . S
C1357 H1351 0.950 . S
C1357 C1356 1.327 . S
C1357 C1361 1.429 . S
C1358 C1341 1.574 . S
C1358 H1352 0.949 . S
C1358 C1362 1.368 . S
C1359 C1340 1.429 . S
C1359 C1353 1.429 . S
C1359 C1360 1.523 . S
C1360 C1341 1.368 . S
C1360 C1354 1.368 . S
C1360 C1359 1.523 . S
C1361 C1345 1.429 . S
C1361 C1357 1.429 . S
C1361 C1362 1.523 . S
C1362 C1346 1.368 . S
C1362 C1358 1.368 . S
C1362 C1361 1.523 . S
H1363 C1338 0.950 . S
H1364 C1340 0.950 . S
H1365 C1341 0.949 . S
H1366 C1343 0.950 . S
H1367 C1345 0.950 . S
C1368 C1369 1.349 . S
C1368 C1370 1.327 . S
C1368 H1393 0.950 . S
C1369 C1368 1.349 . S
C1369 C1385 1.349 . S
C1370 C1368 1.327 . S
C1370 C1389 1.429 . S
C1370 H1394 0.950 . S
C1371 C1388 1.574 . S
C1371 C1390 1.368 . S
C1371 H1395 0.949 . S
H1372 C1376 0.949 . S
C1373 C1374 1.349 . S
C1373 C1375 1.327 . S
C1373 H1396 0.950 . S
C1374 C1373 1.349 . S
C1374 C1386 1.349 . S
C1375 C1373 1.327 . S
C1375 C1391 1.429 . S
C1375 H1397 0.950 . S
C1376 H1372 0.949 . S
C1376 C1384 1.574 . S
C1376 C1392 1.368 . S
H1377 C1385 0.950 . S
H1378 C1383 0.950 . S
H1379 C1384 0.949 . S
H1380 C1386 0.950 . S
H1381 C1387 0.950 . S
H1382 C1388 0.949 . S
C1383 H1378 0.950 . S
C1383 C1385 1.327 . S
C1383 C1389 1.429 . S
C1384 C1376 1.574 . S
C1384 H1379 0.949 . S
C1384 C1390 1.368 . S
C1385 C1369 1.349 . S
C1385 H1377 0.950 . S
C1385 C1383 1.327 . S
C1386 C1374 1.349 . S
C1386 H1380 0.950 . S
C1386 C1387 1.327 . S
C1387 H1381 0.950 . S
C1387 C1386 1.327 . S
C1387 C1391 1.429 . S
C1388 C1371 1.574 . S
C1388 H1382 0.949 . S
C1388 C1392 1.368 . S
C1389 C1370 1.429 . S
C1389 C1383 1.429 . S
C1389 C1390 1.523 . S
C1390 C1371 1.368 . S
C1390 C1384 1.368 . S
C1390 C1389 1.523 . S
C1391 C1375 1.429 . S
C1391 C1387 1.429 . S
C1391 C1392 1.523 . S
C1392 C1376 1.368 . S
C1392 C1388 1.368 . S
C1392 C1391 1.523 . S
H1393 C1368 0.950 . S
H1394 C1370 0.950 . S
H1395 C1371 0.949 . S
H1396 C1373 0.950 . S
H1397 C1375 0.950 . S
C1398 C1399 1.349 . S
C1398 C1400 1.327 . S
C1398 H1423 0.950 . S
C1399 C1398 1.349 . S
C1399 C1415 1.349 . S
C1400 C1398 1.327 . S
C1400 C1419 1.429 . S
C1400 H1424 0.950 . S
C1401 C1418 1.574 . S
C1401 C1420 1.368 . S
C1401 H1425 0.949 . S
H1402 C1406 0.949 . S
C1403 C1404 1.349 . S
C1403 C1405 1.327 . S
C1403 H1426 0.950 . S
C1404 C1403 1.349 . S
C1404 C1416 1.349 . S
C1405 C1403 1.327 . S
C1405 C1421 1.429 . S
C1405 H1427 0.950 . S
C1406 H1402 0.949 . S
C1406 C1414 1.574 . S
C1406 C1422 1.368 . S
H1407 C1415 0.950 . S
H1408 C1413 0.950 . S
H1409 C1414 0.949 . S
H1410 C1416 0.950 . S
H1411 C1417 0.950 . S
H1412 C1418 0.949 . S
C1413 H1408 0.950 . S
C1413 C1415 1.327 . S
C1413 C1419 1.429 . S
C1414 C1406 1.574 . S
C1414 H1409 0.949 . S
C1414 C1420 1.368 . S
C1415 C1399 1.349 . S
C1415 H1407 0.950 . S
C1415 C1413 1.327 . S
C1416 C1404 1.349 . S
C1416 H1410 0.950 . S
C1416 C1417 1.327 . S
C1417 H1411 0.950 . S
C1417 C1416 1.327 . S
C1417 C1421 1.429 . S
C1418 C1401 1.574 . S
C1418 H1412 0.949 . S
C1418 C1422 1.368 . S
C1419 C1400 1.429 . S
C1419 C1413 1.429 . S
C1419 C1420 1.523 . S
C1420 C1401 1.368 . S
C1420 C1414 1.368 . S
C1420 C1419 1.523 . S
C1421 C1405 1.429 . S
C1421 C1417 1.429 . S
C1421 C1422 1.523 . S
C1422 C1406 1.368 . S
C1422 C1418 1.368 . S
C1422 C1421 1.523 . S
H1423 C1398 0.950 . S
H1424 C1400 0.950 . S
H1425 C1401 0.949 . S
H1426 C1403 0.950 . S
H1427 C1405 0.950 . S
C1428 C1429 1.349 . S
C1428 C1430 1.327 . S
C1428 H1453 0.950 . S
C1429 C1428 1.349 . S
C1429 C1445 1.349 . S
C1430 C1428 1.327 . S
C1430 C1449 1.429 . S
C1430 H1454 0.950 . S
C1431 C1448 1.574 . S
C1431 C1450 1.368 . S
C1431 H1455 0.949 . S
H1432 C1436 0.949 . S
C1433 C1434 1.349 . S
C1433 C1435 1.327 . S
C1433 H1456 0.950 . S
C1434 C1433 1.349 . S
C1434 C1446 1.349 . S
C1435 C1433 1.327 . S
C1435 C1451 1.429 . S
C1435 H1457 0.950 . S
C1436 H1432 0.949 . S
C1436 C1444 1.574 . S
C1436 C1452 1.368 . S
H1437 C1445 0.950 . S
H1438 C1443 0.950 . S
H1439 C1444 0.949 . S
H1440 C1446 0.950 1_556 S
H1441 C1447 0.950 . S
H1442 C1448 0.949 . S
C1443 H1438 0.950 . S
C1443 C1445 1.327 . S
C1443 C1449 1.429 . S
C1444 C1436 1.574 . S
C1444 H1439 0.949 . S
C1444 C1450 1.368 . S
C1445 C1429 1.349 . S
C1445 H1437 0.950 . S
C1445 C1443 1.327 . S
C1446 C1434 1.349 . S
C1446 H1440 0.950 1_554 S
C1446 C1447 1.327 . S
C1447 H1441 0.950 . S
C1447 C1446 1.327 . S
C1447 C1451 1.429 . S
C1448 C1431 1.574 . S
C1448 H1442 0.949 . S
C1448 C1452 1.368 . S
C1449 C1430 1.429 . S
C1449 C1443 1.429 . S
C1449 C1450 1.523 . S
C1450 C1431 1.368 . S
C1450 C1444 1.368 . S
C1450 C1449 1.523 . S
C1451 C1435 1.429 . S
C1451 C1447 1.429 . S
C1451 C1452 1.523 . S
C1452 C1436 1.368 . S
C1452 C1448 1.368 . S
C1452 C1451 1.523 . S
H1453 C1428 0.950 . S
H1454 C1430 0.950 . S
H1455 C1431 0.949 . S
H1456 C1433 0.950 . S
H1457 C1435 0.950 . S
C1458 C1459 1.349 . S
C1458 C1460 1.327 . S
C1458 H1483 0.950 . S
C1459 C1458 1.349 . S
C1459 C1475 1.349 . S
C1460 C1458 1.327 . S
C1460 C1479 1.429 . S
C1460 H1484 0.950 . S
C1461 C1478 1.574 . S
C1461 C1480 1.368 . S
C1461 H1485 0.949 . S
H1462 C1466 0.949 . S
C1463 C1464 1.349 . S
C1463 C1465 1.327 . S
C1463 H1486 0.950 . S
C1464 C1463 1.349 . S
C1464 C1476 1.349 . S
C1465 C1463 1.327 . S
C1465 C1481 1.429 . S
C1465 H1487 0.950 . S
C1466 H1462 0.949 . S
C1466 C1474 1.574 . S
C1466 C1482 1.368 . S
H1467 C1475 0.950 . S
H1468 C1473 0.950 . S
H1469 C1474 0.949 . S
H1470 C1476 0.950 . S
H1471 C1477 0.950 . S
H1472 C1478 0.949 . S
C1473 H1468 0.950 . S
C1473 C1475 1.327 . S
C1473 C1479 1.429 . S
C1474 C1466 1.574 . S
C1474 H1469 0.949 . S
C1474 C1480 1.368 . S
C1475 C1459 1.349 . S
C1475 H1467 0.950 . S
C1475 C1473 1.327 . S
C1476 C1464 1.349 . S
C1476 H1470 0.950 . S
C1476 C1477 1.327 . S
C1477 H1471 0.950 . S
C1477 C1476 1.327 . S
C1477 C1481 1.429 . S
C1478 C1461 1.574 . S
C1478 H1472 0.949 . S
C1478 C1482 1.368 . S
C1479 C1460 1.429 . S
C1479 C1473 1.429 . S
C1479 C1480 1.523 . S
C1480 C1461 1.368 . S
C1480 C1474 1.368 . S
C1480 C1479 1.523 . S
C1481 C1465 1.429 . S
C1481 C1477 1.429 . S
C1481 C1482 1.523 . S
C1482 C1466 1.368 . S
C1482 C1478 1.368 . S
C1482 C1481 1.523 . S
H1483 C1458 0.950 . S
H1484 C1460 0.950 . S
H1485 C1461 0.949 . S
H1486 C1463 0.950 . S
H1487 C1465 0.950 . S
C1488 C1489 1.349 . S
C1488 C1490 1.327 . S
C1488 H1513 0.950 . S
C1489 C1488 1.349 . S
C1489 C1505 1.349 . S
C1490 C1488 1.327 . S
C1490 C1509 1.429 . S
C1490 H1514 0.950 . S
C1491 C1508 1.574 . S
C1491 C1510 1.368 . S
C1491 H1515 0.949 . S
H1492 C1496 0.949 . S
C1493 C1494 1.349 . S
C1493 C1495 1.327 . S
C1493 H1516 0.950 . S
C1494 C1493 1.349 . S
C1494 C1506 1.349 . S
C1495 C1493 1.327 . S
C1495 C1511 1.429 . S
C1495 H1517 0.950 . S
C1496 H1492 0.949 . S
C1496 C1504 1.574 . S
C1496 C1512 1.368 . S
H1497 C1505 0.950 . S
H1498 C1503 0.950 . S
H1499 C1504 0.949 . S
H1500 C1506 0.950 . S
H1501 C1507 0.950 . S
H1502 C1508 0.949 . S
C1503 H1498 0.950 . S
C1503 C1505 1.327 . S
C1503 C1509 1.429 . S
C1504 C1496 1.574 . S
C1504 H1499 0.949 . S
C1504 C1510 1.368 . S
C1505 C1489 1.349 . S
C1505 H1497 0.950 . S
C1505 C1503 1.327 . S
C1506 C1494 1.349 . S
C1506 H1500 0.950 . S
C1506 C1507 1.327 . S
C1507 H1501 0.950 . S
C1507 C1506 1.327 . S
C1507 C1511 1.429 . S
C1508 C1491 1.574 . S
C1508 H1502 0.949 . S
C1508 C1512 1.368 . S
C1509 C1490 1.429 . S
C1509 C1503 1.429 . S
C1509 C1510 1.523 . S
C1510 C1491 1.368 . S
C1510 C1504 1.368 . S
C1510 C1509 1.523 . S
C1511 C1495 1.429 . S
C1511 C1507 1.429 . S
C1511 C1512 1.523 . S
C1512 C1496 1.368 . S
C1512 C1508 1.368 . S
C1512 C1511 1.523 . S
H1513 C1488 0.950 . S
H1514 C1490 0.950 . S
H1515 C1491 0.949 . S
H1516 C1493 0.950 . S
H1517 C1495 0.950 . S
C1518 C1519 1.349 . S
C1518 C1520 1.327 . S
C1518 H1543 0.950 . S
C1519 C1518 1.349 . S
C1519 C1535 1.349 . S
C1520 C1518 1.327 . S
C1520 C1539 1.429 . S
C1520 H1544 0.950 . S
C1521 C1538 1.574 . S
C1521 C1540 1.368 . S
C1521 H1545 0.949 . S
H1522 C1526 0.949 . S
C1523 C1524 1.349 . S
C1523 C1525 1.327 . S
C1523 H1546 0.950 . S
C1524 C1523 1.349 . S
C1524 C1536 1.349 . S
C1525 C1523 1.327 . S
C1525 C1541 1.429 . S
C1525 H1547 0.950 . S
C1526 H1522 0.949 . S
C1526 C1534 1.574 . S
C1526 C1542 1.368 . S
H1527 C1535 0.950 . S
H1528 C1533 0.950 . S
H1529 C1534 0.949 . S
H1530 C1536 0.950 . S
H1531 C1537 0.950 . S
H1532 C1538 0.949 . S
C1533 H1528 0.950 . S
C1533 C1535 1.327 . S
C1533 C1539 1.429 . S
C1534 C1526 1.574 . S
C1534 H1529 0.949 . S
C1534 C1540 1.368 . S
C1535 C1519 1.349 . S
C1535 H1527 0.950 . S
C1535 C1533 1.327 . S
C1536 C1524 1.349 . S
C1536 H1530 0.950 . S
C1536 C1537 1.327 . S
C1537 H1531 0.950 . S
C1537 C1536 1.327 . S
C1537 C1541 1.429 . S
C1538 C1521 1.574 . S
C1538 H1532 0.949 . S
C1538 C1542 1.368 . S
C1539 C1520 1.429 . S
C1539 C1533 1.429 . S
C1539 C1540 1.523 . S
C1540 C1521 1.368 . S
C1540 C1534 1.368 . S
C1540 C1539 1.523 . S
C1541 C1525 1.429 . S
C1541 C1537 1.429 . S
C1541 C1542 1.523 . S
C1542 C1526 1.368 . S
C1542 C1538 1.368 . S
C1542 C1541 1.523 . S
H1543 C1518 0.950 . S
H1544 C1520 0.950 . S
H1545 C1521 0.949 . S
H1546 C1523 0.950 . S
H1547 C1525 0.950 . S
C1548 C1549 1.349 . S
C1548 C1550 1.327 . S
C1548 H1573 0.950 . S
C1549 C1548 1.349 . S
C1549 C1565 1.349 . S
C1550 C1548 1.327 . S
C1550 C1569 1.429 . S
C1550 H1574 0.950 . S
C1551 C1568 1.574 . S
C1551 C1570 1.368 . S
C1551 H1575 0.949 . S
H1552 C1556 0.949 . S
C1553 C1554 1.349 . S
C1553 C1555 1.327 . S
C1553 H1576 0.950 . S
C1554 C1553 1.349 . S
C1554 C1566 1.349 . S
C1555 C1553 1.327 . S
C1555 C1571 1.429 . S
C1555 H1577 0.950 . S
C1556 H1552 0.949 . S
C1556 C1564 1.574 . S
C1556 C1572 1.368 . S
H1557 C1565 0.950 1_556 S
H1558 C1563 0.950 . S
H1559 C1564 0.949 . S
H1560 C1566 0.950 . S
H1561 C1567 0.950 . S
H1562 C1568 0.949 . S
C1563 H1558 0.950 . S
C1563 C1565 1.327 . S
C1563 C1569 1.429 . S
C1564 C1556 1.574 . S
C1564 H1559 0.949 . S
C1564 C1570 1.368 . S
C1565 C1549 1.349 . S
C1565 H1557 0.950 1_554 S
C1565 C1563 1.327 . S
C1566 C1554 1.349 . S
C1566 H1560 0.950 . S
C1566 C1567 1.327 . S
C1567 H1561 0.950 . S
C1567 C1566 1.327 . S
C1567 C1571 1.429 . S
C1568 C1551 1.574 . S
C1568 H1562 0.949 . S
C1568 C1572 1.368 . S
C1569 C1550 1.429 . S
C1569 C1563 1.429 . S
C1569 C1570 1.523 . S
C1570 C1551 1.368 . S
C1570 C1564 1.368 . S
C1570 C1569 1.523 . S
C1571 C1555 1.429 . S
C1571 C1567 1.429 . S
C1571 C1572 1.523 . S
C1572 C1556 1.368 . S
C1572 C1568 1.368 . S
C1572 C1571 1.523 . S
H1573 C1548 0.950 . S
H1574 C1550 0.950 . S
H1575 C1551 0.949 . S
H1576 C1553 0.950 . S
H1577 C1555 0.950 . S
C1578 C1579 1.349 . S
C1578 C1580 1.327 . S
C1578 H1603 0.950 . S
C1579 C1578 1.349 . S
C1579 C1595 1.349 . S
C1580 C1578 1.327 . S
C1580 C1599 1.429 . S
C1580 H1604 0.950 . S
C1581 C1598 1.574 . S
C1581 C1600 1.368 . S
C1581 H1605 0.949 . S
H1582 C1586 0.949 . S
C1583 C1584 1.349 . S
C1583 C1585 1.327 . S
C1583 H1606 0.950 . S
C1584 C1583 1.349 . S
C1584 C1596 1.349 . S
C1585 C1583 1.327 . S
C1585 C1601 1.429 . S
C1585 H1607 0.950 . S
C1586 H1582 0.949 . S
C1586 C1594 1.574 . S
C1586 C1602 1.368 . S
H1587 C1595 0.950 . S
H1588 C1593 0.950 . S
H1589 C1594 0.949 . S
H1590 C1596 0.950 . S
H1591 C1597 0.950 . S
H1592 C1598 0.949 . S
C1593 H1588 0.950 . S
C1593 C1595 1.327 . S
C1593 C1599 1.429 . S
C1594 C1586 1.574 . S
C1594 H1589 0.949 . S
C1594 C1600 1.368 . S
C1595 C1579 1.349 . S
C1595 H1587 0.950 . S
C1595 C1593 1.327 . S
C1596 C1584 1.349 . S
C1596 H1590 0.950 . S
C1596 C1597 1.327 . S
C1597 H1591 0.950 . S
C1597 C1596 1.327 . S
C1597 C1601 1.429 . S
C1598 C1581 1.574 . S
C1598 H1592 0.949 . S
C1598 C1602 1.368 . S
C1599 C1580 1.429 . S
C1599 C1593 1.429 . S
C1599 C1600 1.523 . S
C1600 C1581 1.368 . S
C1600 C1594 1.368 . S
C1600 C1599 1.523 . S
C1601 C1585 1.429 . S
C1601 C1597 1.429 . S
C1601 C1602 1.523 . S
C1602 C1586 1.368 . S
C1602 C1598 1.368 . S
C1602 C1601 1.523 . S
H1603 C1578 0.950 . S
H1604 C1580 0.950 . S
H1605 C1581 0.949 . S
H1606 C1583 0.950 . S
H1607 C1585 0.950 . S
C1608 C1609 1.349 . S
C1608 C1610 1.327 . S
C1608 H1633 0.950 . S
C1609 C1608 1.349 . S
C1609 C1625 1.349 . S
C1610 C1608 1.327 . S
C1610 C1629 1.429 . S
C1610 H1634 0.950 . S
C1611 C1628 1.574 . S
C1611 C1630 1.368 . S
C1611 H1635 0.949 . S
H1612 C1616 0.949 . S
C1613 C1614 1.349 . S
C1613 C1615 1.327 . S
C1613 H1636 0.950 1_554 S
C1614 C1613 1.349 . S
C1614 C1626 1.349 . S
C1615 C1613 1.327 . S
C1615 C1631 1.429 . S
C1615 H1637 0.950 . S
C1616 H1612 0.949 . S
C1616 C1624 1.574 . S
C1616 C1632 1.368 . S
H1617 C1625 0.950 . S
H1618 C1623 0.950 . S
H1619 C1624 0.949 . S
H1620 C1626 0.950 . S
H1621 C1627 0.950 . S
H1622 C1628 0.949 . S
C1623 H1618 0.950 . S
C1623 C1625 1.327 . S
C1623 C1629 1.429 . S
C1624 C1616 1.574 . S
C1624 H1619 0.949 . S
C1624 C1630 1.368 . S
C1625 C1609 1.349 . S
C1625 H1617 0.950 . S
C1625 C1623 1.327 . S
C1626 C1614 1.349 . S
C1626 H1620 0.950 . S
C1626 C1627 1.327 . S
C1627 H1621 0.950 . S
C1627 C1626 1.327 . S
C1627 C1631 1.429 . S
C1628 C1611 1.574 . S
C1628 H1622 0.949 . S
C1628 C1632 1.368 . S
C1629 C1610 1.429 . S
C1629 C1623 1.429 . S
C1629 C1630 1.523 . S
C1630 C1611 1.368 . S
C1630 C1624 1.368 . S
C1630 C1629 1.523 . S
C1631 C1615 1.429 . S
C1631 C1627 1.429 . S
C1631 C1632 1.523 . S
C1632 C1616 1.368 . S
C1632 C1628 1.368 . S
C1632 C1631 1.523 . S
H1633 C1608 0.950 . S
H1634 C1610 0.950 . S
H1635 C1611 0.949 . S
H1636 C1613 0.950 1_556 S
H1637 C1615 0.950 . S
C1638 C1639 1.349 . S
C1638 C1640 1.327 . S
C1638 H1663 0.950 . S
C1639 C1638 1.349 . S
C1639 C1655 1.349 . S
C1640 C1638 1.327 . S
C1640 C1659 1.429 . S
C1640 H1664 0.950 . S
C1641 C1658 1.574 . S
C1641 C1660 1.368 . S
C1641 H1665 0.949 . S
H1642 C1646 0.949 . S
C1643 C1644 1.349 . S
C1643 C1645 1.327 . S
C1643 H1666 0.950 . S
C1644 C1643 1.349 . S
C1644 C1656 1.349 . S
C1645 C1643 1.327 . S
C1645 C1661 1.429 . S
C1645 H1667 0.950 . S
C1646 H1642 0.949 . S
C1646 C1654 1.574 . S
C1646 C1662 1.368 . S
H1647 C1655 0.950 . S
H1648 C1653 0.950 . S
H1649 C1654 0.949 . S
H1650 C1656 0.950 . S
H1651 C1657 0.950 . S
H1652 C1658 0.949 . S
C1653 H1648 0.950 . S
C1653 C1655 1.327 . S
C1653 C1659 1.429 . S
C1654 C1646 1.574 . S
C1654 H1649 0.949 . S
C1654 C1660 1.368 . S
C1655 C1639 1.349 . S
C1655 H1647 0.950 . S
C1655 C1653 1.327 . S
C1656 C1644 1.349 . S
C1656 H1650 0.950 . S
C1656 C1657 1.327 . S
C1657 H1651 0.950 . S
C1657 C1656 1.327 . S
C1657 C1661 1.429 . S
C1658 C1641 1.574 . S
C1658 H1652 0.949 . S
C1658 C1662 1.368 . S
C1659 C1640 1.429 . S
C1659 C1653 1.429 . S
C1659 C1660 1.523 . S
C1660 C1641 1.368 . S
C1660 C1654 1.368 . S
C1660 C1659 1.523 . S
C1661 C1645 1.429 . S
C1661 C1657 1.429 . S
C1661 C1662 1.523 . S
C1662 C1646 1.368 . S
C1662 C1658 1.368 . S
C1662 C1661 1.523 . S
H1663 C1638 0.950 . S
H1664 C1640 0.950 . S
H1665 C1641 0.949 . S
H1666 C1643 0.950 . S
H1667 C1645 0.950 . S
C1668 C1669 1.349 . S
C1668 C1670 1.327 . S
C1668 H1693 0.950 . S
C1669 C1668 1.349 . S
C1669 C1685 1.349 . S
C1670 C1668 1.327 . S
C1670 C1689 1.429 . S
C1670 H1694 0.950 . S
C1671 C1688 1.574 . S
C1671 C1690 1.368 . S
C1671 H1695 0.949 . S
H1672 C1676 0.949 . S
C1673 C1674 1.349 . S
C1673 C1675 1.327 . S
C1673 H1696 0.950 . S
C1674 C1673 1.349 . S
C1674 C1686 1.349 . S
C1675 C1673 1.327 . S
C1675 C1691 1.429 . S
C1675 H1697 0.950 . S
C1676 H1672 0.949 . S
C1676 C1684 1.574 . S
C1676 C1692 1.368 . S
H1677 C1685 0.950 . S
H1678 C1683 0.950 . S
H1679 C1684 0.949 . S
H1680 C1686 0.950 . S
H1681 C1687 0.950 . S
H1682 C1688 0.949 . S
C1683 H1678 0.950 . S
C1683 C1685 1.327 . S
C1683 C1689 1.429 . S
C1684 C1676 1.574 . S
C1684 H1679 0.949 . S
C1684 C1690 1.368 . S
C1685 C1669 1.349 . S
C1685 H1677 0.950 . S
C1685 C1683 1.327 . S
C1686 C1674 1.349 . S
C1686 H1680 0.950 . S
C1686 C1687 1.327 . S
C1687 H1681 0.950 . S
C1687 C1686 1.327 . S
C1687 C1691 1.429 . S
C1688 C1671 1.574 . S
C1688 H1682 0.949 . S
C1688 C1692 1.368 . S
C1689 C1670 1.429 . S
C1689 C1683 1.429 . S
C1689 C1690 1.523 . S
C1690 C1671 1.368 . S
C1690 C1684 1.368 . S
C1690 C1689 1.523 . S
C1691 C1675 1.429 . S
C1691 C1687 1.429 . S
C1691 C1692 1.523 . S
C1692 C1676 1.368 . S
C1692 C1688 1.368 . S
C1692 C1691 1.523 . S
H1693 C1668 0.950 . S
H1694 C1670 0.950 . S
H1695 C1671 0.949 . S
H1696 C1673 0.950 . S
H1697 C1675 0.950 . S
C1698 C1699 1.349 . S
C1698 C1700 1.327 . S
C1698 H1723 0.950 . S
C1699 C1698 1.349 . S
C1699 C1715 1.349 . S
C1700 C1698 1.327 . S
C1700 C1719 1.429 . S
C1700 H1724 0.950 . S
C1701 C1718 1.574 . S
C1701 C1720 1.368 . S
C1701 H1725 0.949 . S
H1702 C1706 0.949 . S
C1703 C1704 1.349 . S
C1703 C1705 1.327 . S
C1703 H1726 0.950 . S
C1704 C1703 1.349 . S
C1704 C1716 1.349 . S
C1705 C1703 1.327 . S
C1705 C1721 1.429 . S
C1705 H1727 0.950 . S
C1706 H1702 0.949 . S
C1706 C1714 1.574 . S
C1706 C1722 1.368 . S
H1707 C1715 0.950 . S
H1708 C1713 0.950 . S
H1709 C1714 0.949 . S
H1710 C1716 0.950 . S
H1711 C1717 0.950 . S
H1712 C1718 0.949 . S
C1713 H1708 0.950 . S
C1713 C1715 1.327 . S
C1713 C1719 1.429 . S
C1714 C1706 1.574 . S
C1714 H1709 0.949 . S
C1714 C1720 1.368 . S
C1715 C1699 1.349 . S
C1715 H1707 0.950 . S
C1715 C1713 1.327 . S
C1716 C1704 1.349 . S
C1716 H1710 0.950 . S
C1716 C1717 1.327 . S
C1717 H1711 0.950 . S
C1717 C1716 1.327 . S
C1717 C1721 1.429 . S
C1718 C1701 1.574 . S
C1718 H1712 0.949 . S
C1718 C1722 1.368 . S
C1719 C1700 1.429 . S
C1719 C1713 1.429 . S
C1719 C1720 1.523 . S
C1720 C1701 1.368 . S
C1720 C1714 1.368 . S
C1720 C1719 1.523 . S
C1721 C1705 1.429 . S
C1721 C1717 1.429 . S
C1721 C1722 1.523 . S
C1722 C1706 1.368 . S
C1722 C1718 1.368 . S
C1722 C1721 1.523 . S
H1723 C1698 0.950 . S
H1724 C1700 0.950 . S
H1725 C1701 0.949 . S
H1726 C1703 0.950 . S
H1727 C1705 0.950 . S
C529 N344 1.587 . S
C534 N14 1.587 . S
C559 N47 1.587 . S
C564 N377 1.587 . S
C589 N278 1.587 . S
C594 N80 1.587 . S
C619 N113 1.587 . S
C624 N311 1.587 . S
C649 N476 1.587 . S
C654 N146 1.587 . S
C679 N179 1.587 . S
C684 N509 1.587 . S
C709 N212 1.587 . S
C714 N410 1.587 . S
C739 N443 1.587 . S
C744 N245 1.587 . S
C769 C490 0.738 . S
C774 C8 0.736 . S
C799 C523 0.738 . S
C804 C41 0.738 . S
C829 C74 0.738 . S
C834 C424 0.741 . S
C859 C457 0.738 . S
C864 C107 0.738 . S
C889 C140 0.738 . S
C894 C358 0.741 . S
C919 C173 0.738 . S
C924 C391 0.738 . S
C949 C292 0.738 . S
C954 C206 0.736 . S
C979 C239 0.738 . S
C984 C325 0.738 . S
C1009 C226 0.738 . S
C1014 C272 0.740 . S
C1039 C259 0.738 . S
C1044 C305 0.738 . S
C1069 C160 0.738 . S
C1074 C338 0.736 . S
C1099 C371 0.738 . S
C1104 C193 0.738 . S
C1129 C404 0.738 . S
C1134 C94 0.735 . S
C1159 C437 0.738 . S
C1164 C127 0.738 . S
C1189 C470 0.738 . S
C1194 C28 0.741 . S
C1219 C61 0.738 . S
C1224 C503 0.738 . S
C1249 N368 1.736 . S
C1254 C17 1.725 . S
C1279 C50 1.726 . S
C1284 N269 1.736 . S
C1309 C83 1.726 . S
C1314 N302 1.736 . S
C1339 C116 1.726 . S
C1344 N335 1.737 . S
C1369 N170 1.736 . S
C1374 C149 1.726 . S
C1399 C182 1.726 . S
C1404 N203 1.737 . S
C1429 N236 1.736 . S
C1434 C215 1.725 . S
C1459 C248 1.726 . S
C1464 N137 1.736 . S
C1489 N104 1.736 . S
C1494 C281 1.726 . S
C1519 C314 1.726 . S
C1524 N5 1.737 . S
C1549 C347 1.726 . S
C1554 N38 1.734 . S
C1579 N71 1.736 . S
C1584 C380 1.726 . S
C1609 N434 1.736 . S
C1614 C413 1.725 . S
C1639 N467 1.736 . S
C1644 C446 1.726 . S
C1669 C479 1.726 . S
C1674 N500 1.736 . S
C1699 N401 1.736 . S
C1704 C512 1.727 . S
