# Generated by pormake.
# Topology lta, (4)-cn, num edge types: 1
# Building blocks:
#     Node 0, Type 0, BuildingBlock: QUQFOY_clean_sbu_3, # of connection points: 4
#     Node 1, Type 0, BuildingBlock: QUQFOY_clean_sbu_3, # of connection points: 4
#     Node 2, Type 0, BuildingBlock: QUQFOY_clean_sbu_3, # of connection points: 4
#     Node 3, Type 0, BuildingBlock: QUQFOY_clean_sbu_3, # of connection points: 4
#     Node 4, Type 0, BuildingBlock: QUQFOY_clean_sbu_3, # of connection points: 4
#     Node 5, Type 0, BuildingBlock: QUQFOY_clean_sbu_3, # of connection points: 4
#     Node 6, Type 0, BuildingBlock: QUQFOY_clean_sbu_3, # of connection points: 4
#     Node 7, Type 0, BuildingBlock: QUQFOY_clean_sbu_3, # of connection points: 4
#     Node 8, Type 0, BuildingBlock: QUQFOY_clean_sbu_3, # of connection points: 4
#     Node 9, Type 0, BuildingBlock: QUQFOY_clean_sbu_3, # of connection points: 4
#     Node 10, Type 0, BuildingBlock: QUQFOY_clean_sbu_3, # of connection points: 4
#     Node 11, Type 0, BuildingBlock: QUQFOY_clean_sbu_3, # of connection points: 4
#     Node 12, Type 0, BuildingBlock: QUQFOY_clean_sbu_3, # of connection points: 4
#     Node 13, Type 0, BuildingBlock: QUQFOY_clean_sbu_3, # of connection points: 4
#     Node 14, Type 0, BuildingBlock: QUQFOY_clean_sbu_3, # of connection points: 4
#     Node 15, Type 0, BuildingBlock: QUQFOY_clean_sbu_3, # of connection points: 4
#     Node 16, Type 0, BuildingBlock: QUQFOY_clean_sbu_3, # of connection points: 4
#     Node 17, Type 0, BuildingBlock: QUQFOY_clean_sbu_3, # of connection points: 4
#     Node 18, Type 0, BuildingBlock: QUQFOY_clean_sbu_3, # of connection points: 4
#     Node 19, Type 0, BuildingBlock: QUQFOY_clean_sbu_3, # of connection points: 4
#     Node 20, Type 0, BuildingBlock: QUQFOY_clean_sbu_3, # of connection points: 4
#     Node 21, Type 0, BuildingBlock: QUQFOY_clean_sbu_3, # of connection points: 4
#     Node 22, Type 0, BuildingBlock: QUQFOY_clean_sbu_3, # of connection points: 4
#     Node 23, Type 0, BuildingBlock: QUQFOY_clean_sbu_3, # of connection points: 4
#     Edge 24, Type (0, 0), BuildingBlock: TEMPAE_clean_linker_10, # of connection points: 2
#     Edge 25, Type (0, 0), BuildingBlock: TEMPAE_clean_linker_10, # of connection points: 2
#     Edge 26, Type (0, 0), BuildingBlock: TEMPAE_clean_linker_10, # of connection points: 2
#     Edge 27, Type (0, 0), BuildingBlock: TEMPAE_clean_linker_10, # of connection points: 2
#     Edge 28, Type (0, 0), BuildingBlock: TEMPAE_clean_linker_10, # of connection points: 2
#     Edge 29, Type (0, 0), BuildingBlock: TEMPAE_clean_linker_10, # of connection points: 2
#     Edge 30, Type (0, 0), BuildingBlock: TEMPAE_clean_linker_10, # of connection points: 2
#     Edge 31, Type (0, 0), BuildingBlock: TEMPAE_clean_linker_10, # of connection points: 2
#     Edge 32, Type (0, 0), BuildingBlock: TEMPAE_clean_linker_10, # of connection points: 2
#     Edge 33, Type (0, 0), BuildingBlock: TEMPAE_clean_linker_10, # of connection points: 2
#     Edge 34, Type (0, 0), BuildingBlock: TEMPAE_clean_linker_10, # of connection points: 2
#     Edge 35, Type (0, 0), BuildingBlock: TEMPAE_clean_linker_10, # of connection points: 2
#     Edge 36, Type (0, 0), BuildingBlock: TEMPAE_clean_linker_10, # of connection points: 2
#     Edge 37, Type (0, 0), BuildingBlock: TEMPAE_clean_linker_10, # of connection points: 2
#     Edge 38, Type (0, 0), BuildingBlock: TEMPAE_clean_linker_10, # of connection points: 2
#     Edge 39, Type (0, 0), BuildingBlock: TEMPAE_clean_linker_10, # of connection points: 2
#     Edge 40, Type (0, 0), BuildingBlock: TEMPAE_clean_linker_10, # of connection points: 2
#     Edge 41, Type (0, 0), BuildingBlock: TEMPAE_clean_linker_10, # of connection points: 2
#     Edge 42, Type (0, 0), BuildingBlock: TEMPAE_clean_linker_10, # of connection points: 2
#     Edge 43, Type (0, 0), BuildingBlock: TEMPAE_clean_linker_10, # of connection points: 2
#     Edge 44, Type (0, 0), BuildingBlock: TEMPAE_clean_linker_10, # of connection points: 2
#     Edge 45, Type (0, 0), BuildingBlock: TEMPAE_clean_linker_10, # of connection points: 2
#     Edge 46, Type (0, 0), BuildingBlock: TEMPAE_clean_linker_10, # of connection points: 2
#     Edge 47, Type (0, 0), BuildingBlock: TEMPAE_clean_linker_10, # of connection points: 2
#     Edge 48, Type (0, 0), BuildingBlock: TEMPAE_clean_linker_10, # of connection points: 2
#     Edge 49, Type (0, 0), BuildingBlock: TEMPAE_clean_linker_10, # of connection points: 2
#     Edge 50, Type (0, 0), BuildingBlock: TEMPAE_clean_linker_10, # of connection points: 2
#     Edge 51, Type (0, 0), BuildingBlock: TEMPAE_clean_linker_10, # of connection points: 2
#     Edge 52, Type (0, 0), BuildingBlock: TEMPAE_clean_linker_10, # of connection points: 2
#     Edge 53, Type (0, 0), BuildingBlock: TEMPAE_clean_linker_10, # of connection points: 2
#     Edge 54, Type (0, 0), BuildingBlock: TEMPAE_clean_linker_10, # of connection points: 2
#     Edge 55, Type (0, 0), BuildingBlock: TEMPAE_clean_linker_10, # of connection points: 2
#     Edge 56, Type (0, 0), BuildingBlock: TEMPAE_clean_linker_10, # of connection points: 2
#     Edge 57, Type (0, 0), BuildingBlock: TEMPAE_clean_linker_10, # of connection points: 2
#     Edge 58, Type (0, 0), BuildingBlock: TEMPAE_clean_linker_10, # of connection points: 2
#     Edge 59, Type (0, 0), BuildingBlock: TEMPAE_clean_linker_10, # of connection points: 2
#     Edge 60, Type (0, 0), BuildingBlock: TEMPAE_clean_linker_10, # of connection points: 2
#     Edge 61, Type (0, 0), BuildingBlock: TEMPAE_clean_linker_10, # of connection points: 2
#     Edge 62, Type (0, 0), BuildingBlock: TEMPAE_clean_linker_10, # of connection points: 2
#     Edge 63, Type (0, 0), BuildingBlock: TEMPAE_clean_linker_10, # of connection points: 2
#     Edge 64, Type (0, 0), BuildingBlock: TEMPAE_clean_linker_10, # of connection points: 2
#     Edge 65, Type (0, 0), BuildingBlock: TEMPAE_clean_linker_10, # of connection points: 2
#     Edge 66, Type (0, 0), BuildingBlock: TEMPAE_clean_linker_10, # of connection points: 2
#     Edge 67, Type (0, 0), BuildingBlock: TEMPAE_clean_linker_10, # of connection points: 2
#     Edge 68, Type (0, 0), BuildingBlock: TEMPAE_clean_linker_10, # of connection points: 2
#     Edge 69, Type (0, 0), BuildingBlock: TEMPAE_clean_linker_10, # of connection points: 2
#     Edge 70, Type (0, 0), BuildingBlock: TEMPAE_clean_linker_10, # of connection points: 2
#     Edge 71, Type (0, 0), BuildingBlock: TEMPAE_clean_linker_10, # of connection points: 2
# Relax obj value: 0.276
# Max RMSD: 0.159
# Mean RMSD: 0.159
data_MOF--net-lta--node1-QUQFOY_clean_sbu_3--edge1-TEMPAE_clean_linker_10
_symmetry_space_group_name_H-M    P1
_symmetry_Int_Tables_number       1
_symmetry_cell_setting            triclinic
loop_
_symmetry_equiv_pos_as_xyz
'x, y, z'
_cell_length_a     59.533823
_cell_length_b     59.578887
_cell_length_c     59.588819
_cell_angle_alpha  90.050516
_cell_angle_beta   89.937037
_cell_angle_gamma 90.04461
loop_
_atom_site_label
_atom_site_type_symbol
_atom_site_fract_x
_atom_site_fract_y
_atom_site_fract_z
_atom_type_partial_charge
C0 C 0.11955 0.30631 0.44339 0.0
O1 O 0.13695 0.30289 0.45493 0.0
Cd2 Cd 0.11446 0.29581 0.4892 0.0
O3 O 0.10099 0.3029 0.45308 0.0
Cd4 Cd 0.10929 0.2888 0.49396 0.0
C5 C 0.06169 0.29758 0.49021 0.0
O6 O 0.13146 0.31968 0.51396 0.0
O7 O 0.10251 0.30723 0.53139 0.0
O8 O 0.14198 0.26627 0.48248 0.0
C9 C 0.11922 0.32047 0.53127 0.0
O10 O 0.0758 0.31279 0.48564 0.0
C11 C 0.13668 0.24891 0.49353 0.0
O12 O 0.06932 0.27878 0.49642 0.0
O13 O 0.11878 0.24991 0.50512 0.0
C14 C 0.65489 0.12354 0.45873 0.0
O15 O 0.67003 0.13673 0.4655 0.0
Cd16 Cd 0.67307 0.11643 0.50253 0.0
O17 O 0.64955 0.10798 0.47201 0.0
Cd18 Cd 0.67605 0.11399 0.50574 0.0
C19 C 0.67402 0.06535 0.5025 0.0
O20 O 0.64984 0.13445 0.52967 0.0
O21 O 0.66383 0.10515 0.54538 0.0
O22 O 0.69398 0.15181 0.50337 0.0
C23 C 0.65078 0.12201 0.54681 0.0
O24 O 0.65651 0.07724 0.50169 0.0
C25 C 0.71367 0.14459 0.4999 0.0
O26 O 0.69242 0.07567 0.50469 0.0
O27 O 0.71618 0.12349 0.49904 0.0
C28 C 0.84075 0.62536 0.4599 0.0
O29 O 0.84754 0.61017 0.4732 0.0
Cd30 Cd 0.85684 0.6149 0.51173 0.0
O31 O 0.83776 0.64538 0.46688 0.0
Cd32 Cd 0.84269 0.66564 0.50325 0.0
C33 C 0.89817 0.65403 0.50323 0.0
O34 O 0.82773 0.6373 0.52735 0.0
O35 O 0.8474 0.66204 0.5447 0.0
O36 O 0.80814 0.68658 0.50061 0.0
C37 C 0.83457 0.64504 0.54587 0.0
O38 O 0.89284 0.63452 0.51018 0.0
C39 C 0.81735 0.7057 0.49885 0.0
O40 O 0.88314 0.66832 0.49812 0.0
O41 O 0.83866 0.7064 0.49898 0.0
C42 C 0.34712 0.84249 0.45402 0.0
O43 O 0.36238 0.84735 0.4681 0.0
Cd44 Cd 0.35666 0.8552 0.50682 0.0
O45 O 0.3267 0.84069 0.46025 0.0
Cd46 Cd 0.30537 0.8446 0.4961 0.0
C47 C 0.32057 0.89901 0.49774 0.0
O48 O 0.33225 0.82632 0.51989 0.0
O49 O 0.30755 0.84539 0.5378 0.0
O50 O 0.28244 0.81394 0.48278 0.0
C51 C 0.32416 0.8321 0.53863 0.0
O52 O 0.33932 0.89241 0.50563 0.0
C53 C 0.26382 0.82275 0.48828 0.0
O54 O 0.30569 0.88498 0.49156 0.0
O55 O 0.26448 0.84205 0.49733 0.0
C56 C 0.11468 0.62963 0.51374 0.0
O57 O 0.10929 0.6147 0.4995 0.0
Cd58 Cd 0.10413 0.62086 0.46052 0.0
O59 O 0.11797 0.64987 0.50759 0.0
Cd60 Cd 0.11637 0.67115 0.47149 0.0
C61 C 0.06145 0.65888 0.46639 0.0
O62 O 0.13576 0.64312 0.45011 0.0
O63 O 0.11923 0.66762 0.42974 0.0
O64 O 0.14677 0.69251 0.48762 0.0
C65 C 0.1323 0.65086 0.43072 0.0
O66 O 0.06778 0.63983 0.45901 0.0
C67 C 0.1402 0.71142 0.4804 0.0
O68 O 0.07569 0.67312 0.47352 0.0
O69 O 0.12209 0.71175 0.46916 0.0
C70 C 0.3437 0.11801 0.51273 0.0
O71 O 0.35899 0.11447 0.49827 0.0
Cd72 Cd 0.3529 0.10905 0.45918 0.0
O73 O 0.32319 0.11957 0.5068 0.0
Cd74 Cd 0.30093 0.11767 0.47152 0.0
C75 C 0.31754 0.0639 0.46543 0.0
O76 O 0.32734 0.1382 0.44942 0.0
O77 O 0.3024 0.12138 0.42975 0.0
O78 O 0.27837 0.14656 0.48869 0.0
C79 C 0.31926 0.13441 0.43021 0.0
O80 O 0.33622 0.07146 0.45817 0.0
C81 C 0.25956 0.13786 0.48368 0.0
O82 O 0.30233 0.07712 0.4725 0.0
O83 O 0.25993 0.11957 0.4727 0.0
C84 C 0.83768 0.35099 0.50468 0.0
O85 O 0.84298 0.36688 0.49151 0.0
Cd86 Cd 0.85448 0.36315 0.45366 0.0
O87 O 0.83682 0.33077 0.49763 0.0
Cd88 Cd 0.84297 0.3106 0.46116 0.0
C89 C 0.89764 0.32576 0.46294 0.0
O90 O 0.8276 0.33857 0.43714 0.0
O91 O 0.84733 0.31389 0.41974 0.0
O92 O 0.80962 0.28752 0.46326 0.0
C93 C 0.83468 0.33099 0.41862 0.0
O94 O 0.89134 0.34568 0.45844 0.0
C95 C 0.81999 0.26913 0.46598 0.0
O96 O 0.88353 0.30984 0.46503 0.0
O97 O 0.8413 0.26988 0.46645 0.0
C98 C 0.61981 0.84494 0.50657 0.0
O99 O 0.60534 0.85299 0.49316 0.0
Cd100 Cd 0.61161 0.86292 0.45493 0.0
O101 O 0.63985 0.84124 0.49999 0.0
Cd102 Cd 0.66107 0.84696 0.46437 0.0
C103 C 0.65112 0.90279 0.46549 0.0
O104 O 0.63303 0.83296 0.43928 0.0
O105 O 0.6587 0.85225 0.42286 0.0
O106 O 0.6818 0.81225 0.4673 0.0
C107 C 0.64159 0.83964 0.42106 0.0
O108 O 0.63192 0.89855 0.45708 0.0
C109 C 0.70094 0.82138 0.46931 0.0
O110 O 0.66435 0.88704 0.47118 0.0
O111 O 0.70171 0.84267 0.46917 0.0
C112 C 0.46165 0.12043 0.35161 0.0
O113 O 0.47508 0.11214 0.36592 0.0
Cd114 Cd 0.51392 0.10515 0.35987 0.0
O115 O 0.4686 0.126 0.33213 0.0
Cd116 Cd 0.50499 0.12494 0.3112 0.0
C117 C 0.50641 0.06841 0.3164 0.0
O118 O 0.52673 0.13874 0.34221 0.0
O119 O 0.54682 0.12668 0.31489 0.0
O120 O 0.4908 0.15838 0.29293 0.0
C121 C 0.54607 0.13629 0.33387 0.0
O122 O 0.51343 0.07154 0.33634 0.0
C123 C 0.49717 0.15283 0.27336 0.0
O124 O 0.50095 0.08494 0.30408 0.0
O125 O 0.50733 0.1342 0.27136 0.0
C126 C 0.85399 0.472 0.33733 0.0
O127 O 0.85908 0.48655 0.35204 0.0
Cd128 Cd 0.86401 0.52533 0.34442 0.0
O129 O 0.85072 0.47776 0.31698 0.0
Cd130 Cd 0.85148 0.51309 0.29448 0.0
C131 C 0.90646 0.51797 0.3062 0.0
O132 O 0.83197 0.53458 0.32212 0.0
O133 O 0.848 0.55496 0.29723 0.0
O134 O 0.82144 0.495 0.27436 0.0
C135 C 0.83497 0.55392 0.31405 0.0
O136 O 0.90038 0.52567 0.3252 0.0
C137 C 0.82764 0.50136 0.255 0.0
O138 O 0.89199 0.51103 0.29213 0.0
O139 O 0.84519 0.51345 0.25387 0.0
C140 C 0.5039 0.85641 0.33411 0.0
O141 O 0.48894 0.8618 0.34833 0.0
Cd142 Cd 0.45051 0.86725 0.33975 0.0
O143 O 0.49871 0.85298 0.31362 0.0
Cd144 Cd 0.46352 0.85414 0.29062 0.0
C145 C 0.45966 0.90926 0.30152 0.0
O146 O 0.44078 0.83518 0.31778 0.0
O147 O 0.42151 0.85281 0.29317 0.0
O148 O 0.48042 0.82302 0.27092 0.0
C149 C 0.42172 0.83919 0.30951 0.0
O150 O 0.45118 0.90333 0.32024 0.0
C151 C 0.47353 0.82866 0.25159 0.0
O152 O 0.46692 0.89465 0.28772 0.0
O153 O 0.46217 0.84664 0.25021 0.0
C154 C 0.12131 0.50865 0.35113 0.0
O155 O 0.11268 0.495 0.36508 0.0
Cd156 Cd 0.10267 0.45679 0.35884 0.0
O157 O 0.12592 0.50248 0.33114 0.0
Cd158 Cd 0.1218 0.4675 0.30843 0.0
C159 C 0.06526 0.46846 0.31684 0.0
O160 O 0.13346 0.44305 0.33772 0.0
O161 O 0.12087 0.42547 0.30894 0.0
O162 O 0.15658 0.47557 0.28877 0.0
C163 C 0.12951 0.42445 0.32836 0.0
O164 O 0.06861 0.46059 0.33643 0.0
C165 C 0.14789 0.47504 0.26931 0.0
O166 O 0.08163 0.4734 0.30402 0.0
O167 O 0.12696 0.47107 0.26811 0.0
C168 C 0.4621 0.8497 0.6251 0.0
O169 O 0.47693 0.85527 0.61081 0.0
Cd170 Cd 0.51542 0.8614 0.61885 0.0
O171 O 0.46732 0.84675 0.64565 0.0
Cd172 Cd 0.50227 0.84948 0.66879 0.0
C173 C 0.5063 0.90437 0.6559 0.0
O174 O 0.52512 0.8302 0.64202 0.0
O175 O 0.54431 0.8476 0.66688 0.0
O176 O 0.48558 0.81933 0.69015 0.0
C177 C 0.54417 0.8342 0.65034 0.0
O178 O 0.51476 0.89813 0.63727 0.0
C179 C 0.49168 0.82659 0.70922 0.0
O180 O 0.49911 0.89002 0.66997 0.0
O181 O 0.50274 0.84483 0.7096 0.0
C182 C 0.12126 0.4645 0.61599 0.0
O183 O 0.11532 0.48065 0.60344 0.0
Cd184 Cd 0.10797 0.51767 0.61606 0.0
O185 O 0.1246 0.46766 0.63692 0.0
Cd186 Cd 0.12294 0.50003 0.66376 0.0
C187 C 0.06739 0.50259 0.65428 0.0
O188 O 0.13955 0.5268 0.63892 0.0
O189 O 0.12206 0.54195 0.66641 0.0
O190 O 0.15532 0.48329 0.68172 0.0
C191 C 0.13466 0.54453 0.64944 0.0
O192 O 0.07235 0.51292 0.63622 0.0
C193 C 0.14878 0.48714 0.70163 0.0
O194 O 0.08272 0.49492 0.66698 0.0
O195 O 0.1299 0.49676 0.704 0.0
C196 C 0.50502 0.12503 0.62535 0.0
O197 O 0.48988 0.11974 0.61131 0.0
Cd198 Cd 0.45209 0.11024 0.61998 0.0
O199 O 0.50038 0.12669 0.6462 0.0
Cd200 Cd 0.46613 0.12192 0.67011 0.0
C201 C 0.46497 0.06716 0.656 0.0
O202 O 0.43946 0.13839 0.64533 0.0
O203 O 0.42445 0.11721 0.67027 0.0
O204 O 0.47202 0.15547 0.69197 0.0
C205 C 0.42171 0.1311 0.65437 0.0
O206 O 0.4561 0.0733 0.63754 0.0
C207 C 0.47438 0.14552 0.71063 0.0
O208 O 0.47131 0.08157 0.67044 0.0
O209 O 0.47331 0.12423 0.71058 0.0
C210 C 0.85223 0.50327 0.62625 0.0
O211 O 0.85721 0.48867 0.61152 0.0
Cd212 Cd 0.86274 0.45003 0.61938 0.0
O213 O 0.84936 0.49756 0.64668 0.0
Cd214 Cd 0.8508 0.4622 0.66915 0.0
C215 C 0.90572 0.45794 0.65674 0.0
O216 O 0.83105 0.44005 0.64208 0.0
O217 O 0.84812 0.4203 0.66675 0.0
O218 O 0.82065 0.47953 0.68987 0.0
C219 C 0.83455 0.42089 0.65037 0.0
O220 O 0.89949 0.45014 0.63784 0.0
C221 C 0.82731 0.47329 0.70909 0.0
O222 O 0.89133 0.46472 0.67099 0.0
O223 O 0.84521 0.46173 0.70987 0.0
C224 C 0.31219 0.44991 0.12515 0.0
O225 O 0.29551 0.45596 0.1369 0.0
Cd226 Cd 0.29141 0.48982 0.11313 0.0
O227 O 0.31793 0.4628 0.10927 0.0
Cd228 Cd 0.29044 0.49751 0.1083 0.0
C229 C 0.28669 0.48598 0.06079 0.0
O230 O 0.3219 0.51436 0.12632 0.0
O231 O 0.30527 0.53605 0.10261 0.0
O232 O 0.26525 0.51083 0.1388 0.0
C233 C 0.3211 0.53328 0.11666 0.0
O234 O 0.29506 0.47241 0.07464 0.0
C235 C 0.25103 0.49501 0.13791 0.0
O236 O 0.27931 0.50418 0.0687 0.0
O237 O 0.25422 0.48009 0.12307 0.0
C238 C 0.34793 0.50574 0.84559 0.0
O239 O 0.3636 0.49247 0.85126 0.0
Cd240 Cd 0.35943 0.45347 0.85761 0.0
O241 O 0.32815 0.49834 0.84191 0.0
Cd242 Cd 0.3087 0.46097 0.84223 0.0
C243 C 0.31819 0.45798 0.89791 0.0
O244 O 0.33918 0.44058 0.82549 0.0
O245 O 0.3139 0.41949 0.84002 0.0
O246 O 0.28828 0.47535 0.81025 0.0
C247 C 0.33188 0.42094 0.82869 0.0
O248 O 0.33845 0.45325 0.89292 0.0
C249 C 0.26926 0.46794 0.81641 0.0
O250 O 0.30389 0.46227 0.88265 0.0
O251 O 0.2685 0.45723 0.83481 0.0
C252 C 0.47275 0.3396 0.85007 0.0
O253 O 0.48654 0.35384 0.85791 0.0
Cd254 Cd 0.52399 0.34632 0.86909 0.0
O255 O 0.47852 0.31915 0.84738 0.0
Cd256 Cd 0.51326 0.29678 0.85501 0.0
C257 C 0.51045 0.30879 0.9103 0.0
O258 O 0.53897 0.32335 0.83993 0.0
O259 O 0.55489 0.2992 0.86132 0.0
O260 O 0.51086 0.27552 0.82067 0.0
C261 C 0.55702 0.31508 0.84727 0.0
O262 O 0.51915 0.32767 0.90529 0.0
C263 C 0.50826 0.25655 0.82993 0.0
O264 O 0.50535 0.29475 0.89504 0.0
O265 O 0.5077 0.25605 0.85122 0.0
C266 C 0.62741 0.46131 0.849 0.0
O267 O 0.61164 0.47515 0.85279 0.0
Cd268 Cd 0.61696 0.51427 0.85884 0.0
O269 O 0.64761 0.46813 0.84693 0.0
Cd270 Cd 0.66828 0.50451 0.84765 0.0
C271 C 0.65435 0.50763 0.9022 0.0
O272 O 0.64038 0.52634 0.82867 0.0
O273 O 0.66479 0.54616 0.84618 0.0
O274 O 0.68954 0.48898 0.81697 0.0
C275 C 0.64799 0.54563 0.83312 0.0
O276 O 0.63514 0.51446 0.89572 0.0
C277 C 0.70862 0.49509 0.82423 0.0
O278 O 0.66928 0.50179 0.88808 0.0
O279 O 0.70905 0.50581 0.84267 0.0
C280 C 0.50518 0.62465 0.84535 0.0
O281 O 0.49074 0.60984 0.85053 0.0
Cd282 Cd 0.45244 0.61712 0.85878 0.0
O283 O 0.49955 0.64524 0.84362 0.0
Cd284 Cd 0.4645 0.66794 0.84802 0.0
C285 C 0.46343 0.65302 0.90251 0.0
O286 O 0.44071 0.64156 0.82935 0.0
O287 O 0.42248 0.66609 0.84826 0.0
O288 O 0.47973 0.68966 0.81745 0.0
C289 C 0.42189 0.64973 0.83465 0.0
O290 O 0.45509 0.63444 0.89597 0.0
C291 C 0.47415 0.70867 0.8253 0.0
O292 O 0.46951 0.66785 0.8884 0.0
O293 O 0.46402 0.70886 0.84407 0.0
C294 C 0.62502 0.50814 0.12084 0.0
O295 O 0.60981 0.49412 0.11561 0.0
Cd296 Cd 0.61613 0.4556 0.10755 0.0
O297 O 0.6454 0.50188 0.12282 0.0
Cd298 Cd 0.6672 0.46634 0.1192 0.0
C299 C 0.65321 0.46533 0.06453 0.0
O300 O 0.63982 0.44338 0.13738 0.0
O301 O 0.66453 0.42444 0.11936 0.0
O302 O 0.68853 0.48132 0.15004 0.0
C303 C 0.6477 0.42435 0.13243 0.0
O304 O 0.63424 0.45752 0.07066 0.0
C305 C 0.70764 0.47587 0.14232 0.0
O306 O 0.66789 0.47107 0.07892 0.0
O307 O 0.70805 0.46566 0.1236 0.0
C308 C 0.46628 0.61634 0.11912 0.0
O309 O 0.48238 0.6034 0.11386 0.0
Cd310 Cd 0.52001 0.61478 0.10756 0.0
O311 O 0.46964 0.63731 0.12207 0.0
Cd312 Cd 0.50277 0.66322 0.11981 0.0
C313 C 0.50712 0.65085 0.06482 0.0
O314 O 0.52838 0.63878 0.13861 0.0
O315 O 0.54479 0.66473 0.12 0.0
O316 O 0.48627 0.68458 0.15034 0.0
C317 C 0.54653 0.64858 0.13373 0.0
O318 O 0.51727 0.63299 0.07075 0.0
C319 C 0.49071 0.70367 0.14196 0.0
O320 O 0.49904 0.66415 0.07943 0.0
O321 O 0.50047 0.70391 0.12301 0.0
C322 C 0.50432 0.34653 0.12042 0.0
O323 O 0.49028 0.36109 0.1137 0.0
Cd324 Cd 0.45135 0.35415 0.10798 0.0
O325 O 0.49794 0.32664 0.12513 0.0
Cd326 Cd 0.46225 0.30474 0.12524 0.0
C327 C 0.45887 0.3123 0.06912 0.0
O328 O 0.44032 0.33457 0.1411 0.0
O329 O 0.42049 0.30725 0.12858 0.0
O330 O 0.47908 0.28713 0.15763 0.0
C331 C 0.42111 0.32582 0.13899 0.0
O332 O 0.45161 0.33194 0.07348 0.0
C333 C 0.47279 0.26735 0.15282 0.0
O334 O 0.46504 0.29923 0.08483 0.0
O335 O 0.4615 0.26482 0.13491 0.0
C336 C 0.13442 0.40463 0.36464 0.0
C337 C 0.13019 0.40345 0.34153 0.0
C338 C 0.1331 0.38554 0.37818 0.0
C339 C 0.12785 0.36456 0.36834 0.0
C340 C 0.12456 0.36298 0.34486 0.0
C341 C 0.12555 0.38256 0.3317 0.0
C342 C 0.13655 0.38805 0.4032 0.0
C343 C 0.11946 0.34079 0.33376 0.0
C344 C 0.1414 0.31883 0.40983 0.0
C345 C 0.12074 0.31666 0.42092 0.0
C346 C 0.14351 0.33263 0.39087 0.0
C347 C 0.12462 0.34484 0.38324 0.0
C348 C 0.10333 0.3411 0.39316 0.0
C349 C 0.10161 0.32687 0.4118 0.0
C350 C 0.16636 0.33565 0.38029 0.0
C351 C 0.08278 0.35388 0.38566 0.0
H352 H 0.13808 0.42069 0.37238 0.0
H353 H 0.1224 0.38155 0.31381 0.0
H354 H 0.12109 0.38289 0.41226 0.0
H355 H 0.15035 0.37695 0.4089 0.0
H356 H 0.14068 0.40557 0.40811 0.0
H357 H 0.12067 0.34182 0.31518 0.0
H358 H 0.13114 0.32762 0.33981 0.0
H359 H 0.10219 0.33539 0.33824 0.0
H360 H 0.15618 0.31067 0.41661 0.0
H361 H 0.08554 0.3251 0.4202 0.0
H362 H 0.17382 0.35168 0.38616 0.0
H363 H 0.16502 0.3365 0.36174 0.0
H364 H 0.17797 0.3218 0.38486 0.0
H365 H 0.08424 0.37163 0.39117 0.0
H366 H 0.06707 0.34678 0.39283 0.0
H367 H 0.08142 0.35387 0.36711 0.0
C368 C 0.64762 0.14486 0.42312 0.0
C369 C 0.64321 0.12638 0.43703 0.0
C370 C 0.63501 0.14843 0.40349 0.0
C371 C 0.61759 0.13325 0.39785 0.0
C372 C 0.61383 0.11405 0.41132 0.0
C373 C 0.6267 0.11085 0.43068 0.0
C374 C 0.63967 0.16893 0.38938 0.0
C375 C 0.59544 0.0974 0.40592 0.0
C376 C 0.5641 0.15036 0.36874 0.0
C377 C 0.5662 0.13932 0.34806 0.0
C378 C 0.58152 0.14999 0.38449 0.0
C379 C 0.60159 0.13832 0.37942 0.0
C380 C 0.60456 0.12875 0.35785 0.0
C381 C 0.58676 0.12934 0.34236 0.0
C382 C 0.57767 0.16053 0.40724 0.0
C383 C 0.62585 0.11646 0.35171 0.0
H384 H 0.66048 0.15684 0.42786 0.0
H385 H 0.62334 0.09641 0.44123 0.0
H386 H 0.64021 0.16444 0.37131 0.0
H387 H 0.62591 0.18127 0.39166 0.0
H388 H 0.65578 0.17713 0.39402 0.0
H389 H 0.59568 0.08261 0.41726 0.0
H390 H 0.57882 0.1057 0.40747 0.0
H391 H 0.59709 0.09142 0.38837 0.0
H392 H 0.54836 0.1584 0.37311 0.0
H393 H 0.58856 0.12094 0.32632 0.0
H394 H 0.59228 0.17097 0.41217 0.0
H395 H 0.57578 0.14712 0.42003 0.0
H396 H 0.56235 0.17115 0.4076 0.0
H397 H 0.64084 0.12589 0.35753 0.0
H398 H 0.62723 0.11369 0.33332 0.0
H399 H 0.62603 0.09987 0.36015 0.0
C400 C 0.84528 0.59904 0.42778 0.0
C401 C 0.83745 0.61969 0.43592 0.0
C402 C 0.84289 0.59316 0.4052 0.0
C403 C 0.83217 0.60819 0.39026 0.0
C404 C 0.8243 0.62915 0.39822 0.0
C405 C 0.8271 0.63471 0.42102 0.0
C406 C 0.85174 0.57065 0.39741 0.0
C407 C 0.81259 0.64547 0.38283 0.0
C408 C 0.84679 0.58995 0.33165 0.0
C409 C 0.8303 0.5735 0.32838 0.0
C410 C 0.84625 0.60374 0.35077 0.0
C411 C 0.82869 0.60101 0.36663 0.0
C412 C 0.81041 0.58669 0.36159 0.0
C413 C 0.81156 0.5729 0.34258 0.0
C414 C 0.86595 0.61899 0.35539 0.0
C415 C 0.79108 0.58366 0.37771 0.0
H416 H 0.8535 0.5874 0.43906 0.0
H417 H 0.82101 0.65071 0.42719 0.0
H418 H 0.83768 0.56013 0.39117 0.0
H419 H 0.86371 0.57298 0.38332 0.0
H420 H 0.86043 0.56134 0.41101 0.0
H421 H 0.81001 0.6621 0.39088 0.0
H422 H 0.82236 0.64783 0.36714 0.0
H423 H 0.79595 0.6386 0.37802 0.0
H424 H 0.8613 0.59045 0.32065 0.0
H425 H 0.79867 0.5603 0.33987 0.0
H426 H 0.87768 0.61045 0.36705 0.0
H427 H 0.86042 0.63482 0.3635 0.0
H428 H 0.87527 0.62311 0.33976 0.0
H429 H 0.79639 0.5725 0.39163 0.0
H430 H 0.77629 0.57593 0.36937 0.0
H431 H 0.78597 0.59995 0.38514 0.0
C432 C 0.37451 0.84705 0.4228 0.0
C433 C 0.35326 0.83996 0.43007 0.0
C434 C 0.38087 0.84528 0.40029 0.0
C435 C 0.3657 0.83593 0.38453 0.0
C436 C 0.34414 0.82882 0.39163 0.0
C437 C 0.33812 0.83101 0.41437 0.0
C438 C 0.404 0.85329 0.39344 0.0
C439 C 0.32768 0.81855 0.37535 0.0
C440 C 0.38597 0.85199 0.327 0.0
C441 C 0.4017 0.83491 0.32336 0.0
C442 C 0.37176 0.85136 0.34582 0.0
C443 C 0.3733 0.83309 0.36095 0.0
C444 C 0.38687 0.81439 0.35543 0.0
C445 C 0.40113 0.81564 0.33678 0.0
C446 C 0.35738 0.87156 0.35098 0.0
C447 C 0.38858 0.79431 0.37076 0.0
H448 H 0.38625 0.8542 0.43473 0.0
H449 H 0.32166 0.82549 0.41989 0.0
H450 H 0.41399 0.83899 0.3869 0.0
H451 H 0.40266 0.86587 0.37979 0.0
H452 H 0.41336 0.86099 0.40761 0.0
H453 H 0.31075 0.81637 0.38291 0.0
H454 H 0.32615 0.82908 0.36009 0.0
H455 H 0.33391 0.80186 0.36992 0.0
H456 H 0.38638 0.86691 0.31659 0.0
H457 H 0.41317 0.80231 0.33376 0.0
H458 H 0.36622 0.88234 0.36335 0.0
H459 H 0.3411 0.86649 0.35848 0.0
H460 H 0.35411 0.88171 0.3357 0.0
H461 H 0.39967 0.7985 0.38512 0.0
H462 H 0.39578 0.77952 0.36194 0.0
H463 H 0.37188 0.7897 0.37762 0.0
C464 C 0.11876 0.58167 0.63848 0.0
C465 C 0.13643 0.56616 0.63761 0.0
C466 C 0.11638 0.59794 0.6216 0.0
C467 C 0.13208 0.59855 0.60373 0.0
C468 C 0.15166 0.58515 0.6048 0.0
C469 C 0.15353 0.56897 0.62171 0.0
C470 C 0.09563 0.61243 0.6214 0.0
C471 C 0.16915 0.58569 0.58645 0.0
C472 C 0.11015 0.60176 0.54446 0.0
C473 C 0.11743 0.62303 0.53752 0.0
C474 C 0.11398 0.59416 0.56629 0.0
C475 C 0.12545 0.60816 0.58173 0.0
C476 C 0.13196 0.63008 0.57524 0.0
C477 C 0.12789 0.63728 0.55313 0.0
C478 C 0.10651 0.57069 0.57251 0.0
C479 C 0.14406 0.64556 0.59122 0.0
H480 H 0.10559 0.57967 0.6509 0.0
H481 H 0.16742 0.5572 0.6213 0.0
H482 H 0.09946 0.62946 0.61491 0.0
H483 H 0.08291 0.60476 0.61014 0.0
H484 H 0.08815 0.61395 0.63843 0.0
H485 H 0.18506 0.57755 0.59178 0.0
H486 H 0.16267 0.57661 0.57152 0.0
H487 H 0.17282 0.6032 0.58132 0.0
H488 H 0.10175 0.59076 0.53264 0.0
H489 H 0.13349 0.65379 0.54792 0.0
H490 H 0.09589 0.57115 0.58781 0.0
H491 H 0.1214 0.56016 0.57629 0.0
H492 H 0.09681 0.56245 0.55888 0.0
H493 H 0.13738 0.64396 0.60854 0.0
H494 H 0.14272 0.66337 0.58587 0.0
H495 H 0.16212 0.64103 0.59165 0.0
C496 C 0.372 0.11528 0.54333 0.0
C497 C 0.34996 0.12012 0.53668 0.0
C498 C 0.37868 0.11761 0.56569 0.0
C499 C 0.36296 0.12507 0.58192 0.0
C500 C 0.34052 0.1295 0.57551 0.0
C501 C 0.33426 0.12697 0.5529 0.0
C502 C 0.4028 0.11253 0.5718 0.0
C503 C 0.32333 0.13753 0.59232 0.0
C504 C 0.38739 0.11302 0.63873 0.0
C505 C 0.40066 0.13225 0.6415 0.0
C506 C 0.3725 0.11133 0.62054 0.0
C507 C 0.37093 0.12934 0.60513 0.0
C508 C 0.38187 0.14989 0.60986 0.0
C509 C 0.39679 0.15103 0.62796 0.0
C510 C 0.36079 0.08927 0.61629 0.0
C511 C 0.38022 0.16971 0.59419 0.0
H512 H 0.3842 0.10976 0.53099 0.0
H513 H 0.31717 0.13071 0.54789 0.0
H514 H 0.41115 0.12799 0.57801 0.0
H515 H 0.40341 0.09995 0.5855 0.0
H516 H 0.41261 0.10598 0.55734 0.0
H517 H 0.30595 0.13634 0.58564 0.0
H518 H 0.32437 0.1277 0.60809 0.0
H519 H 0.32676 0.15532 0.59661 0.0
H520 H 0.39032 0.09848 0.64926 0.0
H521 H 0.40688 0.16601 0.63033 0.0
H522 H 0.37052 0.07951 0.60373 0.0
H523 H 0.34371 0.09196 0.60939 0.0
H524 H 0.35949 0.07909 0.63185 0.0
H525 H 0.39102 0.16667 0.57929 0.0
H526 H 0.38589 0.18549 0.60237 0.0
H527 H 0.36275 0.17198 0.58818 0.0
C528 C 0.84646 0.38514 0.63239 0.0
C529 C 0.82962 0.40099 0.6366 0.0
C530 C 0.84529 0.37125 0.61337 0.0
C531 C 0.82672 0.37323 0.59864 0.0
C532 C 0.80818 0.38671 0.60488 0.0
C533 C 0.80999 0.40072 0.62368 0.0
C534 C 0.86533 0.35693 0.60747 0.0
C535 C 0.78774 0.38875 0.59008 0.0
C536 C 0.84065 0.37729 0.53693 0.0
C537 C 0.83413 0.35621 0.52874 0.0
C538 C 0.83855 0.3827 0.55964 0.0
C539 C 0.82937 0.36675 0.57469 0.0
C540 C 0.82259 0.34543 0.56664 0.0
C541 C 0.82516 0.34034 0.54369 0.0
C542 C 0.84624 0.40563 0.56748 0.0
C543 C 0.81236 0.32819 0.58211 0.0
H544 H 0.86164 0.38531 0.64242 0.0
H545 H 0.79683 0.41282 0.62716 0.0
H546 H 0.86004 0.34089 0.59963 0.0
H547 H 0.87596 0.36605 0.59516 0.0
H548 H 0.87573 0.3532 0.62248 0.0
H549 H 0.77309 0.39547 0.5995 0.0
H550 H 0.79149 0.40041 0.57604 0.0
H551 H 0.78313 0.37227 0.58272 0.0
H552 H 0.84779 0.38961 0.5256 0.0
H553 H 0.82004 0.32402 0.53746 0.0
H554 H 0.85887 0.40388 0.58104 0.0
H555 H 0.8318 0.41512 0.57444 0.0
H556 H 0.85379 0.4157 0.55372 0.0
H557 H 0.82243 0.32651 0.59767 0.0
H558 H 0.81094 0.31145 0.57399 0.0
H559 H 0.7953 0.33374 0.58715 0.0
C560 C 0.56451 0.81186 0.62186 0.0
C561 C 0.5642 0.83039 0.63633 0.0
C562 C 0.57875 0.81143 0.60315 0.0
C563 C 0.59264 0.83019 0.59871 0.0
C564 C 0.59446 0.84757 0.61486 0.0
C565 C 0.58021 0.84741 0.63366 0.0
C566 C 0.57666 0.79228 0.58668 0.0
C567 C 0.60921 0.86779 0.61088 0.0
C568 C 0.62807 0.83049 0.5454 0.0
C569 C 0.6133 0.84083 0.53023 0.0
C570 C 0.62182 0.82703 0.56792 0.0
C571 C 0.6004 0.83418 0.57534 0.0
C572 C 0.58556 0.84478 0.56012 0.0
C573 C 0.59215 0.84788 0.53782 0.0
C574 C 0.63797 0.81553 0.58366 0.0
C575 C 0.56254 0.85279 0.56733 0.0
H576 H 0.55226 0.79855 0.62411 0.0
H577 H 0.58003 0.86175 0.64488 0.0
H578 H 0.56558 0.79745 0.57264 0.0
H579 H 0.59325 0.78782 0.57947 0.0
H580 H 0.56926 0.77713 0.59465 0.0
H581 H 0.61267 0.87699 0.62674 0.0
H582 H 0.62539 0.86288 0.60307 0.0
H583 H 0.60058 0.87942 0.59919 0.0
H584 H 0.64446 0.82501 0.53968 0.0
H585 H 0.58066 0.85601 0.52632 0.0
H586 H 0.6309 0.79913 0.58896 0.0
H587 H 0.64036 0.82572 0.59906 0.0
H588 H 0.65462 0.81256 0.57576 0.0
H589 H 0.55229 0.83834 0.5731 0.0
H590 H 0.55335 0.86133 0.55355 0.0
H591 H 0.56406 0.86465 0.58161 0.0
C592 C 0.33418 0.12207 0.39301 0.0
C593 C 0.33362 0.13797 0.41035 0.0
C594 C 0.35254 0.12116 0.3782 0.0
C595 C 0.37047 0.13657 0.38088 0.0
C596 C 0.36837 0.15446 0.39638 0.0
C597 C 0.34998 0.15487 0.41103 0.0
C598 C 0.35394 0.1021 0.36158 0.0
C599 C 0.38684 0.17155 0.39946 0.0
C600 C 0.4298 0.11434 0.37803 0.0
C601 C 0.43779 0.12361 0.35793 0.0
C602 C 0.4077 0.11785 0.38513 0.0
C603 C 0.39308 0.13106 0.37186 0.0
C604 C 0.40072 0.13991 0.35117 0.0
C605 C 0.42306 0.13608 0.34442 0.0
C606 C 0.40022 0.10791 0.40727 0.0
C607 C 0.38564 0.15404 0.33656 0.0
H608 H 0.32146 0.10906 0.39231 0.0
H609 H 0.34935 0.1674 0.42424 0.0
H610 H 0.36168 0.10772 0.3456 0.0
H611 H 0.36469 0.08862 0.3686 0.0
H612 H 0.33712 0.09487 0.35799 0.0
H613 H 0.38093 0.1865 0.40893 0.0
H614 H 0.40087 0.1638 0.40895 0.0
H615 H 0.39356 0.17711 0.38302 0.0
H616 H 0.44094 0.10446 0.38846 0.0
H617 H 0.42908 0.14326 0.32883 0.0
H618 H 0.38489 0.0976 0.40485 0.0
H619 H 0.39595 0.12157 0.41921 0.0
H620 H 0.41336 0.09722 0.41503 0.0
H621 H 0.3686 0.14656 0.3354 0.0
H622 H 0.39255 0.15605 0.31936 0.0
H623 H 0.3838 0.17095 0.34415 0.0
C624 C 0.81714 0.36178 0.39698 0.0
C625 C 0.83404 0.34553 0.39864 0.0
C626 C 0.81922 0.37979 0.38207 0.0
C627 C 0.83881 0.38165 0.36872 0.0
C628 C 0.85467 0.36394 0.3685 0.0
C629 C 0.85205 0.34594 0.38349 0.0
C630 C 0.80167 0.39807 0.38253 0.0
C631 C 0.8756 0.36516 0.35426 0.0
C632 C 0.84143 0.43235 0.33007 0.0
C633 C 0.85164 0.44824 0.34418 0.0
C634 C 0.83789 0.41018 0.33736 0.0
C635 C 0.84477 0.40389 0.35919 0.0
C636 C 0.85594 0.41963 0.37308 0.0
C637 C 0.85918 0.44157 0.36543 0.0
C638 C 0.82599 0.39384 0.32208 0.0
C639 C 0.86377 0.41357 0.39643 0.0
H640 H 0.80301 0.36126 0.40848 0.0
H641 H 0.8651 0.33331 0.38464 0.0
H642 H 0.80824 0.41268 0.39206 0.0
H643 H 0.79775 0.40388 0.3653 0.0
H644 H 0.78587 0.39238 0.39068 0.0
H645 H 0.88352 0.3484 0.35222 0.0
H646 H 0.87184 0.37214 0.33743 0.0
H647 H 0.88794 0.37648 0.36244 0.0
H648 H 0.83563 0.43738 0.31359 0.0
H649 H 0.86737 0.45363 0.37632 0.0
H650 H 0.80855 0.39128 0.32815 0.0
H651 H 0.83444 0.37725 0.32227 0.0
H652 H 0.82526 0.40002 0.30451 0.0
H653 H 0.84905 0.40956 0.40715 0.0
H654 H 0.87335 0.42737 0.40453 0.0
H655 H 0.87458 0.39842 0.39586 0.0
C656 C 0.53336 0.86194 0.36317 0.0
C657 C 0.52744 0.85414 0.34178 0.0
C658 C 0.55505 0.85895 0.37161 0.0
C659 C 0.57134 0.84778 0.35837 0.0
C660 C 0.56582 0.84059 0.3364 0.0
C661 C 0.54386 0.84387 0.32833 0.0
C662 C 0.56023 0.86706 0.3951 0.0
C663 C 0.58276 0.82868 0.3218 0.0
C664 C 0.62815 0.85622 0.38497 0.0
C665 C 0.62809 0.83846 0.40037 0.0
C666 C 0.61082 0.8583 0.36911 0.0
C667 C 0.59331 0.84217 0.36874 0.0
C668 C 0.59486 0.82282 0.38239 0.0
C669 C 0.6122 0.82126 0.39815 0.0
C670 C 0.60997 0.87898 0.35456 0.0
C671 C 0.57679 0.80501 0.38228 0.0
H672 H 0.5209 0.87018 0.37358 0.0
H673 H 0.53943 0.83787 0.31173 0.0
H674 H 0.56404 0.85251 0.40606 0.0
H675 H 0.57527 0.87807 0.39495 0.0
H676 H 0.54604 0.87653 0.40266 0.0
H677 H 0.57727 0.82788 0.304 0.0
H678 H 0.59935 0.83715 0.32262 0.0
H679 H 0.58507 0.81128 0.32797 0.0
H680 H 0.64051 0.86949 0.38656 0.0
H681 H 0.61238 0.80732 0.40984 0.0
H682 H 0.59815 0.89127 0.36208 0.0
H683 H 0.60375 0.87486 0.3375 0.0
H684 H 0.62672 0.88709 0.35312 0.0
H685 H 0.56173 0.81145 0.39118 0.0
H686 H 0.58238 0.7894 0.39078 0.0
H687 H 0.57171 0.80084 0.36487 0.0
C688 C 0.12115 0.63522 0.3935 0.0
C689 C 0.13667 0.6364 0.41112 0.0
C690 C 0.12113 0.61677 0.37881 0.0
C691 C 0.1371 0.59942 0.38185 0.0
C692 C 0.15459 0.60221 0.39766 0.0
C693 C 0.15406 0.62063 0.41225 0.0
C694 C 0.10236 0.61458 0.36195 0.0
C695 C 0.17225 0.58438 0.40114 0.0
C696 C 0.1161 0.53968 0.37862 0.0
C697 C 0.12524 0.53214 0.35828 0.0
C698 C 0.11945 0.56168 0.38603 0.0
C699 C 0.13246 0.57662 0.37288 0.0
C700 C 0.14154 0.56933 0.35216 0.0
C701 C 0.13777 0.54711 0.34505 0.0
C702 C 0.10928 0.56879 0.4082 0.0
C703 C 0.1556 0.58476 0.33781 0.0
H704 H 0.10774 0.64748 0.3925 0.0
H705 H 0.16629 0.62175 0.42569 0.0
H706 H 0.10848 0.607 0.34608 0.0
H707 H 0.08917 0.60336 0.36887 0.0
H708 H 0.09457 0.63109 0.35819 0.0
H709 H 0.18695 0.59096 0.41056 0.0
H710 H 0.16489 0.57029 0.41086 0.0
H711 H 0.17815 0.57755 0.38485 0.0
H712 H 0.1062 0.52835 0.38886 0.0
H713 H 0.14488 0.54141 0.32929 0.0
H714 H 0.09858 0.58384 0.40583 0.0
H715 H 0.1228 0.57337 0.42017 0.0
H716 H 0.09889 0.55536 0.41591 0.0
H717 H 0.14726 0.60128 0.33585 0.0
H718 H 0.15885 0.57758 0.3209 0.0
H719 H 0.17198 0.58779 0.34614 0.0
C720 C 0.35463 0.8133 0.55981 0.0
C721 C 0.33806 0.82996 0.55898 0.0
C722 C 0.37213 0.81451 0.57544 0.0
C723 C 0.37316 0.83299 0.59034 0.0
C724 C 0.35506 0.84837 0.59131 0.0
C725 C 0.33758 0.84662 0.5756 0.0
C726 C 0.39082 0.79744 0.57417 0.0
C727 C 0.35539 0.86813 0.60715 0.0
C728 C 0.42288 0.8349 0.63043 0.0
C729 C 0.43867 0.84666 0.61745 0.0
C730 C 0.40108 0.83085 0.62227 0.0
C731 C 0.39505 0.83886 0.60074 0.0
C732 C 0.41068 0.8515 0.58802 0.0
C733 C 0.43225 0.85516 0.59649 0.0
C734 C 0.38488 0.8173 0.63627 0.0
C735 C 0.40489 0.86062 0.56506 0.0
H736 H 0.3548 0.80017 0.54719 0.0
H737 H 0.32469 0.85945 0.57514 0.0
H738 H 0.40545 0.80495 0.56538 0.0
H739 H 0.39642 0.79251 0.59121 0.0
H740 H 0.38562 0.78213 0.56487 0.0
H741 H 0.33838 0.87549 0.60934 0.0
H742 H 0.36202 0.86323 0.62383 0.0
H743 H 0.36663 0.88131 0.60027 0.0
H744 H 0.42774 0.82832 0.64667 0.0
H745 H 0.44423 0.86454 0.58649 0.0
H746 H 0.38323 0.80023 0.629 0.0
H747 H 0.36794 0.82504 0.63619 0.0
H748 H 0.39065 0.81564 0.65391 0.0
H749 H 0.40159 0.84652 0.55333 0.0
H750 H 0.41856 0.87113 0.55793 0.0
H751 H 0.38938 0.87089 0.56597 0.0
C752 C 0.13187 0.42371 0.61858 0.0
C753 C 0.12325 0.44175 0.60614 0.0
C754 C 0.13309 0.40205 0.60925 0.0
C755 C 0.12528 0.39839 0.58711 0.0
C756 C 0.11664 0.41655 0.57451 0.0
C757 C 0.11584 0.43796 0.58412 0.0
C758 C 0.14263 0.38309 0.62305 0.0
C759 C 0.108 0.41335 0.55087 0.0
C760 C 0.14222 0.35079 0.54879 0.0
C761 C 0.12264 0.33769 0.54879 0.0
C762 C 0.14413 0.36967 0.56273 0.0
C763 C 0.1259 0.3757 0.57675 0.0
C764 C 0.10679 0.3616 0.57802 0.0
C765 C 0.10544 0.34265 0.56408 0.0
C766 C 0.16495 0.38408 0.56115 0.0
C767 C 0.08697 0.36749 0.59271 0.0
H768 H 0.13767 0.42651 0.63559 0.0
H769 H 0.10906 0.45172 0.57437 0.0
H770 H 0.12972 0.36988 0.62544 0.0
H771 H 0.15694 0.37525 0.61404 0.0
H772 H 0.1485 0.38882 0.63979 0.0
H773 H 0.10159 0.4292 0.54345 0.0
H774 H 0.1216 0.4068 0.53995 0.0
H775 H 0.09423 0.40079 0.55077 0.0
H776 H 0.1557 0.34686 0.53719 0.0
H777 H 0.09031 0.33251 0.56423 0.0
H778 H 0.17073 0.38917 0.5781 0.0
H779 H 0.16101 0.39962 0.5517 0.0
H780 H 0.1789 0.37528 0.55242 0.0
H781 H 0.09262 0.37246 0.60973 0.0
H782 H 0.07493 0.35331 0.59427 0.0
H783 H 0.07797 0.38204 0.58537 0.0
C784 C 0.53348 0.12327 0.59471 0.0
C785 C 0.52847 0.12757 0.61732 0.0
C786 C 0.55561 0.12372 0.58683 0.0
C787 C 0.5733 0.12886 0.60184 0.0
C788 C 0.56842 0.13381 0.62457 0.0
C789 C 0.54602 0.13299 0.6321 0.0
C790 C 0.56005 0.11832 0.56243 0.0
C791 C 0.58685 0.13965 0.64093 0.0
C792 C 0.62804 0.10688 0.57859 0.0
C793 C 0.63492 0.12522 0.56559 0.0
C794 C 0.60894 0.10839 0.59235 0.0
C795 C 0.59676 0.1288 0.59327 0.0
C796 C 0.60517 0.14801 0.58212 0.0
C797 C 0.62407 0.14593 0.56823 0.0
C798 C 0.60053 0.08751 0.60397 0.0
C799 C 0.59299 0.1702 0.58304 0.0
H800 H 0.52011 0.11906 0.58312 0.0
H801 H 0.5423 0.13635 0.64959 0.0
H802 H 0.56852 0.13269 0.55415 0.0
H803 H 0.57145 0.10364 0.56112 0.0
H804 H 0.5444 0.11447 0.55303 0.0
H805 H 0.58013 0.14465 0.6576 0.0
H806 H 0.59809 0.12499 0.6432 0.0
H807 H 0.59727 0.15357 0.63424 0.0
H808 H 0.63644 0.09086 0.57663 0.0
H809 H 0.62957 0.16025 0.55843 0.0
H810 H 0.58596 0.08067 0.59457 0.0
H811 H 0.59472 0.0914 0.62123 0.0
H812 H 0.61366 0.0743 0.60485 0.0
H813 H 0.57802 0.16946 0.57198 0.0
H814 H 0.60383 0.18427 0.57732 0.0
H815 H 0.58704 0.17383 0.60031 0.0
C816 C 0.85679 0.53358 0.59787 0.0
C817 C 0.84977 0.527 0.61935 0.0
C818 C 0.85375 0.55559 0.59034 0.0
C819 C 0.84331 0.57151 0.60459 0.0
C820 C 0.83681 0.56526 0.62657 0.0
C821 C 0.84015 0.54302 0.63373 0.0
C822 C 0.86112 0.56157 0.5668 0.0
C823 C 0.82563 0.58179 0.64219 0.0
C824 C 0.85197 0.62945 0.58064 0.0
C825 C 0.83371 0.63054 0.56587 0.0
C826 C 0.85428 0.61123 0.59541 0.0
C827 C 0.83785 0.59401 0.59538 0.0
C828 C 0.81809 0.5966 0.58248 0.0
C829 C 0.81632 0.6148 0.56775 0.0
C830 C 0.87546 0.60922 0.60914 0.0
C831 C 0.79995 0.57887 0.58222 0.0
H832 H 0.8645 0.52142 0.58674 0.0
H833 H 0.83474 0.53808 0.65038 0.0
H834 H 0.84625 0.56607 0.55653 0.0
H835 H 0.87239 0.5764 0.56715 0.0
H836 H 0.87007 0.54756 0.55835 0.0
H837 H 0.82474 0.57538 0.65968 0.0
H838 H 0.83475 0.59803 0.64219 0.0
H839 H 0.80829 0.58513 0.6363 0.0
H840 H 0.86542 0.64165 0.57927 0.0
H841 H 0.80203 0.61584 0.55653 0.0
H842 H 0.88723 0.59756 0.60059 0.0
H843 H 0.87182 0.60223 0.626 0.0
H844 H 0.884 0.62569 0.61112 0.0
H845 H 0.80582 0.56422 0.5723 0.0
H846 H 0.78416 0.58517 0.57458 0.0
H847 H 0.79627 0.57291 0.59946 0.0
C848 C 0.31922 0.41478 0.14744 0.0
C849 C 0.32475 0.42894 0.12946 0.0
C850 C 0.33185 0.3953 0.15177 0.0
C851 C 0.35041 0.39006 0.13784 0.0
C852 C 0.35566 0.40404 0.11936 0.0
C853 C 0.34277 0.42324 0.11541 0.0
C854 C 0.32572 0.38069 0.17151 0.0
C855 C 0.37533 0.3991 0.10406 0.0
C856 C 0.40257 0.35925 0.15565 0.0
C857 C 0.4008 0.33948 0.14302 0.0
C858 C 0.38519 0.37506 0.15588 0.0
C859 C 0.36559 0.371 0.14309 0.0
C860 C 0.36281 0.3501 0.13207 0.0
C861 C 0.38051 0.3345 0.13219 0.0
C862 C 0.38878 0.39703 0.16803 0.0
C863 C 0.34203 0.34503 0.1185 0.0
H864 H 0.30523 0.41904 0.15828 0.0
H865 H 0.34708 0.434 0.10139 0.0
H866 H 0.32477 0.36282 0.16632 0.0
H867 H 0.33896 0.38197 0.18454 0.0
H868 H 0.30941 0.38561 0.17914 0.0
H869 H 0.37656 0.41119 0.08993 0.0
H870 H 0.39121 0.39981 0.11377 0.0
H871 H 0.37383 0.38192 0.09703 0.0
H872 H 0.4181 0.36299 0.16439 0.0
H873 H 0.37897 0.31913 0.12255 0.0
H874 H 0.37348 0.40195 0.17745 0.0
H875 H 0.3923 0.41044 0.1556 0.0
H876 H 0.40312 0.39618 0.17992 0.0
H877 H 0.3267 0.35068 0.12745 0.0
H878 H 0.34047 0.32682 0.11475 0.0
H879 H 0.34287 0.35426 0.10236 0.0
C880 C 0.40073 0.6209 0.81354 0.0
C881 C 0.40163 0.63582 0.83168 0.0
C882 C 0.38618 0.60244 0.81386 0.0
C883 C 0.37251 0.59875 0.83295 0.0
C884 C 0.37117 0.61544 0.84984 0.0
C885 C 0.3858 0.63394 0.84899 0.0
C886 C 0.38771 0.58539 0.79517 0.0
C887 C 0.35643 0.61239 0.87021 0.0
C888 C 0.33784 0.54496 0.83347 0.0
C889 C 0.35306 0.52998 0.84342 0.0
C890 C 0.34345 0.56774 0.83057 0.0
C891 C 0.36472 0.57556 0.83778 0.0
C892 C 0.37976 0.56062 0.84852 0.0
C893 C 0.37375 0.5381 0.85116 0.0
C894 C 0.32696 0.58314 0.81911 0.0
C895 C 0.40259 0.56823 0.85667 0.0
H896 H 0.41275 0.62259 0.79995 0.0
H897 H 0.38634 0.64557 0.86298 0.0
H898 H 0.39816 0.57103 0.80079 0.0
H899 H 0.37085 0.57877 0.79083 0.0
H900 H 0.3955 0.59261 0.77984 0.0
H901 H 0.35327 0.6286 0.87889 0.0
H902 H 0.34009 0.60471 0.86558 0.0
H903 H 0.36488 0.60093 0.8822 0.0
H904 H 0.32178 0.53883 0.8275 0.0
H905 H 0.38551 0.52676 0.85914 0.0
H906 H 0.33224 0.58569 0.80144 0.0
H907 H 0.32656 0.59985 0.82732 0.0
H908 H 0.30971 0.57602 0.81908 0.0
H909 H 0.41294 0.57383 0.84223 0.0
H910 H 0.41183 0.55472 0.86557 0.0
H911 H 0.40079 0.58272 0.86824 0.0
C912 C 0.44187 0.36741 0.8537 0.0
C913 C 0.44964 0.34704 0.84483 0.0
C914 C 0.42032 0.37532 0.8489 0.0
C915 C 0.40612 0.3627 0.83461 0.0
C916 C 0.41363 0.34192 0.82581 0.0
C917 C 0.43534 0.33425 0.83113 0.0
C918 C 0.41292 0.39747 0.85889 0.0
C919 C 0.39903 0.32816 0.81036 0.0
C920 C 0.34692 0.38392 0.84122 0.0
C921 C 0.3472 0.40172 0.82587 0.0
C922 C 0.36524 0.36916 0.84273 0.0
C923 C 0.38396 0.37226 0.82837 0.0
C924 C 0.38293 0.38841 0.81101 0.0
C925 C 0.36461 0.40312 0.8101 0.0
C926 C 0.36562 0.35206 0.86138 0.0
C927 C 0.40228 0.39194 0.795 0.0
H928 H 0.45268 0.37727 0.86453 0.0
H929 H 0.44127 0.31849 0.82422 0.0
H930 H 0.40985 0.4098 0.8453 0.0
H931 H 0.39692 0.39529 0.86821 0.0
H932 H 0.42561 0.40463 0.87053 0.0
H933 H 0.40619 0.31124 0.80715 0.0
H934 H 0.38192 0.32621 0.8175 0.0
H935 H 0.39725 0.33698 0.79407 0.0
H936 H 0.3334 0.38272 0.85337 0.0
H937 H 0.36465 0.41669 0.79798 0.0
H938 H 0.3759 0.35862 0.87547 0.0
H939 H 0.37337 0.33612 0.85567 0.0
H940 H 0.34846 0.34848 0.86783 0.0
H941 H 0.41587 0.40124 0.80371 0.0
H942 H 0.39715 0.40178 0.78003 0.0
H943 H 0.40929 0.37564 0.78936 0.0
C944 C 0.60016 0.42968 0.85189 0.0
C945 C 0.62217 0.43701 0.84786 0.0
C946 C 0.59466 0.40687 0.85139 0.0
C947 C 0.61158 0.39084 0.84663 0.0
C948 C 0.63389 0.39801 0.84265 0.0
C949 C 0.63895 0.42107 0.84332 0.0
C950 C 0.57059 0.39998 0.85576 0.0
C951 C 0.65229 0.38139 0.83744 0.0
C952 C 0.58961 0.33451 0.86467 0.0
C953 C 0.5776 0.32856 0.84538 0.0
C954 C 0.60338 0.35367 0.86471 0.0
C955 C 0.60512 0.36681 0.84496 0.0
C956 C 0.59557 0.3589 0.82472 0.0
C957 C 0.58171 0.33991 0.82523 0.0
C958 C 0.6135 0.3614 0.8866 0.0
C959 C 0.59735 0.37209 0.80317 0.0
H960 H 0.58708 0.44181 0.85552 0.0
H961 H 0.65603 0.42659 0.84023 0.0
H962 H 0.56361 0.39147 0.84074 0.0
H963 H 0.56984 0.38787 0.86988 0.0
H964 H 0.55965 0.4145 0.85991 0.0
H965 H 0.66907 0.3895 0.83646 0.0
H966 H 0.6528 0.36807 0.85042 0.0
H967 H 0.64879 0.37304 0.82116 0.0
H968 H 0.58638 0.32574 0.88028 0.0
H969 H 0.57249 0.33514 0.81027 0.0
H970 H 0.60245 0.37432 0.89423 0.0
H971 H 0.63025 0.36911 0.8839 0.0
H972 H 0.61518 0.34731 0.89869 0.0
H973 H 0.58528 0.38627 0.80368 0.0
H974 H 0.59335 0.36155 0.78831 0.0
H975 H 0.61442 0.37923 0.80106 0.0
C976 C 0.61797 0.56527 0.81213 0.0
C977 C 0.63337 0.5653 0.82988 0.0
C978 C 0.59955 0.57986 0.81217 0.0
C979 C 0.5963 0.59444 0.83066 0.0
C980 C 0.61321 0.59634 0.84726 0.0
C981 C 0.63173 0.58177 0.8466 0.0
C982 C 0.58223 0.57771 0.79381 0.0
C983 C 0.61046 0.61176 0.86717 0.0
C984 C 0.54435 0.63175 0.83113 0.0
C985 C 0.5288 0.61772 0.84197 0.0
C986 C 0.56662 0.62469 0.82755 0.0
C987 C 0.57341 0.60326 0.8352 0.0
C988 C 0.55789 0.58933 0.84664 0.0
C989 C 0.53581 0.59667 0.84975 0.0
C990 C 0.58266 0.63987 0.81511 0.0
C991 C 0.56446 0.56641 0.85534 0.0
H992 H 0.61944 0.55271 0.79903 0.0
H993 H 0.64367 0.58188 0.86032 0.0
H994 H 0.56788 0.56756 0.80002 0.0
H995 H 0.57565 0.59441 0.78892 0.0
H996 H 0.58922 0.5693 0.77869 0.0
H997 H 0.62672 0.61487 0.87576 0.0
H998 H 0.60313 0.62808 0.86206 0.0
H999 H 0.59877 0.60392 0.87941 0.0
H1000 H 0.53902 0.64804 0.82507 0.0
H1001 H 0.524 0.58584 0.85838 0.0
H1002 H 0.58633 0.6326 0.79836 0.0
H1003 H 0.59885 0.64121 0.8242 0.0
H1004 H 0.57567 0.65699 0.81273 0.0
H1005 H 0.56924 0.55537 0.84112 0.0
H1006 H 0.55065 0.55816 0.8648 0.0
H1007 H 0.57927 0.56783 0.86654 0.0
C1008 C 0.63412 0.54752 0.13313 0.0
C1009 C 0.61883 0.53197 0.12415 0.0
C1010 C 0.62792 0.57006 0.13651 0.0
C1011 C 0.60595 0.57706 0.13075 0.0
C1012 C 0.59066 0.56149 0.12126 0.0
C1013 C 0.59726 0.5392 0.11816 0.0
C1014 C 0.64462 0.5861 0.14678 0.0
C1015 C 0.56708 0.56825 0.11466 0.0
C1016 C 0.57 0.62212 0.15531 0.0
C1017 C 0.5677 0.63621 0.13667 0.0
C1018 C 0.58521 0.60421 0.15498 0.0
C1019 C 0.59799 0.60022 0.13535 0.0
C1020 C 0.59803 0.6163 0.11786 0.0
C1021 C 0.58285 0.6343 0.11877 0.0
C1022 C 0.5852 0.58788 0.17432 0.0
C1023 C 0.61176 0.61289 0.09684 0.0
H1024 H 0.65083 0.54205 0.1378 0.0
H1025 H 0.5854 0.52739 0.11101 0.0
H1026 H 0.64416 0.60264 0.13825 0.0
H1027 H 0.64021 0.58892 0.16466 0.0
H1028 H 0.66203 0.57943 0.14603 0.0
H1029 H 0.55762 0.55428 0.1067 0.0
H1030 H 0.55763 0.57386 0.12971 0.0
H1031 H 0.56762 0.58253 0.10273 0.0
H1032 H 0.55847 0.62384 0.16931 0.0
H1033 H 0.58119 0.64529 0.10437 0.0
H1034 H 0.6024 0.58168 0.17776 0.0
H1035 H 0.5746 0.57317 0.16994 0.0
H1036 H 0.57831 0.5956 0.18985 0.0
H1037 H 0.62853 0.60586 0.10084 0.0
H1038 H 0.61398 0.62884 0.08745 0.0
H1039 H 0.603 0.60074 0.08574 0.0
C1040 C 0.34286 0.56684 0.10409 0.0
C1041 C 0.3388 0.55026 0.12026 0.0
C1042 C 0.362 0.58056 0.10542 0.0
C1043 C 0.37713 0.5778 0.12353 0.0
C1044 C 0.37205 0.56237 0.14086 0.0
C1045 C 0.35304 0.54862 0.1389 0.0
C1046 C 0.36693 0.59667 0.0865 0.0
C1047 C 0.38753 0.55922 0.16066 0.0
C1048 C 0.43904 0.58555 0.11158 0.0
C1049 C 0.44334 0.60684 0.12068 0.0
C1050 C 0.41752 0.57616 0.11223 0.0
C1051 C 0.3998 0.58819 0.12253 0.0
C1052 C 0.40396 0.60964 0.1319 0.0
C1053 C 0.42571 0.61883 0.13071 0.0
C1054 C 0.41377 0.55331 0.10181 0.0
C1055 C 0.38551 0.62275 0.1433 0.0
H1056 H 0.33185 0.56819 0.08968 0.0
H1057 H 0.34977 0.536 0.1516 0.0
H1058 H 0.3723 0.61321 0.09315 0.0
H1059 H 0.38095 0.58999 0.0762 0.0
H1060 H 0.35214 0.59915 0.07542 0.0
H1061 H 0.37946 0.54939 0.1743 0.0
H1062 H 0.40286 0.55017 0.15516 0.0
H1063 H 0.39291 0.57569 0.1675 0.0
H1064 H 0.4525 0.57623 0.10361 0.0
H1065 H 0.42894 0.63527 0.13781 0.0
H1066 H 0.40042 0.55431 0.08887 0.0
H1067 H 0.40802 0.54128 0.1148 0.0
H1068 H 0.42922 0.5465 0.09386 0.0
H1069 H 0.37148 0.62566 0.13143 0.0
H1070 H 0.39147 0.63922 0.14971 0.0
H1071 H 0.37864 0.61292 0.15756 0.0
C1072 C 0.61771 0.40406 0.15278 0.0
C1073 C 0.63325 0.40446 0.13513 0.0
C1074 C 0.59918 0.3896 0.15221 0.0
C1075 C 0.59607 0.37547 0.13336 0.0
C1076 C 0.61315 0.37388 0.11687 0.0
C1077 C 0.63171 0.38842 0.118 0.0
C1078 C 0.58162 0.3915 0.17041 0.0
C1079 C 0.61061 0.35879 0.09669 0.0
C1080 C 0.54375 0.33873 0.13334 0.0
C1081 C 0.52824 0.35296 0.12274 0.0
C1082 C 0.56622 0.34539 0.13634 0.0
C1083 C 0.57321 0.36671 0.12855 0.0
C1084 C 0.55778 0.38079 0.11723 0.0
C1085 C 0.53553 0.37376 0.11452 0.0
C1086 C 0.5822 0.32996 0.14847 0.0
C1087 C 0.56456 0.40363 0.10849 0.0
H1088 H 0.61909 0.41629 0.1662 0.0
H1089 H 0.64376 0.38863 0.10435 0.0
H1090 H 0.56727 0.40155 0.1641 0.0
H1091 H 0.57509 0.37471 0.17512 0.0
H1092 H 0.58834 0.39985 0.18567 0.0
H1093 H 0.62699 0.35573 0.08828 0.0
H1094 H 0.60309 0.34243 0.10146 0.0
H1095 H 0.59918 0.36687 0.08442 0.0
H1096 H 0.53825 0.32259 0.13969 0.0
H1097 H 0.52376 0.38476 0.10609 0.0
H1098 H 0.58564 0.33675 0.16546 0.0
H1099 H 0.5985 0.32895 0.13948 0.0
H1100 H 0.57524 0.31275 0.1503 0.0
H1101 H 0.56951 0.41462 0.1227 0.0
H1102 H 0.5508 0.41201 0.09912 0.0
H1103 H 0.57932 0.4021 0.09721 0.0
C1104 C 0.03041 0.31441 0.46866 0.0
C1105 C 0.03755 0.30134 0.48681 0.0
C1106 C 0.00751 0.31775 0.4645 0.0
C1107 C -0.00853 0.30848 0.47939 0.0
C1108 C -0.00136 0.29556 0.498 0.0
C1109 C 0.02168 0.29175 0.50124 0.0
C1110 C 0.00051 0.33099 0.44406 0.0
C1111 C 0.98202 0.28608 0.51464 0.0
C1112 C 0.93452 0.33684 0.47893 0.0
C1113 C 0.92159 0.3213 0.46694 0.0
C1114 C 0.95715 0.33253 0.48371 0.0
C1115 C 0.9672 0.3126 0.47554 0.0
C1116 C 0.95424 0.297 0.46313 0.0
C1117 C 0.9314 0.30135 0.45934 0.0
C1118 C 0.97026 0.34922 0.49762 0.0
C1119 C 0.96459 0.27596 0.45349 0.0
H1120 H 0.04277 0.32158 0.45735 0.0
H1121 H 0.02732 0.28173 0.51532 0.0
H1122 H -0.01119 0.32088 0.43365 0.0
H1123 H -0.00859 0.34637 0.44927 0.0
H1124 H 0.01508 0.336 0.43353 0.0
H1125 H -0.0096 0.27699 0.52858 0.0
H1126 H 0.97171 0.29984 0.52184 0.0
H1127 H 0.97035 0.27437 0.50608 0.0
H1128 H 0.92677 0.35213 0.48506 0.0
H1129 H 0.92132 0.2894 0.45001 0.0
H1130 H 0.98409 0.35648 0.48748 0.0
H1131 H 0.97802 0.34064 0.5122 0.0
H1132 H 0.95955 0.36315 0.50389 0.0
H1133 H 0.97872 0.28047 0.44219 0.0
H1134 H 0.95227 0.26576 0.44388 0.0
H1135 H 0.9716 0.26546 0.46714 0.0
C1136 C 0.69049 0.0297 0.48823 0.0
C1137 C 0.67299 0.04089 0.49928 0.0
C1138 C 0.68854 0.0069 0.48261 0.0
C1139 C 0.66893 -0.00501 0.48886 0.0
C1140 C 0.65169 0.00602 0.50098 0.0
C1141 C 0.65377 0.02897 0.50571 0.0
C1142 C 0.70699 -0.00415 0.46916 0.0
C1143 C 0.63084 -0.00631 0.50855 0.0
C1144 C 0.64951 0.94364 0.45665 0.0
C1145 C 0.65731 0.92624 0.47034 0.0
C1146 C 0.65401 0.96612 0.46202 0.0
C1147 C 0.66592 0.97124 0.48195 0.0
C1148 C 0.67403 0.95368 0.49571 0.0
C1149 C 0.66991 0.93134 0.48954 0.0
C1150 C 0.64566 -0.01561 0.44659 0.0
C1151 C 0.68621 0.9585 0.51741 0.0
H1152 H 0.70526 0.03902 0.48305 0.0
H1153 H 0.64029 0.03766 0.51435 0.0
H1154 H 0.71307 0.98058 0.47786 0.0
H1155 H 0.70028 -0.00954 0.45264 0.0
H1156 H 0.72147 0.00726 0.46628 0.0
H1157 H 0.61998 0.00421 0.51949 0.0
H1158 H 0.6209 -0.01159 0.49372 0.0
H1159 H 0.63551 0.97827 0.51785 0.0
H1160 H 0.63987 0.93966 0.44174 0.0
H1161 H 0.67573 0.91786 0.50027 0.0
H1162 H 0.6596 -0.00402 0.44223 0.0
H1163 H 0.63257 -0.00557 0.45523 0.0
H1164 H 0.63842 0.97754 0.43083 0.0
H1165 H 0.70093 0.96948 0.51428 0.0
H1166 H 0.69205 0.94294 0.52582 0.0
H1167 H 0.67487 0.96765 0.52904 0.0
C1168 C 0.92825 0.67594 0.48376 0.0
C1169 C 0.92209 0.65931 0.49925 0.0
C1170 C 0.95081 0.67905 0.47763 0.0
C1171 C 0.96754 0.66542 0.48752 0.0
C1172 C 0.96152 0.64946 0.50406 0.0
C1173 C 0.93885 0.64648 0.5096 0.0
C1174 C 0.95659 0.69609 0.4598 0.0
C1175 C 0.97895 0.63488 0.51529 0.0
C1176 C 0.02143 0.65003 0.45765 0.0
C1177 C 0.03717 0.66329 0.46907 0.0
C1178 C -0.00153 0.65158 0.46257 0.0
C1179 C -0.00886 0.66652 0.47955 0.0
C1180 C 0.00678 0.68083 0.49027 0.0
C1181 C 0.02964 0.67916 0.48478 0.0
C1182 C 0.98222 0.63634 0.45045 0.0
C1183 C -0.0004 0.69687 0.50855 0.0
H1184 H 0.91534 0.68585 0.47563 0.0
H1185 H 0.93419 0.63375 0.52174 0.0
H1186 H 0.97059 0.707 0.46545 0.0
H1187 H 0.96232 0.68727 0.44442 0.0
H1188 H 0.94201 0.70684 0.45539 0.0
H1189 H 0.97174 0.62464 0.5291 0.0
H1190 H -0.01347 0.62337 0.50274 0.0
H1191 H -0.00731 0.6454 0.5222 0.0
H1192 H 0.02714 0.63791 0.44532 0.0
H1193 H 0.04172 0.68943 0.49371 0.0
H1194 H 0.96766 0.64608 0.44413 0.0
H1195 H 0.97562 0.62356 0.46228 0.0
H1196 H -0.00978 0.62752 0.43609 0.0
H1197 H -0.01525 0.70672 0.50319 0.0
H1198 H 0.01325 0.70866 0.5133 0.0
H1199 H -0.00537 0.68718 0.52367 0.0
C1200 C 0.29845 0.03096 0.48292 0.0
C1201 C 0.31445 0.03942 0.46781 0.0
C1202 C 0.29733 0.00796 0.48769 0.0
C1203 C 0.31231 -0.00692 0.47681 0.0
C1204 C 0.32765 0.00136 0.46065 0.0
C1205 C 0.32867 0.02449 0.45647 0.0
C1206 C 0.28091 -0.00025 0.5052 0.0
C1207 C 0.34359 -0.0141 0.44838 0.0
C1208 C 0.33003 0.93912 0.50523 0.0
C1209 C 0.31689 0.92321 0.49394 0.0
C1210 C 0.32814 0.96203 0.5003 0.0
C1211 C 0.31303 0.9691 0.48339 0.0
C1212 C 0.29935 0.95318 0.47228 0.0
C1213 C 0.3013 0.9304 0.47784 0.0
C1214 C 0.34272 0.97861 0.51279 0.0
C1215 C 0.28328 0.96011 0.45397 0.0
H1216 H 0.28746 0.04243 0.49182 0.0
H1217 H 0.34093 0.03092 0.44464 0.0
H1218 H 0.27082 -0.01442 0.49854 0.0
H1219 H 0.29027 -0.0066 0.51998 0.0
H1220 H 0.2693 0.0132 0.51088 0.0
H1221 H 0.35303 -0.0053 0.43491 0.0
H1222 H 0.35584 0.97873 0.46041 0.0
H1223 H 0.33423 0.97167 0.44082 0.0
H1224 H 0.342 0.93364 0.51778 0.0
H1225 H 0.29121 0.91814 0.46894 0.0
H1226 H 0.3322 -0.00791 0.5202 0.0
H1227 H 0.35463 -0.01329 0.50097 0.0
H1228 H 0.35252 0.97054 0.52643 0.0
H1229 H 0.27183 0.97345 0.46011 0.0
H1230 H 0.27301 0.94581 0.44777 0.0
H1231 H 0.29285 0.96719 0.43964 0.0
C1232 C 0.48077 0.94007 0.28235 0.0
C1233 C 0.46389 0.93336 0.29739 0.0
C1234 C 0.48806 0.96247 0.28158 0.0
C1235 C 0.47804 0.97847 0.296 0.0
C1236 C 0.45982 0.97211 0.30991 0.0
C1237 C 0.45304 0.9496 0.31052 0.0
C1238 C 0.50752 0.96862 0.26652 0.0
C1239 C 0.44841 -0.01121 0.32524 0.0
C1240 C 0.51093 0.02697 0.32044 0.0
C1241 C 0.50208 0.04524 0.30859 0.0
C1242 C 0.50418 0.00497 0.31556 0.0
C1243 C 0.48801 0.00118 0.29855 0.0
C1244 C 0.47999 0.0194 0.28564 0.0
C1245 C 0.48722 0.04124 0.29074 0.0
C1246 C 0.51343 -0.01408 0.32946 0.0
C1247 C 0.46274 0.016 0.2674 0.0
H1248 H 0.48925 0.92761 0.27214 0.0
H1249 H 0.43982 0.94456 0.32198 0.0
H1250 H 0.50408 -0.01549 0.25746 0.0
H1251 H 0.52274 0.97134 0.2769 0.0
H1252 H 0.51121 0.95525 0.25405 0.0
H1253 H 0.43302 0.98175 0.33312 0.0
H1254 H 0.46017 -0.00613 0.33876 0.0
H1255 H 0.44378 0.00416 0.31582 0.0
H1256 H 0.5226 0.02991 0.33409 0.0
H1257 H 0.48029 0.05528 0.28149 0.0
H1258 H 0.51957 0.97223 0.31842 0.0
H1259 H 0.49989 0.97885 0.34014 0.0
H1260 H 0.52742 -0.0086 0.3405 0.0
H1261 H 0.46754 0.0018 0.25635 0.0
H1262 H 0.46055 0.03127 0.25694 0.0
H1263 H 0.44632 0.01174 0.27512 0.0
C1264 C 0.93734 0.49825 0.28578 0.0
C1265 C 0.9306 0.51409 0.30188 0.0
C1266 C 0.95973 0.49101 0.28456 0.0
C1267 C 0.9757 0.50008 0.29961 0.0
C1268 C 0.96935 0.51737 0.31464 0.0
C1269 C 0.94682 0.52408 0.31568 0.0
C1270 C 0.96587 0.47252 0.26834 0.0
C1271 C -0.01397 0.52777 0.33064 0.0
C1272 C 0.02378 0.46502 0.32159 0.0
C1273 C 0.04211 0.47413 0.30998 0.0
C1274 C 0.0019 0.47257 0.31748 0.0
C1275 C -0.00168 0.48984 0.30158 0.0
C1276 C 0.0166 0.49835 0.289 0.0
C1277 C 0.03832 0.49028 0.29326 0.0
C1278 C 0.98274 0.46276 0.33092 0.0
C1279 C 0.01342 0.51684 0.27199 0.0
H1280 H 0.9249 0.49044 0.27502 0.0
H1281 H 0.94176 0.53653 0.32797 0.0
H1282 H 0.98176 0.47651 0.25948 0.0
H1283 H 0.96857 0.4567 0.27777 0.0
H1284 H 0.95249 0.46959 0.25569 0.0
H1285 H 0.97906 0.54273 0.33934 0.0
H1286 H -0.00909 0.51524 0.34351 0.0
H1287 H 0.00152 0.53279 0.32158 0.0
H1288 H 0.0266 0.45239 0.33436 0.0
H1289 H 0.05243 0.49744 0.28426 0.0
H1290 H 0.96897 0.45736 0.3196 0.0
H1291 H 0.9758 0.47575 0.34234 0.0
H1292 H -0.01193 0.44814 0.34118 0.0
H1293 H -0.00075 0.51288 0.26059 0.0
H1294 H 0.02877 0.51969 0.26176 0.0
H1295 H 0.00918 0.53269 0.28082 0.0
C1296 C 0.51329 0.94467 0.64667 0.0
C1297 C 0.50256 0.92856 0.66005 0.0
C1298 C 0.50767 0.96745 0.64837 0.0
C1299 C 0.4907 0.9742 0.66361 0.0
C1300 C 0.4805 0.95817 0.67786 0.0
C1301 C 0.48667 0.93553 0.67601 0.0
C1302 C 0.51921 -0.01585 0.63318 0.0
C1303 C 0.46223 0.96474 0.69419 0.0
C1304 C 0.48587 0.03655 0.6756 0.0
C1305 C 0.46974 0.04311 0.65975 0.0
C1306 C 0.49252 0.01405 0.67748 0.0
C1307 C 0.48256 -0.00226 0.66338 0.0
C1308 C 0.46553 0.0041 0.64808 0.0
C1309 C 0.45944 0.02674 0.64634 0.0
C1310 C 0.51085 0.00789 0.69384 0.0
C1311 C 0.45426 -0.01291 0.63302 0.0
H1312 H 0.52572 0.93942 0.63444 0.0
H1313 H 0.47825 0.92317 0.68638 0.0
H1314 H 0.50695 -0.00908 0.62092 0.0
H1315 H 0.52568 -0.00146 0.64309 0.0
H1316 H 0.5334 0.97653 0.62375 0.0
H1317 H 0.45742 0.95067 0.70544 0.0
H1318 H 0.46771 0.97915 0.70464 0.0
H1319 H 0.44712 0.97016 0.68476 0.0
H1320 H 0.49399 0.04913 0.68596 0.0
H1321 H 0.44684 0.03168 0.63419 0.0
H1322 H 0.52592 0.00219 0.68447 0.0
H1323 H 0.50539 -0.00623 0.70466 0.0
H1324 H 0.51572 0.02224 0.70472 0.0
H1325 H 0.46673 0.98003 0.6211 0.0
H1326 H 0.44025 -0.0055 0.62322 0.0
H1327 H 0.44759 0.97294 0.64313 0.0
C1328 C 0.93682 0.4766 0.67787 0.0
C1329 C 0.92992 0.46167 0.66098 0.0
C1330 C 0.95938 0.48317 0.67974 0.0
C1331 C 0.97538 0.4744 0.66453 0.0
C1332 C 0.96875 0.45825 0.64838 0.0
C1333 C 0.94607 0.45217 0.64673 0.0
C1334 C 0.96581 0.50047 0.69712 0.0
C1335 C -0.01457 0.44823 0.63211 0.0
C1336 C 0.02641 0.50822 0.64734 0.0
C1337 C 0.04359 0.49742 0.65923 0.0
C1338 C 0.00398 0.5015 0.64971 0.0
C1339 C -0.00137 0.48338 0.66413 0.0
C1340 C 0.01574 0.47304 0.67692 0.0
C1341 C 0.03803 0.48028 0.67441 0.0
C1342 C -0.01389 0.51319 0.63607 0.0
C1343 C 0.01067 0.45362 0.69238 0.0
H1344 H 0.92445 0.48405 0.68895 0.0
H1345 H 0.94089 0.44048 0.63378 0.0
H1346 H 0.98084 0.49495 0.7066 0.0
H1347 H 0.97021 0.51645 0.68863 0.0
H1348 H 0.95197 0.5038 0.70919 0.0
H1349 H 0.97801 0.4344 0.62202 0.0
H1350 H -0.00849 0.46143 0.62045 0.0
H1351 H 0.00026 0.44166 0.64124 0.0
H1352 H 0.03056 0.5216 0.63573 0.0
H1353 H 0.05122 0.4718 0.68363 0.0
H1354 H 0.9721 0.51864 0.64708 0.0
H1355 H 0.97905 0.50134 0.62354 0.0
H1356 H -0.00724 0.52809 0.62704 0.0
H1357 H -0.00349 0.45782 0.70374 0.0
H1358 H 0.02543 0.44884 0.70271 0.0
H1359 H 0.00547 0.43884 0.6823 0.0
C1360 C 0.28895 0.46013 0.92807 0.0
C1361 C 0.31166 0.46019 0.92174 0.0
C1362 C 0.28262 0.46358 0.95051 0.0
C1363 C 0.29939 0.46761 0.96684 0.0
C1364 C 0.32233 0.46753 0.96057 0.0
C1365 C 0.32819 0.46361 0.93814 0.0
C1366 C 0.25803 0.46306 0.95672 0.0
C1367 C 0.34069 0.47205 0.97747 0.0
C1368 C 0.28608 0.4986 0.02085 0.0
C1369 C 0.287 0.48112 0.03652 0.0
C1370 C 0.28933 0.49436 -0.00209 0.0
C1371 C 0.29314 0.47206 -0.00945 0.0
C1372 C 0.29279 0.45423 0.00619 0.0
C1373 C 0.28996 0.45901 0.02905 0.0
C1374 C 0.2899 0.51384 0.98173 0.0
C1375 C 0.29634 0.4302 -0.00107 0.0
H1376 H 0.27611 0.45741 0.91547 0.0
H1377 H 0.34575 0.46387 0.93333 0.0
H1378 H 0.25511 0.45055 0.9702 0.0
H1379 H 0.25284 0.47965 0.96341 0.0
H1380 H 0.24715 0.45882 0.94219 0.0
H1381 H 0.35769 0.47164 0.96979 0.0
H1382 H 0.33812 0.48876 -0.0147 0.0
H1383 H 0.34003 0.4594 -0.0089 0.0
H1384 H 0.28388 0.51573 0.02662 0.0
H1385 H 0.29048 0.44543 0.04114 0.0
H1386 H 0.27839 0.51072 0.96745 0.0
H1387 H 0.30709 0.51562 0.97471 0.0
H1388 H 0.28513 0.52993 -0.01012 0.0
H1389 H 0.28515 0.426 -0.01535 0.0
H1390 H 0.29314 0.41812 0.01277 0.0
H1391 H 0.31389 0.42796 -0.00693 0.0
C1392 C 0.48769 0.2882 0.939 0.0
C1393 C 0.5042 0.30423 0.93389 0.0
C1394 C 0.47932 0.28599 0.96093 0.0
C1395 C 0.48789 0.29996 0.97812 0.0
C1396 C 0.50544 0.31527 0.97329 0.0
C1397 C 0.51329 0.31731 0.95121 0.0
C1398 C 0.46052 0.26957 0.96543 0.0
C1399 C 0.51529 0.33022 -0.00875 0.0
C1400 C 0.4534 0.31857 0.02808 0.0
C1401 C 0.46305 0.30602 0.04546 0.0
C1402 C 0.46033 0.31567 0.00578 0.0
C1403 C 0.4775 0.30001 0.0008 0.0
C1404 C 0.48626 0.28624 0.01803 0.0
C1405 C 0.47882 0.28932 0.04018 0.0
C1406 C 0.45025 0.33038 -0.01221 0.0
C1407 C 0.50461 0.26939 0.01336 0.0
H1408 H 0.48053 0.27807 0.92568 0.0
H1409 H 0.52619 0.32959 0.94741 0.0
H1410 H 0.46431 0.25924 0.98043 0.0
H1411 H 0.44482 0.27894 0.96901 0.0
H1412 H 0.45747 0.25823 0.95094 0.0
H1413 H 0.53006 0.33986 -0.01486 0.0
H1414 H 0.50237 0.3423 -0.00288 0.0
H1415 H 0.52049 0.32006 0.00595 0.0
H1416 H 0.44103 0.33133 0.03201 0.0
H1417 H 0.48638 0.27955 0.05351 0.0
H1418 H 0.4452 0.32014 0.97309 0.0
H1419 H 0.463 0.34265 0.98194 0.0
H1420 H 0.43536 0.3398 -0.00607 0.0
H1421 H 0.50053 0.25918 -0.00166 0.0
H1422 H 0.50742 0.25796 0.0278 0.0
H1423 H 0.52053 0.27841 0.0098 0.0
C1424 C 0.64445 0.51411 0.94241 0.0
C1425 C 0.65827 0.50383 0.92637 0.0
C1426 C 0.64594 0.50827 0.96513 0.0
C1427 C 0.66133 0.49147 0.97185 0.0
C1428 C 0.67595 0.48168 0.95589 0.0
C1429 C 0.67438 0.48814 0.93333 0.0
C1430 C 0.6304 0.51941 0.9818 0.0
C1431 C 0.69238 0.46353 0.96241 0.0
C1432 C 0.67305 0.48626 0.03413 0.0
C1433 C 0.65722 0.47 0.04052 0.0
C1434 C 0.67497 0.4931 0.01171 0.0
C1435 C 0.661 0.48314 -0.00471 0.0
C1436 C 0.64579 0.46594 0.00147 0.0
C1437 C 0.64394 0.45971 0.02407 0.0
C1438 C 0.69118 0.51168 0.00577 0.0
C1439 C 0.63093 0.45462 -0.01569 0.0
H1440 H 0.63208 0.52636 0.93712 0.0
H1441 H 0.68502 0.48003 0.92099 0.0
H1442 H 0.61818 0.50693 -0.01169 0.0
H1443 H 0.64008 0.52585 -0.00365 0.0
H1444 H 0.6209 0.53355 0.97423 0.0
H1445 H 0.70379 0.45893 0.94837 0.0
H1446 H 0.70269 0.46899 0.97692 0.0
H1447 H 0.68302 0.4483 0.96767 0.0
H1448 H 0.68327 0.49439 0.04681 0.0
H1449 H 0.63179 0.44703 0.02891 0.0
H1450 H 0.68166 0.52665 0.00012 0.0
H1451 H 0.70217 0.50648 -0.00835 0.0
H1452 H 0.70192 0.5166 0.0202 0.0
H1453 H 0.61885 0.46696 0.97739 0.0
H1454 H 0.62131 0.44038 -0.00843 0.0
H1455 H 0.64119 0.44828 0.97011 0.0
C1456 C 0.48401 0.67246 0.93349 0.0
C1457 C 0.46821 0.65636 0.92663 0.0
C1458 C 0.49091 0.67383 0.95595 0.0
C1459 C 0.48154 0.65897 0.97193 0.0
C1460 C 0.46484 0.6434 0.9653 0.0
C1461 C 0.45847 0.64219 0.94269 0.0
C1462 C 0.50888 0.69052 0.9624 0.0
C1463 C 0.45419 0.62751 0.98196 0.0
C1464 C 0.51348 0.64217 0.02424 0.0
C1465 C 0.50264 0.65496 0.04076 0.0
C1466 C 0.50741 0.64403 0.00158 0.0
C1467 C 0.4899 0.65884 -0.00462 0.0
C1468 C 0.47948 0.67243 0.01184 0.0
C1469 C 0.48608 0.67044 0.03433 0.0
C1470 C 0.51916 0.62953 -0.01559 0.0
C1471 C 0.46064 0.68829 0.00587 0.0
H1472 H 0.4917 0.6834 0.92115 0.0
H1473 H 0.44615 0.62981 0.93753 0.0
H1474 H 0.50327 0.70084 0.97685 0.0
H1475 H 0.52423 0.68142 0.96774 0.0
H1476 H 0.51337 0.70189 0.94832 0.0
H1477 H 0.44039 0.6175 0.9744 0.0
H1478 H 0.46708 0.61579 -0.01148 0.0
H1479 H 0.44739 0.63701 -0.00353 0.0
H1480 H 0.5264 0.6303 0.02906 0.0
H1481 H 0.47757 0.68036 0.04699 0.0
H1482 H 0.52527 0.63996 0.97024 0.0
H1483 H 0.50713 0.61713 0.97742 0.0
H1484 H 0.53363 0.62029 -0.00833 0.0
H1485 H 0.46572 0.69938 -0.00819 0.0
H1486 H 0.45548 0.69892 0.02031 0.0
H1487 H 0.44584 0.67851 0.00015 0.0
C1488 C 0.16829 0.22762 0.47686 0.0
C1489 C 0.15116 0.22887 0.49294 0.0
C1490 C 0.18353 0.20982 0.47678 0.0
C1491 C 0.18167 0.19286 0.49327 0.0
C1492 C 0.16385 0.19347 0.50902 0.0
C1493 C 0.1487 0.21154 0.50864 0.0
C1494 C 0.20221 0.20971 0.45955 0.0
C1495 C 0.16138 0.1756 0.52679 0.0
C1496 C 0.2182 0.1431 0.47889 0.0
C1497 C 0.23837 0.14938 0.48927 0.0
C1498 C 0.19877 0.15617 0.48152 0.0
C1499 C 0.19969 0.1758 0.49488 0.0
C1500 C 0.2195 0.18109 0.50686 0.0
C1501 C 0.23865 0.16784 0.50383 0.0
C1502 C 0.17788 0.14996 0.4686 0.0
C1503 C 0.22107 0.20177 0.52146 0.0
H1504 H 0.1701 0.24084 0.46449 0.0
H1505 H 0.1354 0.21244 0.52105 0.0
H1506 H 0.21864 0.21177 0.46808 0.0
H1507 H 0.20258 0.19342 0.45054 0.0
H1508 H 0.20038 0.22337 0.44701 0.0
H1509 H 0.14505 0.17682 0.53574 0.0
H1510 H 0.16286 0.15863 0.51926 0.0
H1511 H 0.1751 0.17736 0.53926 0.0
H1512 H 0.21786 0.1287 0.46777 0.0
H1513 H 0.25413 0.17252 0.5122 0.0
H1514 H 0.17614 0.1613 0.45394 0.0
H1515 H 0.16267 0.15206 0.47916 0.0
H1516 H 0.17852 0.13239 0.46236 0.0
H1517 H 0.2214 0.21695 0.51068 0.0
H1518 H 0.23645 0.20176 0.53201 0.0
H1519 H 0.20618 0.20311 0.53258 0.0
C1520 C 0.73251 0.18097 0.50719 0.0
C1521 C 0.73245 0.16017 0.49628 0.0
C1522 C 0.74921 0.19687 0.50265 0.0
C1523 C 0.76573 0.19209 0.48622 0.0
C1524 C 0.76608 0.17084 0.47557 0.0
C1525 C 0.74956 0.15493 0.48101 0.0
C1526 C 0.74866 0.21911 0.51484 0.0
C1527 C 0.78309 0.16539 0.45757 0.0
C1528 C 0.78697 0.24493 0.45842 0.0
C1529 C 0.80759 0.24806 0.46921 0.0
C1530 C 0.77385 0.22593 0.46278 0.0
C1531 C 0.78122 0.21015 0.47892 0.0
C1532 C 0.80238 0.21291 0.4894 0.0
C1533 C 0.81553 0.23175 0.48413 0.0
C1534 C 0.75168 0.22322 0.45076 0.0
C1535 C 0.8105 0.19675 0.50711 0.0
H1536 H 0.71935 0.18486 0.51918 0.0
H1537 H 0.74936 0.13884 0.47251 0.0
H1538 H 0.76552 0.22318 0.52165 0.0
H1539 H 0.74404 0.23266 0.50295 0.0
H1540 H 0.73636 0.21915 0.52887 0.0
H1541 H 0.78239 0.14747 0.45243 0.0
H1542 H 0.77983 0.17596 0.4426 0.0
H1543 H 0.80033 0.16929 0.46341 0.0
H1544 H 0.781 0.25749 0.4467 0.0
H1545 H 0.83146 0.23432 0.49255 0.0
H1546 H 0.73767 0.22568 0.4628 0.0
H1547 H 0.75012 0.206 0.44383 0.0
H1548 H 0.7497 0.23546 0.43685 0.0
H1549 H 0.79973 0.19825 0.52224 0.0
H1550 H 0.82819 0.20005 0.51205 0.0
H1551 H 0.80913 0.17919 0.50108 0.0
C1552 C 0.81009 0.74298 0.48143 0.0
C1553 C 0.80361 0.72598 0.49629 0.0
C1554 C 0.79554 0.7609 0.47672 0.0
C1555 C 0.77447 0.76201 0.48772 0.0
C1556 C 0.7686 0.7456 0.50386 0.0
C1557 C 0.7831 0.72753 0.50764 0.0
C1558 C 0.80209 0.77777 0.459 0.0
C1559 C 0.74658 0.74656 0.51644 0.0
C1560 C 0.73822 0.81433 0.48687 0.0
C1561 C 0.72119 0.80763 0.47213 0.0
C1562 C 0.75626 0.79994 0.49166 0.0
C1563 C 0.75746 0.7788 0.48084 0.0
C1564 C 0.74097 0.77267 0.46486 0.0
C1565 C 0.72279 0.78701 0.46101 0.0
C1566 C 0.77319 0.80676 0.50923 0.0
C1567 C 0.74202 0.75055 0.45249 0.0
H1568 H 0.82596 0.74161 0.47259 0.0
H1569 H 0.77827 0.71442 0.51931 0.0
H1570 H 0.79134 0.77537 0.44398 0.0
H1571 H 0.7993 0.79514 0.46509 0.0
H1572 H 0.81994 0.77601 0.45384 0.0
H1573 H 0.74587 0.73419 0.53036 0.0
H1574 H 0.74384 0.7636 0.52345 0.0
H1575 H 0.73253 0.74299 0.50474 0.0
H1576 H 0.73683 0.83028 0.49554 0.0
H1577 H 0.70967 0.78201 0.44942 0.0
H1578 H 0.79055 0.80415 0.503 0.0
H1579 H 0.77103 0.79605 0.52431 0.0
H1580 H 0.77125 0.8246 0.51432 0.0
H1581 H 0.75903 0.74793 0.44532 0.0
H1582 H 0.72951 0.74959 0.43869 0.0
H1583 H 0.73872 0.73659 0.46434 0.0
C1584 C 0.17126 0.73159 0.49958 0.0
C1585 C 0.15404 0.73167 0.4836 0.0
C1586 C 0.18672 0.74924 0.50077 0.0
C1587 C 0.18503 0.76724 0.48538 0.0
C1588 C 0.16689 0.76809 0.47009 0.0
C1589 C 0.15147 0.75028 0.46946 0.0
C1590 C 0.20564 0.74792 0.51759 0.0
C1591 C 0.16461 0.78701 0.45341 0.0
C1592 C 0.22336 0.81655 0.49756 0.0
C1593 C 0.24256 0.81043 0.48536 0.0
C1594 C 0.20394 0.8032 0.49697 0.0
C1595 C 0.20378 0.78351 0.48368 0.0
C1596 C 0.22266 0.77806 0.47029 0.0
C1597 C 0.24189 0.79152 0.47142 0.0
C1598 C 0.18414 0.80946 0.51152 0.0
C1599 C 0.223 0.75735 0.45563 0.0
H1600 H 0.17312 0.71733 0.51073 0.0
H1601 H 0.13812 0.75039 0.45709 0.0
H1602 H 0.22173 0.74493 0.50865 0.0
H1603 H 0.20729 0.76401 0.52682 0.0
H1604 H 0.20311 0.73419 0.52994 0.0
H1605 H 0.14798 0.78689 0.44497 0.0
H1606 H 0.16702 0.80348 0.46175 0.0
H1607 H 0.17786 0.78538 0.44039 0.0
H1608 H 0.22384 0.83121 0.50835 0.0
H1609 H 0.25662 0.7869 0.46175 0.0
H1610 H 0.18284 0.79746 0.5257 0.0
H1611 H 0.16826 0.80833 0.50187 0.0
H1612 H 0.18574 0.82668 0.5185 0.0
H1613 H 0.22284 0.74212 0.46633 0.0
H1614 H 0.23809 0.75671 0.44466 0.0
H1615 H 0.2078 0.75676 0.44489 0.0
C1616 C 0.50494 0.16433 0.23378 0.0
C1617 C 0.49318 0.1676 0.25392 0.0
C1618 C 0.50209 0.17907 0.21564 0.0
C1619 C 0.48691 0.19722 0.21769 0.0
C1620 C 0.47448 0.20014 0.23773 0.0
C1621 C 0.4779 0.18538 0.25568 0.0
C1622 C 0.51583 0.17564 0.1946 0.0
C1623 C 0.4579 0.21914 0.24041 0.0
C1624 C 0.49436 0.25073 0.18443 0.0
C1625 C 0.47777 0.24842 0.16793 0.0
C1626 C 0.4982 0.23368 0.20011 0.0
C1627 C 0.48486 0.21402 0.19946 0.0
C1628 C 0.46856 0.21127 0.1824 0.0
C1629 C 0.46531 0.22849 0.16668 0.0
C1630 C 0.51601 0.23705 0.21784 0.0
C1631 C 0.45389 0.19062 0.18136 0.0
H1632 H 0.5168 0.15061 0.23239 0.0
H1633 H 0.46863 0.18783 0.27116 0.0
H1634 H 0.5047 0.17493 0.1797 0.0
H1635 H 0.52735 0.19009 0.19222 0.0
H1636 H 0.52597 0.16001 0.19523 0.0
H1637 H 0.44852 0.21818 0.25651 0.0
H1638 H 0.46689 0.23545 0.23977 0.0
H1639 H 0.44565 0.21898 0.22639 0.0
H1640 H 0.50418 0.26604 0.18529 0.0
H1641 H 0.45246 0.22668 0.15394 0.0
H1642 H 0.52742 0.22235 0.21838 0.0
H1643 H 0.50796 0.23849 0.23458 0.0
H1644 H 0.52619 0.25239 0.21484 0.0
H1645 H 0.46434 0.17522 0.18166 0.0
H1646 H 0.44321 0.19029 0.16608 0.0
H1647 H 0.4428 0.19009 0.19633 0.0
C1648 C 0.8164 0.5082 0.21521 0.0
C1649 C 0.81426 0.4957 0.23501 0.0
C1650 C 0.80159 0.50478 0.19722 0.0
C1651 C 0.78452 0.48835 0.19915 0.0
C1652 C 0.78334 0.47466 0.21851 0.0
C1653 C 0.79815 0.47861 0.23628 0.0
C1654 C 0.8033 0.5197 0.17683 0.0
C1655 C 0.76556 0.45673 0.22105 0.0
C1656 C 0.72759 0.49628 0.17268 0.0
C1657 C 0.72827 0.48072 0.15506 0.0
C1658 C 0.74632 0.49981 0.18636 0.0
C1659 C 0.76611 0.48724 0.18249 0.0
C1660 C 0.76726 0.4722 0.16413 0.0
C1661 C 0.74828 0.46919 0.15049 0.0
C1662 C 0.74455 0.51624 0.20561 0.0
C1663 C 0.78807 0.45847 0.1596 0.0
H1664 H 0.82892 0.52138 0.21417 0.0
H1665 H 0.79668 0.46869 0.25145 0.0
H1666 H 0.80197 0.50966 0.1612 0.0
H1667 H 0.78915 0.53182 0.17689 0.0
H1668 H 0.8193 0.52929 0.17648 0.0
H1669 H 0.76853 0.44592 0.23594 0.0
H1670 H 0.74883 0.46474 0.22288 0.0
H1671 H 0.76497 0.44594 0.20588 0.0
H1672 H 0.71222 0.50544 0.17606 0.0
H1673 H 0.74884 0.45718 0.13683 0.0
H1674 H 0.75897 0.52804 0.2054 0.0
H1675 H 0.7451 0.50702 0.22177 0.0
H1676 H 0.72874 0.52613 0.20505 0.0
H1677 H 0.80327 0.46924 0.16 0.0
H1678 H 0.7873 0.44977 0.14312 0.0
H1679 H 0.79001 0.44564 0.17294 0.0
C1680 C 0.49698 0.74457 0.14862 0.0
C1681 C 0.48603 0.72454 0.15441 0.0
C1682 C 0.49478 0.76382 0.16201 0.0
C1683 C 0.48108 0.76299 0.18141 0.0
C1684 C 0.46897 0.74319 0.18657 0.0
C1685 C 0.47173 0.72413 0.17309 0.0
C1686 C 0.50808 0.78458 0.15611 0.0
C1687 C 0.4539 0.7418 0.20693 0.0
C1688 C 0.49407 0.79749 0.23298 0.0
C1689 C 0.47736 0.81399 0.23205 0.0
C1690 C 0.49623 0.78152 0.21588 0.0
C1691 C 0.48105 0.78188 0.19762 0.0
C1692 C 0.46479 0.79912 0.19606 0.0
C1693 C 0.46323 0.81513 0.21328 0.0
C1694 C 0.51408 0.76363 0.21793 0.0
C1695 C 0.44824 0.7999 0.1769 0.0
H1696 H 0.50806 0.74493 0.13418 0.0
H1697 H 0.46306 0.70874 0.17747 0.0
H1698 H 0.49721 0.79968 0.15667 0.0
H1699 H 0.52162 0.78705 0.16866 0.0
H1700 H 0.51587 0.78338 0.1392 0.0
H1701 H 0.44398 0.726 0.20731 0.0
H1702 H 0.46424 0.74264 0.2224 0.0
H1703 H 0.44214 0.75622 0.20732 0.0
H1704 H 0.50516 0.79672 0.24738 0.0
H1705 H 0.45026 0.82787 0.21257 0.0
H1706 H 0.52388 0.76239 0.20213 0.0
H1707 H 0.50601 0.74708 0.2208 0.0
H1708 H 0.52585 0.76699 0.23199 0.0
H1709 H 0.45705 0.7982 0.16058 0.0
H1710 H 0.43837 0.81572 0.1768 0.0
H1711 H 0.4364 0.78558 0.17834 0.0
C1712 C 0.15131 0.48361 0.22844 0.0
C1713 C 0.16158 0.47862 0.24901 0.0
C1714 C 0.16422 0.48704 0.20904 0.0
C1715 C 0.18786 0.485 0.21025 0.0
C1716 C 0.19828 0.47981 0.23094 0.0
C1717 C 0.18501 0.47689 0.25013 0.0
C1718 C 0.15262 0.49295 0.18732 0.0
C1719 C 0.22345 0.47717 0.23279 0.0
C1720 C 0.2224 0.47239 0.15837 0.0
C1721 C 0.23281 0.49314 0.15456 0.0
C1722 C 0.20711 0.46965 0.17606 0.0
C1723 C 0.20188 0.48822 0.18993 0.0
C1724 C 0.21142 0.5095 0.18537 0.0
C1725 C 0.22697 0.51166 0.16784 0.0
C1726 C 0.19748 0.44663 0.18061 0.0
C1727 C 0.20587 0.52977 0.19956 0.0
H1728 H 0.13318 0.48507 0.22756 0.0
H1729 H 0.19298 0.47291 0.26598 0.0
H1730 H 0.15913 0.50917 0.18089 0.0
H1731 H 0.1563 0.48004 0.17441 0.0
H1732 H 0.13411 0.49427 0.18931 0.0
H1733 H 0.22885 0.47263 0.25003 0.0
H1734 H 0.22933 0.46395 0.22104 0.0
H1735 H 0.23191 0.49304 0.22794 0.0
H1736 H 0.22695 0.45802 0.14817 0.0
H1737 H 0.23489 0.52777 0.1648 0.0
H1738 H 0.17892 0.44746 0.18186 0.0
H1739 H 0.20384 0.44037 0.19695 0.0
H1740 H 0.20204 0.43432 0.16736 0.0
H1741 H 0.1874 0.53165 0.20124 0.0
H1742 H 0.21288 0.5455 0.19239 0.0
H1743 H 0.21279 0.52752 0.21668 0.0
C1744 C 0.49384 0.72906 0.79473 0.0
C1745 C 0.47835 0.72936 0.81243 0.0
C1746 C 0.4963 0.74761 0.78056 0.0
C1747 C 0.4827 0.76677 0.78401 0.0
C1748 C 0.46785 0.76764 0.80256 0.0
C1749 C 0.46593 0.74889 0.81669 0.0
C1750 C 0.51262 0.74618 0.76117 0.0
C1751 C 0.45304 0.78778 0.80669 0.0
C1752 C 0.49986 0.81714 0.74923 0.0
C1753 C 0.48715 0.81359 0.72976 0.0
C1754 C 0.49775 0.80273 0.76774 0.0
C1755 C 0.48241 0.78461 0.76669 0.0
C1756 C 0.46846 0.78194 0.74765 0.0
C1757 C 0.47112 0.79638 0.72934 0.0
C1758 C 0.51292 0.80605 0.78775 0.0
C1759 C 0.45163 0.76301 0.74605 0.0
H1760 H 0.50369 0.71408 0.79159 0.0
H1761 H 0.45396 0.74915 0.83041 0.0
H1762 H 0.50318 0.74553 0.74513 0.0
H1763 H 0.52347 0.76132 0.76068 0.0
H1764 H 0.52351 0.73108 0.76218 0.0
H1765 H 0.44483 0.78714 0.82343 0.0
H1766 H 0.46288 0.80354 0.80541 0.0
H1767 H 0.43975 0.78843 0.79366 0.0
H1768 H 0.51225 0.83049 0.74961 0.0
H1769 H 0.46105 0.79379 0.71441 0.0
H1770 H 0.52597 0.79275 0.78785 0.0
H1771 H 0.50329 0.80454 0.80362 0.0
H1772 H 0.52144 0.82264 0.78742 0.0
H1773 H 0.46065 0.74677 0.74469 0.0
H1774 H 0.44043 0.76476 0.73125 0.0
H1775 H 0.44112 0.76233 0.76141 0.0
C1776 C 0.23024 0.45736 0.80517 0.0
C1777 C 0.24916 0.4711 0.80235 0.0
C1778 C 0.21183 0.45906 0.79059 0.0
C1779 C 0.21232 0.4751 0.7731 0.0
C1780 C 0.23099 0.48966 0.77083 0.0
C1781 C 0.24928 0.48734 0.78537 0.0
C1782 C 0.19229 0.44312 0.79332 0.0
C1783 C 0.23195 0.50725 0.7526 0.0
C1784 C 0.18121 0.46696 0.71847 0.0
C1785 C 0.16323 0.48189 0.72099 0.0
C1786 C 0.19661 0.46361 0.73588 0.0
C1787 C 0.19416 0.47582 0.75612 0.0
C1788 C 0.17549 0.49021 0.75913 0.0
C1789 C 0.1601 0.49295 0.74153 0.0
C1790 C 0.2161 0.44779 0.73222 0.0
C1791 C 0.17248 0.50368 0.7804 0.0
H1792 H 0.23015 0.44476 0.81828 0.0
H1793 H 0.2638 0.49814 0.78331 0.0
H1794 H 0.17623 0.45252 0.79385 0.0
H1795 H 0.19151 0.43167 0.77865 0.0
H1796 H 0.1937 0.43283 0.8088 0.0
H1797 H 0.24687 0.51834 0.75423 0.0
H1798 H 0.23255 0.49897 0.73593 0.0
H1799 H 0.2166 0.51779 0.75305 0.0
H1800 H 0.18353 0.45821 0.70267 0.0
H1801 H 0.1462 0.50454 0.74351 0.0
H1802 H 0.21766 0.43604 0.74656 0.0
H1803 H 0.23196 0.45753 0.73122 0.0
H1804 H 0.21428 0.43787 0.71653 0.0
H1805 H 0.17411 0.49273 0.79535 0.0
H1806 H 0.15591 0.51224 0.78103 0.0
H1807 H 0.18587 0.5166 0.78149 0.0
C1808 C 0.49222 0.15011 0.74823 0.0
C1809 C 0.47819 0.15839 0.73131 0.0
C1810 C 0.49768 0.16348 0.76688 0.0
C1811 C 0.48831 0.18524 0.76876 0.0
C1812 C 0.47304 0.19303 0.75232 0.0
C1813 C 0.46847 0.17963 0.73359 0.0
C1814 C 0.51441 0.15485 0.7838 0.0
C1815 C 0.46222 0.2159 0.75402 0.0
C1816 C 0.48964 0.21991 0.82209 0.0
C1817 C 0.50547 0.23627 0.81622 0.0
C1818 C 0.4845 0.20235 0.80722 0.0
C1819 C 0.49602 0.20095 0.78645 0.0
C1820 C 0.51325 0.21651 0.78134 0.0
C1821 C 0.51748 0.23424 0.79614 0.0
C1822 C 0.46569 0.18637 0.813 0.0
C1823 C 0.52636 0.21521 0.75966 0.0
H1824 H 0.49976 0.13366 0.74635 0.0
H1825 H 0.45737 0.18586 0.72059 0.0
H1826 H 0.53032 0.16444 0.78219 0.0
H1827 H 0.50813 0.15743 0.80114 0.0
H1828 H 0.51814 0.13674 0.78136 0.0
H1829 H 0.4488 0.21829 0.74131 0.0
H1830 H 0.45486 0.21837 0.77096 0.0
H1831 H 0.47511 0.22912 0.75153 0.0
H1832 H 0.48031 0.22163 0.83764 0.0
H1833 H 0.52992 0.24683 0.7918 0.0
H1834 H 0.47066 0.16878 0.8095 0.0
H1835 H 0.45089 0.19017 0.80235 0.0
H1836 H 0.46057 0.18776 0.83088 0.0
H1837 H 0.53221 0.1978 0.7566 0.0
H1838 H 0.54116 0.22658 0.7597 0.0
H1839 H 0.51534 0.21998 0.74544 0.0
C1840 C 0.74895 0.50268 0.81526 0.0
C1841 C 0.72916 0.49059 0.81118 0.0
C1842 C 0.76773 0.50015 0.80121 0.0
C1843 C 0.7666 0.48504 0.78291 0.0
C1844 C 0.74709 0.47188 0.77955 0.0
C1845 C 0.72856 0.47492 0.79365 0.0
C1846 C 0.78825 0.51449 0.80522 0.0
C1847 C 0.74536 0.45536 0.76037 0.0
C1848 C 0.79731 0.49485 0.72844 0.0
C1849 C 0.81404 0.47837 0.72934 0.0
C1850 C 0.78265 0.49819 0.74649 0.0
C1851 C 0.78464 0.4845 0.76578 0.0
C1852 C 0.80228 0.46867 0.76731 0.0
C1853 C 0.81691 0.46586 0.74904 0.0
C1854 C 0.76424 0.51549 0.74436 0.0
C1855 C 0.80485 0.45375 0.78761 0.0
H1856 H 0.74947 0.51478 0.82885 0.0
H1857 H 0.71337 0.46533 0.79064 0.0
H1858 H 0.80373 0.50417 0.80445 0.0
H1859 H 0.78952 0.52736 0.79183 0.0
H1860 H 0.7876 0.52318 0.82171 0.0
H1861 H 0.72988 0.44497 0.76137 0.0
H1862 H 0.74523 0.46457 0.74419 0.0
H1863 H 0.76014 0.44404 0.7602 0.0
H1864 H 0.79525 0.50477 0.71333 0.0
H1865 H 0.8299 0.45313 0.74979 0.0
H1866 H 0.76365 0.52629 0.75953 0.0
H1867 H 0.74775 0.50691 0.74298 0.0
H1868 H 0.76651 0.52636 0.72939 0.0
H1869 H 0.80357 0.46372 0.80329 0.0
H1870 H 0.82112 0.44464 0.78755 0.0
H1871 H 0.79105 0.44122 0.78785 0.0
loop_
_geom_bond_atom_site_label_1
_geom_bond_atom_site_label_2
_geom_bond_distance
_geom_bond_site_symmetry_2
_ccdc_geom_bond_type
C0 O1 1.306 . S
C0 O3 1.160 . S
O1 C0 1.306 . S
O1 Cd2 2.228 . S
Cd2 O1 2.228 . S
Cd2 O6 2.273 . S
Cd2 O10 2.277 . S
O3 C0 1.160 . S
O3 Cd4 2.203 . S
Cd4 O3 2.203 . S
Cd4 O6 2.411 . S
Cd4 O7 2.333 . S
Cd4 O8 2.352 . S
Cd4 O12 2.277 . S
Cd4 O13 2.356 . S
C5 O10 1.209 . S
C5 O12 1.226 . S
O6 Cd2 2.273 . S
O6 Cd4 2.411 . S
O6 C9 1.320 . S
O7 Cd4 2.333 . S
O7 C9 1.214 . S
O8 Cd4 2.352 . S
O8 C11 1.258 . S
C9 O6 1.320 . S
C9 O7 1.214 . S
O10 Cd2 2.277 . S
O10 C5 1.209 . S
C11 O8 1.258 . S
C11 O13 1.282 . S
O12 Cd4 2.277 . S
O12 C5 1.226 . S
O13 Cd4 2.356 . S
O13 C11 1.282 . S
C14 O15 1.306 . S
C14 O17 1.160 . S
O15 C14 1.306 . S
O15 Cd16 2.228 . S
Cd16 O15 2.228 . S
Cd16 O20 2.273 . S
Cd16 O24 2.277 . S
O17 C14 1.160 . S
O17 Cd18 2.203 . S
Cd18 O17 2.203 . S
Cd18 O20 2.411 . S
Cd18 O21 2.333 . S
Cd18 O22 2.352 . S
Cd18 O26 2.277 . S
Cd18 O27 2.356 . S
C19 O24 1.209 . S
C19 O26 1.226 . S
O20 Cd16 2.273 . S
O20 Cd18 2.411 . S
O20 C23 1.320 . S
O21 Cd18 2.333 . S
O21 C23 1.214 . S
O22 Cd18 2.352 . S
O22 C25 1.258 . S
C23 O20 1.320 . S
C23 O21 1.214 . S
O24 Cd16 2.277 . S
O24 C19 1.209 . S
C25 O22 1.258 . S
C25 O27 1.282 . S
O26 Cd18 2.277 . S
O26 C19 1.226 . S
O27 Cd18 2.356 . S
O27 C25 1.282 . S
C28 O29 1.306 . S
C28 O31 1.160 . S
O29 C28 1.306 . S
O29 Cd30 2.228 . S
Cd30 O29 2.228 . S
Cd30 O34 2.273 . S
Cd30 O38 2.277 . S
O31 C28 1.160 . S
O31 Cd32 2.203 . S
Cd32 O31 2.203 . S
Cd32 O34 2.411 . S
Cd32 O35 2.333 . S
Cd32 O36 2.352 . S
Cd32 O40 2.277 . S
Cd32 O41 2.356 . S
C33 O38 1.209 . S
C33 O40 1.226 . S
O34 Cd30 2.273 . S
O34 Cd32 2.411 . S
O34 C37 1.320 . S
O35 Cd32 2.333 . S
O35 C37 1.214 . S
O36 Cd32 2.352 . S
O36 C39 1.258 . S
C37 O34 1.320 . S
C37 O35 1.214 . S
O38 Cd30 2.277 . S
O38 C33 1.209 . S
C39 O36 1.258 . S
C39 O41 1.282 . S
O40 Cd32 2.277 . S
O40 C33 1.226 . S
O41 Cd32 2.356 . S
O41 C39 1.282 . S
C42 O43 1.306 . S
C42 O45 1.160 . S
O43 C42 1.306 . S
O43 Cd44 2.228 . S
Cd44 O43 2.228 . S
Cd44 O48 2.273 . S
Cd44 O52 2.277 . S
O45 C42 1.160 . S
O45 Cd46 2.203 . S
Cd46 O45 2.203 . S
Cd46 O48 2.411 . S
Cd46 O49 2.333 . S
Cd46 O50 2.352 . S
Cd46 O54 2.277 . S
Cd46 O55 2.356 . S
C47 O52 1.209 . S
C47 O54 1.226 . S
O48 Cd44 2.273 . S
O48 Cd46 2.411 . S
O48 C51 1.320 . S
O49 Cd46 2.333 . S
O49 C51 1.214 . S
O50 Cd46 2.352 . S
O50 C53 1.258 . S
C51 O48 1.320 . S
C51 O49 1.214 . S
O52 Cd44 2.277 . S
O52 C47 1.209 . S
C53 O50 1.258 . S
C53 O55 1.282 . S
O54 Cd46 2.277 . S
O54 C47 1.226 . S
O55 Cd46 2.356 . S
O55 C53 1.282 . S
C56 O57 1.306 . S
C56 O59 1.160 . S
O57 C56 1.306 . S
O57 Cd58 2.228 . S
Cd58 O57 2.228 . S
Cd58 O62 2.273 . S
Cd58 O66 2.277 . S
O59 C56 1.160 . S
O59 Cd60 2.203 . S
Cd60 O59 2.203 . S
Cd60 O62 2.411 . S
Cd60 O63 2.333 . S
Cd60 O64 2.352 . S
Cd60 O68 2.277 . S
Cd60 O69 2.356 . S
C61 O66 1.209 . S
C61 O68 1.226 . S
O62 Cd58 2.273 . S
O62 Cd60 2.411 . S
O62 C65 1.320 . S
O63 Cd60 2.333 . S
O63 C65 1.214 . S
O64 Cd60 2.352 . S
O64 C67 1.258 . S
C65 O62 1.320 . S
C65 O63 1.214 . S
O66 Cd58 2.277 . S
O66 C61 1.209 . S
C67 O64 1.258 . S
C67 O69 1.282 . S
O68 Cd60 2.277 . S
O68 C61 1.226 . S
O69 Cd60 2.356 . S
O69 C67 1.282 . S
C70 O71 1.306 . S
C70 O73 1.160 . S
O71 C70 1.306 . S
O71 Cd72 2.228 . S
Cd72 O71 2.228 . S
Cd72 O76 2.273 . S
Cd72 O80 2.277 . S
O73 C70 1.160 . S
O73 Cd74 2.203 . S
Cd74 O73 2.203 . S
Cd74 O76 2.411 . S
Cd74 O77 2.333 . S
Cd74 O78 2.352 . S
Cd74 O82 2.277 . S
Cd74 O83 2.356 . S
C75 O80 1.209 . S
C75 O82 1.226 . S
O76 Cd72 2.273 . S
O76 Cd74 2.411 . S
O76 C79 1.320 . S
O77 Cd74 2.333 . S
O77 C79 1.214 . S
O78 Cd74 2.352 . S
O78 C81 1.258 . S
C79 O76 1.320 . S
C79 O77 1.214 . S
O80 Cd72 2.277 . S
O80 C75 1.209 . S
C81 O78 1.258 . S
C81 O83 1.282 . S
O82 Cd74 2.277 . S
O82 C75 1.226 . S
O83 Cd74 2.356 . S
O83 C81 1.282 . S
C84 O85 1.306 . S
C84 O87 1.160 . S
O85 C84 1.306 . S
O85 Cd86 2.228 . S
Cd86 O85 2.228 . S
Cd86 O90 2.273 . S
Cd86 O94 2.277 . S
O87 C84 1.160 . S
O87 Cd88 2.203 . S
Cd88 O87 2.203 . S
Cd88 O90 2.411 . S
Cd88 O91 2.333 . S
Cd88 O92 2.352 . S
Cd88 O96 2.277 . S
Cd88 O97 2.356 . S
C89 O94 1.209 . S
C89 O96 1.226 . S
O90 Cd86 2.273 . S
O90 Cd88 2.411 . S
O90 C93 1.320 . S
O91 Cd88 2.333 . S
O91 C93 1.214 . S
O92 Cd88 2.352 . S
O92 C95 1.258 . S
C93 O90 1.320 . S
C93 O91 1.214 . S
O94 Cd86 2.277 . S
O94 C89 1.209 . S
C95 O92 1.258 . S
C95 O97 1.282 . S
O96 Cd88 2.277 . S
O96 C89 1.226 . S
O97 Cd88 2.356 . S
O97 C95 1.282 . S
C98 O99 1.306 . S
C98 O101 1.160 . S
O99 C98 1.306 . S
O99 Cd100 2.228 . S
Cd100 O99 2.228 . S
Cd100 O104 2.273 . S
Cd100 O108 2.277 . S
O101 C98 1.160 . S
O101 Cd102 2.203 . S
Cd102 O101 2.203 . S
Cd102 O104 2.411 . S
Cd102 O105 2.333 . S
Cd102 O106 2.352 . S
Cd102 O110 2.277 . S
Cd102 O111 2.356 . S
C103 O108 1.209 . S
C103 O110 1.226 . S
O104 Cd100 2.273 . S
O104 Cd102 2.411 . S
O104 C107 1.320 . S
O105 Cd102 2.333 . S
O105 C107 1.214 . S
O106 Cd102 2.352 . S
O106 C109 1.258 . S
C107 O104 1.320 . S
C107 O105 1.214 . S
O108 Cd100 2.277 . S
O108 C103 1.209 . S
C109 O106 1.258 . S
C109 O111 1.282 . S
O110 Cd102 2.277 . S
O110 C103 1.226 . S
O111 Cd102 2.356 . S
O111 C109 1.282 . S
C112 O113 1.306 . S
C112 O115 1.160 . S
O113 C112 1.306 . S
O113 Cd114 2.228 . S
Cd114 O113 2.228 . S
Cd114 O118 2.273 . S
Cd114 O122 2.277 . S
O115 C112 1.160 . S
O115 Cd116 2.203 . S
Cd116 O115 2.203 . S
Cd116 O118 2.411 . S
Cd116 O119 2.333 . S
Cd116 O120 2.352 . S
Cd116 O124 2.277 . S
Cd116 O125 2.356 . S
C117 O122 1.209 . S
C117 O124 1.226 . S
O118 Cd114 2.273 . S
O118 Cd116 2.411 . S
O118 C121 1.320 . S
O119 Cd116 2.333 . S
O119 C121 1.214 . S
O120 Cd116 2.352 . S
O120 C123 1.258 . S
C121 O118 1.320 . S
C121 O119 1.214 . S
O122 Cd114 2.277 . S
O122 C117 1.209 . S
C123 O120 1.258 . S
C123 O125 1.282 . S
O124 Cd116 2.277 . S
O124 C117 1.226 . S
O125 Cd116 2.356 . S
O125 C123 1.282 . S
C126 O127 1.306 . S
C126 O129 1.160 . S
O127 C126 1.306 . S
O127 Cd128 2.228 . S
Cd128 O127 2.228 . S
Cd128 O132 2.273 . S
Cd128 O136 2.277 . S
O129 C126 1.160 . S
O129 Cd130 2.203 . S
Cd130 O129 2.203 . S
Cd130 O132 2.411 . S
Cd130 O133 2.333 . S
Cd130 O134 2.352 . S
Cd130 O138 2.277 . S
Cd130 O139 2.356 . S
C131 O136 1.209 . S
C131 O138 1.226 . S
O132 Cd128 2.273 . S
O132 Cd130 2.411 . S
O132 C135 1.320 . S
O133 Cd130 2.333 . S
O133 C135 1.214 . S
O134 Cd130 2.352 . S
O134 C137 1.258 . S
C135 O132 1.320 . S
C135 O133 1.214 . S
O136 Cd128 2.277 . S
O136 C131 1.209 . S
C137 O134 1.258 . S
C137 O139 1.282 . S
O138 Cd130 2.277 . S
O138 C131 1.226 . S
O139 Cd130 2.356 . S
O139 C137 1.282 . S
C140 O141 1.306 . S
C140 O143 1.160 . S
O141 C140 1.306 . S
O141 Cd142 2.228 . S
Cd142 O141 2.228 . S
Cd142 O146 2.273 . S
Cd142 O150 2.277 . S
O143 C140 1.160 . S
O143 Cd144 2.203 . S
Cd144 O143 2.203 . S
Cd144 O146 2.411 . S
Cd144 O147 2.333 . S
Cd144 O148 2.352 . S
Cd144 O152 2.277 . S
Cd144 O153 2.356 . S
C145 O150 1.209 . S
C145 O152 1.226 . S
O146 Cd142 2.273 . S
O146 Cd144 2.411 . S
O146 C149 1.320 . S
O147 Cd144 2.333 . S
O147 C149 1.214 . S
O148 Cd144 2.352 . S
O148 C151 1.258 . S
C149 O146 1.320 . S
C149 O147 1.214 . S
O150 Cd142 2.277 . S
O150 C145 1.209 . S
C151 O148 1.258 . S
C151 O153 1.282 . S
O152 Cd144 2.277 . S
O152 C145 1.226 . S
O153 Cd144 2.356 . S
O153 C151 1.282 . S
C154 O155 1.306 . S
C154 O157 1.160 . S
O155 C154 1.306 . S
O155 Cd156 2.228 . S
Cd156 O155 2.228 . S
Cd156 O160 2.273 . S
Cd156 O164 2.277 . S
O157 C154 1.160 . S
O157 Cd158 2.203 . S
Cd158 O157 2.203 . S
Cd158 O160 2.411 . S
Cd158 O161 2.333 . S
Cd158 O162 2.352 . S
Cd158 O166 2.277 . S
Cd158 O167 2.356 . S
C159 O164 1.209 . S
C159 O166 1.226 . S
O160 Cd156 2.273 . S
O160 Cd158 2.411 . S
O160 C163 1.320 . S
O161 Cd158 2.333 . S
O161 C163 1.214 . S
O162 Cd158 2.352 . S
O162 C165 1.258 . S
C163 O160 1.320 . S
C163 O161 1.214 . S
O164 Cd156 2.277 . S
O164 C159 1.209 . S
C165 O162 1.258 . S
C165 O167 1.282 . S
O166 Cd158 2.277 . S
O166 C159 1.226 . S
O167 Cd158 2.356 . S
O167 C165 1.282 . S
C168 O169 1.306 . S
C168 O171 1.160 . S
O169 C168 1.306 . S
O169 Cd170 2.228 . S
Cd170 O169 2.228 . S
Cd170 O174 2.273 . S
Cd170 O178 2.277 . S
O171 C168 1.160 . S
O171 Cd172 2.203 . S
Cd172 O171 2.203 . S
Cd172 O174 2.411 . S
Cd172 O175 2.333 . S
Cd172 O176 2.352 . S
Cd172 O180 2.277 . S
Cd172 O181 2.356 . S
C173 O178 1.209 . S
C173 O180 1.226 . S
O174 Cd170 2.273 . S
O174 Cd172 2.411 . S
O174 C177 1.320 . S
O175 Cd172 2.333 . S
O175 C177 1.214 . S
O176 Cd172 2.352 . S
O176 C179 1.258 . S
C177 O174 1.320 . S
C177 O175 1.214 . S
O178 Cd170 2.277 . S
O178 C173 1.209 . S
C179 O176 1.258 . S
C179 O181 1.282 . S
O180 Cd172 2.277 . S
O180 C173 1.226 . S
O181 Cd172 2.356 . S
O181 C179 1.282 . S
C182 O183 1.306 . S
C182 O185 1.160 . S
O183 C182 1.306 . S
O183 Cd184 2.228 . S
Cd184 O183 2.228 . S
Cd184 O188 2.273 . S
Cd184 O192 2.277 . S
O185 C182 1.160 . S
O185 Cd186 2.203 . S
Cd186 O185 2.203 . S
Cd186 O188 2.411 . S
Cd186 O189 2.333 . S
Cd186 O190 2.352 . S
Cd186 O194 2.277 . S
Cd186 O195 2.356 . S
C187 O192 1.209 . S
C187 O194 1.226 . S
O188 Cd184 2.273 . S
O188 Cd186 2.411 . S
O188 C191 1.320 . S
O189 Cd186 2.333 . S
O189 C191 1.214 . S
O190 Cd186 2.352 . S
O190 C193 1.258 . S
C191 O188 1.320 . S
C191 O189 1.214 . S
O192 Cd184 2.277 . S
O192 C187 1.209 . S
C193 O190 1.258 . S
C193 O195 1.282 . S
O194 Cd186 2.277 . S
O194 C187 1.226 . S
O195 Cd186 2.356 . S
O195 C193 1.282 . S
C196 O197 1.306 . S
C196 O199 1.160 . S
O197 C196 1.306 . S
O197 Cd198 2.228 . S
Cd198 O197 2.228 . S
Cd198 O202 2.273 . S
Cd198 O206 2.277 . S
O199 C196 1.160 . S
O199 Cd200 2.203 . S
Cd200 O199 2.203 . S
Cd200 O202 2.411 . S
Cd200 O203 2.333 . S
Cd200 O204 2.352 . S
Cd200 O208 2.277 . S
Cd200 O209 2.356 . S
C201 O206 1.209 . S
C201 O208 1.226 . S
O202 Cd198 2.273 . S
O202 Cd200 2.411 . S
O202 C205 1.320 . S
O203 Cd200 2.333 . S
O203 C205 1.214 . S
O204 Cd200 2.352 . S
O204 C207 1.258 . S
C205 O202 1.320 . S
C205 O203 1.214 . S
O206 Cd198 2.277 . S
O206 C201 1.209 . S
C207 O204 1.258 . S
C207 O209 1.282 . S
O208 Cd200 2.277 . S
O208 C201 1.226 . S
O209 Cd200 2.356 . S
O209 C207 1.282 . S
C210 O211 1.306 . S
C210 O213 1.160 . S
O211 C210 1.306 . S
O211 Cd212 2.228 . S
Cd212 O211 2.228 . S
Cd212 O216 2.273 . S
Cd212 O220 2.277 . S
O213 C210 1.160 . S
O213 Cd214 2.203 . S
Cd214 O213 2.203 . S
Cd214 O216 2.411 . S
Cd214 O217 2.333 . S
Cd214 O218 2.352 . S
Cd214 O222 2.277 . S
Cd214 O223 2.356 . S
C215 O220 1.209 . S
C215 O222 1.226 . S
O216 Cd212 2.273 . S
O216 Cd214 2.411 . S
O216 C219 1.320 . S
O217 Cd214 2.333 . S
O217 C219 1.214 . S
O218 Cd214 2.352 . S
O218 C221 1.258 . S
C219 O216 1.320 . S
C219 O217 1.214 . S
O220 Cd212 2.277 . S
O220 C215 1.209 . S
C221 O218 1.258 . S
C221 O223 1.282 . S
O222 Cd214 2.277 . S
O222 C215 1.226 . S
O223 Cd214 2.356 . S
O223 C221 1.282 . S
C224 O225 1.306 . S
C224 O227 1.160 . S
O225 C224 1.306 . S
O225 Cd226 2.228 . S
Cd226 O225 2.228 . S
Cd226 O230 2.273 . S
Cd226 O234 2.277 . S
O227 C224 1.160 . S
O227 Cd228 2.203 . S
Cd228 O227 2.203 . S
Cd228 O230 2.411 . S
Cd228 O231 2.333 . S
Cd228 O232 2.352 . S
Cd228 O236 2.277 . S
Cd228 O237 2.356 . S
C229 O234 1.209 . S
C229 O236 1.226 . S
O230 Cd226 2.273 . S
O230 Cd228 2.411 . S
O230 C233 1.320 . S
O231 Cd228 2.333 . S
O231 C233 1.214 . S
O232 Cd228 2.352 . S
O232 C235 1.258 . S
C233 O230 1.320 . S
C233 O231 1.214 . S
O234 Cd226 2.277 . S
O234 C229 1.209 . S
C235 O232 1.258 . S
C235 O237 1.282 . S
O236 Cd228 2.277 . S
O236 C229 1.226 . S
O237 Cd228 2.356 . S
O237 C235 1.282 . S
C238 O239 1.306 . S
C238 O241 1.160 . S
O239 C238 1.306 . S
O239 Cd240 2.228 . S
Cd240 O239 2.228 . S
Cd240 O244 2.273 . S
Cd240 O248 2.277 . S
O241 C238 1.160 . S
O241 Cd242 2.203 . S
Cd242 O241 2.203 . S
Cd242 O244 2.411 . S
Cd242 O245 2.333 . S
Cd242 O246 2.352 . S
Cd242 O250 2.277 . S
Cd242 O251 2.356 . S
C243 O248 1.209 . S
C243 O250 1.226 . S
O244 Cd240 2.273 . S
O244 Cd242 2.411 . S
O244 C247 1.320 . S
O245 Cd242 2.333 . S
O245 C247 1.214 . S
O246 Cd242 2.352 . S
O246 C249 1.258 . S
C247 O244 1.320 . S
C247 O245 1.214 . S
O248 Cd240 2.277 . S
O248 C243 1.209 . S
C249 O246 1.258 . S
C249 O251 1.282 . S
O250 Cd242 2.277 . S
O250 C243 1.226 . S
O251 Cd242 2.356 . S
O251 C249 1.282 . S
C252 O253 1.306 . S
C252 O255 1.160 . S
O253 C252 1.306 . S
O253 Cd254 2.228 . S
Cd254 O253 2.228 . S
Cd254 O258 2.273 . S
Cd254 O262 2.277 . S
O255 C252 1.160 . S
O255 Cd256 2.203 . S
Cd256 O255 2.203 . S
Cd256 O258 2.411 . S
Cd256 O259 2.333 . S
Cd256 O260 2.352 . S
Cd256 O264 2.277 . S
Cd256 O265 2.356 . S
C257 O262 1.209 . S
C257 O264 1.226 . S
O258 Cd254 2.273 . S
O258 Cd256 2.411 . S
O258 C261 1.320 . S
O259 Cd256 2.333 . S
O259 C261 1.214 . S
O260 Cd256 2.352 . S
O260 C263 1.258 . S
C261 O258 1.320 . S
C261 O259 1.214 . S
O262 Cd254 2.277 . S
O262 C257 1.209 . S
C263 O260 1.258 . S
C263 O265 1.282 . S
O264 Cd256 2.277 . S
O264 C257 1.226 . S
O265 Cd256 2.356 . S
O265 C263 1.282 . S
C266 O267 1.306 . S
C266 O269 1.160 . S
O267 C266 1.306 . S
O267 Cd268 2.228 . S
Cd268 O267 2.228 . S
Cd268 O272 2.273 . S
Cd268 O276 2.277 . S
O269 C266 1.160 . S
O269 Cd270 2.203 . S
Cd270 O269 2.203 . S
Cd270 O272 2.411 . S
Cd270 O273 2.333 . S
Cd270 O274 2.352 . S
Cd270 O278 2.277 . S
Cd270 O279 2.356 . S
C271 O276 1.209 . S
C271 O278 1.226 . S
O272 Cd268 2.273 . S
O272 Cd270 2.411 . S
O272 C275 1.320 . S
O273 Cd270 2.333 . S
O273 C275 1.214 . S
O274 Cd270 2.352 . S
O274 C277 1.258 . S
C275 O272 1.320 . S
C275 O273 1.214 . S
O276 Cd268 2.277 . S
O276 C271 1.209 . S
C277 O274 1.258 . S
C277 O279 1.282 . S
O278 Cd270 2.277 . S
O278 C271 1.226 . S
O279 Cd270 2.356 . S
O279 C277 1.282 . S
C280 O281 1.306 . S
C280 O283 1.160 . S
O281 C280 1.306 . S
O281 Cd282 2.228 . S
Cd282 O281 2.228 . S
Cd282 O286 2.273 . S
Cd282 O290 2.277 . S
O283 C280 1.160 . S
O283 Cd284 2.203 . S
Cd284 O283 2.203 . S
Cd284 O286 2.411 . S
Cd284 O287 2.333 . S
Cd284 O288 2.352 . S
Cd284 O292 2.277 . S
Cd284 O293 2.356 . S
C285 O290 1.209 . S
C285 O292 1.226 . S
O286 Cd282 2.273 . S
O286 Cd284 2.411 . S
O286 C289 1.320 . S
O287 Cd284 2.333 . S
O287 C289 1.214 . S
O288 Cd284 2.352 . S
O288 C291 1.258 . S
C289 O286 1.320 . S
C289 O287 1.214 . S
O290 Cd282 2.277 . S
O290 C285 1.209 . S
C291 O288 1.258 . S
C291 O293 1.282 . S
O292 Cd284 2.277 . S
O292 C285 1.226 . S
O293 Cd284 2.356 . S
O293 C291 1.282 . S
C294 O295 1.306 . S
C294 O297 1.160 . S
O295 C294 1.306 . S
O295 Cd296 2.228 . S
Cd296 O295 2.228 . S
Cd296 O300 2.273 . S
Cd296 O304 2.277 . S
O297 C294 1.160 . S
O297 Cd298 2.203 . S
Cd298 O297 2.203 . S
Cd298 O300 2.411 . S
Cd298 O301 2.333 . S
Cd298 O302 2.352 . S
Cd298 O306 2.277 . S
Cd298 O307 2.356 . S
C299 O304 1.209 . S
C299 O306 1.226 . S
O300 Cd296 2.273 . S
O300 Cd298 2.411 . S
O300 C303 1.320 . S
O301 Cd298 2.333 . S
O301 C303 1.214 . S
O302 Cd298 2.352 . S
O302 C305 1.258 . S
C303 O300 1.320 . S
C303 O301 1.214 . S
O304 Cd296 2.277 . S
O304 C299 1.209 . S
C305 O302 1.258 . S
C305 O307 1.282 . S
O306 Cd298 2.277 . S
O306 C299 1.226 . S
O307 Cd298 2.356 . S
O307 C305 1.282 . S
C308 O309 1.306 . S
C308 O311 1.160 . S
O309 C308 1.306 . S
O309 Cd310 2.228 . S
Cd310 O309 2.228 . S
Cd310 O314 2.273 . S
Cd310 O318 2.277 . S
O311 C308 1.160 . S
O311 Cd312 2.203 . S
Cd312 O311 2.203 . S
Cd312 O314 2.411 . S
Cd312 O315 2.333 . S
Cd312 O316 2.352 . S
Cd312 O320 2.277 . S
Cd312 O321 2.356 . S
C313 O318 1.209 . S
C313 O320 1.226 . S
O314 Cd310 2.273 . S
O314 Cd312 2.411 . S
O314 C317 1.320 . S
O315 Cd312 2.333 . S
O315 C317 1.214 . S
O316 Cd312 2.352 . S
O316 C319 1.258 . S
C317 O314 1.320 . S
C317 O315 1.214 . S
O318 Cd310 2.277 . S
O318 C313 1.209 . S
C319 O316 1.258 . S
C319 O321 1.282 . S
O320 Cd312 2.277 . S
O320 C313 1.226 . S
O321 Cd312 2.356 . S
O321 C319 1.282 . S
C322 O323 1.306 . S
C322 O325 1.160 . S
O323 C322 1.306 . S
O323 Cd324 2.228 . S
Cd324 O323 2.228 . S
Cd324 O328 2.273 . S
Cd324 O332 2.277 . S
O325 C322 1.160 . S
O325 Cd326 2.203 . S
Cd326 O325 2.203 . S
Cd326 O328 2.411 . S
Cd326 O329 2.333 . S
Cd326 O330 2.352 . S
Cd326 O334 2.277 . S
Cd326 O335 2.356 . S
C327 O332 1.209 . S
C327 O334 1.226 . S
O328 Cd324 2.273 . S
O328 Cd326 2.411 . S
O328 C331 1.320 . S
O329 Cd326 2.333 . S
O329 C331 1.214 . S
O330 Cd326 2.352 . S
O330 C333 1.258 . S
C331 O328 1.320 . S
C331 O329 1.214 . S
O332 Cd324 2.277 . S
O332 C327 1.209 . S
C333 O330 1.258 . S
C333 O335 1.282 . S
O334 Cd326 2.277 . S
O334 C327 1.226 . S
O335 Cd326 2.356 . S
O335 C333 1.282 . S
C336 C337 1.391 . S
C336 C338 1.394 . S
C336 H352 0.931 . S
C337 C336 1.391 . S
C337 C341 1.376 . S
C338 C336 1.394 . S
C338 C339 1.369 . S
C338 C342 1.531 . S
C339 C338 1.369 . S
C339 C340 1.410 . S
C339 C347 1.503 . S
C340 C339 1.410 . S
C340 C341 1.392 . S
C340 C343 1.511 . S
C341 C337 1.376 . S
C341 C340 1.392 . S
C341 H353 0.929 . S
C342 C338 1.531 . S
C342 H354 0.960 . S
C342 H355 0.962 . S
C342 H356 0.960 . S
C343 C340 1.511 . S
C343 H357 0.961 . S
C343 H358 0.961 . S
C343 H359 0.961 . S
C344 C345 1.370 . S
C344 C346 1.363 . S
C344 H360 0.931 . S
C345 C344 1.370 . S
C345 C349 1.408 . S
C346 C344 1.363 . S
C346 C347 1.370 . S
C346 C350 1.524 . S
C347 C339 1.503 . S
C347 C346 1.370 . S
C347 C348 1.403 . S
C348 C347 1.403 . S
C348 C349 1.404 . S
C348 C351 1.539 . S
C349 C345 1.408 . S
C349 C348 1.404 . S
C349 H361 0.930 . S
C350 C346 1.524 . S
C350 H362 0.956 . S
C350 H363 0.961 . S
C350 H364 0.961 . S
C351 C348 1.539 . S
C351 H365 0.958 . S
C351 H366 0.961 . S
C351 H367 0.960 . S
H352 C336 0.931 . S
H353 C341 0.929 . S
H354 C342 0.960 . S
H355 C342 0.962 . S
H356 C342 0.960 . S
H357 C343 0.961 . S
H358 C343 0.961 . S
H359 C343 0.961 . S
H360 C344 0.931 . S
H361 C349 0.930 . S
H362 C350 0.956 . S
H363 C350 0.961 . S
H364 C350 0.961 . S
H365 C351 0.958 . S
H366 C351 0.961 . S
H367 C351 0.960 . S
C368 C369 1.391 . S
C368 C370 1.394 . S
C368 H384 0.931 . S
C369 C368 1.391 . S
C369 C373 1.376 . S
C370 C368 1.394 . S
C370 C371 1.369 . S
C370 C374 1.531 . S
C371 C370 1.369 . S
C371 C372 1.410 . S
C371 C379 1.503 . S
C372 C371 1.410 . S
C372 C373 1.392 . S
C372 C375 1.511 . S
C373 C369 1.376 . S
C373 C372 1.392 . S
C373 H385 0.929 . S
C374 C370 1.531 . S
C374 H386 0.960 . S
C374 H387 0.962 . S
C374 H388 0.960 . S
C375 C372 1.511 . S
C375 H389 0.961 . S
C375 H390 0.961 . S
C375 H391 0.961 . S
C376 C377 1.370 . S
C376 C378 1.363 . S
C376 H392 0.931 . S
C377 C376 1.370 . S
C377 C381 1.408 . S
C378 C376 1.363 . S
C378 C379 1.370 . S
C378 C382 1.524 . S
C379 C371 1.503 . S
C379 C378 1.370 . S
C379 C380 1.403 . S
C380 C379 1.403 . S
C380 C381 1.404 . S
C380 C383 1.539 . S
C381 C377 1.408 . S
C381 C380 1.404 . S
C381 H393 0.930 . S
C382 C378 1.524 . S
C382 H394 0.956 . S
C382 H395 0.961 . S
C382 H396 0.961 . S
C383 C380 1.539 . S
C383 H397 0.958 . S
C383 H398 0.961 . S
C383 H399 0.960 . S
H384 C368 0.931 . S
H385 C373 0.929 . S
H386 C374 0.960 . S
H387 C374 0.962 . S
H388 C374 0.960 . S
H389 C375 0.961 . S
H390 C375 0.961 . S
H391 C375 0.961 . S
H392 C376 0.931 . S
H393 C381 0.930 . S
H394 C382 0.956 . S
H395 C382 0.961 . S
H396 C382 0.961 . S
H397 C383 0.958 . S
H398 C383 0.961 . S
H399 C383 0.960 . S
C400 C401 1.391 . S
C400 C402 1.394 . S
C400 H416 0.931 . S
C401 C400 1.391 . S
C401 C405 1.376 . S
C402 C400 1.394 . S
C402 C403 1.369 . S
C402 C406 1.531 . S
C403 C402 1.369 . S
C403 C404 1.410 . S
C403 C411 1.503 . S
C404 C403 1.410 . S
C404 C405 1.392 . S
C404 C407 1.511 . S
C405 C401 1.376 . S
C405 C404 1.392 . S
C405 H417 0.929 . S
C406 C402 1.531 . S
C406 H418 0.960 . S
C406 H419 0.962 . S
C406 H420 0.960 . S
C407 C404 1.511 . S
C407 H421 0.961 . S
C407 H422 0.961 . S
C407 H423 0.961 . S
C408 C409 1.370 . S
C408 C410 1.363 . S
C408 H424 0.931 . S
C409 C408 1.370 . S
C409 C413 1.408 . S
C410 C408 1.363 . S
C410 C411 1.370 . S
C410 C414 1.524 . S
C411 C403 1.503 . S
C411 C410 1.370 . S
C411 C412 1.403 . S
C412 C411 1.403 . S
C412 C413 1.404 . S
C412 C415 1.539 . S
C413 C409 1.408 . S
C413 C412 1.404 . S
C413 H425 0.930 . S
C414 C410 1.524 . S
C414 H426 0.956 . S
C414 H427 0.961 . S
C414 H428 0.961 . S
C415 C412 1.539 . S
C415 H429 0.958 . S
C415 H430 0.961 . S
C415 H431 0.960 . S
H416 C400 0.931 . S
H417 C405 0.929 . S
H418 C406 0.960 . S
H419 C406 0.962 . S
H420 C406 0.960 . S
H421 C407 0.961 . S
H422 C407 0.961 . S
H423 C407 0.961 . S
H424 C408 0.931 . S
H425 C413 0.930 . S
H426 C414 0.956 . S
H427 C414 0.961 . S
H428 C414 0.961 . S
H429 C415 0.958 . S
H430 C415 0.961 . S
H431 C415 0.960 . S
C432 C433 1.391 . S
C432 C434 1.394 . S
C432 H448 0.931 . S
C433 C432 1.391 . S
C433 C437 1.376 . S
C434 C432 1.394 . S
C434 C435 1.369 . S
C434 C438 1.531 . S
C435 C434 1.369 . S
C435 C436 1.410 . S
C435 C443 1.503 . S
C436 C435 1.410 . S
C436 C437 1.392 . S
C436 C439 1.511 . S
C437 C433 1.376 . S
C437 C436 1.392 . S
C437 H449 0.929 . S
C438 C434 1.531 . S
C438 H450 0.960 . S
C438 H451 0.962 . S
C438 H452 0.960 . S
C439 C436 1.511 . S
C439 H453 0.961 . S
C439 H454 0.961 . S
C439 H455 0.961 . S
C440 C441 1.370 . S
C440 C442 1.363 . S
C440 H456 0.931 . S
C441 C440 1.370 . S
C441 C445 1.408 . S
C442 C440 1.363 . S
C442 C443 1.370 . S
C442 C446 1.524 . S
C443 C435 1.503 . S
C443 C442 1.370 . S
C443 C444 1.403 . S
C444 C443 1.403 . S
C444 C445 1.404 . S
C444 C447 1.539 . S
C445 C441 1.408 . S
C445 C444 1.404 . S
C445 H457 0.930 . S
C446 C442 1.524 . S
C446 H458 0.956 . S
C446 H459 0.961 . S
C446 H460 0.961 . S
C447 C444 1.539 . S
C447 H461 0.958 . S
C447 H462 0.961 . S
C447 H463 0.960 . S
H448 C432 0.931 . S
H449 C437 0.929 . S
H450 C438 0.960 . S
H451 C438 0.962 . S
H452 C438 0.960 . S
H453 C439 0.961 . S
H454 C439 0.961 . S
H455 C439 0.961 . S
H456 C440 0.931 . S
H457 C445 0.930 . S
H458 C446 0.956 . S
H459 C446 0.961 . S
H460 C446 0.961 . S
H461 C447 0.958 . S
H462 C447 0.961 . S
H463 C447 0.960 . S
C464 C465 1.391 . S
C464 C466 1.394 . S
C464 H480 0.931 . S
C465 C464 1.391 . S
C465 C469 1.376 . S
C466 C464 1.394 . S
C466 C467 1.369 . S
C466 C470 1.531 . S
C467 C466 1.369 . S
C467 C468 1.410 . S
C467 C475 1.503 . S
C468 C467 1.410 . S
C468 C469 1.392 . S
C468 C471 1.511 . S
C469 C465 1.376 . S
C469 C468 1.392 . S
C469 H481 0.929 . S
C470 C466 1.531 . S
C470 H482 0.960 . S
C470 H483 0.962 . S
C470 H484 0.960 . S
C471 C468 1.511 . S
C471 H485 0.961 . S
C471 H486 0.961 . S
C471 H487 0.961 . S
C472 C473 1.370 . S
C472 C474 1.363 . S
C472 H488 0.931 . S
C473 C472 1.370 . S
C473 C477 1.408 . S
C474 C472 1.363 . S
C474 C475 1.370 . S
C474 C478 1.524 . S
C475 C467 1.503 . S
C475 C474 1.370 . S
C475 C476 1.403 . S
C476 C475 1.403 . S
C476 C477 1.404 . S
C476 C479 1.539 . S
C477 C473 1.408 . S
C477 C476 1.404 . S
C477 H489 0.930 . S
C478 C474 1.524 . S
C478 H490 0.956 . S
C478 H491 0.961 . S
C478 H492 0.961 . S
C479 C476 1.539 . S
C479 H493 0.958 . S
C479 H494 0.961 . S
C479 H495 0.960 . S
H480 C464 0.931 . S
H481 C469 0.929 . S
H482 C470 0.960 . S
H483 C470 0.962 . S
H484 C470 0.960 . S
H485 C471 0.961 . S
H486 C471 0.961 . S
H487 C471 0.961 . S
H488 C472 0.931 . S
H489 C477 0.930 . S
H490 C478 0.956 . S
H491 C478 0.961 . S
H492 C478 0.961 . S
H493 C479 0.958 . S
H494 C479 0.961 . S
H495 C479 0.960 . S
C496 C497 1.391 . S
C496 C498 1.394 . S
C496 H512 0.931 . S
C497 C496 1.391 . S
C497 C501 1.376 . S
C498 C496 1.394 . S
C498 C499 1.369 . S
C498 C502 1.531 . S
C499 C498 1.369 . S
C499 C500 1.410 . S
C499 C507 1.503 . S
C500 C499 1.410 . S
C500 C501 1.392 . S
C500 C503 1.511 . S
C501 C497 1.376 . S
C501 C500 1.392 . S
C501 H513 0.929 . S
C502 C498 1.531 . S
C502 H514 0.960 . S
C502 H515 0.962 . S
C502 H516 0.960 . S
C503 C500 1.511 . S
C503 H517 0.961 . S
C503 H518 0.961 . S
C503 H519 0.961 . S
C504 C505 1.370 . S
C504 C506 1.363 . S
C504 H520 0.931 . S
C505 C504 1.370 . S
C505 C509 1.408 . S
C506 C504 1.363 . S
C506 C507 1.370 . S
C506 C510 1.524 . S
C507 C499 1.503 . S
C507 C506 1.370 . S
C507 C508 1.403 . S
C508 C507 1.403 . S
C508 C509 1.404 . S
C508 C511 1.539 . S
C509 C505 1.408 . S
C509 C508 1.404 . S
C509 H521 0.930 . S
C510 C506 1.524 . S
C510 H522 0.956 . S
C510 H523 0.961 . S
C510 H524 0.961 . S
C511 C508 1.539 . S
C511 H525 0.958 . S
C511 H526 0.961 . S
C511 H527 0.960 . S
H512 C496 0.931 . S
H513 C501 0.929 . S
H514 C502 0.960 . S
H515 C502 0.962 . S
H516 C502 0.960 . S
H517 C503 0.961 . S
H518 C503 0.961 . S
H519 C503 0.961 . S
H520 C504 0.931 . S
H521 C509 0.930 . S
H522 C510 0.956 . S
H523 C510 0.961 . S
H524 C510 0.961 . S
H525 C511 0.958 . S
H526 C511 0.961 . S
H527 C511 0.960 . S
C528 C529 1.391 . S
C528 C530 1.394 . S
C528 H544 0.931 . S
C529 C528 1.391 . S
C529 C533 1.376 . S
C530 C528 1.394 . S
C530 C531 1.369 . S
C530 C534 1.531 . S
C531 C530 1.369 . S
C531 C532 1.410 . S
C531 C539 1.503 . S
C532 C531 1.410 . S
C532 C533 1.392 . S
C532 C535 1.511 . S
C533 C529 1.376 . S
C533 C532 1.392 . S
C533 H545 0.929 . S
C534 C530 1.531 . S
C534 H546 0.960 . S
C534 H547 0.962 . S
C534 H548 0.960 . S
C535 C532 1.511 . S
C535 H549 0.961 . S
C535 H550 0.961 . S
C535 H551 0.961 . S
C536 C537 1.370 . S
C536 C538 1.363 . S
C536 H552 0.931 . S
C537 C536 1.370 . S
C537 C541 1.408 . S
C538 C536 1.363 . S
C538 C539 1.370 . S
C538 C542 1.524 . S
C539 C531 1.503 . S
C539 C538 1.370 . S
C539 C540 1.403 . S
C540 C539 1.403 . S
C540 C541 1.404 . S
C540 C543 1.539 . S
C541 C537 1.408 . S
C541 C540 1.404 . S
C541 H553 0.930 . S
C542 C538 1.524 . S
C542 H554 0.956 . S
C542 H555 0.961 . S
C542 H556 0.961 . S
C543 C540 1.539 . S
C543 H557 0.958 . S
C543 H558 0.961 . S
C543 H559 0.960 . S
H544 C528 0.931 . S
H545 C533 0.929 . S
H546 C534 0.960 . S
H547 C534 0.962 . S
H548 C534 0.960 . S
H549 C535 0.961 . S
H550 C535 0.961 . S
H551 C535 0.961 . S
H552 C536 0.931 . S
H553 C541 0.930 . S
H554 C542 0.956 . S
H555 C542 0.961 . S
H556 C542 0.961 . S
H557 C543 0.958 . S
H558 C543 0.961 . S
H559 C543 0.960 . S
C560 C561 1.391 . S
C560 C562 1.394 . S
C560 H576 0.931 . S
C561 C560 1.391 . S
C561 C565 1.376 . S
C562 C560 1.394 . S
C562 C563 1.369 . S
C562 C566 1.531 . S
C563 C562 1.369 . S
C563 C564 1.410 . S
C563 C571 1.503 . S
C564 C563 1.410 . S
C564 C565 1.392 . S
C564 C567 1.511 . S
C565 C561 1.376 . S
C565 C564 1.392 . S
C565 H577 0.929 . S
C566 C562 1.531 . S
C566 H578 0.960 . S
C566 H579 0.962 . S
C566 H580 0.960 . S
C567 C564 1.511 . S
C567 H581 0.961 . S
C567 H582 0.961 . S
C567 H583 0.961 . S
C568 C569 1.370 . S
C568 C570 1.363 . S
C568 H584 0.931 . S
C569 C568 1.370 . S
C569 C573 1.408 . S
C570 C568 1.363 . S
C570 C571 1.370 . S
C570 C574 1.524 . S
C571 C563 1.503 . S
C571 C570 1.370 . S
C571 C572 1.403 . S
C572 C571 1.403 . S
C572 C573 1.404 . S
C572 C575 1.539 . S
C573 C569 1.408 . S
C573 C572 1.404 . S
C573 H585 0.930 . S
C574 C570 1.524 . S
C574 H586 0.956 . S
C574 H587 0.961 . S
C574 H588 0.961 . S
C575 C572 1.539 . S
C575 H589 0.958 . S
C575 H590 0.961 . S
C575 H591 0.960 . S
H576 C560 0.931 . S
H577 C565 0.929 . S
H578 C566 0.960 . S
H579 C566 0.962 . S
H580 C566 0.960 . S
H581 C567 0.961 . S
H582 C567 0.961 . S
H583 C567 0.961 . S
H584 C568 0.931 . S
H585 C573 0.930 . S
H586 C574 0.956 . S
H587 C574 0.961 . S
H588 C574 0.961 . S
H589 C575 0.958 . S
H590 C575 0.961 . S
H591 C575 0.960 . S
C592 C593 1.391 . S
C592 C594 1.394 . S
C592 H608 0.931 . S
C593 C592 1.391 . S
C593 C597 1.376 . S
C594 C592 1.394 . S
C594 C595 1.369 . S
C594 C598 1.531 . S
C595 C594 1.369 . S
C595 C596 1.410 . S
C595 C603 1.503 . S
C596 C595 1.410 . S
C596 C597 1.392 . S
C596 C599 1.511 . S
C597 C593 1.376 . S
C597 C596 1.392 . S
C597 H609 0.929 . S
C598 C594 1.531 . S
C598 H610 0.960 . S
C598 H611 0.962 . S
C598 H612 0.960 . S
C599 C596 1.511 . S
C599 H613 0.961 . S
C599 H614 0.961 . S
C599 H615 0.961 . S
C600 C601 1.370 . S
C600 C602 1.363 . S
C600 H616 0.931 . S
C601 C600 1.370 . S
C601 C605 1.408 . S
C602 C600 1.363 . S
C602 C603 1.370 . S
C602 C606 1.524 . S
C603 C595 1.503 . S
C603 C602 1.370 . S
C603 C604 1.403 . S
C604 C603 1.403 . S
C604 C605 1.404 . S
C604 C607 1.539 . S
C605 C601 1.408 . S
C605 C604 1.404 . S
C605 H617 0.930 . S
C606 C602 1.524 . S
C606 H618 0.956 . S
C606 H619 0.961 . S
C606 H620 0.961 . S
C607 C604 1.539 . S
C607 H621 0.958 . S
C607 H622 0.961 . S
C607 H623 0.960 . S
H608 C592 0.931 . S
H609 C597 0.929 . S
H610 C598 0.960 . S
H611 C598 0.962 . S
H612 C598 0.960 . S
H613 C599 0.961 . S
H614 C599 0.961 . S
H615 C599 0.961 . S
H616 C600 0.931 . S
H617 C605 0.930 . S
H618 C606 0.956 . S
H619 C606 0.961 . S
H620 C606 0.961 . S
H621 C607 0.958 . S
H622 C607 0.961 . S
H623 C607 0.960 . S
C624 C625 1.391 . S
C624 C626 1.394 . S
C624 H640 0.931 . S
C625 C624 1.391 . S
C625 C629 1.376 . S
C626 C624 1.394 . S
C626 C627 1.369 . S
C626 C630 1.531 . S
C627 C626 1.369 . S
C627 C628 1.410 . S
C627 C635 1.503 . S
C628 C627 1.410 . S
C628 C629 1.392 . S
C628 C631 1.511 . S
C629 C625 1.376 . S
C629 C628 1.392 . S
C629 H641 0.929 . S
C630 C626 1.531 . S
C630 H642 0.960 . S
C630 H643 0.962 . S
C630 H644 0.960 . S
C631 C628 1.511 . S
C631 H645 0.961 . S
C631 H646 0.961 . S
C631 H647 0.961 . S
C632 C633 1.370 . S
C632 C634 1.363 . S
C632 H648 0.931 . S
C633 C632 1.370 . S
C633 C637 1.408 . S
C634 C632 1.363 . S
C634 C635 1.370 . S
C634 C638 1.524 . S
C635 C627 1.503 . S
C635 C634 1.370 . S
C635 C636 1.403 . S
C636 C635 1.403 . S
C636 C637 1.404 . S
C636 C639 1.539 . S
C637 C633 1.408 . S
C637 C636 1.404 . S
C637 H649 0.930 . S
C638 C634 1.524 . S
C638 H650 0.956 . S
C638 H651 0.961 . S
C638 H652 0.961 . S
C639 C636 1.539 . S
C639 H653 0.958 . S
C639 H654 0.961 . S
C639 H655 0.960 . S
H640 C624 0.931 . S
H641 C629 0.929 . S
H642 C630 0.960 . S
H643 C630 0.962 . S
H644 C630 0.960 . S
H645 C631 0.961 . S
H646 C631 0.961 . S
H647 C631 0.961 . S
H648 C632 0.931 . S
H649 C637 0.930 . S
H650 C638 0.956 . S
H651 C638 0.961 . S
H652 C638 0.961 . S
H653 C639 0.958 . S
H654 C639 0.961 . S
H655 C639 0.960 . S
C656 C657 1.391 . S
C656 C658 1.394 . S
C656 H672 0.931 . S
C657 C656 1.391 . S
C657 C661 1.376 . S
C658 C656 1.394 . S
C658 C659 1.369 . S
C658 C662 1.531 . S
C659 C658 1.369 . S
C659 C660 1.410 . S
C659 C667 1.503 . S
C660 C659 1.410 . S
C660 C661 1.392 . S
C660 C663 1.511 . S
C661 C657 1.376 . S
C661 C660 1.392 . S
C661 H673 0.929 . S
C662 C658 1.531 . S
C662 H674 0.960 . S
C662 H675 0.962 . S
C662 H676 0.960 . S
C663 C660 1.511 . S
C663 H677 0.961 . S
C663 H678 0.961 . S
C663 H679 0.961 . S
C664 C665 1.370 . S
C664 C666 1.363 . S
C664 H680 0.931 . S
C665 C664 1.370 . S
C665 C669 1.408 . S
C666 C664 1.363 . S
C666 C667 1.370 . S
C666 C670 1.524 . S
C667 C659 1.503 . S
C667 C666 1.370 . S
C667 C668 1.403 . S
C668 C667 1.403 . S
C668 C669 1.404 . S
C668 C671 1.539 . S
C669 C665 1.408 . S
C669 C668 1.404 . S
C669 H681 0.930 . S
C670 C666 1.524 . S
C670 H682 0.956 . S
C670 H683 0.961 . S
C670 H684 0.961 . S
C671 C668 1.539 . S
C671 H685 0.958 . S
C671 H686 0.961 . S
C671 H687 0.960 . S
H672 C656 0.931 . S
H673 C661 0.929 . S
H674 C662 0.960 . S
H675 C662 0.962 . S
H676 C662 0.960 . S
H677 C663 0.961 . S
H678 C663 0.961 . S
H679 C663 0.961 . S
H680 C664 0.931 . S
H681 C669 0.930 . S
H682 C670 0.956 . S
H683 C670 0.961 . S
H684 C670 0.961 . S
H685 C671 0.958 . S
H686 C671 0.961 . S
H687 C671 0.960 . S
C688 C689 1.391 . S
C688 C690 1.394 . S
C688 H704 0.931 . S
C689 C688 1.391 . S
C689 C693 1.376 . S
C690 C688 1.394 . S
C690 C691 1.369 . S
C690 C694 1.531 . S
C691 C690 1.369 . S
C691 C692 1.410 . S
C691 C699 1.503 . S
C692 C691 1.410 . S
C692 C693 1.392 . S
C692 C695 1.511 . S
C693 C689 1.376 . S
C693 C692 1.392 . S
C693 H705 0.929 . S
C694 C690 1.531 . S
C694 H706 0.960 . S
C694 H707 0.962 . S
C694 H708 0.960 . S
C695 C692 1.511 . S
C695 H709 0.961 . S
C695 H710 0.961 . S
C695 H711 0.961 . S
C696 C697 1.370 . S
C696 C698 1.363 . S
C696 H712 0.931 . S
C697 C696 1.370 . S
C697 C701 1.408 . S
C698 C696 1.363 . S
C698 C699 1.370 . S
C698 C702 1.524 . S
C699 C691 1.503 . S
C699 C698 1.370 . S
C699 C700 1.403 . S
C700 C699 1.403 . S
C700 C701 1.404 . S
C700 C703 1.539 . S
C701 C697 1.408 . S
C701 C700 1.404 . S
C701 H713 0.930 . S
C702 C698 1.524 . S
C702 H714 0.956 . S
C702 H715 0.961 . S
C702 H716 0.961 . S
C703 C700 1.539 . S
C703 H717 0.958 . S
C703 H718 0.961 . S
C703 H719 0.960 . S
H704 C688 0.931 . S
H705 C693 0.929 . S
H706 C694 0.960 . S
H707 C694 0.962 . S
H708 C694 0.960 . S
H709 C695 0.961 . S
H710 C695 0.961 . S
H711 C695 0.961 . S
H712 C696 0.931 . S
H713 C701 0.930 . S
H714 C702 0.956 . S
H715 C702 0.961 . S
H716 C702 0.961 . S
H717 C703 0.958 . S
H718 C703 0.961 . S
H719 C703 0.960 . S
C720 C721 1.391 . S
C720 C722 1.394 . S
C720 H736 0.931 . S
C721 C720 1.391 . S
C721 C725 1.376 . S
C722 C720 1.394 . S
C722 C723 1.369 . S
C722 C726 1.531 . S
C723 C722 1.369 . S
C723 C724 1.410 . S
C723 C731 1.503 . S
C724 C723 1.410 . S
C724 C725 1.392 . S
C724 C727 1.511 . S
C725 C721 1.376 . S
C725 C724 1.392 . S
C725 H737 0.929 . S
C726 C722 1.531 . S
C726 H738 0.960 . S
C726 H739 0.962 . S
C726 H740 0.960 . S
C727 C724 1.511 . S
C727 H741 0.961 . S
C727 H742 0.961 . S
C727 H743 0.961 . S
C728 C729 1.370 . S
C728 C730 1.363 . S
C728 H744 0.931 . S
C729 C728 1.370 . S
C729 C733 1.408 . S
C730 C728 1.363 . S
C730 C731 1.370 . S
C730 C734 1.524 . S
C731 C723 1.503 . S
C731 C730 1.370 . S
C731 C732 1.403 . S
C732 C731 1.403 . S
C732 C733 1.404 . S
C732 C735 1.539 . S
C733 C729 1.408 . S
C733 C732 1.404 . S
C733 H745 0.930 . S
C734 C730 1.524 . S
C734 H746 0.956 . S
C734 H747 0.961 . S
C734 H748 0.961 . S
C735 C732 1.539 . S
C735 H749 0.958 . S
C735 H750 0.961 . S
C735 H751 0.960 . S
H736 C720 0.931 . S
H737 C725 0.929 . S
H738 C726 0.960 . S
H739 C726 0.962 . S
H740 C726 0.960 . S
H741 C727 0.961 . S
H742 C727 0.961 . S
H743 C727 0.961 . S
H744 C728 0.931 . S
H745 C733 0.930 . S
H746 C734 0.956 . S
H747 C734 0.961 . S
H748 C734 0.961 . S
H749 C735 0.958 . S
H750 C735 0.961 . S
H751 C735 0.960 . S
C752 C753 1.391 . S
C752 C754 1.394 . S
C752 H768 0.931 . S
C753 C752 1.391 . S
C753 C757 1.376 . S
C754 C752 1.394 . S
C754 C755 1.369 . S
C754 C758 1.531 . S
C755 C754 1.369 . S
C755 C756 1.410 . S
C755 C763 1.503 . S
C756 C755 1.410 . S
C756 C757 1.392 . S
C756 C759 1.511 . S
C757 C753 1.376 . S
C757 C756 1.392 . S
C757 H769 0.929 . S
C758 C754 1.531 . S
C758 H770 0.960 . S
C758 H771 0.962 . S
C758 H772 0.960 . S
C759 C756 1.511 . S
C759 H773 0.961 . S
C759 H774 0.961 . S
C759 H775 0.961 . S
C760 C761 1.370 . S
C760 C762 1.363 . S
C760 H776 0.931 . S
C761 C760 1.370 . S
C761 C765 1.408 . S
C762 C760 1.363 . S
C762 C763 1.370 . S
C762 C766 1.524 . S
C763 C755 1.503 . S
C763 C762 1.370 . S
C763 C764 1.403 . S
C764 C763 1.403 . S
C764 C765 1.404 . S
C764 C767 1.539 . S
C765 C761 1.408 . S
C765 C764 1.404 . S
C765 H777 0.930 . S
C766 C762 1.524 . S
C766 H778 0.956 . S
C766 H779 0.961 . S
C766 H780 0.961 . S
C767 C764 1.539 . S
C767 H781 0.958 . S
C767 H782 0.961 . S
C767 H783 0.960 . S
H768 C752 0.931 . S
H769 C757 0.929 . S
H770 C758 0.960 . S
H771 C758 0.962 . S
H772 C758 0.960 . S
H773 C759 0.961 . S
H774 C759 0.961 . S
H775 C759 0.961 . S
H776 C760 0.931 . S
H777 C765 0.930 . S
H778 C766 0.956 . S
H779 C766 0.961 . S
H780 C766 0.961 . S
H781 C767 0.958 . S
H782 C767 0.961 . S
H783 C767 0.960 . S
C784 C785 1.391 . S
C784 C786 1.394 . S
C784 H800 0.931 . S
C785 C784 1.391 . S
C785 C789 1.376 . S
C786 C784 1.394 . S
C786 C787 1.369 . S
C786 C790 1.531 . S
C787 C786 1.369 . S
C787 C788 1.410 . S
C787 C795 1.503 . S
C788 C787 1.410 . S
C788 C789 1.392 . S
C788 C791 1.511 . S
C789 C785 1.376 . S
C789 C788 1.392 . S
C789 H801 0.929 . S
C790 C786 1.531 . S
C790 H802 0.960 . S
C790 H803 0.962 . S
C790 H804 0.960 . S
C791 C788 1.511 . S
C791 H805 0.961 . S
C791 H806 0.961 . S
C791 H807 0.961 . S
C792 C793 1.370 . S
C792 C794 1.363 . S
C792 H808 0.931 . S
C793 C792 1.370 . S
C793 C797 1.408 . S
C794 C792 1.363 . S
C794 C795 1.370 . S
C794 C798 1.524 . S
C795 C787 1.503 . S
C795 C794 1.370 . S
C795 C796 1.403 . S
C796 C795 1.403 . S
C796 C797 1.404 . S
C796 C799 1.539 . S
C797 C793 1.408 . S
C797 C796 1.404 . S
C797 H809 0.930 . S
C798 C794 1.524 . S
C798 H810 0.956 . S
C798 H811 0.961 . S
C798 H812 0.961 . S
C799 C796 1.539 . S
C799 H813 0.958 . S
C799 H814 0.961 . S
C799 H815 0.960 . S
H800 C784 0.931 . S
H801 C789 0.929 . S
H802 C790 0.960 . S
H803 C790 0.962 . S
H804 C790 0.960 . S
H805 C791 0.961 . S
H806 C791 0.961 . S
H807 C791 0.961 . S
H808 C792 0.931 . S
H809 C797 0.930 . S
H810 C798 0.956 . S
H811 C798 0.961 . S
H812 C798 0.961 . S
H813 C799 0.958 . S
H814 C799 0.961 . S
H815 C799 0.960 . S
C816 C817 1.391 . S
C816 C818 1.394 . S
C816 H832 0.931 . S
C817 C816 1.391 . S
C817 C821 1.376 . S
C818 C816 1.394 . S
C818 C819 1.369 . S
C818 C822 1.531 . S
C819 C818 1.369 . S
C819 C820 1.410 . S
C819 C827 1.503 . S
C820 C819 1.410 . S
C820 C821 1.392 . S
C820 C823 1.511 . S
C821 C817 1.376 . S
C821 C820 1.392 . S
C821 H833 0.929 . S
C822 C818 1.531 . S
C822 H834 0.960 . S
C822 H835 0.962 . S
C822 H836 0.960 . S
C823 C820 1.511 . S
C823 H837 0.961 . S
C823 H838 0.961 . S
C823 H839 0.961 . S
C824 C825 1.370 . S
C824 C826 1.363 . S
C824 H840 0.931 . S
C825 C824 1.370 . S
C825 C829 1.408 . S
C826 C824 1.363 . S
C826 C827 1.370 . S
C826 C830 1.524 . S
C827 C819 1.503 . S
C827 C826 1.370 . S
C827 C828 1.403 . S
C828 C827 1.403 . S
C828 C829 1.404 . S
C828 C831 1.539 . S
C829 C825 1.408 . S
C829 C828 1.404 . S
C829 H841 0.930 . S
C830 C826 1.524 . S
C830 H842 0.956 . S
C830 H843 0.961 . S
C830 H844 0.961 . S
C831 C828 1.539 . S
C831 H845 0.958 . S
C831 H846 0.961 . S
C831 H847 0.960 . S
H832 C816 0.931 . S
H833 C821 0.929 . S
H834 C822 0.960 . S
H835 C822 0.962 . S
H836 C822 0.960 . S
H837 C823 0.961 . S
H838 C823 0.961 . S
H839 C823 0.961 . S
H840 C824 0.931 . S
H841 C829 0.930 . S
H842 C830 0.956 . S
H843 C830 0.961 . S
H844 C830 0.961 . S
H845 C831 0.958 . S
H846 C831 0.961 . S
H847 C831 0.960 . S
C848 C849 1.391 . S
C848 C850 1.394 . S
C848 H864 0.931 . S
C849 C848 1.391 . S
C849 C853 1.376 . S
C850 C848 1.394 . S
C850 C851 1.369 . S
C850 C854 1.531 . S
C851 C850 1.369 . S
C851 C852 1.410 . S
C851 C859 1.503 . S
C852 C851 1.410 . S
C852 C853 1.392 . S
C852 C855 1.511 . S
C853 C849 1.376 . S
C853 C852 1.392 . S
C853 H865 0.929 . S
C854 C850 1.531 . S
C854 H866 0.960 . S
C854 H867 0.962 . S
C854 H868 0.960 . S
C855 C852 1.511 . S
C855 H869 0.961 . S
C855 H870 0.961 . S
C855 H871 0.961 . S
C856 C857 1.370 . S
C856 C858 1.363 . S
C856 H872 0.931 . S
C857 C856 1.370 . S
C857 C861 1.408 . S
C858 C856 1.363 . S
C858 C859 1.370 . S
C858 C862 1.524 . S
C859 C851 1.503 . S
C859 C858 1.370 . S
C859 C860 1.403 . S
C860 C859 1.403 . S
C860 C861 1.404 . S
C860 C863 1.539 . S
C861 C857 1.408 . S
C861 C860 1.404 . S
C861 H873 0.930 . S
C862 C858 1.524 . S
C862 H874 0.956 . S
C862 H875 0.961 . S
C862 H876 0.961 . S
C863 C860 1.539 . S
C863 H877 0.958 . S
C863 H878 0.961 . S
C863 H879 0.960 . S
H864 C848 0.931 . S
H865 C853 0.929 . S
H866 C854 0.960 . S
H867 C854 0.962 . S
H868 C854 0.960 . S
H869 C855 0.961 . S
H870 C855 0.961 . S
H871 C855 0.961 . S
H872 C856 0.931 . S
H873 C861 0.930 . S
H874 C862 0.956 . S
H875 C862 0.961 . S
H876 C862 0.961 . S
H877 C863 0.958 . S
H878 C863 0.961 . S
H879 C863 0.960 . S
C880 C881 1.391 . S
C880 C882 1.394 . S
C880 H896 0.931 . S
C881 C880 1.391 . S
C881 C885 1.376 . S
C882 C880 1.394 . S
C882 C883 1.369 . S
C882 C886 1.531 . S
C883 C882 1.369 . S
C883 C884 1.410 . S
C883 C891 1.503 . S
C884 C883 1.410 . S
C884 C885 1.392 . S
C884 C887 1.511 . S
C885 C881 1.376 . S
C885 C884 1.392 . S
C885 H897 0.929 . S
C886 C882 1.531 . S
C886 H898 0.960 . S
C886 H899 0.962 . S
C886 H900 0.960 . S
C887 C884 1.511 . S
C887 H901 0.961 . S
C887 H902 0.961 . S
C887 H903 0.961 . S
C888 C889 1.370 . S
C888 C890 1.363 . S
C888 H904 0.931 . S
C889 C888 1.370 . S
C889 C893 1.408 . S
C890 C888 1.363 . S
C890 C891 1.370 . S
C890 C894 1.524 . S
C891 C883 1.503 . S
C891 C890 1.370 . S
C891 C892 1.403 . S
C892 C891 1.403 . S
C892 C893 1.404 . S
C892 C895 1.539 . S
C893 C889 1.408 . S
C893 C892 1.404 . S
C893 H905 0.930 . S
C894 C890 1.524 . S
C894 H906 0.956 . S
C894 H907 0.961 . S
C894 H908 0.961 . S
C895 C892 1.539 . S
C895 H909 0.958 . S
C895 H910 0.961 . S
C895 H911 0.960 . S
H896 C880 0.931 . S
H897 C885 0.929 . S
H898 C886 0.960 . S
H899 C886 0.962 . S
H900 C886 0.960 . S
H901 C887 0.961 . S
H902 C887 0.961 . S
H903 C887 0.961 . S
H904 C888 0.931 . S
H905 C893 0.930 . S
H906 C894 0.956 . S
H907 C894 0.961 . S
H908 C894 0.961 . S
H909 C895 0.958 . S
H910 C895 0.961 . S
H911 C895 0.960 . S
C912 C913 1.391 . S
C912 C914 1.394 . S
C912 H928 0.931 . S
C913 C912 1.391 . S
C913 C917 1.376 . S
C914 C912 1.394 . S
C914 C915 1.369 . S
C914 C918 1.531 . S
C915 C914 1.369 . S
C915 C916 1.410 . S
C915 C923 1.503 . S
C916 C915 1.410 . S
C916 C917 1.392 . S
C916 C919 1.511 . S
C917 C913 1.376 . S
C917 C916 1.392 . S
C917 H929 0.929 . S
C918 C914 1.531 . S
C918 H930 0.960 . S
C918 H931 0.962 . S
C918 H932 0.960 . S
C919 C916 1.511 . S
C919 H933 0.961 . S
C919 H934 0.961 . S
C919 H935 0.961 . S
C920 C921 1.370 . S
C920 C922 1.363 . S
C920 H936 0.931 . S
C921 C920 1.370 . S
C921 C925 1.408 . S
C922 C920 1.363 . S
C922 C923 1.370 . S
C922 C926 1.524 . S
C923 C915 1.503 . S
C923 C922 1.370 . S
C923 C924 1.403 . S
C924 C923 1.403 . S
C924 C925 1.404 . S
C924 C927 1.539 . S
C925 C921 1.408 . S
C925 C924 1.404 . S
C925 H937 0.930 . S
C926 C922 1.524 . S
C926 H938 0.956 . S
C926 H939 0.961 . S
C926 H940 0.961 . S
C927 C924 1.539 . S
C927 H941 0.958 . S
C927 H942 0.961 . S
C927 H943 0.960 . S
H928 C912 0.931 . S
H929 C917 0.929 . S
H930 C918 0.960 . S
H931 C918 0.962 . S
H932 C918 0.960 . S
H933 C919 0.961 . S
H934 C919 0.961 . S
H935 C919 0.961 . S
H936 C920 0.931 . S
H937 C925 0.930 . S
H938 C926 0.956 . S
H939 C926 0.961 . S
H940 C926 0.961 . S
H941 C927 0.958 . S
H942 C927 0.961 . S
H943 C927 0.960 . S
C944 C945 1.391 . S
C944 C946 1.394 . S
C944 H960 0.931 . S
C945 C944 1.391 . S
C945 C949 1.376 . S
C946 C944 1.394 . S
C946 C947 1.369 . S
C946 C950 1.531 . S
C947 C946 1.369 . S
C947 C948 1.410 . S
C947 C955 1.503 . S
C948 C947 1.410 . S
C948 C949 1.392 . S
C948 C951 1.511 . S
C949 C945 1.376 . S
C949 C948 1.392 . S
C949 H961 0.929 . S
C950 C946 1.531 . S
C950 H962 0.960 . S
C950 H963 0.962 . S
C950 H964 0.960 . S
C951 C948 1.511 . S
C951 H965 0.961 . S
C951 H966 0.961 . S
C951 H967 0.961 . S
C952 C953 1.370 . S
C952 C954 1.363 . S
C952 H968 0.931 . S
C953 C952 1.370 . S
C953 C957 1.408 . S
C954 C952 1.363 . S
C954 C955 1.370 . S
C954 C958 1.524 . S
C955 C947 1.503 . S
C955 C954 1.370 . S
C955 C956 1.403 . S
C956 C955 1.403 . S
C956 C957 1.404 . S
C956 C959 1.539 . S
C957 C953 1.408 . S
C957 C956 1.404 . S
C957 H969 0.930 . S
C958 C954 1.524 . S
C958 H970 0.956 . S
C958 H971 0.961 . S
C958 H972 0.961 . S
C959 C956 1.539 . S
C959 H973 0.958 . S
C959 H974 0.961 . S
C959 H975 0.960 . S
H960 C944 0.931 . S
H961 C949 0.929 . S
H962 C950 0.960 . S
H963 C950 0.962 . S
H964 C950 0.960 . S
H965 C951 0.961 . S
H966 C951 0.961 . S
H967 C951 0.961 . S
H968 C952 0.931 . S
H969 C957 0.930 . S
H970 C958 0.956 . S
H971 C958 0.961 . S
H972 C958 0.961 . S
H973 C959 0.958 . S
H974 C959 0.961 . S
H975 C959 0.960 . S
C976 C977 1.391 . S
C976 C978 1.394 . S
C976 H992 0.931 . S
C977 C976 1.391 . S
C977 C981 1.376 . S
C978 C976 1.394 . S
C978 C979 1.369 . S
C978 C982 1.531 . S
C979 C978 1.369 . S
C979 C980 1.410 . S
C979 C987 1.503 . S
C980 C979 1.410 . S
C980 C981 1.392 . S
C980 C983 1.511 . S
C981 C977 1.376 . S
C981 C980 1.392 . S
C981 H993 0.929 . S
C982 C978 1.531 . S
C982 H994 0.960 . S
C982 H995 0.962 . S
C982 H996 0.960 . S
C983 C980 1.511 . S
C983 H997 0.961 . S
C983 H998 0.961 . S
C983 H999 0.961 . S
C984 C985 1.370 . S
C984 C986 1.363 . S
C984 H1000 0.931 . S
C985 C984 1.370 . S
C985 C989 1.408 . S
C986 C984 1.363 . S
C986 C987 1.370 . S
C986 C990 1.524 . S
C987 C979 1.503 . S
C987 C986 1.370 . S
C987 C988 1.403 . S
C988 C987 1.403 . S
C988 C989 1.404 . S
C988 C991 1.539 . S
C989 C985 1.408 . S
C989 C988 1.404 . S
C989 H1001 0.930 . S
C990 C986 1.524 . S
C990 H1002 0.956 . S
C990 H1003 0.961 . S
C990 H1004 0.961 . S
C991 C988 1.539 . S
C991 H1005 0.958 . S
C991 H1006 0.961 . S
C991 H1007 0.960 . S
H992 C976 0.931 . S
H993 C981 0.929 . S
H994 C982 0.960 . S
H995 C982 0.962 . S
H996 C982 0.960 . S
H997 C983 0.961 . S
H998 C983 0.961 . S
H999 C983 0.961 . S
H1000 C984 0.931 . S
H1001 C989 0.930 . S
H1002 C990 0.956 . S
H1003 C990 0.961 . S
H1004 C990 0.961 . S
H1005 C991 0.958 . S
H1006 C991 0.961 . S
H1007 C991 0.960 . S
C1008 C1009 1.391 . S
C1008 C1010 1.394 . S
C1008 H1024 0.931 . S
C1009 C1008 1.391 . S
C1009 C1013 1.376 . S
C1010 C1008 1.394 . S
C1010 C1011 1.369 . S
C1010 C1014 1.531 . S
C1011 C1010 1.369 . S
C1011 C1012 1.410 . S
C1011 C1019 1.503 . S
C1012 C1011 1.410 . S
C1012 C1013 1.392 . S
C1012 C1015 1.511 . S
C1013 C1009 1.376 . S
C1013 C1012 1.392 . S
C1013 H1025 0.929 . S
C1014 C1010 1.531 . S
C1014 H1026 0.960 . S
C1014 H1027 0.962 . S
C1014 H1028 0.960 . S
C1015 C1012 1.511 . S
C1015 H1029 0.961 . S
C1015 H1030 0.961 . S
C1015 H1031 0.961 . S
C1016 C1017 1.370 . S
C1016 C1018 1.363 . S
C1016 H1032 0.931 . S
C1017 C1016 1.370 . S
C1017 C1021 1.408 . S
C1018 C1016 1.363 . S
C1018 C1019 1.370 . S
C1018 C1022 1.524 . S
C1019 C1011 1.503 . S
C1019 C1018 1.370 . S
C1019 C1020 1.403 . S
C1020 C1019 1.403 . S
C1020 C1021 1.404 . S
C1020 C1023 1.539 . S
C1021 C1017 1.408 . S
C1021 C1020 1.404 . S
C1021 H1033 0.930 . S
C1022 C1018 1.524 . S
C1022 H1034 0.956 . S
C1022 H1035 0.961 . S
C1022 H1036 0.961 . S
C1023 C1020 1.539 . S
C1023 H1037 0.958 . S
C1023 H1038 0.961 . S
C1023 H1039 0.960 . S
H1024 C1008 0.931 . S
H1025 C1013 0.929 . S
H1026 C1014 0.960 . S
H1027 C1014 0.962 . S
H1028 C1014 0.960 . S
H1029 C1015 0.961 . S
H1030 C1015 0.961 . S
H1031 C1015 0.961 . S
H1032 C1016 0.931 . S
H1033 C1021 0.930 . S
H1034 C1022 0.956 . S
H1035 C1022 0.961 . S
H1036 C1022 0.961 . S
H1037 C1023 0.958 . S
H1038 C1023 0.961 . S
H1039 C1023 0.960 . S
C1040 C1041 1.391 . S
C1040 C1042 1.394 . S
C1040 H1056 0.931 . S
C1041 C1040 1.391 . S
C1041 C1045 1.376 . S
C1042 C1040 1.394 . S
C1042 C1043 1.369 . S
C1042 C1046 1.531 . S
C1043 C1042 1.369 . S
C1043 C1044 1.410 . S
C1043 C1051 1.503 . S
C1044 C1043 1.410 . S
C1044 C1045 1.392 . S
C1044 C1047 1.511 . S
C1045 C1041 1.376 . S
C1045 C1044 1.392 . S
C1045 H1057 0.929 . S
C1046 C1042 1.531 . S
C1046 H1058 0.960 . S
C1046 H1059 0.962 . S
C1046 H1060 0.960 . S
C1047 C1044 1.511 . S
C1047 H1061 0.961 . S
C1047 H1062 0.961 . S
C1047 H1063 0.961 . S
C1048 C1049 1.370 . S
C1048 C1050 1.363 . S
C1048 H1064 0.931 . S
C1049 C1048 1.370 . S
C1049 C1053 1.408 . S
C1050 C1048 1.363 . S
C1050 C1051 1.370 . S
C1050 C1054 1.524 . S
C1051 C1043 1.503 . S
C1051 C1050 1.370 . S
C1051 C1052 1.403 . S
C1052 C1051 1.403 . S
C1052 C1053 1.404 . S
C1052 C1055 1.539 . S
C1053 C1049 1.408 . S
C1053 C1052 1.404 . S
C1053 H1065 0.930 . S
C1054 C1050 1.524 . S
C1054 H1066 0.956 . S
C1054 H1067 0.961 . S
C1054 H1068 0.961 . S
C1055 C1052 1.539 . S
C1055 H1069 0.958 . S
C1055 H1070 0.961 . S
C1055 H1071 0.960 . S
H1056 C1040 0.931 . S
H1057 C1045 0.929 . S
H1058 C1046 0.960 . S
H1059 C1046 0.962 . S
H1060 C1046 0.960 . S
H1061 C1047 0.961 . S
H1062 C1047 0.961 . S
H1063 C1047 0.961 . S
H1064 C1048 0.931 . S
H1065 C1053 0.930 . S
H1066 C1054 0.956 . S
H1067 C1054 0.961 . S
H1068 C1054 0.961 . S
H1069 C1055 0.958 . S
H1070 C1055 0.961 . S
H1071 C1055 0.960 . S
C1072 C1073 1.391 . S
C1072 C1074 1.394 . S
C1072 H1088 0.931 . S
C1073 C1072 1.391 . S
C1073 C1077 1.376 . S
C1074 C1072 1.394 . S
C1074 C1075 1.369 . S
C1074 C1078 1.531 . S
C1075 C1074 1.369 . S
C1075 C1076 1.410 . S
C1075 C1083 1.503 . S
C1076 C1075 1.410 . S
C1076 C1077 1.392 . S
C1076 C1079 1.511 . S
C1077 C1073 1.376 . S
C1077 C1076 1.392 . S
C1077 H1089 0.929 . S
C1078 C1074 1.531 . S
C1078 H1090 0.960 . S
C1078 H1091 0.962 . S
C1078 H1092 0.960 . S
C1079 C1076 1.511 . S
C1079 H1093 0.961 . S
C1079 H1094 0.961 . S
C1079 H1095 0.961 . S
C1080 C1081 1.370 . S
C1080 C1082 1.363 . S
C1080 H1096 0.931 . S
C1081 C1080 1.370 . S
C1081 C1085 1.408 . S
C1082 C1080 1.363 . S
C1082 C1083 1.370 . S
C1082 C1086 1.524 . S
C1083 C1075 1.503 . S
C1083 C1082 1.370 . S
C1083 C1084 1.403 . S
C1084 C1083 1.403 . S
C1084 C1085 1.404 . S
C1084 C1087 1.539 . S
C1085 C1081 1.408 . S
C1085 C1084 1.404 . S
C1085 H1097 0.930 . S
C1086 C1082 1.524 . S
C1086 H1098 0.956 . S
C1086 H1099 0.961 . S
C1086 H1100 0.961 . S
C1087 C1084 1.539 . S
C1087 H1101 0.958 . S
C1087 H1102 0.961 . S
C1087 H1103 0.960 . S
H1088 C1072 0.931 . S
H1089 C1077 0.929 . S
H1090 C1078 0.960 . S
H1091 C1078 0.962 . S
H1092 C1078 0.960 . S
H1093 C1079 0.961 . S
H1094 C1079 0.961 . S
H1095 C1079 0.961 . S
H1096 C1080 0.931 . S
H1097 C1085 0.930 . S
H1098 C1086 0.956 . S
H1099 C1086 0.961 . S
H1100 C1086 0.961 . S
H1101 C1087 0.958 . S
H1102 C1087 0.961 . S
H1103 C1087 0.960 . S
C1104 C1105 1.391 . S
C1104 C1106 1.394 . S
C1104 H1120 0.931 . S
C1105 C1104 1.391 . S
C1105 C1109 1.376 . S
C1106 C1104 1.394 . S
C1106 C1107 1.369 . S
C1106 C1110 1.531 . S
C1107 C1106 1.369 . S
C1107 C1108 1.410 . S
C1107 C1115 1.503 1_455 S
C1108 C1107 1.410 . S
C1108 C1109 1.392 . S
C1108 C1111 1.511 . S
C1109 C1105 1.376 . S
C1109 C1108 1.392 . S
C1109 H1121 0.929 . S
C1110 C1106 1.531 . S
C1110 H1122 0.960 1_455 S
C1110 H1123 0.962 . S
C1110 H1124 0.960 . S
C1111 C1108 1.511 . S
C1111 H1125 0.961 . S
C1111 H1126 0.961 1_455 S
C1111 H1127 0.961 . S
C1112 C1113 1.370 . S
C1112 C1114 1.363 . S
C1112 H1128 0.931 . S
C1113 C1112 1.370 . S
C1113 C1117 1.408 . S
C1114 C1112 1.363 . S
C1114 C1115 1.370 . S
C1114 C1118 1.524 . S
C1115 C1107 1.503 1_655 S
C1115 C1114 1.370 . S
C1115 C1116 1.403 . S
C1116 C1115 1.403 . S
C1116 C1117 1.404 . S
C1116 C1119 1.539 . S
C1117 C1113 1.408 . S
C1117 C1116 1.404 . S
C1117 H1129 0.930 . S
C1118 C1114 1.524 . S
C1118 H1130 0.956 . S
C1118 H1131 0.961 1_655 S
C1118 H1132 0.961 . S
C1119 C1116 1.539 . S
C1119 H1133 0.958 . S
C1119 H1134 0.961 . S
C1119 H1135 0.960 . S
H1120 C1104 0.931 . S
H1121 C1109 0.929 . S
H1122 C1110 0.960 1_655 S
H1123 C1110 0.962 . S
H1124 C1110 0.960 . S
H1125 C1111 0.961 . S
H1126 C1111 0.961 1_655 S
H1127 C1111 0.961 . S
H1128 C1112 0.931 . S
H1129 C1117 0.930 . S
H1130 C1118 0.956 . S
H1131 C1118 0.961 1_455 S
H1132 C1118 0.961 . S
H1133 C1119 0.958 . S
H1134 C1119 0.961 . S
H1135 C1119 0.960 . S
C1136 C1137 1.391 . S
C1136 C1138 1.394 . S
C1136 H1152 0.931 . S
C1137 C1136 1.391 . S
C1137 C1141 1.376 . S
C1138 C1136 1.394 . S
C1138 C1139 1.369 . S
C1138 C1142 1.531 . S
C1139 C1138 1.369 . S
C1139 C1140 1.410 . S
C1139 C1147 1.503 1_545 S
C1140 C1139 1.410 . S
C1140 C1141 1.392 . S
C1140 C1143 1.511 . S
C1141 C1137 1.376 . S
C1141 C1140 1.392 . S
C1141 H1153 0.929 . S
C1142 C1138 1.531 . S
C1142 H1154 0.960 1_545 S
C1142 H1155 0.962 . S
C1142 H1156 0.960 . S
C1143 C1140 1.511 . S
C1143 H1157 0.961 . S
C1143 H1158 0.961 1_545 S
C1143 H1159 0.961 . S
C1144 C1145 1.370 . S
C1144 C1146 1.363 . S
C1144 H1160 0.931 . S
C1145 C1144 1.370 . S
C1145 C1149 1.408 . S
C1146 C1144 1.363 . S
C1146 C1147 1.370 . S
C1146 C1150 1.524 . S
C1147 C1139 1.503 1_565 S
C1147 C1146 1.370 . S
C1147 C1148 1.403 . S
C1148 C1147 1.403 . S
C1148 C1149 1.404 . S
C1148 C1151 1.539 . S
C1149 C1145 1.408 . S
C1149 C1148 1.404 . S
C1149 H1161 0.930 . S
C1150 C1146 1.524 . S
C1150 H1162 0.956 . S
C1150 H1163 0.954 1_565 S
C1150 H1164 0.961 . S
C1151 C1148 1.539 . S
C1151 H1165 0.958 . S
C1151 H1166 0.961 . S
C1151 H1167 0.960 1_565 S
H1152 C1136 0.931 . S
H1153 C1141 0.929 . S
H1154 C1142 0.960 1_565 S
H1155 C1142 0.962 . S
H1156 C1142 0.960 . S
H1157 C1143 0.961 . S
H1158 C1143 0.961 1_565 S
H1159 C1143 0.961 . S
H1160 C1144 0.931 . S
H1161 C1149 0.930 . S
H1162 C1150 0.956 . S
H1163 C1150 0.954 1_545 S
H1164 C1150 0.961 . S
H1165 C1151 0.958 . S
H1166 C1151 0.961 . S
H1167 C1151 0.960 1_545 S
C1168 C1169 1.391 . S
C1168 C1170 1.394 . S
C1168 H1184 0.931 . S
C1169 C1168 1.391 . S
C1169 C1173 1.376 . S
C1170 C1168 1.394 . S
C1170 C1171 1.369 . S
C1170 C1174 1.531 . S
C1171 C1170 1.369 . S
C1171 C1172 1.410 . S
C1171 C1179 1.503 1_655 S
C1172 C1171 1.410 . S
C1172 C1173 1.392 . S
C1172 C1175 1.511 . S
C1173 C1169 1.376 . S
C1173 C1172 1.392 . S
C1173 H1185 0.929 . S
C1174 C1170 1.531 . S
C1174 H1186 0.960 1_655 S
C1174 H1187 0.962 . S
C1174 H1188 0.960 . S
C1175 C1172 1.511 . S
C1175 H1189 0.961 . S
C1175 H1190 0.961 1_655 S
C1175 H1191 0.961 . S
C1176 C1177 1.370 . S
C1176 C1178 1.363 . S
C1176 H1192 0.931 . S
C1177 C1176 1.370 . S
C1177 C1181 1.408 . S
C1178 C1176 1.363 . S
C1178 C1179 1.370 . S
C1178 C1182 1.524 . S
C1179 C1171 1.503 1_455 S
C1179 C1178 1.370 . S
C1179 C1180 1.403 . S
C1180 C1179 1.403 . S
C1180 C1181 1.404 . S
C1180 C1183 1.539 . S
C1181 C1177 1.408 . S
C1181 C1180 1.404 . S
C1181 H1193 0.930 . S
C1182 C1178 1.524 . S
C1182 H1194 0.956 . S
C1182 H1195 0.961 1_455 S
C1182 H1196 0.961 . S
C1183 C1180 1.539 . S
C1183 H1197 0.958 . S
C1183 H1198 0.961 . S
C1183 H1199 0.969 . S
H1184 C1168 0.931 . S
H1185 C1173 0.929 . S
H1186 C1174 0.960 1_455 S
H1187 C1174 0.962 . S
H1188 C1174 0.960 . S
H1189 C1175 0.961 . S
H1190 C1175 0.961 1_455 S
H1191 C1175 0.961 . S
H1192 C1176 0.931 . S
H1193 C1181 0.930 . S
H1194 C1182 0.956 . S
H1195 C1182 0.961 1_655 S
H1196 C1182 0.961 . S
H1197 C1183 0.958 . S
H1198 C1183 0.961 . S
H1199 C1183 0.969 . S
C1200 C1201 1.391 . S
C1200 C1202 1.394 . S
C1200 H1216 0.931 . S
C1201 C1200 1.391 . S
C1201 C1205 1.376 . S
C1202 C1200 1.394 . S
C1202 C1203 1.369 . S
C1202 C1206 1.531 . S
C1203 C1202 1.369 . S
C1203 C1204 1.410 . S
C1203 C1211 1.503 1_545 S
C1204 C1203 1.410 . S
C1204 C1205 1.392 . S
C1204 C1207 1.511 . S
C1205 C1201 1.376 . S
C1205 C1204 1.392 . S
C1205 H1217 0.929 . S
C1206 C1202 1.531 . S
C1206 H1218 0.960 1_545 S
C1206 H1219 0.962 . S
C1206 H1220 0.960 . S
C1207 C1204 1.511 . S
C1207 H1221 0.961 . S
C1207 H1222 0.961 1_545 S
C1207 H1223 0.961 . S
C1208 C1209 1.370 . S
C1208 C1210 1.363 . S
C1208 H1224 0.931 . S
C1209 C1208 1.370 . S
C1209 C1213 1.408 . S
C1210 C1208 1.363 . S
C1210 C1211 1.370 . S
C1210 C1214 1.524 . S
C1211 C1203 1.503 1_565 S
C1211 C1210 1.370 . S
C1211 C1212 1.403 . S
C1212 C1211 1.403 . S
C1212 C1213 1.404 . S
C1212 C1215 1.539 . S
C1213 C1209 1.408 . S
C1213 C1212 1.404 . S
C1213 H1225 0.930 . S
C1214 C1210 1.524 . S
C1214 H1226 0.956 . S
C1214 H1227 0.964 1_565 S
C1214 H1228 0.961 . S
C1215 C1212 1.539 . S
C1215 H1229 0.958 . S
C1215 H1230 0.961 . S
C1215 H1231 0.960 1_565 S
H1216 C1200 0.931 . S
H1217 C1205 0.929 . S
H1218 C1206 0.960 1_565 S
H1219 C1206 0.962 . S
H1220 C1206 0.960 . S
H1221 C1207 0.961 . S
H1222 C1207 0.961 1_565 S
H1223 C1207 0.961 . S
H1224 C1208 0.931 . S
H1225 C1213 0.930 . S
H1226 C1214 0.956 . S
H1227 C1214 0.964 1_545 S
H1228 C1214 0.961 . S
H1229 C1215 0.958 . S
H1230 C1215 0.961 . S
H1231 C1215 0.960 1_545 S
C1232 C1233 1.391 . S
C1232 C1234 1.394 . S
C1232 H1248 0.931 . S
C1233 C1232 1.391 . S
C1233 C1237 1.376 . S
C1234 C1232 1.394 . S
C1234 C1235 1.369 . S
C1234 C1238 1.531 . S
C1235 C1234 1.369 . S
C1235 C1236 1.410 . S
C1235 C1243 1.503 1_565 S
C1236 C1235 1.410 . S
C1236 C1237 1.392 . S
C1236 C1239 1.511 . S
C1237 C1233 1.376 . S
C1237 C1236 1.392 . S
C1237 H1249 0.929 . S
C1238 C1234 1.531 . S
C1238 H1250 0.960 1_565 S
C1238 H1251 0.962 . S
C1238 H1252 0.960 . S
C1239 C1236 1.511 . S
C1239 H1253 0.961 . S
C1239 H1254 0.961 1_565 S
C1239 H1255 0.961 . S
C1240 C1241 1.370 . S
C1240 C1242 1.363 . S
C1240 H1256 0.931 . S
C1241 C1240 1.370 . S
C1241 C1245 1.408 . S
C1242 C1240 1.363 . S
C1242 C1243 1.370 . S
C1242 C1246 1.524 . S
C1243 C1235 1.503 1_545 S
C1243 C1242 1.370 . S
C1243 C1244 1.403 . S
C1244 C1243 1.403 . S
C1244 C1245 1.404 . S
C1244 C1247 1.539 . S
C1245 C1241 1.408 . S
C1245 C1244 1.404 . S
C1245 H1257 0.930 . S
C1246 C1242 1.524 . S
C1246 H1258 0.956 . S
C1246 H1259 0.961 1_545 S
C1246 H1260 0.961 . S
C1247 C1244 1.539 . S
C1247 H1261 0.958 . S
C1247 H1262 0.961 . S
C1247 H1263 0.973 . S
H1248 C1232 0.931 . S
H1249 C1237 0.929 . S
H1250 C1238 0.960 1_545 S
H1251 C1238 0.962 . S
H1252 C1238 0.960 . S
H1253 C1239 0.961 . S
H1254 C1239 0.961 1_545 S
H1255 C1239 0.961 . S
H1256 C1240 0.931 . S
H1257 C1245 0.930 . S
H1258 C1246 0.956 . S
H1259 C1246 0.961 1_565 S
H1260 C1246 0.961 . S
H1261 C1247 0.958 . S
H1262 C1247 0.961 . S
H1263 C1247 0.973 . S
C1264 C1265 1.391 . S
C1264 C1266 1.394 . S
C1264 H1280 0.931 . S
C1265 C1264 1.391 . S
C1265 C1269 1.376 . S
C1266 C1264 1.394 . S
C1266 C1267 1.369 . S
C1266 C1270 1.531 . S
C1267 C1266 1.369 . S
C1267 C1268 1.410 . S
C1267 C1275 1.503 1_655 S
C1268 C1267 1.410 . S
C1268 C1269 1.392 . S
C1268 C1271 1.511 . S
C1269 C1265 1.376 . S
C1269 C1268 1.392 . S
C1269 H1281 0.929 . S
C1270 C1266 1.531 . S
C1270 H1282 0.960 1_655 S
C1270 H1283 0.962 . S
C1270 H1284 0.960 . S
C1271 C1268 1.511 . S
C1271 H1285 0.961 . S
C1271 H1286 0.961 1_655 S
C1271 H1287 0.961 . S
C1272 C1273 1.370 . S
C1272 C1274 1.363 . S
C1272 H1288 0.931 . S
C1273 C1272 1.370 . S
C1273 C1277 1.408 . S
C1274 C1272 1.363 . S
C1274 C1275 1.370 . S
C1274 C1278 1.524 . S
C1275 C1267 1.503 1_455 S
C1275 C1274 1.370 . S
C1275 C1276 1.403 . S
C1276 C1275 1.403 . S
C1276 C1277 1.404 . S
C1276 C1279 1.539 . S
C1277 C1273 1.408 . S
C1277 C1276 1.404 . S
C1277 H1289 0.930 . S
C1278 C1274 1.524 . S
C1278 H1290 0.956 . S
C1278 H1291 0.962 1_455 S
C1278 H1292 0.961 . S
C1279 C1276 1.539 . S
C1279 H1293 0.958 . S
C1279 H1294 0.961 . S
C1279 H1295 0.960 1_455 S
H1280 C1264 0.931 . S
H1281 C1269 0.929 . S
H1282 C1270 0.960 1_455 S
H1283 C1270 0.962 . S
H1284 C1270 0.960 . S
H1285 C1271 0.961 . S
H1286 C1271 0.961 1_455 S
H1287 C1271 0.961 . S
H1288 C1272 0.931 . S
H1289 C1277 0.930 . S
H1290 C1278 0.956 . S
H1291 C1278 0.962 1_655 S
H1292 C1278 0.961 . S
H1293 C1279 0.958 . S
H1294 C1279 0.961 . S
H1295 C1279 0.960 1_655 S
C1296 C1297 1.391 . S
C1296 C1298 1.394 . S
C1296 H1312 0.931 . S
C1297 C1296 1.391 . S
C1297 C1301 1.376 . S
C1298 C1296 1.394 . S
C1298 C1299 1.369 . S
C1298 C1302 1.531 . S
C1299 C1298 1.369 . S
C1299 C1300 1.410 . S
C1299 C1307 1.503 1_565 S
C1300 C1299 1.410 . S
C1300 C1301 1.392 . S
C1300 C1303 1.511 . S
C1301 C1297 1.376 . S
C1301 C1300 1.392 . S
C1301 H1313 0.929 . S
C1302 C1298 1.531 . S
C1302 H1314 0.929 1_565 S
C1302 H1315 0.962 . S
C1302 H1316 0.960 . S
C1303 C1300 1.511 . S
C1303 H1317 0.961 . S
C1303 H1318 0.961 1_565 S
C1303 H1319 0.961 . S
C1304 C1305 1.370 . S
C1304 C1306 1.363 . S
C1304 H1320 0.931 . S
C1305 C1304 1.370 . S
C1305 C1309 1.408 . S
C1306 C1304 1.363 . S
C1306 C1307 1.370 . S
C1306 C1310 1.524 . S
C1307 C1299 1.503 1_545 S
C1307 C1306 1.370 . S
C1307 C1308 1.403 . S
C1308 C1307 1.403 . S
C1308 C1309 1.404 . S
C1308 C1311 1.539 . S
C1309 C1305 1.408 . S
C1309 C1308 1.404 . S
C1309 H1321 0.930 . S
C1310 C1306 1.524 . S
C1310 H1322 0.969 . S
C1310 H1323 0.930 1_545 S
C1310 H1324 0.961 . S
C1311 C1308 1.539 . S
C1311 H1325 0.958 . S
C1311 H1326 0.961 . S
C1311 H1327 0.988 . S
H1312 C1296 0.931 . S
H1313 C1301 0.929 . S
H1314 C1302 0.929 1_545 S
H1315 C1302 0.962 . S
H1316 C1302 0.960 . S
H1317 C1303 0.961 . S
H1318 C1303 0.961 1_545 S
H1319 C1303 0.961 . S
H1320 C1304 0.931 . S
H1321 C1309 0.930 . S
H1322 C1310 0.969 . S
H1323 C1310 0.930 1_565 S
H1324 C1310 0.961 . S
H1325 C1311 0.958 . S
H1326 C1311 0.961 . S
H1327 C1311 0.988 . S
C1328 C1329 1.391 . S
C1328 C1330 1.394 . S
C1328 H1344 0.931 . S
C1329 C1328 1.391 . S
C1329 C1333 1.376 . S
C1330 C1328 1.394 . S
C1330 C1331 1.369 . S
C1330 C1334 1.531 . S
C1331 C1330 1.369 . S
C1331 C1332 1.410 . S
C1331 C1339 1.503 1_655 S
C1332 C1331 1.410 . S
C1332 C1333 1.392 . S
C1332 C1335 1.511 . S
C1333 C1329 1.376 . S
C1333 C1332 1.392 . S
C1333 H1345 0.929 . S
C1334 C1330 1.531 . S
C1334 H1346 0.960 1_655 S
C1334 H1347 0.962 . S
C1334 H1348 0.960 . S
C1335 C1332 1.511 . S
C1335 H1349 0.961 . S
C1335 H1350 0.961 1_655 S
C1335 H1351 0.961 . S
C1336 C1337 1.370 . S
C1336 C1338 1.363 . S
C1336 H1352 0.931 . S
C1337 C1336 1.370 . S
C1337 C1341 1.408 . S
C1338 C1336 1.363 . S
C1338 C1339 1.370 . S
C1338 C1342 1.524 . S
C1339 C1331 1.503 1_455 S
C1339 C1338 1.370 . S
C1339 C1340 1.403 . S
C1340 C1339 1.403 . S
C1340 C1341 1.404 . S
C1340 C1343 1.539 . S
C1341 C1337 1.408 . S
C1341 C1340 1.404 . S
C1341 H1353 0.930 . S
C1342 C1338 1.524 . S
C1342 H1354 0.956 . S
C1342 H1355 0.961 1_455 S
C1342 H1356 0.961 . S
C1343 C1340 1.539 . S
C1343 H1357 0.958 . S
C1343 H1358 0.961 . S
C1343 H1359 0.960 1_455 S
H1344 C1328 0.931 . S
H1345 C1333 0.929 . S
H1346 C1334 0.960 1_455 S
H1347 C1334 0.962 . S
H1348 C1334 0.960 . S
H1349 C1335 0.961 . S
H1350 C1335 0.961 1_455 S
H1351 C1335 0.961 . S
H1352 C1336 0.931 . S
H1353 C1341 0.930 . S
H1354 C1342 0.956 . S
H1355 C1342 0.961 1_655 S
H1356 C1342 0.961 . S
H1357 C1343 0.958 . S
H1358 C1343 0.961 . S
H1359 C1343 0.960 1_655 S
C1360 C1361 1.391 . S
C1360 C1362 1.394 . S
C1360 H1376 0.931 . S
C1361 C1360 1.391 . S
C1361 C1365 1.376 . S
C1362 C1360 1.394 . S
C1362 C1363 1.369 . S
C1362 C1366 1.531 . S
C1363 C1362 1.369 . S
C1363 C1364 1.410 . S
C1363 C1371 1.503 1_556 S
C1364 C1363 1.410 . S
C1364 C1365 1.392 . S
C1364 C1367 1.511 . S
C1365 C1361 1.376 . S
C1365 C1364 1.392 . S
C1365 H1377 0.929 . S
C1366 C1362 1.531 . S
C1366 H1378 0.925 1_556 S
C1366 H1379 0.962 . S
C1366 H1380 0.960 . S
C1367 C1364 1.511 . S
C1367 H1381 0.961 . S
C1367 H1382 0.961 1_556 S
C1367 H1383 0.961 . S
C1368 C1369 1.370 . S
C1368 C1370 1.363 . S
C1368 H1384 0.931 . S
C1369 C1368 1.370 . S
C1369 C1373 1.408 . S
C1370 C1368 1.363 . S
C1370 C1371 1.370 . S
C1370 C1374 1.524 . S
C1371 C1363 1.503 1_554 S
C1371 C1370 1.370 . S
C1371 C1372 1.403 . S
C1372 C1371 1.403 . S
C1372 C1373 1.404 . S
C1372 C1375 1.539 . S
C1373 C1369 1.408 . S
C1373 C1372 1.404 . S
C1373 H1385 0.930 . S
C1374 C1370 1.524 . S
C1374 H1386 0.956 . S
C1374 H1387 0.961 1_554 S
C1374 H1388 0.961 . S
C1375 C1372 1.539 . S
C1375 H1389 0.958 . S
C1375 H1390 0.961 . S
C1375 H1391 0.930 1_554 S
H1376 C1360 0.931 . S
H1377 C1365 0.929 . S
H1378 C1366 0.925 1_554 S
H1379 C1366 0.962 . S
H1380 C1366 0.960 . S
H1381 C1367 0.961 . S
H1382 C1367 0.961 1_554 S
H1383 C1367 0.961 . S
H1384 C1368 0.931 . S
H1385 C1373 0.930 . S
H1386 C1374 0.956 . S
H1387 C1374 0.961 1_556 S
H1388 C1374 0.961 . S
H1389 C1375 0.958 . S
H1390 C1375 0.961 . S
H1391 C1375 0.930 1_556 S
C1392 C1393 1.391 . S
C1392 C1394 1.394 . S
C1392 H1408 0.931 . S
C1393 C1392 1.391 . S
C1393 C1397 1.376 . S
C1394 C1392 1.394 . S
C1394 C1395 1.369 . S
C1394 C1398 1.531 . S
C1395 C1394 1.369 . S
C1395 C1396 1.410 . S
C1395 C1403 1.503 1_556 S
C1396 C1395 1.410 . S
C1396 C1397 1.392 . S
C1396 C1399 1.511 . S
C1397 C1393 1.376 . S
C1397 C1396 1.392 . S
C1397 H1409 0.929 . S
C1398 C1394 1.531 . S
C1398 H1410 0.960 1_556 S
C1398 H1411 0.962 . S
C1398 H1412 0.960 . S
C1399 C1396 1.511 . S
C1399 H1413 0.961 . S
C1399 H1414 0.961 1_556 S
C1399 H1415 0.961 . S
C1400 C1401 1.370 . S
C1400 C1402 1.363 . S
C1400 H1416 0.931 . S
C1401 C1400 1.370 . S
C1401 C1405 1.408 . S
C1402 C1400 1.363 . S
C1402 C1403 1.370 . S
C1402 C1406 1.524 . S
C1403 C1395 1.503 1_554 S
C1403 C1402 1.370 . S
C1403 C1404 1.403 . S
C1404 C1403 1.403 . S
C1404 C1405 1.404 . S
C1404 C1407 1.539 . S
C1405 C1401 1.408 . S
C1405 C1404 1.404 . S
C1405 H1417 0.930 . S
C1406 C1402 1.524 . S
C1406 H1418 0.956 . S
C1406 H1419 0.961 1_554 S
C1406 H1420 0.961 . S
C1407 C1404 1.539 . S
C1407 H1421 0.958 . S
C1407 H1422 0.961 . S
C1407 H1423 0.930 1_554 S
H1408 C1392 0.931 . S
H1409 C1397 0.929 . S
H1410 C1398 0.960 1_554 S
H1411 C1398 0.962 . S
H1412 C1398 0.960 . S
H1413 C1399 0.961 . S
H1414 C1399 0.961 1_554 S
H1415 C1399 0.961 . S
H1416 C1400 0.931 . S
H1417 C1405 0.930 . S
H1418 C1406 0.956 . S
H1419 C1406 0.961 1_556 S
H1420 C1406 0.961 . S
H1421 C1407 0.958 . S
H1422 C1407 0.961 . S
H1423 C1407 0.930 1_556 S
C1424 C1425 1.391 . S
C1424 C1426 1.394 . S
C1424 H1440 0.931 . S
C1425 C1424 1.391 . S
C1425 C1429 1.376 . S
C1426 C1424 1.394 . S
C1426 C1427 1.369 . S
C1426 C1430 1.531 . S
C1427 C1426 1.369 . S
C1427 C1428 1.410 . S
C1427 C1435 1.503 1_556 S
C1428 C1427 1.410 . S
C1428 C1429 1.392 . S
C1428 C1431 1.511 . S
C1429 C1425 1.376 . S
C1429 C1428 1.392 . S
C1429 H1441 0.929 . S
C1430 C1426 1.531 . S
C1430 H1442 0.932 1_556 S
C1430 H1443 0.962 . S
C1430 H1444 0.960 . S
C1431 C1428 1.511 . S
C1431 H1445 0.961 . S
C1431 H1446 0.961 1_556 S
C1431 H1447 0.961 . S
C1432 C1433 1.370 . S
C1432 C1434 1.363 . S
C1432 H1448 0.931 . S
C1433 C1432 1.370 . S
C1433 C1437 1.408 . S
C1434 C1432 1.363 . S
C1434 C1435 1.370 . S
C1434 C1438 1.524 . S
C1435 C1427 1.503 1_554 S
C1435 C1434 1.370 . S
C1435 C1436 1.403 . S
C1436 C1435 1.403 . S
C1436 C1437 1.404 . S
C1436 C1439 1.539 . S
C1437 C1433 1.408 . S
C1437 C1436 1.404 . S
C1437 H1449 0.930 . S
C1438 C1434 1.524 . S
C1438 H1450 0.956 . S
C1438 H1451 0.954 1_554 S
C1438 H1452 0.961 . S
C1439 C1436 1.539 . S
C1439 H1453 0.958 . S
C1439 H1454 0.961 . S
C1439 H1455 0.949 1_554 S
H1440 C1424 0.931 . S
H1441 C1429 0.929 . S
H1442 C1430 0.932 1_554 S
H1443 C1430 0.962 . S
H1444 C1430 0.960 . S
H1445 C1431 0.961 . S
H1446 C1431 0.961 1_554 S
H1447 C1431 0.961 . S
H1448 C1432 0.931 . S
H1449 C1437 0.930 . S
H1450 C1438 0.956 . S
H1451 C1438 0.954 1_556 S
H1452 C1438 0.961 . S
H1453 C1439 0.958 . S
H1454 C1439 0.961 . S
H1455 C1439 0.949 1_556 S
C1456 C1457 1.391 . S
C1456 C1458 1.394 . S
C1456 H1472 0.931 . S
C1457 C1456 1.391 . S
C1457 C1461 1.376 . S
C1458 C1456 1.394 . S
C1458 C1459 1.369 . S
C1458 C1462 1.531 . S
C1459 C1458 1.369 . S
C1459 C1460 1.410 . S
C1459 C1467 1.503 1_556 S
C1460 C1459 1.410 . S
C1460 C1461 1.392 . S
C1460 C1463 1.511 . S
C1461 C1457 1.376 . S
C1461 C1460 1.392 . S
C1461 H1473 0.929 . S
C1462 C1458 1.531 . S
C1462 H1474 0.960 1_556 S
C1462 H1475 0.962 . S
C1462 H1476 0.960 . S
C1463 C1460 1.511 . S
C1463 H1477 0.961 . S
C1463 H1478 0.961 1_556 S
C1463 H1479 0.961 . S
C1464 C1465 1.370 . S
C1464 C1466 1.363 . S
C1464 H1480 0.931 . S
C1465 C1464 1.370 . S
C1465 C1469 1.408 . S
C1466 C1464 1.363 . S
C1466 C1467 1.370 . S
C1466 C1470 1.524 . S
C1467 C1459 1.503 1_554 S
C1467 C1466 1.370 . S
C1467 C1468 1.403 . S
C1468 C1467 1.403 . S
C1468 C1469 1.404 . S
C1468 C1471 1.539 . S
C1469 C1465 1.408 . S
C1469 C1468 1.404 . S
C1469 H1481 0.930 . S
C1470 C1466 1.524 . S
C1470 H1482 0.956 . S
C1470 H1483 0.963 1_554 S
C1470 H1484 0.961 . S
C1471 C1468 1.539 . S
C1471 H1485 0.958 . S
C1471 H1486 0.961 . S
C1471 H1487 0.960 1_554 S
H1472 C1456 0.931 . S
H1473 C1461 0.929 . S
H1474 C1462 0.960 1_554 S
H1475 C1462 0.962 . S
H1476 C1462 0.960 . S
H1477 C1463 0.961 . S
H1478 C1463 0.961 1_554 S
H1479 C1463 0.961 . S
H1480 C1464 0.931 . S
H1481 C1469 0.930 . S
H1482 C1470 0.956 . S
H1483 C1470 0.963 1_556 S
H1484 C1470 0.961 . S
H1485 C1471 0.958 . S
H1486 C1471 0.961 . S
H1487 C1471 0.960 1_556 S
C1488 C1489 1.391 . S
C1488 C1490 1.394 . S
C1488 H1504 0.931 . S
C1489 C1488 1.391 . S
C1489 C1493 1.376 . S
C1490 C1488 1.394 . S
C1490 C1491 1.369 . S
C1490 C1494 1.531 . S
C1491 C1490 1.369 . S
C1491 C1492 1.410 . S
C1491 C1499 1.503 . S
C1492 C1491 1.410 . S
C1492 C1493 1.392 . S
C1492 C1495 1.511 . S
C1493 C1489 1.376 . S
C1493 C1492 1.392 . S
C1493 H1505 0.929 . S
C1494 C1490 1.531 . S
C1494 H1506 0.960 . S
C1494 H1507 0.962 . S
C1494 H1508 0.960 . S
C1495 C1492 1.511 . S
C1495 H1509 0.961 . S
C1495 H1510 0.961 . S
C1495 H1511 0.961 . S
C1496 C1497 1.370 . S
C1496 C1498 1.363 . S
C1496 H1512 0.931 . S
C1497 C1496 1.370 . S
C1497 C1501 1.408 . S
C1498 C1496 1.363 . S
C1498 C1499 1.370 . S
C1498 C1502 1.524 . S
C1499 C1491 1.503 . S
C1499 C1498 1.370 . S
C1499 C1500 1.403 . S
C1500 C1499 1.403 . S
C1500 C1501 1.404 . S
C1500 C1503 1.539 . S
C1501 C1497 1.408 . S
C1501 C1500 1.404 . S
C1501 H1513 0.930 . S
C1502 C1498 1.524 . S
C1502 H1514 0.956 . S
C1502 H1515 0.961 . S
C1502 H1516 0.961 . S
C1503 C1500 1.539 . S
C1503 H1517 0.958 . S
C1503 H1518 0.961 . S
C1503 H1519 0.960 . S
H1504 C1488 0.931 . S
H1505 C1493 0.929 . S
H1506 C1494 0.960 . S
H1507 C1494 0.962 . S
H1508 C1494 0.960 . S
H1509 C1495 0.961 . S
H1510 C1495 0.961 . S
H1511 C1495 0.961 . S
H1512 C1496 0.931 . S
H1513 C1501 0.930 . S
H1514 C1502 0.956 . S
H1515 C1502 0.961 . S
H1516 C1502 0.961 . S
H1517 C1503 0.958 . S
H1518 C1503 0.961 . S
H1519 C1503 0.960 . S
C1520 C1521 1.391 . S
C1520 C1522 1.394 . S
C1520 H1536 0.931 . S
C1521 C1520 1.391 . S
C1521 C1525 1.376 . S
C1522 C1520 1.394 . S
C1522 C1523 1.369 . S
C1522 C1526 1.531 . S
C1523 C1522 1.369 . S
C1523 C1524 1.410 . S
C1523 C1531 1.503 . S
C1524 C1523 1.410 . S
C1524 C1525 1.392 . S
C1524 C1527 1.511 . S
C1525 C1521 1.376 . S
C1525 C1524 1.392 . S
C1525 H1537 0.929 . S
C1526 C1522 1.531 . S
C1526 H1538 0.960 . S
C1526 H1539 0.962 . S
C1526 H1540 0.960 . S
C1527 C1524 1.511 . S
C1527 H1541 0.961 . S
C1527 H1542 0.961 . S
C1527 H1543 0.961 . S
C1528 C1529 1.370 . S
C1528 C1530 1.363 . S
C1528 H1544 0.931 . S
C1529 C1528 1.370 . S
C1529 C1533 1.408 . S
C1530 C1528 1.363 . S
C1530 C1531 1.370 . S
C1530 C1534 1.524 . S
C1531 C1523 1.503 . S
C1531 C1530 1.370 . S
C1531 C1532 1.403 . S
C1532 C1531 1.403 . S
C1532 C1533 1.404 . S
C1532 C1535 1.539 . S
C1533 C1529 1.408 . S
C1533 C1532 1.404 . S
C1533 H1545 0.930 . S
C1534 C1530 1.524 . S
C1534 H1546 0.956 . S
C1534 H1547 0.961 . S
C1534 H1548 0.961 . S
C1535 C1532 1.539 . S
C1535 H1549 0.958 . S
C1535 H1550 0.961 . S
C1535 H1551 0.960 . S
H1536 C1520 0.931 . S
H1537 C1525 0.929 . S
H1538 C1526 0.960 . S
H1539 C1526 0.962 . S
H1540 C1526 0.960 . S
H1541 C1527 0.961 . S
H1542 C1527 0.961 . S
H1543 C1527 0.961 . S
H1544 C1528 0.931 . S
H1545 C1533 0.930 . S
H1546 C1534 0.956 . S
H1547 C1534 0.961 . S
H1548 C1534 0.961 . S
H1549 C1535 0.958 . S
H1550 C1535 0.961 . S
H1551 C1535 0.960 . S
C1552 C1553 1.391 . S
C1552 C1554 1.394 . S
C1552 H1568 0.931 . S
C1553 C1552 1.391 . S
C1553 C1557 1.376 . S
C1554 C1552 1.394 . S
C1554 C1555 1.369 . S
C1554 C1558 1.531 . S
C1555 C1554 1.369 . S
C1555 C1556 1.410 . S
C1555 C1563 1.503 . S
C1556 C1555 1.410 . S
C1556 C1557 1.392 . S
C1556 C1559 1.511 . S
C1557 C1553 1.376 . S
C1557 C1556 1.392 . S
C1557 H1569 0.929 . S
C1558 C1554 1.531 . S
C1558 H1570 0.960 . S
C1558 H1571 0.962 . S
C1558 H1572 0.960 . S
C1559 C1556 1.511 . S
C1559 H1573 0.961 . S
C1559 H1574 0.961 . S
C1559 H1575 0.961 . S
C1560 C1561 1.370 . S
C1560 C1562 1.363 . S
C1560 H1576 0.931 . S
C1561 C1560 1.370 . S
C1561 C1565 1.408 . S
C1562 C1560 1.363 . S
C1562 C1563 1.370 . S
C1562 C1566 1.524 . S
C1563 C1555 1.503 . S
C1563 C1562 1.370 . S
C1563 C1564 1.403 . S
C1564 C1563 1.403 . S
C1564 C1565 1.404 . S
C1564 C1567 1.539 . S
C1565 C1561 1.408 . S
C1565 C1564 1.404 . S
C1565 H1577 0.930 . S
C1566 C1562 1.524 . S
C1566 H1578 0.956 . S
C1566 H1579 0.961 . S
C1566 H1580 0.961 . S
C1567 C1564 1.539 . S
C1567 H1581 0.958 . S
C1567 H1582 0.961 . S
C1567 H1583 0.960 . S
H1568 C1552 0.931 . S
H1569 C1557 0.929 . S
H1570 C1558 0.960 . S
H1571 C1558 0.962 . S
H1572 C1558 0.960 . S
H1573 C1559 0.961 . S
H1574 C1559 0.961 . S
H1575 C1559 0.961 . S
H1576 C1560 0.931 . S
H1577 C1565 0.930 . S
H1578 C1566 0.956 . S
H1579 C1566 0.961 . S
H1580 C1566 0.961 . S
H1581 C1567 0.958 . S
H1582 C1567 0.961 . S
H1583 C1567 0.960 . S
C1584 C1585 1.391 . S
C1584 C1586 1.394 . S
C1584 H1600 0.931 . S
C1585 C1584 1.391 . S
C1585 C1589 1.376 . S
C1586 C1584 1.394 . S
C1586 C1587 1.369 . S
C1586 C1590 1.531 . S
C1587 C1586 1.369 . S
C1587 C1588 1.410 . S
C1587 C1595 1.503 . S
C1588 C1587 1.410 . S
C1588 C1589 1.392 . S
C1588 C1591 1.511 . S
C1589 C1585 1.376 . S
C1589 C1588 1.392 . S
C1589 H1601 0.929 . S
C1590 C1586 1.531 . S
C1590 H1602 0.960 . S
C1590 H1603 0.962 . S
C1590 H1604 0.960 . S
C1591 C1588 1.511 . S
C1591 H1605 0.961 . S
C1591 H1606 0.961 . S
C1591 H1607 0.961 . S
C1592 C1593 1.370 . S
C1592 C1594 1.363 . S
C1592 H1608 0.931 . S
C1593 C1592 1.370 . S
C1593 C1597 1.408 . S
C1594 C1592 1.363 . S
C1594 C1595 1.370 . S
C1594 C1598 1.524 . S
C1595 C1587 1.503 . S
C1595 C1594 1.370 . S
C1595 C1596 1.403 . S
C1596 C1595 1.403 . S
C1596 C1597 1.404 . S
C1596 C1599 1.539 . S
C1597 C1593 1.408 . S
C1597 C1596 1.404 . S
C1597 H1609 0.930 . S
C1598 C1594 1.524 . S
C1598 H1610 0.956 . S
C1598 H1611 0.961 . S
C1598 H1612 0.961 . S
C1599 C1596 1.539 . S
C1599 H1613 0.958 . S
C1599 H1614 0.961 . S
C1599 H1615 0.960 . S
H1600 C1584 0.931 . S
H1601 C1589 0.929 . S
H1602 C1590 0.960 . S
H1603 C1590 0.962 . S
H1604 C1590 0.960 . S
H1605 C1591 0.961 . S
H1606 C1591 0.961 . S
H1607 C1591 0.961 . S
H1608 C1592 0.931 . S
H1609 C1597 0.930 . S
H1610 C1598 0.956 . S
H1611 C1598 0.961 . S
H1612 C1598 0.961 . S
H1613 C1599 0.958 . S
H1614 C1599 0.961 . S
H1615 C1599 0.960 . S
C1616 C1617 1.391 . S
C1616 C1618 1.394 . S
C1616 H1632 0.931 . S
C1617 C1616 1.391 . S
C1617 C1621 1.376 . S
C1618 C1616 1.394 . S
C1618 C1619 1.369 . S
C1618 C1622 1.531 . S
C1619 C1618 1.369 . S
C1619 C1620 1.410 . S
C1619 C1627 1.503 . S
C1620 C1619 1.410 . S
C1620 C1621 1.392 . S
C1620 C1623 1.511 . S
C1621 C1617 1.376 . S
C1621 C1620 1.392 . S
C1621 H1633 0.929 . S
C1622 C1618 1.531 . S
C1622 H1634 0.960 . S
C1622 H1635 0.962 . S
C1622 H1636 0.960 . S
C1623 C1620 1.511 . S
C1623 H1637 0.961 . S
C1623 H1638 0.961 . S
C1623 H1639 0.961 . S
C1624 C1625 1.370 . S
C1624 C1626 1.363 . S
C1624 H1640 0.931 . S
C1625 C1624 1.370 . S
C1625 C1629 1.408 . S
C1626 C1624 1.363 . S
C1626 C1627 1.370 . S
C1626 C1630 1.524 . S
C1627 C1619 1.503 . S
C1627 C1626 1.370 . S
C1627 C1628 1.403 . S
C1628 C1627 1.403 . S
C1628 C1629 1.404 . S
C1628 C1631 1.539 . S
C1629 C1625 1.408 . S
C1629 C1628 1.404 . S
C1629 H1641 0.930 . S
C1630 C1626 1.524 . S
C1630 H1642 0.956 . S
C1630 H1643 0.961 . S
C1630 H1644 0.961 . S
C1631 C1628 1.539 . S
C1631 H1645 0.958 . S
C1631 H1646 0.961 . S
C1631 H1647 0.960 . S
H1632 C1616 0.931 . S
H1633 C1621 0.929 . S
H1634 C1622 0.960 . S
H1635 C1622 0.962 . S
H1636 C1622 0.960 . S
H1637 C1623 0.961 . S
H1638 C1623 0.961 . S
H1639 C1623 0.961 . S
H1640 C1624 0.931 . S
H1641 C1629 0.930 . S
H1642 C1630 0.956 . S
H1643 C1630 0.961 . S
H1644 C1630 0.961 . S
H1645 C1631 0.958 . S
H1646 C1631 0.961 . S
H1647 C1631 0.960 . S
C1648 C1649 1.391 . S
C1648 C1650 1.394 . S
C1648 H1664 0.931 . S
C1649 C1648 1.391 . S
C1649 C1653 1.376 . S
C1650 C1648 1.394 . S
C1650 C1651 1.369 . S
C1650 C1654 1.531 . S
C1651 C1650 1.369 . S
C1651 C1652 1.410 . S
C1651 C1659 1.503 . S
C1652 C1651 1.410 . S
C1652 C1653 1.392 . S
C1652 C1655 1.511 . S
C1653 C1649 1.376 . S
C1653 C1652 1.392 . S
C1653 H1665 0.929 . S
C1654 C1650 1.531 . S
C1654 H1666 0.960 . S
C1654 H1667 0.962 . S
C1654 H1668 0.960 . S
C1655 C1652 1.511 . S
C1655 H1669 0.961 . S
C1655 H1670 0.961 . S
C1655 H1671 0.961 . S
C1656 C1657 1.370 . S
C1656 C1658 1.363 . S
C1656 H1672 0.931 . S
C1657 C1656 1.370 . S
C1657 C1661 1.408 . S
C1658 C1656 1.363 . S
C1658 C1659 1.370 . S
C1658 C1662 1.524 . S
C1659 C1651 1.503 . S
C1659 C1658 1.370 . S
C1659 C1660 1.403 . S
C1660 C1659 1.403 . S
C1660 C1661 1.404 . S
C1660 C1663 1.539 . S
C1661 C1657 1.408 . S
C1661 C1660 1.404 . S
C1661 H1673 0.930 . S
C1662 C1658 1.524 . S
C1662 H1674 0.956 . S
C1662 H1675 0.961 . S
C1662 H1676 0.961 . S
C1663 C1660 1.539 . S
C1663 H1677 0.958 . S
C1663 H1678 0.961 . S
C1663 H1679 0.960 . S
H1664 C1648 0.931 . S
H1665 C1653 0.929 . S
H1666 C1654 0.960 . S
H1667 C1654 0.962 . S
H1668 C1654 0.960 . S
H1669 C1655 0.961 . S
H1670 C1655 0.961 . S
H1671 C1655 0.961 . S
H1672 C1656 0.931 . S
H1673 C1661 0.930 . S
H1674 C1662 0.956 . S
H1675 C1662 0.961 . S
H1676 C1662 0.961 . S
H1677 C1663 0.958 . S
H1678 C1663 0.961 . S
H1679 C1663 0.960 . S
C1680 C1681 1.391 . S
C1680 C1682 1.394 . S
C1680 H1696 0.931 . S
C1681 C1680 1.391 . S
C1681 C1685 1.376 . S
C1682 C1680 1.394 . S
C1682 C1683 1.369 . S
C1682 C1686 1.531 . S
C1683 C1682 1.369 . S
C1683 C1684 1.410 . S
C1683 C1691 1.503 . S
C1684 C1683 1.410 . S
C1684 C1685 1.392 . S
C1684 C1687 1.511 . S
C1685 C1681 1.376 . S
C1685 C1684 1.392 . S
C1685 H1697 0.929 . S
C1686 C1682 1.531 . S
C1686 H1698 0.960 . S
C1686 H1699 0.962 . S
C1686 H1700 0.960 . S
C1687 C1684 1.511 . S
C1687 H1701 0.961 . S
C1687 H1702 0.961 . S
C1687 H1703 0.961 . S
C1688 C1689 1.370 . S
C1688 C1690 1.363 . S
C1688 H1704 0.931 . S
C1689 C1688 1.370 . S
C1689 C1693 1.408 . S
C1690 C1688 1.363 . S
C1690 C1691 1.370 . S
C1690 C1694 1.524 . S
C1691 C1683 1.503 . S
C1691 C1690 1.370 . S
C1691 C1692 1.403 . S
C1692 C1691 1.403 . S
C1692 C1693 1.404 . S
C1692 C1695 1.539 . S
C1693 C1689 1.408 . S
C1693 C1692 1.404 . S
C1693 H1705 0.930 . S
C1694 C1690 1.524 . S
C1694 H1706 0.956 . S
C1694 H1707 0.961 . S
C1694 H1708 0.961 . S
C1695 C1692 1.539 . S
C1695 H1709 0.958 . S
C1695 H1710 0.961 . S
C1695 H1711 0.960 . S
H1696 C1680 0.931 . S
H1697 C1685 0.929 . S
H1698 C1686 0.960 . S
H1699 C1686 0.962 . S
H1700 C1686 0.960 . S
H1701 C1687 0.961 . S
H1702 C1687 0.961 . S
H1703 C1687 0.961 . S
H1704 C1688 0.931 . S
H1705 C1693 0.930 . S
H1706 C1694 0.956 . S
H1707 C1694 0.961 . S
H1708 C1694 0.961 . S
H1709 C1695 0.958 . S
H1710 C1695 0.961 . S
H1711 C1695 0.960 . S
C1712 C1713 1.391 . S
C1712 C1714 1.394 . S
C1712 H1728 0.931 . S
C1713 C1712 1.391 . S
C1713 C1717 1.376 . S
C1714 C1712 1.394 . S
C1714 C1715 1.369 . S
C1714 C1718 1.531 . S
C1715 C1714 1.369 . S
C1715 C1716 1.410 . S
C1715 C1723 1.503 . S
C1716 C1715 1.410 . S
C1716 C1717 1.392 . S
C1716 C1719 1.511 . S
C1717 C1713 1.376 . S
C1717 C1716 1.392 . S
C1717 H1729 0.929 . S
C1718 C1714 1.531 . S
C1718 H1730 0.960 . S
C1718 H1731 0.962 . S
C1718 H1732 0.960 . S
C1719 C1716 1.511 . S
C1719 H1733 0.961 . S
C1719 H1734 0.961 . S
C1719 H1735 0.961 . S
C1720 C1721 1.370 . S
C1720 C1722 1.363 . S
C1720 H1736 0.931 . S
C1721 C1720 1.370 . S
C1721 C1725 1.408 . S
C1722 C1720 1.363 . S
C1722 C1723 1.370 . S
C1722 C1726 1.524 . S
C1723 C1715 1.503 . S
C1723 C1722 1.370 . S
C1723 C1724 1.403 . S
C1724 C1723 1.403 . S
C1724 C1725 1.404 . S
C1724 C1727 1.539 . S
C1725 C1721 1.408 . S
C1725 C1724 1.404 . S
C1725 H1737 0.930 . S
C1726 C1722 1.524 . S
C1726 H1738 0.956 . S
C1726 H1739 0.961 . S
C1726 H1740 0.961 . S
C1727 C1724 1.539 . S
C1727 H1741 0.958 . S
C1727 H1742 0.961 . S
C1727 H1743 0.960 . S
H1728 C1712 0.931 . S
H1729 C1717 0.929 . S
H1730 C1718 0.960 . S
H1731 C1718 0.962 . S
H1732 C1718 0.960 . S
H1733 C1719 0.961 . S
H1734 C1719 0.961 . S
H1735 C1719 0.961 . S
H1736 C1720 0.931 . S
H1737 C1725 0.930 . S
H1738 C1726 0.956 . S
H1739 C1726 0.961 . S
H1740 C1726 0.961 . S
H1741 C1727 0.958 . S
H1742 C1727 0.961 . S
H1743 C1727 0.960 . S
C1744 C1745 1.391 . S
C1744 C1746 1.394 . S
C1744 H1760 0.931 . S
C1745 C1744 1.391 . S
C1745 C1749 1.376 . S
C1746 C1744 1.394 . S
C1746 C1747 1.369 . S
C1746 C1750 1.531 . S
C1747 C1746 1.369 . S
C1747 C1748 1.410 . S
C1747 C1755 1.503 . S
C1748 C1747 1.410 . S
C1748 C1749 1.392 . S
C1748 C1751 1.511 . S
C1749 C1745 1.376 . S
C1749 C1748 1.392 . S
C1749 H1761 0.929 . S
C1750 C1746 1.531 . S
C1750 H1762 0.960 . S
C1750 H1763 0.962 . S
C1750 H1764 0.960 . S
C1751 C1748 1.511 . S
C1751 H1765 0.961 . S
C1751 H1766 0.961 . S
C1751 H1767 0.961 . S
C1752 C1753 1.370 . S
C1752 C1754 1.363 . S
C1752 H1768 0.931 . S
C1753 C1752 1.370 . S
C1753 C1757 1.408 . S
C1754 C1752 1.363 . S
C1754 C1755 1.370 . S
C1754 C1758 1.524 . S
C1755 C1747 1.503 . S
C1755 C1754 1.370 . S
C1755 C1756 1.403 . S
C1756 C1755 1.403 . S
C1756 C1757 1.404 . S
C1756 C1759 1.539 . S
C1757 C1753 1.408 . S
C1757 C1756 1.404 . S
C1757 H1769 0.930 . S
C1758 C1754 1.524 . S
C1758 H1770 0.956 . S
C1758 H1771 0.961 . S
C1758 H1772 0.961 . S
C1759 C1756 1.539 . S
C1759 H1773 0.958 . S
C1759 H1774 0.961 . S
C1759 H1775 0.960 . S
H1760 C1744 0.931 . S
H1761 C1749 0.929 . S
H1762 C1750 0.960 . S
H1763 C1750 0.962 . S
H1764 C1750 0.960 . S
H1765 C1751 0.961 . S
H1766 C1751 0.961 . S
H1767 C1751 0.961 . S
H1768 C1752 0.931 . S
H1769 C1757 0.930 . S
H1770 C1758 0.956 . S
H1771 C1758 0.961 . S
H1772 C1758 0.961 . S
H1773 C1759 0.958 . S
H1774 C1759 0.961 . S
H1775 C1759 0.960 . S
C1776 C1777 1.391 . S
C1776 C1778 1.394 . S
C1776 H1792 0.931 . S
C1777 C1776 1.391 . S
C1777 C1781 1.376 . S
C1778 C1776 1.394 . S
C1778 C1779 1.369 . S
C1778 C1782 1.531 . S
C1779 C1778 1.369 . S
C1779 C1780 1.410 . S
C1779 C1787 1.503 . S
C1780 C1779 1.410 . S
C1780 C1781 1.392 . S
C1780 C1783 1.511 . S
C1781 C1777 1.376 . S
C1781 C1780 1.392 . S
C1781 H1793 0.929 . S
C1782 C1778 1.531 . S
C1782 H1794 0.960 . S
C1782 H1795 0.962 . S
C1782 H1796 0.960 . S
C1783 C1780 1.511 . S
C1783 H1797 0.961 . S
C1783 H1798 0.961 . S
C1783 H1799 0.961 . S
C1784 C1785 1.370 . S
C1784 C1786 1.363 . S
C1784 H1800 0.931 . S
C1785 C1784 1.370 . S
C1785 C1789 1.408 . S
C1786 C1784 1.363 . S
C1786 C1787 1.370 . S
C1786 C1790 1.524 . S
C1787 C1779 1.503 . S
C1787 C1786 1.370 . S
C1787 C1788 1.403 . S
C1788 C1787 1.403 . S
C1788 C1789 1.404 . S
C1788 C1791 1.539 . S
C1789 C1785 1.408 . S
C1789 C1788 1.404 . S
C1789 H1801 0.930 . S
C1790 C1786 1.524 . S
C1790 H1802 0.956 . S
C1790 H1803 0.961 . S
C1790 H1804 0.961 . S
C1791 C1788 1.539 . S
C1791 H1805 0.958 . S
C1791 H1806 0.961 . S
C1791 H1807 0.960 . S
H1792 C1776 0.931 . S
H1793 C1781 0.929 . S
H1794 C1782 0.960 . S
H1795 C1782 0.962 . S
H1796 C1782 0.960 . S
H1797 C1783 0.961 . S
H1798 C1783 0.961 . S
H1799 C1783 0.961 . S
H1800 C1784 0.931 . S
H1801 C1789 0.930 . S
H1802 C1790 0.956 . S
H1803 C1790 0.961 . S
H1804 C1790 0.961 . S
H1805 C1791 0.958 . S
H1806 C1791 0.961 . S
H1807 C1791 0.960 . S
C1808 C1809 1.391 . S
C1808 C1810 1.394 . S
C1808 H1824 0.931 . S
C1809 C1808 1.391 . S
C1809 C1813 1.376 . S
C1810 C1808 1.394 . S
C1810 C1811 1.369 . S
C1810 C1814 1.531 . S
C1811 C1810 1.369 . S
C1811 C1812 1.410 . S
C1811 C1819 1.503 . S
C1812 C1811 1.410 . S
C1812 C1813 1.392 . S
C1812 C1815 1.511 . S
C1813 C1809 1.376 . S
C1813 C1812 1.392 . S
C1813 H1825 0.929 . S
C1814 C1810 1.531 . S
C1814 H1826 0.960 . S
C1814 H1827 0.962 . S
C1814 H1828 0.960 . S
C1815 C1812 1.511 . S
C1815 H1829 0.961 . S
C1815 H1830 0.961 . S
C1815 H1831 0.961 . S
C1816 C1817 1.370 . S
C1816 C1818 1.363 . S
C1816 H1832 0.931 . S
C1817 C1816 1.370 . S
C1817 C1821 1.408 . S
C1818 C1816 1.363 . S
C1818 C1819 1.370 . S
C1818 C1822 1.524 . S
C1819 C1811 1.503 . S
C1819 C1818 1.370 . S
C1819 C1820 1.403 . S
C1820 C1819 1.403 . S
C1820 C1821 1.404 . S
C1820 C1823 1.539 . S
C1821 C1817 1.408 . S
C1821 C1820 1.404 . S
C1821 H1833 0.930 . S
C1822 C1818 1.524 . S
C1822 H1834 0.956 . S
C1822 H1835 0.961 . S
C1822 H1836 0.961 . S
C1823 C1820 1.539 . S
C1823 H1837 0.958 . S
C1823 H1838 0.961 . S
C1823 H1839 0.960 . S
H1824 C1808 0.931 . S
H1825 C1813 0.929 . S
H1826 C1814 0.960 . S
H1827 C1814 0.962 . S
H1828 C1814 0.960 . S
H1829 C1815 0.961 . S
H1830 C1815 0.961 . S
H1831 C1815 0.961 . S
H1832 C1816 0.931 . S
H1833 C1821 0.930 . S
H1834 C1822 0.956 . S
H1835 C1822 0.961 . S
H1836 C1822 0.961 . S
H1837 C1823 0.958 . S
H1838 C1823 0.961 . S
H1839 C1823 0.960 . S
C1840 C1841 1.391 . S
C1840 C1842 1.394 . S
C1840 H1856 0.931 . S
C1841 C1840 1.391 . S
C1841 C1845 1.376 . S
C1842 C1840 1.394 . S
C1842 C1843 1.369 . S
C1842 C1846 1.531 . S
C1843 C1842 1.369 . S
C1843 C1844 1.410 . S
C1843 C1851 1.503 . S
C1844 C1843 1.410 . S
C1844 C1845 1.392 . S
C1844 C1847 1.511 . S
C1845 C1841 1.376 . S
C1845 C1844 1.392 . S
C1845 H1857 0.929 . S
C1846 C1842 1.531 . S
C1846 H1858 0.960 . S
C1846 H1859 0.962 . S
C1846 H1860 0.960 . S
C1847 C1844 1.511 . S
C1847 H1861 0.961 . S
C1847 H1862 0.961 . S
C1847 H1863 0.961 . S
C1848 C1849 1.370 . S
C1848 C1850 1.363 . S
C1848 H1864 0.931 . S
C1849 C1848 1.370 . S
C1849 C1853 1.408 . S
C1850 C1848 1.363 . S
C1850 C1851 1.370 . S
C1850 C1854 1.524 . S
C1851 C1843 1.503 . S
C1851 C1850 1.370 . S
C1851 C1852 1.403 . S
C1852 C1851 1.403 . S
C1852 C1853 1.404 . S
C1852 C1855 1.539 . S
C1853 C1849 1.408 . S
C1853 C1852 1.404 . S
C1853 H1865 0.930 . S
C1854 C1850 1.524 . S
C1854 H1866 0.956 . S
C1854 H1867 0.961 . S
C1854 H1868 0.961 . S
C1855 C1852 1.539 . S
C1855 H1869 0.958 . S
C1855 H1870 0.961 . S
C1855 H1871 0.960 . S
H1856 C1840 0.931 . S
H1857 C1845 0.929 . S
H1858 C1846 0.960 . S
H1859 C1846 0.962 . S
H1860 C1846 0.960 . S
H1861 C1847 0.961 . S
H1862 C1847 0.961 . S
H1863 C1847 0.961 . S
H1864 C1848 0.931 . S
H1865 C1853 0.930 . S
H1866 C1854 0.956 . S
H1867 C1854 0.961 . S
H1868 C1854 0.961 . S
H1869 C1855 0.958 . S
H1870 C1855 0.961 . S
H1871 C1855 0.960 . S
C337 C163 1.437 . S
C345 C0 1.397 . S
C369 C14 1.413 . S
C377 C121 1.452 . S
C401 C28 1.378 . S
C409 C135 1.447 . S
C433 C42 1.395 . S
C441 C149 1.450 . S
C465 C191 1.459 . S
C473 C56 1.421 . S
C497 C70 1.417 . S
C505 C205 1.453 . S
C529 C219 1.459 . S
C537 C84 1.420 . S
C561 C177 1.438 . S
C569 C98 1.397 . S
C593 C79 1.452 . S
C601 C112 1.412 . S
C625 C93 1.435 . S
C633 C126 1.394 . S
C657 C140 1.372 . S
C665 C107 1.446 . S
C689 C65 1.446 . S
C697 C154 1.405 . S
C721 C51 1.443 . S
C729 C168 1.404 . S
C753 C182 1.421 . S
C761 C9 1.453 . S
C785 C196 1.433 . S
C793 C23 1.456 . S
C817 C210 1.381 . S
C825 C37 1.448 . S
C849 C224 1.408 . S
C857 C331 1.451 . S
C881 C289 1.436 . S
C889 C238 1.396 . S
C913 C252 1.375 . S
C921 C247 1.447 . S
C945 C266 1.428 . S
C953 C261 1.455 . S
C977 C275 1.438 . S
C985 C280 1.398 . S
C1009 C294 1.398 . S
C1017 C317 1.450 . S
C1041 C233 1.456 . S
C1049 C308 1.418 . S
C1073 C303 1.444 . S
C1081 C322 1.403 . S
C1105 C5 1.527 . S
C1113 C89 1.525 . S
C1137 C19 1.518 . S
C1145 C103 1.523 . S
C1169 C33 1.527 . S
C1177 C61 1.525 . S
C1201 C75 1.513 . S
C1209 C47 1.521 . S
C1233 C145 1.527 . S
C1241 C117 1.525 . S
C1265 C131 1.515 . S
C1273 C159 1.522 . S
C1297 C173 1.509 . S
C1305 C201 1.518 . S
C1329 C215 1.516 . S
C1337 C187 1.522 . S
C1361 C243 1.510 . S
C1369 C229 1.519 . S
C1393 C257 1.524 . S
C1401 C327 1.525 . S
C1425 C271 1.509 . S
C1433 C299 1.519 . S
C1457 C285 1.514 . S
C1465 C313 1.521 . S
C1489 C11 1.026 . S
C1497 C81 1.035 . S
C1521 C25 1.018 . S
C1529 C95 1.030 . S
C1553 C39 1.042 . S
C1561 C109 1.035 . S
C1585 C67 1.020 . S
C1593 C53 1.032 . S
C1617 C123 1.022 . S
C1625 C333 1.027 . S
C1649 C137 1.030 . S
C1657 C305 1.029 . S
C1681 C319 1.018 . S
C1689 C151 1.027 . S
C1713 C165 1.043 . S
C1721 C235 1.035 . S
C1745 C291 1.044 . S
C1753 C179 1.038 . S
C1777 C249 1.034 . S
C1785 C193 1.030 . S
C1809 C207 1.043 . S
C1817 C263 1.035 . S
C1841 C277 1.042 . S
C1849 C221 1.034 . S
