# Generated by pormake.
# Topology umu, (4)-cn, num edge types: 1
# Building blocks:
#     Node 0, Type 0, BuildingBlock: NAHDIM_clean_sbu_0, # of connection points: 4
#     Node 1, Type 0, BuildingBlock: NAHDIM_clean_sbu_0, # of connection points: 4
#     Node 2, Type 0, BuildingBlock: NAHDIM_clean_sbu_0, # of connection points: 4
#     Node 3, Type 0, BuildingBlock: NAHDIM_clean_sbu_0, # of connection points: 4
#     Node 4, Type 0, BuildingBlock: NAHDIM_clean_sbu_0, # of connection points: 4
#     Node 5, Type 0, BuildingBlock: NAHDIM_clean_sbu_0, # of connection points: 4
#     Node 6, Type 0, BuildingBlock: NAHDIM_clean_sbu_0, # of connection points: 4
#     Node 7, Type 0, BuildingBlock: NAHDIM_clean_sbu_0, # of connection points: 4
#     Node 8, Type 0, BuildingBlock: NAHDIM_clean_sbu_0, # of connection points: 4
#     Node 9, Type 0, BuildingBlock: NAHDIM_clean_sbu_0, # of connection points: 4
#     Node 10, Type 0, BuildingBlock: NAHDIM_clean_sbu_0, # of connection points: 4
#     Node 11, Type 0, BuildingBlock: NAHDIM_clean_sbu_0, # of connection points: 4
#     Node 12, Type 0, BuildingBlock: NAHDIM_clean_sbu_0, # of connection points: 4
#     Node 13, Type 0, BuildingBlock: NAHDIM_clean_sbu_0, # of connection points: 4
#     Node 14, Type 0, BuildingBlock: NAHDIM_clean_sbu_0, # of connection points: 4
#     Node 15, Type 0, BuildingBlock: NAHDIM_clean_sbu_0, # of connection points: 4
#     Node 16, Type 0, BuildingBlock: NAHDIM_clean_sbu_0, # of connection points: 4
#     Node 17, Type 0, BuildingBlock: NAHDIM_clean_sbu_0, # of connection points: 4
#     Node 18, Type 0, BuildingBlock: NAHDIM_clean_sbu_0, # of connection points: 4
#     Node 19, Type 0, BuildingBlock: NAHDIM_clean_sbu_0, # of connection points: 4
#     Node 20, Type 0, BuildingBlock: NAHDIM_clean_sbu_0, # of connection points: 4
#     Node 21, Type 0, BuildingBlock: NAHDIM_clean_sbu_0, # of connection points: 4
#     Node 22, Type 0, BuildingBlock: NAHDIM_clean_sbu_0, # of connection points: 4
#     Node 23, Type 0, BuildingBlock: NAHDIM_clean_sbu_0, # of connection points: 4
#     Node 24, Type 0, BuildingBlock: NAHDIM_clean_sbu_0, # of connection points: 4
#     Node 25, Type 0, BuildingBlock: NAHDIM_clean_sbu_0, # of connection points: 4
#     Node 26, Type 0, BuildingBlock: NAHDIM_clean_sbu_0, # of connection points: 4
#     Node 27, Type 0, BuildingBlock: NAHDIM_clean_sbu_0, # of connection points: 4
#     Node 28, Type 0, BuildingBlock: NAHDIM_clean_sbu_0, # of connection points: 4
#     Node 29, Type 0, BuildingBlock: NAHDIM_clean_sbu_0, # of connection points: 4
#     Node 30, Type 0, BuildingBlock: NAHDIM_clean_sbu_0, # of connection points: 4
#     Node 31, Type 0, BuildingBlock: NAHDIM_clean_sbu_0, # of connection points: 4
#     Edge 32, Type (0, 0), BuildingBlock: CIFDUS_clean_linker_0, # of connection points: 2
#     Edge 33, Type (0, 0), BuildingBlock: CIFDUS_clean_linker_0, # of connection points: 2
#     Edge 34, Type (0, 0), BuildingBlock: CIFDUS_clean_linker_0, # of connection points: 2
#     Edge 35, Type (0, 0), BuildingBlock: CIFDUS_clean_linker_0, # of connection points: 2
#     Edge 36, Type (0, 0), BuildingBlock: CIFDUS_clean_linker_0, # of connection points: 2
#     Edge 37, Type (0, 0), BuildingBlock: CIFDUS_clean_linker_0, # of connection points: 2
#     Edge 38, Type (0, 0), BuildingBlock: CIFDUS_clean_linker_0, # of connection points: 2
#     Edge 39, Type (0, 0), BuildingBlock: CIFDUS_clean_linker_0, # of connection points: 2
#     Edge 40, Type (0, 0), BuildingBlock: CIFDUS_clean_linker_0, # of connection points: 2
#     Edge 41, Type (0, 0), BuildingBlock: CIFDUS_clean_linker_0, # of connection points: 2
#     Edge 42, Type (0, 0), BuildingBlock: CIFDUS_clean_linker_0, # of connection points: 2
#     Edge 43, Type (0, 0), BuildingBlock: CIFDUS_clean_linker_0, # of connection points: 2
#     Edge 44, Type (0, 0), BuildingBlock: CIFDUS_clean_linker_0, # of connection points: 2
#     Edge 45, Type (0, 0), BuildingBlock: CIFDUS_clean_linker_0, # of connection points: 2
#     Edge 46, Type (0, 0), BuildingBlock: CIFDUS_clean_linker_0, # of connection points: 2
#     Edge 47, Type (0, 0), BuildingBlock: CIFDUS_clean_linker_0, # of connection points: 2
#     Edge 48, Type (0, 0), BuildingBlock: CIFDUS_clean_linker_0, # of connection points: 2
#     Edge 49, Type (0, 0), BuildingBlock: CIFDUS_clean_linker_0, # of connection points: 2
#     Edge 50, Type (0, 0), BuildingBlock: CIFDUS_clean_linker_0, # of connection points: 2
#     Edge 51, Type (0, 0), BuildingBlock: CIFDUS_clean_linker_0, # of connection points: 2
#     Edge 52, Type (0, 0), BuildingBlock: CIFDUS_clean_linker_0, # of connection points: 2
#     Edge 53, Type (0, 0), BuildingBlock: CIFDUS_clean_linker_0, # of connection points: 2
#     Edge 54, Type (0, 0), BuildingBlock: CIFDUS_clean_linker_0, # of connection points: 2
#     Edge 55, Type (0, 0), BuildingBlock: CIFDUS_clean_linker_0, # of connection points: 2
#     Edge 56, Type (0, 0), BuildingBlock: CIFDUS_clean_linker_0, # of connection points: 2
#     Edge 57, Type (0, 0), BuildingBlock: CIFDUS_clean_linker_0, # of connection points: 2
#     Edge 58, Type (0, 0), BuildingBlock: CIFDUS_clean_linker_0, # of connection points: 2
#     Edge 59, Type (0, 0), BuildingBlock: CIFDUS_clean_linker_0, # of connection points: 2
#     Edge 60, Type (0, 0), BuildingBlock: CIFDUS_clean_linker_0, # of connection points: 2
#     Edge 61, Type (0, 0), BuildingBlock: CIFDUS_clean_linker_0, # of connection points: 2
#     Edge 62, Type (0, 0), BuildingBlock: CIFDUS_clean_linker_0, # of connection points: 2
#     Edge 63, Type (0, 0), BuildingBlock: CIFDUS_clean_linker_0, # of connection points: 2
#     Edge 64, Type (0, 0), BuildingBlock: CIFDUS_clean_linker_0, # of connection points: 2
#     Edge 65, Type (0, 0), BuildingBlock: CIFDUS_clean_linker_0, # of connection points: 2
#     Edge 66, Type (0, 0), BuildingBlock: CIFDUS_clean_linker_0, # of connection points: 2
#     Edge 67, Type (0, 0), BuildingBlock: CIFDUS_clean_linker_0, # of connection points: 2
#     Edge 68, Type (0, 0), BuildingBlock: CIFDUS_clean_linker_0, # of connection points: 2
#     Edge 69, Type (0, 0), BuildingBlock: CIFDUS_clean_linker_0, # of connection points: 2
#     Edge 70, Type (0, 0), BuildingBlock: CIFDUS_clean_linker_0, # of connection points: 2
#     Edge 71, Type (0, 0), BuildingBlock: CIFDUS_clean_linker_0, # of connection points: 2
#     Edge 72, Type (0, 0), BuildingBlock: CIFDUS_clean_linker_0, # of connection points: 2
#     Edge 73, Type (0, 0), BuildingBlock: CIFDUS_clean_linker_0, # of connection points: 2
#     Edge 74, Type (0, 0), BuildingBlock: CIFDUS_clean_linker_0, # of connection points: 2
#     Edge 75, Type (0, 0), BuildingBlock: CIFDUS_clean_linker_0, # of connection points: 2
#     Edge 76, Type (0, 0), BuildingBlock: CIFDUS_clean_linker_0, # of connection points: 2
#     Edge 77, Type (0, 0), BuildingBlock: CIFDUS_clean_linker_0, # of connection points: 2
#     Edge 78, Type (0, 0), BuildingBlock: CIFDUS_clean_linker_0, # of connection points: 2
#     Edge 79, Type (0, 0), BuildingBlock: CIFDUS_clean_linker_0, # of connection points: 2
#     Edge 80, Type (0, 0), BuildingBlock: CIFDUS_clean_linker_0, # of connection points: 2
#     Edge 81, Type (0, 0), BuildingBlock: CIFDUS_clean_linker_0, # of connection points: 2
#     Edge 82, Type (0, 0), BuildingBlock: CIFDUS_clean_linker_0, # of connection points: 2
#     Edge 83, Type (0, 0), BuildingBlock: CIFDUS_clean_linker_0, # of connection points: 2
#     Edge 84, Type (0, 0), BuildingBlock: CIFDUS_clean_linker_0, # of connection points: 2
#     Edge 85, Type (0, 0), BuildingBlock: CIFDUS_clean_linker_0, # of connection points: 2
#     Edge 86, Type (0, 0), BuildingBlock: CIFDUS_clean_linker_0, # of connection points: 2
#     Edge 87, Type (0, 0), BuildingBlock: CIFDUS_clean_linker_0, # of connection points: 2
#     Edge 88, Type (0, 0), BuildingBlock: CIFDUS_clean_linker_0, # of connection points: 2
#     Edge 89, Type (0, 0), BuildingBlock: CIFDUS_clean_linker_0, # of connection points: 2
#     Edge 90, Type (0, 0), BuildingBlock: CIFDUS_clean_linker_0, # of connection points: 2
#     Edge 91, Type (0, 0), BuildingBlock: CIFDUS_clean_linker_0, # of connection points: 2
#     Edge 92, Type (0, 0), BuildingBlock: CIFDUS_clean_linker_0, # of connection points: 2
#     Edge 93, Type (0, 0), BuildingBlock: CIFDUS_clean_linker_0, # of connection points: 2
#     Edge 94, Type (0, 0), BuildingBlock: CIFDUS_clean_linker_0, # of connection points: 2
#     Edge 95, Type (0, 0), BuildingBlock: CIFDUS_clean_linker_0, # of connection points: 2
# Relax obj value: 0.141
# Max RMSD: 0.103
# Mean RMSD: 0.103
data_MOF--net-umu--node1-NAHDIM_clean_sbu_0--edge1-CIFDUS_clean_linker_0
_symmetry_space_group_name_H-M    P1
_symmetry_Int_Tables_number       1
_symmetry_cell_setting            triclinic
loop_
_symmetry_equiv_pos_as_xyz
'x, y, z'
_cell_length_a     76.977872
_cell_length_b     77.003275
_cell_length_c     20.545716
_cell_angle_alpha  90.007308
_cell_angle_beta   90.01791
_cell_angle_gamma 90.022464
loop_
_atom_site_label
_atom_site_type_symbol
_atom_site_fract_x
_atom_site_fract_y
_atom_site_fract_z
_atom_type_partial_charge
C0 C 0.18146 0.13385 0.02408 0.0
O1 O 0.19775 0.131 0.00825 0.0
O2 O 0.21264 0.1599 0.13994 0.0
Zn3 Zn 0.1967 0.16554 0.06384 0.0
O4 O 0.20945 0.16628 0.97838 0.0
C5 C 0.18757 0.19844 0.12633 0.0
O6 O 0.19459 0.19159 0.17865 0.0
O7 O 0.1776 0.14793 0.053 0.0
C8 C 0.22218 0.17628 0.96671 0.0
O9 O 0.22832 0.18628 0.0132 0.0
C10 C 0.22826 0.15476 0.13365 0.0
O11 O 0.2345 0.15191 0.07515 0.0
O12 O 0.1866 0.18945 0.07461 0.0
C13 C 0.11141 0.92805 0.30036 0.0
O14 O 0.11536 0.94463 0.29728 0.0
O15 O 0.08569 0.95649 0.42374 0.0
Zn16 Zn 0.08 0.94305 0.34234 0.0
O17 O 0.08175 0.95988 0.26832 0.0
C18 C 0.04744 0.93093 0.39845 0.0
O19 O 0.0559 0.9318 0.4539 0.0
O20 O 0.09667 0.92367 0.32293 0.0
C21 C 0.07326 0.95797 0.21583 0.0
O22 O 0.06293 0.9445 0.20922 0.0
C23 C 0.07737 0.9707 0.42861 0.0
O24 O 0.0661 0.97474 0.38301 0.0
O25 O 0.05534 0.93454 0.34589 0.0
C26 C 0.31589 0.86272 0.53012 0.0
O27 O 0.29989 0.86712 0.54507 0.0
O28 O 0.29019 0.83771 0.64571 0.0
Zn29 Zn 0.30128 0.83026 0.56055 0.0
O30 O 0.28424 0.83007 0.48619 0.0
C31 C 0.31289 0.79859 0.62452 0.0
O32 O 0.31144 0.80792 0.6778 0.0
O33 O 0.32033 0.84688 0.53502 0.0
C34 C 0.26921 0.82329 0.48797 0.0
O35 O 0.26355 0.81626 0.54222 0.0
C36 C 0.27597 0.84595 0.65206 0.0
O37 O 0.26734 0.85079 0.6 0.0
O38 O 0.31 0.80571 0.56971 0.0
C39 C 0.37397 0.06281 0.76491 0.0
O40 O 0.36843 0.0472 0.78027 0.0
O41 O 0.3965 0.03505 0.88179 0.0
Zn42 Zn 0.40519 0.04623 0.79829 0.0
O43 O 0.40462 0.0289 0.72536 0.0
C44 C 0.43965 0.04155 0.83747 0.0
O45 O 0.43231 0.02685 0.85465 0.0
O46 O 0.39004 0.06623 0.77097 0.0
C47 C 0.41332 0.0317 0.6739 0.0
O48 O 0.4225 0.04603 0.66923 0.0
C49 C 0.39425 0.0187 0.8853 0.0
O50 O 0.3964 0.00922 0.83277 0.0
O51 O 0.43031 0.05321 0.81113 0.0
C52 C 0.18144 0.87108 0.10959 0.0
O53 O 0.19776 0.87491 0.09752 0.0
O54 O 0.20547 0.84604 0.98412 0.0
Zn55 Zn 0.19337 0.83826 0.06672 0.0
O56 O 0.20998 0.83477 0.14128 0.0
C57 C 0.17726 0.81086 0.99168 0.0
O58 O 0.17927 0.8219 0.94353 0.0
O59 O 0.17598 0.85587 0.09716 0.0
C60 C 0.224 0.8261 0.13917 0.0
O61 O 0.22888 0.81884 0.08428 0.0
C62 C 0.22094 0.85169 0.97929 0.0
O63 O 0.23031 0.8539 0.03206 0.0
O64 O 0.18179 0.81532 0.04882 0.0
C65 C 0.38702 0.92243 0.35664 0.0
O66 O 0.38252 0.93888 0.35938 0.0
O67 O 0.40903 0.94746 0.21306 0.0
Zn68 Zn 0.41671 0.93814 0.30056 0.0
O69 O 0.41552 0.95705 0.36764 0.0
C70 C 0.45042 0.92943 0.24447 0.0
O71 O 0.44247 0.93171 0.18853 0.0
O72 O 0.40148 0.91844 0.33076 0.0
C73 C 0.42561 0.9701 0.36495 0.0
O74 O 0.43672 0.97133 0.31663 0.0
C75 C 0.40053 0.96154 0.20706 0.0
O76 O 0.39573 0.97003 0.2595 0.0
O77 O 0.4418 0.9308 0.29697 0.0
C78 C 0.31983 0.13887 0.59532 0.0
O79 O 0.30315 0.13676 0.60616 0.0
O80 O 0.2912 0.16412 0.47271 0.0
Zn81 Zn 0.30637 0.17064 0.55007 0.0
O82 O 0.29261 0.17257 0.63311 0.0
C83 C 0.31475 0.20352 0.48637 0.0
O84 O 0.30666 0.19676 0.43607 0.0
O85 O 0.32491 0.15271 0.56739 0.0
C86 C 0.27748 0.17891 0.63936 0.0
O87 O 0.26903 0.18452 0.58795 0.0
C88 C 0.27705 0.15565 0.47674 0.0
O89 O 0.27183 0.14993 0.53369 0.0
O90 O 0.3168 0.19439 0.53733 0.0
C91 C 0.11915 0.06297 0.86237 0.0
O92 O 0.12329 0.04757 0.83976 0.0
O93 O 0.08916 0.03727 0.75727 0.0
Zn94 Zn 0.08443 0.05025 0.84086 0.0
O95 O 0.08242 0.03271 0.91217 0.0
C96 C 0.05333 0.06463 0.78132 0.0
O97 O 0.06135 0.06097 0.72659 0.0
O98 O 0.10323 0.0673 0.86512 0.0
C99 C 0.07089 0.02096 0.90786 0.0
O100 O 0.06063 0.02067 0.85673 0.0
C101 C 0.09691 0.02268 0.75647 0.0
O102 O 0.10336 0.01644 0.81084 0.0
O103 O 0.06106 0.06191 0.83503 0.0
C104 C 0.82083 0.87085 0.06144 0.0
O105 O 0.80432 0.87305 0.07555 0.0
O106 O 0.7932 0.85004 0.9179 0.0
Zn107 Zn 0.80678 0.84145 0.99556 0.0
O108 O 0.79025 0.83757 0.06959 0.0
C109 C 0.81606 0.81078 0.92031 0.0
O110 O 0.80903 0.81928 0.87154 0.0
O111 O 0.82519 0.85826 0.02492 0.0
C112 C 0.77945 0.82509 0.06846 0.0
O113 O 0.77924 0.81455 0.01816 0.0
C114 C 0.77779 0.85582 0.92319 0.0
O115 O 0.771 0.8578 0.98136 0.0
O116 O 0.81722 0.81811 0.97558 0.0
C117 C 0.88866 0.07686 0.84072 0.0
O118 O 0.88441 0.06033 0.84158 0.0
O119 O 0.9105 0.05071 0.70498 0.0
Zn120 Zn 0.91869 0.06151 0.78915 0.0
O121 O 0.91737 0.04346 0.8595 0.0
C122 C 0.9514 0.07084 0.7271 0.0
O123 O 0.94251 0.06907 0.67292 0.0
O124 O 0.90327 0.08123 0.81699 0.0
C125 C 0.92522 0.04553 0.9133 0.0
O126 O 0.93452 0.05963 0.92253 0.0
C127 C 0.91413 0.03481 0.69539 0.0
O128 O 0.92281 0.0263 0.74027 0.0
O129 O 0.94372 0.06887 0.78136 0.0
C130 C 0.66852 0.14404 0.56084 0.0
O131 O 0.68479 0.13891 0.56287 0.0
O132 O 0.69937 0.16432 0.44503 0.0
Zn133 Zn 0.68665 0.17367 0.52422 0.0
O134 O 0.70063 0.17257 0.60721 0.0
C135 C 0.68128 0.2056 0.45205 0.0
O136 O 0.68432 0.1956 0.40153 0.0
O137 O 0.66524 0.15939 0.54171 0.0
C138 C 0.71527 0.17966 0.61773 0.0
O139 O 0.72311 0.18816 0.57074 0.0
C140 C 0.71463 0.15804 0.44271 0.0
O141 O 0.7236 0.15626 0.49667 0.0
O142 O 0.68088 0.19889 0.50859 0.0
C143 C 0.61536 0.93174 0.31202 0.0
O144 O 0.61925 0.94828 0.31836 0.0
O145 O 0.5912 0.95835 0.17677 0.0
Zn146 Zn 0.58468 0.94707 0.26247 0.0
O147 O 0.58546 0.96425 0.33633 0.0
C148 C 0.553 0.93473 0.20156 0.0
O149 O 0.56218 0.93612 0.14792 0.0
O150 O 0.60098 0.9276 0.28586 0.0
C151 C 0.57297 0.97453 0.34855 0.0
O152 O 0.55925 0.97446 0.31048 0.0
C153 C 0.59408 0.97453 0.17037 0.0
O154 O 0.59396 0.98451 0.2222 0.0
O155 O 0.56012 0.93816 0.2559 0.0
C156 C 0.81526 0.13427 0.01084 0.0
O157 O 0.79912 0.1297 0.02259 0.0
O158 O 0.78731 0.16103 0.11591 0.0
Zn159 Zn 0.80037 0.16728 0.03345 0.0
O160 O 0.78566 0.16775 0.95232 0.0
C161 C 0.81436 0.19754 0.09927 0.0
O162 O 0.81312 0.18772 0.15134 0.0
O163 O 0.81945 0.15018 0.01561 0.0
C164 C 0.77087 0.1748 0.94505 0.0
O165 O 0.76315 0.18211 0.99504 0.0
C166 C 0.77233 0.15421 0.12117 0.0
O167 O 0.76368 0.14987 0.06851 0.0
O168 O 0.81018 0.19129 0.0442 0.0
C169 C 0.60697 0.07173 0.71769 0.0
O170 O 0.61083 0.05537 0.72889 0.0
O171 O 0.58481 0.04662 0.84022 0.0
Zn172 Zn 0.57554 0.05769 0.75758 0.0
O173 O 0.5745 0.04039 0.68402 0.0
C174 C 0.54164 0.05419 0.80218 0.0
O175 O 0.5489 0.03939 0.81859 0.0
O176 O 0.59153 0.07685 0.7284 0.0
C177 C 0.56396 0.04328 0.6376 0.0
O178 O 0.55408 0.05717 0.63982 0.0
C179 C 0.58826 0.03051 0.84496 0.0
O180 O 0.58662 0.02056 0.79338 0.0
O181 O 0.55093 0.06568 0.77454 0.0
C182 C 0.68745 0.87196 0.47906 0.0
O183 O 0.70359 0.87623 0.49247 0.0
O184 O 0.71579 0.84604 0.58274 0.0
Zn185 Zn 0.70185 0.83891 0.50313 0.0
O186 O 0.71777 0.839 0.42587 0.0
C187 C 0.69153 0.80701 0.56901 0.0
O188 O 0.69593 0.81553 0.62191 0.0
O189 O 0.68297 0.85611 0.48315 0.0
C190 C 0.71739 0.82817 0.37928 0.0
O191 O 0.70571 0.81573 0.37938 0.0
C192 C 0.73164 0.85051 0.57718 0.0
O193 O 0.73871 0.85113 0.51908 0.0
O194 O 0.69246 0.81462 0.51422 0.0
C195 C 0.88082 0.93799 0.25484 0.0
O196 O 0.8764 0.95293 0.28087 0.0
O197 O 0.91029 0.96104 0.36962 0.0
Zn198 Zn 0.91508 0.9509 0.28082 0.0
O199 O 0.91628 0.97 0.21475 0.0
C200 C 0.94591 0.93485 0.33491 0.0
O201 O 0.93716 0.9358 0.38969 0.0
O202 O 0.8968 0.93394 0.2518 0.0
C203 C 0.92774 0.98181 0.21944 0.0
O204 O 0.93851 0.98161 0.26906 0.0
C205 C 0.90383 0.97605 0.37854 0.0
O206 O 0.89865 0.98514 0.32805 0.0
O207 O 0.93871 0.93977 0.28236 0.0
C208 C 0.67674 0.64138 0.53403 0.0
O209 O 0.69303 0.63726 0.5229 0.0
O210 O 0.70997 0.66534 0.64476 0.0
Zn211 Zn 0.69411 0.67195 0.57002 0.0
O212 O 0.70725 0.67022 0.48614 0.0
C213 C 0.6876 0.70518 0.63282 0.0
O214 O 0.69184 0.69673 0.68604 0.0
O215 O 0.67341 0.65603 0.5597 0.0
C216 C 0.72083 0.67895 0.47355 0.0
O217 O 0.72698 0.68971 0.51752 0.0
C218 C 0.72314 0.65553 0.63769 0.0
O219 O 0.72609 0.6484 0.58068 0.0
O220 O 0.68697 0.69702 0.57908 0.0
C221 C 0.60922 0.41534 0.82221 0.0
O222 O 0.60047 0.41163 0.87532 0.0
O223 O 0.59405 0.45748 0.91209 0.0
Zn224 Zn 0.58871 0.44703 0.82399 0.0
O225 O 0.58695 0.46585 0.75689 0.0
C226 C 0.55818 0.43093 0.88115 0.0
O227 O 0.56709 0.43209 0.93552 0.0
O228 O 0.60657 0.42977 0.79393 0.0
C229 C 0.57475 0.47693 0.76024 0.0
O230 O 0.56371 0.47612 0.80893 0.0
C231 C 0.59929 0.47301 0.91981 0.0
O232 O 0.60297 0.48246 0.8684 0.0
O233 O 0.56513 0.43584 0.82815 0.0
C234 C 0.82924 0.36509 0.98581 0.0
O235 O 0.81315 0.37079 0.98598 0.0
O236 O 0.80169 0.3398 0.11684 0.0
Zn237 Zn 0.81166 0.33474 0.02764 0.0
O238 O 0.79365 0.33864 0.95821 0.0
C239 C 0.82125 0.30032 0.07342 0.0
O240 O 0.82093 0.30767 0.13109 0.0
O241 O 0.83225 0.34973 0.00544 0.0
C242 C 0.78267 0.32692 0.94398 0.0
O243 O 0.78275 0.3123 0.9769 0.0
C244 C 0.78671 0.34639 0.1255 0.0
O245 O 0.7776 0.35132 0.0747 0.0
O246 O 0.81837 0.30951 0.0232 0.0
C247 C 0.87927 0.57473 0.25788 0.0
O248 O 0.87461 0.5589 0.2742 0.0
O249 O 0.90569 0.54444 0.34829 0.0
Zn250 Zn 0.91205 0.55875 0.26911 0.0
O251 O 0.90957 0.54404 0.18892 0.0
C252 C 0.94577 0.56817 0.32565 0.0
O253 O 0.93826 0.56484 0.3817 0.0
O254 O 0.89534 0.57846 0.25586 0.0
C255 C 0.92228 0.53631 0.16221 0.0
O256 O 0.93776 0.53728 0.18888 0.0
C257 C 0.9136 0.53019 0.35824 0.0
O258 O 0.92584 0.52542 0.31748 0.0
O259 O 0.93691 0.56705 0.27358 0.0
C260 C 0.67532 0.35598 0.62111 0.0
O261 O 0.68003 0.34231 0.65507 0.0
O262 O 0.71266 0.34801 0.45528 0.0
Zn263 Zn 0.70054 0.34122 0.539 0.0
O264 O 0.71771 0.33998 0.61228 0.0
C265 C 0.68967 0.30831 0.47989 0.0
O266 O 0.69522 0.31519 0.42521 0.0
O267 O 0.68219 0.35845 0.56557 0.0
C268 C 0.72583 0.35309 0.6342 0.0
O269 O 0.72352 0.36832 0.6067 0.0
C270 C 0.72829 0.3432 0.44615 0.0
O271 O 0.73617 0.33425 0.49189 0.0
O272 O 0.69024 0.31724 0.53188 0.0
C273 C 0.89248 0.43406 0.81788 0.0
O274 O 0.89054 0.45099 0.81837 0.0
O275 O 0.92027 0.45622 0.68057 0.0
Zn276 Zn 0.9252 0.44459 0.76751 0.0
O277 O 0.92845 0.46217 0.83916 0.0
C278 C 0.95973 0.44355 0.73297 0.0
O279 O 0.95436 0.45887 0.71331 0.0
O280 O 0.90653 0.42766 0.79589 0.0
C281 C 0.9215 0.47706 0.84428 0.0
O282 O 0.91083 0.48259 0.79897 0.0
C283 C 0.90738 0.4647 0.65844 0.0
O284 O 0.8933 0.46648 0.69387 0.0
O285 O 0.94883 0.43334 0.75952 0.0
C286 C 0.81906 0.64744 0.09722 0.0
O287 O 0.80276 0.6453 0.11427 0.0
O288 O 0.78752 0.67475 0.9848 0.0
Zn289 Zn 0.80542 0.67988 0.05408 0.0
O290 O 0.79301 0.6831 0.13941 0.0
C291 C 0.81746 0.70956 0.97861 0.0
O292 O 0.81119 0.70094 0.92864 0.0
O293 O 0.82335 0.66111 0.06649 0.0
C294 C 0.77806 0.67669 0.14983 0.0
O295 O 0.77044 0.66763 0.10374 0.0
C296 C 0.78848 0.66397 0.93814 0.0
O297 O 0.80253 0.65446 0.93138 0.0
O298 O 0.81693 0.70271 0.03483 0.0
C299 C 0.61433 0.57199 0.36383 0.0
O300 O 0.61831 0.55602 0.34695 0.0
O301 O 0.58897 0.54729 0.24642 0.0
Zn302 Zn 0.58203 0.5579 0.3329 0.0
O303 O 0.58394 0.53967 0.40233 0.0
C304 C 0.54858 0.56813 0.27805 0.0
O305 O 0.55656 0.56626 0.22195 0.0
O306 O 0.5986 0.57686 0.35945 0.0
C307 C 0.57582 0.54125 0.45579 0.0
O308 O 0.56595 0.55495 0.46513 0.0
C309 C 0.58745 0.53098 0.23837 0.0
O310 O 0.58138 0.52148 0.28636 0.0
O311 O 0.55709 0.56593 0.33044 0.0
C312 C 0.31846 0.36935 0.56322 0.0
O313 O 0.30228 0.374 0.55273 0.0
O314 O 0.28697 0.34379 0.47294 0.0
Zn315 Zn 0.30314 0.33619 0.54562 0.0
O316 O 0.29098 0.33435 0.6321 0.0
C317 C 0.31205 0.30628 0.46664 0.0
O318 O 0.30674 0.31625 0.41873 0.0
O319 O 0.32247 0.35338 0.55927 0.0
C320 C 0.27789 0.32477 0.6436 0.0
O321 O 0.27093 0.31568 0.59619 0.0
C322 C 0.27137 0.34891 0.48002 0.0
O323 O 0.26492 0.35052 0.53885 0.0
O324 O 0.31235 0.31236 0.5242 0.0
C325 C 0.3815 0.56354 0.32823 0.0
O326 O 0.37827 0.54722 0.31387 0.0
O327 O 0.40794 0.53964 0.20978 0.0
Zn328 Zn 0.41455 0.55141 0.2942 0.0
O329 O 0.4147 0.53343 0.3648 0.0
C330 C 0.44601 0.56457 0.23321 0.0
O331 O 0.43705 0.56265 0.17926 0.0
O332 O 0.39687 0.56926 0.32095 0.0
C333 C 0.42234 0.53636 0.41848 0.0
O334 O 0.43026 0.5513 0.42713 0.0
C335 C 0.41378 0.52441 0.19998 0.0
O336 O 0.42363 0.51721 0.24468 0.0
O337 O 0.43878 0.56128 0.28744 0.0
C338 C 0.17068 0.64234 0.07517 0.0
O339 O 0.18719 0.6395 0.08723 0.0
O340 O 0.19729 0.67335 0.9476 0.0
Zn341 Zn 0.18416 0.67533 0.03266 0.0
O342 O 0.20071 0.67643 0.10859 0.0
C343 C 0.17045 0.70848 0.98595 0.0
O344 O 0.17426 0.7025 0.92779 0.0
O345 O 0.16625 0.65657 0.04853 0.0
C346 C 0.21501 0.66848 0.11655 0.0
O347 O 0.22053 0.65763 0.07184 0.0
C348 C 0.2054 0.66047 0.92355 0.0
O349 O 0.20533 0.64551 0.95422 0.0
O350 O 0.17265 0.69875 0.03522 0.0
C351 C 0.12618 0.43258 0.82064 0.0
O352 O 0.13117 0.44823 0.80334 0.0
O353 O 0.10516 0.45512 0.6829 0.0
Zn354 Zn 0.09548 0.44631 0.76859 0.0
O355 O 0.09424 0.46638 0.83037 0.0
C356 C 0.0623 0.44949 0.7189 0.0
O357 O 0.07036 0.46348 0.6982 0.0
O358 O 0.11064 0.42794 0.80892 0.0
C359 C 0.08737 0.46523 0.88629 0.0
O360 O 0.08096 0.45026 0.90544 0.0
C361 C 0.11111 0.47051 0.67864 0.0
O362 O 0.11313 0.4797 0.73194 0.0
O363 O 0.07073 0.43859 0.75301 0.0
C364 C 0.3176 0.63142 0.4988 0.0
O365 O 0.30137 0.62645 0.49204 0.0
O366 O 0.28597 0.65567 0.61497 0.0
Zn367 Zn 0.29992 0.66202 0.53471 0.0
O368 O 0.28484 0.65879 0.45551 0.0
C369 C 0.31084 0.69566 0.58844 0.0
O370 O 0.31049 0.68776 0.64509 0.0
O371 O 0.32068 0.6465 0.52122 0.0
C372 C 0.27614 0.67103 0.42998 0.0
O373 O 0.27649 0.68653 0.45663 0.0
C374 C 0.27308 0.6653 0.62899 0.0
O375 O 0.26985 0.67886 0.59214 0.0
O376 O 0.30729 0.68713 0.5372 0.0
C377 C 0.1122 0.56936 0.2438 0.0
O378 O 0.1169 0.55372 0.26224 0.0
O379 O 0.0895 0.54526 0.36838 0.0
Zn380 Zn 0.07988 0.55572 0.28537 0.0
O381 O 0.07754 0.53656 0.2197 0.0
C382 C 0.04879 0.56611 0.35638 0.0
O383 O 0.0581 0.56206 0.40777 0.0
O384 O 0.09638 0.57383 0.25009 0.0
C385 C 0.08039 0.53854 0.15932 0.0
O386 O 0.08469 0.55396 0.13719 0.0
C387 C 0.09605 0.53007 0.3688 0.0
O388 O 0.097 0.52129 0.31413 0.0
O389 O 0.05571 0.56519 0.30027 0.0
C390 C 0.18077 0.36155 0.01638 0.0
O391 O 0.19747 0.36448 0.00905 0.0
O392 O 0.21043 0.33993 0.13934 0.0
Zn393 Zn 0.19543 0.331 0.06533 0.0
O394 O 0.20885 0.32804 0.98177 0.0
C395 C 0.18709 0.30121 0.14649 0.0
O396 O 0.19259 0.31125 0.19394 0.0
O397 O 0.176 0.34757 0.04406 0.0
C398 C 0.22423 0.32234 0.97519 0.0
O399 O 0.23328 0.31791 0.02679 0.0
C400 C 0.22455 0.3484 0.13433 0.0
O401 O 0.23025 0.35287 0.07646 0.0
O402 O 0.18641 0.30726 0.08895 0.0
C403 C 0.39247 0.42698 0.72926 0.0
O404 O 0.38915 0.44364 0.72299 0.0
O405 O 0.41847 0.45043 0.87419 0.0
Zn406 Zn 0.42343 0.44087 0.78461 0.0
O407 O 0.42263 0.46019 0.71923 0.0
C408 C 0.45606 0.42727 0.8338 0.0
O409 O 0.44792 0.42734 0.88998 0.0
O410 O 0.40647 0.42234 0.75707 0.0
C411 C 0.43252 0.47332 0.72433 0.0
O412 O 0.44318 0.4744 0.77412 0.0
C413 C 0.40997 0.46435 0.88397 0.0
O414 O 0.40284 0.47237 0.83426 0.0
O415 O 0.4479 0.43178 0.78276 0.0
H416 H 0.11483 0.09241 0.93408 0.0
H417 H 0.15422 0.05959 0.84901 0.0
H418 H 0.17691 0.07825 0.89365 0.0
H419 H 0.18559 0.10394 0.95588 0.0
H420 H 0.14633 0.13674 0.04187 0.0
H421 H 0.12358 0.11789 0.99839 0.0
C422 C 0.12838 0.08938 0.92505 0.0
C423 C 0.13281 0.07466 0.88796 0.0
C424 C 0.14139 0.10008 0.95142 0.0
C425 C 0.15043 0.07084 0.87729 0.0
C426 C 0.16343 0.08149 0.90289 0.0
C427 C 0.17207 0.10694 0.96552 0.0
C428 C 0.1677 0.12176 0.00206 0.0
C429 C 0.15906 0.09612 0.94005 0.0
C430 C 0.15008 0.12541 0.01398 0.0
C431 C 0.13705 0.11467 0.98892 0.0
H432 H 0.14278 0.93369 0.24399 0.0
H433 H 0.10608 0.89303 0.28925 0.0
H434 H 0.12429 0.87191 0.23262 0.0
H435 H 0.15037 0.8651 0.16852 0.0
H436 H 0.18717 0.90577 0.12471 0.0
H437 H 0.16905 0.9268 0.18205 0.0
C438 C 0.13879 0.92019 0.24188 0.0
C439 C 0.12307 0.91497 0.2708 0.0
C440 C 0.14925 0.90814 0.20895 0.0
C441 C 0.11813 0.89741 0.26754 0.0
C442 C 0.1285 0.88533 0.23491 0.0
C443 C 0.15437 0.87859 0.17117 0.0
C444 C 0.17005 0.88388 0.14204 0.0
C445 C 0.14401 0.89058 0.20496 0.0
C446 C 0.17515 0.90136 0.1466 0.0
C447 C 0.16482 0.9134 0.17949 0.0
H448 H 0.35641 0.92734 0.41914 0.0
H449 H 0.39237 0.88725 0.36088 0.0
H450 H 0.3739 0.86525 0.41166 0.0
H451 H 0.34731 0.85739 0.47171 0.0
H452 H 0.31142 0.89775 0.52833 0.0
H453 H 0.3302 0.91963 0.47952 0.0
C454 C 0.36024 0.9138 0.41737 0.0
C455 C 0.37574 0.90897 0.38606 0.0
C456 C 0.3496 0.90124 0.44668 0.0
C457 C 0.38048 0.89134 0.3845 0.0
C458 C 0.36994 0.87874 0.41365 0.0
C459 C 0.34367 0.87099 0.47376 0.0
C460 C 0.32797 0.87591 0.50367 0.0
C461 C 0.35446 0.88355 0.44489 0.0
C462 C 0.3234 0.89357 0.50554 0.0
C463 C 0.33412 0.90612 0.47754 0.0
H464 H 0.38178 0.09307 0.70213 0.0
H465 H 0.33868 0.06134 0.76507 0.0
H466 H 0.31828 0.08181 0.71659 0.0
H467 H 0.3126 0.10858 0.65665 0.0
H468 H 0.35543 0.14039 0.59195 0.0
H469 H 0.37601 0.1199 0.64023 0.0
C470 C 0.36792 0.09069 0.70554 0.0
C471 C 0.36177 0.07572 0.73744 0.0
C472 C 0.35622 0.10244 0.67683 0.0
C473 C 0.34377 0.07275 0.74084 0.0
C474 C 0.33209 0.08444 0.71305 0.0
C475 C 0.32644 0.11104 0.65278 0.0
C476 C 0.33244 0.12602 0.62074 0.0
C477 C 0.33816 0.09928 0.68081 0.0
C478 C 0.35044 0.12895 0.61621 0.0
C479 C 0.36222 0.11727 0.64403 0.0
H480 H 0.81566 0.89843 0.14173 0.0
H481 H 0.85611 0.86849 0.04904 0.0
H482 H 0.8782 0.88627 0.10231 0.0
H483 H 0.88604 0.91023 0.17541 0.0
H484 H 0.8456 0.94049 0.26657 0.0
H485 H 0.8235 0.92255 0.21399 0.0
C486 C 0.8293 0.89581 0.13296 0.0
C487 C 0.8342 0.88214 0.09141 0.0
C488 C 0.84195 0.90607 0.16378 0.0
C489 C 0.85195 0.87895 0.08066 0.0
C490 C 0.86461 0.88908 0.11126 0.0
C491 C 0.8724 0.91285 0.18411 0.0
C492 C 0.86749 0.92664 0.22507 0.0
C493 C 0.85975 0.90263 0.1531 0.0
C494 C 0.84974 0.92995 0.2353 0.0
C495 C 0.83709 0.91971 0.20518 0.0
H496 H 0.85784 0.07095 0.90052 0.0
H497 H 0.89328 0.11209 0.84799 0.0
H498 H 0.87409 0.13341 0.89897 0.0
H499 H 0.84701 0.14038 0.95692 0.0
H500 H 0.81154 0.0991 0.00772 0.0
H501 H 0.83113 0.0778 0.95947 0.0
C502 C 0.86139 0.08458 0.90004 0.0
C503 C 0.87695 0.08991 0.87022 0.0
C504 C 0.85034 0.09674 0.92947 0.0
C505 C 0.88135 0.10763 0.87039 0.0
C506 C 0.87041 0.11983 0.89967 0.0
C507 C 0.84364 0.12671 0.95794 0.0
C508 C 0.82783 0.12135 0.98592 0.0
C509 C 0.85486 0.11453 0.9293 0.0
C510 C 0.82361 0.10359 0.98644 0.0
C511 C 0.83478 0.09139 0.95872 0.0
H512 H 0.67214 0.11133 0.60692 0.0
H513 H 0.63362 0.15091 0.5711 0.0
H514 H 0.61112 0.13218 0.61758 0.0
H515 H 0.60251 0.10457 0.66975 0.0
H516 H 0.64147 0.06529 0.7044 0.0
H517 H 0.66366 0.08399 0.65741 0.0
C518 C 0.65882 0.11589 0.60895 0.0
C519 C 0.65459 0.13251 0.58553 0.0
C520 C 0.64602 0.10513 0.63596 0.0
C521 C 0.63724 0.13816 0.58866 0.0
C522 C 0.62437 0.12747 0.61542 0.0
C523 C 0.61587 0.10015 0.66723 0.0
C524 C 0.62031 0.08356 0.69074 0.0
C525 C 0.62864 0.11096 0.63959 0.0
C526 C 0.63766 0.07798 0.6867 0.0
C527 C 0.65039 0.08866 0.65975 0.0
H528 H 0.64605 0.93677 0.37423 0.0
H529 H 0.61081 0.89646 0.31154 0.0
H530 H 0.62963 0.87445 0.36013 0.0
H531 H 0.6562 0.86664 0.41999 0.0
H532 H 0.69151 0.90708 0.4809 0.0
H533 H 0.67243 0.92904 0.43394 0.0
C534 C 0.64248 0.92317 0.37096 0.0
C535 C 0.62705 0.91829 0.33915 0.0
C536 C 0.65332 0.91059 0.39909 0.0
C537 C 0.62263 0.90059 0.33557 0.0
C538 C 0.63337 0.88799 0.36352 0.0
C539 C 0.65965 0.88027 0.42344 0.0
C540 C 0.67525 0.88521 0.45405 0.0
C541 C 0.64872 0.89284 0.39552 0.0
C542 C 0.6796 0.90291 0.45758 0.0
C543 C 0.66871 0.91549 0.43063 0.0
H544 H 0.6804 0.61055 0.47238 0.0
H545 H 0.64147 0.64664 0.53978 0.0
H546 H 0.61865 0.62859 0.49161 0.0
H547 H 0.60987 0.60271 0.42848 0.0
H548 H 0.64924 0.56692 0.3621 0.0
H549 H 0.67177 0.58485 0.41121 0.0
C550 C 0.66693 0.61447 0.47698 0.0
C551 C 0.66268 0.62994 0.50969 0.0
C552 C 0.65395 0.60416 0.44876 0.0
C553 C 0.64512 0.63477 0.51502 0.0
C554 C 0.63207 0.6245 0.48722 0.0
C555 C 0.62339 0.59891 0.42446 0.0
C556 C 0.62785 0.58352 0.39141 0.0
C557 C 0.63634 0.60923 0.45348 0.0
C558 C 0.64542 0.57869 0.38719 0.0
C559 C 0.65833 0.58892 0.41538 0.0
H560 H 0.62575 0.41731 0.70539 0.0
H561 H 0.62009 0.38462 0.8748 0.0
H562 H 0.63982 0.36333 0.82699 0.0
H563 H 0.65866 0.35401 0.73738 0.0
H564 H 0.66413 0.38653 0.56743 0.0
H565 H 0.64438 0.40784 0.61519 0.0
C566 C 0.62886 0.40556 0.73203 0.0
C567 C 0.62147 0.40261 0.79374 0.0
C568 C 0.64012 0.39331 0.70407 0.0
C569 C 0.62558 0.38724 0.82729 0.0
C570 C 0.63686 0.37504 0.79996 0.0
C571 C 0.65552 0.36573 0.71062 0.0
C572 C 0.66289 0.36865 0.64888 0.0
C573 C 0.64418 0.37793 0.73837 0.0
C574 C 0.65864 0.38392 0.61497 0.0
C575 C 0.64737 0.39614 0.64231 0.0
H576 H 0.89529 0.40051 0.85958 0.0
H577 H 0.85886 0.44281 0.84047 0.0
H578 H 0.83628 0.42535 0.89175 0.0
H579 H 0.82686 0.39828 0.94269 0.0
H580 H 0.86319 0.356 0.96473 0.0
H581 H 0.88584 0.37331 0.91232 0.0
C582 C 0.88237 0.40584 0.86625 0.0
C583 C 0.87875 0.42291 0.84601 0.0
C584 C 0.86947 0.3958 0.89683 0.0
C585 C 0.86201 0.42971 0.85565 0.0
C586 C 0.84908 0.41975 0.88507 0.0
C587 C 0.83974 0.39284 0.9363 0.0
C588 C 0.8433 0.37586 0.95764 0.0
C589 C 0.85268 0.40283 0.90614 0.0
C590 C 0.86009 0.36906 0.94897 0.0
C591 C 0.87305 0.37892 0.91875 0.0
H592 H 0.81414 0.61831 0.16934 0.0
H593 H 0.8542 0.64894 0.0773 0.0
H594 H 0.87642 0.6296 0.12145 0.0
H595 H 0.88449 0.60408 0.18674 0.0
H596 H 0.8443 0.57325 0.27684 0.0
H597 H 0.82214 0.59275 0.23351 0.0
C598 C 0.82772 0.62074 0.15858 0.0
C599 C 0.83247 0.63506 0.12001 0.0
C600 C 0.84043 0.60963 0.18433 0.0
C601 C 0.85015 0.63799 0.1067 0.0
C602 C 0.86289 0.62698 0.13217 0.0
C603 C 0.87089 0.60172 0.19739 0.0
C604 C 0.86606 0.58729 0.23526 0.0
C605 C 0.85818 0.61282 0.17137 0.0
C606 C 0.84837 0.58428 0.2479 0.0
C607 C 0.83568 0.5954 0.22299 0.0
H608 H 0.34975 0.36318 0.62048 0.0
H609 H 0.31566 0.4046 0.55956 0.0
H610 H 0.33555 0.42603 0.60555 0.0
H611 H 0.36215 0.43298 0.66556 0.0
H612 H 0.39601 0.39161 0.72887 0.0
H613 H 0.3766 0.37019 0.67981 0.0
C614 C 0.34676 0.3769 0.61669 0.0
C615 C 0.33125 0.38228 0.5865 0.0
C616 C 0.35811 0.38916 0.64423 0.0
C617 C 0.32749 0.40011 0.58257 0.0
C618 C 0.33884 0.41237 0.609 0.0
C619 C 0.3653 0.41928 0.66877 0.0
C620 C 0.3805 0.41393 0.70104 0.0
C621 C 0.35409 0.40704 0.64051 0.0
C622 C 0.38437 0.39611 0.70454 0.0
C623 C 0.3733 0.38384 0.67633 0.0
H624 H 0.31469 0.59979 0.44183 0.0
H625 H 0.35254 0.63837 0.49794 0.0
H626 H 0.37565 0.621 0.44871 0.0
H627 H 0.385 0.59502 0.38794 0.0
H628 H 0.34689 0.55657 0.33293 0.0
H629 H 0.32398 0.57384 0.38302 0.0
C630 C 0.328 0.60439 0.44372 0.0
C631 C 0.33185 0.62038 0.47356 0.0
C632 C 0.34117 0.59443 0.41494 0.0
C633 C 0.34919 0.6261 0.47541 0.0
C634 C 0.36241 0.61621 0.44702 0.0
C635 C 0.37167 0.59048 0.3866 0.0
C636 C 0.36767 0.57456 0.35644 0.0
C637 C 0.35853 0.60041 0.41617 0.0
C638 C 0.35035 0.56878 0.35572 0.0
C639 C 0.33722 0.57863 0.38448 0.0
H640 H 0.10617 0.59972 0.179 0.0
H641 H 0.14732 0.56551 0.24173 0.0
H642 H 0.16887 0.58466 0.19278 0.0
H643 H 0.17617 0.61129 0.13407 0.0
H644 H 0.13525 0.6456 0.07009 0.0
H645 H 0.1135 0.62614 0.11697 0.0
C646 C 0.11985 0.59649 0.1821 0.0
C647 C 0.12511 0.58125 0.21434 0.0
C648 C 0.13223 0.60752 0.1533 0.0
C649 C 0.14289 0.57716 0.21731 0.0
C650 C 0.15525 0.5881 0.18927 0.0
C651 C 0.16249 0.6145 0.12997 0.0
C652 C 0.15738 0.62992 0.09874 0.0
C653 C 0.15008 0.60332 0.1573 0.0
C654 C 0.13957 0.63381 0.0938 0.0
C655 C 0.12712 0.62271 0.12084 0.0
H656 H 0.11877 0.40248 0.88526 0.0
H657 H 0.16105 0.43674 0.83429 0.0
H658 H 0.18141 0.41816 0.89247 0.0
H659 H 0.18737 0.39213 0.95635 0.0
H660 H 0.14538 0.35772 0.00892 0.0
H661 H 0.12473 0.37654 0.95223 0.0
C662 C 0.13245 0.40583 0.88672 0.0
C663 C 0.13838 0.42094 0.85515 0.0
C664 C 0.14412 0.39515 0.92088 0.0
C665 C 0.15612 0.4252 0.85807 0.0
C666 C 0.16779 0.41459 0.8914 0.0
C667 C 0.17369 0.38875 0.95579 0.0
C668 C 0.16796 0.37351 0.98672 0.0
C669 C 0.16195 0.39954 0.9229 0.0
C670 C 0.15016 0.3694 0.9856 0.0
C671 C 0.13835 0.38012 0.95295 0.0
H672 H 0.25565 0.18308 0.93465 0.0
H673 H 0.2058 0.17021 0.85183 0.0
H674 H 0.21826 0.17092 0.74242 0.0
H675 H 0.24353 0.17469 0.6703 0.0
H676 H 0.29389 0.18478 0.75408 0.0
H677 H 0.2811 0.18574 0.86298 0.0
C678 C 0.24754 0.18051 0.89253 0.0
C679 C 0.22986 0.1767 0.90102 0.0
C680 C 0.2549 0.18044 0.83 0.0
C681 C 0.21949 0.17313 0.84632 0.0
C682 C 0.22659 0.17357 0.78381 0.0
C683 C 0.25163 0.1772 0.71249 0.0
C684 C 0.26955 0.17979 0.70448 0.0
C685 C 0.24429 0.17716 0.77506 0.0
C686 C 0.28003 0.18274 0.75935 0.0
C687 C 0.27274 0.18331 0.82152 0.0
H688 H 0.05512 0.9595 0.10224 0.0
H689 H 0.09531 0.98564 0.21157 0.0
H690 H 0.09813 0.0073 0.1258 0.0
H691 H 0.08917 0.01893 0.02041 0.0
H692 H 0.04881 0.99316 0.91092 0.0
H693 H 0.0461 0.97124 0.99625 0.0
C694 C 0.06452 0.96991 0.10724 0.0
C695 C 0.07497 0.97093 0.16323 0.0
C696 C 0.06604 0.9824 0.05782 0.0
C697 C 0.08706 0.98455 0.16904 0.0
C698 C 0.0887 0.99695 0.12 0.0
C699 C 0.07977 0.00852 0.0151 0.0
C700 C 0.06921 0.00769 0.9594 0.0
C701 C 0.07825 0.99602 0.0643 0.0
C702 C 0.0571 0.99412 0.95338 0.0
C703 C 0.05554 0.98157 0.00212 0.0
H704 H 0.21316 0.82655 0.2644 0.0
H705 H 0.25915 0.82236 0.14563 0.0
H706 H 0.27728 0.82141 0.24349 0.0
H707 H 0.28002 0.82234 0.36277 0.0
H708 H 0.23388 0.82429 0.48157 0.0
H709 H 0.21576 0.82552 0.3837 0.0
C710 C 0.22716 0.82541 0.26007 0.0
C711 C 0.23486 0.82467 0.19809 0.0
C712 C 0.23742 0.8245 0.31643 0.0
C713 C 0.25296 0.82293 0.19293 0.0
C714 C 0.26331 0.82244 0.24879 0.0
C715 C 0.26599 0.82305 0.3671 0.0
C716 C 0.25825 0.8234 0.42907 0.0
C717 C 0.25568 0.82332 0.31075 0.0
C718 C 0.24008 0.824 0.43426 0.0
C719 C 0.22975 0.82475 0.37839 0.0
H720 H 0.43229 0.03256 0.56229 0.0
H721 H 0.39431 0.00185 0.66571 0.0
H722 H 0.39454 0.98034 0.5786 0.0
H723 H 0.40577 0.97002 0.47413 0.0
H724 H 0.44408 0.00038 0.37113 0.0
H725 H 0.44342 0.02228 0.45712 0.0
C726 C 0.42402 0.02119 0.56574 0.0
C727 C 0.41331 0.01883 0.62048 0.0
C728 C 0.42428 0.00879 0.51563 0.0
C729 C 0.40271 0.00399 0.62419 0.0
C730 C 0.40282 0.99167 0.57438 0.0
C731 C 0.41395 0.98144 0.47032 0.0
C732 C 0.42497 0.98354 0.41628 0.0
C733 C 0.41359 0.99391 0.52004 0.0
C734 C 0.4355 0.99842 0.41224 0.0
C735 C 0.43513 0.01095 0.46139 0.0
H736 H 0.77612 0.84525 0.17581 0.0
H737 H 0.75441 0.80008 0.08149 0.0
H738 H 0.73327 0.79697 0.16945 0.0
H739 H 0.72081 0.80729 0.27282 0.0
H740 H 0.74277 0.85256 0.36594 0.0
H741 H 0.76393 0.85538 0.27861 0.0
C742 C 0.7668 0.83469 0.17443 0.0
C743 C 0.76685 0.82293 0.12213 0.0
C744 C 0.75469 0.83301 0.22491 0.0
C745 C 0.75466 0.80933 0.1212 0.0
C746 C 0.74255 0.80755 0.17145 0.0
C747 C 0.73022 0.81776 0.27399 0.0
C748 C 0.73016 0.82969 0.32585 0.0
C749 C 0.74241 0.81934 0.22348 0.0
C750 C 0.74248 0.84319 0.32664 0.0
C751 C 0.75461 0.84483 0.2767 0.0
H752 H 0.94233 0.0445 0.02918 0.0
H753 H 0.90461 0.01673 0.9134 0.0
H754 H 0.90187 0.99481 0.99839 0.0
H755 H 0.91025 0.98342 0.10497 0.0
H756 H 0.94834 0.01073 0.22042 0.0
H757 H 0.95083 0.03297 0.13609 0.0
C758 C 0.9335 0.03367 0.02256 0.0
C759 C 0.92369 0.03227 0.96501 0.0
C760 C 0.93204 0.02103 0.07152 0.0
C761 C 0.91235 0.01811 0.95714 0.0
C762 C 0.91075 0.00557 0.00576 0.0
C763 C 0.91906 0.99426 0.11186 0.0
C764 C 0.92907 0.99542 0.16895 0.0
C765 C 0.92053 0.0069 0.06307 0.0
C766 C 0.94049 0.00951 0.17689 0.0
C767 C 0.94193 0.02223 0.12871 0.0
H768 H 0.73656 0.1759 0.91423 0.0
H769 H 0.78775 0.17539 0.82901 0.0
H770 H 0.77516 0.17745 0.72015 0.0
H771 H 0.74953 0.17946 0.64887 0.0
H772 H 0.6983 0.17748 0.73339 0.0
H773 H 0.71089 0.17633 0.84255 0.0
C774 C 0.74491 0.17627 0.87174 0.0
C775 C 0.76302 0.1756 0.87954 0.0
C776 C 0.73757 0.177 0.80915 0.0
C777 C 0.77374 0.17583 0.82416 0.0
C778 C 0.76656 0.17706 0.76191 0.0
C779 C 0.74117 0.17882 0.69129 0.0
C780 C 0.72305 0.17869 0.68329 0.0
C781 C 0.7485 0.17768 0.75379 0.0
C782 C 0.71231 0.17757 0.73845 0.0
C783 C 0.71949 0.17695 0.80085 0.0
H784 H 0.5865 0.01745 0.60549 0.0
H785 H 0.53938 0.04271 0.54217 0.0
H786 H 0.53797 0.02367 0.44739 0.0
H787 H 0.55018 -3e-05 0.38206 0.0
H788 H 0.5977 0.97517 0.44386 0.0
H789 H 0.5989 0.99395 0.53942 0.0
C790 C 0.57589 0.01875 0.57109 0.0
C791 C 0.56305 0.03146 0.58099 0.0
C792 C 0.57525 0.00788 0.51624 0.0
C793 C 0.54946 0.03305 0.53567 0.0
C794 C 0.54863 0.02216 0.48143 0.0
C795 C 0.5608 0.99866 0.4164 0.0
C796 C 0.5738 0.98616 0.40578 0.0
C797 C 0.56148 0.00956 0.47113 0.0
C798 C 0.58752 0.98471 0.45071 0.0
C799 C 0.58821 0.99542 0.5055 0.0
H800 H 0.75102 0.69387 0.43269 0.0
H801 H 0.71004 0.65924 0.37107 0.0
H802 H 0.72404 0.65566 0.26566 0.0
H803 H 0.74785 0.66224 0.19091 0.0
H804 H 0.78913 0.69652 0.25219 0.0
H805 H 0.77504 0.70034 0.3577 0.0
C806 C 0.74514 0.68556 0.39619 0.0
C807 C 0.72949 0.67687 0.40983 0.0
C808 C 0.7533 0.68348 0.33556 0.0
C809 C 0.72208 0.66609 0.36199 0.0
C810 C 0.73007 0.66403 0.30158 0.0
C811 C 0.75377 0.67057 0.22724 0.0
C812 C 0.7695 0.67909 0.2136 0.0
C813 C 0.74567 0.67265 0.28785 0.0
C814 C 0.77702 0.68979 0.26141 0.0
C815 C 0.76897 0.692 0.32178 0.0
H816 H 0.55806 0.53904 0.5699 0.0
H817 H 0.59776 0.51344 0.45659 0.0
H818 H 0.60106 0.49149 0.5412 0.0
H819 H 0.5927 0.47951 0.64699 0.0
H820 H 0.55263 0.50467 0.75971 0.0
H821 H 0.54949 0.52686 0.67559 0.0
C822 C 0.56745 0.52867 0.56372 0.0
C823 C 0.57766 0.52791 0.50704 0.0
C824 C 0.56923 0.51601 0.61242 0.0
C825 C 0.58971 0.51434 0.4997 0.0
C826 C 0.59163 0.50177 0.54809 0.0
C827 C 0.5833 0.48987 0.65331 0.0
C828 C 0.57295 0.49045 0.70962 0.0
C829 C 0.58147 0.50249 0.60461 0.0
C830 C 0.56076 0.50391 0.71681 0.0
C831 C 0.55896 0.51661 0.66874 0.0
H832 H 0.72944 0.3247 0.71106 0.0
H833 H 0.74801 0.37719 0.68602 0.0
H834 H 0.76701 0.37383 0.78055 0.0
H835 H 0.77855 0.35585 0.86941 0.0
H836 H 0.75959 0.30348 0.89454 0.0
H837 H 0.74045 0.30701 0.80086 0.0
C838 C 0.73766 0.33542 0.7261 0.0
C839 C 0.73737 0.35115 0.6913 0.0
C840 C 0.74844 0.33344 0.7806 0.0
C841 C 0.748 0.36494 0.71188 0.0
C842 C 0.75886 0.36303 0.76593 0.0
C843 C 0.7702 0.34522 0.85454 0.0
C844 C 0.77055 0.32941 0.88889 0.0
C845 C 0.75921 0.34732 0.80056 0.0
C846 C 0.7596 0.31579 0.86905 0.0
C847 C 0.74866 0.31778 0.81537 0.0
H848 H 0.94406 0.51291 0.10671 0.0
H849 H 0.89464 0.53835 0.07954 0.0
H850 H 0.89046 0.52294 0.9769 0.0
H851 H 0.90064 0.50189 0.89559 0.0
H852 H 0.9493 0.47529 0.92579 0.0
H853 H 0.95404 0.49158 0.02628 0.0
C854 C 0.9324 0.5151 0.07825 0.0
C855 C 0.91971 0.52676 0.10064 0.0
C856 C 0.92996 0.50602 0.01974 0.0
C857 C 0.90459 0.52938 0.0635 0.0
C858 C 0.9022 0.52061 0.00469 0.0
C859 C 0.91234 0.49978 0.92394 0.0
C860 C 0.92463 0.4875 0.90328 0.0
C861 C 0.91479 0.50889 0.98239 0.0
C862 C 0.93963 0.48469 0.94086 0.0
C863 C 0.94235 0.49398 0.99829 0.0
H864 H 0.24457 0.31794 0.67823 0.0
H865 H 0.29496 0.33024 0.75765 0.0
H866 H 0.28306 0.32949 0.86788 0.0
H867 H 0.25811 0.32609 0.94171 0.0
H868 H 0.20727 0.3163 0.86149 0.0
H869 H 0.2195 0.31524 0.75178 0.0
C870 C 0.25293 0.32035 0.71977 0.0
C871 C 0.2706 0.32407 0.70998 0.0
C872 C 0.2459 0.32037 0.78287 0.0
C873 C 0.28128 0.32741 0.76405 0.0
C874 C 0.2745 0.32695 0.82707 0.0
C875 C 0.24977 0.32359 0.90016 0.0
C876 C 0.23187 0.32117 0.9095 0.0
C877 C 0.25681 0.32353 0.83707 0.0
C878 C 0.22111 0.31823 0.85533 0.0
C879 C 0.22809 0.31761 0.79265 0.0
H880 H 0.43966 0.53724 0.5339 0.0
H881 H 0.4048 0.50558 0.41957 0.0
H882 H 0.40464 0.48353 0.5047 0.0
H883 H 0.41455 0.47309 0.61076 0.0
H884 H 0.44984 0.50434 0.72475 0.0
H885 H 0.44963 0.52672 0.64048 0.0
C886 C 0.432 0.52554 0.52763 0.0
C887 C 0.42226 0.52309 0.47044 0.0
C888 C 0.43204 0.51284 0.57664 0.0
C889 C 0.41245 0.50781 0.46304 0.0
C890 C 0.41233 0.49518 0.51172 0.0
C891 C 0.42217 0.48481 0.61735 0.0
C892 C 0.43219 0.48703 0.67399 0.0
C893 C 0.4221 0.49755 0.56861 0.0
C894 C 0.44203 0.50228 0.68157 0.0
C895 C 0.44192 0.51509 0.63342 0.0
H896 H 0.25127 0.69168 0.37759 0.0
H897 H 0.27843 0.64331 0.34755 0.0
H898 H 0.26223 0.63843 0.24697 0.0
H899 H 0.24032 0.64793 0.16741 0.0
H900 H 0.21237 0.69571 0.20037 0.0
H901 H 0.22893 0.70079 0.2998 0.0
C902 C 0.25366 0.68008 0.349 0.0
C903 C 0.26606 0.66792 0.36988 0.0
C904 C 0.24417 0.67725 0.29168 0.0
C905 C 0.26891 0.65287 0.33261 0.0
C906 C 0.25968 0.65008 0.275 0.0
C907 C 0.23791 0.65948 0.19627 0.0
C908 C 0.2252 0.67145 0.17644 0.0
C909 C 0.2473 0.6622 0.25401 0.0
C910 C 0.22207 0.68626 0.21467 0.0
C911 C 0.23154 0.6892 0.27151 0.0
H912 H 0.09025 0.53717 0.03249 0.0
H913 H 0.06921 0.50576 0.18771 0.0
H914 H 0.0692 0.48039 0.11663 0.0
H915 H 0.07577 0.46694 0.01119 0.0
H916 H 0.09736 0.49829 0.85683 0.0
H917 H 0.09654 0.52381 0.9269 0.0
C918 C 0.08557 0.5248 0.0507 0.0
C919 C 0.07974 0.52338 0.11527 0.0
C920 C 0.08576 0.51021 0.00982 0.0
C921 C 0.0738 0.50723 0.13818 0.0
C922 C 0.07379 0.49269 0.0976 0.0
C923 C 0.08026 0.47936 0.99282 0.0
C924 C 0.08664 0.48067 0.92893 0.0
C925 C 0.07985 0.494 0.03347 0.0
C926 C 0.09243 0.49687 0.90591 0.0
C927 C 0.09195 0.51151 0.9459 0.0
H928 H 0.19086 0.22227 0.22373 0.0
H929 H 0.17441 0.21673 0.0238 0.0
H930 H 0.17105 0.24809 0.01469 0.0
H931 H 0.1757 0.27717 0.05954 0.0
H932 H 0.1927 0.28292 0.25865 0.0
H933 H 0.19267 0.25143 0.2721 0.0
C934 C 0.1863 0.22789 0.17843 0.0
C935 C 0.18313 0.21715 0.12431 0.0
C936 C 0.1846 0.24601 0.17315 0.0
C937 C 0.17711 0.22467 0.06614 0.0
C938 C 0.17521 0.24263 0.06076 0.0
C939 C 0.17919 0.27156 0.10619 0.0
C940 C 0.18443 0.2824 0.15768 0.0
C941 C 0.17938 0.25344 0.11336 0.0
C942 C 0.18871 0.2749 0.21799 0.0
C943 C 0.18877 0.25687 0.2257 0.0
H944 H 0.02649 0.92883 0.2924 0.0
H945 H 0.02559 0.9268 0.50238 0.0
H946 H 0.99388 0.92599 0.50087 0.0
H947 H 0.96648 0.92881 0.44036 0.0
H948 H 0.9676 0.93174 0.23048 0.0
H949 H 0.99915 0.92907 0.23168 0.0
C950 C 0.01939 0.92801 0.33789 0.0
C951 C 0.02842 0.92809 0.39744 0.0
C952 C 0.00117 0.92781 0.33673 0.0
C953 C 0.01898 0.92686 0.45584 0.0
C954 C 0.00083 0.92645 0.45504 0.0
C955 C 0.97359 0.92861 0.3948 0.0
C956 C 0.96468 0.93068 0.33548 0.0
C957 C 0.99179 0.92736 0.39583 0.0
C958 C 0.97412 0.93031 0.27691 0.0
C959 C 0.99218 0.92882 0.27751 0.0
H960 H 0.31438 0.77556 0.5244 0.0
H961 H 0.31709 0.77877 0.73394 0.0
H962 H 0.31794 0.74713 0.74117 0.0
H963 H 0.31561 0.71853 0.68837 0.0
H964 H 0.31223 0.71559 0.47882 0.0
H965 H 0.31403 0.74711 0.47145 0.0
C966 C 0.31535 0.76937 0.57168 0.0
C967 C 0.31552 0.77956 0.62853 0.0
C968 C 0.31559 0.75118 0.57558 0.0
C969 C 0.31686 0.77128 0.68934 0.0
C970 C 0.3173 0.75316 0.69356 0.0
C971 C 0.31544 0.72476 0.64105 0.0
C972 C 0.31364 0.71467 0.58433 0.0
C973 C 0.3163 0.74297 0.63707 0.0
C974 C 0.31351 0.723 0.52338 0.0
C975 C 0.31452 0.74106 0.51904 0.0
H976 H 0.46068 0.06648 0.78394 0.0
H977 H 0.46135 0.02109 0.90743 0.0
H978 H 0.49289 0.02203 0.91158 0.0
H979 H 0.52025 0.03413 0.87372 0.0
H980 H 0.52042 0.07906 0.74831 0.0
H981 H 0.48861 0.08006 0.75212 0.0
C982 C 0.46774 0.05695 0.81238 0.0
C983 C 0.45865 0.04363 0.84474 0.0
C984 C 0.48602 0.05742 0.81401 0.0
C985 C 0.46799 0.03137 0.88146 0.0
C986 C 0.48606 0.03189 0.88394 0.0
C987 C 0.51337 0.04425 0.84756 0.0
C988 C 0.52267 0.05638 0.81025 0.0
C989 C 0.49519 0.0446 0.8493 0.0
C990 C 0.51355 0.06954 0.77734 0.0
C991 C 0.49536 0.07006 0.77927 0.0
H992 H 0.16893 0.78593 0.07984 0.0
H993 H 0.17439 0.79485 0.87344 0.0
H994 H 0.17058 0.76387 0.85253 0.0
H995 H 0.16922 0.73396 0.89398 0.0
H996 H 0.16419 0.72519 0.10075 0.0
H997 H 0.16404 0.7564 0.12007 0.0
C998 C 0.16907 0.78114 0.03019 0.0
C999 C 0.17223 0.79265 0.97842 0.0
C1000 C 0.16704 0.7633 0.01853 0.0
C1001 C 0.1721 0.78626 0.9143 0.0
C1002 C 0.16998 0.76852 0.90227 0.0
C1003 C 0.16778 0.73886 0.94317 0.0
C1004 C 0.16702 0.72721 0.99585 0.0
C1005 C 0.16797 0.75687 0.95417 0.0
C1006 C 0.16499 0.73383 0.05924 0.0
C1007 C 0.16496 0.7517 0.07046 0.0
H1008 H 0.47296 0.92766 0.14249 0.0
H1009 H 0.47095 0.92713 0.35254 0.0
H1010 H 0.50258 0.92747 0.35758 0.0
H1011 H 0.53071 0.93024 0.30281 0.0
H1012 H 0.53284 0.93109 0.09285 0.0
H1013 H 0.5013 0.92817 0.08751 0.0
C1014 C 0.47943 0.92743 0.18938 0.0
C1015 C 0.46955 0.92754 0.247 0.0
C1016 C 0.49766 0.92779 0.19204 0.0
C1017 C 0.47819 0.92713 0.30735 0.0
C1018 C 0.4963 0.92737 0.31035 0.0
C1019 C 0.52431 0.92962 0.25582 0.0
C1020 C 0.53413 0.93106 0.19836 0.0
C1021 C 0.50615 0.92807 0.25305 0.0
C1022 C 0.52561 0.93009 0.13791 0.0
C1023 C 0.50755 0.92846 0.13477 0.0
H1024 H 0.31035 0.22725 0.3894 0.0
H1025 H 0.3281 0.22214 0.58789 0.0
H1026 H 0.33043 0.25361 0.59715 0.0
H1027 H 0.32446 0.28257 0.55304 0.0
H1028 H 0.3064 0.28779 0.35506 0.0
H1029 H 0.30736 0.25633 0.34143 0.0
C1030 C 0.31497 0.23299 0.4344 0.0
C1031 C 0.31879 0.22232 0.48811 0.0
C1032 C 0.3161 0.25115 0.43975 0.0
C1033 C 0.32492 0.23001 0.54585 0.0
C1034 C 0.32621 0.24804 0.55134 0.0
C1035 C 0.32094 0.27686 0.50662 0.0
C1036 C 0.31513 0.28753 0.4555 0.0
C1037 C 0.32136 0.25874 0.49925 0.0
C1038 C 0.31082 0.2799 0.39543 0.0
C1039 C 0.3113 0.26188 0.38761 0.0
H1040 H 0.97333 0.07485 0.82975 0.0
H1041 H 0.97253 0.07108 0.6201 0.0
H1042 H 0.00424 0.0705 0.618 0.0
H1043 H 0.03202 0.06827 0.67632 0.0
H1044 H 0.03262 0.07144 0.88618 0.0
H1045 H 0.00119 0.07523 0.88731 0.0
C1046 C 0.98007 0.0741 0.78348 0.0
C1047 C 0.97054 0.0728 0.72524 0.0
C1048 C 0.99829 0.07357 0.78263 0.0
C1049 C 0.97952 0.072 0.66573 0.0
C1050 C 0.99767 0.07162 0.66447 0.0
C1051 C 0.02532 0.07002 0.72228 0.0
C1052 C 0.03468 0.06937 0.78108 0.0
C1053 C 0.00717 0.07197 0.72272 0.0
C1054 C 0.02576 0.07177 0.84016 0.0
C1055 C 0.00776 0.07389 0.84092 0.0
H1056 H 0.81374 0.73033 0.87219 0.0
H1057 H 0.83201 0.73044 0.07095 0.0
H1058 H 0.83535 0.76189 0.06723 0.0
H1059 H 0.82958 0.7895 0.01267 0.0
H1060 H 0.81027 0.78966 0.81536 0.0
H1061 H 0.81113 0.75797 0.81316 0.0
C1062 C 0.81875 0.73719 0.91432 0.0
C1063 C 0.82234 0.72806 0.97208 0.0
C1064 C 0.82032 0.75536 0.91235 0.0
C1065 C 0.82893 0.73716 0.02609 0.0
C1066 C 0.83082 0.75516 0.02409 0.0
C1067 C 0.82581 0.78264 0.96877 0.0
C1068 C 0.8196 0.79195 0.91467 0.0
C1069 C 0.82599 0.76443 0.96826 0.0
C1070 C 0.81497 0.78283 0.85794 0.0
C1071 C 0.81539 0.76469 0.8567 0.0
H1072 H 0.67504 0.22979 0.5457 0.0
H1073 H 0.68609 0.22441 0.34068 0.0
H1074 H 0.68835 0.25589 0.33011 0.0
H1075 H 0.68954 0.28477 0.38082 0.0
H1076 H 0.67886 0.28999 0.58622 0.0
H1077 H 0.67397 0.2588 0.59455 0.0
C1078 C 0.67776 0.23549 0.49852 0.0
C1079 C 0.68055 0.22471 0.44424 0.0
C1080 C 0.67921 0.2536 0.49284 0.0
C1081 C 0.68394 0.23236 0.38339 0.0
C1082 C 0.6853 0.25039 0.37729 0.0
C1083 C 0.68596 0.27913 0.42727 0.0
C1084 C 0.68476 0.28972 0.48289 0.0
C1085 C 0.68332 0.26111 0.43196 0.0
C1086 C 0.68 0.28217 0.54263 0.0
C1087 C 0.67722 0.2643 0.54754 0.0
H1088 H 0.82419 0.2765 0.17088 0.0
H1089 H 0.82151 0.28117 0.96162 0.0
H1090 H 0.82056 0.24966 0.95119 0.0
H1091 H 0.81808 0.22097 0.00147 0.0
H1092 H 0.82012 0.21614 0.21069 0.0
H1093 H 0.82389 0.24751 0.22094 0.0
C1094 C 0.8236 0.27064 0.12294 0.0
C1095 C 0.82276 0.28122 0.0672 0.0
C1096 C 0.82284 0.25247 0.11722 0.0
C1097 C 0.82207 0.27337 0.00544 0.0
C1098 C 0.82149 0.25533 0.99936 0.0
C1099 C 0.81952 0.22674 0.04935 0.0
C1100 C 0.81864 0.21622 0.10523 0.0
C1101 C 0.82148 0.24478 0.05495 0.0
C1102 C 0.82066 0.22392 0.16683 0.0
C1103 C 0.82278 0.24188 0.17277 0.0
H1104 H 0.6811 0.72655 0.53024 0.0
H1105 H 0.69036 0.72695 0.73751 0.0
H1106 H 0.691 0.75865 0.73688 0.0
H1107 H 0.69135 0.78612 0.67606 0.0
H1108 H 0.68279 0.78554 0.46833 0.0
H1109 H 0.67932 0.75407 0.47085 0.0
C1110 C 0.68306 0.73355 0.57547 0.0
C1111 C 0.68584 0.72434 0.63373 0.0
C1112 C 0.68365 0.75177 0.57466 0.0
C1113 C 0.68828 0.73367 0.69187 0.0
C1114 C 0.68869 0.75182 0.69156 0.0
C1115 C 0.68854 0.77915 0.63141 0.0
C1116 C 0.6875 0.7882 0.57203 0.0
C1117 C 0.68677 0.76099 0.633 0.0
C1118 C 0.68376 0.77893 0.51471 0.0
C1119 C 0.68181 0.7609 0.51604 0.0
H1120 H 0.53628 0.4279 0.77808 0.0
H1121 H 0.538 0.42401 0.98762 0.0
H1122 H 0.50646 0.42071 0.99092 0.0
H1123 H 0.47824 0.42196 0.93517 0.0
H1124 H 0.47668 0.42667 0.72579 0.0
H1125 H 0.50832 0.42644 0.72172 0.0
C1126 C 0.52981 0.42611 0.82448 0.0
C1127 C 0.53949 0.42643 0.88255 0.0
C1128 C 0.51166 0.42448 0.82614 0.0
C1129 C 0.53087 0.42393 0.94216 0.0
C1130 C 0.51282 0.42209 0.94414 0.0
C1131 C 0.48481 0.42268 0.88855 0.0
C1132 C 0.47508 0.42455 0.83098 0.0
C1133 C 0.50305 0.42282 0.88656 0.0
C1134 C 0.48383 0.42538 0.77096 0.0
C1135 C 0.50194 0.42528 0.76854 0.0
H1136 H 0.96907 0.56861 0.42565 0.0
H1137 H 0.96531 0.57405 0.21693 0.0
H1138 H 0.99687 0.57544 0.20876 0.0
H1139 H 0.02554 0.57263 0.25953 0.0
H1140 H 0.02943 0.56656 0.46792 0.0
H1141 H 0.99786 0.56809 0.47742 0.0
C1142 C 0.97513 0.5703 0.37843 0.0
C1143 C 0.96479 0.57106 0.32199 0.0
C1144 C 0.99334 0.57089 0.37389 0.0
C1145 C 0.97291 0.57333 0.26123 0.0
C1146 C 0.99099 0.57409 0.25642 0.0
C1147 C 0.01952 0.57185 0.30716 0.0
C1148 C 0.02987 0.56931 0.36282 0.0
C1149 C 0.00134 0.57251 0.31225 0.0
C1150 C 0.02181 0.56842 0.42415 0.0
C1151 C 0.00373 0.56925 0.42966 0.0
H1152 H 0.98328 0.45863 0.65497 0.0
H1153 H 0.97818 0.41944 0.80362 0.0
H1154 H 0.0099 0.41647 0.80844 0.0
H1155 H 0.03912 0.4275 0.77812 0.0
H1156 H 0.04323 0.46732 0.63086 0.0
H1157 H 0.01187 0.46749 0.61769 0.0
C1158 C 0.98908 0.44929 0.68801 0.0
C1159 C 0.97845 0.43945 0.72949 0.0
C1160 C 0.00717 0.44788 0.69113 0.0
C1161 C 0.98612 0.4272 0.77125 0.0
C1162 C 0.00425 0.42558 0.77427 0.0
C1163 C 0.03314 0.436 0.74252 0.0
C1164 C 0.04349 0.44755 0.7062 0.0
C1165 C 0.01493 0.43622 0.73564 0.0
C1166 C 0.03557 0.45847 0.66011 0.0
C1167 C 0.01761 0.45858 0.65243 0.0
H1168 H 0.46822 0.56865 0.33515 0.0
H1169 H 0.4663 0.56875 0.12512 0.0
H1170 H 0.49788 0.57134 0.1205 0.0
H1171 H 0.52616 0.57102 0.17593 0.0
H1172 H 0.528 0.5704 0.386 0.0
H1173 H 0.49635 0.57072 0.39054 0.0
C1174 C 0.47467 0.56943 0.28831 0.0
C1175 C 0.46488 0.56832 0.23059 0.0
C1176 C 0.49286 0.57072 0.28594 0.0
C1177 C 0.47348 0.56948 0.17037 0.0
C1178 C 0.49157 0.57091 0.16763 0.0
C1179 C 0.51966 0.57116 0.22274 0.0
C1180 C 0.52949 0.5705 0.28048 0.0
C1181 C 0.50141 0.57115 0.22509 0.0
C1182 C 0.5208 0.5708 0.34071 0.0
C1183 C 0.50267 0.57094 0.34342 0.0
H1184 H 0.21888 0.1509 0.26061 0.0
H1185 H 0.2636 0.15624 0.13565 0.0
H1186 H 0.28271 0.15671 0.23053 0.0
H1187 H 0.28665 0.15686 0.34941 0.0
H1188 H 0.24211 0.14997 0.47421 0.0
H1189 H 0.22306 0.14877 0.37919 0.0
C1190 C 0.23282 0.15207 0.2542 0.0
C1191 C 0.23979 0.15365 0.1912 0.0
C1192 C 0.24378 0.1521 0.30898 0.0
C1193 C 0.25789 0.15496 0.1836 0.0
C1194 C 0.26884 0.15531 0.23786 0.0
C1195 C 0.27278 0.15501 0.35573 0.0
C1196 C 0.2658 0.15363 0.41876 0.0
C1197 C 0.26191 0.15408 0.30082 0.0
C1198 C 0.24783 0.15103 0.4262 0.0
C1199 C 0.2369 0.15041 0.37189 0.0
H1200 H 0.09825 0.96593 0.53468 0.0
H1201 H 0.06278 0.0025 0.44676 0.0
H1202 H 0.06664 0.02224 0.53812 0.0
H1203 H 0.07911 0.02875 0.64471 0.0
H1204 H 0.11399 0.99208 0.73507 0.0
H1205 H 0.11146 0.9729 0.64078 0.0
C1206 C 0.09141 0.97824 0.53545 0.0
C1207 C 0.08018 0.98266 0.48403 0.0
C1208 C 0.0936 0.98957 0.58851 0.0
C1209 C 0.07144 0.99869 0.48576 0.0
C1210 C 0.07365 0.01004 0.53799 0.0
C1211 C 0.08632 0.01665 0.64358 0.0
C1212 C 0.09671 0.01187 0.69693 0.0
C1213 C 0.08459 0.00556 0.58982 0.0
C1214 C 0.10587 0.99608 0.6947 0.0
C1215 C 0.1044 0.98507 0.64085 0.0
H1216 H 0.25523 0.85048 0.9486 0.0
H1217 H 0.20435 0.85668 0.86358 0.0
H1218 H 0.21711 0.85688 0.75467 0.0
H1219 H 0.24246 0.85324 0.68339 0.0
H1220 H 0.29306 0.84492 0.76834 0.0
H1221 H 0.28069 0.84766 0.87735 0.0
C1222 C 0.24696 0.85213 0.90628 0.0
C1223 C 0.22888 0.8536 0.91414 0.0
C1224 C 0.25433 0.85171 0.84372 0.0
C1225 C 0.21831 0.8555 0.85878 0.0
C1226 C 0.2256 0.85558 0.79649 0.0
C1227 C 0.25082 0.85223 0.72574 0.0
C1228 C 0.26865 0.84887 0.71775 0.0
C1229 C 0.24355 0.85338 0.78833 0.0
C1230 C 0.27927 0.84742 0.77316 0.0
C1231 C 0.27221 0.849 0.83553 0.0
H1232 H 0.39791 0.98445 0.91295 0.0
H1233 H 0.38599 0.03383 0.00181 0.0
H1234 H 0.38548 0.0201 0.10911 0.0
H1235 H 0.39058 0.99454 0.17818 0.0
H1236 H 0.40416 0.9456 0.08917 0.0
H1237 H 0.40177 0.95871 0.98135 0.0
C1238 C 0.39497 0.9922 0.95563 0.0
C1239 C 0.39203 0.01016 0.94933 0.0
C1240 C 0.39512 0.98432 0.01722 0.0
C1241 C 0.38836 0.01999 0.0053 0.0
C1242 C 0.3881 0.01216 0.06669 0.0
C1243 C 0.39282 0.98668 0.13518 0.0
C1244 C 0.39759 0.96912 0.14178 0.0
C1245 C 0.39179 0.9944 0.07333 0.0
C1246 C 0.40055 0.95917 0.08552 0.0
C1247 C 0.39919 0.96665 0.02382 0.0
H1248 H 0.78831 0.85645 0.79709 0.0
H1249 H 0.74251 0.85928 0.91775 0.0
H1250 H 0.72408 0.85864 0.82107 0.0
H1251 H 0.72094 0.85512 0.70253 0.0
H1252 H 0.76689 0.85283 0.58238 0.0
H1253 H 0.78523 0.85547 0.67851 0.0
C1254 C 0.7743 0.85711 0.80223 0.0
C1255 C 0.76682 0.85775 0.86455 0.0
C1256 C 0.76377 0.8567 0.74651 0.0
C1257 C 0.74864 0.85877 0.87034 0.0
C1258 C 0.73807 0.85832 0.81507 0.0
C1259 C 0.73496 0.85532 0.6974 0.0
C1260 C 0.74251 0.85359 0.63542 0.0
C1261 C 0.74548 0.85693 0.75297 0.0
C1262 C 0.76071 0.85408 0.62949 0.0
C1263 C 0.77124 0.85556 0.68448 0.0
H1264 H 0.91775 0.00068 0.666 0.0
H1265 H 0.89992 0.04935 0.58597 0.0
H1266 H 0.89393 0.03513 0.48195 0.0
H1267 H 0.89541 0.00924 0.412 0.0
H1268 H 0.91369 0.96077 0.49254 0.0
H1269 H 0.91767 0.97456 0.59827 0.0
C1270 C 0.91247 0.0082 0.62595 0.0
C1271 C 0.90943 0.02609 0.63364 0.0
C1272 C 0.90914 -3e-05 0.56632 0.0
C1273 C 0.90244 0.03557 0.58134 0.0
C1274 C 0.89903 0.02745 0.5218 0.0
C1275 C 0.90008 0.00164 0.45283 0.0
C1276 C 0.90434 0.98401 0.44412 0.0
C1277 C 0.90255 0.0097 0.51348 0.0
C1278 C 0.91037 0.97436 0.49768 0.0
C1279 C 0.9127 0.98225 0.5582 0.0
H1280 H 0.73797 0.15063 0.14963 0.0
H1281 H 0.78854 0.15459 0.23914 0.0
H1282 H 0.7752 0.15452 0.34693 0.0
H1283 H 0.7491 0.15539 0.41556 0.0
H1284 H 0.69845 0.15338 0.32582 0.0
H1285 H 0.71187 0.1505 0.21861 0.0
C1286 C 0.74608 0.15126 0.19274 0.0
C1287 C 0.76422 0.15264 0.18629 0.0
C1288 C 0.73829 0.15165 0.25464 0.0
C1289 C 0.77454 0.1536 0.24269 0.0
C1290 C 0.76692 0.15357 0.3044 0.0
C1291 C 0.741 0.15409 0.37264 0.0
C1292 C 0.7228 0.15461 0.37872 0.0
C1293 C 0.7488 0.1529 0.31095 0.0
C1294 C 0.71249 0.15308 0.32249 0.0
C1295 C 0.72016 0.15145 0.26113 0.0
H1296 H 0.59646 0.00881 0.1393 0.0
H1297 H 0.59475 0.95768 0.05321 0.0
H1298 H 0.59415 0.97053 0.94465 0.0
H1299 H 0.59197 0.99625 0.87453 0.0
H1300 H 0.59278 0.04736 0.96088 0.0
H1301 H 0.596 0.03452 0.06879 0.0
C1302 C 0.59614 0.00045 0.09683 0.0
C1303 C 0.59554 0.9823 0.10456 0.0
C1304 C 0.59554 0.00793 0.03448 0.0
C1305 C 0.59515 0.97169 0.04883 0.0
C1306 C 0.59478 0.97903 0.98664 0.0
C1307 C 0.59303 0.00461 0.91682 0.0
C1308 C 0.592 0.02275 0.9095 0.0
C1309 C 0.59463 0.99713 0.97893 0.0
C1310 C 0.59344 0.03336 0.96499 0.0
C1311 C 0.59525 0.02602 0.02682 0.0
H1312 H 0.787 0.64468 0.82662 0.0
H1313 H 0.75745 0.68099 0.94231 0.0
H1314 H 0.73425 0.68075 0.86168 0.0
H1315 H 0.72289 0.67143 0.75599 0.0
H1316 H 0.75249 0.63553 0.63879 0.0
H1317 H 0.77498 0.63434 0.7225 0.0
C1318 C 0.77545 0.65245 0.8344 0.0
C1319 C 0.77407 0.66291 0.89034 0.0
C1320 C 0.76213 0.65237 0.78748 0.0
C1321 C 0.75895 0.67288 0.8996 0.0
C1322 C 0.74564 0.67277 0.85348 0.0
C1323 C 0.73418 0.66321 0.74892 0.0
C1324 C 0.736 0.65365 0.69098 0.0
C1325 C 0.74717 0.66273 0.79689 0.0
C1326 C 0.75074 0.64308 0.68278 0.0
C1327 C 0.76365 0.64241 0.73061 0.0
H1328 H 0.58759 0.49656 0.2101 0.0
H1329 H 0.59726 0.54688 0.12488 0.0
H1330 H 0.60305 0.53322 0.01969 0.0
H1331 H 0.60381 0.50712 0.95072 0.0
H1332 H 0.59356 0.45693 0.03626 0.0
H1333 H 0.58975 0.47044 0.14269 0.0
C1334 C 0.59103 0.50457 0.16865 0.0
C1335 C 0.59186 0.52273 0.17534 0.0
C1336 C 0.59426 0.49665 0.10833 0.0
C1337 C 0.59647 0.53287 0.12111 0.0
C1338 C 0.59978 0.52507 0.0609 0.0
C1339 C 0.60094 0.4991 0.99275 0.0
C1340 C 0.5989 0.48103 0.98534 0.0
C1341 C 0.59851 0.50698 0.05377 0.0
C1342 C 0.59515 0.47086 0.04041 0.0
C1343 C 0.59292 0.47858 0.10133 0.0
H1344 H 0.76193 0.33638 0.41561 0.0
H1345 H 0.71467 0.35773 0.3357 0.0
H1346 H 0.72892 0.36159 0.23043 0.0
H1347 H 0.75433 0.35743 0.15958 0.0
H1348 H 0.80144 0.33577 0.23979 0.0
H1349 H 0.78772 0.33366 0.3465 0.0
C1350 C 0.75474 0.34196 0.37531 0.0
C1351 C 0.73721 0.34664 0.38352 0.0
C1352 C 0.76299 0.34408 0.31487 0.0
C1353 C 0.72816 0.35397 0.33079 0.0
C1354 C 0.7363 0.35616 0.27049 0.0
C1355 C 0.76166 0.35239 0.20048 0.0
C1356 C 0.77887 0.34668 0.19142 0.0
C1357 C 0.75364 0.35105 0.26175 0.0
C1358 C 0.78817 0.34022 0.24516 0.0
C1359 C 0.78032 0.33896 0.30626 0.0
H1360 H 0.8884 0.49223 0.61447 0.0
H1361 H 0.93102 0.45851 0.56288 0.0
H1362 H 0.93627 0.47547 0.46465 0.0
H1363 H 0.92974 0.50056 0.39608 0.0
H1364 H 0.88787 0.53509 0.44859 0.0
H1365 H 0.88138 0.51714 0.54373 0.0
C1366 C 0.89869 0.48847 0.58129 0.0
C1367 C 0.90929 0.47411 0.59602 0.0
C1368 C 0.90189 0.49852 0.52535 0.0
C1369 C 0.92269 0.46952 0.55283 0.0
C1370 C 0.92573 0.47924 0.49666 0.0
C1371 C 0.91914 0.50416 0.42812 0.0
C1372 C 0.90936 0.5192 0.41526 0.0
C1373 C 0.91558 0.49389 0.48293 0.0
C1374 C 0.89567 0.52363 0.45744 0.0
C1375 C 0.89193 0.51335 0.51184 0.0
H1376 H 0.21412 0.34836 0.26066 0.0
H1377 H 0.25937 0.3549 0.13918 0.0
H1378 H 0.27784 0.35649 0.23574 0.0
H1379 H 0.28136 0.35396 0.35444 0.0
H1380 H 0.23597 0.34846 0.47595 0.0
H1381 H 0.21735 0.34866 0.37971 0.0
C1382 C 0.22801 0.35029 0.25537 0.0
C1383 C 0.23538 0.35134 0.19284 0.0
C1384 C 0.23854 0.3513 0.31109 0.0
C1385 C 0.25336 0.35405 0.18674 0.0
C1386 C 0.26395 0.35488 0.24195 0.0
C1387 C 0.26738 0.35297 0.35985 0.0
C1388 C 0.26008 0.35103 0.42222 0.0
C1389 C 0.25672 0.35321 0.30431 0.0
C1390 C 0.24193 0.34996 0.42853 0.0
C1391 C 0.23127 0.35 0.37348 0.0
H1392 H 0.39711 0.49604 0.9183 0.0
H1393 H 0.4232 0.451 0.99659 0.0
H1394 H 0.426 0.46541 0.10173 0.0
H1395 H 0.42256 0.49128 0.16964 0.0
H1396 H 0.39686 0.53656 0.09183 0.0
H1397 H 0.39237 0.52153 0.98837 0.0
C1398 C 0.40325 0.4893 0.95852 0.0
C1399 C 0.41001 0.47248 0.94933 0.0
C1400 C 0.40501 0.49774 0.01883 0.0
C1401 C 0.41793 0.46396 0.0021 0.0
C1402 C 0.41958 0.4722 0.06229 0.0
C1403 C 0.41591 0.49787 0.1302 0.0
C1404 C 0.41018 0.51508 0.13839 0.0
C1405 C 0.41343 0.48918 0.07087 0.0
C1406 C 0.40146 0.52334 0.08683 0.0
C1407 C 0.3989 0.51475 0.02761 0.0
H1408 H 0.23126 0.63967 0.87643 0.0
H1409 H 0.20328 0.68711 0.83694 0.0
H1410 H 0.22156 0.69254 0.74232 0.0
H1411 H 0.2459 0.6844 0.67257 0.0
H1412 H 0.27463 0.63745 0.71221 0.0
H1413 H 0.25569 0.6313 0.80504 0.0
C1414 C 0.22907 0.65111 0.84676 0.0
C1415 C 0.2159 0.66295 0.86382 0.0
C1416 C 0.23985 0.65432 0.79271 0.0
C1417 C 0.21335 0.67779 0.82513 0.0
C1418 C 0.22381 0.68093 0.77097 0.0
C1419 C 0.24805 0.67279 0.70136 0.0
C1420 C 0.26171 0.66143 0.68541 0.0
C1421 C 0.23719 0.66939 0.75468 0.0
C1422 C 0.26426 0.64646 0.72344 0.0
C1423 C 0.2534 0.64292 0.7765 0.0
H1424 H 0.10357 0.49608 0.38947 0.0
H1425 H 0.10034 0.5456 0.48731 0.0
H1426 H 0.10693 0.5316 0.59109 0.0
H1427 H 0.11117 0.5051 0.65494 0.0
H1428 H 0.11233 0.45533 0.55842 0.0
H1429 H 0.10925 0.46968 0.45286 0.0
C1430 C 0.10449 0.50385 0.43336 0.0
C1431 C 0.10137 0.52185 0.43071 0.0
C1432 C 0.1079 0.49567 0.49304 0.0
C1433 C 0.10256 0.53171 0.48808 0.0
C1434 C 0.10635 0.52372 0.54743 0.0
C1435 C 0.11107 0.49739 0.61077 0.0
C1436 C 0.11196 0.47916 0.61451 0.0
C1437 C 0.10871 0.50567 0.55062 0.0
C1438 C 0.11164 0.46937 0.55682 0.0
C1439 C 0.10981 0.47757 0.49652 0.0
loop_
_geom_bond_atom_site_label_1
_geom_bond_atom_site_label_2
_geom_bond_distance
_geom_bond_site_symmetry_2
_ccdc_geom_bond_type
C0 O1 1.160 . S
C0 O7 1.185 . S
O1 C0 1.160 . S
O2 Zn3 1.899 . S
O2 C10 1.284 . S
Zn3 O2 1.899 . S
Zn3 O4 2.032 1_554 S
Zn3 O7 2.086 . S
Zn3 O12 1.977 . S
O4 Zn3 2.032 1_556 S
O4 C8 1.278 . S
C5 O6 1.203 . S
C5 O12 1.267 . S
O6 C5 1.203 . S
O7 C0 1.185 . S
O7 Zn3 2.086 . S
C8 O4 1.278 . S
C8 O9 1.211 . S
O9 C8 1.211 . S
C10 O2 1.284 . S
C10 O11 1.273 . S
O11 C10 1.273 . S
O12 Zn3 1.977 . S
O12 C5 1.267 . S
C13 O14 1.160 . S
C13 O20 1.185 . S
O14 C13 1.160 . S
O15 Zn16 1.899 . S
O15 C23 1.284 . S
Zn16 O15 1.899 . S
Zn16 O17 2.032 . S
Zn16 O20 2.086 . S
Zn16 O25 1.977 . S
O17 Zn16 2.032 . S
O17 C21 1.278 . S
C18 O19 1.203 . S
C18 O25 1.267 . S
O19 C18 1.203 . S
O20 C13 1.185 . S
O20 Zn16 2.086 . S
C21 O17 1.278 . S
C21 O22 1.211 . S
O22 C21 1.211 . S
C23 O15 1.284 . S
C23 O24 1.273 . S
O24 C23 1.273 . S
O25 Zn16 1.977 . S
O25 C18 1.267 . S
C26 O27 1.160 . S
C26 O33 1.185 . S
O27 C26 1.160 . S
O28 Zn29 1.899 . S
O28 C36 1.284 . S
Zn29 O28 1.899 . S
Zn29 O30 2.032 . S
Zn29 O33 2.086 . S
Zn29 O38 1.977 . S
O30 Zn29 2.032 . S
O30 C34 1.278 . S
C31 O32 1.203 . S
C31 O38 1.267 . S
O32 C31 1.203 . S
O33 C26 1.185 . S
O33 Zn29 2.086 . S
C34 O30 1.278 . S
C34 O35 1.211 . S
O35 C34 1.211 . S
C36 O28 1.284 . S
C36 O37 1.273 . S
O37 C36 1.273 . S
O38 Zn29 1.977 . S
O38 C31 1.267 . S
C39 O40 1.160 . S
C39 O46 1.185 . S
O40 C39 1.160 . S
O41 Zn42 1.899 . S
O41 C49 1.284 . S
Zn42 O41 1.899 . S
Zn42 O43 2.032 . S
Zn42 O46 2.086 . S
Zn42 O51 1.977 . S
O43 Zn42 2.032 . S
O43 C47 1.278 . S
C44 O45 1.203 . S
C44 O51 1.267 . S
O45 C44 1.203 . S
O46 C39 1.185 . S
O46 Zn42 2.086 . S
C47 O43 1.278 . S
C47 O48 1.211 . S
O48 C47 1.211 . S
C49 O41 1.284 . S
C49 O50 1.273 . S
O50 C49 1.273 . S
O51 Zn42 1.977 . S
O51 C44 1.267 . S
C52 O53 1.160 . S
C52 O59 1.185 . S
O53 C52 1.160 . S
O54 Zn55 1.899 1_556 S
O54 C62 1.284 . S
Zn55 O54 1.899 1_554 S
Zn55 O56 2.032 . S
Zn55 O59 2.086 . S
Zn55 O64 1.977 . S
O56 Zn55 2.032 . S
O56 C60 1.278 . S
C57 O58 1.203 . S
C57 O64 1.267 . S
O58 C57 1.203 . S
O59 C52 1.185 . S
O59 Zn55 2.086 . S
C60 O56 1.278 . S
C60 O61 1.211 . S
O61 C60 1.211 . S
C62 O54 1.284 . S
C62 O63 1.273 . S
O63 C62 1.273 . S
O64 Zn55 1.977 . S
O64 C57 1.267 . S
C65 O66 1.160 . S
C65 O72 1.185 . S
O66 C65 1.160 . S
O67 Zn68 1.899 . S
O67 C75 1.284 . S
Zn68 O67 1.899 . S
Zn68 O69 2.032 . S
Zn68 O72 2.086 . S
Zn68 O77 1.977 . S
O69 Zn68 2.032 . S
O69 C73 1.278 . S
C70 O71 1.203 . S
C70 O77 1.267 . S
O71 C70 1.203 . S
O72 C65 1.185 . S
O72 Zn68 2.086 . S
C73 O69 1.278 . S
C73 O74 1.211 . S
O74 C73 1.211 . S
C75 O67 1.284 . S
C75 O76 1.273 . S
O76 C75 1.273 . S
O77 Zn68 1.977 . S
O77 C70 1.267 . S
C78 O79 1.160 . S
C78 O85 1.185 . S
O79 C78 1.160 . S
O80 Zn81 1.899 . S
O80 C88 1.284 . S
Zn81 O80 1.899 . S
Zn81 O82 2.032 . S
Zn81 O85 2.086 . S
Zn81 O90 1.977 . S
O82 Zn81 2.032 . S
O82 C86 1.278 . S
C83 O84 1.203 . S
C83 O90 1.267 . S
O84 C83 1.203 . S
O85 C78 1.185 . S
O85 Zn81 2.086 . S
C86 O82 1.278 . S
C86 O87 1.211 . S
O87 C86 1.211 . S
C88 O80 1.284 . S
C88 O89 1.273 . S
O89 C88 1.273 . S
O90 Zn81 1.977 . S
O90 C83 1.267 . S
C91 O92 1.160 . S
C91 O98 1.185 . S
O92 C91 1.160 . S
O93 Zn94 1.899 . S
O93 C101 1.284 . S
Zn94 O93 1.899 . S
Zn94 O95 2.032 . S
Zn94 O98 2.086 . S
Zn94 O103 1.977 . S
O95 Zn94 2.032 . S
O95 C99 1.278 . S
C96 O97 1.203 . S
C96 O103 1.267 . S
O97 C96 1.203 . S
O98 C91 1.185 . S
O98 Zn94 2.086 . S
C99 O95 1.278 . S
C99 O100 1.211 . S
O100 C99 1.211 . S
C101 O93 1.284 . S
C101 O102 1.273 . S
O102 C101 1.273 . S
O103 Zn94 1.977 . S
O103 C96 1.267 . S
C104 O105 1.160 . S
C104 O111 1.185 . S
O105 C104 1.160 . S
O106 Zn107 1.899 1_556 S
O106 C114 1.284 . S
Zn107 O106 1.899 1_554 S
Zn107 O108 2.032 . S
Zn107 O111 2.086 . S
Zn107 O116 1.977 . S
O108 Zn107 2.032 . S
O108 C112 1.278 . S
C109 O110 1.203 . S
C109 O116 1.267 . S
O110 C109 1.203 . S
O111 C104 1.185 . S
O111 Zn107 2.086 . S
C112 O108 1.278 . S
C112 O113 1.211 . S
O113 C112 1.211 . S
C114 O106 1.284 . S
C114 O115 1.273 . S
O115 C114 1.273 . S
O116 Zn107 1.977 . S
O116 C109 1.267 . S
C117 O118 1.160 . S
C117 O124 1.185 . S
O118 C117 1.160 . S
O119 Zn120 1.899 . S
O119 C127 1.284 . S
Zn120 O119 1.899 . S
Zn120 O121 2.032 . S
Zn120 O124 2.086 . S
Zn120 O129 1.977 . S
O121 Zn120 2.032 . S
O121 C125 1.278 . S
C122 O123 1.203 . S
C122 O129 1.267 . S
O123 C122 1.203 . S
O124 C117 1.185 . S
O124 Zn120 2.086 . S
C125 O121 1.278 . S
C125 O126 1.211 . S
O126 C125 1.211 . S
C127 O119 1.284 . S
C127 O128 1.273 . S
O128 C127 1.273 . S
O129 Zn120 1.977 . S
O129 C122 1.267 . S
C130 O131 1.160 . S
C130 O137 1.185 . S
O131 C130 1.160 . S
O132 Zn133 1.899 . S
O132 C140 1.284 . S
Zn133 O132 1.899 . S
Zn133 O134 2.032 . S
Zn133 O137 2.086 . S
Zn133 O142 1.977 . S
O134 Zn133 2.032 . S
O134 C138 1.278 . S
C135 O136 1.203 . S
C135 O142 1.267 . S
O136 C135 1.203 . S
O137 C130 1.185 . S
O137 Zn133 2.086 . S
C138 O134 1.278 . S
C138 O139 1.211 . S
O139 C138 1.211 . S
C140 O132 1.284 . S
C140 O141 1.273 . S
O141 C140 1.273 . S
O142 Zn133 1.977 . S
O142 C135 1.267 . S
C143 O144 1.160 . S
C143 O150 1.185 . S
O144 C143 1.160 . S
O145 Zn146 1.899 . S
O145 C153 1.284 . S
Zn146 O145 1.899 . S
Zn146 O147 2.032 . S
Zn146 O150 2.086 . S
Zn146 O155 1.977 . S
O147 Zn146 2.032 . S
O147 C151 1.278 . S
C148 O149 1.203 . S
C148 O155 1.267 . S
O149 C148 1.203 . S
O150 C143 1.185 . S
O150 Zn146 2.086 . S
C151 O147 1.278 . S
C151 O152 1.211 . S
O152 C151 1.211 . S
C153 O145 1.284 . S
C153 O154 1.273 . S
O154 C153 1.273 . S
O155 Zn146 1.977 . S
O155 C148 1.267 . S
C156 O157 1.160 . S
C156 O163 1.185 . S
O157 C156 1.160 . S
O158 Zn159 1.899 . S
O158 C166 1.284 . S
Zn159 O158 1.899 . S
Zn159 O160 2.032 1_554 S
Zn159 O163 2.086 . S
Zn159 O168 1.977 . S
O160 Zn159 2.032 1_556 S
O160 C164 1.278 . S
C161 O162 1.203 . S
C161 O168 1.267 . S
O162 C161 1.203 . S
O163 C156 1.185 . S
O163 Zn159 2.086 . S
C164 O160 1.278 . S
C164 O165 1.211 . S
O165 C164 1.211 . S
C166 O158 1.284 . S
C166 O167 1.273 . S
O167 C166 1.273 . S
O168 Zn159 1.977 . S
O168 C161 1.267 . S
C169 O170 1.160 . S
C169 O176 1.185 . S
O170 C169 1.160 . S
O171 Zn172 1.899 . S
O171 C179 1.284 . S
Zn172 O171 1.899 . S
Zn172 O173 2.032 . S
Zn172 O176 2.086 . S
Zn172 O181 1.977 . S
O173 Zn172 2.032 . S
O173 C177 1.278 . S
C174 O175 1.203 . S
C174 O181 1.267 . S
O175 C174 1.203 . S
O176 C169 1.185 . S
O176 Zn172 2.086 . S
C177 O173 1.278 . S
C177 O178 1.211 . S
O178 C177 1.211 . S
C179 O171 1.284 . S
C179 O180 1.273 . S
O180 C179 1.273 . S
O181 Zn172 1.977 . S
O181 C174 1.267 . S
C182 O183 1.160 . S
C182 O189 1.185 . S
O183 C182 1.160 . S
O184 Zn185 1.899 . S
O184 C192 1.284 . S
Zn185 O184 1.899 . S
Zn185 O186 2.032 . S
Zn185 O189 2.086 . S
Zn185 O194 1.977 . S
O186 Zn185 2.032 . S
O186 C190 1.278 . S
C187 O188 1.203 . S
C187 O194 1.267 . S
O188 C187 1.203 . S
O189 C182 1.185 . S
O189 Zn185 2.086 . S
C190 O186 1.278 . S
C190 O191 1.211 . S
O191 C190 1.211 . S
C192 O184 1.284 . S
C192 O193 1.273 . S
O193 C192 1.273 . S
O194 Zn185 1.977 . S
O194 C187 1.267 . S
C195 O196 1.160 . S
C195 O202 1.185 . S
O196 C195 1.160 . S
O197 Zn198 1.899 . S
O197 C205 1.284 . S
Zn198 O197 1.899 . S
Zn198 O199 2.032 . S
Zn198 O202 2.086 . S
Zn198 O207 1.977 . S
O199 Zn198 2.032 . S
O199 C203 1.278 . S
C200 O201 1.203 . S
C200 O207 1.267 . S
O201 C200 1.203 . S
O202 C195 1.185 . S
O202 Zn198 2.086 . S
C203 O199 1.278 . S
C203 O204 1.211 . S
O204 C203 1.211 . S
C205 O197 1.284 . S
C205 O206 1.273 . S
O206 C205 1.273 . S
O207 Zn198 1.977 . S
O207 C200 1.267 . S
C208 O209 1.160 . S
C208 O215 1.185 . S
O209 C208 1.160 . S
O210 Zn211 1.899 . S
O210 C218 1.284 . S
Zn211 O210 1.899 . S
Zn211 O212 2.032 . S
Zn211 O215 2.086 . S
Zn211 O220 1.977 . S
O212 Zn211 2.032 . S
O212 C216 1.278 . S
C213 O214 1.203 . S
C213 O220 1.267 . S
O214 C213 1.203 . S
O215 C208 1.185 . S
O215 Zn211 2.086 . S
C216 O212 1.278 . S
C216 O217 1.211 . S
O217 C216 1.211 . S
C218 O210 1.284 . S
C218 O219 1.273 . S
O219 C218 1.273 . S
O220 Zn211 1.977 . S
O220 C213 1.267 . S
C221 O222 1.160 . S
C221 O228 1.185 . S
O222 C221 1.160 . S
O223 Zn224 1.899 . S
O223 C231 1.284 . S
Zn224 O223 1.899 . S
Zn224 O225 2.032 . S
Zn224 O228 2.086 . S
Zn224 O233 1.977 . S
O225 Zn224 2.032 . S
O225 C229 1.278 . S
C226 O227 1.203 . S
C226 O233 1.267 . S
O227 C226 1.203 . S
O228 C221 1.185 . S
O228 Zn224 2.086 . S
C229 O225 1.278 . S
C229 O230 1.211 . S
O230 C229 1.211 . S
C231 O223 1.284 . S
C231 O232 1.273 . S
O232 C231 1.273 . S
O233 Zn224 1.977 . S
O233 C226 1.267 . S
C234 O235 1.160 . S
C234 O241 1.185 . S
O235 C234 1.160 . S
O236 Zn237 1.899 . S
O236 C244 1.284 . S
Zn237 O236 1.899 . S
Zn237 O238 2.032 1_554 S
Zn237 O241 2.086 . S
Zn237 O246 1.977 . S
O238 Zn237 2.032 1_556 S
O238 C242 1.278 . S
C239 O240 1.203 . S
C239 O246 1.267 . S
O240 C239 1.203 . S
O241 C234 1.185 . S
O241 Zn237 2.086 . S
C242 O238 1.278 . S
C242 O243 1.211 . S
O243 C242 1.211 . S
C244 O236 1.284 . S
C244 O245 1.273 . S
O245 C244 1.273 . S
O246 Zn237 1.977 . S
O246 C239 1.267 . S
C247 O248 1.160 . S
C247 O254 1.185 . S
O248 C247 1.160 . S
O249 Zn250 1.899 . S
O249 C257 1.284 . S
Zn250 O249 1.899 . S
Zn250 O251 2.032 . S
Zn250 O254 2.086 . S
Zn250 O259 1.977 . S
O251 Zn250 2.032 . S
O251 C255 1.278 . S
C252 O253 1.203 . S
C252 O259 1.267 . S
O253 C252 1.203 . S
O254 C247 1.185 . S
O254 Zn250 2.086 . S
C255 O251 1.278 . S
C255 O256 1.211 . S
O256 C255 1.211 . S
C257 O249 1.284 . S
C257 O258 1.273 . S
O258 C257 1.273 . S
O259 Zn250 1.977 . S
O259 C252 1.267 . S
C260 O261 1.160 . S
C260 O267 1.185 . S
O261 C260 1.160 . S
O262 Zn263 1.899 . S
O262 C270 1.284 . S
Zn263 O262 1.899 . S
Zn263 O264 2.032 . S
Zn263 O267 2.086 . S
Zn263 O272 1.977 . S
O264 Zn263 2.032 . S
O264 C268 1.278 . S
C265 O266 1.203 . S
C265 O272 1.267 . S
O266 C265 1.203 . S
O267 C260 1.185 . S
O267 Zn263 2.086 . S
C268 O264 1.278 . S
C268 O269 1.211 . S
O269 C268 1.211 . S
C270 O262 1.284 . S
C270 O271 1.273 . S
O271 C270 1.273 . S
O272 Zn263 1.977 . S
O272 C265 1.267 . S
C273 O274 1.160 . S
C273 O280 1.185 . S
O274 C273 1.160 . S
O275 Zn276 1.899 . S
O275 C283 1.284 . S
Zn276 O275 1.899 . S
Zn276 O277 2.032 . S
Zn276 O280 2.086 . S
Zn276 O285 1.977 . S
O277 Zn276 2.032 . S
O277 C281 1.278 . S
C278 O279 1.203 . S
C278 O285 1.267 . S
O279 C278 1.203 . S
O280 C273 1.185 . S
O280 Zn276 2.086 . S
C281 O277 1.278 . S
C281 O282 1.211 . S
O282 C281 1.211 . S
C283 O275 1.284 . S
C283 O284 1.273 . S
O284 C283 1.273 . S
O285 Zn276 1.977 . S
O285 C278 1.267 . S
C286 O287 1.160 . S
C286 O293 1.185 . S
O287 C286 1.160 . S
O288 Zn289 1.899 1_556 S
O288 C296 1.284 . S
Zn289 O288 1.899 1_554 S
Zn289 O290 2.032 . S
Zn289 O293 2.086 . S
Zn289 O298 1.977 . S
O290 Zn289 2.032 . S
O290 C294 1.278 . S
C291 O292 1.203 . S
C291 O298 1.267 . S
O292 C291 1.203 . S
O293 C286 1.185 . S
O293 Zn289 2.086 . S
C294 O290 1.278 . S
C294 O295 1.211 . S
O295 C294 1.211 . S
C296 O288 1.284 . S
C296 O297 1.273 . S
O297 C296 1.273 . S
O298 Zn289 1.977 . S
O298 C291 1.267 . S
C299 O300 1.160 . S
C299 O306 1.185 . S
O300 C299 1.160 . S
O301 Zn302 1.899 . S
O301 C309 1.284 . S
Zn302 O301 1.899 . S
Zn302 O303 2.032 . S
Zn302 O306 2.086 . S
Zn302 O311 1.977 . S
O303 Zn302 2.032 . S
O303 C307 1.278 . S
C304 O305 1.203 . S
C304 O311 1.267 . S
O305 C304 1.203 . S
O306 C299 1.185 . S
O306 Zn302 2.086 . S
C307 O303 1.278 . S
C307 O308 1.211 . S
O308 C307 1.211 . S
C309 O301 1.284 . S
C309 O310 1.273 . S
O310 C309 1.273 . S
O311 Zn302 1.977 . S
O311 C304 1.267 . S
C312 O313 1.160 . S
C312 O319 1.185 . S
O313 C312 1.160 . S
O314 Zn315 1.899 . S
O314 C322 1.284 . S
Zn315 O314 1.899 . S
Zn315 O316 2.032 . S
Zn315 O319 2.086 . S
Zn315 O324 1.977 . S
O316 Zn315 2.032 . S
O316 C320 1.278 . S
C317 O318 1.203 . S
C317 O324 1.267 . S
O318 C317 1.203 . S
O319 C312 1.185 . S
O319 Zn315 2.086 . S
C320 O316 1.278 . S
C320 O321 1.211 . S
O321 C320 1.211 . S
C322 O314 1.284 . S
C322 O323 1.273 . S
O323 C322 1.273 . S
O324 Zn315 1.977 . S
O324 C317 1.267 . S
C325 O326 1.160 . S
C325 O332 1.185 . S
O326 C325 1.160 . S
O327 Zn328 1.899 . S
O327 C335 1.284 . S
Zn328 O327 1.899 . S
Zn328 O329 2.032 . S
Zn328 O332 2.086 . S
Zn328 O337 1.977 . S
O329 Zn328 2.032 . S
O329 C333 1.278 . S
C330 O331 1.203 . S
C330 O337 1.267 . S
O331 C330 1.203 . S
O332 C325 1.185 . S
O332 Zn328 2.086 . S
C333 O329 1.278 . S
C333 O334 1.211 . S
O334 C333 1.211 . S
C335 O327 1.284 . S
C335 O336 1.273 . S
O336 C335 1.273 . S
O337 Zn328 1.977 . S
O337 C330 1.267 . S
C338 O339 1.160 . S
C338 O345 1.185 . S
O339 C338 1.160 . S
O340 Zn341 1.899 1_556 S
O340 C348 1.284 . S
Zn341 O340 1.899 1_554 S
Zn341 O342 2.032 . S
Zn341 O345 2.086 . S
Zn341 O350 1.977 . S
O342 Zn341 2.032 . S
O342 C346 1.278 . S
C343 O344 1.203 . S
C343 O350 1.267 . S
O344 C343 1.203 . S
O345 C338 1.185 . S
O345 Zn341 2.086 . S
C346 O342 1.278 . S
C346 O347 1.211 . S
O347 C346 1.211 . S
C348 O340 1.284 . S
C348 O349 1.273 . S
O349 C348 1.273 . S
O350 Zn341 1.977 . S
O350 C343 1.267 . S
C351 O352 1.160 . S
C351 O358 1.185 . S
O352 C351 1.160 . S
O353 Zn354 1.899 . S
O353 C361 1.284 . S
Zn354 O353 1.899 . S
Zn354 O355 2.032 . S
Zn354 O358 2.086 . S
Zn354 O363 1.977 . S
O355 Zn354 2.032 . S
O355 C359 1.278 . S
C356 O357 1.203 . S
C356 O363 1.267 . S
O357 C356 1.203 . S
O358 C351 1.185 . S
O358 Zn354 2.086 . S
C359 O355 1.278 . S
C359 O360 1.211 . S
O360 C359 1.211 . S
C361 O353 1.284 . S
C361 O362 1.273 . S
O362 C361 1.273 . S
O363 Zn354 1.977 . S
O363 C356 1.267 . S
C364 O365 1.160 . S
C364 O371 1.185 . S
O365 C364 1.160 . S
O366 Zn367 1.899 . S
O366 C374 1.284 . S
Zn367 O366 1.899 . S
Zn367 O368 2.032 . S
Zn367 O371 2.086 . S
Zn367 O376 1.977 . S
O368 Zn367 2.032 . S
O368 C372 1.278 . S
C369 O370 1.203 . S
C369 O376 1.267 . S
O370 C369 1.203 . S
O371 C364 1.185 . S
O371 Zn367 2.086 . S
C372 O368 1.278 . S
C372 O373 1.211 . S
O373 C372 1.211 . S
C374 O366 1.284 . S
C374 O375 1.273 . S
O375 C374 1.273 . S
O376 Zn367 1.977 . S
O376 C369 1.267 . S
C377 O378 1.160 . S
C377 O384 1.185 . S
O378 C377 1.160 . S
O379 Zn380 1.899 . S
O379 C387 1.284 . S
Zn380 O379 1.899 . S
Zn380 O381 2.032 . S
Zn380 O384 2.086 . S
Zn380 O389 1.977 . S
O381 Zn380 2.032 . S
O381 C385 1.278 . S
C382 O383 1.203 . S
C382 O389 1.267 . S
O383 C382 1.203 . S
O384 C377 1.185 . S
O384 Zn380 2.086 . S
C385 O381 1.278 . S
C385 O386 1.211 . S
O386 C385 1.211 . S
C387 O379 1.284 . S
C387 O388 1.273 . S
O388 C387 1.273 . S
O389 Zn380 1.977 . S
O389 C382 1.267 . S
C390 O391 1.160 . S
C390 O397 1.185 . S
O391 C390 1.160 . S
O392 Zn393 1.899 . S
O392 C400 1.284 . S
Zn393 O392 1.899 . S
Zn393 O394 2.032 1_554 S
Zn393 O397 2.086 . S
Zn393 O402 1.977 . S
O394 Zn393 2.032 1_556 S
O394 C398 1.278 . S
C395 O396 1.203 . S
C395 O402 1.267 . S
O396 C395 1.203 . S
O397 C390 1.185 . S
O397 Zn393 2.086 . S
C398 O394 1.278 . S
C398 O399 1.211 . S
O399 C398 1.211 . S
C400 O392 1.284 . S
C400 O401 1.273 . S
O401 C400 1.273 . S
O402 Zn393 1.977 . S
O402 C395 1.267 . S
C403 O404 1.160 . S
C403 O410 1.185 . S
O404 C403 1.160 . S
O405 Zn406 1.899 . S
O405 C413 1.284 . S
Zn406 O405 1.899 . S
Zn406 O407 2.032 . S
Zn406 O410 2.086 . S
Zn406 O415 1.977 . S
O407 Zn406 2.032 . S
O407 C411 1.278 . S
C408 O409 1.203 . S
C408 O415 1.267 . S
O409 C408 1.203 . S
O410 C403 1.185 . S
O410 Zn406 2.086 . S
C411 O407 1.278 . S
C411 O412 1.211 . S
O412 C411 1.211 . S
C413 O405 1.284 . S
C413 O414 1.273 . S
O414 C413 1.273 . S
O415 Zn406 1.977 . S
O415 C408 1.267 . S
H416 C422 0.930 . S
H417 C425 0.930 . S
H418 C426 0.930 . S
H419 C427 0.930 . S
H420 C430 0.930 . S
H421 C431 0.930 1_554 S
C422 H416 0.930 . S
C422 C423 1.355 . S
C422 C424 1.415 . S
C423 C422 1.355 . S
C423 C425 1.419 . S
C424 C422 1.415 . S
C424 C429 1.425 . S
C424 C431 1.409 . S
C425 H417 0.930 . S
C425 C423 1.419 . S
C425 C426 1.362 . S
C426 H418 0.930 . S
C426 C425 1.362 . S
C426 C429 1.409 . S
C427 H419 0.930 . S
C427 C428 1.355 . S
C427 C429 1.415 . S
C428 C427 1.355 . S
C428 C430 1.419 1_556 S
C429 C424 1.425 . S
C429 C426 1.409 . S
C429 C427 1.415 . S
C430 H420 0.930 . S
C430 C428 1.419 1_554 S
C430 C431 1.362 1_554 S
C431 H421 0.930 1_556 S
C431 C424 1.409 . S
C431 C430 1.362 1_556 S
H432 C438 0.930 . S
H433 C441 0.930 . S
H434 C442 0.930 . S
H435 C443 0.930 . S
H436 C446 0.930 . S
H437 C447 0.930 . S
C438 H432 0.930 . S
C438 C439 1.355 . S
C438 C440 1.415 . S
C439 C438 1.355 . S
C439 C441 1.419 . S
C440 C438 1.415 . S
C440 C445 1.425 . S
C440 C447 1.409 . S
C441 H433 0.930 . S
C441 C439 1.419 . S
C441 C442 1.362 . S
C442 H434 0.930 . S
C442 C441 1.362 . S
C442 C445 1.409 . S
C443 H435 0.930 . S
C443 C444 1.355 . S
C443 C445 1.415 . S
C444 C443 1.355 . S
C444 C446 1.419 . S
C445 C440 1.425 . S
C445 C442 1.409 . S
C445 C443 1.415 . S
C446 H436 0.930 . S
C446 C444 1.419 . S
C446 C447 1.362 . S
C447 H437 0.930 . S
C447 C440 1.409 . S
C447 C446 1.362 . S
H448 C454 0.930 . S
H449 C457 0.930 . S
H450 C458 0.930 . S
H451 C459 0.930 . S
H452 C462 0.930 . S
H453 C463 0.930 . S
C454 H448 0.930 . S
C454 C455 1.355 . S
C454 C456 1.415 . S
C455 C454 1.355 . S
C455 C457 1.419 . S
C456 C454 1.415 . S
C456 C461 1.425 . S
C456 C463 1.409 . S
C457 H449 0.930 . S
C457 C455 1.419 . S
C457 C458 1.362 . S
C458 H450 0.930 . S
C458 C457 1.362 . S
C458 C461 1.409 . S
C459 H451 0.930 . S
C459 C460 1.355 . S
C459 C461 1.415 . S
C460 C459 1.355 . S
C460 C462 1.419 . S
C461 C456 1.425 . S
C461 C458 1.409 . S
C461 C459 1.415 . S
C462 H452 0.930 . S
C462 C460 1.419 . S
C462 C463 1.362 . S
C463 H453 0.930 . S
C463 C456 1.409 . S
C463 C462 1.362 . S
H464 C470 0.930 . S
H465 C473 0.930 . S
H466 C474 0.930 . S
H467 C475 0.930 . S
H468 C478 0.930 . S
H469 C479 0.930 . S
C470 H464 0.930 . S
C470 C471 1.355 . S
C470 C472 1.415 . S
C471 C470 1.355 . S
C471 C473 1.419 . S
C472 C470 1.415 . S
C472 C477 1.425 . S
C472 C479 1.409 . S
C473 H465 0.930 . S
C473 C471 1.419 . S
C473 C474 1.362 . S
C474 H466 0.930 . S
C474 C473 1.362 . S
C474 C477 1.409 . S
C475 H467 0.930 . S
C475 C476 1.355 . S
C475 C477 1.415 . S
C476 C475 1.355 . S
C476 C478 1.419 . S
C477 C472 1.425 . S
C477 C474 1.409 . S
C477 C475 1.415 . S
C478 H468 0.930 . S
C478 C476 1.419 . S
C478 C479 1.362 . S
C479 H469 0.930 . S
C479 C472 1.409 . S
C479 C478 1.362 . S
H480 C486 0.930 . S
H481 C489 0.930 . S
H482 C490 0.930 . S
H483 C491 0.930 . S
H484 C494 0.930 . S
H485 C495 0.930 . S
C486 H480 0.930 . S
C486 C487 1.355 . S
C486 C488 1.415 . S
C487 C486 1.355 . S
C487 C489 1.419 . S
C488 C486 1.415 . S
C488 C493 1.425 . S
C488 C495 1.409 . S
C489 H481 0.930 . S
C489 C487 1.419 . S
C489 C490 1.362 . S
C490 H482 0.930 . S
C490 C489 1.362 . S
C490 C493 1.409 . S
C491 H483 0.930 . S
C491 C492 1.355 . S
C491 C493 1.415 . S
C492 C491 1.355 . S
C492 C494 1.419 . S
C493 C488 1.425 . S
C493 C490 1.409 . S
C493 C491 1.415 . S
C494 H484 0.930 . S
C494 C492 1.419 . S
C494 C495 1.362 . S
C495 H485 0.930 . S
C495 C488 1.409 . S
C495 C494 1.362 . S
H496 C502 0.930 . S
H497 C505 0.930 . S
H498 C506 0.930 . S
H499 C507 0.930 . S
H500 C510 0.930 . S
H501 C511 0.930 1_554 S
C502 H496 0.930 . S
C502 C503 1.355 . S
C502 C504 1.415 . S
C503 C502 1.355 . S
C503 C505 1.419 . S
C504 C502 1.415 . S
C504 C509 1.425 . S
C504 C511 1.409 . S
C505 H497 0.930 . S
C505 C503 1.419 . S
C505 C506 1.362 . S
C506 H498 0.930 . S
C506 C505 1.362 . S
C506 C509 1.409 . S
C507 H499 0.930 . S
C507 C508 1.355 . S
C507 C509 1.415 . S
C508 C507 1.355 . S
C508 C510 1.419 1_556 S
C509 C504 1.425 . S
C509 C506 1.409 . S
C509 C507 1.415 . S
C510 H500 0.930 . S
C510 C508 1.419 1_554 S
C510 C511 1.362 1_554 S
C511 H501 0.930 1_556 S
C511 C504 1.409 . S
C511 C510 1.362 1_556 S
H512 C518 0.930 . S
H513 C521 0.930 . S
H514 C522 0.930 . S
H515 C523 0.930 . S
H516 C526 0.930 . S
H517 C527 0.930 . S
C518 H512 0.930 . S
C518 C519 1.355 . S
C518 C520 1.415 . S
C519 C518 1.355 . S
C519 C521 1.419 . S
C520 C518 1.415 . S
C520 C525 1.425 . S
C520 C527 1.409 . S
C521 H513 0.930 . S
C521 C519 1.419 . S
C521 C522 1.362 . S
C522 H514 0.930 . S
C522 C521 1.362 . S
C522 C525 1.409 . S
C523 H515 0.930 . S
C523 C524 1.355 . S
C523 C525 1.415 . S
C524 C523 1.355 . S
C524 C526 1.419 . S
C525 C520 1.425 . S
C525 C522 1.409 . S
C525 C523 1.415 . S
C526 H516 0.930 . S
C526 C524 1.419 . S
C526 C527 1.362 . S
C527 H517 0.930 . S
C527 C520 1.409 . S
C527 C526 1.362 . S
H528 C534 0.930 . S
H529 C537 0.930 . S
H530 C538 0.930 . S
H531 C539 0.930 . S
H532 C542 0.930 . S
H533 C543 0.930 . S
C534 H528 0.930 . S
C534 C535 1.355 . S
C534 C536 1.415 . S
C535 C534 1.355 . S
C535 C537 1.419 . S
C536 C534 1.415 . S
C536 C541 1.425 . S
C536 C543 1.409 . S
C537 H529 0.930 . S
C537 C535 1.419 . S
C537 C538 1.362 . S
C538 H530 0.930 . S
C538 C537 1.362 . S
C538 C541 1.409 . S
C539 H531 0.930 . S
C539 C540 1.355 . S
C539 C541 1.415 . S
C540 C539 1.355 . S
C540 C542 1.419 . S
C541 C536 1.425 . S
C541 C538 1.409 . S
C541 C539 1.415 . S
C542 H532 0.930 . S
C542 C540 1.419 . S
C542 C543 1.362 . S
C543 H533 0.930 . S
C543 C536 1.409 . S
C543 C542 1.362 . S
H544 C550 0.930 . S
H545 C553 0.930 . S
H546 C554 0.930 . S
H547 C555 0.930 . S
H548 C558 0.930 . S
H549 C559 0.930 . S
C550 H544 0.930 . S
C550 C551 1.355 . S
C550 C552 1.415 . S
C551 C550 1.355 . S
C551 C553 1.419 . S
C552 C550 1.415 . S
C552 C557 1.425 . S
C552 C559 1.409 . S
C553 H545 0.930 . S
C553 C551 1.419 . S
C553 C554 1.362 . S
C554 H546 0.930 . S
C554 C553 1.362 . S
C554 C557 1.409 . S
C555 H547 0.930 . S
C555 C556 1.355 . S
C555 C557 1.415 . S
C556 C555 1.355 . S
C556 C558 1.419 . S
C557 C552 1.425 . S
C557 C554 1.409 . S
C557 C555 1.415 . S
C558 H548 0.930 . S
C558 C556 1.419 . S
C558 C559 1.362 . S
C559 H549 0.930 . S
C559 C552 1.409 . S
C559 C558 1.362 . S
H560 C566 0.930 . S
H561 C569 0.930 . S
H562 C570 0.930 . S
H563 C571 0.930 . S
H564 C574 0.930 . S
H565 C575 0.930 . S
C566 H560 0.930 . S
C566 C567 1.355 . S
C566 C568 1.415 . S
C567 C566 1.355 . S
C567 C569 1.419 . S
C568 C566 1.415 . S
C568 C573 1.425 . S
C568 C575 1.409 . S
C569 H561 0.930 . S
C569 C567 1.419 . S
C569 C570 1.362 . S
C570 H562 0.930 . S
C570 C569 1.362 . S
C570 C573 1.409 . S
C571 H563 0.930 . S
C571 C572 1.355 . S
C571 C573 1.415 . S
C572 C571 1.355 . S
C572 C574 1.419 . S
C573 C568 1.425 . S
C573 C570 1.409 . S
C573 C571 1.415 . S
C574 H564 0.930 . S
C574 C572 1.419 . S
C574 C575 1.362 . S
C575 H565 0.930 . S
C575 C568 1.409 . S
C575 C574 1.362 . S
H576 C582 0.930 . S
H577 C585 0.930 . S
H578 C586 0.930 . S
H579 C587 0.930 . S
H580 C590 0.930 1_554 S
H581 C591 0.930 . S
C582 H576 0.930 . S
C582 C583 1.355 . S
C582 C584 1.415 . S
C583 C582 1.355 . S
C583 C585 1.419 . S
C584 C582 1.415 . S
C584 C589 1.425 . S
C584 C591 1.409 . S
C585 H577 0.930 . S
C585 C583 1.419 . S
C585 C586 1.362 . S
C586 H578 0.930 . S
C586 C585 1.362 . S
C586 C589 1.409 . S
C587 H579 0.930 . S
C587 C588 1.355 . S
C587 C589 1.415 . S
C588 C587 1.355 . S
C588 C590 1.419 . S
C589 C584 1.425 . S
C589 C586 1.409 . S
C589 C587 1.415 . S
C590 H580 0.930 1_556 S
C590 C588 1.419 . S
C590 C591 1.362 . S
C591 H581 0.930 . S
C591 C584 1.409 . S
C591 C590 1.362 . S
H592 C598 0.930 . S
H593 C601 0.930 . S
H594 C602 0.930 . S
H595 C603 0.930 . S
H596 C606 0.930 . S
H597 C607 0.930 . S
C598 H592 0.930 . S
C598 C599 1.355 . S
C598 C600 1.415 . S
C599 C598 1.355 . S
C599 C601 1.419 . S
C600 C598 1.415 . S
C600 C605 1.425 . S
C600 C607 1.409 . S
C601 H593 0.930 . S
C601 C599 1.419 . S
C601 C602 1.362 . S
C602 H594 0.930 . S
C602 C601 1.362 . S
C602 C605 1.409 . S
C603 H595 0.930 . S
C603 C604 1.355 . S
C603 C605 1.415 . S
C604 C603 1.355 . S
C604 C606 1.419 . S
C605 C600 1.425 . S
C605 C602 1.409 . S
C605 C603 1.415 . S
C606 H596 0.930 . S
C606 C604 1.419 . S
C606 C607 1.362 . S
C607 H597 0.930 . S
C607 C600 1.409 . S
C607 C606 1.362 . S
H608 C614 0.930 . S
H609 C617 0.930 . S
H610 C618 0.930 . S
H611 C619 0.930 . S
H612 C622 0.930 . S
H613 C623 0.930 . S
C614 H608 0.930 . S
C614 C615 1.355 . S
C614 C616 1.415 . S
C615 C614 1.355 . S
C615 C617 1.419 . S
C616 C614 1.415 . S
C616 C621 1.425 . S
C616 C623 1.409 . S
C617 H609 0.930 . S
C617 C615 1.419 . S
C617 C618 1.362 . S
C618 H610 0.930 . S
C618 C617 1.362 . S
C618 C621 1.409 . S
C619 H611 0.930 . S
C619 C620 1.355 . S
C619 C621 1.415 . S
C620 C619 1.355 . S
C620 C622 1.419 . S
C621 C616 1.425 . S
C621 C618 1.409 . S
C621 C619 1.415 . S
C622 H612 0.930 . S
C622 C620 1.419 . S
C622 C623 1.362 . S
C623 H613 0.930 . S
C623 C616 1.409 . S
C623 C622 1.362 . S
H624 C630 0.930 . S
H625 C633 0.930 . S
H626 C634 0.930 . S
H627 C635 0.930 . S
H628 C638 0.930 . S
H629 C639 0.930 . S
C630 H624 0.930 . S
C630 C631 1.355 . S
C630 C632 1.415 . S
C631 C630 1.355 . S
C631 C633 1.419 . S
C632 C630 1.415 . S
C632 C637 1.425 . S
C632 C639 1.409 . S
C633 H625 0.930 . S
C633 C631 1.419 . S
C633 C634 1.362 . S
C634 H626 0.930 . S
C634 C633 1.362 . S
C634 C637 1.409 . S
C635 H627 0.930 . S
C635 C636 1.355 . S
C635 C637 1.415 . S
C636 C635 1.355 . S
C636 C638 1.419 . S
C637 C632 1.425 . S
C637 C634 1.409 . S
C637 C635 1.415 . S
C638 H628 0.930 . S
C638 C636 1.419 . S
C638 C639 1.362 . S
C639 H629 0.930 . S
C639 C632 1.409 . S
C639 C638 1.362 . S
H640 C646 0.930 . S
H641 C649 0.930 . S
H642 C650 0.930 . S
H643 C651 0.930 . S
H644 C654 0.930 . S
H645 C655 0.930 . S
C646 H640 0.930 . S
C646 C647 1.355 . S
C646 C648 1.415 . S
C647 C646 1.355 . S
C647 C649 1.419 . S
C648 C646 1.415 . S
C648 C653 1.425 . S
C648 C655 1.409 . S
C649 H641 0.930 . S
C649 C647 1.419 . S
C649 C650 1.362 . S
C650 H642 0.930 . S
C650 C649 1.362 . S
C650 C653 1.409 . S
C651 H643 0.930 . S
C651 C652 1.355 . S
C651 C653 1.415 . S
C652 C651 1.355 . S
C652 C654 1.419 . S
C653 C648 1.425 . S
C653 C650 1.409 . S
C653 C651 1.415 . S
C654 H644 0.930 . S
C654 C652 1.419 . S
C654 C655 1.362 . S
C655 H645 0.930 . S
C655 C648 1.409 . S
C655 C654 1.362 . S
H656 C662 0.930 . S
H657 C665 0.930 . S
H658 C666 0.930 . S
H659 C667 0.930 . S
H660 C670 0.930 . S
H661 C671 0.930 . S
C662 H656 0.930 . S
C662 C663 1.355 . S
C662 C664 1.415 . S
C663 C662 1.355 . S
C663 C665 1.419 . S
C664 C662 1.415 . S
C664 C669 1.425 . S
C664 C671 1.409 . S
C665 H657 0.930 . S
C665 C663 1.419 . S
C665 C666 1.362 . S
C666 H658 0.930 . S
C666 C665 1.362 . S
C666 C669 1.409 . S
C667 H659 0.930 . S
C667 C668 1.355 . S
C667 C669 1.415 . S
C668 C667 1.355 . S
C668 C670 1.419 . S
C669 C664 1.425 . S
C669 C666 1.409 . S
C669 C667 1.415 . S
C670 H660 0.930 . S
C670 C668 1.419 . S
C670 C671 1.362 . S
C671 H661 0.930 . S
C671 C664 1.409 . S
C671 C670 1.362 . S
H672 C678 0.930 . S
H673 C681 0.930 . S
H674 C682 0.930 . S
H675 C683 0.930 . S
H676 C686 0.930 . S
H677 C687 0.930 . S
C678 H672 0.930 . S
C678 C679 1.355 . S
C678 C680 1.415 . S
C679 C678 1.355 . S
C679 C681 1.419 . S
C680 C678 1.415 . S
C680 C685 1.425 . S
C680 C687 1.409 . S
C681 H673 0.930 . S
C681 C679 1.419 . S
C681 C682 1.362 . S
C682 H674 0.930 . S
C682 C681 1.362 . S
C682 C685 1.409 . S
C683 H675 0.930 . S
C683 C684 1.355 . S
C683 C685 1.415 . S
C684 C683 1.355 . S
C684 C686 1.419 . S
C685 C680 1.425 . S
C685 C682 1.409 . S
C685 C683 1.415 . S
C686 H676 0.930 . S
C686 C684 1.419 . S
C686 C687 1.362 . S
C687 H677 0.930 . S
C687 C680 1.409 . S
C687 C686 1.362 . S
H688 C694 0.930 . S
H689 C697 0.930 . S
H690 C698 0.915 1_545 S
H691 C699 0.930 . S
H692 C702 0.930 . S
H693 C703 0.930 . S
C694 H688 0.930 . S
C694 C695 1.355 . S
C694 C696 1.435 . S
C695 C694 1.355 . S
C695 C697 1.419 . S
C696 C694 1.435 . S
C696 C701 1.416 1_565 S
C696 C703 1.399 1_565 S
C697 H689 0.930 . S
C697 C695 1.419 . S
C697 C698 1.403 . S
C698 H690 0.915 1_565 S
C698 C697 1.403 . S
C698 C701 1.389 1_565 S
C699 H691 0.930 . S
C699 C700 1.355 . S
C699 C701 1.415 1_556 S
C700 C699 1.355 . S
C700 C702 1.419 . S
C701 C696 1.416 1_545 S
C701 C698 1.389 1_545 S
C701 C699 1.415 1_554 S
C702 H692 0.930 . S
C702 C700 1.419 . S
C702 C703 1.362 1_556 S
C703 H693 0.930 . S
C703 C696 1.399 1_545 S
C703 C702 1.362 1_554 S
H704 C710 0.930 . S
H705 C713 0.930 . S
H706 C714 0.930 . S
H707 C715 0.930 . S
H708 C718 0.930 . S
H709 C719 0.930 . S
C710 H704 0.930 . S
C710 C711 1.355 . S
C710 C712 1.415 . S
C711 C710 1.355 . S
C711 C713 1.419 . S
C712 C710 1.415 . S
C712 C717 1.425 . S
C712 C719 1.409 . S
C713 H705 0.930 . S
C713 C711 1.419 . S
C713 C714 1.362 . S
C714 H706 0.930 . S
C714 C713 1.362 . S
C714 C717 1.409 . S
C715 H707 0.930 . S
C715 C716 1.355 . S
C715 C717 1.415 . S
C716 C715 1.355 . S
C716 C718 1.419 . S
C717 C712 1.425 . S
C717 C714 1.409 . S
C717 C715 1.415 . S
C718 H708 0.930 . S
C718 C716 1.419 . S
C718 C719 1.362 . S
C719 H709 0.930 . S
C719 C712 1.409 . S
C719 C718 1.362 . S
H720 C726 0.930 . S
H721 C729 0.930 . S
H722 C730 0.930 . S
H723 C731 0.930 . S
H724 C734 0.926 1_545 S
H725 C735 0.930 . S
C726 H720 0.930 . S
C726 C727 1.355 . S
C726 C728 1.415 . S
C727 C726 1.355 . S
C727 C729 1.419 . S
C728 C726 1.415 . S
C728 C733 1.425 1_545 S
C728 C735 1.409 . S
C729 H721 0.930 . S
C729 C727 1.419 . S
C729 C730 1.362 1_545 S
C730 H722 0.930 . S
C730 C729 1.362 1_565 S
C730 C733 1.409 . S
C731 H723 0.930 . S
C731 C732 1.355 . S
C731 C733 1.415 . S
C732 C731 1.355 . S
C732 C734 1.451 . S
C733 C728 1.425 1_565 S
C733 C730 1.409 . S
C733 C731 1.415 . S
C734 H724 0.926 1_565 S
C734 C732 1.451 . S
C734 C735 1.336 1_565 S
C735 H725 0.930 . S
C735 C728 1.409 . S
C735 C734 1.336 1_545 S
H736 C742 0.930 . S
H737 C745 0.930 . S
H738 C746 0.930 . S
H739 C747 0.930 . S
H740 C750 0.930 . S
H741 C751 0.930 . S
C742 H736 0.930 . S
C742 C743 1.355 . S
C742 C744 1.415 . S
C743 C742 1.355 . S
C743 C745 1.419 . S
C744 C742 1.415 . S
C744 C749 1.425 . S
C744 C751 1.409 . S
C745 H737 0.930 . S
C745 C743 1.419 . S
C745 C746 1.362 . S
C746 H738 0.930 . S
C746 C745 1.362 . S
C746 C749 1.409 . S
C747 H739 0.930 . S
C747 C748 1.355 . S
C747 C749 1.415 . S
C748 C747 1.355 . S
C748 C750 1.419 . S
C749 C744 1.425 . S
C749 C746 1.409 . S
C749 C747 1.415 . S
C750 H740 0.930 . S
C750 C748 1.419 . S
C750 C751 1.362 . S
C751 H741 0.930 . S
C751 C744 1.409 . S
C751 C750 1.362 . S
H752 C758 0.930 . S
H753 C761 0.930 . S
H754 C762 0.930 . S
H755 C763 0.930 . S
H756 C766 0.930 . S
H757 C767 0.930 . S
C758 H752 0.930 . S
C758 C759 1.355 . S
C758 C760 1.415 1_556 S
C759 C758 1.355 . S
C759 C761 1.419 . S
C760 C758 1.415 1_554 S
C760 C765 1.425 . S
C760 C767 1.409 1_545 S
C761 H753 0.930 . S
C761 C759 1.419 . S
C761 C762 1.362 1_556 S
C762 H754 0.930 . S
C762 C761 1.362 1_554 S
C762 C765 1.409 . S
C763 H755 0.930 . S
C763 C764 1.355 . S
C763 C765 1.415 1_565 S
C764 C763 1.355 . S
C764 C766 1.419 . S
C765 C760 1.425 . S
C765 C762 1.409 . S
C765 C763 1.415 1_545 S
C766 H756 0.930 . S
C766 C764 1.419 . S
C766 C767 1.362 . S
C767 H757 0.930 . S
C767 C760 1.409 1_565 S
C767 C766 1.362 . S
H768 C774 0.930 . S
H769 C777 0.930 . S
H770 C778 0.930 . S
H771 C779 0.930 . S
H772 C782 0.930 . S
H773 C783 0.930 . S
C774 H768 0.930 . S
C774 C775 1.355 . S
C774 C776 1.415 . S
C775 C774 1.355 . S
C775 C777 1.419 . S
C776 C774 1.415 . S
C776 C781 1.425 . S
C776 C783 1.409 . S
C777 H769 0.930 . S
C777 C775 1.419 . S
C777 C778 1.362 . S
C778 H770 0.930 . S
C778 C777 1.362 . S
C778 C781 1.409 . S
C779 H771 0.930 . S
C779 C780 1.355 . S
C779 C781 1.415 . S
C780 C779 1.355 . S
C780 C782 1.419 . S
C781 C776 1.425 . S
C781 C778 1.409 . S
C781 C779 1.415 . S
C782 H772 0.930 . S
C782 C780 1.419 . S
C782 C783 1.362 . S
C783 H773 0.930 . S
C783 C776 1.409 . S
C783 C782 1.362 . S
H784 C790 0.930 . S
H785 C793 0.930 . S
H786 C794 0.930 . S
H787 C795 0.930 . S
H788 C798 0.930 . S
H789 C799 0.930 . S
C790 H784 0.930 . S
C790 C791 1.355 . S
C790 C792 1.444 . S
C791 C790 1.355 . S
C791 C793 1.419 . S
C792 C790 1.444 . S
C792 C797 1.434 . S
C792 C799 1.373 1_545 S
C793 H785 0.930 . S
C793 C791 1.419 . S
C793 C794 1.362 . S
C794 H786 0.930 . S
C794 C793 1.362 . S
C794 C797 1.409 . S
C795 H787 0.930 . S
C795 C796 1.355 . S
C795 C797 1.415 1_565 S
C796 C795 1.355 . S
C796 C798 1.419 . S
C797 C792 1.434 . S
C797 C794 1.409 . S
C797 C795 1.415 1_545 S
C798 H788 0.930 . S
C798 C796 1.419 . S
C798 C799 1.362 . S
C799 H789 0.930 . S
C799 C792 1.373 1_565 S
C799 C798 1.362 . S
H800 C806 0.930 . S
H801 C809 0.930 . S
H802 C810 0.930 . S
H803 C811 0.930 . S
H804 C814 0.930 . S
H805 C815 0.930 . S
C806 H800 0.930 . S
C806 C807 1.355 . S
C806 C808 1.415 . S
C807 C806 1.355 . S
C807 C809 1.419 . S
C808 C806 1.415 . S
C808 C813 1.425 . S
C808 C815 1.409 . S
C809 H801 0.930 . S
C809 C807 1.419 . S
C809 C810 1.362 . S
C810 H802 0.930 . S
C810 C809 1.362 . S
C810 C813 1.409 . S
C811 H803 0.930 . S
C811 C812 1.355 . S
C811 C813 1.415 . S
C812 C811 1.355 . S
C812 C814 1.419 . S
C813 C808 1.425 . S
C813 C810 1.409 . S
C813 C811 1.415 . S
C814 H804 0.930 . S
C814 C812 1.419 . S
C814 C815 1.362 . S
C815 H805 0.930 . S
C815 C808 1.409 . S
C815 C814 1.362 . S
H816 C822 0.930 . S
H817 C825 0.930 . S
H818 C826 0.930 . S
H819 C827 0.930 . S
H820 C830 0.930 . S
H821 C831 0.930 . S
C822 H816 0.930 . S
C822 C823 1.355 . S
C822 C824 1.415 . S
C823 C822 1.355 . S
C823 C825 1.419 . S
C824 C822 1.415 . S
C824 C829 1.425 . S
C824 C831 1.409 . S
C825 H817 0.930 . S
C825 C823 1.419 . S
C825 C826 1.362 . S
C826 H818 0.930 . S
C826 C825 1.362 . S
C826 C829 1.409 . S
C827 H819 0.930 . S
C827 C828 1.355 . S
C827 C829 1.415 . S
C828 C827 1.355 . S
C828 C830 1.419 . S
C829 C824 1.425 . S
C829 C826 1.409 . S
C829 C827 1.415 . S
C830 H820 0.930 . S
C830 C828 1.419 . S
C830 C831 1.362 . S
C831 H821 0.930 . S
C831 C824 1.409 . S
C831 C830 1.362 . S
H832 C838 0.930 . S
H833 C841 0.930 . S
H834 C842 0.930 . S
H835 C843 0.930 . S
H836 C846 0.930 . S
H837 C847 0.930 . S
C838 H832 0.930 . S
C838 C839 1.355 . S
C838 C840 1.415 . S
C839 C838 1.355 . S
C839 C841 1.419 . S
C840 C838 1.415 . S
C840 C845 1.425 . S
C840 C847 1.409 . S
C841 H833 0.930 . S
C841 C839 1.419 . S
C841 C842 1.362 . S
C842 H834 0.930 . S
C842 C841 1.362 . S
C842 C845 1.409 . S
C843 H835 0.930 . S
C843 C844 1.355 . S
C843 C845 1.415 . S
C844 C843 1.355 . S
C844 C846 1.419 . S
C845 C840 1.425 . S
C845 C842 1.409 . S
C845 C843 1.415 . S
C846 H836 0.930 . S
C846 C844 1.419 . S
C846 C847 1.362 . S
C847 H837 0.930 . S
C847 C840 1.409 . S
C847 C846 1.362 . S
H848 C854 0.930 . S
H849 C857 0.930 . S
H850 C858 0.930 . S
H851 C859 0.930 . S
H852 C862 0.930 . S
H853 C863 0.930 . S
C854 H848 0.930 . S
C854 C855 1.355 . S
C854 C856 1.415 . S
C855 C854 1.355 . S
C855 C857 1.419 . S
C856 C854 1.415 . S
C856 C861 1.425 . S
C856 C863 1.409 . S
C857 H849 0.930 . S
C857 C855 1.419 . S
C857 C858 1.362 . S
C858 H850 0.930 . S
C858 C857 1.362 . S
C858 C861 1.409 . S
C859 H851 0.930 . S
C859 C860 1.355 . S
C859 C861 1.415 1_556 S
C860 C859 1.355 . S
C860 C862 1.419 . S
C861 C856 1.425 . S
C861 C858 1.409 . S
C861 C859 1.415 1_554 S
C862 H852 0.930 . S
C862 C860 1.419 . S
C862 C863 1.362 1_556 S
C863 H853 0.930 . S
C863 C856 1.409 . S
C863 C862 1.362 1_554 S
H864 C870 0.930 . S
H865 C873 0.930 . S
H866 C874 0.930 . S
H867 C875 0.930 . S
H868 C878 0.930 . S
H869 C879 0.930 . S
C870 H864 0.930 . S
C870 C871 1.355 . S
C870 C872 1.415 . S
C871 C870 1.355 . S
C871 C873 1.419 . S
C872 C870 1.415 . S
C872 C877 1.425 . S
C872 C879 1.409 . S
C873 H865 0.930 . S
C873 C871 1.419 . S
C873 C874 1.362 . S
C874 H866 0.930 . S
C874 C873 1.362 . S
C874 C877 1.409 . S
C875 H867 0.930 . S
C875 C876 1.355 . S
C875 C877 1.415 . S
C876 C875 1.355 . S
C876 C878 1.419 . S
C877 C872 1.425 . S
C877 C874 1.409 . S
C877 C875 1.415 . S
C878 H868 0.930 . S
C878 C876 1.419 . S
C878 C879 1.362 . S
C879 H869 0.930 . S
C879 C872 1.409 . S
C879 C878 1.362 . S
H880 C886 0.930 . S
H881 C889 0.930 . S
H882 C890 0.930 . S
H883 C891 0.930 . S
H884 C894 0.930 . S
H885 C895 0.930 . S
C886 H880 0.930 . S
C886 C887 1.355 . S
C886 C888 1.415 . S
C887 C886 1.355 . S
C887 C889 1.419 . S
C888 C886 1.415 . S
C888 C893 1.425 . S
C888 C895 1.409 . S
C889 H881 0.930 . S
C889 C887 1.419 . S
C889 C890 1.362 . S
C890 H882 0.930 . S
C890 C889 1.362 . S
C890 C893 1.409 . S
C891 H883 0.930 . S
C891 C892 1.355 . S
C891 C893 1.415 . S
C892 C891 1.355 . S
C892 C894 1.419 . S
C893 C888 1.425 . S
C893 C890 1.409 . S
C893 C891 1.415 . S
C894 H884 0.930 . S
C894 C892 1.419 . S
C894 C895 1.362 . S
C895 H885 0.930 . S
C895 C888 1.409 . S
C895 C894 1.362 . S
H896 C902 0.930 . S
H897 C905 0.930 . S
H898 C906 0.930 . S
H899 C907 0.930 . S
H900 C910 0.930 . S
H901 C911 0.930 . S
C902 H896 0.930 . S
C902 C903 1.355 . S
C902 C904 1.415 . S
C903 C902 1.355 . S
C903 C905 1.419 . S
C904 C902 1.415 . S
C904 C909 1.425 . S
C904 C911 1.409 . S
C905 H897 0.930 . S
C905 C903 1.419 . S
C905 C906 1.362 . S
C906 H898 0.930 . S
C906 C905 1.362 . S
C906 C909 1.409 . S
C907 H899 0.930 . S
C907 C908 1.355 . S
C907 C909 1.415 . S
C908 C907 1.355 . S
C908 C910 1.419 . S
C909 C904 1.425 . S
C909 C906 1.409 . S
C909 C907 1.415 . S
C910 H900 0.930 . S
C910 C908 1.419 . S
C910 C911 1.362 . S
C911 H901 0.930 . S
C911 C904 1.409 . S
C911 C910 1.362 . S
H912 C918 0.930 . S
H913 C921 0.930 . S
H914 C922 0.930 . S
H915 C923 0.930 1_554 S
H916 C926 0.930 . S
H917 C927 0.930 . S
C918 H912 0.930 . S
C918 C919 1.355 . S
C918 C920 1.415 . S
C919 C918 1.355 . S
C919 C921 1.419 . S
C920 C918 1.415 . S
C920 C925 1.425 . S
C920 C927 1.409 1_554 S
C921 H913 0.930 . S
C921 C919 1.419 . S
C921 C922 1.362 . S
C922 H914 0.930 . S
C922 C921 1.362 . S
C922 C925 1.409 . S
C923 H915 0.930 1_556 S
C923 C924 1.354 . S
C923 C925 1.415 1_556 S
C924 C923 1.354 . S
C924 C926 1.419 . S
C925 C920 1.425 . S
C925 C922 1.409 . S
C925 C923 1.415 1_554 S
C926 H916 0.930 . S
C926 C924 1.419 . S
C926 C927 1.362 . S
C927 H917 0.930 . S
C927 C920 1.409 1_556 S
C927 C926 1.362 . S
H928 C934 0.930 . S
H929 C937 0.930 . S
H930 C938 0.930 . S
H931 C939 0.930 . S
H932 C942 0.930 . S
H933 C943 0.930 . S
C934 H928 0.930 . S
C934 C935 1.355 . S
C934 C936 1.415 . S
C935 C934 1.355 . S
C935 C937 1.419 1_554 S
C936 C934 1.415 . S
C936 C941 1.425 . S
C936 C943 1.409 . S
C937 H929 0.930 . S
C937 C935 1.419 1_556 S
C937 C938 1.362 . S
C938 H930 0.930 . S
C938 C937 1.362 . S
C938 C941 1.409 1_556 S
C939 H931 0.930 . S
C939 C940 1.355 1_556 S
C939 C941 1.415 1_556 S
C940 C939 1.355 1_554 S
C940 C942 1.419 . S
C941 C936 1.425 . S
C941 C938 1.409 1_554 S
C941 C939 1.415 1_554 S
C942 H932 0.930 . S
C942 C940 1.419 . S
C942 C943 1.362 . S
C943 H933 0.930 . S
C943 C936 1.409 . S
C943 C942 1.362 . S
H944 C950 0.930 . S
H945 C953 0.930 . S
H946 C954 0.930 . S
H947 C955 0.930 . S
H948 C958 0.930 . S
H949 C959 0.930 . S
C950 H944 0.930 . S
C950 C951 1.355 . S
C950 C952 1.415 . S
C951 C950 1.355 . S
C951 C953 1.419 . S
C952 C950 1.415 . S
C952 C957 1.425 1_455 S
C952 C959 1.409 1_455 S
C953 H945 0.930 . S
C953 C951 1.419 . S
C953 C954 1.362 . S
C954 H946 0.930 . S
C954 C953 1.362 . S
C954 C957 1.409 1_455 S
C955 H947 0.930 . S
C955 C956 1.355 . S
C955 C957 1.415 . S
C956 C955 1.355 . S
C956 C958 1.419 . S
C957 C952 1.425 1_655 S
C957 C954 1.409 1_655 S
C957 C955 1.415 . S
C958 H948 0.930 . S
C958 C956 1.419 . S
C958 C959 1.362 . S
C959 H949 0.930 . S
C959 C952 1.409 1_655 S
C959 C958 1.362 . S
H960 C966 0.930 . S
H961 C969 0.930 . S
H962 C970 0.930 . S
H963 C971 0.930 . S
H964 C974 0.930 . S
H965 C975 0.930 . S
C966 H960 0.930 . S
C966 C967 1.355 . S
C966 C968 1.415 . S
C967 C966 1.355 . S
C967 C969 1.419 . S
C968 C966 1.415 . S
C968 C973 1.425 . S
C968 C975 1.409 . S
C969 H961 0.930 . S
C969 C967 1.419 . S
C969 C970 1.362 . S
C970 H962 0.930 . S
C970 C969 1.362 . S
C970 C973 1.409 . S
C971 H963 0.930 . S
C971 C972 1.355 . S
C971 C973 1.415 . S
C972 C971 1.355 . S
C972 C974 1.419 . S
C973 C968 1.425 . S
C973 C970 1.409 . S
C973 C971 1.415 . S
C974 H964 0.930 . S
C974 C972 1.419 . S
C974 C975 1.362 . S
C975 H965 0.930 . S
C975 C968 1.409 . S
C975 C974 1.362 . S
H976 C982 0.930 . S
H977 C985 0.930 . S
H978 C986 0.930 . S
H979 C987 0.930 . S
H980 C990 0.930 . S
H981 C991 0.930 . S
C982 H976 0.930 . S
C982 C983 1.355 . S
C982 C984 1.415 . S
C983 C982 1.355 . S
C983 C985 1.419 . S
C984 C982 1.415 . S
C984 C989 1.425 . S
C984 C991 1.409 . S
C985 H977 0.930 . S
C985 C983 1.419 . S
C985 C986 1.362 . S
C986 H978 0.930 . S
C986 C985 1.362 . S
C986 C989 1.409 . S
C987 H979 0.930 . S
C987 C988 1.355 . S
C987 C989 1.415 . S
C988 C987 1.355 . S
C988 C990 1.419 . S
C989 C984 1.425 . S
C989 C986 1.409 . S
C989 C987 1.415 . S
C990 H980 0.930 . S
C990 C988 1.419 . S
C990 C991 1.362 . S
C991 H981 0.930 . S
C991 C984 1.409 . S
C991 C990 1.362 . S
H992 C998 0.930 1_556 S
H993 C1001 0.930 . S
H994 C1002 0.930 . S
H995 C1003 0.930 . S
H996 C1006 0.930 . S
H997 C1007 0.930 . S
C998 H992 0.930 1_554 S
C998 C999 1.355 . S
C998 C1000 1.415 . S
C999 C998 1.355 . S
C999 C1001 1.419 . S
C1000 C998 1.415 . S
C1000 C1005 1.425 . S
C1000 C1007 1.409 1_554 S
C1001 H993 0.930 . S
C1001 C999 1.419 . S
C1001 C1002 1.362 . S
C1002 H994 0.930 . S
C1002 C1001 1.362 . S
C1002 C1005 1.409 . S
C1003 H995 0.930 . S
C1003 C1004 1.355 . S
C1003 C1005 1.415 . S
C1004 C1003 1.355 . S
C1004 C1006 1.419 1_554 S
C1005 C1000 1.425 . S
C1005 C1002 1.409 . S
C1005 C1003 1.415 . S
C1006 H996 0.930 . S
C1006 C1004 1.419 1_556 S
C1006 C1007 1.362 . S
C1007 H997 0.930 . S
C1007 C1000 1.409 1_556 S
C1007 C1006 1.362 . S
H1008 C1014 0.930 . S
H1009 C1017 0.930 . S
H1010 C1018 0.930 . S
H1011 C1019 0.930 . S
H1012 C1022 0.930 . S
H1013 C1023 0.930 . S
C1014 H1008 0.930 . S
C1014 C1015 1.355 . S
C1014 C1016 1.415 . S
C1015 C1014 1.355 . S
C1015 C1017 1.419 . S
C1016 C1014 1.415 . S
C1016 C1021 1.425 . S
C1016 C1023 1.409 . S
C1017 H1009 0.930 . S
C1017 C1015 1.419 . S
C1017 C1018 1.362 . S
C1018 H1010 0.930 . S
C1018 C1017 1.362 . S
C1018 C1021 1.409 . S
C1019 H1011 0.930 . S
C1019 C1020 1.355 . S
C1019 C1021 1.415 . S
C1020 C1019 1.355 . S
C1020 C1022 1.419 . S
C1021 C1016 1.425 . S
C1021 C1018 1.409 . S
C1021 C1019 1.415 . S
C1022 H1012 0.930 . S
C1022 C1020 1.419 . S
C1022 C1023 1.362 . S
C1023 H1013 0.930 . S
C1023 C1016 1.409 . S
C1023 C1022 1.362 . S
H1024 C1030 0.930 . S
H1025 C1033 0.930 . S
H1026 C1034 0.930 . S
H1027 C1035 0.930 . S
H1028 C1038 0.930 . S
H1029 C1039 0.930 . S
C1030 H1024 0.930 . S
C1030 C1031 1.355 . S
C1030 C1032 1.415 . S
C1031 C1030 1.355 . S
C1031 C1033 1.419 . S
C1032 C1030 1.415 . S
C1032 C1037 1.425 . S
C1032 C1039 1.409 . S
C1033 H1025 0.930 . S
C1033 C1031 1.419 . S
C1033 C1034 1.362 . S
C1034 H1026 0.930 . S
C1034 C1033 1.362 . S
C1034 C1037 1.409 . S
C1035 H1027 0.930 . S
C1035 C1036 1.355 . S
C1035 C1037 1.415 . S
C1036 C1035 1.355 . S
C1036 C1038 1.419 . S
C1037 C1032 1.425 . S
C1037 C1034 1.409 . S
C1037 C1035 1.415 . S
C1038 H1028 0.930 . S
C1038 C1036 1.419 . S
C1038 C1039 1.362 . S
C1039 H1029 0.930 . S
C1039 C1032 1.409 . S
C1039 C1038 1.362 . S
H1040 C1046 0.930 . S
H1041 C1049 0.930 . S
H1042 C1050 0.930 . S
H1043 C1051 0.930 . S
H1044 C1054 0.930 . S
H1045 C1055 0.930 . S
C1046 H1040 0.930 . S
C1046 C1047 1.355 . S
C1046 C1048 1.415 . S
C1047 C1046 1.355 . S
C1047 C1049 1.419 . S
C1048 C1046 1.415 . S
C1048 C1053 1.425 1_655 S
C1048 C1055 1.409 1_655 S
C1049 H1041 0.930 . S
C1049 C1047 1.419 . S
C1049 C1050 1.362 . S
C1050 H1042 0.930 . S
C1050 C1049 1.362 . S
C1050 C1053 1.409 1_655 S
C1051 H1043 0.930 . S
C1051 C1052 1.355 . S
C1051 C1053 1.415 . S
C1052 C1051 1.355 . S
C1052 C1054 1.419 . S
C1053 C1048 1.425 1_455 S
C1053 C1050 1.409 1_455 S
C1053 C1051 1.415 . S
C1054 H1044 0.930 . S
C1054 C1052 1.419 . S
C1054 C1055 1.362 . S
C1055 H1045 0.930 . S
C1055 C1048 1.409 1_455 S
C1055 C1054 1.362 . S
H1056 C1062 0.930 . S
H1057 C1065 0.930 . S
H1058 C1066 0.930 . S
H1059 C1067 0.930 . S
H1060 C1070 0.930 . S
H1061 C1071 0.930 . S
C1062 H1056 0.930 . S
C1062 C1063 1.355 . S
C1062 C1064 1.415 . S
C1063 C1062 1.355 . S
C1063 C1065 1.419 . S
C1064 C1062 1.415 . S
C1064 C1069 1.425 . S
C1064 C1071 1.409 . S
C1065 H1057 0.930 . S
C1065 C1063 1.419 . S
C1065 C1066 1.362 . S
C1066 H1058 0.930 . S
C1066 C1065 1.362 . S
C1066 C1069 1.409 . S
C1067 H1059 0.930 . S
C1067 C1068 1.355 . S
C1067 C1069 1.415 . S
C1068 C1067 1.355 . S
C1068 C1070 1.419 . S
C1069 C1064 1.425 . S
C1069 C1066 1.409 . S
C1069 C1067 1.415 . S
C1070 H1060 0.930 . S
C1070 C1068 1.419 . S
C1070 C1071 1.362 . S
C1071 H1061 0.930 . S
C1071 C1064 1.409 . S
C1071 C1070 1.362 . S
H1072 C1078 0.930 . S
H1073 C1081 0.930 . S
H1074 C1082 0.930 . S
H1075 C1083 0.930 . S
H1076 C1086 0.930 . S
H1077 C1087 0.930 . S
C1078 H1072 0.930 . S
C1078 C1079 1.355 . S
C1078 C1080 1.415 . S
C1079 C1078 1.355 . S
C1079 C1081 1.419 . S
C1080 C1078 1.415 . S
C1080 C1085 1.425 . S
C1080 C1087 1.409 . S
C1081 H1073 0.930 . S
C1081 C1079 1.419 . S
C1081 C1082 1.362 . S
C1082 H1074 0.930 . S
C1082 C1081 1.362 . S
C1082 C1085 1.409 . S
C1083 H1075 0.930 . S
C1083 C1084 1.355 . S
C1083 C1085 1.415 . S
C1084 C1083 1.355 . S
C1084 C1086 1.419 . S
C1085 C1080 1.425 . S
C1085 C1082 1.409 . S
C1085 C1083 1.415 . S
C1086 H1076 0.930 . S
C1086 C1084 1.419 . S
C1086 C1087 1.362 . S
C1087 H1077 0.930 . S
C1087 C1080 1.409 . S
C1087 C1086 1.362 . S
H1088 C1094 0.930 . S
H1089 C1097 0.930 . S
H1090 C1098 0.930 . S
H1091 C1099 0.930 1_556 S
H1092 C1102 0.930 . S
H1093 C1103 0.930 . S
C1094 H1088 0.930 . S
C1094 C1095 1.355 . S
C1094 C1096 1.415 . S
C1095 C1094 1.355 . S
C1095 C1097 1.419 1_554 S
C1096 C1094 1.415 . S
C1096 C1101 1.425 . S
C1096 C1103 1.409 . S
C1097 H1089 0.930 . S
C1097 C1095 1.419 1_556 S
C1097 C1098 1.362 . S
C1098 H1090 0.930 . S
C1098 C1097 1.362 . S
C1098 C1101 1.409 1_556 S
C1099 H1091 0.930 1_554 S
C1099 C1100 1.355 . S
C1099 C1101 1.415 . S
C1100 C1099 1.355 . S
C1100 C1102 1.419 . S
C1101 C1096 1.425 . S
C1101 C1098 1.409 1_554 S
C1101 C1099 1.415 . S
C1102 H1092 0.930 . S
C1102 C1100 1.419 . S
C1102 C1103 1.362 . S
C1103 H1093 0.930 . S
C1103 C1096 1.409 . S
C1103 C1102 1.362 . S
H1104 C1110 0.930 . S
H1105 C1113 0.930 . S
H1106 C1114 0.930 . S
H1107 C1115 0.930 . S
H1108 C1118 0.930 . S
H1109 C1119 0.930 . S
C1110 H1104 0.930 . S
C1110 C1111 1.355 . S
C1110 C1112 1.415 . S
C1111 C1110 1.355 . S
C1111 C1113 1.419 . S
C1112 C1110 1.415 . S
C1112 C1117 1.425 . S
C1112 C1119 1.409 . S
C1113 H1105 0.930 . S
C1113 C1111 1.419 . S
C1113 C1114 1.362 . S
C1114 H1106 0.930 . S
C1114 C1113 1.362 . S
C1114 C1117 1.409 . S
C1115 H1107 0.930 . S
C1115 C1116 1.355 . S
C1115 C1117 1.415 . S
C1116 C1115 1.355 . S
C1116 C1118 1.419 . S
C1117 C1112 1.425 . S
C1117 C1114 1.409 . S
C1117 C1115 1.415 . S
C1118 H1108 0.930 . S
C1118 C1116 1.419 . S
C1118 C1119 1.362 . S
C1119 H1109 0.930 . S
C1119 C1112 1.409 . S
C1119 C1118 1.362 . S
H1120 C1126 0.930 . S
H1121 C1129 0.930 . S
H1122 C1130 0.930 . S
H1123 C1131 0.930 . S
H1124 C1134 0.930 . S
H1125 C1135 0.930 . S
C1126 H1120 0.930 . S
C1126 C1127 1.355 . S
C1126 C1128 1.415 . S
C1127 C1126 1.355 . S
C1127 C1129 1.419 . S
C1128 C1126 1.415 . S
C1128 C1133 1.425 . S
C1128 C1135 1.409 . S
C1129 H1121 0.930 . S
C1129 C1127 1.419 . S
C1129 C1130 1.362 . S
C1130 H1122 0.930 . S
C1130 C1129 1.362 . S
C1130 C1133 1.409 . S
C1131 H1123 0.930 . S
C1131 C1132 1.355 . S
C1131 C1133 1.415 . S
C1132 C1131 1.355 . S
C1132 C1134 1.419 . S
C1133 C1128 1.425 . S
C1133 C1130 1.409 . S
C1133 C1131 1.415 . S
C1134 H1124 0.930 . S
C1134 C1132 1.419 . S
C1134 C1135 1.362 . S
C1135 H1125 0.930 . S
C1135 C1128 1.409 . S
C1135 C1134 1.362 . S
H1136 C1142 0.930 . S
H1137 C1145 0.930 . S
H1138 C1146 0.930 . S
H1139 C1147 0.930 . S
H1140 C1150 0.930 . S
H1141 C1151 0.930 . S
C1142 H1136 0.930 . S
C1142 C1143 1.355 . S
C1142 C1144 1.415 . S
C1143 C1142 1.355 . S
C1143 C1145 1.419 . S
C1144 C1142 1.415 . S
C1144 C1149 1.425 1_655 S
C1144 C1151 1.409 1_655 S
C1145 H1137 0.930 . S
C1145 C1143 1.419 . S
C1145 C1146 1.362 . S
C1146 H1138 0.930 . S
C1146 C1145 1.362 . S
C1146 C1149 1.409 1_655 S
C1147 H1139 0.930 . S
C1147 C1148 1.355 . S
C1147 C1149 1.415 . S
C1148 C1147 1.355 . S
C1148 C1150 1.419 . S
C1149 C1144 1.425 1_455 S
C1149 C1146 1.409 1_455 S
C1149 C1147 1.415 . S
C1150 H1140 0.930 . S
C1150 C1148 1.419 . S
C1150 C1151 1.362 . S
C1151 H1141 0.930 . S
C1151 C1144 1.409 1_455 S
C1151 C1150 1.362 . S
H1152 C1158 0.930 . S
H1153 C1161 0.930 . S
H1154 C1162 0.930 . S
H1155 C1163 0.930 . S
H1156 C1166 0.930 . S
H1157 C1167 0.930 . S
C1158 H1152 0.930 . S
C1158 C1159 1.355 . S
C1158 C1160 1.415 . S
C1159 C1158 1.355 . S
C1159 C1161 1.419 . S
C1160 C1158 1.415 . S
C1160 C1165 1.425 1_655 S
C1160 C1167 1.409 1_655 S
C1161 H1153 0.930 . S
C1161 C1159 1.419 . S
C1161 C1162 1.362 . S
C1162 H1154 0.930 . S
C1162 C1161 1.362 . S
C1162 C1165 1.409 1_655 S
C1163 H1155 0.930 . S
C1163 C1164 1.355 . S
C1163 C1165 1.415 . S
C1164 C1163 1.355 . S
C1164 C1166 1.419 . S
C1165 C1160 1.425 1_455 S
C1165 C1162 1.409 1_455 S
C1165 C1163 1.415 . S
C1166 H1156 0.930 . S
C1166 C1164 1.419 . S
C1166 C1167 1.362 . S
C1167 H1157 0.930 . S
C1167 C1160 1.409 1_455 S
C1167 C1166 1.362 . S
H1168 C1174 0.930 . S
H1169 C1177 0.930 . S
H1170 C1178 0.930 . S
H1171 C1179 0.930 . S
H1172 C1182 0.930 . S
H1173 C1183 0.930 . S
C1174 H1168 0.930 . S
C1174 C1175 1.355 . S
C1174 C1176 1.415 . S
C1175 C1174 1.355 . S
C1175 C1177 1.419 . S
C1176 C1174 1.415 . S
C1176 C1181 1.425 . S
C1176 C1183 1.409 . S
C1177 H1169 0.930 . S
C1177 C1175 1.419 . S
C1177 C1178 1.362 . S
C1178 H1170 0.930 . S
C1178 C1177 1.362 . S
C1178 C1181 1.409 . S
C1179 H1171 0.930 . S
C1179 C1180 1.355 . S
C1179 C1181 1.415 . S
C1180 C1179 1.355 . S
C1180 C1182 1.419 . S
C1181 C1176 1.425 . S
C1181 C1178 1.409 . S
C1181 C1179 1.415 . S
C1182 H1172 0.930 . S
C1182 C1180 1.419 . S
C1182 C1183 1.362 . S
C1183 H1173 0.930 . S
C1183 C1176 1.409 . S
C1183 C1182 1.362 . S
H1184 C1190 0.930 . S
H1185 C1193 0.930 . S
H1186 C1194 0.930 . S
H1187 C1195 0.930 . S
H1188 C1198 0.930 . S
H1189 C1199 0.930 . S
C1190 H1184 0.930 . S
C1190 C1191 1.355 . S
C1190 C1192 1.415 . S
C1191 C1190 1.355 . S
C1191 C1193 1.419 . S
C1192 C1190 1.415 . S
C1192 C1197 1.425 . S
C1192 C1199 1.409 . S
C1193 H1185 0.930 . S
C1193 C1191 1.419 . S
C1193 C1194 1.362 . S
C1194 H1186 0.930 . S
C1194 C1193 1.362 . S
C1194 C1197 1.409 . S
C1195 H1187 0.930 . S
C1195 C1196 1.355 . S
C1195 C1197 1.415 . S
C1196 C1195 1.355 . S
C1196 C1198 1.419 . S
C1197 C1192 1.425 . S
C1197 C1194 1.409 . S
C1197 C1195 1.415 . S
C1198 H1188 0.930 . S
C1198 C1196 1.419 . S
C1198 C1199 1.362 . S
C1199 H1189 0.930 . S
C1199 C1192 1.409 . S
C1199 C1198 1.362 . S
H1200 C1206 0.930 . S
H1201 C1209 0.921 1_545 S
H1202 C1210 0.930 . S
H1203 C1211 0.930 . S
H1204 C1214 0.930 . S
H1205 C1215 0.930 . S
C1206 H1200 0.930 . S
C1206 C1207 1.355 . S
C1206 C1208 1.415 . S
C1207 C1206 1.355 . S
C1207 C1209 1.471 . S
C1208 C1206 1.415 . S
C1208 C1213 1.425 1_565 S
C1208 C1215 1.409 . S
C1209 H1201 0.921 1_565 S
C1209 C1207 1.471 . S
C1209 C1210 1.319 1_565 S
C1210 H1202 0.930 . S
C1210 C1209 1.319 1_545 S
C1210 C1213 1.409 . S
C1211 H1203 0.930 . S
C1211 C1212 1.355 . S
C1211 C1213 1.415 . S
C1212 C1211 1.355 . S
C1212 C1214 1.419 . S
C1213 C1208 1.425 1_545 S
C1213 C1210 1.409 . S
C1213 C1211 1.415 . S
C1214 H1204 0.930 . S
C1214 C1212 1.419 . S
C1214 C1215 1.362 1_545 S
C1215 H1205 0.930 . S
C1215 C1208 1.409 . S
C1215 C1214 1.362 1_565 S
H1216 C1222 0.930 . S
H1217 C1225 0.930 . S
H1218 C1226 0.930 . S
H1219 C1227 0.930 . S
H1220 C1230 0.930 . S
H1221 C1231 0.930 . S
C1222 H1216 0.930 . S
C1222 C1223 1.355 . S
C1222 C1224 1.415 . S
C1223 C1222 1.355 . S
C1223 C1225 1.419 . S
C1224 C1222 1.415 . S
C1224 C1229 1.425 . S
C1224 C1231 1.409 . S
C1225 H1217 0.930 . S
C1225 C1223 1.419 . S
C1225 C1226 1.362 . S
C1226 H1218 0.930 . S
C1226 C1225 1.362 . S
C1226 C1229 1.409 . S
C1227 H1219 0.930 . S
C1227 C1228 1.355 . S
C1227 C1229 1.415 . S
C1228 C1227 1.355 . S
C1228 C1230 1.419 . S
C1229 C1224 1.425 . S
C1229 C1226 1.409 . S
C1229 C1227 1.415 . S
C1230 H1220 0.930 . S
C1230 C1228 1.419 . S
C1230 C1231 1.362 . S
C1231 H1221 0.930 . S
C1231 C1224 1.409 . S
C1231 C1230 1.362 . S
H1232 C1238 0.930 . S
H1233 C1241 0.930 . S
H1234 C1242 0.930 . S
H1235 C1243 0.930 . S
H1236 C1246 0.930 . S
H1237 C1247 0.930 . S
C1238 H1232 0.930 . S
C1238 C1239 1.355 . S
C1238 C1240 1.412 1_556 S
C1239 C1238 1.355 . S
C1239 C1241 1.419 . S
C1240 C1238 1.412 1_554 S
C1240 C1245 1.424 . S
C1240 C1247 1.412 1_545 S
C1241 H1233 0.930 . S
C1241 C1239 1.419 . S
C1241 C1242 1.362 1_556 S
C1242 H1234 0.930 . S
C1242 C1241 1.362 1_554 S
C1242 C1245 1.409 . S
C1243 H1235 0.930 . S
C1243 C1244 1.355 . S
C1243 C1245 1.415 1_565 S
C1244 C1243 1.355 . S
C1244 C1246 1.419 . S
C1245 C1240 1.424 . S
C1245 C1242 1.409 . S
C1245 C1243 1.415 1_545 S
C1246 H1236 0.930 . S
C1246 C1244 1.419 . S
C1246 C1247 1.362 . S
C1247 H1237 0.930 . S
C1247 C1240 1.412 1_565 S
C1247 C1246 1.362 . S
H1248 C1254 0.930 . S
H1249 C1257 0.930 . S
H1250 C1258 0.930 . S
H1251 C1259 0.930 . S
H1252 C1262 0.930 . S
H1253 C1263 0.930 . S
C1254 H1248 0.930 . S
C1254 C1255 1.355 . S
C1254 C1256 1.415 . S
C1255 C1254 1.355 . S
C1255 C1257 1.419 . S
C1256 C1254 1.415 . S
C1256 C1261 1.425 . S
C1256 C1263 1.409 . S
C1257 H1249 0.930 . S
C1257 C1255 1.419 . S
C1257 C1258 1.362 . S
C1258 H1250 0.930 . S
C1258 C1257 1.362 . S
C1258 C1261 1.409 . S
C1259 H1251 0.930 . S
C1259 C1260 1.355 . S
C1259 C1261 1.415 . S
C1260 C1259 1.355 . S
C1260 C1262 1.419 . S
C1261 C1256 1.425 . S
C1261 C1258 1.409 . S
C1261 C1259 1.415 . S
C1262 H1252 0.930 . S
C1262 C1260 1.419 . S
C1262 C1263 1.362 . S
C1263 H1253 0.930 . S
C1263 C1256 1.409 . S
C1263 C1262 1.362 . S
H1264 C1270 0.930 . S
H1265 C1273 0.930 . S
H1266 C1274 0.930 . S
H1267 C1275 0.930 1_545 S
H1268 C1278 0.930 . S
H1269 C1279 0.930 . S
C1270 H1264 0.930 . S
C1270 C1271 1.355 . S
C1270 C1272 1.415 1_545 S
C1271 C1270 1.355 . S
C1271 C1273 1.419 . S
C1272 C1270 1.415 1_565 S
C1272 C1277 1.425 1_565 S
C1272 C1279 1.409 . S
C1273 H1265 0.930 . S
C1273 C1271 1.419 . S
C1273 C1274 1.362 . S
C1274 H1266 0.930 . S
C1274 C1273 1.362 . S
C1274 C1277 1.409 . S
C1275 H1267 0.930 1_565 S
C1275 C1276 1.355 . S
C1275 C1277 1.415 1_565 S
C1276 C1275 1.355 . S
C1276 C1278 1.419 . S
C1277 C1272 1.425 1_545 S
C1277 C1274 1.409 . S
C1277 C1275 1.415 1_545 S
C1278 H1268 0.930 . S
C1278 C1276 1.419 . S
C1278 C1279 1.362 . S
C1279 H1269 0.930 . S
C1279 C1272 1.409 . S
C1279 C1278 1.362 . S
H1280 C1286 0.930 . S
H1281 C1289 0.930 . S
H1282 C1290 0.930 . S
H1283 C1291 0.930 . S
H1284 C1294 0.930 . S
H1285 C1295 0.930 . S
C1286 H1280 0.930 . S
C1286 C1287 1.355 . S
C1286 C1288 1.415 . S
C1287 C1286 1.355 . S
C1287 C1289 1.419 . S
C1288 C1286 1.415 . S
C1288 C1293 1.425 . S
C1288 C1295 1.409 . S
C1289 H1281 0.930 . S
C1289 C1287 1.419 . S
C1289 C1290 1.362 . S
C1290 H1282 0.930 . S
C1290 C1289 1.362 . S
C1290 C1293 1.409 . S
C1291 H1283 0.930 . S
C1291 C1292 1.355 . S
C1291 C1293 1.415 . S
C1292 C1291 1.355 . S
C1292 C1294 1.419 . S
C1293 C1288 1.425 . S
C1293 C1290 1.409 . S
C1293 C1291 1.415 . S
C1294 H1284 0.930 . S
C1294 C1292 1.419 . S
C1294 C1295 1.362 . S
C1295 H1285 0.930 . S
C1295 C1288 1.409 . S
C1295 C1294 1.362 . S
H1296 C1302 0.930 . S
H1297 C1305 0.930 . S
H1298 C1306 0.930 . S
H1299 C1307 0.930 . S
H1300 C1310 0.930 . S
H1301 C1311 0.930 . S
C1302 H1296 0.930 . S
C1302 C1303 1.355 . S
C1302 C1304 1.415 1_565 S
C1303 C1302 1.355 . S
C1303 C1305 1.419 . S
C1304 C1302 1.415 1_545 S
C1304 C1309 1.425 . S
C1304 C1311 1.409 . S
C1305 H1297 0.930 . S
C1305 C1303 1.419 . S
C1305 C1306 1.362 . S
C1306 H1298 0.930 . S
C1306 C1305 1.362 . S
C1306 C1309 1.409 1_565 S
C1307 H1299 0.930 . S
C1307 C1308 1.355 . S
C1307 C1309 1.415 1_556 S
C1308 C1307 1.355 . S
C1308 C1310 1.419 . S
C1309 C1304 1.425 . S
C1309 C1306 1.409 1_545 S
C1309 C1307 1.415 1_554 S
C1310 H1300 0.930 . S
C1310 C1308 1.419 . S
C1310 C1311 1.362 1_556 S
C1311 H1301 0.930 . S
C1311 C1304 1.409 . S
C1311 C1310 1.362 1_554 S
H1312 C1318 0.930 . S
H1313 C1321 0.930 . S
H1314 C1322 0.930 . S
H1315 C1323 0.930 . S
H1316 C1326 0.930 . S
H1317 C1327 0.930 . S
C1318 H1312 0.930 . S
C1318 C1319 1.355 . S
C1318 C1320 1.415 . S
C1319 C1318 1.355 . S
C1319 C1321 1.419 . S
C1320 C1318 1.415 . S
C1320 C1325 1.425 . S
C1320 C1327 1.409 . S
C1321 H1313 0.930 . S
C1321 C1319 1.419 . S
C1321 C1322 1.362 . S
C1322 H1314 0.930 . S
C1322 C1321 1.362 . S
C1322 C1325 1.409 . S
C1323 H1315 0.930 . S
C1323 C1324 1.355 . S
C1323 C1325 1.415 . S
C1324 C1323 1.355 . S
C1324 C1326 1.419 . S
C1325 C1320 1.425 . S
C1325 C1322 1.409 . S
C1325 C1323 1.415 . S
C1326 H1316 0.930 . S
C1326 C1324 1.419 . S
C1326 C1327 1.362 . S
C1327 H1317 0.930 . S
C1327 C1320 1.409 . S
C1327 C1326 1.362 . S
H1328 C1334 0.930 . S
H1329 C1337 0.930 . S
H1330 C1338 0.930 . S
H1331 C1339 0.930 . S
H1332 C1342 0.930 . S
H1333 C1343 0.930 . S
C1334 H1328 0.930 . S
C1334 C1335 1.355 . S
C1334 C1336 1.415 . S
C1335 C1334 1.355 . S
C1335 C1337 1.419 . S
C1336 C1334 1.415 . S
C1336 C1341 1.425 . S
C1336 C1343 1.409 . S
C1337 H1329 0.930 . S
C1337 C1335 1.419 . S
C1337 C1338 1.362 . S
C1338 H1330 0.930 . S
C1338 C1337 1.362 . S
C1338 C1341 1.409 . S
C1339 H1331 0.930 . S
C1339 C1340 1.355 . S
C1339 C1341 1.415 1_556 S
C1340 C1339 1.355 . S
C1340 C1342 1.419 . S
C1341 C1336 1.425 . S
C1341 C1338 1.409 . S
C1341 C1339 1.415 1_554 S
C1342 H1332 0.930 . S
C1342 C1340 1.419 . S
C1342 C1343 1.362 1_556 S
C1343 H1333 0.930 . S
C1343 C1336 1.409 . S
C1343 C1342 1.362 1_554 S
H1344 C1350 0.930 . S
H1345 C1353 0.930 . S
H1346 C1354 0.930 . S
H1347 C1355 0.930 . S
H1348 C1358 0.930 . S
H1349 C1359 0.930 . S
C1350 H1344 0.930 . S
C1350 C1351 1.355 . S
C1350 C1352 1.415 . S
C1351 C1350 1.355 . S
C1351 C1353 1.419 . S
C1352 C1350 1.415 . S
C1352 C1357 1.425 . S
C1352 C1359 1.409 . S
C1353 H1345 0.930 . S
C1353 C1351 1.419 . S
C1353 C1354 1.362 . S
C1354 H1346 0.930 . S
C1354 C1353 1.362 . S
C1354 C1357 1.409 . S
C1355 H1347 0.930 . S
C1355 C1356 1.355 . S
C1355 C1357 1.415 . S
C1356 C1355 1.355 . S
C1356 C1358 1.419 . S
C1357 C1352 1.425 . S
C1357 C1354 1.409 . S
C1357 C1355 1.415 . S
C1358 H1348 0.930 . S
C1358 C1356 1.419 . S
C1358 C1359 1.362 . S
C1359 H1349 0.930 . S
C1359 C1352 1.409 . S
C1359 C1358 1.362 . S
H1360 C1366 0.930 . S
H1361 C1369 0.930 . S
H1362 C1370 0.930 . S
H1363 C1371 0.930 . S
H1364 C1374 0.930 . S
H1365 C1375 0.930 . S
C1366 H1360 0.930 . S
C1366 C1367 1.355 . S
C1366 C1368 1.415 . S
C1367 C1366 1.355 . S
C1367 C1369 1.419 . S
C1368 C1366 1.415 . S
C1368 C1373 1.425 . S
C1368 C1375 1.409 . S
C1369 H1361 0.930 . S
C1369 C1367 1.419 . S
C1369 C1370 1.362 . S
C1370 H1362 0.930 . S
C1370 C1369 1.362 . S
C1370 C1373 1.409 . S
C1371 H1363 0.930 . S
C1371 C1372 1.355 . S
C1371 C1373 1.415 . S
C1372 C1371 1.355 . S
C1372 C1374 1.419 . S
C1373 C1368 1.425 . S
C1373 C1370 1.409 . S
C1373 C1371 1.415 . S
C1374 H1364 0.930 . S
C1374 C1372 1.419 . S
C1374 C1375 1.362 . S
C1375 H1365 0.930 . S
C1375 C1368 1.409 . S
C1375 C1374 1.362 . S
H1376 C1382 0.930 . S
H1377 C1385 0.930 . S
H1378 C1386 0.930 . S
H1379 C1387 0.930 . S
H1380 C1390 0.930 . S
H1381 C1391 0.930 . S
C1382 H1376 0.930 . S
C1382 C1383 1.355 . S
C1382 C1384 1.415 . S
C1383 C1382 1.355 . S
C1383 C1385 1.419 . S
C1384 C1382 1.415 . S
C1384 C1389 1.425 . S
C1384 C1391 1.409 . S
C1385 H1377 0.930 . S
C1385 C1383 1.419 . S
C1385 C1386 1.362 . S
C1386 H1378 0.930 . S
C1386 C1385 1.362 . S
C1386 C1389 1.409 . S
C1387 H1379 0.930 . S
C1387 C1388 1.355 . S
C1387 C1389 1.415 . S
C1388 C1387 1.355 . S
C1388 C1390 1.419 . S
C1389 C1384 1.425 . S
C1389 C1386 1.409 . S
C1389 C1387 1.415 . S
C1390 H1380 0.930 . S
C1390 C1388 1.419 . S
C1390 C1391 1.362 . S
C1391 H1381 0.930 . S
C1391 C1384 1.409 . S
C1391 C1390 1.362 . S
H1392 C1398 0.930 . S
H1393 C1401 0.930 . S
H1394 C1402 0.930 . S
H1395 C1403 0.930 . S
H1396 C1406 0.930 . S
H1397 C1407 0.930 1_556 S
C1398 H1392 0.930 . S
C1398 C1399 1.355 . S
C1398 C1400 1.415 1_556 S
C1399 C1398 1.355 . S
C1399 C1401 1.421 . S
C1400 C1398 1.415 1_554 S
C1400 C1405 1.425 . S
C1400 C1407 1.409 . S
C1401 H1393 0.930 . S
C1401 C1399 1.421 . S
C1401 C1402 1.360 1_556 S
C1402 H1394 0.930 . S
C1402 C1401 1.360 1_554 S
C1402 C1405 1.409 . S
C1403 H1395 0.930 . S
C1403 C1404 1.355 . S
C1403 C1405 1.415 . S
C1404 C1403 1.355 . S
C1404 C1406 1.419 . S
C1405 C1400 1.425 . S
C1405 C1402 1.409 . S
C1405 C1403 1.415 . S
C1406 H1396 0.930 . S
C1406 C1404 1.419 . S
C1406 C1407 1.362 . S
C1407 H1397 0.930 1_554 S
C1407 C1400 1.409 . S
C1407 C1406 1.362 . S
H1408 C1414 0.930 . S
H1409 C1417 0.930 . S
H1410 C1418 0.930 . S
H1411 C1419 0.930 . S
H1412 C1422 0.930 . S
H1413 C1423 0.930 . S
C1414 H1408 0.930 . S
C1414 C1415 1.355 . S
C1414 C1416 1.415 . S
C1415 C1414 1.355 . S
C1415 C1417 1.419 . S
C1416 C1414 1.415 . S
C1416 C1421 1.425 . S
C1416 C1423 1.409 . S
C1417 H1409 0.930 . S
C1417 C1415 1.419 . S
C1417 C1418 1.362 . S
C1418 H1410 0.930 . S
C1418 C1417 1.362 . S
C1418 C1421 1.409 . S
C1419 H1411 0.930 . S
C1419 C1420 1.355 . S
C1419 C1421 1.415 . S
C1420 C1419 1.355 . S
C1420 C1422 1.419 . S
C1421 C1416 1.425 . S
C1421 C1418 1.409 . S
C1421 C1419 1.415 . S
C1422 H1412 0.930 . S
C1422 C1420 1.419 . S
C1422 C1423 1.362 . S
C1423 H1413 0.930 . S
C1423 C1416 1.409 . S
C1423 C1422 1.362 . S
H1424 C1430 0.930 . S
H1425 C1433 0.930 . S
H1426 C1434 0.930 . S
H1427 C1435 0.930 . S
H1428 C1438 0.930 . S
H1429 C1439 0.930 . S
C1430 H1424 0.930 . S
C1430 C1431 1.355 . S
C1430 C1432 1.415 . S
C1431 C1430 1.355 . S
C1431 C1433 1.419 . S
C1432 C1430 1.415 . S
C1432 C1437 1.425 . S
C1432 C1439 1.409 . S
C1433 H1425 0.930 . S
C1433 C1431 1.419 . S
C1433 C1434 1.362 . S
C1434 H1426 0.930 . S
C1434 C1433 1.362 . S
C1434 C1437 1.409 . S
C1435 H1427 0.930 . S
C1435 C1436 1.355 . S
C1435 C1437 1.415 . S
C1436 C1435 1.355 . S
C1436 C1438 1.419 . S
C1437 C1432 1.425 . S
C1437 C1434 1.409 . S
C1437 C1435 1.415 . S
C1438 H1428 0.930 . S
C1438 C1436 1.419 . S
C1438 C1439 1.362 . S
C1439 H1429 0.930 . S
C1439 C1432 1.409 . S
C1439 C1438 1.362 . S
C423 C91 1.352 . S
C428 C0 1.362 1_556 S
C439 C13 1.370 . S
C444 C52 1.336 . S
C455 C65 1.369 . S
C460 C26 1.337 . S
C471 C39 1.341 . S
C476 C78 1.369 . S
C487 C104 1.370 . S
C492 C195 1.341 . S
C503 C117 1.365 . S
C508 C156 1.348 1_556 S
C519 C130 1.371 . S
C524 C169 1.338 . S
C535 C143 1.363 . S
C540 C182 1.340 . S
C551 C208 1.367 . S
C556 C299 1.338 . S
C567 C221 1.360 . S
C572 C260 1.352 . S
C583 C273 1.341 . S
C588 C234 1.370 1_556 S
C599 C286 1.371 . S
C604 C247 1.336 . S
C615 C312 1.336 . S
C620 C403 1.370 . S
C631 C364 1.359 . S
C636 C325 1.355 . S
C647 C377 1.338 . S
C652 C338 1.366 . S
C663 C351 1.336 . S
C668 C390 1.370 1_556 S
C679 C8 1.005 . S
C684 C86 0.991 . S
C695 C21 1.050 . S
C700 C99 0.951 . S
C711 C60 1.029 . S
C716 C34 0.985 . S
C727 C47 1.046 . S
C732 C73 0.964 . S
C743 C112 0.988 . S
C748 C190 1.027 . S
C759 C125 1.052 . S
C764 C203 0.951 . S
C775 C164 0.981 . S
C780 C138 1.015 . S
C791 C177 0.964 . S
C796 C151 1.034 . S
C807 C216 0.999 . S
C812 C294 0.997 . S
C823 C307 1.052 . S
C828 C229 0.953 . S
C839 C268 1.039 . S
C844 C242 0.974 . S
C855 C255 1.037 . S
C860 C281 0.961 . S
C871 C320 0.992 . S
C876 C398 1.004 . S
C887 C333 1.020 . S
C892 C411 0.995 . S
C903 C372 1.033 . S
C908 C346 0.965 . S
C919 C385 0.967 . S
C924 C359 1.044 . S
C935 C5 1.395 . S
C940 C395 1.322 . S
C951 C18 1.320 . S
C956 C200 1.397 . S
C967 C31 1.322 . S
C972 C369 1.395 . S
C983 C44 1.339 . S
C988 C174 1.379 . S
C999 C57 1.354 . S
C1004 C343 1.365 . S
C1015 C70 1.372 . S
C1020 C148 1.346 . S
C1031 C83 1.397 . S
C1036 C317 1.320 . S
C1047 C122 1.384 . S
C1052 C96 1.334 . S
C1063 C291 1.392 . S
C1068 C109 1.326 . S
C1079 C135 1.320 . S
C1084 C265 1.397 . S
C1095 C239 1.397 . S
C1100 C161 1.320 . S
C1111 C213 1.358 . S
C1116 C187 1.360 . S
C1127 C226 1.320 . S
C1132 C408 1.397 . S
C1143 C252 1.397 . S
C1148 C382 1.320 . S
C1159 C278 1.381 . S
C1164 C356 1.337 . S
C1175 C330 1.344 . S
C1180 C304 1.374 . S
C1191 C10 1.531 . S
C1196 C88 1.535 . S
C1207 C23 1.533 . S
C1212 C101 1.546 . S
C1223 C62 1.582 . S
C1228 C36 1.590 . S
C1239 C49 1.578 . S
C1244 C75 1.560 . S
C1255 C114 1.540 . S
C1260 C192 1.531 . S
C1271 C127 1.590 . S
C1276 C205 1.587 . S
C1287 C166 1.590 . S
C1292 C140 1.582 . S
C1303 C153 1.547 . S
C1308 C179 1.565 . S
C1319 C296 1.547 . S
C1324 C218 1.565 . S
C1335 C309 1.572 . S
C1340 C231 1.586 . S
C1351 C270 1.567 . S
C1356 C244 1.582 . S
C1367 C283 1.561 . S
C1372 C257 1.578 . S
C1383 C400 1.558 . S
C1388 C322 1.541 . S
C1399 C413 1.568 . S
C1404 C335 1.583 . S
C1415 C348 1.568 . S
C1420 C374 1.583 . S
C1431 C387 1.548 . S
C1436 C361 1.566 . S
