# Generated by pormake.
# Topology som, (6)-cn, num edge types: 1
# Building blocks:
#     Node 0, Type 0, BuildingBlock: CUWYAW_clean_sbu_0, # of connection points: 6
#     Node 1, Type 0, BuildingBlock: CUWYAW_clean_sbu_0, # of connection points: 6
#     Node 2, Type 0, BuildingBlock: CUWYAW_clean_sbu_0, # of connection points: 6
#     Node 3, Type 0, BuildingBlock: CUWYAW_clean_sbu_0, # of connection points: 6
#     Node 4, Type 0, BuildingBlock: CUWYAW_clean_sbu_0, # of connection points: 6
#     Node 5, Type 0, BuildingBlock: CUWYAW_clean_sbu_0, # of connection points: 6
#     Node 6, Type 0, BuildingBlock: CUWYAW_clean_sbu_0, # of connection points: 6
#     Node 7, Type 0, BuildingBlock: CUWYAW_clean_sbu_0, # of connection points: 6
#     Node 8, Type 0, BuildingBlock: CUWYAW_clean_sbu_0, # of connection points: 6
#     Node 9, Type 0, BuildingBlock: CUWYAW_clean_sbu_0, # of connection points: 6
#     Node 10, Type 0, BuildingBlock: CUWYAW_clean_sbu_0, # of connection points: 6
#     Node 11, Type 0, BuildingBlock: CUWYAW_clean_sbu_0, # of connection points: 6
#     Node 12, Type 0, BuildingBlock: CUWYAW_clean_sbu_0, # of connection points: 6
#     Node 13, Type 0, BuildingBlock: CUWYAW_clean_sbu_0, # of connection points: 6
#     Node 14, Type 0, BuildingBlock: CUWYAW_clean_sbu_0, # of connection points: 6
#     Node 15, Type 0, BuildingBlock: CUWYAW_clean_sbu_0, # of connection points: 6
#     Node 16, Type 0, BuildingBlock: CUWYAW_clean_sbu_0, # of connection points: 6
#     Node 17, Type 0, BuildingBlock: CUWYAW_clean_sbu_0, # of connection points: 6
#     Node 18, Type 0, BuildingBlock: CUWYAW_clean_sbu_0, # of connection points: 6
#     Node 19, Type 0, BuildingBlock: CUWYAW_clean_sbu_0, # of connection points: 6
#     Node 20, Type 0, BuildingBlock: CUWYAW_clean_sbu_0, # of connection points: 6
#     Node 21, Type 0, BuildingBlock: CUWYAW_clean_sbu_0, # of connection points: 6
#     Node 22, Type 0, BuildingBlock: CUWYAW_clean_sbu_0, # of connection points: 6
#     Node 23, Type 0, BuildingBlock: CUWYAW_clean_sbu_0, # of connection points: 6
#     Node 24, Type 0, BuildingBlock: CUWYAW_clean_sbu_0, # of connection points: 6
#     Node 25, Type 0, BuildingBlock: CUWYAW_clean_sbu_0, # of connection points: 6
#     Node 26, Type 0, BuildingBlock: CUWYAW_clean_sbu_0, # of connection points: 6
#     Node 27, Type 0, BuildingBlock: CUWYAW_clean_sbu_0, # of connection points: 6
#     Node 28, Type 0, BuildingBlock: CUWYAW_clean_sbu_0, # of connection points: 6
#     Node 29, Type 0, BuildingBlock: CUWYAW_clean_sbu_0, # of connection points: 6
#     Node 30, Type 0, BuildingBlock: CUWYAW_clean_sbu_0, # of connection points: 6
#     Node 31, Type 0, BuildingBlock: CUWYAW_clean_sbu_0, # of connection points: 6
#     Edge 32, Type (0, 0), BuildingBlock: UVAHIK_clean_linker_0, # of connection points: 2
#     Edge 33, Type (0, 0), BuildingBlock: UVAHIK_clean_linker_0, # of connection points: 2
#     Edge 34, Type (0, 0), BuildingBlock: UVAHIK_clean_linker_0, # of connection points: 2
#     Edge 35, Type (0, 0), BuildingBlock: UVAHIK_clean_linker_0, # of connection points: 2
#     Edge 36, Type (0, 0), BuildingBlock: UVAHIK_clean_linker_0, # of connection points: 2
#     Edge 37, Type (0, 0), BuildingBlock: UVAHIK_clean_linker_0, # of connection points: 2
#     Edge 38, Type (0, 0), BuildingBlock: UVAHIK_clean_linker_0, # of connection points: 2
#     Edge 39, Type (0, 0), BuildingBlock: UVAHIK_clean_linker_0, # of connection points: 2
#     Edge 40, Type (0, 0), BuildingBlock: UVAHIK_clean_linker_0, # of connection points: 2
#     Edge 41, Type (0, 0), BuildingBlock: UVAHIK_clean_linker_0, # of connection points: 2
#     Edge 42, Type (0, 0), BuildingBlock: UVAHIK_clean_linker_0, # of connection points: 2
#     Edge 43, Type (0, 0), BuildingBlock: UVAHIK_clean_linker_0, # of connection points: 2
#     Edge 44, Type (0, 0), BuildingBlock: UVAHIK_clean_linker_0, # of connection points: 2
#     Edge 45, Type (0, 0), BuildingBlock: UVAHIK_clean_linker_0, # of connection points: 2
#     Edge 46, Type (0, 0), BuildingBlock: UVAHIK_clean_linker_0, # of connection points: 2
#     Edge 47, Type (0, 0), BuildingBlock: UVAHIK_clean_linker_0, # of connection points: 2
#     Edge 48, Type (0, 0), BuildingBlock: UVAHIK_clean_linker_0, # of connection points: 2
#     Edge 49, Type (0, 0), BuildingBlock: UVAHIK_clean_linker_0, # of connection points: 2
#     Edge 50, Type (0, 0), BuildingBlock: UVAHIK_clean_linker_0, # of connection points: 2
#     Edge 51, Type (0, 0), BuildingBlock: UVAHIK_clean_linker_0, # of connection points: 2
#     Edge 52, Type (0, 0), BuildingBlock: UVAHIK_clean_linker_0, # of connection points: 2
#     Edge 53, Type (0, 0), BuildingBlock: UVAHIK_clean_linker_0, # of connection points: 2
#     Edge 54, Type (0, 0), BuildingBlock: UVAHIK_clean_linker_0, # of connection points: 2
#     Edge 55, Type (0, 0), BuildingBlock: UVAHIK_clean_linker_0, # of connection points: 2
#     Edge 56, Type (0, 0), BuildingBlock: UVAHIK_clean_linker_0, # of connection points: 2
#     Edge 57, Type (0, 0), BuildingBlock: UVAHIK_clean_linker_0, # of connection points: 2
#     Edge 58, Type (0, 0), BuildingBlock: UVAHIK_clean_linker_0, # of connection points: 2
#     Edge 59, Type (0, 0), BuildingBlock: UVAHIK_clean_linker_0, # of connection points: 2
#     Edge 60, Type (0, 0), BuildingBlock: UVAHIK_clean_linker_0, # of connection points: 2
#     Edge 61, Type (0, 0), BuildingBlock: UVAHIK_clean_linker_0, # of connection points: 2
#     Edge 62, Type (0, 0), BuildingBlock: UVAHIK_clean_linker_0, # of connection points: 2
#     Edge 63, Type (0, 0), BuildingBlock: UVAHIK_clean_linker_0, # of connection points: 2
#     Edge 64, Type (0, 0), BuildingBlock: UVAHIK_clean_linker_0, # of connection points: 2
#     Edge 65, Type (0, 0), BuildingBlock: UVAHIK_clean_linker_0, # of connection points: 2
#     Edge 66, Type (0, 0), BuildingBlock: UVAHIK_clean_linker_0, # of connection points: 2
#     Edge 67, Type (0, 0), BuildingBlock: UVAHIK_clean_linker_0, # of connection points: 2
#     Edge 68, Type (0, 0), BuildingBlock: UVAHIK_clean_linker_0, # of connection points: 2
#     Edge 69, Type (0, 0), BuildingBlock: UVAHIK_clean_linker_0, # of connection points: 2
#     Edge 70, Type (0, 0), BuildingBlock: UVAHIK_clean_linker_0, # of connection points: 2
#     Edge 71, Type (0, 0), BuildingBlock: UVAHIK_clean_linker_0, # of connection points: 2
#     Edge 72, Type (0, 0), BuildingBlock: UVAHIK_clean_linker_0, # of connection points: 2
#     Edge 73, Type (0, 0), BuildingBlock: UVAHIK_clean_linker_0, # of connection points: 2
#     Edge 74, Type (0, 0), BuildingBlock: UVAHIK_clean_linker_0, # of connection points: 2
#     Edge 75, Type (0, 0), BuildingBlock: UVAHIK_clean_linker_0, # of connection points: 2
#     Edge 76, Type (0, 0), BuildingBlock: UVAHIK_clean_linker_0, # of connection points: 2
#     Edge 77, Type (0, 0), BuildingBlock: UVAHIK_clean_linker_0, # of connection points: 2
#     Edge 78, Type (0, 0), BuildingBlock: UVAHIK_clean_linker_0, # of connection points: 2
#     Edge 79, Type (0, 0), BuildingBlock: UVAHIK_clean_linker_0, # of connection points: 2
#     Edge 80, Type (0, 0), BuildingBlock: UVAHIK_clean_linker_0, # of connection points: 2
#     Edge 81, Type (0, 0), BuildingBlock: UVAHIK_clean_linker_0, # of connection points: 2
#     Edge 82, Type (0, 0), BuildingBlock: UVAHIK_clean_linker_0, # of connection points: 2
#     Edge 83, Type (0, 0), BuildingBlock: UVAHIK_clean_linker_0, # of connection points: 2
#     Edge 84, Type (0, 0), BuildingBlock: UVAHIK_clean_linker_0, # of connection points: 2
#     Edge 85, Type (0, 0), BuildingBlock: UVAHIK_clean_linker_0, # of connection points: 2
#     Edge 86, Type (0, 0), BuildingBlock: UVAHIK_clean_linker_0, # of connection points: 2
#     Edge 87, Type (0, 0), BuildingBlock: UVAHIK_clean_linker_0, # of connection points: 2
#     Edge 88, Type (0, 0), BuildingBlock: UVAHIK_clean_linker_0, # of connection points: 2
#     Edge 89, Type (0, 0), BuildingBlock: UVAHIK_clean_linker_0, # of connection points: 2
#     Edge 90, Type (0, 0), BuildingBlock: UVAHIK_clean_linker_0, # of connection points: 2
#     Edge 91, Type (0, 0), BuildingBlock: UVAHIK_clean_linker_0, # of connection points: 2
#     Edge 92, Type (0, 0), BuildingBlock: UVAHIK_clean_linker_0, # of connection points: 2
#     Edge 93, Type (0, 0), BuildingBlock: UVAHIK_clean_linker_0, # of connection points: 2
#     Edge 94, Type (0, 0), BuildingBlock: UVAHIK_clean_linker_0, # of connection points: 2
#     Edge 95, Type (0, 0), BuildingBlock: UVAHIK_clean_linker_0, # of connection points: 2
#     Edge 96, Type (0, 0), BuildingBlock: UVAHIK_clean_linker_0, # of connection points: 2
#     Edge 97, Type (0, 0), BuildingBlock: UVAHIK_clean_linker_0, # of connection points: 2
#     Edge 98, Type (0, 0), BuildingBlock: UVAHIK_clean_linker_0, # of connection points: 2
#     Edge 99, Type (0, 0), BuildingBlock: UVAHIK_clean_linker_0, # of connection points: 2
#     Edge 100, Type (0, 0), BuildingBlock: UVAHIK_clean_linker_0, # of connection points: 2
#     Edge 101, Type (0, 0), BuildingBlock: UVAHIK_clean_linker_0, # of connection points: 2
#     Edge 102, Type (0, 0), BuildingBlock: UVAHIK_clean_linker_0, # of connection points: 2
#     Edge 103, Type (0, 0), BuildingBlock: UVAHIK_clean_linker_0, # of connection points: 2
#     Edge 104, Type (0, 0), BuildingBlock: UVAHIK_clean_linker_0, # of connection points: 2
#     Edge 105, Type (0, 0), BuildingBlock: UVAHIK_clean_linker_0, # of connection points: 2
#     Edge 106, Type (0, 0), BuildingBlock: UVAHIK_clean_linker_0, # of connection points: 2
#     Edge 107, Type (0, 0), BuildingBlock: UVAHIK_clean_linker_0, # of connection points: 2
#     Edge 108, Type (0, 0), BuildingBlock: UVAHIK_clean_linker_0, # of connection points: 2
#     Edge 109, Type (0, 0), BuildingBlock: UVAHIK_clean_linker_0, # of connection points: 2
#     Edge 110, Type (0, 0), BuildingBlock: UVAHIK_clean_linker_0, # of connection points: 2
#     Edge 111, Type (0, 0), BuildingBlock: UVAHIK_clean_linker_0, # of connection points: 2
#     Edge 112, Type (0, 0), BuildingBlock: UVAHIK_clean_linker_0, # of connection points: 2
#     Edge 113, Type (0, 0), BuildingBlock: UVAHIK_clean_linker_0, # of connection points: 2
#     Edge 114, Type (0, 0), BuildingBlock: UVAHIK_clean_linker_0, # of connection points: 2
#     Edge 115, Type (0, 0), BuildingBlock: UVAHIK_clean_linker_0, # of connection points: 2
#     Edge 116, Type (0, 0), BuildingBlock: UVAHIK_clean_linker_0, # of connection points: 2
#     Edge 117, Type (0, 0), BuildingBlock: UVAHIK_clean_linker_0, # of connection points: 2
#     Edge 118, Type (0, 0), BuildingBlock: UVAHIK_clean_linker_0, # of connection points: 2
#     Edge 119, Type (0, 0), BuildingBlock: UVAHIK_clean_linker_0, # of connection points: 2
#     Edge 120, Type (0, 0), BuildingBlock: UVAHIK_clean_linker_0, # of connection points: 2
#     Edge 121, Type (0, 0), BuildingBlock: UVAHIK_clean_linker_0, # of connection points: 2
#     Edge 122, Type (0, 0), BuildingBlock: UVAHIK_clean_linker_0, # of connection points: 2
#     Edge 123, Type (0, 0), BuildingBlock: UVAHIK_clean_linker_0, # of connection points: 2
#     Edge 124, Type (0, 0), BuildingBlock: UVAHIK_clean_linker_0, # of connection points: 2
#     Edge 125, Type (0, 0), BuildingBlock: UVAHIK_clean_linker_0, # of connection points: 2
#     Edge 126, Type (0, 0), BuildingBlock: UVAHIK_clean_linker_0, # of connection points: 2
#     Edge 127, Type (0, 0), BuildingBlock: UVAHIK_clean_linker_0, # of connection points: 2
# Relax obj value: 0.053
# Max RMSD: 0.119
# Mean RMSD: 0.119
data_MOF--net-som--node1-CUWYAW_clean_sbu_0--edge1-UVAHIK_clean_linker_0
_symmetry_space_group_name_H-M    P1
_symmetry_Int_Tables_number       1
_symmetry_cell_setting            triclinic
loop_
_symmetry_equiv_pos_as_xyz
'x, y, z'
_cell_length_a     30.523912
_cell_length_b     73.08792
_cell_length_c     146.6348
_cell_angle_alpha  89.998484
_cell_angle_beta   90.021922
_cell_angle_gamma 89.99944
loop_
_atom_site_label
_atom_site_type_symbol
_atom_site_fract_x
_atom_site_fract_y
_atom_site_fract_z
_atom_type_partial_charge
C0 C 0.16447 0.46883 0.07902 0.0
Eu1 Eu 0.08428 0.47793 0.0747 0.0
C2 C 0.21118 0.47388 0.07788 0.0
C3 C 0.23148 0.4741 0.06927 0.0
C4 C 0.27673 0.47701 0.06851 0.0
C5 C 0.30268 0.47976 0.07634 0.0
C6 C 0.282 0.47999 0.08491 0.0
C7 C 0.23685 0.47704 0.08566 0.0
C8 C 0.04848 0.47785 0.0577 0.0
C9 C 0.07412 0.52189 0.07083 0.0
C10 C 0.91367 0.50497 0.06981 0.0
Eu11 Eu 0.99412 0.49547 0.07365 0.0
C12 C 0.86717 0.49958 0.07096 0.0
C13 C 0.8471 0.49894 0.07959 0.0
C14 C 0.802 0.49566 0.08037 0.0
C15 C 0.77598 0.49295 0.07255 0.0
C16 C 0.79644 0.49312 0.06396 0.0
C17 C 0.84143 0.49645 0.06318 0.0
C18 C 0.03274 0.49591 0.09039 0.0
C19 C 1.00168 0.45183 0.0774 0.0
O20 O 0.14001 0.47953 0.08405 0.0
O21 O 0.14352 0.46224 0.07196 0.0
O22 O 0.07287 0.46482 0.06091 0.0
O23 O 0.04628 0.49077 0.06338 0.0
O24 O 0.09922 0.50862 0.07412 0.0
O25 O 0.03311 0.51892 0.06851 0.0
O26 O 0.93793 0.49492 0.06442 0.0
O27 O 0.93507 0.51083 0.07698 0.0
O28 O 1.00942 0.50932 0.08721 0.0
O29 O 0.03259 0.48277 0.08485 0.0
O30 O 0.97775 0.46547 0.07426 0.0
O31 O 0.04376 0.4538 0.07928 0.0
H32 H 0.21262 0.47169 0.06313 0.0
H33 H 0.29145 0.47698 0.06179 0.0
H34 H 0.30091 0.48183 0.09109 0.0
H35 H 0.22212 0.47675 0.09239 0.0
H36 H 0.866 0.5013 0.08573 0.0
H37 H 0.78745 0.49539 0.0871 0.0
H38 H 0.77744 0.49132 0.05779 0.0
H39 H 0.85594 0.49706 0.05644 0.0
C40 C 0.11785 0.76196 0.07823 0.0
Eu41 Eu 0.19782 0.75321 0.07359 0.0
C42 C 0.07115 0.75705 0.07709 0.0
C43 C 0.05194 0.75491 0.06844 0.0
C44 C 1.00668 0.75211 0.0676 0.0
C45 C 0.97971 0.75136 0.07539 0.0
C46 C 0.99937 0.75303 0.08403 0.0
C47 C 0.0445 0.75587 0.08486 0.0
C48 C 0.23071 0.75243 0.05634 0.0
C49 C 0.21056 0.70915 0.07065 0.0
C50 C 0.36916 0.7278 0.06806 0.0
Eu51 Eu 0.28881 0.7368 0.07223 0.0
C52 C 0.41552 0.73341 0.06904 0.0
C53 C 0.43476 0.73638 0.07762 0.0
C54 C 0.47983 0.73974 0.07837 0.0
C55 C 0.50658 0.74024 0.07055 0.0
C56 C 0.48688 0.7378 0.06196 0.0
C57 C 0.44193 0.73439 0.06122 0.0
C58 C 0.25318 0.73712 0.08926 0.0
C59 C 0.27879 0.78046 0.07536 0.0
O60 O 0.1425 0.75088 0.08301 0.0
O61 O 0.13839 0.76898 0.07123 0.0
O62 O 0.20602 0.76539 0.0595 0.0
O63 O 0.23476 0.73995 0.06222 0.0
O64 O 0.18486 0.72237 0.07375 0.0
O65 O 0.25082 0.71241 0.06791 0.0
O66 O 0.3441 0.73771 0.06275 0.0
O67 O 0.34872 0.72189 0.07533 0.0
O68 O 0.27707 0.72384 0.08615 0.0
O69 O 0.25132 0.74983 0.0835 0.0
O70 O 0.30298 0.76706 0.07207 0.0
O71 O 0.23759 0.77782 0.07779 0.0
H72 H 0.07171 0.75573 0.06232 0.0
H73 H 0.99276 0.75063 0.06085 0.0
H74 H 0.97967 0.75277 0.09017 0.0
H75 H 0.05849 0.75763 0.0916 0.0
H76 H 0.41522 0.73575 0.08378 0.0
H77 H 0.4938 0.7418 0.08508 0.0
H78 H 0.50646 0.73788 0.0558 0.0
H79 H 0.42795 0.732 0.05453 0.0
C80 C 0.1718 0.76202 0.18888 0.0
Eu81 Eu 0.0915 0.75299 0.19312 0.0
C82 C 0.21851 0.75713 0.19025 0.0
C83 C 0.24115 0.76238 0.19819 0.0
C84 C 0.28643 0.7597 0.19892 0.0
C85 C 0.31023 0.75179 0.19171 0.0
C86 C 0.28731 0.74608 0.18388 0.0
C87 C 0.24207 0.74878 0.18315 0.0
C88 C 0.05741 0.75198 0.21026 0.0
C89 C 0.07965 0.70885 0.1959 0.0
C90 C 0.92052 0.72699 0.19785 0.0
Eu91 Eu 1.00119 0.73629 0.19411 0.0
C92 C 0.8742 0.73279 0.19678 0.0
C93 C 0.85009 0.72785 0.18898 0.0
C94 C 0.80512 0.73143 0.18846 0.0
C95 C 0.78305 0.73991 0.19574 0.0
C96 C 0.8074 0.74525 0.20344 0.0
C97 C 0.85239 0.74168 0.20397 0.0
C98 C 0.03816 0.73681 0.17721 0.0
C99 C 1.01036 0.78001 0.1912 0.0
O100 O 0.14766 0.75101 0.18394 0.0
O101 O 0.15032 0.76902 0.19576 0.0
O102 O 0.0818 0.7651 0.20718 0.0
O103 O 0.05415 0.73949 0.20437 0.0
O104 O 0.10531 0.72221 0.19294 0.0
O105 O 0.03908 0.71194 0.19849 0.0
O106 O 0.9454 0.73639 0.20342 0.0
O107 O 0.94156 0.72153 0.19057 0.0
O108 O 1.01475 0.72334 0.18027 0.0
O109 O 0.0391 0.74956 0.18297 0.0
O110 O 0.98628 0.76648 0.19439 0.0
O111 O 0.05171 0.77753 0.18885 0.0
H112 H 0.22417 0.76906 0.20376 0.0
H113 H 0.30302 0.76446 0.205 0.0
H114 H 0.30444 0.7397 0.17825 0.0
H115 H 0.2257 0.74474 0.17691 0.0
H116 H 0.86564 0.72073 0.18337 0.0
H117 H 0.78735 0.7269 0.18248 0.0
H118 H 0.7916 0.75201 0.20913 0.0
H119 H 0.86985 0.74549 0.21011 0.0
C120 C 0.1241 0.46843 0.18875 0.0
Eu121 Eu 0.20426 0.47747 0.19314 0.0
C122 C 0.07741 0.47352 0.18984 0.0
C123 C 0.05739 0.47461 0.19845 0.0
C124 C 1.01213 0.47754 0.1992 0.0
C125 C 0.98592 0.47947 0.19135 0.0
C126 C 1.00635 0.47885 0.18275 0.0
C127 C 0.05149 0.47587 0.18201 0.0
C128 C 0.2397 0.47737 0.21017 0.0
C129 C 0.21461 0.52142 0.19701 0.0
C130 C 0.3749 0.50439 0.19817 0.0
Eu131 Eu 0.2945 0.49492 0.19426 0.0
C132 C 0.42141 0.49902 0.19705 0.0
C133 C 0.44106 0.49751 0.1884 0.0
C134 C 0.48617 0.49424 0.18762 0.0
C135 C 0.51258 0.49239 0.19544 0.0
C136 C 0.49252 0.49343 0.20406 0.0
C137 C 0.44754 0.49675 0.20484 0.0
C138 C 0.25622 0.49541 0.17749 0.0
C139 C 0.28677 0.45127 0.19054 0.0
O140 O 0.14874 0.47907 0.18373 0.0
O141 O 0.14484 0.46189 0.19585 0.0
O142 O 0.21532 0.46436 0.20694 0.0
O143 O 0.24209 0.49029 0.20449 0.0
O144 O 0.18956 0.50819 0.19367 0.0
O145 O 0.25551 0.51838 0.1994 0.0
O146 O 0.35057 0.4943 0.20353 0.0
O147 O 0.35363 0.51027 0.19099 0.0
O148 O 0.27951 0.5088 0.1807 0.0
O149 O 0.25619 0.48226 0.18302 0.0
O150 O 0.31072 0.46491 0.19367 0.0
O151 O 0.24473 0.45326 0.18862 0.0
H152 H 0.07647 0.47286 0.20462 0.0
H153 H 0.99762 0.47819 0.20593 0.0
H154 H 0.98724 0.48003 0.17655 0.0
H155 H 0.06603 0.47492 0.17529 0.0
H156 H 0.42182 0.49918 0.18225 0.0
H157 H 0.50041 0.49328 0.18087 0.0
H158 H 0.51182 0.49231 0.21023 0.0
H159 H 0.43331 0.49803 0.21158 0.0
C160 C 0.12055 0.47685 0.94914 0.0
Eu161 Eu 0.04024 0.48582 0.94491 0.0
C162 C 0.16697 0.48236 0.94814 0.0
C163 C 0.1864 0.48493 0.93955 0.0
C164 C 0.23151 0.48819 0.93881 0.0
C165 C 0.25812 0.48899 0.94665 0.0
C166 C 0.23824 0.48697 0.95525 0.0
C167 C 0.19324 0.48365 0.95597 0.0
C168 C 1.00459 0.48596 0.92789 0.0
C169 C 0.0303 0.52945 0.94163 0.0
C170 C 0.8692 0.51103 0.93898 0.0
Eu171 Eu 0.94928 0.50228 0.94354 0.0
C172 C 0.82255 0.50608 0.94017 0.0
C173 C 0.80344 0.50419 0.94884 0.0
C174 C 0.75822 0.50133 0.94971 0.0
C175 C 0.73119 0.50027 0.94194 0.0
C176 C 0.75074 0.5017 0.93328 0.0
C177 C 0.79584 0.50459 0.93242 0.0
C178 C 0.98275 0.50169 0.96077 0.0
C179 C 0.96188 0.45825 0.94659 0.0
O180 O 0.09556 0.48691 0.95438 0.0
O181 O 0.10008 0.47079 0.9419 0.0
O182 O 0.02857 0.47273 0.93102 0.0
O183 O 1.00258 0.49874 0.93361 0.0
O184 O 0.05451 0.51608 0.94495 0.0
O185 O 0.98905 0.52681 0.93923 0.0
O186 O 0.89375 0.49999 0.93417 0.0
O187 O 0.88991 0.51804 0.94597 0.0
O188 O 0.95815 0.51466 0.95758 0.0
O189 O 0.98629 0.48913 0.95492 0.0
O190 O 0.93629 0.47145 0.94342 0.0
O191 O 1.00214 0.46155 0.94934 0.0
H192 H 0.16698 0.48406 0.93338 0.0
H193 H 0.24563 0.48994 0.9321 0.0
H194 H 0.2577 0.48728 0.96142 0.0
H195 H 0.17912 0.48157 0.96267 0.0
H196 H 0.82325 0.50524 0.95495 0.0
H197 H 0.74438 0.50005 0.95648 0.0
H198 H 0.73098 0.50119 0.92715 0.0
H199 H 0.80974 0.50616 0.92566 0.0
C200 C 0.66808 0.25261 0.94834 0.0
Eu201 Eu 0.74871 0.24339 0.94452 0.0
C202 C 0.62173 0.24689 0.94721 0.0
C203 C 0.59751 0.25225 0.9395 0.0
C204 C 0.55252 0.24873 0.93896 0.0
C205 C 0.53054 0.23988 0.94615 0.0
C206 C 0.55501 0.23411 0.95375 0.0
C207 C 0.60001 0.23762 0.95429 0.0
C208 C 0.78585 0.24346 0.92765 0.0
C209 C 0.75774 0.19976 0.94121 0.0
C210 C 0.91935 0.21763 0.93923 0.0
Eu211 Eu 0.83901 0.2266 0.94346 0.0
C212 C 0.96606 0.22249 0.94063 0.0
C213 C 0.9887 0.21699 0.94853 0.0
C214 C 0.03398 0.21966 0.94927 0.0
C215 C 0.05777 0.2278 0.94212 0.0
C216 C 0.03484 0.23374 0.93434 0.0
C217 C 0.98961 0.23105 0.93359 0.0
C218 C 0.80418 0.22708 0.96057 0.0
C219 C 0.82746 0.27061 0.94674 0.0
O220 O 0.6929 0.24295 0.95381 0.0
O221 O 0.68916 0.25836 0.94111 0.0
O222 O 0.76237 0.25681 0.93081 0.0
O223 O 0.78689 0.23049 0.93329 0.0
O224 O 0.73362 0.21321 0.94448 0.0
O225 O 0.79919 0.20225 0.93896 0.0
O226 O 0.89526 0.22871 0.93432 0.0
O227 O 0.8978 0.21053 0.94608 0.0
O228 O 0.82864 0.21403 0.95743 0.0
O229 O 0.80149 0.23973 0.95476 0.0
O230 O 0.85292 0.25738 0.94356 0.0
O231 O 0.78687 0.2674 0.94928 0.0
H232 H 0.613 0.25966 0.93398 0.0
H233 H 0.53466 0.25359 0.93306 0.0
H234 H 0.53928 0.22705 0.95936 0.0
H235 H 0.61755 0.23347 0.96037 0.0
H236 H 0.97174 0.21013 0.95404 0.0
H237 H 0.05058 0.21472 0.95532 0.0
H238 H 0.05196 0.2403 0.92876 0.0
H239 H 0.97322 0.23528 0.92738 0.0
C240 C 0.1189 0.25423 0.81876 0.0
Eu241 Eu 0.03859 0.24508 0.82289 0.0
C242 C 0.16532 0.24849 0.81958 0.0
C243 C 0.18738 0.24876 0.82801 0.0
C244 C 0.23252 0.24541 0.82844 0.0
C245 C 0.25667 0.24177 0.82046 0.0
C246 C 0.23419 0.24094 0.81209 0.0
C247 C 0.18913 0.24432 0.81166 0.0
C248 C 1.00306 0.24449 0.83991 0.0
C249 C 0.02913 0.20138 0.82587 0.0
C250 C 0.86797 0.21951 0.82865 0.0
Eu251 Eu 0.94796 0.22851 0.82415 0.0
C252 C 0.82117 0.22431 0.82746 0.0
C253 C 0.8005 0.22348 0.81889 0.0
C254 C 0.75513 0.22602 0.81815 0.0
C255 C 0.72944 0.22939 0.82594 0.0
C256 C 0.75052 0.23078 0.83445 0.0
C257 C 0.79579 0.22822 0.83519 0.0
C258 C 0.98117 0.22958 0.80692 0.0
C259 C 0.9602 0.27267 0.82147 0.0
O260 O 0.09352 0.24474 0.81333 0.0
O261 O 0.09868 0.25975 0.82614 0.0
O262 O 0.02672 0.25786 0.83683 0.0
O263 O 1.00118 0.23182 0.83412 0.0
O264 O 0.0531 0.21486 0.82258 0.0
O265 O 0.98796 0.20394 0.82833 0.0
O266 O 0.89232 0.23059 0.83349 0.0
O267 O 0.88892 0.21254 0.82168 0.0
O268 O 0.95681 0.21648 0.81004 0.0
O269 O 0.98467 0.24202 0.81284 0.0
O270 O 0.93457 0.25932 0.82446 0.0
O271 O 1.00054 0.26955 0.81874 0.0
H272 H 0.1701 0.25206 0.83424 0.0
H273 H 0.24874 0.24635 0.83499 0.0
H274 H 0.25153 0.23788 0.80583 0.0
H275 H 0.17307 0.24412 0.80507 0.0
H276 H 0.81911 0.22039 0.8128 0.0
H277 H 0.74001 0.2247 0.8115 0.0
H278 H 0.73196 0.23367 0.84057 0.0
H279 H 0.81085 0.22886 0.84188 0.0
C280 C 0.66623 0.4773 0.81972 0.0
Eu281 Eu 0.7466 0.48679 0.82362 0.0
C282 C 0.61971 0.48267 0.82083 0.0
C283 C 0.60027 0.48461 0.82947 0.0
C284 C 0.55516 0.48788 0.83026 0.0
C285 C 0.52856 0.48932 0.82244 0.0
C286 C 0.54843 0.48784 0.81382 0.0
C287 C 0.5934 0.48452 0.81303 0.0
C288 C 0.78496 0.48637 0.84037 0.0
C289 C 0.7543 0.53046 0.82732 0.0
C290 C 0.91708 0.51349 0.82889 0.0
Eu291 Eu 0.83683 0.50429 0.82464 0.0
C292 C 0.96377 0.50834 0.82786 0.0
C293 C 0.98378 0.50683 0.81925 0.0
C294 C 0.02904 0.50386 0.81854 0.0
C295 C 0.05527 0.50233 0.82641 0.0
C296 C 0.03484 0.50337 0.835 0.0
C297 C 0.9897 0.50638 0.8357 0.0
C298 C 0.80062 0.50431 0.80767 0.0
C299 C 0.82654 0.46031 0.82089 0.0
O300 O 0.69055 0.48737 0.81435 0.0
O301 O 0.68746 0.47146 0.82691 0.0
O302 O 0.76155 0.47299 0.83719 0.0
O303 O 0.78518 0.49952 0.83483 0.0
O304 O 0.7303 0.51679 0.82423 0.0
O305 O 0.79642 0.52852 0.82917 0.0
O306 O 0.89245 0.50312 0.83405 0.0
O307 O 0.89631 0.51967 0.82171 0.0
O308 O 0.8249 0.51739 0.81085 0.0
O309 O 0.79884 0.49141 0.81336 0.0
O310 O 0.85162 0.47357 0.82418 0.0
O311 O 0.78562 0.46332 0.81851 0.0
H312 H 0.61968 0.48327 0.83562 0.0
H313 H 0.54107 0.48918 0.83701 0.0
H314 H 0.52899 0.48863 0.80765 0.0
H315 H 0.60749 0.48291 0.80629 0.0
H316 H 0.96469 0.50828 0.81307 0.0
H317 H 0.04354 0.50288 0.81182 0.0
H318 H 0.05396 0.50249 0.84121 0.0
H319 H 0.97517 0.50767 0.84242 0.0
C320 C 0.16624 0.96843 0.57892 0.0
Eu321 Eu 0.08563 0.97778 0.57507 0.0
C322 C 0.21291 0.97342 0.57751 0.0
C323 C 0.23721 0.96534 0.57043 0.0
C324 C 0.28241 0.96823 0.56973 0.0
C325 C 0.30456 0.97918 0.57614 0.0
C326 C 0.28006 0.98762 0.58309 0.0
C327 C 0.23484 0.98473 0.58379 0.0
C328 C 0.04891 0.97816 0.55816 0.0
C329 C 0.07521 0.02187 0.57173 0.0
C330 C 0.91509 0.00493 0.57106 0.0
Eu331 Eu 0.99587 -0.0048 0.57443 0.0
C332 C 0.86871 -0.00067 0.57229 0.0
C333 C 0.84316 0.00748 0.57916 0.0
C334 C 0.79819 0.00394 0.57975 0.0
C335 C 0.77754 -0.00771 0.57344 0.0
C336 C 0.80329 0.98382 0.56669 0.0
C337 C 0.84832 0.98731 0.56612 0.0
C338 C 0.03549 -0.00465 0.59106 0.0
C339 C 1.00353 0.95152 0.57779 0.0
O340 O 0.1423 0.97899 0.58414 0.0
O341 O 0.14436 0.962 0.57195 0.0
O342 O 0.07303 0.96497 0.56127 0.0
O343 O 0.04715 -0.00902 0.56391 0.0
O344 O 0.10066 0.00849 0.57477 0.0
O345 O 0.03416 0.01893 0.56944 0.0
O346 O 0.93927 -0.00444 0.56536 0.0
O347 O 0.93688 0.01015 0.5783 0.0
O348 O 1.01233 0.00886 0.58795 0.0
O349 O 0.03493 0.98224 0.5855 0.0
O350 O 0.97949 0.96519 0.57474 0.0
O351 O 0.04559 0.95353 0.57966 0.0
H352 H 0.22155 0.9563 0.56557 0.0
H353 H 0.30023 0.96131 0.56436 0.0
H354 H 0.29593 -0.00369 0.58808 0.0
H355 H 0.21728 -0.00899 0.58939 0.0
H356 H 0.85766 0.01703 0.58393 0.0
H357 H 0.77933 0.0109 0.58495 0.0
H358 H 0.78855 0.97461 0.56179 0.0
H359 H 0.86687 0.98091 0.56069 0.0
C360 C 0.12343 0.26177 0.57885 0.0
Eu361 Eu 0.20364 0.25277 0.5745 0.0
C362 C 0.07676 0.25667 0.5777 0.0
C363 C 0.05643 0.25653 0.56909 0.0
C364 C 1.01119 0.25361 0.56832 0.0
C365 C 0.98528 0.25074 0.57614 0.0
C366 C 1.006 0.25041 0.58471 0.0
C367 C 0.05113 0.25339 0.58547 0.0
C368 C 0.23886 0.2528 0.55745 0.0
C369 C 0.2142 0.2088 0.57072 0.0
C370 C 0.37425 0.22597 0.56957 0.0
Eu371 Eu 0.29378 0.2354 0.57341 0.0
C372 C 0.42075 0.23134 0.57074 0.0
C373 C 0.44087 0.23181 0.57937 0.0
C374 C 0.48598 0.23503 0.58016 0.0
C375 C 0.51197 0.23788 0.57236 0.0
C376 C 0.49147 0.23788 0.56376 0.0
C377 C 0.44647 0.2346 0.56297 0.0
C378 C 0.25565 0.23511 0.5902 0.0
C379 C 0.28601 0.27905 0.57706 0.0
O380 O 0.14799 0.25105 0.58385 0.0
O381 O 0.14431 0.26844 0.57181 0.0
O382 O 0.21459 0.26582 0.56069 0.0
O383 O 0.24137 0.23989 0.56314 0.0
O384 O 0.18903 0.22203 0.57401 0.0
O385 O 0.25505 0.21186 0.56831 0.0
O386 O 0.34999 0.23607 0.56419 0.0
O387 O 0.35285 0.22003 0.57672 0.0
O388 O 0.27889 0.22168 0.58703 0.0
O389 O 0.25557 0.24818 0.58463 0.0
O390 O 0.30992 0.26543 0.5739 0.0
O391 O 0.24403 0.27701 0.57901 0.0
H392 H 0.07525 0.25903 0.56295 0.0
H393 H 0.99645 0.2537 0.5616 0.0
H394 H 0.98711 0.24849 0.59089 0.0
H395 H 0.06588 0.25362 0.5922 0.0
H396 H 0.422 0.22934 0.5855 0.0
H397 H 0.50057 0.23518 0.58689 0.0
H398 H 0.51044 0.23978 0.55759 0.0
H399 H 0.43192 0.23411 0.55623 0.0
C400 C 0.16477 0.26331 0.6888 0.0
Eu401 Eu 0.08452 0.25421 0.69307 0.0
C402 C 0.21145 0.25823 0.68994 0.0
C403 C 0.23171 0.25791 0.69856 0.0
C404 C 0.27696 0.25501 0.69932 0.0
C405 C 0.30295 0.25235 0.6915 0.0
C406 C 0.2823 0.2522 0.68292 0.0
C407 C 0.23715 0.25515 0.68216 0.0
C408 C 0.04886 0.2542 0.71008 0.0
C409 C 0.0741 0.2102 0.69674 0.0
C410 C 0.9139 0.22731 0.69795 0.0
Eu411 Eu 0.99433 0.23676 0.6941 0.0
C412 C 0.86742 0.23276 0.69683 0.0
C413 C 0.84733 0.23357 0.6882 0.0
C414 C 0.80223 0.23686 0.68744 0.0
C415 C 0.77625 0.23944 0.69527 0.0
C416 C 0.79674 0.23911 0.70386 0.0
C417 C 0.84172 0.23576 0.70462 0.0
C418 C 0.03282 0.23632 0.67735 0.0
C419 C 1.00207 0.2804 0.6904 0.0
O420 O 0.14029 0.25268 0.68374 0.0
O421 O 0.1438 0.26983 0.69586 0.0
O422 O 0.07318 0.26724 0.70687 0.0
O423 O 0.04658 0.2413 0.70438 0.0
O424 O 0.0993 0.2235 0.69353 0.0
O425 O 0.03318 0.21318 0.69913 0.0
O426 O 0.93828 0.23727 0.70336 0.0
O427 O 0.93516 0.22149 0.69076 0.0
O428 O 1.00941 0.22294 0.68053 0.0
O429 O 0.03281 0.24946 0.68289 0.0
O430 O 0.97808 0.26676 0.69351 0.0
O431 O 0.04415 0.27843 0.68853 0.0
H432 H 0.21283 0.26026 0.7047 0.0
H433 H 0.29165 0.25497 0.70604 0.0
H434 H 0.30124 0.25043 0.67673 0.0
H435 H 0.22246 0.25551 0.67543 0.0
H436 H 0.86619 0.23131 0.68205 0.0
H437 H 0.78765 0.23726 0.68071 0.0
H438 H 0.77776 0.2408 0.71004 0.0
H439 H 0.85626 0.23502 0.71136 0.0
C440 C 0.12032 0.97032 0.68965 0.0
Eu441 Eu 0.20033 0.97905 0.69426 0.0
C442 C 0.07357 0.97513 0.69091 0.0
C443 C 0.05252 0.97315 0.69939 0.0
C444 C 1.00718 0.97573 0.70014 0.0
C445 C 0.98187 0.98028 0.69243 0.0
C446 C 1.00331 0.98279 0.68403 0.0
C447 C 0.04856 0.98019 0.68329 0.0
C448 C 0.23359 0.9795 0.71149 0.0
C449 C 0.21249 0.02306 0.69753 0.0
C450 C 0.37139 0.00468 0.69967 0.0
Eu451 Eu 0.29097 -0.0044 0.6956 0.0
C452 C 0.41781 -0.00098 0.69872 0.0
C453 C 0.44017 0.00062 0.69037 0.0
C454 C 0.4853 -0.0027 0.68988 0.0
C455 C 0.50916 -0.00762 0.69772 0.0
C456 C 0.48643 0.99025 0.706 0.0
C457 C 0.44137 -0.00641 0.70649 0.0
C458 C 0.25476 -0.00444 0.67861 0.0
C459 C 0.28146 0.95198 0.6923 0.0
O460 O 0.14472 0.98161 0.68494 0.0
O461 O 0.14127 0.96298 0.69652 0.0
O462 O 0.20894 0.96657 0.70828 0.0
O463 O 0.23736 -0.00789 0.70567 0.0
O464 O 0.18695 0.00987 0.69433 0.0
O465 O 0.25291 0.01978 0.70017 0.0
O466 O 0.34629 -0.00507 0.70505 0.0
O467 O 0.35081 0.01049 0.6924 0.0
O468 O 0.27828 0.0089 0.68178 0.0
O469 O 0.25341 0.98271 0.6843 0.0
O470 O 0.30556 0.96537 0.69565 0.0
O471 O 0.24022 0.95461 0.6899 0.0
H472 H 0.0708 0.96915 0.7054 0.0
H473 H 0.99177 0.97352 0.7067 0.0
H474 H 0.98504 0.9866 0.67799 0.0
H475 H 0.06389 0.98171 0.67666 0.0
H476 H 0.42314 0.00493 0.68426 0.0
H477 H 0.50175 -0.00074 0.68341 0.0
H478 H 0.50356 0.9862 0.71214 0.0
H479 H 0.42512 -0.00763 0.71303 0.0
C480 C 0.11937 0.97818 0.44962 0.0
Eu481 Eu 0.03904 0.98723 0.44545 0.0
C482 C 0.16576 0.98373 0.4486 0.0
C483 C 0.18512 0.98622 0.43999 0.0
C484 C 0.2302 0.98955 0.43924 0.0
C485 C 0.25684 -0.0095 0.44707 0.0
C486 C 0.23703 0.98854 0.45567 0.0
C487 C 0.19207 0.98515 0.45642 0.0
C488 C 1.0033 0.98743 0.42844 0.0
C489 C 0.02939 0.0309 0.44222 0.0
C490 C 0.86813 0.01268 0.43959 0.0
Eu491 Eu 0.94822 0.00381 0.44411 0.0
C492 C 0.82144 0.00772 0.44074 0.0
C493 C 0.80205 0.00599 0.44939 0.0
C494 C 0.75679 0.00317 0.45021 0.0
C495 C 0.73 0.00199 0.44241 0.0
C496 C 0.74983 0.00325 0.43377 0.0
C497 C 0.79496 0.00611 0.43295 0.0
C498 C 0.98179 0.0031 0.46133 0.0
C499 C 0.96052 0.95975 0.4471 0.0
O500 O 0.09443 0.98819 0.4549 0.0
O501 O 0.09878 0.97217 0.44239 0.0
O502 O 0.02714 0.97416 0.43157 0.0
O503 O 1.00142 0.00023 0.43416 0.0
O504 O 0.05351 0.01746 0.44551 0.0
O505 O 0.98809 0.02833 0.43984 0.0
O506 O 0.89269 0.00174 0.43472 0.0
O507 O 0.88884 0.01953 0.44662 0.0
O508 O 0.95733 0.01614 0.45817 0.0
O509 O 0.98517 -0.00944 0.45547 0.0
O510 O 0.93504 0.973 0.44394 0.0
O511 O 1.00077 0.96298 0.44986 0.0
H512 H 0.16568 0.98524 0.43383 0.0
H513 H 0.24426 -0.00876 0.43251 0.0
H514 H 0.25652 0.98897 0.46184 0.0
H515 H 0.178 0.98313 0.46313 0.0
H516 H 0.82165 0.00715 0.45552 0.0
H517 H 0.74273 0.00201 0.45697 0.0
H518 H 0.73027 0.00265 0.42761 0.0
H519 H 0.80907 0.00756 0.42621 0.0
C520 C 0.66681 0.75392 0.44794 0.0
Eu521 Eu 0.74733 0.74481 0.44398 0.0
C522 C 0.62042 0.74823 0.44688 0.0
C523 C 0.59685 0.75225 0.43888 0.0
C524 C 0.5518 0.74881 0.43837 0.0
C525 C 0.52916 0.74136 0.44586 0.0
C526 C 0.55302 0.73689 0.45376 0.0
C527 C 0.59804 0.74034 0.45427 0.0
C528 C 0.78405 0.74493 0.42706 0.0
C529 C 0.7566 0.70121 0.44059 0.0
C530 C 0.91804 0.71927 0.43842 0.0
Eu531 Eu 0.83782 0.72813 0.44279 0.0
C532 C 0.96475 0.72412 0.43979 0.0
C533 C 0.98674 0.7199 0.44795 0.0
C534 C 0.03204 0.72253 0.44871 0.0
C535 C 0.05643 0.72938 0.44132 0.0
C536 C 0.03412 0.73409 0.43326 0.0
C537 C 0.98889 0.73143 0.43249 0.0
C538 C 0.80342 0.72846 0.45993 0.0
C539 C 0.826 0.77211 0.44615 0.0
O540 O 0.69177 0.74416 0.45333 0.0
O541 O 0.68765 0.7598 0.44071 0.0
O542 O 0.76049 0.75825 0.43023 0.0
O543 O 0.78532 0.73199 0.43271 0.0
O544 O 0.73246 0.71461 0.4439 0.0
O545 O 0.79798 0.70378 0.43829 0.0
O546 O 0.89384 0.73047 0.4336 0.0
O547 O 0.89668 0.71203 0.44526 0.0
O548 O 0.82799 0.71547 0.45675 0.0
O549 O 0.80046 0.74114 0.45414 0.0
O550 O 0.85151 0.75892 0.44294 0.0
O551 O 0.78547 0.76884 0.44871 0.0
H552 H 0.61288 0.75856 0.43309 0.0
H553 H 0.53444 0.75264 0.43222 0.0
H554 H 0.5368 0.73091 0.45961 0.0
H555 H 0.61513 0.73724 0.46056 0.0
H556 H 0.96926 0.71406 0.45368 0.0
H557 H 0.04815 0.71857 0.45499 0.0
H558 H 0.0517 0.73966 0.42747 0.0
H559 H 0.97293 0.73467 0.42609 0.0
C560 C 0.12307 0.75357 0.319 0.0
Eu561 Eu 0.04272 0.74412 0.32293 0.0
C562 C 0.16958 0.74823 0.32013 0.0
C563 C 0.18909 0.74655 0.32878 0.0
C564 C 0.2342 0.74329 0.32959 0.0
C565 C 0.26075 0.74162 0.32178 0.0
C566 C 0.24082 0.74283 0.31315 0.0
C567 C 0.19584 0.74614 0.31235 0.0
C568 C 1.0047 0.7445 0.3397 0.0
C569 C 0.03501 0.70044 0.32663 0.0
C570 C 0.87228 0.71745 0.32828 0.0
Eu571 Eu 0.95248 0.72662 0.324 0.0
C572 C 0.82557 0.72258 0.32724 0.0
C573 C 0.80543 0.72384 0.31863 0.0
C574 C 0.76017 0.72679 0.31792 0.0
C575 C 0.73406 0.72856 0.32579 0.0
C576 C 0.7546 0.72777 0.33438 0.0
C577 C 0.79976 0.72478 0.33508 0.0
C578 C 0.98837 0.72668 0.307 0.0
C579 C 0.96275 0.77061 0.32027 0.0
O580 O 0.09874 0.74343 0.31365 0.0
O581 O 0.10183 0.75952 0.32616 0.0
O582 O 0.02812 0.75787 0.33652 0.0
O583 O 1.00433 0.73137 0.33415 0.0
O584 O 0.05897 0.71409 0.32351 0.0
O585 O 0.99294 0.70241 0.32851 0.0
O586 O 0.89692 0.72789 0.3334 0.0
O587 O 0.89302 0.71118 0.32113 0.0
O588 O 0.96412 0.71359 0.31018 0.0
O589 O 0.99027 0.73955 0.3127 0.0
O590 O 0.93775 0.75735 0.32359 0.0
O591 O 1.00361 0.7676 0.31785 0.0
H592 H 0.16973 0.74807 0.33492 0.0
H593 H 0.24834 0.74219 0.33635 0.0
H594 H 0.26023 0.74185 0.30699 0.0
H595 H 0.18171 0.74755 0.3056 0.0
H596 H 0.82443 0.7222 0.31245 0.0
H597 H 0.74557 0.72757 0.3112 0.0
H598 H 0.73558 0.72884 0.34059 0.0
H599 H 0.81438 0.72369 0.34179 0.0
C600 C 0.6704 0.9768 0.31947 0.0
Eu601 Eu 0.75077 0.98582 0.32362 0.0
C602 C 0.62404 0.98243 0.32043 0.0
C603 C 0.60453 0.98503 0.32902 0.0
C604 C 0.55945 0.98838 0.32973 0.0
C605 C 0.53296 0.98925 0.32188 0.0
C606 C 0.55292 0.9872 0.31329 0.0
C607 C 0.59789 0.98379 0.31259 0.0
C608 C 0.78652 0.98629 0.34063 0.0
C609 C 0.76062 0.02952 0.32669 0.0
C610 C 0.92177 0.01121 0.32936 0.0
Eu611 Eu 0.84167 0.00232 0.32488 0.0
C612 C 0.96844 0.00625 0.3282 0.0
C613 C 0.9877 0.00447 0.31954 0.0
C614 C 0.03295 0.00165 0.31869 0.0
C615 C 0.05984 0.00051 0.32648 0.0
C616 C 0.04014 0.00181 0.33513 0.0
C617 C 0.99502 0.00468 0.33597 0.0
C618 C 0.80803 0.00146 0.30768 0.0
C619 C 0.82912 0.95821 0.32207 0.0
O620 O 0.69547 0.98664 0.31414 0.0
O621 O 0.69086 0.97095 0.32675 0.0
O622 O 0.76255 0.973 0.33756 0.0
O623 O 0.78848 -0.00103 0.33485 0.0
O624 O 0.73643 0.01607 0.32344 0.0
O625 O 0.80191 0.02695 0.32907 0.0
O626 O 0.89726 0.00028 0.33425 0.0
O627 O 0.901 0.01805 0.32234 0.0
O628 O 0.83258 0.01451 0.31081 0.0
O629 O 0.80459 0.98897 0.31357 0.0
O630 O 0.85487 0.9715 0.32508 0.0
O631 O 0.78872 0.96139 0.31938 0.0
H632 H 0.62385 0.9841 0.3352 0.0
H633 H 0.54527 0.99014 0.33644 0.0
H634 H 0.53353 0.98757 0.30711 0.0
H635 H 0.61207 0.98169 0.3059 0.0
H636 H 0.96801 0.0056 0.31342 0.0
H637 H 0.04691 0.00046 0.31192 0.0
H638 H 0.0598 0.00124 0.34127 0.0
H639 H 0.98101 0.00616 0.34272 0.0
C640 C 0.67007 0.46859 0.57901 0.0
Eu641 Eu 0.59006 0.47742 0.57442 0.0
C642 C 0.71677 0.47349 0.57782 0.0
C643 C 0.73585 0.47541 0.56915 0.0
C644 C 0.78109 0.47823 0.56827 0.0
C645 C 0.80815 0.47924 0.57604 0.0
C646 C 0.78863 0.47777 0.5847 0.0
C647 C 0.74351 0.47491 0.58557 0.0
C648 C 0.55689 0.47819 0.55719 0.0
C649 C 0.57775 0.52149 0.57145 0.0
C650 C 0.41883 0.50308 0.56893 0.0
Eu651 Eu 0.49918 0.494 0.57308 0.0
C652 C 0.37243 0.4975 0.56988 0.0
C653 C 0.35294 0.49481 0.57847 0.0
C654 C 0.30783 0.4915 0.57918 0.0
C655 C 0.28128 0.49078 0.57133 0.0
C656 C 0.30122 0.49293 0.56274 0.0
C657 C 0.34621 0.49629 0.56204 0.0
C658 C 0.53509 0.49373 0.59009 0.0
C659 C 0.50887 0.45032 0.57625 0.0
O660 O 0.64557 0.47969 0.58381 0.0
O661 O 0.64933 0.46157 0.57203 0.0
O662 O 0.58151 0.46521 0.56035 0.0
O663 O 0.55306 0.4907 0.56306 0.0
O664 O 0.60331 0.50823 0.57455 0.0
O665 O 0.53738 0.51831 0.56873 0.0
O666 O 0.44386 0.49321 0.5636 0.0
O667 O 0.43931 0.50891 0.57621 0.0
O668 O 0.51127 0.50702 0.58697 0.0
O669 O 0.53673 0.48096 0.58435 0.0
O670 O 0.48475 0.46376 0.57297 0.0
O671 O 0.55014 0.45288 0.57865 0.0
H672 H 0.71602 0.4744 0.56304 0.0
H673 H 0.79491 0.47955 0.5615 0.0
H674 H 0.8084 0.47824 0.59083 0.0
H675 H 0.72963 0.47332 0.59232 0.0
H676 H 0.3723 0.49562 0.58465 0.0
H677 H 0.29368 0.48966 0.58589 0.0
H678 H 0.2818 0.49268 0.55656 0.0
H679 H 0.36037 0.49847 0.55535 0.0
C680 C 0.621 0.76179 0.57854 0.0
Eu681 Eu 0.70096 0.75301 0.57393 0.0
C682 C 0.57421 0.75697 0.57732 0.0
C683 C 0.55275 0.75927 0.56891 0.0
C684 C 0.5074 0.75668 0.56821 0.0
C685 C 0.48245 0.75179 0.57591 0.0
C686 C 0.50428 0.74896 0.58424 0.0
C687 C 0.54955 0.75158 0.58494 0.0
C688 C 0.73445 0.75274 0.55673 0.0
C689 C 0.71271 0.70905 0.57048 0.0
C690 C 0.87195 0.7272 0.56849 0.0
Eu691 Eu 0.79157 0.7363 0.57257 0.0
C692 C 0.91839 0.7328 0.56953 0.0
C693 C 0.94062 0.73091 0.57788 0.0
C694 C 0.98573 0.73424 0.57844 0.0
C695 C 1.00971 0.73947 0.57067 0.0
C696 C 0.98711 0.74187 0.56239 0.0
C697 C 0.94207 0.73851 0.56182 0.0
C698 C 0.75522 0.73619 0.58953 0.0
C699 C 0.78235 0.77992 0.57601 0.0
O700 O 0.64548 0.75056 0.58327 0.0
O701 O 0.64186 0.76906 0.57164 0.0
O702 O 0.70979 0.76565 0.55995 0.0
O703 O 0.73803 0.74005 0.56251 0.0
O704 O 0.68739 0.72222 0.57378 0.0
O705 O 0.75313 0.71233 0.56784 0.0
O706 O 0.84701 0.73713 0.56317 0.0
O707 O 0.85121 0.7212 0.5757 0.0
O708 O 0.77871 0.72286 0.58634 0.0
O709 O 0.75401 0.74911 0.58388 0.0
O710 O 0.80639 0.76652 0.57265 0.0
O711 O 0.74103 0.77735 0.57836 0.0
H712 H 0.57073 0.76355 0.56291 0.0
H713 H 0.49168 0.75915 0.5617 0.0
H714 H 0.4863 0.7449 0.59028 0.0
H715 H 0.56517 0.74981 0.59152 0.0
H716 H 0.92349 0.72637 0.58394 0.0
H717 H 1.00206 0.73206 0.58491 0.0
H718 H 1.00433 0.74615 0.5563 0.0
H719 H 0.92593 0.73996 0.55528 0.0
C720 C 0.66558 0.76342 0.68843 0.0
Eu721 Eu 0.5853 0.75424 0.69262 0.0
C722 C 0.71231 0.75835 0.68966 0.0
C723 C 0.73517 0.76289 0.69768 0.0
C724 C 0.78044 0.76004 0.69831 0.0
C725 C 0.80402 0.75266 0.69093 0.0
C726 C 0.78088 0.74768 0.683 0.0
C727 C 0.73565 0.75055 0.68237 0.0
C728 C 0.54944 0.75416 0.70961 0.0
C729 C 0.57524 0.71025 0.69638 0.0
C730 C 0.41488 0.7271 0.69722 0.0
Eu731 Eu 0.49543 0.73672 0.69356 0.0
C732 C 0.36839 0.73264 0.69608 0.0
C733 C 0.34487 0.72805 0.68815 0.0
C734 C 0.29977 0.73139 0.68757 0.0
C735 C 0.27701 0.73928 0.69493 0.0
C736 C 0.30081 0.74429 0.70276 0.0
C737 C 0.34587 0.74096 0.70334 0.0
C738 C 0.53422 0.73638 0.67685 0.0
C739 C 0.50287 0.7804 0.69 0.0
O740 O 0.64119 0.75277 0.68335 0.0
O741 O 0.64435 0.77001 0.69544 0.0
O742 O 0.57369 0.76725 0.70642 0.0
O743 O 0.54734 0.74127 0.70391 0.0
O744 O 0.60034 0.72353 0.69311 0.0
O745 O 0.53425 0.71324 0.69871 0.0
O746 O 0.43928 0.73679 0.70276 0.0
O747 O 0.43635 0.72154 0.69 0.0
O748 O 0.51123 0.72289 0.68003 0.0
O749 O 0.53387 0.74953 0.68238 0.0
O750 O 0.47897 0.76672 0.6931 0.0
O751 O 0.54489 0.77843 0.68809 0.0
H752 H 0.71838 0.76915 0.70339 0.0
H753 H 0.79718 0.76424 0.70448 0.0
H754 H 0.7978 0.74173 0.67723 0.0
H755 H 0.7191 0.74707 0.67606 0.0
H756 H 0.36099 0.72139 0.68247 0.0
H757 H 0.28247 0.72714 0.68148 0.0
H758 H 0.2845 0.75062 0.70851 0.0
H759 H 0.36287 0.74449 0.70958 0.0
C760 C 0.61687 0.46959 0.68918 0.0
Eu761 Eu 0.69688 0.47852 0.6937 0.0
C762 C 0.57008 0.47436 0.69045 0.0
C763 C 0.54916 0.47255 0.69894 0.0
C764 C 0.50381 0.47508 0.69971 0.0
C765 C 0.47835 0.47941 0.69199 0.0
C766 C 0.49966 0.48176 0.68357 0.0
C767 C 0.54492 0.47921 0.68281 0.0
C768 C 0.72998 0.47957 0.71093 0.0
C769 C 0.7092 0.52267 0.69642 0.0
C770 C 0.86795 0.50426 0.69894 0.0
Eu771 Eu 0.78751 0.49508 0.69493 0.0
C772 C 0.91432 0.49845 0.69809 0.0
C773 C 0.93689 0.49976 0.68975 0.0
C774 C 0.98198 0.49633 0.68932 0.0
C775 C 1.00561 0.49159 0.69722 0.0
C776 C 0.98267 0.48975 0.70549 0.0
C777 C 0.93764 0.49321 0.70592 0.0
C778 C 0.75149 0.4945 0.67793 0.0
C779 C 0.77803 0.45139 0.69199 0.0
O780 O 0.64113 0.4808 0.6844 0.0
O781 O 0.63796 0.46243 0.69608 0.0
O782 O 0.70544 0.46652 0.70781 0.0
O783 O 0.73379 0.49201 0.70502 0.0
O784 O 0.68355 0.50933 0.69342 0.0
O785 O 0.74955 0.51952 0.69915 0.0
O786 O 0.84266 0.49487 0.70443 0.0
O787 O 0.84753 0.5097 0.69158 0.0
O788 O 0.775 0.50792 0.68101 0.0
O789 O 0.75004 0.48182 0.68372 0.0
O790 O 0.80199 0.46486 0.69528 0.0
O791 O 0.73687 0.45396 0.68951 0.0
H792 H 0.56756 0.46871 0.70496 0.0
H793 H 0.48851 0.47299 0.70629 0.0
H794 H 0.48127 0.4854 0.67752 0.0
H795 H 0.56015 0.4806 0.67617 0.0
H796 H 0.92005 0.50393 0.68359 0.0
H797 H 0.99859 0.49807 0.68285 0.0
H798 H 0.99963 0.48585 0.71168 0.0
H799 H 0.92124 0.49222 0.71245 0.0
C800 C 0.62423 0.4763 0.44786 0.0
Eu801 Eu 0.54361 0.48586 0.44424 0.0
C802 C 0.67067 0.48187 0.44666 0.0
C803 C 0.69445 0.47652 0.43889 0.0
C804 C 0.7395 0.47991 0.43828 0.0
C805 C 0.76196 0.48862 0.44544 0.0
C806 C 0.73792 0.49438 0.45311 0.0
C807 C 0.69289 0.49099 0.45372 0.0
C808 C 0.50468 0.48552 0.42755 0.0
C809 C 0.53603 0.52951 0.44064 0.0
C810 C 0.37331 0.5126 0.43939 0.0
Eu811 Eu 0.45376 0.50333 0.44341 0.0
C812 C 0.32661 0.50748 0.44063 0.0
C813 C 0.30327 0.51285 0.44846 0.0
C814 C 0.25802 0.50995 0.44906 0.0
C815 C 0.23492 0.50172 0.44184 0.0
C816 C 0.25852 0.49594 0.43412 0.0
C817 C 0.30374 0.49884 0.43351 0.0
C818 C 0.49043 0.5032 0.46035 0.0
C819 C 0.46402 0.45932 0.44704 0.0
O820 O 0.59991 0.48602 0.4534 0.0
O821 O 0.60264 0.47066 0.44067 0.0
O822 O 0.52793 0.47208 0.43071 0.0
O823 O 0.50478 0.49867 0.43308 0.0
O824 O 0.56003 0.51586 0.44375 0.0
O825 O 0.49395 0.52751 0.43879 0.0
O826 O 0.39761 0.50215 0.4342 0.0
O827 O 0.39471 0.51896 0.44645 0.0
O828 O 0.46633 0.51637 0.45719 0.0
O829 O 0.49195 0.49032 0.45464 0.0
O830 O 0.43875 0.47262 0.44386 0.0
O831 O 0.50503 0.4623 0.44935 0.0
H832 H 0.67857 0.46922 0.43337 0.0
H833 H 0.757 0.47508 0.43232 0.0
H834 H 0.75401 0.50133 0.45871 0.0
H835 H 0.67571 0.49514 0.45984 0.0
H836 H 0.31967 0.51979 0.45402 0.0
H837 H 0.24091 0.5148 0.45506 0.0
H838 H 0.24195 0.48933 0.42848 0.0
H839 H 0.32062 0.49472 0.42734 0.0
C840 C 0.16438 0.25554 0.4476 0.0
Eu841 Eu 0.24508 0.24582 0.44414 0.0
C842 C 0.11792 0.25004 0.44634 0.0
C843 C 0.09258 0.2581 0.43941 0.0
C844 C 0.04757 0.25467 0.4388 0.0
C845 C 0.02664 0.2432 0.44515 0.0
C846 C 0.05218 0.2348 0.45196 0.0
C847 C 0.09725 0.2382 0.45256 0.0
C848 C 0.284 0.24586 0.42745 0.0
C849 C 0.25243 0.20213 0.44076 0.0
C850 C 0.41527 0.21894 0.43959 0.0
Eu851 Eu 0.33467 0.22835 0.44342 0.0
C852 C 0.46193 0.22401 0.44097 0.0
C853 C 0.48634 0.21606 0.44808 0.0
C854 C 0.53152 0.21902 0.44877 0.0
C855 C 0.55357 0.2299 0.44232 0.0
C856 C 0.52897 0.2382 0.43533 0.0
C857 C 0.48375 0.23525 0.43465 0.0
C858 C 0.29812 0.22873 0.46037 0.0
C859 C 0.32444 0.27244 0.44676 0.0
O860 O 0.18853 0.24594 0.45322 0.0
O861 O 0.18615 0.26097 0.4404 0.0
O862 O 0.26095 0.25938 0.43057 0.0
O863 O 0.28381 0.23279 0.43303 0.0
O864 O 0.22857 0.21583 0.44385 0.0
O865 O 0.29446 0.2041 0.43885 0.0
O866 O 0.39124 0.22938 0.43433 0.0
O867 O 0.39347 0.21264 0.4466 0.0
O868 O 0.32185 0.21547 0.4572 0.0
O869 O 0.29663 0.24158 0.45463 0.0
O870 O 0.34972 0.25906 0.44366 0.0
O871 O 0.28353 0.26949 0.44913 0.0
H872 H 0.10729 0.26753 0.4346 0.0
H873 H 0.02888 0.26157 0.43355 0.0
H874 H 0.03725 0.22572 0.4569 0.0
H875 H 0.11562 0.23187 0.45803 0.0
H876 H 0.47078 0.20707 0.45298 0.0
H877 H 0.54942 0.21221 0.45416 0.0
H878 H 0.54474 0.24684 0.43031 0.0
H879 H 0.46612 0.24142 0.42903 0.0
C880 C 0.62519 0.25383 0.3196 0.0
Eu881 Eu 0.54485 0.24435 0.32353 0.0
C882 C 0.67171 0.24846 0.3207 0.0
C883 C 0.69127 0.24661 0.32933 0.0
C884 C 0.73639 0.24334 0.33012 0.0
C885 C 0.76289 0.24182 0.32229 0.0
C886 C 0.74291 0.2432 0.31367 0.0
C887 C 0.69792 0.24652 0.31289 0.0
C888 C 0.50659 0.24483 0.34028 0.0
C889 C 0.53731 0.2007 0.32729 0.0
C890 C 0.37444 0.21758 0.32885 0.0
Eu891 Eu 0.45464 0.22679 0.32458 0.0
C892 C 0.32773 0.22269 0.32779 0.0
C893 C 0.30771 0.22408 0.31918 0.0
C894 C 0.26245 0.22703 0.31845 0.0
C895 C 0.23622 0.22867 0.32632 0.0
C896 C 0.25665 0.22774 0.33491 0.0
C897 C 0.3018 0.22475 0.33563 0.0
C898 C 0.49072 0.22676 0.30759 0.0
C899 C 0.46477 0.27077 0.32079 0.0
O900 O 0.6008 0.24376 0.31423 0.0
O901 O 0.60402 0.25969 0.32679 0.0
O902 O 0.53006 0.25818 0.33709 0.0
O903 O 0.50634 0.23167 0.33475 0.0
O904 O 0.56123 0.21436 0.32418 0.0
O905 O 0.49519 0.20263 0.32914 0.0
O906 O 0.39903 0.22805 0.33397 0.0
O907 O 0.39524 0.21131 0.3217 0.0
O908 O 0.46651 0.21366 0.31079 0.0
O909 O 0.49252 0.23967 0.31328 0.0
O910 O 0.43971 0.25748 0.32406 0.0
O911 O 0.50575 0.26783 0.31844 0.0
H912 H 0.67195 0.24802 0.33548 0.0
H913 H 0.75056 0.24212 0.33686 0.0
H914 H 0.76228 0.24234 0.3075 0.0
H915 H 0.68375 0.24805 0.30616 0.0
H916 H 0.32681 0.22255 0.313 0.0
H917 H 0.24795 0.22792 0.31173 0.0
H918 H 0.23754 0.2287 0.34111 0.0
H919 H 0.31633 0.22356 0.34235 0.0
C920 C 0.16741 0.47607 0.31923 0.0
Eu921 Eu 0.24797 0.48524 0.32315 0.0
C922 C 0.12103 0.48181 0.32027 0.0
C923 C 0.09719 0.47745 0.32818 0.0
C924 C 0.05216 0.48093 0.32867 0.0
C925 C 0.02979 0.48876 0.32124 0.0
C926 C 0.0539 0.49355 0.31342 0.0
C927 C 0.09892 0.49006 0.31293 0.0
C928 C 0.28451 0.48542 0.34009 0.0
C929 C 0.25713 0.5289 0.32634 0.0
C930 C 0.41861 0.51087 0.3286 0.0
Eu931 Eu 0.33832 0.50193 0.32429 0.0
C932 C 0.46531 0.506 0.3272 0.0
C933 C 0.48742 0.5106 0.3191 0.0
C934 C 0.5327 0.50794 0.31833 0.0
C935 C 0.557 0.50071 0.32565 0.0
C936 C 0.53459 0.49565 0.33365 0.0
C937 C 0.48936 0.49832 0.33442 0.0
C938 C 0.30414 0.50127 0.30713 0.0
C939 C 0.32648 0.45785 0.32127 0.0
O940 O 0.19241 0.48567 0.31377 0.0
O941 O 0.18825 0.47037 0.3265 0.0
O942 O 0.26098 0.47205 0.33695 0.0
O943 O 0.28585 0.49828 0.33439 0.0
O944 O 0.23308 0.51544 0.32305 0.0
O945 O 0.29847 0.52637 0.32868 0.0
O946 O 0.3945 0.49974 0.33346 0.0
O947 O 0.39712 0.51802 0.32175 0.0
O948 O 0.32845 0.51435 0.31029 0.0
O949 O 0.30115 0.48866 0.31296 0.0
O950 O 0.35206 0.47114 0.32433 0.0
O951 O 0.28596 0.461 0.31866 0.0
H952 H 0.11298 0.47084 0.33392 0.0
H953 H 0.03459 0.47684 0.33475 0.0
H954 H 0.03788 0.49981 0.30761 0.0
H955 H 0.11621 0.49342 0.3067 0.0
H956 H 0.47003 0.51674 0.31344 0.0
H957 H 0.54888 0.5122 0.31211 0.0
H958 H 0.55209 0.48979 0.33937 0.0
H959 H 0.47335 0.4948 0.34078 0.0
C960 C 0.6647 0.9686 0.07932 0.0
Eu961 Eu 0.5844 0.97783 0.07513 0.0
C962 C 0.71143 0.97367 0.07808 0.0
C963 C 0.73435 0.96888 0.0701 0.0
C964 C 0.77961 0.97175 0.06946 0.0
C965 C 0.80314 0.97939 0.07679 0.0
C966 C 0.77994 0.98461 0.08466 0.0
C967 C 0.73472 0.98173 0.08531 0.0
C968 C 0.54912 0.97812 0.05808 0.0
C969 C 0.57442 0.0219 0.07162 0.0
C970 C 0.41415 0.005 0.07038 0.0
Eu971 Eu 0.49465 -0.00463 0.07411 0.0
C972 C 0.36763 -0.00051 0.07153 0.0
C973 C 0.3441 0.00423 0.07944 0.0
C974 C 0.29901 0.00089 0.08002 0.0
C975 C 0.27623 -0.00715 0.0727 0.0
C976 C 0.30001 0.98771 0.06489 0.0
C977 C 0.34508 -0.00896 0.06431 0.0
C978 C 0.53285 -0.00451 0.0909 0.0
C979 C 0.50189 0.95168 0.0776 0.0
O980 O 0.64034 0.97925 0.08441 0.0
O981 O 0.64339 0.96202 0.07231 0.0
O982 O 0.57303 0.96496 0.0613 0.0
O983 O 0.54688 -0.00903 0.06381 0.0
O984 O 0.59943 0.00854 0.07483 0.0
O985 O 0.53358 0.01898 0.06917 0.0
O986 O 0.43856 -0.00476 0.06488 0.0
O987 O 0.4356 0.01063 0.07759 0.0
O988 O 0.50988 0.009 0.08772 0.0
O989 O 0.53272 0.98241 0.08532 0.0
O990 O 0.47817 0.96537 0.07447 0.0
O991 O 0.54384 0.95362 0.0796 0.0
H992 H 0.71761 0.96242 0.06444 0.0
H993 H 0.79639 0.96735 0.06333 0.0
H994 H 0.79682 -0.00922 0.09038 0.0
H995 H 0.71814 0.98541 0.09157 0.0
H996 H 0.36022 0.011 0.08508 0.0
H997 H 0.28173 0.00525 0.0861 0.0
H998 H 0.28371 0.98126 0.05918 0.0
H999 H 0.36208 0.98739 0.05808 0.0
C1000 C 0.61908 0.26192 0.07901 0.0
Eu1001 Eu 0.6991 0.25319 0.07442 0.0
C1002 C 0.57241 0.25698 0.07789 0.0
C1003 C 0.55342 0.25437 0.06925 0.0
C1004 C 0.50817 0.25152 0.06841 0.0
C1005 C 0.48104 0.2512 0.07618 0.0
C1006 C 0.50048 0.25335 0.08481 0.0
C1007 C 0.5456 0.25623 0.08565 0.0
C1008 C 0.7327 0.25265 0.05722 0.0
C1009 C 0.71189 0.20918 0.07126 0.0
C1010 C 0.87061 0.22777 0.06902 0.0
Eu1011 Eu 0.79022 0.23678 0.07314 0.0
C1012 C 0.91697 0.23338 0.06997 0.0
C1013 C 0.93606 0.2368 0.07853 0.0
C1014 C 0.98114 0.24016 0.07926 0.0
C1015 C 1.00801 0.24022 0.07145 0.0
C1016 C 0.98844 0.23734 0.06288 0.0
C1017 C 0.94349 0.23392 0.06217 0.0
C1018 C 0.75387 0.23688 0.0901 0.0
C1019 C 0.78006 0.28042 0.07637 0.0
O1020 O 0.64374 0.25089 0.08382 0.0
O1021 O 0.6396 0.26887 0.07199 0.0
O1022 O 0.70775 0.26554 0.06037 0.0
O1023 O 0.73653 0.24011 0.06308 0.0
O1024 O 0.68614 0.22234 0.07442 0.0
O1025 O 0.75229 0.21252 0.06862 0.0
O1026 O 0.84557 0.23761 0.06368 0.0
O1027 O 0.85018 0.22197 0.07632 0.0
O1028 O 0.77781 0.22361 0.08699 0.0
O1029 O 0.7523 0.24967 0.08438 0.0
O1030 O 0.80442 0.26704 0.0731 0.0
O1031 O 0.73874 0.27778 0.0787 0.0
H1032 H 0.57334 0.25485 0.06315 0.0
H1033 H 0.4944 0.24967 0.06166 0.0
H1034 H 0.48065 0.25342 0.09093 0.0
H1035 H 0.55944 0.25836 0.09237 0.0
H1036 H 0.9164 0.23652 0.08468 0.0
H1037 H 0.99502 0.24257 0.08595 0.0
H1038 H 1.00811 0.23707 0.05674 0.0
H1039 H 0.92959 0.23119 0.0555 0.0
C1040 C 0.67075 0.26174 0.189 0.0
Eu1041 Eu 0.59081 0.25278 0.19354 0.0
C1042 C 0.71755 0.25699 0.19023 0.0
C1043 C 0.73802 0.25768 0.19881 0.0
C1044 C 0.78339 0.25518 0.19959 0.0
C1045 C 0.80928 0.25199 0.19181 0.0
C1046 C 0.7884 0.25073 0.18327 0.0
C1047 C 0.74313 0.25326 0.1825 0.0
C1048 C 0.55768 0.25178 0.21076 0.0
C1049 C 0.57861 0.20863 0.19631 0.0
C1050 C 0.41976 0.22698 0.19882 0.0
Eu1051 Eu 0.50013 0.23618 0.19478 0.0
C1052 C 0.37336 0.23279 0.19806 0.0
C1053 C 0.35119 0.23273 0.18965 0.0
C1054 C 0.30605 0.23612 0.18927 0.0
C1055 C 0.28203 0.23959 0.19728 0.0
C1056 C 0.30461 0.24021 0.20564 0.0
C1057 C 0.34967 0.23678 0.20602 0.0
C1058 C 0.53624 0.23666 0.17779 0.0
C1059 C 0.50959 0.27988 0.1918 0.0
O1060 O 0.64645 0.25054 0.18421 0.0
O1061 O 0.64978 0.26883 0.19594 0.0
O1062 O 0.58222 0.26482 0.20764 0.0
O1063 O 0.55388 0.23933 0.20486 0.0
O1064 O 0.60432 0.22198 0.19335 0.0
O1065 O 0.53811 0.21172 0.19895 0.0
O1066 O 0.44521 0.23623 0.20433 0.0
O1067 O 0.43993 0.22171 0.1914 0.0
O1068 O 0.51268 0.22326 0.18088 0.0
O1069 O 0.53766 0.24938 0.18356 0.0
O1070 O 0.48558 0.2664 0.19507 0.0
O1071 O 0.5508 0.27733 0.18935 0.0
H1072 H 0.71924 0.26063 0.2049 0.0
H1073 H 0.79836 0.25639 0.20626 0.0
H1074 H 0.80711 0.24798 0.17715 0.0
H1075 H 0.72821 0.25272 0.17579 0.0
H1076 H 0.36836 0.22957 0.18339 0.0
H1077 H 0.28974 0.23535 0.18272 0.0
H1078 H 0.28737 0.24312 0.21193 0.0
H1079 H 0.36582 0.23681 0.21261 0.0
C1080 C 0.62429 0.96804 0.18966 0.0
Eu1081 Eu 0.70456 0.97732 0.19385 0.0
C1082 C 0.57753 0.97313 0.19085 0.0
C1083 C 0.55449 0.96857 0.19884 0.0
C1084 C 0.50922 0.97147 0.19943 0.0
C1085 C 0.48579 0.9789 0.19204 0.0
C1086 C 0.50911 0.98388 0.18414 0.0
C1087 C 0.55434 0.98097 0.18354 0.0
C1088 C 0.74061 0.97733 0.21082 0.0
C1089 C 0.71409 0.02131 0.19768 0.0
C1090 C 0.87477 0.00475 0.19847 0.0
Eu1091 Eu 0.79426 -0.00495 0.19481 0.0
C1092 C 0.92131 -0.00071 0.19728 0.0
C1093 C 0.94459 0.00389 0.18933 0.0
C1094 C 0.9897 0.0006 0.18871 0.0
C1095 C 1.01272 -0.00727 0.19604 0.0
C1096 C 0.98916 0.98772 0.2039 0.0
C1097 C 0.94409 -0.00899 0.20452 0.0
C1098 C 0.75536 -0.00459 0.1781 0.0
C1099 C 0.78731 0.95137 0.19115 0.0
O1100 O 0.64872 0.97859 0.18455 0.0
O1101 O 0.64549 0.96159 0.19672 0.0
O1102 O 0.71655 0.9642 0.20761 0.0
O1103 O 0.74246 0.99028 0.20515 0.0
O1104 O 0.68921 0.00799 0.19437 0.0
O1105 O 0.75513 0.01841 0.2 0.0
O1106 O 0.85054 -0.00505 0.20398 0.0
O1107 O 0.85314 0.01039 0.19129 0.0
O1108 O 0.77828 0.00892 0.18129 0.0
O1109 O 0.75588 0.98223 0.18361 0.0
O1110 O 0.81103 0.96508 0.19429 0.0
O1111 O 0.74524 0.95325 0.18925 0.0
H1112 H 0.57115 0.96228 0.20456 0.0
H1113 H 0.49235 0.96725 0.20558 0.0
H1114 H 0.49232 0.98987 0.17836 0.0
H1115 H 0.57101 0.98446 0.17726 0.0
H1116 H 0.92827 0.01052 0.18366 0.0
H1117 H 1.0068 0.00484 0.18259 0.0
H1118 H 1.00565 0.98141 0.20964 0.0
H1119 H 0.92728 0.98747 0.21078 0.0
C1120 C 0.62451 0.9751 0.94884 0.0
Eu1121 Eu 0.54405 0.98455 0.945 0.0
C1122 C 0.67103 0.98059 0.94771 0.0
C1123 C 0.69411 0.97671 0.93964 0.0
C1124 C 0.73924 0.97998 0.93906 0.0
C1125 C 0.76245 0.9871 0.94656 0.0
C1126 C 0.73907 -0.00858 0.95454 0.0
C1127 C 0.69399 0.98815 0.95512 0.0
C1128 C 0.50633 0.98441 0.92818 0.0
C1129 C 0.53633 0.02819 0.94144 0.0
C1130 C 0.37381 0.01101 0.93971 0.0
Eu1131 Eu 0.4541 0.00187 0.94394 0.0
C1132 C 0.32709 0.00593 0.94092 0.0
C1133 C 0.3046 0.0098 0.94907 0.0
C1134 C 0.25933 0.00695 0.94971 0.0
C1135 C 0.23541 0.00025 0.94221 0.0
C1136 C 0.25821 -0.00408 0.93416 0.0
C1137 C 0.30343 -0.00121 0.93351 0.0
C1138 C 0.48948 0.00167 0.96099 0.0
C1139 C 0.46467 0.95783 0.94744 0.0
O1140 O 0.6 0.98498 0.95426 0.0
O1141 O 0.60323 0.96928 0.94165 0.0
O1142 O 0.52952 0.97096 0.93134 0.0
O1143 O 0.50592 -0.00255 0.93377 0.0
O1144 O 0.56019 0.01459 0.94463 0.0
O1145 O 0.49444 0.02611 0.93942 0.0
O1146 O 0.39823 0.00037 0.93465 0.0
O1147 O 0.39499 0.01762 0.94674 0.0
O1148 O 0.4655 0.01481 0.95777 0.0
O1149 O 0.49159 0.98882 0.95527 0.0
O1150 O 0.43949 0.97112 0.94421 0.0
O1151 O 0.50539 0.96088 0.94994 0.0
H1152 H 0.67762 0.97066 0.93383 0.0
H1153 H 0.7562 0.97627 0.93284 0.0
H1154 H 0.75571 -0.00284 0.9604 0.0
H1155 H 0.6773 -0.00887 0.96146 0.0
H1156 H 0.32167 0.01552 0.95488 0.0
H1157 H 0.24285 0.01064 0.95598 0.0
H1158 H 0.24103 0.99048 0.92829 0.0
H1159 H 0.31973 -0.00417 0.92712 0.0
C1160 C 0.16397 0.75423 0.94678 0.0
Eu1161 Eu 0.24467 0.74456 0.94331 0.0
C1162 C 0.11756 0.74862 0.94559 0.0
C1163 C 0.09316 0.75481 0.93806 0.0
C1164 C 0.04814 0.75137 0.93747 0.0
C1165 C 0.02629 0.74175 0.94443 0.0
C1166 C 0.05092 0.73518 0.95185 0.0
C1167 C 0.09595 0.73861 0.95244 0.0
C1168 C 0.28416 0.74488 0.92668 0.0
C1169 C 0.25209 0.70088 0.93981 0.0
C1170 C 0.41493 0.71763 0.93878 0.0
Eu1171 Eu 0.33438 0.72701 0.94264 0.0
C1172 C 0.4616 0.72278 0.94004 0.0
C1173 C 0.48537 0.71658 0.94766 0.0
C1174 C 0.5306 0.71953 0.94828 0.0
C1175 C 0.55327 0.72863 0.94126 0.0
C1176 C 0.52928 0.73522 0.93376 0.0
C1177 C 0.48406 0.73228 0.93314 0.0
C1178 C 0.29718 0.72718 0.95952 0.0
C1179 C 0.32428 0.77106 0.9462 0.0
O1180 O 0.18826 0.74473 0.95243 0.0
O1181 O 0.18563 0.7596 0.93956 0.0
O1182 O 0.26095 0.75834 0.92982 0.0
O1183 O 0.28379 0.7317 0.93221 0.0
O1184 O 0.22807 0.71458 0.94283 0.0
O1185 O 0.29425 0.7028 0.93802 0.0
O1186 O 0.39073 0.72793 0.93348 0.0
O1187 O 0.39337 0.71147 0.94585 0.0
O1188 O 0.32118 0.71397 0.95638 0.0
O1189 O 0.29593 0.74008 0.95381 0.0
O1190 O 0.34965 0.7577 0.94311 0.0
O1191 O 0.28312 0.76815 0.9484 0.0
H1192 H 0.10856 0.76282 0.93274 0.0
H1193 H 0.03016 0.75685 0.93172 0.0
H1194 H 0.03529 0.72753 0.95727 0.0
H1195 H 0.11359 0.73379 0.95838 0.0
H1196 H 0.46931 0.70896 0.95304 0.0
H1197 H 0.54803 0.71405 0.9541 0.0
H1198 H 0.54553 0.7425 0.92829 0.0
H1199 H 0.46689 0.73706 0.92713 0.0
C1200 C 0.621 0.75428 0.81813 0.0
Eu1201 Eu 0.54069 0.74523 0.82231 0.0
C1202 C 0.66741 0.74874 0.81909 0.0
C1203 C 0.68654 0.74541 0.82765 0.0
C1204 C 0.73163 0.74207 0.82838 0.0
C1205 C 0.75848 0.74193 0.82057 0.0
C1206 C 0.73889 0.74474 0.812 0.0
C1207 C 0.69392 0.74814 0.81128 0.0
C1208 C 0.50476 0.74512 0.8393 0.0
C1209 C 0.53099 0.70157 0.82559 0.0
C1210 C 0.36974 0.71984 0.8282 0.0
Eu1211 Eu 0.44977 0.72866 0.82364 0.0
C1212 C 0.32305 0.7248 0.82709 0.0
C1213 C 0.30395 0.72736 0.81846 0.0
C1214 C 0.25869 0.73021 0.81763 0.0
C1215 C 0.23164 0.73061 0.82541 0.0
C1216 C 0.2512 0.72852 0.83404 0.0
C1217 C 0.29632 0.72563 0.83486 0.0
C1218 C 0.48348 0.7292 0.80644 0.0
C1219 C 0.46212 0.77269 0.82045 0.0
O1220 O 0.59598 0.74432 0.81284 0.0
O1221 O 0.60057 0.76018 0.8254 0.0
O1222 O 0.52861 0.75839 0.83616 0.0
O1223 O 0.50295 0.73231 0.83359 0.0
O1224 O 0.55515 0.71499 0.8223 0.0
O1225 O 0.48966 0.70415 0.82794 0.0
O1226 O 0.39439 0.73077 0.83306 0.0
O1227 O 0.39028 0.71301 0.82115 0.0
O1228 O 0.45888 0.71621 0.80961 0.0
O1229 O 0.48686 0.74178 0.81228 0.0
O1230 O 0.43658 0.7595 0.82365 0.0
O1231 O 0.50249 0.76941 0.81778 0.0
H1232 H 0.66689 0.74574 0.8338 0.0
H1233 H 0.74552 0.73971 0.83508 0.0
H1234 H 0.75854 0.74496 0.80585 0.0
H1235 H 0.68001 0.75081 0.80461 0.0
H1236 H 0.32378 0.72682 0.81234 0.0
H1237 H 0.24485 0.73202 0.81089 0.0
H1238 H 0.23144 0.72849 0.84018 0.0
H1239 H 0.31024 0.72355 0.84158 0.0
C1240 C 0.16427 0.9772 0.82037 0.0
Eu1241 Eu 0.24465 0.98656 0.82434 0.0
C1242 C 0.11778 0.98261 0.8215 0.0
C1243 C 0.09768 0.98328 0.83012 0.0
C1244 C 0.05256 0.98651 0.83089 0.0
C1245 C 0.02657 0.98916 0.82306 0.0
C1246 C 0.04707 0.98898 0.81447 0.0
C1247 C 0.09207 0.98569 0.81371 0.0
C1248 C 0.2826 0.98612 0.84112 0.0
C1249 C 0.25258 0.03021 0.82804 0.0
C1250 C 0.41523 0.01304 0.82967 0.0
Eu1251 Eu 0.33493 0.00394 0.82541 0.0
C1252 C 0.46188 0.00794 0.82849 0.0
C1253 C 0.48204 0.00772 0.81986 0.0
C1254 C 0.52727 0.00481 0.81907 0.0
C1255 C 0.55334 0.00203 0.82688 0.0
C1256 C 0.5328 0.00178 0.83547 0.0
C1257 C 0.48767 0.00474 0.83625 0.0
C1258 C 0.2992 0.00384 0.80839 0.0
C1259 C 0.32435 0.95992 0.82182 0.0
O1260 O 0.18871 0.98732 0.81503 0.0
O1261 O 0.18546 0.9712 0.82753 0.0
O1262 O 0.259 0.97281 0.83794 0.0
O1263 O 0.28311 -0.00074 0.83557 0.0
O1264 O 0.22853 0.01658 0.82493 0.0
O1265 O 0.29464 0.0282 0.82993 0.0
O1266 O 0.3908 0.0024 0.83473 0.0
O1267 O 0.39417 0.01957 0.82261 0.0
O1268 O 0.32346 0.01692 0.81158 0.0
O1269 O 0.29716 -0.00901 0.81411 0.0
O1270 O 0.34957 0.97322 0.82503 0.0
O1271 O 0.28351 0.96292 0.81939 0.0
H1272 H 0.11655 0.98096 0.83627 0.0
H1273 H 0.03797 0.9868 0.83762 0.0
H1274 H 0.02808 -0.00927 0.80829 0.0
H1275 H 0.10662 0.98506 0.80697 0.0
H1276 H 0.46309 0.01016 0.81374 0.0
H1277 H 0.54187 0.00484 0.81235 0.0
H1278 H 0.55182 -8e-05 0.84164 0.0
H1279 H 0.47306 0.00503 0.84299 0.0
C1280 C 1.00243 0.41784 0.07958 0.0
C1281 C 0.9793 0.43441 0.07928 0.0
C1282 C 0.97987 0.40133 0.08068 0.0
C1283 C 0.86967 0.38199 0.07708 0.0
H1284 H 0.91647 0.34049 0.09036 0.0
C1285 C 0.77603 0.31376 0.08026 0.0
C1286 C 0.80101 0.29829 0.07798 0.0
C1287 C 0.79647 0.33066 0.08162 0.0
C1288 C 0.90307 0.35201 0.08664 0.0
H1289 H 0.91502 0.44692 0.08047 0.0
H1290 H 0.87611 0.41833 0.08262 0.0
H1291 H 0.95558 0.36966 0.09067 0.0
H1292 H 0.86705 0.28827 0.07555 0.0
H1293 H 0.90236 0.31765 0.0779 0.0
H1294 H 0.81741 0.36431 0.073 0.0
C1295 C 0.9113 0.41791 0.0817 0.0
C1296 C 0.92551 0.36865 0.08678 0.0
C1297 C 0.93367 0.43431 0.0805 0.0
C1298 C 0.84677 0.29994 0.07725 0.0
C1299 C 0.86713 0.31673 0.07869 0.0
C1300 C 0.84713 0.36542 0.077 0.0
C1301 C 0.93395 0.4012 0.08159 0.0
C1302 C 0.90929 0.38376 0.08191 0.0
C1303 C 0.84219 0.33226 0.08081 0.0
C1304 C 0.86393 0.35022 0.08167 0.0
H1305 H 0.03763 0.41758 0.07866 0.0
H1306 H 0.99824 0.38866 0.08049 0.0
H1307 H 0.85667 0.39325 0.07312 0.0
H1308 H 0.74074 0.31289 0.08089 0.0
H1309 H 0.77658 0.34246 0.08329 0.0
C1310 C 0.50251 0.91761 0.0795 0.0
C1311 C 0.47944 0.93421 0.07931 0.0
C1312 C 0.47987 0.90107 0.0804 0.0
C1313 C 0.36963 0.88194 0.07648 0.0
H1314 H 0.41584 0.83995 0.08946 0.0
C1315 C 0.27515 0.8138 0.0793 0.0
C1316 C 0.29991 0.79831 0.07694 0.0
C1317 C 0.2958 0.83063 0.08069 0.0
C1318 C 0.40262 0.85161 0.08581 0.0
H1319 H 0.41515 0.9467 0.0805 0.0
H1320 H 0.37608 0.91806 0.08233 0.0
H1321 H 0.4552 0.86904 0.09003 0.0
H1322 H 0.36578 0.78822 0.07438 0.0
H1323 H 0.40145 0.8175 0.07679 0.0
H1324 H 0.31725 0.86448 0.07223 0.0
C1325 C 0.4113 0.91765 0.08147 0.0
C1326 C 0.4252 0.8682 0.08611 0.0
C1327 C 0.43376 0.93408 0.08045 0.0
C1328 C 0.34566 0.7999 0.07615 0.0
C1329 C 0.36623 0.81663 0.07762 0.0
C1330 C 0.34694 0.86541 0.07625 0.0
C1331 C 0.4339 0.90094 0.08123 0.0
C1332 C 0.40917 0.8835 0.08136 0.0
C1333 C 0.34152 0.83217 0.07984 0.0
C1334 C 0.36352 0.85005 0.08082 0.0
H1335 H 0.53774 0.91737 0.07863 0.0
H1336 H 0.4982 0.8884 0.08012 0.0
H1337 H 0.35678 0.89335 0.0726 0.0
H1338 H 0.23988 0.81296 0.07998 0.0
H1339 H 0.27609 0.84245 0.08244 0.0
C1340 C 0.85558 0.93386 0.18827 0.0
C1341 C 0.80986 0.93396 0.18934 0.0
C1342 C 0.87801 0.91747 0.18706 0.0
C1343 C 0.86397 0.86837 0.18161 0.0
H1344 H 0.97175 0.86364 0.19546 0.0
C1345 C 0.94337 0.7994 0.19048 0.0
C1346 C 0.98915 0.79789 0.18974 0.0
C1347 C 0.92278 0.8162 0.18923 0.0
C1348 C 0.94211 0.86486 0.19144 0.0
H1349 H 0.75149 0.91712 0.18971 0.0
H1350 H 0.79097 0.88822 0.18789 0.0
H1351 H 0.9323 0.89254 0.19557 0.0
H1352 H 0.04923 0.81274 0.18699 0.0
H1353 H 1.013 0.84233 0.18491 0.0
H1354 H 0.87329 0.84036 0.17778 0.0
C1355 C 0.80936 0.90089 0.18781 0.0
C1356 C 0.91946 0.88141 0.19149 0.0
C1357 C 0.78675 0.91739 0.1889 0.0
C1358 C 1.01392 0.81351 0.18762 0.0
C1359 C 0.99326 0.83041 0.18645 0.0
C1360 C 0.8865 0.85175 0.18162 0.0
C1361 C 0.85534 0.90077 0.18702 0.0
C1362 C 0.87999 0.88332 0.18662 0.0
C1363 C 0.94752 0.83188 0.18728 0.0
C1364 C 0.92556 0.84983 0.18661 0.0
H1365 H 0.87425 0.94646 0.1884 0.0
H1366 H 0.91326 0.9179 0.18624 0.0
H1367 H 0.83402 0.8695 0.17769 0.0
H1368 H 0.92325 0.78761 0.19206 0.0
H1369 H 0.88755 0.81701 0.19003 0.0
C1370 C 0.35468 0.43364 0.18751 0.0
C1371 C 0.30906 0.4338 0.18874 0.0
C1372 C 0.377 0.4172 0.1864 0.0
C1373 C 0.36263 0.36781 0.18166 0.0
H1374 H 0.47125 0.36385 0.19529 0.0
C1375 C 0.44263 0.29931 0.19118 0.0
C1376 C 0.48834 0.29774 0.1903 0.0
C1377 C 0.42197 0.31606 0.18982 0.0
C1378 C 0.44136 0.36484 0.19134 0.0
H1379 H 0.25069 0.41701 0.18949 0.0
H1380 H 0.29001 0.38802 0.18785 0.0
H1381 H 0.43181 0.39274 0.19509 0.0
H1382 H 0.54823 0.31247 0.18721 0.0
H1383 H 0.51188 0.34198 0.18494 0.0
H1384 H 0.37172 0.33959 0.1782 0.0
C1385 C 0.3084 0.40067 0.18757 0.0
C1386 C 0.41872 0.38139 0.19121 0.0
C1387 C 0.28589 0.41723 0.18855 0.0
C1388 C 0.51298 0.31328 0.18796 0.0
C1389 C 0.49224 0.33013 0.18667 0.0
C1390 C 0.38516 0.35119 0.18185 0.0
C1391 C 0.35432 0.4005 0.18664 0.0
C1392 C 0.37896 0.38304 0.18642 0.0
C1393 C 0.44656 0.33164 0.18761 0.0
C1394 C 0.42452 0.34954 0.18676 0.0
H1395 H 0.37335 0.44625 0.18745 0.0
H1396 H 0.41218 0.41758 0.18547 0.0
H1397 H 0.33244 0.36871 0.1778 0.0
H1398 H 0.4226 0.28759 0.19294 0.0
H1399 H 0.38679 0.31691 0.19071 0.0
C1400 C 0.02658 0.56273 0.93759 0.0
C1401 C 0.05138 0.5473 0.94001 0.0
C1402 C 0.04715 0.57958 0.93619 0.0
C1403 C 0.15403 0.60072 0.93126 0.0
H1404 H 0.10714 0.6424 0.94435 0.0
C1405 C 0.25303 0.66683 0.93788 0.0
C1406 C 0.22984 0.6834 0.93802 0.0
C1407 C 0.23056 0.65027 0.9369 0.0
C1408 C 0.12029 0.63101 0.9405 0.0
H1409 H 0.11725 0.53729 0.94266 0.0
H1410 H 0.15278 0.5666 0.94024 0.0
H1411 H 0.06787 0.61347 0.94464 0.0
H1412 H 0.16557 0.69583 0.93663 0.0
H1413 H 0.12681 0.66714 0.93466 0.0
H1414 H 0.20667 0.61824 0.92717 0.0
C1415 C 0.1176 0.56568 0.93938 0.0
C1416 C 0.09775 0.61444 0.94068 0.0
C1417 C 0.0971 0.54894 0.94085 0.0
C1418 C 0.18425 0.68322 0.93673 0.0
C1419 C 0.16197 0.66678 0.93563 0.0
C1420 C 0.17648 0.61735 0.93102 0.0
C1421 C 0.09284 0.58118 0.9371 0.0
C1422 C 0.1147 0.59909 0.93616 0.0
C1423 C 0.18466 0.65009 0.93593 0.0
C1424 C 0.16006 0.63262 0.93572 0.0
H1425 H 0.99132 0.56186 0.93687 0.0
H1426 H 0.0274 0.59136 0.9344 0.0
H1427 H 0.16755 0.58908 0.92765 0.0
H1428 H 0.2882 0.66662 0.93886 0.0
H1429 H 0.24895 0.63762 0.93723 0.0
C1430 C 0.69076 0.18041 0.94026 0.0
C1431 C 0.73657 0.18193 0.93962 0.0
C1432 C 0.67026 0.1636 0.93898 0.0
C1433 C 0.68993 0.11505 0.94143 0.0
H1434 H 0.58212 0.10992 0.92763 0.0
C1435 C 0.60437 0.04584 0.93856 0.0
C1436 C 0.55864 0.04565 0.9396 0.0
C1437 C 0.62657 0.06225 0.93728 0.0
C1438 C 0.61199 0.11119 0.93156 0.0
H1439 H 0.7968 0.1671 0.93698 0.0
H1440 H 0.76074 0.1375 0.93484 0.0
H1441 H 0.62113 0.13913 0.92758 0.0
H1442 H 0.5 0.06233 0.93985 0.0
H1443 H 0.5391 0.0913 0.93791 0.0
H1444 H 0.68031 0.08746 0.94571 0.0
C1445 C 0.7409 0.14942 0.93633 0.0
C1446 C 0.63438 0.12785 0.9315 0.0
C1447 C 0.76146 0.16632 0.93754 0.0
C1448 C 0.53529 0.06214 0.93907 0.0
C1449 C 0.55767 0.07868 0.93791 0.0
C1450 C 0.66744 0.09847 0.94156 0.0
C1451 C 0.69514 0.14792 0.9371 0.0
C1452 C 0.67334 0.12994 0.93649 0.0
C1453 C 0.60365 0.07889 0.93715 0.0
C1454 C 0.62808 0.09638 0.93667 0.0
H1455 H 0.67056 0.19219 0.94181 0.0
H1456 H 0.635 0.16277 0.93972 0.0
H1457 H 0.71948 0.1164 0.94547 0.0
H1458 H 0.62322 0.03328 0.93876 0.0
H1459 H 0.66184 0.06189 0.93649 0.0
C1460 C 0.02598 0.16808 0.82991 0.0
C1461 C 0.05046 0.18355 0.8274 0.0
C1462 C 0.04683 0.15128 0.83129 0.0
C1463 C 0.15421 0.1305 0.83611 0.0
H1464 H 0.10716 0.08837 0.8234 0.0
C1465 C 0.25349 0.0643 0.82983 0.0
C1466 C 0.23038 0.04771 0.82982 0.0
C1467 C 0.23095 0.08086 0.83074 0.0
C1468 C 0.12037 0.09989 0.82715 0.0
H1469 H 0.11604 0.19363 0.82453 0.0
H1470 H 0.15203 0.16441 0.82692 0.0
H1471 H 0.06758 0.11722 0.82298 0.0
H1472 H 0.16625 0.03525 0.83138 0.0
H1473 H 0.12738 0.06394 0.83323 0.0
H1474 H 0.2072 0.11319 0.84024 0.0
C1475 C 0.1169 0.16527 0.82787 0.0
C1476 C 0.09765 0.11641 0.82689 0.0
C1477 C 0.09612 0.18197 0.82642 0.0
C1478 C 0.18484 0.04787 0.83118 0.0
C1479 C 0.16251 0.06432 0.83221 0.0
C1480 C 0.17683 0.11391 0.83643 0.0
C1481 C 0.09247 0.14976 0.83027 0.0
C1482 C 0.11463 0.13192 0.83127 0.0
C1483 C 0.18508 0.08103 0.83176 0.0
C1484 C 0.16035 0.09847 0.83187 0.0
H1485 H 0.99077 0.1689 0.83074 0.0
H1486 H 0.02732 0.13949 0.83317 0.0
H1487 H 0.16777 0.14226 0.83962 0.0
H1488 H 0.28862 0.06451 0.82879 0.0
H1489 H 0.24926 0.09352 0.8303 0.0
C1490 C 0.52754 0.66826 0.8296 0.0
C1491 C 0.55221 0.68376 0.82722 0.0
C1492 C 0.54827 0.65144 0.83099 0.0
C1493 C 0.6554 0.63047 0.83595 0.0
H1494 H 0.60891 0.58874 0.82283 0.0
C1495 C 0.75502 0.56451 0.82928 0.0
C1496 C 0.73197 0.54791 0.82914 0.0
C1497 C 0.73242 0.58104 0.83027 0.0
C1498 C 0.62195 0.60015 0.82668 0.0
H1499 H 0.61803 0.69388 0.82463 0.0
H1500 H 0.65382 0.66463 0.82704 0.0
H1501 H 0.56934 0.6176 0.82256 0.0
H1502 H 0.6678 0.53539 0.83053 0.0
H1503 H 0.62882 0.56402 0.83252 0.0
H1504 H 0.70825 0.61303 0.84003 0.0
C1505 C 0.61861 0.66548 0.82788 0.0
C1506 C 0.59924 0.61667 0.82651 0.0
C1507 C 0.59797 0.6822 0.82642 0.0
C1508 C 0.68638 0.54802 0.83044 0.0
C1509 C 0.66398 0.56444 0.83155 0.0
C1510 C 0.67802 0.61388 0.83618 0.0
C1511 C 0.59398 0.64992 0.83012 0.0
C1512 C 0.61603 0.63204 0.83104 0.0
C1513 C 0.68652 0.58116 0.83125 0.0
C1514 C 0.66176 0.59859 0.83146 0.0
H1515 H 0.49227 0.66907 0.83029 0.0
H1516 H 0.5286 0.63962 0.83275 0.0
H1517 H 0.66881 0.64212 0.83957 0.0
H1518 H 0.79018 0.56477 0.82829 0.0
H1519 H 0.75071 0.59372 0.82995 0.0
C1520 C 1.00477 0.91747 0.57973 0.0
C1521 C 0.9814 0.93399 0.57954 0.0
C1522 C 0.98247 0.90087 0.58071 0.0
C1523 C 0.87248 0.88137 0.577 0.0
H1524 H 0.91976 0.83964 0.59002 0.0
C1525 C 0.77882 0.81318 0.58005 0.0
C1526 C 0.80357 0.79772 0.57766 0.0
C1527 C 0.79944 0.83002 0.58144 0.0
C1528 C 0.90624 0.85122 0.58636 0.0
H1529 H 0.91693 0.9463 0.58079 0.0
H1530 H 0.87845 0.91756 0.58275 0.0
H1531 H 0.95869 0.86885 0.59045 0.0
H1532 H 0.86941 0.78763 0.57508 0.0
H1533 H 0.90507 0.81694 0.57748 0.0
H1534 H 0.82024 0.86374 0.57287 0.0
C1535 C 0.91365 0.91725 0.58183 0.0
C1536 C 0.92857 0.86789 0.58657 0.0
C1537 C 0.93577 0.93374 0.58074 0.0
C1538 C 0.84931 0.79931 0.57687 0.0
C1539 C 0.86987 0.81605 0.57832 0.0
C1540 C 0.85004 0.86478 0.57685 0.0
C1541 C 0.93654 0.9006 0.5816 0.0
C1542 C 0.91213 0.88309 0.58181 0.0
C1543 C 0.84513 0.83158 0.58055 0.0
C1544 C 0.86698 0.84951 0.58143 0.0
H1545 H 0.03999 0.91733 0.57882 0.0
H1546 H 1.00102 0.88826 0.58043 0.0
H1547 H 0.85932 0.8927 0.5731 0.0
H1548 H 0.74354 0.81235 0.58074 0.0
H1549 H 0.7797 0.84183 0.58319 0.0
C1550 C 0.28518 0.31306 0.57917 0.0
C1551 C 0.30834 0.2965 0.57889 0.0
C1552 C 0.30773 0.32959 0.58023 0.0
C1553 C 0.41798 0.34892 0.57663 0.0
H1554 H 0.37141 0.39041 0.58994 0.0
C1555 C 0.51238 0.41692 0.58007 0.0
C1556 C 0.48766 0.43247 0.5778 0.0
C1557 C 0.49169 0.40006 0.58135 0.0
C1558 C 0.38474 0.3789 0.58621 0.0
H1559 H 0.37265 0.28401 0.58008 0.0
H1560 H 0.41153 0.31262 0.58218 0.0
H1561 H 0.33206 0.36129 0.59019 0.0
H1562 H 0.4218 0.44267 0.57532 0.0
H1563 H 0.38606 0.41335 0.57754 0.0
H1564 H 0.47043 0.36654 0.5726 0.0
C1565 C 0.37633 0.31303 0.58126 0.0
C1566 C 0.36216 0.36229 0.58631 0.0
C1567 C 0.35398 0.29662 0.58009 0.0
C1568 C 0.44189 0.43094 0.57702 0.0
C1569 C 0.42128 0.41418 0.57837 0.0
C1570 C 0.44065 0.36546 0.57658 0.0
C1571 C 0.35366 0.32973 0.58113 0.0
C1572 C 0.37833 0.34718 0.58144 0.0
C1573 C 0.44596 0.39857 0.58048 0.0
C1574 C 0.42397 0.38065 0.58127 0.0
H1575 H 0.24997 0.3133 0.57826 0.0
H1576 H 0.28935 0.34226 0.58003 0.0
H1577 H 0.43093 0.33766 0.57266 0.0
H1578 H 0.54767 0.41771 0.58074 0.0
H1579 H 0.51139 0.38819 0.58301 0.0
C1580 C 0.93423 0.29794 0.68719 0.0
C1581 C 0.97975 0.29785 0.68857 0.0
C1582 C 0.91179 0.31435 0.68608 0.0
C1583 C 0.92583 0.36387 0.68165 0.0
H1584 H 0.81651 0.36731 0.69505 0.0
C1585 C 0.84502 0.43199 0.69146 0.0
C1586 C 0.79935 0.43355 0.69048 0.0
C1587 C 0.8658 0.41528 0.69003 0.0
C1588 C 0.84659 0.36646 0.69116 0.0
H1589 H 0.03787 0.31474 0.68956 0.0
H1590 H 0.99833 0.34368 0.68792 0.0
H1591 H 0.85622 0.33848 0.69476 0.0
H1592 H 0.73966 0.41888 0.68716 0.0
H1593 H 0.77622 0.38945 0.68478 0.0
H1594 H 0.91665 0.39216 0.67835 0.0
C1595 C 0.98011 0.33099 0.68752 0.0
C1596 C 0.86939 0.34995 0.69098 0.0
C1597 C 1.00275 0.31447 0.68851 0.0
C1598 C 0.77487 0.41807 0.68799 0.0
C1599 C 0.79572 0.40126 0.68664 0.0
C1600 C 0.90313 0.38044 0.6819 0.0
C1601 C 0.93425 0.33108 0.68647 0.0
C1602 C 0.90941 0.3485 0.68627 0.0
C1603 C 0.84136 0.39975 0.68766 0.0
C1604 C 0.86354 0.3819 0.68673 0.0
H1605 H 0.91571 0.28529 0.68703 0.0
H1606 H 0.87667 0.31391 0.68504 0.0
H1607 H 0.95622 0.36311 0.67786 0.0
H1608 H 0.86494 0.44366 0.69333 0.0
H1609 H 0.90093 0.41443 0.691 0.0
C1610 C 0.43498 0.79815 0.68711 0.0
C1611 C 0.48063 0.79792 0.68828 0.0
C1612 C 0.41276 0.81464 0.68608 0.0
C1613 C 0.42741 0.86408 0.68151 0.0
H1614 H 0.31935 0.86799 0.69532 0.0
C1615 C 0.34832 0.93252 0.69148 0.0
C1616 C 0.30259 0.93415 0.69067 0.0
C1617 C 0.36883 0.91578 0.69 0.0
C1618 C 0.34908 0.86701 0.69131 0.0
H1619 H 0.53916 0.81461 0.689 0.0
H1620 H 0.50003 0.84368 0.68751 0.0
H1621 H 0.35848 0.83903 0.69493 0.0
H1622 H 0.24252 0.91957 0.68757 0.0
H1623 H 0.2786 0.89008 0.68508 0.0
H1624 H 0.41848 0.89238 0.67819 0.0
C1625 C 0.48153 0.83105 0.68721 0.0
C1626 C 0.37154 0.85043 0.69108 0.0
C1627 C 0.50393 0.81445 0.68811 0.0
C1628 C 0.27779 0.91871 0.68826 0.0
C1629 C 0.29836 0.90186 0.68686 0.0
C1630 C 0.40506 0.88074 0.68181 0.0
C1631 C 0.43558 0.8313 0.68635 0.0
C1632 C 0.4111 0.8488 0.68622 0.0
C1633 C 0.34406 0.90028 0.68774 0.0
C1634 C 0.36591 0.88237 0.68678 0.0
H1635 H 0.4162 0.78557 0.68704 0.0
H1636 H 0.37753 0.81431 0.6852 0.0
H1637 H 0.45744 0.86319 0.6776 0.0
H1638 H 0.36846 0.94418 0.69328 0.0
H1639 H 0.40403 0.91487 0.69084 0.0
C1640 C 0.02591 0.06426 0.43833 0.0
C1641 C 0.05062 0.04872 0.44063 0.0
C1642 C 0.04663 0.0811 0.43699 0.0
C1643 C 0.15356 0.10216 0.43203 0.0
H1644 H 0.10754 0.14359 0.44546 0.0
C1645 C 0.25321 0.16809 0.43877 0.0
C1646 C 0.23007 0.18466 0.43901 0.0
C1647 C 0.23065 0.15155 0.43779 0.0
C1648 C 0.12044 0.13227 0.44152 0.0
H1649 H 0.11647 0.03853 0.44312 0.0
H1650 H 0.15225 0.06782 0.44082 0.0
H1651 H 0.06802 0.11471 0.44563 0.0
H1652 H 0.16573 0.19713 0.43781 0.0
H1653 H 0.12682 0.16849 0.43584 0.0
H1654 H 0.2062 0.1197 0.42796 0.0
C1655 C 0.11702 0.06699 0.44 0.0
C1656 C 0.09776 0.11574 0.44164 0.0
C1657 C 0.09639 0.05025 0.4414 0.0
C1658 C 0.1844 0.18452 0.43783 0.0
C1659 C 0.16203 0.16809 0.43673 0.0
C1660 C 0.17615 0.11876 0.43186 0.0
C1661 C 0.09236 0.08259 0.43785 0.0
C1662 C 0.11438 0.10048 0.43699 0.0
C1663 C 0.1847 0.15139 0.43692 0.0
C1664 C 0.16004 0.13395 0.43668 0.0
H1665 H 0.99062 0.06347 0.43766 0.0
H1666 H 0.02694 0.09295 0.4353 0.0
H1667 H 0.16683 0.09059 0.42833 0.0
H1668 H 0.28844 0.16786 0.43966 0.0
H1669 H 0.24903 0.13888 0.43803 0.0
C1670 C 0.68975 0.68177 0.43969 0.0
C1671 C 0.73552 0.68336 0.43898 0.0
C1672 C 0.66935 0.66495 0.43837 0.0
C1673 C 0.68949 0.61637 0.44056 0.0
H1674 H 0.58115 0.61139 0.42693 0.0
C1675 C 0.60394 0.54717 0.43762 0.0
C1676 C 0.55827 0.54696 0.43877 0.0
C1677 C 0.62608 0.56359 0.43634 0.0
C1678 C 0.61118 0.61261 0.43081 0.0
H1679 H 0.79577 0.66867 0.43619 0.0
H1680 H 0.75988 0.63905 0.43398 0.0
H1681 H 0.61999 0.64063 0.42694 0.0
H1682 H 0.49966 0.56366 0.4392 0.0
H1683 H 0.53866 0.59263 0.43724 0.0
H1684 H 0.6802 0.5887 0.44474 0.0
C1685 C 0.74 0.65092 0.43555 0.0
C1686 C 0.63346 0.62929 0.43078 0.0
C1687 C 0.76047 0.66783 0.4368 0.0
C1688 C 0.5349 0.56347 0.43833 0.0
C1689 C 0.55722 0.58001 0.43716 0.0
C1690 C 0.66711 0.59977 0.44065 0.0
C1691 C 0.69428 0.64934 0.43638 0.0
C1692 C 0.6726 0.63134 0.43573 0.0
C1693 C 0.60316 0.58024 0.4363 0.0
C1694 C 0.62755 0.59773 0.43583 0.0
H1695 H 0.66951 0.6935 0.44132 0.0
H1696 H 0.63412 0.66406 0.43916 0.0
H1697 H 0.7192 0.61769 0.44455 0.0
H1698 H 0.62279 0.5346 0.43776 0.0
H1699 H 0.6613 0.56324 0.43546 0.0
C1700 C 0.26069 0.56233 0.33008 0.0
C1701 C 0.23592 0.54675 0.32788 0.0
C1702 C 0.24004 0.57922 0.3313 0.0
C1703 C 0.13318 0.60057 0.33606 0.0
H1704 H 0.17965 0.6415 0.32231 0.0
C1705 C 0.03408 0.66643 0.32881 0.0
C1706 C 0.05732 0.68298 0.32846 0.0
C1707 C 0.05652 0.64989 0.3299 0.0
C1708 C 0.16662 0.63033 0.32634 0.0
H1709 H 0.17003 0.53653 0.32547 0.0
H1710 H 0.13436 0.56591 0.32758 0.0
H1711 H 0.21894 0.61257 0.32239 0.0
H1712 H 0.12176 0.69539 0.32955 0.0
H1713 H 0.16048 0.66675 0.3317 0.0
H1714 H 0.08066 0.61832 0.33996 0.0
C1715 C 0.16958 0.56508 0.32841 0.0
C1716 C 0.18917 0.61376 0.32637 0.0
C1717 C 0.19015 0.54829 0.32711 0.0
C1718 C 0.103 0.6828 0.32961 0.0
C1719 C 0.12526 0.66638 0.33082 0.0
C1720 C 0.11073 0.61722 0.33609 0.0
C1721 C 0.19432 0.58072 0.33043 0.0
C1722 C 0.1724 0.59868 0.33113 0.0
C1723 C 0.10247 0.6497 0.33076 0.0
C1724 C 0.12699 0.63222 0.33115 0.0
H1725 H 0.29598 0.56154 0.33073 0.0
H1726 H 0.25979 0.59111 0.3329 0.0
H1727 H 0.11979 0.58915 0.33985 0.0
H1728 H 0.99884 0.66622 0.32793 0.0
H1729 H 0.03804 0.63725 0.32975 0.0
C1730 C 0.69372 0.04896 0.32739 0.0
C1731 C 0.73947 0.04739 0.32821 0.0
C1732 C 0.67313 0.06573 0.32874 0.0
C1733 C 0.6926 0.11447 0.32703 0.0
H1734 H 0.58365 0.11852 0.34051 0.0
C1735 C 0.60535 0.18323 0.33044 0.0
C1736 C 0.55974 0.18329 0.32917 0.0
C1737 C 0.62781 0.16685 0.33165 0.0
C1738 C 0.61385 0.11756 0.33667 0.0
H1739 H 0.79948 0.06212 0.33119 0.0
H1740 H 0.76324 0.09166 0.33344 0.0
H1741 H 0.62309 0.08943 0.34028 0.0
H1742 H 0.50155 0.16639 0.32847 0.0
H1743 H 0.54111 0.1375 0.3303 0.0
H1744 H 0.68289 0.14228 0.32312 0.0
C1745 C 0.74353 0.07981 0.33177 0.0
C1746 C 0.63648 0.10096 0.33657 0.0
C1747 C 0.7642 0.06293 0.33049 0.0
C1748 C 0.53673 0.16668 0.32943 0.0
C1749 C 0.55938 0.15019 0.33052 0.0
C1750 C 0.66987 0.13099 0.32706 0.0
C1751 C 0.69782 0.08132 0.33088 0.0
C1752 C 0.67582 0.09924 0.33168 0.0
C1753 C 0.60529 0.15011 0.33148 0.0
C1754 C 0.63008 0.1327 0.33183 0.0
H1755 H 0.67361 0.03724 0.32568 0.0
H1756 H 0.63793 0.06657 0.32789 0.0
H1757 H 0.72248 0.11341 0.32307 0.0
H1758 H 0.62392 0.19586 0.33045 0.0
H1759 H 0.66298 0.16731 0.3326 0.0
C1760 C 0.0722 0.47955 0.10298 0.0
C1761 C 0.05572 0.49589 0.0993 0.0
C1762 C 0.09364 0.47949 0.11143 0.0
C1763 C 0.11114 0.50827 0.13234 0.0
H1764 H 0.20424 0.47336 0.13689 0.0
C1765 C 0.2273 0.51189 0.16375 0.0
C1766 C 0.23327 0.49548 0.16858 0.0
C1767 C 0.20523 0.51198 0.15537 0.0
C1768 C 0.17811 0.48312 0.13574 0.0
H1769 H 0.04957 0.52507 0.10147 0.0
H1770 H 0.08839 0.5252 0.116 0.0
H1771 H 0.16781 0.4737 0.1221 0.0
H1772 H 0.22094 0.46629 0.16843 0.0
H1773 H 0.18334 0.46638 0.15366 0.0
H1774 H 0.12282 0.51801 0.14594 0.0
C1775 C 0.08363 0.51224 0.11257 0.0
C1776 C 0.15694 0.48328 0.12726 0.0
C1777 C 0.06158 0.51222 0.10418 0.0
C1778 C 0.21691 0.47914 0.16484 0.0
C1779 C 0.19554 0.47918 0.15638 0.0
C1780 C 0.13287 0.5083 0.14076 0.0
C1781 C 0.09984 0.49585 0.11637 0.0
C1782 C 0.12292 0.49581 0.12542 0.0
C1783 C 0.18933 0.49561 0.15156 0.0
C1784 C 0.16646 0.49567 0.14257 0.0
H1785 H 0.06804 0.46673 0.09937 0.0
H1786 H 0.10474 0.46652 0.11413 0.0
H1787 H 0.08463 0.5179 0.13133 0.0
H1788 H 0.23942 0.52469 0.16649 0.0
H1789 H 0.20116 0.52483 0.15179 0.0
C1790 C 0.22708 0.72117 0.10336 0.0
C1791 C 0.2314 0.73734 0.09829 0.0
C1792 C 0.20613 0.72129 0.11186 0.0
C1793 C 0.13342 0.75015 0.12673 0.0
H1794 H 0.17075 0.71586 0.14535 0.0
C1795 C 0.07672 0.75362 0.16463 0.0
C1796 C 0.06059 0.73714 0.16825 0.0
C1797 C 0.09755 0.75389 0.15611 0.0
C1798 C 0.15985 0.72547 0.1402 0.0
H1799 H 0.2175 0.76638 0.09814 0.0
H1800 H 0.18282 0.76686 0.11311 0.0
H1801 H 0.2076 0.71613 0.13062 0.0
H1802 H 0.05432 0.708 0.16591 0.0
H1803 H 0.09176 0.70839 0.15113 0.0
H1804 H 0.08664 0.75983 0.13654 0.0
C1805 C 0.19424 0.75388 0.11047 0.0
C1806 C 0.18077 0.72557 0.1317 0.0
C1807 C 0.21452 0.75368 0.1019 0.0
C1808 C 0.06626 0.72091 0.16326 0.0
C1809 C 0.08785 0.72112 0.15483 0.0
C1810 C 0.11308 0.75026 0.1353 0.0
C1811 C 0.18959 0.73767 0.1156 0.0
C1812 C 0.16771 0.73782 0.12478 0.0
C1813 C 0.1035 0.73762 0.15113 0.0
C1814 C 0.12585 0.73783 0.1421 0.0
H1815 H 0.23938 0.70833 0.10071 0.0
H1816 H 0.20247 0.70841 0.11543 0.0
H1817 H 0.1216 0.75958 0.12159 0.0
H1818 H 0.07289 0.76633 0.16834 0.0
H1819 H 0.10955 0.76678 0.15346 0.0
C1820 C 0.81403 0.46994 0.85411 0.0
C1821 C 0.80776 0.48635 0.84929 0.0
C1822 C 0.83595 0.46989 0.86251 0.0
C1823 C 0.86132 0.49859 0.88225 0.0
H1824 H 0.95666 0.46468 0.8866 0.0
C1825 C 0.96508 0.50231 0.9153 0.0
C1826 C 0.98246 0.48605 0.91889 0.0
C1827 C 0.94423 0.50241 0.90678 0.0
C1828 C 0.92962 0.47405 0.88561 0.0
H1829 H 0.81935 0.51559 0.8495 0.0
H1830 H 0.85659 0.51558 0.86431 0.0
H1831 H 0.91895 0.46449 0.87195 0.0
H1832 H 0.99087 0.45705 0.91648 0.0
H1833 H 0.95301 0.45695 0.90184 0.0
H1834 H 0.87053 0.50778 0.89595 0.0
C1835 C 0.84481 0.50274 0.86155 0.0
C1836 C 0.90819 0.47399 0.87716 0.0
C1837 C 0.82363 0.50274 0.85307 0.0
C1838 C 0.97816 0.46983 0.91384 0.0
C1839 C 0.95665 0.46985 0.90539 0.0
C1840 C 0.88218 0.49845 0.89076 0.0
C1841 C 0.85132 0.48631 0.86636 0.0
C1842 C 0.87393 0.48631 0.87537 0.0
C1843 C 0.93949 0.48616 0.90169 0.0
C1844 C 0.91685 0.48622 0.89259 0.0
H1845 H 0.8023 0.45709 0.85134 0.0
H1846 H 0.84029 0.45704 0.86608 0.0
H1847 H 0.83468 0.50811 0.8811 0.0
H1848 H 0.96805 0.51504 0.91903 0.0
H1849 H 0.93239 0.51534 0.90416 0.0
C1850 C 0.976 0.2604 0.85397 0.0
C1851 C 0.98092 0.24421 0.8489 0.0
C1852 C 0.95445 0.26021 0.8624 0.0
C1853 C 0.92764 0.23085 0.88179 0.0
H1854 H 0.83451 0.26558 0.88659 0.0
C1855 C 0.82455 0.22708 0.91496 0.0
C1856 C 0.80815 0.24341 0.91867 0.0
C1857 C 0.84528 0.22704 0.90643 0.0
C1858 C 0.86095 0.25597 0.88548 0.0
H1859 H 0.96737 0.21511 0.84871 0.0
H1860 H 0.93079 0.2147 0.86359 0.0
H1861 H 0.87185 0.26598 0.87191 0.0
H1862 H 0.80149 0.27256 0.9165 0.0
H1863 H 0.83919 0.27273 0.90186 0.0
H1864 H 0.91822 0.2212 0.89542 0.0
C1865 C 0.94334 0.22755 0.861 0.0
C1866 C 0.88216 0.25615 0.87701 0.0
C1867 C 0.96414 0.2278 0.85248 0.0
C1868 C 0.81342 0.25973 0.91375 0.0
C1869 C 0.83481 0.25976 0.9053 0.0
C1870 C 0.90701 0.23087 0.89033 0.0
C1871 C 0.93809 0.24377 0.86604 0.0
C1872 C 0.91563 0.24356 0.87506 0.0
C1873 C 0.85087 0.24339 0.90145 0.0
C1874 C 0.87319 0.2434 0.89232 0.0
H1875 H 0.98845 0.27326 0.85136 0.0
H1876 H 0.95109 0.2729 0.86615 0.0
H1877 H 0.95366 0.2211 0.88052 0.0
H1878 H 0.82084 0.21427 0.91859 0.0
H1879 H 0.85629 0.21407 0.9037 0.0
C1880 C 0.07443 0.97884 0.60369 0.0
C1881 C 0.05851 -0.00477 0.59996 0.0
C1882 C 0.09557 0.97875 0.61218 0.0
C1883 C 0.11282 0.00775 0.63304 0.0
H1884 H 0.20454 0.97242 0.638 0.0
C1885 C 0.22774 0.01167 0.6646 0.0
C1886 C 0.23259 -0.00459 0.66962 0.0
C1887 C 0.20621 0.01159 0.65616 0.0
C1888 C 0.17879 0.9823 0.63672 0.0
H1889 H 0.05324 0.02446 0.60206 0.0
H1890 H 0.09161 0.02453 0.61663 0.0
H1891 H 0.16882 0.97262 0.62312 0.0
H1892 H 0.21892 0.96633 0.66973 0.0
H1893 H 0.18231 0.96611 0.65485 0.0
H1894 H 0.12418 0.01776 0.6466 0.0
C1895 C 0.08654 0.01156 0.61323 0.0
C1896 C 0.15803 0.98238 0.6282 0.0
C1897 C 0.06477 0.01158 0.60481 0.0
C1898 C 0.21575 0.97906 0.666 0.0
C1899 C 0.19494 0.97892 0.65748 0.0
C1900 C 0.13415 0.00786 0.6415 0.0
C1901 C 0.10203 -0.00488 0.6171 0.0
C1902 C 0.12456 -0.00493 0.62621 0.0
C1903 C 0.18977 -0.0048 0.65248 0.0
C1904 C 0.16727 -0.0049 0.64345 0.0
H1905 H 0.06996 0.96601 0.60011 0.0
H1906 H 0.10617 0.96574 0.61494 0.0
H1907 H 0.08666 0.01749 0.63193 0.0
H1908 H 0.24025 0.02448 0.66725 0.0
H1909 H 0.20293 0.02433 0.65244 0.0
C1910 C 0.21651 0.25161 0.60278 0.0
C1911 C 0.23291 0.23522 0.59914 0.0
C1912 C 0.19525 0.25176 0.61125 0.0
C1913 C 0.17801 0.2232 0.63225 0.0
H1914 H 0.08505 0.2582 0.63676 0.0
C1915 C 0.06185 0.21981 0.66364 0.0
C1916 C 0.05589 0.23624 0.66846 0.0
C1917 C 0.08398 0.21968 0.65527 0.0
C1918 C 0.11115 0.24842 0.63562 0.0
H1919 H 0.23914 0.20608 0.60139 0.0
H1920 H 0.20061 0.20611 0.61595 0.0
H1921 H 0.12133 0.25771 0.62195 0.0
H1922 H 0.06831 0.26542 0.66829 0.0
H1923 H 0.10601 0.26526 0.65354 0.0
H1924 H 0.16644 0.21358 0.64587 0.0
C1925 C 0.2053 0.21903 0.61248 0.0
C1926 C 0.13224 0.24818 0.62713 0.0
C1927 C 0.22719 0.21895 0.60407 0.0
C1928 C 0.07233 0.25255 0.66472 0.0
C1929 C 0.09377 0.25248 0.65627 0.0
C1930 C 0.15638 0.22326 0.64068 0.0
C1931 C 0.18915 0.23546 0.61624 0.0
C1932 C 0.1662 0.23561 0.6253 0.0
C1933 C 0.09995 0.23603 0.65145 0.0
C1934 C 0.12283 0.23592 0.64247 0.0
H1935 H 0.22058 0.26439 0.59914 0.0
H1936 H 0.1842 0.26477 0.61392 0.0
H1937 H 0.20449 0.21356 0.63126 0.0
H1938 H 0.04968 0.20701 0.66638 0.0
H1939 H 0.08803 0.20681 0.6517 0.0
C1940 C 0.96439 0.00383 0.41577 0.0
C1941 C 0.98105 0.98749 0.41945 0.0
C1942 C 0.94355 0.00387 0.40725 0.0
C1943 C 0.88186 0.97499 0.39146 0.0
H1944 H 0.91894 0.00907 0.37275 0.0
C1945 C 0.81312 0.9704 0.35473 0.0
C1946 C 0.80851 0.98656 0.34964 0.0
C1947 C 0.8344 0.97058 0.36319 0.0
C1948 C 0.90744 -0.00034 0.37791 0.0
H1949 H 0.9883 0.95836 0.4172 0.0
H1950 H 0.95083 0.95835 0.40242 0.0
H1951 H 0.95432 0.00957 0.38765 0.0
H1952 H 0.82218 0.01561 0.34945 0.0
H1953 H 0.85738 0.01619 0.36437 0.0
H1954 H 0.83397 0.96544 0.38196 0.0
C1955 C 0.95434 0.97115 0.40607 0.0
C1956 C 0.92803 -0.0001 0.38646 0.0
C1957 C 0.97595 0.97117 0.41451 0.0
C1958 C 0.82539 0.00293 0.35321 0.0
C1959 C 0.84598 0.00319 0.36176 0.0
C1960 C 0.86067 0.97497 0.38298 0.0
C1961 C 0.93812 0.98751 0.40232 0.0
C1962 C 0.91567 0.98749 0.39331 0.0
C1963 C 0.85098 0.987 0.36689 0.0
C1964 C 0.87327 0.98722 0.37603 0.0
H1965 H 0.96778 0.01661 0.41944 0.0
H1966 H 0.93112 0.01666 0.40456 0.0
H1967 H 0.8713 0.9654 0.39665 0.0
H1968 H 0.80082 0.95754 0.35209 0.0
H1969 H 0.8383 0.95772 0.36676 0.0
C1970 C 0.97589 0.76095 0.35345 0.0
C1971 C 0.98191 0.74454 0.34862 0.0
C1972 C 0.95396 0.76102 0.36185 0.0
C1973 C 0.92786 0.73225 0.38153 0.0
H1974 H 0.83335 0.76655 0.38591 0.0
C1975 C 0.8234 0.72859 0.41446 0.0
C1976 C 0.80643 0.74489 0.4181 0.0
C1977 C 0.84442 0.72851 0.40597 0.0
C1978 C 0.86016 0.75707 0.38491 0.0
H1979 H 0.96984 0.71533 0.34879 0.0
H1980 H 0.93254 0.71538 0.36359 0.0
H1981 H 0.87119 0.76671 0.37128 0.0
H1982 H 0.79896 0.77396 0.41579 0.0
H1983 H 0.83712 0.77409 0.40119 0.0
H1984 H 0.91826 0.72297 0.39521 0.0
C1985 C 0.94456 0.7282 0.36085 0.0
C1986 C 0.88167 0.75712 0.37647 0.0
C1987 C 0.96576 0.72818 0.35237 0.0
C1988 C 0.81135 0.76116 0.41312 0.0
C1989 C 0.83302 0.76116 0.40469 0.0
C1990 C 0.90691 0.73241 0.39003 0.0
C1991 C 0.93829 0.74463 0.36567 0.0
C1992 C 0.91562 0.74466 0.37467 0.0
C1993 C 0.84975 0.74482 0.40094 0.0
C1994 C 0.87254 0.74477 0.39187 0.0
H1995 H 0.98784 0.77377 0.35071 0.0
H1996 H 0.94981 0.77387 0.36543 0.0
H1997 H 0.95427 0.72263 0.38038 0.0
H1998 H 0.81995 0.71581 0.41814 0.0
H1999 H 0.85592 0.71556 0.40331 0.0
C2000 C 0.56178 0.5098 0.60411 0.0
C2001 C 0.55714 0.49357 0.59909 0.0
C2002 C 0.58297 0.50975 0.61259 0.0
C2003 C 0.65572 0.48093 0.62748 0.0
H2004 H 0.61924 0.51553 0.64603 0.0
C2005 C 0.71278 0.47771 0.66536 0.0
C2006 C 0.72919 0.49417 0.66896 0.0
C2007 C 0.69193 0.47742 0.65685 0.0
C2008 C 0.6299 0.50584 0.6409 0.0
H2009 H 0.57072 0.4645 0.59902 0.0
H2010 H 0.60581 0.46415 0.61396 0.0
H2011 H 0.58206 0.51516 0.63133 0.0
H2012 H 0.73596 0.52327 0.66654 0.0
H2013 H 0.69849 0.52285 0.65176 0.0
H2014 H 0.70258 0.47126 0.63729 0.0
C2015 C 0.59446 0.47711 0.61129 0.0
C2016 C 0.60879 0.50568 0.63241 0.0
C2017 C 0.57395 0.47725 0.60273 0.0
C2018 C 0.72381 0.51037 0.66392 0.0
C2019 C 0.7022 0.51015 0.65549 0.0
C2020 C 0.67625 0.48088 0.63603 0.0
C2021 C 0.59943 0.49338 0.61637 0.0
C2022 C 0.62154 0.49331 0.62552 0.0
C2023 C 0.68624 0.49365 0.65183 0.0
C2024 C 0.66378 0.49342 0.64281 0.0
H2025 H 0.54954 0.52263 0.60143 0.0
H2026 H 0.58687 0.52266 0.61611 0.0
H2027 H 0.66731 0.47142 0.62237 0.0
H2028 H 0.71637 0.46501 0.66911 0.0
H2029 H 0.67969 0.46454 0.65423 0.0
C2030 C 0.71588 0.75255 0.60213 0.0
C2031 C 0.73291 0.73626 0.59851 0.0
C2032 C 0.69491 0.75264 0.61063 0.0
C2033 C 0.67956 0.72418 0.63172 0.0
H2034 H 0.58495 0.7584 0.63622 0.0
C2035 C 0.56378 0.72002 0.66314 0.0
C2036 C 0.55725 0.73642 0.66795 0.0
C2037 C 0.58585 0.72002 0.65476 0.0
C2038 C 0.61151 0.74884 0.63508 0.0
H2039 H 0.74056 0.7072 0.60083 0.0
H2040 H 0.70252 0.7071 0.61545 0.0
H2041 H 0.62099 0.75809 0.62139 0.0
H2042 H 0.56857 0.76568 0.66777 0.0
H2043 H 0.60614 0.76574 0.653 0.0
H2044 H 0.66867 0.71457 0.64536 0.0
C2045 C 0.70651 0.72001 0.61194 0.0
C2046 C 0.63247 0.7487 0.62657 0.0
C2047 C 0.72812 0.72 0.6035 0.0
C2048 C 0.57305 0.75283 0.6642 0.0
C2049 C 0.59441 0.75288 0.65574 0.0
C2050 C 0.65806 0.72412 0.64016 0.0
C2051 C 0.68972 0.73636 0.61567 0.0
C2052 C 0.667 0.73641 0.62475 0.0
C2053 C 0.60116 0.73646 0.65094 0.0
C2054 C 0.62391 0.73649 0.64195 0.0
H2055 H 0.71923 0.76532 0.59843 0.0
H2056 H 0.68334 0.76559 0.61327 0.0
H2057 H 0.70649 0.71475 0.63073 0.0
H2058 H 0.5521 0.70715 0.66589 0.0
H2059 H 0.59036 0.70717 0.6512 0.0
C2060 C 0.31192 0.46925 0.35404 0.0
C2061 C 0.30693 0.48553 0.34905 0.0
C2062 C 0.33363 0.46928 0.36247 0.0
C2063 C 0.36122 0.49846 0.38192 0.0
H2064 H 0.45357 0.46331 0.38662 0.0
C2065 C 0.46582 0.50194 0.41489 0.0
C2066 C 0.48187 0.48556 0.41862 0.0
C2067 C 0.44468 0.502 0.4064 0.0
C2068 C 0.42735 0.47304 0.38554 0.0
H2069 H 0.32057 0.51462 0.34897 0.0
H2070 H 0.3575 0.51476 0.36382 0.0
H2071 H 0.41588 0.4631 0.37197 0.0
H2072 H 0.48747 0.45635 0.41652 0.0
H2073 H 0.44909 0.45624 0.40194 0.0
H2074 H 0.37127 0.50806 0.39553 0.0
C2075 C 0.34484 0.50196 0.36118 0.0
C2076 C 0.40593 0.47296 0.37708 0.0
C2077 C 0.32384 0.50187 0.35268 0.0
C2078 C 0.47581 0.46922 0.41376 0.0
C2079 C 0.45403 0.46921 0.40535 0.0
C2080 C 0.38208 0.49834 0.39044 0.0
C2081 C 0.35013 0.48566 0.36616 0.0
C2082 C 0.37275 0.48571 0.37516 0.0
C2083 C 0.43833 0.48563 0.40148 0.0
C2084 C 0.41565 0.48567 0.39239 0.0
H2085 H 0.29936 0.45644 0.3514 0.0
H2086 H 0.33701 0.45653 0.36616 0.0
H2087 H 0.33541 0.50832 0.38067 0.0
H2088 H 0.47014 0.51477 0.41847 0.0
H2089 H 0.43396 0.515 0.40366 0.0
C2090 C 0.31315 0.26202 0.41364 0.0
C2091 C 0.30697 0.24571 0.41854 0.0
C2092 C 0.33519 0.26192 0.40526 0.0
C2093 C 0.36179 0.23271 0.38574 0.0
H2094 H 0.45567 0.26722 0.3812 0.0
C2095 C 0.46711 0.22863 0.35291 0.0
C2096 C 0.48375 0.24491 0.34919 0.0
C2097 C 0.44581 0.22868 0.36138 0.0
C2098 C 0.42904 0.25767 0.38224 0.0
H2099 H 0.31889 0.21649 0.41851 0.0
H2100 H 0.35643 0.21624 0.40374 0.0
H2101 H 0.41766 0.2676 0.39581 0.0
H2102 H 0.49032 0.27408 0.35131 0.0
H2103 H 0.45174 0.2744 0.36587 0.0
H2104 H 0.3718 0.22312 0.37212 0.0
C2105 C 0.34443 0.22912 0.40641 0.0
C2106 C 0.40742 0.25785 0.39067 0.0
C2107 C 0.32309 0.22927 0.41487 0.0
C2108 C 0.47819 0.26129 0.35406 0.0
C2109 C 0.45628 0.26141 0.36246 0.0
C2110 C 0.38287 0.23273 0.37725 0.0
C2111 C 0.35084 0.24545 0.40152 0.0
C2112 C 0.37368 0.24532 0.39253 0.0
C2113 C 0.43993 0.24508 0.3663 0.0
C2114 C 0.41701 0.24517 0.37536 0.0
H2115 H 0.30122 0.27491 0.41632 0.0
H2116 H 0.33942 0.27471 0.40163 0.0
H2117 H 0.33554 0.22303 0.38693 0.0
H2118 H 0.47104 0.21578 0.34933 0.0
H2119 H 0.43459 0.21575 0.36411 0.0
C2120 C 0.71629 0.97898 0.16547 0.0
C2121 C 0.73241 -0.00464 0.16919 0.0
C2122 C 0.69498 0.97891 0.157 0.0
C2123 C 0.67752 0.00779 0.13613 0.0
H2124 H 0.58482 0.97276 0.13143 0.0
C2125 C 0.56175 0.01173 0.1047 0.0
C2126 C 0.55576 -0.00461 0.09981 0.0
C2127 C 0.58376 0.01169 0.11309 0.0
C2128 C 0.61085 0.98255 0.13262 0.0
H2129 H 0.73803 0.02457 0.16707 0.0
H2130 H 0.69945 0.02467 0.15251 0.0
H2131 H 0.62106 0.97301 0.14624 0.0
H2132 H 0.56799 0.96619 0.09986 0.0
H2133 H 0.60554 0.96606 0.11464 0.0
H2134 H 0.66596 0.01764 0.12255 0.0
C2135 C 0.7044 0.0117 0.15593 0.0
C2136 C 0.63191 0.98266 0.14112 0.0
C2137 C 0.72631 0.0117 0.16433 0.0
C2138 C 0.57204 0.97899 0.10349 0.0
C2139 C 0.59338 0.9789 0.11196 0.0
C2140 C 0.65593 0.00786 0.12769 0.0
C2141 C 0.68859 -0.00472 0.15208 0.0
C2142 C 0.66574 -0.00476 0.14301 0.0
C2143 C 0.59961 -0.00474 0.11684 0.0
C2144 C 0.62246 -0.0048 0.12583 0.0
H2145 H 0.72064 0.96615 0.16906 0.0
H2146 H 0.68415 0.96592 0.15427 0.0
H2147 H 0.70392 0.01744 0.13717 0.0
H2148 H 0.54968 0.02458 0.10201 0.0
H2149 H 0.58784 0.02449 0.11671 0.0
C2150 C 0.71486 0.25336 0.10272 0.0
C2151 C 0.73172 0.23703 0.09909 0.0
C2152 C 0.69421 0.25351 0.11125 0.0
C2153 C 0.67944 0.22501 0.13238 0.0
H2154 H 0.58576 0.25953 0.13714 0.0
C2155 C 0.56407 0.22065 0.16384 0.0
C2156 C 0.55868 0.2369 0.16884 0.0
C2157 C 0.58579 0.22079 0.15542 0.0
C2158 C 0.61206 0.24988 0.13592 0.0
H2159 H 0.73928 0.20797 0.10145 0.0
H2160 H 0.70172 0.20797 0.1161 0.0
H2161 H 0.6212 0.25926 0.12225 0.0
H2162 H 0.57159 0.26605 0.16893 0.0
H2163 H 0.60847 0.26637 0.15407 0.0
H2164 H 0.66878 0.21525 0.14601 0.0
C2165 C 0.70567 0.22087 0.11258 0.0
C2166 C 0.63269 0.24977 0.12738 0.0
C2167 C 0.727 0.22081 0.10412 0.0
C2168 C 0.57519 0.25332 0.16522 0.0
C2169 C 0.59616 0.25352 0.15671 0.0
C2170 C 0.65823 0.22491 0.14085 0.0
C2171 C 0.68914 0.23725 0.11633 0.0
C2172 C 0.66685 0.23735 0.12547 0.0
C2173 C 0.60185 0.23724 0.15174 0.0
C2174 C 0.6244 0.23738 0.14273 0.0
H2175 H 0.71816 0.2661 0.099 0.0
H2176 H 0.68284 0.26648 0.1139 0.0
H2177 H 0.70614 0.2155 0.13133 0.0
H2178 H 0.55184 0.20779 0.16648 0.0
H2179 H 0.5895 0.20805 0.15173 0.0
C2180 C 0.32241 0.00221 0.85376 0.0
C2181 C 0.30566 0.98595 0.85001 0.0
C2182 C 0.3439 0.00205 0.86221 0.0
C2183 C 0.40631 0.97269 0.87774 0.0
H2184 H 0.37171 0.0071 0.89651 0.0
C2185 C 0.47778 0.96827 0.9143 0.0
C2186 C 0.48359 0.98454 0.91924 0.0
C2187 C 0.45577 0.96837 0.90591 0.0
C2188 C 0.38251 -0.00242 0.89133 0.0
H2189 H 0.29895 0.95674 0.85208 0.0
H2190 H 0.33743 0.95639 0.86675 0.0
H2191 H 0.33522 0.00768 0.88173 0.0
H2192 H 0.47132 0.01371 0.91925 0.0
H2193 H 0.43476 0.01412 0.90449 0.0
H2194 H 0.45454 0.96292 0.88712 0.0
C2195 C 0.33356 0.96928 0.86319 0.0
C2196 C 0.36129 -0.00213 0.88285 0.0
C2197 C 0.31136 0.96949 0.85482 0.0
C2198 C 0.46718 0.00093 0.91561 0.0
C2199 C 0.44581 0.00111 0.90715 0.0
C2200 C 0.42809 0.97259 0.88616 0.0
C2201 C 0.34985 0.98557 0.86701 0.0
C2202 C 0.37281 0.98539 0.87598 0.0
C2203 C 0.43959 0.98481 0.90216 0.0
C2204 C 0.41645 0.98498 0.89312 0.0
H2205 H 0.31859 0.01509 0.85019 0.0
H2206 H 0.35639 0.0148 0.86494 0.0
H2207 H 0.41624 0.96302 0.87254 0.0
H2208 H 0.48973 0.95539 0.91698 0.0
H2209 H 0.451 0.95546 0.90244 0.0
C2210 C 0.46538 0.72872 0.85189 0.0
C2211 C 0.48255 0.74503 0.84829 0.0
C2212 C 0.44448 0.72863 0.8604 0.0
C2213 C 0.38394 0.75768 0.87635 0.0
H2214 H 0.4179 0.7223 0.89473 0.0
C2215 C 0.3136 0.76122 0.91297 0.0
C2216 C 0.30723 0.74484 0.91779 0.0
C2217 C 0.33555 0.76125 0.90458 0.0
C2218 C 0.40729 0.7321 0.88965 0.0
H2219 H 0.49071 0.77407 0.85068 0.0
H2220 H 0.45322 0.774 0.86546 0.0
H2221 H 0.45388 0.72209 0.87989 0.0
H2222 H 0.31861 0.71561 0.9176 0.0
H2223 H 0.35508 0.71544 0.90281 0.0
H2224 H 0.33636 0.76735 0.88588 0.0
C2225 C 0.45633 0.76126 0.86174 0.0
C2226 C 0.42822 0.73201 0.88114 0.0
C2227 C 0.47795 0.76129 0.85331 0.0
C2228 C 0.32317 0.72847 0.91404 0.0
C2229 C 0.34448 0.72843 0.90557 0.0
C2230 C 0.36244 0.75757 0.88479 0.0
C2231 C 0.43955 0.74491 0.86541 0.0
C2232 C 0.41694 0.74486 0.87441 0.0
C2233 C 0.3511 0.74484 0.9007 0.0
C2234 C 0.37389 0.74483 0.89162 0.0
H2235 H 0.46836 0.71599 0.84816 0.0
H2236 H 0.4316 0.71585 0.86302 0.0
H2237 H 0.37418 0.76761 0.87125 0.0
H2238 H 0.30204 0.77408 0.91575 0.0
H2239 H 0.34071 0.77425 0.90121 0.0
C2240 C 0.22652 0.67595 0.07019 0.0
C2241 C 0.19531 0.69008 0.07041 0.0
C2242 C 0.21339 0.65776 0.07013 0.0
C2243 C 0.12678 0.62763 0.06326 0.0
H2244 H 0.17595 0.59395 0.08098 0.0
C2245 C 0.06184 0.5548 0.06756 0.0
C2246 C 0.09102 0.54066 0.06986 0.0
C2247 C 0.07596 0.57284 0.06722 0.0
C2248 C 0.16257 0.60309 0.07588 0.0
H2249 H 0.12591 0.69635 0.0707 0.0
H2250 H 0.10271 0.66413 0.07036 0.0
H2251 H 0.19602 0.62624 0.0815 0.0
H2252 H 0.15831 0.53429 0.07338 0.0
H2253 H 0.18355 0.56602 0.07253 0.0
H2254 H 0.0943 0.60455 0.05744 0.0
C2255 C 0.13735 0.66736 0.07031 0.0
C2256 C 0.1737 0.62157 0.07625 0.0
C2257 C 0.15055 0.68569 0.07053 0.0
C2258 C 0.13507 0.54491 0.07161 0.0
C2259 C 0.14939 0.56308 0.07118 0.0
C2260 C 0.11612 0.60911 0.0628 0.0
C2261 C 0.16881 0.65332 0.07017 0.0
C2262 C 0.15568 0.63396 0.06997 0.0
C2263 C 0.11978 0.57724 0.06908 0.0
C2264 C 0.1336 0.59666 0.06916 0.0
H2265 H 0.2613 0.6789 0.07018 0.0
H2266 H 0.23814 0.64713 0.06995 0.0
H2267 H 0.11315 0.63695 0.05826 0.0
H2268 H 0.02754 0.55207 0.06623 0.0
H2269 H 0.05205 0.5834 0.06577 0.0
C2270 C 0.14001 0.68555 0.19637 0.0
C2271 C 0.0952 0.68983 0.19613 0.0
C2272 C 0.15343 0.66725 0.19665 0.0
C2273 C 0.11872 0.62134 0.19043 0.0
H2274 H 0.19357 0.60444 0.21006 0.0
C2275 C 0.15436 0.54467 0.19575 0.0
C2276 C 0.19789 0.54024 0.1979 0.0
C2277 C 0.14045 0.5629 0.196 0.0
C2278 C 0.17306 0.60897 0.20447 0.0
H2279 H 0.02939 0.67848 0.19576 0.0
H2280 H 0.05293 0.64678 0.19611 0.0
H2281 H 0.17537 0.63688 0.20893 0.0
H2282 H 0.26076 0.55139 0.20215 0.0
H2283 H 0.237 0.58283 0.20231 0.0
H2284 H 0.11706 0.59365 0.1858 0.0
C2285 C 0.07755 0.65746 0.19616 0.0
C2286 C 0.16279 0.62751 0.20383 0.0
C2287 C 0.06419 0.67562 0.19603 0.0
C2288 C 0.22687 0.55426 0.20049 0.0
C2289 C 0.21317 0.57237 0.20065 0.0
C2290 C 0.12947 0.60285 0.19098 0.0
C2291 C 0.12217 0.65312 0.1965 0.0
C2292 C 0.13544 0.63379 0.19683 0.0
C2293 C 0.16996 0.57696 0.19834 0.0
C2294 C 0.15674 0.59644 0.19801 0.0
H2295 H 0.16449 0.69628 0.19644 0.0
H2296 H 0.18809 0.6641 0.1969 0.0
H2297 H 0.0976 0.62598 0.18496 0.0
H2298 H 0.13128 0.53415 0.19377 0.0
H2299 H 0.10671 0.56599 0.19431 0.0
C2300 C 0.81313 0.30371 0.9489 0.0
C2301 C 0.84341 0.28957 0.94734 0.0
C2302 C 0.82663 0.32185 0.94907 0.0
C2303 C 0.91558 0.35209 0.94145 0.0
H2304 H 0.86008 0.3863 0.95809 0.0
C2305 C 0.97756 0.42505 0.94762 0.0
C2306 C 0.94653 0.43919 0.94689 0.0
C2307 C 0.96438 0.40687 0.94762 0.0
C2308 C 0.87542 0.37689 0.95336 0.0
H2309 H 0.91178 0.2833 0.94487 0.0
H2310 H 0.93588 0.31523 0.94543 0.0
H2311 H 0.841 0.35392 0.95878 0.0
H2312 H 0.87735 0.44544 0.94567 0.0
H2313 H 0.85401 0.41327 0.9459 0.0
H2314 H 0.95093 0.37514 0.93625 0.0
C2315 C 0.90143 0.3122 0.94634 0.0
C2316 C 0.86462 0.35838 0.95374 0.0
C2317 C 0.88775 0.29394 0.94607 0.0
C2318 C 0.90187 0.43479 0.94625 0.0
C2319 C 0.88857 0.41648 0.94639 0.0
C2320 C 0.92681 0.37057 0.94116 0.0
C2321 C 0.87086 0.32634 0.94779 0.0
C2322 C 0.88434 0.34579 0.94774 0.0
C2323 C 0.91988 0.40243 0.94701 0.0
C2324 C 0.90666 0.38308 0.94709 0.0
H2325 H 0.77857 0.30088 0.9498 0.0
H2326 H 0.80205 0.33237 0.94999 0.0
H2327 H 0.93077 0.34284 0.93663 0.0
H2328 H 1.01229 0.42797 0.94805 0.0
H2329 H 0.98899 0.39624 0.94819 0.0
C2330 C 0.81421 0.42746 0.81745 0.0
C2331 C 0.84324 0.44148 0.82001 0.0
C2332 C 0.82788 0.40935 0.81728 0.0
C2333 C 0.91164 0.37877 0.82684 0.0
H2334 H 0.86528 0.34494 0.80885 0.0
C2335 C 0.97608 0.30587 0.82157 0.0
C2336 C 0.94489 0.29173 0.82139 0.0
C2337 C 0.96295 0.32406 0.82155 0.0
C2338 C 0.878 0.35424 0.81396 0.0
H2339 H 0.90989 0.44755 0.82413 0.0
H2340 H 0.9344 0.41569 0.82358 0.0
H2341 H 0.84732 0.37739 0.8078 0.0
H2342 H 0.87553 0.28544 0.82107 0.0
H2343 H 0.85233 0.31767 0.82079 0.0
H2344 H 0.94341 0.35555 0.83281 0.0
C2345 C 0.90065 0.41879 0.8219 0.0
C2346 C 0.86786 0.3728 0.81337 0.0
C2347 C 0.88677 0.43703 0.82215 0.0
C2348 C 0.90014 0.29611 0.8212 0.0
C2349 C 0.88695 0.31445 0.82102 0.0
C2350 C 0.92226 0.36025 0.82735 0.0
C2351 C 0.87111 0.40475 0.81956 0.0
C2352 C 0.88431 0.38525 0.81984 0.0
C2353 C 0.91839 0.3285 0.82123 0.0
C2354 C 0.90535 0.34787 0.82094 0.0
H2355 H 0.78031 0.43034 0.8158 0.0
H2356 H 0.80401 0.3989 0.81563 0.0
H2357 H 0.92417 0.38792 0.83204 0.0
H2358 H 1.01085 0.30291 0.82181 0.0
H2359 H 0.98771 0.33468 0.82165 0.0
C2360 C 0.06098 0.05512 0.5704 0.0
C2361 C 0.09148 0.04077 0.57111 0.0
C2362 C 0.0749 0.07319 0.57016 0.0
C2363 C 0.16346 0.10268 0.56379 0.0
H2364 H 0.11183 0.13692 0.58093 0.0
C2365 C 0.22735 0.1758 0.56786 0.0
C2366 C 0.19768 0.18995 0.56986 0.0
C2367 C 0.21352 0.15771 0.56761 0.0
C2368 C 0.12595 0.12762 0.57599 0.0
H2369 H 0.16053 0.03405 0.57201 0.0
H2370 H 0.18515 0.06607 0.57136 0.0
H2371 H 0.09141 0.10468 0.58153 0.0
H2372 H 0.1299 0.19629 0.57293 0.0
H2373 H 0.10518 0.16447 0.57222 0.0
H2374 H 0.19701 0.12556 0.55804 0.0
C2375 C 0.15042 0.06307 0.57107 0.0
C2376 C 0.11462 0.10917 0.5764 0.0
C2377 C 0.13639 0.04486 0.57146 0.0
C2378 C 0.15349 0.18565 0.5714 0.0
C2379 C 0.13947 0.16745 0.57105 0.0
C2380 C 0.17436 0.12117 0.56328 0.0
C2381 C 0.1196 0.07732 0.57052 0.0
C2382 C 0.1334 0.09659 0.57033 0.0
C2383 C 0.16953 0.15328 0.56925 0.0
C2384 C 0.15591 0.13383 0.56942 0.0
H2385 H 0.02608 0.05248 0.57018 0.0
H2386 H 0.05065 0.08397 0.56964 0.0
H2387 H 0.17773 0.0932 0.55894 0.0
H2388 H 0.26177 0.17857 0.56671 0.0
H2389 H 0.23774 0.14716 0.5664 0.0
C2390 C 0.13524 0.1872 0.6964 0.0
C2391 C 0.0906 0.19133 0.69747 0.0
C2392 C 0.14941 0.169 0.69671 0.0
C2393 C 0.11132 0.12283 0.6923 0.0
H2394 H 0.20243 0.10681 0.70888 0.0
C2395 C 0.15226 0.04642 0.69717 0.0
C2396 C 0.19683 0.04207 0.69804 0.0
C2397 C 0.13871 0.06469 0.69744 0.0
C2398 C 0.17732 0.11109 0.70412 0.0
H2399 H 0.02589 0.17969 0.69973 0.0
H2400 H 0.05067 0.14821 0.70014 0.0
H2401 H 0.1825 0.13912 0.70829 0.0
H2402 H 0.26222 0.05337 0.69971 0.0
H2403 H 0.2389 0.08492 0.69989 0.0
H2404 H 0.10662 0.09502 0.68794 0.0
C2405 C 0.07459 0.15896 0.69908 0.0
C2406 C 0.16602 0.12956 0.7038 0.0
C2407 C 0.06057 0.17703 0.69891 0.0
C2408 C 0.2275 0.05623 0.69915 0.0
C2409 C 0.21411 0.07438 0.69931 0.0
C2410 C 0.12301 0.10441 0.69252 0.0
C2411 C 0.11896 0.15479 0.69793 0.0
C2412 C 0.13282 0.13552 0.69792 0.0
C2413 C 0.16962 0.07886 0.69847 0.0
C2414 C 0.15609 0.09832 0.69845 0.0
H2415 H 0.15905 0.19796 0.69528 0.0
H2416 H 0.18388 0.16599 0.69579 0.0
H2417 H 0.0857 0.12722 0.68767 0.0
H2418 H 0.12795 0.03576 0.69632 0.0
H2419 H 0.10408 0.06771 0.69689 0.0
C2420 C 0.81151 0.80518 0.44838 0.0
C2421 C 0.84186 0.79108 0.44679 0.0
C2422 C 0.82495 0.82332 0.44863 0.0
C2423 C 0.91401 0.85378 0.44127 0.0
H2424 H 0.85825 0.88754 0.4581 0.0
C2425 C 0.97605 0.92652 0.448 0.0
C2426 C 0.94509 0.9407 0.44732 0.0
C2427 C 0.96281 0.90835 0.44788 0.0
C2428 C 0.87367 0.87825 0.45332 0.0
H2429 H 0.91028 0.78489 0.44433 0.0
H2430 H 0.93428 0.81682 0.44505 0.0
H2431 H 0.8391 0.85515 0.45855 0.0
H2432 H 0.87596 0.94701 0.44605 0.0
H2433 H 0.85252 0.91485 0.44606 0.0
H2434 H 0.94952 0.87695 0.43626 0.0
C2435 C 0.89982 0.81375 0.44592 0.0
C2436 C 0.86282 0.85974 0.45356 0.0
C2437 C 0.88621 0.79549 0.44556 0.0
C2438 C 0.90043 0.93634 0.4466 0.0
C2439 C 0.88708 0.91803 0.44662 0.0
C2440 C 0.92528 0.87226 0.44112 0.0
C2441 C 0.8692 0.82785 0.44742 0.0
C2442 C 0.88265 0.84731 0.44749 0.0
C2443 C 0.91833 0.90395 0.44719 0.0
C2444 C 0.90505 0.88461 0.44712 0.0
H2445 H 0.77695 0.80231 0.44925 0.0
H2446 H 0.80034 0.83382 0.44959 0.0
H2447 H 0.92929 0.84465 0.4364 0.0
H2448 H 1.01079 0.92941 0.44849 0.0
H2449 H 0.98738 0.89769 0.44841 0.0
C2450 C 0.90259 0.79388 0.32168 0.0
C2451 C 0.94604 0.78946 0.31946 0.0
C2452 C 0.88873 0.81212 0.32153 0.0
C2453 C 0.92125 0.85831 0.3132 0.0
H2454 H 0.84649 0.87507 0.33287 0.0
C2455 C 0.88919 0.93479 0.32156 0.0
C2456 C 0.84444 0.93916 0.32186 0.0
C2457 C 0.90239 0.91646 0.32124 0.0
C2458 C 0.86741 0.87051 0.32735 0.0
H2459 H 1.0088 0.80064 0.31518 0.0
H2460 H 0.98513 0.8321 0.31517 0.0
H2461 H 0.86571 0.84273 0.33187 0.0
H2462 H 0.77852 0.92795 0.32233 0.0
H2463 H 0.80168 0.89619 0.32192 0.0
H2464 H 0.92361 0.88628 0.30885 0.0
C2465 C 0.96132 0.82163 0.31682 0.0
C2466 C 0.87802 0.852 0.32671 0.0
C2467 C 0.97497 0.80351 0.3169 0.0
C2468 C 0.81327 0.92501 0.32201 0.0
C2469 C 0.82643 0.90683 0.32185 0.0
C2470 C 0.91111 0.87685 0.31393 0.0
C2471 C 0.9182 0.8262 0.31921 0.0
C2472 C 0.90505 0.84569 0.31963 0.0
C2473 C 0.87098 0.9024 0.32142 0.0
C2474 C 0.88403 0.88305 0.32099 0.0
H2475 H 0.87954 0.78334 0.32366 0.0
H2476 H 0.85506 0.8152 0.32327 0.0
H2477 H 0.94156 0.85385 0.30757 0.0
H2478 H 0.91378 0.94547 0.32145 0.0
H2479 H 0.93701 0.91326 0.32093 0.0
C2480 C 0.56241 0.55474 0.57074 0.0
C2481 C 0.59333 0.54051 0.57117 0.0
C2482 C 0.57587 0.57289 0.57069 0.0
C2483 C 0.66395 0.60266 0.56422 0.0
H2484 H 0.61224 0.63682 0.58139 0.0
C2485 C 0.72679 0.67599 0.56801 0.0
C2486 C 0.69678 0.69008 0.56989 0.0
C2487 C 0.71341 0.65784 0.56794 0.0
C2488 C 0.6264 0.62753 0.57645 0.0
H2489 H 0.66257 0.53406 0.57184 0.0
H2490 H 0.68637 0.56618 0.57152 0.0
H2491 H 0.59209 0.60454 0.582 0.0
H2492 H 0.62893 0.69623 0.57298 0.0
H2493 H 0.60499 0.66429 0.57259 0.0
H2494 H 0.69725 0.62559 0.55846 0.0
C2495 C 0.65169 0.56307 0.5713 0.0
C2496 C 0.6152 0.60906 0.57687 0.0
C2497 C 0.63814 0.54478 0.5715 0.0
C2498 C 0.65276 0.68564 0.57153 0.0
C2499 C 0.63919 0.66737 0.57136 0.0
C2500 C 0.67472 0.62117 0.56372 0.0
C2501 C 0.62052 0.5772 0.57096 0.0
C2502 C 0.63401 0.59652 0.57077 0.0
C2503 C 0.66954 0.65327 0.56964 0.0
C2504 C 0.65625 0.63379 0.56987 0.0
H2505 H 0.52758 0.55191 0.57056 0.0
H2506 H 0.55134 0.58359 0.57035 0.0
H2507 H 0.67824 0.59322 0.55937 0.0
H2508 H 0.7611 0.67888 0.5668 0.0
H2509 H 0.73784 0.64735 0.56678 0.0
C2510 C 0.64921 0.54614 0.69661 0.0
C2511 C 0.69395 0.54173 0.69652 0.0
C2512 C 0.63608 0.56449 0.69676 0.0
C2513 C 0.67182 0.61019 0.69043 0.0
H2514 H 0.59587 0.62756 0.70975 0.0
C2515 C 0.63568 0.68702 0.69529 0.0
C2516 C 0.592 0.69144 0.69731 0.0
C2517 C 0.64967 0.6688 0.69563 0.0
C2518 C 0.6167 0.6229 0.70424 0.0
H2519 H 0.75997 0.55289 0.69627 0.0
H2520 H 0.73693 0.58466 0.69638 0.0
H2521 H 0.61393 0.59509 0.70884 0.0
H2522 H 0.52892 0.68027 0.7014 0.0
H2523 H 0.55282 0.64887 0.70172 0.0
H2524 H 0.67391 0.6378 0.68566 0.0
C2525 C 0.71213 0.57405 0.69642 0.0
C2526 C 0.62689 0.60434 0.70373 0.0
C2527 C 0.7252 0.55586 0.69643 0.0
C2528 C 0.56293 0.67742 0.69984 0.0
C2529 C 0.57671 0.65932 0.70009 0.0
C2530 C 0.66114 0.62872 0.69085 0.0
C2531 C 0.66758 0.57852 0.69662 0.0
C2532 C 0.65458 0.59789 0.69684 0.0
C2533 C 0.6201 0.65475 0.69794 0.0
C2534 C 0.63344 0.63528 0.69776 0.0
H2535 H 0.62455 0.53549 0.69667 0.0
H2536 H 0.60145 0.56773 0.69689 0.0
H2537 H 0.69323 0.60543 0.68503 0.0
H2538 H 0.65882 0.69755 0.69334 0.0
H2539 H 0.68352 0.66572 0.69405 0.0
C2540 C 0.47725 0.42626 0.44967 0.0
C2541 C 0.44743 0.44048 0.4479 0.0
C2542 C 0.46328 0.4082 0.44999 0.0
C2543 C 0.37411 0.37823 0.44226 0.0
H2544 H 0.42846 0.34385 0.45899 0.0
C2545 C 0.31023 0.30567 0.44825 0.0
C2546 C 0.3407 0.29135 0.44734 0.0
C2547 C 0.32407 0.32375 0.44843 0.0
C2548 C 0.41345 0.35331 0.45424 0.0
H2549 H 0.3793 0.44697 0.44528 0.0
H2550 H 0.35434 0.41518 0.44611 0.0
H2551 H 0.44795 0.3762 0.45974 0.0
H2552 H 0.40963 0.28471 0.44603 0.0
H2553 H 0.43415 0.31675 0.44656 0.0
H2554 H 0.33867 0.35528 0.43698 0.0
C2555 C 0.38883 0.41809 0.44706 0.0
C2556 C 0.42447 0.37181 0.45465 0.0
C2557 C 0.40299 0.43628 0.44664 0.0
C2558 C 0.38552 0.29549 0.44674 0.0
C2559 C 0.39949 0.31372 0.44706 0.0
C2560 C 0.36267 0.35978 0.44195 0.0
C2561 C 0.419 0.40386 0.44866 0.0
C2562 C 0.40515 0.38445 0.44862 0.0
C2563 C 0.36868 0.32793 0.4478 0.0
C2564 C 0.38239 0.34721 0.44791 0.0
H2565 H 0.51186 0.42896 0.4506 0.0
H2566 H 0.48756 0.39761 0.45104 0.0
H2567 H 0.35926 0.38752 0.43741 0.0
H2568 H 0.27539 0.303 0.44868 0.0
H2569 H 0.29985 0.33451 0.4491 0.0
C2570 C 0.4771 0.30376 0.31769 0.0
C2571 C 0.44787 0.28957 0.31989 0.0
C2572 C 0.46296 0.3218 0.31742 0.0
C2573 C 0.37595 0.35186 0.32609 0.0
H2574 H 0.42568 0.38607 0.30868 0.0
C2575 C 0.31117 0.4246 0.3206 0.0
C2576 C 0.34211 0.43883 0.32092 0.0
C2577 C 0.32463 0.40645 0.32046 0.0
C2578 C 0.41197 0.37665 0.31362 0.0
H2579 H 0.3805 0.28311 0.32328 0.0
H2580 H 0.35523 0.31485 0.32255 0.0
H2581 H 0.44488 0.35371 0.30777 0.0
H2582 H 0.41139 0.4453 0.32132 0.0
H2583 H 0.43518 0.41317 0.32086 0.0
H2584 H 0.34206 0.37486 0.33173 0.0
C2585 C 0.38944 0.31194 0.32123 0.0
C2586 C 0.42283 0.35816 0.31311 0.0
C2587 C 0.40377 0.29378 0.32159 0.0
C2588 C 0.38694 0.43457 0.32106 0.0
C2589 C 0.40048 0.41629 0.32078 0.0
C2590 C 0.36463 0.37031 0.3265 0.0
C2591 C 0.41908 0.32616 0.31924 0.0
C2592 C 0.4052 0.34557 0.31939 0.0
C2593 C 0.36929 0.40215 0.32054 0.0
C2594 C 0.38274 0.38283 0.3203 0.0
H2595 H 0.51143 0.30106 0.3164 0.0
H2596 H 0.48689 0.33239 0.31605 0.0
H2597 H 0.36245 0.34261 0.33113 0.0
H2598 H 0.27633 0.42743 0.32056 0.0
H2599 H 0.30007 0.39576 0.32021 0.0
C2600 C 0.63559 0.04487 0.0722 0.0
C2601 C 0.59099 0.04077 0.07101 0.0
C2602 C 0.64979 0.06307 0.07199 0.0
C2603 C 0.61153 0.10922 0.07644 0.0
H2604 H 0.70325 0.1254 0.06006 0.0
C2605 C 0.65194 0.1857 0.0716 0.0
C2606 C 0.69648 0.19014 0.0708 0.0
C2607 C 0.63861 0.16739 0.07134 0.0
C2608 C 0.67797 0.12107 0.06476 0.0
H2609 H 0.5264 0.05248 0.06865 0.0
H2610 H 0.55125 0.08395 0.06842 0.0
H2611 H 0.68345 0.09307 0.06057 0.0
H2612 H 0.76207 0.17895 0.06928 0.0
H2613 H 0.73913 0.14735 0.06914 0.0
H2614 H 0.60647 0.13701 0.08082 0.0
C2615 C 0.5751 0.07317 0.06949 0.0
C2616 C 0.66674 0.10259 0.06504 0.0
C2617 C 0.56105 0.05511 0.06956 0.0
C2618 C 0.72736 0.17603 0.06978 0.0
C2619 C 0.7142 0.15785 0.06965 0.0
C2620 C 0.62313 0.12765 0.07627 0.0
C2621 C 0.61942 0.07731 0.07076 0.0
C2622 C 0.6333 0.09658 0.07084 0.0
C2623 C 0.66972 0.15328 0.0704 0.0
C2624 C 0.65641 0.1338 0.07041 0.0
H2625 H 0.65932 0.03409 0.07333 0.0
H2626 H 0.68422 0.06606 0.07299 0.0
H2627 H 0.58571 0.10479 0.08101 0.0
H2628 H 0.62747 0.19632 0.07237 0.0
H2629 H 0.604 0.16432 0.07184 0.0
C2630 C 0.63884 0.18529 0.19689 0.0
C2631 C 0.59407 0.1896 0.1965 0.0
C2632 C 0.65216 0.16697 0.19719 0.0
C2633 C 0.61787 0.12105 0.19087 0.0
H2634 H 0.69096 0.10425 0.2108 0.0
C2635 C 0.65359 0.04443 0.19632 0.0
C2636 C 0.69701 0.04007 0.1986 0.0
C2637 C 0.63944 0.06263 0.19655 0.0
C2638 C 0.67095 0.10875 0.20513 0.0
H2639 H 0.52826 0.17831 0.19584 0.0
H2640 H 0.55164 0.14658 0.19622 0.0
H2641 H 0.67283 0.13667 0.20957 0.0
H2642 H 0.75937 0.05132 0.2031 0.0
H2643 H 0.73523 0.08271 0.20323 0.0
H2644 H 0.61668 0.09334 0.18626 0.0
C2645 C 0.5763 0.15724 0.19638 0.0
C2646 C 0.66071 0.12728 0.20444 0.0
C2647 C 0.56302 0.17541 0.19623 0.0
C2648 C 0.72559 0.05413 0.20132 0.0
C2649 C 0.71166 0.07221 0.20147 0.0
C2650 C 0.62859 0.10256 0.19148 0.0
C2651 C 0.62086 0.15287 0.19691 0.0
C2652 C 0.63403 0.13354 0.19732 0.0
C2653 C 0.6686 0.07673 0.199 0.0
C2654 C 0.65525 0.09619 0.19862 0.0
H2655 H 0.66334 0.196 0.19708 0.0
H2656 H 0.68678 0.16381 0.19758 0.0
H2657 H 0.59726 0.12566 0.18531 0.0
H2658 H 0.6308 0.03387 0.19422 0.0
H2659 H 0.60582 0.06566 0.19474 0.0
C2660 C 0.31088 0.80421 0.94836 0.0
C2661 C 0.34093 0.78987 0.94708 0.0
C2662 C 0.32509 0.82222 0.94886 0.0
C2663 C 0.41732 0.85198 0.94264 0.0
H2664 H 0.35772 0.88623 0.95865 0.0
C2665 C 0.47883 0.92467 0.94943 0.0
C2666 C 0.44851 0.9389 0.94804 0.0
C2667 C 0.46518 0.90655 0.94953 0.0
C2668 C 0.37427 0.8768 0.9541 0.0
H2669 H 0.4096 0.78311 0.94544 0.0
H2670 H 0.43491 0.81483 0.94659 0.0
H2671 H 0.33772 0.85391 0.95898 0.0
H2672 H 0.37996 0.94533 0.94586 0.0
H2673 H 0.35577 0.91326 0.94623 0.0
H2674 H 0.45468 0.87494 0.93799 0.0
C2675 C 0.40013 0.81205 0.94703 0.0
C2676 C 0.36294 0.85833 0.95428 0.0
C2677 C 0.38575 0.79391 0.94642 0.0
C2678 C 0.40397 0.93463 0.94694 0.0
C2679 C 0.39017 0.91638 0.94717 0.0
C2680 C 0.42905 0.87041 0.94257 0.0
C2681 C 0.36981 0.82639 0.94821 0.0
C2682 C 0.38406 0.84574 0.94848 0.0
C2683 C 0.4209 0.90225 0.94834 0.0
C2684 C 0.40742 0.88294 0.94826 0.0
H2685 H 0.27599 0.80164 0.94878 0.0
H2686 H 0.30074 0.83291 0.94954 0.0
H2687 H 0.43367 0.84273 0.93799 0.0
H2688 H 0.51346 0.92743 0.95027 0.0
H2689 H 0.48932 0.89586 0.95054 0.0
C2690 C 0.40204 0.79611 0.82102 0.0
C2691 C 0.44651 0.79172 0.81999 0.0
C2692 C 0.38858 0.81439 0.82084 0.0
C2693 C 0.42679 0.86083 0.81415 0.0
H2694 H 0.33684 0.87684 0.83101 0.0
C2695 C 0.38549 0.93692 0.82208 0.0
C2696 C 0.34077 0.94103 0.82116 0.0
C2697 C 0.39964 0.91871 0.82175 0.0
C2698 C 0.362 0.87249 0.82627 0.0
H2699 H 0.5118 0.80298 0.81809 0.0
H2700 H 0.48863 0.83455 0.81807 0.0
H2701 H 0.3576 0.84463 0.83058 0.0
H2702 H 0.27585 0.92937 0.81919 0.0
H2703 H 0.3006 0.89789 0.81875 0.0
H2704 H 0.43166 0.8889 0.81003 0.0
C2705 C 0.46384 0.82403 0.81872 0.0
C2706 C 0.37359 0.85406 0.82596 0.0
C2707 C 0.47714 0.80586 0.81878 0.0
C2708 C 0.31061 0.92672 0.81988 0.0
C2709 C 0.32461 0.90865 0.81969 0.0
C2710 C 0.41559 0.87931 0.81457 0.0
C2711 C 0.41946 0.82854 0.81974 0.0
C2712 C 0.40606 0.84801 0.81987 0.0
C2713 C 0.36909 0.90449 0.82067 0.0
C2714 C 0.38298 0.88522 0.8206 0.0
H2715 H 0.37775 0.78546 0.82195 0.0
H2716 H 0.35402 0.81744 0.82154 0.0
H2717 H 0.45142 0.85659 0.80928 0.0
H2718 H 0.40939 0.94769 0.82307 0.0
H2719 H 0.43419 0.91571 0.82253 0.0
C2720 C 0.70498 0.47825 0.06767 0.0
C2721 C 0.72749 0.49069 0.07329 0.0
C2722 C 0.65926 0.47681 0.06805 0.0
C2723 C 0.56301 0.48782 0.08259 0.0
H2724 H 0.49835 0.48253 0.05998 0.0
C2725 C 0.37413 0.49408 0.08123 0.0
C2726 C 0.35128 0.48168 0.07563 0.0
C2727 C 0.41988 0.49526 0.08086 0.0
C2728 C 0.51587 0.4838 0.06637 0.0
H2729 H 0.71921 0.51143 0.08373 0.0
H2730 H 0.63966 0.50895 0.0844 0.0
H2731 H 0.57811 0.48402 0.05964 0.0
H2732 H 0.35906 0.46074 0.06528 0.0
H2733 H 0.4387 0.4628 0.06464 0.0
H2734 H 0.50076 0.48762 0.08932 0.0
C2735 C 0.65738 0.50007 0.07978 0.0
C2736 C 0.5617 0.48464 0.06618 0.0
C2737 C 0.70309 0.50149 0.0794 0.0
C2738 C 0.37543 0.47066 0.06958 0.0
C2739 C 0.42119 0.47183 0.06922 0.0
C2740 C 0.51718 0.48699 0.08279 0.0
C2741 C 0.63478 0.4878 0.07406 0.0
C2742 C 0.58592 0.48668 0.07429 0.0
C2743 C 0.44408 0.48406 0.0749 0.0
C2744 C 0.49296 0.48499 0.07468 0.0
H2745 H 0.72273 0.46953 0.06298 0.0
H2746 H 0.64311 0.46698 0.06367 0.0
H2747 H 0.58052 0.4891 0.08899 0.0
H2748 H 0.35661 0.50298 0.08587 0.0
H2749 H 0.43628 0.50508 0.08521 0.0
C2750 C 0.57858 0.73323 0.07817 0.0
C2751 C 0.55503 0.74247 0.07133 0.0
C2752 C 0.62429 0.73449 0.07862 0.0
C2753 C 0.72145 0.74573 0.0645 0.0
H2754 H 0.7806 0.74825 0.08786 0.0
C2755 C 0.90808 0.75919 0.06777 0.0
C2756 C 0.93116 0.74954 0.07455 0.0
C2757 C 0.86231 0.75825 0.06728 0.0
C2758 C 0.76466 0.74733 0.08128 0.0
H2759 H 0.56126 0.76075 0.05976 0.0
H2760 H 0.6409 0.76306 0.06058 0.0
H2761 H 0.70083 0.74728 0.08733 0.0
H2762 H 0.92396 0.73085 0.08593 0.0
H2763 H 0.84429 0.72919 0.08506 0.0
H2764 H 0.78533 0.74581 0.05845 0.0
C2765 C 0.62409 0.75453 0.0655 0.0
C2766 C 0.71884 0.74679 0.08097 0.0
C2767 C 0.57837 0.75324 0.06504 0.0
C2768 C 0.90727 0.7387 0.08072 0.0
C2769 C 0.86153 0.73777 0.08023 0.0
C2770 C 0.76729 0.7463 0.0648 0.0
C2771 C 0.64772 0.74505 0.07225 0.0
C2772 C 0.69658 0.74595 0.07258 0.0
C2773 C 0.83839 0.74765 0.07355 0.0
C2774 C 0.78952 0.74706 0.0732 0.0
H2775 H 0.56179 0.72457 0.08304 0.0
H2776 H 0.64135 0.72678 0.08384 0.0
H2777 H 0.70553 0.74478 0.05791 0.0
H2778 H 0.92527 0.7679 0.06299 0.0
H2779 H 0.8456 0.76623 0.06212 0.0
C2780 C 0.70897 0.7389 0.20326 0.0
C2781 C 0.73456 0.74237 0.19547 0.0
C2782 C 0.66329 0.74033 0.20292 0.0
C2783 C 0.57056 0.73953 0.18666 0.0
H2784 H 0.50534 0.76011 0.2069 0.0
C2785 C 0.38475 0.75413 0.18446 0.0
C2786 C 0.35892 0.75025 0.19217 0.0
C2787 C 0.43045 0.75318 0.18491 0.0
C2788 C 0.52301 0.75413 0.20123 0.0
H2789 H 0.73197 0.75058 0.18127 0.0
H2790 H 0.65233 0.75311 0.18068 0.0
H2791 H 0.58515 0.75894 0.20759 0.0
H2792 H 0.36123 0.74205 0.20638 0.0
H2793 H 0.44102 0.74038 0.20716 0.0
H2794 H 0.50848 0.7347 0.18031 0.0
C2795 C 0.66758 0.74898 0.18702 0.0
C2796 C 0.56881 0.75347 0.20162 0.0
C2797 C 0.71328 0.74755 0.18736 0.0
C2798 C 0.38007 0.74535 0.20034 0.0
C2799 C 0.42585 0.74441 0.20079 0.0
C2800 C 0.52479 0.74019 0.18627 0.0
C2801 C 0.64196 0.74525 0.19478 0.0
C2802 C 0.59319 0.74617 0.19434 0.0
C2803 C 0.45163 0.74834 0.19308 0.0
C2804 C 0.5004 0.7475 0.19355 0.0
H2805 H 0.72413 0.73458 0.20958 0.0
H2806 H 0.64462 0.73711 0.20899 0.0
H2807 H 0.58818 0.73352 0.181 0.0
H2808 H 0.36969 0.7583 0.17811 0.0
H2809 H 0.44924 0.7566 0.17889 0.0
C2810 C 0.91422 0.49318 0.18618 0.0
C2811 C 0.93732 0.48141 0.19206 0.0
C2812 C 0.86846 0.49434 0.18657 0.0
C2813 C 0.77296 0.48431 0.20146 0.0
H2814 H 0.70762 0.48711 0.17882 0.0
C2815 C 0.58391 0.47831 0.20057 0.0
C2816 C 0.56106 0.49011 0.19467 0.0
C2817 C 0.62962 0.47691 0.20016 0.0
C2818 C 0.72532 0.48654 0.18521 0.0
H2819 H 0.92998 0.46158 0.20296 0.0
H2820 H 0.85034 0.46363 0.20365 0.0
H2821 H 0.78738 0.48573 0.17842 0.0
H2822 H 0.56876 0.50971 0.18368 0.0
H2823 H 0.64831 0.50729 0.18295 0.0
H2824 H 0.71092 0.48515 0.20825 0.0
C2825 C 0.86766 0.47217 0.19881 0.0
C2826 C 0.77115 0.48576 0.18499 0.0
C2827 C 0.91342 0.47102 0.19843 0.0
C2828 C 0.58513 0.50027 0.18824 0.0
C2829 C 0.63085 0.49889 0.18783 0.0
C2830 C 0.72713 0.4851 0.20169 0.0
C2831 C 0.84451 0.48376 0.19285 0.0
C2832 C 0.79562 0.48465 0.1931 0.0
C2833 C 0.65378 0.48729 0.19383 0.0
C2834 C 0.70265 0.48624 0.19357 0.0
H2835 H 0.93154 0.5016 0.18129 0.0
H2836 H 0.85187 0.50366 0.18198 0.0
H2837 H 0.79067 0.48374 0.20785 0.0
H2838 H 0.56642 0.47007 0.20552 0.0
H2839 H 0.64602 0.46758 0.20477 0.0
C2840 C 0.65955 0.50825 0.9495 0.0
C2841 C 0.68268 0.49838 0.94282 0.0
C2842 C 0.6138 0.50721 0.95003 0.0
C2843 C 0.51869 0.47892 0.94287 0.0
H2844 H 0.45263 0.52331 0.9474 0.0
C2845 C 0.33018 0.4815 0.93918 0.0
C2846 C 0.30661 0.4911 0.94589 0.0
C2847 C 0.37592 0.48262 0.93878 0.0
C2848 C 0.47057 0.51075 0.94623 0.0
H2849 H 0.6756 0.47929 0.93159 0.0
H2850 H 0.59594 0.4777 0.93241 0.0
H2851 H 0.53246 0.52447 0.94695 0.0
H2852 H 0.31285 0.50982 0.95729 0.0
H2853 H 0.39262 0.51164 0.95665 0.0
H2854 H 0.45681 0.4652 0.94213 0.0
C2855 C 0.61316 0.48616 0.9373 0.0
C2856 C 0.5164 0.5114 0.94598 0.0
C2857 C 0.65888 0.48722 0.93677 0.0
C2858 C 0.32995 0.50211 0.95209 0.0
C2859 C 0.3757 0.50329 0.95166 0.0
C2860 C 0.47288 0.47827 0.94312 0.0
C2861 C 0.58996 0.49625 0.94389 0.0
C2862 C 0.5411 0.4955 0.94429 0.0
C2863 C 0.39933 0.49342 0.94505 0.0
C2864 C 0.44818 0.49417 0.94478 0.0
H2865 H 0.67669 0.51713 0.95422 0.0
H2866 H 0.59712 0.515 0.95526 0.0
H2867 H 0.53659 0.46634 0.9417 0.0
H2868 H 0.31338 0.47273 0.93436 0.0
H2869 H 0.39296 0.47502 0.93352 0.0
C2870 C 0.46053 0.23266 0.93776 0.0
C2871 C 0.48204 0.23749 0.9459 0.0
C2872 C 0.41482 0.23121 0.93747 0.0
C2873 C 0.31483 0.24664 0.94949 0.0
H2874 H 0.25866 0.20784 0.93577 0.0
C2875 C 0.12751 0.23404 0.95082 0.0
C2876 C 0.10644 0.22936 0.94261 0.0
C2877 C 0.17327 0.23496 0.9513 0.0
C2878 C 0.27379 0.21889 0.93955 0.0
H2879 H 0.47204 0.24459 0.96011 0.0
H2880 H 0.39256 0.24171 0.95964 0.0
H2881 H 0.3384 0.20927 0.93648 0.0
H2882 H 0.11735 0.22183 0.92848 0.0
H2883 H 0.19687 0.22385 0.92926 0.0
H2884 H 0.25025 0.2563 0.95254 0.0
C2885 C 0.411 0.23922 0.95345 0.0
C2886 C 0.31956 0.2197 0.93996 0.0
C2887 C 0.45668 0.24063 0.95375 0.0
C2888 C 0.13235 0.22571 0.93488 0.0
C2889 C 0.17806 0.22662 0.93536 0.0
C2890 C 0.26906 0.24584 0.94908 0.0
C2891 C 0.38944 0.2346 0.94529 0.0
C2892 C 0.34068 0.2336 0.94493 0.0
C2893 C 0.19916 0.2312 0.94358 0.0
C2894 C 0.24793 0.23197 0.94409 0.0
H2895 H 0.47903 0.22999 0.9316 0.0
H2896 H 0.39931 0.22777 0.93105 0.0
H2897 H 0.32996 0.2577 0.95326 0.0
H2898 H 0.10862 0.23708 0.95688 0.0
H2899 H 0.18839 0.23836 0.95776 0.0
C2900 C 0.66066 0.23991 0.81794 0.0
C2901 C 0.68075 0.23077 0.82528 0.0
C2902 C 0.61493 0.24092 0.8173 0.0
C2903 C 0.51323 0.21858 0.82559 0.0
H2904 H 0.45797 0.26373 0.81783 0.0
C2905 C 0.3257 0.23025 0.82801 0.0
C2906 C 0.30529 0.23969 0.82081 0.0
C2907 C 0.37143 0.22885 0.82843 0.0
C2908 C 0.47284 0.25093 0.8199 0.0
H2909 H 0.66812 0.21527 0.83762 0.0
H2910 H 0.58869 0.21737 0.83661 0.0
H2911 H 0.53758 0.26198 0.81875 0.0
H2912 H 0.31735 0.25517 0.80843 0.0
H2913 H 0.39675 0.25238 0.80906 0.0
H2914 H 0.44847 0.20754 0.82676 0.0
C2915 C 0.60823 0.22364 0.8313 0.0
C2916 C 0.51856 0.24994 0.82043 0.0
C2917 C 0.65389 0.22265 0.83194 0.0
C2918 C 0.33181 0.24759 0.81402 0.0
C2919 C 0.37747 0.2462 0.81445 0.0
C2920 C 0.4675 0.21958 0.82506 0.0
C2921 C 0.58811 0.23276 0.82397 0.0
C2922 C 0.53938 0.23376 0.8233 0.0
C2923 C 0.39793 0.23689 0.82168 0.0
C2924 C 0.44668 0.23577 0.82222 0.0
H2925 H 0.68027 0.24643 0.81272 0.0
H2926 H 0.60059 0.2479 0.81151 0.0
H2927 H 0.52812 0.2058 0.82768 0.0
H2928 H 0.30634 0.22386 0.83331 0.0
H2929 H 0.38603 0.22172 0.83415 0.0
C2930 C 0.12695 0.48884 0.83173 0.0
C2931 C 0.10386 0.50034 0.82572 0.0
C2932 C 0.1727 0.48764 0.83135 0.0
C2933 C 0.27074 0.51286 0.82325 0.0
H2934 H 0.329 0.46623 0.82667 0.0
C2935 C 0.45705 0.50308 0.8172 0.0
C2936 C 0.48009 0.49158 0.82323 0.0
C2937 C 0.41133 0.50444 0.81764 0.0
C2938 C 0.31332 0.47941 0.82581 0.0
H2939 H 0.1112 0.51959 0.81456 0.0
H2940 H 0.19079 0.51722 0.81378 0.0
H2941 H 0.24924 0.46771 0.82698 0.0
H2942 H 0.47274 0.47257 0.83448 0.0
H2943 H 0.3932 0.47519 0.83534 0.0
H2944 H 0.33486 0.52454 0.82206 0.0
C2945 C 0.17353 0.50927 0.81887 0.0
C2946 C 0.2675 0.48026 0.82598 0.0
C2947 C 0.12777 0.51044 0.81924 0.0
C2948 C 0.4562 0.4817 0.82979 0.0
C2949 C 0.41047 0.48302 0.83021 0.0
C2950 C 0.31658 0.51201 0.82307 0.0
C2951 C 0.19667 0.49793 0.82496 0.0
C2952 C 0.24555 0.49699 0.8247 0.0
C2953 C 0.38737 0.4943 0.82409 0.0
C2954 C 0.33851 0.49527 0.82435 0.0
H2955 H 0.10964 0.48073 0.83675 0.0
H2956 H 0.18935 0.47888 0.8362 0.0
H2957 H 0.25507 0.52604 0.82239 0.0
H2958 H 0.47438 0.51103 0.81212 0.0
H2959 H 0.39469 0.51316 0.81277 0.0
C2960 C 0.3782 0.98055 0.58385 0.0
C2961 C 0.35321 0.98109 0.57579 0.0
C2962 C 0.42394 0.98161 0.58354 0.0
C2963 C 0.51636 -0.00411 0.56874 0.0
H2964 H 0.58471 0.96485 0.5848 0.0
C2965 C 0.70463 0.98973 0.56551 0.0
C2966 C 0.72908 0.98971 0.57365 0.0
C2967 C 0.65893 0.98825 0.56571 0.0
C2968 C 0.56614 0.97375 0.58033 0.0
H2969 H 0.35705 0.98351 0.56107 0.0
H2970 H 0.43683 0.98506 0.56051 0.0
H2971 H 0.50494 0.96343 0.58526 0.0
H2972 H 0.72447 0.98767 0.58837 0.0
H2973 H 0.64475 0.98531 0.58872 0.0
H2974 H 0.57759 0.00621 0.56381 0.0
C2975 C 0.421 0.98397 0.5671 0.0
C2976 C 0.52034 0.97295 0.5806 0.0
C2977 C 0.37522 0.98289 0.56741 0.0
C2978 C 0.70667 0.9879 0.58198 0.0
C2979 C 0.66096 0.98636 0.58217 0.0
C2980 C 0.56216 -0.00332 0.56847 0.0
C2981 C 0.44599 0.98324 0.57515 0.0
C2982 C 0.49482 0.98404 0.57483 0.0
C2983 C 0.63646 0.98667 0.57404 0.0
C2984 C 0.58766 0.98564 0.57427 0.0
H2985 H 0.36247 0.97895 0.59042 0.0
H2986 H 0.44204 0.98123 0.58989 0.0
H2987 H 0.49782 0.00483 0.56429 0.0
H2988 H 0.72072 -0.0087 0.55898 0.0
H2989 H 0.64119 0.98832 0.55931 0.0
C2990 C 0.58485 0.22914 0.57915 0.0
C2991 C 0.56047 0.24007 0.5731 0.0
C2992 C 0.63057 0.2305 0.57953 0.0
C2993 C 0.72622 0.24607 0.56599 0.0
H2994 H 0.78731 0.24267 0.58911 0.0
C2995 C 0.91252 0.25994 0.56942 0.0
C2996 C 0.93669 0.24882 0.57543 0.0
C2997 C 0.86675 0.25877 0.56906 0.0
C2998 C 0.77085 0.24343 0.58258 0.0
H2999 H 0.56528 0.26143 0.56288 0.0
H3000 H 0.64492 0.26388 0.56357 0.0
H3001 H 0.70755 0.24126 0.58878 0.0
H3002 H 0.93143 0.22736 0.58558 0.0
H3003 H 0.85174 0.22528 0.58493 0.0
H3004 H 0.78954 0.24824 0.55979 0.0
C3005 C 0.62874 0.25398 0.56791 0.0
C3006 C 0.72502 0.24263 0.58239 0.0
C3007 C 0.58302 0.2526 0.56753 0.0
C3008 C 0.91388 0.23633 0.58097 0.0
C3009 C 0.86812 0.23516 0.58061 0.0
C3010 C 0.77206 0.24687 0.56618 0.0
C3011 C 0.65319 0.24285 0.57387 0.0
C3012 C 0.70206 0.24393 0.57409 0.0
C3013 C 0.84389 0.24645 0.57469 0.0
C3014 C 0.79501 0.24554 0.57447 0.0
H3015 H 0.5687 0.21913 0.58344 0.0
H3016 H 0.64827 0.22152 0.58411 0.0
H3017 H 0.70977 0.2468 0.55945 0.0
H3018 H 0.92886 0.26992 0.56515 0.0
H3019 H 0.84922 0.26787 0.56451 0.0
C3020 C 0.70524 0.25404 0.70021 0.0
C3021 C 0.72776 0.24168 0.69454 0.0
C3022 C 0.65952 0.25546 0.69983 0.0
C3023 C 0.56325 0.2446 0.68525 0.0
H3024 H 0.49864 0.24952 0.70788 0.0
C3025 C 0.37444 0.23812 0.68659 0.0
C3026 C 0.35154 0.25044 0.69221 0.0
C3027 C 0.4202 0.23697 0.68696 0.0
C3028 C 0.51615 0.24835 0.70148 0.0
H3029 H 0.71949 0.22109 0.68403 0.0
H3030 H 0.63994 0.22354 0.68337 0.0
H3031 H 0.57841 0.24809 0.70821 0.0
H3032 H 0.35922 0.27128 0.70262 0.0
H3033 H 0.43888 0.26927 0.70327 0.0
H3034 H 0.50098 0.24482 0.67852 0.0
C3035 C 0.65765 0.23237 0.68802 0.0
C3036 C 0.56198 0.24755 0.70167 0.0
C3037 C 0.70337 0.23097 0.68839 0.0
C3038 C 0.37564 0.26142 0.6983 0.0
C3039 C 0.4214 0.26028 0.69866 0.0
C3040 C 0.51743 0.24539 0.68506 0.0
C3041 C 0.63505 0.24454 0.69378 0.0
C3042 C 0.58618 0.24564 0.69356 0.0
C3043 C 0.44435 0.24813 0.69296 0.0
C3044 C 0.49323 0.24725 0.69317 0.0
H3045 H 0.72299 0.2627 0.70493 0.0
H3046 H 0.64336 0.26522 0.70425 0.0
H3047 H 0.58074 0.24342 0.67885 0.0
H3048 H 0.35697 0.22925 0.68193 0.0
H3049 H 0.43665 0.22722 0.68258 0.0
C3050 C 0.90648 0.97459 0.68608 0.0
C3051 C 0.93319 0.98169 0.69306 0.0
C3052 C 0.86082 0.97556 0.68669 0.0
C3053 C 0.771 0.00032 0.69836 0.0
H3054 H 0.70092 0.95899 0.69046 0.0
C3055 C 0.58412 -0.00287 0.70447 0.0
C3056 C 0.55776 0.9903 0.69737 0.0
C3057 C 0.62978 -0.00422 0.70405 0.0
C3058 C 0.71995 0.97073 0.6926 0.0
H3059 H 0.93246 -0.00446 0.70614 0.0
H3060 H 0.85276 -0.00305 0.70728 0.0
H3061 H 0.78058 0.95733 0.68957 0.0
H3062 H 0.55907 0.97641 0.6843 0.0
H3063 H 0.63878 0.97432 0.68349 0.0
H3064 H 0.71038 0.01374 0.70138 0.0
C3065 C 0.86722 -0.00921 0.70128 0.0
C3066 C 0.76568 0.96979 0.69209 0.0
C3067 C 0.91296 0.98981 0.70067 0.0
C3068 C 0.57832 0.98195 0.68986 0.0
C3069 C 0.62404 0.98058 0.68944 0.0
C3070 C 0.72527 0.00127 0.69887 0.0
C3071 C 0.84055 0.98364 0.69431 0.0
C3072 C 0.79182 0.98458 0.69495 0.0
C3073 C 0.65038 0.98757 0.69651 0.0
C3074 C 0.69913 0.98649 0.69599 0.0
H3075 H 0.92083 0.96801 0.68018 0.0
H3076 H 0.84139 0.97009 0.68115 0.0
H3077 H 0.79001 0.01208 0.70048 0.0
H3078 H 0.56953 0.00386 0.71031 0.0
H3079 H 0.64895 0.00111 0.70967 0.0
C3080 C 0.65817 0.01012 0.44986 0.0
C3081 C 0.68144 0.00016 0.44323 0.0
C3082 C 0.6124 0.00915 0.45033 0.0
C3083 C 0.51501 -0.00268 0.43641 0.0
H3084 H 0.45566 -0.00405 0.45976 0.0
C3085 C 0.32898 0.98314 0.43959 0.0
C3086 C 0.3053 -0.00728 0.44629 0.0
C3087 C 0.37469 0.98443 0.43915 0.0
C3088 C 0.47163 -0.00343 0.45318 0.0
H3089 H 0.67457 0.98089 0.43207 0.0
H3090 H 0.5949 0.97915 0.4329 0.0
H3091 H 0.53544 -0.00293 0.45926 0.0
H3092 H 0.31129 0.01164 0.45761 0.0
H3093 H 0.39092 0.01399 0.45681 0.0
H3094 H 0.45125 -0.00316 0.43032 0.0
C3095 C 0.61199 0.988 0.43764 0.0
C3096 C 0.51747 -0.00282 0.45289 0.0
C3097 C 0.65773 0.98898 0.43717 0.0
C3098 C 0.3285 0.00386 0.45245 0.0
C3099 C 0.37422 0.00518 0.452 0.0
C3100 C 0.46919 -0.00327 0.43669 0.0
C3101 C 0.58866 -0.00182 0.44418 0.0
C3102 C 0.53979 -0.00247 0.4445 0.0
C3103 C 0.39799 -0.00463 0.44539 0.0
C3104 C 0.44685 -0.0037 0.44508 0.0
H3105 H 0.67522 0.0191 0.45454 0.0
H3106 H 0.59555 0.01736 0.45537 0.0
H3107 H 0.53101 -0.0021 0.42982 0.0
H3108 H 0.31231 0.9742 0.43483 0.0
H3109 H 0.39186 0.97647 0.43405 0.0
C3110 C 0.45946 0.73295 0.43763 0.0
C3111 C 0.48062 0.7391 0.44558 0.0
C3112 C 0.41374 0.73153 0.4373 0.0
C3113 C 0.31328 0.74901 0.44845 0.0
H3114 H 0.25751 0.7081 0.43626 0.0
C3115 C 0.12581 0.73683 0.44991 0.0
C3116 C 0.10511 0.73087 0.44187 0.0
C3117 C 0.17156 0.73775 0.45045 0.0
C3118 C 0.27253 0.71973 0.43961 0.0
H3119 H 0.46998 0.74862 0.45942 0.0
H3120 H 0.39052 0.74579 0.4589 0.0
H3121 H 0.33722 0.7096 0.43705 0.0
H3122 H 0.11666 0.72103 0.42812 0.0
H3123 H 0.19614 0.72305 0.42899 0.0
H3124 H 0.24862 0.75917 0.45098 0.0
C3125 C 0.40923 0.74223 0.45288 0.0
C3126 C 0.31828 0.72058 0.44006 0.0
C3127 C 0.4549 0.74362 0.45322 0.0
C3128 C 0.13137 0.72592 0.43438 0.0
C3129 C 0.17706 0.72683 0.43492 0.0
C3130 C 0.26753 0.74816 0.44799 0.0
C3131 C 0.38801 0.73627 0.4449 0.0
C3132 C 0.33926 0.73525 0.44448 0.0
C3133 C 0.19779 0.73271 0.44297 0.0
C3134 C 0.24654 0.73353 0.44355 0.0
H3135 H 0.47823 0.72919 0.43165 0.0
H3136 H 0.39851 0.72704 0.43101 0.0
H3137 H 0.3283 0.76065 0.45178 0.0
H3138 H 0.10665 0.74088 0.45579 0.0
H3139 H 0.18639 0.74218 0.45679 0.0
C3140 C 0.33316 0.74944 0.32907 0.0
C3141 C 0.30923 0.73937 0.32258 0.0
C3142 C 0.37889 0.74812 0.3295 0.0
C3143 C 0.47268 0.71887 0.32258 0.0
H3144 H 0.54016 0.76325 0.32615 0.0
C3145 C 0.66146 0.72024 0.31871 0.0
C3146 C 0.68545 0.73053 0.3251 0.0
C3147 C 0.61569 0.72142 0.31834 0.0
C3148 C 0.52186 0.75068 0.32525 0.0
H3149 H 0.31485 0.71958 0.31163 0.0
H3150 H 0.39454 0.71744 0.31229 0.0
H3151 H 0.4604 0.76476 0.32583 0.0
H3152 H 0.67982 0.75048 0.33599 0.0
H3153 H 0.60011 0.75233 0.33544 0.0
H3154 H 0.53415 0.70479 0.32201 0.0
C3155 C 0.37793 0.72632 0.31709 0.0
C3156 C 0.47604 0.75155 0.32508 0.0
C3157 C 0.33221 0.72768 0.31665 0.0
C3158 C 0.66245 0.74222 0.33104 0.0
C3159 C 0.61669 0.74342 0.33066 0.0
C3160 C 0.51852 0.718 0.32277 0.0
C3161 C 0.40194 0.73664 0.32347 0.0
C3162 C 0.4508 0.73566 0.32374 0.0
C3163 C 0.59264 0.73295 0.32435 0.0
C3164 C 0.54376 0.7339 0.3241 0.0
H3165 H 0.31666 0.75872 0.33369 0.0
H3166 H 0.39619 0.7561 0.33457 0.0
H3167 H 0.45436 0.70631 0.32167 0.0
H3168 H 0.67795 0.71095 0.3141 0.0
H3169 H 0.59837 0.71332 0.31332 0.0
C3170 C 0.13157 0.00863 0.31898 0.0
C3171 C 0.10838 -0.00132 0.32563 0.0
C3172 C 0.17733 0.00768 0.3185 0.0
C3173 C 0.27476 -0.00399 0.33243 0.0
H3174 H 0.33419 -0.00545 0.30908 0.0
C3175 C 0.46076 0.98189 0.32932 0.0
C3176 C 0.48449 -0.00855 0.32262 0.0
C3177 C 0.41505 0.98316 0.32973 0.0
C3178 C 0.31818 -0.00481 0.31566 0.0
H3179 H 0.11538 0.97943 0.33679 0.0
H3180 H 0.19505 0.97773 0.33594 0.0
H3181 H 0.25438 -0.00438 0.30957 0.0
H3182 H 0.47859 0.01028 0.31126 0.0
H3183 H 0.39893 0.01261 0.31201 0.0
H3184 H 0.3385 -0.00439 0.33852 0.0
C3185 C 0.1779 0.98656 0.3312 0.0
C3186 C 0.27235 -0.00422 0.31594 0.0
C3187 C 0.13216 0.98751 0.33168 0.0
C3188 C 0.46134 0.00253 0.31642 0.0
C3189 C 0.41561 0.00383 0.31685 0.0
C3190 C 0.32058 -0.00455 0.33215 0.0
C3191 C 0.20114 -0.00325 0.32465 0.0
C3192 C 0.25001 -0.00385 0.32433 0.0
C3193 C 0.3918 -0.00594 0.32347 0.0
C3194 C 0.34294 -0.00501 0.32376 0.0
H3195 H 0.11445 0.01759 0.3143 0.0
H3196 H 0.19413 0.01589 0.31345 0.0
H3197 H 0.25874 -0.00338 0.33901 0.0
H3198 H 0.4774 0.97299 0.3341 0.0
H3199 H 0.39785 0.97522 0.33483 0.0
C3200 C 0.20949 0.4777 0.56584 0.0
C3201 C 0.23278 0.48865 0.57207 0.0
C3202 C 0.16374 0.47649 0.56626 0.0
C3203 C 0.06645 0.50135 0.57487 0.0
H3204 H 1.00701 0.45515 0.57091 0.0
C3205 C 0.8805 0.49225 0.58123 0.0
C3206 C 0.85668 0.48113 0.57516 0.0
C3207 C 0.92621 0.49332 0.58069 0.0
C3208 C 0.02302 0.46822 0.57192 0.0
H3209 H 0.22591 0.50687 0.58365 0.0
H3210 H 0.14633 0.50452 0.58448 0.0
H3211 H 0.08683 0.45637 0.57044 0.0
H3212 H 0.86264 0.46248 0.56372 0.0
H3213 H 0.9422 0.46465 0.56266 0.0
H3214 H 1.0027 0.51322 0.57633 0.0
C3215 C 0.16341 0.49699 0.5792 0.0
C3216 C 0.06886 0.46891 0.57166 0.0
C3217 C 0.20915 0.49815 0.5788 0.0
C3218 C 0.8798 0.47133 0.56845 0.0
C3219 C 0.92554 0.47238 0.56792 0.0
C3220 C 0.02063 0.50066 0.57512 0.0
C3221 C 0.14005 0.48626 0.57289 0.0
C3222 C 0.0912 0.48547 0.57316 0.0
C3223 C 0.94941 0.48331 0.57407 0.0
C3224 C 0.99827 0.48409 0.57366 0.0
H3225 H 0.22664 0.47006 0.56061 0.0
H3226 H 0.14687 0.46819 0.56124 0.0
H3227 H 0.08247 0.51441 0.57589 0.0
H3228 H 0.8638 0.50014 0.58642 0.0
H3229 H 0.94344 0.50175 0.58559 0.0
C3230 C 0.4073 0.75709 0.58246 0.0
C3231 C 0.43375 0.75035 0.57535 0.0
C3232 C 0.36161 0.75608 0.58192 0.0
C3233 C 0.27048 0.75098 0.56543 0.0
H3234 H 0.2032 0.73834 0.58695 0.0
C3235 C 0.08487 0.73516 0.56395 0.0
C3236 C 0.05828 0.74162 0.57109 0.0
C3237 C 0.13051 0.73662 0.56442 0.0
C3238 C 0.22142 0.74212 0.5809 0.0
H3239 H 0.43253 0.73704 0.56214 0.0
H3240 H 0.3528 0.73527 0.5612 0.0
H3241 H 0.28286 0.7398 0.58785 0.0
H3242 H 0.05918 0.75503 0.58428 0.0
H3243 H 0.13881 0.75757 0.58512 0.0
H3244 H 0.20901 0.75327 0.55847 0.0
C3245 C 0.36747 0.74157 0.56714 0.0
C3246 C 0.26716 0.74294 0.58141 0.0
C3247 C 0.41323 0.74257 0.56769 0.0
C3248 C 0.07861 0.74969 0.57871 0.0
C3249 C 0.1243 0.75113 0.57919 0.0
C3250 C 0.22473 0.75016 0.56491 0.0
C3251 C 0.34106 0.74833 0.57425 0.0
C3252 C 0.29231 0.74737 0.57368 0.0
C3253 C 0.15086 0.74455 0.57207 0.0
C3254 C 0.19959 0.7457 0.57264 0.0
H3255 H 0.42186 0.76351 0.58838 0.0
H3256 H 0.34236 0.76171 0.58745 0.0
H3257 H 0.28872 0.75473 0.55937 0.0
H3258 H 0.07049 0.72856 0.55805 0.0
H3259 H 0.1499 0.73113 0.55888 0.0
C3260 C 0.87378 0.74524 0.6994 0.0
C3261 C 0.8527 0.75088 0.69134 0.0
C3262 C 0.91954 0.74407 0.69982 0.0
C3263 C 0.0204 0.76093 0.68845 0.0
H3264 H 0.07574 0.72061 0.7012 0.0
C3265 C 0.20725 0.74713 0.68656 0.0
C3266 C 0.22843 0.74148 0.69461 0.0
C3267 C 0.16152 0.74858 0.68621 0.0
C3268 C 0.06085 0.73209 0.6977 0.0
H3269 H 0.86365 0.75987 0.67743 0.0
H3270 H 0.94313 0.75743 0.6781 0.0
H3271 H 0.99606 0.72235 0.7005 0.0
H3272 H 0.21776 0.73285 0.70859 0.0
H3273 H 0.13831 0.73572 0.70803 0.0
H3274 H 0.08522 0.77063 0.68564 0.0
C3275 C 0.92433 0.75409 0.68414 0.0
C3276 C 1.01509 0.73308 0.6973 0.0
C3277 C 0.87862 0.75524 0.68371 0.0
C3278 C 0.20268 0.73746 0.70231 0.0
C3279 C 0.15701 0.73887 0.70196 0.0
C3280 C 0.06616 0.75992 0.68885 0.0
C3281 C 0.94544 0.74854 0.6922 0.0
C3282 C 0.99423 0.74751 0.69267 0.0
C3283 C 0.13578 0.74436 0.69389 0.0
C3284 C 0.087 0.74549 0.69348 0.0
H3285 H 0.8549 0.74163 0.70539 0.0
H3286 H 0.93464 0.73992 0.70618 0.0
H3287 H 1.00552 0.7724 0.68495 0.0
H3288 H 0.22603 0.75049 0.68053 0.0
H3289 H 0.1463 0.7527 0.67987 0.0
C3290 C 0.07482 0.48084 0.68948 0.0
C3291 C 0.0542 0.48941 0.69692 0.0
C3292 C 0.12054 0.47943 0.6891 0.0
C3293 C 0.22171 0.50034 0.69843 0.0
H3294 H 0.27708 0.45622 0.68936 0.0
C3295 C 0.40947 0.48904 0.70022 0.0
C3296 C 0.42967 0.48078 0.69264 0.0
C3297 C 0.36374 0.48999 0.70085 0.0
C3298 C 0.26217 0.46872 0.69182 0.0
H3299 H 0.06589 0.50329 0.70978 0.0
H3300 H 0.1453 0.50046 0.7092 0.0
H3301 H 0.19742 0.45787 0.69026 0.0
H3302 H 0.41722 0.4668 0.67984 0.0
H3303 H 0.33777 0.46883 0.68084 0.0
H3304 H 0.28644 0.51121 0.69997 0.0
C3305 C 0.12617 0.49499 0.70361 0.0
C3306 C 0.21643 0.46967 0.69233 0.0
C3307 C 0.08051 0.49639 0.704 0.0
C3308 C 0.4029 0.47349 0.68572 0.0
C3309 C 0.35724 0.47443 0.68635 0.0
C3310 C 0.26744 0.4994 0.69791 0.0
C3311 C 0.14683 0.48658 0.69613 0.0
C3312 C 0.19558 0.4855 0.69564 0.0
C3313 C 0.33702 0.48266 0.69393 0.0
C3314 C 0.28829 0.48359 0.69458 0.0
H3315 H 0.05562 0.47517 0.68395 0.0
H3316 H 0.13531 0.47301 0.6832 0.0
H3317 H 0.20681 0.51286 0.70087 0.0
H3318 H 0.42901 0.49491 0.70565 0.0
H3319 H 0.34932 0.49627 0.70682 0.0
C3320 C 0.83616 0.48775 0.45293 0.0
C3321 C 0.8105 0.49092 0.44511 0.0
C3322 C 0.88183 0.48921 0.45257 0.0
C3323 C 0.97486 0.48825 0.43637 0.0
H3324 H 0.03914 0.50961 0.45655 0.0
C3325 C 0.16068 0.50342 0.43439 0.0
C3326 C 0.18624 0.49991 0.44219 0.0
C3327 C 0.11497 0.50227 0.43474 0.0
C3328 C 0.02176 0.50341 0.4509 0.0
H3329 H 0.813 0.49854 0.43083 0.0
H3330 H 0.89265 0.50114 0.43021 0.0
H3331 H 0.95939 0.50817 0.45714 0.0
H3332 H 0.18342 0.49211 0.45645 0.0
H3333 H 0.10367 0.4901 0.45706 0.0
H3334 H 0.03723 0.48348 0.43013 0.0
C3335 C 0.87745 0.49722 0.43659 0.0
C3336 C 0.97597 0.50259 0.45123 0.0
C3337 C 0.83174 0.49575 0.43695 0.0
C3338 C 0.16481 0.49514 0.45034 0.0
C3339 C 0.11904 0.494 0.45069 0.0
C3340 C 0.02064 0.48907 0.43603 0.0
C3341 C 0.90312 0.49387 0.44439 0.0
C3342 C 0.9519 0.49499 0.44398 0.0
C3343 C 0.0935 0.49761 0.44291 0.0
C3344 C 0.04471 0.49664 0.44329 0.0
H3345 H 0.82105 0.48367 0.45929 0.0
H3346 H 0.90052 0.48625 0.45867 0.0
H3347 H 0.9575 0.48201 0.43073 0.0
H3348 H 0.17594 0.50747 0.42804 0.0
H3349 H 0.09638 0.50543 0.42865 0.0
C3350 C 0.95358 0.24088 0.45303 0.0
C3351 C 0.97814 0.24071 0.44491 0.0
C3352 C 0.90787 0.23944 0.45281 0.0
C3353 C 0.81522 0.22474 0.43817 0.0
H3354 H 0.74671 0.25596 0.4541 0.0
C3355 C 0.62719 0.23129 0.4346 0.0
C3356 C 0.60221 0.2319 0.44266 0.0
C3357 C 0.67294 0.23241 0.43492 0.0
C3358 C 0.7653 0.24698 0.44968 0.0
H3359 H 0.9737 0.23846 0.4302 0.0
H3360 H 0.89397 0.23617 0.4298 0.0
H3361 H 0.82647 0.2574 0.4546 0.0
H3362 H 0.60606 0.23451 0.45737 0.0
H3363 H 0.68584 0.23618 0.45793 0.0
H3364 H 0.75407 0.21432 0.43325 0.0
C3365 C 0.91009 0.2373 0.43635 0.0
C3366 C 0.8111 0.24781 0.44997 0.0
C3367 C 0.95582 0.2388 0.43658 0.0
C3368 C 0.62423 0.23384 0.45104 0.0
C3369 C 0.67 0.23499 0.45135 0.0
C3370 C 0.76942 0.22391 0.43789 0.0
C3371 C 0.88549 0.23775 0.44446 0.0
C3372 C 0.83668 0.23671 0.44421 0.0
C3373 C 0.69499 0.23418 0.4433 0.0
C3374 C 0.74383 0.23504 0.44363 0.0
H3375 H 0.96959 0.24254 0.45957 0.0
H3376 H 0.89006 0.23962 0.45919 0.0
H3377 H 0.83384 0.2158 0.43374 0.0
H3378 H 0.61147 0.22958 0.42804 0.0
H3379 H 0.69102 0.23197 0.42857 0.0
C3380 C 0.16456 0.24225 0.33158 0.0
C3381 C 0.18763 0.23066 0.32561 0.0
C3382 C 0.11881 0.24346 0.33118 0.0
C3383 C 0.02069 0.2182 0.32313 0.0
H3384 H 0.96257 0.2649 0.32642 0.0
C3385 C 0.83435 0.228 0.31707 0.0
C3386 C 0.81138 0.23956 0.32307 0.0
C3387 C 0.88007 0.22663 0.3175 0.0
C3388 C 0.97821 0.2517 0.3256 0.0
H3389 H 0.18024 0.21127 0.31451 0.0
H3390 H 0.10066 0.21367 0.3137 0.0
H3391 H 0.04233 0.26337 0.32674 0.0
H3392 H 0.81886 0.25869 0.33427 0.0
H3393 H 0.89839 0.25606 0.33512 0.0
H3394 H 0.95653 0.20654 0.32197 0.0
C3395 C 0.11793 0.22168 0.31877 0.0
C3396 C 0.02404 0.25083 0.32578 0.0
C3397 C 0.1637 0.22049 0.31915 0.0
C3398 C 0.83534 0.24951 0.3296 0.0
C3399 C 0.88107 0.24818 0.33001 0.0
C3400 C 0.97485 0.21908 0.32294 0.0
C3401 C 0.09482 0.2331 0.32482 0.0
C3402 C 0.04593 0.23407 0.32455 0.0
C3403 C 0.9041 0.23683 0.32392 0.0
C3404 C 0.95298 0.23584 0.32418 0.0
H3405 H 0.18188 0.25042 0.33657 0.0
H3406 H 0.10218 0.25229 0.336 0.0
H3407 H 0.03632 0.205 0.32231 0.0
H3408 H 0.81697 0.22 0.31201 0.0
H3409 H 0.89666 0.21785 0.31265 0.0
C3410 C 0.95997 0.49689 0.32948 0.0
C3411 C 0.98125 0.49109 0.32148 0.0
C3412 C 0.91425 0.49832 0.32979 0.0
C3413 C 0.81391 0.48139 0.31837 0.0
H3414 H 0.75805 0.52168 0.33103 0.0
C3415 C 0.6264 0.49363 0.317 0.0
C3416 C 0.60568 0.49921 0.32511 0.0
C3417 C 0.67216 0.49271 0.31646 0.0
C3418 C 0.77309 0.51022 0.32755 0.0
H3419 H 0.97082 0.48222 0.30753 0.0
H3420 H 0.89135 0.48508 0.30801 0.0
H3421 H 0.83775 0.52023 0.33025 0.0
H3422 H 0.61719 0.50837 0.33898 0.0
H3423 H 0.69668 0.50637 0.3381 0.0
H3424 H 0.74927 0.47135 0.31569 0.0
C3425 C 0.90996 0.48835 0.31409 0.0
C3426 C 0.81885 0.5094 0.3271 0.0
C3427 C 0.95564 0.48694 0.31377 0.0
C3428 C 0.63192 0.50378 0.33266 0.0
C3429 C 0.67761 0.50288 0.33212 0.0
C3430 C 0.76816 0.48221 0.31882 0.0
C3431 C 0.88863 0.49394 0.32212 0.0
C3432 C 0.83987 0.49496 0.32252 0.0
C3433 C 0.69837 0.49739 0.32401 0.0
C3434 C 0.74713 0.49661 0.32344 0.0
H3435 H 0.97865 0.50034 0.33552 0.0
H3436 H 0.89894 0.50252 0.33612 0.0
H3437 H 0.82896 0.46992 0.3149 0.0
H3438 H 0.60726 0.48987 0.31107 0.0
H3439 H 0.687 0.48859 0.31008 0.0
C3440 C 0.87294 0.98653 0.06826 0.0
C3441 C 0.85183 0.9812 0.07637 0.0
C3442 C 0.9187 0.98772 0.06784 0.0
C3443 C 1.01768 -0.00829 0.08243 0.0
H3444 H 0.0783 0.97427 0.06089 0.0
C3445 C 0.2066 0.98516 0.08115 0.0
C3446 C 0.22765 -0.00942 0.07305 0.0
C3447 C 0.16089 0.98368 0.08153 0.0
C3448 C 0.0619 0.97939 0.06692 0.0
H3449 H 0.86278 0.97267 0.09036 0.0
H3450 H 0.94229 0.9748 0.08964 0.0
H3451 H 0.99857 0.97272 0.06158 0.0
H3452 H 0.2167 -0.00114 0.05903 0.0
H3453 H 0.13724 -0.00374 0.05969 0.0
H3454 H 0.08097 -0.00159 0.08777 0.0
C3455 C 0.92345 0.97836 0.08363 0.0
C3456 C 1.01611 0.97851 0.06731 0.0
C3457 C 0.87775 0.97717 0.08405 0.0
C3458 C 0.20176 -0.00567 0.06533 0.0
C3459 C 0.15609 -0.00715 0.06572 0.0
C3460 C 0.06345 -0.0074 0.08204 0.0
C3461 C 0.94458 0.98361 0.07552 0.0
C3462 C 0.99338 0.98466 0.07507 0.0
C3463 C 0.13499 0.9876 0.07383 0.0
C3464 C 0.0862 0.98645 0.07428 0.0
H3465 H 0.85406 0.98997 0.06225 0.0
H3466 H 0.93378 -0.00793 0.06152 0.0
H3467 H 1.00128 -0.00316 0.08846 0.0
H3468 H 0.22549 0.98191 0.08719 0.0
H3469 H 0.14585 0.9793 0.08785 0.0
C3470 C 0.07985 0.23346 0.07919 0.0
C3471 C 0.05646 0.24242 0.07223 0.0
C3472 C 0.12558 0.23459 0.07962 0.0
C3473 C 0.22059 0.2618 0.07156 0.0
H3474 H 0.28605 0.21772 0.07712 0.0
C3475 C 0.40953 0.2586 0.0684 0.0
C3476 C 0.43252 0.2493 0.07531 0.0
C3477 C 0.36378 0.25761 0.06789 0.0
C3478 C 0.26832 0.23021 0.07566 0.0
H3479 H 0.063 0.26003 0.06041 0.0
H3480 H 0.14276 0.26183 0.06109 0.0
H3481 H 0.20626 0.21671 0.0767 0.0
H3482 H 0.42517 0.23126 0.08695 0.0
H3483 H 0.34551 0.22977 0.08615 0.0
H3484 H 0.28265 0.27531 0.07054 0.0
C3485 C 0.1257 0.25399 0.06625 0.0
C3486 C 0.22249 0.22963 0.07542 0.0
C3487 C 0.07997 0.25282 0.06581 0.0
C3488 C 0.40857 0.23875 0.0816 0.0
C3489 C 0.36284 0.23774 0.08108 0.0
C3490 C 0.26643 0.26238 0.07181 0.0
C3491 C 0.14916 0.24474 0.07311 0.0
C3492 C 0.198 0.24542 0.07339 0.0
C3493 C 0.33978 0.24727 0.07426 0.0
C3494 C 0.29093 0.24659 0.07387 0.0
H3495 H 0.06291 0.22518 0.0842 0.0
H3496 H 0.14249 0.22748 0.08506 0.0
H3497 H 0.20281 0.27428 0.07009 0.0
H3498 H 0.4268 0.26701 0.0635 0.0
H3499 H 0.34721 0.26494 0.06247 0.0
C3500 C 0.87797 0.24139 0.19981 0.0
C3501 C 0.85796 0.25066 0.19251 0.0
C3502 C 0.9237 0.2404 0.20048 0.0
C3503 C 0.02546 0.26295 0.19236 0.0
H3504 H 0.08074 0.21764 0.19988 0.0
C3505 C 0.21294 0.25133 0.18984 0.0
C3506 C 0.23341 0.24171 0.19697 0.0
C3507 C 0.16722 0.25275 0.18944 0.0
C3508 C 0.06586 0.23048 0.19787 0.0
H3509 H 0.87072 0.26642 0.18025 0.0
H3510 H 0.95015 0.26436 0.18131 0.0
H3511 H 1.00112 0.21939 0.19895 0.0
H3512 H 0.22144 0.22595 0.20927 0.0
H3513 H 0.14204 0.22878 0.20868 0.0
H3514 H 0.09021 0.27402 0.19126 0.0
C3515 C 0.93055 0.25797 0.18657 0.0
C3516 C 0.02013 0.23148 0.19734 0.0
C3517 C 0.8849 0.25894 0.1859 0.0
C3518 C 0.20694 0.23367 0.20373 0.0
C3519 C 0.16128 0.23508 0.20333 0.0
C3520 C 0.07119 0.26195 0.19289 0.0
C3521 C 0.95059 0.24871 0.19387 0.0
C3522 C 0.99931 0.24771 0.19456 0.0
C3523 C 0.14077 0.24455 0.19615 0.0
C3524 C 0.09201 0.24569 0.19564 0.0
H3525 H 0.8583 0.23474 0.20499 0.0
H3526 H 0.93798 0.23331 0.20624 0.0
H3527 H 1.01056 0.27577 0.19033 0.0
H3528 H 0.23226 0.25783 0.18456 0.0
H3529 H 0.15257 0.26001 0.18377 0.0
C3530 C 0.41125 0.97652 0.18475 0.0
C3531 C 0.4371 0.98075 0.19242 0.0
C3532 C 0.36554 0.97776 0.18513 0.0
C3533 C 0.27276 0.9784 0.20142 0.0
H3534 H 0.20805 -0.00217 0.18083 0.0
C3535 C 0.0873 -0.00556 0.20334 0.0
C3536 C 0.06131 -0.00949 0.19566 0.0
C3537 C 0.13296 -0.00706 0.20294 0.0
C3538 C 0.22553 -0.00785 0.1866 0.0
H3539 H 0.43475 0.98992 0.20647 0.0
H3540 H 0.35504 -0.00791 0.20714 0.0
H3541 H 0.28774 -0.00385 0.18016 0.0
H3542 H 0.06327 0.98153 0.18157 0.0
H3543 H 0.1429 0.97888 0.18088 0.0
H3544 H 0.21055 0.97439 0.20787 0.0
C3545 C 0.37017 0.98755 0.20086 0.0
C3546 C 0.2713 -0.0088 0.18622 0.0
C3547 C 0.41593 0.98632 0.20047 0.0
C3548 C 0.08224 0.98491 0.18758 0.0
C3549 C 0.12795 0.98341 0.18718 0.0
C3550 C 0.22699 0.97933 0.2018 0.0
C3551 C 0.34435 0.98324 0.1932 0.0
C3552 C 0.29555 0.98433 0.19363 0.0
C3553 C 0.15395 0.98747 0.19485 0.0
C3554 C 0.20273 0.98624 0.1944 0.0
H3555 H 0.42627 0.97184 0.17848 0.0
H3556 H 0.34675 0.97405 0.17915 0.0
H3557 H 0.29026 0.97274 0.2072 0.0
H3558 H 0.07245 -0.00088 0.20963 0.0
H3559 H 0.15189 -0.00352 0.20894 0.0
C3560 C 0.83199 -0.00447 0.93826 0.0
C3561 C 0.81105 0.98922 0.9462 0.0
C3562 C 0.87772 -0.00306 0.93787 0.0
C3563 C 0.97869 0.97935 0.94887 0.0
H3564 H 0.03383 0.02067 0.93692 0.0
C3565 C 0.16588 -0.0078 0.95062 0.0
C3566 C 0.18672 -0.0015 0.94266 0.0
C3567 C 0.12013 -0.00896 0.95107 0.0
C3568 C 1.019 0.00892 0.94019 0.0
H3569 H 0.82216 0.97932 0.95996 0.0
H3570 H 0.9016 0.98212 0.95935 0.0
H3571 H 0.95415 0.01891 0.93766 0.0
H3572 H 0.17538 0.00866 0.92895 0.0
H3573 H 0.09591 0.00624 0.92968 0.0
H3574 H 0.04351 0.96934 0.95138 0.0
C3575 C 0.88272 0.98583 0.95338 0.0
C3576 C 0.97325 0.00792 0.94062 0.0
C3577 C 0.83704 0.98446 0.95377 0.0
C3578 C 0.16058 0.00352 0.93516 0.0
C3579 C 0.11488 0.00237 0.93561 0.0
C3580 C 0.02444 0.98035 0.94843 0.0
C3581 C 0.9037 -0.00799 0.94541 0.0
C3582 C 0.95247 -0.00688 0.94496 0.0
C3583 C 0.094 -0.00383 0.94358 0.0
C3584 C 0.04522 -0.00486 0.94408 0.0
H3585 H 0.81302 -0.00054 0.93233 0.0
H3586 H 0.89274 0.00159 0.9316 0.0
H3587 H 0.96385 0.9676 0.95213 0.0
H3588 H 0.18493 0.98807 0.9565 0.0
H3589 H 0.10521 0.98637 0.95735 0.0
C3590 C 0.95251 0.74162 0.95209 0.0
C3591 C 0.97777 0.73937 0.94415 0.0
C3592 C 0.90683 0.74016 0.95179 0.0
C3593 C 0.81307 0.74293 0.9358 0.0
H3594 H 0.74957 0.71938 0.95546 0.0
C3595 C 0.62723 0.7279 0.93367 0.0
C3596 C 0.60194 0.7305 0.94159 0.0
C3597 C 0.67295 0.72905 0.93399 0.0
C3598 C 0.76674 0.7262 0.94997 0.0
H3599 H 0.97458 0.73334 0.92968 0.0
H3600 H 0.89491 0.73073 0.92916 0.0
H3601 H 0.82936 0.72077 0.95598 0.0
H3602 H 0.60523 0.73672 0.95603 0.0
H3603 H 0.68499 0.73875 0.95659 0.0
H3604 H 0.75047 0.74836 0.92979 0.0
C3605 C 0.91042 0.73394 0.9356 0.0
C3606 C 0.81255 0.72698 0.95026 0.0
C3607 C 0.95614 0.73541 0.93591 0.0
C3608 C 0.62365 0.7344 0.94983 0.0
C3609 C 0.66942 0.73554 0.95015 0.0
C3610 C 0.76728 0.74214 0.93551 0.0
C3611 C 0.88513 0.73641 0.94353 0.0
C3612 C 0.83633 0.73536 0.94318 0.0
C3613 C 0.69469 0.73282 0.94224 0.0
C3614 C 0.74349 0.73377 0.94259 0.0
H3615 H 0.96795 0.74499 0.95853 0.0
H3616 H 0.88844 0.74243 0.958 0.0
H3617 H 0.8302 0.74977 0.93031 0.0
H3618 H 0.61176 0.72453 0.92724 0.0
H3619 H 0.69134 0.72658 0.9278 0.0
C3620 C 0.16005 0.72319 0.81767 0.0
C3621 C 0.18309 0.73249 0.82457 0.0
C3622 C 0.11428 0.72416 0.81717 0.0
C3623 C 1.01655 0.73437 0.83129 0.0
H3624 H 0.95752 0.73808 0.80795 0.0
C3625 C 0.83042 0.74857 0.82832 0.0
C3626 C 0.80694 0.73967 0.82135 0.0
C3627 C 0.87614 0.7473 0.82876 0.0
C3628 C 0.97341 0.7368 0.81452 0.0
H3629 H 0.17582 0.7506 0.83619 0.0
H3630 H 0.09617 0.75232 0.83532 0.0
H3631 H 0.03732 0.73704 0.80849 0.0
H3632 H 0.8133 0.72196 0.80956 0.0
H3633 H 0.89293 0.71965 0.81038 0.0
H3634 H 0.95269 0.73411 0.83733 0.0
C3635 C 0.11343 0.74398 0.83038 0.0
C3636 C 0.01925 0.73623 0.81483 0.0
C3637 C 0.15917 0.74302 0.83087 0.0
C3638 C 0.83035 0.72922 0.81494 0.0
C3639 C 0.87607 0.72792 0.81539 0.0
C3640 C 0.97073 0.73492 0.83098 0.0
C3641 C 0.09032 0.73445 0.82357 0.0
C3642 C 0.04145 0.73505 0.82322 0.0
C3643 C 0.89964 0.73707 0.82227 0.0
C3644 C 0.9485 0.73618 0.82259 0.0
H3645 H 0.17726 0.71472 0.81278 0.0
H3646 H 0.0976 0.71645 0.81191 0.0
H3647 H 0.03246 0.73313 0.83786 0.0
H3648 H 0.81359 0.75698 0.83328 0.0
H3649 H 0.89314 0.75475 0.83408 0.0
C3650 C 0.62597 0.01118 0.82009 0.0
C3651 C 0.60192 0.00011 0.82614 0.0
C3652 C 0.67173 0.01001 0.8197 0.0
C3653 C 0.76533 0.97981 0.82566 0.0
H3654 H 0.83312 0.0245 0.82364 0.0
C3655 C 0.95377 0.98042 0.82988 0.0
C3656 C 0.97806 -0.00869 0.82379 0.0
C3657 C 0.90804 0.98171 0.83023 0.0
C3658 C 0.81471 0.01186 0.82411 0.0
H3659 H 0.6074 0.97877 0.83635 0.0
H3660 H 0.6871 0.97691 0.83576 0.0
H3661 H 0.75332 0.02605 0.82395 0.0
H3662 H 0.97306 0.01244 0.81346 0.0
H3663 H 0.89332 0.01454 0.81401 0.0
H3664 H 0.82672 0.96563 0.82583 0.0
C3665 C 0.67057 0.98644 0.83127 0.0
C3666 C 0.76888 0.01275 0.82427 0.0
C3667 C 0.62483 0.98764 0.83168 0.0
C3668 C 0.95541 0.00373 0.81817 0.0
C3669 C 0.90967 0.00506 0.81855 0.0
C3670 C 0.81115 0.97893 0.8255 0.0
C3671 C 0.69469 -0.00231 0.82532 0.0
C3672 C 0.74355 -0.00327 0.82506 0.0
C3673 C 0.88533 -0.00605 0.82453 0.0
C3674 C 0.83648 -0.00506 0.82473 0.0
H3675 H 0.60953 0.02108 0.81579 0.0
H3676 H 0.68911 0.01874 0.81496 0.0
H3677 H 0.74696 0.96717 0.82612 0.0
H3678 H 0.97001 0.97057 0.83424 0.0
H3679 H 0.89046 0.97311 0.835 0.0
C3680 C 0.01937 0.49593 0.04444 0.0
C3681 C 0.03801 0.47975 0.04787 0.0
C3682 C 1.01273 0.49818 0.03505 0.0
C3683 C 1.00563 0.47248 0.01315 0.0
H3684 H 0.03321 0.51957 1.00242 0.0
C3685 C 1.01139 0.48329 0.97397 0.0
C3686 C 0.99264 0.49949 0.9706 0.0
C3687 C 1.01784 0.48088 0.98336 0.0
C3688 C 0.02493 0.50637 1.0053 0.0
H3689 H 0.06327 0.45307 0.04416 0.0
H3690 H 0.05205 0.45699 0.02781 0.0
H3691 H 0.04049 0.51529 0.01883 0.0
H3692 H 0.96685 0.52603 0.97442 0.0
H3693 H 0.9778 0.52184 0.99075 0.0
H3694 H 0.99011 0.46357 0.99961 0.0
C3695 C 0.04216 0.46792 0.03235 0.0
C3696 C 0.02901 0.50393 0.01474 0.0
C3697 C 0.0488 0.46569 0.04173 0.0
C3698 C 0.98142 0.51339 0.9768 0.0
C3699 C 0.98791 0.51101 0.98617 0.0
C3700 C 1.00156 0.47493 1.00371 0.0
C3701 C 0.0245 0.48428 0.02886 0.0
C3702 C 0.01939 0.48695 0.0188 0.0
C3703 C 1.00582 0.49465 0.9896 0.0
C3704 C 1.01111 0.49192 0.99965 0.0
H3705 H 1.01055 0.50698 0.04901 0.0
H3706 H 0.99839 0.51084 0.03263 0.0
H3707 H 0.99734 0.45929 0.01603 0.0
H3708 H 0.02051 0.47235 0.96936 0.0
H3709 H 0.03232 0.46821 0.98574 0.0
C3710 C 0.26841 0.74558 0.9727 0.0
C3711 C 0.28652 0.72925 0.96933 0.0
C3712 C 0.26163 0.74794 0.98209 0.0
C3713 C 0.2997 0.73044 1.0045 0.0
H3714 H 0.19679 0.75527 0.01378 0.0
C3715 C 0.25902 0.73389 0.04317 0.0
C3716 C 0.24039 0.75014 0.0465 0.0
C3717 C 0.26525 0.73137 0.03377 0.0
C3718 C 0.22603 0.74851 0.01131 0.0
H3719 H 0.31044 0.70239 0.97312 0.0
H3720 H 0.29826 0.7064 0.98944 0.0
H3721 H 0.20507 0.7507 0.99741 0.0
H3722 H 0.21493 0.77671 0.04264 0.0
H3723 H 0.22636 0.77247 0.02632 0.0
H3724 H 0.32075 0.7283 0.0184 0.0
C3725 C 0.28997 0.71753 0.98488 0.0
C3726 C 0.23074 0.74587 1.0019 0.0
C3727 C 0.29665 0.71517 0.97551 0.0
C3728 C 0.22911 0.76398 0.04028 0.0
C3729 C 0.23536 0.76148 0.0309 0.0
C3730 C 0.29502 0.7331 0.01391 0.0
C3731 C 0.27288 0.73403 0.98832 0.0
C3732 C 0.26763 0.73679 0.99836 0.0
C3733 C 0.25305 0.74506 0.0275 0.0
C3734 C 0.25814 0.74219 0.01746 0.0
H3735 H 0.26031 0.75669 0.96811 0.0
H3736 H 0.2487 0.76087 0.98448 0.0
H3737 H 0.32891 0.72367 1.00202 0.0
H3738 H 0.26799 0.72296 0.0478 0.0
H3739 H 0.27861 0.71848 0.03142 0.0
C3740 C 0.98867 0.7146 0.29102 0.0
C3741 C 0.99906 0.72867 0.29718 0.0
C3742 C 0.99559 0.71689 0.28165 0.0
C3743 C 0.05581 0.74502 0.26467 0.0
H3744 H 0.9662 0.72754 0.24806 0.0
C3745 C 0.05817 0.76342 0.22634 0.0
C3746 C 0.04737 0.74958 0.22008 0.0
C3747 C 0.05166 0.76084 0.2357 0.0
C3748 C 0.99181 0.73232 0.25258 0.0
H3749 H 0.02591 0.75599 0.29839 0.0
H3750 H 0.03784 0.76007 0.28203 0.0
H3751 H 0.95751 0.72292 0.26442 0.0
H3752 H 0.0203 0.72233 0.2187 0.0
H3753 H 1.00912 0.71772 0.23506 0.0
H3754 H 0.09012 0.75442 0.25283 0.0
C3755 C 0.02458 0.74719 0.28442 0.0
C3756 C 0.98684 0.72966 0.26199 0.0
C3757 C 1.0176 0.7449 0.29381 0.0
C3758 C 0.02891 0.73325 0.22336 0.0
C3759 C 0.02237 0.73065 0.23274 0.0
C3760 C 0.06079 0.74767 0.25526 0.0
C3761 C 1.01316 0.73329 0.2782 0.0
C3762 C 1.01876 0.73599 0.26816 0.0
C3763 C 0.03414 0.74434 0.23905 0.0
C3764 C 0.02881 0.7414 0.24908 0.0
H3765 H 0.97454 0.70189 0.29342 0.0
H3766 H 0.98714 0.70576 0.2771 0.0
H3767 H 0.08139 0.74983 0.26919 0.0
H3768 H 0.07222 0.77621 0.22402 0.0
H3769 H 0.06033 0.77182 0.24032 0.0
C3770 C 0.23922 0.46518 0.22613 0.0
C3771 C 0.24998 0.47927 0.22001 0.0
C3772 C 0.24568 0.4674 0.23552 0.0
C3773 C 0.25799 0.50338 0.25315 0.0
H3774 H 0.29753 0.46313 0.26829 0.0
C3775 C 0.30505 0.51299 0.2911 0.0
C3776 C 0.29423 0.49904 0.29729 0.0
C3777 C 0.29862 0.51059 0.28173 0.0
C3778 C 0.28589 0.47446 0.26419 0.0
H3779 H 0.27719 0.50655 0.2189 0.0
H3780 H 0.289 0.51039 0.23529 0.0
H3781 H 0.29055 0.45885 0.25186 0.0
H3782 H 0.26711 0.47177 0.29854 0.0
H3783 H 0.25538 0.46759 0.28215 0.0
H3784 H 0.25332 0.51898 0.26547 0.0
C3785 C 0.27484 0.49771 0.23285 0.0
C3786 C 0.28197 0.47201 0.25474 0.0
C3787 C 0.2684 0.49547 0.22345 0.0
C3788 C 0.27591 0.48275 0.29392 0.0
C3789 C 0.26951 0.48032 0.28453 0.0
C3790 C 0.26191 0.50582 0.26259 0.0
C3791 C 0.2631 0.48378 0.23903 0.0
C3792 C 0.268 0.48644 0.24909 0.0
C3793 C 0.28115 0.49416 0.27829 0.0
C3794 C 0.27597 0.49141 0.26824 0.0
H3795 H 0.22492 0.45253 0.22368 0.0
H3796 H 0.23584 0.45644 0.24005 0.0
H3797 H 0.24635 0.51471 0.24905 0.0
H3798 H 0.31928 0.5257 0.29348 0.0
H3799 H 0.30845 0.52147 0.27715 0.0
C3800 C 0.77443 0.24545 0.97366 0.0
C3801 C 0.79372 0.22929 0.97038 0.0
C3802 C 0.76741 0.24793 0.98303 0.0
C3803 C 0.80589 0.23123 1.00558 0.0
H3804 H 0.70101 0.25501 0.01459 0.0
C3805 C 0.76266 0.23437 0.04412 0.0
C3806 C 0.74304 0.25046 0.04741 0.0
C3807 C 0.76962 0.2319 0.03475 0.0
C3808 C 0.73078 0.24854 0.0122 0.0
H3809 H 0.81959 0.20283 0.97431 0.0
H3810 H 0.80694 0.20702 0.99061 0.0
H3811 H 0.71033 0.25035 0.99824 0.0
H3812 H 0.7165 0.2768 0.04348 0.0
H3813 H 0.72911 0.27265 0.02718 0.0
H3814 H 0.82637 0.22945 0.01953 0.0
C3815 C 0.79793 0.21796 0.98599 0.0
C3816 C 0.7361 0.24586 1.0028 0.0
C3817 C 0.80488 0.21549 0.97663 0.0
C3818 C 0.73147 0.2642 0.04115 0.0
C3819 C 0.7384 0.26175 0.0318 0.0
C3820 C 0.80059 0.23393 0.01497 0.0
C3821 C 0.77954 0.23429 0.98934 0.0
C3822 C 0.77372 0.23715 0.99936 0.0
C3823 C 0.75713 0.24548 0.02844 0.0
C3824 C 0.76296 0.24263 0.01842 0.0
H3825 H 0.76551 0.25634 0.96901 0.0
H3826 H 0.7535 0.26074 0.98535 0.0
H3827 H 0.83565 0.22476 1.00318 0.0
H3828 H 0.7719 0.22352 0.04878 0.0
H3829 H 0.78378 0.21914 0.03243 0.0
C3830 C 1.00941 0.24829 0.79378 0.0
C3831 C 0.99094 0.23198 0.79709 0.0
C3832 C 1.01577 0.25086 0.78439 0.0
C3833 C 0.97687 0.23378 0.76191 0.0
H3834 H 0.0802 0.25833 0.75264 0.0
C3835 C 0.01961 0.23613 0.72333 0.0
C3836 C 0.03827 0.2523 0.7199 0.0
C3837 C 1.01273 0.23394 0.73272 0.0
C3838 C 0.05085 0.25164 0.75511 0.0
H3839 H 0.96585 0.20538 0.79318 0.0
H3840 H 0.9774 0.20972 0.77688 0.0
H3841 H 0.07166 0.25387 0.76902 0.0
H3842 H 0.06307 0.27907 0.7236 0.0
H3843 H 0.05064 0.27537 0.73993 0.0
H3844 H 0.9561 0.23151 0.748 0.0
C3845 C 0.98623 0.22071 0.78148 0.0
C3846 C 0.04597 0.24908 0.76453 0.0
C3847 C 0.97991 0.21815 0.79084 0.0
C3848 C 0.04886 0.2664 0.72603 0.0
C3849 C 0.04204 0.26422 0.73541 0.0
C3850 C 0.98176 0.23634 0.7525 0.0
C3851 C 1.00378 0.23717 0.7781 0.0
C3852 C 1.00896 0.24007 0.76806 0.0
C3853 C 0.02435 0.24787 0.73891 0.0
C3854 C 1.01884 0.24529 0.74896 0.0
H3855 H 1.0182 0.25921 0.79843 0.0
H3856 H 0.02905 0.26377 0.78206 0.0
H3857 H 0.94753 0.22708 0.76437 0.0
H3858 H 1.01115 0.22501 0.71877 0.0
H3859 H 0.99937 0.22111 0.73515 0.0
C3860 C 0.77101 0.48618 0.79447 0.0
C3861 C 0.78972 0.50238 0.79786 0.0
C3862 C 0.76382 0.48395 0.78509 0.0
C3863 C 0.80129 0.50152 0.76265 0.0
H3864 H 0.69752 0.47706 0.75353 0.0
C3865 C 0.75877 0.4982 0.72404 0.0
C3866 C 0.73997 0.48194 0.72075 0.0
C3867 C 0.7654 0.50074 0.73342 0.0
C3868 C 0.72698 0.48373 0.75595 0.0
H3869 H 0.81435 0.52914 0.79411 0.0
H3870 H 0.80142 0.52537 0.77779 0.0
H3871 H 0.70662 0.48153 0.76989 0.0
H3872 H 0.71458 0.4554 0.72468 0.0
H3873 H 0.72665 0.45969 0.74097 0.0
H3874 H 0.82173 0.50367 0.74872 0.0
C3875 C 0.79298 0.51423 0.78234 0.0
C3876 C 0.73217 0.48631 0.76536 0.0
C3877 C 0.80009 0.51646 0.7917 0.0
C3878 C 0.72889 0.46813 0.72701 0.0
C3879 C 0.73551 0.47066 0.73637 0.0
C3880 C 0.79612 0.49893 0.75325 0.0
C3881 C 0.77522 0.49787 0.77888 0.0
C3882 C 0.76941 0.49523 0.76884 0.0
C3883 C 0.7534 0.48708 0.73973 0.0
C3884 C 0.75893 0.48996 0.74976 0.0
H3885 H 0.76272 0.47508 0.79905 0.0
H3886 H 0.75042 0.47111 0.78269 0.0
H3887 H 0.83076 0.50818 0.76508 0.0
H3888 H 0.76761 0.50909 0.71939 0.0
H3889 H 0.77893 0.51362 0.73575 0.0
C3890 C 0.02 -0.0034 0.54499 0.0
C3891 C 0.03825 0.98028 0.54834 0.0
C3892 C 1.01318 -0.00101 0.53561 0.0
C3893 C 1.00478 0.97354 0.51365 0.0
H3894 H 0.03318 0.0206 0.50299 0.0
C3895 C 1.01031 0.98456 0.4745 0.0
C3896 C 0.99178 0.00084 0.47116 0.0
C3897 C 1.01683 0.98209 0.48388 0.0
C3898 C 0.02467 0.00742 0.50585 0.0
H3899 H 0.06264 0.95352 0.54452 0.0
H3900 H 0.05112 0.9577 0.5282 0.0
H3901 H 0.04071 0.01616 0.51939 0.0
H3902 H 0.96647 0.02743 0.47501 0.0
H3903 H 0.97757 0.02313 0.49134 0.0
H3904 H 0.98882 0.96479 0.5001 0.0
C3905 C 0.04165 0.96863 0.53278 0.0
C3906 C 0.0289 0.00488 0.51528 0.0
C3907 C 0.04847 0.96625 0.54215 0.0
C3908 C 0.98086 0.01474 0.47738 0.0
C3909 C 0.98744 0.01229 0.48674 0.0
C3910 C 1.00059 0.97608 0.50422 0.0
C3911 C 0.02436 0.98511 0.52936 0.0
C3912 C 1.019 0.98791 0.51932 0.0
C3913 C 1.00511 -0.00413 0.49015 0.0
C3914 C 1.01045 -0.00694 0.50018 0.0
H3915 H 1.01164 0.00763 0.54961 0.0
H3916 H 0.99913 0.01175 0.53325 0.0
H3917 H 0.99625 0.96036 0.51651 0.0
H3918 H 1.0192 0.97363 0.46987 0.0
H3919 H 0.03113 0.96938 0.48624 0.0
C3920 C 0.29816 0.21671 0.47634 0.0
C3921 C 0.28829 0.2309 0.47021 0.0
C3922 C 0.29243 0.2191 0.48573 0.0
C3923 C 0.2364 0.24794 0.50301 0.0
H3924 H 0.32647 0.22908 0.51914 0.0
C3925 C 0.23822 0.26505 0.54151 0.0
C3926 C 0.2486 0.25084 0.54759 0.0
C3927 C 0.24402 0.26281 0.53211 0.0
C3928 C 0.30075 0.23426 0.51475 0.0
H3929 H 0.26349 0.25857 0.4691 0.0
H3930 H 0.25357 0.26283 0.48552 0.0
H3931 H 0.33314 0.22467 0.50272 0.0
H3932 H 0.27431 0.22329 0.54861 0.0
H3933 H 0.28421 0.21929 0.53218 0.0
H3934 H 0.20396 0.2575 0.51505 0.0
C3935 C 0.26555 0.24978 0.48307 0.0
C3936 C 0.30455 0.23172 0.50532 0.0
C3937 C 0.27136 0.24738 0.47366 0.0
C3938 C 0.26605 0.2345 0.54409 0.0
C3939 C 0.27186 0.23224 0.53467 0.0
C3940 C 0.23258 0.25047 0.51245 0.0
C3941 C 0.27659 0.23574 0.48925 0.0
C3942 C 0.2724 0.2385 0.49931 0.0
C3943 C 0.26039 0.2463 0.52853 0.0
C3944 C 0.2647 0.24367 0.51846 0.0
H3945 H 0.31103 0.2038 0.47389 0.0
H3946 H 0.30047 0.20786 0.49025 0.0
H3947 H 0.2107 0.25312 0.49862 0.0
H3948 H 0.22494 0.27785 0.544 0.0
H3949 H 0.23563 0.27406 0.52763 0.0
C3950 C 0.27031 0.98561 0.79516 0.0
C3951 C 0.28881 0.00184 0.79856 0.0
C3952 C 0.26369 0.98332 0.78576 0.0
C3953 C 0.30258 0.00078 0.76341 0.0
H3954 H 0.1993 0.97637 0.754 0.0
C3955 C 0.26205 -0.00216 0.72472 0.0
C3956 C 0.24329 0.98165 0.72133 0.0
C3957 C 0.26828 0.00024 0.73412 0.0
C3958 C 0.22864 0.98302 0.75651 0.0
H3959 H 0.31356 0.02859 0.79483 0.0
H3960 H 0.30161 0.02471 0.7785 0.0
H3961 H 0.20743 0.98081 0.77039 0.0
H3962 H 0.21758 0.95508 0.72511 0.0
H3963 H 0.22896 0.95912 0.74145 0.0
H3964 H 0.32384 0.00295 0.74953 0.0
C3965 C 0.29293 0.0136 0.78303 0.0
C3966 C 0.23327 0.98559 0.76593 0.0
C3967 C 0.29948 0.01588 0.79241 0.0
C3968 C 0.23188 0.96775 0.72751 0.0
C3969 C 0.2381 0.97014 0.7369 0.0
C3970 C 0.29797 -0.0018 0.75399 0.0
C3971 C 0.27544 -0.0028 0.77956 0.0
C3972 C 0.27029 -0.00549 0.76951 0.0
C3973 C 0.25592 0.9865 0.74035 0.0
C3974 C 0.26095 0.98927 0.7504 0.0
H3975 H 0.26179 0.97453 0.79973 0.0
H3976 H 0.25045 0.97046 0.78334 0.0
H3977 H 0.3319 0.00743 0.76591 0.0
H3978 H 0.27113 0.0088 0.72012 0.0
H3979 H 0.28175 0.01308 0.73651 0.0
C3980 C 0.80444 0.71669 0.47596 0.0
C3981 C 0.79317 0.73056 0.46976 0.0
C3982 C 0.79773 0.71905 0.48533 0.0
C3983 C 0.7365 0.74681 0.50229 0.0
H3984 H 0.82714 0.73009 0.51885 0.0
C3985 C 0.73305 0.76458 0.54071 0.0
C3986 C 0.74459 0.75071 0.54689 0.0
C3987 C 0.73975 0.76228 0.53134 0.0
C3988 C 0.80126 0.73466 0.51434 0.0
H3989 H 0.76501 0.75765 0.46848 0.0
H3990 H 0.75342 0.76187 0.48486 0.0
H3991 H 0.83596 0.72563 0.50248 0.0
H3992 H 0.77315 0.72369 0.54812 0.0
H3993 H 0.78464 0.71957 0.53175 0.0
H3994 H 0.70178 0.75583 0.51415 0.0
C3995 C 0.76723 0.74907 0.48249 0.0
C3996 C 0.8063 0.73209 0.50494 0.0
C3997 C 0.77401 0.7467 0.4731 0.0
C3998 C 0.76395 0.73463 0.54352 0.0
C3999 C 0.77068 0.73232 0.53414 0.0
C4000 C 0.73145 0.74937 0.5117 0.0
C4001 C 0.77949 0.73536 0.48874 0.0
C4002 C 0.77397 0.73811 0.49877 0.0
C4003 C 0.75821 0.74604 0.5279 0.0
C4004 C 0.76377 0.74334 0.51786 0.0
H4005 H 0.81905 0.70405 0.47359 0.0
H4006 H 0.80682 0.70806 0.4899 0.0
H4007 H 0.71063 0.75138 0.49778 0.0
H4008 H 0.71828 0.77717 0.54311 0.0
H4009 H 0.73048 0.77328 0.52678 0.0
C4010 C 0.76953 -0.00451 0.22407 0.0
C4011 C 0.75118 0.97925 0.22065 0.0
C4012 C 0.77627 -0.00226 0.23346 0.0
C4013 C 0.78427 0.97203 0.25534 0.0
H4014 H 0.75599 0.01902 0.2661 0.0
C4015 C 0.77935 0.98289 0.29453 0.0
C4016 C 0.79792 -0.00083 0.29786 0.0
C4017 C 0.77268 0.98043 0.28515 0.0
C4018 C 0.76446 0.00586 0.26321 0.0
H4019 H 0.72653 0.95247 0.22436 0.0
H4020 H 0.73792 0.9564 0.2407 0.0
H4021 H 0.74842 0.01472 0.24969 0.0
H4022 H 0.82316 0.02577 0.29399 0.0
H4023 H 0.81181 0.02148 0.27767 0.0
H4024 H 0.80027 0.96318 0.26887 0.0
C4025 C 0.74751 0.96738 0.23616 0.0
C4026 C 0.76021 0.0034 0.25377 0.0
C4027 C 0.74078 0.96514 0.22678 0.0
C4028 C 0.80874 0.01307 0.29164 0.0
C4029 C 0.80202 0.01064 0.28227 0.0
C4030 C 0.7885 0.97449 0.26478 0.0
C4031 C 0.76488 0.98379 0.23965 0.0
C4032 C 0.7701 0.98646 0.2497 0.0
C4033 C 0.78427 -0.00578 0.27888 0.0
C4034 C 0.77873 -0.00855 0.26884 0.0
H4035 H 0.77805 0.00658 0.2195 0.0
H4036 H 0.7904 0.01044 0.23587 0.0
H4037 H 0.79277 0.95887 0.25245 0.0
H4038 H 0.77055 0.97196 0.29917 0.0
H4039 H 0.75835 0.96772 0.2828 0.0
C4040 C 0.52825 0.4967 0.54403 0.0
C4041 C 0.547 0.48046 0.54736 0.0
C4042 C 0.5218 0.4992 0.53464 0.0
C4043 C 0.51449 0.47395 0.51265 0.0
H4044 H 0.54246 0.5211 0.50204 0.0
C4045 C 0.5194 0.48484 0.47353 0.0
C4046 C 0.50103 0.50113 0.47017 0.0
C4047 C 0.52617 0.48246 0.48291 0.0
C4048 C 0.53405 0.50789 0.50489 0.0
H4049 H 0.57276 0.45396 0.54348 0.0
H4050 H 0.56177 0.4583 0.52716 0.0
H4051 H 0.54979 0.51662 0.51844 0.0
H4052 H 0.47638 0.52786 0.47398 0.0
H4053 H 0.48778 0.52369 0.4903 0.0
H4054 H 0.49865 0.46521 0.4991 0.0
C4055 C 0.55169 0.46909 0.53176 0.0
C4056 C 0.53819 0.50533 0.51432 0.0
C4057 C 0.5582 0.46662 0.54113 0.0
C4058 C 0.49064 0.51515 0.47636 0.0
C4059 C 0.49739 0.51278 0.48573 0.0
C4060 C 0.5103 0.47651 0.50322 0.0
C4061 C 0.53379 0.48548 0.52837 0.0
C4062 C 0.5285 0.48832 0.51833 0.0
C4063 C 0.51478 0.49632 0.48915 0.0
C4064 C 0.52004 0.49351 0.4992 0.0
H4065 H 0.51914 0.50759 0.54866 0.0
H4066 H 0.50734 0.51188 0.53229 0.0
H4067 H 0.50611 0.46073 0.5155 0.0
H4068 H 0.52791 0.47382 0.46892 0.0
H4069 H 0.54031 0.46972 0.48527 0.0
C4070 C 0.48209 0.7176 0.79039 0.0
C4071 C 0.4933 0.73145 0.79661 0.0
C4072 C 0.48834 0.72008 0.78102 0.0
C4073 C 0.54801 0.74837 0.76401 0.0
H4074 H 0.45757 0.73105 0.74755 0.0
C4075 C 0.54967 0.76621 0.72559 0.0
C4076 C 0.53901 0.75217 0.71943 0.0
C4077 C 0.54309 0.7639 0.73497 0.0
C4078 C 0.48338 0.7358 0.75203 0.0
H4079 H 0.52086 0.75864 0.7979 0.0
H4080 H 0.53157 0.76309 0.78152 0.0
H4081 H 0.44944 0.72647 0.76393 0.0
H4082 H 0.51199 0.72487 0.71825 0.0
H4083 H 0.50062 0.72076 0.73462 0.0
H4084 H 0.58194 0.75771 0.75211 0.0
C4085 C 0.51821 0.75021 0.78388 0.0
C4086 C 0.47875 0.73316 0.76145 0.0
C4087 C 0.51193 0.7477 0.79327 0.0
C4088 C 0.5205 0.73594 0.72283 0.0
C4089 C 0.51385 0.73363 0.73222 0.0
C4090 C 0.55263 0.75103 0.7546 0.0
C4091 C 0.50601 0.7365 0.77761 0.0
C4092 C 0.51103 0.73938 0.76757 0.0
C4093 C 0.52558 0.7475 0.73843 0.0
C4094 C 0.52039 0.74477 0.74847 0.0
H4095 H 0.46789 0.70487 0.79276 0.0
H4096 H 0.47934 0.70909 0.77643 0.0
H4097 H 0.57385 0.75311 0.76849 0.0
H4098 H 0.56378 0.77892 0.72318 0.0
H4099 H 0.55176 0.77501 0.73951 0.0
C4100 C 0.49081 0.21462 0.29162 0.0
C4101 C 0.50131 0.2287 0.29777 0.0
C4102 C 0.49755 0.21688 0.28225 0.0
C4103 C 0.55747 0.24492 0.26519 0.0
H4104 H 0.46737 0.22748 0.24868 0.0
C4105 C 0.55911 0.26321 0.22685 0.0
C4106 C 0.54793 0.2494 0.2206 0.0
C4107 C 0.55283 0.26065 0.23621 0.0
C4108 C 0.49312 0.23225 0.25317 0.0
H4109 H 0.52818 0.25603 0.29894 0.0
H4110 H 0.53984 0.26005 0.28256 0.0
H4111 H 0.45904 0.22291 0.26506 0.0
H4112 H 0.52046 0.22221 0.21926 0.0
H4113 H 0.50971 0.21763 0.23563 0.0
H4114 H 0.59156 0.25425 0.25331 0.0
C4115 C 0.52661 0.24718 0.28498 0.0
C4116 C 0.48835 0.22962 0.26258 0.0
C4117 C 0.5198 0.24492 0.29436 0.0
C4118 C 0.52935 0.23311 0.22391 0.0
C4119 C 0.52306 0.23053 0.2333 0.0
C4120 C 0.56224 0.24753 0.25577 0.0
C4121 C 0.51506 0.23327 0.27877 0.0
C4122 C 0.52044 0.23593 0.26873 0.0
C4123 C 0.53519 0.2442 0.23959 0.0
C4124 C 0.53009 0.24128 0.24963 0.0
H4125 H 0.47671 0.20192 0.29404 0.0
H4126 H 0.489 0.20574 0.27771 0.0
H4127 H 0.58317 0.24972 0.26968 0.0
H4128 H 0.57326 0.27596 0.2245 0.0
H4129 H 0.56177 0.27162 0.24082 0.0
C4130 C 0.52185 -0.00347 0.04476 0.0
C4131 C 0.53927 0.98016 0.04823 0.0
C4132 C 0.51589 -0.00117 0.03535 0.0
C4133 C 0.50815 0.97312 0.01347 0.0
H4134 H 0.5399 0.0197 1.00271 0.0
C4135 C 0.51674 0.98325 0.97431 0.0
C4136 C 0.49933 -0.00038 0.97084 0.0
C4137 C 0.52271 0.98094 0.98372 0.0
C4138 C 0.53046 0.00665 1.0056 0.0
H4139 H 0.56303 0.95319 0.04459 0.0
H4140 H 0.55294 0.9572 0.02822 0.0
H4141 H 0.54581 0.01551 0.01915 0.0
H4142 H 0.47558 0.02659 0.97448 0.0
H4143 H 0.48566 0.02257 0.99085 0.0
H4144 H 0.49279 0.96426 0.99992 0.0
C4145 C 0.54351 0.96825 0.03273 0.0
C4146 C 0.53376 0.00426 0.01505 0.0
C4147 C 0.5495 0.96597 0.04213 0.0
C4148 C 0.4891 0.0138 0.97695 0.0
C4149 C 0.49509 0.01152 0.98634 0.0
C4150 C 0.50485 0.97551 1.00402 0.0
C4151 C 0.52709 0.98479 0.02919 0.0
C4152 C 0.52266 0.98745 0.01913 0.0
C4153 C 0.51151 -0.00501 0.98988 0.0
C4154 C 0.51595 -0.00768 0.99994 0.0
H4155 H 0.5135 0.00769 0.04931 0.0
H4156 H 0.50251 0.01164 0.03289 0.0
H4157 H 0.4987 0.96007 0.01637 0.0
H4158 H 0.52509 0.97209 0.96976 0.0
H4159 H 0.53608 0.96813 0.98618 0.0
loop_
_geom_bond_atom_site_label_1
_geom_bond_atom_site_label_2
_geom_bond_distance
_geom_bond_site_symmetry_2
_ccdc_geom_bond_type
C0 Eu1 2.835 . S
C0 C2 1.500 . S
C0 O20 1.257 . S
C0 O21 1.260 . S
Eu1 C0 2.835 . S
Eu1 O20 2.473 . S
Eu1 O21 2.480 . S
Eu1 O22 2.430 . S
Eu1 O23 2.670 . S
Eu1 O24 2.394 . S
Eu1 O29 2.355 . S
Eu1 O31 2.374 . S
C2 C0 1.500 . S
C2 C3 1.377 . S
C2 C7 1.377 . S
C3 C2 1.377 . S
C3 C4 1.395 . S
C3 H32 0.931 . S
C4 C3 1.395 . S
C4 C5 1.383 . S
C4 H33 0.931 . S
C5 C4 1.383 . S
C5 C6 1.394 . S
C6 C5 1.394 . S
C6 C7 1.378 . S
C6 H34 0.931 . S
C7 C2 1.377 . S
C7 C6 1.378 . S
C7 H35 0.931 . S
C8 O22 1.259 . S
C8 O23 1.270 . S
C9 O24 1.251 . S
C9 O25 1.251 . S
C10 Eu11 2.835 . S
C10 C12 1.500 . S
C10 O26 1.257 . S
C10 O27 1.260 . S
Eu11 C10 2.835 . S
Eu11 O23 2.355 1_655 S
Eu11 O25 2.374 1_655 S
Eu11 O26 2.473 . S
Eu11 O27 2.480 . S
Eu11 O28 2.425 1_655 S
Eu11 O29 2.670 1_655 S
Eu11 O30 2.394 . S
C12 C10 1.500 . S
C12 C13 1.377 . S
C12 C17 1.377 . S
C13 C12 1.377 . S
C13 C14 1.395 . S
C13 H36 0.931 . S
C14 C13 1.395 . S
C14 C15 1.383 . S
C14 H37 0.931 . S
C15 C14 1.383 . S
C15 C16 1.394 . S
C16 C15 1.394 . S
C16 C17 1.378 . S
C16 H38 0.931 . S
C17 C12 1.377 . S
C17 C16 1.378 . S
C17 H39 0.931 . S
C18 O28 1.277 . S
C18 O29 1.270 . S
C19 O30 1.251 . S
C19 O31 1.251 1_655 S
O20 C0 1.257 . S
O20 Eu1 2.473 . S
O21 C0 1.260 . S
O21 Eu1 2.480 . S
O22 Eu1 2.430 . S
O22 C8 1.259 . S
O23 Eu1 2.670 . S
O23 C8 1.270 . S
O23 Eu11 2.355 1_455 S
O24 Eu1 2.394 . S
O24 C9 1.251 . S
O25 C9 1.251 . S
O25 Eu11 2.374 1_455 S
O26 C10 1.257 . S
O26 Eu11 2.473 . S
O27 C10 1.260 . S
O27 Eu11 2.480 . S
O28 Eu11 2.425 1_455 S
O28 C18 1.277 . S
O29 Eu1 2.355 . S
O29 Eu11 2.670 1_455 S
O29 C18 1.270 . S
O30 Eu11 2.394 . S
O30 C19 1.251 . S
O31 Eu1 2.374 . S
O31 C19 1.251 1_455 S
H32 C3 0.931 . S
H33 C4 0.931 . S
H34 C6 0.931 . S
H35 C7 0.931 . S
H36 C13 0.931 . S
H37 C14 0.931 . S
H38 C16 0.931 . S
H39 C17 0.931 . S
C40 Eu41 2.835 . S
C40 C42 1.500 . S
C40 O60 1.257 . S
C40 O61 1.260 . S
Eu41 C40 2.835 . S
Eu41 O60 2.473 . S
Eu41 O61 2.480 . S
Eu41 O62 2.430 . S
Eu41 O63 2.670 . S
Eu41 O64 2.394 . S
Eu41 O69 2.355 . S
Eu41 O71 2.374 . S
C42 C40 1.500 . S
C42 C43 1.377 . S
C42 C47 1.377 . S
C43 C42 1.377 . S
C43 C44 1.395 1_455 S
C43 H72 0.931 . S
C44 C43 1.395 1_655 S
C44 C45 1.383 . S
C44 H73 0.931 . S
C45 C44 1.383 . S
C45 C46 1.394 . S
C46 C45 1.394 . S
C46 C47 1.378 1_655 S
C46 H74 0.931 . S
C47 C42 1.377 . S
C47 C46 1.378 1_455 S
C47 H75 0.931 . S
C48 O62 1.259 . S
C48 O63 1.270 . S
C49 O64 1.251 . S
C49 O65 1.251 . S
C50 Eu51 2.835 . S
C50 C52 1.500 . S
C50 O66 1.257 . S
C50 O67 1.260 . S
Eu51 C50 2.835 . S
Eu51 O63 2.355 . S
Eu51 O65 2.374 . S
Eu51 O66 2.473 . S
Eu51 O67 2.480 . S
Eu51 O68 2.430 . S
Eu51 O69 2.670 . S
Eu51 O70 2.394 . S
C52 C50 1.500 . S
C52 C53 1.377 . S
C52 C57 1.377 . S
C53 C52 1.377 . S
C53 C54 1.395 . S
C53 H76 0.931 . S
C54 C53 1.395 . S
C54 C55 1.383 . S
C54 H77 0.931 . S
C55 C54 1.383 . S
C55 C56 1.394 . S
C56 C55 1.394 . S
C56 C57 1.378 . S
C56 H78 0.931 . S
C57 C52 1.377 . S
C57 C56 1.378 . S
C57 H79 0.931 . S
C58 O68 1.259 . S
C58 O69 1.270 . S
C59 O70 1.251 . S
C59 O71 1.251 . S
O60 C40 1.257 . S
O60 Eu41 2.473 . S
O61 C40 1.260 . S
O61 Eu41 2.480 . S
O62 Eu41 2.430 . S
O62 C48 1.259 . S
O63 Eu41 2.670 . S
O63 C48 1.270 . S
O63 Eu51 2.355 . S
O64 Eu41 2.394 . S
O64 C49 1.251 . S
O65 C49 1.251 . S
O65 Eu51 2.374 . S
O66 C50 1.257 . S
O66 Eu51 2.473 . S
O67 C50 1.260 . S
O67 Eu51 2.480 . S
O68 Eu51 2.430 . S
O68 C58 1.259 . S
O69 Eu41 2.355 . S
O69 Eu51 2.670 . S
O69 C58 1.270 . S
O70 Eu51 2.394 . S
O70 C59 1.251 . S
O71 Eu41 2.374 . S
O71 C59 1.251 . S
H72 C43 0.931 . S
H73 C44 0.931 . S
H74 C46 0.931 . S
H75 C47 0.931 . S
H76 C53 0.931 . S
H77 C54 0.931 . S
H78 C56 0.931 . S
H79 C57 0.931 . S
C80 Eu81 2.835 . S
C80 C82 1.500 . S
C80 O100 1.257 . S
C80 O101 1.260 . S
Eu81 C80 2.835 . S
Eu81 O100 2.473 . S
Eu81 O101 2.480 . S
Eu81 O102 2.430 . S
Eu81 O103 2.670 . S
Eu81 O104 2.394 . S
Eu81 O109 2.355 . S
Eu81 O111 2.374 . S
C82 C80 1.500 . S
C82 C83 1.377 . S
C82 C87 1.377 . S
C83 C82 1.377 . S
C83 C84 1.395 . S
C83 H112 0.931 . S
C84 C83 1.395 . S
C84 C85 1.383 . S
C84 H113 0.931 . S
C85 C84 1.383 . S
C85 C86 1.394 . S
C86 C85 1.394 . S
C86 C87 1.378 . S
C86 H114 0.931 . S
C87 C82 1.377 . S
C87 C86 1.378 . S
C87 H115 0.931 . S
C88 O102 1.259 . S
C88 O103 1.270 . S
C89 O104 1.251 . S
C89 O105 1.251 . S
C90 Eu91 2.835 . S
C90 C92 1.500 . S
C90 O106 1.257 . S
C90 O107 1.260 . S
Eu91 C90 2.835 . S
Eu91 O103 2.355 1_655 S
Eu91 O105 2.374 1_655 S
Eu91 O106 2.473 . S
Eu91 O107 2.480 . S
Eu91 O108 2.425 1_655 S
Eu91 O109 2.670 1_655 S
Eu91 O110 2.394 . S
C92 C90 1.500 . S
C92 C93 1.377 . S
C92 C97 1.377 . S
C93 C92 1.377 . S
C93 C94 1.395 . S
C93 H116 0.931 . S
C94 C93 1.395 . S
C94 C95 1.383 . S
C94 H117 0.931 . S
C95 C94 1.383 . S
C95 C96 1.394 . S
C96 C95 1.394 . S
C96 C97 1.378 . S
C96 H118 0.931 . S
C97 C92 1.377 . S
C97 C96 1.378 . S
C97 H119 0.931 . S
C98 O108 1.277 . S
C98 O109 1.270 . S
C99 O110 1.251 . S
C99 O111 1.251 1_655 S
O100 C80 1.257 . S
O100 Eu81 2.473 . S
O101 C80 1.260 . S
O101 Eu81 2.480 . S
O102 Eu81 2.430 . S
O102 C88 1.259 . S
O103 Eu81 2.670 . S
O103 C88 1.270 . S
O103 Eu91 2.355 1_455 S
O104 Eu81 2.394 . S
O104 C89 1.251 . S
O105 C89 1.251 . S
O105 Eu91 2.374 1_455 S
O106 C90 1.257 . S
O106 Eu91 2.473 . S
O107 C90 1.260 . S
O107 Eu91 2.480 . S
O108 Eu91 2.425 1_455 S
O108 C98 1.277 . S
O109 Eu81 2.355 . S
O109 Eu91 2.670 1_455 S
O109 C98 1.270 . S
O110 Eu91 2.394 . S
O110 C99 1.251 . S
O111 Eu81 2.374 . S
O111 C99 1.251 1_455 S
H112 C83 0.931 . S
H113 C84 0.931 . S
H114 C86 0.931 . S
H115 C87 0.931 . S
H116 C93 0.931 . S
H117 C94 0.931 . S
H118 C96 0.931 . S
H119 C97 0.931 . S
C120 Eu121 2.835 . S
C120 C122 1.500 . S
C120 O140 1.257 . S
C120 O141 1.260 . S
Eu121 C120 2.835 . S
Eu121 O140 2.473 . S
Eu121 O141 2.480 . S
Eu121 O142 2.430 . S
Eu121 O143 2.670 . S
Eu121 O144 2.394 . S
Eu121 O149 2.355 . S
Eu121 O151 2.374 . S
C122 C120 1.500 . S
C122 C123 1.377 . S
C122 C127 1.377 . S
C123 C122 1.377 . S
C123 C124 1.395 1_455 S
C123 H152 0.931 . S
C124 C123 1.395 1_655 S
C124 C125 1.383 . S
C124 H153 0.931 . S
C125 C124 1.383 . S
C125 C126 1.394 . S
C126 C125 1.394 . S
C126 C127 1.378 1_655 S
C126 H154 0.931 . S
C127 C122 1.377 . S
C127 C126 1.378 1_455 S
C127 H155 0.931 . S
C128 O142 1.259 . S
C128 O143 1.270 . S
C129 O144 1.251 . S
C129 O145 1.251 . S
C130 Eu131 2.835 . S
C130 C132 1.500 . S
C130 O146 1.257 . S
C130 O147 1.260 . S
Eu131 C130 2.835 . S
Eu131 O143 2.355 . S
Eu131 O145 2.374 . S
Eu131 O146 2.473 . S
Eu131 O147 2.480 . S
Eu131 O148 2.430 . S
Eu131 O149 2.670 . S
Eu131 O150 2.394 . S
C132 C130 1.500 . S
C132 C133 1.377 . S
C132 C137 1.377 . S
C133 C132 1.377 . S
C133 C134 1.395 . S
C133 H156 0.931 . S
C134 C133 1.395 . S
C134 C135 1.383 . S
C134 H157 0.931 . S
C135 C134 1.383 . S
C135 C136 1.394 . S
C136 C135 1.394 . S
C136 C137 1.378 . S
C136 H158 0.931 . S
C137 C132 1.377 . S
C137 C136 1.378 . S
C137 H159 0.931 . S
C138 O148 1.259 . S
C138 O149 1.270 . S
C139 O150 1.251 . S
C139 O151 1.251 . S
O140 C120 1.257 . S
O140 Eu121 2.473 . S
O141 C120 1.260 . S
O141 Eu121 2.480 . S
O142 Eu121 2.430 . S
O142 C128 1.259 . S
O143 Eu121 2.670 . S
O143 C128 1.270 . S
O143 Eu131 2.355 . S
O144 Eu121 2.394 . S
O144 C129 1.251 . S
O145 C129 1.251 . S
O145 Eu131 2.374 . S
O146 C130 1.257 . S
O146 Eu131 2.473 . S
O147 C130 1.260 . S
O147 Eu131 2.480 . S
O148 Eu131 2.430 . S
O148 C138 1.259 . S
O149 Eu121 2.355 . S
O149 Eu131 2.670 . S
O149 C138 1.270 . S
O150 Eu131 2.394 . S
O150 C139 1.251 . S
O151 Eu121 2.374 . S
O151 C139 1.251 . S
H152 C123 0.931 . S
H153 C124 0.931 . S
H154 C126 0.931 . S
H155 C127 0.931 . S
H156 C133 0.931 . S
H157 C134 0.931 . S
H158 C136 0.931 . S
H159 C137 0.931 . S
C160 Eu161 2.835 . S
C160 C162 1.500 . S
C160 O180 1.257 . S
C160 O181 1.260 . S
Eu161 C160 2.835 . S
Eu161 O180 2.473 . S
Eu161 O181 2.480 . S
Eu161 O182 2.425 1_455 S
Eu161 O183 2.670 1_455 S
Eu161 O184 2.394 . S
Eu161 O189 2.355 1_455 S
Eu161 O191 2.374 1_455 S
C162 C160 1.500 . S
C162 C163 1.377 . S
C162 C167 1.377 . S
C163 C162 1.377 . S
C163 C164 1.395 . S
C163 H192 0.931 . S
C164 C163 1.395 . S
C164 C165 1.383 . S
C164 H193 0.931 . S
C165 C164 1.383 . S
C165 C166 1.394 . S
C166 C165 1.394 . S
C166 C167 1.378 . S
C166 H194 0.931 . S
C167 C162 1.377 . S
C167 C166 1.378 . S
C167 H195 0.931 . S
C168 O182 1.277 . S
C168 O183 1.270 . S
C169 O184 1.251 . S
C169 O185 1.251 1_455 S
C170 Eu171 2.835 . S
C170 C172 1.500 . S
C170 O186 1.257 . S
C170 O187 1.260 . S
Eu171 C170 2.835 . S
Eu171 O183 2.355 . S
Eu171 O185 2.374 . S
Eu171 O186 2.473 . S
Eu171 O187 2.480 . S
Eu171 O188 2.430 . S
Eu171 O189 2.670 . S
Eu171 O190 2.394 . S
C172 C170 1.500 . S
C172 C173 1.377 . S
C172 C177 1.377 . S
C173 C172 1.377 . S
C173 C174 1.395 . S
C173 H196 0.931 . S
C174 C173 1.395 . S
C174 C175 1.383 . S
C174 H197 0.931 . S
C175 C174 1.383 . S
C175 C176 1.394 . S
C176 C175 1.394 . S
C176 C177 1.378 . S
C176 H198 0.931 . S
C177 C172 1.377 . S
C177 C176 1.378 . S
C177 H199 0.931 . S
C178 O188 1.259 . S
C178 O189 1.270 . S
C179 O190 1.251 . S
C179 O191 1.251 . S
O180 C160 1.257 . S
O180 Eu161 2.473 . S
O181 C160 1.260 . S
O181 Eu161 2.480 . S
O182 Eu161 2.425 1_655 S
O182 C168 1.277 . S
O183 Eu161 2.670 1_655 S
O183 C168 1.270 . S
O183 Eu171 2.355 . S
O184 Eu161 2.394 . S
O184 C169 1.251 . S
O185 C169 1.251 1_655 S
O185 Eu171 2.374 . S
O186 C170 1.257 . S
O186 Eu171 2.473 . S
O187 C170 1.260 . S
O187 Eu171 2.480 . S
O188 Eu171 2.430 . S
O188 C178 1.259 . S
O189 Eu161 2.355 1_655 S
O189 Eu171 2.670 . S
O189 C178 1.270 . S
O190 Eu171 2.394 . S
O190 C179 1.251 . S
O191 Eu161 2.374 1_655 S
O191 C179 1.251 . S
H192 C163 0.931 . S
H193 C164 0.931 . S
H194 C166 0.931 . S
H195 C167 0.931 . S
H196 C173 0.931 . S
H197 C174 0.931 . S
H198 C176 0.931 . S
H199 C177 0.931 . S
C200 Eu201 2.835 . S
C200 C202 1.500 . S
C200 O220 1.257 . S
C200 O221 1.260 . S
Eu201 C200 2.835 . S
Eu201 O220 2.473 . S
Eu201 O221 2.480 . S
Eu201 O222 2.430 . S
Eu201 O223 2.670 . S
Eu201 O224 2.394 . S
Eu201 O229 2.355 . S
Eu201 O231 2.374 . S
C202 C200 1.500 . S
C202 C203 1.377 . S
C202 C207 1.377 . S
C203 C202 1.377 . S
C203 C204 1.395 . S
C203 H232 0.931 . S
C204 C203 1.395 . S
C204 C205 1.383 . S
C204 H233 0.931 . S
C205 C204 1.383 . S
C205 C206 1.394 . S
C206 C205 1.394 . S
C206 C207 1.378 . S
C206 H234 0.931 . S
C207 C202 1.377 . S
C207 C206 1.378 . S
C207 H235 0.931 . S
C208 O222 1.259 . S
C208 O223 1.270 . S
C209 O224 1.251 . S
C209 O225 1.251 . S
C210 Eu211 2.835 . S
C210 C212 1.500 . S
C210 O226 1.257 . S
C210 O227 1.260 . S
Eu211 C210 2.835 . S
Eu211 O223 2.355 . S
Eu211 O225 2.374 . S
Eu211 O226 2.473 . S
Eu211 O227 2.480 . S
Eu211 O228 2.430 . S
Eu211 O229 2.670 . S
Eu211 O230 2.394 . S
C212 C210 1.500 . S
C212 C213 1.377 . S
C212 C217 1.377 . S
C213 C212 1.377 . S
C213 C214 1.395 1_655 S
C213 H236 0.931 . S
C214 C213 1.395 1_455 S
C214 C215 1.383 . S
C214 H237 0.931 . S
C215 C214 1.383 . S
C215 C216 1.394 . S
C216 C215 1.394 . S
C216 C217 1.378 1_455 S
C216 H238 0.931 . S
C217 C212 1.377 . S
C217 C216 1.378 1_655 S
C217 H239 0.931 . S
C218 O228 1.259 . S
C218 O229 1.270 . S
C219 O230 1.251 . S
C219 O231 1.251 . S
O220 C200 1.257 . S
O220 Eu201 2.473 . S
O221 C200 1.260 . S
O221 Eu201 2.480 . S
O222 Eu201 2.430 . S
O222 C208 1.259 . S
O223 Eu201 2.670 . S
O223 C208 1.270 . S
O223 Eu211 2.355 . S
O224 Eu201 2.394 . S
O224 C209 1.251 . S
O225 C209 1.251 . S
O225 Eu211 2.374 . S
O226 C210 1.257 . S
O226 Eu211 2.473 . S
O227 C210 1.260 . S
O227 Eu211 2.480 . S
O228 Eu211 2.430 . S
O228 C218 1.259 . S
O229 Eu201 2.355 . S
O229 Eu211 2.670 . S
O229 C218 1.270 . S
O230 Eu211 2.394 . S
O230 C219 1.251 . S
O231 Eu201 2.374 . S
O231 C219 1.251 . S
H232 C203 0.931 . S
H233 C204 0.931 . S
H234 C206 0.931 . S
H235 C207 0.931 . S
H236 C213 0.931 . S
H237 C214 0.931 . S
H238 C216 0.931 . S
H239 C217 0.931 . S
C240 Eu241 2.835 . S
C240 C242 1.500 . S
C240 O260 1.257 . S
C240 O261 1.260 . S
Eu241 C240 2.835 . S
Eu241 O260 2.473 . S
Eu241 O261 2.480 . S
Eu241 O262 2.425 1_455 S
Eu241 O263 2.670 1_455 S
Eu241 O264 2.394 . S
Eu241 O269 2.355 1_455 S
Eu241 O271 2.374 1_455 S
C242 C240 1.500 . S
C242 C243 1.377 . S
C242 C247 1.377 . S
C243 C242 1.377 . S
C243 C244 1.395 . S
C243 H272 0.931 . S
C244 C243 1.395 . S
C244 C245 1.383 . S
C244 H273 0.931 . S
C245 C244 1.383 . S
C245 C246 1.394 . S
C246 C245 1.394 . S
C246 C247 1.378 . S
C246 H274 0.931 . S
C247 C242 1.377 . S
C247 C246 1.378 . S
C247 H275 0.931 . S
C248 O262 1.277 . S
C248 O263 1.270 . S
C249 O264 1.251 . S
C249 O265 1.251 1_455 S
C250 Eu251 2.835 . S
C250 C252 1.500 . S
C250 O266 1.257 . S
C250 O267 1.260 . S
Eu251 C250 2.835 . S
Eu251 O263 2.355 . S
Eu251 O265 2.374 . S
Eu251 O266 2.473 . S
Eu251 O267 2.480 . S
Eu251 O268 2.430 . S
Eu251 O269 2.670 . S
Eu251 O270 2.394 . S
C252 C250 1.500 . S
C252 C253 1.377 . S
C252 C257 1.377 . S
C253 C252 1.377 . S
C253 C254 1.395 . S
C253 H276 0.931 . S
C254 C253 1.395 . S
C254 C255 1.383 . S
C254 H277 0.931 . S
C255 C254 1.383 . S
C255 C256 1.394 . S
C256 C255 1.394 . S
C256 C257 1.378 . S
C256 H278 0.931 . S
C257 C252 1.377 . S
C257 C256 1.378 . S
C257 H279 0.931 . S
C258 O268 1.259 . S
C258 O269 1.270 . S
C259 O270 1.251 . S
C259 O271 1.251 . S
O260 C240 1.257 . S
O260 Eu241 2.473 . S
O261 C240 1.260 . S
O261 Eu241 2.480 . S
O262 Eu241 2.425 1_655 S
O262 C248 1.277 . S
O263 Eu241 2.670 1_655 S
O263 C248 1.270 . S
O263 Eu251 2.355 . S
O264 Eu241 2.394 . S
O264 C249 1.251 . S
O265 C249 1.251 1_655 S
O265 Eu251 2.374 . S
O266 C250 1.257 . S
O266 Eu251 2.473 . S
O267 C250 1.260 . S
O267 Eu251 2.480 . S
O268 Eu251 2.430 . S
O268 C258 1.259 . S
O269 Eu241 2.355 1_655 S
O269 Eu251 2.670 . S
O269 C258 1.270 . S
O270 Eu251 2.394 . S
O270 C259 1.251 . S
O271 Eu241 2.374 1_655 S
O271 C259 1.251 . S
H272 C243 0.931 . S
H273 C244 0.931 . S
H274 C246 0.931 . S
H275 C247 0.931 . S
H276 C253 0.931 . S
H277 C254 0.931 . S
H278 C256 0.931 . S
H279 C257 0.931 . S
C280 Eu281 2.835 . S
C280 C282 1.500 . S
C280 O300 1.257 . S
C280 O301 1.260 . S
Eu281 C280 2.835 . S
Eu281 O300 2.473 . S
Eu281 O301 2.480 . S
Eu281 O302 2.430 . S
Eu281 O303 2.670 . S
Eu281 O304 2.394 . S
Eu281 O309 2.355 . S
Eu281 O311 2.374 . S
C282 C280 1.500 . S
C282 C283 1.377 . S
C282 C287 1.377 . S
C283 C282 1.377 . S
C283 C284 1.395 . S
C283 H312 0.931 . S
C284 C283 1.395 . S
C284 C285 1.383 . S
C284 H313 0.931 . S
C285 C284 1.383 . S
C285 C286 1.394 . S
C286 C285 1.394 . S
C286 C287 1.378 . S
C286 H314 0.931 . S
C287 C282 1.377 . S
C287 C286 1.378 . S
C287 H315 0.931 . S
C288 O302 1.259 . S
C288 O303 1.270 . S
C289 O304 1.251 . S
C289 O305 1.251 . S
C290 Eu291 2.835 . S
C290 C292 1.500 . S
C290 O306 1.257 . S
C290 O307 1.260 . S
Eu291 C290 2.835 . S
Eu291 O303 2.355 . S
Eu291 O305 2.374 . S
Eu291 O306 2.473 . S
Eu291 O307 2.480 . S
Eu291 O308 2.430 . S
Eu291 O309 2.670 . S
Eu291 O310 2.394 . S
C292 C290 1.500 . S
C292 C293 1.377 . S
C292 C297 1.377 . S
C293 C292 1.377 . S
C293 C294 1.395 1_655 S
C293 H316 0.931 . S
C294 C293 1.395 1_455 S
C294 C295 1.383 . S
C294 H317 0.931 . S
C295 C294 1.383 . S
C295 C296 1.394 . S
C296 C295 1.394 . S
C296 C297 1.378 1_455 S
C296 H318 0.931 . S
C297 C292 1.377 . S
C297 C296 1.378 1_655 S
C297 H319 0.931 . S
C298 O308 1.259 . S
C298 O309 1.270 . S
C299 O310 1.251 . S
C299 O311 1.251 . S
O300 C280 1.257 . S
O300 Eu281 2.473 . S
O301 C280 1.260 . S
O301 Eu281 2.480 . S
O302 Eu281 2.430 . S
O302 C288 1.259 . S
O303 Eu281 2.670 . S
O303 C288 1.270 . S
O303 Eu291 2.355 . S
O304 Eu281 2.394 . S
O304 C289 1.251 . S
O305 C289 1.251 . S
O305 Eu291 2.374 . S
O306 C290 1.257 . S
O306 Eu291 2.473 . S
O307 C290 1.260 . S
O307 Eu291 2.480 . S
O308 Eu291 2.430 . S
O308 C298 1.259 . S
O309 Eu281 2.355 . S
O309 Eu291 2.670 . S
O309 C298 1.270 . S
O310 Eu291 2.394 . S
O310 C299 1.251 . S
O311 Eu281 2.374 . S
O311 C299 1.251 . S
H312 C283 0.931 . S
H313 C284 0.931 . S
H314 C286 0.931 . S
H315 C287 0.931 . S
H316 C293 0.931 . S
H317 C294 0.931 . S
H318 C296 0.931 . S
H319 C297 0.931 . S
C320 Eu321 2.835 . S
C320 C322 1.500 . S
C320 O340 1.257 . S
C320 O341 1.260 . S
Eu321 C320 2.835 . S
Eu321 O340 2.473 . S
Eu321 O341 2.480 . S
Eu321 O342 2.430 . S
Eu321 O343 2.670 . S
Eu321 O344 2.394 1_565 S
Eu321 O349 2.355 . S
Eu321 O351 2.374 . S
C322 C320 1.500 . S
C322 C323 1.377 . S
C322 C327 1.377 1_565 S
C323 C322 1.377 . S
C323 C324 1.395 . S
C323 H352 0.931 . S
C324 C323 1.395 . S
C324 C325 1.383 1_565 S
C324 H353 0.931 . S
C325 C324 1.383 1_545 S
C325 C326 1.394 . S
C326 C325 1.394 . S
C326 C327 1.378 . S
C326 H354 0.931 . S
C327 C322 1.377 1_545 S
C327 C326 1.378 . S
C327 H355 0.931 . S
C328 O342 1.259 . S
C328 O343 1.270 . S
C329 O344 1.251 . S
C329 O345 1.251 . S
C330 Eu331 2.835 1_565 S
C330 C332 1.500 . S
C330 O346 1.257 . S
C330 O347 1.261 . S
Eu331 C330 2.835 1_545 S
Eu331 O343 2.355 1_645 S
Eu331 O345 2.374 1_655 S
Eu331 O346 2.473 1_545 S
Eu331 O347 2.479 1_545 S
Eu331 O348 2.428 1_655 S
Eu331 O349 2.670 1_645 S
Eu331 O350 2.394 1_545 S
C332 C330 1.500 . S
C332 C333 1.377 . S
C332 C337 1.377 . S
C333 C332 1.377 . S
C333 C334 1.395 . S
C333 H356 0.931 . S
C334 C333 1.395 . S
C334 C335 1.383 . S
C334 H357 0.931 . S
C335 C334 1.383 . S
C335 C336 1.394 . S
C336 C335 1.394 . S
C336 C337 1.378 . S
C336 H358 0.931 . S
C337 C332 1.377 . S
C337 C336 1.378 . S
C337 H359 0.931 . S
C338 O348 1.269 1_565 S
C338 O349 1.270 . S
C339 O350 1.251 . S
C339 O351 1.251 1_655 S
O340 C320 1.257 . S
O340 Eu321 2.473 . S
O341 C320 1.260 . S
O341 Eu321 2.480 . S
O342 Eu321 2.430 . S
O342 C328 1.259 . S
O343 Eu321 2.670 . S
O343 C328 1.270 . S
O343 Eu331 2.355 1_465 S
O344 Eu321 2.394 1_545 S
O344 C329 1.251 . S
O345 C329 1.251 . S
O345 Eu331 2.374 1_455 S
O346 C330 1.257 . S
O346 Eu331 2.473 1_565 S
O347 C330 1.261 . S
O347 Eu331 2.479 1_565 S
O348 Eu331 2.428 1_455 S
O348 C338 1.269 1_545 S
O349 Eu321 2.355 . S
O349 Eu331 2.670 1_465 S
O349 C338 1.270 . S
O350 Eu331 2.394 1_565 S
O350 C339 1.251 . S
O351 Eu321 2.374 . S
O351 C339 1.251 1_455 S
H352 C323 0.931 . S
H353 C324 0.931 . S
H354 C326 0.931 . S
H355 C327 0.931 . S
H356 C333 0.931 . S
H357 C334 0.931 . S
H358 C336 0.931 . S
H359 C337 0.931 . S
C360 Eu361 2.835 . S
C360 C362 1.500 . S
C360 O380 1.257 . S
C360 O381 1.260 . S
Eu361 C360 2.835 . S
Eu361 O380 2.473 . S
Eu361 O381 2.480 . S
Eu361 O382 2.430 . S
Eu361 O383 2.670 . S
Eu361 O384 2.394 . S
Eu361 O389 2.355 . S
Eu361 O391 2.374 . S
C362 C360 1.500 . S
C362 C363 1.377 . S
C362 C367 1.377 . S
C363 C362 1.377 . S
C363 C364 1.395 1_455 S
C363 H392 0.931 . S
C364 C363 1.395 1_655 S
C364 C365 1.383 . S
C364 H393 0.931 . S
C365 C364 1.383 . S
C365 C366 1.394 . S
C366 C365 1.394 . S
C366 C367 1.378 1_655 S
C366 H394 0.931 . S
C367 C362 1.377 . S
C367 C366 1.378 1_455 S
C367 H395 0.931 . S
C368 O382 1.259 . S
C368 O383 1.270 . S
C369 O384 1.251 . S
C369 O385 1.251 . S
C370 Eu371 2.835 . S
C370 C372 1.500 . S
C370 O386 1.257 . S
C370 O387 1.260 . S
Eu371 C370 2.835 . S
Eu371 O383 2.355 . S
Eu371 O385 2.374 . S
Eu371 O386 2.473 . S
Eu371 O387 2.480 . S
Eu371 O388 2.430 . S
Eu371 O389 2.670 . S
Eu371 O390 2.394 . S
C372 C370 1.500 . S
C372 C373 1.377 . S
C372 C377 1.377 . S
C373 C372 1.377 . S
C373 C374 1.395 . S
C373 H396 0.931 . S
C374 C373 1.395 . S
C374 C375 1.383 . S
C374 H397 0.931 . S
C375 C374 1.383 . S
C375 C376 1.394 . S
C376 C375 1.394 . S
C376 C377 1.378 . S
C376 H398 0.931 . S
C377 C372 1.377 . S
C377 C376 1.378 . S
C377 H399 0.931 . S
C378 O388 1.259 . S
C378 O389 1.270 . S
C379 O390 1.251 . S
C379 O391 1.251 . S
O380 C360 1.257 . S
O380 Eu361 2.473 . S
O381 C360 1.260 . S
O381 Eu361 2.480 . S
O382 Eu361 2.430 . S
O382 C368 1.259 . S
O383 Eu361 2.670 . S
O383 C368 1.270 . S
O383 Eu371 2.355 . S
O384 Eu361 2.394 . S
O384 C369 1.251 . S
O385 C369 1.251 . S
O385 Eu371 2.374 . S
O386 C370 1.257 . S
O386 Eu371 2.473 . S
O387 C370 1.260 . S
O387 Eu371 2.480 . S
O388 Eu371 2.430 . S
O388 C378 1.259 . S
O389 Eu361 2.355 . S
O389 Eu371 2.670 . S
O389 C378 1.270 . S
O390 Eu371 2.394 . S
O390 C379 1.251 . S
O391 Eu361 2.374 . S
O391 C379 1.251 . S
H392 C363 0.931 . S
H393 C364 0.931 . S
H394 C366 0.931 . S
H395 C367 0.931 . S
H396 C373 0.931 . S
H397 C374 0.931 . S
H398 C376 0.931 . S
H399 C377 0.931 . S
C400 Eu401 2.835 . S
C400 C402 1.500 . S
C400 O420 1.257 . S
C400 O421 1.260 . S
Eu401 C400 2.835 . S
Eu401 O420 2.473 . S
Eu401 O421 2.480 . S
Eu401 O422 2.430 . S
Eu401 O423 2.670 . S
Eu401 O424 2.394 . S
Eu401 O429 2.355 . S
Eu401 O431 2.374 . S
C402 C400 1.500 . S
C402 C403 1.377 . S
C402 C407 1.377 . S
C403 C402 1.377 . S
C403 C404 1.395 . S
C403 H432 0.931 . S
C404 C403 1.395 . S
C404 C405 1.383 . S
C404 H433 0.931 . S
C405 C404 1.383 . S
C405 C406 1.394 . S
C406 C405 1.394 . S
C406 C407 1.378 . S
C406 H434 0.931 . S
C407 C402 1.377 . S
C407 C406 1.378 . S
C407 H435 0.931 . S
C408 O422 1.259 . S
C408 O423 1.270 . S
C409 O424 1.251 . S
C409 O425 1.251 . S
C410 Eu411 2.835 . S
C410 C412 1.500 . S
C410 O426 1.257 . S
C410 O427 1.260 . S
Eu411 C410 2.835 . S
Eu411 O423 2.355 1_655 S
Eu411 O425 2.374 1_655 S
Eu411 O426 2.473 . S
Eu411 O427 2.480 . S
Eu411 O428 2.425 1_655 S
Eu411 O429 2.670 1_655 S
Eu411 O430 2.394 . S
C412 C410 1.500 . S
C412 C413 1.377 . S
C412 C417 1.377 . S
C413 C412 1.377 . S
C413 C414 1.395 . S
C413 H436 0.931 . S
C414 C413 1.395 . S
C414 C415 1.383 . S
C414 H437 0.931 . S
C415 C414 1.383 . S
C415 C416 1.394 . S
C416 C415 1.394 . S
C416 C417 1.378 . S
C416 H438 0.931 . S
C417 C412 1.377 . S
C417 C416 1.378 . S
C417 H439 0.931 . S
C418 O428 1.277 . S
C418 O429 1.270 . S
C419 O430 1.251 . S
C419 O431 1.251 1_655 S
O420 C400 1.257 . S
O420 Eu401 2.473 . S
O421 C400 1.260 . S
O421 Eu401 2.480 . S
O422 Eu401 2.430 . S
O422 C408 1.259 . S
O423 Eu401 2.670 . S
O423 C408 1.270 . S
O423 Eu411 2.355 1_455 S
O424 Eu401 2.394 . S
O424 C409 1.251 . S
O425 C409 1.251 . S
O425 Eu411 2.374 1_455 S
O426 C410 1.257 . S
O426 Eu411 2.473 . S
O427 C410 1.260 . S
O427 Eu411 2.480 . S
O428 Eu411 2.425 1_455 S
O428 C418 1.277 . S
O429 Eu401 2.355 . S
O429 Eu411 2.670 1_455 S
O429 C418 1.270 . S
O430 Eu411 2.394 . S
O430 C419 1.251 . S
O431 Eu401 2.374 . S
O431 C419 1.251 1_455 S
H432 C403 0.931 . S
H433 C404 0.931 . S
H434 C406 0.931 . S
H435 C407 0.931 . S
H436 C413 0.931 . S
H437 C414 0.931 . S
H438 C416 0.931 . S
H439 C417 0.931 . S
C440 Eu441 2.835 . S
C440 C442 1.500 . S
C440 O460 1.257 . S
C440 O461 1.260 . S
Eu441 C440 2.835 . S
Eu441 O460 2.473 . S
Eu441 O461 2.480 . S
Eu441 O462 2.430 . S
Eu441 O463 2.670 . S
Eu441 O464 2.394 1_565 S
Eu441 O469 2.355 . S
Eu441 O471 2.374 . S
C442 C440 1.500 . S
C442 C443 1.377 . S
C442 C447 1.377 1_565 S
C443 C442 1.377 . S
C443 C444 1.395 1_455 S
C443 H472 0.931 . S
C444 C443 1.395 1_655 S
C444 C445 1.383 1_565 S
C444 H473 0.931 . S
C445 C444 1.383 1_545 S
C445 C446 1.394 . S
C446 C445 1.394 . S
C446 C447 1.378 1_655 S
C446 H474 0.931 . S
C447 C442 1.377 1_545 S
C447 C446 1.378 1_455 S
C447 H475 0.931 . S
C448 O462 1.259 . S
C448 O463 1.270 . S
C449 O464 1.251 . S
C449 O465 1.251 . S
C450 Eu451 2.835 1_565 S
C450 C452 1.500 . S
C450 O466 1.257 . S
C450 O467 1.261 . S
Eu451 C450 2.835 1_545 S
Eu451 O463 2.355 1_545 S
Eu451 O465 2.374 . S
Eu451 O466 2.473 1_545 S
Eu451 O467 2.479 1_545 S
Eu451 O468 2.434 . S
Eu451 O469 2.670 1_545 S
Eu451 O470 2.394 1_545 S
C452 C450 1.500 . S
C452 C453 1.377 . S
C452 C457 1.377 . S
C453 C452 1.377 . S
C453 C454 1.395 . S
C453 H476 0.931 . S
C454 C453 1.395 . S
C454 C455 1.383 . S
C454 H477 0.931 . S
C455 C454 1.383 . S
C455 C456 1.394 . S
C456 C455 1.394 . S
C456 C457 1.378 . S
C456 H478 0.931 . S
C457 C452 1.377 . S
C457 C456 1.378 . S
C457 H479 0.931 . S
C458 O468 1.252 1_565 S
C458 O469 1.270 . S
C459 O470 1.251 . S
C459 O471 1.251 . S
O460 C440 1.257 . S
O460 Eu441 2.473 . S
O461 C440 1.260 . S
O461 Eu441 2.480 . S
O462 Eu441 2.430 . S
O462 C448 1.259 . S
O463 Eu441 2.670 . S
O463 C448 1.270 . S
O463 Eu451 2.355 1_565 S
O464 Eu441 2.394 1_545 S
O464 C449 1.251 . S
O465 C449 1.251 . S
O465 Eu451 2.374 . S
O466 C450 1.257 . S
O466 Eu451 2.473 1_565 S
O467 C450 1.261 . S
O467 Eu451 2.479 1_565 S
O468 Eu451 2.434 . S
O468 C458 1.252 1_545 S
O469 Eu441 2.355 . S
O469 Eu451 2.670 1_565 S
O469 C458 1.270 . S
O470 Eu451 2.394 1_565 S
O470 C459 1.251 . S
O471 Eu441 2.374 . S
O471 C459 1.251 . S
H472 C443 0.931 . S
H473 C444 0.931 . S
H474 C446 0.931 . S
H475 C447 0.931 . S
H476 C453 0.931 . S
H477 C454 0.931 . S
H478 C456 0.931 . S
H479 C457 0.931 . S
C480 Eu481 2.835 1_545 S
C480 C482 1.500 . S
C480 O500 1.257 . S
C480 O501 1.261 . S
Eu481 C480 2.835 1_565 S
Eu481 O500 2.473 1_565 S
Eu481 O501 2.479 1_565 S
Eu481 O502 2.428 1_455 S
Eu481 O503 2.670 1_465 S
Eu481 O504 2.394 1_565 S
Eu481 O509 2.355 1_465 S
Eu481 O511 2.374 1_455 S
C482 C480 1.500 . S
C482 C483 1.377 . S
C482 C487 1.377 . S
C483 C482 1.377 . S
C483 C484 1.395 . S
C483 H512 0.931 . S
C484 C483 1.395 . S
C484 C485 1.383 . S
C484 H513 0.931 . S
C485 C484 1.383 . S
C485 C486 1.394 . S
C486 C485 1.394 . S
C486 C487 1.378 . S
C486 H514 0.931 . S
C487 C482 1.377 . S
C487 C486 1.378 . S
C487 H515 0.931 . S
C488 O502 1.269 1_545 S
C488 O503 1.270 . S
C489 O504 1.251 . S
C489 O505 1.251 1_455 S
C490 Eu491 2.835 . S
C490 C492 1.500 . S
C490 O506 1.257 . S
C490 O507 1.260 . S
Eu491 C490 2.835 . S
Eu491 O503 2.355 . S
Eu491 O505 2.374 . S
Eu491 O506 2.473 . S
Eu491 O507 2.480 . S
Eu491 O508 2.430 . S
Eu491 O509 2.670 . S
Eu491 O510 2.394 1_545 S
C492 C490 1.500 . S
C492 C493 1.377 . S
C492 C497 1.377 1_545 S
C493 C492 1.377 . S
C493 C494 1.395 . S
C493 H516 0.931 . S
C494 C493 1.395 . S
C494 C495 1.383 1_545 S
C494 H517 0.931 . S
C495 C494 1.383 1_565 S
C495 C496 1.394 . S
C496 C495 1.394 . S
C496 C497 1.378 . S
C496 H518 0.931 . S
C497 C492 1.377 1_565 S
C497 C496 1.378 . S
C497 H519 0.931 . S
C498 O508 1.259 . S
C498 O509 1.270 . S
C499 O510 1.251 . S
C499 O511 1.251 . S
O500 C480 1.257 . S
O500 Eu481 2.473 1_545 S
O501 C480 1.261 . S
O501 Eu481 2.479 1_545 S
O502 Eu481 2.428 1_655 S
O502 C488 1.269 1_565 S
O503 Eu481 2.670 1_645 S
O503 C488 1.270 . S
O503 Eu491 2.355 . S
O504 Eu481 2.394 1_545 S
O504 C489 1.251 . S
O505 C489 1.251 1_655 S
O505 Eu491 2.374 . S
O506 C490 1.257 . S
O506 Eu491 2.473 . S
O507 C490 1.260 . S
O507 Eu491 2.480 . S
O508 Eu491 2.430 . S
O508 C498 1.259 . S
O509 Eu481 2.355 1_645 S
O509 Eu491 2.670 . S
O509 C498 1.270 . S
O510 Eu491 2.394 1_565 S
O510 C499 1.251 . S
O511 Eu481 2.374 1_655 S
O511 C499 1.251 . S
H512 C483 0.931 . S
H513 C484 0.931 . S
H514 C486 0.931 . S
H515 C487 0.931 . S
H516 C493 0.931 . S
H517 C494 0.931 . S
H518 C496 0.931 . S
H519 C497 0.931 . S
C520 Eu521 2.835 . S
C520 C522 1.500 . S
C520 O540 1.257 . S
C520 O541 1.260 . S
Eu521 C520 2.835 . S
Eu521 O540 2.473 . S
Eu521 O541 2.480 . S
Eu521 O542 2.430 . S
Eu521 O543 2.670 . S
Eu521 O544 2.394 . S
Eu521 O549 2.355 . S
Eu521 O551 2.374 . S
C522 C520 1.500 . S
C522 C523 1.377 . S
C522 C527 1.377 . S
C523 C522 1.377 . S
C523 C524 1.395 . S
C523 H552 0.931 . S
C524 C523 1.395 . S
C524 C525 1.383 . S
C524 H553 0.931 . S
C525 C524 1.383 . S
C525 C526 1.394 . S
C526 C525 1.394 . S
C526 C527 1.378 . S
C526 H554 0.931 . S
C527 C522 1.377 . S
C527 C526 1.378 . S
C527 H555 0.931 . S
C528 O542 1.259 . S
C528 O543 1.270 . S
C529 O544 1.251 . S
C529 O545 1.251 . S
C530 Eu531 2.835 . S
C530 C532 1.500 . S
C530 O546 1.257 . S
C530 O547 1.260 . S
Eu531 C530 2.835 . S
Eu531 O543 2.355 . S
Eu531 O545 2.374 . S
Eu531 O546 2.473 . S
Eu531 O547 2.480 . S
Eu531 O548 2.430 . S
Eu531 O549 2.670 . S
Eu531 O550 2.394 . S
C532 C530 1.500 . S
C532 C533 1.377 . S
C532 C537 1.377 . S
C533 C532 1.377 . S
C533 C534 1.395 1_655 S
C533 H556 0.931 . S
C534 C533 1.395 1_455 S
C534 C535 1.383 . S
C534 H557 0.931 . S
C535 C534 1.383 . S
C535 C536 1.394 . S
C536 C535 1.394 . S
C536 C537 1.378 1_455 S
C536 H558 0.931 . S
C537 C532 1.377 . S
C537 C536 1.378 1_655 S
C537 H559 0.931 . S
C538 O548 1.259 . S
C538 O549 1.270 . S
C539 O550 1.251 . S
C539 O551 1.251 . S
O540 C520 1.257 . S
O540 Eu521 2.473 . S
O541 C520 1.260 . S
O541 Eu521 2.480 . S
O542 Eu521 2.430 . S
O542 C528 1.259 . S
O543 Eu521 2.670 . S
O543 C528 1.270 . S
O543 Eu531 2.355 . S
O544 Eu521 2.394 . S
O544 C529 1.251 . S
O545 C529 1.251 . S
O545 Eu531 2.374 . S
O546 C530 1.257 . S
O546 Eu531 2.473 . S
O547 C530 1.260 . S
O547 Eu531 2.480 . S
O548 Eu531 2.430 . S
O548 C538 1.259 . S
O549 Eu521 2.355 . S
O549 Eu531 2.670 . S
O549 C538 1.270 . S
O550 Eu531 2.394 . S
O550 C539 1.251 . S
O551 Eu521 2.374 . S
O551 C539 1.251 . S
H552 C523 0.931 . S
H553 C524 0.931 . S
H554 C526 0.931 . S
H555 C527 0.931 . S
H556 C533 0.931 . S
H557 C534 0.931 . S
H558 C536 0.931 . S
H559 C537 0.931 . S
C560 Eu561 2.835 . S
C560 C562 1.500 . S
C560 O580 1.257 . S
C560 O581 1.260 . S
Eu561 C560 2.835 . S
Eu561 O580 2.473 . S
Eu561 O581 2.480 . S
Eu561 O582 2.425 1_455 S
Eu561 O583 2.670 1_455 S
Eu561 O584 2.394 . S
Eu561 O589 2.355 1_455 S
Eu561 O591 2.374 1_455 S
C562 C560 1.500 . S
C562 C563 1.377 . S
C562 C567 1.377 . S
C563 C562 1.377 . S
C563 C564 1.395 . S
C563 H592 0.931 . S
C564 C563 1.395 . S
C564 C565 1.383 . S
C564 H593 0.931 . S
C565 C564 1.383 . S
C565 C566 1.394 . S
C566 C565 1.394 . S
C566 C567 1.378 . S
C566 H594 0.931 . S
C567 C562 1.377 . S
C567 C566 1.378 . S
C567 H595 0.931 . S
C568 O582 1.277 . S
C568 O583 1.270 . S
C569 O584 1.251 . S
C569 O585 1.251 1_455 S
C570 Eu571 2.835 . S
C570 C572 1.500 . S
C570 O586 1.257 . S
C570 O587 1.260 . S
Eu571 C570 2.835 . S
Eu571 O583 2.355 . S
Eu571 O585 2.374 . S
Eu571 O586 2.473 . S
Eu571 O587 2.480 . S
Eu571 O588 2.430 . S
Eu571 O589 2.670 . S
Eu571 O590 2.394 . S
C572 C570 1.500 . S
C572 C573 1.377 . S
C572 C577 1.377 . S
C573 C572 1.377 . S
C573 C574 1.395 . S
C573 H596 0.931 . S
C574 C573 1.395 . S
C574 C575 1.383 . S
C574 H597 0.931 . S
C575 C574 1.383 . S
C575 C576 1.394 . S
C576 C575 1.394 . S
C576 C577 1.378 . S
C576 H598 0.931 . S
C577 C572 1.377 . S
C577 C576 1.378 . S
C577 H599 0.931 . S
C578 O588 1.259 . S
C578 O589 1.270 . S
C579 O590 1.251 . S
C579 O591 1.251 . S
O580 C560 1.257 . S
O580 Eu561 2.473 . S
O581 C560 1.260 . S
O581 Eu561 2.480 . S
O582 Eu561 2.425 1_655 S
O582 C568 1.277 . S
O583 Eu561 2.670 1_655 S
O583 C568 1.270 . S
O583 Eu571 2.355 . S
O584 Eu561 2.394 . S
O584 C569 1.251 . S
O585 C569 1.251 1_655 S
O585 Eu571 2.374 . S
O586 C570 1.257 . S
O586 Eu571 2.473 . S
O587 C570 1.260 . S
O587 Eu571 2.480 . S
O588 Eu571 2.430 . S
O588 C578 1.259 . S
O589 Eu561 2.355 1_655 S
O589 Eu571 2.670 . S
O589 C578 1.270 . S
O590 Eu571 2.394 . S
O590 C579 1.251 . S
O591 Eu561 2.374 1_655 S
O591 C579 1.251 . S
H592 C563 0.931 . S
H593 C564 0.931 . S
H594 C566 0.931 . S
H595 C567 0.931 . S
H596 C573 0.931 . S
H597 C574 0.931 . S
H598 C576 0.931 . S
H599 C577 0.931 . S
C600 Eu601 2.835 1_545 S
C600 C602 1.500 . S
C600 O620 1.257 . S
C600 O621 1.261 . S
Eu601 C600 2.835 1_565 S
Eu601 O620 2.473 1_565 S
Eu601 O621 2.479 1_565 S
Eu601 O622 2.434 . S
Eu601 O623 2.670 1_565 S
Eu601 O624 2.394 1_565 S
Eu601 O629 2.355 1_565 S
Eu601 O631 2.374 . S
C602 C600 1.500 . S
C602 C603 1.377 . S
C602 C607 1.377 . S
C603 C602 1.377 . S
C603 C604 1.395 . S
C603 H632 0.931 . S
C604 C603 1.395 . S
C604 C605 1.383 . S
C604 H633 0.931 . S
C605 C604 1.383 . S
C605 C606 1.394 . S
C606 C605 1.394 . S
C606 C607 1.378 . S
C606 H634 0.931 . S
C607 C602 1.377 . S
C607 C606 1.378 . S
C607 H635 0.931 . S
C608 O622 1.252 1_545 S
C608 O623 1.270 . S
C609 O624 1.251 . S
C609 O625 1.251 . S
C610 Eu611 2.835 . S
C610 C612 1.500 . S
C610 O626 1.257 . S
C610 O627 1.260 . S
Eu611 C610 2.835 . S
Eu611 O623 2.355 . S
Eu611 O625 2.374 . S
Eu611 O626 2.473 . S
Eu611 O627 2.480 . S
Eu611 O628 2.430 . S
Eu611 O629 2.670 . S
Eu611 O630 2.394 1_545 S
C612 C610 1.500 . S
C612 C613 1.377 . S
C612 C617 1.377 1_545 S
C613 C612 1.377 . S
C613 C614 1.395 1_655 S
C613 H636 0.931 . S
C614 C613 1.395 1_455 S
C614 C615 1.383 1_545 S
C614 H637 0.931 . S
C615 C614 1.383 1_565 S
C615 C616 1.394 . S
C616 C615 1.394 . S
C616 C617 1.378 1_455 S
C616 H638 0.931 . S
C617 C612 1.377 1_565 S
C617 C616 1.378 1_655 S
C617 H639 0.931 . S
C618 O628 1.259 . S
C618 O629 1.270 . S
C619 O630 1.251 . S
C619 O631 1.251 . S
O620 C600 1.257 . S
O620 Eu601 2.473 1_545 S
O621 C600 1.261 . S
O621 Eu601 2.479 1_545 S
O622 Eu601 2.434 . S
O622 C608 1.252 1_565 S
O623 Eu601 2.670 1_545 S
O623 C608 1.270 . S
O623 Eu611 2.355 . S
O624 Eu601 2.394 1_545 S
O624 C609 1.251 . S
O625 C609 1.251 . S
O625 Eu611 2.374 . S
O626 C610 1.257 . S
O626 Eu611 2.473 . S
O627 C610 1.260 . S
O627 Eu611 2.480 . S
O628 Eu611 2.430 . S
O628 C618 1.259 . S
O629 Eu601 2.355 1_545 S
O629 Eu611 2.670 . S
O629 C618 1.270 . S
O630 Eu611 2.394 1_565 S
O630 C619 1.251 . S
O631 Eu601 2.374 . S
O631 C619 1.251 . S
H632 C603 0.931 . S
H633 C604 0.931 . S
H634 C606 0.931 . S
H635 C607 0.931 . S
H636 C613 0.931 . S
H637 C614 0.931 . S
H638 C616 0.931 . S
H639 C617 0.931 . S
C640 Eu641 2.835 . S
C640 C642 1.500 . S
C640 O660 1.257 . S
C640 O661 1.260 . S
Eu641 C640 2.835 . S
Eu641 O660 2.473 . S
Eu641 O661 2.480 . S
Eu641 O662 2.430 . S
Eu641 O663 2.670 . S
Eu641 O664 2.394 . S
Eu641 O669 2.355 . S
Eu641 O671 2.374 . S
C642 C640 1.500 . S
C642 C643 1.377 . S
C642 C647 1.377 . S
C643 C642 1.377 . S
C643 C644 1.395 . S
C643 H672 0.931 . S
C644 C643 1.395 . S
C644 C645 1.383 . S
C644 H673 0.931 . S
C645 C644 1.383 . S
C645 C646 1.394 . S
C646 C645 1.394 . S
C646 C647 1.378 . S
C646 H674 0.931 . S
C647 C642 1.377 . S
C647 C646 1.378 . S
C647 H675 0.931 . S
C648 O662 1.259 . S
C648 O663 1.270 . S
C649 O664 1.251 . S
C649 O665 1.251 . S
C650 Eu651 2.835 . S
C650 C652 1.500 . S
C650 O666 1.257 . S
C650 O667 1.260 . S
Eu651 C650 2.835 . S
Eu651 O663 2.355 . S
Eu651 O665 2.374 . S
Eu651 O666 2.473 . S
Eu651 O667 2.480 . S
Eu651 O668 2.430 . S
Eu651 O669 2.670 . S
Eu651 O670 2.394 . S
C652 C650 1.500 . S
C652 C653 1.377 . S
C652 C657 1.377 . S
C653 C652 1.377 . S
C653 C654 1.395 . S
C653 H676 0.931 . S
C654 C653 1.395 . S
C654 C655 1.383 . S
C654 H677 0.931 . S
C655 C654 1.383 . S
C655 C656 1.394 . S
C656 C655 1.394 . S
C656 C657 1.378 . S
C656 H678 0.931 . S
C657 C652 1.377 . S
C657 C656 1.378 . S
C657 H679 0.931 . S
C658 O668 1.259 . S
C658 O669 1.270 . S
C659 O670 1.251 . S
C659 O671 1.251 . S
O660 C640 1.257 . S
O660 Eu641 2.473 . S
O661 C640 1.260 . S
O661 Eu641 2.480 . S
O662 Eu641 2.430 . S
O662 C648 1.259 . S
O663 Eu641 2.670 . S
O663 C648 1.270 . S
O663 Eu651 2.355 . S
O664 Eu641 2.394 . S
O664 C649 1.251 . S
O665 C649 1.251 . S
O665 Eu651 2.374 . S
O666 C650 1.257 . S
O666 Eu651 2.473 . S
O667 C650 1.260 . S
O667 Eu651 2.480 . S
O668 Eu651 2.430 . S
O668 C658 1.259 . S
O669 Eu641 2.355 . S
O669 Eu651 2.670 . S
O669 C658 1.270 . S
O670 Eu651 2.394 . S
O670 C659 1.251 . S
O671 Eu641 2.374 . S
O671 C659 1.251 . S
H672 C643 0.931 . S
H673 C644 0.931 . S
H674 C646 0.931 . S
H675 C647 0.931 . S
H676 C653 0.931 . S
H677 C654 0.931 . S
H678 C656 0.931 . S
H679 C657 0.931 . S
C680 Eu681 2.835 . S
C680 C682 1.500 . S
C680 O700 1.257 . S
C680 O701 1.260 . S
Eu681 C680 2.835 . S
Eu681 O700 2.473 . S
Eu681 O701 2.480 . S
Eu681 O702 2.430 . S
Eu681 O703 2.670 . S
Eu681 O704 2.394 . S
Eu681 O709 2.355 . S
Eu681 O711 2.374 . S
C682 C680 1.500 . S
C682 C683 1.377 . S
C682 C687 1.377 . S
C683 C682 1.377 . S
C683 C684 1.395 . S
C683 H712 0.931 . S
C684 C683 1.395 . S
C684 C685 1.383 . S
C684 H713 0.931 . S
C685 C684 1.383 . S
C685 C686 1.394 . S
C686 C685 1.394 . S
C686 C687 1.378 . S
C686 H714 0.931 . S
C687 C682 1.377 . S
C687 C686 1.378 . S
C687 H715 0.931 . S
C688 O702 1.259 . S
C688 O703 1.270 . S
C689 O704 1.251 . S
C689 O705 1.251 . S
C690 Eu691 2.835 . S
C690 C692 1.500 . S
C690 O706 1.257 . S
C690 O707 1.260 . S
Eu691 C690 2.835 . S
Eu691 O703 2.355 . S
Eu691 O705 2.374 . S
Eu691 O706 2.473 . S
Eu691 O707 2.480 . S
Eu691 O708 2.430 . S
Eu691 O709 2.670 . S
Eu691 O710 2.394 . S
C692 C690 1.500 . S
C692 C693 1.377 . S
C692 C697 1.377 . S
C693 C692 1.377 . S
C693 C694 1.395 . S
C693 H716 0.931 . S
C694 C693 1.395 . S
C694 C695 1.383 . S
C694 H717 0.931 . S
C695 C694 1.383 . S
C695 C696 1.394 . S
C696 C695 1.394 . S
C696 C697 1.378 . S
C696 H718 0.931 . S
C697 C692 1.377 . S
C697 C696 1.378 . S
C697 H719 0.931 . S
C698 O708 1.259 . S
C698 O709 1.270 . S
C699 O710 1.251 . S
C699 O711 1.251 . S
O700 C680 1.257 . S
O700 Eu681 2.473 . S
O701 C680 1.260 . S
O701 Eu681 2.480 . S
O702 Eu681 2.430 . S
O702 C688 1.259 . S
O703 Eu681 2.670 . S
O703 C688 1.270 . S
O703 Eu691 2.355 . S
O704 Eu681 2.394 . S
O704 C689 1.251 . S
O705 C689 1.251 . S
O705 Eu691 2.374 . S
O706 C690 1.257 . S
O706 Eu691 2.473 . S
O707 C690 1.260 . S
O707 Eu691 2.480 . S
O708 Eu691 2.430 . S
O708 C698 1.259 . S
O709 Eu681 2.355 . S
O709 Eu691 2.670 . S
O709 C698 1.270 . S
O710 Eu691 2.394 . S
O710 C699 1.251 . S
O711 Eu681 2.374 . S
O711 C699 1.251 . S
H712 C683 0.931 . S
H713 C684 0.931 . S
H714 C686 0.931 . S
H715 C687 0.931 . S
H716 C693 0.931 . S
H717 C694 0.931 . S
H718 C696 0.931 . S
H719 C697 0.931 . S
C720 Eu721 2.835 . S
C720 C722 1.500 . S
C720 O740 1.257 . S
C720 O741 1.260 . S
Eu721 C720 2.835 . S
Eu721 O740 2.473 . S
Eu721 O741 2.480 . S
Eu721 O742 2.430 . S
Eu721 O743 2.670 . S
Eu721 O744 2.394 . S
Eu721 O749 2.355 . S
Eu721 O751 2.374 . S
C722 C720 1.500 . S
C722 C723 1.377 . S
C722 C727 1.377 . S
C723 C722 1.377 . S
C723 C724 1.395 . S
C723 H752 0.931 . S
C724 C723 1.395 . S
C724 C725 1.383 . S
C724 H753 0.931 . S
C725 C724 1.383 . S
C725 C726 1.394 . S
C726 C725 1.394 . S
C726 C727 1.378 . S
C726 H754 0.931 . S
C727 C722 1.377 . S
C727 C726 1.378 . S
C727 H755 0.931 . S
C728 O742 1.259 . S
C728 O743 1.270 . S
C729 O744 1.251 . S
C729 O745 1.251 . S
C730 Eu731 2.835 . S
C730 C732 1.500 . S
C730 O746 1.257 . S
C730 O747 1.260 . S
Eu731 C730 2.835 . S
Eu731 O743 2.355 . S
Eu731 O745 2.374 . S
Eu731 O746 2.473 . S
Eu731 O747 2.480 . S
Eu731 O748 2.430 . S
Eu731 O749 2.670 . S
Eu731 O750 2.394 . S
C732 C730 1.500 . S
C732 C733 1.377 . S
C732 C737 1.377 . S
C733 C732 1.377 . S
C733 C734 1.395 . S
C733 H756 0.931 . S
C734 C733 1.395 . S
C734 C735 1.383 . S
C734 H757 0.931 . S
C735 C734 1.383 . S
C735 C736 1.394 . S
C736 C735 1.394 . S
C736 C737 1.378 . S
C736 H758 0.931 . S
C737 C732 1.377 . S
C737 C736 1.378 . S
C737 H759 0.931 . S
C738 O748 1.259 . S
C738 O749 1.270 . S
C739 O750 1.251 . S
C739 O751 1.251 . S
O740 C720 1.257 . S
O740 Eu721 2.473 . S
O741 C720 1.260 . S
O741 Eu721 2.480 . S
O742 Eu721 2.430 . S
O742 C728 1.259 . S
O743 Eu721 2.670 . S
O743 C728 1.270 . S
O743 Eu731 2.355 . S
O744 Eu721 2.394 . S
O744 C729 1.251 . S
O745 C729 1.251 . S
O745 Eu731 2.374 . S
O746 C730 1.257 . S
O746 Eu731 2.473 . S
O747 C730 1.260 . S
O747 Eu731 2.480 . S
O748 Eu731 2.430 . S
O748 C738 1.259 . S
O749 Eu721 2.355 . S
O749 Eu731 2.670 . S
O749 C738 1.270 . S
O750 Eu731 2.394 . S
O750 C739 1.251 . S
O751 Eu721 2.374 . S
O751 C739 1.251 . S
H752 C723 0.931 . S
H753 C724 0.931 . S
H754 C726 0.931 . S
H755 C727 0.931 . S
H756 C733 0.931 . S
H757 C734 0.931 . S
H758 C736 0.931 . S
H759 C737 0.931 . S
C760 Eu761 2.835 . S
C760 C762 1.500 . S
C760 O780 1.257 . S
C760 O781 1.260 . S
Eu761 C760 2.835 . S
Eu761 O780 2.473 . S
Eu761 O781 2.480 . S
Eu761 O782 2.430 . S
Eu761 O783 2.670 . S
Eu761 O784 2.394 . S
Eu761 O789 2.355 . S
Eu761 O791 2.374 . S
C762 C760 1.500 . S
C762 C763 1.377 . S
C762 C767 1.377 . S
C763 C762 1.377 . S
C763 C764 1.395 . S
C763 H792 0.931 . S
C764 C763 1.395 . S
C764 C765 1.383 . S
C764 H793 0.931 . S
C765 C764 1.383 . S
C765 C766 1.394 . S
C766 C765 1.394 . S
C766 C767 1.378 . S
C766 H794 0.931 . S
C767 C762 1.377 . S
C767 C766 1.378 . S
C767 H795 0.931 . S
C768 O782 1.259 . S
C768 O783 1.270 . S
C769 O784 1.251 . S
C769 O785 1.251 . S
C770 Eu771 2.835 . S
C770 C772 1.500 . S
C770 O786 1.257 . S
C770 O787 1.260 . S
Eu771 C770 2.835 . S
Eu771 O783 2.355 . S
Eu771 O785 2.374 . S
Eu771 O786 2.473 . S
Eu771 O787 2.480 . S
Eu771 O788 2.430 . S
Eu771 O789 2.670 . S
Eu771 O790 2.394 . S
C772 C770 1.500 . S
C772 C773 1.377 . S
C772 C777 1.377 . S
C773 C772 1.377 . S
C773 C774 1.395 . S
C773 H796 0.931 . S
C774 C773 1.395 . S
C774 C775 1.383 . S
C774 H797 0.931 . S
C775 C774 1.383 . S
C775 C776 1.394 . S
C776 C775 1.394 . S
C776 C777 1.378 . S
C776 H798 0.931 . S
C777 C772 1.377 . S
C777 C776 1.378 . S
C777 H799 0.931 . S
C778 O788 1.259 . S
C778 O789 1.270 . S
C779 O790 1.251 . S
C779 O791 1.251 . S
O780 C760 1.257 . S
O780 Eu761 2.473 . S
O781 C760 1.260 . S
O781 Eu761 2.480 . S
O782 Eu761 2.430 . S
O782 C768 1.259 . S
O783 Eu761 2.670 . S
O783 C768 1.270 . S
O783 Eu771 2.355 . S
O784 Eu761 2.394 . S
O784 C769 1.251 . S
O785 C769 1.251 . S
O785 Eu771 2.374 . S
O786 C770 1.257 . S
O786 Eu771 2.473 . S
O787 C770 1.260 . S
O787 Eu771 2.480 . S
O788 Eu771 2.430 . S
O788 C778 1.259 . S
O789 Eu761 2.355 . S
O789 Eu771 2.670 . S
O789 C778 1.270 . S
O790 Eu771 2.394 . S
O790 C779 1.251 . S
O791 Eu761 2.374 . S
O791 C779 1.251 . S
H792 C763 0.931 . S
H793 C764 0.931 . S
H794 C766 0.931 . S
H795 C767 0.931 . S
H796 C773 0.931 . S
H797 C774 0.931 . S
H798 C776 0.931 . S
H799 C777 0.931 . S
C800 Eu801 2.835 . S
C800 C802 1.500 . S
C800 O820 1.257 . S
C800 O821 1.260 . S
Eu801 C800 2.835 . S
Eu801 O820 2.473 . S
Eu801 O821 2.480 . S
Eu801 O822 2.430 . S
Eu801 O823 2.670 . S
Eu801 O824 2.394 . S
Eu801 O829 2.355 . S
Eu801 O831 2.374 . S
C802 C800 1.500 . S
C802 C803 1.377 . S
C802 C807 1.377 . S
C803 C802 1.377 . S
C803 C804 1.395 . S
C803 H832 0.931 . S
C804 C803 1.395 . S
C804 C805 1.383 . S
C804 H833 0.931 . S
C805 C804 1.383 . S
C805 C806 1.394 . S
C806 C805 1.394 . S
C806 C807 1.378 . S
C806 H834 0.931 . S
C807 C802 1.377 . S
C807 C806 1.378 . S
C807 H835 0.931 . S
C808 O822 1.259 . S
C808 O823 1.270 . S
C809 O824 1.251 . S
C809 O825 1.251 . S
C810 Eu811 2.835 . S
C810 C812 1.500 . S
C810 O826 1.257 . S
C810 O827 1.260 . S
Eu811 C810 2.835 . S
Eu811 O823 2.355 . S
Eu811 O825 2.374 . S
Eu811 O826 2.473 . S
Eu811 O827 2.480 . S
Eu811 O828 2.430 . S
Eu811 O829 2.670 . S
Eu811 O830 2.394 . S
C812 C810 1.500 . S
C812 C813 1.377 . S
C812 C817 1.377 . S
C813 C812 1.377 . S
C813 C814 1.395 . S
C813 H836 0.931 . S
C814 C813 1.395 . S
C814 C815 1.383 . S
C814 H837 0.931 . S
C815 C814 1.383 . S
C815 C816 1.394 . S
C816 C815 1.394 . S
C816 C817 1.378 . S
C816 H838 0.931 . S
C817 C812 1.377 . S
C817 C816 1.378 . S
C817 H839 0.931 . S
C818 O828 1.259 . S
C818 O829 1.270 . S
C819 O830 1.251 . S
C819 O831 1.251 . S
O820 C800 1.257 . S
O820 Eu801 2.473 . S
O821 C800 1.260 . S
O821 Eu801 2.480 . S
O822 Eu801 2.430 . S
O822 C808 1.259 . S
O823 Eu801 2.670 . S
O823 C808 1.270 . S
O823 Eu811 2.355 . S
O824 Eu801 2.394 . S
O824 C809 1.251 . S
O825 C809 1.251 . S
O825 Eu811 2.374 . S
O826 C810 1.257 . S
O826 Eu811 2.473 . S
O827 C810 1.260 . S
O827 Eu811 2.480 . S
O828 Eu811 2.430 . S
O828 C818 1.259 . S
O829 Eu801 2.355 . S
O829 Eu811 2.670 . S
O829 C818 1.270 . S
O830 Eu811 2.394 . S
O830 C819 1.251 . S
O831 Eu801 2.374 . S
O831 C819 1.251 . S
H832 C803 0.931 . S
H833 C804 0.931 . S
H834 C806 0.931 . S
H835 C807 0.931 . S
H836 C813 0.931 . S
H837 C814 0.931 . S
H838 C816 0.931 . S
H839 C817 0.931 . S
C840 Eu841 2.835 . S
C840 C842 1.500 . S
C840 O860 1.257 . S
C840 O861 1.260 . S
Eu841 C840 2.835 . S
Eu841 O860 2.473 . S
Eu841 O861 2.480 . S
Eu841 O862 2.430 . S
Eu841 O863 2.670 . S
Eu841 O864 2.394 . S
Eu841 O869 2.355 . S
Eu841 O871 2.374 . S
C842 C840 1.500 . S
C842 C843 1.377 . S
C842 C847 1.377 . S
C843 C842 1.377 . S
C843 C844 1.395 . S
C843 H872 0.931 . S
C844 C843 1.395 . S
C844 C845 1.383 . S
C844 H873 0.931 . S
C845 C844 1.383 . S
C845 C846 1.394 . S
C846 C845 1.394 . S
C846 C847 1.378 . S
C846 H874 0.931 . S
C847 C842 1.377 . S
C847 C846 1.378 . S
C847 H875 0.931 . S
C848 O862 1.259 . S
C848 O863 1.270 . S
C849 O864 1.251 . S
C849 O865 1.251 . S
C850 Eu851 2.835 . S
C850 C852 1.500 . S
C850 O866 1.257 . S
C850 O867 1.260 . S
Eu851 C850 2.835 . S
Eu851 O863 2.355 . S
Eu851 O865 2.374 . S
Eu851 O866 2.473 . S
Eu851 O867 2.480 . S
Eu851 O868 2.430 . S
Eu851 O869 2.670 . S
Eu851 O870 2.394 . S
C852 C850 1.500 . S
C852 C853 1.377 . S
C852 C857 1.377 . S
C853 C852 1.377 . S
C853 C854 1.395 . S
C853 H876 0.931 . S
C854 C853 1.395 . S
C854 C855 1.383 . S
C854 H877 0.931 . S
C855 C854 1.383 . S
C855 C856 1.394 . S
C856 C855 1.394 . S
C856 C857 1.378 . S
C856 H878 0.931 . S
C857 C852 1.377 . S
C857 C856 1.378 . S
C857 H879 0.931 . S
C858 O868 1.259 . S
C858 O869 1.270 . S
C859 O870 1.251 . S
C859 O871 1.251 . S
O860 C840 1.257 . S
O860 Eu841 2.473 . S
O861 C840 1.260 . S
O861 Eu841 2.480 . S
O862 Eu841 2.430 . S
O862 C848 1.259 . S
O863 Eu841 2.670 . S
O863 C848 1.270 . S
O863 Eu851 2.355 . S
O864 Eu841 2.394 . S
O864 C849 1.251 . S
O865 C849 1.251 . S
O865 Eu851 2.374 . S
O866 C850 1.257 . S
O866 Eu851 2.473 . S
O867 C850 1.260 . S
O867 Eu851 2.480 . S
O868 Eu851 2.430 . S
O868 C858 1.259 . S
O869 Eu841 2.355 . S
O869 Eu851 2.670 . S
O869 C858 1.270 . S
O870 Eu851 2.394 . S
O870 C859 1.251 . S
O871 Eu841 2.374 . S
O871 C859 1.251 . S
H872 C843 0.931 . S
H873 C844 0.931 . S
H874 C846 0.931 . S
H875 C847 0.931 . S
H876 C853 0.931 . S
H877 C854 0.931 . S
H878 C856 0.931 . S
H879 C857 0.931 . S
C880 Eu881 2.835 . S
C880 C882 1.500 . S
C880 O900 1.257 . S
C880 O901 1.260 . S
Eu881 C880 2.835 . S
Eu881 O900 2.473 . S
Eu881 O901 2.480 . S
Eu881 O902 2.430 . S
Eu881 O903 2.670 . S
Eu881 O904 2.394 . S
Eu881 O909 2.355 . S
Eu881 O911 2.374 . S
C882 C880 1.500 . S
C882 C883 1.377 . S
C882 C887 1.377 . S
C883 C882 1.377 . S
C883 C884 1.395 . S
C883 H912 0.931 . S
C884 C883 1.395 . S
C884 C885 1.383 . S
C884 H913 0.931 . S
C885 C884 1.383 . S
C885 C886 1.394 . S
C886 C885 1.394 . S
C886 C887 1.378 . S
C886 H914 0.931 . S
C887 C882 1.377 . S
C887 C886 1.378 . S
C887 H915 0.931 . S
C888 O902 1.259 . S
C888 O903 1.270 . S
C889 O904 1.251 . S
C889 O905 1.251 . S
C890 Eu891 2.835 . S
C890 C892 1.500 . S
C890 O906 1.257 . S
C890 O907 1.260 . S
Eu891 C890 2.835 . S
Eu891 O903 2.355 . S
Eu891 O905 2.374 . S
Eu891 O906 2.473 . S
Eu891 O907 2.480 . S
Eu891 O908 2.430 . S
Eu891 O909 2.670 . S
Eu891 O910 2.394 . S
C892 C890 1.500 . S
C892 C893 1.377 . S
C892 C897 1.377 . S
C893 C892 1.377 . S
C893 C894 1.395 . S
C893 H916 0.931 . S
C894 C893 1.395 . S
C894 C895 1.383 . S
C894 H917 0.931 . S
C895 C894 1.383 . S
C895 C896 1.394 . S
C896 C895 1.394 . S
C896 C897 1.378 . S
C896 H918 0.931 . S
C897 C892 1.377 . S
C897 C896 1.378 . S
C897 H919 0.931 . S
C898 O908 1.259 . S
C898 O909 1.270 . S
C899 O910 1.251 . S
C899 O911 1.251 . S
O900 C880 1.257 . S
O900 Eu881 2.473 . S
O901 C880 1.260 . S
O901 Eu881 2.480 . S
O902 Eu881 2.430 . S
O902 C888 1.259 . S
O903 Eu881 2.670 . S
O903 C888 1.270 . S
O903 Eu891 2.355 . S
O904 Eu881 2.394 . S
O904 C889 1.251 . S
O905 C889 1.251 . S
O905 Eu891 2.374 . S
O906 C890 1.257 . S
O906 Eu891 2.473 . S
O907 C890 1.260 . S
O907 Eu891 2.480 . S
O908 Eu891 2.430 . S
O908 C898 1.259 . S
O909 Eu881 2.355 . S
O909 Eu891 2.670 . S
O909 C898 1.270 . S
O910 Eu891 2.394 . S
O910 C899 1.251 . S
O911 Eu881 2.374 . S
O911 C899 1.251 . S
H912 C883 0.931 . S
H913 C884 0.931 . S
H914 C886 0.931 . S
H915 C887 0.931 . S
H916 C893 0.931 . S
H917 C894 0.931 . S
H918 C896 0.931 . S
H919 C897 0.931 . S
C920 Eu921 2.835 . S
C920 C922 1.500 . S
C920 O940 1.257 . S
C920 O941 1.260 . S
Eu921 C920 2.835 . S
Eu921 O940 2.473 . S
Eu921 O941 2.480 . S
Eu921 O942 2.430 . S
Eu921 O943 2.670 . S
Eu921 O944 2.394 . S
Eu921 O949 2.355 . S
Eu921 O951 2.374 . S
C922 C920 1.500 . S
C922 C923 1.377 . S
C922 C927 1.377 . S
C923 C922 1.377 . S
C923 C924 1.395 . S
C923 H952 0.931 . S
C924 C923 1.395 . S
C924 C925 1.383 . S
C924 H953 0.931 . S
C925 C924 1.383 . S
C925 C926 1.394 . S
C926 C925 1.394 . S
C926 C927 1.378 . S
C926 H954 0.931 . S
C927 C922 1.377 . S
C927 C926 1.378 . S
C927 H955 0.931 . S
C928 O942 1.259 . S
C928 O943 1.270 . S
C929 O944 1.251 . S
C929 O945 1.251 . S
C930 Eu931 2.835 . S
C930 C932 1.500 . S
C930 O946 1.257 . S
C930 O947 1.260 . S
Eu931 C930 2.835 . S
Eu931 O943 2.355 . S
Eu931 O945 2.374 . S
Eu931 O946 2.473 . S
Eu931 O947 2.480 . S
Eu931 O948 2.430 . S
Eu931 O949 2.670 . S
Eu931 O950 2.394 . S
C932 C930 1.500 . S
C932 C933 1.377 . S
C932 C937 1.377 . S
C933 C932 1.377 . S
C933 C934 1.395 . S
C933 H956 0.931 . S
C934 C933 1.395 . S
C934 C935 1.383 . S
C934 H957 0.931 . S
C935 C934 1.383 . S
C935 C936 1.394 . S
C936 C935 1.394 . S
C936 C937 1.378 . S
C936 H958 0.931 . S
C937 C932 1.377 . S
C937 C936 1.378 . S
C937 H959 0.931 . S
C938 O948 1.259 . S
C938 O949 1.270 . S
C939 O950 1.251 . S
C939 O951 1.251 . S
O940 C920 1.257 . S
O940 Eu921 2.473 . S
O941 C920 1.260 . S
O941 Eu921 2.480 . S
O942 Eu921 2.430 . S
O942 C928 1.259 . S
O943 Eu921 2.670 . S
O943 C928 1.270 . S
O943 Eu931 2.355 . S
O944 Eu921 2.394 . S
O944 C929 1.251 . S
O945 C929 1.251 . S
O945 Eu931 2.374 . S
O946 C930 1.257 . S
O946 Eu931 2.473 . S
O947 C930 1.260 . S
O947 Eu931 2.480 . S
O948 Eu931 2.430 . S
O948 C938 1.259 . S
O949 Eu921 2.355 . S
O949 Eu931 2.670 . S
O949 C938 1.270 . S
O950 Eu931 2.394 . S
O950 C939 1.251 . S
O951 Eu921 2.374 . S
O951 C939 1.251 . S
H952 C923 0.931 . S
H953 C924 0.931 . S
H954 C926 0.931 . S
H955 C927 0.931 . S
H956 C933 0.931 . S
H957 C934 0.931 . S
H958 C936 0.931 . S
H959 C937 0.931 . S
C960 Eu961 2.835 . S
C960 C962 1.500 . S
C960 O980 1.257 . S
C960 O981 1.260 . S
Eu961 C960 2.835 . S
Eu961 O980 2.473 . S
Eu961 O981 2.480 . S
Eu961 O982 2.430 . S
Eu961 O983 2.670 . S
Eu961 O984 2.394 1_565 S
Eu961 O989 2.355 . S
Eu961 O991 2.374 . S
C962 C960 1.500 . S
C962 C963 1.377 . S
C962 C967 1.377 1_565 S
C963 C962 1.377 . S
C963 C964 1.395 . S
C963 H992 0.931 . S
C964 C963 1.395 . S
C964 C965 1.383 1_565 S
C964 H993 0.931 . S
C965 C964 1.383 1_545 S
C965 C966 1.394 . S
C966 C965 1.394 . S
C966 C967 1.378 . S
C966 H994 0.931 . S
C967 C962 1.377 1_545 S
C967 C966 1.378 . S
C967 H995 0.931 . S
C968 O982 1.259 . S
C968 O983 1.270 . S
C969 O984 1.251 . S
C969 O985 1.251 . S
C970 Eu971 2.835 1_565 S
C970 C972 1.500 . S
C970 O986 1.257 . S
C970 O987 1.261 . S
Eu971 C970 2.835 1_545 S
Eu971 O983 2.355 1_545 S
Eu971 O985 2.374 . S
Eu971 O986 2.473 1_545 S
Eu971 O987 2.479 1_545 S
Eu971 O988 2.434 . S
Eu971 O989 2.670 1_545 S
Eu971 O990 2.394 1_545 S
C972 C970 1.500 . S
C972 C973 1.377 . S
C972 C977 1.377 . S
C973 C972 1.377 . S
C973 C974 1.395 . S
C973 H996 0.931 . S
C974 C973 1.395 . S
C974 C975 1.383 . S
C974 H997 0.931 . S
C975 C974 1.383 . S
C975 C976 1.394 . S
C976 C975 1.394 . S
C976 C977 1.378 . S
C976 H998 0.931 . S
C977 C972 1.377 . S
C977 C976 1.378 . S
C977 H999 0.931 . S
C978 O988 1.252 1_565 S
C978 O989 1.270 . S
C979 O990 1.251 . S
C979 O991 1.251 . S
O980 C960 1.257 . S
O980 Eu961 2.473 . S
O981 C960 1.260 . S
O981 Eu961 2.480 . S
O982 Eu961 2.430 . S
O982 C968 1.259 . S
O983 Eu961 2.670 . S
O983 C968 1.270 . S
O983 Eu971 2.355 1_565 S
O984 Eu961 2.394 1_545 S
O984 C969 1.251 . S
O985 C969 1.251 . S
O985 Eu971 2.374 . S
O986 C970 1.257 . S
O986 Eu971 2.473 1_565 S
O987 C970 1.261 . S
O987 Eu971 2.479 1_565 S
O988 Eu971 2.434 . S
O988 C978 1.252 1_545 S
O989 Eu961 2.355 . S
O989 Eu971 2.670 1_565 S
O989 C978 1.270 . S
O990 Eu971 2.394 1_565 S
O990 C979 1.251 . S
O991 Eu961 2.374 . S
O991 C979 1.251 . S
H992 C963 0.931 . S
H993 C964 0.931 . S
H994 C966 0.931 . S
H995 C967 0.931 . S
H996 C973 0.931 . S
H997 C974 0.931 . S
H998 C976 0.931 . S
H999 C977 0.931 . S
C1000 Eu1001 2.835 . S
C1000 C1002 1.500 . S
C1000 O1020 1.257 . S
C1000 O1021 1.260 . S
Eu1001 C1000 2.835 . S
Eu1001 O1020 2.473 . S
Eu1001 O1021 2.480 . S
Eu1001 O1022 2.430 . S
Eu1001 O1023 2.670 . S
Eu1001 O1024 2.394 . S
Eu1001 O1029 2.355 . S
Eu1001 O1031 2.374 . S
C1002 C1000 1.500 . S
C1002 C1003 1.377 . S
C1002 C1007 1.377 . S
C1003 C1002 1.377 . S
C1003 C1004 1.395 . S
C1003 H1032 0.931 . S
C1004 C1003 1.395 . S
C1004 C1005 1.383 . S
C1004 H1033 0.931 . S
C1005 C1004 1.383 . S
C1005 C1006 1.394 . S
C1006 C1005 1.394 . S
C1006 C1007 1.378 . S
C1006 H1034 0.931 . S
C1007 C1002 1.377 . S
C1007 C1006 1.378 . S
C1007 H1035 0.931 . S
C1008 O1022 1.259 . S
C1008 O1023 1.270 . S
C1009 O1024 1.251 . S
C1009 O1025 1.251 . S
C1010 Eu1011 2.835 . S
C1010 C1012 1.500 . S
C1010 O1026 1.257 . S
C1010 O1027 1.260 . S
Eu1011 C1010 2.835 . S
Eu1011 O1023 2.355 . S
Eu1011 O1025 2.374 . S
Eu1011 O1026 2.473 . S
Eu1011 O1027 2.480 . S
Eu1011 O1028 2.430 . S
Eu1011 O1029 2.670 . S
Eu1011 O1030 2.394 . S
C1012 C1010 1.500 . S
C1012 C1013 1.377 . S
C1012 C1017 1.377 . S
C1013 C1012 1.377 . S
C1013 C1014 1.395 . S
C1013 H1036 0.931 . S
C1014 C1013 1.395 . S
C1014 C1015 1.383 . S
C1014 H1037 0.931 . S
C1015 C1014 1.383 . S
C1015 C1016 1.394 . S
C1016 C1015 1.394 . S
C1016 C1017 1.378 . S
C1016 H1038 0.931 . S
C1017 C1012 1.377 . S
C1017 C1016 1.378 . S
C1017 H1039 0.931 . S
C1018 O1028 1.259 . S
C1018 O1029 1.270 . S
C1019 O1030 1.251 . S
C1019 O1031 1.251 . S
O1020 C1000 1.257 . S
O1020 Eu1001 2.473 . S
O1021 C1000 1.260 . S
O1021 Eu1001 2.480 . S
O1022 Eu1001 2.430 . S
O1022 C1008 1.259 . S
O1023 Eu1001 2.670 . S
O1023 C1008 1.270 . S
O1023 Eu1011 2.355 . S
O1024 Eu1001 2.394 . S
O1024 C1009 1.251 . S
O1025 C1009 1.251 . S
O1025 Eu1011 2.374 . S
O1026 C1010 1.257 . S
O1026 Eu1011 2.473 . S
O1027 C1010 1.260 . S
O1027 Eu1011 2.480 . S
O1028 Eu1011 2.430 . S
O1028 C1018 1.259 . S
O1029 Eu1001 2.355 . S
O1029 Eu1011 2.670 . S
O1029 C1018 1.270 . S
O1030 Eu1011 2.394 . S
O1030 C1019 1.251 . S
O1031 Eu1001 2.374 . S
O1031 C1019 1.251 . S
H1032 C1003 0.931 . S
H1033 C1004 0.931 . S
H1034 C1006 0.931 . S
H1035 C1007 0.931 . S
H1036 C1013 0.931 . S
H1037 C1014 0.931 . S
H1038 C1016 0.931 . S
H1039 C1017 0.931 . S
C1040 Eu1041 2.835 . S
C1040 C1042 1.500 . S
C1040 O1060 1.257 . S
C1040 O1061 1.260 . S
Eu1041 C1040 2.835 . S
Eu1041 O1060 2.473 . S
Eu1041 O1061 2.480 . S
Eu1041 O1062 2.430 . S
Eu1041 O1063 2.670 . S
Eu1041 O1064 2.394 . S
Eu1041 O1069 2.355 . S
Eu1041 O1071 2.374 . S
C1042 C1040 1.500 . S
C1042 C1043 1.377 . S
C1042 C1047 1.377 . S
C1043 C1042 1.377 . S
C1043 C1044 1.395 . S
C1043 H1072 0.931 . S
C1044 C1043 1.395 . S
C1044 C1045 1.383 . S
C1044 H1073 0.931 . S
C1045 C1044 1.383 . S
C1045 C1046 1.394 . S
C1046 C1045 1.394 . S
C1046 C1047 1.378 . S
C1046 H1074 0.931 . S
C1047 C1042 1.377 . S
C1047 C1046 1.378 . S
C1047 H1075 0.931 . S
C1048 O1062 1.259 . S
C1048 O1063 1.270 . S
C1049 O1064 1.251 . S
C1049 O1065 1.251 . S
C1050 Eu1051 2.835 . S
C1050 C1052 1.500 . S
C1050 O1066 1.257 . S
C1050 O1067 1.260 . S
Eu1051 C1050 2.835 . S
Eu1051 O1063 2.355 . S
Eu1051 O1065 2.374 . S
Eu1051 O1066 2.473 . S
Eu1051 O1067 2.480 . S
Eu1051 O1068 2.430 . S
Eu1051 O1069 2.670 . S
Eu1051 O1070 2.394 . S
C1052 C1050 1.500 . S
C1052 C1053 1.377 . S
C1052 C1057 1.377 . S
C1053 C1052 1.377 . S
C1053 C1054 1.395 . S
C1053 H1076 0.931 . S
C1054 C1053 1.395 . S
C1054 C1055 1.383 . S
C1054 H1077 0.931 . S
C1055 C1054 1.383 . S
C1055 C1056 1.394 . S
C1056 C1055 1.394 . S
C1056 C1057 1.378 . S
C1056 H1078 0.931 . S
C1057 C1052 1.377 . S
C1057 C1056 1.378 . S
C1057 H1079 0.931 . S
C1058 O1068 1.259 . S
C1058 O1069 1.270 . S
C1059 O1070 1.251 . S
C1059 O1071 1.251 . S
O1060 C1040 1.257 . S
O1060 Eu1041 2.473 . S
O1061 C1040 1.260 . S
O1061 Eu1041 2.480 . S
O1062 Eu1041 2.430 . S
O1062 C1048 1.259 . S
O1063 Eu1041 2.670 . S
O1063 C1048 1.270 . S
O1063 Eu1051 2.355 . S
O1064 Eu1041 2.394 . S
O1064 C1049 1.251 . S
O1065 C1049 1.251 . S
O1065 Eu1051 2.374 . S
O1066 C1050 1.257 . S
O1066 Eu1051 2.473 . S
O1067 C1050 1.260 . S
O1067 Eu1051 2.480 . S
O1068 Eu1051 2.430 . S
O1068 C1058 1.259 . S
O1069 Eu1041 2.355 . S
O1069 Eu1051 2.670 . S
O1069 C1058 1.270 . S
O1070 Eu1051 2.394 . S
O1070 C1059 1.251 . S
O1071 Eu1041 2.374 . S
O1071 C1059 1.251 . S
H1072 C1043 0.931 . S
H1073 C1044 0.931 . S
H1074 C1046 0.931 . S
H1075 C1047 0.931 . S
H1076 C1053 0.931 . S
H1077 C1054 0.931 . S
H1078 C1056 0.931 . S
H1079 C1057 0.931 . S
C1080 Eu1081 2.835 . S
C1080 C1082 1.500 . S
C1080 O1100 1.257 . S
C1080 O1101 1.260 . S
Eu1081 C1080 2.835 . S
Eu1081 O1100 2.473 . S
Eu1081 O1101 2.480 . S
Eu1081 O1102 2.430 . S
Eu1081 O1103 2.670 . S
Eu1081 O1104 2.394 1_565 S
Eu1081 O1109 2.355 . S
Eu1081 O1111 2.374 . S
C1082 C1080 1.500 . S
C1082 C1083 1.377 . S
C1082 C1087 1.377 1_565 S
C1083 C1082 1.377 . S
C1083 C1084 1.395 . S
C1083 H1112 0.931 . S
C1084 C1083 1.395 . S
C1084 C1085 1.383 1_565 S
C1084 H1113 0.931 . S
C1085 C1084 1.383 1_545 S
C1085 C1086 1.394 . S
C1086 C1085 1.394 . S
C1086 C1087 1.378 . S
C1086 H1114 0.931 . S
C1087 C1082 1.377 1_545 S
C1087 C1086 1.378 . S
C1087 H1115 0.931 . S
C1088 O1102 1.259 . S
C1088 O1103 1.270 . S
C1089 O1104 1.251 . S
C1089 O1105 1.251 . S
C1090 Eu1091 2.835 1_565 S
C1090 C1092 1.500 . S
C1090 O1106 1.257 . S
C1090 O1107 1.261 . S
Eu1091 C1090 2.835 1_545 S
Eu1091 O1103 2.355 1_545 S
Eu1091 O1105 2.374 . S
Eu1091 O1106 2.473 1_545 S
Eu1091 O1107 2.479 1_545 S
Eu1091 O1108 2.434 . S
Eu1091 O1109 2.670 1_545 S
Eu1091 O1110 2.394 1_545 S
C1092 C1090 1.500 . S
C1092 C1093 1.377 . S
C1092 C1097 1.377 . S
C1093 C1092 1.377 . S
C1093 C1094 1.395 . S
C1093 H1116 0.931 . S
C1094 C1093 1.395 . S
C1094 C1095 1.383 . S
C1094 H1117 0.931 . S
C1095 C1094 1.383 . S
C1095 C1096 1.394 . S
C1096 C1095 1.394 . S
C1096 C1097 1.378 . S
C1096 H1118 0.931 . S
C1097 C1092 1.377 . S
C1097 C1096 1.378 . S
C1097 H1119 0.931 . S
C1098 O1108 1.252 1_565 S
C1098 O1109 1.270 . S
C1099 O1110 1.251 . S
C1099 O1111 1.251 . S
O1100 C1080 1.257 . S
O1100 Eu1081 2.473 . S
O1101 C1080 1.260 . S
O1101 Eu1081 2.480 . S
O1102 Eu1081 2.430 . S
O1102 C1088 1.259 . S
O1103 Eu1081 2.670 . S
O1103 C1088 1.270 . S
O1103 Eu1091 2.355 1_565 S
O1104 Eu1081 2.394 1_545 S
O1104 C1089 1.251 . S
O1105 C1089 1.251 . S
O1105 Eu1091 2.374 . S
O1106 C1090 1.257 . S
O1106 Eu1091 2.473 1_565 S
O1107 C1090 1.261 . S
O1107 Eu1091 2.479 1_565 S
O1108 Eu1091 2.434 . S
O1108 C1098 1.252 1_545 S
O1109 Eu1081 2.355 . S
O1109 Eu1091 2.670 1_565 S
O1109 C1098 1.270 . S
O1110 Eu1091 2.394 1_565 S
O1110 C1099 1.251 . S
O1111 Eu1081 2.374 . S
O1111 C1099 1.251 . S
H1112 C1083 0.931 . S
H1113 C1084 0.931 . S
H1114 C1086 0.931 . S
H1115 C1087 0.931 . S
H1116 C1093 0.931 . S
H1117 C1094 0.931 . S
H1118 C1096 0.931 . S
H1119 C1097 0.931 . S
C1120 Eu1121 2.835 1_545 S
C1120 C1122 1.500 . S
C1120 O1140 1.257 . S
C1120 O1141 1.261 . S
Eu1121 C1120 2.835 1_565 S
Eu1121 O1140 2.473 1_565 S
Eu1121 O1141 2.479 1_565 S
Eu1121 O1142 2.434 . S
Eu1121 O1143 2.670 1_565 S
Eu1121 O1144 2.394 1_565 S
Eu1121 O1149 2.355 1_565 S
Eu1121 O1151 2.374 . S
C1122 C1120 1.500 . S
C1122 C1123 1.377 . S
C1122 C1127 1.377 . S
C1123 C1122 1.377 . S
C1123 C1124 1.395 . S
C1123 H1152 0.931 . S
C1124 C1123 1.395 . S
C1124 C1125 1.383 . S
C1124 H1153 0.931 . S
C1125 C1124 1.383 . S
C1125 C1126 1.394 . S
C1126 C1125 1.394 . S
C1126 C1127 1.378 . S
C1126 H1154 0.931 . S
C1127 C1122 1.377 . S
C1127 C1126 1.378 . S
C1127 H1155 0.931 . S
C1128 O1142 1.252 1_545 S
C1128 O1143 1.270 . S
C1129 O1144 1.251 . S
C1129 O1145 1.251 . S
C1130 Eu1131 2.835 . S
C1130 C1132 1.500 . S
C1130 O1146 1.257 . S
C1130 O1147 1.260 . S
Eu1131 C1130 2.835 . S
Eu1131 O1143 2.355 . S
Eu1131 O1145 2.374 . S
Eu1131 O1146 2.473 . S
Eu1131 O1147 2.480 . S
Eu1131 O1148 2.430 . S
Eu1131 O1149 2.670 . S
Eu1131 O1150 2.394 1_545 S
C1132 C1130 1.500 . S
C1132 C1133 1.377 . S
C1132 C1137 1.377 1_545 S
C1133 C1132 1.377 . S
C1133 C1134 1.395 . S
C1133 H1156 0.931 . S
C1134 C1133 1.395 . S
C1134 C1135 1.383 1_545 S
C1134 H1157 0.931 . S
C1135 C1134 1.383 1_565 S
C1135 C1136 1.394 . S
C1136 C1135 1.394 . S
C1136 C1137 1.378 . S
C1136 H1158 0.931 . S
C1137 C1132 1.377 1_565 S
C1137 C1136 1.378 . S
C1137 H1159 0.931 . S
C1138 O1148 1.259 . S
C1138 O1149 1.270 . S
C1139 O1150 1.251 . S
C1139 O1151 1.251 . S
O1140 C1120 1.257 . S
O1140 Eu1121 2.473 1_545 S
O1141 C1120 1.261 . S
O1141 Eu1121 2.479 1_545 S
O1142 Eu1121 2.434 . S
O1142 C1128 1.252 1_565 S
O1143 Eu1121 2.670 1_545 S
O1143 C1128 1.270 . S
O1143 Eu1131 2.355 . S
O1144 Eu1121 2.394 1_545 S
O1144 C1129 1.251 . S
O1145 C1129 1.251 . S
O1145 Eu1131 2.374 . S
O1146 C1130 1.257 . S
O1146 Eu1131 2.473 . S
O1147 C1130 1.260 . S
O1147 Eu1131 2.480 . S
O1148 Eu1131 2.430 . S
O1148 C1138 1.259 . S
O1149 Eu1121 2.355 1_545 S
O1149 Eu1131 2.670 . S
O1149 C1138 1.270 . S
O1150 Eu1131 2.394 1_565 S
O1150 C1139 1.251 . S
O1151 Eu1121 2.374 . S
O1151 C1139 1.251 . S
H1152 C1123 0.931 . S
H1153 C1124 0.931 . S
H1154 C1126 0.931 . S
H1155 C1127 0.931 . S
H1156 C1133 0.931 . S
H1157 C1134 0.931 . S
H1158 C1136 0.931 . S
H1159 C1137 0.931 . S
C1160 Eu1161 2.835 . S
C1160 C1162 1.500 . S
C1160 O1180 1.257 . S
C1160 O1181 1.260 . S
Eu1161 C1160 2.835 . S
Eu1161 O1180 2.473 . S
Eu1161 O1181 2.480 . S
Eu1161 O1182 2.430 . S
Eu1161 O1183 2.670 . S
Eu1161 O1184 2.394 . S
Eu1161 O1189 2.355 . S
Eu1161 O1191 2.374 . S
C1162 C1160 1.500 . S
C1162 C1163 1.377 . S
C1162 C1167 1.377 . S
C1163 C1162 1.377 . S
C1163 C1164 1.395 . S
C1163 H1192 0.931 . S
C1164 C1163 1.395 . S
C1164 C1165 1.383 . S
C1164 H1193 0.931 . S
C1165 C1164 1.383 . S
C1165 C1166 1.394 . S
C1166 C1165 1.394 . S
C1166 C1167 1.378 . S
C1166 H1194 0.931 . S
C1167 C1162 1.377 . S
C1167 C1166 1.378 . S
C1167 H1195 0.931 . S
C1168 O1182 1.259 . S
C1168 O1183 1.270 . S
C1169 O1184 1.251 . S
C1169 O1185 1.251 . S
C1170 Eu1171 2.835 . S
C1170 C1172 1.500 . S
C1170 O1186 1.257 . S
C1170 O1187 1.260 . S
Eu1171 C1170 2.835 . S
Eu1171 O1183 2.355 . S
Eu1171 O1185 2.374 . S
Eu1171 O1186 2.473 . S
Eu1171 O1187 2.480 . S
Eu1171 O1188 2.430 . S
Eu1171 O1189 2.670 . S
Eu1171 O1190 2.394 . S
C1172 C1170 1.500 . S
C1172 C1173 1.377 . S
C1172 C1177 1.377 . S
C1173 C1172 1.377 . S
C1173 C1174 1.395 . S
C1173 H1196 0.931 . S
C1174 C1173 1.395 . S
C1174 C1175 1.383 . S
C1174 H1197 0.931 . S
C1175 C1174 1.383 . S
C1175 C1176 1.394 . S
C1176 C1175 1.394 . S
C1176 C1177 1.378 . S
C1176 H1198 0.931 . S
C1177 C1172 1.377 . S
C1177 C1176 1.378 . S
C1177 H1199 0.931 . S
C1178 O1188 1.259 . S
C1178 O1189 1.270 . S
C1179 O1190 1.251 . S
C1179 O1191 1.251 . S
O1180 C1160 1.257 . S
O1180 Eu1161 2.473 . S
O1181 C1160 1.260 . S
O1181 Eu1161 2.480 . S
O1182 Eu1161 2.430 . S
O1182 C1168 1.259 . S
O1183 Eu1161 2.670 . S
O1183 C1168 1.270 . S
O1183 Eu1171 2.355 . S
O1184 Eu1161 2.394 . S
O1184 C1169 1.251 . S
O1185 C1169 1.251 . S
O1185 Eu1171 2.374 . S
O1186 C1170 1.257 . S
O1186 Eu1171 2.473 . S
O1187 C1170 1.260 . S
O1187 Eu1171 2.480 . S
O1188 Eu1171 2.430 . S
O1188 C1178 1.259 . S
O1189 Eu1161 2.355 . S
O1189 Eu1171 2.670 . S
O1189 C1178 1.270 . S
O1190 Eu1171 2.394 . S
O1190 C1179 1.251 . S
O1191 Eu1161 2.374 . S
O1191 C1179 1.251 . S
H1192 C1163 0.931 . S
H1193 C1164 0.931 . S
H1194 C1166 0.931 . S
H1195 C1167 0.931 . S
H1196 C1173 0.931 . S
H1197 C1174 0.931 . S
H1198 C1176 0.931 . S
H1199 C1177 0.931 . S
C1200 Eu1201 2.835 . S
C1200 C1202 1.500 . S
C1200 O1220 1.257 . S
C1200 O1221 1.260 . S
Eu1201 C1200 2.835 . S
Eu1201 O1220 2.473 . S
Eu1201 O1221 2.480 . S
Eu1201 O1222 2.430 . S
Eu1201 O1223 2.670 . S
Eu1201 O1224 2.394 . S
Eu1201 O1229 2.355 . S
Eu1201 O1231 2.374 . S
C1202 C1200 1.500 . S
C1202 C1203 1.377 . S
C1202 C1207 1.377 . S
C1203 C1202 1.377 . S
C1203 C1204 1.395 . S
C1203 H1232 0.931 . S
C1204 C1203 1.395 . S
C1204 C1205 1.383 . S
C1204 H1233 0.931 . S
C1205 C1204 1.383 . S
C1205 C1206 1.394 . S
C1206 C1205 1.394 . S
C1206 C1207 1.378 . S
C1206 H1234 0.931 . S
C1207 C1202 1.377 . S
C1207 C1206 1.378 . S
C1207 H1235 0.931 . S
C1208 O1222 1.259 . S
C1208 O1223 1.270 . S
C1209 O1224 1.251 . S
C1209 O1225 1.251 . S
C1210 Eu1211 2.835 . S
C1210 C1212 1.500 . S
C1210 O1226 1.257 . S
C1210 O1227 1.260 . S
Eu1211 C1210 2.835 . S
Eu1211 O1223 2.355 . S
Eu1211 O1225 2.374 . S
Eu1211 O1226 2.473 . S
Eu1211 O1227 2.480 . S
Eu1211 O1228 2.430 . S
Eu1211 O1229 2.670 . S
Eu1211 O1230 2.394 . S
C1212 C1210 1.500 . S
C1212 C1213 1.377 . S
C1212 C1217 1.377 . S
C1213 C1212 1.377 . S
C1213 C1214 1.395 . S
C1213 H1236 0.931 . S
C1214 C1213 1.395 . S
C1214 C1215 1.383 . S
C1214 H1237 0.931 . S
C1215 C1214 1.383 . S
C1215 C1216 1.394 . S
C1216 C1215 1.394 . S
C1216 C1217 1.378 . S
C1216 H1238 0.931 . S
C1217 C1212 1.377 . S
C1217 C1216 1.378 . S
C1217 H1239 0.931 . S
C1218 O1228 1.259 . S
C1218 O1229 1.270 . S
C1219 O1230 1.251 . S
C1219 O1231 1.251 . S
O1220 C1200 1.257 . S
O1220 Eu1201 2.473 . S
O1221 C1200 1.260 . S
O1221 Eu1201 2.480 . S
O1222 Eu1201 2.430 . S
O1222 C1208 1.259 . S
O1223 Eu1201 2.670 . S
O1223 C1208 1.270 . S
O1223 Eu1211 2.355 . S
O1224 Eu1201 2.394 . S
O1224 C1209 1.251 . S
O1225 C1209 1.251 . S
O1225 Eu1211 2.374 . S
O1226 C1210 1.257 . S
O1226 Eu1211 2.473 . S
O1227 C1210 1.260 . S
O1227 Eu1211 2.480 . S
O1228 Eu1211 2.430 . S
O1228 C1218 1.259 . S
O1229 Eu1201 2.355 . S
O1229 Eu1211 2.670 . S
O1229 C1218 1.270 . S
O1230 Eu1211 2.394 . S
O1230 C1219 1.251 . S
O1231 Eu1201 2.374 . S
O1231 C1219 1.251 . S
H1232 C1203 0.931 . S
H1233 C1204 0.931 . S
H1234 C1206 0.931 . S
H1235 C1207 0.931 . S
H1236 C1213 0.931 . S
H1237 C1214 0.931 . S
H1238 C1216 0.931 . S
H1239 C1217 0.931 . S
C1240 Eu1241 2.835 1_545 S
C1240 C1242 1.500 . S
C1240 O1260 1.257 . S
C1240 O1261 1.261 . S
Eu1241 C1240 2.835 1_565 S
Eu1241 O1260 2.473 1_565 S
Eu1241 O1261 2.479 1_565 S
Eu1241 O1262 2.434 . S
Eu1241 O1263 2.670 1_565 S
Eu1241 O1264 2.394 1_565 S
Eu1241 O1269 2.355 1_565 S
Eu1241 O1271 2.374 . S
C1242 C1240 1.500 . S
C1242 C1243 1.377 . S
C1242 C1247 1.377 . S
C1243 C1242 1.377 . S
C1243 C1244 1.395 . S
C1243 H1272 0.931 . S
C1244 C1243 1.395 . S
C1244 C1245 1.383 . S
C1244 H1273 0.931 . S
C1245 C1244 1.383 . S
C1245 C1246 1.394 . S
C1246 C1245 1.394 . S
C1246 C1247 1.378 . S
C1246 H1274 0.931 . S
C1247 C1242 1.377 . S
C1247 C1246 1.378 . S
C1247 H1275 0.931 . S
C1248 O1262 1.252 1_545 S
C1248 O1263 1.270 . S
C1249 O1264 1.251 . S
C1249 O1265 1.251 . S
C1250 Eu1251 2.835 . S
C1250 C1252 1.500 . S
C1250 O1266 1.257 . S
C1250 O1267 1.260 . S
Eu1251 C1250 2.835 . S
Eu1251 O1263 2.355 . S
Eu1251 O1265 2.374 . S
Eu1251 O1266 2.473 . S
Eu1251 O1267 2.480 . S
Eu1251 O1268 2.430 . S
Eu1251 O1269 2.670 . S
Eu1251 O1270 2.394 1_545 S
C1252 C1250 1.500 . S
C1252 C1253 1.377 . S
C1252 C1257 1.377 1_545 S
C1253 C1252 1.377 . S
C1253 C1254 1.395 . S
C1253 H1276 0.931 . S
C1254 C1253 1.395 . S
C1254 C1255 1.383 1_545 S
C1254 H1277 0.931 . S
C1255 C1254 1.383 1_565 S
C1255 C1256 1.394 . S
C1256 C1255 1.394 . S
C1256 C1257 1.378 . S
C1256 H1278 0.931 . S
C1257 C1252 1.377 1_565 S
C1257 C1256 1.378 . S
C1257 H1279 0.931 . S
C1258 O1268 1.259 . S
C1258 O1269 1.270 . S
C1259 O1270 1.251 . S
C1259 O1271 1.251 . S
O1260 C1240 1.257 . S
O1260 Eu1241 2.473 1_545 S
O1261 C1240 1.261 . S
O1261 Eu1241 2.479 1_545 S
O1262 Eu1241 2.434 . S
O1262 C1248 1.252 1_565 S
O1263 Eu1241 2.670 1_545 S
O1263 C1248 1.270 . S
O1263 Eu1251 2.355 . S
O1264 Eu1241 2.394 1_545 S
O1264 C1249 1.251 . S
O1265 C1249 1.251 . S
O1265 Eu1251 2.374 . S
O1266 C1250 1.257 . S
O1266 Eu1251 2.473 . S
O1267 C1250 1.260 . S
O1267 Eu1251 2.480 . S
O1268 Eu1251 2.430 . S
O1268 C1258 1.259 . S
O1269 Eu1241 2.355 1_545 S
O1269 Eu1251 2.670 . S
O1269 C1258 1.270 . S
O1270 Eu1251 2.394 1_565 S
O1270 C1259 1.251 . S
O1271 Eu1241 2.374 . S
O1271 C1259 1.251 . S
H1272 C1243 0.931 . S
H1273 C1244 0.931 . S
H1274 C1246 0.931 . S
H1275 C1247 0.931 . S
H1276 C1253 0.931 . S
H1277 C1254 0.931 . S
H1278 C1256 0.931 . S
H1279 C1257 0.931 . S
C1280 C1281 1.349 . S
C1280 C1282 1.327 . S
C1280 H1305 0.950 . S
C1281 C1280 1.349 . S
C1281 C1297 1.349 . S
C1282 C1280 1.327 . S
C1282 C1301 1.429 . S
C1282 H1306 0.950 . S
C1283 C1300 1.574 . S
C1283 C1302 1.368 . S
C1283 H1307 0.949 . S
H1284 C1288 0.949 . S
C1285 C1286 1.349 . S
C1285 C1287 1.327 . S
C1285 H1308 0.950 . S
C1286 C1285 1.349 . S
C1286 C1298 1.349 . S
C1287 C1285 1.327 . S
C1287 C1303 1.429 . S
C1287 H1309 0.950 . S
C1288 H1284 0.949 . S
C1288 C1296 1.574 . S
C1288 C1304 1.368 . S
H1289 C1297 0.950 . S
H1290 C1295 0.950 . S
H1291 C1296 0.949 . S
H1292 C1298 0.950 . S
H1293 C1299 0.950 . S
H1294 C1300 0.949 . S
C1295 H1290 0.950 . S
C1295 C1297 1.327 . S
C1295 C1301 1.429 . S
C1296 C1288 1.574 . S
C1296 H1291 0.949 . S
C1296 C1302 1.368 . S
C1297 C1281 1.349 . S
C1297 H1289 0.950 . S
C1297 C1295 1.327 . S
C1298 C1286 1.349 . S
C1298 H1292 0.950 . S
C1298 C1299 1.327 . S
C1299 H1293 0.950 . S
C1299 C1298 1.327 . S
C1299 C1303 1.429 . S
C1300 C1283 1.574 . S
C1300 H1294 0.949 . S
C1300 C1304 1.368 . S
C1301 C1282 1.429 . S
C1301 C1295 1.429 . S
C1301 C1302 1.523 . S
C1302 C1283 1.368 . S
C1302 C1296 1.368 . S
C1302 C1301 1.523 . S
C1303 C1287 1.429 . S
C1303 C1299 1.429 . S
C1303 C1304 1.523 . S
C1304 C1288 1.368 . S
C1304 C1300 1.368 . S
C1304 C1303 1.523 . S
H1305 C1280 0.950 . S
H1306 C1282 0.950 . S
H1307 C1283 0.949 . S
H1308 C1285 0.950 . S
H1309 C1287 0.950 . S
C1310 C1311 1.349 . S
C1310 C1312 1.327 . S
C1310 H1335 0.950 . S
C1311 C1310 1.349 . S
C1311 C1327 1.349 . S
C1312 C1310 1.327 . S
C1312 C1331 1.429 . S
C1312 H1336 0.950 . S
C1313 C1330 1.574 . S
C1313 C1332 1.368 . S
C1313 H1337 0.949 . S
H1314 C1318 0.949 . S
C1315 C1316 1.349 . S
C1315 C1317 1.327 . S
C1315 H1338 0.950 . S
C1316 C1315 1.349 . S
C1316 C1328 1.349 . S
C1317 C1315 1.327 . S
C1317 C1333 1.429 . S
C1317 H1339 0.950 . S
C1318 H1314 0.949 . S
C1318 C1326 1.574 . S
C1318 C1334 1.368 . S
H1319 C1327 0.950 . S
H1320 C1325 0.950 . S
H1321 C1326 0.949 . S
H1322 C1328 0.950 . S
H1323 C1329 0.950 . S
H1324 C1330 0.949 . S
C1325 H1320 0.950 . S
C1325 C1327 1.327 . S
C1325 C1331 1.429 . S
C1326 C1318 1.574 . S
C1326 H1321 0.949 . S
C1326 C1332 1.368 . S
C1327 C1311 1.349 . S
C1327 H1319 0.950 . S
C1327 C1325 1.327 . S
C1328 C1316 1.349 . S
C1328 H1322 0.950 . S
C1328 C1329 1.327 . S
C1329 H1323 0.950 . S
C1329 C1328 1.327 . S
C1329 C1333 1.429 . S
C1330 C1313 1.574 . S
C1330 H1324 0.949 . S
C1330 C1334 1.368 . S
C1331 C1312 1.429 . S
C1331 C1325 1.429 . S
C1331 C1332 1.523 . S
C1332 C1313 1.368 . S
C1332 C1326 1.368 . S
C1332 C1331 1.523 . S
C1333 C1317 1.429 . S
C1333 C1329 1.429 . S
C1333 C1334 1.523 . S
C1334 C1318 1.368 . S
C1334 C1330 1.368 . S
C1334 C1333 1.523 . S
H1335 C1310 0.950 . S
H1336 C1312 0.950 . S
H1337 C1313 0.949 . S
H1338 C1315 0.950 . S
H1339 C1317 0.950 . S
C1340 C1341 1.349 . S
C1340 C1342 1.327 . S
C1340 H1365 0.950 . S
C1341 C1340 1.349 . S
C1341 C1357 1.349 . S
C1342 C1340 1.327 . S
C1342 C1361 1.429 . S
C1342 H1366 0.950 . S
C1343 C1360 1.574 . S
C1343 C1362 1.368 . S
C1343 H1367 0.949 . S
H1344 C1348 0.949 . S
C1345 C1346 1.349 . S
C1345 C1347 1.327 . S
C1345 H1368 0.950 . S
C1346 C1345 1.349 . S
C1346 C1358 1.349 . S
C1347 C1345 1.327 . S
C1347 C1363 1.429 . S
C1347 H1369 0.950 . S
C1348 H1344 0.949 . S
C1348 C1356 1.574 . S
C1348 C1364 1.368 . S
H1349 C1357 0.950 . S
H1350 C1355 0.950 . S
H1351 C1356 0.949 . S
H1352 C1358 0.950 . S
H1353 C1359 0.950 . S
H1354 C1360 0.949 . S
C1355 H1350 0.950 . S
C1355 C1357 1.327 . S
C1355 C1361 1.429 . S
C1356 C1348 1.574 . S
C1356 H1351 0.949 . S
C1356 C1362 1.368 . S
C1357 C1341 1.349 . S
C1357 H1349 0.950 . S
C1357 C1355 1.327 . S
C1358 C1346 1.349 . S
C1358 H1352 0.950 . S
C1358 C1359 1.327 . S
C1359 H1353 0.950 . S
C1359 C1358 1.327 . S
C1359 C1363 1.429 . S
C1360 C1343 1.574 . S
C1360 H1354 0.949 . S
C1360 C1364 1.368 . S
C1361 C1342 1.429 . S
C1361 C1355 1.429 . S
C1361 C1362 1.523 . S
C1362 C1343 1.368 . S
C1362 C1356 1.368 . S
C1362 C1361 1.523 . S
C1363 C1347 1.429 . S
C1363 C1359 1.429 . S
C1363 C1364 1.523 . S
C1364 C1348 1.368 . S
C1364 C1360 1.368 . S
C1364 C1363 1.523 . S
H1365 C1340 0.950 . S
H1366 C1342 0.950 . S
H1367 C1343 0.949 . S
H1368 C1345 0.950 . S
H1369 C1347 0.950 . S
C1370 C1371 1.349 . S
C1370 C1372 1.327 . S
C1370 H1395 0.950 . S
C1371 C1370 1.349 . S
C1371 C1387 1.349 . S
C1372 C1370 1.327 . S
C1372 C1391 1.429 . S
C1372 H1396 0.950 . S
C1373 C1390 1.574 . S
C1373 C1392 1.368 . S
C1373 H1397 0.949 . S
H1374 C1378 0.949 . S
C1375 C1376 1.349 . S
C1375 C1377 1.327 . S
C1375 H1398 0.950 . S
C1376 C1375 1.349 . S
C1376 C1388 1.349 . S
C1377 C1375 1.327 . S
C1377 C1393 1.429 . S
C1377 H1399 0.950 . S
C1378 H1374 0.949 . S
C1378 C1386 1.574 . S
C1378 C1394 1.368 . S
H1379 C1387 0.950 . S
H1380 C1385 0.950 . S
H1381 C1386 0.949 . S
H1382 C1388 0.950 . S
H1383 C1389 0.950 . S
H1384 C1390 0.949 . S
C1385 H1380 0.950 . S
C1385 C1387 1.327 . S
C1385 C1391 1.429 . S
C1386 C1378 1.574 . S
C1386 H1381 0.949 . S
C1386 C1392 1.368 . S
C1387 C1371 1.349 . S
C1387 H1379 0.950 . S
C1387 C1385 1.327 . S
C1388 C1376 1.349 . S
C1388 H1382 0.950 . S
C1388 C1389 1.327 . S
C1389 H1383 0.950 . S
C1389 C1388 1.327 . S
C1389 C1393 1.429 . S
C1390 C1373 1.574 . S
C1390 H1384 0.949 . S
C1390 C1394 1.368 . S
C1391 C1372 1.429 . S
C1391 C1385 1.429 . S
C1391 C1392 1.523 . S
C1392 C1373 1.368 . S
C1392 C1386 1.368 . S
C1392 C1391 1.523 . S
C1393 C1377 1.429 . S
C1393 C1389 1.429 . S
C1393 C1394 1.523 . S
C1394 C1378 1.368 . S
C1394 C1390 1.368 . S
C1394 C1393 1.523 . S
H1395 C1370 0.950 . S
H1396 C1372 0.950 . S
H1397 C1373 0.949 . S
H1398 C1375 0.950 . S
H1399 C1377 0.950 . S
C1400 C1401 1.349 . S
C1400 C1402 1.327 . S
C1400 H1425 0.950 . S
C1401 C1400 1.349 . S
C1401 C1417 1.349 . S
C1402 C1400 1.327 . S
C1402 C1421 1.429 . S
C1402 H1426 0.950 . S
C1403 C1420 1.574 . S
C1403 C1422 1.368 . S
C1403 H1427 0.949 . S
H1404 C1408 0.949 . S
C1405 C1406 1.349 . S
C1405 C1407 1.327 . S
C1405 H1428 0.950 . S
C1406 C1405 1.349 . S
C1406 C1418 1.349 . S
C1407 C1405 1.327 . S
C1407 C1423 1.429 . S
C1407 H1429 0.950 . S
C1408 H1404 0.949 . S
C1408 C1416 1.574 . S
C1408 C1424 1.368 . S
H1409 C1417 0.950 . S
H1410 C1415 0.950 . S
H1411 C1416 0.949 . S
H1412 C1418 0.950 . S
H1413 C1419 0.950 . S
H1414 C1420 0.949 . S
C1415 H1410 0.950 . S
C1415 C1417 1.327 . S
C1415 C1421 1.429 . S
C1416 C1408 1.574 . S
C1416 H1411 0.949 . S
C1416 C1422 1.368 . S
C1417 C1401 1.349 . S
C1417 H1409 0.950 . S
C1417 C1415 1.327 . S
C1418 C1406 1.349 . S
C1418 H1412 0.950 . S
C1418 C1419 1.327 . S
C1419 H1413 0.950 . S
C1419 C1418 1.327 . S
C1419 C1423 1.429 . S
C1420 C1403 1.574 . S
C1420 H1414 0.949 . S
C1420 C1424 1.368 . S
C1421 C1402 1.429 . S
C1421 C1415 1.429 . S
C1421 C1422 1.523 . S
C1422 C1403 1.368 . S
C1422 C1416 1.368 . S
C1422 C1421 1.523 . S
C1423 C1407 1.429 . S
C1423 C1419 1.429 . S
C1423 C1424 1.523 . S
C1424 C1408 1.368 . S
C1424 C1420 1.368 . S
C1424 C1423 1.523 . S
H1425 C1400 0.950 . S
H1426 C1402 0.950 . S
H1427 C1403 0.949 . S
H1428 C1405 0.950 . S
H1429 C1407 0.950 . S
C1430 C1431 1.349 . S
C1430 C1432 1.327 . S
C1430 H1455 0.950 . S
C1431 C1430 1.349 . S
C1431 C1447 1.349 . S
C1432 C1430 1.327 . S
C1432 C1451 1.429 . S
C1432 H1456 0.950 . S
C1433 C1450 1.574 . S
C1433 C1452 1.368 . S
C1433 H1457 0.949 . S
H1434 C1438 0.949 . S
C1435 C1436 1.349 . S
C1435 C1437 1.327 . S
C1435 H1458 0.950 . S
C1436 C1435 1.349 . S
C1436 C1448 1.349 . S
C1437 C1435 1.327 . S
C1437 C1453 1.429 . S
C1437 H1459 0.950 . S
C1438 H1434 0.949 . S
C1438 C1446 1.574 . S
C1438 C1454 1.368 . S
H1439 C1447 0.950 . S
H1440 C1445 0.950 . S
H1441 C1446 0.949 . S
H1442 C1448 0.950 . S
H1443 C1449 0.950 . S
H1444 C1450 0.949 . S
C1445 H1440 0.950 . S
C1445 C1447 1.327 . S
C1445 C1451 1.429 . S
C1446 C1438 1.574 . S
C1446 H1441 0.949 . S
C1446 C1452 1.368 . S
C1447 C1431 1.349 . S
C1447 H1439 0.950 . S
C1447 C1445 1.327 . S
C1448 C1436 1.349 . S
C1448 H1442 0.950 . S
C1448 C1449 1.327 . S
C1449 H1443 0.950 . S
C1449 C1448 1.327 . S
C1449 C1453 1.429 . S
C1450 C1433 1.574 . S
C1450 H1444 0.949 . S
C1450 C1454 1.368 . S
C1451 C1432 1.429 . S
C1451 C1445 1.429 . S
C1451 C1452 1.523 . S
C1452 C1433 1.368 . S
C1452 C1446 1.368 . S
C1452 C1451 1.523 . S
C1453 C1437 1.429 . S
C1453 C1449 1.429 . S
C1453 C1454 1.523 . S
C1454 C1438 1.368 . S
C1454 C1450 1.368 . S
C1454 C1453 1.523 . S
H1455 C1430 0.950 . S
H1456 C1432 0.950 . S
H1457 C1433 0.949 . S
H1458 C1435 0.950 . S
H1459 C1437 0.950 . S
C1460 C1461 1.349 . S
C1460 C1462 1.327 . S
C1460 H1485 0.950 . S
C1461 C1460 1.349 . S
C1461 C1477 1.349 . S
C1462 C1460 1.327 . S
C1462 C1481 1.429 . S
C1462 H1486 0.950 . S
C1463 C1480 1.574 . S
C1463 C1482 1.368 . S
C1463 H1487 0.949 . S
H1464 C1468 0.949 . S
C1465 C1466 1.349 . S
C1465 C1467 1.327 . S
C1465 H1488 0.950 . S
C1466 C1465 1.349 . S
C1466 C1478 1.349 . S
C1467 C1465 1.327 . S
C1467 C1483 1.429 . S
C1467 H1489 0.950 . S
C1468 H1464 0.949 . S
C1468 C1476 1.574 . S
C1468 C1484 1.368 . S
H1469 C1477 0.950 . S
H1470 C1475 0.950 . S
H1471 C1476 0.949 . S
H1472 C1478 0.950 . S
H1473 C1479 0.950 . S
H1474 C1480 0.949 . S
C1475 H1470 0.950 . S
C1475 C1477 1.327 . S
C1475 C1481 1.429 . S
C1476 C1468 1.574 . S
C1476 H1471 0.949 . S
C1476 C1482 1.368 . S
C1477 C1461 1.349 . S
C1477 H1469 0.950 . S
C1477 C1475 1.327 . S
C1478 C1466 1.349 . S
C1478 H1472 0.950 . S
C1478 C1479 1.327 . S
C1479 H1473 0.950 . S
C1479 C1478 1.327 . S
C1479 C1483 1.429 . S
C1480 C1463 1.574 . S
C1480 H1474 0.949 . S
C1480 C1484 1.368 . S
C1481 C1462 1.429 . S
C1481 C1475 1.429 . S
C1481 C1482 1.523 . S
C1482 C1463 1.368 . S
C1482 C1476 1.368 . S
C1482 C1481 1.523 . S
C1483 C1467 1.429 . S
C1483 C1479 1.429 . S
C1483 C1484 1.523 . S
C1484 C1468 1.368 . S
C1484 C1480 1.368 . S
C1484 C1483 1.523 . S
H1485 C1460 0.950 . S
H1486 C1462 0.950 . S
H1487 C1463 0.949 . S
H1488 C1465 0.950 . S
H1489 C1467 0.950 . S
C1490 C1491 1.349 . S
C1490 C1492 1.327 . S
C1490 H1515 0.950 . S
C1491 C1490 1.349 . S
C1491 C1507 1.349 . S
C1492 C1490 1.327 . S
C1492 C1511 1.429 . S
C1492 H1516 0.950 . S
C1493 C1510 1.574 . S
C1493 C1512 1.368 . S
C1493 H1517 0.949 . S
H1494 C1498 0.949 . S
C1495 C1496 1.349 . S
C1495 C1497 1.327 . S
C1495 H1518 0.950 . S
C1496 C1495 1.349 . S
C1496 C1508 1.349 . S
C1497 C1495 1.327 . S
C1497 C1513 1.429 . S
C1497 H1519 0.950 . S
C1498 H1494 0.949 . S
C1498 C1506 1.574 . S
C1498 C1514 1.368 . S
H1499 C1507 0.950 . S
H1500 C1505 0.950 . S
H1501 C1506 0.949 . S
H1502 C1508 0.950 . S
H1503 C1509 0.950 . S
H1504 C1510 0.949 . S
C1505 H1500 0.950 . S
C1505 C1507 1.327 . S
C1505 C1511 1.429 . S
C1506 C1498 1.574 . S
C1506 H1501 0.949 . S
C1506 C1512 1.368 . S
C1507 C1491 1.349 . S
C1507 H1499 0.950 . S
C1507 C1505 1.327 . S
C1508 C1496 1.349 . S
C1508 H1502 0.950 . S
C1508 C1509 1.327 . S
C1509 H1503 0.950 . S
C1509 C1508 1.327 . S
C1509 C1513 1.429 . S
C1510 C1493 1.574 . S
C1510 H1504 0.949 . S
C1510 C1514 1.368 . S
C1511 C1492 1.429 . S
C1511 C1505 1.429 . S
C1511 C1512 1.523 . S
C1512 C1493 1.368 . S
C1512 C1506 1.368 . S
C1512 C1511 1.523 . S
C1513 C1497 1.429 . S
C1513 C1509 1.429 . S
C1513 C1514 1.523 . S
C1514 C1498 1.368 . S
C1514 C1510 1.368 . S
C1514 C1513 1.523 . S
H1515 C1490 0.950 . S
H1516 C1492 0.950 . S
H1517 C1493 0.949 . S
H1518 C1495 0.950 . S
H1519 C1497 0.950 . S
C1520 C1521 1.349 . S
C1520 C1522 1.327 . S
C1520 H1545 0.950 . S
C1521 C1520 1.349 . S
C1521 C1537 1.349 . S
C1522 C1520 1.327 . S
C1522 C1541 1.429 . S
C1522 H1546 0.950 . S
C1523 C1540 1.574 . S
C1523 C1542 1.368 . S
C1523 H1547 0.949 . S
H1524 C1528 0.949 . S
C1525 C1526 1.349 . S
C1525 C1527 1.327 . S
C1525 H1548 0.950 . S
C1526 C1525 1.349 . S
C1526 C1538 1.349 . S
C1527 C1525 1.327 . S
C1527 C1543 1.429 . S
C1527 H1549 0.950 . S
C1528 H1524 0.949 . S
C1528 C1536 1.574 . S
C1528 C1544 1.368 . S
H1529 C1537 0.950 . S
H1530 C1535 0.950 . S
H1531 C1536 0.949 . S
H1532 C1538 0.950 . S
H1533 C1539 0.950 . S
H1534 C1540 0.949 . S
C1535 H1530 0.950 . S
C1535 C1537 1.327 . S
C1535 C1541 1.429 . S
C1536 C1528 1.574 . S
C1536 H1531 0.949 . S
C1536 C1542 1.368 . S
C1537 C1521 1.349 . S
C1537 H1529 0.950 . S
C1537 C1535 1.327 . S
C1538 C1526 1.349 . S
C1538 H1532 0.950 . S
C1538 C1539 1.327 . S
C1539 H1533 0.950 . S
C1539 C1538 1.327 . S
C1539 C1543 1.429 . S
C1540 C1523 1.574 . S
C1540 H1534 0.949 . S
C1540 C1544 1.368 . S
C1541 C1522 1.429 . S
C1541 C1535 1.429 . S
C1541 C1542 1.523 . S
C1542 C1523 1.368 . S
C1542 C1536 1.368 . S
C1542 C1541 1.523 . S
C1543 C1527 1.429 . S
C1543 C1539 1.429 . S
C1543 C1544 1.523 . S
C1544 C1528 1.368 . S
C1544 C1540 1.368 . S
C1544 C1543 1.523 . S
H1545 C1520 0.950 . S
H1546 C1522 0.950 . S
H1547 C1523 0.949 . S
H1548 C1525 0.950 . S
H1549 C1527 0.950 . S
C1550 C1551 1.349 . S
C1550 C1552 1.327 . S
C1550 H1575 0.950 . S
C1551 C1550 1.349 . S
C1551 C1567 1.349 . S
C1552 C1550 1.327 . S
C1552 C1571 1.429 . S
C1552 H1576 0.950 . S
C1553 C1570 1.574 . S
C1553 C1572 1.368 . S
C1553 H1577 0.949 . S
H1554 C1558 0.949 . S
C1555 C1556 1.349 . S
C1555 C1557 1.327 . S
C1555 H1578 0.950 . S
C1556 C1555 1.349 . S
C1556 C1568 1.349 . S
C1557 C1555 1.327 . S
C1557 C1573 1.429 . S
C1557 H1579 0.950 . S
C1558 H1554 0.949 . S
C1558 C1566 1.574 . S
C1558 C1574 1.368 . S
H1559 C1567 0.950 . S
H1560 C1565 0.950 . S
H1561 C1566 0.949 . S
H1562 C1568 0.950 . S
H1563 C1569 0.950 . S
H1564 C1570 0.949 . S
C1565 H1560 0.950 . S
C1565 C1567 1.327 . S
C1565 C1571 1.429 . S
C1566 C1558 1.574 . S
C1566 H1561 0.949 . S
C1566 C1572 1.368 . S
C1567 C1551 1.349 . S
C1567 H1559 0.950 . S
C1567 C1565 1.327 . S
C1568 C1556 1.349 . S
C1568 H1562 0.950 . S
C1568 C1569 1.327 . S
C1569 H1563 0.950 . S
C1569 C1568 1.327 . S
C1569 C1573 1.429 . S
C1570 C1553 1.574 . S
C1570 H1564 0.949 . S
C1570 C1574 1.368 . S
C1571 C1552 1.429 . S
C1571 C1565 1.429 . S
C1571 C1572 1.523 . S
C1572 C1553 1.368 . S
C1572 C1566 1.368 . S
C1572 C1571 1.523 . S
C1573 C1557 1.429 . S
C1573 C1569 1.429 . S
C1573 C1574 1.523 . S
C1574 C1558 1.368 . S
C1574 C1570 1.368 . S
C1574 C1573 1.523 . S
H1575 C1550 0.950 . S
H1576 C1552 0.950 . S
H1577 C1553 0.949 . S
H1578 C1555 0.950 . S
H1579 C1557 0.950 . S
C1580 C1581 1.349 . S
C1580 C1582 1.327 . S
C1580 H1605 0.950 . S
C1581 C1580 1.349 . S
C1581 C1597 1.349 . S
C1582 C1580 1.327 . S
C1582 C1601 1.429 . S
C1582 H1606 0.950 . S
C1583 C1600 1.574 . S
C1583 C1602 1.368 . S
C1583 H1607 0.949 . S
H1584 C1588 0.949 . S
C1585 C1586 1.349 . S
C1585 C1587 1.327 . S
C1585 H1608 0.950 . S
C1586 C1585 1.349 . S
C1586 C1598 1.349 . S
C1587 C1585 1.327 . S
C1587 C1603 1.429 . S
C1587 H1609 0.950 . S
C1588 H1584 0.949 . S
C1588 C1596 1.574 . S
C1588 C1604 1.368 . S
H1589 C1597 0.950 . S
H1590 C1595 0.950 . S
H1591 C1596 0.949 . S
H1592 C1598 0.950 . S
H1593 C1599 0.950 . S
H1594 C1600 0.949 . S
C1595 H1590 0.950 . S
C1595 C1597 1.327 . S
C1595 C1601 1.429 . S
C1596 C1588 1.574 . S
C1596 H1591 0.949 . S
C1596 C1602 1.368 . S
C1597 C1581 1.349 . S
C1597 H1589 0.950 . S
C1597 C1595 1.327 . S
C1598 C1586 1.349 . S
C1598 H1592 0.950 . S
C1598 C1599 1.327 . S
C1599 H1593 0.950 . S
C1599 C1598 1.327 . S
C1599 C1603 1.429 . S
C1600 C1583 1.574 . S
C1600 H1594 0.949 . S
C1600 C1604 1.368 . S
C1601 C1582 1.429 . S
C1601 C1595 1.429 . S
C1601 C1602 1.523 . S
C1602 C1583 1.368 . S
C1602 C1596 1.368 . S
C1602 C1601 1.523 . S
C1603 C1587 1.429 . S
C1603 C1599 1.429 . S
C1603 C1604 1.523 . S
C1604 C1588 1.368 . S
C1604 C1600 1.368 . S
C1604 C1603 1.523 . S
H1605 C1580 0.950 . S
H1606 C1582 0.950 . S
H1607 C1583 0.949 . S
H1608 C1585 0.950 . S
H1609 C1587 0.950 . S
C1610 C1611 1.349 . S
C1610 C1612 1.327 . S
C1610 H1635 0.950 . S
C1611 C1610 1.349 . S
C1611 C1627 1.349 . S
C1612 C1610 1.327 . S
C1612 C1631 1.429 . S
C1612 H1636 0.950 . S
C1613 C1630 1.574 . S
C1613 C1632 1.368 . S
C1613 H1637 0.949 . S
H1614 C1618 0.949 . S
C1615 C1616 1.349 . S
C1615 C1617 1.327 . S
C1615 H1638 0.950 . S
C1616 C1615 1.349 . S
C1616 C1628 1.349 . S
C1617 C1615 1.327 . S
C1617 C1633 1.429 . S
C1617 H1639 0.950 . S
C1618 H1614 0.949 . S
C1618 C1626 1.574 . S
C1618 C1634 1.368 . S
H1619 C1627 0.950 . S
H1620 C1625 0.950 . S
H1621 C1626 0.949 . S
H1622 C1628 0.950 . S
H1623 C1629 0.950 . S
H1624 C1630 0.949 . S
C1625 H1620 0.950 . S
C1625 C1627 1.327 . S
C1625 C1631 1.429 . S
C1626 C1618 1.574 . S
C1626 H1621 0.949 . S
C1626 C1632 1.368 . S
C1627 C1611 1.349 . S
C1627 H1619 0.950 . S
C1627 C1625 1.327 . S
C1628 C1616 1.349 . S
C1628 H1622 0.950 . S
C1628 C1629 1.327 . S
C1629 H1623 0.950 . S
C1629 C1628 1.327 . S
C1629 C1633 1.429 . S
C1630 C1613 1.574 . S
C1630 H1624 0.949 . S
C1630 C1634 1.368 . S
C1631 C1612 1.429 . S
C1631 C1625 1.429 . S
C1631 C1632 1.523 . S
C1632 C1613 1.368 . S
C1632 C1626 1.368 . S
C1632 C1631 1.523 . S
C1633 C1617 1.429 . S
C1633 C1629 1.429 . S
C1633 C1634 1.523 . S
C1634 C1618 1.368 . S
C1634 C1630 1.368 . S
C1634 C1633 1.523 . S
H1635 C1610 0.950 . S
H1636 C1612 0.950 . S
H1637 C1613 0.949 . S
H1638 C1615 0.950 . S
H1639 C1617 0.950 . S
C1640 C1641 1.349 . S
C1640 C1642 1.327 . S
C1640 H1665 0.950 . S
C1641 C1640 1.349 . S
C1641 C1657 1.349 . S
C1642 C1640 1.327 . S
C1642 C1661 1.429 . S
C1642 H1666 0.950 . S
C1643 C1660 1.574 . S
C1643 C1662 1.368 . S
C1643 H1667 0.949 . S
H1644 C1648 0.949 . S
C1645 C1646 1.349 . S
C1645 C1647 1.327 . S
C1645 H1668 0.950 . S
C1646 C1645 1.349 . S
C1646 C1658 1.349 . S
C1647 C1645 1.327 . S
C1647 C1663 1.429 . S
C1647 H1669 0.950 . S
C1648 H1644 0.949 . S
C1648 C1656 1.574 . S
C1648 C1664 1.368 . S
H1649 C1657 0.950 . S
H1650 C1655 0.950 . S
H1651 C1656 0.949 . S
H1652 C1658 0.950 . S
H1653 C1659 0.950 . S
H1654 C1660 0.949 . S
C1655 H1650 0.950 . S
C1655 C1657 1.327 . S
C1655 C1661 1.429 . S
C1656 C1648 1.574 . S
C1656 H1651 0.949 . S
C1656 C1662 1.368 . S
C1657 C1641 1.349 . S
C1657 H1649 0.950 . S
C1657 C1655 1.327 . S
C1658 C1646 1.349 . S
C1658 H1652 0.950 . S
C1658 C1659 1.327 . S
C1659 H1653 0.950 . S
C1659 C1658 1.327 . S
C1659 C1663 1.429 . S
C1660 C1643 1.574 . S
C1660 H1654 0.949 . S
C1660 C1664 1.368 . S
C1661 C1642 1.429 . S
C1661 C1655 1.429 . S
C1661 C1662 1.523 . S
C1662 C1643 1.368 . S
C1662 C1656 1.368 . S
C1662 C1661 1.523 . S
C1663 C1647 1.429 . S
C1663 C1659 1.429 . S
C1663 C1664 1.523 . S
C1664 C1648 1.368 . S
C1664 C1660 1.368 . S
C1664 C1663 1.523 . S
H1665 C1640 0.950 . S
H1666 C1642 0.950 . S
H1667 C1643 0.949 . S
H1668 C1645 0.950 . S
H1669 C1647 0.950 . S
C1670 C1671 1.349 . S
C1670 C1672 1.327 . S
C1670 H1695 0.950 . S
C1671 C1670 1.349 . S
C1671 C1687 1.349 . S
C1672 C1670 1.327 . S
C1672 C1691 1.429 . S
C1672 H1696 0.950 . S
C1673 C1690 1.574 . S
C1673 C1692 1.368 . S
C1673 H1697 0.949 . S
H1674 C1678 0.949 . S
C1675 C1676 1.349 . S
C1675 C1677 1.327 . S
C1675 H1698 0.950 . S
C1676 C1675 1.349 . S
C1676 C1688 1.349 . S
C1677 C1675 1.327 . S
C1677 C1693 1.429 . S
C1677 H1699 0.950 . S
C1678 H1674 0.949 . S
C1678 C1686 1.574 . S
C1678 C1694 1.368 . S
H1679 C1687 0.950 . S
H1680 C1685 0.950 . S
H1681 C1686 0.949 . S
H1682 C1688 0.950 . S
H1683 C1689 0.950 . S
H1684 C1690 0.949 . S
C1685 H1680 0.950 . S
C1685 C1687 1.327 . S
C1685 C1691 1.429 . S
C1686 C1678 1.574 . S
C1686 H1681 0.949 . S
C1686 C1692 1.368 . S
C1687 C1671 1.349 . S
C1687 H1679 0.950 . S
C1687 C1685 1.327 . S
C1688 C1676 1.349 . S
C1688 H1682 0.950 . S
C1688 C1689 1.327 . S
C1689 H1683 0.950 . S
C1689 C1688 1.327 . S
C1689 C1693 1.429 . S
C1690 C1673 1.574 . S
C1690 H1684 0.949 . S
C1690 C1694 1.368 . S
C1691 C1672 1.429 . S
C1691 C1685 1.429 . S
C1691 C1692 1.523 . S
C1692 C1673 1.368 . S
C1692 C1686 1.368 . S
C1692 C1691 1.523 . S
C1693 C1677 1.429 . S
C1693 C1689 1.429 . S
C1693 C1694 1.523 . S
C1694 C1678 1.368 . S
C1694 C1690 1.368 . S
C1694 C1693 1.523 . S
H1695 C1670 0.950 . S
H1696 C1672 0.950 . S
H1697 C1673 0.949 . S
H1698 C1675 0.950 . S
H1699 C1677 0.950 . S
C1700 C1701 1.349 . S
C1700 C1702 1.327 . S
C1700 H1725 0.950 . S
C1701 C1700 1.349 . S
C1701 C1717 1.349 . S
C1702 C1700 1.327 . S
C1702 C1721 1.429 . S
C1702 H1726 0.950 . S
C1703 C1720 1.574 . S
C1703 C1722 1.368 . S
C1703 H1727 0.949 . S
H1704 C1708 0.949 . S
C1705 C1706 1.349 . S
C1705 C1707 1.327 . S
C1705 H1728 0.950 . S
C1706 C1705 1.349 . S
C1706 C1718 1.349 . S
C1707 C1705 1.327 . S
C1707 C1723 1.429 . S
C1707 H1729 0.950 . S
C1708 H1704 0.949 . S
C1708 C1716 1.574 . S
C1708 C1724 1.368 . S
H1709 C1717 0.950 . S
H1710 C1715 0.950 . S
H1711 C1716 0.949 . S
H1712 C1718 0.950 . S
H1713 C1719 0.950 . S
H1714 C1720 0.949 . S
C1715 H1710 0.950 . S
C1715 C1717 1.327 . S
C1715 C1721 1.429 . S
C1716 C1708 1.574 . S
C1716 H1711 0.949 . S
C1716 C1722 1.368 . S
C1717 C1701 1.349 . S
C1717 H1709 0.950 . S
C1717 C1715 1.327 . S
C1718 C1706 1.349 . S
C1718 H1712 0.950 . S
C1718 C1719 1.327 . S
C1719 H1713 0.950 . S
C1719 C1718 1.327 . S
C1719 C1723 1.429 . S
C1720 C1703 1.574 . S
C1720 H1714 0.949 . S
C1720 C1724 1.368 . S
C1721 C1702 1.429 . S
C1721 C1715 1.429 . S
C1721 C1722 1.523 . S
C1722 C1703 1.368 . S
C1722 C1716 1.368 . S
C1722 C1721 1.523 . S
C1723 C1707 1.429 . S
C1723 C1719 1.429 . S
C1723 C1724 1.523 . S
C1724 C1708 1.368 . S
C1724 C1720 1.368 . S
C1724 C1723 1.523 . S
H1725 C1700 0.950 . S
H1726 C1702 0.950 . S
H1727 C1703 0.949 . S
H1728 C1705 0.950 . S
H1729 C1707 0.950 . S
C1730 C1731 1.349 . S
C1730 C1732 1.327 . S
C1730 H1755 0.950 . S
C1731 C1730 1.349 . S
C1731 C1747 1.349 . S
C1732 C1730 1.327 . S
C1732 C1751 1.429 . S
C1732 H1756 0.950 . S
C1733 C1750 1.574 . S
C1733 C1752 1.368 . S
C1733 H1757 0.949 . S
H1734 C1738 0.949 . S
C1735 C1736 1.349 . S
C1735 C1737 1.327 . S
C1735 H1758 0.950 . S
C1736 C1735 1.349 . S
C1736 C1748 1.349 . S
C1737 C1735 1.327 . S
C1737 C1753 1.429 . S
C1737 H1759 0.950 . S
C1738 H1734 0.949 . S
C1738 C1746 1.574 . S
C1738 C1754 1.368 . S
H1739 C1747 0.950 . S
H1740 C1745 0.950 . S
H1741 C1746 0.949 . S
H1742 C1748 0.950 . S
H1743 C1749 0.950 . S
H1744 C1750 0.949 . S
C1745 H1740 0.950 . S
C1745 C1747 1.327 . S
C1745 C1751 1.429 . S
C1746 C1738 1.574 . S
C1746 H1741 0.949 . S
C1746 C1752 1.368 . S
C1747 C1731 1.349 . S
C1747 H1739 0.950 . S
C1747 C1745 1.327 . S
C1748 C1736 1.349 . S
C1748 H1742 0.950 . S
C1748 C1749 1.327 . S
C1749 H1743 0.950 . S
C1749 C1748 1.327 . S
C1749 C1753 1.429 . S
C1750 C1733 1.574 . S
C1750 H1744 0.949 . S
C1750 C1754 1.368 . S
C1751 C1732 1.429 . S
C1751 C1745 1.429 . S
C1751 C1752 1.523 . S
C1752 C1733 1.368 . S
C1752 C1746 1.368 . S
C1752 C1751 1.523 . S
C1753 C1737 1.429 . S
C1753 C1749 1.429 . S
C1753 C1754 1.523 . S
C1754 C1738 1.368 . S
C1754 C1750 1.368 . S
C1754 C1753 1.523 . S
H1755 C1730 0.950 . S
H1756 C1732 0.950 . S
H1757 C1733 0.949 . S
H1758 C1735 0.950 . S
H1759 C1737 0.950 . S
C1760 C1761 1.349 . S
C1760 C1762 1.327 . S
C1760 H1785 0.950 . S
C1761 C1760 1.349 . S
C1761 C1777 1.349 . S
C1762 C1760 1.327 . S
C1762 C1781 1.429 . S
C1762 H1786 0.950 . S
C1763 C1780 1.574 . S
C1763 C1782 1.368 . S
C1763 H1787 0.949 . S
H1764 C1768 0.949 . S
C1765 C1766 1.349 . S
C1765 C1767 1.327 . S
C1765 H1788 0.950 . S
C1766 C1765 1.349 . S
C1766 C1778 1.349 . S
C1767 C1765 1.327 . S
C1767 C1783 1.429 . S
C1767 H1789 0.950 . S
C1768 H1764 0.949 . S
C1768 C1776 1.574 . S
C1768 C1784 1.368 . S
H1769 C1777 0.950 . S
H1770 C1775 0.950 . S
H1771 C1776 0.949 . S
H1772 C1778 0.950 . S
H1773 C1779 0.950 . S
H1774 C1780 0.949 . S
C1775 H1770 0.950 . S
C1775 C1777 1.327 . S
C1775 C1781 1.429 . S
C1776 C1768 1.574 . S
C1776 H1771 0.949 . S
C1776 C1782 1.368 . S
C1777 C1761 1.349 . S
C1777 H1769 0.950 . S
C1777 C1775 1.327 . S
C1778 C1766 1.349 . S
C1778 H1772 0.950 . S
C1778 C1779 1.327 . S
C1779 H1773 0.950 . S
C1779 C1778 1.327 . S
C1779 C1783 1.429 . S
C1780 C1763 1.574 . S
C1780 H1774 0.949 . S
C1780 C1784 1.368 . S
C1781 C1762 1.429 . S
C1781 C1775 1.429 . S
C1781 C1782 1.523 . S
C1782 C1763 1.368 . S
C1782 C1776 1.368 . S
C1782 C1781 1.523 . S
C1783 C1767 1.429 . S
C1783 C1779 1.429 . S
C1783 C1784 1.523 . S
C1784 C1768 1.368 . S
C1784 C1780 1.368 . S
C1784 C1783 1.523 . S
H1785 C1760 0.950 . S
H1786 C1762 0.950 . S
H1787 C1763 0.949 . S
H1788 C1765 0.950 . S
H1789 C1767 0.950 . S
C1790 C1791 1.349 . S
C1790 C1792 1.327 . S
C1790 H1815 0.950 . S
C1791 C1790 1.349 . S
C1791 C1807 1.349 . S
C1792 C1790 1.327 . S
C1792 C1811 1.429 . S
C1792 H1816 0.950 . S
C1793 C1810 1.574 . S
C1793 C1812 1.368 . S
C1793 H1817 0.949 . S
H1794 C1798 0.949 . S
C1795 C1796 1.349 . S
C1795 C1797 1.327 . S
C1795 H1818 0.950 . S
C1796 C1795 1.349 . S
C1796 C1808 1.349 . S
C1797 C1795 1.327 . S
C1797 C1813 1.429 . S
C1797 H1819 0.950 . S
C1798 H1794 0.949 . S
C1798 C1806 1.574 . S
C1798 C1814 1.368 . S
H1799 C1807 0.950 . S
H1800 C1805 0.950 . S
H1801 C1806 0.949 . S
H1802 C1808 0.950 . S
H1803 C1809 0.950 . S
H1804 C1810 0.949 . S
C1805 H1800 0.950 . S
C1805 C1807 1.327 . S
C1805 C1811 1.429 . S
C1806 C1798 1.574 . S
C1806 H1801 0.949 . S
C1806 C1812 1.368 . S
C1807 C1791 1.349 . S
C1807 H1799 0.950 . S
C1807 C1805 1.327 . S
C1808 C1796 1.349 . S
C1808 H1802 0.950 . S
C1808 C1809 1.327 . S
C1809 H1803 0.950 . S
C1809 C1808 1.327 . S
C1809 C1813 1.429 . S
C1810 C1793 1.574 . S
C1810 H1804 0.949 . S
C1810 C1814 1.368 . S
C1811 C1792 1.429 . S
C1811 C1805 1.429 . S
C1811 C1812 1.523 . S
C1812 C1793 1.368 . S
C1812 C1806 1.368 . S
C1812 C1811 1.523 . S
C1813 C1797 1.429 . S
C1813 C1809 1.429 . S
C1813 C1814 1.523 . S
C1814 C1798 1.368 . S
C1814 C1810 1.368 . S
C1814 C1813 1.523 . S
H1815 C1790 0.950 . S
H1816 C1792 0.950 . S
H1817 C1793 0.949 . S
H1818 C1795 0.950 . S
H1819 C1797 0.950 . S
C1820 C1821 1.349 . S
C1820 C1822 1.327 . S
C1820 H1845 0.950 . S
C1821 C1820 1.349 . S
C1821 C1837 1.349 . S
C1822 C1820 1.327 . S
C1822 C1841 1.429 . S
C1822 H1846 0.950 . S
C1823 C1840 1.574 . S
C1823 C1842 1.368 . S
C1823 H1847 0.949 . S
H1824 C1828 0.949 . S
C1825 C1826 1.349 . S
C1825 C1827 1.327 . S
C1825 H1848 0.950 . S
C1826 C1825 1.349 . S
C1826 C1838 1.349 . S
C1827 C1825 1.327 . S
C1827 C1843 1.429 . S
C1827 H1849 0.950 . S
C1828 H1824 0.949 . S
C1828 C1836 1.574 . S
C1828 C1844 1.368 . S
H1829 C1837 0.950 . S
H1830 C1835 0.950 . S
H1831 C1836 0.949 . S
H1832 C1838 0.950 . S
H1833 C1839 0.950 . S
H1834 C1840 0.949 . S
C1835 H1830 0.950 . S
C1835 C1837 1.327 . S
C1835 C1841 1.429 . S
C1836 C1828 1.574 . S
C1836 H1831 0.949 . S
C1836 C1842 1.368 . S
C1837 C1821 1.349 . S
C1837 H1829 0.950 . S
C1837 C1835 1.327 . S
C1838 C1826 1.349 . S
C1838 H1832 0.950 . S
C1838 C1839 1.327 . S
C1839 H1833 0.950 . S
C1839 C1838 1.327 . S
C1839 C1843 1.429 . S
C1840 C1823 1.574 . S
C1840 H1834 0.949 . S
C1840 C1844 1.368 . S
C1841 C1822 1.429 . S
C1841 C1835 1.429 . S
C1841 C1842 1.523 . S
C1842 C1823 1.368 . S
C1842 C1836 1.368 . S
C1842 C1841 1.523 . S
C1843 C1827 1.429 . S
C1843 C1839 1.429 . S
C1843 C1844 1.523 . S
C1844 C1828 1.368 . S
C1844 C1840 1.368 . S
C1844 C1843 1.523 . S
H1845 C1820 0.950 . S
H1846 C1822 0.950 . S
H1847 C1823 0.949 . S
H1848 C1825 0.950 . S
H1849 C1827 0.950 . S
C1850 C1851 1.349 . S
C1850 C1852 1.327 . S
C1850 H1875 0.950 . S
C1851 C1850 1.349 . S
C1851 C1867 1.349 . S
C1852 C1850 1.327 . S
C1852 C1871 1.429 . S
C1852 H1876 0.950 . S
C1853 C1870 1.574 . S
C1853 C1872 1.368 . S
C1853 H1877 0.949 . S
H1854 C1858 0.949 . S
C1855 C1856 1.349 . S
C1855 C1857 1.327 . S
C1855 H1878 0.950 . S
C1856 C1855 1.349 . S
C1856 C1868 1.349 . S
C1857 C1855 1.327 . S
C1857 C1873 1.429 . S
C1857 H1879 0.950 . S
C1858 H1854 0.949 . S
C1858 C1866 1.574 . S
C1858 C1874 1.368 . S
H1859 C1867 0.950 . S
H1860 C1865 0.950 . S
H1861 C1866 0.949 . S
H1862 C1868 0.950 . S
H1863 C1869 0.950 . S
H1864 C1870 0.949 . S
C1865 H1860 0.950 . S
C1865 C1867 1.327 . S
C1865 C1871 1.429 . S
C1866 C1858 1.574 . S
C1866 H1861 0.949 . S
C1866 C1872 1.368 . S
C1867 C1851 1.349 . S
C1867 H1859 0.950 . S
C1867 C1865 1.327 . S
C1868 C1856 1.349 . S
C1868 H1862 0.950 . S
C1868 C1869 1.327 . S
C1869 H1863 0.950 . S
C1869 C1868 1.327 . S
C1869 C1873 1.429 . S
C1870 C1853 1.574 . S
C1870 H1864 0.949 . S
C1870 C1874 1.368 . S
C1871 C1852 1.429 . S
C1871 C1865 1.429 . S
C1871 C1872 1.523 . S
C1872 C1853 1.368 . S
C1872 C1866 1.368 . S
C1872 C1871 1.523 . S
C1873 C1857 1.429 . S
C1873 C1869 1.429 . S
C1873 C1874 1.523 . S
C1874 C1858 1.368 . S
C1874 C1870 1.368 . S
C1874 C1873 1.523 . S
H1875 C1850 0.950 . S
H1876 C1852 0.950 . S
H1877 C1853 0.949 . S
H1878 C1855 0.950 . S
H1879 C1857 0.950 . S
C1880 C1881 1.349 . S
C1880 C1882 1.327 . S
C1880 H1905 0.950 . S
C1881 C1880 1.349 . S
C1881 C1897 1.349 1_565 S
C1882 C1880 1.327 . S
C1882 C1901 1.429 . S
C1882 H1906 0.950 . S
C1883 C1900 1.574 . S
C1883 C1902 1.368 1_545 S
C1883 H1907 0.949 . S
H1884 C1888 0.949 . S
C1885 C1886 1.349 1_545 S
C1885 C1887 1.327 . S
C1885 H1908 0.950 . S
C1886 C1885 1.349 1_565 S
C1886 C1898 1.349 . S
C1887 C1885 1.327 . S
C1887 C1903 1.429 1_545 S
C1887 H1909 0.950 . S
C1888 H1884 0.949 . S
C1888 C1896 1.574 . S
C1888 C1904 1.368 . S
H1889 C1897 0.950 . S
H1890 C1895 0.950 . S
H1891 C1896 0.949 . S
H1892 C1898 0.950 . S
H1893 C1899 0.950 . S
H1894 C1900 0.949 . S
C1895 H1890 0.950 . S
C1895 C1897 1.327 . S
C1895 C1901 1.429 1_545 S
C1896 C1888 1.574 . S
C1896 H1891 0.949 . S
C1896 C1902 1.368 . S
C1897 C1881 1.349 1_545 S
C1897 H1889 0.950 . S
C1897 C1895 1.327 . S
C1898 C1886 1.349 . S
C1898 H1892 0.950 . S
C1898 C1899 1.327 . S
C1899 H1893 0.950 . S
C1899 C1898 1.327 . S
C1899 C1903 1.429 . S
C1900 C1883 1.574 . S
C1900 H1894 0.949 . S
C1900 C1904 1.368 1_545 S
C1901 C1882 1.429 . S
C1901 C1895 1.429 1_565 S
C1901 C1902 1.523 . S
C1902 C1883 1.368 1_565 S
C1902 C1896 1.368 . S
C1902 C1901 1.523 . S
C1903 C1887 1.429 1_565 S
C1903 C1899 1.429 . S
C1903 C1904 1.523 . S
C1904 C1888 1.368 . S
C1904 C1900 1.368 1_565 S
C1904 C1903 1.523 . S
H1905 C1880 0.950 . S
H1906 C1882 0.950 . S
H1907 C1883 0.949 . S
H1908 C1885 0.950 . S
H1909 C1887 0.950 . S
C1910 C1911 1.349 . S
C1910 C1912 1.327 . S
C1910 H1935 0.950 . S
C1911 C1910 1.349 . S
C1911 C1927 1.349 . S
C1912 C1910 1.327 . S
C1912 C1931 1.429 . S
C1912 H1936 0.950 . S
C1913 C1930 1.574 . S
C1913 C1932 1.368 . S
C1913 H1937 0.949 . S
H1914 C1918 0.949 . S
C1915 C1916 1.349 . S
C1915 C1917 1.327 . S
C1915 H1938 0.950 . S
C1916 C1915 1.349 . S
C1916 C1928 1.349 . S
C1917 C1915 1.327 . S
C1917 C1933 1.429 . S
C1917 H1939 0.950 . S
C1918 H1914 0.949 . S
C1918 C1926 1.574 . S
C1918 C1934 1.368 . S
H1919 C1927 0.950 . S
H1920 C1925 0.950 . S
H1921 C1926 0.949 . S
H1922 C1928 0.950 . S
H1923 C1929 0.950 . S
H1924 C1930 0.949 . S
C1925 H1920 0.950 . S
C1925 C1927 1.327 . S
C1925 C1931 1.429 . S
C1926 C1918 1.574 . S
C1926 H1921 0.949 . S
C1926 C1932 1.368 . S
C1927 C1911 1.349 . S
C1927 H1919 0.950 . S
C1927 C1925 1.327 . S
C1928 C1916 1.349 . S
C1928 H1922 0.950 . S
C1928 C1929 1.327 . S
C1929 H1923 0.950 . S
C1929 C1928 1.327 . S
C1929 C1933 1.429 . S
C1930 C1913 1.574 . S
C1930 H1924 0.949 . S
C1930 C1934 1.368 . S
C1931 C1912 1.429 . S
C1931 C1925 1.429 . S
C1931 C1932 1.523 . S
C1932 C1913 1.368 . S
C1932 C1926 1.368 . S
C1932 C1931 1.523 . S
C1933 C1917 1.429 . S
C1933 C1929 1.429 . S
C1933 C1934 1.523 . S
C1934 C1918 1.368 . S
C1934 C1930 1.368 . S
C1934 C1933 1.523 . S
H1935 C1910 0.950 . S
H1936 C1912 0.950 . S
H1937 C1913 0.949 . S
H1938 C1915 0.950 . S
H1939 C1917 0.950 . S
C1940 C1941 1.349 . S
C1940 C1942 1.327 . S
C1940 H1965 0.950 . S
C1941 C1940 1.349 . S
C1941 C1957 1.349 1_545 S
C1942 C1940 1.327 . S
C1942 C1961 1.429 . S
C1942 H1966 0.950 . S
C1943 C1960 1.574 . S
C1943 C1962 1.368 1_565 S
C1943 H1967 0.949 . S
H1944 C1948 0.949 . S
C1945 C1946 1.349 1_565 S
C1945 C1947 1.327 . S
C1945 H1968 0.950 . S
C1946 C1945 1.349 1_545 S
C1946 C1958 1.349 . S
C1947 C1945 1.327 . S
C1947 C1963 1.429 1_565 S
C1947 H1969 0.950 . S
C1948 H1944 0.949 . S
C1948 C1956 1.574 . S
C1948 C1964 1.368 . S
H1949 C1957 0.950 . S
H1950 C1955 0.950 . S
H1951 C1956 0.949 . S
H1952 C1958 0.950 . S
H1953 C1959 0.950 . S
H1954 C1960 0.949 . S
C1955 H1950 0.950 . S
C1955 C1957 1.327 . S
C1955 C1961 1.429 1_565 S
C1956 C1948 1.574 . S
C1956 H1951 0.949 . S
C1956 C1962 1.368 . S
C1957 C1941 1.349 1_565 S
C1957 H1949 0.950 . S
C1957 C1955 1.327 . S
C1958 C1946 1.349 . S
C1958 H1952 0.950 . S
C1958 C1959 1.327 . S
C1959 H1953 0.950 . S
C1959 C1958 1.327 . S
C1959 C1963 1.429 . S
C1960 C1943 1.574 . S
C1960 H1954 0.949 . S
C1960 C1964 1.368 1_565 S
C1961 C1942 1.429 . S
C1961 C1955 1.429 1_545 S
C1961 C1962 1.523 . S
C1962 C1943 1.368 1_545 S
C1962 C1956 1.368 . S
C1962 C1961 1.523 . S
C1963 C1947 1.429 1_545 S
C1963 C1959 1.429 . S
C1963 C1964 1.523 . S
C1964 C1948 1.368 . S
C1964 C1960 1.368 1_545 S
C1964 C1963 1.523 . S
H1965 C1940 0.950 . S
H1966 C1942 0.950 . S
H1967 C1943 0.949 . S
H1968 C1945 0.950 . S
H1969 C1947 0.950 . S
C1970 C1971 1.349 . S
C1970 C1972 1.327 . S
C1970 H1995 0.950 . S
C1971 C1970 1.349 . S
C1971 C1987 1.349 . S
C1972 C1970 1.327 . S
C1972 C1991 1.429 . S
C1972 H1996 0.950 . S
C1973 C1990 1.574 . S
C1973 C1992 1.368 . S
C1973 H1997 0.949 . S
H1974 C1978 0.949 . S
C1975 C1976 1.349 . S
C1975 C1977 1.327 . S
C1975 H1998 0.950 . S
C1976 C1975 1.349 . S
C1976 C1988 1.349 . S
C1977 C1975 1.327 . S
C1977 C1993 1.429 . S
C1977 H1999 0.950 . S
C1978 H1974 0.949 . S
C1978 C1986 1.574 . S
C1978 C1994 1.368 . S
H1979 C1987 0.950 . S
H1980 C1985 0.950 . S
H1981 C1986 0.949 . S
H1982 C1988 0.950 . S
H1983 C1989 0.950 . S
H1984 C1990 0.949 . S
C1985 H1980 0.950 . S
C1985 C1987 1.327 . S
C1985 C1991 1.429 . S
C1986 C1978 1.574 . S
C1986 H1981 0.949 . S
C1986 C1992 1.368 . S
C1987 C1971 1.349 . S
C1987 H1979 0.950 . S
C1987 C1985 1.327 . S
C1988 C1976 1.349 . S
C1988 H1982 0.950 . S
C1988 C1989 1.327 . S
C1989 H1983 0.950 . S
C1989 C1988 1.327 . S
C1989 C1993 1.429 . S
C1990 C1973 1.574 . S
C1990 H1984 0.949 . S
C1990 C1994 1.368 . S
C1991 C1972 1.429 . S
C1991 C1985 1.429 . S
C1991 C1992 1.523 . S
C1992 C1973 1.368 . S
C1992 C1986 1.368 . S
C1992 C1991 1.523 . S
C1993 C1977 1.429 . S
C1993 C1989 1.429 . S
C1993 C1994 1.523 . S
C1994 C1978 1.368 . S
C1994 C1990 1.368 . S
C1994 C1993 1.523 . S
H1995 C1970 0.950 . S
H1996 C1972 0.950 . S
H1997 C1973 0.949 . S
H1998 C1975 0.950 . S
H1999 C1977 0.950 . S
C2000 C2001 1.349 . S
C2000 C2002 1.327 . S
C2000 H2025 0.950 . S
C2001 C2000 1.349 . S
C2001 C2017 1.349 . S
C2002 C2000 1.327 . S
C2002 C2021 1.429 . S
C2002 H2026 0.950 . S
C2003 C2020 1.574 . S
C2003 C2022 1.368 . S
C2003 H2027 0.949 . S
H2004 C2008 0.949 . S
C2005 C2006 1.349 . S
C2005 C2007 1.327 . S
C2005 H2028 0.950 . S
C2006 C2005 1.349 . S
C2006 C2018 1.349 . S
C2007 C2005 1.327 . S
C2007 C2023 1.429 . S
C2007 H2029 0.950 . S
C2008 H2004 0.949 . S
C2008 C2016 1.574 . S
C2008 C2024 1.368 . S
H2009 C2017 0.950 . S
H2010 C2015 0.950 . S
H2011 C2016 0.949 . S
H2012 C2018 0.950 . S
H2013 C2019 0.950 . S
H2014 C2020 0.949 . S
C2015 H2010 0.950 . S
C2015 C2017 1.327 . S
C2015 C2021 1.429 . S
C2016 C2008 1.574 . S
C2016 H2011 0.949 . S
C2016 C2022 1.368 . S
C2017 C2001 1.349 . S
C2017 H2009 0.950 . S
C2017 C2015 1.327 . S
C2018 C2006 1.349 . S
C2018 H2012 0.950 . S
C2018 C2019 1.327 . S
C2019 H2013 0.950 . S
C2019 C2018 1.327 . S
C2019 C2023 1.429 . S
C2020 C2003 1.574 . S
C2020 H2014 0.949 . S
C2020 C2024 1.368 . S
C2021 C2002 1.429 . S
C2021 C2015 1.429 . S
C2021 C2022 1.523 . S
C2022 C2003 1.368 . S
C2022 C2016 1.368 . S
C2022 C2021 1.523 . S
C2023 C2007 1.429 . S
C2023 C2019 1.429 . S
C2023 C2024 1.523 . S
C2024 C2008 1.368 . S
C2024 C2020 1.368 . S
C2024 C2023 1.523 . S
H2025 C2000 0.950 . S
H2026 C2002 0.950 . S
H2027 C2003 0.949 . S
H2028 C2005 0.950 . S
H2029 C2007 0.950 . S
C2030 C2031 1.349 . S
C2030 C2032 1.327 . S
C2030 H2055 0.950 . S
C2031 C2030 1.349 . S
C2031 C2047 1.349 . S
C2032 C2030 1.327 . S
C2032 C2051 1.429 . S
C2032 H2056 0.950 . S
C2033 C2050 1.574 . S
C2033 C2052 1.368 . S
C2033 H2057 0.949 . S
H2034 C2038 0.949 . S
C2035 C2036 1.349 . S
C2035 C2037 1.327 . S
C2035 H2058 0.950 . S
C2036 C2035 1.349 . S
C2036 C2048 1.349 . S
C2037 C2035 1.327 . S
C2037 C2053 1.429 . S
C2037 H2059 0.950 . S
C2038 H2034 0.949 . S
C2038 C2046 1.574 . S
C2038 C2054 1.368 . S
H2039 C2047 0.950 . S
H2040 C2045 0.950 . S
H2041 C2046 0.949 . S
H2042 C2048 0.950 . S
H2043 C2049 0.950 . S
H2044 C2050 0.949 . S
C2045 H2040 0.950 . S
C2045 C2047 1.327 . S
C2045 C2051 1.429 . S
C2046 C2038 1.574 . S
C2046 H2041 0.949 . S
C2046 C2052 1.368 . S
C2047 C2031 1.349 . S
C2047 H2039 0.950 . S
C2047 C2045 1.327 . S
C2048 C2036 1.349 . S
C2048 H2042 0.950 . S
C2048 C2049 1.327 . S
C2049 H2043 0.950 . S
C2049 C2048 1.327 . S
C2049 C2053 1.429 . S
C2050 C2033 1.574 . S
C2050 H2044 0.949 . S
C2050 C2054 1.368 . S
C2051 C2032 1.429 . S
C2051 C2045 1.429 . S
C2051 C2052 1.523 . S
C2052 C2033 1.368 . S
C2052 C2046 1.368 . S
C2052 C2051 1.523 . S
C2053 C2037 1.429 . S
C2053 C2049 1.429 . S
C2053 C2054 1.523 . S
C2054 C2038 1.368 . S
C2054 C2050 1.368 . S
C2054 C2053 1.523 . S
H2055 C2030 0.950 . S
H2056 C2032 0.950 . S
H2057 C2033 0.949 . S
H2058 C2035 0.950 . S
H2059 C2037 0.950 . S
C2060 C2061 1.349 . S
C2060 C2062 1.327 . S
C2060 H2085 0.950 . S
C2061 C2060 1.349 . S
C2061 C2077 1.349 . S
C2062 C2060 1.327 . S
C2062 C2081 1.429 . S
C2062 H2086 0.950 . S
C2063 C2080 1.574 . S
C2063 C2082 1.368 . S
C2063 H2087 0.949 . S
H2064 C2068 0.949 . S
C2065 C2066 1.349 . S
C2065 C2067 1.327 . S
C2065 H2088 0.950 . S
C2066 C2065 1.349 . S
C2066 C2078 1.349 . S
C2067 C2065 1.327 . S
C2067 C2083 1.429 . S
C2067 H2089 0.950 . S
C2068 H2064 0.949 . S
C2068 C2076 1.574 . S
C2068 C2084 1.368 . S
H2069 C2077 0.950 . S
H2070 C2075 0.950 . S
H2071 C2076 0.949 . S
H2072 C2078 0.950 . S
H2073 C2079 0.950 . S
H2074 C2080 0.949 . S
C2075 H2070 0.950 . S
C2075 C2077 1.327 . S
C2075 C2081 1.429 . S
C2076 C2068 1.574 . S
C2076 H2071 0.949 . S
C2076 C2082 1.368 . S
C2077 C2061 1.349 . S
C2077 H2069 0.950 . S
C2077 C2075 1.327 . S
C2078 C2066 1.349 . S
C2078 H2072 0.950 . S
C2078 C2079 1.327 . S
C2079 H2073 0.950 . S
C2079 C2078 1.327 . S
C2079 C2083 1.429 . S
C2080 C2063 1.574 . S
C2080 H2074 0.949 . S
C2080 C2084 1.368 . S
C2081 C2062 1.429 . S
C2081 C2075 1.429 . S
C2081 C2082 1.523 . S
C2082 C2063 1.368 . S
C2082 C2076 1.368 . S
C2082 C2081 1.523 . S
C2083 C2067 1.429 . S
C2083 C2079 1.429 . S
C2083 C2084 1.523 . S
C2084 C2068 1.368 . S
C2084 C2080 1.368 . S
C2084 C2083 1.523 . S
H2085 C2060 0.950 . S
H2086 C2062 0.950 . S
H2087 C2063 0.949 . S
H2088 C2065 0.950 . S
H2089 C2067 0.950 . S
C2090 C2091 1.349 . S
C2090 C2092 1.327 . S
C2090 H2115 0.950 . S
C2091 C2090 1.349 . S
C2091 C2107 1.349 . S
C2092 C2090 1.327 . S
C2092 C2111 1.429 . S
C2092 H2116 0.950 . S
C2093 C2110 1.574 . S
C2093 C2112 1.368 . S
C2093 H2117 0.949 . S
H2094 C2098 0.949 . S
C2095 C2096 1.349 . S
C2095 C2097 1.327 . S
C2095 H2118 0.950 . S
C2096 C2095 1.349 . S
C2096 C2108 1.349 . S
C2097 C2095 1.327 . S
C2097 C2113 1.429 . S
C2097 H2119 0.950 . S
C2098 H2094 0.949 . S
C2098 C2106 1.574 . S
C2098 C2114 1.368 . S
H2099 C2107 0.950 . S
H2100 C2105 0.950 . S
H2101 C2106 0.949 . S
H2102 C2108 0.950 . S
H2103 C2109 0.950 . S
H2104 C2110 0.949 . S
C2105 H2100 0.950 . S
C2105 C2107 1.327 . S
C2105 C2111 1.429 . S
C2106 C2098 1.574 . S
C2106 H2101 0.949 . S
C2106 C2112 1.368 . S
C2107 C2091 1.349 . S
C2107 H2099 0.950 . S
C2107 C2105 1.327 . S
C2108 C2096 1.349 . S
C2108 H2102 0.950 . S
C2108 C2109 1.327 . S
C2109 H2103 0.950 . S
C2109 C2108 1.327 . S
C2109 C2113 1.429 . S
C2110 C2093 1.574 . S
C2110 H2104 0.949 . S
C2110 C2114 1.368 . S
C2111 C2092 1.429 . S
C2111 C2105 1.429 . S
C2111 C2112 1.523 . S
C2112 C2093 1.368 . S
C2112 C2106 1.368 . S
C2112 C2111 1.523 . S
C2113 C2097 1.429 . S
C2113 C2109 1.429 . S
C2113 C2114 1.523 . S
C2114 C2098 1.368 . S
C2114 C2110 1.368 . S
C2114 C2113 1.523 . S
H2115 C2090 0.950 . S
H2116 C2092 0.950 . S
H2117 C2093 0.949 . S
H2118 C2095 0.950 . S
H2119 C2097 0.950 . S
C2120 C2121 1.349 . S
C2120 C2122 1.327 . S
C2120 H2145 0.950 . S
C2121 C2120 1.349 . S
C2121 C2137 1.349 1_565 S
C2122 C2120 1.327 . S
C2122 C2141 1.429 . S
C2122 H2146 0.950 . S
C2123 C2140 1.574 . S
C2123 C2142 1.368 1_545 S
C2123 H2147 0.949 . S
H2124 C2128 0.949 . S
C2125 C2126 1.349 1_545 S
C2125 C2127 1.327 . S
C2125 H2148 0.950 . S
C2126 C2125 1.349 1_565 S
C2126 C2138 1.349 . S
C2127 C2125 1.327 . S
C2127 C2143 1.429 1_545 S
C2127 H2149 0.950 . S
C2128 H2124 0.949 . S
C2128 C2136 1.574 . S
C2128 C2144 1.368 . S
H2129 C2137 0.950 . S
H2130 C2135 0.950 . S
H2131 C2136 0.949 . S
H2132 C2138 0.950 . S
H2133 C2139 0.950 . S
H2134 C2140 0.949 . S
C2135 H2130 0.950 . S
C2135 C2137 1.327 . S
C2135 C2141 1.429 1_545 S
C2136 C2128 1.574 . S
C2136 H2131 0.949 . S
C2136 C2142 1.368 . S
C2137 C2121 1.349 1_545 S
C2137 H2129 0.950 . S
C2137 C2135 1.327 . S
C2138 C2126 1.349 . S
C2138 H2132 0.950 . S
C2138 C2139 1.327 . S
C2139 H2133 0.950 . S
C2139 C2138 1.327 . S
C2139 C2143 1.429 . S
C2140 C2123 1.574 . S
C2140 H2134 0.949 . S
C2140 C2144 1.368 1_545 S
C2141 C2122 1.429 . S
C2141 C2135 1.429 1_565 S
C2141 C2142 1.523 . S
C2142 C2123 1.368 1_565 S
C2142 C2136 1.368 . S
C2142 C2141 1.523 . S
C2143 C2127 1.429 1_565 S
C2143 C2139 1.429 . S
C2143 C2144 1.523 . S
C2144 C2128 1.368 . S
C2144 C2140 1.368 1_565 S
C2144 C2143 1.523 . S
H2145 C2120 0.950 . S
H2146 C2122 0.950 . S
H2147 C2123 0.949 . S
H2148 C2125 0.950 . S
H2149 C2127 0.950 . S
C2150 C2151 1.349 . S
C2150 C2152 1.327 . S
C2150 H2175 0.950 . S
C2151 C2150 1.349 . S
C2151 C2167 1.349 . S
C2152 C2150 1.327 . S
C2152 C2171 1.429 . S
C2152 H2176 0.950 . S
C2153 C2170 1.574 . S
C2153 C2172 1.368 . S
C2153 H2177 0.949 . S
H2154 C2158 0.949 . S
C2155 C2156 1.349 . S
C2155 C2157 1.327 . S
C2155 H2178 0.950 . S
C2156 C2155 1.349 . S
C2156 C2168 1.349 . S
C2157 C2155 1.327 . S
C2157 C2173 1.429 . S
C2157 H2179 0.950 . S
C2158 H2154 0.949 . S
C2158 C2166 1.574 . S
C2158 C2174 1.368 . S
H2159 C2167 0.950 . S
H2160 C2165 0.950 . S
H2161 C2166 0.949 . S
H2162 C2168 0.950 . S
H2163 C2169 0.950 . S
H2164 C2170 0.949 . S
C2165 H2160 0.950 . S
C2165 C2167 1.327 . S
C2165 C2171 1.429 . S
C2166 C2158 1.574 . S
C2166 H2161 0.949 . S
C2166 C2172 1.368 . S
C2167 C2151 1.349 . S
C2167 H2159 0.950 . S
C2167 C2165 1.327 . S
C2168 C2156 1.349 . S
C2168 H2162 0.950 . S
C2168 C2169 1.327 . S
C2169 H2163 0.950 . S
C2169 C2168 1.327 . S
C2169 C2173 1.429 . S
C2170 C2153 1.574 . S
C2170 H2164 0.949 . S
C2170 C2174 1.368 . S
C2171 C2152 1.429 . S
C2171 C2165 1.429 . S
C2171 C2172 1.523 . S
C2172 C2153 1.368 . S
C2172 C2166 1.368 . S
C2172 C2171 1.523 . S
C2173 C2157 1.429 . S
C2173 C2169 1.429 . S
C2173 C2174 1.523 . S
C2174 C2158 1.368 . S
C2174 C2170 1.368 . S
C2174 C2173 1.523 . S
H2175 C2150 0.950 . S
H2176 C2152 0.950 . S
H2177 C2153 0.949 . S
H2178 C2155 0.950 . S
H2179 C2157 0.950 . S
C2180 C2181 1.349 . S
C2180 C2182 1.327 . S
C2180 H2205 0.950 . S
C2181 C2180 1.349 . S
C2181 C2197 1.349 1_545 S
C2182 C2180 1.327 . S
C2182 C2201 1.429 . S
C2182 H2206 0.950 . S
C2183 C2200 1.574 . S
C2183 C2202 1.368 1_565 S
C2183 H2207 0.949 . S
H2184 C2188 0.949 . S
C2185 C2186 1.349 1_565 S
C2185 C2187 1.327 . S
C2185 H2208 0.950 . S
C2186 C2185 1.349 1_545 S
C2186 C2198 1.349 . S
C2187 C2185 1.327 . S
C2187 C2203 1.429 1_565 S
C2187 H2209 0.950 . S
C2188 H2184 0.949 . S
C2188 C2196 1.574 . S
C2188 C2204 1.368 . S
H2189 C2197 0.950 . S
H2190 C2195 0.950 . S
H2191 C2196 0.949 . S
H2192 C2198 0.950 . S
H2193 C2199 0.950 . S
H2194 C2200 0.949 . S
C2195 H2190 0.950 . S
C2195 C2197 1.327 . S
C2195 C2201 1.429 1_565 S
C2196 C2188 1.574 . S
C2196 H2191 0.949 . S
C2196 C2202 1.368 . S
C2197 C2181 1.349 1_565 S
C2197 H2189 0.950 . S
C2197 C2195 1.327 . S
C2198 C2186 1.349 . S
C2198 H2192 0.950 . S
C2198 C2199 1.327 . S
C2199 H2193 0.950 . S
C2199 C2198 1.327 . S
C2199 C2203 1.429 . S
C2200 C2183 1.574 . S
C2200 H2194 0.949 . S
C2200 C2204 1.368 1_565 S
C2201 C2182 1.429 . S
C2201 C2195 1.429 1_545 S
C2201 C2202 1.523 . S
C2202 C2183 1.368 1_545 S
C2202 C2196 1.368 . S
C2202 C2201 1.523 . S
C2203 C2187 1.429 1_545 S
C2203 C2199 1.429 . S
C2203 C2204 1.523 . S
C2204 C2188 1.368 . S
C2204 C2200 1.368 1_545 S
C2204 C2203 1.523 . S
H2205 C2180 0.950 . S
H2206 C2182 0.950 . S
H2207 C2183 0.949 . S
H2208 C2185 0.950 . S
H2209 C2187 0.950 . S
C2210 C2211 1.349 . S
C2210 C2212 1.327 . S
C2210 H2235 0.950 . S
C2211 C2210 1.349 . S
C2211 C2227 1.349 . S
C2212 C2210 1.327 . S
C2212 C2231 1.429 . S
C2212 H2236 0.950 . S
C2213 C2230 1.574 . S
C2213 C2232 1.368 . S
C2213 H2237 0.949 . S
H2214 C2218 0.949 . S
C2215 C2216 1.349 . S
C2215 C2217 1.327 . S
C2215 H2238 0.950 . S
C2216 C2215 1.349 . S
C2216 C2228 1.349 . S
C2217 C2215 1.327 . S
C2217 C2233 1.429 . S
C2217 H2239 0.950 . S
C2218 H2214 0.949 . S
C2218 C2226 1.574 . S
C2218 C2234 1.368 . S
H2219 C2227 0.950 . S
H2220 C2225 0.950 . S
H2221 C2226 0.949 . S
H2222 C2228 0.950 . S
H2223 C2229 0.950 . S
H2224 C2230 0.949 . S
C2225 H2220 0.950 . S
C2225 C2227 1.327 . S
C2225 C2231 1.429 . S
C2226 C2218 1.574 . S
C2226 H2221 0.949 . S
C2226 C2232 1.368 . S
C2227 C2211 1.349 . S
C2227 H2219 0.950 . S
C2227 C2225 1.327 . S
C2228 C2216 1.349 . S
C2228 H2222 0.950 . S
C2228 C2229 1.327 . S
C2229 H2223 0.950 . S
C2229 C2228 1.327 . S
C2229 C2233 1.429 . S
C2230 C2213 1.574 . S
C2230 H2224 0.949 . S
C2230 C2234 1.368 . S
C2231 C2212 1.429 . S
C2231 C2225 1.429 . S
C2231 C2232 1.523 . S
C2232 C2213 1.368 . S
C2232 C2226 1.368 . S
C2232 C2231 1.523 . S
C2233 C2217 1.429 . S
C2233 C2229 1.429 . S
C2233 C2234 1.523 . S
C2234 C2218 1.368 . S
C2234 C2230 1.368 . S
C2234 C2233 1.523 . S
H2235 C2210 0.950 . S
H2236 C2212 0.950 . S
H2237 C2213 0.949 . S
H2238 C2215 0.950 . S
H2239 C2217 0.950 . S
C2240 C2241 1.349 . S
C2240 C2242 1.327 . S
C2240 H2265 0.950 . S
C2241 C2240 1.349 . S
C2241 C2257 1.349 . S
C2242 C2240 1.327 . S
C2242 C2261 1.429 . S
C2242 H2266 0.950 . S
C2243 C2260 1.574 . S
C2243 C2262 1.368 . S
C2243 H2267 0.949 . S
H2244 C2248 0.949 . S
C2245 C2246 1.349 . S
C2245 C2247 1.327 . S
C2245 H2268 0.950 . S
C2246 C2245 1.349 . S
C2246 C2258 1.349 . S
C2247 C2245 1.327 . S
C2247 C2263 1.429 . S
C2247 H2269 0.950 . S
C2248 H2244 0.949 . S
C2248 C2256 1.574 . S
C2248 C2264 1.368 . S
H2249 C2257 0.950 . S
H2250 C2255 0.950 . S
H2251 C2256 0.949 . S
H2252 C2258 0.950 . S
H2253 C2259 0.950 . S
H2254 C2260 0.949 . S
C2255 H2250 0.950 . S
C2255 C2257 1.327 . S
C2255 C2261 1.429 . S
C2256 C2248 1.574 . S
C2256 H2251 0.949 . S
C2256 C2262 1.368 . S
C2257 C2241 1.349 . S
C2257 H2249 0.950 . S
C2257 C2255 1.327 . S
C2258 C2246 1.349 . S
C2258 H2252 0.950 . S
C2258 C2259 1.327 . S
C2259 H2253 0.950 . S
C2259 C2258 1.327 . S
C2259 C2263 1.429 . S
C2260 C2243 1.574 . S
C2260 H2254 0.949 . S
C2260 C2264 1.368 . S
C2261 C2242 1.429 . S
C2261 C2255 1.429 . S
C2261 C2262 1.523 . S
C2262 C2243 1.368 . S
C2262 C2256 1.368 . S
C2262 C2261 1.523 . S
C2263 C2247 1.429 . S
C2263 C2259 1.429 . S
C2263 C2264 1.523 . S
C2264 C2248 1.368 . S
C2264 C2260 1.368 . S
C2264 C2263 1.523 . S
H2265 C2240 0.950 . S
H2266 C2242 0.950 . S
H2267 C2243 0.949 . S
H2268 C2245 0.950 . S
H2269 C2247 0.950 . S
C2270 C2271 1.349 . S
C2270 C2272 1.327 . S
C2270 H2295 0.950 . S
C2271 C2270 1.349 . S
C2271 C2287 1.349 . S
C2272 C2270 1.327 . S
C2272 C2291 1.429 . S
C2272 H2296 0.950 . S
C2273 C2290 1.574 . S
C2273 C2292 1.368 . S
C2273 H2297 0.949 . S
H2274 C2278 0.949 . S
C2275 C2276 1.349 . S
C2275 C2277 1.327 . S
C2275 H2298 0.950 . S
C2276 C2275 1.349 . S
C2276 C2288 1.349 . S
C2277 C2275 1.327 . S
C2277 C2293 1.429 . S
C2277 H2299 0.950 . S
C2278 H2274 0.949 . S
C2278 C2286 1.574 . S
C2278 C2294 1.368 . S
H2279 C2287 0.950 . S
H2280 C2285 0.950 . S
H2281 C2286 0.949 . S
H2282 C2288 0.950 . S
H2283 C2289 0.950 . S
H2284 C2290 0.949 . S
C2285 H2280 0.950 . S
C2285 C2287 1.327 . S
C2285 C2291 1.429 . S
C2286 C2278 1.574 . S
C2286 H2281 0.949 . S
C2286 C2292 1.368 . S
C2287 C2271 1.349 . S
C2287 H2279 0.950 . S
C2287 C2285 1.327 . S
C2288 C2276 1.349 . S
C2288 H2282 0.950 . S
C2288 C2289 1.327 . S
C2289 H2283 0.950 . S
C2289 C2288 1.327 . S
C2289 C2293 1.429 . S
C2290 C2273 1.574 . S
C2290 H2284 0.949 . S
C2290 C2294 1.368 . S
C2291 C2272 1.429 . S
C2291 C2285 1.429 . S
C2291 C2292 1.523 . S
C2292 C2273 1.368 . S
C2292 C2286 1.368 . S
C2292 C2291 1.523 . S
C2293 C2277 1.429 . S
C2293 C2289 1.429 . S
C2293 C2294 1.523 . S
C2294 C2278 1.368 . S
C2294 C2290 1.368 . S
C2294 C2293 1.523 . S
H2295 C2270 0.950 . S
H2296 C2272 0.950 . S
H2297 C2273 0.949 . S
H2298 C2275 0.950 . S
H2299 C2277 0.950 . S
C2300 C2301 1.349 . S
C2300 C2302 1.327 . S
C2300 H2325 0.950 . S
C2301 C2300 1.349 . S
C2301 C2317 1.349 . S
C2302 C2300 1.327 . S
C2302 C2321 1.429 . S
C2302 H2326 0.950 . S
C2303 C2320 1.574 . S
C2303 C2322 1.368 . S
C2303 H2327 0.949 . S
H2304 C2308 0.949 . S
C2305 C2306 1.349 . S
C2305 C2307 1.327 . S
C2305 H2328 0.950 . S
C2306 C2305 1.349 . S
C2306 C2318 1.349 . S
C2307 C2305 1.327 . S
C2307 C2323 1.429 . S
C2307 H2329 0.950 . S
C2308 H2304 0.949 . S
C2308 C2316 1.574 . S
C2308 C2324 1.368 . S
H2309 C2317 0.950 . S
H2310 C2315 0.950 . S
H2311 C2316 0.949 . S
H2312 C2318 0.950 . S
H2313 C2319 0.950 . S
H2314 C2320 0.949 . S
C2315 H2310 0.950 . S
C2315 C2317 1.327 . S
C2315 C2321 1.429 . S
C2316 C2308 1.574 . S
C2316 H2311 0.949 . S
C2316 C2322 1.368 . S
C2317 C2301 1.349 . S
C2317 H2309 0.950 . S
C2317 C2315 1.327 . S
C2318 C2306 1.349 . S
C2318 H2312 0.950 . S
C2318 C2319 1.327 . S
C2319 H2313 0.950 . S
C2319 C2318 1.327 . S
C2319 C2323 1.429 . S
C2320 C2303 1.574 . S
C2320 H2314 0.949 . S
C2320 C2324 1.368 . S
C2321 C2302 1.429 . S
C2321 C2315 1.429 . S
C2321 C2322 1.523 . S
C2322 C2303 1.368 . S
C2322 C2316 1.368 . S
C2322 C2321 1.523 . S
C2323 C2307 1.429 . S
C2323 C2319 1.429 . S
C2323 C2324 1.523 . S
C2324 C2308 1.368 . S
C2324 C2320 1.368 . S
C2324 C2323 1.523 . S
H2325 C2300 0.950 . S
H2326 C2302 0.950 . S
H2327 C2303 0.949 . S
H2328 C2305 0.950 . S
H2329 C2307 0.950 . S
C2330 C2331 1.349 . S
C2330 C2332 1.327 . S
C2330 H2355 0.950 . S
C2331 C2330 1.349 . S
C2331 C2347 1.349 . S
C2332 C2330 1.327 . S
C2332 C2351 1.429 . S
C2332 H2356 0.950 . S
C2333 C2350 1.574 . S
C2333 C2352 1.368 . S
C2333 H2357 0.949 . S
H2334 C2338 0.949 . S
C2335 C2336 1.349 . S
C2335 C2337 1.327 . S
C2335 H2358 0.950 . S
C2336 C2335 1.349 . S
C2336 C2348 1.349 . S
C2337 C2335 1.327 . S
C2337 C2353 1.429 . S
C2337 H2359 0.950 . S
C2338 H2334 0.949 . S
C2338 C2346 1.574 . S
C2338 C2354 1.368 . S
H2339 C2347 0.950 . S
H2340 C2345 0.950 . S
H2341 C2346 0.949 . S
H2342 C2348 0.950 . S
H2343 C2349 0.950 . S
H2344 C2350 0.949 . S
C2345 H2340 0.950 . S
C2345 C2347 1.327 . S
C2345 C2351 1.429 . S
C2346 C2338 1.574 . S
C2346 H2341 0.949 . S
C2346 C2352 1.368 . S
C2347 C2331 1.349 . S
C2347 H2339 0.950 . S
C2347 C2345 1.327 . S
C2348 C2336 1.349 . S
C2348 H2342 0.950 . S
C2348 C2349 1.327 . S
C2349 H2343 0.950 . S
C2349 C2348 1.327 . S
C2349 C2353 1.429 . S
C2350 C2333 1.574 . S
C2350 H2344 0.949 . S
C2350 C2354 1.368 . S
C2351 C2332 1.429 . S
C2351 C2345 1.429 . S
C2351 C2352 1.523 . S
C2352 C2333 1.368 . S
C2352 C2346 1.368 . S
C2352 C2351 1.523 . S
C2353 C2337 1.429 . S
C2353 C2349 1.429 . S
C2353 C2354 1.523 . S
C2354 C2338 1.368 . S
C2354 C2350 1.368 . S
C2354 C2353 1.523 . S
H2355 C2330 0.950 . S
H2356 C2332 0.950 . S
H2357 C2333 0.949 . S
H2358 C2335 0.950 . S
H2359 C2337 0.950 . S
C2360 C2361 1.349 . S
C2360 C2362 1.327 . S
C2360 H2385 0.950 . S
C2361 C2360 1.349 . S
C2361 C2377 1.349 . S
C2362 C2360 1.327 . S
C2362 C2381 1.429 . S
C2362 H2386 0.950 . S
C2363 C2380 1.574 . S
C2363 C2382 1.368 . S
C2363 H2387 0.949 . S
H2364 C2368 0.949 . S
C2365 C2366 1.349 . S
C2365 C2367 1.327 . S
C2365 H2388 0.950 . S
C2366 C2365 1.349 . S
C2366 C2378 1.349 . S
C2367 C2365 1.327 . S
C2367 C2383 1.429 . S
C2367 H2389 0.950 . S
C2368 H2364 0.949 . S
C2368 C2376 1.574 . S
C2368 C2384 1.368 . S
H2369 C2377 0.950 . S
H2370 C2375 0.950 . S
H2371 C2376 0.949 . S
H2372 C2378 0.950 . S
H2373 C2379 0.950 . S
H2374 C2380 0.949 . S
C2375 H2370 0.950 . S
C2375 C2377 1.327 . S
C2375 C2381 1.429 . S
C2376 C2368 1.574 . S
C2376 H2371 0.949 . S
C2376 C2382 1.368 . S
C2377 C2361 1.349 . S
C2377 H2369 0.950 . S
C2377 C2375 1.327 . S
C2378 C2366 1.349 . S
C2378 H2372 0.950 . S
C2378 C2379 1.327 . S
C2379 H2373 0.950 . S
C2379 C2378 1.327 . S
C2379 C2383 1.429 . S
C2380 C2363 1.574 . S
C2380 H2374 0.949 . S
C2380 C2384 1.368 . S
C2381 C2362 1.429 . S
C2381 C2375 1.429 . S
C2381 C2382 1.523 . S
C2382 C2363 1.368 . S
C2382 C2376 1.368 . S
C2382 C2381 1.523 . S
C2383 C2367 1.429 . S
C2383 C2379 1.429 . S
C2383 C2384 1.523 . S
C2384 C2368 1.368 . S
C2384 C2380 1.368 . S
C2384 C2383 1.523 . S
H2385 C2360 0.950 . S
H2386 C2362 0.950 . S
H2387 C2363 0.949 . S
H2388 C2365 0.950 . S
H2389 C2367 0.950 . S
C2390 C2391 1.349 . S
C2390 C2392 1.327 . S
C2390 H2415 0.950 . S
C2391 C2390 1.349 . S
C2391 C2407 1.349 . S
C2392 C2390 1.327 . S
C2392 C2411 1.429 . S
C2392 H2416 0.950 . S
C2393 C2410 1.574 . S
C2393 C2412 1.368 . S
C2393 H2417 0.949 . S
H2394 C2398 0.949 . S
C2395 C2396 1.349 . S
C2395 C2397 1.327 . S
C2395 H2418 0.950 . S
C2396 C2395 1.349 . S
C2396 C2408 1.349 . S
C2397 C2395 1.327 . S
C2397 C2413 1.429 . S
C2397 H2419 0.950 . S
C2398 H2394 0.949 . S
C2398 C2406 1.574 . S
C2398 C2414 1.368 . S
H2399 C2407 0.950 . S
H2400 C2405 0.950 . S
H2401 C2406 0.949 . S
H2402 C2408 0.950 . S
H2403 C2409 0.950 . S
H2404 C2410 0.949 . S
C2405 H2400 0.950 . S
C2405 C2407 1.327 . S
C2405 C2411 1.429 . S
C2406 C2398 1.574 . S
C2406 H2401 0.949 . S
C2406 C2412 1.368 . S
C2407 C2391 1.349 . S
C2407 H2399 0.950 . S
C2407 C2405 1.327 . S
C2408 C2396 1.349 . S
C2408 H2402 0.950 . S
C2408 C2409 1.327 . S
C2409 H2403 0.950 . S
C2409 C2408 1.327 . S
C2409 C2413 1.429 . S
C2410 C2393 1.574 . S
C2410 H2404 0.949 . S
C2410 C2414 1.368 . S
C2411 C2392 1.429 . S
C2411 C2405 1.429 . S
C2411 C2412 1.523 . S
C2412 C2393 1.368 . S
C2412 C2406 1.368 . S
C2412 C2411 1.523 . S
C2413 C2397 1.429 . S
C2413 C2409 1.429 . S
C2413 C2414 1.523 . S
C2414 C2398 1.368 . S
C2414 C2410 1.368 . S
C2414 C2413 1.523 . S
H2415 C2390 0.950 . S
H2416 C2392 0.950 . S
H2417 C2393 0.949 . S
H2418 C2395 0.950 . S
H2419 C2397 0.950 . S
C2420 C2421 1.349 . S
C2420 C2422 1.327 . S
C2420 H2445 0.950 . S
C2421 C2420 1.349 . S
C2421 C2437 1.349 . S
C2422 C2420 1.327 . S
C2422 C2441 1.429 . S
C2422 H2446 0.950 . S
C2423 C2440 1.574 . S
C2423 C2442 1.368 . S
C2423 H2447 0.949 . S
H2424 C2428 0.949 . S
C2425 C2426 1.349 . S
C2425 C2427 1.327 . S
C2425 H2448 0.950 . S
C2426 C2425 1.349 . S
C2426 C2438 1.349 . S
C2427 C2425 1.327 . S
C2427 C2443 1.429 . S
C2427 H2449 0.950 . S
C2428 H2424 0.949 . S
C2428 C2436 1.574 . S
C2428 C2444 1.368 . S
H2429 C2437 0.950 . S
H2430 C2435 0.950 . S
H2431 C2436 0.949 . S
H2432 C2438 0.950 . S
H2433 C2439 0.950 . S
H2434 C2440 0.949 . S
C2435 H2430 0.950 . S
C2435 C2437 1.327 . S
C2435 C2441 1.429 . S
C2436 C2428 1.574 . S
C2436 H2431 0.949 . S
C2436 C2442 1.368 . S
C2437 C2421 1.349 . S
C2437 H2429 0.950 . S
C2437 C2435 1.327 . S
C2438 C2426 1.349 . S
C2438 H2432 0.950 . S
C2438 C2439 1.327 . S
C2439 H2433 0.950 . S
C2439 C2438 1.327 . S
C2439 C2443 1.429 . S
C2440 C2423 1.574 . S
C2440 H2434 0.949 . S
C2440 C2444 1.368 . S
C2441 C2422 1.429 . S
C2441 C2435 1.429 . S
C2441 C2442 1.523 . S
C2442 C2423 1.368 . S
C2442 C2436 1.368 . S
C2442 C2441 1.523 . S
C2443 C2427 1.429 . S
C2443 C2439 1.429 . S
C2443 C2444 1.523 . S
C2444 C2428 1.368 . S
C2444 C2440 1.368 . S
C2444 C2443 1.523 . S
H2445 C2420 0.950 . S
H2446 C2422 0.950 . S
H2447 C2423 0.949 . S
H2448 C2425 0.950 . S
H2449 C2427 0.950 . S
C2450 C2451 1.349 . S
C2450 C2452 1.327 . S
C2450 H2475 0.950 . S
C2451 C2450 1.349 . S
C2451 C2467 1.349 . S
C2452 C2450 1.327 . S
C2452 C2471 1.429 . S
C2452 H2476 0.950 . S
C2453 C2470 1.574 . S
C2453 C2472 1.368 . S
C2453 H2477 0.949 . S
H2454 C2458 0.949 . S
C2455 C2456 1.349 . S
C2455 C2457 1.327 . S
C2455 H2478 0.950 . S
C2456 C2455 1.349 . S
C2456 C2468 1.349 . S
C2457 C2455 1.327 . S
C2457 C2473 1.429 . S
C2457 H2479 0.950 . S
C2458 H2454 0.949 . S
C2458 C2466 1.574 . S
C2458 C2474 1.368 . S
H2459 C2467 0.950 . S
H2460 C2465 0.950 . S
H2461 C2466 0.949 . S
H2462 C2468 0.950 . S
H2463 C2469 0.950 . S
H2464 C2470 0.949 . S
C2465 H2460 0.950 . S
C2465 C2467 1.327 . S
C2465 C2471 1.429 . S
C2466 C2458 1.574 . S
C2466 H2461 0.949 . S
C2466 C2472 1.368 . S
C2467 C2451 1.349 . S
C2467 H2459 0.950 . S
C2467 C2465 1.327 . S
C2468 C2456 1.349 . S
C2468 H2462 0.950 . S
C2468 C2469 1.327 . S
C2469 H2463 0.950 . S
C2469 C2468 1.327 . S
C2469 C2473 1.429 . S
C2470 C2453 1.574 . S
C2470 H2464 0.949 . S
C2470 C2474 1.368 . S
C2471 C2452 1.429 . S
C2471 C2465 1.429 . S
C2471 C2472 1.523 . S
C2472 C2453 1.368 . S
C2472 C2466 1.368 . S
C2472 C2471 1.523 . S
C2473 C2457 1.429 . S
C2473 C2469 1.429 . S
C2473 C2474 1.523 . S
C2474 C2458 1.368 . S
C2474 C2470 1.368 . S
C2474 C2473 1.523 . S
H2475 C2450 0.950 . S
H2476 C2452 0.950 . S
H2477 C2453 0.949 . S
H2478 C2455 0.950 . S
H2479 C2457 0.950 . S
C2480 C2481 1.349 . S
C2480 C2482 1.327 . S
C2480 H2505 0.950 . S
C2481 C2480 1.349 . S
C2481 C2497 1.349 . S
C2482 C2480 1.327 . S
C2482 C2501 1.429 . S
C2482 H2506 0.950 . S
C2483 C2500 1.574 . S
C2483 C2502 1.368 . S
C2483 H2507 0.949 . S
H2484 C2488 0.949 . S
C2485 C2486 1.349 . S
C2485 C2487 1.327 . S
C2485 H2508 0.950 . S
C2486 C2485 1.349 . S
C2486 C2498 1.349 . S
C2487 C2485 1.327 . S
C2487 C2503 1.429 . S
C2487 H2509 0.950 . S
C2488 H2484 0.949 . S
C2488 C2496 1.574 . S
C2488 C2504 1.368 . S
H2489 C2497 0.950 . S
H2490 C2495 0.950 . S
H2491 C2496 0.949 . S
H2492 C2498 0.950 . S
H2493 C2499 0.950 . S
H2494 C2500 0.949 . S
C2495 H2490 0.950 . S
C2495 C2497 1.327 . S
C2495 C2501 1.429 . S
C2496 C2488 1.574 . S
C2496 H2491 0.949 . S
C2496 C2502 1.368 . S
C2497 C2481 1.349 . S
C2497 H2489 0.950 . S
C2497 C2495 1.327 . S
C2498 C2486 1.349 . S
C2498 H2492 0.950 . S
C2498 C2499 1.327 . S
C2499 H2493 0.950 . S
C2499 C2498 1.327 . S
C2499 C2503 1.429 . S
C2500 C2483 1.574 . S
C2500 H2494 0.949 . S
C2500 C2504 1.368 . S
C2501 C2482 1.429 . S
C2501 C2495 1.429 . S
C2501 C2502 1.523 . S
C2502 C2483 1.368 . S
C2502 C2496 1.368 . S
C2502 C2501 1.523 . S
C2503 C2487 1.429 . S
C2503 C2499 1.429 . S
C2503 C2504 1.523 . S
C2504 C2488 1.368 . S
C2504 C2500 1.368 . S
C2504 C2503 1.523 . S
H2505 C2480 0.950 . S
H2506 C2482 0.950 . S
H2507 C2483 0.949 . S
H2508 C2485 0.950 . S
H2509 C2487 0.950 . S
C2510 C2511 1.349 . S
C2510 C2512 1.327 . S
C2510 H2535 0.950 . S
C2511 C2510 1.349 . S
C2511 C2527 1.349 . S
C2512 C2510 1.327 . S
C2512 C2531 1.429 . S
C2512 H2536 0.950 . S
C2513 C2530 1.574 . S
C2513 C2532 1.368 . S
C2513 H2537 0.949 . S
H2514 C2518 0.949 . S
C2515 C2516 1.349 . S
C2515 C2517 1.327 . S
C2515 H2538 0.950 . S
C2516 C2515 1.349 . S
C2516 C2528 1.349 . S
C2517 C2515 1.327 . S
C2517 C2533 1.429 . S
C2517 H2539 0.950 . S
C2518 H2514 0.949 . S
C2518 C2526 1.574 . S
C2518 C2534 1.368 . S
H2519 C2527 0.950 . S
H2520 C2525 0.950 . S
H2521 C2526 0.949 . S
H2522 C2528 0.950 . S
H2523 C2529 0.950 . S
H2524 C2530 0.949 . S
C2525 H2520 0.950 . S
C2525 C2527 1.327 . S
C2525 C2531 1.429 . S
C2526 C2518 1.574 . S
C2526 H2521 0.949 . S
C2526 C2532 1.368 . S
C2527 C2511 1.349 . S
C2527 H2519 0.950 . S
C2527 C2525 1.327 . S
C2528 C2516 1.349 . S
C2528 H2522 0.950 . S
C2528 C2529 1.327 . S
C2529 H2523 0.950 . S
C2529 C2528 1.327 . S
C2529 C2533 1.429 . S
C2530 C2513 1.574 . S
C2530 H2524 0.949 . S
C2530 C2534 1.368 . S
C2531 C2512 1.429 . S
C2531 C2525 1.429 . S
C2531 C2532 1.523 . S
C2532 C2513 1.368 . S
C2532 C2526 1.368 . S
C2532 C2531 1.523 . S
C2533 C2517 1.429 . S
C2533 C2529 1.429 . S
C2533 C2534 1.523 . S
C2534 C2518 1.368 . S
C2534 C2530 1.368 . S
C2534 C2533 1.523 . S
H2535 C2510 0.950 . S
H2536 C2512 0.950 . S
H2537 C2513 0.949 . S
H2538 C2515 0.950 . S
H2539 C2517 0.950 . S
C2540 C2541 1.349 . S
C2540 C2542 1.327 . S
C2540 H2565 0.950 . S
C2541 C2540 1.349 . S
C2541 C2557 1.349 . S
C2542 C2540 1.327 . S
C2542 C2561 1.429 . S
C2542 H2566 0.950 . S
C2543 C2560 1.574 . S
C2543 C2562 1.368 . S
C2543 H2567 0.949 . S
H2544 C2548 0.949 . S
C2545 C2546 1.349 . S
C2545 C2547 1.327 . S
C2545 H2568 0.950 . S
C2546 C2545 1.349 . S
C2546 C2558 1.349 . S
C2547 C2545 1.327 . S
C2547 C2563 1.429 . S
C2547 H2569 0.950 . S
C2548 H2544 0.949 . S
C2548 C2556 1.574 . S
C2548 C2564 1.368 . S
H2549 C2557 0.950 . S
H2550 C2555 0.950 . S
H2551 C2556 0.949 . S
H2552 C2558 0.950 . S
H2553 C2559 0.950 . S
H2554 C2560 0.949 . S
C2555 H2550 0.950 . S
C2555 C2557 1.327 . S
C2555 C2561 1.429 . S
C2556 C2548 1.574 . S
C2556 H2551 0.949 . S
C2556 C2562 1.368 . S
C2557 C2541 1.349 . S
C2557 H2549 0.950 . S
C2557 C2555 1.327 . S
C2558 C2546 1.349 . S
C2558 H2552 0.950 . S
C2558 C2559 1.327 . S
C2559 H2553 0.950 . S
C2559 C2558 1.327 . S
C2559 C2563 1.429 . S
C2560 C2543 1.574 . S
C2560 H2554 0.949 . S
C2560 C2564 1.368 . S
C2561 C2542 1.429 . S
C2561 C2555 1.429 . S
C2561 C2562 1.523 . S
C2562 C2543 1.368 . S
C2562 C2556 1.368 . S
C2562 C2561 1.523 . S
C2563 C2547 1.429 . S
C2563 C2559 1.429 . S
C2563 C2564 1.523 . S
C2564 C2548 1.368 . S
C2564 C2560 1.368 . S
C2564 C2563 1.523 . S
H2565 C2540 0.950 . S
H2566 C2542 0.950 . S
H2567 C2543 0.949 . S
H2568 C2545 0.950 . S
H2569 C2547 0.950 . S
C2570 C2571 1.349 . S
C2570 C2572 1.327 . S
C2570 H2595 0.950 . S
C2571 C2570 1.349 . S
C2571 C2587 1.349 . S
C2572 C2570 1.327 . S
C2572 C2591 1.429 . S
C2572 H2596 0.950 . S
C2573 C2590 1.574 . S
C2573 C2592 1.368 . S
C2573 H2597 0.949 . S
H2574 C2578 0.949 . S
C2575 C2576 1.349 . S
C2575 C2577 1.327 . S
C2575 H2598 0.950 . S
C2576 C2575 1.349 . S
C2576 C2588 1.349 . S
C2577 C2575 1.327 . S
C2577 C2593 1.429 . S
C2577 H2599 0.950 . S
C2578 H2574 0.949 . S
C2578 C2586 1.574 . S
C2578 C2594 1.368 . S
H2579 C2587 0.950 . S
H2580 C2585 0.950 . S
H2581 C2586 0.949 . S
H2582 C2588 0.950 . S
H2583 C2589 0.950 . S
H2584 C2590 0.949 . S
C2585 H2580 0.950 . S
C2585 C2587 1.327 . S
C2585 C2591 1.429 . S
C2586 C2578 1.574 . S
C2586 H2581 0.949 . S
C2586 C2592 1.368 . S
C2587 C2571 1.349 . S
C2587 H2579 0.950 . S
C2587 C2585 1.327 . S
C2588 C2576 1.349 . S
C2588 H2582 0.950 . S
C2588 C2589 1.327 . S
C2589 H2583 0.950 . S
C2589 C2588 1.327 . S
C2589 C2593 1.429 . S
C2590 C2573 1.574 . S
C2590 H2584 0.949 . S
C2590 C2594 1.368 . S
C2591 C2572 1.429 . S
C2591 C2585 1.429 . S
C2591 C2592 1.523 . S
C2592 C2573 1.368 . S
C2592 C2586 1.368 . S
C2592 C2591 1.523 . S
C2593 C2577 1.429 . S
C2593 C2589 1.429 . S
C2593 C2594 1.523 . S
C2594 C2578 1.368 . S
C2594 C2590 1.368 . S
C2594 C2593 1.523 . S
H2595 C2570 0.950 . S
H2596 C2572 0.950 . S
H2597 C2573 0.949 . S
H2598 C2575 0.950 . S
H2599 C2577 0.950 . S
C2600 C2601 1.349 . S
C2600 C2602 1.327 . S
C2600 H2625 0.950 . S
C2601 C2600 1.349 . S
C2601 C2617 1.349 . S
C2602 C2600 1.327 . S
C2602 C2621 1.429 . S
C2602 H2626 0.950 . S
C2603 C2620 1.574 . S
C2603 C2622 1.368 . S
C2603 H2627 0.949 . S
H2604 C2608 0.949 . S
C2605 C2606 1.349 . S
C2605 C2607 1.327 . S
C2605 H2628 0.950 . S
C2606 C2605 1.349 . S
C2606 C2618 1.349 . S
C2607 C2605 1.327 . S
C2607 C2623 1.429 . S
C2607 H2629 0.950 . S
C2608 H2604 0.949 . S
C2608 C2616 1.574 . S
C2608 C2624 1.368 . S
H2609 C2617 0.950 . S
H2610 C2615 0.950 . S
H2611 C2616 0.949 . S
H2612 C2618 0.950 . S
H2613 C2619 0.950 . S
H2614 C2620 0.949 . S
C2615 H2610 0.950 . S
C2615 C2617 1.327 . S
C2615 C2621 1.429 . S
C2616 C2608 1.574 . S
C2616 H2611 0.949 . S
C2616 C2622 1.368 . S
C2617 C2601 1.349 . S
C2617 H2609 0.950 . S
C2617 C2615 1.327 . S
C2618 C2606 1.349 . S
C2618 H2612 0.950 . S
C2618 C2619 1.327 . S
C2619 H2613 0.950 . S
C2619 C2618 1.327 . S
C2619 C2623 1.429 . S
C2620 C2603 1.574 . S
C2620 H2614 0.949 . S
C2620 C2624 1.368 . S
C2621 C2602 1.429 . S
C2621 C2615 1.429 . S
C2621 C2622 1.523 . S
C2622 C2603 1.368 . S
C2622 C2616 1.368 . S
C2622 C2621 1.523 . S
C2623 C2607 1.429 . S
C2623 C2619 1.429 . S
C2623 C2624 1.523 . S
C2624 C2608 1.368 . S
C2624 C2620 1.368 . S
C2624 C2623 1.523 . S
H2625 C2600 0.950 . S
H2626 C2602 0.950 . S
H2627 C2603 0.949 . S
H2628 C2605 0.950 . S
H2629 C2607 0.950 . S
C2630 C2631 1.349 . S
C2630 C2632 1.327 . S
C2630 H2655 0.950 . S
C2631 C2630 1.349 . S
C2631 C2647 1.349 . S
C2632 C2630 1.327 . S
C2632 C2651 1.429 . S
C2632 H2656 0.950 . S
C2633 C2650 1.574 . S
C2633 C2652 1.368 . S
C2633 H2657 0.949 . S
H2634 C2638 0.949 . S
C2635 C2636 1.349 . S
C2635 C2637 1.327 . S
C2635 H2658 0.950 . S
C2636 C2635 1.349 . S
C2636 C2648 1.349 . S
C2637 C2635 1.327 . S
C2637 C2653 1.429 . S
C2637 H2659 0.950 . S
C2638 H2634 0.949 . S
C2638 C2646 1.574 . S
C2638 C2654 1.368 . S
H2639 C2647 0.950 . S
H2640 C2645 0.950 . S
H2641 C2646 0.949 . S
H2642 C2648 0.950 . S
H2643 C2649 0.950 . S
H2644 C2650 0.949 . S
C2645 H2640 0.950 . S
C2645 C2647 1.327 . S
C2645 C2651 1.429 . S
C2646 C2638 1.574 . S
C2646 H2641 0.949 . S
C2646 C2652 1.368 . S
C2647 C2631 1.349 . S
C2647 H2639 0.950 . S
C2647 C2645 1.327 . S
C2648 C2636 1.349 . S
C2648 H2642 0.950 . S
C2648 C2649 1.327 . S
C2649 H2643 0.950 . S
C2649 C2648 1.327 . S
C2649 C2653 1.429 . S
C2650 C2633 1.574 . S
C2650 H2644 0.949 . S
C2650 C2654 1.368 . S
C2651 C2632 1.429 . S
C2651 C2645 1.429 . S
C2651 C2652 1.523 . S
C2652 C2633 1.368 . S
C2652 C2646 1.368 . S
C2652 C2651 1.523 . S
C2653 C2637 1.429 . S
C2653 C2649 1.429 . S
C2653 C2654 1.523 . S
C2654 C2638 1.368 . S
C2654 C2650 1.368 . S
C2654 C2653 1.523 . S
H2655 C2630 0.950 . S
H2656 C2632 0.950 . S
H2657 C2633 0.949 . S
H2658 C2635 0.950 . S
H2659 C2637 0.950 . S
C2660 C2661 1.349 . S
C2660 C2662 1.327 . S
C2660 H2685 0.950 . S
C2661 C2660 1.349 . S
C2661 C2677 1.349 . S
C2662 C2660 1.327 . S
C2662 C2681 1.429 . S
C2662 H2686 0.950 . S
C2663 C2680 1.574 . S
C2663 C2682 1.368 . S
C2663 H2687 0.949 . S
H2664 C2668 0.949 . S
C2665 C2666 1.349 . S
C2665 C2667 1.327 . S
C2665 H2688 0.950 . S
C2666 C2665 1.349 . S
C2666 C2678 1.349 . S
C2667 C2665 1.327 . S
C2667 C2683 1.429 . S
C2667 H2689 0.950 . S
C2668 H2664 0.949 . S
C2668 C2676 1.574 . S
C2668 C2684 1.368 . S
H2669 C2677 0.950 . S
H2670 C2675 0.950 . S
H2671 C2676 0.949 . S
H2672 C2678 0.950 . S
H2673 C2679 0.950 . S
H2674 C2680 0.949 . S
C2675 H2670 0.950 . S
C2675 C2677 1.327 . S
C2675 C2681 1.429 . S
C2676 C2668 1.574 . S
C2676 H2671 0.949 . S
C2676 C2682 1.368 . S
C2677 C2661 1.349 . S
C2677 H2669 0.950 . S
C2677 C2675 1.327 . S
C2678 C2666 1.349 . S
C2678 H2672 0.950 . S
C2678 C2679 1.327 . S
C2679 H2673 0.950 . S
C2679 C2678 1.327 . S
C2679 C2683 1.429 . S
C2680 C2663 1.574 . S
C2680 H2674 0.949 . S
C2680 C2684 1.368 . S
C2681 C2662 1.429 . S
C2681 C2675 1.429 . S
C2681 C2682 1.523 . S
C2682 C2663 1.368 . S
C2682 C2676 1.368 . S
C2682 C2681 1.523 . S
C2683 C2667 1.429 . S
C2683 C2679 1.429 . S
C2683 C2684 1.523 . S
C2684 C2668 1.368 . S
C2684 C2680 1.368 . S
C2684 C2683 1.523 . S
H2685 C2660 0.950 . S
H2686 C2662 0.950 . S
H2687 C2663 0.949 . S
H2688 C2665 0.950 . S
H2689 C2667 0.950 . S
C2690 C2691 1.349 . S
C2690 C2692 1.327 . S
C2690 H2715 0.950 . S
C2691 C2690 1.349 . S
C2691 C2707 1.349 . S
C2692 C2690 1.327 . S
C2692 C2711 1.429 . S
C2692 H2716 0.950 . S
C2693 C2710 1.574 . S
C2693 C2712 1.368 . S
C2693 H2717 0.949 . S
H2694 C2698 0.949 . S
C2695 C2696 1.349 . S
C2695 C2697 1.327 . S
C2695 H2718 0.950 . S
C2696 C2695 1.349 . S
C2696 C2708 1.349 . S
C2697 C2695 1.327 . S
C2697 C2713 1.429 . S
C2697 H2719 0.950 . S
C2698 H2694 0.949 . S
C2698 C2706 1.574 . S
C2698 C2714 1.368 . S
H2699 C2707 0.950 . S
H2700 C2705 0.950 . S
H2701 C2706 0.949 . S
H2702 C2708 0.950 . S
H2703 C2709 0.950 . S
H2704 C2710 0.949 . S
C2705 H2700 0.950 . S
C2705 C2707 1.327 . S
C2705 C2711 1.429 . S
C2706 C2698 1.574 . S
C2706 H2701 0.949 . S
C2706 C2712 1.368 . S
C2707 C2691 1.349 . S
C2707 H2699 0.950 . S
C2707 C2705 1.327 . S
C2708 C2696 1.349 . S
C2708 H2702 0.950 . S
C2708 C2709 1.327 . S
C2709 H2703 0.950 . S
C2709 C2708 1.327 . S
C2709 C2713 1.429 . S
C2710 C2693 1.574 . S
C2710 H2704 0.949 . S
C2710 C2714 1.368 . S
C2711 C2692 1.429 . S
C2711 C2705 1.429 . S
C2711 C2712 1.523 . S
C2712 C2693 1.368 . S
C2712 C2706 1.368 . S
C2712 C2711 1.523 . S
C2713 C2697 1.429 . S
C2713 C2709 1.429 . S
C2713 C2714 1.523 . S
C2714 C2698 1.368 . S
C2714 C2710 1.368 . S
C2714 C2713 1.523 . S
H2715 C2690 0.950 . S
H2716 C2692 0.950 . S
H2717 C2693 0.949 . S
H2718 C2695 0.950 . S
H2719 C2697 0.950 . S
C2720 C2721 1.349 . S
C2720 C2722 1.327 . S
C2720 H2745 0.950 . S
C2721 C2720 1.349 . S
C2721 C2737 1.349 . S
C2722 C2720 1.327 . S
C2722 C2741 1.429 . S
C2722 H2746 0.950 . S
C2723 C2740 1.574 . S
C2723 C2742 1.368 . S
C2723 H2747 0.949 . S
H2724 C2728 0.949 . S
C2725 C2726 1.349 . S
C2725 C2727 1.327 . S
C2725 H2748 0.950 . S
C2726 C2725 1.349 . S
C2726 C2738 1.349 . S
C2727 C2725 1.327 . S
C2727 C2743 1.429 . S
C2727 H2749 0.950 . S
C2728 H2724 0.949 . S
C2728 C2736 1.574 . S
C2728 C2744 1.368 . S
H2729 C2737 0.950 . S
H2730 C2735 0.950 . S
H2731 C2736 0.949 . S
H2732 C2738 0.950 . S
H2733 C2739 0.950 . S
H2734 C2740 0.949 . S
C2735 H2730 0.950 . S
C2735 C2737 1.327 . S
C2735 C2741 1.429 . S
C2736 C2728 1.574 . S
C2736 H2731 0.949 . S
C2736 C2742 1.368 . S
C2737 C2721 1.349 . S
C2737 H2729 0.950 . S
C2737 C2735 1.327 . S
C2738 C2726 1.349 . S
C2738 H2732 0.950 . S
C2738 C2739 1.327 . S
C2739 H2733 0.950 . S
C2739 C2738 1.327 . S
C2739 C2743 1.429 . S
C2740 C2723 1.574 . S
C2740 H2734 0.949 . S
C2740 C2744 1.368 . S
C2741 C2722 1.429 . S
C2741 C2735 1.429 . S
C2741 C2742 1.523 . S
C2742 C2723 1.368 . S
C2742 C2736 1.368 . S
C2742 C2741 1.523 . S
C2743 C2727 1.429 . S
C2743 C2739 1.429 . S
C2743 C2744 1.523 . S
C2744 C2728 1.368 . S
C2744 C2740 1.368 . S
C2744 C2743 1.523 . S
H2745 C2720 0.950 . S
H2746 C2722 0.950 . S
H2747 C2723 0.949 . S
H2748 C2725 0.950 . S
H2749 C2727 0.950 . S
C2750 C2751 1.349 . S
C2750 C2752 1.327 . S
C2750 H2775 0.950 . S
C2751 C2750 1.349 . S
C2751 C2767 1.349 . S
C2752 C2750 1.327 . S
C2752 C2771 1.429 . S
C2752 H2776 0.950 . S
C2753 C2770 1.574 . S
C2753 C2772 1.368 . S
C2753 H2777 0.949 . S
H2754 C2758 0.949 . S
C2755 C2756 1.349 . S
C2755 C2757 1.327 . S
C2755 H2778 0.950 . S
C2756 C2755 1.349 . S
C2756 C2768 1.349 . S
C2757 C2755 1.327 . S
C2757 C2773 1.429 . S
C2757 H2779 0.950 . S
C2758 H2754 0.949 . S
C2758 C2766 1.574 . S
C2758 C2774 1.368 . S
H2759 C2767 0.950 . S
H2760 C2765 0.950 . S
H2761 C2766 0.949 . S
H2762 C2768 0.950 . S
H2763 C2769 0.950 . S
H2764 C2770 0.949 . S
C2765 H2760 0.950 . S
C2765 C2767 1.327 . S
C2765 C2771 1.429 . S
C2766 C2758 1.574 . S
C2766 H2761 0.949 . S
C2766 C2772 1.368 . S
C2767 C2751 1.349 . S
C2767 H2759 0.950 . S
C2767 C2765 1.327 . S
C2768 C2756 1.349 . S
C2768 H2762 0.950 . S
C2768 C2769 1.327 . S
C2769 H2763 0.950 . S
C2769 C2768 1.327 . S
C2769 C2773 1.429 . S
C2770 C2753 1.574 . S
C2770 H2764 0.949 . S
C2770 C2774 1.368 . S
C2771 C2752 1.429 . S
C2771 C2765 1.429 . S
C2771 C2772 1.523 . S
C2772 C2753 1.368 . S
C2772 C2766 1.368 . S
C2772 C2771 1.523 . S
C2773 C2757 1.429 . S
C2773 C2769 1.429 . S
C2773 C2774 1.523 . S
C2774 C2758 1.368 . S
C2774 C2770 1.368 . S
C2774 C2773 1.523 . S
H2775 C2750 0.950 . S
H2776 C2752 0.950 . S
H2777 C2753 0.949 . S
H2778 C2755 0.950 . S
H2779 C2757 0.950 . S
C2780 C2781 1.349 . S
C2780 C2782 1.327 . S
C2780 H2805 0.950 . S
C2781 C2780 1.349 . S
C2781 C2797 1.349 . S
C2782 C2780 1.327 . S
C2782 C2801 1.429 . S
C2782 H2806 0.950 . S
C2783 C2800 1.574 . S
C2783 C2802 1.368 . S
C2783 H2807 0.949 . S
H2784 C2788 0.949 . S
C2785 C2786 1.349 . S
C2785 C2787 1.327 . S
C2785 H2808 0.950 . S
C2786 C2785 1.349 . S
C2786 C2798 1.349 . S
C2787 C2785 1.327 . S
C2787 C2803 1.429 . S
C2787 H2809 0.950 . S
C2788 H2784 0.949 . S
C2788 C2796 1.574 . S
C2788 C2804 1.368 . S
H2789 C2797 0.950 . S
H2790 C2795 0.950 . S
H2791 C2796 0.949 . S
H2792 C2798 0.950 . S
H2793 C2799 0.950 . S
H2794 C2800 0.949 . S
C2795 H2790 0.950 . S
C2795 C2797 1.327 . S
C2795 C2801 1.429 . S
C2796 C2788 1.574 . S
C2796 H2791 0.949 . S
C2796 C2802 1.368 . S
C2797 C2781 1.349 . S
C2797 H2789 0.950 . S
C2797 C2795 1.327 . S
C2798 C2786 1.349 . S
C2798 H2792 0.950 . S
C2798 C2799 1.327 . S
C2799 H2793 0.950 . S
C2799 C2798 1.327 . S
C2799 C2803 1.429 . S
C2800 C2783 1.574 . S
C2800 H2794 0.949 . S
C2800 C2804 1.368 . S
C2801 C2782 1.429 . S
C2801 C2795 1.429 . S
C2801 C2802 1.523 . S
C2802 C2783 1.368 . S
C2802 C2796 1.368 . S
C2802 C2801 1.523 . S
C2803 C2787 1.429 . S
C2803 C2799 1.429 . S
C2803 C2804 1.523 . S
C2804 C2788 1.368 . S
C2804 C2800 1.368 . S
C2804 C2803 1.523 . S
H2805 C2780 0.950 . S
H2806 C2782 0.950 . S
H2807 C2783 0.949 . S
H2808 C2785 0.950 . S
H2809 C2787 0.950 . S
C2810 C2811 1.349 . S
C2810 C2812 1.327 . S
C2810 H2835 0.950 . S
C2811 C2810 1.349 . S
C2811 C2827 1.349 . S
C2812 C2810 1.327 . S
C2812 C2831 1.429 . S
C2812 H2836 0.950 . S
C2813 C2830 1.574 . S
C2813 C2832 1.368 . S
C2813 H2837 0.949 . S
H2814 C2818 0.949 . S
C2815 C2816 1.349 . S
C2815 C2817 1.327 . S
C2815 H2838 0.950 . S
C2816 C2815 1.349 . S
C2816 C2828 1.349 . S
C2817 C2815 1.327 . S
C2817 C2833 1.429 . S
C2817 H2839 0.950 . S
C2818 H2814 0.949 . S
C2818 C2826 1.574 . S
C2818 C2834 1.368 . S
H2819 C2827 0.950 . S
H2820 C2825 0.950 . S
H2821 C2826 0.949 . S
H2822 C2828 0.950 . S
H2823 C2829 0.950 . S
H2824 C2830 0.949 . S
C2825 H2820 0.950 . S
C2825 C2827 1.327 . S
C2825 C2831 1.429 . S
C2826 C2818 1.574 . S
C2826 H2821 0.949 . S
C2826 C2832 1.368 . S
C2827 C2811 1.349 . S
C2827 H2819 0.950 . S
C2827 C2825 1.327 . S
C2828 C2816 1.349 . S
C2828 H2822 0.950 . S
C2828 C2829 1.327 . S
C2829 H2823 0.950 . S
C2829 C2828 1.327 . S
C2829 C2833 1.429 . S
C2830 C2813 1.574 . S
C2830 H2824 0.949 . S
C2830 C2834 1.368 . S
C2831 C2812 1.429 . S
C2831 C2825 1.429 . S
C2831 C2832 1.523 . S
C2832 C2813 1.368 . S
C2832 C2826 1.368 . S
C2832 C2831 1.523 . S
C2833 C2817 1.429 . S
C2833 C2829 1.429 . S
C2833 C2834 1.523 . S
C2834 C2818 1.368 . S
C2834 C2830 1.368 . S
C2834 C2833 1.523 . S
H2835 C2810 0.950 . S
H2836 C2812 0.950 . S
H2837 C2813 0.949 . S
H2838 C2815 0.950 . S
H2839 C2817 0.950 . S
C2840 C2841 1.349 . S
C2840 C2842 1.327 . S
C2840 H2865 0.950 . S
C2841 C2840 1.349 . S
C2841 C2857 1.349 . S
C2842 C2840 1.327 . S
C2842 C2861 1.429 . S
C2842 H2866 0.950 . S
C2843 C2860 1.574 . S
C2843 C2862 1.368 . S
C2843 H2867 0.949 . S
H2844 C2848 0.949 . S
C2845 C2846 1.349 . S
C2845 C2847 1.327 . S
C2845 H2868 0.950 . S
C2846 C2845 1.349 . S
C2846 C2858 1.349 . S
C2847 C2845 1.327 . S
C2847 C2863 1.429 . S
C2847 H2869 0.950 . S
C2848 H2844 0.949 . S
C2848 C2856 1.574 . S
C2848 C2864 1.368 . S
H2849 C2857 0.950 . S
H2850 C2855 0.950 . S
H2851 C2856 0.949 . S
H2852 C2858 0.950 . S
H2853 C2859 0.950 . S
H2854 C2860 0.949 . S
C2855 H2850 0.950 . S
C2855 C2857 1.327 . S
C2855 C2861 1.429 . S
C2856 C2848 1.574 . S
C2856 H2851 0.949 . S
C2856 C2862 1.368 . S
C2857 C2841 1.349 . S
C2857 H2849 0.950 . S
C2857 C2855 1.327 . S
C2858 C2846 1.349 . S
C2858 H2852 0.950 . S
C2858 C2859 1.327 . S
C2859 H2853 0.950 . S
C2859 C2858 1.327 . S
C2859 C2863 1.429 . S
C2860 C2843 1.574 . S
C2860 H2854 0.949 . S
C2860 C2864 1.368 . S
C2861 C2842 1.429 . S
C2861 C2855 1.429 . S
C2861 C2862 1.523 . S
C2862 C2843 1.368 . S
C2862 C2856 1.368 . S
C2862 C2861 1.523 . S
C2863 C2847 1.429 . S
C2863 C2859 1.429 . S
C2863 C2864 1.523 . S
C2864 C2848 1.368 . S
C2864 C2860 1.368 . S
C2864 C2863 1.523 . S
H2865 C2840 0.950 . S
H2866 C2842 0.950 . S
H2867 C2843 0.949 . S
H2868 C2845 0.950 . S
H2869 C2847 0.950 . S
C2870 C2871 1.349 . S
C2870 C2872 1.327 . S
C2870 H2895 0.950 . S
C2871 C2870 1.349 . S
C2871 C2887 1.349 . S
C2872 C2870 1.327 . S
C2872 C2891 1.429 . S
C2872 H2896 0.950 . S
C2873 C2890 1.574 . S
C2873 C2892 1.368 . S
C2873 H2897 0.949 . S
H2874 C2878 0.949 . S
C2875 C2876 1.349 . S
C2875 C2877 1.327 . S
C2875 H2898 0.950 . S
C2876 C2875 1.349 . S
C2876 C2888 1.349 . S
C2877 C2875 1.327 . S
C2877 C2893 1.429 . S
C2877 H2899 0.950 . S
C2878 H2874 0.949 . S
C2878 C2886 1.574 . S
C2878 C2894 1.368 . S
H2879 C2887 0.950 . S
H2880 C2885 0.950 . S
H2881 C2886 0.949 . S
H2882 C2888 0.950 . S
H2883 C2889 0.950 . S
H2884 C2890 0.949 . S
C2885 H2880 0.950 . S
C2885 C2887 1.327 . S
C2885 C2891 1.429 . S
C2886 C2878 1.574 . S
C2886 H2881 0.949 . S
C2886 C2892 1.368 . S
C2887 C2871 1.349 . S
C2887 H2879 0.950 . S
C2887 C2885 1.327 . S
C2888 C2876 1.349 . S
C2888 H2882 0.950 . S
C2888 C2889 1.327 . S
C2889 H2883 0.950 . S
C2889 C2888 1.327 . S
C2889 C2893 1.429 . S
C2890 C2873 1.574 . S
C2890 H2884 0.949 . S
C2890 C2894 1.368 . S
C2891 C2872 1.429 . S
C2891 C2885 1.429 . S
C2891 C2892 1.523 . S
C2892 C2873 1.368 . S
C2892 C2886 1.368 . S
C2892 C2891 1.523 . S
C2893 C2877 1.429 . S
C2893 C2889 1.429 . S
C2893 C2894 1.523 . S
C2894 C2878 1.368 . S
C2894 C2890 1.368 . S
C2894 C2893 1.523 . S
H2895 C2870 0.950 . S
H2896 C2872 0.950 . S
H2897 C2873 0.949 . S
H2898 C2875 0.950 . S
H2899 C2877 0.950 . S
C2900 C2901 1.349 . S
C2900 C2902 1.327 . S
C2900 H2925 0.950 . S
C2901 C2900 1.349 . S
C2901 C2917 1.349 . S
C2902 C2900 1.327 . S
C2902 C2921 1.429 . S
C2902 H2926 0.950 . S
C2903 C2920 1.574 . S
C2903 C2922 1.368 . S
C2903 H2927 0.949 . S
H2904 C2908 0.949 . S
C2905 C2906 1.349 . S
C2905 C2907 1.327 . S
C2905 H2928 0.950 . S
C2906 C2905 1.349 . S
C2906 C2918 1.349 . S
C2907 C2905 1.327 . S
C2907 C2923 1.429 . S
C2907 H2929 0.950 . S
C2908 H2904 0.949 . S
C2908 C2916 1.574 . S
C2908 C2924 1.368 . S
H2909 C2917 0.950 . S
H2910 C2915 0.950 . S
H2911 C2916 0.949 . S
H2912 C2918 0.950 . S
H2913 C2919 0.950 . S
H2914 C2920 0.949 . S
C2915 H2910 0.950 . S
C2915 C2917 1.327 . S
C2915 C2921 1.429 . S
C2916 C2908 1.574 . S
C2916 H2911 0.949 . S
C2916 C2922 1.368 . S
C2917 C2901 1.349 . S
C2917 H2909 0.950 . S
C2917 C2915 1.327 . S
C2918 C2906 1.349 . S
C2918 H2912 0.950 . S
C2918 C2919 1.327 . S
C2919 H2913 0.950 . S
C2919 C2918 1.327 . S
C2919 C2923 1.429 . S
C2920 C2903 1.574 . S
C2920 H2914 0.949 . S
C2920 C2924 1.368 . S
C2921 C2902 1.429 . S
C2921 C2915 1.429 . S
C2921 C2922 1.523 . S
C2922 C2903 1.368 . S
C2922 C2916 1.368 . S
C2922 C2921 1.523 . S
C2923 C2907 1.429 . S
C2923 C2919 1.429 . S
C2923 C2924 1.523 . S
C2924 C2908 1.368 . S
C2924 C2920 1.368 . S
C2924 C2923 1.523 . S
H2925 C2900 0.950 . S
H2926 C2902 0.950 . S
H2927 C2903 0.949 . S
H2928 C2905 0.950 . S
H2929 C2907 0.950 . S
C2930 C2931 1.349 . S
C2930 C2932 1.327 . S
C2930 H2955 0.950 . S
C2931 C2930 1.349 . S
C2931 C2947 1.349 . S
C2932 C2930 1.327 . S
C2932 C2951 1.429 . S
C2932 H2956 0.950 . S
C2933 C2950 1.574 . S
C2933 C2952 1.368 . S
C2933 H2957 0.949 . S
H2934 C2938 0.949 . S
C2935 C2936 1.349 . S
C2935 C2937 1.327 . S
C2935 H2958 0.950 . S
C2936 C2935 1.349 . S
C2936 C2948 1.349 . S
C2937 C2935 1.327 . S
C2937 C2953 1.429 . S
C2937 H2959 0.950 . S
C2938 H2934 0.949 . S
C2938 C2946 1.574 . S
C2938 C2954 1.368 . S
H2939 C2947 0.950 . S
H2940 C2945 0.950 . S
H2941 C2946 0.949 . S
H2942 C2948 0.950 . S
H2943 C2949 0.950 . S
H2944 C2950 0.949 . S
C2945 H2940 0.950 . S
C2945 C2947 1.327 . S
C2945 C2951 1.429 . S
C2946 C2938 1.574 . S
C2946 H2941 0.949 . S
C2946 C2952 1.368 . S
C2947 C2931 1.349 . S
C2947 H2939 0.950 . S
C2947 C2945 1.327 . S
C2948 C2936 1.349 . S
C2948 H2942 0.950 . S
C2948 C2949 1.327 . S
C2949 H2943 0.950 . S
C2949 C2948 1.327 . S
C2949 C2953 1.429 . S
C2950 C2933 1.574 . S
C2950 H2944 0.949 . S
C2950 C2954 1.368 . S
C2951 C2932 1.429 . S
C2951 C2945 1.429 . S
C2951 C2952 1.523 . S
C2952 C2933 1.368 . S
C2952 C2946 1.368 . S
C2952 C2951 1.523 . S
C2953 C2937 1.429 . S
C2953 C2949 1.429 . S
C2953 C2954 1.523 . S
C2954 C2938 1.368 . S
C2954 C2950 1.368 . S
C2954 C2953 1.523 . S
H2955 C2930 0.950 . S
H2956 C2932 0.950 . S
H2957 C2933 0.949 . S
H2958 C2935 0.950 . S
H2959 C2937 0.950 . S
C2960 C2961 1.349 1_565 S
C2960 C2962 1.327 . S
C2960 H2985 0.950 . S
C2961 C2960 1.349 1_545 S
C2961 C2977 1.349 . S
C2962 C2960 1.327 . S
C2962 C2981 1.429 . S
C2962 H2986 0.950 . S
C2963 C2980 1.571 1_545 S
C2963 C2982 1.368 1_545 S
C2963 H2987 0.949 . S
H2964 C2968 0.949 . S
C2965 C2966 1.349 . S
C2965 C2967 1.327 . S
C2965 H2988 0.950 . S
C2966 C2965 1.349 . S
C2966 C2978 1.349 . S
C2967 C2965 1.327 . S
C2967 C2983 1.429 . S
C2967 H2989 0.948 1_565 S
C2968 H2964 0.949 . S
C2968 C2976 1.574 . S
C2968 C2984 1.368 . S
H2969 C2977 0.950 . S
H2970 C2975 0.950 . S
H2971 C2976 0.949 . S
H2972 C2978 0.950 . S
H2973 C2979 0.950 . S
H2974 C2980 0.943 1_545 S
C2975 H2970 0.950 . S
C2975 C2977 1.327 . S
C2975 C2981 1.429 1_545 S
C2976 C2968 1.574 . S
C2976 H2971 0.949 . S
C2976 C2982 1.368 . S
C2977 C2961 1.349 . S
C2977 H2969 0.950 . S
C2977 C2975 1.327 . S
C2978 C2966 1.349 . S
C2978 H2972 0.950 . S
C2978 C2979 1.327 . S
C2979 H2973 0.950 . S
C2979 C2978 1.327 . S
C2979 C2983 1.429 . S
C2980 C2963 1.571 1_565 S
C2980 H2974 0.943 1_565 S
C2980 C2984 1.378 . S
C2981 C2962 1.429 . S
C2981 C2975 1.429 1_565 S
C2981 C2982 1.523 . S
C2982 C2963 1.368 1_565 S
C2982 C2976 1.368 . S
C2982 C2981 1.523 . S
C2983 C2967 1.429 . S
C2983 C2979 1.429 . S
C2983 C2984 1.523 . S
C2984 C2968 1.368 . S
C2984 C2980 1.378 . S
C2984 C2983 1.523 . S
H2985 C2960 0.950 . S
H2986 C2962 0.950 . S
H2987 C2963 0.949 . S
H2988 C2965 0.950 . S
H2989 C2967 0.948 1_545 S
C2990 C2991 1.349 . S
C2990 C2992 1.327 . S
C2990 H3015 0.950 . S
C2991 C2990 1.349 . S
C2991 C3007 1.349 . S
C2992 C2990 1.327 . S
C2992 C3011 1.429 . S
C2992 H3016 0.950 . S
C2993 C3010 1.574 . S
C2993 C3012 1.368 . S
C2993 H3017 0.949 . S
H2994 C2998 0.949 . S
C2995 C2996 1.349 . S
C2995 C2997 1.327 . S
C2995 H3018 0.950 . S
C2996 C2995 1.349 . S
C2996 C3008 1.349 . S
C2997 C2995 1.327 . S
C2997 C3013 1.429 . S
C2997 H3019 0.950 . S
C2998 H2994 0.949 . S
C2998 C3006 1.574 . S
C2998 C3014 1.368 . S
H2999 C3007 0.950 . S
H3000 C3005 0.950 . S
H3001 C3006 0.949 . S
H3002 C3008 0.950 . S
H3003 C3009 0.950 . S
H3004 C3010 0.949 . S
C3005 H3000 0.950 . S
C3005 C3007 1.327 . S
C3005 C3011 1.429 . S
C3006 C2998 1.574 . S
C3006 H3001 0.949 . S
C3006 C3012 1.368 . S
C3007 C2991 1.349 . S
C3007 H2999 0.950 . S
C3007 C3005 1.327 . S
C3008 C2996 1.349 . S
C3008 H3002 0.950 . S
C3008 C3009 1.327 . S
C3009 H3003 0.950 . S
C3009 C3008 1.327 . S
C3009 C3013 1.429 . S
C3010 C2993 1.574 . S
C3010 H3004 0.949 . S
C3010 C3014 1.368 . S
C3011 C2992 1.429 . S
C3011 C3005 1.429 . S
C3011 C3012 1.523 . S
C3012 C2993 1.368 . S
C3012 C3006 1.368 . S
C3012 C3011 1.523 . S
C3013 C2997 1.429 . S
C3013 C3009 1.429 . S
C3013 C3014 1.523 . S
C3014 C2998 1.368 . S
C3014 C3010 1.368 . S
C3014 C3013 1.523 . S
H3015 C2990 0.950 . S
H3016 C2992 0.950 . S
H3017 C2993 0.949 . S
H3018 C2995 0.950 . S
H3019 C2997 0.950 . S
C3020 C3021 1.349 . S
C3020 C3022 1.327 . S
C3020 H3045 0.950 . S
C3021 C3020 1.349 . S
C3021 C3037 1.349 . S
C3022 C3020 1.327 . S
C3022 C3041 1.429 . S
C3022 H3046 0.950 . S
C3023 C3040 1.574 . S
C3023 C3042 1.368 . S
C3023 H3047 0.949 . S
H3024 C3028 0.949 . S
C3025 C3026 1.349 . S
C3025 C3027 1.327 . S
C3025 H3048 0.950 . S
C3026 C3025 1.349 . S
C3026 C3038 1.349 . S
C3027 C3025 1.327 . S
C3027 C3043 1.429 . S
C3027 H3049 0.950 . S
C3028 H3024 0.949 . S
C3028 C3036 1.574 . S
C3028 C3044 1.368 . S
H3029 C3037 0.950 . S
H3030 C3035 0.950 . S
H3031 C3036 0.949 . S
H3032 C3038 0.950 . S
H3033 C3039 0.950 . S
H3034 C3040 0.949 . S
C3035 H3030 0.950 . S
C3035 C3037 1.327 . S
C3035 C3041 1.429 . S
C3036 C3028 1.574 . S
C3036 H3031 0.949 . S
C3036 C3042 1.368 . S
C3037 C3021 1.349 . S
C3037 H3029 0.950 . S
C3037 C3035 1.327 . S
C3038 C3026 1.349 . S
C3038 H3032 0.950 . S
C3038 C3039 1.327 . S
C3039 H3033 0.950 . S
C3039 C3038 1.327 . S
C3039 C3043 1.429 . S
C3040 C3023 1.574 . S
C3040 H3034 0.949 . S
C3040 C3044 1.368 . S
C3041 C3022 1.429 . S
C3041 C3035 1.429 . S
C3041 C3042 1.523 . S
C3042 C3023 1.368 . S
C3042 C3036 1.368 . S
C3042 C3041 1.523 . S
C3043 C3027 1.429 . S
C3043 C3039 1.429 . S
C3043 C3044 1.523 . S
C3044 C3028 1.368 . S
C3044 C3040 1.368 . S
C3044 C3043 1.523 . S
H3045 C3020 0.950 . S
H3046 C3022 0.950 . S
H3047 C3023 0.949 . S
H3048 C3025 0.950 . S
H3049 C3027 0.950 . S
C3050 C3051 1.349 1_565 S
C3050 C3052 1.327 . S
C3050 H3075 0.950 . S
C3051 C3050 1.349 1_545 S
C3051 C3067 1.349 . S
C3052 C3050 1.327 . S
C3052 C3071 1.429 . S
C3052 H3076 0.950 . S
C3053 C3070 1.574 . S
C3053 C3072 1.368 1_545 S
C3053 H3077 0.949 . S
H3054 C3058 0.949 . S
C3055 C3056 1.349 . S
C3055 C3057 1.327 . S
C3055 H3078 0.952 . S
C3056 C3055 1.349 . S
C3056 C3068 1.349 . S
C3057 C3055 1.327 . S
C3057 C3073 1.429 . S
C3057 H3079 0.950 1_565 S
C3058 H3054 0.949 . S
C3058 C3066 1.574 . S
C3058 C3074 1.368 . S
H3059 C3067 0.950 . S
H3060 C3065 0.950 . S
H3061 C3066 0.949 . S
H3062 C3068 0.950 . S
H3063 C3069 0.950 . S
H3064 C3070 0.949 . S
C3065 H3060 0.950 . S
C3065 C3067 1.327 . S
C3065 C3071 1.429 1_545 S
C3066 C3058 1.574 . S
C3066 H3061 0.949 . S
C3066 C3072 1.368 . S
C3067 C3051 1.349 . S
C3067 H3059 0.950 . S
C3067 C3065 1.327 . S
C3068 C3056 1.349 . S
C3068 H3062 0.950 . S
C3068 C3069 1.327 . S
C3069 H3063 0.950 . S
C3069 C3068 1.327 . S
C3069 C3073 1.429 . S
C3070 C3053 1.574 . S
C3070 H3064 0.949 . S
C3070 C3074 1.368 1_545 S
C3071 C3052 1.429 . S
C3071 C3065 1.429 1_565 S
C3071 C3072 1.523 . S
C3072 C3053 1.368 1_565 S
C3072 C3066 1.368 . S
C3072 C3071 1.523 . S
C3073 C3057 1.429 . S
C3073 C3069 1.429 . S
C3073 C3074 1.523 . S
C3074 C3058 1.368 . S
C3074 C3070 1.368 1_565 S
C3074 C3073 1.523 . S
H3075 C3050 0.950 . S
H3076 C3052 0.950 . S
H3077 C3053 0.949 . S
H3078 C3055 0.952 . S
H3079 C3057 0.950 1_545 S
C3080 C3081 1.349 1_545 S
C3080 C3082 1.327 . S
C3080 H3105 0.950 . S
C3081 C3080 1.349 1_565 S
C3081 C3097 1.349 . S
C3082 C3080 1.327 . S
C3082 C3101 1.429 . S
C3082 H3106 0.950 . S
C3083 C3100 1.576 . S
C3083 C3102 1.368 1_565 S
C3083 H3107 0.949 . S
H3084 C3088 0.949 . S
C3085 C3086 1.349 . S
C3085 C3087 1.327 . S
C3085 H3108 0.950 . S
C3086 C3085 1.349 . S
C3086 C3098 1.349 . S
C3087 C3085 1.327 . S
C3087 C3103 1.429 . S
C3087 H3109 0.950 1_545 S
C3088 H3084 0.949 . S
C3088 C3096 1.574 . S
C3088 C3104 1.368 . S
H3089 C3097 0.950 . S
H3090 C3095 0.950 . S
H3091 C3096 0.949 . S
H3092 C3098 0.950 . S
H3093 C3099 0.950 . S
H3094 C3100 0.956 . S
C3095 H3090 0.950 . S
C3095 C3097 1.327 . S
C3095 C3101 1.429 1_565 S
C3096 C3088 1.574 . S
C3096 H3091 0.949 . S
C3096 C3102 1.368 . S
C3097 C3081 1.349 . S
C3097 H3089 0.950 . S
C3097 C3095 1.327 . S
C3098 C3086 1.349 . S
C3098 H3092 0.950 . S
C3098 C3099 1.327 . S
C3099 H3093 0.950 . S
C3099 C3098 1.327 . S
C3099 C3103 1.429 . S
C3100 C3083 1.576 . S
C3100 H3094 0.956 . S
C3100 C3104 1.358 1_565 S
C3101 C3082 1.429 . S
C3101 C3095 1.429 1_545 S
C3101 C3102 1.523 . S
C3102 C3083 1.368 1_545 S
C3102 C3096 1.368 . S
C3102 C3101 1.523 . S
C3103 C3087 1.429 . S
C3103 C3099 1.429 . S
C3103 C3104 1.523 . S
C3104 C3088 1.368 . S
C3104 C3100 1.358 1_545 S
C3104 C3103 1.523 . S
H3105 C3080 0.950 . S
H3106 C3082 0.950 . S
H3107 C3083 0.949 . S
H3108 C3085 0.950 . S
H3109 C3087 0.950 1_565 S
C3110 C3111 1.349 . S
C3110 C3112 1.327 . S
C3110 H3135 0.950 . S
C3111 C3110 1.349 . S
C3111 C3127 1.349 . S
C3112 C3110 1.327 . S
C3112 C3131 1.429 . S
C3112 H3136 0.950 . S
C3113 C3130 1.574 . S
C3113 C3132 1.368 . S
C3113 H3137 0.949 . S
H3114 C3118 0.949 . S
C3115 C3116 1.349 . S
C3115 C3117 1.327 . S
C3115 H3138 0.950 . S
C3116 C3115 1.349 . S
C3116 C3128 1.349 . S
C3117 C3115 1.327 . S
C3117 C3133 1.429 . S
C3117 H3139 0.950 . S
C3118 H3114 0.949 . S
C3118 C3126 1.574 . S
C3118 C3134 1.368 . S
H3119 C3127 0.950 . S
H3120 C3125 0.950 . S
H3121 C3126 0.949 . S
H3122 C3128 0.950 . S
H3123 C3129 0.950 . S
H3124 C3130 0.949 . S
C3125 H3120 0.950 . S
C3125 C3127 1.327 . S
C3125 C3131 1.429 . S
C3126 C3118 1.574 . S
C3126 H3121 0.949 . S
C3126 C3132 1.368 . S
C3127 C3111 1.349 . S
C3127 H3119 0.950 . S
C3127 C3125 1.327 . S
C3128 C3116 1.349 . S
C3128 H3122 0.950 . S
C3128 C3129 1.327 . S
C3129 H3123 0.950 . S
C3129 C3128 1.327 . S
C3129 C3133 1.429 . S
C3130 C3113 1.574 . S
C3130 H3124 0.949 . S
C3130 C3134 1.368 . S
C3131 C3112 1.429 . S
C3131 C3125 1.429 . S
C3131 C3132 1.523 . S
C3132 C3113 1.368 . S
C3132 C3126 1.368 . S
C3132 C3131 1.523 . S
C3133 C3117 1.429 . S
C3133 C3129 1.429 . S
C3133 C3134 1.523 . S
C3134 C3118 1.368 . S
C3134 C3130 1.368 . S
C3134 C3133 1.523 . S
H3135 C3110 0.950 . S
H3136 C3112 0.950 . S
H3137 C3113 0.949 . S
H3138 C3115 0.950 . S
H3139 C3117 0.950 . S
C3140 C3141 1.349 . S
C3140 C3142 1.327 . S
C3140 H3165 0.950 . S
C3141 C3140 1.349 . S
C3141 C3157 1.349 . S
C3142 C3140 1.327 . S
C3142 C3161 1.429 . S
C3142 H3166 0.950 . S
C3143 C3160 1.574 . S
C3143 C3162 1.368 . S
C3143 H3167 0.949 . S
H3144 C3148 0.949 . S
C3145 C3146 1.349 . S
C3145 C3147 1.327 . S
C3145 H3168 0.950 . S
C3146 C3145 1.349 . S
C3146 C3158 1.349 . S
C3147 C3145 1.327 . S
C3147 C3163 1.429 . S
C3147 H3169 0.950 . S
C3148 H3144 0.949 . S
C3148 C3156 1.574 . S
C3148 C3164 1.368 . S
H3149 C3157 0.950 . S
H3150 C3155 0.950 . S
H3151 C3156 0.949 . S
H3152 C3158 0.950 . S
H3153 C3159 0.950 . S
H3154 C3160 0.949 . S
C3155 H3150 0.950 . S
C3155 C3157 1.327 . S
C3155 C3161 1.429 . S
C3156 C3148 1.574 . S
C3156 H3151 0.949 . S
C3156 C3162 1.368 . S
C3157 C3141 1.349 . S
C3157 H3149 0.950 . S
C3157 C3155 1.327 . S
C3158 C3146 1.349 . S
C3158 H3152 0.950 . S
C3158 C3159 1.327 . S
C3159 H3153 0.950 . S
C3159 C3158 1.327 . S
C3159 C3163 1.429 . S
C3160 C3143 1.574 . S
C3160 H3154 0.949 . S
C3160 C3164 1.368 . S
C3161 C3142 1.429 . S
C3161 C3155 1.429 . S
C3161 C3162 1.523 . S
C3162 C3143 1.368 . S
C3162 C3156 1.368 . S
C3162 C3161 1.523 . S
C3163 C3147 1.429 . S
C3163 C3159 1.429 . S
C3163 C3164 1.523 . S
C3164 C3148 1.368 . S
C3164 C3160 1.368 . S
C3164 C3163 1.523 . S
H3165 C3140 0.950 . S
H3166 C3142 0.950 . S
H3167 C3143 0.949 . S
H3168 C3145 0.950 . S
H3169 C3147 0.950 . S
C3170 C3171 1.349 1_545 S
C3170 C3172 1.327 . S
C3170 H3195 0.950 . S
C3171 C3170 1.349 1_565 S
C3171 C3187 1.349 . S
C3172 C3170 1.327 . S
C3172 C3191 1.429 . S
C3172 H3196 0.950 . S
C3173 C3190 1.575 . S
C3173 C3192 1.368 1_565 S
C3173 H3197 0.949 . S
H3174 C3178 0.949 . S
C3175 C3176 1.349 . S
C3175 C3177 1.327 . S
C3175 H3198 0.950 . S
C3176 C3175 1.349 . S
C3176 C3188 1.349 . S
C3177 C3175 1.327 . S
C3177 C3193 1.429 . S
C3177 H3199 0.950 1_545 S
C3178 H3174 0.949 . S
C3178 C3186 1.574 . S
C3178 C3194 1.368 . S
H3179 C3187 0.950 . S
H3180 C3185 0.950 . S
H3181 C3186 0.949 . S
H3182 C3188 0.950 . S
H3183 C3189 0.950 . S
H3184 C3190 0.952 . S
C3185 H3180 0.950 . S
C3185 C3187 1.327 . S
C3185 C3191 1.429 1_565 S
C3186 C3178 1.574 . S
C3186 H3181 0.949 . S
C3186 C3192 1.368 . S
C3187 C3171 1.349 . S
C3187 H3179 0.950 . S
C3187 C3185 1.327 . S
C3188 C3176 1.349 . S
C3188 H3182 0.950 . S
C3188 C3189 1.327 . S
C3189 H3183 0.950 . S
C3189 C3188 1.327 . S
C3189 C3193 1.429 . S
C3190 C3173 1.575 . S
C3190 H3184 0.952 . S
C3190 C3194 1.363 1_565 S
C3191 C3172 1.429 . S
C3191 C3185 1.429 1_545 S
C3191 C3192 1.523 . S
C3192 C3173 1.368 1_545 S
C3192 C3186 1.368 . S
C3192 C3191 1.523 . S
C3193 C3177 1.429 . S
C3193 C3189 1.429 . S
C3193 C3194 1.523 . S
C3194 C3178 1.368 . S
C3194 C3190 1.363 1_545 S
C3194 C3193 1.523 . S
H3195 C3170 0.950 . S
H3196 C3172 0.950 . S
H3197 C3173 0.949 . S
H3198 C3175 0.950 . S
H3199 C3177 0.950 1_565 S
C3200 C3201 1.349 . S
C3200 C3202 1.327 . S
C3200 H3225 0.950 . S
C3201 C3200 1.349 . S
C3201 C3217 1.349 . S
C3202 C3200 1.327 . S
C3202 C3221 1.429 . S
C3202 H3226 0.950 . S
C3203 C3220 1.574 . S
C3203 C3222 1.368 . S
C3203 H3227 0.949 . S
H3204 C3208 0.949 1_655 S
C3205 C3206 1.349 . S
C3205 C3207 1.327 . S
C3205 H3228 0.950 . S
C3206 C3205 1.349 . S
C3206 C3218 1.349 . S
C3207 C3205 1.327 . S
C3207 C3223 1.429 . S
C3207 H3229 0.950 . S
C3208 H3204 0.949 1_455 S
C3208 C3216 1.574 . S
C3208 C3224 1.368 1_455 S
H3209 C3217 0.950 . S
H3210 C3215 0.950 . S
H3211 C3216 0.949 . S
H3212 C3218 0.950 . S
H3213 C3219 0.950 . S
H3214 C3220 0.949 1_655 S
C3215 H3210 0.950 . S
C3215 C3217 1.327 . S
C3215 C3221 1.429 . S
C3216 C3208 1.574 . S
C3216 H3211 0.949 . S
C3216 C3222 1.368 . S
C3217 C3201 1.349 . S
C3217 H3209 0.950 . S
C3217 C3215 1.327 . S
C3218 C3206 1.349 . S
C3218 H3212 0.950 . S
C3218 C3219 1.327 . S
C3219 H3213 0.950 . S
C3219 C3218 1.327 . S
C3219 C3223 1.429 . S
C3220 C3203 1.574 . S
C3220 H3214 0.949 1_455 S
C3220 C3224 1.368 1_455 S
C3221 C3202 1.429 . S
C3221 C3215 1.429 . S
C3221 C3222 1.523 . S
C3222 C3203 1.368 . S
C3222 C3216 1.368 . S
C3222 C3221 1.523 . S
C3223 C3207 1.429 . S
C3223 C3219 1.429 . S
C3223 C3224 1.523 . S
C3224 C3208 1.368 1_655 S
C3224 C3220 1.368 1_655 S
C3224 C3223 1.523 . S
H3225 C3200 0.950 . S
H3226 C3202 0.950 . S
H3227 C3203 0.949 . S
H3228 C3205 0.950 . S
H3229 C3207 0.950 . S
C3230 C3231 1.349 . S
C3230 C3232 1.327 . S
C3230 H3255 0.950 . S
C3231 C3230 1.349 . S
C3231 C3247 1.349 . S
C3232 C3230 1.327 . S
C3232 C3251 1.429 . S
C3232 H3256 0.950 . S
C3233 C3250 1.574 . S
C3233 C3252 1.368 . S
C3233 H3257 0.949 . S
H3234 C3238 0.949 . S
C3235 C3236 1.349 . S
C3235 C3237 1.327 . S
C3235 H3258 0.950 . S
C3236 C3235 1.349 . S
C3236 C3248 1.349 . S
C3237 C3235 1.327 . S
C3237 C3253 1.429 . S
C3237 H3259 0.950 . S
C3238 H3234 0.949 . S
C3238 C3246 1.574 . S
C3238 C3254 1.368 . S
H3239 C3247 0.950 . S
H3240 C3245 0.950 . S
H3241 C3246 0.949 . S
H3242 C3248 0.950 . S
H3243 C3249 0.950 . S
H3244 C3250 0.949 . S
C3245 H3240 0.950 . S
C3245 C3247 1.327 . S
C3245 C3251 1.429 . S
C3246 C3238 1.574 . S
C3246 H3241 0.949 . S
C3246 C3252 1.368 . S
C3247 C3231 1.349 . S
C3247 H3239 0.950 . S
C3247 C3245 1.327 . S
C3248 C3236 1.349 . S
C3248 H3242 0.950 . S
C3248 C3249 1.327 . S
C3249 H3243 0.950 . S
C3249 C3248 1.327 . S
C3249 C3253 1.429 . S
C3250 C3233 1.574 . S
C3250 H3244 0.949 . S
C3250 C3254 1.368 . S
C3251 C3232 1.429 . S
C3251 C3245 1.429 . S
C3251 C3252 1.523 . S
C3252 C3233 1.368 . S
C3252 C3246 1.368 . S
C3252 C3251 1.523 . S
C3253 C3237 1.429 . S
C3253 C3249 1.429 . S
C3253 C3254 1.523 . S
C3254 C3238 1.368 . S
C3254 C3250 1.368 . S
C3254 C3253 1.523 . S
H3255 C3230 0.950 . S
H3256 C3232 0.950 . S
H3257 C3233 0.949 . S
H3258 C3235 0.950 . S
H3259 C3237 0.950 . S
C3260 C3261 1.349 . S
C3260 C3262 1.327 . S
C3260 H3285 0.950 . S
C3261 C3260 1.349 . S
C3261 C3277 1.349 . S
C3262 C3260 1.327 . S
C3262 C3281 1.429 . S
C3262 H3286 0.950 . S
C3263 C3280 1.574 . S
C3263 C3282 1.368 1_455 S
C3263 H3287 0.949 1_455 S
H3264 C3268 0.949 . S
C3265 C3266 1.349 . S
C3265 C3267 1.327 . S
C3265 H3288 0.950 . S
C3266 C3265 1.349 . S
C3266 C3278 1.349 . S
C3267 C3265 1.327 . S
C3267 C3283 1.429 . S
C3267 H3289 0.950 . S
C3268 H3264 0.949 . S
C3268 C3276 1.574 . S
C3268 C3284 1.368 . S
H3269 C3277 0.950 . S
H3270 C3275 0.950 . S
H3271 C3276 0.937 1_655 S
H3272 C3278 0.950 . S
H3273 C3279 0.950 . S
H3274 C3280 0.949 . S
C3275 H3270 0.950 . S
C3275 C3277 1.327 . S
C3275 C3281 1.429 . S
C3276 C3268 1.574 . S
C3276 H3271 0.937 1_455 S
C3276 C3282 1.368 1_455 S
C3277 C3261 1.349 . S
C3277 H3269 0.950 . S
C3277 C3275 1.327 . S
C3278 C3266 1.349 . S
C3278 H3272 0.950 . S
C3278 C3279 1.327 . S
C3279 H3273 0.950 . S
C3279 C3278 1.327 . S
C3279 C3283 1.429 . S
C3280 C3263 1.574 . S
C3280 H3274 0.949 . S
C3280 C3284 1.368 . S
C3281 C3262 1.429 . S
C3281 C3275 1.429 . S
C3281 C3282 1.523 . S
C3282 C3263 1.368 1_655 S
C3282 C3276 1.368 1_655 S
C3282 C3281 1.523 . S
C3283 C3267 1.429 . S
C3283 C3279 1.429 . S
C3283 C3284 1.523 . S
C3284 C3268 1.368 . S
C3284 C3280 1.368 . S
C3284 C3283 1.523 . S
H3285 C3260 0.950 . S
H3286 C3262 0.950 . S
H3287 C3263 0.949 1_655 S
H3288 C3265 0.950 . S
H3289 C3267 0.950 . S
C3290 C3291 1.349 . S
C3290 C3292 1.327 . S
C3290 H3315 0.950 . S
C3291 C3290 1.349 . S
C3291 C3307 1.349 . S
C3292 C3290 1.327 . S
C3292 C3311 1.429 . S
C3292 H3316 0.950 . S
C3293 C3310 1.574 . S
C3293 C3312 1.368 . S
C3293 H3317 0.949 . S
H3294 C3298 0.949 . S
C3295 C3296 1.349 . S
C3295 C3297 1.327 . S
C3295 H3318 0.950 . S
C3296 C3295 1.349 . S
C3296 C3308 1.349 . S
C3297 C3295 1.327 . S
C3297 C3313 1.429 . S
C3297 H3319 0.950 . S
C3298 H3294 0.949 . S
C3298 C3306 1.574 . S
C3298 C3314 1.368 . S
H3299 C3307 0.950 . S
H3300 C3305 0.950 . S
H3301 C3306 0.949 . S
H3302 C3308 0.950 . S
H3303 C3309 0.950 . S
H3304 C3310 0.949 . S
C3305 H3300 0.950 . S
C3305 C3307 1.327 . S
C3305 C3311 1.429 . S
C3306 C3298 1.574 . S
C3306 H3301 0.949 . S
C3306 C3312 1.368 . S
C3307 C3291 1.349 . S
C3307 H3299 0.950 . S
C3307 C3305 1.327 . S
C3308 C3296 1.349 . S
C3308 H3302 0.950 . S
C3308 C3309 1.327 . S
C3309 H3303 0.950 . S
C3309 C3308 1.327 . S
C3309 C3313 1.429 . S
C3310 C3293 1.574 . S
C3310 H3304 0.949 . S
C3310 C3314 1.368 . S
C3311 C3292 1.429 . S
C3311 C3305 1.429 . S
C3311 C3312 1.523 . S
C3312 C3293 1.368 . S
C3312 C3306 1.368 . S
C3312 C3311 1.523 . S
C3313 C3297 1.429 . S
C3313 C3309 1.429 . S
C3313 C3314 1.523 . S
C3314 C3298 1.368 . S
C3314 C3310 1.368 . S
C3314 C3313 1.523 . S
H3315 C3290 0.950 . S
H3316 C3292 0.950 . S
H3317 C3293 0.949 . S
H3318 C3295 0.950 . S
H3319 C3297 0.950 . S
C3320 C3321 1.349 . S
C3320 C3322 1.327 . S
C3320 H3345 0.950 . S
C3321 C3320 1.349 . S
C3321 C3337 1.349 . S
C3322 C3320 1.327 . S
C3322 C3341 1.429 . S
C3322 H3346 0.950 . S
C3323 C3340 1.574 . S
C3323 C3342 1.368 . S
C3323 H3347 0.949 . S
H3324 C3328 0.949 1_455 S
C3325 C3326 1.349 . S
C3325 C3327 1.327 . S
C3325 H3348 0.950 . S
C3326 C3325 1.349 . S
C3326 C3338 1.349 . S
C3327 C3325 1.327 . S
C3327 C3343 1.429 . S
C3327 H3349 0.950 . S
C3328 H3324 0.949 1_655 S
C3328 C3336 1.574 . S
C3328 C3344 1.368 1_655 S
H3329 C3337 0.950 . S
H3330 C3335 0.950 . S
H3331 C3336 0.949 . S
H3332 C3338 0.950 . S
H3333 C3339 0.950 . S
H3334 C3340 0.949 1_455 S
C3335 H3330 0.950 . S
C3335 C3337 1.327 . S
C3335 C3341 1.429 . S
C3336 C3328 1.574 . S
C3336 H3331 0.949 . S
C3336 C3342 1.368 . S
C3337 C3321 1.349 . S
C3337 H3329 0.950 . S
C3337 C3335 1.327 . S
C3338 C3326 1.349 . S
C3338 H3332 0.950 . S
C3338 C3339 1.327 . S
C3339 H3333 0.950 . S
C3339 C3338 1.327 . S
C3339 C3343 1.429 . S
C3340 C3323 1.574 . S
C3340 H3334 0.949 1_655 S
C3340 C3344 1.368 1_655 S
C3341 C3322 1.429 . S
C3341 C3335 1.429 . S
C3341 C3342 1.523 . S
C3342 C3323 1.368 . S
C3342 C3336 1.368 . S
C3342 C3341 1.523 . S
C3343 C3327 1.429 . S
C3343 C3339 1.429 . S
C3343 C3344 1.523 . S
C3344 C3328 1.368 1_455 S
C3344 C3340 1.368 1_455 S
C3344 C3343 1.523 . S
H3345 C3320 0.950 . S
H3346 C3322 0.950 . S
H3347 C3323 0.949 . S
H3348 C3325 0.950 . S
H3349 C3327 0.950 . S
C3350 C3351 1.349 . S
C3350 C3352 1.327 . S
C3350 H3375 0.950 . S
C3351 C3350 1.349 . S
C3351 C3367 1.349 . S
C3352 C3350 1.327 . S
C3352 C3371 1.429 . S
C3352 H3376 0.950 . S
C3353 C3370 1.574 . S
C3353 C3372 1.368 . S
C3353 H3377 0.949 . S
H3354 C3358 0.949 . S
C3355 C3356 1.349 . S
C3355 C3357 1.327 . S
C3355 H3378 0.950 . S
C3356 C3355 1.349 . S
C3356 C3368 1.349 . S
C3357 C3355 1.327 . S
C3357 C3373 1.429 . S
C3357 H3379 0.950 . S
C3358 H3354 0.949 . S
C3358 C3366 1.574 . S
C3358 C3374 1.368 . S
H3359 C3367 0.950 . S
H3360 C3365 0.950 . S
H3361 C3366 0.949 . S
H3362 C3368 0.950 . S
H3363 C3369 0.950 . S
H3364 C3370 0.949 . S
C3365 H3360 0.950 . S
C3365 C3367 1.327 . S
C3365 C3371 1.429 . S
C3366 C3358 1.574 . S
C3366 H3361 0.949 . S
C3366 C3372 1.368 . S
C3367 C3351 1.349 . S
C3367 H3359 0.950 . S
C3367 C3365 1.327 . S
C3368 C3356 1.349 . S
C3368 H3362 0.950 . S
C3368 C3369 1.327 . S
C3369 H3363 0.950 . S
C3369 C3368 1.327 . S
C3369 C3373 1.429 . S
C3370 C3353 1.574 . S
C3370 H3364 0.949 . S
C3370 C3374 1.368 . S
C3371 C3352 1.429 . S
C3371 C3365 1.429 . S
C3371 C3372 1.523 . S
C3372 C3353 1.368 . S
C3372 C3366 1.368 . S
C3372 C3371 1.523 . S
C3373 C3357 1.429 . S
C3373 C3369 1.429 . S
C3373 C3374 1.523 . S
C3374 C3358 1.368 . S
C3374 C3370 1.368 . S
C3374 C3373 1.523 . S
H3375 C3350 0.950 . S
H3376 C3352 0.950 . S
H3377 C3353 0.949 . S
H3378 C3355 0.950 . S
H3379 C3357 0.950 . S
C3380 C3381 1.349 . S
C3380 C3382 1.327 . S
C3380 H3405 0.950 . S
C3381 C3380 1.349 . S
C3381 C3397 1.349 . S
C3382 C3380 1.327 . S
C3382 C3401 1.429 . S
C3382 H3406 0.950 . S
C3383 C3400 1.574 . S
C3383 C3402 1.368 1_655 S
C3383 H3407 0.949 1_655 S
H3384 C3388 0.949 . S
C3385 C3386 1.349 . S
C3385 C3387 1.327 . S
C3385 H3408 0.950 . S
C3386 C3385 1.349 . S
C3386 C3398 1.349 . S
C3387 C3385 1.327 . S
C3387 C3403 1.429 . S
C3387 H3409 0.950 . S
C3388 H3384 0.949 . S
C3388 C3396 1.574 . S
C3388 C3404 1.368 . S
H3389 C3397 0.950 . S
H3390 C3395 0.950 . S
H3391 C3396 0.949 1_455 S
H3392 C3398 0.950 . S
H3393 C3399 0.950 . S
H3394 C3400 0.949 . S
C3395 H3390 0.950 . S
C3395 C3397 1.327 . S
C3395 C3401 1.429 . S
C3396 C3388 1.574 . S
C3396 H3391 0.949 1_655 S
C3396 C3402 1.368 1_655 S
C3397 C3381 1.349 . S
C3397 H3389 0.950 . S
C3397 C3395 1.327 . S
C3398 C3386 1.349 . S
C3398 H3392 0.950 . S
C3398 C3399 1.327 . S
C3399 H3393 0.950 . S
C3399 C3398 1.327 . S
C3399 C3403 1.429 . S
C3400 C3383 1.574 . S
C3400 H3394 0.949 . S
C3400 C3404 1.368 . S
C3401 C3382 1.429 . S
C3401 C3395 1.429 . S
C3401 C3402 1.523 . S
C3402 C3383 1.368 1_455 S
C3402 C3396 1.368 1_455 S
C3402 C3401 1.523 . S
C3403 C3387 1.429 . S
C3403 C3399 1.429 . S
C3403 C3404 1.523 . S
C3404 C3388 1.368 . S
C3404 C3400 1.368 . S
C3404 C3403 1.523 . S
H3405 C3380 0.950 . S
H3406 C3382 0.950 . S
H3407 C3383 0.949 1_455 S
H3408 C3385 0.950 . S
H3409 C3387 0.950 . S
C3410 C3411 1.349 . S
C3410 C3412 1.327 . S
C3410 H3435 0.950 . S
C3411 C3410 1.349 . S
C3411 C3427 1.349 . S
C3412 C3410 1.327 . S
C3412 C3431 1.429 . S
C3412 H3436 0.950 . S
C3413 C3430 1.574 . S
C3413 C3432 1.368 . S
C3413 H3437 0.949 . S
H3414 C3418 0.949 . S
C3415 C3416 1.349 . S
C3415 C3417 1.327 . S
C3415 H3438 0.950 . S
C3416 C3415 1.349 . S
C3416 C3428 1.349 . S
C3417 C3415 1.327 . S
C3417 C3433 1.429 . S
C3417 H3439 0.950 . S
C3418 H3414 0.949 . S
C3418 C3426 1.574 . S
C3418 C3434 1.368 . S
H3419 C3427 0.950 . S
H3420 C3425 0.950 . S
H3421 C3426 0.949 . S
H3422 C3428 0.950 . S
H3423 C3429 0.950 . S
H3424 C3430 0.949 . S
C3425 H3420 0.950 . S
C3425 C3427 1.327 . S
C3425 C3431 1.429 . S
C3426 C3418 1.574 . S
C3426 H3421 0.949 . S
C3426 C3432 1.368 . S
C3427 C3411 1.349 . S
C3427 H3419 0.950 . S
C3427 C3425 1.327 . S
C3428 C3416 1.349 . S
C3428 H3422 0.950 . S
C3428 C3429 1.327 . S
C3429 H3423 0.950 . S
C3429 C3428 1.327 . S
C3429 C3433 1.429 . S
C3430 C3413 1.574 . S
C3430 H3424 0.949 . S
C3430 C3434 1.368 . S
C3431 C3412 1.429 . S
C3431 C3425 1.429 . S
C3431 C3432 1.523 . S
C3432 C3413 1.368 . S
C3432 C3426 1.368 . S
C3432 C3431 1.523 . S
C3433 C3417 1.429 . S
C3433 C3429 1.429 . S
C3433 C3434 1.523 . S
C3434 C3418 1.368 . S
C3434 C3430 1.368 . S
C3434 C3433 1.523 . S
H3435 C3410 0.950 . S
H3436 C3412 0.950 . S
H3437 C3413 0.949 . S
H3438 C3415 0.950 . S
H3439 C3417 0.950 . S
C3440 C3441 1.349 . S
C3440 C3442 1.327 . S
C3440 H3465 0.950 . S
C3441 C3440 1.349 . S
C3441 C3457 1.349 1_545 S
C3442 C3440 1.327 . S
C3442 C3461 1.429 1_545 S
C3442 H3466 0.950 . S
C3443 C3460 1.574 . S
C3443 C3462 1.368 1_455 S
C3443 H3467 0.949 1_455 S
H3444 C3448 0.949 . S
C3445 C3446 1.349 . S
C3445 C3447 1.327 . S
C3445 H3468 0.950 . S
C3446 C3445 1.349 . S
C3446 C3458 1.349 . S
C3447 C3445 1.327 . S
C3447 C3463 1.429 . S
C3447 H3469 0.950 . S
C3448 H3444 0.949 . S
C3448 C3456 1.574 . S
C3448 C3464 1.368 . S
H3449 C3457 0.950 . S
H3450 C3455 0.950 . S
H3451 C3456 0.949 1_645 S
H3452 C3458 0.950 . S
H3453 C3459 0.950 . S
H3454 C3460 0.949 . S
C3455 H3450 0.950 . S
C3455 C3457 1.327 . S
C3455 C3461 1.429 . S
C3456 C3448 1.574 . S
C3456 H3451 0.949 1_465 S
C3456 C3462 1.368 1_455 S
C3457 C3441 1.349 1_565 S
C3457 H3449 0.950 . S
C3457 C3455 1.327 . S
C3458 C3446 1.349 . S
C3458 H3452 0.950 . S
C3458 C3459 1.327 . S
C3459 H3453 0.950 . S
C3459 C3458 1.327 . S
C3459 C3463 1.429 . S
C3460 C3443 1.574 . S
C3460 H3454 0.949 . S
C3460 C3464 1.368 . S
C3461 C3442 1.429 1_565 S
C3461 C3455 1.429 . S
C3461 C3462 1.523 . S
C3462 C3443 1.368 1_655 S
C3462 C3456 1.368 1_655 S
C3462 C3461 1.523 . S
C3463 C3447 1.429 . S
C3463 C3459 1.429 . S
C3463 C3464 1.523 . S
C3464 C3448 1.368 . S
C3464 C3460 1.368 . S
C3464 C3463 1.523 . S
H3465 C3440 0.950 . S
H3466 C3442 0.950 . S
H3467 C3443 0.949 1_655 S
H3468 C3445 0.950 . S
H3469 C3447 0.950 . S
C3470 C3471 1.349 . S
C3470 C3472 1.327 . S
C3470 H3495 0.950 . S
C3471 C3470 1.349 . S
C3471 C3487 1.349 . S
C3472 C3470 1.327 . S
C3472 C3491 1.429 . S
C3472 H3496 0.950 . S
C3473 C3490 1.574 . S
C3473 C3492 1.368 . S
C3473 H3497 0.949 . S
H3474 C3478 0.949 . S
C3475 C3476 1.349 . S
C3475 C3477 1.327 . S
C3475 H3498 0.950 . S
C3476 C3475 1.349 . S
C3476 C3488 1.349 . S
C3477 C3475 1.327 . S
C3477 C3493 1.429 . S
C3477 H3499 0.950 . S
C3478 H3474 0.949 . S
C3478 C3486 1.574 . S
C3478 C3494 1.368 . S
H3479 C3487 0.950 . S
H3480 C3485 0.950 . S
H3481 C3486 0.949 . S
H3482 C3488 0.950 . S
H3483 C3489 0.950 . S
H3484 C3490 0.949 . S
C3485 H3480 0.950 . S
C3485 C3487 1.327 . S
C3485 C3491 1.429 . S
C3486 C3478 1.574 . S
C3486 H3481 0.949 . S
C3486 C3492 1.368 . S
C3487 C3471 1.349 . S
C3487 H3479 0.950 . S
C3487 C3485 1.327 . S
C3488 C3476 1.349 . S
C3488 H3482 0.950 . S
C3488 C3489 1.327 . S
C3489 H3483 0.950 . S
C3489 C3488 1.327 . S
C3489 C3493 1.429 . S
C3490 C3473 1.574 . S
C3490 H3484 0.949 . S
C3490 C3494 1.368 . S
C3491 C3472 1.429 . S
C3491 C3485 1.429 . S
C3491 C3492 1.523 . S
C3492 C3473 1.368 . S
C3492 C3486 1.368 . S
C3492 C3491 1.523 . S
C3493 C3477 1.429 . S
C3493 C3489 1.429 . S
C3493 C3494 1.523 . S
C3494 C3478 1.368 . S
C3494 C3490 1.368 . S
C3494 C3493 1.523 . S
H3495 C3470 0.950 . S
H3496 C3472 0.950 . S
H3497 C3473 0.949 . S
H3498 C3475 0.950 . S
H3499 C3477 0.950 . S
C3500 C3501 1.349 . S
C3500 C3502 1.327 . S
C3500 H3525 0.950 . S
C3501 C3500 1.349 . S
C3501 C3517 1.349 . S
C3502 C3500 1.327 . S
C3502 C3521 1.429 . S
C3502 H3526 0.950 . S
C3503 C3520 1.574 . S
C3503 C3522 1.368 1_455 S
C3503 H3527 0.949 1_455 S
H3504 C3508 0.949 . S
C3505 C3506 1.349 . S
C3505 C3507 1.327 . S
C3505 H3528 0.950 . S
C3506 C3505 1.349 . S
C3506 C3518 1.349 . S
C3507 C3505 1.327 . S
C3507 C3523 1.429 . S
C3507 H3529 0.950 . S
C3508 H3504 0.949 . S
C3508 C3516 1.574 . S
C3508 C3524 1.368 . S
H3509 C3517 0.950 . S
H3510 C3515 0.950 . S
H3511 C3516 0.950 . S
H3512 C3518 0.950 . S
H3513 C3519 0.950 . S
H3514 C3520 0.949 . S
C3515 H3510 0.950 . S
C3515 C3517 1.327 . S
C3515 C3521 1.429 . S
C3516 C3508 1.574 . S
C3516 H3511 0.950 . S
C3516 C3522 1.368 1_455 S
C3517 C3501 1.349 . S
C3517 H3509 0.950 . S
C3517 C3515 1.327 . S
C3518 C3506 1.349 . S
C3518 H3512 0.950 . S
C3518 C3519 1.327 . S
C3519 H3513 0.950 . S
C3519 C3518 1.327 . S
C3519 C3523 1.429 . S
C3520 C3503 1.574 . S
C3520 H3514 0.949 . S
C3520 C3524 1.368 . S
C3521 C3502 1.429 . S
C3521 C3515 1.429 . S
C3521 C3522 1.523 . S
C3522 C3503 1.368 1_655 S
C3522 C3516 1.368 1_655 S
C3522 C3521 1.523 . S
C3523 C3507 1.429 . S
C3523 C3519 1.429 . S
C3523 C3524 1.523 . S
C3524 C3508 1.368 . S
C3524 C3520 1.368 . S
C3524 C3523 1.523 . S
H3525 C3500 0.950 . S
H3526 C3502 0.950 . S
H3527 C3503 0.949 1_655 S
H3528 C3505 0.950 . S
H3529 C3507 0.950 . S
C3530 C3531 1.349 1_565 S
C3530 C3532 1.327 . S
C3530 H3555 0.950 . S
C3531 C3530 1.349 1_545 S
C3531 C3547 1.349 . S
C3532 C3530 1.327 . S
C3532 C3551 1.429 . S
C3532 H3556 0.950 . S
C3533 C3550 1.574 . S
C3533 C3552 1.368 . S
C3533 H3557 0.949 1_565 S
H3534 C3538 0.949 . S
C3535 C3536 1.349 . S
C3535 C3537 1.327 . S
C3535 H3558 0.950 . S
C3536 C3535 1.349 . S
C3536 C3548 1.349 . S
C3537 C3535 1.327 . S
C3537 C3553 1.429 . S
C3537 H3559 0.950 . S
C3538 H3534 0.949 . S
C3538 C3546 1.574 . S
C3538 C3554 1.368 . S
H3539 C3547 0.950 . S
H3540 C3545 0.950 . S
H3541 C3546 0.949 . S
H3542 C3548 0.950 . S
H3543 C3549 0.950 . S
H3544 C3550 0.949 . S
C3545 H3540 0.950 . S
C3545 C3547 1.327 . S
C3545 C3551 1.429 1_545 S
C3546 C3538 1.574 . S
C3546 H3541 0.949 . S
C3546 C3552 1.368 . S
C3547 C3531 1.349 . S
C3547 H3539 0.950 . S
C3547 C3545 1.327 . S
C3548 C3536 1.349 . S
C3548 H3542 0.950 . S
C3548 C3549 1.327 . S
C3549 H3543 0.950 . S
C3549 C3548 1.327 . S
C3549 C3553 1.429 . S
C3550 C3533 1.574 . S
C3550 H3544 0.949 . S
C3550 C3554 1.368 . S
C3551 C3532 1.429 . S
C3551 C3545 1.429 1_565 S
C3551 C3552 1.523 . S
C3552 C3533 1.368 . S
C3552 C3546 1.368 . S
C3552 C3551 1.523 . S
C3553 C3537 1.429 . S
C3553 C3549 1.429 . S
C3553 C3554 1.523 . S
C3554 C3538 1.368 . S
C3554 C3550 1.368 . S
C3554 C3553 1.523 . S
H3555 C3530 0.950 . S
H3556 C3532 0.950 . S
H3557 C3533 0.949 1_545 S
H3558 C3535 0.950 . S
H3559 C3537 0.950 . S
C3560 C3561 1.349 . S
C3560 C3562 1.327 . S
C3560 H3585 0.950 . S
C3561 C3560 1.349 . S
C3561 C3577 1.349 . S
C3562 C3560 1.327 . S
C3562 C3581 1.429 . S
C3562 H3586 0.950 . S
C3563 C3580 1.574 . S
C3563 C3582 1.368 1_565 S
C3563 H3587 0.949 . S
H3564 C3568 0.949 1_455 S
C3565 C3566 1.349 . S
C3565 C3567 1.327 . S
C3565 H3588 0.950 . S
C3566 C3565 1.349 . S
C3566 C3578 1.349 1_565 S
C3567 C3565 1.327 . S
C3567 C3583 1.429 1_565 S
C3567 H3589 0.950 . S
C3568 H3564 0.949 1_655 S
C3568 C3576 1.574 . S
C3568 C3584 1.368 1_655 S
H3569 C3577 0.950 1_565 S
H3570 C3575 0.928 1_565 S
H3571 C3576 0.949 . S
H3572 C3578 0.950 . S
H3573 C3579 0.950 . S
H3574 C3580 0.946 1_455 S
C3575 H3570 0.928 1_545 S
C3575 C3577 1.332 . S
C3575 C3581 1.445 . S
C3576 C3568 1.574 . S
C3576 H3571 0.949 . S
C3576 C3582 1.368 . S
C3577 C3561 1.349 . S
C3577 H3569 0.950 1_545 S
C3577 C3575 1.332 . S
C3578 C3566 1.349 1_545 S
C3578 H3572 0.950 . S
C3578 C3579 1.327 . S
C3579 H3573 0.950 . S
C3579 C3578 1.327 . S
C3579 C3583 1.429 . S
C3580 C3563 1.574 . S
C3580 H3574 0.946 1_655 S
C3580 C3584 1.368 1_665 S
C3581 C3562 1.429 . S
C3581 C3575 1.445 . S
C3581 C3582 1.523 . S
C3582 C3563 1.368 1_545 S
C3582 C3576 1.368 . S
C3582 C3581 1.523 . S
C3583 C3567 1.429 1_545 S
C3583 C3579 1.429 . S
C3583 C3584 1.523 . S
C3584 C3568 1.368 1_455 S
C3584 C3580 1.368 1_445 S
C3584 C3583 1.523 . S
H3585 C3560 0.950 . S
H3586 C3562 0.950 . S
H3587 C3563 0.949 . S
H3588 C3565 0.950 . S
H3589 C3567 0.950 . S
C3590 C3591 1.349 . S
C3590 C3592 1.327 . S
C3590 H3615 0.950 . S
C3591 C3590 1.349 . S
C3591 C3607 1.349 . S
C3592 C3590 1.327 . S
C3592 C3611 1.429 . S
C3592 H3616 0.950 . S
C3593 C3610 1.574 . S
C3593 C3612 1.368 . S
C3593 H3617 0.949 . S
H3594 C3598 0.949 . S
C3595 C3596 1.349 . S
C3595 C3597 1.327 . S
C3595 H3618 0.950 . S
C3596 C3595 1.349 . S
C3596 C3608 1.349 . S
C3597 C3595 1.327 . S
C3597 C3613 1.429 . S
C3597 H3619 0.950 . S
C3598 H3594 0.949 . S
C3598 C3606 1.574 . S
C3598 C3614 1.368 . S
H3599 C3607 0.950 . S
H3600 C3605 0.950 . S
H3601 C3606 0.949 . S
H3602 C3608 0.950 . S
H3603 C3609 0.950 . S
H3604 C3610 0.949 . S
C3605 H3600 0.950 . S
C3605 C3607 1.327 . S
C3605 C3611 1.429 . S
C3606 C3598 1.574 . S
C3606 H3601 0.949 . S
C3606 C3612 1.368 . S
C3607 C3591 1.349 . S
C3607 H3599 0.950 . S
C3607 C3605 1.327 . S
C3608 C3596 1.349 . S
C3608 H3602 0.950 . S
C3608 C3609 1.327 . S
C3609 H3603 0.950 . S
C3609 C3608 1.327 . S
C3609 C3613 1.429 . S
C3610 C3593 1.574 . S
C3610 H3604 0.949 . S
C3610 C3614 1.368 . S
C3611 C3592 1.429 . S
C3611 C3605 1.429 . S
C3611 C3612 1.523 . S
C3612 C3593 1.368 . S
C3612 C3606 1.368 . S
C3612 C3611 1.523 . S
C3613 C3597 1.429 . S
C3613 C3609 1.429 . S
C3613 C3614 1.523 . S
C3614 C3598 1.368 . S
C3614 C3610 1.368 . S
C3614 C3613 1.523 . S
H3615 C3590 0.950 . S
H3616 C3592 0.950 . S
H3617 C3593 0.949 . S
H3618 C3595 0.950 . S
H3619 C3597 0.950 . S
C3620 C3621 1.349 . S
C3620 C3622 1.327 . S
C3620 H3645 0.950 . S
C3621 C3620 1.349 . S
C3621 C3637 1.349 . S
C3622 C3620 1.327 . S
C3622 C3641 1.429 . S
C3622 H3646 0.950 . S
C3623 C3640 1.574 . S
C3623 C3642 1.368 1_655 S
C3623 H3647 0.949 1_655 S
H3624 C3628 0.949 . S
C3625 C3626 1.349 . S
C3625 C3627 1.327 . S
C3625 H3648 0.950 . S
C3626 C3625 1.349 . S
C3626 C3638 1.349 . S
C3627 C3625 1.327 . S
C3627 C3643 1.429 . S
C3627 H3649 0.950 . S
C3628 H3624 0.949 . S
C3628 C3636 1.574 . S
C3628 C3644 1.368 . S
H3629 C3637 0.950 . S
H3630 C3635 0.950 . S
H3631 C3636 0.949 1_455 S
H3632 C3638 0.950 . S
H3633 C3639 0.950 . S
H3634 C3640 0.949 . S
C3635 H3630 0.950 . S
C3635 C3637 1.327 . S
C3635 C3641 1.429 . S
C3636 C3628 1.574 . S
C3636 H3631 0.949 1_655 S
C3636 C3642 1.368 1_655 S
C3637 C3621 1.349 . S
C3637 H3629 0.950 . S
C3637 C3635 1.327 . S
C3638 C3626 1.349 . S
C3638 H3632 0.950 . S
C3638 C3639 1.327 . S
C3639 H3633 0.950 . S
C3639 C3638 1.327 . S
C3639 C3643 1.429 . S
C3640 C3623 1.574 . S
C3640 H3634 0.949 . S
C3640 C3644 1.368 . S
C3641 C3622 1.429 . S
C3641 C3635 1.429 . S
C3641 C3642 1.523 . S
C3642 C3623 1.368 1_455 S
C3642 C3636 1.368 1_455 S
C3642 C3641 1.523 . S
C3643 C3627 1.429 . S
C3643 C3639 1.429 . S
C3643 C3644 1.523 . S
C3644 C3628 1.368 . S
C3644 C3640 1.368 . S
C3644 C3643 1.523 . S
H3645 C3620 0.950 . S
H3646 C3622 0.950 . S
H3647 C3623 0.949 1_455 S
H3648 C3625 0.950 . S
H3649 C3627 0.950 . S
C3650 C3651 1.349 1_545 S
C3650 C3652 1.327 . S
C3650 H3675 0.950 . S
C3651 C3650 1.349 1_565 S
C3651 C3667 1.349 . S
C3652 C3650 1.327 . S
C3652 C3671 1.429 . S
C3652 H3676 0.950 . S
C3653 C3670 1.574 . S
C3653 C3672 1.368 1_565 S
C3653 H3677 0.949 . S
H3654 C3658 0.949 . S
C3655 C3656 1.373 . S
C3655 C3657 1.323 1_545 S
C3655 H3678 0.930 1_545 S
C3656 C3655 1.373 . S
C3656 C3668 1.349 . S
C3657 C3655 1.323 1_565 S
C3657 C3673 1.429 1_565 S
C3657 H3679 0.950 . S
C3658 H3654 0.949 . S
C3658 C3666 1.574 . S
C3658 C3674 1.368 . S
H3659 C3667 0.950 . S
H3660 C3665 0.950 . S
H3661 C3666 0.949 . S
H3662 C3668 0.950 . S
H3663 C3669 0.950 . S
H3664 C3670 0.949 . S
C3665 H3660 0.950 . S
C3665 C3667 1.327 . S
C3665 C3671 1.429 1_565 S
C3666 C3658 1.574 . S
C3666 H3661 0.949 . S
C3666 C3672 1.368 . S
C3667 C3651 1.349 . S
C3667 H3659 0.950 . S
C3667 C3665 1.327 . S
C3668 C3656 1.349 . S
C3668 H3662 0.950 . S
C3668 C3669 1.327 . S
C3669 H3663 0.950 . S
C3669 C3668 1.327 . S
C3669 C3673 1.429 . S
C3670 C3653 1.574 . S
C3670 H3664 0.949 . S
C3670 C3674 1.368 1_565 S
C3671 C3652 1.429 . S
C3671 C3665 1.429 1_545 S
C3671 C3672 1.523 . S
C3672 C3653 1.368 1_545 S
C3672 C3666 1.368 . S
C3672 C3671 1.523 . S
C3673 C3657 1.429 1_545 S
C3673 C3669 1.429 . S
C3673 C3674 1.523 . S
C3674 C3658 1.368 . S
C3674 C3670 1.368 1_545 S
C3674 C3673 1.523 . S
H3675 C3650 0.950 . S
H3676 C3652 0.950 . S
H3677 C3653 0.949 . S
H3678 C3655 0.930 1_565 S
H3679 C3657 0.950 . S
C3680 C3681 1.349 . S
C3680 C3682 1.327 . S
C3680 H3705 0.950 . S
C3681 C3680 1.349 . S
C3681 C3697 1.349 1_455 S
C3682 C3680 1.327 . S
C3682 C3701 1.429 . S
C3682 H3706 0.950 . S
C3683 C3700 1.574 1_554 S
C3683 C3702 1.368 1_655 S
C3683 H3707 0.949 . S
H3684 C3688 0.949 . S
C3685 C3686 1.349 . S
C3685 C3687 1.327 . S
C3685 H3708 0.950 . S
C3686 C3685 1.349 . S
C3686 C3698 1.349 1_655 S
C3687 C3685 1.327 . S
C3687 C3703 1.429 . S
C3687 H3709 0.950 . S
C3688 H3684 0.949 . S
C3688 C3696 1.574 1_556 S
C3688 C3704 1.368 1_455 S
H3689 C3697 0.950 . S
H3690 C3695 0.950 . S
H3691 C3696 0.949 . S
H3692 C3698 0.950 . S
H3693 C3699 0.950 . S
H3694 C3700 0.949 . S
C3695 H3690 0.950 . S
C3695 C3697 1.327 . S
C3695 C3701 1.429 1_655 S
C3696 C3688 1.574 1_554 S
C3696 H3691 0.949 . S
C3696 C3702 1.368 . S
C3697 C3681 1.349 1_655 S
C3697 H3689 0.950 . S
C3697 C3695 1.327 . S
C3698 C3686 1.349 1_455 S
C3698 H3692 0.950 . S
C3698 C3699 1.327 . S
C3699 H3693 0.950 . S
C3699 C3698 1.327 . S
C3699 C3703 1.429 1_455 S
C3700 C3683 1.574 1_556 S
C3700 H3694 0.949 . S
C3700 C3704 1.368 . S
C3701 C3682 1.429 . S
C3701 C3695 1.429 1_455 S
C3701 C3702 1.523 . S
C3702 C3683 1.368 1_455 S
C3702 C3696 1.368 . S
C3702 C3701 1.523 . S
C3703 C3687 1.429 . S
C3703 C3699 1.429 1_655 S
C3703 C3704 1.523 . S
C3704 C3688 1.368 1_655 S
C3704 C3700 1.368 . S
C3704 C3703 1.523 . S
H3705 C3680 0.950 . S
H3706 C3682 0.950 . S
H3707 C3683 0.949 . S
H3708 C3685 0.950 . S
H3709 C3687 0.950 . S
C3710 C3711 1.349 . S
C3710 C3712 1.327 . S
C3710 H3735 0.950 . S
C3711 C3710 1.349 . S
C3711 C3727 1.349 . S
C3712 C3710 1.327 . S
C3712 C3731 1.429 . S
C3712 H3736 0.950 . S
C3713 C3730 1.574 1_556 S
C3713 C3732 1.368 . S
C3713 H3737 0.949 . S
H3714 C3718 0.949 . S
C3715 C3716 1.349 . S
C3715 C3717 1.327 . S
C3715 H3738 0.950 . S
C3716 C3715 1.349 . S
C3716 C3728 1.349 . S
C3717 C3715 1.327 . S
C3717 C3733 1.429 . S
C3717 H3739 0.950 . S
C3718 H3714 0.949 . S
C3718 C3726 1.574 1_554 S
C3718 C3734 1.368 . S
H3719 C3727 0.950 . S
H3720 C3725 0.950 . S
H3721 C3726 0.949 . S
H3722 C3728 0.950 . S
H3723 C3729 0.950 . S
H3724 C3730 0.949 . S
C3725 H3720 0.950 . S
C3725 C3727 1.327 . S
C3725 C3731 1.429 . S
C3726 C3718 1.574 1_556 S
C3726 H3721 0.949 . S
C3726 C3732 1.368 . S
C3727 C3711 1.349 . S
C3727 H3719 0.950 . S
C3727 C3725 1.327 . S
C3728 C3716 1.349 . S
C3728 H3722 0.950 . S
C3728 C3729 1.327 . S
C3729 H3723 0.950 . S
C3729 C3728 1.327 . S
C3729 C3733 1.429 . S
C3730 C3713 1.574 1_554 S
C3730 H3724 0.949 . S
C3730 C3734 1.368 . S
C3731 C3712 1.429 . S
C3731 C3725 1.429 . S
C3731 C3732 1.523 . S
C3732 C3713 1.368 . S
C3732 C3726 1.368 . S
C3732 C3731 1.523 . S
C3733 C3717 1.429 . S
C3733 C3729 1.429 . S
C3733 C3734 1.523 . S
C3734 C3718 1.368 . S
C3734 C3730 1.368 . S
C3734 C3733 1.523 . S
H3735 C3710 0.950 . S
H3736 C3712 0.950 . S
H3737 C3713 0.949 . S
H3738 C3715 0.950 . S
H3739 C3717 0.950 . S
C3740 C3741 1.349 . S
C3740 C3742 1.327 . S
C3740 H3765 0.950 . S
C3741 C3740 1.349 . S
C3741 C3757 1.349 1_655 S
C3742 C3740 1.327 . S
C3742 C3761 1.429 . S
C3742 H3766 0.950 . S
C3743 C3760 1.574 . S
C3743 C3762 1.368 1_455 S
C3743 H3767 0.949 . S
H3744 C3748 0.949 . S
C3745 C3746 1.349 . S
C3745 C3747 1.327 . S
C3745 H3768 0.950 . S
C3746 C3745 1.349 . S
C3746 C3758 1.349 1_455 S
C3747 C3745 1.327 . S
C3747 C3763 1.429 . S
C3747 H3769 0.950 . S
C3748 H3744 0.949 . S
C3748 C3756 1.574 . S
C3748 C3764 1.368 1_655 S
H3749 C3757 0.950 . S
H3750 C3755 0.950 . S
H3751 C3756 0.949 . S
H3752 C3758 0.950 . S
H3753 C3759 0.950 . S
H3754 C3760 0.949 . S
C3755 H3750 0.950 . S
C3755 C3757 1.327 . S
C3755 C3761 1.429 1_455 S
C3756 C3748 1.574 . S
C3756 H3751 0.949 . S
C3756 C3762 1.368 . S
C3757 C3741 1.349 1_455 S
C3757 H3749 0.950 . S
C3757 C3755 1.327 . S
C3758 C3746 1.349 1_655 S
C3758 H3752 0.950 . S
C3758 C3759 1.327 . S
C3759 H3753 0.950 . S
C3759 C3758 1.327 . S
C3759 C3763 1.429 1_655 S
C3760 C3743 1.574 . S
C3760 H3754 0.949 . S
C3760 C3764 1.368 . S
C3761 C3742 1.429 . S
C3761 C3755 1.429 1_655 S
C3761 C3762 1.523 . S
C3762 C3743 1.368 1_655 S
C3762 C3756 1.368 . S
C3762 C3761 1.523 . S
C3763 C3747 1.429 . S
C3763 C3759 1.429 1_455 S
C3763 C3764 1.523 . S
C3764 C3748 1.368 1_455 S
C3764 C3760 1.368 . S
C3764 C3763 1.523 . S
H3765 C3740 0.950 . S
H3766 C3742 0.950 . S
H3767 C3743 0.949 . S
H3768 C3745 0.950 . S
H3769 C3747 0.950 . S
C3770 C3771 1.349 . S
C3770 C3772 1.327 . S
C3770 H3795 0.950 . S
C3771 C3770 1.349 . S
C3771 C3787 1.349 . S
C3772 C3770 1.327 . S
C3772 C3791 1.429 . S
C3772 H3796 0.950 . S
C3773 C3790 1.574 . S
C3773 C3792 1.368 . S
C3773 H3797 0.949 . S
H3774 C3778 0.949 . S
C3775 C3776 1.349 . S
C3775 C3777 1.327 . S
C3775 H3798 0.950 . S
C3776 C3775 1.349 . S
C3776 C3788 1.349 . S
C3777 C3775 1.327 . S
C3777 C3793 1.429 . S
C3777 H3799 0.950 . S
C3778 H3774 0.949 . S
C3778 C3786 1.574 . S
C3778 C3794 1.368 . S
H3779 C3787 0.950 . S
H3780 C3785 0.950 . S
H3781 C3786 0.949 . S
H3782 C3788 0.950 . S
H3783 C3789 0.950 . S
H3784 C3790 0.949 . S
C3785 H3780 0.950 . S
C3785 C3787 1.327 . S
C3785 C3791 1.429 . S
C3786 C3778 1.574 . S
C3786 H3781 0.949 . S
C3786 C3792 1.368 . S
C3787 C3771 1.349 . S
C3787 H3779 0.950 . S
C3787 C3785 1.327 . S
C3788 C3776 1.349 . S
C3788 H3782 0.950 . S
C3788 C3789 1.327 . S
C3789 H3783 0.950 . S
C3789 C3788 1.327 . S
C3789 C3793 1.429 . S
C3790 C3773 1.574 . S
C3790 H3784 0.949 . S
C3790 C3794 1.368 . S
C3791 C3772 1.429 . S
C3791 C3785 1.429 . S
C3791 C3792 1.523 . S
C3792 C3773 1.368 . S
C3792 C3786 1.368 . S
C3792 C3791 1.523 . S
C3793 C3777 1.429 . S
C3793 C3789 1.429 . S
C3793 C3794 1.523 . S
C3794 C3778 1.368 . S
C3794 C3790 1.368 . S
C3794 C3793 1.523 . S
H3795 C3770 0.950 . S
H3796 C3772 0.950 . S
H3797 C3773 0.949 . S
H3798 C3775 0.950 . S
H3799 C3777 0.950 . S
C3800 C3801 1.349 . S
C3800 C3802 1.327 . S
C3800 H3825 0.950 . S
C3801 C3800 1.349 . S
C3801 C3817 1.349 . S
C3802 C3800 1.327 . S
C3802 C3821 1.429 . S
C3802 H3826 0.950 . S
C3803 C3820 1.574 1_556 S
C3803 C3822 1.368 . S
C3803 H3827 0.949 . S
H3804 C3808 0.949 . S
C3805 C3806 1.349 . S
C3805 C3807 1.327 . S
C3805 H3828 0.950 . S
C3806 C3805 1.349 . S
C3806 C3818 1.349 . S
C3807 C3805 1.327 . S
C3807 C3823 1.429 . S
C3807 H3829 0.950 . S
C3808 H3804 0.949 . S
C3808 C3816 1.574 1_554 S
C3808 C3824 1.368 . S
H3809 C3817 0.950 . S
H3810 C3815 0.950 . S
H3811 C3816 0.949 . S
H3812 C3818 0.950 . S
H3813 C3819 0.950 . S
H3814 C3820 0.949 . S
C3815 H3810 0.950 . S
C3815 C3817 1.327 . S
C3815 C3821 1.429 . S
C3816 C3808 1.574 1_556 S
C3816 H3811 0.949 . S
C3816 C3822 1.368 . S
C3817 C3801 1.349 . S
C3817 H3809 0.950 . S
C3817 C3815 1.327 . S
C3818 C3806 1.349 . S
C3818 H3812 0.950 . S
C3818 C3819 1.327 . S
C3819 H3813 0.950 . S
C3819 C3818 1.327 . S
C3819 C3823 1.429 . S
C3820 C3803 1.574 1_554 S
C3820 H3814 0.949 . S
C3820 C3824 1.368 . S
C3821 C3802 1.429 . S
C3821 C3815 1.429 . S
C3821 C3822 1.523 . S
C3822 C3803 1.368 . S
C3822 C3816 1.368 . S
C3822 C3821 1.523 . S
C3823 C3807 1.429 . S
C3823 C3819 1.429 . S
C3823 C3824 1.523 . S
C3824 C3808 1.368 . S
C3824 C3820 1.368 . S
C3824 C3823 1.523 . S
H3825 C3800 0.950 . S
H3826 C3802 0.950 . S
H3827 C3803 0.949 . S
H3828 C3805 0.950 . S
H3829 C3807 0.950 . S
C3830 C3831 1.349 1_455 S
C3830 C3832 1.327 . S
C3830 H3855 0.950 . S
C3831 C3830 1.349 1_655 S
C3831 C3847 1.349 . S
C3832 C3830 1.327 . S
C3832 C3851 1.429 1_455 S
C3832 H3856 0.950 . S
C3833 C3850 1.574 . S
C3833 C3852 1.368 . S
C3833 H3857 0.949 . S
H3834 C3838 0.949 . S
C3835 C3836 1.349 1_655 S
C3835 C3837 1.327 . S
C3835 H3858 0.950 . S
C3836 C3835 1.349 1_455 S
C3836 C3848 1.349 . S
C3837 C3835 1.327 . S
C3837 C3853 1.429 1_655 S
C3837 H3859 0.950 . S
C3838 H3834 0.949 . S
C3838 C3846 1.574 . S
C3838 C3854 1.368 . S
H3839 C3847 0.950 . S
H3840 C3845 0.950 . S
H3841 C3846 0.949 . S
H3842 C3848 0.950 . S
H3843 C3849 0.950 . S
H3844 C3850 0.949 . S
C3845 H3840 0.950 . S
C3845 C3847 1.327 . S
C3845 C3851 1.429 . S
C3846 C3838 1.574 . S
C3846 H3841 0.949 . S
C3846 C3852 1.368 1_455 S
C3847 C3831 1.349 . S
C3847 H3839 0.950 . S
C3847 C3845 1.327 . S
C3848 C3836 1.349 . S
C3848 H3842 0.950 . S
C3848 C3849 1.327 . S
C3849 H3843 0.950 . S
C3849 C3848 1.327 . S
C3849 C3853 1.429 . S
C3850 C3833 1.574 . S
C3850 H3844 0.949 . S
C3850 C3854 1.368 1_655 S
C3851 C3832 1.429 1_655 S
C3851 C3845 1.429 . S
C3851 C3852 1.523 . S
C3852 C3833 1.368 . S
C3852 C3846 1.368 1_655 S
C3852 C3851 1.523 . S
C3853 C3837 1.429 1_455 S
C3853 C3849 1.429 . S
C3853 C3854 1.523 . S
C3854 C3838 1.368 . S
C3854 C3850 1.368 1_455 S
C3854 C3853 1.523 . S
H3855 C3830 0.950 . S
H3856 C3832 0.950 . S
H3857 C3833 0.949 . S
H3858 C3835 0.950 . S
H3859 C3837 0.950 . S
C3860 C3861 1.349 . S
C3860 C3862 1.327 . S
C3860 H3885 0.950 . S
C3861 C3860 1.349 . S
C3861 C3877 1.349 . S
C3862 C3860 1.327 . S
C3862 C3881 1.429 . S
C3862 H3886 0.950 . S
C3863 C3880 1.574 . S
C3863 C3882 1.368 . S
C3863 H3887 0.949 . S
H3864 C3868 0.949 . S
C3865 C3866 1.349 . S
C3865 C3867 1.327 . S
C3865 H3888 0.950 . S
C3866 C3865 1.349 . S
C3866 C3878 1.349 . S
C3867 C3865 1.327 . S
C3867 C3883 1.429 . S
C3867 H3889 0.950 . S
C3868 H3864 0.949 . S
C3868 C3876 1.574 . S
C3868 C3884 1.368 . S
H3869 C3877 0.950 . S
H3870 C3875 0.950 . S
H3871 C3876 0.949 . S
H3872 C3878 0.950 . S
H3873 C3879 0.950 . S
H3874 C3880 0.949 . S
C3875 H3870 0.950 . S
C3875 C3877 1.327 . S
C3875 C3881 1.429 . S
C3876 C3868 1.574 . S
C3876 H3871 0.949 . S
C3876 C3882 1.368 . S
C3877 C3861 1.349 . S
C3877 H3869 0.950 . S
C3877 C3875 1.327 . S
C3878 C3866 1.349 . S
C3878 H3872 0.950 . S
C3878 C3879 1.327 . S
C3879 H3873 0.950 . S
C3879 C3878 1.327 . S
C3879 C3883 1.429 . S
C3880 C3863 1.574 . S
C3880 H3874 0.949 . S
C3880 C3884 1.368 . S
C3881 C3862 1.429 . S
C3881 C3875 1.429 . S
C3881 C3882 1.523 . S
C3882 C3863 1.368 . S
C3882 C3876 1.368 . S
C3882 C3881 1.523 . S
C3883 C3867 1.429 . S
C3883 C3879 1.429 . S
C3883 C3884 1.523 . S
C3884 C3868 1.368 . S
C3884 C3880 1.368 . S
C3884 C3883 1.523 . S
H3885 C3860 0.950 . S
H3886 C3862 0.950 . S
H3887 C3863 0.949 . S
H3888 C3865 0.950 . S
H3889 C3867 0.950 . S
C3890 C3891 1.349 1_545 S
C3890 C3892 1.327 . S
C3890 H3915 0.950 . S
C3891 C3890 1.349 1_565 S
C3891 C3907 1.349 1_455 S
C3892 C3890 1.327 . S
C3892 C3911 1.429 1_545 S
C3892 H3916 0.950 . S
C3893 C3910 1.574 . S
C3893 C3912 1.406 1_655 S
C3893 H3917 0.949 . S
H3894 C3898 0.949 . S
C3895 C3896 1.349 1_565 S
C3895 C3897 1.327 . S
C3895 H3918 0.950 . S
C3896 C3895 1.349 1_545 S
C3896 C3908 1.349 1_655 S
C3897 C3895 1.327 . S
C3897 C3913 1.429 1_565 S
C3897 H3919 0.950 . S
C3898 H3894 0.949 . S
C3898 C3906 1.574 . S
C3898 C3914 1.406 1_455 S
H3899 C3907 0.950 . S
H3900 C3905 0.950 . S
H3901 C3906 0.949 . S
H3902 C3908 0.950 . S
H3903 C3909 0.950 . S
H3904 C3910 0.949 . S
C3905 H3900 0.950 . S
C3905 C3907 1.327 . S
C3905 C3911 1.429 1_655 S
C3906 C3898 1.574 . S
C3906 H3901 0.949 . S
C3906 C3912 1.330 1_545 S
C3907 C3891 1.349 1_655 S
C3907 H3899 0.950 . S
C3907 C3905 1.327 . S
C3908 C3896 1.349 1_455 S
C3908 H3902 0.950 . S
C3908 C3909 1.327 . S
C3909 H3903 0.950 . S
C3909 C3908 1.327 . S
C3909 C3913 1.429 1_455 S
C3910 C3893 1.574 . S
C3910 H3904 0.949 . S
C3910 C3914 1.330 1_565 S
C3911 C3892 1.429 1_565 S
C3911 C3905 1.429 1_455 S
C3911 C3912 1.526 . S
C3912 C3893 1.406 1_455 S
C3912 C3906 1.330 1_565 S
C3912 C3911 1.526 . S
C3913 C3897 1.429 1_545 S
C3913 C3909 1.429 1_655 S
C3913 C3914 1.526 . S
C3914 C3898 1.406 1_655 S
C3914 C3910 1.330 1_545 S
C3914 C3913 1.526 . S
H3915 C3890 0.950 . S
H3916 C3892 0.950 . S
H3917 C3893 0.949 . S
H3918 C3895 0.950 . S
H3919 C3897 0.950 . S
C3920 C3921 1.349 . S
C3920 C3922 1.327 . S
C3920 H3945 0.950 . S
C3921 C3920 1.349 . S
C3921 C3937 1.349 . S
C3922 C3920 1.327 . S
C3922 C3941 1.429 . S
C3922 H3946 0.950 . S
C3923 C3940 1.574 . S
C3923 C3942 1.368 . S
C3923 H3947 0.949 . S
H3924 C3928 0.949 . S
C3925 C3926 1.349 . S
C3925 C3927 1.327 . S
C3925 H3948 0.950 . S
C3926 C3925 1.349 . S
C3926 C3938 1.349 . S
C3927 C3925 1.327 . S
C3927 C3943 1.429 . S
C3927 H3949 0.950 . S
C3928 H3924 0.949 . S
C3928 C3936 1.574 . S
C3928 C3944 1.368 . S
H3929 C3937 0.950 . S
H3930 C3935 0.950 . S
H3931 C3936 0.949 . S
H3932 C3938 0.950 . S
H3933 C3939 0.950 . S
H3934 C3940 0.949 . S
C3935 H3930 0.950 . S
C3935 C3937 1.327 . S
C3935 C3941 1.429 . S
C3936 C3928 1.574 . S
C3936 H3931 0.949 . S
C3936 C3942 1.368 . S
C3937 C3921 1.349 . S
C3937 H3929 0.950 . S
C3937 C3935 1.327 . S
C3938 C3926 1.349 . S
C3938 H3932 0.950 . S
C3938 C3939 1.327 . S
C3939 H3933 0.950 . S
C3939 C3938 1.327 . S
C3939 C3943 1.429 . S
C3940 C3923 1.574 . S
C3940 H3934 0.949 . S
C3940 C3944 1.368 . S
C3941 C3922 1.429 . S
C3941 C3935 1.429 . S
C3941 C3942 1.523 . S
C3942 C3923 1.368 . S
C3942 C3936 1.368 . S
C3942 C3941 1.523 . S
C3943 C3927 1.429 . S
C3943 C3939 1.429 . S
C3943 C3944 1.523 . S
C3944 C3928 1.368 . S
C3944 C3940 1.368 . S
C3944 C3943 1.523 . S
H3945 C3920 0.950 . S
H3946 C3922 0.950 . S
H3947 C3923 0.949 . S
H3948 C3925 0.950 . S
H3949 C3927 0.950 . S
C3950 C3951 1.349 1_565 S
C3950 C3952 1.327 . S
C3950 H3975 0.950 . S
C3951 C3950 1.349 1_545 S
C3951 C3967 1.349 . S
C3952 C3950 1.327 . S
C3952 C3971 1.429 1_565 S
C3952 H3976 0.950 . S
C3953 C3970 1.574 . S
C3953 C3972 1.406 . S
C3953 H3977 0.949 . S
H3954 C3958 0.949 . S
C3955 C3956 1.349 1_545 S
C3955 C3957 1.327 . S
C3955 H3978 0.950 . S
C3956 C3955 1.349 1_565 S
C3956 C3968 1.349 . S
C3957 C3955 1.327 . S
C3957 C3973 1.429 1_545 S
C3957 H3979 0.950 . S
C3958 H3954 0.949 . S
C3958 C3966 1.574 . S
C3958 C3974 1.406 . S
H3959 C3967 0.950 . S
H3960 C3965 0.950 . S
H3961 C3966 0.949 . S
H3962 C3968 0.950 . S
H3963 C3969 0.950 . S
H3964 C3970 0.949 . S
C3965 H3960 0.950 . S
C3965 C3967 1.327 . S
C3965 C3971 1.429 . S
C3966 C3958 1.574 . S
C3966 H3961 0.949 . S
C3966 C3972 1.330 1_565 S
C3967 C3951 1.349 . S
C3967 H3959 0.950 . S
C3967 C3965 1.327 . S
C3968 C3956 1.349 . S
C3968 H3962 0.950 . S
C3968 C3969 1.327 . S
C3969 H3963 0.950 . S
C3969 C3968 1.327 . S
C3969 C3973 1.429 . S
C3970 C3953 1.574 . S
C3970 H3964 0.949 . S
C3970 C3974 1.330 1_545 S
C3971 C3952 1.429 1_545 S
C3971 C3965 1.429 . S
C3971 C3972 1.526 . S
C3972 C3953 1.406 . S
C3972 C3966 1.330 1_545 S
C3972 C3971 1.526 . S
C3973 C3957 1.429 1_565 S
C3973 C3969 1.429 . S
C3973 C3974 1.526 . S
C3974 C3958 1.406 . S
C3974 C3970 1.330 1_565 S
C3974 C3973 1.526 . S
H3975 C3950 0.950 . S
H3976 C3952 0.950 . S
H3977 C3953 0.949 . S
H3978 C3955 0.950 . S
H3979 C3957 0.950 . S
C3980 C3981 1.349 . S
C3980 C3982 1.327 . S
C3980 H4005 0.950 . S
C3981 C3980 1.349 . S
C3981 C3997 1.349 . S
C3982 C3980 1.327 . S
C3982 C4001 1.429 . S
C3982 H4006 0.950 . S
C3983 C4000 1.574 . S
C3983 C4002 1.368 . S
C3983 H4007 0.949 . S
H3984 C3988 0.949 . S
C3985 C3986 1.349 . S
C3985 C3987 1.327 . S
C3985 H4008 0.950 . S
C3986 C3985 1.349 . S
C3986 C3998 1.349 . S
C3987 C3985 1.327 . S
C3987 C4003 1.429 . S
C3987 H4009 0.950 . S
C3988 H3984 0.949 . S
C3988 C3996 1.574 . S
C3988 C4004 1.368 . S
H3989 C3997 0.950 . S
H3990 C3995 0.950 . S
H3991 C3996 0.949 . S
H3992 C3998 0.950 . S
H3993 C3999 0.950 . S
H3994 C4000 0.949 . S
C3995 H3990 0.950 . S
C3995 C3997 1.327 . S
C3995 C4001 1.429 . S
C3996 C3988 1.574 . S
C3996 H3991 0.949 . S
C3996 C4002 1.368 . S
C3997 C3981 1.349 . S
C3997 H3989 0.950 . S
C3997 C3995 1.327 . S
C3998 C3986 1.349 . S
C3998 H3992 0.950 . S
C3998 C3999 1.327 . S
C3999 H3993 0.950 . S
C3999 C3998 1.327 . S
C3999 C4003 1.429 . S
C4000 C3983 1.574 . S
C4000 H3994 0.949 . S
C4000 C4004 1.368 . S
C4001 C3982 1.429 . S
C4001 C3995 1.429 . S
C4001 C4002 1.523 . S
C4002 C3983 1.368 . S
C4002 C3996 1.368 . S
C4002 C4001 1.523 . S
C4003 C3987 1.429 . S
C4003 C3999 1.429 . S
C4003 C4004 1.523 . S
C4004 C3988 1.368 . S
C4004 C4000 1.368 . S
C4004 C4003 1.523 . S
H4005 C3980 0.950 . S
H4006 C3982 0.950 . S
H4007 C3983 0.949 . S
H4008 C3985 0.950 . S
H4009 C3987 0.950 . S
C4010 C4011 1.349 1_545 S
C4010 C4012 1.327 . S
C4010 H4035 0.950 . S
C4011 C4010 1.349 1_565 S
C4011 C4027 1.349 . S
C4012 C4010 1.327 . S
C4012 C4031 1.429 1_545 S
C4012 H4036 0.950 . S
C4013 C4030 1.574 . S
C4013 C4032 1.406 . S
C4013 H4037 0.949 . S
H4014 C4018 0.949 . S
C4015 C4016 1.349 1_565 S
C4015 C4017 1.327 . S
C4015 H4038 0.950 . S
C4016 C4015 1.349 1_545 S
C4016 C4028 1.349 . S
C4017 C4015 1.327 . S
C4017 C4033 1.429 1_565 S
C4017 H4039 0.950 . S
C4018 H4014 0.949 . S
C4018 C4026 1.574 . S
C4018 C4034 1.406 . S
H4019 C4027 0.950 . S
H4020 C4025 0.950 . S
H4021 C4026 0.949 . S
H4022 C4028 0.950 . S
H4023 C4029 0.950 . S
H4024 C4030 0.949 . S
C4025 H4020 0.950 . S
C4025 C4027 1.327 . S
C4025 C4031 1.429 . S
C4026 C4018 1.574 . S
C4026 H4021 0.949 . S
C4026 C4032 1.330 1_545 S
C4027 C4011 1.349 . S
C4027 H4019 0.950 . S
C4027 C4025 1.327 . S
C4028 C4016 1.349 . S
C4028 H4022 0.950 . S
C4028 C4029 1.327 . S
C4029 H4023 0.950 . S
C4029 C4028 1.327 . S
C4029 C4033 1.429 . S
C4030 C4013 1.574 . S
C4030 H4024 0.949 . S
C4030 C4034 1.330 1_565 S
C4031 C4012 1.429 1_565 S
C4031 C4025 1.429 . S
C4031 C4032 1.526 . S
C4032 C4013 1.406 . S
C4032 C4026 1.330 1_565 S
C4032 C4031 1.526 . S
C4033 C4017 1.429 1_545 S
C4033 C4029 1.429 . S
C4033 C4034 1.526 . S
C4034 C4018 1.406 . S
C4034 C4030 1.330 1_545 S
C4034 C4033 1.526 . S
H4035 C4010 0.950 . S
H4036 C4012 0.950 . S
H4037 C4013 0.949 . S
H4038 C4015 0.950 . S
H4039 C4017 0.950 . S
C4040 C4041 1.349 . S
C4040 C4042 1.327 . S
C4040 H4065 0.950 . S
C4041 C4040 1.349 . S
C4041 C4057 1.349 . S
C4042 C4040 1.327 . S
C4042 C4061 1.429 . S
C4042 H4066 0.950 . S
C4043 C4060 1.574 . S
C4043 C4062 1.368 . S
C4043 H4067 0.949 . S
H4044 C4048 0.949 . S
C4045 C4046 1.349 . S
C4045 C4047 1.327 . S
C4045 H4068 0.950 . S
C4046 C4045 1.349 . S
C4046 C4058 1.349 . S
C4047 C4045 1.327 . S
C4047 C4063 1.429 . S
C4047 H4069 0.950 . S
C4048 H4044 0.949 . S
C4048 C4056 1.574 . S
C4048 C4064 1.368 . S
H4049 C4057 0.950 . S
H4050 C4055 0.950 . S
H4051 C4056 0.949 . S
H4052 C4058 0.950 . S
H4053 C4059 0.950 . S
H4054 C4060 0.949 . S
C4055 H4050 0.950 . S
C4055 C4057 1.327 . S
C4055 C4061 1.429 . S
C4056 C4048 1.574 . S
C4056 H4051 0.949 . S
C4056 C4062 1.368 . S
C4057 C4041 1.349 . S
C4057 H4049 0.950 . S
C4057 C4055 1.327 . S
C4058 C4046 1.349 . S
C4058 H4052 0.950 . S
C4058 C4059 1.327 . S
C4059 H4053 0.950 . S
C4059 C4058 1.327 . S
C4059 C4063 1.429 . S
C4060 C4043 1.574 . S
C4060 H4054 0.949 . S
C4060 C4064 1.368 . S
C4061 C4042 1.429 . S
C4061 C4055 1.429 . S
C4061 C4062 1.523 . S
C4062 C4043 1.368 . S
C4062 C4056 1.368 . S
C4062 C4061 1.523 . S
C4063 C4047 1.429 . S
C4063 C4059 1.429 . S
C4063 C4064 1.523 . S
C4064 C4048 1.368 . S
C4064 C4060 1.368 . S
C4064 C4063 1.523 . S
H4065 C4040 0.950 . S
H4066 C4042 0.950 . S
H4067 C4043 0.949 . S
H4068 C4045 0.950 . S
H4069 C4047 0.950 . S
C4070 C4071 1.349 . S
C4070 C4072 1.327 . S
C4070 H4095 0.950 . S
C4071 C4070 1.349 . S
C4071 C4087 1.349 . S
C4072 C4070 1.327 . S
C4072 C4091 1.429 . S
C4072 H4096 0.950 . S
C4073 C4090 1.574 . S
C4073 C4092 1.368 . S
C4073 H4097 0.949 . S
H4074 C4078 0.949 . S
C4075 C4076 1.349 . S
C4075 C4077 1.327 . S
C4075 H4098 0.950 . S
C4076 C4075 1.349 . S
C4076 C4088 1.349 . S
C4077 C4075 1.327 . S
C4077 C4093 1.429 . S
C4077 H4099 0.950 . S
C4078 H4074 0.949 . S
C4078 C4086 1.574 . S
C4078 C4094 1.368 . S
H4079 C4087 0.950 . S
H4080 C4085 0.950 . S
H4081 C4086 0.949 . S
H4082 C4088 0.950 . S
H4083 C4089 0.950 . S
H4084 C4090 0.949 . S
C4085 H4080 0.950 . S
C4085 C4087 1.327 . S
C4085 C4091 1.429 . S
C4086 C4078 1.574 . S
C4086 H4081 0.949 . S
C4086 C4092 1.368 . S
C4087 C4071 1.349 . S
C4087 H4079 0.950 . S
C4087 C4085 1.327 . S
C4088 C4076 1.349 . S
C4088 H4082 0.950 . S
C4088 C4089 1.327 . S
C4089 H4083 0.950 . S
C4089 C4088 1.327 . S
C4089 C4093 1.429 . S
C4090 C4073 1.574 . S
C4090 H4084 0.949 . S
C4090 C4094 1.368 . S
C4091 C4072 1.429 . S
C4091 C4085 1.429 . S
C4091 C4092 1.523 . S
C4092 C4073 1.368 . S
C4092 C4086 1.368 . S
C4092 C4091 1.523 . S
C4093 C4077 1.429 . S
C4093 C4089 1.429 . S
C4093 C4094 1.523 . S
C4094 C4078 1.368 . S
C4094 C4090 1.368 . S
C4094 C4093 1.523 . S
H4095 C4070 0.950 . S
H4096 C4072 0.950 . S
H4097 C4073 0.949 . S
H4098 C4075 0.950 . S
H4099 C4077 0.950 . S
C4100 C4101 1.349 . S
C4100 C4102 1.327 . S
C4100 H4125 0.950 . S
C4101 C4100 1.349 . S
C4101 C4117 1.349 . S
C4102 C4100 1.327 . S
C4102 C4121 1.429 . S
C4102 H4126 0.950 . S
C4103 C4120 1.574 . S
C4103 C4122 1.368 . S
C4103 H4127 0.949 . S
H4104 C4108 0.949 . S
C4105 C4106 1.349 . S
C4105 C4107 1.327 . S
C4105 H4128 0.950 . S
C4106 C4105 1.349 . S
C4106 C4118 1.349 . S
C4107 C4105 1.327 . S
C4107 C4123 1.429 . S
C4107 H4129 0.950 . S
C4108 H4104 0.949 . S
C4108 C4116 1.574 . S
C4108 C4124 1.368 . S
H4109 C4117 0.950 . S
H4110 C4115 0.950 . S
H4111 C4116 0.949 . S
H4112 C4118 0.950 . S
H4113 C4119 0.950 . S
H4114 C4120 0.949 . S
C4115 H4110 0.950 . S
C4115 C4117 1.327 . S
C4115 C4121 1.429 . S
C4116 C4108 1.574 . S
C4116 H4111 0.949 . S
C4116 C4122 1.368 . S
C4117 C4101 1.349 . S
C4117 H4109 0.950 . S
C4117 C4115 1.327 . S
C4118 C4106 1.349 . S
C4118 H4112 0.950 . S
C4118 C4119 1.327 . S
C4119 H4113 0.950 . S
C4119 C4118 1.327 . S
C4119 C4123 1.429 . S
C4120 C4103 1.574 . S
C4120 H4114 0.949 . S
C4120 C4124 1.368 . S
C4121 C4102 1.429 . S
C4121 C4115 1.429 . S
C4121 C4122 1.523 . S
C4122 C4103 1.368 . S
C4122 C4116 1.368 . S
C4122 C4121 1.523 . S
C4123 C4107 1.429 . S
C4123 C4119 1.429 . S
C4123 C4124 1.523 . S
C4124 C4108 1.368 . S
C4124 C4120 1.368 . S
C4124 C4123 1.523 . S
H4125 C4100 0.950 . S
H4126 C4102 0.950 . S
H4127 C4103 0.949 . S
H4128 C4105 0.950 . S
H4129 C4107 0.950 . S
C4130 C4131 1.349 1_545 S
C4130 C4132 1.327 . S
C4130 H4155 0.950 . S
C4131 C4130 1.349 1_565 S
C4131 C4147 1.349 . S
C4132 C4130 1.327 . S
C4132 C4151 1.429 1_545 S
C4132 H4156 0.950 . S
C4133 C4150 1.574 1_554 S
C4133 C4152 1.407 . S
C4133 H4157 0.949 . S
H4134 C4138 0.949 . S
C4135 C4136 1.349 1_565 S
C4135 C4137 1.327 . S
C4135 H4158 0.950 . S
C4136 C4135 1.349 1_545 S
C4136 C4148 1.349 . S
C4137 C4135 1.327 . S
C4137 C4153 1.429 1_565 S
C4137 H4159 0.950 . S
C4138 H4134 0.949 . S
C4138 C4146 1.574 1_556 S
C4138 C4154 1.407 . S
H4139 C4147 0.950 . S
H4140 C4145 0.950 . S
H4141 C4146 0.949 . S
H4142 C4148 0.950 . S
H4143 C4149 0.950 . S
H4144 C4150 0.949 . S
C4145 H4140 0.950 . S
C4145 C4147 1.327 . S
C4145 C4151 1.429 . S
C4146 C4138 1.574 1_554 S
C4146 H4141 0.949 . S
C4146 C4152 1.329 1_545 S
C4147 C4131 1.349 . S
C4147 H4139 0.950 . S
C4147 C4145 1.327 . S
C4148 C4136 1.349 . S
C4148 H4142 0.950 . S
C4148 C4149 1.327 . S
C4149 H4143 0.950 . S
C4149 C4148 1.327 . S
C4149 C4153 1.429 . S
C4150 C4133 1.574 1_556 S
C4150 H4144 0.949 . S
C4150 C4154 1.329 1_565 S
C4151 C4132 1.429 1_565 S
C4151 C4145 1.429 . S
C4151 C4152 1.526 . S
C4152 C4133 1.407 . S
C4152 C4146 1.329 1_565 S
C4152 C4151 1.526 . S
C4153 C4137 1.429 1_545 S
C4153 C4149 1.429 . S
C4153 C4154 1.526 . S
C4154 C4138 1.407 . S
C4154 C4150 1.329 1_545 S
C4154 C4153 1.526 . S
H4155 C4130 0.950 . S
H4156 C4132 0.950 . S
H4157 C4133 0.949 . S
H4158 C4135 0.950 . S
H4159 C4137 0.950 . S
C1281 C19 1.512 . S
C1286 C1019 1.512 . S
C1311 C979 1.512 . S
C1316 C59 1.512 . S
C1341 C1099 1.512 . S
C1346 C99 1.512 . S
C1371 C139 1.512 . S
C1376 C1059 1.512 . S
C1401 C169 1.512 . S
C1406 C1169 1.512 . S
C1431 C209 1.512 . S
C1436 C1129 1.512 . S
C1461 C249 1.512 . S
C1466 C1249 1.512 . S
C1491 C1209 1.512 . S
C1496 C289 1.512 . S
C1521 C339 1.512 . S
C1526 C699 1.512 . S
C1551 C379 1.512 . S
C1556 C659 1.512 . S
C1581 C419 1.512 . S
C1586 C779 1.512 . S
C1611 C739 1.512 . S
C1616 C459 1.512 . S
C1641 C489 1.512 . S
C1646 C849 1.512 . S
C1671 C529 1.512 . S
C1676 C809 1.512 . S
C1701 C929 1.512 . S
C1706 C569 1.512 . S
C1731 C609 1.512 . S
C1736 C889 1.512 . S
C1761 C18 1.558 . S
C1766 C138 1.558 . S
C1791 C58 1.558 . S
C1796 C98 1.558 . S
C1821 C288 1.558 . S
C1826 C168 1.558 . S
C1851 C248 1.558 . S
C1856 C208 1.558 . S
C1881 C338 1.558 . S
C1886 C458 1.558 . S
C1911 C378 1.558 . S
C1916 C418 1.558 . S
C1941 C488 1.558 . S
C1946 C608 1.558 . S
C1971 C568 1.558 . S
C1976 C528 1.558 . S
C2001 C658 1.558 . S
C2006 C778 1.558 . S
C2031 C698 1.558 . S
C2036 C738 1.558 . S
C2061 C928 1.558 . S
C2066 C808 1.558 . S
C2091 C848 1.558 . S
C2096 C888 1.558 . S
C2121 C1098 1.558 . S
C2126 C978 1.558 . S
C2151 C1018 1.558 . S
C2156 C1058 1.558 . S
C2181 C1248 1.558 . S
C2186 C1128 1.558 . S
C2211 C1208 1.558 . S
C2216 C1168 1.558 . S
C2241 C49 1.639 . S
C2246 C9 1.639 . S
C2271 C89 1.639 . S
C2276 C129 1.639 . S
C2301 C219 1.639 . S
C2306 C179 1.639 . S
C2331 C299 1.639 . S
C2336 C259 1.639 . S
C2361 C329 1.639 . S
C2366 C369 1.639 . S
C2391 C409 1.639 . S
C2396 C449 1.639 . S
C2421 C539 1.639 . S
C2426 C499 1.639 . S
C2451 C579 1.639 . S
C2456 C619 1.639 . S
C2481 C649 1.639 . S
C2486 C689 1.639 . S
C2511 C769 1.639 . S
C2516 C729 1.639 . S
C2541 C819 1.639 . S
C2546 C859 1.639 . S
C2571 C899 1.639 . S
C2576 C939 1.639 . S
C2601 C969 1.639 . S
C2606 C1009 1.639 . S
C2631 C1049 1.639 . S
C2636 C1089 1.639 . S
C2661 C1179 1.639 . S
C2666 C1139 1.639 . S
C2691 C1219 1.639 . S
C2696 C1259 1.639 . S
C2721 C15 1.680 . S
C2726 C5 1.680 . S
C2751 C55 1.680 . S
C2756 C45 1.680 . S
C2781 C95 1.680 . S
C2786 C85 1.680 . S
C2811 C125 1.680 . S
C2816 C135 1.680 . S
C2841 C175 1.680 . S
C2846 C165 1.680 . S
C2871 C205 1.680 . S
C2876 C215 1.680 . S
C2901 C255 1.680 . S
C2906 C245 1.680 . S
C2931 C295 1.680 . S
C2936 C285 1.680 . S
C2961 C325 1.680 . S
C2966 C335 1.680 . S
C2991 C375 1.680 . S
C2996 C365 1.680 . S
C3021 C415 1.680 . S
C3026 C405 1.680 . S
C3051 C445 1.680 . S
C3056 C455 1.680 . S
C3081 C495 1.680 . S
C3086 C485 1.680 . S
C3111 C525 1.680 . S
C3116 C535 1.680 . S
C3141 C565 1.680 . S
C3146 C575 1.680 . S
C3171 C615 1.680 . S
C3176 C605 1.680 . S
C3201 C655 1.680 . S
C3206 C645 1.680 . S
C3231 C685 1.680 . S
C3236 C695 1.680 1_455 S
C3261 C725 1.680 . S
C3266 C735 1.680 . S
C3291 C775 1.680 1_455 S
C3296 C765 1.680 . S
C3321 C805 1.680 . S
C3326 C815 1.680 . S
C3351 C845 1.680 1_655 S
C3356 C855 1.680 . S
C3381 C895 1.680 . S
C3386 C885 1.680 . S
C3411 C925 1.680 1_655 S
C3416 C935 1.680 . S
C3441 C965 1.680 . S
C3446 C975 1.680 . S
C3471 C1015 1.680 1_455 S
C3476 C1005 1.680 . S
C3501 C1045 1.680 . S
C3506 C1055 1.680 . S
C3531 C1085 1.680 . S
C3536 C1095 1.680 1_455 S
C3561 C1125 1.680 . S
C3566 C1135 1.680 . S
C3591 C1165 1.680 1_655 S
C3596 C1175 1.680 . S
C3621 C1215 1.680 . S
C3626 C1205 1.680 . S
C3651 C1255 1.680 . S
C3656 C1245 1.680 1_655 S
C3681 C8 1.476 . S
C3686 C178 1.476 . S
C3711 C1178 1.476 . S
C3716 C48 1.476 . S
C3741 C578 1.476 . S
C3746 C88 1.476 . S
C3771 C128 1.476 . S
C3776 C938 1.476 . S
C3801 C218 1.476 . S
C3806 C1008 1.476 . S
C3831 C258 1.476 . S
C3836 C408 1.476 . S
C3861 C298 1.476 . S
C3866 C768 1.476 . S
C3891 C328 1.476 . S
C3896 C498 1.476 . S
C3921 C858 1.476 . S
C3926 C368 1.476 . S
C3951 C1258 1.476 . S
C3956 C448 1.476 . S
C3981 C538 1.476 . S
C3986 C688 1.476 . S
C4011 C1088 1.476 . S
C4016 C618 1.476 . S
C4041 C648 1.476 . S
C4046 C818 1.476 . S
C4071 C1218 1.476 . S
C4076 C728 1.476 . S
C4101 C898 1.476 . S
C4106 C1048 1.476 . S
C4131 C968 1.476 . S
C4136 C1138 1.476 . S
