# Generated by pormake.
# Topology uob, (4)-cn, num edge types: 1
# Building blocks:
#     Node 0, Type 0, BuildingBlock: NAWXER_clean_sbu_0, # of connection points: 4
#     Node 1, Type 0, BuildingBlock: NAWXER_clean_sbu_0, # of connection points: 4
#     Node 2, Type 0, BuildingBlock: NAWXER_clean_sbu_0, # of connection points: 4
#     Node 3, Type 0, BuildingBlock: NAWXER_clean_sbu_0, # of connection points: 4
#     Node 4, Type 0, BuildingBlock: NAWXER_clean_sbu_0, # of connection points: 4
#     Node 5, Type 0, BuildingBlock: NAWXER_clean_sbu_0, # of connection points: 4
#     Node 6, Type 0, BuildingBlock: NAWXER_clean_sbu_0, # of connection points: 4
#     Node 7, Type 0, BuildingBlock: NAWXER_clean_sbu_0, # of connection points: 4
#     Node 8, Type 0, BuildingBlock: NAWXER_clean_sbu_0, # of connection points: 4
#     Node 9, Type 0, BuildingBlock: NAWXER_clean_sbu_0, # of connection points: 4
#     Node 10, Type 0, BuildingBlock: NAWXER_clean_sbu_0, # of connection points: 4
#     Node 11, Type 0, BuildingBlock: NAWXER_clean_sbu_0, # of connection points: 4
#     Node 12, Type 0, BuildingBlock: NAWXER_clean_sbu_0, # of connection points: 4
#     Node 13, Type 0, BuildingBlock: NAWXER_clean_sbu_0, # of connection points: 4
#     Node 14, Type 0, BuildingBlock: NAWXER_clean_sbu_0, # of connection points: 4
#     Node 15, Type 0, BuildingBlock: NAWXER_clean_sbu_0, # of connection points: 4
#     Edge 16, Type (0, 0), BuildingBlock: XUDNAN_clean_linker_2, # of connection points: 2
#     Edge 17, Type (0, 0), BuildingBlock: XUDNAN_clean_linker_2, # of connection points: 2
#     Edge 18, Type (0, 0), BuildingBlock: XUDNAN_clean_linker_2, # of connection points: 2
#     Edge 19, Type (0, 0), BuildingBlock: XUDNAN_clean_linker_2, # of connection points: 2
#     Edge 20, Type (0, 0), BuildingBlock: XUDNAN_clean_linker_2, # of connection points: 2
#     Edge 21, Type (0, 0), BuildingBlock: XUDNAN_clean_linker_2, # of connection points: 2
#     Edge 22, Type (0, 0), BuildingBlock: XUDNAN_clean_linker_2, # of connection points: 2
#     Edge 23, Type (0, 0), BuildingBlock: XUDNAN_clean_linker_2, # of connection points: 2
#     Edge 24, Type (0, 0), BuildingBlock: XUDNAN_clean_linker_2, # of connection points: 2
#     Edge 25, Type (0, 0), BuildingBlock: XUDNAN_clean_linker_2, # of connection points: 2
#     Edge 26, Type (0, 0), BuildingBlock: XUDNAN_clean_linker_2, # of connection points: 2
#     Edge 27, Type (0, 0), BuildingBlock: XUDNAN_clean_linker_2, # of connection points: 2
#     Edge 28, Type (0, 0), BuildingBlock: XUDNAN_clean_linker_2, # of connection points: 2
#     Edge 29, Type (0, 0), BuildingBlock: XUDNAN_clean_linker_2, # of connection points: 2
#     Edge 30, Type (0, 0), BuildingBlock: XUDNAN_clean_linker_2, # of connection points: 2
#     Edge 31, Type (0, 0), BuildingBlock: XUDNAN_clean_linker_2, # of connection points: 2
#     Edge 32, Type (0, 0), BuildingBlock: XUDNAN_clean_linker_2, # of connection points: 2
#     Edge 33, Type (0, 0), BuildingBlock: XUDNAN_clean_linker_2, # of connection points: 2
#     Edge 34, Type (0, 0), BuildingBlock: XUDNAN_clean_linker_2, # of connection points: 2
#     Edge 35, Type (0, 0), BuildingBlock: XUDNAN_clean_linker_2, # of connection points: 2
#     Edge 36, Type (0, 0), BuildingBlock: XUDNAN_clean_linker_2, # of connection points: 2
#     Edge 37, Type (0, 0), BuildingBlock: XUDNAN_clean_linker_2, # of connection points: 2
#     Edge 38, Type (0, 0), BuildingBlock: XUDNAN_clean_linker_2, # of connection points: 2
#     Edge 39, Type (0, 0), BuildingBlock: XUDNAN_clean_linker_2, # of connection points: 2
#     Edge 40, Type (0, 0), BuildingBlock: XUDNAN_clean_linker_2, # of connection points: 2
#     Edge 41, Type (0, 0), BuildingBlock: XUDNAN_clean_linker_2, # of connection points: 2
#     Edge 42, Type (0, 0), BuildingBlock: XUDNAN_clean_linker_2, # of connection points: 2
#     Edge 43, Type (0, 0), BuildingBlock: XUDNAN_clean_linker_2, # of connection points: 2
#     Edge 44, Type (0, 0), BuildingBlock: XUDNAN_clean_linker_2, # of connection points: 2
#     Edge 45, Type (0, 0), BuildingBlock: XUDNAN_clean_linker_2, # of connection points: 2
#     Edge 46, Type (0, 0), BuildingBlock: XUDNAN_clean_linker_2, # of connection points: 2
#     Edge 47, Type (0, 0), BuildingBlock: XUDNAN_clean_linker_2, # of connection points: 2
# Relax obj value: 0.120
# Max RMSD: 0.245
# Mean RMSD: 0.245
data_MOF--net-uob--node1-NAWXER_clean_sbu_0--edge1-XUDNAN_clean_linker_2
_symmetry_space_group_name_H-M    P1
_symmetry_Int_Tables_number       1
_symmetry_cell_setting            triclinic
loop_
_symmetry_equiv_pos_as_xyz
'x, y, z'
_cell_length_a     51.776723
_cell_length_b     51.714874
_cell_length_c     28.404231
_cell_angle_alpha  89.927516
_cell_angle_beta   89.973895
_cell_angle_gamma 90.014305
loop_
_atom_site_label
_atom_site_type_symbol
_atom_site_fract_x
_atom_site_fract_y
_atom_site_fract_z
_atom_type_partial_charge
C0 C 0.11674 0.08556 0.36295 0.0
C1 C 0.13831 0.10407 0.19927 0.0
O2 O 0.12711 0.0664 0.34155 0.0
Zn3 Zn 0.14204 0.0569 0.27342 0.0
O4 O 0.11272 0.10656 0.34075 0.0
Zn5 Zn 0.12761 0.09526 0.28161 0.0
O6 O 0.09984 0.06751 0.25877 0.0
O7 O 0.11834 0.02914 0.2549 0.0
O8 O 0.12801 0.11899 0.22933 0.0
O9 O 0.14484 0.081 0.21119 0.0
O10 O 0.1777 0.04901 0.2907 0.0
O11 O 0.1674 0.08991 0.30209 0.0
C12 C 0.09838 0.04324 0.25028 0.0
C13 C 0.18391 0.07145 0.30514 0.0
C14 C 0.92536 0.61566 0.60321 0.0
C15 C 0.92204 0.64418 0.44104 0.0
O16 O 0.94615 0.62762 0.59148 0.0
Zn17 Zn 0.96124 0.64617 0.52828 0.0
O18 O 0.90724 0.61287 0.57351 0.0
Zn19 Zn 0.92414 0.63075 0.52363 0.0
O20 O 0.95488 0.60338 0.50922 0.0
O21 O 0.99122 0.62528 0.51493 0.0
O22 O 0.90525 0.63268 0.4658 0.0
O23 O 0.9436 0.65076 0.45983 0.0
O24 O 0.96722 0.68081 0.55082 0.0
O25 O 0.92607 0.67 0.55224 0.0
C26 C 0.97963 0.60404 0.5074 0.0
C27 C 0.94405 0.68643 0.56129 0.0
C28 C 0.40368 0.43242 0.87758 0.0
C29 C 0.38846 0.40754 0.71545 0.0
O30 O 0.39505 0.45124 0.85275 0.0
Zn31 Zn 0.38317 0.4582 0.78136 0.0
O32 O 0.40727 0.41043 0.85875 0.0
Zn33 Zn 0.39503 0.41981 0.79735 0.0
O34 O 0.42516 0.44501 0.77421 0.0
O35 O 0.40912 0.48396 0.7622 0.0
O36 O 0.395 0.39361 0.75026 0.0
O37 O 0.38315 0.43157 0.72206 0.0
O38 O 0.34688 0.46797 0.79255 0.0
O39 O 0.35522 0.42751 0.81149 0.0
C40 C 0.42841 0.46869 0.76233 0.0
C41 C 0.3393 0.44645 0.80942 0.0
C42 C 0.60468 0.91297 0.1149 0.0
C43 C 0.60455 0.88399 0.95289 0.0
O44 O 0.58274 0.90327 0.1034 0.0
Zn45 Zn 0.56529 0.88637 0.04103 0.0
O46 O 0.62294 0.91376 0.08506 0.0
Zn47 Zn 0.60438 0.89723 0.03534 0.0
O48 O 0.57721 0.92711 0.01851 0.0
O49 O 0.53795 0.91163 0.02858 0.0
O50 O 0.62283 0.89274 0.97785 0.0
O51 O 0.58227 0.88019 0.97169 0.0
O52 O 0.55609 0.85208 0.06484 0.0
O53 O 0.59804 0.85912 0.06448 0.0
C54 C 0.55269 0.93041 0.01776 0.0
C55 C 0.5788 0.84446 0.07468 0.0
C56 C 0.18259 0.45006 0.00763 0.0
C57 C 0.09693 0.47601 0.06621 0.0
O58 O 0.16798 0.43087 0.01835 0.0
Zn59 Zn 0.1302 0.42448 0.04828 0.0
O60 O 0.17519 0.47284 0.01769 0.0
Zn61 Zn 0.14103 0.46372 0.04249 0.0
O62 O 0.14766 0.44655 0.11147 0.0
O63 O 0.13507 0.40592 0.10533 0.0
O64 O 0.11553 0.49093 0.0552 0.0
O65 O 0.10041 0.4515 0.06547 0.0
O66 O 0.11352 0.40592 0.99889 0.0
O67 O 0.12402 0.4462 0.98058 0.0
C68 C 0.14399 0.42418 0.13014 0.0
C69 C 0.11434 0.42424 0.96913 0.0
C70 C 0.59295 0.61953 0.19356 0.0
C71 C 0.61812 0.63349 0.35586 0.0
O72 O 0.5743 0.62836 0.21849 0.0
Zn73 Zn 0.56756 0.63993 0.29008 0.0
O74 O 0.61485 0.61548 0.21237 0.0
Zn75 Zn 0.60571 0.62752 0.27395 0.0
O76 O 0.58007 0.59764 0.29665 0.0
O77 O 0.54143 0.61425 0.3089 0.0
O78 O 0.63191 0.62681 0.32101 0.0
O79 O 0.59421 0.63925 0.34931 0.0
O80 O 0.55843 0.67649 0.27976 0.0
O81 O 0.59873 0.66763 0.2608 0.0
C82 C 0.55638 0.5947 0.3085 0.0
C83 C 0.58008 0.68387 0.26326 0.0
C84 C 0.40706 0.09869 0.47081 0.0
C85 C 0.37684 0.09743 0.63195 0.0
O86 O 0.39748 0.07658 0.48175 0.0
Zn87 Zn 0.38022 0.05861 0.54321 0.0
O88 O 0.40747 0.11679 0.50095 0.0
Zn89 Zn 0.39061 0.09783 0.5499 0.0
O90 O 0.42038 0.07067 0.56765 0.0
O91 O 0.40549 0.03129 0.55562 0.0
O92 O 0.38541 0.11601 0.60738 0.0
O93 O 0.37347 0.07516 0.61276 0.0
O94 O 0.34631 0.04934 0.51838 0.0
O95 O 0.35288 0.09141 0.5197 0.0
C96 C 0.42387 0.04614 0.5679 0.0
C97 C 0.33854 0.07206 0.50876 0.0
C98 C 0.92465 0.91455 0.71329 0.0
C99 C 0.91903 0.88684 0.87618 0.0
O100 O 0.94519 0.90242 0.72588 0.0
Zn101 Zn 0.95935 0.88419 0.79044 0.0
O102 O 0.90637 0.91783 0.7425 0.0
Zn103 Zn 0.92247 0.89999 0.79333 0.0
O104 O 0.9533 0.92712 0.80873 0.0
O105 O 0.9894 0.90474 0.80492 0.0
O106 O 0.90279 0.89853 0.85056 0.0
O107 O 0.94074 0.87989 0.85835 0.0
O108 O 0.96549 0.84948 0.76887 0.0
O109 O 0.92445 0.86053 0.7652 0.0
C110 C 0.978 0.92613 0.81178 0.0
C111 C 0.94247 0.84395 0.75725 0.0
C112 C 0.68295 0.58251 0.81323 0.0
C113 C 0.60115 0.54642 0.75753 0.0
O114 O 0.66635 0.60031 0.80406 0.0
Zn115 Zn 0.62726 0.60202 0.77521 0.0
O116 O 0.67774 0.55927 0.80239 0.0
Zn117 Zn 0.64312 0.56498 0.77926 0.0
O118 O 0.64771 0.58332 0.71128 0.0
O119 O 0.62904 0.6214 0.71803 0.0
O120 O 0.62241 0.53487 0.76507 0.0
O121 O 0.60037 0.57116 0.75987 0.0
O122 O 0.60914 0.61835 0.82526 0.0
O123 O 0.62444 0.5795 0.84259 0.0
C124 C 0.64085 0.60497 0.693 0.0
C125 C 0.61225 0.60008 0.85464 0.0
C126 C 0.4278 0.11943 0.13196 0.0
C127 C 0.40046 0.1279 0.96926 0.0
O128 O 0.44494 0.13093 0.10682 0.0
Zn129 Zn 0.44913 0.14295 0.03387 0.0
O130 O 0.40685 0.11189 0.11315 0.0
Zn131 Zn 0.4143 0.12494 0.05169 0.0
O132 O 0.44503 0.09881 0.03141 0.0
O133 O 0.47886 0.123 0.01467 0.0
O134 O 0.38824 0.11957 0.00483 0.0
O135 O 0.42312 0.13754 0.97495 0.0
O136 O 0.45347 0.17993 0.04223 0.0
O137 O 0.41542 0.16615 0.06623 0.0
C138 C 0.46869 0.10072 0.01835 0.0
C139 C 0.43193 0.18455 0.06194 0.0
C140 C 0.92443 0.97084 0.25717 0.0
C141 C 0.8374 0.95101 0.31024 0.0
O142 O 0.92296 0.94729 0.27152 0.0
Zn143 Zn 0.89179 0.92158 0.29538 0.0
O144 O 0.90403 0.9844 0.25488 0.0
Zn145 Zn 0.88055 0.95862 0.27684 0.0
O146 O 0.89369 0.95317 0.34924 0.0
O147 O 0.9053 0.91217 0.3558 0.0
O148 O 0.84577 0.96985 0.28603 0.0
O149 O 0.85193 0.93108 0.31581 0.0
O150 O 0.89092 0.89456 0.24831 0.0
O151 O 0.88051 0.93231 0.21839 0.0
C152 C 0.90246 0.93439 0.37422 0.0
C153 C 0.88529 0.9082 0.21267 0.0
C154 C 0.05861 0.4316 0.51537 0.0
C155 C 0.0828 0.34215 0.5579 0.0
O156 O 0.08228 0.42865 0.52726 0.0
Zn157 Zn 0.10803 0.39878 0.54916 0.0
O158 O 0.04372 0.412 0.51448 0.0
Zn159 Zn 0.07002 0.38624 0.53246 0.0
O160 O 0.07659 0.39683 0.60458 0.0
O161 O 0.11697 0.4102 0.61114 0.0
O162 O 0.06111 0.34951 0.54159 0.0
O163 O 0.10135 0.35847 0.56081 0.0
O164 O 0.13434 0.40037 0.50241 0.0
O165 O 0.09682 0.38792 0.47328 0.0
C166 C 0.09517 0.40551 0.62984 0.0
C167 C 0.12068 0.39408 0.46716 0.0
C168 C 0.68643 0.95144 0.52355 0.0
C169 C 0.5985 0.97311 0.56868 0.0
O170 O 0.6716 0.93188 0.51649 0.0
Zn171 Zn 0.63098 0.92324 0.53341 0.0
O172 O 0.67785 0.97036 0.54721 0.0
Zn173 Zn 0.64265 0.95988 0.55304 0.0
O174 O 0.64088 0.93325 0.61117 0.0
O175 O 0.62995 0.896 0.57995 0.0
O176 O 0.61914 0.98614 0.57298 0.0
O177 O 0.59981 0.94956 0.55442 0.0
O178 O 0.61889 0.91415 0.4722 0.0
O179 O 0.63164 0.95481 0.47928 0.0
C180 C 0.63533 0.90924 0.61613 0.0
C181 C 0.62302 0.93619 0.45379 0.0
C182 C 0.08581 0.18279 0.74979 0.0
C183 C 0.06078 0.09673 0.80913 0.0
O184 O 0.10484 0.16712 0.75405 0.0
Zn185 Zn 0.11174 0.12891 0.78012 0.0
O186 O 0.06386 0.17613 0.76583 0.0
Zn187 Zn 0.07307 0.1407 0.78553 0.0
O188 O 0.0952 0.1434 0.85141 0.0
O189 O 0.1348 0.13248 0.83149 0.0
O190 O 0.04587 0.11599 0.80268 0.0
O191 O 0.08513 0.09947 0.80264 0.0
O192 O 0.12571 0.11235 0.7261 0.0
O193 O 0.08481 0.12405 0.71823 0.0
C194 C 0.11891 0.13934 0.86298 0.0
C195 C 0.10541 0.11386 0.70123 0.0
C196 C 0.92449 0.55465 0.05701 0.0
C197 C 0.84019 0.58873 0.0087 0.0
O198 O 0.92573 0.57835 0.04381 0.0
Zn199 Zn 0.899 0.60811 0.02167 0.0
O200 O 0.90258 0.5436 0.05942 0.0
Zn201 Zn 0.88184 0.57254 0.03855 0.0
O202 O 0.89502 0.57707 0.96658 0.0
O203 O 0.91265 0.61588 0.96075 0.0
O204 O 0.84513 0.56711 0.028 0.0
O205 O 0.85818 0.60573 0.00549 0.0
O206 O 0.90255 0.6344 0.06866 0.0
O207 O 0.88514 0.59888 0.09731 0.0
C208 C 0.90628 0.59454 0.94185 0.0
C209 C 0.89381 0.62189 0.1036 0.0
C210 C 0.42236 0.41251 0.21656 0.0
C211 C 0.41681 0.38415 0.37836 0.0
O212 O 0.44271 0.40001 0.22882 0.0
Zn213 Zn 0.45681 0.38114 0.29233 0.0
O214 O 0.40411 0.41592 0.24578 0.0
Zn215 Zn 0.42006 0.39756 0.29602 0.0
O216 O 0.45128 0.42407 0.31136 0.0
O217 O 0.48718 0.40143 0.30654 0.0
O218 O 0.40061 0.39616 0.35316 0.0
O219 O 0.43835 0.37691 0.36024 0.0
O220 O 0.46203 0.3464 0.26932 0.0
O221 O 0.4212 0.35837 0.26723 0.0
C222 C 0.47598 0.4229 0.31384 0.0
C223 C 0.43878 0.34151 0.25823 0.0
H224 H 0.30652 0.03582 0.46647 0.0
H225 H 0.31659 0.11847 0.48652 0.0
H226 H 0.27972 0.12684 0.43405 0.0
H227 H 0.28939 0.03878 0.34423 0.0
H228 H 0.26545 0.01352 0.34741 0.0
H229 H 0.29234 0.01349 0.38764 0.0
H230 H 0.26091 0.01253 0.45858 0.0
H231 H 0.23393 1.01217 0.41856 0.0
H232 H 0.23609 0.03684 0.46315 0.0
H233 H 0.2426 0.12675 0.37834 0.0
H234 H 0.20515 0.11809 0.32737 0.0
H235 H 0.21817 0.03552 0.34212 0.0
C236 C 0.30077 0.05567 0.4603 0.0
C237 C 0.31455 0.07648 0.48092 0.0
C238 C 0.30645 0.10215 0.47142 0.0
C239 C 0.28553 0.10715 0.44142 0.0
C240 C 0.27275 0.0863 0.42099 0.0
C241 C 0.27982 0.06105 0.43028 0.0
C242 C 0.26257 0.04227 0.40367 0.0
C243 C 0.27839 0.02606 0.36866 0.0
C244 C 0.24748 0.02493 0.43804 0.0
C245 C 0.24474 0.06095 0.37811 0.0
C246 C 0.25113 0.08625 0.38854 0.0
C247 C 0.23739 0.10702 0.36993 0.0
C248 C 0.21615 0.10187 0.34083 0.0
C249 C 0.20867 0.07613 0.3304 0.0
C250 C 0.22353 0.05542 0.34882 0.0
H251 H 0.97748 0.80972 0.7198 0.0
H252 H 0.89516 0.82375 0.73295 0.0
H253 H 0.8864 0.78539 0.68346 0.0
H254 H 0.97625 0.79054 0.59941 0.0
H255 H 1.00092 0.76621 0.60595 0.0
H256 H 1.00067 0.79394 0.64422 0.0
H257 H 0.99957 0.76391 0.7173 0.0
H258 H 1.00011 0.73608 0.67927 0.0
H259 H 0.97465 0.73968 0.72207 0.0
H260 H 0.88685 0.74527 0.63132 0.0
H261 H 0.89642 0.70691 0.58235 0.0
H262 H 0.97849 0.72036 0.60144 0.0
C263 C 0.95757 0.80459 0.71286 0.0
C264 C 0.93699 0.81973 0.73072 0.0
C265 C 0.91126 0.81244 0.72001 0.0
C266 C 0.9061 0.79069 0.69179 0.0
C267 C 0.92686 0.77645 0.67422 0.0
C268 C 0.95209 0.78312 0.68446 0.0
C269 C 0.97099 0.76503 0.66044 0.0
C270 C 0.98822 0.77982 0.62543 0.0
C271 C 0.98728 0.7503 0.69695 0.0
C272 C 0.95251 0.74709 0.63508 0.0
C273 C 0.92713 0.75392 0.64352 0.0
C274 C 0.90667 0.73984 0.62442 0.0
C275 C 0.9123 0.71809 0.59651 0.0
C276 C 0.9382 0.71064 0.5876 0.0
C277 C 0.95847 0.72561 0.60699 0.0
H278 H 0.30682 0.48399 0.84694 0.0
H279 H 0.31392 0.40129 0.82422 0.0
H280 H 0.27507 0.39385 0.87219 0.0
H281 H 0.28729 0.4803 0.9659 0.0
H282 H 0.26425 0.50639 0.96345 0.0
H283 H 0.29141 0.50609 0.92381 0.0
H284 H 0.2606 0.50905 0.85223 0.0
H285 H 0.23335 0.50981 0.8917 0.0
H286 H 0.23497 0.4857 0.84601 0.0
H287 H 0.23808 0.39448 0.9272 0.0
H288 H 0.20184 0.40337 0.98056 0.0
H289 H 0.21692 0.48581 0.96894 0.0
C290 C 0.29976 0.46441 0.85105 0.0
C291 C 0.31343 0.44321 0.83148 0.0
C292 C 0.30384 0.41784 0.83866 0.0
C293 C 0.28178 0.41338 0.86601 0.0
C294 C 0.2693 0.43449 0.88612 0.0
C295 C 0.27761 0.45955 0.87859 0.0
C296 C 0.2608 0.47855 0.90577 0.0
C297 C 0.27691 0.49372 0.94187 0.0
C298 C 0.24659 0.49686 0.8719 0.0
C299 C 0.24208 0.46016 0.93008 0.0
C300 C 0.24751 0.43485 0.91813 0.0
C301 C 0.23347 0.41423 0.9365 0.0
C302 C 0.21293 0.41953 0.9671 0.0
C303 C 0.20636 0.44531 0.97922 0.0
C304 C 0.22141 0.46588 0.96065 0.0
H305 H 0.54276 0.80992 0.11132 0.0
H306 H 0.62526 0.82423 0.10083 0.0
H307 H 0.63368 0.78666 0.15162 0.0
H308 H 0.54258 0.78945 0.23273 0.0
H309 H 0.5188 0.76438 0.22466 0.0
H310 H 0.51864 0.79244 0.18696 0.0
H311 H 0.52162 0.7631 0.11334 0.0
H312 H 0.52141 0.73497 0.15078 0.0
H313 H 0.5473 0.73967 0.1092 0.0
H314 H 0.63377 0.74826 0.20383 0.0
H315 H 0.62568 0.70859 0.24938 0.0
H316 H 0.5432 0.71766 0.22746 0.0
C317 C 0.5626 0.805 0.11936 0.0
C318 C 0.58334 0.82018 0.10183 0.0
C319 C 0.60899 0.81305 0.11354 0.0
C320 C 0.61402 0.79174 0.14264 0.0
C321 C 0.59323 0.77755 0.15996 0.0
C322 C 0.56803 0.78361 0.14848 0.0
C323 C 0.54939 0.76462 0.17146 0.0
C324 C 0.53128 0.77856 0.206 0.0
C325 C 0.53403 0.74971 0.13396 0.0
C326 C 0.56812 0.74697 0.1974 0.0
C327 C 0.59328 0.75502 0.19039 0.0
C328 C 0.61415 0.74176 0.20961 0.0
C329 C 0.60933 0.71924 0.23559 0.0
C330 C 0.58381 0.71 0.24234 0.0
C331 C 0.56288 0.72442 0.22366 0.0
H332 H 0.71592 0.54871 0.85807 0.0
H333 H 0.70351 0.63039 0.83108 0.0
H334 H 0.74118 0.64097 0.88089 0.0
H335 H 0.73402 0.5557 0.97937 0.0
H336 H 0.75802 0.53048 0.97773 0.0
H337 H 0.73059 0.52914 0.93881 0.0
H338 H 0.76108 0.52614 0.86667 0.0
H339 H 0.78859 0.52711 0.9054 0.0
H340 H 0.7857 0.55039 0.85842 0.0
H341 H 0.78071 0.64261 0.93308 0.0
H342 H 0.81938 0.63515 0.9822 0.0
H343 H 0.80498 0.55252 0.97818 0.0
C344 C 0.72127 0.56882 0.86215 0.0
C345 C 0.7068 0.58872 0.84022 0.0
C346 C 0.7143 0.61479 0.84723 0.0
C347 C 0.73565 0.621 0.87562 0.0
C348 C 0.74923 0.60095 0.89722 0.0
C349 C 0.74236 0.57538 0.8908 0.0
C350 C 0.76001 0.55751 0.91845 0.0
C351 C 0.74474 0.54231 0.9558 0.0
C352 C 0.77472 0.53921 0.88525 0.0
C353 C 0.77803 0.57698 0.94112 0.0
C354 C 0.77149 0.60194 0.92839 0.0
C355 C 0.78588 0.62315 0.94351 0.0
C356 C 0.8078 0.61872 0.97154 0.0
C357 C 0.81509 0.59329 0.98461 0.0
C358 C 0.79967 0.57224 0.96966 0.0
H359 H 0.47221 0.30874 0.2123 0.0
H360 H 0.3908 0.32097 0.24106 0.0
H361 H 0.37996 0.28337 0.1911 0.0
H362 H 0.4644 0.29112 0.09093 0.0
H363 H 0.4897 0.26718 0.09176 0.0
H364 H 0.4912 0.2945 0.13095 0.0
H365 H 0.49481 0.26372 0.2027 0.0
H366 H 0.49368 0.23632 0.16369 0.0
H367 H 0.47074 0.23895 0.2112 0.0
H368 H 0.37813 0.24367 0.13878 0.0
H369 H 0.3855 0.20501 0.0894 0.0
H370 H 0.46791 0.22011 0.09148 0.0
C371 C 0.4521 0.30337 0.20858 0.0
C372 C 0.43236 0.31774 0.23108 0.0
C373 C 0.40628 0.31023 0.22448 0.0
C374 C 0.39993 0.28893 0.19601 0.0
C375 C 0.41983 0.27542 0.17386 0.0
C376 C 0.4454 0.28236 0.17981 0.0
C377 C 0.46312 0.26487 0.1516 0.0
C378 C 0.47798 0.28035 0.11408 0.0
C379 C 0.48168 0.25009 0.18425 0.0
C380 C 0.44358 0.24684 0.12917 0.0
C381 C 0.41871 0.25322 0.1425 0.0
C382 C 0.39751 0.23866 0.12783 0.0
C383 C 0.40188 0.21676 0.09964 0.0
C384 C 0.42722 0.20968 0.08591 0.0
C385 C 0.44824 0.22527 0.10041 0.0
H386 H 0.8044 0.91391 0.34949 0.0
H387 H 0.81739 0.9967 0.33836 0.0
H388 H 0.78238 1.00458 0.39466 0.0
H389 H 0.73335 0.91982 0.35552 0.0
H390 H 0.72969 0.89322 0.39605 0.0
H391 H 0.75626 0.89357 0.35506 0.0
H392 H 0.78826 0.88853 0.42449 0.0
H393 H 0.7618 0.88858 0.46573 0.0
H394 H 0.78766 0.91167 0.47189 0.0
H395 H 0.74922 1.00409 0.45646 0.0
H396 H 0.71266 0.99617 0.50929 0.0
H397 H 0.71587 0.91414 0.47664 0.0
C398 C 0.7996 0.93366 0.35855 0.0
C399 C 0.81377 0.95468 0.33934 0.0
C400 C 0.80681 0.98025 0.35206 0.0
C401 C 0.78705 0.98497 0.38447 0.0
C402 C 0.77385 0.96399 0.4034 0.0
C403 C 0.77918 0.93887 0.3901 0.0
C404 C 0.76069 0.92018 0.41444 0.0
C405 C 0.74401 0.90585 0.3781 0.0
C406 C 0.7755 0.90111 0.44601 0.0
C407 C 0.74452 0.93881 0.44374 0.0
C408 C 0.753 0.96388 0.4373 0.0
C409 C 0.74212 0.98458 0.46137 0.0
C410 C 0.7214 0.97979 0.49171 0.0
C411 C 0.71117 0.95452 0.49728 0.0
C412 C 0.72318 0.93367 0.47324 0.0
H413 H 0.04658 0.3093 0.59859 0.0
H414 H 0.12819 0.3165 0.56609 0.0
H415 H 0.13717 0.27701 0.61163 0.0
H416 H 0.05465 0.28854 0.71628 0.0
H417 H 0.02842 0.26561 0.7165 0.0
H418 H 0.02737 0.2932 0.67776 0.0
H419 H 0.0215 0.26311 0.60579 0.0
H420 H 0.02207 0.23543 0.6444 0.0
H421 H 0.04436 0.2374 0.59577 0.0
H422 H 0.13835 0.23928 0.6649 0.0
H423 H 0.13131 0.20235 0.71772 0.0
H424 H 0.04883 0.21792 0.71765 0.0
C425 C 0.0662 0.3021 0.6 0.0
C426 C 0.08668 0.31594 0.57834 0.0
C427 C 0.11219 0.30624 0.58212 0.0
C428 C 0.11751 0.28384 0.60807 0.0
C429 C 0.09715 0.27118 0.6303 0.0
C430 C 0.07194 0.27964 0.62619 0.0
C431 C 0.05393 0.26262 0.65525 0.0
C432 C 0.04029 0.27845 0.69373 0.0
C433 C 0.03431 0.24882 0.6234 0.0
C434 C 0.07306 0.24354 0.67655 0.0
C435 C 0.09785 0.24902 0.66155 0.0
C436 C 0.119 0.23464 0.67659 0.0
C437 C 0.11476 0.21369 0.70688 0.0
C438 C 0.08951 0.20705 0.72209 0.0
C439 C 0.06839 0.22248 0.707 0.0
H440 H 0.07652 0.99666 0.27629 0.0
H441 H 0.06266 0.06648 0.19545 0.0
H442 H 0.0177 0.05286 0.18166 0.0
H443 H 0.03226 0.95317 0.20727 0.0
H444 H 0.0214 0.93656 0.25948 0.0
H445 H 0.05369 0.94953 0.25684 0.0
H446 H 0.04502 0.97551 0.33311 0.0
H447 H 0.01269 0.96284 0.33576 0.0
H448 H 0.01788 0.99731 0.3354 0.0
H449 H 0.97348 0.03519 0.18489 0.0
H450 H 0.93226 0.01364 0.20316 0.0
H451 H 0.97339 0.95479 0.28236 0.0
C452 C 0.0642 1.00854 0.25434 0.0
C453 C 0.07308 0.03246 0.23637 0.0
C454 C 0.05622 0.04801 0.20923 0.0
C455 C 0.03068 0.04042 0.20113 0.0
C456 C 0.02217 0.01721 0.22053 0.0
C457 C 0.03837 1.00134 0.24634 0.0
C458 C 0.02349 0.97862 0.26685 0.0
C459 C 0.0333 0.95295 0.24638 0.0
C460 C 0.02485 0.97859 0.32098 0.0
C461 C 0.99638 0.98469 0.24964 0.0
C462 C 0.99621 1.00692 0.22261 0.0
C463 C 0.97338 0.01752 0.20534 0.0
C464 C 0.95003 1.0052 0.21613 0.0
C465 C 0.94958 0.98245 0.24394 0.0
C466 C 0.97316 0.97191 0.26037 0.0
H467 H 0.96315 0.55361 0.51648 0.0
H468 H 0.03017 0.60013 0.48075 0.0
H469 H 0.05613 0.56044 0.47188 0.0
H470 H 0.99662 0.50853 0.5867 0.0
H471 H 0.97789 0.48083 0.56891 0.0
H472 H 0.96367 0.51258 0.56755 0.0
H473 H 0.95245 0.50662 0.47939 0.0
H474 H 0.96665 0.47479 0.48047 0.0
H475 H 0.97767 0.4984 0.43825 0.0
H476 H 0.0756 0.5167 0.47237 0.0
H477 H 0.08814 0.47133 0.48433 0.0
H478 H 1.00901 0.45197 0.52079 0.0
C479 C 0.98316 0.5554 0.50586 0.0
C480 C 0.99459 0.58002 0.4989 0.0
C481 C 0.02098 0.58154 0.48612 0.0
C482 C 0.03586 0.55909 0.48083 0.0
C483 C 0.02413 0.53519 0.48856 0.0
C484 C 0.99841 0.53312 0.50085 0.0
C485 C 0.99114 0.5051 0.51039 0.0
C486 C 0.98179 0.50156 0.56142 0.0
C487 C 0.97077 0.49567 0.475 0.0
C488 C 0.01694 0.49183 0.50236 0.0
C489 C 0.03556 0.50964 0.48933 0.0
C490 C 0.06116 0.50254 0.48214 0.0
C491 C 0.06808 0.47668 0.48918 0.0
C492 C 0.04956 0.45803 0.50339 0.0
C493 C 0.02351 0.46567 0.50924 0.0
H494 H 0.44915 0.5181 0.76733 0.0
H495 H 0.4679 0.43868 0.73175 0.0
H496 H 0.51342 0.45082 0.72058 0.0
H497 H 0.49632 0.549 0.6855 0.0
H498 H 0.50424 0.57422 0.72679 0.0
H499 H 0.47241 0.5601 0.72696 0.0
H500 H 0.47749 0.54891 0.81539 0.0
H501 H 0.50935 0.56284 0.81542 0.0
H502 H 0.50475 0.52987 0.83432 0.0
H503 H 0.55741 0.46997 0.72124 0.0
H504 H 0.59719 0.49571 0.73117 0.0
H505 H 0.55088 0.56313 0.76518 0.0
C506 C 0.46274 0.50346 0.75603 0.0
C507 C 0.4549 0.47745 0.75027 0.0
C508 C 0.47341 0.45872 0.73647 0.0
C509 C 0.49935 0.46542 0.72988 0.0
C510 C 0.50664 0.491 0.73706 0.0
C511 C 0.48894 0.50983 0.74948 0.0
C512 C 0.50238 0.53552 0.75788 0.0
C513 C 0.4933 0.55592 0.72214 0.0
C514 C 0.49825 0.54482 0.80877 0.0
C515 C 0.53034 0.52795 0.74927 0.0
C516 C 0.53229 0.5022 0.73705 0.0
C517 C 0.55614 0.49028 0.73008 0.0
C518 C 0.57864 0.50503 0.73596 0.0
C519 C 0.5772 0.53147 0.74854 0.0
C520 C 0.55264 0.54307 0.75476 0.0
H521 H 0.50424 0.95034 0.03725 0.0
H522 H 0.57826 0.96988 0.97474 0.0
H523 H 0.56377 0.01481 0.96375 0.0
H524 H 0.46459 0.99371 0.96256 0.0
H525 H 0.44339 1.00228 0.0104 0.0
H526 H 0.45856 0.97092 0.00937 0.0
H527 H 0.47771 0.97939 0.09218 0.0
H528 H 0.46276 1.0108 0.09333 0.0
H529 H 0.49713 1.00785 0.10182 0.0
H530 H 0.54305 0.05837 0.96556 0.0
H531 H 0.51666 0.09753 0.97799 0.0
H532 H 0.45578 0.05031 0.03872 0.0
C533 C 0.51715 0.96394 0.0203 0.0
C534 C 0.54237 0.9565 0.00671 0.0
C535 C 0.55887 0.97506 0.98548 0.0
C536 C 0.55081 1.00067 0.97897 0.0
C537 C 0.52613 1.00755 0.99375 0.0
C538 C 0.50943 0.98975 0.01368 0.0
C539 C 0.48444 1.00266 0.02876 0.0
C540 C 0.46138 0.99174 1.00111 0.0
C541 C 0.48028 1.00002 0.08219 0.0
C542 C 0.48995 0.03049 0.01495 0.0
C543 C 0.51407 0.03283 0.99462 0.0
C544 C 0.52399 0.05676 0.98093 0.0
C545 C 0.50888 0.07892 0.98827 0.0
C546 C 0.48409 0.07705 0.00908 0.0
C547 C 0.47452 0.0524 0.02221 0.0
H548 H 0.07585 0.52367 0.04385 0.0
H549 H 0.05834 0.45042 0.1115 0.0
H550 H 0.01303 0.46379 0.12103 0.0
H551 H 0.03077 0.56366 0.11519 0.0
H552 H 0.02185 0.58353 0.06561 0.0
H553 H 0.05365 0.56943 0.06848 0.0
H554 H 0.0464 0.54822 0.98697 0.0
H555 H 0.01454 0.56206 0.98403 0.0
H556 H 0.01873 0.52761 0.97816 0.0
H557 H 0.96885 0.48289 0.11638 0.0
H558 H 0.92894 0.5076 0.10079 0.0
H559 H 0.9745 0.56885 0.03706 0.0
C560 C 0.06261 0.51076 0.06173 0.0
C561 C 0.07073 0.48602 0.07709 0.0
C562 C 0.05264 0.46945 0.09941 0.0
C563 C 0.02681 0.47688 0.10509 0.0
C564 C 0.01924 0.50102 0.08841 0.0
C565 C 0.03659 0.51785 0.06756 0.0
C566 C 0.02296 0.54207 0.05034 0.0
C567 C 0.0329 0.5661 0.07648 0.0
C568 C 0.02583 0.54516 0.9967 0.0
C569 C 0.99527 0.53591 0.06394 0.0
C570 C 0.9936 0.51218 0.08603 0.0
C571 C 0.96993 0.50168 0.09968 0.0
C572 C 0.94734 0.51582 0.09051 0.0
C573 C 0.94854 0.54023 0.068 0.0
C574 C 0.97292 0.5504 0.05491 0.0
H575 H 0.46008 0.47351 0.30598 0.0
H576 H 0.52671 0.42611 0.34004 0.0
H577 H 0.55308 0.46552 0.34956 0.0
H578 H 0.49379 0.51872 0.23647 0.0
H579 H 0.4753 0.54642 0.25504 0.0
H580 H 0.46085 0.51477 0.2558 0.0
H581 H 0.44984 0.52022 0.34419 0.0
H582 H 0.46429 0.55194 0.34372 0.0
H583 H 0.4752 0.52796 0.38531 0.0
H584 H 0.57295 0.50924 0.34989 0.0
H585 H 0.58577 0.55462 0.3387 0.0
H586 H 0.50669 0.57467 0.30344 0.0
C587 C 0.4801 0.47144 0.31636 0.0
C588 C 0.49129 0.44667 0.32268 0.0
C589 C 0.51769 0.44482 0.33517 0.0
C590 C 0.5328 0.46711 0.34083 0.0
C591 C 0.52128 0.49117 0.33376 0.0
C592 C 0.49556 0.49354 0.32175 0.0
C593 C 0.48848 0.52166 0.31291 0.0
C594 C 0.47906 0.52561 0.26203 0.0
C595 C 0.46825 0.53099 0.34867 0.0
C596 C 0.51439 0.53468 0.32102 0.0
C597 C 0.53291 0.51666 0.33348 0.0
C598 C 0.55858 0.52355 0.34058 0.0
C599 C 0.56567 0.54942 0.334 0.0
C600 C 0.54724 0.56827 0.32034 0.0
C601 C 0.52112 0.56082 0.31461 0.0
H602 H 0.44682 1.00016 0.54077 0.0
H603 H 0.4597 0.06988 0.62238 0.0
H604 H 0.50469 0.05667 0.63655 0.0
H605 H 0.48992 0.95716 0.61127 0.0
H606 H 0.50146 0.94028 0.55992 0.0
H607 H 0.46924 0.95347 0.56067 0.0
H608 H 0.47926 0.97919 0.48452 0.0
H609 H 0.51152 0.96624 0.4837 0.0
H610 H 0.50662 1.00075 0.48325 0.0
H611 H 0.54897 0.03885 0.63533 0.0
H612 H 0.59021 0.01655 0.6206 0.0
H613 H 0.54985 0.95776 0.54014 0.0
C614 C 0.45895 1.01224 0.56265 0.0
C615 C 0.44969 0.03599 0.58072 0.0
C616 C 0.46634 0.05162 0.60821 0.0
C617 C 0.49194 0.04425 0.61658 0.0
C618 C 0.50071 0.02115 0.59728 0.0
C619 C 0.48478 1.00523 0.57113 0.0
C620 C 0.4998 0.98234 0.55177 0.0
C621 C 0.48949 0.9568 0.57214 0.0
C622 C 0.49926 0.98213 0.4976 0.0
C623 C 0.52669 0.98828 0.57025 0.0
C624 C 0.52663 1.01069 0.59667 0.0
C625 C 0.54924 0.02107 0.61527 0.0
C626 C 0.5726 1.00831 0.60652 0.0
C627 C 0.57328 0.98533 0.57946 0.0
C628 C 0.5499 0.97507 0.56155 0.0
H629 H 1.01123 0.07726 0.79815 0.0
H630 H 0.08811 0.05689 0.84655 0.0
H631 H 0.07415 1.01188 0.85813 0.0
H632 H 0.97552 0.03229 0.87778 0.0
H633 H 0.95193 0.02445 0.8334 0.0
H634 H 0.96698 0.05588 0.83369 0.0
H635 H 0.98169 0.04907 0.74742 0.0
H636 H 0.96686 0.0176 0.74697 0.0
H637 H 1.00061 0.02097 0.73264 0.0
H638 H 0.05386 0.96837 0.85629 0.0
H639 H 0.02747 0.92916 0.84459 0.0
H640 H 0.9631 0.97679 0.79918 0.0
C641 C 0.02489 0.06345 0.81233 0.0
C642 C 0.05077 0.07069 0.82157 0.0
C643 C 0.06821 0.05188 0.83914 0.0
C644 C 0.06046 0.02621 0.84597 0.0
C645 C 0.03511 0.0195 0.83531 0.0
C646 C 0.01746 0.03755 0.81929 0.0
C647 C 0.99182 0.0247 0.80788 0.0
C648 C 0.97029 0.03494 0.84012 0.0
C649 C 0.98485 0.0283 0.75563 0.0
C650 C 0.99811 0.99665 0.81894 0.0
C651 C 0.02318 0.99417 0.83489 0.0
C652 C 0.03405 0.97008 0.84456 0.0
C653 C 0.01894 0.9479 0.83764 0.0
C654 C 0.99317 0.94988 0.82141 0.0
C655 C 0.9826 0.97467 0.81244 0.0
H656 H 0.08707 0.1374 0.62204 0.0
H657 H 0.12485 0.06793 0.67259 0.0
H658 H 0.12682 0.05109 0.59124 0.0
H659 H 0.05045 0.10814 0.52386 0.0
H660 H 0.05634 0.1351 0.48504 0.0
H661 H 0.05442 0.14019 0.54772 0.0
H662 H 0.09963 0.16165 0.54672 0.0
H663 H 0.10167 0.1567 0.48414 0.0
H664 H 0.12662 0.14424 0.52216 0.0
H665 H 0.12662 0.04275 0.50575 0.0
H666 H 0.12905 0.04494 0.41959 0.0
H667 H 0.09443 0.12149 0.42238 0.0
C668 C 0.09523 0.11843 0.6158 0.0
C669 C 0.10549 0.10365 0.65315 0.0
C670 C 0.11681 0.07932 0.64411 0.0
C671 C 0.11784 0.06958 0.59822 0.0
C672 C 0.10781 0.08468 0.56191 0.0
C673 C 0.09702 0.10872 0.56996 0.0
C674 C 0.09042 0.12218 0.52406 0.0
C675 C 0.06116 0.12666 0.51994 0.0
C676 C 0.10549 0.1477 0.51898 0.0
C677 C 0.09962 0.10212 0.48901 0.0
C678 C 0.109 0.08044 0.5118 0.0
C679 C 0.11924 0.05955 0.48741 0.0
C680 C 0.12051 0.06103 0.43837 0.0
C681 C 0.11197 0.08344 0.41412 0.0
C682 C 0.10098 0.10407 0.43985 0.0
H683 H 0.94739 0.63495 0.6827 0.0
H684 H 0.89576 0.57499 0.63233 0.0
H685 H 0.88907 0.56 0.71416 0.0
H686 H 0.97572 0.59888 0.78199 0.0
H687 H 0.97602 0.62691 0.81965 0.0
H688 H 0.9794 0.6307 0.75687 0.0
H689 H 0.94037 0.66208 0.75593 0.0
H690 H 0.93686 0.6584 0.81859 0.0
H691 H 0.90994 0.65164 0.78031 0.0
H692 H 0.88619 0.55318 0.80104 0.0
H693 H 0.88419 0.55715 0.88743 0.0
H694 H 0.9359 0.6232 0.88114 0.0
C695 C 0.93512 0.61832 0.68889 0.0
C696 C 0.92229 0.60587 0.65145 0.0
C697 C 0.90579 0.58467 0.66075 0.0
C698 C 0.90202 0.57595 0.70697 0.0
C699 C 0.91473 0.58884 0.74325 0.0
C700 C 0.93079 0.60969 0.73479 0.0
C701 C 0.94007 0.62179 0.7802 0.0
C702 C 0.96956 0.61942 0.78495 0.0
C703 C 0.93127 0.65015 0.78396 0.0
C704 C 0.92631 0.60479 0.81556 0.0
C705 C 0.91223 0.58559 0.79353 0.0
C706 C 0.89727 0.56801 0.81874 0.0
C707 C 0.8963 0.57041 0.8678 0.0
C708 C 0.90989 0.5905 0.89093 0.0
C709 C 0.92536 0.60763 0.86441 0.0
H710 H 0.44195 0.3904 0.13756 0.0
H711 H 0.39634 0.45532 0.18672 0.0
H712 H 0.3904 0.46993 0.10445 0.0
H713 H 0.47264 0.4224 0.03617 0.0
H714 H 0.47001 0.39406 0.99961 0.0
H715 H 0.47351 0.39066 0.06245 0.0
H716 H 0.43172 0.36311 0.06549 0.0
H717 H 0.42806 0.36642 0.0028 0.0
H718 H 0.40221 0.3761 0.04148 0.0
H719 H 0.38779 0.47618 0.01763 0.0
H720 H 0.38519 0.47184 0.93143 0.0
H721 H 0.43021 0.40108 0.93875 0.0
C722 C 0.4312 0.408 0.13094 0.0
C723 C 0.41985 0.42201 0.16813 0.0
C724 C 0.40523 0.44447 0.15842 0.0
C725 C 0.4019 0.45296 0.11198 0.0
C726 C 0.4131 0.43853 0.07595 0.0
C727 C 0.42725 0.4164 0.08483 0.0
C728 C 0.43502 0.40298 0.03969 0.0
C729 C 0.46455 0.40251 0.03416 0.0
C730 C 0.42356 0.37554 0.03724 0.0
C731 C 0.42263 0.4208 0.00401 0.0
C732 C 0.41056 0.44145 0.02567 0.0
C733 C 0.39728 0.4602 1.0002 0.0
C734 C 0.39596 0.45756 0.95126 0.0
C735 C 0.4075 0.4361 0.92849 0.0
C736 C 0.42124 0.41768 0.95524 0.0
H737 H 0.59323 0.90783 0.39337 0.0
H738 H 0.64708 0.97209 0.39873 0.0
H739 H 0.64649 0.97484 0.31193 0.0
H740 H 0.61899 0.87716 0.29487 0.0
H741 H 0.58844 0.86764 0.26994 0.0
H742 H 0.59142 0.87201 0.33252 0.0
H743 H 0.5538 0.90509 0.33134 0.0
H744 H 0.55055 0.90063 0.26871 0.0
H745 H 0.55545 0.93258 0.29238 0.0
H746 H 0.64431 0.96689 0.22484 0.0
H747 H 0.63687 0.9518 0.14325 0.0
H748 H 0.58221 0.89489 0.19499 0.0
C749 C 0.60455 0.92275 0.37627 0.0
C750 C 0.62018 0.93975 0.4026 0.0
C751 C 0.63478 0.95902 0.37913 0.0
C752 C 0.63465 0.96068 0.32988 0.0
C753 C 0.61944 0.94325 0.30485 0.0
C754 C 0.60428 0.92498 0.32725 0.0
C755 C 0.59011 0.90818 0.29216 0.0
C756 C 0.59771 0.87956 0.29772 0.0
C757 C 0.56073 0.91185 0.2964 0.0
C758 C 0.60027 0.91937 0.24656 0.0
C759 C 0.61725 0.93951 0.25459 0.0
C760 C 0.63064 0.95151 0.218 0.0
C761 C 0.62643 0.94275 0.17194 0.0
C762 C 0.60875 0.92247 0.16307 0.0
C763 C 0.59541 0.91082 0.20083 0.0
H764 H 0.1239 0.43435 0.69129 0.0
H765 H 0.05863 0.38181 0.68369 0.0
H766 H 0.05483 0.3826 0.77023 0.0
H767 H 0.1526 0.40802 0.79207 0.0
H768 H 0.16244 0.43854 0.81685 0.0
H769 H 0.15901 0.43525 0.75411 0.0
H770 H 0.12691 0.47373 0.75272 0.0
H771 H 0.13038 0.47724 0.81551 0.0
H772 H 0.09877 0.47295 0.7901 0.0
H773 H 0.06137 0.38507 0.85739 0.0
H774 H 0.07525 0.39271 0.93966 0.0
H775 H 0.13407 0.44589 0.88996 0.0
C776 C 0.10862 0.4233 0.70785 0.0
C777 C 0.09158 0.40802 0.68098 0.0
C778 C 0.07178 0.3938 0.70373 0.0
C779 C 0.0695 0.39406 0.75281 0.0
C780 C 0.08687 0.40899 0.7784 0.0
C781 C 0.10578 0.42369 0.75672 0.0
C782 C 0.12229 0.43769 0.7924 0.0
C783 C 0.15076 0.42936 0.78862 0.0
C784 C 0.1194 0.46715 0.78738 0.0
C785 C 0.11012 0.42802 0.83748 0.0
C786 C 0.0898 0.41139 0.8287 0.0
C787 C 0.07689 0.39847 0.86483 0.0
C788 C 0.08494 0.40279 0.91126 0.0
C789 C 0.1054 0.42012 0.92079 0.0
C790 C 0.11796 0.433 0.8835 0.0
H791 H 0.6236 0.59227 0.13249 0.0
H792 H 0.55408 0.63909 0.13964 0.0
H793 H 0.54965 0.63656 0.05342 0.0
H794 H 0.64915 0.61966 0.03036 0.0
H795 H 0.66151 0.58989 0.0063 0.0
H796 H 0.6581 0.59346 0.06899 0.0
H797 H 0.62953 0.55231 0.07213 0.0
H798 H 0.63296 0.54855 0.00937 0.0
H799 H 0.60124 0.55026 0.03535 0.0
H800 H 0.55574 0.63364 0.96655 0.0
H801 H 0.57013 0.6272 0.88431 0.0
H802 H 0.63388 0.58004 0.93379 0.0
C803 C 0.60724 0.60166 0.11594 0.0
C804 C 0.58921 0.61588 0.14264 0.0
C805 C 0.56806 0.62794 0.11983 0.0
C806 C 0.56537 0.62666 0.07089 0.0
C807 C 0.58374 0.61287 0.04547 0.0
C808 C 0.60404 0.60024 0.06718 0.0
C809 C 0.62155 0.58743 0.03152 0.0
C810 C 0.6492 0.59827 0.03448 0.0
C811 C 0.62129 0.55788 0.03745 0.0
C812 C 0.60835 0.59555 0.98639 0.0
C813 C 0.58658 0.61023 0.9952 0.0
C814 C 0.57242 0.62172 0.9591 0.0
C815 C 0.58077 0.61809 0.91267 0.0
C816 C 0.60284 0.60288 0.90305 0.0
C817 C 0.61658 0.59126 0.94031 0.0
H818 H 0.39086 0.0748 0.39092 0.0
H819 H 0.44375 0.13339 0.44228 0.0
H820 H 0.458 0.14208 0.36058 0.0
H821 H 0.43028 0.05111 0.2927 0.0
H822 H 0.40273 0.04738 0.25453 0.0
H823 H 0.39903 0.04368 0.31727 0.0
H824 H 0.36325 0.07874 0.31726 0.0
H825 H 0.36681 0.08254 0.25464 0.0
H826 H 0.37009 0.11018 0.29276 0.0
H827 H 0.46506 0.14546 0.27342 0.0
H828 H 0.46171 0.14632 0.18677 0.0
H829 H 0.40218 0.08726 0.19269 0.0
C830 C 0.40582 0.08909 0.38501 0.0
C831 C 0.4165 0.10323 0.42269 0.0
C832 C 0.43546 0.12231 0.41369 0.0
C833 C 0.44375 0.12725 0.36755 0.0
C834 C 0.43265 0.1131 0.33104 0.0
C835 C 0.41392 0.09457 0.33923 0.0
C836 C 0.40329 0.0838 0.29371 0.0
C837 C 0.4092 0.05477 0.28931 0.0
C838 C 0.37414 0.08915 0.28935 0.0
C839 C 0.41868 0.09945 0.25854 0.0
C840 C 0.43586 0.11587 0.28076 0.0
C841 C 0.45179 0.13261 0.2556 0.0
C842 C 0.44978 0.1329 0.20643 0.0
C843 C 0.43167 0.11685 0.18313 0.0
C844 C 0.41619 0.09972 0.20959 0.0
H845 H 0.94336 0.89213 0.63342 0.0
H846 H 0.89898 0.95759 0.68387 0.0
H847 H 0.89237 0.97222 0.60182 0.0
H848 H 0.97329 0.92375 0.53063 0.0
H849 H 0.96992 0.89544 0.49418 0.0
H850 H 0.97405 0.892 0.55688 0.0
H851 H 0.93197 0.86497 0.56145 0.0
H852 H 0.9277 0.86832 0.49888 0.0
H853 H 0.90238 0.87831 0.53844 0.0
H854 H 0.88893 0.97856 0.51489 0.0
H855 H 0.88532 0.97423 0.42874 0.0
H856 H 0.9295 0.90293 0.43461 0.0
C857 C 0.93274 0.90985 0.6271 0.0
C858 C 0.92194 0.924 0.6647 0.0
C859 C 0.90747 0.94662 0.65533 0.0
C860 C 0.90376 0.95512 0.60896 0.0
C861 C 0.91439 0.94057 0.57253 0.0
C862 C 0.92838 0.91828 0.581 0.0
C863 C 0.93547 0.90479 0.5355 0.0
C864 C 0.96493 0.90396 0.52892 0.0
C865 C 0.92367 0.87749 0.53347 0.0
C866 C 0.92292 0.92276 0.50017 0.0
C867 C 0.91133 0.94354 0.52224 0.0
C868 C 0.89804 0.96246 0.49715 0.0
C869 C 0.89616 0.95985 0.4482 0.0
C870 C 0.90714 0.93824 0.425 0.0
C871 C 0.92095 0.91967 0.45138 0.0
H872 H 0.08942 0.14551 0.94381 0.0
H873 H 0.16791 0.13226 0.89545 0.0
H874 H 0.18189 0.12502 0.977 0.0
H875 H 0.10809 0.17854 0.05605 0.0
H876 H 0.08189 0.16392 0.08832 0.0
H877 H 0.07831 0.17075 0.02641 0.0
H878 H 0.06654 0.12278 0.01143 0.0
H879 H 0.07032 0.11575 0.0731 0.0
H880 H 0.08852 0.09776 0.0301 0.0
H881 H 0.18629 0.11243 0.06126 0.0
H882 H 0.18156 0.10058 0.14536 0.0
H883 H 0.10161 0.12522 0.14193 0.0
C884 C 0.10967 0.1418 0.95052 0.0
C885 C 0.1275 0.13946 0.91295 0.0
C886 C 0.15379 0.13417 0.92336 0.0
C887 C 0.16199 0.13 0.96971 0.0
C888 C 0.14384 0.13155 0.00568 0.0
C889 C 0.11832 0.13784 0.99691 0.0
C890 C 0.10264 0.13721 0.0421 0.0
C891 C 0.09212 0.16422 0.05392 0.0
C892 C 0.08072 0.11718 0.03897 0.0
C893 C 0.12318 0.12888 0.07714 0.0
C894 C 0.14678 0.1256 0.05525 0.0
C895 C 0.16811 0.11559 0.07914 0.0
C896 C 0.16527 0.10883 0.12673 0.0
C897 C 0.14147 0.11259 0.15005 0.0
C898 C 0.12024 0.12295 0.12506 0.0
H899 H 0.8913 0.61533 0.38353 0.0
H900 H 0.94348 0.68095 0.38345 0.0
H901 H 0.93791 0.68529 0.29719 0.0
H902 H 0.916 0.5875 0.2806 0.0
H903 H 0.88541 0.5754 0.25986 0.0
H904 H 0.89072 0.57972 0.32193 0.0
H905 H 0.85031 0.60917 0.32681 0.0
H906 H 0.84488 0.60495 0.26462 0.0
H907 H 0.84792 0.63702 0.28881 0.0
H908 H 0.92838 0.68092 0.21062 0.0
H909 H 0.91903 0.66608 0.12995 0.0
H910 H 0.87503 0.60163 0.18641 0.0
C911 C 0.90108 0.631 0.36551 0.0
C912 C 0.9175 0.6481 0.39016 0.0
C913 C 0.93065 0.66781 0.36519 0.0
C914 C 0.92751 0.67047 0.3163 0.0
C915 C 0.91138 0.65308 0.29295 0.0
C916 C 0.89855 0.63359 0.31671 0.0
C917 C 0.88447 0.61583 0.28295 0.0
C918 C 0.89478 0.58798 0.28656 0.0
C919 C 0.85515 0.61682 0.29131 0.0
C920 C 0.89164 0.62814 0.23636 0.0
C921 C 0.90678 0.64987 0.24294 0.0
C922 C 0.91642 0.66403 0.20508 0.0
C923 C 0.91094 0.65545 0.15933 0.0
C924 C 0.89626 0.63268 0.15174 0.0
C925 C 0.88616 0.61918 0.19094 0.0
H926 H 0.37254 0.43017 0.63266 0.0
H927 H 0.40888 0.36105 0.68878 0.0
H928 H 0.41741 0.34581 0.6081 0.0
H929 H 0.34274 0.39824 0.52879 0.0
H930 H 0.34826 0.42599 0.49166 0.0
H931 H 0.34283 0.43026 0.55385 0.0
H932 H 0.38594 0.45546 0.56041 0.0
H933 H 0.39162 0.4511 0.49844 0.0
H934 H 0.41543 0.44048 0.5405 0.0
H935 H 0.42755 0.3411 0.52186 0.0
H936 H 0.4343 0.3453 0.43579 0.0
H937 H 0.38883 0.4157 0.43559 0.0
C938 C 0.38177 0.41156 0.62799 0.0
C939 C 0.39001 0.39683 0.66714 0.0
C940 C 0.40223 0.37265 0.65944 0.0
C941 C 0.40723 0.36382 0.61368 0.0
C942 C 0.39951 0.37914 0.57589 0.0
C943 C 0.3866 0.40226 0.58251 0.0
C944 C 0.38124 0.41551 0.53595 0.0
C945 C 0.35203 0.41761 0.52704 0.0
C946 C 0.39434 0.44221 0.53372 0.0
C947 C 0.39378 0.39659 0.5023 0.0
C948 C 0.40431 0.37577 0.52599 0.0
C949 C 0.41885 0.35698 0.50276 0.0
C950 C 0.42269 0.35955 0.45401 0.0
C951 C 0.41169 0.38053 0.42908 0.0
C952 C 0.39687 0.39908 0.4536 0.0
H953 H 0.65359 0.92823 0.70003 0.0
H954 H 0.60871 0.86547 0.64028 0.0
H955 H 0.59769 0.85034 0.7203 0.0
H956 H 0.67861 0.89095 0.80175 0.0
H957 H 0.67694 0.91853 0.84035 0.0
H958 H 0.68281 0.9231 0.77836 0.0
H959 H 0.64347 0.95397 0.77362 0.0
H960 H 0.63734 0.94934 0.8354 0.0
H961 H 0.61226 0.94275 0.79309 0.0
H962 H 0.5867 0.84577 0.80704 0.0
H963 H 0.58113 0.84918 0.89361 0.0
H964 H 0.63588 0.91259 0.89635 0.0
C965 C 0.64189 0.91099 0.70377 0.0
C966 C 0.63205 0.89803 0.66385 0.0
C967 C 0.61667 0.87561 0.67029 0.0
C968 C 0.6102 0.86691 0.71565 0.0
C969 C 0.61966 0.88053 0.75428 0.0
C970 C 0.63563 0.90177 0.74878 0.0
C971 C 0.64279 0.91335 0.79594 0.0
C972 C 0.67202 0.91135 0.8046 0.0
C973 C 0.6334 0.94151 0.79971 0.0
C974 C 0.62785 0.89573 0.82875 0.0
C975 C 0.61446 0.87701 0.80414 0.0
C976 C 0.59759 0.85996 0.82678 0.0
C977 C 0.59445 0.86206 0.87583 0.0
C978 C 0.60845 0.88077 0.90165 0.0
C979 C 0.62547 0.89762 0.87766 0.0
H980 H 0.10033 0.37625 0.38382 0.0
H981 H 0.16477 0.41954 0.44159 0.0
H982 H 0.17951 0.43002 0.36128 0.0
H983 H 0.13605 0.35012 0.2812 0.0
H984 H 0.10827 0.3526 0.24324 0.0
H985 H 0.104 0.34684 0.30534 0.0
H986 H 0.07435 0.38709 0.31075 0.0
H987 H 0.07868 0.39311 0.24885 0.0
H988 H 0.08629 0.41801 0.29096 0.0
H989 H 0.18371 0.44087 0.27489 0.0
H990 H 0.17981 0.44665 0.18843 0.0
H991 H 0.11497 0.39359 0.18709 0.0
C992 C 0.11784 0.38748 0.37957 0.0
C993 C 0.13138 0.39704 0.41905 0.0
C994 C 0.15414 0.41182 0.41194 0.0
C995 C 0.16265 0.41798 0.36641 0.0
C996 C 0.14849 0.40882 0.32826 0.0
C997 C 0.12687 0.39345 0.33433 0.0
C998 C 0.11475 0.38662 0.28748 0.0
C999 C 0.11585 0.3573 0.27881 0.0
C1000 C 0.08688 0.39682 0.28435 0.0
C1001 C 0.13254 0.40107 0.25427 0.0
C1002 C 0.15179 0.41393 0.27841 0.0
C1003 C 0.16911 0.43039 0.25546 0.0
C1004 C 0.16672 0.43365 0.20651 0.0
C1005 C 0.14747 0.42017 0.18118 0.0
C1006 C 0.13035 0.40357 0.20546 0.0
H1007 H 0.6101 0.63375 0.63562 0.0
H1008 H 0.67924 0.58645 0.63578 0.0
H1009 H 0.68358 0.59297 0.54967 0.0
H1010 H 0.5847 0.60755 0.53178 0.0
H1011 H 0.57038 0.63729 0.51139 0.0
H1012 H 0.57483 0.6319 0.57343 0.0
H1013 H 0.601 0.6745 0.57954 0.0
H1014 H 0.59667 0.68 0.51738 0.0
H1015 H 0.62872 0.67929 0.54209 0.0
H1016 H 0.67909 0.60305 0.46333 0.0
H1017 H 0.66401 0.61182 0.38259 0.0
H1018 H 0.596 0.6501 0.43854 0.0
C1019 C 0.6265 0.62528 0.61768 0.0
C1020 C 0.64464 0.60998 0.6423 0.0
C1021 C 0.66531 0.59843 0.61748 0.0
C1022 C 0.66797 0.60213 0.56871 0.0
C1023 C 0.64958 0.61714 0.54537 0.0
C1024 C 0.62909 0.6283 0.56899 0.0
C1025 C 0.61047 0.64121 0.5352 0.0
C1026 C 0.58351 0.62873 0.53813 0.0
C1027 C 0.60915 0.67049 0.54409 0.0
C1028 C 0.62349 0.63531 0.48872 0.0
C1029 C 0.64627 0.62186 0.49543 0.0
C1030 C 0.66135 0.61368 0.45769 0.0
C1031 C 0.65262 0.61883 0.4119 0.0
C1032 C 0.6288 0.63168 0.40415 0.0
C1033 C 0.61433 0.64037 0.44324 0.0
H1034 H 0.40329 0.13049 0.68871 0.0
H1035 H 0.34376 0.07151 0.69114 0.0
H1036 H 0.34038 0.07616 0.77783 0.0
H1037 H 0.43532 0.10826 0.79016 0.0
H1038 H 0.44448 0.13996 0.81052 0.0
H1039 H 0.43982 0.13427 0.74863 0.0
H1040 H 0.40635 0.17148 0.74538 0.0
H1041 H 0.41089 0.17728 0.80737 0.0
H1042 H 0.379 0.17095 0.78468 0.0
H1043 H 0.34473 0.08643 0.86449 0.0
H1044 H 0.35917 0.09785 0.94452 0.0
H1045 H 0.41816 0.14795 0.88535 0.0
C1046 C 0.38912 0.11896 0.70736 0.0
C1047 C 0.3734 0.10097 0.68323 0.0
C1048 C 0.35576 0.08557 0.709 0.0
C1049 C 0.35368 0.08817 0.75813 0.0
C1050 C 0.36964 0.10597 0.78089 0.0
C1051 C 0.38722 0.12089 0.75634 0.0
C1052 C 0.4039 0.13674 0.78934 0.0
C1053 C 0.43257 0.12935 0.78436 0.0
C1054 C 0.39978 0.16584 0.7812 0.0
C1055 C 0.39311 0.12829 0.83646 0.0
C1056 C 0.37307 0.1109 0.8308 0.0
C1057 C 0.36035 0.10008 0.86928 0.0
C1058 C 0.36867 0.10678 0.91467 0.0
C1059 C 0.38982 0.12384 0.92133 0.0
C1060 C 0.4019 0.13495 0.88152 0.0
H1061 H 0.8695 0.93009 0.1293 0.0
H1062 H 0.90766 0.86236 0.1868 0.0
H1063 H 0.91813 0.84776 0.10631 0.0
H1064 H 0.84272 0.89745 0.02348 0.0
H1065 H 0.84766 0.9256 0.9871 0.0
H1066 H 0.84108 0.9293 0.04904 0.0
H1067 H 0.88297 0.95623 0.05823 0.0
H1068 H 0.88983 0.95242 0.99654 0.0
H1069 H 0.91336 0.94258 0.03974 0.0
H1070 H 0.92986 0.84389 0.02003 0.0
H1071 H 0.9375 0.84866 0.93429 0.0
H1072 H 0.88927 0.91719 0.93292 0.0
C1073 C 0.87952 0.91187 0.12497 0.0
C1074 C 0.8877 0.89736 0.16447 0.0
C1075 C 0.90098 0.87373 0.15718 0.0
C1076 C 0.90712 0.86531 0.11153 0.0
C1077 C 0.89946 0.88048 0.07342 0.0
C1078 C 0.88549 0.903 0.07964 0.0
C1079 C 0.88033 0.91624 0.03297 0.0
C1080 C 0.85121 0.91719 0.02254 0.0
C1081 C 0.89235 0.94347 0.03183 0.0
C1082 C 0.89417 0.89805 0.99967 0.0
C1083 C 0.9052 0.87758 0.02363 0.0
C1084 C 0.9208 0.8595 1.00076 0.0
C1085 C 0.92513 0.86241 0.95215 0.0
C1086 C 0.91362 0.883 0.9269 0.0
C1087 C 0.89779 0.90086 0.95109 0.0
loop_
_geom_bond_atom_site_label_1
_geom_bond_atom_site_label_2
_geom_bond_distance
_geom_bond_site_symmetry_2
_ccdc_geom_bond_type
C0 O2 1.247 . S
C0 O4 1.258 . S
C1 O8 1.247 . S
C1 O9 1.258 . S
O2 C0 1.247 . S
O2 Zn3 2.028 . S
Zn3 O2 2.028 . S
Zn3 O7 2.035 . S
Zn3 O9 2.035 . S
Zn3 O10 2.028 . S
O4 C0 1.258 . S
O4 Zn5 2.035 . S
Zn5 O4 2.035 . S
Zn5 O6 2.028 . S
Zn5 O8 2.028 . S
Zn5 O11 2.035 . S
O6 Zn5 2.028 . S
O6 C12 1.247 . S
O7 Zn3 2.035 . S
O7 C12 1.258 . S
O8 C1 1.247 . S
O8 Zn5 2.028 . S
O9 C1 1.258 . S
O9 Zn3 2.035 . S
O10 Zn3 2.028 . S
O10 C13 1.247 . S
O11 Zn5 2.035 . S
O11 C13 1.258 . S
C12 O6 1.247 . S
C12 O7 1.258 . S
C13 O10 1.247 . S
C13 O11 1.258 . S
C14 O16 1.247 . S
C14 O18 1.258 . S
C15 O22 1.247 . S
C15 O23 1.258 . S
O16 C14 1.247 . S
O16 Zn17 2.028 . S
Zn17 O16 2.028 . S
Zn17 O21 2.035 . S
Zn17 O23 2.035 . S
Zn17 O24 2.028 . S
O18 C14 1.258 . S
O18 Zn19 2.035 . S
Zn19 O18 2.035 . S
Zn19 O20 2.028 . S
Zn19 O22 2.028 . S
Zn19 O25 2.035 . S
O20 Zn19 2.028 . S
O20 C26 1.247 . S
O21 Zn17 2.035 . S
O21 C26 1.258 . S
O22 C15 1.247 . S
O22 Zn19 2.028 . S
O23 C15 1.258 . S
O23 Zn17 2.035 . S
O24 Zn17 2.028 . S
O24 C27 1.247 . S
O25 Zn19 2.035 . S
O25 C27 1.258 . S
C26 O20 1.247 . S
C26 O21 1.258 . S
C27 O24 1.247 . S
C27 O25 1.258 . S
C28 O30 1.247 . S
C28 O32 1.258 . S
C29 O36 1.247 . S
C29 O37 1.258 . S
O30 C28 1.247 . S
O30 Zn31 2.028 . S
Zn31 O30 2.028 . S
Zn31 O35 2.035 . S
Zn31 O37 2.035 . S
Zn31 O38 2.028 . S
O32 C28 1.258 . S
O32 Zn33 2.035 . S
Zn33 O32 2.035 . S
Zn33 O34 2.028 . S
Zn33 O36 2.028 . S
Zn33 O39 2.035 . S
O34 Zn33 2.028 . S
O34 C40 1.247 . S
O35 Zn31 2.035 . S
O35 C40 1.258 . S
O36 C29 1.247 . S
O36 Zn33 2.028 . S
O37 C29 1.258 . S
O37 Zn31 2.035 . S
O38 Zn31 2.028 . S
O38 C41 1.247 . S
O39 Zn33 2.035 . S
O39 C41 1.258 . S
C40 O34 1.247 . S
C40 O35 1.258 . S
C41 O38 1.247 . S
C41 O39 1.258 . S
C42 O44 1.247 . S
C42 O46 1.258 . S
C43 O50 1.247 . S
C43 O51 1.258 . S
O44 C42 1.247 . S
O44 Zn45 2.028 . S
Zn45 O44 2.028 . S
Zn45 O49 2.035 . S
Zn45 O51 2.035 1_554 S
Zn45 O52 2.028 . S
O46 C42 1.258 . S
O46 Zn47 2.035 . S
Zn47 O46 2.035 . S
Zn47 O48 2.028 . S
Zn47 O50 2.028 1_554 S
Zn47 O53 2.035 . S
O48 Zn47 2.028 . S
O48 C54 1.247 . S
O49 Zn45 2.035 . S
O49 C54 1.258 . S
O50 C43 1.247 . S
O50 Zn47 2.028 1_556 S
O51 C43 1.258 . S
O51 Zn45 2.035 1_556 S
O52 Zn45 2.028 . S
O52 C55 1.247 . S
O53 Zn47 2.035 . S
O53 C55 1.258 . S
C54 O48 1.247 . S
C54 O49 1.258 . S
C55 O52 1.247 . S
C55 O53 1.258 . S
C56 O58 1.247 . S
C56 O60 1.258 . S
C57 O64 1.247 . S
C57 O65 1.258 . S
O58 C56 1.247 . S
O58 Zn59 2.028 . S
Zn59 O58 2.028 . S
Zn59 O63 2.035 . S
Zn59 O65 2.035 . S
Zn59 O66 2.028 1_554 S
O60 C56 1.258 . S
O60 Zn61 2.035 . S
Zn61 O60 2.035 . S
Zn61 O62 2.028 . S
Zn61 O64 2.028 . S
Zn61 O67 2.035 1_554 S
O62 Zn61 2.028 . S
O62 C68 1.247 . S
O63 Zn59 2.035 . S
O63 C68 1.258 . S
O64 C57 1.247 . S
O64 Zn61 2.028 . S
O65 C57 1.258 . S
O65 Zn59 2.035 . S
O66 Zn59 2.028 1_556 S
O66 C69 1.247 . S
O67 Zn61 2.035 1_556 S
O67 C69 1.258 . S
C68 O62 1.247 . S
C68 O63 1.258 . S
C69 O66 1.247 . S
C69 O67 1.258 . S
C70 O72 1.247 . S
C70 O74 1.258 . S
C71 O78 1.247 . S
C71 O79 1.258 . S
O72 C70 1.247 . S
O72 Zn73 2.028 . S
Zn73 O72 2.028 . S
Zn73 O77 2.035 . S
Zn73 O79 2.035 . S
Zn73 O80 2.028 . S
O74 C70 1.258 . S
O74 Zn75 2.035 . S
Zn75 O74 2.035 . S
Zn75 O76 2.028 . S
Zn75 O78 2.028 . S
Zn75 O81 2.035 . S
O76 Zn75 2.028 . S
O76 C82 1.247 . S
O77 Zn73 2.035 . S
O77 C82 1.258 . S
O78 C71 1.247 . S
O78 Zn75 2.028 . S
O79 C71 1.258 . S
O79 Zn73 2.035 . S
O80 Zn73 2.028 . S
O80 C83 1.247 . S
O81 Zn75 2.035 . S
O81 C83 1.258 . S
C82 O76 1.247 . S
C82 O77 1.258 . S
C83 O80 1.247 . S
C83 O81 1.258 . S
C84 O86 1.247 . S
C84 O88 1.258 . S
C85 O92 1.247 . S
C85 O93 1.258 . S
O86 C84 1.247 . S
O86 Zn87 2.028 . S
Zn87 O86 2.028 . S
Zn87 O91 2.035 . S
Zn87 O93 2.035 . S
Zn87 O94 2.028 . S
O88 C84 1.258 . S
O88 Zn89 2.035 . S
Zn89 O88 2.035 . S
Zn89 O90 2.028 . S
Zn89 O92 2.028 . S
Zn89 O95 2.035 . S
O90 Zn89 2.028 . S
O90 C96 1.247 . S
O91 Zn87 2.035 . S
O91 C96 1.258 . S
O92 C85 1.247 . S
O92 Zn89 2.028 . S
O93 C85 1.258 . S
O93 Zn87 2.035 . S
O94 Zn87 2.028 . S
O94 C97 1.247 . S
O95 Zn89 2.035 . S
O95 C97 1.258 . S
C96 O90 1.247 . S
C96 O91 1.258 . S
C97 O94 1.247 . S
C97 O95 1.258 . S
C98 O100 1.247 . S
C98 O102 1.258 . S
C99 O106 1.247 . S
C99 O107 1.258 . S
O100 C98 1.247 . S
O100 Zn101 2.028 . S
Zn101 O100 2.028 . S
Zn101 O105 2.035 . S
Zn101 O107 2.035 . S
Zn101 O108 2.028 . S
O102 C98 1.258 . S
O102 Zn103 2.035 . S
Zn103 O102 2.035 . S
Zn103 O104 2.028 . S
Zn103 O106 2.028 . S
Zn103 O109 2.035 . S
O104 Zn103 2.028 . S
O104 C110 1.247 . S
O105 Zn101 2.035 . S
O105 C110 1.258 . S
O106 C99 1.247 . S
O106 Zn103 2.028 . S
O107 C99 1.258 . S
O107 Zn101 2.035 . S
O108 Zn101 2.028 . S
O108 C111 1.247 . S
O109 Zn103 2.035 . S
O109 C111 1.258 . S
C110 O104 1.247 . S
C110 O105 1.258 . S
C111 O108 1.247 . S
C111 O109 1.258 . S
C112 O114 1.247 . S
C112 O116 1.258 . S
C113 O120 1.247 . S
C113 O121 1.258 . S
O114 C112 1.247 . S
O114 Zn115 2.028 . S
Zn115 O114 2.028 . S
Zn115 O119 2.035 . S
Zn115 O121 2.035 . S
Zn115 O122 2.028 . S
O116 C112 1.258 . S
O116 Zn117 2.035 . S
Zn117 O116 2.035 . S
Zn117 O118 2.028 . S
Zn117 O120 2.028 . S
Zn117 O123 2.035 . S
O118 Zn117 2.028 . S
O118 C124 1.247 . S
O119 Zn115 2.035 . S
O119 C124 1.258 . S
O120 C113 1.247 . S
O120 Zn117 2.028 . S
O121 C113 1.258 . S
O121 Zn115 2.035 . S
O122 Zn115 2.028 . S
O122 C125 1.247 . S
O123 Zn117 2.035 . S
O123 C125 1.258 . S
C124 O118 1.247 . S
C124 O119 1.258 . S
C125 O122 1.247 . S
C125 O123 1.258 . S
C126 O128 1.247 . S
C126 O130 1.258 . S
C127 O134 1.247 . S
C127 O135 1.258 . S
O128 C126 1.247 . S
O128 Zn129 2.028 . S
Zn129 O128 2.028 . S
Zn129 O133 2.035 . S
Zn129 O135 2.035 1_554 S
Zn129 O136 2.028 . S
O130 C126 1.258 . S
O130 Zn131 2.035 . S
Zn131 O130 2.035 . S
Zn131 O132 2.028 . S
Zn131 O134 2.028 1_554 S
Zn131 O137 2.035 . S
O132 Zn131 2.028 . S
O132 C138 1.247 . S
O133 Zn129 2.035 . S
O133 C138 1.258 . S
O134 C127 1.247 . S
O134 Zn131 2.028 1_556 S
O135 C127 1.258 . S
O135 Zn129 2.035 1_556 S
O136 Zn129 2.028 . S
O136 C139 1.247 . S
O137 Zn131 2.035 . S
O137 C139 1.258 . S
C138 O132 1.247 . S
C138 O133 1.258 . S
C139 O136 1.247 . S
C139 O137 1.258 . S
C140 O142 1.247 . S
C140 O144 1.258 . S
C141 O148 1.247 . S
C141 O149 1.258 . S
O142 C140 1.247 . S
O142 Zn143 2.028 . S
Zn143 O142 2.028 . S
Zn143 O147 2.035 . S
Zn143 O149 2.035 . S
Zn143 O150 2.028 . S
O144 C140 1.258 . S
O144 Zn145 2.035 . S
Zn145 O144 2.035 . S
Zn145 O146 2.028 . S
Zn145 O148 2.028 . S
Zn145 O151 2.035 . S
O146 Zn145 2.028 . S
O146 C152 1.247 . S
O147 Zn143 2.035 . S
O147 C152 1.258 . S
O148 C141 1.247 . S
O148 Zn145 2.028 . S
O149 C141 1.258 . S
O149 Zn143 2.035 . S
O150 Zn143 2.028 . S
O150 C153 1.247 . S
O151 Zn145 2.035 . S
O151 C153 1.258 . S
C152 O146 1.247 . S
C152 O147 1.258 . S
C153 O150 1.247 . S
C153 O151 1.258 . S
C154 O156 1.247 . S
C154 O158 1.258 . S
C155 O162 1.247 . S
C155 O163 1.258 . S
O156 C154 1.247 . S
O156 Zn157 2.028 . S
Zn157 O156 2.028 . S
Zn157 O161 2.035 . S
Zn157 O163 2.035 . S
Zn157 O164 2.028 . S
O158 C154 1.258 . S
O158 Zn159 2.035 . S
Zn159 O158 2.035 . S
Zn159 O160 2.028 . S
Zn159 O162 2.028 . S
Zn159 O165 2.035 . S
O160 Zn159 2.028 . S
O160 C166 1.247 . S
O161 Zn157 2.035 . S
O161 C166 1.258 . S
O162 C155 1.247 . S
O162 Zn159 2.028 . S
O163 C155 1.258 . S
O163 Zn157 2.035 . S
O164 Zn157 2.028 . S
O164 C167 1.247 . S
O165 Zn159 2.035 . S
O165 C167 1.258 . S
C166 O160 1.247 . S
C166 O161 1.258 . S
C167 O164 1.247 . S
C167 O165 1.258 . S
C168 O170 1.247 . S
C168 O172 1.258 . S
C169 O176 1.247 . S
C169 O177 1.258 . S
O170 C168 1.247 . S
O170 Zn171 2.028 . S
Zn171 O170 2.028 . S
Zn171 O175 2.035 . S
Zn171 O177 2.035 . S
Zn171 O178 2.028 . S
O172 C168 1.258 . S
O172 Zn173 2.035 . S
Zn173 O172 2.035 . S
Zn173 O174 2.028 . S
Zn173 O176 2.028 . S
Zn173 O179 2.035 . S
O174 Zn173 2.028 . S
O174 C180 1.247 . S
O175 Zn171 2.035 . S
O175 C180 1.258 . S
O176 C169 1.247 . S
O176 Zn173 2.028 . S
O177 C169 1.258 . S
O177 Zn171 2.035 . S
O178 Zn171 2.028 . S
O178 C181 1.247 . S
O179 Zn173 2.035 . S
O179 C181 1.258 . S
C180 O174 1.247 . S
C180 O175 1.258 . S
C181 O178 1.247 . S
C181 O179 1.258 . S
C182 O184 1.247 . S
C182 O186 1.258 . S
C183 O190 1.247 . S
C183 O191 1.258 . S
O184 C182 1.247 . S
O184 Zn185 2.028 . S
Zn185 O184 2.028 . S
Zn185 O189 2.035 . S
Zn185 O191 2.035 . S
Zn185 O192 2.028 . S
O186 C182 1.258 . S
O186 Zn187 2.035 . S
Zn187 O186 2.035 . S
Zn187 O188 2.028 . S
Zn187 O190 2.028 . S
Zn187 O193 2.035 . S
O188 Zn187 2.028 . S
O188 C194 1.247 . S
O189 Zn185 2.035 . S
O189 C194 1.258 . S
O190 C183 1.247 . S
O190 Zn187 2.028 . S
O191 C183 1.258 . S
O191 Zn185 2.035 . S
O192 Zn185 2.028 . S
O192 C195 1.247 . S
O193 Zn187 2.035 . S
O193 C195 1.258 . S
C194 O188 1.247 . S
C194 O189 1.258 . S
C195 O192 1.247 . S
C195 O193 1.258 . S
C196 O198 1.247 . S
C196 O200 1.258 . S
C197 O204 1.247 . S
C197 O205 1.258 . S
O198 C196 1.247 . S
O198 Zn199 2.028 . S
Zn199 O198 2.028 . S
Zn199 O203 2.035 1_554 S
Zn199 O205 2.035 . S
Zn199 O206 2.028 . S
O200 C196 1.258 . S
O200 Zn201 2.035 . S
Zn201 O200 2.035 . S
Zn201 O202 2.028 1_554 S
Zn201 O204 2.028 . S
Zn201 O207 2.035 . S
O202 Zn201 2.028 1_556 S
O202 C208 1.247 . S
O203 Zn199 2.035 1_556 S
O203 C208 1.258 . S
O204 C197 1.247 . S
O204 Zn201 2.028 . S
O205 C197 1.258 . S
O205 Zn199 2.035 . S
O206 Zn199 2.028 . S
O206 C209 1.247 . S
O207 Zn201 2.035 . S
O207 C209 1.258 . S
C208 O202 1.247 . S
C208 O203 1.258 . S
C209 O206 1.247 . S
C209 O207 1.258 . S
C210 O212 1.247 . S
C210 O214 1.258 . S
C211 O218 1.247 . S
C211 O219 1.258 . S
O212 C210 1.247 . S
O212 Zn213 2.028 . S
Zn213 O212 2.028 . S
Zn213 O217 2.035 . S
Zn213 O219 2.035 . S
Zn213 O220 2.028 . S
O214 C210 1.258 . S
O214 Zn215 2.035 . S
Zn215 O214 2.035 . S
Zn215 O216 2.028 . S
Zn215 O218 2.028 . S
Zn215 O221 2.035 . S
O216 Zn215 2.028 . S
O216 C222 1.247 . S
O217 Zn213 2.035 . S
O217 C222 1.258 . S
O218 C211 1.247 . S
O218 Zn215 2.028 . S
O219 C211 1.258 . S
O219 Zn213 2.035 . S
O220 Zn213 2.028 . S
O220 C223 1.247 . S
O221 Zn215 2.035 . S
O221 C223 1.258 . S
C222 O216 1.247 . S
C222 O217 1.258 . S
C223 O220 1.247 . S
C223 O221 1.258 . S
H224 C236 0.930 . S
H225 C238 0.930 . S
H226 C239 0.930 . S
H227 C243 0.959 . S
H228 C243 0.959 . S
H229 C243 0.961 . S
H230 C244 0.960 . S
H231 C244 0.961 . S
H232 C244 0.959 . S
H233 C247 0.929 . S
H234 C248 0.931 . S
H235 C250 0.930 . S
C236 H224 0.930 . S
C236 C237 1.399 . S
C236 C241 1.399 . S
C237 C236 1.399 . S
C237 C238 1.376 . S
C238 H225 0.930 . S
C238 C237 1.376 . S
C238 C239 1.388 . S
C239 H226 0.930 . S
C239 C238 1.388 . S
C239 C240 1.390 . S
C240 C239 1.390 . S
C240 C241 1.394 . S
C240 C246 1.465 . S
C241 C236 1.399 . S
C241 C240 1.394 . S
C241 C242 1.516 . S
C242 C241 1.516 . S
C242 C243 1.502 . S
C242 C244 1.561 . S
C242 C245 1.526 . S
C243 H227 0.959 . S
C243 H228 0.959 . S
C243 H229 0.961 . S
C243 C242 1.502 . S
C244 H230 0.960 . S
C244 H231 0.961 . S
C244 H232 0.959 . S
C244 C242 1.561 . S
C245 C242 1.526 . S
C245 C246 1.396 . S
C245 C250 1.390 . S
C246 C240 1.465 . S
C246 C245 1.396 . S
C246 C247 1.399 . S
C247 H233 0.929 . S
C247 C246 1.399 . S
C247 C248 1.385 . S
C248 H234 0.931 . S
C248 C247 1.385 . S
C248 C249 1.389 . S
C249 C248 1.389 . S
C249 C250 1.387 . S
C250 H235 0.930 . S
C250 C245 1.390 . S
C250 C249 1.387 . S
H251 C263 0.930 . S
H252 C265 0.930 . S
H253 C266 0.930 . S
H254 C270 0.959 . S
H255 C270 0.959 . S
H256 C270 0.961 . S
H257 C271 0.960 . S
H258 C271 0.961 . S
H259 C271 0.959 . S
H260 C274 0.929 . S
H261 C275 0.931 . S
H262 C277 0.930 . S
C263 H251 0.930 . S
C263 C264 1.399 . S
C263 C268 1.399 . S
C264 C263 1.399 . S
C264 C265 1.376 . S
C265 H252 0.930 . S
C265 C264 1.376 . S
C265 C266 1.388 . S
C266 H253 0.930 . S
C266 C265 1.388 . S
C266 C267 1.390 . S
C267 C266 1.390 . S
C267 C268 1.394 . S
C267 C273 1.465 . S
C268 C263 1.399 . S
C268 C267 1.394 . S
C268 C269 1.516 . S
C269 C268 1.516 . S
C269 C270 1.502 . S
C269 C271 1.561 . S
C269 C272 1.526 . S
C270 H254 0.959 . S
C270 H255 0.959 . S
C270 H256 0.961 . S
C270 C269 1.502 . S
C271 H257 0.960 . S
C271 H258 0.961 . S
C271 H259 0.959 . S
C271 C269 1.561 . S
C272 C269 1.526 . S
C272 C273 1.396 . S
C272 C277 1.390 . S
C273 C267 1.465 . S
C273 C272 1.396 . S
C273 C274 1.399 . S
C274 H260 0.929 . S
C274 C273 1.399 . S
C274 C275 1.385 . S
C275 H261 0.931 . S
C275 C274 1.385 . S
C275 C276 1.389 . S
C276 C275 1.389 . S
C276 C277 1.387 . S
C277 H262 0.930 . S
C277 C272 1.390 . S
C277 C276 1.387 . S
H278 C290 0.930 . S
H279 C292 0.930 . S
H280 C293 0.930 . S
H281 C297 0.959 . S
H282 C297 0.959 . S
H283 C297 0.961 . S
H284 C298 0.960 . S
H285 C298 0.961 . S
H286 C298 0.959 . S
H287 C301 0.929 . S
H288 C302 0.931 . S
H289 C304 0.930 . S
C290 H278 0.930 . S
C290 C291 1.399 . S
C290 C295 1.399 . S
C291 C290 1.399 . S
C291 C292 1.376 . S
C292 H279 0.930 . S
C292 C291 1.376 . S
C292 C293 1.388 . S
C293 H280 0.930 . S
C293 C292 1.388 . S
C293 C294 1.390 . S
C294 C293 1.390 . S
C294 C295 1.394 . S
C294 C300 1.465 . S
C295 C290 1.399 . S
C295 C294 1.394 . S
C295 C296 1.516 . S
C296 C295 1.516 . S
C296 C297 1.502 . S
C296 C298 1.561 . S
C296 C299 1.526 . S
C297 H281 0.959 . S
C297 H282 0.959 . S
C297 H283 0.961 . S
C297 C296 1.502 . S
C298 H284 0.960 . S
C298 H285 0.961 . S
C298 H286 0.959 . S
C298 C296 1.561 . S
C299 C296 1.526 . S
C299 C300 1.396 . S
C299 C304 1.390 . S
C300 C294 1.465 . S
C300 C299 1.396 . S
C300 C301 1.399 . S
C301 H287 0.929 . S
C301 C300 1.399 . S
C301 C302 1.385 . S
C302 H288 0.931 . S
C302 C301 1.385 . S
C302 C303 1.389 . S
C303 C302 1.389 . S
C303 C304 1.387 . S
C304 H289 0.930 . S
C304 C299 1.390 . S
C304 C303 1.387 . S
H305 C317 0.930 . S
H306 C319 0.930 . S
H307 C320 0.930 . S
H308 C324 0.959 . S
H309 C324 0.959 . S
H310 C324 0.961 . S
H311 C325 0.960 . S
H312 C325 0.961 . S
H313 C325 0.959 . S
H314 C328 0.929 . S
H315 C329 0.931 . S
H316 C331 0.930 . S
C317 H305 0.930 . S
C317 C318 1.399 . S
C317 C322 1.399 . S
C318 C317 1.399 . S
C318 C319 1.376 . S
C319 H306 0.930 . S
C319 C318 1.376 . S
C319 C320 1.388 . S
C320 H307 0.930 . S
C320 C319 1.388 . S
C320 C321 1.390 . S
C321 C320 1.390 . S
C321 C322 1.394 . S
C321 C327 1.465 . S
C322 C317 1.399 . S
C322 C321 1.394 . S
C322 C323 1.516 . S
C323 C322 1.516 . S
C323 C324 1.502 . S
C323 C325 1.561 . S
C323 C326 1.526 . S
C324 H308 0.959 . S
C324 H309 0.959 . S
C324 H310 0.961 . S
C324 C323 1.502 . S
C325 H311 0.960 . S
C325 H312 0.961 . S
C325 H313 0.959 . S
C325 C323 1.561 . S
C326 C323 1.526 . S
C326 C327 1.396 . S
C326 C331 1.390 . S
C327 C321 1.465 . S
C327 C326 1.396 . S
C327 C328 1.399 . S
C328 H314 0.929 . S
C328 C327 1.399 . S
C328 C329 1.385 . S
C329 H315 0.931 . S
C329 C328 1.385 . S
C329 C330 1.389 . S
C330 C329 1.389 . S
C330 C331 1.387 . S
C331 H316 0.930 . S
C331 C326 1.390 . S
C331 C330 1.387 . S
H332 C344 0.930 . S
H333 C346 0.930 . S
H334 C347 0.930 . S
H335 C351 0.959 . S
H336 C351 0.959 . S
H337 C351 0.961 . S
H338 C352 0.960 . S
H339 C352 0.961 . S
H340 C352 0.959 . S
H341 C355 0.929 . S
H342 C356 0.931 . S
H343 C358 0.930 . S
C344 H332 0.930 . S
C344 C345 1.399 . S
C344 C349 1.399 . S
C345 C344 1.399 . S
C345 C346 1.376 . S
C346 H333 0.930 . S
C346 C345 1.376 . S
C346 C347 1.388 . S
C347 H334 0.930 . S
C347 C346 1.388 . S
C347 C348 1.390 . S
C348 C347 1.390 . S
C348 C349 1.394 . S
C348 C354 1.465 . S
C349 C344 1.399 . S
C349 C348 1.394 . S
C349 C350 1.516 . S
C350 C349 1.516 . S
C350 C351 1.502 . S
C350 C352 1.561 . S
C350 C353 1.526 . S
C351 H335 0.959 . S
C351 H336 0.959 . S
C351 H337 0.961 . S
C351 C350 1.502 . S
C352 H338 0.960 . S
C352 H339 0.961 . S
C352 H340 0.959 . S
C352 C350 1.561 . S
C353 C350 1.526 . S
C353 C354 1.396 . S
C353 C358 1.390 . S
C354 C348 1.465 . S
C354 C353 1.396 . S
C354 C355 1.399 . S
C355 H341 0.929 . S
C355 C354 1.399 . S
C355 C356 1.385 . S
C356 H342 0.931 . S
C356 C355 1.385 . S
C356 C357 1.389 . S
C357 C356 1.389 . S
C357 C358 1.387 . S
C358 H343 0.930 . S
C358 C353 1.390 . S
C358 C357 1.387 . S
H359 C371 0.930 . S
H360 C373 0.930 . S
H361 C374 0.930 . S
H362 C378 0.959 . S
H363 C378 0.959 . S
H364 C378 0.961 . S
H365 C379 0.960 . S
H366 C379 0.961 . S
H367 C379 0.959 . S
H368 C382 0.929 . S
H369 C383 0.931 . S
H370 C385 0.930 . S
C371 H359 0.930 . S
C371 C372 1.399 . S
C371 C376 1.399 . S
C372 C371 1.399 . S
C372 C373 1.376 . S
C373 H360 0.930 . S
C373 C372 1.376 . S
C373 C374 1.388 . S
C374 H361 0.930 . S
C374 C373 1.388 . S
C374 C375 1.390 . S
C375 C374 1.390 . S
C375 C376 1.394 . S
C375 C381 1.465 . S
C376 C371 1.399 . S
C376 C375 1.394 . S
C376 C377 1.516 . S
C377 C376 1.516 . S
C377 C378 1.502 . S
C377 C379 1.561 . S
C377 C380 1.526 . S
C378 H362 0.959 . S
C378 H363 0.959 . S
C378 H364 0.961 . S
C378 C377 1.502 . S
C379 H365 0.960 . S
C379 H366 0.961 . S
C379 H367 0.959 . S
C379 C377 1.561 . S
C380 C377 1.526 . S
C380 C381 1.396 . S
C380 C385 1.390 . S
C381 C375 1.465 . S
C381 C380 1.396 . S
C381 C382 1.399 . S
C382 H368 0.929 . S
C382 C381 1.399 . S
C382 C383 1.385 . S
C383 H369 0.931 . S
C383 C382 1.385 . S
C383 C384 1.389 . S
C384 C383 1.389 . S
C384 C385 1.387 . S
C385 H370 0.930 . S
C385 C380 1.390 . S
C385 C384 1.387 . S
H386 C398 0.930 . S
H387 C400 0.930 . S
H388 C401 0.930 . S
H389 C405 0.959 . S
H390 C405 0.959 . S
H391 C405 0.961 . S
H392 C406 0.960 . S
H393 C406 0.961 . S
H394 C406 0.959 . S
H395 C409 0.929 . S
H396 C410 0.931 . S
H397 C412 0.930 . S
C398 H386 0.930 . S
C398 C399 1.399 . S
C398 C403 1.399 . S
C399 C398 1.399 . S
C399 C400 1.376 . S
C400 H387 0.930 . S
C400 C399 1.376 . S
C400 C401 1.388 . S
C401 H388 0.930 . S
C401 C400 1.388 . S
C401 C402 1.390 . S
C402 C401 1.390 . S
C402 C403 1.394 . S
C402 C408 1.465 . S
C403 C398 1.399 . S
C403 C402 1.394 . S
C403 C404 1.516 . S
C404 C403 1.516 . S
C404 C405 1.502 . S
C404 C406 1.561 . S
C404 C407 1.526 . S
C405 H389 0.959 . S
C405 H390 0.959 . S
C405 H391 0.961 . S
C405 C404 1.502 . S
C406 H392 0.960 . S
C406 H393 0.961 . S
C406 H394 0.959 . S
C406 C404 1.561 . S
C407 C404 1.526 . S
C407 C408 1.396 . S
C407 C412 1.390 . S
C408 C402 1.465 . S
C408 C407 1.396 . S
C408 C409 1.399 . S
C409 H395 0.929 . S
C409 C408 1.399 . S
C409 C410 1.385 . S
C410 H396 0.931 . S
C410 C409 1.385 . S
C410 C411 1.389 . S
C411 C410 1.389 . S
C411 C412 1.387 . S
C412 H397 0.930 . S
C412 C407 1.390 . S
C412 C411 1.387 . S
H413 C425 0.930 . S
H414 C427 0.930 . S
H415 C428 0.930 . S
H416 C432 0.959 . S
H417 C432 0.959 . S
H418 C432 0.961 . S
H419 C433 0.960 . S
H420 C433 0.961 . S
H421 C433 0.959 . S
H422 C436 0.929 . S
H423 C437 0.931 . S
H424 C439 0.930 . S
C425 H413 0.930 . S
C425 C426 1.399 . S
C425 C430 1.399 . S
C426 C425 1.399 . S
C426 C427 1.376 . S
C427 H414 0.930 . S
C427 C426 1.376 . S
C427 C428 1.388 . S
C428 H415 0.930 . S
C428 C427 1.388 . S
C428 C429 1.390 . S
C429 C428 1.390 . S
C429 C430 1.394 . S
C429 C435 1.465 . S
C430 C425 1.399 . S
C430 C429 1.394 . S
C430 C431 1.516 . S
C431 C430 1.516 . S
C431 C432 1.502 . S
C431 C433 1.561 . S
C431 C434 1.526 . S
C432 H416 0.959 . S
C432 H417 0.959 . S
C432 H418 0.961 . S
C432 C431 1.502 . S
C433 H419 0.960 . S
C433 H420 0.961 . S
C433 H421 0.959 . S
C433 C431 1.561 . S
C434 C431 1.526 . S
C434 C435 1.396 . S
C434 C439 1.390 . S
C435 C429 1.465 . S
C435 C434 1.396 . S
C435 C436 1.399 . S
C436 H422 0.929 . S
C436 C435 1.399 . S
C436 C437 1.385 . S
C437 H423 0.931 . S
C437 C436 1.385 . S
C437 C438 1.389 . S
C438 C437 1.389 . S
C438 C439 1.387 . S
C439 H424 0.930 . S
C439 C434 1.390 . S
C439 C438 1.387 . S
H440 C452 0.930 . S
H441 C454 0.930 . S
H442 C455 0.930 . S
H443 C459 0.959 . S
H444 C459 0.959 . S
H445 C459 0.961 . S
H446 C460 0.960 . S
H447 C460 0.961 1_565 S
H448 C460 0.959 . S
H449 C463 0.929 . S
H450 C464 0.931 . S
H451 C466 0.930 . S
C452 H440 0.930 . S
C452 C453 1.399 . S
C452 C457 1.399 . S
C453 C452 1.399 . S
C453 C454 1.376 . S
C454 H441 0.930 . S
C454 C453 1.376 . S
C454 C455 1.388 . S
C455 H442 0.930 . S
C455 C454 1.388 . S
C455 C456 1.390 . S
C456 C455 1.390 . S
C456 C457 1.394 . S
C456 C462 1.465 1_445 S
C457 C452 1.399 . S
C457 C456 1.394 . S
C457 C458 1.516 1_545 S
C458 C457 1.516 1_565 S
C458 C459 1.502 . S
C458 C460 1.561 1_465 S
C458 C461 1.526 1_455 S
C459 H443 0.959 . S
C459 H444 0.959 . S
C459 H445 0.961 . S
C459 C458 1.502 . S
C460 H446 0.960 . S
C460 H447 0.961 1_545 S
C460 H448 0.959 . S
C460 C458 1.561 1_645 S
C461 C458 1.526 1_655 S
C461 C462 1.396 . S
C461 C466 1.390 . S
C462 C456 1.465 1_665 S
C462 C461 1.396 . S
C462 C463 1.399 . S
C463 H449 0.929 . S
C463 C462 1.399 . S
C463 C464 1.385 . S
C464 H450 0.931 . S
C464 C463 1.385 . S
C464 C465 1.389 . S
C465 C464 1.389 . S
C465 C466 1.387 . S
C466 H451 0.930 . S
C466 C461 1.390 . S
C466 C465 1.387 . S
H467 C479 0.930 . S
H468 C481 0.930 . S
H469 C482 0.930 . S
H470 C486 0.959 . S
H471 C486 0.959 . S
H472 C486 0.961 . S
H473 C487 0.960 . S
H474 C487 0.961 . S
H475 C487 0.959 . S
H476 C490 0.929 . S
H477 C491 0.931 . S
H478 C493 0.930 . S
C479 H467 0.930 . S
C479 C480 1.399 . S
C479 C484 1.399 . S
C480 C479 1.399 . S
C480 C481 1.376 . S
C481 H468 0.930 . S
C481 C480 1.376 . S
C481 C482 1.388 . S
C482 H469 0.930 . S
C482 C481 1.388 . S
C482 C483 1.390 . S
C483 C482 1.390 . S
C483 C484 1.394 . S
C483 C489 1.465 1_655 S
C484 C479 1.399 . S
C484 C483 1.394 . S
C484 C485 1.514 . S
C485 C484 1.514 . S
C485 C486 1.500 . S
C485 C487 1.563 1_655 S
C485 C488 1.528 1_655 S
C486 H470 0.959 . S
C486 H471 0.959 . S
C486 H472 0.961 . S
C486 C485 1.500 . S
C487 H473 0.960 . S
C487 H474 0.961 . S
C487 H475 0.959 . S
C487 C485 1.563 1_455 S
C488 C485 1.528 1_455 S
C488 C489 1.396 . S
C488 C493 1.390 . S
C489 C483 1.465 1_455 S
C489 C488 1.396 . S
C489 C490 1.399 . S
C490 H476 0.929 . S
C490 C489 1.399 . S
C490 C491 1.385 . S
C491 H477 0.931 . S
C491 C490 1.385 . S
C491 C492 1.389 . S
C492 C491 1.389 . S
C492 C493 1.387 . S
C493 H478 0.930 . S
C493 C488 1.390 . S
C493 C492 1.387 . S
H494 C506 0.930 . S
H495 C508 0.930 . S
H496 C509 0.930 . S
H497 C513 0.959 . S
H498 C513 0.959 . S
H499 C513 0.961 . S
H500 C514 0.960 . S
H501 C514 0.961 . S
H502 C514 0.959 . S
H503 C517 0.929 . S
H504 C518 0.931 . S
H505 C520 0.930 . S
C506 H494 0.930 . S
C506 C507 1.399 . S
C506 C511 1.399 . S
C507 C506 1.399 . S
C507 C508 1.376 . S
C508 H495 0.930 . S
C508 C507 1.376 . S
C508 C509 1.388 . S
C509 H496 0.930 . S
C509 C508 1.388 . S
C509 C510 1.390 . S
C510 C509 1.390 . S
C510 C511 1.394 . S
C510 C516 1.465 . S
C511 C506 1.399 . S
C511 C510 1.394 . S
C511 C512 1.516 . S
C512 C511 1.516 . S
C512 C513 1.502 . S
C512 C514 1.561 . S
C512 C515 1.526 . S
C513 H497 0.959 . S
C513 H498 0.959 . S
C513 H499 0.961 . S
C513 C512 1.502 . S
C514 H500 0.960 . S
C514 H501 0.961 . S
C514 H502 0.959 . S
C514 C512 1.561 . S
C515 C512 1.526 . S
C515 C516 1.396 . S
C515 C520 1.390 . S
C516 C510 1.465 . S
C516 C515 1.396 . S
C516 C517 1.399 . S
C517 H503 0.929 . S
C517 C516 1.399 . S
C517 C518 1.385 . S
C518 H504 0.931 . S
C518 C517 1.385 . S
C518 C519 1.389 . S
C519 C518 1.389 . S
C519 C520 1.387 . S
C520 H505 0.930 . S
C520 C515 1.390 . S
C520 C519 1.387 . S
H521 C533 0.930 . S
H522 C535 0.930 . S
H523 C536 0.928 1_545 S
H524 C540 0.959 . S
H525 C540 0.959 . S
H526 C540 0.961 . S
H527 C541 0.960 1_565 S
H528 C541 0.961 . S
H529 C541 0.959 . S
H530 C544 0.929 . S
H531 C545 0.931 . S
H532 C547 0.930 . S
C533 H521 0.930 . S
C533 C534 1.399 . S
C533 C538 1.399 . S
C534 C533 1.399 . S
C534 C535 1.376 1_554 S
C535 H522 0.930 . S
C535 C534 1.376 1_556 S
C535 C536 1.388 . S
C536 H523 0.928 1_565 S
C536 C535 1.388 . S
C536 C537 1.390 1_556 S
C537 C536 1.390 1_554 S
C537 C538 1.394 . S
C537 C543 1.465 1_565 S
C538 C533 1.399 . S
C538 C537 1.394 . S
C538 C539 1.516 . S
C539 C538 1.516 . S
C539 C540 1.502 . S
C539 C541 1.561 1_565 S
C539 C542 1.526 1_565 S
C540 H524 0.959 . S
C540 H525 0.959 . S
C540 H526 0.961 . S
C540 C539 1.502 . S
C541 H527 0.960 1_545 S
C541 H528 0.961 . S
C541 H529 0.959 . S
C541 C539 1.561 1_545 S
C542 C539 1.526 1_545 S
C542 C543 1.396 . S
C542 C547 1.390 . S
C543 C537 1.465 1_545 S
C543 C542 1.396 . S
C543 C544 1.399 1_554 S
C544 H530 0.929 . S
C544 C543 1.399 1_556 S
C544 C545 1.385 . S
C545 H531 0.931 . S
C545 C544 1.385 . S
C545 C546 1.389 1_556 S
C546 C545 1.389 1_554 S
C546 C547 1.387 . S
C547 H532 0.930 . S
C547 C542 1.390 . S
C547 C546 1.387 . S
H548 C560 0.930 . S
H549 C562 0.930 . S
H550 C563 0.930 . S
H551 C567 0.959 . S
H552 C567 0.959 . S
H553 C567 0.961 . S
H554 C568 0.960 . S
H555 C568 0.961 . S
H556 C568 0.959 . S
H557 C571 0.929 . S
H558 C572 0.931 . S
H559 C574 0.930 . S
C560 H548 0.930 . S
C560 C561 1.399 . S
C560 C565 1.399 . S
C561 C560 1.399 . S
C561 C562 1.376 . S
C562 H549 0.930 . S
C562 C561 1.376 . S
C562 C563 1.388 1_455 S
C563 H550 0.930 . S
C563 C562 1.388 1_655 S
C563 C564 1.395 . S
C564 C563 1.395 . S
C564 C565 1.355 1_655 S
C564 C570 1.494 . S
C565 C560 1.399 . S
C565 C564 1.355 1_455 S
C565 C566 1.516 . S
C566 C565 1.516 . S
C566 C567 1.502 . S
C566 C568 1.561 1_554 S
C566 C569 1.526 1_455 S
C567 H551 0.959 . S
C567 H552 0.959 . S
C567 H553 0.961 . S
C567 C566 1.502 . S
C568 H554 0.960 . S
C568 H555 0.961 . S
C568 H556 0.959 . S
C568 C566 1.561 1_556 S
C569 C566 1.526 1_655 S
C569 C570 1.396 . S
C569 C574 1.390 . S
C570 C564 1.494 . S
C570 C569 1.396 . S
C570 C571 1.399 . S
C571 H557 0.929 . S
C571 C570 1.399 . S
C571 C572 1.385 . S
C572 H558 0.931 . S
C572 C571 1.385 . S
C572 C573 1.389 . S
C573 C572 1.389 . S
C573 C574 1.387 . S
C574 H559 0.930 . S
C574 C569 1.390 . S
C574 C573 1.387 . S
H575 C587 0.930 . S
H576 C589 0.930 . S
H577 C590 0.930 . S
H578 C594 0.959 . S
H579 C594 0.959 . S
H580 C594 0.961 . S
H581 C595 0.960 . S
H582 C595 0.961 . S
H583 C595 0.959 . S
H584 C598 0.929 . S
H585 C599 0.931 . S
H586 C601 0.930 . S
C587 H575 0.930 . S
C587 C588 1.399 . S
C587 C592 1.399 . S
C588 C587 1.399 . S
C588 C589 1.376 . S
C589 H576 0.930 . S
C589 C588 1.376 . S
C589 C590 1.388 . S
C590 H577 0.930 . S
C590 C589 1.388 . S
C590 C591 1.390 . S
C591 C590 1.390 . S
C591 C592 1.394 . S
C591 C597 1.465 . S
C592 C587 1.399 . S
C592 C591 1.394 . S
C592 C593 1.516 . S
C593 C592 1.516 . S
C593 C594 1.502 . S
C593 C595 1.561 . S
C593 C596 1.526 . S
C594 H578 0.959 . S
C594 H579 0.959 . S
C594 H580 0.961 . S
C594 C593 1.502 . S
C595 H581 0.960 . S
C595 H582 0.961 . S
C595 H583 0.959 . S
C595 C593 1.561 . S
C596 C593 1.526 . S
C596 C597 1.396 . S
C596 C601 1.390 . S
C597 C591 1.465 . S
C597 C596 1.396 . S
C597 C598 1.399 . S
C598 H584 0.929 . S
C598 C597 1.399 . S
C598 C599 1.385 . S
C599 H585 0.931 . S
C599 C598 1.385 . S
C599 C600 1.389 . S
C600 C599 1.389 . S
C600 C601 1.387 . S
C601 H586 0.930 . S
C601 C596 1.390 . S
C601 C600 1.387 . S
H602 C614 0.930 . S
H603 C616 0.930 . S
H604 C617 0.930 . S
H605 C621 0.959 . S
H606 C621 0.959 . S
H607 C621 0.961 . S
H608 C622 0.960 . S
H609 C622 0.961 1_565 S
H610 C622 0.959 . S
H611 C625 0.929 . S
H612 C626 0.931 . S
H613 C628 0.930 . S
C614 H602 0.930 . S
C614 C615 1.399 . S
C614 C619 1.399 . S
C615 C614 1.399 . S
C615 C616 1.376 . S
C616 H603 0.930 . S
C616 C615 1.376 . S
C616 C617 1.388 . S
C617 H604 0.930 . S
C617 C616 1.388 . S
C617 C618 1.390 . S
C618 C617 1.390 . S
C618 C619 1.394 . S
C618 C624 1.465 1_545 S
C619 C614 1.399 . S
C619 C618 1.394 . S
C619 C620 1.516 1_545 S
C620 C619 1.516 1_565 S
C620 C621 1.502 . S
C620 C622 1.561 1_565 S
C620 C623 1.526 . S
C621 H605 0.959 . S
C621 H606 0.959 . S
C621 H607 0.961 . S
C621 C620 1.502 . S
C622 H608 0.960 . S
C622 H609 0.961 1_545 S
C622 H610 0.959 . S
C622 C620 1.561 1_545 S
C623 C620 1.526 . S
C623 C624 1.396 . S
C623 C628 1.390 . S
C624 C618 1.465 1_565 S
C624 C623 1.396 . S
C624 C625 1.399 . S
C625 H611 0.929 . S
C625 C624 1.399 . S
C625 C626 1.385 . S
C626 H612 0.931 . S
C626 C625 1.385 . S
C626 C627 1.389 . S
C627 C626 1.389 . S
C627 C628 1.387 . S
C628 H613 0.930 . S
C628 C623 1.390 . S
C628 C627 1.387 . S
H629 C641 0.930 . S
H630 C643 0.930 . S
H631 C644 0.930 . S
H632 C648 0.959 . S
H633 C648 0.959 . S
H634 C648 0.961 . S
H635 C649 0.968 . S
H636 C649 0.961 1_655 S
H637 C649 0.959 . S
H638 C652 0.929 . S
H639 C653 0.931 . S
H640 C655 0.930 . S
C641 H629 0.930 . S
C641 C642 1.399 . S
C641 C646 1.399 . S
C642 C641 1.399 . S
C642 C643 1.376 . S
C643 H630 0.930 . S
C643 C642 1.376 . S
C643 C644 1.388 . S
C644 H631 0.930 . S
C644 C643 1.388 . S
C644 C645 1.390 . S
C645 C644 1.390 . S
C645 C646 1.394 . S
C645 C651 1.465 1_445 S
C646 C641 1.399 . S
C646 C645 1.394 . S
C646 C647 1.516 1_455 S
C647 C646 1.516 1_655 S
C647 C648 1.502 . S
C647 C649 1.561 1_645 S
C647 C650 1.526 1_545 S
C648 H632 0.959 . S
C648 H633 0.959 . S
C648 H634 0.961 . S
C648 C647 1.502 . S
C649 H635 0.968 . S
C649 H636 0.961 1_455 S
C649 H637 0.959 . S
C649 C647 1.561 1_465 S
C650 C647 1.526 1_565 S
C650 C651 1.396 . S
C650 C655 1.390 . S
C651 C645 1.465 1_665 S
C651 C650 1.396 . S
C651 C652 1.399 . S
C652 H638 0.929 . S
C652 C651 1.399 . S
C652 C653 1.385 . S
C653 H639 0.931 . S
C653 C652 1.385 . S
C653 C654 1.389 . S
C654 C653 1.389 . S
C654 C655 1.387 . S
C655 H640 0.930 . S
C655 C650 1.390 . S
C655 C654 1.387 . S
H656 C668 0.930 . S
H657 C670 0.930 . S
H658 C671 0.930 . S
H659 C675 0.959 . S
H660 C675 0.959 . S
H661 C675 0.961 . S
H662 C676 0.960 . S
H663 C676 0.961 . S
H664 C676 0.959 . S
H665 C679 0.929 . S
H666 C680 0.931 . S
H667 C682 0.930 . S
C668 H656 0.930 . S
C668 C669 1.399 . S
C668 C673 1.399 . S
C669 C668 1.399 . S
C669 C670 1.376 . S
C670 H657 0.930 . S
C670 C669 1.376 . S
C670 C671 1.388 . S
C671 H658 0.930 . S
C671 C670 1.388 . S
C671 C672 1.390 . S
C672 C671 1.390 . S
C672 C673 1.394 . S
C672 C678 1.465 . S
C673 C668 1.399 . S
C673 C672 1.394 . S
C673 C674 1.516 . S
C674 C673 1.516 . S
C674 C675 1.502 . S
C674 C676 1.561 . S
C674 C677 1.526 . S
C675 H659 0.959 . S
C675 H660 0.959 . S
C675 H661 0.961 . S
C675 C674 1.502 . S
C676 H662 0.960 . S
C676 H663 0.961 . S
C676 H664 0.959 . S
C676 C674 1.561 . S
C677 C674 1.526 . S
C677 C678 1.396 . S
C677 C682 1.390 . S
C678 C672 1.465 . S
C678 C677 1.396 . S
C678 C679 1.399 . S
C679 H665 0.929 . S
C679 C678 1.399 . S
C679 C680 1.385 . S
C680 H666 0.931 . S
C680 C679 1.385 . S
C680 C681 1.389 . S
C681 C680 1.389 . S
C681 C682 1.387 . S
C682 H667 0.930 . S
C682 C677 1.390 . S
C682 C681 1.387 . S
H683 C695 0.930 . S
H684 C697 0.930 . S
H685 C698 0.930 . S
H686 C702 0.959 . S
H687 C702 0.959 . S
H688 C702 0.961 . S
H689 C703 0.960 . S
H690 C703 0.961 . S
H691 C703 0.959 . S
H692 C706 0.929 . S
H693 C707 0.931 . S
H694 C709 0.930 . S
C695 H683 0.930 . S
C695 C696 1.399 . S
C695 C700 1.399 . S
C696 C695 1.399 . S
C696 C697 1.376 . S
C697 H684 0.930 . S
C697 C696 1.376 . S
C697 C698 1.388 . S
C698 H685 0.930 . S
C698 C697 1.388 . S
C698 C699 1.390 . S
C699 C698 1.390 . S
C699 C700 1.394 . S
C699 C705 1.465 . S
C700 C695 1.399 . S
C700 C699 1.394 . S
C700 C701 1.516 . S
C701 C700 1.516 . S
C701 C702 1.502 . S
C701 C703 1.561 . S
C701 C704 1.526 . S
C702 H686 0.959 . S
C702 H687 0.959 . S
C702 H688 0.961 . S
C702 C701 1.502 . S
C703 H689 0.960 . S
C703 H690 0.961 . S
C703 H691 0.959 . S
C703 C701 1.561 . S
C704 C701 1.526 . S
C704 C705 1.396 . S
C704 C709 1.390 . S
C705 C699 1.465 . S
C705 C704 1.396 . S
C705 C706 1.399 . S
C706 H692 0.929 . S
C706 C705 1.399 . S
C706 C707 1.385 . S
C707 H693 0.931 . S
C707 C706 1.385 . S
C707 C708 1.389 . S
C708 C707 1.389 . S
C708 C709 1.387 . S
C709 H694 0.930 . S
C709 C704 1.390 . S
C709 C708 1.387 . S
H710 C722 0.930 . S
H711 C724 0.930 . S
H712 C725 0.930 . S
H713 C729 0.959 . S
H714 C729 0.959 . S
H715 C729 0.961 . S
H716 C730 0.960 . S
H717 C730 0.961 . S
H718 C730 0.959 . S
H719 C733 0.929 . S
H720 C734 0.931 . S
H721 C736 0.930 . S
C722 H710 0.930 . S
C722 C723 1.399 . S
C722 C727 1.399 . S
C723 C722 1.399 . S
C723 C724 1.376 . S
C724 H711 0.930 . S
C724 C723 1.376 . S
C724 C725 1.388 . S
C725 H712 0.930 . S
C725 C724 1.388 . S
C725 C726 1.390 . S
C726 C725 1.390 . S
C726 C727 1.394 . S
C726 C732 1.465 . S
C727 C722 1.399 . S
C727 C726 1.394 . S
C727 C728 1.516 . S
C728 C727 1.516 . S
C728 C729 1.502 . S
C728 C730 1.561 . S
C728 C731 1.526 1_554 S
C729 H713 0.959 . S
C729 H714 0.959 . S
C729 H715 0.961 . S
C729 C728 1.502 . S
C730 H716 0.960 . S
C730 H717 0.961 . S
C730 H718 0.959 . S
C730 C728 1.561 . S
C731 C728 1.526 1_556 S
C731 C732 1.396 1_556 S
C731 C736 1.390 . S
C732 C726 1.465 . S
C732 C731 1.396 1_554 S
C732 C733 1.399 1_554 S
C733 H719 0.929 . S
C733 C732 1.399 1_556 S
C733 C734 1.385 . S
C734 H720 0.931 . S
C734 C733 1.385 . S
C734 C735 1.389 . S
C735 C734 1.389 . S
C735 C736 1.387 . S
C736 H721 0.930 . S
C736 C731 1.390 . S
C736 C735 1.387 . S
H737 C749 0.930 . S
H738 C751 0.930 . S
H739 C752 0.930 . S
H740 C756 0.959 . S
H741 C756 0.959 . S
H742 C756 0.961 . S
H743 C757 0.960 . S
H744 C757 0.961 . S
H745 C757 0.959 . S
H746 C760 0.929 . S
H747 C761 0.931 . S
H748 C763 0.930 . S
C749 H737 0.930 . S
C749 C750 1.399 . S
C749 C754 1.399 . S
C750 C749 1.399 . S
C750 C751 1.376 . S
C751 H738 0.930 . S
C751 C750 1.376 . S
C751 C752 1.388 . S
C752 H739 0.930 . S
C752 C751 1.388 . S
C752 C753 1.390 . S
C753 C752 1.390 . S
C753 C754 1.394 . S
C753 C759 1.465 . S
C754 C749 1.399 . S
C754 C753 1.394 . S
C754 C755 1.516 . S
C755 C754 1.516 . S
C755 C756 1.502 . S
C755 C757 1.561 . S
C755 C758 1.526 . S
C756 H740 0.959 . S
C756 H741 0.959 . S
C756 H742 0.961 . S
C756 C755 1.502 . S
C757 H743 0.960 . S
C757 H744 0.961 . S
C757 H745 0.959 . S
C757 C755 1.561 . S
C758 C755 1.526 . S
C758 C759 1.396 . S
C758 C763 1.390 . S
C759 C753 1.465 . S
C759 C758 1.396 . S
C759 C760 1.399 . S
C760 H746 0.929 . S
C760 C759 1.399 . S
C760 C761 1.385 . S
C761 H747 0.931 . S
C761 C760 1.385 . S
C761 C762 1.389 . S
C762 C761 1.389 . S
C762 C763 1.387 . S
C763 H748 0.930 . S
C763 C758 1.390 . S
C763 C762 1.387 . S
H764 C776 0.930 . S
H765 C778 0.930 . S
H766 C779 0.930 . S
H767 C783 0.959 . S
H768 C783 0.959 . S
H769 C783 0.961 . S
H770 C784 0.960 . S
H771 C784 0.961 . S
H772 C784 0.959 . S
H773 C787 0.929 . S
H774 C788 0.931 . S
H775 C790 0.930 . S
C776 H764 0.930 . S
C776 C777 1.399 . S
C776 C781 1.399 . S
C777 C776 1.399 . S
C777 C778 1.376 . S
C778 H765 0.930 . S
C778 C777 1.376 . S
C778 C779 1.388 . S
C779 H766 0.930 . S
C779 C778 1.388 . S
C779 C780 1.390 . S
C780 C779 1.390 . S
C780 C781 1.394 . S
C780 C786 1.465 . S
C781 C776 1.399 . S
C781 C780 1.394 . S
C781 C782 1.516 . S
C782 C781 1.516 . S
C782 C783 1.502 . S
C782 C784 1.561 . S
C782 C785 1.526 . S
C783 H767 0.959 . S
C783 H768 0.959 . S
C783 H769 0.961 . S
C783 C782 1.502 . S
C784 H770 0.960 . S
C784 H771 0.961 . S
C784 H772 0.959 . S
C784 C782 1.561 . S
C785 C782 1.526 . S
C785 C786 1.396 . S
C785 C790 1.390 . S
C786 C780 1.465 . S
C786 C785 1.396 . S
C786 C787 1.399 . S
C787 H773 0.929 . S
C787 C786 1.399 . S
C787 C788 1.385 . S
C788 H774 0.931 . S
C788 C787 1.385 . S
C788 C789 1.389 . S
C789 C788 1.389 . S
C789 C790 1.387 . S
C790 H775 0.930 . S
C790 C785 1.390 . S
C790 C789 1.387 . S
H791 C803 0.930 . S
H792 C805 0.930 . S
H793 C806 0.930 . S
H794 C810 0.959 . S
H795 C810 0.959 . S
H796 C810 0.961 . S
H797 C811 0.960 . S
H798 C811 0.961 . S
H799 C811 0.959 . S
H800 C814 0.929 . S
H801 C815 0.931 . S
H802 C817 0.930 . S
C803 H791 0.930 . S
C803 C804 1.399 . S
C803 C808 1.399 . S
C804 C803 1.399 . S
C804 C805 1.376 . S
C805 H792 0.930 . S
C805 C804 1.376 . S
C805 C806 1.388 . S
C806 H793 0.930 . S
C806 C805 1.388 . S
C806 C807 1.390 . S
C807 C806 1.390 . S
C807 C808 1.394 . S
C807 C813 1.465 . S
C808 C803 1.399 . S
C808 C807 1.394 . S
C808 C809 1.516 . S
C809 C808 1.516 . S
C809 C810 1.502 . S
C809 C811 1.561 . S
C809 C812 1.526 1_554 S
C810 H794 0.959 . S
C810 H795 0.959 . S
C810 H796 0.961 . S
C810 C809 1.502 . S
C811 H797 0.960 . S
C811 H798 0.961 . S
C811 H799 0.959 . S
C811 C809 1.561 . S
C812 C809 1.526 1_556 S
C812 C813 1.396 1_556 S
C812 C817 1.390 . S
C813 C807 1.465 . S
C813 C812 1.396 1_554 S
C813 C814 1.399 1_554 S
C814 H800 0.929 . S
C814 C813 1.399 1_556 S
C814 C815 1.385 . S
C815 H801 0.931 . S
C815 C814 1.385 . S
C815 C816 1.389 . S
C816 C815 1.389 . S
C816 C817 1.387 . S
C817 H802 0.930 . S
C817 C812 1.390 . S
C817 C816 1.387 . S
H818 C830 0.930 . S
H819 C832 0.930 . S
H820 C833 0.930 . S
H821 C837 0.959 . S
H822 C837 0.959 . S
H823 C837 0.961 . S
H824 C838 0.960 . S
H825 C838 0.961 . S
H826 C838 0.959 . S
H827 C841 0.929 . S
H828 C842 0.931 . S
H829 C844 0.930 . S
C830 H818 0.930 . S
C830 C831 1.399 . S
C830 C835 1.399 . S
C831 C830 1.399 . S
C831 C832 1.376 . S
C832 H819 0.930 . S
C832 C831 1.376 . S
C832 C833 1.388 . S
C833 H820 0.930 . S
C833 C832 1.388 . S
C833 C834 1.390 . S
C834 C833 1.390 . S
C834 C835 1.394 . S
C834 C840 1.465 . S
C835 C830 1.399 . S
C835 C834 1.394 . S
C835 C836 1.516 . S
C836 C835 1.516 . S
C836 C837 1.502 . S
C836 C838 1.561 . S
C836 C839 1.526 . S
C837 H821 0.959 . S
C837 H822 0.959 . S
C837 H823 0.961 . S
C837 C836 1.502 . S
C838 H824 0.960 . S
C838 H825 0.961 . S
C838 H826 0.959 . S
C838 C836 1.561 . S
C839 C836 1.526 . S
C839 C840 1.396 . S
C839 C844 1.390 . S
C840 C834 1.465 . S
C840 C839 1.396 . S
C840 C841 1.399 . S
C841 H827 0.929 . S
C841 C840 1.399 . S
C841 C842 1.385 . S
C842 H828 0.931 . S
C842 C841 1.385 . S
C842 C843 1.389 . S
C843 C842 1.389 . S
C843 C844 1.387 . S
C844 H829 0.930 . S
C844 C839 1.390 . S
C844 C843 1.387 . S
H845 C857 0.930 . S
H846 C859 0.930 . S
H847 C860 0.930 . S
H848 C864 0.959 . S
H849 C864 0.959 . S
H850 C864 0.961 . S
H851 C865 0.960 . S
H852 C865 0.961 . S
H853 C865 0.959 . S
H854 C868 0.929 . S
H855 C869 0.931 . S
H856 C871 0.930 . S
C857 H845 0.930 . S
C857 C858 1.399 . S
C857 C862 1.399 . S
C858 C857 1.399 . S
C858 C859 1.376 . S
C859 H846 0.930 . S
C859 C858 1.376 . S
C859 C860 1.388 . S
C860 H847 0.930 . S
C860 C859 1.388 . S
C860 C861 1.390 . S
C861 C860 1.390 . S
C861 C862 1.394 . S
C861 C867 1.465 . S
C862 C857 1.399 . S
C862 C861 1.394 . S
C862 C863 1.516 . S
C863 C862 1.516 . S
C863 C864 1.502 . S
C863 C865 1.561 . S
C863 C866 1.526 . S
C864 H848 0.959 . S
C864 H849 0.959 . S
C864 H850 0.961 . S
C864 C863 1.502 . S
C865 H851 0.960 . S
C865 H852 0.961 . S
C865 H853 0.959 . S
C865 C863 1.561 . S
C866 C863 1.526 . S
C866 C867 1.396 . S
C866 C871 1.390 . S
C867 C861 1.465 . S
C867 C866 1.396 . S
C867 C868 1.399 . S
C868 H854 0.929 . S
C868 C867 1.399 . S
C868 C869 1.385 . S
C869 H855 0.931 . S
C869 C868 1.385 . S
C869 C870 1.389 . S
C870 C869 1.389 . S
C870 C871 1.387 . S
C871 H856 0.930 . S
C871 C866 1.390 . S
C871 C870 1.387 . S
H872 C884 0.930 . S
H873 C886 0.930 . S
H874 C887 0.930 . S
H875 C891 0.959 . S
H876 C891 0.959 . S
H877 C891 0.961 . S
H878 C892 0.960 . S
H879 C892 0.961 . S
H880 C892 0.959 . S
H881 C895 0.929 . S
H882 C896 0.931 . S
H883 C898 0.930 . S
C884 H872 0.930 . S
C884 C885 1.399 . S
C884 C889 1.399 1_556 S
C885 C884 1.399 . S
C885 C886 1.376 . S
C886 H873 0.930 . S
C886 C885 1.376 . S
C886 C887 1.388 . S
C887 H874 0.930 . S
C887 C886 1.388 . S
C887 C888 1.390 1_556 S
C888 C887 1.390 1_554 S
C888 C889 1.394 . S
C888 C894 1.465 . S
C889 C884 1.399 1_554 S
C889 C888 1.394 . S
C889 C890 1.516 . S
C890 C889 1.516 . S
C890 C891 1.502 . S
C890 C892 1.561 . S
C890 C893 1.526 . S
C891 H875 0.959 . S
C891 H876 0.959 . S
C891 H877 0.961 . S
C891 C890 1.502 . S
C892 H878 0.960 . S
C892 H879 0.961 . S
C892 H880 0.959 . S
C892 C890 1.561 . S
C893 C890 1.526 . S
C893 C894 1.396 . S
C893 C898 1.390 . S
C894 C888 1.465 . S
C894 C893 1.396 . S
C894 C895 1.399 . S
C895 H881 0.929 . S
C895 C894 1.399 . S
C895 C896 1.385 . S
C896 H882 0.931 . S
C896 C895 1.385 . S
C896 C897 1.389 . S
C897 C896 1.389 . S
C897 C898 1.387 . S
C898 H883 0.930 . S
C898 C893 1.390 . S
C898 C897 1.387 . S
H899 C911 0.930 . S
H900 C913 0.930 . S
H901 C914 0.930 . S
H902 C918 0.959 . S
H903 C918 0.959 . S
H904 C918 0.961 . S
H905 C919 0.960 . S
H906 C919 0.961 . S
H907 C919 0.959 . S
H908 C922 0.929 . S
H909 C923 0.931 . S
H910 C925 0.930 . S
C911 H899 0.930 . S
C911 C912 1.399 . S
C911 C916 1.399 . S
C912 C911 1.399 . S
C912 C913 1.376 . S
C913 H900 0.930 . S
C913 C912 1.376 . S
C913 C914 1.388 . S
C914 H901 0.930 . S
C914 C913 1.388 . S
C914 C915 1.390 . S
C915 C914 1.390 . S
C915 C916 1.394 . S
C915 C921 1.465 . S
C916 C911 1.399 . S
C916 C915 1.394 . S
C916 C917 1.516 . S
C917 C916 1.516 . S
C917 C918 1.502 . S
C917 C919 1.561 . S
C917 C920 1.526 . S
C918 H902 0.959 . S
C918 H903 0.959 . S
C918 H904 0.961 . S
C918 C917 1.502 . S
C919 H905 0.960 . S
C919 H906 0.961 . S
C919 H907 0.959 . S
C919 C917 1.561 . S
C920 C917 1.526 . S
C920 C921 1.396 . S
C920 C925 1.390 . S
C921 C915 1.465 . S
C921 C920 1.396 . S
C921 C922 1.399 . S
C922 H908 0.929 . S
C922 C921 1.399 . S
C922 C923 1.385 . S
C923 H909 0.931 . S
C923 C922 1.385 . S
C923 C924 1.389 . S
C924 C923 1.389 . S
C924 C925 1.387 . S
C925 H910 0.930 . S
C925 C920 1.390 . S
C925 C924 1.387 . S
H926 C938 0.930 . S
H927 C940 0.930 . S
H928 C941 0.930 . S
H929 C945 0.959 . S
H930 C945 0.959 . S
H931 C945 0.961 . S
H932 C946 0.960 . S
H933 C946 0.961 . S
H934 C946 0.959 . S
H935 C949 0.929 . S
H936 C950 0.931 . S
H937 C952 0.930 . S
C938 H926 0.930 . S
C938 C939 1.399 . S
C938 C943 1.399 . S
C939 C938 1.399 . S
C939 C940 1.376 . S
C940 H927 0.930 . S
C940 C939 1.376 . S
C940 C941 1.388 . S
C941 H928 0.930 . S
C941 C940 1.388 . S
C941 C942 1.390 . S
C942 C941 1.390 . S
C942 C943 1.394 . S
C942 C948 1.465 . S
C943 C938 1.399 . S
C943 C942 1.394 . S
C943 C944 1.516 . S
C944 C943 1.516 . S
C944 C945 1.502 . S
C944 C946 1.561 . S
C944 C947 1.526 . S
C945 H929 0.959 . S
C945 H930 0.959 . S
C945 H931 0.961 . S
C945 C944 1.502 . S
C946 H932 0.960 . S
C946 H933 0.961 . S
C946 H934 0.959 . S
C946 C944 1.561 . S
C947 C944 1.526 . S
C947 C948 1.396 . S
C947 C952 1.390 . S
C948 C942 1.465 . S
C948 C947 1.396 . S
C948 C949 1.399 . S
C949 H935 0.929 . S
C949 C948 1.399 . S
C949 C950 1.385 . S
C950 H936 0.931 . S
C950 C949 1.385 . S
C950 C951 1.389 . S
C951 C950 1.389 . S
C951 C952 1.387 . S
C952 H937 0.930 . S
C952 C947 1.390 . S
C952 C951 1.387 . S
H953 C965 0.930 . S
H954 C967 0.930 . S
H955 C968 0.930 . S
H956 C972 0.959 . S
H957 C972 0.959 . S
H958 C972 0.961 . S
H959 C973 0.960 . S
H960 C973 0.961 . S
H961 C973 0.959 . S
H962 C976 0.929 . S
H963 C977 0.931 . S
H964 C979 0.930 . S
C965 H953 0.930 . S
C965 C966 1.399 . S
C965 C970 1.399 . S
C966 C965 1.399 . S
C966 C967 1.376 . S
C967 H954 0.930 . S
C967 C966 1.376 . S
C967 C968 1.388 . S
C968 H955 0.930 . S
C968 C967 1.388 . S
C968 C969 1.390 . S
C969 C968 1.390 . S
C969 C970 1.394 . S
C969 C975 1.465 . S
C970 C965 1.399 . S
C970 C969 1.394 . S
C970 C971 1.516 . S
C971 C970 1.516 . S
C971 C972 1.502 . S
C971 C973 1.561 . S
C971 C974 1.526 . S
C972 H956 0.959 . S
C972 H957 0.959 . S
C972 H958 0.961 . S
C972 C971 1.502 . S
C973 H959 0.960 . S
C973 H960 0.961 . S
C973 H961 0.959 . S
C973 C971 1.561 . S
C974 C971 1.526 . S
C974 C975 1.396 . S
C974 C979 1.390 . S
C975 C969 1.465 . S
C975 C974 1.396 . S
C975 C976 1.399 . S
C976 H962 0.929 . S
C976 C975 1.399 . S
C976 C977 1.385 . S
C977 H963 0.931 . S
C977 C976 1.385 . S
C977 C978 1.389 . S
C978 C977 1.389 . S
C978 C979 1.387 . S
C979 H964 0.930 . S
C979 C974 1.390 . S
C979 C978 1.387 . S
H980 C992 0.930 . S
H981 C994 0.930 . S
H982 C995 0.930 . S
H983 C999 0.959 . S
H984 C999 0.959 . S
H985 C999 0.961 . S
H986 C1000 0.960 . S
H987 C1000 0.961 . S
H988 C1000 0.959 . S
H989 C1003 0.929 . S
H990 C1004 0.931 . S
H991 C1006 0.930 . S
C992 H980 0.930 . S
C992 C993 1.399 . S
C992 C997 1.399 . S
C993 C992 1.399 . S
C993 C994 1.376 . S
C994 H981 0.930 . S
C994 C993 1.376 . S
C994 C995 1.388 . S
C995 H982 0.930 . S
C995 C994 1.388 . S
C995 C996 1.390 . S
C996 C995 1.390 . S
C996 C997 1.394 . S
C996 C1002 1.465 . S
C997 C992 1.399 . S
C997 C996 1.394 . S
C997 C998 1.516 . S
C998 C997 1.516 . S
C998 C999 1.502 . S
C998 C1000 1.561 . S
C998 C1001 1.526 . S
C999 H983 0.959 . S
C999 H984 0.959 . S
C999 H985 0.961 . S
C999 C998 1.502 . S
C1000 H986 0.960 . S
C1000 H987 0.961 . S
C1000 H988 0.959 . S
C1000 C998 1.561 . S
C1001 C998 1.526 . S
C1001 C1002 1.396 . S
C1001 C1006 1.390 . S
C1002 C996 1.465 . S
C1002 C1001 1.396 . S
C1002 C1003 1.399 . S
C1003 H989 0.929 . S
C1003 C1002 1.399 . S
C1003 C1004 1.385 . S
C1004 H990 0.931 . S
C1004 C1003 1.385 . S
C1004 C1005 1.389 . S
C1005 C1004 1.389 . S
C1005 C1006 1.387 . S
C1006 H991 0.930 . S
C1006 C1001 1.390 . S
C1006 C1005 1.387 . S
H1007 C1019 0.930 . S
H1008 C1021 0.930 . S
H1009 C1022 0.930 . S
H1010 C1026 0.959 . S
H1011 C1026 0.959 . S
H1012 C1026 0.961 . S
H1013 C1027 0.960 . S
H1014 C1027 0.961 . S
H1015 C1027 0.959 . S
H1016 C1030 0.929 . S
H1017 C1031 0.931 . S
H1018 C1033 0.930 . S
C1019 H1007 0.930 . S
C1019 C1020 1.399 . S
C1019 C1024 1.399 . S
C1020 C1019 1.399 . S
C1020 C1021 1.376 . S
C1021 H1008 0.930 . S
C1021 C1020 1.376 . S
C1021 C1022 1.388 . S
C1022 H1009 0.930 . S
C1022 C1021 1.388 . S
C1022 C1023 1.390 . S
C1023 C1022 1.390 . S
C1023 C1024 1.394 . S
C1023 C1029 1.465 . S
C1024 C1019 1.399 . S
C1024 C1023 1.394 . S
C1024 C1025 1.516 . S
C1025 C1024 1.516 . S
C1025 C1026 1.502 . S
C1025 C1027 1.561 . S
C1025 C1028 1.526 . S
C1026 H1010 0.959 . S
C1026 H1011 0.959 . S
C1026 H1012 0.961 . S
C1026 C1025 1.502 . S
C1027 H1013 0.960 . S
C1027 H1014 0.961 . S
C1027 H1015 0.959 . S
C1027 C1025 1.561 . S
C1028 C1025 1.526 . S
C1028 C1029 1.396 . S
C1028 C1033 1.390 . S
C1029 C1023 1.465 . S
C1029 C1028 1.396 . S
C1029 C1030 1.399 . S
C1030 H1016 0.929 . S
C1030 C1029 1.399 . S
C1030 C1031 1.385 . S
C1031 H1017 0.931 . S
C1031 C1030 1.385 . S
C1031 C1032 1.389 . S
C1032 C1031 1.389 . S
C1032 C1033 1.387 . S
C1033 H1018 0.930 . S
C1033 C1028 1.390 . S
C1033 C1032 1.387 . S
H1034 C1046 0.930 . S
H1035 C1048 0.930 . S
H1036 C1049 0.930 . S
H1037 C1053 0.959 . S
H1038 C1053 0.959 . S
H1039 C1053 0.961 . S
H1040 C1054 0.960 . S
H1041 C1054 0.961 . S
H1042 C1054 0.959 . S
H1043 C1057 0.929 . S
H1044 C1058 0.931 . S
H1045 C1060 0.930 . S
C1046 H1034 0.930 . S
C1046 C1047 1.399 . S
C1046 C1051 1.399 . S
C1047 C1046 1.399 . S
C1047 C1048 1.376 . S
C1048 H1035 0.930 . S
C1048 C1047 1.376 . S
C1048 C1049 1.388 . S
C1049 H1036 0.930 . S
C1049 C1048 1.388 . S
C1049 C1050 1.390 . S
C1050 C1049 1.390 . S
C1050 C1051 1.394 . S
C1050 C1056 1.465 . S
C1051 C1046 1.399 . S
C1051 C1050 1.394 . S
C1051 C1052 1.516 . S
C1052 C1051 1.516 . S
C1052 C1053 1.502 . S
C1052 C1054 1.561 . S
C1052 C1055 1.526 . S
C1053 H1037 0.959 . S
C1053 H1038 0.959 . S
C1053 H1039 0.961 . S
C1053 C1052 1.502 . S
C1054 H1040 0.960 . S
C1054 H1041 0.961 . S
C1054 H1042 0.959 . S
C1054 C1052 1.561 . S
C1055 C1052 1.526 . S
C1055 C1056 1.396 . S
C1055 C1060 1.390 . S
C1056 C1050 1.465 . S
C1056 C1055 1.396 . S
C1056 C1057 1.399 . S
C1057 H1043 0.929 . S
C1057 C1056 1.399 . S
C1057 C1058 1.385 . S
C1058 H1044 0.931 . S
C1058 C1057 1.385 . S
C1058 C1059 1.389 . S
C1059 C1058 1.389 . S
C1059 C1060 1.387 . S
C1060 H1045 0.930 . S
C1060 C1055 1.390 . S
C1060 C1059 1.387 . S
H1061 C1073 0.930 . S
H1062 C1075 0.930 . S
H1063 C1076 0.930 . S
H1064 C1080 0.959 . S
H1065 C1080 0.959 1_556 S
H1066 C1080 0.961 . S
H1067 C1081 0.960 . S
H1068 C1081 0.961 1_556 S
H1069 C1081 0.959 . S
H1070 C1084 0.929 1_554 S
H1071 C1085 0.931 . S
H1072 C1087 0.930 . S
C1073 H1061 0.930 . S
C1073 C1074 1.399 . S
C1073 C1078 1.399 . S
C1074 C1073 1.399 . S
C1074 C1075 1.376 . S
C1075 H1062 0.930 . S
C1075 C1074 1.376 . S
C1075 C1076 1.388 . S
C1076 H1063 0.930 . S
C1076 C1075 1.388 . S
C1076 C1077 1.390 . S
C1077 C1076 1.390 . S
C1077 C1078 1.394 . S
C1077 C1083 1.465 . S
C1078 C1073 1.399 . S
C1078 C1077 1.394 . S
C1078 C1079 1.516 . S
C1079 C1078 1.516 . S
C1079 C1080 1.502 . S
C1079 C1081 1.561 . S
C1079 C1082 1.526 1_554 S
C1080 H1064 0.959 . S
C1080 H1065 0.959 1_554 S
C1080 H1066 0.961 . S
C1080 C1079 1.502 . S
C1081 H1067 0.960 . S
C1081 H1068 0.961 1_554 S
C1081 H1069 0.959 . S
C1081 C1079 1.561 . S
C1082 C1079 1.526 1_556 S
C1082 C1083 1.396 1_556 S
C1082 C1087 1.390 . S
C1083 C1077 1.465 . S
C1083 C1082 1.396 1_554 S
C1083 C1084 1.399 1_554 S
C1084 H1070 0.929 1_556 S
C1084 C1083 1.399 1_556 S
C1084 C1085 1.385 . S
C1085 H1071 0.931 . S
C1085 C1084 1.385 . S
C1085 C1086 1.389 . S
C1086 C1085 1.389 . S
C1086 C1087 1.387 . S
C1087 H1072 0.930 . S
C1087 C1082 1.390 . S
C1087 C1086 1.387 . S
C237 C97 2.108 . S
C249 C13 2.098 . S
C264 C111 2.083 . S
C276 C27 2.067 . S
C291 C41 2.108 . S
C303 C56 2.101 1_556 S
C318 C55 2.100 . S
C330 C83 2.108 . S
C345 C112 2.109 . S
C357 C197 2.096 1_556 S
C372 C223 2.085 . S
C384 C139 2.068 . S
C399 C141 2.066 . S
C411 C168 2.069 . S
C426 C155 2.097 . S
C438 C182 2.109 . S
C453 C12 2.035 . S
C465 C140 2.010 . S
C480 C26 1.981 . S
C492 C154 2.000 . S
C507 C40 2.035 . S
C519 C113 2.004 . S
C534 C54 2.036 . S
C546 C138 2.007 . S
C561 C57 2.032 . S
C573 C196 1.989 . S
C588 C222 1.977 . S
C600 C82 2.015 . S
C615 C96 2.035 . S
C627 C169 2.006 . S
C642 C183 2.033 . S
C654 C110 2.008 . S
C669 C195 0.664 . S
C681 C0 0.723 . S
C696 C14 0.665 . S
C708 C208 0.721 . S
C723 C210 0.680 . S
C735 C28 0.683 . S
C750 C181 0.692 . S
C762 C42 0.674 . S
C777 C166 0.666 . S
C789 C69 0.705 . S
C804 C70 0.727 . S
C816 C125 0.679 . S
C831 C84 0.699 . S
C843 C126 0.720 . S
C858 C98 0.666 . S
C870 C152 0.722 . S
C885 C194 1.722 . S
C897 C1 1.740 . S
C912 C15 1.724 . S
C924 C209 1.715 . S
C939 C29 1.710 . S
C951 C211 1.738 . S
C966 C180 1.715 . S
C978 C43 1.741 . S
C993 C167 1.728 . S
C1005 C68 1.736 . S
C1020 C124 1.741 . S
C1032 C71 1.714 . S
C1047 C85 1.741 . S
C1059 C127 1.718 . S
C1074 C153 1.710 . S
C1086 C99 1.739 . S
