# Generated by pormake.
# Topology ure, (4)-cn, num edge types: 1
# Building blocks:
#     Node 0, Type 0, BuildingBlock: TATPOV_clean_sbu_0, # of connection points: 4
#     Node 1, Type 0, BuildingBlock: TATPOV_clean_sbu_0, # of connection points: 4
#     Node 2, Type 0, BuildingBlock: TATPOV_clean_sbu_0, # of connection points: 4
#     Node 3, Type 0, BuildingBlock: TATPOV_clean_sbu_0, # of connection points: 4
#     Node 4, Type 0, BuildingBlock: TATPOV_clean_sbu_0, # of connection points: 4
#     Node 5, Type 0, BuildingBlock: TATPOV_clean_sbu_0, # of connection points: 4
#     Node 6, Type 0, BuildingBlock: TATPOV_clean_sbu_0, # of connection points: 4
#     Node 7, Type 0, BuildingBlock: TATPOV_clean_sbu_0, # of connection points: 4
#     Node 8, Type 0, BuildingBlock: TATPOV_clean_sbu_0, # of connection points: 4
#     Node 9, Type 0, BuildingBlock: TATPOV_clean_sbu_0, # of connection points: 4
#     Node 10, Type 0, BuildingBlock: TATPOV_clean_sbu_0, # of connection points: 4
#     Node 11, Type 0, BuildingBlock: TATPOV_clean_sbu_0, # of connection points: 4
#     Node 12, Type 0, BuildingBlock: TATPOV_clean_sbu_0, # of connection points: 4
#     Node 13, Type 0, BuildingBlock: TATPOV_clean_sbu_0, # of connection points: 4
#     Node 14, Type 0, BuildingBlock: TATPOV_clean_sbu_0, # of connection points: 4
#     Node 15, Type 0, BuildingBlock: TATPOV_clean_sbu_0, # of connection points: 4
#     Edge 16, Type (0, 0), BuildingBlock: KIFKEQ_clean_linker_1, # of connection points: 2
#     Edge 17, Type (0, 0), BuildingBlock: KIFKEQ_clean_linker_1, # of connection points: 2
#     Edge 18, Type (0, 0), BuildingBlock: KIFKEQ_clean_linker_1, # of connection points: 2
#     Edge 19, Type (0, 0), BuildingBlock: KIFKEQ_clean_linker_1, # of connection points: 2
#     Edge 20, Type (0, 0), BuildingBlock: KIFKEQ_clean_linker_1, # of connection points: 2
#     Edge 21, Type (0, 0), BuildingBlock: KIFKEQ_clean_linker_1, # of connection points: 2
#     Edge 22, Type (0, 0), BuildingBlock: KIFKEQ_clean_linker_1, # of connection points: 2
#     Edge 23, Type (0, 0), BuildingBlock: KIFKEQ_clean_linker_1, # of connection points: 2
#     Edge 24, Type (0, 0), BuildingBlock: KIFKEQ_clean_linker_1, # of connection points: 2
#     Edge 25, Type (0, 0), BuildingBlock: KIFKEQ_clean_linker_1, # of connection points: 2
#     Edge 26, Type (0, 0), BuildingBlock: KIFKEQ_clean_linker_1, # of connection points: 2
#     Edge 27, Type (0, 0), BuildingBlock: KIFKEQ_clean_linker_1, # of connection points: 2
#     Edge 28, Type (0, 0), BuildingBlock: KIFKEQ_clean_linker_1, # of connection points: 2
#     Edge 29, Type (0, 0), BuildingBlock: KIFKEQ_clean_linker_1, # of connection points: 2
#     Edge 30, Type (0, 0), BuildingBlock: KIFKEQ_clean_linker_1, # of connection points: 2
#     Edge 31, Type (0, 0), BuildingBlock: KIFKEQ_clean_linker_1, # of connection points: 2
#     Edge 32, Type (0, 0), BuildingBlock: KIFKEQ_clean_linker_1, # of connection points: 2
#     Edge 33, Type (0, 0), BuildingBlock: KIFKEQ_clean_linker_1, # of connection points: 2
#     Edge 34, Type (0, 0), BuildingBlock: KIFKEQ_clean_linker_1, # of connection points: 2
#     Edge 35, Type (0, 0), BuildingBlock: KIFKEQ_clean_linker_1, # of connection points: 2
#     Edge 36, Type (0, 0), BuildingBlock: KIFKEQ_clean_linker_1, # of connection points: 2
#     Edge 37, Type (0, 0), BuildingBlock: KIFKEQ_clean_linker_1, # of connection points: 2
#     Edge 38, Type (0, 0), BuildingBlock: KIFKEQ_clean_linker_1, # of connection points: 2
#     Edge 39, Type (0, 0), BuildingBlock: KIFKEQ_clean_linker_1, # of connection points: 2
#     Edge 40, Type (0, 0), BuildingBlock: KIFKEQ_clean_linker_1, # of connection points: 2
#     Edge 41, Type (0, 0), BuildingBlock: KIFKEQ_clean_linker_1, # of connection points: 2
#     Edge 42, Type (0, 0), BuildingBlock: KIFKEQ_clean_linker_1, # of connection points: 2
#     Edge 43, Type (0, 0), BuildingBlock: KIFKEQ_clean_linker_1, # of connection points: 2
#     Edge 44, Type (0, 0), BuildingBlock: KIFKEQ_clean_linker_1, # of connection points: 2
#     Edge 45, Type (0, 0), BuildingBlock: KIFKEQ_clean_linker_1, # of connection points: 2
#     Edge 46, Type (0, 0), BuildingBlock: KIFKEQ_clean_linker_1, # of connection points: 2
#     Edge 47, Type (0, 0), BuildingBlock: KIFKEQ_clean_linker_1, # of connection points: 2
# Relax obj value: 0.113
# Max RMSD: 0.073
# Mean RMSD: 0.073
data_MOF--net-ure--node1-TATPOV_clean_sbu_0--edge1-KIFKEQ_clean_linker_1
_symmetry_space_group_name_H-M    P1
_symmetry_Int_Tables_number       1
_symmetry_cell_setting            triclinic
loop_
_symmetry_equiv_pos_as_xyz
'x, y, z'
_cell_length_a     33.394301
_cell_length_b     31.261755
_cell_length_c     31.241161
_cell_angle_alpha  90.034803
_cell_angle_beta   89.976769
_cell_angle_gamma 90.034622
loop_
_atom_site_label
_atom_site_type_symbol
_atom_site_fract_x
_atom_site_fract_y
_atom_site_fract_z
_atom_type_partial_charge
Zn0 Zn 0.30977 0.27649 0.29353 0.0
Zn1 Zn 0.26914 0.23124 0.24481 0.0
O2 O 0.32715 0.22444 0.21997 0.0
O3 O 0.35647 0.27744 0.25401 0.0
O4 O 0.2337 0.19321 0.20824 0.0
O5 O 0.30864 0.23576 0.34244 0.0
O6 O 0.25979 0.20626 0.30593 0.0
C7 C 0.35761 0.24853 0.22576 0.0
C8 C 0.24712 0.32496 0.26085 0.0
O9 O 0.24506 0.29214 0.23663 0.0
O10 O 0.27088 0.3249 0.29233 0.0
C11 C 0.21842 0.20505 0.17287 0.0
O12 O 0.22714 0.24317 0.1578 0.0
C13 C 0.27987 0.20958 0.34053 0.0
Zn14 Zn 0.93156 0.03577 0.51001 0.0
Zn15 Zn 0.97755 0.98303 0.4732 0.0
O16 O 0.91996 0.96071 0.45803 0.0
O17 O 0.88362 0.99847 0.50315 0.0
O18 O 0.01544 0.94586 0.43836 0.0
O19 O 0.94216 0.08389 0.46915 0.0
O20 O 0.99358 0.04367 0.45191 0.0
C21 C 0.88638 0.96876 0.47591 0.0
C22 C 0.98715 0.99938 0.56829 0.0
O23 O 0.99337 0.97419 0.53682 0.0
O24 O 0.96417 0.03123 0.56374 0.0
C25 C 0.0361 0.91473 0.45253 0.0
O26 O 0.03236 0.90338 0.49281 0.0
C27 C 0.97539 0.07949 0.45032 0.0
Zn28 Zn 0.19025 0.71892 0.80045 0.0
Zn29 Zn 0.22996 0.767 0.75489 0.0
O30 O 0.17119 0.77521 0.73243 0.0
O31 O 0.14351 0.71809 0.76089 0.0
O32 O 0.2647 0.80705 0.71918 0.0
O33 O 0.19021 0.75758 0.85118 0.0
O34 O 0.2391 0.78972 0.81705 0.0
C35 C 0.14134 0.74982 0.73601 0.0
C36 C 0.25269 0.67235 0.76647 0.0
O37 O 0.25424 0.70615 0.74356 0.0
O38 O 0.22934 0.67108 0.79827 0.0
C39 C 0.27945 0.79667 0.68305 0.0
O40 O 0.27085 0.75896 0.66687 0.0
C41 C 0.21845 0.7845 0.85106 0.0
Zn42 Zn 0.55303 0.97615 0.02955 0.0
Zn43 Zn 0.50827 0.0188 0.98393 0.0
O44 O 0.56479 0.04703 0.97603 0.0
O45 O 0.596 0.02042 0.03187 0.0
O46 O 0.47091 0.05375 0.94658 0.0
O47 O 0.55661 0.92767 0.98798 0.0
O48 O 0.50386 0.95734 0.95856 0.0
C49 C 0.59527 0.04613 0.00074 0.0
C50 C 0.48686 0.00016 0.0774 0.0
O51 O 0.48271 0.02441 0.04483 0.0
O52 O 0.51395 0.97197 0.07737 0.0
C53 C 0.46454 0.09316 0.95414 0.0
O54 O 0.48345 0.11153 0.98613 0.0
C55 C 0.52775 0.92565 0.96188 0.0
Zn56 Zn 0.34004 0.66974 0.17082 0.0
Zn57 Zn 0.29208 0.70967 0.22236 0.0
O58 O 0.3461 0.70936 0.256 0.0
O59 O 0.3826 0.66693 0.21548 0.0
O60 O 0.25263 0.73924 0.26214 0.0
O61 O 0.339 0.71719 0.12806 0.0
O62 O 0.29131 0.74646 0.16673 0.0
C63 C 0.37844 0.68856 0.24939 0.0
C64 C 0.27336 0.61838 0.19008 0.0
O65 O 0.26647 0.64949 0.2155 0.0
O66 O 0.30271 0.62029 0.16455 0.0
C67 C 0.24776 0.77959 0.26349 0.0
O68 O 0.26982 0.80405 0.23872 0.0
C69 C 0.31291 0.74608 0.13298 0.0
Zn70 Zn 0.57091 0.06998 0.41484 0.0
Zn71 Zn 0.52392 0.0259 0.46072 0.0
O72 O 0.57722 0.99072 0.46066 0.0
O73 O 0.60995 0.02198 0.40812 0.0
O74 O 0.48439 0.98932 0.49431 0.0
O75 O 0.57826 0.11375 0.46087 0.0
O76 O 0.52781 0.0834 0.49433 0.0
C77 C 0.60717 0.99214 0.43522 0.0
C78 C 0.5005 0.05625 0.36978 0.0
O79 O 0.49527 0.03107 0.40148 0.0
O80 O 0.53068 0.08063 0.36909 0.0
C81 C 0.4833 0.9865 0.53493 0.0
O82 O 0.50949 0.00807 0.55773 0.0
C83 C 0.55304 0.11398 0.49108 0.0
Zn84 Zn 0.15999 0.33072 0.66641 0.0
Zn85 Zn 0.21039 0.28668 0.7125 0.0
O86 O 0.15693 0.281 0.74614 0.0
O87 O 0.11892 0.32821 0.71315 0.0
O88 O 0.25078 0.25283 0.74723 0.0
O89 O 0.16087 0.28646 0.6198 0.0
O90 O 0.20962 0.25456 0.65465 0.0
C91 C 0.12419 0.30184 0.74329 0.0
C92 C 0.2273 0.38079 0.68739 0.0
O93 O 0.23526 0.34789 0.71007 0.0
O94 O 0.197 0.38064 0.66314 0.0
C95 C 0.25698 0.26011 0.78675 0.0
O96 O 0.23625 0.29025 0.80594 0.0
C97 C 0.18707 0.25729 0.62181 0.0
Zn98 Zn 0.90568 0.92988 0.93325 0.0
Zn99 Zn 0.95917 0.98138 0.96557 0.0
O100 O 0.90565 0.01501 0.97312 0.0
O101 O 0.86396 0.97572 0.93501 0.0
O102 O 1.00138 0.0199 0.99206 0.0
O103 O 0.91175 0.88772 0.98149 0.0
O104 O 0.96497 0.92497 0.99979 0.0
C105 C 0.87124 0.00922 0.9563 0.0
C106 C 0.96751 0.94881 0.8735 0.0
O107 O 0.97779 0.97515 0.90272 0.0
O108 O 0.93866 0.92331 0.87989 0.0
C109 C 0.0038 0.02414 0.03249 0.0
O110 O 0.97795 0.00385 0.05686 0.0
C111 C 0.94288 0.89196 0.00415 0.0
Zn112 Zn 0.79856 0.19927 0.69405 0.0
Zn113 Zn 0.75761 0.25293 0.73517 0.0
O114 O 0.81534 0.2642 0.75764 0.0
O115 O 0.84488 0.20567 0.73462 0.0
O116 O 0.72258 0.294 0.76893 0.0
O117 O 0.79645 0.23331 0.64004 0.0
O118 O 0.74858 0.2701 0.6712 0.0
C119 C 0.84572 0.23946 0.75686 0.0
C120 C 0.7362 0.15717 0.73409 0.0
O121 O 0.73483 0.19339 0.75286 0.0
O122 O 0.75921 0.15178 0.70246 0.0
C123 C 0.72126 0.29092 0.80953 0.0
O124 O 0.74351 0.26187 0.82842 0.0
C125 C 0.76884 0.26087 0.63774 0.0
Zn126 Zn 0.07468 0.55705 0.96672 0.0
Zn127 Zn 0.03088 0.50767 0.00996 0.0
O128 O 0.08851 0.48466 0.02221 0.0
O129 O 0.12144 0.51744 0.97073 0.0
O130 O 0.99387 0.47066 0.04563 0.0
O131 O 0.06879 0.6063 0.00752 0.0
O132 O 0.0182 0.5688 0.03233 0.0
C133 C 0.12041 0.48992 0.00029 0.0
C134 C 0.0158 0.52026 0.9144 0.0
O135 O 0.01168 0.49701 0.94767 0.0
O136 O 0.03875 0.55245 0.91558 0.0
C137 C 0.99379 0.43007 0.04304 0.0
O138 O 0.01917 0.41126 0.01697 0.0
C139 C 0.03792 0.60372 0.03079 0.0
Zn140 Zn 0.64776 0.79384 0.24332 0.0
Zn141 Zn 0.73541 0.73362 0.30666 0.0
O142 O 0.68403 0.71486 0.3408 0.0
O143 O 0.6686 0.76165 0.29416 0.0
O144 O 0.78146 0.69668 0.32669 0.0
O145 O 0.67576 0.75574 0.19899 0.0
O146 O 0.72599 0.72687 0.23877 0.0
C147 C 0.65668 0.73613 0.32272 0.0
C148 C 0.72481 0.81938 0.30058 0.0
O149 O 0.75098 0.79704 0.31949 0.0
O150 O 0.69703 0.79843 0.28253 0.0
C151 C 0.79088 0.70024 0.36599 0.0
O152 O 0.77036 0.7268 0.39012 0.0
C153 C 0.70727 0.73244 0.20291 0.0
Zn154 Zn 0.11014 0.4064 0.57054 0.0
Zn155 Zn 0.05974 0.45594 0.52782 0.0
O156 O 0.11381 0.48796 0.52153 0.0
O157 O 0.1521 0.45255 0.5668 0.0
O158 O 0.01998 0.49194 0.49488 0.0
O159 O 0.10587 0.36028 0.52526 0.0
O160 O 0.05629 0.39751 0.49758 0.0
C161 C 0.14682 0.48369 0.54159 0.0
C162 C 0.04383 0.43268 0.62179 0.0
O163 O 0.03653 0.45568 0.58901 0.0
O164 O 0.07261 0.40633 0.62109 0.0
C165 C 0.01468 0.53125 0.50368 0.0
O166 O 0.03618 0.54883 0.53421 0.0
C167 C 0.07756 0.36368 0.49854 0.0
Zn168 Zn 0.44058 0.5858 0.06803 0.0
Zn169 Zn 0.48568 0.54129 0.01921 0.0
O170 O 0.43118 0.50856 0.01835 0.0
O171 O 0.39918 0.53956 0.0716 0.0
O172 O 0.52219 0.50609 0.98087 0.0
O173 O 0.43571 0.63264 0.02465 0.0
O174 O 0.48367 0.6004 0.98887 0.0
C175 C 0.40107 0.51055 0.04349 0.0
C176 C 0.51139 0.56493 0.11117 0.0
O177 O 0.5156 0.5415 0.07796 0.0
O178 O 0.4821 0.59042 0.11359 0.0
C179 C 0.52991 0.46718 0.98944 0.0
O180 O 0.51344 0.44971 0.02341 0.0
C181 C 0.46041 0.63241 0.99394 0.0
Zn182 Zn 0.82001 0.82207 0.85586 0.0
Zn183 Zn 0.77515 0.77226 0.81068 0.0
O184 O 0.83078 0.76644 0.7814 0.0
O185 O 0.86291 0.82071 0.81046 0.0
O186 O 0.73908 0.73227 0.77685 0.0
O187 O 0.82104 0.78104 0.90554 0.0
O188 O 0.77109 0.74888 0.87277 0.0
C189 C 0.86129 0.79096 0.78307 0.0
C190 C 0.75209 0.86583 0.82494 0.0
O191 O 0.74923 0.83185 0.80253 0.0
O192 O 0.77819 0.86845 0.85417 0.0
C193 C 0.72951 0.74022 0.73824 0.0
O194 O 0.74365 0.77492 0.71994 0.0
C195 C 0.79311 0.7537 0.90581 0.0
Zn196 Zn 0.63208 0.15963 0.30577 0.0
Zn197 Zn 0.72069 0.22318 0.24634 0.0
O198 O 0.67316 0.23015 0.20318 0.0
O199 O 0.65475 0.18898 0.25378 0.0
O200 O 0.76524 0.26261 0.22643 0.0
O201 O 0.65118 0.20561 0.34762 0.0
O202 O 0.70187 0.23751 0.31108 0.0
C203 C 0.64527 0.20852 0.21991 0.0
C204 C 0.71723 0.13845 0.2632 0.0
O205 O 0.74332 0.16103 0.24443 0.0
O206 O 0.68575 0.15814 0.27426 0.0
C207 C 0.77842 0.25499 0.18896 0.0
O208 O 0.76249 0.2233 0.16715 0.0
C209 C 0.67964 0.23324 0.34488 0.0
Zn210 Zn 0.46564 0.46023 0.45064 0.0
Zn211 Zn 0.51031 0.50249 0.49717 0.0
O212 O 0.45331 0.52823 0.50791 0.0
O213 O 0.42125 0.50288 0.45199 0.0
O214 O 0.54744 0.53903 0.53337 0.0
O215 O 0.46497 0.41052 0.49076 0.0
O216 O 0.5168 0.44076 0.52167 0.0
C217 C 0.42214 0.52719 0.48426 0.0
C218 C 0.5289 0.48844 0.40148 0.0
O219 O 0.53358 0.51084 0.43533 0.0
O220 O 0.50267 0.45932 0.4009 0.0
C221 C 0.54194 0.54572 0.57311 0.0
O222 O 0.51091 0.52814 0.5921 0.0
C223 C 0.4935 0.40864 0.5173 0.0
H224 H 0.19225 0.12541 0.19635 0.0
H225 H 0.17783 0.2219 0.0986 0.0
H226 H 0.14166 0.08139 0.1614 0.0
H227 H 0.12665 0.17817 0.06409 0.0
H228 H 0.06299 0.06958 0.99185 0.0
H229 H 0.11626 0.11203 0.02449 0.0
H230 H 0.06993 0.08179 0.15001 0.0
H231 H 0.01725 0.03882 0.11752 0.0
C232 C 0.17836 0.13724 0.16736 0.0
C233 C 0.18908 0.17729 0.15038 0.0
C234 C 0.14912 0.11209 0.14746 0.0
C235 C 0.12983 0.12632 0.11005 0.0
C236 C 0.14113 0.16601 0.09261 0.0
C237 C 0.17037 0.19119 0.11254 0.0
C238 C 0.06416 0.072 0.02642 0.0
C239 C 0.03582 0.05072 0.05204 0.0
C240 C 0.09462 0.09651 0.04513 0.0
C241 C 0.09751 0.10025 0.08991 0.0
C242 C 0.06904 0.07907 0.11546 0.0
C243 C 0.03861 0.05464 0.09678 0.0
H244 H 0.08589 0.84796 0.47242 0.0
H245 H 0.05378 0.93284 0.36888 0.0
H246 H 0.13687 0.81502 0.4272 0.0
H247 H 0.10426 0.89945 0.32353 0.0
H248 H 0.22815 0.86413 0.27202 0.0
H249 H 0.17674 0.89561 0.31755 0.0
H250 H 0.14513 0.76994 0.36402 0.0
H251 H 0.19705 0.73844 0.31896 0.0
C252 C 0.08946 0.85941 0.43993 0.0
C253 C 0.06575 0.89316 0.42438 0.0
C254 C 0.11861 0.84037 0.41392 0.0
C255 C 0.12484 0.85469 0.37175 0.0
C256 C 0.10073 0.88806 0.35605 0.0
C257 C 0.07155 0.90702 0.382 0.0
C258 C 0.21033 0.84317 0.29199 0.0
C259 C 0.21679 0.79873 0.29178 0.0
C260 C 0.18062 0.86122 0.31791 0.0
C261 C 0.15663 0.83532 0.34436 0.0
C262 C 0.1633 0.79089 0.34439 0.0
C263 C 0.19297 0.77281 0.31838 0.0
H264 H 0.47329 0.97237 0.62083 0.0
H265 H 0.42365 0.93917 0.49753 0.0
H266 H 0.42341 0.92744 0.65586 0.0
H267 H 0.37323 0.89497 0.53261 0.0
H268 H 0.31821 0.78275 0.6071 0.0
H269 H 0.36671 0.82882 0.57148 0.0
H270 H 0.35274 0.92301 0.67161 0.0
H271 H 0.30481 0.87646 0.70776 0.0
C272 C 0.45164 0.95566 0.60116 0.0
C273 C 0.45262 0.95937 0.55631 0.0
C274 C 0.4228 0.93008 0.6213 0.0
C275 C 0.39416 0.90752 0.59714 0.0
C276 C 0.39509 0.91137 0.55227 0.0
C277 C 0.42394 0.93694 0.53212 0.0
C278 C 0.32534 0.81335 0.6215 0.0
C279 C 0.3076 0.82579 0.6604 0.0
C280 C 0.35305 0.83992 0.6009 0.0
C281 C 0.3638 0.8797 0.61862 0.0
C282 C 0.34568 0.89236 0.65731 0.0
C283 C 0.31795 0.86576 0.67792 0.0
H284 H 0.44569 0.17803 0.96078 0.0
H285 H 0.41667 0.06396 0.88905 0.0
H286 H 0.39644 0.21815 0.9197 0.0
H287 H 0.36667 0.10388 0.84862 0.0
H288 H 0.3081 0.19873 0.75598 0.0
H289 H 0.35896 0.15897 0.79535 0.0
H290 H 0.32523 0.22483 0.91152 0.0
H291 H 0.27513 0.26528 0.87198 0.0
C292 C 0.42876 0.16145 0.9363 0.0
C293 C 0.43516 0.11772 0.92829 0.0
C294 C 0.40027 0.18443 0.9129 0.0
C295 C 0.37734 0.16428 0.88092 0.0
C296 C 0.38405 0.12061 0.87263 0.0
C297 C 0.41262 0.09763 0.896 0.0
C298 C 0.31153 0.20474 0.78993 0.0
C299 C 0.28752 0.23529 0.81077 0.0
C300 C 0.34058 0.18174 0.81258 0.0
C301 C 0.34633 0.18866 0.85667 0.0
C302 C 0.32215 0.21911 0.87749 0.0
C303 C 0.29318 0.24215 0.85483 0.0
H304 H 0.71287 0.29256 0.89648 0.0
H305 H 0.66794 0.35141 0.78101 0.0
H306 H 0.66726 0.33586 0.93902 0.0
H307 H 0.62154 0.39423 0.82367 0.0
H308 H 0.57166 0.49392 0.91858 0.0
H309 H 0.61837 0.45255 0.87493 0.0
H310 H 0.59689 0.34171 0.95422 0.0
H311 H 0.551 0.38318 0.99827 0.0
C312 C 0.69321 0.31471 0.8801 0.0
C313 C 0.69407 0.31839 0.83526 0.0
C314 C 0.66681 0.33938 0.90454 0.0
C315 C 0.64044 0.3684 0.88484 0.0
C316 C 0.64166 0.37253 0.83999 0.0
C317 C 0.66815 0.34781 0.81548 0.0
C318 C 0.57689 0.46071 0.92667 0.0
C319 C 0.55763 0.44195 0.96206 0.0
C320 C 0.60354 0.4369 0.90148 0.0
C321 C 0.61159 0.39378 0.91108 0.0
C322 C 0.592 0.37501 0.94626 0.0
C323 C 0.56542 0.39877 0.97142 0.0
H324 H 0.98559 0.34305 0.04457 0.0
H325 H 0.93496 0.45891 0.09711 0.0
H326 H 0.93531 0.30096 0.08222 0.0
H327 H 0.8841 0.41678 0.13412 0.0
H328 H 0.81912 0.32301 0.22419 0.0
H329 H 0.87287 0.36501 0.19144 0.0
H330 H 0.8643 0.28795 0.07697 0.0
H331 H 0.8115 0.24575 0.10975 0.0
C332 C 0.96377 0.35958 0.06418 0.0
C333 C 0.96423 0.40441 0.06759 0.0
C334 C 0.93476 0.33543 0.08561 0.0
C335 C 0.9054 0.35546 0.11098 0.0
C336 C 0.90643 0.40025 0.11519 0.0
C337 C 0.93549 0.42443 0.09373 0.0
C338 C 0.82882 0.31503 0.19208 0.0
C339 C 0.81101 0.28095 0.16967 0.0
C340 C 0.85949 0.33922 0.17322 0.0
C341 C 0.87308 0.32977 0.1316 0.0
C342 C 0.85515 0.2957 0.10933 0.0
C343 C 0.82459 0.27164 0.12809 0.0
H344 H 0.96213 0.50375 0.44211 0.0
H345 H 0.99669 0.61591 0.5141 0.0
H346 H 0.90888 0.54458 0.40767 0.0
H347 H 0.94408 0.65686 0.47904 0.0
H348 H 0.81728 0.70148 0.44855 0.0
H349 H 0.87193 0.66091 0.47995 0.0
H350 H 0.89589 0.60246 0.35725 0.0
H351 H 0.84041 0.64263 0.32583 0.0
C352 C 0.95861 0.5372 0.45034 0.0
C353 C 0.98357 0.55647 0.48107 0.0
C354 C 0.9282 0.56068 0.43039 0.0
C355 C 0.92203 0.60398 0.44071 0.0
C356 C 0.94753 0.6234 0.47085 0.0
C357 C 0.97788 0.59995 0.49079 0.0
C358 C 0.83414 0.68001 0.42816 0.0
C359 C 0.82442 0.67534 0.38463 0.0
C360 C 0.86573 0.65693 0.44616 0.0
C361 C 0.8885 0.62856 0.42112 0.0
C362 C 0.87873 0.62374 0.37755 0.0
C363 C 0.84706 0.64692 0.35949 0.0
H364 H 0.53797 0.56808 0.65781 0.0
H365 H 0.60941 0.58616 0.54391 0.0
H366 H 0.58325 0.61461 0.69762 0.0
H367 H 0.65512 0.63194 0.58393 0.0
H368 H 0.70258 0.74888 0.65603 0.0
H369 H 0.65756 0.70179 0.61674 0.0
H370 H 0.65055 0.61791 0.72633 0.0
H371 H 0.695 0.66554 0.76601 0.0
C372 C 0.56344 0.58178 0.64128 0.0
C373 C 0.56995 0.57341 0.59759 0.0
C374 C 0.58957 0.60829 0.66421 0.0
C375 C 0.62288 0.62713 0.64404 0.0
C376 C 0.62948 0.61852 0.60039 0.0
C377 C 0.60336 0.59202 0.57746 0.0
C378 C 0.69149 0.72039 0.6718 0.0
C379 C 0.70245 0.71106 0.71423 0.0
C380 C 0.66581 0.69321 0.64913 0.0
C381 C 0.65041 0.65594 0.66827 0.0
C382 C 0.66141 0.64658 0.71073 0.0
C383 C 0.68712 0.67379 0.73342 0.0
H384 H 0.32259 0.19798 0.41353 0.0
H385 H 0.20525 0.17777 0.35908 0.0
H386 H 0.29517 0.19041 0.4847 0.0
H387 H 0.17762 0.16855 0.43088 0.0
H388 H 0.14588 0.25785 0.5465 0.0
H389 H 0.16558 0.22497 0.4798 0.0
H390 H 0.26235 0.15956 0.54413 0.0
H391 H 0.24347 0.19419 0.61123 0.0
C392 C 0.2911 0.19021 0.41675 0.0
C393 C 0.26584 0.18984 0.38082 0.0
C394 C 0.27531 0.18546 0.45777 0.0
C395 C 0.23388 0.18008 0.46374 0.0
C396 C 0.20952 0.17385 0.42743 0.0
C397 C 0.22539 0.17876 0.38623 0.0
C398 C 0.1709 0.23579 0.54679 0.0
C399 C 0.19384 0.22964 0.58399 0.0
C400 C 0.18191 0.21635 0.5084 0.0
C401 C 0.21597 0.19 0.50625 0.0
C402 C 0.23646 0.18041 0.54444 0.0
C403 C 0.2256 0.20019 0.58294 0.0
H404 H 0.95273 0.89574 0.8062 0.0
H405 H 0.02445 0.00482 0.84331 0.0
H406 H 0.97262 0.90581 0.7325 0.0
H407 H 0.04592 0.01353 0.76892 0.0
H408 H 0.99685 0.0557 0.63348 0.0
H409 H 0.00697 0.03921 0.70847 0.0
H410 H 0.02351 0.90582 0.67661 0.0
H411 H 0.01257 0.92247 0.60091 0.0
C412 C 0.97374 0.92113 0.79887 0.0
C413 C 0.98634 0.95007 0.8306 0.0
C414 C 0.9857 0.92638 0.75649 0.0
C415 C 0.01096 0.96027 0.74471 0.0
C416 C 0.02612 0.98728 0.77695 0.0
C417 C 0.01389 0.98225 0.81954 0.0
C418 C 0.00358 0.02297 0.64229 0.0
C419 C 0.00301 0.9902 0.61147 0.0
C420 C 0.00984 0.01356 0.68536 0.0
C421 C 0.01551 0.9711 0.69866 0.0
C422 C 0.01863 0.9388 0.66735 0.0
C423 C 0.01256 0.94831 0.62402 0.0
H424 H 0.17507 0.78763 0.92458 0.0
H425 H 0.28918 0.8249 0.87117 0.0
H426 H 0.20069 0.79865 0.99594 0.0
H427 H 0.31473 0.83792 0.94328 0.0
H428 H 0.3569 0.75598 0.0603 0.0
H429 H 0.33457 0.78626 0.99346 0.0
H430 H 0.22771 0.83379 0.05564 0.0
H431 H 0.24959 0.80142 0.12281 0.0
C432 C 0.20533 0.79964 0.92806 0.0
C433 C 0.23051 0.80402 0.89228 0.0
C434 C 0.22002 0.80649 0.96925 0.0
C435 C 0.26025 0.81816 0.97569 0.0
C436 C 0.28392 0.82776 0.93956 0.0
C437 C 0.26921 0.82061 0.89817 0.0
C438 C 0.32902 0.7737 0.0601 0.0
C439 C 0.30437 0.77503 0.09658 0.0
C440 C 0.31633 0.79165 0.02161 0.0
C441 C 0.27873 0.81168 0.01865 0.0
C442 C 0.25633 0.81753 0.05646 0.0
C443 C 0.26895 0.7992 0.09507 0.0
H444 H 0.44723 0.99319 0.34678 0.0
H445 H 0.49623 0.11408 0.30502 0.0
H446 H 0.42034 0.98113 0.27503 0.0
H447 H 0.47081 0.10154 0.23375 0.0
H448 H 0.44609 0.07222 0.1034 0.0
H449 H 0.42581 0.08859 0.17692 0.0
H450 H 0.45865 0.96043 0.21518 0.0
H451 H 0.47671 0.94382 0.14231 0.0
C452 C 0.4513 0.01771 0.32268 0.0
C453 C 0.47496 0.05389 0.33114 0.0
C454 C 0.43605 0.01075 0.28148 0.0
C455 C 0.44442 0.03976 0.24812 0.0
C456 C 0.46374 0.07839 0.25831 0.0
C457 C 0.47884 0.08537 0.2993 0.0
C458 C 0.44747 0.0472 0.12732 0.0
C459 C 0.4642 0.00719 0.11747 0.0
C460 C 0.43617 0.05663 0.16951 0.0
C461 C 0.44184 0.02635 0.20241 0.0
C462 C 0.45382 0.98476 0.19109 0.0
C463 C 0.46477 0.97531 0.14914 0.0
H464 H 0.38832 0.17284 0.19528 0.0
H465 H 0.41442 0.30755 0.20785 0.0
H466 H 0.45877 0.15939 0.17753 0.0
H467 H 0.48425 0.29414 0.19125 0.0
H468 H 0.61066 0.26338 0.16195 0.0
H469 H 0.5391 0.26977 0.14551 0.0
H470 H 0.51435 0.16258 0.22862 0.0
H471 H 0.5851 0.15557 0.24393 0.0
C472 C 0.40875 0.19966 0.19288 0.0
C473 C 0.39613 0.24111 0.20369 0.0
C474 C 0.44909 0.19195 0.18313 0.0
C475 C 0.47724 0.22555 0.18388 0.0
C476 C 0.46351 0.26751 0.19024 0.0
C477 C 0.42344 0.27516 0.20012 0.0
C478 C 0.58989 0.24069 0.17588 0.0
C479 C 0.60333 0.20955 0.20489 0.0
C480 C 0.54897 0.24433 0.16652 0.0
C481 C 0.52094 0.21668 0.18579 0.0
C482 C 0.53498 0.1839 0.21258 0.0
C483 C 0.57562 0.18036 0.22196 0.0
H484 H 0.00275 0.34036 0.47438 0.0
H485 H 0.12649 0.30189 0.4655 0.0
H486 H 0.98191 0.27163 0.44687 0.0
H487 H 0.1061 0.23395 0.43381 0.0
H488 H 0.05338 0.1001 0.46173 0.0
H489 H 0.08158 0.17135 0.45884 0.0
H490 H 0.97257 0.21779 0.39984 0.0
H491 H 0.94338 0.14669 0.40672 0.0
C492 C 0.02559 0.31764 0.46489 0.0
C493 C 0.06614 0.3261 0.47271 0.0
C494 C 0.0137 0.27802 0.44864 0.0
C495 C 0.04221 0.24625 0.43866 0.0
C496 C 0.08311 0.25667 0.44263 0.0
C497 C 0.09492 0.29583 0.4603 0.0
C498 C 0.03597 0.12535 0.447 0.0
C499 C 0.99607 0.11819 0.43506 0.0
C500 C 0.05217 0.16653 0.44516 0.0
C501 C 0.02906 0.20124 0.43027 0.0
C502 C 0.99079 0.19254 0.41328 0.0
C503 C 0.97416 0.15164 0.41653 0.0
H504 H 0.90153 0.84877 0.73448 0.0
H505 H 0.90133 0.71626 0.77248 0.0
H506 H 0.96736 0.83933 0.7013 0.0
H507 H 0.96852 0.70774 0.74364 0.0
H508 H 0.08966 0.69466 0.69829 0.0
H509 H 0.01759 0.70458 0.69127 0.0
H510 H 0.03101 0.83632 0.73144 0.0
H511 H 0.10312 0.82662 0.73573 0.0
C512 C 0.91554 0.81752 0.73527 0.0
C513 C 0.89669 0.78321 0.75609 0.0
C514 C 0.95344 0.81231 0.71696 0.0
C515 C 0.9741 0.77335 0.721 0.0
C516 C 0.95378 0.73826 0.73939 0.0
C517 C 0.91522 0.74306 0.75625 0.0
C518 C 0.07718 0.7262 0.70371 0.0
C519 C 0.10176 0.75983 0.71778 0.0
C520 C 0.03581 0.73178 0.70033 0.0
C521 C 0.01802 0.77082 0.71214 0.0
C522 C 0.04329 0.80573 0.7219 0.0
C523 C 0.08485 0.80032 0.72434 0.0
H524 H 0.51963 0.65203 0.93597 0.0
H525 H 0.41137 0.7019 0.993 0.0
H526 H 0.53412 0.7226 0.90616 0.0
H527 H 0.42636 0.77204 0.96488 0.0
H528 H 0.45735 0.89902 0.92498 0.0
H529 H 0.43781 0.82484 0.91194 0.0
H530 H 0.55809 0.78388 0.94253 0.0
H531 H 0.57767 0.85746 0.95383 0.0
C532 C 0.49849 0.67774 0.94135 0.0
C533 C 0.46492 0.67162 0.96778 0.0
C534 C 0.50686 0.71826 0.92444 0.0
C535 C 0.48191 0.75338 0.9338 0.0
C536 C 0.44629 0.74599 0.95666 0.0
C537 C 0.43788 0.70563 0.97334 0.0
C538 C 0.47991 0.87425 0.92729 0.0
C539 C 0.51874 0.88393 0.94162 0.0
C540 C 0.46866 0.83167 0.92015 0.0
C541 C 0.49602 0.79814 0.92737 0.0
C542 C 0.53606 0.80857 0.93662 0.0
C543 C 0.54728 0.85097 0.94356 0.0
H544 H 0.59728 0.79195 0.30616 0.0
H545 H 0.61854 0.66464 0.35446 0.0
H546 H 0.52592 0.77843 0.30498 0.0
H547 H 0.54616 0.65098 0.35412 0.0
H548 H 0.4367 0.62936 0.26077 0.0
H549 H 0.50089 0.63949 0.29555 0.0
H550 H 0.46306 0.76411 0.33952 0.0
H551 H 0.39822 0.75381 0.30436 0.0
C552 C 0.5865 0.76124 0.31737 0.0
C553 C 0.61345 0.72906 0.32962 0.0
C554 C 0.54541 0.75365 0.31728 0.0
C555 C 0.53012 0.71353 0.3293 0.0
C556 C 0.55699 0.68213 0.34431 0.0
C557 C 0.59838 0.68992 0.34467 0.0
C558 C 0.44171 0.65856 0.2787 0.0
C559 C 0.41285 0.69127 0.279 0.0
C560 C 0.47852 0.66425 0.29893 0.0
C561 C 0.48763 0.70306 0.31937 0.0
C562 C 0.45726 0.73416 0.32322 0.0
C563 C 0.42007 0.72824 0.30331 0.0
H564 H 0.49369 0.13596 0.54818 0.0
H565 H 0.60551 0.18053 0.49467 0.0
H566 H 0.48128 0.2073 0.57722 0.0
H567 H 0.59242 0.25147 0.52167 0.0
H568 H 0.56348 0.38112 0.55478 0.0
H569 H 0.5811 0.3069 0.5706 0.0
H570 H 0.4601 0.26812 0.53986 0.0
H571 H 0.44248 0.34166 0.52608 0.0
C572 C 0.51605 0.16062 0.54347 0.0
C573 C 0.54998 0.15286 0.51805 0.0
C574 C 0.50886 0.20164 0.55988 0.0
C575 C 0.53529 0.23566 0.55082 0.0
C576 C 0.57133 0.2264 0.5295 0.0
C577 C 0.57864 0.18553 0.51346 0.0
C578 C 0.5404 0.35683 0.55297 0.0
C579 C 0.50191 0.36704 0.53803 0.0
C580 C 0.55052 0.3142 0.56171 0.0
C581 C 0.52237 0.28112 0.55541 0.0
C582 C 0.48274 0.29233 0.54522 0.0
C583 C 0.47266 0.33473 0.53675 0.0
H584 H 0.09166 0.22358 0.75473 0.0
H585 H 0.07736 0.35615 0.78893 0.0
H586 H 0.02283 0.20948 0.77505 0.0
H587 H 0.00883 0.34192 0.81262 0.0
H588 H 0.88053 0.31817 0.75919 0.0
H589 H 0.95061 0.33315 0.77395 0.0
H590 H 0.96684 0.20264 0.81689 0.0
H591 H 0.8973 0.18738 0.79895 0.0
C592 C 0.07424 0.24923 0.76881 0.0
C593 C 0.08937 0.29097 0.76989 0.0
C594 C 0.03454 0.24128 0.78058 0.0
C595 C 0.00947 0.27488 0.79448 0.0
C596 C 0.02658 0.31561 0.80051 0.0
C597 C 0.06596 0.32373 0.78758 0.0
C598 C 0.8989 0.29314 0.77293 0.0
C599 C 0.88385 0.25153 0.77732 0.0
C600 C 0.93924 0.30164 0.78164 0.0
C601 C 0.96507 0.2688 0.79577 0.0
C602 C 0.94845 0.22838 0.80466 0.0
C603 C 0.90847 0.21967 0.79483 0.0
H604 H 0.01952 0.8668 0.01787 0.0
H605 H 0.89711 0.8333 0.04647 0.0
H606 H 0.04132 0.79679 0.04084 0.0
H607 H 0.91893 0.76397 0.0732 0.0
H608 H 0.0792 0.66811 0.06946 0.0
H609 H 0.05501 0.74031 0.08326 0.0
H610 H 0.93656 0.70157 0.04195 0.0
H611 H 0.96039 0.62913 0.03218 0.0
C612 C 0.99747 0.84499 0.03095 0.0
C613 C 0.95661 0.85513 0.0297 0.0
C614 C 0.00994 0.80456 0.04447 0.0
C615 C 0.98188 0.77366 0.05812 0.0
C616 C 0.94139 0.78597 0.0614 0.0
C617 C 0.92882 0.82597 0.0466 0.0
C618 C 0.04768 0.67499 0.06497 0.0
C619 C 0.02168 0.64334 0.04944 0.0
C620 C 0.03381 0.71654 0.07225 0.0
C621 C 0.99398 0.72774 0.06239 0.0
C622 C 0.96733 0.6948 0.05033 0.0
C623 C 0.98098 0.65296 0.04447 0.0
H624 H 0.21808 0.34979 0.1826 0.0
H625 H 0.23209 0.39237 0.31329 0.0
H626 H 0.20536 0.42351 0.16042 0.0
H627 H 0.2205 0.4656 0.29123 0.0
H628 H 0.21263 0.59763 0.24605 0.0
H629 H 0.18578 0.52601 0.25969 0.0
H630 H 0.25857 0.47595 0.15706 0.0
H631 H 0.28328 0.54681 0.14175 0.0
C632 C 0.21706 0.37461 0.20679 0.0
C633 C 0.22723 0.36558 0.24943 0.0
C634 C 0.20998 0.41686 0.19409 0.0
C635 C 0.21299 0.45058 0.22388 0.0
C636 C 0.21799 0.44059 0.26737 0.0
C637 C 0.22506 0.39852 0.28 0.0
C638 C 0.22174 0.5715 0.22546 0.0
C639 C 0.2506 0.57785 0.1933 0.0
C640 C 0.20643 0.53049 0.23332 0.0
C641 C 0.21991 0.4952 0.20929 0.0
C642 C 0.2465 0.5024 0.17524 0.0
C643 C 0.26129 0.54318 0.16701 0.0
H644 H 0.74151 0.12969 0.81583 0.0
H645 H 0.69045 0.09813 0.69315 0.0
H646 H 0.73064 0.05696 0.83991 0.0
H647 H 0.6756 0.02601 0.71833 0.0
H648 H 0.73385 0.89444 0.74534 0.0
H649 H 0.71426 0.96661 0.72636 0.0
H650 H 0.69765 0.9966 0.86056 0.0
H651 H 0.72074 0.9251 0.87918 0.0
C652 C 0.72585 0.10765 0.7949 0.0
C653 C 0.71701 0.11919 0.75266 0.0
C654 C 0.71933 0.06573 0.80873 0.0
C655 C 0.70274 0.03483 0.78096 0.0
C656 C 0.68967 0.04823 0.74025 0.0
C657 C 0.69754 0.08974 0.72593 0.0
C658 C 0.725 0.91622 0.77062 0.0
C659 C 0.72942 0.9046 0.81365 0.0
C660 C 0.71348 0.95781 0.75984 0.0
C661 C 0.70518 0.98834 0.79194 0.0
C662 C 0.70527 0.97478 0.83493 0.0
C663 C 0.71802 0.93361 0.84569 0.0
H664 H 0.36374 0.49392 0.96827 0.0
H665 H 0.35684 0.4695 0.10382 0.0
H666 H 0.29469 0.47124 0.95995 0.0
H667 H 0.28867 0.44275 0.09536 0.0
H668 H 0.15812 0.49036 0.077 0.0
H669 H 0.22904 0.47821 0.08791 0.0
H670 H 0.23918 0.42845 0.95912 0.0
H671 H 0.16852 0.44433 0.94748 0.0
C672 C 0.34794 0.48159 0.99595 0.0
C673 C 0.36528 0.48388 0.03669 0.0
C674 C 0.30815 0.46837 0.99131 0.0
C675 C 0.28522 0.45617 0.02729 0.0
C676 C 0.30458 0.45364 0.06724 0.0
C677 C 0.34388 0.46826 0.07205 0.0
C678 C 0.17529 0.47536 0.05167 0.0
C679 C 0.15813 0.46847 0.01141 0.0
C680 C 0.2162 0.46818 0.05786 0.0
C681 C 0.24058 0.45305 0.02416 0.0
C682 C 0.22195 0.44146 0.98543 0.0
C683 C 0.1813 0.44989 0.97888 0.0
H684 H 0.77841 0.08537 0.23796 0.0
H685 H 0.6679 0.08773 0.30995 0.0
H686 H 0.78324 0.00792 0.24963 0.0
H687 H 0.67304 0.01125 0.32196 0.0
H688 H 0.66407 0.87248 0.27993 0.0
H689 H 0.66561 0.94984 0.27316 0.0
H690 H 0.79107 0.95048 0.30684 0.0
H691 H 0.78942 0.87223 0.31403 0.0
C692 C 0.75546 0.06947 0.25659 0.0
C693 C 0.7225 0.09248 0.27251 0.0
C694 C 0.75833 0.02528 0.26346 0.0
C695 C 0.72825 0.00352 0.28624 0.0
C696 C 0.69628 0.02698 0.30359 0.0
C697 C 0.6934 0.07088 0.29674 0.0
C698 C 0.69201 0.88905 0.28599 0.0
C699 C 0.7266 0.8664 0.29762 0.0
C700 C 0.69284 0.9334 0.28232 0.0
C701 C 0.72838 0.95624 0.28981 0.0
C702 C 0.7633 0.93363 0.30078 0.0
C703 C 0.76229 0.88901 0.30518 0.0
H704 H 0.83096 0.05508 0.89676 0.0
H705 H 0.83539 0.02752 0.03172 0.0
H706 H 0.76493 0.08728 0.90543 0.0
H707 H 0.76832 0.05603 0.04042 0.0
H708 H 0.63168 0.04833 0.92325 0.0
H709 H 0.70284 0.05785 0.91187 0.0
H710 H 0.71593 0.10271 0.04219 0.0
H711 H 0.64481 0.08979 0.05406 0.0
C712 C 0.81803 0.05703 0.92853 0.0
C713 C 0.83801 0.03908 0.96366 0.0
C714 C 0.7799 0.07481 0.93348 0.0
C715 C 0.76026 0.07327 0.97337 0.0
C716 C 0.78206 0.05842 0.00915 0.0
C717 C 0.82069 0.04185 0.00434 0.0
C718 C 0.64954 0.06184 0.94887 0.0
C719 C 0.63299 0.06785 0.98962 0.0
C720 C 0.69067 0.06735 0.94245 0.0
C721 C 0.71592 0.07981 0.97651 0.0
C722 C 0.69799 0.09141 0.01563 0.0
C723 C 0.65707 0.08473 0.02234 0.0
H724 H 0.28135 0.64991 0.68704 0.0
H725 H 0.26842 0.60352 0.81647 0.0
H726 H 0.29487 0.57698 0.66266 0.0
H727 H 0.28014 0.53118 0.79231 0.0
H728 H 0.2859 0.40062 0.74622 0.0
H729 H 0.31298 0.47177 0.76133 0.0
H730 H 0.24608 0.52279 0.65467 0.0
H731 H 0.22096 0.4523 0.6384 0.0
C732 C 0.28262 0.6244 0.71046 0.0
C733 C 0.27269 0.63219 0.75343 0.0
C734 C 0.29003 0.58253 0.69649 0.0
C735 C 0.28739 0.54788 0.72527 0.0
C736 C 0.28242 0.55673 0.76906 0.0
C737 C 0.27524 0.59839 0.78294 0.0
C738 C 0.27806 0.42688 0.72525 0.0
C739 C 0.2505 0.42098 0.69179 0.0
C740 C 0.29345 0.46771 0.73397 0.0
C741 C 0.28133 0.50332 0.70954 0.0
C742 C 0.25668 0.49634 0.67379 0.0
C743 C 0.24165 0.45574 0.66489 0.0
H744 H 0.1809 0.50122 0.46497 0.0
H745 H 0.19007 0.5285 0.59975 0.0
H746 H 0.24741 0.53049 0.45355 0.0
H747 H 0.25557 0.56159 0.58828 0.0
H748 H 0.38898 0.52618 0.56349 0.0
H749 H 0.31803 0.53283 0.57866 0.0
H750 H 0.29804 0.57977 0.45006 0.0
H751 H 0.36892 0.56981 0.43444 0.0
C752 C 0.19661 0.51538 0.49182 0.0
C753 C 0.18088 0.51226 0.53322 0.0
C754 C 0.23484 0.53247 0.48541 0.0
C755 C 0.25772 0.54768 0.52027 0.0
C756 C 0.23969 0.54871 0.56099 0.0
C757 C 0.202 0.53032 0.56755 0.0
C758 C 0.36959 0.53949 0.53909 0.0
C759 C 0.38417 0.54696 0.49771 0.0
C760 C 0.32863 0.54335 0.54766 0.0
C761 C 0.30164 0.55561 0.51513 0.0
C762 C 0.31746 0.56862 0.47543 0.0
C763 C 0.35821 0.5636 0.46659 0.0
H764 H 0.84442 0.7269 0.9681 0.0
H765 H 0.71906 0.73393 0.93583 0.0
H766 H 0.82727 0.70468 0.04051 0.0
H767 H 0.70141 0.71548 0.00868 0.0
H768 H 0.67022 0.68657 0.14055 0.0
H769 H 0.69428 0.67493 0.06783 0.0
H770 H 0.80635 0.73614 0.10162 0.0
H771 H 0.78314 0.74379 0.17479 0.0
C772 C 0.81313 0.72317 0.97652 0.0
C773 C 0.78304 0.73233 0.94654 0.0
C774 C 0.80316 0.71095 0.01825 0.0
C775 C 0.76281 0.70913 0.03143 0.0
C776 C 0.73283 0.71579 0.00029 0.0
C777 C 0.74287 0.72669 0.95824 0.0
C778 C 0.70054 0.69593 0.13248 0.0
C779 C 0.72491 0.71601 0.16301 0.0
C780 C 0.71423 0.68997 0.0906 0.0
C781 C 0.75199 0.70568 0.07787 0.0
C782 C 0.7773 0.72308 0.10963 0.0
C783 C 0.76404 0.72767 0.15185 0.0
H784 H 0.56692 0.56328 0.37854 0.0
H785 H 0.53755 0.43686 0.33242 0.0
H786 H 0.58488 0.58473 0.30579 0.0
H787 H 0.5533 0.45832 0.26034 0.0
H788 H 0.51835 0.61909 0.1788 0.0
H789 H 0.54349 0.60196 0.24904 0.0
H790 H 0.58894 0.48159 0.20126 0.0
H791 H 0.56221 0.49843 0.13049 0.0
C792 C 0.56529 0.53977 0.3531 0.0
C793 C 0.54977 0.49876 0.36097 0.0
C794 C 0.57525 0.55211 0.31127 0.0
C795 C 0.56953 0.52372 0.27663 0.0
C796 C 0.55832 0.48131 0.28569 0.0
C797 C 0.5487 0.46901 0.32728 0.0
C798 C 0.53446 0.5893 0.18295 0.0
C799 C 0.53695 0.55938 0.14947 0.0
C800 C 0.54932 0.57956 0.22346 0.0
C801 C 0.56695 0.53957 0.2316 0.0
C802 C 0.57418 0.51206 0.19661 0.0
C803 C 0.55914 0.5218 0.15589 0.0
H804 H 0.74665 0.28175 0.36225 0.0
H805 H 0.63495 0.23909 0.41774 0.0
H806 H 0.76819 0.30739 0.43247 0.0
H807 H 0.65701 0.26272 0.48739 0.0
H808 H 0.69925 0.30117 0.61326 0.0
H809 H 0.67647 0.31309 0.53985 0.0
H810 H 0.79059 0.26803 0.49245 0.0
H811 H 0.81348 0.25775 0.56509 0.0
C812 C 0.72635 0.27862 0.38911 0.0
C813 C 0.68949 0.2574 0.38444 0.0
C814 C 0.73879 0.29307 0.42947 0.0
C815 C 0.71468 0.28642 0.46593 0.0
C816 C 0.67634 0.26879 0.46028 0.0
C817 C 0.66386 0.25466 0.42012 0.0
C818 C 0.71981 0.29515 0.58712 0.0
C819 C 0.75783 0.27763 0.59497 0.0
C820 C 0.7067 0.30167 0.545 0.0
C821 C 0.73137 0.29075 0.51001 0.0
C822 C 0.7707 0.2771 0.51828 0.0
C823 C 0.78375 0.27071 0.56017 0.0
H824 H 0.04893 0.38543 0.69488 0.0
H825 H 0.98863 0.49503 0.64062 0.0
H826 H 0.02441 0.40478 0.76516 0.0
H827 H 0.96289 0.51361 0.71144 0.0
H828 H 0.00877 0.56899 0.84282 0.0
H829 H 0.99895 0.5438 0.77035 0.0
H830 H 0.97387 0.41682 0.81812 0.0
H831 H 0.9851 0.44204 0.89123 0.0
C832 C 0.02951 0.41304 0.69774 0.0
C833 C 0.02162 0.43935 0.66228 0.0
C834 C 0.01495 0.42379 0.73815 0.0
C835 C 0.99205 0.46098 0.74417 0.0
C836 C 0.98105 0.48512 0.70801 0.0
C837 C 0.99572 0.47441 0.66741 0.0
C838 C 1.0002 0.53589 0.83804 0.0
C839 C 0.99881 0.50723 0.87265 0.0
C840 C 0.99411 0.52148 0.79633 0.0
C841 C 0.98641 0.47803 0.78823 0.0
C842 C 0.98065 0.45031 0.82325 0.0
C843 C 0.98683 0.4648 0.86516 0.0
H844 H 0.84821 0.97456 0.39982 0.0
H845 H 0.83959 0.91812 0.52521 0.0
H846 H 0.7771 0.96258 0.38868 0.0
H847 H 0.76875 0.90289 0.51327 0.0
H848 H 0.64455 0.97153 0.50948 0.0
H849 H 0.71349 0.94762 0.51602 0.0
H850 H 0.71785 0.92476 0.37962 0.0
H851 H 0.64961 0.95173 0.37304 0.0
C852 C 0.83144 0.95726 0.42395 0.0
C853 C 0.84919 0.94709 0.46322 0.0
C854 C 0.79048 0.95021 0.41765 0.0
C855 C 0.76663 0.9322 0.45033 0.0
C856 C 0.78574 0.9178 0.4878 0.0
C857 C 0.82647 0.92586 0.49445 0.0
C858 C 0.65986 0.95994 0.48117 0.0
C859 C 0.64211 0.96397 0.44075 0.0
C860 C 0.69957 0.94611 0.48478 0.0
C861 C 0.72199 0.93529 0.44803 0.0
C862 C 0.70219 0.93436 0.4083 0.0
C863 C 0.6629 0.94925 0.40458 0.0
loop_
_geom_bond_atom_site_label_1
_geom_bond_atom_site_label_2
_geom_bond_distance
_geom_bond_site_symmetry_2
_ccdc_geom_bond_type
Zn0 O3 2.031 . S
Zn0 O5 2.049 . S
Zn0 O10 2.067 . S
Zn1 O2 1.962 . S
Zn1 O4 1.986 . S
Zn1 O6 1.996 . S
Zn1 O9 1.943 . S
O2 Zn1 1.962 . S
O2 C7 1.254 . S
O3 Zn0 2.031 . S
O3 C7 1.269 . S
O4 Zn1 1.986 . S
O4 C11 1.262 . S
O5 Zn0 2.049 . S
O5 C13 1.260 . S
O6 Zn1 1.996 . S
O6 C13 1.257 . S
C7 O2 1.254 . S
C7 O3 1.269 . S
C8 O9 1.249 . S
C8 O10 1.270 . S
O9 Zn1 1.943 . S
O9 C8 1.249 . S
O10 Zn0 2.067 . S
O10 C8 1.270 . S
C11 O4 1.262 . S
C11 O12 1.232 . S
O12 C11 1.232 . S
C13 O5 1.260 . S
C13 O6 1.257 . S
Zn14 O17 2.031 . S
Zn14 O19 2.049 . S
Zn14 O24 2.067 . S
Zn15 O16 1.962 1_545 S
Zn15 O18 1.986 1_645 S
Zn15 O20 1.996 . S
Zn15 O23 1.943 1_545 S
O16 Zn15 1.962 1_565 S
O16 C21 1.254 1_565 S
O17 Zn14 2.031 . S
O17 C21 1.269 . S
O18 Zn15 1.986 1_465 S
O18 C25 1.262 . S
O19 Zn14 2.049 . S
O19 C27 1.260 . S
O20 Zn15 1.996 . S
O20 C27 1.257 . S
C21 O16 1.254 1_545 S
C21 O17 1.269 . S
C22 O23 1.249 1_545 S
C22 O24 1.270 . S
O23 Zn15 1.943 1_565 S
O23 C22 1.249 1_565 S
O24 Zn14 2.067 . S
O24 C22 1.270 . S
C25 O18 1.262 . S
C25 O26 1.232 1_455 S
O26 C25 1.232 1_655 S
C27 O19 1.260 . S
C27 O20 1.257 . S
Zn28 O31 2.031 . S
Zn28 O33 2.049 . S
Zn28 O38 2.067 . S
Zn29 O30 1.962 . S
Zn29 O32 1.986 . S
Zn29 O34 1.996 . S
Zn29 O37 1.943 . S
O30 Zn29 1.962 . S
O30 C35 1.254 . S
O31 Zn28 2.031 . S
O31 C35 1.269 . S
O32 Zn29 1.986 . S
O32 C39 1.262 . S
O33 Zn28 2.049 . S
O33 C41 1.260 . S
O34 Zn29 1.996 . S
O34 C41 1.257 . S
C35 O30 1.254 . S
C35 O31 1.269 . S
C36 O37 1.249 . S
C36 O38 1.270 . S
O37 Zn29 1.943 . S
O37 C36 1.249 . S
O38 Zn28 2.067 . S
O38 C36 1.270 . S
C39 O32 1.262 . S
C39 O40 1.232 . S
O40 C39 1.232 . S
C41 O33 1.260 . S
C41 O34 1.257 . S
Zn42 O45 2.031 . S
Zn42 O47 2.049 . S
Zn42 O52 2.067 . S
Zn43 O44 1.962 1_564 S
Zn43 O46 1.986 1_564 S
Zn43 O48 1.996 . S
Zn43 O51 1.943 1_565 S
O44 Zn43 1.962 1_546 S
O44 C49 1.254 1_546 S
O45 Zn42 2.031 . S
O45 C49 1.269 . S
O46 Zn43 1.986 1_546 S
O46 C53 1.262 . S
O47 Zn42 2.049 . S
O47 C55 1.260 . S
O48 Zn43 1.996 . S
O48 C55 1.257 . S
C49 O44 1.254 1_564 S
C49 O45 1.269 . S
C50 O51 1.249 1_565 S
C50 O52 1.270 . S
O51 Zn43 1.943 1_545 S
O51 C50 1.249 1_545 S
O52 Zn42 2.067 . S
O52 C50 1.270 . S
C53 O46 1.262 . S
C53 O54 1.232 . S
O54 C53 1.232 . S
C55 O47 1.260 . S
C55 O48 1.257 . S
Zn56 O59 2.031 . S
Zn56 O61 2.049 . S
Zn56 O66 2.067 . S
Zn57 O58 1.962 . S
Zn57 O60 1.986 . S
Zn57 O62 1.996 . S
Zn57 O65 1.943 . S
O58 Zn57 1.962 . S
O58 C63 1.254 . S
O59 Zn56 2.031 . S
O59 C63 1.269 . S
O60 Zn57 1.986 . S
O60 C67 1.262 . S
O61 Zn56 2.049 . S
O61 C69 1.260 . S
O62 Zn57 1.996 . S
O62 C69 1.257 . S
C63 O58 1.254 . S
C63 O59 1.269 . S
C64 O65 1.249 . S
C64 O66 1.270 . S
O65 Zn57 1.943 . S
O65 C64 1.249 . S
O66 Zn56 2.067 . S
O66 C64 1.270 . S
C67 O60 1.262 . S
C67 O68 1.232 . S
O68 C67 1.232 . S
C69 O61 1.260 . S
C69 O62 1.257 . S
Zn70 O73 2.031 . S
Zn70 O75 2.049 . S
Zn70 O80 2.067 . S
Zn71 O72 1.962 1_545 S
Zn71 O74 1.986 1_545 S
Zn71 O76 1.996 . S
Zn71 O79 1.943 1_545 S
O72 Zn71 1.962 1_565 S
O72 C77 1.254 1_565 S
O73 Zn70 2.031 . S
O73 C77 1.269 . S
O74 Zn71 1.986 1_565 S
O74 C81 1.262 . S
O75 Zn70 2.049 . S
O75 C83 1.260 . S
O76 Zn71 1.996 . S
O76 C83 1.257 . S
C77 O72 1.254 1_545 S
C77 O73 1.269 . S
C78 O79 1.249 1_545 S
C78 O80 1.270 . S
O79 Zn71 1.943 1_565 S
O79 C78 1.249 1_565 S
O80 Zn70 2.067 . S
O80 C78 1.270 . S
C81 O74 1.262 . S
C81 O82 1.232 . S
O82 C81 1.232 . S
C83 O75 1.260 . S
C83 O76 1.257 . S
Zn84 O87 2.031 . S
Zn84 O89 2.049 . S
Zn84 O94 2.067 . S
Zn85 O86 1.962 . S
Zn85 O88 1.986 . S
Zn85 O90 1.996 . S
Zn85 O93 1.943 . S
O86 Zn85 1.962 . S
O86 C91 1.254 . S
O87 Zn84 2.031 . S
O87 C91 1.269 . S
O88 Zn85 1.986 . S
O88 C95 1.262 . S
O89 Zn84 2.049 . S
O89 C97 1.260 . S
O90 Zn85 1.996 . S
O90 C97 1.257 . S
C91 O86 1.254 . S
C91 O87 1.269 . S
C92 O93 1.249 . S
C92 O94 1.270 . S
O93 Zn85 1.943 . S
O93 C92 1.249 . S
O94 Zn84 2.067 . S
O94 C92 1.270 . S
C95 O88 1.262 . S
C95 O96 1.232 . S
O96 C95 1.232 . S
C97 O89 1.260 . S
C97 O90 1.257 . S
Zn98 O101 2.031 . S
Zn98 O103 2.049 . S
Zn98 O108 2.067 . S
Zn99 O100 1.962 1_566 S
Zn99 O102 1.986 1_666 S
Zn99 O104 1.996 . S
Zn99 O107 1.943 1_565 S
O100 Zn99 1.962 1_544 S
O100 C105 1.254 1_544 S
O101 Zn98 2.031 . S
O101 C105 1.269 . S
O102 Zn99 1.986 1_444 S
O102 C109 1.262 . S
O103 Zn98 2.049 . S
O103 C111 1.260 . S
O104 Zn99 1.996 . S
O104 C111 1.257 . S
C105 O100 1.254 1_566 S
C105 O101 1.269 . S
C106 O107 1.249 1_565 S
C106 O108 1.270 . S
O107 Zn99 1.943 1_545 S
O107 C106 1.249 1_545 S
O108 Zn98 2.067 . S
O108 C106 1.270 . S
C109 O102 1.262 . S
C109 O110 1.232 1_455 S
O110 C109 1.232 1_655 S
C111 O103 1.260 . S
C111 O104 1.257 . S
Zn112 O115 2.031 . S
Zn112 O117 2.049 . S
Zn112 O122 2.067 . S
Zn113 O114 1.962 . S
Zn113 O116 1.986 . S
Zn113 O118 1.996 . S
Zn113 O121 1.943 . S
O114 Zn113 1.962 . S
O114 C119 1.254 . S
O115 Zn112 2.031 . S
O115 C119 1.269 . S
O116 Zn113 1.986 . S
O116 C123 1.262 . S
O117 Zn112 2.049 . S
O117 C125 1.260 . S
O118 Zn113 1.996 . S
O118 C125 1.257 . S
C119 O114 1.254 . S
C119 O115 1.269 . S
C120 O121 1.249 . S
C120 O122 1.270 . S
O121 Zn113 1.943 . S
O121 C120 1.249 . S
O122 Zn112 2.067 . S
O122 C120 1.270 . S
C123 O116 1.262 . S
C123 O124 1.232 . S
O124 C123 1.232 . S
C125 O117 1.260 . S
C125 O118 1.257 . S
Zn126 O129 2.031 . S
Zn126 O131 2.049 . S
Zn126 O136 2.067 . S
Zn127 O128 1.962 1_556 S
Zn127 O130 1.986 1_456 S
Zn127 O132 1.996 . S
Zn127 O135 1.943 . S
O128 Zn127 1.962 1_554 S
O128 C133 1.254 1_554 S
O129 Zn126 2.031 . S
O129 C133 1.269 . S
O130 Zn127 1.986 1_654 S
O130 C137 1.262 . S
O131 Zn126 2.049 . S
O131 C139 1.260 . S
O132 Zn127 1.996 . S
O132 C139 1.257 . S
C133 O128 1.254 1_556 S
C133 O129 1.269 . S
C134 O135 1.249 . S
C134 O136 1.270 . S
O135 Zn127 1.943 . S
O135 C134 1.249 . S
O136 Zn126 2.067 . S
O136 C134 1.270 . S
C137 O130 1.262 . S
C137 O138 1.232 1_655 S
O138 C137 1.232 1_455 S
C139 O131 1.260 . S
C139 O132 1.257 . S
Zn140 O143 2.031 . S
Zn140 O145 2.049 . S
Zn140 O150 2.067 . S
Zn141 O142 1.962 . S
Zn141 O144 1.986 . S
Zn141 O146 1.996 . S
Zn141 O149 1.943 . S
O142 Zn141 1.962 . S
O142 C147 1.254 . S
O143 Zn140 2.031 . S
O143 C147 1.269 . S
O144 Zn141 1.986 . S
O144 C151 1.262 . S
O145 Zn140 2.049 . S
O145 C153 1.260 . S
O146 Zn141 1.996 . S
O146 C153 1.257 . S
C147 O142 1.254 . S
C147 O143 1.269 . S
C148 O149 1.249 . S
C148 O150 1.270 . S
O149 Zn141 1.943 . S
O149 C148 1.249 . S
O150 Zn140 2.067 . S
O150 C148 1.270 . S
C151 O144 1.262 . S
C151 O152 1.232 . S
O152 C151 1.232 . S
C153 O145 1.260 . S
C153 O146 1.257 . S
Zn154 O157 2.031 . S
Zn154 O159 2.049 . S
Zn154 O164 2.067 . S
Zn155 O156 1.962 . S
Zn155 O158 1.986 1_455 S
Zn155 O160 1.996 . S
Zn155 O163 1.943 . S
O156 Zn155 1.962 . S
O156 C161 1.254 . S
O157 Zn154 2.031 . S
O157 C161 1.269 . S
O158 Zn155 1.986 1_655 S
O158 C165 1.262 . S
O159 Zn154 2.049 . S
O159 C167 1.260 . S
O160 Zn155 1.996 . S
O160 C167 1.257 . S
C161 O156 1.254 . S
C161 O157 1.269 . S
C162 O163 1.249 . S
C162 O164 1.270 . S
O163 Zn155 1.943 . S
O163 C162 1.249 . S
O164 Zn154 2.067 . S
O164 C162 1.270 . S
C165 O158 1.262 . S
C165 O166 1.232 1_655 S
O166 C165 1.232 1_455 S
C167 O159 1.260 . S
C167 O160 1.257 . S
Zn168 O171 2.031 . S
Zn168 O173 2.049 . S
Zn168 O178 2.067 . S
Zn169 O170 1.962 1_554 S
Zn169 O172 1.986 1_554 S
Zn169 O174 1.996 . S
Zn169 O177 1.943 . S
O170 Zn169 1.962 1_556 S
O170 C175 1.254 1_556 S
O171 Zn168 2.031 . S
O171 C175 1.269 . S
O172 Zn169 1.986 1_556 S
O172 C179 1.262 . S
O173 Zn168 2.049 . S
O173 C181 1.260 . S
O174 Zn169 1.996 . S
O174 C181 1.257 . S
C175 O170 1.254 1_554 S
C175 O171 1.269 . S
C176 O177 1.249 . S
C176 O178 1.270 . S
O177 Zn169 1.943 . S
O177 C176 1.249 . S
O178 Zn168 2.067 . S
O178 C176 1.270 . S
C179 O172 1.262 . S
C179 O180 1.232 . S
O180 C179 1.232 . S
C181 O173 1.260 . S
C181 O174 1.257 . S
Zn182 O185 2.031 . S
Zn182 O187 2.049 . S
Zn182 O192 2.067 . S
Zn183 O184 1.962 . S
Zn183 O186 1.986 . S
Zn183 O188 1.996 . S
Zn183 O191 1.943 . S
O184 Zn183 1.962 . S
O184 C189 1.254 . S
O185 Zn182 2.031 . S
O185 C189 1.269 . S
O186 Zn183 1.986 . S
O186 C193 1.262 . S
O187 Zn182 2.049 . S
O187 C195 1.260 . S
O188 Zn183 1.996 . S
O188 C195 1.257 . S
C189 O184 1.254 . S
C189 O185 1.269 . S
C190 O191 1.249 . S
C190 O192 1.270 . S
O191 Zn183 1.943 . S
O191 C190 1.249 . S
O192 Zn182 2.067 . S
O192 C190 1.270 . S
C193 O186 1.262 . S
C193 O194 1.232 . S
O194 C193 1.232 . S
C195 O187 1.260 . S
C195 O188 1.257 . S
Zn196 O199 2.031 . S
Zn196 O201 2.049 . S
Zn196 O206 2.067 . S
Zn197 O198 1.962 . S
Zn197 O200 1.986 . S
Zn197 O202 1.996 . S
Zn197 O205 1.943 . S
O198 Zn197 1.962 . S
O198 C203 1.254 . S
O199 Zn196 2.031 . S
O199 C203 1.269 . S
O200 Zn197 1.986 . S
O200 C207 1.262 . S
O201 Zn196 2.049 . S
O201 C209 1.260 . S
O202 Zn197 1.996 . S
O202 C209 1.257 . S
C203 O198 1.254 . S
C203 O199 1.269 . S
C204 O205 1.249 . S
C204 O206 1.270 . S
O205 Zn197 1.943 . S
O205 C204 1.249 . S
O206 Zn196 2.067 . S
O206 C204 1.270 . S
C207 O200 1.262 . S
C207 O208 1.232 . S
O208 C207 1.232 . S
C209 O201 1.260 . S
C209 O202 1.257 . S
Zn210 O213 2.031 . S
Zn210 O215 2.049 . S
Zn210 O220 2.067 . S
Zn211 O212 1.962 . S
Zn211 O214 1.986 . S
Zn211 O216 1.996 . S
Zn211 O219 1.943 . S
O212 Zn211 1.962 . S
O212 C217 1.254 . S
O213 Zn210 2.031 . S
O213 C217 1.269 . S
O214 Zn211 1.986 . S
O214 C221 1.262 . S
O215 Zn210 2.049 . S
O215 C223 1.260 . S
O216 Zn211 1.996 . S
O216 C223 1.257 . S
C217 O212 1.254 . S
C217 O213 1.269 . S
C218 O219 1.249 . S
C218 O220 1.270 . S
O219 Zn211 1.943 . S
O219 C218 1.249 . S
O220 Zn210 2.067 . S
O220 C218 1.270 . S
C221 O214 1.262 . S
C221 O222 1.232 . S
O222 C221 1.232 . S
C223 O215 1.260 . S
C223 O216 1.257 . S
H224 C232 0.950 . S
H225 C237 0.950 . S
H226 C234 0.950 . S
H227 C236 0.950 . S
H228 C238 0.950 . S
H229 C240 0.950 . S
H230 C242 0.950 . S
H231 C243 0.950 . S
C232 H224 0.950 . S
C232 C233 1.386 . S
C232 C234 1.391 . S
C233 C232 1.386 . S
C233 C237 1.393 . S
C234 H226 0.950 . S
C234 C232 1.391 . S
C234 C235 1.400 . S
C235 C234 1.400 . S
C235 C236 1.398 . S
C235 C241 1.491 . S
C236 H227 0.950 . S
C236 C235 1.398 . S
C236 C237 1.391 . S
C237 H225 0.950 . S
C237 C233 1.393 . S
C237 C236 1.391 . S
C238 H228 0.950 . S
C238 C239 1.386 . S
C238 C240 1.391 . S
C239 C238 1.386 . S
C239 C243 1.393 . S
C240 H229 0.950 . S
C240 C238 1.391 . S
C240 C241 1.400 . S
C241 C235 1.491 . S
C241 C240 1.400 . S
C241 C242 1.398 . S
C242 H230 0.950 . S
C242 C241 1.398 . S
C242 C243 1.391 . S
C243 H231 0.950 . S
C243 C239 1.393 . S
C243 C242 1.391 . S
H244 C252 0.950 . S
H245 C257 0.950 . S
H246 C254 0.950 . S
H247 C256 0.950 . S
H248 C258 0.950 . S
H249 C260 0.950 . S
H250 C262 0.950 . S
H251 C263 0.950 . S
C252 H244 0.950 . S
C252 C253 1.386 . S
C252 C254 1.391 . S
C253 C252 1.386 . S
C253 C257 1.393 . S
C254 H246 0.950 . S
C254 C252 1.391 . S
C254 C255 1.400 . S
C255 C254 1.400 . S
C255 C256 1.398 . S
C255 C261 1.491 . S
C256 H247 0.950 . S
C256 C255 1.398 . S
C256 C257 1.391 . S
C257 H245 0.950 . S
C257 C253 1.393 . S
C257 C256 1.391 . S
C258 H248 0.950 . S
C258 C259 1.386 . S
C258 C260 1.391 . S
C259 C258 1.386 . S
C259 C263 1.393 . S
C260 H249 0.950 . S
C260 C258 1.391 . S
C260 C261 1.400 . S
C261 C255 1.491 . S
C261 C260 1.400 . S
C261 C262 1.398 . S
C262 H250 0.950 . S
C262 C261 1.398 . S
C262 C263 1.391 . S
C263 H251 0.950 . S
C263 C259 1.393 . S
C263 C262 1.391 . S
H264 C272 0.950 . S
H265 C277 0.950 . S
H266 C274 0.950 . S
H267 C276 0.950 . S
H268 C278 0.950 . S
H269 C280 0.950 . S
H270 C282 0.950 . S
H271 C283 0.950 . S
C272 H264 0.950 . S
C272 C273 1.386 . S
C272 C274 1.391 . S
C273 C272 1.386 . S
C273 C277 1.393 . S
C274 H266 0.950 . S
C274 C272 1.391 . S
C274 C275 1.400 . S
C275 C274 1.400 . S
C275 C276 1.398 . S
C275 C281 1.491 . S
C276 H267 0.950 . S
C276 C275 1.398 . S
C276 C277 1.391 . S
C277 H265 0.950 . S
C277 C273 1.393 . S
C277 C276 1.391 . S
C278 H268 0.950 . S
C278 C279 1.386 . S
C278 C280 1.391 . S
C279 C278 1.386 . S
C279 C283 1.393 . S
C280 H269 0.950 . S
C280 C278 1.391 . S
C280 C281 1.400 . S
C281 C275 1.491 . S
C281 C280 1.400 . S
C281 C282 1.398 . S
C282 H270 0.950 . S
C282 C281 1.398 . S
C282 C283 1.391 . S
C283 H271 0.950 . S
C283 C279 1.393 . S
C283 C282 1.391 . S
H284 C292 0.950 . S
H285 C297 0.950 . S
H286 C294 0.950 . S
H287 C296 0.950 . S
H288 C298 0.950 . S
H289 C300 0.950 . S
H290 C302 0.950 . S
H291 C303 0.950 . S
C292 H284 0.950 . S
C292 C293 1.386 . S
C292 C294 1.391 . S
C293 C292 1.386 . S
C293 C297 1.393 . S
C294 H286 0.950 . S
C294 C292 1.391 . S
C294 C295 1.400 . S
C295 C294 1.400 . S
C295 C296 1.398 . S
C295 C301 1.491 . S
C296 H287 0.950 . S
C296 C295 1.398 . S
C296 C297 1.391 . S
C297 H285 0.950 . S
C297 C293 1.393 . S
C297 C296 1.391 . S
C298 H288 0.950 . S
C298 C299 1.386 . S
C298 C300 1.391 . S
C299 C298 1.386 . S
C299 C303 1.393 . S
C300 H289 0.950 . S
C300 C298 1.391 . S
C300 C301 1.400 . S
C301 C295 1.491 . S
C301 C300 1.400 . S
C301 C302 1.398 . S
C302 H290 0.950 . S
C302 C301 1.398 . S
C302 C303 1.391 . S
C303 H291 0.950 . S
C303 C299 1.393 . S
C303 C302 1.391 . S
H304 C312 0.950 . S
H305 C317 0.950 . S
H306 C314 0.950 . S
H307 C316 0.950 . S
H308 C318 0.950 . S
H309 C320 0.950 . S
H310 C322 0.950 . S
H311 C323 0.950 . S
C312 H304 0.950 . S
C312 C313 1.386 . S
C312 C314 1.391 . S
C313 C312 1.386 . S
C313 C317 1.393 . S
C314 H306 0.950 . S
C314 C312 1.391 . S
C314 C315 1.400 . S
C315 C314 1.400 . S
C315 C316 1.398 . S
C315 C321 1.491 . S
C316 H307 0.950 . S
C316 C315 1.398 . S
C316 C317 1.391 . S
C317 H305 0.950 . S
C317 C313 1.393 . S
C317 C316 1.391 . S
C318 H308 0.950 . S
C318 C319 1.386 . S
C318 C320 1.391 . S
C319 C318 1.386 . S
C319 C323 1.393 . S
C320 H309 0.950 . S
C320 C318 1.391 . S
C320 C321 1.400 . S
C321 C315 1.491 . S
C321 C320 1.400 . S
C321 C322 1.398 . S
C322 H310 0.950 . S
C322 C321 1.398 . S
C322 C323 1.391 . S
C323 H311 0.950 . S
C323 C319 1.393 . S
C323 C322 1.391 . S
H324 C332 0.950 . S
H325 C337 0.950 . S
H326 C334 0.950 . S
H327 C336 0.950 . S
H328 C338 0.950 . S
H329 C340 0.950 . S
H330 C342 0.950 . S
H331 C343 0.950 . S
C332 H324 0.950 . S
C332 C333 1.386 . S
C332 C334 1.391 . S
C333 C332 1.386 . S
C333 C337 1.393 . S
C334 H326 0.950 . S
C334 C332 1.391 . S
C334 C335 1.400 . S
C335 C334 1.400 . S
C335 C336 1.398 . S
C335 C341 1.491 . S
C336 H327 0.950 . S
C336 C335 1.398 . S
C336 C337 1.391 . S
C337 H325 0.950 . S
C337 C333 1.393 . S
C337 C336 1.391 . S
C338 H328 0.950 . S
C338 C339 1.386 . S
C338 C340 1.391 . S
C339 C338 1.386 . S
C339 C343 1.393 . S
C340 H329 0.950 . S
C340 C338 1.391 . S
C340 C341 1.400 . S
C341 C335 1.491 . S
C341 C340 1.400 . S
C341 C342 1.398 . S
C342 H330 0.950 . S
C342 C341 1.398 . S
C342 C343 1.391 . S
C343 H331 0.950 . S
C343 C339 1.393 . S
C343 C342 1.391 . S
H344 C352 0.950 . S
H345 C357 0.950 . S
H346 C354 0.950 . S
H347 C356 0.950 . S
H348 C358 0.950 . S
H349 C360 0.950 . S
H350 C362 0.950 . S
H351 C363 0.950 . S
C352 H344 0.950 . S
C352 C353 1.386 . S
C352 C354 1.391 . S
C353 C352 1.386 . S
C353 C357 1.393 . S
C354 H346 0.950 . S
C354 C352 1.391 . S
C354 C355 1.400 . S
C355 C354 1.400 . S
C355 C356 1.398 . S
C355 C361 1.491 . S
C356 H347 0.950 . S
C356 C355 1.398 . S
C356 C357 1.391 . S
C357 H345 0.950 . S
C357 C353 1.393 . S
C357 C356 1.391 . S
C358 H348 0.950 . S
C358 C359 1.386 . S
C358 C360 1.391 . S
C359 C358 1.386 . S
C359 C363 1.393 . S
C360 H349 0.950 . S
C360 C358 1.391 . S
C360 C361 1.400 . S
C361 C355 1.491 . S
C361 C360 1.400 . S
C361 C362 1.398 . S
C362 H350 0.950 . S
C362 C361 1.398 . S
C362 C363 1.391 . S
C363 H351 0.950 . S
C363 C359 1.393 . S
C363 C362 1.391 . S
H364 C372 0.950 . S
H365 C377 0.950 . S
H366 C374 0.950 . S
H367 C376 0.950 . S
H368 C378 0.950 . S
H369 C380 0.950 . S
H370 C382 0.950 . S
H371 C383 0.950 . S
C372 H364 0.950 . S
C372 C373 1.386 . S
C372 C374 1.391 . S
C373 C372 1.386 . S
C373 C377 1.393 . S
C374 H366 0.950 . S
C374 C372 1.391 . S
C374 C375 1.400 . S
C375 C374 1.400 . S
C375 C376 1.398 . S
C375 C381 1.491 . S
C376 H367 0.950 . S
C376 C375 1.398 . S
C376 C377 1.391 . S
C377 H365 0.950 . S
C377 C373 1.393 . S
C377 C376 1.391 . S
C378 H368 0.950 . S
C378 C379 1.386 . S
C378 C380 1.391 . S
C379 C378 1.386 . S
C379 C383 1.393 . S
C380 H369 0.950 . S
C380 C378 1.391 . S
C380 C381 1.400 . S
C381 C375 1.491 . S
C381 C380 1.400 . S
C381 C382 1.398 . S
C382 H370 0.950 . S
C382 C381 1.398 . S
C382 C383 1.391 . S
C383 H371 0.950 . S
C383 C379 1.393 . S
C383 C382 1.391 . S
H384 C392 0.950 . S
H385 C397 0.950 . S
H386 C394 0.950 . S
H387 C396 0.950 . S
H388 C398 0.950 . S
H389 C400 0.950 . S
H390 C402 0.950 . S
H391 C403 0.950 . S
C392 H384 0.950 . S
C392 C393 1.386 . S
C392 C394 1.391 . S
C393 C392 1.386 . S
C393 C397 1.393 . S
C394 H386 0.950 . S
C394 C392 1.391 . S
C394 C395 1.400 . S
C395 C394 1.400 . S
C395 C396 1.398 . S
C395 C401 1.491 . S
C396 H387 0.950 . S
C396 C395 1.398 . S
C396 C397 1.391 . S
C397 H385 0.950 . S
C397 C393 1.393 . S
C397 C396 1.391 . S
C398 H388 0.950 . S
C398 C399 1.386 . S
C398 C400 1.391 . S
C399 C398 1.386 . S
C399 C403 1.393 . S
C400 H389 0.950 . S
C400 C398 1.391 . S
C400 C401 1.400 . S
C401 C395 1.491 . S
C401 C400 1.400 . S
C401 C402 1.398 . S
C402 H390 0.950 . S
C402 C401 1.398 . S
C402 C403 1.391 . S
C403 H391 0.950 . S
C403 C399 1.393 . S
C403 C402 1.391 . S
H404 C412 0.950 1_455 S
H405 C417 0.950 . S
H406 C414 0.950 1_455 S
H407 C416 0.950 . S
H408 C418 0.950 . S
H409 C420 0.950 . S
H410 C422 0.950 1_455 S
H411 C423 0.950 1_455 S
C412 H404 0.950 1_655 S
C412 C413 1.386 1_565 S
C412 C414 1.391 . S
C413 C412 1.386 1_545 S
C413 C417 1.393 . S
C414 H406 0.950 1_655 S
C414 C412 1.391 . S
C414 C415 1.392 1_565 S
C415 C414 1.392 1_545 S
C415 C416 1.407 . S
C415 C421 1.490 1_545 S
C416 H407 0.950 . S
C416 C415 1.407 . S
C416 C417 1.391 . S
C417 H405 0.950 . S
C417 C413 1.393 . S
C417 C416 1.391 . S
C418 H408 0.950 . S
C418 C419 1.386 1_545 S
C418 C420 1.391 . S
C419 C418 1.386 1_565 S
C419 C423 1.393 . S
C420 H409 0.950 . S
C420 C418 1.391 . S
C420 C421 1.392 1_545 S
C421 C415 1.490 1_565 S
C421 C420 1.392 1_565 S
C421 C422 1.407 . S
C422 H410 0.950 1_655 S
C422 C421 1.407 . S
C422 C423 1.391 . S
C423 H411 0.950 1_655 S
C423 C419 1.393 . S
C423 C422 1.391 . S
H424 C432 0.950 . S
H425 C437 0.950 . S
H426 C434 0.950 . S
H427 C436 0.950 . S
H428 C438 0.950 . S
H429 C440 0.950 . S
H430 C442 0.950 . S
H431 C443 0.950 . S
C432 H424 0.950 . S
C432 C433 1.386 . S
C432 C434 1.391 . S
C433 C432 1.386 . S
C433 C437 1.393 . S
C434 H426 0.950 . S
C434 C432 1.391 . S
C434 C435 1.400 . S
C435 C434 1.400 . S
C435 C436 1.398 . S
C435 C441 1.491 1_556 S
C436 H427 0.950 . S
C436 C435 1.398 . S
C436 C437 1.391 . S
C437 H425 0.950 . S
C437 C433 1.393 . S
C437 C436 1.391 . S
C438 H428 0.950 . S
C438 C439 1.386 . S
C438 C440 1.391 . S
C439 C438 1.386 . S
C439 C443 1.393 . S
C440 H429 0.950 . S
C440 C438 1.391 . S
C440 C441 1.400 . S
C441 C435 1.491 1_554 S
C441 C440 1.400 . S
C441 C442 1.398 . S
C442 H430 0.950 . S
C442 C441 1.398 . S
C442 C443 1.391 . S
C443 H431 0.950 . S
C443 C439 1.393 . S
C443 C442 1.391 . S
H444 C452 0.950 . S
H445 C457 0.950 . S
H446 C454 0.950 . S
H447 C456 0.950 . S
H448 C458 0.950 . S
H449 C460 0.950 . S
H450 C462 0.950 . S
H451 C463 0.950 . S
C452 H444 0.950 . S
C452 C453 1.386 . S
C452 C454 1.391 . S
C453 C452 1.386 . S
C453 C457 1.393 1_565 S
C454 H446 0.950 . S
C454 C452 1.391 . S
C454 C455 1.401 . S
C455 C454 1.401 . S
C455 C456 1.398 1_565 S
C455 C461 1.491 1_565 S
C456 H447 0.950 . S
C456 C455 1.398 1_545 S
C456 C457 1.391 . S
C457 H445 0.950 . S
C457 C453 1.393 1_545 S
C457 C456 1.391 . S
C458 H448 0.950 . S
C458 C459 1.386 . S
C458 C460 1.391 . S
C459 C458 1.386 . S
C459 C463 1.393 1_545 S
C460 H449 0.950 . S
C460 C458 1.391 . S
C460 C461 1.401 . S
C461 C455 1.491 1_545 S
C461 C460 1.401 . S
C461 C462 1.398 1_545 S
C462 H450 0.950 . S
C462 C461 1.398 1_565 S
C462 C463 1.391 . S
C463 H451 0.950 . S
C463 C459 1.393 1_565 S
C463 C462 1.391 . S
H464 C472 0.950 . S
H465 C477 0.950 . S
H466 C474 0.950 . S
H467 C476 0.950 . S
H468 C478 0.950 . S
H469 C480 0.950 . S
H470 C482 0.950 . S
H471 C483 0.950 . S
C472 H464 0.950 . S
C472 C473 1.386 . S
C472 C474 1.391 . S
C473 C472 1.386 . S
C473 C477 1.393 . S
C474 H466 0.950 . S
C474 C472 1.391 . S
C474 C475 1.400 . S
C475 C474 1.400 . S
C475 C476 1.398 . S
C475 C481 1.491 . S
C476 H467 0.950 . S
C476 C475 1.398 . S
C476 C477 1.391 . S
C477 H465 0.950 . S
C477 C473 1.393 . S
C477 C476 1.391 . S
C478 H468 0.950 . S
C478 C479 1.386 . S
C478 C480 1.391 . S
C479 C478 1.386 . S
C479 C483 1.393 . S
C480 H469 0.950 . S
C480 C478 1.391 . S
C480 C481 1.400 . S
C481 C475 1.491 . S
C481 C480 1.400 . S
C481 C482 1.398 . S
C482 H470 0.950 . S
C482 C481 1.398 . S
C482 C483 1.391 . S
C483 H471 0.950 . S
C483 C479 1.393 . S
C483 C482 1.391 . S
H484 C492 0.950 . S
H485 C497 0.950 . S
H486 C494 0.950 . S
H487 C496 0.950 . S
H488 C498 0.950 . S
H489 C500 0.950 . S
H490 C502 0.950 . S
H491 C503 0.950 . S
C492 H484 0.950 . S
C492 C493 1.386 1_655 S
C492 C494 1.391 . S
C493 C492 1.386 1_455 S
C493 C497 1.393 . S
C494 H486 0.950 . S
C494 C492 1.391 . S
C494 C495 1.388 1_655 S
C495 C494 1.388 1_455 S
C495 C496 1.411 . S
C495 C501 1.490 1_455 S
C496 H487 0.950 . S
C496 C495 1.411 . S
C496 C497 1.391 . S
C497 H485 0.950 . S
C497 C493 1.393 . S
C497 C496 1.391 . S
C498 H488 0.950 . S
C498 C499 1.386 1_455 S
C498 C500 1.391 . S
C499 C498 1.386 1_655 S
C499 C503 1.393 . S
C500 H489 0.950 . S
C500 C498 1.391 . S
C500 C501 1.388 1_455 S
C501 C495 1.490 1_655 S
C501 C500 1.388 1_655 S
C501 C502 1.411 . S
C502 H490 0.950 . S
C502 C501 1.411 . S
C502 C503 1.391 . S
C503 H491 0.950 . S
C503 C499 1.393 . S
C503 C502 1.391 . S
H504 C512 0.950 . S
H505 C517 0.950 . S
H506 C514 0.950 . S
H507 C516 0.950 . S
H508 C518 0.950 . S
H509 C520 0.950 . S
H510 C522 0.950 . S
H511 C523 0.950 . S
C512 H504 0.950 . S
C512 C513 1.386 . S
C512 C514 1.391 . S
C513 C512 1.386 . S
C513 C517 1.393 . S
C514 H506 0.950 . S
C514 C512 1.391 . S
C514 C515 1.400 . S
C515 C514 1.400 . S
C515 C516 1.398 . S
C515 C521 1.491 1_655 S
C516 H507 0.950 . S
C516 C515 1.398 . S
C516 C517 1.391 . S
C517 H505 0.950 . S
C517 C513 1.393 . S
C517 C516 1.391 . S
C518 H508 0.950 . S
C518 C519 1.386 . S
C518 C520 1.391 . S
C519 C518 1.386 . S
C519 C523 1.393 . S
C520 H509 0.950 . S
C520 C518 1.391 . S
C520 C521 1.400 . S
C521 C515 1.491 1_455 S
C521 C520 1.400 . S
C521 C522 1.398 . S
C522 H510 0.950 . S
C522 C521 1.398 . S
C522 C523 1.391 . S
C523 H511 0.950 . S
C523 C519 1.393 . S
C523 C522 1.391 . S
H524 C532 0.950 . S
H525 C537 0.950 . S
H526 C534 0.950 . S
H527 C536 0.950 . S
H528 C538 0.950 . S
H529 C540 0.950 . S
H530 C542 0.950 . S
H531 C543 0.950 . S
C532 H524 0.950 . S
C532 C533 1.386 1_556 S
C532 C534 1.391 . S
C533 C532 1.386 1_554 S
C533 C537 1.393 . S
C534 H526 0.950 . S
C534 C532 1.391 . S
C534 C535 1.400 1_556 S
C535 C534 1.400 1_554 S
C535 C536 1.398 . S
C535 C541 1.491 . S
C536 H527 0.950 . S
C536 C535 1.398 . S
C536 C537 1.391 . S
C537 H525 0.950 . S
C537 C533 1.393 . S
C537 C536 1.391 . S
C538 H528 0.950 . S
C538 C539 1.386 . S
C538 C540 1.391 . S
C539 C538 1.386 . S
C539 C543 1.393 1_554 S
C540 H529 0.950 . S
C540 C538 1.391 . S
C540 C541 1.400 . S
C541 C535 1.491 . S
C541 C540 1.400 . S
C541 C542 1.398 1_554 S
C542 H530 0.950 . S
C542 C541 1.398 1_556 S
C542 C543 1.391 . S
C543 H531 0.950 . S
C543 C539 1.393 1_556 S
C543 C542 1.391 . S
H544 C552 0.950 . S
H545 C557 0.950 . S
H546 C554 0.950 . S
H547 C556 0.950 . S
H548 C558 0.950 . S
H549 C560 0.950 . S
H550 C562 0.950 . S
H551 C563 0.950 . S
C552 H544 0.950 . S
C552 C553 1.386 . S
C552 C554 1.391 . S
C553 C552 1.386 . S
C553 C557 1.393 . S
C554 H546 0.950 . S
C554 C552 1.391 . S
C554 C555 1.400 . S
C555 C554 1.400 . S
C555 C556 1.398 . S
C555 C561 1.491 . S
C556 H547 0.950 . S
C556 C555 1.398 . S
C556 C557 1.391 . S
C557 H545 0.950 . S
C557 C553 1.393 . S
C557 C556 1.391 . S
C558 H548 0.950 . S
C558 C559 1.386 . S
C558 C560 1.391 . S
C559 C558 1.386 . S
C559 C563 1.393 . S
C560 H549 0.950 . S
C560 C558 1.391 . S
C560 C561 1.400 . S
C561 C555 1.491 . S
C561 C560 1.400 . S
C561 C562 1.398 . S
C562 H550 0.950 . S
C562 C561 1.398 . S
C562 C563 1.391 . S
C563 H551 0.950 . S
C563 C559 1.393 . S
C563 C562 1.391 . S
H564 C572 0.950 . S
H565 C577 0.950 . S
H566 C574 0.950 . S
H567 C576 0.950 . S
H568 C578 0.950 . S
H569 C580 0.950 . S
H570 C582 0.950 . S
H571 C583 0.950 . S
C572 H564 0.950 . S
C572 C573 1.386 . S
C572 C574 1.391 . S
C573 C572 1.386 . S
C573 C577 1.393 . S
C574 H566 0.950 . S
C574 C572 1.391 . S
C574 C575 1.400 . S
C575 C574 1.400 . S
C575 C576 1.398 . S
C575 C581 1.491 . S
C576 H567 0.950 . S
C576 C575 1.398 . S
C576 C577 1.391 . S
C577 H565 0.950 . S
C577 C573 1.393 . S
C577 C576 1.391 . S
C578 H568 0.950 . S
C578 C579 1.386 . S
C578 C580 1.391 . S
C579 C578 1.386 . S
C579 C583 1.393 . S
C580 H569 0.950 . S
C580 C578 1.391 . S
C580 C581 1.400 . S
C581 C575 1.491 . S
C581 C580 1.400 . S
C581 C582 1.398 . S
C582 H570 0.950 . S
C582 C581 1.398 . S
C582 C583 1.391 . S
C583 H571 0.950 . S
C583 C579 1.393 . S
C583 C582 1.391 . S
H584 C592 0.950 . S
H585 C597 0.950 . S
H586 C594 0.950 . S
H587 C596 0.950 . S
H588 C598 0.950 . S
H589 C600 0.950 . S
H590 C602 0.950 . S
H591 C603 0.950 . S
C592 H584 0.950 . S
C592 C593 1.386 . S
C592 C594 1.391 . S
C593 C592 1.386 . S
C593 C597 1.393 . S
C594 H586 0.950 . S
C594 C592 1.391 . S
C594 C595 1.400 . S
C595 C594 1.400 . S
C595 C596 1.398 . S
C595 C601 1.491 1_455 S
C596 H587 0.950 . S
C596 C595 1.398 . S
C596 C597 1.391 . S
C597 H585 0.950 . S
C597 C593 1.393 . S
C597 C596 1.391 . S
C598 H588 0.950 . S
C598 C599 1.386 . S
C598 C600 1.391 . S
C599 C598 1.386 . S
C599 C603 1.393 . S
C600 H589 0.950 . S
C600 C598 1.391 . S
C600 C601 1.400 . S
C601 C595 1.491 1_655 S
C601 C600 1.400 . S
C601 C602 1.398 . S
C602 H590 0.950 . S
C602 C601 1.398 . S
C602 C603 1.391 . S
C603 H591 0.950 . S
C603 C599 1.393 . S
C603 C602 1.391 . S
H604 C612 0.950 . S
H605 C617 0.950 . S
H606 C614 0.950 . S
H607 C616 0.950 . S
H608 C618 0.950 . S
H609 C620 0.950 . S
H610 C622 0.950 . S
H611 C623 0.950 . S
C612 H604 0.950 . S
C612 C613 1.386 . S
C612 C614 1.391 . S
C613 C612 1.386 . S
C613 C617 1.393 1_656 S
C614 H606 0.950 . S
C614 C612 1.391 . S
C614 C615 1.402 . S
C615 C614 1.402 . S
C615 C616 1.397 1_656 S
C615 C621 1.490 1_655 S
C616 H607 0.950 . S
C616 C615 1.397 1_454 S
C616 C617 1.391 . S
C617 H605 0.950 . S
C617 C613 1.393 1_454 S
C617 C616 1.391 . S
C618 H608 0.950 . S
C618 C619 1.386 1_554 S
C618 C620 1.391 . S
C619 C618 1.386 1_556 S
C619 C623 1.393 1_455 S
C620 H609 0.950 . S
C620 C618 1.391 . S
C620 C621 1.402 1_554 S
C621 C615 1.490 1_455 S
C621 C620 1.402 1_556 S
C621 C622 1.397 1_455 S
C622 H610 0.950 . S
C622 C621 1.397 1_655 S
C622 C623 1.391 . S
C623 H611 0.950 . S
C623 C619 1.393 1_655 S
C623 C622 1.391 . S
H624 C632 0.950 . S
H625 C637 0.950 . S
H626 C634 0.950 . S
H627 C636 0.950 . S
H628 C638 0.950 . S
H629 C640 0.950 . S
H630 C642 0.950 . S
H631 C643 0.950 . S
C632 H624 0.950 . S
C632 C633 1.386 . S
C632 C634 1.391 . S
C633 C632 1.386 . S
C633 C637 1.393 . S
C634 H626 0.950 . S
C634 C632 1.391 . S
C634 C635 1.400 . S
C635 C634 1.400 . S
C635 C636 1.398 . S
C635 C641 1.491 . S
C636 H627 0.950 . S
C636 C635 1.398 . S
C636 C637 1.391 . S
C637 H625 0.950 . S
C637 C633 1.393 . S
C637 C636 1.391 . S
C638 H628 0.950 . S
C638 C639 1.386 . S
C638 C640 1.391 . S
C639 C638 1.386 . S
C639 C643 1.393 . S
C640 H629 0.950 . S
C640 C638 1.391 . S
C640 C641 1.400 . S
C641 C635 1.491 . S
C641 C640 1.400 . S
C641 C642 1.398 . S
C642 H630 0.950 . S
C642 C641 1.398 . S
C642 C643 1.391 . S
C643 H631 0.950 . S
C643 C639 1.393 . S
C643 C642 1.391 . S
H644 C652 0.950 . S
H645 C657 0.950 . S
H646 C654 0.950 . S
H647 C656 0.950 . S
H648 C658 0.950 . S
H649 C660 0.950 . S
H650 C662 0.950 . S
H651 C663 0.950 . S
C652 H644 0.950 . S
C652 C653 1.386 . S
C652 C654 1.391 . S
C653 C652 1.386 . S
C653 C657 1.393 . S
C654 H646 0.950 . S
C654 C652 1.391 . S
C654 C655 1.400 . S
C655 C654 1.400 . S
C655 C656 1.398 . S
C655 C661 1.491 1_545 S
C656 H647 0.950 . S
C656 C655 1.398 . S
C656 C657 1.391 . S
C657 H645 0.950 . S
C657 C653 1.393 . S
C657 C656 1.391 . S
C658 H648 0.950 . S
C658 C659 1.386 . S
C658 C660 1.391 . S
C659 C658 1.386 . S
C659 C663 1.393 . S
C660 H649 0.950 . S
C660 C658 1.391 . S
C660 C661 1.400 . S
C661 C655 1.491 1_565 S
C661 C660 1.400 . S
C661 C662 1.398 . S
C662 H650 0.950 . S
C662 C661 1.398 . S
C662 C663 1.391 . S
C663 H651 0.950 . S
C663 C659 1.393 . S
C663 C662 1.391 . S
H664 C672 0.950 . S
H665 C677 0.950 . S
H666 C674 0.950 . S
H667 C676 0.950 . S
H668 C678 0.950 . S
H669 C680 0.950 . S
H670 C682 0.950 . S
H671 C683 0.950 . S
C672 H664 0.950 . S
C672 C673 1.386 1_556 S
C672 C674 1.391 . S
C673 C672 1.386 1_554 S
C673 C677 1.393 . S
C674 H666 0.950 . S
C674 C672 1.391 . S
C674 C675 1.382 1_556 S
C675 C674 1.382 1_554 S
C675 C676 1.418 . S
C675 C681 1.489 1_554 S
C676 H667 0.950 . S
C676 C675 1.418 . S
C676 C677 1.391 . S
C677 H665 0.950 . S
C677 C673 1.393 . S
C677 C676 1.391 . S
C678 H668 0.950 . S
C678 C679 1.386 1_554 S
C678 C680 1.391 . S
C679 C678 1.386 1_556 S
C679 C683 1.393 . S
C680 H669 0.950 . S
C680 C678 1.391 . S
C680 C681 1.382 1_554 S
C681 C675 1.489 1_556 S
C681 C680 1.382 1_556 S
C681 C682 1.418 . S
C682 H670 0.950 . S
C682 C681 1.418 . S
C682 C683 1.391 . S
C683 H671 0.950 . S
C683 C679 1.393 . S
C683 C682 1.391 . S
H684 C692 0.950 . S
H685 C697 0.950 . S
H686 C694 0.950 . S
H687 C696 0.950 . S
H688 C698 0.950 . S
H689 C700 0.950 . S
H690 C702 0.950 . S
H691 C703 0.950 . S
C692 H684 0.950 . S
C692 C693 1.386 . S
C692 C694 1.391 . S
C693 C692 1.386 . S
C693 C697 1.393 . S
C694 H686 0.950 . S
C694 C692 1.391 . S
C694 C695 1.400 . S
C695 C694 1.400 . S
C695 C696 1.398 . S
C695 C701 1.491 1_545 S
C696 H687 0.950 . S
C696 C695 1.398 . S
C696 C697 1.391 . S
C697 H685 0.950 . S
C697 C693 1.393 . S
C697 C696 1.391 . S
C698 H688 0.950 . S
C698 C699 1.386 . S
C698 C700 1.391 . S
C699 C698 1.386 . S
C699 C703 1.393 . S
C700 H689 0.950 . S
C700 C698 1.391 . S
C700 C701 1.400 . S
C701 C695 1.491 1_565 S
C701 C700 1.400 . S
C701 C702 1.398 . S
C702 H690 0.950 . S
C702 C701 1.398 . S
C702 C703 1.391 . S
C703 H691 0.950 . S
C703 C699 1.393 . S
C703 C702 1.391 . S
H704 C712 0.950 . S
H705 C717 0.950 . S
H706 C714 0.950 . S
H707 C716 0.950 . S
H708 C718 0.950 . S
H709 C720 0.950 . S
H710 C722 0.950 . S
H711 C723 0.950 . S
C712 H704 0.950 . S
C712 C713 1.386 1_554 S
C712 C714 1.391 . S
C713 C712 1.386 1_556 S
C713 C717 1.393 1_545 S
C714 H706 0.950 . S
C714 C712 1.391 . S
C714 C715 1.400 1_554 S
C715 C714 1.400 1_556 S
C715 C716 1.398 1_545 S
C715 C721 1.491 1_556 S
C716 H707 0.950 . S
C716 C715 1.398 1_565 S
C716 C717 1.391 . S
C717 H705 0.950 . S
C717 C713 1.393 1_565 S
C717 C716 1.391 . S
C718 H708 0.950 . S
C718 C719 1.386 1_566 S
C718 C720 1.391 . S
C719 C718 1.386 1_544 S
C719 C723 1.393 . S
C720 H709 0.950 . S
C720 C718 1.391 . S
C720 C721 1.400 1_566 S
C721 C715 1.491 1_554 S
C721 C720 1.400 1_544 S
C721 C722 1.398 . S
C722 H710 0.950 . S
C722 C721 1.398 . S
C722 C723 1.391 . S
C723 H711 0.950 . S
C723 C719 1.393 . S
C723 C722 1.391 . S
H724 C732 0.950 . S
H725 C737 0.950 . S
H726 C734 0.950 . S
H727 C736 0.950 . S
H728 C738 0.950 . S
H729 C740 0.950 . S
H730 C742 0.950 . S
H731 C743 0.950 . S
C732 H724 0.950 . S
C732 C733 1.386 . S
C732 C734 1.391 . S
C733 C732 1.386 . S
C733 C737 1.393 . S
C734 H726 0.950 . S
C734 C732 1.391 . S
C734 C735 1.400 . S
C735 C734 1.400 . S
C735 C736 1.398 . S
C735 C741 1.491 . S
C736 H727 0.950 . S
C736 C735 1.398 . S
C736 C737 1.391 . S
C737 H725 0.950 . S
C737 C733 1.393 . S
C737 C736 1.391 . S
C738 H728 0.950 . S
C738 C739 1.386 . S
C738 C740 1.391 . S
C739 C738 1.386 . S
C739 C743 1.393 . S
C740 H729 0.950 . S
C740 C738 1.391 . S
C740 C741 1.400 . S
C741 C735 1.491 . S
C741 C740 1.400 . S
C741 C742 1.398 . S
C742 H730 0.950 . S
C742 C741 1.398 . S
C742 C743 1.391 . S
C743 H731 0.950 . S
C743 C739 1.393 . S
C743 C742 1.391 . S
H744 C752 0.950 . S
H745 C757 0.950 . S
H746 C754 0.950 . S
H747 C756 0.950 . S
H748 C758 0.950 . S
H749 C760 0.950 . S
H750 C762 0.950 . S
H751 C763 0.950 . S
C752 H744 0.950 . S
C752 C753 1.386 . S
C752 C754 1.391 . S
C753 C752 1.386 . S
C753 C757 1.393 . S
C754 H746 0.950 . S
C754 C752 1.391 . S
C754 C755 1.400 . S
C755 C754 1.400 . S
C755 C756 1.398 . S
C755 C761 1.491 . S
C756 H747 0.950 . S
C756 C755 1.398 . S
C756 C757 1.391 . S
C757 H745 0.950 . S
C757 C753 1.393 . S
C757 C756 1.391 . S
C758 H748 0.950 . S
C758 C759 1.386 . S
C758 C760 1.391 . S
C759 C758 1.386 . S
C759 C763 1.393 . S
C760 H749 0.950 . S
C760 C758 1.391 . S
C760 C761 1.400 . S
C761 C755 1.491 . S
C761 C760 1.400 . S
C761 C762 1.398 . S
C762 H750 0.950 . S
C762 C761 1.398 . S
C762 C763 1.391 . S
C763 H751 0.950 . S
C763 C759 1.393 . S
C763 C762 1.391 . S
H764 C772 0.950 . S
H765 C777 0.950 . S
H766 C774 0.950 . S
H767 C776 0.950 . S
H768 C778 0.950 . S
H769 C780 0.950 . S
H770 C782 0.950 . S
H771 C783 0.950 . S
C772 H764 0.950 . S
C772 C773 1.386 . S
C772 C774 1.391 . S
C773 C772 1.386 . S
C773 C777 1.393 . S
C774 H766 0.950 . S
C774 C772 1.391 . S
C774 C775 1.400 . S
C775 C774 1.400 . S
C775 C776 1.398 . S
C775 C781 1.491 1_556 S
C776 H767 0.950 . S
C776 C775 1.398 . S
C776 C777 1.391 . S
C777 H765 0.950 . S
C777 C773 1.393 . S
C777 C776 1.391 . S
C778 H768 0.950 . S
C778 C779 1.386 . S
C778 C780 1.391 . S
C779 C778 1.386 . S
C779 C783 1.393 . S
C780 H769 0.950 . S
C780 C778 1.391 . S
C780 C781 1.400 . S
C781 C775 1.491 1_554 S
C781 C780 1.400 . S
C781 C782 1.398 . S
C782 H770 0.950 . S
C782 C781 1.398 . S
C782 C783 1.391 . S
C783 H771 0.950 . S
C783 C779 1.393 . S
C783 C782 1.391 . S
H784 C792 0.950 . S
H785 C797 0.950 . S
H786 C794 0.950 . S
H787 C796 0.950 . S
H788 C798 0.950 . S
H789 C800 0.950 . S
H790 C802 0.950 . S
H791 C803 0.950 . S
C792 H784 0.950 . S
C792 C793 1.386 . S
C792 C794 1.391 . S
C793 C792 1.386 . S
C793 C797 1.393 . S
C794 H786 0.950 . S
C794 C792 1.391 . S
C794 C795 1.400 . S
C795 C794 1.400 . S
C795 C796 1.398 . S
C795 C801 1.491 . S
C796 H787 0.950 . S
C796 C795 1.398 . S
C796 C797 1.391 . S
C797 H785 0.950 . S
C797 C793 1.393 . S
C797 C796 1.391 . S
C798 H788 0.950 . S
C798 C799 1.386 . S
C798 C800 1.391 . S
C799 C798 1.386 . S
C799 C803 1.393 . S
C800 H789 0.950 . S
C800 C798 1.391 . S
C800 C801 1.400 . S
C801 C795 1.491 . S
C801 C800 1.400 . S
C801 C802 1.398 . S
C802 H790 0.950 . S
C802 C801 1.398 . S
C802 C803 1.391 . S
C803 H791 0.950 . S
C803 C799 1.393 . S
C803 C802 1.391 . S
H804 C812 0.950 . S
H805 C817 0.950 . S
H806 C814 0.950 . S
H807 C816 0.950 . S
H808 C818 0.950 . S
H809 C820 0.950 . S
H810 C822 0.950 . S
H811 C823 0.950 . S
C812 H804 0.950 . S
C812 C813 1.386 . S
C812 C814 1.391 . S
C813 C812 1.386 . S
C813 C817 1.393 . S
C814 H806 0.950 . S
C814 C812 1.391 . S
C814 C815 1.400 . S
C815 C814 1.400 . S
C815 C816 1.398 . S
C815 C821 1.491 . S
C816 H807 0.950 . S
C816 C815 1.398 . S
C816 C817 1.391 . S
C817 H805 0.950 . S
C817 C813 1.393 . S
C817 C816 1.391 . S
C818 H808 0.950 . S
C818 C819 1.386 . S
C818 C820 1.391 . S
C819 C818 1.386 . S
C819 C823 1.393 . S
C820 H809 0.950 . S
C820 C818 1.391 . S
C820 C821 1.400 . S
C821 C815 1.491 . S
C821 C820 1.400 . S
C821 C822 1.398 . S
C822 H810 0.950 . S
C822 C821 1.398 . S
C822 C823 1.391 . S
C823 H811 0.950 . S
C823 C819 1.393 . S
C823 C822 1.391 . S
H824 C832 0.950 . S
H825 C837 0.930 1_655 S
H826 C834 0.950 . S
H827 C836 0.927 1_655 S
H828 C838 0.950 1_655 S
H829 C840 0.950 1_655 S
H830 C842 0.950 . S
H831 C843 0.950 . S
C832 H824 0.950 . S
C832 C833 1.386 . S
C832 C834 1.391 . S
C833 C832 1.386 . S
C833 C837 1.413 . S
C834 H826 0.950 . S
C834 C832 1.391 . S
C834 C835 1.400 . S
C835 C834 1.400 . S
C835 C836 1.421 . S
C835 C841 1.491 . S
C836 H827 0.927 1_455 S
C836 C835 1.421 . S
C836 C837 1.391 . S
C837 H825 0.930 1_455 S
C837 C833 1.413 . S
C837 C836 1.391 . S
C838 H828 0.950 1_455 S
C838 C839 1.386 . S
C838 C840 1.391 . S
C839 C838 1.386 . S
C839 C843 1.393 . S
C840 H829 0.950 1_455 S
C840 C838 1.391 . S
C840 C841 1.400 . S
C841 C835 1.491 . S
C841 C840 1.400 . S
C841 C842 1.398 . S
C842 H830 0.950 . S
C842 C841 1.398 . S
C842 C843 1.391 . S
C843 H831 0.950 . S
C843 C839 1.393 . S
C843 C842 1.391 . S
H844 C852 0.950 . S
H845 C857 0.950 . S
H846 C854 0.950 . S
H847 C856 0.950 . S
H848 C858 0.950 . S
H849 C860 0.950 . S
H850 C862 0.950 . S
H851 C863 0.950 . S
C852 H844 0.950 . S
C852 C853 1.386 . S
C852 C854 1.391 . S
C853 C852 1.386 . S
C853 C857 1.393 1_565 S
C854 H846 0.950 . S
C854 C852 1.391 . S
C854 C855 1.400 . S
C855 C854 1.400 . S
C855 C856 1.398 1_565 S
C855 C861 1.491 . S
C856 H847 0.950 . S
C856 C855 1.398 1_545 S
C856 C857 1.391 . S
C857 H845 0.950 . S
C857 C853 1.393 1_545 S
C857 C856 1.391 . S
C858 H848 0.950 . S
C858 C859 1.386 1_545 S
C858 C860 1.391 . S
C859 C858 1.386 1_565 S
C859 C863 1.393 . S
C860 H849 0.950 . S
C860 C858 1.391 . S
C860 C861 1.400 1_545 S
C861 C855 1.491 . S
C861 C860 1.400 1_565 S
C861 C862 1.398 . S
C862 H850 0.950 . S
C862 C861 1.398 . S
C862 C863 1.391 . S
C863 H851 0.950 . S
C863 C859 1.393 . S
C863 C862 1.391 . S
C233 C11 1.734 . S
C239 C109 1.734 . S
C253 C25 1.733 . S
C259 C67 1.733 . S
C273 C81 1.735 . S
C279 C39 1.734 . S
C293 C53 1.732 . S
C299 C95 1.732 . S
C313 C123 1.732 . S
C319 C179 1.732 . S
C333 C137 1.732 . S
C339 C207 1.732 . S
C353 C165 1.735 . S
C359 C151 1.735 . S
C373 C221 1.735 . S
C379 C193 1.734 . S
C393 C13 1.125 . S
C399 C97 1.134 . S
C413 C106 1.288 1_545 S
C419 C22 1.290 1_565 S
C433 C41 1.120 . S
C439 C69 1.134 . S
C453 C78 1.281 1_565 S
C459 C50 1.280 1_545 S
C473 C7 1.089 . S
C479 C203 1.072 . S
C493 C167 1.130 . S
C499 C27 1.109 . S
C513 C189 1.067 . S
C519 C35 1.090 . S
C533 C181 1.091 . S
C539 C55 1.079 . S
C553 C147 1.071 . S
C559 C63 1.089 . S
C573 C83 1.134 . S
C579 C223 1.119 . S
C593 C91 1.076 . S
C599 C119 1.061 . S
C613 C111 1.130 . S
C619 C139 1.132 . S
C633 C8 1.311 . S
C639 C64 1.312 . S
C653 C120 1.292 . S
C659 C190 1.290 . S
C673 C175 1.078 . S
C679 C133 1.060 . S
C693 C204 1.296 . S
C699 C148 1.299 . S
C713 C105 1.071 1_545 S
C719 C49 1.064 1_545 S
C733 C36 1.315 . S
C739 C92 1.315 . S
C753 C161 1.078 . S
C759 C217 1.060 . S
C773 C195 1.097 . S
C779 C153 1.122 . S
C793 C218 1.282 . S
C799 C176 1.283 . S
C813 C209 1.080 . S
C819 C125 1.084 . S
C833 C162 1.313 . S
C839 C134 1.312 . S
C853 C21 1.080 1_565 S
C859 C77 1.059 1_565 S
