# Generated by pormake.
# Topology twt, (3)-cn, num edge types: 1
# Building blocks:
#     Node 0, Type 0, BuildingBlock: WUSLED_clean_sbu_0, # of connection points: 3
#     Node 1, Type 0, BuildingBlock: WUSLED_clean_sbu_0, # of connection points: 3
#     Node 2, Type 0, BuildingBlock: WUSLED_clean_sbu_0, # of connection points: 3
#     Node 3, Type 0, BuildingBlock: WUSLED_clean_sbu_0, # of connection points: 3
#     Node 4, Type 0, BuildingBlock: WUSLED_clean_sbu_0, # of connection points: 3
#     Node 5, Type 0, BuildingBlock: WUSLED_clean_sbu_0, # of connection points: 3
#     Edge 6, Type (0, 0), BuildingBlock: ZUJKAS_clean_linker_0, # of connection points: 2
#     Edge 7, Type (0, 0), BuildingBlock: ZUJKAS_clean_linker_0, # of connection points: 2
#     Edge 8, Type (0, 0), BuildingBlock: ZUJKAS_clean_linker_0, # of connection points: 2
#     Edge 9, Type (0, 0), BuildingBlock: ZUJKAS_clean_linker_0, # of connection points: 2
#     Edge 10, Type (0, 0), BuildingBlock: ZUJKAS_clean_linker_0, # of connection points: 2
#     Edge 11, Type (0, 0), BuildingBlock: ZUJKAS_clean_linker_0, # of connection points: 2
#     Edge 12, Type (0, 0), BuildingBlock: ZUJKAS_clean_linker_0, # of connection points: 2
#     Edge 13, Type (0, 0), BuildingBlock: ZUJKAS_clean_linker_0, # of connection points: 2
#     Edge 14, Type (0, 0), BuildingBlock: ZUJKAS_clean_linker_0, # of connection points: 2
# Relax obj value: 0.000
# Max RMSD: 0.005
# Mean RMSD: 0.005
data_MOF--net-twt--node1-WUSLED_clean_sbu_0--edge1-ZUJKAS_clean_linker_0
_symmetry_space_group_name_H-M    P1
_symmetry_Int_Tables_number       1
_symmetry_cell_setting            triclinic
loop_
_symmetry_equiv_pos_as_xyz
'x, y, z'
_cell_length_a     80.303187
_cell_length_b     80.242771
_cell_length_c     20.932455
_cell_angle_alpha  90.170132
_cell_angle_beta   89.969693
_cell_angle_gamma 119.7807
loop_
_atom_site_label
_atom_site_type_symbol
_atom_site_fract_x
_atom_site_fract_y
_atom_site_fract_z
_atom_type_partial_charge
C0 C 0.67057 0.28077 0.31564 0.0
C1 C 0.68814 0.29476 0.34164 0.0
C2 C 0.67577 0.31697 0.35331 0.0
C3 C 0.69072 0.3127 0.36031 0.0
C4 C 0.6583 0.3029 0.32644 0.0
C5 C 0.65575 0.28502 0.30789 0.0
U6 U 0.68767 0.24458 0.2794 0.0
O7 O 0.67432 0.21403 0.30595 0.0
O8 O 0.67793 0.22228 0.2049 0.0
C9 C 0.67066 0.20813 0.24633 0.0
C10 C 0.66723 0.26159 0.29721 0.0
C11 C 0.65105 0.19232 0.23301 0.0
C12 C 0.61829 0.1804 0.19605 0.0
C13 C 0.63659 0.19578 0.21031 0.0
C14 C 0.6286 0.15797 0.22815 0.0
C15 C 0.61408 0.16128 0.20461 0.0
C16 C 0.64687 0.17333 0.24209 0.0
C17 C 0.74158 0.2608 0.29105 0.0
C18 C 0.7556 0.24095 0.26301 0.0
C19 C 0.77564 0.27274 0.30727 0.0
C20 C 0.75967 0.27531 0.31122 0.0
C21 C 0.77387 0.25556 0.2829 0.0
C22 C 0.7396 0.24355 0.26703 0.0
C23 C 0.72511 0.2641 0.29532 0.0
O24 O 0.67395 0.26039 0.24118 0.0
O25 O 0.67028 0.25197 0.34202 0.0
O26 O 0.71298 0.25526 0.34209 0.0
O27 O 0.71659 0.2635 0.24108 0.0
H28 H 0.69977 0.29174 0.348 0.0
H29 H 0.7043 0.32309 0.38132 0.0
H30 H 0.6466 0.30575 0.31921 0.0
H31 H 0.64212 0.27443 0.28763 0.0
H32 H 0.6074 0.18348 0.17874 0.0
H33 H 0.63947 0.21035 0.20329 0.0
H34 H 0.62598 0.14348 0.23457 0.0
H35 H 0.65783 0.17034 0.25942 0.0
H36 H 0.75372 0.22761 0.24347 0.0
H37 H 0.78934 0.28416 0.32411 0.0
H38 H 0.76146 0.28869 0.33016 0.0
H39 H 0.72572 0.23217 0.25117 0.0
C40 C 0.63561 0.55808 0.66627 0.0
C41 C 0.63657 0.57587 0.65712 0.0
C42 C 0.60464 0.56338 0.7037 0.0
C43 C 0.62123 0.57849 0.67561 0.0
C44 C 0.60398 0.5457 0.71354 0.0
C45 C 0.61927 0.5431 0.69495 0.0
U46 U 0.68831 0.5745 0.62335 0.0
O47 O 0.70542 0.56071 0.64689 0.0
O48 O 0.69978 0.56428 0.54674 0.0
C49 C 0.70703 0.55696 0.58677 0.0
C50 C 0.65121 0.5546 0.64559 0.0
C51 C 0.70322 0.53733 0.57247 0.0
C52 C 0.68276 0.50491 0.53182 0.0
C53 C 0.68548 0.52306 0.54831 0.0
C54 C 0.71529 0.51495 0.56482 0.0
C55 C 0.69772 0.50068 0.53922 0.0
C56 C 0.718 0.53305 0.58112 0.0
C57 C 0.72687 0.62819 0.63168 0.0
C58 C 0.76115 0.64336 0.65375 0.0
C59 C 0.74849 0.6611 0.59825 0.0
C60 C 0.73001 0.64515 0.60189 0.0
C61 C 0.76428 0.66049 0.62472 0.0
C62 C 0.74265 0.62735 0.65701 0.0
C63 C 0.70699 0.61202 0.63798 0.0
O64 O 0.65853 0.56107 0.58877 0.0
O65 O 0.66426 0.55759 0.68889 0.0
O66 O 0.70368 0.59992 0.685 0.0
O67 O 0.69828 0.60349 0.58457 0.0
H68 H 0.64909 0.58765 0.63516 0.0
H69 H 0.62221 0.59224 0.66674 0.0
H70 H 0.59166 0.53386 0.73607 0.0
H71 H 0.61829 0.5293 0.70278 0.0
H72 H 0.66908 0.49436 0.51182 0.0
H73 H 0.67385 0.52604 0.5413 0.0
H74 H 0.72701 0.51214 0.57242 0.0
H75 H 0.73177 0.54382 0.59994 0.0
H76 H 0.77301 0.64231 0.67388 0.0
H77 H 0.75032 0.6741 0.57617 0.0
H78 H 0.71807 0.64618 0.58224 0.0
H79 H 0.74069 0.61442 0.67994 0.0
C80 C 0.32347 0.52243 -0.00517 0.0
C81 C 0.31031 0.5259 0.02809 0.0
C82 C 0.28731 0.49148 0.03116 0.0
C83 C 0.2924 0.51057 0.04615 0.0
C84 C 0.30055 0.48819 -0.00288 0.0
C85 C 0.31841 0.5035 0.97928 0.0
U86 U 0.35948 0.57566 0.96198 0.0
O87 O 0.39017 0.59254 0.98602 0.0
O88 O 0.3811 0.58849 0.88567 0.0
C89 C 0.39559 0.59524 0.92588 0.0
C90 C 0.34257 0.5382 0.97634 0.0
C91 C 0.4114 0.59169 0.90917 0.0
C92 C 0.42589 0.57128 0.90626 0.0
C93 C 0.41039 0.57402 0.92154 0.0
C94 C 0.44343 0.60376 0.86566 0.0
C95 C 0.44268 0.58618 0.87841 0.0
C96 C 0.42798 0.60646 0.88092 0.0
C97 C 0.34329 0.61335 0.98165 0.0
C98 C 0.36139 0.64668 0.94736 0.0
C99 C 0.33232 0.63577 0.00917 0.0
C100 C 0.33003 0.61733 0.01151 0.0
C101 C 0.34795 0.65069 0.97669 0.0
C102 C 0.35908 0.62817 0.94982 0.0
C103 C 0.34009 0.5936 0.98359 0.0
O104 O 0.34344 0.54648 0.9214 0.0
O105 O 0.35255 0.55052 0.02168 0.0
O106 O 0.34932 0.59004 0.02849 0.0
O107 O 0.3402 0.5859 0.9282 0.0
H108 H 0.31393 0.54044 0.04048 0.0
H109 H 0.28269 0.51367 0.07279 0.0
H110 H 0.29705 0.47378 0.98362 0.0
H111 H 0.32833 0.50052 0.95331 0.0
H112 H 0.42484 0.55762 0.91728 0.0
H113 H 0.39769 0.56242 0.94338 0.0
H114 H 0.45593 0.61543 0.84324 0.0
H115 H 0.429 0.62017 0.87074 0.0
H116 H 0.37351 0.65774 0.92149 0.0
H117 H 0.32189 0.63836 0.03333 0.0
H118 H 0.3178 0.6061 0.03657 0.0
H119 H 0.36949 0.62537 0.92646 0.0
C120 C 0.0462 0.20966 0.31584 0.0
C121 C 1.02789 0.19505 0.33402 0.0
C122 C 0.04043 0.17327 0.35296 0.0
C123 C 1.02504 0.17701 0.35251 0.0
C124 C 0.05873 0.18806 0.33478 0.0
C125 C 0.06156 0.20603 0.31643 0.0
U126 U 0.02957 0.24613 0.27868 0.0
O127 O 0.04369 0.27699 0.30068 0.0
O128 O 0.03871 0.26734 0.20078 0.0
C129 C 0.04669 0.28204 0.24022 0.0
C130 C 0.04966 0.22873 0.29593 0.0
C131 C 0.06616 0.29752 0.22319 0.0
C132 C 0.10074 0.31547 0.24019 0.0
C133 C 0.08261 0.29998 0.25526 0.0
C134 C 0.08628 0.32593 0.15989 0.0
C135 C 0.1028 0.32878 0.19266 0.0
C136 C 0.0682 0.31052 0.17511 0.0
C137 C 0.976 0.23112 0.29704 0.0
C138 C 0.95874 0.24563 0.24817 0.0
C139 C 0.94468 0.22386 0.33722 0.0
C140 C 0.96082 0.22155 0.34016 0.0
C141 C 0.9433 0.23578 0.29078 0.0
C142 C 0.97495 0.24335 0.25131 0.0
C143 C 0.99238 0.22759 0.29987 0.0
O144 O 0.04231 0.22938 0.24055 0.0
O145 O 0.04739 0.23905 0.34032 0.0
O146 O 1.00516 0.23683 0.34478 0.0
O147 O 1.0001 0.22709 0.24498 0.0
H148 H 1.01584 0.19758 0.3337 0.0
H149 H 1.01072 0.16593 0.36556 0.0
H150 H 0.07098 0.18584 0.33549 0.0
H151 H 0.07581 0.21715 0.30276 0.0
H152 H 0.11308 0.31725 0.26685 0.0
H153 H 0.08142 0.29012 0.29253 0.0
H154 H 0.08728 0.3356 0.12218 0.0
H155 H 0.05572 0.30885 0.14958 0.0
H156 H 0.95815 0.2548 0.21146 0.0
H157 H 0.93331 0.21634 0.37166 0.0
H158 H 0.96137 0.21212 0.37601 0.0
H159 H 0.98652 0.25093 0.21755 0.0
C160 C 0.08055 0.93247 0.65739 0.0
C161 C 0.07702 0.91634 0.69366 0.0
C162 C 0.11121 0.92658 0.69359 0.0
C163 C 0.09221 0.91346 0.71176 0.0
C164 C 0.11457 0.94259 0.65668 0.0
C165 C 0.09941 0.94549 0.63888 0.0
U166 U 1.02749 0.91642 0.6245 0.0
O167 O 1.01099 0.93069 0.6501 0.0
O168 O 1.01482 0.92578 0.54936 0.0
C169 C 1.00831 0.93366 0.59023 0.0
C170 C 0.06496 0.93623 0.63921 0.0
C171 C 1.01211 0.95316 0.57469 0.0
C172 C 0.03357 0.98627 0.54302 0.0
C173 C 0.03057 0.96801 0.55906 0.0
C174 C 0.99977 0.97507 0.55887 0.0
C175 C 1.01818 0.99003 0.54263 0.0
C176 C 0.9968 0.95686 0.57468 0.0
C177 C 0.98933 0.8629 0.64267 0.0
C178 C 0.95604 0.84817 0.60793 0.0
C179 C 0.96656 0.82992 0.67141 0.0
C180 C 0.98511 0.84576 0.67338 0.0
C181 C 0.95176 0.83087 0.63857 0.0
C182 C 0.97466 0.86407 0.61009 0.0
C183 C 1.00917 0.87915 0.64464 0.0
O184 O 0.05662 0.92908 0.58401 0.0
O185 O 0.05273 0.9341 0.68459 0.0
O186 O 1.013 0.89188 0.69014 0.0
O187 O 1.0168 0.88696 0.58938 0.0
H188 H 0.06254 0.90605 0.70818 0.0
H189 H 0.08906 0.90086 0.73951 0.0
H190 H 0.129 0.95312 0.64252 0.0
H191 H 0.10244 0.95805 0.61102 0.0
H192 H 0.04797 0.99749 0.53147 0.0
H193 H 0.04261 0.96546 0.55905 0.0
H194 H 0.98754 0.9773 0.55821 0.0
H195 H 0.98243 0.94558 0.58643 0.0
H196 H 0.94497 0.84948 0.58279 0.0
H197 H 0.96391 0.8168 0.69472 0.0
H198 H 0.99625 0.84456 0.69859 0.0
H199 H 0.97762 0.87722 0.58624 0.0
C200 C 0.39374 0.96889 0.99385 0.0
C201 C 0.40769 0.9652 0.0199 0.0
C202 C 0.43039 0.99964 0.0271 0.0
C203 C 0.42584 0.98044 0.03651 0.0
C204 C 0.41631 1.00315 0.00066 0.0
C205 C 0.3982 0.98794 0.98427 0.0
U206 U 0.3567 0.91565 0.96382 0.0
O207 O 0.32615 0.89956 0.99118 0.0
O208 O 0.3343 0.90276 0.88999 0.0
C209 C 0.32022 0.89682 0.93157 0.0
C210 C 0.3744 0.95322 0.97699 0.0
C211 C 0.30466 0.901 0.91666 0.0
C212 C 0.29283 0.92052 0.86668 0.0
C213 C 0.30808 0.91748 0.88265 0.0
C214 C 0.27064 0.89092 0.91974 0.0
C215 C 0.27389 0.90721 0.88478 0.0
C216 C 0.28585 0.88785 0.93535 0.0
C217 C 0.37195 0.87715 0.98193 0.0
C218 C 0.35535 0.84446 0.94028 0.0
C219 C 0.38106 0.85391 0.01705 0.0
C220 C 0.38345 0.8724 0.01934 0.0
C221 C 0.3671 0.83972 0.97704 0.0
C222 C 0.35774 0.86301 0.94274 0.0
C223 C 0.37551 0.89706 0.9835 0.0
O224 O 0.37291 0.94458 0.92211 0.0
O225 O 0.36473 0.94122 0.0232 0.0
O226 O 0.36693 0.90117 0.02933 0.0
O227 O 0.37514 0.90459 0.92819 0.0
H228 H 0.40452 0.95056 0.02748 0.0
H229 H 0.43638 0.97719 0.05609 0.0
H230 H 0.41915 1.0177 0.9936 0.0
H231 H 0.3876 0.99108 0.96441 0.0
H232 H 0.29589 0.93334 0.84043 0.0
H233 H 0.32249 0.92792 0.86799 0.0
H234 H 0.25625 0.88026 0.93382 0.0
H235 H 0.28287 0.87502 0.96145 0.0
H236 H 0.34456 0.83398 0.90855 0.0
H237 H 0.39012 0.85074 0.04699 0.0
H238 H 0.39444 0.88308 0.05012 0.0
H239 H 0.34867 0.86635 0.91349 0.0
H240 H 0.70752 0.35281 0.34026 0.0
H241 H 0.71127 0.38376 0.37391 0.0
H242 H 0.65323 0.3551 0.44484 0.0
H243 H 0.64956 0.32411 0.41345 0.0
H244 H 0.69041 0.40113 0.33507 0.0
H245 H 0.68313 0.38845 0.59653 0.0
H246 H 0.68731 0.37344 0.54203 0.0
H247 H 0.66363 0.37026 0.55081 0.0
C248 C 0.69564 0.35304 0.36389 0.0
C249 C 0.67825 0.3359 0.37422 0.0
C250 C 0.69777 0.37078 0.38271 0.0
C251 C 0.68263 0.37176 0.41273 0.0
C252 C 0.66524 0.35471 0.42288 0.0
H253 H 0.66599 0.46485 0.55397 0.0
H254 H 0.66215 0.4338 0.5211 0.0
C255 C 0.6631 0.33699 0.40411 0.0
C256 C 0.68481 0.39065 0.43168 0.0
H257 H 0.68285 0.41626 0.5595 0.0
C258 C 0.68886 0.40448 0.38419 0.0
C259 C 0.6827 0.39501 0.49577 0.0
C260 C 0.67913 0.38109 0.54938 0.0
C261 C 0.69054 0.42237 0.39879 0.0
C262 C 0.68846 0.42674 0.46289 0.0
C263 C 0.68439 0.41291 0.51038 0.0
C264 C 0.69072 0.44567 0.48182 0.0
C265 C 0.69409 0.43627 0.34514 0.0
C266 C 0.70811 0.46268 0.47125 0.0
C267 C 0.71031 0.48045 0.48954 0.0
C268 C 0.69521 0.48165 0.51941 0.0
C269 C 0.67784 0.46454 0.53035 0.0
C270 C 0.67565 0.44675 0.51197 0.0
H271 H 0.68999 0.42888 0.29805 0.0
H272 H 0.68598 0.44399 0.35262 0.0
H273 H 0.70961 0.44704 0.34341 0.0
H274 H 0.72008 0.46222 0.4492 0.0
H275 H 0.72383 0.49329 0.47968 0.0
H276 H 0.60524 0.595 0.75771 0.0
H277 H 0.57783 0.59871 0.78874 0.0
H278 H 0.53903 0.54121 0.72296 0.0
H279 H 0.56624 0.53745 0.69106 0.0
H280 H 0.54748 0.59578 0.71336 0.0
H281 H 0.52024 0.54101 0.90529 0.0
H282 H 0.54396 0.5506 0.87175 0.0
H283 H 0.52344 0.53239 0.82958 0.0
C284 C 0.59088 0.58317 0.74941 0.0
C285 C 0.58802 0.56586 0.72223 0.0
C286 C 0.57522 0.58529 0.76753 0.0
C287 C 0.55636 0.57012 0.75928 0.0
C288 C 0.55343 0.55295 0.7313 0.0
H289 H 0.44236 0.55429 0.82806 0.0
H290 H 0.46994 0.55057 0.79964 0.0
C291 C 0.56906 0.55083 0.7131 0.0
C292 C 0.53973 0.57237 0.77853 0.0
H293 H 0.50023 0.55369 0.87529 0.0
C294 C 0.53721 0.58666 0.74903 0.0
C295 C 0.52629 0.56041 0.82494 0.0
C296 C 0.52865 0.54534 0.86023 0.0
C297 C 0.52143 0.58907 0.76373 0.0
C298 C 0.50798 0.5771 0.8101 0.0
C299 C 0.51051 0.56282 0.83967 0.0
C300 C 0.49125 0.57925 0.82883 0.0
C301 C 0.51907 0.60411 0.72828 0.0
C302 C 0.49402 0.59646 0.85599 0.0
C303 C 0.4783 0.59861 0.87257 0.0
C304 C 0.45939 0.58355 0.86268 0.0
C305 C 0.45667 0.56615 0.8368 0.0
C306 C 0.47243 0.56402 0.82022 0.0
H307 H 0.52749 0.60844 0.68326 0.0
H308 H 0.50376 0.59884 0.71664 0.0
H309 H 0.52425 0.61707 0.75886 0.0
H310 H 0.50838 0.60825 0.86464 0.0
H311 H 0.48098 0.61206 0.89369 0.0
H312 H 0.25206 0.4894 0.03172 0.0
H313 H 0.22108 0.46224 0.06311 0.0
H314 H 0.24839 0.42881 0.10368 0.0
H315 H 0.27947 0.45608 0.07499 0.0
H316 H 0.20157 0.42621 0.01092 0.0
H317 H 0.21769 0.42107 0.26518 0.0
H318 H 0.23283 0.44165 0.21652 0.0
H319 H 0.23455 0.42017 0.21098 0.0
C320 C 0.25156 0.47639 0.04836 0.0
C321 C 0.26836 0.47502 0.05092 0.0
C322 C 0.23378 0.46081 0.06586 0.0
C323 C 0.23239 0.44354 0.08671 0.0
C324 C 0.2491 0.44209 0.08906 0.0
H325 H 0.13791 0.33051 0.18732 0.0
H326 H 0.16915 0.35831 0.16186 0.0
C327 C 0.26687 0.45765 0.07173 0.0
C328 C 0.2134 0.42683 0.10376 0.0
H329 H 0.18885 0.39506 0.22348 0.0
C330 C 0.19876 0.41949 0.05755 0.0
C331 C 0.20971 0.41799 0.16459 0.0
C332 C 0.22445 0.42572 0.2174 0.0
C333 C 0.18072 0.4034 0.07004 0.0
C334 C 0.17708 0.39451 0.13068 0.0
C335 C 0.19168 0.40183 0.17694 0.0
C336 C 0.15813 0.37773 0.14718 0.0
C337 C 0.16581 0.39578 0.01771 0.0
C338 C 0.14159 0.37947 0.14854 0.0
C339 C 0.12373 0.36366 0.16356 0.0
C340 C 0.12198 0.34569 0.17771 0.0
C341 C 0.13868 0.3441 0.17726 0.0
C342 C 0.15656 0.35997 0.16239 0.0
H343 H 0.17228 0.40114 0.96995 0.0
H344 H 0.15802 0.37983 0.01681 0.0
H345 H 0.15521 0.40055 0.02669 0.0
H346 H 0.1425 0.39313 0.13839 0.0
H347 H 0.11133 0.3656 0.16483 0.0
H348 H 1.00224 1.00995 0.59754 0.0
H349 H 1.0058 0.04078 0.56459 0.0
H350 H 0.04476 0.04502 0.41549 0.0
H351 H 0.04085 1.01391 0.4469 0.0
H352 H 0.03859 0.07699 0.5577 0.0
H353 H 1.00505 0.05307 0.31863 0.0
H354 H 1.00294 0.03641 0.38014 0.0
H355 H 1.02455 0.04868 0.33371 0.0
C356 C 1.01144 1.01733 0.55732 0.0
C357 C 1.02113 1.00931 0.52456 0.0
C358 C 1.01355 0.03503 0.53881 0.0
C359 C 1.02529 0.04508 0.48688 0.0
C360 C 0.03533 0.03736 0.45493 0.0
H361 H 0.05615 0.15301 0.29913 0.0
H362 H 0.05248 0.12226 0.33333 0.0
C363 C 0.03325 0.01966 0.47347 0.0
C364 C 1.02713 0.06371 0.46664 0.0
H365 H 1.01974 0.0864 0.34097 0.0
C366 C 0.0344 0.07903 0.51041 0.0
C367 C 1.02164 0.06637 0.40492 0.0
C368 C 1.01294 0.05023 0.35673 0.0
C369 C 0.0367 0.09703 0.49376 0.0
C370 C 0.03124 0.0997 0.43198 0.0
C371 C 1.02393 0.08436 0.38827 0.0
C372 C 0.03325 0.11837 0.41143 0.0
C373 C 0.0454 0.11317 0.54195 0.0
C374 C 1.02341 0.12634 0.44326 0.0
C375 C 1.02557 0.14402 0.42405 0.0
C376 C 0.03756 0.15411 0.37236 0.0
C377 C 0.04708 0.14586 0.33983 0.0
C378 C 0.0449 0.12819 0.35904 0.0
H379 H 0.05326 0.11031 0.58011 0.0
H380 H 0.05544 0.12698 0.51856 0.0
H381 H 0.03381 0.11475 0.5649 0.0
H382 H 1.01404 0.11886 0.48302 0.0
H383 H 1.0181 0.14995 0.45044 0.0
H384 H 0.14236 0.93235 0.62255 0.0
H385 H 0.16962 0.92884 0.65635 0.0
H386 H 0.14451 0.91123 0.84339 0.0
H387 H 0.1172 0.91473 0.81001 0.0
H388 H 0.19561 0.94768 0.75366 0.0
H389 H 0.15665 0.86911 0.79692 0.0
H390 H 0.1461 0.881 0.75358 0.0
H391 H 0.14707 0.88194 0.83941 0.0
C392 C 0.14262 0.92775 0.67095 0.0
C393 C 0.12752 0.92378 0.71349 0.0
C394 C 0.1582 0.92569 0.69012 0.0
C395 C 0.15903 0.91952 0.75215 0.0
C396 C 0.144 0.91557 0.79482 0.0
H397 H 0.24283 0.90094 0.95739 0.0
H398 H 0.21545 0.90454 0.9257 0.0
C399 C 0.12838 0.91758 0.77563 0.0
C400 C 0.17591 0.91785 0.77261 0.0
H401 H 0.1892 0.88629 0.82974 0.0
C402 C 0.19422 0.93424 0.77005 0.0
C403 C 0.1741 0.90032 0.79424 0.0
C404 C 0.15496 0.88204 0.79575 0.0
C405 C 0.2107 0.93366 0.78935 0.0
C406 C 0.20892 0.91611 0.8107 0.0
C407 C 0.19059 0.89974 0.81346 0.0
C408 C 0.22585 0.91438 0.83007 0.0
C409 C 0.22983 0.95197 0.78804 0.0
C410 C 0.2408 0.91858 0.78681 0.0
C411 C 0.2565 0.91655 0.80482 0.0
C412 C 0.25751 0.91006 0.86634 0.0
C413 C 0.24246 0.9058 0.90947 0.0
C414 C 0.22681 0.90791 0.89149 0.0
H415 H 0.22809 0.96487 0.78814 0.0
H416 H 0.23882 0.95286 0.82961 0.0
H417 H 0.23759 0.95231 0.74377 0.0
H418 H 0.24019 0.92313 0.73864 0.0
H419 H 0.26763 0.91961 0.76998 0.0
H420 H 0.45205 1.00325 0.13343 0.0
H421 H 0.48305 0.03063 0.1643 0.0
H422 H 0.48328 0.06041 0.99294 0.0
H423 H 0.45241 0.03312 0.96152 0.0
H424 H 0.51836 0.04795 0.10071 0.0
H425 H 0.49206 0.09962 0.13279 0.0
H426 H 0.47606 0.07404 0.12654 0.0
H427 H 0.48669 0.08808 0.05597 0.0
C428 C 0.45875 1.01555 0.10201 0.0
C429 C 0.44961 1.016 0.04517 0.0
C430 C 0.47644 0.03125 0.11991 0.0
C431 C 0.48533 0.04775 0.0816 0.0
C432 C 0.47648 0.04806 0.02415 0.0
H433 H 0.59149 0.15736 0.10081 0.0
H434 H 0.56042 0.12976 0.07209 0.0
C435 C 0.4588 0.03241 0.00624 0.0
C436 C 0.50398 0.06453 0.10119 0.0
H437 H 0.5258 0.11245 0.13641 0.0
C438 C 0.51997 0.06203 0.10888 0.0
C439 C 0.50609 0.08292 0.11174 0.0
C440 C 0.48929 0.08636 0.10695 0.0
C441 C 0.53809 0.07748 0.1254 0.0
C442 C 0.54021 0.0959 0.13581 0.0
C443 C 0.5242 0.09837 0.12833 0.0
C444 C 0.55894 0.11279 0.15428 0.0
C445 C 0.55489 0.07404 0.12988 0.0
C446 C 0.56829 0.11264 0.21075 0.0
C447 C 0.58605 0.12841 0.22736 0.0
C448 C 0.59479 0.14479 0.18816 0.0
C449 C 0.58514 0.14508 0.13241 0.0
C450 C 0.5674 0.12926 0.11574 0.0
H451 H 0.55209 0.06079 0.10396 0.0
H452 H 0.56811 0.08635 0.11019 0.0
H453 H 0.55754 0.0723 0.1808 0.0
H454 H 0.56183 0.10033 0.24221 0.0
H455 H 0.59287 0.12783 0.27126 0.0
H456 H 0.94083 0.26813 0.26505 0.0
H457 H 0.91191 0.27106 0.26049 0.0
H458 H 0.87707 0.21082 0.30295 0.0
H459 H 0.90577 0.20764 0.30653 0.0
H460 H 0.87839 0.25088 0.18187 0.0
H461 H 0.86109 0.23727 0.44002 0.0
H462 H 0.88434 0.24345 0.40812 0.0
H463 H 0.86455 0.21942 0.39975 0.0
C464 C 0.92702 0.25545 0.27288 0.0
C465 C 0.92572 0.23767 0.28674 0.0
C466 C 0.9105 0.25718 0.27055 0.0
C467 C 0.89235 0.24124 0.28243 0.0
C468 C 0.89095 0.22342 0.29504 0.0
H469 H 0.77621 0.2232 0.30881 0.0
H470 H 0.80464 0.21945 0.30466 0.0
C471 C 0.90742 0.22165 0.29722 0.0
C472 C 0.87485 0.24316 0.28131 0.0
H473 H 0.83791 0.23882 0.3743 0.0
C474 C 0.86957 0.24833 0.22397 0.0
C475 C 0.86331 0.23974 0.33621 0.0
C476 C 0.86863 0.23482 0.39972 0.0
C477 C 0.85288 0.24984 0.21976 0.0
C478 C 0.84137 0.2465 0.27477 0.0
C479 C 0.84668 0.24132 0.33209 0.0
C480 C 0.82395 0.24859 0.27436 0.0
C481 C 0.84751 0.25457 0.15602 0.0
C482 C 0.82529 0.26624 0.25894 0.0
C483 C 0.80903 0.26839 0.26077 0.0
C484 C 0.79104 0.25298 0.27868 0.0
C485 C 0.78973 0.2353 0.29397 0.0
C486 C 0.80602 0.23316 0.29206 0.0
H487 H 0.8544 0.2512 0.11583 0.0
H488 H 0.83173 0.24657 0.14878 0.0
H489 H 0.85245 0.27016 0.15431 0.0
H490 H 0.839 0.27847 0.24636 0.0
H491 H 0.81059 0.28216 0.24805 0.0
H492 H 0.79101 0.67467 0.72084 0.0
H493 H 0.82258 0.70371 0.71997 0.0
H494 H 0.81346 0.71453 0.52508 0.0
H495 H 0.78181 0.68558 0.52573 0.0
H496 H 0.8541 0.71375 0.64524 0.0
H497 H 0.82816 0.76554 0.60922 0.0
H498 H 0.81229 0.74078 0.63041 0.0
H499 H 0.82016 0.74713 0.54917 0.0
C500 C 0.79576 0.68316 0.67762 0.0
C501 C 0.7838 0.67783 0.62345 0.0
C502 C 0.8138 0.69981 0.67729 0.0
C503 C 0.82029 0.71155 0.62289 0.0
C504 C 0.80858 0.70604 0.56824 0.0
H505 H 0.92688 0.81732 0.53659 0.0
H506 H 0.89512 0.78847 0.53188 0.0
C507 C 0.79049 0.68943 0.56862 0.0
C508 C 0.83943 0.72935 0.62325 0.0
H509 H 0.86181 0.77807 0.60424 0.0
C510 C 0.85576 0.72781 0.63647 0.0
C511 C 0.84165 0.74773 0.61162 0.0
C512 C 0.82463 0.75049 0.59988 0.0
C513 C 0.87421 0.74407 0.63778 0.0
C514 C 0.87641 0.76245 0.62657 0.0
C515 C 0.86012 0.76399 0.61278 0.0
C516 C 0.89547 0.78026 0.62999 0.0
C517 C 0.89124 0.74137 0.65011 0.0
C518 C 0.90605 0.78549 0.68709 0.0
C519 C 0.92414 0.80201 0.69004 0.0
C520 C 0.93206 0.81376 0.63599 0.0
C521 C 0.9212 0.80872 0.57926 0.0
C522 C 0.90307 0.79217 0.57637 0.0
H523 H 0.8878 0.72636 0.64066 0.0
H524 H 0.90365 0.75118 0.62001 0.0
H525 H 0.89556 0.74469 0.70096 0.0
H526 H 0.90028 0.77681 0.72956 0.0
H527 H 0.9319 0.80563 0.73489 0.0
H528 H 0.38099 0.68579 0.98559 0.0
H529 H 0.38407 0.71773 0.98291 0.0
H530 H 0.32292 0.69195 0.95799 0.0
H531 H 0.3197 0.66003 0.95973 0.0
H532 H 0.37293 0.73523 0.88661 0.0
H533 H 0.33398 0.72735 0.11374 0.0
H534 H 0.34287 0.71144 0.0914 0.0
H535 H 0.32112 0.70849 0.05657 0.0
C536 C 0.3682 0.68689 0.97898 0.0
C537 C 0.35006 0.67026 0.97346 0.0
C538 C 0.36999 0.70517 0.97777 0.0
C539 C 0.35369 0.70723 0.9714 0.0
C540 C 0.33564 0.69071 0.96449 0.0
H541 H 0.33394 0.80473 0.96865 0.0
H542 H 0.3308 0.7728 0.9637 0.0
C543 C 0.33384 0.67245 0.9656 0.0
C544 C 0.35554 0.72663 0.97148 0.0
H545 H 0.34195 0.75503 0.05217 0.0
C546 C 0.36623 0.7396 0.92293 0.0
C547 C 0.34672 0.7323 0.01875 0.0
C548 C 0.33566 0.71926 0.07344 0.0
C549 C 0.36807 0.75796 0.91973 0.0
C550 C 0.35932 0.76367 0.9672 0.0
C551 C 0.34861 0.75066 0.0157 0.0
C552 C 0.36132 0.78315 0.9681 0.0
C553 C 0.379 0.77088 0.86467 0.0
C554 C 0.3795 0.79963 0.97267 0.0
C555 C 0.38135 0.81791 0.97496 0.0
C556 C 0.36504 0.82017 0.9734 0.0
C557 C 0.34683 0.8036 0.96906 0.0
C558 C 0.345 0.7853 0.96667 0.0
H559 H 0.37991 0.76258 0.82355 0.0
H560 H 0.37221 0.77925 0.84825 0.0
H561 H 0.39385 0.78114 0.88037 0.0
H562 H 0.39229 0.79836 0.97517 0.0
H563 H 0.39562 0.83029 0.97759 0.0
loop_
_geom_bond_atom_site_label_1
_geom_bond_atom_site_label_2
_geom_bond_distance
_geom_bond_site_symmetry_2
_ccdc_geom_bond_type
C0 C1 1.264 . S
C0 C5 1.479 . S
C0 C10 1.465 . S
C1 C0 1.264 . S
C1 C3 1.339 . S
C1 H28 0.931 . S
C2 C3 1.395 . S
C2 C4 1.320 . S
C3 C1 1.339 . S
C3 C2 1.395 . S
C3 H29 0.929 . S
C4 C2 1.320 . S
C4 C5 1.405 . S
C4 H30 0.930 . S
C5 C0 1.479 . S
C5 C4 1.405 . S
C5 H31 0.931 . S
U6 O7 2.454 . S
U6 O8 2.458 . S
U6 C9 2.984 . S
U6 C10 2.847 . S
U6 C23 2.882 . S
U6 O24 2.441 . S
U6 O25 2.420 . S
U6 O26 2.455 . S
U6 O27 2.449 . S
O7 U6 2.454 . S
O7 C9 1.353 . S
O8 U6 2.458 . S
O8 C9 1.286 . S
C9 U6 2.984 . S
C9 O7 1.353 . S
C9 O8 1.286 . S
C9 C11 1.363 . S
C10 C0 1.465 . S
C10 U6 2.847 . S
C10 O24 1.249 . S
C10 O25 1.202 . S
C11 C9 1.363 . S
C11 C13 1.408 . S
C11 C16 1.342 . S
C12 C13 1.310 . S
C12 C15 1.461 . S
C12 H32 0.932 . S
C13 C11 1.408 . S
C13 C12 1.310 . S
C13 H33 0.930 . S
C14 C15 1.474 . S
C14 C16 1.285 . S
C14 H34 0.929 . S
C15 C12 1.461 . S
C15 C14 1.474 . S
C16 C11 1.342 . S
C16 C14 1.285 . S
C16 H35 0.930 . S
C17 C20 1.424 . S
C17 C22 1.245 . S
C17 C23 1.428 . S
C18 C21 1.260 . S
C18 C22 1.477 . S
C18 H36 0.932 . S
C19 C20 1.384 . S
C19 C21 1.479 . S
C19 H37 0.929 . S
C20 C17 1.424 . S
C20 C19 1.384 . S
C20 H38 0.928 . S
C21 C18 1.260 . S
C21 C19 1.479 . S
C22 C17 1.245 . S
C22 C18 1.477 . S
C22 H39 0.932 . S
C23 U6 2.882 . S
C23 C17 1.428 . S
C23 O26 1.301 . S
C23 O27 1.282 . S
O24 U6 2.441 . S
O24 C10 1.249 . S
O25 U6 2.420 . S
O25 C10 1.202 . S
O26 U6 2.455 . S
O26 C23 1.301 . S
O27 U6 2.449 . S
O27 C23 1.282 . S
H28 C1 0.931 . S
H29 C3 0.929 . S
H30 C4 0.930 . S
H31 C5 0.931 . S
H32 C12 0.932 . S
H33 C13 0.930 . S
H34 C14 0.929 . S
H35 C16 0.930 . S
H36 C18 0.932 . S
H37 C19 0.929 . S
H38 C20 0.928 . S
H39 C22 0.932 . S
C40 C41 1.264 . S
C40 C45 1.479 . S
C40 C50 1.465 . S
C41 C40 1.264 . S
C41 C43 1.339 . S
C41 H68 0.931 . S
C42 C43 1.395 . S
C42 C44 1.320 . S
C43 C41 1.339 . S
C43 C42 1.395 . S
C43 H69 0.929 . S
C44 C42 1.320 . S
C44 C45 1.405 . S
C44 H70 0.930 . S
C45 C40 1.479 . S
C45 C44 1.405 . S
C45 H71 0.931 . S
U46 O47 2.454 . S
U46 O48 2.458 . S
U46 C49 2.984 . S
U46 C50 2.847 . S
U46 C63 2.882 . S
U46 O64 2.441 . S
U46 O65 2.420 . S
U46 O66 2.455 . S
U46 O67 2.449 . S
O47 U46 2.454 . S
O47 C49 1.353 . S
O48 U46 2.458 . S
O48 C49 1.286 . S
C49 U46 2.984 . S
C49 O47 1.353 . S
C49 O48 1.286 . S
C49 C51 1.363 . S
C50 C40 1.465 . S
C50 U46 2.847 . S
C50 O64 1.249 . S
C50 O65 1.202 . S
C51 C49 1.363 . S
C51 C53 1.408 . S
C51 C56 1.342 . S
C52 C53 1.310 . S
C52 C55 1.461 . S
C52 H72 0.932 . S
C53 C51 1.408 . S
C53 C52 1.310 . S
C53 H73 0.930 . S
C54 C55 1.474 . S
C54 C56 1.285 . S
C54 H74 0.929 . S
C55 C52 1.461 . S
C55 C54 1.474 . S
C56 C51 1.342 . S
C56 C54 1.285 . S
C56 H75 0.930 . S
C57 C60 1.424 . S
C57 C62 1.245 . S
C57 C63 1.428 . S
C58 C61 1.260 . S
C58 C62 1.477 . S
C58 H76 0.932 . S
C59 C60 1.384 . S
C59 C61 1.479 . S
C59 H77 0.929 . S
C60 C57 1.424 . S
C60 C59 1.384 . S
C60 H78 0.928 . S
C61 C58 1.260 . S
C61 C59 1.479 . S
C62 C57 1.245 . S
C62 C58 1.477 . S
C62 H79 0.932 . S
C63 U46 2.882 . S
C63 C57 1.428 . S
C63 O66 1.301 . S
C63 O67 1.282 . S
O64 U46 2.441 . S
O64 C50 1.249 . S
O65 U46 2.420 . S
O65 C50 1.202 . S
O66 U46 2.455 . S
O66 C63 1.301 . S
O67 U46 2.449 . S
O67 C63 1.282 . S
H68 C41 0.931 . S
H69 C43 0.929 . S
H70 C44 0.930 . S
H71 C45 0.931 . S
H72 C52 0.932 . S
H73 C53 0.930 . S
H74 C54 0.929 . S
H75 C56 0.930 . S
H76 C58 0.932 . S
H77 C59 0.929 . S
H78 C60 0.928 . S
H79 C62 0.932 . S
C80 C81 1.264 . S
C80 C85 1.479 . S
C80 C90 1.465 . S
C81 C80 1.264 . S
C81 C83 1.339 . S
C81 H108 0.931 . S
C82 C83 1.395 . S
C82 C84 1.320 . S
C83 C81 1.339 . S
C83 C82 1.395 . S
C83 H109 0.929 . S
C84 C82 1.320 . S
C84 C85 1.405 . S
C84 H110 0.930 . S
C85 C80 1.479 . S
C85 C84 1.405 . S
C85 H111 0.931 . S
U86 O87 2.454 1_554 S
U86 O88 2.458 1_554 S
U86 C89 2.984 1_554 S
U86 C90 2.847 . S
U86 C103 2.882 . S
U86 O104 2.441 . S
U86 O105 2.420 . S
U86 O106 2.454 1_554 S
U86 O107 2.449 . S
O87 U86 2.454 1_556 S
O87 C89 1.353 . S
O88 U86 2.458 1_556 S
O88 C89 1.286 . S
C89 U86 2.984 1_556 S
C89 O87 1.353 . S
C89 O88 1.286 . S
C89 C91 1.363 . S
C90 C80 1.465 . S
C90 U86 2.847 . S
C90 O104 1.249 . S
C90 O105 1.202 . S
C91 C89 1.363 . S
C91 C93 1.408 . S
C91 C96 1.342 . S
C92 C93 1.310 . S
C92 C95 1.461 . S
C92 H112 0.932 . S
C93 C91 1.408 . S
C93 C92 1.310 . S
C93 H113 0.930 . S
C94 C95 1.474 . S
C94 C96 1.285 . S
C94 H114 0.929 . S
C95 C92 1.461 . S
C95 C94 1.474 . S
C96 C91 1.342 . S
C96 C94 1.285 . S
C96 H115 0.930 . S
C97 C100 1.424 . S
C97 C102 1.245 1_554 S
C97 C103 1.428 . S
C98 C101 1.260 . S
C98 C102 1.477 . S
C98 H116 0.932 . S
C99 C100 1.384 . S
C99 C101 1.479 1_554 S
C99 H117 0.929 . S
C100 C97 1.424 . S
C100 C99 1.384 . S
C100 H118 0.928 . S
C101 C98 1.260 . S
C101 C99 1.479 1_556 S
C102 C97 1.245 1_556 S
C102 C98 1.477 . S
C102 H119 0.932 . S
C103 U86 2.882 . S
C103 C97 1.428 . S
C103 O106 1.298 1_554 S
C103 O107 1.282 . S
O104 U86 2.441 . S
O104 C90 1.249 . S
O105 U86 2.420 . S
O105 C90 1.202 . S
O106 U86 2.454 1_556 S
O106 C103 1.298 1_556 S
O107 U86 2.449 . S
O107 C103 1.282 . S
H108 C81 0.931 . S
H109 C83 0.929 . S
H110 C84 0.930 . S
H111 C85 0.931 . S
H112 C92 0.932 . S
H113 C93 0.930 . S
H114 C94 0.929 . S
H115 C96 0.930 . S
H116 C98 0.932 . S
H117 C99 0.929 . S
H118 C100 0.928 . S
H119 C102 0.932 . S
C120 C121 1.246 1_455 S
C120 C125 1.512 . S
C120 C130 1.452 . S
C121 C120 1.246 1_655 S
C121 C123 1.339 . S
C121 H148 0.931 . S
C122 C123 1.462 . S
C122 C124 1.282 1_655 S
C123 C121 1.339 . S
C123 C122 1.462 . S
C123 H149 0.929 . S
C124 C122 1.282 1_455 S
C124 C125 1.405 . S
C124 H150 0.930 . S
C125 C120 1.512 . S
C125 C124 1.405 . S
C125 H151 0.931 . S
U126 O127 2.454 . S
U126 O128 2.458 . S
U126 C129 2.984 . S
U126 C130 2.847 . S
U126 C143 2.882 1_455 S
U126 O144 2.441 . S
U126 O145 2.420 1_455 S
U126 O146 2.455 1_455 S
U126 O147 2.449 1_455 S
O127 U126 2.454 . S
O127 C129 1.353 . S
O128 U126 2.458 . S
O128 C129 1.286 . S
C129 U126 2.984 . S
C129 O127 1.353 . S
C129 O128 1.286 . S
C129 C131 1.363 . S
C130 C120 1.452 . S
C130 U126 2.847 . S
C130 O144 1.249 . S
C130 O145 1.202 1_455 S
C131 C129 1.363 . S
C131 C133 1.408 . S
C131 C136 1.342 . S
C132 C133 1.310 . S
C132 C135 1.461 . S
C132 H152 0.932 . S
C133 C131 1.408 . S
C133 C132 1.310 . S
C133 H153 0.930 . S
C134 C135 1.474 . S
C134 C136 1.285 . S
C134 H154 0.929 . S
C135 C132 1.461 . S
C135 C134 1.474 . S
C136 C131 1.342 . S
C136 C134 1.285 . S
C136 H155 0.930 . S
C137 C140 1.424 . S
C137 C142 1.245 . S
C137 C143 1.428 . S
C138 C141 1.260 . S
C138 C142 1.477 . S
C138 H156 0.932 . S
C139 C140 1.384 . S
C139 C141 1.479 . S
C139 H157 0.929 . S
C140 C137 1.424 . S
C140 C139 1.384 . S
C140 H158 0.928 . S
C141 C138 1.260 . S
C141 C139 1.479 . S
C142 C137 1.245 . S
C142 C138 1.477 . S
C142 H159 0.932 . S
C143 U126 2.882 1_655 S
C143 C137 1.428 . S
C143 O146 1.301 . S
C143 O147 1.282 . S
O144 U126 2.441 . S
O144 C130 1.249 . S
O145 U126 2.420 1_655 S
O145 C130 1.202 1_655 S
O146 U126 2.455 1_655 S
O146 C143 1.301 . S
O147 U126 2.449 1_655 S
O147 C143 1.282 . S
H148 C121 0.931 . S
H149 C123 0.929 . S
H150 C124 0.930 . S
H151 C125 0.931 . S
H152 C132 0.932 . S
H153 C133 0.930 . S
H154 C134 0.929 . S
H155 C136 0.930 . S
H156 C138 0.932 . S
H157 C139 0.929 . S
H158 C140 0.928 . S
H159 C142 0.932 . S
C160 C161 1.264 . S
C160 C165 1.479 . S
C160 C170 1.465 . S
C161 C160 1.264 . S
C161 C163 1.339 . S
C161 H188 0.931 . S
C162 C163 1.395 . S
C162 C164 1.320 . S
C163 C161 1.339 . S
C163 C162 1.395 . S
C163 H189 0.929 . S
C164 C162 1.320 . S
C164 C165 1.405 . S
C164 H190 0.930 . S
C165 C160 1.479 . S
C165 C164 1.405 . S
C165 H191 0.931 . S
U166 O167 2.454 1_655 S
U166 O168 2.458 . S
U166 C169 2.984 . S
U166 C170 2.847 1_655 S
U166 C183 2.882 . S
U166 O184 2.441 1_655 S
U166 O185 2.420 1_655 S
U166 O186 2.455 . S
U166 O187 2.449 . S
O167 U166 2.454 1_455 S
O167 C169 1.353 1_455 S
O168 U166 2.458 . S
O168 C169 1.286 . S
C169 U166 2.984 . S
C169 O167 1.353 1_655 S
C169 O168 1.286 . S
C169 C171 1.363 . S
C170 C160 1.465 . S
C170 U166 2.847 1_455 S
C170 O184 1.249 . S
C170 O185 1.202 . S
C171 C169 1.363 . S
C171 C173 1.408 1_655 S
C171 C176 1.342 . S
C172 C173 1.310 . S
C172 C175 1.461 1_455 S
C172 H192 0.932 . S
C173 C171 1.408 1_455 S
C173 C172 1.310 . S
C173 H193 0.930 . S
C174 C175 1.474 . S
C174 C176 1.285 . S
C174 H194 0.929 . S
C175 C172 1.461 1_655 S
C175 C174 1.474 . S
C176 C171 1.342 . S
C176 C174 1.285 . S
C176 H195 0.930 . S
C177 C180 1.424 . S
C177 C182 1.245 . S
C177 C183 1.428 . S
C178 C181 1.260 . S
C178 C182 1.477 . S
C178 H196 0.932 . S
C179 C180 1.384 . S
C179 C181 1.479 . S
C179 H197 0.929 . S
C180 C177 1.424 . S
C180 C179 1.384 . S
C180 H198 0.928 . S
C181 C178 1.260 . S
C181 C179 1.479 . S
C182 C177 1.245 . S
C182 C178 1.477 . S
C182 H199 0.932 . S
C183 U166 2.882 . S
C183 C177 1.428 . S
C183 O186 1.301 . S
C183 O187 1.282 . S
O184 U166 2.441 1_455 S
O184 C170 1.249 . S
O185 U166 2.420 1_455 S
O185 C170 1.202 . S
O186 U166 2.455 . S
O186 C183 1.301 . S
O187 U166 2.449 . S
O187 C183 1.282 . S
H188 C161 0.931 . S
H189 C163 0.929 . S
H190 C164 0.930 . S
H191 C165 0.931 . S
H192 C172 0.932 . S
H193 C173 0.930 . S
H194 C174 0.929 . S
H195 C176 0.930 . S
H196 C178 0.932 . S
H197 C179 0.929 . S
H198 C180 0.928 . S
H199 C182 0.932 . S
C200 C201 1.264 . S
C200 C205 1.479 . S
C200 C210 1.465 . S
C201 C200 1.264 . S
C201 C203 1.339 . S
C201 H228 0.931 . S
C202 C203 1.395 . S
C202 C204 1.320 . S
C203 C201 1.339 . S
C203 C202 1.395 . S
C203 H229 0.929 . S
C204 C202 1.320 . S
C204 C205 1.405 . S
C204 H230 0.930 . S
C205 C200 1.479 . S
C205 C204 1.405 . S
C205 H231 0.931 . S
U206 O207 2.454 1_554 S
U206 O208 2.458 1_554 S
U206 C209 2.984 1_554 S
U206 C210 2.847 . S
U206 C223 2.882 . S
U206 O224 2.441 . S
U206 O225 2.420 . S
U206 O226 2.454 1_554 S
U206 O227 2.449 . S
O207 U206 2.454 1_556 S
O207 C209 1.353 . S
O208 U206 2.458 1_556 S
O208 C209 1.286 . S
C209 U206 2.984 1_556 S
C209 O207 1.353 . S
C209 O208 1.286 . S
C209 C211 1.363 . S
C210 C200 1.465 . S
C210 U206 2.847 . S
C210 O224 1.249 . S
C210 O225 1.202 . S
C211 C209 1.363 . S
C211 C213 1.408 . S
C211 C216 1.342 . S
C212 C213 1.310 . S
C212 C215 1.461 . S
C212 H232 0.932 . S
C213 C211 1.408 . S
C213 C212 1.310 . S
C213 H233 0.930 . S
C214 C215 1.474 . S
C214 C216 1.285 . S
C214 H234 0.929 . S
C215 C212 1.461 . S
C215 C214 1.474 . S
C216 C211 1.342 . S
C216 C214 1.285 . S
C216 H235 0.930 . S
C217 C220 1.424 . S
C217 C222 1.245 1_554 S
C217 C223 1.428 . S
C218 C221 1.260 . S
C218 C222 1.477 . S
C218 H236 0.932 . S
C219 C220 1.384 . S
C219 C221 1.479 1_554 S
C219 H237 0.929 . S
C220 C217 1.424 . S
C220 C219 1.384 . S
C220 H238 0.928 . S
C221 C218 1.260 . S
C221 C219 1.479 1_556 S
C222 C217 1.245 1_556 S
C222 C218 1.477 . S
C222 H239 0.932 . S
C223 U206 2.882 . S
C223 C217 1.428 . S
C223 O226 1.298 1_554 S
C223 O227 1.282 . S
O224 U206 2.441 . S
O224 C210 1.249 . S
O225 U206 2.420 . S
O225 C210 1.202 . S
O226 U206 2.454 1_556 S
O226 C223 1.298 1_556 S
O227 U206 2.449 . S
O227 C223 1.282 . S
H228 C201 0.931 . S
H229 C203 0.929 . S
H230 C204 0.930 . S
H231 C205 0.931 . S
H232 C212 0.932 . S
H233 C213 0.930 . S
H234 C214 0.929 . S
H235 C216 0.930 . S
H236 C218 0.932 . S
H237 C219 0.929 . S
H238 C220 0.928 . S
H239 C222 0.932 . S
H240 C248 0.929 . S
H241 C250 0.930 . S
H242 C252 0.930 . S
H243 C255 0.929 . S
H244 C258 0.930 . S
H245 C260 0.960 . S
H246 C260 0.960 . S
H247 C260 0.960 . S
C248 H240 0.929 . S
C248 C249 1.377 . S
C248 C250 1.384 . S
C249 C248 1.377 . S
C249 C255 1.390 . S
C250 H241 0.930 . S
C250 C248 1.384 . S
C250 C251 1.372 . S
C251 C250 1.372 . S
C251 C252 1.400 . S
C251 C256 1.490 . S
C252 H242 0.930 . S
C252 C251 1.400 . S
C252 C255 1.386 . S
H253 C269 0.930 . S
H254 C270 0.931 . S
C255 H243 0.929 . S
C255 C249 1.390 . S
C255 C252 1.386 . S
C256 C251 1.490 . S
C256 C258 1.395 . S
C256 C259 1.403 . S
H257 C263 0.930 . S
C258 H244 0.930 . S
C258 C256 1.395 . S
C258 C261 1.403 . S
C259 C256 1.403 . S
C259 C260 1.524 . S
C259 C263 1.400 . S
C260 H245 0.960 . S
C260 H246 0.960 . S
C260 H247 0.960 . S
C260 C259 1.524 . S
C261 C258 1.403 . S
C261 C262 1.392 . S
C261 C265 1.495 . S
C262 C261 1.392 . S
C262 C263 1.385 . S
C262 C264 1.478 . S
C263 H257 0.930 . S
C263 C259 1.400 . S
C263 C262 1.385 . S
C264 C262 1.478 . S
C264 C266 1.381 . S
C264 C270 1.383 . S
C265 C261 1.495 . S
C265 H271 0.959 . S
C265 H272 0.961 . S
C265 H273 0.960 . S
C266 C264 1.381 . S
C266 C267 1.394 . S
C266 H274 0.930 . S
C267 C266 1.394 . S
C267 C268 1.383 . S
C267 H275 0.929 . S
C268 C267 1.383 . S
C268 C269 1.377 . S
C269 H253 0.930 . S
C269 C268 1.377 . S
C269 C270 1.379 . S
C270 H254 0.931 . S
C270 C264 1.383 . S
C270 C269 1.379 . S
H271 C265 0.959 . S
H272 C265 0.961 . S
H273 C265 0.960 . S
H274 C266 0.930 . S
H275 C267 0.929 . S
H276 C284 0.929 . S
H277 C286 0.930 . S
H278 C288 0.930 . S
H279 C291 0.929 . S
H280 C294 0.930 . S
H281 C296 0.960 . S
H282 C296 0.960 . S
H283 C296 0.960 . S
C284 H276 0.929 . S
C284 C285 1.377 . S
C284 C286 1.384 . S
C285 C284 1.377 . S
C285 C291 1.390 . S
C286 H277 0.930 . S
C286 C284 1.384 . S
C286 C287 1.372 . S
C287 C286 1.372 . S
C287 C288 1.400 . S
C287 C292 1.490 . S
C288 H278 0.930 . S
C288 C287 1.400 . S
C288 C291 1.386 . S
H289 C305 0.930 . S
H290 C306 0.931 . S
C291 H279 0.929 . S
C291 C285 1.390 . S
C291 C288 1.386 . S
C292 C287 1.490 . S
C292 C294 1.395 . S
C292 C295 1.403 . S
H293 C299 0.930 . S
C294 H280 0.930 . S
C294 C292 1.395 . S
C294 C297 1.403 . S
C295 C292 1.403 . S
C295 C296 1.524 . S
C295 C299 1.400 . S
C296 H281 0.960 . S
C296 H282 0.960 . S
C296 H283 0.960 . S
C296 C295 1.524 . S
C297 C294 1.403 . S
C297 C298 1.392 . S
C297 C301 1.495 . S
C298 C297 1.392 . S
C298 C299 1.385 . S
C298 C300 1.478 . S
C299 H293 0.930 . S
C299 C295 1.400 . S
C299 C298 1.385 . S
C300 C298 1.478 . S
C300 C302 1.381 . S
C300 C306 1.383 . S
C301 C297 1.495 . S
C301 H307 0.959 . S
C301 H308 0.961 . S
C301 H309 0.960 . S
C302 C300 1.381 . S
C302 C303 1.394 . S
C302 H310 0.930 . S
C303 C302 1.394 . S
C303 C304 1.383 . S
C303 H311 0.929 . S
C304 C303 1.383 . S
C304 C305 1.377 . S
C305 H289 0.930 . S
C305 C304 1.377 . S
C305 C306 1.379 . S
C306 H290 0.931 . S
C306 C300 1.383 . S
C306 C305 1.379 . S
H307 C301 0.959 . S
H308 C301 0.961 . S
H309 C301 0.960 . S
H310 C302 0.930 . S
H311 C303 0.929 . S
H312 C320 0.929 . S
H313 C322 0.930 . S
H314 C324 0.930 . S
H315 C327 0.929 . S
H316 C330 0.930 . S
H317 C332 0.960 . S
H318 C332 0.960 . S
H319 C332 0.960 . S
C320 H312 0.929 . S
C320 C321 1.377 . S
C320 C322 1.384 . S
C321 C320 1.377 . S
C321 C327 1.390 . S
C322 H313 0.930 . S
C322 C320 1.384 . S
C322 C323 1.372 . S
C323 C322 1.372 . S
C323 C324 1.400 . S
C323 C328 1.490 . S
C324 H314 0.930 . S
C324 C323 1.400 . S
C324 C327 1.386 . S
H325 C341 0.930 . S
H326 C342 0.931 . S
C327 H315 0.929 . S
C327 C321 1.390 . S
C327 C324 1.386 . S
C328 C323 1.490 . S
C328 C330 1.395 . S
C328 C331 1.403 . S
H329 C335 0.930 . S
C330 H316 0.930 . S
C330 C328 1.395 . S
C330 C333 1.403 . S
C331 C328 1.403 . S
C331 C332 1.524 . S
C331 C335 1.400 . S
C332 H317 0.960 . S
C332 H318 0.960 . S
C332 H319 0.960 . S
C332 C331 1.524 . S
C333 C330 1.403 . S
C333 C334 1.392 . S
C333 C337 1.495 . S
C334 C333 1.392 . S
C334 C335 1.385 . S
C334 C336 1.478 . S
C335 H329 0.930 . S
C335 C331 1.400 . S
C335 C334 1.385 . S
C336 C334 1.478 . S
C336 C338 1.381 . S
C336 C342 1.383 . S
C337 C333 1.495 . S
C337 H343 0.959 1_554 S
C337 H344 0.961 1_554 S
C337 H345 0.960 . S
C338 C336 1.381 . S
C338 C339 1.394 . S
C338 H346 0.930 . S
C339 C338 1.394 . S
C339 C340 1.383 . S
C339 H347 0.929 . S
C340 C339 1.383 . S
C340 C341 1.377 . S
C341 H325 0.930 . S
C341 C340 1.377 . S
C341 C342 1.379 . S
C342 H326 0.931 . S
C342 C336 1.383 . S
C342 C341 1.379 . S
H343 C337 0.959 1_556 S
H344 C337 0.961 1_556 S
H345 C337 0.960 . S
H346 C338 0.930 . S
H347 C339 0.929 . S
H348 C356 0.929 1_565 S
H349 C358 0.930 . S
H350 C360 0.930 . S
H351 C363 0.929 . S
H352 C366 0.950 . S
H353 C368 0.960 . S
H354 C368 0.960 . S
H355 C368 0.960 . S
C356 H348 0.929 1_545 S
C356 C357 1.376 1_545 S
C356 C358 1.385 . S
C357 C356 1.376 1_565 S
C357 C363 1.390 1_665 S
C358 H349 0.930 . S
C358 C356 1.385 . S
C358 C359 1.372 . S
C359 C358 1.372 . S
C359 C360 1.400 1_655 S
C359 C364 1.490 . S
C360 H350 0.930 . S
C360 C359 1.400 1_455 S
C360 C363 1.386 . S
H361 C377 0.930 . S
H362 C378 0.931 . S
C363 H351 0.929 . S
C363 C357 1.390 1_445 S
C363 C360 1.386 . S
C364 C359 1.490 . S
C364 C366 1.403 1_655 S
C364 C367 1.403 . S
H365 C371 0.930 . S
C366 H352 0.950 . S
C366 C364 1.403 1_455 S
C366 C369 1.379 . S
C367 C364 1.403 . S
C367 C368 1.524 . S
C367 C371 1.400 . S
C368 H353 0.960 . S
C368 H354 0.960 . S
C368 H355 0.960 . S
C368 C367 1.524 . S
C369 C366 1.379 . S
C369 C370 1.392 1_455 S
C369 C373 1.495 . S
C370 C369 1.392 1_655 S
C370 C371 1.385 . S
C370 C372 1.478 . S
C371 H365 0.930 . S
C371 C367 1.400 . S
C371 C370 1.385 . S
C372 C370 1.478 . S
C372 C374 1.381 . S
C372 C378 1.383 1_655 S
C373 C369 1.495 . S
C373 H379 0.959 . S
C373 H380 0.961 . S
C373 H381 0.960 1_455 S
C374 C372 1.381 . S
C374 C375 1.394 . S
C374 H382 0.930 . S
C375 C374 1.394 . S
C375 C376 1.383 . S
C375 H383 0.929 . S
C376 C375 1.383 . S
C376 C377 1.377 1_655 S
C377 H361 0.930 . S
C377 C376 1.377 1_455 S
C377 C378 1.379 . S
C378 H362 0.931 . S
C378 C372 1.383 1_455 S
C378 C377 1.379 . S
H379 C373 0.959 . S
H380 C373 0.961 . S
H381 C373 0.960 1_655 S
H382 C374 0.930 . S
H383 C375 0.929 . S
H384 C392 0.929 . S
H385 C394 0.930 . S
H386 C396 0.930 . S
H387 C399 0.929 . S
H388 C402 0.930 . S
H389 C404 0.960 . S
H390 C404 0.960 . S
H391 C404 0.960 . S
C392 H384 0.929 . S
C392 C393 1.377 . S
C392 C394 1.384 . S
C393 C392 1.377 . S
C393 C399 1.390 . S
C394 H385 0.930 . S
C394 C392 1.384 . S
C394 C395 1.372 . S
C395 C394 1.372 . S
C395 C396 1.400 . S
C395 C400 1.490 . S
C396 H386 0.930 . S
C396 C395 1.400 . S
C396 C399 1.386 . S
H397 C413 0.930 . S
H398 C414 0.931 . S
C399 H387 0.929 . S
C399 C393 1.390 . S
C399 C396 1.386 . S
C400 C395 1.490 . S
C400 C402 1.395 . S
C400 C403 1.403 . S
H401 C407 0.930 . S
C402 H388 0.930 . S
C402 C400 1.395 . S
C402 C405 1.403 . S
C403 C400 1.403 . S
C403 C404 1.524 . S
C403 C407 1.400 . S
C404 H389 0.960 . S
C404 H390 0.960 . S
C404 H391 0.960 . S
C404 C403 1.524 . S
C405 C402 1.403 . S
C405 C406 1.392 . S
C405 C409 1.495 . S
C406 C405 1.392 . S
C406 C407 1.385 . S
C406 C408 1.478 . S
C407 H401 0.930 . S
C407 C403 1.400 . S
C407 C406 1.385 . S
C408 C406 1.478 . S
C408 C410 1.381 . S
C408 C414 1.383 . S
C409 C405 1.495 . S
C409 H415 0.959 . S
C409 H416 0.961 . S
C409 H417 0.960 . S
C410 C408 1.381 . S
C410 C411 1.394 . S
C410 H418 0.930 . S
C411 C410 1.394 . S
C411 C412 1.383 . S
C411 H419 0.929 . S
C412 C411 1.383 . S
C412 C413 1.377 . S
C413 H397 0.930 . S
C413 C412 1.377 . S
C413 C414 1.379 . S
C414 H398 0.931 . S
C414 C408 1.383 . S
C414 C413 1.379 . S
H415 C409 0.959 . S
H416 C409 0.961 . S
H417 C409 0.960 . S
H418 C410 0.930 . S
H419 C411 0.929 . S
H420 C428 0.929 . S
H421 C430 0.930 . S
H422 C432 0.930 . S
H423 C435 0.929 1_556 S
H424 C438 0.930 . S
H425 C440 0.960 . S
H426 C440 0.960 . S
H427 C440 0.960 . S
C428 H420 0.929 . S
C428 C429 1.377 . S
C428 C430 1.384 1_565 S
C429 C428 1.377 . S
C429 C435 1.390 1_565 S
C430 H421 0.930 . S
C430 C428 1.384 1_545 S
C430 C431 1.372 . S
C431 C430 1.372 . S
C431 C432 1.400 . S
C431 C436 1.490 . S
C432 H422 0.930 . S
C432 C431 1.400 . S
C432 C435 1.386 . S
H433 C449 0.930 . S
H434 C450 0.931 . S
C435 H423 0.929 1_554 S
C435 C429 1.390 1_545 S
C435 C432 1.386 . S
C436 C431 1.490 . S
C436 C438 1.395 . S
C436 C439 1.403 . S
H437 C443 0.930 . S
C438 H424 0.930 . S
C438 C436 1.395 . S
C438 C441 1.403 . S
C439 C436 1.403 . S
C439 C440 1.524 . S
C439 C443 1.400 . S
C440 H425 0.960 . S
C440 H426 0.960 . S
C440 H427 0.960 . S
C440 C439 1.524 . S
C441 C438 1.403 . S
C441 C442 1.392 . S
C441 C445 1.495 . S
C442 C441 1.392 . S
C442 C443 1.385 . S
C442 C444 1.478 . S
C443 H437 0.930 . S
C443 C439 1.400 . S
C443 C442 1.385 . S
C444 C442 1.478 . S
C444 C446 1.381 . S
C444 C450 1.383 . S
C445 C441 1.495 . S
C445 H451 0.959 . S
C445 H452 0.961 . S
C445 H453 0.960 . S
C446 C444 1.381 . S
C446 C447 1.394 . S
C446 H454 0.930 . S
C447 C446 1.394 . S
C447 C448 1.383 . S
C447 H455 0.929 . S
C448 C447 1.383 . S
C448 C449 1.377 . S
C449 H433 0.930 . S
C449 C448 1.377 . S
C449 C450 1.379 . S
C450 H434 0.931 . S
C450 C444 1.383 . S
C450 C449 1.379 . S
H451 C445 0.959 . S
H452 C445 0.961 . S
H453 C445 0.960 . S
H454 C446 0.930 . S
H455 C447 0.929 . S
H456 C464 0.929 . S
H457 C466 0.930 . S
H458 C468 0.930 . S
H459 C471 0.929 . S
H460 C474 0.930 . S
H461 C476 0.960 . S
H462 C476 0.960 . S
H463 C476 0.960 . S
C464 H456 0.929 . S
C464 C465 1.377 . S
C464 C466 1.384 . S
C465 C464 1.377 . S
C465 C471 1.390 . S
C466 H457 0.930 . S
C466 C464 1.384 . S
C466 C467 1.372 . S
C467 C466 1.372 . S
C467 C468 1.400 . S
C467 C472 1.490 . S
C468 H458 0.930 . S
C468 C467 1.400 . S
C468 C471 1.386 . S
H469 C485 0.930 . S
H470 C486 0.931 . S
C471 H459 0.929 . S
C471 C465 1.390 . S
C471 C468 1.386 . S
C472 C467 1.490 . S
C472 C474 1.395 . S
C472 C475 1.403 . S
H473 C479 0.930 . S
C474 H460 0.930 . S
C474 C472 1.395 . S
C474 C477 1.403 . S
C475 C472 1.403 . S
C475 C476 1.524 . S
C475 C479 1.400 . S
C476 H461 0.960 . S
C476 H462 0.960 . S
C476 H463 0.960 . S
C476 C475 1.524 . S
C477 C474 1.403 . S
C477 C478 1.392 . S
C477 C481 1.495 . S
C478 C477 1.392 . S
C478 C479 1.385 . S
C478 C480 1.478 . S
C479 H473 0.930 . S
C479 C475 1.400 . S
C479 C478 1.385 . S
C480 C478 1.478 . S
C480 C482 1.381 . S
C480 C486 1.383 . S
C481 C477 1.495 . S
C481 H487 0.959 . S
C481 H488 0.961 . S
C481 H489 0.960 . S
C482 C480 1.381 . S
C482 C483 1.394 . S
C482 H490 0.930 . S
C483 C482 1.394 . S
C483 C484 1.383 . S
C483 H491 0.929 . S
C484 C483 1.383 . S
C484 C485 1.377 . S
C485 H469 0.930 . S
C485 C484 1.377 . S
C485 C486 1.379 . S
C486 H470 0.931 . S
C486 C480 1.383 . S
C486 C485 1.379 . S
H487 C481 0.959 . S
H488 C481 0.961 . S
H489 C481 0.960 . S
H490 C482 0.930 . S
H491 C483 0.929 . S
H492 C500 0.929 . S
H493 C502 0.930 . S
H494 C504 0.930 . S
H495 C507 0.929 . S
H496 C510 0.930 . S
H497 C512 0.960 . S
H498 C512 0.960 . S
H499 C512 0.960 . S
C500 H492 0.929 . S
C500 C501 1.377 . S
C500 C502 1.384 . S
C501 C500 1.377 . S
C501 C507 1.390 . S
C502 H493 0.930 . S
C502 C500 1.384 . S
C502 C503 1.372 . S
C503 C502 1.372 . S
C503 C504 1.400 . S
C503 C508 1.490 . S
C504 H494 0.930 . S
C504 C503 1.400 . S
C504 C507 1.386 . S
H505 C521 0.930 . S
H506 C522 0.931 . S
C507 H495 0.929 . S
C507 C501 1.390 . S
C507 C504 1.386 . S
C508 C503 1.490 . S
C508 C510 1.395 . S
C508 C511 1.403 . S
H509 C515 0.930 . S
C510 H496 0.930 . S
C510 C508 1.395 . S
C510 C513 1.403 . S
C511 C508 1.403 . S
C511 C512 1.524 . S
C511 C515 1.400 . S
C512 H497 0.960 . S
C512 H498 0.960 . S
C512 H499 0.960 . S
C512 C511 1.524 . S
C513 C510 1.403 . S
C513 C514 1.392 . S
C513 C517 1.495 . S
C514 C513 1.392 . S
C514 C515 1.385 . S
C514 C516 1.478 . S
C515 H509 0.930 . S
C515 C511 1.400 . S
C515 C514 1.385 . S
C516 C514 1.478 . S
C516 C518 1.381 . S
C516 C522 1.383 . S
C517 C513 1.495 . S
C517 H523 0.959 . S
C517 H524 0.961 . S
C517 H525 0.960 . S
C518 C516 1.381 . S
C518 C519 1.394 . S
C518 H526 0.930 . S
C519 C518 1.394 . S
C519 C520 1.383 . S
C519 H527 0.929 . S
C520 C519 1.383 . S
C520 C521 1.377 . S
C521 H505 0.930 . S
C521 C520 1.377 . S
C521 C522 1.379 . S
C522 H506 0.931 . S
C522 C516 1.383 . S
C522 C521 1.379 . S
H523 C517 0.959 . S
H524 C517 0.961 . S
H525 C517 0.960 . S
H526 C518 0.930 . S
H527 C519 0.929 . S
H528 C536 0.929 . S
H529 C538 0.930 . S
H530 C540 0.930 . S
H531 C543 0.929 . S
H532 C546 0.930 . S
H533 C548 0.960 . S
H534 C548 0.960 . S
H535 C548 0.960 . S
C536 H528 0.929 . S
C536 C537 1.377 . S
C536 C538 1.384 . S
C537 C536 1.377 . S
C537 C543 1.390 . S
C538 H529 0.930 . S
C538 C536 1.384 . S
C538 C539 1.372 . S
C539 C538 1.372 . S
C539 C540 1.400 . S
C539 C544 1.490 . S
C540 H530 0.930 . S
C540 C539 1.400 . S
C540 C543 1.386 . S
H541 C557 0.930 . S
H542 C558 0.931 . S
C543 H531 0.929 . S
C543 C537 1.390 . S
C543 C540 1.386 . S
C544 C539 1.490 . S
C544 C546 1.395 . S
C544 C547 1.403 1_556 S
H545 C551 0.930 . S
C546 H532 0.930 . S
C546 C544 1.395 . S
C546 C549 1.403 . S
C547 C544 1.403 1_554 S
C547 C548 1.524 . S
C547 C551 1.400 . S
C548 H533 0.960 . S
C548 H534 0.960 . S
C548 H535 0.960 . S
C548 C547 1.524 . S
C549 C546 1.403 . S
C549 C550 1.392 . S
C549 C553 1.495 . S
C550 C549 1.392 . S
C550 C551 1.385 1_556 S
C550 C552 1.478 . S
C551 H545 0.930 . S
C551 C547 1.400 . S
C551 C550 1.385 1_554 S
C552 C550 1.478 . S
C552 C554 1.381 . S
C552 C558 1.383 . S
C553 C549 1.495 . S
C553 H559 0.959 . S
C553 H560 0.961 . S
C553 H561 0.960 . S
C554 C552 1.381 . S
C554 C555 1.394 . S
C554 H562 0.930 . S
C555 C554 1.394 . S
C555 C556 1.383 . S
C555 H563 0.929 . S
C556 C555 1.383 . S
C556 C557 1.377 . S
C557 H541 0.930 . S
C557 C556 1.377 . S
C557 C558 1.379 . S
C558 H542 0.931 . S
C558 C552 1.383 . S
C558 C557 1.379 . S
H559 C553 0.959 . S
H560 C553 0.961 . S
H561 C553 0.960 . S
H562 C554 0.930 . S
H563 C555 0.929 . S
C249 C2 1.487 . S
C268 C55 1.499 . S
C285 C42 1.486 . S
C304 C95 1.498 . S
C321 C82 1.492 . S
C340 C135 1.502 . S
C357 C175 1.501 . S
C376 C122 1.441 . S
C393 C162 1.491 . S
C412 C215 1.498 . S
C429 C202 1.490 . S
C448 C15 1.500 . S
C465 C141 1.486 . S
C484 C21 1.497 . S
C501 C61 1.485 . S
C520 C181 1.485 . S
C537 C101 1.489 . S
C556 C221 1.499 . S
