# Generated by pormake.
# Topology uke, (4)-cn, num edge types: 1
# Building blocks:
#     Node 0, Type 0, BuildingBlock: UXUYUI_clean_sbu_0, # of connection points: 4
#     Node 1, Type 0, BuildingBlock: UXUYUI_clean_sbu_0, # of connection points: 4
#     Node 2, Type 0, BuildingBlock: UXUYUI_clean_sbu_0, # of connection points: 4
#     Node 3, Type 0, BuildingBlock: UXUYUI_clean_sbu_0, # of connection points: 4
#     Node 4, Type 0, BuildingBlock: UXUYUI_clean_sbu_0, # of connection points: 4
#     Node 5, Type 0, BuildingBlock: UXUYUI_clean_sbu_0, # of connection points: 4
#     Node 6, Type 0, BuildingBlock: UXUYUI_clean_sbu_0, # of connection points: 4
#     Node 7, Type 0, BuildingBlock: UXUYUI_clean_sbu_0, # of connection points: 4
#     Node 8, Type 0, BuildingBlock: UXUYUI_clean_sbu_0, # of connection points: 4
#     Node 9, Type 0, BuildingBlock: UXUYUI_clean_sbu_0, # of connection points: 4
#     Node 10, Type 0, BuildingBlock: UXUYUI_clean_sbu_0, # of connection points: 4
#     Node 11, Type 0, BuildingBlock: UXUYUI_clean_sbu_0, # of connection points: 4
#     Node 12, Type 0, BuildingBlock: UXUYUI_clean_sbu_0, # of connection points: 4
#     Node 13, Type 0, BuildingBlock: UXUYUI_clean_sbu_0, # of connection points: 4
#     Node 14, Type 0, BuildingBlock: UXUYUI_clean_sbu_0, # of connection points: 4
#     Node 15, Type 0, BuildingBlock: UXUYUI_clean_sbu_0, # of connection points: 4
#     Node 16, Type 0, BuildingBlock: UXUYUI_clean_sbu_0, # of connection points: 4
#     Node 17, Type 0, BuildingBlock: UXUYUI_clean_sbu_0, # of connection points: 4
#     Node 18, Type 0, BuildingBlock: UXUYUI_clean_sbu_0, # of connection points: 4
#     Node 19, Type 0, BuildingBlock: UXUYUI_clean_sbu_0, # of connection points: 4
#     Node 20, Type 0, BuildingBlock: UXUYUI_clean_sbu_0, # of connection points: 4
#     Node 21, Type 0, BuildingBlock: UXUYUI_clean_sbu_0, # of connection points: 4
#     Node 22, Type 0, BuildingBlock: UXUYUI_clean_sbu_0, # of connection points: 4
#     Node 23, Type 0, BuildingBlock: UXUYUI_clean_sbu_0, # of connection points: 4
#     Node 24, Type 0, BuildingBlock: UXUYUI_clean_sbu_0, # of connection points: 4
#     Node 25, Type 0, BuildingBlock: UXUYUI_clean_sbu_0, # of connection points: 4
#     Node 26, Type 0, BuildingBlock: UXUYUI_clean_sbu_0, # of connection points: 4
#     Node 27, Type 0, BuildingBlock: UXUYUI_clean_sbu_0, # of connection points: 4
#     Node 28, Type 0, BuildingBlock: UXUYUI_clean_sbu_0, # of connection points: 4
#     Node 29, Type 0, BuildingBlock: UXUYUI_clean_sbu_0, # of connection points: 4
#     Node 30, Type 0, BuildingBlock: UXUYUI_clean_sbu_0, # of connection points: 4
#     Node 31, Type 0, BuildingBlock: UXUYUI_clean_sbu_0, # of connection points: 4
#     Edge 32, Type (0, 0), BuildingBlock: OJICUG_clean_linker_0, # of connection points: 2
#     Edge 33, Type (0, 0), BuildingBlock: OJICUG_clean_linker_0, # of connection points: 2
#     Edge 34, Type (0, 0), BuildingBlock: OJICUG_clean_linker_0, # of connection points: 2
#     Edge 35, Type (0, 0), BuildingBlock: OJICUG_clean_linker_0, # of connection points: 2
#     Edge 36, Type (0, 0), BuildingBlock: OJICUG_clean_linker_0, # of connection points: 2
#     Edge 37, Type (0, 0), BuildingBlock: OJICUG_clean_linker_0, # of connection points: 2
#     Edge 38, Type (0, 0), BuildingBlock: OJICUG_clean_linker_0, # of connection points: 2
#     Edge 39, Type (0, 0), BuildingBlock: OJICUG_clean_linker_0, # of connection points: 2
#     Edge 40, Type (0, 0), BuildingBlock: OJICUG_clean_linker_0, # of connection points: 2
#     Edge 41, Type (0, 0), BuildingBlock: OJICUG_clean_linker_0, # of connection points: 2
#     Edge 42, Type (0, 0), BuildingBlock: OJICUG_clean_linker_0, # of connection points: 2
#     Edge 43, Type (0, 0), BuildingBlock: OJICUG_clean_linker_0, # of connection points: 2
#     Edge 44, Type (0, 0), BuildingBlock: OJICUG_clean_linker_0, # of connection points: 2
#     Edge 45, Type (0, 0), BuildingBlock: OJICUG_clean_linker_0, # of connection points: 2
#     Edge 46, Type (0, 0), BuildingBlock: OJICUG_clean_linker_0, # of connection points: 2
#     Edge 47, Type (0, 0), BuildingBlock: OJICUG_clean_linker_0, # of connection points: 2
#     Edge 48, Type (0, 0), BuildingBlock: OJICUG_clean_linker_0, # of connection points: 2
#     Edge 49, Type (0, 0), BuildingBlock: OJICUG_clean_linker_0, # of connection points: 2
#     Edge 50, Type (0, 0), BuildingBlock: OJICUG_clean_linker_0, # of connection points: 2
#     Edge 51, Type (0, 0), BuildingBlock: OJICUG_clean_linker_0, # of connection points: 2
#     Edge 52, Type (0, 0), BuildingBlock: OJICUG_clean_linker_0, # of connection points: 2
#     Edge 53, Type (0, 0), BuildingBlock: OJICUG_clean_linker_0, # of connection points: 2
#     Edge 54, Type (0, 0), BuildingBlock: OJICUG_clean_linker_0, # of connection points: 2
#     Edge 55, Type (0, 0), BuildingBlock: OJICUG_clean_linker_0, # of connection points: 2
#     Edge 56, Type (0, 0), BuildingBlock: OJICUG_clean_linker_0, # of connection points: 2
#     Edge 57, Type (0, 0), BuildingBlock: OJICUG_clean_linker_0, # of connection points: 2
#     Edge 58, Type (0, 0), BuildingBlock: OJICUG_clean_linker_0, # of connection points: 2
#     Edge 59, Type (0, 0), BuildingBlock: OJICUG_clean_linker_0, # of connection points: 2
#     Edge 60, Type (0, 0), BuildingBlock: OJICUG_clean_linker_0, # of connection points: 2
#     Edge 61, Type (0, 0), BuildingBlock: OJICUG_clean_linker_0, # of connection points: 2
#     Edge 62, Type (0, 0), BuildingBlock: OJICUG_clean_linker_0, # of connection points: 2
#     Edge 63, Type (0, 0), BuildingBlock: OJICUG_clean_linker_0, # of connection points: 2
#     Edge 64, Type (0, 0), BuildingBlock: OJICUG_clean_linker_0, # of connection points: 2
#     Edge 65, Type (0, 0), BuildingBlock: OJICUG_clean_linker_0, # of connection points: 2
#     Edge 66, Type (0, 0), BuildingBlock: OJICUG_clean_linker_0, # of connection points: 2
#     Edge 67, Type (0, 0), BuildingBlock: OJICUG_clean_linker_0, # of connection points: 2
#     Edge 68, Type (0, 0), BuildingBlock: OJICUG_clean_linker_0, # of connection points: 2
#     Edge 69, Type (0, 0), BuildingBlock: OJICUG_clean_linker_0, # of connection points: 2
#     Edge 70, Type (0, 0), BuildingBlock: OJICUG_clean_linker_0, # of connection points: 2
#     Edge 71, Type (0, 0), BuildingBlock: OJICUG_clean_linker_0, # of connection points: 2
#     Edge 72, Type (0, 0), BuildingBlock: OJICUG_clean_linker_0, # of connection points: 2
#     Edge 73, Type (0, 0), BuildingBlock: OJICUG_clean_linker_0, # of connection points: 2
#     Edge 74, Type (0, 0), BuildingBlock: OJICUG_clean_linker_0, # of connection points: 2
#     Edge 75, Type (0, 0), BuildingBlock: OJICUG_clean_linker_0, # of connection points: 2
#     Edge 76, Type (0, 0), BuildingBlock: OJICUG_clean_linker_0, # of connection points: 2
#     Edge 77, Type (0, 0), BuildingBlock: OJICUG_clean_linker_0, # of connection points: 2
#     Edge 78, Type (0, 0), BuildingBlock: OJICUG_clean_linker_0, # of connection points: 2
#     Edge 79, Type (0, 0), BuildingBlock: OJICUG_clean_linker_0, # of connection points: 2
#     Edge 80, Type (0, 0), BuildingBlock: OJICUG_clean_linker_0, # of connection points: 2
#     Edge 81, Type (0, 0), BuildingBlock: OJICUG_clean_linker_0, # of connection points: 2
#     Edge 82, Type (0, 0), BuildingBlock: OJICUG_clean_linker_0, # of connection points: 2
#     Edge 83, Type (0, 0), BuildingBlock: OJICUG_clean_linker_0, # of connection points: 2
#     Edge 84, Type (0, 0), BuildingBlock: OJICUG_clean_linker_0, # of connection points: 2
#     Edge 85, Type (0, 0), BuildingBlock: OJICUG_clean_linker_0, # of connection points: 2
#     Edge 86, Type (0, 0), BuildingBlock: OJICUG_clean_linker_0, # of connection points: 2
#     Edge 87, Type (0, 0), BuildingBlock: OJICUG_clean_linker_0, # of connection points: 2
#     Edge 88, Type (0, 0), BuildingBlock: OJICUG_clean_linker_0, # of connection points: 2
#     Edge 89, Type (0, 0), BuildingBlock: OJICUG_clean_linker_0, # of connection points: 2
#     Edge 90, Type (0, 0), BuildingBlock: OJICUG_clean_linker_0, # of connection points: 2
#     Edge 91, Type (0, 0), BuildingBlock: OJICUG_clean_linker_0, # of connection points: 2
#     Edge 92, Type (0, 0), BuildingBlock: OJICUG_clean_linker_0, # of connection points: 2
#     Edge 93, Type (0, 0), BuildingBlock: OJICUG_clean_linker_0, # of connection points: 2
#     Edge 94, Type (0, 0), BuildingBlock: OJICUG_clean_linker_0, # of connection points: 2
#     Edge 95, Type (0, 0), BuildingBlock: OJICUG_clean_linker_0, # of connection points: 2
# Relax obj value: 0.349
# Max RMSD: 0.294
# Mean RMSD: 0.293
data_MOF--net-uke--node1-UXUYUI_clean_sbu_0--edge1-OJICUG_clean_linker_0
_symmetry_space_group_name_H-M    P1
_symmetry_Int_Tables_number       1
_symmetry_cell_setting            triclinic
loop_
_symmetry_equiv_pos_as_xyz
'x, y, z'
_cell_length_a     31.887088
_cell_length_b     124.50273
_cell_length_c     56.199033
_cell_angle_alpha  90.005445
_cell_angle_beta   89.975035
_cell_angle_gamma 90.005746
loop_
_atom_site_label
_atom_site_type_symbol
_atom_site_fract_x
_atom_site_fract_y
_atom_site_fract_z
_atom_type_partial_charge
Li0 Li 0.0541 0.05221 0.28734 0.0
Li1 Li 0.11205 0.06505 0.2871 0.0
Li2 Li 0.08891 0.05759 0.25085 0.0
Li3 Li 0.12866 0.04649 0.27768 0.0
C4 C 0.0386 0.07365 0.25716 0.0
N5 N 0.00535 0.08761 0.22388 0.0
C6 C 0.05621 0.08384 0.25393 0.0
C7 C 0.00392 0.0706 0.24352 0.0
C8 C 0.03897 0.09077 0.23702 0.0
C9 C 0.98763 0.07776 0.22676 0.0
C10 C 0.12317 0.05573 0.32847 0.0
C11 C 0.18422 0.06103 0.35083 0.0
N12 N 0.15912 0.06372 0.36948 0.0
C13 C 0.09795 0.05848 0.34786 0.0
C14 C 0.16664 0.05695 0.32993 0.0
C15 C 0.11675 0.06253 0.36845 0.0
C16 C 0.00651 0.04071 0.32078 0.0
N17 N 0.00505 0.04857 0.30405 0.0
C18 C 0.93632 0.05366 0.31625 0.0
C19 C 0.97072 0.05488 0.30123 0.0
C20 C 0.93769 0.04601 0.33461 0.0
C21 C 0.97284 0.03925 0.33636 0.0
H22 H 0.0347 0.03596 0.32281 0.0
H23 H 0.97077 0.06118 0.28801 0.0
C24 C 0.15967 0.08395 0.29153 0.0
N25 N 0.12788 0.0782 0.30134 0.0
C26 C 0.16311 0.09493 0.29615 0.0
C27 C 0.10322 0.09362 0.32244 0.0
C28 C 0.10056 0.0827 0.31703 0.0
C29 C 0.1336 0.09993 0.31105 0.0
H30 H 0.18003 0.08024 0.27855 0.0
H31 H 0.07455 0.07802 0.32376 0.0
C32 C 0.05064 0.03668 0.24697 0.0
N33 N 0.0015 0.02397 0.21781 0.0
C34 C 0.06897 0.02857 0.2332 0.0
C35 C 0.00725 0.03821 0.24612 0.0
C36 C 0.04361 0.02227 0.21851 0.0
C37 C 0.98297 0.03173 0.23121 0.0
C38 C 0.17583 0.05679 0.24363 0.0
C39 C 0.16626 0.04829 0.22831 0.0
C40 C 0.21346 0.06239 0.24065 0.0
C41 C 0.19447 0.04551 0.21032 0.0
C42 C 0.24091 0.05937 0.22245 0.0
N43 N 0.23092 0.05107 0.20779 0.0
C44 C 0.10913 0.06939 0.21102 0.0
C45 C 0.06328 0.05505 0.2014 0.0
C46 C 0.11671 0.07139 0.18703 0.0
N47 N 0.08423 0.06106 0.21774 0.0
C48 C 0.06954 0.05686 0.17714 0.0
C49 C 0.09782 0.06485 0.16982 0.0
H50 H 0.1252 0.07409 0.22438 0.0
H51 H 0.04333 0.04854 0.20698 0.0
C52 C 0.14436 0.02478 0.27934 0.0
N53 N 0.16454 0.03436 0.27816 0.0
C54 C 0.16464 0.0154 0.27223 0.0
C55 C 0.22716 0.02583 0.26464 0.0
C56 C 0.20583 0.035 0.27232 0.0
C57 C 0.20591 0.01593 0.2635 0.0
H58 H 0.1115 0.02454 0.2841 0.0
H59 H 0.22127 0.04272 0.27172 0.0
O60 O 0.0556 0.06666 0.27329 0.0
O61 O 0.10537 0.05194 0.30802 0.0
O62 O 0.0749 0.04284 0.26171 0.0
O63 O 0.14839 0.05979 0.2612 0.0
H64 H 0.08311 0.08635 0.26418 0.0
H65 H 0.99003 0.06274 0.2456 0.0
H66 H 0.0524 0.09865 0.2343 0.0
H67 H 0.96098 0.07547 0.216 0.0
H68 H 0.21781 0.06208 0.3522 0.0
H69 H 0.06422 0.05759 0.34693 0.0
H70 H 0.1865 0.05486 0.31499 0.0
H71 H 0.09764 0.06475 0.38358 0.0
H72 H 0.90957 0.05893 0.31407 0.0
H73 H 0.97534 0.03334 0.35042 0.0
H74 H 0.18686 0.09959 0.28702 0.0
H75 H 0.07956 0.09724 0.3337 0.0
H76 H 0.1024 0.02714 0.23381 0.0
H77 H 0.99243 0.04434 0.25679 0.0
H78 H 0.05741 0.01601 0.20771 0.0
H79 H 0.94938 0.03287 0.23031 0.0
H80 H 0.13733 0.0439 0.23024 0.0
H81 H 0.22146 0.069 0.25229 0.0
H82 H 0.18736 0.03895 0.19837 0.0
H83 H 0.27014 0.06364 0.21998 0.0
H84 H 0.13829 0.07771 0.18201 0.0
H85 H 0.05441 0.05165 0.1643 0.0
H86 H 0.14739 0.00791 0.27246 0.0
H87 H 0.25894 0.02669 0.25813 0.0
Li88 Li 0.19421 0.19395 0.28732 0.0
Li89 Li 0.13657 0.181 0.28715 0.0
Li90 Li 0.15895 0.18865 0.25092 0.0
Li91 Li 0.11939 0.19956 0.27823 0.0
C92 C 0.20975 0.17265 0.25663 0.0
N93 N 0.24276 0.15889 0.22286 0.0
C94 C 0.19217 0.16248 0.25319 0.0
C95 C 0.2443 0.17579 0.24296 0.0
C96 C 0.20928 0.15564 0.23603 0.0
C97 C 0.26046 0.16873 0.22595 0.0
C98 C 0.12518 0.19026 0.32868 0.0
C99 C 0.06379 0.18502 0.35084 0.0
N100 N 0.08863 0.18232 0.36958 0.0
C101 C 0.15013 0.18748 0.34815 0.0
C102 C 0.08168 0.18908 0.32999 0.0
C103 C 0.13103 0.18346 0.36868 0.0
C104 C 0.24197 0.20559 0.32042 0.0
N105 N 0.24338 0.19766 0.30383 0.0
C106 C 0.31238 0.19272 0.31581 0.0
C107 C 0.27781 0.19138 0.30098 0.0
C108 C 0.3111 0.20045 0.33401 0.0
C109 C 0.27582 0.20716 0.3358 0.0
H110 H 0.21372 0.21031 0.32247 0.0
H111 H 0.27773 0.18504 0.28787 0.0
C112 C 0.08946 0.16201 0.29145 0.0
N113 N 0.12117 0.16779 0.30126 0.0
C114 C 0.08616 0.15103 0.29607 0.0
C115 C 0.14602 0.1524 0.32233 0.0
C116 C 0.14855 0.16332 0.31693 0.0
C117 C 0.11571 0.14606 0.31096 0.0
H118 H 0.06903 0.16571 0.2785 0.0
H119 H 0.17446 0.16802 0.32368 0.0
C120 C 0.19666 0.20964 0.24728 0.0
N121 N 0.24513 0.22254 0.21818 0.0
C122 C 0.17798 0.21778 0.2338 0.0
C123 C 0.24007 0.20817 0.24618 0.0
C124 C 0.203 0.22419 0.21913 0.0
C125 C 0.264 0.21474 0.2313 0.0
C126 C 0.07192 0.18935 0.24421 0.0
C127 C 0.08106 0.19794 0.22905 0.0
C128 C 0.03437 0.1837 0.24129 0.0
C129 C 0.05252 0.20076 0.21128 0.0
C130 C 0.00658 0.18677 0.22332 0.0
N131 N 0.01616 0.19516 0.2088 0.0
C132 C 0.13826 0.17702 0.21089 0.0
C133 C 0.18376 0.19145 0.20138 0.0
C134 C 0.13033 0.17514 0.1869 0.0
N135 N 0.16316 0.18534 0.21769 0.0
C136 C 0.17716 0.18975 0.1771 0.0
C137 C 0.14888 0.18177 0.16975 0.0
H138 H 0.12247 0.17223 0.22423 0.0
H139 H 0.20372 0.19794 0.20701 0.0
C140 C 0.10323 0.22122 0.28045 0.0
N141 N 0.08323 0.21161 0.27923 0.0
C142 C 0.08269 0.23058 0.27353 0.0
C143 C 0.02026 0.22008 0.26612 0.0
C144 C 0.04187 0.21093 0.2736 0.0
C145 C 0.04134 0.23 0.26496 0.0
H146 H 0.13616 0.22149 0.28504 0.0
H147 H 0.02659 0.20319 0.27296 0.0
O148 O 0.19287 0.17955 0.27301 0.0
O149 O 0.14327 0.19403 0.30829 0.0
O150 O 0.17274 0.20338 0.262 0.0
O151 O 0.09969 0.18631 0.26157 0.0
H152 H 0.16539 0.1599 0.26347 0.0
H153 H 0.25818 0.18364 0.24522 0.0
H154 H 0.19586 0.14777 0.23313 0.0
H155 H 0.287 0.17109 0.21516 0.0
H156 H 0.03017 0.18401 0.3521 0.0
H157 H 0.18389 0.18835 0.34734 0.0
H158 H 0.06203 0.19118 0.31499 0.0
H159 H 0.14992 0.18123 0.38388 0.0
H160 H 0.33922 0.18748 0.31361 0.0
H161 H 0.27339 0.21313 0.34975 0.0
H162 H 0.06245 0.14636 0.28695 0.0
H163 H 0.1697 0.14879 0.33359 0.0
H164 H 0.14453 0.21917 0.23461 0.0
H165 H 0.25515 0.20201 0.25662 0.0
H166 H 0.18892 0.23049 0.20855 0.0
H167 H 0.29761 0.21365 0.2302 0.0
H168 H 0.10992 0.20236 0.23092 0.0
H169 H 0.0267 0.17703 0.25281 0.0
H170 H 0.05929 0.20739 0.19945 0.0
H171 H 0.97741 0.18247 0.22089 0.0
H172 H 0.10876 0.16881 0.18184 0.0
H173 H 0.19204 0.19503 0.16431 0.0
H174 H 0.0998 0.23809 0.27373 0.0
H175 H 0.98843 0.2192 0.25974 0.0
Li176 Li 0.0886 0.18874 0.99026 0.0
Li177 Li 0.12894 0.1996 0.96318 0.0
Li178 Li 0.05395 0.19416 0.95373 0.0
Li179 Li 0.11121 0.18113 0.95403 0.0
C180 C 0.05147 0.2098 0.99384 0.0
N181 N 0.00289 0.22275 0.02279 0.0
C182 C 0.07013 0.21793 0.00739 0.0
C183 C 0.00803 0.20837 0.99481 0.0
C184 C 0.04505 0.22436 0.02198 0.0
C185 C 0.98404 0.21496 0.00962 0.0
C186 C 0.17543 0.18924 -0.00259 0.0
C187 C 0.24011 0.18645 0.01881 0.0
N188 N 0.2306 0.19487 0.03327 0.0
C189 C 0.16634 0.19785 0.01252 0.0
C190 C 0.21262 0.18347 0.00061 0.0
C191 C 0.19458 0.20058 0.03052 0.0
C192 C 0.10833 0.17701 0.03028 0.0
N193 N 0.08387 0.18541 0.02346 0.0
C194 C 0.06989 0.18986 0.06403 0.0
C195 C 0.06348 0.19158 0.03975 0.0
C196 C 0.09778 0.1818 0.07142 0.0
C197 C 0.11606 0.1751 0.05429 0.0
H198 H 0.12399 0.17218 0.01697 0.0
H199 H 0.04389 0.19814 0.0341 0.0
C200 C 0.14624 0.2212 0.96119 0.0
N201 N 0.16574 0.21153 0.96248 0.0
C202 C 0.16707 0.23049 0.96836 0.0
C203 C 0.22879 0.21979 0.97619 0.0
C204 C 0.20693 0.21072 0.9684 0.0
C205 C 0.20815 0.22977 0.97731 0.0
H206 H 0.11344 0.22159 0.95636 0.0
H207 H 0.22184 0.20293 0.96905 0.0
C208 C 0.03762 0.17281 0.98421 0.0
N209 N 0.00411 0.15899 0.01771 0.0
C210 C 0.05496 0.1626 0.98753 0.0
C211 C 0.00307 0.17595 -0.00213 0.0
C212 C 0.03759 0.15574 0.00455 0.0
C213 C 0.98666 0.16886 0.01474 0.0
C214 C 0.12274 0.19032 0.91253 0.0
C215 C 0.09737 0.1876 0.89319 0.0
C216 C 0.16616 0.18898 0.91102 0.0
C217 C 0.11594 0.18347 0.87262 0.0
C218 C 0.18352 0.18482 0.89014 0.0
N219 N 0.15827 0.18217 0.87154 0.0
C220 C 0.00612 0.20585 0.92057 0.0
C221 C 0.97052 0.1916 0.93997 0.0
C222 C 0.97218 0.20741 0.90523 0.0
N223 N 0.00486 0.19791 0.93713 0.0
C224 C 0.93589 0.19291 0.92518 0.0
C225 C 0.93699 0.20066 0.90702 0.0
H226 H 0.03429 0.21061 0.91852 0.0
H227 H 0.97071 0.18524 0.95305 0.0
C228 C 0.15829 0.16214 0.94945 0.0
N229 N 0.12642 0.16792 0.93984 0.0
C230 C 0.16154 0.15117 0.94476 0.0
C231 C 0.10128 0.15255 0.91879 0.0
C232 C 0.09882 0.16347 0.92426 0.0
C233 C 0.13176 0.14621 0.92999 0.0
H234 H 0.17893 0.16584 0.96231 0.0
H235 H 0.07281 0.16818 0.91767 0.0
O236 O 0.07545 0.20352 0.9792 0.0
O237 O 0.14791 0.18628 0.97985 0.0
O238 O 0.05474 0.17974 0.96797 0.0
O239 O 0.10516 0.1942 0.93296 0.0
H240 H 0.10361 0.21929 0.00668 0.0
H241 H 0.99296 0.20221 0.98432 0.0
H242 H 0.05911 0.23064 0.03261 0.0
H243 H 0.95041 0.2139 0.01061 0.0
H244 H 0.26901 0.18206 0.02146 0.0
H245 H 0.13775 0.20237 0.01043 0.0
H246 H 0.22023 0.17677 0.98915 0.0
H247 H 0.18784 0.20723 0.04231 0.0
H248 H 0.05522 0.19518 0.0768 0.0
H249 H 0.13733 0.16872 0.05937 0.0
H250 H 0.15033 0.23806 0.96807 0.0
H251 H 0.26041 0.21879 0.98282 0.0
H252 H 0.08175 0.16001 0.97727 0.0
H253 H 0.98939 0.18383 0.99572 0.0
H254 H 0.05082 0.14784 0.00735 0.0
H255 H 0.96011 0.17123 0.02553 0.0
H256 H 0.06367 0.18859 0.89415 0.0
H257 H 0.18614 0.19105 0.92592 0.0
H258 H 0.09671 0.18127 0.85753 0.0
H259 H 0.21706 0.18368 0.88873 0.0
H260 H 0.97446 0.2134 0.89132 0.0
H261 H 0.90913 0.18765 0.92738 0.0
H262 H 0.18538 0.14648 0.95374 0.0
H263 H 0.07742 0.14895 0.90763 0.0
Li264 Li 0.15632 0.05766 0.99026 0.0
Li265 Li 0.11585 0.04673 0.96341 0.0
Li266 Li 0.19077 0.0522 0.9537 0.0
Li267 Li 0.13344 0.06521 0.95404 0.0
C268 C 0.19343 0.03659 0.99397 0.0
N269 N 0.24192 0.02367 0.02299 0.0
C270 C 0.1747 0.02851 0.00762 0.0
C271 C 0.23689 0.038 0.99487 0.0
C272 C 0.19973 0.02209 0.02224 0.0
C273 C 0.26084 0.03141 0.00971 0.0
C274 C 0.06948 0.05717 -0.00237 0.0
C275 C 0.00482 0.06 0.01906 0.0
N276 N 0.01442 0.05163 0.03363 0.0
C277 C 0.07866 0.0486 0.01285 0.0
C278 C 0.03225 0.06293 0.00078 0.0
C279 C 0.05048 0.04593 0.03093 0.0
C280 C 0.13691 0.0695 0.03019 0.0
N281 N 0.16126 0.06107 0.0234 0.0
C282 C 0.17567 0.05674 0.06397 0.0
C283 C 0.18181 0.05494 0.03969 0.0
C284 C 0.14792 0.06483 0.07135 0.0
C285 C 0.12947 0.07148 0.0542 0.0
H286 H 0.12114 0.07429 0.01687 0.0
H287 H 0.20131 0.04836 0.03406 0.0
C288 C 0.09866 0.02509 0.96152 0.0
N289 N 0.07915 0.03475 0.96292 0.0
C290 C 0.07788 0.01578 0.96863 0.0
C291 C 0.01621 0.02646 0.97673 0.0
C292 C 0.038 0.03555 0.96899 0.0
C293 C 0.03683 0.01647 0.97766 0.0
H294 H 0.13142 0.02472 0.95658 0.0
H295 H 0.02306 0.04333 0.96972 0.0
C296 C 0.20722 0.07359 0.98398 0.0
N297 N 0.24096 0.08747 0.01727 0.0
C298 C 0.19014 0.08384 0.98711 0.0
C299 C 0.24161 0.07043 -0.00228 0.0
C300 C 0.20763 0.09073 0.00403 0.0
C301 C 0.25815 0.07755 0.01449 0.0
C302 C 0.12168 0.05594 0.91266 0.0
C303 C 0.14692 0.05864 0.89324 0.0
C304 C 0.07826 0.05729 0.91128 0.0
C305 C 0.1282 0.06276 0.8727 0.0
C306 C 0.06075 0.06144 0.89043 0.0
N307 N 0.08587 0.06407 0.87174 0.0
C308 C 0.23838 0.04066 0.92016 0.0
C309 C 0.2743 0.0547 0.9401 0.0
C310 C 0.27228 0.03918 0.90473 0.0
N311 N 0.23981 0.04847 0.93703 0.0
C312 C 0.30889 0.05346 0.92525 0.0
C313 C 0.3076 0.04586 0.90677 0.0
H314 H 0.21009 0.03597 0.91791 0.0
H315 H 0.27423 0.06096 0.95341 0.0
C316 C 0.08649 0.08421 0.94957 0.0
N317 N 0.11815 0.07839 0.93981 0.0
C318 C 0.08336 0.09518 0.94489 0.0
C319 C 0.14326 0.09374 0.91865 0.0
C320 C 0.14562 0.08282 0.92411 0.0
C321 C 0.11303 0.10012 0.92999 0.0
H322 H 0.06598 0.08054 0.96254 0.0
H323 H 0.1715 0.07809 0.91741 0.0
O324 O 0.1695 0.04287 0.97931 0.0
O325 O 0.09694 0.06008 0.97999 0.0
O326 O 0.18997 0.06664 0.96783 0.0
O327 O 0.13941 0.05209 0.93306 0.0
H328 H 0.14121 0.02718 0.00697 0.0
H329 H 0.25201 0.04411 0.9843 0.0
H330 H 0.18562 0.01584 0.03295 0.0
H331 H 0.29448 0.03245 0.01065 0.0
H332 H 0.9759 0.06438 0.02167 0.0
H333 H 0.10728 0.0441 0.0108 0.0
H334 H 0.02456 0.06959 0.98923 0.0
H335 H 0.05729 0.03932 0.04281 0.0
H336 H 0.19045 0.05145 0.07675 0.0
H337 H 0.1083 0.07789 0.05927 0.0
H338 H 0.09462 0.00822 0.96818 0.0
H339 H 0.98462 0.02744 0.98344 0.0
H340 H 0.16347 0.08644 0.97678 0.0
H341 H 0.25507 0.06252 0.99574 0.0
H342 H 0.19461 0.09867 0.00668 0.0
H343 H 0.28458 0.07518 0.02534 0.0
H344 H 0.18062 0.05765 0.89411 0.0
H345 H 0.05839 0.05525 0.92624 0.0
H346 H 0.14732 0.06494 0.85754 0.0
H347 H 0.0272 0.06258 0.88911 0.0
H348 H 0.26986 0.03331 0.89058 0.0
H349 H 0.33577 0.05867 0.92765 0.0
H350 H 0.05972 0.0999 0.954 0.0
H351 H 0.16703 0.09732 0.90739 0.0
Li352 Li 0.90202 0.94017 0.73679 0.0
Li353 Li 0.88318 0.93134 0.69954 0.0
Li354 Li 0.93492 0.94559 0.69977 0.0
Li355 Li 0.86264 0.9499 0.70627 0.0
C356 C 0.96909 0.92653 0.72847 0.0
N357 N 0.03071 0.91644 0.75492 0.0
C358 C 0.97343 0.91535 0.72766 0.0
C359 C 0.9958 0.93253 0.74299 0.0
C360 C 0.00484 0.91041 0.74108 0.0
C361 C 0.02683 0.92731 0.75616 0.0
C362 C 0.82835 0.92848 0.73764 0.0
C363 C 0.77185 0.92051 0.76016 0.0
N364 N 0.79619 0.91176 0.76446 0.0
C365 C 0.85276 0.91939 0.74235 0.0
C366 C 0.78753 0.92904 0.74666 0.0
C367 C 0.83597 0.91103 0.7559 0.0
C368 C 0.88344 0.94728 0.78115 0.0
N369 N 0.90334 0.93894 0.77042 0.0
C370 C 0.91188 0.93004 0.80778 0.0
C371 C 0.91736 0.93036 0.78309 0.0
C372 C 0.8914 0.93858 0.81934 0.0
C373 C 0.87722 0.94729 0.80565 0.0
H374 H 0.87149 0.95383 0.77047 0.0
H375 H 0.93169 0.92363 0.77408 0.0
C376 C 0.90853 0.9136 0.67516 0.0
N377 N 0.87339 0.91782 0.68513 0.0
C378 C 0.90982 0.90281 0.66877 0.0
C379 C 0.83708 0.90118 0.6805 0.0
C380 C 0.83737 0.91203 0.68701 0.0
C381 C 0.87424 0.89641 0.67223 0.0
H382 H 0.93657 0.91846 0.67381 0.0
H383 H 0.80979 0.91562 0.6949 0.0
C384 C 0.94288 0.96222 0.72834 0.0
N385 N 0.00675 0.97696 0.73481 0.0
C386 C 0.95245 0.96964 0.71046 0.0
C387 C 0.96557 0.96239 0.74962 0.0
C388 C 0.98492 0.97699 0.71403 0.0
C389 C 0.99779 0.96988 0.75252 0.0
C390 C 0.85498 0.94247 0.66063 0.0
C391 C 0.86325 0.94307 0.63622 0.0
C392 C 0.81404 0.94039 0.66835 0.0
C393 C 0.8305 0.94166 0.62 0.0
C394 C 0.78217 0.93902 0.65158 0.0
N395 N 0.79097 0.93968 0.62795 0.0
C396 C 0.02309 0.95058 0.69499 0.0
C397 C 0.98166 0.95145 0.66009 0.0
C398 C 0.05946 0.95244 0.68176 0.0
N399 N 0.98528 0.94985 0.68391 0.0
C400 C 0.0171 0.9533 0.64618 0.0
C401 C 0.05682 0.95354 0.65691 0.0
H402 H 0.02529 0.94954 0.71398 0.0
H403 H 0.95129 0.95095 0.65175 0.0
C404 C 0.78614 0.95993 0.71699 0.0
N405 N 0.82267 0.96111 0.70483 0.0
C406 C 0.76303 0.96894 0.72376 0.0
C407 C 0.81444 0.98016 0.70414 0.0
C408 C 0.83612 0.97091 0.6974 0.0
C409 C 0.77839 0.97922 0.71831 0.0
H410 H 0.77671 0.95207 0.72306 0.0
H411 H 0.86533 0.97161 0.68784 0.0
O412 O 0.93819 0.93149 0.71559 0.0
O413 O 0.84434 0.93687 0.72469 0.0
O414 O 0.91125 0.95491 0.72514 0.0
O415 O 0.88707 0.94372 0.67666 0.0
H416 H 0.95264 0.91051 0.71693 0.0
H417 H 0.99198 0.94111 0.74453 0.0
H418 H 0.00854 0.90178 0.74056 0.0
H419 H 0.04763 0.93188 0.76749 0.0
H420 H 0.74033 0.92086 0.76724 0.0
H421 H 0.88431 0.91876 0.73561 0.0
H422 H 0.76808 0.93599 0.74337 0.0
H423 H 0.85459 0.90397 0.75962 0.0
H424 H 0.92332 0.92318 0.81766 0.0
H425 H 0.86038 0.95392 0.81366 0.0
H426 H 0.93892 0.89936 0.66239 0.0
H427 H 0.80915 0.89641 0.68349 0.0
H428 H 0.9358 0.96954 0.69372 0.0
H429 H 0.95858 0.95678 0.76375 0.0
H430 H 0.99292 0.98269 0.70023 0.0
H431 H 0.0157 0.97005 0.76886 0.0
H432 H 0.89466 0.94455 0.62976 0.0
H433 H 0.80664 0.93981 0.68701 0.0
H434 H 0.83654 0.94211 0.60109 0.0
H435 H 0.75041 0.93742 0.65736 0.0
H436 H 0.0894 0.95278 0.69082 0.0
H437 H 0.01352 0.954 0.62708 0.0
H438 H 0.73543 0.96793 0.73477 0.0
H439 H 0.82689 0.98797 0.69943 0.0
Li440 Li 0.86217 0.81509 0.70072 0.0
Li441 Li 0.84279 0.8061 0.73758 0.0
Li442 Li 0.88217 0.79642 0.70693 0.0
Li443 Li 0.81 0.80091 0.70041 0.0
C444 C 0.91692 0.8175 0.73905 0.0
N445 N 0.94962 0.83384 0.76678 0.0
C446 C 0.8936 0.82682 0.74328 0.0
C447 C 0.95686 0.8165 0.74907 0.0
C448 C 0.91067 0.83499 0.75729 0.0
C449 C 0.97285 0.82484 0.76299 0.0
C450 C 0.77671 0.81992 0.73012 0.0
C451 C 0.71947 0.81898 0.75815 0.0
N452 N 0.71649 0.82987 0.75787 0.0
C453 C 0.77328 0.83112 0.73028 0.0
C454 C 0.74977 0.81381 0.74431 0.0
C455 C 0.74257 0.83599 0.74436 0.0
C456 C 0.83965 0.83377 0.67819 0.0
N457 N 0.87394 0.82861 0.68675 0.0
C458 C 0.91621 0.84417 0.68059 0.0
C459 C 0.91218 0.83341 0.68726 0.0
C460 C 0.88041 0.85005 0.67371 0.0
C461 C 0.84202 0.84456 0.6718 0.0
H462 H 0.80975 0.82967 0.67778 0.0
H463 H 0.93909 0.82904 0.69388 0.0
C464 C 0.8618 0.79882 0.78177 0.0
N465 N 0.84188 0.80721 0.77128 0.0
C466 C 0.86864 0.79875 0.80622 0.0
C467 C 0.83445 0.81604 0.80883 0.0
C468 C 0.82848 0.8158 0.78417 0.0
C469 C 0.85497 0.80744 0.82015 0.0
H470 H 0.87337 0.79228 0.77092 0.0
H471 H 0.81427 0.8226 0.77537 0.0
C472 C 0.89005 0.80412 0.66142 0.0
N473 N 0.95384 0.80699 0.62862 0.0
C474 C 0.88146 0.80381 0.63702 0.0
C475 C 0.93119 0.80597 0.66907 0.0
C476 C 0.9141 0.80525 0.62074 0.0
C477 C 0.96295 0.80738 0.65223 0.0
C478 C 0.80119 0.78422 0.72873 0.0
C479 C 0.79108 0.77691 0.71074 0.0
C480 C 0.77867 0.78404 0.75008 0.0
C481 C 0.7582 0.76966 0.71425 0.0
C482 C 0.74603 0.77666 0.75293 0.0
N483 N 0.73653 0.76969 0.7351 0.0
C484 C 0.95931 0.78641 0.71659 0.0
C485 C 0.90796 0.77533 0.69849 0.0
C486 C 0.98263 0.77742 0.72328 0.0
N487 N 0.92201 0.78517 0.70525 0.0
C488 C 0.92989 0.76612 0.70515 0.0
C489 C 0.96676 0.76712 0.71858 0.0
H490 H 0.96933 0.79431 0.72206 0.0
H491 H 0.87818 0.77459 0.68956 0.0
C492 C 0.72161 0.79649 0.6946 0.0
N493 N 0.76003 0.79669 0.6841 0.0
C494 C 0.68573 0.79463 0.68097 0.0
C495 C 0.72976 0.79266 0.64624 0.0
C496 C 0.7647 0.79452 0.66056 0.0
C497 C 0.68948 0.79299 0.6563 0.0
H498 H 0.71854 0.79798 0.7134 0.0
H499 H 0.79557 0.79455 0.65271 0.0
O500 O 0.90057 0.8093 0.72567 0.0
O501 O 0.80679 0.815 0.71651 0.0
O502 O 0.8581 0.80284 0.67752 0.0
O503 O 0.83324 0.79142 0.72561 0.0
H504 H 0.86264 0.82776 0.73588 0.0
H505 H 0.97536 0.80934 0.74625 0.0
H506 H 0.89289 0.84223 0.76064 0.0
H507 H 0.00371 0.82415 0.77084 0.0
H508 H 0.69851 0.81432 0.76924 0.0
H509 H 0.7942 0.83604 0.7198 0.0
H510 H 0.75282 0.8052 0.74506 0.0
H511 H 0.73957 0.84465 0.74459 0.0
H512 H 0.94675 0.84793 0.68171 0.0
H513 H 0.81339 0.84866 0.66686 0.0
H514 H 0.88553 0.79207 0.81399 0.0
H515 H 0.82335 0.8229 0.81886 0.0
H516 H 0.84986 0.80253 0.63065 0.0
H517 H 0.93877 0.80636 0.68773 0.0
H518 H 0.90782 0.80502 0.60183 0.0
H519 H 0.99486 0.80881 0.65796 0.0
H520 H 0.80763 0.777 0.69396 0.0
H521 H 0.78612 0.78956 0.76432 0.0
H522 H 0.74978 0.76405 0.70036 0.0
H523 H 0.72825 0.77648 0.76932 0.0
H524 H 0.01091 0.77849 0.73369 0.0
H525 H 0.91702 0.75829 0.70097 0.0
H526 H 0.65533 0.79472 0.68956 0.0
H527 H 0.73424 0.79152 0.62731 0.0
Li528 Li 0.9364 0.80075 0.04132 0.0
Li529 Li 0.86439 0.79633 0.03493 0.0
Li530 Li 0.90011 0.80588 0.00426 0.0
Li531 Li 0.88101 0.81508 0.04128 0.0
C532 C 0.94448 0.78557 0.00568 0.0
N533 N 0.00801 0.77403 0.98402 0.0
C534 C 0.94714 0.77445 0.00879 0.0
C535 C 0.97391 0.79078 0.99135 0.0
C536 C 0.97955 0.76876 -0.00223 0.0
C537 C 0.00584 0.78483 0.9806 0.0
C538 C 0.86299 0.79838 0.08006 0.0
C539 C 0.79564 0.79738 0.09941 0.0
N540 N 0.80887 0.78859 0.11168 0.0
C541 C 0.87601 0.78937 0.09288 0.0
C542 C 0.82258 0.80246 0.08335 0.0
C543 C 0.84814 0.78452 0.10878 0.0
C544 C 0.00468 0.80598 0.06809 0.0
N545 N 0.98614 0.79735 0.05774 0.0
C546 C 0.03254 0.78538 0.07799 0.0
C547 C -0.00067 0.78716 0.0622 0.0
C548 C 0.05138 0.79416 0.08949 0.0
C549 C 0.0376 0.80457 0.084 0.0
H550 H 0.9928 0.81396 0.06461 0.0
H551 H 0.98305 0.78043 0.05432 0.0
C552 C 0.78751 0.78572 0.02798 0.0
N553 N 0.82634 0.78479 0.03768 0.0
C554 C 0.76486 0.77654 0.02186 0.0
C555 C 0.8217 0.76567 0.03711 0.0
C556 C 0.84299 0.77506 0.04319 0.0
C557 C 0.78294 0.76638 0.02538 0.0
H558 H 0.7757 0.79355 0.02315 0.0
H559 H 0.87432 0.77459 0.05046 0.0
C560 C 0.96609 0.82129 0.01497 0.0
N561 N 0.02715 0.83447 0.99576 0.0
C562 C 0.95719 0.83206 0.00998 0.0
C563 C 0.00643 0.81732 0.01073 0.0
C564 C 0.98838 0.83857 0.00013 0.0
C565 C 0.03675 0.82408 0.00085 0.0
C566 C 0.82227 0.81711 0.00561 0.0
C567 C 0.84529 0.82507 0.99395 0.0
C568 C 0.77847 0.81766 0.0057 0.0
C569 C 0.82424 0.83344 0.98251 0.0
C570 C 0.75852 0.82616 0.99407 0.0
N571 N 0.78163 0.83381 0.98281 0.0
C572 C 0.86938 0.8008 0.96092 0.0
C573 C 0.92575 0.81308 0.95678 0.0
C574 C 0.86233 0.80088 0.9365 0.0
N575 N 0.90044 0.80685 0.97053 0.0
C576 C 0.91997 0.81336 0.93209 0.0
C577 C 0.88778 0.8072 0.92167 0.0
H578 H 0.84949 0.79604 0.97242 0.0
H579 H 0.95007 0.81788 0.9649 0.0
C580 C 0.90722 0.833 0.06437 0.0
N581 N 0.87172 0.82874 0.05493 0.0
C582 C 0.90861 0.84379 0.07079 0.0
C583 C 0.83555 0.84538 0.05973 0.0
C584 C 0.83573 0.83454 0.05322 0.0
C585 C 0.87284 0.85018 0.0678 0.0
H586 H 0.93527 0.82816 0.06556 0.0
H587 H 0.80786 0.83093 0.04575 0.0
O588 O 0.91298 0.79123 0.01651 0.0
O589 O 0.88939 0.8031 0.06403 0.0
O590 O 0.93607 0.8148 0.02491 0.0
O591 O 0.84222 0.80887 0.01716 0.0
H592 H 0.92455 0.77023 0.01969 0.0
H593 H 0.9721 0.79932 0.98846 0.0
H594 H 0.98206 0.76016 0.00013 0.0
H595 H 0.02885 0.78879 0.96951 0.0
H596 H 0.7642 0.80041 0.10209 0.0
H597 H 0.90721 0.78611 0.09042 0.0
H598 H 0.81207 0.80941 0.07342 0.0
H599 H 0.85768 0.77751 0.11878 0.0
H600 H 0.04217 0.77723 0.08193 0.0
H601 H 0.05168 0.81156 0.09226 0.0
H602 H 0.7352 0.7774 0.01267 0.0
H603 H 0.83642 0.75796 0.04028 0.0
H604 H 0.92666 0.83542 0.0138 0.0
H605 H 0.01445 0.80912 0.01519 0.0
H606 H 0.9818 0.84689 -0.00393 0.0
H607 H 0.06798 0.82108 -0.00266 0.0
H608 H 0.87902 0.82477 0.99365 0.0
H609 H 0.76 0.81166 0.01484 0.0
H610 H 0.8418 0.83963 0.9734 0.0
H611 H 0.72466 0.8267 0.99405 0.0
H612 H 0.83663 0.79619 0.92941 0.0
H613 H 0.94055 0.81827 0.9213 0.0
H614 H 0.9378 0.84721 0.07709 0.0
H615 H 0.80744 0.85011 0.05709 0.0
Li616 Li 0.87791 0.9501 0.03389 0.0
Li617 Li 0.80466 0.94533 0.03955 0.0
Li618 Li 0.858 0.93142 0.04048 0.0
Li619 Li 0.84081 0.94005 0.00301 0.0
C620 C 0.88096 0.94298 0.08057 0.0
N621 N 0.93953 0.94104 0.11654 0.0
C622 C 0.86865 0.94392 0.10434 0.0
C623 C 0.92308 0.94107 0.07508 0.0
C624 C 0.89873 0.94292 0.12228 0.0
C625 C 0.9522 0.94011 0.09352 0.0
C626 C 0.79849 0.9613 0.00577 0.0
C627 C 0.73957 0.96433 0.97968 0.0
N628 N 0.73696 0.97463 0.98759 0.0
C629 C 0.79548 0.97196 0.01343 0.0
C630 C 0.77056 0.95749 0.98857 0.0
C631 C 0.76406 0.97855 0.00412 0.0
C632 C 0.95327 0.96044 0.02357 0.0
N633 N 0.91683 0.96143 0.0359 0.0
C634 C 0.92484 0.98046 0.03793 0.0
C635 C 0.90313 0.9711 0.04395 0.0
C636 C 0.96114 0.97973 0.02389 0.0
C637 C 0.97643 0.96955 0.01761 0.0
H638 H 0.96252 0.9527 0.01669 0.0
H639 H 0.87363 0.97162 0.05337 0.0
C640 C 0.73082 0.94055 0.06258 0.0
N641 N 0.75474 0.94904 0.05576 0.0
C642 C 0.69797 0.94198 0.07855 0.0
C643 C 0.71445 0.96093 0.08015 0.0
C644 C 0.74715 0.95912 0.06401 0.0
C645 C 0.69016 0.95221 0.08807 0.0
H646 H 0.73858 0.93256 0.05654 0.0
H647 H 0.76784 0.96564 0.05916 0.0
C648 C 0.91878 0.92874 0.00625 0.0
N649 N 0.96113 0.91158 0.98628 0.0
C650 C 0.8967 0.92061 0.99457 0.0
C651 C 0.96246 0.9281 0.00789 0.0
C652 C 0.91863 0.91202 0.98455 0.0
C653 C 0.98329 0.91938 -0.00235 0.0
C654 C 0.77351 0.92588 0.01108 0.0
C655 C 0.77903 0.91507 0.00509 0.0
C656 C 0.73619 0.93108 0.0049 0.0
C657 C 0.74755 0.90972 0.99252 0.0
C658 C 0.70546 0.92544 0.99233 0.0
N659 N 0.71175 0.91497 0.98642 0.0
C660 C 0.83357 0.91232 0.06 0.0
C661 C 0.90754 0.91351 0.05696 0.0
C662 C 0.83608 0.90155 0.06643 0.0
N663 N 0.8688 0.91792 0.05454 0.0
C664 C 0.91161 0.90275 0.06372 0.0
C665 C 0.87543 0.8965 0.0677 0.0
H666 H 0.8032 0.91608 0.05811 0.0
H667 H 0.93512 0.9182 0.05279 0.0
C668 C 0.87451 0.94476 0.96024 0.0
N669 N 0.84223 0.93894 0.96929 0.0
C670 C 0.88282 0.94466 0.93594 0.0
C671 C 0.82404 0.93264 0.93048 0.0
C672 C 0.81697 0.93293 0.95504 0.0
C673 C 0.85743 0.93856 0.92066 0.0
H674 H 0.89427 0.94937 0.9721 0.0
H675 H 0.79156 0.92834 0.9626 0.0
O676 O 0.85163 0.94387 0.06291 0.0
O677 O 0.82922 0.95475 0.01467 0.0
O678 O 0.89785 0.93714 0.01657 0.0
O679 O 0.80388 0.93123 0.02361 0.0
H680 H 0.83614 0.94539 0.10887 0.0
H681 H 0.93333 0.9403 0.05684 0.0
H682 H 0.88963 0.94362 0.14076 0.0
H683 H 0.98487 0.93861 0.08953 0.0
H684 H 0.71766 0.96145 0.96645 0.0
H685 H 0.81699 0.97511 0.02655 0.0
H686 H 0.77273 0.94936 0.98209 0.0
H687 H 0.76126 0.98679 0.01003 0.0
H688 H 0.9123 0.9882 0.04312 0.0
H689 H 0.00406 0.9687 0.00654 0.0
H690 H 0.67973 0.93507 0.084 0.0
H691 H 0.70974 0.96891 0.08732 0.0
H692 H 0.863 0.92091 0.99328 0.0
H693 H 0.98012 0.93421 0.01721 0.0
H694 H 0.90185 0.90569 0.97544 0.0
H695 H 0.01708 0.91878 -0.00117 0.0
H696 H 0.80727 0.91083 0.01011 0.0
H697 H 0.73079 0.93934 0.00993 0.0
H698 H 0.75154 0.90137 0.98767 0.0
H699 H 0.67653 0.92938 0.98737 0.0
H700 H 0.80721 0.89713 0.06897 0.0
H701 H 0.94268 0.8993 0.06503 0.0
H702 H 0.90934 0.94919 0.92929 0.0
H703 H 0.80342 0.92792 0.9193 0.0
Li704 Li 0.05832 0.55217 0.78816 0.0
Li705 Li 0.11569 0.56517 0.78741 0.0
Li706 Li 0.09163 0.55772 0.75131 0.0
Li707 Li 0.13292 0.5467 0.77757 0.0
C708 C 0.04099 0.57364 0.75831 0.0
N709 N 0.00617 0.5876 0.72556 0.0
C710 C 0.05788 0.58391 0.75518 0.0
C711 C 0.00623 0.5705 0.74483 0.0
C712 C 0.03985 0.59084 0.73855 0.0
C713 C 0.98915 0.57766 0.72834 0.0
C714 C 0.12827 0.55585 0.8286 0.0
C715 C 0.18938 0.56139 0.85062 0.0
N716 N 0.16444 0.56398 0.86942 0.0
C717 C 0.10322 0.55851 0.84813 0.0
C718 C 0.17169 0.55724 0.82983 0.0
C719 C 0.12212 0.56263 0.86862 0.0
C720 C 0.01146 0.54063 0.82216 0.0
N721 N 0.00972 0.54845 0.80532 0.0
C722 C 0.94104 0.55351 0.8177 0.0
C723 C 0.97527 0.55473 0.80257 0.0
C724 C 0.94266 0.5459 0.83613 0.0
C725 C 0.97794 0.53918 0.83786 0.0
H726 H 0.03972 0.53591 0.82414 0.0
H727 H 0.97508 0.56099 0.78928 0.0
C728 C 0.16267 0.5842 0.79167 0.0
N729 N 0.1313 0.57835 0.80162 0.0
C730 C 0.16566 0.59519 0.79631 0.0
C731 C 0.10626 0.59367 0.8229 0.0
C732 C 0.10404 0.58275 0.81749 0.0
C733 C 0.13614 0.60009 0.81136 0.0
H734 H 0.18299 0.58056 0.77858 0.0
H735 H 0.07836 0.57799 0.82433 0.0
C736 C 0.05425 0.53671 0.74762 0.0
N737 N 0.00474 0.52395 0.71879 0.0
C738 C 0.07248 0.52869 0.73357 0.0
C739 C 0.01078 0.53813 0.74722 0.0
C740 C 0.04694 0.52236 0.71905 0.0
C741 C 0.98631 0.53163 0.73247 0.0
C742 C 0.17825 0.55726 0.74306 0.0
C743 C 0.16862 0.54875 0.72779 0.0
C744 C 0.21533 0.56305 0.73962 0.0
C745 C 0.19622 0.54614 0.70937 0.0
C746 C 0.24218 0.56019 0.72101 0.0
N747 N 0.23215 0.55187 0.70639 0.0
C748 C 0.10999 0.56969 0.71147 0.0
C749 C 0.06516 0.55511 0.70199 0.0
C750 C 0.11728 0.5717 0.68746 0.0
N751 N 0.08581 0.56123 0.71827 0.0
C752 C 0.07112 0.55693 0.67771 0.0
C753 C 0.09881 0.56504 0.67032 0.0
H754 H 0.12587 0.57446 0.72478 0.0
H755 H 0.04579 0.5485 0.70764 0.0
C756 C 0.15013 0.52504 0.77857 0.0
N757 N 0.16965 0.53471 0.77734 0.0
C758 C 0.17058 0.51579 0.77081 0.0
C759 C 0.23201 0.52652 0.76244 0.0
C760 C 0.21058 0.53554 0.77084 0.0
C761 C 0.21129 0.51655 0.76131 0.0
H762 H 0.11755 0.52464 0.78386 0.0
H763 H 0.22554 0.54333 0.77025 0.0
O764 O 0.05874 0.56664 0.77419 0.0
O765 O 0.11036 0.55198 0.80826 0.0
O766 O 0.0787 0.5429 0.7622 0.0
O767 O 0.15131 0.5601 0.76102 0.0
H768 H 0.08483 0.58649 0.7653 0.0
H769 H 0.9929 0.56258 0.74681 0.0
H770 H 0.05273 0.59879 0.73591 0.0
H771 H 0.96243 0.57531 0.7177 0.0
H772 H 0.22292 0.56257 0.85181 0.0
H773 H 0.06953 0.55748 0.84739 0.0
H774 H 0.19141 0.55523 0.81478 0.0
H775 H 0.10315 0.56477 0.88385 0.0
H776 H 0.91418 0.55875 0.81553 0.0
H777 H 0.9806 0.5333 0.85197 0.0
H778 H 0.18905 0.59993 0.78707 0.0
H779 H 0.0826 0.59722 0.83429 0.0
H780 H 0.10598 0.52735 0.73382 0.0
H781 H 0.99604 0.54418 0.75812 0.0
H782 H 0.06066 0.51616 0.70802 0.0
H783 H 0.95265 0.53268 0.73191 0.0
H784 H 0.14009 0.54422 0.73006 0.0
H785 H 0.22335 0.56967 0.7512 0.0
H786 H 0.18906 0.53958 0.69745 0.0
H787 H 0.27099 0.5646 0.71817 0.0
H788 H 0.13841 0.57811 0.68237 0.0
H789 H 0.05633 0.55164 0.66492 0.0
H790 H 0.15381 0.50823 0.77114 0.0
H791 H 0.26336 0.52755 0.7554 0.0
Li792 Li 0.19293 0.6941 0.78778 0.0
Li793 Li 0.13527 0.68115 0.78776 0.0
Li794 Li 0.1575 0.68876 0.75146 0.0
Li795 Li 0.11807 0.69972 0.77876 0.0
C796 C 0.20848 0.67279 0.75717 0.0
N797 N 0.24165 0.65904 0.72343 0.0
C798 C 0.19131 0.66256 0.75393 0.0
C799 C 0.24269 0.676 0.74331 0.0
C800 C 0.20851 0.65573 0.73678 0.0
C801 C 0.25894 0.66894 0.72632 0.0
C802 C 0.12356 0.69051 0.82916 0.0
C803 C 0.06169 0.68539 0.85104 0.0
N804 N 0.08616 0.68272 0.86996 0.0
C805 C 0.14812 0.68776 0.84882 0.0
C806 C 0.08001 0.68937 0.83025 0.0
C807 C 0.1286 0.68381 0.86929 0.0
C808 C 0.24083 0.70561 0.82103 0.0
N809 N 0.24222 0.69779 0.80417 0.0
C810 C 0.31146 0.69287 0.81573 0.0
C811 C 0.27676 0.69159 0.80099 0.0
C812 C 0.3102 0.70047 0.83421 0.0
C813 C 0.27481 0.70712 0.83634 0.0
H814 H 0.21249 0.71027 0.82335 0.0
H815 H 0.27666 0.68533 0.78767 0.0
C816 C 0.08882 0.66204 0.79195 0.0
N817 N 0.12009 0.66792 0.80191 0.0
C818 C 0.08606 0.65105 0.79651 0.0
C819 C 0.1455 0.6526 0.82303 0.0
C820 C 0.14749 0.66354 0.8177 0.0
C821 C 0.11571 0.64616 0.81149 0.0
H822 H 0.06841 0.66568 0.7789 0.0
H823 H 0.17309 0.66832 0.82455 0.0
C824 C 0.19496 0.7098 0.74766 0.0
N825 N 0.24275 0.72281 0.71843 0.0
C826 C 0.1759 0.71791 0.73424 0.0
C827 C 0.2384 0.70842 0.74643 0.0
C828 C 0.20058 0.72437 0.7195 0.0
C829 C 0.262 0.71505 0.73149 0.0
C830 C 0.07035 0.68943 0.74489 0.0
C831 C 0.07938 0.69796 0.72955 0.0
C832 C 0.03274 0.68379 0.74222 0.0
C833 C 0.05066 0.70072 0.71183 0.0
C834 C 0.00477 0.6868 0.72428 0.0
N835 N 0.01424 0.69514 0.70959 0.0
C836 C 0.1369 0.67704 0.71157 0.0
C837 C 0.18222 0.69149 0.70191 0.0
C838 C 0.12915 0.67507 0.6876 0.0
N839 N 0.16165 0.68541 0.71827 0.0
C840 C 0.17578 0.68971 0.67765 0.0
C841 C 0.1477 0.68167 0.67037 0.0
H842 H 0.12114 0.67228 0.72496 0.0
H843 H 0.20205 0.69802 0.70748 0.0
C844 C 0.1024 0.7214 0.78136 0.0
N845 N 0.08215 0.71184 0.77974 0.0
C846 C 0.08228 0.73085 0.77458 0.0
C847 C 0.01973 0.72052 0.76643 0.0
C848 C 0.0409 0.71128 0.7738 0.0
C849 C 0.0411 0.73041 0.76571 0.0
H850 H 0.13524 0.72158 0.78617 0.0
H851 H 0.02537 0.70358 0.77287 0.0
O852 O 0.1915 0.67968 0.77354 0.0
O853 O 0.14206 0.69419 0.80882 0.0
O854 O 0.17138 0.70349 0.76245 0.0
O855 O 0.09829 0.68644 0.7622 0.0
H856 H 0.16481 0.65992 0.76437 0.0
H857 H 0.25622 0.6839 0.74539 0.0
H858 H 0.19541 0.64781 0.73405 0.0
H859 H 0.28522 0.67136 0.71537 0.0
H860 H 0.02804 0.68442 0.85213 0.0
H861 H 0.1819 0.68859 0.84818 0.0
H862 H 0.06066 0.69145 0.8151 0.0
H863 H 0.14718 0.68161 0.88463 0.0
H864 H 0.33838 0.68768 0.81327 0.0
H865 H 0.27241 0.71299 0.85051 0.0
H866 H 0.06274 0.64629 0.78726 0.0
H867 H 0.16924 0.64907 0.83437 0.0
H868 H 0.14241 0.71923 0.73516 0.0
H869 H 0.25378 0.7023 0.75684 0.0
H870 H 0.18621 0.73064 0.70896 0.0
H871 H 0.29562 0.71403 0.73029 0.0
H872 H 0.10829 0.70237 0.73125 0.0
H873 H 0.02516 0.67715 0.75388 0.0
H874 H 0.05735 0.70731 0.69986 0.0
H875 H 0.97555 0.68251 0.72204 0.0
H876 H 0.10773 0.66871 0.6826 0.0
H877 H 0.19065 0.69496 0.66481 0.0
H878 H 0.09961 0.73833 0.77513 0.0
H879 H 0.98801 0.71973 0.75981 0.0
Li880 Li 0.1278 0.69925 0.46356 0.0
Li881 Li 0.0879 0.6884 0.49079 0.0
Li882 Li 0.11003 0.68078 0.45452 0.0
Li883 Li 0.05285 0.69382 0.45444 0.0
C884 C 0.1749 0.68894 0.49753 0.0
N885 N 0.23075 0.69467 0.53296 0.0
C886 C 0.16595 0.69755 0.51269 0.0
C887 C 0.2123 0.68324 0.50046 0.0
C888 C 0.19454 0.70032 0.53047 0.0
C889 C 0.24014 0.68626 0.51845 0.0
C890 C 0.05063 0.70943 0.49457 0.0
C891 C 0.98324 0.71457 0.51045 0.0
N892 N 0.00215 0.72231 0.52371 0.0
C893 C 0.06934 0.71752 0.5082 0.0
C894 C 0.00718 0.708 0.49555 0.0
C895 C 0.04432 0.72391 0.52289 0.0
C896 C 0.1446 0.72084 0.46189 0.0
N897 N 0.16439 0.7112 0.46267 0.0
C898 C 0.22773 0.71946 0.47584 0.0
C899 C 0.2058 0.71041 0.4681 0.0
C900 C 0.20683 0.72939 0.47754 0.0
C901 C 0.16541 0.73011 0.46916 0.0
H902 H 0.11162 0.7212 0.45746 0.0
H903 H 0.22086 0.70263 0.46841 0.0
C904 C 0.10825 0.67672 0.53083 0.0
N905 N 0.08349 0.68506 0.52399 0.0
C906 C 0.11594 0.67482 0.55484 0.0
C907 C 0.06911 0.68945 0.56455 0.0
C908 C 0.06274 0.69116 0.54027 0.0
C909 C 0.09727 0.68145 0.57196 0.0
H910 H 0.12412 0.67194 0.51752 0.0
H911 H 0.04284 0.69766 0.53461 0.0
C912 C 0.12156 0.69004 0.41303 0.0
N913 N 0.15753 0.68203 0.37202 0.0
C914 C 0.09636 0.68731 0.39362 0.0
C915 C 0.16502 0.68877 0.4116 0.0
C916 C 0.11517 0.68326 0.37303 0.0
C917 C 0.18261 0.68468 0.3907 0.0
C918 C 0.03677 0.67249 0.48499 0.0
C919 C 0.05425 0.6623 0.48836 0.0
C920 C 0.00227 0.67563 0.49869 0.0
C921 C 0.03706 0.65546 0.50548 0.0
C922 C 0.98605 0.66856 0.51566 0.0
N923 N 0.00363 0.65871 0.51868 0.0
C924 C 0.15682 0.66177 0.44979 0.0
C925 C 0.09723 0.66319 0.4247 0.0
C926 C 0.15979 0.65079 0.44506 0.0
N927 N 0.12501 0.66759 0.44024 0.0
C928 C 0.09941 0.65227 0.41921 0.0
C929 C 0.12981 0.64588 0.43035 0.0
H930 H 0.17759 0.66542 0.46263 0.0
H931 H 0.07128 0.66793 0.41817 0.0
C932 C 0.00571 0.70544 0.42111 0.0
N933 N 0.00389 0.6976 0.43789 0.0
C934 C 0.97212 0.70697 0.40553 0.0
C935 C 0.93494 0.69269 0.42576 0.0
C936 C 0.96927 0.69139 0.44077 0.0
C937 C 0.93669 0.70031 0.40733 0.0
H938 H 0.03412 0.7101 0.41903 0.0
H939 H 0.96905 0.68511 0.45403 0.0
O940 O 0.14712 0.68596 0.48013 0.0
O941 O 0.07455 0.70318 0.47983 0.0
O942 O 0.10376 0.69384 0.43347 0.0
O943 O 0.05372 0.6794 0.46865 0.0
H944 H 0.13721 0.70201 0.51081 0.0
H945 H 0.21982 0.67655 0.48893 0.0
H946 H 0.18791 0.70696 0.5423 0.0
H947 H 0.2692 0.68192 0.52088 0.0
H948 H 0.94962 0.71351 0.51146 0.0
H949 H 0.10282 0.71887 0.5075 0.0
H950 H 0.99207 0.70188 0.48501 0.0
H951 H 0.05842 0.73017 0.53359 0.0
H952 H 0.25965 0.71851 0.48204 0.0
H953 H 0.14847 0.73765 0.46943 0.0
H954 H 0.13742 0.66849 0.55994 0.0
H955 H 0.05413 0.69472 0.57731 0.0
H956 H 0.06264 0.68824 0.39453 0.0
H957 H 0.18486 0.69083 0.42655 0.0
H958 H 0.09608 0.68106 0.35788 0.0
H959 H 0.21618 0.6836 0.38934 0.0
H960 H 0.081 0.65971 0.47806 0.0
H961 H 0.98849 0.6835 0.49649 0.0
H962 H 0.0504 0.64757 0.50832 0.0
H963 H 0.95954 0.67093 0.52647 0.0
H964 H 0.18357 0.64607 0.454 0.0
H965 H 0.0754 0.64871 0.40809 0.0
H966 H 0.97489 0.71285 0.39142 0.0
H967 H 0.90796 0.6875 0.42797 0.0
Li968 Li 0.15569 0.55766 0.49092 0.0
Li969 Li 0.11412 0.54661 0.46488 0.0
Li970 Li 0.1886 0.55204 0.45401 0.0
Li971 Li 0.13128 0.56502 0.45482 0.0
C972 C 0.19321 0.53667 0.49465 0.0
N973 N 0.24328 0.52403 0.52341 0.0
C974 C 0.17529 0.52866 0.50884 0.0
C975 C 0.23666 0.53815 0.49488 0.0
C976 C 0.20112 0.52239 0.52332 0.0
C977 C 0.26142 0.53171 0.5096 0.0
C978 C 0.06925 0.55721 0.49948 0.0
C979 C 0.00574 0.5602 0.52189 0.0
N980 N 0.0159 0.55187 0.53645 0.0
C981 C 0.07902 0.54869 0.51471 0.0
C982 C 0.0323 0.56303 0.50313 0.0
C983 C 0.0517 0.54611 0.53328 0.0
C984 C 0.13769 0.56969 0.53072 0.0
N985 N 0.16181 0.56122 0.52391 0.0
C986 C 0.17666 0.55695 0.56446 0.0
C987 C 0.18253 0.55512 0.54018 0.0
C988 C 0.14899 0.56506 0.57187 0.0
C989 C 0.13049 0.57171 0.55473 0.0
H990 H 0.12175 0.57445 0.51742 0.0
H991 H 0.20185 0.5485 0.53453 0.0
C992 C 0.09647 0.52498 0.46435 0.0
N993 N 0.07719 0.53468 0.4653 0.0
C994 C 0.07573 0.51581 0.47231 0.0
C995 C 0.01451 0.52668 0.48027 0.0
C996 C 0.03623 0.53562 0.47168 0.0
C997 C 0.035 0.51668 0.48171 0.0
H998 H 0.12907 0.52449 0.45914 0.0
H999 H 0.02149 0.54343 0.47206 0.0
C1000 C 0.20611 0.5736 0.4836 0.0
N1001 N 0.24097 0.58768 0.51609 0.0
C1002 C 0.18906 0.58385 0.48665 0.0
C1003 C 0.24103 0.57053 0.49702 0.0
C1004 C 0.20712 0.59085 0.50316 0.0
C1005 C 0.25813 0.57775 0.51338 0.0
C1006 C 0.11823 0.55564 0.41378 0.0
C1007 C 0.14305 0.55829 0.39414 0.0
C1008 C 0.07479 0.55702 0.4127 0.0
C1009 C 0.1239 0.56239 0.37372 0.0
C1010 C 0.05685 0.56115 0.39195 0.0
N1011 N 0.08158 0.56373 0.37306 0.0
C1012 C 0.2351 0.54048 0.41989 0.0
C1013 C 0.27143 0.55462 0.43928 0.0
C1014 C 0.2684 0.53905 0.40403 0.0
N1015 N 0.237 0.54831 0.43671 0.0
C1016 C 0.30544 0.55342 0.42399 0.0
C1017 C 0.30362 0.5458 0.40558 0.0
H1018 H 0.20685 0.53574 0.41803 0.0
H1019 H 0.27174 0.56089 0.45256 0.0
C1020 C 0.08386 0.58395 0.45033 0.0
N1021 N 0.11542 0.57813 0.44047 0.0
C1022 C 0.08061 0.59491 0.44556 0.0
C1023 C 0.1401 0.59343 0.41902 0.0
C1024 C 0.14259 0.58253 0.42457 0.0
C1025 C 0.11005 0.59982 0.43048 0.0
H1026 H 0.0636 0.5803 0.46344 0.0
H1027 H 0.1684 0.57779 0.4178 0.0
O1028 O 0.16847 0.54281 0.48012 0.0
O1029 O 0.09592 0.56003 0.48138 0.0
O1030 O 0.18833 0.56654 0.46785 0.0
O1031 O 0.13638 0.5518 0.43407 0.0
H1032 H 0.14181 0.52727 0.50872 0.0
H1033 H 0.25115 0.54421 0.48389 0.0
H1034 H 0.18764 0.51619 0.53444 0.0
H1035 H 0.29506 0.53281 0.51003 0.0
H1036 H 0.97704 0.56463 0.52489 0.0
H1037 H 0.10744 0.54414 0.51228 0.0
H1038 H 0.02417 0.56966 0.49159 0.0
H1039 H 0.05898 0.53954 0.54516 0.0
H1040 H 0.19147 0.55166 0.57725 0.0
H1041 H 0.10937 0.57813 0.55984 0.0
H1042 H 0.09231 0.50822 0.47222 0.0
H1043 H 0.98315 0.52779 0.48722 0.0
H1044 H 0.16199 0.58638 0.47658 0.0
H1045 H 0.25448 0.56262 0.4951 0.0
H1046 H 0.19414 0.59879 0.50574 0.0
H1047 H 0.28498 0.57545 0.52398 0.0
H1048 H 0.17675 0.55727 0.39477 0.0
H1049 H 0.05524 0.55501 0.42782 0.0
H1050 H 0.1427 0.56453 0.3584 0.0
H1051 H 0.02329 0.56232 0.39088 0.0
H1052 H 0.2656 0.53316 0.38995 0.0
H1053 H 0.33227 0.55868 0.42603 0.0
H1054 H 0.05711 0.59964 0.45474 0.0
H1055 H 0.1637 0.59699 0.40762 0.0
Li1056 Li 0.90362 0.44167 0.23898 0.0
Li1057 Li 0.87865 0.43136 0.2052 0.0
Li1058 Li 0.93299 0.44478 0.1983 0.0
Li1059 Li 0.86204 0.44994 0.20732 0.0
C1060 C 0.94602 0.42143 0.22539 0.0
N1061 N 0.96272 0.40033 0.23741 0.0
C1062 C 0.92705 0.41681 0.24534 0.0
C1063 C 0.97358 0.41531 0.21158 0.0
C1064 C 0.93592 0.40614 0.25115 0.0
C1065 C 0.98154 0.40465 0.21792 0.0
C1066 C 0.81167 0.43243 0.23545 0.0
C1067 C 0.74709 0.42371 0.22425 0.0
N1068 N 0.74417 0.41943 0.24646 0.0
C1069 C 0.80798 0.42797 0.25819 0.0
C1070 C 0.78095 0.43032 0.21835 0.0
C1071 C 0.77363 0.42141 0.26339 0.0
C1072 C 0.88008 0.44843 0.28277 0.0
N1073 N 0.91058 0.4425 0.27223 0.0
C1074 C 0.93833 0.43745 0.31005 0.0
C1075 C 0.94028 0.43729 0.28519 0.0
C1076 C 0.90594 0.44316 0.32141 0.0
C1077 C 0.87713 0.44888 0.30743 0.0
H1078 H 0.85701 0.45248 0.27188 0.0
H1079 H 0.96455 0.43275 0.27627 0.0
C1080 C 0.87722 0.41396 0.1735 0.0
N1081 N 0.86485 0.41706 0.19564 0.0
C1082 C 0.87852 0.40305 0.16752 0.0
C1083 C 0.85253 0.39885 0.20683 0.0
C1084 C 0.85144 0.40977 0.21197 0.0
C1085 C 0.86756 0.39537 0.18468 0.0
H1086 H 0.88872 0.4199 0.16106 0.0
H1087 H 0.84313 0.4123 0.22968 0.0
C1088 C 0.94736 0.46068 0.23248 0.0
N1089 N 0.01381 0.47111 0.25397 0.0
C1090 C 0.94432 0.47158 0.23816 0.0
C1091 C 0.98413 0.45507 0.23786 0.0
C1092 C 0.97828 0.47672 0.24898 0.0
C1093 C 0.01739 0.46049 0.24869 0.0
C1094 C 0.86124 0.44741 0.16191 0.0
C1095 C 0.87827 0.45684 0.15254 0.0
C1096 C 0.82228 0.44377 0.15392 0.0
C1097 C 0.85567 0.46257 0.13545 0.0
C1098 C 0.80067 0.44972 0.13679 0.0
N1099 N 0.81765 0.45893 0.12801 0.0
C1100 C 0.99259 0.43939 0.16545 0.0
C1101 C -0.00146 0.4576 0.17729 0.0
C1102 C 0.02531 0.44061 0.1493 0.0
N1103 N 0.98017 0.44777 0.17914 0.0
C1104 C 0.03147 0.45921 0.16122 0.0
C1105 C 0.04505 0.45064 0.14686 0.0
H1106 H 0.97641 0.43179 0.1668 0.0
H1107 H 0.98712 0.46424 0.18785 0.0
C1108 C 0.78383 0.46046 0.21277 0.0
N1109 N 0.82379 0.46146 0.20465 0.0
C1110 C 0.76099 0.46959 0.21911 0.0
C1111 C 0.82 0.48056 0.20722 0.0
C1112 C 0.84152 0.47124 0.20093 0.0
C1113 C 0.77995 0.47975 0.21742 0.0
H1114 H 0.77098 0.4526 0.2163 0.0
H1115 H 0.87375 0.47176 0.19504 0.0
O1116 O 0.93703 0.43181 0.21915 0.0
O1117 O 0.84518 0.43883 0.23002 0.0
O1118 O 0.91417 0.45557 0.22201 0.0
O1119 O 0.88256 0.44179 0.17892 0.0
H1120 H 0.90481 0.42131 0.25589 0.0
H1121 H 0.98865 0.41873 0.19611 0.0
H1122 H 0.92118 0.40245 0.26644 0.0
H1123 H 0.00268 0.39982 0.20734 0.0
H1124 H 0.72315 0.42198 0.21116 0.0
H1125 H 0.83155 0.42947 0.27162 0.0
H1126 H 0.78336 0.4337 0.20069 0.0
H1127 H 0.77045 0.41787 0.28088 0.0
H1128 H 0.96143 0.43305 0.32027 0.0
H1129 H 0.85145 0.45329 0.31543 0.0
H1130 H 0.89049 0.40064 0.15029 0.0
H1131 H 0.84363 0.39313 0.22047 0.0
H1132 H 0.91598 0.47603 0.23426 0.0
H1133 H 0.98712 0.44663 0.23369 0.0
H1134 H 0.97637 0.48515 0.25344 0.0
H1135 H 0.04605 0.45625 0.2529 0.0
H1136 H 0.90842 0.45976 0.15858 0.0
H1137 H 0.80896 0.4364 0.16081 0.0
H1138 H 0.86832 0.46993 0.12813 0.0
H1139 H 0.77042 0.44702 0.13047 0.0
H1140 H 0.03505 0.43373 0.13886 0.0
H1141 H 0.04544 0.4671 0.15968 0.0
H1142 H 0.73029 0.46864 0.22709 0.0
H1143 H 0.83547 0.48826 0.20546 0.0
Li1144 Li 0.86166 0.31445 0.2008 0.0
Li1145 Li 0.84274 0.30561 0.2379 0.0
Li1146 Li 0.88078 0.29573 0.20695 0.0
Li1147 Li 0.80862 0.30038 0.20117 0.0
C1148 C 0.91765 0.31665 0.23874 0.0
N1149 N 0.95238 0.33284 0.2661 0.0
C1150 C 0.89502 0.32604 0.24335 0.0
C1151 C 0.95791 0.31548 0.24825 0.0
C1152 C 0.91311 0.33413 0.25714 0.0
C1153 C 0.97493 0.32376 0.26199 0.0
C1154 C 0.77788 0.31981 0.23096 0.0
C1155 C 0.72226 0.31949 0.26009 0.0
N1156 N 0.72073 0.3304 0.2596 0.0
C1157 C 0.77584 0.33103 0.23083 0.0
C1158 C 0.75097 0.314 0.24578 0.0
C1159 C 0.74672 0.33623 0.2454 0.0
C1160 C 0.84152 0.33324 0.17727 0.0
N1161 N 0.87469 0.3279 0.18673 0.0
C1162 C 0.91783 0.34348 0.18346 0.0
C1163 C 0.913 0.33259 0.18876 0.0
C1164 C 0.88297 0.34948 0.17581 0.0
C1165 C 0.84496 0.34411 0.17164 0.0
H1166 H 0.81151 0.32925 0.17577 0.0
H1167 H 0.93906 0.3281 0.196 0.0
C1168 C 0.8625 0.29841 0.28214 0.0
N1169 N 0.84297 0.30686 0.27164 0.0
C1170 C 0.87012 0.29842 0.30652 0.0
C1171 C 0.83765 0.31593 0.30902 0.0
C1172 C 0.83082 0.31559 0.28445 0.0
C1173 C 0.85773 0.30726 0.32035 0.0
H1174 H 0.87313 0.29174 0.27135 0.0
H1175 H 0.81701 0.32244 0.27563 0.0
C1176 C 0.88669 0.30333 0.16104 0.0
N1177 N 0.94807 0.30598 0.12676 0.0
C1178 C 0.87635 0.30285 0.13688 0.0
C1179 C 0.92828 0.30523 0.16772 0.0
C1180 C 0.90782 0.30418 0.11983 0.0
C1181 C 0.95884 0.30653 0.15013 0.0
C1182 C 0.7997 0.28391 0.23007 0.0
C1183 C 0.78862 0.27642 0.21261 0.0
C1184 C 0.77767 0.2841 0.25158 0.0
C1185 C 0.75532 0.26939 0.21682 0.0
C1186 C 0.7446 0.27692 0.25513 0.0
N1187 N 0.73417 0.26978 0.23781 0.0
C1188 C 0.95822 0.28567 0.21518 0.0
C1189 C 0.90543 0.27459 0.19849 0.0
C1190 C 0.9817 0.27668 0.22164 0.0
N1191 N 0.92014 0.28443 0.20471 0.0
C1192 C 0.92754 0.26537 0.20491 0.0
C1193 C 0.96525 0.26638 0.21756 0.0
H1194 H 0.9688 0.29358 0.22019 0.0
H1195 H 0.87506 0.27385 0.19022 0.0
C1196 C 0.7198 0.2971 0.19529 0.0
N1197 N 0.75844 0.2961 0.18532 0.0
C1198 C 0.6839 0.2952 0.18173 0.0
C1199 C 0.72823 0.2907 0.1483 0.0
C1200 C 0.7632 0.29265 0.16254 0.0
C1201 C 0.68787 0.29229 0.15766 0.0
H1202 H 0.71664 0.29965 0.21351 0.0
H1203 H 0.79427 0.29174 0.15516 0.0
O1204 O 0.90032 0.30853 0.22547 0.0
O1205 O 0.80648 0.31458 0.21692 0.0
O1206 O 0.85591 0.30217 0.17787 0.0
O1207 O 0.83227 0.29089 0.22628 0.0
H1208 H 0.86387 0.3271 0.23631 0.0
H1209 H 0.97589 0.30826 0.24518 0.0
H1210 H 0.8959 0.34145 0.26072 0.0
H1211 H 0.00606 0.32295 0.26942 0.0
H1212 H 0.70137 0.31508 0.27168 0.0
H1213 H 0.79665 0.3357 0.21972 0.0
H1214 H 0.75274 0.30536 0.24658 0.0
H1215 H 0.74485 0.34491 0.24546 0.0
H1216 H 0.94785 0.34731 0.18657 0.0
H1217 H 0.81724 0.34843 0.16593 0.0
H1218 H 0.88663 0.29168 0.31431 0.0
H1219 H 0.82754 0.32291 0.31898 0.0
H1220 H 0.84429 0.30152 0.13132 0.0
H1221 H 0.93707 0.30575 0.18622 0.0
H1222 H 0.90021 0.30382 0.10109 0.0
H1223 H 0.99112 0.308 0.15508 0.0
H1224 H 0.80484 0.2762 0.19574 0.0
H1225 H 0.78586 0.28975 0.26543 0.0
H1226 H 0.74618 0.26364 0.20334 0.0
H1227 H 0.72722 0.27703 0.27167 0.0
H1228 H 0.01065 0.27776 0.23144 0.0
H1229 H 0.91421 0.25754 0.2012 0.0
H1230 H 0.65336 0.2963 0.18981 0.0
H1231 H 0.73288 0.28854 0.12982 0.0
Li1232 Li 0.94083 0.30112 0.54111 0.0
Li1233 Li 0.8672 0.2967 0.53501 0.0
Li1234 Li 0.90573 0.30644 0.5042 0.0
Li1235 Li 0.88814 0.31531 0.54144 0.0
C1236 C 0.94693 0.28536 0.50687 0.0
N1237 N 0.00895 0.27245 0.48779 0.0
C1238 C 0.94811 0.2744 0.51222 0.0
C1239 C 0.97705 0.28972 0.49162 0.0
C1240 C 0.97978 0.26801 0.50246 0.0
C1241 C 0.00821 0.28308 0.48221 0.0
C1242 C 0.86378 0.30395 0.58158 0.0
C1243 C 0.7928 0.30754 0.59413 0.0
N1244 N 0.80464 0.30619 0.61719 0.0
C1245 C 0.87524 0.3026 0.60539 0.0
C1246 C 0.82222 0.30644 0.57587 0.0
C1247 C 0.84488 0.30376 0.62314 0.0
C1248 C 0.01373 0.30565 0.56504 0.0
N1249 N 0.99038 0.29722 0.55733 0.0
C1250 C 0.03129 0.28498 0.58048 0.0
C1251 C -0.0014 0.287 0.56447 0.0
C1252 C 0.05491 0.29362 0.5894 0.0
C1253 C 0.04649 0.30401 0.58096 0.0
H1254 H 0.00563 0.31372 0.55969 0.0
H1255 H 0.97852 0.2805 0.55874 0.0
C1256 C 0.79119 0.28646 0.52504 0.0
N1257 N 0.82795 0.28545 0.53703 0.0
C1258 C 0.76811 0.27735 0.51897 0.0
C1259 C 0.82044 0.2664 0.53854 0.0
C1260 C 0.84209 0.27575 0.54464 0.0
C1261 C 0.78379 0.26716 0.5248 0.0
H1262 H 0.78162 0.29423 0.51846 0.0
H1263 H 0.87194 0.27522 0.55369 0.0
C1264 C 0.97158 0.32133 0.51343 0.0
N1265 N 0.03061 0.33398 0.49078 0.0
C1266 C 0.96268 0.33207 0.50819 0.0
C1267 C 0.01089 0.3171 0.50759 0.0
C1268 C 0.99283 0.33831 0.49661 0.0
C1269 C 0.04019 0.3236 0.49602 0.0
C1270 C 0.82746 0.31795 0.50662 0.0
C1271 C 0.84928 0.32584 0.49402 0.0
C1272 C 0.78385 0.31869 0.50872 0.0
C1273 C 0.82721 0.33432 0.48367 0.0
C1274 C 0.76287 0.3273 0.49813 0.0
N1275 N 0.78481 0.33487 0.48592 0.0
C1276 C 0.87381 0.3015 0.46118 0.0
C1277 C 0.93178 0.31323 0.45636 0.0
C1278 C 0.86645 0.30147 0.4368 0.0
N1279 N 0.90583 0.30733 0.47046 0.0
C1280 C 0.92568 0.31338 0.4317 0.0
C1281 C 0.89255 0.30744 0.42164 0.0
H1282 H 0.85347 0.29699 0.47293 0.0
H1283 H 0.95692 0.31785 0.46416 0.0
C1284 C 0.91474 0.33348 0.56395 0.0
N1285 N 0.87899 0.32892 0.55555 0.0
C1286 C 0.91523 0.34425 0.57056 0.0
C1287 C 0.84106 0.34521 0.56181 0.0
C1288 C 0.84209 0.33438 0.55517 0.0
C1289 C 0.87839 0.35034 0.56874 0.0
H1290 H 0.94351 0.32888 0.56422 0.0
H1291 H 0.81397 0.33053 0.54871 0.0
O1292 O 0.91616 0.29172 0.51637 0.0
O1293 O 0.8934 0.30291 0.56411 0.0
O1294 O 0.9426 0.31511 0.52501 0.0
O1295 O 0.8485 0.30962 0.51716 0.0
H1296 H 0.92495 0.27085 0.52387 0.0
H1297 H 0.97636 0.29812 0.48702 0.0
H1298 H 0.98116 0.25953 0.50655 0.0
H1299 H 0.03177 0.28637 0.47043 0.0
H1300 H 0.76055 0.30947 0.58997 0.0
H1301 H 0.90731 0.30069 0.61009 0.0
H1302 H 0.81265 0.30752 0.55761 0.0
H1303 H 0.85332 0.30275 0.64164 0.0
H1304 H 0.03659 0.27687 0.58675 0.0
H1305 H 0.06428 0.31088 0.58717 0.0
H1306 H 0.74021 0.27822 0.50814 0.0
H1307 H 0.83332 0.25865 0.54338 0.0
H1308 H 0.9329 0.33559 0.5131 0.0
H1309 H 0.01887 0.30891 0.51211 0.0
H1310 H 0.98624 0.34662 0.49235 0.0
H1311 H 0.07064 0.32041 0.4913 0.0
H1312 H 0.88288 0.32543 0.49222 0.0
H1313 H 0.76636 0.31276 0.51869 0.0
H1314 H 0.84381 0.34047 0.47386 0.0
H1315 H 0.72916 0.32798 0.49969 0.0
H1316 H 0.84004 0.29695 0.42997 0.0
H1317 H 0.94678 0.31802 0.42065 0.0
H1318 H 0.94449 0.3479 0.57609 0.0
H1319 H 0.81205 0.34966 0.56012 0.0
Li1320 Li 0.878 0.45042 0.53647 0.0
Li1321 Li 0.80455 0.44559 0.53875 0.0
Li1322 Li 0.85756 0.43164 0.54133 0.0
Li1323 Li 0.84532 0.44059 0.50379 0.0
C1324 C 0.87514 0.44287 0.58277 0.0
N1325 N 0.92866 0.44059 0.62109 0.0
C1326 C 0.85957 0.44348 0.60597 0.0
C1327 C 0.91795 0.44111 0.57904 0.0
C1328 C 0.88714 0.44231 0.62511 0.0
C1329 C 0.94448 0.43998 0.59865 0.0
C1330 C 0.80218 0.46226 0.50773 0.0
C1331 C 0.74994 0.46775 0.47913 0.0
N1332 N 0.74224 0.47672 0.49224 0.0
C1333 C 0.7941 0.47161 0.52072 0.0
C1334 C 0.78024 0.46038 0.48659 0.0
C1335 C 0.76354 0.47878 0.51268 0.0
C1336 C 0.95315 0.46094 0.52818 0.0
N1337 N 0.91652 0.46176 0.54038 0.0
C1338 C 0.9243 0.48076 0.54357 0.0
C1339 C 0.90269 0.47131 0.54903 0.0
C1340 C 0.96066 0.48022 0.52952 0.0
C1341 C 0.97623 0.47013 0.5228 0.0
H1342 H 0.96249 0.45331 0.5208 0.0
H1343 H 0.87317 0.4717 0.55843 0.0
C1344 C 0.72022 0.44269 0.55237 0.0
N1345 N 0.75321 0.44958 0.55328 0.0
C1346 C 0.686 0.4441 0.56746 0.0
C1347 C 0.7197 0.45984 0.58385 0.0
C1348 C 0.75338 0.45812 0.56839 0.0
C1349 C 0.68613 0.45255 0.584 0.0
H1350 H 0.72157 0.43567 0.54116 0.0
H1351 H 0.7809 0.46316 0.56961 0.0
C1352 C 0.92167 0.4293 0.50879 0.0
N1353 N 0.96438 0.41238 0.4881 0.0
C1354 C 0.89966 0.42089 0.49813 0.0
C1355 C 0.9655 0.42905 0.50914 0.0
C1356 C 0.92175 0.41242 0.4877 0.0
C1357 C 0.98651 0.42044 0.49853 0.0
C1358 C 0.77807 0.42668 0.50684 0.0
C1359 C 0.7808 0.41563 0.50259 0.0
C1360 C 0.74704 0.43268 0.4954 0.0
C1361 C 0.75286 0.41082 0.48667 0.0
C1362 C 0.71969 0.42759 0.47961 0.0
N1363 N 0.72317 0.41686 0.47559 0.0
C1364 C 0.8326 0.41223 0.5598 0.0
C1365 C 0.90659 0.41395 0.5588 0.0
C1366 C 0.83576 0.40146 0.56623 0.0
N1367 N 0.86764 0.4181 0.55541 0.0
C1368 C 0.91127 0.40321 0.56555 0.0
C1369 C 0.87551 0.3967 0.56854 0.0
H1370 H 0.80204 0.41579 0.55705 0.0
H1371 H 0.93398 0.41883 0.55538 0.0
C1372 C 0.87487 0.44819 0.46195 0.0
N1373 N 0.85086 0.43998 0.47018 0.0
C1374 C 0.88505 0.44887 0.43791 0.0
C1375 C 0.84584 0.43253 0.43111 0.0
C1376 C 0.83627 0.43219 0.45538 0.0
C1377 C 0.87061 0.44096 0.42215 0.0
H1378 H 0.8866 0.45416 0.47426 0.0
H1379 H 0.81796 0.42561 0.46232 0.0
O1380 O 0.84827 0.44392 0.56394 0.0
O1381 O 0.83222 0.45517 0.51529 0.0
O1382 O 0.90058 0.43759 0.51949 0.0
O1383 O 0.80536 0.43153 0.52231 0.0
H1384 H 0.82649 0.44483 0.60913 0.0
H1385 H 0.9307 0.4406 0.56126 0.0
H1386 H 0.87551 0.44276 0.64317 0.0
H1387 H 0.97766 0.4386 0.59603 0.0
H1388 H 0.7326 0.46635 0.46288 0.0
H1389 H 0.81107 0.47332 0.53689 0.0
H1390 H 0.78641 0.45332 0.476 0.0
H1391 H 0.75682 0.486 0.52269 0.0
H1392 H 0.91156 0.48843 0.5491 0.0
H1393 H 0.00389 0.46943 0.5117 0.0
H1394 H 0.66064 0.43831 0.56702 0.0
H1395 H 0.7213 0.46633 0.59663 0.0
H1396 H 0.8659 0.42086 0.49799 0.0
H1397 H 0.98322 0.43536 0.5177 0.0
H1398 H 0.90498 0.40587 0.47936 0.0
H1399 H 0.02042 0.42015 0.49867 0.0
H1400 H 0.80441 0.4108 0.51133 0.0
H1401 H 0.74368 0.44116 0.49895 0.0
H1402 H 0.7548 0.4023 0.48313 0.0
H1403 H 0.69558 0.43216 0.47063 0.0
H1404 H 0.80725 0.39681 0.568 0.0
H1405 H 0.94256 0.39997 0.56762 0.0
H1406 H 0.90473 0.45541 0.43183 0.0
H1407 H 0.83386 0.42631 0.4195 0.0
Li1408 Li 0.61234 0.0655 0.78806 0.0
Li1409 Li 0.55454 0.05258 0.78826 0.0
Li1410 Li 0.62934 0.04692 0.77897 0.0
Li1411 Li 0.58973 0.05792 0.75181 0.0
C1412 C 0.62339 0.05622 0.82957 0.0
N1413 N 0.65939 0.0642 0.87058 0.0
C1414 C 0.5982 0.05897 0.84898 0.0
C1415 C 0.66687 0.05745 0.83101 0.0
C1416 C 0.61702 0.06301 0.86957 0.0
C1417 C 0.68447 0.06153 0.8519 0.0
C1418 C 0.53894 0.07391 0.75774 0.0
C1419 C 0.48808 0.07782 0.72717 0.0
N1420 N 0.50558 0.08769 0.72415 0.0
C1421 C 0.55633 0.08411 0.75437 0.0
C1422 C 0.50442 0.07075 0.74409 0.0
C1423 C 0.53903 0.09095 0.7373 0.0
C1424 C 0.65924 0.08454 0.79225 0.0
N1425 N 0.62773 0.07872 0.80217 0.0
C1426 C 0.60253 0.09412 0.82314 0.0
C1427 C 0.60029 0.08318 0.81785 0.0
C1428 C 0.6326 0.1005 0.81165 0.0
C1429 C 0.66224 0.09554 0.79677 0.0
H1430 H 0.67969 0.08086 0.77928 0.0
H1431 H 0.57451 0.07844 0.82466 0.0
C1432 C 0.50632 0.04091 0.82119 0.0
N1433 N 0.50527 0.0489 0.80473 0.0
C1434 C 0.4723 0.03935 0.83648 0.0
C1435 C 0.43632 0.05393 0.81666 0.0
C1436 C 0.47104 0.05525 0.80193 0.0
C1437 C 0.43722 0.04614 0.83473 0.0
H1438 H 0.53441 0.03612 0.82321 0.0
H1439 H 0.4714 0.06164 0.78892 0.0
C1440 C 0.67677 0.05719 0.74493 0.0
N1441 N 0.73242 0.05146 0.70938 0.0
C1442 C 0.66748 0.04867 0.72962 0.0
C1443 C 0.71441 0.06281 0.7421 0.0
C1444 C 0.69597 0.04589 0.71177 0.0
C1445 C 0.74213 0.05978 0.72405 0.0
C1446 C 0.55204 0.03689 0.74814 0.0
C1447 C 0.57087 0.02876 0.73468 0.0
C1448 C 0.5086 0.03831 0.74705 0.0
C1449 C 0.54597 0.02231 0.72005 0.0
C1450 C 0.48479 0.03169 0.73221 0.0
N1451 N 0.50381 0.02391 0.71911 0.0
C1452 C 0.64478 0.02522 0.78159 0.0
C1453 C 0.70627 0.03527 0.77355 0.0
C1454 C 0.66464 0.01574 0.77474 0.0
N1455 N 0.66514 0.03476 0.77977 0.0
C1456 C 0.72716 0.026 0.76607 0.0
C1457 C 0.70564 0.01612 0.76557 0.0
H1458 H 0.61204 0.02508 0.78663 0.0
H1459 H 0.72191 0.04295 0.77247 0.0
C1460 C 0.61002 0.06964 0.71186 0.0
N1461 N 0.58529 0.06128 0.71864 0.0
C1462 C 0.61755 0.07161 0.68786 0.0
C1463 C 0.57079 0.05698 0.67807 0.0
C1464 C 0.56456 0.0552 0.70234 0.0
C1465 C 0.59882 0.06501 0.67069 0.0
H1466 H 0.62594 0.07439 0.72519 0.0
H1467 H 0.54477 0.04867 0.70797 0.0
O1468 O 0.60558 0.05243 0.80913 0.0
O1469 O 0.55601 0.067 0.77403 0.0
O1470 O 0.64905 0.0602 0.76236 0.0
O1471 O 0.57584 0.04319 0.76283 0.0
H1472 H 0.56447 0.05806 0.84807 0.0
H1473 H 0.6867 0.05537 0.81606 0.0
H1474 H 0.59793 0.06522 0.88471 0.0
H1475 H 0.71806 0.06258 0.85326 0.0
H1476 H 0.46155 0.07545 0.71639 0.0
H1477 H 0.58309 0.0867 0.76464 0.0
H1478 H 0.49071 0.06288 0.74629 0.0
H1479 H 0.55229 0.09884 0.73446 0.0
H1480 H 0.57877 0.0977 0.83441 0.0
H1481 H 0.68578 0.10024 0.78756 0.0
H1482 H 0.47443 0.03333 0.85032 0.0
H1483 H 0.40964 0.05923 0.81449 0.0
H1484 H 0.63855 0.04427 0.73143 0.0
H1485 H 0.72218 0.06944 0.75374 0.0
H1486 H 0.68908 0.03931 0.69982 0.0
H1487 H 0.77137 0.06406 0.72168 0.0
H1488 H 0.60435 0.02741 0.73549 0.0
H1489 H 0.4934 0.04446 0.75749 0.0
H1490 H 0.56016 0.01602 0.70948 0.0
H1491 H 0.45117 0.03274 0.73112 0.0
H1492 H 0.64722 0.00828 0.77549 0.0
H1493 H 0.75875 0.02675 0.75922 0.0
H1494 H 0.63894 0.07797 0.68279 0.0
H1495 H 0.5558 0.05172 0.66527 0.0
Li1496 Li 0.6905 0.19455 0.78811 0.0
Li1497 Li 0.63289 0.18158 0.7877 0.0
Li1498 Li 0.65609 0.18913 0.7515 0.0
Li1499 Li 0.61571 0.20013 0.77832 0.0
C1500 C 0.70693 0.17318 0.75783 0.0
N1501 N 0.74108 0.15936 0.72455 0.0
C1502 C 0.69007 0.16291 0.75468 0.0
C1503 C 0.74132 0.17639 0.74412 0.0
C1504 C 0.70776 0.15605 0.73777 0.0
C1505 C 0.75807 0.1693 0.72736 0.0
C1506 C 0.62091 0.1909 0.82905 0.0
C1507 C 0.55954 0.18551 0.85106 0.0
N1508 N 0.58432 0.18289 0.86988 0.0
C1509 C 0.64579 0.18821 0.84861 0.0
C1510 C 0.57744 0.1896 0.83025 0.0
C1511 C 0.62668 0.18416 0.86911 0.0
C1512 C 0.7382 0.20608 0.82163 0.0
N1513 N 0.73956 0.19824 0.80481 0.0
C1514 C 0.8086 0.19323 0.81659 0.0
C1515 C 0.77399 0.19199 0.80177 0.0
C1516 C 0.80739 0.20086 0.83501 0.0
C1517 C 0.77211 0.20756 0.83703 0.0
H1518 H 0.70996 0.21079 0.82385 0.0
H1519 H 0.77388 0.18572 0.78849 0.0
C1520 C 0.5863 0.16248 0.79175 0.0
N1521 N 0.61748 0.16836 0.80183 0.0
C1522 C 0.58343 0.15149 0.79632 0.0
C1523 C 0.64256 0.15302 0.82305 0.0
C1524 C 0.64468 0.16396 0.81771 0.0
C1525 C 0.61286 0.14659 0.81142 0.0
H1526 H 0.56605 0.16612 0.77863 0.0
H1527 H 0.67024 0.16873 0.82464 0.0
C1528 C 0.69331 0.21021 0.74784 0.0
N1529 N 0.74155 0.22322 0.71886 0.0
C1530 C 0.67444 0.21829 0.73427 0.0
C1531 C 0.7368 0.20885 0.7469 0.0
C1532 C 0.69935 0.22475 0.71966 0.0
C1533 C 0.76062 0.21548 0.73208 0.0
C1534 C 0.56916 0.18969 0.7441 0.0
C1535 C 0.5785 0.19819 0.72874 0.0
C1536 C 0.53182 0.18397 0.74107 0.0
C1537 C 0.55035 0.20085 0.71066 0.0
C1538 C 0.50442 0.18688 0.72277 0.0
N1539 N 0.51418 0.19519 0.70807 0.0
C1540 C 0.63671 0.17728 0.71163 0.0
C1541 C 0.68162 0.19184 0.70208 0.0
C1542 C 0.62922 0.1753 0.68763 0.0
N1543 N 0.66109 0.18571 0.71839 0.0
C1544 C 0.67545 0.19003 0.67781 0.0
C1545 C 0.64767 0.18194 0.67046 0.0
H1546 H 0.62094 0.1725 0.72497 0.0
H1547 H 0.70112 0.19842 0.70769 0.0
C1548 C 0.59947 0.22182 0.78083 0.0
N1549 N 0.57954 0.21223 0.77877 0.0
C1550 C 0.57944 0.23127 0.77391 0.0
C1551 C 0.51762 0.22087 0.76453 0.0
C1552 C 0.53861 0.21164 0.77216 0.0
C1553 C 0.53873 0.23081 0.76433 0.0
H1554 H 0.63205 0.22204 0.78618 0.0
H1555 H 0.52326 0.20393 0.77094 0.0
O1556 O 0.68949 0.18011 0.77397 0.0
O1557 O 0.63902 0.1947 0.8087 0.0
O1558 O 0.6695 0.20389 0.7625 0.0
O1559 O 0.59663 0.18678 0.76172 0.0
H1560 H 0.66343 0.16027 0.76499 0.0
H1561 H 0.75462 0.18432 0.74612 0.0
H1562 H 0.69491 0.1481 0.7351 0.0
H1563 H 0.7845 0.17171 0.71653 0.0
H1564 H 0.52595 0.18441 0.85223 0.0
H1565 H 0.67952 0.18917 0.84789 0.0
H1566 H 0.55784 0.19164 0.81518 0.0
H1567 H 0.64553 0.18199 0.88437 0.0
H1568 H 0.83543 0.18801 0.81422 0.0
H1569 H 0.76976 0.21346 0.85114 0.0
H1570 H 0.56018 0.14674 0.787 0.0
H1571 H 0.66615 0.14949 0.83449 0.0
H1572 H 0.64092 0.21958 0.73497 0.0
H1573 H 0.75203 0.20275 0.75744 0.0
H1574 H 0.68512 0.23099 0.709 0.0
H1575 H 0.79427 0.21448 0.7311 0.0
H1576 H 0.60723 0.20267 0.73071 0.0
H1577 H 0.52402 0.17735 0.75273 0.0
H1578 H 0.55729 0.20741 0.69867 0.0
H1579 H 0.47541 0.18252 0.72025 0.0
H1580 H 0.60801 0.16889 0.68258 0.0
H1581 H 0.69022 0.19532 0.66499 0.0
H1582 H 0.59653 0.23876 0.77496 0.0
H1583 H 0.48628 0.22004 0.75739 0.0
Li1584 Li 0.63013 0.19995 0.46427 0.0
Li1585 Li 0.58947 0.18897 0.49096 0.0
Li1586 Li 0.61282 0.18145 0.4548 0.0
Li1587 Li 0.55539 0.19443 0.4543 0.0
C1588 C 0.67627 0.18951 0.49857 0.0
N1589 N 0.7309 0.19503 0.53477 0.0
C1590 C 0.66689 0.19806 0.5138 0.0
C1591 C 0.71348 0.18376 0.50182 0.0
C1592 C 0.69486 0.20073 0.53197 0.0
C1593 C 0.74069 0.18668 0.52019 0.0
C1594 C 0.55205 0.21 0.49461 0.0
C1595 C 0.48437 0.21511 0.51011 0.0
N1596 N 0.50302 0.22285 0.52352 0.0
C1597 C 0.5705 0.21808 0.50838 0.0
C1598 C 0.50859 0.20856 0.49531 0.0
C1599 C 0.54519 0.22445 0.52295 0.0
C1600 C 0.64697 0.22161 0.46246 0.0
N1601 N 0.66665 0.21197 0.46394 0.0
C1602 C 0.72935 0.22035 0.4778 0.0
C1603 C 0.70776 0.21123 0.47009 0.0
C1604 C 0.70856 0.23032 0.47861 0.0
C1605 C 0.66754 0.23095 0.46955 0.0
H1606 H 0.61424 0.22194 0.45746 0.0
H1607 H 0.72283 0.20346 0.47091 0.0
C1608 C 0.60865 0.17714 0.53089 0.0
N1609 N 0.58423 0.18555 0.52407 0.0
C1610 C 0.61606 0.17518 0.5549 0.0
C1611 C 0.5696 0.18988 0.56462 0.0
C1612 C 0.56352 0.19166 0.54033 0.0
C1613 C 0.59748 0.18182 0.57203 0.0
H1614 H 0.62455 0.17236 0.51759 0.0
H1615 H 0.54395 0.19822 0.53467 0.0
C1616 C 0.62477 0.19071 0.41345 0.0
N1617 N 0.66067 0.18256 0.37256 0.0
C1618 C 0.59959 0.18802 0.394 0.0
C1619 C 0.66818 0.18933 0.4121 0.0
C1620 C 0.61836 0.18389 0.37348 0.0
C1621 C 0.68574 0.18517 0.39126 0.0
C1622 C 0.53869 0.17303 0.48448 0.0
C1623 C 0.55584 0.16279 0.48773 0.0
C1624 C 0.50399 0.17616 0.49802 0.0
C1625 C 0.53812 0.1559 0.50457 0.0
C1626 C 0.48723 0.16904 0.51471 0.0
N1627 N 0.50449 0.15914 0.51761 0.0
C1628 C 0.65976 0.16242 0.45044 0.0
C1629 C 0.60085 0.16384 0.42485 0.0
C1630 C 0.66281 0.15144 0.44578 0.0
N1631 N 0.62824 0.16825 0.4406 0.0
C1632 C 0.60314 0.15292 0.41941 0.0
C1633 C 0.63321 0.14652 0.43082 0.0
H1634 H 0.68019 0.16608 0.46345 0.0
H1635 H 0.57507 0.16858 0.4181 0.0
C1636 C 0.50813 0.20601 0.42072 0.0
N1637 N 0.50657 0.19813 0.43743 0.0
C1638 C 0.47454 0.20747 0.40509 0.0
C1639 C 0.43795 0.19303 0.42507 0.0
C1640 C 0.47223 0.1918 0.44014 0.0
C1641 C 0.43941 0.2007 0.40675 0.0
H1642 H 0.53631 0.21077 0.41876 0.0
H1643 H 0.47221 0.1855 0.45333 0.0
O1644 O 0.64899 0.1866 0.48086 0.0
O1645 O 0.57626 0.20376 0.47999 0.0
O1646 O 0.60698 0.19457 0.43383 0.0
O1647 O 0.55615 0.17999 0.46841 0.0
H1648 H 0.63827 0.20256 0.51167 0.0
H1649 H 0.72131 0.1771 0.49027 0.0
H1650 H 0.68789 0.20733 0.54386 0.0
H1651 H 0.7696 0.1823 0.52288 0.0
H1652 H 0.45073 0.21405 0.5109 0.0
H1653 H 0.60399 0.21943 0.50787 0.0
H1654 H 0.49368 0.20245 0.48463 0.0
H1655 H 0.55909 0.2307 0.53376 0.0
H1656 H 0.76092 0.21942 0.48455 0.0
H1657 H 0.65067 0.23849 0.46903 0.0
H1658 H 0.63733 0.1688 0.56001 0.0
H1659 H 0.55472 0.19517 0.57739 0.0
H1660 H 0.56589 0.18903 0.39484 0.0
H1661 H 0.68801 0.19137 0.42708 0.0
H1662 H 0.59928 0.18172 0.3583 0.0
H1663 H 0.71928 0.18401 0.38998 0.0
H1664 H 0.58274 0.16021 0.47756 0.0
H1665 H 0.49046 0.18406 0.49593 0.0
H1666 H 0.5512 0.14798 0.50731 0.0
H1667 H 0.46055 0.1714 0.5254 0.0
H1668 H 0.68633 0.14671 0.45493 0.0
H1669 H 0.57942 0.14935 0.40809 0.0
H1670 H 0.47708 0.2134 0.39107 0.0
H1671 H 0.4112 0.18775 0.42717 0.0
Li1672 Li 0.61861 0.04702 0.46388 0.0
Li1673 Li 0.65793 0.05807 0.49097 0.0
Li1674 Li 0.6353 0.06557 0.45469 0.0
Li1675 Li 0.69321 0.05272 0.4546 0.0
C1676 C 0.57091 0.05722 0.49777 0.0
N1677 N 0.51524 0.05133 0.53319 0.0
C1678 C 0.58032 0.04868 0.51302 0.0
C1679 C 0.53313 0.06277 0.5006 0.0
C1680 C 0.55182 0.04583 0.5308 0.0
C1681 C 0.50539 0.05967 0.51859 0.0
C1682 C 0.6964 0.0372 0.4949 0.0
C1683 C 0.76411 0.03233 0.51073 0.0
N1684 N 0.74564 0.02458 0.52416 0.0
C1685 C 0.67815 0.0291 0.50872 0.0
C1686 C 0.73978 0.03877 0.49576 0.0
C1687 C 0.70356 0.02284 0.52346 0.0
C1688 C 0.60294 0.02535 0.46262 0.0
N1689 N 0.58268 0.03494 0.46314 0.0
C1690 C 0.5195 0.02651 0.47609 0.0
C1691 C 0.54115 0.03562 0.46838 0.0
C1692 C 0.54081 0.01665 0.47799 0.0
C1693 C 0.58244 0.01604 0.4699 0.0
H1694 H 0.636 0.02508 0.45834 0.0
H1695 H 0.52573 0.04334 0.46851 0.0
C1696 C 0.637 0.06974 0.53094 0.0
N1697 N 0.66223 0.06148 0.52414 0.0
C1698 C 0.62935 0.07167 0.55494 0.0
C1699 C 0.67709 0.05726 0.56471 0.0
C1700 C 0.68342 0.05551 0.54044 0.0
C1701 C 0.64851 0.06516 0.5721 0.0
H1702 H 0.62079 0.07443 0.51761 0.0
H1703 H 0.70369 0.04908 0.53481 0.0
C1704 C 0.62398 0.05618 0.4133 0.0
N1705 N 0.5871 0.06392 0.37233 0.0
C1706 C 0.6488 0.05894 0.39375 0.0
C1707 C 0.58044 0.05728 0.41202 0.0
C1708 C 0.62954 0.06286 0.37318 0.0
C1709 C 0.56239 0.06123 0.39114 0.0
C1710 C 0.70834 0.07413 0.48499 0.0
C1711 C 0.69036 0.08425 0.48842 0.0
C1712 C 0.74314 0.0711 0.49856 0.0
C1713 C 0.70735 0.09116 0.50547 0.0
C1714 C 0.75916 0.07823 0.51546 0.0
N1715 N 0.74108 0.08803 0.51855 0.0
C1716 C 0.58783 0.08448 0.45017 0.0
C1717 C 0.647 0.08317 0.42472 0.0
C1718 C 0.58451 0.09546 0.44551 0.0
N1719 N 0.61962 0.07871 0.44041 0.0
C1720 C 0.64446 0.09409 0.41928 0.0
C1721 C 0.61412 0.10043 0.43064 0.0
H1722 H 0.56741 0.08079 0.46315 0.0
H1723 H 0.67297 0.07847 0.41802 0.0
C1724 C 0.74094 0.04106 0.42157 0.0
N1725 N 0.74232 0.04905 0.43802 0.0
C1726 C 0.77465 0.0395 0.40607 0.0
C1727 C 0.81101 0.05409 0.42565 0.0
C1728 C 0.77658 0.05541 0.44061 0.0
C1729 C 0.80974 0.04629 0.40759 0.0
H1730 H 0.71281 0.03627 0.41972 0.0
H1731 H 0.77645 0.0618 0.4536 0.0
O1732 O 0.59857 0.06027 0.48036 0.0
O1733 O 0.6721 0.04332 0.4801 0.0
O1734 O 0.64223 0.0525 0.43371 0.0
O1735 O 0.69159 0.06715 0.46872 0.0
H1736 H 0.60936 0.04433 0.51121 0.0
H1737 H 0.52524 0.0694 0.489 0.0
H1738 H 0.55881 0.03924 0.5427 0.0
H1739 H 0.47604 0.06389 0.52094 0.0
H1740 H 0.79768 0.0335 0.51164 0.0
H1741 H 0.64474 0.02764 0.50811 0.0
H1742 H 0.75454 0.0449 0.48508 0.0
H1743 H 0.68981 0.01658 0.5343 0.0
H1744 H 0.48741 0.02737 0.48209 0.0
H1745 H 0.59972 0.00855 0.47036 0.0
H1746 H 0.60756 0.07794 0.56002 0.0
H1747 H 0.69246 0.05207 0.5775 0.0
H1748 H 0.68258 0.05813 0.39453 0.0
H1749 H 0.56089 0.05518 0.42709 0.0
H1750 H 0.64833 0.06508 0.35792 0.0
H1751 H 0.52873 0.06218 0.38991 0.0
H1752 H 0.66337 0.08674 0.47822 0.0
H1753 H 0.75734 0.06329 0.4963 0.0
H1754 H 0.69362 0.099 0.50836 0.0
H1755 H 0.7859 0.07596 0.52618 0.0
H1756 H 0.56078 0.10014 0.45461 0.0
H1757 H 0.66819 0.0977 0.40803 0.0
H1758 H 0.77223 0.03347 0.39224 0.0
H1759 H 0.83772 0.05939 0.42765 0.0
Li1760 Li 0.40316 0.94064 0.23895 0.0
Li1761 Li 0.38827 0.93147 0.20193 0.0
Li1762 Li 0.43951 0.94594 0.20291 0.0
Li1763 Li 0.3663 0.95012 0.20712 0.0
C1764 C 0.47024 0.92715 0.2346 0.0
N1765 N 0.52594 0.91764 0.2659 0.0
C1766 C 0.47269 0.91595 0.23626 0.0
C1767 C 0.49607 0.93348 0.24896 0.0
C1768 C 0.50105 0.9113 0.25217 0.0
C1769 C 0.52404 0.92854 0.26464 0.0
C1770 C 0.32942 0.92901 0.23825 0.0
C1771 C 0.27158 0.92166 0.2607 0.0
N1772 N 0.29459 0.9127 0.26521 0.0
C1773 C 0.35249 0.91974 0.24325 0.0
C1774 C 0.28863 0.93 0.24714 0.0
C1775 C 0.33436 0.91158 0.25683 0.0
C1776 C 0.37796 0.94793 0.28206 0.0
N1777 N 0.40023 0.93966 0.27266 0.0
C1778 C 0.405 0.93126 0.3108 0.0
C1779 C 0.41335 0.93131 0.28637 0.0
C1780 C 0.38223 0.93977 0.32104 0.0
C1781 C 0.36858 0.94816 0.30624 0.0
H1782 H 0.36667 0.95426 0.27055 0.0
H1783 H 0.42933 0.92457 0.27839 0.0
C1784 C 0.41315 0.91241 0.1814 0.0
N1785 N 0.37812 0.9179 0.18775 0.0
C1786 C 0.41059 0.90163 0.17495 0.0
C1787 C 0.33526 0.90266 0.17921 0.0
C1788 C 0.33941 0.91341 0.18606 0.0
C1789 C 0.37136 0.89648 0.17448 0.0
H1790 H 0.44346 0.91627 0.18271 0.0
H1791 H 0.31199 0.91801 0.19101 0.0
C1792 C 0.44442 0.9626 0.23176 0.0
N1793 N 0.50757 0.97725 0.24098 0.0
C1794 C 0.45597 0.97014 0.21452 0.0
C1795 C 0.46465 0.96264 0.25384 0.0
C1796 C 0.48809 0.97744 0.21946 0.0
C1797 C 0.49657 0.97008 0.25812 0.0
C1798 C 0.3648 0.94224 0.16126 0.0
C1799 C 0.37745 0.94237 0.13744 0.0
C1800 C 0.32263 0.94043 0.16682 0.0
C1801 C 0.34766 0.94075 0.11957 0.0
C1802 C 0.29381 0.93883 0.14844 0.0
N1803 N 0.30681 0.93902 0.1254 0.0
C1804 C 0.52849 0.94898 0.19639 0.0
C1805 C 0.48396 0.95467 0.16511 0.0
C1806 C 0.56388 0.95098 0.18243 0.0
N1807 N 0.48949 0.95056 0.1873 0.0
C1808 C 0.51838 0.95672 0.1505 0.0
C1809 C 0.55899 0.95455 0.15885 0.0
H1810 H 0.53232 0.9458 0.21407 0.0
H1811 H 0.45261 0.95595 0.15839 0.0
C1812 C 0.28848 0.96006 0.21467 0.0
N1813 N 0.32637 0.96125 0.20393 0.0
C1814 C 0.26494 0.96909 0.22086 0.0
C1815 C 0.31864 0.9803 0.20331 0.0
C1816 C 0.3408 0.97104 0.19715 0.0
C1817 C 0.28118 0.97936 0.21625 0.0
H1818 H 0.27821 0.95219 0.2202 0.0
H1819 H 0.37108 0.97173 0.18872 0.0
O1820 O 0.44242 0.93185 0.2192 0.0
O1821 O 0.34686 0.93721 0.22528 0.0
O1822 O 0.41305 0.95536 0.22723 0.0
O1823 O 0.39388 0.94371 0.17889 0.0
H1824 H 0.45279 0.91086 0.22554 0.0
H1825 H 0.49421 0.94211 0.24823 0.0
H1826 H 0.5032 0.90266 0.25362 0.0
H1827 H 0.54411 0.93337 0.27587 0.0
H1828 H 0.24006 0.92233 0.26767 0.0
H1829 H 0.38408 0.91884 0.23675 0.0
H1830 H 0.27028 0.93713 0.24375 0.0
H1831 H 0.35194 0.90436 0.26076 0.0
H1832 H 0.41623 0.92463 0.3215 0.0
H1833 H 0.34999 0.95474 0.31312 0.0
H1834 H 0.43944 0.89729 0.17177 0.0
H1835 H 0.30422 0.89916 0.17848 0.0
H1836 H 0.44096 0.97023 0.1973 0.0
H1837 H 0.456 0.95697 0.26754 0.0
H1838 H 0.49759 0.98323 0.20616 0.0
H1839 H 0.5126 0.97014 0.27508 0.0
H1840 H 0.41 0.94367 0.13279 0.0
H1841 H 0.31211 0.9402 0.18507 0.0
H1842 H 0.35704 0.94083 0.10107 0.0
H1843 H 0.26111 0.93742 0.15251 0.0
H1844 H 0.59466 0.94938 0.18975 0.0
H1845 H 0.51299 0.95938 0.13242 0.0
H1846 H 0.23621 0.96807 0.2309 0.0
H1847 H 0.33182 0.9881 0.19923 0.0
Li1848 Li 0.34388 0.80579 0.23732 0.0
Li1849 Li 0.36333 0.81496 0.2003 0.0
Li1850 Li 0.30936 0.80045 0.20015 0.0
Li1851 Li 0.38075 0.79618 0.20669 0.0
C1852 C 0.2773 0.81962 0.2296 0.0
N1853 N 0.21647 0.82969 0.25667 0.0
C1854 C 0.27525 0.83084 0.23044 0.0
C1855 C 0.24853 0.81355 0.24266 0.0
C1856 C 0.24425 0.83577 0.24419 0.0
C1857 C 0.21798 0.81878 0.2562 0.0
C1858 C 0.41892 0.81722 0.2375 0.0
C1859 C 0.47778 0.82519 0.25794 0.0
N1860 N 0.45368 0.83383 0.26357 0.0
C1861 C 0.39476 0.82618 0.24358 0.0
C1862 C 0.46078 0.81671 0.24481 0.0
C1863 C 0.41288 0.8345 0.25671 0.0
C1864 C 0.36767 0.79891 0.28063 0.0
N1865 N 0.34417 0.80689 0.27099 0.0
C1866 C 0.33548 0.81505 0.30917 0.0
C1867 C 0.32827 0.81495 0.2846 0.0
C1868 C 0.35968 0.80685 0.31962 0.0
C1869 C 0.37582 0.79872 0.30493 0.0
H1870 H 0.38091 0.79279 0.2692 0.0
H1871 H 0.31097 0.82143 0.27645 0.0
C1872 C 0.33794 0.83299 0.17691 0.0
N1873 N 0.37313 0.82862 0.18647 0.0
C1874 C 0.3371 0.84379 0.17053 0.0
C1875 C 0.41013 0.84516 0.18177 0.0
C1876 C 0.40941 0.83431 0.18824 0.0
C1877 C 0.37311 0.85008 0.17368 0.0
H1878 H 0.30964 0.82822 0.17568 0.0
H1879 H 0.43701 0.83062 0.19586 0.0
C1880 C 0.30018 0.78418 0.23001 0.0
N1881 N 0.23533 0.77002 0.23922 0.0
C1882 C 0.28789 0.7767 0.21279 0.0
C1883 C 0.27968 0.78436 0.25201 0.0
C1884 C 0.25498 0.76964 0.21776 0.0
C1885 C 0.24692 0.77716 0.25629 0.0
C1886 C 0.38676 0.79893 0.16235 0.0
C1887 C 0.38044 0.78918 0.15056 0.0
C1888 C 0.42426 0.80455 0.15909 0.0
C1889 C 0.41187 0.78521 0.13565 0.0
C1890 C 0.45491 0.80031 0.14402 0.0
N1891 N 0.44814 0.7908 0.13271 0.0
C1892 C 0.2215 0.79483 0.19424 0.0
C1893 C 0.26332 0.79616 0.1595 0.0
C1894 C 0.18585 0.79282 0.18046 0.0
N1895 N 0.25922 0.79656 0.18356 0.0
C1896 C 0.22872 0.7941 0.14512 0.0
C1897 C 0.18922 0.79256 0.15554 0.0
H1898 H 0.21883 0.7951 0.21336 0.0
H1899 H 0.29331 0.79775 0.15134 0.0
C1900 C 0.45918 0.78619 0.21393 0.0
N1901 N 0.42019 0.78484 0.20467 0.0
C1902 C 0.4828 0.77726 0.22079 0.0
C1903 C 0.42685 0.76578 0.20677 0.0
C1904 C 0.40455 0.77491 0.20005 0.0
C1905 C 0.46559 0.76693 0.2183 0.0
H1906 H 0.47047 0.79418 0.21777 0.0
H1907 H 0.37341 0.77407 0.19286 0.0
O1908 O 0.30771 0.81464 0.21638 0.0
O1909 O 0.40173 0.8089 0.22486 0.0
O1910 O 0.3326 0.79112 0.22556 0.0
O1911 O 0.35688 0.80285 0.1775 0.0
H1912 H 0.2975 0.83571 0.22072 0.0
H1913 H 0.25028 0.80491 0.24272 0.0
H1914 H 0.24234 0.84444 0.24498 0.0
H1915 H 0.19563 0.81416 0.26645 0.0
H1916 H 0.51013 0.82488 0.26369 0.0
H1917 H 0.36242 0.82675 0.2382 0.0
H1918 H 0.48001 0.80984 0.24047 0.0
H1919 H 0.39447 0.84147 0.26146 0.0
H1920 H 0.32237 0.82147 0.31983 0.0
H1921 H 0.39547 0.79239 0.31201 0.0
H1922 H 0.30809 0.84731 0.16423 0.0
H1923 H 0.43841 0.84981 0.18454 0.0
H1924 H 0.30278 0.77652 0.19552 0.0
H1925 H 0.28874 0.79002 0.26564 0.0
H1926 H 0.2449 0.7639 0.20448 0.0
H1927 H 0.23069 0.77727 0.2732 0.0
H1928 H 0.35178 0.78467 0.15312 0.0
H1929 H 0.42977 0.81206 0.16828 0.0
H1930 H 0.4075 0.77765 0.12647 0.0
H1931 H 0.48414 0.80455 0.14137 0.0
H1932 H 0.15591 0.79162 0.18918 0.0
H1933 H 0.23258 0.79418 0.12597 0.0
H1934 H 0.51258 0.77846 0.22967 0.0
H1935 H 0.41288 0.75793 0.20424 0.0
Li1936 Li 0.43498 0.80125 0.54191 0.0
Li1937 Li 0.36329 0.79573 0.53437 0.0
Li1938 Li 0.40195 0.80516 0.50356 0.0
Li1939 Li 0.37887 0.81462 0.53925 0.0
C1940 C 0.44764 0.78547 0.50754 0.0
N1941 N 0.51413 0.77451 0.48732 0.0
C1942 C 0.45061 0.77431 0.50986 0.0
C1943 C 0.47826 0.79102 0.49471 0.0
C1944 C 0.48452 0.76893 0.49958 0.0
C1945 C 0.51168 0.78535 0.48468 0.0
C1946 C 0.35396 0.80371 0.57989 0.0
C1947 C 0.28207 0.80753 0.59026 0.0
N1948 N 0.29099 0.80545 0.61347 0.0
C1949 C 0.36242 0.80162 0.60384 0.0
C1950 C 0.31346 0.8067 0.57302 0.0
C1951 C 0.33016 0.80254 0.62055 0.0
C1952 C 0.50279 0.80704 0.56926 0.0
N1953 N 0.48424 0.79832 0.55928 0.0
C1954 C 0.53125 0.78653 0.57962 0.0
C1955 C 0.49771 0.78818 0.56401 0.0
C1956 C 0.55047 0.79541 0.59058 0.0
C1957 C 0.53628 0.80577 0.58487 0.0
H1958 H 0.49074 0.81498 0.56555 0.0
H1959 H 0.48153 0.78138 0.55636 0.0
C1960 C 0.28663 0.78498 0.52843 0.0
N1961 N 0.32608 0.78411 0.53729 0.0
C1962 C 0.26411 0.77577 0.52243 0.0
C1963 C 0.3223 0.76499 0.53635 0.0
C1964 C 0.34345 0.77442 0.54233 0.0
C1965 C 0.28291 0.76565 0.52529 0.0
H1966 H 0.27406 0.7928 0.52425 0.0
H1967 H 0.37509 0.77403 0.54919 0.0
C1968 C 0.46375 0.82199 0.51612 0.0
N1969 N 0.52301 0.83658 0.50035 0.0
C1970 C 0.45248 0.83268 0.51176 0.0
C1971 C 0.50546 0.81882 0.51297 0.0
C1972 C 0.48281 0.8399 0.50366 0.0
C1973 C 0.53486 0.82628 0.50483 0.0
C1974 C 0.32339 0.81547 0.50069 0.0
C1975 C 0.34675 0.82357 0.48972 0.0
C1976 C 0.27987 0.81524 0.49767 0.0
C1977 C 0.32635 0.8313 0.47597 0.0
C1978 C 0.26055 0.82313 0.4838 0.0
N1979 N 0.28399 0.83093 0.47332 0.0
C1980 C 0.37717 0.79889 0.45971 0.0
C1981 C 0.42937 0.81239 0.45658 0.0
C1982 C 0.37124 0.79891 0.43521 0.0
N1983 N 0.40545 0.80562 0.46987 0.0
C1984 C 0.42457 0.81264 0.43181 0.0
C1985 C 0.39485 0.80589 0.42086 0.0
H1986 H 0.3582 0.79374 0.47088 0.0
H1987 H 0.4513 0.81775 0.46517 0.0
C1988 C 0.3963 0.83263 0.56551 0.0
N1989 N 0.36554 0.82833 0.55174 0.0
C1990 C 0.39591 0.84355 0.57103 0.0
C1991 C 0.33071 0.84524 0.54936 0.0
C1992 C 0.33198 0.83425 0.54462 0.0
C1993 C 0.36378 0.85003 0.56196 0.0
H1994 H 0.4227 0.82771 0.57076 0.0
H1995 H 0.30749 0.83063 0.5341 0.0
O1996 O 0.41467 0.79086 0.51762 0.0
O1997 O 0.38542 0.80287 0.56344 0.0
O1998 O 0.43455 0.81482 0.52439 0.0
O1999 O 0.34279 0.80778 0.51424 0.0
H2000 H 0.42708 0.76984 0.51955 0.0
H2001 H 0.4761 0.79959 0.49234 0.0
H2002 H 0.48728 0.7603 0.50134 0.0
H2003 H 0.53561 0.78957 0.47473 0.0
H2004 H 0.25061 0.80984 0.58519 0.0
H2005 H 0.39363 0.79932 0.60944 0.0
H2006 H 0.30622 0.80839 0.55462 0.0
H2007 H 0.33627 0.80094 0.63915 0.0
H2008 H 0.54097 0.77841 0.58374 0.0
H2009 H 0.55057 0.81285 0.59263 0.0
H2010 H 0.23388 0.77659 0.51384 0.0
H2011 H 0.33753 0.75731 0.53907 0.0
H2012 H 0.42074 0.83542 0.51471 0.0
H2013 H 0.51526 0.81071 0.51699 0.0
H2014 H 0.47442 0.84816 0.50012 0.0
H2015 H 0.56716 0.8239 0.50222 0.0
H2016 H 0.38029 0.82386 0.49172 0.0
H2017 H 0.26105 0.80909 0.50605 0.0
H2018 H 0.34419 0.8376 0.46741 0.0
H2019 H 0.22689 0.82305 0.48138 0.0
H2020 H 0.34742 0.79372 0.42769 0.0
H2021 H 0.44367 0.81809 0.42141 0.0
H2022 H 0.42205 0.84702 0.58064 0.0
H2023 H 0.30532 0.85005 0.54225 0.0
Li2024 Li 0.38391 0.95034 0.53542 0.0
Li2025 Li 0.31369 0.94523 0.54414 0.0
Li2026 Li 0.37131 0.93146 0.54024 0.0
Li2027 Li 0.34556 0.94126 0.50517 0.0
C2028 C 0.38931 0.94805 0.5802 0.0
N2029 N 0.44206 0.95899 0.61067 0.0
C2030 C 0.37467 0.95702 0.59261 0.0
C2031 C 0.43063 0.9446 0.58329 0.0
C2032 C 0.40188 0.96245 0.60794 0.0
C2033 C 0.45685 0.95025 0.59878 0.0
C2034 C 0.2989 0.96058 0.50937 0.0
C2035 C 0.2338 0.95999 0.48756 0.0
N2036 N 0.23093 0.97086 0.48904 0.0
C2037 C 0.29547 0.97176 0.51052 0.0
C2038 C 0.26796 0.95466 0.49767 0.0
C2039 C 0.26082 0.97681 0.5002 0.0
C2040 C 0.46109 0.96112 0.53005 0.0
N2041 N 0.42116 0.96203 0.5382 0.0
C2042 C 0.42468 0.98114 0.53634 0.0
C2043 C 0.40339 0.97176 0.54245 0.0
C2044 C 0.46456 0.98042 0.52589 0.0
C2045 C 0.48371 0.9703 0.52387 0.0
H2046 H 0.47405 0.95327 0.52655 0.0
H2047 H 0.37142 0.97219 0.54878 0.0
C2048 C 0.24738 0.93943 0.57275 0.0
N2049 N 0.26505 0.9481 0.56206 0.0
C2050 C 0.21385 0.94074 0.58834 0.0
C2051 C 0.21722 0.95992 0.58167 0.0
C2052 C 0.25083 0.95822 0.56613 0.0
C2053 C 0.19868 0.9511 0.59323 0.0
H2054 H 0.25999 0.9315 0.56949 0.0
H2055 H 0.26632 0.96499 0.5579 0.0
C2056 C 0.42424 0.93104 0.50084 0.0
N2057 N 0.46258 0.91583 0.47228 0.0
C2058 C 0.40047 0.92303 0.48984 0.0
C2059 C 0.46762 0.93133 0.49719 0.0
C2060 C 0.42035 0.91541 0.4755 0.0
C2061 C 0.48641 0.92356 0.48274 0.0
C2062 C 0.28509 0.92414 0.51887 0.0
C2063 C 0.2972 0.91355 0.51401 0.0
C2064 C 0.24277 0.92698 0.51704 0.0
C2065 C 0.26705 0.90611 0.50672 0.0
C2066 C 0.21357 0.9193 0.50968 0.0
N2067 N 0.22622 0.90912 0.50468 0.0
C2068 C 0.35533 0.91343 0.56667 0.0
C2069 C 0.41733 0.91159 0.54368 0.0
C2070 C 0.35547 0.90249 0.57197 0.0
N2071 N 0.38502 0.91765 0.55202 0.0
C2072 C 0.41823 0.90057 0.54816 0.0
C2073 C 0.38618 0.8959 0.56178 0.0
H2074 H 0.32983 0.91845 0.57283 0.0
H2075 H 0.44097 0.91512 0.5324 0.0
C2076 C 0.36838 0.94755 0.46107 0.0
N2077 N 0.34028 0.94088 0.47157 0.0
C2078 C 0.37299 0.94762 0.43648 0.0
C2079 C 0.3186 0.93413 0.43374 0.0
C2080 C 0.31521 0.93427 0.45858 0.0
C2081 C 0.34815 0.9408 0.42241 0.0
H2082 H 0.38825 0.95257 0.472 0.0
H2083 H 0.29341 0.92896 0.46747 0.0
O2084 O 0.36352 0.94277 0.56473 0.0
O2085 O 0.33264 0.95554 0.51951 0.0
O2086 O 0.4054 0.93865 0.51487 0.0
O2087 O 0.31412 0.93153 0.52639 0.0
H2088 H 0.34276 0.95979 0.59028 0.0
H2089 H 0.44237 0.93769 0.57367 0.0
H2090 H 0.39108 0.96943 0.61762 0.0
H2091 H 0.48899 0.94771 0.6013 0.0
H2092 H 0.20964 0.95548 0.47847 0.0
H2093 H 0.31923 0.97651 0.51932 0.0
H2094 H 0.27046 0.94606 0.4962 0.0
H2095 H 0.25771 0.98545 0.50105 0.0
H2096 H 0.40917 0.98882 0.53847 0.0
H2097 H 0.51437 0.96943 0.51579 0.0
H2098 H 0.20011 0.93371 0.59659 0.0
H2099 H 0.20674 0.96804 0.58516 0.0
H2100 H 0.36702 0.92272 0.49224 0.0
H2101 H 0.48671 0.93744 0.50549 0.0
H2102 H 0.40218 0.90918 0.46691 0.0
H2103 H 0.51994 0.92368 0.47984 0.0
H2104 H 0.32946 0.91104 0.51597 0.0
H2105 H 0.23236 0.935 0.52146 0.0
H2106 H 0.2761 0.89792 0.50281 0.0
H2107 H 0.1808 0.92143 0.50808 0.0
H2108 H 0.3301 0.8991 0.58238 0.0
H2109 H 0.44247 0.89567 0.54013 0.0
H2110 H 0.39678 0.95273 0.42867 0.0
H2111 H 0.29858 0.92881 0.42357 0.0
Li2112 Li 0.60883 0.56515 0.28742 0.0
Li2113 Li 0.55042 0.55242 0.28705 0.0
Li2114 Li 0.62506 0.54654 0.27825 0.0
Li2115 Li 0.58674 0.55772 0.25094 0.0
C2116 C 0.61906 0.55568 0.32881 0.0
N2117 N 0.65563 0.5633 0.37 0.0
C2118 C 0.59406 0.5585 0.34825 0.0
C2119 C 0.66262 0.55666 0.33031 0.0
C2120 C 0.61317 0.56235 0.36893 0.0
C2121 C 0.68052 0.56056 0.35129 0.0
C2122 C 0.53669 0.57388 0.25665 0.0
C2123 C 0.48668 0.57809 0.22582 0.0
N2124 N 0.50508 0.58786 0.22291 0.0
C2125 C 0.555 0.58397 0.25339 0.0
C2126 C 0.50213 0.57092 0.24281 0.0
C2127 C 0.53859 0.59092 0.23625 0.0
C2128 C 0.65672 0.58399 0.29214 0.0
N2129 N 0.62469 0.57827 0.3018 0.0
C2130 C 0.60004 0.59371 0.32282 0.0
C2131 C 0.59726 0.58279 0.3174 0.0
C2132 C 0.63066 0.6 0.31156 0.0
C2133 C 0.66028 0.59496 0.2968 0.0
H2134 H 0.67717 0.58026 0.27924 0.0
H2135 H 0.5711 0.57814 0.32402 0.0
C2136 C 0.50152 0.54082 0.31966 0.0
N2137 N 0.50075 0.54883 0.30324 0.0
C2138 C 0.46732 0.53927 0.33481 0.0
C2139 C 0.43173 0.55391 0.31496 0.0
C2140 C 0.46664 0.55522 0.30036 0.0
C2141 C 0.43233 0.54608 0.33299 0.0
H2142 H 0.52952 0.53601 0.32174 0.0
H2143 H 0.46724 0.56162 0.28739 0.0
C2144 C 0.67394 0.55668 0.2448 0.0
N2145 N 0.73043 0.55067 0.2099 0.0
C2146 C 0.66459 0.5482 0.22938 0.0
C2147 C 0.71207 0.56211 0.24242 0.0
C2148 C 0.69351 0.54528 0.21187 0.0
C2149 C 0.74022 0.55895 0.22468 0.0
C2150 C 0.54769 0.53694 0.24661 0.0
C2151 C 0.56605 0.52883 0.23287 0.0
C2152 C 0.50437 0.53858 0.24543 0.0
C2153 C 0.54084 0.52263 0.21788 0.0
C2154 C 0.48024 0.53221 0.23023 0.0
N2155 N 0.49882 0.52444 0.21687 0.0
C2156 C 0.64003 0.52481 0.27947 0.0
C2157 C 0.70226 0.53496 0.27433 0.0
C2158 C 0.66052 0.51545 0.27242 0.0
N2159 N 0.66056 0.53436 0.27916 0.0
C2160 C 0.72392 0.52581 0.26686 0.0
C2161 C 0.70244 0.51598 0.26478 0.0
H2162 H 0.60684 0.52459 0.28343 0.0
H2163 H 0.7179 0.54266 0.27435 0.0
C2164 C 0.60881 0.56942 0.21119 0.0
N2165 N 0.58327 0.56119 0.21776 0.0
C2166 C 0.61671 0.57144 0.18724 0.0
C2167 C 0.56878 0.55712 0.17706 0.0
C2168 C 0.56215 0.5553 0.20128 0.0
C2169 C 0.59757 0.56502 0.16989 0.0
H2170 H 0.62497 0.57405 0.22465 0.0
H2171 H 0.54165 0.54888 0.20673 0.0
O2172 O 0.60098 0.55208 0.30829 0.0
O2173 O 0.5529 0.56686 0.273 0.0
O2174 O 0.64592 0.55977 0.262 0.0
O2175 O 0.57178 0.543 0.26164 0.0
H2176 H 0.56026 0.55779 0.3473 0.0
H2177 H 0.68232 0.55453 0.31533 0.0
H2178 H 0.59424 0.56461 0.3841 0.0
H2179 H 0.71419 0.56141 0.3527 0.0
H2180 H 0.46013 0.57587 0.21489 0.0
H2181 H 0.58181 0.58641 0.26381 0.0
H2182 H 0.48768 0.56313 0.24492 0.0
H2183 H 0.55258 0.59874 0.2335 0.0
H2184 H 0.57629 0.59736 0.33399 0.0
H2185 H 0.68423 0.5996 0.28776 0.0
H2186 H 0.46926 0.53323 0.34863 0.0
H2187 H 0.40515 0.55923 0.31273 0.0
H2188 H 0.6353 0.54394 0.23086 0.0
H2189 H 0.71993 0.56869 0.25417 0.0
H2190 H 0.68658 0.53873 0.19984 0.0
H2191 H 0.76985 0.56309 0.22267 0.0
H2192 H 0.59941 0.52731 0.23373 0.0
H2193 H 0.48951 0.54471 0.25605 0.0
H2194 H 0.55468 0.51637 0.2071 0.0
H2195 H 0.44672 0.53343 0.22907 0.0
H2196 H 0.64306 0.50799 0.27181 0.0
H2197 H 0.75621 0.52662 0.2612 0.0
H2198 H 0.63865 0.57771 0.18236 0.0
H2199 H 0.55343 0.552 0.16414 0.0
Li2200 Li 0.69288 0.69378 0.28718 0.0
Li2201 Li 0.63463 0.68101 0.28727 0.0
Li2202 Li 0.65731 0.68845 0.25093 0.0
Li2203 Li 0.61843 0.69962 0.27802 0.0
C2204 C 0.70762 0.67236 0.25691 0.0
N2205 N 0.74042 0.65842 0.22342 0.0
C2206 C 0.68973 0.66221 0.25358 0.0
C2207 C 0.74236 0.67538 0.24328 0.0
C2208 C 0.70675 0.65529 0.23656 0.0
C2209 C 0.75841 0.66824 0.22641 0.0
C2210 C 0.62364 0.69046 0.3286 0.0
C2211 C 0.5619 0.68549 0.35076 0.0
N2212 N 0.58652 0.6828 0.3696 0.0
C2213 C 0.64836 0.68771 0.34818 0.0
C2214 C 0.58008 0.6894 0.32986 0.0
C2215 C 0.62898 0.68383 0.36876 0.0
C2216 C 0.74076 0.70544 0.32003 0.0
N2217 N 0.74207 0.69742 0.30364 0.0
C2218 C 0.81066 0.69234 0.31604 0.0
C2219 C 0.77626 0.69104 0.30108 0.0
C2220 C 0.80942 0.70016 0.33407 0.0
C2221 C 0.77443 0.70698 0.33554 0.0
H2222 H 0.71268 0.71025 0.32185 0.0
H2223 H 0.77606 0.68463 0.28812 0.0
C2224 C 0.58715 0.66208 0.29163 0.0
N2225 N 0.61876 0.66786 0.30154 0.0
C2226 C 0.58375 0.65111 0.29628 0.0
C2227 C 0.64325 0.65248 0.3228 0.0
C2228 C 0.6459 0.6634 0.31736 0.0
C2229 C 0.61309 0.64614 0.31131 0.0
H2230 H 0.56696 0.66577 0.27854 0.0
H2231 H 0.67177 0.6681 0.32418 0.0
C2232 C 0.69607 0.70931 0.24682 0.0
N2233 N 0.74504 0.72195 0.21743 0.0
C2234 C 0.6777 0.71743 0.23313 0.0
C2235 C 0.73944 0.70774 0.24579 0.0
C2236 C 0.70297 0.7237 0.21831 0.0
C2237 C 0.76363 0.71418 0.23076 0.0
C2238 C 0.57019 0.68944 0.24431 0.0
C2239 C 0.5797 0.69792 0.22892 0.0
C2240 C 0.53225 0.68394 0.24168 0.0
C2241 C 0.55114 0.70077 0.21119 0.0
C2242 C 0.50445 0.68704 0.22373 0.0
N2243 N 0.5144 0.69532 0.20898 0.0
C2244 C 0.63611 0.6767 0.21118 0.0
C2245 C 0.68253 0.69091 0.20139 0.0
C2246 C 0.62843 0.67468 0.18722 0.0
N2247 N 0.66139 0.68498 0.21781 0.0
C2248 C 0.67615 0.68907 0.17715 0.0
C2249 C 0.64757 0.68114 0.16993 0.0
H2250 H 0.61992 0.67206 0.2246 0.0
H2251 H 0.7028 0.69736 0.2069 0.0
C2252 C 0.60385 0.72136 0.27997 0.0
N2253 N 0.58313 0.71184 0.27888 0.0
C2254 C 0.58379 0.73083 0.27329 0.0
C2255 C 0.52044 0.72063 0.26636 0.0
C2256 C 0.54163 0.71136 0.27351 0.0
C2257 C 0.54214 0.73046 0.26519 0.0
H2258 H 0.63688 0.72147 0.28433 0.0
H2259 H 0.52581 0.70369 0.27292 0.0
O2260 O 0.69085 0.67934 0.27315 0.0
O2261 O 0.642 0.69409 0.30817 0.0
O2262 O 0.67191 0.70318 0.26168 0.0
O2263 O 0.59794 0.68637 0.26165 0.0
H2264 H 0.66281 0.65972 0.26384 0.0
H2265 H 0.75649 0.6832 0.24546 0.0
H2266 H 0.6931 0.64744 0.23375 0.0
H2267 H 0.7851 0.67051 0.21564 0.0
H2268 H 0.52823 0.68457 0.35198 0.0
H2269 H 0.68215 0.68848 0.34741 0.0
H2270 H 0.5606 0.6915 0.31478 0.0
H2271 H 0.64769 0.68161 0.38404 0.0
H2272 H 0.83729 0.68702 0.3141 0.0
H2273 H 0.77205 0.71302 0.34934 0.0
H2274 H 0.56017 0.64643 0.28706 0.0
H2275 H 0.66678 0.64888 0.33417 0.0
H2276 H 0.6443 0.7189 0.23389 0.0
H2277 H 0.7543 0.7016 0.25642 0.0
H2278 H 0.68913 0.72997 0.20756 0.0
H2279 H 0.79719 0.71301 0.22972 0.0
H2280 H 0.60888 0.70222 0.23059 0.0
H2281 H 0.52429 0.67735 0.25339 0.0
H2282 H 0.55821 0.70731 0.19918 0.0
H2283 H 0.47498 0.68285 0.22151 0.0
H2284 H 0.60662 0.6684 0.18228 0.0
H2285 H 0.69148 0.69422 0.16427 0.0
H2286 H 0.60141 0.73827 0.27338 0.0
H2287 H 0.48835 0.71992 0.26029 0.0
Li2288 Li 0.62985 0.69938 0.96367 0.0
Li2289 Li 0.5896 0.68833 0.99039 0.0
Li2290 Li 0.61275 0.68086 0.95415 0.0
Li2291 Li 0.55519 0.69381 0.95386 0.0
C2292 C 0.67654 0.68896 -0.00227 0.0
N2293 N 0.73165 0.69454 0.03364 0.0
C2294 C 0.66715 0.69746 0.01308 0.0
C2295 C 0.714 0.68328 0.0007 0.0
C2296 C 0.69536 0.70016 0.03111 0.0
C2297 C 0.74146 0.68624 0.01894 0.0
C2298 C 0.55192 0.70932 0.99429 0.0
C2299 C 0.48428 0.71441 0.00989 0.0
N2300 N 0.50297 0.7221 0.0234 0.0
C2301 C 0.57041 0.71736 0.00818 0.0
C2302 C 0.50846 0.7079 0.995 0.0
C2303 C 0.54515 0.7237 0.02284 0.0
C2304 C 0.64608 0.72105 0.96229 0.0
N2305 N 0.6661 0.71144 0.96333 0.0
C2306 C 0.72888 0.71987 0.97692 0.0
C2307 C 0.70738 0.71074 0.96915 0.0
C2308 C 0.70775 0.72977 0.97824 0.0
C2309 C 0.66649 0.73038 0.96956 0.0
H2310 H 0.61322 0.72134 0.95755 0.0
H2311 H 0.72267 0.703 0.96966 0.0
C2312 C 0.60918 0.67648 0.03024 0.0
N2313 N 0.58459 0.68486 0.02348 0.0
C2314 C 0.61653 0.67447 0.05424 0.0
C2315 C 0.56977 0.68909 0.06405 0.0
C2316 C 0.56371 0.69091 0.03978 0.0
C2317 C 0.59776 0.68105 0.07142 0.0
H2318 H 0.62519 0.67174 0.0169 0.0
H2319 H 0.54398 0.69745 0.03417 0.0
C2320 C 0.62488 0.69026 0.91291 0.0
N2321 N 0.66177 0.68237 0.87205 0.0
C2322 C 0.60013 0.6876 0.89327 0.0
C2323 C 0.66836 0.68899 0.91177 0.0
C2324 C 0.6194 0.6836 0.87276 0.0
C2325 C 0.68642 0.68496 0.89095 0.0
C2326 C 0.53877 0.6724 0.98395 0.0
C2327 C 0.55595 0.66217 0.9872 0.0
C2328 C 0.5041 0.67553 -0.00248 0.0
C2329 C 0.53829 0.65527 0.00406 0.0
C2330 C 0.4874 0.66841 0.01423 0.0
N2331 N 0.5047 0.65851 0.01713 0.0
C2332 C 0.65952 0.66182 0.94988 0.0
C2333 C 0.60109 0.66329 0.92396 0.0
C2334 C 0.66256 0.65084 0.94519 0.0
N2335 N 0.62824 0.66768 0.93989 0.0
C2336 C 0.60339 0.65238 0.91848 0.0
C2337 C 0.6332 0.64595 0.93003 0.0
H2338 H 0.67973 0.66545 0.96304 0.0
H2339 H 0.57547 0.66806 0.91708 0.0
C2340 C 0.50772 0.70553 0.92066 0.0
N2341 N 0.50629 0.69754 0.93713 0.0
C2342 C 0.47405 0.70707 0.90514 0.0
C2343 C 0.43764 0.69249 0.92474 0.0
C2344 C 0.47201 0.69119 0.93971 0.0
C2345 C 0.43896 0.70028 0.90666 0.0
H2346 H 0.53586 0.71031 0.91881 0.0
H2347 H 0.47209 0.6848 0.95272 0.0
O2348 O 0.64908 0.68603 0.98011 0.0
O2349 O 0.57609 0.70312 0.97957 0.0
O2350 O 0.60661 0.694 0.93327 0.0
O2351 O 0.55617 0.67935 0.96787 0.0
H2352 H 0.63835 0.7019 0.01116 0.0
H2353 H 0.72185 0.67667 0.98904 0.0
H2354 H 0.68839 0.70673 0.04309 0.0
H2355 H 0.77056 0.68192 0.02142 0.0
H2356 H 0.45063 0.71335 0.01068 0.0
H2357 H 0.60391 0.71871 0.00768 0.0
H2358 H 0.49352 0.70183 0.98423 0.0
H2359 H 0.55908 0.72991 0.03374 0.0
H2360 H 0.76068 0.71898 0.98337 0.0
H2361 H 0.64936 0.73789 0.96951 0.0
H2362 H 0.63787 0.6681 0.05929 0.0
H2363 H 0.55474 0.69434 0.07686 0.0
H2364 H 0.56639 0.68853 0.89394 0.0
H2365 H 0.68786 0.691 0.9269 0.0
H2366 H 0.60066 0.68145 0.85744 0.0
H2367 H 0.72003 0.68388 0.88983 0.0
H2368 H 0.58281 0.65958 0.97699 0.0
H2369 H 0.49053 0.68342 0.99542 0.0
H2370 H 0.55139 0.64735 0.0068 0.0
H2371 H 0.46076 0.67077 0.02495 0.0
H2372 H 0.68587 0.64609 0.95446 0.0
H2373 H 0.57985 0.64884 0.907 0.0
H2374 H 0.47648 0.71309 0.8913 0.0
H2375 H 0.41093 0.68719 0.92672 0.0
Li2376 Li 0.65873 0.55767 0.99036 0.0
Li2377 Li 0.62032 0.54647 0.96319 0.0
Li2378 Li 0.69495 0.55232 0.95425 0.0
Li2379 Li 0.63657 0.56504 0.95384 0.0
C2380 C 0.69802 0.53697 0.99489 0.0
N2381 N 0.74738 0.5247 0.02482 0.0
C2382 C 0.67992 0.52893 0.00892 0.0
C2383 C 0.74132 0.53866 -0.00411 0.0
C2384 C 0.70538 0.52284 0.02399 0.0
C2385 C 0.76571 0.53241 0.01119 0.0
C2386 C 0.57158 0.55665 -0.00342 0.0
C2387 C 0.50535 0.55895 0.01674 0.0
N2388 N 0.51515 0.55068 0.03154 0.0
C2389 C 0.58094 0.54818 0.01202 0.0
C2390 C 0.53347 0.56209 -0.00102 0.0
C2391 C 0.55205 0.54528 0.02956 0.0
C2392 C 0.6366 0.56941 0.03008 0.0
N2393 N 0.66227 0.5612 0.02353 0.0
C2394 C 0.67695 0.5572 0.06424 0.0
C2395 C 0.68358 0.55536 0.04002 0.0
C2396 C 0.64798 0.56505 0.07139 0.0
C2397 C 0.62869 0.57143 0.05403 0.0
H2398 H 0.62033 0.57401 0.01662 0.0
H2399 H 0.70424 0.54898 0.03459 0.0
C2400 C 0.60466 0.52475 0.96308 0.0
N2401 N 0.58448 0.53435 0.96254 0.0
C2402 C 0.58366 0.51555 0.97064 0.0
C2403 C 0.52046 0.52612 0.97483 0.0
C2404 C 0.54266 0.53511 0.96694 0.0
C2405 C 0.54157 0.51629 0.97784 0.0
H2406 H 0.63795 0.52441 0.95945 0.0
H2407 H 0.52733 0.54285 0.96628 0.0
C2408 C 0.70864 0.57384 0.98451 0.0
N2409 N 0.74007 0.58791 0.01812 0.0
C2410 C 0.69014 0.58392 0.98771 0.0
C2411 C 0.74328 0.57095 -0.00166 0.0
C2412 C 0.70647 0.59091 0.0048 0.0
C2413 C 0.75864 0.57816 0.01527 0.0
C2414 C 0.62645 0.55557 0.91251 0.0
C2415 C 0.65165 0.55837 0.89314 0.0
C2416 C 0.58291 0.5566 0.91091 0.0
C2417 C 0.63276 0.56226 0.87244 0.0
C2418 C 0.56524 0.56052 0.8899 0.0
N2419 N 0.59032 0.56326 0.87127 0.0
C2420 C 0.74406 0.54073 0.92162 0.0
C2421 C 0.7786 0.5552 0.94086 0.0
C2422 C 0.77831 0.53922 0.90648 0.0
N2423 N 0.74464 0.54876 0.93801 0.0
C2424 C 0.81355 0.55393 0.92628 0.0
C2425 C 0.81315 0.54609 0.90829 0.0
H2426 H 0.71617 0.53587 0.91955 0.0
H2427 H 0.77786 0.56161 0.9538 0.0
C2428 C 0.58847 0.58383 0.94882 0.0
N2429 N 0.62071 0.57813 0.93934 0.0
C2430 C 0.58489 0.5948 0.94412 0.0
C2431 C 0.64555 0.59356 0.9184 0.0
C2432 C 0.64832 0.58265 0.92386 0.0
C2433 C 0.61472 0.59984 0.9295 0.0
H2434 H 0.56785 0.5801 0.96164 0.0
H2435 H 0.67463 0.57801 0.91739 0.0
O2436 O 0.67368 0.54292 0.97977 0.0
O2437 O 0.59954 0.55972 0.97933 0.0
O2438 O 0.69251 0.56678 0.96822 0.0
O2439 O 0.64432 0.55192 0.93306 0.0
H2440 H 0.64658 0.52737 0.00824 0.0
H2441 H 0.75599 0.54476 0.98507 0.0
H2442 H 0.69174 0.51663 0.035 0.0
H2443 H 0.79922 0.53367 0.0122 0.0
H2444 H 0.47574 0.56309 0.01877 0.0
H2445 H 0.61021 0.54391 0.01052 0.0
H2446 H 0.52559 0.56866 0.98721 0.0
H2447 H 0.55899 0.53874 0.0416 0.0
H2448 H 0.69244 0.55211 0.07717 0.0
H2449 H 0.60662 0.57767 0.0589 0.0
H2450 H 0.60084 0.50808 0.97201 0.0
H2451 H 0.48802 0.52707 0.98012 0.0
H2452 H 0.66325 0.58631 0.97732 0.0
H2453 H 0.75786 0.56318 -0.00373 0.0
H2454 H 0.69234 0.59872 0.00751 0.0
H2455 H 0.78526 0.576 0.02619 0.0
H2456 H 0.68543 0.55762 0.89418 0.0
H2457 H 0.56307 0.55447 0.92583 0.0
H2458 H 0.65184 0.56451 0.85732 0.0
H2459 H 0.5316 0.56142 0.88842 0.0
H2460 H 0.77653 0.53316 0.89269 0.0
H2461 H 0.84002 0.55929 0.9285 0.0
H2462 H 0.56078 0.59943 0.95303 0.0
H2463 H 0.66945 0.59722 0.90735 0.0
Li2464 Li 0.40154 0.44017 0.73756 0.0
Li2465 Li 0.38833 0.43135 0.70007 0.0
Li2466 Li 0.44087 0.44546 0.70246 0.0
Li2467 Li 0.36759 0.45012 0.7055 0.0
C2468 C 0.46815 0.42648 0.73433 0.0
N2469 N 0.52142 0.4168 0.76671 0.0
C2470 C 0.4681 0.41531 0.73705 0.0
C2471 C 0.49546 0.43269 0.74806 0.0
C2472 C 0.49522 0.41057 0.75351 0.0
C2473 C 0.52211 0.42767 0.76432 0.0
C2474 C 0.32594 0.42879 0.73372 0.0
C2475 C 0.26259 0.42018 0.7475 0.0
N2476 N 0.28572 0.41179 0.75572 0.0
C2477 C 0.34894 0.42004 0.74217 0.0
C2478 C 0.28232 0.42883 0.73628 0.0
C2479 C 0.32813 0.41154 0.75329 0.0
C2480 C 0.37622 0.44792 0.78023 0.0
N2481 N 0.39725 0.43935 0.77122 0.0
C2482 C 0.40118 0.43133 0.80977 0.0
C2483 C 0.40953 0.43106 0.78535 0.0
C2484 C 0.37981 0.44016 0.81956 0.0
C2485 C 0.36731 0.44853 0.80443 0.0
H2486 H 0.36589 0.45426 0.76843 0.0
H2487 H 0.425 0.42416 0.77776 0.0
C2488 C 0.41241 0.412 0.6805 0.0
N2489 N 0.3777 0.41787 0.68565 0.0
C2490 C 0.40874 0.40126 0.67384 0.0
C2491 C 0.33334 0.40308 0.67576 0.0
C2492 C 0.33854 0.41378 0.68275 0.0
C2493 C 0.36881 0.39654 0.67206 0.0
H2494 H 0.44315 0.41552 0.68283 0.0
H2495 H 0.31142 0.41866 0.68678 0.0
C2496 C 0.44425 0.46215 0.73216 0.0
N2497 N 0.50541 0.47701 0.74379 0.0
C2498 C 0.45414 0.47047 0.71642 0.0
C2499 C 0.46508 0.46151 0.754 0.0
C2500 C 0.48528 0.47786 0.72255 0.0
C2501 C 0.496 0.46906 0.75951 0.0
C2502 C 0.36913 0.44269 0.65907 0.0
C2503 C 0.38408 0.44326 0.63573 0.0
C2504 C 0.32641 0.44095 0.66318 0.0
C2505 C 0.356 0.44206 0.61683 0.0
C2506 C 0.29935 0.43979 0.64381 0.0
N2507 N 0.31458 0.44036 0.62123 0.0
C2508 C 0.52893 0.4452 0.69293 0.0
C2509 C 0.48734 0.45646 0.66846 0.0
C2510 C 0.56364 0.44684 0.67827 0.0
N2511 N 0.49155 0.44984 0.68755 0.0
C2512 C 0.52126 0.45833 0.65331 0.0
C2513 C 0.55962 0.45319 0.65772 0.0
H2514 H 0.53138 0.43972 0.70769 0.0
H2515 H 0.45693 0.4598 0.66423 0.0
C2516 C 0.29247 0.46061 0.71466 0.0
N2517 N 0.32877 0.46147 0.70217 0.0
C2518 C 0.26947 0.46977 0.72038 0.0
C2519 C 0.32074 0.48048 0.6993 0.0
C2520 C 0.34227 0.47106 0.69354 0.0
C2521 C 0.28477 0.47989 0.71365 0.0
H2522 H 0.28333 0.45295 0.72197 0.0
H2523 H 0.37146 0.47149 0.68384 0.0
O2524 O 0.44146 0.43128 0.71844 0.0
O2525 O 0.34572 0.43715 0.72248 0.0
O2526 O 0.41371 0.45485 0.72646 0.0
O2527 O 0.39649 0.44376 0.67766 0.0
H2528 H 0.44713 0.41032 0.72673 0.0
H2529 H 0.49625 0.44131 0.74607 0.0
H2530 H 0.49535 0.40195 0.75583 0.0
H2531 H 0.54335 0.4324 0.77505 0.0
H2532 H 0.22887 0.42012 0.74961 0.0
H2533 H 0.38247 0.41977 0.74006 0.0
H2534 H 0.26372 0.43541 0.72953 0.0
H2535 H 0.34569 0.40474 0.75992 0.0
H2536 H 0.41144 0.42472 0.82085 0.0
H2537 H 0.35007 0.45539 0.81113 0.0
H2538 H 0.43708 0.3966 0.67151 0.0
H2539 H 0.30189 0.3999 0.67407 0.0
H2540 H 0.43831 0.47117 0.69952 0.0
H2541 H 0.45763 0.45524 0.76661 0.0
H2542 H 0.49343 0.48428 0.71042 0.0
H2543 H 0.51248 0.46861 0.7763 0.0
H2544 H 0.41708 0.44459 0.63227 0.0
H2545 H 0.31415 0.44047 0.68107 0.0
H2546 H 0.36715 0.44248 0.59867 0.0
H2547 H 0.26625 0.43842 0.64672 0.0
H2548 H 0.5928 0.44278 0.68235 0.0
H2549 H 0.51667 0.46315 0.63749 0.0
H2550 H 0.24209 0.46903 0.73168 0.0
H2551 H 0.33325 0.48817 0.69373 0.0
Li2552 Li 0.35598 0.31537 0.70019 0.0
Li2553 Li 0.34129 0.30681 0.73802 0.0
Li2554 Li 0.37996 0.29701 0.70731 0.0
Li2555 Li 0.30658 0.30051 0.70218 0.0
C2556 C 0.41435 0.31911 0.73586 0.0
N2557 N 0.44852 0.33667 0.75895 0.0
C2558 C 0.38894 0.32775 0.74248 0.0
C2559 C 0.45727 0.31944 0.74088 0.0
C2560 C 0.40673 0.33654 0.75416 0.0
C2561 C 0.47393 0.32837 0.75259 0.0
C2562 C 0.27256 0.31971 0.7315 0.0
C2563 C 0.21791 0.31875 0.76115 0.0
N2564 N 0.21434 0.32963 0.76064 0.0
C2565 C 0.26846 0.3309 0.73138 0.0
C2566 C 0.2472 0.3136 0.7466 0.0
C2567 C 0.23882 0.33576 0.7462 0.0
C2568 C 0.32844 0.33333 0.67647 0.0
N2569 N 0.36412 0.32883 0.68512 0.0
C2570 C 0.40217 0.34506 0.67829 0.0
C2571 C 0.40107 0.33428 0.68527 0.0
C2572 C 0.36487 0.35017 0.67124 0.0
C2573 C 0.32802 0.34407 0.66953 0.0
H2574 H 0.29964 0.32874 0.67639 0.0
H2575 H 0.4291 0.33047 0.69204 0.0
C2576 C 0.36479 0.30017 0.78186 0.0
N2577 N 0.34246 0.30824 0.77169 0.0
C2578 C 0.37254 0.30017 0.80622 0.0
C2579 C 0.3344 0.31688 0.80941 0.0
C2580 C 0.32757 0.31659 0.78483 0.0
C2581 C 0.35722 0.30858 0.8204 0.0
H2582 H 0.37733 0.29381 0.77084 0.0
H2583 H 0.31126 0.32314 0.77629 0.0
C2584 C 0.38218 0.30411 0.66086 0.0
N2585 N 0.44134 0.30732 0.62558 0.0
C2586 C 0.37048 0.30376 0.63691 0.0
C2587 C 0.424 0.30616 0.66686 0.0
C2588 C 0.40084 0.30538 0.61934 0.0
C2589 C 0.45342 0.30775 0.64877 0.0
C2590 C 0.30361 0.28418 0.73174 0.0
C2591 C 0.29553 0.27624 0.71477 0.0
C2592 C 0.28132 0.28417 0.75316 0.0
C2593 C 0.26475 0.26852 0.71934 0.0
C2594 C 0.25082 0.27631 0.75708 0.0
N2595 N 0.2432 0.26872 0.74022 0.0
C2596 C 0.45548 0.28716 0.71948 0.0
C2597 C 0.40966 0.27642 0.69626 0.0
C2598 C 0.47899 0.27816 0.72578 0.0
N2599 N 0.42088 0.28607 0.70559 0.0
C2600 C 0.43171 0.26716 0.70255 0.0
C2601 C 0.46587 0.26797 0.71819 0.0
H2602 H 0.46273 0.29486 0.72729 0.0
H2603 H 0.38169 0.2758 0.68551 0.0
C2604 C 0.2183 0.29604 0.69675 0.0
N2605 N 0.25716 0.29524 0.68697 0.0
C2606 C 0.18278 0.29379 0.6831 0.0
C2607 C 0.22801 0.28928 0.65008 0.0
C2608 C 0.26258 0.29156 0.6644 0.0
C2609 C 0.18738 0.29077 0.65913 0.0
H2610 H 0.2146 0.2988 0.71479 0.0
H2611 H 0.29383 0.29084 0.65715 0.0
O2612 O 0.39763 0.31042 0.72426 0.0
O2613 O 0.30163 0.31482 0.71718 0.0
O2614 O 0.35247 0.30268 0.67819 0.0
O2615 O 0.3335 0.29185 0.72753 0.0
H2616 H 0.35588 0.32772 0.73853 0.0
H2617 H 0.47765 0.31291 0.73569 0.0
H2618 H 0.38732 0.34327 0.75936 0.0
H2619 H 0.50708 0.32872 0.75659 0.0
H2620 H 0.19819 0.3141 0.77295 0.0
H2621 H 0.28811 0.33581 0.7201 0.0
H2622 H 0.25059 0.30499 0.7474 0.0
H2623 H 0.23537 0.3444 0.74626 0.0
H2624 H 0.43119 0.34952 0.67992 0.0
H2625 H 0.29878 0.3477 0.66392 0.0
H2626 H 0.39118 0.29374 0.81374 0.0
H2627 H 0.32195 0.32352 0.81966 0.0
H2628 H 0.33821 0.3023 0.63191 0.0
H2629 H 0.43386 0.30656 0.6852 0.0
H2630 H 0.39218 0.30512 0.60074 0.0
H2631 H 0.48586 0.30933 0.65317 0.0
H2632 H 0.31221 0.27615 0.69804 0.0
H2633 H 0.28738 0.29016 0.76665 0.0
H2634 H 0.25791 0.2624 0.70624 0.0
H2635 H 0.23322 0.27624 0.77354 0.0
H2636 H 0.50494 0.27904 0.73806 0.0
H2637 H 0.4209 0.25941 0.69632 0.0
H2638 H 0.15203 0.29483 0.69095 0.0
H2639 H 0.23317 0.28703 0.6317 0.0
Li2640 Li 0.36485 0.29633 0.03456 0.0
Li2641 Li 0.43712 0.30155 0.04146 0.0
Li2642 Li 0.38187 0.31507 0.0416 0.0
Li2643 Li 0.40238 0.30662 0.00441 0.0
C2644 C 0.35852 0.30324 0.08123 0.0
N2645 N 0.2979 0.3045 0.11627 0.0
C2646 C 0.36925 0.30157 0.10504 0.0
C2647 C 0.31693 0.30555 0.07522 0.0
C2648 C 0.33815 0.30224 0.1225 0.0
C2649 C 0.28675 0.30615 0.0932 0.0
C2650 C 0.44634 0.28566 0.00716 0.0
C2651 C 0.5061 0.28314 0.98138 0.0
N2652 N 0.5091 0.27277 0.98875 0.0
C2653 C 0.44974 0.27493 0.01423 0.0
C2654 C 0.47449 0.28976 0.99039 0.0
C2655 C 0.48178 0.26856 0.00483 0.0
C2656 C 0.28999 0.2857 0.02449 0.0
N2657 N 0.32693 0.28477 0.03631 0.0
C2658 C 0.32018 0.2657 0.03777 0.0
C2659 C 0.34148 0.27511 0.04389 0.0
C2660 C 0.28338 0.26639 0.02415 0.0
C2661 C 0.26724 0.27654 0.01843 0.0
H2662 H 0.27991 0.29345 0.01813 0.0
H2663 H 0.37121 0.27466 0.05307 0.0
C2664 C 0.50938 0.30667 0.06579 0.0
N2665 N 0.48683 0.29809 0.0581 0.0
C2666 C 0.54266 0.30524 0.08146 0.0
C2667 C 0.52924 0.28612 0.08106 0.0
C2668 C 0.49605 0.28793 0.06529 0.0
C2669 C 0.55237 0.2949 0.08974 0.0
H2670 H 0.50041 0.31469 0.06052 0.0
H2671 H 0.47647 0.28131 0.05973 0.0
C2672 C 0.32477 0.31737 0.00489 0.0
N2673 N 0.2856 0.3342 0.98173 0.0
C2674 C 0.3484 0.32578 0.99537 0.0
C2675 C 0.28109 0.31755 0.00267 0.0
C2676 C 0.32809 0.33421 0.98371 0.0
C2677 C 0.2619 0.32612 0.99089 0.0
C2678 C 0.4682 0.32132 0.01467 0.0
C2679 C 0.46324 0.33229 0.01008 0.0
C2680 C 0.50582 0.31626 0.00856 0.0
C2681 C 0.49552 0.33793 -0.00118 0.0
C2682 C 0.53736 0.32217 -0.00266 0.0
N2683 N 0.53158 0.33279 0.99269 0.0
C2684 C 0.40221 0.33373 0.06485 0.0
C2685 C 0.33063 0.33329 0.05345 0.0
C2686 C 0.39924 0.34458 0.07064 0.0
N2687 N 0.36869 0.32847 0.05554 0.0
C2688 C 0.32633 0.34419 0.05881 0.0
C2689 C 0.36143 0.35004 0.06662 0.0
H2690 H 0.43208 0.32965 0.06623 0.0
H2691 H 0.30431 0.32888 0.04631 0.0
C2692 C 0.37334 0.30144 0.96091 0.0
N2693 N 0.40308 0.30786 0.97073 0.0
C2694 C 0.36635 0.30156 0.9365 0.0
C2695 C 0.42128 0.31483 0.93247 0.0
C2696 C 0.42706 0.3145 0.95716 0.0
C2697 C 0.39047 0.3083 0.92186 0.0
H2698 H 0.35444 0.29636 0.97226 0.0
H2699 H 0.45028 0.3196 0.96539 0.0
O2700 O 0.38886 0.30267 0.06406 0.0
O2701 O 0.41487 0.29198 0.01611 0.0
O2702 O 0.34401 0.30909 0.01671 0.0
O2703 O 0.43693 0.3157 0.02582 0.0
H2704 H 0.40134 0.2998 0.10997 0.0
H2705 H 0.3079 0.30687 0.05694 0.0
H2706 H 0.34603 0.30097 0.14101 0.0
H2707 H 0.25447 0.30793 0.0888 0.0
H2708 H 0.52817 0.28625 0.96848 0.0
H2709 H 0.42807 0.27155 0.02697 0.0
H2710 H 0.47203 0.29795 0.9843 0.0
H2711 H 0.4849 0.26027 0.0103 0.0
H2712 H 0.33333 0.25798 0.04259 0.0
H2713 H 0.23916 0.27736 0.00773 0.0
H2714 H 0.55998 0.31221 0.0875 0.0
H2715 H 0.53541 0.27804 0.08727 0.0
H2716 H 0.38204 0.32581 -0.00307 0.0
H2717 H 0.26207 0.31121 0.01018 0.0
H2718 H 0.34612 0.34076 0.97626 0.0
H2719 H 0.22813 0.32636 0.9891 0.0
H2720 H 0.4348 0.33644 0.01518 0.0
H2721 H 0.51089 0.30789 0.0127 0.0
H2722 H 0.49196 0.34639 0.99502 0.0
H2723 H 0.56654 0.31833 0.99243 0.0
H2724 H 0.42711 0.34882 0.0764 0.0
H2725 H 0.29653 0.34812 0.05571 0.0
H2726 H 0.34167 0.29656 0.92925 0.0
H2727 H 0.44081 0.32008 0.92184 0.0
Li2728 Li 0.38206 0.45044 0.03567 0.0
Li2729 Li 0.31079 0.44501 0.0419 0.0
Li2730 Li 0.36696 0.43165 0.03827 0.0
Li2731 Li 0.34453 0.44168 0.00335 0.0
C2732 C 0.37955 0.44767 0.08146 0.0
N2733 N 0.42204 0.45833 0.11718 0.0
C2734 C 0.36541 0.45767 0.08941 0.0
C2735 C 0.41487 0.44301 0.09191 0.0
C2736 C 0.38745 0.46296 0.10742 0.0
C2737 C 0.43603 0.44854 0.10989 0.0
C2738 C 0.29853 0.4604 0.00714 0.0
C2739 C 0.22999 0.45947 0.98912 0.0
N2740 N 0.23268 0.47007 0.98344 0.0
C2741 C 0.30066 0.47128 0.00108 0.0
C2742 C 0.26296 0.45443 0.00108 0.0
C2743 C 0.26702 0.47602 0.98912 0.0
C2744 C 0.45995 0.46144 0.03252 0.0
N2745 N 0.41903 0.46224 0.03905 0.0
C2746 C 0.4211 0.48132 0.03516 0.0
C2747 C 0.39989 0.47194 0.04135 0.0
C2748 C 0.46229 0.48067 0.02647 0.0
C2749 C 0.48246 0.47064 0.0263 0.0
H2750 H 0.4741 0.45366 0.03009 0.0
H2751 H 0.367 0.47231 0.04596 0.0
C2752 C 0.23704 0.43934 0.06419 0.0
N2753 N 0.26027 0.44802 0.05795 0.0
C2754 C 0.2 0.44065 0.07695 0.0
C2755 C 0.21192 0.45984 0.0772 0.0
C2756 C 0.2486 0.45817 0.06405 0.0
C2757 C 0.18718 0.45099 0.08371 0.0
H2758 H 0.24784 0.43139 0.05964 0.0
H2759 H 0.26805 0.46491 0.05899 0.0
C2760 C 0.43886 0.43354 0.0115 0.0
N2761 N 0.51227 0.422 0.00595 0.0
C2762 C 0.4496 0.42932 0.98925 0.0
C2763 C 0.46552 0.4319 0.03089 0.0
C2764 C 0.48683 0.42351 0.98681 0.0
C2765 C 0.50247 0.42605 0.02773 0.0
C2766 C 0.30414 0.42187 0.01126 0.0
C2767 C 0.3329 0.41816 0.99439 0.0
C2768 C 0.26924 0.41557 0.01693 0.0
C2769 C 0.32644 0.4082 0.98355 0.0
C2770 C 0.26388 0.40564 0.00573 0.0
N2771 N 0.29237 0.40219 0.98942 0.0
C2772 C 0.36454 0.41439 0.07005 0.0
C2773 C 0.39867 0.41039 0.03361 0.0
C2774 C 0.36338 0.40349 0.07603 0.0
N2775 N 0.38095 0.41757 0.04883 0.0
C2776 C 0.39772 0.39946 0.03872 0.0
C2777 C 0.37861 0.3959 0.05975 0.0
H2778 H 0.3498 0.42024 0.08156 0.0
H2779 H 0.41061 0.413 0.01662 0.0
C2780 C 0.37311 0.44736 0.95952 0.0
N2781 N 0.34063 0.44207 0.96982 0.0
C2782 C 0.37719 0.44758 0.93489 0.0
C2783 C 0.31324 0.43721 0.93179 0.0
C2784 C 0.31029 0.43724 0.95661 0.0
C2785 C 0.34739 0.44232 0.92069 0.0
H2786 H 0.3966 0.45115 0.97059 0.0
H2787 H 0.28443 0.43322 0.96532 0.0
O2788 O 0.35864 0.44244 0.06369 0.0
O2789 O 0.33134 0.45569 0.01886 0.0
O2790 O 0.40219 0.43911 0.01427 0.0
O2791 O 0.31022 0.43154 0.02242 0.0
H2792 H 0.33791 0.46134 0.08162 0.0
H2793 H 0.42565 0.43517 0.0863 0.0
H2794 H 0.37706 0.47074 0.11363 0.0
H2795 H 0.46352 0.44505 0.11809 0.0
H2796 H 0.20227 0.45496 0.98435 0.0
H2797 H 0.32804 0.476 0.00555 0.0
H2798 H 0.26067 0.44601 0.00555 0.0
H2799 H 0.26824 0.48443 0.98435 0.0
H2800 H 0.40464 0.48893 0.03578 0.0
H2801 H 0.51408 0.46978 0.0195 0.0
H2802 H 0.18217 0.43361 0.08208 0.0
H2803 H 0.20297 0.46793 0.08219 0.0
H2804 H 0.4293 0.43045 0.97404 0.0
H2805 H 0.4577 0.43512 0.04818 0.0
H2806 H 0.49546 0.42018 0.96972 0.0
H2807 H 0.52334 0.42471 0.04261 0.0
H2808 H 0.36018 0.42287 0.98983 0.0
H2809 H 0.24647 0.41828 0.02985 0.0
H2810 H 0.34862 0.40524 0.97055 0.0
H2811 H 0.23706 0.40068 0.01001 0.0
H2812 H 0.3482 0.40098 0.09236 0.0
H2813 H 0.40988 0.3938 0.02581 0.0
H2814 H 0.4042 0.45151 0.9271 0.0
H2815 H 0.28933 0.43319 0.92141 0.0
C2816 C 0.09257 0.06591 0.10266 0.0
C2817 C 0.13533 0.0657 0.09657 0.0
H2818 H 0.0471 0.06579 0.13078 0.0
C2819 C 0.16556 0.06568 0.11468 0.0
H2820 H 0.06865 0.06579 0.08897 0.0
C2821 C 0.15323 0.06576 0.13852 0.0
C2822 C 0.11046 0.0657 0.14461 0.0
H2823 H 0.19869 0.0655 0.1104 0.0
H2824 H 0.17714 0.06551 0.1522 0.0
C2825 C 0.08023 0.06584 0.1265 0.0
C2826 C 0.15345 0.18083 0.10254 0.0
C2827 C 0.11063 0.18101 0.0966 0.0
H2828 H 0.1992 0.18096 0.1305 0.0
C2829 C 0.08058 0.18101 0.11483 0.0
H2830 H 0.17723 0.18096 0.08877 0.0
C2831 C 0.09315 0.18092 0.13863 0.0
C2832 C 0.13598 0.181 0.14456 0.0
H2833 H 0.04741 0.18116 0.11067 0.0
H2834 H 0.06938 0.18114 0.1524 0.0
C2835 C 0.16603 0.1809 0.12633 0.0
C2836 C 0.86255 0.92894 0.88137 0.0
C2837 C 0.86598 0.93847 0.89468 0.0
H2838 H 0.86775 0.9215 0.84713 0.0
C2839 C 0.87847 0.94794 0.88306 0.0
H2840 H 0.85347 0.92148 0.88983 0.0
C2841 C 0.88742 0.9479 0.85878 0.0
C2842 C 0.88376 0.93841 0.8454 0.0
H2843 H 0.88097 0.95545 0.89268 0.0
H2844 H 0.89733 0.95534 0.8505 0.0
C2845 C 0.87135 0.92892 0.85698 0.0
C2846 C 0.86864 0.79785 0.88369 0.0
C2847 C 0.88024 0.80734 0.89557 0.0
H2848 H 0.85039 0.79051 0.85098 0.0
C2849 C 0.88332 0.81692 0.88244 0.0
H2850 H 0.86648 0.79029 0.89315 0.0
C2851 C 0.87481 0.817 0.85801 0.0
C2852 C 0.86297 0.80751 0.84621 0.0
H2853 H 0.89174 0.82439 0.89107 0.0
H2854 H 0.87803 0.82448 0.84834 0.0
C2855 C 0.85988 0.79795 0.85939 0.0
C2856 C 0.08122 0.56595 0.62699 0.0
C2857 C 0.11144 0.5659 0.64511 0.0
H2858 H 0.06969 0.56585 0.58946 0.0
C2859 C 0.15422 0.56604 0.63904 0.0
H2860 H 0.04809 0.56583 0.63127 0.0
C2861 C 0.16658 0.56596 0.6152 0.0
C2862 C 0.13637 0.56591 0.59708 0.0
H2863 H 0.17811 0.56585 0.65273 0.0
H2864 H 0.19971 0.56585 0.61092 0.0
C2865 C 0.09359 0.56604 0.60316 0.0
C2866 C 0.16518 0.68072 0.62701 0.0
C2867 C 0.135 0.68079 0.64518 0.0
H2868 H 0.17664 0.68075 0.58947 0.0
C2869 C 0.09222 0.68062 0.63915 0.0
H2870 H 0.19832 0.68085 0.63125 0.0
C2871 C 0.07981 0.68064 0.61533 0.0
C2872 C 0.10998 0.68068 0.59717 0.0
H2873 H 0.06834 0.68081 0.65287 0.0
H2874 H 0.04667 0.68072 0.61109 0.0
C2875 C 0.15277 0.68058 0.6032 0.0
C2876 C 0.89336 0.43229 0.38394 0.0
C2877 C 0.88142 0.44155 0.39653 0.0
H2878 H 0.91086 0.42556 0.35029 0.0
C2879 C 0.87988 0.45143 0.38449 0.0
H2880 H 0.89536 0.42459 0.39283 0.0
C2881 C 0.88918 0.45201 0.36027 0.0
C2882 C 0.90029 0.44272 0.34755 0.0
H2883 H 0.87056 0.4587 0.39367 0.0
H2884 H 0.88722 0.45972 0.35141 0.0
C2885 C 0.90282 0.43287 0.35969 0.0
C2886 C 0.87966 0.3169 0.35774 0.0
C2887 C 0.8665 0.30743 0.34632 0.0
H2888 H 0.89805 0.32437 0.39046 0.0
C2889 C 0.86267 0.29798 0.35982 0.0
H2890 H 0.88349 0.32429 0.3478 0.0
C2891 C 0.87185 0.29797 0.38407 0.0
C2892 C 0.88469 0.30745 0.39557 0.0
H2893 H 0.8522 0.29056 0.3517 0.0
H2894 H 0.86901 0.2905 0.3938 0.0
C2895 C 0.88864 0.31691 0.38211 0.0
C2896 C 0.65404 0.06612 0.63928 0.0
C2897 C 0.61131 0.06588 0.64544 0.0
H2898 H 0.69938 0.06606 0.6111 0.0
C2899 C 0.581 0.06588 0.62736 0.0
H2900 H 0.67803 0.06599 0.65293 0.0
C2901 C 0.59322 0.066 0.60351 0.0
C2902 C 0.63596 0.06596 0.59735 0.0
H2903 H 0.54789 0.0657 0.63169 0.0
H2904 H 0.56924 0.06576 0.58986 0.0
C2905 C 0.66627 0.06609 0.61543 0.0
C2906 C 0.59226 0.18091 0.6392 0.0
C2907 C 0.63503 0.18107 0.64526 0.0
H2908 H 0.54677 0.18105 0.61112 0.0
C2909 C 0.66525 0.18102 0.62712 0.0
H2910 H 0.56836 0.18109 0.65291 0.0
C2911 C 0.65289 0.1809 0.60329 0.0
C2912 C 0.61011 0.18101 0.59724 0.0
H2913 H 0.69838 0.18115 0.63138 0.0
H2914 H 0.67679 0.18109 0.58959 0.0
C2915 C 0.5799 0.18096 0.61538 0.0
C2916 C 0.36363 0.95001 0.38372 0.0
C2917 C 0.35444 0.94052 0.3962 0.0
H2918 H 0.38086 0.95719 0.35067 0.0
C2919 C 0.35358 0.93074 0.38366 0.0
H2920 H 0.364 0.95771 0.39271 0.0
C2921 C 0.36241 0.93047 0.35928 0.0
C2922 C 0.37247 0.93996 0.34692 0.0
H2923 H 0.34705 0.92326 0.39276 0.0
H2924 H 0.3612 0.92283 0.35011 0.0
C2925 C 0.37282 0.94973 0.35947 0.0
C2926 C 0.38675 0.81602 0.38234 0.0
C2927 C 0.38739 0.80621 0.39476 0.0
H2928 H 0.3777 0.82393 0.34888 0.0
C2929 C 0.37895 0.79668 0.38225 0.0
H2930 H 0.39263 0.82352 0.39149 0.0
C2931 C 0.36947 0.79694 0.35805 0.0
C2932 C 0.36866 0.80672 0.34558 0.0
H2933 H 0.37965 0.78897 0.39116 0.0
H2934 H 0.36238 0.78944 0.34915 0.0
C2935 C 0.3775 0.81627 0.358 0.0
C2936 C 0.59248 0.56606 0.10269 0.0
C2937 C 0.63526 0.56595 0.09661 0.0
H2938 H 0.54695 0.56585 0.13076 0.0
C2939 C 0.66544 0.56605 0.11477 0.0
H2940 H 0.56858 0.56584 0.089 0.0
C2941 C 0.65304 0.56611 0.1386 0.0
C2942 C 0.61027 0.56593 0.14467 0.0
H2943 H 0.69858 0.56598 0.11053 0.0
H2944 H 0.67695 0.56593 0.15229 0.0
C2945 C 0.58009 0.56598 0.12652 0.0
C2946 C 0.66527 0.68008 0.12661 0.0
C2947 C 0.63499 0.68024 0.14472 0.0
H2948 H 0.67698 0.68009 0.0891 0.0
C2949 C 0.59224 0.68017 0.1386 0.0
H2950 H 0.69839 0.68013 0.13091 0.0
C2951 C 0.57998 0.68022 0.11476 0.0
C2952 C 0.61027 0.68019 0.09665 0.0
H2953 H 0.56828 0.68044 0.15226 0.0
H2954 H 0.54687 0.68039 0.11046 0.0
C2955 C 0.65301 0.67998 0.10277 0.0
C2956 C 0.37542 0.45043 0.85777 0.0
C2957 C 0.37041 0.44072 0.84536 0.0
H2958 H 0.37129 0.4586 0.89116 0.0
C2959 C 0.3561 0.43162 0.85774 0.0
H2960 H 0.38667 0.45757 0.84878 0.0
C2961 C 0.34747 0.4322 0.8821 0.0
C2962 C 0.35319 0.44188 0.89455 0.0
H2963 H 0.35143 0.42405 0.84859 0.0
H2964 H 0.33734 0.42501 0.89129 0.0
C2965 C 0.3669 0.45101 0.88208 0.0
C2966 C 0.36467 0.29898 0.85936 0.0
C2967 C 0.36554 0.30864 0.84643 0.0
H2968 H 0.37306 0.29126 0.89291 0.0
C2969 C 0.37529 0.31823 0.85846 0.0
H2970 H 0.35681 0.29146 0.85077 0.0
C2971 C 0.3839 0.31814 0.88288 0.0
C2972 C 0.38298 0.30846 0.89576 0.0
H2973 H 0.37675 0.32579 0.84898 0.0
H2974 H 0.39065 0.32568 0.89171 0.0
C2975 C 0.37352 0.29889 0.88365 0.0
C2976 C 0.28681 0.99594 0.24104 0.0
C2977 C 0.26197 0.98892 0.22745 0.0
H2978 H 0.28862 0.00968 0.26381 0.0
C2979 C 0.21868 0.99073 0.22596 0.0
H2980 H 0.32022 0.99457 0.24286 0.0
C2981 C 0.20057 -0.00053 0.23769 0.0
C2982 C 0.22528 0.00647 0.25157 0.0
H2983 H 0.19891 0.98544 0.21556 0.0
H2984 H 0.16724 0.00081 0.23555 0.0
C2985 C 0.26866 0.00458 0.25308 0.0
C2986 C 0.96005 0.24992 0.24272 0.0
C2987 C 0.98467 0.25689 0.22889 0.0
H2988 H 0.95864 0.23623 0.26568 0.0
C2989 C 0.02795 0.25509 0.22721 0.0
H2990 H 0.92667 0.25127 0.24468 0.0
C2991 C 0.04626 0.2464 0.23898 0.0
C2992 C 0.02178 0.23943 0.25307 0.0
H2993 H 0.04754 0.26035 0.2166 0.0
H2994 H 0.07956 0.24506 0.23668 0.0
C2995 C 0.97841 0.24132 0.25479 0.0
C2996 C 0.27129 0.24089 0.98829 0.0
C2997 C 0.22778 0.23912 0.98949 0.0
H2998 H 0.32295 0.25086 -0.00135 0.0
C2999 C 0.20306 0.24617 0.00322 0.0
H3000 H 0.29129 0.23572 0.97774 0.0
C3001 C 0.22118 0.25491 0.01489 0.0
C3002 C 0.26451 0.25667 0.01353 0.0
H3003 H 0.16965 0.24491 0.00519 0.0
H3004 H 0.20135 0.26029 0.02504 0.0
C3005 C 0.28948 0.24954 0.00031 0.0
C3006 C 0.04183 -0.00011 0.00304 0.0
C3007 C 0.01713 0.00707 0.98965 0.0
H3008 H 0.04343 0.98563 0.02444 0.0
C3009 C 0.97356 0.00537 0.98859 0.0
H3010 H 0.0753 0.00108 0.00491 0.0
C3011 C 0.95528 0.99669 0.00046 0.0
C3012 C 0.98021 0.98945 0.01337 0.0
H3013 H 0.95355 0.01063 0.97827 0.0
H3014 H 0.92176 0.99544 -0.00106 0.0
C3015 C 0.02362 0.99111 0.01455 0.0
C3016 C 0.69894 -0.00057 0.74059 0.0
C3017 C 0.72436 0.00654 0.75377 0.0
H3018 H 0.69612 0.98523 0.71901 0.0
C3019 C 0.76781 0.00464 0.75464 0.0
H3020 H 0.66552 0.00076 0.73893 0.0
C3021 C 0.78532 0.99591 0.74258 0.0
C3022 C 0.75977 0.98881 0.72967 0.0
H3023 H 0.78834 0.00981 0.76483 0.0
H3024 H 0.81882 0.99456 0.74382 0.0
C3025 C 0.71641 0.9906 0.72889 0.0
C3026 C 0.047 0.74702 0.74042 0.0
C3027 C 0.02201 0.73996 0.75399 0.0
H3028 H 0.0491 0.76113 0.71854 0.0
C3029 C 0.97861 0.74186 0.75529 0.0
H3030 H 0.08037 0.74569 0.73844 0.0
C3031 C 0.96069 0.75054 0.74329 0.0
C3032 C 0.9858 0.75759 0.72996 0.0
H3033 H 0.95842 0.73671 0.76579 0.0
H3034 H 0.92724 0.75188 0.74489 0.0
C3035 C 0.02913 0.7558 0.72874 0.0
C3036 C 0.70269 0.74602 0.00464 0.0
C3037 C 0.72721 0.73918 0.99029 0.0
H3038 H 0.70113 0.75992 0.02713 0.0
C3039 C 0.77044 0.74119 0.98834 0.0
H3040 H 0.66949 0.74456 0.00711 0.0
C3041 C 0.78861 0.74986 0.0003 0.0
C3042 C 0.76392 0.75675 0.01432 0.0
H3043 H 0.79021 0.73618 0.97728 0.0
H3044 H 0.82185 0.75134 -0.00195 0.0
C3045 C 0.72079 0.75475 0.01636 0.0
C3046 C 0.27407 0.5055 0.7492 0.0
C3047 C 0.23048 0.50724 0.74871 0.0
H3048 H 0.32534 0.49556 0.73811 0.0
C3049 C 0.20523 0.50015 0.73538 0.0
H3050 H 0.29451 0.51069 0.75942 0.0
C3051 C 0.22291 0.4914 0.7235 0.0
C3052 C 0.26631 0.48968 0.7242 0.0
H3053 H 0.17172 0.50137 0.73394 0.0
H3054 H 0.20267 0.48597 0.71376 0.0
C3055 C 0.2918 0.49686 0.73694 0.0
C3056 C 0.22081 0.75397 0.51669 0.0
C3057 C 0.2638 0.75604 0.51422 0.0
H3058 H 0.16937 0.74381 0.50754 0.0
C3059 C 0.28814 0.74931 0.49963 0.0
H3060 H 0.20143 0.75901 0.52792 0.0
C3061 C 0.26972 0.74073 0.4875 0.0
C3062 C 0.22659 0.73867 0.48983 0.0
H3063 H 0.32126 0.75087 0.49704 0.0
H3064 H 0.28916 0.73584 0.476 0.0
C3065 C 0.20246 0.74533 0.50478 0.0
C3066 C 0.02261 0.49176 0.52009 0.0
C3067 C 0.97923 0.49002 0.51914 0.0
H3068 H 0.07401 0.50167 0.50972 0.0
C3069 C 0.95396 0.49717 0.50616 0.0
H3070 H 0.04267 0.48635 0.53001 0.0
C3071 C 0.97192 0.50576 0.49385 0.0
C3072 C 0.01551 0.50747 0.49451 0.0
H3073 H 0.92045 0.49586 0.5048 0.0
H3074 H 0.95169 0.51091 0.4834 0.0
C3075 C 0.04051 0.50045 0.50813 0.0
C3076 C 0.76518 0.50439 0.25599 0.0
C3077 C 0.72233 0.5066 0.25288 0.0
H3078 H 0.81687 0.49418 0.24714 0.0
C3079 C 0.69875 0.50002 0.23748 0.0
H3080 H 0.78417 0.50919 0.26789 0.0
C3081 C 0.71746 0.49138 0.22571 0.0
C3082 C 0.76025 0.48921 0.22881 0.0
H3083 H 0.66591 0.50164 0.23417 0.0
H3084 H 0.69854 0.48644 0.21401 0.0
C3085 C 0.78395 0.49581 0.24403 0.0
C3086 C 0.72138 0.25575 0.51534 0.0
C3087 C 0.76477 0.25746 0.51415 0.0
H3088 H 0.66984 0.24573 0.50575 0.0
C3089 C 0.78978 0.25023 0.50121 0.0
H3090 H 0.7015 0.26121 0.52526 0.0
C3091 C 0.77163 0.24152 0.48938 0.0
C3092 C 0.72809 0.23977 0.4905 0.0
H3093 H 0.82329 0.2515 0.49965 0.0
H3094 H 0.7917 0.23628 0.47907 0.0
C3095 C 0.70329 0.24695 0.50386 0.0
C3096 C 0.52794 0.25666 0.72874 0.0
C3097 C 0.48445 0.25824 0.72892 0.0
H3098 H 0.57902 0.24662 0.73899 0.0
C3099 C 0.45873 0.25086 0.74091 0.0
H3100 H 0.54834 0.26226 0.7196 0.0
C3101 C 0.47624 0.24209 0.75278 0.0
C3102 C 0.51988 0.2404 0.75258 0.0
H3103 H 0.42509 0.25206 0.74166 0.0
H3104 H 0.45553 0.23672 0.76237 0.0
C3105 C 0.54543 0.24776 0.74019 0.0
C3106 C 0.5451 0.00077 0.50542 0.0
C3107 C 0.52114 0.00733 0.49017 0.0
H3108 H 0.54592 0.98719 0.52887 0.0
C3109 C 0.4782 0.00513 0.48746 0.0
H3110 H 0.57804 0.00238 0.50844 0.0
C3111 C 0.45974 0.99655 0.49957 0.0
C3112 C 0.48385 0.98995 0.51456 0.0
H3113 H 0.45892 0.00993 0.4757 0.0
H3114 H 0.42676 0.99492 0.49671 0.0
C3115 C 0.5267 0.99213 0.51734 0.0
C3116 C 0.5469 0.74688 0.23924 0.0
C3117 C 0.52272 0.74003 0.25377 0.0
H3118 H 0.54777 0.76073 0.21654 0.0
C3119 C 0.47966 0.74213 0.25633 0.0
H3120 H 0.57997 0.74538 0.23638 0.0
C3121 C 0.4612 0.75078 0.2445 0.0
C3122 C 0.4854 0.75758 0.23001 0.0
H3123 H 0.46019 0.73714 0.2676 0.0
H3124 H 0.42802 0.75226 0.24703 0.0
C3125 C 0.52848 0.75561 0.22765 0.0
C3126 C 0.45926 0.49639 -0.00121 0.0
C3127 C 0.48221 0.49008 0.01496 0.0
H3128 H 0.46013 0.50939 0.97391 0.0
C3129 C 0.5247 0.49243 0.01878 0.0
H3130 H 0.42664 0.49462 0.9951 0.0
C3131 C 0.54387 0.5009 0.00667 0.0
C3132 C 0.52109 0.50715 0.99026 0.0
H3133 H 0.54306 0.48774 0.03123 0.0
H3134 H 0.57648 0.50264 0.01043 0.0
C3135 C 0.47849 0.50482 0.98655 0.0
C3136 C 0.1222 0.1286 0.33319 0.0
C3137 C 0.11909 0.13422 0.31158 0.0
H3138 H 0.12891 0.11318 0.35003 0.0
C3139 C 0.1218 0.12853 0.29007 0.0
H3140 H 0.12046 0.13285 0.34999 0.0
C3141 C 0.12755 0.11744 0.29009 0.0
C3142 C 0.13027 0.11177 0.31162 0.0
H3143 H 0.12018 0.1327 0.27317 0.0
H3144 H 0.12915 0.11325 0.27321 0.0
C3145 C 0.12717 0.11741 0.33322 0.0
C3146 C 0.12571 0.12869 0.9509 0.0
C3147 C 0.12828 0.13437 0.92938 0.0
H3148 H 0.11822 0.11343 0.9678 0.0
C3149 C 0.12486 0.12875 0.90778 0.0
H3150 H 0.12756 0.13287 0.96779 0.0
C3151 C 0.11968 0.11757 0.90778 0.0
C3152 C 0.11668 0.11195 0.92939 0.0
H3153 H 0.12649 0.133 0.89098 0.0
H3154 H 0.11768 0.11334 0.89098 0.0
C3155 C 0.11974 0.11761 0.95091 0.0
C3156 C 0.90682 0.8793 0.68523 0.0
C3157 C 0.87791 0.88462 0.67061 0.0
H3158 H 0.92962 0.86433 0.69817 0.0
C3159 C 0.85175 0.87862 0.65565 0.0
H3160 H 0.92697 0.8838 0.69714 0.0
C3161 C 0.85412 0.86739 0.65559 0.0
C3162 C 0.88188 0.86197 0.67102 0.0
H3163 H 0.82941 0.88261 0.64413 0.0
H3164 H 0.83364 0.86298 0.64374 0.0
C3165 C 0.90856 0.86811 0.68561 0.0
C3166 C 0.84783 0.87898 0.08403 0.0
C3167 C 0.87803 0.88462 0.07062 0.0
H3168 H 0.82219 0.8636 0.09347 0.0
C3169 C 0.9083 0.87872 0.05794 0.0
H3170 H 0.82455 0.88322 0.09443 0.0
C3171 C 0.90743 0.86753 0.05792 0.0
C3172 C 0.87597 0.86196 0.07029 0.0
H3173 H 0.93152 0.88271 0.047 0.0
H3174 H 0.93024 0.86322 0.04727 0.0
C3175 C 0.8465 0.86775 0.08362 0.0
C3176 C 0.12924 0.61761 0.79048 0.0
C3177 C 0.13223 0.61193 0.81199 0.0
H3178 H 0.12106 0.63285 0.77363 0.0
C3179 C 0.12878 0.61754 0.8336 0.0
H3180 H 0.13108 0.61345 0.77357 0.0
C3181 C 0.12317 0.6287 0.83363 0.0
C3182 C 0.11978 0.63433 0.81205 0.0
H3183 H 0.13073 0.61329 0.8504 0.0
H3184 H 0.12114 0.63292 0.85045 0.0
C3185 C 0.12287 0.62868 0.79051 0.0
C3186 C 0.12343 0.62839 0.4513 0.0
C3187 C 0.126 0.63405 0.42976 0.0
H3188 H 0.11572 0.61314 0.46825 0.0
C3189 C 0.12224 0.62843 0.40818 0.0
H3190 H 0.12552 0.63256 0.46818 0.0
C3191 C 0.11677 0.61726 0.40821 0.0
C3192 C 0.11381 0.61165 0.42984 0.0
H3193 H 0.12386 0.63267 0.39137 0.0
H3194 H 0.11455 0.61303 0.39143 0.0
C3195 C 0.11718 0.61732 0.45134 0.0
C3196 C 0.86336 0.36739 0.15817 0.0
C3197 C 0.88409 0.36139 0.17583 0.0
H3198 H 0.84213 0.38299 0.14702 0.0
C3199 C 0.90186 0.36679 0.19531 0.0
H3200 H 0.84948 0.36343 0.14293 0.0
C3201 C 0.89732 0.37787 0.19771 0.0
C3202 C 0.8751 0.3838 0.18063 0.0
H3203 H 0.91749 0.3624 0.20939 0.0
H3204 H 0.91043 0.38178 0.21324 0.0
C3205 C 0.8592 0.37855 0.16046 0.0
C3206 C 0.84939 0.36775 0.58422 0.0
C3207 C 0.88009 0.36216 0.5713 0.0
H3208 H 0.82493 0.38306 0.59449 0.0
C3209 C 0.91127 0.36799 0.55927 0.0
H3210 H 0.82524 0.36343 0.59382 0.0
C3211 C 0.91076 0.37919 0.55925 0.0
C3212 C 0.87926 0.38485 0.57148 0.0
H3213 H 0.93497 0.36389 0.54886 0.0
H3214 H 0.93391 0.38336 0.54861 0.0
C3215 C 0.8492 0.37899 0.5845 0.0
C3216 C 0.62525 0.11798 0.83375 0.0
C3217 C 0.62885 0.11233 0.81218 0.0
H3218 H 0.61767 0.13339 0.85047 0.0
C3219 C 0.62623 0.11799 0.79063 0.0
H3220 H 0.62693 0.11375 0.85058 0.0
C3221 C 0.62003 0.12907 0.79057 0.0
C3222 C 0.61678 0.13476 0.81206 0.0
H3223 H 0.62821 0.11381 0.77376 0.0
H3224 H 0.61849 0.13323 0.77366 0.0
C3225 C 0.61983 0.12915 0.83369 0.0
C3226 C 0.62634 0.12908 0.40855 0.0
C3227 C 0.62946 0.13469 0.43018 0.0
H3228 H 0.61933 0.11368 0.39168 0.0
C3229 C 0.62641 0.12901 0.45167 0.0
H3230 H 0.62834 0.13333 0.39176 0.0
C3231 C 0.62034 0.11793 0.45163 0.0
C3232 C 0.61765 0.11227 0.43008 0.0
H3233 H 0.62801 0.13317 0.46858 0.0
H3234 H 0.61852 0.11374 0.4685 0.0
C3235 C 0.62105 0.11791 0.4085 0.0
C3236 C 0.39864 0.87893 0.15788 0.0
C3237 C 0.36884 0.88458 0.17159 0.0
H3238 H 0.42372 0.86354 0.14799 0.0
C3239 C 0.33883 0.87865 0.18445 0.0
H3240 H 0.42172 0.88317 0.14733 0.0
C3241 C 0.33943 0.86746 0.18423 0.0
C3242 C 0.3704 0.86189 0.1715 0.0
H3243 H 0.31596 0.88261 0.19566 0.0
H3244 H 0.31675 0.86314 0.19496 0.0
C3245 C 0.39974 0.86769 0.1581 0.0
C3246 C 0.37936 0.87852 0.58403 0.0
C3247 C 0.38126 0.88414 0.5624 0.0
H3248 H 0.37278 0.8631 0.60088 0.0
C3249 C 0.37624 0.87854 0.54092 0.0
H3250 H 0.38289 0.88273 0.60078 0.0
C3251 C 0.36937 0.8675 0.541 0.0
C3252 C 0.36805 0.86182 0.56255 0.0
H3253 H 0.37705 0.88276 0.52406 0.0
H3254 H 0.36589 0.86334 0.52417 0.0
C3255 C 0.37343 0.86737 0.58409 0.0
C3256 C 0.61919 0.62868 0.33361 0.0
C3257 C 0.61646 0.6343 0.31197 0.0
H3258 H 0.6255 0.61326 0.3505 0.0
C3259 C 0.61952 0.6286 0.29049 0.0
H3260 H 0.61718 0.63293 0.35039 0.0
C3261 C 0.62519 0.61751 0.29055 0.0
C3262 C 0.62748 0.61184 0.31211 0.0
H3263 H 0.61821 0.63277 0.27357 0.0
H3264 H 0.62703 0.61332 0.27368 0.0
C3265 C 0.62408 0.61749 0.33368 0.0
C3266 C 0.62581 0.62842 0.95074 0.0
C3267 C 0.62941 0.63412 0.9293 0.0
H3268 H 0.61769 0.61313 0.96744 0.0
C3269 C 0.62694 0.62853 0.90762 0.0
H3270 H 0.62692 0.63257 0.96768 0.0
C3271 C 0.62182 0.61735 0.90749 0.0
C3272 C 0.61792 0.61169 0.92901 0.0
H3273 H 0.62936 0.63279 0.89088 0.0
H3274 H 0.62065 0.61313 0.89064 0.0
C3275 C 0.6199 0.61733 0.9506 0.0
C3276 C 0.33321 0.37903 0.6812 0.0
C3277 C 0.36465 0.3847 0.6689 0.0
H3278 H 0.30877 0.36373 0.69145 0.0
C3279 C 0.39426 0.37882 0.65557 0.0
H3280 H 0.31038 0.38319 0.69208 0.0
C3281 C 0.39379 0.36758 0.65566 0.0
C3282 C 0.3632 0.36199 0.66867 0.0
H3283 H 0.41845 0.38288 0.64548 0.0
H3284 H 0.41769 0.36325 0.64588 0.0
C3285 C 0.33238 0.36783 0.68096 0.0
C3286 C 0.38492 0.37892 0.08352 0.0
C3287 C 0.37077 0.38433 0.06315 0.0
H3288 H 0.39292 0.36365 0.10072 0.0
C3289 C 0.34994 0.37856 0.04526 0.0
H3290 H 0.40092 0.38325 0.09755 0.0
C3291 C 0.34481 0.36748 0.04718 0.0
C3292 C 0.3608 0.36193 0.06694 0.0
H3293 H 0.33832 0.38261 0.02951 0.0
H3294 H 0.33017 0.3632 0.0326 0.0
C3295 C 0.38034 0.36776 0.0853 0.0
C3296 C 0.88896 0.0556 0.36207 0.0
C3297 C 0.90453 0.04585 0.35309 0.0
H3298 H 0.84674 0.06334 0.38595 0.0
C3299 C 0.88911 0.03614 0.3624 0.0
H3300 H 0.9007 0.06322 0.35561 0.0
C3301 C 0.85843 0.03621 0.38023 0.0
C3302 C 0.84297 0.04599 0.38915 0.0
H3303 H 0.90049 0.02851 0.35578 0.0
H3304 H 0.84706 0.02863 0.38715 0.0
C3305 C 0.85851 0.05566 0.3798 0.0
C3306 C 0.36038 0.19107 0.36148 0.0
C3307 C 0.34453 0.20074 0.35232 0.0
H3308 H 0.40285 0.1835 0.38548 0.0
C3309 C 0.35985 0.21052 0.36135 0.0
H3310 H 0.34874 0.1834 0.35524 0.0
C3311 C 0.39066 0.21058 0.3791 0.0
C3312 C 0.40631 0.20087 0.38825 0.0
H3313 H 0.34825 0.2181 0.35458 0.0
H3314 H 0.40191 0.21821 0.38582 0.0
C3315 C 0.39093 0.19113 0.37914 0.0
C3316 C 0.8568 0.19132 0.86212 0.0
C3317 C 0.84094 0.20105 0.85325 0.0
H3318 H 0.89963 0.1836 0.88568 0.0
C3319 C 0.85655 0.21077 0.86242 0.0
H3320 H 0.84495 0.18368 0.85577 0.0
C3321 C 0.88771 0.21072 0.87997 0.0
C3322 C 0.90343 0.20095 0.8888 0.0
H3323 H 0.84495 0.21839 0.85587 0.0
H3324 H 0.89922 0.21831 0.88678 0.0
C3325 C 0.88769 0.19127 0.87959 0.0
C3326 C 0.35703 0.05544 0.8797 0.0
C3327 C 0.34112 0.0457 0.8885 0.0
H3328 H 0.39993 0.06318 0.8562 0.0
C3329 C 0.35663 0.03598 0.87923 0.0
H3330 H 0.34525 0.06306 0.88614 0.0
C3331 C 0.38778 0.03605 0.86166 0.0
C3332 C 0.40358 0.04583 0.85292 0.0
H3333 H 0.34498 0.02836 0.88571 0.0
H3334 H 0.39923 0.02847 0.85477 0.0
C3335 C 0.38792 0.0555 0.86222 0.0
C3336 C 0.13098 0.95971 0.60586 0.0
C3337 C 0.16413 0.95259 0.61059 0.0
H3338 H 0.07125 0.96575 0.61703 0.0
C3339 C 0.16334 0.94654 0.63169 0.0
H3340 H 0.1307 0.96448 0.58974 0.0
C3341 C 0.12927 0.9472 0.64718 0.0
C3342 C 0.0952 0.95396 0.64198 0.0
H3343 H 0.1888 0.94113 0.63606 0.0
H3344 H 0.12891 0.94207 0.66274 0.0
C3345 C 0.0968 0.96037 0.62139 0.0
C3346 C 0.61832 0.79973 0.64498 0.0
C3347 C 0.6518 0.79264 0.64079 0.0
H3348 H 0.55994 0.80602 0.63265 0.0
C3349 C 0.65033 0.78591 0.62068 0.0
H3350 H 0.61857 0.80511 0.66012 0.0
C3351 C 0.61689 0.78657 0.60465 0.0
C3352 C 0.58434 0.79399 0.60839 0.0
H3353 H 0.67541 0.78027 0.6171 0.0
H3354 H 0.61725 0.78154 0.58893 0.0
C3355 C 0.58498 0.80037 0.62901 0.0
C3356 C 0.15226 0.78547 0.11933 0.0
C3357 C 0.15155 0.7917 0.14022 0.0
H3358 H 0.12083 0.78131 0.08686 0.0
C3359 C 0.11604 0.79797 0.1452 0.0
H3360 H 0.17912 0.78048 0.11517 0.0
C3361 C 0.08291 0.79845 0.12905 0.0
C3362 C 0.08449 0.79264 0.10763 0.0
H3363 H 0.11469 0.80292 0.16104 0.0
H3364 H 0.0564 0.80359 0.13306 0.0
C3365 C 0.11889 0.78589 0.10322 0.0
C3366 C 0.63008 0.9621 0.10716 0.0
C3367 C 0.65859 0.9535 0.10724 0.0
H3368 H 0.5764 0.96931 0.1237 0.0
C3369 C 0.65626 0.94585 0.12557 0.0
H3370 H 0.63125 0.96813 0.09329 0.0
C3371 C 0.62495 0.94648 0.1428 0.0
C3372 C 0.59523 0.9548 0.14224 0.0
H3373 H 0.67834 0.93925 0.12641 0.0
H3374 H 0.62311 0.94016 0.156 0.0
C3375 C 0.59857 0.96273 0.12447 0.0
C3376 C 0.89359 0.55545 0.86348 0.0
C3377 C 0.90945 0.54572 0.8546 0.0
H3378 H 0.85068 0.56316 0.88701 0.0
C3379 C 0.89402 0.536 0.86385 0.0
H3380 H 0.90533 0.56308 0.85707 0.0
C3381 C 0.8629 0.53604 0.88145 0.0
C3382 C 0.84702 0.54581 0.89021 0.0
H3383 H 0.90563 0.52837 0.85731 0.0
H3384 H 0.85148 0.52845 0.88829 0.0
C3385 C 0.86272 0.55549 0.88098 0.0
C3386 C 0.35904 0.71038 0.86177 0.0
C3387 C 0.34375 0.70066 0.85244 0.0
H3388 H 0.40119 0.71792 0.88642 0.0
C3389 C 0.35975 0.69093 0.86123 0.0
H3390 H 0.34733 0.718 0.85529 0.0
C3391 C 0.39041 0.69088 0.87883 0.0
C3392 C 0.40575 0.70056 0.88823 0.0
H3393 H 0.34814 0.68329 0.85475 0.0
H3394 H 0.40243 0.68322 0.88488 0.0
C3395 C 0.38996 0.71033 0.87946 0.0
C3396 C 0.88862 0.71023 0.37939 0.0
C3397 C 0.90367 0.7005 0.3888 0.0
H3398 H 0.84703 0.71778 0.35447 0.0
C3399 C 0.88793 0.69077 0.37985 0.0
H3400 H 0.90016 0.71785 0.38599 0.0
C3401 C 0.85767 0.69074 0.36203 0.0
C3402 C 0.84249 0.70042 0.35257 0.0
H3403 H 0.89939 0.68314 0.38639 0.0
H3404 H 0.84575 0.68308 0.35589 0.0
C3405 C 0.85812 0.71019 0.36147 0.0
C3406 C 0.38294 0.536 0.35997 0.0
C3407 C 0.39855 0.54578 0.35111 0.0
H3408 H 0.34065 0.5283 0.38431 0.0
C3409 C 0.38275 0.55546 0.36034 0.0
H3410 H 0.39446 0.52842 0.35313 0.0
C3411 C 0.35208 0.55538 0.37795 0.0
C3412 C 0.33654 0.54564 0.38695 0.0
H3413 H 0.39458 0.56313 0.35424 0.0
H3414 H 0.34027 0.56301 0.38438 0.0
C3415 C 0.35204 0.53593 0.37768 0.0
C3416 C 0.11579 0.4579 0.13523 0.0
C3417 C 0.07962 0.45199 0.12941 0.0
H3418 H 0.17842 0.46226 0.12511 0.0
C3419 C 0.07768 0.44678 0.10723 0.0
H3420 H 0.11832 0.46197 0.15221 0.0
C3421 C 0.11207 0.44688 0.09193 0.0
C3422 C 0.14897 0.45228 0.09832 0.0
H3423 H 0.04987 0.44241 0.1019 0.0
H3424 H 0.1102 0.44249 0.07531 0.0
C3425 C 0.15017 0.45807 0.11976 0.0
C3426 C 0.61986 0.30006 0.14383 0.0
C3427 C 0.6507 0.29205 0.14176 0.0
H3428 H 0.5645 0.3071 0.12927 0.0
C3429 C 0.64739 0.28449 0.12324 0.0
H3430 H 0.62163 0.30609 0.15767 0.0
C3431 C 0.61478 0.28518 0.10664 0.0
C3432 C 0.58508 0.29348 0.10821 0.0
H3433 H 0.67042 0.27815 0.12132 0.0
H3434 H 0.61366 0.27945 0.09215 0.0
C3435 C 0.58743 0.30074 0.1273 0.0
C3436 C 0.11612 0.28371 0.6072 0.0
C3437 C 0.08656 0.29206 0.6084 0.0
H3438 H 0.17106 0.27662 0.62258 0.0
C3439 C 0.08813 0.29926 0.62762 0.0
H3440 H 0.11554 0.27802 0.59262 0.0
C3441 C 0.11976 0.2985 0.64462 0.0
C3442 C 0.15062 0.29049 0.6429 0.0
H3443 H 0.06525 0.30565 0.62929 0.0
H3444 H 0.12101 0.30452 0.65851 0.0
C3445 C 0.14799 0.28295 0.62426 0.0
C3446 C 0.6045 0.46285 0.62767 0.0
C3447 C 0.59338 0.45333 0.63959 0.0
H3448 H 0.64282 0.47009 0.60062 0.0
C3449 C 0.61307 0.44368 0.63313 0.0
H3450 H 0.58981 0.47041 0.63233 0.0
C3451 C 0.64293 0.44349 0.61506 0.0
C3452 C 0.65392 0.45296 0.60298 0.0
H3453 H 0.60473 0.43618 0.64169 0.0
H3454 H 0.65768 0.43591 0.61064 0.0
C3455 C 0.63481 0.46268 0.60962 0.0
loop_
_geom_bond_atom_site_label_1
_geom_bond_atom_site_label_2
_geom_bond_distance
_geom_bond_site_symmetry_2
_ccdc_geom_bond_type
Li0 N17 1.990 1_455 S
Li0 O60 1.956 . S
Li0 O61 1.970 . S
Li0 O62 1.961 . S
Li1 N25 1.990 . S
Li1 O60 1.970 . S
Li1 O61 1.956 . S
Li1 O63 1.961 . S
Li2 N47 1.990 . S
Li2 O60 1.961 . S
Li2 O62 1.956 . S
Li2 O63 1.970 . S
Li3 N53 1.990 . S
Li3 O61 1.961 . S
Li3 O62 1.970 . S
Li3 O63 1.956 . S
C4 C6 1.348 . S
C4 C7 1.356 1_455 S
C4 O60 1.325 . S
N5 C8 1.314 . S
N5 C9 1.279 . S
C6 C4 1.348 . S
C6 C8 1.353 1_455 S
C6 H64 0.929 . S
C7 C4 1.356 1_655 S
C7 C9 1.358 . S
C7 H65 0.930 . S
C8 N5 1.314 . S
C8 C6 1.353 1_655 S
C8 H66 0.930 . S
C9 N5 1.279 . S
C9 C7 1.358 . S
C9 H67 0.930 . S
C10 C13 1.348 . S
C10 C14 1.356 . S
C10 O61 1.325 . S
C11 N12 1.279 . S
C11 C14 1.358 . S
C11 H68 0.930 . S
N12 C11 1.279 . S
N12 C15 1.314 . S
C13 C10 1.348 . S
C13 C15 1.353 . S
C13 H69 0.929 . S
C14 C10 1.356 . S
C14 C11 1.358 . S
C14 H70 0.930 . S
C15 N12 1.314 . S
C15 C13 1.353 . S
C15 H71 0.930 . S
C16 N17 1.314 . S
C16 C21 1.353 . S
C16 H22 0.930 1_655 S
N17 Li0 1.990 1_655 S
N17 C16 1.314 . S
N17 C19 1.279 . S
C18 C19 1.358 . S
C18 C20 1.356 . S
C18 H72 0.930 . S
C19 N17 1.279 . S
C19 C18 1.358 . S
C19 H23 0.930 . S
C20 C18 1.356 . S
C20 C21 1.348 . S
C21 C16 1.353 . S
C21 C20 1.348 . S
C21 H73 0.929 . S
H22 C16 0.930 1_455 S
H23 C19 0.930 . S
C24 N25 1.314 . S
C24 C26 1.353 . S
C24 H30 0.930 . S
N25 Li1 1.990 . S
N25 C24 1.314 . S
N25 C28 1.279 . S
C26 C24 1.353 . S
C26 C29 1.348 . S
C26 H74 0.929 . S
C27 C28 1.358 . S
C27 C29 1.356 . S
C27 H75 0.930 . S
C28 N25 1.279 . S
C28 C27 1.358 . S
C28 H31 0.930 . S
C29 C26 1.348 . S
C29 C27 1.356 . S
H30 C24 0.930 . S
H31 C28 0.930 . S
C32 C34 1.348 . S
C32 C35 1.356 . S
C32 O62 1.325 . S
N33 C36 1.314 . S
N33 C37 1.279 . S
C34 C32 1.348 . S
C34 C36 1.353 . S
C34 H76 0.929 . S
C35 C32 1.356 . S
C35 C37 1.358 . S
C35 H77 0.941 . S
C36 N33 1.314 . S
C36 C34 1.353 . S
C36 H78 0.930 . S
C37 N33 1.279 . S
C37 C35 1.358 . S
C37 H79 0.930 1_455 S
C38 C39 1.348 . S
C38 C40 1.356 . S
C38 O63 1.325 . S
C39 C38 1.348 . S
C39 C41 1.353 . S
C39 H80 0.929 . S
C40 C38 1.356 . S
C40 C42 1.358 . S
C40 H81 0.930 . S
C41 C39 1.353 . S
C41 N43 1.314 . S
C41 H82 0.930 . S
C42 C40 1.358 . S
C42 N43 1.279 . S
C42 H83 0.930 . S
N43 C41 1.314 . S
N43 C42 1.279 . S
C44 C46 1.353 . S
C44 N47 1.314 . S
C44 H50 0.930 . S
C45 N47 1.279 . S
C45 C48 1.358 . S
C45 H51 0.930 . S
C46 C44 1.353 . S
C46 C49 1.348 . S
C46 H84 0.929 . S
N47 Li2 1.990 . S
N47 C44 1.314 . S
N47 C45 1.279 . S
C48 C45 1.358 . S
C48 C49 1.356 . S
C48 H85 0.930 . S
C49 C46 1.348 . S
C49 C48 1.356 . S
H50 C44 0.930 . S
H51 C45 0.930 . S
C52 N53 1.314 . S
C52 C54 1.353 . S
C52 H58 0.930 . S
N53 Li3 1.990 . S
N53 C52 1.314 . S
N53 C56 1.279 . S
C54 C52 1.353 . S
C54 C57 1.348 . S
C54 H86 0.929 . S
C55 C56 1.358 . S
C55 C57 1.356 . S
C55 H87 0.930 . S
C56 N53 1.279 . S
C56 C55 1.358 . S
C56 H59 0.930 . S
C57 C54 1.348 . S
C57 C55 1.356 . S
H58 C52 0.930 . S
H59 C56 0.930 . S
O60 Li0 1.956 . S
O60 Li1 1.970 . S
O60 Li2 1.961 . S
O60 C4 1.325 . S
O61 Li0 1.970 . S
O61 Li1 1.956 . S
O61 Li3 1.961 . S
O61 C10 1.325 . S
O62 Li0 1.961 . S
O62 Li2 1.956 . S
O62 Li3 1.970 . S
O62 C32 1.325 . S
O63 Li1 1.961 . S
O63 Li2 1.970 . S
O63 Li3 1.956 . S
O63 C38 1.325 . S
H64 C6 0.929 . S
H65 C7 0.930 . S
H66 C8 0.930 . S
H67 C9 0.930 . S
H68 C11 0.930 . S
H69 C13 0.929 . S
H70 C14 0.930 . S
H71 C15 0.930 . S
H72 C18 0.930 . S
H73 C21 0.929 . S
H74 C26 0.929 . S
H75 C27 0.930 . S
H76 C34 0.929 . S
H77 C35 0.941 . S
H78 C36 0.930 . S
H79 C37 0.930 1_655 S
H80 C39 0.929 . S
H81 C40 0.930 . S
H82 C41 0.930 . S
H83 C42 0.930 . S
H84 C46 0.929 . S
H85 C48 0.930 . S
H86 C54 0.929 . S
H87 C55 0.930 . S
Li88 N105 1.990 . S
Li88 O148 1.956 . S
Li88 O149 1.970 . S
Li88 O150 1.961 . S
Li89 N113 1.990 . S
Li89 O148 1.970 . S
Li89 O149 1.956 . S
Li89 O151 1.961 . S
Li90 N135 1.990 . S
Li90 O148 1.961 . S
Li90 O150 1.956 . S
Li90 O151 1.970 . S
Li91 N141 1.990 . S
Li91 O149 1.961 . S
Li91 O150 1.970 . S
Li91 O151 1.956 . S
C92 C94 1.348 . S
C92 C95 1.356 . S
C92 O148 1.325 . S
N93 C96 1.314 . S
N93 C97 1.279 . S
C94 C92 1.348 . S
C94 C96 1.353 . S
C94 H152 0.929 . S
C95 C92 1.356 . S
C95 C97 1.358 . S
C95 H153 0.930 . S
C96 N93 1.314 . S
C96 C94 1.353 . S
C96 H154 0.930 . S
C97 N93 1.279 . S
C97 C95 1.358 . S
C97 H155 0.930 . S
C98 C101 1.348 . S
C98 C102 1.356 . S
C98 O149 1.325 . S
C99 N100 1.279 . S
C99 C102 1.358 . S
C99 H156 0.930 . S
N100 C99 1.279 . S
N100 C103 1.314 . S
C101 C98 1.348 . S
C101 C103 1.353 . S
C101 H157 0.929 . S
C102 C98 1.356 . S
C102 C99 1.358 . S
C102 H158 0.930 . S
C103 N100 1.314 . S
C103 C101 1.353 . S
C103 H159 0.930 . S
C104 N105 1.314 . S
C104 C109 1.353 . S
C104 H110 0.930 . S
N105 Li88 1.990 . S
N105 C104 1.314 . S
N105 C107 1.279 . S
C106 C107 1.358 . S
C106 C108 1.356 . S
C106 H160 0.930 . S
C107 N105 1.279 . S
C107 C106 1.358 . S
C107 H111 0.930 . S
C108 C106 1.356 . S
C108 C109 1.348 . S
C109 C104 1.353 . S
C109 C108 1.348 . S
C109 H161 0.929 . S
H110 C104 0.930 . S
H111 C107 0.930 . S
C112 N113 1.314 . S
C112 C114 1.353 . S
C112 H118 0.930 . S
N113 Li89 1.990 . S
N113 C112 1.314 . S
N113 C116 1.279 . S
C114 C112 1.353 . S
C114 C117 1.348 . S
C114 H162 0.929 . S
C115 C116 1.358 . S
C115 C117 1.356 . S
C115 H163 0.930 . S
C116 N113 1.279 . S
C116 C115 1.358 . S
C116 H119 0.930 . S
C117 C114 1.348 . S
C117 C115 1.356 . S
H118 C112 0.930 . S
H119 C116 0.930 . S
C120 C122 1.348 . S
C120 C123 1.356 . S
C120 O150 1.325 . S
N121 C124 1.314 . S
N121 C125 1.279 . S
C122 C120 1.348 . S
C122 C124 1.353 . S
C122 H164 0.929 . S
C123 C120 1.356 . S
C123 C125 1.358 . S
C123 H165 0.930 . S
C124 N121 1.314 . S
C124 C122 1.353 . S
C124 H166 0.930 . S
C125 N121 1.279 . S
C125 C123 1.358 . S
C125 H167 0.930 . S
C126 C127 1.348 . S
C126 C128 1.356 . S
C126 O151 1.325 . S
C127 C126 1.348 . S
C127 C129 1.353 . S
C127 H168 0.929 . S
C128 C126 1.356 . S
C128 C130 1.358 . S
C128 H169 0.930 . S
C129 C127 1.353 . S
C129 N131 1.314 1_455 S
C129 H170 0.930 . S
C130 C128 1.358 . S
C130 N131 1.279 1_455 S
C130 H171 0.930 1_455 S
N131 C129 1.314 1_655 S
N131 C130 1.279 1_655 S
C132 C134 1.353 . S
C132 N135 1.314 . S
C132 H138 0.930 . S
C133 N135 1.279 . S
C133 C136 1.358 . S
C133 H139 0.930 . S
C134 C132 1.353 . S
C134 C137 1.348 . S
C134 H172 0.929 . S
N135 Li90 1.990 . S
N135 C132 1.314 . S
N135 C133 1.279 . S
C136 C133 1.358 . S
C136 C137 1.356 . S
C136 H173 0.930 . S
C137 C134 1.348 . S
C137 C136 1.356 . S
H138 C132 0.930 . S
H139 C133 0.930 . S
C140 N141 1.314 . S
C140 C142 1.353 . S
C140 H146 0.930 . S
N141 Li91 1.990 . S
N141 C140 1.314 . S
N141 C144 1.279 . S
C142 C140 1.353 . S
C142 C145 1.348 . S
C142 H174 0.929 . S
C143 C144 1.358 . S
C143 C145 1.356 . S
C143 H175 0.930 1_455 S
C144 N141 1.279 . S
C144 C143 1.358 . S
C144 H147 0.930 . S
C145 C142 1.348 . S
C145 C143 1.356 . S
H146 C140 0.930 . S
H147 C144 0.930 . S
O148 Li88 1.956 . S
O148 Li89 1.970 . S
O148 Li90 1.961 . S
O148 C92 1.325 . S
O149 Li88 1.970 . S
O149 Li89 1.956 . S
O149 Li91 1.961 . S
O149 C98 1.325 . S
O150 Li88 1.961 . S
O150 Li90 1.956 . S
O150 Li91 1.970 . S
O150 C120 1.325 . S
O151 Li89 1.961 . S
O151 Li90 1.970 . S
O151 Li91 1.956 . S
O151 C126 1.325 . S
H152 C94 0.929 . S
H153 C95 0.930 . S
H154 C96 0.930 . S
H155 C97 0.930 . S
H156 C99 0.930 . S
H157 C101 0.929 . S
H158 C102 0.930 . S
H159 C103 0.930 . S
H160 C106 0.930 . S
H161 C109 0.929 . S
H162 C114 0.929 . S
H163 C115 0.930 . S
H164 C122 0.929 . S
H165 C123 0.930 . S
H166 C124 0.930 . S
H167 C125 0.930 . S
H168 C127 0.929 . S
H169 C128 0.930 . S
H170 C129 0.930 . S
H171 C130 0.930 1_655 S
H172 C134 0.929 . S
H173 C136 0.930 . S
H174 C142 0.929 . S
H175 C143 0.930 1_655 S
Li176 N193 1.990 . S
Li176 O236 1.956 1_554 S
Li176 O237 1.977 . S
Li176 O238 1.961 1_554 S
Li177 N201 1.990 . S
Li177 O236 1.970 . S
Li177 O237 1.943 1_556 S
Li177 O239 1.961 . S
Li178 N223 1.990 1_455 S
Li178 O236 1.961 . S
Li178 O238 1.956 . S
Li178 O239 1.970 . S
Li179 N229 1.990 . S
Li179 O237 1.947 1_556 S
Li179 O238 1.970 . S
Li179 O239 1.956 . S
C180 C182 1.348 . S
C180 C183 1.360 . S
C180 O236 1.325 . S
N181 C184 1.314 . S
N181 C185 1.279 . S
C182 C180 1.348 . S
C182 C184 1.353 1_556 S
C182 H240 0.929 . S
C183 C180 1.360 . S
C183 C185 1.355 1_556 S
C183 H241 0.941 . S
C184 N181 1.314 . S
C184 C182 1.353 1_554 S
C184 H242 0.930 . S
C185 N181 1.279 . S
C185 C183 1.355 1_554 S
C185 H243 0.930 1_455 S
C186 C189 1.348 . S
C186 C190 1.356 . S
C186 O237 1.335 . S
C187 N188 1.279 . S
C187 C190 1.358 . S
C187 H244 0.930 . S
N188 C187 1.279 . S
N188 C191 1.314 . S
C189 C186 1.348 . S
C189 C191 1.353 . S
C189 H245 0.929 . S
C190 C186 1.356 . S
C190 C187 1.358 . S
C190 H246 0.930 1_554 S
C191 N188 1.314 . S
C191 C189 1.353 . S
C191 H247 0.930 . S
C192 N193 1.314 . S
C192 C197 1.353 . S
C192 H198 0.930 . S
N193 Li176 1.990 . S
N193 C192 1.314 . S
N193 C195 1.279 . S
C194 C195 1.358 . S
C194 C196 1.356 . S
C194 H248 0.930 . S
C195 N193 1.279 . S
C195 C194 1.358 . S
C195 H199 0.930 . S
C196 C194 1.356 . S
C196 C197 1.348 . S
C197 C192 1.353 . S
C197 C196 1.348 . S
C197 H249 0.929 . S
H198 C192 0.930 . S
H199 C195 0.930 . S
C200 N201 1.314 . S
C200 C202 1.353 . S
C200 H206 0.930 . S
N201 Li177 1.990 . S
N201 C200 1.314 . S
N201 C204 1.279 . S
C202 C200 1.353 . S
C202 C205 1.348 . S
C202 H250 0.929 . S
C203 C204 1.358 . S
C203 C205 1.356 . S
C203 H251 0.930 . S
C204 N201 1.279 . S
C204 C203 1.358 . S
C204 H207 0.930 . S
C205 C202 1.348 . S
C205 C203 1.356 . S
H206 C200 0.930 . S
H207 C204 0.930 . S
C208 C210 1.348 . S
C208 C211 1.356 1_456 S
C208 O238 1.325 . S
N209 C212 1.314 1_554 S
N209 C213 1.279 . S
C210 C208 1.348 . S
C210 C212 1.353 1_455 S
C210 H252 0.929 . S
C211 C208 1.356 1_654 S
C211 C213 1.358 . S
C211 H253 0.930 . S
C212 N209 1.314 1_556 S
C212 C210 1.353 1_655 S
C212 H254 0.930 . S
C213 N209 1.279 . S
C213 C211 1.358 . S
C213 H255 0.930 . S
C214 C215 1.348 . S
C214 C216 1.356 . S
C214 O239 1.325 . S
C215 C214 1.348 . S
C215 C217 1.353 . S
C215 H256 0.929 . S
C216 C214 1.356 . S
C216 C218 1.358 . S
C216 H257 0.930 . S
C217 C215 1.353 . S
C217 N219 1.314 . S
C217 H258 0.930 . S
C218 C216 1.358 . S
C218 N219 1.279 . S
C218 H259 0.930 . S
N219 C217 1.314 . S
N219 C218 1.279 . S
C220 C222 1.353 . S
C220 N223 1.314 . S
C220 H226 0.930 1_655 S
C221 N223 1.279 . S
C221 C224 1.358 . S
C221 H227 0.930 . S
C222 C220 1.353 . S
C222 C225 1.348 . S
C222 H260 0.929 . S
N223 Li178 1.990 1_655 S
N223 C220 1.314 . S
N223 C221 1.279 . S
C224 C221 1.358 . S
C224 C225 1.356 . S
C224 H261 0.930 . S
C225 C222 1.348 . S
C225 C224 1.356 . S
H226 C220 0.930 1_455 S
H227 C221 0.930 . S
C228 N229 1.314 . S
C228 C230 1.353 . S
C228 H234 0.925 1_556 S
N229 Li179 1.990 . S
N229 C228 1.314 . S
N229 C232 1.279 . S
C230 C228 1.353 . S
C230 C233 1.348 . S
C230 H262 0.929 . S
C231 C232 1.358 . S
C231 C233 1.356 . S
C231 H263 0.930 . S
C232 N229 1.279 . S
C232 C231 1.358 . S
C232 H235 0.930 . S
C233 C230 1.348 . S
C233 C231 1.356 . S
H234 C228 0.925 1_554 S
H235 C232 0.930 . S
O236 Li176 1.956 1_556 S
O236 Li177 1.970 . S
O236 Li178 1.961 . S
O236 C180 1.325 . S
O237 Li176 1.977 . S
O237 Li177 1.943 1_554 S
O237 Li179 1.947 1_554 S
O237 C186 1.335 . S
O238 Li176 1.961 1_556 S
O238 Li178 1.956 . S
O238 Li179 1.970 . S
O238 C208 1.325 . S
O239 Li177 1.961 . S
O239 Li178 1.970 . S
O239 Li179 1.956 . S
O239 C214 1.325 . S
H240 C182 0.929 . S
H241 C183 0.941 . S
H242 C184 0.930 . S
H243 C185 0.930 1_655 S
H244 C187 0.930 . S
H245 C189 0.929 . S
H246 C190 0.930 1_556 S
H247 C191 0.930 . S
H248 C194 0.930 . S
H249 C197 0.929 . S
H250 C202 0.929 . S
H251 C203 0.930 . S
H252 C210 0.929 . S
H253 C211 0.930 . S
H254 C212 0.930 . S
H255 C213 0.930 . S
H256 C215 0.929 . S
H257 C216 0.930 . S
H258 C217 0.930 . S
H259 C218 0.930 . S
H260 C222 0.929 . S
H261 C224 0.930 . S
H262 C230 0.929 . S
H263 C231 0.930 . S
Li264 N281 1.990 . S
Li264 O324 1.956 1_554 S
Li264 O325 1.977 . S
Li264 O326 1.961 1_554 S
Li265 N289 1.990 . S
Li265 O324 1.970 . S
Li265 O325 1.943 1_556 S
Li265 O327 1.961 . S
Li266 N311 1.990 . S
Li266 O324 1.961 . S
Li266 O326 1.956 . S
Li266 O327 1.970 . S
Li267 N317 1.990 . S
Li267 O325 1.947 1_556 S
Li267 O326 1.970 . S
Li267 O327 1.956 . S
C268 C270 1.348 . S
C268 C271 1.360 . S
C268 O324 1.325 . S
N269 C272 1.314 . S
N269 C273 1.279 . S
C270 C268 1.348 . S
C270 C272 1.353 1_556 S
C270 H328 0.929 . S
C271 C268 1.360 . S
C271 C273 1.355 1_556 S
C271 H329 0.929 . S
C272 N269 1.314 . S
C272 C270 1.353 1_554 S
C272 H330 0.930 . S
C273 N269 1.279 . S
C273 C271 1.355 1_554 S
C273 H331 0.930 . S
C274 C277 1.348 . S
C274 C278 1.356 . S
C274 O325 1.335 . S
C275 N276 1.279 1_455 S
C275 C278 1.358 . S
C275 H332 0.930 1_455 S
N276 C275 1.279 1_655 S
N276 C279 1.314 1_655 S
C277 C274 1.348 . S
C277 C279 1.353 . S
C277 H333 0.929 . S
C278 C274 1.356 . S
C278 C275 1.358 . S
C278 H334 0.930 1_554 S
C279 N276 1.314 1_455 S
C279 C277 1.353 . S
C279 H335 0.930 . S
C280 N281 1.314 . S
C280 C285 1.353 . S
C280 H286 0.930 . S
N281 Li264 1.990 . S
N281 C280 1.314 . S
N281 C283 1.279 . S
C282 C283 1.358 . S
C282 C284 1.356 . S
C282 H336 0.930 . S
C283 N281 1.279 . S
C283 C282 1.358 . S
C283 H287 0.930 . S
C284 C282 1.356 . S
C284 C285 1.348 . S
C285 C280 1.353 . S
C285 C284 1.348 . S
C285 H337 0.929 . S
H286 C280 0.930 . S
H287 C283 0.930 . S
C288 N289 1.314 . S
C288 C290 1.353 . S
C288 H294 0.930 . S
N289 Li265 1.990 . S
N289 C288 1.314 . S
N289 C292 1.279 . S
C290 C288 1.353 . S
C290 C293 1.348 . S
C290 H338 0.929 . S
C291 C292 1.358 . S
C291 C293 1.356 . S
C291 H339 0.930 1_455 S
C292 N289 1.279 . S
C292 C291 1.358 . S
C292 H295 0.930 . S
C293 C290 1.348 . S
C293 C291 1.356 . S
H294 C288 0.930 . S
H295 C292 0.930 . S
C296 C298 1.348 . S
C296 C299 1.356 1_556 S
C296 O326 1.325 . S
N297 C300 1.314 1_554 S
N297 C301 1.279 . S
C298 C296 1.348 . S
C298 C300 1.353 . S
C298 H340 0.929 . S
C299 C296 1.356 1_554 S
C299 C301 1.358 . S
C299 H341 0.930 . S
C300 N297 1.314 1_556 S
C300 C298 1.353 . S
C300 H342 0.930 . S
C301 N297 1.279 . S
C301 C299 1.358 . S
C301 H343 0.930 . S
C302 C303 1.348 . S
C302 C304 1.356 . S
C302 O327 1.325 . S
C303 C302 1.348 . S
C303 C305 1.353 . S
C303 H344 0.929 . S
C304 C302 1.356 . S
C304 C306 1.358 . S
C304 H345 0.930 . S
C305 C303 1.353 . S
C305 N307 1.314 . S
C305 H346 0.930 . S
C306 C304 1.358 . S
C306 N307 1.279 . S
C306 H347 0.930 . S
N307 C305 1.314 . S
N307 C306 1.279 . S
C308 C310 1.353 . S
C308 N311 1.314 . S
C308 H314 0.930 . S
C309 N311 1.279 . S
C309 C312 1.358 . S
C309 H315 0.930 . S
C310 C308 1.353 . S
C310 C313 1.348 . S
C310 H348 0.929 . S
N311 Li266 1.990 . S
N311 C308 1.314 . S
N311 C309 1.279 . S
C312 C309 1.358 . S
C312 C313 1.356 . S
C312 H349 0.930 . S
C313 C310 1.348 . S
C313 C312 1.356 . S
H314 C308 0.930 . S
H315 C309 0.930 . S
C316 N317 1.314 . S
C316 C318 1.353 . S
C316 H322 0.925 1_556 S
N317 Li267 1.990 . S
N317 C316 1.314 . S
N317 C320 1.279 . S
C318 C316 1.353 . S
C318 C321 1.348 . S
C318 H350 0.929 . S
C319 C320 1.358 . S
C319 C321 1.356 . S
C319 H351 0.930 . S
C320 N317 1.279 . S
C320 C319 1.358 . S
C320 H323 0.930 . S
C321 C318 1.348 . S
C321 C319 1.356 . S
H322 C316 0.925 1_554 S
H323 C320 0.930 . S
O324 Li264 1.956 1_556 S
O324 Li265 1.970 . S
O324 Li266 1.961 . S
O324 C268 1.325 . S
O325 Li264 1.977 . S
O325 Li265 1.943 1_554 S
O325 Li267 1.947 1_554 S
O325 C274 1.335 . S
O326 Li264 1.961 1_556 S
O326 Li266 1.956 . S
O326 Li267 1.970 . S
O326 C296 1.325 . S
O327 Li265 1.961 . S
O327 Li266 1.970 . S
O327 Li267 1.956 . S
O327 C302 1.325 . S
H328 C270 0.929 . S
H329 C271 0.929 . S
H330 C272 0.930 . S
H331 C273 0.930 . S
H332 C275 0.930 1_655 S
H333 C277 0.929 . S
H334 C278 0.930 1_556 S
H335 C279 0.930 . S
H336 C282 0.930 . S
H337 C285 0.929 . S
H338 C290 0.929 . S
H339 C291 0.930 1_655 S
H340 C298 0.929 . S
H341 C299 0.930 . S
H342 C300 0.930 . S
H343 C301 0.930 . S
H344 C303 0.929 . S
H345 C304 0.930 . S
H346 C305 0.930 . S
H347 C306 0.930 . S
H348 C310 0.929 . S
H349 C312 0.930 . S
H350 C318 0.929 . S
H351 C319 0.930 . S
Li352 N369 1.990 . S
Li352 O412 1.956 . S
Li352 O413 1.970 . S
Li352 O414 1.961 . S
Li353 N377 1.990 . S
Li353 O412 1.970 . S
Li353 O413 1.956 . S
Li353 O415 1.961 . S
Li354 N399 1.990 1_655 S
Li354 O412 1.961 . S
Li354 O414 1.956 . S
Li354 O415 1.970 . S
Li355 N405 1.990 . S
Li355 O413 1.961 . S
Li355 O414 1.970 . S
Li355 O415 1.956 . S
C356 C358 1.348 . S
C356 C359 1.356 1_655 S
C356 O412 1.325 . S
N357 C360 1.314 1_455 S
N357 C361 1.279 . S
C358 C356 1.348 . S
C358 C360 1.353 . S
C358 H416 0.929 . S
C359 C356 1.356 1_455 S
C359 C361 1.358 . S
C359 H417 0.930 . S
C360 N357 1.314 1_655 S
C360 C358 1.353 . S
C360 H418 0.930 . S
C361 N357 1.279 . S
C361 C359 1.358 . S
C361 H419 0.930 . S
C362 C365 1.348 . S
C362 C366 1.356 . S
C362 O413 1.325 . S
C363 N364 1.279 . S
C363 C366 1.358 . S
C363 H420 0.930 . S
N364 C363 1.279 . S
N364 C367 1.314 . S
C365 C362 1.348 . S
C365 C367 1.353 . S
C365 H421 0.929 . S
C366 C362 1.356 . S
C366 C363 1.358 . S
C366 H422 0.930 . S
C367 N364 1.314 . S
C367 C365 1.353 . S
C367 H423 0.930 . S
C368 N369 1.314 . S
C368 C373 1.353 . S
C368 H374 0.930 . S
N369 Li352 1.990 . S
N369 C368 1.314 . S
N369 C371 1.279 . S
C370 C371 1.358 . S
C370 C372 1.356 . S
C370 H424 0.930 . S
C371 N369 1.279 . S
C371 C370 1.358 . S
C371 H375 0.930 . S
C372 C370 1.356 . S
C372 C373 1.348 . S
C373 C368 1.353 . S
C373 C372 1.348 . S
C373 H425 0.929 . S
H374 C368 0.930 . S
H375 C371 0.930 . S
C376 N377 1.314 . S
C376 C378 1.353 . S
C376 H382 0.930 . S
N377 Li353 1.990 . S
N377 C376 1.314 . S
N377 C380 1.279 . S
C378 C376 1.353 . S
C378 C381 1.348 . S
C378 H426 0.929 . S
C379 C380 1.358 . S
C379 C381 1.356 . S
C379 H427 0.930 . S
C380 N377 1.279 . S
C380 C379 1.358 . S
C380 H383 0.930 . S
C381 C378 1.348 . S
C381 C379 1.356 . S
H382 C376 0.930 . S
H383 C380 0.930 . S
C384 C386 1.348 . S
C384 C387 1.356 . S
C384 O414 1.325 . S
N385 C388 1.314 . S
N385 C389 1.279 . S
C386 C384 1.348 . S
C386 C388 1.353 . S
C386 H428 0.929 . S
C387 C384 1.356 . S
C387 C389 1.358 . S
C387 H429 0.930 . S
C388 N385 1.314 . S
C388 C386 1.353 . S
C388 H430 0.930 . S
C389 N385 1.279 . S
C389 C387 1.358 . S
C389 H431 0.930 1_655 S
C390 C391 1.348 . S
C390 C392 1.356 . S
C390 O415 1.325 . S
C391 C390 1.348 . S
C391 C393 1.353 . S
C391 H432 0.929 . S
C392 C390 1.356 . S
C392 C394 1.358 . S
C392 H433 0.930 . S
C393 C391 1.353 . S
C393 N395 1.314 . S
C393 H434 0.930 . S
C394 C392 1.358 . S
C394 N395 1.279 . S
C394 H435 0.930 . S
N395 C393 1.314 . S
N395 C394 1.279 . S
C396 C398 1.353 . S
C396 N399 1.314 . S
C396 H402 0.930 . S
C397 N399 1.279 . S
C397 C400 1.358 . S
C397 H403 0.930 . S
C398 C396 1.353 . S
C398 C401 1.348 . S
C398 H436 0.929 . S
N399 Li354 1.990 1_455 S
N399 C396 1.314 . S
N399 C397 1.279 . S
C400 C397 1.358 . S
C400 C401 1.356 . S
C400 H437 0.930 . S
C401 C398 1.348 . S
C401 C400 1.356 . S
H402 C396 0.930 . S
H403 C397 0.930 . S
C404 N405 1.314 . S
C404 C406 1.353 . S
C404 H410 0.930 . S
N405 Li355 1.990 . S
N405 C404 1.314 . S
N405 C408 1.279 . S
C406 C404 1.353 . S
C406 C409 1.348 . S
C406 H438 0.929 . S
C407 C408 1.358 . S
C407 C409 1.356 . S
C407 H439 0.930 . S
C408 N405 1.279 . S
C408 C407 1.358 . S
C408 H411 0.930 . S
C409 C406 1.348 . S
C409 C407 1.356 . S
H410 C404 0.930 . S
H411 C408 0.930 . S
O412 Li352 1.956 . S
O412 Li353 1.970 . S
O412 Li354 1.961 . S
O412 C356 1.325 . S
O413 Li352 1.970 . S
O413 Li353 1.956 . S
O413 Li355 1.961 . S
O413 C362 1.325 . S
O414 Li352 1.961 . S
O414 Li354 1.956 . S
O414 Li355 1.970 . S
O414 C384 1.325 . S
O415 Li353 1.961 . S
O415 Li354 1.970 . S
O415 Li355 1.956 . S
O415 C390 1.325 . S
H416 C358 0.929 . S
H417 C359 0.930 . S
H418 C360 0.930 . S
H419 C361 0.930 . S
H420 C363 0.930 . S
H421 C365 0.929 . S
H422 C366 0.930 . S
H423 C367 0.930 . S
H424 C370 0.930 . S
H425 C373 0.929 . S
H426 C378 0.929 . S
H427 C379 0.930 . S
H428 C386 0.929 . S
H429 C387 0.930 . S
H430 C388 0.930 . S
H431 C389 0.930 1_455 S
H432 C391 0.929 . S
H433 C392 0.930 . S
H434 C393 0.930 . S
H435 C394 0.930 . S
H436 C398 0.929 . S
H437 C400 0.930 . S
H438 C406 0.929 . S
H439 C407 0.930 . S
Li440 N457 1.990 . S
Li440 O500 1.956 . S
Li440 O501 1.970 . S
Li440 O502 1.961 . S
Li441 N465 1.990 . S
Li441 O500 1.970 . S
Li441 O501 1.956 . S
Li441 O503 1.961 . S
Li442 N487 1.990 . S
Li442 O500 1.961 . S
Li442 O502 1.956 . S
Li442 O503 1.970 . S
Li443 N493 1.990 . S
Li443 O501 1.961 . S
Li443 O502 1.970 . S
Li443 O503 1.956 . S
C444 C446 1.348 . S
C444 C447 1.356 . S
C444 O500 1.325 . S
N445 C448 1.301 1_455 S
N445 C449 1.279 1_455 S
C446 C444 1.348 . S
C446 C448 1.353 . S
C446 H504 0.929 . S
C447 C444 1.356 . S
C447 C449 1.376 . S
C447 H505 0.930 . S
C448 N445 1.301 1_655 S
C448 C446 1.353 . S
C448 H506 0.930 . S
C449 N445 1.279 1_655 S
C449 C447 1.376 . S
C449 H507 0.911 1_655 S
C450 C453 1.348 . S
C450 C454 1.356 . S
C450 O501 1.325 . S
C451 N452 1.279 . S
C451 C454 1.358 . S
C451 H508 0.930 . S
N452 C451 1.279 . S
N452 C455 1.314 . S
C453 C450 1.348 . S
C453 C455 1.353 . S
C453 H509 0.929 . S
C454 C450 1.356 . S
C454 C451 1.358 . S
C454 H510 0.930 . S
C455 N452 1.314 . S
C455 C453 1.353 . S
C455 H511 0.930 . S
C456 N457 1.314 . S
C456 C461 1.353 . S
C456 H462 0.930 . S
N457 Li440 1.990 . S
N457 C456 1.314 . S
N457 C459 1.279 . S
C458 C459 1.358 . S
C458 C460 1.356 . S
C458 H512 0.930 . S
C459 N457 1.279 . S
C459 C458 1.358 . S
C459 H463 0.930 . S
C460 C458 1.356 . S
C460 C461 1.348 . S
C461 C456 1.353 . S
C461 C460 1.348 . S
C461 H513 0.929 . S
H462 C456 0.930 . S
H463 C459 0.930 . S
C464 N465 1.314 . S
C464 C466 1.353 . S
C464 H470 0.930 . S
N465 Li441 1.990 . S
N465 C464 1.314 . S
N465 C468 1.279 . S
C466 C464 1.353 . S
C466 C469 1.348 . S
C466 H514 0.929 . S
C467 C468 1.358 . S
C467 C469 1.356 . S
C467 H515 0.930 . S
C468 N465 1.279 . S
C468 C467 1.358 . S
C468 H471 0.930 . S
C469 C466 1.348 . S
C469 C467 1.356 . S
H470 C464 0.930 . S
H471 C468 0.930 . S
C472 C474 1.348 . S
C472 C475 1.356 . S
C472 O502 1.325 . S
N473 C476 1.314 . S
N473 C477 1.279 . S
C474 C472 1.348 . S
C474 C476 1.353 . S
C474 H516 0.929 . S
C475 C472 1.356 . S
C475 C477 1.358 . S
C475 H517 0.930 . S
C476 N473 1.314 . S
C476 C474 1.353 . S
C476 H518 0.930 . S
C477 N473 1.279 . S
C477 C475 1.358 . S
C477 H519 0.930 . S
C478 C479 1.348 . S
C478 C480 1.356 . S
C478 O503 1.325 . S
C479 C478 1.348 . S
C479 C481 1.353 . S
C479 H520 0.929 . S
C480 C478 1.356 . S
C480 C482 1.358 . S
C480 H521 0.930 . S
C481 C479 1.353 . S
C481 N483 1.314 . S
C481 H522 0.930 . S
C482 C480 1.358 . S
C482 N483 1.279 . S
C482 H523 0.930 . S
N483 C481 1.314 . S
N483 C482 1.279 . S
C484 C486 1.353 . S
C484 N487 1.314 . S
C484 H490 0.930 . S
C485 N487 1.279 . S
C485 C488 1.358 . S
C485 H491 0.930 . S
C486 C484 1.353 . S
C486 C489 1.348 . S
C486 H524 0.929 . S
N487 Li442 1.990 . S
N487 C484 1.314 . S
N487 C485 1.279 . S
C488 C485 1.358 . S
C488 C489 1.356 . S
C488 H525 0.930 . S
C489 C486 1.348 . S
C489 C488 1.356 . S
H490 C484 0.930 . S
H491 C485 0.930 . S
C492 N493 1.314 . S
C492 C494 1.353 . S
C492 H498 0.930 . S
N493 Li443 1.990 . S
N493 C492 1.314 . S
N493 C496 1.279 . S
C494 C492 1.353 . S
C494 C497 1.348 . S
C494 H526 0.929 . S
C495 C496 1.358 . S
C495 C497 1.356 . S
C495 H527 0.930 . S
C496 N493 1.279 . S
C496 C495 1.358 . S
C496 H499 0.930 . S
C497 C494 1.348 . S
C497 C495 1.356 . S
H498 C492 0.930 . S
H499 C496 0.930 . S
O500 Li440 1.956 . S
O500 Li441 1.970 . S
O500 Li442 1.961 . S
O500 C444 1.325 . S
O501 Li440 1.970 . S
O501 Li441 1.956 . S
O501 Li443 1.961 . S
O501 C450 1.325 . S
O502 Li440 1.961 . S
O502 Li442 1.956 . S
O502 Li443 1.970 . S
O502 C472 1.325 . S
O503 Li441 1.961 . S
O503 Li442 1.970 . S
O503 Li443 1.956 . S
O503 C478 1.325 . S
H504 C446 0.929 . S
H505 C447 0.930 . S
H506 C448 0.930 . S
H507 C449 0.911 1_455 S
H508 C451 0.930 . S
H509 C453 0.929 . S
H510 C454 0.930 . S
H511 C455 0.930 . S
H512 C458 0.930 . S
H513 C461 0.929 . S
H514 C466 0.929 . S
H515 C467 0.930 . S
H516 C474 0.929 . S
H517 C475 0.930 . S
H518 C476 0.930 . S
H519 C477 0.930 . S
H520 C479 0.929 . S
H521 C480 0.930 . S
H522 C481 0.930 . S
H523 C482 0.930 . S
H524 C486 0.929 . S
H525 C488 0.930 . S
H526 C494 0.929 . S
H527 C495 0.930 . S
Li528 N545 1.990 1_655 S
Li528 O588 1.956 . S
Li528 O589 1.970 . S
Li528 O590 1.961 . S
Li529 N553 1.990 . S
Li529 O588 1.970 . S
Li529 O589 1.956 . S
Li529 O591 1.962 1_554 S
Li530 N575 1.990 . S
Li530 O588 1.961 1_556 S
Li530 O590 1.956 1_556 S
Li530 O591 1.970 . S
Li531 N581 1.990 . S
Li531 O589 1.961 . S
Li531 O590 1.970 . S
Li531 O591 1.957 1_554 S
C532 C534 1.348 . S
C532 C535 1.356 1_554 S
C532 O588 1.325 . S
N533 C536 1.314 1_556 S
N533 C537 1.279 . S
C534 C532 1.348 . S
C534 C536 1.353 . S
C534 H592 0.929 . S
C535 C532 1.356 1_556 S
C535 C537 1.358 . S
C535 H593 0.930 . S
C536 N533 1.314 1_554 S
C536 C534 1.353 . S
C536 H594 0.930 . S
C537 N533 1.279 . S
C537 C535 1.358 . S
C537 H595 0.930 1_655 S
C538 C541 1.348 . S
C538 C542 1.356 . S
C538 O589 1.325 . S
C539 N540 1.279 . S
C539 C542 1.358 . S
C539 H596 0.930 . S
N540 C539 1.279 . S
N540 C543 1.314 . S
C541 C538 1.348 . S
C541 C543 1.353 . S
C541 H597 0.929 . S
C542 C538 1.356 . S
C542 C539 1.358 . S
C542 H598 0.930 . S
C543 N540 1.314 . S
C543 C541 1.353 . S
C543 H599 0.930 . S
C544 N545 1.314 . S
C544 C549 1.353 . S
C544 H550 0.930 . S
N545 Li528 1.990 1_455 S
N545 C544 1.314 . S
N545 C547 1.279 . S
C546 C547 1.358 . S
C546 C548 1.356 . S
C546 H600 0.930 . S
C547 N545 1.279 . S
C547 C546 1.358 . S
C547 H551 0.930 . S
C548 C546 1.356 . S
C548 C549 1.348 . S
C549 C544 1.353 . S
C549 C548 1.348 . S
C549 H601 0.929 . S
H550 C544 0.930 . S
H551 C547 0.930 . S
C552 N553 1.314 . S
C552 C554 1.353 . S
C552 H558 0.930 . S
N553 Li529 1.990 . S
N553 C552 1.314 . S
N553 C556 1.279 . S
C554 C552 1.353 . S
C554 C557 1.348 . S
C554 H602 0.929 . S
C555 C556 1.358 . S
C555 C557 1.356 . S
C555 H603 0.930 . S
C556 N553 1.279 . S
C556 C555 1.358 . S
C556 H559 0.930 . S
C557 C554 1.348 . S
C557 C555 1.356 . S
H558 C552 0.930 . S
H559 C556 0.930 . S
C560 C562 1.349 . S
C560 C563 1.346 1_654 S
C560 O590 1.325 . S
N561 C564 1.314 1_455 S
N561 C565 1.279 . S
C562 C560 1.349 . S
C562 C564 1.351 1_554 S
C562 H604 0.930 . S
C563 C560 1.346 1_456 S
C563 C565 1.372 . S
C563 H605 0.929 . S
C564 N561 1.314 1_655 S
C564 C562 1.351 1_556 S
C564 H606 0.930 . S
C565 N561 1.279 . S
C565 C563 1.372 . S
C565 H607 0.930 . S
C566 C567 1.348 . S
C566 C568 1.356 . S
C566 O591 1.324 . S
C567 C566 1.348 . S
C567 C569 1.353 . S
C567 H608 0.929 . S
C568 C566 1.356 . S
C568 C570 1.358 . S
C568 H609 0.930 1_556 S
C569 C567 1.353 . S
C569 N571 1.314 . S
C569 H610 0.930 . S
C570 C568 1.358 . S
C570 N571 1.279 . S
C570 H611 0.930 . S
N571 C569 1.314 . S
N571 C570 1.279 . S
C572 C574 1.353 . S
C572 N575 1.314 . S
C572 H578 0.930 . S
C573 N575 1.279 . S
C573 C576 1.358 . S
C573 H579 0.930 . S
C574 C572 1.353 . S
C574 C577 1.348 . S
C574 H612 0.929 . S
N575 Li530 1.990 . S
N575 C572 1.314 . S
N575 C573 1.279 . S
C576 C573 1.358 . S
C576 C577 1.356 . S
C576 H613 0.930 . S
C577 C574 1.348 . S
C577 C576 1.356 . S
H578 C572 0.930 . S
H579 C573 0.930 . S
C580 N581 1.314 . S
C580 C582 1.353 . S
C580 H586 0.930 . S
N581 Li531 1.990 . S
N581 C580 1.314 . S
N581 C584 1.279 . S
C582 C580 1.353 . S
C582 C585 1.348 . S
C582 H614 0.929 . S
C583 C584 1.358 . S
C583 C585 1.356 . S
C583 H615 0.930 . S
C584 N581 1.279 . S
C584 C583 1.358 . S
C584 H587 0.930 . S
C585 C582 1.348 . S
C585 C583 1.356 . S
H586 C580 0.930 . S
H587 C584 0.930 . S
O588 Li528 1.956 . S
O588 Li529 1.970 . S
O588 Li530 1.961 1_554 S
O588 C532 1.325 . S
O589 Li528 1.970 . S
O589 Li529 1.956 . S
O589 Li531 1.961 . S
O589 C538 1.325 . S
O590 Li528 1.961 . S
O590 Li530 1.956 1_554 S
O590 Li531 1.970 . S
O590 C560 1.325 . S
O591 Li529 1.962 1_556 S
O591 Li530 1.970 . S
O591 Li531 1.957 1_556 S
O591 C566 1.324 . S
H592 C534 0.929 . S
H593 C535 0.930 . S
H594 C536 0.930 . S
H595 C537 0.930 1_455 S
H596 C539 0.930 . S
H597 C541 0.929 . S
H598 C542 0.930 . S
H599 C543 0.930 . S
H600 C546 0.930 . S
H601 C549 0.929 . S
H602 C554 0.929 . S
H603 C555 0.930 . S
H604 C562 0.930 . S
H605 C563 0.929 . S
H606 C564 0.930 . S
H607 C565 0.930 . S
H608 C567 0.929 . S
H609 C568 0.930 1_554 S
H610 C569 0.930 . S
H611 C570 0.930 . S
H612 C574 0.929 . S
H613 C576 0.930 . S
H614 C582 0.929 . S
H615 C583 0.930 . S
Li616 N633 1.990 . S
Li616 O676 1.956 . S
Li616 O677 1.970 . S
Li616 O678 1.962 1_554 S
Li617 N641 1.990 . S
Li617 O676 1.970 . S
Li617 O677 1.956 . S
Li617 O679 1.961 . S
Li618 N663 1.990 . S
Li618 O676 1.961 . S
Li618 O678 1.957 1_554 S
Li618 O679 1.970 . S
Li619 N669 1.990 . S
Li619 O677 1.961 1_556 S
Li619 O678 1.970 . S
Li619 O679 1.956 1_556 S
C620 C622 1.348 . S
C620 C623 1.356 . S
C620 O676 1.325 . S
N621 C624 1.314 . S
N621 C625 1.279 . S
C622 C620 1.348 . S
C622 C624 1.353 . S
C622 H680 0.929 . S
C623 C620 1.356 . S
C623 C625 1.358 . S
C623 H681 0.930 . S
C624 N621 1.314 . S
C624 C622 1.353 . S
C624 H682 0.930 . S
C625 N621 1.279 . S
C625 C623 1.358 . S
C625 H683 0.930 . S
C626 C629 1.348 . S
C626 C630 1.356 1_554 S
C626 O677 1.325 . S
C627 N628 1.279 . S
C627 C630 1.358 . S
C627 H684 0.930 . S
N628 C627 1.279 . S
N628 C631 1.314 1_556 S
C629 C626 1.348 . S
C629 C631 1.353 . S
C629 H685 0.929 . S
C630 C626 1.356 1_556 S
C630 C627 1.358 . S
C630 H686 0.930 . S
C631 N628 1.314 1_554 S
C631 C629 1.353 . S
C631 H687 0.930 . S
C632 N633 1.314 . S
C632 C637 1.353 . S
C632 H638 0.930 . S
N633 Li616 1.990 . S
N633 C632 1.314 . S
N633 C635 1.279 . S
C634 C635 1.358 . S
C634 C636 1.356 . S
C634 H688 0.930 . S
C635 N633 1.279 . S
C635 C634 1.358 . S
C635 H639 0.930 . S
C636 C634 1.356 . S
C636 C637 1.348 . S
C637 C632 1.353 . S
C637 C636 1.348 . S
C637 H689 0.929 . S
H638 C632 0.930 . S
H639 C635 0.930 . S
C640 N641 1.314 . S
C640 C642 1.353 . S
C640 H646 0.930 . S
N641 Li617 1.990 . S
N641 C640 1.314 . S
N641 C644 1.279 . S
C642 C640 1.353 . S
C642 C645 1.348 . S
C642 H690 0.929 . S
C643 C644 1.358 . S
C643 C645 1.356 . S
C643 H691 0.930 . S
C644 N641 1.279 . S
C644 C643 1.358 . S
C644 H647 0.930 . S
C645 C642 1.348 . S
C645 C643 1.356 . S
H646 C640 0.930 . S
H647 C644 0.930 . S
C648 C650 1.348 . S
C648 C651 1.356 . S
C648 O678 1.324 . S
N649 C652 1.301 1_455 S
N649 C653 1.279 1_455 S
C650 C648 1.348 . S
C650 C652 1.353 . S
C650 H692 0.929 . S
C651 C648 1.356 . S
C651 C653 1.376 . S
C651 H693 0.930 1_556 S
C652 N649 1.301 1_655 S
C652 C650 1.353 . S
C652 H694 0.930 . S
C653 N649 1.279 1_655 S
C653 C651 1.376 . S
C653 H695 0.912 1_655 S
C654 C655 1.349 . S
C654 C656 1.346 1_554 S
C654 O679 1.325 . S
C655 C654 1.349 . S
C655 C657 1.351 1_554 S
C655 H696 0.930 . S
C656 C654 1.346 1_556 S
C656 C658 1.372 . S
C656 H697 0.929 . S
C657 C655 1.351 1_556 S
C657 N659 1.314 . S
C657 H698 0.930 . S
C658 C656 1.372 . S
C658 N659 1.279 . S
C658 H699 0.930 . S
N659 C657 1.314 . S
N659 C658 1.279 . S
C660 C662 1.353 . S
C660 N663 1.314 . S
C660 H666 0.930 . S
C661 N663 1.279 . S
C661 C664 1.358 . S
C661 H667 0.930 . S
C662 C660 1.353 . S
C662 C665 1.348 . S
C662 H700 0.929 . S
N663 Li618 1.990 . S
N663 C660 1.314 . S
N663 C661 1.279 . S
C664 C661 1.358 . S
C664 C665 1.356 . S
C664 H701 0.930 . S
C665 C662 1.348 . S
C665 C664 1.356 . S
H666 C660 0.930 . S
H667 C661 0.930 . S
C668 N669 1.314 . S
C668 C670 1.353 . S
C668 H674 0.930 . S
N669 Li619 1.990 . S
N669 C668 1.314 . S
N669 C672 1.279 . S
C670 C668 1.353 . S
C670 C673 1.348 . S
C670 H702 0.929 . S
C671 C672 1.358 . S
C671 C673 1.356 . S
C671 H703 0.930 . S
C672 N669 1.279 . S
C672 C671 1.358 . S
C672 H675 0.930 . S
C673 C670 1.348 . S
C673 C671 1.356 . S
H674 C668 0.930 . S
H675 C672 0.930 . S
O676 Li616 1.956 . S
O676 Li617 1.970 . S
O676 Li618 1.961 . S
O676 C620 1.325 . S
O677 Li616 1.970 . S
O677 Li617 1.956 . S
O677 Li619 1.961 1_554 S
O677 C626 1.325 . S
O678 Li616 1.962 1_556 S
O678 Li618 1.957 1_556 S
O678 Li619 1.970 . S
O678 C648 1.324 . S
O679 Li617 1.961 . S
O679 Li618 1.970 . S
O679 Li619 1.956 1_554 S
O679 C654 1.325 . S
H680 C622 0.929 . S
H681 C623 0.930 . S
H682 C624 0.930 . S
H683 C625 0.930 . S
H684 C627 0.930 . S
H685 C629 0.929 . S
H686 C630 0.930 . S
H687 C631 0.930 . S
H688 C634 0.930 . S
H689 C637 0.929 . S
H690 C642 0.929 . S
H691 C643 0.930 . S
H692 C650 0.929 . S
H693 C651 0.930 1_554 S
H694 C652 0.930 . S
H695 C653 0.912 1_455 S
H696 C655 0.930 . S
H697 C656 0.929 . S
H698 C657 0.930 . S
H699 C658 0.930 . S
H700 C662 0.929 . S
H701 C664 0.930 . S
H702 C670 0.929 . S
H703 C671 0.930 . S
Li704 N721 1.990 1_455 S
Li704 O764 1.956 . S
Li704 O765 1.970 . S
Li704 O766 1.961 . S
Li705 N729 1.990 . S
Li705 O764 1.970 . S
Li705 O765 1.956 . S
Li705 O767 1.961 . S
Li706 N751 1.990 . S
Li706 O764 1.961 . S
Li706 O766 1.956 . S
Li706 O767 1.970 . S
Li707 N757 1.990 . S
Li707 O765 1.961 . S
Li707 O766 1.970 . S
Li707 O767 1.956 . S
C708 C710 1.348 . S
C708 C711 1.356 1_455 S
C708 O764 1.325 . S
N709 C712 1.314 . S
N709 C713 1.279 . S
C710 C708 1.348 . S
C710 C712 1.353 1_455 S
C710 H768 0.929 . S
C711 C708 1.356 1_655 S
C711 C713 1.358 . S
C711 H769 0.930 . S
C712 N709 1.314 . S
C712 C710 1.353 1_655 S
C712 H770 0.930 . S
C713 N709 1.279 . S
C713 C711 1.358 . S
C713 H771 0.930 . S
C714 C717 1.348 . S
C714 C718 1.356 . S
C714 O765 1.325 . S
C715 N716 1.279 . S
C715 C718 1.358 . S
C715 H772 0.930 . S
N716 C715 1.279 . S
N716 C719 1.314 . S
C717 C714 1.348 . S
C717 C719 1.353 . S
C717 H773 0.929 . S
C718 C714 1.356 . S
C718 C715 1.358 . S
C718 H774 0.930 . S
C719 N716 1.314 . S
C719 C717 1.353 . S
C719 H775 0.930 . S
C720 N721 1.314 . S
C720 C725 1.353 . S
C720 H726 0.930 1_655 S
N721 Li704 1.990 1_655 S
N721 C720 1.314 . S
N721 C723 1.279 . S
C722 C723 1.358 . S
C722 C724 1.356 . S
C722 H776 0.930 . S
C723 N721 1.279 . S
C723 C722 1.358 . S
C723 H727 0.930 . S
C724 C722 1.356 . S
C724 C725 1.348 . S
C725 C720 1.353 . S
C725 C724 1.348 . S
C725 H777 0.929 . S
H726 C720 0.930 1_455 S
H727 C723 0.930 . S
C728 N729 1.314 . S
C728 C730 1.353 . S
C728 H734 0.930 . S
N729 Li705 1.990 . S
N729 C728 1.314 . S
N729 C732 1.279 . S
C730 C728 1.353 . S
C730 C733 1.348 . S
C730 H778 0.929 . S
C731 C732 1.358 . S
C731 C733 1.356 . S
C731 H779 0.930 . S
C732 N729 1.279 . S
C732 C731 1.358 . S
C732 H735 0.930 . S
C733 C730 1.348 . S
C733 C731 1.356 . S
H734 C728 0.930 . S
H735 C732 0.930 . S
C736 C738 1.348 . S
C736 C739 1.356 . S
C736 O766 1.325 . S
N737 C740 1.314 . S
N737 C741 1.279 . S
C738 C736 1.348 . S
C738 C740 1.353 . S
C738 H780 0.929 . S
C739 C736 1.356 . S
C739 C741 1.358 . S
C739 H781 0.941 . S
C740 N737 1.314 . S
C740 C738 1.353 . S
C740 H782 0.930 . S
C741 N737 1.279 . S
C741 C739 1.358 . S
C741 H783 0.930 1_455 S
C742 C743 1.348 . S
C742 C744 1.356 . S
C742 O767 1.325 . S
C743 C742 1.348 . S
C743 C745 1.353 . S
C743 H784 0.929 . S
C744 C742 1.356 . S
C744 C746 1.358 . S
C744 H785 0.930 . S
C745 C743 1.353 . S
C745 N747 1.314 . S
C745 H786 0.930 . S
C746 C744 1.358 . S
C746 N747 1.279 . S
C746 H787 0.930 . S
N747 C745 1.314 . S
N747 C746 1.279 . S
C748 C750 1.353 . S
C748 N751 1.314 . S
C748 H754 0.930 . S
C749 N751 1.279 . S
C749 C752 1.358 . S
C749 H755 0.930 . S
C750 C748 1.353 . S
C750 C753 1.348 . S
C750 H788 0.929 . S
N751 Li706 1.990 . S
N751 C748 1.314 . S
N751 C749 1.279 . S
C752 C749 1.358 . S
C752 C753 1.356 . S
C752 H789 0.930 . S
C753 C750 1.348 . S
C753 C752 1.356 . S
H754 C748 0.930 . S
H755 C749 0.930 . S
C756 N757 1.314 . S
C756 C758 1.353 . S
C756 H762 0.930 . S
N757 Li707 1.990 . S
N757 C756 1.314 . S
N757 C760 1.279 . S
C758 C756 1.353 . S
C758 C761 1.348 . S
C758 H790 0.929 . S
C759 C760 1.358 . S
C759 C761 1.356 . S
C759 H791 0.930 . S
C760 N757 1.279 . S
C760 C759 1.358 . S
C760 H763 0.930 . S
C761 C758 1.348 . S
C761 C759 1.356 . S
H762 C756 0.930 . S
H763 C760 0.930 . S
O764 Li704 1.956 . S
O764 Li705 1.970 . S
O764 Li706 1.961 . S
O764 C708 1.325 . S
O765 Li704 1.970 . S
O765 Li705 1.956 . S
O765 Li707 1.961 . S
O765 C714 1.325 . S
O766 Li704 1.961 . S
O766 Li706 1.956 . S
O766 Li707 1.970 . S
O766 C736 1.325 . S
O767 Li705 1.961 . S
O767 Li706 1.970 . S
O767 Li707 1.956 . S
O767 C742 1.325 . S
H768 C710 0.929 . S
H769 C711 0.930 . S
H770 C712 0.930 . S
H771 C713 0.930 . S
H772 C715 0.930 . S
H773 C717 0.929 . S
H774 C718 0.930 . S
H775 C719 0.930 . S
H776 C722 0.930 . S
H777 C725 0.929 . S
H778 C730 0.929 . S
H779 C731 0.930 . S
H780 C738 0.929 . S
H781 C739 0.941 . S
H782 C740 0.930 . S
H783 C741 0.930 1_655 S
H784 C743 0.929 . S
H785 C744 0.930 . S
H786 C745 0.930 . S
H787 C746 0.930 . S
H788 C750 0.929 . S
H789 C752 0.930 . S
H790 C758 0.929 . S
H791 C759 0.930 . S
Li792 N809 1.990 . S
Li792 O852 1.956 . S
Li792 O853 1.970 . S
Li792 O854 1.961 . S
Li793 N817 1.990 . S
Li793 O852 1.970 . S
Li793 O853 1.956 . S
Li793 O855 1.961 . S
Li794 N839 1.990 . S
Li794 O852 1.961 . S
Li794 O854 1.956 . S
Li794 O855 1.970 . S
Li795 N845 1.990 . S
Li795 O853 1.961 . S
Li795 O854 1.970 . S
Li795 O855 1.956 . S
C796 C798 1.348 . S
C796 C799 1.356 . S
C796 O852 1.325 . S
N797 C800 1.314 . S
N797 C801 1.279 . S
C798 C796 1.348 . S
C798 C800 1.353 . S
C798 H856 0.929 . S
C799 C796 1.356 . S
C799 C801 1.358 . S
C799 H857 0.930 . S
C800 N797 1.314 . S
C800 C798 1.353 . S
C800 H858 0.930 . S
C801 N797 1.279 . S
C801 C799 1.358 . S
C801 H859 0.930 . S
C802 C805 1.348 . S
C802 C806 1.356 . S
C802 O853 1.325 . S
C803 N804 1.279 . S
C803 C806 1.358 . S
C803 H860 0.930 . S
N804 C803 1.279 . S
N804 C807 1.314 . S
C805 C802 1.348 . S
C805 C807 1.353 . S
C805 H861 0.929 . S
C806 C802 1.356 . S
C806 C803 1.358 . S
C806 H862 0.930 . S
C807 N804 1.314 . S
C807 C805 1.353 . S
C807 H863 0.930 . S
C808 N809 1.314 . S
C808 C813 1.353 . S
C808 H814 0.930 . S
N809 Li792 1.990 . S
N809 C808 1.314 . S
N809 C811 1.279 . S
C810 C811 1.358 . S
C810 C812 1.356 . S
C810 H864 0.930 . S
C811 N809 1.279 . S
C811 C810 1.358 . S
C811 H815 0.930 . S
C812 C810 1.356 . S
C812 C813 1.348 . S
C813 C808 1.353 . S
C813 C812 1.348 . S
C813 H865 0.929 . S
H814 C808 0.930 . S
H815 C811 0.930 . S
C816 N817 1.314 . S
C816 C818 1.353 . S
C816 H822 0.930 . S
N817 Li793 1.990 . S
N817 C816 1.314 . S
N817 C820 1.279 . S
C818 C816 1.353 . S
C818 C821 1.348 . S
C818 H866 0.929 . S
C819 C820 1.358 . S
C819 C821 1.356 . S
C819 H867 0.930 . S
C820 N817 1.279 . S
C820 C819 1.358 . S
C820 H823 0.930 . S
C821 C818 1.348 . S
C821 C819 1.356 . S
H822 C816 0.930 . S
H823 C820 0.930 . S
C824 C826 1.348 . S
C824 C827 1.356 . S
C824 O854 1.325 . S
N825 C828 1.314 . S
N825 C829 1.279 . S
C826 C824 1.348 . S
C826 C828 1.353 . S
C826 H868 0.929 . S
C827 C824 1.356 . S
C827 C829 1.358 . S
C827 H869 0.930 . S
C828 N825 1.314 . S
C828 C826 1.353 . S
C828 H870 0.930 . S
C829 N825 1.279 . S
C829 C827 1.358 . S
C829 H871 0.930 . S
C830 C831 1.348 . S
C830 C832 1.356 . S
C830 O855 1.325 . S
C831 C830 1.348 . S
C831 C833 1.353 . S
C831 H872 0.929 . S
C832 C830 1.356 . S
C832 C834 1.358 . S
C832 H873 0.930 . S
C833 C831 1.353 . S
C833 N835 1.314 1_455 S
C833 H874 0.930 . S
C834 C832 1.358 . S
C834 N835 1.279 1_455 S
C834 H875 0.930 1_455 S
N835 C833 1.314 1_655 S
N835 C834 1.279 1_655 S
C836 C838 1.353 . S
C836 N839 1.314 . S
C836 H842 0.930 . S
C837 N839 1.279 . S
C837 C840 1.358 . S
C837 H843 0.930 . S
C838 C836 1.353 . S
C838 C841 1.348 . S
C838 H876 0.929 . S
N839 Li794 1.990 . S
N839 C836 1.314 . S
N839 C837 1.279 . S
C840 C837 1.358 . S
C840 C841 1.356 . S
C840 H877 0.930 . S
C841 C838 1.348 . S
C841 C840 1.356 . S
H842 C836 0.930 . S
H843 C837 0.930 . S
C844 N845 1.314 . S
C844 C846 1.353 . S
C844 H850 0.930 . S
N845 Li795 1.990 . S
N845 C844 1.314 . S
N845 C848 1.279 . S
C846 C844 1.353 . S
C846 C849 1.348 . S
C846 H878 0.929 . S
C847 C848 1.358 . S
C847 C849 1.356 . S
C847 H879 0.930 1_455 S
C848 N845 1.279 . S
C848 C847 1.358 . S
C848 H851 0.930 . S
C849 C846 1.348 . S
C849 C847 1.356 . S
H850 C844 0.930 . S
H851 C848 0.930 . S
O852 Li792 1.956 . S
O852 Li793 1.970 . S
O852 Li794 1.961 . S
O852 C796 1.325 . S
O853 Li792 1.970 . S
O853 Li793 1.956 . S
O853 Li795 1.961 . S
O853 C802 1.325 . S
O854 Li792 1.961 . S
O854 Li794 1.956 . S
O854 Li795 1.970 . S
O854 C824 1.325 . S
O855 Li793 1.961 . S
O855 Li794 1.970 . S
O855 Li795 1.956 . S
O855 C830 1.325 . S
H856 C798 0.929 . S
H857 C799 0.930 . S
H858 C800 0.930 . S
H859 C801 0.930 . S
H860 C803 0.930 . S
H861 C805 0.929 . S
H862 C806 0.930 . S
H863 C807 0.930 . S
H864 C810 0.930 . S
H865 C813 0.929 . S
H866 C818 0.929 . S
H867 C819 0.930 . S
H868 C826 0.929 . S
H869 C827 0.930 . S
H870 C828 0.930 . S
H871 C829 0.930 . S
H872 C831 0.929 . S
H873 C832 0.930 . S
H874 C833 0.930 . S
H875 C834 0.930 1_655 S
H876 C838 0.929 . S
H877 C840 0.930 . S
H878 C846 0.929 . S
H879 C847 0.930 1_655 S
Li880 N897 1.990 . S
Li880 O940 1.956 . S
Li880 O941 1.970 . S
Li880 O942 1.961 . S
Li881 N905 1.990 . S
Li881 O940 1.970 . S
Li881 O941 1.956 . S
Li881 O943 1.961 . S
Li882 N927 1.990 . S
Li882 O940 1.961 . S
Li882 O942 1.956 . S
Li882 O943 1.970 . S
Li883 N933 1.990 1_455 S
Li883 O941 1.961 . S
Li883 O942 1.970 . S
Li883 O943 1.956 . S
C884 C886 1.348 . S
C884 C887 1.356 . S
C884 O940 1.325 . S
N885 C888 1.314 . S
N885 C889 1.279 . S
C886 C884 1.348 . S
C886 C888 1.353 . S
C886 H944 0.929 . S
C887 C884 1.356 . S
C887 C889 1.358 . S
C887 H945 0.930 . S
C888 N885 1.314 . S
C888 C886 1.353 . S
C888 H946 0.930 . S
C889 N885 1.279 . S
C889 C887 1.358 . S
C889 H947 0.930 . S
C890 C893 1.348 . S
C890 C894 1.356 . S
C890 O941 1.325 . S
C891 N892 1.279 . S
C891 C894 1.358 . S
C891 H948 0.930 1_455 S
N892 C891 1.279 . S
N892 C895 1.314 . S
C893 C890 1.348 . S
C893 C895 1.353 . S
C893 H949 0.929 . S
C894 C890 1.356 . S
C894 C891 1.358 . S
C894 H950 0.942 . S
C895 N892 1.314 . S
C895 C893 1.353 . S
C895 H951 0.930 . S
C896 N897 1.314 . S
C896 C901 1.353 . S
C896 H902 0.930 . S
N897 Li880 1.990 . S
N897 C896 1.314 . S
N897 C899 1.279 . S
C898 C899 1.358 . S
C898 C900 1.356 . S
C898 H952 0.930 . S
C899 N897 1.279 . S
C899 C898 1.358 . S
C899 H903 0.930 . S
C900 C898 1.356 . S
C900 C901 1.348 . S
C901 C896 1.353 . S
C901 C900 1.348 . S
C901 H953 0.929 . S
H902 C896 0.930 . S
H903 C899 0.930 . S
C904 N905 1.314 . S
C904 C906 1.353 . S
C904 H910 0.930 . S
N905 Li881 1.990 . S
N905 C904 1.314 . S
N905 C908 1.279 . S
C906 C904 1.353 . S
C906 C909 1.348 . S
C906 H954 0.929 . S
C907 C908 1.358 . S
C907 C909 1.356 . S
C907 H955 0.930 . S
C908 N905 1.279 . S
C908 C907 1.358 . S
C908 H911 0.930 . S
C909 C906 1.348 . S
C909 C907 1.356 . S
H910 C904 0.930 . S
H911 C908 0.930 . S
C912 C914 1.348 . S
C912 C915 1.356 . S
C912 O942 1.325 . S
N913 C916 1.314 . S
N913 C917 1.279 . S
C914 C912 1.348 . S
C914 C916 1.353 . S
C914 H956 0.929 . S
C915 C912 1.356 . S
C915 C917 1.358 . S
C915 H957 0.930 . S
C916 N913 1.314 . S
C916 C914 1.353 . S
C916 H958 0.930 . S
C917 N913 1.279 . S
C917 C915 1.358 . S
C917 H959 0.930 . S
C918 C919 1.348 . S
C918 C920 1.356 1_455 S
C918 O943 1.325 . S
C919 C918 1.348 . S
C919 C921 1.353 1_455 S
C919 H960 0.929 . S
C920 C918 1.356 1_655 S
C920 C922 1.358 . S
C920 H961 0.930 . S
C921 C919 1.353 1_655 S
C921 N923 1.314 . S
C921 H962 0.930 . S
C922 C920 1.358 . S
C922 N923 1.279 . S
C922 H963 0.930 . S
N923 C921 1.314 . S
N923 C922 1.279 . S
C924 C926 1.353 . S
C924 N927 1.314 . S
C924 H930 0.930 . S
C925 N927 1.279 . S
C925 C928 1.358 . S
C925 H931 0.930 . S
C926 C924 1.353 . S
C926 C929 1.348 . S
C926 H964 0.929 . S
N927 Li882 1.990 . S
N927 C924 1.314 . S
N927 C925 1.279 . S
C928 C925 1.358 . S
C928 C929 1.356 . S
C928 H965 0.930 . S
C929 C926 1.348 . S
C929 C928 1.356 . S
H930 C924 0.930 . S
H931 C925 0.930 . S
C932 N933 1.314 . S
C932 C934 1.353 . S
C932 H938 0.930 1_655 S
N933 Li883 1.990 1_655 S
N933 C932 1.314 . S
N933 C936 1.279 . S
C934 C932 1.353 . S
C934 C937 1.348 . S
C934 H966 0.929 . S
C935 C936 1.358 . S
C935 C937 1.356 . S
C935 H967 0.930 . S
C936 N933 1.279 . S
C936 C935 1.358 . S
C936 H939 0.930 . S
C937 C934 1.348 . S
C937 C935 1.356 . S
H938 C932 0.930 1_455 S
H939 C936 0.930 . S
O940 Li880 1.956 . S
O940 Li881 1.970 . S
O940 Li882 1.961 . S
O940 C884 1.325 . S
O941 Li880 1.970 . S
O941 Li881 1.956 . S
O941 Li883 1.961 . S
O941 C890 1.325 . S
O942 Li880 1.961 . S
O942 Li882 1.956 . S
O942 Li883 1.970 . S
O942 C912 1.325 . S
O943 Li881 1.961 . S
O943 Li882 1.970 . S
O943 Li883 1.956 . S
O943 C918 1.325 . S
H944 C886 0.929 . S
H945 C887 0.930 . S
H946 C888 0.930 . S
H947 C889 0.930 . S
H948 C891 0.930 1_655 S
H949 C893 0.929 . S
H950 C894 0.942 . S
H951 C895 0.930 . S
H952 C898 0.930 . S
H953 C901 0.929 . S
H954 C906 0.929 . S
H955 C907 0.930 . S
H956 C914 0.929 . S
H957 C915 0.930 . S
H958 C916 0.930 . S
H959 C917 0.930 . S
H960 C919 0.929 . S
H961 C920 0.930 . S
H962 C921 0.930 . S
H963 C922 0.930 . S
H964 C926 0.929 . S
H965 C928 0.930 . S
H966 C934 0.929 . S
H967 C935 0.930 . S
Li968 N985 1.990 . S
Li968 O1028 1.956 . S
Li968 O1029 1.970 . S
Li968 O1030 1.961 . S
Li969 N993 1.990 . S
Li969 O1028 1.970 . S
Li969 O1029 1.956 . S
Li969 O1031 1.961 . S
Li970 N1015 1.990 . S
Li970 O1028 1.961 . S
Li970 O1030 1.956 . S
Li970 O1031 1.970 . S
Li971 N1021 1.990 . S
Li971 O1029 1.961 . S
Li971 O1030 1.970 . S
Li971 O1031 1.956 . S
C972 C974 1.348 . S
C972 C975 1.356 . S
C972 O1028 1.325 . S
N973 C976 1.314 . S
N973 C977 1.279 . S
C974 C972 1.348 . S
C974 C976 1.353 . S
C974 H1032 0.929 . S
C975 C972 1.356 . S
C975 C977 1.358 . S
C975 H1033 0.930 . S
C976 N973 1.314 . S
C976 C974 1.353 . S
C976 H1034 0.930 . S
C977 N973 1.279 . S
C977 C975 1.358 . S
C977 H1035 0.930 . S
C978 C981 1.348 . S
C978 C982 1.356 . S
C978 O1029 1.325 . S
C979 N980 1.279 1_455 S
C979 C982 1.358 . S
C979 H1036 0.930 1_455 S
N980 C979 1.279 1_655 S
N980 C983 1.314 1_655 S
C981 C978 1.348 . S
C981 C983 1.353 . S
C981 H1037 0.929 . S
C982 C978 1.356 . S
C982 C979 1.358 . S
C982 H1038 0.930 . S
C983 N980 1.314 1_455 S
C983 C981 1.353 . S
C983 H1039 0.930 . S
C984 N985 1.314 . S
C984 C989 1.353 . S
C984 H990 0.930 . S
N985 Li968 1.990 . S
N985 C984 1.314 . S
N985 C987 1.279 . S
C986 C987 1.358 . S
C986 C988 1.356 . S
C986 H1040 0.930 . S
C987 N985 1.279 . S
C987 C986 1.358 . S
C987 H991 0.930 . S
C988 C986 1.356 . S
C988 C989 1.348 . S
C989 C984 1.353 . S
C989 C988 1.348 . S
C989 H1041 0.929 . S
H990 C984 0.930 . S
H991 C987 0.930 . S
C992 N993 1.314 . S
C992 C994 1.353 . S
C992 H998 0.930 . S
N993 Li969 1.990 . S
N993 C992 1.314 . S
N993 C996 1.279 . S
C994 C992 1.353 . S
C994 C997 1.348 . S
C994 H1042 0.929 . S
C995 C996 1.358 . S
C995 C997 1.356 . S
C995 H1043 0.930 1_455 S
C996 N993 1.279 . S
C996 C995 1.358 . S
C996 H999 0.930 . S
C997 C994 1.348 . S
C997 C995 1.356 . S
H998 C992 0.930 . S
H999 C996 0.930 . S
C1000 C1002 1.348 . S
C1000 C1003 1.356 . S
C1000 O1030 1.325 . S
N1001 C1004 1.314 . S
N1001 C1005 1.279 . S
C1002 C1000 1.348 . S
C1002 C1004 1.353 . S
C1002 H1044 0.929 . S
C1003 C1000 1.356 . S
C1003 C1005 1.358 . S
C1003 H1045 0.930 . S
C1004 N1001 1.314 . S
C1004 C1002 1.353 . S
C1004 H1046 0.930 . S
C1005 N1001 1.279 . S
C1005 C1003 1.358 . S
C1005 H1047 0.930 . S
C1006 C1007 1.348 . S
C1006 C1008 1.356 . S
C1006 O1031 1.325 . S
C1007 C1006 1.348 . S
C1007 C1009 1.353 . S
C1007 H1048 0.929 . S
C1008 C1006 1.356 . S
C1008 C1010 1.358 . S
C1008 H1049 0.930 . S
C1009 C1007 1.353 . S
C1009 N1011 1.314 . S
C1009 H1050 0.930 . S
C1010 C1008 1.358 . S
C1010 N1011 1.279 . S
C1010 H1051 0.930 . S
N1011 C1009 1.314 . S
N1011 C1010 1.279 . S
C1012 C1014 1.353 . S
C1012 N1015 1.314 . S
C1012 H1018 0.930 . S
C1013 N1015 1.279 . S
C1013 C1016 1.358 . S
C1013 H1019 0.930 . S
C1014 C1012 1.353 . S
C1014 C1017 1.348 . S
C1014 H1052 0.929 . S
N1015 Li970 1.990 . S
N1015 C1012 1.314 . S
N1015 C1013 1.279 . S
C1016 C1013 1.358 . S
C1016 C1017 1.356 . S
C1016 H1053 0.930 . S
C1017 C1014 1.348 . S
C1017 C1016 1.356 . S
H1018 C1012 0.930 . S
H1019 C1013 0.930 . S
C1020 N1021 1.314 . S
C1020 C1022 1.353 . S
C1020 H1026 0.930 . S
N1021 Li971 1.990 . S
N1021 C1020 1.314 . S
N1021 C1024 1.279 . S
C1022 C1020 1.353 . S
C1022 C1025 1.348 . S
C1022 H1054 0.929 . S
C1023 C1024 1.358 . S
C1023 C1025 1.356 . S
C1023 H1055 0.930 . S
C1024 N1021 1.279 . S
C1024 C1023 1.358 . S
C1024 H1027 0.930 . S
C1025 C1022 1.348 . S
C1025 C1023 1.356 . S
H1026 C1020 0.930 . S
H1027 C1024 0.930 . S
O1028 Li968 1.956 . S
O1028 Li969 1.970 . S
O1028 Li970 1.961 . S
O1028 C972 1.325 . S
O1029 Li968 1.970 . S
O1029 Li969 1.956 . S
O1029 Li971 1.961 . S
O1029 C978 1.325 . S
O1030 Li968 1.961 . S
O1030 Li970 1.956 . S
O1030 Li971 1.970 . S
O1030 C1000 1.325 . S
O1031 Li969 1.961 . S
O1031 Li970 1.970 . S
O1031 Li971 1.956 . S
O1031 C1006 1.325 . S
H1032 C974 0.929 . S
H1033 C975 0.930 . S
H1034 C976 0.930 . S
H1035 C977 0.930 . S
H1036 C979 0.930 1_655 S
H1037 C981 0.929 . S
H1038 C982 0.930 . S
H1039 C983 0.930 . S
H1040 C986 0.930 . S
H1041 C989 0.929 . S
H1042 C994 0.929 . S
H1043 C995 0.930 1_655 S
H1044 C1002 0.929 . S
H1045 C1003 0.930 . S
H1046 C1004 0.930 . S
H1047 C1005 0.930 . S
H1048 C1007 0.929 . S
H1049 C1008 0.930 . S
H1050 C1009 0.930 . S
H1051 C1010 0.930 . S
H1052 C1014 0.929 . S
H1053 C1016 0.930 . S
H1054 C1022 0.929 . S
H1055 C1023 0.930 . S
Li1056 N1073 1.990 . S
Li1056 O1116 1.956 . S
Li1056 O1117 1.970 . S
Li1056 O1118 1.961 . S
Li1057 N1081 1.990 . S
Li1057 O1116 1.970 . S
Li1057 O1117 1.956 . S
Li1057 O1119 1.961 . S
Li1058 N1103 1.990 1_655 S
Li1058 O1116 1.961 . S
Li1058 O1118 1.956 . S
Li1058 O1119 1.970 . S
Li1059 N1109 1.990 . S
Li1059 O1117 1.961 . S
Li1059 O1118 1.970 . S
Li1059 O1119 1.956 . S
C1060 C1062 1.348 . S
C1060 C1063 1.356 1_655 S
C1060 O1116 1.325 . S
N1061 C1064 1.314 1_455 S
N1061 C1065 1.279 . S
C1062 C1060 1.348 . S
C1062 C1064 1.353 . S
C1062 H1120 0.929 . S
C1063 C1060 1.356 1_455 S
C1063 C1065 1.358 . S
C1063 H1121 0.930 . S
C1064 N1061 1.314 1_655 S
C1064 C1062 1.353 . S
C1064 H1122 0.930 . S
C1065 N1061 1.279 . S
C1065 C1063 1.358 . S
C1065 H1123 0.930 . S
C1066 C1069 1.348 . S
C1066 C1070 1.356 . S
C1066 O1117 1.325 . S
C1067 N1068 1.279 . S
C1067 C1070 1.358 . S
C1067 H1124 0.930 . S
N1068 C1067 1.279 . S
N1068 C1071 1.314 . S
C1069 C1066 1.348 . S
C1069 C1071 1.353 . S
C1069 H1125 0.929 . S
C1070 C1066 1.356 . S
C1070 C1067 1.358 . S
C1070 H1126 0.930 . S
C1071 N1068 1.314 . S
C1071 C1069 1.353 . S
C1071 H1127 0.930 . S
C1072 N1073 1.314 . S
C1072 C1077 1.353 . S
C1072 H1078 0.930 . S
N1073 Li1056 1.990 . S
N1073 C1072 1.314 . S
N1073 C1075 1.279 . S
C1074 C1075 1.358 . S
C1074 C1076 1.356 . S
C1074 H1128 0.930 . S
C1075 N1073 1.279 . S
C1075 C1074 1.358 . S
C1075 H1079 0.930 . S
C1076 C1074 1.356 . S
C1076 C1077 1.348 . S
C1077 C1072 1.353 . S
C1077 C1076 1.348 . S
C1077 H1129 0.929 . S
H1078 C1072 0.930 . S
H1079 C1075 0.930 . S
C1080 N1081 1.314 . S
C1080 C1082 1.353 . S
C1080 H1086 0.930 . S
N1081 Li1057 1.990 . S
N1081 C1080 1.314 . S
N1081 C1084 1.279 . S
C1082 C1080 1.353 . S
C1082 C1085 1.348 . S
C1082 H1130 0.929 . S
C1083 C1084 1.358 . S
C1083 C1085 1.356 . S
C1083 H1131 0.930 . S
C1084 N1081 1.279 . S
C1084 C1083 1.358 . S
C1084 H1087 0.930 . S
C1085 C1082 1.348 . S
C1085 C1083 1.356 . S
H1086 C1080 0.930 . S
H1087 C1084 0.930 . S
C1088 C1090 1.348 . S
C1088 C1091 1.356 . S
C1088 O1118 1.325 . S
N1089 C1092 1.314 . S
N1089 C1093 1.279 . S
C1090 C1088 1.348 . S
C1090 C1092 1.353 . S
C1090 H1132 0.929 . S
C1091 C1088 1.356 . S
C1091 C1093 1.358 . S
C1091 H1133 0.930 . S
C1092 N1089 1.314 . S
C1092 C1090 1.353 . S
C1092 H1134 0.930 . S
C1093 N1089 1.279 . S
C1093 C1091 1.358 . S
C1093 H1135 0.930 1_655 S
C1094 C1095 1.348 . S
C1094 C1096 1.356 . S
C1094 O1119 1.325 . S
C1095 C1094 1.348 . S
C1095 C1097 1.353 . S
C1095 H1136 0.929 . S
C1096 C1094 1.356 . S
C1096 C1098 1.358 . S
C1096 H1137 0.930 . S
C1097 C1095 1.353 . S
C1097 N1099 1.314 . S
C1097 H1138 0.930 . S
C1098 C1096 1.358 . S
C1098 N1099 1.279 . S
C1098 H1139 0.930 . S
N1099 C1097 1.314 . S
N1099 C1098 1.279 . S
C1100 C1102 1.353 . S
C1100 N1103 1.314 . S
C1100 H1106 0.930 . S
C1101 N1103 1.279 . S
C1101 C1104 1.358 . S
C1101 H1107 0.930 . S
C1102 C1100 1.353 . S
C1102 C1105 1.348 . S
C1102 H1140 0.929 . S
N1103 Li1058 1.990 1_455 S
N1103 C1100 1.314 . S
N1103 C1101 1.279 . S
C1104 C1101 1.358 . S
C1104 C1105 1.356 . S
C1104 H1141 0.930 . S
C1105 C1102 1.348 . S
C1105 C1104 1.356 . S
H1106 C1100 0.930 . S
H1107 C1101 0.930 . S
C1108 N1109 1.314 . S
C1108 C1110 1.353 . S
C1108 H1114 0.930 . S
N1109 Li1059 1.990 . S
N1109 C1108 1.314 . S
N1109 C1112 1.279 . S
C1110 C1108 1.353 . S
C1110 C1113 1.348 . S
C1110 H1142 0.929 . S
C1111 C1112 1.358 . S
C1111 C1113 1.356 . S
C1111 H1143 0.930 . S
C1112 N1109 1.279 . S
C1112 C1111 1.358 . S
C1112 H1115 0.930 . S
C1113 C1110 1.348 . S
C1113 C1111 1.356 . S
H1114 C1108 0.930 . S
H1115 C1112 0.930 . S
O1116 Li1056 1.956 . S
O1116 Li1057 1.970 . S
O1116 Li1058 1.961 . S
O1116 C1060 1.325 . S
O1117 Li1056 1.970 . S
O1117 Li1057 1.956 . S
O1117 Li1059 1.961 . S
O1117 C1066 1.325 . S
O1118 Li1056 1.961 . S
O1118 Li1058 1.956 . S
O1118 Li1059 1.970 . S
O1118 C1088 1.325 . S
O1119 Li1057 1.961 . S
O1119 Li1058 1.970 . S
O1119 Li1059 1.956 . S
O1119 C1094 1.325 . S
H1120 C1062 0.929 . S
H1121 C1063 0.930 . S
H1122 C1064 0.930 . S
H1123 C1065 0.930 . S
H1124 C1067 0.930 . S
H1125 C1069 0.929 . S
H1126 C1070 0.930 . S
H1127 C1071 0.930 . S
H1128 C1074 0.930 . S
H1129 C1077 0.929 . S
H1130 C1082 0.929 . S
H1131 C1083 0.930 . S
H1132 C1090 0.929 . S
H1133 C1091 0.930 . S
H1134 C1092 0.930 . S
H1135 C1093 0.930 1_455 S
H1136 C1095 0.929 . S
H1137 C1096 0.930 . S
H1138 C1097 0.930 . S
H1139 C1098 0.930 . S
H1140 C1102 0.929 . S
H1141 C1104 0.930 . S
H1142 C1110 0.929 . S
H1143 C1111 0.930 . S
Li1144 N1161 1.990 . S
Li1144 O1204 1.956 . S
Li1144 O1205 1.970 . S
Li1144 O1206 1.961 . S
Li1145 N1169 1.990 . S
Li1145 O1204 1.970 . S
Li1145 O1205 1.956 . S
Li1145 O1207 1.961 . S
Li1146 N1191 1.990 . S
Li1146 O1204 1.961 . S
Li1146 O1206 1.956 . S
Li1146 O1207 1.970 . S
Li1147 N1197 1.990 . S
Li1147 O1205 1.961 . S
Li1147 O1206 1.970 . S
Li1147 O1207 1.956 . S
C1148 C1150 1.348 . S
C1148 C1151 1.356 . S
C1148 O1204 1.325 . S
N1149 C1152 1.301 1_455 S
N1149 C1153 1.279 1_455 S
C1150 C1148 1.348 . S
C1150 C1152 1.353 . S
C1150 H1208 0.929 . S
C1151 C1148 1.356 . S
C1151 C1153 1.376 . S
C1151 H1209 0.930 . S
C1152 N1149 1.301 1_655 S
C1152 C1150 1.353 . S
C1152 H1210 0.930 . S
C1153 N1149 1.279 1_655 S
C1153 C1151 1.376 . S
C1153 H1211 0.911 1_655 S
C1154 C1157 1.348 . S
C1154 C1158 1.356 . S
C1154 O1205 1.325 . S
C1155 N1156 1.279 . S
C1155 C1158 1.358 . S
C1155 H1212 0.930 . S
N1156 C1155 1.279 . S
N1156 C1159 1.314 . S
C1157 C1154 1.348 . S
C1157 C1159 1.353 . S
C1157 H1213 0.929 . S
C1158 C1154 1.356 . S
C1158 C1155 1.358 . S
C1158 H1214 0.930 . S
C1159 N1156 1.314 . S
C1159 C1157 1.353 . S
C1159 H1215 0.930 . S
C1160 N1161 1.314 . S
C1160 C1165 1.353 . S
C1160 H1166 0.930 . S
N1161 Li1144 1.990 . S
N1161 C1160 1.314 . S
N1161 C1163 1.279 . S
C1162 C1163 1.358 . S
C1162 C1164 1.356 . S
C1162 H1216 0.930 . S
C1163 N1161 1.279 . S
C1163 C1162 1.358 . S
C1163 H1167 0.930 . S
C1164 C1162 1.356 . S
C1164 C1165 1.348 . S
C1165 C1160 1.353 . S
C1165 C1164 1.348 . S
C1165 H1217 0.929 . S
H1166 C1160 0.930 . S
H1167 C1163 0.930 . S
C1168 N1169 1.314 . S
C1168 C1170 1.353 . S
C1168 H1174 0.930 . S
N1169 Li1145 1.990 . S
N1169 C1168 1.314 . S
N1169 C1172 1.279 . S
C1170 C1168 1.353 . S
C1170 C1173 1.348 . S
C1170 H1218 0.929 . S
C1171 C1172 1.358 . S
C1171 C1173 1.356 . S
C1171 H1219 0.930 . S
C1172 N1169 1.279 . S
C1172 C1171 1.358 . S
C1172 H1175 0.930 . S
C1173 C1170 1.348 . S
C1173 C1171 1.356 . S
H1174 C1168 0.930 . S
H1175 C1172 0.930 . S
C1176 C1178 1.348 . S
C1176 C1179 1.356 . S
C1176 O1206 1.325 . S
N1177 C1180 1.314 . S
N1177 C1181 1.279 . S
C1178 C1176 1.348 . S
C1178 C1180 1.353 . S
C1178 H1220 0.929 . S
C1179 C1176 1.356 . S
C1179 C1181 1.358 . S
C1179 H1221 0.930 . S
C1180 N1177 1.314 . S
C1180 C1178 1.353 . S
C1180 H1222 0.930 . S
C1181 N1177 1.279 . S
C1181 C1179 1.358 . S
C1181 H1223 0.930 . S
C1182 C1183 1.348 . S
C1182 C1184 1.356 . S
C1182 O1207 1.325 . S
C1183 C1182 1.348 . S
C1183 C1185 1.353 . S
C1183 H1224 0.929 . S
C1184 C1182 1.356 . S
C1184 C1186 1.358 . S
C1184 H1225 0.930 . S
C1185 C1183 1.353 . S
C1185 N1187 1.314 . S
C1185 H1226 0.930 . S
C1186 C1184 1.358 . S
C1186 N1187 1.279 . S
C1186 H1227 0.930 . S
N1187 C1185 1.314 . S
N1187 C1186 1.279 . S
C1188 C1190 1.353 . S
C1188 N1191 1.314 . S
C1188 H1194 0.930 . S
C1189 N1191 1.279 . S
C1189 C1192 1.358 . S
C1189 H1195 0.930 . S
C1190 C1188 1.353 . S
C1190 C1193 1.348 . S
C1190 H1228 0.929 . S
N1191 Li1146 1.990 . S
N1191 C1188 1.314 . S
N1191 C1189 1.279 . S
C1192 C1189 1.358 . S
C1192 C1193 1.356 . S
C1192 H1229 0.930 . S
C1193 C1190 1.348 . S
C1193 C1192 1.356 . S
H1194 C1188 0.930 . S
H1195 C1189 0.930 . S
C1196 N1197 1.314 . S
C1196 C1198 1.353 . S
C1196 H1202 0.930 . S
N1197 Li1147 1.990 . S
N1197 C1196 1.314 . S
N1197 C1200 1.279 . S
C1198 C1196 1.353 . S
C1198 C1201 1.348 . S
C1198 H1230 0.929 . S
C1199 C1200 1.358 . S
C1199 C1201 1.356 . S
C1199 H1231 0.930 . S
C1200 N1197 1.279 . S
C1200 C1199 1.358 . S
C1200 H1203 0.930 . S
C1201 C1198 1.348 . S
C1201 C1199 1.356 . S
H1202 C1196 0.930 . S
H1203 C1200 0.930 . S
O1204 Li1144 1.956 . S
O1204 Li1145 1.970 . S
O1204 Li1146 1.961 . S
O1204 C1148 1.325 . S
O1205 Li1144 1.970 . S
O1205 Li1145 1.956 . S
O1205 Li1147 1.961 . S
O1205 C1154 1.325 . S
O1206 Li1144 1.961 . S
O1206 Li1146 1.956 . S
O1206 Li1147 1.970 . S
O1206 C1176 1.325 . S
O1207 Li1145 1.961 . S
O1207 Li1146 1.970 . S
O1207 Li1147 1.956 . S
O1207 C1182 1.325 . S
H1208 C1150 0.929 . S
H1209 C1151 0.930 . S
H1210 C1152 0.930 . S
H1211 C1153 0.911 1_455 S
H1212 C1155 0.930 . S
H1213 C1157 0.929 . S
H1214 C1158 0.930 . S
H1215 C1159 0.930 . S
H1216 C1162 0.930 . S
H1217 C1165 0.929 . S
H1218 C1170 0.929 . S
H1219 C1171 0.930 . S
H1220 C1178 0.929 . S
H1221 C1179 0.930 . S
H1222 C1180 0.930 . S
H1223 C1181 0.930 . S
H1224 C1183 0.929 . S
H1225 C1184 0.930 . S
H1226 C1185 0.930 . S
H1227 C1186 0.930 . S
H1228 C1190 0.929 . S
H1229 C1192 0.930 . S
H1230 C1198 0.929 . S
H1231 C1199 0.930 . S
Li1232 N1249 1.990 1_655 S
Li1232 O1292 1.956 . S
Li1232 O1293 1.970 . S
Li1232 O1294 1.961 . S
Li1233 N1257 1.990 . S
Li1233 O1292 1.970 . S
Li1233 O1293 1.956 . S
Li1233 O1295 1.961 . S
Li1234 N1279 1.990 . S
Li1234 O1292 1.961 . S
Li1234 O1294 1.956 . S
Li1234 O1295 1.970 . S
Li1235 N1285 1.990 . S
Li1235 O1293 1.961 . S
Li1235 O1294 1.970 . S
Li1235 O1295 1.956 . S
C1236 C1238 1.348 . S
C1236 C1239 1.356 . S
C1236 O1292 1.325 . S
N1237 C1240 1.314 . S
N1237 C1241 1.279 . S
C1238 C1236 1.348 . S
C1238 C1240 1.353 . S
C1238 H1296 0.929 . S
C1239 C1236 1.356 . S
C1239 C1241 1.358 . S
C1239 H1297 0.930 . S
C1240 N1237 1.314 . S
C1240 C1238 1.353 . S
C1240 H1298 0.930 . S
C1241 N1237 1.279 . S
C1241 C1239 1.358 . S
C1241 H1299 0.930 1_655 S
C1242 C1245 1.348 . S
C1242 C1246 1.356 . S
C1242 O1293 1.325 . S
C1243 N1244 1.279 . S
C1243 C1246 1.358 . S
C1243 H1300 0.930 . S
N1244 C1243 1.279 . S
N1244 C1247 1.314 . S
C1245 C1242 1.348 . S
C1245 C1247 1.353 . S
C1245 H1301 0.929 . S
C1246 C1242 1.356 . S
C1246 C1243 1.358 . S
C1246 H1302 0.930 . S
C1247 N1244 1.314 . S
C1247 C1245 1.353 . S
C1247 H1303 0.930 . S
C1248 N1249 1.314 . S
C1248 C1253 1.353 . S
C1248 H1254 0.930 . S
N1249 Li1232 1.990 1_455 S
N1249 C1248 1.314 . S
N1249 C1251 1.279 . S
C1250 C1251 1.358 . S
C1250 C1252 1.356 . S
C1250 H1304 0.930 . S
C1251 N1249 1.279 . S
C1251 C1250 1.358 . S
C1251 H1255 0.930 . S
C1252 C1250 1.356 . S
C1252 C1253 1.348 . S
C1253 C1248 1.353 . S
C1253 C1252 1.348 . S
C1253 H1305 0.929 . S
H1254 C1248 0.930 . S
H1255 C1251 0.930 . S
C1256 N1257 1.314 . S
C1256 C1258 1.353 . S
C1256 H1262 0.930 . S
N1257 Li1233 1.990 . S
N1257 C1256 1.314 . S
N1257 C1260 1.279 . S
C1258 C1256 1.353 . S
C1258 C1261 1.348 . S
C1258 H1306 0.929 . S
C1259 C1260 1.358 . S
C1259 C1261 1.356 . S
C1259 H1307 0.930 . S
C1260 N1257 1.279 . S
C1260 C1259 1.358 . S
C1260 H1263 0.930 . S
C1261 C1258 1.348 . S
C1261 C1259 1.356 . S
H1262 C1256 0.930 . S
H1263 C1260 0.930 . S
C1264 C1266 1.348 . S
C1264 C1267 1.356 1_655 S
C1264 O1294 1.325 . S
N1265 C1268 1.314 1_455 S
N1265 C1269 1.279 . S
C1266 C1264 1.348 . S
C1266 C1268 1.353 . S
C1266 H1308 0.929 . S
C1267 C1264 1.356 1_455 S
C1267 C1269 1.358 . S
C1267 H1309 0.930 . S
C1268 N1265 1.314 1_655 S
C1268 C1266 1.353 . S
C1268 H1310 0.930 . S
C1269 N1265 1.279 . S
C1269 C1267 1.358 . S
C1269 H1311 0.930 . S
C1270 C1271 1.348 . S
C1270 C1272 1.356 . S
C1270 O1295 1.325 . S
C1271 C1270 1.348 . S
C1271 C1273 1.353 . S
C1271 H1312 0.929 . S
C1272 C1270 1.356 . S
C1272 C1274 1.358 . S
C1272 H1313 0.930 . S
C1273 C1271 1.353 . S
C1273 N1275 1.314 . S
C1273 H1314 0.930 . S
C1274 C1272 1.358 . S
C1274 N1275 1.279 . S
C1274 H1315 0.930 . S
N1275 C1273 1.314 . S
N1275 C1274 1.279 . S
C1276 C1278 1.353 . S
C1276 N1279 1.314 . S
C1276 H1282 0.930 . S
C1277 N1279 1.279 . S
C1277 C1280 1.358 . S
C1277 H1283 0.930 . S
C1278 C1276 1.353 . S
C1278 C1281 1.348 . S
C1278 H1316 0.929 . S
N1279 Li1234 1.990 . S
N1279 C1276 1.314 . S
N1279 C1277 1.279 . S
C1280 C1277 1.358 . S
C1280 C1281 1.356 . S
C1280 H1317 0.930 . S
C1281 C1278 1.348 . S
C1281 C1280 1.356 . S
H1282 C1276 0.930 . S
H1283 C1277 0.930 . S
C1284 N1285 1.314 . S
C1284 C1286 1.353 . S
C1284 H1290 0.930 . S
N1285 Li1235 1.990 . S
N1285 C1284 1.314 . S
N1285 C1288 1.279 . S
C1286 C1284 1.353 . S
C1286 C1289 1.348 . S
C1286 H1318 0.929 . S
C1287 C1288 1.358 . S
C1287 C1289 1.356 . S
C1287 H1319 0.930 . S
C1288 N1285 1.279 . S
C1288 C1287 1.358 . S
C1288 H1291 0.930 . S
C1289 C1286 1.348 . S
C1289 C1287 1.356 . S
H1290 C1284 0.930 . S
H1291 C1288 0.930 . S
O1292 Li1232 1.956 . S
O1292 Li1233 1.970 . S
O1292 Li1234 1.961 . S
O1292 C1236 1.325 . S
O1293 Li1232 1.970 . S
O1293 Li1233 1.956 . S
O1293 Li1235 1.961 . S
O1293 C1242 1.325 . S
O1294 Li1232 1.961 . S
O1294 Li1234 1.956 . S
O1294 Li1235 1.970 . S
O1294 C1264 1.325 . S
O1295 Li1233 1.961 . S
O1295 Li1234 1.970 . S
O1295 Li1235 1.956 . S
O1295 C1270 1.325 . S
H1296 C1238 0.929 . S
H1297 C1239 0.930 . S
H1298 C1240 0.930 . S
H1299 C1241 0.930 1_455 S
H1300 C1243 0.930 . S
H1301 C1245 0.929 . S
H1302 C1246 0.930 . S
H1303 C1247 0.930 . S
H1304 C1250 0.930 . S
H1305 C1253 0.929 . S
H1306 C1258 0.929 . S
H1307 C1259 0.930 . S
H1308 C1266 0.929 . S
H1309 C1267 0.930 . S
H1310 C1268 0.930 . S
H1311 C1269 0.930 . S
H1312 C1271 0.929 . S
H1313 C1272 0.930 . S
H1314 C1273 0.930 . S
H1315 C1274 0.930 . S
H1316 C1278 0.929 . S
H1317 C1280 0.930 . S
H1318 C1286 0.929 . S
H1319 C1287 0.930 . S
Li1320 N1337 1.990 . S
Li1320 O1380 1.956 . S
Li1320 O1381 1.970 . S
Li1320 O1382 1.961 . S
Li1321 N1345 1.990 . S
Li1321 O1380 1.970 . S
Li1321 O1381 1.956 . S
Li1321 O1383 1.961 . S
Li1322 N1367 1.990 . S
Li1322 O1380 1.961 . S
Li1322 O1382 1.956 . S
Li1322 O1383 1.970 . S
Li1323 N1373 1.990 . S
Li1323 O1381 1.961 . S
Li1323 O1382 1.970 . S
Li1323 O1383 1.956 . S
C1324 C1326 1.348 . S
C1324 C1327 1.356 . S
C1324 O1380 1.325 . S
N1325 C1328 1.314 . S
N1325 C1329 1.279 . S
C1326 C1324 1.348 . S
C1326 C1328 1.353 . S
C1326 H1384 0.929 . S
C1327 C1324 1.356 . S
C1327 C1329 1.358 . S
C1327 H1385 0.930 . S
C1328 N1325 1.314 . S
C1328 C1326 1.353 . S
C1328 H1386 0.930 . S
C1329 N1325 1.279 . S
C1329 C1327 1.358 . S
C1329 H1387 0.930 . S
C1330 C1333 1.348 . S
C1330 C1334 1.356 . S
C1330 O1381 1.325 . S
C1331 N1332 1.279 . S
C1331 C1334 1.358 . S
C1331 H1388 0.930 . S
N1332 C1331 1.279 . S
N1332 C1335 1.314 . S
C1333 C1330 1.348 . S
C1333 C1335 1.353 . S
C1333 H1389 0.929 . S
C1334 C1330 1.356 . S
C1334 C1331 1.358 . S
C1334 H1390 0.930 . S
C1335 N1332 1.314 . S
C1335 C1333 1.353 . S
C1335 H1391 0.930 . S
C1336 N1337 1.314 . S
C1336 C1341 1.353 . S
C1336 H1342 0.930 . S
N1337 Li1320 1.990 . S
N1337 C1336 1.314 . S
N1337 C1339 1.279 . S
C1338 C1339 1.358 . S
C1338 C1340 1.356 . S
C1338 H1392 0.930 . S
C1339 N1337 1.279 . S
C1339 C1338 1.358 . S
C1339 H1343 0.930 . S
C1340 C1338 1.356 . S
C1340 C1341 1.348 . S
C1341 C1336 1.353 . S
C1341 C1340 1.348 . S
C1341 H1393 0.929 . S
H1342 C1336 0.930 . S
H1343 C1339 0.930 . S
C1344 N1345 1.314 . S
C1344 C1346 1.353 . S
C1344 H1350 0.930 . S
N1345 Li1321 1.990 . S
N1345 C1344 1.314 . S
N1345 C1348 1.279 . S
C1346 C1344 1.353 . S
C1346 C1349 1.348 . S
C1346 H1394 0.929 . S
C1347 C1348 1.358 . S
C1347 C1349 1.356 . S
C1347 H1395 0.930 . S
C1348 N1345 1.279 . S
C1348 C1347 1.358 . S
C1348 H1351 0.930 . S
C1349 C1346 1.348 . S
C1349 C1347 1.356 . S
H1350 C1344 0.930 . S
H1351 C1348 0.930 . S
C1352 C1354 1.348 . S
C1352 C1355 1.356 . S
C1352 O1382 1.325 . S
N1353 C1356 1.300 1_455 S
N1353 C1357 1.279 1_455 S
C1354 C1352 1.348 . S
C1354 C1356 1.353 . S
C1354 H1396 0.929 . S
C1355 C1352 1.356 . S
C1355 C1357 1.375 . S
C1355 H1397 0.930 . S
C1356 N1353 1.300 1_655 S
C1356 C1354 1.353 . S
C1356 H1398 0.930 . S
C1357 N1353 1.279 1_655 S
C1357 C1355 1.375 . S
C1357 H1399 0.913 1_655 S
C1358 C1359 1.348 . S
C1358 C1360 1.356 . S
C1358 O1383 1.325 . S
C1359 C1358 1.348 . S
C1359 C1361 1.353 . S
C1359 H1400 0.929 . S
C1360 C1358 1.356 . S
C1360 C1362 1.358 . S
C1360 H1401 0.930 . S
C1361 C1359 1.353 . S
C1361 N1363 1.314 . S
C1361 H1402 0.930 . S
C1362 C1360 1.358 . S
C1362 N1363 1.279 . S
C1362 H1403 0.930 . S
N1363 C1361 1.314 . S
N1363 C1362 1.279 . S
C1364 C1366 1.353 . S
C1364 N1367 1.314 . S
C1364 H1370 0.930 . S
C1365 N1367 1.279 . S
C1365 C1368 1.358 . S
C1365 H1371 0.930 . S
C1366 C1364 1.353 . S
C1366 C1369 1.348 . S
C1366 H1404 0.929 . S
N1367 Li1322 1.990 . S
N1367 C1364 1.314 . S
N1367 C1365 1.279 . S
C1368 C1365 1.358 . S
C1368 C1369 1.356 . S
C1368 H1405 0.930 . S
C1369 C1366 1.348 . S
C1369 C1368 1.356 . S
H1370 C1364 0.930 . S
H1371 C1365 0.930 . S
C1372 N1373 1.314 . S
C1372 C1374 1.353 . S
C1372 H1378 0.930 . S
N1373 Li1323 1.990 . S
N1373 C1372 1.314 . S
N1373 C1376 1.279 . S
C1374 C1372 1.353 . S
C1374 C1377 1.348 . S
C1374 H1406 0.929 . S
C1375 C1376 1.358 . S
C1375 C1377 1.356 . S
C1375 H1407 0.930 . S
C1376 N1373 1.279 . S
C1376 C1375 1.358 . S
C1376 H1379 0.930 . S
C1377 C1374 1.348 . S
C1377 C1375 1.356 . S
H1378 C1372 0.930 . S
H1379 C1376 0.930 . S
O1380 Li1320 1.956 . S
O1380 Li1321 1.970 . S
O1380 Li1322 1.961 . S
O1380 C1324 1.325 . S
O1381 Li1320 1.970 . S
O1381 Li1321 1.956 . S
O1381 Li1323 1.961 . S
O1381 C1330 1.325 . S
O1382 Li1320 1.961 . S
O1382 Li1322 1.956 . S
O1382 Li1323 1.970 . S
O1382 C1352 1.325 . S
O1383 Li1321 1.961 . S
O1383 Li1322 1.970 . S
O1383 Li1323 1.956 . S
O1383 C1358 1.325 . S
H1384 C1326 0.929 . S
H1385 C1327 0.930 . S
H1386 C1328 0.930 . S
H1387 C1329 0.930 . S
H1388 C1331 0.930 . S
H1389 C1333 0.929 . S
H1390 C1334 0.930 . S
H1391 C1335 0.930 . S
H1392 C1338 0.930 . S
H1393 C1341 0.929 . S
H1394 C1346 0.929 . S
H1395 C1347 0.930 . S
H1396 C1354 0.929 . S
H1397 C1355 0.930 . S
H1398 C1356 0.930 . S
H1399 C1357 0.913 1_455 S
H1400 C1359 0.929 . S
H1401 C1360 0.930 . S
H1402 C1361 0.930 . S
H1403 C1362 0.930 . S
H1404 C1366 0.929 . S
H1405 C1368 0.930 . S
H1406 C1374 0.929 . S
H1407 C1375 0.930 . S
Li1408 N1425 1.990 . S
Li1408 O1468 1.956 . S
Li1408 O1469 1.970 . S
Li1408 O1470 1.961 . S
Li1409 N1433 1.990 . S
Li1409 O1468 1.970 . S
Li1409 O1469 1.956 . S
Li1409 O1471 1.961 . S
Li1410 N1455 1.990 . S
Li1410 O1468 1.961 . S
Li1410 O1470 1.956 . S
Li1410 O1471 1.970 . S
Li1411 N1461 1.990 . S
Li1411 O1469 1.961 . S
Li1411 O1470 1.970 . S
Li1411 O1471 1.956 . S
C1412 C1414 1.348 . S
C1412 C1415 1.356 . S
C1412 O1468 1.325 . S
N1413 C1416 1.314 . S
N1413 C1417 1.279 . S
C1414 C1412 1.348 . S
C1414 C1416 1.353 . S
C1414 H1472 0.929 . S
C1415 C1412 1.356 . S
C1415 C1417 1.358 . S
C1415 H1473 0.930 . S
C1416 N1413 1.314 . S
C1416 C1414 1.353 . S
C1416 H1474 0.930 . S
C1417 N1413 1.279 . S
C1417 C1415 1.358 . S
C1417 H1475 0.930 . S
C1418 C1421 1.348 . S
C1418 C1422 1.356 . S
C1418 O1469 1.325 . S
C1419 N1420 1.279 . S
C1419 C1422 1.358 . S
C1419 H1476 0.930 . S
N1420 C1419 1.279 . S
N1420 C1423 1.314 . S
C1421 C1418 1.348 . S
C1421 C1423 1.353 . S
C1421 H1477 0.929 . S
C1422 C1418 1.356 . S
C1422 C1419 1.358 . S
C1422 H1478 0.930 . S
C1423 N1420 1.314 . S
C1423 C1421 1.353 . S
C1423 H1479 0.930 . S
C1424 N1425 1.314 . S
C1424 C1429 1.353 . S
C1424 H1430 0.930 . S
N1425 Li1408 1.990 . S
N1425 C1424 1.314 . S
N1425 C1427 1.279 . S
C1426 C1427 1.358 . S
C1426 C1428 1.356 . S
C1426 H1480 0.930 . S
C1427 N1425 1.279 . S
C1427 C1426 1.358 . S
C1427 H1431 0.930 . S
C1428 C1426 1.356 . S
C1428 C1429 1.348 . S
C1429 C1424 1.353 . S
C1429 C1428 1.348 . S
C1429 H1481 0.929 . S
H1430 C1424 0.930 . S
H1431 C1427 0.930 . S
C1432 N1433 1.314 . S
C1432 C1434 1.353 . S
C1432 H1438 0.930 . S
N1433 Li1409 1.990 . S
N1433 C1432 1.314 . S
N1433 C1436 1.279 . S
C1434 C1432 1.353 . S
C1434 C1437 1.348 . S
C1434 H1482 0.929 . S
C1435 C1436 1.358 . S
C1435 C1437 1.356 . S
C1435 H1483 0.930 . S
C1436 N1433 1.279 . S
C1436 C1435 1.358 . S
C1436 H1439 0.930 . S
C1437 C1434 1.348 . S
C1437 C1435 1.356 . S
H1438 C1432 0.930 . S
H1439 C1436 0.930 . S
C1440 C1442 1.348 . S
C1440 C1443 1.356 . S
C1440 O1470 1.325 . S
N1441 C1444 1.314 . S
N1441 C1445 1.279 . S
C1442 C1440 1.348 . S
C1442 C1444 1.353 . S
C1442 H1484 0.929 . S
C1443 C1440 1.356 . S
C1443 C1445 1.358 . S
C1443 H1485 0.930 . S
C1444 N1441 1.314 . S
C1444 C1442 1.353 . S
C1444 H1486 0.930 . S
C1445 N1441 1.279 . S
C1445 C1443 1.358 . S
C1445 H1487 0.930 . S
C1446 C1447 1.348 . S
C1446 C1448 1.356 . S
C1446 O1471 1.325 . S
C1447 C1446 1.348 . S
C1447 C1449 1.353 . S
C1447 H1488 0.929 . S
C1448 C1446 1.356 . S
C1448 C1450 1.358 . S
C1448 H1489 0.930 . S
C1449 C1447 1.353 . S
C1449 N1451 1.314 . S
C1449 H1490 0.930 . S
C1450 C1448 1.358 . S
C1450 N1451 1.279 . S
C1450 H1491 0.930 . S
N1451 C1449 1.314 . S
N1451 C1450 1.279 . S
C1452 C1454 1.353 . S
C1452 N1455 1.314 . S
C1452 H1458 0.930 . S
C1453 N1455 1.279 . S
C1453 C1456 1.358 . S
C1453 H1459 0.930 . S
C1454 C1452 1.353 . S
C1454 C1457 1.348 . S
C1454 H1492 0.929 . S
N1455 Li1410 1.990 . S
N1455 C1452 1.314 . S
N1455 C1453 1.279 . S
C1456 C1453 1.358 . S
C1456 C1457 1.356 . S
C1456 H1493 0.930 . S
C1457 C1454 1.348 . S
C1457 C1456 1.356 . S
H1458 C1452 0.930 . S
H1459 C1453 0.930 . S
C1460 N1461 1.314 . S
C1460 C1462 1.353 . S
C1460 H1466 0.930 . S
N1461 Li1411 1.990 . S
N1461 C1460 1.314 . S
N1461 C1464 1.279 . S
C1462 C1460 1.353 . S
C1462 C1465 1.348 . S
C1462 H1494 0.929 . S
C1463 C1464 1.358 . S
C1463 C1465 1.356 . S
C1463 H1495 0.930 . S
C1464 N1461 1.279 . S
C1464 C1463 1.358 . S
C1464 H1467 0.930 . S
C1465 C1462 1.348 . S
C1465 C1463 1.356 . S
H1466 C1460 0.930 . S
H1467 C1464 0.930 . S
O1468 Li1408 1.956 . S
O1468 Li1409 1.970 . S
O1468 Li1410 1.961 . S
O1468 C1412 1.325 . S
O1469 Li1408 1.970 . S
O1469 Li1409 1.956 . S
O1469 Li1411 1.961 . S
O1469 C1418 1.325 . S
O1470 Li1408 1.961 . S
O1470 Li1410 1.956 . S
O1470 Li1411 1.970 . S
O1470 C1440 1.325 . S
O1471 Li1409 1.961 . S
O1471 Li1410 1.970 . S
O1471 Li1411 1.956 . S
O1471 C1446 1.325 . S
H1472 C1414 0.929 . S
H1473 C1415 0.930 . S
H1474 C1416 0.930 . S
H1475 C1417 0.930 . S
H1476 C1419 0.930 . S
H1477 C1421 0.929 . S
H1478 C1422 0.930 . S
H1479 C1423 0.930 . S
H1480 C1426 0.930 . S
H1481 C1429 0.929 . S
H1482 C1434 0.929 . S
H1483 C1435 0.930 . S
H1484 C1442 0.929 . S
H1485 C1443 0.930 . S
H1486 C1444 0.930 . S
H1487 C1445 0.930 . S
H1488 C1447 0.929 . S
H1489 C1448 0.930 . S
H1490 C1449 0.930 . S
H1491 C1450 0.930 . S
H1492 C1454 0.929 . S
H1493 C1456 0.930 . S
H1494 C1462 0.929 . S
H1495 C1463 0.930 . S
Li1496 N1513 1.990 . S
Li1496 O1556 1.956 . S
Li1496 O1557 1.970 . S
Li1496 O1558 1.961 . S
Li1497 N1521 1.990 . S
Li1497 O1556 1.970 . S
Li1497 O1557 1.956 . S
Li1497 O1559 1.961 . S
Li1498 N1543 1.990 . S
Li1498 O1556 1.961 . S
Li1498 O1558 1.956 . S
Li1498 O1559 1.970 . S
Li1499 N1549 1.990 . S
Li1499 O1557 1.961 . S
Li1499 O1558 1.970 . S
Li1499 O1559 1.956 . S
C1500 C1502 1.348 . S
C1500 C1503 1.356 . S
C1500 O1556 1.325 . S
N1501 C1504 1.314 . S
N1501 C1505 1.279 . S
C1502 C1500 1.348 . S
C1502 C1504 1.353 . S
C1502 H1560 0.929 . S
C1503 C1500 1.356 . S
C1503 C1505 1.358 . S
C1503 H1561 0.930 . S
C1504 N1501 1.314 . S
C1504 C1502 1.353 . S
C1504 H1562 0.930 . S
C1505 N1501 1.279 . S
C1505 C1503 1.358 . S
C1505 H1563 0.930 . S
C1506 C1509 1.348 . S
C1506 C1510 1.356 . S
C1506 O1557 1.325 . S
C1507 N1508 1.279 . S
C1507 C1510 1.358 . S
C1507 H1564 0.930 . S
N1508 C1507 1.279 . S
N1508 C1511 1.314 . S
C1509 C1506 1.348 . S
C1509 C1511 1.353 . S
C1509 H1565 0.929 . S
C1510 C1506 1.356 . S
C1510 C1507 1.358 . S
C1510 H1566 0.930 . S
C1511 N1508 1.314 . S
C1511 C1509 1.353 . S
C1511 H1567 0.930 . S
C1512 N1513 1.314 . S
C1512 C1517 1.353 . S
C1512 H1518 0.930 . S
N1513 Li1496 1.990 . S
N1513 C1512 1.314 . S
N1513 C1515 1.279 . S
C1514 C1515 1.358 . S
C1514 C1516 1.356 . S
C1514 H1568 0.930 . S
C1515 N1513 1.279 . S
C1515 C1514 1.358 . S
C1515 H1519 0.930 . S
C1516 C1514 1.356 . S
C1516 C1517 1.348 . S
C1517 C1512 1.353 . S
C1517 C1516 1.348 . S
C1517 H1569 0.929 . S
H1518 C1512 0.930 . S
H1519 C1515 0.930 . S
C1520 N1521 1.314 . S
C1520 C1522 1.353 . S
C1520 H1526 0.930 . S
N1521 Li1497 1.990 . S
N1521 C1520 1.314 . S
N1521 C1524 1.279 . S
C1522 C1520 1.353 . S
C1522 C1525 1.348 . S
C1522 H1570 0.929 . S
C1523 C1524 1.358 . S
C1523 C1525 1.356 . S
C1523 H1571 0.930 . S
C1524 N1521 1.279 . S
C1524 C1523 1.358 . S
C1524 H1527 0.930 . S
C1525 C1522 1.348 . S
C1525 C1523 1.356 . S
H1526 C1520 0.930 . S
H1527 C1524 0.930 . S
C1528 C1530 1.348 . S
C1528 C1531 1.356 . S
C1528 O1558 1.325 . S
N1529 C1532 1.314 . S
N1529 C1533 1.279 . S
C1530 C1528 1.348 . S
C1530 C1532 1.353 . S
C1530 H1572 0.929 . S
C1531 C1528 1.356 . S
C1531 C1533 1.358 . S
C1531 H1573 0.930 . S
C1532 N1529 1.314 . S
C1532 C1530 1.353 . S
C1532 H1574 0.930 . S
C1533 N1529 1.279 . S
C1533 C1531 1.358 . S
C1533 H1575 0.930 . S
C1534 C1535 1.348 . S
C1534 C1536 1.356 . S
C1534 O1559 1.325 . S
C1535 C1534 1.348 . S
C1535 C1537 1.353 . S
C1535 H1576 0.929 . S
C1536 C1534 1.356 . S
C1536 C1538 1.358 . S
C1536 H1577 0.930 . S
C1537 C1535 1.353 . S
C1537 N1539 1.314 . S
C1537 H1578 0.930 . S
C1538 C1536 1.358 . S
C1538 N1539 1.279 . S
C1538 H1579 0.930 . S
N1539 C1537 1.314 . S
N1539 C1538 1.279 . S
C1540 C1542 1.353 . S
C1540 N1543 1.314 . S
C1540 H1546 0.930 . S
C1541 N1543 1.279 . S
C1541 C1544 1.358 . S
C1541 H1547 0.930 . S
C1542 C1540 1.353 . S
C1542 C1545 1.348 . S
C1542 H1580 0.929 . S
N1543 Li1498 1.990 . S
N1543 C1540 1.314 . S
N1543 C1541 1.279 . S
C1544 C1541 1.358 . S
C1544 C1545 1.356 . S
C1544 H1581 0.930 . S
C1545 C1542 1.348 . S
C1545 C1544 1.356 . S
H1546 C1540 0.930 . S
H1547 C1541 0.930 . S
C1548 N1549 1.314 . S
C1548 C1550 1.353 . S
C1548 H1554 0.930 . S
N1549 Li1499 1.990 . S
N1549 C1548 1.314 . S
N1549 C1552 1.279 . S
C1550 C1548 1.353 . S
C1550 C1553 1.348 . S
C1550 H1582 0.929 . S
C1551 C1552 1.358 . S
C1551 C1553 1.356 . S
C1551 H1583 0.930 . S
C1552 N1549 1.279 . S
C1552 C1551 1.358 . S
C1552 H1555 0.930 . S
C1553 C1550 1.348 . S
C1553 C1551 1.356 . S
H1554 C1548 0.930 . S
H1555 C1552 0.930 . S
O1556 Li1496 1.956 . S
O1556 Li1497 1.970 . S
O1556 Li1498 1.961 . S
O1556 C1500 1.325 . S
O1557 Li1496 1.970 . S
O1557 Li1497 1.956 . S
O1557 Li1499 1.961 . S
O1557 C1506 1.325 . S
O1558 Li1496 1.961 . S
O1558 Li1498 1.956 . S
O1558 Li1499 1.970 . S
O1558 C1528 1.325 . S
O1559 Li1497 1.961 . S
O1559 Li1498 1.970 . S
O1559 Li1499 1.956 . S
O1559 C1534 1.325 . S
H1560 C1502 0.929 . S
H1561 C1503 0.930 . S
H1562 C1504 0.930 . S
H1563 C1505 0.930 . S
H1564 C1507 0.930 . S
H1565 C1509 0.929 . S
H1566 C1510 0.930 . S
H1567 C1511 0.930 . S
H1568 C1514 0.930 . S
H1569 C1517 0.929 . S
H1570 C1522 0.929 . S
H1571 C1523 0.930 . S
H1572 C1530 0.929 . S
H1573 C1531 0.930 . S
H1574 C1532 0.930 . S
H1575 C1533 0.930 . S
H1576 C1535 0.929 . S
H1577 C1536 0.930 . S
H1578 C1537 0.930 . S
H1579 C1538 0.930 . S
H1580 C1542 0.929 . S
H1581 C1544 0.930 . S
H1582 C1550 0.929 . S
H1583 C1551 0.930 . S
Li1584 N1601 1.990 . S
Li1584 O1644 1.956 . S
Li1584 O1645 1.970 . S
Li1584 O1646 1.961 . S
Li1585 N1609 1.990 . S
Li1585 O1644 1.970 . S
Li1585 O1645 1.956 . S
Li1585 O1647 1.961 . S
Li1586 N1631 1.990 . S
Li1586 O1644 1.961 . S
Li1586 O1646 1.956 . S
Li1586 O1647 1.970 . S
Li1587 N1637 1.990 . S
Li1587 O1645 1.961 . S
Li1587 O1646 1.970 . S
Li1587 O1647 1.956 . S
C1588 C1590 1.348 . S
C1588 C1591 1.356 . S
C1588 O1644 1.325 . S
N1589 C1592 1.314 . S
N1589 C1593 1.279 . S
C1590 C1588 1.348 . S
C1590 C1592 1.353 . S
C1590 H1648 0.929 . S
C1591 C1588 1.356 . S
C1591 C1593 1.358 . S
C1591 H1649 0.930 . S
C1592 N1589 1.314 . S
C1592 C1590 1.353 . S
C1592 H1650 0.930 . S
C1593 N1589 1.279 . S
C1593 C1591 1.358 . S
C1593 H1651 0.930 . S
C1594 C1597 1.348 . S
C1594 C1598 1.356 . S
C1594 O1645 1.325 . S
C1595 N1596 1.279 . S
C1595 C1598 1.358 . S
C1595 H1652 0.930 . S
N1596 C1595 1.279 . S
N1596 C1599 1.314 . S
C1597 C1594 1.348 . S
C1597 C1599 1.353 . S
C1597 H1653 0.929 . S
C1598 C1594 1.356 . S
C1598 C1595 1.358 . S
C1598 H1654 0.930 . S
C1599 N1596 1.314 . S
C1599 C1597 1.353 . S
C1599 H1655 0.930 . S
C1600 N1601 1.314 . S
C1600 C1605 1.353 . S
C1600 H1606 0.930 . S
N1601 Li1584 1.990 . S
N1601 C1600 1.314 . S
N1601 C1603 1.279 . S
C1602 C1603 1.358 . S
C1602 C1604 1.356 . S
C1602 H1656 0.930 . S
C1603 N1601 1.279 . S
C1603 C1602 1.358 . S
C1603 H1607 0.930 . S
C1604 C1602 1.356 . S
C1604 C1605 1.348 . S
C1605 C1600 1.353 . S
C1605 C1604 1.348 . S
C1605 H1657 0.929 . S
H1606 C1600 0.930 . S
H1607 C1603 0.930 . S
C1608 N1609 1.314 . S
C1608 C1610 1.353 . S
C1608 H1614 0.930 . S
N1609 Li1585 1.990 . S
N1609 C1608 1.314 . S
N1609 C1612 1.279 . S
C1610 C1608 1.353 . S
C1610 C1613 1.348 . S
C1610 H1658 0.929 . S
C1611 C1612 1.358 . S
C1611 C1613 1.356 . S
C1611 H1659 0.930 . S
C1612 N1609 1.279 . S
C1612 C1611 1.358 . S
C1612 H1615 0.930 . S
C1613 C1610 1.348 . S
C1613 C1611 1.356 . S
H1614 C1608 0.930 . S
H1615 C1612 0.930 . S
C1616 C1618 1.348 . S
C1616 C1619 1.356 . S
C1616 O1646 1.325 . S
N1617 C1620 1.314 . S
N1617 C1621 1.279 . S
C1618 C1616 1.348 . S
C1618 C1620 1.353 . S
C1618 H1660 0.929 . S
C1619 C1616 1.356 . S
C1619 C1621 1.358 . S
C1619 H1661 0.930 . S
C1620 N1617 1.314 . S
C1620 C1618 1.353 . S
C1620 H1662 0.930 . S
C1621 N1617 1.279 . S
C1621 C1619 1.358 . S
C1621 H1663 0.930 . S
C1622 C1623 1.348 . S
C1622 C1624 1.356 . S
C1622 O1647 1.325 . S
C1623 C1622 1.348 . S
C1623 C1625 1.353 . S
C1623 H1664 0.929 . S
C1624 C1622 1.356 . S
C1624 C1626 1.358 . S
C1624 H1665 0.930 . S
C1625 C1623 1.353 . S
C1625 N1627 1.314 . S
C1625 H1666 0.930 . S
C1626 C1624 1.358 . S
C1626 N1627 1.279 . S
C1626 H1667 0.930 . S
N1627 C1625 1.314 . S
N1627 C1626 1.279 . S
C1628 C1630 1.353 . S
C1628 N1631 1.314 . S
C1628 H1634 0.930 . S
C1629 N1631 1.279 . S
C1629 C1632 1.358 . S
C1629 H1635 0.930 . S
C1630 C1628 1.353 . S
C1630 C1633 1.348 . S
C1630 H1668 0.929 . S
N1631 Li1586 1.990 . S
N1631 C1628 1.314 . S
N1631 C1629 1.279 . S
C1632 C1629 1.358 . S
C1632 C1633 1.356 . S
C1632 H1669 0.930 . S
C1633 C1630 1.348 . S
C1633 C1632 1.356 . S
H1634 C1628 0.930 . S
H1635 C1629 0.930 . S
C1636 N1637 1.314 . S
C1636 C1638 1.353 . S
C1636 H1642 0.930 . S
N1637 Li1587 1.990 . S
N1637 C1636 1.314 . S
N1637 C1640 1.279 . S
C1638 C1636 1.353 . S
C1638 C1641 1.348 . S
C1638 H1670 0.929 . S
C1639 C1640 1.358 . S
C1639 C1641 1.356 . S
C1639 H1671 0.930 . S
C1640 N1637 1.279 . S
C1640 C1639 1.358 . S
C1640 H1643 0.930 . S
C1641 C1638 1.348 . S
C1641 C1639 1.356 . S
H1642 C1636 0.930 . S
H1643 C1640 0.930 . S
O1644 Li1584 1.956 . S
O1644 Li1585 1.970 . S
O1644 Li1586 1.961 . S
O1644 C1588 1.325 . S
O1645 Li1584 1.970 . S
O1645 Li1585 1.956 . S
O1645 Li1587 1.961 . S
O1645 C1594 1.325 . S
O1646 Li1584 1.961 . S
O1646 Li1586 1.956 . S
O1646 Li1587 1.970 . S
O1646 C1616 1.325 . S
O1647 Li1585 1.961 . S
O1647 Li1586 1.970 . S
O1647 Li1587 1.956 . S
O1647 C1622 1.325 . S
H1648 C1590 0.929 . S
H1649 C1591 0.930 . S
H1650 C1592 0.930 . S
H1651 C1593 0.930 . S
H1652 C1595 0.930 . S
H1653 C1597 0.929 . S
H1654 C1598 0.930 . S
H1655 C1599 0.930 . S
H1656 C1602 0.930 . S
H1657 C1605 0.929 . S
H1658 C1610 0.929 . S
H1659 C1611 0.930 . S
H1660 C1618 0.929 . S
H1661 C1619 0.930 . S
H1662 C1620 0.930 . S
H1663 C1621 0.930 . S
H1664 C1623 0.929 . S
H1665 C1624 0.930 . S
H1666 C1625 0.930 . S
H1667 C1626 0.930 . S
H1668 C1630 0.929 . S
H1669 C1632 0.930 . S
H1670 C1638 0.929 . S
H1671 C1639 0.930 . S
Li1672 N1689 1.990 . S
Li1672 O1732 1.956 . S
Li1672 O1733 1.970 . S
Li1672 O1734 1.961 . S
Li1673 N1697 1.990 . S
Li1673 O1732 1.970 . S
Li1673 O1733 1.956 . S
Li1673 O1735 1.961 . S
Li1674 N1719 1.990 . S
Li1674 O1732 1.961 . S
Li1674 O1734 1.956 . S
Li1674 O1735 1.970 . S
Li1675 N1725 1.990 . S
Li1675 O1733 1.961 . S
Li1675 O1734 1.970 . S
Li1675 O1735 1.956 . S
C1676 C1678 1.348 . S
C1676 C1679 1.356 . S
C1676 O1732 1.325 . S
N1677 C1680 1.314 . S
N1677 C1681 1.279 . S
C1678 C1676 1.348 . S
C1678 C1680 1.353 . S
C1678 H1736 0.929 . S
C1679 C1676 1.356 . S
C1679 C1681 1.358 . S
C1679 H1737 0.930 . S
C1680 N1677 1.314 . S
C1680 C1678 1.353 . S
C1680 H1738 0.930 . S
C1681 N1677 1.279 . S
C1681 C1679 1.358 . S
C1681 H1739 0.930 . S
C1682 C1685 1.348 . S
C1682 C1686 1.356 . S
C1682 O1733 1.325 . S
C1683 N1684 1.279 . S
C1683 C1686 1.358 . S
C1683 H1740 0.930 . S
N1684 C1683 1.279 . S
N1684 C1687 1.314 . S
C1685 C1682 1.348 . S
C1685 C1687 1.353 . S
C1685 H1741 0.929 . S
C1686 C1682 1.356 . S
C1686 C1683 1.358 . S
C1686 H1742 0.930 . S
C1687 N1684 1.314 . S
C1687 C1685 1.353 . S
C1687 H1743 0.930 . S
C1688 N1689 1.314 . S
C1688 C1693 1.353 . S
C1688 H1694 0.930 . S
N1689 Li1672 1.990 . S
N1689 C1688 1.314 . S
N1689 C1691 1.279 . S
C1690 C1691 1.358 . S
C1690 C1692 1.356 . S
C1690 H1744 0.930 . S
C1691 N1689 1.279 . S
C1691 C1690 1.358 . S
C1691 H1695 0.930 . S
C1692 C1690 1.356 . S
C1692 C1693 1.348 . S
C1693 C1688 1.353 . S
C1693 C1692 1.348 . S
C1693 H1745 0.929 . S
H1694 C1688 0.930 . S
H1695 C1691 0.930 . S
C1696 N1697 1.314 . S
C1696 C1698 1.353 . S
C1696 H1702 0.930 . S
N1697 Li1673 1.990 . S
N1697 C1696 1.314 . S
N1697 C1700 1.279 . S
C1698 C1696 1.353 . S
C1698 C1701 1.348 . S
C1698 H1746 0.929 . S
C1699 C1700 1.358 . S
C1699 C1701 1.356 . S
C1699 H1747 0.930 . S
C1700 N1697 1.279 . S
C1700 C1699 1.358 . S
C1700 H1703 0.930 . S
C1701 C1698 1.348 . S
C1701 C1699 1.356 . S
H1702 C1696 0.930 . S
H1703 C1700 0.930 . S
C1704 C1706 1.348 . S
C1704 C1707 1.356 . S
C1704 O1734 1.325 . S
N1705 C1708 1.314 . S
N1705 C1709 1.279 . S
C1706 C1704 1.348 . S
C1706 C1708 1.353 . S
C1706 H1748 0.929 . S
C1707 C1704 1.356 . S
C1707 C1709 1.358 . S
C1707 H1749 0.930 . S
C1708 N1705 1.314 . S
C1708 C1706 1.353 . S
C1708 H1750 0.930 . S
C1709 N1705 1.279 . S
C1709 C1707 1.358 . S
C1709 H1751 0.930 . S
C1710 C1711 1.348 . S
C1710 C1712 1.356 . S
C1710 O1735 1.325 . S
C1711 C1710 1.348 . S
C1711 C1713 1.353 . S
C1711 H1752 0.929 . S
C1712 C1710 1.356 . S
C1712 C1714 1.358 . S
C1712 H1753 0.930 . S
C1713 C1711 1.353 . S
C1713 N1715 1.314 . S
C1713 H1754 0.930 . S
C1714 C1712 1.358 . S
C1714 N1715 1.279 . S
C1714 H1755 0.930 . S
N1715 C1713 1.314 . S
N1715 C1714 1.279 . S
C1716 C1718 1.353 . S
C1716 N1719 1.314 . S
C1716 H1722 0.930 . S
C1717 N1719 1.279 . S
C1717 C1720 1.358 . S
C1717 H1723 0.930 . S
C1718 C1716 1.353 . S
C1718 C1721 1.348 . S
C1718 H1756 0.929 . S
N1719 Li1674 1.990 . S
N1719 C1716 1.314 . S
N1719 C1717 1.279 . S
C1720 C1717 1.358 . S
C1720 C1721 1.356 . S
C1720 H1757 0.930 . S
C1721 C1718 1.348 . S
C1721 C1720 1.356 . S
H1722 C1716 0.930 . S
H1723 C1717 0.930 . S
C1724 N1725 1.314 . S
C1724 C1726 1.353 . S
C1724 H1730 0.930 . S
N1725 Li1675 1.990 . S
N1725 C1724 1.314 . S
N1725 C1728 1.279 . S
C1726 C1724 1.353 . S
C1726 C1729 1.348 . S
C1726 H1758 0.929 . S
C1727 C1728 1.358 . S
C1727 C1729 1.356 . S
C1727 H1759 0.930 . S
C1728 N1725 1.279 . S
C1728 C1727 1.358 . S
C1728 H1731 0.930 . S
C1729 C1726 1.348 . S
C1729 C1727 1.356 . S
H1730 C1724 0.930 . S
H1731 C1728 0.930 . S
O1732 Li1672 1.956 . S
O1732 Li1673 1.970 . S
O1732 Li1674 1.961 . S
O1732 C1676 1.325 . S
O1733 Li1672 1.970 . S
O1733 Li1673 1.956 . S
O1733 Li1675 1.961 . S
O1733 C1682 1.325 . S
O1734 Li1672 1.961 . S
O1734 Li1674 1.956 . S
O1734 Li1675 1.970 . S
O1734 C1704 1.325 . S
O1735 Li1673 1.961 . S
O1735 Li1674 1.970 . S
O1735 Li1675 1.956 . S
O1735 C1710 1.325 . S
H1736 C1678 0.929 . S
H1737 C1679 0.930 . S
H1738 C1680 0.930 . S
H1739 C1681 0.930 . S
H1740 C1683 0.930 . S
H1741 C1685 0.929 . S
H1742 C1686 0.930 . S
H1743 C1687 0.930 . S
H1744 C1690 0.930 . S
H1745 C1693 0.929 . S
H1746 C1698 0.929 . S
H1747 C1699 0.930 . S
H1748 C1706 0.929 . S
H1749 C1707 0.930 . S
H1750 C1708 0.930 . S
H1751 C1709 0.930 . S
H1752 C1711 0.929 . S
H1753 C1712 0.930 . S
H1754 C1713 0.930 . S
H1755 C1714 0.930 . S
H1756 C1718 0.929 . S
H1757 C1720 0.930 . S
H1758 C1726 0.929 . S
H1759 C1727 0.930 . S
Li1760 N1777 1.990 . S
Li1760 O1820 1.956 . S
Li1760 O1821 1.970 . S
Li1760 O1822 1.961 . S
Li1761 N1785 1.990 . S
Li1761 O1820 1.970 . S
Li1761 O1821 1.956 . S
Li1761 O1823 1.961 . S
Li1762 N1807 1.990 . S
Li1762 O1820 1.961 . S
Li1762 O1822 1.956 . S
Li1762 O1823 1.970 . S
Li1763 N1813 1.990 . S
Li1763 O1821 1.961 . S
Li1763 O1822 1.970 . S
Li1763 O1823 1.956 . S
C1764 C1766 1.348 . S
C1764 C1767 1.356 . S
C1764 O1820 1.325 . S
N1765 C1768 1.314 . S
N1765 C1769 1.279 . S
C1766 C1764 1.348 . S
C1766 C1768 1.353 . S
C1766 H1824 0.929 . S
C1767 C1764 1.356 . S
C1767 C1769 1.358 . S
C1767 H1825 0.930 . S
C1768 N1765 1.314 . S
C1768 C1766 1.353 . S
C1768 H1826 0.930 . S
C1769 N1765 1.279 . S
C1769 C1767 1.358 . S
C1769 H1827 0.930 . S
C1770 C1773 1.348 . S
C1770 C1774 1.356 . S
C1770 O1821 1.325 . S
C1771 N1772 1.279 . S
C1771 C1774 1.358 . S
C1771 H1828 0.930 . S
N1772 C1771 1.279 . S
N1772 C1775 1.314 . S
C1773 C1770 1.348 . S
C1773 C1775 1.353 . S
C1773 H1829 0.929 . S
C1774 C1770 1.356 . S
C1774 C1771 1.358 . S
C1774 H1830 0.930 . S
C1775 N1772 1.314 . S
C1775 C1773 1.353 . S
C1775 H1831 0.930 . S
C1776 N1777 1.314 . S
C1776 C1781 1.353 . S
C1776 H1782 0.930 . S
N1777 Li1760 1.990 . S
N1777 C1776 1.314 . S
N1777 C1779 1.279 . S
C1778 C1779 1.358 . S
C1778 C1780 1.356 . S
C1778 H1832 0.930 . S
C1779 N1777 1.279 . S
C1779 C1778 1.358 . S
C1779 H1783 0.930 . S
C1780 C1778 1.356 . S
C1780 C1781 1.348 . S
C1781 C1776 1.353 . S
C1781 C1780 1.348 . S
C1781 H1833 0.929 . S
H1782 C1776 0.930 . S
H1783 C1779 0.930 . S
C1784 N1785 1.314 . S
C1784 C1786 1.353 . S
C1784 H1790 0.930 . S
N1785 Li1761 1.990 . S
N1785 C1784 1.314 . S
N1785 C1788 1.279 . S
C1786 C1784 1.353 . S
C1786 C1789 1.348 . S
C1786 H1834 0.929 . S
C1787 C1788 1.358 . S
C1787 C1789 1.356 . S
C1787 H1835 0.930 . S
C1788 N1785 1.279 . S
C1788 C1787 1.358 . S
C1788 H1791 0.930 . S
C1789 C1786 1.348 . S
C1789 C1787 1.356 . S
H1790 C1784 0.930 . S
H1791 C1788 0.930 . S
C1792 C1794 1.348 . S
C1792 C1795 1.356 . S
C1792 O1822 1.325 . S
N1793 C1796 1.314 . S
N1793 C1797 1.279 . S
C1794 C1792 1.348 . S
C1794 C1796 1.353 . S
C1794 H1836 0.929 . S
C1795 C1792 1.356 . S
C1795 C1797 1.358 . S
C1795 H1837 0.930 . S
C1796 N1793 1.314 . S
C1796 C1794 1.353 . S
C1796 H1838 0.930 . S
C1797 N1793 1.279 . S
C1797 C1795 1.358 . S
C1797 H1839 0.930 . S
C1798 C1799 1.348 . S
C1798 C1800 1.356 . S
C1798 O1823 1.325 . S
C1799 C1798 1.348 . S
C1799 C1801 1.353 . S
C1799 H1840 0.929 . S
C1800 C1798 1.356 . S
C1800 C1802 1.358 . S
C1800 H1841 0.930 . S
C1801 C1799 1.353 . S
C1801 N1803 1.314 . S
C1801 H1842 0.930 . S
C1802 C1800 1.358 . S
C1802 N1803 1.279 . S
C1802 H1843 0.930 . S
N1803 C1801 1.314 . S
N1803 C1802 1.279 . S
C1804 C1806 1.353 . S
C1804 N1807 1.314 . S
C1804 H1810 0.930 . S
C1805 N1807 1.279 . S
C1805 C1808 1.358 . S
C1805 H1811 0.930 . S
C1806 C1804 1.353 . S
C1806 C1809 1.348 . S
C1806 H1844 0.929 . S
N1807 Li1762 1.990 . S
N1807 C1804 1.314 . S
N1807 C1805 1.279 . S
C1808 C1805 1.358 . S
C1808 C1809 1.356 . S
C1808 H1845 0.930 . S
C1809 C1806 1.348 . S
C1809 C1808 1.356 . S
H1810 C1804 0.930 . S
H1811 C1805 0.930 . S
C1812 N1813 1.314 . S
C1812 C1814 1.353 . S
C1812 H1818 0.930 . S
N1813 Li1763 1.990 . S
N1813 C1812 1.314 . S
N1813 C1816 1.279 . S
C1814 C1812 1.353 . S
C1814 C1817 1.348 . S
C1814 H1846 0.929 . S
C1815 C1816 1.358 . S
C1815 C1817 1.356 . S
C1815 H1847 0.930 . S
C1816 N1813 1.279 . S
C1816 C1815 1.358 . S
C1816 H1819 0.930 . S
C1817 C1814 1.348 . S
C1817 C1815 1.356 . S
H1818 C1812 0.930 . S
H1819 C1816 0.930 . S
O1820 Li1760 1.956 . S
O1820 Li1761 1.970 . S
O1820 Li1762 1.961 . S
O1820 C1764 1.325 . S
O1821 Li1760 1.970 . S
O1821 Li1761 1.956 . S
O1821 Li1763 1.961 . S
O1821 C1770 1.325 . S
O1822 Li1760 1.961 . S
O1822 Li1762 1.956 . S
O1822 Li1763 1.970 . S
O1822 C1792 1.325 . S
O1823 Li1761 1.961 . S
O1823 Li1762 1.970 . S
O1823 Li1763 1.956 . S
O1823 C1798 1.325 . S
H1824 C1766 0.929 . S
H1825 C1767 0.930 . S
H1826 C1768 0.930 . S
H1827 C1769 0.930 . S
H1828 C1771 0.930 . S
H1829 C1773 0.929 . S
H1830 C1774 0.930 . S
H1831 C1775 0.930 . S
H1832 C1778 0.930 . S
H1833 C1781 0.929 . S
H1834 C1786 0.929 . S
H1835 C1787 0.930 . S
H1836 C1794 0.929 . S
H1837 C1795 0.930 . S
H1838 C1796 0.930 . S
H1839 C1797 0.930 . S
H1840 C1799 0.929 . S
H1841 C1800 0.930 . S
H1842 C1801 0.930 . S
H1843 C1802 0.930 . S
H1844 C1806 0.929 . S
H1845 C1808 0.930 . S
H1846 C1814 0.929 . S
H1847 C1815 0.930 . S
Li1848 N1865 1.990 . S
Li1848 O1908 1.956 . S
Li1848 O1909 1.970 . S
Li1848 O1910 1.961 . S
Li1849 N1873 1.990 . S
Li1849 O1908 1.970 . S
Li1849 O1909 1.956 . S
Li1849 O1911 1.961 . S
Li1850 N1895 1.990 . S
Li1850 O1908 1.961 . S
Li1850 O1910 1.956 . S
Li1850 O1911 1.970 . S
Li1851 N1901 1.990 . S
Li1851 O1909 1.961 . S
Li1851 O1910 1.970 . S
Li1851 O1911 1.956 . S
C1852 C1854 1.348 . S
C1852 C1855 1.356 . S
C1852 O1908 1.325 . S
N1853 C1856 1.314 . S
N1853 C1857 1.279 . S
C1854 C1852 1.348 . S
C1854 C1856 1.353 . S
C1854 H1912 0.929 . S
C1855 C1852 1.356 . S
C1855 C1857 1.358 . S
C1855 H1913 0.930 . S
C1856 N1853 1.314 . S
C1856 C1854 1.353 . S
C1856 H1914 0.930 . S
C1857 N1853 1.279 . S
C1857 C1855 1.358 . S
C1857 H1915 0.930 . S
C1858 C1861 1.348 . S
C1858 C1862 1.356 . S
C1858 O1909 1.325 . S
C1859 N1860 1.279 . S
C1859 C1862 1.358 . S
C1859 H1916 0.930 . S
N1860 C1859 1.279 . S
N1860 C1863 1.314 . S
C1861 C1858 1.348 . S
C1861 C1863 1.353 . S
C1861 H1917 0.929 . S
C1862 C1858 1.356 . S
C1862 C1859 1.358 . S
C1862 H1918 0.930 . S
C1863 N1860 1.314 . S
C1863 C1861 1.353 . S
C1863 H1919 0.930 . S
C1864 N1865 1.314 . S
C1864 C1869 1.353 . S
C1864 H1870 0.930 . S
N1865 Li1848 1.990 . S
N1865 C1864 1.314 . S
N1865 C1867 1.279 . S
C1866 C1867 1.358 . S
C1866 C1868 1.356 . S
C1866 H1920 0.930 . S
C1867 N1865 1.279 . S
C1867 C1866 1.358 . S
C1867 H1871 0.930 . S
C1868 C1866 1.356 . S
C1868 C1869 1.348 . S
C1869 C1864 1.353 . S
C1869 C1868 1.348 . S
C1869 H1921 0.929 . S
H1870 C1864 0.930 . S
H1871 C1867 0.930 . S
C1872 N1873 1.314 . S
C1872 C1874 1.353 . S
C1872 H1878 0.930 . S
N1873 Li1849 1.990 . S
N1873 C1872 1.314 . S
N1873 C1876 1.279 . S
C1874 C1872 1.353 . S
C1874 C1877 1.348 . S
C1874 H1922 0.929 . S
C1875 C1876 1.358 . S
C1875 C1877 1.356 . S
C1875 H1923 0.930 . S
C1876 N1873 1.279 . S
C1876 C1875 1.358 . S
C1876 H1879 0.930 . S
C1877 C1874 1.348 . S
C1877 C1875 1.356 . S
H1878 C1872 0.930 . S
H1879 C1876 0.930 . S
C1880 C1882 1.348 . S
C1880 C1883 1.356 . S
C1880 O1910 1.325 . S
N1881 C1884 1.314 . S
N1881 C1885 1.279 . S
C1882 C1880 1.348 . S
C1882 C1884 1.353 . S
C1882 H1924 0.929 . S
C1883 C1880 1.356 . S
C1883 C1885 1.358 . S
C1883 H1925 0.930 . S
C1884 N1881 1.314 . S
C1884 C1882 1.353 . S
C1884 H1926 0.930 . S
C1885 N1881 1.279 . S
C1885 C1883 1.358 . S
C1885 H1927 0.930 . S
C1886 C1887 1.348 . S
C1886 C1888 1.356 . S
C1886 O1911 1.325 . S
C1887 C1886 1.348 . S
C1887 C1889 1.353 . S
C1887 H1928 0.929 . S
C1888 C1886 1.356 . S
C1888 C1890 1.358 . S
C1888 H1929 0.930 . S
C1889 C1887 1.353 . S
C1889 N1891 1.314 . S
C1889 H1930 0.930 . S
C1890 C1888 1.358 . S
C1890 N1891 1.279 . S
C1890 H1931 0.930 . S
N1891 C1889 1.314 . S
N1891 C1890 1.279 . S
C1892 C1894 1.353 . S
C1892 N1895 1.314 . S
C1892 H1898 0.930 . S
C1893 N1895 1.279 . S
C1893 C1896 1.358 . S
C1893 H1899 0.930 . S
C1894 C1892 1.353 . S
C1894 C1897 1.348 . S
C1894 H1932 0.929 . S
N1895 Li1850 1.990 . S
N1895 C1892 1.314 . S
N1895 C1893 1.279 . S
C1896 C1893 1.358 . S
C1896 C1897 1.356 . S
C1896 H1933 0.930 . S
C1897 C1894 1.348 . S
C1897 C1896 1.356 . S
H1898 C1892 0.930 . S
H1899 C1893 0.930 . S
C1900 N1901 1.314 . S
C1900 C1902 1.353 . S
C1900 H1906 0.930 . S
N1901 Li1851 1.990 . S
N1901 C1900 1.314 . S
N1901 C1904 1.279 . S
C1902 C1900 1.353 . S
C1902 C1905 1.348 . S
C1902 H1934 0.929 . S
C1903 C1904 1.358 . S
C1903 C1905 1.356 . S
C1903 H1935 0.930 . S
C1904 N1901 1.279 . S
C1904 C1903 1.358 . S
C1904 H1907 0.930 . S
C1905 C1902 1.348 . S
C1905 C1903 1.356 . S
H1906 C1900 0.930 . S
H1907 C1904 0.930 . S
O1908 Li1848 1.956 . S
O1908 Li1849 1.970 . S
O1908 Li1850 1.961 . S
O1908 C1852 1.325 . S
O1909 Li1848 1.970 . S
O1909 Li1849 1.956 . S
O1909 Li1851 1.961 . S
O1909 C1858 1.325 . S
O1910 Li1848 1.961 . S
O1910 Li1850 1.956 . S
O1910 Li1851 1.970 . S
O1910 C1880 1.325 . S
O1911 Li1849 1.961 . S
O1911 Li1850 1.970 . S
O1911 Li1851 1.956 . S
O1911 C1886 1.325 . S
H1912 C1854 0.929 . S
H1913 C1855 0.930 . S
H1914 C1856 0.930 . S
H1915 C1857 0.930 . S
H1916 C1859 0.930 . S
H1917 C1861 0.929 . S
H1918 C1862 0.930 . S
H1919 C1863 0.930 . S
H1920 C1866 0.930 . S
H1921 C1869 0.929 . S
H1922 C1874 0.929 . S
H1923 C1875 0.930 . S
H1924 C1882 0.929 . S
H1925 C1883 0.930 . S
H1926 C1884 0.930 . S
H1927 C1885 0.930 . S
H1928 C1887 0.929 . S
H1929 C1888 0.930 . S
H1930 C1889 0.930 . S
H1931 C1890 0.930 . S
H1932 C1894 0.929 . S
H1933 C1896 0.930 . S
H1934 C1902 0.929 . S
H1935 C1903 0.930 . S
Li1936 N1953 1.990 . S
Li1936 O1996 1.956 . S
Li1936 O1997 1.970 . S
Li1936 O1998 1.961 . S
Li1937 N1961 1.990 . S
Li1937 O1996 1.970 . S
Li1937 O1997 1.956 . S
Li1937 O1999 1.961 . S
Li1938 N1983 1.990 . S
Li1938 O1996 1.961 . S
Li1938 O1998 1.956 . S
Li1938 O1999 1.970 . S
Li1939 N1989 1.990 . S
Li1939 O1997 1.961 . S
Li1939 O1998 1.970 . S
Li1939 O1999 1.956 . S
C1940 C1942 1.348 . S
C1940 C1943 1.356 . S
C1940 O1996 1.325 . S
N1941 C1944 1.314 . S
N1941 C1945 1.279 . S
C1942 C1940 1.348 . S
C1942 C1944 1.353 . S
C1942 H2000 0.929 . S
C1943 C1940 1.356 . S
C1943 C1945 1.358 . S
C1943 H2001 0.930 . S
C1944 N1941 1.314 . S
C1944 C1942 1.353 . S
C1944 H2002 0.930 . S
C1945 N1941 1.279 . S
C1945 C1943 1.358 . S
C1945 H2003 0.930 . S
C1946 C1949 1.348 . S
C1946 C1950 1.356 . S
C1946 O1997 1.325 . S
C1947 N1948 1.279 . S
C1947 C1950 1.358 . S
C1947 H2004 0.930 . S
N1948 C1947 1.279 . S
N1948 C1951 1.314 . S
C1949 C1946 1.348 . S
C1949 C1951 1.353 . S
C1949 H2005 0.929 . S
C1950 C1946 1.356 . S
C1950 C1947 1.358 . S
C1950 H2006 0.930 . S
C1951 N1948 1.314 . S
C1951 C1949 1.353 . S
C1951 H2007 0.930 . S
C1952 N1953 1.314 . S
C1952 C1957 1.353 . S
C1952 H1958 0.930 . S
N1953 Li1936 1.990 . S
N1953 C1952 1.314 . S
N1953 C1955 1.279 . S
C1954 C1955 1.358 . S
C1954 C1956 1.356 . S
C1954 H2008 0.930 . S
C1955 N1953 1.279 . S
C1955 C1954 1.358 . S
C1955 H1959 0.930 . S
C1956 C1954 1.356 . S
C1956 C1957 1.348 . S
C1957 C1952 1.353 . S
C1957 C1956 1.348 . S
C1957 H2009 0.929 . S
H1958 C1952 0.930 . S
H1959 C1955 0.930 . S
C1960 N1961 1.314 . S
C1960 C1962 1.353 . S
C1960 H1966 0.930 . S
N1961 Li1937 1.990 . S
N1961 C1960 1.314 . S
N1961 C1964 1.279 . S
C1962 C1960 1.353 . S
C1962 C1965 1.348 . S
C1962 H2010 0.929 . S
C1963 C1964 1.358 . S
C1963 C1965 1.356 . S
C1963 H2011 0.930 . S
C1964 N1961 1.279 . S
C1964 C1963 1.358 . S
C1964 H1967 0.930 . S
C1965 C1962 1.348 . S
C1965 C1963 1.356 . S
H1966 C1960 0.930 . S
H1967 C1964 0.930 . S
C1968 C1970 1.348 . S
C1968 C1971 1.356 . S
C1968 O1998 1.325 . S
N1969 C1972 1.314 . S
N1969 C1973 1.279 . S
C1970 C1968 1.348 . S
C1970 C1972 1.353 . S
C1970 H2012 0.929 . S
C1971 C1968 1.356 . S
C1971 C1973 1.358 . S
C1971 H2013 0.930 . S
C1972 N1969 1.314 . S
C1972 C1970 1.353 . S
C1972 H2014 0.930 . S
C1973 N1969 1.279 . S
C1973 C1971 1.358 . S
C1973 H2015 0.930 . S
C1974 C1975 1.348 . S
C1974 C1976 1.356 . S
C1974 O1999 1.325 . S
C1975 C1974 1.348 . S
C1975 C1977 1.353 . S
C1975 H2016 0.929 . S
C1976 C1974 1.356 . S
C1976 C1978 1.358 . S
C1976 H2017 0.930 . S
C1977 C1975 1.353 . S
C1977 N1979 1.314 . S
C1977 H2018 0.930 . S
C1978 C1976 1.358 . S
C1978 N1979 1.279 . S
C1978 H2019 0.930 . S
N1979 C1977 1.314 . S
N1979 C1978 1.279 . S
C1980 C1982 1.353 . S
C1980 N1983 1.314 . S
C1980 H1986 0.930 . S
C1981 N1983 1.279 . S
C1981 C1984 1.358 . S
C1981 H1987 0.930 . S
C1982 C1980 1.353 . S
C1982 C1985 1.348 . S
C1982 H2020 0.929 . S
N1983 Li1938 1.990 . S
N1983 C1980 1.314 . S
N1983 C1981 1.279 . S
C1984 C1981 1.358 . S
C1984 C1985 1.356 . S
C1984 H2021 0.930 . S
C1985 C1982 1.348 . S
C1985 C1984 1.356 . S
H1986 C1980 0.930 . S
H1987 C1981 0.930 . S
C1988 N1989 1.314 . S
C1988 C1990 1.353 . S
C1988 H1994 0.930 . S
N1989 Li1939 1.990 . S
N1989 C1988 1.314 . S
N1989 C1992 1.279 . S
C1990 C1988 1.353 . S
C1990 C1993 1.348 . S
C1990 H2022 0.929 . S
C1991 C1992 1.358 . S
C1991 C1993 1.356 . S
C1991 H2023 0.930 . S
C1992 N1989 1.279 . S
C1992 C1991 1.358 . S
C1992 H1995 0.930 . S
C1993 C1990 1.348 . S
C1993 C1991 1.356 . S
H1994 C1988 0.930 . S
H1995 C1992 0.930 . S
O1996 Li1936 1.956 . S
O1996 Li1937 1.970 . S
O1996 Li1938 1.961 . S
O1996 C1940 1.325 . S
O1997 Li1936 1.970 . S
O1997 Li1937 1.956 . S
O1997 Li1939 1.961 . S
O1997 C1946 1.325 . S
O1998 Li1936 1.961 . S
O1998 Li1938 1.956 . S
O1998 Li1939 1.970 . S
O1998 C1968 1.325 . S
O1999 Li1937 1.961 . S
O1999 Li1938 1.970 . S
O1999 Li1939 1.956 . S
O1999 C1974 1.325 . S
H2000 C1942 0.929 . S
H2001 C1943 0.930 . S
H2002 C1944 0.930 . S
H2003 C1945 0.930 . S
H2004 C1947 0.930 . S
H2005 C1949 0.929 . S
H2006 C1950 0.930 . S
H2007 C1951 0.930 . S
H2008 C1954 0.930 . S
H2009 C1957 0.929 . S
H2010 C1962 0.929 . S
H2011 C1963 0.930 . S
H2012 C1970 0.929 . S
H2013 C1971 0.930 . S
H2014 C1972 0.930 . S
H2015 C1973 0.930 . S
H2016 C1975 0.929 . S
H2017 C1976 0.930 . S
H2018 C1977 0.930 . S
H2019 C1978 0.930 . S
H2020 C1982 0.929 . S
H2021 C1984 0.930 . S
H2022 C1990 0.929 . S
H2023 C1991 0.930 . S
Li2024 N2041 1.990 . S
Li2024 O2084 1.956 . S
Li2024 O2085 1.970 . S
Li2024 O2086 1.961 . S
Li2025 N2049 1.990 . S
Li2025 O2084 1.970 . S
Li2025 O2085 1.956 . S
Li2025 O2087 1.961 . S
Li2026 N2071 1.990 . S
Li2026 O2084 1.961 . S
Li2026 O2086 1.956 . S
Li2026 O2087 1.970 . S
Li2027 N2077 1.990 . S
Li2027 O2085 1.961 . S
Li2027 O2086 1.970 . S
Li2027 O2087 1.956 . S
C2028 C2030 1.348 . S
C2028 C2031 1.356 . S
C2028 O2084 1.325 . S
N2029 C2032 1.314 . S
N2029 C2033 1.279 . S
C2030 C2028 1.348 . S
C2030 C2032 1.353 . S
C2030 H2088 0.929 . S
C2031 C2028 1.356 . S
C2031 C2033 1.358 . S
C2031 H2089 0.930 . S
C2032 N2029 1.314 . S
C2032 C2030 1.353 . S
C2032 H2090 0.930 . S
C2033 N2029 1.279 . S
C2033 C2031 1.358 . S
C2033 H2091 0.930 . S
C2034 C2037 1.348 . S
C2034 C2038 1.356 . S
C2034 O2085 1.325 . S
C2035 N2036 1.279 . S
C2035 C2038 1.358 . S
C2035 H2092 0.930 . S
N2036 C2035 1.279 . S
N2036 C2039 1.314 . S
C2037 C2034 1.348 . S
C2037 C2039 1.353 . S
C2037 H2093 0.929 . S
C2038 C2034 1.356 . S
C2038 C2035 1.358 . S
C2038 H2094 0.930 . S
C2039 N2036 1.314 . S
C2039 C2037 1.353 . S
C2039 H2095 0.930 . S
C2040 N2041 1.314 . S
C2040 C2045 1.353 . S
C2040 H2046 0.930 . S
N2041 Li2024 1.990 . S
N2041 C2040 1.314 . S
N2041 C2043 1.279 . S
C2042 C2043 1.358 . S
C2042 C2044 1.356 . S
C2042 H2096 0.930 . S
C2043 N2041 1.279 . S
C2043 C2042 1.358 . S
C2043 H2047 0.930 . S
C2044 C2042 1.356 . S
C2044 C2045 1.348 . S
C2045 C2040 1.353 . S
C2045 C2044 1.348 . S
C2045 H2097 0.929 . S
H2046 C2040 0.930 . S
H2047 C2043 0.930 . S
C2048 N2049 1.314 . S
C2048 C2050 1.353 . S
C2048 H2054 0.930 . S
N2049 Li2025 1.990 . S
N2049 C2048 1.314 . S
N2049 C2052 1.279 . S
C2050 C2048 1.353 . S
C2050 C2053 1.348 . S
C2050 H2098 0.929 . S
C2051 C2052 1.358 . S
C2051 C2053 1.356 . S
C2051 H2099 0.930 . S
C2052 N2049 1.279 . S
C2052 C2051 1.358 . S
C2052 H2055 0.930 . S
C2053 C2050 1.348 . S
C2053 C2051 1.356 . S
H2054 C2048 0.930 . S
H2055 C2052 0.930 . S
C2056 C2058 1.348 . S
C2056 C2059 1.356 . S
C2056 O2086 1.325 . S
N2057 C2060 1.314 . S
N2057 C2061 1.279 . S
C2058 C2056 1.348 . S
C2058 C2060 1.353 . S
C2058 H2100 0.929 . S
C2059 C2056 1.356 . S
C2059 C2061 1.358 . S
C2059 H2101 0.930 . S
C2060 N2057 1.314 . S
C2060 C2058 1.353 . S
C2060 H2102 0.930 . S
C2061 N2057 1.279 . S
C2061 C2059 1.358 . S
C2061 H2103 0.930 . S
C2062 C2063 1.348 . S
C2062 C2064 1.356 . S
C2062 O2087 1.325 . S
C2063 C2062 1.348 . S
C2063 C2065 1.353 . S
C2063 H2104 0.929 . S
C2064 C2062 1.356 . S
C2064 C2066 1.358 . S
C2064 H2105 0.930 . S
C2065 C2063 1.353 . S
C2065 N2067 1.314 . S
C2065 H2106 0.930 . S
C2066 C2064 1.358 . S
C2066 N2067 1.279 . S
C2066 H2107 0.930 . S
N2067 C2065 1.314 . S
N2067 C2066 1.279 . S
C2068 C2070 1.353 . S
C2068 N2071 1.314 . S
C2068 H2074 0.930 . S
C2069 N2071 1.279 . S
C2069 C2072 1.358 . S
C2069 H2075 0.930 . S
C2070 C2068 1.353 . S
C2070 C2073 1.348 . S
C2070 H2108 0.929 . S
N2071 Li2026 1.990 . S
N2071 C2068 1.314 . S
N2071 C2069 1.279 . S
C2072 C2069 1.358 . S
C2072 C2073 1.356 . S
C2072 H2109 0.930 . S
C2073 C2070 1.348 . S
C2073 C2072 1.356 . S
H2074 C2068 0.930 . S
H2075 C2069 0.930 . S
C2076 N2077 1.314 . S
C2076 C2078 1.353 . S
C2076 H2082 0.930 . S
N2077 Li2027 1.990 . S
N2077 C2076 1.314 . S
N2077 C2080 1.279 . S
C2078 C2076 1.353 . S
C2078 C2081 1.348 . S
C2078 H2110 0.929 . S
C2079 C2080 1.358 . S
C2079 C2081 1.356 . S
C2079 H2111 0.930 . S
C2080 N2077 1.279 . S
C2080 C2079 1.358 . S
C2080 H2083 0.930 . S
C2081 C2078 1.348 . S
C2081 C2079 1.356 . S
H2082 C2076 0.930 . S
H2083 C2080 0.930 . S
O2084 Li2024 1.956 . S
O2084 Li2025 1.970 . S
O2084 Li2026 1.961 . S
O2084 C2028 1.325 . S
O2085 Li2024 1.970 . S
O2085 Li2025 1.956 . S
O2085 Li2027 1.961 . S
O2085 C2034 1.325 . S
O2086 Li2024 1.961 . S
O2086 Li2026 1.956 . S
O2086 Li2027 1.970 . S
O2086 C2056 1.325 . S
O2087 Li2025 1.961 . S
O2087 Li2026 1.970 . S
O2087 Li2027 1.956 . S
O2087 C2062 1.325 . S
H2088 C2030 0.929 . S
H2089 C2031 0.930 . S
H2090 C2032 0.930 . S
H2091 C2033 0.930 . S
H2092 C2035 0.930 . S
H2093 C2037 0.929 . S
H2094 C2038 0.930 . S
H2095 C2039 0.930 . S
H2096 C2042 0.930 . S
H2097 C2045 0.929 . S
H2098 C2050 0.929 . S
H2099 C2051 0.930 . S
H2100 C2058 0.929 . S
H2101 C2059 0.930 . S
H2102 C2060 0.930 . S
H2103 C2061 0.930 . S
H2104 C2063 0.929 . S
H2105 C2064 0.930 . S
H2106 C2065 0.930 . S
H2107 C2066 0.930 . S
H2108 C2070 0.929 . S
H2109 C2072 0.930 . S
H2110 C2078 0.929 . S
H2111 C2079 0.930 . S
Li2112 N2129 1.990 . S
Li2112 O2172 1.956 . S
Li2112 O2173 1.970 . S
Li2112 O2174 1.961 . S
Li2113 N2137 1.990 . S
Li2113 O2172 1.970 . S
Li2113 O2173 1.956 . S
Li2113 O2175 1.961 . S
Li2114 N2159 1.990 . S
Li2114 O2172 1.961 . S
Li2114 O2174 1.956 . S
Li2114 O2175 1.970 . S
Li2115 N2165 1.990 . S
Li2115 O2173 1.961 . S
Li2115 O2174 1.970 . S
Li2115 O2175 1.956 . S
C2116 C2118 1.348 . S
C2116 C2119 1.356 . S
C2116 O2172 1.325 . S
N2117 C2120 1.314 . S
N2117 C2121 1.279 . S
C2118 C2116 1.348 . S
C2118 C2120 1.353 . S
C2118 H2176 0.929 . S
C2119 C2116 1.356 . S
C2119 C2121 1.358 . S
C2119 H2177 0.930 . S
C2120 N2117 1.314 . S
C2120 C2118 1.353 . S
C2120 H2178 0.930 . S
C2121 N2117 1.279 . S
C2121 C2119 1.358 . S
C2121 H2179 0.930 . S
C2122 C2125 1.348 . S
C2122 C2126 1.356 . S
C2122 O2173 1.325 . S
C2123 N2124 1.279 . S
C2123 C2126 1.358 . S
C2123 H2180 0.930 . S
N2124 C2123 1.279 . S
N2124 C2127 1.314 . S
C2125 C2122 1.348 . S
C2125 C2127 1.353 . S
C2125 H2181 0.929 . S
C2126 C2122 1.356 . S
C2126 C2123 1.358 . S
C2126 H2182 0.930 . S
C2127 N2124 1.314 . S
C2127 C2125 1.353 . S
C2127 H2183 0.930 . S
C2128 N2129 1.314 . S
C2128 C2133 1.353 . S
C2128 H2134 0.930 . S
N2129 Li2112 1.990 . S
N2129 C2128 1.314 . S
N2129 C2131 1.279 . S
C2130 C2131 1.358 . S
C2130 C2132 1.356 . S
C2130 H2184 0.930 . S
C2131 N2129 1.279 . S
C2131 C2130 1.358 . S
C2131 H2135 0.930 . S
C2132 C2130 1.356 . S
C2132 C2133 1.348 . S
C2133 C2128 1.353 . S
C2133 C2132 1.348 . S
C2133 H2185 0.929 . S
H2134 C2128 0.930 . S
H2135 C2131 0.930 . S
C2136 N2137 1.314 . S
C2136 C2138 1.353 . S
C2136 H2142 0.930 . S
N2137 Li2113 1.990 . S
N2137 C2136 1.314 . S
N2137 C2140 1.279 . S
C2138 C2136 1.353 . S
C2138 C2141 1.348 . S
C2138 H2186 0.929 . S
C2139 C2140 1.358 . S
C2139 C2141 1.356 . S
C2139 H2187 0.930 . S
C2140 N2137 1.279 . S
C2140 C2139 1.358 . S
C2140 H2143 0.930 . S
C2141 C2138 1.348 . S
C2141 C2139 1.356 . S
H2142 C2136 0.930 . S
H2143 C2140 0.930 . S
C2144 C2146 1.348 . S
C2144 C2147 1.356 . S
C2144 O2174 1.325 . S
N2145 C2148 1.314 . S
N2145 C2149 1.279 . S
C2146 C2144 1.348 . S
C2146 C2148 1.353 . S
C2146 H2188 0.929 . S
C2147 C2144 1.356 . S
C2147 C2149 1.358 . S
C2147 H2189 0.930 . S
C2148 N2145 1.314 . S
C2148 C2146 1.353 . S
C2148 H2190 0.930 . S
C2149 N2145 1.279 . S
C2149 C2147 1.358 . S
C2149 H2191 0.930 . S
C2150 C2151 1.348 . S
C2150 C2152 1.356 . S
C2150 O2175 1.325 . S
C2151 C2150 1.348 . S
C2151 C2153 1.353 . S
C2151 H2192 0.929 . S
C2152 C2150 1.356 . S
C2152 C2154 1.358 . S
C2152 H2193 0.930 . S
C2153 C2151 1.353 . S
C2153 N2155 1.314 . S
C2153 H2194 0.930 . S
C2154 C2152 1.358 . S
C2154 N2155 1.279 . S
C2154 H2195 0.930 . S
N2155 C2153 1.314 . S
N2155 C2154 1.279 . S
C2156 C2158 1.353 . S
C2156 N2159 1.314 . S
C2156 H2162 0.930 . S
C2157 N2159 1.279 . S
C2157 C2160 1.358 . S
C2157 H2163 0.930 . S
C2158 C2156 1.353 . S
C2158 C2161 1.348 . S
C2158 H2196 0.929 . S
N2159 Li2114 1.990 . S
N2159 C2156 1.314 . S
N2159 C2157 1.279 . S
C2160 C2157 1.358 . S
C2160 C2161 1.356 . S
C2160 H2197 0.930 . S
C2161 C2158 1.348 . S
C2161 C2160 1.356 . S
H2162 C2156 0.930 . S
H2163 C2157 0.930 . S
C2164 N2165 1.314 . S
C2164 C2166 1.353 . S
C2164 H2170 0.930 . S
N2165 Li2115 1.990 . S
N2165 C2164 1.314 . S
N2165 C2168 1.279 . S
C2166 C2164 1.353 . S
C2166 C2169 1.348 . S
C2166 H2198 0.929 . S
C2167 C2168 1.358 . S
C2167 C2169 1.356 . S
C2167 H2199 0.930 . S
C2168 N2165 1.279 . S
C2168 C2167 1.358 . S
C2168 H2171 0.930 . S
C2169 C2166 1.348 . S
C2169 C2167 1.356 . S
H2170 C2164 0.930 . S
H2171 C2168 0.930 . S
O2172 Li2112 1.956 . S
O2172 Li2113 1.970 . S
O2172 Li2114 1.961 . S
O2172 C2116 1.325 . S
O2173 Li2112 1.970 . S
O2173 Li2113 1.956 . S
O2173 Li2115 1.961 . S
O2173 C2122 1.325 . S
O2174 Li2112 1.961 . S
O2174 Li2114 1.956 . S
O2174 Li2115 1.970 . S
O2174 C2144 1.325 . S
O2175 Li2113 1.961 . S
O2175 Li2114 1.970 . S
O2175 Li2115 1.956 . S
O2175 C2150 1.325 . S
H2176 C2118 0.929 . S
H2177 C2119 0.930 . S
H2178 C2120 0.930 . S
H2179 C2121 0.930 . S
H2180 C2123 0.930 . S
H2181 C2125 0.929 . S
H2182 C2126 0.930 . S
H2183 C2127 0.930 . S
H2184 C2130 0.930 . S
H2185 C2133 0.929 . S
H2186 C2138 0.929 . S
H2187 C2139 0.930 . S
H2188 C2146 0.929 . S
H2189 C2147 0.930 . S
H2190 C2148 0.930 . S
H2191 C2149 0.930 . S
H2192 C2151 0.929 . S
H2193 C2152 0.930 . S
H2194 C2153 0.930 . S
H2195 C2154 0.930 . S
H2196 C2158 0.929 . S
H2197 C2160 0.930 . S
H2198 C2166 0.929 . S
H2199 C2167 0.930 . S
Li2200 N2217 1.990 . S
Li2200 O2260 1.956 . S
Li2200 O2261 1.970 . S
Li2200 O2262 1.961 . S
Li2201 N2225 1.990 . S
Li2201 O2260 1.970 . S
Li2201 O2261 1.956 . S
Li2201 O2263 1.961 . S
Li2202 N2247 1.990 . S
Li2202 O2260 1.961 . S
Li2202 O2262 1.956 . S
Li2202 O2263 1.970 . S
Li2203 N2253 1.990 . S
Li2203 O2261 1.961 . S
Li2203 O2262 1.970 . S
Li2203 O2263 1.956 . S
C2204 C2206 1.348 . S
C2204 C2207 1.356 . S
C2204 O2260 1.325 . S
N2205 C2208 1.314 . S
N2205 C2209 1.279 . S
C2206 C2204 1.348 . S
C2206 C2208 1.353 . S
C2206 H2264 0.929 . S
C2207 C2204 1.356 . S
C2207 C2209 1.358 . S
C2207 H2265 0.930 . S
C2208 N2205 1.314 . S
C2208 C2206 1.353 . S
C2208 H2266 0.930 . S
C2209 N2205 1.279 . S
C2209 C2207 1.358 . S
C2209 H2267 0.930 . S
C2210 C2213 1.348 . S
C2210 C2214 1.356 . S
C2210 O2261 1.325 . S
C2211 N2212 1.279 . S
C2211 C2214 1.358 . S
C2211 H2268 0.930 . S
N2212 C2211 1.279 . S
N2212 C2215 1.314 . S
C2213 C2210 1.348 . S
C2213 C2215 1.353 . S
C2213 H2269 0.929 . S
C2214 C2210 1.356 . S
C2214 C2211 1.358 . S
C2214 H2270 0.930 . S
C2215 N2212 1.314 . S
C2215 C2213 1.353 . S
C2215 H2271 0.930 . S
C2216 N2217 1.314 . S
C2216 C2221 1.353 . S
C2216 H2222 0.930 . S
N2217 Li2200 1.990 . S
N2217 C2216 1.314 . S
N2217 C2219 1.279 . S
C2218 C2219 1.358 . S
C2218 C2220 1.356 . S
C2218 H2272 0.930 . S
C2219 N2217 1.279 . S
C2219 C2218 1.358 . S
C2219 H2223 0.930 . S
C2220 C2218 1.356 . S
C2220 C2221 1.348 . S
C2221 C2216 1.353 . S
C2221 C2220 1.348 . S
C2221 H2273 0.929 . S
H2222 C2216 0.930 . S
H2223 C2219 0.930 . S
C2224 N2225 1.314 . S
C2224 C2226 1.353 . S
C2224 H2230 0.930 . S
N2225 Li2201 1.990 . S
N2225 C2224 1.314 . S
N2225 C2228 1.279 . S
C2226 C2224 1.353 . S
C2226 C2229 1.348 . S
C2226 H2274 0.929 . S
C2227 C2228 1.358 . S
C2227 C2229 1.356 . S
C2227 H2275 0.930 . S
C2228 N2225 1.279 . S
C2228 C2227 1.358 . S
C2228 H2231 0.930 . S
C2229 C2226 1.348 . S
C2229 C2227 1.356 . S
H2230 C2224 0.930 . S
H2231 C2228 0.930 . S
C2232 C2234 1.348 . S
C2232 C2235 1.356 . S
C2232 O2262 1.325 . S
N2233 C2236 1.314 . S
N2233 C2237 1.279 . S
C2234 C2232 1.348 . S
C2234 C2236 1.353 . S
C2234 H2276 0.929 . S
C2235 C2232 1.356 . S
C2235 C2237 1.358 . S
C2235 H2277 0.930 . S
C2236 N2233 1.314 . S
C2236 C2234 1.353 . S
C2236 H2278 0.930 . S
C2237 N2233 1.279 . S
C2237 C2235 1.358 . S
C2237 H2279 0.930 . S
C2238 C2239 1.348 . S
C2238 C2240 1.356 . S
C2238 O2263 1.325 . S
C2239 C2238 1.348 . S
C2239 C2241 1.353 . S
C2239 H2280 0.929 . S
C2240 C2238 1.356 . S
C2240 C2242 1.358 . S
C2240 H2281 0.930 . S
C2241 C2239 1.353 . S
C2241 N2243 1.314 . S
C2241 H2282 0.930 . S
C2242 C2240 1.358 . S
C2242 N2243 1.279 . S
C2242 H2283 0.930 . S
N2243 C2241 1.314 . S
N2243 C2242 1.279 . S
C2244 C2246 1.353 . S
C2244 N2247 1.314 . S
C2244 H2250 0.930 . S
C2245 N2247 1.279 . S
C2245 C2248 1.358 . S
C2245 H2251 0.930 . S
C2246 C2244 1.353 . S
C2246 C2249 1.348 . S
C2246 H2284 0.929 . S
N2247 Li2202 1.990 . S
N2247 C2244 1.314 . S
N2247 C2245 1.279 . S
C2248 C2245 1.358 . S
C2248 C2249 1.356 . S
C2248 H2285 0.930 . S
C2249 C2246 1.348 . S
C2249 C2248 1.356 . S
H2250 C2244 0.930 . S
H2251 C2245 0.930 . S
C2252 N2253 1.314 . S
C2252 C2254 1.353 . S
C2252 H2258 0.930 . S
N2253 Li2203 1.990 . S
N2253 C2252 1.314 . S
N2253 C2256 1.279 . S
C2254 C2252 1.353 . S
C2254 C2257 1.348 . S
C2254 H2286 0.929 . S
C2255 C2256 1.358 . S
C2255 C2257 1.356 . S
C2255 H2287 0.930 . S
C2256 N2253 1.279 . S
C2256 C2255 1.358 . S
C2256 H2259 0.930 . S
C2257 C2254 1.348 . S
C2257 C2255 1.356 . S
H2258 C2252 0.930 . S
H2259 C2256 0.930 . S
O2260 Li2200 1.956 . S
O2260 Li2201 1.970 . S
O2260 Li2202 1.961 . S
O2260 C2204 1.325 . S
O2261 Li2200 1.970 . S
O2261 Li2201 1.956 . S
O2261 Li2203 1.961 . S
O2261 C2210 1.325 . S
O2262 Li2200 1.961 . S
O2262 Li2202 1.956 . S
O2262 Li2203 1.970 . S
O2262 C2232 1.325 . S
O2263 Li2201 1.961 . S
O2263 Li2202 1.970 . S
O2263 Li2203 1.956 . S
O2263 C2238 1.325 . S
H2264 C2206 0.929 . S
H2265 C2207 0.930 . S
H2266 C2208 0.930 . S
H2267 C2209 0.930 . S
H2268 C2211 0.930 . S
H2269 C2213 0.929 . S
H2270 C2214 0.930 . S
H2271 C2215 0.930 . S
H2272 C2218 0.930 . S
H2273 C2221 0.929 . S
H2274 C2226 0.929 . S
H2275 C2227 0.930 . S
H2276 C2234 0.929 . S
H2277 C2235 0.930 . S
H2278 C2236 0.930 . S
H2279 C2237 0.930 . S
H2280 C2239 0.929 . S
H2281 C2240 0.930 . S
H2282 C2241 0.930 . S
H2283 C2242 0.930 . S
H2284 C2246 0.929 . S
H2285 C2248 0.930 . S
H2286 C2254 0.929 . S
H2287 C2255 0.930 . S
Li2288 N2305 1.990 . S
Li2288 O2348 1.943 1_556 S
Li2288 O2349 1.970 . S
Li2288 O2350 1.961 . S
Li2289 N2313 1.990 . S
Li2289 O2348 1.977 . S
Li2289 O2349 1.956 1_554 S
Li2289 O2351 1.961 1_554 S
Li2290 N2335 1.990 . S
Li2290 O2348 1.947 1_556 S
Li2290 O2350 1.956 . S
Li2290 O2351 1.970 . S
Li2291 N2341 1.990 . S
Li2291 O2349 1.961 . S
Li2291 O2350 1.970 . S
Li2291 O2351 1.956 . S
C2292 C2294 1.348 . S
C2292 C2295 1.356 . S
C2292 O2348 1.335 . S
N2293 C2296 1.314 . S
N2293 C2297 1.279 . S
C2294 C2292 1.348 . S
C2294 C2296 1.353 . S
C2294 H2352 0.929 . S
C2295 C2292 1.356 . S
C2295 C2297 1.358 . S
C2295 H2353 0.930 1_554 S
C2296 N2293 1.314 . S
C2296 C2294 1.353 . S
C2296 H2354 0.930 . S
C2297 N2293 1.279 . S
C2297 C2295 1.358 . S
C2297 H2355 0.930 . S
C2298 C2301 1.348 . S
C2298 C2302 1.360 . S
C2298 O2349 1.325 . S
C2299 N2300 1.279 . S
C2299 C2302 1.355 1_554 S
C2299 H2356 0.930 . S
N2300 C2299 1.279 . S
N2300 C2303 1.314 . S
C2301 C2298 1.348 . S
C2301 C2303 1.353 1_556 S
C2301 H2357 0.929 . S
C2302 C2298 1.360 . S
C2302 C2299 1.355 1_556 S
C2302 H2358 0.929 . S
C2303 N2300 1.314 . S
C2303 C2301 1.353 1_554 S
C2303 H2359 0.930 . S
C2304 N2305 1.314 . S
C2304 C2309 1.353 . S
C2304 H2310 0.930 . S
N2305 Li2288 1.990 . S
N2305 C2304 1.314 . S
N2305 C2307 1.279 . S
C2306 C2307 1.358 . S
C2306 C2308 1.356 . S
C2306 H2360 0.930 . S
C2307 N2305 1.279 . S
C2307 C2306 1.358 . S
C2307 H2311 0.930 . S
C2308 C2306 1.356 . S
C2308 C2309 1.348 . S
C2309 C2304 1.353 . S
C2309 C2308 1.348 . S
C2309 H2361 0.929 . S
H2310 C2304 0.930 . S
H2311 C2307 0.930 . S
C2312 N2313 1.314 . S
C2312 C2314 1.353 . S
C2312 H2318 0.930 . S
N2313 Li2289 1.990 . S
N2313 C2312 1.314 . S
N2313 C2316 1.279 . S
C2314 C2312 1.353 . S
C2314 C2317 1.348 . S
C2314 H2362 0.929 . S
C2315 C2316 1.358 . S
C2315 C2317 1.356 . S
C2315 H2363 0.930 . S
C2316 N2313 1.279 . S
C2316 C2315 1.358 . S
C2316 H2319 0.930 . S
C2317 C2314 1.348 . S
C2317 C2315 1.356 . S
H2318 C2312 0.930 . S
H2319 C2316 0.930 . S
C2320 C2322 1.348 . S
C2320 C2323 1.356 . S
C2320 O2350 1.325 . S
N2321 C2324 1.314 . S
N2321 C2325 1.279 . S
C2322 C2320 1.348 . S
C2322 C2324 1.353 . S
C2322 H2364 0.929 . S
C2323 C2320 1.356 . S
C2323 C2325 1.358 . S
C2323 H2365 0.930 . S
C2324 N2321 1.314 . S
C2324 C2322 1.353 . S
C2324 H2366 0.930 . S
C2325 N2321 1.279 . S
C2325 C2323 1.358 . S
C2325 H2367 0.930 . S
C2326 C2327 1.348 . S
C2326 C2328 1.356 1_556 S
C2326 O2351 1.325 . S
C2327 C2326 1.348 . S
C2327 C2329 1.353 . S
C2327 H2368 0.929 . S
C2328 C2326 1.356 1_554 S
C2328 C2330 1.358 . S
C2328 H2369 0.930 . S
C2329 C2327 1.353 . S
C2329 N2331 1.314 1_556 S
C2329 H2370 0.930 . S
C2330 C2328 1.358 . S
C2330 N2331 1.279 . S
C2330 H2371 0.930 . S
N2331 C2329 1.314 1_554 S
N2331 C2330 1.279 . S
C2332 C2334 1.353 . S
C2332 N2335 1.314 . S
C2332 H2338 0.925 1_556 S
C2333 N2335 1.279 . S
C2333 C2336 1.358 . S
C2333 H2339 0.930 . S
C2334 C2332 1.353 . S
C2334 C2337 1.348 . S
C2334 H2372 0.929 . S
N2335 Li2290 1.990 . S
N2335 C2332 1.314 . S
N2335 C2333 1.279 . S
C2336 C2333 1.358 . S
C2336 C2337 1.356 . S
C2336 H2373 0.930 . S
C2337 C2334 1.348 . S
C2337 C2336 1.356 . S
H2338 C2332 0.925 1_554 S
H2339 C2333 0.930 . S
C2340 N2341 1.314 . S
C2340 C2342 1.353 . S
C2340 H2346 0.930 . S
N2341 Li2291 1.990 . S
N2341 C2340 1.314 . S
N2341 C2344 1.279 . S
C2342 C2340 1.353 . S
C2342 C2345 1.348 . S
C2342 H2374 0.929 . S
C2343 C2344 1.358 . S
C2343 C2345 1.356 . S
C2343 H2375 0.930 . S
C2344 N2341 1.279 . S
C2344 C2343 1.358 . S
C2344 H2347 0.930 . S
C2345 C2342 1.348 . S
C2345 C2343 1.356 . S
H2346 C2340 0.930 . S
H2347 C2344 0.930 . S
O2348 Li2288 1.943 1_554 S
O2348 Li2289 1.977 . S
O2348 Li2290 1.947 1_554 S
O2348 C2292 1.335 . S
O2349 Li2288 1.970 . S
O2349 Li2289 1.956 1_556 S
O2349 Li2291 1.961 . S
O2349 C2298 1.325 . S
O2350 Li2288 1.961 . S
O2350 Li2290 1.956 . S
O2350 Li2291 1.970 . S
O2350 C2320 1.325 . S
O2351 Li2289 1.961 1_556 S
O2351 Li2290 1.970 . S
O2351 Li2291 1.956 . S
O2351 C2326 1.325 . S
H2352 C2294 0.929 . S
H2353 C2295 0.930 1_556 S
H2354 C2296 0.930 . S
H2355 C2297 0.930 . S
H2356 C2299 0.930 . S
H2357 C2301 0.929 . S
H2358 C2302 0.929 . S
H2359 C2303 0.930 . S
H2360 C2306 0.930 . S
H2361 C2309 0.929 . S
H2362 C2314 0.929 . S
H2363 C2315 0.930 . S
H2364 C2322 0.929 . S
H2365 C2323 0.930 . S
H2366 C2324 0.930 . S
H2367 C2325 0.930 . S
H2368 C2327 0.929 . S
H2369 C2328 0.930 . S
H2370 C2329 0.930 . S
H2371 C2330 0.930 . S
H2372 C2334 0.929 . S
H2373 C2336 0.930 . S
H2374 C2342 0.929 . S
H2375 C2343 0.930 . S
Li2376 N2393 1.990 . S
Li2376 O2436 1.956 1_554 S
Li2376 O2437 1.977 . S
Li2376 O2438 1.961 1_554 S
Li2377 N2401 1.990 . S
Li2377 O2436 1.970 . S
Li2377 O2437 1.943 1_556 S
Li2377 O2439 1.961 . S
Li2378 N2423 1.990 . S
Li2378 O2436 1.961 . S
Li2378 O2438 1.956 . S
Li2378 O2439 1.970 . S
Li2379 N2429 1.990 . S
Li2379 O2437 1.947 1_556 S
Li2379 O2438 1.970 . S
Li2379 O2439 1.956 . S
C2380 C2382 1.348 . S
C2380 C2383 1.360 . S
C2380 O2436 1.325 . S
N2381 C2384 1.314 . S
N2381 C2385 1.279 . S
C2382 C2380 1.348 . S
C2382 C2384 1.353 1_556 S
C2382 H2440 0.929 . S
C2383 C2380 1.360 . S
C2383 C2385 1.355 1_556 S
C2383 H2441 0.929 . S
C2384 N2381 1.314 . S
C2384 C2382 1.353 1_554 S
C2384 H2442 0.930 . S
C2385 N2381 1.279 . S
C2385 C2383 1.355 1_554 S
C2385 H2443 0.930 . S
C2386 C2389 1.348 . S
C2386 C2390 1.356 . S
C2386 O2437 1.335 . S
C2387 N2388 1.279 . S
C2387 C2390 1.358 . S
C2387 H2444 0.930 . S
N2388 C2387 1.279 . S
N2388 C2391 1.314 . S
C2389 C2386 1.348 . S
C2389 C2391 1.353 . S
C2389 H2445 0.929 . S
C2390 C2386 1.356 . S
C2390 C2387 1.358 . S
C2390 H2446 0.930 1_554 S
C2391 N2388 1.314 . S
C2391 C2389 1.353 . S
C2391 H2447 0.930 . S
C2392 N2393 1.314 . S
C2392 C2397 1.353 . S
C2392 H2398 0.930 . S
N2393 Li2376 1.990 . S
N2393 C2392 1.314 . S
N2393 C2395 1.279 . S
C2394 C2395 1.358 . S
C2394 C2396 1.356 . S
C2394 H2448 0.930 . S
C2395 N2393 1.279 . S
C2395 C2394 1.358 . S
C2395 H2399 0.930 . S
C2396 C2394 1.356 . S
C2396 C2397 1.348 . S
C2397 C2392 1.353 . S
C2397 C2396 1.348 . S
C2397 H2449 0.929 . S
H2398 C2392 0.930 . S
H2399 C2395 0.930 . S
C2400 N2401 1.314 . S
C2400 C2402 1.353 . S
C2400 H2406 0.930 . S
N2401 Li2377 1.990 . S
N2401 C2400 1.314 . S
N2401 C2404 1.279 . S
C2402 C2400 1.353 . S
C2402 C2405 1.348 . S
C2402 H2450 0.929 . S
C2403 C2404 1.358 . S
C2403 C2405 1.356 . S
C2403 H2451 0.930 . S
C2404 N2401 1.279 . S
C2404 C2403 1.358 . S
C2404 H2407 0.930 . S
C2405 C2402 1.348 . S
C2405 C2403 1.356 . S
H2406 C2400 0.930 . S
H2407 C2404 0.930 . S
C2408 C2410 1.348 . S
C2408 C2411 1.356 1_556 S
C2408 O2438 1.325 . S
N2409 C2412 1.314 1_554 S
N2409 C2413 1.279 . S
C2410 C2408 1.348 . S
C2410 C2412 1.353 . S
C2410 H2452 0.929 . S
C2411 C2408 1.356 1_554 S
C2411 C2413 1.358 . S
C2411 H2453 0.930 . S
C2412 N2409 1.314 1_556 S
C2412 C2410 1.353 . S
C2412 H2454 0.930 . S
C2413 N2409 1.279 . S
C2413 C2411 1.358 . S
C2413 H2455 0.930 . S
C2414 C2415 1.348 . S
C2414 C2416 1.356 . S
C2414 O2439 1.325 . S
C2415 C2414 1.348 . S
C2415 C2417 1.353 . S
C2415 H2456 0.929 . S
C2416 C2414 1.356 . S
C2416 C2418 1.358 . S
C2416 H2457 0.930 . S
C2417 C2415 1.353 . S
C2417 N2419 1.314 . S
C2417 H2458 0.930 . S
C2418 C2416 1.358 . S
C2418 N2419 1.279 . S
C2418 H2459 0.930 . S
N2419 C2417 1.314 . S
N2419 C2418 1.279 . S
C2420 C2422 1.353 . S
C2420 N2423 1.314 . S
C2420 H2426 0.930 . S
C2421 N2423 1.279 . S
C2421 C2424 1.358 . S
C2421 H2427 0.930 . S
C2422 C2420 1.353 . S
C2422 C2425 1.348 . S
C2422 H2460 0.929 . S
N2423 Li2378 1.990 . S
N2423 C2420 1.314 . S
N2423 C2421 1.279 . S
C2424 C2421 1.358 . S
C2424 C2425 1.356 . S
C2424 H2461 0.930 . S
C2425 C2422 1.348 . S
C2425 C2424 1.356 . S
H2426 C2420 0.930 . S
H2427 C2421 0.930 . S
C2428 N2429 1.314 . S
C2428 C2430 1.353 . S
C2428 H2434 0.925 1_556 S
N2429 Li2379 1.990 . S
N2429 C2428 1.314 . S
N2429 C2432 1.279 . S
C2430 C2428 1.353 . S
C2430 C2433 1.348 . S
C2430 H2462 0.929 . S
C2431 C2432 1.358 . S
C2431 C2433 1.356 . S
C2431 H2463 0.930 . S
C2432 N2429 1.279 . S
C2432 C2431 1.358 . S
C2432 H2435 0.930 . S
C2433 C2430 1.348 . S
C2433 C2431 1.356 . S
H2434 C2428 0.925 1_554 S
H2435 C2432 0.930 . S
O2436 Li2376 1.956 1_556 S
O2436 Li2377 1.970 . S
O2436 Li2378 1.961 . S
O2436 C2380 1.325 . S
O2437 Li2376 1.977 . S
O2437 Li2377 1.943 1_554 S
O2437 Li2379 1.947 1_554 S
O2437 C2386 1.335 . S
O2438 Li2376 1.961 1_556 S
O2438 Li2378 1.956 . S
O2438 Li2379 1.970 . S
O2438 C2408 1.325 . S
O2439 Li2377 1.961 . S
O2439 Li2378 1.970 . S
O2439 Li2379 1.956 . S
O2439 C2414 1.325 . S
H2440 C2382 0.929 . S
H2441 C2383 0.929 . S
H2442 C2384 0.930 . S
H2443 C2385 0.930 . S
H2444 C2387 0.930 . S
H2445 C2389 0.929 . S
H2446 C2390 0.930 1_556 S
H2447 C2391 0.930 . S
H2448 C2394 0.930 . S
H2449 C2397 0.929 . S
H2450 C2402 0.929 . S
H2451 C2403 0.930 . S
H2452 C2410 0.929 . S
H2453 C2411 0.930 . S
H2454 C2412 0.930 . S
H2455 C2413 0.930 . S
H2456 C2415 0.929 . S
H2457 C2416 0.930 . S
H2458 C2417 0.930 . S
H2459 C2418 0.930 . S
H2460 C2422 0.929 . S
H2461 C2424 0.930 . S
H2462 C2430 0.929 . S
H2463 C2431 0.930 . S
Li2464 N2481 1.990 . S
Li2464 O2524 1.956 . S
Li2464 O2525 1.970 . S
Li2464 O2526 1.961 . S
Li2465 N2489 1.990 . S
Li2465 O2524 1.970 . S
Li2465 O2525 1.956 . S
Li2465 O2527 1.961 . S
Li2466 N2511 1.990 . S
Li2466 O2524 1.961 . S
Li2466 O2526 1.956 . S
Li2466 O2527 1.970 . S
Li2467 N2517 1.990 . S
Li2467 O2525 1.961 . S
Li2467 O2526 1.970 . S
Li2467 O2527 1.956 . S
C2468 C2470 1.348 . S
C2468 C2471 1.356 . S
C2468 O2524 1.325 . S
N2469 C2472 1.314 . S
N2469 C2473 1.279 . S
C2470 C2468 1.348 . S
C2470 C2472 1.353 . S
C2470 H2528 0.929 . S
C2471 C2468 1.356 . S
C2471 C2473 1.358 . S
C2471 H2529 0.930 . S
C2472 N2469 1.314 . S
C2472 C2470 1.353 . S
C2472 H2530 0.930 . S
C2473 N2469 1.279 . S
C2473 C2471 1.358 . S
C2473 H2531 0.930 . S
C2474 C2477 1.348 . S
C2474 C2478 1.356 . S
C2474 O2525 1.325 . S
C2475 N2476 1.279 . S
C2475 C2478 1.358 . S
C2475 H2532 0.930 . S
N2476 C2475 1.279 . S
N2476 C2479 1.314 . S
C2477 C2474 1.348 . S
C2477 C2479 1.353 . S
C2477 H2533 0.929 . S
C2478 C2474 1.356 . S
C2478 C2475 1.358 . S
C2478 H2534 0.930 . S
C2479 N2476 1.314 . S
C2479 C2477 1.353 . S
C2479 H2535 0.930 . S
C2480 N2481 1.314 . S
C2480 C2485 1.353 . S
C2480 H2486 0.930 . S
N2481 Li2464 1.990 . S
N2481 C2480 1.314 . S
N2481 C2483 1.279 . S
C2482 C2483 1.358 . S
C2482 C2484 1.356 . S
C2482 H2536 0.930 . S
C2483 N2481 1.279 . S
C2483 C2482 1.358 . S
C2483 H2487 0.930 . S
C2484 C2482 1.356 . S
C2484 C2485 1.348 . S
C2485 C2480 1.353 . S
C2485 C2484 1.348 . S
C2485 H2537 0.929 . S
H2486 C2480 0.930 . S
H2487 C2483 0.930 . S
C2488 N2489 1.314 . S
C2488 C2490 1.353 . S
C2488 H2494 0.930 . S
N2489 Li2465 1.990 . S
N2489 C2488 1.314 . S
N2489 C2492 1.279 . S
C2490 C2488 1.353 . S
C2490 C2493 1.348 . S
C2490 H2538 0.929 . S
C2491 C2492 1.358 . S
C2491 C2493 1.356 . S
C2491 H2539 0.930 . S
C2492 N2489 1.279 . S
C2492 C2491 1.358 . S
C2492 H2495 0.930 . S
C2493 C2490 1.348 . S
C2493 C2491 1.356 . S
H2494 C2488 0.930 . S
H2495 C2492 0.930 . S
C2496 C2498 1.348 . S
C2496 C2499 1.356 . S
C2496 O2526 1.325 . S
N2497 C2500 1.314 . S
N2497 C2501 1.279 . S
C2498 C2496 1.348 . S
C2498 C2500 1.353 . S
C2498 H2540 0.929 . S
C2499 C2496 1.356 . S
C2499 C2501 1.358 . S
C2499 H2541 0.930 . S
C2500 N2497 1.314 . S
C2500 C2498 1.353 . S
C2500 H2542 0.930 . S
C2501 N2497 1.279 . S
C2501 C2499 1.358 . S
C2501 H2543 0.930 . S
C2502 C2503 1.348 . S
C2502 C2504 1.356 . S
C2502 O2527 1.325 . S
C2503 C2502 1.348 . S
C2503 C2505 1.353 . S
C2503 H2544 0.929 . S
C2504 C2502 1.356 . S
C2504 C2506 1.358 . S
C2504 H2545 0.930 . S
C2505 C2503 1.353 . S
C2505 N2507 1.314 . S
C2505 H2546 0.930 . S
C2506 C2504 1.358 . S
C2506 N2507 1.279 . S
C2506 H2547 0.930 . S
N2507 C2505 1.314 . S
N2507 C2506 1.279 . S
C2508 C2510 1.353 . S
C2508 N2511 1.314 . S
C2508 H2514 0.930 . S
C2509 N2511 1.279 . S
C2509 C2512 1.358 . S
C2509 H2515 0.930 . S
C2510 C2508 1.353 . S
C2510 C2513 1.348 . S
C2510 H2548 0.929 . S
N2511 Li2466 1.990 . S
N2511 C2508 1.314 . S
N2511 C2509 1.279 . S
C2512 C2509 1.358 . S
C2512 C2513 1.356 . S
C2512 H2549 0.930 . S
C2513 C2510 1.348 . S
C2513 C2512 1.356 . S
H2514 C2508 0.930 . S
H2515 C2509 0.930 . S
C2516 N2517 1.314 . S
C2516 C2518 1.353 . S
C2516 H2522 0.930 . S
N2517 Li2467 1.990 . S
N2517 C2516 1.314 . S
N2517 C2520 1.279 . S
C2518 C2516 1.353 . S
C2518 C2521 1.348 . S
C2518 H2550 0.929 . S
C2519 C2520 1.358 . S
C2519 C2521 1.356 . S
C2519 H2551 0.930 . S
C2520 N2517 1.279 . S
C2520 C2519 1.358 . S
C2520 H2523 0.930 . S
C2521 C2518 1.348 . S
C2521 C2519 1.356 . S
H2522 C2516 0.930 . S
H2523 C2520 0.930 . S
O2524 Li2464 1.956 . S
O2524 Li2465 1.970 . S
O2524 Li2466 1.961 . S
O2524 C2468 1.325 . S
O2525 Li2464 1.970 . S
O2525 Li2465 1.956 . S
O2525 Li2467 1.961 . S
O2525 C2474 1.325 . S
O2526 Li2464 1.961 . S
O2526 Li2466 1.956 . S
O2526 Li2467 1.970 . S
O2526 C2496 1.325 . S
O2527 Li2465 1.961 . S
O2527 Li2466 1.970 . S
O2527 Li2467 1.956 . S
O2527 C2502 1.325 . S
H2528 C2470 0.929 . S
H2529 C2471 0.930 . S
H2530 C2472 0.930 . S
H2531 C2473 0.930 . S
H2532 C2475 0.930 . S
H2533 C2477 0.929 . S
H2534 C2478 0.930 . S
H2535 C2479 0.930 . S
H2536 C2482 0.930 . S
H2537 C2485 0.929 . S
H2538 C2490 0.929 . S
H2539 C2491 0.930 . S
H2540 C2498 0.929 . S
H2541 C2499 0.930 . S
H2542 C2500 0.930 . S
H2543 C2501 0.930 . S
H2544 C2503 0.929 . S
H2545 C2504 0.930 . S
H2546 C2505 0.930 . S
H2547 C2506 0.930 . S
H2548 C2510 0.929 . S
H2549 C2512 0.930 . S
H2550 C2518 0.929 . S
H2551 C2519 0.930 . S
Li2552 N2569 1.990 . S
Li2552 O2612 1.956 . S
Li2552 O2613 1.970 . S
Li2552 O2614 1.961 . S
Li2553 N2577 1.990 . S
Li2553 O2612 1.970 . S
Li2553 O2613 1.956 . S
Li2553 O2615 1.961 . S
Li2554 N2599 1.990 . S
Li2554 O2612 1.961 . S
Li2554 O2614 1.956 . S
Li2554 O2615 1.970 . S
Li2555 N2605 1.990 . S
Li2555 O2613 1.961 . S
Li2555 O2614 1.970 . S
Li2555 O2615 1.956 . S
C2556 C2558 1.348 . S
C2556 C2559 1.356 . S
C2556 O2612 1.325 . S
N2557 C2560 1.314 . S
N2557 C2561 1.279 . S
C2558 C2556 1.348 . S
C2558 C2560 1.353 . S
C2558 H2616 0.929 . S
C2559 C2556 1.356 . S
C2559 C2561 1.358 . S
C2559 H2617 0.930 . S
C2560 N2557 1.314 . S
C2560 C2558 1.353 . S
C2560 H2618 0.930 . S
C2561 N2557 1.279 . S
C2561 C2559 1.358 . S
C2561 H2619 0.930 . S
C2562 C2565 1.348 . S
C2562 C2566 1.356 . S
C2562 O2613 1.325 . S
C2563 N2564 1.279 . S
C2563 C2566 1.358 . S
C2563 H2620 0.930 . S
N2564 C2563 1.279 . S
N2564 C2567 1.314 . S
C2565 C2562 1.348 . S
C2565 C2567 1.353 . S
C2565 H2621 0.929 . S
C2566 C2562 1.356 . S
C2566 C2563 1.358 . S
C2566 H2622 0.930 . S
C2567 N2564 1.314 . S
C2567 C2565 1.353 . S
C2567 H2623 0.930 . S
C2568 N2569 1.314 . S
C2568 C2573 1.353 . S
C2568 H2574 0.930 . S
N2569 Li2552 1.990 . S
N2569 C2568 1.314 . S
N2569 C2571 1.279 . S
C2570 C2571 1.358 . S
C2570 C2572 1.356 . S
C2570 H2624 0.930 . S
C2571 N2569 1.279 . S
C2571 C2570 1.358 . S
C2571 H2575 0.930 . S
C2572 C2570 1.356 . S
C2572 C2573 1.348 . S
C2573 C2568 1.353 . S
C2573 C2572 1.348 . S
C2573 H2625 0.929 . S
H2574 C2568 0.930 . S
H2575 C2571 0.930 . S
C2576 N2577 1.314 . S
C2576 C2578 1.353 . S
C2576 H2582 0.930 . S
N2577 Li2553 1.990 . S
N2577 C2576 1.314 . S
N2577 C2580 1.279 . S
C2578 C2576 1.353 . S
C2578 C2581 1.348 . S
C2578 H2626 0.929 . S
C2579 C2580 1.358 . S
C2579 C2581 1.356 . S
C2579 H2627 0.930 . S
C2580 N2577 1.279 . S
C2580 C2579 1.358 . S
C2580 H2583 0.930 . S
C2581 C2578 1.348 . S
C2581 C2579 1.356 . S
H2582 C2576 0.930 . S
H2583 C2580 0.930 . S
C2584 C2586 1.348 . S
C2584 C2587 1.356 . S
C2584 O2614 1.325 . S
N2585 C2588 1.314 . S
N2585 C2589 1.279 . S
C2586 C2584 1.348 . S
C2586 C2588 1.353 . S
C2586 H2628 0.929 . S
C2587 C2584 1.356 . S
C2587 C2589 1.358 . S
C2587 H2629 0.930 . S
C2588 N2585 1.314 . S
C2588 C2586 1.353 . S
C2588 H2630 0.930 . S
C2589 N2585 1.279 . S
C2589 C2587 1.358 . S
C2589 H2631 0.930 . S
C2590 C2591 1.348 . S
C2590 C2592 1.356 . S
C2590 O2615 1.325 . S
C2591 C2590 1.348 . S
C2591 C2593 1.353 . S
C2591 H2632 0.929 . S
C2592 C2590 1.356 . S
C2592 C2594 1.358 . S
C2592 H2633 0.930 . S
C2593 C2591 1.353 . S
C2593 N2595 1.314 . S
C2593 H2634 0.930 . S
C2594 C2592 1.358 . S
C2594 N2595 1.279 . S
C2594 H2635 0.930 . S
N2595 C2593 1.314 . S
N2595 C2594 1.279 . S
C2596 C2598 1.353 . S
C2596 N2599 1.314 . S
C2596 H2602 0.930 . S
C2597 N2599 1.279 . S
C2597 C2600 1.358 . S
C2597 H2603 0.930 . S
C2598 C2596 1.353 . S
C2598 C2601 1.348 . S
C2598 H2636 0.929 . S
N2599 Li2554 1.990 . S
N2599 C2596 1.314 . S
N2599 C2597 1.279 . S
C2600 C2597 1.358 . S
C2600 C2601 1.356 . S
C2600 H2637 0.930 . S
C2601 C2598 1.348 . S
C2601 C2600 1.356 . S
H2602 C2596 0.930 . S
H2603 C2597 0.930 . S
C2604 N2605 1.314 . S
C2604 C2606 1.353 . S
C2604 H2610 0.930 . S
N2605 Li2555 1.990 . S
N2605 C2604 1.314 . S
N2605 C2608 1.279 . S
C2606 C2604 1.353 . S
C2606 C2609 1.348 . S
C2606 H2638 0.929 . S
C2607 C2608 1.358 . S
C2607 C2609 1.356 . S
C2607 H2639 0.930 . S
C2608 N2605 1.279 . S
C2608 C2607 1.358 . S
C2608 H2611 0.930 . S
C2609 C2606 1.348 . S
C2609 C2607 1.356 . S
H2610 C2604 0.930 . S
H2611 C2608 0.930 . S
O2612 Li2552 1.956 . S
O2612 Li2553 1.970 . S
O2612 Li2554 1.961 . S
O2612 C2556 1.325 . S
O2613 Li2552 1.970 . S
O2613 Li2553 1.956 . S
O2613 Li2555 1.961 . S
O2613 C2562 1.325 . S
O2614 Li2552 1.961 . S
O2614 Li2554 1.956 . S
O2614 Li2555 1.970 . S
O2614 C2584 1.325 . S
O2615 Li2553 1.961 . S
O2615 Li2554 1.970 . S
O2615 Li2555 1.956 . S
O2615 C2590 1.325 . S
H2616 C2558 0.929 . S
H2617 C2559 0.930 . S
H2618 C2560 0.930 . S
H2619 C2561 0.930 . S
H2620 C2563 0.930 . S
H2621 C2565 0.929 . S
H2622 C2566 0.930 . S
H2623 C2567 0.930 . S
H2624 C2570 0.930 . S
H2625 C2573 0.929 . S
H2626 C2578 0.929 . S
H2627 C2579 0.930 . S
H2628 C2586 0.929 . S
H2629 C2587 0.930 . S
H2630 C2588 0.930 . S
H2631 C2589 0.930 . S
H2632 C2591 0.929 . S
H2633 C2592 0.930 . S
H2634 C2593 0.930 . S
H2635 C2594 0.930 . S
H2636 C2598 0.929 . S
H2637 C2600 0.930 . S
H2638 C2606 0.929 . S
H2639 C2607 0.930 . S
Li2640 N2657 1.990 . S
Li2640 O2700 1.956 . S
Li2640 O2701 1.970 . S
Li2640 O2702 1.962 1_554 S
Li2641 N2665 1.990 . S
Li2641 O2700 1.970 . S
Li2641 O2701 1.956 . S
Li2641 O2703 1.961 . S
Li2642 N2687 1.990 . S
Li2642 O2700 1.961 . S
Li2642 O2702 1.957 1_554 S
Li2642 O2703 1.970 . S
Li2643 N2693 1.990 . S
Li2643 O2701 1.961 1_556 S
Li2643 O2702 1.970 . S
Li2643 O2703 1.956 1_556 S
C2644 C2646 1.348 . S
C2644 C2647 1.356 . S
C2644 O2700 1.325 . S
N2645 C2648 1.314 . S
N2645 C2649 1.279 . S
C2646 C2644 1.348 . S
C2646 C2648 1.353 . S
C2646 H2704 0.929 . S
C2647 C2644 1.356 . S
C2647 C2649 1.358 . S
C2647 H2705 0.930 . S
C2648 N2645 1.314 . S
C2648 C2646 1.353 . S
C2648 H2706 0.930 . S
C2649 N2645 1.279 . S
C2649 C2647 1.358 . S
C2649 H2707 0.930 . S
C2650 C2653 1.348 . S
C2650 C2654 1.356 1_554 S
C2650 O2701 1.325 . S
C2651 N2652 1.279 . S
C2651 C2654 1.358 . S
C2651 H2708 0.930 . S
N2652 C2651 1.279 . S
N2652 C2655 1.314 1_556 S
C2653 C2650 1.348 . S
C2653 C2655 1.353 . S
C2653 H2709 0.929 . S
C2654 C2650 1.356 1_556 S
C2654 C2651 1.358 . S
C2654 H2710 0.930 . S
C2655 N2652 1.314 1_554 S
C2655 C2653 1.353 . S
C2655 H2711 0.930 . S
C2656 N2657 1.314 . S
C2656 C2661 1.353 . S
C2656 H2662 0.930 . S
N2657 Li2640 1.990 . S
N2657 C2656 1.314 . S
N2657 C2659 1.279 . S
C2658 C2659 1.358 . S
C2658 C2660 1.356 . S
C2658 H2712 0.930 . S
C2659 N2657 1.279 . S
C2659 C2658 1.358 . S
C2659 H2663 0.930 . S
C2660 C2658 1.356 . S
C2660 C2661 1.348 . S
C2661 C2656 1.353 . S
C2661 C2660 1.348 . S
C2661 H2713 0.929 . S
H2662 C2656 0.930 . S
H2663 C2659 0.930 . S
C2664 N2665 1.314 . S
C2664 C2666 1.353 . S
C2664 H2670 0.930 . S
N2665 Li2641 1.990 . S
N2665 C2664 1.314 . S
N2665 C2668 1.279 . S
C2666 C2664 1.353 . S
C2666 C2669 1.348 . S
C2666 H2714 0.929 . S
C2667 C2668 1.358 . S
C2667 C2669 1.356 . S
C2667 H2715 0.930 . S
C2668 N2665 1.279 . S
C2668 C2667 1.358 . S
C2668 H2671 0.930 . S
C2669 C2666 1.348 . S
C2669 C2667 1.356 . S
H2670 C2664 0.930 . S
H2671 C2668 0.930 . S
C2672 C2674 1.348 . S
C2672 C2675 1.356 . S
C2672 O2702 1.324 . S
N2673 C2676 1.314 . S
N2673 C2677 1.279 . S
C2674 C2672 1.348 . S
C2674 C2676 1.353 . S
C2674 H2716 0.929 . S
C2675 C2672 1.356 . S
C2675 C2677 1.358 . S
C2675 H2717 0.930 1_556 S
C2676 N2673 1.314 . S
C2676 C2674 1.353 . S
C2676 H2718 0.930 . S
C2677 N2673 1.279 . S
C2677 C2675 1.358 . S
C2677 H2719 0.930 . S
C2678 C2679 1.349 . S
C2678 C2680 1.346 1_554 S
C2678 O2703 1.325 . S
C2679 C2678 1.349 . S
C2679 C2681 1.351 1_554 S
C2679 H2720 0.930 . S
C2680 C2678 1.346 1_556 S
C2680 C2682 1.372 . S
C2680 H2721 0.929 . S
C2681 C2679 1.351 1_556 S
C2681 N2683 1.314 . S
C2681 H2722 0.930 . S
C2682 C2680 1.372 . S
C2682 N2683 1.279 . S
C2682 H2723 0.930 . S
N2683 C2681 1.314 . S
N2683 C2682 1.279 . S
C2684 C2686 1.353 . S
C2684 N2687 1.314 . S
C2684 H2690 0.930 . S
C2685 N2687 1.279 . S
C2685 C2688 1.358 . S
C2685 H2691 0.930 . S
C2686 C2684 1.353 . S
C2686 C2689 1.348 . S
C2686 H2724 0.929 . S
N2687 Li2642 1.990 . S
N2687 C2684 1.314 . S
N2687 C2685 1.279 . S
C2688 C2685 1.358 . S
C2688 C2689 1.356 . S
C2688 H2725 0.930 . S
C2689 C2686 1.348 . S
C2689 C2688 1.356 . S
H2690 C2684 0.930 . S
H2691 C2685 0.930 . S
C2692 N2693 1.314 . S
C2692 C2694 1.353 . S
C2692 H2698 0.930 . S
N2693 Li2643 1.990 . S
N2693 C2692 1.314 . S
N2693 C2696 1.279 . S
C2694 C2692 1.353 . S
C2694 C2697 1.348 . S
C2694 H2726 0.929 . S
C2695 C2696 1.358 . S
C2695 C2697 1.356 . S
C2695 H2727 0.930 . S
C2696 N2693 1.279 . S
C2696 C2695 1.358 . S
C2696 H2699 0.930 . S
C2697 C2694 1.348 . S
C2697 C2695 1.356 . S
H2698 C2692 0.930 . S
H2699 C2696 0.930 . S
O2700 Li2640 1.956 . S
O2700 Li2641 1.970 . S
O2700 Li2642 1.961 . S
O2700 C2644 1.325 . S
O2701 Li2640 1.970 . S
O2701 Li2641 1.956 . S
O2701 Li2643 1.961 1_554 S
O2701 C2650 1.325 . S
O2702 Li2640 1.962 1_556 S
O2702 Li2642 1.957 1_556 S
O2702 Li2643 1.970 . S
O2702 C2672 1.324 . S
O2703 Li2641 1.961 . S
O2703 Li2642 1.970 . S
O2703 Li2643 1.956 1_554 S
O2703 C2678 1.325 . S
H2704 C2646 0.929 . S
H2705 C2647 0.930 . S
H2706 C2648 0.930 . S
H2707 C2649 0.930 . S
H2708 C2651 0.930 . S
H2709 C2653 0.929 . S
H2710 C2654 0.930 . S
H2711 C2655 0.930 . S
H2712 C2658 0.930 . S
H2713 C2661 0.929 . S
H2714 C2666 0.929 . S
H2715 C2667 0.930 . S
H2716 C2674 0.929 . S
H2717 C2675 0.930 1_554 S
H2718 C2676 0.930 . S
H2719 C2677 0.930 . S
H2720 C2679 0.930 . S
H2721 C2680 0.929 . S
H2722 C2681 0.930 . S
H2723 C2682 0.930 . S
H2724 C2686 0.929 . S
H2725 C2688 0.930 . S
H2726 C2694 0.929 . S
H2727 C2695 0.930 . S
Li2728 N2745 1.990 . S
Li2728 O2788 1.956 . S
Li2728 O2789 1.970 . S
Li2728 O2790 1.962 1_554 S
Li2729 N2753 1.990 . S
Li2729 O2788 1.970 . S
Li2729 O2789 1.956 . S
Li2729 O2791 1.961 . S
Li2730 N2775 1.990 . S
Li2730 O2788 1.961 . S
Li2730 O2790 1.957 1_554 S
Li2730 O2791 1.970 . S
Li2731 N2781 1.990 . S
Li2731 O2789 1.961 1_556 S
Li2731 O2790 1.970 . S
Li2731 O2791 1.956 1_556 S
C2732 C2734 1.348 . S
C2732 C2735 1.356 . S
C2732 O2788 1.325 . S
N2733 C2736 1.314 . S
N2733 C2737 1.279 . S
C2734 C2732 1.348 . S
C2734 C2736 1.353 . S
C2734 H2792 0.929 . S
C2735 C2732 1.356 . S
C2735 C2737 1.358 . S
C2735 H2793 0.930 . S
C2736 N2733 1.314 . S
C2736 C2734 1.353 . S
C2736 H2794 0.930 . S
C2737 N2733 1.279 . S
C2737 C2735 1.358 . S
C2737 H2795 0.930 . S
C2738 C2741 1.348 . S
C2738 C2742 1.356 1_554 S
C2738 O2789 1.325 . S
C2739 N2740 1.279 . S
C2739 C2742 1.358 . S
C2739 H2796 0.930 . S
N2740 C2739 1.279 . S
N2740 C2743 1.314 1_556 S
C2741 C2738 1.348 . S
C2741 C2743 1.353 . S
C2741 H2797 0.929 . S
C2742 C2738 1.356 1_556 S
C2742 C2739 1.358 . S
C2742 H2798 0.930 . S
C2743 N2740 1.314 1_554 S
C2743 C2741 1.353 . S
C2743 H2799 0.930 . S
C2744 N2745 1.314 . S
C2744 C2749 1.353 . S
C2744 H2750 0.930 . S
N2745 Li2728 1.990 . S
N2745 C2744 1.314 . S
N2745 C2747 1.279 . S
C2746 C2747 1.358 . S
C2746 C2748 1.356 . S
C2746 H2800 0.930 . S
C2747 N2745 1.279 . S
C2747 C2746 1.358 . S
C2747 H2751 0.930 . S
C2748 C2746 1.356 . S
C2748 C2749 1.348 . S
C2749 C2744 1.353 . S
C2749 C2748 1.348 . S
C2749 H2801 0.929 . S
H2750 C2744 0.930 . S
H2751 C2747 0.930 . S
C2752 N2753 1.314 . S
C2752 C2754 1.353 . S
C2752 H2758 0.930 . S
N2753 Li2729 1.990 . S
N2753 C2752 1.314 . S
N2753 C2756 1.279 . S
C2754 C2752 1.353 . S
C2754 C2757 1.348 . S
C2754 H2802 0.929 . S
C2755 C2756 1.358 . S
C2755 C2757 1.356 . S
C2755 H2803 0.930 . S
C2756 N2753 1.279 . S
C2756 C2755 1.358 . S
C2756 H2759 0.930 . S
C2757 C2754 1.348 . S
C2757 C2755 1.356 . S
H2758 C2752 0.930 . S
H2759 C2756 0.930 . S
C2760 C2762 1.348 . S
C2760 C2763 1.356 . S
C2760 O2790 1.324 . S
N2761 C2764 1.314 . S
N2761 C2765 1.279 . S
C2762 C2760 1.348 . S
C2762 C2764 1.353 . S
C2762 H2804 0.929 . S
C2763 C2760 1.356 . S
C2763 C2765 1.358 . S
C2763 H2805 0.930 1_556 S
C2764 N2761 1.314 . S
C2764 C2762 1.353 . S
C2764 H2806 0.930 . S
C2765 N2761 1.279 . S
C2765 C2763 1.358 . S
C2765 H2807 0.930 . S
C2766 C2767 1.349 . S
C2766 C2768 1.346 1_554 S
C2766 O2791 1.325 . S
C2767 C2766 1.349 . S
C2767 C2769 1.351 1_554 S
C2767 H2808 0.930 . S
C2768 C2766 1.346 1_556 S
C2768 C2770 1.372 . S
C2768 H2809 0.929 . S
C2769 C2767 1.351 1_556 S
C2769 N2771 1.314 . S
C2769 H2810 0.930 . S
C2770 C2768 1.372 . S
C2770 N2771 1.279 . S
C2770 H2811 0.930 . S
N2771 C2769 1.314 . S
N2771 C2770 1.279 . S
C2772 C2774 1.353 . S
C2772 N2775 1.314 . S
C2772 H2778 0.930 . S
C2773 N2775 1.279 . S
C2773 C2776 1.358 . S
C2773 H2779 0.930 . S
C2774 C2772 1.353 . S
C2774 C2777 1.348 . S
C2774 H2812 0.929 . S
N2775 Li2730 1.990 . S
N2775 C2772 1.314 . S
N2775 C2773 1.279 . S
C2776 C2773 1.358 . S
C2776 C2777 1.356 . S
C2776 H2813 0.930 . S
C2777 C2774 1.348 . S
C2777 C2776 1.356 . S
H2778 C2772 0.930 . S
H2779 C2773 0.930 . S
C2780 N2781 1.314 . S
C2780 C2782 1.353 . S
C2780 H2786 0.930 . S
N2781 Li2731 1.990 . S
N2781 C2780 1.314 . S
N2781 C2784 1.279 . S
C2782 C2780 1.353 . S
C2782 C2785 1.348 . S
C2782 H2814 0.929 . S
C2783 C2784 1.358 . S
C2783 C2785 1.356 . S
C2783 H2815 0.930 . S
C2784 N2781 1.279 . S
C2784 C2783 1.358 . S
C2784 H2787 0.930 . S
C2785 C2782 1.348 . S
C2785 C2783 1.356 . S
H2786 C2780 0.930 . S
H2787 C2784 0.930 . S
O2788 Li2728 1.956 . S
O2788 Li2729 1.970 . S
O2788 Li2730 1.961 . S
O2788 C2732 1.325 . S
O2789 Li2728 1.970 . S
O2789 Li2729 1.956 . S
O2789 Li2731 1.961 1_554 S
O2789 C2738 1.325 . S
O2790 Li2728 1.962 1_556 S
O2790 Li2730 1.957 1_556 S
O2790 Li2731 1.970 . S
O2790 C2760 1.324 . S
O2791 Li2729 1.961 . S
O2791 Li2730 1.970 . S
O2791 Li2731 1.956 1_554 S
O2791 C2766 1.325 . S
H2792 C2734 0.929 . S
H2793 C2735 0.930 . S
H2794 C2736 0.930 . S
H2795 C2737 0.930 . S
H2796 C2739 0.930 . S
H2797 C2741 0.929 . S
H2798 C2742 0.930 . S
H2799 C2743 0.930 . S
H2800 C2746 0.930 . S
H2801 C2749 0.929 . S
H2802 C2754 0.929 . S
H2803 C2755 0.930 . S
H2804 C2762 0.929 . S
H2805 C2763 0.930 1_554 S
H2806 C2764 0.930 . S
H2807 C2765 0.930 . S
H2808 C2767 0.930 . S
H2809 C2768 0.929 . S
H2810 C2769 0.930 . S
H2811 C2770 0.930 . S
H2812 C2774 0.929 . S
H2813 C2776 0.930 . S
H2814 C2782 0.929 . S
H2815 C2783 0.930 . S
C2816 C2817 1.387 . S
C2816 H2820 0.950 . S
C2816 C2825 1.390 . S
C2817 C2816 1.387 . S
C2817 C2819 1.387 . S
H2818 C2825 0.950 . S
C2819 C2817 1.387 . S
C2819 C2821 1.390 . S
C2819 H2823 0.950 . S
H2820 C2816 0.950 . S
C2821 C2819 1.390 . S
C2821 C2822 1.387 . S
C2821 H2824 0.950 . S
C2822 C2821 1.387 . S
C2822 C2825 1.387 . S
H2823 C2819 0.950 . S
H2824 C2821 0.950 . S
C2825 C2816 1.390 . S
C2825 H2818 0.950 . S
C2825 C2822 1.387 . S
C2826 C2827 1.387 . S
C2826 H2830 0.950 . S
C2826 C2835 1.390 . S
C2827 C2826 1.387 . S
C2827 C2829 1.387 . S
H2828 C2835 0.950 . S
C2829 C2827 1.387 . S
C2829 C2831 1.390 . S
C2829 H2833 0.950 . S
H2830 C2826 0.950 . S
C2831 C2829 1.390 . S
C2831 C2832 1.387 . S
C2831 H2834 0.950 . S
C2832 C2831 1.387 . S
C2832 C2835 1.387 . S
H2833 C2829 0.950 . S
H2834 C2831 0.950 . S
C2835 C2826 1.390 . S
C2835 H2828 0.950 . S
C2835 C2832 1.387 . S
C2836 C2837 1.387 . S
C2836 H2840 0.950 . S
C2836 C2845 1.390 . S
C2837 C2836 1.387 . S
C2837 C2839 1.387 . S
H2838 C2845 0.950 . S
C2839 C2837 1.387 . S
C2839 C2841 1.390 . S
C2839 H2843 0.950 . S
H2840 C2836 0.950 . S
C2841 C2839 1.390 . S
C2841 C2842 1.387 . S
C2841 H2844 0.950 . S
C2842 C2841 1.387 . S
C2842 C2845 1.387 . S
H2843 C2839 0.950 . S
H2844 C2841 0.950 . S
C2845 C2836 1.390 . S
C2845 H2838 0.950 . S
C2845 C2842 1.387 . S
C2846 C2847 1.387 . S
C2846 H2850 0.950 . S
C2846 C2855 1.390 . S
C2847 C2846 1.387 . S
C2847 C2849 1.387 . S
H2848 C2855 0.950 . S
C2849 C2847 1.387 . S
C2849 C2851 1.390 . S
C2849 H2853 0.950 . S
H2850 C2846 0.950 . S
C2851 C2849 1.390 . S
C2851 C2852 1.387 . S
C2851 H2854 0.950 . S
C2852 C2851 1.387 . S
C2852 C2855 1.387 . S
H2853 C2849 0.950 . S
H2854 C2851 0.950 . S
C2855 C2846 1.390 . S
C2855 H2848 0.950 . S
C2855 C2852 1.387 . S
C2856 C2857 1.387 . S
C2856 H2860 0.950 . S
C2856 C2865 1.390 . S
C2857 C2856 1.387 . S
C2857 C2859 1.387 . S
H2858 C2865 0.950 . S
C2859 C2857 1.387 . S
C2859 C2861 1.390 . S
C2859 H2863 0.950 . S
H2860 C2856 0.950 . S
C2861 C2859 1.390 . S
C2861 C2862 1.387 . S
C2861 H2864 0.950 . S
C2862 C2861 1.387 . S
C2862 C2865 1.387 . S
H2863 C2859 0.950 . S
H2864 C2861 0.950 . S
C2865 C2856 1.390 . S
C2865 H2858 0.950 . S
C2865 C2862 1.387 . S
C2866 C2867 1.387 . S
C2866 H2870 0.950 . S
C2866 C2875 1.390 . S
C2867 C2866 1.387 . S
C2867 C2869 1.387 . S
H2868 C2875 0.950 . S
C2869 C2867 1.387 . S
C2869 C2871 1.390 . S
C2869 H2873 0.950 . S
H2870 C2866 0.950 . S
C2871 C2869 1.390 . S
C2871 C2872 1.387 . S
C2871 H2874 0.950 . S
C2872 C2871 1.387 . S
C2872 C2875 1.387 . S
H2873 C2869 0.950 . S
H2874 C2871 0.950 . S
C2875 C2866 1.390 . S
C2875 H2868 0.950 . S
C2875 C2872 1.387 . S
C2876 C2877 1.387 . S
C2876 H2880 0.950 . S
C2876 C2885 1.390 . S
C2877 C2876 1.387 . S
C2877 C2879 1.387 . S
H2878 C2885 0.950 . S
C2879 C2877 1.387 . S
C2879 C2881 1.390 . S
C2879 H2883 0.950 . S
H2880 C2876 0.950 . S
C2881 C2879 1.390 . S
C2881 C2882 1.387 . S
C2881 H2884 0.950 . S
C2882 C2881 1.387 . S
C2882 C2885 1.387 . S
H2883 C2879 0.950 . S
H2884 C2881 0.950 . S
C2885 C2876 1.390 . S
C2885 H2878 0.950 . S
C2885 C2882 1.387 . S
C2886 C2887 1.387 . S
C2886 H2890 0.950 . S
C2886 C2895 1.390 . S
C2887 C2886 1.387 . S
C2887 C2889 1.387 . S
H2888 C2895 0.950 . S
C2889 C2887 1.387 . S
C2889 C2891 1.390 . S
C2889 H2893 0.950 . S
H2890 C2886 0.950 . S
C2891 C2889 1.390 . S
C2891 C2892 1.387 . S
C2891 H2894 0.950 . S
C2892 C2891 1.387 . S
C2892 C2895 1.387 . S
H2893 C2889 0.950 . S
H2894 C2891 0.950 . S
C2895 C2886 1.390 . S
C2895 H2888 0.950 . S
C2895 C2892 1.387 . S
C2896 C2897 1.387 . S
C2896 H2900 0.950 . S
C2896 C2905 1.390 . S
C2897 C2896 1.387 . S
C2897 C2899 1.387 . S
H2898 C2905 0.950 . S
C2899 C2897 1.387 . S
C2899 C2901 1.390 . S
C2899 H2903 0.950 . S
H2900 C2896 0.950 . S
C2901 C2899 1.390 . S
C2901 C2902 1.387 . S
C2901 H2904 0.950 . S
C2902 C2901 1.387 . S
C2902 C2905 1.387 . S
H2903 C2899 0.950 . S
H2904 C2901 0.950 . S
C2905 C2896 1.390 . S
C2905 H2898 0.950 . S
C2905 C2902 1.387 . S
C2906 C2907 1.387 . S
C2906 H2910 0.950 . S
C2906 C2915 1.390 . S
C2907 C2906 1.387 . S
C2907 C2909 1.387 . S
H2908 C2915 0.950 . S
C2909 C2907 1.387 . S
C2909 C2911 1.390 . S
C2909 H2913 0.950 . S
H2910 C2906 0.950 . S
C2911 C2909 1.390 . S
C2911 C2912 1.387 . S
C2911 H2914 0.950 . S
C2912 C2911 1.387 . S
C2912 C2915 1.387 . S
H2913 C2909 0.950 . S
H2914 C2911 0.950 . S
C2915 C2906 1.390 . S
C2915 H2908 0.950 . S
C2915 C2912 1.387 . S
C2916 C2917 1.387 . S
C2916 H2920 0.950 . S
C2916 C2925 1.390 . S
C2917 C2916 1.387 . S
C2917 C2919 1.387 . S
H2918 C2925 0.950 . S
C2919 C2917 1.387 . S
C2919 C2921 1.390 . S
C2919 H2923 0.950 . S
H2920 C2916 0.950 . S
C2921 C2919 1.390 . S
C2921 C2922 1.387 . S
C2921 H2924 0.950 . S
C2922 C2921 1.387 . S
C2922 C2925 1.387 . S
H2923 C2919 0.950 . S
H2924 C2921 0.950 . S
C2925 C2916 1.390 . S
C2925 H2918 0.950 . S
C2925 C2922 1.387 . S
C2926 C2927 1.387 . S
C2926 H2930 0.950 . S
C2926 C2935 1.390 . S
C2927 C2926 1.387 . S
C2927 C2929 1.387 . S
H2928 C2935 0.950 . S
C2929 C2927 1.387 . S
C2929 C2931 1.390 . S
C2929 H2933 0.950 . S
H2930 C2926 0.950 . S
C2931 C2929 1.390 . S
C2931 C2932 1.387 . S
C2931 H2934 0.950 . S
C2932 C2931 1.387 . S
C2932 C2935 1.387 . S
H2933 C2929 0.950 . S
H2934 C2931 0.950 . S
C2935 C2926 1.390 . S
C2935 H2928 0.950 . S
C2935 C2932 1.387 . S
C2936 C2937 1.387 . S
C2936 H2940 0.950 . S
C2936 C2945 1.390 . S
C2937 C2936 1.387 . S
C2937 C2939 1.387 . S
H2938 C2945 0.950 . S
C2939 C2937 1.387 . S
C2939 C2941 1.390 . S
C2939 H2943 0.950 . S
H2940 C2936 0.950 . S
C2941 C2939 1.390 . S
C2941 C2942 1.387 . S
C2941 H2944 0.950 . S
C2942 C2941 1.387 . S
C2942 C2945 1.387 . S
H2943 C2939 0.950 . S
H2944 C2941 0.950 . S
C2945 C2936 1.390 . S
C2945 H2938 0.950 . S
C2945 C2942 1.387 . S
C2946 C2947 1.387 . S
C2946 H2950 0.950 . S
C2946 C2955 1.390 . S
C2947 C2946 1.387 . S
C2947 C2949 1.387 . S
H2948 C2955 0.950 . S
C2949 C2947 1.387 . S
C2949 C2951 1.390 . S
C2949 H2953 0.950 . S
H2950 C2946 0.950 . S
C2951 C2949 1.390 . S
C2951 C2952 1.387 . S
C2951 H2954 0.950 . S
C2952 C2951 1.387 . S
C2952 C2955 1.387 . S
H2953 C2949 0.950 . S
H2954 C2951 0.950 . S
C2955 C2946 1.390 . S
C2955 H2948 0.950 . S
C2955 C2952 1.387 . S
C2956 C2957 1.387 . S
C2956 H2960 0.950 . S
C2956 C2965 1.390 . S
C2957 C2956 1.387 . S
C2957 C2959 1.387 . S
H2958 C2965 0.950 . S
C2959 C2957 1.387 . S
C2959 C2961 1.390 . S
C2959 H2963 0.950 . S
H2960 C2956 0.950 . S
C2961 C2959 1.390 . S
C2961 C2962 1.387 . S
C2961 H2964 0.950 . S
C2962 C2961 1.387 . S
C2962 C2965 1.387 . S
H2963 C2959 0.950 . S
H2964 C2961 0.950 . S
C2965 C2956 1.390 . S
C2965 H2958 0.950 . S
C2965 C2962 1.387 . S
C2966 C2967 1.387 . S
C2966 H2970 0.950 . S
C2966 C2975 1.390 . S
C2967 C2966 1.387 . S
C2967 C2969 1.387 . S
H2968 C2975 0.950 . S
C2969 C2967 1.387 . S
C2969 C2971 1.390 . S
C2969 H2973 0.950 . S
H2970 C2966 0.950 . S
C2971 C2969 1.390 . S
C2971 C2972 1.387 . S
C2971 H2974 0.950 . S
C2972 C2971 1.387 . S
C2972 C2975 1.387 . S
H2973 C2969 0.950 . S
H2974 C2971 0.950 . S
C2975 C2966 1.390 . S
C2975 H2968 0.950 . S
C2975 C2972 1.387 . S
C2976 C2977 1.387 . S
C2976 H2980 0.950 . S
C2976 C2985 1.390 1_565 S
C2977 C2976 1.387 . S
C2977 C2979 1.387 . S
H2978 C2985 0.950 . S
C2979 C2977 1.387 . S
C2979 C2981 1.390 1_565 S
C2979 H2983 0.950 . S
H2980 C2976 0.950 . S
C2981 C2979 1.390 1_545 S
C2981 C2982 1.387 . S
C2981 H2984 0.950 . S
C2982 C2981 1.387 . S
C2982 C2985 1.387 . S
H2983 C2979 0.950 . S
H2984 C2981 0.950 . S
C2985 C2976 1.390 1_545 S
C2985 H2978 0.950 . S
C2985 C2982 1.387 . S
C2986 C2987 1.377 1_655 S
C2986 H2990 0.950 . S
C2986 C2995 1.390 . S
C2987 C2986 1.377 1_455 S
C2987 C2989 1.398 . S
H2988 C2995 0.950 . S
C2989 C2987 1.398 . S
C2989 C2991 1.390 . S
C2989 H2993 0.950 . S
H2990 C2986 0.950 . S
C2991 C2989 1.390 . S
C2991 C2992 1.388 . S
C2991 H2994 0.950 . S
C2992 C2991 1.388 . S
C2992 C2995 1.387 1_455 S
H2993 C2989 0.950 . S
H2994 C2991 0.950 . S
C2995 C2986 1.390 . S
C2995 H2988 0.950 . S
C2995 C2992 1.387 1_655 S
C2996 C2997 1.387 . S
C2996 H3000 0.950 . S
C2996 C3005 1.390 1_556 S
C2997 C2996 1.387 . S
C2997 C2999 1.387 . S
H2998 C3005 0.950 . S
C2999 C2997 1.387 . S
C2999 C3001 1.390 1_556 S
C2999 H3003 0.950 . S
H3000 C2996 0.950 . S
C3001 C2999 1.390 1_554 S
C3001 C3002 1.387 . S
C3001 H3004 0.950 . S
C3002 C3001 1.387 . S
C3002 C3005 1.387 . S
H3003 C2999 0.950 . S
H3004 C3001 0.950 . S
C3005 C2996 1.390 1_554 S
C3005 H2998 0.950 . S
C3005 C3002 1.387 . S
C3006 C3007 1.388 . S
C3006 H3010 0.950 . S
C3006 C3015 1.390 1_546 S
C3007 C3006 1.388 . S
C3007 C3009 1.387 1_455 S
H3008 C3015 0.950 . S
C3009 C3007 1.387 1_655 S
C3009 C3011 1.390 1_546 S
C3009 H3013 0.950 . S
H3010 C3006 0.950 . S
C3011 C3009 1.390 1_564 S
C3011 C3012 1.377 1_655 S
C3011 H3014 0.950 . S
C3012 C3011 1.377 1_455 S
C3012 C3015 1.398 . S
H3013 C3009 0.950 . S
H3014 C3011 0.950 . S
C3015 C3006 1.390 1_564 S
C3015 H3008 0.950 . S
C3015 C3012 1.398 . S
C3016 C3017 1.387 . S
C3016 H3020 0.950 . S
C3016 C3025 1.390 1_545 S
C3017 C3016 1.387 . S
C3017 C3019 1.387 . S
H3018 C3025 0.950 . S
C3019 C3017 1.387 . S
C3019 C3021 1.390 1_545 S
C3019 H3023 0.950 . S
H3020 C3016 0.950 . S
C3021 C3019 1.390 1_565 S
C3021 C3022 1.387 . S
C3021 H3024 0.950 . S
C3022 C3021 1.387 . S
C3022 C3025 1.387 . S
H3023 C3019 0.950 . S
H3024 C3021 0.950 . S
C3025 C3016 1.390 1_565 S
C3025 H3018 0.950 . S
C3025 C3022 1.387 . S
C3026 C3027 1.388 . S
C3026 H3030 0.950 . S
C3026 C3035 1.390 . S
C3027 C3026 1.388 . S
C3027 C3029 1.387 1_455 S
H3028 C3035 0.950 . S
C3029 C3027 1.387 1_655 S
C3029 C3031 1.390 . S
C3029 H3033 0.950 . S
H3030 C3026 0.950 . S
C3031 C3029 1.390 . S
C3031 C3032 1.377 1_655 S
C3031 H3034 0.950 . S
C3032 C3031 1.377 1_455 S
C3032 C3035 1.398 . S
H3033 C3029 0.950 . S
H3034 C3031 0.950 . S
C3035 C3026 1.390 . S
C3035 H3028 0.950 . S
C3035 C3032 1.398 . S
C3036 C3037 1.387 . S
C3036 H3040 0.950 . S
C3036 C3045 1.390 1_556 S
C3037 C3036 1.387 . S
C3037 C3039 1.387 . S
H3038 C3045 0.950 . S
C3039 C3037 1.387 . S
C3039 C3041 1.390 1_556 S
C3039 H3043 0.950 . S
H3040 C3036 0.950 . S
C3041 C3039 1.390 1_554 S
C3041 C3042 1.387 . S
C3041 H3044 0.950 . S
C3042 C3041 1.387 . S
C3042 C3045 1.387 . S
H3043 C3039 0.950 . S
H3044 C3041 0.950 . S
C3045 C3036 1.390 1_554 S
C3045 H3038 0.950 . S
C3045 C3042 1.387 . S
C3046 C3047 1.387 . S
C3046 H3050 0.950 . S
C3046 C3055 1.390 . S
C3047 C3046 1.387 . S
C3047 C3049 1.387 . S
H3048 C3055 0.950 . S
C3049 C3047 1.387 . S
C3049 C3051 1.390 . S
C3049 H3053 0.950 . S
H3050 C3046 0.950 . S
C3051 C3049 1.390 . S
C3051 C3052 1.387 . S
C3051 H3054 0.950 . S
C3052 C3051 1.387 . S
C3052 C3055 1.387 . S
H3053 C3049 0.950 . S
H3054 C3051 0.950 . S
C3055 C3046 1.390 . S
C3055 H3048 0.950 . S
C3055 C3052 1.387 . S
C3056 C3057 1.387 . S
C3056 H3060 0.950 . S
C3056 C3065 1.390 . S
C3057 C3056 1.387 . S
C3057 C3059 1.387 . S
H3058 C3065 0.950 . S
C3059 C3057 1.387 . S
C3059 C3061 1.390 . S
C3059 H3063 0.950 . S
H3060 C3056 0.950 . S
C3061 C3059 1.390 . S
C3061 C3062 1.387 . S
C3061 H3064 0.950 . S
C3062 C3061 1.387 . S
C3062 C3065 1.387 . S
H3063 C3059 0.950 . S
H3064 C3061 0.950 . S
C3065 C3056 1.390 . S
C3065 H3058 0.950 . S
C3065 C3062 1.387 . S
C3066 C3067 1.399 . S
C3066 H3070 0.950 . S
C3066 C3075 1.390 . S
C3067 C3066 1.399 . S
C3067 C3069 1.376 1_455 S
H3068 C3075 0.950 . S
C3069 C3067 1.376 1_655 S
C3069 C3071 1.390 . S
C3069 H3073 0.950 . S
H3070 C3066 0.950 . S
C3071 C3069 1.390 . S
C3071 C3072 1.388 1_655 S
C3071 H3074 0.950 . S
C3072 C3071 1.388 1_455 S
C3072 C3075 1.387 . S
H3073 C3069 0.950 . S
H3074 C3071 0.950 . S
C3075 C3066 1.390 . S
C3075 H3068 0.950 . S
C3075 C3072 1.387 . S
C3076 C3077 1.387 . S
C3076 H3080 0.950 . S
C3076 C3085 1.390 . S
C3077 C3076 1.387 . S
C3077 C3079 1.387 . S
H3078 C3085 0.950 . S
C3079 C3077 1.387 . S
C3079 C3081 1.390 . S
C3079 H3083 0.950 . S
H3080 C3076 0.950 . S
C3081 C3079 1.390 . S
C3081 C3082 1.387 . S
C3081 H3084 0.950 . S
C3082 C3081 1.387 . S
C3082 C3085 1.387 . S
H3083 C3079 0.950 . S
H3084 C3081 0.950 . S
C3085 C3076 1.390 . S
C3085 H3078 0.950 . S
C3085 C3082 1.387 . S
C3086 C3087 1.387 . S
C3086 H3090 0.950 . S
C3086 C3095 1.390 . S
C3087 C3086 1.387 . S
C3087 C3089 1.387 . S
H3088 C3095 0.950 . S
C3089 C3087 1.387 . S
C3089 C3091 1.390 . S
C3089 H3093 0.950 . S
H3090 C3086 0.950 . S
C3091 C3089 1.390 . S
C3091 C3092 1.387 . S
C3091 H3094 0.950 . S
C3092 C3091 1.387 . S
C3092 C3095 1.387 . S
H3093 C3089 0.950 . S
H3094 C3091 0.950 . S
C3095 C3086 1.390 . S
C3095 H3088 0.950 . S
C3095 C3092 1.387 . S
C3096 C3097 1.387 . S
C3096 H3100 0.950 . S
C3096 C3105 1.390 . S
C3097 C3096 1.387 . S
C3097 C3099 1.387 . S
H3098 C3105 0.950 . S
C3099 C3097 1.387 . S
C3099 C3101 1.390 . S
C3099 H3103 0.950 . S
H3100 C3096 0.950 . S
C3101 C3099 1.390 . S
C3101 C3102 1.387 . S
C3101 H3104 0.950 . S
C3102 C3101 1.387 . S
C3102 C3105 1.387 . S
H3103 C3099 0.950 . S
H3104 C3101 0.950 . S
C3105 C3096 1.390 . S
C3105 H3098 0.950 . S
C3105 C3102 1.387 . S
C3106 C3107 1.387 . S
C3106 H3110 0.950 . S
C3106 C3115 1.390 1_545 S
C3107 C3106 1.387 . S
C3107 C3109 1.387 . S
H3108 C3115 0.950 . S
C3109 C3107 1.387 . S
C3109 C3111 1.390 1_545 S
C3109 H3113 0.950 . S
H3110 C3106 0.950 . S
C3111 C3109 1.390 1_565 S
C3111 C3112 1.387 . S
C3111 H3114 0.950 . S
C3112 C3111 1.387 . S
C3112 C3115 1.387 . S
H3113 C3109 0.950 . S
H3114 C3111 0.950 . S
C3115 C3106 1.390 1_565 S
C3115 H3108 0.950 . S
C3115 C3112 1.387 . S
C3116 C3117 1.387 . S
C3116 H3120 0.950 . S
C3116 C3125 1.390 . S
C3117 C3116 1.387 . S
C3117 C3119 1.387 . S
H3118 C3125 0.950 . S
C3119 C3117 1.387 . S
C3119 C3121 1.390 . S
C3119 H3123 0.950 . S
H3120 C3116 0.950 . S
C3121 C3119 1.390 . S
C3121 C3122 1.387 . S
C3121 H3124 0.950 . S
C3122 C3121 1.387 . S
C3122 C3125 1.387 . S
H3123 C3119 0.950 . S
H3124 C3121 0.950 . S
C3125 C3116 1.390 . S
C3125 H3118 0.950 . S
C3125 C3122 1.387 . S
C3126 C3127 1.387 . S
C3126 H3130 0.950 . S
C3126 C3135 1.390 1_554 S
C3127 C3126 1.387 . S
C3127 C3129 1.387 . S
H3128 C3135 0.950 . S
C3129 C3127 1.387 . S
C3129 C3131 1.390 1_554 S
C3129 H3133 0.950 . S
H3130 C3126 0.950 . S
C3131 C3129 1.390 1_556 S
C3131 C3132 1.387 . S
C3131 H3134 0.950 . S
C3132 C3131 1.387 . S
C3132 C3135 1.387 . S
H3133 C3129 0.950 . S
H3134 C3131 0.950 . S
C3135 C3126 1.390 1_556 S
C3135 H3128 0.950 . S
C3135 C3132 1.387 . S
C3136 C3137 1.387 . S
C3136 H3140 0.950 . S
C3136 C3145 1.390 . S
C3137 C3136 1.387 . S
C3137 C3139 1.387 . S
H3138 C3145 0.950 . S
C3139 C3137 1.387 . S
C3139 C3141 1.390 . S
C3139 H3143 0.950 . S
H3140 C3136 0.950 . S
C3141 C3139 1.390 . S
C3141 C3142 1.387 . S
C3141 H3144 0.950 . S
C3142 C3141 1.387 . S
C3142 C3145 1.387 . S
H3143 C3139 0.950 . S
H3144 C3141 0.950 . S
C3145 C3136 1.390 . S
C3145 H3138 0.950 . S
C3145 C3142 1.387 . S
C3146 C3147 1.387 . S
C3146 H3150 0.950 . S
C3146 C3155 1.390 . S
C3147 C3146 1.387 . S
C3147 C3149 1.387 . S
H3148 C3155 0.950 . S
C3149 C3147 1.387 . S
C3149 C3151 1.390 . S
C3149 H3153 0.950 . S
H3150 C3146 0.950 . S
C3151 C3149 1.390 . S
C3151 C3152 1.387 . S
C3151 H3154 0.950 . S
C3152 C3151 1.387 . S
C3152 C3155 1.387 . S
H3153 C3149 0.950 . S
H3154 C3151 0.950 . S
C3155 C3146 1.390 . S
C3155 H3148 0.950 . S
C3155 C3152 1.387 . S
C3156 C3157 1.387 . S
C3156 H3160 0.950 . S
C3156 C3165 1.390 . S
C3157 C3156 1.387 . S
C3157 C3159 1.387 . S
H3158 C3165 0.950 . S
C3159 C3157 1.387 . S
C3159 C3161 1.390 . S
C3159 H3163 0.950 . S
H3160 C3156 0.950 . S
C3161 C3159 1.390 . S
C3161 C3162 1.387 . S
C3161 H3164 0.950 . S
C3162 C3161 1.387 . S
C3162 C3165 1.387 . S
H3163 C3159 0.950 . S
H3164 C3161 0.950 . S
C3165 C3156 1.390 . S
C3165 H3158 0.950 . S
C3165 C3162 1.387 . S
C3166 C3167 1.387 . S
C3166 H3170 0.950 . S
C3166 C3175 1.390 . S
C3167 C3166 1.387 . S
C3167 C3169 1.387 . S
H3168 C3175 0.950 . S
C3169 C3167 1.387 . S
C3169 C3171 1.390 . S
C3169 H3173 0.950 . S
H3170 C3166 0.950 . S
C3171 C3169 1.390 . S
C3171 C3172 1.387 . S
C3171 H3174 0.950 . S
C3172 C3171 1.387 . S
C3172 C3175 1.387 . S
H3173 C3169 0.950 . S
H3174 C3171 0.950 . S
C3175 C3166 1.390 . S
C3175 H3168 0.950 . S
C3175 C3172 1.387 . S
C3176 C3177 1.387 . S
C3176 H3180 0.950 . S
C3176 C3185 1.390 . S
C3177 C3176 1.387 . S
C3177 C3179 1.387 . S
H3178 C3185 0.950 . S
C3179 C3177 1.387 . S
C3179 C3181 1.390 . S
C3179 H3183 0.950 . S
H3180 C3176 0.950 . S
C3181 C3179 1.390 . S
C3181 C3182 1.387 . S
C3181 H3184 0.950 . S
C3182 C3181 1.387 . S
C3182 C3185 1.387 . S
H3183 C3179 0.950 . S
H3184 C3181 0.950 . S
C3185 C3176 1.390 . S
C3185 H3178 0.950 . S
C3185 C3182 1.387 . S
C3186 C3187 1.387 . S
C3186 H3190 0.950 . S
C3186 C3195 1.390 . S
C3187 C3186 1.387 . S
C3187 C3189 1.387 . S
H3188 C3195 0.950 . S
C3189 C3187 1.387 . S
C3189 C3191 1.390 . S
C3189 H3193 0.950 . S
H3190 C3186 0.950 . S
C3191 C3189 1.390 . S
C3191 C3192 1.387 . S
C3191 H3194 0.950 . S
C3192 C3191 1.387 . S
C3192 C3195 1.387 . S
H3193 C3189 0.950 . S
H3194 C3191 0.950 . S
C3195 C3186 1.390 . S
C3195 H3188 0.950 . S
C3195 C3192 1.387 . S
C3196 C3197 1.387 . S
C3196 H3200 0.950 . S
C3196 C3205 1.390 . S
C3197 C3196 1.387 . S
C3197 C3199 1.387 . S
H3198 C3205 0.950 . S
C3199 C3197 1.387 . S
C3199 C3201 1.390 . S
C3199 H3203 0.950 . S
H3200 C3196 0.950 . S
C3201 C3199 1.390 . S
C3201 C3202 1.387 . S
C3201 H3204 0.950 . S
C3202 C3201 1.387 . S
C3202 C3205 1.387 . S
H3203 C3199 0.950 . S
H3204 C3201 0.950 . S
C3205 C3196 1.390 . S
C3205 H3198 0.950 . S
C3205 C3202 1.387 . S
C3206 C3207 1.387 . S
C3206 H3210 0.950 . S
C3206 C3215 1.390 . S
C3207 C3206 1.387 . S
C3207 C3209 1.387 . S
H3208 C3215 0.950 . S
C3209 C3207 1.387 . S
C3209 C3211 1.390 . S
C3209 H3213 0.950 . S
H3210 C3206 0.950 . S
C3211 C3209 1.390 . S
C3211 C3212 1.387 . S
C3211 H3214 0.950 . S
C3212 C3211 1.387 . S
C3212 C3215 1.387 . S
H3213 C3209 0.950 . S
H3214 C3211 0.950 . S
C3215 C3206 1.390 . S
C3215 H3208 0.950 . S
C3215 C3212 1.387 . S
C3216 C3217 1.387 . S
C3216 H3220 0.950 . S
C3216 C3225 1.390 . S
C3217 C3216 1.387 . S
C3217 C3219 1.387 . S
H3218 C3225 0.950 . S
C3219 C3217 1.387 . S
C3219 C3221 1.390 . S
C3219 H3223 0.950 . S
H3220 C3216 0.950 . S
C3221 C3219 1.390 . S
C3221 C3222 1.387 . S
C3221 H3224 0.950 . S
C3222 C3221 1.387 . S
C3222 C3225 1.387 . S
H3223 C3219 0.950 . S
H3224 C3221 0.950 . S
C3225 C3216 1.390 . S
C3225 H3218 0.950 . S
C3225 C3222 1.387 . S
C3226 C3227 1.387 . S
C3226 H3230 0.950 . S
C3226 C3235 1.390 . S
C3227 C3226 1.387 . S
C3227 C3229 1.387 . S
H3228 C3235 0.950 . S
C3229 C3227 1.387 . S
C3229 C3231 1.390 . S
C3229 H3233 0.950 . S
H3230 C3226 0.950 . S
C3231 C3229 1.390 . S
C3231 C3232 1.387 . S
C3231 H3234 0.950 . S
C3232 C3231 1.387 . S
C3232 C3235 1.387 . S
H3233 C3229 0.950 . S
H3234 C3231 0.950 . S
C3235 C3226 1.390 . S
C3235 H3228 0.950 . S
C3235 C3232 1.387 . S
C3236 C3237 1.387 . S
C3236 H3240 0.950 . S
C3236 C3245 1.390 . S
C3237 C3236 1.387 . S
C3237 C3239 1.387 . S
H3238 C3245 0.950 . S
C3239 C3237 1.387 . S
C3239 C3241 1.390 . S
C3239 H3243 0.950 . S
H3240 C3236 0.950 . S
C3241 C3239 1.390 . S
C3241 C3242 1.387 . S
C3241 H3244 0.950 . S
C3242 C3241 1.387 . S
C3242 C3245 1.387 . S
H3243 C3239 0.950 . S
H3244 C3241 0.950 . S
C3245 C3236 1.390 . S
C3245 H3238 0.950 . S
C3245 C3242 1.387 . S
C3246 C3247 1.387 . S
C3246 H3250 0.950 . S
C3246 C3255 1.390 . S
C3247 C3246 1.387 . S
C3247 C3249 1.387 . S
H3248 C3255 0.950 . S
C3249 C3247 1.387 . S
C3249 C3251 1.390 . S
C3249 H3253 0.950 . S
H3250 C3246 0.950 . S
C3251 C3249 1.390 . S
C3251 C3252 1.387 . S
C3251 H3254 0.950 . S
C3252 C3251 1.387 . S
C3252 C3255 1.387 . S
H3253 C3249 0.950 . S
H3254 C3251 0.950 . S
C3255 C3246 1.390 . S
C3255 H3248 0.950 . S
C3255 C3252 1.387 . S
C3256 C3257 1.387 . S
C3256 H3260 0.950 . S
C3256 C3265 1.390 . S
C3257 C3256 1.387 . S
C3257 C3259 1.387 . S
H3258 C3265 0.950 . S
C3259 C3257 1.387 . S
C3259 C3261 1.390 . S
C3259 H3263 0.950 . S
H3260 C3256 0.950 . S
C3261 C3259 1.390 . S
C3261 C3262 1.387 . S
C3261 H3264 0.950 . S
C3262 C3261 1.387 . S
C3262 C3265 1.387 . S
H3263 C3259 0.950 . S
H3264 C3261 0.950 . S
C3265 C3256 1.390 . S
C3265 H3258 0.950 . S
C3265 C3262 1.387 . S
C3266 C3267 1.387 . S
C3266 H3270 0.950 . S
C3266 C3275 1.390 . S
C3267 C3266 1.387 . S
C3267 C3269 1.387 . S
H3268 C3275 0.950 . S
C3269 C3267 1.387 . S
C3269 C3271 1.390 . S
C3269 H3273 0.950 . S
H3270 C3266 0.950 . S
C3271 C3269 1.390 . S
C3271 C3272 1.387 . S
C3271 H3274 0.950 . S
C3272 C3271 1.387 . S
C3272 C3275 1.387 . S
H3273 C3269 0.950 . S
H3274 C3271 0.950 . S
C3275 C3266 1.390 . S
C3275 H3268 0.950 . S
C3275 C3272 1.387 . S
C3276 C3277 1.387 . S
C3276 H3280 0.950 . S
C3276 C3285 1.390 . S
C3277 C3276 1.387 . S
C3277 C3279 1.387 . S
H3278 C3285 0.950 . S
C3279 C3277 1.387 . S
C3279 C3281 1.390 . S
C3279 H3283 0.950 . S
H3280 C3276 0.950 . S
C3281 C3279 1.390 . S
C3281 C3282 1.387 . S
C3281 H3284 0.950 . S
C3282 C3281 1.387 . S
C3282 C3285 1.387 . S
H3283 C3279 0.950 . S
H3284 C3281 0.950 . S
C3285 C3276 1.390 . S
C3285 H3278 0.950 . S
C3285 C3282 1.387 . S
C3286 C3287 1.387 . S
C3286 H3290 0.950 . S
C3286 C3295 1.390 . S
C3287 C3286 1.387 . S
C3287 C3289 1.387 . S
H3288 C3295 0.950 . S
C3289 C3287 1.387 . S
C3289 C3291 1.390 . S
C3289 H3293 0.950 . S
H3290 C3286 0.950 . S
C3291 C3289 1.390 . S
C3291 C3292 1.387 . S
C3291 H3294 0.950 . S
C3292 C3291 1.387 . S
C3292 C3295 1.387 . S
H3293 C3289 0.950 . S
H3294 C3291 0.950 . S
C3295 C3286 1.390 . S
C3295 H3288 0.950 . S
C3295 C3292 1.387 . S
C3296 C3297 1.387 . S
C3296 H3300 0.950 . S
C3296 C3305 1.390 . S
C3297 C3296 1.387 . S
C3297 C3299 1.387 . S
H3298 C3305 0.950 . S
C3299 C3297 1.387 . S
C3299 C3301 1.390 . S
C3299 H3303 0.950 . S
H3300 C3296 0.950 . S
C3301 C3299 1.390 . S
C3301 C3302 1.387 . S
C3301 H3304 0.950 . S
C3302 C3301 1.387 . S
C3302 C3305 1.387 . S
H3303 C3299 0.950 . S
H3304 C3301 0.950 . S
C3305 C3296 1.390 . S
C3305 H3298 0.950 . S
C3305 C3302 1.387 . S
C3306 C3307 1.387 . S
C3306 H3310 0.950 . S
C3306 C3315 1.390 . S
C3307 C3306 1.387 . S
C3307 C3309 1.387 . S
H3308 C3315 0.950 . S
C3309 C3307 1.387 . S
C3309 C3311 1.390 . S
C3309 H3313 0.950 . S
H3310 C3306 0.950 . S
C3311 C3309 1.390 . S
C3311 C3312 1.387 . S
C3311 H3314 0.950 . S
C3312 C3311 1.387 . S
C3312 C3315 1.387 . S
H3313 C3309 0.950 . S
H3314 C3311 0.950 . S
C3315 C3306 1.390 . S
C3315 H3308 0.950 . S
C3315 C3312 1.387 . S
C3316 C3317 1.387 . S
C3316 H3320 0.950 . S
C3316 C3325 1.390 . S
C3317 C3316 1.387 . S
C3317 C3319 1.387 . S
H3318 C3325 0.950 . S
C3319 C3317 1.387 . S
C3319 C3321 1.390 . S
C3319 H3323 0.950 . S
H3320 C3316 0.950 . S
C3321 C3319 1.390 . S
C3321 C3322 1.387 . S
C3321 H3324 0.950 . S
C3322 C3321 1.387 . S
C3322 C3325 1.387 . S
H3323 C3319 0.950 . S
H3324 C3321 0.950 . S
C3325 C3316 1.390 . S
C3325 H3318 0.950 . S
C3325 C3322 1.387 . S
C3326 C3327 1.387 . S
C3326 H3330 0.950 . S
C3326 C3335 1.390 . S
C3327 C3326 1.387 . S
C3327 C3329 1.387 . S
H3328 C3335 0.950 . S
C3329 C3327 1.387 . S
C3329 C3331 1.390 . S
C3329 H3333 0.950 . S
H3330 C3326 0.950 . S
C3331 C3329 1.390 . S
C3331 C3332 1.387 . S
C3331 H3334 0.950 . S
C3332 C3331 1.387 . S
C3332 C3335 1.387 . S
H3333 C3329 0.950 . S
H3334 C3331 0.950 . S
C3335 C3326 1.390 . S
C3335 H3328 0.950 . S
C3335 C3332 1.387 . S
C3336 C3337 1.387 . S
C3336 H3340 0.950 . S
C3336 C3345 1.390 . S
C3337 C3336 1.387 . S
C3337 C3339 1.387 . S
H3338 C3345 0.950 . S
C3339 C3337 1.387 . S
C3339 C3341 1.390 . S
C3339 H3343 0.950 . S
H3340 C3336 0.950 . S
C3341 C3339 1.390 . S
C3341 C3342 1.387 . S
C3341 H3344 0.950 . S
C3342 C3341 1.387 . S
C3342 C3345 1.387 . S
H3343 C3339 0.950 . S
H3344 C3341 0.950 . S
C3345 C3336 1.390 . S
C3345 H3338 0.950 . S
C3345 C3342 1.387 . S
C3346 C3347 1.387 . S
C3346 H3350 0.950 . S
C3346 C3355 1.390 . S
C3347 C3346 1.387 . S
C3347 C3349 1.387 . S
H3348 C3355 0.950 . S
C3349 C3347 1.387 . S
C3349 C3351 1.390 . S
C3349 H3353 0.950 . S
H3350 C3346 0.950 . S
C3351 C3349 1.390 . S
C3351 C3352 1.387 . S
C3351 H3354 0.950 . S
C3352 C3351 1.387 . S
C3352 C3355 1.387 . S
H3353 C3349 0.950 . S
H3354 C3351 0.950 . S
C3355 C3346 1.390 . S
C3355 H3348 0.950 . S
C3355 C3352 1.387 . S
C3356 C3357 1.387 . S
C3356 H3360 0.950 . S
C3356 C3365 1.390 . S
C3357 C3356 1.387 . S
C3357 C3359 1.387 . S
H3358 C3365 0.950 . S
C3359 C3357 1.387 . S
C3359 C3361 1.390 . S
C3359 H3363 0.950 . S
H3360 C3356 0.950 . S
C3361 C3359 1.390 . S
C3361 C3362 1.387 . S
C3361 H3364 0.950 . S
C3362 C3361 1.387 . S
C3362 C3365 1.387 . S
H3363 C3359 0.950 . S
H3364 C3361 0.950 . S
C3365 C3356 1.390 . S
C3365 H3358 0.950 . S
C3365 C3362 1.387 . S
C3366 C3367 1.387 . S
C3366 H3370 0.950 . S
C3366 C3375 1.390 . S
C3367 C3366 1.387 . S
C3367 C3369 1.387 . S
H3368 C3375 0.950 . S
C3369 C3367 1.387 . S
C3369 C3371 1.390 . S
C3369 H3373 0.950 . S
H3370 C3366 0.950 . S
C3371 C3369 1.390 . S
C3371 C3372 1.387 . S
C3371 H3374 0.950 . S
C3372 C3371 1.387 . S
C3372 C3375 1.387 . S
H3373 C3369 0.950 . S
H3374 C3371 0.950 . S
C3375 C3366 1.390 . S
C3375 H3368 0.950 . S
C3375 C3372 1.387 . S
C3376 C3377 1.387 . S
C3376 H3380 0.950 . S
C3376 C3385 1.390 . S
C3377 C3376 1.387 . S
C3377 C3379 1.387 . S
H3378 C3385 0.950 . S
C3379 C3377 1.387 . S
C3379 C3381 1.390 . S
C3379 H3383 0.950 . S
H3380 C3376 0.950 . S
C3381 C3379 1.390 . S
C3381 C3382 1.387 . S
C3381 H3384 0.950 . S
C3382 C3381 1.387 . S
C3382 C3385 1.387 . S
H3383 C3379 0.950 . S
H3384 C3381 0.950 . S
C3385 C3376 1.390 . S
C3385 H3378 0.950 . S
C3385 C3382 1.387 . S
C3386 C3387 1.387 . S
C3386 H3390 0.950 . S
C3386 C3395 1.390 . S
C3387 C3386 1.387 . S
C3387 C3389 1.387 . S
H3388 C3395 0.950 . S
C3389 C3387 1.387 . S
C3389 C3391 1.390 . S
C3389 H3393 0.950 . S
H3390 C3386 0.950 . S
C3391 C3389 1.390 . S
C3391 C3392 1.387 . S
C3391 H3394 0.950 . S
C3392 C3391 1.387 . S
C3392 C3395 1.387 . S
H3393 C3389 0.950 . S
H3394 C3391 0.950 . S
C3395 C3386 1.390 . S
C3395 H3388 0.950 . S
C3395 C3392 1.387 . S
C3396 C3397 1.387 . S
C3396 H3400 0.950 . S
C3396 C3405 1.390 . S
C3397 C3396 1.387 . S
C3397 C3399 1.387 . S
H3398 C3405 0.950 . S
C3399 C3397 1.387 . S
C3399 C3401 1.390 . S
C3399 H3403 0.950 . S
H3400 C3396 0.950 . S
C3401 C3399 1.390 . S
C3401 C3402 1.387 . S
C3401 H3404 0.950 . S
C3402 C3401 1.387 . S
C3402 C3405 1.387 . S
H3403 C3399 0.950 . S
H3404 C3401 0.950 . S
C3405 C3396 1.390 . S
C3405 H3398 0.950 . S
C3405 C3402 1.387 . S
C3406 C3407 1.387 . S
C3406 H3410 0.950 . S
C3406 C3415 1.390 . S
C3407 C3406 1.387 . S
C3407 C3409 1.387 . S
H3408 C3415 0.950 . S
C3409 C3407 1.387 . S
C3409 C3411 1.390 . S
C3409 H3413 0.950 . S
H3410 C3406 0.950 . S
C3411 C3409 1.390 . S
C3411 C3412 1.387 . S
C3411 H3414 0.950 . S
C3412 C3411 1.387 . S
C3412 C3415 1.387 . S
H3413 C3409 0.950 . S
H3414 C3411 0.950 . S
C3415 C3406 1.390 . S
C3415 H3408 0.950 . S
C3415 C3412 1.387 . S
C3416 C3417 1.387 . S
C3416 H3420 0.950 . S
C3416 C3425 1.390 . S
C3417 C3416 1.387 . S
C3417 C3419 1.387 . S
H3418 C3425 0.950 . S
C3419 C3417 1.387 . S
C3419 C3421 1.390 . S
C3419 H3423 0.950 . S
H3420 C3416 0.950 . S
C3421 C3419 1.390 . S
C3421 C3422 1.387 . S
C3421 H3424 0.950 . S
C3422 C3421 1.387 . S
C3422 C3425 1.387 . S
H3423 C3419 0.950 . S
H3424 C3421 0.950 . S
C3425 C3416 1.390 . S
C3425 H3418 0.950 . S
C3425 C3422 1.387 . S
C3426 C3427 1.387 . S
C3426 H3430 0.950 . S
C3426 C3435 1.390 . S
C3427 C3426 1.387 . S
C3427 C3429 1.387 . S
H3428 C3435 0.950 . S
C3429 C3427 1.387 . S
C3429 C3431 1.390 . S
C3429 H3433 0.950 . S
H3430 C3426 0.950 . S
C3431 C3429 1.390 . S
C3431 C3432 1.387 . S
C3431 H3434 0.950 . S
C3432 C3431 1.387 . S
C3432 C3435 1.387 . S
H3433 C3429 0.950 . S
H3434 C3431 0.950 . S
C3435 C3426 1.390 . S
C3435 H3428 0.950 . S
C3435 C3432 1.387 . S
C3436 C3437 1.387 . S
C3436 H3440 0.950 . S
C3436 C3445 1.390 . S
C3437 C3436 1.387 . S
C3437 C3439 1.387 . S
H3438 C3445 0.950 . S
C3439 C3437 1.387 . S
C3439 C3441 1.390 . S
C3439 H3443 0.950 . S
H3440 C3436 0.950 . S
C3441 C3439 1.390 . S
C3441 C3442 1.387 . S
C3441 H3444 0.950 . S
C3442 C3441 1.387 . S
C3442 C3445 1.387 . S
H3443 C3439 0.950 . S
H3444 C3441 0.950 . S
C3445 C3436 1.390 . S
C3445 H3438 0.950 . S
C3445 C3442 1.387 . S
C3446 C3447 1.387 . S
C3446 H3450 0.950 . S
C3446 C3455 1.390 . S
C3447 C3446 1.387 . S
C3447 C3449 1.387 . S
H3448 C3455 0.950 . S
C3449 C3447 1.387 . S
C3449 C3451 1.390 . S
C3449 H3453 0.950 . S
H3450 C3446 0.950 . S
C3451 C3449 1.390 . S
C3451 C3452 1.387 . S
C3451 H3454 0.950 . S
C3452 C3451 1.387 . S
C3452 C3455 1.387 . S
H3453 C3449 0.950 . S
H3454 C3451 0.950 . S
C3455 C3446 1.390 . S
C3455 H3448 0.950 . S
C3455 C3452 1.387 . S
C2817 C284 1.545 . S
C2822 C49 1.545 . S
C2827 C196 1.545 . S
C2832 C137 1.545 . S
C2837 C673 1.535 . S
C2842 C372 1.535 . S
C2847 C577 1.541 . S
C2852 C469 1.541 . S
C2857 C753 1.540 . S
C2862 C988 1.540 . S
C2867 C841 1.540 . S
C2872 C909 1.540 . S
C2877 C1377 1.535 . S
C2882 C1076 1.535 . S
C2887 C1173 1.535 . S
C2892 C1281 1.535 . S
C2897 C1465 1.545 . S
C2902 C1701 1.545 . S
C2907 C1545 1.545 . S
C2912 C1613 1.545 . S
C2917 C2081 1.541 . S
C2922 C1780 1.541 . S
C2927 C1985 1.535 . S
C2932 C1868 1.535 . S
C2937 C2396 1.545 . S
C2942 C2169 1.545 . S
C2947 C2249 1.545 . S
C2952 C2317 1.545 . S
C2957 C2484 1.541 . S
C2962 C2785 1.541 . S
C2967 C2581 1.541 . S
C2972 C2697 1.541 . S
C2977 C1817 2.133 . S
C2982 C57 2.120 . S
C2987 C1193 2.130 1_455 S
C2992 C145 2.120 . S
C2997 C205 2.121 . S
C3002 C2660 2.134 . S
C3007 C293 2.124 . S
C3012 C636 2.134 1_455 S
C3017 C1457 2.123 . S
C3022 C409 2.136 . S
C3027 C849 2.123 . S
C3032 C489 2.133 1_455 S
C3037 C2308 2.124 . S
C3042 C557 2.137 . S
C3047 C761 2.120 . S
C3052 C2521 2.133 . S
C3057 C1965 2.137 . S
C3062 C900 2.124 . S
C3067 C1340 2.134 1_455 S
C3072 C997 2.124 . S
C3077 C2161 2.120 . S
C3082 C1113 2.133 . S
C3087 C1261 2.137 . S
C3092 C1604 2.124 . S
C3097 C2601 2.136 . S
C3102 C1553 2.123 . S
C3107 C1692 2.124 . S
C3112 C2044 2.137 . S
C3117 C2257 2.123 . S
C3122 C1905 2.136 . S
C3127 C2748 2.134 . S
C3132 C2405 2.121 . S
C3137 C117 1.800 . S
C3142 C29 1.800 . S
C3147 C233 1.804 . S
C3152 C321 1.804 . S
C3157 C381 1.803 . S
C3162 C460 1.803 . S
C3167 C665 1.807 . S
C3172 C585 1.807 . S
C3177 C733 1.804 . S
C3182 C821 1.804 . S
C3187 C929 1.804 . S
C3192 C1025 1.804 . S
C3197 C1164 1.807 . S
C3202 C1085 1.807 . S
C3207 C1289 1.808 . S
C3212 C1369 1.808 . S
C3217 C1428 1.800 . S
C3222 C1525 1.800 . S
C3227 C1633 1.800 . S
C3232 C1721 1.800 . S
C3237 C1789 1.807 . S
C3242 C1877 1.807 . S
C3247 C2073 1.807 . S
C3252 C1993 1.807 . S
C3257 C2229 1.800 . S
C3262 C2132 1.800 . S
C3267 C2337 1.804 . S
C3272 C2433 1.804 . S
C3277 C2493 1.803 . S
C3282 C2572 1.803 . S
C3287 C2777 1.807 . S
C3292 C2689 1.807 . S
C3297 C20 1.693 . S
C3302 C1729 1.693 . S
C3307 C108 1.693 . S
C3312 C1641 1.693 . S
C3317 C1516 1.693 . S
C3322 C225 1.693 . S
C3327 C313 1.693 . S
C3332 C1437 1.693 . S
C3337 C2053 1.693 . S
C3342 C401 1.693 . S
C3347 C497 1.695 . S
C3352 C1956 1.695 . S
C3357 C1897 1.693 . S
C3362 C548 1.693 . S
C3367 C645 1.693 . S
C3372 C1809 1.693 . S
C3377 C724 1.693 . S
C3382 C2425 1.693 . S
C3387 C812 1.696 . S
C3392 C2345 1.696 . S
C3397 C937 1.696 . S
C3402 C2220 1.696 . S
C3407 C2141 1.696 . S
C3412 C1017 1.696 . S
C3417 C1105 1.693 . S
C3422 C2757 1.693 . S
C3427 C1201 1.695 . S
C3432 C2669 1.695 . S
C3437 C1252 1.693 . S
C3442 C2609 1.693 . S
C3447 C2513 1.693 . S
C3452 C1349 1.693 . S
