# Generated by pormake.
# Topology sxe, (6)-cn, num edge types: 1
# Building blocks:
#     Node 0, Type 0, BuildingBlock: IZENUY_clean_sbu_0, # of connection points: 6
#     Node 1, Type 0, BuildingBlock: IZENUY_clean_sbu_0, # of connection points: 6
#     Node 2, Type 0, BuildingBlock: IZENUY_clean_sbu_0, # of connection points: 6
#     Node 3, Type 0, BuildingBlock: IZENUY_clean_sbu_0, # of connection points: 6
#     Node 4, Type 0, BuildingBlock: IZENUY_clean_sbu_0, # of connection points: 6
#     Node 5, Type 0, BuildingBlock: IZENUY_clean_sbu_0, # of connection points: 6
#     Node 6, Type 0, BuildingBlock: IZENUY_clean_sbu_0, # of connection points: 6
#     Node 7, Type 0, BuildingBlock: IZENUY_clean_sbu_0, # of connection points: 6
#     Node 8, Type 0, BuildingBlock: IZENUY_clean_sbu_0, # of connection points: 6
#     Node 9, Type 0, BuildingBlock: IZENUY_clean_sbu_0, # of connection points: 6
#     Node 10, Type 0, BuildingBlock: IZENUY_clean_sbu_0, # of connection points: 6
#     Node 11, Type 0, BuildingBlock: IZENUY_clean_sbu_0, # of connection points: 6
#     Node 12, Type 0, BuildingBlock: IZENUY_clean_sbu_0, # of connection points: 6
#     Node 13, Type 0, BuildingBlock: IZENUY_clean_sbu_0, # of connection points: 6
#     Node 14, Type 0, BuildingBlock: IZENUY_clean_sbu_0, # of connection points: 6
#     Node 15, Type 0, BuildingBlock: IZENUY_clean_sbu_0, # of connection points: 6
#     Node 16, Type 0, BuildingBlock: IZENUY_clean_sbu_0, # of connection points: 6
#     Node 17, Type 0, BuildingBlock: IZENUY_clean_sbu_0, # of connection points: 6
#     Node 18, Type 0, BuildingBlock: IZENUY_clean_sbu_0, # of connection points: 6
#     Node 19, Type 0, BuildingBlock: IZENUY_clean_sbu_0, # of connection points: 6
#     Node 20, Type 0, BuildingBlock: IZENUY_clean_sbu_0, # of connection points: 6
#     Node 21, Type 0, BuildingBlock: IZENUY_clean_sbu_0, # of connection points: 6
#     Node 22, Type 0, BuildingBlock: IZENUY_clean_sbu_0, # of connection points: 6
#     Node 23, Type 0, BuildingBlock: IZENUY_clean_sbu_0, # of connection points: 6
#     Edge 24, Type (0, 0), None
#     Edge 25, Type (0, 0), None
#     Edge 26, Type (0, 0), None
#     Edge 27, Type (0, 0), None
#     Edge 28, Type (0, 0), None
#     Edge 29, Type (0, 0), None
#     Edge 30, Type (0, 0), None
#     Edge 31, Type (0, 0), None
#     Edge 32, Type (0, 0), None
#     Edge 33, Type (0, 0), None
#     Edge 34, Type (0, 0), None
#     Edge 35, Type (0, 0), None
#     Edge 36, Type (0, 0), None
#     Edge 37, Type (0, 0), None
#     Edge 38, Type (0, 0), None
#     Edge 39, Type (0, 0), None
#     Edge 40, Type (0, 0), None
#     Edge 41, Type (0, 0), None
#     Edge 42, Type (0, 0), None
#     Edge 43, Type (0, 0), None
#     Edge 44, Type (0, 0), None
#     Edge 45, Type (0, 0), None
#     Edge 46, Type (0, 0), None
#     Edge 47, Type (0, 0), None
#     Edge 48, Type (0, 0), None
#     Edge 49, Type (0, 0), None
#     Edge 50, Type (0, 0), None
#     Edge 51, Type (0, 0), None
#     Edge 52, Type (0, 0), None
#     Edge 53, Type (0, 0), None
#     Edge 54, Type (0, 0), None
#     Edge 55, Type (0, 0), None
#     Edge 56, Type (0, 0), None
#     Edge 57, Type (0, 0), None
#     Edge 58, Type (0, 0), None
#     Edge 59, Type (0, 0), None
#     Edge 60, Type (0, 0), None
#     Edge 61, Type (0, 0), None
#     Edge 62, Type (0, 0), None
#     Edge 63, Type (0, 0), None
#     Edge 64, Type (0, 0), None
#     Edge 65, Type (0, 0), None
#     Edge 66, Type (0, 0), None
#     Edge 67, Type (0, 0), None
#     Edge 68, Type (0, 0), None
#     Edge 69, Type (0, 0), None
#     Edge 70, Type (0, 0), None
#     Edge 71, Type (0, 0), None
#     Edge 72, Type (0, 0), None
#     Edge 73, Type (0, 0), None
#     Edge 74, Type (0, 0), None
#     Edge 75, Type (0, 0), None
#     Edge 76, Type (0, 0), None
#     Edge 77, Type (0, 0), None
#     Edge 78, Type (0, 0), None
#     Edge 79, Type (0, 0), None
#     Edge 80, Type (0, 0), None
#     Edge 81, Type (0, 0), None
#     Edge 82, Type (0, 0), None
#     Edge 83, Type (0, 0), None
#     Edge 84, Type (0, 0), None
#     Edge 85, Type (0, 0), None
#     Edge 86, Type (0, 0), None
#     Edge 87, Type (0, 0), None
#     Edge 88, Type (0, 0), None
#     Edge 89, Type (0, 0), None
#     Edge 90, Type (0, 0), None
#     Edge 91, Type (0, 0), None
#     Edge 92, Type (0, 0), None
#     Edge 93, Type (0, 0), None
#     Edge 94, Type (0, 0), None
#     Edge 95, Type (0, 0), None
# Relax obj value: 0.305
# Max RMSD: 0.232
# Mean RMSD: 0.231
data_MOF--net-sxe--node1-IZENUY_clean_sbu_0--edge1-none
_symmetry_space_group_name_H-M    P1
_symmetry_Int_Tables_number       1
_symmetry_cell_setting            triclinic
loop_
_symmetry_equiv_pos_as_xyz
'x, y, z'
_cell_length_a     22.571289
_cell_length_b     22.570694
_cell_length_c     22.570675
_cell_angle_alpha  89.99994
_cell_angle_beta   90.000011
_cell_angle_gamma 89.999897
loop_
_atom_site_label
_atom_site_type_symbol
_atom_site_fract_x
_atom_site_fract_y
_atom_site_fract_z
_atom_type_partial_charge
Fe0 Fe 0.14267 0.45321 0.29843 0.0
Fe1 Fe 0.16641 0.36121 0.20146 0.0
O2 O 0.18403 0.43005 0.23527 0.0
Fe3 Fe 0.24233 0.47568 0.2057 0.0
O4 O 0.27148 0.50492 0.27644 0.0
O5 O 0.19227 0.50639 0.32932 0.0
O6 O 0.17784 0.39481 0.34286 0.0
C7 C 0.18542 0.34147 0.32514 0.0
C8 C 0.13415 0.54423 0.2141 0.0
O9 O 0.17602 0.32462 0.27197 0.0
C10 C 0.19525 0.42014 0.10083 0.0
O11 O 0.07876 0.4057 0.29228 0.0
O12 O 0.08619 0.36136 0.20877 0.0
O13 O 0.18791 0.5358 0.19696 0.0
O14 O 0.10833 0.51188 0.25339 0.0
C15 C 0.29266 0.36578 0.19689 0.0
O16 O 0.15547 0.39358 0.12928 0.0
O17 O 0.2313 0.45371 0.12754 0.0
C18 C 0.05935 0.3687 0.25634 0.0
O19 O 0.24242 0.34436 0.18601 0.0
O20 O 0.29946 0.41889 0.21267 0.0
C21 C 0.24566 0.51794 0.32377 0.0
Fe22 Fe 0.3843 0.57379 0.79843 0.0
Fe23 Fe 0.36056 0.66579 0.70146 0.0
O24 O 0.34294 0.59695 0.73527 0.0
Fe25 Fe 0.28464 0.55132 0.7057 0.0
O26 O 0.25549 0.52208 0.77644 0.0
O27 O 0.33469 0.52061 0.82932 0.0
O28 O 0.34913 0.63219 0.84286 0.0
C29 C 0.34155 0.68553 0.82514 0.0
C30 C 0.39282 0.48277 0.7141 0.0
O31 O 0.35095 0.70238 0.77197 0.0
C32 C 0.33171 0.60685 0.60083 0.0
O33 O 0.4482 0.62129 0.79228 0.0
O34 O 0.44078 0.66564 0.70877 0.0
O35 O 0.33906 0.4912 0.69696 0.0
O36 O 0.41864 0.51512 0.75339 0.0
C37 C 0.23431 0.66122 0.69689 0.0
O38 O 0.3715 0.63341 0.62928 0.0
O39 O 0.29567 0.57328 0.62754 0.0
C40 C 0.46762 0.6583 0.75634 0.0
O41 O 0.28455 0.68264 0.68601 0.0
O42 O 0.22751 0.6081 0.71267 0.0
C43 C 0.28131 0.50905 0.82377 0.0
Fe44 Fe 0.74233 0.05132 0.8213 0.0
Fe45 Fe 0.64267 0.07379 0.72856 0.0
O46 O 0.68403 0.09695 0.79172 0.0
Fe47 Fe 0.66641 0.16579 0.82554 0.0
O48 O 0.74242 0.18264 0.84099 0.0
O49 O 0.79946 0.1081 0.81433 0.0
O50 O 0.77148 0.02208 0.75056 0.0
C51 C 0.74566 1.00905 0.70323 0.0
C52 C 0.69526 0.10685 0.92617 0.0
O53 O 0.69227 0.02061 0.69767 0.0
C54 C 0.55935 0.1583 0.77065 0.0
O55 O 0.68791 0.9912 0.83003 0.0
O56 O 0.60833 0.01512 0.77361 0.0
O57 O 0.65547 0.13341 0.89771 0.0
O58 O 0.7313 0.07328 0.89946 0.0
C59 C 0.68542 0.18553 0.70186 0.0
O60 O 0.57876 0.12129 0.73472 0.0
O61 O 0.58619 0.16564 0.81822 0.0
C62 C 0.63415 0.98277 0.81289 0.0
O63 O 0.67784 0.13219 0.68413 0.0
O64 O 0.67602 0.20238 0.75503 0.0
C65 C 0.79266 0.16122 0.83011 0.0
Fe66 Fe 0.8843 0.95321 0.22856 0.0
Fe67 Fe 0.86056 0.86121 0.32554 0.0
O68 O 0.84294 0.93005 0.29172 0.0
Fe69 Fe 0.78464 0.97568 0.3213 0.0
O70 O 0.75549 1.00492 0.25055 0.0
O71 O 0.83469 1.00639 0.19767 0.0
O72 O 0.84913 0.89481 0.18413 0.0
C73 C 0.84155 0.84147 0.20186 0.0
C74 C 0.89282 0.04423 0.31289 0.0
O75 O 0.85095 0.82462 0.25503 0.0
C76 C 0.83171 0.92014 0.42617 0.0
O77 O 0.9482 0.9057 0.23472 0.0
O78 O 0.94078 0.86136 0.31822 0.0
O79 O 0.83906 0.0358 0.33003 0.0
O80 O 0.91864 1.01188 0.27361 0.0
C81 C 0.73431 0.86578 0.33011 0.0
O82 O 0.8715 0.89358 0.39771 0.0
O83 O 0.79567 0.95371 0.39946 0.0
C84 C 0.96762 0.8687 0.27065 0.0
O85 O 0.78455 0.84436 0.34099 0.0
O86 O 0.72751 0.91889 0.31433 0.0
C87 C 0.78131 0.01794 0.20323 0.0
Fe88 Fe 0.20569 0.24234 0.47568 0.0
Fe89 Fe 0.29842 0.14268 0.45322 0.0
O90 O 0.23526 0.18404 0.43005 0.0
Fe91 Fe 0.20146 0.16642 0.36121 0.0
O92 O 0.18601 0.24243 0.34435 0.0
O93 O 0.21265 0.29947 0.41889 0.0
O94 O 0.27643 0.27149 0.50491 0.0
C95 C 0.32375 0.24568 0.51795 0.0
C96 C 0.10082 0.19527 0.42014 0.0
O97 O 0.32931 0.19229 0.5064 0.0
C98 C 0.25634 0.05935 0.36871 0.0
O99 O 0.19695 0.18792 0.5358 0.0
O100 O 0.25337 0.10834 0.51188 0.0
O101 O 0.12928 0.15548 0.39358 0.0
O102 O 0.12753 0.23131 0.45371 0.0
C103 C 0.32514 0.18543 0.34148 0.0
O104 O 0.29228 0.07878 0.40571 0.0
O105 O 0.20876 0.08619 0.36137 0.0
C106 C 0.21409 0.13416 0.54423 0.0
O107 O 0.34286 0.17785 0.39482 0.0
O108 O 0.27197 0.17602 0.32462 0.0
C109 C 0.19689 0.29267 0.36577 0.0
Fe110 Fe 0.32551 0.86058 0.86121 0.0
Fe111 Fe 0.32128 0.78465 0.97568 0.0
O112 O 0.2917 0.84295 0.93005 0.0
Fe113 Fe 0.22855 0.88432 0.95322 0.0
O114 O 0.18411 0.84914 0.89482 0.0
O115 O 0.255 0.85097 0.82462 0.0
O116 O 0.34096 0.78457 0.84435 0.0
C117 C 0.33008 0.73433 0.86577 0.0
C118 C 0.27063 0.96764 0.86871 0.0
O119 O 0.31432 0.72752 0.91889 0.0
C120 C 0.31288 0.89284 0.04423 0.0
O121 O 0.39769 0.87151 0.89358 0.0
O122 O 0.39944 0.79568 0.95371 0.0
O123 O 0.23469 0.94822 0.90571 0.0
O124 O 0.31821 0.9408 0.86137 0.0
C125 C 0.20322 0.78132 0.01795 0.0
O126 O 0.33002 0.83907 0.0358 0.0
O127 O 0.2736 0.91866 1.01188 0.0
C128 C 0.42615 0.83172 0.92014 0.0
O129 O 0.25054 0.7555 1.00491 0.0
O130 O 0.19766 0.83471 1.0064 0.0
C131 C 0.20183 0.84157 0.84148 0.0
Fe132 Fe 0.70569 0.28465 0.55132 0.0
Fe133 Fe 0.79842 0.38432 0.57378 0.0
O134 O 0.73526 0.34295 0.59695 0.0
Fe135 Fe 0.70146 0.36058 0.66579 0.0
O136 O 0.68601 0.28457 0.68264 0.0
O137 O 0.71265 0.22752 0.60811 0.0
O138 O 0.77643 0.2555 0.52208 0.0
C139 C 0.82375 0.28132 0.50905 0.0
C140 C 0.60082 0.33172 0.60686 0.0
O141 O 0.8293 0.33471 0.5206 0.0
C142 C 0.75634 0.46764 0.65829 0.0
O143 O 0.69695 0.33907 0.4912 0.0
O144 O 0.75337 0.41866 0.51512 0.0
O145 O 0.62928 0.37151 0.63342 0.0
O146 O 0.62753 0.29568 0.57328 0.0
C147 C 0.82514 0.34157 0.68552 0.0
O148 O 0.79228 0.44822 0.62129 0.0
O149 O 0.70876 0.4408 0.66562 0.0
C150 C 0.71409 0.39284 0.48277 0.0
O151 O 0.84286 0.34914 0.63217 0.0
O152 O 0.77197 0.35097 0.70237 0.0
C153 C 0.69689 0.23433 0.66122 0.0
Fe154 Fe 0.82128 0.74234 0.05132 0.0
Fe155 Fe 0.72855 0.64268 0.07378 0.0
O156 O 0.7917 0.68404 0.09695 0.0
Fe157 Fe 0.82551 0.66642 0.16579 0.0
O158 O 0.84096 0.74243 0.18264 0.0
O159 O 0.81432 0.79947 0.10811 0.0
O160 O 0.75054 0.77149 0.02208 0.0
C161 C 0.70322 0.74568 1.00905 0.0
C162 C 0.92615 0.69527 0.10686 0.0
O163 O 0.69766 0.69229 0.0206 0.0
C164 C 0.77063 0.55935 0.15829 0.0
O165 O 0.83002 0.68792 0.9912 0.0
O166 O 0.7736 0.60834 0.01512 0.0
O167 O 0.89769 0.65548 0.13342 0.0
O168 O 0.89944 0.73131 0.07328 0.0
C169 C 0.70183 0.68543 0.18552 0.0
O170 O 0.73469 0.57878 0.12129 0.0
O171 O 0.81821 0.58619 0.16562 0.0
C172 C 0.81288 0.63416 0.98277 0.0
O173 O 0.68411 0.67785 0.13217 0.0
O174 O 0.755 0.67602 0.20237 0.0
C175 C 0.83008 0.79267 0.16122 0.0
Fe176 Fe 0.47566 0.2057 0.24235 0.0
Fe177 Fe 0.4532 0.29843 0.14268 0.0
O178 O 0.43003 0.23527 0.18405 0.0
Fe179 Fe 0.3612 0.20146 0.16643 0.0
O180 O 0.34436 0.186 0.24244 0.0
O181 O 0.41888 0.21267 0.29948 0.0
O182 O 0.50491 0.27643 0.27149 0.0
C183 C 0.51793 0.32377 0.24568 0.0
C184 C 0.42013 0.10083 0.19527 0.0
O185 O 0.50636 0.32933 0.1923 0.0
C186 C 0.36869 0.25634 0.05936 0.0
O187 O 0.53578 0.19695 0.18792 0.0
O188 O 0.51187 0.25339 0.10835 0.0
O189 O 0.39357 0.12929 0.15548 0.0
O190 O 0.4537 0.12753 0.23132 0.0
C191 C 0.34146 0.32514 0.18545 0.0
O192 O 0.4057 0.29228 0.07877 0.0
O193 O 0.36134 0.20878 0.0862 0.0
C194 C 0.54422 0.21411 0.13416 0.0
O195 O 0.39479 0.34287 0.17784 0.0
O196 O 0.3246 0.27196 0.17604 0.0
C197 C 0.36577 0.19689 0.29268 0.0
Fe198 Fe 0.97566 0.3213 0.78465 0.0
Fe199 Fe 0.9532 0.22856 0.88432 0.0
O200 O 0.93003 0.29172 0.84295 0.0
Fe201 Fe 0.8612 0.32553 0.86057 0.0
O202 O 0.84436 0.34099 0.78456 0.0
O203 O 0.91888 0.31433 0.72752 0.0
O204 O 1.00491 0.25056 0.7555 0.0
C205 C 0.01793 0.20323 0.78132 0.0
C206 C 0.92013 0.42617 0.83173 0.0
O207 O 1.00636 0.19766 0.8347 0.0
C208 C 0.86869 0.27065 0.96764 0.0
O209 O 0.03578 0.33004 0.83907 0.0
O210 O 1.01187 0.2736 0.91865 0.0
O211 O 0.89357 0.39771 0.87152 0.0
O212 O 0.9537 0.39946 0.79568 0.0
C213 C 0.84146 0.20186 0.84155 0.0
O214 O 0.9057 0.23472 0.94822 0.0
O215 O 0.86134 0.31822 0.94079 0.0
C216 C 0.04422 0.31289 0.89283 0.0
O217 O 0.89479 0.18413 0.84915 0.0
O218 O 0.8246 0.25503 0.85095 0.0
C219 C 0.86577 0.3301 0.73432 0.0
Fe220 Fe 0.66577 0.70146 0.36057 0.0
Fe221 Fe 0.5513 0.7057 0.28465 0.0
O222 O 0.59693 0.73527 0.34295 0.0
Fe223 Fe 0.57377 0.79843 0.38431 0.0
O224 O 0.63218 0.84287 0.34915 0.0
O225 O 0.70236 0.77196 0.35095 0.0
O226 O 0.68261 0.686 0.28456 0.0
C227 C 0.6612 0.69689 0.23432 0.0
C228 C 0.65828 0.75634 0.46764 0.0
O229 O 0.60808 0.71267 0.22752 0.0
C230 C 0.48275 0.71411 0.39283 0.0
O231 O 0.6334 0.62929 0.37152 0.0
O232 O 0.57327 0.62753 0.29568 0.0
O233 O 0.62127 0.79228 0.44822 0.0
O234 O 0.66563 0.70878 0.44079 0.0
C235 C 0.50904 0.82377 0.28132 0.0
O236 O 0.49119 0.69695 0.33907 0.0
O237 O 0.51509 0.75339 0.41865 0.0
C238 C 0.60684 0.60083 0.33173 0.0
O239 O 0.52205 0.77643 0.2555 0.0
O240 O 0.52061 0.82933 0.3347 0.0
C241 C 0.68551 0.82514 0.34155 0.0
Fe242 Fe 0.0513 0.8213 0.74235 0.0
Fe243 Fe 0.07377 0.72856 0.64268 0.0
O244 O 0.09693 0.79172 0.68405 0.0
Fe245 Fe 0.16577 0.82553 0.66643 0.0
O246 O 0.18261 0.84099 0.74244 0.0
O247 O 0.10808 0.81433 0.79948 0.0
O248 O 0.02205 0.75056 0.77149 0.0
C249 C 1.00904 0.70323 0.74568 0.0
C250 C 0.10684 0.92617 0.69527 0.0
O251 O 0.02061 0.69766 0.6923 0.0
C252 C 0.15828 0.77065 0.55936 0.0
O253 O 0.99119 0.83004 0.68792 0.0
O254 O 0.01509 0.7736 0.60835 0.0
O255 O 0.13339 0.89771 0.65548 0.0
O256 O 0.07327 0.89946 0.73132 0.0
C257 C 0.18551 0.70186 0.68545 0.0
O258 O 0.12127 0.73472 0.57877 0.0
O259 O 0.16563 0.81822 0.5862 0.0
C260 C 0.98275 0.81289 0.63416 0.0
O261 O 0.13218 0.68413 0.67784 0.0
O262 O 0.20236 0.75503 0.67604 0.0
C263 C 0.1612 0.8301 0.79268 0.0
Fe264 Fe 0.86055 0.66579 0.82555 0.0
Fe265 Fe 0.88429 0.57378 0.72857 0.0
O266 O 0.84293 0.59695 0.79173 0.0
Fe267 Fe 0.78463 0.55132 0.82131 0.0
O268 O 0.72751 0.60811 0.81432 0.0
O269 O 0.78454 0.68263 0.84103 0.0
O270 O 0.85091 0.70238 0.75504 0.0
C271 C 0.84153 0.68552 0.70186 0.0
C272 C 0.83174 0.60683 0.92617 0.0
O273 O 0.84914 0.63219 0.68414 0.0
C274 C 0.89281 0.48278 0.81291 0.0
O275 O 0.94077 0.66567 0.81821 0.0
O276 O 0.94821 0.62126 0.73472 0.0
O277 O 0.79566 0.57329 0.89947 0.0
O278 O 0.87152 0.63341 0.89772 0.0
C279 C 0.78129 0.50908 0.70323 0.0
O280 O 0.91862 0.5151 0.77361 0.0
O281 O 0.83905 0.49121 0.83006 0.0
C282 C 0.96759 0.65831 0.77063 0.0
O283 O 0.83468 0.52062 0.69766 0.0
O284 O 0.75548 0.52207 0.75057 0.0
C285 C 0.73431 0.66122 0.83012 0.0
Fe286 Fe 0.74234 0.47567 0.32131 0.0
Fe287 Fe 0.66642 0.3612 0.32555 0.0
O288 O 0.68404 0.43004 0.29173 0.0
Fe289 Fe 0.64267 0.45321 0.22857 0.0
O290 O 0.69229 0.50637 0.19766 0.0
O291 O 0.77148 0.50493 0.25057 0.0
O292 O 0.79946 0.41888 0.31432 0.0
C293 C 0.79266 0.36578 0.33012 0.0
C294 C 0.63416 0.54421 0.31291 0.0
O295 O 0.74243 0.34437 0.34103 0.0
C296 C 0.55937 0.36869 0.27063 0.0
O297 O 0.73131 0.4537 0.39947 0.0
O298 O 0.65545 0.39358 0.39772 0.0
O299 O 0.60835 0.51189 0.27361 0.0
O300 O 0.68792 0.53579 0.33006 0.0
C301 C 0.68544 0.34147 0.20186 0.0
O302 O 0.5862 0.36132 0.31821 0.0
O303 O 0.57875 0.40574 0.23472 0.0
C304 C 0.69523 0.42016 0.42617 0.0
O305 O 0.67606 0.32462 0.25504 0.0
O306 O 0.67783 0.3948 0.18414 0.0
C307 C 0.74568 0.51792 0.20323 0.0
Fe308 Fe 0.28463 0.97567 0.20569 0.0
Fe309 Fe 0.36055 0.8612 0.20145 0.0
O310 O 0.34293 0.93004 0.23526 0.0
Fe311 Fe 0.38429 0.95321 0.29843 0.0
O312 O 0.33468 1.00637 0.32933 0.0
O313 O 0.25548 1.00493 0.27643 0.0
O314 O 0.22751 0.91888 0.21267 0.0
C315 C 0.23431 0.86578 0.19687 0.0
C316 C 0.39281 0.04421 0.21409 0.0
O317 O 0.28454 0.84437 0.18597 0.0
C318 C 0.46759 0.86869 0.25636 0.0
O319 O 0.29566 0.9537 0.12752 0.0
O320 O 0.37152 0.89358 0.12927 0.0
O321 O 0.41862 1.01189 0.25339 0.0
O322 O 0.33905 0.03579 0.19694 0.0
C323 C 0.34153 0.84147 0.32513 0.0
O324 O 0.44077 0.86132 0.20879 0.0
O325 O 0.44821 0.90574 0.29227 0.0
C326 C 0.33174 0.92016 0.10083 0.0
O327 O 0.35091 0.82462 0.27195 0.0
O328 O 0.34914 0.8948 0.34286 0.0
C329 C 0.28129 0.01792 0.32377 0.0
Fe330 Fe 0.16642 0.16579 0.70145 0.0
Fe331 Fe 0.14267 0.07378 0.79843 0.0
O332 O 0.18404 0.09695 0.73526 0.0
Fe333 Fe 0.24234 0.05132 0.70569 0.0
O334 O 0.29946 0.10811 0.71267 0.0
O335 O 0.24243 0.18263 0.68597 0.0
O336 O 0.17606 0.20238 0.77195 0.0
C337 C 0.18544 0.18552 0.82513 0.0
C338 C 0.19523 0.10683 0.60083 0.0
O339 O 0.17783 0.13219 0.84286 0.0
C340 C 0.13416 0.98278 0.71409 0.0
O341 O 0.0862 0.16567 0.70879 0.0
O342 O 0.07875 0.12126 0.79227 0.0
O343 O 0.23131 0.07329 0.62752 0.0
O344 O 0.15545 0.13341 0.62927 0.0
C345 C 0.24568 1.00908 0.82377 0.0
O346 O 0.10835 0.0151 0.75339 0.0
O347 O 0.18792 0.99121 0.69694 0.0
C348 C 0.05937 0.15831 0.75636 0.0
O349 O 0.19229 0.02062 0.82933 0.0
O350 O 0.27148 0.02207 0.77643 0.0
C351 C 0.29266 0.16122 0.69687 0.0
Fe352 Fe 0.82552 0.86057 0.66579 0.0
Fe353 Fe 0.72855 0.88431 0.57377 0.0
O354 O 0.79171 0.84295 0.59695 0.0
Fe355 Fe 0.82129 0.78464 0.55132 0.0
O356 O 0.81431 0.72752 0.60811 0.0
O357 O 0.84099 0.78456 0.68263 0.0
O358 O 0.75501 0.85094 0.70237 0.0
C359 C 0.70184 0.84155 0.68551 0.0
C360 C 0.92615 0.83175 0.60684 0.0
O361 O 0.68412 0.84915 0.63218 0.0
C362 C 0.8129 0.89283 0.48278 0.0
O363 O 0.81819 0.94079 0.66566 0.0
O364 O 0.7347 0.94823 0.62126 0.0
O365 O 0.89945 0.79567 0.5733 0.0
O366 O 0.8977 0.87153 0.63343 0.0
C367 C 0.70322 0.7813 0.50907 0.0
O368 O 0.77359 0.91864 0.5151 0.0
O369 O 0.83004 0.83906 0.49121 0.0
C370 C 0.77061 0.96761 0.6583 0.0
O371 O 0.69766 0.83469 0.52061 0.0
O372 O 0.75056 0.7555 0.52207 0.0
C373 C 0.83009 0.73433 0.66122 0.0
Fe374 Fe 0.70145 0.16642 0.16579 0.0
Fe375 Fe 0.79842 0.14268 0.07377 0.0
O376 O 0.73525 0.18405 0.09695 0.0
Fe377 Fe 0.70568 0.24235 0.05132 0.0
O378 O 0.71265 0.29948 0.10811 0.0
O379 O 0.68598 0.24243 0.18263 0.0
O380 O 0.77196 0.17606 0.20237 0.0
C381 C 0.82513 0.18545 0.18551 0.0
C382 C 0.60082 0.19524 0.10684 0.0
O383 O 0.84285 0.17784 0.13218 0.0
C384 C 0.71407 0.13417 0.98278 0.0
O385 O 0.70878 0.0862 0.16566 0.0
O386 O 0.79227 0.07877 0.12126 0.0
O387 O 0.62751 0.23132 0.0733 0.0
O388 O 0.62927 0.15547 0.13343 0.0
C389 C 0.82375 0.24569 1.00907 0.0
O390 O 0.75338 0.10836 0.0151 0.0
O391 O 0.69693 0.18793 0.99121 0.0
C392 C 0.75635 0.05938 0.1583 0.0
O393 O 0.82931 0.1923 0.02061 0.0
O394 O 0.77641 0.2715 0.02207 0.0
C395 C 0.69687 0.29267 0.16122 0.0
Fe396 Fe 0.32129 0.74235 0.47567 0.0
Fe397 Fe 0.32552 0.66642 0.3612 0.0
O398 O 0.29171 0.68405 0.43005 0.0
Fe399 Fe 0.22855 0.64268 0.45322 0.0
O400 O 0.19766 0.6923 0.50639 0.0
O401 O 0.25056 0.7715 0.50492 0.0
O402 O 0.31431 0.79948 0.41888 0.0
C403 C 0.33009 0.79267 0.36577 0.0
C404 C 0.3129 0.63417 0.54421 0.0
O405 O 0.34099 0.74243 0.34436 0.0
C406 C 0.27061 0.55938 0.3687 0.0
O407 O 0.39945 0.73132 0.4537 0.0
O408 O 0.3977 0.65547 0.39357 0.0
O409 O 0.27359 0.60836 0.51189 0.0
O410 O 0.33004 0.68793 0.53579 0.0
C411 C 0.20184 0.68545 0.34148 0.0
O412 O 0.31819 0.5862 0.36133 0.0
O413 O 0.2347 0.57877 0.40574 0.0
C414 C 0.42615 0.69524 0.42016 0.0
O415 O 0.25501 0.67606 0.32462 0.0
O416 O 0.18412 0.67784 0.39482 0.0
C417 C 0.20322 0.74569 0.51793 0.0
Fe418 Fe 0.20145 0.36057 0.8612 0.0
Fe419 Fe 0.29842 0.38431 0.95322 0.0
O420 O 0.23525 0.34295 0.93005 0.0
Fe421 Fe 0.20568 0.28464 0.97567 0.0
O422 O 0.21265 0.22752 0.91888 0.0
O423 O 0.18598 0.28456 0.84436 0.0
O424 O 0.27196 0.35094 0.82462 0.0
C425 C 0.32513 0.34155 0.84148 0.0
C426 C 0.10082 0.33175 0.92016 0.0
O427 O 0.34285 0.34915 0.89482 0.0
C428 C 0.21407 0.39283 0.04421 0.0
O429 O 0.20878 0.44079 0.86133 0.0
O430 O 0.29227 0.44823 0.90574 0.0
O431 O 0.12751 0.29567 0.9537 0.0
O432 O 0.12927 0.37153 0.89357 0.0
C433 C 0.32375 0.2813 0.01793 0.0
O434 O 0.25337 0.41864 1.01189 0.0
O435 O 0.19693 0.33906 0.03579 0.0
C436 C 0.25635 0.46761 0.8687 0.0
O437 O 0.32931 0.33469 1.00639 0.0
O438 O 0.27641 0.2555 1.00492 0.0
C439 C 0.19687 0.23433 0.86577 0.0
Fe440 Fe 0.57377 0.72857 0.88431 0.0
Fe441 Fe 0.55131 0.82131 0.78464 0.0
O442 O 0.59693 0.79173 0.84294 0.0
Fe443 Fe 0.66578 0.82554 0.86056 0.0
O444 O 0.70237 0.75504 0.85091 0.0
O445 O 0.63218 0.68413 0.84916 0.0
O446 O 0.52062 0.69765 0.83468 0.0
C447 C 0.50906 0.70323 0.7813 0.0
C448 C 0.65829 0.77063 0.96761 0.0
O449 O 0.52204 0.75058 0.7555 0.0
C450 C 0.60682 0.92617 0.83175 0.0
O451 O 0.51508 0.7736 0.91863 0.0
O452 O 0.49119 0.83006 0.83906 0.0
O453 O 0.66567 0.8182 0.94078 0.0
O454 O 0.62124 0.73473 0.94823 0.0
C455 C 0.6612 0.83012 0.73431 0.0
O456 O 0.57328 0.89947 0.79567 0.0
O457 O 0.6334 0.89772 0.87153 0.0
C458 C 0.48276 0.81291 0.89282 0.0
O459 O 0.60809 0.81432 0.72751 0.0
O460 O 0.6826 0.84103 0.78455 0.0
C461 C 0.68551 0.70187 0.84152 0.0
Fe462 Fe 0.05131 0.70568 0.24235 0.0
Fe463 Fe 0.16578 0.70145 0.16644 0.0
O464 O 0.09693 0.73527 0.18405 0.0
Fe465 Fe 0.07377 0.79843 0.14269 0.0
O466 O 0.02062 0.82934 0.19232 0.0
O467 O 0.02204 0.77642 0.2715 0.0
O468 O 0.10809 0.71267 0.29948 0.0
C469 C 0.1612 0.69688 0.29268 0.0
C470 C 0.98276 0.71409 0.13417 0.0
O471 O 0.1826 0.68597 0.24245 0.0
C472 C 0.15829 0.75636 0.05939 0.0
O473 O 0.07328 0.62752 0.23133 0.0
O474 O 0.1334 0.62928 0.15546 0.0
O475 O 0.01508 0.7534 0.10837 0.0
O476 O 0.99119 0.69693 0.18793 0.0
C477 C 0.18551 0.82513 0.18547 0.0
O478 O 0.16567 0.70879 0.08622 0.0
O479 O 0.12124 0.79227 0.07876 0.0
C480 C 0.10682 0.60083 0.19524 0.0
O481 O 0.20237 0.77195 0.17608 0.0
O482 O 0.13218 0.84286 0.17783 0.0
C483 C 1.00906 0.82377 0.2457 0.0
Fe484 Fe 0.36119 0.32554 0.66644 0.0
Fe485 Fe 0.4532 0.22857 0.64269 0.0
O486 O 0.43003 0.29173 0.68405 0.0
Fe487 Fe 0.47566 0.32131 0.74235 0.0
O488 O 0.41888 0.31432 0.79948 0.0
O489 O 0.34436 0.34103 0.74245 0.0
O490 O 0.3246 0.25504 0.67608 0.0
C491 C 0.34146 0.20187 0.68547 0.0
C492 C 0.42015 0.42617 0.69524 0.0
O493 O 0.39479 0.18413 0.67783 0.0
C494 C 0.5442 0.31291 0.63417 0.0
O495 O 0.3613 0.3182 0.58622 0.0
O496 O 0.40573 0.23473 0.57876 0.0
O497 O 0.45368 0.39947 0.73133 0.0
O498 O 0.39357 0.39772 0.65546 0.0
C499 C 0.51791 0.20323 0.7457 0.0
O500 O 0.51189 0.2736 0.60837 0.0
O501 O 0.53577 0.33006 0.68793 0.0
C502 C 0.36868 0.27063 0.55939 0.0
O503 O 0.50635 0.19765 0.69232 0.0
O504 O 0.50493 0.25058 0.7715 0.0
C505 C 0.36577 0.33012 0.79268 0.0
Fe506 Fe 0.97566 0.20568 0.28464 0.0
Fe507 Fe 0.86119 0.20145 0.36056 0.0
O508 O 0.93003 0.23526 0.34294 0.0
Fe509 Fe 0.9532 0.29843 0.38431 0.0
O510 O 1.00635 0.32934 0.33468 0.0
O511 O 1.00493 0.27642 0.2555 0.0
O512 O 0.91888 0.21267 0.22751 0.0
C513 C 0.86577 0.19688 0.23431 0.0
C514 C 0.0442 0.21409 0.39282 0.0
O515 O 0.84436 0.18597 0.28455 0.0
C516 C 0.86868 0.25636 0.46761 0.0
O517 O 0.95368 0.12752 0.29567 0.0
O518 O 0.89357 0.12928 0.37153 0.0
O519 O 1.01189 0.2534 0.41863 0.0
O520 O 0.03577 0.19693 0.33906 0.0
C521 C 0.84146 0.32513 0.34152 0.0
O522 O 0.8613 0.20879 0.44078 0.0
O523 O 0.90573 0.29227 0.44823 0.0
C524 C 0.92015 0.10083 0.33175 0.0
O525 O 0.8246 0.27195 0.35091 0.0
O526 O 0.89479 0.34286 0.34916 0.0
C527 C 0.01791 0.32377 0.2813 0.0
loop_
_geom_bond_atom_site_label_1
_geom_bond_atom_site_label_2
_geom_bond_distance
_geom_bond_site_symmetry_2
_ccdc_geom_bond_type
Fe0 O2 1.918 . S
Fe0 O5 1.997 . S
Fe0 O6 2.002 . S
Fe0 O11 1.976 . S
Fe0 O14 1.996 . S
Fe1 O2 1.918 . S
Fe1 O9 1.997 . S
Fe1 O12 1.996 . S
Fe1 O16 1.976 . S
Fe1 O19 2.002 . S
O2 Fe0 1.918 . S
O2 Fe1 1.918 . S
O2 Fe3 1.918 . S
Fe3 O2 1.918 . S
Fe3 O4 2.002 . S
Fe3 O13 1.976 . S
Fe3 O17 1.996 . S
Fe3 O20 1.997 . S
O4 Fe3 2.002 . S
O4 C21 1.295 . S
O5 Fe0 1.997 . S
O5 C21 1.235 . S
O6 Fe0 2.002 . S
O6 C7 1.295 . S
C7 O6 1.295 . S
C7 O9 1.235 . S
C8 O13 1.287 . S
C8 O14 1.255 . S
O9 Fe1 1.997 . S
O9 C7 1.235 . S
C10 O16 1.287 . S
C10 O17 1.255 . S
O11 Fe0 1.976 . S
O11 C18 1.287 . S
O12 Fe1 1.996 . S
O12 C18 1.255 . S
O13 Fe3 1.976 . S
O13 C8 1.287 . S
O14 Fe0 1.996 . S
O14 C8 1.255 . S
C15 O19 1.295 . S
C15 O20 1.235 . S
O16 Fe1 1.976 . S
O16 C10 1.287 . S
O17 Fe3 1.996 . S
O17 C10 1.255 . S
C18 O11 1.287 . S
C18 O12 1.255 . S
O19 Fe1 2.002 . S
O19 C15 1.295 . S
O20 Fe3 1.997 . S
O20 C15 1.235 . S
C21 O4 1.295 . S
C21 O5 1.235 . S
Fe22 O24 1.918 . S
Fe22 O27 1.997 . S
Fe22 O28 2.002 . S
Fe22 O33 1.976 . S
Fe22 O36 1.996 . S
Fe23 O24 1.918 . S
Fe23 O31 1.997 . S
Fe23 O34 1.996 . S
Fe23 O38 1.976 . S
Fe23 O41 2.002 . S
O24 Fe22 1.918 . S
O24 Fe23 1.918 . S
O24 Fe25 1.918 . S
Fe25 O24 1.918 . S
Fe25 O26 2.002 . S
Fe25 O35 1.976 . S
Fe25 O39 1.996 . S
Fe25 O42 1.997 . S
O26 Fe25 2.002 . S
O26 C43 1.295 . S
O27 Fe22 1.997 . S
O27 C43 1.235 . S
O28 Fe22 2.002 . S
O28 C29 1.295 . S
C29 O28 1.295 . S
C29 O31 1.235 . S
C30 O35 1.287 . S
C30 O36 1.255 . S
O31 Fe23 1.997 . S
O31 C29 1.235 . S
C32 O38 1.287 . S
C32 O39 1.255 . S
O33 Fe22 1.976 . S
O33 C40 1.287 . S
O34 Fe23 1.996 . S
O34 C40 1.255 . S
O35 Fe25 1.976 . S
O35 C30 1.287 . S
O36 Fe22 1.996 . S
O36 C30 1.255 . S
C37 O41 1.295 . S
C37 O42 1.235 . S
O38 Fe23 1.976 . S
O38 C32 1.287 . S
O39 Fe25 1.996 . S
O39 C32 1.255 . S
C40 O33 1.287 . S
C40 O34 1.255 . S
O41 Fe23 2.002 . S
O41 C37 1.295 . S
O42 Fe25 1.997 . S
O42 C37 1.235 . S
C43 O26 1.295 . S
C43 O27 1.235 . S
Fe44 O46 1.918 . S
Fe44 O49 1.997 . S
Fe44 O50 2.002 1_545 S
Fe44 O55 1.976 1_545 S
Fe44 O58 1.996 . S
Fe45 O46 1.918 . S
Fe45 O53 1.997 . S
Fe45 O56 1.996 1_545 S
Fe45 O60 1.976 . S
Fe45 O63 2.002 . S
O46 Fe44 1.918 . S
O46 Fe45 1.918 . S
O46 Fe47 1.918 . S
Fe47 O46 1.918 . S
Fe47 O48 2.002 . S
Fe47 O57 1.976 . S
Fe47 O61 1.996 . S
Fe47 O64 1.997 . S
O48 Fe47 2.002 . S
O48 C65 1.295 . S
O49 Fe44 1.997 . S
O49 C65 1.235 . S
O50 Fe44 2.002 1_565 S
O50 C51 1.295 . S
C51 O50 1.295 . S
C51 O53 1.235 1_565 S
C52 O57 1.287 . S
C52 O58 1.255 . S
O53 Fe45 1.997 . S
O53 C51 1.235 1_545 S
C54 O60 1.287 . S
C54 O61 1.255 . S
O55 Fe44 1.976 1_565 S
O55 C62 1.287 . S
O56 Fe45 1.996 1_565 S
O56 C62 1.255 . S
O57 Fe47 1.976 . S
O57 C52 1.287 . S
O58 Fe44 1.996 . S
O58 C52 1.255 . S
C59 O63 1.295 . S
C59 O64 1.235 . S
O60 Fe45 1.976 . S
O60 C54 1.287 . S
O61 Fe47 1.996 . S
O61 C54 1.255 . S
C62 O55 1.287 . S
C62 O56 1.255 . S
O63 Fe45 2.002 . S
O63 C59 1.295 . S
O64 Fe47 1.997 . S
O64 C59 1.235 . S
C65 O48 1.295 . S
C65 O49 1.235 . S
Fe66 O68 1.918 . S
Fe66 O71 1.997 . S
Fe66 O72 2.002 . S
Fe66 O77 1.976 . S
Fe66 O80 1.996 1_565 S
Fe67 O68 1.918 . S
Fe67 O75 1.997 . S
Fe67 O78 1.996 . S
Fe67 O82 1.976 . S
Fe67 O85 2.002 . S
O68 Fe66 1.918 . S
O68 Fe67 1.918 . S
O68 Fe69 1.918 . S
Fe69 O68 1.918 . S
Fe69 O70 2.002 1_565 S
Fe69 O79 1.976 1_565 S
Fe69 O83 1.996 . S
Fe69 O86 1.997 . S
O70 Fe69 2.002 1_545 S
O70 C87 1.295 . S
O71 Fe66 1.997 . S
O71 C87 1.235 1_565 S
O72 Fe66 2.002 . S
O72 C73 1.295 . S
C73 O72 1.295 . S
C73 O75 1.235 . S
C74 O79 1.287 . S
C74 O80 1.255 . S
O75 Fe67 1.997 . S
O75 C73 1.235 . S
C76 O82 1.287 . S
C76 O83 1.255 . S
O77 Fe66 1.976 . S
O77 C84 1.287 . S
O78 Fe67 1.996 . S
O78 C84 1.255 . S
O79 Fe69 1.976 1_545 S
O79 C74 1.287 . S
O80 Fe66 1.996 1_545 S
O80 C74 1.255 . S
C81 O85 1.295 . S
C81 O86 1.235 . S
O82 Fe67 1.976 . S
O82 C76 1.287 . S
O83 Fe69 1.996 . S
O83 C76 1.255 . S
C84 O77 1.287 . S
C84 O78 1.255 . S
O85 Fe67 2.002 . S
O85 C81 1.295 . S
O86 Fe69 1.997 . S
O86 C81 1.235 . S
C87 O70 1.295 . S
C87 O71 1.235 1_545 S
Fe88 O90 1.918 . S
Fe88 O93 1.997 . S
Fe88 O94 2.002 . S
Fe88 O99 1.976 . S
Fe88 O102 1.996 . S
Fe89 O90 1.918 . S
Fe89 O97 1.997 . S
Fe89 O100 1.996 . S
Fe89 O104 1.976 . S
Fe89 O107 2.002 . S
O90 Fe88 1.918 . S
O90 Fe89 1.918 . S
O90 Fe91 1.918 . S
Fe91 O90 1.918 . S
Fe91 O92 2.002 . S
Fe91 O101 1.976 . S
Fe91 O105 1.996 . S
Fe91 O108 1.997 . S
O92 Fe91 2.002 . S
O92 C109 1.295 . S
O93 Fe88 1.997 . S
O93 C109 1.235 . S
O94 Fe88 2.002 . S
O94 C95 1.295 . S
C95 O94 1.295 . S
C95 O97 1.235 . S
C96 O101 1.287 . S
C96 O102 1.255 . S
O97 Fe89 1.997 . S
O97 C95 1.235 . S
C98 O104 1.287 . S
C98 O105 1.255 . S
O99 Fe88 1.976 . S
O99 C106 1.287 . S
O100 Fe89 1.996 . S
O100 C106 1.255 . S
O101 Fe91 1.976 . S
O101 C96 1.287 . S
O102 Fe88 1.996 . S
O102 C96 1.255 . S
C103 O107 1.295 . S
C103 O108 1.235 . S
O104 Fe89 1.976 . S
O104 C98 1.287 . S
O105 Fe91 1.996 . S
O105 C98 1.255 . S
C106 O99 1.287 . S
C106 O100 1.255 . S
O107 Fe89 2.002 . S
O107 C103 1.295 . S
O108 Fe91 1.997 . S
O108 C103 1.235 . S
C109 O92 1.295 . S
C109 O93 1.235 . S
Fe110 O112 1.918 . S
Fe110 O115 1.997 . S
Fe110 O116 2.002 . S
Fe110 O121 1.976 . S
Fe110 O124 1.996 . S
Fe111 O112 1.918 . S
Fe111 O119 1.997 . S
Fe111 O122 1.996 . S
Fe111 O126 1.976 1_556 S
Fe111 O129 2.002 1_556 S
O112 Fe110 1.918 . S
O112 Fe111 1.918 . S
O112 Fe113 1.918 . S
Fe113 O112 1.918 . S
Fe113 O114 2.002 . S
Fe113 O123 1.976 . S
Fe113 O127 1.996 1_556 S
Fe113 O130 1.997 . S
O114 Fe113 2.002 . S
O114 C131 1.295 . S
O115 Fe110 1.997 . S
O115 C131 1.235 . S
O116 Fe110 2.002 . S
O116 C117 1.295 . S
C117 O116 1.295 . S
C117 O119 1.235 . S
C118 O123 1.287 . S
C118 O124 1.255 . S
O119 Fe111 1.997 . S
O119 C117 1.235 . S
C120 O126 1.287 . S
C120 O127 1.255 . S
O121 Fe110 1.976 . S
O121 C128 1.287 . S
O122 Fe111 1.996 . S
O122 C128 1.255 . S
O123 Fe113 1.976 . S
O123 C118 1.287 . S
O124 Fe110 1.996 . S
O124 C118 1.255 . S
C125 O129 1.295 . S
C125 O130 1.235 1_554 S
O126 Fe111 1.976 1_554 S
O126 C120 1.287 . S
O127 Fe113 1.996 1_554 S
O127 C120 1.255 . S
C128 O121 1.287 . S
C128 O122 1.255 . S
O129 Fe111 2.002 1_554 S
O129 C125 1.295 . S
O130 Fe113 1.997 . S
O130 C125 1.235 1_556 S
C131 O114 1.295 . S
C131 O115 1.235 . S
Fe132 O134 1.918 . S
Fe132 O137 1.997 . S
Fe132 O138 2.002 . S
Fe132 O143 1.976 . S
Fe132 O146 1.996 . S
Fe133 O134 1.918 . S
Fe133 O141 1.997 . S
Fe133 O144 1.996 . S
Fe133 O148 1.976 . S
Fe133 O151 2.002 . S
O134 Fe132 1.918 . S
O134 Fe133 1.918 . S
O134 Fe135 1.918 . S
Fe135 O134 1.918 . S
Fe135 O136 2.002 . S
Fe135 O145 1.976 . S
Fe135 O149 1.996 . S
Fe135 O152 1.997 . S
O136 Fe135 2.002 . S
O136 C153 1.295 . S
O137 Fe132 1.997 . S
O137 C153 1.235 . S
O138 Fe132 2.002 . S
O138 C139 1.295 . S
C139 O138 1.295 . S
C139 O141 1.235 . S
C140 O145 1.287 . S
C140 O146 1.255 . S
O141 Fe133 1.997 . S
O141 C139 1.235 . S
C142 O148 1.287 . S
C142 O149 1.255 . S
O143 Fe132 1.976 . S
O143 C150 1.287 . S
O144 Fe133 1.996 . S
O144 C150 1.255 . S
O145 Fe135 1.976 . S
O145 C140 1.287 . S
O146 Fe132 1.996 . S
O146 C140 1.255 . S
C147 O151 1.295 . S
C147 O152 1.235 . S
O148 Fe133 1.976 . S
O148 C142 1.287 . S
O149 Fe135 1.996 . S
O149 C142 1.255 . S
C150 O143 1.287 . S
C150 O144 1.255 . S
O151 Fe133 2.002 . S
O151 C147 1.295 . S
O152 Fe135 1.997 . S
O152 C147 1.235 . S
C153 O136 1.295 . S
C153 O137 1.235 . S
Fe154 O156 1.918 . S
Fe154 O159 1.997 . S
Fe154 O160 2.002 1_554 S
Fe154 O165 1.976 1_554 S
Fe154 O168 1.996 . S
Fe155 O156 1.918 . S
Fe155 O163 1.997 . S
Fe155 O166 1.996 1_554 S
Fe155 O170 1.976 . S
Fe155 O173 2.002 . S
O156 Fe154 1.918 . S
O156 Fe155 1.918 . S
O156 Fe157 1.918 . S
Fe157 O156 1.918 . S
Fe157 O158 2.002 . S
Fe157 O167 1.976 . S
Fe157 O171 1.996 . S
Fe157 O174 1.997 . S
O158 Fe157 2.002 . S
O158 C175 1.295 . S
O159 Fe154 1.997 . S
O159 C175 1.235 . S
O160 Fe154 2.002 1_556 S
O160 C161 1.295 . S
C161 O160 1.295 . S
C161 O163 1.235 1_556 S
C162 O167 1.287 . S
C162 O168 1.255 . S
O163 Fe155 1.997 . S
O163 C161 1.235 1_554 S
C164 O170 1.287 . S
C164 O171 1.255 . S
O165 Fe154 1.976 1_556 S
O165 C172 1.287 . S
O166 Fe155 1.996 1_556 S
O166 C172 1.255 . S
O167 Fe157 1.976 . S
O167 C162 1.287 . S
O168 Fe154 1.996 . S
O168 C162 1.255 . S
C169 O173 1.295 . S
C169 O174 1.235 . S
O170 Fe155 1.976 . S
O170 C164 1.287 . S
O171 Fe157 1.996 . S
O171 C164 1.255 . S
C172 O165 1.287 . S
C172 O166 1.255 . S
O173 Fe155 2.002 . S
O173 C169 1.295 . S
O174 Fe157 1.997 . S
O174 C169 1.235 . S
C175 O158 1.295 . S
C175 O159 1.235 . S
Fe176 O178 1.918 . S
Fe176 O181 1.997 . S
Fe176 O182 2.002 . S
Fe176 O187 1.976 . S
Fe176 O190 1.996 . S
Fe177 O178 1.918 . S
Fe177 O185 1.997 . S
Fe177 O188 1.996 . S
Fe177 O192 1.976 . S
Fe177 O195 2.002 . S
O178 Fe176 1.918 . S
O178 Fe177 1.918 . S
O178 Fe179 1.918 . S
Fe179 O178 1.918 . S
Fe179 O180 2.002 . S
Fe179 O189 1.976 . S
Fe179 O193 1.996 . S
Fe179 O196 1.997 . S
O180 Fe179 2.002 . S
O180 C197 1.295 . S
O181 Fe176 1.997 . S
O181 C197 1.235 . S
O182 Fe176 2.002 . S
O182 C183 1.295 . S
C183 O182 1.295 . S
C183 O185 1.235 . S
C184 O189 1.287 . S
C184 O190 1.255 . S
O185 Fe177 1.997 . S
O185 C183 1.235 . S
C186 O192 1.287 . S
C186 O193 1.255 . S
O187 Fe176 1.976 . S
O187 C194 1.287 . S
O188 Fe177 1.996 . S
O188 C194 1.255 . S
O189 Fe179 1.976 . S
O189 C184 1.287 . S
O190 Fe176 1.996 . S
O190 C184 1.255 . S
C191 O195 1.295 . S
C191 O196 1.235 . S
O192 Fe177 1.976 . S
O192 C186 1.287 . S
O193 Fe179 1.996 . S
O193 C186 1.255 . S
C194 O187 1.287 . S
C194 O188 1.255 . S
O195 Fe177 2.002 . S
O195 C191 1.295 . S
O196 Fe179 1.997 . S
O196 C191 1.235 . S
C197 O180 1.295 . S
C197 O181 1.235 . S
Fe198 O200 1.918 . S
Fe198 O203 1.997 . S
Fe198 O204 2.002 1_655 S
Fe198 O209 1.976 1_655 S
Fe198 O212 1.996 . S
Fe199 O200 1.918 . S
Fe199 O207 1.997 . S
Fe199 O210 1.996 1_655 S
Fe199 O214 1.976 . S
Fe199 O217 2.002 . S
O200 Fe198 1.918 . S
O200 Fe199 1.918 . S
O200 Fe201 1.918 . S
Fe201 O200 1.918 . S
Fe201 O202 2.002 . S
Fe201 O211 1.976 . S
Fe201 O215 1.996 . S
Fe201 O218 1.997 . S
O202 Fe201 2.002 . S
O202 C219 1.295 . S
O203 Fe198 1.997 . S
O203 C219 1.235 . S
O204 Fe198 2.002 1_455 S
O204 C205 1.295 . S
C205 O204 1.295 . S
C205 O207 1.235 1_455 S
C206 O211 1.287 . S
C206 O212 1.255 . S
O207 Fe199 1.997 . S
O207 C205 1.235 1_655 S
C208 O214 1.287 . S
C208 O215 1.255 . S
O209 Fe198 1.976 1_455 S
O209 C216 1.287 . S
O210 Fe199 1.996 1_455 S
O210 C216 1.255 . S
O211 Fe201 1.976 . S
O211 C206 1.287 . S
O212 Fe198 1.996 . S
O212 C206 1.255 . S
C213 O217 1.295 . S
C213 O218 1.235 . S
O214 Fe199 1.976 . S
O214 C208 1.287 . S
O215 Fe201 1.996 . S
O215 C208 1.255 . S
C216 O209 1.287 . S
C216 O210 1.255 . S
O217 Fe199 2.002 . S
O217 C213 1.295 . S
O218 Fe201 1.997 . S
O218 C213 1.235 . S
C219 O202 1.295 . S
C219 O203 1.235 . S
Fe220 O222 1.918 . S
Fe220 O225 1.997 . S
Fe220 O226 2.002 . S
Fe220 O231 1.976 . S
Fe220 O234 1.996 . S
Fe221 O222 1.918 . S
Fe221 O229 1.997 . S
Fe221 O232 1.996 . S
Fe221 O236 1.976 . S
Fe221 O239 2.002 . S
O222 Fe220 1.918 . S
O222 Fe221 1.918 . S
O222 Fe223 1.918 . S
Fe223 O222 1.918 . S
Fe223 O224 2.002 . S
Fe223 O233 1.976 . S
Fe223 O237 1.996 . S
Fe223 O240 1.997 . S
O224 Fe223 2.002 . S
O224 C241 1.295 . S
O225 Fe220 1.997 . S
O225 C241 1.235 . S
O226 Fe220 2.002 . S
O226 C227 1.295 . S
C227 O226 1.295 . S
C227 O229 1.235 . S
C228 O233 1.287 . S
C228 O234 1.255 . S
O229 Fe221 1.997 . S
O229 C227 1.235 . S
C230 O236 1.287 . S
C230 O237 1.255 . S
O231 Fe220 1.976 . S
O231 C238 1.287 . S
O232 Fe221 1.996 . S
O232 C238 1.255 . S
O233 Fe223 1.976 . S
O233 C228 1.287 . S
O234 Fe220 1.996 . S
O234 C228 1.255 . S
C235 O239 1.295 . S
C235 O240 1.235 . S
O236 Fe221 1.976 . S
O236 C230 1.287 . S
O237 Fe223 1.996 . S
O237 C230 1.255 . S
C238 O231 1.287 . S
C238 O232 1.255 . S
O239 Fe221 2.002 . S
O239 C235 1.295 . S
O240 Fe223 1.997 . S
O240 C235 1.235 . S
C241 O224 1.295 . S
C241 O225 1.235 . S
Fe242 O244 1.918 . S
Fe242 O247 1.997 . S
Fe242 O248 2.002 1_455 S
Fe242 O253 1.976 1_455 S
Fe242 O256 1.996 . S
Fe243 O244 1.918 . S
Fe243 O251 1.997 . S
Fe243 O254 1.996 1_455 S
Fe243 O258 1.976 . S
Fe243 O261 2.002 . S
O244 Fe242 1.918 . S
O244 Fe243 1.918 . S
O244 Fe245 1.918 . S
Fe245 O244 1.918 . S
Fe245 O246 2.002 . S
Fe245 O255 1.976 . S
Fe245 O259 1.996 . S
Fe245 O262 1.997 . S
O246 Fe245 2.002 . S
O246 C263 1.295 . S
O247 Fe242 1.997 . S
O247 C263 1.235 . S
O248 Fe242 2.002 1_655 S
O248 C249 1.295 . S
C249 O248 1.295 . S
C249 O251 1.235 1_655 S
C250 O255 1.287 . S
C250 O256 1.255 . S
O251 Fe243 1.997 . S
O251 C249 1.235 1_455 S
C252 O258 1.287 . S
C252 O259 1.255 . S
O253 Fe242 1.976 1_655 S
O253 C260 1.287 . S
O254 Fe243 1.996 1_655 S
O254 C260 1.255 . S
O255 Fe245 1.976 . S
O255 C250 1.287 . S
O256 Fe242 1.996 . S
O256 C250 1.255 . S
C257 O261 1.295 . S
C257 O262 1.235 . S
O258 Fe243 1.976 . S
O258 C252 1.287 . S
O259 Fe245 1.996 . S
O259 C252 1.255 . S
C260 O253 1.287 . S
C260 O254 1.255 . S
O261 Fe243 2.002 . S
O261 C257 1.295 . S
O262 Fe245 1.997 . S
O262 C257 1.235 . S
C263 O246 1.295 . S
C263 O247 1.235 . S
Fe264 O266 1.918 . S
Fe264 O269 1.997 . S
Fe264 O270 2.002 . S
Fe264 O275 1.976 . S
Fe264 O278 1.996 . S
Fe265 O266 1.918 . S
Fe265 O273 1.997 . S
Fe265 O276 1.996 . S
Fe265 O280 1.976 . S
Fe265 O283 2.002 . S
O266 Fe264 1.918 . S
O266 Fe265 1.918 . S
O266 Fe267 1.918 . S
Fe267 O266 1.918 . S
Fe267 O268 2.002 . S
Fe267 O277 1.976 . S
Fe267 O281 1.996 . S
Fe267 O284 1.997 . S
O268 Fe267 2.002 . S
O268 C285 1.295 . S
O269 Fe264 1.997 . S
O269 C285 1.235 . S
O270 Fe264 2.002 . S
O270 C271 1.295 . S
C271 O270 1.295 . S
C271 O273 1.235 . S
C272 O277 1.287 . S
C272 O278 1.255 . S
O273 Fe265 1.997 . S
O273 C271 1.235 . S
C274 O280 1.287 . S
C274 O281 1.255 . S
O275 Fe264 1.976 . S
O275 C282 1.287 . S
O276 Fe265 1.996 . S
O276 C282 1.255 . S
O277 Fe267 1.976 . S
O277 C272 1.287 . S
O278 Fe264 1.996 . S
O278 C272 1.255 . S
C279 O283 1.295 . S
C279 O284 1.235 . S
O280 Fe265 1.976 . S
O280 C274 1.287 . S
O281 Fe267 1.996 . S
O281 C274 1.255 . S
C282 O275 1.287 . S
C282 O276 1.255 . S
O283 Fe265 2.002 . S
O283 C279 1.295 . S
O284 Fe267 1.997 . S
O284 C279 1.235 . S
C285 O268 1.295 . S
C285 O269 1.235 . S
Fe286 O288 1.918 . S
Fe286 O291 1.997 . S
Fe286 O292 2.002 . S
Fe286 O297 1.976 . S
Fe286 O300 1.996 . S
Fe287 O288 1.918 . S
Fe287 O295 1.997 . S
Fe287 O298 1.996 . S
Fe287 O302 1.976 . S
Fe287 O305 2.002 . S
O288 Fe286 1.918 . S
O288 Fe287 1.918 . S
O288 Fe289 1.918 . S
Fe289 O288 1.918 . S
Fe289 O290 2.002 . S
Fe289 O299 1.976 . S
Fe289 O303 1.996 . S
Fe289 O306 1.997 . S
O290 Fe289 2.002 . S
O290 C307 1.295 . S
O291 Fe286 1.997 . S
O291 C307 1.235 . S
O292 Fe286 2.002 . S
O292 C293 1.295 . S
C293 O292 1.295 . S
C293 O295 1.235 . S
C294 O299 1.287 . S
C294 O300 1.255 . S
O295 Fe287 1.997 . S
O295 C293 1.235 . S
C296 O302 1.287 . S
C296 O303 1.255 . S
O297 Fe286 1.976 . S
O297 C304 1.287 . S
O298 Fe287 1.996 . S
O298 C304 1.255 . S
O299 Fe289 1.976 . S
O299 C294 1.287 . S
O300 Fe286 1.996 . S
O300 C294 1.255 . S
C301 O305 1.295 . S
C301 O306 1.235 . S
O302 Fe287 1.976 . S
O302 C296 1.287 . S
O303 Fe289 1.996 . S
O303 C296 1.255 . S
C304 O297 1.287 . S
C304 O298 1.255 . S
O305 Fe287 2.002 . S
O305 C301 1.295 . S
O306 Fe289 1.997 . S
O306 C301 1.235 . S
C307 O290 1.295 . S
C307 O291 1.235 . S
Fe308 O310 1.918 . S
Fe308 O313 1.997 1_565 S
Fe308 O314 2.002 . S
Fe308 O319 1.976 . S
Fe308 O322 1.996 1_565 S
Fe309 O310 1.918 . S
Fe309 O317 1.997 . S
Fe309 O320 1.996 . S
Fe309 O324 1.976 . S
Fe309 O327 2.002 . S
O310 Fe308 1.918 . S
O310 Fe309 1.918 . S
O310 Fe311 1.918 . S
Fe311 O310 1.918 . S
Fe311 O312 2.002 . S
Fe311 O321 1.976 1_565 S
Fe311 O325 1.996 . S
Fe311 O328 1.997 . S
O312 Fe311 2.002 . S
O312 C329 1.295 1_565 S
O313 Fe308 1.997 1_545 S
O313 C329 1.235 . S
O314 Fe308 2.002 . S
O314 C315 1.295 . S
C315 O314 1.295 . S
C315 O317 1.235 . S
C316 O321 1.287 . S
C316 O322 1.255 . S
O317 Fe309 1.997 . S
O317 C315 1.235 . S
C318 O324 1.287 . S
C318 O325 1.255 . S
O319 Fe308 1.976 . S
O319 C326 1.287 . S
O320 Fe309 1.996 . S
O320 C326 1.255 . S
O321 Fe311 1.976 1_545 S
O321 C316 1.287 . S
O322 Fe308 1.996 1_545 S
O322 C316 1.255 . S
C323 O327 1.295 . S
C323 O328 1.235 . S
O324 Fe309 1.976 . S
O324 C318 1.287 . S
O325 Fe311 1.996 . S
O325 C318 1.255 . S
C326 O319 1.287 . S
C326 O320 1.255 . S
O327 Fe309 2.002 . S
O327 C323 1.295 . S
O328 Fe311 1.997 . S
O328 C323 1.235 . S
C329 O312 1.295 1_545 S
C329 O313 1.235 . S
Fe330 O332 1.918 . S
Fe330 O335 1.997 . S
Fe330 O336 2.002 . S
Fe330 O341 1.976 . S
Fe330 O344 1.996 . S
Fe331 O332 1.918 . S
Fe331 O339 1.997 . S
Fe331 O342 1.996 . S
Fe331 O346 1.976 1_545 S
Fe331 O349 2.002 . S
O332 Fe330 1.918 . S
O332 Fe331 1.918 . S
O332 Fe333 1.918 . S
Fe333 O332 1.918 . S
Fe333 O334 2.002 . S
Fe333 O343 1.976 . S
Fe333 O347 1.996 1_545 S
Fe333 O350 1.997 1_545 S
O334 Fe333 2.002 . S
O334 C351 1.295 . S
O335 Fe330 1.997 . S
O335 C351 1.235 . S
O336 Fe330 2.002 . S
O336 C337 1.295 . S
C337 O336 1.295 . S
C337 O339 1.235 . S
C338 O343 1.287 . S
C338 O344 1.255 . S
O339 Fe331 1.997 . S
O339 C337 1.235 . S
C340 O346 1.287 . S
C340 O347 1.255 . S
O341 Fe330 1.976 . S
O341 C348 1.287 . S
O342 Fe331 1.996 . S
O342 C348 1.255 . S
O343 Fe333 1.976 . S
O343 C338 1.287 . S
O344 Fe330 1.996 . S
O344 C338 1.255 . S
C345 O349 1.295 1_565 S
C345 O350 1.235 . S
O346 Fe331 1.976 1_565 S
O346 C340 1.287 . S
O347 Fe333 1.996 1_565 S
O347 C340 1.255 . S
C348 O341 1.287 . S
C348 O342 1.255 . S
O349 Fe331 2.002 . S
O349 C345 1.295 1_545 S
O350 Fe333 1.997 1_565 S
O350 C345 1.235 . S
C351 O334 1.295 . S
C351 O335 1.235 . S
Fe352 O354 1.918 . S
Fe352 O357 1.997 . S
Fe352 O358 2.002 . S
Fe352 O363 1.976 . S
Fe352 O366 1.996 . S
Fe353 O354 1.918 . S
Fe353 O361 1.997 . S
Fe353 O364 1.996 . S
Fe353 O368 1.976 . S
Fe353 O371 2.002 . S
O354 Fe352 1.918 . S
O354 Fe353 1.918 . S
O354 Fe355 1.918 . S
Fe355 O354 1.918 . S
Fe355 O356 2.002 . S
Fe355 O365 1.976 . S
Fe355 O369 1.996 . S
Fe355 O372 1.997 . S
O356 Fe355 2.002 . S
O356 C373 1.295 . S
O357 Fe352 1.997 . S
O357 C373 1.235 . S
O358 Fe352 2.002 . S
O358 C359 1.295 . S
C359 O358 1.295 . S
C359 O361 1.235 . S
C360 O365 1.287 . S
C360 O366 1.255 . S
O361 Fe353 1.997 . S
O361 C359 1.235 . S
C362 O368 1.287 . S
C362 O369 1.255 . S
O363 Fe352 1.976 . S
O363 C370 1.287 . S
O364 Fe353 1.996 . S
O364 C370 1.255 . S
O365 Fe355 1.976 . S
O365 C360 1.287 . S
O366 Fe352 1.996 . S
O366 C360 1.255 . S
C367 O371 1.295 . S
C367 O372 1.235 . S
O368 Fe353 1.976 . S
O368 C362 1.287 . S
O369 Fe355 1.996 . S
O369 C362 1.255 . S
C370 O363 1.287 . S
C370 O364 1.255 . S
O371 Fe353 2.002 . S
O371 C367 1.295 . S
O372 Fe355 1.997 . S
O372 C367 1.235 . S
C373 O356 1.295 . S
C373 O357 1.235 . S
Fe374 O376 1.918 . S
Fe374 O379 1.997 . S
Fe374 O380 2.002 . S
Fe374 O385 1.976 . S
Fe374 O388 1.996 . S
Fe375 O376 1.918 . S
Fe375 O383 1.997 . S
Fe375 O386 1.996 . S
Fe375 O390 1.976 1_554 S
Fe375 O393 2.002 . S
O376 Fe374 1.918 . S
O376 Fe375 1.918 . S
O376 Fe377 1.918 . S
Fe377 O376 1.918 . S
Fe377 O378 2.002 . S
Fe377 O387 1.976 . S
Fe377 O391 1.996 1_554 S
Fe377 O394 1.997 1_554 S
O378 Fe377 2.002 . S
O378 C395 1.295 . S
O379 Fe374 1.997 . S
O379 C395 1.235 . S
O380 Fe374 2.002 . S
O380 C381 1.295 . S
C381 O380 1.295 . S
C381 O383 1.235 . S
C382 O387 1.287 . S
C382 O388 1.255 . S
O383 Fe375 1.997 . S
O383 C381 1.235 . S
C384 O390 1.287 . S
C384 O391 1.255 . S
O385 Fe374 1.976 . S
O385 C392 1.287 . S
O386 Fe375 1.996 . S
O386 C392 1.255 . S
O387 Fe377 1.976 . S
O387 C382 1.287 . S
O388 Fe374 1.996 . S
O388 C382 1.255 . S
C389 O393 1.295 1_556 S
C389 O394 1.235 . S
O390 Fe375 1.976 1_556 S
O390 C384 1.287 . S
O391 Fe377 1.996 1_556 S
O391 C384 1.255 . S
C392 O385 1.287 . S
C392 O386 1.255 . S
O393 Fe375 2.002 . S
O393 C389 1.295 1_554 S
O394 Fe377 1.997 1_556 S
O394 C389 1.235 . S
C395 O378 1.295 . S
C395 O379 1.235 . S
Fe396 O398 1.918 . S
Fe396 O401 1.997 . S
Fe396 O402 2.002 . S
Fe396 O407 1.976 . S
Fe396 O410 1.996 . S
Fe397 O398 1.918 . S
Fe397 O405 1.997 . S
Fe397 O408 1.996 . S
Fe397 O412 1.976 . S
Fe397 O415 2.002 . S
O398 Fe396 1.918 . S
O398 Fe397 1.918 . S
O398 Fe399 1.918 . S
Fe399 O398 1.918 . S
Fe399 O400 2.002 . S
Fe399 O409 1.976 . S
Fe399 O413 1.996 . S
Fe399 O416 1.997 . S
O400 Fe399 2.002 . S
O400 C417 1.295 . S
O401 Fe396 1.997 . S
O401 C417 1.235 . S
O402 Fe396 2.002 . S
O402 C403 1.295 . S
C403 O402 1.295 . S
C403 O405 1.235 . S
C404 O409 1.287 . S
C404 O410 1.255 . S
O405 Fe397 1.997 . S
O405 C403 1.235 . S
C406 O412 1.287 . S
C406 O413 1.255 . S
O407 Fe396 1.976 . S
O407 C414 1.287 . S
O408 Fe397 1.996 . S
O408 C414 1.255 . S
O409 Fe399 1.976 . S
O409 C404 1.287 . S
O410 Fe396 1.996 . S
O410 C404 1.255 . S
C411 O415 1.295 . S
C411 O416 1.235 . S
O412 Fe397 1.976 . S
O412 C406 1.287 . S
O413 Fe399 1.996 . S
O413 C406 1.255 . S
C414 O407 1.287 . S
C414 O408 1.255 . S
O415 Fe397 2.002 . S
O415 C411 1.295 . S
O416 Fe399 1.997 . S
O416 C411 1.235 . S
C417 O400 1.295 . S
C417 O401 1.235 . S
Fe418 O420 1.918 . S
Fe418 O423 1.997 . S
Fe418 O424 2.002 . S
Fe418 O429 1.976 . S
Fe418 O432 1.996 . S
Fe419 O420 1.918 . S
Fe419 O427 1.997 . S
Fe419 O430 1.996 . S
Fe419 O434 1.976 1_556 S
Fe419 O437 2.002 . S
O420 Fe418 1.918 . S
O420 Fe419 1.918 . S
O420 Fe421 1.918 . S
Fe421 O420 1.918 . S
Fe421 O422 2.002 . S
Fe421 O431 1.976 . S
Fe421 O435 1.996 1_556 S
Fe421 O438 1.997 1_556 S
O422 Fe421 2.002 . S
O422 C439 1.295 . S
O423 Fe418 1.997 . S
O423 C439 1.235 . S
O424 Fe418 2.002 . S
O424 C425 1.295 . S
C425 O424 1.295 . S
C425 O427 1.235 . S
C426 O431 1.287 . S
C426 O432 1.255 . S
O427 Fe419 1.997 . S
O427 C425 1.235 . S
C428 O434 1.287 . S
C428 O435 1.255 . S
O429 Fe418 1.976 . S
O429 C436 1.287 . S
O430 Fe419 1.996 . S
O430 C436 1.255 . S
O431 Fe421 1.976 . S
O431 C426 1.287 . S
O432 Fe418 1.996 . S
O432 C426 1.255 . S
C433 O437 1.295 1_554 S
C433 O438 1.235 . S
O434 Fe419 1.976 1_554 S
O434 C428 1.287 . S
O435 Fe421 1.996 1_554 S
O435 C428 1.255 . S
C436 O429 1.287 . S
C436 O430 1.255 . S
O437 Fe419 2.002 . S
O437 C433 1.295 1_556 S
O438 Fe421 1.997 1_554 S
O438 C433 1.235 . S
C439 O422 1.295 . S
C439 O423 1.235 . S
Fe440 O442 1.918 . S
Fe440 O445 1.997 . S
Fe440 O446 2.002 . S
Fe440 O451 1.976 . S
Fe440 O454 1.996 . S
Fe441 O442 1.918 . S
Fe441 O449 1.997 . S
Fe441 O452 1.996 . S
Fe441 O456 1.976 . S
Fe441 O459 2.002 . S
O442 Fe440 1.918 . S
O442 Fe441 1.918 . S
O442 Fe443 1.918 . S
Fe443 O442 1.918 . S
Fe443 O444 2.002 . S
Fe443 O453 1.976 . S
Fe443 O457 1.996 . S
Fe443 O460 1.997 . S
O444 Fe443 2.002 . S
O444 C461 1.295 . S
O445 Fe440 1.997 . S
O445 C461 1.235 . S
O446 Fe440 2.002 . S
O446 C447 1.295 . S
C447 O446 1.295 . S
C447 O449 1.235 . S
C448 O453 1.287 . S
C448 O454 1.255 . S
O449 Fe441 1.997 . S
O449 C447 1.235 . S
C450 O456 1.287 . S
C450 O457 1.255 . S
O451 Fe440 1.976 . S
O451 C458 1.287 . S
O452 Fe441 1.996 . S
O452 C458 1.255 . S
O453 Fe443 1.976 . S
O453 C448 1.287 . S
O454 Fe440 1.996 . S
O454 C448 1.255 . S
C455 O459 1.295 . S
C455 O460 1.235 . S
O456 Fe441 1.976 . S
O456 C450 1.287 . S
O457 Fe443 1.996 . S
O457 C450 1.255 . S
C458 O451 1.287 . S
C458 O452 1.255 . S
O459 Fe441 2.002 . S
O459 C455 1.295 . S
O460 Fe443 1.997 . S
O460 C455 1.235 . S
C461 O444 1.295 . S
C461 O445 1.235 . S
Fe462 O464 1.918 . S
Fe462 O467 1.997 1_455 S
Fe462 O468 2.002 . S
Fe462 O473 1.976 . S
Fe462 O476 1.996 1_455 S
Fe463 O464 1.918 . S
Fe463 O471 1.997 . S
Fe463 O474 1.996 . S
Fe463 O478 1.976 . S
Fe463 O481 2.002 . S
O464 Fe462 1.918 . S
O464 Fe463 1.918 . S
O464 Fe465 1.918 . S
Fe465 O464 1.918 . S
Fe465 O466 2.002 . S
Fe465 O475 1.976 1_455 S
Fe465 O479 1.996 . S
Fe465 O482 1.997 . S
O466 Fe465 2.002 . S
O466 C483 1.295 1_455 S
O467 Fe462 1.997 1_655 S
O467 C483 1.235 . S
O468 Fe462 2.002 . S
O468 C469 1.295 . S
C469 O468 1.295 . S
C469 O471 1.235 . S
C470 O475 1.287 . S
C470 O476 1.255 . S
O471 Fe463 1.997 . S
O471 C469 1.235 . S
C472 O478 1.287 . S
C472 O479 1.255 . S
O473 Fe462 1.976 . S
O473 C480 1.287 . S
O474 Fe463 1.996 . S
O474 C480 1.255 . S
O475 Fe465 1.976 1_655 S
O475 C470 1.287 . S
O476 Fe462 1.996 1_655 S
O476 C470 1.255 . S
C477 O481 1.295 . S
C477 O482 1.235 . S
O478 Fe463 1.976 . S
O478 C472 1.287 . S
O479 Fe465 1.996 . S
O479 C472 1.255 . S
C480 O473 1.287 . S
C480 O474 1.255 . S
O481 Fe463 2.002 . S
O481 C477 1.295 . S
O482 Fe465 1.997 . S
O482 C477 1.235 . S
C483 O466 1.295 1_655 S
C483 O467 1.235 . S
Fe484 O486 1.918 . S
Fe484 O489 1.997 . S
Fe484 O490 2.002 . S
Fe484 O495 1.976 . S
Fe484 O498 1.996 . S
Fe485 O486 1.918 . S
Fe485 O493 1.997 . S
Fe485 O496 1.996 . S
Fe485 O500 1.976 . S
Fe485 O503 2.002 . S
O486 Fe484 1.918 . S
O486 Fe485 1.918 . S
O486 Fe487 1.918 . S
Fe487 O486 1.918 . S
Fe487 O488 2.002 . S
Fe487 O497 1.976 . S
Fe487 O501 1.996 . S
Fe487 O504 1.997 . S
O488 Fe487 2.002 . S
O488 C505 1.295 . S
O489 Fe484 1.997 . S
O489 C505 1.235 . S
O490 Fe484 2.002 . S
O490 C491 1.295 . S
C491 O490 1.295 . S
C491 O493 1.235 . S
C492 O497 1.287 . S
C492 O498 1.255 . S
O493 Fe485 1.997 . S
O493 C491 1.235 . S
C494 O500 1.287 . S
C494 O501 1.255 . S
O495 Fe484 1.976 . S
O495 C502 1.287 . S
O496 Fe485 1.996 . S
O496 C502 1.255 . S
O497 Fe487 1.976 . S
O497 C492 1.287 . S
O498 Fe484 1.996 . S
O498 C492 1.255 . S
C499 O503 1.295 . S
C499 O504 1.235 . S
O500 Fe485 1.976 . S
O500 C494 1.287 . S
O501 Fe487 1.996 . S
O501 C494 1.255 . S
C502 O495 1.287 . S
C502 O496 1.255 . S
O503 Fe485 2.002 . S
O503 C499 1.295 . S
O504 Fe487 1.997 . S
O504 C499 1.235 . S
C505 O488 1.295 . S
C505 O489 1.235 . S
Fe506 O508 1.918 . S
Fe506 O511 1.997 1_655 S
Fe506 O512 2.002 . S
Fe506 O517 1.976 . S
Fe506 O520 1.996 1_655 S
Fe507 O508 1.918 . S
Fe507 O515 1.997 . S
Fe507 O518 1.996 . S
Fe507 O522 1.976 . S
Fe507 O525 2.002 . S
O508 Fe506 1.918 . S
O508 Fe507 1.918 . S
O508 Fe509 1.918 . S
Fe509 O508 1.918 . S
Fe509 O510 2.002 . S
Fe509 O519 1.976 1_655 S
Fe509 O523 1.996 . S
Fe509 O526 1.997 . S
O510 Fe509 2.002 . S
O510 C527 1.295 1_655 S
O511 Fe506 1.997 1_455 S
O511 C527 1.235 . S
O512 Fe506 2.002 . S
O512 C513 1.295 . S
C513 O512 1.295 . S
C513 O515 1.235 . S
C514 O519 1.287 . S
C514 O520 1.255 . S
O515 Fe507 1.997 . S
O515 C513 1.235 . S
C516 O522 1.287 . S
C516 O523 1.255 . S
O517 Fe506 1.976 . S
O517 C524 1.287 . S
O518 Fe507 1.996 . S
O518 C524 1.255 . S
O519 Fe509 1.976 1_455 S
O519 C514 1.287 . S
O520 Fe506 1.996 1_455 S
O520 C514 1.255 . S
C521 O525 1.295 . S
C521 O526 1.235 . S
O522 Fe507 1.976 . S
O522 C516 1.287 . S
O523 Fe509 1.996 . S
O523 C516 1.255 . S
C524 O517 1.287 . S
C524 O518 1.255 . S
O525 Fe507 2.002 . S
O525 C521 1.295 . S
O526 Fe509 1.997 . S
O526 C521 1.235 . S
C527 O510 1.295 1_455 S
C527 O511 1.235 . S
C21 C406 1.657 . S
C436 C43 1.657 . S
C370 C51 1.657 . S
C87 C392 1.657 . S
C502 C95 1.657 . S
C472 C125 1.657 . S
C516 C139 1.657 . S
C448 C161 1.657 . S
C183 C296 1.657 . S
C205 C348 1.657 . S
C235 C318 1.657 . S
C282 C249 1.657 . S
C142 C279 1.622 . S
C307 C164 1.622 . S
C98 C329 1.622 . S
C118 C345 1.622 . S
C367 C228 1.622 . S
C208 C389 1.622 . S
C252 C417 1.622 . S
C433 C186 1.622 . S
C447 C40 1.622 . S
C483 C84 1.622 . S
C499 C54 1.622 . S
C18 C527 1.622 . S
C428 C10 1.243 . S
C404 C32 1.243 . S
C384 C52 1.243 . S
C362 C76 1.243 . S
C96 C514 1.243 . S
C128 C458 1.243 . S
C494 C140 1.243 . S
C470 C162 1.243 . S
C316 C184 1.243 . S
C206 C274 1.243 . S
C294 C238 1.243 . S
C340 C250 1.243 . S
C272 C172 1.299 . S
C150 C304 1.299 . S
C326 C120 1.299 . S
C338 C106 1.299 . S
C260 C360 1.299 . S
C194 C382 1.299 . S
C414 C230 1.299 . S
C426 C216 1.299 . S
C62 C450 1.299 . S
C8 C480 1.299 . S
C492 C30 1.299 . S
C524 C74 1.299 . S
C7 C109 1.071 . S
C117 C29 1.071 . S
C153 C59 1.071 . S
C175 C73 1.071 . S
C197 C103 1.071 . S
C131 C263 1.071 . S
C147 C219 1.071 . S
C227 C169 1.071 . S
C191 C15 1.071 . S
C213 C65 1.071 . S
C81 C241 1.071 . S
C37 C257 1.071 . S
C271 C373 1.077 . S
C395 C301 1.077 . S
C403 C323 1.077 . S
C439 C337 1.077 . S
C359 C455 1.077 . S
C513 C381 1.077 . S
C411 C469 1.077 . S
C425 C505 1.077 . S
C285 C461 1.077 . S
C315 C477 1.077 . S
C351 C491 1.077 . S
C293 C521 1.077 . S
