# Generated by pormake.
# Topology lcy-a, (4)-cn, num edge types: 1
# Building blocks:
#     Node 0, Type 0, BuildingBlock: TATPOV_clean_sbu_0, # of connection points: 4
#     Node 1, Type 0, BuildingBlock: TATPOV_clean_sbu_0, # of connection points: 4
#     Node 2, Type 0, BuildingBlock: TATPOV_clean_sbu_0, # of connection points: 4
#     Node 3, Type 0, BuildingBlock: TATPOV_clean_sbu_0, # of connection points: 4
#     Node 4, Type 0, BuildingBlock: TATPOV_clean_sbu_0, # of connection points: 4
#     Node 5, Type 0, BuildingBlock: TATPOV_clean_sbu_0, # of connection points: 4
#     Node 6, Type 0, BuildingBlock: TATPOV_clean_sbu_0, # of connection points: 4
#     Node 7, Type 0, BuildingBlock: TATPOV_clean_sbu_0, # of connection points: 4
#     Node 8, Type 0, BuildingBlock: TATPOV_clean_sbu_0, # of connection points: 4
#     Node 9, Type 0, BuildingBlock: TATPOV_clean_sbu_0, # of connection points: 4
#     Node 10, Type 0, BuildingBlock: TATPOV_clean_sbu_0, # of connection points: 4
#     Node 11, Type 0, BuildingBlock: TATPOV_clean_sbu_0, # of connection points: 4
#     Node 12, Type 0, BuildingBlock: TATPOV_clean_sbu_0, # of connection points: 4
#     Node 13, Type 0, BuildingBlock: TATPOV_clean_sbu_0, # of connection points: 4
#     Node 14, Type 0, BuildingBlock: TATPOV_clean_sbu_0, # of connection points: 4
#     Node 15, Type 0, BuildingBlock: TATPOV_clean_sbu_0, # of connection points: 4
#     Node 16, Type 0, BuildingBlock: TATPOV_clean_sbu_0, # of connection points: 4
#     Node 17, Type 0, BuildingBlock: TATPOV_clean_sbu_0, # of connection points: 4
#     Node 18, Type 0, BuildingBlock: TATPOV_clean_sbu_0, # of connection points: 4
#     Node 19, Type 0, BuildingBlock: TATPOV_clean_sbu_0, # of connection points: 4
#     Node 20, Type 0, BuildingBlock: TATPOV_clean_sbu_0, # of connection points: 4
#     Node 21, Type 0, BuildingBlock: TATPOV_clean_sbu_0, # of connection points: 4
#     Node 22, Type 0, BuildingBlock: TATPOV_clean_sbu_0, # of connection points: 4
#     Node 23, Type 0, BuildingBlock: TATPOV_clean_sbu_0, # of connection points: 4
#     Edge 24, Type (0, 0), BuildingBlock: EZIPEK_clean_linker_0, # of connection points: 2
#     Edge 25, Type (0, 0), BuildingBlock: EZIPEK_clean_linker_0, # of connection points: 2
#     Edge 26, Type (0, 0), BuildingBlock: EZIPEK_clean_linker_0, # of connection points: 2
#     Edge 27, Type (0, 0), BuildingBlock: EZIPEK_clean_linker_0, # of connection points: 2
#     Edge 28, Type (0, 0), BuildingBlock: EZIPEK_clean_linker_0, # of connection points: 2
#     Edge 29, Type (0, 0), BuildingBlock: EZIPEK_clean_linker_0, # of connection points: 2
#     Edge 30, Type (0, 0), BuildingBlock: EZIPEK_clean_linker_0, # of connection points: 2
#     Edge 31, Type (0, 0), BuildingBlock: EZIPEK_clean_linker_0, # of connection points: 2
#     Edge 32, Type (0, 0), BuildingBlock: EZIPEK_clean_linker_0, # of connection points: 2
#     Edge 33, Type (0, 0), BuildingBlock: EZIPEK_clean_linker_0, # of connection points: 2
#     Edge 34, Type (0, 0), BuildingBlock: EZIPEK_clean_linker_0, # of connection points: 2
#     Edge 35, Type (0, 0), BuildingBlock: EZIPEK_clean_linker_0, # of connection points: 2
#     Edge 36, Type (0, 0), BuildingBlock: EZIPEK_clean_linker_0, # of connection points: 2
#     Edge 37, Type (0, 0), BuildingBlock: EZIPEK_clean_linker_0, # of connection points: 2
#     Edge 38, Type (0, 0), BuildingBlock: EZIPEK_clean_linker_0, # of connection points: 2
#     Edge 39, Type (0, 0), BuildingBlock: EZIPEK_clean_linker_0, # of connection points: 2
#     Edge 40, Type (0, 0), BuildingBlock: EZIPEK_clean_linker_0, # of connection points: 2
#     Edge 41, Type (0, 0), BuildingBlock: EZIPEK_clean_linker_0, # of connection points: 2
#     Edge 42, Type (0, 0), BuildingBlock: EZIPEK_clean_linker_0, # of connection points: 2
#     Edge 43, Type (0, 0), BuildingBlock: EZIPEK_clean_linker_0, # of connection points: 2
#     Edge 44, Type (0, 0), BuildingBlock: EZIPEK_clean_linker_0, # of connection points: 2
#     Edge 45, Type (0, 0), BuildingBlock: EZIPEK_clean_linker_0, # of connection points: 2
#     Edge 46, Type (0, 0), BuildingBlock: EZIPEK_clean_linker_0, # of connection points: 2
#     Edge 47, Type (0, 0), BuildingBlock: EZIPEK_clean_linker_0, # of connection points: 2
#     Edge 48, Type (0, 0), BuildingBlock: EZIPEK_clean_linker_0, # of connection points: 2
#     Edge 49, Type (0, 0), BuildingBlock: EZIPEK_clean_linker_0, # of connection points: 2
#     Edge 50, Type (0, 0), BuildingBlock: EZIPEK_clean_linker_0, # of connection points: 2
#     Edge 51, Type (0, 0), BuildingBlock: EZIPEK_clean_linker_0, # of connection points: 2
#     Edge 52, Type (0, 0), BuildingBlock: EZIPEK_clean_linker_0, # of connection points: 2
#     Edge 53, Type (0, 0), BuildingBlock: EZIPEK_clean_linker_0, # of connection points: 2
#     Edge 54, Type (0, 0), BuildingBlock: EZIPEK_clean_linker_0, # of connection points: 2
#     Edge 55, Type (0, 0), BuildingBlock: EZIPEK_clean_linker_0, # of connection points: 2
#     Edge 56, Type (0, 0), BuildingBlock: EZIPEK_clean_linker_0, # of connection points: 2
#     Edge 57, Type (0, 0), BuildingBlock: EZIPEK_clean_linker_0, # of connection points: 2
#     Edge 58, Type (0, 0), BuildingBlock: EZIPEK_clean_linker_0, # of connection points: 2
#     Edge 59, Type (0, 0), BuildingBlock: EZIPEK_clean_linker_0, # of connection points: 2
#     Edge 60, Type (0, 0), BuildingBlock: EZIPEK_clean_linker_0, # of connection points: 2
#     Edge 61, Type (0, 0), BuildingBlock: EZIPEK_clean_linker_0, # of connection points: 2
#     Edge 62, Type (0, 0), BuildingBlock: EZIPEK_clean_linker_0, # of connection points: 2
#     Edge 63, Type (0, 0), BuildingBlock: EZIPEK_clean_linker_0, # of connection points: 2
#     Edge 64, Type (0, 0), BuildingBlock: EZIPEK_clean_linker_0, # of connection points: 2
#     Edge 65, Type (0, 0), BuildingBlock: EZIPEK_clean_linker_0, # of connection points: 2
#     Edge 66, Type (0, 0), BuildingBlock: EZIPEK_clean_linker_0, # of connection points: 2
#     Edge 67, Type (0, 0), BuildingBlock: EZIPEK_clean_linker_0, # of connection points: 2
#     Edge 68, Type (0, 0), BuildingBlock: EZIPEK_clean_linker_0, # of connection points: 2
#     Edge 69, Type (0, 0), BuildingBlock: EZIPEK_clean_linker_0, # of connection points: 2
#     Edge 70, Type (0, 0), BuildingBlock: EZIPEK_clean_linker_0, # of connection points: 2
#     Edge 71, Type (0, 0), BuildingBlock: EZIPEK_clean_linker_0, # of connection points: 2
# Relax obj value: 0.362
# Max RMSD: 0.194
# Mean RMSD: 0.194
data_MOF--net-lcy-a--node1-TATPOV_clean_sbu_0--edge1-EZIPEK_clean_linker_0
_symmetry_space_group_name_H-M    P1
_symmetry_Int_Tables_number       1
_symmetry_cell_setting            triclinic
loop_
_symmetry_equiv_pos_as_xyz
'x, y, z'
_cell_length_a     41.257839
_cell_length_b     41.366306
_cell_length_c     41.320414
_cell_angle_alpha  90.101469
_cell_angle_beta   90.031511
_cell_angle_gamma 89.889007
loop_
_atom_site_label
_atom_site_type_symbol
_atom_site_fract_x
_atom_site_fract_y
_atom_site_fract_z
_atom_type_partial_charge
Zn0 Zn 0.30592 0.27562 0.44572 0.0
Zn1 Zn 0.24564 0.26013 0.42873 0.0
O2 O 0.27156 0.21762 0.4315 0.0
O3 O 0.32055 0.22899 0.44818 0.0
O4 O 0.20083 0.2433 0.42152 0.0
O5 O 0.28838 0.29951 0.48477 0.0
O6 O 0.23889 0.28912 0.46835 0.0
C7 C 0.29997 0.20818 0.43914 0.0
C8 C 0.28515 0.29917 0.38168 0.0
O9 O 0.25817 0.28586 0.38852 0.0
O10 O 0.30854 0.29832 0.40165 0.0
C11 C 0.1953 0.22162 0.40047 0.0
O12 O 0.21936 0.21236 0.38186 0.0
C13 C 0.25802 0.30267 0.48824 0.0
Zn14 Zn 0.98706 0.06394 0.6596 0.0
Zn15 Zn 0.98293 0.0015 0.66633 0.0
O16 O 0.03047 0.012 0.65323 0.0
O17 O 0.03576 0.06456 0.65462 0.0
O18 O 0.98629 0.95664 0.68478 0.0
O19 O 0.96369 0.07561 0.70068 0.0
O20 O 0.95691 0.02339 0.70257 0.0
C21 C 0.04827 0.03696 0.65002 0.0
C22 C 0.94748 0.02806 0.61098 0.0
O23 O 0.95442 0.00224 0.62632 0.0
O24 O 0.95852 0.05524 0.62005 0.0
C25 C 0.00623 0.93576 0.67428 0.0
O26 O 0.02259 0.94158 0.6477 0.0
C27 C 0.95086 0.05127 0.714 0.0
Zn28 Zn 0.25009 0.69016 0.90386 0.0
Zn29 Zn 0.30194 0.71881 0.92563 0.0
O30 O 0.27004 0.75648 0.91454 0.0
O31 O 0.22621 0.73139 0.89741 0.0
O32 O 0.33908 0.74414 0.94476 0.0
O33 O 0.24444 0.66474 0.94406 0.0
O34 O 0.28845 0.68798 0.96347 0.0
C35 C 0.24111 0.75728 0.90373 0.0
C36 C 0.30582 0.67691 0.86484 0.0
O37 O 0.32065 0.6949 0.88513 0.0
O38 O 0.27583 0.6715 0.86776 0.0
C39 C 0.35164 0.76722 0.92887 0.0
O40 O 0.34034 0.77272 0.89965 0.0
C41 C 0.26494 0.66818 0.96649 0.0
Zn42 Zn 0.63238 0.03807 0.12965 0.0
Zn43 Zn 0.58563 0.04412 0.1644 0.0
O44 O 0.56263 0.00608 0.14738 0.0
O45 O 0.60095 0.00286 0.11018 0.0
O46 O 0.55597 0.06596 0.19687 0.0
O47 O 0.66753 0.02401 0.15928 0.0
O48 O 0.62326 0.02024 0.18841 0.0
C49 C 0.57417 0.99299 0.122 0.0
C50 C 0.60491 0.08473 0.10245 0.0
O51 O 0.58503 0.07152 0.12198 0.0
O52 O 0.6348 0.08136 0.10816 0.0
C53 C 0.52946 0.07769 0.18638 0.0
O54 O 0.52257 0.07557 0.15542 0.0
C55 C 0.65317 0.01353 0.18405 0.0
Zn56 Zn 0.7194 0.12742 0.58297 0.0
Zn57 Zn 0.68298 0.17734 0.56951 0.0
O58 O 0.72367 0.20019 0.58601 0.0
O59 O 0.7548 0.15842 0.59764 0.0
O60 O 0.65444 0.21407 0.55513 0.0
O61 O 0.71787 0.10911 0.53851 0.0
O62 O 0.68785 0.15127 0.52673 0.0
C63 C 0.75007 0.18868 0.59696 0.0
C64 C 0.66536 0.13121 0.62497 0.0
O65 O 0.66029 0.1572 0.60915 0.0
O66 O 0.6879 0.11233 0.6162 0.0
C67 C 0.66726 0.23667 0.53873 0.0
O68 O 0.69854 0.23595 0.5328 0.0
C69 C 0.70168 0.12509 0.51806 0.0
Zn70 Zn 0.05596 0.51401 0.84671 0.0
Zn71 Zn 0.03069 0.45937 0.83162 0.0
O72 O 0.99187 0.48877 0.8457 0.0
O73 O 0.01395 0.53613 0.85541 0.0
O74 O 0.00808 0.42105 0.81196 0.0
O75 O 0.08045 0.51987 0.8058 0.0
O76 O 0.06248 0.47119 0.79425 0.0
C77 C 0.98923 0.51816 0.85471 0.0
C78 C 0.07364 0.46104 0.88984 0.0
O79 O 0.05547 0.44352 0.87205 0.0
O80 O 0.07766 0.49071 0.88352 0.0
C81 C 0.98689 0.42693 0.79034 0.0
O82 O 0.98026 0.45708 0.78284 0.0
C83 C 0.08016 0.49547 0.78742 0.0
Zn84 Zn 0.76522 0.85786 0.1354 0.0
Zn85 Zn 0.76951 0.80308 0.10546 0.0
O86 O 0.72283 0.7958 0.11885 0.0
O87 O 0.71939 0.84195 0.14587 0.0
O88 O 0.78603 0.76457 0.08016 0.0
O89 O 0.77138 0.88623 0.09686 0.0
O90 O 0.76992 0.83983 0.07157 0.0
C91 C 0.70683 0.81563 0.13627 0.0
C92 C 0.80748 0.81998 0.16933 0.0
O93 O 0.79675 0.80109 0.14742 0.0
O94 O 0.80037 0.8497 0.16788 0.0
C95 C 0.77933 0.73507 0.08544 0.0
O96 O 0.75812 0.72748 0.10786 0.0
C97 C 0.77081 0.87062 0.07053 0.0
Zn98 Zn 0.47032 0.45927 0.30153 0.0
Zn99 Zn 0.48088 0.52175 0.2973 0.0
O100 O 0.52479 0.50112 0.30975 0.0
O101 O 0.51753 0.44878 0.30689 0.0
O102 O 0.49357 0.56791 0.29173 0.0
O103 O 0.45019 0.45906 0.25771 0.0
O104 O 0.45968 0.51126 0.25325 0.0
C105 C 0.5362 0.47256 0.3116 0.0
C106 C 0.43615 0.49765 0.34983 0.0
O107 O 0.44836 0.52165 0.33493 0.0
O108 O 0.44229 0.46899 0.34078 0.0
C109 C 0.51775 0.57374 0.27364 0.0
O110 O 0.53323 0.54973 0.25961 0.0
C111 C 0.44846 0.48502 0.24174 0.0
Zn112 Zn 0.34307 0.22941 0.30545 0.0
Zn113 Zn 0.39483 0.19357 0.29208 0.0
O114 O 0.3714 0.20152 0.24814 0.0
O115 O 0.32844 0.2306 0.25923 0.0
O116 O 0.43389 0.16785 0.27734 0.0
O117 O 0.37217 0.26399 0.32509 0.0
O118 O 0.4148 0.23356 0.31414 0.0
C119 C 0.34563 0.21573 0.23869 0.0
C120 C 0.34503 0.16979 0.34122 0.0
O121 O 0.37204 0.16572 0.32677 0.0
O122 O 0.3276 0.19418 0.33477 0.0
C123 C 0.42994 0.14243 0.26046 0.0
O124 O 0.40049 0.13176 0.25494 0.0
C125 C 0.40248 0.25914 0.32625 0.0
Zn126 Zn 0.01271 0.08127 0.5281 0.0
Zn127 Zn 0.0552 0.12305 0.50647 0.0
O128 O 0.02653 0.10915 0.46755 0.0
O129 O 0.98881 0.07692 0.48611 0.0
O130 O 0.08843 0.15096 0.48391 0.0
O131 O 0.00045 0.11498 0.5618 0.0
O132 O 0.03272 0.15184 0.54052 0.0
C133 C 0.00139 0.09207 0.46277 0.0
C134 C 0.07622 0.06171 0.54311 0.0
O135 O 0.08225 0.08962 0.53163 0.0
O136 O 0.04796 0.05013 0.54033 0.0
C137 C 0.09759 0.1426 0.45567 0.0
O138 O 0.08601 0.11603 0.44267 0.0
C139 C 0.0121 0.1433 0.56186 0.0
Zn140 Zn 0.09481 0.74896 0.84081 0.0
Zn141 Zn 0.08078 0.8022 0.81122 0.0
O142 O 0.09635 0.77063 0.77527 0.0
O143 O 0.10569 0.72479 0.80053 0.0
O144 O 0.06503 0.83957 0.78447 0.0
O145 O 0.05204 0.74514 0.86204 0.0
O146 O 0.04021 0.79203 0.83972 0.0
C147 C 0.1056 0.74125 0.77482 0.0
C148 C 0.13728 0.8022 0.85737 0.0
O149 O 0.12036 0.81849 0.83733 0.0
O150 O 0.13047 0.77296 0.86319 0.0
C151 C 0.04736 0.83315 0.76003 0.0
O152 O 0.03983 0.80296 0.75367 0.0
C153 C 0.03271 0.76849 0.85811 0.0
Zn154 Zn 0.48844 0.82312 0.0416 0.0
Zn155 Zn 0.44449 0.86399 0.02653 0.0
O156 O 0.46454 0.85049 0.98283 0.0
O157 O 0.50294 0.81624 0.99566 0.0
O158 O 0.40492 0.89061 0.01504 0.0
O159 O 0.46084 0.79239 0.06704 0.0
O160 O 0.42956 0.8349 0.06461 0.0
C161 C 0.48892 0.83339 0.97448 0.0
C162 C 0.50094 0.88962 0.06227 0.0
O163 O 0.47604 0.8961 0.04529 0.0
O164 O 0.50964 0.86047 0.06642 0.0
C165 C 0.38216 0.88283 0.99574 0.0
O166 O 0.35835 0.90333 0.99069 0.0
C167 C 0.43652 0.80783 0.07758 0.0
Zn168 Zn 0.9008 0.19847 0.71111 0.0
Zn169 Zn 0.91185 0.25821 0.70416 0.0
O170 O 0.8962 0.2493 0.75132 0.0
O171 O 0.90024 0.19747 0.76008 0.0
O172 O 0.93159 0.30251 0.70948 0.0
O173 O 0.93691 0.18207 0.68319 0.0
O174 O 0.94786 0.23378 0.6786 0.0
C175 C 0.89396 0.2255 0.7707 0.0
C176 C 0.85306 0.23503 0.67215 0.0
O177 O 0.87182 0.25934 0.67509 0.0
O178 O 0.8593 0.20865 0.6865 0.0
C179 C 0.91712 0.32367 0.72645 0.0
O180 O 0.88739 0.3182 0.73623 0.0
C181 C 0.95335 0.2045 0.67056 0.0
Zn182 Zn 0.98946 0.64526 0.96315 0.0
Zn183 Zn 0.93217 0.65364 0.98542 0.0
O184 O 0.96017 0.63827 0.02526 0.0
O185 O 0.00936 0.63382 0.00511 0.0
O186 O 0.89058 0.66817 0.00681 0.0
O187 O 0.99454 0.68895 0.94477 0.0
O188 O 0.94385 0.69573 0.95989 0.0
C189 C 0.99022 0.63164 0.02881 0.0
C190 C 0.94192 0.60232 0.93468 0.0
O191 O 0.92167 0.61615 0.95356 0.0
O192 O 0.97144 0.61054 0.93466 0.0
C193 C 0.86568 0.65191 0.01448 0.0
O194 O 0.86413 0.62093 0.00771 0.0
C195 C 0.96918 0.706 0.94554 0.0
Zn196 Zn 0.52532 0.83523 0.22541 0.0
Zn197 Zn 0.52898 0.77124 0.23251 0.0
O198 O 0.53759 0.78918 0.27801 0.0
O199 O 0.53194 0.84166 0.27393 0.0
O200 O 0.52717 0.72357 0.2395 0.0
O201 O 0.48106 0.83132 0.20362 0.0
O202 O 0.48636 0.77901 0.2084 0.0
C203 C 0.5385 0.81709 0.29107 0.0
C204 C 0.58048 0.80407 0.19307 0.0
O205 O 0.56851 0.77805 0.20421 0.0
O206 O 0.56667 0.83105 0.19816 0.0
C207 C 0.54864 0.70807 0.25509 0.0
O208 O 0.57393 0.72329 0.26695 0.0
C209 C 0.47 0.80317 0.19864 0.0
Zn210 Zn 0.49381 0.41092 0.43069 0.0
Zn211 Zn 0.53548 0.36494 0.44821 0.0
O212 O 0.51746 0.38287 0.49136 0.0
O213 O 0.48294 0.42065 0.47693 0.0
O214 O 0.56595 0.33075 0.46433 0.0
O215 O 0.46827 0.37782 0.40463 0.0
O216 O 0.50291 0.33996 0.41952 0.0
C217 C 0.49714 0.40477 0.49892 0.0
C218 C 0.55904 0.42222 0.40847 0.0
O219 O 0.56487 0.39499 0.42155 0.0
O220 O 0.53087 0.43434 0.40992 0.0
C221 C 0.58544 0.33783 0.48709 0.0
O222 O 0.58608 0.36741 0.49866 0.0
C223 C 0.47777 0.34867 0.40377 0.0
Zn224 Zn 0.36897 0.35 0.20603 0.0
Zn225 Zn 0.31196 0.36971 0.18713 0.0
O226 O 0.30212 0.36247 0.2353 0.0
O227 O 0.3498 0.34388 0.25101 0.0
O228 O 0.27125 0.38814 0.16666 0.0
O229 O 0.39202 0.38996 0.1932 0.0
O230 O 0.34413 0.4072 0.17791 0.0
C231 C 0.32051 0.35079 0.25717 0.0
C232 C 0.34181 0.30451 0.16424 0.0
O233 O 0.3181 0.32428 0.16657 0.0
O234 O 0.36888 0.31203 0.17647 0.0
C235 C 0.24769 0.40058 0.1822 0.0
O236 O 0.24738 0.39936 0.21396 0.0
C237 C 0.37446 0.41189 0.18111 0.0
Zn238 Zn 0.78702 0.15167 0.74075 0.0
Zn239 Zn 0.76876 0.11537 0.78869 0.0
O240 O 0.72959 0.11989 0.75737 0.0
O241 O 0.74607 0.14763 0.71525 0.0
O242 O 0.74785 0.0874 0.82231 0.0
O243 O 0.82571 0.12205 0.73459 0.0
O244 O 0.80843 0.08955 0.77316 0.0
C245 C 0.72404 0.13225 0.72975 0.0
C246 C 0.79472 0.1831 0.80162 0.0
O247 O 0.78619 0.15558 0.81247 0.0
O248 O 0.79333 0.18859 0.7715 0.0
C249 C 0.71978 0.09612 0.83159 0.0
O250 O 0.70803 0.12408 0.82213 0.0
C251 C 0.82939 0.09699 0.7518 0.0
Zn252 Zn 0.1306 0.56383 0.01044 0.0
Zn253 Zn 0.14891 0.52996 0.06003 0.0
O254 O 0.13777 0.49512 0.02519 0.0
O255 O 0.12459 0.52479 0.98294 0.0
O256 O 0.16893 0.50274 0.09542 0.0
O257 O 0.17074 0.58973 0.00789 0.0
O258 O 0.18729 0.56175 0.05012 0.0
C259 C 0.12857 0.4974 0.99581 0.0
C260 C 0.08811 0.57165 0.06489 0.0
O261 O 0.10721 0.55181 0.07901 0.0
O262 O 0.09335 0.58039 0.03607 0.0
C263 C 0.15775 0.47583 0.10513 0.0
O264 O 0.12967 0.46558 0.09421 0.0
C265 C 0.19204 0.58368 0.02895 0.0
Zn266 Zn 0.68993 0.83327 0.26713 0.0
Zn267 Zn 0.7183 0.86464 0.31472 0.0
O268 O 0.75332 0.83437 0.29549 0.0
O269 O 0.72915 0.806 0.2578 0.0
O270 O 0.7431 0.88719 0.34963 0.0
O271 O 0.68387 0.87656 0.24467 0.0
O272 O 0.70834 0.9021 0.28459 0.0
C273 C 0.75458 0.81277 0.27353 0.0
C274 C 0.65287 0.83032 0.32488 0.0
O275 O 0.67572 0.84798 0.33585 0.0
O276 O 0.65452 0.81884 0.29654 0.0
C277 C 0.75942 0.87326 0.37162 0.0
O278 O 0.75826 0.84168 0.37468 0.0
C279 C 0.69374 0.90261 0.25752 0.0
Zn280 Zn 0.35656 0.41618 0.49972 0.0
Zn281 Zn 0.3406 0.46613 0.53127 0.0
O282 O 0.352 0.48517 0.48603 0.0
O283 O 0.37041 0.44159 0.4613 0.0
O284 O 0.32507 0.50392 0.55766 0.0
O285 O 0.31369 0.39577 0.50099 0.0
O286 O 0.30153 0.43428 0.53575 0.0
C287 C 0.36514 0.47167 0.46151 0.0
C288 C 0.39809 0.4255 0.55322 0.0
O289 O 0.38244 0.45204 0.55464 0.0
O290 O 0.38954 0.4041 0.53303 0.0
C291 C 0.33494 0.53286 0.55516 0.0
O292 O 0.35683 0.54047 0.53343 0.0
C293 C 0.29426 0.40817 0.52105 0.0
Zn294 Zn 0.20817 0.60135 0.76727 0.0
Zn295 Zn 0.22935 0.59958 0.70947 0.0
O296 O 0.26956 0.60986 0.73896 0.0
O297 O 0.25079 0.60714 0.78859 0.0
O298 O 0.25044 0.58995 0.66673 0.0
O299 O 0.18621 0.55897 0.76675 0.0
O300 O 0.2001 0.55876 0.7154 0.0
C301 C 0.27416 0.61175 0.76945 0.0
C302 C 0.18257 0.65192 0.72517 0.0
O303 O 0.20037 0.63952 0.70322 0.0
O304 O 0.18217 0.64021 0.75346 0.0
C305 C 0.27298 0.60685 0.65453 0.0
O306 O 0.28189 0.63392 0.66857 0.0
C307 C 0.18486 0.54613 0.73906 0.0
Zn308 Zn 0.60952 0.93973 0.01041 0.0
Zn309 Zn 0.63046 0.9636 0.95356 0.0
O310 O 0.61302 0.00316 0.9786 0.0
O311 O 0.59695 0.98451 0.02569 0.0
O312 O 0.65035 0.98597 0.91567 0.0
O313 O 0.65461 0.92337 0.0202 0.0
O314 O 0.67105 0.94257 0.97324 0.0
C315 C 0.60165 0.00808 0.00678 0.0
C316 C 0.57861 0.91198 0.95272 0.0
O317 O 0.59676 0.9308 0.93639 0.0
O318 O 0.57955 0.91201 0.98336 0.0
C319 C 0.63603 0.00899 0.90129 0.0
O320 O 0.60548 0.01525 0.90773 0.0
C321 C 0.67683 0.92784 -0.00038 0.0
Zn322 Zn 0.8515 0.10253 0.45213 0.0
Zn323 Zn 0.84213 0.04217 0.4337 0.0
O324 O 0.85834 0.03396 0.47923 0.0
O325 O 0.86813 0.08399 0.49498 0.0
O326 O 0.82916 -0.00154 0.41712 0.0
O327 O 0.80518 0.11575 0.4458 0.0
O328 O 0.79805 0.06535 0.43148 0.0
C329 C 0.86894 0.0538 0.50019 0.0
C330 C 0.89558 0.08393 0.40304 0.0
O331 O 0.88137 0.05684 0.40689 0.0
O332 O 0.8845 0.10881 0.41716 0.0
C333 C 0.83649 0.9716 0.43009 0.0
O334 O 0.85599 0.97065 0.45518 0.0
C335 C 0.78649 0.09346 0.43635 0.0
C336 C 0.14721 0.14899 0.4211 0.0
C337 C 0.11999 0.16315 0.43669 0.0
C338 C 0.1369 0.21659 0.41742 0.0
C339 C 0.1649 0.20223 0.40344 0.0
N340 N 0.18483 0.15414 0.37677 0.0
N341 N 0.08335 0.20863 0.44044 0.0
C342 C 0.16637 0.1682 0.4003 0.0
C343 C 0.11306 0.19652 0.4321 0.0
N344 N 0.15594 0.11773 0.42728 0.0
N345 N 0.13318 0.24938 0.41645 0.0
H346 H 0.06487 0.19434 0.44992 0.0
H347 H 0.07584 0.23208 0.43518 0.0
H348 H 0.14807 0.26405 0.40231 0.0
H349 H 0.11587 0.26194 0.42984 0.0
H350 H 0.17745 0.10762 0.41864 0.0
H351 H 0.14373 0.10305 0.44371 0.0
H352 H 0.18497 0.12928 0.37257 0.0
H353 H 0.19576 0.16747 0.35842 0.0
C354 C 0.04839 0.90893 0.70846 0.0
C355 C 0.01638 0.90918 0.69597 0.0
C356 C 0.00333 0.86192 0.72906 0.0
C357 C 0.03655 0.85923 0.73794 0.0
N358 N 0.09199 0.87607 0.72929 0.0
N359 N 0.9642 0.88359 0.69093 0.0
C360 C 0.0595 0.88153 0.72568 0.0
C361 C 0.99403 0.88496 0.70525 0.0
N362 N 0.06765 0.93559 0.70559 0.0
N363 N 0.98046 0.8437 0.74445 0.0
H364 H 0.95659 0.90024 0.67356 0.0
H365 H 0.94817 0.86445 0.69426 0.0
H366 H 0.98605 0.82751 0.76296 0.0
H367 H 0.95564 0.84698 0.74118 0.0
H368 H 0.09019 0.93756 0.71682 0.0
H369 H 0.0594 0.95719 0.69556 0.0
H370 H 0.10955 0.89021 0.71802 0.0
H371 H 0.1014 0.85549 0.74044 0.0
C372 C 0.37461 0.79247 0.97984 0.0
C373 C 0.37165 0.7925 0.94568 0.0
C374 C 0.3855 0.85011 0.94467 0.0
C375 C 0.38202 0.85121 0.97885 0.0
N376 N 0.36951 0.82392 0.02885 0.0
N377 N 0.39153 0.81657 0.89674 0.0
C378 C 0.37624 0.82242 0.99654 0.0
C379 C 0.38232 0.81998 0.9283 0.0
N380 N 0.37769 0.76395 0.9961 0.0
N381 N 0.3905 0.87803 0.92776 0.0
H382 H 0.39265 0.79395 0.88555 0.0
H383 H 0.40194 0.83499 0.88314 0.0
H384 H 0.395 0.90018 0.93898 0.0
H385 H 0.38899 0.8795 0.90266 0.0
H386 H 0.38241 0.76267 0.02085 0.0
H387 H 0.38045 0.74195 0.98403 0.0
H388 H 0.36165 0.80407 0.0422 0.0
H389 H 0.369 0.84562 0.04168 0.0
C390 C 0.50176 0.12851 0.20406 0.0
C391 C 0.5068 0.09487 0.2083 0.0
C392 C 0.4657 0.09413 0.25123 0.0
C393 C 0.4579 0.12679 0.24412 0.0
N394 N 0.46563 0.17419 0.21091 0.0
N395 N 0.49188 0.04456 0.23357 0.0
C396 C 0.47535 0.14389 0.21997 0.0
C397 C 0.48851 0.07738 0.23147 0.0
N398 N 0.52272 0.14589 0.18532 0.0
N399 N 0.45182 0.07941 0.27736 0.0
H400 H 0.50862 0.03152 0.21983 0.0
H401 H 0.4766 0.02994 0.2472 0.0
H402 H 0.43514 0.09106 0.29238 0.0
H403 H 0.45885 0.05678 0.28586 0.0
H404 H 0.52246 0.17103 0.184 0.0
H405 H 0.54241 0.13541 0.17338 0.0
H406 H 0.47484 0.18619 0.1908 0.0
H407 H 0.44644 0.18647 0.22181 0.0
C408 C 0.64716 0.26991 0.49196 0.0
C409 C 0.64703 0.26326 0.5257 0.0
C410 C 0.60505 0.30444 0.53386 0.0
C411 C 0.60714 0.31278 0.50061 0.0
N412 N 0.63505 0.30835 0.44951 0.0
N413 N 0.63113 0.27895 0.57972 0.0
C414 C 0.6296 0.29691 0.48006 0.0
C415 C 0.62744 0.28186 0.54696 0.0
N416 N 0.66285 0.24964 0.47101 0.0
N417 N 0.5809 0.31708 0.55268 0.0
H418 H 0.64788 0.26328 0.59032 0.0
H419 H 0.61995 0.29431 0.59632 0.0
H420 H 0.5639 0.33361 0.54404 0.0
H421 H 0.57595 0.30905 0.57603 0.0
H422 H 0.6606 0.25119 0.44595 0.0
H423 H 0.67579 0.22941 0.47855 0.0
H424 H 0.65369 0.29992 0.43471 0.0
H425 H 0.62303 0.32843 0.44003 0.0
C426 C 0.94234 0.34791 0.77578 0.0
C427 C 0.93625 0.34962 0.74205 0.0
C428 C 0.96807 0.39942 0.73921 0.0
C429 C 0.96976 0.40017 0.77362 0.0
N430 N 0.95214 0.37808 0.82483 0.0
N431 N 0.94037 0.37859 0.69173 0.0
C432 C 0.95515 0.37522 0.79201 0.0
C433 C 0.94828 0.37586 0.72372 0.0
N434 N 0.93737 0.31967 0.79211 0.0
N435 N 0.98658 0.42008 0.72126 0.0
H436 H 0.92643 0.36141 0.67957 0.0
H437 H 0.94549 0.39905 0.678 0.0
H438 H 0.00257 0.43665 0.73157 0.0
H439 H 0.98862 0.41852 0.69619 0.0
H440 H 0.94414 0.31635 0.81618 0.0
H441 H 0.93022 0.29844 0.78053 0.0
H442 H 0.93882 0.36187 0.83877 0.0
H443 H 0.95982 0.39836 0.83772 0.0
C444 C 0.79615 0.70966 0.03297 0.0
C445 C 0.79716 0.70959 0.0673 0.0
C446 C 0.83643 0.66486 0.06601 0.0
C447 C 0.839 0.66843 0.03199 0.0
N448 N 0.82233 0.69446 0.98258 0.0
N449 N 0.8206 0.6893 0.11692 0.0
C450 C 0.81898 0.69078 0.01529 0.0
C451 C 0.8175 0.68738 0.08401 0.0
N452 N 0.77279 0.72719 0.01735 0.0
N453 N 0.8525 0.64024 0.08117 0.0
H454 H 0.80761 0.70559 0.13114 0.0
H455 H 0.83796 0.67656 0.13003 0.0
H456 H 0.86751 0.62401 0.06893 0.0
H457 H 0.84885 0.63418 0.10534 0.0
H458 H 0.76872 0.72599 0.99251 0.0
H459 H 0.75535 0.74077 0.02965 0.0
H460 H 0.81151 0.71307 0.96951 0.0
H461 H 0.83739 0.67971 0.96861 0.0
C462 C 0.54142 0.66028 0.29175 0.0
C463 C 0.54445 0.67297 0.26002 0.0
C464 C 0.52954 0.62051 0.23701 0.0
C465 C 0.52853 0.60736 0.26868 0.0
N466 N 0.54136 0.61248 0.32545 0.0
N467 N 0.54905 0.6636 0.20258 0.0
C468 C 0.5369 0.62656 0.29586 0.0
C469 C 0.54089 0.65256 0.23265 0.0
N470 N 0.54097 0.68054 0.31789 0.0
N471 N 0.51808 0.60311 0.21128 0.0
H472 H 0.55803 0.68682 0.19858 0.0
H473 H 0.55003 0.64879 0.18219 0.0
H474 H 0.50884 0.57977 0.21343 0.0
H475 H 0.51496 0.61289 0.18827 0.0
H476 H 0.53526 0.67294 0.34122 0.0
H477 H 0.5433 0.70549 0.31583 0.0
H478 H 0.55066 0.62484 0.34537 0.0
H479 H 0.53889 0.58768 0.32929 0.0
C480 C 0.21578 0.45169 0.17228 0.0
C481 C 0.22225 0.41883 0.16439 0.0
C482 C 0.18655 0.42326 0.11711 0.0
C483 C 0.17791 0.45518 0.12666 0.0
N484 N 0.17843 0.49668 0.16772 0.0
N485 N 0.20787 0.37128 0.13376 0.0
C486 C 0.19069 0.46841 0.15565 0.0
C487 C 0.20576 0.40396 0.13818 0.0
N488 N 0.23481 0.46768 0.19414 0.0
N489 N 0.17822 0.41192 0.08714 0.0
H490 H 0.22118 0.35625 0.14909 0.0
H491 H 0.19379 0.35875 0.11699 0.0
H492 H 0.16528 0.4255 0.07028 0.0
H493 H 0.18696 0.3902 0.07775 0.0
H494 H 0.23322 0.49252 0.1981 0.0
H495 H 0.25446 0.45702 0.20587 0.0
H496 H 0.18464 0.50576 0.19043 0.0
H497 H 0.15955 0.50926 0.15658 0.0
C498 C 0.66335 0.06271 0.89583 0.0
C499 C 0.65571 0.032 0.88234 0.0
C500 C 0.68876 0.04414 0.83467 0.0
C501 C 0.6987 0.07352 0.8495 0.0
N502 N 0.69957 0.10886 0.89586 0.0
N503 N 0.66365 0.99158 0.84098 0.0
C504 C 0.68696 0.08239 0.88048 0.0
C505 C 0.66927 0.02211 0.8524 0.0
N506 N 0.64812 0.07311 0.92336 0.0
N507 N 0.69656 0.03801 0.80307 0.0
H508 H 0.64787 0.97545 0.85223 0.0
H509 H 0.67608 0.98152 0.82147 0.0
H510 H 0.71054 0.05359 0.78907 0.0
H511 H 0.68695 0.01889 0.78978 0.0
H512 H 0.64979 0.09663 0.93219 0.0
H513 H 0.63188 0.059 0.93641 0.0
H514 H 0.69484 0.11465 0.91993 0.0
H515 H 0.71716 0.12364 0.88546 0.0
C516 C 0.76514 0.9172 0.41265 0.0
C517 C 0.78004 0.89331 0.39295 0.0
C518 C 0.83335 0.91802 0.40188 0.0
C519 C 0.81817 0.94253 0.42047 0.0
N520 N 0.77187 0.96175 0.4504 0.0
N521 N 0.82858 0.86631 0.37446 0.0
C522 C 0.7847 0.9409 0.42804 0.0
C523 C 0.81432 0.89205 0.38965 0.0
N524 N 0.73215 0.91756 0.41594 0.0
N525 N 0.86555 0.9206 0.39448 0.0
H526 H 0.81546 0.84728 0.36449 0.0
H527 H 0.85348 0.86236 0.3739 0.0
H528 H 0.88027 0.93889 0.40375 0.0
H529 H 0.87742 0.90586 0.37784 0.0
H530 H 0.71923 0.93656 0.4263 0.0
H531 H 0.71736 0.89909 0.40713 0.0
H532 H 0.74833 0.96017 0.45928 0.0
H533 H 0.78567 0.97926 0.46225 0.0
C534 C 0.3238 0.5834 0.63057 0.0
C535 C 0.29118 0.59377 0.62656 0.0
C536 C 0.28899 0.5681 0.5731 0.0
C537 C 0.32148 0.55761 0.57723 0.0
N538 N 0.37227 0.56101 0.60585 0.0
N539 N 0.24526 0.60281 0.59178 0.0
C540 C 0.33977 0.56743 0.60456 0.0
C541 C 0.27457 0.58824 0.59703 0.0
N542 N 0.33876 0.58667 0.65996 0.0
N543 N 0.27174 0.55808 0.54667 0.0
H544 H 0.23433 0.61797 0.60881 0.0
H545 H 0.2331 0.60226 0.56971 0.0
H546 H 0.28215 0.54494 0.52775 0.0
H547 H 0.24686 0.56144 0.5441 0.0
H548 H 0.36095 0.57606 0.66558 0.0
H549 H 0.32801 0.59799 0.67979 0.0
H550 H 0.38763 0.5705 0.62345 0.0
H551 H 0.38451 0.54833 0.58775 0.0
C552 C 0.27196 0.36278 0.55088 0.0
C553 C 0.26575 0.3888 0.52971 0.0
C554 C 0.22967 0.35455 0.4982 0.0
C555 C 0.24617 0.32756 0.51128 0.0
N556 N 0.27338 0.30416 0.55669 0.0
N557 N 0.23224 0.41261 0.48902 0.0
C558 C 0.26328 0.33115 0.54069 0.0
C559 C 0.24138 0.38587 0.50597 0.0
N560 N 0.2888 0.36845 0.5787 0.0
N561 N 0.20425 0.35 0.47763 0.0
H562 H 0.24093 0.43551 0.49525 0.0
H563 H 0.21707 0.41198 0.46889 0.0
H564 H 0.19487 0.32702 0.47315 0.0
H565 H 0.19055 0.36886 0.46805 0.0
H566 H 0.2941 0.35078 0.5958 0.0
H567 H 0.2956 0.39189 0.58523 0.0
H568 H 0.28817 0.30448 0.57709 0.0
H569 H 0.26648 0.28113 0.54889 0.0
C570 C 0.92037 0.08634 0.75331 0.0
C571 C 0.92336 0.05626 0.73716 0.0
C572 C 0.86456 0.04864 0.73924 0.0
C573 C 0.86126 0.08053 0.75118 0.0
N574 N 0.88517 0.12498 0.78032 0.0
N575 N 0.90048 0.0027 0.73294 0.0
C576 C 0.889 0.09787 0.76178 0.0
C577 C 0.89614 0.03528 0.73593 0.0
N578 N 0.94761 0.10389 0.75989 0.0
N579 N 0.83781 0.03165 0.72986 0.0
H580 H 0.92329 0.99198 0.73473 0.0
H581 H 0.88145 0.9862 0.73373 0.0
H582 H 0.8143 0.04057 0.73259 0.0
H583 H 0.83916 0.00969 0.71753 0.0
H584 H 0.94741 0.12787 0.76755 0.0
H585 H 0.97078 0.09401 0.75726 0.0
H586 H 0.90436 0.13714 0.79108 0.0
H587 H 0.86248 0.13372 0.7873 0.0
C588 C 0.23867 0.65907 0.01965 0.0
C589 C 0.26055 0.64811 0.99568 0.0
C590 C 0.24815 0.59184 0.00862 0.0
C591 C 0.22213 0.60298 0.02796 0.0
N592 N 0.19883 0.64478 0.06075 0.0
N593 N 0.29432 0.60593 0.97463 0.0
C594 C 0.21994 0.63595 0.03687 0.0
C595 C 0.26843 0.61492 0.99316 0.0
N596 N 0.23432 0.69153 0.02387 0.0
N597 N 0.25164 0.55943 0.00332 0.0
H598 H 0.30901 0.62306 0.96331 0.0
H599 H 0.30256 0.58227 0.97228 0.0
H600 H 0.23738 0.54244 0.01535 0.0
H601 H 0.26816 0.54935 0.98718 0.0
H602 H 0.21673 0.70173 0.03876 0.0
H603 H 0.24873 0.70843 0.01187 0.0
H604 H 0.19643 0.66821 0.0696 0.0
H605 H 0.18516 0.62765 0.07328 0.0
C606 C 0.66576 0.98844 0.23792 0.0
C607 C 0.66848 0.98771 0.20373 0.0
C608 C 0.6965 0.93558 0.20731 0.0
C609 C 0.68823 0.93357 0.24045 0.0
N610 N 0.6607 0.95673 0.28677 0.0
N611 N 0.68 0.95585 0.15543 0.0
C612 C 0.67202 0.95978 0.25585 0.0
C613 C 0.68244 0.9602 0.18818 0.0
N614 N 0.65738 0.01652 0.25325 0.0
N615 N 0.71784 0.91399 0.19403 0.0
H616 H 0.66764 0.97146 0.14003 0.0
H617 H 0.68695 0.93448 0.14394 0.0
H618 H 0.72932 0.89604 0.2076 0.0
H619 H 0.7268 0.91627 0.17055 0.0
H620 H 0.65789 0.01921 0.27832 0.0
H621 H 0.65319 0.03804 0.24075 0.0
H622 H 0.64573 0.97387 0.29771 0.0
H623 H 0.66359 0.93586 0.30055 0.0
C624 C 0.70915 0.08226 0.47632 0.0
C625 C 0.7041 0.11536 0.4835 0.0
C626 C 0.73895 0.13089 0.43883 0.0
C627 C 0.75084 0.09876 0.43837 0.0
N628 N 0.73426 0.04303 0.44021 0.0
N629 N 0.69803 0.16791 0.45967 0.0
C630 C 0.73126 0.07392 0.45136 0.0
C631 C 0.71337 0.13875 0.46045 0.0
N632 N 0.69434 0.05935 0.49479 0.0
N633 N 0.75343 0.15368 0.41996 0.0
H634 H 0.67759 0.17235 0.47385 0.0
H635 H 0.70297 0.18574 0.44264 0.0
H636 H 0.77107 0.14732 0.40295 0.0
H637 H 0.74836 0.1783 0.42144 0.0
H638 H 0.69953 0.03475 0.49328 0.0
H639 H 0.67708 0.06568 0.5122 0.0
H640 H 0.71981 0.02399 0.44809 0.0
H641 H 0.74873 0.03749 0.42025 0.0
C642 C 0.13036 0.52918 0.72101 0.0
C643 C 0.16067 0.5202 0.73436 0.0
C644 C 0.13411 0.47868 0.76688 0.0
C645 C 0.10417 0.4944 0.76089 0.0
N646 N 0.07177 0.52962 0.72813 0.0
N647 N 0.193 0.48206 0.76351 0.0
C648 C 0.10159 0.51751 0.73585 0.0
C649 C 0.163 0.49273 0.75451 0.0
N650 N 0.12938 0.54997 0.69542 0.0
N651 N 0.1348 0.4516 0.78572 0.0
H652 H 0.21404 0.49196 0.75357 0.0
H653 H 0.19716 0.46413 0.78064 0.0
H654 H 0.11372 0.44115 0.79481 0.0
H655 H 0.15561 0.43812 0.79027 0.0
H656 H 0.10817 0.55672 0.68359 0.0
H657 H 0.15042 0.55817 0.68418 0.0
H658 H 0.068 0.54901 0.71256 0.0
H659 H 0.05058 0.52016 0.73817 0.0
C660 C 0.71884 0.8842 -0.00045 0.0
C661 C 0.70989 0.91644 0.00713 0.0
C662 C 0.75795 0.922 0.04128 0.0
C663 C 0.76163 0.88802 0.04017 0.0
N664 N 0.75939 0.84177 0.00512 0.0
N665 N 0.72309 0.96817 0.03049 0.0
C666 C 0.7466 0.87064 0.01478 0.0
C667 C 0.73067 0.93632 0.02589 0.0
N668 N 0.69979 0.86618 0.97941 0.0
N669 N 0.78073 0.94003 0.05698 0.0
H670 H 0.70383 0.97937 0.01852 0.0
H671 H 0.73515 0.98322 0.04669 0.0
H672 H 0.80145 0.92933 0.06683 0.0
H673 H 0.78082 0.96518 0.05751 0.0
H674 H 0.70285 0.84144 0.97583 0.0
H675 H 0.67999 0.87598 0.96709 0.0
H676 H 0.75073 0.82851 0.98551 0.0
H677 H 0.78122 0.83318 0.01461 0.0
C678 C 0.42248 0.44483 0.16795 0.0
C679 C 0.38927 0.44419 0.17631 0.0
C680 C 0.39653 0.49005 0.2124 0.0
C681 C 0.43031 0.48415 0.21108 0.0
N682 N 0.47625 0.46553 0.18107 0.0
N683 N 0.34319 0.47648 0.19106 0.0
C684 C 0.44353 0.46535 0.18577 0.0
C685 C 0.37568 0.47073 0.19303 0.0
N686 N 0.4335 0.42388 0.14492 0.0
N687 N 0.38463 0.51182 0.23423 0.0
H688 H 0.32835 0.46315 0.17556 0.0
H689 H 0.33177 0.4962 0.20183 0.0
H690 H 0.39994 0.52664 0.24782 0.0
H691 H 0.36008 0.5148 0.23919 0.0
H692 H 0.45759 0.42187 0.13781 0.0
H693 H 0.41746 0.40904 0.13217 0.0
H694 H 0.48822 0.45175 0.16371 0.0
H695 H 0.49129 0.48084 0.19447 0.0
C696 C 0.45566 0.33067 0.34992 0.0
C697 C 0.45971 0.3249 0.38362 0.0
C698 C 0.42959 0.27399 0.3784 0.0
C699 C 0.423 0.2814 0.34548 0.0
N700 N 0.42567 0.31857 0.30079 0.0
N701 N 0.44615 0.29388 0.43111 0.0
C702 C 0.4348 0.31031 0.3315 0.0
C703 C 0.44569 0.29718 0.39818 0.0
N704 N 0.4729 0.35473 0.33521 0.0
N705 N 0.42047 0.24472 0.39077 0.0
H706 H 0.45714 0.31057 0.44652 0.0
H707 H 0.43323 0.27619 0.44346 0.0
H708 H 0.40743 0.22762 0.37754 0.0
H709 H 0.42779 0.23635 0.41338 0.0
H710 H 0.47352 0.35805 0.31024 0.0
H711 H 0.4891 0.36959 0.34762 0.0
H712 H 0.43031 0.34109 0.29059 0.0
H713 H 0.41132 0.3037 0.28626 0.0
C714 C 0.01494 0.15799 0.62038 0.0
C715 C 0.0033 0.16519 0.58891 0.0
C716 C 0.96826 0.20756 0.61137 0.0
C717 C 0.97549 0.19628 0.64322 0.0
N718 N 0.00684 0.16204 0.67845 0.0
N719 N 0.96889 0.19612 0.55364 0.0
C720 C -0.00049 0.1721 0.6478 0.0
C721 C 0.98045 0.19025 0.58411 0.0
N722 N 0.04103 0.13787 0.62388 0.0
N723 N 0.94942 0.23442 0.60693 0.0
H724 H 0.97807 0.18466 0.53308 0.0
H725 H 0.94895 0.21079 0.5488 0.0
H726 H 0.93902 0.2476 0.62566 0.0
H727 H 0.9463 0.2456 0.5846 0.0
H728 H 0.05273 0.13392 0.64583 0.0
H729 H 0.05284 0.12726 0.6042 0.0
H730 H 0.02067 0.14159 0.68353 0.0
H731 H 0.99798 0.17371 0.69905 0.0
C732 C 0.95912 0.73209 0.89288 0.0
C733 C 0.96887 0.73552 0.92554 0.0
C734 C 0.00598 0.77879 0.9104 0.0
C735 C 0.00295 0.76862 0.87786 0.0
N736 N 0.97257 0.74205 0.83631 0.0
N737 N 0.99487 0.76649 0.96699 0.0
C738 C 0.97737 0.74801 0.86846 0.0
C739 C 0.98949 0.76113 0.93484 0.0
N740 N 0.93388 0.71209 0.88555 0.0
N741 N 0.02618 0.80389 0.91758 0.0
H742 H 0.98206 0.75386 0.98472 0.0
H743 H 0.01159 0.78297 0.97607 0.0
H744 H 0.0383 0.8166 0.89944 0.0
H745 H 0.02929 0.81341 0.94068 0.0
H746 H 0.92471 0.70876 0.86233 0.0
H747 H 0.92059 0.70045 0.90356 0.0
H748 H 0.95624 0.72518 0.82725 0.0
H749 H 0.98556 0.75445 0.81855 0.0
C750 C 0.43964 0.76871 0.15829 0.0
C751 C 0.44252 0.79841 0.17529 0.0
C752 C 0.41349 0.82508 0.13118 0.0
C753 C 0.42381 0.79967 0.11051 0.0
N754 N 0.43441 0.74284 0.10556 0.0
N755 N 0.41966 0.85127 0.18361 0.0
C756 C 0.43228 0.76967 0.12466 0.0
C757 C 0.42486 0.82545 0.1637 0.0
N758 N 0.44329 0.74019 0.17439 0.0
N759 N 0.39282 0.8481 0.11972 0.0
H760 H 0.42483 0.85015 0.20833 0.0
H761 H 0.41027 0.8733 0.17583 0.0
H762 H 0.3823 0.84605 0.09687 0.0
H763 H 0.38334 0.86676 0.13377 0.0
H764 H 0.44027 0.71763 0.16363 0.0
H765 H 0.44548 0.73944 0.19955 0.0
H766 H 0.44388 0.72084 0.11335 0.0
H767 H 0.42673 0.74322 0.08146 0.0
C768 C 0.28629 0.29512 0.32095 0.0
C769 C 0.29029 0.31406 0.34941 0.0
C770 C 0.31222 0.35865 0.31691 0.0
C771 C 0.30681 0.34022 0.28849 0.0
N772 N 0.28287 0.29379 0.2624 0.0
N773 N 0.30042 0.366 0.37399 0.0
C774 C 0.2917 0.30948 0.29021 0.0
C775 C 0.30133 0.34651 0.34724 0.0
N776 N 0.27962 0.26281 0.32327 0.0
N777 N 0.32836 0.38741 0.31496 0.0
H778 H 0.29186 0.35811 0.39637 0.0
H779 H 0.30526 0.39069 0.37339 0.0
H780 H 0.33528 0.39763 0.29295 0.0
H781 H 0.3365 0.4002 0.3351 0.0
H782 H 0.27978 0.24709 0.30357 0.0
H783 H 0.27683 0.25077 0.34522 0.0
H784 H 0.26845 0.27317 0.26217 0.0
H785 H 0.28761 0.30279 0.23933 0.0
C786 C 0.87331 0.04616 0.56002 0.0
C787 C 0.88659 0.04158 0.52876 0.0
C788 C 0.93619 0.0187 0.55238 0.0
C789 C 0.92472 0.02757 0.58344 0.0
N790 N 0.88279 0.04905 0.61796 0.0
N791 N 0.93091 0.02495 0.49426 0.0
C792 C 0.89321 0.0408 0.58761 0.0
C793 C 0.9179 0.02769 0.52462 0.0
N794 N 0.84154 0.05512 0.56315 0.0
N795 N 0.96481 0.00219 0.54955 0.0
H796 H 0.91853 0.03143 0.47324 0.0
H797 H 0.95478 0.0182 0.48972 0.0
H798 H 0.97912 0.99609 0.56945 0.0
H799 H 0.97322 0.99225 0.52798 0.0
H800 H 0.82932 0.05615 0.58514 0.0
H801 H 0.82648 0.05913 0.54325 0.0
H802 H 0.86188 0.06239 0.62253 0.0
H803 H 0.8959 0.04352 0.63886 0.0
C804 C 0.31648 0.6087 0.81156 0.0
C805 C 0.30463 0.62448 0.78363 0.0
C806 C 0.31872 0.67691 0.80665 0.0
C807 C 0.32215 0.66159 0.837 0.0
N808 N 0.33664 0.61432 0.86684 0.0
N809 N 0.30906 0.67057 0.74879 0.0
C810 C 0.32619 0.62774 0.83857 0.0
C811 C 0.31139 0.65765 0.77903 0.0
N812 N 0.31552 0.57576 0.81269 0.0
N813 N 0.31945 0.70984 0.80527 0.0
H814 H 0.30449 0.65613 0.72859 0.0
H815 H 0.31453 0.6945 0.74336 0.0
H816 H 0.32537 0.7237 0.82559 0.0
H817 H 0.31391 0.7232 0.78467 0.0
H818 H 0.32184 0.56207 0.83282 0.0
H819 H 0.30848 0.56224 0.79249 0.0
H820 H 0.34032 0.58968 0.8703 0.0
H821 H 0.3432 0.62879 0.88653 0.0
C822 C 0.56537 0.0733 0.0587 0.0
C823 C 0.5948 0.08801 0.06786 0.0
C824 C 0.62236 0.06364 0.0219 0.0
C825 C 0.59607 0.0414 0.01918 0.0
N826 N 0.53952 0.03012 0.02807 0.0
N827 N 0.64214 0.11333 0.04692 0.0
C828 C 0.56617 0.04844 0.03483 0.0
C829 C 0.61982 0.08921 0.04478 0.0
N830 N 0.53763 0.08228 0.07421 0.0
N831 N 0.65073 0.05857 0.00562 0.0
H832 H 0.64015 0.13118 0.06475 0.0
H833 H 0.66024 0.11711 0.02978 0.0
H834 H 0.65408 0.04012 0.98884 0.0
H835 H 0.67165 0.07199 0.00977 0.0
H836 H 0.51475 0.07331 0.06868 0.0
H837 H 0.53792 0.10076 0.09149 0.0
H838 H 0.51763 0.03196 0.04041 0.0
H839 H 0.53961 0.01278 0.00966 0.0
C840 C 0.65399 0.15624 0.67773 0.0
C841 C 0.65365 0.12789 0.65883 0.0
C842 C 0.6823 0.09853 0.70107 0.0
C843 C 0.69206 0.12891 0.71385 0.0
N844 N 0.6809 0.18558 0.72114 0.0
N845 N 0.64955 0.07051 0.66052 0.0
C846 C 0.67512 0.15743 0.70488 0.0
C847 C 0.66083 0.09831 0.67413 0.0
N848 N 0.63537 0.18185 0.66851 0.0
N849 N 0.69579 0.07063 0.71246 0.0
H850 H 0.63492 0.07128 0.63987 0.0
H851 H 0.65263 0.04768 0.67063 0.0
H852 H 0.71149 0.07022 0.73219 0.0
H853 H 0.69193 0.04801 0.70213 0.0
H854 H 0.63353 0.20331 0.68155 0.0
H855 H 0.61966 0.18002 0.64874 0.0
H856 H 0.67175 0.20795 0.7141 0.0
H857 H 0.69546 0.18628 0.74181 0.0
C858 C 0.08689 0.45854 0.9778 0.0
C859 C 0.11953 0.4688 0.97639 0.0
C860 C 0.12347 0.4499 0.92055 0.0
C861 C 0.08926 0.44871 0.91953 0.0
N862 N 0.03846 0.44411 0.94729 0.0
N863 N 0.17133 0.46733 0.95041 0.0
C864 C 0.07109 0.44937 0.94856 0.0
C865 C 0.13886 0.46123 0.94919 0.0
N866 N 0.07097 0.45954 0.00672 0.0
N867 N 0.14051 0.44213 0.89332 0.0
H868 H 0.18251 0.47496 0.97179 0.0
H869 H 0.18699 0.46491 0.93083 0.0
H870 H 0.12878 0.43407 0.87239 0.0
H871 H 0.16567 0.44167 0.89197 0.0
H872 H 0.04733 0.45154 0.01013 0.0
H873 H 0.08269 0.46642 0.02804 0.0
H874 H 0.02281 0.44721 0.96677 0.0
H875 H 0.02703 0.43659 0.92603 0.0
C876 C 0.78648 0.77451 0.23929 0.0
C877 C 0.78629 0.80172 0.26012 0.0
C878 C 0.8263 0.82832 0.22612 0.0
C879 C 0.81772 0.80645 0.20122 0.0
N880 N 0.80878 0.75019 0.19033 0.0
N881 N 0.82028 0.84305 0.28296 0.0
C882 C 0.80473 0.77618 0.21021 0.0
C883 C 0.81151 0.82469 0.257 0.0
N884 N 0.76731 0.74868 0.24634 0.0
N885 N 0.84637 0.85347 0.21914 0.0
H886 H 0.81061 0.83876 0.30587 0.0
H887 H 0.83907 0.85979 0.28253 0.0
H888 H 0.85765 0.85515 0.19656 0.0
H889 H 0.8514 0.87228 0.23513 0.0
H890 H 0.76357 0.72936 0.2306 0.0
H891 H 0.75476 0.74738 0.26826 0.0
H892 H 0.8007 0.72703 0.19592 0.0
H893 H 0.82316 0.75178 0.16959 0.0
C894 C 0.40951 0.50415 0.43683 0.0
C895 C 0.37801 0.49069 0.43417 0.0
C896 C 0.38145 0.49193 0.37507 0.0
C897 C 0.41411 0.50235 0.37775 0.0
N898 N 0.45655 0.52662 0.40962 0.0
N899 N 0.33064 0.47972 0.40243 0.0
C900 C 0.4271 0.51161 0.40817 0.0
C901 C 0.3628 0.48749 0.40366 0.0
N902 N 0.42341 0.50741 0.46671 0.0
N903 N 0.36891 0.48517 0.34517 0.0
H904 H 0.31682 0.47673 0.42338 0.0
H905 H 0.31709 0.47867 0.38122 0.0
H906 H 0.38144 0.49013 0.32381 0.0
H907 H 0.34662 0.4741 0.34134 0.0
H908 H 0.44772 0.51292 0.47048 0.0
H909 H 0.41069 0.50336 0.48813 0.0
H910 H 0.46622 0.53652 0.43067 0.0
H911 H 0.47042 0.53151 0.38914 0.0
C912 C 0.34501 0.16927 0.42693 0.0
C913 C 0.31129 0.17555 0.42827 0.0
C914 C 0.30352 0.14715 0.37739 0.0
C915 C 0.33686 0.15192 0.37118 0.0
N916 N 0.3903 0.15021 0.39388 0.0
N917 N 0.2595 0.1522 0.41637 0.0
C918 C 0.35807 0.15633 0.39772 0.0
C919 C 0.29081 0.15761 0.40757 0.0
N920 N 0.36391 0.17713 0.45282 0.0
N921 N 0.28406 0.13637 0.35303 0.0
H922 H 0.25073 0.16 0.43879 0.0
H923 H 0.24374 0.13769 0.40312 0.0
H924 H 0.2939 0.12896 0.33092 0.0
H925 H 0.25888 0.13549 0.35455 0.0
H926 H 0.38902 0.17494 0.45328 0.0
H927 H 0.35354 0.18505 0.4745 0.0
H928 H 0.40762 0.15364 0.41184 0.0
H929 H 0.39916 0.13963 0.37269 0.0
C930 C 0.08422 0.00846 0.61052 0.0
C931 C 0.07966 0.03476 0.63196 0.0
C932 C 0.10749 0.06942 0.59336 0.0
C933 C 0.09713 0.04782 0.5689 0.0
N934 N 0.0888 0.99259 0.55393 0.0
N935 N 0.10124 0.08544 0.64992 0.0
C936 C 0.09119 0.01539 0.57762 0.0
C937 C 0.09696 0.06356 0.62562 0.0
N938 N 0.08126 0.97772 0.62164 0.0
N939 N 0.12541 0.09577 0.58514 0.0
H940 H 0.09415 0.08014 0.67359 0.0
H941 H 0.11158 0.10814 0.64673 0.0
H942 H 0.1336 0.09898 0.56144 0.0
H943 H 0.13408 0.11258 0.60177 0.0
H944 H 0.08531 0.95728 0.60744 0.0
H945 H 0.0781 0.97338 0.64627 0.0
H946 H 0.0812 0.96896 0.55803 0.0
H947 H 0.09397 -0.00167 0.52986 0.0
C948 C 0.2243 0.79906 0.86439 0.0
C949 C 0.22425 0.78798 0.89676 0.0
C950 C 0.17081 0.81167 0.90549 0.0
C951 C 0.1677 0.81457 0.87158 0.0
N952 N 0.19345 0.82393 0.82056 0.0
N953 N 0.20338 0.79189 0.95065 0.0
C954 C 0.19558 0.81342 0.85176 0.0
C955 C 0.19967 0.79794 0.9184 0.0
N956 N 0.25088 0.79335 0.84556 0.0
N957 N 0.14493 0.81965 0.92444 0.0
H958 H 0.22482 0.78198 0.95979 0.0
H959 H 0.1862 0.79743 0.96821 0.0
H960 H 0.12392 0.82957 0.91434 0.0
H961 H 0.14445 0.81756 0.9495 0.0
H962 H 0.2523 0.79864 0.82101 0.0
H963 H 0.27205 0.78334 0.85518 0.0
H964 H 0.21263 0.82391 0.80425 0.0
H965 H 0.17234 0.83469 0.8117 0.0
C966 C 0.57188 0.93829 0.09517 0.0
C967 C 0.55588 0.96682 0.10575 0.0
C968 C 0.50371 0.9427 0.09186 0.0
C969 C 0.51992 0.91619 0.07714 0.0
N970 N 0.57054 0.89373 0.05744 0.0
N971 N 0.50709 -0.00059 0.10494 0.0
C972 C 0.55438 0.91536 0.0766 0.0
C973 C 0.52193 0.97006 0.10134 0.0
N974 N 0.60323 0.93219 0.10394 0.0
N975 N 0.47128 0.94134 0.0984 0.0
H976 H 0.5198 0.02064 0.10977 0.0
H977 H 0.48278 0.00322 0.09917 0.0
H978 H 0.45725 0.92082 0.09427 0.0
H979 H 0.45927 0.95921 0.11161 0.0
H980 H 0.61478 0.91027 0.09914 0.0
H981 H 0.61645 0.94734 0.11916 0.0
H982 H 0.59562 0.89419 0.05442 0.0
H983 H 0.55886 0.87796 0.04159 0.0
C984 C 0.76816 0.21816 0.64659 0.0
C985 C 0.77344 0.21002 0.61359 0.0
C986 C 0.82926 0.22964 0.61683 0.0
C987 C 0.82468 0.23549 0.65038 0.0
N988 N 0.78889 0.24404 0.69532 0.0
N989 N 0.80498 0.21541 0.56506 0.0
C990 C 0.7936 0.23286 0.66452 0.0
C991 C 0.80271 0.21843 0.59792 0.0
N992 N 0.73955 0.21006 0.66117 0.0
N993 N 0.85946 0.23279 0.60368 0.0
H994 H 0.78573 0.20714 0.55089 0.0
H995 H 0.82466 0.22348 0.55158 0.0
H996 H 0.87896 0.24227 0.61662 0.0
H997 H 0.86559 0.22509 0.58048 0.0
H998 H 0.73544 0.21191 0.68594 0.0
H999 H 0.72006 0.19999 0.64863 0.0
H1000 H 0.7664 0.24513 0.70665 0.0
H1001 H 0.80746 0.25493 0.70861 0.0
C1002 C 0.95056 0.52128 0.90111 0.0
C1003 C 0.95899 0.53108 0.86927 0.0
C1004 C 0.93417 0.58395 0.87845 0.0
C1005 C 0.93257 0.57653 0.91179 0.0
N1006 N 0.9272 0.53671 0.95322 0.0
N1007 N 0.94899 0.56592 0.8242 0.0
C1008 C 0.93609 0.54432 0.92235 0.0
C1009 C 0.94676 0.56042 0.85668 0.0
N1010 N 0.95891 0.4911 0.91161 0.0
N1011 N 0.92614 0.61441 0.86857 0.0
H1012 H 0.9583 0.5484 0.80849 0.0
H1013 H 0.93995 0.58639 0.8127 0.0
H1014 H 0.91632 0.63132 0.88464 0.0
H1015 H 0.9291 0.62293 0.84509 0.0
H1016 H 0.95679 0.48337 0.93545 0.0
H1017 H 0.96806 0.47345 0.89608 0.0
H1018 H 0.92781 0.51348 0.96278 0.0
H1019 H 0.91685 0.55395 0.96858 0.0
C1020 C 0.64004 0.79189 0.19343 0.0
C1021 C 0.61228 0.80334 0.17651 0.0
C1022 C 0.64656 0.82021 0.13111 0.0
C1023 C 0.67395 0.80762 0.14759 0.0
N1024 N 0.69652 0.77569 0.1908 0.0
N1025 N 0.58788 0.82263 0.12711 0.0
C1026 C 0.67051 0.79136 0.1775 0.0
C1027 C 0.61517 0.81579 0.14463 0.0
N1028 N 0.63783 0.78369 0.22543 0.0
N1029 N 0.65073 0.83713 0.10302 0.0
H1030 H 0.58818 0.82905 0.10276 0.0
H1031 H 0.56455 0.81922 0.13618 0.0
H1032 H 0.67324 0.83953 0.09178 0.0
H1033 H 0.63233 0.85016 0.09173 0.0
H1034 H 0.65788 0.77864 0.23988 0.0
H1035 H 0.61632 0.78475 0.23859 0.0
H1036 H 0.69479 0.76056 0.21084 0.0
H1037 H 0.71943 0.77547 0.1801 0.0
C1038 C 0.5799 0.4343 0.32704 0.0
C1039 C 0.56799 0.46638 0.32749 0.0
C1040 C 0.58174 0.47139 0.38428 0.0
C1041 C 0.58208 0.43727 0.38563 0.0
N1042 N 0.60019 0.38901 0.35904 0.0
N1043 N 0.57758 0.51906 0.3499 0.0
C1044 C 0.58849 0.41975 0.35699 0.0
C1045 C 0.57647 0.48641 0.35387 0.0
N1046 N 0.57983 0.41759 0.2986 0.0
N1047 N 0.5827 0.48853 0.41244 0.0
H1048 H 0.57453 0.52948 0.32709 0.0
H1049 H 0.58437 0.53507 0.36815 0.0
H1050 H 0.58638 0.47687 0.43457 0.0
H1051 H 0.57934 0.51345 0.41381 0.0
H1052 H 0.58579 0.39323 0.29651 0.0
H1053 H 0.57355 0.429 0.27692 0.0
H1054 H 0.60562 0.37468 0.33903 0.0
H1055 H 0.60672 0.37903 0.38131 0.0
C1056 C 0.36409 0.22288 0.18104 0.0
C1057 C 0.33834 0.22044 0.20355 0.0
C1058 C 0.30626 0.25702 0.17009 0.0
C1059 C 0.33582 0.26948 0.15842 0.0
N1060 N 0.389 0.2565 0.13944 0.0
N1061 N 0.28064 0.22315 0.21087 0.0
C1062 C 0.36321 0.24884 0.15849 0.0
C1063 C 0.3076 0.23302 0.19463 0.0
N1064 N 0.3888 0.201 0.1817 0.0
N1065 N 0.27782 0.26954 0.15892 0.0
H1066 H 0.28176 0.20436 0.2277 0.0
H1067 H 0.25772 0.23321 0.20767 0.0
H1068 H 0.27766 0.28676 0.14045 0.0
H1069 H 0.25507 0.26136 0.16596 0.0
H1070 H 0.40816 0.20117 0.16557 0.0
H1071 H 0.38789 0.18064 0.19654 0.0
H1072 H 0.41117 0.24447 0.14006 0.0
H1073 H 0.3876 0.27571 0.1231 0.0
C1074 C 0.84413 0.1906 0.83403 0.0
C1075 C 0.81583 0.20483 0.8209 0.0
C1076 C 0.8483 0.24998 0.80201 0.0
C1077 C 0.87513 0.22863 0.80149 0.0
N1078 N 0.90324 0.18745 0.83079 0.0
N1079 N 0.78943 0.25366 0.80476 0.0
C1080 C 0.8747 0.20207 0.82293 0.0
C1081 C 0.81751 0.23721 0.81033 0.0
N1082 N 0.84127 0.16518 0.85472 0.0
N1083 N 0.85243 0.28159 0.7941 0.0
H1084 H 0.76705 0.24355 0.81085 0.0
H1085 H 0.78839 0.27625 0.79373 0.0
H1086 H 0.87555 0.29086 0.79034 0.0
H1087 H 0.83395 0.29874 0.79488 0.0
H1088 H 0.86087 0.15307 0.86494 0.0
H1089 H 0.81858 0.15781 0.8631 0.0
H1090 H 0.9051 0.16705 0.84535 0.0
H1091 H 0.92527 0.19667 0.82245 0.0
C1092 C 0.00121 0.58419 0.06335 0.0
C1093 C 0.00363 0.61802 0.05911 0.0
C1094 C 0.0567 0.61768 0.08529 0.0
C1095 C 0.05806 0.584 0.07993 0.0
N1096 N 0.03023 0.53374 0.07358 0.0
N1097 N 0.028 0.66814 0.07442 0.0
C1098 C 0.02929 0.56671 0.07329 0.0
C1099 C 0.02924 0.63518 0.07395 0.0
N1100 N 0.97285 0.56911 0.05565 0.0
N1101 N 0.08295 0.63258 0.09868 0.0
H1102 H 0.00752 0.68057 0.06622 0.0
H1103 H 0.04649 0.6829 0.08302 0.0
H1104 H 0.10304 0.61922 0.10639 0.0
H1105 H 0.08427 0.65721 0.10359 0.0
H1106 H 0.96884 0.54444 0.05825 0.0
H1107 H 0.95244 0.5822 0.04843 0.0
H1108 H 0.01108 0.51894 0.06669 0.0
H1109 H 0.05091 0.52129 0.08121 0.0
C1110 C 0.60081 0.85625 0.34001 0.0
C1111 C 0.62088 0.82834 0.34105 0.0
C1112 C 0.57298 0.79436 0.33534 0.0
C1113 C 0.55662 0.82134 0.32223 0.0
N1114 N 0.54659 0.87785 0.32969 0.0
N1115 N 0.62541 0.7712 0.34911 0.0
C1116 C 0.5677 0.85249 0.33089 0.0
C1117 C 0.60638 0.79747 0.34303 0.0
N1118 N 0.61415 0.886 0.34493 0.0
N1119 N 0.5566 0.76616 0.33955 0.0
H1120 H 0.64985 0.77379 0.35521 0.0
H1121 H 0.61729 0.74744 0.3474 0.0
H1122 H 0.53188 0.76455 0.3343 0.0
H1123 H 0.56655 0.74606 0.35102 0.0
H1124 H 0.60191 0.9077 0.34133 0.0
H1125 H 0.63783 0.88872 0.35333 0.0
H1126 H 0.55242 0.9014 0.33632 0.0
H1127 H 0.52212 0.87424 0.32426 0.0
C1128 C 0.44405 0.39089 0.56825 0.0
C1129 C 0.43099 0.42244 0.56736 0.0
C1130 C 0.47984 0.44263 0.54218 0.0
C1131 C 0.48691 0.41037 0.53291 0.0
N1132 N 0.48626 0.35439 0.54893 0.0
N1133 N 0.44432 0.47838 0.57309 0.0
C1134 C 0.473 0.38455 0.55063 0.0
C1135 C 0.45215 0.44846 0.56169 0.0
N1136 N 0.42645 0.36714 0.58277 0.0
N1137 N 0.49809 0.46722 0.53001 0.0
H1138 H 0.42392 0.48185 0.58766 0.0
H1139 H 0.45907 0.4986 0.57045 0.0
H1140 H 0.51887 0.46257 0.51631 0.0
H1141 H 0.49259 0.49159 0.53316 0.0
H1142 H 0.43297 0.34285 0.58315 0.0
H1143 H 0.40492 0.37269 0.59493 0.0
H1144 H 0.477 0.33429 0.56082 0.0
H1145 H 0.50822 0.35009 0.53728 0.0
C1146 C 0.12722 0.6741 0.72002 0.0
C1147 C 0.16102 0.67966 0.71885 0.0
C1148 C 0.15361 0.73469 0.7388 0.0
C1149 C 0.12086 0.72683 0.74583 0.0
N1150 N 0.07381 0.69511 0.73413 0.0
N1151 N 0.20503 0.71708 0.71552 0.0
C1152 C 0.10668 0.6986 0.7328 0.0
C1153 C 0.1736 0.71096 0.72379 0.0
N1154 N 0.11556 0.64452 0.71109 0.0
N1155 N 0.16603 0.76356 0.749 0.0
H1156 H 0.21961 0.69944 0.70472 0.0
H1157 H 0.21578 0.73976 0.71687 0.0
H1158 H 0.15162 0.78174 0.75896 0.0
H1159 H 0.1905 0.76951 0.74807 0.0
H1160 H 0.09159 0.6373 0.71384 0.0
H1161 H 0.13059 0.62693 0.70082 0.0
H1162 H 0.06125 0.67568 0.72425 0.0
H1163 H 0.05891 0.71333 0.74346 0.0
C1164 C 0.50033 0.87315 0.93095 0.0
C1165 C 0.50788 0.84307 0.94517 0.0
C1166 C 0.56545 0.85485 0.93993 0.0
C1167 C 0.55717 0.88801 0.937 0.0
N1168 N 0.51802 0.92849 0.92222 0.0
N1169 N 0.5458 0.79938 0.94481 0.0
C1170 C 0.52503 0.89699 0.92899 0.0
C1171 C 0.54007 0.83176 0.94269 0.0
N1172 N 0.46947 0.87869 0.92073 0.0
N1173 N 0.59728 0.84623 0.94266 0.0
H1174 H 0.5266 0.78306 0.94679 0.0
H1175 H 0.56859 0.78884 0.94238 0.0
H1176 H 0.61587 0.86311 0.93989 0.0
H1177 H 0.6052 0.82288 0.94771 0.0
H1178 H 0.46213 0.89968 0.90891 0.0
H1179 H 0.45227 0.86024 0.9217 0.0
H1180 H 0.49453 0.93729 0.91942 0.0
H1181 H 0.53619 0.94589 0.92006 0.0
C1182 C 0.94593 0.11488 0.39439 0.0
C1183 C 0.93022 0.08469 0.39283 0.0
C1184 C 0.97632 0.059 0.4189 0.0
C1185 C 0.98574 0.08998 0.43041 0.0
N1186 N 0.98564 0.14798 0.42229 0.0
N1187 N 0.93914 0.02818 0.38478 0.0
C1188 C 0.97332 0.11822 0.41508 0.0
C1189 C 0.94881 0.05664 0.39831 0.0
N1190 N 0.9329 0.1402 0.37779 0.0
N1191 N 0.99261 0.0322 0.42927 0.0
H1192 H 0.91926 0.02736 0.36912 0.0
H1193 H 0.9519 0.00656 0.38685 0.0
H1194 H 0.0137 0.03396 0.44314 0.0
H1195 H 0.98531 0.00862 0.42443 0.0
H1196 H 0.94348 0.16296 0.37631 0.0
H1197 H 0.91229 0.137 0.36342 0.0
H1198 H 0.97515 0.16959 0.41477 0.0
H1199 H 0.0066 0.15123 0.43589 0.0
loop_
_geom_bond_atom_site_label_1
_geom_bond_atom_site_label_2
_geom_bond_distance
_geom_bond_site_symmetry_2
_ccdc_geom_bond_type
Zn0 O3 2.031 . S
Zn0 O5 2.049 . S
Zn0 O10 2.067 . S
Zn1 O2 1.962 . S
Zn1 O4 1.986 . S
Zn1 O6 1.996 . S
Zn1 O9 1.943 . S
O2 Zn1 1.962 . S
O2 C7 1.254 . S
O3 Zn0 2.031 . S
O3 C7 1.269 . S
O4 Zn1 1.986 . S
O4 C11 1.262 . S
O5 Zn0 2.049 . S
O5 C13 1.260 . S
O6 Zn1 1.996 . S
O6 C13 1.257 . S
C7 O2 1.254 . S
C7 O3 1.269 . S
C8 O9 1.249 . S
C8 O10 1.270 . S
O9 Zn1 1.943 . S
O9 C8 1.249 . S
O10 Zn0 2.067 . S
O10 C8 1.270 . S
C11 O4 1.262 . S
C11 O12 1.232 . S
O12 C11 1.232 . S
C13 O5 1.260 . S
C13 O6 1.257 . S
Zn14 O17 2.031 . S
Zn14 O19 2.049 . S
Zn14 O24 2.067 1_545 S
Zn15 O16 1.962 1_655 S
Zn15 O18 1.986 . S
Zn15 O20 1.996 . S
Zn15 O23 1.943 . S
O16 Zn15 1.962 1_455 S
O16 C21 1.254 1_465 S
O17 Zn14 2.031 . S
O17 C21 1.269 . S
O18 Zn15 1.986 . S
O18 C25 1.262 . S
O19 Zn14 2.049 . S
O19 C27 1.260 1_545 S
O20 Zn15 1.996 . S
O20 C27 1.257 . S
C21 O16 1.254 1_645 S
C21 O17 1.269 . S
C22 O23 1.249 . S
C22 O24 1.270 . S
O23 Zn15 1.943 . S
O23 C22 1.249 . S
O24 Zn14 2.067 1_565 S
O24 C22 1.270 . S
C25 O18 1.262 . S
C25 O26 1.232 1_655 S
O26 C25 1.232 1_455 S
C27 O19 1.260 1_565 S
C27 O20 1.257 . S
Zn28 O31 2.031 . S
Zn28 O33 2.049 . S
Zn28 O38 2.067 . S
Zn29 O30 1.962 . S
Zn29 O32 1.986 . S
Zn29 O34 1.996 . S
Zn29 O37 1.943 . S
O30 Zn29 1.962 . S
O30 C35 1.254 . S
O31 Zn28 2.031 . S
O31 C35 1.269 . S
O32 Zn29 1.986 . S
O32 C39 1.262 . S
O33 Zn28 2.049 . S
O33 C41 1.260 . S
O34 Zn29 1.996 . S
O34 C41 1.257 . S
C35 O30 1.254 . S
C35 O31 1.269 . S
C36 O37 1.249 . S
C36 O38 1.270 . S
O37 Zn29 1.943 . S
O37 C36 1.249 . S
O38 Zn28 2.067 . S
O38 C36 1.270 . S
C39 O32 1.262 . S
C39 O40 1.232 . S
O40 C39 1.232 . S
C41 O33 1.260 . S
C41 O34 1.257 . S
Zn42 O45 2.031 . S
Zn42 O47 2.049 . S
Zn42 O52 2.067 1_565 S
Zn43 O44 1.962 . S
Zn43 O46 1.986 . S
Zn43 O48 1.996 . S
Zn43 O51 1.943 . S
O44 Zn43 1.962 . S
O44 C49 1.254 1_545 S
O45 Zn42 2.031 . S
O45 C49 1.269 . S
O46 Zn43 1.986 . S
O46 C53 1.262 . S
O47 Zn42 2.049 . S
O47 C55 1.260 1_565 S
O48 Zn43 1.996 . S
O48 C55 1.257 . S
C49 O44 1.254 1_565 S
C49 O45 1.269 . S
C50 O51 1.249 . S
C50 O52 1.270 . S
O51 Zn43 1.943 . S
O51 C50 1.249 . S
O52 Zn42 2.067 1_545 S
O52 C50 1.270 . S
C53 O46 1.262 . S
C53 O54 1.232 . S
O54 C53 1.232 . S
C55 O47 1.260 1_545 S
C55 O48 1.257 . S
Zn56 O59 2.031 . S
Zn56 O61 2.049 . S
Zn56 O66 2.067 . S
Zn57 O58 1.962 . S
Zn57 O60 1.986 . S
Zn57 O62 1.996 . S
Zn57 O65 1.943 . S
O58 Zn57 1.962 . S
O58 C63 1.254 . S
O59 Zn56 2.031 . S
O59 C63 1.269 . S
O60 Zn57 1.986 . S
O60 C67 1.262 . S
O61 Zn56 2.049 . S
O61 C69 1.260 . S
O62 Zn57 1.996 . S
O62 C69 1.257 . S
C63 O58 1.254 . S
C63 O59 1.269 . S
C64 O65 1.249 . S
C64 O66 1.270 . S
O65 Zn57 1.943 . S
O65 C64 1.249 . S
O66 Zn56 2.067 . S
O66 C64 1.270 . S
C67 O60 1.262 . S
C67 O68 1.232 . S
O68 C67 1.232 . S
C69 O61 1.260 . S
C69 O62 1.257 . S
Zn70 O73 2.031 . S
Zn70 O75 2.049 . S
Zn70 O80 2.067 . S
Zn71 O72 1.962 1_455 S
Zn71 O74 1.986 . S
Zn71 O76 1.996 . S
Zn71 O79 1.943 . S
O72 Zn71 1.962 1_655 S
O72 C77 1.254 1_655 S
O73 Zn70 2.031 . S
O73 C77 1.269 . S
O74 Zn71 1.986 . S
O74 C81 1.262 . S
O75 Zn70 2.049 . S
O75 C83 1.260 . S
O76 Zn71 1.996 . S
O76 C83 1.257 . S
C77 O72 1.254 1_455 S
C77 O73 1.269 . S
C78 O79 1.249 . S
C78 O80 1.270 . S
O79 Zn71 1.943 . S
O79 C78 1.249 . S
O80 Zn70 2.067 . S
O80 C78 1.270 . S
C81 O74 1.262 . S
C81 O82 1.232 1_455 S
O82 C81 1.232 1_655 S
C83 O75 1.260 . S
C83 O76 1.257 . S
Zn84 O87 2.031 . S
Zn84 O89 2.049 . S
Zn84 O94 2.067 . S
Zn85 O86 1.962 . S
Zn85 O88 1.986 . S
Zn85 O90 1.996 . S
Zn85 O93 1.943 . S
O86 Zn85 1.962 . S
O86 C91 1.254 . S
O87 Zn84 2.031 . S
O87 C91 1.269 . S
O88 Zn85 1.986 . S
O88 C95 1.262 . S
O89 Zn84 2.049 . S
O89 C97 1.260 . S
O90 Zn85 1.996 . S
O90 C97 1.257 . S
C91 O86 1.254 . S
C91 O87 1.269 . S
C92 O93 1.249 . S
C92 O94 1.270 . S
O93 Zn85 1.943 . S
O93 C92 1.249 . S
O94 Zn84 2.067 . S
O94 C92 1.270 . S
C95 O88 1.262 . S
C95 O96 1.232 . S
O96 C95 1.232 . S
C97 O89 1.260 . S
C97 O90 1.257 . S
Zn98 O101 2.031 . S
Zn98 O103 2.049 . S
Zn98 O108 2.067 . S
Zn99 O100 1.962 . S
Zn99 O102 1.986 . S
Zn99 O104 1.996 . S
Zn99 O107 1.943 . S
O100 Zn99 1.962 . S
O100 C105 1.254 . S
O101 Zn98 2.031 . S
O101 C105 1.269 . S
O102 Zn99 1.986 . S
O102 C109 1.262 . S
O103 Zn98 2.049 . S
O103 C111 1.260 . S
O104 Zn99 1.996 . S
O104 C111 1.257 . S
C105 O100 1.254 . S
C105 O101 1.269 . S
C106 O107 1.249 . S
C106 O108 1.270 . S
O107 Zn99 1.943 . S
O107 C106 1.249 . S
O108 Zn98 2.067 . S
O108 C106 1.270 . S
C109 O102 1.262 . S
C109 O110 1.232 . S
O110 C109 1.232 . S
C111 O103 1.260 . S
C111 O104 1.257 . S
Zn112 O115 2.031 . S
Zn112 O117 2.049 . S
Zn112 O122 2.067 . S
Zn113 O114 1.962 . S
Zn113 O116 1.986 . S
Zn113 O118 1.996 . S
Zn113 O121 1.943 . S
O114 Zn113 1.962 . S
O114 C119 1.254 . S
O115 Zn112 2.031 . S
O115 C119 1.269 . S
O116 Zn113 1.986 . S
O116 C123 1.262 . S
O117 Zn112 2.049 . S
O117 C125 1.260 . S
O118 Zn113 1.996 . S
O118 C125 1.257 . S
C119 O114 1.254 . S
C119 O115 1.269 . S
C120 O121 1.249 . S
C120 O122 1.270 . S
O121 Zn113 1.943 . S
O121 C120 1.249 . S
O122 Zn112 2.067 . S
O122 C120 1.270 . S
C123 O116 1.262 . S
C123 O124 1.232 . S
O124 C123 1.232 . S
C125 O117 1.260 . S
C125 O118 1.257 . S
Zn126 O129 2.031 . S
Zn126 O131 2.049 . S
Zn126 O136 2.067 1_655 S
Zn127 O128 1.962 . S
Zn127 O130 1.986 . S
Zn127 O132 1.996 . S
Zn127 O135 1.943 . S
O128 Zn127 1.962 . S
O128 C133 1.254 1_455 S
O129 Zn126 2.031 . S
O129 C133 1.269 . S
O130 Zn127 1.986 . S
O130 C137 1.262 . S
O131 Zn126 2.049 . S
O131 C139 1.260 1_655 S
O132 Zn127 1.996 . S
O132 C139 1.257 . S
C133 O128 1.254 1_655 S
C133 O129 1.269 . S
C134 O135 1.249 . S
C134 O136 1.270 . S
O135 Zn127 1.943 . S
O135 C134 1.249 . S
O136 Zn126 2.067 1_455 S
O136 C134 1.270 . S
C137 O130 1.262 . S
C137 O138 1.232 . S
O138 C137 1.232 . S
C139 O131 1.260 1_455 S
C139 O132 1.257 . S
Zn140 O143 2.031 . S
Zn140 O145 2.049 . S
Zn140 O150 2.067 . S
Zn141 O142 1.962 . S
Zn141 O144 1.986 . S
Zn141 O146 1.996 . S
Zn141 O149 1.943 . S
O142 Zn141 1.962 . S
O142 C147 1.254 . S
O143 Zn140 2.031 . S
O143 C147 1.269 . S
O144 Zn141 1.986 . S
O144 C151 1.262 . S
O145 Zn140 2.049 . S
O145 C153 1.260 . S
O146 Zn141 1.996 . S
O146 C153 1.257 . S
C147 O142 1.254 . S
C147 O143 1.269 . S
C148 O149 1.249 . S
C148 O150 1.270 . S
O149 Zn141 1.943 . S
O149 C148 1.249 . S
O150 Zn140 2.067 . S
O150 C148 1.270 . S
C151 O144 1.262 . S
C151 O152 1.232 . S
O152 C151 1.232 . S
C153 O145 1.260 . S
C153 O146 1.257 . S
Zn154 O157 2.031 . S
Zn154 O159 2.049 . S
Zn154 O164 2.067 . S
Zn155 O156 1.962 1_554 S
Zn155 O158 1.986 . S
Zn155 O160 1.996 . S
Zn155 O163 1.943 . S
O156 Zn155 1.962 1_556 S
O156 C161 1.254 1_556 S
O157 Zn154 2.031 . S
O157 C161 1.269 . S
O158 Zn155 1.986 . S
O158 C165 1.262 . S
O159 Zn154 2.049 . S
O159 C167 1.260 . S
O160 Zn155 1.996 . S
O160 C167 1.257 . S
C161 O156 1.254 1_554 S
C161 O157 1.269 . S
C162 O163 1.249 . S
C162 O164 1.270 . S
O163 Zn155 1.943 . S
O163 C162 1.249 . S
O164 Zn154 2.067 . S
O164 C162 1.270 . S
C165 O158 1.262 . S
C165 O166 1.232 1_554 S
O166 C165 1.232 1_556 S
C167 O159 1.260 . S
C167 O160 1.257 . S
Zn168 O171 2.031 . S
Zn168 O173 2.049 . S
Zn168 O178 2.067 . S
Zn169 O170 1.962 . S
Zn169 O172 1.986 . S
Zn169 O174 1.996 . S
Zn169 O177 1.943 . S
O170 Zn169 1.962 . S
O170 C175 1.254 . S
O171 Zn168 2.031 . S
O171 C175 1.269 . S
O172 Zn169 1.986 . S
O172 C179 1.262 . S
O173 Zn168 2.049 . S
O173 C181 1.260 . S
O174 Zn169 1.996 . S
O174 C181 1.257 . S
C175 O170 1.254 . S
C175 O171 1.269 . S
C176 O177 1.249 . S
C176 O178 1.270 . S
O177 Zn169 1.943 . S
O177 C176 1.249 . S
O178 Zn168 2.067 . S
O178 C176 1.270 . S
C179 O172 1.262 . S
C179 O180 1.232 . S
O180 C179 1.232 . S
C181 O173 1.260 . S
C181 O174 1.257 . S
Zn182 O185 2.031 . S
Zn182 O187 2.049 . S
Zn182 O192 2.067 1_455 S
Zn183 O184 1.962 1_556 S
Zn183 O186 1.986 . S
Zn183 O188 1.996 . S
Zn183 O191 1.943 . S
O184 Zn183 1.962 1_554 S
O184 C189 1.254 1_654 S
O185 Zn182 2.031 . S
O185 C189 1.269 . S
O186 Zn183 1.986 . S
O186 C193 1.262 . S
O187 Zn182 2.049 . S
O187 C195 1.260 1_455 S
O188 Zn183 1.996 . S
O188 C195 1.257 . S
C189 O184 1.254 1_456 S
C189 O185 1.269 . S
C190 O191 1.249 . S
C190 O192 1.270 . S
O191 Zn183 1.943 . S
O191 C190 1.249 . S
O192 Zn182 2.067 1_655 S
O192 C190 1.270 . S
C193 O186 1.262 . S
C193 O194 1.232 1_556 S
O194 C193 1.232 1_554 S
C195 O187 1.260 1_655 S
C195 O188 1.257 . S
Zn196 O199 2.031 . S
Zn196 O201 2.049 . S
Zn196 O206 2.067 . S
Zn197 O198 1.962 . S
Zn197 O200 1.986 . S
Zn197 O202 1.996 . S
Zn197 O205 1.943 . S
O198 Zn197 1.962 . S
O198 C203 1.254 . S
O199 Zn196 2.031 . S
O199 C203 1.269 . S
O200 Zn197 1.986 . S
O200 C207 1.262 . S
O201 Zn196 2.049 . S
O201 C209 1.260 . S
O202 Zn197 1.996 . S
O202 C209 1.257 . S
C203 O198 1.254 . S
C203 O199 1.269 . S
C204 O205 1.249 . S
C204 O206 1.270 . S
O205 Zn197 1.943 . S
O205 C204 1.249 . S
O206 Zn196 2.067 . S
O206 C204 1.270 . S
C207 O200 1.262 . S
C207 O208 1.232 . S
O208 C207 1.232 . S
C209 O201 1.260 . S
C209 O202 1.257 . S
Zn210 O213 2.031 . S
Zn210 O215 2.049 . S
Zn210 O220 2.067 . S
Zn211 O212 1.962 . S
Zn211 O214 1.986 . S
Zn211 O216 1.996 . S
Zn211 O219 1.943 . S
O212 Zn211 1.962 . S
O212 C217 1.254 . S
O213 Zn210 2.031 . S
O213 C217 1.269 . S
O214 Zn211 1.986 . S
O214 C221 1.262 . S
O215 Zn210 2.049 . S
O215 C223 1.260 . S
O216 Zn211 1.996 . S
O216 C223 1.257 . S
C217 O212 1.254 . S
C217 O213 1.269 . S
C218 O219 1.249 . S
C218 O220 1.270 . S
O219 Zn211 1.943 . S
O219 C218 1.249 . S
O220 Zn210 2.067 . S
O220 C218 1.270 . S
C221 O214 1.262 . S
C221 O222 1.232 . S
O222 C221 1.232 . S
C223 O215 1.260 . S
C223 O216 1.257 . S
Zn224 O227 2.031 . S
Zn224 O229 2.049 . S
Zn224 O234 2.067 . S
Zn225 O226 1.962 . S
Zn225 O228 1.986 . S
Zn225 O230 1.996 . S
Zn225 O233 1.943 . S
O226 Zn225 1.962 . S
O226 C231 1.254 . S
O227 Zn224 2.031 . S
O227 C231 1.269 . S
O228 Zn225 1.986 . S
O228 C235 1.262 . S
O229 Zn224 2.049 . S
O229 C237 1.260 . S
O230 Zn225 1.996 . S
O230 C237 1.257 . S
C231 O226 1.254 . S
C231 O227 1.269 . S
C232 O233 1.249 . S
C232 O234 1.270 . S
O233 Zn225 1.943 . S
O233 C232 1.249 . S
O234 Zn224 2.067 . S
O234 C232 1.270 . S
C235 O228 1.262 . S
C235 O236 1.232 . S
O236 C235 1.232 . S
C237 O229 1.260 . S
C237 O230 1.257 . S
Zn238 O241 2.031 . S
Zn238 O243 2.049 . S
Zn238 O248 2.067 . S
Zn239 O240 1.962 . S
Zn239 O242 1.986 . S
Zn239 O244 1.996 . S
Zn239 O247 1.943 . S
O240 Zn239 1.962 . S
O240 C245 1.254 . S
O241 Zn238 2.031 . S
O241 C245 1.269 . S
O242 Zn239 1.986 . S
O242 C249 1.262 . S
O243 Zn238 2.049 . S
O243 C251 1.260 . S
O244 Zn239 1.996 . S
O244 C251 1.257 . S
C245 O240 1.254 . S
C245 O241 1.269 . S
C246 O247 1.249 . S
C246 O248 1.270 . S
O247 Zn239 1.943 . S
O247 C246 1.249 . S
O248 Zn238 2.067 . S
O248 C246 1.270 . S
C249 O242 1.262 . S
C249 O250 1.232 . S
O250 C249 1.232 . S
C251 O243 1.260 . S
C251 O244 1.257 . S
Zn252 O255 2.031 . S
Zn252 O257 2.049 . S
Zn252 O262 2.067 1_556 S
Zn253 O254 1.962 . S
Zn253 O256 1.986 . S
Zn253 O258 1.996 . S
Zn253 O261 1.943 . S
O254 Zn253 1.962 . S
O254 C259 1.254 1_554 S
O255 Zn252 2.031 . S
O255 C259 1.269 . S
O256 Zn253 1.986 . S
O256 C263 1.262 . S
O257 Zn252 2.049 . S
O257 C265 1.260 1_556 S
O258 Zn253 1.996 . S
O258 C265 1.257 . S
C259 O254 1.254 1_556 S
C259 O255 1.269 . S
C260 O261 1.249 . S
C260 O262 1.270 . S
O261 Zn253 1.943 . S
O261 C260 1.249 . S
O262 Zn252 2.067 1_554 S
O262 C260 1.270 . S
C263 O256 1.262 . S
C263 O264 1.232 . S
O264 C263 1.232 . S
C265 O257 1.260 1_554 S
C265 O258 1.257 . S
Zn266 O269 2.031 . S
Zn266 O271 2.049 . S
Zn266 O276 2.067 . S
Zn267 O268 1.962 . S
Zn267 O270 1.986 . S
Zn267 O272 1.996 . S
Zn267 O275 1.943 . S
O268 Zn267 1.962 . S
O268 C273 1.254 . S
O269 Zn266 2.031 . S
O269 C273 1.269 . S
O270 Zn267 1.986 . S
O270 C277 1.262 . S
O271 Zn266 2.049 . S
O271 C279 1.260 . S
O272 Zn267 1.996 . S
O272 C279 1.257 . S
C273 O268 1.254 . S
C273 O269 1.269 . S
C274 O275 1.249 . S
C274 O276 1.270 . S
O275 Zn267 1.943 . S
O275 C274 1.249 . S
O276 Zn266 2.067 . S
O276 C274 1.270 . S
C277 O270 1.262 . S
C277 O278 1.232 . S
O278 C277 1.232 . S
C279 O271 1.260 . S
C279 O272 1.257 . S
Zn280 O283 2.031 . S
Zn280 O285 2.049 . S
Zn280 O290 2.067 . S
Zn281 O282 1.962 . S
Zn281 O284 1.986 . S
Zn281 O286 1.996 . S
Zn281 O289 1.943 . S
O282 Zn281 1.962 . S
O282 C287 1.254 . S
O283 Zn280 2.031 . S
O283 C287 1.269 . S
O284 Zn281 1.986 . S
O284 C291 1.262 . S
O285 Zn280 2.049 . S
O285 C293 1.260 . S
O286 Zn281 1.996 . S
O286 C293 1.257 . S
C287 O282 1.254 . S
C287 O283 1.269 . S
C288 O289 1.249 . S
C288 O290 1.270 . S
O289 Zn281 1.943 . S
O289 C288 1.249 . S
O290 Zn280 2.067 . S
O290 C288 1.270 . S
C291 O284 1.262 . S
C291 O292 1.232 . S
O292 C291 1.232 . S
C293 O285 1.260 . S
C293 O286 1.257 . S
Zn294 O297 2.031 . S
Zn294 O299 2.049 . S
Zn294 O304 2.067 . S
Zn295 O296 1.962 . S
Zn295 O298 1.986 . S
Zn295 O300 1.996 . S
Zn295 O303 1.943 . S
O296 Zn295 1.962 . S
O296 C301 1.254 . S
O297 Zn294 2.031 . S
O297 C301 1.269 . S
O298 Zn295 1.986 . S
O298 C305 1.262 . S
O299 Zn294 2.049 . S
O299 C307 1.260 . S
O300 Zn295 1.996 . S
O300 C307 1.257 . S
C301 O296 1.254 . S
C301 O297 1.269 . S
C302 O303 1.249 . S
C302 O304 1.270 . S
O303 Zn295 1.943 . S
O303 C302 1.249 . S
O304 Zn294 2.067 . S
O304 C302 1.270 . S
C305 O298 1.262 . S
C305 O306 1.232 . S
O306 C305 1.232 . S
C307 O299 1.260 . S
C307 O300 1.257 . S
Zn308 O311 2.031 . S
Zn308 O313 2.049 . S
Zn308 O318 2.067 1_554 S
Zn309 O310 1.962 1_565 S
Zn309 O312 1.986 . S
Zn309 O314 1.996 . S
Zn309 O317 1.943 . S
O310 Zn309 1.962 1_545 S
O310 C315 1.254 1_546 S
O311 Zn308 2.031 . S
O311 C315 1.269 . S
O312 Zn309 1.986 . S
O312 C319 1.262 . S
O313 Zn308 2.049 . S
O313 C321 1.260 1_554 S
O314 Zn309 1.996 . S
O314 C321 1.257 . S
C315 O310 1.254 1_564 S
C315 O311 1.269 . S
C316 O317 1.249 . S
C316 O318 1.270 . S
O317 Zn309 1.943 . S
O317 C316 1.249 . S
O318 Zn308 2.067 1_556 S
O318 C316 1.270 . S
C319 O312 1.262 . S
C319 O320 1.232 1_565 S
O320 C319 1.232 1_545 S
C321 O313 1.260 1_556 S
C321 O314 1.257 . S
Zn322 O325 2.031 . S
Zn322 O327 2.049 . S
Zn322 O332 2.067 . S
Zn323 O324 1.962 1_545 S
Zn323 O326 1.986 . S
Zn323 O328 1.996 . S
Zn323 O331 1.943 . S
O324 Zn323 1.962 1_565 S
O324 C329 1.254 1_565 S
O325 Zn322 2.031 . S
O325 C329 1.269 . S
O326 Zn323 1.986 . S
O326 C333 1.262 . S
O327 Zn322 2.049 . S
O327 C335 1.260 . S
O328 Zn323 1.996 . S
O328 C335 1.257 . S
C329 O324 1.254 1_545 S
C329 O325 1.269 . S
C330 O331 1.249 . S
C330 O332 1.270 . S
O331 Zn323 1.943 . S
O331 C330 1.249 . S
O332 Zn322 2.067 . S
O332 C330 1.270 . S
C333 O326 1.262 . S
C333 O334 1.232 1_545 S
O334 C333 1.232 1_565 S
C335 O327 1.260 . S
C335 O328 1.257 . S
C336 C337 1.363 . S
C336 C342 1.379 . S
C336 N344 1.356 . S
C337 C336 1.363 . S
C337 C343 1.363 . S
C338 C339 1.363 . S
C338 C343 1.379 . S
C338 N345 1.356 . S
C339 C338 1.363 . S
C339 C342 1.363 . S
N340 C342 1.356 . S
N340 H352 0.984 . S
N340 H353 0.985 . S
N341 C343 1.356 . S
N341 H346 0.984 . S
N341 H347 0.985 . S
C342 C336 1.379 . S
C342 C339 1.363 . S
C342 N340 1.356 . S
C343 C337 1.363 . S
C343 C338 1.379 . S
C343 N341 1.356 . S
N344 C336 1.356 . S
N344 H350 0.984 . S
N344 H351 0.984 . S
N345 C338 1.356 . S
N345 H348 0.984 . S
N345 H349 0.985 . S
H346 N341 0.984 . S
H347 N341 0.985 . S
H348 N345 0.984 . S
H349 N345 0.985 . S
H350 N344 0.984 . S
H351 N344 0.984 . S
H352 N340 0.984 . S
H353 N340 0.985 . S
C354 C355 1.363 . S
C354 C360 1.379 . S
C354 N362 1.356 . S
C355 C354 1.363 . S
C355 C361 1.363 . S
C356 C357 1.363 . S
C356 C361 1.379 . S
C356 N363 1.356 . S
C357 C356 1.363 . S
C357 C360 1.363 . S
N358 C360 1.356 . S
N358 H370 0.984 . S
N358 H371 0.985 . S
N359 C361 1.377 . S
N359 H364 0.964 1_455 S
N359 H365 0.985 . S
C360 C354 1.379 . S
C360 C357 1.363 . S
C360 N358 1.356 . S
C361 C355 1.363 . S
C361 C356 1.379 . S
C361 N359 1.377 . S
N362 C354 1.356 . S
N362 H368 0.984 . S
N362 H369 0.984 1_455 S
N363 C356 1.356 . S
N363 H366 0.984 . S
N363 H367 0.985 . S
H364 N359 0.964 1_655 S
H365 N359 0.985 . S
H366 N363 0.984 . S
H367 N363 0.985 . S
H368 N362 0.984 . S
H369 N362 0.984 1_655 S
H370 N358 0.984 . S
H371 N358 0.985 . S
C372 C373 1.363 . S
C372 C378 1.379 . S
C372 N380 1.356 . S
C373 C372 1.363 . S
C373 C379 1.363 . S
C374 C375 1.363 . S
C374 C379 1.379 . S
C374 N381 1.356 . S
C375 C374 1.363 . S
C375 C378 1.363 . S
N376 C378 1.356 1_554 S
N376 H388 0.984 . S
N376 H389 0.985 . S
N377 C379 1.356 . S
N377 H382 0.984 . S
N377 H383 0.985 . S
C378 C372 1.379 . S
C378 C375 1.363 . S
C378 N376 1.356 1_556 S
C379 C373 1.363 . S
C379 C374 1.379 . S
C379 N377 1.356 . S
N380 C372 1.356 . S
N380 H386 0.984 . S
N380 H387 0.984 . S
N381 C374 1.356 . S
N381 H384 0.984 . S
N381 H385 0.985 . S
H382 N377 0.984 . S
H383 N377 0.985 . S
H384 N381 0.984 . S
H385 N381 0.985 . S
H386 N380 0.984 . S
H387 N380 0.984 . S
H388 N376 0.984 . S
H389 N376 0.985 . S
C390 C391 1.363 . S
C390 C396 1.379 . S
C390 N398 1.356 . S
C391 C390 1.363 . S
C391 C397 1.363 . S
C392 C393 1.363 . S
C392 C397 1.379 . S
C392 N399 1.356 . S
C393 C392 1.363 . S
C393 C396 1.363 . S
N394 C396 1.356 . S
N394 H406 0.984 . S
N394 H407 0.985 . S
N395 C397 1.356 . S
N395 H400 0.984 . S
N395 H401 0.985 . S
C396 C390 1.379 . S
C396 C393 1.363 . S
C396 N394 1.356 . S
C397 C391 1.363 . S
C397 C392 1.379 . S
C397 N395 1.356 . S
N398 C390 1.356 . S
N398 H404 0.984 . S
N398 H405 0.984 . S
N399 C392 1.356 . S
N399 H402 0.984 . S
N399 H403 0.985 . S
H400 N395 0.984 . S
H401 N395 0.985 . S
H402 N399 0.984 . S
H403 N399 0.985 . S
H404 N398 0.984 . S
H405 N398 0.984 . S
H406 N394 0.984 . S
H407 N394 0.985 . S
C408 C409 1.363 . S
C408 C414 1.379 . S
C408 N416 1.356 . S
C409 C408 1.363 . S
C409 C415 1.363 . S
C410 C411 1.363 . S
C410 C415 1.379 . S
C410 N417 1.356 . S
C411 C410 1.363 . S
C411 C414 1.363 . S
N412 C414 1.356 . S
N412 H424 0.984 . S
N412 H425 0.985 . S
N413 C415 1.356 . S
N413 H418 0.984 . S
N413 H419 0.985 . S
C414 C408 1.379 . S
C414 C411 1.363 . S
C414 N412 1.356 . S
C415 C409 1.363 . S
C415 C410 1.379 . S
C415 N413 1.356 . S
N416 C408 1.356 . S
N416 H422 0.984 . S
N416 H423 0.984 . S
N417 C410 1.356 . S
N417 H420 0.984 . S
N417 H421 0.985 . S
H418 N413 0.984 . S
H419 N413 0.985 . S
H420 N417 0.984 . S
H421 N417 0.985 . S
H422 N416 0.984 . S
H423 N416 0.984 . S
H424 N412 0.984 . S
H425 N412 0.985 . S
C426 C427 1.363 . S
C426 C432 1.379 . S
C426 N434 1.356 . S
C427 C426 1.363 . S
C427 C433 1.363 . S
C428 C429 1.363 . S
C428 C433 1.379 . S
C428 N435 1.356 1_655 S
C429 C428 1.363 . S
C429 C432 1.363 . S
N430 C432 1.356 . S
N430 H442 0.984 . S
N430 H443 0.985 . S
N431 C433 1.356 . S
N431 H436 0.984 . S
N431 H437 0.985 . S
C432 C426 1.379 . S
C432 C429 1.363 . S
C432 N430 1.356 . S
C433 C427 1.363 . S
C433 C428 1.379 . S
C433 N431 1.356 . S
N434 C426 1.356 . S
N434 H440 0.984 . S
N434 H441 0.984 . S
N435 C428 1.356 1_455 S
N435 H438 0.984 . S
N435 H439 0.985 . S
H436 N431 0.984 . S
H437 N431 0.985 . S
H438 N435 0.984 . S
H439 N435 0.985 . S
H440 N434 0.984 . S
H441 N434 0.984 . S
H442 N430 0.984 . S
H443 N430 0.985 . S
C444 C445 1.363 . S
C444 C450 1.379 . S
C444 N452 1.356 . S
C445 C444 1.363 . S
C445 C451 1.363 . S
C446 C447 1.363 . S
C446 C451 1.379 . S
C446 N453 1.356 . S
C447 C446 1.363 . S
C447 C450 1.363 . S
N448 C450 1.356 1_556 S
N448 H460 0.984 . S
N448 H461 0.985 . S
N449 C451 1.356 . S
N449 H454 0.984 . S
N449 H455 0.985 . S
C450 C444 1.379 . S
C450 C447 1.363 . S
C450 N448 1.356 1_554 S
C451 C445 1.363 . S
C451 C446 1.379 . S
C451 N449 1.356 . S
N452 C444 1.356 . S
N452 H458 0.984 . S
N452 H459 0.984 . S
N453 C446 1.356 . S
N453 H456 0.984 . S
N453 H457 0.985 . S
H454 N449 0.984 . S
H455 N449 0.985 . S
H456 N453 0.984 . S
H457 N453 0.985 . S
H458 N452 0.984 . S
H459 N452 0.984 . S
H460 N448 0.984 . S
H461 N448 0.985 . S
C462 C463 1.363 . S
C462 C468 1.379 . S
C462 N470 1.356 . S
C463 C462 1.363 . S
C463 C469 1.363 . S
C464 C465 1.363 . S
C464 C469 1.379 . S
C464 N471 1.356 . S
C465 C464 1.363 . S
C465 C468 1.363 . S
N466 C468 1.356 . S
N466 H478 0.984 . S
N466 H479 0.985 . S
N467 C469 1.356 . S
N467 H472 0.984 . S
N467 H473 0.985 . S
C468 C462 1.379 . S
C468 C465 1.363 . S
C468 N466 1.356 . S
C469 C463 1.363 . S
C469 C464 1.379 . S
C469 N467 1.356 . S
N470 C462 1.356 . S
N470 H476 0.984 . S
N470 H477 0.984 . S
N471 C464 1.356 . S
N471 H474 0.984 . S
N471 H475 0.985 . S
H472 N467 0.984 . S
H473 N467 0.985 . S
H474 N471 0.984 . S
H475 N471 0.985 . S
H476 N470 0.984 . S
H477 N470 0.984 . S
H478 N466 0.984 . S
H479 N466 0.985 . S
C480 C481 1.363 . S
C480 C486 1.379 . S
C480 N488 1.356 . S
C481 C480 1.363 . S
C481 C487 1.363 . S
C482 C483 1.363 . S
C482 C487 1.379 . S
C482 N489 1.356 . S
C483 C482 1.363 . S
C483 C486 1.363 . S
N484 C486 1.356 . S
N484 H496 0.984 . S
N484 H497 0.985 . S
N485 C487 1.356 . S
N485 H490 0.984 . S
N485 H491 0.985 . S
C486 C480 1.379 . S
C486 C483 1.363 . S
C486 N484 1.356 . S
C487 C481 1.363 . S
C487 C482 1.379 . S
C487 N485 1.356 . S
N488 C480 1.356 . S
N488 H494 0.984 . S
N488 H495 0.984 . S
N489 C482 1.356 . S
N489 H492 0.984 . S
N489 H493 0.985 . S
H490 N485 0.984 . S
H491 N485 0.985 . S
H492 N489 0.984 . S
H493 N489 0.985 . S
H494 N488 0.984 . S
H495 N488 0.984 . S
H496 N484 0.984 . S
H497 N484 0.985 . S
C498 C499 1.363 . S
C498 C504 1.379 . S
C498 N506 1.356 . S
C499 C498 1.363 . S
C499 C505 1.363 . S
C500 C501 1.363 . S
C500 C505 1.379 . S
C500 N507 1.356 . S
C501 C500 1.363 . S
C501 C504 1.363 . S
N502 C504 1.356 . S
N502 H514 0.984 . S
N502 H515 0.985 . S
N503 C505 1.356 1_565 S
N503 H508 0.984 . S
N503 H509 0.985 . S
C504 C498 1.379 . S
C504 C501 1.363 . S
C504 N502 1.356 . S
C505 C499 1.363 . S
C505 C500 1.379 . S
C505 N503 1.356 1_545 S
N506 C498 1.356 . S
N506 H512 0.984 . S
N506 H513 0.984 . S
N507 C500 1.356 . S
N507 H510 0.984 . S
N507 H511 0.985 . S
H508 N503 0.984 . S
H509 N503 0.985 . S
H510 N507 0.984 . S
H511 N507 0.985 . S
H512 N506 0.984 . S
H513 N506 0.984 . S
H514 N502 0.984 . S
H515 N502 0.985 . S
C516 C517 1.363 . S
C516 C522 1.379 . S
C516 N524 1.356 . S
C517 C516 1.363 . S
C517 C523 1.363 . S
C518 C519 1.363 . S
C518 C523 1.379 . S
C518 N525 1.356 . S
C519 C518 1.363 . S
C519 C522 1.363 . S
N520 C522 1.356 1_545 S
N520 H532 0.984 . S
N520 H533 0.985 . S
N521 C523 1.356 . S
N521 H526 0.984 . S
N521 H527 0.985 . S
C522 C516 1.379 . S
C522 C519 1.363 . S
C522 N520 1.356 1_565 S
C523 C517 1.363 . S
C523 C518 1.379 . S
C523 N521 1.356 . S
N524 C516 1.356 . S
N524 H530 0.984 . S
N524 H531 0.984 . S
N525 C518 1.356 . S
N525 H528 0.984 . S
N525 H529 0.985 . S
H526 N521 0.984 . S
H527 N521 0.985 . S
H528 N525 0.984 . S
H529 N525 0.985 . S
H530 N524 0.984 . S
H531 N524 0.984 . S
H532 N520 0.984 . S
H533 N520 0.985 . S
C534 C535 1.363 . S
C534 C540 1.379 . S
C534 N542 1.356 . S
C535 C534 1.363 . S
C535 C541 1.363 . S
C536 C537 1.363 . S
C536 C541 1.379 . S
C536 N543 1.356 . S
C537 C536 1.363 . S
C537 C540 1.363 . S
N538 C540 1.356 . S
N538 H550 0.984 . S
N538 H551 0.985 . S
N539 C541 1.356 . S
N539 H544 0.984 . S
N539 H545 0.985 . S
C540 C534 1.379 . S
C540 C537 1.363 . S
C540 N538 1.356 . S
C541 C535 1.363 . S
C541 C536 1.379 . S
C541 N539 1.356 . S
N542 C534 1.356 . S
N542 H548 0.984 . S
N542 H549 0.984 . S
N543 C536 1.356 . S
N543 H546 0.984 . S
N543 H547 0.985 . S
H544 N539 0.984 . S
H545 N539 0.985 . S
H546 N543 0.984 . S
H547 N543 0.985 . S
H548 N542 0.984 . S
H549 N542 0.984 . S
H550 N538 0.984 . S
H551 N538 0.985 . S
C552 C553 1.363 . S
C552 C558 1.379 . S
C552 N560 1.356 . S
C553 C552 1.363 . S
C553 C559 1.363 . S
C554 C555 1.363 . S
C554 C559 1.379 . S
C554 N561 1.356 . S
C555 C554 1.363 . S
C555 C558 1.363 . S
N556 C558 1.356 . S
N556 H568 0.984 . S
N556 H569 0.985 . S
N557 C559 1.356 . S
N557 H562 0.984 . S
N557 H563 0.985 . S
C558 C552 1.379 . S
C558 C555 1.363 . S
C558 N556 1.356 . S
C559 C553 1.363 . S
C559 C554 1.379 . S
C559 N557 1.356 . S
N560 C552 1.356 . S
N560 H566 0.984 . S
N560 H567 0.984 . S
N561 C554 1.356 . S
N561 H564 0.984 . S
N561 H565 0.985 . S
H562 N557 0.984 . S
H563 N557 0.985 . S
H564 N561 0.984 . S
H565 N561 0.985 . S
H566 N560 0.984 . S
H567 N560 0.984 . S
H568 N556 0.984 . S
H569 N556 0.985 . S
C570 C571 1.363 1_545 S
C570 C576 1.379 . S
C570 N578 1.356 . S
C571 C570 1.363 1_565 S
C571 C577 1.363 . S
C572 C573 1.363 . S
C572 C577 1.379 1_545 S
C572 N579 1.356 . S
C573 C572 1.363 . S
C573 C576 1.363 . S
N574 C576 1.356 . S
N574 H586 0.984 . S
N574 H587 0.985 . S
N575 C577 1.356 . S
N575 H580 0.984 . S
N575 H581 0.985 . S
C576 C570 1.379 . S
C576 C573 1.363 . S
C576 N574 1.356 . S
C577 C571 1.363 . S
C577 C572 1.379 1_565 S
C577 N575 1.356 . S
N578 C570 1.356 . S
N578 H584 0.984 . S
N578 H585 0.984 . S
N579 C572 1.356 . S
N579 H582 0.984 . S
N579 H583 0.985 1_545 S
H580 N575 0.984 . S
H581 N575 0.985 . S
H582 N579 0.984 . S
H583 N579 0.985 1_565 S
H584 N578 0.984 . S
H585 N578 0.984 . S
H586 N574 0.984 . S
H587 N574 0.985 . S
C588 C589 1.363 . S
C588 C594 1.379 1_556 S
C588 N596 1.356 . S
C589 C588 1.363 . S
C589 C595 1.363 . S
C590 C591 1.363 1_556 S
C590 C595 1.379 . S
C590 N597 1.356 . S
C591 C590 1.363 1_554 S
C591 C594 1.363 . S
N592 C594 1.356 . S
N592 H604 0.984 . S
N592 H605 0.985 . S
N593 C595 1.356 . S
N593 H598 0.984 . S
N593 H599 0.985 . S
C594 C588 1.379 1_554 S
C594 C591 1.363 . S
C594 N592 1.356 . S
C595 C589 1.363 . S
C595 C590 1.379 . S
C595 N593 1.356 . S
N596 C588 1.356 . S
N596 H602 0.984 1_556 S
N596 H603 0.984 . S
N597 C590 1.356 . S
N597 H600 0.984 . S
N597 H601 0.985 . S
H598 N593 0.984 . S
H599 N593 0.985 . S
H600 N597 0.984 . S
H601 N597 0.985 . S
H602 N596 0.984 1_554 S
H603 N596 0.984 . S
H604 N592 0.984 . S
H605 N592 0.985 . S
C606 C607 1.363 . S
C606 C612 1.379 1_545 S
C606 N614 1.356 . S
C607 C606 1.363 . S
C607 C613 1.363 1_545 S
C608 C609 1.363 . S
C608 C613 1.379 . S
C608 N615 1.356 . S
C609 C608 1.363 . S
C609 C612 1.363 . S
N610 C612 1.356 . S
N610 H622 0.984 1_565 S
N610 H623 0.985 . S
N611 C613 1.356 . S
N611 H616 0.984 . S
N611 H617 0.985 . S
C612 C606 1.379 1_565 S
C612 C609 1.363 . S
C612 N610 1.356 . S
C613 C607 1.363 1_565 S
C613 C608 1.379 . S
C613 N611 1.356 . S
N614 C606 1.356 . S
N614 H620 0.984 . S
N614 H621 0.984 . S
N615 C608 1.356 . S
N615 H618 0.984 . S
N615 H619 0.985 . S
H616 N611 0.984 . S
H617 N611 0.985 . S
H618 N615 0.984 . S
H619 N615 0.985 . S
H620 N614 0.984 . S
H621 N614 0.984 . S
H622 N610 0.984 1_545 S
H623 N610 0.985 . S
C624 C625 1.363 . S
C624 C630 1.379 . S
C624 N632 1.356 . S
C625 C624 1.363 . S
C625 C631 1.363 . S
C626 C627 1.363 . S
C626 C631 1.379 . S
C626 N633 1.356 . S
C627 C626 1.363 . S
C627 C630 1.363 . S
N628 C630 1.356 . S
N628 H640 0.984 . S
N628 H641 0.985 . S
N629 C631 1.356 . S
N629 H634 0.984 . S
N629 H635 0.985 . S
C630 C624 1.379 . S
C630 C627 1.363 . S
C630 N628 1.356 . S
C631 C625 1.363 . S
C631 C626 1.379 . S
C631 N629 1.356 . S
N632 C624 1.356 . S
N632 H638 0.984 . S
N632 H639 0.984 . S
N633 C626 1.356 . S
N633 H636 0.984 . S
N633 H637 0.985 . S
H634 N629 0.984 . S
H635 N629 0.985 . S
H636 N633 0.984 . S
H637 N633 0.985 . S
H638 N632 0.984 . S
H639 N632 0.984 . S
H640 N628 0.984 . S
H641 N628 0.985 . S
C642 C643 1.363 . S
C642 C648 1.379 . S
C642 N650 1.356 . S
C643 C642 1.363 . S
C643 C649 1.363 . S
C644 C645 1.363 . S
C644 C649 1.379 . S
C644 N651 1.356 . S
C645 C644 1.363 . S
C645 C648 1.363 . S
N646 C648 1.356 . S
N646 H658 0.984 . S
N646 H659 0.985 . S
N647 C649 1.356 . S
N647 H652 0.984 . S
N647 H653 0.985 . S
C648 C642 1.379 . S
C648 C645 1.363 . S
C648 N646 1.356 . S
C649 C643 1.363 . S
C649 C644 1.379 . S
C649 N647 1.356 . S
N650 C642 1.356 . S
N650 H656 0.984 . S
N650 H657 0.984 . S
N651 C644 1.356 . S
N651 H654 0.984 . S
N651 H655 0.985 . S
H652 N647 0.984 . S
H653 N647 0.985 . S
H654 N651 0.984 . S
H655 N651 0.985 . S
H656 N650 0.984 . S
H657 N650 0.984 . S
H658 N646 0.984 . S
H659 N646 0.985 . S
C660 C661 1.363 . S
C660 C666 1.379 1_556 S
C660 N668 1.356 . S
C661 C660 1.363 . S
C661 C667 1.363 1_556 S
C662 C663 1.363 . S
C662 C667 1.379 . S
C662 N669 1.356 . S
C663 C662 1.363 . S
C663 C666 1.363 . S
N664 C666 1.356 . S
N664 H676 0.980 1_554 S
N664 H677 0.985 . S
N665 C667 1.356 . S
N665 H670 0.984 . S
N665 H671 0.985 . S
C666 C660 1.379 1_554 S
C666 C663 1.363 . S
C666 N664 1.356 . S
C667 C661 1.363 1_554 S
C667 C662 1.379 . S
C667 N665 1.356 . S
N668 C660 1.356 . S
N668 H674 0.984 . S
N668 H675 0.984 . S
N669 C662 1.356 . S
N669 H672 0.984 . S
N669 H673 0.985 . S
H670 N665 0.984 . S
H671 N665 0.985 . S
H672 N669 0.984 . S
H673 N669 0.985 . S
H674 N668 0.984 . S
H675 N668 0.984 . S
H676 N664 0.980 1_556 S
H677 N664 0.985 . S
C678 C679 1.363 . S
C678 C684 1.379 . S
C678 N686 1.356 . S
C679 C678 1.363 . S
C679 C685 1.363 . S
C680 C681 1.363 . S
C680 C685 1.379 . S
C680 N687 1.356 . S
C681 C680 1.363 . S
C681 C684 1.363 . S
N682 C684 1.356 . S
N682 H694 0.984 . S
N682 H695 0.985 . S
N683 C685 1.356 . S
N683 H688 0.984 . S
N683 H689 0.985 . S
C684 C678 1.379 . S
C684 C681 1.363 . S
C684 N682 1.356 . S
C685 C679 1.363 . S
C685 C680 1.379 . S
C685 N683 1.356 . S
N686 C678 1.356 . S
N686 H692 0.984 . S
N686 H693 0.984 . S
N687 C680 1.356 . S
N687 H690 0.984 . S
N687 H691 0.985 . S
H688 N683 0.984 . S
H689 N683 0.985 . S
H690 N687 0.984 . S
H691 N687 0.985 . S
H692 N686 0.984 . S
H693 N686 0.984 . S
H694 N682 0.984 . S
H695 N682 0.985 . S
C696 C697 1.363 . S
C696 C702 1.379 . S
C696 N704 1.356 . S
C697 C696 1.363 . S
C697 C703 1.363 . S
C698 C699 1.363 . S
C698 C703 1.379 . S
C698 N705 1.356 . S
C699 C698 1.363 . S
C699 C702 1.363 . S
N700 C702 1.356 . S
N700 H712 0.984 . S
N700 H713 0.985 . S
N701 C703 1.356 . S
N701 H706 0.984 . S
N701 H707 0.985 . S
C702 C696 1.379 . S
C702 C699 1.363 . S
C702 N700 1.356 . S
C703 C697 1.363 . S
C703 C698 1.379 . S
C703 N701 1.356 . S
N704 C696 1.356 . S
N704 H710 0.984 . S
N704 H711 0.984 . S
N705 C698 1.356 . S
N705 H708 0.984 . S
N705 H709 0.985 . S
H706 N701 0.984 . S
H707 N701 0.985 . S
H708 N705 0.984 . S
H709 N705 0.985 . S
H710 N704 0.984 . S
H711 N704 0.984 . S
H712 N700 0.984 . S
H713 N700 0.985 . S
C714 C715 1.363 . S
C714 C720 1.379 1_455 S
C714 N722 1.356 . S
C715 C714 1.363 . S
C715 C721 1.363 1_455 S
C716 C717 1.363 . S
C716 C721 1.379 . S
C716 N723 1.356 . S
C717 C716 1.363 . S
C717 C720 1.363 . S
N718 C720 1.356 . S
N718 H730 0.984 1_655 S
N718 H731 0.985 . S
N719 C721 1.356 . S
N719 H724 0.984 . S
N719 H725 0.985 . S
C720 C714 1.379 1_655 S
C720 C717 1.363 . S
C720 N718 1.356 . S
C721 C715 1.363 1_655 S
C721 C716 1.379 . S
C721 N719 1.356 . S
N722 C714 1.356 . S
N722 H728 0.984 . S
N722 H729 0.984 . S
N723 C716 1.356 . S
N723 H726 0.984 . S
N723 H727 0.985 . S
H724 N719 0.984 . S
H725 N719 0.985 . S
H726 N723 0.984 . S
H727 N723 0.985 . S
H728 N722 0.984 . S
H729 N722 0.984 . S
H730 N718 0.984 1_455 S
H731 N718 0.985 . S
C732 C733 1.363 1_455 S
C732 C738 1.379 . S
C732 N740 1.356 . S
C733 C732 1.363 1_655 S
C733 C739 1.363 . S
C734 C735 1.363 . S
C734 C739 1.379 1_455 S
C734 N741 1.356 . S
C735 C734 1.363 . S
C735 C738 1.363 . S
N736 C738 1.356 . S
N736 H748 0.984 . S
N736 H749 0.985 . S
N737 C739 1.356 . S
N737 H742 0.984 . S
N737 H743 0.985 . S
C738 C732 1.379 . S
C738 C735 1.363 . S
C738 N736 1.356 . S
C739 C733 1.363 . S
C739 C734 1.379 1_655 S
C739 N737 1.356 . S
N740 C732 1.356 . S
N740 H746 0.984 . S
N740 H747 0.984 . S
N741 C734 1.356 . S
N741 H744 0.984 . S
N741 H745 0.985 1_455 S
H742 N737 0.984 . S
H743 N737 0.985 . S
H744 N741 0.984 . S
H745 N741 0.985 1_655 S
H746 N740 0.984 . S
H747 N740 0.984 . S
H748 N736 0.984 . S
H749 N736 0.985 . S
C750 C751 1.363 . S
C750 C756 1.379 . S
C750 N758 1.356 . S
C751 C750 1.363 . S
C751 C757 1.363 . S
C752 C753 1.363 . S
C752 C757 1.379 . S
C752 N759 1.356 . S
C753 C752 1.363 . S
C753 C756 1.363 . S
N754 C756 1.356 . S
N754 H766 0.984 . S
N754 H767 0.985 . S
N755 C757 1.356 . S
N755 H760 0.984 . S
N755 H761 0.985 . S
C756 C750 1.379 . S
C756 C753 1.363 . S
C756 N754 1.356 . S
C757 C751 1.363 . S
C757 C752 1.379 . S
C757 N755 1.356 . S
N758 C750 1.356 . S
N758 H764 0.984 . S
N758 H765 0.984 . S
N759 C752 1.356 . S
N759 H762 0.984 . S
N759 H763 0.985 . S
H760 N755 0.984 . S
H761 N755 0.985 . S
H762 N759 0.984 . S
H763 N759 0.985 . S
H764 N758 0.984 . S
H765 N758 0.984 . S
H766 N754 0.984 . S
H767 N754 0.985 . S
C768 C769 1.363 . S
C768 C774 1.379 . S
C768 N776 1.356 . S
C769 C768 1.363 . S
C769 C775 1.363 . S
C770 C771 1.363 . S
C770 C775 1.379 . S
C770 N777 1.356 . S
C771 C770 1.363 . S
C771 C774 1.363 . S
N772 C774 1.356 . S
N772 H784 0.984 . S
N772 H785 0.985 . S
N773 C775 1.356 . S
N773 H778 0.984 . S
N773 H779 0.985 . S
C774 C768 1.379 . S
C774 C771 1.363 . S
C774 N772 1.356 . S
C775 C769 1.363 . S
C775 C770 1.379 . S
C775 N773 1.356 . S
N776 C768 1.356 . S
N776 H782 0.984 . S
N776 H783 0.984 . S
N777 C770 1.356 . S
N777 H780 0.984 . S
N777 H781 0.985 . S
H778 N773 0.984 . S
H779 N773 0.985 . S
H780 N777 0.984 . S
H781 N777 0.985 . S
H782 N776 0.984 . S
H783 N776 0.984 . S
H784 N772 0.984 . S
H785 N772 0.985 . S
C786 C787 1.363 . S
C786 C792 1.379 . S
C786 N794 1.356 . S
C787 C786 1.363 . S
C787 C793 1.363 . S
C788 C789 1.363 . S
C788 C793 1.379 . S
C788 N795 1.356 . S
C789 C788 1.363 . S
C789 C792 1.363 . S
N790 C792 1.356 . S
N790 H802 0.984 . S
N790 H803 0.985 . S
N791 C793 1.356 1_545 S
N791 H796 0.984 . S
N791 H797 0.985 . S
C792 C786 1.379 . S
C792 C789 1.363 . S
C792 N790 1.356 . S
C793 C787 1.363 . S
C793 C788 1.379 . S
C793 N791 1.356 1_565 S
N794 C786 1.356 . S
N794 H800 0.984 . S
N794 H801 0.984 . S
N795 C788 1.356 . S
N795 H798 0.984 . S
N795 H799 0.985 . S
H796 N791 0.984 . S
H797 N791 0.985 . S
H798 N795 0.984 . S
H799 N795 0.985 . S
H800 N794 0.984 . S
H801 N794 0.984 . S
H802 N790 0.984 . S
H803 N790 0.985 . S
C804 C805 1.363 . S
C804 C810 1.379 . S
C804 N812 1.356 . S
C805 C804 1.363 . S
C805 C811 1.363 . S
C806 C807 1.363 . S
C806 C811 1.379 . S
C806 N813 1.356 . S
C807 C806 1.363 . S
C807 C810 1.363 . S
N808 C810 1.356 . S
N808 H820 0.984 . S
N808 H821 0.985 . S
N809 C811 1.356 . S
N809 H814 0.984 . S
N809 H815 0.985 . S
C810 C804 1.379 . S
C810 C807 1.363 . S
C810 N808 1.356 . S
C811 C805 1.363 . S
C811 C806 1.379 . S
C811 N809 1.356 . S
N812 C804 1.356 . S
N812 H818 0.984 . S
N812 H819 0.984 . S
N813 C806 1.356 . S
N813 H816 0.984 . S
N813 H817 0.985 . S
H814 N809 0.984 . S
H815 N809 0.985 . S
H816 N813 0.984 . S
H817 N813 0.985 . S
H818 N812 0.984 . S
H819 N812 0.984 . S
H820 N808 0.984 . S
H821 N808 0.985 . S
C822 C823 1.363 . S
C822 C828 1.379 . S
C822 N830 1.356 . S
C823 C822 1.363 . S
C823 C829 1.363 . S
C824 C825 1.363 . S
C824 C829 1.379 . S
C824 N831 1.381 . S
C825 C824 1.363 . S
C825 C828 1.363 . S
N826 C828 1.356 1_565 S
N826 H838 0.984 . S
N826 H839 0.985 . S
N827 C829 1.356 . S
N827 H832 0.984 . S
N827 H833 0.985 . S
C828 C822 1.379 . S
C828 C825 1.363 . S
C828 N826 1.356 1_545 S
C829 C823 1.363 . S
C829 C824 1.379 . S
C829 N827 1.356 . S
N830 C822 1.356 . S
N830 H836 0.984 1_545 S
N830 H837 0.984 . S
N831 C824 1.381 . S
N831 H834 0.962 1_554 S
N831 H835 0.982 1_554 S
H832 N827 0.984 . S
H833 N827 0.985 . S
H834 N831 0.962 1_556 S
H835 N831 0.982 1_556 S
H836 N830 0.984 1_565 S
H837 N830 0.984 . S
H838 N826 0.984 . S
H839 N826 0.985 . S
C840 C841 1.363 . S
C840 C846 1.379 . S
C840 N848 1.356 . S
C841 C840 1.363 . S
C841 C847 1.363 . S
C842 C843 1.363 . S
C842 C847 1.379 . S
C842 N849 1.356 . S
C843 C842 1.363 . S
C843 C846 1.363 . S
N844 C846 1.356 . S
N844 H856 0.984 . S
N844 H857 0.985 . S
N845 C847 1.356 . S
N845 H850 0.984 . S
N845 H851 0.985 . S
C846 C840 1.379 . S
C846 C843 1.363 . S
C846 N844 1.356 . S
C847 C841 1.363 . S
C847 C842 1.379 . S
C847 N845 1.356 . S
N848 C840 1.356 . S
N848 H854 0.984 . S
N848 H855 0.984 . S
N849 C842 1.356 . S
N849 H852 0.984 . S
N849 H853 0.985 . S
H850 N845 0.984 . S
H851 N845 0.985 . S
H852 N849 0.984 . S
H853 N849 0.985 . S
H854 N848 0.984 . S
H855 N848 0.984 . S
H856 N844 0.984 . S
H857 N844 0.985 . S
C858 C859 1.363 . S
C858 C864 1.379 . S
C858 N866 1.356 . S
C859 C858 1.363 . S
C859 C865 1.363 . S
C860 C861 1.363 . S
C860 C865 1.379 . S
C860 N867 1.356 . S
C861 C860 1.363 . S
C861 C864 1.363 . S
N862 C864 1.356 . S
N862 H874 0.984 . S
N862 H875 0.985 . S
N863 C865 1.356 . S
N863 H868 0.984 . S
N863 H869 0.985 . S
C864 C858 1.379 . S
C864 C861 1.363 . S
C864 N862 1.356 . S
C865 C859 1.363 . S
C865 C860 1.379 . S
C865 N863 1.356 . S
N866 C858 1.356 . S
N866 H872 0.984 . S
N866 H873 0.984 1_556 S
N867 C860 1.356 . S
N867 H870 0.984 . S
N867 H871 0.985 . S
H868 N863 0.984 . S
H869 N863 0.985 . S
H870 N867 0.984 . S
H871 N867 0.985 . S
H872 N866 0.984 . S
H873 N866 0.984 1_554 S
H874 N862 0.984 . S
H875 N862 0.985 . S
C876 C877 1.363 . S
C876 C882 1.379 . S
C876 N884 1.356 . S
C877 C876 1.363 . S
C877 C883 1.363 . S
C878 C879 1.363 . S
C878 C883 1.379 . S
C878 N885 1.356 . S
C879 C878 1.363 . S
C879 C882 1.363 . S
N880 C882 1.356 . S
N880 H892 0.984 . S
N880 H893 0.985 . S
N881 C883 1.356 . S
N881 H886 0.984 . S
N881 H887 0.985 . S
C882 C876 1.379 . S
C882 C879 1.363 . S
C882 N880 1.356 . S
C883 C877 1.363 . S
C883 C878 1.379 . S
C883 N881 1.356 . S
N884 C876 1.356 . S
N884 H890 0.984 . S
N884 H891 0.984 . S
N885 C878 1.356 . S
N885 H888 0.984 . S
N885 H889 0.985 . S
H886 N881 0.984 . S
H887 N881 0.985 . S
H888 N885 0.984 . S
H889 N885 0.985 . S
H890 N884 0.984 . S
H891 N884 0.984 . S
H892 N880 0.984 . S
H893 N880 0.985 . S
C894 C895 1.363 . S
C894 C900 1.379 . S
C894 N902 1.356 . S
C895 C894 1.363 . S
C895 C901 1.363 . S
C896 C897 1.363 . S
C896 C901 1.379 . S
C896 N903 1.356 . S
C897 C896 1.363 . S
C897 C900 1.363 . S
N898 C900 1.356 . S
N898 H910 0.984 . S
N898 H911 0.985 . S
N899 C901 1.356 . S
N899 H904 0.984 . S
N899 H905 0.985 . S
C900 C894 1.379 . S
C900 C897 1.363 . S
C900 N898 1.356 . S
C901 C895 1.363 . S
C901 C896 1.379 . S
C901 N899 1.356 . S
N902 C894 1.356 . S
N902 H908 0.984 . S
N902 H909 0.984 . S
N903 C896 1.356 . S
N903 H906 0.984 . S
N903 H907 0.985 . S
H904 N899 0.984 . S
H905 N899 0.985 . S
H906 N903 0.984 . S
H907 N903 0.985 . S
H908 N902 0.984 . S
H909 N902 0.984 . S
H910 N898 0.984 . S
H911 N898 0.985 . S
C912 C913 1.363 . S
C912 C918 1.379 . S
C912 N920 1.356 . S
C913 C912 1.363 . S
C913 C919 1.363 . S
C914 C915 1.363 . S
C914 C919 1.379 . S
C914 N921 1.356 . S
C915 C914 1.363 . S
C915 C918 1.363 . S
N916 C918 1.356 . S
N916 H928 0.984 . S
N916 H929 0.985 . S
N917 C919 1.356 . S
N917 H922 0.984 . S
N917 H923 0.985 . S
C918 C912 1.379 . S
C918 C915 1.363 . S
C918 N916 1.356 . S
C919 C913 1.363 . S
C919 C914 1.379 . S
C919 N917 1.356 . S
N920 C912 1.356 . S
N920 H926 0.984 . S
N920 H927 0.984 . S
N921 C914 1.356 . S
N921 H924 0.984 . S
N921 H925 0.985 . S
H922 N917 0.984 . S
H923 N917 0.985 . S
H924 N921 0.984 . S
H925 N921 0.985 . S
H926 N920 0.984 . S
H927 N920 0.984 . S
H928 N916 0.984 . S
H929 N916 0.985 . S
C930 C931 1.363 . S
C930 C936 1.379 . S
C930 N938 1.356 1_545 S
C931 C930 1.363 . S
C931 C937 1.363 . S
C932 C933 1.363 . S
C932 C937 1.379 . S
C932 N939 1.356 . S
C933 C932 1.363 . S
C933 C936 1.363 . S
N934 C936 1.356 . S
N934 H946 0.984 . S
N934 H947 0.985 . S
N935 C937 1.356 1_655 S
N935 H940 0.984 . S
N935 H941 0.985 . S
C936 C930 1.379 . S
C936 C933 1.363 . S
C936 N934 1.356 . S
C937 C931 1.363 . S
C937 C932 1.379 . S
C937 N935 1.356 1_455 S
N938 C930 1.356 1_565 S
N938 H944 0.984 . S
N938 H945 0.984 . S
N939 C932 1.356 . S
N939 H942 0.984 . S
N939 H943 0.985 . S
H940 N935 0.984 . S
H941 N935 0.985 . S
H942 N939 0.984 . S
H943 N939 0.985 . S
H944 N938 0.984 . S
H945 N938 0.984 . S
H946 N934 0.984 . S
H947 N934 0.985 . S
C948 C949 1.363 . S
C948 C954 1.379 . S
C948 N956 1.356 . S
C949 C948 1.363 . S
C949 C955 1.363 . S
C950 C951 1.363 . S
C950 C955 1.379 . S
C950 N957 1.356 . S
C951 C950 1.363 . S
C951 C954 1.363 . S
N952 C954 1.356 . S
N952 H964 0.984 . S
N952 H965 0.985 . S
N953 C955 1.356 . S
N953 H958 0.984 . S
N953 H959 0.985 . S
C954 C948 1.379 . S
C954 C951 1.363 . S
C954 N952 1.356 . S
C955 C949 1.363 . S
C955 C950 1.379 . S
C955 N953 1.356 . S
N956 C948 1.356 . S
N956 H962 0.984 . S
N956 H963 0.984 . S
N957 C950 1.356 . S
N957 H960 0.984 . S
N957 H961 0.985 . S
H958 N953 0.984 . S
H959 N953 0.985 . S
H960 N957 0.984 . S
H961 N957 0.985 . S
H962 N956 0.984 . S
H963 N956 0.984 . S
H964 N952 0.984 . S
H965 N952 0.985 . S
C966 C967 1.363 . S
C966 C972 1.379 . S
C966 N974 1.356 . S
C967 C966 1.363 . S
C967 C973 1.363 . S
C968 C969 1.363 . S
C968 C973 1.379 . S
C968 N975 1.356 . S
C969 C968 1.363 . S
C969 C972 1.363 . S
N970 C972 1.356 . S
N970 H982 0.984 . S
N970 H983 0.985 . S
N971 C973 1.356 1_545 S
N971 H976 0.984 . S
N971 H977 0.985 . S
C972 C966 1.379 . S
C972 C969 1.363 . S
C972 N970 1.356 . S
C973 C967 1.363 . S
C973 C968 1.379 . S
C973 N971 1.356 1_565 S
N974 C966 1.356 . S
N974 H980 0.984 . S
N974 H981 0.984 . S
N975 C968 1.356 . S
N975 H978 0.984 . S
N975 H979 0.985 . S
H976 N971 0.984 . S
H977 N971 0.985 . S
H978 N975 0.984 . S
H979 N975 0.985 . S
H980 N974 0.984 . S
H981 N974 0.984 . S
H982 N970 0.984 . S
H983 N970 0.985 . S
C984 C985 1.363 . S
C984 C990 1.379 . S
C984 N992 1.356 . S
C985 C984 1.363 . S
C985 C991 1.363 . S
C986 C987 1.363 . S
C986 C991 1.379 . S
C986 N993 1.356 . S
C987 C986 1.363 . S
C987 C990 1.363 . S
N988 C990 1.356 . S
N988 H1000 0.984 . S
N988 H1001 0.985 . S
N989 C991 1.356 . S
N989 H994 0.984 . S
N989 H995 0.985 . S
C990 C984 1.379 . S
C990 C987 1.363 . S
C990 N988 1.356 . S
C991 C985 1.363 . S
C991 C986 1.379 . S
C991 N989 1.356 . S
N992 C984 1.356 . S
N992 H998 0.984 . S
N992 H999 0.984 . S
N993 C986 1.356 . S
N993 H996 0.984 . S
N993 H997 0.985 . S
H994 N989 0.984 . S
H995 N989 0.985 . S
H996 N993 0.984 . S
H997 N993 0.985 . S
H998 N992 0.984 . S
H999 N992 0.984 . S
H1000 N988 0.984 . S
H1001 N988 0.985 . S
C1002 C1003 1.363 . S
C1002 C1008 1.379 . S
C1002 N1010 1.356 . S
C1003 C1002 1.363 . S
C1003 C1009 1.363 . S
C1004 C1005 1.363 . S
C1004 C1009 1.379 . S
C1004 N1011 1.356 . S
C1005 C1004 1.363 . S
C1005 C1008 1.363 . S
N1006 C1008 1.356 . S
N1006 H1018 0.984 . S
N1006 H1019 0.985 . S
N1007 C1009 1.356 1_455 S
N1007 H1012 0.984 . S
N1007 H1013 0.985 . S
C1008 C1002 1.379 . S
C1008 C1005 1.363 . S
C1008 N1006 1.356 . S
C1009 C1003 1.363 . S
C1009 C1004 1.379 . S
C1009 N1007 1.356 1_655 S
N1010 C1002 1.356 . S
N1010 H1016 0.984 . S
N1010 H1017 0.984 . S
N1011 C1004 1.356 . S
N1011 H1014 0.984 . S
N1011 H1015 0.985 . S
H1012 N1007 0.984 . S
H1013 N1007 0.985 . S
H1014 N1011 0.984 . S
H1015 N1011 0.985 . S
H1016 N1010 0.984 . S
H1017 N1010 0.984 . S
H1018 N1006 0.984 . S
H1019 N1006 0.985 . S
C1020 C1021 1.363 . S
C1020 C1026 1.379 . S
C1020 N1028 1.356 . S
C1021 C1020 1.363 . S
C1021 C1027 1.363 . S
C1022 C1023 1.363 . S
C1022 C1027 1.379 . S
C1022 N1029 1.356 . S
C1023 C1022 1.363 . S
C1023 C1026 1.363 . S
N1024 C1026 1.356 . S
N1024 H1036 0.984 . S
N1024 H1037 0.985 . S
N1025 C1027 1.356 . S
N1025 H1030 0.984 . S
N1025 H1031 0.985 . S
C1026 C1020 1.379 . S
C1026 C1023 1.363 . S
C1026 N1024 1.356 . S
C1027 C1021 1.363 . S
C1027 C1022 1.379 . S
C1027 N1025 1.356 . S
N1028 C1020 1.356 . S
N1028 H1034 0.984 . S
N1028 H1035 0.984 . S
N1029 C1022 1.356 . S
N1029 H1032 0.984 . S
N1029 H1033 0.985 . S
H1030 N1025 0.984 . S
H1031 N1025 0.985 . S
H1032 N1029 0.984 . S
H1033 N1029 0.985 . S
H1034 N1028 0.984 . S
H1035 N1028 0.984 . S
H1036 N1024 0.984 . S
H1037 N1024 0.985 . S
C1038 C1039 1.363 . S
C1038 C1044 1.379 . S
C1038 N1046 1.356 . S
C1039 C1038 1.363 . S
C1039 C1045 1.363 . S
C1040 C1041 1.363 . S
C1040 C1045 1.379 . S
C1040 N1047 1.356 . S
C1041 C1040 1.363 . S
C1041 C1044 1.363 . S
N1042 C1044 1.356 . S
N1042 H1054 0.984 . S
N1042 H1055 0.985 . S
N1043 C1045 1.356 . S
N1043 H1048 0.984 . S
N1043 H1049 0.985 . S
C1044 C1038 1.379 . S
C1044 C1041 1.363 . S
C1044 N1042 1.356 . S
C1045 C1039 1.363 . S
C1045 C1040 1.379 . S
C1045 N1043 1.356 . S
N1046 C1038 1.356 . S
N1046 H1052 0.984 . S
N1046 H1053 0.984 . S
N1047 C1040 1.356 . S
N1047 H1050 0.984 . S
N1047 H1051 0.985 . S
H1048 N1043 0.984 . S
H1049 N1043 0.985 . S
H1050 N1047 0.984 . S
H1051 N1047 0.985 . S
H1052 N1046 0.984 . S
H1053 N1046 0.984 . S
H1054 N1042 0.984 . S
H1055 N1042 0.985 . S
C1056 C1057 1.363 . S
C1056 C1062 1.379 . S
C1056 N1064 1.356 . S
C1057 C1056 1.363 . S
C1057 C1063 1.363 . S
C1058 C1059 1.363 . S
C1058 C1063 1.379 . S
C1058 N1065 1.356 . S
C1059 C1058 1.363 . S
C1059 C1062 1.363 . S
N1060 C1062 1.356 . S
N1060 H1072 0.984 . S
N1060 H1073 0.985 . S
N1061 C1063 1.356 . S
N1061 H1066 0.984 . S
N1061 H1067 0.985 . S
C1062 C1056 1.379 . S
C1062 C1059 1.363 . S
C1062 N1060 1.356 . S
C1063 C1057 1.363 . S
C1063 C1058 1.379 . S
C1063 N1061 1.356 . S
N1064 C1056 1.356 . S
N1064 H1070 0.984 . S
N1064 H1071 0.984 . S
N1065 C1058 1.356 . S
N1065 H1068 0.984 . S
N1065 H1069 0.985 . S
H1066 N1061 0.984 . S
H1067 N1061 0.985 . S
H1068 N1065 0.984 . S
H1069 N1065 0.985 . S
H1070 N1064 0.984 . S
H1071 N1064 0.984 . S
H1072 N1060 0.984 . S
H1073 N1060 0.985 . S
C1074 C1075 1.363 . S
C1074 C1080 1.379 . S
C1074 N1082 1.356 . S
C1075 C1074 1.363 . S
C1075 C1081 1.363 . S
C1076 C1077 1.363 . S
C1076 C1081 1.379 . S
C1076 N1083 1.356 . S
C1077 C1076 1.363 . S
C1077 C1080 1.363 . S
N1078 C1080 1.356 . S
N1078 H1090 0.984 . S
N1078 H1091 0.985 . S
N1079 C1081 1.356 . S
N1079 H1084 0.984 . S
N1079 H1085 0.985 . S
C1080 C1074 1.379 . S
C1080 C1077 1.363 . S
C1080 N1078 1.356 . S
C1081 C1075 1.363 . S
C1081 C1076 1.379 . S
C1081 N1079 1.356 . S
N1082 C1074 1.356 . S
N1082 H1088 0.984 . S
N1082 H1089 0.984 . S
N1083 C1076 1.356 . S
N1083 H1086 0.984 . S
N1083 H1087 0.985 . S
H1084 N1079 0.984 . S
H1085 N1079 0.985 . S
H1086 N1083 0.984 . S
H1087 N1083 0.985 . S
H1088 N1082 0.984 . S
H1089 N1082 0.984 . S
H1090 N1078 0.984 . S
H1091 N1078 0.985 . S
C1092 C1093 1.363 . S
C1092 C1098 1.379 . S
C1092 N1100 1.356 1_455 S
C1093 C1092 1.363 . S
C1093 C1099 1.363 . S
C1094 C1095 1.363 . S
C1094 C1099 1.379 . S
C1094 N1101 1.356 . S
C1095 C1094 1.363 . S
C1095 C1098 1.363 . S
N1096 C1098 1.356 . S
N1096 H1108 0.984 . S
N1096 H1109 0.985 . S
N1097 C1099 1.356 1_556 S
N1097 H1102 0.984 . S
N1097 H1103 0.985 . S
C1098 C1092 1.379 . S
C1098 C1095 1.363 . S
C1098 N1096 1.356 . S
C1099 C1093 1.363 . S
C1099 C1094 1.379 . S
C1099 N1097 1.356 1_554 S
N1100 C1092 1.356 1_655 S
N1100 H1106 0.984 . S
N1100 H1107 0.984 . S
N1101 C1094 1.356 . S
N1101 H1104 0.984 . S
N1101 H1105 0.985 . S
H1102 N1097 0.984 . S
H1103 N1097 0.985 . S
H1104 N1101 0.984 . S
H1105 N1101 0.985 . S
H1106 N1100 0.984 . S
H1107 N1100 0.984 . S
H1108 N1096 0.984 . S
H1109 N1096 0.985 . S
C1110 C1111 1.363 . S
C1110 C1116 1.379 . S
C1110 N1118 1.356 . S
C1111 C1110 1.363 . S
C1111 C1117 1.363 . S
C1112 C1113 1.363 . S
C1112 C1117 1.379 . S
C1112 N1119 1.356 . S
C1113 C1112 1.363 . S
C1113 C1116 1.363 . S
N1114 C1116 1.356 . S
N1114 H1126 0.984 . S
N1114 H1127 0.985 . S
N1115 C1117 1.356 . S
N1115 H1120 0.984 . S
N1115 H1121 0.985 . S
C1116 C1110 1.379 . S
C1116 C1113 1.363 . S
C1116 N1114 1.356 . S
C1117 C1111 1.363 . S
C1117 C1112 1.379 . S
C1117 N1115 1.356 . S
N1118 C1110 1.356 . S
N1118 H1124 0.984 . S
N1118 H1125 0.984 . S
N1119 C1112 1.356 . S
N1119 H1122 0.984 . S
N1119 H1123 0.985 . S
H1120 N1115 0.984 . S
H1121 N1115 0.985 . S
H1122 N1119 0.984 . S
H1123 N1119 0.985 . S
H1124 N1118 0.984 . S
H1125 N1118 0.984 . S
H1126 N1114 0.984 . S
H1127 N1114 0.985 . S
C1128 C1129 1.363 . S
C1128 C1134 1.379 . S
C1128 N1136 1.356 . S
C1129 C1128 1.363 . S
C1129 C1135 1.363 . S
C1130 C1131 1.363 . S
C1130 C1135 1.379 . S
C1130 N1137 1.356 . S
C1131 C1130 1.363 . S
C1131 C1134 1.363 . S
N1132 C1134 1.356 . S
N1132 H1144 0.984 . S
N1132 H1145 0.985 . S
N1133 C1135 1.356 . S
N1133 H1138 0.984 . S
N1133 H1139 0.985 . S
C1134 C1128 1.379 . S
C1134 C1131 1.363 . S
C1134 N1132 1.356 . S
C1135 C1129 1.363 . S
C1135 C1130 1.379 . S
C1135 N1133 1.356 . S
N1136 C1128 1.356 . S
N1136 H1142 0.984 . S
N1136 H1143 0.984 . S
N1137 C1130 1.356 . S
N1137 H1140 0.984 . S
N1137 H1141 0.985 . S
H1138 N1133 0.984 . S
H1139 N1133 0.985 . S
H1140 N1137 0.984 . S
H1141 N1137 0.985 . S
H1142 N1136 0.984 . S
H1143 N1136 0.984 . S
H1144 N1132 0.984 . S
H1145 N1132 0.985 . S
C1146 C1147 1.363 . S
C1146 C1152 1.379 . S
C1146 N1154 1.356 . S
C1147 C1146 1.363 . S
C1147 C1153 1.363 . S
C1148 C1149 1.363 . S
C1148 C1153 1.379 . S
C1148 N1155 1.356 . S
C1149 C1148 1.363 . S
C1149 C1152 1.363 . S
N1150 C1152 1.356 . S
N1150 H1162 0.984 . S
N1150 H1163 0.985 . S
N1151 C1153 1.356 . S
N1151 H1156 0.984 . S
N1151 H1157 0.985 . S
C1152 C1146 1.379 . S
C1152 C1149 1.363 . S
C1152 N1150 1.356 . S
C1153 C1147 1.363 . S
C1153 C1148 1.379 . S
C1153 N1151 1.356 . S
N1154 C1146 1.356 . S
N1154 H1160 0.984 . S
N1154 H1161 0.984 . S
N1155 C1148 1.356 . S
N1155 H1158 0.984 . S
N1155 H1159 0.985 . S
H1156 N1151 0.984 . S
H1157 N1151 0.985 . S
H1158 N1155 0.984 . S
H1159 N1155 0.985 . S
H1160 N1154 0.984 . S
H1161 N1154 0.984 . S
H1162 N1150 0.984 . S
H1163 N1150 0.985 . S
C1164 C1165 1.363 . S
C1164 C1170 1.379 . S
C1164 N1172 1.356 1_556 S
C1165 C1164 1.363 . S
C1165 C1171 1.363 . S
C1166 C1167 1.363 . S
C1166 C1171 1.379 . S
C1166 N1173 1.356 . S
C1167 C1166 1.363 . S
C1167 C1170 1.363 . S
N1168 C1170 1.356 . S
N1168 H1180 0.984 . S
N1168 H1181 0.985 . S
N1169 C1171 1.356 . S
N1169 H1174 0.984 . S
N1169 H1175 0.985 . S
C1170 C1164 1.379 . S
C1170 C1167 1.363 . S
C1170 N1168 1.356 . S
C1171 C1165 1.363 . S
C1171 C1166 1.379 . S
C1171 N1169 1.356 . S
N1172 C1164 1.356 1_554 S
N1172 H1178 0.984 . S
N1172 H1179 0.984 . S
N1173 C1166 1.356 . S
N1173 H1176 0.984 . S
N1173 H1177 0.985 . S
H1174 N1169 0.984 . S
H1175 N1169 0.985 . S
H1176 N1173 0.984 . S
H1177 N1173 0.985 . S
H1178 N1172 0.984 . S
H1179 N1172 0.984 . S
H1180 N1168 0.984 . S
H1181 N1168 0.985 . S
C1182 C1183 1.363 . S
C1182 C1188 1.379 . S
C1182 N1190 1.356 . S
C1183 C1182 1.363 . S
C1183 C1189 1.363 . S
C1184 C1185 1.363 . S
C1184 C1189 1.379 . S
C1184 N1191 1.356 1_655 S
C1185 C1184 1.363 . S
C1185 C1188 1.363 . S
N1186 C1188 1.356 . S
N1186 H1198 0.984 . S
N1186 H1199 0.985 . S
N1187 C1189 1.356 . S
N1187 H1192 0.984 . S
N1187 H1193 0.985 . S
C1188 C1182 1.379 . S
C1188 C1185 1.363 . S
C1188 N1186 1.356 . S
C1189 C1183 1.363 . S
C1189 C1184 1.379 . S
C1189 N1187 1.356 . S
N1190 C1182 1.356 . S
N1190 H1196 0.984 . S
N1190 H1197 0.984 . S
N1191 C1184 1.356 1_455 S
N1191 H1194 0.984 . S
N1191 H1195 0.985 . S
H1192 N1187 0.984 . S
H1193 N1187 0.985 . S
H1194 N1191 0.984 . S
H1195 N1191 0.985 . S
H1196 N1190 0.984 . S
H1197 N1190 0.984 . S
H1198 N1186 0.984 . S
H1199 N1186 0.985 . S
C337 C137 1.329 . S
C339 C11 1.329 . S
C355 C25 1.329 1_455 S
C357 C151 1.329 . S
C373 C39 1.329 . S
C375 C165 1.329 1_556 S
C391 C53 1.329 . S
C393 C123 1.329 . S
C409 C67 1.329 . S
C411 C221 1.329 . S
C427 C179 1.329 . S
C429 C81 1.329 1_655 S
C445 C95 1.329 . S
C447 C193 1.329 1_554 S
C463 C207 1.329 . S
C465 C109 1.329 . S
C481 C235 1.329 . S
C483 C263 1.329 . S
C499 C319 1.329 1_545 S
C501 C249 1.329 . S
C517 C277 1.329 . S
C519 C333 1.329 1_565 S
C535 C305 1.329 . S
C537 C291 1.329 . S
C553 C293 1.405 . S
C555 C13 1.405 . S
C571 C27 1.405 . S
C573 C251 1.405 . S
C589 C41 1.405 . S
C591 C265 1.405 . S
C607 C55 1.405 . S
C609 C279 1.405 . S
C625 C69 1.405 . S
C627 C335 1.405 . S
C643 C307 1.405 . S
C645 C83 1.405 . S
C661 C321 1.405 . S
C663 C97 1.405 . S
C679 C237 1.405 . S
C681 C111 1.405 . S
C697 C223 1.405 . S
C699 C125 1.405 . S
C715 C139 1.405 . S
C717 C181 1.405 . S
C733 C195 1.405 . S
C735 C153 1.405 . S
C751 C209 1.405 . S
C753 C167 1.405 . S
C769 C8 1.041 . S
C771 C231 1.157 . S
C787 C329 1.157 1_565 S
C789 C22 1.041 . S
C805 C301 1.157 . S
C807 C36 1.041 . S
C823 C50 1.041 . S
C825 C315 1.157 1_545 S
C841 C64 1.041 . S
C843 C245 1.157 . S
C859 C259 1.157 . S
C861 C78 1.041 . S
C877 C273 1.157 . S
C879 C92 1.041 . S
C895 C287 1.157 . S
C897 C106 1.041 . S
C913 C7 1.157 . S
C915 C120 1.041 . S
C931 C21 1.157 1_455 S
C933 C134 1.041 . S
C949 C35 1.157 . S
C951 C148 1.041 . S
C967 C49 1.157 . S
C969 C162 1.041 . S
C985 C63 1.157 . S
C987 C176 1.041 . S
C1003 C77 1.157 1_655 S
C1005 C190 1.041 . S
C1021 C204 1.041 . S
C1023 C91 1.157 . S
C1039 C105 1.157 . S
C1041 C218 1.041 . S
C1057 C119 1.157 . S
C1059 C232 1.041 . S
C1075 C246 1.041 . S
C1077 C175 1.157 . S
C1093 C189 1.157 1_554 S
C1095 C260 1.041 . S
C1111 C274 1.041 . S
C1113 C203 1.157 . S
C1129 C288 1.041 . S
C1131 C217 1.157 . S
C1147 C302 1.041 . S
C1149 C147 1.157 . S
C1165 C161 1.157 1_556 S
C1167 C316 1.041 . S
C1183 C330 1.041 . S
C1185 C133 1.157 . S
