# Generated by pormake.
# Topology qdl, (4)-cn, num edge types: 1
# Building blocks:
#     Node 0, Type 0, BuildingBlock: ESEHIV_clean_sbu_0, # of connection points: 4
#     Node 1, Type 0, BuildingBlock: ESEHIV_clean_sbu_0, # of connection points: 4
#     Node 2, Type 0, BuildingBlock: ESEHIV_clean_sbu_0, # of connection points: 4
#     Node 3, Type 0, BuildingBlock: ESEHIV_clean_sbu_0, # of connection points: 4
#     Node 4, Type 0, BuildingBlock: ESEHIV_clean_sbu_0, # of connection points: 4
#     Node 5, Type 0, BuildingBlock: ESEHIV_clean_sbu_0, # of connection points: 4
#     Edge 6, Type (0, 0), BuildingBlock: MIFKUJ_clean_linker_0, # of connection points: 2
#     Edge 7, Type (0, 0), BuildingBlock: MIFKUJ_clean_linker_0, # of connection points: 2
#     Edge 8, Type (0, 0), BuildingBlock: MIFKUJ_clean_linker_0, # of connection points: 2
#     Edge 9, Type (0, 0), BuildingBlock: MIFKUJ_clean_linker_0, # of connection points: 2
#     Edge 10, Type (0, 0), BuildingBlock: MIFKUJ_clean_linker_0, # of connection points: 2
#     Edge 11, Type (0, 0), BuildingBlock: MIFKUJ_clean_linker_0, # of connection points: 2
#     Edge 12, Type (0, 0), BuildingBlock: MIFKUJ_clean_linker_0, # of connection points: 2
#     Edge 13, Type (0, 0), BuildingBlock: MIFKUJ_clean_linker_0, # of connection points: 2
#     Edge 14, Type (0, 0), BuildingBlock: MIFKUJ_clean_linker_0, # of connection points: 2
#     Edge 15, Type (0, 0), BuildingBlock: MIFKUJ_clean_linker_0, # of connection points: 2
#     Edge 16, Type (0, 0), BuildingBlock: MIFKUJ_clean_linker_0, # of connection points: 2
#     Edge 17, Type (0, 0), BuildingBlock: MIFKUJ_clean_linker_0, # of connection points: 2
# Relax obj value: 0.000
# Max RMSD: 0.131
# Mean RMSD: 0.084
data_MOF--net-qdl--node1-ESEHIV_clean_sbu_0--edge1-MIFKUJ_clean_linker_0
_symmetry_space_group_name_H-M    P1
_symmetry_Int_Tables_number       1
_symmetry_cell_setting            triclinic
loop_
_symmetry_equiv_pos_as_xyz
'x, y, z'
_cell_length_a     19.496256
_cell_length_b     22.116935
_cell_length_c     120.98876
_cell_angle_alpha  100.15977
_cell_angle_beta   99.794701
_cell_angle_gamma 116.27994
loop_
_atom_site_label
_atom_site_type_symbol
_atom_site_fract_x
_atom_site_fract_y
_atom_site_fract_z
_atom_type_partial_charge
Cu0 Cu 0.16588 0.12465 0.08645 0.0
N1 N 0.10419 0.02467 0.0825 0.0
N2 N 0.07263 0.91144 0.08103 0.0
C3 C 0.13092 0.97991 0.08493 0.0
C4 C 1.00688 0.91382 0.0759 0.0
C5 C 0.02638 0.98304 0.07681 0.0
O6 O 0.23398 0.15363 0.10249 0.0
C7 C 0.16833 0.13144 0.06422 0.0
O8 O 0.09242 0.10452 0.06375 0.0
H9 H 0.19194 0.99766 0.08963 0.0
H10 H 0.98649 1.00161 0.07349 0.0
N11 N 0.1068 0.17406 0.08684 0.0
N12 N 0.07598 0.26132 0.08664 0.0
C13 C 0.13111 0.24014 0.08582 0.0
C14 C 0.03399 0.15285 0.08842 0.0
C15 C 1.01493 0.206 0.08829 0.0
C16 C 0.19491 0.12787 0.10952 0.0
O17 O 0.11712 0.08846 0.10552 0.0
H18 H 0.1881 0.27174 0.08442 0.0
H19 H 0.99746 0.10246 0.08971 0.0
O20 O 0.21786 0.14554 0.07396 0.0
H21 H 0.94856 0.86871 0.07161 0.0
H22 H 0.96049 0.2041 0.08956 0.0
Cu23 Cu 0.2183 0.15326 0.41914 0.0
N24 N 0.18026 0.10325 0.40315 0.0
N25 N 0.1644 0.08085 0.38377 0.0
C26 C 0.20599 0.12859 0.3944 0.0
C27 C 0.11071 0.02323 0.38598 0.0
C28 C 0.12059 0.03716 0.39789 0.0
O29 O 0.33549 0.20607 0.42276 0.0
C30 C 0.08604 0.1655 0.42052 0.0
O31 O 0.05841 0.09717 0.41738 0.0
H32 H 0.25293 0.18171 0.3958 0.0
H33 H 0.08579 1.00182 0.40236 0.0
N34 N 0.19482 0.09359 0.42898 0.0
N35 N 0.1741 0.05816 0.44498 0.0
C36 C 0.19088 0.11153 0.44003 0.0
C37 C 0.17967 0.02641 0.42684 0.0
C38 C 0.16715 1.00456 0.43667 0.0
C39 C 0.36645 0.1662 0.42099 0.0
O40 O 0.3185 0.098 0.4169 0.0
H41 H 0.20127 0.16318 0.4444 0.0
H42 H 0.17822 0.99544 0.41873 0.0
O43 O 0.16 0.20568 0.42174 0.0
H44 H 0.06719 0.97427 0.37947 0.0
H45 H 0.15312 0.95286 0.43757 0.0
Cu46 Cu 0.06438 0.15983 0.76436 0.0
N47 N 0.95309 0.10688 0.76246 0.0
N48 N 0.83461 1.0184 0.76213 0.0
C49 C 0.91435 0.04283 0.76426 0.0
C50 C 0.82323 0.06931 0.75881 0.0
C51 C 0.89576 0.12326 0.759 0.0
O52 O 0.11611 0.15092 0.77896 0.0
C53 C 0.05464 0.13802 0.74105 0.0
O54 O 1.01145 0.16897 0.74249 0.0
H55 H 0.94443 1.0151 0.7672 0.0
H56 H 0.90569 0.1708 0.75665 0.0
N57 N 0.10367 0.25777 0.76616 0.0
N58 N 0.18586 0.37018 0.76676 0.0
C59 C 0.1735 0.30312 0.76459 0.0
C60 C 0.07063 0.29743 0.76945 0.0
C61 C 0.12068 0.36608 0.76984 0.0
C62 C 0.10295 0.17877 0.78797 0.0
O63 O 0.05888 0.20919 0.78651 0.0
H64 H 0.21414 0.28674 0.76186 0.0
H65 H 1.01455 0.27815 0.7716 0.0
O66 O 0.08531 0.12492 0.7499 0.0
H67 H 0.76623 0.06738 0.7562 0.0
H68 H 0.10978 0.40963 0.77244 0.0
Cu69 Cu 0.14796 0.10261 0.59479 0.0
N70 N 0.13158 0.05133 0.60597 0.0
N71 N 0.12139 0.02929 0.62324 0.0
C72 C 0.13184 0.07637 0.61702 0.0
C73 C 0.1144 0.97235 0.61579 0.0
C74 C 0.12057 0.98598 0.60519 0.0
O75 O 0.08845 0.15443 0.59639 0.0
C76 C 0.30129 0.12382 0.59773 0.0
O77 O 0.26093 0.05589 0.59629 0.0
H78 H 0.14107 0.12882 0.62047 0.0
H79 H 0.11883 0.95098 0.59756 0.0
N80 N 0.10897 0.04679 0.57914 0.0
N81 N 0.09308 0.02048 0.55979 0.0
C82 C 0.12423 0.07222 0.56996 0.0
C83 C 0.06569 0.97644 0.57458 0.0
C84 C 0.05641 0.96007 0.56266 0.0
C85 C 1.01727 0.11803 0.5969 0.0
O86 O 0.99017 0.05104 0.59613 0.0
H87 H 0.15951 0.12763 0.57077 0.0
H88 H 0.04262 0.93944 0.57951 0.0
O89 O 0.2639 0.15889 0.59753 0.0
H90 H 0.10515 0.92402 0.61781 0.0
H91 H 0.02478 0.90784 0.55657 0.0
Cu92 Cu 0.15657 0.22313 0.92895 0.0
N93 N 0.19839 0.32197 0.93147 0.0
N94 N 0.2823 0.4347 0.93256 0.0
C95 C 0.26833 0.36723 0.9299 0.0
C96 C 0.21817 0.43128 0.93588 0.0
C97 C 0.16684 0.36223 0.93517 0.0
O98 O 0.17781 0.19097 0.91432 0.0
C99 C 0.18509 0.23038 0.9521 0.0
O100 O 0.14051 0.26036 0.95064 0.0
H101 H 0.30861 0.35094 0.92698 0.0
H102 H 0.11039 0.34282 0.93722 0.0
N103 N 0.04468 0.17061 0.92673 0.0
N104 N 0.92508 0.081 0.92571 0.0
C105 C 1.00527 0.10706 0.92868 0.0
C106 C 0.98732 0.18537 0.92246 0.0
C107 C 0.91401 0.1305 0.9218 0.0
C108 C 0.15025 0.20898 0.90589 0.0
O109 O 0.10988 0.24215 0.90782 0.0
H110 H 0.03486 0.07973 0.93196 0.0
H111 H 0.99786 0.23242 0.91988 0.0
O112 O 0.20465 0.20904 0.94326 0.0
H113 H 0.20823 0.47543 0.9385 0.0
H114 H 0.85687 0.12759 0.9187 0.0
Cu115 Cu 0.1414 0.08736 0.24243 0.0
N116 N 0.07965 0.13319 0.24012 0.0
N117 N 0.04935 0.21948 0.23857 0.0
C118 C 0.10751 0.20107 0.23994 0.0
C119 C 0.9825 0.16052 0.23792 0.0
C120 C 1.00125 0.10796 0.2389 0.0
O121 O 0.21502 0.1168 0.23274 0.0
C122 C 0.13498 0.08552 0.26473 0.0
O123 O 0.06003 0.04777 0.25847 0.0
H124 H 0.16944 0.23616 0.24079 0.0
H125 H 0.9606 0.05541 0.23896 0.0
N126 N 0.08264 0.98696 0.23741 0.0
N127 N 0.05286 0.87344 0.23512 0.0
C128 C 0.10822 0.94226 0.24027 0.0
C129 C 1.00859 0.94498 0.23019 0.0
C130 C 0.99028 0.87571 0.22875 0.0
C131 C 0.18032 0.09128 0.22176 0.0
O132 O 0.10288 0.04926 0.21828 0.0
H133 H 0.16642 0.96028 0.24608 0.0
H134 H 0.97083 0.96332 0.22605 0.0
O135 O 0.18757 0.11242 0.25943 0.0
H136 H 0.92408 0.1558 0.2371 0.0
H137 H 0.93517 0.83067 0.2232 0.0
H138 H 0.20662 0.89703 0.08539 0.0
H139 H 0.21437 0.79112 0.08688 0.0
H140 H 0.95929 0.67583 0.08026 0.0
H141 H 0.95132 0.78152 0.07916 0.0
H142 H 0.02435 0.64049 0.09684 0.0
H143 H 0.06061 0.65977 0.05897 0.0
H144 H 0.12485 0.71831 0.04515 0.0
H145 H 0.34666 0.73682 0.06289 0.0
H146 H 0.28393 0.67916 0.07691 0.0
H147 H 0.95283 0.28966 0.08202 0.0
H148 H 0.95974 0.40181 0.08162 0.0
H149 H 0.21541 0.49987 0.08921 0.0
H150 H 0.20912 0.3872 0.08968 0.0
H151 H 0.15928 0.54816 0.07311 0.0
H152 H 0.12268 0.5249 0.11045 0.0
H153 H 0.05952 0.4668 0.12438 0.0
H154 H 0.84019 0.45712 0.10793 0.0
H155 H 0.90173 0.51431 0.09378 0.0
C156 C 0.15206 0.84946 0.08433 0.0
C157 C 0.0782 0.84876 0.08206 0.0
C158 C 0.15651 0.78827 0.08506 0.0
C159 C 0.08728 0.72427 0.08352 0.0
C160 C 1.01383 0.72386 0.08145 0.0
C161 C 1.0093 0.7848 0.08071 0.0
C162 C 0.09064 0.65788 0.08412 0.0
C163 C 0.05312 0.6201 0.09152 0.0
C164 C 0.13008 0.63137 0.0775 0.0
C165 C 0.1678 0.66586 0.06906 0.0
C166 C 0.12323 0.67681 0.05998 0.0
C167 C 0.15934 0.70974 0.0521 0.0
C168 C 0.23985 0.73146 0.05316 0.0
C169 C 0.28435 0.72009 0.06209 0.0
C170 C 0.24854 0.68724 0.07 0.0
C171 C 1.01091 0.33483 0.08374 0.0
C172 C 0.08048 0.32839 0.08603 0.0
C173 C 1.01474 0.39953 0.08349 0.0
C174 C 0.08823 0.46051 0.08558 0.0
C175 C 0.15777 0.45414 0.08759 0.0
C176 C 0.15403 0.3892 0.08784 0.0
C177 C 0.09189 0.53032 0.08569 0.0
C178 C 0.13077 0.56874 0.07845 0.0
C179 C 0.05384 0.5576 0.09248 0.0
C180 C 1.01664 0.52332 0.10099 0.0
C181 C 0.0608 0.50991 0.10974 0.0
C182 C 0.02532 0.47721 0.11769 0.0
C183 C 0.94584 0.45813 0.11702 0.0
C184 C 0.90173 0.47186 0.10842 0.0
C185 C 0.9369 0.50447 0.10045 0.0
H186 H 0.91848 0.43284 0.12318 0.0
H187 H 0.26769 0.75694 0.04705 0.0
H188 H 0.44332 0.09521 0.42652 0.0
H189 H 0.58271 0.12869 0.42887 0.0
H190 H 0.62903 0.32886 0.4233 0.0
H191 H 0.48716 0.29518 0.42096 0.0
H192 H 0.69401 0.25862 0.40985 0.0
H193 H 0.70528 0.33037 0.44977 0.0
H194 H 0.66203 0.32097 0.46768 0.0
H195 H 0.69278 0.14002 0.4672 0.0
H196 H 0.73499 0.14757 0.44918 0.0
H197 H 0.09066 0.29175 0.41932 0.0
H198 H 0.98727 0.32489 0.42168 0.0
H199 H 0.85237 0.13025 0.4295 0.0
H200 H 0.95366 0.09748 0.42718 0.0
H201 H 0.85332 0.23755 0.44408 0.0
H202 H 0.80873 0.14982 0.40213 0.0
H203 H 0.84641 0.15297 0.3837 0.0
H204 H 0.87604 0.3608 0.38792 0.0
H205 H 0.83944 0.35913 0.40647 0.0
C206 C 0.48296 0.14679 0.4259 0.0
C207 C 0.45389 0.19255 0.42356 0.0
C208 C 0.56306 0.16599 0.4273 0.0
C209 C 0.6169 0.2315 0.42635 0.0
C210 C 0.58869 0.27808 0.42412 0.0
C211 C 0.50786 0.25906 0.42286 0.0
C212 C 0.70126 0.24823 0.42731 0.0
C213 C 0.72998 0.25617 0.41747 0.0
C214 C 0.74808 0.24414 0.43718 0.0
C215 C 0.72312 0.23947 0.44808 0.0
C216 C 0.70235 0.28829 0.45343 0.0
C217 C 0.67806 0.28332 0.46361 0.0
C218 C 0.6746 0.22991 0.46857 0.0
C219 C 0.69554 0.1814 0.46335 0.0
C220 C 0.7198 0.18608 0.45316 0.0
C221 C 0.03936 0.25672 0.42169 0.0
C222 C 0.03025 0.19179 0.42299 0.0
C223 C 0.98009 0.27543 0.42297 0.0
C224 C 0.91146 0.22985 0.4257 0.0
C225 C 0.90442 0.1665 0.42741 0.0
C226 C 0.96253 0.14763 0.42602 0.0
C227 C 0.8445 0.24499 0.42645 0.0
C228 C 0.8188 0.2426 0.43661 0.0
C229 C 0.80042 0.25378 0.41686 0.0
C230 C 0.82252 0.25477 0.40575 0.0
C231 C 0.824 0.19643 0.39918 0.0
C232 C 0.845 0.19789 0.3887 0.0
C233 C 0.86392 0.25716 0.38466 0.0
C234 C 0.86161 0.31501 0.39108 0.0
C235 C 0.84075 0.31384 0.40157 0.0
H236 H 0.88012 0.25818 0.37655 0.0
H237 H 0.65577 0.22614 0.47645 0.0
H238 H 0.83945 0.8956 0.76083 0.0
H239 H 0.73489 0.78396 0.76189 0.0
H240 H 0.58563 0.8779 0.76639 0.0
H241 H 0.69011 0.98957 0.7656 0.0
H242 H 0.57659 0.79969 0.78092 0.0
H243 H 0.55544 0.76434 0.73988 0.0
H244 H 0.60337 0.7601 0.72232 0.0
H245 H 0.662 0.60246 0.72938 0.0
H246 H 0.61538 0.60647 0.74709 0.0
H247 H 0.19783 0.49913 0.76746 0.0
H248 H 0.31191 0.60502 0.76708 0.0
H249 H 0.44485 0.49389 0.76398 0.0
H250 H 0.33083 0.38698 0.76452 0.0
H251 H 0.46838 0.57785 0.74934 0.0
H252 H 0.48355 0.60939 0.7899 0.0
H253 H 0.43447 0.6132 0.80736 0.0
H254 H 0.38696 0.7781 0.80117 0.0
H255 H 0.43472 0.77458 0.78357 0.0
C256 C 0.78471 0.89282 0.76213 0.0
C257 C 0.7737 0.9522 0.76304 0.0
C258 C 0.72436 0.82845 0.76264 0.0
C259 C 0.65123 0.82153 0.76408 0.0
C260 C 0.64091 0.88114 0.76522 0.0
C261 C 0.70089 0.94523 0.76467 0.0
C262 C 0.58542 0.75277 0.76443 0.0
C263 C 0.55255 0.75147 0.77393 0.0
C264 C 0.55467 0.68877 0.75551 0.0
C265 C 0.58281 0.68632 0.74489 0.0
C266 C 0.57921 0.72922 0.73775 0.0
C267 C 0.60601 0.72677 0.72776 0.0
C268 C 0.63595 0.68121 0.72476 0.0
C269 C 0.63895 0.63784 0.73173 0.0
C270 C 0.61231 0.64015 0.74174 0.0
C271 C 0.25106 0.49645 0.76681 0.0
C272 C 0.25392 0.43323 0.76616 0.0
C273 C 0.31685 0.55777 0.76657 0.0
C274 C 0.38809 0.55843 0.76567 0.0
C275 C 0.39095 0.49529 0.76472 0.0
C276 C 0.3251 0.43373 0.76502 0.0
C277 C 0.45904 0.62512 0.76576 0.0
C278 C 0.49281 0.62602 0.75635 0.0
C279 C 0.49069 0.68886 0.77477 0.0
C280 C 0.46204 0.69126 0.78535 0.0
C281 C 0.46204 0.64608 0.79221 0.0
C282 C 0.43456 0.64826 0.80214 0.0
C283 C 0.40743 0.69574 0.80536 0.0
C284 C 0.40791 0.74128 0.79866 0.0
C285 C 0.43525 0.73926 0.78871 0.0
H286 H 0.3862 0.69736 0.81305 0.0
H287 H 0.65664 0.67936 0.71702 0.0
H288 H 0.39057 0.20159 0.585 0.0
H289 H 0.52772 0.22812 0.58513 0.0
H290 H 0.5427 0.14015 0.61398 0.0
H291 H 0.4062 0.1125 0.61366 0.0
H292 H 0.68345 0.25735 0.61656 0.0
H293 H 0.48751 0.04636 0.58713 0.0
H294 H 0.37698 0.96921 0.56935 0.0
H295 H 0.51748 0.07751 0.54833 0.0
H296 H 0.62694 0.15855 0.56605 0.0
H297 H 0.92293 0.09397 0.61133 0.0
H298 H 0.81844 0.1259 0.61213 0.0
H299 H 0.88134 0.23709 0.58638 0.0
H300 H 0.98842 0.20658 0.58581 0.0
H301 H 0.71288 0.12986 0.5812 0.0
H302 H 0.91526 0.33334 0.6116 0.0
H303 H 0.02609 0.39735 0.62976 0.0
H304 H 0.8729 0.28515 0.64912 0.0
H305 H 0.76139 0.21966 0.63105 0.0
C306 C 0.42435 0.19014 0.59159 0.0
C307 C 0.38835 0.15583 0.59942 0.0
C308 C 0.50232 0.20462 0.59159 0.0
C309 C 0.54558 0.18572 0.59953 0.0
C310 C 0.51098 0.1555 0.6078 0.0
C311 C 0.43299 0.13987 0.60764 0.0
C312 C 0.62402 0.19178 0.59878 0.0
C313 C 0.68983 0.22972 0.60879 0.0
C314 C 0.63294 0.15614 0.58862 0.0
C315 C 0.56492 0.10999 0.578 0.0
C316 C 0.49409 0.05532 0.57877 0.0
C317 C 0.43148 1.01079 0.56868 0.0
C318 C 0.43966 0.01913 0.55771 0.0
C319 C 0.51051 0.07198 0.55683 0.0
C320 C 0.57264 0.1176 0.56691 0.0
C321 C 0.91578 0.12667 0.60604 0.0
C322 C 0.96409 0.14821 0.59856 0.0
C323 C 0.85601 0.14488 0.6065 0.0
C324 C 0.84199 0.18398 0.59933 0.0
C325 C 0.89136 0.20714 0.59203 0.0
C326 C 0.9528 0.19019 0.59176 0.0
C327 C 0.77168 0.19519 0.59895 0.0
C328 C 0.70709 0.15957 0.5888 0.0
C329 C 0.76328 0.23168 0.60903 0.0
C330 C 0.83004 0.27127 0.61994 0.0
C331 C 0.90533 0.32191 0.61971 0.0
C332 C 0.96826 0.35855 0.63 0.0
C333 C 0.95658 0.34525 0.64058 0.0
C334 C 0.88186 0.29539 0.64091 0.0
C335 C 0.81873 0.25858 0.63065 0.0
H336 H 1.00538 0.37365 0.64853 0.0
H337 H 0.39143 0.98422 0.5499 0.0
H338 H 0.34124 0.56968 0.9456 0.0
H339 H 0.45218 0.67585 0.94436 0.0
H340 H 0.49074 0.55075 0.91707 0.0
H341 H 0.37998 0.44371 0.91843 0.0
H342 H 0.63015 0.65085 0.93058 0.0
H343 H 0.39412 0.65009 0.91147 0.0
H344 H 0.26286 0.64378 0.90936 0.0
H345 H 0.36538 0.82825 0.9386 0.0
H346 H 0.49712 0.83513 0.94098 0.0
H347 H 0.77314 1.00248 0.91157 0.0
H348 H 0.6686 0.89123 0.9125 0.0
H349 H 0.83022 0.89578 0.9422 0.0
H350 H 0.93595 1.00655 0.94107 0.0
H351 H 0.5892 0.85261 0.92652 0.0
H352 H 0.77844 0.73531 0.94551 0.0
H353 H 0.90596 0.73761 0.94532 0.0
H354 H 0.88981 0.78088 0.91203 0.0
H355 H 0.76189 0.7782 0.91197 0.0
C356 C 0.37282 0.56445 0.93927 0.0
C357 C 0.35049 0.49755 0.93204 0.0
C358 C 0.43669 0.62564 0.93856 0.0
C359 C 0.47981 0.62239 0.93045 0.0
C360 C 0.45894 0.55545 0.9234 0.0
C361 C 0.39531 0.49394 0.92419 0.0
C362 C 0.54544 0.68872 0.92927 0.0
C363 C 0.62097 0.69488 0.9297 0.0
C364 C 0.53434 0.74654 0.9279 0.0
C365 C 0.45531 0.74274 0.92647 0.0
C366 C 0.38855 0.68904 0.9175 0.0
C367 C 0.31409 0.68539 0.91624 0.0
C368 C 0.30575 0.73548 0.92386 0.0
C369 C 0.37192 0.78944 0.93272 0.0
C370 C 0.44651 0.79327 0.93402 0.0
C371 C 0.78668 0.97998 0.91832 0.0
C372 C 0.86351 1.014 0.92623 0.0
C373 C 0.72646 0.91591 0.91886 0.0
C374 C 0.74059 0.88362 0.92737 0.0
C375 C 0.81732 0.91791 0.93536 0.0
C376 C 0.87807 0.9817 0.93473 0.0
C377 C 0.6745 0.81534 0.92796 0.0
C378 C 0.5987 0.80877 0.92742 0.0
C379 C 0.68492 0.75664 0.92894 0.0
C380 C 0.76099 0.7571 0.92879 0.0
C381 C 0.80196 0.74498 0.93813 0.0
C382 C 0.87435 0.74647 0.93807 0.0
C383 C 0.90606 0.75956 0.92868 0.0
C384 C 0.86531 0.77096 0.91931 0.0
C385 C 0.79292 0.76955 0.91932 0.0
H386 H 0.96213 0.76075 0.92866 0.0
H387 H 0.24805 0.73257 0.92287 0.0
H388 H 0.18291 0.34944 0.2469 0.0
H389 H 0.19224 0.46312 0.24645 0.0
H390 H 0.94055 0.35901 0.22909 0.0
H391 H 0.93127 0.24555 0.22918 0.0
H392 H 1.0155 0.45587 0.21925 0.0
H393 H 0.02422 0.45285 0.25913 0.0
H394 H 0.07635 0.44353 0.27845 0.0
H395 H 0.30339 0.62138 0.28263 0.0
H396 H 0.25288 0.63117 0.26326 0.0
H397 H 0.9316 0.73733 0.22853 0.0
H398 H 0.94066 0.63195 0.2292 0.0
H399 H 0.19459 0.75735 0.24456 0.0
H400 H 0.18658 0.86403 0.24377 0.0
H401 H 0.12985 0.6547 0.25533 0.0
H402 H 0.11901 0.66155 0.21591 0.0
H403 H 0.06683 0.67125 0.19665 0.0
H404 H 0.84423 0.48618 0.19155 0.0
H405 H 0.8947 0.47592 0.21087 0.0
C406 C 0.12955 0.35043 0.2429 0.0
C407 C 0.05614 0.28743 0.23815 0.0
C408 C 0.13482 0.41595 0.24275 0.0
C409 C 0.06688 0.42058 0.23788 0.0
C410 C 0.99402 0.35765 0.23296 0.0
C411 C 0.98867 0.29235 0.23311 0.0
C412 C 0.07095 0.49028 0.23781 0.0
C413 C 0.03977 0.49889 0.22719 0.0
C414 C 0.10463 0.54797 0.24805 0.0
C415 C 0.13505 0.54223 0.25969 0.0
C416 C 0.08546 0.48962 0.26413 0.0
C417 C 0.11467 0.48431 0.2751 0.0
C418 C 0.19321 0.53169 0.28174 0.0
C419 C 0.24262 0.58462 0.27746 0.0
C420 C 0.21372 0.5901 0.26649 0.0
C421 C 0.98988 0.74335 0.23195 0.0
C422 C 0.05847 0.8105 0.23595 0.0
C423 C 0.99485 0.68231 0.23236 0.0
C424 C 0.06846 0.68584 0.23678 0.0
C425 C 0.13693 0.75268 0.24107 0.0
C426 C 0.13213 0.81405 0.24061 0.0
C427 C 0.07317 0.61962 0.2368 0.0
C428 C 0.106 0.61173 0.24739 0.0
C429 C 0.04101 0.56247 0.22653 0.0
C430 C 1.01042 0.56835 0.21489 0.0
C431 C 0.0587 0.62324 0.21073 0.0
C432 C 0.02947 0.62878 0.19979 0.0
C433 C 0.95219 0.57946 0.19289 0.0
C434 C 0.90405 0.52439 0.19691 0.0
C435 C 0.93296 0.51865 0.20785 0.0
H436 H 0.92968 0.58383 0.18442 0.0
H437 H 0.21571 0.52751 0.29023 0.0
H438 H 0.14894 1.00214 0.20098 0.0
H439 H 0.19699 0.02986 0.18426 0.0
H440 H 0.3512 0.24624 0.20467 0.0
H441 H 0.30285 0.21803 0.22168 0.0
H442 H 0.25956 0.23385 0.18337 0.0
H443 H 0.43548 0.15018 0.1956 0.0
H444 H 0.47909 0.07207 0.20291 0.0
H445 H 0.3198 0.90204 0.17214 0.0
H446 H 0.27426 0.97876 0.16471 0.0
H447 H 0.31727 0.24819 0.12611 0.0
H448 H 0.35935 0.26376 0.14733 0.0
H449 H 0.19752 0.0438 0.14177 0.0
H450 H 0.15536 0.0286 0.12087 0.0
H451 H 0.33907 0.08862 0.15813 0.0
H452 H 0.1421 0.16662 0.14922 0.0
H453 H 0.09567 0.24347 0.14201 0.0
H454 H 0.29796 0.42538 0.1669 0.0
H455 H 0.34608 0.34951 0.17415 0.0
C456 C 0.19456 0.05536 0.20203 0.0
C457 C 0.22248 0.1078 0.21267 0.0
C458 C 0.22221 0.07117 0.19244 0.0
C459 C 0.27826 0.14008 0.19317 0.0
C460 C 0.3083 0.19257 0.20391 0.0
C461 C 0.28124 0.17636 0.21364 0.0
C462 C 0.29883 0.15654 0.18232 0.0
C463 C 0.27943 0.20369 0.17801 0.0
C464 C 0.32409 0.11694 0.17521 0.0
C465 C 0.35127 0.07032 0.17961 0.0
C466 C 0.40933 0.09601 0.19042 0.0
C467 C 0.43446 0.05198 0.19458 0.0
C468 C 0.4022 0.98213 0.188 0.0
C469 C 0.34479 0.95619 0.17723 0.0
C470 C 0.31941 0.99999 0.17302 0.0
C471 C 0.29242 0.20307 0.12943 0.0
C472 C 0.23303 0.1372 0.12186 0.0
C473 C 0.31597 0.21203 0.14155 0.0
C474 C 0.28118 0.15498 0.14619 0.0
C475 C 0.22545 0.0886 0.13846 0.0
C476 C 0.20121 0.07999 0.12649 0.0
C477 C 0.2966 0.16356 0.15905 0.0
C478 C 0.32223 0.12072 0.16368 0.0
C479 C 0.27725 0.20718 0.16645 0.0
C480 C 0.24822 0.25258 0.16211 0.0
C481 C 0.17699 0.22306 0.15309 0.0
C482 C 0.15032 0.26641 0.14901 0.0
C483 C 0.194 0.33929 0.15397 0.0
C484 C 0.26432 0.36894 0.16305 0.0
C485 C 0.29132 0.32581 0.16714 0.0
H486 H 0.17324 0.37277 0.1508 0.0
H487 H 0.42174 0.94812 0.19124 0.0
H488 H 0.11841 0.93854 0.54343 0.0
H489 H 0.13275 0.9524 0.52412 0.0
H490 H 0.09566 0.13207 0.53075 0.0
H491 H 0.08369 0.11955 0.55026 0.0
H492 H 1.0025 0.02228 0.50722 0.0
H493 H 0.26325 0.17815 0.532 0.0
H494 H 0.38701 0.21898 0.54743 0.0
H495 H 0.42719 0.06065 0.52826 0.0
H496 H 0.30264 1.01798 0.51278 0.0
H497 H 0.12546 0.13536 0.45832 0.0
H498 H 0.111 0.13436 0.47804 0.0
H499 H 0.18894 0.97977 0.47787 0.0
H500 H 0.20448 0.98124 0.45827 0.0
H501 H 0.26179 0.08541 0.49863 0.0
H502 H 0.99318 0.93223 0.47337 0.0
H503 H 0.87322 0.90299 0.45806 0.0
H504 H 0.85144 0.06971 0.47854 0.0
H505 H 0.97193 0.10052 0.49392 0.0
C506 C 0.11306 0.9808 0.54074 0.0
C507 C 0.1 0.028 0.54834 0.0
C508 C 0.12143 0.98879 0.52973 0.0
C509 C 0.11514 0.0432 0.52598 0.0
C510 C 0.10055 0.08965 0.53346 0.0
C511 C 0.09419 0.08273 0.5446 0.0
C512 C 0.12551 0.05189 0.51434 0.0
C513 C 0.05939 0.03701 0.50537 0.0
C514 C 0.19953 0.07069 0.5119 0.0
C515 C 0.27311 0.09431 0.52131 0.0
C516 C 0.29779 0.1513 0.53116 0.0
C517 C 0.36821 0.17496 0.53989 0.0
C518 C 0.41488 0.14244 0.53883 0.0
C519 C 0.39092 0.08578 0.52907 0.0
C520 C 0.32039 0.06182 0.52031 0.0
C521 C 0.14005 0.10152 0.46251 0.0
C522 C 0.16595 0.05822 0.45666 0.0
C523 C 0.13114 0.10057 0.47376 0.0
C524 C 0.14821 0.05652 0.47944 0.0
C525 C 0.17515 1.01406 0.47369 0.0
C526 C 0.18345 1.01456 0.46242 0.0
C527 C 0.13841 0.05459 0.49138 0.0
C528 C 0.20478 0.0707 0.50044 0.0
C529 C 0.06482 0.03802 0.49392 0.0
C530 C 0.99202 0.01912 0.48474 0.0
C531 C 0.96314 0.96298 0.47457 0.0
C532 C 0.895 0.94606 0.46589 0.0
C533 C 0.85486 0.98459 0.46731 0.0
C534 C 0.88265 0.03998 0.47744 0.0
C535 C 0.95081 0.05714 0.48615 0.0
H536 H 0.80214 0.97144 0.46058 0.0
H537 H 0.46987 0.16163 0.54555 0.0
H538 H 0.14309 0.08298 0.79504 0.0
H539 H 0.17651 0.07629 0.81525 0.0
H540 H 0.16251 0.26409 0.82807 0.0
H541 H 0.12986 0.27096 0.80821 0.0
H542 H 0.2864 0.26757 0.84215 0.0
H543 H 1.00565 0.09857 0.82326 0.0
H544 H 0.89473 0.99349 0.8083 0.0
H545 H 0.99174 0.86582 0.81909 0.0
H546 H 0.10387 0.97046 0.83401 0.0
H547 H 0.14063 0.27935 0.8901 0.0
H548 H 0.15793 0.26179 0.87063 0.0
H549 H 0.20998 0.09615 0.87523 0.0
H550 H 0.19296 0.11398 0.89514 0.0
H551 H 0.0943 0.06461 0.85277 0.0
H552 H 0.35883 0.2368 0.87527 0.0
H553 H 0.46083 0.3446 0.89065 0.0
H554 H 0.38906 0.46916 0.87326 0.0
H555 H 0.28576 0.36204 0.85787 0.0
C556 C 0.14864 0.12337 0.80222 0.0
C557 C 0.13346 0.1773 0.80001 0.0
C558 C 0.1672 0.11929 0.81375 0.0
C559 C 0.17152 0.16947 0.82323 0.0
C560 C 0.15979 0.22479 0.82098 0.0
C561 C 0.1407 0.22845 0.80956 0.0
C562 C 0.18388 0.16404 0.83548 0.0
C563 C 0.24478 0.22288 0.84445 0.0
C564 C 0.13098 0.10515 0.83856 0.0
C565 C 0.06363 0.04239 0.82962 0.0
C566 C 1.00364 0.04817 0.82237 0.0
C567 C 0.94052 0.98871 0.81391 0.0
C568 C 0.93635 0.92306 0.81272 0.0
C569 C 0.99518 0.91673 0.82 0.0
C570 C 0.05852 0.97609 0.82846 0.0
C571 C 0.15594 0.2391 0.88707 0.0
C572 C 0.16528 0.19797 0.89423 0.0
C573 C 0.16609 0.22933 0.87589 0.0
C574 C 0.18567 0.17796 0.87145 0.0
C575 C 0.195 0.13625 0.87849 0.0
C576 C 0.18571 0.1467 0.88987 0.0
C577 C 0.19501 0.16915 0.85938 0.0
C578 C 0.13793 0.10807 0.85046 0.0
C579 C 0.25099 0.22627 0.85632 0.0
C580 C 0.31435 0.29122 0.86541 0.0
C581 C 0.36455 0.28714 0.87475 0.0
C582 C 0.42261 0.34815 0.88347 0.0
C583 C 0.43138 0.41368 0.88294 0.0
C584 C 0.38225 0.41836 0.87365 0.0
C585 C 0.32403 0.3575 0.86491 0.0
H586 H 0.47625 0.46084 0.88972 0.0
H587 H 0.88743 0.87708 0.80617 0.0
H588 H 0.30353 0.14354 0.05787 0.0
H589 H 0.33011 0.15384 0.03886 0.0
H590 H 0.11265 0.16145 0.02753 0.0
H591 H 0.08547 0.14973 0.04608 0.0
H592 H 0.11708 0.07181 0.01118 0.0
H593 H 0.30618 0.30923 0.0359 0.0
H594 H 0.42228 0.39765 0.05236 0.0
H595 H 0.57194 0.32767 0.03856 0.0
H596 H 0.45641 0.23826 0.02208 0.0
H597 H 0.13916 0.26452 0.97111 0.0
H598 H 0.16182 0.24042 0.98979 0.0
H599 H 0.29975 0.14639 0.97869 0.0
H600 H 0.27607 0.16955 0.95953 0.0
H601 H 0.35581 0.26047 1.00523 0.0
H602 H 0.15996 0.032 0.97843 0.0
H603 H 0.03979 0.95293 0.96191 0.0
H604 H 0.89925 1.01444 0.97999 0.0
H605 H 0.01882 0.09476 0.99653 0.0
C606 C 0.26207 0.14814 0.05134 0.0
C607 C 0.19204 0.14516 0.05347 0.0
C608 C 0.2772 0.15397 0.04046 0.0
C609 C 0.22303 0.15788 0.03165 0.0
C610 C 0.15489 0.15742 0.03404 0.0
C611 C 0.13953 0.15093 0.04473 0.0
C612 C 0.2341 0.16072 0.01976 0.0
C613 C 0.16979 0.11284 0.00993 0.0
C614 C 0.30334 0.21295 0.01796 0.0
C615 C 0.37255 0.26649 0.02786 0.0
C616 C 0.36372 0.31232 0.03644 0.0
C617 C 0.42943 0.36269 0.04575 0.0
C618 C 0.50438 0.3681 0.04653 0.0
C619 C 0.51382 0.32329 0.03796 0.0
C620 C 0.44827 0.27279 0.02864 0.0
C621 C 0.17494 0.23911 0.97255 0.0
C622 C 0.20545 0.21868 0.96371 0.0
C623 C 0.18799 0.22559 0.98331 0.0
C624 C 0.23246 0.19176 0.98565 0.0
C625 C 0.2655 0.17293 0.97707 0.0
C626 C 0.2517 0.18595 0.96612 0.0
C627 C 0.2381 0.17277 0.99685 0.0
C628 C 0.30472 0.21788 0.00651 0.0
C629 C 0.17068 0.11848 0.99857 0.0
C630 C 0.09847 0.06968 0.98869 0.0
C631 C 0.10356 0.0291 0.97884 0.0
C632 C 0.03554 0.98399 0.96948 0.0
C633 C 0.96198 0.97873 0.9699 0.0
C634 C 0.95627 1.01856 0.97968 0.0
C635 C 0.02413 0.0638 0.98905 0.0
H636 H 0.90937 0.94363 0.96268 0.0
H637 H 0.55519 0.40714 0.05374 0.0
H638 H 0.03428 1.01562 0.27655 0.0
H639 H 0.05829 0.02996 0.29739 0.0
H640 H 0.30204 0.18851 0.30335 0.0
H641 H 0.27843 0.17362 0.28208 0.0
H642 H 0.28793 0.09742 0.31732 0.0
H643 H 0.17237 0.24014 0.30955 0.0
H644 H 0.07713 0.26994 0.29903 0.0
H645 H 0.88481 0.10612 0.30679 0.0
H646 H 0.97871 0.07461 0.31721 0.0
H647 H 0.29765 0.16929 0.37863 0.0
H648 H 0.31024 0.18433 0.35933 0.0
H649 H 0.06314 0.02768 0.34377 0.0
H650 H 0.04982 1.01348 0.36296 0.0
H651 H 0.09968 0.1415 0.33582 0.0
H652 H 0.21567 0.99132 0.34154 0.0
H653 H 0.31176 0.96191 0.35194 0.0
H654 H 0.50599 0.14413 0.34834 0.0
H655 H 0.41099 0.17509 0.33803 0.0
C656 C 0.09331 0.05375 0.2822 0.0
C657 C 0.15421 0.09412 0.27758 0.0
C658 C 0.10685 0.06194 0.29419 0.0
C659 C 0.18145 0.11133 0.30202 0.0
C660 C 0.2437 0.15038 0.29749 0.0
C661 C 0.23016 0.14195 0.28535 0.0
C662 C 0.19189 0.12162 0.31487 0.0
C663 C 0.24801 0.10866 0.32145 0.0
C664 C 0.1394 0.13564 0.32029 0.0
C665 C 0.08263 0.15479 0.31412 0.0
C666 C 0.10971 0.21018 0.30896 0.0
C667 C 0.05595 0.22741 0.30302 0.0
C668 C 0.97496 0.18989 0.30223 0.0
C669 C 0.94758 0.13515 0.30741 0.0
C670 C 1.00107 0.11765 0.31335 0.0
C671 C 0.2459 0.13833 0.37111 0.0
C672 C 0.17273 0.08994 0.3724 0.0
C673 C 0.25337 0.14659 0.36005 0.0
C674 C 0.18779 0.10678 0.35003 0.0
C675 C 0.11472 0.05897 0.35133 0.0
C676 C 0.10734 0.05045 0.36233 0.0
C677 C 0.19382 0.11493 0.33817 0.0
C678 C 0.14063 0.1315 0.33178 0.0
C679 C 0.24934 0.10473 0.33299 0.0
C680 C 0.30631 0.08596 0.33914 0.0
C681 C 0.2789 0.02542 0.34305 0.0
C682 C 0.33315 1.00841 0.34891 0.0
C683 C 0.41494 0.05125 0.35084 0.0
C684 C 0.44263 0.11107 0.34686 0.0
C685 C 0.38862 0.12835 0.34101 0.0
H686 H 0.45685 0.038 0.35538 0.0
H687 H 0.93343 0.20329 0.29762 0.0
H688 H 0.07612 0.11327 0.6356 0.0
H689 H 0.07315 0.12853 0.65598 0.0
H690 H 0.15892 0.98098 0.65884 0.0
H691 H 0.16126 0.96503 0.63841 0.0
H692 H 0.04633 0.9567 0.6695 0.0
H693 H 0.2827 0.16204 0.67099 0.0
H694 H 0.36388 0.268 0.66544 0.0
H695 H 0.22296 0.35962 0.67583 0.0
H696 H 0.14021 0.25376 0.6813 0.0
H697 H 0.12277 0.05878 0.7328 0.0
H698 H 0.14293 0.03641 0.71323 0.0
H699 H 0.03887 0.1623 0.70353 0.0
H700 H 0.01855 0.18441 0.72276 0.0
H701 H 0.17519 0.19573 0.69716 0.0
H702 H 0.93312 0.98532 0.69416 0.0
H703 H 0.85277 0.87909 0.69972 0.0
H704 H 1.00858 0.79771 0.69242 0.0
H705 H 0.09052 0.904 0.68697 0.0
C706 C 0.09504 0.08451 0.64057 0.0
C707 C 0.1194 0.03823 0.63532 0.0
C708 C 0.09331 0.09325 0.65226 0.0
C709 C 0.11704 0.05679 0.65909 0.0
C710 C 0.14035 1.00983 0.65382 0.0
C711 C 0.14155 1.00066 0.6421 0.0
C712 C 0.11725 0.06765 0.67167 0.0
C713 C 0.07576 1.00897 0.67558 0.0
C714 C 0.15495 0.13574 0.67968 0.0
C715 C 0.20488 0.19971 0.67647 0.0
C716 C 0.2687 0.20459 0.67202 0.0
C717 C 0.31504 0.26466 0.6689 0.0
C718 C 0.29849 0.32045 0.67026 0.0
C719 C 0.23567 0.31634 0.67477 0.0
C720 C 0.18909 0.25635 0.6779 0.0
C721 C 0.10431 0.0816 0.72648 0.0
C722 C 0.06881 0.12321 0.72938 0.0
C723 C 0.11563 0.06866 0.71529 0.0
C724 C 0.09224 0.09759 0.70686 0.0
C725 C 0.05767 0.13954 0.70984 0.0
C726 C 0.04577 0.15185 0.72089 0.0
C727 C 0.10299 0.085 0.69489 0.0
C728 C 0.14666 0.14345 0.69109 0.0
C729 C 0.06767 1.01678 0.68703 0.0
C730 C 0.0185 0.95297 0.69031 0.0
C731 C 0.95066 0.94506 0.69385 0.0
C732 C 0.90475 0.88479 0.69696 0.0
C733 C 0.92572 0.8318 0.69646 0.0
C734 C 0.99253 0.83888 0.69283 0.0
C735 C 0.0387 0.89911 0.68972 0.0
H736 H 0.89008 0.78516 0.69887 0.0
H737 H 0.33442 0.3669 0.66784 0.0
loop_
_geom_bond_atom_site_label_1
_geom_bond_atom_site_label_2
_geom_bond_distance
_geom_bond_site_symmetry_2
_ccdc_geom_bond_type
Cu0 N1 1.999 . S
Cu0 O6 1.974 . S
Cu0 N11 1.985 . S
Cu0 O20 1.959 . S
N1 Cu0 1.999 . S
N1 C3 1.263 . S
N1 C5 1.389 . S
N2 C3 1.358 . S
N2 C4 1.400 . S
C3 N1 1.263 . S
C3 N2 1.358 . S
C3 H9 0.930 . S
C4 N2 1.400 . S
C4 C5 1.351 . S
C4 H21 0.930 . S
C5 N1 1.389 . S
C5 C4 1.351 . S
C5 H10 0.930 . S
O6 Cu0 1.974 . S
O6 C16 1.282 . S
C7 O8 1.261 . S
C7 O20 1.251 . S
O8 C7 1.261 . S
H9 C3 0.930 . S
H10 C5 0.930 . S
N11 Cu0 1.985 . S
N11 C13 1.335 . S
N11 C14 1.390 . S
N12 C13 1.345 . S
N12 C15 1.336 . S
C13 N11 1.335 . S
C13 N12 1.345 . S
C13 H18 0.930 . S
C14 N11 1.390 . S
C14 C15 1.346 . S
C14 H19 0.930 . S
C15 N12 1.336 . S
C15 C14 1.346 . S
C15 H22 0.929 . S
C16 O6 1.282 . S
C16 O17 1.216 . S
O17 C16 1.216 . S
H18 C13 0.930 . S
H19 C14 0.930 . S
O20 Cu0 1.959 . S
O20 C7 1.251 . S
H21 C4 0.930 . S
H22 C15 0.929 . S
Cu23 N24 1.999 . S
Cu23 O29 1.974 . S
Cu23 N34 1.985 . S
Cu23 O43 1.959 . S
N24 Cu23 1.999 . S
N24 C26 1.263 . S
N24 C28 1.389 . S
N25 C26 1.358 . S
N25 C27 1.400 . S
C26 N24 1.263 . S
C26 N25 1.358 . S
C26 H32 0.945 . S
C27 N25 1.400 . S
C27 C28 1.351 . S
C27 H44 0.930 . S
C28 N24 1.389 . S
C28 C27 1.351 . S
C28 H33 0.930 . S
O29 Cu23 1.974 . S
O29 C39 1.282 1_545 S
C30 O31 1.261 . S
C30 O43 1.251 1_665 S
O31 C30 1.261 . S
H32 C26 0.945 . S
H33 C28 0.930 . S
N34 Cu23 1.985 . S
N34 C36 1.335 . S
N34 C37 1.390 1_545 S
N35 C36 1.345 . S
N35 C38 1.336 1_545 S
C36 N34 1.335 . S
C36 N35 1.345 . S
C36 H41 0.930 . S
C37 N34 1.390 1_565 S
C37 C38 1.346 . S
C37 H42 0.930 . S
C38 N35 1.336 1_565 S
C38 C37 1.346 . S
C38 H45 0.929 . S
C39 O29 1.282 1_565 S
C39 O40 1.216 . S
O40 C39 1.216 . S
H41 C36 0.930 . S
H42 C37 0.930 . S
O43 Cu23 1.959 . S
O43 C30 1.251 1_445 S
H44 C27 0.930 . S
H45 C38 0.929 . S
Cu46 N47 1.999 1_455 S
Cu46 O52 1.974 . S
Cu46 N57 1.985 . S
Cu46 O66 1.959 . S
N47 Cu46 1.999 1_655 S
N47 C49 1.263 . S
N47 C51 1.389 1_545 S
N48 C49 1.358 1_565 S
N48 C50 1.400 . S
C49 N47 1.263 . S
C49 N48 1.358 1_545 S
C49 H55 0.930 . S
C50 N48 1.400 . S
C50 C51 1.351 . S
C50 H67 0.930 . S
C51 N47 1.389 1_565 S
C51 C50 1.351 . S
C51 H56 0.930 . S
O52 Cu46 1.974 . S
O52 C62 1.282 1_455 S
C53 O54 1.261 . S
C53 O66 1.251 1_655 S
O54 C53 1.261 . S
H55 C49 0.930 . S
H56 C51 0.930 . S
N57 Cu46 1.985 . S
N57 C59 1.335 . S
N57 C60 1.390 . S
N58 C59 1.345 . S
N58 C61 1.336 . S
C59 N57 1.335 . S
C59 N58 1.345 . S
C59 H64 0.930 . S
C60 N57 1.390 . S
C60 C61 1.346 . S
C60 H65 0.930 . S
C61 N58 1.336 . S
C61 C60 1.346 . S
C61 H68 0.929 . S
C62 O52 1.282 1_655 S
C62 O63 1.216 . S
O63 C62 1.216 . S
H64 C59 0.930 . S
H65 C60 0.930 . S
O66 Cu46 1.959 . S
O66 C53 1.251 1_455 S
H67 C50 0.930 . S
H68 C61 0.929 . S
Cu69 N70 1.999 . S
Cu69 O75 1.974 1_455 S
Cu69 N80 1.985 . S
Cu69 O89 1.959 . S
N70 Cu69 1.999 . S
N70 C72 1.263 1_455 S
N70 C74 1.389 . S
N71 C72 1.358 1_455 S
N71 C73 1.400 . S
C72 N70 1.263 1_655 S
C72 N71 1.358 1_655 S
C72 H78 0.930 . S
C73 N71 1.400 . S
C73 C74 1.351 . S
C73 H90 0.930 . S
C74 N70 1.389 . S
C74 C73 1.351 . S
C74 H79 0.930 . S
O75 Cu69 1.974 1_655 S
O75 C85 1.282 1_545 S
C76 O77 1.261 . S
C76 O89 1.251 1_565 S
O77 C76 1.261 . S
H78 C72 0.930 . S
H79 C74 0.930 . S
N80 Cu69 1.985 . S
N80 C82 1.335 . S
N80 C83 1.390 1_445 S
N81 C82 1.345 . S
N81 C84 1.336 1_445 S
C82 N80 1.335 . S
C82 N81 1.345 . S
C82 H87 0.930 . S
C83 N80 1.390 1_665 S
C83 C84 1.346 . S
C83 H88 0.930 . S
C84 N81 1.336 1_665 S
C84 C83 1.346 . S
C84 H91 0.929 . S
C85 O75 1.282 1_565 S
C85 O86 1.216 . S
O86 C85 1.216 . S
H87 C82 0.930 . S
H88 C83 0.930 . S
O89 Cu69 1.959 . S
O89 C76 1.251 1_545 S
H90 C73 0.930 . S
H91 C84 0.929 . S
Cu92 N93 1.999 . S
Cu92 O98 1.974 . S
Cu92 N103 1.985 1_455 S
Cu92 O112 1.959 . S
N93 Cu92 1.999 . S
N93 C95 1.263 . S
N93 C97 1.389 . S
N94 C95 1.358 . S
N94 C96 1.400 . S
C95 N93 1.263 . S
C95 N94 1.358 . S
C95 H101 0.930 . S
C96 N94 1.400 . S
C96 C97 1.351 . S
C96 H113 0.930 . S
C97 N93 1.389 . S
C97 C96 1.351 . S
C97 H102 0.930 . S
O98 Cu92 1.974 . S
O98 C108 1.282 . S
C99 O100 1.261 . S
C99 O112 1.251 . S
O100 C99 1.261 . S
H101 C95 0.930 . S
H102 C97 0.930 . S
N103 Cu92 1.985 1_655 S
N103 C105 1.335 . S
N103 C106 1.390 . S
N104 C105 1.345 . S
N104 C107 1.336 . S
C105 N103 1.335 . S
C105 N104 1.345 . S
C105 H110 0.930 1_655 S
C106 N103 1.390 . S
C106 C107 1.346 . S
C106 H111 0.930 . S
C107 N104 1.336 . S
C107 C106 1.346 . S
C107 H114 0.929 1_545 S
C108 O98 1.282 . S
C108 O109 1.216 . S
O109 C108 1.216 . S
H110 C105 0.930 1_455 S
H111 C106 0.930 . S
O112 Cu92 1.959 . S
O112 C99 1.251 . S
H113 C96 0.930 . S
H114 C107 0.929 1_565 S
Cu115 N116 1.999 . S
Cu115 O121 1.974 . S
Cu115 N126 1.985 . S
Cu115 O135 1.959 . S
N116 Cu115 1.999 . S
N116 C118 1.263 . S
N116 C120 1.389 . S
N117 C118 1.358 . S
N117 C119 1.400 . S
C118 N116 1.263 . S
C118 N117 1.358 . S
C118 H124 0.930 . S
C119 N117 1.400 . S
C119 C120 1.351 . S
C119 H136 0.930 . S
C120 N116 1.389 . S
C120 C119 1.351 . S
C120 H125 0.930 . S
O121 Cu115 1.974 . S
O121 C131 1.282 . S
C122 O123 1.261 . S
C122 O135 1.251 . S
O123 C122 1.261 . S
H124 C118 0.930 . S
H125 C120 0.930 . S
N126 Cu115 1.985 . S
N126 C128 1.335 . S
N126 C129 1.390 . S
N127 C128 1.345 1_565 S
N127 C130 1.336 . S
C128 N126 1.335 . S
C128 N127 1.345 1_545 S
C128 H133 0.930 . S
C129 N126 1.390 . S
C129 C130 1.346 1_545 S
C129 H134 0.930 . S
C130 N127 1.336 . S
C130 C129 1.346 1_565 S
C130 H137 0.929 . S
C131 O121 1.282 . S
C131 O132 1.216 . S
O132 C131 1.216 . S
H133 C128 0.930 . S
H134 C129 0.930 . S
O135 Cu115 1.959 . S
O135 C122 1.251 . S
H136 C119 0.930 . S
H137 C130 0.929 . S
H138 C156 0.951 1_545 S
H139 C158 0.951 . S
H140 C160 0.950 . S
H141 C161 0.950 . S
H142 C163 0.950 . S
H143 C166 0.950 . S
H144 C167 0.950 . S
H145 C169 0.950 . S
H146 C170 0.950 . S
H147 C171 0.951 . S
H148 C173 0.951 . S
H149 C175 0.950 . S
H150 C176 0.950 . S
H151 C178 0.950 . S
H152 C181 0.950 . S
H153 C182 0.950 . S
H154 C184 0.950 1_655 S
H155 C185 0.950 . S
C156 H138 0.951 1_565 S
C156 C157 1.366 . S
C156 C158 1.388 . S
C157 C156 1.366 . S
C157 C161 1.385 . S
C158 H139 0.951 . S
C158 C156 1.388 . S
C158 C159 1.366 . S
C159 C158 1.366 . S
C159 C160 1.414 . S
C159 C162 1.499 . S
C160 H140 0.950 . S
C160 C159 1.414 . S
C160 C161 1.374 . S
C161 H141 0.950 . S
C161 C157 1.385 . S
C161 C160 1.374 . S
C162 C159 1.499 . S
C162 C163 1.373 . S
C162 C164 1.389 . S
C163 H142 0.950 . S
C163 C162 1.373 . S
C163 C179 1.377 . S
C164 C162 1.389 . S
C164 C165 1.524 . S
C164 C178 1.377 . S
C165 C164 1.524 . S
C165 C166 1.397 . S
C165 C170 1.363 . S
C166 H143 0.950 . S
C166 C165 1.397 . S
C166 C167 1.334 . S
C167 H144 0.950 . S
C167 C166 1.334 . S
C167 C168 1.287 . S
C168 C167 1.287 . S
C168 C169 1.524 . S
C168 H187 0.913 . S
C169 H145 0.950 . S
C169 C168 1.524 . S
C169 C170 1.415 . S
C170 H146 0.950 . S
C170 C165 1.363 . S
C170 C169 1.415 . S
C171 H147 0.951 . S
C171 C172 1.366 . S
C171 C173 1.388 . S
C172 C171 1.366 . S
C172 C176 1.385 . S
C173 H148 0.951 . S
C173 C171 1.388 . S
C173 C174 1.366 . S
C174 C173 1.366 . S
C174 C175 1.414 . S
C174 C177 1.499 . S
C175 H149 0.950 . S
C175 C174 1.414 . S
C175 C176 1.374 . S
C176 H150 0.950 . S
C176 C172 1.385 . S
C176 C175 1.374 . S
C177 C174 1.499 . S
C177 C178 1.373 . S
C177 C179 1.389 . S
C178 H151 0.950 . S
C178 C164 1.377 . S
C178 C177 1.373 . S
C179 C163 1.377 . S
C179 C177 1.389 . S
C179 C180 1.524 . S
C180 C179 1.524 . S
C180 C181 1.397 . S
C180 C185 1.363 . S
C181 H152 0.950 . S
C181 C180 1.397 . S
C181 C182 1.334 . S
C182 H153 0.950 . S
C182 C181 1.334 . S
C182 C183 1.287 . S
C183 C182 1.287 . S
C183 C184 1.524 . S
C183 H186 0.999 . S
C184 H154 0.950 1_455 S
C184 C183 1.524 . S
C184 C185 1.415 . S
C185 H155 0.950 . S
C185 C180 1.363 . S
C185 C184 1.415 . S
H186 C183 0.999 . S
H187 C168 0.913 . S
H188 C206 0.951 . S
H189 C208 0.951 . S
H190 C210 0.950 . S
H191 C211 0.950 . S
H192 C213 0.950 . S
H193 C216 0.950 . S
H194 C217 0.950 . S
H195 C219 0.950 . S
H196 C220 0.950 . S
H197 C221 0.951 . S
H198 C223 0.951 . S
H199 C225 0.950 . S
H200 C226 0.950 . S
H201 C228 0.950 . S
H202 C231 0.950 . S
H203 C232 0.950 . S
H204 C234 0.950 1_545 S
H205 C235 0.950 . S
C206 H188 0.951 . S
C206 C207 1.366 . S
C206 C208 1.388 . S
C207 C206 1.366 . S
C207 C211 1.385 1_565 S
C208 H189 0.951 . S
C208 C206 1.388 . S
C208 C209 1.366 . S
C209 C208 1.366 . S
C209 C210 1.414 1_565 S
C209 C212 1.499 . S
C210 H190 0.950 . S
C210 C209 1.414 1_545 S
C210 C211 1.374 . S
C211 H191 0.950 . S
C211 C207 1.385 1_545 S
C211 C210 1.374 . S
C212 C209 1.499 . S
C212 C213 1.373 . S
C212 C214 1.389 . S
C213 H192 0.950 . S
C213 C212 1.373 . S
C213 C229 1.377 . S
C214 C212 1.389 . S
C214 C215 1.524 1_565 S
C214 C228 1.377 . S
C215 C214 1.524 1_545 S
C215 C216 1.397 . S
C215 C220 1.363 1_545 S
C216 H193 0.950 . S
C216 C215 1.397 . S
C216 C217 1.334 . S
C217 H194 0.950 . S
C217 C216 1.334 . S
C217 C218 1.287 . S
C218 C217 1.287 . S
C218 C219 1.524 1_545 S
C218 H237 0.913 . S
C219 H195 0.950 . S
C219 C218 1.524 1_565 S
C219 C220 1.415 . S
C220 H196 0.950 . S
C220 C215 1.363 1_565 S
C220 C219 1.415 . S
C221 H197 0.951 . S
C221 C222 1.366 1_545 S
C221 C223 1.388 . S
C222 C221 1.366 1_565 S
C222 C226 1.385 . S
C223 H198 0.951 . S
C223 C221 1.388 . S
C223 C224 1.366 1_545 S
C224 C223 1.366 1_565 S
C224 C225 1.414 . S
C224 C227 1.499 . S
C225 H199 0.950 . S
C225 C224 1.414 . S
C225 C226 1.374 . S
C226 H200 0.950 . S
C226 C222 1.385 . S
C226 C225 1.374 . S
C227 C224 1.499 . S
C227 C228 1.373 . S
C227 C229 1.389 . S
C228 H201 0.950 . S
C228 C214 1.377 . S
C228 C227 1.373 . S
C229 C213 1.377 . S
C229 C227 1.389 . S
C229 C230 1.524 . S
C230 C229 1.524 . S
C230 C231 1.397 . S
C230 C235 1.363 1_565 S
C231 H202 0.950 . S
C231 C230 1.397 . S
C231 C232 1.334 . S
C232 H203 0.950 . S
C232 C231 1.334 . S
C232 C233 1.287 . S
C233 C232 1.287 . S
C233 C234 1.524 . S
C233 H236 0.999 . S
C234 H204 0.950 1_565 S
C234 C233 1.524 . S
C234 C235 1.415 1_565 S
C235 H205 0.950 . S
C235 C230 1.363 1_545 S
C235 C234 1.415 1_545 S
H236 C233 0.999 . S
H237 C218 0.913 . S
H238 C256 0.951 . S
H239 C258 0.951 . S
H240 C260 0.950 . S
H241 C261 0.950 . S
H242 C263 0.950 . S
H243 C266 0.950 . S
H244 C267 0.950 . S
H245 C269 0.950 . S
H246 C270 0.950 . S
H247 C271 0.951 . S
H248 C273 0.951 . S
H249 C275 0.950 . S
H250 C276 0.950 . S
H251 C278 0.950 . S
H252 C281 0.950 . S
H253 C282 0.950 . S
H254 C284 0.950 . S
H255 C285 0.950 . S
C256 H238 0.951 . S
C256 C257 1.366 . S
C256 C258 1.388 . S
C257 C256 1.366 . S
C257 C261 1.385 . S
C258 H239 0.951 . S
C258 C256 1.388 . S
C258 C259 1.366 . S
C259 C258 1.366 . S
C259 C260 1.414 . S
C259 C262 1.499 . S
C260 H240 0.950 . S
C260 C259 1.414 . S
C260 C261 1.374 . S
C261 H241 0.950 . S
C261 C257 1.385 . S
C261 C260 1.374 . S
C262 C259 1.499 . S
C262 C263 1.373 . S
C262 C264 1.389 . S
C263 H242 0.950 . S
C263 C262 1.373 . S
C263 C279 1.377 . S
C264 C262 1.389 . S
C264 C265 1.524 . S
C264 C278 1.377 . S
C265 C264 1.524 . S
C265 C266 1.397 . S
C265 C270 1.363 . S
C266 H243 0.950 . S
C266 C265 1.397 . S
C266 C267 1.334 . S
C267 H244 0.950 . S
C267 C266 1.334 . S
C267 C268 1.287 . S
C268 C267 1.287 . S
C268 C269 1.524 . S
C268 H287 0.913 . S
C269 H245 0.950 . S
C269 C268 1.524 . S
C269 C270 1.415 . S
C270 H246 0.950 . S
C270 C265 1.363 . S
C270 C269 1.415 . S
C271 H247 0.951 . S
C271 C272 1.366 . S
C271 C273 1.388 . S
C272 C271 1.366 . S
C272 C276 1.385 . S
C273 H248 0.951 . S
C273 C271 1.388 . S
C273 C274 1.366 . S
C274 C273 1.366 . S
C274 C275 1.414 . S
C274 C277 1.499 . S
C275 H249 0.950 . S
C275 C274 1.414 . S
C275 C276 1.374 . S
C276 H250 0.950 . S
C276 C272 1.385 . S
C276 C275 1.374 . S
C277 C274 1.499 . S
C277 C278 1.373 . S
C277 C279 1.389 . S
C278 H251 0.950 . S
C278 C264 1.377 . S
C278 C277 1.373 . S
C279 C263 1.377 . S
C279 C277 1.389 . S
C279 C280 1.524 . S
C280 C279 1.524 . S
C280 C281 1.397 . S
C280 C285 1.363 . S
C281 H252 0.950 . S
C281 C280 1.397 . S
C281 C282 1.334 . S
C282 H253 0.950 . S
C282 C281 1.334 . S
C282 C283 1.287 . S
C283 C282 1.287 . S
C283 C284 1.524 . S
C283 H286 0.999 . S
C284 H254 0.950 . S
C284 C283 1.524 . S
C284 C285 1.415 . S
C285 H255 0.950 . S
C285 C280 1.363 . S
C285 C284 1.415 . S
H286 C283 0.999 . S
H287 C268 0.913 . S
H288 C306 0.951 . S
H289 C308 0.951 . S
H290 C310 0.950 . S
H291 C311 0.950 . S
H292 C313 0.950 . S
H293 C316 0.950 . S
H294 C317 0.950 . S
H295 C319 0.950 . S
H296 C320 0.950 . S
H297 C321 0.951 . S
H298 C323 0.951 . S
H299 C325 0.950 . S
H300 C326 0.950 . S
H301 C328 0.950 . S
H302 C331 0.950 . S
H303 C332 0.950 . S
H304 C334 0.950 . S
H305 C335 0.950 . S
C306 H288 0.951 . S
C306 C307 1.366 1_545 S
C306 C308 1.388 . S
C307 C306 1.366 1_565 S
C307 C311 1.385 . S
C308 H289 0.951 . S
C308 C306 1.388 . S
C308 C309 1.366 1_545 S
C309 C308 1.366 1_565 S
C309 C310 1.414 . S
C309 C312 1.499 . S
C310 H290 0.950 . S
C310 C309 1.414 . S
C310 C311 1.374 . S
C311 H291 0.950 . S
C311 C307 1.385 . S
C311 C310 1.374 . S
C312 C309 1.499 . S
C312 C313 1.373 1_565 S
C312 C314 1.389 . S
C313 H292 0.950 . S
C313 C312 1.373 1_545 S
C313 C329 1.377 . S
C314 C312 1.389 . S
C314 C315 1.524 . S
C314 C328 1.377 . S
C315 C314 1.524 . S
C315 C316 1.397 . S
C315 C320 1.363 . S
C316 H293 0.950 . S
C316 C315 1.397 . S
C316 C317 1.334 . S
C317 H294 0.950 . S
C317 C316 1.334 . S
C317 C318 1.287 . S
C318 C317 1.287 . S
C318 C319 1.524 . S
C318 H337 0.913 . S
C319 H295 0.950 . S
C319 C318 1.524 . S
C319 C320 1.415 . S
C320 H296 0.950 . S
C320 C315 1.363 . S
C320 C319 1.415 . S
C321 H297 0.951 . S
C321 C322 1.366 . S
C321 C323 1.388 . S
C322 C321 1.366 . S
C322 C326 1.385 1_565 S
C323 H298 0.951 . S
C323 C321 1.388 . S
C323 C324 1.371 . S
C324 C323 1.371 . S
C324 C325 1.413 1_565 S
C324 C327 1.494 1_565 S
C325 H299 0.950 . S
C325 C324 1.413 1_545 S
C325 C326 1.374 . S
C326 H300 0.950 . S
C326 C322 1.385 1_545 S
C326 C325 1.374 . S
C327 C324 1.494 1_545 S
C327 C328 1.373 1_545 S
C327 C329 1.390 . S
C328 H301 0.950 . S
C328 C314 1.377 . S
C328 C327 1.373 1_565 S
C329 C313 1.377 . S
C329 C327 1.390 . S
C329 C330 1.524 . S
C330 C329 1.524 . S
C330 C331 1.397 . S
C330 C335 1.363 . S
C331 H302 0.950 . S
C331 C330 1.397 . S
C331 C332 1.334 . S
C332 H303 0.950 . S
C332 C331 1.334 . S
C332 C333 1.287 . S
C333 C332 1.287 . S
C333 C334 1.524 . S
C333 H336 0.999 . S
C334 H304 0.950 . S
C334 C333 1.524 . S
C334 C335 1.415 . S
C335 H305 0.950 . S
C335 C330 1.363 . S
C335 C334 1.415 . S
H336 C333 0.999 . S
H337 C318 0.913 . S
H338 C356 0.951 . S
H339 C358 0.951 . S
H340 C360 0.950 . S
H341 C361 0.950 . S
H342 C363 0.950 . S
H343 C366 0.950 . S
H344 C367 0.950 . S
H345 C369 0.950 . S
H346 C370 0.950 . S
H347 C371 0.951 . S
H348 C373 0.951 . S
H349 C375 0.950 . S
H350 C376 0.950 . S
H351 C378 0.950 . S
H352 C381 0.950 . S
H353 C382 0.950 . S
H354 C384 0.950 . S
H355 C385 0.950 . S
C356 H338 0.951 . S
C356 C357 1.366 . S
C356 C358 1.388 . S
C357 C356 1.366 . S
C357 C361 1.385 . S
C358 H339 0.951 . S
C358 C356 1.388 . S
C358 C359 1.366 . S
C359 C358 1.366 . S
C359 C360 1.414 . S
C359 C362 1.499 . S
C360 H340 0.950 . S
C360 C359 1.414 . S
C360 C361 1.374 . S
C361 H341 0.950 . S
C361 C357 1.385 . S
C361 C360 1.374 . S
C362 C359 1.499 . S
C362 C363 1.373 . S
C362 C364 1.389 . S
C363 H342 0.950 . S
C363 C362 1.373 . S
C363 C379 1.377 . S
C364 C362 1.389 . S
C364 C365 1.524 . S
C364 C378 1.377 . S
C365 C364 1.524 . S
C365 C366 1.397 . S
C365 C370 1.363 . S
C366 H343 0.950 . S
C366 C365 1.397 . S
C366 C367 1.334 . S
C367 H344 0.950 . S
C367 C366 1.334 . S
C367 C368 1.287 . S
C368 C367 1.287 . S
C368 C369 1.524 . S
C368 H387 0.913 . S
C369 H345 0.950 . S
C369 C368 1.524 . S
C369 C370 1.415 . S
C370 H346 0.950 . S
C370 C365 1.363 . S
C370 C369 1.415 . S
C371 H347 0.951 . S
C371 C372 1.366 . S
C371 C373 1.388 . S
C372 C371 1.366 . S
C372 C376 1.385 . S
C373 H348 0.951 . S
C373 C371 1.388 . S
C373 C374 1.366 . S
C374 C373 1.366 . S
C374 C375 1.414 . S
C374 C377 1.499 . S
C375 H349 0.950 . S
C375 C374 1.414 . S
C375 C376 1.374 . S
C376 H350 0.950 . S
C376 C372 1.385 . S
C376 C375 1.374 . S
C377 C374 1.499 . S
C377 C378 1.373 . S
C377 C379 1.389 . S
C378 H351 0.950 . S
C378 C364 1.377 . S
C378 C377 1.373 . S
C379 C363 1.377 . S
C379 C377 1.389 . S
C379 C380 1.524 . S
C380 C379 1.524 . S
C380 C381 1.397 . S
C380 C385 1.363 . S
C381 H352 0.950 . S
C381 C380 1.397 . S
C381 C382 1.334 . S
C382 H353 0.950 . S
C382 C381 1.334 . S
C382 C383 1.287 . S
C383 C382 1.287 . S
C383 C384 1.524 . S
C383 H386 0.999 . S
C384 H354 0.950 . S
C384 C383 1.524 . S
C384 C385 1.415 . S
C385 H355 0.950 . S
C385 C380 1.363 . S
C385 C384 1.415 . S
H386 C383 0.999 . S
H387 C368 0.913 . S
H388 C406 0.951 . S
H389 C408 0.951 . S
H390 C410 0.950 . S
H391 C411 0.950 . S
H392 C413 0.950 . S
H393 C416 0.950 . S
H394 C417 0.950 . S
H395 C419 0.950 . S
H396 C420 0.950 . S
H397 C421 0.951 . S
H398 C423 0.951 . S
H399 C425 0.950 . S
H400 C426 0.950 . S
H401 C428 0.950 . S
H402 C431 0.950 . S
H403 C432 0.950 . S
H404 C434 0.950 . S
H405 C435 0.950 . S
C406 H388 0.951 . S
C406 C407 1.366 . S
C406 C408 1.388 . S
C407 C406 1.366 . S
C407 C411 1.385 . S
C408 H389 0.951 . S
C408 C406 1.388 . S
C408 C409 1.366 . S
C409 C408 1.366 . S
C409 C410 1.414 . S
C409 C412 1.499 . S
C410 H390 0.950 . S
C410 C409 1.414 . S
C410 C411 1.374 . S
C411 H391 0.950 . S
C411 C407 1.385 . S
C411 C410 1.374 . S
C412 C409 1.499 . S
C412 C413 1.373 . S
C412 C414 1.389 . S
C413 H392 0.950 . S
C413 C412 1.373 . S
C413 C429 1.377 . S
C414 C412 1.389 . S
C414 C415 1.524 . S
C414 C428 1.377 . S
C415 C414 1.524 . S
C415 C416 1.397 . S
C415 C420 1.363 . S
C416 H393 0.950 . S
C416 C415 1.397 . S
C416 C417 1.334 . S
C417 H394 0.950 . S
C417 C416 1.334 . S
C417 C418 1.287 . S
C418 C417 1.287 . S
C418 C419 1.524 . S
C418 H437 0.913 . S
C419 H395 0.950 . S
C419 C418 1.524 . S
C419 C420 1.415 . S
C420 H396 0.950 . S
C420 C415 1.363 . S
C420 C419 1.415 . S
C421 H397 0.951 . S
C421 C422 1.366 . S
C421 C423 1.388 . S
C422 C421 1.366 . S
C422 C426 1.385 . S
C423 H398 0.951 . S
C423 C421 1.388 . S
C423 C424 1.366 . S
C424 C423 1.366 . S
C424 C425 1.414 . S
C424 C427 1.499 . S
C425 H399 0.950 . S
C425 C424 1.414 . S
C425 C426 1.374 . S
C426 H400 0.950 . S
C426 C422 1.385 . S
C426 C425 1.374 . S
C427 C424 1.499 . S
C427 C428 1.373 . S
C427 C429 1.389 . S
C428 H401 0.950 . S
C428 C414 1.377 . S
C428 C427 1.373 . S
C429 C413 1.377 . S
C429 C427 1.389 . S
C429 C430 1.524 . S
C430 C429 1.524 . S
C430 C431 1.397 . S
C430 C435 1.363 . S
C431 H402 0.950 . S
C431 C430 1.397 . S
C431 C432 1.334 . S
C432 H403 0.950 . S
C432 C431 1.334 . S
C432 C433 1.287 . S
C433 C432 1.287 . S
C433 C434 1.524 . S
C433 H436 0.999 . S
C434 H404 0.950 . S
C434 C433 1.524 . S
C434 C435 1.415 . S
C435 H405 0.950 . S
C435 C430 1.363 . S
C435 C434 1.415 . S
H436 C433 0.999 . S
H437 C418 0.913 . S
H438 C456 0.951 . S
H439 C458 0.951 . S
H440 C460 0.950 . S
H441 C461 0.950 . S
H442 C463 0.950 . S
H443 C466 0.950 . S
H444 C467 0.950 . S
H445 C469 0.950 . S
H446 C470 0.950 . S
H447 C471 0.951 . S
H448 C473 0.951 . S
H449 C475 0.950 . S
H450 C476 0.950 . S
H451 C478 0.950 . S
H452 C481 0.950 . S
H453 C482 0.950 1_655 S
H454 C484 0.950 . S
H455 C485 0.950 . S
C456 H438 0.951 . S
C456 C457 1.366 . S
C456 C458 1.388 . S
C457 C456 1.366 . S
C457 C461 1.385 . S
C458 H439 0.951 . S
C458 C456 1.388 . S
C458 C459 1.366 . S
C459 C458 1.366 . S
C459 C460 1.414 . S
C459 C462 1.499 . S
C460 H440 0.950 . S
C460 C459 1.414 . S
C460 C461 1.374 . S
C461 H441 0.950 . S
C461 C457 1.385 . S
C461 C460 1.374 . S
C462 C459 1.499 . S
C462 C463 1.373 . S
C462 C464 1.389 . S
C463 H442 0.950 . S
C463 C462 1.373 . S
C463 C479 1.377 . S
C464 C462 1.389 . S
C464 C465 1.524 . S
C464 C478 1.377 . S
C465 C464 1.524 . S
C465 C466 1.397 . S
C465 C470 1.363 . S
C466 H443 0.950 . S
C466 C465 1.397 . S
C466 C467 1.334 . S
C467 H444 0.950 . S
C467 C466 1.334 . S
C467 C468 1.287 . S
C468 C467 1.287 . S
C468 C469 1.524 . S
C468 H487 0.913 . S
C469 H445 0.950 . S
C469 C468 1.524 . S
C469 C470 1.415 . S
C470 H446 0.950 . S
C470 C465 1.363 . S
C470 C469 1.415 . S
C471 H447 0.951 . S
C471 C472 1.366 . S
C471 C473 1.388 . S
C472 C471 1.366 . S
C472 C476 1.385 . S
C473 H448 0.951 . S
C473 C471 1.388 . S
C473 C474 1.366 . S
C474 C473 1.366 . S
C474 C475 1.414 . S
C474 C477 1.499 . S
C475 H449 0.950 . S
C475 C474 1.414 . S
C475 C476 1.374 . S
C476 H450 0.950 . S
C476 C472 1.385 . S
C476 C475 1.374 . S
C477 C474 1.499 . S
C477 C478 1.373 . S
C477 C479 1.389 . S
C478 H451 0.950 . S
C478 C464 1.377 . S
C478 C477 1.373 . S
C479 C463 1.377 . S
C479 C477 1.389 . S
C479 C480 1.524 . S
C480 C479 1.524 . S
C480 C481 1.397 . S
C480 C485 1.363 . S
C481 H452 0.950 . S
C481 C480 1.397 . S
C481 C482 1.334 . S
C482 H453 0.950 1_455 S
C482 C481 1.334 . S
C482 C483 1.287 . S
C483 C482 1.287 . S
C483 C484 1.524 . S
C483 H486 0.999 1_455 S
C484 H454 0.950 . S
C484 C483 1.524 . S
C484 C485 1.415 . S
C485 H455 0.950 . S
C485 C480 1.363 . S
C485 C484 1.415 . S
H486 C483 0.999 1_655 S
H487 C468 0.913 . S
H488 C506 0.951 . S
H489 C508 0.951 . S
H490 C510 0.950 . S
H491 C511 0.950 1_655 S
H492 C513 0.950 1_565 S
H493 C516 0.950 . S
H494 C517 0.950 . S
H495 C519 0.950 . S
H496 C520 0.950 1_565 S
H497 C521 0.951 . S
H498 C523 0.951 . S
H499 C525 0.950 . S
H500 C526 0.950 . S
H501 C528 0.950 . S
H502 C531 0.950 . S
H503 C532 0.950 . S
H504 C534 0.950 1_545 S
H505 C535 0.950 . S
C506 H488 0.951 . S
C506 C507 1.366 1_565 S
C506 C508 1.388 . S
C507 C506 1.366 1_545 S
C507 C511 1.385 . S
C508 H489 0.951 . S
C508 C506 1.388 . S
C508 C509 1.366 1_565 S
C509 C508 1.366 1_545 S
C509 C510 1.414 . S
C509 C512 1.499 . S
C510 H490 0.950 . S
C510 C509 1.414 . S
C510 C511 1.374 . S
C511 H491 0.950 1_455 S
C511 C507 1.385 . S
C511 C510 1.374 . S
C512 C509 1.499 . S
C512 C513 1.373 1_455 S
C512 C514 1.389 . S
C513 H492 0.950 1_545 S
C513 C512 1.373 1_655 S
C513 C529 1.377 1_645 S
C514 C512 1.389 . S
C514 C515 1.524 . S
C514 C528 1.377 . S
C515 C514 1.524 . S
C515 C516 1.397 . S
C515 C520 1.363 . S
C516 H493 0.950 . S
C516 C515 1.397 . S
C516 C517 1.334 . S
C517 H494 0.950 . S
C517 C516 1.334 . S
C517 C518 1.287 . S
C518 C517 1.287 . S
C518 C519 1.524 . S
C518 H537 0.913 . S
C519 H495 0.950 . S
C519 C518 1.524 . S
C519 C520 1.415 . S
C520 H496 0.950 1_545 S
C520 C515 1.363 . S
C520 C519 1.415 . S
C521 H497 0.951 . S
C521 C522 1.366 . S
C521 C523 1.388 . S
C522 C521 1.366 . S
C522 C526 1.385 1_545 S
C523 H498 0.951 . S
C523 C521 1.388 . S
C523 C524 1.366 . S
C524 C523 1.366 . S
C524 C525 1.414 1_545 S
C524 C527 1.499 . S
C525 H499 0.950 . S
C525 C524 1.414 1_565 S
C525 C526 1.374 . S
C526 H500 0.950 . S
C526 C522 1.385 1_565 S
C526 C525 1.374 . S
C527 C524 1.499 . S
C527 C528 1.373 . S
C527 C529 1.389 1_545 S
C528 H501 0.950 . S
C528 C514 1.377 . S
C528 C527 1.373 . S
C529 C513 1.377 1_465 S
C529 C527 1.389 1_565 S
C529 C530 1.524 1_455 S
C530 C529 1.524 1_655 S
C530 C531 1.397 . S
C530 C535 1.363 1_565 S
C531 H502 0.950 . S
C531 C530 1.397 . S
C531 C532 1.334 . S
C532 H503 0.950 . S
C532 C531 1.334 . S
C532 C533 1.287 . S
C533 C532 1.287 . S
C533 C534 1.524 . S
C533 H536 0.999 . S
C534 H504 0.950 1_565 S
C534 C533 1.524 . S
C534 C535 1.415 1_565 S
C535 H505 0.950 . S
C535 C530 1.363 1_545 S
C535 C534 1.415 1_545 S
H536 C533 0.999 . S
H537 C518 0.913 . S
H538 C556 0.951 . S
H539 C558 0.951 . S
H540 C560 0.950 . S
H541 C561 0.950 . S
H542 C563 0.950 . S
H543 C566 0.950 . S
H544 C567 0.950 . S
H545 C569 0.950 1_565 S
H546 C570 0.950 . S
H547 C571 0.951 . S
H548 C573 0.951 . S
H549 C575 0.950 . S
H550 C576 0.948 1_655 S
H551 C578 0.950 . S
H552 C581 0.950 . S
H553 C582 0.950 . S
H554 C584 0.950 . S
H555 C585 0.950 . S
C556 H538 0.951 . S
C556 C557 1.366 . S
C556 C558 1.388 . S
C557 C556 1.366 . S
C557 C561 1.385 1_655 S
C558 H539 0.951 . S
C558 C556 1.388 . S
C558 C559 1.366 1_655 S
C559 C558 1.366 1_455 S
C559 C560 1.414 . S
C559 C562 1.499 . S
C560 H540 0.950 . S
C560 C559 1.414 . S
C560 C561 1.374 . S
C561 H541 0.950 . S
C561 C557 1.385 1_455 S
C561 C560 1.374 . S
C562 C559 1.499 . S
C562 C563 1.373 . S
C562 C564 1.389 1_455 S
C563 H542 0.950 . S
C563 C562 1.373 . S
C563 C579 1.377 . S
C564 C562 1.389 1_655 S
C564 C565 1.524 . S
C564 C578 1.377 . S
C565 C564 1.524 . S
C565 C566 1.397 . S
C565 C570 1.363 . S
C566 H543 0.950 . S
C566 C565 1.397 . S
C566 C567 1.334 . S
C567 H544 0.950 . S
C567 C566 1.334 . S
C567 C568 1.287 . S
C568 C567 1.287 . S
C568 C569 1.524 . S
C568 H587 0.913 . S
C569 H545 0.950 1_545 S
C569 C568 1.524 . S
C569 C570 1.415 . S
C570 H546 0.950 . S
C570 C565 1.363 . S
C570 C569 1.415 . S
C571 H547 0.951 . S
C571 C572 1.366 . S
C571 C573 1.388 . S
C572 C571 1.366 . S
C572 C576 1.385 . S
C573 H548 0.951 . S
C573 C571 1.388 . S
C573 C574 1.366 . S
C574 C573 1.366 . S
C574 C575 1.414 1_455 S
C574 C577 1.499 . S
C575 H549 0.950 . S
C575 C574 1.414 1_655 S
C575 C576 1.376 1_655 S
C576 H550 0.948 1_455 S
C576 C572 1.385 . S
C576 C575 1.376 1_455 S
C577 C574 1.499 . S
C577 C578 1.373 1_455 S
C577 C579 1.389 . S
C578 H551 0.950 . S
C578 C564 1.377 . S
C578 C577 1.373 1_655 S
C579 C563 1.377 . S
C579 C577 1.389 . S
C579 C580 1.524 . S
C580 C579 1.524 . S
C580 C581 1.397 . S
C580 C585 1.363 . S
C581 H552 0.950 . S
C581 C580 1.397 . S
C581 C582 1.334 . S
C582 H553 0.950 . S
C582 C581 1.334 . S
C582 C583 1.287 . S
C583 C582 1.287 . S
C583 C584 1.524 . S
C583 H586 0.999 . S
C584 H554 0.950 . S
C584 C583 1.524 . S
C584 C585 1.415 . S
C585 H555 0.950 . S
C585 C580 1.363 . S
C585 C584 1.415 . S
H586 C583 0.999 . S
H587 C568 0.913 . S
H588 C606 0.951 . S
H589 C608 0.951 . S
H590 C610 0.950 . S
H591 C611 0.950 . S
H592 C613 0.950 . S
H593 C616 0.950 . S
H594 C617 0.950 . S
H595 C619 0.950 . S
H596 C620 0.950 . S
H597 C621 0.951 . S
H598 C623 0.951 . S
H599 C625 0.950 . S
H600 C626 0.950 . S
H601 C628 0.950 . S
H602 C631 0.950 . S
H603 C632 0.950 . S
H604 C634 0.950 . S
H605 C635 0.950 1_554 S
C606 H588 0.951 . S
C606 C607 1.366 . S
C606 C608 1.388 . S
C607 C606 1.366 . S
C607 C611 1.385 . S
C608 H589 0.951 . S
C608 C606 1.388 . S
C608 C609 1.366 . S
C609 C608 1.366 . S
C609 C610 1.414 . S
C609 C612 1.499 . S
C610 H590 0.950 . S
C610 C609 1.414 . S
C610 C611 1.374 . S
C611 H591 0.950 . S
C611 C607 1.385 . S
C611 C610 1.374 . S
C612 C609 1.499 . S
C612 C613 1.373 . S
C612 C614 1.389 . S
C613 H592 0.950 . S
C613 C612 1.373 . S
C613 C629 1.377 1_554 S
C614 C612 1.389 . S
C614 C615 1.524 . S
C614 C628 1.377 1_554 S
C615 C614 1.524 . S
C615 C616 1.397 . S
C615 C620 1.363 . S
C616 H593 0.950 . S
C616 C615 1.397 . S
C616 C617 1.334 . S
C617 H594 0.950 . S
C617 C616 1.334 . S
C617 C618 1.287 . S
C618 C617 1.287 . S
C618 C619 1.524 . S
C618 H637 0.913 . S
C619 H595 0.950 . S
C619 C618 1.524 . S
C619 C620 1.415 . S
C620 H596 0.950 . S
C620 C615 1.363 . S
C620 C619 1.415 . S
C621 H597 0.951 . S
C621 C622 1.366 . S
C621 C623 1.388 . S
C622 C621 1.366 . S
C622 C626 1.385 . S
C623 H598 0.951 . S
C623 C621 1.388 . S
C623 C624 1.366 . S
C624 C623 1.366 . S
C624 C625 1.414 . S
C624 C627 1.499 . S
C625 H599 0.950 . S
C625 C624 1.414 . S
C625 C626 1.374 . S
C626 H600 0.950 . S
C626 C622 1.385 . S
C626 C625 1.374 . S
C627 C624 1.499 . S
C627 C628 1.373 . S
C627 C629 1.389 . S
C628 H601 0.950 . S
C628 C614 1.377 1_556 S
C628 C627 1.373 . S
C629 C613 1.377 1_556 S
C629 C627 1.389 . S
C629 C630 1.524 1_455 S
C630 C629 1.524 1_655 S
C630 C631 1.397 . S
C630 C635 1.363 . S
C631 H602 0.950 . S
C631 C630 1.397 . S
C631 C632 1.334 . S
C632 H603 0.950 . S
C632 C631 1.334 . S
C632 C633 1.287 . S
C633 C632 1.287 . S
C633 C634 1.524 . S
C633 H636 0.999 . S
C634 H604 0.950 . S
C634 C633 1.524 . S
C634 C635 1.415 . S
C635 H605 0.950 1_556 S
C635 C630 1.363 . S
C635 C634 1.415 . S
H636 C633 0.999 . S
H637 C618 0.913 . S
H638 C656 0.951 . S
H639 C658 0.951 . S
H640 C660 0.950 . S
H641 C661 0.950 . S
H642 C663 0.950 . S
H643 C666 0.950 . S
H644 C667 0.950 . S
H645 C669 0.950 . S
H646 C670 0.950 . S
H647 C671 0.951 . S
H648 C673 0.951 . S
H649 C675 0.950 . S
H650 C676 0.950 . S
H651 C678 0.950 . S
H652 C681 0.950 . S
H653 C682 0.950 . S
H654 C684 0.950 . S
H655 C685 0.950 . S
C656 H638 0.951 . S
C656 C657 1.366 . S
C656 C658 1.388 . S
C657 C656 1.366 . S
C657 C661 1.385 . S
C658 H639 0.951 . S
C658 C656 1.388 . S
C658 C659 1.366 . S
C659 C658 1.366 . S
C659 C660 1.414 . S
C659 C662 1.499 . S
C660 H640 0.950 . S
C660 C659 1.414 . S
C660 C661 1.374 . S
C661 H641 0.950 . S
C661 C657 1.385 . S
C661 C660 1.374 . S
C662 C659 1.499 . S
C662 C663 1.373 . S
C662 C664 1.389 . S
C663 H642 0.950 . S
C663 C662 1.373 . S
C663 C679 1.377 . S
C664 C662 1.389 . S
C664 C665 1.524 . S
C664 C678 1.377 . S
C665 C664 1.524 . S
C665 C666 1.397 . S
C665 C670 1.363 1_445 S
C666 H643 0.950 . S
C666 C665 1.397 . S
C666 C667 1.334 1_455 S
C667 H644 0.950 . S
C667 C666 1.334 1_655 S
C667 C668 1.287 . S
C668 C667 1.287 . S
C668 C669 1.524 1_545 S
C668 H687 0.913 . S
C669 H645 0.950 . S
C669 C668 1.524 1_565 S
C669 C670 1.415 . S
C670 H646 0.950 . S
C670 C665 1.363 1_665 S
C670 C669 1.415 . S
C671 H647 0.951 . S
C671 C672 1.366 . S
C671 C673 1.388 . S
C672 C671 1.366 . S
C672 C676 1.385 1_545 S
C673 H648 0.951 . S
C673 C671 1.388 . S
C673 C674 1.366 . S
C674 C673 1.366 . S
C674 C675 1.414 1_545 S
C674 C677 1.499 . S
C675 H649 0.950 . S
C675 C674 1.414 1_565 S
C675 C676 1.374 . S
C676 H650 0.950 . S
C676 C672 1.385 1_565 S
C676 C675 1.374 . S
C677 C674 1.499 . S
C677 C678 1.373 . S
C677 C679 1.389 . S
C678 H651 0.950 . S
C678 C664 1.377 . S
C678 C677 1.373 . S
C679 C663 1.377 . S
C679 C677 1.389 . S
C679 C680 1.524 . S
C680 C679 1.524 . S
C680 C681 1.397 . S
C680 C685 1.363 . S
C681 H652 0.950 . S
C681 C680 1.397 . S
C681 C682 1.334 . S
C682 H653 0.950 . S
C682 C681 1.334 . S
C682 C683 1.287 . S
C683 C682 1.287 . S
C683 C684 1.524 . S
C683 H686 0.999 . S
C684 H654 0.950 . S
C684 C683 1.524 . S
C684 C685 1.415 . S
C685 H655 0.950 . S
C685 C680 1.363 . S
C685 C684 1.415 . S
H686 C683 0.999 . S
H687 C668 0.913 . S
H688 C706 0.951 . S
H689 C708 0.951 . S
H690 C710 0.952 1_665 S
H691 C711 0.950 1_565 S
H692 C713 0.950 1_565 S
H693 C716 0.950 . S
H694 C717 0.950 . S
H695 C719 0.950 . S
H696 C720 0.950 . S
H697 C721 0.951 . S
H698 C723 0.951 . S
H699 C725 0.950 . S
H700 C726 0.950 . S
H701 C728 0.950 . S
H702 C731 0.950 . S
H703 C732 0.950 . S
H704 C734 0.950 . S
H705 C735 0.950 . S
C706 H688 0.951 . S
C706 C707 1.366 . S
C706 C708 1.388 . S
C707 C706 1.366 . S
C707 C711 1.385 . S
C708 H689 0.951 . S
C708 C706 1.388 . S
C708 C709 1.366 . S
C709 C708 1.366 . S
C709 C710 1.414 . S
C709 C712 1.499 . S
C710 H690 0.952 1_445 S
C710 C709 1.414 . S
C710 C711 1.374 . S
C711 H691 0.950 1_545 S
C711 C707 1.385 . S
C711 C710 1.374 . S
C712 C709 1.499 . S
C712 C713 1.373 1_455 S
C712 C714 1.389 . S
C713 H692 0.950 1_545 S
C713 C712 1.373 1_655 S
C713 C729 1.377 . S
C714 C712 1.389 . S
C714 C715 1.524 . S
C714 C728 1.377 . S
C715 C714 1.524 . S
C715 C716 1.397 . S
C715 C720 1.363 . S
C716 H693 0.950 . S
C716 C715 1.397 . S
C716 C717 1.334 . S
C717 H694 0.950 . S
C717 C716 1.334 . S
C717 C718 1.287 . S
C718 C717 1.287 . S
C718 C719 1.524 . S
C718 H737 0.913 . S
C719 H695 0.950 . S
C719 C718 1.524 . S
C719 C720 1.415 . S
C720 H696 0.950 . S
C720 C715 1.363 . S
C720 C719 1.415 . S
C721 H697 0.951 . S
C721 C722 1.366 . S
C721 C723 1.388 . S
C722 C721 1.366 . S
C722 C726 1.385 . S
C723 H698 0.951 . S
C723 C721 1.388 . S
C723 C724 1.366 . S
C724 C723 1.366 . S
C724 C725 1.414 . S
C724 C727 1.499 . S
C725 H699 0.950 . S
C725 C724 1.414 . S
C725 C726 1.374 . S
C726 H700 0.950 . S
C726 C722 1.385 . S
C726 C725 1.374 . S
C727 C724 1.499 . S
C727 C728 1.373 1_655 S
C727 C729 1.389 . S
C728 H701 0.950 . S
C728 C714 1.377 . S
C728 C727 1.373 1_455 S
C729 C713 1.377 . S
C729 C727 1.389 . S
C729 C730 1.524 1_545 S
C730 C729 1.524 1_565 S
C730 C731 1.397 1_565 S
C730 C735 1.363 . S
C731 H702 0.950 . S
C731 C730 1.397 1_545 S
C731 C732 1.334 1_545 S
C732 H703 0.950 . S
C732 C731 1.334 1_565 S
C732 C733 1.287 . S
C733 C732 1.287 . S
C733 C734 1.524 . S
C733 H736 0.999 . S
C734 H704 0.950 . S
C734 C733 1.524 . S
C734 C735 1.415 . S
C735 H705 0.950 . S
C735 C730 1.363 . S
C735 C734 1.415 . S
H736 C733 0.999 . S
H737 C718 0.913 . S
C157 N2 1.455 1_565 S
C172 N12 1.458 . S
C207 C39 1.473 . S
C222 C30 1.480 . S
C257 N48 1.455 . S
C272 N58 1.457 . S
C307 C76 1.480 . S
C322 C85 1.473 . S
C357 N94 1.454 . S
C372 N104 1.457 1_565 S
C407 N117 1.455 . S
C422 N127 1.458 . S
C457 C131 1.465 . S
C472 C16 1.466 . S
C507 N81 1.463 . S
C522 N35 1.464 . S
C557 C62 1.526 . S
C572 C108 1.525 . S
C607 C7 1.504 . S
C622 C99 1.502 . S
C657 C122 1.486 . S
C672 N25 1.441 . S
C707 N71 1.477 . S
C722 C53 1.515 . S
