# Generated by pormake.
# Topology unw, (4)-cn, num edge types: 1
# Building blocks:
#     Node 0, Type 0, BuildingBlock: GALJAG_clean_sbu_0, # of connection points: 4
#     Node 1, Type 0, BuildingBlock: GALJAG_clean_sbu_0, # of connection points: 4
#     Node 2, Type 0, BuildingBlock: GALJAG_clean_sbu_0, # of connection points: 4
#     Node 3, Type 0, BuildingBlock: GALJAG_clean_sbu_0, # of connection points: 4
#     Node 4, Type 0, BuildingBlock: GALJAG_clean_sbu_0, # of connection points: 4
#     Node 5, Type 0, BuildingBlock: GALJAG_clean_sbu_0, # of connection points: 4
#     Node 6, Type 0, BuildingBlock: GALJAG_clean_sbu_0, # of connection points: 4
#     Node 7, Type 0, BuildingBlock: GALJAG_clean_sbu_0, # of connection points: 4
#     Node 8, Type 0, BuildingBlock: GALJAG_clean_sbu_0, # of connection points: 4
#     Node 9, Type 0, BuildingBlock: GALJAG_clean_sbu_0, # of connection points: 4
#     Node 10, Type 0, BuildingBlock: GALJAG_clean_sbu_0, # of connection points: 4
#     Node 11, Type 0, BuildingBlock: GALJAG_clean_sbu_0, # of connection points: 4
#     Node 12, Type 0, BuildingBlock: GALJAG_clean_sbu_0, # of connection points: 4
#     Node 13, Type 0, BuildingBlock: GALJAG_clean_sbu_0, # of connection points: 4
#     Node 14, Type 0, BuildingBlock: GALJAG_clean_sbu_0, # of connection points: 4
#     Node 15, Type 0, BuildingBlock: GALJAG_clean_sbu_0, # of connection points: 4
#     Node 16, Type 0, BuildingBlock: GALJAG_clean_sbu_0, # of connection points: 4
#     Node 17, Type 0, BuildingBlock: GALJAG_clean_sbu_0, # of connection points: 4
#     Node 18, Type 0, BuildingBlock: GALJAG_clean_sbu_0, # of connection points: 4
#     Node 19, Type 0, BuildingBlock: GALJAG_clean_sbu_0, # of connection points: 4
#     Node 20, Type 0, BuildingBlock: GALJAG_clean_sbu_0, # of connection points: 4
#     Node 21, Type 0, BuildingBlock: GALJAG_clean_sbu_0, # of connection points: 4
#     Node 22, Type 0, BuildingBlock: GALJAG_clean_sbu_0, # of connection points: 4
#     Node 23, Type 0, BuildingBlock: GALJAG_clean_sbu_0, # of connection points: 4
#     Edge 24, Type (0, 0), BuildingBlock: OJICUG_clean_linker_0, # of connection points: 2
#     Edge 25, Type (0, 0), BuildingBlock: OJICUG_clean_linker_0, # of connection points: 2
#     Edge 26, Type (0, 0), BuildingBlock: OJICUG_clean_linker_0, # of connection points: 2
#     Edge 27, Type (0, 0), BuildingBlock: OJICUG_clean_linker_0, # of connection points: 2
#     Edge 28, Type (0, 0), BuildingBlock: OJICUG_clean_linker_0, # of connection points: 2
#     Edge 29, Type (0, 0), BuildingBlock: OJICUG_clean_linker_0, # of connection points: 2
#     Edge 30, Type (0, 0), BuildingBlock: OJICUG_clean_linker_0, # of connection points: 2
#     Edge 31, Type (0, 0), BuildingBlock: OJICUG_clean_linker_0, # of connection points: 2
#     Edge 32, Type (0, 0), BuildingBlock: OJICUG_clean_linker_0, # of connection points: 2
#     Edge 33, Type (0, 0), BuildingBlock: OJICUG_clean_linker_0, # of connection points: 2
#     Edge 34, Type (0, 0), BuildingBlock: OJICUG_clean_linker_0, # of connection points: 2
#     Edge 35, Type (0, 0), BuildingBlock: OJICUG_clean_linker_0, # of connection points: 2
#     Edge 36, Type (0, 0), BuildingBlock: OJICUG_clean_linker_0, # of connection points: 2
#     Edge 37, Type (0, 0), BuildingBlock: OJICUG_clean_linker_0, # of connection points: 2
#     Edge 38, Type (0, 0), BuildingBlock: OJICUG_clean_linker_0, # of connection points: 2
#     Edge 39, Type (0, 0), BuildingBlock: OJICUG_clean_linker_0, # of connection points: 2
#     Edge 40, Type (0, 0), BuildingBlock: OJICUG_clean_linker_0, # of connection points: 2
#     Edge 41, Type (0, 0), BuildingBlock: OJICUG_clean_linker_0, # of connection points: 2
#     Edge 42, Type (0, 0), BuildingBlock: OJICUG_clean_linker_0, # of connection points: 2
#     Edge 43, Type (0, 0), BuildingBlock: OJICUG_clean_linker_0, # of connection points: 2
#     Edge 44, Type (0, 0), BuildingBlock: OJICUG_clean_linker_0, # of connection points: 2
#     Edge 45, Type (0, 0), BuildingBlock: OJICUG_clean_linker_0, # of connection points: 2
#     Edge 46, Type (0, 0), BuildingBlock: OJICUG_clean_linker_0, # of connection points: 2
#     Edge 47, Type (0, 0), BuildingBlock: OJICUG_clean_linker_0, # of connection points: 2
#     Edge 48, Type (0, 0), BuildingBlock: OJICUG_clean_linker_0, # of connection points: 2
#     Edge 49, Type (0, 0), BuildingBlock: OJICUG_clean_linker_0, # of connection points: 2
#     Edge 50, Type (0, 0), BuildingBlock: OJICUG_clean_linker_0, # of connection points: 2
#     Edge 51, Type (0, 0), BuildingBlock: OJICUG_clean_linker_0, # of connection points: 2
#     Edge 52, Type (0, 0), BuildingBlock: OJICUG_clean_linker_0, # of connection points: 2
#     Edge 53, Type (0, 0), BuildingBlock: OJICUG_clean_linker_0, # of connection points: 2
#     Edge 54, Type (0, 0), BuildingBlock: OJICUG_clean_linker_0, # of connection points: 2
#     Edge 55, Type (0, 0), BuildingBlock: OJICUG_clean_linker_0, # of connection points: 2
#     Edge 56, Type (0, 0), BuildingBlock: OJICUG_clean_linker_0, # of connection points: 2
#     Edge 57, Type (0, 0), BuildingBlock: OJICUG_clean_linker_0, # of connection points: 2
#     Edge 58, Type (0, 0), BuildingBlock: OJICUG_clean_linker_0, # of connection points: 2
#     Edge 59, Type (0, 0), BuildingBlock: OJICUG_clean_linker_0, # of connection points: 2
#     Edge 60, Type (0, 0), BuildingBlock: OJICUG_clean_linker_0, # of connection points: 2
#     Edge 61, Type (0, 0), BuildingBlock: OJICUG_clean_linker_0, # of connection points: 2
#     Edge 62, Type (0, 0), BuildingBlock: OJICUG_clean_linker_0, # of connection points: 2
#     Edge 63, Type (0, 0), BuildingBlock: OJICUG_clean_linker_0, # of connection points: 2
#     Edge 64, Type (0, 0), BuildingBlock: OJICUG_clean_linker_0, # of connection points: 2
#     Edge 65, Type (0, 0), BuildingBlock: OJICUG_clean_linker_0, # of connection points: 2
#     Edge 66, Type (0, 0), BuildingBlock: OJICUG_clean_linker_0, # of connection points: 2
#     Edge 67, Type (0, 0), BuildingBlock: OJICUG_clean_linker_0, # of connection points: 2
#     Edge 68, Type (0, 0), BuildingBlock: OJICUG_clean_linker_0, # of connection points: 2
#     Edge 69, Type (0, 0), BuildingBlock: OJICUG_clean_linker_0, # of connection points: 2
#     Edge 70, Type (0, 0), BuildingBlock: OJICUG_clean_linker_0, # of connection points: 2
#     Edge 71, Type (0, 0), BuildingBlock: OJICUG_clean_linker_0, # of connection points: 2
# Relax obj value: 0.374
# Max RMSD: 0.256
# Mean RMSD: 0.255
data_MOF--net-unw--node1-GALJAG_clean_sbu_0--edge1-OJICUG_clean_linker_0
_symmetry_space_group_name_H-M    P1
_symmetry_Int_Tables_number       1
_symmetry_cell_setting            triclinic
loop_
_symmetry_equiv_pos_as_xyz
'x, y, z'
_cell_length_a     35.023883
_cell_length_b     34.962668
_cell_length_c     34.999145
_cell_angle_alpha  90.055897
_cell_angle_beta   90.046086
_cell_angle_gamma 90.024883
loop_
_atom_site_label
_atom_site_type_symbol
_atom_site_fract_x
_atom_site_fract_y
_atom_site_fract_z
_atom_type_partial_charge
In0 In 0.11348 0.36962 0.23922 0.0
O1 O 0.05348 0.34768 0.23182 0.0
O2 O 0.06738 0.37931 0.28283 0.0
C3 C 0.17354 0.35122 0.19815 0.0
C4 C 0.13175 0.31089 0.28222 0.0
C5 C 0.12449 0.43934 0.2125 0.0
O6 O 0.13984 0.34369 0.18628 0.0
O7 O 0.17604 0.36729 0.23057 0.0
O8 O 0.13368 0.4302 0.24654 0.0
O9 O 0.10388 0.41518 0.19477 0.0
C10 C 0.04394 0.35753 0.26557 0.0
O11 O 0.13868 0.34504 0.29331 0.0
O12 O 0.11653 0.30729 0.24952 0.0
In13 In 0.61465 0.11767 0.24511 0.0
O14 O 0.63965 0.14577 0.19299 0.0
O15 O 0.61691 0.18075 0.23882 0.0
C16 C 0.6239 0.04823 0.27298 0.0
C17 C 0.54569 0.1289 0.21705 0.0
C18 C 0.67623 0.13363 0.28473 0.0
O19 O 0.63348 0.05658 0.23883 0.0
O20 O 0.60389 0.0732 0.29027 0.0
O21 O 0.64301 0.14161 0.29762 0.0
O22 O 0.6776 0.11823 0.25185 0.0
C23 C 0.63246 0.17918 0.20607 0.0
O24 O 0.5542 0.13818 0.25127 0.0
O25 O 0.57011 0.10828 0.19972 0.0
In26 In 0.87014 0.62284 0.24392 0.0
O27 O 0.84405 0.64656 0.29811 0.0
O28 O 0.86783 0.68501 0.25609 0.0
C29 C 0.8562 0.55305 0.21804 0.0
C30 C 0.94052 0.63189 0.2702 0.0
C31 C 0.81243 0.64379 0.20046 0.0
O32 O 0.84691 0.56326 0.25171 0.0
O33 O 0.87796 0.57602 0.20023 0.0
O34 O 0.84676 0.65043 0.19005 0.0
O35 O 0.80826 0.62749 0.2325 0.0
C36 C 0.85148 0.68088 0.28811 0.0
O37 O 0.93101 0.64279 0.23679 0.0
O38 O 0.91618 0.61117 0.28737 0.0
In39 In 0.36461 0.87453 0.23447 0.0
O40 O 0.34169 0.93448 0.22768 0.0
O41 O 0.37494 0.92108 0.27764 0.0
C42 C 0.34502 0.8154 0.19211 0.0
C43 C 0.30845 0.85427 0.2801 0.0
C44 C 0.4347 0.86346 0.20845 0.0
O45 O 0.33698 0.84936 0.18132 0.0
O46 O 0.36211 0.81231 0.22387 0.0
O47 O 0.425 0.8541 0.24222 0.0
O48 O 0.41075 0.88395 0.19039 0.0
C49 C 0.35256 0.94433 0.26104 0.0
O50 O 0.34317 0.84811 0.2894 0.0
O51 O 0.30298 0.86994 0.24794 0.0
In52 In 0.11579 0.62318 0.7502 0.0
O53 O 0.1433 0.64552 0.69617 0.0
O54 O 0.12086 0.68516 0.73784 0.0
C55 C 0.12719 0.55271 0.7754 0.0
C56 C 0.0463 0.63509 0.72297 0.0
C57 C 0.17367 0.64203 0.79436 0.0
O58 O 0.1369 0.56295 0.74188 0.0
O59 O 0.10613 0.5762 0.7934 0.0
O60 O 0.13954 0.65007 0.8044 0.0
O61 O 0.17754 0.62546 0.76239 0.0
C62 C 0.13721 0.68017 0.70595 0.0
O63 O 0.05571 0.64562 0.75656 0.0
O64 O 0.06993 0.61321 0.70625 0.0
In65 In 0.37178 0.11981 0.74178 0.0
O66 O 0.34558 0.14544 0.68865 0.0
O67 O 0.30929 0.12096 0.73232 0.0
C68 C 0.44095 0.13139 0.76975 0.0
C69 C 0.36264 0.0498 0.71457 0.0
C70 C 0.35216 0.17926 0.78344 0.0
O71 O 0.4321 0.14134 0.73584 0.0
O72 O 0.41678 0.11024 0.78672 0.0
O73 O 0.34524 0.14523 0.79483 0.0
O74 O 0.36841 0.18242 0.7512 0.0
C75 C 0.31187 0.13735 0.70009 0.0
O76 O 0.35244 0.05879 0.74836 0.0
O77 O 0.3828 0.07454 0.6972 0.0
In78 In 0.86955 0.37149 0.74468 0.0
O79 O 0.84834 0.43184 0.73717 0.0
O80 O 0.87979 0.41794 0.78817 0.0
C81 C 0.84965 0.31311 0.70155 0.0
C82 C 0.81151 0.35261 0.78849 0.0
C83 C 0.93918 0.35923 0.71816 0.0
O84 O 0.84266 0.34735 0.69092 0.0
O85 O 0.86582 0.3093 0.73373 0.0
O86 O 0.9296 0.34955 0.75191 0.0
O87 O 0.91564 0.38071 0.70076 0.0
C88 C 0.85846 0.44162 0.77077 0.0
O89 O 0.84574 0.34541 0.79888 0.0
O90 O 0.80752 0.36853 0.75621 0.0
In91 In 0.61562 0.87129 0.74288 0.0
O92 O 0.6402 0.84528 0.68906 0.0
O93 O 0.67774 0.86906 0.73212 0.0
C94 C 0.5465 0.85963 0.77055 0.0
C95 C 0.62643 0.94127 0.71662 0.0
C96 C 0.63531 0.81225 0.78507 0.0
O97 O 0.55533 0.84992 0.73657 0.0
O98 O 0.57051 0.88095 0.78758 0.0
O99 O 0.64241 0.84637 0.79612 0.0
O100 O 0.619 0.80882 0.75288 0.0
C101 C 0.67424 0.85292 0.69985 0.0
O102 O 0.63642 0.9317 0.7503 0.0
O103 O 0.60532 0.91738 0.69912 0.0
In104 In 0.23864 0.11844 0.36787 0.0
O105 O 0.2466 0.13883 0.42845 0.0
O106 O 0.19545 0.10771 0.4144 0.0
C107 C 0.28236 0.13904 0.31029 0.0
C108 C 0.19493 0.17671 0.34928 0.0
C109 C 0.26465 0.04882 0.354 0.0
O110 O 0.29276 0.14546 0.3447 0.0
O111 O 0.25012 0.12319 0.30593 0.0
O112 O 0.23095 0.0588 0.3446 0.0
O113 O 0.28215 0.07178 0.37609 0.0
C114 C 0.21312 0.12861 0.43831 0.0
O115 O 0.18458 0.14248 0.34177 0.0
O116 O 0.22705 0.18059 0.36551 0.0
In117 In 0.87084 0.23902 0.36784 0.0
O118 O 0.84392 0.29356 0.34563 0.0
O119 O 0.86628 0.25178 0.30604 0.0
C120 C 0.8594 0.21349 0.4381 0.0
C121 C 0.94039 0.26575 0.35558 0.0
C122 C 0.81298 0.19511 0.34828 0.0
O123 O 0.84964 0.24708 0.42801 0.0
O124 O 0.88052 0.19561 0.41458 0.0
O125 O 0.84717 0.18497 0.34064 0.0
O126 O 0.80902 0.22706 0.36489 0.0
C127 C 0.85036 0.28392 0.31104 0.0
O128 O 0.93075 0.23214 0.34526 0.0
O129 O 0.91709 0.28261 0.37769 0.0
In130 In 0.73868 0.87073 0.37351 0.0
O131 O 0.79292 0.84776 0.34695 0.0
O132 O 0.75094 0.80873 0.36999 0.0
C133 C 0.71154 0.94036 0.36216 0.0
C134 C 0.76596 0.8597 0.44307 0.0
C135 C 0.69592 0.85106 0.31486 0.0
O136 O 0.74534 0.93112 0.35243 0.0
O137 O 0.69424 0.91639 0.38326 0.0
O138 O 0.68534 0.84333 0.34893 0.0
O139 O 0.72783 0.8678 0.31137 0.0
C140 C 0.78306 0.81329 0.35395 0.0
O141 O 0.73243 0.84896 0.43377 0.0
O142 O 0.78255 0.88153 0.41928 0.0
In143 In 0.12463 0.73703 0.37148 0.0
O144 O 0.15188 0.68245 0.34876 0.0
O145 O 0.12832 0.7241 0.30986 0.0
C146 C 0.13817 0.76192 0.4417 0.0
C147 C 0.05379 0.71318 0.35907 0.0
C148 C 0.18007 0.78351 0.35043 0.0
O149 O 0.14838 0.72866 0.43094 0.0
O150 O 0.11558 0.77925 0.41923 0.0
O151 O 0.14521 0.79243 0.34471 0.0
O152 O 0.18597 0.75135 0.3659 0.0
C153 C 0.14467 0.69216 0.31436 0.0
O154 O 0.06482 0.74653 0.3496 0.0
O155 O 0.07666 0.69468 0.38032 0.0
In156 In 0.2555 0.86494 0.61622 0.0
O157 O 0.24691 0.9252 0.63737 0.0
O158 O 0.29843 0.9123 0.6066 0.0
C159 C 0.20938 0.80934 0.63765 0.0
C160 C 0.29992 0.84474 0.67353 0.0
C161 C 0.22935 0.85163 0.54646 0.0
O162 O 0.20054 0.84425 0.64362 0.0
O163 O 0.24128 0.80347 0.62173 0.0
O164 O 0.26271 0.84126 0.55657 0.0
O165 O 0.2125 0.8742 0.56933 0.0
C166 C 0.28027 0.93575 0.62755 0.0
O167 O 0.30951 0.83705 0.63918 0.0
O168 O 0.2684 0.86187 0.67788 0.0
In169 In 0.11566 0.24218 0.61883 0.0
O170 O 0.14147 0.18897 0.64495 0.0
O171 O 0.17808 0.23276 0.62116 0.0
C172 C 0.04611 0.26922 0.63013 0.0
C173 C 0.12641 0.21529 0.54904 0.0
C174 C 0.13447 0.28502 0.67767 0.0
O175 O 0.05538 0.23543 0.6402 0.0
O176 O 0.06999 0.28634 0.60881 0.0
O177 O 0.14148 0.29603 0.64357 0.0
O178 O 0.11873 0.25253 0.68118 0.0
C179 C 0.17528 0.20045 0.63736 0.0
O180 O 0.13611 0.2492 0.5583 0.0
O181 O 0.10575 0.19773 0.57319 0.0
In182 In 0.7433 0.1186 0.61804 0.0
O183 O 0.69065 0.14509 0.64419 0.0
O184 O 0.7345 0.12119 0.68067 0.0
C185 C 0.77065 0.12852 0.5484 0.0
C186 C 0.71527 0.04933 0.62895 0.0
C187 C 0.78528 0.17818 0.6362 0.0
O188 O 0.73688 0.13877 0.55733 0.0
O189 O 0.78778 0.10782 0.57286 0.0
O190 O 0.7966 0.14425 0.64373 0.0
O191 O 0.75297 0.18116 0.62004 0.0
C192 C 0.70233 0.13765 0.678 0.0
O193 O 0.7493 0.05798 0.63862 0.0
O194 O 0.69813 0.07379 0.60824 0.0
In195 In 0.8696 0.74694 0.61908 0.0
O196 O 0.84879 0.73885 0.55874 0.0
O197 O 0.87885 0.79072 0.57289 0.0
C198 C 0.85121 0.7045 0.67822 0.0
C199 C 0.80984 0.78869 0.63696 0.0
C200 C 0.93959 0.72168 0.63143 0.0
O201 O 0.84457 0.69294 0.6442 0.0
O202 O 0.8663 0.73732 0.68147 0.0
O203 O 0.92951 0.75542 0.64088 0.0
O204 O 0.91634 0.70374 0.61 0.0
C205 C 0.85795 0.77279 0.54915 0.0
O206 O 0.84362 0.8005 0.6442 0.0
O207 O 0.80711 0.75595 0.62156 0.0
In208 In 0.3692 0.24548 0.1175 0.0
O209 O 0.34854 0.23822 0.05704 0.0
O210 O 0.37916 0.28963 0.07174 0.0
C211 C 0.34983 0.20347 0.17668 0.0
C212 C 0.30994 0.2878 0.13568 0.0
C213 C 0.43866 0.21824 0.12865 0.0
O214 O 0.34282 0.19219 0.14265 0.0
O215 O 0.36606 0.23574 0.17998 0.0
O216 O 0.42958 0.25214 0.13854 0.0
O217 O 0.41456 0.20097 0.10762 0.0
C218 C 0.35829 0.27207 0.0477 0.0
O219 O 0.34382 0.29904 0.14338 0.0
O220 O 0.30689 0.25544 0.11955 0.0
In221 In 0.3749 0.73951 0.87189 0.0
O222 O 0.3514 0.79185 0.84322 0.0
O223 O 0.3737 0.7453 0.80877 0.0
C224 C 0.36572 0.7108 0.9408 0.0
C225 C 0.44357 0.76817 0.86141 0.0
C226 C 0.31194 0.70217 0.85596 0.0
O227 O 0.35671 0.74528 0.93298 0.0
O228 O 0.38523 0.6934 0.91551 0.0
O229 O 0.3447 0.68817 0.84787 0.0
O230 O 0.3117 0.73506 0.8715 0.0
C231 C 0.35893 0.7785 0.81002 0.0
O232 O 0.43552 0.73384 0.85194 0.0
O233 O 0.41893 0.78511 0.8821 0.0
In234 In 0.24284 0.37149 0.86953 0.0
O235 O 0.23623 0.3496 0.92967 0.0
O236 O 0.28707 0.3811 0.91536 0.0
C237 C 0.1991 0.35209 0.81151 0.0
C238 C 0.2862 0.31348 0.84906 0.0
C239 C 0.21588 0.44149 0.85944 0.0
O240 O 0.18903 0.34456 0.84576 0.0
O241 O 0.23096 0.3688 0.80748 0.0
O242 O 0.24945 0.43219 0.84893 0.0
O243 O 0.19881 0.41724 0.88039 0.0
C244 C 0.26992 0.35966 0.93911 0.0
O245 O 0.29646 0.34784 0.84204 0.0
O246 O 0.25434 0.30937 0.8657 0.0
In247 In 0.61868 0.24476 0.87244 0.0
O248 O 0.55878 0.25203 0.85023 0.0
O249 O 0.5726 0.20059 0.88108 0.0
C250 C 0.67754 0.28784 0.8544 0.0
C251 C 0.63864 0.20235 0.81362 0.0
C252 C 0.62827 0.27154 0.9425 0.0
O253 O 0.64351 0.2986 0.84678 0.0
O254 O 0.68097 0.25556 0.87052 0.0
O255 O 0.63865 0.23784 0.93326 0.0
O256 O 0.60759 0.28877 0.91813 0.0
C257 C 0.54911 0.2182 0.8597 0.0
O258 O 0.64555 0.19126 0.84772 0.0
O259 O 0.62246 0.2346 0.81017 0.0
In260 In 0.74351 0.61952 0.87063 0.0
O261 O 0.7506 0.64091 0.93092 0.0
O262 O 0.69955 0.60972 0.91655 0.0
C263 C 0.78701 0.63878 0.81255 0.0
C264 C 0.7005 0.67796 0.85084 0.0
C265 C 0.77006 0.54965 0.85916 0.0
O266 O 0.79738 0.64613 0.84679 0.0
O267 O 0.75492 0.62248 0.80857 0.0
O268 O 0.7364 0.55918 0.84914 0.0
O269 O 0.78735 0.57343 0.88054 0.0
C270 C 0.7169 0.63098 0.94038 0.0
O271 O 0.68988 0.64371 0.84374 0.0
O272 O 0.73255 0.68177 0.86724 0.0
In273 In 0.61675 0.74813 0.11676 0.0
O274 O 0.63795 0.75413 0.05644 0.0
O275 O 0.60761 0.70277 0.07203 0.0
C276 C 0.63314 0.78846 0.17793 0.0
C277 C 0.67729 0.70803 0.13558 0.0
C278 C 0.54704 0.77562 0.12519 0.0
O279 O 0.64124 0.80087 0.14454 0.0
O280 O 0.61723 0.75586 0.17962 0.0
O281 O 0.55564 0.74164 0.13523 0.0
O282 O 0.57207 0.79304 0.10544 0.0
C283 C 0.6285 0.71997 0.04778 0.0
O284 O 0.64365 0.6956 0.14254 0.0
O285 O 0.67955 0.7406 0.11971 0.0
In286 In 0.24641 0.6134 0.11591 0.0
O287 O 0.19469 0.63762 0.14483 0.0
O288 O 0.24078 0.61417 0.17906 0.0
C289 C 0.27604 0.62249 0.0474 0.0
C290 C 0.21657 0.54492 0.12528 0.0
C291 C 0.28384 0.6763 0.13218 0.0
O292 O 0.24161 0.6318 0.0548 0.0
O293 O 0.29295 0.60277 0.07288 0.0
O294 O 0.29755 0.64342 0.14046 0.0
O295 O 0.2512 0.6767 0.11622 0.0
C296 C 0.20796 0.62973 0.17796 0.0
O297 O 0.2509 0.55234 0.13506 0.0
O298 O 0.20007 0.57023 0.10502 0.0
In299 In 0.73895 0.37371 0.1227 0.0
O300 O 0.73214 0.43432 0.14385 0.0
O301 O 0.78253 0.4198 0.11183 0.0
C302 C 0.69547 0.31573 0.1429 0.0
C303 C 0.78338 0.35386 0.18008 0.0
C304 C 0.71302 0.36099 0.05275 0.0
O305 O 0.6852 0.35003 0.15019 0.0
O306 O 0.72734 0.31173 0.12629 0.0
O307 O 0.74666 0.35148 0.06279 0.0
O308 O 0.69525 0.38242 0.07608 0.0
C309 C 0.76559 0.44382 0.13314 0.0
O310 O 0.79315 0.34695 0.14562 0.0
O311 O 0.75145 0.37025 0.18467 0.0
C312 C 0.20596 0.50289 0.18174 0.0
C313 C 0.1939 0.51549 0.14557 0.0
H314 H 0.19271 0.47069 0.23189 0.0
C315 C 0.15744 0.50475 0.13253 0.0
H316 H 0.23346 0.51141 0.19311 0.0
C317 C 0.13392 0.48123 0.15491 0.0
C318 C 0.14593 0.46903 0.19127 0.0
H319 H 0.14706 0.51466 0.10511 0.0
H320 H 0.10647 0.47239 0.14369 0.0
C321 C 0.18214 0.48031 0.20443 0.0
C322 C 0.50445 0.1375 0.15887 0.0
C323 C 0.51593 0.1498 0.19538 0.0
H324 H 0.47124 0.14975 0.10871 0.0
C325 C 0.50359 0.18576 0.20845 0.0
H326 H 0.51411 0.11026 0.14771 0.0
C327 C 0.48055 0.20898 0.18554 0.0
C328 C 0.46861 0.19655 0.14925 0.0
H329 H 0.51263 0.19655 0.23603 0.0
H330 H 0.47115 0.23624 0.19684 0.0
C331 C 0.48057 0.16041 0.13625 0.0
C332 C 0.77533 0.48752 0.18879 0.0
C333 C 0.7874 0.47442 0.1528 0.0
H334 H 0.78834 0.52109 0.23827 0.0
C335 C 0.82341 0.48593 0.13923 0.0
H336 H 0.74816 0.47854 0.20051 0.0
C337 C 0.84661 0.51034 0.16103 0.0
C338 C 0.83471 0.52294 0.19728 0.0
H339 H 0.83381 0.47577 0.1119 0.0
H340 H 0.87379 0.51948 0.14944 0.0
C341 C 0.79882 0.51119 0.21088 0.0
C342 C 0.50415 0.83305 0.13083 0.0
C343 C 0.51591 0.79703 0.14429 0.0
H344 H 0.46932 0.8827 0.14072 0.0
C345 C 0.50222 0.7843 0.1798 0.0
H346 H 0.51477 0.84393 0.10388 0.0
C347 C 0.47771 0.80711 0.20154 0.0
C348 C 0.46558 0.84294 0.18801 0.0
H349 H 0.51136 0.7571 0.19145 0.0
H350 H 0.46743 0.79609 0.22856 0.0
C351 C 0.47875 0.85554 0.15222 0.0
C352 C 0.15836 0.48409 0.85348 0.0
C353 C 0.19431 0.47232 0.83997 0.0
H354 H 0.10854 0.51852 0.84346 0.0
C355 C 0.20673 0.48563 0.8042 0.0
H356 H 0.14771 0.47378 0.88063 0.0
C357 C 0.1837 0.50982 0.7823 0.0
C358 C 0.14793 0.52196 0.79588 0.0
H359 H 0.23386 0.47647 0.79251 0.0
H360 H 0.1945 0.51987 0.75511 0.0
C361 C 0.13563 0.50909 0.83189 0.0
C362 C 0.50723 0.21021 0.80251 0.0
C363 C 0.51906 0.19706 0.83857 0.0
H364 H 0.47484 0.19901 0.75186 0.0
C365 C 0.5067 0.16084 0.85089 0.0
H366 H 0.51693 0.23757 0.79172 0.0
C367 C 0.48251 0.13859 0.82789 0.0
C368 C 0.47105 0.15165 0.79165 0.0
H369 H 0.51592 0.14962 0.87822 0.0
H370 H 0.47257 0.11128 0.83856 0.0
C371 C 0.48382 0.18766 0.77922 0.0
C372 C 0.82782 0.5078 0.85111 0.0
C373 C 0.79157 0.51959 0.83844 0.0
H374 H 0.87782 0.47424 0.83939 0.0
C375 C 0.77882 0.50731 0.80236 0.0
H376 H 0.83876 0.51738 0.87846 0.0
C377 C 0.80178 0.48402 0.7794 0.0
C378 C 0.83782 0.47182 0.79219 0.0
H379 H 0.75146 0.51658 0.79129 0.0
H380 H 0.79071 0.47467 0.75204 0.0
C381 C 0.8505 0.48375 0.82844 0.0
C382 C 0.50597 0.85073 0.82906 0.0
C383 C 0.51747 0.83821 0.79264 0.0
H384 H 0.47389 0.83815 0.87981 0.0
C385 C 0.50627 0.8016 0.78033 0.0
H386 H 0.51478 0.8785 0.83964 0.0
C387 C 0.48442 0.77795 0.80392 0.0
C388 C 0.47253 0.79054 0.84016 0.0
H389 H 0.51538 0.79065 0.75285 0.0
H390 H 0.47586 0.75016 0.79319 0.0
C391 C 0.48327 0.82735 0.85236 0.0
C392 C 0.18238 0.20724 0.5057 0.0
C393 C 0.14667 0.19408 0.51847 0.0
H394 H 0.23204 0.1961 0.47197 0.0
C395 C 0.13399 0.15784 0.50643 0.0
H396 H 0.19346 0.2346 0.51513 0.0
C397 C 0.15626 0.13562 0.48157 0.0
C398 C 0.19214 0.14871 0.46914 0.0
H399 H 0.10694 0.14661 0.51636 0.0
H400 H 0.14529 0.10831 0.47185 0.0
C401 C 0.20496 0.18471 0.48167 0.0
C402 C 0.77971 0.18397 0.50453 0.0
C403 C 0.79229 0.1482 0.51779 0.0
H404 H 0.7918 0.2333 0.47055 0.0
C405 C 0.82841 0.13495 0.50624 0.0
H406 H 0.75244 0.19547 0.51354 0.0
C407 C 0.85113 0.15678 0.48147 0.0
C408 C 0.83865 0.19279 0.46865 0.0
H409 H 0.83919 0.10782 0.51655 0.0
H410 H 0.87836 0.14542 0.47219 0.0
C411 C 0.80273 0.20612 0.48059 0.0
C412 C 0.77673 0.80271 0.48463 0.0
C413 C 0.7883 0.8393 0.47271 0.0
H414 H 0.79045 0.75236 0.51648 0.0
C415 C 0.8243 0.8529 0.48429 0.0
H416 H 0.7496 0.79094 0.47548 0.0
C417 C 0.8479 0.83061 0.50779 0.0
C418 C 0.83642 0.79385 0.51936 0.0
H419 H 0.83434 0.88067 0.47497 0.0
H420 H 0.875 0.84227 0.51717 0.0
C421 C 0.80062 0.78015 0.50736 0.0
C422 C 0.14747 0.8199 0.48296 0.0
C423 C 0.15973 0.78344 0.4712 0.0
H424 H 0.16019 0.87047 0.51534 0.0
C425 C 0.19608 0.77077 0.48265 0.0
H426 H 0.11993 0.8308 0.47404 0.0
C427 C 0.21969 0.79405 0.50508 0.0
C428 C 0.20734 0.83038 0.51709 0.0
H429 H 0.20682 0.74323 0.47338 0.0
H430 H 0.24724 0.78308 0.51388 0.0
C431 C 0.17084 0.84294 0.50596 0.0
C432 C 0.63436 0.98378 0.65927 0.0
C433 C 0.64714 0.97143 0.69531 0.0
H434 H 0.6461 0.01788 0.6096 0.0
C435 C 0.68336 0.98324 0.70802 0.0
H436 H 0.60689 0.97455 0.64837 0.0
C437 C 0.70638 0.00654 0.68521 0.0
C438 C 0.69352 0.01929 0.64938 0.0
H439 H 0.69451 0.97353 0.73521 0.0
H440 H 0.73389 0.01546 0.69624 0.0
C441 C 0.65709 0.00792 0.63676 0.0
C442 C 0.98145 0.66422 0.64118 0.0
C443 C 0.96946 0.70076 0.65295 0.0
H444 H 0.01471 0.61439 0.6544 0.0
C445 C 0.98122 0.71429 0.68893 0.0
H446 H 0.97227 0.65267 0.61395 0.0
C447 C 0.00417 0.69179 0.71268 0.0
C448 C 0.0165 0.65542 0.7008 0.0
H449 H 0.97179 0.74191 0.69931 0.0
H450 H 0.01315 0.70342 0.73995 0.0
C451 C 0.0051 0.64199 0.66466 0.0
C452 C 0.35712 0.00651 0.65735 0.0
C453 C 0.34364 0.0184 0.69331 0.0
H454 H 0.34747 0.97118 0.60798 0.0
C455 C 0.30829 0.00441 0.70617 0.0
H456 H 0.38393 0.01733 0.64637 0.0
C457 C 0.28677 0.97943 0.68358 0.0
C458 C 0.30034 0.96713 0.64784 0.0
H459 H 0.29663 0.01363 0.73331 0.0
H460 H 0.2599 0.96891 0.6947 0.0
C461 C 0.33593 0.98068 0.63508 0.0
C462 C 0.00466 0.32736 0.63785 0.0
C463 C 0.01621 0.29105 0.65071 0.0
H464 H 0.97159 0.37779 0.64934 0.0
C465 C 0.0039 0.2786 0.68684 0.0
H466 H 0.01426 0.33806 0.61045 0.0
C467 C 0.98089 0.30194 0.70969 0.0
C468 C 0.96898 0.33808 0.69675 0.0
H469 H 0.01298 0.2512 0.69804 0.0
H470 H 0.97152 0.29112 0.73712 0.0
C471 C 0.98088 0.35042 0.66042 0.0
C472 C 0.70263 0.98179 0.3049 0.0
C473 C 0.69005 0.97027 0.34125 0.0
H474 H 0.69077 0.01375 0.25423 0.0
C475 C 0.6541 0.98276 0.35404 0.0
H476 H 0.72974 0.97195 0.29373 0.0
C477 C 0.6316 0.00689 0.33124 0.0
C478 C 0.64412 0.01803 0.29472 0.0
H479 H 0.64331 0.97375 0.3816 0.0
H480 H 0.60455 0.01705 0.34227 0.0
C481 C 0.67981 0.00502 0.28181 0.0
C482 C 0.98368 0.63655 0.3274 0.0
C483 C 0.97191 0.65063 0.29164 0.0
H484 H 0.01852 0.64551 0.37716 0.0
C485 C 0.98583 0.68629 0.27944 0.0
H486 H 0.97292 0.60948 0.33789 0.0
C487 C 0.0106 0.70755 0.30254 0.0
C488 C 0.02266 0.69341 0.33816 0.0
H489 H 0.9767 0.69839 0.25246 0.0
H490 H 0.02109 0.73469 0.29195 0.0
C491 C 0.00919 0.6575 0.3502 0.0
C492 C 0.34528 0.98515 0.3196 0.0
C493 C 0.33191 0.97381 0.28341 0.0
H494 H 0.33421 0.01723 0.37073 0.0
C495 C 0.29534 0.98563 0.27181 0.0
H496 H 0.37304 0.97592 0.32966 0.0
C497 C 0.27256 0.00797 0.2959 0.0
C498 C 0.286 0.01958 0.33197 0.0
H499 H 0.28377 0.97668 0.24452 0.0
H500 H 0.24477 0.01702 0.28575 0.0
C501 C 0.32275 0.00814 0.34343 0.0
C502 C 0.00318 0.29959 0.27457 0.0
C503 C 0.01478 0.33592 0.28738 0.0
H504 H 0.9722 0.24827 0.28679 0.0
C505 C 0.00359 0.34795 0.32405 0.0
H506 H 0.01206 0.289 0.24687 0.0
C507 C 0.98085 0.32441 0.34712 0.0
C508 C 0.96957 0.28794 0.33439 0.0
H509 H 0.01271 0.37545 0.33505 0.0
H510 H 0.97179 0.33489 0.3748 0.0
C511 C 0.98113 0.2758 0.29789 0.0
C512 C 0.65938 0.63892 0.98253 0.0
C513 C 0.69547 0.65175 0.97042 0.0
H514 H 0.6095 0.65067 0.01624 0.0
C515 C 0.70808 0.68802 0.98233 0.0
H516 H 0.64857 0.61141 0.97324 0.0
C517 C 0.68511 0.71108 0.00548 0.0
C518 C 0.64921 0.69818 0.01795 0.0
H519 H 0.73532 0.69919 0.97283 0.0
H520 H 0.69604 0.73864 0.0145 0.0
C521 C 0.63671 0.66169 0.0065 0.0
C522 C 0.28578 0.67915 0.00557 0.0
C523 C 0.2982 0.64295 0.01776 0.0
H524 H 0.29818 0.72957 0.97348 0.0
C525 C 0.33446 0.63007 0.00625 0.0
H526 H 0.25843 0.69039 0.01467 0.0
C527 C 0.35739 0.65267 0.98233 0.0
C528 C 0.34502 0.68909 0.97062 0.0
H529 H 0.3451 0.60262 0.01583 0.0
H530 H 0.38467 0.64161 0.97284 0.0
C531 C 0.30903 0.70207 0.9827 0.0
C532 C 0.27888 0.303 0.98148 0.0
C533 C 0.29147 0.33915 0.96925 0.0
H534 H 0.2909 0.25283 0.01425 0.0
C535 C 0.32754 0.35214 0.98129 0.0
H536 H 0.25165 0.29171 0.97204 0.0
C537 C 0.3502 0.32969 0.00557 0.0
C538 C 0.33771 0.29336 0.01743 0.0
H539 H 0.33833 0.37955 0.97176 0.0
H540 H 0.37738 0.34087 0.01529 0.0
C541 C 0.30184 0.28027 0.00496 0.0
C542 C 0.70566 0.30388 0.01052 0.0
C543 C 0.69227 0.33988 0.02239 0.0
H544 H 0.69514 0.2534 0.97756 0.0
C545 C 0.65624 0.3522 0.0096 0.0
H546 H 0.73286 0.29308 0.02054 0.0
C547 C 0.63447 0.32929 0.98488 0.0
C548 C 0.64781 0.29315 0.9733 0.0
H549 H 0.64483 0.37947 0.01884 0.0
H550 H 0.60733 0.33998 0.97457 0.0
C551 C 0.68358 0.28068 0.98659 0.0
C552 C 0.13016 0.24057 0.29237 0.0
C553 C 0.14292 0.2769 0.30409 0.0
H554 H 0.13639 0.17991 0.29802 0.0
C555 C 0.1689 0.27987 0.33435 0.0
H556 H 0.10966 0.23757 0.26935 0.0
C557 C 0.18416 0.24689 0.35063 0.0
C558 C 0.17344 0.21055 0.33702 0.0
H559 H 0.17895 0.30753 0.34406 0.0
H560 H 0.20561 0.24989 0.37276 0.0
C561 C 0.14523 0.20758 0.30883 0.0
C562 C 0.74359 0.18222 0.35284 0.0
C563 C 0.77912 0.17351 0.3363 0.0
H564 H 0.68293 0.17604 0.3496 0.0
C565 C 0.78087 0.14772 0.30573 0.0
H566 H 0.74159 0.20174 0.37683 0.0
C567 C 0.7472 0.13318 0.29004 0.0
C568 C 0.7115 0.14408 0.30494 0.0
H569 H 0.80794 0.14056 0.2926 0.0
H570 H 0.74911 0.1147 0.26525 0.0
C571 C 0.71002 0.16752 0.33735 0.0
C572 C 0.85109 0.75119 0.29873 0.0
C573 C 0.83894 0.7145 0.30989 0.0
H574 H 0.84304 0.81165 0.30435 0.0
C575 C 0.81196 0.71078 0.33914 0.0
H576 H 0.87224 0.7548 0.27646 0.0
C577 C 0.79524 0.74331 0.35494 0.0
C578 C 0.80546 0.77995 0.34187 0.0
H579 H 0.8023 0.68285 0.34838 0.0
H580 H 0.77316 0.73968 0.3763 0.0
C581 C 0.83453 0.78373 0.31471 0.0
C582 C 0.23868 0.85262 0.29295 0.0
C583 C 0.27589 0.8413 0.30306 0.0
H584 H 0.17871 0.84334 0.30053 0.0
C585 C 0.28112 0.81476 0.33251 0.0
H586 H 0.23393 0.87348 0.27057 0.0
C587 C 0.24954 0.79754 0.34949 0.0
C588 C 0.21235 0.80682 0.33741 0.0
H589 H 0.30949 0.80577 0.34097 0.0
H590 H 0.25431 0.77573 0.37095 0.0
C591 C 0.20708 0.83557 0.31012 0.0
C592 C 0.1401 0.75033 0.69465 0.0
C593 C 0.15092 0.71309 0.68386 0.0
H594 H 0.14998 0.81043 0.68801 0.0
C595 C 0.1775 0.70807 0.65445 0.0
H596 H 0.11926 0.75495 0.71705 0.0
C597 C 0.19507 0.73979 0.63801 0.0
C598 C 0.18611 0.77695 0.65059 0.0
H599 H 0.18615 0.6797 0.64549 0.0
H600 H 0.21679 0.73511 0.61647 0.0
C601 C 0.1575 0.78208 0.67801 0.0
C602 C 0.2414 0.13529 0.6915 0.0
C603 C 0.27724 0.14885 0.6794 0.0
H604 H 0.18064 0.1408 0.68725 0.0
C605 C 0.27912 0.176 0.65009 0.0
H606 H 0.2392 0.11398 0.71385 0.0
C607 C 0.24562 0.19137 0.63504 0.0
C608 C 0.2098 0.1796 0.64891 0.0
H609 H 0.30637 0.18677 0.64015 0.0
H610 H 0.24783 0.21355 0.61355 0.0
C611 C 0.20788 0.15047 0.67625 0.0
C612 C 0.79394 0.24881 0.63578 0.0
C613 C 0.80625 0.21255 0.64813 0.0
H614 H 0.79848 0.30952 0.64284 0.0
C615 C 0.83618 0.2099 0.67452 0.0
H616 H 0.77111 0.2516 0.61506 0.0
C617 C 0.85166 0.24301 0.69041 0.0
C618 C 0.83761 0.2792 0.67993 0.0
H619 H 0.84631 0.18233 0.68431 0.0
H620 H 0.87365 0.24018 0.71201 0.0
C621 C 0.80963 0.28195 0.65148 0.0
C622 C 0.73935 0.79692 0.63549 0.0
C623 C 0.77533 0.80972 0.64809 0.0
H624 H 0.67867 0.80106 0.6418 0.0
C625 C 0.77754 0.84028 0.67386 0.0
H626 H 0.73692 0.77363 0.61518 0.0
C627 C 0.74422 0.85583 0.68907 0.0
C628 C 0.7083 0.8412 0.67849 0.0
H629 H 0.8049 0.85082 0.68376 0.0
H630 H 0.74667 0.87826 0.71031 0.0
C631 C 0.70602 0.81266 0.65051 0.0
C632 C 0.33296 0.17903 0.28006 0.0
C633 C 0.30442 0.15118 0.27679 0.0
H634 H 0.36998 0.21745 0.25041 0.0
C635 C 0.29434 0.13725 0.24042 0.0
H636 H 0.3413 0.19006 0.30777 0.0
C637 C 0.31076 0.15272 0.20764 0.0
C638 C 0.33727 0.18253 0.21079 0.0
H639 H 0.27268 0.11535 0.23719 0.0
H640 H 0.30128 0.14268 0.17992 0.0
C641 C 0.34919 0.19472 0.24724 0.0
C642 C 0.8505 0.29658 0.24121 0.0
C643 C 0.83791 0.30661 0.27805 0.0
H644 H 0.8433 0.30417 0.18095 0.0
C645 C 0.81094 0.33582 0.28238 0.0
H646 H 0.87171 0.2744 0.23715 0.0
C647 C 0.79468 0.35273 0.2502 0.0
C648 C 0.80539 0.34082 0.21331 0.0
H649 H 0.80096 0.34418 0.31047 0.0
H650 H 0.77257 0.37402 0.25424 0.0
C651 C 0.83443 0.31367 0.20904 0.0
C652 C 0.63254 0.79452 0.24885 0.0
C653 C 0.64422 0.80865 0.21307 0.0
H654 H 0.63956 0.79733 0.30964 0.0
C655 C 0.66913 0.83993 0.21148 0.0
H656 H 0.61297 0.77061 0.25085 0.0
C657 C 0.68432 0.85504 0.24505 0.0
C658 C 0.67461 0.83926 0.2807 0.0
H659 H 0.67835 0.85152 0.18431 0.0
H660 H 0.70482 0.87815 0.24297 0.0
C661 C 0.64755 0.80984 0.2825 0.0
C662 C 0.20342 0.63024 0.2491 0.0
C663 C 0.18807 0.6404 0.21333 0.0
H664 H 0.20115 0.63842 0.30982 0.0
C665 C 0.1553 0.66324 0.21177 0.0
H666 H 0.2285 0.61224 0.25107 0.0
C667 C 0.13982 0.67809 0.24524 0.0
C668 C 0.15672 0.67014 0.2808 0.0
H669 H 0.14268 0.67117 0.18464 0.0
H670 H 0.11552 0.69715 0.24312 0.0
C671 C 0.18771 0.64494 0.28271 0.0
C672 C 0.35911 0.78353 0.73893 0.0
C673 C 0.34911 0.79897 0.77472 0.0
H674 H 0.35169 0.78651 0.67816 0.0
C675 C 0.32747 0.83258 0.7763 0.0
H676 H 0.37624 0.75781 0.73694 0.0
C677 C 0.3136 0.84887 0.74279 0.0
C678 C 0.32133 0.83193 0.70719 0.0
H679 H 0.31974 0.8453 0.80345 0.0
H680 H 0.29539 0.87384 0.74489 0.0
C681 C 0.34539 0.80002 0.7053 0.0
C682 C 0.18782 0.3532 0.74144 0.0
C683 C 0.17749 0.33954 0.7778 0.0
H684 H 0.18187 0.34679 0.68089 0.0
C685 C 0.14941 0.31122 0.78093 0.0
H686 H 0.20917 0.37541 0.7383 0.0
C687 C 0.13396 0.2948 0.74806 0.0
C688 C 0.14622 0.30668 0.71167 0.0
H689 H 0.14088 0.30035 0.80862 0.0
H690 H 0.11353 0.27174 0.75118 0.0
C691 C 0.17219 0.33696 0.70858 0.0
C692 C 0.69427 0.13717 0.74866 0.0
C693 C 0.6818 0.14974 0.71255 0.0
H694 H 0.68993 0.14376 0.80938 0.0
C695 C 0.65196 0.17627 0.71019 0.0
H696 H 0.71703 0.11636 0.75123 0.0
C697 C 0.63664 0.19196 0.74343 0.0
C698 C 0.65074 0.18113 0.77949 0.0
H699 H 0.64171 0.18625 0.68275 0.0
H700 H 0.61467 0.21361 0.74082 0.0
C701 C 0.67873 0.15266 0.78193 0.0
C702 C 0.81404 0.65256 0.70958 0.0
C703 C 0.83973 0.6831 0.71239 0.0
H704 H 0.77731 0.61426 0.73967 0.0
C705 C 0.85189 0.69556 0.74867 0.0
H706 H 0.80445 0.6423 0.68198 0.0
C707 C 0.83654 0.67947 0.78169 0.0
C708 C 0.80864 0.65093 0.7788 0.0
H709 H 0.87213 0.71883 0.75157 0.0
H710 H 0.84493 0.69079 0.80927 0.0
C711 C 0.79848 0.63667 0.74259 0.0
C712 C 0.20629 0.31302 0.1478 0.0
C713 C 0.20821 0.33968 0.1776 0.0
H714 H 0.23752 0.27579 0.11088 0.0
C715 C 0.24407 0.35282 0.19019 0.0
H716 H 0.17902 0.30264 0.13746 0.0
C717 C 0.27756 0.33763 0.17494 0.0
C718 C 0.27557 0.30891 0.14711 0.0
H719 H 0.24629 0.37378 0.2129 0.0
H720 H 0.30481 0.3469 0.18632 0.0
C721 C 0.23976 0.29763 0.13275 0.0
C722 C 0.24076 0.69937 0.85577 0.0
C723 C 0.27605 0.68306 0.8455 0.0
H724 H 0.18001 0.69864 0.84788 0.0
C725 C 0.27663 0.65014 0.82271 0.0
H726 H 0.23954 0.72459 0.87373 0.0
C727 C 0.2427 0.63545 0.80804 0.0
C728 C 0.20766 0.65331 0.81612 0.0
H729 H 0.30335 0.63678 0.81469 0.0
H730 H 0.24407 0.611 0.78904 0.0
C731 C 0.2067 0.68447 0.84126 0.0
C732 C 0.29774 0.24339 0.85038 0.0
C733 C 0.30782 0.27976 0.83647 0.0
H734 H 0.3043 0.18279 0.84469 0.0
C735 C 0.33585 0.28288 0.80815 0.0
H736 H 0.27644 0.24026 0.87259 0.0
C737 C 0.35163 0.24994 0.79211 0.0
C738 C 0.33978 0.2135 0.80441 0.0
H739 H 0.34416 0.31058 0.79706 0.0
H740 H 0.37208 0.25303 0.76911 0.0
C741 C 0.31371 0.21049 0.83456 0.0
C742 C 0.74788 0.29752 0.85513 0.0
C743 C 0.71157 0.30926 0.84251 0.0
H744 H 0.80842 0.3025 0.84809 0.0
C745 C 0.70863 0.33887 0.81578 0.0
H746 H 0.75089 0.27497 0.87613 0.0
C747 C 0.74153 0.35446 0.79974 0.0
C748 C 0.7778 0.34082 0.8104 0.0
H749 H 0.681 0.34857 0.80578 0.0
H750 H 0.7385 0.37611 0.77781 0.0
C751 C 0.78081 0.3133 0.83926 0.0
C752 C 0.68997 0.74823 0.85182 0.0
C753 C 0.6791 0.71185 0.83843 0.0
H754 H 0.68422 0.80886 0.84558 0.0
C755 C 0.65042 0.70881 0.81071 0.0
H756 H 0.71178 0.7513 0.87357 0.0
C757 C 0.63481 0.74178 0.79465 0.0
C758 C 0.64748 0.77817 0.80631 0.0
H759 H 0.64146 0.68112 0.80007 0.0
H760 H 0.61385 0.73871 0.77207 0.0
C761 C 0.67417 0.78117 0.83595 0.0
C762 C 0.70962 0.65651 0.17246 0.0
C763 C 0.712 0.68768 0.14751 0.0
H764 H 0.74006 0.61791 0.20857 0.0
C765 C 0.74812 0.70135 0.13635 0.0
H766 H 0.68219 0.64527 0.1813 0.0
C767 C 0.78133 0.68557 0.15178 0.0
C768 C 0.77874 0.65618 0.17879 0.0
H769 H 0.75073 0.72517 0.11675 0.0
H770 H 0.80875 0.69768 0.14412 0.0
C771 C 0.74275 0.64097 0.18809 0.0
C772 C 0.3027 0.78175 0.14551 0.0
C773 C 0.33322 0.78086 0.17136 0.0
H774 H 0.26294 0.74882 0.1127 0.0
C775 C 0.35012 0.74562 0.18075 0.0
H776 H 0.28926 0.80857 0.13785 0.0
C777 C 0.33524 0.71156 0.16645 0.0
C778 C 0.30304 0.71219 0.14272 0.0
H779 H 0.37404 0.74424 0.20036 0.0
H780 H 0.3479 0.68475 0.17536 0.0
C781 C 0.28759 0.74757 0.13137 0.0
C782 C 0.64786 0.28385 0.18523 0.0
C783 C 0.67396 0.28183 0.15503 0.0
H784 H 0.6141 0.25241 0.22525 0.0
C785 C 0.6828 0.24609 0.13884 0.0
H786 H 0.6406 0.31108 0.19811 0.0
C787 C 0.66771 0.21262 0.15418 0.0
C788 C 0.64375 0.21437 0.18613 0.0
H789 H 0.70259 0.24386 0.11515 0.0
H790 H 0.67621 0.18537 0.14214 0.0
C791 C 0.63294 0.25028 0.2008 0.0
loop_
_geom_bond_atom_site_label_1
_geom_bond_atom_site_label_2
_geom_bond_distance
_geom_bond_site_symmetry_2
_ccdc_geom_bond_type
In0 O1 2.294 . S
In0 O2 2.326 . S
In0 O6 2.266 . S
In0 O7 2.326 . S
In0 O8 2.266 . S
In0 O9 2.326 . S
In0 O11 2.294 . S
In0 O12 2.326 . S
O1 In0 2.294 . S
O1 C10 1.240 . S
O2 In0 2.326 . S
O2 C10 1.252 . S
C3 O6 1.252 . S
C3 O7 1.260 . S
C4 O11 1.240 . S
C4 O12 1.252 . S
C5 O8 1.252 . S
C5 O9 1.260 . S
O6 In0 2.266 . S
O6 C3 1.252 . S
O7 In0 2.326 . S
O7 C3 1.260 . S
O8 In0 2.266 . S
O8 C5 1.252 . S
O9 In0 2.326 . S
O9 C5 1.260 . S
C10 O1 1.240 . S
C10 O2 1.252 . S
O11 In0 2.294 . S
O11 C4 1.240 . S
O12 In0 2.326 . S
O12 C4 1.252 . S
In13 O14 2.294 . S
In13 O15 2.326 . S
In13 O19 2.266 . S
In13 O20 2.326 . S
In13 O21 2.266 . S
In13 O22 2.326 . S
In13 O24 2.294 . S
In13 O25 2.326 . S
O14 In13 2.294 . S
O14 C23 1.240 . S
O15 In13 2.326 . S
O15 C23 1.252 . S
C16 O19 1.252 . S
C16 O20 1.260 . S
C17 O24 1.240 . S
C17 O25 1.252 . S
C18 O21 1.252 . S
C18 O22 1.260 . S
O19 In13 2.266 . S
O19 C16 1.252 . S
O20 In13 2.326 . S
O20 C16 1.260 . S
O21 In13 2.266 . S
O21 C18 1.252 . S
O22 In13 2.326 . S
O22 C18 1.260 . S
C23 O14 1.240 . S
C23 O15 1.252 . S
O24 In13 2.294 . S
O24 C17 1.240 . S
O25 In13 2.326 . S
O25 C17 1.252 . S
In26 O27 2.294 . S
In26 O28 2.326 . S
In26 O32 2.266 . S
In26 O33 2.326 . S
In26 O34 2.266 . S
In26 O35 2.326 . S
In26 O37 2.294 . S
In26 O38 2.326 . S
O27 In26 2.294 . S
O27 C36 1.240 . S
O28 In26 2.326 . S
O28 C36 1.252 . S
C29 O32 1.252 . S
C29 O33 1.260 . S
C30 O37 1.240 . S
C30 O38 1.252 . S
C31 O34 1.252 . S
C31 O35 1.260 . S
O32 In26 2.266 . S
O32 C29 1.252 . S
O33 In26 2.326 . S
O33 C29 1.260 . S
O34 In26 2.266 . S
O34 C31 1.252 . S
O35 In26 2.326 . S
O35 C31 1.260 . S
C36 O27 1.240 . S
C36 O28 1.252 . S
O37 In26 2.294 . S
O37 C30 1.240 . S
O38 In26 2.326 . S
O38 C30 1.252 . S
In39 O40 2.294 . S
In39 O41 2.326 . S
In39 O45 2.266 . S
In39 O46 2.326 . S
In39 O47 2.266 . S
In39 O48 2.326 . S
In39 O50 2.294 . S
In39 O51 2.326 . S
O40 In39 2.294 . S
O40 C49 1.240 . S
O41 In39 2.326 . S
O41 C49 1.252 . S
C42 O45 1.252 . S
C42 O46 1.260 . S
C43 O50 1.240 . S
C43 O51 1.252 . S
C44 O47 1.252 . S
C44 O48 1.260 . S
O45 In39 2.266 . S
O45 C42 1.252 . S
O46 In39 2.326 . S
O46 C42 1.260 . S
O47 In39 2.266 . S
O47 C44 1.252 . S
O48 In39 2.326 . S
O48 C44 1.260 . S
C49 O40 1.240 . S
C49 O41 1.252 . S
O50 In39 2.294 . S
O50 C43 1.240 . S
O51 In39 2.326 . S
O51 C43 1.252 . S
In52 O53 2.294 . S
In52 O54 2.326 . S
In52 O58 2.266 . S
In52 O59 2.326 . S
In52 O60 2.266 . S
In52 O61 2.326 . S
In52 O63 2.294 . S
In52 O64 2.326 . S
O53 In52 2.294 . S
O53 C62 1.240 . S
O54 In52 2.326 . S
O54 C62 1.252 . S
C55 O58 1.252 . S
C55 O59 1.260 . S
C56 O63 1.240 . S
C56 O64 1.252 . S
C57 O60 1.252 . S
C57 O61 1.260 . S
O58 In52 2.266 . S
O58 C55 1.252 . S
O59 In52 2.326 . S
O59 C55 1.260 . S
O60 In52 2.266 . S
O60 C57 1.252 . S
O61 In52 2.326 . S
O61 C57 1.260 . S
C62 O53 1.240 . S
C62 O54 1.252 . S
O63 In52 2.294 . S
O63 C56 1.240 . S
O64 In52 2.326 . S
O64 C56 1.252 . S
In65 O66 2.294 . S
In65 O67 2.326 . S
In65 O71 2.266 . S
In65 O72 2.326 . S
In65 O73 2.266 . S
In65 O74 2.326 . S
In65 O76 2.294 . S
In65 O77 2.326 . S
O66 In65 2.294 . S
O66 C75 1.240 . S
O67 In65 2.326 . S
O67 C75 1.252 . S
C68 O71 1.252 . S
C68 O72 1.260 . S
C69 O76 1.240 . S
C69 O77 1.252 . S
C70 O73 1.252 . S
C70 O74 1.260 . S
O71 In65 2.266 . S
O71 C68 1.252 . S
O72 In65 2.326 . S
O72 C68 1.260 . S
O73 In65 2.266 . S
O73 C70 1.252 . S
O74 In65 2.326 . S
O74 C70 1.260 . S
C75 O66 1.240 . S
C75 O67 1.252 . S
O76 In65 2.294 . S
O76 C69 1.240 . S
O77 In65 2.326 . S
O77 C69 1.252 . S
In78 O79 2.294 . S
In78 O80 2.326 . S
In78 O84 2.266 . S
In78 O85 2.326 . S
In78 O86 2.266 . S
In78 O87 2.326 . S
In78 O89 2.294 . S
In78 O90 2.326 . S
O79 In78 2.294 . S
O79 C88 1.240 . S
O80 In78 2.326 . S
O80 C88 1.252 . S
C81 O84 1.252 . S
C81 O85 1.260 . S
C82 O89 1.240 . S
C82 O90 1.252 . S
C83 O86 1.252 . S
C83 O87 1.260 . S
O84 In78 2.266 . S
O84 C81 1.252 . S
O85 In78 2.326 . S
O85 C81 1.260 . S
O86 In78 2.266 . S
O86 C83 1.252 . S
O87 In78 2.326 . S
O87 C83 1.260 . S
C88 O79 1.240 . S
C88 O80 1.252 . S
O89 In78 2.294 . S
O89 C82 1.240 . S
O90 In78 2.326 . S
O90 C82 1.252 . S
In91 O92 2.294 . S
In91 O93 2.326 . S
In91 O97 2.266 . S
In91 O98 2.326 . S
In91 O99 2.266 . S
In91 O100 2.326 . S
In91 O102 2.294 . S
In91 O103 2.326 . S
O92 In91 2.294 . S
O92 C101 1.240 . S
O93 In91 2.326 . S
O93 C101 1.252 . S
C94 O97 1.252 . S
C94 O98 1.260 . S
C95 O102 1.240 . S
C95 O103 1.252 . S
C96 O99 1.252 . S
C96 O100 1.260 . S
O97 In91 2.266 . S
O97 C94 1.252 . S
O98 In91 2.326 . S
O98 C94 1.260 . S
O99 In91 2.266 . S
O99 C96 1.252 . S
O100 In91 2.326 . S
O100 C96 1.260 . S
C101 O92 1.240 . S
C101 O93 1.252 . S
O102 In91 2.294 . S
O102 C95 1.240 . S
O103 In91 2.326 . S
O103 C95 1.252 . S
In104 O105 2.294 . S
In104 O106 2.326 . S
In104 O110 2.266 . S
In104 O111 2.326 . S
In104 O112 2.266 . S
In104 O113 2.326 . S
In104 O115 2.294 . S
In104 O116 2.326 . S
O105 In104 2.294 . S
O105 C114 1.240 . S
O106 In104 2.326 . S
O106 C114 1.252 . S
C107 O110 1.252 . S
C107 O111 1.260 . S
C108 O115 1.240 . S
C108 O116 1.252 . S
C109 O112 1.252 . S
C109 O113 1.260 . S
O110 In104 2.266 . S
O110 C107 1.252 . S
O111 In104 2.326 . S
O111 C107 1.260 . S
O112 In104 2.266 . S
O112 C109 1.252 . S
O113 In104 2.326 . S
O113 C109 1.260 . S
C114 O105 1.240 . S
C114 O106 1.252 . S
O115 In104 2.294 . S
O115 C108 1.240 . S
O116 In104 2.326 . S
O116 C108 1.252 . S
In117 O118 2.294 . S
In117 O119 2.326 . S
In117 O123 2.266 . S
In117 O124 2.326 . S
In117 O125 2.266 . S
In117 O126 2.326 . S
In117 O128 2.294 . S
In117 O129 2.326 . S
O118 In117 2.294 . S
O118 C127 1.240 . S
O119 In117 2.326 . S
O119 C127 1.252 . S
C120 O123 1.252 . S
C120 O124 1.260 . S
C121 O128 1.240 . S
C121 O129 1.252 . S
C122 O125 1.252 . S
C122 O126 1.260 . S
O123 In117 2.266 . S
O123 C120 1.252 . S
O124 In117 2.326 . S
O124 C120 1.260 . S
O125 In117 2.266 . S
O125 C122 1.252 . S
O126 In117 2.326 . S
O126 C122 1.260 . S
C127 O118 1.240 . S
C127 O119 1.252 . S
O128 In117 2.294 . S
O128 C121 1.240 . S
O129 In117 2.326 . S
O129 C121 1.252 . S
In130 O131 2.294 . S
In130 O132 2.326 . S
In130 O136 2.266 . S
In130 O137 2.326 . S
In130 O138 2.266 . S
In130 O139 2.326 . S
In130 O141 2.294 . S
In130 O142 2.326 . S
O131 In130 2.294 . S
O131 C140 1.240 . S
O132 In130 2.326 . S
O132 C140 1.252 . S
C133 O136 1.252 . S
C133 O137 1.260 . S
C134 O141 1.240 . S
C134 O142 1.252 . S
C135 O138 1.252 . S
C135 O139 1.260 . S
O136 In130 2.266 . S
O136 C133 1.252 . S
O137 In130 2.326 . S
O137 C133 1.260 . S
O138 In130 2.266 . S
O138 C135 1.252 . S
O139 In130 2.326 . S
O139 C135 1.260 . S
C140 O131 1.240 . S
C140 O132 1.252 . S
O141 In130 2.294 . S
O141 C134 1.240 . S
O142 In130 2.326 . S
O142 C134 1.252 . S
In143 O144 2.294 . S
In143 O145 2.326 . S
In143 O149 2.266 . S
In143 O150 2.326 . S
In143 O151 2.266 . S
In143 O152 2.326 . S
In143 O154 2.294 . S
In143 O155 2.326 . S
O144 In143 2.294 . S
O144 C153 1.240 . S
O145 In143 2.326 . S
O145 C153 1.252 . S
C146 O149 1.252 . S
C146 O150 1.260 . S
C147 O154 1.240 . S
C147 O155 1.252 . S
C148 O151 1.252 . S
C148 O152 1.260 . S
O149 In143 2.266 . S
O149 C146 1.252 . S
O150 In143 2.326 . S
O150 C146 1.260 . S
O151 In143 2.266 . S
O151 C148 1.252 . S
O152 In143 2.326 . S
O152 C148 1.260 . S
C153 O144 1.240 . S
C153 O145 1.252 . S
O154 In143 2.294 . S
O154 C147 1.240 . S
O155 In143 2.326 . S
O155 C147 1.252 . S
In156 O157 2.294 . S
In156 O158 2.326 . S
In156 O162 2.266 . S
In156 O163 2.326 . S
In156 O164 2.266 . S
In156 O165 2.326 . S
In156 O167 2.294 . S
In156 O168 2.326 . S
O157 In156 2.294 . S
O157 C166 1.240 . S
O158 In156 2.326 . S
O158 C166 1.252 . S
C159 O162 1.252 . S
C159 O163 1.260 . S
C160 O167 1.240 . S
C160 O168 1.252 . S
C161 O164 1.252 . S
C161 O165 1.260 . S
O162 In156 2.266 . S
O162 C159 1.252 . S
O163 In156 2.326 . S
O163 C159 1.260 . S
O164 In156 2.266 . S
O164 C161 1.252 . S
O165 In156 2.326 . S
O165 C161 1.260 . S
C166 O157 1.240 . S
C166 O158 1.252 . S
O167 In156 2.294 . S
O167 C160 1.240 . S
O168 In156 2.326 . S
O168 C160 1.252 . S
In169 O170 2.294 . S
In169 O171 2.326 . S
In169 O175 2.266 . S
In169 O176 2.326 . S
In169 O177 2.266 . S
In169 O178 2.326 . S
In169 O180 2.294 . S
In169 O181 2.326 . S
O170 In169 2.294 . S
O170 C179 1.240 . S
O171 In169 2.326 . S
O171 C179 1.252 . S
C172 O175 1.252 . S
C172 O176 1.260 . S
C173 O180 1.240 . S
C173 O181 1.252 . S
C174 O177 1.252 . S
C174 O178 1.260 . S
O175 In169 2.266 . S
O175 C172 1.252 . S
O176 In169 2.326 . S
O176 C172 1.260 . S
O177 In169 2.266 . S
O177 C174 1.252 . S
O178 In169 2.326 . S
O178 C174 1.260 . S
C179 O170 1.240 . S
C179 O171 1.252 . S
O180 In169 2.294 . S
O180 C173 1.240 . S
O181 In169 2.326 . S
O181 C173 1.252 . S
In182 O183 2.294 . S
In182 O184 2.326 . S
In182 O188 2.266 . S
In182 O189 2.326 . S
In182 O190 2.266 . S
In182 O191 2.326 . S
In182 O193 2.294 . S
In182 O194 2.326 . S
O183 In182 2.294 . S
O183 C192 1.240 . S
O184 In182 2.326 . S
O184 C192 1.252 . S
C185 O188 1.252 . S
C185 O189 1.260 . S
C186 O193 1.240 . S
C186 O194 1.252 . S
C187 O190 1.252 . S
C187 O191 1.260 . S
O188 In182 2.266 . S
O188 C185 1.252 . S
O189 In182 2.326 . S
O189 C185 1.260 . S
O190 In182 2.266 . S
O190 C187 1.252 . S
O191 In182 2.326 . S
O191 C187 1.260 . S
C192 O183 1.240 . S
C192 O184 1.252 . S
O193 In182 2.294 . S
O193 C186 1.240 . S
O194 In182 2.326 . S
O194 C186 1.252 . S
In195 O196 2.294 . S
In195 O197 2.326 . S
In195 O201 2.266 . S
In195 O202 2.326 . S
In195 O203 2.266 . S
In195 O204 2.326 . S
In195 O206 2.294 . S
In195 O207 2.326 . S
O196 In195 2.294 . S
O196 C205 1.240 . S
O197 In195 2.326 . S
O197 C205 1.252 . S
C198 O201 1.252 . S
C198 O202 1.260 . S
C199 O206 1.240 . S
C199 O207 1.252 . S
C200 O203 1.252 . S
C200 O204 1.260 . S
O201 In195 2.266 . S
O201 C198 1.252 . S
O202 In195 2.326 . S
O202 C198 1.260 . S
O203 In195 2.266 . S
O203 C200 1.252 . S
O204 In195 2.326 . S
O204 C200 1.260 . S
C205 O196 1.240 . S
C205 O197 1.252 . S
O206 In195 2.294 . S
O206 C199 1.240 . S
O207 In195 2.326 . S
O207 C199 1.252 . S
In208 O209 2.294 . S
In208 O210 2.326 . S
In208 O214 2.266 . S
In208 O215 2.326 . S
In208 O216 2.266 . S
In208 O217 2.326 . S
In208 O219 2.294 . S
In208 O220 2.326 . S
O209 In208 2.294 . S
O209 C218 1.240 . S
O210 In208 2.326 . S
O210 C218 1.252 . S
C211 O214 1.252 . S
C211 O215 1.260 . S
C212 O219 1.240 . S
C212 O220 1.252 . S
C213 O216 1.252 . S
C213 O217 1.260 . S
O214 In208 2.266 . S
O214 C211 1.252 . S
O215 In208 2.326 . S
O215 C211 1.260 . S
O216 In208 2.266 . S
O216 C213 1.252 . S
O217 In208 2.326 . S
O217 C213 1.260 . S
C218 O209 1.240 . S
C218 O210 1.252 . S
O219 In208 2.294 . S
O219 C212 1.240 . S
O220 In208 2.326 . S
O220 C212 1.252 . S
In221 O222 2.294 . S
In221 O223 2.326 . S
In221 O227 2.266 . S
In221 O228 2.326 . S
In221 O229 2.266 . S
In221 O230 2.326 . S
In221 O232 2.294 . S
In221 O233 2.326 . S
O222 In221 2.294 . S
O222 C231 1.240 . S
O223 In221 2.326 . S
O223 C231 1.252 . S
C224 O227 1.252 . S
C224 O228 1.260 . S
C225 O232 1.240 . S
C225 O233 1.252 . S
C226 O229 1.252 . S
C226 O230 1.260 . S
O227 In221 2.266 . S
O227 C224 1.252 . S
O228 In221 2.326 . S
O228 C224 1.260 . S
O229 In221 2.266 . S
O229 C226 1.252 . S
O230 In221 2.326 . S
O230 C226 1.260 . S
C231 O222 1.240 . S
C231 O223 1.252 . S
O232 In221 2.294 . S
O232 C225 1.240 . S
O233 In221 2.326 . S
O233 C225 1.252 . S
In234 O235 2.294 . S
In234 O236 2.326 . S
In234 O240 2.266 . S
In234 O241 2.326 . S
In234 O242 2.266 . S
In234 O243 2.326 . S
In234 O245 2.294 . S
In234 O246 2.326 . S
O235 In234 2.294 . S
O235 C244 1.240 . S
O236 In234 2.326 . S
O236 C244 1.252 . S
C237 O240 1.252 . S
C237 O241 1.260 . S
C238 O245 1.240 . S
C238 O246 1.252 . S
C239 O242 1.252 . S
C239 O243 1.260 . S
O240 In234 2.266 . S
O240 C237 1.252 . S
O241 In234 2.326 . S
O241 C237 1.260 . S
O242 In234 2.266 . S
O242 C239 1.252 . S
O243 In234 2.326 . S
O243 C239 1.260 . S
C244 O235 1.240 . S
C244 O236 1.252 . S
O245 In234 2.294 . S
O245 C238 1.240 . S
O246 In234 2.326 . S
O246 C238 1.252 . S
In247 O248 2.294 . S
In247 O249 2.326 . S
In247 O253 2.266 . S
In247 O254 2.326 . S
In247 O255 2.266 . S
In247 O256 2.326 . S
In247 O258 2.294 . S
In247 O259 2.326 . S
O248 In247 2.294 . S
O248 C257 1.240 . S
O249 In247 2.326 . S
O249 C257 1.252 . S
C250 O253 1.252 . S
C250 O254 1.260 . S
C251 O258 1.240 . S
C251 O259 1.252 . S
C252 O255 1.252 . S
C252 O256 1.260 . S
O253 In247 2.266 . S
O253 C250 1.252 . S
O254 In247 2.326 . S
O254 C250 1.260 . S
O255 In247 2.266 . S
O255 C252 1.252 . S
O256 In247 2.326 . S
O256 C252 1.260 . S
C257 O248 1.240 . S
C257 O249 1.252 . S
O258 In247 2.294 . S
O258 C251 1.240 . S
O259 In247 2.326 . S
O259 C251 1.252 . S
In260 O261 2.294 . S
In260 O262 2.326 . S
In260 O266 2.266 . S
In260 O267 2.326 . S
In260 O268 2.266 . S
In260 O269 2.326 . S
In260 O271 2.294 . S
In260 O272 2.326 . S
O261 In260 2.294 . S
O261 C270 1.240 . S
O262 In260 2.326 . S
O262 C270 1.252 . S
C263 O266 1.252 . S
C263 O267 1.260 . S
C264 O271 1.240 . S
C264 O272 1.252 . S
C265 O268 1.252 . S
C265 O269 1.260 . S
O266 In260 2.266 . S
O266 C263 1.252 . S
O267 In260 2.326 . S
O267 C263 1.260 . S
O268 In260 2.266 . S
O268 C265 1.252 . S
O269 In260 2.326 . S
O269 C265 1.260 . S
C270 O261 1.240 . S
C270 O262 1.252 . S
O271 In260 2.294 . S
O271 C264 1.240 . S
O272 In260 2.326 . S
O272 C264 1.252 . S
In273 O274 2.294 . S
In273 O275 2.326 . S
In273 O279 2.266 . S
In273 O280 2.326 . S
In273 O281 2.266 . S
In273 O282 2.326 . S
In273 O284 2.294 . S
In273 O285 2.326 . S
O274 In273 2.294 . S
O274 C283 1.240 . S
O275 In273 2.326 . S
O275 C283 1.252 . S
C276 O279 1.252 . S
C276 O280 1.260 . S
C277 O284 1.240 . S
C277 O285 1.252 . S
C278 O281 1.252 . S
C278 O282 1.260 . S
O279 In273 2.266 . S
O279 C276 1.252 . S
O280 In273 2.326 . S
O280 C276 1.260 . S
O281 In273 2.266 . S
O281 C278 1.252 . S
O282 In273 2.326 . S
O282 C278 1.260 . S
C283 O274 1.240 . S
C283 O275 1.252 . S
O284 In273 2.294 . S
O284 C277 1.240 . S
O285 In273 2.326 . S
O285 C277 1.252 . S
In286 O287 2.294 . S
In286 O288 2.326 . S
In286 O292 2.266 . S
In286 O293 2.326 . S
In286 O294 2.266 . S
In286 O295 2.326 . S
In286 O297 2.294 . S
In286 O298 2.326 . S
O287 In286 2.294 . S
O287 C296 1.240 . S
O288 In286 2.326 . S
O288 C296 1.252 . S
C289 O292 1.252 . S
C289 O293 1.260 . S
C290 O297 1.240 . S
C290 O298 1.252 . S
C291 O294 1.252 . S
C291 O295 1.260 . S
O292 In286 2.266 . S
O292 C289 1.252 . S
O293 In286 2.326 . S
O293 C289 1.260 . S
O294 In286 2.266 . S
O294 C291 1.252 . S
O295 In286 2.326 . S
O295 C291 1.260 . S
C296 O287 1.240 . S
C296 O288 1.252 . S
O297 In286 2.294 . S
O297 C290 1.240 . S
O298 In286 2.326 . S
O298 C290 1.252 . S
In299 O300 2.294 . S
In299 O301 2.326 . S
In299 O305 2.266 . S
In299 O306 2.326 . S
In299 O307 2.266 . S
In299 O308 2.326 . S
In299 O310 2.294 . S
In299 O311 2.326 . S
O300 In299 2.294 . S
O300 C309 1.240 . S
O301 In299 2.326 . S
O301 C309 1.252 . S
C302 O305 1.252 . S
C302 O306 1.260 . S
C303 O310 1.240 . S
C303 O311 1.252 . S
C304 O307 1.252 . S
C304 O308 1.260 . S
O305 In299 2.266 . S
O305 C302 1.252 . S
O306 In299 2.326 . S
O306 C302 1.260 . S
O307 In299 2.266 . S
O307 C304 1.252 . S
O308 In299 2.326 . S
O308 C304 1.260 . S
C309 O300 1.240 . S
C309 O301 1.252 . S
O310 In299 2.294 . S
O310 C303 1.240 . S
O311 In299 2.326 . S
O311 C303 1.252 . S
C312 C313 1.387 . S
C312 H316 0.950 . S
C312 C321 1.390 . S
C313 C312 1.387 . S
C313 C315 1.387 . S
H314 C321 0.950 . S
C315 C313 1.387 . S
C315 C317 1.390 . S
C315 H319 0.950 . S
H316 C312 0.950 . S
C317 C315 1.390 . S
C317 C318 1.387 . S
C317 H320 0.950 . S
C318 C317 1.387 . S
C318 C321 1.387 . S
H319 C315 0.950 . S
H320 C317 0.950 . S
C321 C312 1.390 . S
C321 H314 0.950 . S
C321 C318 1.387 . S
C322 C323 1.387 . S
C322 H326 0.950 . S
C322 C331 1.390 . S
C323 C322 1.387 . S
C323 C325 1.387 . S
H324 C331 0.950 . S
C325 C323 1.387 . S
C325 C327 1.390 . S
C325 H329 0.950 . S
H326 C322 0.950 . S
C327 C325 1.390 . S
C327 C328 1.387 . S
C327 H330 0.950 . S
C328 C327 1.387 . S
C328 C331 1.387 . S
H329 C325 0.950 . S
H330 C327 0.950 . S
C331 C322 1.390 . S
C331 H324 0.950 . S
C331 C328 1.387 . S
C332 C333 1.387 . S
C332 H336 0.950 . S
C332 C341 1.390 . S
C333 C332 1.387 . S
C333 C335 1.387 . S
H334 C341 0.950 . S
C335 C333 1.387 . S
C335 C337 1.390 . S
C335 H339 0.950 . S
H336 C332 0.950 . S
C337 C335 1.390 . S
C337 C338 1.387 . S
C337 H340 0.950 . S
C338 C337 1.387 . S
C338 C341 1.387 . S
H339 C335 0.950 . S
H340 C337 0.950 . S
C341 C332 1.390 . S
C341 H334 0.950 . S
C341 C338 1.387 . S
C342 C343 1.387 . S
C342 H346 0.950 . S
C342 C351 1.390 . S
C343 C342 1.387 . S
C343 C345 1.387 . S
H344 C351 0.950 . S
C345 C343 1.387 . S
C345 C347 1.390 . S
C345 H349 0.950 . S
H346 C342 0.950 . S
C347 C345 1.390 . S
C347 C348 1.387 . S
C347 H350 0.950 . S
C348 C347 1.387 . S
C348 C351 1.387 . S
H349 C345 0.950 . S
H350 C347 0.950 . S
C351 C342 1.390 . S
C351 H344 0.950 . S
C351 C348 1.387 . S
C352 C353 1.387 . S
C352 H356 0.950 . S
C352 C361 1.390 . S
C353 C352 1.387 . S
C353 C355 1.387 . S
H354 C361 0.950 . S
C355 C353 1.387 . S
C355 C357 1.390 . S
C355 H359 0.950 . S
H356 C352 0.950 . S
C357 C355 1.390 . S
C357 C358 1.387 . S
C357 H360 0.950 . S
C358 C357 1.387 . S
C358 C361 1.387 . S
H359 C355 0.950 . S
H360 C357 0.950 . S
C361 C352 1.390 . S
C361 H354 0.950 . S
C361 C358 1.387 . S
C362 C363 1.387 . S
C362 H366 0.950 . S
C362 C371 1.390 . S
C363 C362 1.387 . S
C363 C365 1.387 . S
H364 C371 0.950 . S
C365 C363 1.387 . S
C365 C367 1.390 . S
C365 H369 0.950 . S
H366 C362 0.950 . S
C367 C365 1.390 . S
C367 C368 1.387 . S
C367 H370 0.950 . S
C368 C367 1.387 . S
C368 C371 1.387 . S
H369 C365 0.950 . S
H370 C367 0.950 . S
C371 C362 1.390 . S
C371 H364 0.950 . S
C371 C368 1.387 . S
C372 C373 1.387 . S
C372 H376 0.950 . S
C372 C381 1.390 . S
C373 C372 1.387 . S
C373 C375 1.387 . S
H374 C381 0.950 . S
C375 C373 1.387 . S
C375 C377 1.390 . S
C375 H379 0.950 . S
H376 C372 0.950 . S
C377 C375 1.390 . S
C377 C378 1.387 . S
C377 H380 0.950 . S
C378 C377 1.387 . S
C378 C381 1.387 . S
H379 C375 0.950 . S
H380 C377 0.950 . S
C381 C372 1.390 . S
C381 H374 0.950 . S
C381 C378 1.387 . S
C382 C383 1.387 . S
C382 H386 0.950 . S
C382 C391 1.390 . S
C383 C382 1.387 . S
C383 C385 1.387 . S
H384 C391 0.950 . S
C385 C383 1.387 . S
C385 C387 1.390 . S
C385 H389 0.950 . S
H386 C382 0.950 . S
C387 C385 1.390 . S
C387 C388 1.387 . S
C387 H390 0.950 . S
C388 C387 1.387 . S
C388 C391 1.387 . S
H389 C385 0.950 . S
H390 C387 0.950 . S
C391 C382 1.390 . S
C391 H384 0.950 . S
C391 C388 1.387 . S
C392 C393 1.387 . S
C392 H396 0.950 . S
C392 C401 1.390 . S
C393 C392 1.387 . S
C393 C395 1.387 . S
H394 C401 0.950 . S
C395 C393 1.387 . S
C395 C397 1.390 . S
C395 H399 0.950 . S
H396 C392 0.950 . S
C397 C395 1.390 . S
C397 C398 1.387 . S
C397 H400 0.950 . S
C398 C397 1.387 . S
C398 C401 1.387 . S
H399 C395 0.950 . S
H400 C397 0.950 . S
C401 C392 1.390 . S
C401 H394 0.950 . S
C401 C398 1.387 . S
C402 C403 1.387 . S
C402 H406 0.950 . S
C402 C411 1.390 . S
C403 C402 1.387 . S
C403 C405 1.387 . S
H404 C411 0.950 . S
C405 C403 1.387 . S
C405 C407 1.390 . S
C405 H409 0.950 . S
H406 C402 0.950 . S
C407 C405 1.390 . S
C407 C408 1.387 . S
C407 H410 0.950 . S
C408 C407 1.387 . S
C408 C411 1.387 . S
H409 C405 0.950 . S
H410 C407 0.950 . S
C411 C402 1.390 . S
C411 H404 0.950 . S
C411 C408 1.387 . S
C412 C413 1.387 . S
C412 H416 0.950 . S
C412 C421 1.390 . S
C413 C412 1.387 . S
C413 C415 1.387 . S
H414 C421 0.950 . S
C415 C413 1.387 . S
C415 C417 1.390 . S
C415 H419 0.950 . S
H416 C412 0.950 . S
C417 C415 1.390 . S
C417 C418 1.387 . S
C417 H420 0.950 . S
C418 C417 1.387 . S
C418 C421 1.387 . S
H419 C415 0.950 . S
H420 C417 0.950 . S
C421 C412 1.390 . S
C421 H414 0.950 . S
C421 C418 1.387 . S
C422 C423 1.387 . S
C422 H426 0.950 . S
C422 C431 1.390 . S
C423 C422 1.387 . S
C423 C425 1.387 . S
H424 C431 0.950 . S
C425 C423 1.387 . S
C425 C427 1.390 . S
C425 H429 0.950 . S
H426 C422 0.950 . S
C427 C425 1.390 . S
C427 C428 1.387 . S
C427 H430 0.950 . S
C428 C427 1.387 . S
C428 C431 1.387 . S
H429 C425 0.950 . S
H430 C427 0.950 . S
C431 C422 1.390 . S
C431 H424 0.950 . S
C431 C428 1.387 . S
C432 C433 1.387 . S
C432 H436 0.950 . S
C432 C441 1.390 . S
C433 C432 1.387 . S
C433 C435 1.387 1_565 S
H434 C441 0.950 . S
C435 C433 1.387 1_545 S
C435 C437 1.390 . S
C435 H439 0.950 . S
H436 C432 0.950 . S
C437 C435 1.390 . S
C437 C438 1.387 . S
C437 H440 0.950 . S
C438 C437 1.387 . S
C438 C441 1.387 1_545 S
H439 C435 0.950 . S
H440 C437 0.950 . S
C441 C432 1.390 . S
C441 H434 0.950 . S
C441 C438 1.387 1_565 S
C442 C443 1.387 . S
C442 H446 0.950 . S
C442 C451 1.390 1_655 S
C443 C442 1.387 . S
C443 C445 1.387 . S
H444 C451 0.950 . S
C445 C443 1.387 . S
C445 C447 1.390 1_655 S
C445 H449 0.950 . S
H446 C442 0.950 . S
C447 C445 1.390 1_455 S
C447 C448 1.387 . S
C447 H450 0.950 . S
C448 C447 1.387 . S
C448 C451 1.387 . S
H449 C445 0.950 . S
H450 C447 0.950 . S
C451 C442 1.390 1_455 S
C451 H444 0.950 . S
C451 C448 1.387 . S
C452 C453 1.387 . S
C452 H456 0.950 . S
C452 C461 1.390 . S
C453 C452 1.387 . S
C453 C455 1.387 1_545 S
H454 C461 0.950 . S
C455 C453 1.387 1_565 S
C455 C457 1.390 . S
C455 H459 0.950 . S
H456 C452 0.950 . S
C457 C455 1.390 . S
C457 C458 1.387 . S
C457 H460 0.950 . S
C458 C457 1.387 . S
C458 C461 1.387 1_565 S
H459 C455 0.950 . S
H460 C457 0.950 . S
C461 C452 1.390 . S
C461 H454 0.950 . S
C461 C458 1.387 1_545 S
C462 C463 1.387 . S
C462 H466 0.950 . S
C462 C471 1.390 1_455 S
C463 C462 1.387 . S
C463 C465 1.387 . S
H464 C471 0.950 . S
C465 C463 1.387 . S
C465 C467 1.390 1_455 S
C465 H469 0.950 . S
H466 C462 0.950 . S
C467 C465 1.390 1_655 S
C467 C468 1.387 . S
C467 H470 0.950 . S
C468 C467 1.387 . S
C468 C471 1.387 . S
H469 C465 0.950 . S
H470 C467 0.950 . S
C471 C462 1.390 1_655 S
C471 H464 0.950 . S
C471 C468 1.387 . S
C472 C473 1.387 . S
C472 H476 0.950 . S
C472 C481 1.390 1_565 S
C473 C472 1.387 . S
C473 C475 1.387 . S
H474 C481 0.950 . S
C475 C473 1.387 . S
C475 C477 1.390 1_565 S
C475 H479 0.950 . S
H476 C472 0.950 . S
C477 C475 1.390 1_545 S
C477 C478 1.387 . S
C477 H480 0.950 . S
C478 C477 1.387 . S
C478 C481 1.387 . S
H479 C475 0.950 . S
H480 C477 0.950 . S
C481 C472 1.390 1_545 S
C481 H474 0.950 . S
C481 C478 1.387 . S
C482 C483 1.387 . S
C482 H486 0.950 . S
C482 C491 1.390 1_655 S
C483 C482 1.387 . S
C483 C485 1.387 . S
H484 C491 0.950 . S
C485 C483 1.387 . S
C485 C487 1.390 1_655 S
C485 H489 0.950 . S
H486 C482 0.950 . S
C487 C485 1.390 1_455 S
C487 C488 1.387 . S
C487 H490 0.950 . S
C488 C487 1.387 . S
C488 C491 1.387 . S
H489 C485 0.950 . S
H490 C487 0.950 . S
C491 C482 1.390 1_455 S
C491 H484 0.950 . S
C491 C488 1.387 . S
C492 C493 1.387 1_545 S
C492 H496 0.950 . S
C492 C501 1.390 . S
C493 C492 1.387 1_565 S
C493 C495 1.387 . S
H494 C501 0.950 . S
C495 C493 1.387 . S
C495 C497 1.390 . S
C495 H499 0.950 . S
H496 C492 0.950 . S
C497 C495 1.390 . S
C497 C498 1.387 1_565 S
C497 H500 0.950 . S
C498 C497 1.387 1_545 S
C498 C501 1.387 . S
H499 C495 0.950 . S
H500 C497 0.950 . S
C501 C492 1.390 . S
C501 H494 0.950 . S
C501 C498 1.387 . S
C502 C503 1.387 . S
C502 H506 0.950 . S
C502 C511 1.390 . S
C503 C502 1.387 . S
C503 C505 1.387 1_455 S
H504 C511 0.950 . S
C505 C503 1.387 1_655 S
C505 C507 1.390 . S
C505 H509 0.950 . S
H506 C502 0.950 . S
C507 C505 1.390 . S
C507 C508 1.387 . S
C507 H510 0.950 . S
C508 C507 1.387 . S
C508 C511 1.387 1_655 S
H509 C505 0.950 . S
H510 C507 0.950 . S
C511 C502 1.390 . S
C511 H504 0.950 . S
C511 C508 1.387 1_455 S
C512 C513 1.387 1_554 S
C512 H516 0.950 . S
C512 C521 1.390 . S
C513 C512 1.387 1_556 S
C513 C515 1.387 . S
H514 C521 0.950 . S
C515 C513 1.387 . S
C515 C517 1.390 . S
C515 H519 0.950 . S
H516 C512 0.950 . S
C517 C515 1.390 . S
C517 C518 1.387 1_556 S
C517 H520 0.950 . S
C518 C517 1.387 1_554 S
C518 C521 1.387 . S
H519 C515 0.950 . S
H520 C517 0.950 . S
C521 C512 1.390 . S
C521 H514 0.950 . S
C521 C518 1.387 . S
C522 C523 1.387 1_556 S
C522 H526 0.950 . S
C522 C531 1.390 . S
C523 C522 1.387 1_554 S
C523 C525 1.387 . S
H524 C531 0.950 . S
C525 C523 1.387 . S
C525 C527 1.390 . S
C525 H529 0.950 . S
H526 C522 0.950 . S
C527 C525 1.390 . S
C527 C528 1.387 1_554 S
C527 H530 0.950 . S
C528 C527 1.387 1_556 S
C528 C531 1.387 . S
H529 C525 0.950 . S
H530 C527 0.950 . S
C531 C522 1.390 . S
C531 H524 0.950 . S
C531 C528 1.387 . S
C532 C533 1.387 . S
C532 H536 0.950 . S
C532 C541 1.390 . S
C533 C532 1.387 . S
C533 C535 1.387 1_556 S
H534 C541 0.950 . S
C535 C533 1.387 1_554 S
C535 C537 1.390 . S
C535 H539 0.950 . S
H536 C532 0.950 . S
C537 C535 1.390 . S
C537 C538 1.387 . S
C537 H540 0.950 . S
C538 C537 1.387 . S
C538 C541 1.387 1_554 S
H539 C535 0.950 . S
H540 C537 0.950 . S
C541 C532 1.390 . S
C541 H534 0.950 . S
C541 C538 1.387 1_556 S
C542 C543 1.387 . S
C542 H546 0.950 . S
C542 C551 1.390 . S
C543 C542 1.387 . S
C543 C545 1.387 1_554 S
H544 C551 0.950 . S
C545 C543 1.387 1_556 S
C545 C547 1.390 . S
C545 H549 0.950 . S
H546 C542 0.950 . S
C547 C545 1.390 . S
C547 C548 1.387 . S
C547 H550 0.950 . S
C548 C547 1.387 . S
C548 C551 1.387 1_556 S
H549 C545 0.950 . S
H550 C547 0.950 . S
C551 C542 1.390 . S
C551 H544 0.950 . S
C551 C548 1.387 1_554 S
C552 C553 1.387 . S
C552 H556 0.950 . S
C552 C561 1.390 . S
C553 C552 1.387 . S
C553 C555 1.387 . S
H554 C561 0.950 . S
C555 C553 1.387 . S
C555 C557 1.390 . S
C555 H559 0.950 . S
H556 C552 0.950 . S
C557 C555 1.390 . S
C557 C558 1.387 . S
C557 H560 0.950 . S
C558 C557 1.387 . S
C558 C561 1.387 . S
H559 C555 0.950 . S
H560 C557 0.950 . S
C561 C552 1.390 . S
C561 H554 0.950 . S
C561 C558 1.387 . S
C562 C563 1.387 . S
C562 H566 0.950 . S
C562 C571 1.390 . S
C563 C562 1.387 . S
C563 C565 1.387 . S
H564 C571 0.950 . S
C565 C563 1.387 . S
C565 C567 1.390 . S
C565 H569 0.950 . S
H566 C562 0.950 . S
C567 C565 1.390 . S
C567 C568 1.387 . S
C567 H570 0.950 . S
C568 C567 1.387 . S
C568 C571 1.387 . S
H569 C565 0.950 . S
H570 C567 0.950 . S
C571 C562 1.390 . S
C571 H564 0.950 . S
C571 C568 1.387 . S
C572 C573 1.387 . S
C572 H576 0.950 . S
C572 C581 1.390 . S
C573 C572 1.387 . S
C573 C575 1.387 . S
H574 C581 0.950 . S
C575 C573 1.387 . S
C575 C577 1.390 . S
C575 H579 0.950 . S
H576 C572 0.950 . S
C577 C575 1.390 . S
C577 C578 1.387 . S
C577 H580 0.950 . S
C578 C577 1.387 . S
C578 C581 1.387 . S
H579 C575 0.950 . S
H580 C577 0.950 . S
C581 C572 1.390 . S
C581 H574 0.950 . S
C581 C578 1.387 . S
C582 C583 1.387 . S
C582 H586 0.950 . S
C582 C591 1.390 . S
C583 C582 1.387 . S
C583 C585 1.387 . S
H584 C591 0.950 . S
C585 C583 1.387 . S
C585 C587 1.390 . S
C585 H589 0.950 . S
H586 C582 0.950 . S
C587 C585 1.390 . S
C587 C588 1.387 . S
C587 H590 0.950 . S
C588 C587 1.387 . S
C588 C591 1.387 . S
H589 C585 0.950 . S
H590 C587 0.950 . S
C591 C582 1.390 . S
C591 H584 0.950 . S
C591 C588 1.387 . S
C592 C593 1.387 . S
C592 H596 0.950 . S
C592 C601 1.390 . S
C593 C592 1.387 . S
C593 C595 1.387 . S
H594 C601 0.950 . S
C595 C593 1.387 . S
C595 C597 1.390 . S
C595 H599 0.950 . S
H596 C592 0.950 . S
C597 C595 1.390 . S
C597 C598 1.387 . S
C597 H600 0.950 . S
C598 C597 1.387 . S
C598 C601 1.387 . S
H599 C595 0.950 . S
H600 C597 0.950 . S
C601 C592 1.390 . S
C601 H594 0.950 . S
C601 C598 1.387 . S
C602 C603 1.387 . S
C602 H606 0.950 . S
C602 C611 1.390 . S
C603 C602 1.387 . S
C603 C605 1.387 . S
H604 C611 0.950 . S
C605 C603 1.387 . S
C605 C607 1.390 . S
C605 H609 0.950 . S
H606 C602 0.950 . S
C607 C605 1.390 . S
C607 C608 1.387 . S
C607 H610 0.950 . S
C608 C607 1.387 . S
C608 C611 1.387 . S
H609 C605 0.950 . S
H610 C607 0.950 . S
C611 C602 1.390 . S
C611 H604 0.950 . S
C611 C608 1.387 . S
C612 C613 1.387 . S
C612 H616 0.950 . S
C612 C621 1.390 . S
C613 C612 1.387 . S
C613 C615 1.387 . S
H614 C621 0.950 . S
C615 C613 1.387 . S
C615 C617 1.390 . S
C615 H619 0.950 . S
H616 C612 0.950 . S
C617 C615 1.390 . S
C617 C618 1.387 . S
C617 H620 0.950 . S
C618 C617 1.387 . S
C618 C621 1.387 . S
H619 C615 0.950 . S
H620 C617 0.950 . S
C621 C612 1.390 . S
C621 H614 0.950 . S
C621 C618 1.387 . S
C622 C623 1.387 . S
C622 H626 0.950 . S
C622 C631 1.390 . S
C623 C622 1.387 . S
C623 C625 1.387 . S
H624 C631 0.950 . S
C625 C623 1.387 . S
C625 C627 1.390 . S
C625 H629 0.950 . S
H626 C622 0.950 . S
C627 C625 1.390 . S
C627 C628 1.387 . S
C627 H630 0.950 . S
C628 C627 1.387 . S
C628 C631 1.387 . S
H629 C625 0.950 . S
H630 C627 0.950 . S
C631 C622 1.390 . S
C631 H624 0.950 . S
C631 C628 1.387 . S
C632 C633 1.387 . S
C632 H636 0.950 . S
C632 C641 1.390 . S
C633 C632 1.387 . S
C633 C635 1.387 . S
H634 C641 0.950 . S
C635 C633 1.387 . S
C635 C637 1.390 . S
C635 H639 0.950 . S
H636 C632 0.950 . S
C637 C635 1.390 . S
C637 C638 1.387 . S
C637 H640 0.950 . S
C638 C637 1.387 . S
C638 C641 1.387 . S
H639 C635 0.950 . S
H640 C637 0.950 . S
C641 C632 1.390 . S
C641 H634 0.950 . S
C641 C638 1.387 . S
C642 C643 1.387 . S
C642 H646 0.950 . S
C642 C651 1.390 . S
C643 C642 1.387 . S
C643 C645 1.387 . S
H644 C651 0.950 . S
C645 C643 1.387 . S
C645 C647 1.390 . S
C645 H649 0.950 . S
H646 C642 0.950 . S
C647 C645 1.390 . S
C647 C648 1.387 . S
C647 H650 0.950 . S
C648 C647 1.387 . S
C648 C651 1.387 . S
H649 C645 0.950 . S
H650 C647 0.950 . S
C651 C642 1.390 . S
C651 H644 0.950 . S
C651 C648 1.387 . S
C652 C653 1.387 . S
C652 H656 0.950 . S
C652 C661 1.390 . S
C653 C652 1.387 . S
C653 C655 1.387 . S
H654 C661 0.950 . S
C655 C653 1.387 . S
C655 C657 1.390 . S
C655 H659 0.950 . S
H656 C652 0.950 . S
C657 C655 1.390 . S
C657 C658 1.387 . S
C657 H660 0.950 . S
C658 C657 1.387 . S
C658 C661 1.387 . S
H659 C655 0.950 . S
H660 C657 0.950 . S
C661 C652 1.390 . S
C661 H654 0.950 . S
C661 C658 1.387 . S
C662 C663 1.387 . S
C662 H666 0.950 . S
C662 C671 1.390 . S
C663 C662 1.387 . S
C663 C665 1.387 . S
H664 C671 0.950 . S
C665 C663 1.387 . S
C665 C667 1.390 . S
C665 H669 0.950 . S
H666 C662 0.950 . S
C667 C665 1.390 . S
C667 C668 1.387 . S
C667 H670 0.950 . S
C668 C667 1.387 . S
C668 C671 1.387 . S
H669 C665 0.950 . S
H670 C667 0.950 . S
C671 C662 1.390 . S
C671 H664 0.950 . S
C671 C668 1.387 . S
C672 C673 1.387 . S
C672 H676 0.950 . S
C672 C681 1.390 . S
C673 C672 1.387 . S
C673 C675 1.387 . S
H674 C681 0.950 . S
C675 C673 1.387 . S
C675 C677 1.390 . S
C675 H679 0.950 . S
H676 C672 0.950 . S
C677 C675 1.390 . S
C677 C678 1.387 . S
C677 H680 0.950 . S
C678 C677 1.387 . S
C678 C681 1.387 . S
H679 C675 0.950 . S
H680 C677 0.950 . S
C681 C672 1.390 . S
C681 H674 0.950 . S
C681 C678 1.387 . S
C682 C683 1.387 . S
C682 H686 0.950 . S
C682 C691 1.390 . S
C683 C682 1.387 . S
C683 C685 1.387 . S
H684 C691 0.950 . S
C685 C683 1.387 . S
C685 C687 1.390 . S
C685 H689 0.950 . S
H686 C682 0.950 . S
C687 C685 1.390 . S
C687 C688 1.387 . S
C687 H690 0.950 . S
C688 C687 1.387 . S
C688 C691 1.387 . S
H689 C685 0.950 . S
H690 C687 0.950 . S
C691 C682 1.390 . S
C691 H684 0.950 . S
C691 C688 1.387 . S
C692 C693 1.387 . S
C692 H696 0.950 . S
C692 C701 1.390 . S
C693 C692 1.387 . S
C693 C695 1.387 . S
H694 C701 0.950 . S
C695 C693 1.387 . S
C695 C697 1.390 . S
C695 H699 0.950 . S
H696 C692 0.950 . S
C697 C695 1.390 . S
C697 C698 1.387 . S
C697 H700 0.950 . S
C698 C697 1.387 . S
C698 C701 1.387 . S
H699 C695 0.950 . S
H700 C697 0.950 . S
C701 C692 1.390 . S
C701 H694 0.950 . S
C701 C698 1.387 . S
C702 C703 1.387 . S
C702 H706 0.950 . S
C702 C711 1.390 . S
C703 C702 1.387 . S
C703 C705 1.387 . S
H704 C711 0.950 . S
C705 C703 1.387 . S
C705 C707 1.390 . S
C705 H709 0.950 . S
H706 C702 0.950 . S
C707 C705 1.390 . S
C707 C708 1.387 . S
C707 H710 0.950 . S
C708 C707 1.387 . S
C708 C711 1.387 . S
H709 C705 0.950 . S
H710 C707 0.950 . S
C711 C702 1.390 . S
C711 H704 0.950 . S
C711 C708 1.387 . S
C712 C713 1.387 . S
C712 H716 0.950 . S
C712 C721 1.390 . S
C713 C712 1.387 . S
C713 C715 1.387 . S
H714 C721 0.950 . S
C715 C713 1.387 . S
C715 C717 1.390 . S
C715 H719 0.950 . S
H716 C712 0.950 . S
C717 C715 1.390 . S
C717 C718 1.387 . S
C717 H720 0.950 . S
C718 C717 1.387 . S
C718 C721 1.387 . S
H719 C715 0.950 . S
H720 C717 0.950 . S
C721 C712 1.390 . S
C721 H714 0.950 . S
C721 C718 1.387 . S
C722 C723 1.387 . S
C722 H726 0.950 . S
C722 C731 1.390 . S
C723 C722 1.387 . S
C723 C725 1.387 . S
H724 C731 0.950 . S
C725 C723 1.387 . S
C725 C727 1.390 . S
C725 H729 0.950 . S
H726 C722 0.950 . S
C727 C725 1.390 . S
C727 C728 1.387 . S
C727 H730 0.950 . S
C728 C727 1.387 . S
C728 C731 1.387 . S
H729 C725 0.950 . S
H730 C727 0.950 . S
C731 C722 1.390 . S
C731 H724 0.950 . S
C731 C728 1.387 . S
C732 C733 1.387 . S
C732 H736 0.950 . S
C732 C741 1.390 . S
C733 C732 1.387 . S
C733 C735 1.387 . S
H734 C741 0.950 . S
C735 C733 1.387 . S
C735 C737 1.390 . S
C735 H739 0.950 . S
H736 C732 0.950 . S
C737 C735 1.390 . S
C737 C738 1.387 . S
C737 H740 0.950 . S
C738 C737 1.387 . S
C738 C741 1.387 . S
H739 C735 0.950 . S
H740 C737 0.950 . S
C741 C732 1.390 . S
C741 H734 0.950 . S
C741 C738 1.387 . S
C742 C743 1.387 . S
C742 H746 0.950 . S
C742 C751 1.390 . S
C743 C742 1.387 . S
C743 C745 1.387 . S
H744 C751 0.950 . S
C745 C743 1.387 . S
C745 C747 1.390 . S
C745 H749 0.950 . S
H746 C742 0.950 . S
C747 C745 1.390 . S
C747 C748 1.387 . S
C747 H750 0.950 . S
C748 C747 1.387 . S
C748 C751 1.387 . S
H749 C745 0.950 . S
H750 C747 0.950 . S
C751 C742 1.390 . S
C751 H744 0.950 . S
C751 C748 1.387 . S
C752 C753 1.387 . S
C752 H756 0.950 . S
C752 C761 1.390 . S
C753 C752 1.387 . S
C753 C755 1.387 . S
H754 C761 0.950 . S
C755 C753 1.387 . S
C755 C757 1.390 . S
C755 H759 0.950 . S
H756 C752 0.950 . S
C757 C755 1.390 . S
C757 C758 1.387 . S
C757 H760 0.950 . S
C758 C757 1.387 . S
C758 C761 1.387 . S
H759 C755 0.950 . S
H760 C757 0.950 . S
C761 C752 1.390 . S
C761 H754 0.950 . S
C761 C758 1.387 . S
C762 C763 1.387 . S
C762 H766 0.950 . S
C762 C771 1.390 . S
C763 C762 1.387 . S
C763 C765 1.387 . S
H764 C771 0.950 . S
C765 C763 1.387 . S
C765 C767 1.390 . S
C765 H769 0.950 . S
H766 C762 0.950 . S
C767 C765 1.390 . S
C767 C768 1.387 . S
C767 H770 0.950 . S
C768 C767 1.387 . S
C768 C771 1.387 . S
H769 C765 0.950 . S
H770 C767 0.950 . S
C771 C762 1.390 . S
C771 H764 0.950 . S
C771 C768 1.387 . S
C772 C773 1.387 . S
C772 H776 0.950 . S
C772 C781 1.390 . S
C773 C772 1.387 . S
C773 C775 1.387 . S
H774 C781 0.950 . S
C775 C773 1.387 . S
C775 C777 1.390 . S
C775 H779 0.950 . S
H776 C772 0.950 . S
C777 C775 1.390 . S
C777 C778 1.387 . S
C777 H780 0.950 . S
C778 C777 1.387 . S
C778 C781 1.387 . S
H779 C775 0.950 . S
H780 C777 0.950 . S
C781 C772 1.390 . S
C781 H774 0.950 . S
C781 C778 1.387 . S
C782 C783 1.387 . S
C782 H786 0.950 . S
C782 C791 1.390 . S
C783 C782 1.387 . S
C783 C785 1.387 . S
H784 C791 0.950 . S
C785 C783 1.387 . S
C785 C787 1.390 . S
C785 H789 0.950 . S
H786 C782 0.950 . S
C787 C785 1.390 . S
C787 C788 1.387 . S
C787 H790 0.950 . S
C788 C787 1.387 . S
C788 C791 1.387 . S
H789 C785 0.950 . S
H790 C787 0.950 . S
C791 C782 1.390 . S
C791 H784 0.950 . S
C791 C788 1.387 . S
C313 C290 1.660 . S
C318 C5 1.673 . S
C323 C17 1.655 . S
C328 C213 1.667 . S
C333 C309 1.659 . S
C338 C29 1.671 . S
C343 C278 1.667 . S
C348 C44 1.666 . S
C353 C239 1.665 . S
C358 C55 1.665 . S
C363 C257 1.659 . S
C368 C68 1.671 . S
C373 C265 1.666 . S
C378 C88 1.654 . S
C383 C94 1.670 . S
C388 C225 1.658 . S
C393 C173 1.664 . S
C398 C114 1.664 . S
C403 C185 1.665 . S
C408 C120 1.665 . S
C413 C134 1.665 . S
C418 C205 1.665 . S
C423 C146 1.666 . S
C428 C161 1.666 . S
C433 C95 1.658 . S
C438 C186 1.658 . S
C443 C200 1.669 . S
C448 C56 1.657 . S
C453 C69 1.657 . S
C458 C166 1.657 . S
C463 C172 1.668 . S
C468 C83 1.668 . S
C473 C133 1.671 . S
C478 C16 1.671 . S
C483 C30 1.655 . S
C488 C147 1.655 . S
C493 C49 1.658 . S
C498 C109 1.669 . S
C503 C10 1.661 . S
C508 C121 1.661 . S
C513 C270 1.658 . S
C518 C283 1.658 . S
C523 C289 1.666 . S
C528 C224 1.666 . S
C533 C244 1.660 . S
C538 C218 1.660 . S
C543 C304 1.668 . S
C548 C252 1.668 . S
C553 C4 1.147 . S
C558 C108 1.145 . S
C563 C122 1.160 . S
C568 C18 1.160 . S
C573 C36 1.151 . S
C578 C140 1.148 . S
C583 C43 1.158 . S
C588 C148 1.149 . S
C593 C62 1.156 . S
C598 C159 1.147 . S
C603 C75 1.152 . S
C608 C179 1.149 . S
C613 C187 1.160 . S
C618 C81 1.158 . S
C623 C199 1.145 . S
C628 C101 1.145 . S
C633 C107 1.153 . S
C638 C211 1.156 . S
C643 C127 1.152 . S
C648 C303 1.149 . S
C653 C276 1.155 . S
C658 C135 1.154 . S
C663 C296 1.151 . S
C668 C153 1.148 . S
C673 C231 1.150 . S
C678 C160 1.148 . S
C683 C237 1.159 . S
C688 C174 1.155 . S
C693 C192 1.149 . S
C698 C251 1.149 . S
C703 C198 1.156 . S
C708 C263 1.159 . S
C713 C3 1.146 . S
C718 C212 1.155 . S
C723 C226 1.161 . S
C728 C57 1.162 . S
C733 C238 1.157 . S
C738 C70 1.148 . S
C743 C250 1.153 . S
C748 C82 1.160 . S
C753 C264 1.154 . S
C758 C96 1.144 . S
C763 C277 1.155 . S
C768 C31 1.150 . S
C773 C42 1.162 . S
C778 C291 1.163 . S
C783 C302 1.152 . S
C788 C23 1.160 . S
