# Generated by pormake.
# Topology vmh, (6)-cn, num edge types: 1
# Building blocks:
#     Node 0, Type 0, BuildingBlock: IZENUY_clean_sbu_0, # of connection points: 6
#     Node 1, Type 0, BuildingBlock: IZENUY_clean_sbu_0, # of connection points: 6
#     Node 2, Type 0, BuildingBlock: IZENUY_clean_sbu_0, # of connection points: 6
#     Node 3, Type 0, BuildingBlock: IZENUY_clean_sbu_0, # of connection points: 6
#     Node 4, Type 0, BuildingBlock: IZENUY_clean_sbu_0, # of connection points: 6
#     Node 5, Type 0, BuildingBlock: IZENUY_clean_sbu_0, # of connection points: 6
#     Node 6, Type 0, BuildingBlock: IZENUY_clean_sbu_0, # of connection points: 6
#     Node 7, Type 0, BuildingBlock: IZENUY_clean_sbu_0, # of connection points: 6
#     Edge 8, Type (0, 0), BuildingBlock: KIFKEQ_clean_linker_1, # of connection points: 2
#     Edge 9, Type (0, 0), BuildingBlock: KIFKEQ_clean_linker_1, # of connection points: 2
#     Edge 10, Type (0, 0), BuildingBlock: KIFKEQ_clean_linker_1, # of connection points: 2
#     Edge 11, Type (0, 0), BuildingBlock: KIFKEQ_clean_linker_1, # of connection points: 2
#     Edge 12, Type (0, 0), BuildingBlock: KIFKEQ_clean_linker_1, # of connection points: 2
#     Edge 13, Type (0, 0), BuildingBlock: KIFKEQ_clean_linker_1, # of connection points: 2
#     Edge 14, Type (0, 0), BuildingBlock: KIFKEQ_clean_linker_1, # of connection points: 2
#     Edge 15, Type (0, 0), BuildingBlock: KIFKEQ_clean_linker_1, # of connection points: 2
#     Edge 16, Type (0, 0), BuildingBlock: KIFKEQ_clean_linker_1, # of connection points: 2
#     Edge 17, Type (0, 0), BuildingBlock: KIFKEQ_clean_linker_1, # of connection points: 2
#     Edge 18, Type (0, 0), BuildingBlock: KIFKEQ_clean_linker_1, # of connection points: 2
#     Edge 19, Type (0, 0), BuildingBlock: KIFKEQ_clean_linker_1, # of connection points: 2
#     Edge 20, Type (0, 0), BuildingBlock: KIFKEQ_clean_linker_1, # of connection points: 2
#     Edge 21, Type (0, 0), BuildingBlock: KIFKEQ_clean_linker_1, # of connection points: 2
#     Edge 22, Type (0, 0), BuildingBlock: KIFKEQ_clean_linker_1, # of connection points: 2
#     Edge 23, Type (0, 0), BuildingBlock: KIFKEQ_clean_linker_1, # of connection points: 2
#     Edge 24, Type (0, 0), BuildingBlock: KIFKEQ_clean_linker_1, # of connection points: 2
#     Edge 25, Type (0, 0), BuildingBlock: KIFKEQ_clean_linker_1, # of connection points: 2
#     Edge 26, Type (0, 0), BuildingBlock: KIFKEQ_clean_linker_1, # of connection points: 2
#     Edge 27, Type (0, 0), BuildingBlock: KIFKEQ_clean_linker_1, # of connection points: 2
#     Edge 28, Type (0, 0), BuildingBlock: KIFKEQ_clean_linker_1, # of connection points: 2
#     Edge 29, Type (0, 0), BuildingBlock: KIFKEQ_clean_linker_1, # of connection points: 2
#     Edge 30, Type (0, 0), BuildingBlock: KIFKEQ_clean_linker_1, # of connection points: 2
#     Edge 31, Type (0, 0), BuildingBlock: KIFKEQ_clean_linker_1, # of connection points: 2
# Relax obj value: 0.247
# Max RMSD: 0.263
# Mean RMSD: 0.263
data_MOF--net-vmh--node1-IZENUY_clean_sbu_0--edge1-KIFKEQ_clean_linker_1
_symmetry_space_group_name_H-M    P1
_symmetry_Int_Tables_number       1
_symmetry_cell_setting            triclinic
loop_
_symmetry_equiv_pos_as_xyz
'x, y, z'
_cell_length_a     28.35831
_cell_length_b     43.408372
_cell_length_c     29.442094
_cell_angle_alpha  89.967959
_cell_angle_beta   106.0221
_cell_angle_gamma 89.930906
loop_
_atom_site_label
_atom_site_type_symbol
_atom_site_fract_x
_atom_site_fract_y
_atom_site_fract_z
_atom_type_partial_charge
Fe0 Fe 0.2641 0.10335 0.09225 0.0
Fe1 Fe 0.27728 0.04353 0.04012 0.0
O2 O 0.29009 0.08321 0.0525 0.0
Fe3 Fe 0.3304 0.10211 0.02502 0.0
O4 O 0.37376 0.10938 0.08147 0.0
O5 O 0.32134 0.12534 0.11983 0.0
O6 O 0.28681 0.07561 0.13895 0.0
C7 C 0.2795 0.04706 0.13694 0.0
C8 C 0.26418 0.1501 0.02927 0.0
O9 O 0.26819 0.03332 0.09768 0.0
C10 C 0.27705 0.06862 0.95102 0.0
O11 O 0.20333 0.08324 0.07134 0.0
O12 O 0.21317 0.05149 0.01593 0.0
O13 O 0.3041 0.1402 0.0243 0.0
O14 O 0.23927 0.13419 0.05014 0.0
C15 C 0.37475 0.04503 0.04879 0.0
O16 O 0.28238 0.04601 0.97937 0.0
O17 O 0.28916 0.09546 0.96647 0.0
C18 C 0.18567 0.06482 0.03686 0.0
O19 O 0.34164 0.0331 0.06404 0.0
O20 O 0.36572 0.06782 0.02129 0.0
C21 C 0.36527 0.12155 0.11734 0.0
Fe22 Fe 0.76687 0.10491 0.42217 0.0
Fe23 Fe 0.75512 0.04515 0.47498 0.0
O24 O 0.74136 0.08471 0.46218 0.0
Fe25 Fe 0.70068 0.10339 0.48948 0.0
O26 O 0.65717 0.1104 0.43297 0.0
O27 O 0.70927 0.12661 0.39448 0.0
O28 O 0.74446 0.07701 0.37586 0.0
C29 C 0.75242 0.04854 0.37811 0.0
C30 C 0.76602 0.1517 0.48464 0.0
O31 O 0.7645 0.03494 0.41752 0.0
C32 C 0.75488 0.0703 0.56375 0.0
O33 O 0.82802 0.08513 0.44316 0.0
O34 O 0.81893 0.05366 0.4992 0.0
O35 O 0.72633 0.14163 0.48989 0.0
O36 O 0.79119 0.13588 0.46393 0.0
C37 C 0.65765 0.04598 0.46605 0.0
O38 O 0.74985 0.04763 0.53564 0.0
O39 O 0.74204 0.09703 0.54809 0.0
C40 C 0.84612 0.06707 0.47809 0.0
O41 O 0.69112 0.03423 0.45111 0.0
O42 O 0.66602 0.06886 0.49335 0.0
C43 C 0.66542 0.1226 0.397 0.0
Fe44 Fe 0.77061 0.98833 0.97949 0.0
Fe45 Fe 0.76842 0.92831 0.9227 0.0
O46 O 0.74768 0.95065 0.96387 0.0
Fe47 Fe 0.70293 0.93553 0.98927 0.0
O48 O 0.67652 0.97245 0.99686 0.0
O49 O 0.70992 1.00566 0.95904 0.0
O50 O 0.77938 0.99789 0.92125 0.0
C51 C 0.76254 0.98537 0.88119 0.0
C52 C 0.76368 0.96255 0.06655 0.0
O53 O 0.74986 0.95754 0.87786 0.0
C54 C 0.75873 0.8824 0.98301 0.0
O55 O 0.83228 0.97405 1.00151 0.0
O56 O 0.8324 0.9438 0.94157 0.0
O57 O 0.74471 0.93746 0.04847 0.0
O58 O 0.7665 0.98543 0.04051 0.0
C59 C 0.66475 0.91935 0.89643 0.0
O60 O 0.78791 0.89625 0.96429 0.0
O61 O 0.72011 0.8955 0.98613 0.0
C62 C 0.85527 0.95976 0.97723 0.0
O63 O 0.70742 0.91052 0.89554 0.0
O64 O 0.6587 0.93337 0.93194 0.0
C65 C 0.67505 0.9975 0.97505 0.0
Fe66 Fe 0.26077 0.92694 0.59292 0.0
Fe67 Fe 0.32358 0.9309 0.52313 0.0
O68 O 0.28134 0.94781 0.55022 0.0
Fe69 Fe 0.26078 0.98606 0.53495 0.0
O70 O 0.25365 0.99648 0.59352 0.0
O71 O 0.2828 0.95617 0.63702 0.0
O72 O 0.32061 0.9075 0.61877 0.0
C73 C 0.36334 0.91468 0.61615 0.0
C74 C 0.17512 0.96001 0.53919 0.0
O75 O 0.36912 0.92739 0.57953 0.0
C76 C 0.2639 0.95983 0.44703 0.0
O77 O 0.2379 0.895 0.55253 0.0
O78 O 0.30299 0.89148 0.52618 0.0
O79 O 0.19816 0.97341 0.51409 0.0
O80 O 0.19783 0.9442 0.5752 0.0
C81 C 0.35646 0.99196 0.53769 0.0
O82 O 0.28073 0.93412 0.46455 0.0
O83 O 0.26347 0.98279 0.47357 0.0
C84 C 0.26418 0.88002 0.53185 0.0
O85 O 0.35264 0.96691 0.51545 0.0
O86 O 0.32272 1.00143 0.55438 0.0
C87 C 0.27114 0.98417 0.63364 0.0
Fe88 Fe 0.76194 0.60571 0.09129 0.0
Fe89 Fe 0.77896 0.54549 0.04173 0.0
O90 O 0.78969 0.5855 0.05299 0.0
Fe91 Fe 0.83009 0.60484 0.02596 0.0
O92 O 0.87254 0.61242 0.08278 0.0
O93 O 0.81854 0.62812 0.11957 0.0
O94 O 0.78428 0.57879 0.13867 0.0
C95 C 0.77935 0.5501 0.13787 0.0
C96 C 0.76226 0.65211 0.02805 0.0
O97 O 0.77048 0.53538 0.09954 0.0
C98 C 0.77774 0.57064 0.95247 0.0
O99 O 0.70194 0.58493 0.06985 0.0
O100 O 0.71435 0.55179 0.01722 0.0
O101 O 0.80305 0.64272 0.02473 0.0
O102 O 0.73701 0.63595 0.04817 0.0
C103 C 0.87659 0.54879 0.05089 0.0
O104 O 0.78392 0.54807 0.981 0.0
O105 O 0.78952 0.59766 0.96739 0.0
C106 C 0.68576 0.56537 0.03665 0.0
O107 O 0.84385 0.53635 0.06609 0.0
O108 O 0.86642 0.57106 0.02257 0.0
C109 C 0.8629 0.62405 0.11849 0.0
Fe110 Fe 0.26727 0.60287 0.42392 0.0
Fe111 Fe 0.26911 0.54306 0.48143 0.0
O112 O 0.24677 0.58091 0.46569 0.0
Fe113 Fe 0.20277 0.59661 0.49162 0.0
O114 O 0.15787 0.59874 0.43457 0.0
O115 O 0.2062 0.62102 0.39719 0.0
O116 O 0.2481 0.57354 0.37929 0.0
C117 C 0.2606 0.54563 0.38286 0.0
C118 C 0.25889 0.64924 0.48408 0.0
O119 O 0.27676 0.53306 0.423 0.0
C120 C 0.26437 0.56957 0.56869 0.0
O121 O 0.33118 0.587 0.44234 0.0
O122 O 0.33127 0.55669 0.50235 0.0
O123 O 0.22025 0.63646 0.48767 0.0
O124 O 0.28758 0.63502 0.46515 0.0
C125 C 0.17367 0.53491 0.47862 0.0
O126 O 0.2662 0.54647 0.54276 0.0
O127 O 0.24528 0.59468 0.55057 0.0
C128 C 0.35413 0.57068 0.47765 0.0
O129 O 0.20796 0.52626 0.46209 0.0
O130 O 0.17605 0.56005 0.50025 0.0
C131 C 0.16354 0.61259 0.39873 0.0
Fe132 Fe 0.27267 0.48688 0.9821 0.0
Fe133 Fe 0.26954 0.42695 0.92487 0.0
O134 O 0.24966 0.4492 0.96669 0.0
Fe135 Fe 0.20571 0.43406 0.99308 0.0
O136 O 0.17958 0.47099 1.00129 0.0
O137 O 0.21186 0.50409 0.96235 0.0
O138 O 0.28064 0.49652 0.92363 0.0
C139 C 0.26372 0.48409 0.88352 0.0
C140 C 0.26765 0.46099 0.06966 0.0
O141 O 0.25058 0.45632 0.88011 0.0
C142 C 0.26078 0.38083 0.98534 0.0
O143 O 0.33442 0.47261 1.00328 0.0
O144 O 0.33368 0.44237 0.94305 0.0
O145 O 0.24855 0.4359 0.05177 0.0
O146 O 0.26955 0.48395 0.04346 0.0
C147 C 0.16572 0.41787 0.90054 0.0
O148 O 0.2895 0.39473 0.96613 0.0
O149 O 0.22261 0.39401 0.98948 0.0
C150 C 0.35698 0.45837 0.97855 0.0
O151 O 0.20816 0.40923 0.89855 0.0
O152 O 0.16053 0.43196 0.93633 0.0
C153 C 0.17737 0.49584 0.97882 0.0
Fe154 Fe 0.76304 0.42707 0.59217 0.0
Fe155 Fe 0.8345 0.43025 0.53037 0.0
O156 O 0.79152 0.44826 0.55543 0.0
Fe157 Fe 0.77876 0.48804 0.54375 0.0
O158 O 0.76599 0.49715 0.59997 0.0
O159 O 0.78266 0.45418 0.64007 0.0
O160 O 0.82007 0.40537 0.62213 0.0
C161 C 0.86467 0.41003 0.62239 0.0
C162 C 0.68618 0.4663 0.53508 0.0
O163 O 0.87513 0.4227 0.58788 0.0
C164 C 0.78606 0.46451 0.45584 0.0
O165 O 0.74101 0.39659 0.54824 0.0
O166 O 0.80903 0.39206 0.52753 0.0
O167 O 0.71504 0.48008 0.51612 0.0
O168 O 0.7024 0.44704 0.56883 0.0
C169 C 0.87737 0.487 0.55805 0.0
O170 O 0.79586 0.43734 0.47081 0.0
O171 O 0.78825 0.48658 0.48459 0.0
C172 C 0.76832 0.38145 0.52893 0.0
O173 O 0.86988 0.46482 0.52952 0.0
O174 O 0.84261 0.49858 0.5713 0.0
C175 C 0.77579 0.48277 0.63867 0.0
H176 H 0.23351 0.01746 0.90591 0.0
H177 H 0.29703 0.10405 0.8807 0.0
H178 H 0.22975 1.00087 0.82617 0.0
H179 H 0.29318 0.08713 0.80011 0.0
H180 H 0.23647 0.04258 0.64377 0.0
H181 H 0.23253 0.06734 0.7178 0.0
H182 H 0.30485 0.98852 0.79638 0.0
H183 H 0.30926 0.96407 0.72375 0.0
C184 C 0.24603 0.03316 0.88308 0.0
C185 C 0.26644 0.06183 0.89993 0.0
C186 C 0.24391 0.02362 0.83743 0.0
C187 C 0.26209 0.04248 0.80741 0.0
C188 C 0.27905 0.07215 0.8227 0.0
C189 C 0.28123 0.08179 0.86875 0.0
C190 C 0.25198 0.03076 0.67695 0.0
C191 C 0.27259 1.00116 0.6777 0.0
C192 C 0.2497 0.04493 0.71918 0.0
C193 C 0.26754 0.02954 0.76257 0.0
C194 C 0.28985 1.00061 0.76331 0.0
C195 C 0.29249 0.98666 0.72156 0.0
H196 H 0.79497 0.04433 0.87097 0.0
H197 H 0.72904 0.96418 0.79121 0.0
H198 H 0.79916 0.06927 0.79712 0.0
H199 H 0.73361 0.98883 0.71881 0.0
H200 H 0.73305 0.10498 0.63383 0.0
H201 H 0.73831 0.08783 0.71465 0.0
H202 H 0.80749 1.00343 0.68925 0.0
H203 H 0.80221 0.02024 0.60923 0.0
C204 C 0.78115 0.03214 0.83788 0.0
C205 C 0.76221 1.0021 0.83716 0.0
C206 C 0.78354 0.04642 0.79575 0.0
C207 C 0.76753 0.03071 0.7525 0.0
C208 C 0.7472 1.00121 0.75178 0.0
C209 C 0.74444 0.98714 0.79342 0.0
C210 C 0.75041 0.08312 0.64599 0.0
C211 C 0.76633 0.06366 0.61493 0.0
C212 C 0.75343 0.07335 0.69217 0.0
C213 C 0.7724 0.04407 0.7077 0.0
C214 C 0.79179 0.02584 0.6778 0.0
C215 C 0.78879 0.0355 0.632 0.0
H216 H 0.73434 0.07239 0.28939 0.0
H217 H 0.77254 0.98723 0.3673 0.0
H218 H 0.74267 0.04718 0.21853 0.0
H219 H 0.78064 0.96185 0.29529 0.0
H220 H 0.72722 0.93053 0.13031 0.0
H221 H 0.72635 0.94816 0.20926 0.0
H222 H 0.81699 0.02566 0.1964 0.0
H223 H 0.81796 1.00832 0.11816 0.0
C224 C 0.74429 0.04822 0.29146 0.0
C225 C 0.75324 0.03194 0.3343 0.0
C226 C 0.74934 0.03383 0.2508 0.0
C227 C 0.76315 1.00272 0.25167 0.0
C228 C 0.77017 0.98592 0.29381 0.0
C229 C 0.76553 1.00046 0.33492 0.0
C230 C 0.74806 0.95084 0.14494 0.0
C231 C 0.77201 0.96833 0.1177 0.0
C232 C 0.74745 0.96093 0.19004 0.0
C233 C 0.77069 0.98862 0.20835 0.0
C234 C 0.79787 1.0046 0.18266 0.0
C235 C 0.79857 0.99457 0.13792 0.0
H236 H 0.29706 0.07082 0.22572 0.0
H237 H 0.25915 0.98583 0.14764 0.0
H238 H 0.28791 0.04558 0.29634 0.0
H239 H 0.25007 0.96046 0.21925 0.0
H240 H 0.29929 0.92755 0.38276 0.0
H241 H 0.30172 0.94576 0.30451 0.0
H242 H 0.21433 0.02475 0.31875 0.0
H243 H 0.21192 1.00683 0.39633 0.0
C244 C 0.28701 0.04668 0.22357 0.0
C245 C 0.2784 0.03047 0.18074 0.0
C246 C 0.28146 0.03227 0.26408 0.0
C247 C 0.2674 1.00121 0.26306 0.0
C248 C 0.26074 0.98448 0.22092 0.0
C249 C 0.26594 0.99903 0.18001 0.0
C250 C 0.27945 0.94833 0.36854 0.0
C251 C 0.25599 0.966 0.39599 0.0
C252 C 0.281 0.95878 0.32385 0.0
C253 C 0.25919 0.98703 0.30614 0.0
C254 C 0.23246 1.00327 0.33203 0.0
C255 C 0.23085 0.99289 0.37636 0.0
H256 H 0.75358 0.54352 0.6499 0.0
H257 H 0.79614 0.45855 0.72726 0.0
H258 H 0.7474 0.56863 0.7226 0.0
H259 H 0.79025 0.48357 0.79907 0.0
H260 H 0.80502 0.60289 0.88341 0.0
H261 H 0.80138 0.58418 0.80392 0.0
H262 H 0.72213 0.50372 0.82808 0.0
H263 H 0.7264 0.52202 0.90718 0.0
C264 C 0.76186 0.53027 0.68232 0.0
C265 C 0.7749 0.49894 0.68266 0.0
C266 C 0.75834 0.54466 0.72385 0.0
C267 C 0.76749 0.5279 0.76622 0.0
C268 C 0.78179 0.49688 0.76668 0.0
C269 C 0.78547 0.4826 0.72549 0.0
C270 C 0.78581 0.58161 0.87118 0.0
C271 C 0.76675 0.56359 0.90164 0.0
C272 C 0.78378 0.5709 0.82577 0.0
C273 C 0.7625 0.54216 0.81036 0.0
C274 C 0.7399 0.52556 0.83952 0.0
C275 C 0.74214 0.53611 0.88469 0.0
H276 H 0.23071 0.602 0.6341 0.0
H277 H 0.32051 0.52414 0.61953 0.0
H278 H 0.23351 0.58485 0.71434 0.0
H279 H 0.32299 0.50723 0.6989 0.0
H280 H 0.28788 0.54484 0.87336 0.0
H281 H 0.29371 0.57048 0.80059 0.0
H282 H 0.24744 0.48656 0.72265 0.0
H283 H 0.24111 0.46118 0.79408 0.0
C284 C 0.25213 0.58179 0.64841 0.0
C285 C 0.27471 0.56413 0.62019 0.0
C286 C 0.25364 0.57199 0.69426 0.0
C287 C 0.27766 0.54441 0.7123 0.0
C288 C 0.30346 0.52827 0.68547 0.0
C289 C 0.3021 0.53803 0.64005 0.0
C290 C 0.27865 0.53199 0.84059 0.0
C291 C 0.26439 0.50086 0.83973 0.0
C292 C 0.28194 0.54668 0.79905 0.0
C293 C 0.27176 0.53032 0.75628 0.0
C294 C 0.25637 0.49956 0.75533 0.0
C295 C 0.25252 0.48507 0.79636 0.0
H296 H 0.28737 0.48529 0.37342 0.0
H297 H 0.23656 0.5682 0.29313 0.0
H298 H 0.29505 0.46 0.30108 0.0
H299 H 0.24472 0.54316 0.22214 0.0
H300 H 0.23537 0.4277 0.13507 0.0
H301 H 0.23654 0.44467 0.21491 0.0
H302 H 0.32178 0.52424 0.19929 0.0
H303 H 0.32089 0.50753 0.12025 0.0
C304 C 0.27757 0.49803 0.3405 0.0
C305 C 0.26176 0.52888 0.33925 0.0
C306 C 0.28197 0.48355 0.29923 0.0
C307 C 0.27128 0.49985 0.25635 0.0
C308 C 0.25413 0.53026 0.25495 0.0
C309 C 0.24923 0.54454 0.29572 0.0
C310 C 0.25551 0.44834 0.14924 0.0
C311 C 0.27731 0.46658 0.12103 0.0
C312 C 0.25611 0.45803 0.19486 0.0
C313 C 0.2784 0.48605 0.2127 0.0
C314 C 0.30354 0.50283 0.18596 0.0
C315 C 0.3031 0.4932 0.14074 0.0
H316 H 0.78326 0.48771 0.15708 0.0
H317 H 0.77632 0.57704 0.21991 0.0
H318 H 0.78648 0.46313 0.23315 0.0
H319 H 0.77789 0.55282 0.29399 0.0
H320 H 0.83869 0.50996 0.43233 0.0
H321 H 0.83942 0.52677 0.3541 0.0
H322 H 0.73781 0.45421 0.29196 0.0
H323 H 0.73892 0.43635 0.37178 0.0
C324 C 0.78225 0.50203 0.1869 0.0
C325 C 0.78035 0.53433 0.18264 0.0
C326 C 0.7838 0.48798 0.23025 0.0
C327 C 0.78331 0.50608 0.26973 0.0
C328 C 0.77978 0.53823 0.26469 0.0
C329 C 0.7787 0.55214 0.22198 0.0
C330 C 0.81656 0.4975 0.402 0.0
C331 C 0.78776 0.47237 0.40779 0.0
C332 C 0.81693 0.50714 0.35717 0.0
C333 C 0.78764 0.49234 0.31682 0.0
C334 C 0.76062 0.4661 0.32248 0.0
C335 C 0.76097 0.45601 0.3679 0.0
H336 H 0.45908 0.06639 0.10419 0.0
H337 H 0.39715 0.99491 1.00439 0.0
H338 H 0.53576 0.06314 0.08299 0.0
H339 H 0.47522 0.98942 0.98537 0.0
H340 H 0.58708 1.00863 0.91321 0.0
H341 H 0.51417 0.01885 0.93941 0.0
H342 H 0.60672 0.0386 0.07986 0.0
H343 H 0.67877 0.03059 0.05225 0.0
C344 C 0.46315 0.0487 0.07967 0.0
C345 C 0.42271 0.03095 0.05582 0.0
C346 C 0.50689 0.047 0.06704 0.0
C347 C 0.51107 0.02688 0.03099 0.0
C348 C 0.47247 1.00618 0.01175 0.0
C349 C 0.42831 1.00844 0.02376 0.0
C350 C 0.59149 0.01726 0.94869 0.0
C351 C 0.63811 0.0192 0.98068 0.0
C352 C 0.54988 0.02201 0.96431 0.0
C353 C 0.55458 0.02809 0.01236 0.0
C354 C 0.6015 0.03375 0.04274 0.0
C355 C 0.64294 0.02971 0.02676 0.0
H356 H 0.35378 0.02452 0.46032 0.0
H357 H 0.44553 1.00097 0.59879 0.0
H358 H 0.42589 0.03403 0.43333 0.0
H359 H 0.51846 1.01249 0.57319 0.0
H360 H 0.63719 0.99394 0.50744 0.0
H361 H 0.5591 0.98549 0.52543 0.0
H362 H 0.49561 0.06153 0.43352 0.0
H363 H 0.5724 0.06797 0.41343 0.0
C364 C 0.38961 0.02345 0.48579 0.0
C365 C 0.39455 1.01248 0.53165 0.0
C366 C 0.43103 0.02839 0.4702 0.0
C367 C 0.47801 0.02298 0.50065 0.0
C368 C 0.48271 1.01567 0.54832 0.0
C369 C 0.44114 1.0101 0.56359 0.0
C370 C 0.60547 1.00744 0.48908 0.0
C371 C 0.61011 0.03145 0.45895 0.0
C372 C 0.56128 1.00339 0.50047 0.0
C373 C 0.52173 0.02372 0.48247 0.0
C374 C 0.52522 0.04557 0.44835 0.0
C375 C 0.56902 0.04914 0.4364 0.0
H376 H 0.96036 0.57508 0.0988 0.0
H377 H 0.90099 0.49557 0.01506 0.0
H378 H 0.03714 0.56907 0.07838 0.0
H379 H 0.97899 0.48814 0.99629 0.0
H380 H 0.08809 0.50354 0.9179 0.0
H381 H 1.01558 0.51522 0.94408 0.0
H382 H 0.10915 0.54174 0.08099 0.0
H383 H 0.18097 0.53161 0.05349 0.0
C384 C 0.96501 0.55523 0.07819 0.0
C385 C 0.92533 0.53567 0.05862 0.0
C386 C 1.00875 0.55197 0.06596 0.0
C387 C 1.01353 0.5288 0.03429 0.0
C388 C 0.97567 0.50696 0.01934 0.0
C389 C 0.93161 0.51052 0.03122 0.0
C390 C 0.09278 0.5138 0.95242 0.0
C391 C 0.13965 0.51723 0.98352 0.0
C392 C 0.05147 0.51948 0.96808 0.0
C393 C 0.0567 0.52816 0.01527 0.0
C394 C 0.10374 0.53491 0.04454 0.0
C395 C 0.14493 0.52968 0.02857 0.0
H396 H 0.17932 0.50049 0.5551 0.0
H397 H 0.08334 0.52648 0.41976 0.0
H398 H 0.10906 0.49291 0.58582 0.0
H399 H 1.01222 0.51703 0.4491 0.0
H400 H 0.90005 0.53973 0.52002 0.0
H401 H 0.97738 0.54593 0.49982 0.0
H402 H 0.03758 0.46811 0.58906 0.0
H403 H 0.96155 0.46356 0.61108 0.0
C404 C 0.14282 0.50241 0.53099 0.0
C405 C 0.1364 0.51375 0.48506 0.0
C406 C 0.10248 0.49867 0.54881 0.0
C407 C 0.05505 0.5056 0.52049 0.0
C408 C 0.04846 0.51281 0.47248 0.0
C409 C 0.08897 0.51713 0.45501 0.0
C410 C 0.93107 0.52542 0.53761 0.0
C411 C 0.92535 0.50135 0.56724 0.0
C412 C 0.97476 0.52815 0.52483 0.0
C413 C 1.01287 0.50655 0.5411 0.0
C414 C 1.00901 0.48496 0.57543 0.0
C415 C 0.96568 0.48263 0.58871 0.0
H416 H 0.11662 0.0706 0.08738 0.0
H417 H 0.13743 0.03238 0.95891 0.0
H418 H 0.03758 0.04409 0.07173 0.0
H419 H 0.06121 1.00465 0.94495 0.0
H420 H 0.90134 0.97492 0.9102 0.0
H421 H 0.97763 1.0036 0.92254 0.0
H422 H 1.00217 0.99602 0.0738 0.0
H423 H 0.92438 0.96891 0.06085 0.0
C424 C 0.10418 0.05692 0.05558 0.0
C425 C 0.13378 0.05369 0.02464 0.0
C426 C 0.05914 0.04115 0.0469 0.0
C427 C 0.04271 0.02154 1.00728 0.0
C428 C 0.07162 0.01955 0.97554 0.0
C429 C 0.11596 0.03549 0.98383 0.0
C430 C 0.92385 0.97858 0.94603 0.0
C431 C 0.90719 0.96915 0.98451 0.0
C432 C 0.96766 0.99534 0.95331 0.0
C433 C 0.99651 1.00273 0.99938 0.0
C434 C 0.98078 0.99175 0.03781 0.0
C435 C 0.93658 0.97553 0.03045 0.0
H436 H 0.89542 0.03663 0.55772 0.0
H437 H 0.91441 0.07157 0.42657 0.0
H438 H 0.97158 1.00866 0.57234 0.0
H439 H 0.99349 0.04489 0.44283 0.0
H440 H 0.1054 0.96849 0.45583 0.0
H441 H 0.0282 0.99643 0.4426 0.0
H442 H 0.05507 1.00713 0.59369 0.0
H443 H 0.13071 0.97759 0.60639 0.0
C444 C 0.91653 0.039 0.53235 0.0
C445 C 0.89819 0.05628 0.49059 0.0
C446 C 0.96083 0.02293 0.54101 0.0
C447 C 0.98916 0.02391 0.50868 0.0
C448 C 0.97233 0.04274 0.46814 0.0
C449 C 0.9273 0.05861 0.4591 0.0
C450 C 0.09383 0.976 0.48618 0.0
C451 C 0.12362 0.97023 0.53218 0.0
C452 C 0.04999 0.99269 0.47863 0.0
C453 C 0.03509 1.00475 0.51689 0.0
C454 C 0.06439 0.99803 0.56307 0.0
C455 C 0.10782 0.98079 0.57058 0.0
H456 H 0.40314 0.4726 0.91096 0.0
H457 H 0.42616 0.46837 0.06176 0.0
H458 H 0.47935 0.50144 0.92261 0.0
H459 H 0.50351 0.49585 0.07397 0.0
H460 H 0.61522 0.57185 0.08523 0.0
H461 H 0.53679 0.54463 0.06974 0.0
H462 H 0.56372 0.5027 0.9461 0.0
H463 H 0.63967 0.53092 0.96002 0.0
C464 C 0.42557 0.47671 0.94668 0.0
C465 C 0.4089 0.46774 0.98541 0.0
C466 C 0.46929 0.49358 0.95355 0.0
C467 C 0.49789 0.50163 0.99941 0.0
C468 C 0.48224 0.49106 0.0381 0.0
C469 C 0.43828 0.47465 0.03117 0.0
C470 C 0.60369 0.55743 0.05413 0.0
C471 C 0.63415 0.55366 0.02411 0.0
C472 C 0.559 0.54129 0.04558 0.0
C473 C 0.5437 0.52079 1.00694 0.0
C474 C 0.57338 0.51824 0.97596 0.0
C475 C 0.6175 0.53449 0.98421 0.0
H476 H 0.61417 0.45717 0.58117 0.0
H477 H 0.64084 0.50297 0.46043 0.0
H478 H 0.53503 0.48357 0.5659 0.0
H479 H 0.56394 0.53033 0.44676 0.0
H480 H 0.40231 0.55906 0.41044 0.0
H481 H 0.47941 0.53107 0.42163 0.0
H482 H 0.50006 0.53144 0.57273 0.0
H483 H 0.42199 0.55809 0.56092 0.0
C484 C 0.60302 0.47252 0.55107 0.0
C485 C 0.63432 0.47782 0.52225 0.0
C486 C 0.55785 0.48817 0.54267 0.0
C487 C 0.54281 0.50975 0.50539 0.0
C488 C 0.57338 0.51391 0.47554 0.0
C489 C 0.61804 0.49815 0.48364 0.0
C490 C 0.42407 0.55392 0.44609 0.0
C491 C 0.4062 0.5612 0.48479 0.0
C492 C 0.46833 0.53756 0.45266 0.0
C493 C 0.49631 0.52833 0.49821 0.0
C494 C 0.47935 0.53715 0.53699 0.0
C495 C 0.43489 0.55307 0.53034 0.0
H496 H 0.46195 0.12024 0.11885 0.0
H497 H 0.36749 0.14312 0.20647 0.0
H498 H 0.53309 0.12539 0.18562 0.0
H499 H 0.43958 0.1513 0.27326 0.0
H500 H 0.56879 0.12127 0.39567 0.0
H501 H 0.49754 0.1259 0.32882 0.0
H502 H 0.59069 0.1513 0.24062 0.0
H503 H 0.66289 0.14364 0.30752 0.0
C504 C 0.45626 0.12684 0.15239 0.0
C505 C 0.40851 0.13038 0.15727 0.0
C506 C 0.49764 0.13037 0.19098 0.0
C507 C 0.49303 0.13846 0.23585 0.0
C508 C 0.44521 0.1441 0.23997 0.0
C509 C 0.40354 0.13983 0.20136 0.0
C510 C 0.57436 0.12764 0.36198 0.0
C511 C 0.62206 0.13118 0.35699 0.0
C512 C 0.53293 0.13087 0.32335 0.0
C513 C 0.53742 0.13864 0.2783 0.0
C514 C 0.58516 0.14432 0.27405 0.0
C515 C 0.62689 0.14036 0.31271 0.0
H516 H 0.66039 0.89383 0.80947 0.0
H517 H 0.56872 0.93094 0.8916 0.0
H518 H 0.58784 0.88739 0.74211 0.0
H519 H 0.497 0.92512 0.82454 0.0
H520 H 0.36805 0.89406 0.70597 0.0
H521 H 0.44081 0.89014 0.77364 0.0
H522 H 0.53156 0.91968 0.6857 0.0
H523 H 0.45953 0.92295 0.61831 0.0
C524 C 0.62485 0.90036 0.81338 0.0
C525 C 0.62068 0.91293 0.85613 0.0
C526 C 0.5832 0.89686 0.77463 0.0
C527 C 0.53629 0.90577 0.77765 0.0
C528 C 0.53215 0.91754 0.82086 0.0
C529 C 0.57361 0.92109 0.8594 0.0
C530 C 0.40362 0.89921 0.70091 0.0
C531 C 0.40765 0.90886 0.65652 0.0
C532 C 0.4454 0.89721 0.73984 0.0
C533 C 0.49231 0.90474 0.7354 0.0
C534 C 0.49638 0.9133 0.69058 0.0
C535 C 0.45476 0.91536 0.65181 0.0
H536 H 0.959 0.63087 0.12017 0.0
H537 H 0.86349 0.63232 0.21169 0.0
H538 H 0.03021 0.63171 0.18827 0.0
H539 H 0.93531 0.63473 0.28056 0.0
H540 H 0.06962 0.59302 0.38864 0.0
H541 H 0.9973 0.60128 0.32309 0.0
H542 H 0.08247 0.65697 0.25314 0.0
H543 H 0.15576 0.6477 0.31856 0.0
C544 C 0.95309 0.63202 0.15494 0.0
C545 C 0.90522 0.63115 0.16024 0.0
C546 C 0.99427 0.63278 0.19427 0.0
C547 C 0.98909 0.63296 0.24044 0.0
C548 C 0.94107 0.63395 0.24573 0.0
C549 C 0.89968 0.63302 0.20616 0.0
C550 C 0.0731 0.60726 0.35951 0.0
C551 C 0.11893 0.61962 0.3591 0.0
C552 C 0.03118 0.61224 0.32182 0.0
C553 C 0.03343 0.6299 0.28238 0.0
C554 C 0.07911 0.64286 0.28241 0.0
C555 C 0.12128 0.63769 0.32013 0.0
H556 H 0.86466 0.4 0.71518 0.0
H557 H 0.96042 0.40298 0.62391 0.0
H558 H 0.93654 0.39617 0.78402 0.0
H559 H 0.03146 0.40053 0.69185 0.0
H560 H 0.15689 0.38264 0.82047 0.0
H561 H 0.08298 0.37363 0.7557 0.0
H562 H 0.99913 0.42947 0.82696 0.0
H563 H 0.07206 0.4375 0.89185 0.0
C564 C 0.90087 0.39925 0.70969 0.0
C565 C 0.90656 0.40198 0.66393 0.0
C566 C 0.94224 0.39748 0.7492 0.0
C567 C 0.99026 0.39841 0.74388 0.0
C568 C 0.9955 0.39941 0.6978 0.0
C569 C 0.95442 0.40107 0.65859 0.0
C570 C 0.12257 0.39272 0.82247 0.0
C571 C 0.12075 0.41084 0.86151 0.0
C572 C 0.08006 0.38768 0.78518 0.0
C573 C 0.03464 0.40084 0.78571 0.0
C574 C 0.03286 0.41841 0.82532 0.0
C575 C 0.07512 0.42326 0.86259 0.0
H576 H 0.27753 0.18227 0.95495 0.0
H577 H 0.23108 0.19249 0.08178 0.0
H578 H 0.27857 0.23805 0.94611 0.0
H579 H 0.2345 0.24834 0.07474 0.0
H580 H 0.2042 0.34717 0.02756 0.0
H581 H 0.20038 0.29212 0.03509 0.0
H582 H 0.32408 0.28208 0.9772 0.0
H583 H 0.32592 0.33803 0.96678 0.0
C584 C 0.26669 0.19657 0.98052 0.0
C585 C 0.2535 0.18307 0.01866 0.0
C586 C 0.26824 0.22859 0.97602 0.0
C587 C 0.2575 0.24802 0.01007 0.0
C588 C 0.2425 0.23435 0.04737 0.0
C589 C 0.24013 0.20225 0.05137 0.0
C590 C 0.23096 0.33342 0.01649 0.0
C591 C 0.26519 0.34725 0.99605 0.0
C592 C 0.22891 0.30156 0.02124 0.0
C593 C 0.26162 0.28227 1.00657 0.0
C594 C 0.29744 0.29608 0.98796 0.0
C595 C 0.29907 0.32822 0.98256 0.0
H596 H 0.78772 0.19396 0.42541 0.0
H597 H 0.75999 0.18419 0.56142 0.0
H598 H 0.78028 0.24961 0.43024 0.0
H599 H 0.75593 0.24002 0.56838 0.0
H600 H 0.7073 0.33903 0.55475 0.0
H601 H 0.70755 0.28319 0.54269 0.0
H602 H 0.81345 0.29456 0.46265 0.0
H603 H 0.81006 0.34949 0.4715 0.0
C604 C 0.78219 0.2039 0.45731 0.0
C605 C 0.77533 0.18487 0.4934 0.0
C606 C 0.77751 0.23591 0.4601 0.0
C607 C 0.76695 0.24972 0.49962 0.0
C608 C 0.76264 0.23048 0.53678 0.0
C609 C 0.76613 0.19846 0.53339 0.0
C610 C 0.72928 0.32952 0.53334 0.0
C611 C 0.75889 0.34875 0.51448 0.0
C612 C 0.73031 0.29742 0.52715 0.0
C613 C 0.76138 0.28394 0.50242 0.0
C614 C 0.78868 0.3036 0.4815 0.0
C615 C 0.78696 0.3354 0.48694 0.0
H616 H 0.70201 0.84904 0.02538 0.0
H617 H 0.82411 0.83953 0.9652 0.0
H618 H 0.69791 0.79401 0.03303 0.0
H619 H 0.82203 0.78362 0.9758 0.0
H620 H 0.77523 0.68399 0.95343 0.0
H621 H 0.77617 0.73976 0.94437 0.0
H622 H 0.73178 0.75022 0.07282 0.0
H623 H 0.72841 0.69438 0.08001 0.0
C624 C 0.72879 0.83521 0.01448 0.0
C625 C 0.76317 0.8489 0.99412 0.0
C626 C 0.72658 0.80337 0.0193 0.0
C627 C 0.75931 0.784 1.0048 0.0
C628 C 0.79535 0.79769 0.98638 0.0
C629 C 0.79713 0.82981 0.9809 0.0
C630 C 0.76421 0.69834 0.97884 0.0
C631 C 0.75098 0.68492 0.017 0.0
C632 C 0.76574 0.73034 0.97425 0.0
C633 C 0.75496 0.74979 1.00825 0.0
C634 C 0.73982 0.73619 0.0455 0.0
C635 C 0.73745 0.70411 0.04957 0.0
H636 H 0.3273 0.69112 0.46938 0.0
H637 H 0.2009 0.68361 0.52375 0.0
H638 H 0.32757 0.74699 0.48155 0.0
H639 H 0.19925 0.73855 0.53289 0.0
H640 H 0.22998 0.83694 0.58265 0.0
H641 H 0.23369 0.78115 0.57511 0.0
H642 H 0.28528 0.79225 0.45081 0.0
H643 H 0.28398 0.84795 0.46028 0.0
C644 C 0.29982 0.70126 0.48406 0.0
C645 C 0.26407 0.68272 0.49531 0.0
C646 C 0.29947 0.73336 0.4905 0.0
C647 C 0.26309 0.7476 0.50792 0.0
C648 C 0.22834 0.72876 0.52017 0.0
C649 C 0.22912 0.69696 0.51443 0.0
C650 C 0.24106 0.82738 0.55319 0.0
C651 C 0.25623 0.84676 0.52183 0.0
C652 C 0.24349 0.79531 0.54885 0.0
C653 C 0.26026 0.78186 0.51246 0.0
C654 C 0.27344 0.8015 0.47999 0.0
C655 C 0.27185 0.83349 0.48489 0.0
loop_
_geom_bond_atom_site_label_1
_geom_bond_atom_site_label_2
_geom_bond_distance
_geom_bond_site_symmetry_2
_ccdc_geom_bond_type
Fe0 O2 1.918 . S
Fe0 O5 1.997 . S
Fe0 O6 2.002 . S
Fe0 O11 1.976 . S
Fe0 O14 1.996 . S
Fe1 O2 1.918 . S
Fe1 O9 1.997 . S
Fe1 O12 1.996 . S
Fe1 O16 1.976 1_554 S
Fe1 O19 2.002 . S
O2 Fe0 1.918 . S
O2 Fe1 1.918 . S
O2 Fe3 1.918 . S
Fe3 O2 1.918 . S
Fe3 O4 2.002 . S
Fe3 O13 1.976 . S
Fe3 O17 1.996 1_554 S
Fe3 O20 1.997 . S
O4 Fe3 2.002 . S
O4 C21 1.295 . S
O5 Fe0 1.997 . S
O5 C21 1.235 . S
O6 Fe0 2.002 . S
O6 C7 1.295 . S
C7 O6 1.295 . S
C7 O9 1.235 . S
C8 O13 1.287 . S
C8 O14 1.255 . S
O9 Fe1 1.997 . S
O9 C7 1.235 . S
C10 O16 1.287 . S
C10 O17 1.255 . S
O11 Fe0 1.976 . S
O11 C18 1.287 . S
O12 Fe1 1.996 . S
O12 C18 1.255 . S
O13 Fe3 1.976 . S
O13 C8 1.287 . S
O14 Fe0 1.996 . S
O14 C8 1.255 . S
C15 O19 1.295 . S
C15 O20 1.235 . S
O16 Fe1 1.976 1_556 S
O16 C10 1.287 . S
O17 Fe3 1.996 1_556 S
O17 C10 1.255 . S
C18 O11 1.287 . S
C18 O12 1.255 . S
O19 Fe1 2.002 . S
O19 C15 1.295 . S
O20 Fe3 1.997 . S
O20 C15 1.235 . S
C21 O4 1.295 . S
C21 O5 1.235 . S
Fe22 O24 1.918 . S
Fe22 O27 1.997 . S
Fe22 O28 2.002 . S
Fe22 O33 1.976 . S
Fe22 O36 1.996 . S
Fe23 O24 1.918 . S
Fe23 O31 1.997 . S
Fe23 O34 1.996 . S
Fe23 O38 1.976 . S
Fe23 O41 2.002 . S
O24 Fe22 1.918 . S
O24 Fe23 1.918 . S
O24 Fe25 1.918 . S
Fe25 O24 1.918 . S
Fe25 O26 2.002 . S
Fe25 O35 1.976 . S
Fe25 O39 1.996 . S
Fe25 O42 1.997 . S
O26 Fe25 2.002 . S
O26 C43 1.295 . S
O27 Fe22 1.997 . S
O27 C43 1.235 . S
O28 Fe22 2.002 . S
O28 C29 1.295 . S
C29 O28 1.295 . S
C29 O31 1.235 . S
C30 O35 1.287 . S
C30 O36 1.255 . S
O31 Fe23 1.997 . S
O31 C29 1.235 . S
C32 O38 1.287 . S
C32 O39 1.255 . S
O33 Fe22 1.976 . S
O33 C40 1.287 . S
O34 Fe23 1.996 . S
O34 C40 1.255 . S
O35 Fe25 1.976 . S
O35 C30 1.287 . S
O36 Fe22 1.996 . S
O36 C30 1.255 . S
C37 O41 1.295 . S
C37 O42 1.235 . S
O38 Fe23 1.976 . S
O38 C32 1.287 . S
O39 Fe25 1.996 . S
O39 C32 1.255 . S
C40 O33 1.287 . S
C40 O34 1.255 . S
O41 Fe23 2.002 . S
O41 C37 1.295 . S
O42 Fe25 1.997 . S
O42 C37 1.235 . S
C43 O26 1.295 . S
C43 O27 1.235 . S
Fe44 O46 1.918 . S
Fe44 O49 1.997 . S
Fe44 O50 2.002 . S
Fe44 O55 1.976 . S
Fe44 O58 1.996 1_556 S
Fe45 O46 1.918 . S
Fe45 O53 1.997 . S
Fe45 O56 1.996 . S
Fe45 O60 1.976 . S
Fe45 O63 2.002 . S
O46 Fe44 1.918 . S
O46 Fe45 1.918 . S
O46 Fe47 1.918 . S
Fe47 O46 1.918 . S
Fe47 O48 2.002 . S
Fe47 O57 1.976 1_556 S
Fe47 O61 1.996 . S
Fe47 O64 1.997 . S
O48 Fe47 2.002 . S
O48 C65 1.295 . S
O49 Fe44 1.997 . S
O49 C65 1.235 . S
O50 Fe44 2.002 . S
O50 C51 1.295 . S
C51 O50 1.295 . S
C51 O53 1.235 . S
C52 O57 1.287 . S
C52 O58 1.255 . S
O53 Fe45 1.997 . S
O53 C51 1.235 . S
C54 O60 1.287 . S
C54 O61 1.255 . S
O55 Fe44 1.976 . S
O55 C62 1.287 . S
O56 Fe45 1.996 . S
O56 C62 1.255 . S
O57 Fe47 1.976 1_554 S
O57 C52 1.287 . S
O58 Fe44 1.996 1_554 S
O58 C52 1.255 . S
C59 O63 1.295 . S
C59 O64 1.235 . S
O60 Fe45 1.976 . S
O60 C54 1.287 . S
O61 Fe47 1.996 . S
O61 C54 1.255 . S
C62 O55 1.287 . S
C62 O56 1.255 . S
O63 Fe45 2.002 . S
O63 C59 1.295 . S
O64 Fe47 1.997 . S
O64 C59 1.235 . S
C65 O48 1.295 . S
C65 O49 1.235 . S
Fe66 O68 1.918 . S
Fe66 O71 1.997 . S
Fe66 O72 2.002 . S
Fe66 O77 1.976 . S
Fe66 O80 1.996 . S
Fe67 O68 1.918 . S
Fe67 O75 1.997 . S
Fe67 O78 1.996 . S
Fe67 O82 1.976 . S
Fe67 O85 2.002 . S
O68 Fe66 1.918 . S
O68 Fe67 1.918 . S
O68 Fe69 1.918 . S
Fe69 O68 1.918 . S
Fe69 O70 2.002 . S
Fe69 O79 1.976 . S
Fe69 O83 1.996 . S
Fe69 O86 1.997 . S
O70 Fe69 2.002 . S
O70 C87 1.295 . S
O71 Fe66 1.997 . S
O71 C87 1.235 . S
O72 Fe66 2.002 . S
O72 C73 1.295 . S
C73 O72 1.295 . S
C73 O75 1.235 . S
C74 O79 1.287 . S
C74 O80 1.255 . S
O75 Fe67 1.997 . S
O75 C73 1.235 . S
C76 O82 1.287 . S
C76 O83 1.255 . S
O77 Fe66 1.976 . S
O77 C84 1.287 . S
O78 Fe67 1.996 . S
O78 C84 1.255 . S
O79 Fe69 1.976 . S
O79 C74 1.287 . S
O80 Fe66 1.996 . S
O80 C74 1.255 . S
C81 O85 1.295 . S
C81 O86 1.235 . S
O82 Fe67 1.976 . S
O82 C76 1.287 . S
O83 Fe69 1.996 . S
O83 C76 1.255 . S
C84 O77 1.287 . S
C84 O78 1.255 . S
O85 Fe67 2.002 . S
O85 C81 1.295 . S
O86 Fe69 1.997 . S
O86 C81 1.235 . S
C87 O70 1.295 . S
C87 O71 1.235 . S
Fe88 O90 1.918 . S
Fe88 O93 1.997 . S
Fe88 O94 2.002 . S
Fe88 O99 1.976 . S
Fe88 O102 1.996 . S
Fe89 O90 1.918 . S
Fe89 O97 1.997 . S
Fe89 O100 1.996 . S
Fe89 O104 1.976 1_554 S
Fe89 O107 2.002 . S
O90 Fe88 1.918 . S
O90 Fe89 1.918 . S
O90 Fe91 1.918 . S
Fe91 O90 1.918 . S
Fe91 O92 2.002 . S
Fe91 O101 1.976 . S
Fe91 O105 1.996 1_554 S
Fe91 O108 1.997 . S
O92 Fe91 2.002 . S
O92 C109 1.295 . S
O93 Fe88 1.997 . S
O93 C109 1.235 . S
O94 Fe88 2.002 . S
O94 C95 1.295 . S
C95 O94 1.295 . S
C95 O97 1.235 . S
C96 O101 1.287 . S
C96 O102 1.255 . S
O97 Fe89 1.997 . S
O97 C95 1.235 . S
C98 O104 1.287 . S
C98 O105 1.255 . S
O99 Fe88 1.976 . S
O99 C106 1.287 . S
O100 Fe89 1.996 . S
O100 C106 1.255 . S
O101 Fe91 1.976 . S
O101 C96 1.287 . S
O102 Fe88 1.996 . S
O102 C96 1.255 . S
C103 O107 1.295 . S
C103 O108 1.235 . S
O104 Fe89 1.976 1_556 S
O104 C98 1.287 . S
O105 Fe91 1.996 1_556 S
O105 C98 1.255 . S
C106 O99 1.287 . S
C106 O100 1.255 . S
O107 Fe89 2.002 . S
O107 C103 1.295 . S
O108 Fe91 1.997 . S
O108 C103 1.235 . S
C109 O92 1.295 . S
C109 O93 1.235 . S
Fe110 O112 1.918 . S
Fe110 O115 1.997 . S
Fe110 O116 2.002 . S
Fe110 O121 1.976 . S
Fe110 O124 1.996 . S
Fe111 O112 1.918 . S
Fe111 O119 1.997 . S
Fe111 O122 1.996 . S
Fe111 O126 1.976 . S
Fe111 O129 2.002 . S
O112 Fe110 1.918 . S
O112 Fe111 1.918 . S
O112 Fe113 1.918 . S
Fe113 O112 1.918 . S
Fe113 O114 2.002 . S
Fe113 O123 1.976 . S
Fe113 O127 1.996 . S
Fe113 O130 1.997 . S
O114 Fe113 2.002 . S
O114 C131 1.295 . S
O115 Fe110 1.997 . S
O115 C131 1.235 . S
O116 Fe110 2.002 . S
O116 C117 1.295 . S
C117 O116 1.295 . S
C117 O119 1.235 . S
C118 O123 1.287 . S
C118 O124 1.255 . S
O119 Fe111 1.997 . S
O119 C117 1.235 . S
C120 O126 1.287 . S
C120 O127 1.255 . S
O121 Fe110 1.976 . S
O121 C128 1.287 . S
O122 Fe111 1.996 . S
O122 C128 1.255 . S
O123 Fe113 1.976 . S
O123 C118 1.287 . S
O124 Fe110 1.996 . S
O124 C118 1.255 . S
C125 O129 1.295 . S
C125 O130 1.235 . S
O126 Fe111 1.976 . S
O126 C120 1.287 . S
O127 Fe113 1.996 . S
O127 C120 1.255 . S
C128 O121 1.287 . S
C128 O122 1.255 . S
O129 Fe111 2.002 . S
O129 C125 1.295 . S
O130 Fe113 1.997 . S
O130 C125 1.235 . S
C131 O114 1.295 . S
C131 O115 1.235 . S
Fe132 O134 1.918 . S
Fe132 O137 1.997 . S
Fe132 O138 2.002 . S
Fe132 O143 1.976 . S
Fe132 O146 1.996 1_556 S
Fe133 O134 1.918 . S
Fe133 O141 1.997 . S
Fe133 O144 1.996 . S
Fe133 O148 1.976 . S
Fe133 O151 2.002 . S
O134 Fe132 1.918 . S
O134 Fe133 1.918 . S
O134 Fe135 1.918 . S
Fe135 O134 1.918 . S
Fe135 O136 2.002 . S
Fe135 O145 1.976 1_556 S
Fe135 O149 1.996 . S
Fe135 O152 1.997 . S
O136 Fe135 2.002 . S
O136 C153 1.295 . S
O137 Fe132 1.997 . S
O137 C153 1.235 . S
O138 Fe132 2.002 . S
O138 C139 1.295 . S
C139 O138 1.295 . S
C139 O141 1.235 . S
C140 O145 1.287 . S
C140 O146 1.255 . S
O141 Fe133 1.997 . S
O141 C139 1.235 . S
C142 O148 1.287 . S
C142 O149 1.255 . S
O143 Fe132 1.976 . S
O143 C150 1.287 . S
O144 Fe133 1.996 . S
O144 C150 1.255 . S
O145 Fe135 1.976 1_554 S
O145 C140 1.287 . S
O146 Fe132 1.996 1_554 S
O146 C140 1.255 . S
C147 O151 1.295 . S
C147 O152 1.235 . S
O148 Fe133 1.976 . S
O148 C142 1.287 . S
O149 Fe135 1.996 . S
O149 C142 1.255 . S
C150 O143 1.287 . S
C150 O144 1.255 . S
O151 Fe133 2.002 . S
O151 C147 1.295 . S
O152 Fe135 1.997 . S
O152 C147 1.235 . S
C153 O136 1.295 . S
C153 O137 1.235 . S
Fe154 O156 1.918 . S
Fe154 O159 1.997 . S
Fe154 O160 2.002 . S
Fe154 O165 1.976 . S
Fe154 O168 1.996 . S
Fe155 O156 1.918 . S
Fe155 O163 1.997 . S
Fe155 O166 1.996 . S
Fe155 O170 1.976 . S
Fe155 O173 2.002 . S
O156 Fe154 1.918 . S
O156 Fe155 1.918 . S
O156 Fe157 1.918 . S
Fe157 O156 1.918 . S
Fe157 O158 2.002 . S
Fe157 O167 1.976 . S
Fe157 O171 1.996 . S
Fe157 O174 1.997 . S
O158 Fe157 2.002 . S
O158 C175 1.295 . S
O159 Fe154 1.997 . S
O159 C175 1.235 . S
O160 Fe154 2.002 . S
O160 C161 1.295 . S
C161 O160 1.295 . S
C161 O163 1.235 . S
C162 O167 1.287 . S
C162 O168 1.255 . S
O163 Fe155 1.997 . S
O163 C161 1.235 . S
C164 O170 1.287 . S
C164 O171 1.255 . S
O165 Fe154 1.976 . S
O165 C172 1.287 . S
O166 Fe155 1.996 . S
O166 C172 1.255 . S
O167 Fe157 1.976 . S
O167 C162 1.287 . S
O168 Fe154 1.996 . S
O168 C162 1.255 . S
C169 O173 1.295 . S
C169 O174 1.235 . S
O170 Fe155 1.976 . S
O170 C164 1.287 . S
O171 Fe157 1.996 . S
O171 C164 1.255 . S
C172 O165 1.287 . S
C172 O166 1.255 . S
O173 Fe155 2.002 . S
O173 C169 1.295 . S
O174 Fe157 1.997 . S
O174 C169 1.235 . S
C175 O158 1.295 . S
C175 O159 1.235 . S
H176 C184 0.950 . S
H177 C189 0.950 . S
H178 C186 0.950 1_565 S
H179 C188 0.950 . S
H180 C190 0.950 . S
H181 C192 0.950 . S
H182 C194 0.950 . S
H183 C195 0.950 . S
C184 H176 0.950 . S
C184 C185 1.386 . S
C184 C186 1.391 . S
C185 C184 1.386 . S
C185 C189 1.393 . S
C186 H178 0.950 1_545 S
C186 C184 1.391 . S
C186 C187 1.400 . S
C187 C186 1.400 . S
C187 C188 1.398 . S
C187 C193 1.491 . S
C188 H179 0.950 . S
C188 C187 1.398 . S
C188 C189 1.391 . S
C189 H177 0.950 . S
C189 C185 1.393 . S
C189 C188 1.391 . S
C190 H180 0.950 . S
C190 C191 1.386 1_545 S
C190 C192 1.391 . S
C191 C190 1.386 1_565 S
C191 C195 1.393 . S
C192 H181 0.950 . S
C192 C190 1.391 . S
C192 C193 1.400 . S
C193 C187 1.491 . S
C193 C192 1.400 . S
C193 C194 1.398 1_545 S
C194 H182 0.950 . S
C194 C193 1.398 1_565 S
C194 C195 1.391 . S
C195 H183 0.950 . S
C195 C191 1.393 . S
C195 C194 1.391 . S
H196 C204 0.950 . S
H197 C209 0.950 . S
H198 C206 0.950 . S
H199 C208 0.950 . S
H200 C210 0.950 . S
H201 C212 0.950 . S
H202 C214 0.950 . S
H203 C215 0.950 . S
C204 H196 0.950 . S
C204 C205 1.386 . S
C204 C206 1.391 1_565 S
C205 C204 1.386 . S
C205 C209 1.393 . S
C206 H198 0.950 . S
C206 C204 1.391 1_545 S
C206 C207 1.400 . S
C207 C206 1.400 . S
C207 C208 1.398 . S
C207 C213 1.491 . S
C208 H199 0.950 . S
C208 C207 1.398 . S
C208 C209 1.391 1_545 S
C209 H197 0.950 . S
C209 C205 1.393 . S
C209 C208 1.391 1_565 S
C210 H200 0.950 . S
C210 C211 1.386 . S
C210 C212 1.391 . S
C211 C210 1.386 . S
C211 C215 1.393 . S
C212 H201 0.950 . S
C212 C210 1.391 . S
C212 C213 1.400 . S
C213 C207 1.491 . S
C213 C212 1.400 . S
C213 C214 1.398 . S
C214 H202 0.950 . S
C214 C213 1.398 . S
C214 C215 1.391 . S
C215 H203 0.950 . S
C215 C211 1.393 . S
C215 C214 1.391 . S
H216 C224 0.950 . S
H217 C229 0.950 . S
H218 C226 0.950 . S
H219 C228 0.950 . S
H220 C230 0.950 . S
H221 C232 0.950 . S
H222 C234 0.952 1_545 S
H223 C235 0.950 . S
C224 H216 0.950 . S
C224 C225 1.386 . S
C224 C226 1.391 . S
C225 C224 1.386 . S
C225 C229 1.393 1_545 S
C226 H218 0.950 . S
C226 C224 1.391 . S
C226 C227 1.400 1_545 S
C227 C226 1.400 1_565 S
C227 C228 1.398 . S
C227 C233 1.491 . S
C228 H219 0.950 . S
C228 C227 1.398 . S
C228 C229 1.391 . S
C229 H217 0.950 . S
C229 C225 1.393 1_565 S
C229 C228 1.391 . S
C230 H220 0.950 . S
C230 C231 1.386 . S
C230 C232 1.391 . S
C231 C230 1.386 . S
C231 C235 1.393 . S
C232 H221 0.950 . S
C232 C230 1.391 . S
C232 C233 1.400 . S
C233 C227 1.491 . S
C233 C232 1.400 . S
C233 C234 1.398 . S
C234 H222 0.952 1_565 S
C234 C233 1.398 . S
C234 C235 1.391 . S
C235 H223 0.950 . S
C235 C231 1.393 . S
C235 C234 1.391 . S
H236 C244 0.950 . S
H237 C249 0.950 . S
H238 C246 0.950 . S
H239 C248 0.950 . S
H240 C250 0.950 . S
H241 C252 0.950 . S
H242 C254 0.950 1_545 S
H243 C255 0.950 . S
C244 H236 0.950 . S
C244 C245 1.386 . S
C244 C246 1.391 . S
C245 C244 1.386 . S
C245 C249 1.393 1_545 S
C246 H238 0.950 . S
C246 C244 1.391 . S
C246 C247 1.400 1_545 S
C247 C246 1.400 1_565 S
C247 C248 1.398 . S
C247 C253 1.491 . S
C248 H239 0.950 . S
C248 C247 1.398 . S
C248 C249 1.391 . S
C249 H237 0.950 . S
C249 C245 1.393 1_565 S
C249 C248 1.391 . S
C250 H240 0.950 . S
C250 C251 1.386 . S
C250 C252 1.391 . S
C251 C250 1.386 . S
C251 C255 1.393 . S
C252 H241 0.950 . S
C252 C250 1.391 . S
C252 C253 1.400 . S
C253 C247 1.491 . S
C253 C252 1.400 . S
C253 C254 1.398 . S
C254 H242 0.950 1_565 S
C254 C253 1.398 . S
C254 C255 1.391 . S
C255 H243 0.950 . S
C255 C251 1.393 . S
C255 C254 1.391 . S
H256 C264 0.950 . S
H257 C269 0.950 . S
H258 C266 0.950 . S
H259 C268 0.950 . S
H260 C270 0.950 . S
H261 C272 0.950 . S
H262 C274 0.950 . S
H263 C275 0.950 . S
C264 H256 0.950 . S
C264 C265 1.386 . S
C264 C266 1.391 . S
C265 C264 1.386 . S
C265 C269 1.393 . S
C266 H258 0.950 . S
C266 C264 1.391 . S
C266 C267 1.400 . S
C267 C266 1.400 . S
C267 C268 1.398 . S
C267 C273 1.491 . S
C268 H259 0.950 . S
C268 C267 1.398 . S
C268 C269 1.391 . S
C269 H257 0.950 . S
C269 C265 1.393 . S
C269 C268 1.391 . S
C270 H260 0.950 . S
C270 C271 1.386 . S
C270 C272 1.391 . S
C271 C270 1.386 . S
C271 C275 1.393 . S
C272 H261 0.950 . S
C272 C270 1.391 . S
C272 C273 1.400 . S
C273 C267 1.491 . S
C273 C272 1.400 . S
C273 C274 1.398 . S
C274 H262 0.950 . S
C274 C273 1.398 . S
C274 C275 1.391 . S
C275 H263 0.950 . S
C275 C271 1.393 . S
C275 C274 1.391 . S
H276 C284 0.950 . S
H277 C289 0.950 . S
H278 C286 0.950 . S
H279 C288 0.950 . S
H280 C290 0.950 . S
H281 C292 0.950 . S
H282 C294 0.950 . S
H283 C295 0.950 . S
C284 H276 0.950 . S
C284 C285 1.386 . S
C284 C286 1.391 . S
C285 C284 1.386 . S
C285 C289 1.393 . S
C286 H278 0.950 . S
C286 C284 1.391 . S
C286 C287 1.400 . S
C287 C286 1.400 . S
C287 C288 1.398 . S
C287 C293 1.491 . S
C288 H279 0.950 . S
C288 C287 1.398 . S
C288 C289 1.391 . S
C289 H277 0.950 . S
C289 C285 1.393 . S
C289 C288 1.391 . S
C290 H280 0.950 . S
C290 C291 1.386 . S
C290 C292 1.391 . S
C291 C290 1.386 . S
C291 C295 1.393 . S
C292 H281 0.950 . S
C292 C290 1.391 . S
C292 C293 1.400 . S
C293 C287 1.491 . S
C293 C292 1.400 . S
C293 C294 1.398 . S
C294 H282 0.950 . S
C294 C293 1.398 . S
C294 C295 1.391 . S
C295 H283 0.950 . S
C295 C291 1.393 . S
C295 C294 1.391 . S
H296 C304 0.950 . S
H297 C309 0.950 . S
H298 C306 0.950 . S
H299 C308 0.950 . S
H300 C310 0.950 . S
H301 C312 0.950 . S
H302 C314 0.950 . S
H303 C315 0.950 . S
C304 H296 0.950 . S
C304 C305 1.386 . S
C304 C306 1.391 . S
C305 C304 1.386 . S
C305 C309 1.393 . S
C306 H298 0.950 . S
C306 C304 1.391 . S
C306 C307 1.400 . S
C307 C306 1.400 . S
C307 C308 1.398 . S
C307 C313 1.491 . S
C308 H299 0.950 . S
C308 C307 1.398 . S
C308 C309 1.391 . S
C309 H297 0.950 . S
C309 C305 1.393 . S
C309 C308 1.391 . S
C310 H300 0.950 . S
C310 C311 1.386 . S
C310 C312 1.391 . S
C311 C310 1.386 . S
C311 C315 1.393 . S
C312 H301 0.950 . S
C312 C310 1.391 . S
C312 C313 1.400 . S
C313 C307 1.491 . S
C313 C312 1.400 . S
C313 C314 1.398 . S
C314 H302 0.950 . S
C314 C313 1.398 . S
C314 C315 1.391 . S
C315 H303 0.950 . S
C315 C311 1.393 . S
C315 C314 1.391 . S
H316 C324 0.950 . S
H317 C329 0.950 . S
H318 C326 0.950 . S
H319 C328 0.950 . S
H320 C330 0.950 . S
H321 C332 0.950 . S
H322 C334 0.950 . S
H323 C335 0.950 . S
C324 H316 0.950 . S
C324 C325 1.386 . S
C324 C326 1.391 . S
C325 C324 1.386 . S
C325 C329 1.393 . S
C326 H318 0.950 . S
C326 C324 1.391 . S
C326 C327 1.400 . S
C327 C326 1.400 . S
C327 C328 1.398 . S
C327 C333 1.491 . S
C328 H319 0.950 . S
C328 C327 1.398 . S
C328 C329 1.391 . S
C329 H317 0.950 . S
C329 C325 1.393 . S
C329 C328 1.391 . S
C330 H320 0.950 . S
C330 C331 1.386 . S
C330 C332 1.391 . S
C331 C330 1.386 . S
C331 C335 1.393 . S
C332 H321 0.950 . S
C332 C330 1.391 . S
C332 C333 1.400 . S
C333 C327 1.491 . S
C333 C332 1.400 . S
C333 C334 1.398 . S
C334 H322 0.950 . S
C334 C333 1.398 . S
C334 C335 1.391 . S
C335 H323 0.950 . S
C335 C331 1.393 . S
C335 C334 1.391 . S
H336 C344 0.950 . S
H337 C349 0.950 . S
H338 C346 0.950 . S
H339 C348 0.959 . S
H340 C350 0.950 . S
H341 C352 0.950 . S
H342 C354 0.961 . S
H343 C355 0.950 . S
C344 H336 0.950 . S
C344 C345 1.386 . S
C344 C346 1.391 . S
C345 C344 1.386 . S
C345 C349 1.393 1_545 S
C346 H338 0.950 . S
C346 C344 1.391 . S
C346 C347 1.400 . S
C347 C346 1.400 . S
C347 C348 1.399 1_544 S
C347 C353 1.491 1_544 S
C348 H339 0.959 . S
C348 C347 1.399 1_566 S
C348 C349 1.382 1_556 S
C349 H337 0.950 . S
C349 C345 1.393 1_565 S
C349 C348 1.382 1_554 S
C350 H340 0.950 . S
C350 C351 1.386 . S
C350 C352 1.391 . S
C351 C350 1.386 . S
C351 C355 1.393 1_565 S
C352 H341 0.950 . S
C352 C350 1.391 . S
C352 C353 1.400 . S
C353 C347 1.491 1_566 S
C353 C352 1.400 . S
C353 C354 1.399 1_566 S
C354 H342 0.961 . S
C354 C353 1.399 1_544 S
C354 C355 1.380 1_554 S
C355 H343 0.950 . S
C355 C351 1.393 1_545 S
C355 C354 1.380 1_556 S
H356 C364 0.950 . S
H357 C369 0.950 . S
H358 C366 0.950 . S
H359 C368 0.950 . S
H360 C370 0.950 . S
H361 C372 0.950 . S
H362 C374 0.950 . S
H363 C375 0.950 . S
C364 H356 0.950 . S
C364 C365 1.386 1_545 S
C364 C366 1.391 . S
C365 C364 1.386 1_565 S
C365 C369 1.393 . S
C366 H358 0.950 . S
C366 C364 1.391 . S
C366 C367 1.400 1_545 S
C367 C366 1.400 1_565 S
C367 C368 1.398 . S
C367 C373 1.491 1_565 S
C368 H359 0.950 . S
C368 C367 1.398 . S
C368 C369 1.391 . S
C369 H357 0.950 . S
C369 C365 1.393 . S
C369 C368 1.391 . S
C370 H360 0.950 . S
C370 C371 1.386 1_565 S
C370 C372 1.391 . S
C371 C370 1.386 1_545 S
C371 C375 1.393 . S
C372 H361 0.950 . S
C372 C370 1.391 . S
C372 C373 1.400 1_565 S
C373 C367 1.491 1_545 S
C373 C372 1.400 1_545 S
C373 C374 1.398 . S
C374 H362 0.950 . S
C374 C373 1.398 . S
C374 C375 1.391 . S
C375 H363 0.950 . S
C375 C371 1.393 . S
C375 C374 1.391 . S
H376 C384 0.950 . S
H377 C389 0.950 . S
H378 C386 0.950 . S
H379 C388 0.950 . S
H380 C390 0.950 . S
H381 C392 0.950 . S
H382 C394 0.950 . S
H383 C395 0.950 . S
C384 H376 0.950 . S
C384 C385 1.386 . S
C384 C386 1.391 . S
C385 C384 1.386 . S
C385 C389 1.393 . S
C386 H378 0.950 . S
C386 C384 1.391 . S
C386 C387 1.400 . S
C387 C386 1.400 . S
C387 C388 1.398 . S
C387 C393 1.491 1_654 S
C388 H379 0.950 . S
C388 C387 1.398 . S
C388 C389 1.391 . S
C389 H377 0.950 . S
C389 C385 1.393 . S
C389 C388 1.391 . S
C390 H380 0.950 . S
C390 C391 1.386 . S
C390 C392 1.391 . S
C391 C390 1.386 . S
C391 C395 1.393 . S
C392 H381 0.950 . S
C392 C390 1.391 . S
C392 C393 1.400 . S
C393 C387 1.491 1_456 S
C393 C392 1.400 . S
C393 C394 1.398 . S
C394 H382 0.950 . S
C394 C393 1.398 . S
C394 C395 1.391 . S
C395 H383 0.950 . S
C395 C391 1.393 . S
C395 C394 1.391 . S
H396 C404 0.950 . S
H397 C409 0.950 . S
H398 C406 0.950 . S
H399 C408 0.950 . S
H400 C410 0.950 . S
H401 C412 0.950 . S
H402 C414 0.950 . S
H403 C415 0.950 . S
C404 H396 0.950 . S
C404 C405 1.386 . S
C404 C406 1.391 . S
C405 C404 1.386 . S
C405 C409 1.393 . S
C406 H398 0.950 . S
C406 C404 1.391 . S
C406 C407 1.400 . S
C407 C406 1.400 . S
C407 C408 1.398 . S
C407 C413 1.491 1_455 S
C408 H399 0.950 . S
C408 C407 1.398 . S
C408 C409 1.391 . S
C409 H397 0.950 . S
C409 C405 1.393 . S
C409 C408 1.391 . S
C410 H400 0.950 . S
C410 C411 1.386 . S
C410 C412 1.391 . S
C411 C410 1.386 . S
C411 C415 1.393 . S
C412 H401 0.950 . S
C412 C410 1.391 . S
C412 C413 1.400 . S
C413 C407 1.491 1_655 S
C413 C412 1.400 . S
C413 C414 1.398 . S
C414 H402 0.950 . S
C414 C413 1.398 . S
C414 C415 1.391 . S
C415 H403 0.950 . S
C415 C411 1.393 . S
C415 C414 1.391 . S
H416 C424 0.950 . S
H417 C429 0.950 . S
H418 C426 0.950 . S
H419 C428 0.950 . S
H420 C430 0.950 . S
H421 C432 0.950 . S
H422 C434 0.950 . S
H423 C435 0.950 . S
C424 H416 0.950 . S
C424 C425 1.386 . S
C424 C426 1.391 . S
C425 C424 1.386 . S
C425 C429 1.393 1_554 S
C426 H418 0.950 . S
C426 C424 1.391 . S
C426 C427 1.400 . S
C427 C426 1.400 . S
C427 C428 1.398 1_554 S
C427 C433 1.491 1_444 S
C428 H419 0.950 . S
C428 C427 1.398 1_556 S
C428 C429 1.391 . S
C429 H417 0.950 . S
C429 C425 1.393 1_556 S
C429 C428 1.391 . S
C430 H420 0.950 . S
C430 C431 1.386 . S
C430 C432 1.391 . S
C431 C430 1.386 . S
C431 C435 1.393 1_556 S
C432 H421 0.950 . S
C432 C430 1.391 . S
C432 C433 1.400 . S
C433 C427 1.491 1_666 S
C433 C432 1.400 . S
C433 C434 1.398 1_556 S
C434 H422 0.950 . S
C434 C433 1.398 1_554 S
C434 C435 1.391 . S
C435 H423 0.950 . S
C435 C431 1.393 1_554 S
C435 C434 1.391 . S
H436 C444 0.950 . S
H437 C449 0.950 . S
H438 C446 0.950 . S
H439 C448 0.950 1_565 S
H440 C450 0.950 . S
H441 C452 0.950 . S
H442 C454 0.950 1_545 S
H443 C455 0.950 . S
C444 H436 0.950 . S
C444 C445 1.386 . S
C444 C446 1.391 . S
C445 C444 1.386 . S
C445 C449 1.393 . S
C446 H438 0.950 . S
C446 C444 1.391 . S
C446 C447 1.400 . S
C447 C446 1.400 . S
C447 C448 1.398 . S
C447 C453 1.491 1_645 S
C448 H439 0.950 1_545 S
C448 C447 1.398 . S
C448 C449 1.391 . S
C449 H437 0.950 . S
C449 C445 1.393 . S
C449 C448 1.391 . S
C450 H440 0.950 . S
C450 C451 1.386 . S
C450 C452 1.391 . S
C451 C450 1.386 . S
C451 C455 1.393 . S
C452 H441 0.950 . S
C452 C450 1.391 . S
C452 C453 1.400 . S
C453 C447 1.491 1_465 S
C453 C452 1.400 . S
C453 C454 1.398 . S
C454 H442 0.950 1_565 S
C454 C453 1.398 . S
C454 C455 1.391 . S
C455 H443 0.950 . S
C455 C451 1.393 . S
C455 C454 1.391 . S
H456 C464 0.950 . S
H457 C469 0.950 . S
H458 C466 0.950 . S
H459 C468 0.944 1_554 S
H460 C470 0.950 . S
H461 C472 0.950 . S
H462 C474 0.947 1_556 S
H463 C475 0.950 . S
C464 H456 0.950 . S
C464 C465 1.386 . S
C464 C466 1.391 . S
C465 C464 1.386 . S
C465 C469 1.393 . S
C466 H458 0.950 . S
C466 C464 1.391 . S
C466 C467 1.400 . S
C467 C466 1.400 . S
C467 C468 1.405 . S
C467 C473 1.491 1_556 S
C468 H459 0.944 1_556 S
C468 C467 1.405 . S
C468 C469 1.390 . S
C469 H457 0.950 . S
C469 C465 1.393 . S
C469 C468 1.390 . S
C470 H460 0.950 . S
C470 C471 1.386 . S
C470 C472 1.391 . S
C471 C470 1.386 . S
C471 C475 1.393 . S
C472 H461 0.950 . S
C472 C470 1.391 . S
C472 C473 1.400 . S
C473 C467 1.491 1_554 S
C473 C472 1.400 . S
C473 C474 1.401 . S
C474 H462 0.947 1_554 S
C474 C473 1.401 . S
C474 C475 1.390 . S
C475 H463 0.950 . S
C475 C471 1.393 . S
C475 C474 1.390 . S
H476 C484 0.950 . S
H477 C489 0.950 . S
H478 C486 0.950 . S
H479 C488 0.950 . S
H480 C490 0.950 . S
H481 C492 0.950 . S
H482 C494 0.950 . S
H483 C495 0.950 . S
C484 H476 0.950 . S
C484 C485 1.386 . S
C484 C486 1.391 . S
C485 C484 1.386 . S
C485 C489 1.393 . S
C486 H478 0.950 . S
C486 C484 1.391 . S
C486 C487 1.400 . S
C487 C486 1.400 . S
C487 C488 1.398 . S
C487 C493 1.491 . S
C488 H479 0.950 . S
C488 C487 1.398 . S
C488 C489 1.391 . S
C489 H477 0.950 . S
C489 C485 1.393 . S
C489 C488 1.391 . S
C490 H480 0.950 . S
C490 C491 1.386 . S
C490 C492 1.391 . S
C491 C490 1.386 . S
C491 C495 1.393 . S
C492 H481 0.950 . S
C492 C490 1.391 . S
C492 C493 1.400 . S
C493 C487 1.491 . S
C493 C492 1.400 . S
C493 C494 1.398 . S
C494 H482 0.950 . S
C494 C493 1.398 . S
C494 C495 1.391 . S
C495 H483 0.950 . S
C495 C491 1.393 . S
C495 C494 1.391 . S
H496 C504 0.950 . S
H497 C509 0.950 . S
H498 C506 0.950 . S
H499 C508 0.950 . S
H500 C510 0.950 . S
H501 C512 0.950 . S
H502 C514 0.950 . S
H503 C515 0.950 . S
C504 H496 0.950 . S
C504 C505 1.386 . S
C504 C506 1.391 . S
C505 C504 1.386 . S
C505 C509 1.393 . S
C506 H498 0.950 . S
C506 C504 1.391 . S
C506 C507 1.400 . S
C507 C506 1.400 . S
C507 C508 1.398 . S
C507 C513 1.491 . S
C508 H499 0.950 . S
C508 C507 1.398 . S
C508 C509 1.391 . S
C509 H497 0.950 . S
C509 C505 1.393 . S
C509 C508 1.391 . S
C510 H500 0.950 . S
C510 C511 1.386 . S
C510 C512 1.391 . S
C511 C510 1.386 . S
C511 C515 1.393 . S
C512 H501 0.950 . S
C512 C510 1.391 . S
C512 C513 1.400 . S
C513 C507 1.491 . S
C513 C512 1.400 . S
C513 C514 1.398 . S
C514 H502 0.950 . S
C514 C513 1.398 . S
C514 C515 1.391 . S
C515 H503 0.950 . S
C515 C511 1.393 . S
C515 C514 1.391 . S
H516 C524 0.950 . S
H517 C529 0.950 . S
H518 C526 0.950 . S
H519 C528 0.950 . S
H520 C530 0.950 . S
H521 C532 0.950 . S
H522 C534 0.950 . S
H523 C535 0.950 . S
C524 H516 0.950 . S
C524 C525 1.386 . S
C524 C526 1.391 . S
C525 C524 1.386 . S
C525 C529 1.393 . S
C526 H518 0.950 . S
C526 C524 1.391 . S
C526 C527 1.400 . S
C527 C526 1.400 . S
C527 C528 1.398 . S
C527 C533 1.491 . S
C528 H519 0.950 . S
C528 C527 1.398 . S
C528 C529 1.391 . S
C529 H517 0.950 . S
C529 C525 1.393 . S
C529 C528 1.391 . S
C530 H520 0.950 . S
C530 C531 1.386 . S
C530 C532 1.391 . S
C531 C530 1.386 . S
C531 C535 1.393 . S
C532 H521 0.950 . S
C532 C530 1.391 . S
C532 C533 1.400 . S
C533 C527 1.491 . S
C533 C532 1.400 . S
C533 C534 1.398 . S
C534 H522 0.950 . S
C534 C533 1.398 . S
C534 C535 1.391 . S
C535 H523 0.950 . S
C535 C531 1.393 . S
C535 C534 1.391 . S
H536 C544 0.950 . S
H537 C549 0.950 . S
H538 C546 0.950 1_455 S
H539 C548 0.950 . S
H540 C550 0.950 . S
H541 C552 0.950 1_655 S
H542 C554 0.950 . S
H543 C555 0.950 . S
C544 H536 0.950 . S
C544 C545 1.386 . S
C544 C546 1.391 . S
C545 C544 1.386 . S
C545 C549 1.393 . S
C546 H538 0.950 1_655 S
C546 C544 1.391 . S
C546 C547 1.400 . S
C547 C546 1.400 . S
C547 C548 1.398 . S
C547 C553 1.491 1_655 S
C548 H539 0.950 . S
C548 C547 1.398 . S
C548 C549 1.391 . S
C549 H537 0.950 . S
C549 C545 1.393 . S
C549 C548 1.391 . S
C550 H540 0.950 . S
C550 C551 1.386 . S
C550 C552 1.391 . S
C551 C550 1.386 . S
C551 C555 1.393 . S
C552 H541 0.950 1_455 S
C552 C550 1.391 . S
C552 C553 1.400 . S
C553 C547 1.491 1_455 S
C553 C552 1.400 . S
C553 C554 1.398 . S
C554 H542 0.950 . S
C554 C553 1.398 . S
C554 C555 1.391 . S
C555 H543 0.950 . S
C555 C551 1.393 . S
C555 C554 1.391 . S
H556 C564 0.950 . S
H557 C569 0.950 . S
H558 C566 0.950 . S
H559 C568 0.950 . S
H560 C570 0.950 . S
H561 C572 0.950 . S
H562 C574 0.950 . S
H563 C575 0.950 . S
C564 H556 0.950 . S
C564 C565 1.386 . S
C564 C566 1.391 . S
C565 C564 1.386 . S
C565 C569 1.393 . S
C566 H558 0.950 . S
C566 C564 1.391 . S
C566 C567 1.400 . S
C567 C566 1.400 . S
C567 C568 1.398 . S
C567 C573 1.491 1_655 S
C568 H559 0.950 . S
C568 C567 1.398 . S
C568 C569 1.391 . S
C569 H557 0.950 . S
C569 C565 1.393 . S
C569 C568 1.391 . S
C570 H560 0.950 . S
C570 C571 1.386 . S
C570 C572 1.391 . S
C571 C570 1.386 . S
C571 C575 1.393 . S
C572 H561 0.950 . S
C572 C570 1.391 . S
C572 C573 1.400 . S
C573 C567 1.491 1_455 S
C573 C572 1.400 . S
C573 C574 1.398 . S
C574 H562 0.950 . S
C574 C573 1.398 . S
C574 C575 1.391 . S
C575 H563 0.950 . S
C575 C571 1.393 . S
C575 C574 1.391 . S
H576 C584 0.950 . S
H577 C589 0.950 . S
H578 C586 0.944 1_556 S
H579 C588 0.950 . S
H580 C590 0.950 . S
H581 C592 0.950 1_554 S
H582 C594 0.950 . S
H583 C595 0.950 . S
C584 H576 0.950 . S
C584 C585 1.386 . S
C584 C586 1.393 . S
C585 C584 1.386 . S
C585 C589 1.393 . S
C586 H578 0.944 1_554 S
C586 C584 1.393 . S
C586 C587 1.404 . S
C587 C586 1.404 . S
C587 C588 1.398 . S
C587 C593 1.491 1_554 S
C588 H579 0.950 . S
C588 C587 1.398 . S
C588 C589 1.391 . S
C589 H577 0.950 . S
C589 C585 1.393 . S
C589 C588 1.391 . S
C590 H580 0.950 . S
C590 C591 1.386 . S
C590 C592 1.391 . S
C591 C590 1.386 . S
C591 C595 1.393 . S
C592 H581 0.950 1_556 S
C592 C590 1.391 . S
C592 C593 1.400 . S
C593 C587 1.491 1_556 S
C593 C592 1.400 . S
C593 C594 1.398 . S
C594 H582 0.950 . S
C594 C593 1.398 . S
C594 C595 1.391 . S
C595 H583 0.950 . S
C595 C591 1.393 . S
C595 C594 1.391 . S
H596 C604 0.950 . S
H597 C609 0.950 . S
H598 C606 0.950 . S
H599 C608 0.950 . S
H600 C610 0.950 . S
H601 C612 0.950 . S
H602 C614 0.950 . S
H603 C615 0.950 . S
C604 H596 0.950 . S
C604 C605 1.386 . S
C604 C606 1.391 . S
C605 C604 1.386 . S
C605 C609 1.393 . S
C606 H598 0.950 . S
C606 C604 1.391 . S
C606 C607 1.400 . S
C607 C606 1.400 . S
C607 C608 1.398 . S
C607 C613 1.491 . S
C608 H599 0.950 . S
C608 C607 1.398 . S
C608 C609 1.391 . S
C609 H597 0.950 . S
C609 C605 1.393 . S
C609 C608 1.391 . S
C610 H600 0.950 . S
C610 C611 1.386 . S
C610 C612 1.391 . S
C611 C610 1.386 . S
C611 C615 1.393 . S
C612 H601 0.950 . S
C612 C610 1.391 . S
C612 C613 1.400 . S
C613 C607 1.491 . S
C613 C612 1.400 . S
C613 C614 1.398 . S
C614 H602 0.950 . S
C614 C613 1.398 . S
C614 C615 1.391 . S
C615 H603 0.950 . S
C615 C611 1.393 . S
C615 C614 1.391 . S
H616 C624 0.950 . S
H617 C629 0.950 . S
H618 C626 0.950 . S
H619 C628 0.950 . S
H620 C630 0.950 . S
H621 C632 0.950 . S
H622 C634 0.950 . S
H623 C635 0.950 . S
C624 H616 0.950 . S
C624 C625 1.386 1_554 S
C624 C626 1.391 . S
C625 C624 1.386 1_556 S
C625 C629 1.393 . S
C626 H618 0.950 . S
C626 C624 1.391 . S
C626 C627 1.400 1_554 S
C627 C626 1.400 1_556 S
C627 C628 1.398 . S
C627 C633 1.491 1_556 S
C628 H619 0.950 . S
C628 C627 1.398 . S
C628 C629 1.391 . S
C629 H617 0.950 . S
C629 C625 1.393 . S
C629 C628 1.391 . S
C630 H620 0.950 . S
C630 C631 1.386 1_556 S
C630 C632 1.391 . S
C631 C630 1.386 1_554 S
C631 C635 1.393 . S
C632 H621 0.950 . S
C632 C630 1.391 . S
C632 C633 1.400 1_556 S
C633 C627 1.491 1_554 S
C633 C632 1.400 1_554 S
C633 C634 1.398 . S
C634 H622 0.950 . S
C634 C633 1.398 . S
C634 C635 1.391 . S
C635 H623 0.950 . S
C635 C631 1.393 . S
C635 C634 1.391 . S
H636 C644 0.950 . S
H637 C649 0.950 . S
H638 C646 0.950 . S
H639 C648 0.950 . S
H640 C650 0.950 . S
H641 C652 0.950 . S
H642 C654 0.950 . S
H643 C655 0.950 . S
C644 H636 0.950 . S
C644 C645 1.386 . S
C644 C646 1.391 . S
C645 C644 1.386 . S
C645 C649 1.393 . S
C646 H638 0.950 . S
C646 C644 1.391 . S
C646 C647 1.400 . S
C647 C646 1.400 . S
C647 C648 1.398 . S
C647 C653 1.491 . S
C648 H639 0.950 . S
C648 C647 1.398 . S
C648 C649 1.391 . S
C649 H637 0.950 . S
C649 C645 1.393 . S
C649 C648 1.391 . S
C650 H640 0.950 . S
C650 C651 1.386 . S
C650 C652 1.391 . S
C651 C650 1.386 . S
C651 C655 1.393 . S
C652 H641 0.950 . S
C652 C650 1.391 . S
C652 C653 1.400 . S
C653 C647 1.491 . S
C653 C652 1.400 . S
C653 C654 1.398 . S
C654 H642 0.950 . S
C654 C653 1.398 . S
C654 C655 1.391 . S
C655 H643 0.950 . S
C655 C651 1.393 . S
C655 C654 1.391 . S
C185 C10 1.380 . S
C191 C87 1.394 . S
C205 C51 1.384 . S
C211 C32 1.382 . S
C225 C29 1.377 . S
C231 C52 1.350 . S
C245 C7 1.372 . S
C251 C76 1.352 . S
C265 C175 1.385 . S
C271 C98 1.383 . S
C285 C120 1.367 . S
C291 C139 1.393 . S
C305 C117 1.381 . S
C311 C140 1.354 . S
C325 C95 1.382 . S
C331 C164 1.358 . S
C345 C15 0.852 . S
C351 C65 0.851 . S
C365 C81 0.845 . S
C371 C37 0.847 . S
C385 C103 0.848 . S
C391 C153 0.847 . S
C405 C125 0.809 . S
C411 C169 0.806 . S
C425 C18 2.021 . S
C431 C62 2.032 . S
C445 C40 2.004 . S
C451 C74 2.017 . S
C465 C150 2.020 . S
C471 C106 2.009 . S
C485 C162 2.018 . S
C491 C128 2.007 . S
C505 C21 1.499 . S
C511 C43 1.491 . S
C525 C59 1.493 . S
C531 C73 1.481 . S
C545 C109 1.500 . S
C551 C131 1.487 . S
C565 C161 1.490 . S
C571 C147 1.484 . S
C585 C8 1.427 . S
C591 C142 1.425 . S
C605 C30 1.417 . S
C611 C172 1.417 . S
C625 C54 1.412 . S
C631 C96 1.414 . S
C645 C118 1.416 . S
C651 C84 1.416 . S
