# Generated by pormake.
# Topology uoj, (4)-cn, num edge types: 1
# Building blocks:
#     Node 0, Type 0, BuildingBlock: KOZSID_clean_sbu_0, # of connection points: 4
#     Node 1, Type 0, BuildingBlock: KOZSID_clean_sbu_0, # of connection points: 4
#     Node 2, Type 0, BuildingBlock: KOZSID_clean_sbu_0, # of connection points: 4
#     Node 3, Type 0, BuildingBlock: KOZSID_clean_sbu_0, # of connection points: 4
#     Node 4, Type 0, BuildingBlock: KOZSID_clean_sbu_0, # of connection points: 4
#     Node 5, Type 0, BuildingBlock: KOZSID_clean_sbu_0, # of connection points: 4
#     Node 6, Type 0, BuildingBlock: KOZSID_clean_sbu_0, # of connection points: 4
#     Node 7, Type 0, BuildingBlock: KOZSID_clean_sbu_0, # of connection points: 4
#     Edge 8, Type (0, 0), BuildingBlock: MIFKUJ_clean_linker_0, # of connection points: 2
#     Edge 9, Type (0, 0), BuildingBlock: MIFKUJ_clean_linker_0, # of connection points: 2
#     Edge 10, Type (0, 0), BuildingBlock: MIFKUJ_clean_linker_0, # of connection points: 2
#     Edge 11, Type (0, 0), BuildingBlock: MIFKUJ_clean_linker_0, # of connection points: 2
#     Edge 12, Type (0, 0), BuildingBlock: MIFKUJ_clean_linker_0, # of connection points: 2
#     Edge 13, Type (0, 0), BuildingBlock: MIFKUJ_clean_linker_0, # of connection points: 2
#     Edge 14, Type (0, 0), BuildingBlock: MIFKUJ_clean_linker_0, # of connection points: 2
#     Edge 15, Type (0, 0), BuildingBlock: MIFKUJ_clean_linker_0, # of connection points: 2
#     Edge 16, Type (0, 0), BuildingBlock: MIFKUJ_clean_linker_0, # of connection points: 2
#     Edge 17, Type (0, 0), BuildingBlock: MIFKUJ_clean_linker_0, # of connection points: 2
#     Edge 18, Type (0, 0), BuildingBlock: MIFKUJ_clean_linker_0, # of connection points: 2
#     Edge 19, Type (0, 0), BuildingBlock: MIFKUJ_clean_linker_0, # of connection points: 2
#     Edge 20, Type (0, 0), BuildingBlock: MIFKUJ_clean_linker_0, # of connection points: 2
#     Edge 21, Type (0, 0), BuildingBlock: MIFKUJ_clean_linker_0, # of connection points: 2
#     Edge 22, Type (0, 0), BuildingBlock: MIFKUJ_clean_linker_0, # of connection points: 2
#     Edge 23, Type (0, 0), BuildingBlock: MIFKUJ_clean_linker_0, # of connection points: 2
# Relax obj value: 0.031
# Max RMSD: 0.310
# Mean RMSD: 0.294
data_MOF--net-uoj--node1-KOZSID_clean_sbu_0--edge1-MIFKUJ_clean_linker_0
_symmetry_space_group_name_H-M    P1
_symmetry_Int_Tables_number       1
_symmetry_cell_setting            triclinic
loop_
_symmetry_equiv_pos_as_xyz
'x, y, z'
_cell_length_a     48.655583
_cell_length_b     50.906296
_cell_length_c     59.24593
_cell_angle_alpha  90.394091
_cell_angle_beta   89.973657
_cell_angle_gamma 93.71386
loop_
_atom_site_label
_atom_site_type_symbol
_atom_site_fract_x
_atom_site_fract_y
_atom_site_fract_z
_atom_type_partial_charge
C0 C 0.10969 0.31373 0.39834 0.0
C1 C 0.13546 0.32449 0.40467 0.0
C2 C 0.13874 0.31851 0.42707 0.0
C3 C 0.11479 0.30461 0.43326 0.0
N4 N 0.09668 0.30151 0.41619 0.0
Co5 Co 0.05875 0.28434 0.4184 0.0
N6 N 0.05869 0.28519 0.45219 0.0
C7 C 0.08142 0.2894 0.46507 0.0
C8 C 0.07621 0.28651 0.48772 0.0
C9 C 0.04861 0.27941 0.48926 0.0
C10 C 0.03836 0.27842 0.4674 0.0
N11 N 0.02041 0.2678 0.42007 0.0
C12 C 1.00273 0.26448 0.43778 0.0
C13 C 0.97746 0.25293 0.4308 0.0
C14 C 0.9798 0.24756 0.40831 0.0
C15 C 1.00606 0.25651 0.4027 0.0
N16 N 0.05895 0.28234 0.38479 0.0
C17 C 0.04163 0.26695 0.37194 0.0
C18 C 0.04732 0.26861 0.34931 0.0
C19 C 0.06955 0.28633 0.3477 0.0
C20 C 0.07596 0.29472 0.36955 0.0
N21 N 0.07438 0.24931 0.41995 0.0
C22 C 0.10528 0.20584 0.43126 0.0
C23 C 0.07968 0.20961 0.44137 0.0
C24 C 0.06456 0.23106 0.43534 0.0
C25 C 0.11375 0.2233 0.4139 0.0
C26 C 0.09803 0.24465 0.40845 0.0
N27 N 0.04462 0.32004 0.41744 0.0
C28 C 0.02268 0.35484 0.39787 0.0
C29 C 0.03463 0.37408 0.41276 0.0
C30 C 0.05011 0.36513 0.43074 0.0
C31 C 0.05496 0.33851 0.43264 0.0
C32 C 0.02781 0.32797 0.40056 0.0
H33 H 0.06832 0.33332 0.44605 0.0
H34 H 0.01902 0.31384 0.3885 0.0
H35 H 0.04566 0.23352 0.44421 0.0
H36 H 0.10583 0.25813 0.39565 0.0
C37 C 0.10676 0.2979 0.45533 0.0
C38 C 0.09858 0.3141 0.37511 0.0
C39 C 1.01022 0.26774 0.46174 0.0
C40 C 1.01744 0.25556 0.38115 0.0
H41 H 0.1503 0.33559 0.3943 0.0
H42 H 0.15606 0.32459 0.43777 0.0
H43 H 0.09076 0.28913 0.50149 0.0
H44 H 0.03748 0.27462 0.50467 0.0
H45 H 0.95959 0.24775 0.44113 0.0
H46 H 0.96427 0.23808 0.39738 0.0
H47 H 0.03584 0.25911 0.33553 0.0
H48 H 0.07963 0.29258 0.33217 0.0
H49 H 0.07179 0.19692 0.45478 0.0
H50 H 0.13275 0.22093 0.40483 0.0
H51 H 1.01033 0.36052 0.38374 0.0
H52 H 0.05909 0.37871 0.44325 0.0
C53 C 0.36868 0.96048 0.58124 0.0
C54 C 0.39022 0.95231 0.56809 0.0
C55 C 0.379 0.93406 0.55316 0.0
C56 C 0.35138 0.93208 0.558 0.0
N57 N 0.34432 0.948 0.57499 0.0
Co58 Co 0.30642 0.95088 0.58726 0.0
N59 N 0.29261 0.91708 0.57244 0.0
C60 C 0.30626 0.90372 0.55674 0.0
C61 C 0.29211 0.88118 0.54931 0.0
C62 C 0.26763 0.88039 0.5606 0.0
C63 C 0.26813 0.90271 0.57429 0.0
N64 N 0.2682 0.95406 0.5989 0.0
C65 C 0.24508 0.93751 0.5969 0.0
C66 C 0.22224 0.94917 0.60542 0.0
C67 C 0.2311 0.974 0.61244 0.0
C68 C 0.25882 0.97619 0.60788 0.0
N69 N 0.32095 0.98414 0.60235 0.0
C70 C 0.30556 1.00277 0.611 0.0
C71 C 0.32116 0.02336 0.62065 0.0
C72 C 0.34809 0.01731 0.61785 0.0
C73 C 0.34743 0.9933 0.60664 0.0
N74 N 0.29593 0.97132 0.56041 0.0
C75 C 0.27096 1.00807 0.53243 0.0
C76 C 0.29733 1.01368 0.54178 0.0
C77 C 0.30959 0.99494 0.5553 0.0
C78 C 0.25908 0.98246 0.53548 0.0
C79 C 0.27172 0.96463 0.54937 0.0
N80 N 0.31618 0.93159 0.61475 0.0
C81 C 0.31782 0.93083 0.65555 0.0
C82 C 0.33391 0.90906 0.65532 0.0
C83 C 0.34015 0.89809 0.63421 0.0
C84 C 0.33129 0.90979 0.61411 0.0
C85 C 0.309 0.94148 0.63533 0.0
H86 H 0.33713 0.90154 0.59813 0.0
H87 H 0.29688 0.95831 0.63652 0.0
H88 H 0.32942 1.00033 0.56271 0.0
H89 H 0.26076 0.94601 0.55207 0.0
C90 C 0.33282 0.91218 0.55015 0.0
C91 C 0.37222 0.98056 0.59902 0.0
C92 C 0.24321 0.91183 0.58507 0.0
C93 C 0.27689 0.99819 0.61259 0.0
H94 H 0.41184 0.9586 0.56933 0.0
H95 H 0.38991 0.92257 0.54106 0.0
H96 H 0.29868 0.86714 0.53694 0.0
H97 H 0.25076 0.86575 0.55809 0.0
H98 H 0.20119 0.94086 0.60582 0.0
H99 H 0.21873 0.98879 0.61976 0.0
H100 H 0.31386 0.04031 0.62937 0.0
H101 H 0.36614 0.0292 0.62333 0.0
H102 H 0.30796 0.03284 0.53973 0.0
H103 H 0.23953 0.97628 0.5278 0.0
H104 H 0.31209 0.93975 0.67138 0.0
H105 H 0.35249 0.88118 0.6332 0.0
C106 C 0.93089 0.71888 0.39405 0.0
C107 C 0.91023 0.69944 0.39823 0.0
C108 C 0.91403 0.69101 0.41984 0.0
C109 C 0.93678 0.70562 0.42768 0.0
N110 N 0.94727 0.72328 0.41259 0.0
Co111 Co 0.98269 0.74516 0.4166 0.0
N112 N 0.98492 0.73743 0.44958 0.0
C113 C 0.96969 0.71853 0.46049 0.0
C114 C 0.97549 0.71778 0.48317 0.0
C115 C 0.99575 0.73742 0.48678 0.0
C116 C 1.0012 0.74909 0.46606 0.0
N117 N 0.01859 0.76619 0.4202 0.0
C118 C 0.03239 0.77477 0.43906 0.0
C119 C 0.05674 0.78908 0.43361 0.0
C120 C 0.05835 0.78948 0.41063 0.0
C121 C 0.03497 0.77552 0.40332 0.0
N122 N 0.98041 0.75407 0.38382 0.0
C123 C 1.00026 0.76699 0.37156 0.0
C124 C 0.99254 0.77195 0.34985 0.0
C125 C 0.96631 0.76097 0.34798 0.0
C126 C 0.95966 0.7495 0.36866 0.0
N127 N 0.96206 0.77638 0.42434 0.0
C128 C 0.93167 0.81973 0.43731 0.0
C129 C 0.95523 0.82317 0.42357 0.0
C130 C 0.96994 0.80126 0.41711 0.0
C131 C 0.92398 0.79414 0.44441 0.0
C132 C 0.93937 0.77305 0.43798 0.0
N133 N 1.0023 0.71294 0.40953 0.0
C134 C 1.00029 0.67123 0.3895 0.0
C135 C 1.01497 0.6594 0.40661 0.0
C136 C 0.02591 0.67599 0.42395 0.0
C137 C 0.01967 0.70268 0.42491 0.0
C138 C 0.9944 0.69774 0.39119 0.0
H139 H 0.0276 0.71449 0.43893 0.0
H140 H 0.98189 0.70517 0.37817 0.0
H141 H 0.98769 0.80454 0.40637 0.0
H142 H 0.93282 0.75401 0.4444 0.0
C143 C 0.94829 0.70405 0.44929 0.0
C144 C 0.93607 0.7303 0.3715 0.0
C145 C 0.0235 0.76962 0.46234 0.0
C146 C 0.02536 0.77532 0.38124 0.0
H147 H 0.89464 0.6915 0.3866 0.0
H148 H 0.90189 0.67575 0.42866 0.0
H149 H 0.96575 0.70489 0.49569 0.0
H150 H 1.00565 0.74237 0.50274 0.0
H151 H 0.07158 0.79864 0.44503 0.0
H152 H 0.07395 0.79995 0.4005 0.0
H153 H 1.00462 0.78215 0.33688 0.0
H154 H 0.954 0.76019 0.33274 0.0
H155 H 0.96203 0.84256 0.41758 0.0
H156 H 0.90633 0.79038 0.45535 0.0
H157 H 0.99246 0.65988 0.37509 0.0
H158 H 0.03797 0.66821 0.4374 0.0
C159 C 0.66837 0.06896 0.58212 0.0
C160 C 0.64634 0.07598 0.56907 0.0
C161 C 0.65669 0.09414 0.55392 0.0
C162 C 0.68432 0.09722 0.55855 0.0
N163 N 0.69221 0.08209 0.57562 0.0
Co164 Co 0.73046 0.08092 0.58759 0.0
N165 N 0.74275 0.11474 0.57246 0.0
C166 C 0.72829 0.12715 0.55683 0.0
C167 C 0.74151 0.14979 0.54892 0.0
C168 C 0.76624 0.1517 0.55981 0.0
C169 C 0.76682 0.12993 0.57383 0.0
N170 N 0.76912 0.07932 0.5987 0.0
C171 C 0.79162 0.09658 0.59639 0.0
C172 C 0.81507 0.08591 0.60474 0.0
C173 C 0.80725 0.06098 0.61187 0.0
C174 C 0.77951 0.05774 0.60759 0.0
N175 N 0.71739 0.04774 0.60313 0.0
C176 C 0.73361 0.03002 0.61189 0.0
C177 C 0.71889 1.00929 0.62194 0.0
C178 C 0.69164 1.0143 0.6193 0.0
C179 C 0.69125 0.03786 0.60777 0.0
N180 N 0.74135 0.0602 0.56078 0.0
C181 C 0.76754 0.02317 0.53352 0.0
C182 C 0.74125 0.01722 0.54285 0.0
C183 C 0.72838 0.03608 0.55603 0.0
C184 C 0.77866 0.04915 0.53614 0.0
C185 C 0.76537 0.06716 0.54963 0.0
N186 N 0.7203 0.10038 0.61518 0.0
C187 C 0.7212 0.10247 0.65599 0.0
C188 C 0.70113 0.12098 0.65655 0.0
C189 C 0.69188 0.13003 0.6356 0.0
C190 C 0.70175 0.11954 0.61515 0.0
C191 C 0.73025 0.09248 0.63548 0.0
H192 H 0.69378 0.12638 0.59941 0.0
H193 H 0.74472 0.07751 0.63634 0.0
H194 H 0.70872 0.03041 0.56357 0.0
H195 H 0.77577 0.08618 0.55203 0.0
C196 C 0.70199 0.11755 0.55049 0.0
C197 C 0.66581 0.0494 0.60014 0.0
C198 C 0.7923 0.12205 0.58452 0.0
C199 C 0.76222 0.03546 0.61291 0.0
H200 H 0.62492 0.06904 0.57053 0.0
H201 H 0.64518 0.1049 0.54183 0.0
H202 H 0.73422 0.16312 0.53643 0.0
H203 H 0.78251 0.16673 0.55674 0.0
H204 H 0.83582 0.09496 0.60499 0.0
H205 H 0.82029 0.04687 0.61921 0.0
H206 H 0.72696 0.99291 0.63075 0.0
H207 H 0.67408 1.002 0.62505 0.0
H208 H 0.7312 0.99773 0.54109 0.0
H209 H 0.79814 0.05549 0.52845 0.0
H210 H 0.72984 0.09529 0.67144 0.0
H211 H 0.67649 0.14443 0.63494 0.0
C212 C 0.42673 0.76412 0.96494 0.0
C213 C 0.40454 0.76103 0.9797 0.0
C214 C 0.40065 0.78527 0.9886 0.0
C215 C 0.42036 0.8018 0.97868 0.0
N216 N 0.43649 0.7897 0.96389 0.0
Co217 Co 0.46609 0.8074 0.94485 0.0
N218 N 0.46576 0.841 0.96282 0.0
C219 C 0.44818 0.84591 0.97969 0.0
C220 C 0.4531 0.87011 0.98969 0.0
C221 C 0.47482 0.88171 0.97813 0.0
C222 C 0.48168 0.86398 0.96145 0.0
N223 N 0.49463 0.82607 0.92512 0.0
C224 C 0.50579 0.85147 0.9256 0.0
C225 C 0.52179 0.85689 0.90662 0.0
C226 C 0.52019 0.83455 0.89355 0.0
C227 C 0.5033 0.81673 0.90516 0.0
N228 N 0.467 0.77333 0.92781 0.0
C229 C 0.47987 0.77001 0.908 0.0
C230 C 0.47777 0.74438 0.90045 0.0
C231 C 0.46249 0.73064 0.91647 0.0
C232 C 0.45592 0.74871 0.93291 0.0
N233 N 0.43775 0.8193 0.92354 0.0
C234 C 0.41225 0.83361 0.88259 0.0
C235 C 0.40939 0.80768 0.89087 0.0
C236 C 0.42149 0.8012 0.91151 0.0
C237 C 0.42526 0.8526 0.89708 0.0
C238 C 0.43782 0.8451 0.91715 0.0
N239 N 0.49517 0.79448 0.96497 0.0
C240 C 0.53794 0.77265 0.96751 0.0
C241 C 0.53373 0.76686 0.99039 0.0
C242 C 0.51027 0.77673 1.00061 0.0
C243 C 0.49135 0.79045 0.98768 0.0
C244 C 0.51873 0.78618 0.95531 0.0
H245 H 0.47327 0.797 0.99597 0.0
H246 H 0.52277 0.78886 0.93768 0.0
H247 H 0.41903 0.78102 0.91688 0.0
H248 H 0.44874 0.86028 0.9267 0.0
C249 C 0.42701 0.82759 0.98546 0.0
C250 C 0.43752 0.74221 0.95222 0.0
C251 C 0.49951 0.87187 0.94233 0.0
C252 C 0.49557 0.79094 0.89817 0.0
H253 H 0.39253 0.74311 0.98386 0.0
H254 H 0.38592 0.79004 1.00146 0.0
H255 H 0.44175 0.87861 1.00334 0.0
H256 H 0.48354 0.9016 0.98076 0.0
H257 H 0.53267 0.87537 0.90229 0.0
H258 H 0.52978 0.83181 0.87729 0.0
H259 H 0.48672 0.7365 0.88532 0.0
H260 H 0.45661 0.70978 0.91597 0.0
H261 H 0.39908 0.79193 0.88115 0.0
H262 H 0.42668 0.87326 0.89282 0.0
H263 H 0.55595 0.76641 0.95874 0.0
H264 H 0.50596 0.77309 0.01828 0.0
C265 C 0.74924 0.59006 0.09834 0.0
C266 C 0.72531 0.5786 0.10776 0.0
C267 C 0.73157 0.55443 0.11568 0.0
C268 C 0.75892 0.55236 0.11068 0.0
N269 N 0.77049 0.57395 0.10051 0.0
Co270 Co 0.80893 0.577 0.08838 0.0
N271 N 0.82049 0.54595 0.10552 0.0
C272 C 0.80331 0.52782 0.11549 0.0
C273 C 0.81702 0.5088 0.12637 0.0
C274 C 0.84458 0.51535 0.12297 0.0
C275 C 0.8462 0.53806 0.11014 0.0
N276 N 0.84698 0.57971 0.07559 0.0
C277 C 0.87028 0.5687 0.08235 0.0
C278 C 0.89225 0.57576 0.06819 0.0
C279 C 0.88246 0.59192 0.05216 0.0
C280 C 0.85517 0.59375 0.05733 0.0
N281 N 0.79816 0.60859 0.07143 0.0
C282 C 0.81282 0.6206 0.05469 0.0
C283 C 0.80099 0.64213 0.04618 0.0
C284 C 0.77701 0.64367 0.05793 0.0
C285 C 0.77535 0.62268 0.07285 0.0
N286 N 0.82101 0.59948 0.11444 0.0
C287 C 0.83979 0.62737 0.15358 0.0
C288 C 0.85024 0.63415 0.13208 0.0
C289 C 0.84031 0.6202 0.11269 0.0
C290 C 0.81969 0.60655 0.15484 0.0
C291 C 0.81091 0.59286 0.13537 0.0
N292 N 0.79601 0.55336 0.06311 0.0
C293 C 0.75741 0.53709 0.04004 0.0
C294 C 0.76851 0.5125 0.03728 0.0
C295 C 0.79512 0.50989 0.04597 0.0
C296 C 0.80854 0.53054 0.0586 0.0
C297 C 0.77142 0.5571 0.05273 0.0
H298 H 0.8284 0.52734 0.06582 0.0
H299 H 0.76129 0.57501 0.05517 0.0
H300 H 0.84855 0.62591 0.09641 0.0
H301 H 0.79629 0.57639 0.13758 0.0
C302 C 0.77499 0.53154 0.11676 0.0
C303 C 0.75001 0.61478 0.08531 0.0
C304 C 0.87227 0.55075 0.10145 0.0
C305 C 0.83839 0.61217 0.04835 0.0
H306 H 0.70522 0.58657 0.10823 0.0
H307 H 0.7178 0.54009 0.12408 0.0
H308 H 0.80812 0.49256 0.13621 0.0
H309 H 0.86152 0.50462 0.12911 0.0
H310 H 0.91323 0.57004 0.06942 0.0
H311 H 0.89419 0.60216 0.039 0.0
H312 H 0.80887 0.65518 0.033 0.0
H313 H 0.7619 0.65801 0.05517 0.0
H314 H 0.8658 0.65019 0.13023 0.0
H315 H 0.81128 0.60022 0.171 0.0
H316 H 0.7375 0.54073 0.03299 0.0
H317 H 0.80499 0.49154 0.0441 0.0
C318 C 0.61156 0.26376 0.96427 0.0
C319 C 0.63215 0.26677 0.98053 0.0
C320 C 0.63068 0.24436 0.99301 0.0
C321 C 0.60941 0.22896 0.98379 0.0
N322 N 0.5973 0.2399 0.96602 0.0
Co323 Co 0.5653 0.22359 0.94823 0.0
N324 N 0.56522 0.18983 0.96564 0.0
C325 C 0.57952 0.18607 0.98467 0.0
C326 C 0.5735 0.16213 0.99458 0.0
C327 C 0.55413 0.14967 0.98095 0.0
C328 C 0.54966 0.16673 0.96336 0.0
N329 N 0.53431 0.20616 0.92992 0.0
C330 C 0.52411 0.18039 0.92893 0.0
C331 C 0.50426 0.17676 0.91225 0.0
C332 C 0.50172 0.20086 0.90256 0.0
C333 C 0.52025 0.21784 0.91369 0.0
N334 N 0.56437 0.25798 0.93199 0.0
C335 C 0.54591 0.26359 0.91613 0.0
C336 C 0.54892 0.28915 0.90878 0.0
C337 C 0.57061 0.30056 0.92086 0.0
C338 C 0.57961 0.2813 0.93497 0.0
N339 N 0.5915 0.21078 0.92501 0.0
C340 C 0.61581 0.19613 0.88339 0.0
C341 C 0.62024 0.22165 0.89238 0.0
C342 C 0.60836 0.22837 0.91312 0.0
C343 C 0.60142 0.17751 0.89707 0.0
C344 C 0.59003 0.18509 0.91775 0.0
N345 N 0.53835 0.23743 0.97035 0.0
C346 C 0.49123 0.23845 0.98407 0.0
C347 C 0.49677 0.26328 0.9942 0.0
C348 C 0.52394 0.27403 0.99319 0.0
C349 C 0.54409 0.26109 0.98121 0.0
C350 C 0.51228 0.22569 0.97275 0.0
H351 H 0.56396 0.27122 0.98022 0.0
H352 H 0.50698 0.20664 0.96542 0.0
H353 H 0.6123 0.24822 0.91888 0.0
H354 H 0.57933 0.17002 0.92723 0.0
C355 C 0.59973 0.20463 0.99193 0.0
C356 C 0.60375 0.28554 0.94996 0.0
C357 C 0.5324 0.15904 0.94382 0.0
C358 C 0.52637 0.24428 0.90843 0.0
H359 H 0.64594 0.28388 0.98388 0.0
H360 H 0.64311 0.24013 1.00753 0.0
H361 H 0.58257 0.15442 1.00963 0.0
H362 H 0.54484 0.12998 0.98332 0.0
H363 H 0.49285 0.15863 0.9075 0.0
H364 H 0.4884 0.20532 0.88866 0.0
H365 H 0.53687 0.29837 0.89608 0.0
H366 H 0.57906 0.32066 0.9193 0.0
H367 H 0.63248 0.23664 0.88332 0.0
H368 H 0.5978 0.15727 0.89154 0.0
H369 H 0.47068 0.22895 0.98477 0.0
H370 H 0.52946 0.29309 1.00074 0.0
C371 C 0.28278 0.44654 0.09796 0.0
C372 C 0.30717 0.45826 0.10649 0.0
C373 C 0.30124 0.48245 0.11479 0.0
C374 C 0.27364 0.48433 0.11084 0.0
N375 N 0.26155 0.46258 0.101 0.0
Co376 Co 0.22263 0.45967 0.08972 0.0
N377 N 0.21203 0.49154 0.10673 0.0
C378 C 0.22976 0.50944 0.11658 0.0
C379 C 0.2168 0.52929 0.12723 0.0
C380 C 0.18912 0.52358 0.12379 0.0
C381 C 0.18667 0.50049 0.1112 0.0
N382 N 0.18416 0.45714 0.0775 0.0
C383 C 0.16132 0.46929 0.08399 0.0
C384 C 0.13861 0.46077 0.07104 0.0
C385 C 0.14749 0.44302 0.05579 0.0
C386 C 0.17493 0.44146 0.06033 0.0
N387 N 0.23235 0.42702 0.07328 0.0
C388 C 0.21638 0.41349 0.05804 0.0
C389 C 0.22698 0.39067 0.05071 0.0
C390 C 0.25158 0.38981 0.06161 0.0
C391 C 0.25489 0.41258 0.07467 0.0
N392 N 0.2108 0.43836 0.11643 0.0
C393 C 0.19208 0.41277 0.15651 0.0
C394 C 0.18043 0.4058 0.13539 0.0
C395 C 0.19034 0.41853 0.11555 0.0
C396 C 0.21341 0.43252 0.15693 0.0
C397 C 0.22212 0.44511 0.13702 0.0
N398 N 0.23539 0.48224 0.06386 0.0
C399 C 0.27331 0.49628 0.03916 0.0
C400 C 0.26409 0.52173 0.03784 0.0
C401 C 0.23879 0.5262 0.04808 0.0
C402 C 0.22444 0.50606 0.0604 0.0
C403 C 0.25883 0.47698 0.05221 0.0
H404 H 0.20526 0.51044 0.06824 0.0
H405 H 0.26781 0.45838 0.05388 0.0
H406 H 0.18111 0.41259 0.09963 0.0
H407 H 0.23767 0.46092 0.13865 0.0
C408 C 0.25798 0.50535 0.11731 0.0
C409 C 0.28139 0.42152 0.08502 0.0
C410 C 0.16019 0.48912 0.10204 0.0
C411 C 0.19076 0.42179 0.05212 0.0
H412 H 0.32735 0.45051 0.10613 0.0
H413 H 0.31542 0.49701 0.12264 0.0
H414 H 0.22628 0.54571 0.13672 0.0
H415 H 0.17263 0.53526 0.12953 0.0
H416 H 0.1176 0.46626 0.07268 0.0
H417 H 0.13502 0.43142 0.04377 0.0
H418 H 0.21785 0.37629 0.03893 0.0
H419 H 0.26595 0.37464 0.05946 0.0
H420 H 0.16393 0.39053 0.13417 0.0
H421 H 0.22283 0.43892 0.17277 0.0
H422 H 0.29255 0.49172 0.03128 0.0
H423 H 0.23041 0.54535 0.04703 0.0
H424 H 0.13898 0.40612 0.17277 0.0
H425 H 0.12391 0.39054 0.21032 0.0
H426 H 0.20773 0.3762 0.2272 0.0
H427 H 0.22288 0.39216 0.18996 0.0
H428 H 0.16821 0.33474 0.24079 0.0
H429 H 0.18281 0.42956 0.24675 0.0
H430 H 0.17526 0.47513 0.23563 0.0
H431 H 0.08887 0.46203 0.24961 0.0
H432 H 0.09586 0.41624 0.26049 0.0
H433 H 0.15104 0.31188 0.35748 0.0
H434 H 0.1684 0.3304 0.32174 0.0
H435 H 0.09158 0.36658 0.3118 0.0
H436 H 0.07516 0.34963 0.34828 0.0
H437 H 0.12755 0.39712 0.29399 0.0
H438 H 0.10949 0.30427 0.28694 0.0
H439 H 0.11308 0.25754 0.29644 0.0
H440 H 0.19978 0.26445 0.28217 0.0
H441 H 0.19679 0.31138 0.27293 0.0
C442 C 0.15412 0.39929 0.18437 0.0
C443 C 0.18216 0.4004 0.17827 0.0
C444 C 0.14552 0.39054 0.20593 0.0
C445 C 0.16467 0.38229 0.22181 0.0
C446 C 0.19249 0.38244 0.21539 0.0
C447 C 0.20115 0.39162 0.19405 0.0
C448 C 0.156 0.37427 0.2453 0.0
C449 C 0.15961 0.34847 0.25251 0.0
C450 C 0.14397 0.39181 0.26053 0.0
C451 C 0.13982 0.4194 0.25422 0.0
C452 C 0.16217 0.43633 0.24728 0.0
C453 C 0.158 0.46221 0.24105 0.0
C454 C 0.13159 0.47145 0.24186 0.0
C455 C 0.10931 0.45484 0.24896 0.0
C456 C 0.11337 0.42893 0.25518 0.0
C457 C 0.13835 0.32471 0.34813 0.0
C458 C 0.11189 0.32968 0.35602 0.0
C459 C 0.14802 0.33484 0.32732 0.0
C460 C 0.13112 0.34941 0.31338 0.0
C461 C 0.10521 0.35542 0.32188 0.0
C462 C 0.09581 0.34578 0.34287 0.0
C463 C 0.13975 0.35741 0.28972 0.0
C464 C 0.13613 0.38325 0.28239 0.0
C465 C 0.15113 0.33967 0.27416 0.0
C466 C 0.15297 0.3114 0.27946 0.0
C467 C 0.12936 0.29586 0.28595 0.0
C468 C 0.13128 0.26934 0.29129 0.0
C469 C 0.15666 0.25805 0.28995 0.0
C470 C 0.18015 0.27324 0.28322 0.0
C471 C 0.17835 0.2998 0.27793 0.0
H472 H 0.15811 0.23751 0.29409 0.0
H473 H 0.12839 0.49149 0.23702 0.0
H474 H 0.32878 0.85842 0.67191 0.0
H475 H 0.34209 0.84331 0.70957 0.0
H476 H 0.37579 0.92153 0.72578 0.0
H477 H 0.36207 0.93673 0.68853 0.0
H478 H 0.41032 0.88041 0.73886 0.0
H479 H 0.31537 0.90333 0.74563 0.0
H480 H 0.2662 0.89983 0.73521 0.0
H481 H 0.2615 0.81741 0.75083 0.0
H482 H 0.31078 0.82036 0.76105 0.0
H483 H 0.43068 0.87591 0.85581 0.0
H484 H 0.41686 0.8869 0.81811 0.0
H485 H 0.36161 0.81727 0.81552 0.0
H486 H 0.37283 0.80759 0.85444 0.0
H487 H 0.3382 0.85075 0.79388 0.0
H488 H 0.43047 0.8254 0.78798 0.0
H489 H 0.48001 0.82551 0.79683 0.0
H490 H 0.49107 0.90662 0.77743 0.0
H491 H 0.44152 0.90711 0.76874 0.0
C492 C 0.3393 0.87228 0.68343 0.0
C493 C 0.34432 0.8988 0.67719 0.0
C494 C 0.34677 0.86368 0.70502 0.0
C495 C 0.35985 0.88129 0.7207 0.0
C496 C 0.36573 0.90752 0.71412 0.0
C497 C 0.35782 0.91621 0.69279 0.0
C498 C 0.36686 0.87281 0.74414 0.0
C499 C 0.39455 0.87411 0.75096 0.0
C500 C 0.34646 0.86372 0.75982 0.0
C501 C 0.31682 0.86201 0.75386 0.0
C502 C 0.30391 0.88442 0.74666 0.0
C503 C 0.27601 0.88254 0.74083 0.0
C504 C 0.26075 0.8584 0.74229 0.0
C505 C 0.27335 0.83609 0.74967 0.0
C506 C 0.30126 0.83786 0.75549 0.0
C507 C 0.41501 0.86305 0.84778 0.0
C508 C 0.40309 0.84063 0.85895 0.0
C509 C 0.40756 0.86915 0.82562 0.0
C510 C 0.38876 0.85257 0.81323 0.0
C511 C 0.37641 0.83044 0.82432 0.0
C512 C 0.38326 0.82468 0.84678 0.0
C513 C 0.3819 0.85847 0.78894 0.0
C514 C 0.35417 0.85676 0.78188 0.0
C515 C 0.40238 0.86659 0.77283 0.0
C516 C 0.43223 0.86634 0.77789 0.0
C517 C 0.44344 0.8433 0.78572 0.0
C518 C 0.47152 0.84326 0.7907 0.0
C519 C 0.48866 0.86607 0.78774 0.0
C520 C 0.47776 0.88897 0.77973 0.0
C521 C 0.44969 0.88913 0.77475 0.0
H522 H 0.51039 0.866 0.79162 0.0
H523 H 0.23916 0.85698 0.73777 0.0
H524 H 0.88267 0.72919 0.35542 0.0
H525 H 0.86523 0.71174 0.31882 0.0
H526 H 0.94551 0.68527 0.30334 0.0
H527 H 0.96264 0.702 0.33986 0.0
H528 H 0.92382 0.71413 0.26808 0.0
H529 H 0.8955 0.64149 0.31614 0.0
H530 H 0.87183 0.62043 0.34876 0.0
H531 H 0.79425 0.64439 0.32444 0.0
H532 H 0.81754 0.66597 0.29183 0.0
H533 H 0.89315 0.63855 0.16796 0.0
H534 H 0.90874 0.65583 0.20485 0.0
H535 H 0.82434 0.66438 0.22443 0.0
H536 H 0.80882 0.64617 0.18798 0.0
H537 H 0.84761 0.64559 0.2581 0.0
H538 H 0.87405 0.71856 0.21067 0.0
H539 H 0.89653 0.74163 0.17845 0.0
H540 H 0.97555 0.72011 0.2016 0.0
H541 H 0.95351 0.69661 0.23382 0.0
C542 C 0.89637 0.71918 0.34436 0.0
C543 C 0.92401 0.71697 0.35059 0.0
C544 C 0.88647 0.70932 0.32338 0.0
C545 C 0.90408 0.69727 0.30811 0.0
C546 C 0.93151 0.69459 0.31462 0.0
C547 C 0.94124 0.70404 0.33562 0.0
C548 C 0.89435 0.68796 0.28517 0.0
C549 C 0.90733 0.69894 0.2659 0.0
C550 C 0.87235 0.66866 0.28215 0.0
C551 C 0.85831 0.6556 0.30168 0.0
C552 C 0.87343 0.64248 0.31785 0.0
C553 C 0.86008 0.63041 0.33632 0.0
C554 C 0.83156 0.63114 0.33871 0.0
C555 C 0.81634 0.64388 0.32259 0.0
C556 C 0.8296 0.65602 0.30411 0.0
C557 C 0.87797 0.64453 0.18001 0.0
C558 C 0.84973 0.64103 0.1749 0.0
C559 C 0.88689 0.65447 0.2012 0.0
C560 C 0.86784 0.66182 0.2177 0.0
C561 C 0.83963 0.65884 0.21231 0.0
C562 C 0.83073 0.64852 0.19132 0.0
C563 C 0.87703 0.67179 0.24074 0.0
C564 C 0.864 0.6609 0.26012 0.0
C565 C 0.89876 0.69149 0.24386 0.0
C566 C 0.91209 0.70561 0.22453 0.0
C567 C 0.8962 0.71859 0.2088 0.0
C568 C 0.90887 0.73176 0.19055 0.0
C569 C 0.93744 0.73227 0.18795 0.0
C570 C 0.95342 0.71966 0.20362 0.0
C571 C 0.94085 0.70643 0.22189 0.0
H572 H 0.94721 0.74248 0.17381 0.0
H573 H 0.82126 0.62178 0.35302 0.0
H574 H 0.63367 0.14881 0.86723 0.0
H575 H 0.64683 0.1375 0.82881 0.0
H576 H 0.63381 0.21647 0.8074 0.0
H577 H 0.61926 0.22761 0.84554 0.0
H578 H 0.61432 0.18397 0.7762 0.0
H579 H 0.70019 0.19307 0.81566 0.0
H580 H 0.73342 0.1849 0.84582 0.0
H581 H 0.72977 0.10281 0.82813 0.0
H582 H 0.69622 0.11043 0.79803 0.0
H583 H 0.68566 0.17048 0.66971 0.0
H584 H 0.6706 0.18457 0.70724 0.0
H585 H 0.67655 0.10571 0.73193 0.0
H586 H 0.69095 0.09146 0.6947 0.0
H587 H 0.70064 0.14025 0.76109 0.0
H588 H 0.61401 0.13152 0.7219 0.0
H589 H 0.58115 0.14017 0.69158 0.0
H590 H 0.58709 0.22249 0.70853 0.0
H591 H 0.6203 0.21437 0.73876 0.0
C592 C 0.63335 0.16384 0.85442 0.0
C593 C 0.62539 0.18928 0.8599 0.0
C594 C 0.64126 0.15736 0.83233 0.0
C595 C 0.64182 0.17616 0.81495 0.0
C596 C 0.63376 0.20151 0.82031 0.0
C597 C 0.62573 0.20798 0.84238 0.0
C598 C 0.65057 0.16937 0.79128 0.0
C599 C 0.63343 0.17477 0.77294 0.0
C600 C 0.67527 0.15693 0.78669 0.0
C601 C 0.69549 0.15229 0.80473 0.0
C602 C 0.70632 0.17324 0.81831 0.0
C603 C 0.72524 0.16872 0.83537 0.0
C604 C 0.73365 0.14334 0.83893 0.0
C605 C 0.72321 0.12245 0.82537 0.0
C606 C 0.70426 0.12686 0.80829 0.0
C607 C 0.68342 0.15603 0.68302 0.0
C608 C 0.69 0.12983 0.67897 0.0
C609 C 0.67484 0.16415 0.70459 0.0
C610 C 0.67246 0.14628 0.72268 0.0
C611 C 0.67847 0.12007 0.71851 0.0
C612 C 0.68688 0.11195 0.69706 0.0
C613 C 0.66431 0.15465 0.74608 0.0
C614 C 0.68159 0.14955 0.76436 0.0
C615 C 0.63983 0.16746 0.75057 0.0
C616 C 0.61988 0.17238 0.73242 0.0
C617 C 0.60849 0.1515 0.71903 0.0
C618 C 0.58977 0.1563 0.70189 0.0
C619 C 0.5821 0.18187 0.69808 0.0
C620 C 0.59309 0.2027 0.71146 0.0
C621 C 0.61185 0.19801 0.72861 0.0
H622 H 0.5676 0.18555 0.68481 0.0
H623 H 0.7483 0.13988 0.85215 0.0
H624 H 0.2909 0.05088 0.50677 0.0
H625 H 0.26469 0.0844 0.48862 0.0
H626 H 0.18899 0.04577 0.51261 0.0
H627 H 0.21478 1.01291 0.53143 0.0
H628 H 0.18474 0.05948 0.46816 0.0
H629 H 0.2156 0.10167 0.53753 0.0
H630 H 0.25014 0.11814 0.56553 0.0
H631 H 0.2893 0.1686 0.51562 0.0
H632 H 0.25519 0.15214 0.48722 0.0
H633 H 0.08971 0.15672 0.44882 0.0
H634 H 0.11877 0.12432 0.46467 0.0
H635 H 0.19122 0.17339 0.44759 0.0
H636 H 0.16221 0.20677 0.43301 0.0
H637 H 0.19929 0.15445 0.48683 0.0
H638 H 0.16882 0.11401 0.41756 0.0
H639 H 0.13543 0.09749 0.38868 0.0
H640 H 0.09734 0.04366 0.43656 0.0
H641 H 0.13029 0.0601 0.46583 0.0
C642 C 0.26871 0.04953 0.50844 0.0
C643 C 0.25524 0.02869 0.52061 0.0
C644 C 0.25367 0.06879 0.49791 0.0
C645 C 0.22471 0.06779 0.49917 0.0
C646 C 0.21123 0.04701 0.51113 0.0
C647 C 0.22619 0.02796 0.52182 0.0
C648 C 0.20827 0.08827 0.48819 0.0
C649 C 0.18777 0.08022 0.47243 0.0
C650 C 0.21256 0.11552 0.49314 0.0
C651 C 0.23303 0.12545 0.51019 0.0
C652 C 0.23172 0.11611 0.53247 0.0
C653 C 0.25119 0.12547 0.54843 0.0
C654 C 0.27196 0.14434 0.54234 0.0
C655 C 0.27324 0.15394 0.5203 0.0
C656 C 0.25383 0.14462 0.50427 0.0
C657 C 0.1118 0.1609 0.44852 0.0
C658 C 0.1233 0.18472 0.43945 0.0
C659 C 0.12856 0.142 0.45739 0.0
C660 C 0.15748 0.14592 0.45714 0.0
C661 C 0.16907 0.16959 0.44802 0.0
C662 C 0.1523 0.18865 0.43934 0.0
C663 C 0.17551 0.12571 0.46681 0.0
C664 C 0.19631 0.13377 0.48238 0.0
C665 C 0.17169 0.09846 0.4615 0.0
C666 C 0.15188 0.08846 0.44394 0.0
C667 C 0.1532 0.09878 0.42197 0.0
C668 C 0.13437 0.08941 0.40553 0.0
C669 C 0.11423 0.06958 0.4108 0.0
C670 C 0.11293 0.05903 0.43251 0.0
C671 C 0.1317 0.06836 0.44903 0.0
H672 H 0.09967 0.06235 0.39804 0.0
H673 H 0.28701 0.15158 0.55472 0.0
H674 H 0.2111 0.92799 0.55066 0.0
H675 H 0.17086 0.90433 0.53326 0.0
H676 H 0.17417 0.84333 0.58312 0.0
H677 H 0.21461 0.86707 0.60045 0.0
H678 H 0.16737 0.85707 0.51308 0.0
H679 H 0.10797 0.81391 0.59032 0.0
H680 H 0.09969 0.82519 0.63021 0.0
H681 H 0.11419 0.90736 0.61535 0.0
H682 H 0.12216 0.8966 0.57533 0.0
H683 H 0.07244 0.753 0.47759 0.0
H684 H 0.10668 0.77745 0.5015 0.0
H685 H 0.04989 0.83778 0.51254 0.0
H686 H 1.01581 0.81351 0.48816 0.0
H687 H 0.08144 0.82598 0.55246 0.0
H688 H 0.09643 0.85102 0.4748 0.0
H689 H 0.1037 0.84307 0.43417 0.0
H690 H 0.17575 0.80196 0.44916 0.0
H691 H 0.1689 0.80971 0.48991 0.0
C692 C 0.20284 0.90983 0.55821 0.0
C693 C 0.21579 0.89961 0.57716 0.0
C694 C 0.17994 0.89614 0.54811 0.0
C695 C 0.16916 0.87191 0.55677 0.0
C696 C 0.18167 0.86206 0.57615 0.0
C697 C 0.20474 0.87569 0.58616 0.0
C698 C 0.14582 0.85652 0.54486 0.0
C699 C 0.14868 0.85029 0.52183 0.0
C700 C 0.12104 0.84767 0.55592 0.0
C701 C 0.11595 0.8544 0.57988 0.0
C702 C 0.10929 0.83438 0.59556 0.0
C703 C 0.10466 0.84069 0.61819 0.0
C704 C 0.10651 0.86696 0.62532 0.0
C705 C 0.11288 0.887 0.60982 0.0
C706 C 0.11749 0.88081 0.58716 0.0
C707 C 0.06698 0.77108 0.48569 0.0
C708 C 0.04127 0.78114 0.48123 0.0
C709 C 0.08667 0.78521 0.49919 0.0
C710 C 0.0811 0.80967 0.50881 0.0
C711 C 0.05478 0.81899 0.50545 0.0
C712 C 0.0352 0.80501 0.49162 0.0
C713 C 0.10336 0.82623 0.52091 0.0
C714 C 0.10027 0.83266 0.54387 0.0
C715 C 0.12788 0.8355 0.5098 0.0
C716 C 0.13201 0.83073 0.48537 0.0
C717 C 0.11373 0.84017 0.46943 0.0
C718 C 0.11785 0.8358 0.44638 0.0
C719 C 0.14011 0.82194 0.4391 0.0
C720 C 0.15846 0.81263 0.45483 0.0
C721 C 0.15454 0.81709 0.4779 0.0
H722 H 0.14318 0.81848 0.42125 0.0
H723 H 0.10294 0.8718 0.64286 0.0
H724 H 0.82385 0.01927 0.53355 0.0
H725 H 0.85071 0.98617 0.5157 0.0
H726 H 0.77621 0.94573 0.49079 0.0
H727 H 0.74896 0.97932 0.50814 0.0
H728 H 0.81137 0.91124 0.50887 0.0
H729 H 0.81903 0.98182 0.45529 0.0
H730 H 0.82915 0.02765 0.44309 0.0
H731 H 0.91286 0.02458 0.46532 0.0
H732 H 0.90314 0.97883 0.47794 0.0
H733 H 0.8755 0.82174 0.43746 0.0
H734 H 0.84791 0.85649 0.45202 0.0
H735 H 0.92211 0.90333 0.46908 0.0
H736 H 0.94988 0.86872 0.45378 0.0
H737 H 0.8867 0.93494 0.45483 0.0
H738 H 0.8804 0.86624 0.50942 0.0
H739 H 0.87161 0.82101 0.52354 0.0
H740 H 0.78732 0.82105 0.50209 0.0
H741 H 0.79572 0.86616 0.48755 0.0
C742 C 0.81297 1.00374 0.52392 0.0
C743 C 0.78394 1.00252 0.52219 0.0
C744 C 0.82852 0.98459 0.51377 0.0
C745 C 0.8157 0.96343 0.50156 0.0
C746 C 0.78675 0.9618 0.50005 0.0
C747 C 0.77111 0.9811 0.5101 0.0
C748 C 0.83251 0.94294 0.49074 0.0
C749 C 0.82754 0.91641 0.49677 0.0
C750 C 0.85434 0.94955 0.47548 0.0
C751 C 0.86029 0.97697 0.46774 0.0
C752 C 0.83955 0.99098 0.45772 0.0
C753 C 0.84522 0.01693 0.45071 0.0
C754 C 0.87162 0.02904 0.45348 0.0
C755 C 0.89242 1.01519 0.46321 0.0
C756 C 0.88685 0.98924 0.47027 0.0
C757 C 0.88601 0.83946 0.44426 0.0
C758 C 0.91502 0.84221 0.44459 0.0
C759 C 0.87013 0.85937 0.45275 0.0
C760 C 0.88268 0.88252 0.46235 0.0
C761 C 0.91169 0.88573 0.46197 0.0
C762 C 0.92764 0.8659 0.45315 0.0
C763 C 0.86556 0.90308 0.47288 0.0
C764 C 0.87051 0.92967 0.46687 0.0
C765 C 0.84392 0.89657 0.48841 0.0
C766 C 0.83877 0.86948 0.4972 0.0
C767 C 0.86004 0.85653 0.50757 0.0
C768 C 0.85512 0.83093 0.51567 0.0
C769 C 0.82894 0.81814 0.51366 0.0
C770 C 0.8076 0.83096 0.5036 0.0
C771 C 0.81242 0.85656 0.49545 0.0
H772 H 0.82517 0.79832 0.51994 0.0
H773 H 0.87596 0.04914 0.44805 0.0
H774 H 0.82964 0.1042 0.55434 0.0
H775 H 0.86931 0.12881 0.53721 0.0
H776 H 0.85449 0.19592 0.57924 0.0
H777 H 0.81474 0.17118 0.59635 0.0
H778 H 0.86234 0.21095 0.53603 0.0
H779 H 0.91064 0.15794 0.58771 0.0
H780 H 0.92265 0.11642 0.60528 0.0
H781 H 0.94982 0.08807 0.54114 0.0
H782 H 0.93762 0.12928 0.52311 0.0
H783 H 0.98064 0.28749 0.49715 0.0
H784 H 0.94732 0.26335 0.52191 0.0
H785 H 0.96507 0.19059 0.48884 0.0
H786 H 0.99917 0.21457 0.46506 0.0
H787 H 0.9563 0.1793 0.52973 0.0
H788 H 0.90577 0.22847 0.47704 0.0
H789 H 0.89222 0.26813 0.45732 0.0
H790 H 0.86741 0.30148 0.52031 0.0
H791 H 0.88118 0.26214 0.54046 0.0
C792 C 0.83531 0.12396 0.56034 0.0
C793 C 0.81926 0.13559 0.57696 0.0
C794 C 0.85799 0.13814 0.55046 0.0
C795 C 0.86528 0.16438 0.55689 0.0
C796 C 0.84952 0.17579 0.57387 0.0
C797 C 0.82693 0.16155 0.58385 0.0
C798 C 0.88844 0.18022 0.54527 0.0
C799 C 0.88301 0.2042 0.53502 0.0
C800 C 0.91537 0.17128 0.54317 0.0
C801 C 0.92301 0.14662 0.55403 0.0
C802 C 0.91902 0.14278 0.57732 0.0
C803 C 0.92588 0.11931 0.58737 0.0
C804 C 0.93694 0.0996 0.57432 0.0
C805 C 0.94123 0.10335 0.55122 0.0
C806 C 0.93438 0.12677 0.54108 0.0
C807 C 0.97773 0.26629 0.49552 0.0
C808 C 0.99245 0.25301 0.47904 0.0
C809 C 0.95837 0.25244 0.50949 0.0
C810 C 0.9528 0.22496 0.50706 0.0
C811 C 0.96855 0.21165 0.49122 0.0
C812 C 0.98811 0.22542 0.47754 0.0
C813 C 0.93024 0.2101 0.52034 0.0
C814 C 0.93573 0.18623 0.53085 0.0
C815 C 0.9032 0.2189 0.52235 0.0
C816 C 0.89478 0.2425 0.51028 0.0
C817 C 0.89759 0.24434 0.4867 0.0
C818 C 0.88986 0.26675 0.47545 0.0
C819 C 0.87903 0.28734 0.48756 0.0
C820 C 0.87584 0.28553 0.51095 0.0
C821 C 0.8836 0.26318 0.5223 0.0
H822 H 0.87305 0.30468 0.47882 0.0
H823 H 0.94222 0.08144 0.58213 0.0
H824 H 0.28407 0.52501 0.99435 0.0
H825 H 0.31366 0.56039 0.97745 0.0
H826 H 0.31549 0.60247 0.04101 0.0
H827 H 0.28414 0.56802 0.05719 0.0
H828 H 0.31573 0.63713 0.01302 0.0
H829 H 0.37192 0.56338 0.01576 0.0
H830 H 0.38485 0.518 1.00868 0.0
H831 H 0.38108 0.53064 0.93719 0.0
H832 H 0.3678 0.57601 0.94385 0.0
H833 H 0.4425 0.71408 0.9909 0.0
H834 H 0.41424 0.67498 1.00305 0.0
H835 H 0.37585 0.66957 0.93757 0.0
H836 H 0.40338 0.70939 0.92564 0.0
H837 H 0.39519 0.61678 0.96494 0.0
H838 H 0.33687 0.6923 0.96564 0.0
H839 H 0.32923 0.73833 0.97584 0.0
H840 H 0.34361 0.72156 0.04563 0.0
H841 H 0.35161 0.67547 0.03576 0.0
C842 C 0.29066 0.54194 1.00462 0.0
C843 C 0.28162 0.54367 0.02712 0.0
C844 C 0.30799 0.56216 0.99503 0.0
C845 C 0.31785 0.58427 1.00791 0.0
C846 C 0.3085 0.58595 0.03041 0.0
C847 C 0.29051 0.56613 0.03976 0.0
C848 C 0.33752 0.60567 0.99811 0.0
C849 C 0.33315 0.63232 1.0027 0.0
C850 C 0.36056 0.60023 0.98436 0.0
C851 C 0.36859 0.57299 0.98031 0.0
C852 C 0.37368 0.55642 0.99853 0.0
C853 C 0.38109 0.53071 0.99459 0.0
C854 C 0.38371 0.52142 0.97249 0.0
C855 C 0.379 0.53785 0.95429 0.0
C856 C 0.37155 0.56357 0.95814 0.0
C857 C 0.42864 0.70409 0.97886 0.0
C858 C 0.42558 0.71469 0.95716 0.0
C859 C 0.41233 0.68181 0.98588 0.0
C860 C 0.3928 0.6692 0.97129 0.0
C861 C 0.39084 0.67876 0.94914 0.0
C862 C 0.40682 0.70142 0.94223 0.0
C863 C 0.37301 0.6476 0.97988 0.0
C864 C 0.37755 0.62116 0.97517 0.0
C865 C 0.35056 0.6531 0.99395 0.0
C866 C 0.34504 0.68056 0.99995 0.0
C867 C 0.33854 0.69849 0.98314 0.0
C868 C 0.33407 0.72456 0.98886 0.0
C869 C 0.33599 0.73288 1.01136 0.0
C870 C 0.34217 0.7151 0.0282 0.0
C871 C 0.34661 0.68899 0.02256 0.0
H872 H 0.33266 0.7531 0.01575 0.0
H873 H 0.38945 0.50152 0.96944 0.0
H874 H 0.72054 0.65017 0.10939 0.0
H875 H 0.68208 0.67517 0.09599 0.0
H876 H 0.68292 0.63351 0.03241 0.0
H877 H 0.72116 0.60863 0.04587 0.0
H878 H 0.68148 0.68495 0.02498 0.0
H879 H 0.63049 0.62274 0.07183 0.0
H880 H 0.61877 0.59895 0.107 0.0
H881 H 0.6037 0.6719 0.14016 0.0
H882 H 0.61574 0.69619 0.10525 0.0
H883 H 0.55998 0.72427 0.97417 0.0
H884 H 0.59421 0.69888 0.9925 0.0
H885 H 0.58693 0.74473 0.05333 0.0
H886 H 0.55243 0.77062 0.03489 0.0
H887 H 0.59221 0.6934 0.06391 0.0
H888 H 0.64241 0.75559 0.01722 0.0
H889 H 0.65441 0.7797 0.98226 0.0
H890 H 0.67175 0.70727 0.94923 0.0
H891 H 0.65946 0.68266 0.98392 0.0
C892 C 0.71206 0.64599 0.09277 0.0
C893 C 0.72377 0.62724 0.07879 0.0
C894 C 0.69006 0.66035 0.08502 0.0
C895 C 0.67926 0.65642 0.06305 0.0
C896 C 0.69067 0.63718 0.04935 0.0
C897 C 0.71244 0.62275 0.05713 0.0
C898 C 0.65707 0.67293 0.05385 0.0
C899 C 0.66186 0.68644 0.03343 0.0
C900 C 0.63157 0.67585 0.065 0.0
C901 C 0.62432 0.66131 0.08599 0.0
C902 C 0.62492 0.63374 0.08667 0.0
C903 C 0.61817 0.62016 0.10655 0.0
C904 C 0.61057 0.63391 0.12582 0.0
C905 C 0.60964 0.66128 0.12523 0.0
C906 C 0.61641 0.67496 0.1054 0.0
C907 C 0.5657 0.72931 0.9914 0.0
C908 C 0.55352 0.75012 1.00274 0.0
C909 C 0.58541 0.71456 1.00196 0.0
C910 C 0.59392 0.72001 0.02429 0.0
C911 C 0.58105 0.74004 0.03607 0.0
C912 C 0.56118 0.75489 0.02546 0.0
C913 C 0.61653 0.70507 0.03487 0.0
C914 C 0.61187 0.69194 0.05552 0.0
C915 C 0.64227 0.70253 0.024 0.0
C916 C 0.64976 0.71726 1.00312 0.0
C917 C 0.64858 0.74478 1.00245 0.0
C918 C 0.65546 0.75854 0.98269 0.0
C919 C 0.66377 0.74502 0.96352 0.0
C920 C 0.66527 0.71771 0.96409 0.0
C921 C 0.65837 0.70385 0.9838 0.0
H922 H 0.6691 0.75571 0.94824 0.0
H923 H 0.60534 0.62336 0.14119 0.0
H924 H 0.78588 0.47276 1.00932 0.0
H925 H 0.75814 0.43568 0.99255 0.0
H926 H 0.68529 0.46328 0.0238 0.0
H927 H 0.71284 0.49983 0.04102 0.0
H928 H 0.68522 0.41147 0.02829 0.0
H929 H 0.69964 0.47123 0.96611 0.0
H930 H 0.72727 0.49904 0.93948 0.0
H931 H 0.7676 0.43142 0.916 0.0
H932 H 0.74045 0.40326 0.94272 0.0
H933 H 0.58521 0.32905 0.9711 0.0
H934 H 0.61246 0.36901 0.98318 0.0
H935 H 0.68389 0.34099 0.94989 0.0
H936 H 0.65635 0.30141 0.93737 0.0
H937 H 0.68531 0.3928 0.94602 0.0
H938 H 0.67193 0.33293 1.00736 0.0
H939 H 0.64478 0.30412 0.03352 0.0
H940 H 0.60418 0.37067 0.05893 0.0
H941 H 0.63072 0.39983 0.03258 0.0
C942 C 0.76398 0.47095 0.01272 0.0
C943 C 0.75177 0.48971 0.02647 0.0
C944 C 0.74801 0.44974 1.00292 0.0
C945 C 0.71934 0.4466 1.00656 0.0
C946 C 0.70723 0.4651 0.02051 0.0
C947 C 0.72311 0.48629 0.03022 0.0
C948 C 0.70191 0.42404 0.99618 0.0
C949 C 0.68503 0.40769 1.01025 0.0
C950 C 0.70195 0.41832 0.97269 0.0
C951 C 0.71821 0.4352 0.95657 0.0
C952 C 0.71455 0.46233 0.95539 0.0
C953 C 0.73009 0.47815 0.94026 0.0
C954 C 0.74923 0.46702 0.9261 0.0
C955 C 0.7528 0.44003 0.927 0.0
C956 C 0.73733 0.42413 0.94212 0.0
C957 C 0.60651 0.33185 0.96582 0.0
C958 C 0.61859 0.31219 0.95316 0.0
C959 C 0.62225 0.35456 0.97298 0.0
C960 C 0.65061 0.358 0.96796 0.0
C961 C 0.66221 0.339 0.95415 0.0
C962 C 0.64642 0.31638 0.94689 0.0
C963 C 0.66842 0.38044 0.97811 0.0
C964 C 0.68545 0.39665 0.96405 0.0
C965 C 0.66872 0.38591 1.00166 0.0
C966 C 0.65314 0.36853 0.01785 0.0
C967 C 0.6571 0.34141 0.01844 0.0
C968 C 0.64182 0.32501 0.0333 0.0
C969 C 0.62273 0.33555 0.04786 0.0
C970 C 0.61895 0.36253 0.04762 0.0
C971 C 0.63411 0.37901 0.03273 0.0
H972 H 0.61091 0.32283 0.05935 0.0
H973 H 0.76125 0.47929 0.9144 0.0
H974 H 0.49731 0.28818 0.0357 0.0
H975 H 0.46228 0.31525 0.05224 0.0
H976 H 0.41145 0.30144 0.99333 0.0
H977 H 0.44604 0.27364 0.97701 0.0
H978 H 0.4239 0.35949 1.01101 0.0
H979 H 0.38841 0.27166 0.03297 0.0
H980 H 0.39255 0.22861 0.05104 0.0
H981 H 0.41191 0.26714 0.11429 0.0
H982 H 0.40829 0.31047 0.09648 0.0
H983 H 0.30068 0.41692 0.04185 0.0
H984 H 0.33732 0.3907 0.02792 0.0
H985 H 0.35858 0.37201 0.09642 0.0
H986 H 0.31997 0.39663 0.11022 0.0
H987 H 0.36391 0.33085 0.07512 0.0
H988 H 0.39951 0.41704 0.05731 0.0
H989 H 0.40031 0.46201 0.042 0.0
H990 H 0.38784 0.4306 0.97509 0.0
H991 H 0.38658 0.38541 0.99002 0.0
C992 C 0.47857 0.29069 0.02632 0.0
C993 C 0.47455 0.27851 1.00501 0.0
C994 C 0.45851 0.30624 0.03582 0.0
C995 C 0.4341 0.31058 0.02408 0.0
C996 C 0.43003 0.29849 1.00279 0.0
C997 C 0.44978 0.28241 0.99352 0.0
C998 C 0.41306 0.32795 0.03387 0.0
C999 C 0.41051 0.35312 0.02484 0.0
C1000 C 0.39639 0.32032 0.05262 0.0
C1001 C 0.39839 0.2943 0.06333 0.0
C1002 C 0.39382 0.27096 0.05067 0.0
C1003 C 0.39601 0.24651 0.06088 0.0
C1004 C 0.40257 0.24514 0.08378 0.0
C1005 C 0.40687 0.26823 0.09654 0.0
C1006 C 0.40473 0.29274 0.0864 0.0
C1007 C 0.31329 0.40737 0.05399 0.0
C1008 C 0.30719 0.40889 0.0772 0.0
C1009 C 0.33463 0.39247 0.04599 0.0
C1010 C 0.35162 0.37938 0.06093 0.0
C1011 C 0.34608 0.38165 0.08427 0.0
C1012 C 0.32414 0.39606 0.09227 0.0
C1013 C 0.37415 0.36266 0.05209 0.0
C1014 C 0.37718 0.33752 0.06133 0.0
C1015 C 0.39191 0.3707 0.03392 0.0
C1016 C 0.39272 0.39782 0.02483 0.0
C1017 C 0.39676 0.41971 0.03935 0.0
C1018 C 0.39731 0.44524 0.03074 0.0
C1019 C 0.39407 0.44914 1.0076 0.0
C1020 C 0.39032 0.42753 0.99301 0.0
C1021 C 0.38971 0.40195 1.00153 0.0
H1022 H 0.39455 0.4689 1.00098 0.0
H1023 H 0.40425 0.22619 0.09166 0.0
H1024 H 0.0586 0.63093 0.42078 0.0
H1025 H 0.06152 0.58304 0.42095 0.0
H1026 H 0.97998 0.57296 0.39249 0.0
H1027 H 0.9765 0.6205 0.39305 0.0
H1028 H 0.98465 0.53763 0.42394 0.0
H1029 H 0.04042 0.56587 0.36055 0.0
H1030 H 0.07788 0.59165 0.34109 0.0
H1031 H 0.1375 0.55853 0.38406 0.0
H1032 H 0.10035 0.5328 0.40398 0.0
H1033 H 0.99018 0.40058 0.39715 0.0
H1034 H 0.98641 0.44827 0.39427 0.0
H1035 H 0.06935 0.46165 0.41932 0.0
H1036 H 0.07377 0.41443 0.42101 0.0
H1037 H 0.06313 0.49543 0.38859 0.0
H1038 H 1.00782 0.46832 0.45281 0.0
H1039 H 0.97064 0.44277 0.47282 0.0
H1040 H 0.91058 0.47389 0.42904 0.0
H1041 H 0.94746 0.49939 0.40859 0.0
C1042 C 0.04119 0.61858 0.41466 0.0
C1043 C 1.01743 0.62997 0.40665 0.0
C1044 C 0.04299 0.59105 0.41456 0.0
C1045 C 0.02113 0.57405 0.4064 0.0
C1046 C 0.99727 0.58538 0.39877 0.0
C1047 C 0.99545 0.6128 0.39886 0.0
C1048 C 0.02285 0.54457 0.40592 0.0
C1049 C 1.00169 0.52845 0.41593 0.0
C1050 C 0.04522 0.53224 0.3959 0.0
C1051 C 0.06758 0.54761 0.3839 0.0
C1052 C 0.0615 0.56423 0.36596 0.0
C1053 C 0.08268 0.57881 0.35483 0.0
C1054 C 0.11004 0.57678 0.36137 0.0
C1055 C 0.11629 0.56011 0.37903 0.0
C1056 C 0.09519 0.54551 0.39023 0.0
C1057 C 1.00775 0.41363 0.4018 0.0
C1058 C 0.03211 0.40328 0.40972 0.0
C1059 C 1.00546 0.44107 0.40041 0.0
C1060 C 0.02738 0.45898 0.40707 0.0
C1061 C 0.05195 0.4486 0.41423 0.0
C1062 C 0.05432 0.42133 0.41546 0.0
C1063 C 0.02503 0.48842 0.40677 0.0
C1064 C 0.04607 0.50456 0.39658 0.0
C1065 C 1.0026 0.50078 0.41672 0.0
C1066 C 0.98042 0.48553 0.42903 0.0
C1067 C 0.9867 0.46957 0.44736 0.0
C1068 C 0.96568 0.45512 0.45879 0.0
C1069 C 0.93828 0.45665 0.45216 0.0
C1070 C 0.93183 0.47269 0.43413 0.0
C1071 C 0.95277 0.48716 0.42262 0.0
H1072 H 0.92203 0.44544 0.46103 0.0
H1073 H 0.12641 0.58808 0.35274 0.0
H1074 H 0.63092 0.0665 0.63251 0.0
H1075 H 0.58155 0.05427 0.63701 0.0
H1076 H 0.58626 0.9972 0.58319 0.0
H1077 H 0.63574 1.00874 0.57954 0.0
H1078 H 0.54055 0.05991 0.61235 0.0
H1079 H 0.53474 0.95005 0.58414 0.0
H1080 H 0.5624 0.91127 0.58704 0.0
H1081 H 0.60199 0.94403 0.64656 0.0
H1082 H 0.57432 0.98283 0.6442 0.0
H1083 H 0.40316 0.0204 0.57848 0.0
H1084 H 0.45271 0.03156 0.58254 0.0
H1085 H 0.45638 0.97458 0.63585 0.0
H1086 H 0.40693 0.96279 0.63101 0.0
H1087 H 0.49783 0.96884 0.61135 0.0
H1088 H 0.46346 0.04563 0.64408 0.0
H1089 H 0.43573 0.08439 0.64682 0.0
H1090 H 0.47643 0.1177 0.58834 0.0
H1091 H 0.50414 0.07894 0.58506 0.0
C1092 C 0.62154 0.05066 0.62226 0.0
C1093 C 0.63741 0.03805 0.60614 0.0
C1094 C 0.59313 0.0439 0.62457 0.0
C1095 C 0.57965 0.02453 0.61061 0.0
C1096 C 0.5958 1.01167 0.59469 0.0
C1097 C 0.62426 0.0182 0.59261 0.0
C1098 C 0.54871 0.01882 0.61187 0.0
C1099 C 0.53135 0.03993 0.61218 0.0
C1100 C 0.53609 0.99285 0.61215 0.0
C1101 C 0.55263 0.96946 0.61385 0.0
C1102 C 0.54926 0.94893 0.5979 0.0
C1103 C 0.56496 0.92695 0.59944 0.0
C1104 C 0.584 0.92523 0.61693 0.0
C1105 C 0.58731 0.94543 0.63297 0.0
C1106 C 0.57165 0.96743 0.63152 0.0
C1107 C 0.41446 1.01082 0.59148 0.0
C1108 C 0.40099 0.99118 0.6048 0.0
C1109 C 0.44293 0.01715 0.5938 0.0
C1110 C 0.45878 1.00425 0.60975 0.0
C1111 C 0.44502 0.98497 0.62341 0.0
C1112 C 0.41659 0.97845 0.62088 0.0
C1113 C 0.48969 1.00993 0.61143 0.0
C1114 C 0.50704 0.98882 0.61161 0.0
C1115 C 0.50229 0.0359 0.6123 0.0
C1116 C 0.4857 0.05926 0.61421 0.0
C1117 C 0.46636 0.06113 0.63171 0.0
C1118 C 0.45066 0.08311 0.63337 0.0
C1119 C 0.45427 0.10346 0.61773 0.0
C1120 C 0.47363 0.1019 0.60042 0.0
C1121 C 0.48936 0.07994 0.59867 0.0
H1122 H 0.4421 0.12047 0.61905 0.0
H1123 H 0.59615 0.90821 0.61808 0.0
H1124 H 0.57155 0.12363 0.93696 0.0
H1125 H 0.5659 0.07585 0.93396 0.0
H1126 H 0.47765 0.07978 0.93525 0.0
H1127 H 0.48347 0.12794 0.93962 0.0
H1128 H 0.4886 0.04128 0.96006 0.0
H1129 H 0.51875 0.06311 0.88543 0.0
H1130 H 0.54872 0.08446 0.85641 0.0
H1131 H 0.61697 0.0429 0.88013 0.0
H1132 H 0.58751 0.02157 0.90951 0.0
H1133 H 0.46087 0.90656 0.93149 0.0
H1134 H 0.46641 0.95449 0.92828 0.0
H1135 H 0.55373 0.9518 0.93928 0.0
H1136 H 0.54811 0.90344 0.94246 0.0
H1137 H 0.54257 0.98917 0.90698 0.0
H1138 H 0.51101 0.96783 0.98197 0.0
H1139 H 0.47971 0.94583 1.00972 0.0
H1140 H 0.41215 0.98641 0.98338 0.0
H1141 H 0.44297 1.00833 0.95519 0.0
C1142 C 0.55086 0.11444 0.93617 0.0
C1143 C 0.52797 0.12996 0.93807 0.0
C1144 C 0.54761 0.08686 0.93436 0.0
C1145 C 0.52128 0.0736 0.93387 0.0
C1146 C 0.49828 0.08913 0.93542 0.0
C1147 C 0.50157 0.11685 0.93757 0.0
C1148 C 0.51795 0.0437 0.9328 0.0
C1149 C 0.50012 0.03008 0.94811 0.0
C1150 C 0.53326 0.02841 0.91766 0.0
C1151 C 0.55096 0.0409 0.8998 0.0
C1152 C 0.54018 0.05863 0.88454 0.0
C1153 C 0.55708 0.07072 0.86802 0.0
C1154 C 0.58475 0.06509 0.86647 0.0
C1155 C 0.59555 0.04726 0.88138 0.0
C1156 C 0.57875 0.03514 0.89795 0.0
C1157 C 0.48135 0.91607 0.93288 0.0
C1158 C 0.50406 0.90099 0.9372 0.0
C1159 C 0.4845 0.94365 0.93119 0.0
C1160 C 0.51046 0.95721 0.93387 0.0
C1161 C 0.53342 0.94208 0.93719 0.0
C1162 C 0.53024 0.91435 0.93896 0.0
C1163 C 0.51325 0.98702 0.93416 0.0
C1164 C 0.53101 1.00053 0.91879 0.0
C1165 C 0.49768 1.00224 0.94906 0.0
C1166 C 0.47926 0.98956 0.96634 0.0
C1167 C 0.48945 0.97196 0.98201 0.0
C1168 C 0.4718 0.95951 0.99782 0.0
C1169 C 0.44395 0.96468 0.99828 0.0
C1170 C 0.43372 0.9824 0.98298 0.0
C1171 C 0.45128 0.99486 0.96709 0.0
H1172 H 0.43031 0.95498 1.01051 0.0
H1173 H 0.59781 0.0745 0.85369 0.0
H1174 H 0.13174 0.52169 0.07535 0.0
H1175 H 0.08364 0.53236 0.07869 0.0
H1176 H 0.07807 0.49301 0.14297 0.0
H1177 H 0.12597 0.48095 0.13874 0.0
H1178 H 0.03397 0.48 0.12352 0.0
H1179 H 0.07815 0.56548 0.13386 0.0
H1180 H 0.10975 0.60398 0.12531 0.0
H1181 H 0.06802 0.61438 0.06247 0.0
H1182 H 0.03639 0.57573 0.0705 0.0
H1183 H 0.91238 0.5784 0.1257 0.0
H1184 H 0.9609 0.56894 0.13018 0.0
H1185 H 0.94543 0.49613 0.09329 0.0
H1186 H 0.89674 0.50536 0.08957 0.0
H1187 H 1.00023 0.56649 0.10307 0.0
H1188 H 0.99297 0.45199 0.104 0.0
H1189 H 0.96184 0.41558 0.11814 0.0
H1190 H 0.93038 0.46695 0.16835 0.0
H1191 H 0.96157 0.50355 0.15473 0.0
C1192 C 0.12043 0.51588 0.09047 0.0
C1193 C 0.13291 0.50072 0.1069 0.0
C1194 C 0.09272 0.52202 0.09243 0.0
C1195 C 0.07662 0.51395 0.11128 0.0
C1196 C 0.08954 0.49959 0.12816 0.0
C1197 C 0.11719 0.49299 0.12595 0.0
C1198 C 0.04626 0.5194 0.11282 0.0
C1199 C 0.02677 0.499 0.11907 0.0
C1200 C 0.03616 0.54425 0.10755 0.0
C1201 C 0.05505 0.56758 0.10271 0.0
C1202 C 0.07582 0.57589 0.11816 0.0
C1203 C 0.09372 0.59774 0.11341 0.0
C1204 C 0.09093 0.61158 0.09334 0.0
C1205 C 0.07018 0.60363 0.078 0.0
C1206 C 0.05223 0.58177 0.08265 0.0
C1207 C 0.91919 0.55996 0.11922 0.0
C1208 C 0.90043 0.54228 0.10788 0.0
C1209 C 0.94715 0.55467 0.12149 0.0
C1210 C 0.95741 0.53161 0.11228 0.0
C1211 C 0.93843 0.51376 0.10114 0.0
C1212 C 0.91039 0.51897 0.09905 0.0
C1213 C 0.98795 0.52698 0.1134 0.0
C1214 C 1.00745 0.54751 0.10759 0.0
C1215 C 0.99811 0.50253 0.11976 0.0
C1216 C 0.97941 0.48058 0.12817 0.0
C1217 C 0.97947 0.45549 0.1181 0.0
C1218 C 0.96181 0.43482 0.12602 0.0
C1219 C 0.94408 0.43898 0.14408 0.0
C1220 C 0.94404 0.46379 0.15431 0.0
C1221 C 0.96169 0.4845 0.14648 0.0
H1222 H 0.93041 0.42295 0.15018 0.0
H1223 H 0.10482 0.62849 0.08969 0.0
loop_
_geom_bond_atom_site_label_1
_geom_bond_atom_site_label_2
_geom_bond_distance
_geom_bond_site_symmetry_2
_ccdc_geom_bond_type
C0 C1 1.443 . S
C0 N4 1.376 . S
C0 C38 1.389 . S
C1 C0 1.443 . S
C1 C2 1.340 . S
C1 H41 0.951 . S
C2 C1 1.340 . S
C2 C3 1.439 . S
C2 H42 0.950 . S
C3 C2 1.439 . S
C3 N4 1.374 . S
C3 C37 1.395 . S
N4 C0 1.376 . S
N4 C3 1.374 . S
N4 Co5 2.008 . S
Co5 N4 2.008 . S
Co5 N6 1.995 . S
Co5 N11 2.008 . S
Co5 N16 1.995 . S
Co5 N21 2.282 . S
Co5 N27 2.282 . S
N6 Co5 1.995 . S
N6 C7 1.376 . S
N6 C10 1.383 . S
C7 N6 1.376 . S
C7 C8 1.446 . S
C7 C37 1.391 . S
C8 C7 1.446 . S
C8 C9 1.339 . S
C8 H43 0.949 . S
C9 C8 1.339 . S
C9 C10 1.439 . S
C9 H44 0.950 . S
C10 N6 1.383 . S
C10 C9 1.439 . S
C10 C39 1.392 1_455 S
N11 Co5 2.008 . S
N11 C12 1.376 1_455 S
N11 C15 1.374 1_455 S
C12 N11 1.376 1_655 S
C12 C13 1.443 . S
C12 C39 1.389 . S
C13 C12 1.443 . S
C13 C14 1.340 . S
C13 H45 0.951 . S
C14 C13 1.340 . S
C14 C15 1.439 . S
C14 H46 0.950 . S
C15 N11 1.374 1_655 S
C15 C14 1.439 . S
C15 C40 1.403 . S
N16 Co5 1.995 . S
N16 C17 1.376 . S
N16 C20 1.383 . S
C17 N16 1.376 . S
C17 C18 1.446 . S
C17 C40 1.371 1_455 S
C18 C17 1.446 . S
C18 C19 1.339 . S
C18 H47 0.949 . S
C19 C18 1.339 . S
C19 C20 1.439 . S
C19 H48 0.950 . S
C20 N16 1.383 . S
C20 C19 1.439 . S
C20 C38 1.392 . S
N21 Co5 2.282 . S
N21 C24 1.332 . S
N21 C26 1.332 . S
C22 C23 1.386 . S
C22 C25 1.388 . S
C23 C22 1.386 . S
C23 C24 1.382 . S
C23 H49 0.950 . S
C24 N21 1.332 . S
C24 C23 1.382 . S
C24 H35 0.952 . S
C25 C22 1.388 . S
C25 C26 1.382 . S
C25 H50 0.950 . S
C26 N21 1.332 . S
C26 C25 1.382 . S
C26 H36 0.948 . S
N27 Co5 2.282 . S
N27 C31 1.332 . S
N27 C32 1.332 . S
C28 C29 1.388 . S
C28 C32 1.382 1_655 S
C28 H51 0.950 . S
C29 C28 1.388 . S
C29 C30 1.386 1_655 S
C30 C29 1.386 1_455 S
C30 C31 1.382 . S
C30 H52 0.950 . S
C31 N27 1.332 . S
C31 C30 1.382 . S
C31 H33 0.952 . S
C32 N27 1.332 . S
C32 C28 1.382 1_455 S
C32 H34 0.944 1_455 S
H33 C31 0.952 . S
H34 C32 0.944 1_655 S
H35 C24 0.952 . S
H36 C26 0.948 . S
C37 C3 1.395 . S
C37 C7 1.391 . S
C38 C0 1.389 . S
C38 C20 1.392 . S
C39 C10 1.392 1_655 S
C39 C12 1.389 . S
C40 C15 1.403 . S
C40 C17 1.371 1_655 S
H41 C1 0.951 . S
H42 C2 0.950 . S
H43 C8 0.949 . S
H44 C9 0.950 . S
H45 C13 0.951 . S
H46 C14 0.950 . S
H47 C18 0.949 . S
H48 C19 0.950 . S
H49 C23 0.950 . S
H50 C25 0.950 . S
H51 C28 0.950 . S
H52 C30 0.950 . S
C53 C54 1.443 . S
C53 N57 1.376 . S
C53 C91 1.389 . S
C54 C53 1.443 . S
C54 C55 1.340 . S
C54 H94 0.951 . S
C55 C54 1.340 . S
C55 C56 1.439 . S
C55 H95 0.950 . S
C56 C55 1.439 . S
C56 N57 1.374 . S
C56 C90 1.395 . S
N57 C53 1.376 . S
N57 C56 1.374 . S
N57 Co58 2.008 . S
Co58 N57 2.008 . S
Co58 N59 1.995 . S
Co58 N64 2.008 . S
Co58 N69 1.995 . S
Co58 N74 2.282 . S
Co58 N80 2.282 . S
N59 Co58 1.995 . S
N59 C60 1.376 . S
N59 C63 1.383 . S
C60 N59 1.376 . S
C60 C61 1.446 . S
C60 C90 1.391 . S
C61 C60 1.446 . S
C61 C62 1.339 . S
C61 H96 0.949 . S
C62 C61 1.339 . S
C62 C63 1.439 . S
C62 H97 0.950 . S
C63 N59 1.383 . S
C63 C62 1.439 . S
C63 C92 1.392 . S
N64 Co58 2.008 . S
N64 C65 1.376 . S
N64 C68 1.374 . S
C65 N64 1.376 . S
C65 C66 1.443 . S
C65 C92 1.389 . S
C66 C65 1.443 . S
C66 C67 1.340 . S
C66 H98 0.951 . S
C67 C66 1.340 . S
C67 C68 1.439 . S
C67 H99 0.950 . S
C68 N64 1.374 . S
C68 C67 1.439 . S
C68 C93 1.395 . S
N69 Co58 1.995 . S
N69 C70 1.376 . S
N69 C73 1.383 . S
C70 N69 1.376 . S
C70 C71 1.446 . S
C70 C93 1.391 . S
C71 C70 1.446 . S
C71 C72 1.339 . S
C71 H100 0.949 1_565 S
C72 C71 1.339 . S
C72 C73 1.439 . S
C72 H101 0.950 1_565 S
C73 N69 1.383 . S
C73 C72 1.439 . S
C73 C91 1.392 . S
N74 Co58 2.282 . S
N74 C77 1.332 . S
N74 C79 1.332 . S
C75 C76 1.386 1_565 S
C75 C78 1.388 . S
C76 C75 1.386 1_545 S
C76 C77 1.382 1_545 S
C76 H102 0.950 . S
C77 N74 1.332 . S
C77 C76 1.382 1_565 S
C77 H88 0.952 . S
C78 C75 1.388 . S
C78 C79 1.382 . S
C78 H103 0.950 . S
C79 N74 1.332 . S
C79 C78 1.382 . S
C79 H89 0.948 . S
N80 Co58 2.282 . S
N80 C84 1.332 . S
N80 C85 1.332 . S
C81 C82 1.388 . S
C81 C85 1.382 . S
C81 H104 0.950 . S
C82 C81 1.388 . S
C82 C83 1.386 . S
C83 C82 1.386 . S
C83 C84 1.382 . S
C83 H105 0.950 . S
C84 N80 1.332 . S
C84 C83 1.382 . S
C84 H86 0.952 . S
C85 N80 1.332 . S
C85 C81 1.382 . S
C85 H87 0.948 . S
H86 C84 0.952 . S
H87 C85 0.948 . S
H88 C77 0.952 . S
H89 C79 0.948 . S
C90 C56 1.395 . S
C90 C60 1.391 . S
C91 C53 1.389 . S
C91 C73 1.392 . S
C92 C63 1.392 . S
C92 C65 1.389 . S
C93 C68 1.395 . S
C93 C70 1.391 . S
H94 C54 0.951 . S
H95 C55 0.950 . S
H96 C61 0.949 . S
H97 C62 0.950 . S
H98 C66 0.951 . S
H99 C67 0.950 . S
H100 C71 0.949 1_545 S
H101 C72 0.950 1_545 S
H102 C76 0.950 . S
H103 C78 0.950 . S
H104 C81 0.950 . S
H105 C83 0.950 . S
C106 C107 1.443 . S
C106 N110 1.376 . S
C106 C144 1.389 . S
C107 C106 1.443 . S
C107 C108 1.340 . S
C107 H147 0.951 . S
C108 C107 1.340 . S
C108 C109 1.439 . S
C108 H148 0.950 . S
C109 C108 1.439 . S
C109 N110 1.374 . S
C109 C143 1.395 . S
N110 C106 1.376 . S
N110 C109 1.374 . S
N110 Co111 2.008 . S
Co111 N110 2.008 . S
Co111 N112 1.995 . S
Co111 N117 2.008 . S
Co111 N122 1.995 . S
Co111 N127 2.282 . S
Co111 N133 2.282 . S
N112 Co111 1.995 . S
N112 C113 1.376 . S
N112 C116 1.383 . S
C113 N112 1.376 . S
C113 C114 1.446 . S
C113 C143 1.391 . S
C114 C113 1.446 . S
C114 C115 1.339 . S
C114 H149 0.949 . S
C115 C114 1.339 . S
C115 C116 1.439 . S
C115 H150 0.950 . S
C116 N112 1.383 . S
C116 C115 1.439 . S
C116 C145 1.392 1_655 S
N117 Co111 2.008 . S
N117 C118 1.376 1_655 S
N117 C121 1.374 1_655 S
C118 N117 1.376 1_455 S
C118 C119 1.443 . S
C118 C145 1.389 . S
C119 C118 1.443 . S
C119 C120 1.340 . S
C119 H151 0.951 . S
C120 C119 1.340 . S
C120 C121 1.439 . S
C120 H152 0.950 . S
C121 N117 1.374 1_455 S
C121 C120 1.439 . S
C121 C146 1.403 . S
N122 Co111 1.995 . S
N122 C123 1.376 . S
N122 C126 1.383 . S
C123 N122 1.376 . S
C123 C124 1.446 . S
C123 C146 1.371 1_655 S
C124 C123 1.446 . S
C124 C125 1.339 . S
C124 H153 0.949 . S
C125 C124 1.339 . S
C125 C126 1.439 . S
C125 H154 0.950 . S
C126 N122 1.383 . S
C126 C125 1.439 . S
C126 C144 1.392 . S
N127 Co111 2.282 . S
N127 C130 1.332 . S
N127 C132 1.332 . S
C128 C129 1.386 . S
C128 C131 1.388 . S
C129 C128 1.386 . S
C129 C130 1.382 . S
C129 H155 0.950 . S
C130 N127 1.332 . S
C130 C129 1.382 . S
C130 H141 0.952 . S
C131 C128 1.388 . S
C131 C132 1.382 . S
C131 H156 0.950 . S
C132 N127 1.332 . S
C132 C131 1.382 . S
C132 H142 0.948 . S
N133 Co111 2.282 . S
N133 C137 1.332 . S
N133 C138 1.332 . S
C134 C135 1.388 . S
C134 C138 1.382 1_455 S
C134 H157 0.950 . S
C135 C134 1.388 . S
C135 C136 1.386 1_455 S
C136 C135 1.386 1_655 S
C136 C137 1.382 . S
C136 H158 0.950 . S
C137 N133 1.332 . S
C137 C136 1.382 . S
C137 H139 0.952 . S
C138 N133 1.332 . S
C138 C134 1.382 1_655 S
C138 H140 0.944 1_655 S
H139 C137 0.952 . S
H140 C138 0.944 1_455 S
H141 C130 0.952 . S
H142 C132 0.948 . S
C143 C109 1.395 . S
C143 C113 1.391 . S
C144 C106 1.389 . S
C144 C126 1.392 . S
C145 C116 1.392 1_455 S
C145 C118 1.389 . S
C146 C121 1.403 . S
C146 C123 1.371 1_455 S
H147 C107 0.951 . S
H148 C108 0.950 . S
H149 C114 0.949 . S
H150 C115 0.950 . S
H151 C119 0.951 . S
H152 C120 0.950 . S
H153 C124 0.949 . S
H154 C125 0.950 . S
H155 C129 0.950 . S
H156 C131 0.950 . S
H157 C134 0.950 . S
H158 C136 0.950 . S
C159 C160 1.443 . S
C159 N163 1.376 . S
C159 C197 1.389 . S
C160 C159 1.443 . S
C160 C161 1.340 . S
C160 H200 0.951 . S
C161 C160 1.340 . S
C161 C162 1.439 . S
C161 H201 0.950 . S
C162 C161 1.439 . S
C162 N163 1.374 . S
C162 C196 1.395 . S
N163 C159 1.376 . S
N163 C162 1.374 . S
N163 Co164 2.008 . S
Co164 N163 2.008 . S
Co164 N165 1.995 . S
Co164 N170 2.008 . S
Co164 N175 1.995 . S
Co164 N180 2.282 . S
Co164 N186 2.282 . S
N165 Co164 1.995 . S
N165 C166 1.376 . S
N165 C169 1.383 . S
C166 N165 1.376 . S
C166 C167 1.446 . S
C166 C196 1.391 . S
C167 C166 1.446 . S
C167 C168 1.339 . S
C167 H202 0.949 . S
C168 C167 1.339 . S
C168 C169 1.439 . S
C168 H203 0.950 . S
C169 N165 1.383 . S
C169 C168 1.439 . S
C169 C198 1.392 . S
N170 Co164 2.008 . S
N170 C171 1.376 . S
N170 C174 1.374 . S
C171 N170 1.376 . S
C171 C172 1.443 . S
C171 C198 1.389 . S
C172 C171 1.443 . S
C172 C173 1.340 . S
C172 H204 0.951 . S
C173 C172 1.340 . S
C173 C174 1.439 . S
C173 H205 0.950 . S
C174 N170 1.374 . S
C174 C173 1.439 . S
C174 C199 1.395 . S
N175 Co164 1.995 . S
N175 C176 1.376 . S
N175 C179 1.383 . S
C176 N175 1.376 . S
C176 C177 1.446 . S
C176 C199 1.391 . S
C177 C176 1.446 . S
C177 C178 1.339 . S
C177 H206 0.949 1_545 S
C178 C177 1.339 . S
C178 C179 1.439 . S
C178 H207 0.950 1_545 S
C179 N175 1.383 . S
C179 C178 1.439 . S
C179 C197 1.392 . S
N180 Co164 2.282 . S
N180 C183 1.332 . S
N180 C185 1.332 . S
C181 C182 1.386 1_545 S
C181 C184 1.388 . S
C182 C181 1.386 1_565 S
C182 C183 1.382 1_565 S
C182 H208 0.950 . S
C183 N180 1.332 . S
C183 C182 1.382 1_545 S
C183 H194 0.952 . S
C184 C181 1.388 . S
C184 C185 1.382 . S
C184 H209 0.950 . S
C185 N180 1.332 . S
C185 C184 1.382 . S
C185 H195 0.948 . S
N186 Co164 2.282 . S
N186 C190 1.332 . S
N186 C191 1.332 . S
C187 C188 1.388 . S
C187 C191 1.382 . S
C187 H210 0.950 . S
C188 C187 1.388 . S
C188 C189 1.386 . S
C189 C188 1.386 . S
C189 C190 1.382 . S
C189 H211 0.950 . S
C190 N186 1.332 . S
C190 C189 1.382 . S
C190 H192 0.952 . S
C191 N186 1.332 . S
C191 C187 1.382 . S
C191 H193 0.948 . S
H192 C190 0.952 . S
H193 C191 0.948 . S
H194 C183 0.952 . S
H195 C185 0.948 . S
C196 C162 1.395 . S
C196 C166 1.391 . S
C197 C159 1.389 . S
C197 C179 1.392 . S
C198 C169 1.392 . S
C198 C171 1.389 . S
C199 C174 1.395 . S
C199 C176 1.391 . S
H200 C160 0.951 . S
H201 C161 0.950 . S
H202 C167 0.949 . S
H203 C168 0.950 . S
H204 C172 0.951 . S
H205 C173 0.950 . S
H206 C177 0.949 1_565 S
H207 C178 0.950 1_565 S
H208 C182 0.950 . S
H209 C184 0.950 . S
H210 C187 0.950 . S
H211 C189 0.950 . S
C212 C213 1.443 . S
C212 N216 1.376 . S
C212 C250 1.389 . S
C213 C212 1.443 . S
C213 C214 1.340 . S
C213 H253 0.951 . S
C214 C213 1.340 . S
C214 C215 1.439 . S
C214 H254 0.950 . S
C215 C214 1.439 . S
C215 N216 1.374 . S
C215 C249 1.395 . S
N216 C212 1.376 . S
N216 C215 1.374 . S
N216 Co217 2.008 . S
Co217 N216 2.008 . S
Co217 N218 1.995 . S
Co217 N223 2.008 . S
Co217 N228 1.995 . S
Co217 N233 2.282 . S
Co217 N239 2.282 . S
N218 Co217 1.995 . S
N218 C219 1.376 . S
N218 C222 1.383 . S
C219 N218 1.376 . S
C219 C220 1.446 . S
C219 C249 1.391 . S
C220 C219 1.446 . S
C220 C221 1.339 . S
C220 H255 0.949 . S
C221 C220 1.339 . S
C221 C222 1.439 . S
C221 H256 0.950 . S
C222 N218 1.383 . S
C222 C221 1.439 . S
C222 C251 1.392 . S
N223 Co217 2.008 . S
N223 C224 1.376 . S
N223 C227 1.374 . S
C224 N223 1.376 . S
C224 C225 1.443 . S
C224 C251 1.389 . S
C225 C224 1.443 . S
C225 C226 1.340 . S
C225 H257 0.951 . S
C226 C225 1.340 . S
C226 C227 1.439 . S
C226 H258 0.950 . S
C227 N223 1.374 . S
C227 C226 1.439 . S
C227 C252 1.395 . S
N228 Co217 1.995 . S
N228 C229 1.376 . S
N228 C232 1.383 . S
C229 N228 1.376 . S
C229 C230 1.446 . S
C229 C252 1.391 . S
C230 C229 1.446 . S
C230 C231 1.339 . S
C230 H259 0.949 . S
C231 C230 1.339 . S
C231 C232 1.439 . S
C231 H260 0.950 . S
C232 N228 1.383 . S
C232 C231 1.439 . S
C232 C250 1.392 . S
N233 Co217 2.282 . S
N233 C236 1.332 . S
N233 C238 1.332 . S
C234 C235 1.386 . S
C234 C237 1.388 . S
C235 C234 1.386 . S
C235 C236 1.382 . S
C235 H261 0.950 . S
C236 N233 1.332 . S
C236 C235 1.382 . S
C236 H247 0.952 . S
C237 C234 1.388 . S
C237 C238 1.382 . S
C237 H262 0.950 . S
C238 N233 1.332 . S
C238 C237 1.382 . S
C238 H248 0.948 . S
N239 Co217 2.282 . S
N239 C243 1.332 . S
N239 C244 1.332 . S
C240 C241 1.388 . S
C240 C244 1.382 . S
C240 H263 0.950 . S
C241 C240 1.388 . S
C241 C242 1.386 . S
C242 C241 1.386 . S
C242 C243 1.382 . S
C242 H264 0.950 1_556 S
C243 N239 1.332 . S
C243 C242 1.382 . S
C243 H245 0.952 . S
C244 N239 1.332 . S
C244 C240 1.382 . S
C244 H246 0.948 . S
H245 C243 0.952 . S
H246 C244 0.948 . S
H247 C236 0.952 . S
H248 C238 0.948 . S
C249 C215 1.395 . S
C249 C219 1.391 . S
C250 C212 1.389 . S
C250 C232 1.392 . S
C251 C222 1.392 . S
C251 C224 1.389 . S
C252 C227 1.395 . S
C252 C229 1.391 . S
H253 C213 0.951 . S
H254 C214 0.950 . S
H255 C220 0.949 . S
H256 C221 0.950 . S
H257 C225 0.951 . S
H258 C226 0.950 . S
H259 C230 0.949 . S
H260 C231 0.950 . S
H261 C235 0.950 . S
H262 C237 0.950 . S
H263 C240 0.950 . S
H264 C242 0.950 1_554 S
C265 C266 1.443 . S
C265 N269 1.376 . S
C265 C303 1.389 . S
C266 C265 1.443 . S
C266 C267 1.340 . S
C266 H306 0.951 . S
C267 C266 1.340 . S
C267 C268 1.439 . S
C267 H307 0.950 . S
C268 C267 1.439 . S
C268 N269 1.374 . S
C268 C302 1.395 . S
N269 C265 1.376 . S
N269 C268 1.374 . S
N269 Co270 2.008 . S
Co270 N269 2.008 . S
Co270 N271 1.995 . S
Co270 N276 2.008 . S
Co270 N281 1.995 . S
Co270 N286 2.282 . S
Co270 N292 2.282 . S
N271 Co270 1.995 . S
N271 C272 1.376 . S
N271 C275 1.383 . S
C272 N271 1.376 . S
C272 C273 1.446 . S
C272 C302 1.391 . S
C273 C272 1.446 . S
C273 C274 1.339 . S
C273 H308 0.949 . S
C274 C273 1.339 . S
C274 C275 1.439 . S
C274 H309 0.950 . S
C275 N271 1.383 . S
C275 C274 1.439 . S
C275 C304 1.392 . S
N276 Co270 2.008 . S
N276 C277 1.376 . S
N276 C280 1.374 . S
C277 N276 1.376 . S
C277 C278 1.443 . S
C277 C304 1.389 . S
C278 C277 1.443 . S
C278 C279 1.340 . S
C278 H310 0.951 . S
C279 C278 1.340 . S
C279 C280 1.439 . S
C279 H311 0.950 . S
C280 N276 1.374 . S
C280 C279 1.439 . S
C280 C305 1.395 . S
N281 Co270 1.995 . S
N281 C282 1.376 . S
N281 C285 1.383 . S
C282 N281 1.376 . S
C282 C283 1.446 . S
C282 C305 1.391 . S
C283 C282 1.446 . S
C283 C284 1.339 . S
C283 H312 0.949 . S
C284 C283 1.339 . S
C284 C285 1.439 . S
C284 H313 0.950 . S
C285 N281 1.383 . S
C285 C284 1.439 . S
C285 C303 1.392 . S
N286 Co270 2.282 . S
N286 C289 1.332 . S
N286 C291 1.332 . S
C287 C288 1.386 . S
C287 C290 1.388 . S
C288 C287 1.386 . S
C288 C289 1.382 . S
C288 H314 0.950 . S
C289 N286 1.332 . S
C289 C288 1.382 . S
C289 H300 0.952 . S
C290 C287 1.388 . S
C290 C291 1.382 . S
C290 H315 0.950 . S
C291 N286 1.332 . S
C291 C290 1.382 . S
C291 H301 0.948 . S
N292 Co270 2.282 . S
N292 C296 1.332 . S
N292 C297 1.332 . S
C293 C294 1.388 . S
C293 C297 1.382 . S
C293 H316 0.950 . S
C294 C293 1.388 . S
C294 C295 1.386 . S
C295 C294 1.386 . S
C295 C296 1.382 . S
C295 H317 0.950 . S
C296 N292 1.332 . S
C296 C295 1.382 . S
C296 H298 0.952 . S
C297 N292 1.332 . S
C297 C293 1.382 . S
C297 H299 0.948 . S
H298 C296 0.952 . S
H299 C297 0.948 . S
H300 C289 0.952 . S
H301 C291 0.948 . S
C302 C268 1.395 . S
C302 C272 1.391 . S
C303 C265 1.389 . S
C303 C285 1.392 . S
C304 C275 1.392 . S
C304 C277 1.389 . S
C305 C280 1.395 . S
C305 C282 1.391 . S
H306 C266 0.951 . S
H307 C267 0.950 . S
H308 C273 0.949 . S
H309 C274 0.950 . S
H310 C278 0.951 . S
H311 C279 0.950 . S
H312 C283 0.949 . S
H313 C284 0.950 . S
H314 C288 0.950 . S
H315 C290 0.950 . S
H316 C293 0.950 . S
H317 C295 0.950 . S
C318 C319 1.443 . S
C318 N322 1.376 . S
C318 C356 1.389 . S
C319 C318 1.443 . S
C319 C320 1.340 . S
C319 H359 0.951 . S
C320 C319 1.340 . S
C320 C321 1.439 . S
C320 H360 0.950 . S
C321 C320 1.439 . S
C321 N322 1.374 . S
C321 C355 1.395 . S
N322 C318 1.376 . S
N322 C321 1.374 . S
N322 Co323 2.008 . S
Co323 N322 2.008 . S
Co323 N324 1.995 . S
Co323 N329 2.008 . S
Co323 N334 1.995 . S
Co323 N339 2.282 . S
Co323 N345 2.282 . S
N324 Co323 1.995 . S
N324 C325 1.376 . S
N324 C328 1.383 . S
C325 N324 1.376 . S
C325 C326 1.446 . S
C325 C355 1.391 . S
C326 C325 1.446 . S
C326 C327 1.339 . S
C326 H361 0.949 . S
C327 C326 1.339 . S
C327 C328 1.439 . S
C327 H362 0.950 . S
C328 N324 1.383 . S
C328 C327 1.439 . S
C328 C357 1.392 . S
N329 Co323 2.008 . S
N329 C330 1.376 . S
N329 C333 1.374 . S
C330 N329 1.376 . S
C330 C331 1.443 . S
C330 C357 1.389 . S
C331 C330 1.443 . S
C331 C332 1.340 . S
C331 H363 0.951 . S
C332 C331 1.340 . S
C332 C333 1.439 . S
C332 H364 0.950 . S
C333 N329 1.374 . S
C333 C332 1.439 . S
C333 C358 1.395 . S
N334 Co323 1.995 . S
N334 C335 1.376 . S
N334 C338 1.383 . S
C335 N334 1.376 . S
C335 C336 1.446 . S
C335 C358 1.391 . S
C336 C335 1.446 . S
C336 C337 1.339 . S
C336 H365 0.949 . S
C337 C336 1.339 . S
C337 C338 1.439 . S
C337 H366 0.950 . S
C338 N334 1.383 . S
C338 C337 1.439 . S
C338 C356 1.392 . S
N339 Co323 2.282 . S
N339 C342 1.332 . S
N339 C344 1.332 . S
C340 C341 1.386 . S
C340 C343 1.388 . S
C341 C340 1.386 . S
C341 C342 1.382 . S
C341 H367 0.950 . S
C342 N339 1.332 . S
C342 C341 1.382 . S
C342 H353 0.952 . S
C343 C340 1.388 . S
C343 C344 1.382 . S
C343 H368 0.950 . S
C344 N339 1.332 . S
C344 C343 1.382 . S
C344 H354 0.948 . S
N345 Co323 2.282 . S
N345 C349 1.332 . S
N345 C350 1.332 . S
C346 C347 1.388 . S
C346 C350 1.382 . S
C346 H369 0.950 . S
C347 C346 1.388 . S
C347 C348 1.386 . S
C348 C347 1.386 . S
C348 C349 1.382 . S
C348 H370 0.950 1_556 S
C349 N345 1.332 . S
C349 C348 1.382 . S
C349 H351 0.952 . S
C350 N345 1.332 . S
C350 C346 1.382 . S
C350 H352 0.948 . S
H351 C349 0.952 . S
H352 C350 0.948 . S
H353 C342 0.952 . S
H354 C344 0.948 . S
C355 C321 1.395 . S
C355 C325 1.391 . S
C356 C318 1.389 . S
C356 C338 1.392 . S
C357 C328 1.392 . S
C357 C330 1.389 . S
C358 C333 1.395 . S
C358 C335 1.391 . S
H359 C319 0.951 . S
H360 C320 0.950 . S
H361 C326 0.949 . S
H362 C327 0.950 . S
H363 C331 0.951 . S
H364 C332 0.950 . S
H365 C336 0.949 . S
H366 C337 0.950 . S
H367 C341 0.950 . S
H368 C343 0.950 . S
H369 C346 0.950 . S
H370 C348 0.950 1_554 S
C371 C372 1.443 . S
C371 N375 1.376 . S
C371 C409 1.389 . S
C372 C371 1.443 . S
C372 C373 1.340 . S
C372 H412 0.951 . S
C373 C372 1.340 . S
C373 C374 1.439 . S
C373 H413 0.950 . S
C374 C373 1.439 . S
C374 N375 1.374 . S
C374 C408 1.395 . S
N375 C371 1.376 . S
N375 C374 1.374 . S
N375 Co376 2.008 . S
Co376 N375 2.008 . S
Co376 N377 1.995 . S
Co376 N382 2.008 . S
Co376 N387 1.995 . S
Co376 N392 2.282 . S
Co376 N398 2.282 . S
N377 Co376 1.995 . S
N377 C378 1.376 . S
N377 C381 1.383 . S
C378 N377 1.376 . S
C378 C379 1.446 . S
C378 C408 1.391 . S
C379 C378 1.446 . S
C379 C380 1.339 . S
C379 H414 0.949 . S
C380 C379 1.339 . S
C380 C381 1.439 . S
C380 H415 0.950 . S
C381 N377 1.383 . S
C381 C380 1.439 . S
C381 C410 1.392 . S
N382 Co376 2.008 . S
N382 C383 1.376 . S
N382 C386 1.374 . S
C383 N382 1.376 . S
C383 C384 1.443 . S
C383 C410 1.389 . S
C384 C383 1.443 . S
C384 C385 1.340 . S
C384 H416 0.951 . S
C385 C384 1.340 . S
C385 C386 1.439 . S
C385 H417 0.950 . S
C386 N382 1.374 . S
C386 C385 1.439 . S
C386 C411 1.395 . S
N387 Co376 1.995 . S
N387 C388 1.376 . S
N387 C391 1.383 . S
C388 N387 1.376 . S
C388 C389 1.446 . S
C388 C411 1.391 . S
C389 C388 1.446 . S
C389 C390 1.339 . S
C389 H418 0.949 . S
C390 C389 1.339 . S
C390 C391 1.439 . S
C390 H419 0.950 . S
C391 N387 1.383 . S
C391 C390 1.439 . S
C391 C409 1.392 . S
N392 Co376 2.282 . S
N392 C395 1.332 . S
N392 C397 1.332 . S
C393 C394 1.386 . S
C393 C396 1.388 . S
C394 C393 1.386 . S
C394 C395 1.382 . S
C394 H420 0.950 . S
C395 N392 1.332 . S
C395 C394 1.382 . S
C395 H406 0.952 . S
C396 C393 1.388 . S
C396 C397 1.382 . S
C396 H421 0.950 . S
C397 N392 1.332 . S
C397 C396 1.382 . S
C397 H407 0.948 . S
N398 Co376 2.282 . S
N398 C402 1.332 . S
N398 C403 1.332 . S
C399 C400 1.388 . S
C399 C403 1.382 . S
C399 H422 0.950 . S
C400 C399 1.388 . S
C400 C401 1.386 . S
C401 C400 1.386 . S
C401 C402 1.382 . S
C401 H423 0.950 . S
C402 N398 1.332 . S
C402 C401 1.382 . S
C402 H404 0.952 . S
C403 N398 1.332 . S
C403 C399 1.382 . S
C403 H405 0.948 . S
H404 C402 0.952 . S
H405 C403 0.948 . S
H406 C395 0.952 . S
H407 C397 0.948 . S
C408 C374 1.395 . S
C408 C378 1.391 . S
C409 C371 1.389 . S
C409 C391 1.392 . S
C410 C381 1.392 . S
C410 C383 1.389 . S
C411 C386 1.395 . S
C411 C388 1.391 . S
H412 C372 0.951 . S
H413 C373 0.950 . S
H414 C379 0.949 . S
H415 C380 0.950 . S
H416 C384 0.951 . S
H417 C385 0.950 . S
H418 C389 0.949 . S
H419 C390 0.950 . S
H420 C394 0.950 . S
H421 C396 0.950 . S
H422 C399 0.950 . S
H423 C401 0.950 . S
H424 C442 0.951 . S
H425 C444 0.951 . S
H426 C446 0.950 . S
H427 C447 0.950 . S
H428 C449 0.950 . S
H429 C452 0.950 . S
H430 C453 0.950 . S
H431 C455 0.950 . S
H432 C456 0.950 . S
H433 C457 0.951 . S
H434 C459 0.951 . S
H435 C461 0.950 . S
H436 C462 0.950 . S
H437 C464 0.950 . S
H438 C467 0.950 . S
H439 C468 0.950 . S
H440 C470 0.950 . S
H441 C471 0.950 . S
C442 H424 0.951 . S
C442 C443 1.366 . S
C442 C444 1.388 . S
C443 C442 1.366 . S
C443 C447 1.385 . S
C444 H425 0.951 . S
C444 C442 1.388 . S
C444 C445 1.366 . S
C445 C444 1.366 . S
C445 C446 1.414 . S
C445 C448 1.499 . S
C446 H426 0.950 . S
C446 C445 1.414 . S
C446 C447 1.374 . S
C447 H427 0.950 . S
C447 C443 1.385 . S
C447 C446 1.374 . S
C448 C445 1.499 . S
C448 C449 1.373 . S
C448 C450 1.389 . S
C449 H428 0.950 . S
C449 C448 1.373 . S
C449 C465 1.377 . S
C450 C448 1.389 . S
C450 C451 1.524 . S
C450 C464 1.377 . S
C451 C450 1.524 . S
C451 C452 1.397 . S
C451 C456 1.363 . S
C452 H429 0.950 . S
C452 C451 1.397 . S
C452 C453 1.334 . S
C453 H430 0.950 . S
C453 C452 1.334 . S
C453 C454 1.287 . S
C454 C453 1.287 . S
C454 C455 1.524 . S
C454 H473 0.913 . S
C455 H431 0.950 . S
C455 C454 1.524 . S
C455 C456 1.415 . S
C456 H432 0.950 . S
C456 C451 1.363 . S
C456 C455 1.415 . S
C457 H433 0.951 . S
C457 C458 1.366 . S
C457 C459 1.388 . S
C458 C457 1.366 . S
C458 C462 1.385 . S
C459 H434 0.951 . S
C459 C457 1.388 . S
C459 C460 1.366 . S
C460 C459 1.366 . S
C460 C461 1.414 . S
C460 C463 1.499 . S
C461 H435 0.950 . S
C461 C460 1.414 . S
C461 C462 1.374 . S
C462 H436 0.950 . S
C462 C458 1.385 . S
C462 C461 1.374 . S
C463 C460 1.499 . S
C463 C464 1.373 . S
C463 C465 1.389 . S
C464 H437 0.950 . S
C464 C450 1.377 . S
C464 C463 1.373 . S
C465 C449 1.377 . S
C465 C463 1.389 . S
C465 C466 1.524 . S
C466 C465 1.524 . S
C466 C467 1.397 . S
C466 C471 1.363 . S
C467 H438 0.950 . S
C467 C466 1.397 . S
C467 C468 1.334 . S
C468 H439 0.950 . S
C468 C467 1.334 . S
C468 C469 1.287 . S
C469 C468 1.287 . S
C469 C470 1.524 . S
C469 H472 0.999 . S
C470 H440 0.950 . S
C470 C469 1.524 . S
C470 C471 1.415 . S
C471 H441 0.950 . S
C471 C466 1.363 . S
C471 C470 1.415 . S
H472 C469 0.999 . S
H473 C454 0.913 . S
H474 C492 0.951 . S
H475 C494 0.951 . S
H476 C496 0.950 . S
H477 C497 0.950 . S
H478 C499 0.950 . S
H479 C502 0.950 . S
H480 C503 0.950 . S
H481 C505 0.950 . S
H482 C506 0.950 . S
H483 C507 0.951 . S
H484 C509 0.951 . S
H485 C511 0.950 . S
H486 C512 0.950 . S
H487 C514 0.950 . S
H488 C517 0.950 . S
H489 C518 0.950 . S
H490 C520 0.950 . S
H491 C521 0.950 . S
C492 H474 0.951 . S
C492 C493 1.366 . S
C492 C494 1.388 . S
C493 C492 1.366 . S
C493 C497 1.385 . S
C494 H475 0.951 . S
C494 C492 1.388 . S
C494 C495 1.366 . S
C495 C494 1.366 . S
C495 C496 1.414 . S
C495 C498 1.499 . S
C496 H476 0.950 . S
C496 C495 1.414 . S
C496 C497 1.374 . S
C497 H477 0.950 . S
C497 C493 1.385 . S
C497 C496 1.374 . S
C498 C495 1.499 . S
C498 C499 1.373 . S
C498 C500 1.389 . S
C499 H478 0.950 . S
C499 C498 1.373 . S
C499 C515 1.377 . S
C500 C498 1.389 . S
C500 C501 1.524 . S
C500 C514 1.377 . S
C501 C500 1.524 . S
C501 C502 1.397 . S
C501 C506 1.363 . S
C502 H479 0.950 . S
C502 C501 1.397 . S
C502 C503 1.334 . S
C503 H480 0.950 . S
C503 C502 1.334 . S
C503 C504 1.287 . S
C504 C503 1.287 . S
C504 C505 1.524 . S
C504 H523 0.913 . S
C505 H481 0.950 . S
C505 C504 1.524 . S
C505 C506 1.415 . S
C506 H482 0.950 . S
C506 C501 1.363 . S
C506 C505 1.415 . S
C507 H483 0.951 . S
C507 C508 1.366 . S
C507 C509 1.388 . S
C508 C507 1.366 . S
C508 C512 1.385 . S
C509 H484 0.951 . S
C509 C507 1.388 . S
C509 C510 1.366 . S
C510 C509 1.366 . S
C510 C511 1.414 . S
C510 C513 1.499 . S
C511 H485 0.950 . S
C511 C510 1.414 . S
C511 C512 1.374 . S
C512 H486 0.950 . S
C512 C508 1.385 . S
C512 C511 1.374 . S
C513 C510 1.499 . S
C513 C514 1.373 . S
C513 C515 1.389 . S
C514 H487 0.950 . S
C514 C500 1.377 . S
C514 C513 1.373 . S
C515 C499 1.377 . S
C515 C513 1.389 . S
C515 C516 1.524 . S
C516 C515 1.524 . S
C516 C517 1.397 . S
C516 C521 1.363 . S
C517 H488 0.950 . S
C517 C516 1.397 . S
C517 C518 1.334 . S
C518 H489 0.950 . S
C518 C517 1.334 . S
C518 C519 1.287 . S
C519 C518 1.287 . S
C519 C520 1.524 . S
C519 H522 0.999 . S
C520 H490 0.950 . S
C520 C519 1.524 . S
C520 C521 1.415 . S
C521 H491 0.950 . S
C521 C516 1.363 . S
C521 C520 1.415 . S
H522 C519 0.999 . S
H523 C504 0.913 . S
H524 C542 0.951 . S
H525 C544 0.951 . S
H526 C546 0.950 . S
H527 C547 0.950 . S
H528 C549 0.950 . S
H529 C552 0.950 . S
H530 C553 0.950 . S
H531 C555 0.950 . S
H532 C556 0.950 . S
H533 C557 0.951 . S
H534 C559 0.951 . S
H535 C561 0.950 . S
H536 C562 0.950 . S
H537 C564 0.950 . S
H538 C567 0.950 . S
H539 C568 0.950 . S
H540 C570 0.950 . S
H541 C571 0.950 . S
C542 H524 0.951 . S
C542 C543 1.366 . S
C542 C544 1.388 . S
C543 C542 1.366 . S
C543 C547 1.385 . S
C544 H525 0.951 . S
C544 C542 1.388 . S
C544 C545 1.366 . S
C545 C544 1.366 . S
C545 C546 1.414 . S
C545 C548 1.499 . S
C546 H526 0.950 . S
C546 C545 1.414 . S
C546 C547 1.374 . S
C547 H527 0.950 . S
C547 C543 1.385 . S
C547 C546 1.374 . S
C548 C545 1.499 . S
C548 C549 1.373 . S
C548 C550 1.389 . S
C549 H528 0.950 . S
C549 C548 1.373 . S
C549 C565 1.377 . S
C550 C548 1.389 . S
C550 C551 1.524 . S
C550 C564 1.377 . S
C551 C550 1.524 . S
C551 C552 1.397 . S
C551 C556 1.363 . S
C552 H529 0.950 . S
C552 C551 1.397 . S
C552 C553 1.334 . S
C553 H530 0.950 . S
C553 C552 1.334 . S
C553 C554 1.287 . S
C554 C553 1.287 . S
C554 C555 1.524 . S
C554 H573 0.913 . S
C555 H531 0.950 . S
C555 C554 1.524 . S
C555 C556 1.415 . S
C556 H532 0.950 . S
C556 C551 1.363 . S
C556 C555 1.415 . S
C557 H533 0.951 . S
C557 C558 1.366 . S
C557 C559 1.388 . S
C558 C557 1.366 . S
C558 C562 1.385 . S
C559 H534 0.951 . S
C559 C557 1.388 . S
C559 C560 1.366 . S
C560 C559 1.366 . S
C560 C561 1.414 . S
C560 C563 1.499 . S
C561 H535 0.950 . S
C561 C560 1.414 . S
C561 C562 1.374 . S
C562 H536 0.950 . S
C562 C558 1.385 . S
C562 C561 1.374 . S
C563 C560 1.499 . S
C563 C564 1.373 . S
C563 C565 1.389 . S
C564 H537 0.950 . S
C564 C550 1.377 . S
C564 C563 1.373 . S
C565 C549 1.377 . S
C565 C563 1.389 . S
C565 C566 1.524 . S
C566 C565 1.524 . S
C566 C567 1.397 . S
C566 C571 1.363 . S
C567 H538 0.950 . S
C567 C566 1.397 . S
C567 C568 1.334 . S
C568 H539 0.950 . S
C568 C567 1.334 . S
C568 C569 1.287 . S
C569 C568 1.287 . S
C569 C570 1.524 . S
C569 H572 0.999 . S
C570 H540 0.950 . S
C570 C569 1.524 . S
C570 C571 1.415 . S
C571 H541 0.950 . S
C571 C566 1.363 . S
C571 C570 1.415 . S
H572 C569 0.999 . S
H573 C554 0.913 . S
H574 C592 0.951 . S
H575 C594 0.951 . S
H576 C596 0.950 . S
H577 C597 0.950 . S
H578 C599 0.950 . S
H579 C602 0.950 . S
H580 C603 0.950 . S
H581 C605 0.950 . S
H582 C606 0.950 . S
H583 C607 0.951 . S
H584 C609 0.951 . S
H585 C611 0.950 . S
H586 C612 0.950 . S
H587 C614 0.950 . S
H588 C617 0.950 . S
H589 C618 0.950 . S
H590 C620 0.950 . S
H591 C621 0.950 . S
C592 H574 0.951 . S
C592 C593 1.366 . S
C592 C594 1.388 . S
C593 C592 1.366 . S
C593 C597 1.385 . S
C594 H575 0.951 . S
C594 C592 1.388 . S
C594 C595 1.366 . S
C595 C594 1.366 . S
C595 C596 1.414 . S
C595 C598 1.499 . S
C596 H576 0.950 . S
C596 C595 1.414 . S
C596 C597 1.374 . S
C597 H577 0.950 . S
C597 C593 1.385 . S
C597 C596 1.374 . S
C598 C595 1.499 . S
C598 C599 1.373 . S
C598 C600 1.389 . S
C599 H578 0.950 . S
C599 C598 1.373 . S
C599 C615 1.377 . S
C600 C598 1.389 . S
C600 C601 1.524 . S
C600 C614 1.377 . S
C601 C600 1.524 . S
C601 C602 1.397 . S
C601 C606 1.363 . S
C602 H579 0.950 . S
C602 C601 1.397 . S
C602 C603 1.334 . S
C603 H580 0.950 . S
C603 C602 1.334 . S
C603 C604 1.287 . S
C604 C603 1.287 . S
C604 C605 1.524 . S
C604 H623 0.913 . S
C605 H581 0.950 . S
C605 C604 1.524 . S
C605 C606 1.415 . S
C606 H582 0.950 . S
C606 C601 1.363 . S
C606 C605 1.415 . S
C607 H583 0.951 . S
C607 C608 1.366 . S
C607 C609 1.388 . S
C608 C607 1.366 . S
C608 C612 1.385 . S
C609 H584 0.951 . S
C609 C607 1.388 . S
C609 C610 1.366 . S
C610 C609 1.366 . S
C610 C611 1.414 . S
C610 C613 1.499 . S
C611 H585 0.950 . S
C611 C610 1.414 . S
C611 C612 1.374 . S
C612 H586 0.950 . S
C612 C608 1.385 . S
C612 C611 1.374 . S
C613 C610 1.499 . S
C613 C614 1.373 . S
C613 C615 1.389 . S
C614 H587 0.950 . S
C614 C600 1.377 . S
C614 C613 1.373 . S
C615 C599 1.377 . S
C615 C613 1.389 . S
C615 C616 1.524 . S
C616 C615 1.524 . S
C616 C617 1.397 . S
C616 C621 1.363 . S
C617 H588 0.950 . S
C617 C616 1.397 . S
C617 C618 1.334 . S
C618 H589 0.950 . S
C618 C617 1.334 . S
C618 C619 1.287 . S
C619 C618 1.287 . S
C619 C620 1.524 . S
C619 H622 0.999 . S
C620 H590 0.950 . S
C620 C619 1.524 . S
C620 C621 1.415 . S
C621 H591 0.950 . S
C621 C616 1.363 . S
C621 C620 1.415 . S
H622 C619 0.999 . S
H623 C604 0.913 . S
H624 C642 0.951 . S
H625 C644 0.951 . S
H626 C646 0.950 . S
H627 C647 0.950 . S
H628 C649 0.950 . S
H629 C652 0.950 . S
H630 C653 0.950 . S
H631 C655 0.950 . S
H632 C656 0.950 . S
H633 C657 0.951 . S
H634 C659 0.951 . S
H635 C661 0.950 . S
H636 C662 0.950 . S
H637 C664 0.950 . S
H638 C667 0.950 . S
H639 C668 0.950 . S
H640 C670 0.950 . S
H641 C671 0.950 . S
C642 H624 0.951 . S
C642 C643 1.366 . S
C642 C644 1.388 . S
C643 C642 1.366 . S
C643 C647 1.385 . S
C644 H625 0.951 . S
C644 C642 1.388 . S
C644 C645 1.366 . S
C645 C644 1.366 . S
C645 C646 1.414 . S
C645 C648 1.499 . S
C646 H626 0.950 . S
C646 C645 1.414 . S
C646 C647 1.374 . S
C647 H627 0.950 . S
C647 C643 1.385 . S
C647 C646 1.374 . S
C648 C645 1.499 . S
C648 C649 1.373 . S
C648 C650 1.389 . S
C649 H628 0.950 . S
C649 C648 1.373 . S
C649 C665 1.377 . S
C650 C648 1.389 . S
C650 C651 1.524 . S
C650 C664 1.377 . S
C651 C650 1.524 . S
C651 C652 1.397 . S
C651 C656 1.363 . S
C652 H629 0.950 . S
C652 C651 1.397 . S
C652 C653 1.334 . S
C653 H630 0.950 . S
C653 C652 1.334 . S
C653 C654 1.287 . S
C654 C653 1.287 . S
C654 C655 1.524 . S
C654 H673 0.913 . S
C655 H631 0.950 . S
C655 C654 1.524 . S
C655 C656 1.415 . S
C656 H632 0.950 . S
C656 C651 1.363 . S
C656 C655 1.415 . S
C657 H633 0.951 . S
C657 C658 1.366 . S
C657 C659 1.388 . S
C658 C657 1.366 . S
C658 C662 1.385 . S
C659 H634 0.951 . S
C659 C657 1.388 . S
C659 C660 1.366 . S
C660 C659 1.366 . S
C660 C661 1.414 . S
C660 C663 1.499 . S
C661 H635 0.950 . S
C661 C660 1.414 . S
C661 C662 1.374 . S
C662 H636 0.950 . S
C662 C658 1.385 . S
C662 C661 1.374 . S
C663 C660 1.499 . S
C663 C664 1.373 . S
C663 C665 1.389 . S
C664 H637 0.950 . S
C664 C650 1.377 . S
C664 C663 1.373 . S
C665 C649 1.377 . S
C665 C663 1.389 . S
C665 C666 1.524 . S
C666 C665 1.524 . S
C666 C667 1.397 . S
C666 C671 1.363 . S
C667 H638 0.950 . S
C667 C666 1.397 . S
C667 C668 1.334 . S
C668 H639 0.950 . S
C668 C667 1.334 . S
C668 C669 1.287 . S
C669 C668 1.287 . S
C669 C670 1.524 . S
C669 H672 0.999 . S
C670 H640 0.950 . S
C670 C669 1.524 . S
C670 C671 1.415 . S
C671 H641 0.950 . S
C671 C666 1.363 . S
C671 C670 1.415 . S
H672 C669 0.999 . S
H673 C654 0.913 . S
H674 C692 0.951 . S
H675 C694 0.951 . S
H676 C696 0.950 . S
H677 C697 0.950 . S
H678 C699 0.950 . S
H679 C702 0.950 . S
H680 C703 0.950 . S
H681 C705 0.950 . S
H682 C706 0.950 . S
H683 C707 0.951 . S
H684 C709 0.951 . S
H685 C711 0.950 . S
H686 C712 0.950 . S
H687 C714 0.950 . S
H688 C717 0.950 . S
H689 C718 0.950 . S
H690 C720 0.950 . S
H691 C721 0.950 . S
C692 H674 0.951 . S
C692 C693 1.366 . S
C692 C694 1.388 . S
C693 C692 1.366 . S
C693 C697 1.385 . S
C694 H675 0.951 . S
C694 C692 1.388 . S
C694 C695 1.366 . S
C695 C694 1.366 . S
C695 C696 1.414 . S
C695 C698 1.499 . S
C696 H676 0.950 . S
C696 C695 1.414 . S
C696 C697 1.374 . S
C697 H677 0.950 . S
C697 C693 1.385 . S
C697 C696 1.374 . S
C698 C695 1.499 . S
C698 C699 1.373 . S
C698 C700 1.389 . S
C699 H678 0.950 . S
C699 C698 1.373 . S
C699 C715 1.377 . S
C700 C698 1.389 . S
C700 C701 1.524 . S
C700 C714 1.377 . S
C701 C700 1.524 . S
C701 C702 1.397 . S
C701 C706 1.363 . S
C702 H679 0.950 . S
C702 C701 1.397 . S
C702 C703 1.334 . S
C703 H680 0.950 . S
C703 C702 1.334 . S
C703 C704 1.287 . S
C704 C703 1.287 . S
C704 C705 1.524 . S
C704 H723 0.913 . S
C705 H681 0.950 . S
C705 C704 1.524 . S
C705 C706 1.415 . S
C706 H682 0.950 . S
C706 C701 1.363 . S
C706 C705 1.415 . S
C707 H683 0.951 . S
C707 C708 1.366 . S
C707 C709 1.388 . S
C708 C707 1.366 . S
C708 C712 1.385 . S
C709 H684 0.951 . S
C709 C707 1.388 . S
C709 C710 1.366 . S
C710 C709 1.366 . S
C710 C711 1.414 . S
C710 C713 1.499 . S
C711 H685 0.950 . S
C711 C710 1.414 . S
C711 C712 1.374 . S
C712 H686 0.950 . S
C712 C708 1.385 . S
C712 C711 1.374 . S
C713 C710 1.499 . S
C713 C714 1.373 . S
C713 C715 1.389 . S
C714 H687 0.950 . S
C714 C700 1.377 . S
C714 C713 1.373 . S
C715 C699 1.377 . S
C715 C713 1.389 . S
C715 C716 1.524 . S
C716 C715 1.524 . S
C716 C717 1.397 . S
C716 C721 1.363 . S
C717 H688 0.950 . S
C717 C716 1.397 . S
C717 C718 1.334 . S
C718 H689 0.950 . S
C718 C717 1.334 . S
C718 C719 1.287 . S
C719 C718 1.287 . S
C719 C720 1.524 . S
C719 H722 0.999 . S
C720 H690 0.950 . S
C720 C719 1.524 . S
C720 C721 1.415 . S
C721 H691 0.950 . S
C721 C716 1.363 . S
C721 C720 1.415 . S
H722 C719 0.999 . S
H723 C704 0.913 . S
H724 C742 0.951 . S
H725 C744 0.951 . S
H726 C746 0.950 . S
H727 C747 0.950 . S
H728 C749 0.950 . S
H729 C752 0.950 . S
H730 C753 0.950 . S
H731 C755 0.950 1_545 S
H732 C756 0.950 . S
H733 C757 0.951 . S
H734 C759 0.951 . S
H735 C761 0.950 . S
H736 C762 0.950 . S
H737 C764 0.950 . S
H738 C767 0.950 . S
H739 C768 0.950 . S
H740 C770 0.950 . S
H741 C771 0.950 . S
C742 H724 0.951 . S
C742 C743 1.366 . S
C742 C744 1.388 . S
C743 C742 1.366 . S
C743 C747 1.385 . S
C744 H725 0.951 . S
C744 C742 1.388 . S
C744 C745 1.366 . S
C745 C744 1.366 . S
C745 C746 1.414 . S
C745 C748 1.499 . S
C746 H726 0.950 . S
C746 C745 1.414 . S
C746 C747 1.374 . S
C747 H727 0.950 . S
C747 C743 1.385 . S
C747 C746 1.374 . S
C748 C745 1.499 . S
C748 C749 1.373 . S
C748 C750 1.389 . S
C749 H728 0.950 . S
C749 C748 1.373 . S
C749 C765 1.377 . S
C750 C748 1.389 . S
C750 C751 1.524 . S
C750 C764 1.377 . S
C751 C750 1.524 . S
C751 C752 1.397 . S
C751 C756 1.363 . S
C752 H729 0.950 . S
C752 C751 1.397 . S
C752 C753 1.334 1_565 S
C753 H730 0.950 . S
C753 C752 1.334 1_545 S
C753 C754 1.287 . S
C754 C753 1.287 . S
C754 C755 1.524 1_545 S
C754 H773 0.913 . S
C755 H731 0.950 1_565 S
C755 C754 1.524 1_565 S
C755 C756 1.415 . S
C756 H732 0.950 . S
C756 C751 1.363 . S
C756 C755 1.415 . S
C757 H733 0.951 . S
C757 C758 1.366 . S
C757 C759 1.388 . S
C758 C757 1.366 . S
C758 C762 1.385 . S
C759 H734 0.951 . S
C759 C757 1.388 . S
C759 C760 1.366 . S
C760 C759 1.366 . S
C760 C761 1.414 . S
C760 C763 1.499 . S
C761 H735 0.950 . S
C761 C760 1.414 . S
C761 C762 1.374 . S
C762 H736 0.950 . S
C762 C758 1.385 . S
C762 C761 1.374 . S
C763 C760 1.499 . S
C763 C764 1.373 . S
C763 C765 1.389 . S
C764 H737 0.950 . S
C764 C750 1.377 . S
C764 C763 1.373 . S
C765 C749 1.377 . S
C765 C763 1.389 . S
C765 C766 1.524 . S
C766 C765 1.524 . S
C766 C767 1.397 . S
C766 C771 1.363 . S
C767 H738 0.950 . S
C767 C766 1.397 . S
C767 C768 1.334 . S
C768 H739 0.950 . S
C768 C767 1.334 . S
C768 C769 1.287 . S
C769 C768 1.287 . S
C769 C770 1.524 . S
C769 H772 0.999 . S
C770 H740 0.950 . S
C770 C769 1.524 . S
C770 C771 1.415 . S
C771 H741 0.950 . S
C771 C766 1.363 . S
C771 C770 1.415 . S
H772 C769 0.999 . S
H773 C754 0.913 . S
H774 C792 0.951 . S
H775 C794 0.951 . S
H776 C796 0.950 . S
H777 C797 0.950 . S
H778 C799 0.950 . S
H779 C802 0.950 . S
H780 C803 0.950 . S
H781 C805 0.950 . S
H782 C806 0.950 . S
H783 C807 0.951 . S
H784 C809 0.951 . S
H785 C811 0.950 . S
H786 C812 0.950 . S
H787 C814 0.950 . S
H788 C817 0.950 . S
H789 C818 0.950 . S
H790 C820 0.950 . S
H791 C821 0.950 . S
C792 H774 0.951 . S
C792 C793 1.366 . S
C792 C794 1.388 . S
C793 C792 1.366 . S
C793 C797 1.385 . S
C794 H775 0.951 . S
C794 C792 1.388 . S
C794 C795 1.366 . S
C795 C794 1.366 . S
C795 C796 1.414 . S
C795 C798 1.499 . S
C796 H776 0.950 . S
C796 C795 1.414 . S
C796 C797 1.374 . S
C797 H777 0.950 . S
C797 C793 1.385 . S
C797 C796 1.374 . S
C798 C795 1.499 . S
C798 C799 1.373 . S
C798 C800 1.389 . S
C799 H778 0.950 . S
C799 C798 1.373 . S
C799 C815 1.377 . S
C800 C798 1.389 . S
C800 C801 1.524 . S
C800 C814 1.377 . S
C801 C800 1.524 . S
C801 C802 1.397 . S
C801 C806 1.363 . S
C802 H779 0.950 . S
C802 C801 1.397 . S
C802 C803 1.334 . S
C803 H780 0.950 . S
C803 C802 1.334 . S
C803 C804 1.287 . S
C804 C803 1.287 . S
C804 C805 1.524 . S
C804 H823 0.913 . S
C805 H781 0.950 . S
C805 C804 1.524 . S
C805 C806 1.415 . S
C806 H782 0.950 . S
C806 C801 1.363 . S
C806 C805 1.415 . S
C807 H783 0.951 . S
C807 C808 1.366 . S
C807 C809 1.388 . S
C808 C807 1.366 . S
C808 C812 1.385 . S
C809 H784 0.951 . S
C809 C807 1.388 . S
C809 C810 1.366 . S
C810 C809 1.366 . S
C810 C811 1.414 . S
C810 C813 1.499 . S
C811 H785 0.950 . S
C811 C810 1.414 . S
C811 C812 1.374 . S
C812 H786 0.950 . S
C812 C808 1.385 . S
C812 C811 1.374 . S
C813 C810 1.499 . S
C813 C814 1.373 . S
C813 C815 1.389 . S
C814 H787 0.950 . S
C814 C800 1.377 . S
C814 C813 1.373 . S
C815 C799 1.377 . S
C815 C813 1.389 . S
C815 C816 1.524 . S
C816 C815 1.524 . S
C816 C817 1.397 . S
C816 C821 1.363 . S
C817 H788 0.950 . S
C817 C816 1.397 . S
C817 C818 1.334 . S
C818 H789 0.950 . S
C818 C817 1.334 . S
C818 C819 1.287 . S
C819 C818 1.287 . S
C819 C820 1.524 . S
C819 H822 0.999 . S
C820 H790 0.950 . S
C820 C819 1.524 . S
C820 C821 1.415 . S
C821 H791 0.950 . S
C821 C816 1.363 . S
C821 C820 1.415 . S
H822 C819 0.999 . S
H823 C804 0.913 . S
H824 C842 0.951 . S
H825 C844 0.951 . S
H826 C846 0.950 . S
H827 C847 0.950 . S
H828 C849 0.950 . S
H829 C852 0.950 . S
H830 C853 0.950 . S
H831 C855 0.950 . S
H832 C856 0.950 . S
H833 C857 0.951 . S
H834 C859 0.951 . S
H835 C861 0.950 . S
H836 C862 0.950 . S
H837 C864 0.950 . S
H838 C867 0.950 . S
H839 C868 0.975 . S
H840 C870 0.950 . S
H841 C871 0.950 . S
C842 H824 0.951 . S
C842 C843 1.366 1_556 S
C842 C844 1.388 . S
C843 C842 1.366 1_554 S
C843 C847 1.385 . S
C844 H825 0.951 . S
C844 C842 1.388 . S
C844 C845 1.351 1_556 S
C845 C844 1.351 1_554 S
C845 C846 1.441 . S
C845 C848 1.489 1_554 S
C846 H826 0.950 . S
C846 C845 1.441 . S
C846 C847 1.374 . S
C847 H827 0.950 . S
C847 C843 1.385 . S
C847 C846 1.374 . S
C848 C845 1.489 1_556 S
C848 C849 1.373 1_556 S
C848 C850 1.389 . S
C849 H828 0.950 . S
C849 C848 1.373 1_554 S
C849 C865 1.377 1_554 S
C850 C848 1.389 . S
C850 C851 1.524 . S
C850 C864 1.377 . S
C851 C850 1.524 . S
C851 C852 1.397 . S
C851 C856 1.363 . S
C852 H829 0.950 . S
C852 C851 1.397 . S
C852 C853 1.334 . S
C853 H830 0.950 . S
C853 C852 1.334 . S
C853 C854 1.287 . S
C854 C853 1.287 . S
C854 C855 1.524 . S
C854 H873 0.913 . S
C855 H831 0.950 . S
C855 C854 1.524 . S
C855 C856 1.415 . S
C856 H832 0.950 . S
C856 C851 1.363 . S
C856 C855 1.415 . S
C857 H833 0.951 . S
C857 C858 1.366 . S
C857 C859 1.388 . S
C858 C857 1.366 . S
C858 C862 1.385 . S
C859 H834 0.951 . S
C859 C857 1.388 . S
C859 C860 1.366 . S
C860 C859 1.366 . S
C860 C861 1.414 . S
C860 C863 1.499 . S
C861 H835 0.950 . S
C861 C860 1.414 . S
C861 C862 1.374 . S
C862 H836 0.950 . S
C862 C858 1.385 . S
C862 C861 1.374 . S
C863 C860 1.499 . S
C863 C864 1.373 . S
C863 C865 1.389 . S
C864 H837 0.950 . S
C864 C850 1.377 . S
C864 C863 1.373 . S
C865 C849 1.377 1_556 S
C865 C863 1.389 . S
C865 C866 1.524 1_556 S
C866 C865 1.524 1_554 S
C866 C867 1.397 1_554 S
C866 C871 1.363 . S
C867 H838 0.950 . S
C867 C866 1.397 1_556 S
C867 C868 1.334 1_556 S
C868 H839 0.975 . S
C868 C867 1.334 1_554 S
C868 C869 1.287 . S
C869 C868 1.287 . S
C869 C870 1.524 . S
C869 H872 0.999 . S
C870 H840 0.950 . S
C870 C869 1.524 . S
C870 C871 1.415 . S
C871 H841 0.950 . S
C871 C866 1.363 . S
C871 C870 1.415 . S
H872 C869 0.999 . S
H873 C854 0.913 . S
H874 C892 0.951 . S
H875 C894 0.951 . S
H876 C896 0.950 . S
H877 C897 0.950 . S
H878 C899 0.950 . S
H879 C902 0.950 . S
H880 C903 0.950 . S
H881 C905 0.950 . S
H882 C906 0.950 . S
H883 C907 0.951 . S
H884 C909 0.951 . S
H885 C911 0.950 . S
H886 C912 0.950 . S
H887 C914 0.950 . S
H888 C917 0.950 . S
H889 C918 0.950 . S
H890 C920 0.950 . S
H891 C921 0.950 . S
C892 H874 0.951 . S
C892 C893 1.366 . S
C892 C894 1.388 . S
C893 C892 1.366 . S
C893 C897 1.385 . S
C894 H875 0.951 . S
C894 C892 1.388 . S
C894 C895 1.366 . S
C895 C894 1.366 . S
C895 C896 1.414 . S
C895 C898 1.499 . S
C896 H876 0.950 . S
C896 C895 1.414 . S
C896 C897 1.374 . S
C897 H877 0.950 . S
C897 C893 1.385 . S
C897 C896 1.374 . S
C898 C895 1.499 . S
C898 C899 1.373 . S
C898 C900 1.389 . S
C899 H878 0.950 . S
C899 C898 1.373 . S
C899 C915 1.377 . S
C900 C898 1.389 . S
C900 C901 1.524 . S
C900 C914 1.377 . S
C901 C900 1.524 . S
C901 C902 1.397 . S
C901 C906 1.363 . S
C902 H879 0.950 . S
C902 C901 1.397 . S
C902 C903 1.334 . S
C903 H880 0.950 . S
C903 C902 1.334 . S
C903 C904 1.287 . S
C904 C903 1.287 . S
C904 C905 1.524 . S
C904 H923 0.913 . S
C905 H881 0.950 . S
C905 C904 1.524 . S
C905 C906 1.415 . S
C906 H882 0.950 . S
C906 C901 1.363 . S
C906 C905 1.415 . S
C907 H883 0.951 . S
C907 C908 1.366 . S
C907 C909 1.388 . S
C908 C907 1.366 . S
C908 C912 1.385 1_556 S
C909 H884 0.951 . S
C909 C907 1.388 . S
C909 C910 1.366 1_556 S
C910 C909 1.366 1_554 S
C910 C911 1.414 . S
C910 C913 1.499 . S
C911 H885 0.950 . S
C911 C910 1.414 . S
C911 C912 1.374 . S
C912 H886 0.950 . S
C912 C908 1.385 1_554 S
C912 C911 1.374 . S
C913 C910 1.499 . S
C913 C914 1.373 . S
C913 C915 1.389 . S
C914 H887 0.950 . S
C914 C900 1.377 . S
C914 C913 1.373 . S
C915 C899 1.377 . S
C915 C913 1.389 . S
C915 C916 1.524 . S
C916 C915 1.524 . S
C916 C917 1.397 . S
C916 C921 1.363 1_554 S
C917 H888 0.950 . S
C917 C916 1.397 . S
C917 C918 1.334 1_554 S
C918 H889 0.950 . S
C918 C917 1.334 1_556 S
C918 C919 1.287 . S
C919 C918 1.287 . S
C919 C920 1.524 . S
C919 H922 0.999 . S
C920 H890 0.950 . S
C920 C919 1.524 . S
C920 C921 1.415 . S
C921 H891 0.950 . S
C921 C916 1.363 1_556 S
C921 C920 1.415 . S
H922 C919 0.999 . S
H923 C904 0.913 . S
H924 C942 0.951 . S
H925 C944 0.951 . S
H926 C946 0.950 . S
H927 C947 0.950 . S
H928 C949 0.950 . S
H929 C952 0.950 . S
H930 C953 0.950 . S
H931 C955 0.950 . S
H932 C956 0.950 . S
H933 C957 0.951 . S
H934 C959 0.951 . S
H935 C961 0.950 . S
H936 C962 0.950 . S
H937 C964 0.950 . S
H938 C967 0.950 . S
H939 C968 0.950 . S
H940 C970 0.950 . S
H941 C971 0.950 . S
C942 H924 0.951 . S
C942 C943 1.366 . S
C942 C944 1.388 1_554 S
C943 C942 1.366 . S
C943 C947 1.385 . S
C944 H925 0.951 . S
C944 C942 1.388 1_556 S
C944 C945 1.366 . S
C945 C944 1.366 . S
C945 C946 1.414 1_556 S
C945 C948 1.499 . S
C946 H926 0.950 . S
C946 C945 1.414 1_554 S
C946 C947 1.374 . S
C947 H927 0.950 . S
C947 C943 1.385 . S
C947 C946 1.374 . S
C948 C945 1.499 . S
C948 C949 1.373 1_556 S
C948 C950 1.389 . S
C949 H928 0.950 . S
C949 C948 1.373 1_554 S
C949 C965 1.377 1_554 S
C950 C948 1.389 . S
C950 C951 1.524 . S
C950 C964 1.377 . S
C951 C950 1.524 . S
C951 C952 1.397 . S
C951 C956 1.363 . S
C952 H929 0.950 . S
C952 C951 1.397 . S
C952 C953 1.334 . S
C953 H930 0.950 . S
C953 C952 1.334 . S
C953 C954 1.287 . S
C954 C953 1.287 . S
C954 C955 1.524 . S
C954 H973 0.913 . S
C955 H931 0.950 . S
C955 C954 1.524 . S
C955 C956 1.415 . S
C956 H932 0.950 . S
C956 C951 1.363 . S
C956 C955 1.415 . S
C957 H933 0.951 . S
C957 C958 1.366 . S
C957 C959 1.388 . S
C958 C957 1.366 . S
C958 C962 1.385 . S
C959 H934 0.951 . S
C959 C957 1.388 . S
C959 C960 1.366 . S
C960 C959 1.366 . S
C960 C961 1.414 . S
C960 C963 1.499 . S
C961 H935 0.950 . S
C961 C960 1.414 . S
C961 C962 1.374 . S
C962 H936 0.950 . S
C962 C958 1.385 . S
C962 C961 1.374 . S
C963 C960 1.499 . S
C963 C964 1.373 . S
C963 C965 1.389 . S
C964 H937 0.950 . S
C964 C950 1.377 . S
C964 C963 1.373 . S
C965 C949 1.377 1_556 S
C965 C963 1.389 . S
C965 C966 1.524 1_556 S
C966 C965 1.524 1_554 S
C966 C967 1.397 . S
C966 C971 1.363 . S
C967 H938 0.950 . S
C967 C966 1.397 . S
C967 C968 1.334 . S
C968 H939 0.950 . S
C968 C967 1.334 . S
C968 C969 1.287 . S
C969 C968 1.287 . S
C969 C970 1.524 . S
C969 H972 0.999 . S
C970 H940 0.950 . S
C970 C969 1.524 . S
C970 C971 1.415 . S
C971 H941 0.950 . S
C971 C966 1.363 . S
C971 C970 1.415 . S
H972 C969 0.999 . S
H973 C954 0.913 . S
H974 C992 0.951 . S
H975 C994 0.951 . S
H976 C996 0.950 . S
H977 C997 0.950 . S
H978 C999 0.950 1_556 S
H979 C1002 0.950 . S
H980 C1003 0.950 . S
H981 C1005 0.950 . S
H982 C1006 0.950 . S
H983 C1007 0.951 . S
H984 C1009 0.951 . S
H985 C1011 0.950 . S
H986 C1012 0.950 . S
H987 C1014 0.950 . S
H988 C1017 0.950 . S
H989 C1018 0.950 . S
H990 C1020 0.950 . S
H991 C1021 0.950 . S
C992 H974 0.951 . S
C992 C993 1.366 1_554 S
C992 C994 1.388 . S
C993 C992 1.366 1_556 S
C993 C997 1.385 . S
C994 H975 0.951 . S
C994 C992 1.388 . S
C994 C995 1.366 . S
C995 C994 1.366 . S
C995 C996 1.414 1_554 S
C995 C998 1.499 . S
C996 H976 0.950 . S
C996 C995 1.414 1_556 S
C996 C997 1.374 . S
C997 H977 0.950 . S
C997 C993 1.385 . S
C997 C996 1.374 . S
C998 C995 1.499 . S
C998 C999 1.373 . S
C998 C1000 1.389 . S
C999 H978 0.950 1_554 S
C999 C998 1.373 . S
C999 C1015 1.377 . S
C1000 C998 1.389 . S
C1000 C1001 1.524 . S
C1000 C1014 1.377 . S
C1001 C1000 1.524 . S
C1001 C1002 1.397 . S
C1001 C1006 1.363 . S
C1002 H979 0.950 . S
C1002 C1001 1.397 . S
C1002 C1003 1.334 . S
C1003 H980 0.950 . S
C1003 C1002 1.334 . S
C1003 C1004 1.287 . S
C1004 C1003 1.287 . S
C1004 C1005 1.524 . S
C1004 H1023 0.913 . S
C1005 H981 0.950 . S
C1005 C1004 1.524 . S
C1005 C1006 1.415 . S
C1006 H982 0.950 . S
C1006 C1001 1.363 . S
C1006 C1005 1.415 . S
C1007 H983 0.951 . S
C1007 C1008 1.366 . S
C1007 C1009 1.388 . S
C1008 C1007 1.366 . S
C1008 C1012 1.385 . S
C1009 H984 0.951 . S
C1009 C1007 1.388 . S
C1009 C1010 1.366 . S
C1010 C1009 1.366 . S
C1010 C1011 1.414 . S
C1010 C1013 1.499 . S
C1011 H985 0.950 . S
C1011 C1010 1.414 . S
C1011 C1012 1.374 . S
C1012 H986 0.950 . S
C1012 C1008 1.385 . S
C1012 C1011 1.374 . S
C1013 C1010 1.499 . S
C1013 C1014 1.373 . S
C1013 C1015 1.389 . S
C1014 H987 0.950 . S
C1014 C1000 1.377 . S
C1014 C1013 1.373 . S
C1015 C999 1.377 . S
C1015 C1013 1.389 . S
C1015 C1016 1.524 . S
C1016 C1015 1.524 . S
C1016 C1017 1.397 . S
C1016 C1021 1.363 1_554 S
C1017 H988 0.950 . S
C1017 C1016 1.397 . S
C1017 C1018 1.334 1_554 S
C1018 H989 0.950 . S
C1018 C1017 1.334 1_556 S
C1018 C1019 1.287 . S
C1019 C1018 1.287 . S
C1019 C1020 1.524 . S
C1019 H1022 0.999 . S
C1020 H990 0.950 . S
C1020 C1019 1.524 . S
C1020 C1021 1.415 . S
C1021 H991 0.950 . S
C1021 C1016 1.363 1_556 S
C1021 C1020 1.415 . S
H1022 C1019 0.999 . S
H1023 C1004 0.913 . S
H1024 C1042 0.951 . S
H1025 C1044 0.951 . S
H1026 C1046 0.950 . S
H1027 C1047 0.950 . S
H1028 C1049 0.950 . S
H1029 C1052 0.950 . S
H1030 C1053 0.950 . S
H1031 C1055 0.950 . S
H1032 C1056 0.950 . S
H1033 C1057 0.951 . S
H1034 C1059 0.951 . S
H1035 C1061 0.950 . S
H1036 C1062 0.950 . S
H1037 C1064 0.950 . S
H1038 C1067 0.950 . S
H1039 C1068 0.950 . S
H1040 C1070 0.950 . S
H1041 C1071 0.950 . S
C1042 H1024 0.951 . S
C1042 C1043 1.366 . S
C1042 C1044 1.388 . S
C1043 C1042 1.366 . S
C1043 C1047 1.385 1_455 S
C1044 H1025 0.951 . S
C1044 C1042 1.388 . S
C1044 C1045 1.366 . S
C1045 C1044 1.366 . S
C1045 C1046 1.414 1_455 S
C1045 C1048 1.499 . S
C1046 H1026 0.950 . S
C1046 C1045 1.414 1_655 S
C1046 C1047 1.374 . S
C1047 H1027 0.950 . S
C1047 C1043 1.385 1_655 S
C1047 C1046 1.374 . S
C1048 C1045 1.499 . S
C1048 C1049 1.373 1_455 S
C1048 C1050 1.389 . S
C1049 H1028 0.950 . S
C1049 C1048 1.373 1_655 S
C1049 C1065 1.377 . S
C1050 C1048 1.389 . S
C1050 C1051 1.524 . S
C1050 C1064 1.377 . S
C1051 C1050 1.524 . S
C1051 C1052 1.397 . S
C1051 C1056 1.363 . S
C1052 H1029 0.950 . S
C1052 C1051 1.397 . S
C1052 C1053 1.334 . S
C1053 H1030 0.950 . S
C1053 C1052 1.334 . S
C1053 C1054 1.287 . S
C1054 C1053 1.287 . S
C1054 C1055 1.524 . S
C1054 H1073 0.913 . S
C1055 H1031 0.950 . S
C1055 C1054 1.524 . S
C1055 C1056 1.415 . S
C1056 H1032 0.950 . S
C1056 C1051 1.363 . S
C1056 C1055 1.415 . S
C1057 H1033 0.951 . S
C1057 C1058 1.366 . S
C1057 C1059 1.388 . S
C1058 C1057 1.366 . S
C1058 C1062 1.385 1_655 S
C1059 H1034 0.951 . S
C1059 C1057 1.388 . S
C1059 C1060 1.366 . S
C1060 C1059 1.366 . S
C1060 C1061 1.414 1_655 S
C1060 C1063 1.499 . S
C1061 H1035 0.950 . S
C1061 C1060 1.414 1_455 S
C1061 C1062 1.374 . S
C1062 H1036 0.950 . S
C1062 C1058 1.385 1_455 S
C1062 C1061 1.374 . S
C1063 C1060 1.499 . S
C1063 C1064 1.373 1_655 S
C1063 C1065 1.389 . S
C1064 H1037 0.950 . S
C1064 C1050 1.377 . S
C1064 C1063 1.373 1_455 S
C1065 C1049 1.377 . S
C1065 C1063 1.389 . S
C1065 C1066 1.524 . S
C1066 C1065 1.524 . S
C1066 C1067 1.397 . S
C1066 C1071 1.363 . S
C1067 H1038 0.950 . S
C1067 C1066 1.397 . S
C1067 C1068 1.334 . S
C1068 H1039 0.950 . S
C1068 C1067 1.334 . S
C1068 C1069 1.287 . S
C1069 C1068 1.287 . S
C1069 C1070 1.524 . S
C1069 H1072 0.999 . S
C1070 H1040 0.950 . S
C1070 C1069 1.524 . S
C1070 C1071 1.415 . S
C1071 H1041 0.950 . S
C1071 C1066 1.363 . S
C1071 C1070 1.415 . S
H1072 C1069 0.999 . S
H1073 C1054 0.913 . S
H1074 C1092 0.951 1_565 S
H1075 C1094 0.953 1_565 S
H1076 C1096 0.950 . S
H1077 C1097 0.950 . S
H1078 C1099 0.950 . S
H1079 C1102 0.950 . S
H1080 C1103 0.950 . S
H1081 C1105 0.950 . S
H1082 C1106 0.950 . S
H1083 C1107 0.951 1_545 S
H1084 C1109 0.953 1_545 S
H1085 C1111 0.950 . S
H1086 C1112 0.950 . S
H1087 C1114 0.950 . S
H1088 C1117 0.950 . S
H1089 C1118 0.950 . S
H1090 C1120 0.950 . S
H1091 C1121 0.950 . S
C1092 H1074 0.951 1_545 S
C1092 C1093 1.366 . S
C1092 C1094 1.387 . S
C1093 C1092 1.366 . S
C1093 C1097 1.385 . S
C1094 H1075 0.953 1_545 S
C1094 C1092 1.387 . S
C1094 C1095 1.364 . S
C1095 C1094 1.364 . S
C1095 C1096 1.414 . S
C1095 C1098 1.499 . S
C1096 H1076 0.950 . S
C1096 C1095 1.414 . S
C1096 C1097 1.374 . S
C1097 H1077 0.950 . S
C1097 C1093 1.385 . S
C1097 C1096 1.374 . S
C1098 C1095 1.499 . S
C1098 C1099 1.373 . S
C1098 C1100 1.389 1_545 S
C1099 H1078 0.950 . S
C1099 C1098 1.373 . S
C1099 C1115 1.377 . S
C1100 C1098 1.389 1_565 S
C1100 C1101 1.524 . S
C1100 C1114 1.377 . S
C1101 C1100 1.524 . S
C1101 C1102 1.397 . S
C1101 C1106 1.363 . S
C1102 H1079 0.950 . S
C1102 C1101 1.397 . S
C1102 C1103 1.334 . S
C1103 H1080 0.950 . S
C1103 C1102 1.334 . S
C1103 C1104 1.287 . S
C1104 C1103 1.287 . S
C1104 C1105 1.524 . S
C1104 H1123 0.913 . S
C1105 H1081 0.950 . S
C1105 C1104 1.524 . S
C1105 C1106 1.415 . S
C1106 H1082 0.950 . S
C1106 C1101 1.363 . S
C1106 C1105 1.415 . S
C1107 H1083 0.951 1_565 S
C1107 C1108 1.366 . S
C1107 C1109 1.387 . S
C1108 C1107 1.366 . S
C1108 C1112 1.385 . S
C1109 H1084 0.953 1_565 S
C1109 C1107 1.387 . S
C1109 C1110 1.364 . S
C1110 C1109 1.364 . S
C1110 C1111 1.414 . S
C1110 C1113 1.499 . S
C1111 H1085 0.950 . S
C1111 C1110 1.414 . S
C1111 C1112 1.374 . S
C1112 H1086 0.950 . S
C1112 C1108 1.385 . S
C1112 C1111 1.374 . S
C1113 C1110 1.499 . S
C1113 C1114 1.373 . S
C1113 C1115 1.389 1_565 S
C1114 H1087 0.950 . S
C1114 C1100 1.377 . S
C1114 C1113 1.373 . S
C1115 C1099 1.377 . S
C1115 C1113 1.389 1_545 S
C1115 C1116 1.524 . S
C1116 C1115 1.524 . S
C1116 C1117 1.397 . S
C1116 C1121 1.363 . S
C1117 H1088 0.950 . S
C1117 C1116 1.397 . S
C1117 C1118 1.334 . S
C1118 H1089 0.950 . S
C1118 C1117 1.334 . S
C1118 C1119 1.287 . S
C1119 C1118 1.287 . S
C1119 C1120 1.524 . S
C1119 H1122 0.999 . S
C1120 H1090 0.950 . S
C1120 C1119 1.524 . S
C1120 C1121 1.415 . S
C1121 H1091 0.950 . S
C1121 C1116 1.363 . S
C1121 C1120 1.415 . S
H1122 C1119 0.999 . S
H1123 C1104 0.913 . S
H1124 C1142 0.951 . S
H1125 C1144 0.951 . S
H1126 C1146 0.950 . S
H1127 C1147 0.950 . S
H1128 C1149 0.950 . S
H1129 C1152 0.950 . S
H1130 C1153 0.950 . S
H1131 C1155 0.950 . S
H1132 C1156 0.950 . S
H1133 C1157 0.951 . S
H1134 C1159 0.951 . S
H1135 C1161 0.950 . S
H1136 C1162 0.950 . S
H1137 C1164 0.950 . S
H1138 C1167 0.950 . S
H1139 C1168 0.950 . S
H1140 C1170 0.950 . S
H1141 C1171 0.950 . S
C1142 H1124 0.951 . S
C1142 C1143 1.366 . S
C1142 C1144 1.388 . S
C1143 C1142 1.366 . S
C1143 C1147 1.385 . S
C1144 H1125 0.951 . S
C1144 C1142 1.388 . S
C1144 C1145 1.366 . S
C1145 C1144 1.366 . S
C1145 C1146 1.414 . S
C1145 C1148 1.499 . S
C1146 H1126 0.950 . S
C1146 C1145 1.414 . S
C1146 C1147 1.374 . S
C1147 H1127 0.950 . S
C1147 C1143 1.385 . S
C1147 C1146 1.374 . S
C1148 C1145 1.499 . S
C1148 C1149 1.373 . S
C1148 C1150 1.389 . S
C1149 H1128 0.950 . S
C1149 C1148 1.373 . S
C1149 C1165 1.377 1_545 S
C1150 C1148 1.389 . S
C1150 C1151 1.524 . S
C1150 C1164 1.377 1_545 S
C1151 C1150 1.524 . S
C1151 C1152 1.397 . S
C1151 C1156 1.363 . S
C1152 H1129 0.950 . S
C1152 C1151 1.397 . S
C1152 C1153 1.334 . S
C1153 H1130 0.950 . S
C1153 C1152 1.334 . S
C1153 C1154 1.287 . S
C1154 C1153 1.287 . S
C1154 C1155 1.524 . S
C1154 H1173 0.913 . S
C1155 H1131 0.950 . S
C1155 C1154 1.524 . S
C1155 C1156 1.415 . S
C1156 H1132 0.950 . S
C1156 C1151 1.363 . S
C1156 C1155 1.415 . S
C1157 H1133 0.951 . S
C1157 C1158 1.366 . S
C1157 C1159 1.388 . S
C1158 C1157 1.366 . S
C1158 C1162 1.385 . S
C1159 H1134 0.951 . S
C1159 C1157 1.388 . S
C1159 C1160 1.366 . S
C1160 C1159 1.366 . S
C1160 C1161 1.414 . S
C1160 C1163 1.499 . S
C1161 H1135 0.950 . S
C1161 C1160 1.414 . S
C1161 C1162 1.374 . S
C1162 H1136 0.950 . S
C1162 C1158 1.385 . S
C1162 C1161 1.374 . S
C1163 C1160 1.499 . S
C1163 C1164 1.373 . S
C1163 C1165 1.389 . S
C1164 H1137 0.950 . S
C1164 C1150 1.377 1_565 S
C1164 C1163 1.373 . S
C1165 C1149 1.377 1_565 S
C1165 C1163 1.389 . S
C1165 C1166 1.524 . S
C1166 C1165 1.524 . S
C1166 C1167 1.397 . S
C1166 C1171 1.363 . S
C1167 H1138 0.950 . S
C1167 C1166 1.397 . S
C1167 C1168 1.334 . S
C1168 H1139 0.950 . S
C1168 C1167 1.334 . S
C1168 C1169 1.287 . S
C1169 C1168 1.287 . S
C1169 C1170 1.524 . S
C1169 H1172 0.999 . S
C1170 H1140 0.950 . S
C1170 C1169 1.524 . S
C1170 C1171 1.415 . S
C1171 H1141 0.950 . S
C1171 C1166 1.363 . S
C1171 C1170 1.415 . S
H1172 C1169 0.999 . S
H1173 C1154 0.913 . S
H1174 C1192 0.951 . S
H1175 C1194 0.951 . S
H1176 C1196 0.950 . S
H1177 C1197 0.950 . S
H1178 C1199 0.950 . S
H1179 C1202 0.950 . S
H1180 C1203 0.950 . S
H1181 C1205 0.950 . S
H1182 C1206 0.950 . S
H1183 C1207 0.951 . S
H1184 C1209 0.951 . S
H1185 C1211 0.950 . S
H1186 C1212 0.950 . S
H1187 C1214 0.950 . S
H1188 C1217 0.950 . S
H1189 C1218 0.950 . S
H1190 C1220 0.950 . S
H1191 C1221 0.950 . S
C1192 H1174 0.951 . S
C1192 C1193 1.366 . S
C1192 C1194 1.388 . S
C1193 C1192 1.366 . S
C1193 C1197 1.385 . S
C1194 H1175 0.951 . S
C1194 C1192 1.388 . S
C1194 C1195 1.366 . S
C1195 C1194 1.366 . S
C1195 C1196 1.414 . S
C1195 C1198 1.499 . S
C1196 H1176 0.950 . S
C1196 C1195 1.414 . S
C1196 C1197 1.374 . S
C1197 H1177 0.950 . S
C1197 C1193 1.385 . S
C1197 C1196 1.374 . S
C1198 C1195 1.499 . S
C1198 C1199 1.373 . S
C1198 C1200 1.389 . S
C1199 H1178 0.950 . S
C1199 C1198 1.373 . S
C1199 C1215 1.377 1_455 S
C1200 C1198 1.389 . S
C1200 C1201 1.524 . S
C1200 C1214 1.377 1_455 S
C1201 C1200 1.524 . S
C1201 C1202 1.397 . S
C1201 C1206 1.363 . S
C1202 H1179 0.950 . S
C1202 C1201 1.397 . S
C1202 C1203 1.334 . S
C1203 H1180 0.950 . S
C1203 C1202 1.334 . S
C1203 C1204 1.287 . S
C1204 C1203 1.287 . S
C1204 C1205 1.524 . S
C1204 H1223 0.913 . S
C1205 H1181 0.950 . S
C1205 C1204 1.524 . S
C1205 C1206 1.415 . S
C1206 H1182 0.950 . S
C1206 C1201 1.363 . S
C1206 C1205 1.415 . S
C1207 H1183 0.951 . S
C1207 C1208 1.366 . S
C1207 C1209 1.388 . S
C1208 C1207 1.366 . S
C1208 C1212 1.385 . S
C1209 H1184 0.951 . S
C1209 C1207 1.388 . S
C1209 C1210 1.366 . S
C1210 C1209 1.366 . S
C1210 C1211 1.414 . S
C1210 C1213 1.499 . S
C1211 H1185 0.950 . S
C1211 C1210 1.414 . S
C1211 C1212 1.374 . S
C1212 H1186 0.950 . S
C1212 C1208 1.385 . S
C1212 C1211 1.374 . S
C1213 C1210 1.499 . S
C1213 C1214 1.373 . S
C1213 C1215 1.389 . S
C1214 H1187 0.950 . S
C1214 C1200 1.377 1_655 S
C1214 C1213 1.373 . S
C1215 C1199 1.377 1_655 S
C1215 C1213 1.389 . S
C1215 C1216 1.524 . S
C1216 C1215 1.524 . S
C1216 C1217 1.397 . S
C1216 C1221 1.363 . S
C1217 H1188 0.950 . S
C1217 C1216 1.397 . S
C1217 C1218 1.334 . S
C1218 H1189 0.950 . S
C1218 C1217 1.334 . S
C1218 C1219 1.287 . S
C1219 C1218 1.287 . S
C1219 C1220 1.524 . S
C1219 H1222 0.999 . S
C1220 H1190 0.950 . S
C1220 C1219 1.524 . S
C1220 C1221 1.415 . S
C1221 H1191 0.950 . S
C1221 C1216 1.363 . S
C1221 C1220 1.415 . S
H1222 C1219 0.999 . S
H1223 C1204 0.913 . S
C443 C393 1.740 . S
C458 C38 1.755 . S
C493 C82 1.900 . S
C508 C234 1.913 . S
C543 C144 1.755 . S
C558 C287 1.739 . S
C593 C340 1.912 . S
C608 C188 1.899 . S
C643 C75 1.859 1_545 S
C658 C22 1.846 . S
C693 C92 1.860 . S
C708 C145 1.864 . S
C743 C181 1.859 1_565 S
C758 C128 1.846 . S
C793 C198 1.860 . S
C808 C39 1.864 . S
C843 C400 1.989 . S
C858 C250 1.984 . S
C893 C303 2.081 . S
C908 C241 2.064 . S
C943 C294 1.989 . S
C958 C356 1.984 . S
C993 C347 2.063 . S
C1008 C409 2.081 . S
C1043 C135 1.871 . S
C1058 C29 1.871 . S
C1093 C197 2.147 . S
C1108 C91 2.147 . S
C1143 C357 2.498 . S
C1158 C251 2.498 . S
C1193 C410 2.157 . S
C1208 C304 2.156 . S
