# Generated by pormake.
# Topology wkj, (6)-cn, num edge types: 1
# Building blocks:
#     Node 0, Type 0, BuildingBlock: BETFEN_clean_sbu_0, # of connection points: 6
#     Node 1, Type 0, BuildingBlock: BETFEN_clean_sbu_0, # of connection points: 6
#     Node 2, Type 0, BuildingBlock: BETFEN_clean_sbu_0, # of connection points: 6
#     Node 3, Type 0, BuildingBlock: BETFEN_clean_sbu_0, # of connection points: 6
#     Node 4, Type 0, BuildingBlock: BETFEN_clean_sbu_0, # of connection points: 6
#     Node 5, Type 0, BuildingBlock: BETFEN_clean_sbu_0, # of connection points: 6
#     Node 6, Type 0, BuildingBlock: BETFEN_clean_sbu_0, # of connection points: 6
#     Node 7, Type 0, BuildingBlock: BETFEN_clean_sbu_0, # of connection points: 6
#     Node 8, Type 0, BuildingBlock: BETFEN_clean_sbu_0, # of connection points: 6
#     Node 9, Type 0, BuildingBlock: BETFEN_clean_sbu_0, # of connection points: 6
#     Node 10, Type 0, BuildingBlock: BETFEN_clean_sbu_0, # of connection points: 6
#     Node 11, Type 0, BuildingBlock: BETFEN_clean_sbu_0, # of connection points: 6
#     Edge 12, Type (0, 0), BuildingBlock: CIFDUS_clean_linker_0, # of connection points: 2
#     Edge 13, Type (0, 0), BuildingBlock: CIFDUS_clean_linker_0, # of connection points: 2
#     Edge 14, Type (0, 0), BuildingBlock: CIFDUS_clean_linker_0, # of connection points: 2
#     Edge 15, Type (0, 0), BuildingBlock: CIFDUS_clean_linker_0, # of connection points: 2
#     Edge 16, Type (0, 0), BuildingBlock: CIFDUS_clean_linker_0, # of connection points: 2
#     Edge 17, Type (0, 0), BuildingBlock: CIFDUS_clean_linker_0, # of connection points: 2
#     Edge 18, Type (0, 0), BuildingBlock: CIFDUS_clean_linker_0, # of connection points: 2
#     Edge 19, Type (0, 0), BuildingBlock: CIFDUS_clean_linker_0, # of connection points: 2
#     Edge 20, Type (0, 0), BuildingBlock: CIFDUS_clean_linker_0, # of connection points: 2
#     Edge 21, Type (0, 0), BuildingBlock: CIFDUS_clean_linker_0, # of connection points: 2
#     Edge 22, Type (0, 0), BuildingBlock: CIFDUS_clean_linker_0, # of connection points: 2
#     Edge 23, Type (0, 0), BuildingBlock: CIFDUS_clean_linker_0, # of connection points: 2
#     Edge 24, Type (0, 0), BuildingBlock: CIFDUS_clean_linker_0, # of connection points: 2
#     Edge 25, Type (0, 0), BuildingBlock: CIFDUS_clean_linker_0, # of connection points: 2
#     Edge 26, Type (0, 0), BuildingBlock: CIFDUS_clean_linker_0, # of connection points: 2
#     Edge 27, Type (0, 0), BuildingBlock: CIFDUS_clean_linker_0, # of connection points: 2
#     Edge 28, Type (0, 0), BuildingBlock: CIFDUS_clean_linker_0, # of connection points: 2
#     Edge 29, Type (0, 0), BuildingBlock: CIFDUS_clean_linker_0, # of connection points: 2
#     Edge 30, Type (0, 0), BuildingBlock: CIFDUS_clean_linker_0, # of connection points: 2
#     Edge 31, Type (0, 0), BuildingBlock: CIFDUS_clean_linker_0, # of connection points: 2
#     Edge 32, Type (0, 0), BuildingBlock: CIFDUS_clean_linker_0, # of connection points: 2
#     Edge 33, Type (0, 0), BuildingBlock: CIFDUS_clean_linker_0, # of connection points: 2
#     Edge 34, Type (0, 0), BuildingBlock: CIFDUS_clean_linker_0, # of connection points: 2
#     Edge 35, Type (0, 0), BuildingBlock: CIFDUS_clean_linker_0, # of connection points: 2
#     Edge 36, Type (0, 0), BuildingBlock: CIFDUS_clean_linker_0, # of connection points: 2
#     Edge 37, Type (0, 0), BuildingBlock: CIFDUS_clean_linker_0, # of connection points: 2
#     Edge 38, Type (0, 0), BuildingBlock: CIFDUS_clean_linker_0, # of connection points: 2
#     Edge 39, Type (0, 0), BuildingBlock: CIFDUS_clean_linker_0, # of connection points: 2
#     Edge 40, Type (0, 0), BuildingBlock: CIFDUS_clean_linker_0, # of connection points: 2
#     Edge 41, Type (0, 0), BuildingBlock: CIFDUS_clean_linker_0, # of connection points: 2
#     Edge 42, Type (0, 0), BuildingBlock: CIFDUS_clean_linker_0, # of connection points: 2
#     Edge 43, Type (0, 0), BuildingBlock: CIFDUS_clean_linker_0, # of connection points: 2
#     Edge 44, Type (0, 0), BuildingBlock: CIFDUS_clean_linker_0, # of connection points: 2
#     Edge 45, Type (0, 0), BuildingBlock: CIFDUS_clean_linker_0, # of connection points: 2
#     Edge 46, Type (0, 0), BuildingBlock: CIFDUS_clean_linker_0, # of connection points: 2
#     Edge 47, Type (0, 0), BuildingBlock: CIFDUS_clean_linker_0, # of connection points: 2
# Relax obj value: 0.898
# Max RMSD: 0.176
# Mean RMSD: 0.176
data_MOF--net-wkj--node1-BETFEN_clean_sbu_0--edge1-CIFDUS_clean_linker_0
_symmetry_space_group_name_H-M    P1
_symmetry_Int_Tables_number       1
_symmetry_cell_setting            triclinic
loop_
_symmetry_equiv_pos_as_xyz
'x, y, z'
_cell_length_a     43.774592
_cell_length_b     44.074316
_cell_length_c     26.920241
_cell_angle_alpha  89.225024
_cell_angle_beta   90.319383
_cell_angle_gamma 119.68676
loop_
_atom_site_label
_atom_site_type_symbol
_atom_site_fract_x
_atom_site_fract_y
_atom_site_fract_z
_atom_type_partial_charge
Pr0 Pr 0.48143 0.07932 0.3866 0.0
Pr1 Pr 0.55071 0.11829 0.36282 0.0
C2 C 0.41342 0.04454 0.41405 0.0
C3 C 0.38921 0.02774 0.45516 0.0
C4 C 0.35314 0.00731 0.44546 0.0
C5 C 0.32899 -0.00435 0.48458 0.0
C6 C 0.34094 0.00482 0.53345 0.0
C7 C 0.3773 0.0238 0.54295 0.0
C8 C 0.4013 0.03519 0.50404 0.0
C9 C 0.49831 0.14625 0.34431 0.0
C10 C 0.53453 0.10283 0.49009 0.0
C11 C 0.61326 0.17561 0.34419 0.0
C12 C 0.61869 0.20748 0.31885 0.0
C13 C 0.5897 0.20701 0.29604 0.0
C14 C 0.594 0.23481 0.26637 0.0
C15 C 0.62765 0.26396 0.25844 0.0
C16 C 0.65629 0.26569 0.2852 0.0
C17 C 0.65183 0.23746 0.31512 0.0
C18 C 0.54065 0.05412 0.38619 0.0
C19 C 0.49487 0.05851 0.27351 0.0
O20 O 0.42966 0.02891 0.39635 0.0
O21 O 0.43338 0.07837 0.41707 0.0
O22 O 0.51359 0.1401 0.37931 0.0
O23 O 0.47622 0.11671 0.32464 0.0
O24 O 0.55908 0.11611 0.45399 0.0
O25 O 0.5011 0.08722 0.4744 0.0
O26 O 0.59733 0.16949 0.38686 0.0
O27 O 0.60006 0.14797 0.31633 0.0
O28 O 0.52712 0.06944 0.40862 0.0
O29 O 0.55953 0.07123 0.34801 0.0
O30 O 0.47468 0.04562 0.31322 0.0
O31 O 0.52369 0.0903 0.28024 0.0
H32 H 0.34362 0.00145 0.40761 0.0
H33 H 0.30113 0.98058 0.47663 0.0
H34 H 0.38717 0.03019 0.58058 0.0
H35 H 0.42914 0.05081 0.51195 0.0
H36 H 0.56395 0.18401 0.29858 0.0
H37 H 0.57119 0.23158 0.2461 0.0
H38 H 0.68246 0.28785 0.28061 0.0
H39 H 0.67439 0.2384 0.33339 0.0
Pr40 Pr 0.3518 0.44237 0.74392 0.0
Pr41 Pr 0.39328 0.50425 0.7151 0.0
C42 C 0.31056 0.37329 0.76169 0.0
C43 C 0.29216 0.35129 0.80425 0.0
C44 C 0.27139 0.31515 0.79876 0.0
C45 C 0.25503 0.29396 0.84018 0.0
C46 C 0.25944 0.30886 0.88739 0.0
C47 C 0.27934 0.34537 0.89203 0.0
C48 C 0.29552 0.36643 0.85071 0.0
C49 C 0.31042 0.47392 0.72063 0.0
C50 C 0.38754 0.49727 0.84422 0.0
C51 C 0.41646 0.57272 0.69929 0.0
C52 C 0.40332 0.59295 0.67148 0.0
C53 C 0.42157 0.61223 0.62943 0.0
C54 C 0.40685 0.62712 0.59846 0.0
C55 C 0.37362 0.62341 0.60919 0.0
C56 C 0.35675 0.60653 0.65366 0.0
C57 C 0.37137 0.59131 0.68442 0.0
C58 C 0.43656 0.48217 0.75609 0.0
C59 C 0.38956 0.44968 0.62716 0.0
O60 O 0.34479 0.38923 0.76368 0.0
O61 O 0.29865 0.39349 0.74606 0.0
O62 O 0.3341 0.47461 0.69254 0.0
O63 O 0.31137 0.4607 0.76358 0.0
O64 O 0.40087 0.51924 0.80539 0.0
O65 O 0.36666 0.46378 0.83111 0.0
O66 O 0.39783 0.55519 0.73776 0.0
O67 O 0.42757 0.55519 0.67328 0.0
O68 O 0.40688 0.47374 0.7728 0.0
O69 O 0.43971 0.49318 0.71035 0.0
O70 O 0.37245 0.42908 0.66593 0.0
O71 O 0.39969 0.48325 0.63364 0.0
H72 H 0.26847 0.30331 0.76275 0.0
H73 H 0.23988 0.26593 0.83561 0.0
H74 H 0.28402 0.35763 0.928 0.0
H75 H 0.31147 0.39443 0.85519 0.0
H76 H 0.44634 0.61414 0.61895 0.0
H77 H 0.42052 0.63924 0.56418 0.0
H78 H 0.33139 0.60347 0.66341 0.0
H79 H 0.35677 0.57696 0.7171 0.0
Pr80 Pr 0.88107 0.34248 1.04651 0.0
Pr81 Pr 0.88085 0.39622 1.04409 0.0
C82 C 0.88616 0.28462 1.06538 0.0
C83 C 0.87767 0.26034 1.10706 0.0
C84 C 0.89374 0.23976 1.11066 0.0
C85 C 0.89405 0.22428 0.15608 0.0
C86 C 0.87896 0.23006 0.19836 0.0
C87 C 0.85901 0.24697 0.19262 0.0
C88 C 0.85853 0.26218 1.14723 0.0
C89 C 0.8149 0.32217 1.00627 0.0
C90 C 0.86733 0.37775 0.16094 0.0
C91 C 0.86067 0.44235 1.01737 0.0
C92 C 0.8239 0.43426 1.01444 0.0
C93 C 0.81331 0.44665 0.97352 0.0
C94 C 0.77893 0.42742 0.95575 0.0
C95 C 0.75486 0.39537 0.97854 0.0
C96 C 0.76405 0.38629 1.02422 0.0
C97 C 0.79842 0.40555 1.04195 0.0
C98 C 0.94531 0.40421 1.08297 0.0
C99 C 0.92574 0.3946 0.94277 0.0
O100 O 0.91127 0.31625 1.07393 0.0
O101 O 0.85972 0.28404 1.04244 0.0
O102 O 0.82759 0.34095 1.04489 0.0
O103 O 0.83979 0.32091 0.9822 0.0
O104 O 0.86914 0.40141 1.12912 0.0
O105 O 0.87125 0.35205 1.1391 0.0
O106 O 0.87297 0.44217 1.06166 0.0
O107 O 0.86821 0.42515 0.9851 0.0
O108 O 0.93182 0.39152 1.04212 0.0
O109 O 0.92476 0.41323 1.10492 0.0
O110 O 0.91351 0.36296 0.96458 0.0
O111 O 0.91754 0.41531 0.96802 0.0
H112 H 0.90852 0.23809 1.07966 0.0
H113 H 0.9093 0.21109 0.15939 0.0
H114 H 0.84732 0.25224 0.22436 0.0
H115 H 0.84598 0.27805 1.14482 0.0
H116 H 0.83259 0.46852 0.95158 0.0
H117 H 0.77296 0.43532 0.92042 0.0
H118 H 0.74602 0.36206 1.043 0.0
H119 H 0.80602 0.39534 1.07362 0.0
Pr120 Pr 0.49789 0.89238 0.40688 0.0
Pr121 Pr 0.43822 0.8491 0.37567 0.0
C122 C 0.56536 0.94097 0.42368 0.0
C123 C 0.59248 0.9435 0.45788 0.0
C124 C 0.62806 0.96602 0.44725 0.0
C125 C 0.65369 0.9706 0.48219 0.0
C126 C 0.64388 0.95298 0.52839 0.0
C127 C 0.60817 0.92872 0.53715 0.0
C128 C 0.58278 0.92387 0.50206 0.0
C129 C 0.4943 0.82688 0.38705 0.0
C130 C 0.45058 0.86191 0.50731 0.0
C131 C 0.38336 0.78369 0.37002 0.0
C132 C 0.37063 0.74992 0.3466 0.0
C133 C 0.33973 0.72096 0.36413 0.0
C134 C 0.32433 0.68989 0.33749 0.0
C135 C 0.33986 0.68763 0.29317 0.0
C136 C 0.37288 0.71569 0.27902 0.0
C137 C 0.38792 0.74677 0.30526 0.0
C138 C 0.42169 0.89692 0.40302 0.0
C139 C 0.48774 0.91383 0.28967 0.0
O140 O 0.53866 0.94153 0.44405 0.0
O141 O 0.55602 0.91738 0.38952 0.0
O142 O 0.48622 0.84415 0.35728 0.0
O143 O 0.50129 0.8417 0.43015 0.0
O144 O 0.42855 0.84611 0.46899 0.0
O145 O 0.4833 0.88357 0.49391 0.0
O146 O 0.4092 0.79284 0.40139 0.0
O147 O 0.38651 0.8095 0.34174 0.0
O148 O 0.44574 0.89344 0.42529 0.0
O149 O 0.41003 0.87989 0.36172 0.0
O150 O 0.50249 0.9265 0.3331 0.0
O151 O 0.46141 0.88041 0.2928 0.0
H152 H 0.6359 0.98084 0.41271 0.0
H153 H 0.68096 -0.01095 0.47395 0.0
H154 H 0.59934 0.91507 0.57243 0.0
H155 H 0.55537 0.90591 0.51042 0.0
H156 H 0.32642 0.72303 0.39664 0.0
H157 H 0.29897 0.6687 0.34924 0.0
H158 H 0.38536 0.71512 0.2447 0.0
H159 H 0.41169 0.76905 0.29133 0.0
Pr160 Pr 0.61495 0.51449 0.73742 0.0
Pr161 Pr 0.55934 0.47171 0.72057 0.0
C162 C 0.67549 0.5762 0.74401 0.0
C163 C 0.69342 0.60427 0.77999 0.0
C164 C 0.7029 0.63866 0.76638 0.0
C165 C 0.71594 0.66486 0.80198 0.0
C166 C 0.71977 0.65692 0.85153 0.0
C167 C 0.71233 0.62288 0.86417 0.0
C168 C 0.69915 0.59676 0.8288 0.0
C169 C 0.6315 0.46392 0.71134 0.0
C170 C 0.56786 0.46786 0.84337 0.0
C171 C 0.50497 0.40662 0.70956 0.0
C172 C 0.50266 0.37839 0.67778 0.0
C173 C 0.51782 0.35828 0.6941 0.0
C174 C 0.52897 0.34238 0.65971 0.0
C175 C 0.52413 0.34552 0.60882 0.0
C176 C 0.50361 0.36038 0.5934 0.0
C177 C 0.493 0.37681 0.62766 0.0
C178 C 0.56487 0.53467 0.75999 0.0
C179 C 0.57284 0.51693 0.62273 0.0
O180 O 0.64684 0.57314 0.72447 0.0
O181 O 0.67263 0.54616 0.7554 0.0
O182 O 0.61126 0.47184 0.68616 0.0
O183 O 0.63264 0.47409 0.75647 0.0
O184 O 0.54559 0.45184 0.80688 0.0
O185 O 0.59804 0.49574 0.8273 0.0
O186 O 0.52768 0.41558 0.74578 0.0
O187 O 0.50635 0.43378 0.68691 0.0
O188 O 0.57313 0.51461 0.78001 0.0
O189 O 0.55058 0.52212 0.71739 0.0
O190 O 0.60227 0.53129 0.65104 0.0
O191 O 0.54692 0.48873 0.64248 0.0
H192 H 0.69875 0.64492 0.72877 0.0
H193 H 0.72134 0.69086 0.7914 0.0
H194 H 0.71416 0.61569 0.90226 0.0
H195 H 0.69194 0.57041 0.84037 0.0
H196 H 0.52471 0.35808 0.73277 0.0
H197 H 0.5445 0.33083 0.67242 0.0
H198 H 0.49953 0.36319 0.55424 0.0
H199 H 0.48066 0.39139 0.61403 0.0
Pr200 Pr 0.07687 0.62495 1.04246 0.0
Pr201 Pr 0.08445 0.57434 1.0374 0.0
C202 C 0.06603 0.67921 1.06053 0.0
C203 C 0.06413 0.69823 1.10308 0.0
C204 C 0.04523 0.7161 1.09921 0.0
C205 C 0.03769 0.72886 1.14178 0.0
C206 C 0.04882 0.72354 0.18854 0.0
C207 C 0.0705 0.70838 0.1914 0.0
C208 C 0.07796 0.69563 1.14891 0.0
C209 C 0.14362 0.65271 0.99808 0.0
C210 C 0.09499 0.58998 0.15588 0.0
C211 C 0.10767 0.5307 1.01085 0.0
C212 C 0.1438 0.53744 1.00632 0.0
C213 C 0.15081 0.51061 0.99507 0.0
C214 C 0.18425 0.5188 0.97816 0.0
C215 C 0.21048 0.55395 0.97035 0.0
C216 C 0.20432 0.58033 0.9886 0.0
C217 C 0.17132 0.57206 1.00656 0.0
C218 C 0.01874 0.55771 1.08107 0.0
C219 C 0.03472 0.57216 0.93881 0.0
O220 O 0.04081 0.64703 1.05714 0.0
O221 O 0.09666 0.68271 1.0511 0.0
O222 O 0.13307 0.63259 1.0364 0.0
O223 O 0.11671 0.65163 0.97604 0.0
O224 O 0.10042 0.57224 1.12153 0.0
O225 O 0.08441 0.61212 1.13618 0.0
O226 O 0.097 0.53129 1.05575 0.0
O227 O 0.09949 0.54807 0.97882 0.0
O228 O 0.03003 0.57254 1.04016 0.0
O229 O 0.04134 0.54975 1.09915 0.0
O230 O 0.04254 0.60228 0.96167 0.0
O231 O 0.04766 0.5544 0.96254 0.0
H232 H 0.03451 0.71829 1.06382 0.0
H233 H 0.02091 0.7404 1.1387 0.0
H234 H 0.07893 0.70332 0.22695 0.0
H235 H 0.09257 0.68179 0.15234 0.0
H236 H 0.12994 0.48362 0.99601 0.0
H237 H 0.1884 0.49762 0.96697 0.0
H238 H 0.22337 0.60776 0.9841 0.0
H239 H 0.16643 0.59308 1.01618 0.0
Pr240 Pr 0.87377 0.49543 0.56077 0.0
Pr241 Pr 0.85094 0.42412 0.58826 0.0
C242 C 0.89169 0.55987 0.52826 0.0
C243 C 0.90467 0.58437 0.48675 0.0
C244 C 0.92085 0.62016 0.49633 0.0
C245 C 0.93243 0.64419 0.45711 0.0
C246 C 0.92768 0.63249 0.40798 0.0
C247 C 0.91143 0.59649 0.39863 0.0
C248 C 0.90006 0.57252 0.43788 0.0
C249 C 0.80892 0.46502 0.61309 0.0
C250 C 0.85301 0.43693 0.46072 0.0
C251 C 0.8042 0.36084 0.62411 0.0
C252 C 0.77513 0.35306 0.65791 0.0
C253 C 0.7496 0.31886 0.67073 0.0
C254 C 0.72297 0.31314 0.70465 0.0
C255 C 0.72149 0.34164 0.72527 0.0
C256 C 0.74623 0.37567 0.70971 0.0
C257 C 0.77287 0.38121 0.677 0.0
C258 C 0.90999 0.44282 0.53263 0.0
C259 C 0.91006 0.49018 0.67057 0.0
O260 O 0.91405 0.55251 0.55006 0.0
O261 O 0.86006 0.53304 0.52373 0.0
O262 O 0.81666 0.4511 0.57805 0.0
O263 O 0.83698 0.49301 0.62663 0.0
O264 O 0.84292 0.41261 0.49714 0.0
O265 O 0.86457 0.47005 0.47573 0.0
O266 O 0.80104 0.37236 0.5805 0.0
O267 O 0.83568 0.37952 0.64318 0.0
O268 O 0.89703 0.4618 0.54262 0.0
O269 O 0.89423 0.41306 0.5564 0.0
O270 O 0.91337 0.51036 0.63137 0.0
O271 O 0.88539 0.45601 0.6657 0.0
H272 H 0.92447 0.62949 0.53414 0.0
H273 H 0.94514 0.67182 0.46507 0.0
H274 H 0.90834 0.58693 0.36104 0.0
H275 H 0.88775 0.54486 0.43016 0.0
H276 H 0.75085 0.29681 0.65575 0.0
H277 H 0.70445 0.28666 0.71624 0.0
H278 H 0.74681 0.39841 0.72558 0.0
H279 H 0.79269 0.40771 0.66799 0.0
Pr280 Pr 0.39438 0.89619 0.91296 0.0
Pr281 Pr 0.39663 0.84908 0.94586 0.0
C282 C 0.38466 0.95086 0.89366 0.0
C283 C 0.35936 0.95543 0.86354 0.0
C284 C 0.35042 0.98087 0.87549 0.0
C285 C 0.32882 -0.01274 0.84366 0.0
C286 C 0.31648 0.96863 0.79909 0.0
C287 C 0.32358 0.9413 0.78972 0.0
C288 C 0.34452 0.93463 0.82182 0.0
C289 C 0.32426 0.83576 0.92739 0.0
C290 C 0.40585 0.86394 0.81415 0.0
C291 C 0.37074 0.78021 0.96048 0.0
C292 C 0.34216 0.75284 0.98943 0.0
C293 C 0.33061 0.76137 1.03262 0.0
C294 C 0.30587 0.73506 1.06305 0.0
C295 C 0.29222 0.69977 1.05069 0.0
C296 C 0.3022 0.69154 1.00563 0.0
C297 C 0.32706 0.71796 0.97503 0.0
C298 C 0.46406 0.8795 0.92695 0.0
C299 C 0.42229 0.91688 1.02767 0.0
O300 O 0.40677 0.9449 0.86906 0.0
O301 O 0.3718 0.93089 0.93289 0.0
O302 O 0.34726 0.85171 0.96004 0.0
O303 O 0.33889 0.84882 0.88467 0.0
O304 O 0.40399 0.84353 0.85317 0.0
O305 O 0.40239 0.89073 0.82651 0.0
O306 O 0.36113 0.79297 0.92348 0.0
O307 O 0.39688 0.80408 0.98607 0.0
O308 O 0.44402 0.88787 0.90187 0.0
O309 O 0.45179 0.86327 0.96898 0.0
O310 O 0.42748 0.9313 0.98325 0.0
O311 O 0.40629 0.88185 1.02573 0.0
H312 H 0.36113 -0.00342 0.90838 0.0
H313 H 0.32341 0.00802 0.85261 0.0
H314 H 0.31539 0.92659 0.75568 0.0
H315 H 0.3506 0.91433 0.8126 0.0
H316 H 0.34185 0.78833 1.04392 0.0
H317 H 0.29951 0.74237 1.09814 0.0
H318 H 0.29254 0.66468 0.99595 0.0
H319 H 0.33564 0.7111 0.94143 0.0
Pr320 Pr 0.44182 0.34435 0.24433 0.0
Pr321 Pr 0.49011 0.39688 0.25639 0.0
C322 C 0.37643 0.2883 0.23985 0.0
C323 C 0.35105 0.27034 0.20035 0.0
C324 C 0.31501 0.25625 0.20937 0.0
C325 C 0.29106 0.24274 0.1702 0.0
C326 C 0.30305 0.24309 1.12177 0.0
C327 C 0.33911 0.256 1.11351 0.0
C328 C 0.36292 0.2697 0.15239 0.0
C329 C 0.48863 0.3203 0.25921 0.0
C330 C 0.49003 0.3881 1.13512 0.0
C331 C 0.55788 0.44572 0.26771 0.0
C332 C 0.58469 0.43992 0.29292 0.0
C333 C 0.59598 0.45346 0.34056 0.0
C334 C 0.606 0.43579 0.37455 0.0
C335 C 0.60462 0.40436 0.36113 0.0
C336 C 0.60034 0.39513 0.31087 0.0
C337 C 0.59045 0.41283 0.27685 0.0
C338 C 0.42982 0.39902 0.21683 0.0
C339 C 0.44701 0.39132 0.3551 0.0
O340 O 0.38248 0.31966 0.24948 0.0
O341 O 0.40503 0.28622 0.23865 0.0
O342 O 0.48698 0.34296 0.28737 0.0
O343 O 0.47145 0.31667 0.21852 0.0
O344 O 0.50973 0.40882 0.1707 0.0
O345 O 0.45974 0.36071 0.15288 0.0
O346 O 0.54549 0.42902 0.22623 0.0
O347 O 0.53298 0.44376 0.29653 0.0
O348 O 0.44655 0.38679 0.19779 0.0
O349 O 0.44426 0.41291 0.2588 0.0
O350 O 0.42863 0.36142 0.32948 0.0
O351 O 0.47625 0.41371 0.3328 0.0
H352 H 0.30558 0.25693 0.24624 0.0
H353 H 0.26345 0.23334 0.1773 0.0
H354 H 0.34929 0.25766 1.07637 0.0
H355 H 0.39075 0.28107 1.14455 0.0
H356 H 0.59237 0.47462 0.35365 0.0
H357 H 0.60949 0.44382 0.41299 0.0
H358 H 0.59973 0.37135 0.2994 0.0
H359 H 0.58286 0.4022 0.23992 0.0
Pr360 Pr 0.07942 0.47024 0.56116 0.0
Pr361 Pr 0.11433 0.54892 0.59562 0.0
C362 C 0.03751 0.40422 0.53409 0.0
C363 C 0.01664 0.38 0.4955 0.0
C364 C -0.00661 0.34521 0.50885 0.0
C365 C 0.97867 0.31984 0.47234 0.0
C366 C -0.01273 0.32916 0.42222 0.0
C367 C 0.00923 0.36443 0.40893 0.0
C368 C 0.02394 0.38972 0.44542 0.0
C369 C 0.14583 0.48792 0.6046 0.0
C370 C 0.10791 0.53502 0.4638 0.0
C371 C 0.17005 0.61079 0.61708 0.0
C372 C 0.2021 0.61751 0.64434 0.0
C373 C 0.20934 0.63398 0.69045 0.0
C374 C 0.23183 0.63026 0.72383 0.0
C375 C 0.24724 0.60987 0.7115 0.0
C376 C 0.24394 0.59773 0.66278 0.0
C377 C 0.22146 0.6014 0.62946 0.0
C378 C 0.05187 0.52595 0.54752 0.0
C379 C 0.0549 0.4846 0.67975 0.0
O380 O 0.02513 0.42222 0.55639 0.0
O381 O 0.07151 0.42145 0.52603 0.0
O382 O 0.13272 0.50796 0.60015 0.0
O383 O 0.1245 0.45823 0.58514 0.0
O384 O 0.1193 0.55756 0.5025 0.0
O385 O 0.09307 0.50045 0.47611 0.0
O386 O 0.16581 0.59591 0.57398 0.0
O387 O 0.14093 0.59732 0.64338 0.0
O388 O 0.07415 0.51645 0.54445 0.0
O389 O 0.06316 0.55282 0.57701 0.0
O390 O 0.04929 0.46229 0.64255 0.0
O391 O 0.07974 0.5185 0.672 0.0
H392 H -0.01203 0.33742 0.5476 0.0
H393 H 0.9617 0.29285 0.48339 0.0
H394 H 0.01547 0.37238 0.37037 0.0
H395 H 0.04201 0.41657 0.43475 0.0
H396 H 0.19496 0.64671 0.70259 0.0
H397 H 0.23368 0.63979 0.76123 0.0
H398 H 0.25572 0.58217 0.65225 0.0
H399 H 0.21687 0.5887 0.59386 0.0
Pr400 Pr 0.5998 0.07289 0.90551 0.0
Pr401 Pr 0.55208 0.09053 0.92932 0.0
C402 C 0.64434 0.04776 0.89317 0.0
C403 C 0.66801 0.04978 0.85384 0.0
C404 C 0.68524 0.03026 0.85729 0.0
C405 C 0.70357 0.02818 0.81634 0.0
C406 C 0.70437 0.04528 0.7714 0.0
C407 C 0.68909 0.06688 0.76978 0.0
C408 C 0.6711 0.06911 0.81069 0.0
C409 C 0.63658 0.14548 0.92221 0.0
C410 C 0.56887 0.09346 0.80103 0.0
C411 C 0.52128 0.12991 0.9408 0.0
C412 C 0.53354 0.16165 0.96954 0.0
C413 C 0.56219 0.17124 1.00125 0.0
C414 C 0.57693 0.2028 1.0258 0.0
C415 C 0.56353 0.22575 1.01898 0.0
C416 C 0.53465 0.21607 0.98708 0.0
C417 C 0.51989 0.1842 0.96206 0.0
C418 C 0.51964 0.02388 0.88904 0.0
C419 C 0.55642 0.03974 1.02075 0.0
O420 O 0.61098 0.03023 0.88226 0.0
O421 O 0.65307 0.077 0.91539 0.0
O422 O 0.6126 0.12328 0.95152 0.0
O423 O 0.63728 0.13015 0.88188 0.0
O424 O 0.55169 0.09929 0.83764 0.0
O425 O 0.58998 0.08128 0.81656 0.0
O426 O 0.54185 0.13361 0.90374 0.0
O427 O 0.51203 0.10128 0.96646 0.0
O428 O 0.5455 0.05051 0.87291 0.0
O429 O 0.50966 0.03013 0.93115 0.0
O430 O 0.57857 0.04018 0.98625 0.0
O431 O 0.54304 0.06047 1.0103 0.0
H432 H 0.68316 0.01539 0.89074 0.0
H433 H 0.71534 0.01163 0.81893 0.0
H434 H 0.68847 0.07993 0.73574 0.0
H435 H 0.65788 0.08434 0.80769 0.0
H436 H 0.57336 0.15431 1.0068 0.0
H437 H 0.59831 0.20868 1.05135 0.0
H438 H 0.52355 0.23304 0.98166 0.0
H439 H 0.49812 0.17727 0.93681 0.0
Pr440 Pr 0.52204 0.61467 0.24038 0.0
Pr441 Pr 0.45811 0.57281 0.25799 0.0
C442 C 0.58724 0.66232 0.21053 0.0
C443 C 0.60804 0.67344 0.16523 0.0
C444 C 0.6438 0.69839 0.16736 0.0
C445 C 0.66325 0.7109 1.12357 0.0
C446 C 0.64689 0.69869 1.07742 0.0
C447 C 0.61097 0.67359 1.07574 0.0
C448 C 0.59171 0.661 1.11937 0.0
C449 C 0.49264 0.65122 0.29025 0.0
C450 C 0.46645 0.57775 1.13439 0.0
C451 C 0.38899 0.54471 0.27719 0.0
C452 C 0.37005 0.5624 0.29352 0.0
C453 C 0.34406 0.54673 0.32991 0.0
C454 C 0.33373 0.56691 0.35695 0.0
C455 C 0.34941 0.60334 0.34819 0.0
C456 C 0.37277 0.61789 0.30787 0.0
C457 C 0.38304 0.59768 0.28089 0.0
C458 C 0.48414 0.53137 0.22596 0.0
C459 C 0.51165 0.57571 0.35238 0.0
O460 O 0.57973 0.63183 0.2291 0.0
O461 O 0.56065 0.66788 0.21076 0.0
O462 O 0.48047 0.63268 0.25205 0.0
O463 O 0.51715 0.64617 0.30869 0.0
O464 O 0.44299 0.56209 0.17023 0.0
O465 O 0.49923 0.60026 0.15126 0.0
O466 O 0.40196 0.55241 0.23244 0.0
O467 O 0.41132 0.54487 0.30956 0.0
O468 O 0.49318 0.56073 0.20778 0.0
O469 O 0.47258 0.52918 0.27079 0.0
O470 O 0.53442 0.58925 0.3149 0.0
O471 O 0.47978 0.57116 0.342 0.0
H472 H 0.65655 0.70831 0.20275 0.0
H473 H 0.69098 0.72997 1.12571 0.0
H474 H 0.59795 0.66296 1.04073 0.0
H475 H 0.56406 0.64173 1.1173 0.0
H476 H 0.33406 0.51961 0.34047 0.0
H477 H 0.31616 0.55422 0.38794 0.0
H478 H 0.38548 0.64553 0.2995 0.0
H479 H 0.4034 0.61044 0.25299 0.0
H480 H 0.49942 0.18108 0.25764 0.0
H481 H 0.49659 0.189 0.41639 0.0
H482 H 0.49439 0.24341 0.40708 0.0
H483 H 0.4905 0.28871 0.3521 0.0
H484 H 0.50133 0.2828 0.19414 0.0
H485 H 0.50278 0.2288 0.2048 0.0
C486 C 0.49836 0.19469 0.29027 0.0
C487 C 0.49771 0.18026 0.33768 0.0
C488 C 0.49876 0.22712 0.28472 0.0
C489 C 0.497 0.19906 0.37932 0.0
C490 C 0.49579 0.23045 0.37398 0.0
C491 C 0.49487 0.2766 0.32029 0.0
C492 C 0.49688 0.29128 0.27221 0.0
C493 C 0.49665 0.24504 0.3267 0.0
C494 C 0.50051 0.27327 0.23167 0.0
C495 C 0.50103 0.24187 0.23759 0.0
H496 H 0.29922 0.50606 0.6358 0.0
H497 H 0.24915 0.4494 0.77064 0.0
H498 H 0.19594 0.45073 0.74914 0.0
H499 H 0.16123 0.46526 0.69089 0.0
H500 H 0.20997 0.52423 0.55786 0.0
H501 H 0.2647 0.52424 0.57909 0.0
C502 C 0.27673 0.4941 0.66054 0.0
C503 C 0.27876 0.47727 0.70491 0.0
C504 C 0.2455 0.49554 0.64838 0.0
C505 C 0.249 0.46241 0.73629 0.0
C506 C 0.21817 0.4631 0.724 0.0
C507 C 0.18421 0.47922 0.66735 0.0
C508 C 0.18152 0.49589 0.62365 0.0
C509 C 0.21589 0.47939 0.68015 0.0
C510 C 0.21142 0.51248 0.59275 0.0
C511 C 0.24281 0.5122 0.60477 0.0
H512 H 0.78514 0.28542 0.9227 0.0
H513 H 0.75911 0.29201 1.0745 0.0
H514 H 0.70133 0.23903 1.06393 0.0
H515 H 0.6587 0.18705 1.01123 0.0
H516 H 0.68778 0.18607 0.8582 0.0
H517 H 0.74255 0.23918 0.87006 0.0
C518 C 0.76678 0.27566 0.95356 0.0
C519 C 0.77705 0.29322 0.99936 0.0
C520 C 0.73361 0.24514 0.94718 0.0
C521 C 0.75233 0.27965 1.03856 0.0
C522 C 0.71915 0.24893 1.03254 0.0
C523 C 0.6768 0.19861 0.98037 0.0
C524 C 0.66829 0.1812 0.93375 0.0
C525 C 0.70945 0.23081 0.98702 0.0
C526 C 0.69276 0.1976 0.89471 0.0
C527 C 0.72462 0.22847 0.90129 0.0
H528 H 0.51638 0.69389 0.37232 0.0
H529 H 0.45827 0.67877 0.23653 0.0
H530 H 0.45452 0.73144 0.25255 0.0
H531 H 0.46989 0.78405 0.30403 0.0
H532 H 0.52337 0.79576 0.44323 0.0
H533 H 0.52741 0.74348 0.42664 0.0
C534 C 0.50266 0.70192 0.34631 0.0
C535 C 0.48786 0.68205 0.30291 0.0
C536 C 0.50013 0.7323 0.35619 0.0
C537 C 0.47003 0.69318 0.27012 0.0
C538 C 0.46798 0.72358 0.27924 0.0
C539 C 0.48197 0.77492 0.33107 0.0
C540 C 0.49618 0.79428 0.37512 0.0
C541 C 0.48323 0.7437 0.32194 0.0
C542 C 0.51216 0.78185 0.40911 0.0
C543 C 0.51445 0.7517 0.39963 0.0
H544 H 0.6468 0.42789 0.63557 0.0
H545 H 0.69643 0.5073 0.74695 0.0
H546 H 0.7529 0.51506 0.72609 0.0
H547 H 0.79028 0.49902 0.67982 0.0
H548 H 0.74434 0.41693 0.57244 0.0
H549 H 0.68588 0.40982 0.58923 0.0
C550 C 0.66987 0.44698 0.65499 0.0
C551 C 0.6661 0.4675 0.69234 0.0
C552 C 0.70372 0.4505 0.64429 0.0
C553 C 0.69722 0.49162 0.71713 0.0
C554 C 0.7302 0.49595 0.70569 0.0
C555 C 0.76756 0.47944 0.65995 0.0
C556 C 0.77227 0.45866 0.62475 0.0
C557 C 0.73394 0.47543 0.66986 0.0
C558 C 0.74199 0.43345 0.5998 0.0
C559 C 0.70833 0.42948 0.60929 0.0
H560 H 0.29119 0.79711 1.01449 0.0
H561 H 0.27718 0.7966 0.85589 0.0
H562 H 0.2223 0.74103 0.86273 0.0
H563 H 0.17702 0.69137 0.91326 0.0
H564 H 0.19114 0.69007 1.07133 0.0
H565 H 0.24587 0.74634 1.06528 0.0
C566 C 0.27633 0.7848 0.9813 0.0
C567 C 0.28924 0.80173 0.93443 0.0
C568 C 0.24442 0.75175 0.98537 0.0
C569 C 0.26865 0.78488 0.89243 0.0
C570 C 0.23701 0.7527 0.8963 0.0
C571 C 0.19244 0.70293 0.94637 0.0
C572 C 0.17988 0.68528 0.99274 0.0
C573 C 0.22456 0.73559 0.94244 0.0
C574 C 0.20031 0.70178 1.03496 0.0
C575 C 0.23171 0.73443 1.03147 0.0
H576 H 0.63171 0.27173 1.03992 0.0
H577 H 0.52602 0.2494 1.07086 0.0
H578 H 0.54514 0.27862 1.15023 0.0
H579 H 0.58407 0.2869 0.22073 0.0
H580 H 0.68376 0.29229 0.19389 0.0
H581 H 0.67608 0.29538 1.10527 0.0
C582 C 0.61315 0.27438 1.06352 0.0
C583 C 0.57726 0.25688 1.05094 0.0
C584 C 0.6233 0.2874 1.11152 0.0
C585 C 0.55368 0.26182 1.08026 0.0
C586 C 0.56448 0.27799 1.12627 0.0
C587 C 0.60462 0.28985 0.19545 0.0
C588 C 0.63308 0.28659 0.2139 0.0
C589 C 0.59809 0.28725 1.14421 0.0
C590 C 0.66074 0.2932 0.18114 0.0
C591 C 0.6561 0.29436 1.12997 0.0
H592 H 0.29615 0.58894 0.41473 0.0
H593 H 0.39964 0.67141 0.37153 0.0
H594 H 0.40991 0.69423 0.4542 0.0
H595 H 0.39991 0.67729 0.54183 0.0
H596 H 0.30333 0.58594 0.58638 0.0
H597 H 0.28022 0.58052 0.50283 0.0
C598 C 0.32087 0.61213 0.42316 0.0
C599 C 0.348 0.62628 0.38749 0.0
C600 C 0.32845 0.62307 0.47253 0.0
C601 C 0.37842 0.6584 0.398 0.0
C602 C 0.38473 0.67152 0.44603 0.0
C603 C 0.37342 0.65676 0.53351 0.0
C604 C 0.35437 0.63075 0.56939 0.0
C605 C 0.3616 0.65184 0.48431 0.0
C606 C 0.31924 0.60567 0.55911 0.0
C607 C 0.30606 0.60229 0.51094 0.0
H608 H 0.70872 0.40163 0.91576 0.0
H609 H 0.73843 0.32742 0.97014 0.0
H610 H 0.71721 0.29427 0.89444 0.0
H611 H 0.71161 0.29976 0.80512 0.0
H612 H 0.68504 0.3756 0.74795 0.0
H613 H 0.68268 0.39396 0.83222 0.0
C614 C 0.7091 0.37736 0.91187 0.0
C615 C 0.72671 0.36805 0.94752 0.0
C616 C 0.69832 0.35915 0.86698 0.0
C617 C 0.72581 0.33581 0.94295 0.0
C618 C 0.71403 0.31691 0.89919 0.0
C619 C 0.70328 0.31888 0.81104 0.0
C620 C 0.7005 0.33771 0.77043 0.0
C621 C 0.70338 0.33025 0.85944 0.0
C622 C 0.68871 0.3617 0.77883 0.0
C623 C 0.68772 0.37248 0.82704 0.0
H624 H 0.31207 0.65381 1.07979 0.0
H625 H 0.23812 0.68828 1.11304 0.0
H626 H 0.23677 0.67155 0.19976 0.0
H627 H 0.27412 0.67039 0.26608 0.0
H628 H 0.35869 0.65078 0.23088 0.0
H629 H 0.33762 0.63647 1.14666 0.0
C630 C 0.29408 0.65573 1.10547 0.0
C631 C 0.27607 0.67326 1.09062 0.0
C632 C 0.2963 0.64937 0.15602 0.0
C633 C 0.25255 0.67525 1.12389 0.0
C634 C 0.25231 0.66623 0.17378 0.0
C635 C 0.28675 0.66103 0.24078 0.0
C636 C 0.31834 0.66221 0.25474 0.0
C637 C 0.2768 0.65675 0.19075 0.0
C638 C 0.33428 0.64988 0.22157 0.0
C639 C 0.3226 0.64246 0.17271 0.0
H640 H 0.63674 0.40838 0.45025 0.0
H641 H 0.5485 0.33959 0.35977 0.0
H642 H 0.51642 0.30661 0.43308 0.0
H643 H 0.50731 0.30978 0.52213 0.0
H644 H 0.5948 0.37885 0.61325 0.0
H645 H 0.63348 0.39879 0.54088 0.0
C646 C 0.61123 0.3851 0.44648 0.0
C647 C 0.59465 0.37692 0.39992 0.0
C648 C 0.5924 0.36679 0.48908 0.0
C649 C 0.56179 0.34642 0.39525 0.0
C650 C 0.54314 0.3278 0.43726 0.0
C651 C 0.53525 0.32779 0.52636 0.0
C652 C 0.54815 0.34364 0.57231 0.0
C653 C 0.55717 0.3395 0.48444 0.0
C654 C 0.58438 0.36666 0.57787 0.0
C655 C 0.60643 0.37831 0.53642 0.0
H656 H 0.20998 0.51579 0.89026 0.0
H657 H 0.27618 0.61324 0.96315 0.0
H658 H 0.3011 0.64115 0.8831 0.0
H659 H 0.28921 0.64016 0.79249 0.0
H660 H 0.22393 0.54105 0.72282 0.0
H661 H 0.21534 0.51088 0.8018 0.0
C662 C 0.23106 0.54268 0.88973 0.0
C663 C 0.23865 0.5635 0.93223 0.0
C664 C 0.2454 0.55822 0.84368 0.0
C665 C 0.26754 0.59765 0.93013 0.0
C666 C 0.28199 0.61351 0.88438 0.0
C667 C 0.27452 0.61186 0.79439 0.0
C668 C 0.25643 0.59291 0.75218 0.0
C669 C 0.26869 0.59462 0.84056 0.0
C670 C 0.23808 0.55622 0.75471 0.0
C671 C 0.23268 0.53892 0.80017 0.0
H672 H 0.46128 -0.00783 1.04501 0.0
H673 H 0.40771 0.89522 1.12753 0.0
H674 H 0.42267 0.92794 0.20523 0.0
H675 H 0.45378 -0.01572 0.25331 0.0
H676 H 0.51023 0.08156 0.17301 0.0
H677 H 0.49218 0.0494 1.09443 0.0
C678 C 0.45255 0.9777 1.07973 0.0
C679 C 0.43281 0.93965 1.07757 0.0
C680 C 0.46223 -0.00258 1.12647 0.0
C681 C 0.42269 0.92345 1.12517 0.0
C682 C 0.43138 0.94264 0.17069 0.0
C683 C 0.46193 -0.00083 0.21924 0.0
C684 C 0.48381 0.03692 0.22235 0.0
C685 C 0.45161 0.97974 0.17252 0.0
C686 C 0.49398 0.05342 0.17487 0.0
C687 C 0.4832 0.03455 1.12882 0.0
H688 H 0.41635 0.35931 0.45321 0.0
H689 H 0.44934 0.45404 0.36825 0.0
H690 H 0.43444 0.47925 0.43775 0.0
H691 H 0.41506 0.4781 0.52723 0.0
H692 H 0.38313 0.3842 0.61348 0.0
H693 H 0.39532 0.35752 0.54273 0.0
C694 C 0.42037 0.38552 0.44922 0.0
C695 C 0.43422 0.40385 0.40238 0.0
C696 C 0.41275 0.40141 0.4919 0.0
C697 C 0.43905 0.43823 0.40164 0.0
C698 C 0.43077 0.45329 0.44257 0.0
C699 C 0.41087 0.45185 0.53133 0.0
C700 C 0.39796 0.43418 0.57872 0.0
C701 C 0.41813 0.43576 0.48874 0.0
C702 C 0.39277 0.39962 0.57967 0.0
C703 C 0.39993 0.38391 0.5382 0.0
H704 H -0.00109 0.41592 0.71758 0.0
H705 H 0.0591 0.52275 0.76482 0.0
H706 H 0.02831 0.50637 0.84462 0.0
H707 H -0.01724 0.46164 0.90554 0.0
H708 H 0.92228 0.35507 0.85922 0.0
H709 H 0.95348 0.37105 0.77922 0.0
C710 C 0.00562 0.43613 0.74479 0.0
C711 C 0.03294 0.47161 0.73162 0.0
C712 C -0.01327 0.42626 0.79303 0.0
C713 C 0.03934 0.49565 0.77051 0.0
C714 C 0.02112 0.48606 0.81748 0.0
C715 C 0.97549 0.4417 0.87799 0.0
C716 C 0.94808 0.4065 0.89131 0.0
C717 C -0.00561 0.45147 0.8299 0.0
C718 C 0.94204 0.38213 0.85308 0.0
C719 C 0.96032 0.39155 0.80599 0.0
H720 H 0.48258 0.90352 0.17861 0.0
H721 H 0.53054 -0.0148 0.28661 0.0
H722 H 0.55408 0.02884 0.22054 0.0
H723 H 0.56167 0.04742 1.12933 0.0
H724 H 0.52025 0.96663 1.01974 0.0
H725 H 0.49613 0.92212 1.08594 0.0
C726 C 0.49795 0.93076 0.18851 0.0
C727 C 0.50218 0.93938 0.24116 0.0
C728 C 0.51382 0.95739 1.14814 0.0
C729 C 0.52412 0.97591 0.249 0.0
C730 C 0.53858 0.00171 0.21008 0.0
C731 C 0.54746 0.02017 1.11911 0.0
C732 C 0.54305 0.0121 1.06657 0.0
C733 C 0.5335 -0.00663 0.15899 0.0
C734 C 0.52476 0.97547 1.05775 0.0
C735 C 0.51051 0.94927 1.09667 0.0
H736 H 0.5116 0.512 0.57589 0.0
H737 H 0.62239 0.55636 0.54801 0.0
H738 H 0.61481 0.57677 0.46568 0.0
H739 H 0.57619 0.5824 0.39755 0.0
H740 H 0.46675 0.54302 0.43147 0.0
H741 H 0.47486 0.5222 0.51228 0.0
C742 C 0.53448 0.52626 0.55232 0.0
C743 C 0.56797 0.53184 0.57074 0.0
C744 C 0.53006 0.53929 0.50407 0.0
C745 C 0.59633 0.55103 0.53735 0.0
C746 C 0.59185 0.56286 0.48918 0.0
C747 C 0.55377 0.56917 0.42216 0.0
C748 C 0.5201 0.56427 0.40505 0.0
C749 C 0.55877 0.55723 0.47132 0.0
C750 C 0.4927 0.54729 0.44049 0.0
C751 C 0.49736 0.53503 0.48781 0.0
H752 H 0.03292 0.59354 0.83357 0.0
H753 H 0.97281 0.50801 0.93432 0.0
H754 H 0.93116 0.47631 0.8683 0.0
H755 H 0.91024 0.46913 0.77741 0.0
H756 H 0.9706 0.55492 0.67651 0.0
H757 H 0.01127 0.58706 0.74328 0.0
C758 C 0.01071 0.56808 0.84206 0.0
C759 C 0.00754 0.55466 0.89272 0.0
C760 C -0.01411 0.54838 0.80147 0.0
C761 C 0.97754 0.5208 0.89855 0.0
C762 C 0.95308 0.5019 0.85943 0.0
C763 C 0.93217 0.4948 0.76908 0.0
C764 C 0.93557 0.50814 0.7183 0.0
C765 C 0.95674 0.51471 0.80985 0.0
C766 C 0.96538 0.54229 0.71268 0.0
C767 C -0.01056 0.56139 0.75203 0.0
H768 H 0.49699 0.00545 0.32653 0.0
H769 H 0.54945 0.0219 0.46712 0.0
H770 H 0.49502 0.9758 0.50556 0.0
H771 H 0.43195 0.93187 0.49551 0.0
H772 H 0.3793 0.92348 0.36056 0.0
H773 H 0.43089 0.97533 0.32655 0.0
C774 C 0.49633 -0.00094 0.36554 0.0
C775 C 0.5261 0.01749 0.39457 0.0
C776 C 0.46441 0.97849 0.38882 0.0
C777 C 0.52625 0.00755 0.44434 0.0
C778 C 0.49497 -0.01695 0.46694 0.0
C779 C 0.43222 0.94203 0.45864 0.0
C780 C 0.40906 0.91995 0.42244 0.0
C781 C 0.46376 0.96907 0.43959 0.0
C782 C 0.40271 0.93707 0.38313 0.0
C783 C 0.43248 0.96552 0.36272 0.0
H784 H 0.46768 0.55084 0.75153 0.0
H785 H 0.45946 0.46659 0.84317 0.0
H786 H 0.51213 0.50758 0.88897 0.0
H787 H 0.57043 0.54865 0.85813 0.0
H788 H 0.57595 0.59982 0.7207 0.0
H789 H 0.52398 0.60334 0.74297 0.0
C790 C 0.47776 0.54171 0.7817 0.0
C791 C 0.46369 0.50572 0.7899 0.0
C792 C 0.51026 0.56442 0.80177 0.0
C793 C 0.47306 0.49401 0.83279 0.0
C794 C 0.50245 0.51773 0.85968 0.0
C795 C 0.55983 0.56105 0.83378 0.0
C796 C 0.57117 0.56714 0.78422 0.0
C797 C 0.52428 0.5509 0.83832 0.0
C798 C 0.56391 0.58999 0.7567 0.0
C799 C 0.53352 0.59103 0.76916 0.0
H800 H -0.01071 0.43879 0.16687 0.0
H801 H 0.00403 0.42588 1.01595 0.0
H802 H -0.00185 0.47706 0.99116 0.0
H803 H 0.9715 0.51394 1.01553 0.0
H804 H 0.97364 0.53914 0.16721 0.0
H805 H 0.97757 0.48696 0.19301 0.0
C806 C -0.00834 0.44797 1.12876 0.0
C807 C -0.01606 0.42457 1.08974 0.0
C808 C -0.01394 0.47599 1.11733 0.0
C809 C -0.00042 0.44052 1.04421 0.0
C810 C -0.00507 0.4686 1.02963 0.0
C811 C 0.97294 0.50764 1.05409 0.0
C812 C -0.01848 0.53338 1.08939 0.0
C813 C -0.01625 0.48357 1.06607 0.0
C814 C 0.97442 0.52212 1.13923 0.0
C815 C 0.97853 0.49373 0.154 0.0
H816 H 0.03031 0.47255 0.48743 0.0
H817 H 0.02934 0.56902 0.50494 0.0
H818 H -0.01872 0.54912 0.44502 0.0
H819 H 0.92788 0.49571 0.46748 0.0
H820 H 0.93009 0.39964 0.4858 0.0
H821 H -0.01517 0.4252 0.43898 0.0
C822 C 0.02087 0.49013 0.47596 0.0
C823 C 0.03019 0.52028 0.50381 0.0
C824 C -0.008 0.4773 0.44456 0.0
C825 C 0.01951 0.54385 0.48762 0.0
C826 C -0.00697 0.53284 0.45198 0.0
C827 C 0.93986 0.47988 0.45973 0.0
C828 C 0.92834 0.44801 0.4855 0.0
C829 C 0.97425 0.49688 0.44228 0.0
C830 C 0.94088 0.42588 0.47072 0.0
C831 C 0.97208 0.44067 0.44363 0.0
H832 H 0.48228 0.87813 0.82794 0.0
H833 H 0.52558 0.88533 0.971 0.0
H834 H 0.56348 0.94823 0.96062 0.0
H835 H 0.54766 -0.00762 0.93898 0.0
H836 H 0.49046 -0.01417 0.80602 0.0
H837 H 0.48813 0.93042 0.7856 0.0
C838 C 0.50136 0.89397 0.85556 0.0
C839 C 0.4959 0.8815 0.90469 0.0
C840 C 0.51658 0.93018 0.85182 0.0
C841 C 0.52522 0.8974 0.93585 0.0
C842 C 0.54631 0.93349 0.93034 0.0
C843 C 0.53613 0.97989 0.90477 0.0
C844 C 0.51696 -0.00893 0.87619 0.0
C845 C 0.53658 0.9498 0.89312 0.0
C846 C 0.50279 0.97536 0.83054 0.0
C847 C 0.50278 0.94474 0.81794 0.0
H848 H 0.41476 0.49731 0.23391 0.0
H849 H 0.49861 0.51119 1.13707 0.0
H850 H 0.45743 0.45943 1.09051 0.0
H851 H 0.41754 0.40039 1.11924 0.0
H852 H 0.36572 0.38879 0.25743 0.0
H853 H 0.36226 0.44127 0.23982 0.0
C854 C 0.4239 0.48881 0.20246 0.0
C855 C 0.46007 0.50421 0.19274 0.0
C856 C 0.40114 0.45723 0.1809 0.0
C857 C 0.47131 0.49656 1.14846 0.0
C858 C 0.44744 0.46776 1.12111 0.0
C859 C 0.4048 0.40965 1.14462 0.0
C860 C 0.3981 0.39594 0.19307 0.0
C861 C 0.41461 0.44494 1.14272 0.0
C862 C 0.37548 0.40223 0.22216 0.0
C863 C 0.37449 0.43287 0.2124 0.0
H864 H 0.26854 0.93114 0.727 0.0
H865 H 0.33549 0.03677 0.77671 0.0
H866 H 0.3387 0.05866 0.69298 0.0
H867 H 0.34078 0.04621 0.60551 0.0
H868 H 0.28637 0.9398 0.55535 0.0
H869 H 0.26049 0.91974 0.63786 0.0
C870 C 0.28325 0.95904 0.71963 0.0
C871 C 0.30354 -0.01809 0.75765 0.0
C872 C 0.28838 0.9712 0.67042 0.0
C873 C 0.32032 0.01816 0.7483 0.0
C874 C 0.32275 0.03081 0.69995 0.0
C875 C 0.32236 0.01875 0.61248 0.0
C876 C 0.3163 -0.0057 0.5755 0.0
C877 C 0.30982 0.00732 0.66056 0.0
C878 C 0.29172 0.95895 0.58381 0.0
C879 C 0.27718 0.9475 0.63105 0.0
H880 H 0.2583 0.26763 1.1061 0.0
H881 H 0.29747 0.20507 1.0396 0.0
H882 H 0.27861 0.21395 0.95783 0.0
H883 H 0.26599 0.25194 0.90539 0.0
H884 H 0.22972 0.31707 0.97158 0.0
H885 H 0.23177 0.29414 1.05381 0.0
C886 C 0.26117 0.25455 1.07409 0.0
C887 C 0.27996 0.23646 1.07839 0.0
C888 C 0.25152 0.26092 1.02714 0.0
C889 C 0.28359 0.21967 1.03672 0.0
C890 C 0.27304 0.22493 0.99002 0.0
C891 C 0.25697 0.25996 0.93746 0.0
C892 C 0.24863 0.28681 0.93277 0.0
C893 C 0.25921 0.24745 0.98456 0.0
C894 C 0.23709 0.297 0.97467 0.0
C895 C 0.23832 0.28396 1.02162 0.0
H896 H 0.94625 0.25153 0.22233 0.0
H897 H 0.84274 0.20863 0.28672 0.0
H898 H 0.86891 0.232 0.36758 0.0
H899 H 0.92027 0.27641 0.41265 0.0
H900 H 0.0231 0.32216 0.34524 0.0
H901 H -0.00198 0.28573 0.27238 0.0
C902 C 0.92927 0.24571 0.25442 0.0
C903 C 0.89259 0.2291 0.24837 0.0
C904 C 0.94442 0.2608 0.29975 0.0
C905 C 0.87109 0.2219 0.29044 0.0
C906 C 0.88604 0.23561 0.33646 0.0
C907 C 0.93726 0.27757 0.38262 0.0
C908 C 0.9732 0.30244 0.3834 0.0
C909 C 0.92256 0.25709 0.34052 0.0
C910 C -0.00489 0.30379 0.34453 0.0
C911 C -0.01915 0.28287 0.3031 0.0
H912 H 0.69099 0.98068 0.74471 0.0
H913 H 0.73846 0.08717 0.6908 0.0
H914 H 0.73054 0.06688 0.60541 0.0
H915 H 0.69549 0.01884 0.54938 0.0
H916 H 0.64843 0.91231 0.60316 0.0
H917 H 0.67182 0.933 0.68585 0.0
C918 C 0.70126 -0.00028 0.71459 0.0
C919 C 0.71392 0.0353 0.72402 0.0
C920 C 0.69595 -0.01217 0.66565 0.0
C921 C 0.72741 0.05948 0.68434 0.0
C922 C 0.7228 0.0479 0.6355 0.0
C923 C 0.69166 -5e-05 0.57835 0.0
C924 C 0.66892 0.96409 0.5706 0.0
C925 C 0.70475 0.01201 0.62591 0.0
C926 C 0.66468 0.94015 0.60872 0.0
C927 C 0.67806 0.95195 0.65603 0.0
H928 H 0.70859 0.70058 1.0621 0.0
H929 H 0.63055 0.71796 0.98904 0.0
H930 H 0.65405 0.7156 0.90806 0.0
H931 H 0.68629 0.69389 0.86054 0.0
H932 H 0.76161 0.67251 0.93384 0.0
H933 H 0.75049 0.6923 1.01249 0.0
C934 C 0.69773 0.70533 1.0285 0.0
C935 C 0.66749 0.7086 1.03112 0.0
C936 C 0.71059 0.70275 0.98225 0.0
C937 C 0.65347 0.71466 0.98751 0.0
C938 C 0.66683 0.71325 0.94132 0.0
C939 C 0.70155 0.69515 0.89314 0.0
C940 C 0.72411 0.68106 0.89187 0.0
C941 C 0.69391 0.70512 0.93839 0.0
C942 C 0.74361 0.68271 0.93439 0.0
C943 C 0.73708 0.69377 0.97935 0.0
H944 H -0.02049 0.69798 0.20008 0.0
H945 H 0.07794 0.74977 0.27927 0.0
H946 H 0.04648 0.73071 0.3584 0.0
H947 H -0.00701 0.68803 0.40189 0.0
H948 H 0.89564 0.63225 0.32103 0.0
H949 H 0.92466 0.66454 0.24522 0.0
C950 C -0.00597 0.70655 0.23464 0.0
C951 C 0.03095 0.72479 0.23407 0.0
C952 C 0.97596 0.69398 0.27947 0.0
C953 C 0.04945 0.73539 0.27908 0.0
C954 C 0.03151 0.72422 0.32418 0.0
C955 C 0.97791 0.68393 0.36806 0.0
C956 C 0.94253 0.65756 0.36642 0.0
C957 C -0.00498 0.7017 0.3245 0.0
C958 C 0.92315 0.65212 0.32254 0.0
C959 C 0.93969 0.67054 0.27937 0.0
H960 H 0.49706 0.09224 0.58366 0.0
H961 H 0.59699 0.1105 0.52841 0.0
H962 H 0.61599 0.1082 0.61338 0.0
H963 H 0.60577 0.10137 0.70718 0.0
H964 H 0.50755 0.08775 0.7625 0.0
H965 H 0.48777 0.08785 0.67742 0.0
C966 C 0.52316 0.09589 0.5896 0.0
C967 C 0.54513 0.10172 0.54658 0.0
C968 C 0.53485 0.09538 0.64062 0.0
C969 C 0.57881 0.10623 0.55833 0.0
C970 C 0.58995 0.10482 0.60803 0.0
C971 C 0.57998 0.09849 0.70123 0.0
C972 C 0.55867 0.09456 0.74434 0.0
C973 C 0.56848 0.0995 0.65019 0.0
C974 C 0.52541 0.09108 0.73256 0.0
C975 C 0.51375 0.09106 0.68279 0.0
H976 H 0.44754 0.55806 0.88895 0.0
H977 H 0.3544 0.46296 0.9324 0.0
H978 H 0.36874 0.47801 1.01998 0.0
H979 H 0.40734 0.51848 1.0885 0.0
H980 H 0.50271 0.61166 1.04622 0.0
H981 H 0.48813 0.59721 0.95821 0.0
C982 C 0.4299 0.54042 0.91715 0.0
C983 C 0.39872 0.5089 0.9008 0.0
C984 C 0.43896 0.54918 0.96985 0.0
C985 C 0.37799 0.48724 0.9408 0.0
C986 C 0.3864 0.49604 0.99213 0.0
C987 C 0.42521 0.53611 1.06048 0.0
C988 C 0.45654 0.56723 1.07721 0.0
C989 C 0.41673 0.52704 1.00789 0.0
C990 C 0.47852 0.58803 1.03749 0.0
C991 C 0.46996 0.57956 0.98593 0.0
H992 H 0.87093 0.43547 0.21551 0.0
H993 H 0.85606 0.33274 0.24454 0.0
H994 H 0.84979 0.34019 0.33377 0.0
H995 H 0.84787 0.37595 0.40803 0.0
H996 H 0.86536 0.47955 0.37719 0.0
H997 H 0.87099 0.47148 0.28871 0.0
C998 C 0.8662 0.41424 0.24074 0.0
C999 C 0.86382 0.38287 0.21962 0.0
C1000 C 0.8628 0.41894 0.29412 0.0
C1001 C 0.85806 0.35704 0.25633 0.0
C1002 C 0.85436 0.36144 0.30869 0.0
C1003 C 0.85254 0.39696 0.3824 0.0
C1004 C 0.85521 0.42869 0.40286 0.0
C1005 C 0.85644 0.39223 0.32888 0.0
C1006 C 0.86233 0.45473 0.36587 0.0
C1007 C 0.86575 0.45006 0.31388 0.0
H1008 H 0.46705 0.84097 0.60213 0.0
H1009 H 0.4034 0.88172 0.54115 0.0
H1010 H 0.38702 0.88904 0.62517 0.0
H1011 H 0.38995 0.88435 0.71939 0.0
H1012 H 0.44274 0.83157 0.77932 0.0
H1013 H 0.46289 0.82843 0.69574 0.0
C1014 C 0.44929 0.85121 0.60664 0.0
C1015 C 0.43761 0.86156 0.56247 0.0
C1016 C 0.43759 0.85327 0.65679 0.0
C1017 C 0.41408 0.87416 0.57212 0.0
C1018 C 0.4043 0.87818 0.62121 0.0
C1019 C 0.40569 0.87184 0.71474 0.0
C1020 C 0.41505 0.85905 0.75873 0.0
C1021 C 0.41581 0.868 0.66446 0.0
C1022 C 0.43511 0.84255 0.74871 0.0
C1023 C 0.44677 0.84056 0.69982 0.0
H1024 H 0.50625 0.41047 0.89004 0.0
H1025 H 0.60504 0.49963 0.93034 0.0
H1026 H 0.59094 0.48436 1.01846 0.0
H1027 H 0.55076 0.4453 1.08798 0.0
H1028 H 0.45208 0.35587 1.04819 0.0
H1029 H 0.4658 0.37139 0.9599 0.0
C1030 C 0.5251 0.42683 0.91767 0.0
C1031 C 0.55757 0.45681 0.90042 0.0
C1032 C 0.51663 0.41751 0.97042 0.0
C1033 C 0.58028 0.47662 0.93957 0.0
C1034 C 0.572 0.46769 0.99113 0.0
C1035 C 0.53196 0.42876 1.06043 0.0
C1036 C 0.49982 0.39849 1.07782 0.0
C1037 C 0.54031 0.43809 1.00773 0.0
C1038 C 0.47687 0.37879 1.03881 0.0
C1039 C 0.4849 0.38793 0.98716 0.0
H1040 H 0.08756 0.50225 0.36419 0.0
H1041 H 0.12465 0.60221 0.4325 0.0
H1042 H 0.12275 0.62764 0.35207 0.0
H1043 H 0.1119 0.62406 0.25723 0.0
H1044 H 0.07642 0.52398 0.18966 0.0
H1045 H 0.07667 0.49856 0.27031 0.0
C1046 C 0.09564 0.52977 0.3623 0.0
C1047 C 0.10692 0.54946 0.40822 0.0
C1048 C 0.09479 0.54532 0.31346 0.0
C1049 C 0.11633 0.58517 0.40072 0.0
C1050 C 0.1151 0.60022 0.35334 0.0
C1051 C 0.10383 0.59656 0.25931 0.0
C1052 C 0.09394 0.57695 0.21314 0.0
C1053 C 0.10452 0.58099 0.30846 0.0
C1054 C 0.08438 0.54119 0.22126 0.0
C1055 C 0.0845 0.52604 0.26882 0.0
loop_
_geom_bond_atom_site_label_1
_geom_bond_atom_site_label_2
_geom_bond_distance
_geom_bond_site_symmetry_2
_ccdc_geom_bond_type
Pr0 C2 2.880 . S
Pr0 O20 2.562 . S
Pr0 O21 2.490 . S
Pr0 O22 2.695 . S
Pr0 O23 2.512 . S
Pr0 O25 2.437 . S
Pr0 O28 2.436 . S
Pr0 O30 2.438 . S
Pr1 C11 2.880 . S
Pr1 O22 2.436 . S
Pr1 O24 2.438 . S
Pr1 O26 2.562 . S
Pr1 O27 2.490 . S
Pr1 O28 2.695 . S
Pr1 O29 2.512 . S
Pr1 O31 2.437 . S
C2 Pr0 2.880 . S
C2 C3 1.491 . S
C2 O20 1.254 . S
C2 O21 1.225 . S
C3 C2 1.491 . S
C3 C4 1.392 . S
C3 C8 1.356 . S
C4 C3 1.392 . S
C4 C5 1.368 . S
C4 H32 0.929 . S
C5 C4 1.368 . S
C5 C6 1.386 . S
C5 H33 0.929 . S
C6 C5 1.386 . S
C6 C7 1.373 . S
C7 C6 1.373 . S
C7 C8 1.409 . S
C7 H34 0.931 . S
C8 C3 1.356 . S
C8 C7 1.409 . S
C8 H35 0.930 . S
C9 O22 1.270 . S
C9 O23 1.248 . S
C10 O24 1.267 . S
C10 O25 1.278 . S
C11 Pr1 2.880 . S
C11 C12 1.491 . S
C11 O26 1.254 . S
C11 O27 1.225 . S
C12 C11 1.491 . S
C12 C13 1.392 . S
C12 C17 1.356 . S
C13 C12 1.392 . S
C13 C14 1.368 . S
C13 H36 0.929 . S
C14 C13 1.368 . S
C14 C15 1.386 . S
C14 H37 0.929 . S
C15 C14 1.386 . S
C15 C16 1.373 . S
C16 C15 1.373 . S
C16 C17 1.409 . S
C16 H38 0.931 . S
C17 C12 1.356 . S
C17 C16 1.409 . S
C17 H39 0.930 . S
C18 O28 1.270 . S
C18 O29 1.248 . S
C19 O30 1.267 . S
C19 O31 1.278 . S
O20 Pr0 2.562 . S
O20 C2 1.254 . S
O21 Pr0 2.490 . S
O21 C2 1.225 . S
O22 Pr0 2.695 . S
O22 Pr1 2.436 . S
O22 C9 1.270 . S
O23 Pr0 2.512 . S
O23 C9 1.248 . S
O24 Pr1 2.438 . S
O24 C10 1.267 . S
O25 Pr0 2.437 . S
O25 C10 1.278 . S
O26 Pr1 2.562 . S
O26 C11 1.254 . S
O27 Pr1 2.490 . S
O27 C11 1.225 . S
O28 Pr0 2.436 . S
O28 Pr1 2.695 . S
O28 C18 1.270 . S
O29 Pr1 2.512 . S
O29 C18 1.248 . S
O30 Pr0 2.438 . S
O30 C19 1.267 . S
O31 Pr1 2.437 . S
O31 C19 1.278 . S
H32 C4 0.929 . S
H33 C5 0.929 . S
H34 C7 0.931 . S
H35 C8 0.930 . S
H36 C13 0.929 . S
H37 C14 0.929 . S
H38 C16 0.931 . S
H39 C17 0.930 . S
Pr40 C42 2.880 . S
Pr40 O60 2.562 . S
Pr40 O61 2.490 . S
Pr40 O62 2.695 . S
Pr40 O63 2.512 . S
Pr40 O65 2.437 . S
Pr40 O68 2.436 . S
Pr40 O70 2.438 . S
Pr41 C51 2.880 . S
Pr41 O62 2.436 . S
Pr41 O64 2.438 . S
Pr41 O66 2.562 . S
Pr41 O67 2.490 . S
Pr41 O68 2.695 . S
Pr41 O69 2.512 . S
Pr41 O71 2.437 . S
C42 Pr40 2.880 . S
C42 C43 1.491 . S
C42 O60 1.254 . S
C42 O61 1.225 . S
C43 C42 1.491 . S
C43 C44 1.392 . S
C43 C48 1.356 . S
C44 C43 1.392 . S
C44 C45 1.368 . S
C44 H72 0.929 . S
C45 C44 1.368 . S
C45 C46 1.386 . S
C45 H73 0.929 . S
C46 C45 1.386 . S
C46 C47 1.373 . S
C47 C46 1.373 . S
C47 C48 1.409 . S
C47 H74 0.931 . S
C48 C43 1.356 . S
C48 C47 1.409 . S
C48 H75 0.930 . S
C49 O62 1.270 . S
C49 O63 1.248 . S
C50 O64 1.267 . S
C50 O65 1.278 . S
C51 Pr41 2.880 . S
C51 C52 1.491 . S
C51 O66 1.254 . S
C51 O67 1.225 . S
C52 C51 1.491 . S
C52 C53 1.392 . S
C52 C57 1.356 . S
C53 C52 1.392 . S
C53 C54 1.368 . S
C53 H76 0.929 . S
C54 C53 1.368 . S
C54 C55 1.386 . S
C54 H77 0.929 . S
C55 C54 1.386 . S
C55 C56 1.373 . S
C56 C55 1.373 . S
C56 C57 1.409 . S
C56 H78 0.931 . S
C57 C52 1.356 . S
C57 C56 1.409 . S
C57 H79 0.930 . S
C58 O68 1.270 . S
C58 O69 1.248 . S
C59 O70 1.267 . S
C59 O71 1.278 . S
O60 Pr40 2.562 . S
O60 C42 1.254 . S
O61 Pr40 2.490 . S
O61 C42 1.225 . S
O62 Pr40 2.695 . S
O62 Pr41 2.436 . S
O62 C49 1.270 . S
O63 Pr40 2.512 . S
O63 C49 1.248 . S
O64 Pr41 2.438 . S
O64 C50 1.267 . S
O65 Pr40 2.437 . S
O65 C50 1.278 . S
O66 Pr41 2.562 . S
O66 C51 1.254 . S
O67 Pr41 2.490 . S
O67 C51 1.225 . S
O68 Pr40 2.436 . S
O68 Pr41 2.695 . S
O68 C58 1.270 . S
O69 Pr41 2.512 . S
O69 C58 1.248 . S
O70 Pr40 2.438 . S
O70 C59 1.267 . S
O71 Pr41 2.437 . S
O71 C59 1.278 . S
H72 C44 0.929 . S
H73 C45 0.929 . S
H74 C47 0.931 . S
H75 C48 0.930 . S
H76 C53 0.929 . S
H77 C54 0.929 . S
H78 C56 0.931 . S
H79 C57 0.930 . S
Pr80 C82 2.880 1_556 S
Pr80 O100 2.562 1_556 S
Pr80 O101 2.490 . S
Pr80 O102 2.695 . S
Pr80 O103 2.512 . S
Pr80 O105 2.437 . S
Pr80 O108 2.436 . S
Pr80 O110 2.438 . S
Pr81 C91 2.880 . S
Pr81 O102 2.436 . S
Pr81 O104 2.438 . S
Pr81 O106 2.562 . S
Pr81 O107 2.490 . S
Pr81 O108 2.695 . S
Pr81 O109 2.512 . S
Pr81 O111 2.437 . S
C82 Pr80 2.880 1_554 S
C82 C83 1.491 . S
C82 O100 1.254 . S
C82 O101 1.225 1_554 S
C83 C82 1.491 . S
C83 C84 1.392 . S
C83 C88 1.356 . S
C84 C83 1.392 . S
C84 C85 1.368 . S
C84 H112 0.929 . S
C85 C84 1.368 . S
C85 C86 1.386 . S
C85 H113 0.929 . S
C86 C85 1.386 . S
C86 C87 1.373 . S
C87 C86 1.373 . S
C87 C88 1.409 . S
C87 H114 0.931 . S
C88 C83 1.356 . S
C88 C87 1.409 . S
C88 H115 0.930 . S
C89 O102 1.270 . S
C89 O103 1.248 . S
C90 O104 1.267 . S
C90 O105 1.278 . S
C91 Pr81 2.880 . S
C91 C92 1.491 . S
C91 O106 1.254 . S
C91 O107 1.225 . S
C92 C91 1.491 . S
C92 C93 1.392 . S
C92 C97 1.356 . S
C93 C92 1.392 . S
C93 C94 1.368 . S
C93 H116 0.929 . S
C94 C93 1.368 . S
C94 C95 1.386 . S
C94 H117 0.929 . S
C95 C94 1.386 . S
C95 C96 1.373 . S
C96 C95 1.373 . S
C96 C97 1.409 . S
C96 H118 0.931 . S
C97 C92 1.356 . S
C97 C96 1.409 . S
C97 H119 0.930 . S
C98 O108 1.270 . S
C98 O109 1.248 . S
C99 O110 1.267 . S
C99 O111 1.278 . S
O100 Pr80 2.562 1_554 S
O100 C82 1.254 . S
O101 Pr80 2.490 . S
O101 C82 1.225 1_556 S
O102 Pr80 2.695 . S
O102 Pr81 2.436 . S
O102 C89 1.270 . S
O103 Pr80 2.512 . S
O103 C89 1.248 . S
O104 Pr81 2.438 . S
O104 C90 1.267 . S
O105 Pr80 2.437 . S
O105 C90 1.278 . S
O106 Pr81 2.562 . S
O106 C91 1.254 . S
O107 Pr81 2.490 . S
O107 C91 1.225 . S
O108 Pr80 2.436 . S
O108 Pr81 2.695 . S
O108 C98 1.270 . S
O109 Pr81 2.512 . S
O109 C98 1.248 . S
O110 Pr80 2.438 . S
O110 C99 1.267 . S
O111 Pr81 2.437 . S
O111 C99 1.278 . S
H112 C84 0.929 . S
H113 C85 0.929 . S
H114 C87 0.931 . S
H115 C88 0.930 . S
H116 C93 0.929 . S
H117 C94 0.929 . S
H118 C96 0.931 . S
H119 C97 0.930 . S
Pr120 C122 2.880 . S
Pr120 O140 2.562 . S
Pr120 O141 2.490 . S
Pr120 O142 2.695 . S
Pr120 O143 2.512 . S
Pr120 O145 2.437 . S
Pr120 O148 2.436 . S
Pr120 O150 2.438 . S
Pr121 C131 2.880 . S
Pr121 O142 2.436 . S
Pr121 O144 2.438 . S
Pr121 O146 2.562 . S
Pr121 O147 2.490 . S
Pr121 O148 2.695 . S
Pr121 O149 2.512 . S
Pr121 O151 2.437 . S
C122 Pr120 2.880 . S
C122 C123 1.491 . S
C122 O140 1.254 . S
C122 O141 1.225 . S
C123 C122 1.491 . S
C123 C124 1.392 . S
C123 C128 1.356 . S
C124 C123 1.392 . S
C124 C125 1.368 . S
C124 H152 0.929 . S
C125 C124 1.368 . S
C125 C126 1.386 . S
C125 H153 0.929 . S
C126 C125 1.386 . S
C126 C127 1.373 . S
C127 C126 1.373 . S
C127 C128 1.409 . S
C127 H154 0.931 . S
C128 C123 1.356 . S
C128 C127 1.409 . S
C128 H155 0.930 . S
C129 O142 1.270 . S
C129 O143 1.248 . S
C130 O144 1.267 . S
C130 O145 1.278 . S
C131 Pr121 2.880 . S
C131 C132 1.491 . S
C131 O146 1.254 . S
C131 O147 1.225 . S
C132 C131 1.491 . S
C132 C133 1.392 . S
C132 C137 1.356 . S
C133 C132 1.392 . S
C133 C134 1.368 . S
C133 H156 0.929 . S
C134 C133 1.368 . S
C134 C135 1.386 . S
C134 H157 0.929 . S
C135 C134 1.386 . S
C135 C136 1.373 . S
C136 C135 1.373 . S
C136 C137 1.409 . S
C136 H158 0.931 . S
C137 C132 1.356 . S
C137 C136 1.409 . S
C137 H159 0.930 . S
C138 O148 1.270 . S
C138 O149 1.248 . S
C139 O150 1.267 . S
C139 O151 1.278 . S
O140 Pr120 2.562 . S
O140 C122 1.254 . S
O141 Pr120 2.490 . S
O141 C122 1.225 . S
O142 Pr120 2.695 . S
O142 Pr121 2.436 . S
O142 C129 1.270 . S
O143 Pr120 2.512 . S
O143 C129 1.248 . S
O144 Pr121 2.438 . S
O144 C130 1.267 . S
O145 Pr120 2.437 . S
O145 C130 1.278 . S
O146 Pr121 2.562 . S
O146 C131 1.254 . S
O147 Pr121 2.490 . S
O147 C131 1.225 . S
O148 Pr120 2.436 . S
O148 Pr121 2.695 . S
O148 C138 1.270 . S
O149 Pr121 2.512 . S
O149 C138 1.248 . S
O150 Pr120 2.438 . S
O150 C139 1.267 . S
O151 Pr121 2.437 . S
O151 C139 1.278 . S
H152 C124 0.929 . S
H153 C125 0.929 . S
H154 C127 0.931 . S
H155 C128 0.930 . S
H156 C133 0.929 . S
H157 C134 0.929 . S
H158 C136 0.931 . S
H159 C137 0.930 . S
Pr160 C162 2.880 . S
Pr160 O180 2.562 . S
Pr160 O181 2.490 . S
Pr160 O182 2.695 . S
Pr160 O183 2.512 . S
Pr160 O185 2.437 . S
Pr160 O188 2.436 . S
Pr160 O190 2.438 . S
Pr161 C171 2.880 . S
Pr161 O182 2.436 . S
Pr161 O184 2.438 . S
Pr161 O186 2.562 . S
Pr161 O187 2.490 . S
Pr161 O188 2.695 . S
Pr161 O189 2.512 . S
Pr161 O191 2.437 . S
C162 Pr160 2.880 . S
C162 C163 1.491 . S
C162 O180 1.254 . S
C162 O181 1.225 . S
C163 C162 1.491 . S
C163 C164 1.392 . S
C163 C168 1.356 . S
C164 C163 1.392 . S
C164 C165 1.368 . S
C164 H192 0.929 . S
C165 C164 1.368 . S
C165 C166 1.386 . S
C165 H193 0.929 . S
C166 C165 1.386 . S
C166 C167 1.373 . S
C167 C166 1.373 . S
C167 C168 1.409 . S
C167 H194 0.931 . S
C168 C163 1.356 . S
C168 C167 1.409 . S
C168 H195 0.930 . S
C169 O182 1.270 . S
C169 O183 1.248 . S
C170 O184 1.267 . S
C170 O185 1.278 . S
C171 Pr161 2.880 . S
C171 C172 1.491 . S
C171 O186 1.254 . S
C171 O187 1.225 . S
C172 C171 1.491 . S
C172 C173 1.392 . S
C172 C177 1.356 . S
C173 C172 1.392 . S
C173 C174 1.368 . S
C173 H196 0.929 . S
C174 C173 1.368 . S
C174 C175 1.386 . S
C174 H197 0.929 . S
C175 C174 1.386 . S
C175 C176 1.373 . S
C176 C175 1.373 . S
C176 C177 1.409 . S
C176 H198 0.931 . S
C177 C172 1.356 . S
C177 C176 1.409 . S
C177 H199 0.930 . S
C178 O188 1.270 . S
C178 O189 1.248 . S
C179 O190 1.267 . S
C179 O191 1.278 . S
O180 Pr160 2.562 . S
O180 C162 1.254 . S
O181 Pr160 2.490 . S
O181 C162 1.225 . S
O182 Pr160 2.695 . S
O182 Pr161 2.436 . S
O182 C169 1.270 . S
O183 Pr160 2.512 . S
O183 C169 1.248 . S
O184 Pr161 2.438 . S
O184 C170 1.267 . S
O185 Pr160 2.437 . S
O185 C170 1.278 . S
O186 Pr161 2.562 . S
O186 C171 1.254 . S
O187 Pr161 2.490 . S
O187 C171 1.225 . S
O188 Pr160 2.436 . S
O188 Pr161 2.695 . S
O188 C178 1.270 . S
O189 Pr161 2.512 . S
O189 C178 1.248 . S
O190 Pr160 2.438 . S
O190 C179 1.267 . S
O191 Pr161 2.437 . S
O191 C179 1.278 . S
H192 C164 0.929 . S
H193 C165 0.929 . S
H194 C167 0.931 . S
H195 C168 0.930 . S
H196 C173 0.929 . S
H197 C174 0.929 . S
H198 C176 0.931 . S
H199 C177 0.930 . S
Pr200 C202 2.880 1_556 S
Pr200 O220 2.562 1_556 S
Pr200 O221 2.490 . S
Pr200 O222 2.695 . S
Pr200 O223 2.512 . S
Pr200 O225 2.437 . S
Pr200 O228 2.436 . S
Pr200 O230 2.438 . S
Pr201 C211 2.880 . S
Pr201 O222 2.436 . S
Pr201 O224 2.438 . S
Pr201 O226 2.562 . S
Pr201 O227 2.490 . S
Pr201 O228 2.695 . S
Pr201 O229 2.512 . S
Pr201 O231 2.437 . S
C202 Pr200 2.880 1_554 S
C202 C203 1.491 . S
C202 O220 1.254 . S
C202 O221 1.225 1_554 S
C203 C202 1.491 . S
C203 C204 1.392 . S
C203 C208 1.356 . S
C204 C203 1.392 . S
C204 C205 1.368 . S
C204 H232 0.929 . S
C205 C204 1.368 . S
C205 C206 1.386 . S
C205 H233 0.929 . S
C206 C205 1.386 . S
C206 C207 1.373 . S
C207 C206 1.373 . S
C207 C208 1.409 . S
C207 H234 0.931 . S
C208 C203 1.356 . S
C208 C207 1.409 . S
C208 H235 0.930 . S
C209 O222 1.270 . S
C209 O223 1.248 . S
C210 O224 1.267 . S
C210 O225 1.278 . S
C211 Pr201 2.880 . S
C211 C212 1.491 . S
C211 O226 1.254 . S
C211 O227 1.225 . S
C212 C211 1.491 . S
C212 C213 1.392 . S
C212 C217 1.356 . S
C213 C212 1.392 . S
C213 C214 1.368 . S
C213 H236 0.929 . S
C214 C213 1.368 . S
C214 C215 1.386 . S
C214 H237 0.929 . S
C215 C214 1.386 . S
C215 C216 1.373 . S
C216 C215 1.373 . S
C216 C217 1.409 . S
C216 H238 0.931 . S
C217 C212 1.356 . S
C217 C216 1.409 . S
C217 H239 0.930 . S
C218 O228 1.270 . S
C218 O229 1.248 . S
C219 O230 1.267 . S
C219 O231 1.278 . S
O220 Pr200 2.562 1_554 S
O220 C202 1.254 . S
O221 Pr200 2.490 . S
O221 C202 1.225 1_556 S
O222 Pr200 2.695 . S
O222 Pr201 2.436 . S
O222 C209 1.270 . S
O223 Pr200 2.512 . S
O223 C209 1.248 . S
O224 Pr201 2.438 . S
O224 C210 1.267 . S
O225 Pr200 2.437 . S
O225 C210 1.278 . S
O226 Pr201 2.562 . S
O226 C211 1.254 . S
O227 Pr201 2.490 . S
O227 C211 1.225 . S
O228 Pr200 2.436 . S
O228 Pr201 2.695 . S
O228 C218 1.270 . S
O229 Pr201 2.512 . S
O229 C218 1.248 . S
O230 Pr200 2.438 . S
O230 C219 1.267 . S
O231 Pr201 2.437 . S
O231 C219 1.278 . S
H232 C204 0.929 . S
H233 C205 0.929 . S
H234 C207 0.931 . S
H235 C208 0.930 . S
H236 C213 0.929 . S
H237 C214 0.929 . S
H238 C216 0.931 . S
H239 C217 0.930 . S
Pr240 C242 2.880 . S
Pr240 O260 2.562 . S
Pr240 O261 2.490 . S
Pr240 O262 2.695 . S
Pr240 O263 2.512 . S
Pr240 O265 2.437 . S
Pr240 O268 2.436 . S
Pr240 O270 2.438 . S
Pr241 C251 2.880 . S
Pr241 O262 2.436 . S
Pr241 O264 2.438 . S
Pr241 O266 2.562 . S
Pr241 O267 2.490 . S
Pr241 O268 2.695 . S
Pr241 O269 2.512 . S
Pr241 O271 2.437 . S
C242 Pr240 2.880 . S
C242 C243 1.491 . S
C242 O260 1.254 . S
C242 O261 1.225 . S
C243 C242 1.491 . S
C243 C244 1.392 . S
C243 C248 1.356 . S
C244 C243 1.392 . S
C244 C245 1.368 . S
C244 H272 0.929 . S
C245 C244 1.368 . S
C245 C246 1.386 . S
C245 H273 0.929 . S
C246 C245 1.386 . S
C246 C247 1.373 . S
C247 C246 1.373 . S
C247 C248 1.409 . S
C247 H274 0.931 . S
C248 C243 1.356 . S
C248 C247 1.409 . S
C248 H275 0.930 . S
C249 O262 1.270 . S
C249 O263 1.248 . S
C250 O264 1.267 . S
C250 O265 1.278 . S
C251 Pr241 2.880 . S
C251 C252 1.491 . S
C251 O266 1.254 . S
C251 O267 1.225 . S
C252 C251 1.491 . S
C252 C253 1.392 . S
C252 C257 1.356 . S
C253 C252 1.392 . S
C253 C254 1.368 . S
C253 H276 0.929 . S
C254 C253 1.368 . S
C254 C255 1.386 . S
C254 H277 0.929 . S
C255 C254 1.386 . S
C255 C256 1.373 . S
C256 C255 1.373 . S
C256 C257 1.409 . S
C256 H278 0.931 . S
C257 C252 1.356 . S
C257 C256 1.409 . S
C257 H279 0.930 . S
C258 O268 1.270 . S
C258 O269 1.248 . S
C259 O270 1.267 . S
C259 O271 1.278 . S
O260 Pr240 2.562 . S
O260 C242 1.254 . S
O261 Pr240 2.490 . S
O261 C242 1.225 . S
O262 Pr240 2.695 . S
O262 Pr241 2.436 . S
O262 C249 1.270 . S
O263 Pr240 2.512 . S
O263 C249 1.248 . S
O264 Pr241 2.438 . S
O264 C250 1.267 . S
O265 Pr240 2.437 . S
O265 C250 1.278 . S
O266 Pr241 2.562 . S
O266 C251 1.254 . S
O267 Pr241 2.490 . S
O267 C251 1.225 . S
O268 Pr240 2.436 . S
O268 Pr241 2.695 . S
O268 C258 1.270 . S
O269 Pr241 2.512 . S
O269 C258 1.248 . S
O270 Pr240 2.438 . S
O270 C259 1.267 . S
O271 Pr241 2.437 . S
O271 C259 1.278 . S
H272 C244 0.929 . S
H273 C245 0.929 . S
H274 C247 0.931 . S
H275 C248 0.930 . S
H276 C253 0.929 . S
H277 C254 0.929 . S
H278 C256 0.931 . S
H279 C257 0.930 . S
Pr280 C282 2.880 . S
Pr280 O300 2.562 . S
Pr280 O301 2.490 . S
Pr280 O302 2.695 . S
Pr280 O303 2.512 . S
Pr280 O305 2.437 . S
Pr280 O308 2.436 . S
Pr280 O310 2.438 . S
Pr281 C291 2.880 . S
Pr281 O302 2.436 . S
Pr281 O304 2.438 . S
Pr281 O306 2.562 . S
Pr281 O307 2.490 . S
Pr281 O308 2.695 . S
Pr281 O309 2.512 . S
Pr281 O311 2.437 . S
C282 Pr280 2.880 . S
C282 C283 1.491 . S
C282 O300 1.254 . S
C282 O301 1.225 . S
C283 C282 1.491 . S
C283 C284 1.392 . S
C283 C288 1.356 . S
C284 C283 1.392 . S
C284 C285 1.368 . S
C284 H312 0.929 . S
C285 C284 1.368 . S
C285 C286 1.386 . S
C285 H313 0.929 . S
C286 C285 1.386 . S
C286 C287 1.373 . S
C287 C286 1.373 . S
C287 C288 1.409 . S
C287 H314 0.931 . S
C288 C283 1.356 . S
C288 C287 1.409 . S
C288 H315 0.930 . S
C289 O302 1.270 . S
C289 O303 1.248 . S
C290 O304 1.267 . S
C290 O305 1.278 . S
C291 Pr281 2.880 . S
C291 C292 1.491 . S
C291 O306 1.254 . S
C291 O307 1.225 . S
C292 C291 1.491 . S
C292 C293 1.392 . S
C292 C297 1.356 . S
C293 C292 1.392 . S
C293 C294 1.368 . S
C293 H316 0.929 . S
C294 C293 1.368 . S
C294 C295 1.386 . S
C294 H317 0.929 . S
C295 C294 1.386 . S
C295 C296 1.373 . S
C296 C295 1.373 . S
C296 C297 1.409 . S
C296 H318 0.931 . S
C297 C292 1.356 . S
C297 C296 1.409 . S
C297 H319 0.930 . S
C298 O308 1.270 . S
C298 O309 1.248 . S
C299 O310 1.267 . S
C299 O311 1.278 . S
O300 Pr280 2.562 . S
O300 C282 1.254 . S
O301 Pr280 2.490 . S
O301 C282 1.225 . S
O302 Pr280 2.695 . S
O302 Pr281 2.436 . S
O302 C289 1.270 . S
O303 Pr280 2.512 . S
O303 C289 1.248 . S
O304 Pr281 2.438 . S
O304 C290 1.267 . S
O305 Pr280 2.437 . S
O305 C290 1.278 . S
O306 Pr281 2.562 . S
O306 C291 1.254 . S
O307 Pr281 2.490 . S
O307 C291 1.225 . S
O308 Pr280 2.436 . S
O308 Pr281 2.695 . S
O308 C298 1.270 . S
O309 Pr281 2.512 . S
O309 C298 1.248 . S
O310 Pr280 2.438 . S
O310 C299 1.267 . S
O311 Pr281 2.437 . S
O311 C299 1.278 . S
H312 C284 0.929 . S
H313 C285 0.929 . S
H314 C287 0.931 . S
H315 C288 0.930 . S
H316 C293 0.929 . S
H317 C294 0.929 . S
H318 C296 0.931 . S
H319 C297 0.930 . S
Pr320 C322 2.880 1_554 S
Pr320 O340 2.562 1_554 S
Pr320 O341 2.490 . S
Pr320 O342 2.695 . S
Pr320 O343 2.512 . S
Pr320 O345 2.437 . S
Pr320 O348 2.436 . S
Pr320 O350 2.438 . S
Pr321 C331 2.880 . S
Pr321 O342 2.436 . S
Pr321 O344 2.438 . S
Pr321 O346 2.562 . S
Pr321 O347 2.490 . S
Pr321 O348 2.695 . S
Pr321 O349 2.512 . S
Pr321 O351 2.437 . S
C322 Pr320 2.880 1_556 S
C322 C323 1.491 . S
C322 O340 1.254 . S
C322 O341 1.225 1_556 S
C323 C322 1.491 . S
C323 C324 1.392 . S
C323 C328 1.356 . S
C324 C323 1.392 . S
C324 C325 1.368 . S
C324 H352 0.929 . S
C325 C324 1.368 . S
C325 C326 1.386 . S
C325 H353 0.929 . S
C326 C325 1.386 . S
C326 C327 1.373 . S
C327 C326 1.373 . S
C327 C328 1.409 . S
C327 H354 0.931 . S
C328 C323 1.356 . S
C328 C327 1.409 . S
C328 H355 0.930 . S
C329 O342 1.270 . S
C329 O343 1.248 . S
C330 O344 1.267 . S
C330 O345 1.278 . S
C331 Pr321 2.880 . S
C331 C332 1.491 . S
C331 O346 1.254 . S
C331 O347 1.225 . S
C332 C331 1.491 . S
C332 C333 1.392 . S
C332 C337 1.356 . S
C333 C332 1.392 . S
C333 C334 1.368 . S
C333 H356 0.929 . S
C334 C333 1.368 . S
C334 C335 1.386 . S
C334 H357 0.929 . S
C335 C334 1.386 . S
C335 C336 1.373 . S
C336 C335 1.373 . S
C336 C337 1.409 . S
C336 H358 0.931 . S
C337 C332 1.356 . S
C337 C336 1.409 . S
C337 H359 0.930 . S
C338 O348 1.270 . S
C338 O349 1.248 . S
C339 O350 1.267 . S
C339 O351 1.278 . S
O340 Pr320 2.562 1_556 S
O340 C322 1.254 . S
O341 Pr320 2.490 . S
O341 C322 1.225 1_554 S
O342 Pr320 2.695 . S
O342 Pr321 2.436 . S
O342 C329 1.270 . S
O343 Pr320 2.512 . S
O343 C329 1.248 . S
O344 Pr321 2.438 . S
O344 C330 1.267 . S
O345 Pr320 2.437 . S
O345 C330 1.278 . S
O346 Pr321 2.562 . S
O346 C331 1.254 . S
O347 Pr321 2.490 . S
O347 C331 1.225 . S
O348 Pr320 2.436 . S
O348 Pr321 2.695 . S
O348 C338 1.270 . S
O349 Pr321 2.512 . S
O349 C338 1.248 . S
O350 Pr320 2.438 . S
O350 C339 1.267 . S
O351 Pr321 2.437 . S
O351 C339 1.278 . S
H352 C324 0.929 . S
H353 C325 0.929 . S
H354 C327 0.931 . S
H355 C328 0.930 . S
H356 C333 0.929 . S
H357 C334 0.929 . S
H358 C336 0.931 . S
H359 C337 0.930 . S
Pr360 C362 2.880 . S
Pr360 O380 2.562 . S
Pr360 O381 2.490 . S
Pr360 O382 2.695 . S
Pr360 O383 2.512 . S
Pr360 O385 2.437 . S
Pr360 O388 2.436 . S
Pr360 O390 2.438 . S
Pr361 C371 2.880 . S
Pr361 O382 2.436 . S
Pr361 O384 2.438 . S
Pr361 O386 2.562 . S
Pr361 O387 2.490 . S
Pr361 O388 2.695 . S
Pr361 O389 2.512 . S
Pr361 O391 2.437 . S
C362 Pr360 2.880 . S
C362 C363 1.491 . S
C362 O380 1.254 . S
C362 O381 1.225 . S
C363 C362 1.491 . S
C363 C364 1.392 . S
C363 C368 1.356 . S
C364 C363 1.392 . S
C364 C365 1.368 . S
C364 H392 0.929 . S
C365 C364 1.368 . S
C365 C366 1.386 . S
C365 H393 0.929 . S
C366 C365 1.386 . S
C366 C367 1.373 . S
C367 C366 1.373 . S
C367 C368 1.409 . S
C367 H394 0.931 . S
C368 C363 1.356 . S
C368 C367 1.409 . S
C368 H395 0.930 . S
C369 O382 1.270 . S
C369 O383 1.248 . S
C370 O384 1.267 . S
C370 O385 1.278 . S
C371 Pr361 2.880 . S
C371 C372 1.491 . S
C371 O386 1.254 . S
C371 O387 1.225 . S
C372 C371 1.491 . S
C372 C373 1.392 . S
C372 C377 1.356 . S
C373 C372 1.392 . S
C373 C374 1.368 . S
C373 H396 0.929 . S
C374 C373 1.368 . S
C374 C375 1.386 . S
C374 H397 0.929 . S
C375 C374 1.386 . S
C375 C376 1.373 . S
C376 C375 1.373 . S
C376 C377 1.409 . S
C376 H398 0.931 . S
C377 C372 1.356 . S
C377 C376 1.409 . S
C377 H399 0.930 . S
C378 O388 1.270 . S
C378 O389 1.248 . S
C379 O390 1.267 . S
C379 O391 1.278 . S
O380 Pr360 2.562 . S
O380 C362 1.254 . S
O381 Pr360 2.490 . S
O381 C362 1.225 . S
O382 Pr360 2.695 . S
O382 Pr361 2.436 . S
O382 C369 1.270 . S
O383 Pr360 2.512 . S
O383 C369 1.248 . S
O384 Pr361 2.438 . S
O384 C370 1.267 . S
O385 Pr360 2.437 . S
O385 C370 1.278 . S
O386 Pr361 2.562 . S
O386 C371 1.254 . S
O387 Pr361 2.490 . S
O387 C371 1.225 . S
O388 Pr360 2.436 . S
O388 Pr361 2.695 . S
O388 C378 1.270 . S
O389 Pr361 2.512 . S
O389 C378 1.248 . S
O390 Pr360 2.438 . S
O390 C379 1.267 . S
O391 Pr361 2.437 . S
O391 C379 1.278 . S
H392 C364 0.929 . S
H393 C365 0.929 . S
H394 C367 0.931 . S
H395 C368 0.930 . S
H396 C373 0.929 . S
H397 C374 0.929 . S
H398 C376 0.931 . S
H399 C377 0.930 . S
Pr400 C402 2.880 . S
Pr400 O420 2.562 . S
Pr400 O421 2.490 . S
Pr400 O422 2.695 . S
Pr400 O423 2.512 . S
Pr400 O425 2.437 . S
Pr400 O428 2.436 . S
Pr400 O430 2.438 . S
Pr401 C411 2.880 . S
Pr401 O422 2.436 . S
Pr401 O424 2.438 . S
Pr401 O426 2.562 . S
Pr401 O427 2.490 . S
Pr401 O428 2.695 . S
Pr401 O429 2.512 . S
Pr401 O431 2.437 . S
C402 Pr400 2.880 . S
C402 C403 1.491 . S
C402 O420 1.254 . S
C402 O421 1.225 . S
C403 C402 1.491 . S
C403 C404 1.392 . S
C403 C408 1.356 . S
C404 C403 1.392 . S
C404 C405 1.368 . S
C404 H432 0.929 . S
C405 C404 1.368 . S
C405 C406 1.386 . S
C405 H433 0.929 . S
C406 C405 1.386 . S
C406 C407 1.373 . S
C407 C406 1.373 . S
C407 C408 1.409 . S
C407 H434 0.931 . S
C408 C403 1.356 . S
C408 C407 1.409 . S
C408 H435 0.930 . S
C409 O422 1.270 . S
C409 O423 1.248 . S
C410 O424 1.267 . S
C410 O425 1.278 . S
C411 Pr401 2.880 . S
C411 C412 1.491 . S
C411 O426 1.254 . S
C411 O427 1.225 . S
C412 C411 1.491 . S
C412 C413 1.392 . S
C412 C417 1.356 . S
C413 C412 1.392 . S
C413 C414 1.368 . S
C413 H436 0.929 . S
C414 C413 1.368 . S
C414 C415 1.386 . S
C414 H437 0.929 . S
C415 C414 1.386 . S
C415 C416 1.373 . S
C416 C415 1.373 . S
C416 C417 1.409 . S
C416 H438 0.931 . S
C417 C412 1.356 . S
C417 C416 1.409 . S
C417 H439 0.930 . S
C418 O428 1.270 . S
C418 O429 1.248 . S
C419 O430 1.267 . S
C419 O431 1.278 . S
O420 Pr400 2.562 . S
O420 C402 1.254 . S
O421 Pr400 2.490 . S
O421 C402 1.225 . S
O422 Pr400 2.695 . S
O422 Pr401 2.436 . S
O422 C409 1.270 . S
O423 Pr400 2.512 . S
O423 C409 1.248 . S
O424 Pr401 2.438 . S
O424 C410 1.267 . S
O425 Pr400 2.437 . S
O425 C410 1.278 . S
O426 Pr401 2.562 . S
O426 C411 1.254 . S
O427 Pr401 2.490 . S
O427 C411 1.225 . S
O428 Pr400 2.436 . S
O428 Pr401 2.695 . S
O428 C418 1.270 . S
O429 Pr401 2.512 . S
O429 C418 1.248 . S
O430 Pr400 2.438 . S
O430 C419 1.267 . S
O431 Pr401 2.437 . S
O431 C419 1.278 . S
H432 C404 0.929 . S
H433 C405 0.929 . S
H434 C407 0.931 . S
H435 C408 0.930 . S
H436 C413 0.929 . S
H437 C414 0.929 . S
H438 C416 0.931 . S
H439 C417 0.930 . S
Pr440 C442 2.880 1_554 S
Pr440 O460 2.562 1_554 S
Pr440 O461 2.490 . S
Pr440 O462 2.695 . S
Pr440 O463 2.512 . S
Pr440 O465 2.437 . S
Pr440 O468 2.436 . S
Pr440 O470 2.438 . S
Pr441 C451 2.880 . S
Pr441 O462 2.436 . S
Pr441 O464 2.438 . S
Pr441 O466 2.562 . S
Pr441 O467 2.490 . S
Pr441 O468 2.695 . S
Pr441 O469 2.512 . S
Pr441 O471 2.437 . S
C442 Pr440 2.880 1_556 S
C442 C443 1.491 . S
C442 O460 1.254 . S
C442 O461 1.225 1_556 S
C443 C442 1.491 . S
C443 C444 1.392 . S
C443 C448 1.356 . S
C444 C443 1.392 . S
C444 C445 1.368 . S
C444 H472 0.929 . S
C445 C444 1.368 . S
C445 C446 1.386 . S
C445 H473 0.929 . S
C446 C445 1.386 . S
C446 C447 1.373 . S
C447 C446 1.373 . S
C447 C448 1.409 . S
C447 H474 0.931 . S
C448 C443 1.356 . S
C448 C447 1.409 . S
C448 H475 0.930 . S
C449 O462 1.270 . S
C449 O463 1.248 . S
C450 O464 1.267 . S
C450 O465 1.278 . S
C451 Pr441 2.880 . S
C451 C452 1.491 . S
C451 O466 1.254 . S
C451 O467 1.225 . S
C452 C451 1.491 . S
C452 C453 1.392 . S
C452 C457 1.356 . S
C453 C452 1.392 . S
C453 C454 1.368 . S
C453 H476 0.929 . S
C454 C453 1.368 . S
C454 C455 1.386 . S
C454 H477 0.929 . S
C455 C454 1.386 . S
C455 C456 1.373 . S
C456 C455 1.373 . S
C456 C457 1.409 . S
C456 H478 0.931 . S
C457 C452 1.356 . S
C457 C456 1.409 . S
C457 H479 0.930 . S
C458 O468 1.270 . S
C458 O469 1.248 . S
C459 O470 1.267 . S
C459 O471 1.278 . S
O460 Pr440 2.562 1_556 S
O460 C442 1.254 . S
O461 Pr440 2.490 . S
O461 C442 1.225 1_554 S
O462 Pr440 2.695 . S
O462 Pr441 2.436 . S
O462 C449 1.270 . S
O463 Pr440 2.512 . S
O463 C449 1.248 . S
O464 Pr441 2.438 . S
O464 C450 1.267 . S
O465 Pr440 2.437 . S
O465 C450 1.278 . S
O466 Pr441 2.562 . S
O466 C451 1.254 . S
O467 Pr441 2.490 . S
O467 C451 1.225 . S
O468 Pr440 2.436 . S
O468 Pr441 2.695 . S
O468 C458 1.270 . S
O469 Pr441 2.512 . S
O469 C458 1.248 . S
O470 Pr440 2.438 . S
O470 C459 1.267 . S
O471 Pr441 2.437 . S
O471 C459 1.278 . S
H472 C444 0.929 . S
H473 C445 0.929 . S
H474 C447 0.931 . S
H475 C448 0.930 . S
H476 C453 0.929 . S
H477 C454 0.929 . S
H478 C456 0.931 . S
H479 C457 0.930 . S
H480 C486 0.930 . S
H481 C489 0.930 . S
H482 C490 0.930 . S
H483 C491 0.930 . S
H484 C494 0.930 . S
H485 C495 0.930 . S
C486 H480 0.930 . S
C486 C487 1.355 . S
C486 C488 1.415 . S
C487 C486 1.355 . S
C487 C489 1.419 . S
C488 C486 1.415 . S
C488 C493 1.425 . S
C488 C495 1.409 . S
C489 H481 0.930 . S
C489 C487 1.419 . S
C489 C490 1.362 . S
C490 H482 0.930 . S
C490 C489 1.362 . S
C490 C493 1.409 . S
C491 H483 0.930 . S
C491 C492 1.355 . S
C491 C493 1.415 . S
C492 C491 1.355 . S
C492 C494 1.419 . S
C493 C488 1.425 . S
C493 C490 1.409 . S
C493 C491 1.415 . S
C494 H484 0.930 . S
C494 C492 1.419 . S
C494 C495 1.362 . S
C495 H485 0.930 . S
C495 C488 1.409 . S
C495 C494 1.362 . S
H496 C502 0.930 . S
H497 C505 0.930 . S
H498 C506 0.930 . S
H499 C507 0.930 . S
H500 C510 0.930 . S
H501 C511 0.930 . S
C502 H496 0.930 . S
C502 C503 1.355 . S
C502 C504 1.415 . S
C503 C502 1.355 . S
C503 C505 1.419 . S
C504 C502 1.415 . S
C504 C509 1.425 . S
C504 C511 1.409 . S
C505 H497 0.930 . S
C505 C503 1.419 . S
C505 C506 1.362 . S
C506 H498 0.930 . S
C506 C505 1.362 . S
C506 C509 1.409 . S
C507 H499 0.930 . S
C507 C508 1.355 . S
C507 C509 1.415 . S
C508 C507 1.355 . S
C508 C510 1.419 . S
C509 C504 1.425 . S
C509 C506 1.409 . S
C509 C507 1.415 . S
C510 H500 0.930 . S
C510 C508 1.419 . S
C510 C511 1.362 . S
C511 H501 0.930 . S
C511 C504 1.409 . S
C511 C510 1.362 . S
H512 C518 0.930 . S
H513 C521 0.930 . S
H514 C522 0.930 . S
H515 C523 0.930 . S
H516 C526 0.930 . S
H517 C527 0.930 . S
C518 H512 0.930 . S
C518 C519 1.355 . S
C518 C520 1.415 . S
C519 C518 1.355 . S
C519 C521 1.419 . S
C520 C518 1.415 . S
C520 C525 1.425 . S
C520 C527 1.409 . S
C521 H513 0.930 . S
C521 C519 1.419 . S
C521 C522 1.362 . S
C522 H514 0.930 . S
C522 C521 1.362 . S
C522 C525 1.409 . S
C523 H515 0.930 . S
C523 C524 1.355 . S
C523 C525 1.415 . S
C524 C523 1.355 . S
C524 C526 1.419 . S
C525 C520 1.425 . S
C525 C522 1.409 . S
C525 C523 1.415 . S
C526 H516 0.930 . S
C526 C524 1.419 . S
C526 C527 1.362 . S
C527 H517 0.930 . S
C527 C520 1.409 . S
C527 C526 1.362 . S
H528 C534 0.930 . S
H529 C537 0.930 . S
H530 C538 0.930 . S
H531 C539 0.930 . S
H532 C542 0.930 . S
H533 C543 0.930 . S
C534 H528 0.930 . S
C534 C535 1.355 . S
C534 C536 1.415 . S
C535 C534 1.355 . S
C535 C537 1.419 . S
C536 C534 1.415 . S
C536 C541 1.425 . S
C536 C543 1.409 . S
C537 H529 0.930 . S
C537 C535 1.419 . S
C537 C538 1.362 . S
C538 H530 0.930 . S
C538 C537 1.362 . S
C538 C541 1.409 . S
C539 H531 0.930 . S
C539 C540 1.355 . S
C539 C541 1.415 . S
C540 C539 1.355 . S
C540 C542 1.419 . S
C541 C536 1.425 . S
C541 C538 1.409 . S
C541 C539 1.415 . S
C542 H532 0.930 . S
C542 C540 1.419 . S
C542 C543 1.362 . S
C543 H533 0.930 . S
C543 C536 1.409 . S
C543 C542 1.362 . S
H544 C550 0.930 . S
H545 C553 0.930 . S
H546 C554 0.930 . S
H547 C555 0.930 . S
H548 C558 0.930 . S
H549 C559 0.930 . S
C550 H544 0.930 . S
C550 C551 1.355 . S
C550 C552 1.415 . S
C551 C550 1.355 . S
C551 C553 1.419 . S
C552 C550 1.415 . S
C552 C557 1.425 . S
C552 C559 1.409 . S
C553 H545 0.930 . S
C553 C551 1.419 . S
C553 C554 1.362 . S
C554 H546 0.930 . S
C554 C553 1.362 . S
C554 C557 1.409 . S
C555 H547 0.930 . S
C555 C556 1.355 . S
C555 C557 1.415 . S
C556 C555 1.355 . S
C556 C558 1.419 . S
C557 C552 1.425 . S
C557 C554 1.409 . S
C557 C555 1.415 . S
C558 H548 0.930 . S
C558 C556 1.419 . S
C558 C559 1.362 . S
C559 H549 0.930 . S
C559 C552 1.409 . S
C559 C558 1.362 . S
H560 C566 0.930 . S
H561 C569 0.930 . S
H562 C570 0.930 . S
H563 C571 0.930 . S
H564 C574 0.930 . S
H565 C575 0.930 . S
C566 H560 0.930 . S
C566 C567 1.355 . S
C566 C568 1.415 . S
C567 C566 1.355 . S
C567 C569 1.419 . S
C568 C566 1.415 . S
C568 C573 1.425 . S
C568 C575 1.409 . S
C569 H561 0.930 . S
C569 C567 1.419 . S
C569 C570 1.362 . S
C570 H562 0.930 . S
C570 C569 1.362 . S
C570 C573 1.409 . S
C571 H563 0.930 . S
C571 C572 1.355 . S
C571 C573 1.415 . S
C572 C571 1.355 . S
C572 C574 1.419 . S
C573 C568 1.425 . S
C573 C570 1.409 . S
C573 C571 1.415 . S
C574 H564 0.930 . S
C574 C572 1.419 . S
C574 C575 1.362 . S
C575 H565 0.930 . S
C575 C568 1.409 . S
C575 C574 1.362 . S
H576 C582 0.930 . S
H577 C585 0.930 . S
H578 C586 0.930 . S
H579 C587 0.930 . S
H580 C590 0.930 . S
H581 C591 0.930 . S
C582 H576 0.930 . S
C582 C583 1.355 1_554 S
C582 C584 1.415 . S
C583 C582 1.355 1_556 S
C583 C585 1.419 . S
C584 C582 1.415 . S
C584 C589 1.425 1_554 S
C584 C591 1.409 . S
C585 H577 0.930 . S
C585 C583 1.419 . S
C585 C586 1.362 . S
C586 H578 0.930 . S
C586 C585 1.362 . S
C586 C589 1.409 . S
C587 H579 0.930 . S
C587 C588 1.355 1_556 S
C587 C589 1.415 . S
C588 C587 1.355 1_554 S
C588 C590 1.419 . S
C589 C584 1.425 1_556 S
C589 C586 1.409 . S
C589 C587 1.415 . S
C590 H580 0.930 . S
C590 C588 1.419 . S
C590 C591 1.362 . S
C591 H581 0.930 . S
C591 C584 1.409 . S
C591 C590 1.362 . S
H592 C598 0.930 . S
H593 C601 0.930 . S
H594 C602 0.930 . S
H595 C603 0.930 . S
H596 C606 0.930 . S
H597 C607 0.930 . S
C598 H592 0.930 . S
C598 C599 1.355 . S
C598 C600 1.415 . S
C599 C598 1.355 . S
C599 C601 1.419 . S
C600 C598 1.415 . S
C600 C605 1.425 . S
C600 C607 1.409 . S
C601 H593 0.930 . S
C601 C599 1.419 . S
C601 C602 1.362 . S
C602 H594 0.930 . S
C602 C601 1.362 . S
C602 C605 1.409 . S
C603 H595 0.930 . S
C603 C604 1.355 . S
C603 C605 1.415 . S
C604 C603 1.355 . S
C604 C606 1.419 . S
C605 C600 1.425 . S
C605 C602 1.409 . S
C605 C603 1.415 . S
C606 H596 0.930 . S
C606 C604 1.419 . S
C606 C607 1.362 . S
C607 H597 0.930 . S
C607 C600 1.409 . S
C607 C606 1.362 . S
H608 C614 0.930 . S
H609 C617 0.930 . S
H610 C618 0.930 . S
H611 C619 0.930 . S
H612 C622 0.930 . S
H613 C623 0.930 . S
C614 H608 0.930 . S
C614 C615 1.355 . S
C614 C616 1.415 . S
C615 C614 1.355 . S
C615 C617 1.419 . S
C616 C614 1.415 . S
C616 C621 1.425 . S
C616 C623 1.409 . S
C617 H609 0.930 . S
C617 C615 1.419 . S
C617 C618 1.362 . S
C618 H610 0.930 . S
C618 C617 1.362 . S
C618 C621 1.409 . S
C619 H611 0.930 . S
C619 C620 1.355 . S
C619 C621 1.415 . S
C620 C619 1.355 . S
C620 C622 1.419 . S
C621 C616 1.425 . S
C621 C618 1.409 . S
C621 C619 1.415 . S
C622 H612 0.930 . S
C622 C620 1.419 . S
C622 C623 1.362 . S
C623 H613 0.930 . S
C623 C616 1.409 . S
C623 C622 1.362 . S
H624 C630 0.930 . S
H625 C633 0.930 . S
H626 C634 0.930 . S
H627 C635 0.930 . S
H628 C638 0.930 . S
H629 C639 0.930 . S
C630 H624 0.930 . S
C630 C631 1.355 . S
C630 C632 1.415 . S
C631 C630 1.355 . S
C631 C633 1.419 1_556 S
C632 C630 1.415 . S
C632 C637 1.425 1_556 S
C632 C639 1.409 . S
C633 H625 0.930 . S
C633 C631 1.419 1_554 S
C633 C634 1.362 . S
C634 H626 0.930 . S
C634 C633 1.362 . S
C634 C637 1.409 . S
C635 H627 0.930 . S
C635 C636 1.355 . S
C635 C637 1.415 . S
C636 C635 1.355 . S
C636 C638 1.419 1_554 S
C637 C632 1.425 1_554 S
C637 C634 1.409 . S
C637 C635 1.415 . S
C638 H628 0.930 . S
C638 C636 1.419 1_556 S
C638 C639 1.362 . S
C639 H629 0.930 . S
C639 C632 1.409 . S
C639 C638 1.362 . S
H640 C646 0.930 . S
H641 C649 0.930 . S
H642 C650 0.930 . S
H643 C651 0.930 . S
H644 C654 0.930 . S
H645 C655 0.930 . S
C646 H640 0.930 . S
C646 C647 1.355 . S
C646 C648 1.415 . S
C647 C646 1.355 . S
C647 C649 1.419 . S
C648 C646 1.415 . S
C648 C653 1.425 . S
C648 C655 1.409 . S
C649 H641 0.930 . S
C649 C647 1.419 . S
C649 C650 1.362 . S
C650 H642 0.930 . S
C650 C649 1.362 . S
C650 C653 1.409 . S
C651 H643 0.930 . S
C651 C652 1.355 . S
C651 C653 1.415 . S
C652 C651 1.355 . S
C652 C654 1.419 . S
C653 C648 1.425 . S
C653 C650 1.409 . S
C653 C651 1.415 . S
C654 H644 0.930 . S
C654 C652 1.419 . S
C654 C655 1.362 . S
C655 H645 0.930 . S
C655 C648 1.409 . S
C655 C654 1.362 . S
H656 C662 0.930 . S
H657 C665 0.930 . S
H658 C666 0.930 . S
H659 C667 0.930 . S
H660 C670 0.930 . S
H661 C671 0.930 . S
C662 H656 0.930 . S
C662 C663 1.355 . S
C662 C664 1.415 . S
C663 C662 1.355 . S
C663 C665 1.419 . S
C664 C662 1.415 . S
C664 C669 1.425 . S
C664 C671 1.409 . S
C665 H657 0.930 . S
C665 C663 1.419 . S
C665 C666 1.362 . S
C666 H658 0.930 . S
C666 C665 1.362 . S
C666 C669 1.409 . S
C667 H659 0.930 . S
C667 C668 1.355 . S
C667 C669 1.415 . S
C668 C667 1.355 . S
C668 C670 1.419 . S
C669 C664 1.425 . S
C669 C666 1.409 . S
C669 C667 1.415 . S
C670 H660 0.930 . S
C670 C668 1.419 . S
C670 C671 1.362 . S
C671 H661 0.930 . S
C671 C664 1.409 . S
C671 C670 1.362 . S
H672 C678 0.930 . S
H673 C681 0.930 . S
H674 C682 0.930 . S
H675 C683 0.930 . S
H676 C686 0.930 . S
H677 C687 0.930 . S
C678 H672 0.930 . S
C678 C679 1.355 . S
C678 C680 1.413 1_565 S
C679 C678 1.355 . S
C679 C681 1.419 . S
C680 C678 1.413 1_545 S
C680 C685 1.427 1_546 S
C680 C687 1.409 1_556 S
C681 H673 0.930 . S
C681 C679 1.419 . S
C681 C682 1.362 . S
C682 H674 0.930 . S
C682 C681 1.362 . S
C682 C685 1.409 1_556 S
C683 H675 0.930 . S
C683 C684 1.355 . S
C683 C685 1.414 1_545 S
C684 C683 1.355 . S
C684 C686 1.419 . S
C685 C680 1.427 1_564 S
C685 C682 1.409 1_554 S
C685 C683 1.414 1_565 S
C686 H676 0.930 . S
C686 C684 1.419 . S
C686 C687 1.362 . S
C687 H677 0.930 . S
C687 C680 1.409 1_554 S
C687 C686 1.362 . S
H688 C694 0.930 . S
H689 C697 0.930 . S
H690 C698 0.930 . S
H691 C699 0.930 . S
H692 C702 0.930 . S
H693 C703 0.930 . S
C694 H688 0.930 . S
C694 C695 1.355 . S
C694 C696 1.415 . S
C695 C694 1.355 . S
C695 C697 1.419 . S
C696 C694 1.415 . S
C696 C701 1.425 . S
C696 C703 1.409 . S
C697 H689 0.930 . S
C697 C695 1.419 . S
C697 C698 1.362 . S
C698 H690 0.930 . S
C698 C697 1.362 . S
C698 C701 1.409 . S
C699 H691 0.930 . S
C699 C700 1.355 . S
C699 C701 1.415 . S
C700 C699 1.355 . S
C700 C702 1.419 . S
C701 C696 1.425 . S
C701 C698 1.409 . S
C701 C699 1.415 . S
C702 H692 0.930 . S
C702 C700 1.419 . S
C702 C703 1.362 . S
C703 H693 0.930 . S
C703 C696 1.409 . S
C703 C702 1.362 . S
H704 C710 0.920 1_655 S
H705 C713 0.930 . S
H706 C714 0.930 . S
H707 C715 0.921 1_455 S
H708 C718 0.930 . S
H709 C719 0.930 . S
C710 H704 0.920 1_455 S
C710 C711 1.372 . S
C710 C712 1.407 1_455 S
C711 C710 1.372 . S
C711 C713 1.419 . S
C712 C710 1.407 1_655 S
C712 C717 1.425 1_655 S
C712 C719 1.409 . S
C713 H705 0.930 . S
C713 C711 1.419 . S
C713 C714 1.362 . S
C714 H706 0.930 . S
C714 C713 1.362 . S
C714 C717 1.409 . S
C715 H707 0.921 1_655 S
C715 C716 1.371 . S
C715 C717 1.408 1_655 S
C716 C715 1.371 . S
C716 C718 1.419 . S
C717 C712 1.425 1_455 S
C717 C714 1.409 . S
C717 C715 1.408 1_455 S
C718 H708 0.930 . S
C718 C716 1.419 . S
C718 C719 1.362 . S
C719 H709 0.930 . S
C719 C712 1.409 . S
C719 C718 1.362 . S
H720 C726 0.930 . S
H721 C729 0.930 . S
H722 C730 0.930 . S
H723 C731 0.930 . S
H724 C734 0.930 . S
H725 C735 0.930 . S
C726 H720 0.930 . S
C726 C727 1.355 . S
C726 C728 1.415 1_554 S
C727 C726 1.355 . S
C727 C729 1.419 1_565 S
C728 C726 1.415 1_556 S
C728 C733 1.425 1_566 S
C728 C735 1.409 . S
C729 H721 0.930 . S
C729 C727 1.419 1_545 S
C729 C730 1.362 . S
C730 H722 0.930 . S
C730 C729 1.362 . S
C730 C733 1.409 . S
C731 H723 0.930 . S
C731 C732 1.355 . S
C731 C733 1.415 1_556 S
C732 C731 1.355 . S
C732 C734 1.419 1_545 S
C733 C728 1.425 1_544 S
C733 C730 1.409 . S
C733 C731 1.415 1_554 S
C734 H724 0.930 . S
C734 C732 1.419 1_565 S
C734 C735 1.362 . S
C735 H725 0.930 . S
C735 C728 1.409 . S
C735 C734 1.362 . S
H736 C742 0.930 . S
H737 C745 0.930 . S
H738 C746 0.930 . S
H739 C747 0.930 . S
H740 C750 0.930 . S
H741 C751 0.930 . S
C742 H736 0.930 . S
C742 C743 1.355 . S
C742 C744 1.415 . S
C743 C742 1.355 . S
C743 C745 1.419 . S
C744 C742 1.415 . S
C744 C749 1.425 . S
C744 C751 1.409 . S
C745 H737 0.930 . S
C745 C743 1.419 . S
C745 C746 1.362 . S
C746 H738 0.930 . S
C746 C745 1.362 . S
C746 C749 1.409 . S
C747 H739 0.930 . S
C747 C748 1.355 . S
C747 C749 1.415 . S
C748 C747 1.355 . S
C748 C750 1.419 . S
C749 C744 1.425 . S
C749 C746 1.409 . S
C749 C747 1.415 . S
C750 H740 0.930 . S
C750 C748 1.419 . S
C750 C751 1.362 . S
C751 H741 0.930 . S
C751 C744 1.409 . S
C751 C750 1.362 . S
H752 C758 0.930 . S
H753 C761 0.930 . S
H754 C762 0.930 . S
H755 C763 0.930 . S
H756 C766 0.930 . S
H757 C767 0.930 . S
C758 H752 0.930 . S
C758 C759 1.355 . S
C758 C760 1.415 . S
C759 C758 1.355 . S
C759 C761 1.419 1_455 S
C760 C758 1.415 . S
C760 C765 1.425 1_455 S
C760 C767 1.409 . S
C761 H753 0.930 . S
C761 C759 1.419 1_655 S
C761 C762 1.362 . S
C762 H754 0.930 . S
C762 C761 1.362 . S
C762 C765 1.409 . S
C763 H755 0.930 . S
C763 C764 1.355 . S
C763 C765 1.415 . S
C764 C763 1.355 . S
C764 C766 1.419 1_655 S
C765 C760 1.425 1_655 S
C765 C762 1.409 . S
C765 C763 1.415 . S
C766 H756 0.930 . S
C766 C764 1.419 1_455 S
C766 C767 1.362 . S
C767 H757 0.930 . S
C767 C760 1.409 . S
C767 C766 1.362 . S
H768 C774 0.930 1_565 S
H769 C777 0.930 . S
H770 C778 0.930 . S
H771 C779 0.930 1_545 S
H772 C782 0.930 . S
H773 C783 0.930 . S
C774 H768 0.930 1_545 S
C774 C775 1.355 . S
C774 C776 1.415 1_545 S
C775 C774 1.355 . S
C775 C777 1.419 . S
C776 C774 1.415 1_565 S
C776 C781 1.425 1_565 S
C776 C783 1.409 . S
C777 H769 0.930 . S
C777 C775 1.419 . S
C777 C778 1.362 . S
C778 H770 0.930 . S
C778 C777 1.362 . S
C778 C781 1.409 . S
C779 H771 0.930 1_565 S
C779 C780 1.355 . S
C779 C781 1.415 1_565 S
C780 C779 1.355 . S
C780 C782 1.419 . S
C781 C776 1.425 1_545 S
C781 C778 1.409 . S
C781 C779 1.415 1_545 S
C782 H772 0.930 . S
C782 C780 1.419 . S
C782 C783 1.362 . S
C783 H773 0.930 . S
C783 C776 1.409 . S
C783 C782 1.362 . S
H784 C790 0.930 . S
H785 C793 0.930 . S
H786 C794 0.930 . S
H787 C795 0.930 . S
H788 C798 0.930 . S
H789 C799 0.930 . S
C790 H784 0.930 . S
C790 C791 1.355 . S
C790 C792 1.415 . S
C791 C790 1.355 . S
C791 C793 1.419 . S
C792 C790 1.415 . S
C792 C797 1.425 . S
C792 C799 1.409 . S
C793 H785 0.930 . S
C793 C791 1.419 . S
C793 C794 1.362 . S
C794 H786 0.930 . S
C794 C793 1.362 . S
C794 C797 1.409 . S
C795 H787 0.930 . S
C795 C796 1.355 . S
C795 C797 1.415 . S
C796 C795 1.355 . S
C796 C798 1.419 . S
C797 C792 1.425 . S
C797 C794 1.409 . S
C797 C795 1.415 . S
C798 H788 0.930 . S
C798 C796 1.419 . S
C798 C799 1.362 . S
C799 H789 0.930 . S
C799 C792 1.409 . S
C799 C798 1.362 . S
H800 C806 0.930 . S
H801 C809 0.930 . S
H802 C810 0.930 . S
H803 C811 0.930 . S
H804 C814 0.930 . S
H805 C815 0.930 . S
C806 H800 0.930 . S
C806 C807 1.355 . S
C806 C808 1.415 1_655 S
C807 C806 1.355 . S
C807 C809 1.419 . S
C808 C806 1.415 1_455 S
C808 C813 1.425 1_455 S
C808 C815 1.409 . S
C809 H801 0.930 . S
C809 C807 1.419 . S
C809 C810 1.362 . S
C810 H802 0.930 . S
C810 C809 1.362 . S
C810 C813 1.409 . S
C811 H803 0.930 . S
C811 C812 1.355 . S
C811 C813 1.415 1_455 S
C812 C811 1.355 . S
C812 C814 1.419 . S
C813 C808 1.425 1_655 S
C813 C810 1.409 . S
C813 C811 1.415 1_655 S
C814 H804 0.930 . S
C814 C812 1.419 . S
C814 C815 1.362 . S
C815 H805 0.930 . S
C815 C808 1.409 . S
C815 C814 1.362 . S
H816 C822 0.930 1_655 S
H817 C825 0.930 . S
H818 C826 0.930 . S
H819 C827 0.930 1_455 S
H820 C830 0.930 . S
H821 C831 0.930 . S
C822 H816 0.930 1_455 S
C822 C823 1.355 . S
C822 C824 1.415 1_455 S
C823 C822 1.355 . S
C823 C825 1.419 . S
C824 C822 1.415 1_655 S
C824 C829 1.425 1_655 S
C824 C831 1.409 . S
C825 H817 0.930 . S
C825 C823 1.419 . S
C825 C826 1.362 . S
C826 H818 0.930 . S
C826 C825 1.362 . S
C826 C829 1.409 . S
C827 H819 0.930 1_655 S
C827 C828 1.355 . S
C827 C829 1.415 1_655 S
C828 C827 1.355 . S
C828 C830 1.419 . S
C829 C824 1.425 1_455 S
C829 C826 1.409 . S
C829 C827 1.415 1_455 S
C830 H820 0.930 . S
C830 C828 1.419 . S
C830 C831 1.362 . S
C831 H821 0.930 . S
C831 C824 1.409 . S
C831 C830 1.362 . S
H832 C838 0.930 1_545 S
H833 C841 0.930 . S
H834 C842 0.930 . S
H835 C843 0.930 1_565 S
H836 C846 0.930 . S
H837 C847 0.930 . S
C838 H832 0.930 1_565 S
C838 C839 1.355 . S
C838 C840 1.415 1_565 S
C839 C838 1.355 . S
C839 C841 1.419 . S
C840 C838 1.415 1_545 S
C840 C845 1.425 1_545 S
C840 C847 1.409 . S
C841 H833 0.930 . S
C841 C839 1.419 . S
C841 C842 1.362 . S
C842 H834 0.930 . S
C842 C841 1.362 . S
C842 C845 1.409 . S
C843 H835 0.930 1_545 S
C843 C844 1.355 . S
C843 C845 1.415 1_545 S
C844 C843 1.355 . S
C844 C846 1.419 . S
C845 C840 1.425 1_565 S
C845 C842 1.409 . S
C845 C843 1.415 1_565 S
C846 H836 0.930 . S
C846 C844 1.419 . S
C846 C847 1.362 . S
C847 H837 0.930 . S
C847 C840 1.409 . S
C847 C846 1.362 . S
H848 C854 0.930 . S
H849 C857 0.930 . S
H850 C858 0.930 . S
H851 C859 0.930 . S
H852 C862 0.930 . S
H853 C863 0.930 . S
C854 H848 0.930 . S
C854 C855 1.355 . S
C854 C856 1.415 . S
C855 C854 1.355 . S
C855 C857 1.419 . S
C856 C854 1.415 . S
C856 C861 1.425 . S
C856 C863 1.409 . S
C857 H849 0.930 . S
C857 C855 1.419 . S
C857 C858 1.362 . S
C858 H850 0.930 . S
C858 C857 1.362 . S
C858 C861 1.409 . S
C859 H851 0.930 . S
C859 C860 1.355 . S
C859 C861 1.415 . S
C860 C859 1.355 . S
C860 C862 1.419 . S
C861 C856 1.425 . S
C861 C858 1.409 . S
C861 C859 1.415 . S
C862 H852 0.930 . S
C862 C860 1.419 . S
C862 C863 1.362 . S
C863 H853 0.930 . S
C863 C856 1.409 . S
C863 C862 1.362 . S
H864 C870 0.930 . S
H865 C873 0.930 . S
H866 C874 0.930 1_545 S
H867 C875 0.930 . S
H868 C878 0.930 . S
H869 C879 0.930 1_565 S
C870 H864 0.930 . S
C870 C871 1.355 . S
C870 C872 1.415 . S
C871 C870 1.355 . S
C871 C873 1.419 . S
C872 C870 1.415 . S
C872 C877 1.425 1_565 S
C872 C879 1.409 1_565 S
C873 H865 0.930 . S
C873 C871 1.419 . S
C873 C874 1.362 . S
C874 H866 0.930 1_565 S
C874 C873 1.362 . S
C874 C877 1.409 1_565 S
C875 H867 0.930 . S
C875 C876 1.355 . S
C875 C877 1.415 . S
C876 C875 1.355 . S
C876 C878 1.419 . S
C877 C872 1.425 1_545 S
C877 C874 1.409 1_545 S
C877 C875 1.415 . S
C878 H868 0.930 . S
C878 C876 1.419 . S
C878 C879 1.362 . S
C879 H869 0.930 1_545 S
C879 C872 1.409 1_545 S
C879 C878 1.362 . S
H880 C886 0.930 . S
H881 C889 0.930 . S
H882 C890 0.930 . S
H883 C891 0.930 . S
H884 C894 0.930 . S
H885 C895 0.930 . S
C886 H880 0.930 . S
C886 C887 1.355 . S
C886 C888 1.415 . S
C887 C886 1.355 . S
C887 C889 1.419 . S
C888 C886 1.415 . S
C888 C893 1.425 . S
C888 C895 1.409 . S
C889 H881 0.930 . S
C889 C887 1.419 . S
C889 C890 1.362 . S
C890 H882 0.930 . S
C890 C889 1.362 . S
C890 C893 1.409 . S
C891 H883 0.930 . S
C891 C892 1.355 . S
C891 C893 1.415 . S
C892 C891 1.355 . S
C892 C894 1.419 . S
C893 C888 1.425 . S
C893 C890 1.409 . S
C893 C891 1.415 . S
C894 H884 0.930 . S
C894 C892 1.419 . S
C894 C895 1.362 . S
C895 H885 0.930 . S
C895 C888 1.409 . S
C895 C894 1.362 . S
H896 C902 0.930 . S
H897 C905 0.930 . S
H898 C906 0.913 1_455 S
H899 C907 0.930 . S
H900 C910 0.930 . S
H901 C911 0.914 1_655 S
C902 H896 0.930 . S
C902 C903 1.355 . S
C902 C904 1.415 . S
C903 C902 1.355 . S
C903 C905 1.419 . S
C904 C902 1.415 . S
C904 C909 1.425 1_655 S
C904 C911 1.409 1_655 S
C905 H897 0.930 . S
C905 C903 1.419 . S
C905 C906 1.362 . S
C906 H898 0.913 1_655 S
C906 C905 1.362 . S
C906 C909 1.409 1_655 S
C907 H899 0.930 . S
C907 C908 1.355 . S
C907 C909 1.415 . S
C908 C907 1.355 . S
C908 C910 1.419 . S
C909 C904 1.425 1_455 S
C909 C906 1.409 1_455 S
C909 C907 1.415 . S
C910 H900 0.930 . S
C910 C908 1.419 . S
C910 C911 1.362 . S
C911 H901 0.914 1_455 S
C911 C904 1.409 1_455 S
C911 C910 1.362 . S
H912 C918 0.930 . S
H913 C921 0.930 . S
H914 C922 0.930 1_565 S
H915 C923 0.930 . S
H916 C926 0.930 . S
H917 C927 0.930 1_545 S
C918 H912 0.930 . S
C918 C919 1.355 . S
C918 C920 1.415 . S
C919 C918 1.355 . S
C919 C921 1.419 . S
C920 C918 1.415 . S
C920 C925 1.425 1_545 S
C920 C927 1.409 1_545 S
C921 H913 0.930 . S
C921 C919 1.419 . S
C921 C922 1.362 . S
C922 H914 0.930 1_545 S
C922 C921 1.362 . S
C922 C925 1.409 1_545 S
C923 H915 0.930 . S
C923 C924 1.355 . S
C923 C925 1.415 . S
C924 C923 1.355 . S
C924 C926 1.419 . S
C925 C920 1.425 1_565 S
C925 C922 1.409 1_565 S
C925 C923 1.415 . S
C926 H916 0.930 . S
C926 C924 1.419 . S
C926 C927 1.362 . S
C927 H917 0.930 1_565 S
C927 C920 1.409 1_565 S
C927 C926 1.362 . S
H928 C934 0.930 . S
H929 C937 0.930 . S
H930 C938 0.930 . S
H931 C939 0.930 . S
H932 C942 0.930 . S
H933 C943 0.930 . S
C934 H928 0.930 . S
C934 C935 1.355 . S
C934 C936 1.415 . S
C935 C934 1.355 . S
C935 C937 1.419 . S
C936 C934 1.415 . S
C936 C941 1.425 . S
C936 C943 1.409 . S
C937 H929 0.930 . S
C937 C935 1.419 . S
C937 C938 1.362 . S
C938 H930 0.930 . S
C938 C937 1.362 . S
C938 C941 1.409 . S
C939 H931 0.930 . S
C939 C940 1.355 . S
C939 C941 1.415 . S
C940 C939 1.355 . S
C940 C942 1.419 . S
C941 C936 1.425 . S
C941 C938 1.409 . S
C941 C939 1.415 . S
C942 H932 0.930 . S
C942 C940 1.419 . S
C942 C943 1.362 . S
C943 H933 0.930 . S
C943 C936 1.409 . S
C943 C942 1.362 . S
H944 C950 0.930 . S
H945 C953 0.930 . S
H946 C954 0.930 . S
H947 C955 0.930 . S
H948 C958 0.930 . S
H949 C959 0.930 . S
C950 H944 0.930 . S
C950 C951 1.355 . S
C950 C952 1.415 . S
C951 C950 1.355 . S
C951 C953 1.419 . S
C952 C950 1.415 . S
C952 C957 1.425 1_455 S
C952 C959 1.409 1_455 S
C953 H945 0.930 . S
C953 C951 1.419 . S
C953 C954 1.362 . S
C954 H946 0.930 . S
C954 C953 1.362 . S
C954 C957 1.409 1_455 S
C955 H947 0.930 . S
C955 C956 1.355 . S
C955 C957 1.415 . S
C956 C955 1.355 . S
C956 C958 1.419 . S
C957 C952 1.425 1_655 S
C957 C954 1.409 1_655 S
C957 C955 1.415 . S
C958 H948 0.930 . S
C958 C956 1.419 . S
C958 C959 1.362 . S
C959 H949 0.930 . S
C959 C952 1.409 1_655 S
C959 C958 1.362 . S
H960 C966 0.930 . S
H961 C969 0.930 . S
H962 C970 0.930 . S
H963 C971 0.930 . S
H964 C974 0.930 . S
H965 C975 0.930 . S
C966 H960 0.930 . S
C966 C967 1.355 . S
C966 C968 1.415 . S
C967 C966 1.355 . S
C967 C969 1.419 . S
C968 C966 1.415 . S
C968 C973 1.425 . S
C968 C975 1.409 . S
C969 H961 0.930 . S
C969 C967 1.419 . S
C969 C970 1.362 . S
C970 H962 0.930 . S
C970 C969 1.362 . S
C970 C973 1.409 . S
C971 H963 0.930 . S
C971 C972 1.355 . S
C971 C973 1.415 . S
C972 C971 1.355 . S
C972 C974 1.419 . S
C973 C968 1.425 . S
C973 C970 1.409 . S
C973 C971 1.415 . S
C974 H964 0.930 . S
C974 C972 1.419 . S
C974 C975 1.362 . S
C975 H965 0.930 . S
C975 C968 1.409 . S
C975 C974 1.362 . S
H976 C982 0.930 . S
H977 C985 0.930 . S
H978 C986 0.930 . S
H979 C987 0.930 . S
H980 C990 0.930 . S
H981 C991 0.930 . S
C982 H976 0.930 . S
C982 C983 1.355 . S
C982 C984 1.415 . S
C983 C982 1.355 . S
C983 C985 1.419 . S
C984 C982 1.415 . S
C984 C989 1.425 . S
C984 C991 1.409 . S
C985 H977 0.930 . S
C985 C983 1.419 . S
C985 C986 1.362 . S
C986 H978 0.930 . S
C986 C985 1.362 . S
C986 C989 1.409 . S
C987 H979 0.930 . S
C987 C988 1.355 . S
C987 C989 1.415 . S
C988 C987 1.355 . S
C988 C990 1.419 . S
C989 C984 1.425 . S
C989 C986 1.409 . S
C989 C987 1.415 . S
C990 H980 0.930 . S
C990 C988 1.419 . S
C990 C991 1.362 . S
C991 H981 0.930 . S
C991 C984 1.409 . S
C991 C990 1.362 . S
H992 C998 0.930 . S
H993 C1001 0.930 . S
H994 C1002 0.930 . S
H995 C1003 0.930 . S
H996 C1006 0.930 . S
H997 C1007 0.930 . S
C998 H992 0.930 . S
C998 C999 1.355 . S
C998 C1000 1.415 . S
C999 C998 1.355 . S
C999 C1001 1.419 . S
C1000 C998 1.415 . S
C1000 C1005 1.425 . S
C1000 C1007 1.409 . S
C1001 H993 0.930 . S
C1001 C999 1.419 . S
C1001 C1002 1.362 . S
C1002 H994 0.930 . S
C1002 C1001 1.362 . S
C1002 C1005 1.409 . S
C1003 H995 0.930 . S
C1003 C1004 1.355 . S
C1003 C1005 1.415 . S
C1004 C1003 1.355 . S
C1004 C1006 1.419 . S
C1005 C1000 1.425 . S
C1005 C1002 1.409 . S
C1005 C1003 1.415 . S
C1006 H996 0.930 . S
C1006 C1004 1.419 . S
C1006 C1007 1.362 . S
C1007 H997 0.930 . S
C1007 C1000 1.409 . S
C1007 C1006 1.362 . S
H1008 C1014 0.930 . S
H1009 C1017 0.930 . S
H1010 C1018 0.930 . S
H1011 C1019 0.930 . S
H1012 C1022 0.930 . S
H1013 C1023 0.930 . S
C1014 H1008 0.930 . S
C1014 C1015 1.355 . S
C1014 C1016 1.415 . S
C1015 C1014 1.355 . S
C1015 C1017 1.419 . S
C1016 C1014 1.415 . S
C1016 C1021 1.425 . S
C1016 C1023 1.409 . S
C1017 H1009 0.930 . S
C1017 C1015 1.419 . S
C1017 C1018 1.362 . S
C1018 H1010 0.930 . S
C1018 C1017 1.362 . S
C1018 C1021 1.409 . S
C1019 H1011 0.930 . S
C1019 C1020 1.355 . S
C1019 C1021 1.415 . S
C1020 C1019 1.355 . S
C1020 C1022 1.419 . S
C1021 C1016 1.425 . S
C1021 C1018 1.409 . S
C1021 C1019 1.415 . S
C1022 H1012 0.930 . S
C1022 C1020 1.419 . S
C1022 C1023 1.362 . S
C1023 H1013 0.930 . S
C1023 C1016 1.409 . S
C1023 C1022 1.362 . S
H1024 C1030 0.930 . S
H1025 C1033 0.930 . S
H1026 C1034 0.930 . S
H1027 C1035 0.930 . S
H1028 C1038 0.930 . S
H1029 C1039 0.930 . S
C1030 H1024 0.930 . S
C1030 C1031 1.355 . S
C1030 C1032 1.415 . S
C1031 C1030 1.355 . S
C1031 C1033 1.419 . S
C1032 C1030 1.415 . S
C1032 C1037 1.425 . S
C1032 C1039 1.409 . S
C1033 H1025 0.930 . S
C1033 C1031 1.419 . S
C1033 C1034 1.362 . S
C1034 H1026 0.930 . S
C1034 C1033 1.362 . S
C1034 C1037 1.409 . S
C1035 H1027 0.930 . S
C1035 C1036 1.355 . S
C1035 C1037 1.415 . S
C1036 C1035 1.355 . S
C1036 C1038 1.419 . S
C1037 C1032 1.425 . S
C1037 C1034 1.409 . S
C1037 C1035 1.415 . S
C1038 H1028 0.930 . S
C1038 C1036 1.419 . S
C1038 C1039 1.362 . S
C1039 H1029 0.930 . S
C1039 C1032 1.409 . S
C1039 C1038 1.362 . S
H1040 C1046 0.930 . S
H1041 C1049 0.930 . S
H1042 C1050 0.930 . S
H1043 C1051 0.930 . S
H1044 C1054 0.930 . S
H1045 C1055 0.930 . S
C1046 H1040 0.930 . S
C1046 C1047 1.355 . S
C1046 C1048 1.415 . S
C1047 C1046 1.355 . S
C1047 C1049 1.419 . S
C1048 C1046 1.415 . S
C1048 C1053 1.425 . S
C1048 C1055 1.409 . S
C1049 H1041 0.930 . S
C1049 C1047 1.419 . S
C1049 C1050 1.362 . S
C1050 H1042 0.930 . S
C1050 C1049 1.362 . S
C1050 C1053 1.409 . S
C1051 H1043 0.930 . S
C1051 C1052 1.355 . S
C1051 C1053 1.415 . S
C1052 C1051 1.355 . S
C1052 C1054 1.419 . S
C1053 C1048 1.425 . S
C1053 C1050 1.409 . S
C1053 C1051 1.415 . S
C1054 H1044 0.930 . S
C1054 C1052 1.419 . S
C1054 C1055 1.362 . S
C1055 H1045 0.930 . S
C1055 C1048 1.409 . S
C1055 C1054 1.362 . S
C487 C9 1.180 . S
C492 C329 1.131 . S
C503 C49 1.209 . S
C508 C369 1.203 . S
C519 C89 1.212 . S
C524 C409 1.180 . S
C535 C449 1.173 . S
C540 C129 1.127 . S
C551 C169 1.195 . S
C556 C249 1.212 . S
C567 C289 1.132 . S
C572 C209 1.182 . S
C583 C415 1.679 . S
C588 C15 1.687 . S
C599 C455 1.683 . S
C604 C55 1.680 . S
C615 C95 1.760 . S
C620 C255 1.778 . S
C631 C295 1.759 . S
C636 C135 1.777 . S
C647 C335 1.761 . S
C652 C175 1.778 . S
C663 C215 1.732 . S
C668 C375 1.703 . S
C679 C299 4.306 . S
C684 C19 4.291 . S
C695 C339 4.283 . S
C700 C59 4.298 . S
C711 C379 4.295 . S
C716 C99 4.306 . S
C727 C139 4.292 . S
C732 C419 4.283 . S
C743 C179 4.305 . S
C748 C459 4.289 . S
C759 C219 4.284 . S
C764 C259 4.289 . S
C775 C18 0.704 . S
C780 C138 0.695 . S
C791 C58 0.840 . S
C796 C178 0.859 . S
C807 C98 0.686 . S
C812 C218 0.731 . S
C823 C378 0.713 . S
C828 C258 0.690 . S
C839 C298 0.702 . S
C844 C418 0.696 . S
C855 C458 0.846 . S
C860 C338 0.856 . S
C871 C286 0.660 . S
C876 C6 0.690 . S
C887 C326 0.877 . S
C892 C46 0.863 . S
C903 C86 0.735 . S
C908 C366 0.670 . S
C919 C406 0.712 . S
C924 C126 0.795 . S
C935 C446 0.805 . S
C940 C166 0.866 . S
C951 C206 0.822 . S
C956 C246 0.740 . S
C967 C10 4.773 . S
C972 C410 4.775 . S
C983 C50 4.773 . S
C988 C450 4.777 1_556 S
C999 C90 4.775 1_554 S
C1004 C250 4.779 . S
C1015 C130 4.776 . S
C1020 C290 4.773 . S
C1031 C170 4.774 . S
C1036 C330 4.779 1_556 S
C1047 C370 4.774 . S
C1052 C210 4.773 1_554 S
