# Generated by pormake.
# Topology wkj, (6)-cn, num edge types: 1
# Building blocks:
#     Node 0, Type 0, BuildingBlock: BETDIP_clean_sbu_0, # of connection points: 6
#     Node 1, Type 0, BuildingBlock: BETDIP_clean_sbu_0, # of connection points: 6
#     Node 2, Type 0, BuildingBlock: BETDIP_clean_sbu_0, # of connection points: 6
#     Node 3, Type 0, BuildingBlock: BETDIP_clean_sbu_0, # of connection points: 6
#     Node 4, Type 0, BuildingBlock: BETDIP_clean_sbu_0, # of connection points: 6
#     Node 5, Type 0, BuildingBlock: BETDIP_clean_sbu_0, # of connection points: 6
#     Node 6, Type 0, BuildingBlock: BETDIP_clean_sbu_0, # of connection points: 6
#     Node 7, Type 0, BuildingBlock: BETDIP_clean_sbu_0, # of connection points: 6
#     Node 8, Type 0, BuildingBlock: BETDIP_clean_sbu_0, # of connection points: 6
#     Node 9, Type 0, BuildingBlock: BETDIP_clean_sbu_0, # of connection points: 6
#     Node 10, Type 0, BuildingBlock: BETDIP_clean_sbu_0, # of connection points: 6
#     Node 11, Type 0, BuildingBlock: BETDIP_clean_sbu_0, # of connection points: 6
#     Edge 12, Type (0, 0), BuildingBlock: OJICUG_clean_linker_0, # of connection points: 2
#     Edge 13, Type (0, 0), BuildingBlock: OJICUG_clean_linker_0, # of connection points: 2
#     Edge 14, Type (0, 0), BuildingBlock: OJICUG_clean_linker_0, # of connection points: 2
#     Edge 15, Type (0, 0), BuildingBlock: OJICUG_clean_linker_0, # of connection points: 2
#     Edge 16, Type (0, 0), BuildingBlock: OJICUG_clean_linker_0, # of connection points: 2
#     Edge 17, Type (0, 0), BuildingBlock: OJICUG_clean_linker_0, # of connection points: 2
#     Edge 18, Type (0, 0), BuildingBlock: OJICUG_clean_linker_0, # of connection points: 2
#     Edge 19, Type (0, 0), BuildingBlock: OJICUG_clean_linker_0, # of connection points: 2
#     Edge 20, Type (0, 0), BuildingBlock: OJICUG_clean_linker_0, # of connection points: 2
#     Edge 21, Type (0, 0), BuildingBlock: OJICUG_clean_linker_0, # of connection points: 2
#     Edge 22, Type (0, 0), BuildingBlock: OJICUG_clean_linker_0, # of connection points: 2
#     Edge 23, Type (0, 0), BuildingBlock: OJICUG_clean_linker_0, # of connection points: 2
#     Edge 24, Type (0, 0), BuildingBlock: OJICUG_clean_linker_0, # of connection points: 2
#     Edge 25, Type (0, 0), BuildingBlock: OJICUG_clean_linker_0, # of connection points: 2
#     Edge 26, Type (0, 0), BuildingBlock: OJICUG_clean_linker_0, # of connection points: 2
#     Edge 27, Type (0, 0), BuildingBlock: OJICUG_clean_linker_0, # of connection points: 2
#     Edge 28, Type (0, 0), BuildingBlock: OJICUG_clean_linker_0, # of connection points: 2
#     Edge 29, Type (0, 0), BuildingBlock: OJICUG_clean_linker_0, # of connection points: 2
#     Edge 30, Type (0, 0), BuildingBlock: OJICUG_clean_linker_0, # of connection points: 2
#     Edge 31, Type (0, 0), BuildingBlock: OJICUG_clean_linker_0, # of connection points: 2
#     Edge 32, Type (0, 0), BuildingBlock: OJICUG_clean_linker_0, # of connection points: 2
#     Edge 33, Type (0, 0), BuildingBlock: OJICUG_clean_linker_0, # of connection points: 2
#     Edge 34, Type (0, 0), BuildingBlock: OJICUG_clean_linker_0, # of connection points: 2
#     Edge 35, Type (0, 0), BuildingBlock: OJICUG_clean_linker_0, # of connection points: 2
#     Edge 36, Type (0, 0), BuildingBlock: OJICUG_clean_linker_0, # of connection points: 2
#     Edge 37, Type (0, 0), BuildingBlock: OJICUG_clean_linker_0, # of connection points: 2
#     Edge 38, Type (0, 0), BuildingBlock: OJICUG_clean_linker_0, # of connection points: 2
#     Edge 39, Type (0, 0), BuildingBlock: OJICUG_clean_linker_0, # of connection points: 2
#     Edge 40, Type (0, 0), BuildingBlock: OJICUG_clean_linker_0, # of connection points: 2
#     Edge 41, Type (0, 0), BuildingBlock: OJICUG_clean_linker_0, # of connection points: 2
#     Edge 42, Type (0, 0), BuildingBlock: OJICUG_clean_linker_0, # of connection points: 2
#     Edge 43, Type (0, 0), BuildingBlock: OJICUG_clean_linker_0, # of connection points: 2
#     Edge 44, Type (0, 0), BuildingBlock: OJICUG_clean_linker_0, # of connection points: 2
#     Edge 45, Type (0, 0), BuildingBlock: OJICUG_clean_linker_0, # of connection points: 2
#     Edge 46, Type (0, 0), BuildingBlock: OJICUG_clean_linker_0, # of connection points: 2
#     Edge 47, Type (0, 0), BuildingBlock: OJICUG_clean_linker_0, # of connection points: 2
# Relax obj value: 1.129
# Max RMSD: 0.176
# Mean RMSD: 0.176
data_MOF--net-wkj--node1-BETDIP_clean_sbu_0--edge1-OJICUG_clean_linker_0
_symmetry_space_group_name_H-M    P1
_symmetry_Int_Tables_number       1
_symmetry_cell_setting            triclinic
loop_
_symmetry_equiv_pos_as_xyz
'x, y, z'
_cell_length_a     37.709649
_cell_length_b     37.946062
_cell_length_c     19.830171
_cell_angle_alpha  89.966924
_cell_angle_beta   89.100915
_cell_angle_gamma 120.05264
loop_
_atom_site_label
_atom_site_type_symbol
_atom_site_fract_x
_atom_site_fract_y
_atom_site_fract_z
_atom_type_partial_charge
Tb0 Tb 0.4457 0.08099 0.5304 0.0
Tb1 Tb 0.53116 0.12383 0.47667 0.0
C2 C 0.37852 0.04578 0.59419 0.0
C3 C 0.33571 0.03711 0.59711 0.0
C4 C 0.32407 0.05443 0.6491 0.0
C5 C 0.28323 0.03619 0.6705 0.0
C6 C 0.25323 -0.00023 0.64087 0.0
C7 C 0.26392 -0.01285 0.58086 0.0
C8 C 0.30501 0.00523 0.55979 0.0
C9 C 0.46505 0.14682 0.45394 0.0
C10 C 0.52111 0.12149 0.63848 0.0
C11 C 0.59225 0.17893 0.41302 0.0
C12 C 0.59518 0.20908 0.36339 0.0
C13 C 0.5591 0.20545 0.33804 0.0
C14 C 0.56045 0.23609 0.29761 0.0
C15 C 0.59809 0.27073 0.2801 0.0
C16 C 0.63451 0.27408 0.30431 0.0
C17 C 0.63296 0.24372 0.34691 0.0
C18 C 0.51385 0.05896 0.5449 0.0
C19 C 0.45827 0.04717 0.38986 0.0
O20 O 0.40764 0.08292 0.60672 0.0
O21 O 0.38897 0.02816 0.54755 0.0
O22 O 0.48722 0.14307 0.49728 0.0
O23 O 0.43036 0.11325 0.4545 0.0
O24 O 0.48112 0.0974 0.62717 0.0
O25 O 0.54705 0.13846 0.58595 0.0
O26 O 0.58028 0.18359 0.47278 0.0
O27 O 0.57285 0.14069 0.39459 0.0
O28 O 0.49037 0.06518 0.50953 0.0
O29 O 0.55166 0.08714 0.53253 0.0
O30 O 0.49517 0.08202 0.38826 0.0
O31 O 0.43497 0.03852 0.44556 0.0
H32 H 0.347 0.07932 0.67835 0.0
H33 H 0.27673 0.04771 0.71615 0.0
H34 H 0.24143 0.96027 0.55491 0.0
H35 H 0.31293 -0.00833 0.51845 0.0
H36 H 0.52977 0.17887 0.34992 0.0
H37 H 0.53196 0.23197 0.27821 0.0
H38 H 0.66392 0.30005 0.29037 0.0
H39 H 0.66111 0.24727 0.36692 0.0
Tb40 Tb 0.30638 0.39861 0.83061 0.0
Tb41 Tb 0.31641 0.47173 0.75024 0.0
C42 C 0.30245 0.3431 0.90439 0.0
C43 C 0.26954 0.30367 0.93163 0.0
C44 C 0.25682 0.3008 0.99911 0.0
C45 C 0.23061 0.26295 1.02859 0.0
C46 C 0.21666 0.22675 0.9915 0.0
C47 C 0.22673 0.22996 0.92234 0.0
C48 C 0.25305 0.26802 0.89275 0.0
C49 C 0.23641 0.39332 0.78849 0.0
C50 C 0.33254 0.48352 0.91318 0.0
C51 C 0.28885 0.49849 0.66049 0.0
C52 C 0.25136 0.47621 0.61869 0.0
C53 C 0.20711 0.48163 0.64311 0.0
C54 C 0.15595 0.44916 0.60902 0.0
C55 C 0.14882 0.40585 0.54421 0.0
C56 C 0.19795 0.40328 0.51412 0.0
C57 C 0.24726 0.43822 0.555 0.0
C58 C 0.38272 0.48233 0.79927 0.0
C59 C 0.33959 0.40643 0.67703 0.0
O60 O 0.30439 0.37624 0.92831 0.0
O61 O 0.3093 0.34524 0.83921 0.0
O62 O 0.26848 0.42377 0.80773 0.0
O63 O 0.24194 0.36266 0.79562 0.0
O64 O 0.32751 0.44587 0.91242 0.0
O65 O 0.3266 0.49963 0.8559 0.0
O66 O 0.28276 0.50054 0.72517 0.0
O67 O 0.31841 0.49068 0.64933 0.0
O68 O 0.35305 0.44954 0.77976 0.0
O69 O 0.37945 0.51372 0.77994 0.0
O70 O 0.32678 0.43363 0.67026 0.0
O71 O 0.3384 0.39187 0.73893 0.0
H72 H 0.26893 0.32764 1.03037 0.0
H73 H 0.2244 0.2622 1.0822 0.0
H74 H 0.21635 0.20293 0.89204 0.0
H75 H 0.26198 0.26918 0.84026 0.0
H76 H 0.21099 0.50357 0.68125 0.0
H77 H 0.12984 0.45044 0.62923 0.0
H78 H 0.19521 0.37888 0.4824 0.0
H79 H 0.27372 0.43509 0.54393 0.0
Tb80 Tb 0.8575 0.33057 0.28026 0.0
Tb81 Tb 0.80697 0.36084 1.22174 0.0
C82 C 0.89882 0.30575 0.34056 0.0
C83 C 0.90589 0.27109 0.33525 0.0
C84 C 0.87352 0.23098 0.32764 0.0
C85 C 0.87985 0.19816 0.3393 0.0
C86 C 0.91834 0.20512 0.36047 0.0
C87 C -0.04815 0.24539 0.35616 0.0
C88 C 0.94548 0.278 0.34466 0.0
C89 C 0.78561 0.27487 1.22844 0.0
C90 C 0.8205 0.37307 0.38216 0.0
C91 C 0.74816 0.35332 1.15434 0.0
C92 C 0.74174 0.3786 1.10732 0.0
C93 C 0.70642 0.36106 1.06878 0.0
C94 C 0.69465 0.38586 1.03611 0.0
C95 C 0.71918 0.42843 1.03967 0.0
C96 C 0.756 0.44567 1.07529 0.0
C97 C 0.76752 0.42084 1.10815 0.0
C98 C 0.87339 0.41903 1.26529 0.0
C99 C 0.88195 0.36244 1.12654 0.0
O100 O 0.86223 0.29764 0.36071 0.0
O101 O 0.91373 0.33252 0.29145 0.0
O102 O 0.79279 0.30464 1.26482 0.0
O103 O 0.81973 0.27508 1.22032 0.0
O104 O 0.84829 0.36133 0.37168 0.0
O105 O 0.7962 0.37007 0.33111 0.0
O106 O 0.77267 0.34042 1.13362 0.0
O107 O 0.75536 0.36704 1.21597 0.0
O108 O 0.86863 0.38656 1.2406 0.0
O109 O 0.84267 0.4243 1.25104 0.0
O110 O 0.84866 0.3672 1.13021 0.0
O111 O 0.89251 0.35034 1.18221 0.0
H112 H 0.8428 0.22495 0.31781 0.0
H113 H 0.85361 0.16763 0.33939 0.0
H114 H -0.01759 0.25273 0.37014 0.0
H115 H -0.02892 0.30877 0.3487 0.0
H116 H 0.6867 0.32833 1.06752 0.0
H117 H 0.66523 0.37174 1.01192 0.0
H118 H 0.7744 0.47827 1.08179 0.0
H119 H 0.79491 0.43462 1.13823 0.0
Tb120 Tb 0.49168 0.86154 0.52286 0.0
Tb121 Tb 0.40769 0.83369 0.49038 0.0
C122 C 0.56147 0.87692 0.56085 0.0
C123 C 0.5839 0.87947 0.62163 0.0
C124 C 0.56499 0.87206 0.68537 0.0
C125 C 0.58705 0.87453 0.74266 0.0
C126 C 0.62835 0.88443 0.73696 0.0
C127 C 0.64647 0.88997 0.6725 0.0
C128 C 0.62432 0.88746 0.61522 0.0
C129 C 0.45855 0.79696 0.44194 0.0
C130 C 0.42232 0.82548 0.6445 0.0
C131 C 0.33925 0.79136 0.43605 0.0
C132 C 0.31064 0.74714 0.43455 0.0
C133 C 0.32508 0.71999 0.44432 0.0
C134 C 0.30118 0.67922 0.42625 0.0
C135 C 0.26208 0.66466 0.39802 0.0
C136 C 0.24525 0.69064 0.40065 0.0
C137 C 0.26973 0.7318 0.41699 0.0
C138 C 0.43982 0.89955 0.56215 0.0
C139 C 0.48021 0.90532 0.39292 0.0
O140 O 0.55152 0.90494 0.55123 0.0
O141 O 0.53151 0.8406 0.54754 0.0
O142 O 0.44196 0.80185 0.49496 0.0
O143 O 0.49166 0.83105 0.43033 0.0
O144 O 0.46215 0.8484 0.62766 0.0
O145 O 0.39544 0.80921 0.59514 0.0
O146 O 0.34369 0.80896 0.49423 0.0
O147 O 0.37444 0.80361 0.40497 0.0
O148 O 0.45705 0.89024 0.51712 0.0
O149 O 0.40054 0.87559 0.55838 0.0
O150 O 0.44012 0.87781 0.40202 0.0
O151 O 0.50658 0.90678 0.43878 0.0
H152 H 0.53357 0.86528 0.6909 0.0
H153 H 0.57242 0.87102 0.7916 0.0
H154 H 0.67818 0.89772 0.66661 0.0
H155 H 0.63898 0.89246 0.56593 0.0
H156 H 0.35613 0.731 0.46074 0.0
H157 H 0.31568 0.66086 0.42803 0.0
H158 H 0.21447 0.68049 0.38403 0.0
H159 H 0.25748 0.75208 0.41176 0.0
Tb160 Tb 0.58884 0.54249 0.8179 0.0
Tb161 Tb 0.5655 0.46156 0.76107 0.0
C162 C 0.60408 0.60669 0.87761 0.0
C163 C 0.64177 0.64375 0.89816 0.0
C164 C 0.66709 0.64208 0.94757 0.0
C165 C 0.69848 0.67787 0.9746 0.0
C166 C 0.70525 0.7163 0.95305 0.0
C167 C 0.68328 0.71768 0.89728 0.0
C168 C 0.65145 0.68174 0.8708 0.0
C169 C 0.65198 0.53721 0.76543 0.0
C170 C 0.56472 0.46592 0.92274 0.0
C171 C 0.57526 0.4111 0.6931 0.0
C172 C 0.60317 0.39413 0.6923 0.0
C173 C 0.63901 0.41313 0.65235 0.0
C174 C 0.66366 0.39583 0.64454 0.0
C175 C 0.65144 0.35688 0.67146 0.0
C176 C 0.61707 0.33908 0.71563 0.0
C177 C 0.59322 0.35761 0.72613 0.0
C178 C 0.50691 0.46579 0.81949 0.0
C179 C 0.54764 0.52467 0.66948 0.0
O180 O 0.59442 0.5726 0.90908 0.0
O181 O 0.59824 0.60177 0.81279 0.0
O182 O 0.62189 0.51019 0.79903 0.0
O183 O 0.64821 0.56902 0.76513 0.0
O184 O 0.57007 0.50339 0.91323 0.0
O185 O 0.5684 0.44611 0.86945 0.0
O186 O 0.5483 0.4004 0.74255 0.0
O187 O 0.59202 0.44982 0.6775 0.0
O188 O 0.53551 0.49283 0.78525 0.0
O189 O 0.50459 0.43079 0.80966 0.0
O190 O 0.55079 0.49071 0.67148 0.0
O191 O 0.55679 0.54701 0.72561 0.0
H192 H 0.66116 0.61321 0.96851 0.0
H193 H 0.71442 0.67482 1.01711 0.0
H194 H 0.68825 0.74651 0.87786 0.0
H195 H 0.63296 0.68377 0.83137 0.0
H196 H 0.64747 0.44092 0.62458 0.0
H197 H 0.68995 0.41142 0.6109 0.0
H198 H 0.60678 0.30932 0.73771 0.0
H199 H 0.56574 0.34212 0.75737 0.0
Tb200 Tb 0.05481 0.62782 1.2725 0.0
Tb201 Tb 0.09576 0.5905 1.20542 0.0
C202 C 0.02262 0.66008 0.34148 0.0
C203 C 0.01936 0.69727 0.33686 0.0
C204 C 0.04466 0.73119 0.37592 0.0
C205 C 0.03559 0.7623 0.38497 0.0
C206 C -0.0003 0.75926 0.35766 0.0
C207 C -0.02058 0.7292 0.30823 0.0
C208 C -0.0115 0.69799 0.29918 0.0
C209 C 0.12469 0.67997 1.20471 0.0
C210 C 0.08856 0.57867 0.36847 0.0
C211 C 0.14747 0.59034 1.12441 0.0
C212 C 0.16445 0.56467 1.10809 0.0
C213 C 0.19263 0.57528 1.05432 0.0
C214 C 0.20155 0.54639 1.02822 0.0
C215 C 0.18068 0.50649 1.0543 0.0
C216 C 0.15614 0.49794 1.1132 0.0
C217 C 0.14796 0.5268 1.13974 0.0
C218 C 0.02964 0.5372 1.26322 0.0
C219 C 0.02096 0.59458 1.12409 0.0
O220 O 0.0589 0.6651 0.3534 0.0
O221 O 0.00261 0.63155 0.29739 0.0
O222 O 0.11795 0.65028 1.24192 0.0
O223 O 0.09124 0.68144 1.20537 0.0
O224 O 0.06585 0.59691 0.36295 0.0
O225 O 0.10723 0.5756 0.31184 0.0
O226 O 0.10851 0.57402 1.11174 0.0
O227 O 0.15651 0.60752 1.18341 0.0
O228 O 0.03564 0.5695 1.23552 0.0
O229 O 0.05934 0.5299 1.24887 0.0
O230 O 0.05495 0.59129 1.12058 0.0
O231 O 0.01277 0.60624 1.18319 0.0
H232 H 0.06972 0.73233 0.40373 0.0
H233 H 0.05437 0.78593 0.41994 0.0
H234 H -0.04641 0.72691 0.28153 0.0
H235 H -0.03059 0.67306 1.26623 0.0
H236 H 0.20604 0.60506 1.03056 0.0
H237 H 0.22261 0.55447 0.98571 0.0
H238 H 0.14154 0.46803 1.13663 0.0
H239 H 0.12668 0.51869 1.1821 0.0
Tb240 Tb 0.88148 0.54887 0.73062 0.0
Tb241 Tb 0.81868 0.4728 0.80369 0.0
C242 C 0.93219 0.60826 0.66075 0.0
C243 C 0.92915 0.64103 0.62546 0.0
C244 C 0.91518 0.63561 0.55912 0.0
C245 C 0.91368 0.66693 0.52501 0.0
C246 C 0.92632 0.70474 0.55612 0.0
C247 C 0.93862 0.70952 0.62361 0.0
C248 C 0.94014 0.67806 0.65783 0.0
C249 C 0.81064 0.54585 0.76343 0.0
C250 C 0.83103 0.46356 0.64307 0.0
C251 C 0.75374 0.43665 0.87377 0.0
C252 C 0.73229 0.4525 0.91597 0.0
C253 C 0.67572 0.4247 0.91613 0.0
C254 C 0.64557 0.44383 0.96037 0.0
C255 C 0.67617 0.49746 1.00604 0.0
C256 C 0.73702 0.52474 1.00901 0.0
C257 C 0.76215 0.50104 0.96168 0.0
C258 C 0.88124 0.47034 0.76173 0.0
C259 C 0.90065 0.54225 0.88791 0.0
O260 O 0.91084 0.57133 0.63674 0.0
O261 O 0.93039 0.60876 0.72664 0.0
O262 O 0.81658 0.51802 0.74371 0.0
O263 O 0.846 0.57846 0.76309 0.0
O264 O 0.86101 0.50291 0.64553 0.0
O265 O 0.80827 0.44517 0.69915 0.0
O266 O 0.75457 0.44429 0.80943 0.0
O267 O 0.78919 0.44273 0.8945 0.0
O268 O 0.88008 0.50075 0.78268 0.0
O269 O 0.84665 0.43647 0.77487 0.0
O270 O 0.8608 0.51202 0.89076 0.0
O271 O 0.91627 0.55787 0.82678 0.0
H272 H 0.90649 0.60755 0.53263 0.0
H273 H 0.9051 0.66215 0.47254 0.0
H274 H 0.94864 0.73813 0.64909 0.0
H275 H 0.95087 0.68315 0.70919 0.0
H276 H 0.65979 0.39693 0.88754 0.0
H277 H 0.61278 0.42847 0.955 0.0
H278 H 0.75501 0.55485 1.0299 0.0
H279 H 0.79525 0.51665 0.95875 0.0
Tb280 Tb 0.33999 0.88146 1.03418 0.0
Tb281 Tb 0.37413 0.83475 1.08942 0.0
C282 C 0.31533 0.92201 0.96966 0.0
C283 C 0.27736 0.92028 0.94826 0.0
C284 C 0.24392 0.88418 0.92478 0.0
C285 C 0.21366 0.88578 0.88704 0.0
C286 C 0.21697 0.92357 0.87135 0.0
C287 C 0.24735 0.95861 0.90368 0.0
C288 C 0.27734 0.95693 0.94143 0.0
C289 C 0.28393 0.81534 1.10471 0.0
C290 C 0.36369 0.83034 0.929 0.0
C291 C 0.38043 0.783 1.15976 0.0
C292 C 0.36303 0.73874 1.15839 0.0
C293 C 0.3317 0.71451 1.1138 0.0
C294 C 0.30671 0.67277 1.12684 0.0
C295 C 0.31181 0.65547 1.18629 0.0
C296 C 0.34795 0.67872 1.22304 0.0
C297 C 0.37306 0.72019 1.20959 0.0
C298 C 0.42645 0.89412 1.01565 0.0
C299 C 0.39058 0.9183 1.16988 0.0
O300 O 0.32417 0.89605 0.94196 0.0
O301 O 0.32361 0.92696 1.03372 0.0
O302 O 0.31151 0.81707 1.06468 0.0
O303 O 0.28727 0.85072 1.10301 0.0
O304 O 0.35433 0.85954 0.93801 0.0
O305 O 0.36652 0.81092 0.98338 0.0
O306 O 0.40602 0.80396 1.11104 0.0
O307 O 0.35408 0.7951 1.17258 0.0
O308 O 0.39984 0.89457 1.05403 0.0
O309 O 0.4301 0.86257 1.02765 0.0
O310 O 0.38962 0.88229 1.173 0.0
O311 O 0.37712 0.92659 1.11358 0.0
H312 H 0.2429 0.85531 0.93088 0.0
H313 H 0.1901 0.85802 0.8646 0.0
H314 H 0.25124 -0.01161 0.89348 0.0
H315 H 0.30264 -0.01497 0.96 0.0
H316 H 0.32412 0.7284 1.07294 0.0
H317 H 0.28008 0.65553 1.09595 0.0
H318 H 0.35372 0.66681 1.26848 0.0
H319 H 0.39776 0.73843 1.24352 0.0
Tb320 Tb 0.42557 0.32975 0.30304 0.0
Tb321 Tb 0.50638 0.38305 0.35742 0.0
C322 C 0.36084 0.28825 1.23895 0.0
C323 C 0.32982 0.2451 1.22779 0.0
C324 C 0.33397 0.22467 1.17209 0.0
C325 C 0.30012 0.18963 1.14819 0.0
C326 C 0.26087 0.17491 1.17828 0.0
C327 C 0.2591 0.19073 1.24188 0.0
C328 C 0.29299 0.22618 1.26551 0.0
C329 C 0.45718 0.2894 0.36715 0.0
C330 C 0.5021 0.38183 1.19657 0.0
C331 C 0.57001 0.4022 0.42308 0.0
C332 C 0.5987 0.38652 0.42398 0.0
C333 C 0.58537 0.34609 0.40653 0.0
C334 C 0.60889 0.32818 0.42161 0.0
C335 C 0.6464 0.35048 0.45481 0.0
C336 C 0.66216 0.39281 0.46294 0.0
C337 C 0.63819 0.41044 0.44869 0.0
C338 C 0.47573 0.42224 0.29891 0.0
C339 C 0.42507 0.36906 0.44784 0.0
O340 O 0.39753 0.30111 1.21343 0.0
O341 O 0.36168 0.30359 0.29829 0.0
O342 O 0.47628 0.31986 0.32765 0.0
O343 O 0.4194 0.28015 0.36717 0.0
O344 O 0.46151 0.36157 1.20766 0.0
O345 O 0.52649 0.38802 1.24888 0.0
O346 O 0.57 0.42127 0.36831 0.0
O347 O 0.53285 0.37671 0.4451 0.0
O348 O 0.45705 0.39014 0.33227 0.0
O349 O 0.51482 0.43878 0.30872 0.0
O350 O 0.46582 0.38281 0.44589 0.0
O351 O 0.40364 0.35032 0.393 0.0
H352 H 0.36235 0.23771 1.14295 0.0
H353 H 0.30447 0.17786 1.10112 0.0
H354 H 0.23051 0.17876 1.26996 0.0
H355 H 0.28921 0.24044 0.31023 0.0
H356 H 0.55527 0.32756 0.38615 0.0
H357 H 0.59566 0.29587 0.41344 0.0
H358 H 0.6911 0.41179 0.48713 0.0
H359 H 0.64943 0.44203 0.46136 0.0
Tb360 Tb 0.0192 0.40201 0.72342 0.0
Tb361 Tb 0.08237 0.4751 0.79902 0.0
C362 C -0.03163 0.34463 0.65344 0.0
C363 C -0.03328 0.30679 0.63013 0.0
C364 C -0.00777 0.30767 0.57712 0.0
C365 C -0.01154 0.27158 0.55243 0.0
C366 C -0.04103 0.2335 0.57996 0.0
C367 C 0.93587 0.23303 0.63672 0.0
C368 C 0.93944 0.26924 0.66112 0.0
C369 C 0.08388 0.39662 0.765 0.0
C370 C 0.07587 0.48785 0.63604 0.0
C371 C 0.13724 0.50431 0.88702 0.0
C372 C 0.15129 0.48239 0.93251 0.0
C373 C 0.20048 0.48607 0.90977 0.0
C374 C 0.21695 0.45237 0.94624 0.0
C375 C 0.17885 0.40964 1.01193 0.0
C376 C 0.12772 0.40889 1.04009 0.0
C377 C 0.11563 0.44496 0.99683 0.0
C378 C 0.02449 0.48336 0.75306 0.0
C379 C -0.00371 0.40731 0.87911 0.0
O380 O -0.00272 0.37911 0.62736 0.0
O381 O -0.03631 0.34693 0.71847 0.0
O382 O 0.08311 0.42731 0.74358 0.0
O383 O 0.04726 0.36634 0.76001 0.0
O384 O 0.04361 0.44958 0.63898 0.0
O385 O 0.09847 0.50398 0.6925 0.0
O386 O 0.14508 0.50388 0.82256 0.0
O387 O 0.10022 0.49802 0.89737 0.0
O388 O 0.02228 0.45135 0.77447 0.0
O389 O 0.05952 0.51544 0.76853 0.0
O390 O 0.03653 0.43499 0.88245 0.0
O391 O -0.01859 0.39356 0.81789 0.0
H392 H 0.01408 0.33609 0.55268 0.0
H393 H 0.00659 0.27371 0.50812 0.0
H394 H 0.91321 0.20448 0.65977 0.0
H395 H 0.91985 0.2677 0.70292 0.0
H396 H 0.21935 0.50732 0.87052 0.0
H397 H 0.24383 0.45238 0.92643 0.0
H398 H 0.10501 0.38481 1.07213 0.0
H399 H 0.08635 0.44281 1.00672 0.0
Tb400 Tb 0.60189 0.08207 1.04564 0.0
Tb401 Tb 0.54291 0.10416 1.07694 0.0
C402 C 0.65667 0.06658 1.00659 0.0
C403 C 0.66423 0.03241 1.00442 0.0
C404 C 0.70419 0.0401 0.99261 0.0
C405 C 0.71093 0.00829 0.97492 0.0
C406 C 0.67749 -0.03127 0.9666 0.0
C407 C 0.63824 0.96058 0.98835 0.0
C408 C 0.63173 -0.00773 1.0073 0.0
C409 C 0.63085 0.14815 1.12393 0.0
C410 C 0.57441 0.12274 0.92565 0.0
C411 C 0.50484 0.13668 1.12773 0.0
C412 C 0.50062 0.1714 1.10629 0.0
C413 C 0.52004 0.19294 1.04674 0.0
C414 C 0.53044 0.23368 1.0396 0.0
C415 C 0.52339 0.25353 1.09378 0.0
C416 C 0.49456 0.22858 1.1442 0.0
C417 C 0.4845 0.18803 1.1517 0.0
C418 C 0.51663 0.04367 0.99451 0.0
C419 C 0.54375 0.03265 1.16922 0.0
O420 O 0.65529 0.08007 1.06615 0.0
O421 O 0.62774 0.06411 0.96811 0.0
O422 O 0.60948 0.14121 1.07134 0.0
O423 O 0.63119 0.11517 1.13639 0.0
O424 O 0.59429 0.10304 0.94197 0.0
O425 O 0.55713 0.1328 0.97522 0.0
O426 O 0.48763 0.10445 1.08999 0.0
O427 O 0.54204 0.14618 1.14434 0.0
O428 O 0.53817 0.0487 1.04513 0.0
O429 O 0.50313 0.06899 0.99522 0.0
O430 O 0.53486 0.06274 1.16663 0.0
O431 O 0.56567 0.0302 1.11779 0.0
H432 H 0.72983 0.07101 0.99231 0.0
H433 H 0.74173 0.01546 0.96097 0.0
H434 H 0.61153 0.93064 0.98356 0.0
H435 H 0.60088 -0.01427 1.01893 0.0
H436 H 0.53123 0.17997 1.00942 0.0
H437 H 0.55004 0.25107 0.99741 0.0
H438 H 0.48532 0.24142 1.18488 0.0
H439 H 0.4681 0.17134 1.19687 0.0
Tb440 Tb 0.4904 0.60702 1.27595 0.0
Tb441 Tb 0.40969 0.57919 0.34054 0.0
C442 C 0.55547 0.62892 1.21003 0.0
C443 C 0.59747 0.66377 1.21037 0.0
C444 C 0.60545 0.7038 1.21953 0.0
C445 C 0.64448 0.73681 1.20477 0.0
C446 C 0.67578 0.73014 1.17975 0.0
C447 C 0.66876 0.68989 1.18041 0.0
C448 C 0.62988 0.6571 1.19498 0.0
C449 C 0.47908 0.6644 0.33568 0.0
C450 C 0.40894 0.56756 1.17855 0.0
C451 C 0.36002 0.58799 0.41433 0.0
C452 C 0.31869 0.56072 0.43782 0.0
C453 C 0.30238 0.57082 0.49359 0.0
C454 C 0.26523 0.54146 0.52265 0.0
C455 C 0.24582 0.50151 0.49796 0.0
C456 C 0.26119 0.49291 0.43887 0.0
C457 C 0.29739 0.52222 0.40925 0.0
C458 C 0.41464 0.51998 0.29005 0.0
C459 C 0.48249 0.57415 0.42744 0.0
O460 O 0.52677 0.63636 1.19082 0.0
O461 O 0.54426 0.6042 1.26196 0.0
O462 O 0.4548 0.63542 0.29986 0.0
O463 O 0.51258 0.66308 0.33731 0.0
O464 O 0.44892 0.5801 1.18579 0.0
O465 O 0.38721 0.56805 1.2328 0.0
O466 O 0.38644 0.57844 0.43692 0.0
O467 O 0.36453 0.59573 0.34956 0.0
O468 O 0.44313 0.55171 0.31507 0.0
O469 O 0.37901 0.51595 0.30623 0.0
O470 O 0.44729 0.57545 0.42843 0.0
O471 O 0.50315 0.58206 0.36893 0.0
H472 H 0.58094 0.7096 1.23337 0.0
H473 H 0.64893 0.76729 1.20634 0.0
H474 H 0.69171 0.68293 1.16195 0.0
H475 H 0.62446 0.6264 1.18909 0.0
H476 H 0.31878 0.60092 0.51532 0.0
H477 H 0.25274 0.54947 0.56558 0.0
H478 H 0.24566 0.46287 0.41686 0.0
H479 H 0.3097 0.51428 0.36584 0.0
C480 C 0.49178 0.22337 0.46 0.0
C481 C 0.46985 0.18599 0.42621 0.0
H482 H 0.50421 0.28519 0.46914 0.0
C483 C 0.4486 0.18518 0.36792 0.0
H484 H 0.50818 0.22515 0.50539 0.0
C485 C 0.44777 0.22 0.34561 0.0
C486 C 0.46777 0.25683 0.38118 0.0
H487 H 0.43141 0.15706 0.3405 0.0
H488 H 0.42958 0.21749 0.3022 0.0
C489 C 0.48998 0.25806 0.43861 0.0
C490 C 0.19577 0.42855 0.78397 0.0
C491 C 0.19606 0.39181 0.7851 0.0
H492 H 0.16183 0.45862 0.76842 0.0
C493 C 0.1582 0.3553 0.78036 0.0
H494 H 0.22365 0.45704 0.79014 0.0
C495 C 0.12123 0.35622 0.775 0.0
C496 C 0.12185 0.39366 0.77024 0.0
H497 H 0.15709 0.32624 0.78154 0.0
H498 H 0.09243 0.3278 0.77307 0.0
C499 C 0.15983 0.42949 0.77294 0.0
C500 C 0.70848 0.24416 1.21494 0.0
C501 C 0.74575 0.24645 1.19523 0.0
H502 H 0.64246 0.21158 1.20718 0.0
C503 C 0.74451 0.2201 1.14436 0.0
H504 H 0.70829 0.26415 1.2537 0.0
C505 C 0.70715 0.19105 1.11641 0.0
C506 C 0.66957 0.18699 1.13863 0.0
H507 H 0.77243 0.22108 1.12739 0.0
H508 H 0.70743 0.16995 1.0799 0.0
C509 C 0.67077 0.21445 1.18757 0.0
C510 C 0.50042 0.72544 0.41035 0.0
C511 C 0.47118 0.69573 0.36815 0.0
H512 H 0.51875 0.77957 0.46757 0.0
C513 C 0.43513 0.69721 0.35607 0.0
H514 H 0.5285 0.72542 0.42102 0.0
C515 C 0.4292 0.72835 0.38357 0.0
C516 C 0.45916 0.75875 0.42421 0.0
H517 H 0.41214 0.67506 0.32338 0.0
H518 H 0.40216 0.7297 0.3704 0.0
C519 C 0.49457 0.7564 0.43766 0.0
C520 C 0.72861 0.57628 0.77861 0.0
C521 C 0.69295 0.54029 0.75995 0.0
H522 H 0.79333 0.6058 0.79653 0.0
C523 C 0.69688 0.50728 0.73837 0.0
H524 H 0.72669 0.60243 0.79548 0.0
C525 C 0.73537 0.50975 0.73609 0.0
C526 C 0.77057 0.54469 0.75945 0.0
H527 H 0.66996 0.47933 0.72512 0.0
H528 H 0.73716 0.48361 0.71889 0.0
C529 C 0.76683 0.57824 0.77933 0.0
C530 C 0.24024 0.74246 1.1533 0.0
C531 C 0.24345 0.77809 1.12491 0.0
H532 H 0.20126 0.68455 1.20253 0.0
C533 C 0.20705 0.78003 1.12182 0.0
H534 H 0.26737 0.73978 1.15784 0.0
C535 C 0.16913 0.74808 1.14618 0.0
C536 C 0.1658 0.7129 1.17622 0.0
H537 H 0.20784 0.80677 1.10077 0.0
H538 H 0.14233 0.75142 1.14259 0.0
C539 C 0.20211 0.71063 1.1792 0.0
C540 C 0.54961 0.3121 1.17112 0.0
C541 C 0.5569 0.29526 1.11306 0.0
H542 H 0.55408 0.31109 0.27801 0.0
C543 C 0.59687 0.30111 1.10661 0.0
H544 H 0.52187 0.31386 1.17543 0.0
C545 C 0.61655 0.3002 1.1653 0.0
C546 C 0.59828 0.29882 1.22807 0.0
H547 H 0.60751 0.29501 1.05943 0.0
H548 H 0.64103 0.29319 1.16129 0.0
C549 C 0.56825 0.31056 1.2307 0.0
C550 C 0.19065 0.41514 0.62441 0.0
C551 C 0.20701 0.46684 0.52985 0.0
H552 H 0.13268 0.3515 0.63967 0.0
C553 C 0.17554 0.46137 0.477 0.0
H554 H 0.20862 0.40995 0.66135 0.0
C555 C 0.13523 0.41627 0.49044 0.0
C556 C 0.11871 0.37777 0.54598 0.0
H557 H 0.17943 0.481 0.43433 0.0
H558 H 0.11225 0.41041 0.45138 0.0
C559 C 0.14534 0.37856 0.60792 0.0
C560 C 0.68139 0.45731 1.08403 0.0
C561 C 0.70217 0.4554 1.01852 0.0
H562 H 0.64872 0.49078 1.11706 0.0
C563 C 0.70438 0.49435 0.91235 0.0
H564 H 0.67879 0.44208 1.13172 0.0
C565 C 0.68121 0.51863 0.93459 0.0
C566 C 0.66203 0.51674 1.00742 0.0
H567 H 0.71762 0.49847 0.86219 0.0
H568 H 0.67909 0.53852 0.8977 0.0
C569 C 0.66385 0.48837 1.07034 0.0
C570 C 0.24137 0.62953 1.22772 0.0
C571 C 0.27504 0.62328 1.22363 0.0
H572 H 0.20635 0.64512 0.29286 0.0
C573 C 0.28064 0.60351 0.27904 0.0
H574 H 0.23319 0.64139 1.18486 0.0
C575 C 0.26584 0.60679 0.34266 0.0
C576 C 0.24604 0.62985 0.3491 0.0
H577 H 0.30332 0.594 1.27631 0.0
H578 H 0.2767 0.59858 0.38655 0.0
C579 C 0.22648 0.63258 0.29105 0.0
C580 C 0.70055 0.35151 0.52804 0.0
C581 C 0.6617 0.32886 0.49864 0.0
H582 H 0.7301 0.3761 0.62147 0.0
C583 C 0.63195 0.29506 0.53633 0.0
H584 H 0.72617 0.375 0.49926 0.0
C585 C 0.63456 0.29597 0.60664 0.0
C586 C 0.66592 0.33131 0.63633 0.0
H587 H 0.60297 0.27319 0.51487 0.0
H588 H 0.60729 0.27519 0.63538 0.0
C589 C 0.70293 0.3518 0.59864 0.0
C590 C 0.14818 0.42025 0.92993 0.0
C591 C 0.18419 0.4716 1.02329 0.0
H592 H 0.13999 0.35584 0.91704 0.0
C593 C 0.20903 0.46515 1.07722 0.0
H594 H 0.12548 0.41577 0.8925 0.0
C595 C 0.20226 0.41933 1.06578 0.0
C596 C 0.17947 0.38095 1.0112 0.0
H597 H 0.22485 0.48446 1.11961 0.0
H598 H 0.21837 0.41271 1.1058 0.0
C599 C 0.15488 0.38272 0.94829 0.0
C600 C 0.43084 -0.00607 1.2112 0.0
C601 C 0.40972 0.95137 1.22618 0.0
H602 H 0.46342 0.05634 1.24705 0.0
C603 C 0.40625 0.94161 0.29592 0.0
H604 H 0.43484 0.00379 1.159 0.0
C605 C 0.42171 -0.02775 0.34715 0.0
C606 C 0.44315 0.01478 0.33227 0.0
H607 H 0.39055 0.90992 0.31142 0.0
H608 H 0.41714 0.96233 0.39937 0.0
C609 C 0.44766 0.02463 1.26243 0.0
C610 C 0.3706 0.38626 0.49579 0.0
C611 C 0.40378 0.37922 0.50695 0.0
H612 H 0.32592 0.40111 0.53671 0.0
C613 C 0.4153 0.38168 0.57531 0.0
H614 H 0.36027 0.38516 0.44479 0.0
C615 C 0.39428 0.38953 0.62907 0.0
C616 C 0.36134 0.39692 0.61783 0.0
H617 H 0.44033 0.37672 0.58777 0.0
H618 H 0.40451 0.39047 0.6801 0.0
C619 C 0.35058 0.39559 0.54926 0.0
C620 C 0.92455 0.38361 0.93737 0.0
C621 C -0.03321 0.39555 0.94243 0.0
H622 H 0.86597 0.36541 0.98732 0.0
C623 C -0.01997 0.39669 1.00942 0.0
H624 H 0.91216 0.38233 0.88796 0.0
C625 C -0.04715 0.38581 1.06705 0.0
C626 C 0.91074 0.37427 1.06224 0.0
H627 H 0.01168 0.40548 1.01764 0.0
H628 H -0.03466 0.38699 1.11633 0.0
C629 C 0.89759 0.37391 0.99533 0.0
C630 C 0.49004 0.92733 1.26596 0.0
C631 C 0.49544 0.93773 0.33524 0.0
H632 H 0.50124 0.9475 1.16136 0.0
C633 C 0.5167 -0.01986 0.34855 0.0
H634 H 0.47408 0.89551 1.25221 0.0
C635 C 0.53111 0.01032 0.29588 0.0
C636 C 0.52666 -4e-05 1.22659 0.0
H637 H 0.5217 -0.00979 0.40041 0.0
H638 H 0.54656 0.04213 0.30969 0.0
C639 C 0.50592 0.95754 1.21322 0.0
C640 C 0.50785 0.55747 0.61449 0.0
C641 C 0.52976 0.53603 0.60733 0.0
H642 H 0.47531 0.58472 0.56783 0.0
C643 C 0.53472 0.52682 0.53963 0.0
H644 H 0.50261 0.56548 0.66459 0.0
C645 C 0.51995 0.53926 0.48309 0.0
C646 C 0.49785 0.5605 0.49023 0.0
H647 H 0.55105 0.51059 0.52984 0.0
H648 H 0.52564 0.53168 0.43296 0.0
C649 C 0.49181 0.56866 0.55807 0.0
C650 C 0.94702 0.56668 1.07345 0.0
C651 C -0.01014 0.58144 1.0638 0.0
H652 H 0.88629 0.54226 1.03056 0.0
C653 C 0.00181 0.58232 0.99517 0.0
H654 H 0.93519 0.56463 1.12428 0.0
C655 C -0.02656 0.57037 0.94043 0.0
C656 C 0.93057 0.55522 0.94986 0.0
H657 H 0.03371 0.5929 0.98318 0.0
H658 H -0.01457 0.57253 0.88968 0.0
C659 C 0.91832 0.55343 1.01868 0.0
C660 C 0.45828 0.00075 0.60483 0.0
C661 C 0.49978 0.02237 0.58507 0.0
H662 H 0.40505 0.94174 0.61364 0.0
C663 C 0.52329 0.00347 0.58621 0.0
H664 H 0.44036 0.01571 0.60767 0.0
C665 C 0.50327 0.96135 0.59127 0.0
C666 C 0.46027 0.93904 0.59406 0.0
H667 H 0.55565 0.02007 0.57299 0.0
H668 H 0.52078 0.94635 0.5828 0.0
C669 C 0.43818 0.9586 0.60895 0.0
C670 C 0.4515 0.51802 0.84648 0.0
C671 C 0.41314 0.48308 0.84324 0.0
H672 H 0.51532 0.53937 0.84768 0.0
C673 C 0.40722 0.44558 0.8671 0.0
H674 H 0.45617 0.54749 0.83115 0.0
C675 C 0.44077 0.44068 0.87491 0.0
C676 C 0.47906 0.47352 0.85845 0.0
H677 H 0.37731 0.41859 0.86815 0.0
H678 H 0.43605 0.41019 0.88048 0.0
C679 C 0.48511 0.51321 0.85601 0.0
C680 C 0.94136 0.4385 0.30629 0.0
C681 C 0.91103 0.44878 0.29518 0.0
H682 H 0.00565 0.46067 0.30531 0.0
C683 C 0.91994 0.48905 0.29955 0.0
H684 H 0.93428 0.40716 0.30639 0.0
C685 C -0.03944 0.51951 0.29981 0.0
C686 C -0.00879 0.50893 0.29507 0.0
H687 H 0.89635 0.49713 0.29378 0.0
H688 H -0.03232 0.55077 0.29438 0.0
C689 C -0.01803 0.46892 0.30607 0.0
C690 C -0.01108 0.51787 0.71317 0.0
C691 C -0.00836 0.48272 0.71627 0.0
H692 H 0.94824 0.5408 0.72285 0.0
C693 C -0.04276 0.44449 0.70347 0.0
H694 H 0.01562 0.54771 0.71961 0.0
C695 C 0.91868 0.44011 0.70892 0.0
C696 C 0.91594 0.47447 0.72379 0.0
H697 H -0.04048 0.41721 0.70128 0.0
H698 H 0.89197 0.40986 0.71114 0.0
C699 C 0.95037 0.51365 0.71601 0.0
C700 C 0.43484 0.94939 0.94233 0.0
C701 C 0.45122 0.92631 0.96823 0.0
H702 H 0.44639 0.00952 0.92489 0.0
C703 C 0.4935 0.94182 0.96699 0.0
H704 H 0.40219 0.93727 0.94064 0.0
C705 C 0.51882 -0.01648 0.95878 0.0
C706 C 0.50079 0.00791 0.95295 0.0
H707 H 0.50651 0.92377 0.98467 0.0
H708 H 0.55088 -0.00309 0.9706 0.0
C709 C 0.46024 -0.00918 0.93293 0.0
C710 C 0.46166 0.50406 1.2313 0.0
C711 C 0.42204 0.49031 1.25744 0.0
H712 H 0.51117 0.4921 1.22608 0.0
C713 C 0.39605 0.44919 1.27235 0.0
H714 H 0.48146 0.53559 1.21685 0.0
C715 C 0.41291 0.42414 1.27649 0.0
C716 C 0.45537 0.44104 1.26644 0.0
H717 H 0.36501 0.43808 0.29088 0.0
H718 H 0.394 0.39356 0.29635 0.0
C719 C 0.47874 0.4794 1.2368 0.0
C720 C 0.20143 0.90934 0.74981 0.0
C721 C 0.19898 0.92897 0.80837 0.0
H722 H 0.21956 0.91656 0.64676 0.0
C723 C 0.19415 0.96319 0.80028 0.0
H724 H 0.20342 0.8819 0.75286 0.0
C725 C 0.20354 -0.01647 0.73795 0.0
C726 C 0.21812 -0.03021 0.68407 0.0
H727 H 0.1896 -0.02223 0.84386 0.0
H728 H 0.20585 0.01312 0.73546 0.0
C729 C 0.21087 0.92964 0.68779 0.0
C730 C 0.22803 0.14515 1.06782 0.0
C731 C 0.22363 0.15545 1.13452 0.0
H732 H 0.23112 0.16318 0.96506 0.0
C733 C 0.19308 0.16606 1.14563 0.0
H734 H 0.24639 0.13119 1.05666 0.0
C735 C 0.18195 0.18243 1.09237 0.0
C736 C 0.20108 0.18748 1.02889 0.0
H737 H 0.18384 0.16954 1.19588 0.0
H738 H 0.1648 0.19766 1.1038 0.0
C739 C 0.21856 0.16303 1.01458 0.0
C740 C -0.03999 0.18303 0.42515 0.0
C741 C 0.9208 0.1757 0.4079 0.0
H742 H 0.00551 0.20985 0.50119 0.0
C743 C 0.89087 0.16035 0.45998 0.0
H744 H -0.0169 0.19018 0.3861 0.0
C745 C 0.90342 0.172 0.52612 0.0
C746 C 0.94555 0.19616 0.5388 0.0
H747 H 0.85891 0.14909 0.44945 0.0
H748 H 0.88048 0.16906 0.56274 0.0
C749 C -0.027 0.19471 0.49135 0.0
C750 C 0.70292 0.95705 0.85736 0.0
C751 C 0.68051 0.94051 0.91789 0.0
H752 H 0.70349 0.9514 0.7507 0.0
C753 C 0.65119 0.89873 0.92001 0.0
H754 H 0.72653 -0.01125 0.85336 0.0
C755 C 0.63745 0.87721 0.85996 0.0
C756 C 0.65381 0.89711 0.7979 0.0
H757 H 0.63481 0.8844 0.96652 0.0
H758 H 0.61084 0.8469 0.86159 0.0
C759 C 0.68953 0.93545 0.79762 0.0
C760 C 0.74258 0.75625 1.11803 0.0
C761 C 0.70834 0.76052 1.13337 0.0
H762 H 0.77104 0.73956 1.04002 0.0
C763 C 0.69507 0.77682 1.08238 0.0
H764 H 0.75641 0.74738 1.15708 0.0
C765 C 0.70299 0.77184 1.01513 0.0
C766 C 0.72464 0.75136 1.00043 0.0
H767 H 0.67137 0.78438 1.09241 0.0
H768 H 0.68503 0.77605 0.97731 0.0
C769 C 0.75077 0.75147 1.05057 0.0
C770 C 0.93395 0.75433 0.39455 0.0
C771 C -0.02283 0.77689 0.39554 0.0
H772 H 0.88135 0.70991 0.45055 0.0
C773 C -0.00628 0.79628 0.45716 0.0
H774 H 0.91772 0.74441 0.34766 0.0
C775 C -0.02641 0.77602 0.51695 0.0
C776 C 0.93496 0.74047 0.51323 0.0
H777 H 0.02547 0.82008 0.45988 0.0
H778 H -0.00906 0.78424 0.56294 0.0
C779 C 0.91276 0.73451 0.45387 0.0
C780 C 0.51355 0.12464 0.76844 0.0
C781 C 0.53707 0.12532 0.71153 0.0
H782 H 0.50688 0.12488 0.87682 0.0
C783 C 0.57451 0.12671 0.72649 0.0
H784 H 0.48447 0.12318 0.76084 0.0
C785 C 0.58703 0.12634 0.79441 0.0
C786 C 0.56358 0.1261 0.85131 0.0
H787 H 0.59369 0.12662 0.68536 0.0
H788 H 0.61525 0.12609 0.80227 0.0
C789 C 0.52672 0.12575 0.83599 0.0
C790 C 0.32788 0.49854 1.04161 0.0
C791 C 0.3502 0.50887 0.97924 0.0
H792 H 0.32679 0.50847 1.14948 0.0
C793 C 0.39192 0.53992 0.98418 0.0
H794 H 0.29617 0.4744 1.0424 0.0
C795 C 0.41021 0.55877 1.04702 0.0
C796 C 0.38789 0.54876 1.1094 0.0
H797 H 0.41124 0.54887 0.93928 0.0
H798 H 0.44251 0.58135 1.0466 0.0
C799 C 0.34584 0.51834 1.1042 0.0
C800 C 0.82566 0.43461 0.45005 0.0
C801 C 0.82046 0.39482 0.4495 0.0
H802 H 0.83404 0.48692 0.50739 0.0
C803 C 0.81774 0.37777 0.51462 0.0
H804 H 0.82858 0.44987 0.4024 0.0
C805 C 0.81937 0.39882 0.57599 0.0
C806 C 0.82557 0.43904 0.57646 0.0
H807 H 0.81409 0.34766 0.51838 0.0
H808 H 0.81702 0.38381 0.62366 0.0
C809 C 0.82894 0.45626 0.5113 0.0
C810 C 0.3683 0.82091 0.73225 0.0
C811 C 0.4065 0.82319 0.71844 0.0
H812 H 0.32569 0.82209 0.8056 0.0
C813 C 0.42943 0.82587 0.7763 0.0
H814 H 0.34944 0.81953 0.69058 0.0
C815 C 0.41469 0.82569 0.84367 0.0
C816 C 0.37686 0.82433 0.85709 0.0
H817 H 0.4591 0.82823 0.76963 0.0
H818 H 0.43398 0.82837 0.8855 0.0
C819 C 0.35438 0.82233 0.79921 0.0
C820 C 0.55971 0.46579 1.05519 0.0
C821 C 0.55049 0.44421 0.99344 0.0
H822 H 0.55419 0.46422 1.16446 0.0
C823 C 0.52564 0.40118 1.0006 0.0
H824 H 0.57816 0.49867 1.05399 0.0
C825 C 0.51032 0.38122 1.06487 0.0
C826 C 0.52018 0.4028 1.12658 0.0
H827 H 0.51691 0.38262 0.95578 0.0
H828 H 0.49068 0.34845 1.06613 0.0
C829 C 0.54577 0.44569 1.11962 0.0
C830 C 0.09098 0.5014 0.50427 0.0
C831 C 0.08337 0.5136 0.5685 0.0
H832 H 0.10004 0.51117 0.39554 0.0
C833 C 0.07852 0.5485 0.56478 0.0
H834 H 0.09435 0.47472 0.502 0.0
C835 C 0.08049 0.56908 0.50202 0.0
C836 C 0.08866 0.55727 0.43781 0.0
H837 H 0.07168 0.5594 0.61085 0.0
H838 H 0.07534 0.59469 0.5041 0.0
C839 C 0.09428 0.52279 0.44176 0.0
loop_
_geom_bond_atom_site_label_1
_geom_bond_atom_site_label_2
_geom_bond_distance
_geom_bond_site_symmetry_2
_ccdc_geom_bond_type
Tb0 C2 2.809 . S
Tb0 O20 2.484 . S
Tb0 O21 2.440 . S
Tb0 O22 2.658 . S
Tb0 O23 2.409 . S
Tb0 O24 2.378 . S
Tb0 O28 2.325 . S
Tb0 O31 2.341 . S
Tb1 C11 2.809 . S
Tb1 O22 2.325 . S
Tb1 O25 2.341 . S
Tb1 O26 2.484 . S
Tb1 O27 2.440 . S
Tb1 O28 2.658 . S
Tb1 O29 2.409 . S
Tb1 O30 2.378 . S
C2 Tb0 2.809 . S
C2 C3 1.514 . S
C2 O20 1.248 . S
C2 O21 1.266 . S
C3 C2 1.514 . S
C3 C4 1.359 . S
C3 C8 1.348 . S
C4 C3 1.359 . S
C4 C5 1.380 . S
C4 H32 0.929 . S
C5 C4 1.380 . S
C5 C6 1.347 . S
C5 H33 0.931 . S
C6 C5 1.347 . S
C6 C7 1.369 . S
C7 C6 1.369 . S
C7 C8 1.408 . S
C7 H34 0.930 . S
C8 C3 1.348 . S
C8 C7 1.408 . S
C8 H35 0.930 . S
C9 O22 1.281 . S
C9 O23 1.254 . S
C10 O24 1.236 . S
C10 O25 1.266 . S
C11 Tb1 2.809 . S
C11 C12 1.514 . S
C11 O26 1.248 . S
C11 O27 1.266 . S
C12 C11 1.514 . S
C12 C13 1.359 . S
C12 C17 1.348 . S
C13 C12 1.359 . S
C13 C14 1.380 . S
C13 H36 0.929 . S
C14 C13 1.380 . S
C14 C15 1.347 1_554 S
C14 H37 0.931 1_554 S
C15 C14 1.347 1_556 S
C15 C16 1.369 1_556 S
C16 C15 1.369 1_554 S
C16 C17 1.408 . S
C16 H38 0.930 . S
C17 C12 1.348 . S
C17 C16 1.408 . S
C17 H39 0.930 . S
C18 O28 1.281 . S
C18 O29 1.254 . S
C19 O30 1.236 . S
C19 O31 1.266 . S
O20 Tb0 2.484 . S
O20 C2 1.248 . S
O21 Tb0 2.440 . S
O21 C2 1.266 . S
O22 Tb0 2.658 . S
O22 Tb1 2.325 . S
O22 C9 1.281 . S
O23 Tb0 2.409 . S
O23 C9 1.254 . S
O24 Tb0 2.378 . S
O24 C10 1.236 . S
O25 Tb1 2.341 . S
O25 C10 1.266 . S
O26 Tb1 2.484 . S
O26 C11 1.248 . S
O27 Tb1 2.440 . S
O27 C11 1.266 . S
O28 Tb0 2.325 . S
O28 Tb1 2.658 . S
O28 C18 1.281 . S
O29 Tb1 2.409 . S
O29 C18 1.254 . S
O30 Tb1 2.378 . S
O30 C19 1.236 . S
O31 Tb0 2.341 . S
O31 C19 1.266 . S
H32 C4 0.929 . S
H33 C5 0.931 . S
H34 C7 0.930 . S
H35 C8 0.930 . S
H36 C13 0.929 . S
H37 C14 0.931 1_556 S
H38 C16 0.930 . S
H39 C17 0.930 . S
Tb40 C42 2.809 . S
Tb40 O60 2.484 . S
Tb40 O61 2.440 . S
Tb40 O62 2.658 . S
Tb40 O63 2.409 . S
Tb40 O64 2.378 . S
Tb40 O68 2.325 . S
Tb40 O71 2.341 . S
Tb41 C51 2.809 . S
Tb41 O62 2.325 . S
Tb41 O65 2.341 . S
Tb41 O66 2.484 . S
Tb41 O67 2.440 . S
Tb41 O68 2.658 . S
Tb41 O69 2.409 . S
Tb41 O70 2.378 . S
C42 Tb40 2.809 . S
C42 C43 1.514 . S
C42 O60 1.248 . S
C42 O61 1.266 . S
C43 C42 1.514 . S
C43 C44 1.359 . S
C43 C48 1.348 . S
C44 C43 1.359 . S
C44 C45 1.380 . S
C44 H72 0.929 . S
C45 C44 1.380 . S
C45 C46 1.347 . S
C45 H73 0.931 . S
C46 C45 1.347 . S
C46 C47 1.369 . S
C47 C46 1.369 . S
C47 C48 1.408 . S
C47 H74 0.930 . S
C48 C43 1.348 . S
C48 C47 1.408 . S
C48 H75 0.930 . S
C49 O62 1.281 . S
C49 O63 1.254 . S
C50 O64 1.236 . S
C50 O65 1.266 . S
C51 Tb41 2.809 . S
C51 C52 1.514 . S
C51 O66 1.248 . S
C51 O67 1.266 . S
C52 C51 1.514 . S
C52 C53 1.359 . S
C52 C57 1.348 . S
C53 C52 1.359 . S
C53 C54 1.380 . S
C53 H76 0.929 . S
C54 C53 1.380 . S
C54 C55 1.347 . S
C54 H77 0.931 . S
C55 C54 1.347 . S
C55 C56 1.369 . S
C56 C55 1.369 . S
C56 C57 1.408 . S
C56 H78 0.930 . S
C57 C52 1.348 . S
C57 C56 1.408 . S
C57 H79 0.930 . S
C58 O68 1.281 . S
C58 O69 1.254 . S
C59 O70 1.236 . S
C59 O71 1.266 . S
O60 Tb40 2.484 . S
O60 C42 1.248 . S
O61 Tb40 2.440 . S
O61 C42 1.266 . S
O62 Tb40 2.658 . S
O62 Tb41 2.325 . S
O62 C49 1.281 . S
O63 Tb40 2.409 . S
O63 C49 1.254 . S
O64 Tb40 2.378 . S
O64 C50 1.236 . S
O65 Tb41 2.341 . S
O65 C50 1.266 . S
O66 Tb41 2.484 . S
O66 C51 1.248 . S
O67 Tb41 2.440 . S
O67 C51 1.266 . S
O68 Tb40 2.325 . S
O68 Tb41 2.658 . S
O68 C58 1.281 . S
O69 Tb41 2.409 . S
O69 C58 1.254 . S
O70 Tb41 2.378 . S
O70 C59 1.236 . S
O71 Tb40 2.341 . S
O71 C59 1.266 . S
H72 C44 0.929 . S
H73 C45 0.931 . S
H74 C47 0.930 . S
H75 C48 0.930 . S
H76 C53 0.929 . S
H77 C54 0.931 . S
H78 C56 0.930 . S
H79 C57 0.930 . S
Tb80 C82 2.809 1_556 S
Tb80 O100 2.484 1_556 S
Tb80 O101 2.440 1_556 S
Tb80 O102 2.658 . S
Tb80 O103 2.409 . S
Tb80 O104 2.378 . S
Tb80 O108 2.325 . S
Tb80 O111 2.341 . S
Tb81 C91 2.809 . S
Tb81 O102 2.325 . S
Tb81 O105 2.341 . S
Tb81 O106 2.484 . S
Tb81 O107 2.440 . S
Tb81 O108 2.658 . S
Tb81 O109 2.409 . S
Tb81 O110 2.378 . S
C82 Tb80 2.809 1_554 S
C82 C83 1.514 . S
C82 O100 1.248 . S
C82 O101 1.266 . S
C83 C82 1.514 . S
C83 C84 1.359 . S
C83 C88 1.348 . S
C84 C83 1.359 . S
C84 C85 1.380 . S
C84 H112 0.929 . S
C85 C84 1.380 . S
C85 C86 1.347 . S
C85 H113 0.931 . S
C86 C85 1.347 . S
C86 C87 1.369 . S
C87 C86 1.369 . S
C87 C88 1.408 . S
C87 H114 0.930 . S
C88 C83 1.348 . S
C88 C87 1.408 . S
C88 H115 0.930 . S
C89 O102 1.281 . S
C89 O103 1.254 . S
C90 O104 1.236 . S
C90 O105 1.266 . S
C91 Tb81 2.809 . S
C91 C92 1.514 . S
C91 O106 1.248 . S
C91 O107 1.266 . S
C92 C91 1.514 . S
C92 C93 1.359 . S
C92 C97 1.348 . S
C93 C92 1.359 . S
C93 C94 1.380 . S
C93 H116 0.929 . S
C94 C93 1.380 . S
C94 C95 1.347 . S
C94 H117 0.931 . S
C95 C94 1.347 . S
C95 C96 1.369 . S
C96 C95 1.369 . S
C96 C97 1.408 . S
C96 H118 0.930 . S
C97 C92 1.348 . S
C97 C96 1.408 . S
C97 H119 0.930 . S
C98 O108 1.281 . S
C98 O109 1.254 . S
C99 O110 1.236 . S
C99 O111 1.266 . S
O100 Tb80 2.484 1_554 S
O100 C82 1.248 . S
O101 Tb80 2.440 1_554 S
O101 C82 1.266 . S
O102 Tb80 2.658 . S
O102 Tb81 2.325 . S
O102 C89 1.281 . S
O103 Tb80 2.409 . S
O103 C89 1.254 . S
O104 Tb80 2.378 . S
O104 C90 1.236 . S
O105 Tb81 2.341 . S
O105 C90 1.266 . S
O106 Tb81 2.484 . S
O106 C91 1.248 . S
O107 Tb81 2.440 . S
O107 C91 1.266 . S
O108 Tb80 2.325 . S
O108 Tb81 2.658 . S
O108 C98 1.281 . S
O109 Tb81 2.409 . S
O109 C98 1.254 . S
O110 Tb81 2.378 . S
O110 C99 1.236 . S
O111 Tb80 2.341 . S
O111 C99 1.266 . S
H112 C84 0.929 . S
H113 C85 0.931 . S
H114 C87 0.930 . S
H115 C88 0.930 . S
H116 C93 0.929 . S
H117 C94 0.931 . S
H118 C96 0.930 . S
H119 C97 0.930 . S
Tb120 C122 2.809 . S
Tb120 O140 2.484 . S
Tb120 O141 2.440 . S
Tb120 O142 2.658 . S
Tb120 O143 2.409 . S
Tb120 O144 2.378 . S
Tb120 O148 2.325 . S
Tb120 O151 2.341 . S
Tb121 C131 2.809 . S
Tb121 O142 2.325 . S
Tb121 O145 2.341 . S
Tb121 O146 2.484 . S
Tb121 O147 2.440 . S
Tb121 O148 2.658 . S
Tb121 O149 2.409 . S
Tb121 O150 2.378 . S
C122 Tb120 2.809 . S
C122 C123 1.514 . S
C122 O140 1.248 . S
C122 O141 1.266 . S
C123 C122 1.514 . S
C123 C124 1.359 . S
C123 C128 1.348 . S
C124 C123 1.359 . S
C124 C125 1.380 . S
C124 H152 0.929 . S
C125 C124 1.380 . S
C125 C126 1.347 . S
C125 H153 0.931 . S
C126 C125 1.347 . S
C126 C127 1.369 . S
C127 C126 1.369 . S
C127 C128 1.408 . S
C127 H154 0.930 . S
C128 C123 1.348 . S
C128 C127 1.408 . S
C128 H155 0.930 . S
C129 O142 1.281 . S
C129 O143 1.254 . S
C130 O144 1.236 . S
C130 O145 1.266 . S
C131 Tb121 2.809 . S
C131 C132 1.514 . S
C131 O146 1.248 . S
C131 O147 1.266 . S
C132 C131 1.514 . S
C132 C133 1.359 . S
C132 C137 1.348 . S
C133 C132 1.359 . S
C133 C134 1.380 . S
C133 H156 0.929 . S
C134 C133 1.380 . S
C134 C135 1.347 1_554 S
C134 H157 0.931 1_554 S
C135 C134 1.347 1_556 S
C135 C136 1.369 1_556 S
C136 C135 1.369 1_554 S
C136 C137 1.408 . S
C136 H158 0.930 . S
C137 C132 1.348 . S
C137 C136 1.408 . S
C137 H159 0.930 . S
C138 O148 1.281 . S
C138 O149 1.254 . S
C139 O150 1.236 . S
C139 O151 1.266 . S
O140 Tb120 2.484 . S
O140 C122 1.248 . S
O141 Tb120 2.440 . S
O141 C122 1.266 . S
O142 Tb120 2.658 . S
O142 Tb121 2.325 . S
O142 C129 1.281 . S
O143 Tb120 2.409 . S
O143 C129 1.254 . S
O144 Tb120 2.378 . S
O144 C130 1.236 . S
O145 Tb121 2.341 . S
O145 C130 1.266 . S
O146 Tb121 2.484 . S
O146 C131 1.248 . S
O147 Tb121 2.440 . S
O147 C131 1.266 . S
O148 Tb120 2.325 . S
O148 Tb121 2.658 . S
O148 C138 1.281 . S
O149 Tb121 2.409 . S
O149 C138 1.254 . S
O150 Tb121 2.378 . S
O150 C139 1.236 . S
O151 Tb120 2.341 . S
O151 C139 1.266 . S
H152 C124 0.929 . S
H153 C125 0.931 . S
H154 C127 0.930 . S
H155 C128 0.930 . S
H156 C133 0.929 . S
H157 C134 0.931 1_556 S
H158 C136 0.930 . S
H159 C137 0.930 . S
Tb160 C162 2.809 . S
Tb160 O180 2.484 . S
Tb160 O181 2.440 . S
Tb160 O182 2.658 . S
Tb160 O183 2.409 . S
Tb160 O184 2.378 . S
Tb160 O188 2.325 . S
Tb160 O191 2.341 . S
Tb161 C171 2.809 . S
Tb161 O182 2.325 . S
Tb161 O185 2.341 . S
Tb161 O186 2.484 . S
Tb161 O187 2.440 . S
Tb161 O188 2.658 . S
Tb161 O189 2.409 . S
Tb161 O190 2.378 . S
C162 Tb160 2.809 . S
C162 C163 1.514 . S
C162 O180 1.248 . S
C162 O181 1.266 . S
C163 C162 1.514 . S
C163 C164 1.359 . S
C163 C168 1.348 . S
C164 C163 1.359 . S
C164 C165 1.380 . S
C164 H192 0.929 . S
C165 C164 1.380 . S
C165 C166 1.347 . S
C165 H193 0.931 . S
C166 C165 1.347 . S
C166 C167 1.369 . S
C167 C166 1.369 . S
C167 C168 1.408 . S
C167 H194 0.930 . S
C168 C163 1.348 . S
C168 C167 1.408 . S
C168 H195 0.930 . S
C169 O182 1.281 . S
C169 O183 1.254 . S
C170 O184 1.236 . S
C170 O185 1.266 . S
C171 Tb161 2.809 . S
C171 C172 1.514 . S
C171 O186 1.248 . S
C171 O187 1.266 . S
C172 C171 1.514 . S
C172 C173 1.359 . S
C172 C177 1.348 . S
C173 C172 1.359 . S
C173 C174 1.380 . S
C173 H196 0.929 . S
C174 C173 1.380 . S
C174 C175 1.347 . S
C174 H197 0.931 . S
C175 C174 1.347 . S
C175 C176 1.369 . S
C176 C175 1.369 . S
C176 C177 1.408 . S
C176 H198 0.930 . S
C177 C172 1.348 . S
C177 C176 1.408 . S
C177 H199 0.930 . S
C178 O188 1.281 . S
C178 O189 1.254 . S
C179 O190 1.236 . S
C179 O191 1.266 . S
O180 Tb160 2.484 . S
O180 C162 1.248 . S
O181 Tb160 2.440 . S
O181 C162 1.266 . S
O182 Tb160 2.658 . S
O182 Tb161 2.325 . S
O182 C169 1.281 . S
O183 Tb160 2.409 . S
O183 C169 1.254 . S
O184 Tb160 2.378 . S
O184 C170 1.236 . S
O185 Tb161 2.341 . S
O185 C170 1.266 . S
O186 Tb161 2.484 . S
O186 C171 1.248 . S
O187 Tb161 2.440 . S
O187 C171 1.266 . S
O188 Tb160 2.325 . S
O188 Tb161 2.658 . S
O188 C178 1.281 . S
O189 Tb161 2.409 . S
O189 C178 1.254 . S
O190 Tb161 2.378 . S
O190 C179 1.236 . S
O191 Tb160 2.341 . S
O191 C179 1.266 . S
H192 C164 0.929 . S
H193 C165 0.931 . S
H194 C167 0.930 . S
H195 C168 0.930 . S
H196 C173 0.929 . S
H197 C174 0.931 . S
H198 C176 0.930 . S
H199 C177 0.930 . S
Tb200 C202 2.809 1_556 S
Tb200 O220 2.484 1_556 S
Tb200 O221 2.440 1_556 S
Tb200 O222 2.658 . S
Tb200 O223 2.409 . S
Tb200 O224 2.378 . S
Tb200 O228 2.325 . S
Tb200 O231 2.341 . S
Tb201 C211 2.809 . S
Tb201 O222 2.325 . S
Tb201 O225 2.341 . S
Tb201 O226 2.484 . S
Tb201 O227 2.440 . S
Tb201 O228 2.658 . S
Tb201 O229 2.409 . S
Tb201 O230 2.378 . S
C202 Tb200 2.809 1_554 S
C202 C203 1.514 . S
C202 O220 1.248 . S
C202 O221 1.266 . S
C203 C202 1.514 . S
C203 C204 1.359 . S
C203 C208 1.348 . S
C204 C203 1.359 . S
C204 C205 1.380 . S
C204 H232 0.929 . S
C205 C204 1.380 . S
C205 C206 1.347 . S
C205 H233 0.931 . S
C206 C205 1.347 . S
C206 C207 1.369 . S
C207 C206 1.369 . S
C207 C208 1.408 . S
C207 H234 0.930 . S
C208 C203 1.348 . S
C208 C207 1.408 . S
C208 H235 0.930 . S
C209 O222 1.281 . S
C209 O223 1.254 . S
C210 O224 1.236 . S
C210 O225 1.266 . S
C211 Tb201 2.809 . S
C211 C212 1.514 . S
C211 O226 1.248 . S
C211 O227 1.266 . S
C212 C211 1.514 . S
C212 C213 1.359 . S
C212 C217 1.348 . S
C213 C212 1.359 . S
C213 C214 1.380 . S
C213 H236 0.929 . S
C214 C213 1.380 . S
C214 C215 1.347 . S
C214 H237 0.931 . S
C215 C214 1.347 . S
C215 C216 1.369 . S
C216 C215 1.369 . S
C216 C217 1.408 . S
C216 H238 0.930 . S
C217 C212 1.348 . S
C217 C216 1.408 . S
C217 H239 0.930 . S
C218 O228 1.281 . S
C218 O229 1.254 . S
C219 O230 1.236 . S
C219 O231 1.266 . S
O220 Tb200 2.484 1_554 S
O220 C202 1.248 . S
O221 Tb200 2.440 1_554 S
O221 C202 1.266 . S
O222 Tb200 2.658 . S
O222 Tb201 2.325 . S
O222 C209 1.281 . S
O223 Tb200 2.409 . S
O223 C209 1.254 . S
O224 Tb200 2.378 . S
O224 C210 1.236 . S
O225 Tb201 2.341 . S
O225 C210 1.266 . S
O226 Tb201 2.484 . S
O226 C211 1.248 . S
O227 Tb201 2.440 . S
O227 C211 1.266 . S
O228 Tb200 2.325 . S
O228 Tb201 2.658 . S
O228 C218 1.281 . S
O229 Tb201 2.409 . S
O229 C218 1.254 . S
O230 Tb201 2.378 . S
O230 C219 1.236 . S
O231 Tb200 2.341 . S
O231 C219 1.266 . S
H232 C204 0.929 . S
H233 C205 0.931 . S
H234 C207 0.930 . S
H235 C208 0.930 . S
H236 C213 0.929 . S
H237 C214 0.931 . S
H238 C216 0.930 . S
H239 C217 0.930 . S
Tb240 C242 2.809 . S
Tb240 O260 2.484 . S
Tb240 O261 2.440 . S
Tb240 O262 2.658 . S
Tb240 O263 2.409 . S
Tb240 O264 2.378 . S
Tb240 O268 2.325 . S
Tb240 O271 2.341 . S
Tb241 C251 2.809 . S
Tb241 O262 2.325 . S
Tb241 O265 2.341 . S
Tb241 O266 2.484 . S
Tb241 O267 2.440 . S
Tb241 O268 2.658 . S
Tb241 O269 2.409 . S
Tb241 O270 2.378 . S
C242 Tb240 2.809 . S
C242 C243 1.514 . S
C242 O260 1.248 . S
C242 O261 1.266 . S
C243 C242 1.514 . S
C243 C244 1.359 . S
C243 C248 1.348 . S
C244 C243 1.359 . S
C244 C245 1.380 . S
C244 H272 0.929 . S
C245 C244 1.380 . S
C245 C246 1.347 . S
C245 H273 0.931 . S
C246 C245 1.347 . S
C246 C247 1.369 . S
C247 C246 1.369 . S
C247 C248 1.408 . S
C247 H274 0.930 . S
C248 C243 1.348 . S
C248 C247 1.408 . S
C248 H275 0.930 . S
C249 O262 1.281 . S
C249 O263 1.254 . S
C250 O264 1.236 . S
C250 O265 1.266 . S
C251 Tb241 2.809 . S
C251 C252 1.514 . S
C251 O266 1.248 . S
C251 O267 1.266 . S
C252 C251 1.514 . S
C252 C253 1.359 . S
C252 C257 1.348 . S
C253 C252 1.359 . S
C253 C254 1.380 . S
C253 H276 0.929 . S
C254 C253 1.380 . S
C254 C255 1.347 . S
C254 H277 0.931 . S
C255 C254 1.347 . S
C255 C256 1.369 . S
C256 C255 1.369 . S
C256 C257 1.408 . S
C256 H278 0.930 . S
C257 C252 1.348 . S
C257 C256 1.408 . S
C257 H279 0.930 . S
C258 O268 1.281 . S
C258 O269 1.254 . S
C259 O270 1.236 . S
C259 O271 1.266 . S
O260 Tb240 2.484 . S
O260 C242 1.248 . S
O261 Tb240 2.440 . S
O261 C242 1.266 . S
O262 Tb240 2.658 . S
O262 Tb241 2.325 . S
O262 C249 1.281 . S
O263 Tb240 2.409 . S
O263 C249 1.254 . S
O264 Tb240 2.378 . S
O264 C250 1.236 . S
O265 Tb241 2.341 . S
O265 C250 1.266 . S
O266 Tb241 2.484 . S
O266 C251 1.248 . S
O267 Tb241 2.440 . S
O267 C251 1.266 . S
O268 Tb240 2.325 . S
O268 Tb241 2.658 . S
O268 C258 1.281 . S
O269 Tb241 2.409 . S
O269 C258 1.254 . S
O270 Tb241 2.378 . S
O270 C259 1.236 . S
O271 Tb240 2.341 . S
O271 C259 1.266 . S
H272 C244 0.929 . S
H273 C245 0.931 . S
H274 C247 0.930 . S
H275 C248 0.930 . S
H276 C253 0.929 . S
H277 C254 0.931 . S
H278 C256 0.930 . S
H279 C257 0.930 . S
Tb280 C282 2.809 . S
Tb280 O300 2.484 . S
Tb280 O301 2.440 . S
Tb280 O302 2.658 . S
Tb280 O303 2.409 . S
Tb280 O304 2.378 . S
Tb280 O308 2.325 . S
Tb280 O311 2.341 . S
Tb281 C291 2.809 . S
Tb281 O302 2.325 . S
Tb281 O305 2.341 . S
Tb281 O306 2.484 . S
Tb281 O307 2.440 . S
Tb281 O308 2.658 . S
Tb281 O309 2.409 . S
Tb281 O310 2.378 . S
C282 Tb280 2.809 . S
C282 C283 1.514 . S
C282 O300 1.248 . S
C282 O301 1.266 . S
C283 C282 1.514 . S
C283 C284 1.359 . S
C283 C288 1.348 . S
C284 C283 1.359 . S
C284 C285 1.380 . S
C284 H312 0.929 . S
C285 C284 1.380 . S
C285 C286 1.347 . S
C285 H313 0.931 . S
C286 C285 1.347 . S
C286 C287 1.369 . S
C287 C286 1.369 . S
C287 C288 1.408 . S
C287 H314 0.930 . S
C288 C283 1.348 . S
C288 C287 1.408 . S
C288 H315 0.930 . S
C289 O302 1.281 . S
C289 O303 1.254 . S
C290 O304 1.236 . S
C290 O305 1.266 . S
C291 Tb281 2.809 . S
C291 C292 1.514 . S
C291 O306 1.248 . S
C291 O307 1.266 . S
C292 C291 1.514 . S
C292 C293 1.359 . S
C292 C297 1.348 . S
C293 C292 1.359 . S
C293 C294 1.380 . S
C293 H316 0.929 . S
C294 C293 1.380 . S
C294 C295 1.347 1_556 S
C294 H317 0.931 1_556 S
C295 C294 1.347 1_554 S
C295 C296 1.369 1_554 S
C296 C295 1.369 1_556 S
C296 C297 1.408 . S
C296 H318 0.930 . S
C297 C292 1.348 . S
C297 C296 1.408 . S
C297 H319 0.930 . S
C298 O308 1.281 . S
C298 O309 1.254 . S
C299 O310 1.236 . S
C299 O311 1.266 . S
O300 Tb280 2.484 . S
O300 C282 1.248 . S
O301 Tb280 2.440 . S
O301 C282 1.266 . S
O302 Tb280 2.658 . S
O302 Tb281 2.325 . S
O302 C289 1.281 . S
O303 Tb280 2.409 . S
O303 C289 1.254 . S
O304 Tb280 2.378 . S
O304 C290 1.236 . S
O305 Tb281 2.341 . S
O305 C290 1.266 . S
O306 Tb281 2.484 . S
O306 C291 1.248 . S
O307 Tb281 2.440 . S
O307 C291 1.266 . S
O308 Tb280 2.325 . S
O308 Tb281 2.658 . S
O308 C298 1.281 . S
O309 Tb281 2.409 . S
O309 C298 1.254 . S
O310 Tb281 2.378 . S
O310 C299 1.236 . S
O311 Tb280 2.341 . S
O311 C299 1.266 . S
H312 C284 0.929 . S
H313 C285 0.931 . S
H314 C287 0.930 . S
H315 C288 0.930 . S
H316 C293 0.929 . S
H317 C294 0.931 1_554 S
H318 C296 0.930 . S
H319 C297 0.930 . S
Tb320 C322 2.809 1_554 S
Tb320 O340 2.484 1_554 S
Tb320 O341 2.440 1_554 S
Tb320 O342 2.658 . S
Tb320 O343 2.409 . S
Tb320 O344 2.378 . S
Tb320 O348 2.325 . S
Tb320 O351 2.341 . S
Tb321 C331 2.809 . S
Tb321 O342 2.325 . S
Tb321 O345 2.341 . S
Tb321 O346 2.484 . S
Tb321 O347 2.440 . S
Tb321 O348 2.658 . S
Tb321 O349 2.409 . S
Tb321 O350 2.378 . S
C322 Tb320 2.809 1_556 S
C322 C323 1.514 . S
C322 O340 1.248 . S
C322 O341 1.266 . S
C323 C322 1.514 . S
C323 C324 1.359 . S
C323 C328 1.348 . S
C324 C323 1.359 . S
C324 C325 1.380 . S
C324 H352 0.929 . S
C325 C324 1.380 . S
C325 C326 1.347 . S
C325 H353 0.931 . S
C326 C325 1.347 . S
C326 C327 1.369 . S
C327 C326 1.369 . S
C327 C328 1.408 . S
C327 H354 0.930 . S
C328 C323 1.348 . S
C328 C327 1.408 . S
C328 H355 0.930 . S
C329 O342 1.281 . S
C329 O343 1.254 . S
C330 O344 1.236 . S
C330 O345 1.266 . S
C331 Tb321 2.809 . S
C331 C332 1.514 . S
C331 O346 1.248 . S
C331 O347 1.266 . S
C332 C331 1.514 . S
C332 C333 1.359 . S
C332 C337 1.348 . S
C333 C332 1.359 . S
C333 C334 1.380 . S
C333 H356 0.929 . S
C334 C333 1.380 . S
C334 C335 1.347 . S
C334 H357 0.931 . S
C335 C334 1.347 . S
C335 C336 1.369 . S
C336 C335 1.369 . S
C336 C337 1.408 . S
C336 H358 0.930 . S
C337 C332 1.348 . S
C337 C336 1.408 . S
C337 H359 0.930 . S
C338 O348 1.281 . S
C338 O349 1.254 . S
C339 O350 1.236 . S
C339 O351 1.266 . S
O340 Tb320 2.484 1_556 S
O340 C322 1.248 . S
O341 Tb320 2.440 1_556 S
O341 C322 1.266 . S
O342 Tb320 2.658 . S
O342 Tb321 2.325 . S
O342 C329 1.281 . S
O343 Tb320 2.409 . S
O343 C329 1.254 . S
O344 Tb320 2.378 . S
O344 C330 1.236 . S
O345 Tb321 2.341 . S
O345 C330 1.266 . S
O346 Tb321 2.484 . S
O346 C331 1.248 . S
O347 Tb321 2.440 . S
O347 C331 1.266 . S
O348 Tb320 2.325 . S
O348 Tb321 2.658 . S
O348 C338 1.281 . S
O349 Tb321 2.409 . S
O349 C338 1.254 . S
O350 Tb321 2.378 . S
O350 C339 1.236 . S
O351 Tb320 2.341 . S
O351 C339 1.266 . S
H352 C324 0.929 . S
H353 C325 0.931 . S
H354 C327 0.930 . S
H355 C328 0.930 . S
H356 C333 0.929 . S
H357 C334 0.931 . S
H358 C336 0.930 . S
H359 C337 0.930 . S
Tb360 C362 2.809 . S
Tb360 O380 2.484 . S
Tb360 O381 2.440 . S
Tb360 O382 2.658 . S
Tb360 O383 2.409 . S
Tb360 O384 2.378 . S
Tb360 O388 2.325 . S
Tb360 O391 2.341 . S
Tb361 C371 2.809 . S
Tb361 O382 2.325 . S
Tb361 O385 2.341 . S
Tb361 O386 2.484 . S
Tb361 O387 2.440 . S
Tb361 O388 2.658 . S
Tb361 O389 2.409 . S
Tb361 O390 2.378 . S
C362 Tb360 2.809 . S
C362 C363 1.514 . S
C362 O380 1.248 . S
C362 O381 1.266 . S
C363 C362 1.514 . S
C363 C364 1.359 . S
C363 C368 1.348 . S
C364 C363 1.359 . S
C364 C365 1.380 . S
C364 H392 0.929 . S
C365 C364 1.380 . S
C365 C366 1.347 . S
C365 H393 0.931 . S
C366 C365 1.347 . S
C366 C367 1.369 . S
C367 C366 1.369 . S
C367 C368 1.408 . S
C367 H394 0.930 . S
C368 C363 1.348 . S
C368 C367 1.408 . S
C368 H395 0.930 . S
C369 O382 1.281 . S
C369 O383 1.254 . S
C370 O384 1.236 . S
C370 O385 1.266 . S
C371 Tb361 2.809 . S
C371 C372 1.514 . S
C371 O386 1.248 . S
C371 O387 1.266 . S
C372 C371 1.514 . S
C372 C373 1.359 . S
C372 C377 1.348 . S
C373 C372 1.359 . S
C373 C374 1.380 . S
C373 H396 0.929 . S
C374 C373 1.380 . S
C374 C375 1.347 . S
C374 H397 0.931 . S
C375 C374 1.347 . S
C375 C376 1.369 . S
C376 C375 1.369 . S
C376 C377 1.408 . S
C376 H398 0.930 . S
C377 C372 1.348 . S
C377 C376 1.408 . S
C377 H399 0.930 . S
C378 O388 1.281 . S
C378 O389 1.254 . S
C379 O390 1.236 . S
C379 O391 1.266 . S
O380 Tb360 2.484 . S
O380 C362 1.248 . S
O381 Tb360 2.440 . S
O381 C362 1.266 . S
O382 Tb360 2.658 . S
O382 Tb361 2.325 . S
O382 C369 1.281 . S
O383 Tb360 2.409 . S
O383 C369 1.254 . S
O384 Tb360 2.378 . S
O384 C370 1.236 . S
O385 Tb361 2.341 . S
O385 C370 1.266 . S
O386 Tb361 2.484 . S
O386 C371 1.248 . S
O387 Tb361 2.440 . S
O387 C371 1.266 . S
O388 Tb360 2.325 . S
O388 Tb361 2.658 . S
O388 C378 1.281 . S
O389 Tb361 2.409 . S
O389 C378 1.254 . S
O390 Tb361 2.378 . S
O390 C379 1.236 . S
O391 Tb360 2.341 . S
O391 C379 1.266 . S
H392 C364 0.929 . S
H393 C365 0.931 . S
H394 C367 0.930 . S
H395 C368 0.930 . S
H396 C373 0.929 . S
H397 C374 0.931 . S
H398 C376 0.930 . S
H399 C377 0.930 . S
Tb400 C402 2.809 . S
Tb400 O420 2.484 . S
Tb400 O421 2.440 . S
Tb400 O422 2.658 . S
Tb400 O423 2.409 . S
Tb400 O424 2.378 . S
Tb400 O428 2.325 . S
Tb400 O431 2.341 . S
Tb401 C411 2.809 . S
Tb401 O422 2.325 . S
Tb401 O425 2.341 . S
Tb401 O426 2.484 . S
Tb401 O427 2.440 . S
Tb401 O428 2.658 . S
Tb401 O429 2.409 . S
Tb401 O430 2.378 . S
C402 Tb400 2.809 . S
C402 C403 1.514 . S
C402 O420 1.248 . S
C402 O421 1.266 . S
C403 C402 1.514 . S
C403 C404 1.359 . S
C403 C408 1.348 . S
C404 C403 1.359 . S
C404 C405 1.380 . S
C404 H432 0.929 . S
C405 C404 1.380 . S
C405 C406 1.347 . S
C405 H433 0.931 . S
C406 C405 1.347 . S
C406 C407 1.369 . S
C407 C406 1.369 . S
C407 C408 1.408 . S
C407 H434 0.930 . S
C408 C403 1.348 . S
C408 C407 1.408 . S
C408 H435 0.930 . S
C409 O422 1.281 . S
C409 O423 1.254 . S
C410 O424 1.236 . S
C410 O425 1.266 . S
C411 Tb401 2.809 . S
C411 C412 1.514 . S
C411 O426 1.248 . S
C411 O427 1.266 . S
C412 C411 1.514 . S
C412 C413 1.359 . S
C412 C417 1.348 . S
C413 C412 1.359 . S
C413 C414 1.380 . S
C413 H436 0.929 . S
C414 C413 1.380 . S
C414 C415 1.347 1_556 S
C414 H437 0.931 1_556 S
C415 C414 1.347 1_554 S
C415 C416 1.369 1_554 S
C416 C415 1.369 1_556 S
C416 C417 1.408 . S
C416 H438 0.930 . S
C417 C412 1.348 . S
C417 C416 1.408 . S
C417 H439 0.930 . S
C418 O428 1.281 . S
C418 O429 1.254 . S
C419 O430 1.236 . S
C419 O431 1.266 . S
O420 Tb400 2.484 . S
O420 C402 1.248 . S
O421 Tb400 2.440 . S
O421 C402 1.266 . S
O422 Tb400 2.658 . S
O422 Tb401 2.325 . S
O422 C409 1.281 . S
O423 Tb400 2.409 . S
O423 C409 1.254 . S
O424 Tb400 2.378 . S
O424 C410 1.236 . S
O425 Tb401 2.341 . S
O425 C410 1.266 . S
O426 Tb401 2.484 . S
O426 C411 1.248 . S
O427 Tb401 2.440 . S
O427 C411 1.266 . S
O428 Tb400 2.325 . S
O428 Tb401 2.658 . S
O428 C418 1.281 . S
O429 Tb401 2.409 . S
O429 C418 1.254 . S
O430 Tb401 2.378 . S
O430 C419 1.236 . S
O431 Tb400 2.341 . S
O431 C419 1.266 . S
H432 C404 0.929 . S
H433 C405 0.931 . S
H434 C407 0.930 . S
H435 C408 0.930 . S
H436 C413 0.929 . S
H437 C414 0.931 1_554 S
H438 C416 0.930 . S
H439 C417 0.930 . S
Tb440 C442 2.809 1_554 S
Tb440 O460 2.484 1_554 S
Tb440 O461 2.440 1_554 S
Tb440 O462 2.658 . S
Tb440 O463 2.409 . S
Tb440 O464 2.378 . S
Tb440 O468 2.325 . S
Tb440 O471 2.341 . S
Tb441 C451 2.809 . S
Tb441 O462 2.325 . S
Tb441 O465 2.341 . S
Tb441 O466 2.484 . S
Tb441 O467 2.440 . S
Tb441 O468 2.658 . S
Tb441 O469 2.409 . S
Tb441 O470 2.378 . S
C442 Tb440 2.809 1_556 S
C442 C443 1.514 . S
C442 O460 1.248 . S
C442 O461 1.266 . S
C443 C442 1.514 . S
C443 C444 1.359 . S
C443 C448 1.348 . S
C444 C443 1.359 . S
C444 C445 1.380 . S
C444 H472 0.929 . S
C445 C444 1.380 . S
C445 C446 1.347 . S
C445 H473 0.931 . S
C446 C445 1.347 . S
C446 C447 1.369 . S
C447 C446 1.369 . S
C447 C448 1.408 . S
C447 H474 0.930 . S
C448 C443 1.348 . S
C448 C447 1.408 . S
C448 H475 0.930 . S
C449 O462 1.281 . S
C449 O463 1.254 . S
C450 O464 1.236 . S
C450 O465 1.266 . S
C451 Tb441 2.809 . S
C451 C452 1.514 . S
C451 O466 1.248 . S
C451 O467 1.266 . S
C452 C451 1.514 . S
C452 C453 1.359 . S
C452 C457 1.348 . S
C453 C452 1.359 . S
C453 C454 1.380 . S
C453 H476 0.929 . S
C454 C453 1.380 . S
C454 C455 1.347 . S
C454 H477 0.931 . S
C455 C454 1.347 . S
C455 C456 1.369 . S
C456 C455 1.369 . S
C456 C457 1.408 . S
C456 H478 0.930 . S
C457 C452 1.348 . S
C457 C456 1.408 . S
C457 H479 0.930 . S
C458 O468 1.281 . S
C458 O469 1.254 . S
C459 O470 1.236 . S
C459 O471 1.266 . S
O460 Tb440 2.484 1_556 S
O460 C442 1.248 . S
O461 Tb440 2.440 1_556 S
O461 C442 1.266 . S
O462 Tb440 2.658 . S
O462 Tb441 2.325 . S
O462 C449 1.281 . S
O463 Tb440 2.409 . S
O463 C449 1.254 . S
O464 Tb440 2.378 . S
O464 C450 1.236 . S
O465 Tb441 2.341 . S
O465 C450 1.266 . S
O466 Tb441 2.484 . S
O466 C451 1.248 . S
O467 Tb441 2.440 . S
O467 C451 1.266 . S
O468 Tb440 2.325 . S
O468 Tb441 2.658 . S
O468 C458 1.281 . S
O469 Tb441 2.409 . S
O469 C458 1.254 . S
O470 Tb441 2.378 . S
O470 C459 1.236 . S
O471 Tb440 2.341 . S
O471 C459 1.266 . S
H472 C444 0.929 . S
H473 C445 0.931 . S
H474 C447 0.930 . S
H475 C448 0.930 . S
H476 C453 0.929 . S
H477 C454 0.931 . S
H478 C456 0.930 . S
H479 C457 0.930 . S
C480 C481 1.387 . S
C480 H484 0.950 . S
C480 C489 1.390 . S
C481 C480 1.387 . S
C481 C483 1.387 . S
H482 C489 0.950 . S
C483 C481 1.387 . S
C483 C485 1.390 . S
C483 H487 0.950 . S
H484 C480 0.950 . S
C485 C483 1.390 . S
C485 C486 1.387 . S
C485 H488 0.950 . S
C486 C485 1.387 . S
C486 C489 1.387 . S
H487 C483 0.950 . S
H488 C485 0.950 . S
C489 C480 1.390 . S
C489 H482 0.950 . S
C489 C486 1.387 . S
C490 C491 1.387 . S
C490 H494 0.950 . S
C490 C499 1.390 . S
C491 C490 1.387 . S
C491 C493 1.387 . S
H492 C499 0.950 . S
C493 C491 1.387 . S
C493 C495 1.390 . S
C493 H497 0.950 . S
H494 C490 0.950 . S
C495 C493 1.390 . S
C495 C496 1.387 . S
C495 H498 0.950 . S
C496 C495 1.387 . S
C496 C499 1.387 . S
H497 C493 0.950 . S
H498 C495 0.950 . S
C499 C490 1.390 . S
C499 H492 0.950 . S
C499 C496 1.387 . S
C500 C501 1.387 . S
C500 H504 0.950 . S
C500 C509 1.390 . S
C501 C500 1.387 . S
C501 C503 1.387 . S
H502 C509 0.950 . S
C503 C501 1.387 . S
C503 C505 1.390 . S
C503 H507 0.950 . S
H504 C500 0.950 . S
C505 C503 1.390 . S
C505 C506 1.387 . S
C505 H508 0.950 . S
C506 C505 1.387 . S
C506 C509 1.387 . S
H507 C503 0.950 . S
H508 C505 0.950 . S
C509 C500 1.390 . S
C509 H502 0.950 . S
C509 C506 1.387 . S
C510 C511 1.387 . S
C510 H514 0.950 . S
C510 C519 1.390 . S
C511 C510 1.387 . S
C511 C513 1.387 . S
H512 C519 0.950 . S
C513 C511 1.387 . S
C513 C515 1.390 . S
C513 H517 0.950 . S
H514 C510 0.950 . S
C515 C513 1.390 . S
C515 C516 1.387 . S
C515 H518 0.950 . S
C516 C515 1.387 . S
C516 C519 1.387 . S
H517 C513 0.950 . S
H518 C515 0.950 . S
C519 C510 1.390 . S
C519 H512 0.950 . S
C519 C516 1.387 . S
C520 C521 1.387 . S
C520 H524 0.950 . S
C520 C529 1.390 . S
C521 C520 1.387 . S
C521 C523 1.387 . S
H522 C529 0.950 . S
C523 C521 1.387 . S
C523 C525 1.390 . S
C523 H527 0.950 . S
H524 C520 0.950 . S
C525 C523 1.390 . S
C525 C526 1.387 . S
C525 H528 0.950 . S
C526 C525 1.387 . S
C526 C529 1.387 . S
H527 C523 0.950 . S
H528 C525 0.950 . S
C529 C520 1.390 . S
C529 H522 0.950 . S
C529 C526 1.387 . S
C530 C531 1.387 . S
C530 H534 0.950 . S
C530 C539 1.390 . S
C531 C530 1.387 . S
C531 C533 1.387 . S
H532 C539 0.950 . S
C533 C531 1.387 . S
C533 C535 1.390 . S
C533 H537 0.950 . S
H534 C530 0.950 . S
C535 C533 1.390 . S
C535 C536 1.387 . S
C535 H538 0.950 . S
C536 C535 1.387 . S
C536 C539 1.387 . S
H537 C533 0.950 . S
H538 C535 0.950 . S
C539 C530 1.390 . S
C539 H532 0.950 . S
C539 C536 1.387 . S
C540 C541 1.387 . S
C540 H544 0.950 . S
C540 C549 1.390 1_554 S
C541 C540 1.387 . S
C541 C543 1.387 . S
H542 C549 0.950 . S
C543 C541 1.387 . S
C543 C545 1.390 1_554 S
C543 H547 0.950 . S
H544 C540 0.950 . S
C545 C543 1.390 1_556 S
C545 C546 1.387 . S
C545 H548 0.950 . S
C546 C545 1.387 . S
C546 C549 1.387 . S
H547 C543 0.950 . S
H548 C545 0.950 . S
C549 C540 1.390 1_556 S
C549 H542 0.950 . S
C549 C546 1.387 . S
C550 C551 1.387 . S
C550 H554 0.950 . S
C550 C559 1.390 . S
C551 C550 1.387 . S
C551 C553 1.387 . S
H552 C559 0.950 . S
C553 C551 1.387 . S
C553 C555 1.390 . S
C553 H557 0.950 . S
H554 C550 0.950 . S
C555 C553 1.390 . S
C555 C556 1.387 . S
C555 H558 0.950 . S
C556 C555 1.387 . S
C556 C559 1.387 . S
H557 C553 0.950 . S
H558 C555 0.950 . S
C559 C550 1.390 . S
C559 H552 0.950 . S
C559 C556 1.387 . S
C560 C561 1.387 . S
C560 H564 0.950 . S
C560 C569 1.390 . S
C561 C560 1.387 . S
C561 C563 1.387 . S
H562 C569 0.950 . S
C563 C561 1.387 . S
C563 C565 1.390 . S
C563 H567 0.950 . S
H564 C560 0.950 . S
C565 C563 1.390 . S
C565 C566 1.387 . S
C565 H568 0.950 . S
C566 C565 1.387 . S
C566 C569 1.387 . S
H567 C563 0.950 . S
H568 C565 0.950 . S
C569 C560 1.390 . S
C569 H562 0.950 . S
C569 C566 1.387 . S
C570 C571 1.387 . S
C570 H574 0.950 . S
C570 C579 1.390 1_554 S
C571 C570 1.387 . S
C571 C573 1.387 . S
H572 C579 0.950 . S
C573 C571 1.387 . S
C573 C575 1.390 1_554 S
C573 H577 0.950 . S
H574 C570 0.950 . S
C575 C573 1.390 1_556 S
C575 C576 1.387 . S
C575 H578 0.950 . S
C576 C575 1.387 . S
C576 C579 1.387 . S
H577 C573 0.950 . S
H578 C575 0.950 . S
C579 C570 1.390 1_556 S
C579 H572 0.950 . S
C579 C576 1.387 . S
C580 C581 1.387 . S
C580 H584 0.950 . S
C580 C589 1.390 . S
C581 C580 1.387 . S
C581 C583 1.387 . S
H582 C589 0.950 . S
C583 C581 1.387 . S
C583 C585 1.390 . S
C583 H587 0.950 . S
H584 C580 0.950 . S
C585 C583 1.390 . S
C585 C586 1.387 . S
C585 H588 0.950 . S
C586 C585 1.387 . S
C586 C589 1.387 . S
H587 C583 0.950 . S
H588 C585 0.950 . S
C589 C580 1.390 . S
C589 H582 0.950 . S
C589 C586 1.387 . S
C590 C591 1.387 . S
C590 H594 0.950 . S
C590 C599 1.390 . S
C591 C590 1.387 . S
C591 C593 1.387 . S
H592 C599 0.950 . S
C593 C591 1.387 . S
C593 C595 1.390 . S
C593 H597 0.950 . S
H594 C590 0.950 . S
C595 C593 1.390 . S
C595 C596 1.387 . S
C595 H598 0.950 . S
C596 C595 1.387 . S
C596 C599 1.387 . S
H597 C593 0.950 . S
H598 C595 0.950 . S
C599 C590 1.390 . S
C599 H592 0.950 . S
C599 C596 1.387 . S
C600 C601 1.387 . S
C600 H604 0.950 . S
C600 C609 1.390 1_566 S
C601 C600 1.387 . S
C601 C603 1.387 . S
H602 C609 0.950 . S
C603 C601 1.387 . S
C603 C605 1.390 1_566 S
C603 H607 0.950 . S
H604 C600 0.950 . S
C605 C603 1.390 1_544 S
C605 C606 1.387 . S
C605 H608 0.950 . S
C606 C605 1.387 . S
C606 C609 1.387 . S
H607 C603 0.950 . S
H608 C605 0.950 . S
C609 C600 1.390 1_544 S
C609 H602 0.950 . S
C609 C606 1.387 . S
C610 C611 1.387 . S
C610 H614 0.950 . S
C610 C619 1.390 . S
C611 C610 1.387 . S
C611 C613 1.387 . S
H612 C619 0.950 . S
C613 C611 1.387 . S
C613 C615 1.390 . S
C613 H617 0.950 . S
H614 C610 0.950 . S
C615 C613 1.390 . S
C615 C616 1.387 . S
C615 H618 0.950 . S
C616 C615 1.387 . S
C616 C619 1.387 . S
H617 C613 0.950 . S
H618 C615 0.950 . S
C619 C610 1.390 . S
C619 H612 0.950 . S
C619 C616 1.387 . S
C620 C621 1.387 1_655 S
C620 H624 0.950 . S
C620 C629 1.390 . S
C621 C620 1.387 1_455 S
C621 C623 1.387 . S
H622 C629 0.950 . S
C623 C621 1.387 . S
C623 C625 1.390 . S
C623 H627 0.950 . S
H624 C620 0.950 . S
C625 C623 1.390 . S
C625 C626 1.387 1_455 S
C625 H628 0.950 . S
C626 C625 1.387 1_655 S
C626 C629 1.387 . S
H627 C623 0.950 . S
H628 C625 0.950 . S
C629 C620 1.390 . S
C629 H622 0.950 . S
C629 C626 1.387 . S
C630 C631 1.387 . S
C630 H634 0.950 . S
C630 C639 1.390 1_564 S
C631 C630 1.387 . S
C631 C633 1.387 . S
H632 C639 0.950 . S
C633 C631 1.387 . S
C633 C635 1.390 1_564 S
C633 H637 0.950 . S
H634 C630 0.950 . S
C635 C633 1.390 1_546 S
C635 C636 1.387 . S
C635 H638 0.950 . S
C636 C635 1.387 . S
C636 C639 1.387 . S
H637 C633 0.950 . S
H638 C635 0.950 . S
C639 C630 1.390 1_546 S
C639 H632 0.950 . S
C639 C636 1.387 . S
C640 C641 1.387 . S
C640 H644 0.950 . S
C640 C649 1.390 . S
C641 C640 1.387 . S
C641 C643 1.387 . S
H642 C649 0.950 . S
C643 C641 1.387 . S
C643 C645 1.390 . S
C643 H647 0.950 . S
H644 C640 0.950 . S
C645 C643 1.390 . S
C645 C646 1.387 . S
C645 H648 0.950 . S
C646 C645 1.387 . S
C646 C649 1.387 . S
H647 C643 0.950 . S
H648 C645 0.950 . S
C649 C640 1.390 . S
C649 H642 0.950 . S
C649 C646 1.387 . S
C650 C651 1.387 . S
C650 H654 0.950 . S
C650 C659 1.390 1_455 S
C651 C650 1.387 . S
C651 C653 1.387 . S
H652 C659 0.950 . S
C653 C651 1.387 . S
C653 C655 1.390 1_455 S
C653 H657 0.950 . S
H654 C650 0.950 . S
C655 C653 1.390 1_655 S
C655 C656 1.387 . S
C655 H658 0.950 . S
C656 C655 1.387 . S
C656 C659 1.387 . S
H657 C653 0.950 . S
H658 C655 0.950 . S
C659 C650 1.390 1_655 S
C659 H652 0.950 . S
C659 C656 1.387 . S
C660 C661 1.387 . S
C660 H664 0.950 . S
C660 C669 1.390 1_545 S
C661 C660 1.387 . S
C661 C663 1.387 . S
H662 C669 0.950 . S
C663 C661 1.387 . S
C663 C665 1.390 1_545 S
C663 H667 0.950 . S
H664 C660 0.950 . S
C665 C663 1.390 1_565 S
C665 C666 1.387 . S
C665 H668 0.950 . S
C666 C665 1.387 . S
C666 C669 1.387 . S
H667 C663 0.950 . S
H668 C665 0.950 . S
C669 C660 1.390 1_565 S
C669 H662 0.950 . S
C669 C666 1.387 . S
C670 C671 1.387 . S
C670 H674 0.950 . S
C670 C679 1.390 . S
C671 C670 1.387 . S
C671 C673 1.387 . S
H672 C679 0.950 . S
C673 C671 1.387 . S
C673 C675 1.390 . S
C673 H677 0.950 . S
H674 C670 0.950 . S
C675 C673 1.390 . S
C675 C676 1.387 . S
C675 H678 0.950 . S
C676 C675 1.387 . S
C676 C679 1.387 . S
H677 C673 0.950 . S
H678 C675 0.950 . S
C679 C670 1.390 . S
C679 H672 0.950 . S
C679 C676 1.387 . S
C680 C681 1.387 . S
C680 H684 0.950 . S
C680 C689 1.390 1_655 S
C681 C680 1.387 . S
C681 C683 1.387 . S
H682 C689 0.950 . S
C683 C681 1.387 . S
C683 C685 1.390 1_655 S
C683 H687 0.950 . S
H684 C680 0.950 . S
C685 C683 1.390 1_455 S
C685 C686 1.387 . S
C685 H688 0.950 . S
C686 C685 1.387 . S
C686 C689 1.387 . S
H687 C683 0.950 . S
H688 C685 0.950 . S
C689 C680 1.390 1_455 S
C689 H682 0.950 . S
C689 C686 1.387 . S
C690 C691 1.387 . S
C690 H694 0.950 . S
C690 C699 1.390 1_455 S
C691 C690 1.387 . S
C691 C693 1.387 . S
H692 C699 0.950 . S
C693 C691 1.387 . S
C693 C695 1.390 1_455 S
C693 H697 0.950 . S
H694 C690 0.950 . S
C695 C693 1.390 1_655 S
C695 C696 1.387 . S
C695 H698 0.950 . S
C696 C695 1.387 . S
C696 C699 1.387 . S
H697 C693 0.950 . S
H698 C695 0.950 . S
C699 C690 1.390 1_655 S
C699 H692 0.950 . S
C699 C696 1.387 . S
C700 C701 1.387 . S
C700 H704 0.950 . S
C700 C709 1.390 1_565 S
C701 C700 1.387 . S
C701 C703 1.387 . S
H702 C709 0.950 . S
C703 C701 1.387 . S
C703 C705 1.390 1_565 S
C703 H707 0.950 . S
H704 C700 0.950 . S
C705 C703 1.390 1_545 S
C705 C706 1.387 . S
C705 H708 0.950 . S
C706 C705 1.387 . S
C706 C709 1.387 . S
H707 C703 0.950 . S
H708 C705 0.950 . S
C709 C700 1.390 1_545 S
C709 H702 0.950 . S
C709 C706 1.387 . S
C710 C711 1.387 . S
C710 H714 0.950 . S
C710 C719 1.390 . S
C711 C710 1.387 . S
C711 C713 1.387 . S
H712 C719 0.950 . S
C713 C711 1.387 . S
C713 C715 1.390 . S
C713 H717 0.950 . S
H714 C710 0.950 . S
C715 C713 1.390 . S
C715 C716 1.387 . S
C715 H718 0.950 . S
C716 C715 1.387 . S
C716 C719 1.387 . S
H717 C713 0.950 . S
H718 C715 0.950 . S
C719 C710 1.390 . S
C719 H712 0.950 . S
C719 C716 1.387 . S
C720 C721 1.387 . S
C720 H724 0.950 . S
C720 C729 1.390 1_565 S
C721 C720 1.387 . S
C721 C723 1.387 . S
H722 C729 0.950 . S
C723 C721 1.387 . S
C723 C725 1.390 1_565 S
C723 H727 0.950 . S
H724 C720 0.950 . S
C725 C723 1.390 1_545 S
C725 C726 1.387 . S
C725 H728 0.950 . S
C726 C725 1.387 . S
C726 C729 1.387 . S
H727 C723 0.950 . S
H728 C725 0.950 . S
C729 C720 1.390 1_545 S
C729 H722 0.950 . S
C729 C726 1.387 . S
C730 C731 1.387 . S
C730 H734 0.950 . S
C730 C739 1.390 . S
C731 C730 1.387 . S
C731 C733 1.387 . S
H732 C739 0.950 . S
C733 C731 1.387 . S
C733 C735 1.390 . S
C733 H737 0.950 . S
H734 C730 0.950 . S
C735 C733 1.390 . S
C735 C736 1.387 . S
C735 H738 0.950 . S
C736 C735 1.387 . S
C736 C739 1.387 . S
H737 C733 0.950 . S
H738 C735 0.950 . S
C739 C730 1.390 . S
C739 H732 0.950 . S
C739 C736 1.387 . S
C740 C741 1.387 . S
C740 H744 0.950 . S
C740 C749 1.390 1_655 S
C741 C740 1.387 . S
C741 C743 1.387 . S
H742 C749 0.950 . S
C743 C741 1.387 . S
C743 C745 1.390 1_655 S
C743 H747 0.950 . S
H744 C740 0.950 . S
C745 C743 1.390 1_455 S
C745 C746 1.387 . S
C745 H748 0.950 . S
C746 C745 1.387 . S
C746 C749 1.387 . S
H747 C743 0.950 . S
H748 C745 0.950 . S
C749 C740 1.390 1_455 S
C749 H742 0.950 . S
C749 C746 1.387 . S
C750 C751 1.387 . S
C750 H754 0.950 . S
C750 C759 1.390 1_545 S
C751 C750 1.387 . S
C751 C753 1.387 . S
H752 C759 0.950 . S
C753 C751 1.387 . S
C753 C755 1.390 1_545 S
C753 H757 0.950 . S
H754 C750 0.950 . S
C755 C753 1.390 1_565 S
C755 C756 1.387 . S
C755 H758 0.950 . S
C756 C755 1.387 . S
C756 C759 1.387 . S
H757 C753 0.950 . S
H758 C755 0.950 . S
C759 C750 1.390 1_565 S
C759 H752 0.950 . S
C759 C756 1.387 . S
C760 C761 1.387 . S
C760 H764 0.950 . S
C760 C769 1.390 . S
C761 C760 1.387 . S
C761 C763 1.387 . S
H762 C769 0.950 . S
C763 C761 1.387 . S
C763 C765 1.390 . S
C763 H767 0.950 . S
H764 C760 0.950 . S
C765 C763 1.390 . S
C765 C766 1.387 . S
C765 H768 0.950 . S
C766 C765 1.387 . S
C766 C769 1.387 . S
H767 C763 0.950 . S
H768 C765 0.950 . S
C769 C760 1.390 . S
C769 H762 0.950 . S
C769 C766 1.387 . S
C770 C771 1.387 . S
C770 H774 0.950 . S
C770 C779 1.390 1_455 S
C771 C770 1.387 . S
C771 C773 1.387 . S
H772 C779 0.950 . S
C773 C771 1.387 . S
C773 C775 1.390 1_455 S
C773 H777 0.950 . S
H774 C770 0.950 . S
C775 C773 1.390 1_655 S
C775 C776 1.387 . S
C775 H778 0.950 . S
C776 C775 1.387 . S
C776 C779 1.387 . S
H777 C773 0.950 . S
H778 C775 0.950 . S
C779 C770 1.390 1_655 S
C779 H772 0.950 . S
C779 C776 1.387 . S
C780 C781 1.387 . S
C780 H784 0.950 . S
C780 C789 1.390 . S
C781 C780 1.387 . S
C781 C783 1.387 . S
H782 C789 0.950 . S
C783 C781 1.387 . S
C783 C785 1.390 . S
C783 H787 0.950 . S
H784 C780 0.950 . S
C785 C783 1.390 . S
C785 C786 1.387 . S
C785 H788 0.950 . S
C786 C785 1.387 . S
C786 C789 1.387 . S
H787 C783 0.950 . S
H788 C785 0.950 . S
C789 C780 1.390 . S
C789 H782 0.950 . S
C789 C786 1.387 . S
C790 C791 1.387 . S
C790 H794 0.950 . S
C790 C799 1.390 . S
C791 C790 1.387 . S
C791 C793 1.387 . S
H792 C799 0.950 . S
C793 C791 1.387 . S
C793 C795 1.390 . S
C793 H797 0.950 . S
H794 C790 0.950 . S
C795 C793 1.390 . S
C795 C796 1.387 . S
C795 H798 0.950 . S
C796 C795 1.387 . S
C796 C799 1.387 . S
H797 C793 0.950 . S
H798 C795 0.950 . S
C799 C790 1.390 . S
C799 H792 0.950 . S
C799 C796 1.387 . S
C800 C801 1.387 . S
C800 H804 0.950 . S
C800 C809 1.390 . S
C801 C800 1.387 . S
C801 C803 1.387 . S
H802 C809 0.950 . S
C803 C801 1.387 . S
C803 C805 1.390 . S
C803 H807 0.950 . S
H804 C800 0.950 . S
C805 C803 1.390 . S
C805 C806 1.387 . S
C805 H808 0.950 . S
C806 C805 1.387 . S
C806 C809 1.387 . S
H807 C803 0.950 . S
H808 C805 0.950 . S
C809 C800 1.390 . S
C809 H802 0.950 . S
C809 C806 1.387 . S
C810 C811 1.387 . S
C810 H814 0.950 . S
C810 C819 1.390 . S
C811 C810 1.387 . S
C811 C813 1.387 . S
H812 C819 0.950 . S
C813 C811 1.387 . S
C813 C815 1.390 . S
C813 H817 0.950 . S
H814 C810 0.950 . S
C815 C813 1.390 . S
C815 C816 1.387 . S
C815 H818 0.950 . S
C816 C815 1.387 . S
C816 C819 1.387 . S
H817 C813 0.950 . S
H818 C815 0.950 . S
C819 C810 1.390 . S
C819 H812 0.950 . S
C819 C816 1.387 . S
C820 C821 1.387 . S
C820 H824 0.950 . S
C820 C829 1.390 . S
C821 C820 1.387 . S
C821 C823 1.387 . S
H822 C829 0.950 . S
C823 C821 1.387 . S
C823 C825 1.390 . S
C823 H827 0.950 . S
H824 C820 0.950 . S
C825 C823 1.390 . S
C825 C826 1.387 . S
C825 H828 0.950 . S
C826 C825 1.387 . S
C826 C829 1.387 . S
H827 C823 0.950 . S
H828 C825 0.950 . S
C829 C820 1.390 . S
C829 H822 0.950 . S
C829 C826 1.387 . S
C830 C831 1.387 . S
C830 H834 0.950 . S
C830 C839 1.390 . S
C831 C830 1.387 . S
C831 C833 1.387 . S
H832 C839 0.950 . S
C833 C831 1.387 . S
C833 C835 1.390 . S
C833 H837 0.950 . S
H834 C830 0.950 . S
C835 C833 1.390 . S
C835 C836 1.387 . S
C835 H838 0.950 . S
C836 C835 1.387 . S
C836 C839 1.387 . S
H837 C833 0.950 . S
H838 C835 0.950 . S
C839 C830 1.390 . S
C839 H832 0.950 . S
C839 C836 1.387 . S
C481 C9 1.342 . S
C486 C329 1.344 . S
C491 C49 1.344 . S
C496 C369 1.344 . S
C501 C89 1.342 . S
C506 C409 1.343 . S
C511 C449 1.340 . S
C516 C129 1.339 . S
C521 C169 1.339 . S
C526 C249 1.339 . S
C531 C289 1.339 . S
C536 C209 1.338 . S
C541 C415 1.236 . S
C546 C15 1.236 . S
C551 C455 1.236 . S
C556 C55 1.237 . S
C561 C95 1.239 . S
C566 C255 1.238 . S
C571 C295 1.236 . S
C576 C135 1.236 . S
C581 C335 1.239 . S
C586 C175 1.239 . S
C591 C215 1.236 . S
C596 C375 1.238 . S
C601 C299 4.365 . S
C606 C19 4.365 . S
C611 C339 4.365 . S
C616 C59 4.365 . S
C621 C379 4.364 . S
C626 C99 4.365 . S
C631 C139 4.365 . S
C636 C419 4.365 . S
C641 C179 4.364 . S
C646 C459 4.365 . S
C651 C219 4.364 . S
C656 C259 4.365 . S
C661 C18 1.176 . S
C666 C138 1.176 . S
C671 C58 1.176 . S
C676 C178 1.176 . S
C681 C98 1.181 . S
C686 C218 1.181 . S
C691 C378 1.180 . S
C696 C258 1.180 . S
C701 C298 1.176 . S
C706 C418 1.176 . S
C711 C458 1.181 . S
C716 C338 1.181 . S
C721 C286 0.784 . S
C726 C6 0.784 . S
C731 C326 0.787 . S
C736 C46 0.790 . S
C741 C86 0.794 . S
C746 C366 0.791 . S
C751 C406 0.784 . S
C756 C126 0.784 . S
C761 C446 0.795 . S
C766 C166 0.792 . S
C771 C206 0.794 . S
C776 C246 0.792 . S
C781 C10 4.804 . S
C786 C410 4.804 . S
C791 C50 4.805 . S
C796 C450 4.804 1_556 S
C801 C90 4.804 1_554 S
C806 C250 4.804 . S
C811 C130 4.804 . S
C816 C290 4.804 . S
C821 C170 4.805 . S
C826 C330 4.804 1_556 S
C831 C370 4.805 . S
C836 C210 4.804 1_554 S
