# Generated by pormake.
# Topology uow, (4)-cn, num edge types: 1
# Building blocks:
#     Node 0, Type 0, BuildingBlock: NAHDIM_clean_sbu_0, # of connection points: 4
#     Node 1, Type 0, BuildingBlock: NAHDIM_clean_sbu_0, # of connection points: 4
#     Node 2, Type 0, BuildingBlock: NAHDIM_clean_sbu_0, # of connection points: 4
#     Node 3, Type 0, BuildingBlock: NAHDIM_clean_sbu_0, # of connection points: 4
#     Node 4, Type 0, BuildingBlock: NAHDIM_clean_sbu_0, # of connection points: 4
#     Node 5, Type 0, BuildingBlock: NAHDIM_clean_sbu_0, # of connection points: 4
#     Node 6, Type 0, BuildingBlock: NAHDIM_clean_sbu_0, # of connection points: 4
#     Node 7, Type 0, BuildingBlock: NAHDIM_clean_sbu_0, # of connection points: 4
#     Node 8, Type 0, BuildingBlock: NAHDIM_clean_sbu_0, # of connection points: 4
#     Node 9, Type 0, BuildingBlock: NAHDIM_clean_sbu_0, # of connection points: 4
#     Node 10, Type 0, BuildingBlock: NAHDIM_clean_sbu_0, # of connection points: 4
#     Node 11, Type 0, BuildingBlock: NAHDIM_clean_sbu_0, # of connection points: 4
#     Node 12, Type 0, BuildingBlock: NAHDIM_clean_sbu_0, # of connection points: 4
#     Node 13, Type 0, BuildingBlock: NAHDIM_clean_sbu_0, # of connection points: 4
#     Node 14, Type 0, BuildingBlock: NAHDIM_clean_sbu_0, # of connection points: 4
#     Node 15, Type 0, BuildingBlock: NAHDIM_clean_sbu_0, # of connection points: 4
#     Node 16, Type 0, BuildingBlock: NAHDIM_clean_sbu_0, # of connection points: 4
#     Node 17, Type 0, BuildingBlock: NAHDIM_clean_sbu_0, # of connection points: 4
#     Node 18, Type 0, BuildingBlock: NAHDIM_clean_sbu_0, # of connection points: 4
#     Node 19, Type 0, BuildingBlock: NAHDIM_clean_sbu_0, # of connection points: 4
#     Node 20, Type 0, BuildingBlock: NAHDIM_clean_sbu_0, # of connection points: 4
#     Node 21, Type 0, BuildingBlock: NAHDIM_clean_sbu_0, # of connection points: 4
#     Node 22, Type 0, BuildingBlock: NAHDIM_clean_sbu_0, # of connection points: 4
#     Node 23, Type 0, BuildingBlock: NAHDIM_clean_sbu_0, # of connection points: 4
#     Node 24, Type 0, BuildingBlock: NAHDIM_clean_sbu_0, # of connection points: 4
#     Node 25, Type 0, BuildingBlock: NAHDIM_clean_sbu_0, # of connection points: 4
#     Node 26, Type 0, BuildingBlock: NAHDIM_clean_sbu_0, # of connection points: 4
#     Node 27, Type 0, BuildingBlock: NAHDIM_clean_sbu_0, # of connection points: 4
#     Node 28, Type 0, BuildingBlock: NAHDIM_clean_sbu_0, # of connection points: 4
#     Node 29, Type 0, BuildingBlock: NAHDIM_clean_sbu_0, # of connection points: 4
#     Node 30, Type 0, BuildingBlock: NAHDIM_clean_sbu_0, # of connection points: 4
#     Node 31, Type 0, BuildingBlock: NAHDIM_clean_sbu_0, # of connection points: 4
#     Edge 32, Type (0, 0), BuildingBlock: KIFKEQ_clean_linker_1, # of connection points: 2
#     Edge 33, Type (0, 0), BuildingBlock: KIFKEQ_clean_linker_1, # of connection points: 2
#     Edge 34, Type (0, 0), BuildingBlock: KIFKEQ_clean_linker_1, # of connection points: 2
#     Edge 35, Type (0, 0), BuildingBlock: KIFKEQ_clean_linker_1, # of connection points: 2
#     Edge 36, Type (0, 0), BuildingBlock: KIFKEQ_clean_linker_1, # of connection points: 2
#     Edge 37, Type (0, 0), BuildingBlock: KIFKEQ_clean_linker_1, # of connection points: 2
#     Edge 38, Type (0, 0), BuildingBlock: KIFKEQ_clean_linker_1, # of connection points: 2
#     Edge 39, Type (0, 0), BuildingBlock: KIFKEQ_clean_linker_1, # of connection points: 2
#     Edge 40, Type (0, 0), BuildingBlock: KIFKEQ_clean_linker_1, # of connection points: 2
#     Edge 41, Type (0, 0), BuildingBlock: KIFKEQ_clean_linker_1, # of connection points: 2
#     Edge 42, Type (0, 0), BuildingBlock: KIFKEQ_clean_linker_1, # of connection points: 2
#     Edge 43, Type (0, 0), BuildingBlock: KIFKEQ_clean_linker_1, # of connection points: 2
#     Edge 44, Type (0, 0), BuildingBlock: KIFKEQ_clean_linker_1, # of connection points: 2
#     Edge 45, Type (0, 0), BuildingBlock: KIFKEQ_clean_linker_1, # of connection points: 2
#     Edge 46, Type (0, 0), BuildingBlock: KIFKEQ_clean_linker_1, # of connection points: 2
#     Edge 47, Type (0, 0), BuildingBlock: KIFKEQ_clean_linker_1, # of connection points: 2
#     Edge 48, Type (0, 0), BuildingBlock: KIFKEQ_clean_linker_1, # of connection points: 2
#     Edge 49, Type (0, 0), BuildingBlock: KIFKEQ_clean_linker_1, # of connection points: 2
#     Edge 50, Type (0, 0), BuildingBlock: KIFKEQ_clean_linker_1, # of connection points: 2
#     Edge 51, Type (0, 0), BuildingBlock: KIFKEQ_clean_linker_1, # of connection points: 2
#     Edge 52, Type (0, 0), BuildingBlock: KIFKEQ_clean_linker_1, # of connection points: 2
#     Edge 53, Type (0, 0), BuildingBlock: KIFKEQ_clean_linker_1, # of connection points: 2
#     Edge 54, Type (0, 0), BuildingBlock: KIFKEQ_clean_linker_1, # of connection points: 2
#     Edge 55, Type (0, 0), BuildingBlock: KIFKEQ_clean_linker_1, # of connection points: 2
#     Edge 56, Type (0, 0), BuildingBlock: KIFKEQ_clean_linker_1, # of connection points: 2
#     Edge 57, Type (0, 0), BuildingBlock: KIFKEQ_clean_linker_1, # of connection points: 2
#     Edge 58, Type (0, 0), BuildingBlock: KIFKEQ_clean_linker_1, # of connection points: 2
#     Edge 59, Type (0, 0), BuildingBlock: KIFKEQ_clean_linker_1, # of connection points: 2
#     Edge 60, Type (0, 0), BuildingBlock: KIFKEQ_clean_linker_1, # of connection points: 2
#     Edge 61, Type (0, 0), BuildingBlock: KIFKEQ_clean_linker_1, # of connection points: 2
#     Edge 62, Type (0, 0), BuildingBlock: KIFKEQ_clean_linker_1, # of connection points: 2
#     Edge 63, Type (0, 0), BuildingBlock: KIFKEQ_clean_linker_1, # of connection points: 2
#     Edge 64, Type (0, 0), BuildingBlock: KIFKEQ_clean_linker_1, # of connection points: 2
#     Edge 65, Type (0, 0), BuildingBlock: KIFKEQ_clean_linker_1, # of connection points: 2
#     Edge 66, Type (0, 0), BuildingBlock: KIFKEQ_clean_linker_1, # of connection points: 2
#     Edge 67, Type (0, 0), BuildingBlock: KIFKEQ_clean_linker_1, # of connection points: 2
#     Edge 68, Type (0, 0), BuildingBlock: KIFKEQ_clean_linker_1, # of connection points: 2
#     Edge 69, Type (0, 0), BuildingBlock: KIFKEQ_clean_linker_1, # of connection points: 2
#     Edge 70, Type (0, 0), BuildingBlock: KIFKEQ_clean_linker_1, # of connection points: 2
#     Edge 71, Type (0, 0), BuildingBlock: KIFKEQ_clean_linker_1, # of connection points: 2
#     Edge 72, Type (0, 0), BuildingBlock: KIFKEQ_clean_linker_1, # of connection points: 2
#     Edge 73, Type (0, 0), BuildingBlock: KIFKEQ_clean_linker_1, # of connection points: 2
#     Edge 74, Type (0, 0), BuildingBlock: KIFKEQ_clean_linker_1, # of connection points: 2
#     Edge 75, Type (0, 0), BuildingBlock: KIFKEQ_clean_linker_1, # of connection points: 2
#     Edge 76, Type (0, 0), BuildingBlock: KIFKEQ_clean_linker_1, # of connection points: 2
#     Edge 77, Type (0, 0), BuildingBlock: KIFKEQ_clean_linker_1, # of connection points: 2
#     Edge 78, Type (0, 0), BuildingBlock: KIFKEQ_clean_linker_1, # of connection points: 2
#     Edge 79, Type (0, 0), BuildingBlock: KIFKEQ_clean_linker_1, # of connection points: 2
#     Edge 80, Type (0, 0), BuildingBlock: KIFKEQ_clean_linker_1, # of connection points: 2
#     Edge 81, Type (0, 0), BuildingBlock: KIFKEQ_clean_linker_1, # of connection points: 2
#     Edge 82, Type (0, 0), BuildingBlock: KIFKEQ_clean_linker_1, # of connection points: 2
#     Edge 83, Type (0, 0), BuildingBlock: KIFKEQ_clean_linker_1, # of connection points: 2
#     Edge 84, Type (0, 0), BuildingBlock: KIFKEQ_clean_linker_1, # of connection points: 2
#     Edge 85, Type (0, 0), BuildingBlock: KIFKEQ_clean_linker_1, # of connection points: 2
#     Edge 86, Type (0, 0), BuildingBlock: KIFKEQ_clean_linker_1, # of connection points: 2
#     Edge 87, Type (0, 0), BuildingBlock: KIFKEQ_clean_linker_1, # of connection points: 2
#     Edge 88, Type (0, 0), BuildingBlock: KIFKEQ_clean_linker_1, # of connection points: 2
#     Edge 89, Type (0, 0), BuildingBlock: KIFKEQ_clean_linker_1, # of connection points: 2
#     Edge 90, Type (0, 0), BuildingBlock: KIFKEQ_clean_linker_1, # of connection points: 2
#     Edge 91, Type (0, 0), BuildingBlock: KIFKEQ_clean_linker_1, # of connection points: 2
#     Edge 92, Type (0, 0), BuildingBlock: KIFKEQ_clean_linker_1, # of connection points: 2
#     Edge 93, Type (0, 0), BuildingBlock: KIFKEQ_clean_linker_1, # of connection points: 2
#     Edge 94, Type (0, 0), BuildingBlock: KIFKEQ_clean_linker_1, # of connection points: 2
#     Edge 95, Type (0, 0), BuildingBlock: KIFKEQ_clean_linker_1, # of connection points: 2
# Relax obj value: 0.216
# Max RMSD: 0.240
# Mean RMSD: 0.240
data_MOF--net-uow--node1-NAHDIM_clean_sbu_0--edge1-KIFKEQ_clean_linker_1
_symmetry_space_group_name_H-M    P1
_symmetry_Int_Tables_number       1
_symmetry_cell_setting            triclinic
loop_
_symmetry_equiv_pos_as_xyz
'x, y, z'
_cell_length_a     63.309107
_cell_length_b     63.292098
_cell_length_c     40.054928
_cell_angle_alpha  89.977447
_cell_angle_beta   90.052824
_cell_angle_gamma 89.969662
loop_
_atom_site_label
_atom_site_type_symbol
_atom_site_fract_x
_atom_site_fract_y
_atom_site_fract_z
_atom_type_partial_charge
C0 C 0.02852 0.42069 0.23201 0.0
O1 O 0.01529 0.4118 0.211 0.0
O2 O -0.00399 0.37811 0.27067 0.0
Zn3 Zn 0.02699 0.37956 0.25931 0.0
O4 O 0.03329 0.36545 0.21535 0.0
C5 C 0.0348 0.35113 0.31392 0.0
O6 O 0.01457 0.34736 0.30981 0.0
O7 O 0.0359 0.4098 0.25597 0.0
C8 C 0.03822 0.34601 0.21367 0.0
O9 O 0.03839 0.3346 0.24106 0.0
C10 C 0.98307 0.36595 0.25587 0.0
O11 O 0.98956 0.35483 0.23017 0.0
O12 O 0.04374 0.36485 0.29554 0.0
C13 C 0.81842 0.79116 0.54807 0.0
O14 O 0.82918 0.78021 0.57016 0.0
O15 O 0.87002 0.77035 0.52462 0.0
Zn16 Zn 0.85973 0.80034 0.5206 0.0
O17 O 0.86695 0.81124 0.47515 0.0
C18 C 0.87939 0.80935 0.58316 0.0
O19 O 0.87381 0.78969 0.58881 0.0
O20 O 0.82827 0.80136 0.52565 0.0
C21 C 0.88477 0.80735 0.462 0.0
O22 O 0.89876 0.79631 0.47887 0.0
C23 C 0.85959 0.75413 0.51585 0.0
O24 O 0.84081 0.75646 0.50238 0.0
O25 O 0.87441 0.81787 0.55551 0.0
C26 C 0.47005 0.58891 0.75982 0.0
O27 O 0.4705 0.59359 0.79176 0.0
O28 O 0.5018 0.64002 0.77276 0.0
Zn29 Zn 0.47323 0.63399 0.7526 0.0
O30 O 0.46751 0.65236 0.71253 0.0
C31 C 0.45471 0.64082 0.8179 0.0
O32 O 0.47385 0.63638 0.82848 0.0
O33 O 0.47127 0.60369 0.73846 0.0
C34 C 0.45827 0.67009 0.71572 0.0
O35 O 0.45335 0.67683 0.74574 0.0
C36 C 0.51132 0.65746 0.76829 0.0
O37 O 0.50294 0.67165 0.74835 0.0
O38 O 0.45077 0.64013 0.78681 0.0
C39 C 0.67672 0.20959 0.06808 0.0
O40 O 0.6666 0.21959 0.09194 0.0
O41 O 0.62214 0.2265 0.05651 0.0
Zn42 Zn 0.63465 0.19819 0.04584 0.0
O43 O 0.62461 0.19034 0.00014 0.0
C44 C 0.6211 0.18165 0.10921 0.0
O45 O 0.62887 0.19956 0.1203 0.0
O46 O 0.6663 0.19917 0.04654 0.0
C47 C 0.60489 0.18756 0.99621 0.0
O48 O 0.5923 0.18961 0.02207 0.0
C49 C 0.63008 0.24431 0.04901 0.0
O50 O 0.64831 0.24518 0.03344 0.0
O51 O 0.62287 0.17721 0.07841 0.0
C52 C 0.05221 0.57719 0.21733 0.0
O53 O 0.04899 0.5872 0.18904 0.0
O54 O 0.01602 0.62266 0.23316 0.0
Zn55 Zn 0.04665 0.61871 0.24516 0.0
O56 O 0.05276 0.62987 0.2912 0.0
C57 C 0.05844 0.6392 0.18313 0.0
O58 O 0.03996 0.63231 0.17293 0.0
O59 O 0.05265 0.58764 0.24438 0.0
C60 C 0.05819 0.649 0.2957 0.0
O61 O 0.05936 0.66179 0.26994 0.0
C62 C 0.00697 0.64056 0.23414 0.0
O63 O 0.01765 0.65708 0.24453 0.0
O64 O 0.06477 0.63453 0.21234 0.0
C65 C 0.66328 0.76429 0.51447 0.0
O66 O 0.65598 0.76282 0.48385 0.0
O67 O 0.61636 0.72507 0.51637 0.0
Zn68 Zn 0.62009 0.75513 0.53189 0.0
O69 O 0.60496 0.76146 0.57486 0.0
C70 C 0.60581 0.76873 0.46646 0.0
O71 O 0.61231 0.74988 0.45733 0.0
O72 O 0.6508 0.7614 0.53883 0.0
C73 C 0.58567 0.76706 0.57495 0.0
O74 O 0.57506 0.76708 0.54674 0.0
C75 C 0.6004 0.7138 0.52354 0.0
O76 O 0.58623 0.72119 0.54442 0.0
O77 O 0.60813 0.77448 0.49665 0.0
C78 C 0.45944 0.43665 0.68823 0.0
O79 O 0.47151 0.42957 0.66403 0.0
O80 O 0.48134 0.38596 0.68266 0.0
Zn81 Zn 0.45169 0.39246 0.69716 0.0
O82 O 0.44486 0.3764 0.7391 0.0
C83 C 0.43624 0.38355 0.63059 0.0
O84 O 0.45357 0.39332 0.62128 0.0
O85 O 0.44882 0.42358 0.70547 0.0
C86 C 0.45261 0.35817 0.74438 0.0
O87 O 0.46566 0.34997 0.72243 0.0
C88 C 0.49732 0.3874 0.70173 0.0
O89 O 0.49474 0.39348 0.73281 0.0
O90 O 0.4319 0.38228 0.6615 0.0
C91 C 0.82929 0.23954 0.01622 0.0
O92 O 0.84345 0.24319 0.0395 0.0
O93 O 0.8709 0.26997 0.95153 0.0
Zn94 Zn 0.86543 0.24171 0.97258 0.0
O95 O 0.88416 0.23706 0.01239 0.0
C96 C 0.87493 0.22263 0.90833 0.0
O97 O 0.87104 0.24168 0.89681 0.0
O98 O 0.83505 0.23868 0.98586 0.0
C99 C 0.90341 0.23195 0.00847 0.0
O100 O 0.91116 0.23082 0.97811 0.0
C101 C 0.88308 0.28392 0.96374 0.0
O102 O 0.89178 0.2807 0.99308 0.0
O103 O 0.87278 0.219 0.93936 0.0
C104 C 0.92812 0.56336 0.65826 0.0
O105 O 0.92675 0.57184 0.6284 0.0
O106 O 0.95688 0.61803 0.68416 0.0
Zn107 Zn 0.92717 0.60677 0.68529 0.0
O108 O 0.91512 0.61542 0.72936 0.0
C109 C 0.91892 0.6249 0.62074 0.0
O110 O 0.93858 0.61919 0.61546 0.0
O111 O 0.9279 0.57518 0.68387 0.0
C112 C 0.91729 0.63445 0.73883 0.0
O113 O 0.92644 0.64805 0.71872 0.0
C114 C 0.97248 0.60823 0.67162 0.0
O115 O 0.96955 0.58958 0.65804 0.0
O116 O 0.91025 0.62018 0.64836 0.0
C117 C 0.16043 0.18415 0.47973 0.0
O118 O 0.15047 0.16706 0.48968 0.0
O119 O 0.10687 0.22659 0.45086 0.0
Zn120 Zn 0.11841 0.1982 0.46418 0.0
O121 O 0.10591 0.18961 0.50817 0.0
C122 C 0.11259 0.1804 0.39868 0.0
O123 O 0.1226 0.19761 0.38946 0.0
O124 O 0.14987 0.19945 0.46778 0.0
C125 C 0.09869 0.20305 0.52879 0.0
O126 O 0.09981 0.22327 0.5216 0.0
C127 C 0.11749 0.24008 0.43445 0.0
O128 O 0.13708 0.23573 0.42609 0.0
O129 O 0.1096 0.17698 0.42957 0.0
C130 C 0.51473 0.40935 0.23872 0.0
O131 O 0.49817 0.39804 0.24711 0.0
O132 O 0.50304 0.35752 0.20758 0.0
Zn133 Zn 0.53126 0.36867 0.22261 0.0
O134 O 0.53892 0.35638 0.2674 0.0
C135 C 0.54812 0.35828 0.15812 0.0
O136 O 0.5292 0.36411 0.14822 0.0
O137 O 0.53084 0.40013 0.22672 0.0
C138 C 0.55169 0.34096 0.27004 0.0
O139 O 0.55976 0.33257 0.24291 0.0
C140 C 0.50068 0.3376 0.20646 0.0
O141 O 0.5162 0.32541 0.21666 0.0
O142 O 0.5529 0.35981 0.18883 0.0
C143 C 0.31541 0.7898 0.9755 0.0
O144 O 0.31856 0.7963 0.94475 0.0
O145 O 0.36363 0.75146 0.9478 0.0
Zn146 Zn 0.35968 0.77859 0.97283 0.0
O147 O 0.38017 0.77925 0.01097 0.0
C148 C 0.36695 0.80105 0.91092 0.0
O149 O 0.36103 0.78309 0.89742 0.0
O150 O 0.33054 0.78141 0.99155 0.0
C151 C 0.3997 0.78267 0.00608 0.0
O152 O 0.40654 0.78553 0.97546 0.0
C153 C 0.36865 0.73428 0.96217 0.0
O154 O 0.36987 0.73375 0.9949 0.0
O155 O 0.3667 0.80295 0.94251 0.0
C156 C 0.97806 0.41469 0.69846 0.0
O157 O 0.99012 0.40473 0.67692 0.0
O158 O 0.01055 0.37508 0.75942 0.0
Zn159 Zn 0.98217 0.37636 0.73738 0.0
O160 O 0.9813 0.35829 0.69634 0.0
C161 C 0.95782 0.37381 0.79775 0.0
O162 O 0.96812 0.39123 0.80502 0.0
O163 O 0.97343 0.40582 0.72594 0.0
C164 C 0.97978 0.33835 0.69896 0.0
O165 O 0.97982 0.32972 0.7288 0.0
C166 C 0.02761 0.37035 0.74451 0.0
O167 O 0.02737 0.36738 0.71206 0.0
O168 O 0.96114 0.36482 0.76989 0.0
C169 C 0.31804 0.20132 0.50168 0.0
O170 O 0.33115 0.18582 0.4948 0.0
O171 O 0.36215 0.25562 0.51244 0.0
Zn172 Zn 0.35658 0.22444 0.50751 0.0
O173 O 0.36809 0.21325 0.46409 0.0
C174 C 0.38313 0.21686 0.5655 0.0
O175 O 0.38699 0.23717 0.56294 0.0
O176 O 0.32542 0.21949 0.50832 0.0
C177 C 0.38628 0.20475 0.46302 0.0
O178 O 0.39788 0.20424 0.49021 0.0
C179 C 0.37832 0.26461 0.50015 0.0
O180 O 0.39159 0.25347 0.48215 0.0
O181 O 0.3702 0.20828 0.54535 0.0
C182 C 0.51954 0.56434 0.29588 0.0
O183 O 0.50692 0.57163 0.3192 0.0
O184 O 0.50015 0.61506 0.30551 0.0
Zn185 Zn 0.52932 0.60825 0.28933 0.0
O186 O 0.53527 0.62472 0.24761 0.0
C187 C 0.54718 0.61179 0.35531 0.0
O188 O 0.53176 0.59876 0.36281 0.0
O189 O 0.53121 0.57715 0.27987 0.0
C190 C 0.53699 0.6447 0.24907 0.0
O191 O 0.53494 0.65418 0.27807 0.0
C192 C 0.48546 0.62241 0.28727 0.0
O193 O 0.48904 0.62603 0.25548 0.0
O194 O 0.54975 0.61731 0.32507 0.0
C195 C 0.17072 0.80246 0.07673 0.0
O196 O 0.16366 0.78732 0.09619 0.0
O197 O 0.11983 0.78239 0.08639 0.0
Zn198 Zn 0.12639 0.81121 0.06817 0.0
O199 O 0.11359 0.81358 0.02256 0.0
C200 C 0.10722 0.82885 0.12693 0.0
O201 O 0.11323 0.81082 0.14015 0.0
O202 O 0.15767 0.81523 0.06353 0.0
C203 C 0.09414 0.81797 0.01888 0.0
O204 O 0.08229 0.82079 0.04542 0.0
C205 C 0.11825 0.76605 0.06816 0.0
O206 O 0.12118 0.76771 0.0358 0.0
O207 O 0.11264 0.83314 0.09717 0.0
C208 C 0.52926 0.92474 0.76183 0.0
O209 O 0.5274 0.91004 0.73887 0.0
O210 O 0.4951 0.88402 0.81944 0.0
Zn211 Zn 0.52513 0.88928 0.80621 0.0
O212 O 0.53405 0.86972 0.76926 0.0
C213 C 0.56277 0.88057 0.84475 0.0
O214 O 0.57245 0.88469 0.81648 0.0
O215 O 0.52885 0.91951 0.79246 0.0
C216 C 0.5264 0.85132 0.76534 0.0
O217 O 0.51156 0.84463 0.78564 0.0
C218 C 0.47925 0.88269 0.80008 0.0
O219 O 0.48183 0.88526 0.7678 0.0
O220 O 0.54282 0.88243 0.84625 0.0
C221 C 0.33459 0.26482 0.01879 0.0
O222 O 0.34357 0.26564 0.04832 0.0
O223 O 0.38437 0.22794 0.00192 0.0
Zn224 Zn 0.37748 0.25865 0.99434 0.0
O225 O 0.38923 0.26941 0.95084 0.0
C226 C 0.39298 0.26796 0.06074 0.0
O227 O 0.38643 0.24867 0.06703 0.0
O228 O 0.34597 0.26212 0.99303 0.0
C229 C 0.40742 0.27785 0.94916 0.0
O230 O 0.41925 0.27873 0.97608 0.0
C231 C 0.40334 0.22139 0.00146 0.0
O232 O 0.41848 0.23466 0.9936 0.0
O233 O 0.3902 0.27568 0.03177 0.0
C234 C 0.96282 0.07546 0.19873 0.0
O235 O 0.97998 0.08408 0.18634 0.0
O236 O 0.98962 0.1136 0.25921 0.0
Zn237 Zn 0.96132 0.11386 0.23662 0.0
O238 O 0.96164 0.1335 0.19744 0.0
C239 C 0.94243 0.12196 0.30064 0.0
O240 O 0.95846 0.11058 0.31125 0.0
O241 O 0.95256 0.08517 0.22121 0.0
C242 C 0.96185 0.15336 0.202 0.0
O243 O 0.96272 0.16075 0.23262 0.0
C244 C 0.00708 0.11789 0.24515 0.0
O245 O 0.00745 0.12164 0.21289 0.0
O246 O 0.94007 0.12491 0.26948 0.0
C247 C 0.17382 0.6709 0.55969 0.0
O248 O 0.15967 0.66139 0.54098 0.0
O249 O 0.13811 0.72737 0.58959 0.0
Zn250 Zn 0.13831 0.69654 0.57707 0.0
O251 O 0.12719 0.69201 0.53059 0.0
C252 C 0.10365 0.68944 0.62091 0.0
O253 O 0.10134 0.70986 0.61627 0.0
O254 O 0.16805 0.68591 0.57867 0.0
C255 C 0.10886 0.69759 0.52109 0.0
O256 O 0.09655 0.70799 0.54174 0.0
C257 C 0.13595 0.74254 0.56907 0.0
O258 O 0.13427 0.73855 0.53701 0.0
O259 O 0.11936 0.68011 0.60779 0.0
C260 C 0.53897 0.07929 0.70422 0.0
O261 O 0.5538 0.08673 0.68455 0.0
O262 O 0.50217 0.13698 0.70578 0.0
Zn263 Zn 0.52975 0.12359 0.71884 0.0
O264 O 0.53766 0.13329 0.76483 0.0
C265 C 0.54955 0.13618 0.65629 0.0
O266 O 0.5314 0.13073 0.64296 0.0
O267 O 0.52715 0.09205 0.72002 0.0
C268 C 0.54758 0.15054 0.76893 0.0
O269 O 0.55199 0.16227 0.74278 0.0
C270 C 0.4893 0.12789 0.68613 0.0
O271 O 0.49382 0.10895 0.67477 0.0
O272 O 0.55244 0.13351 0.6874 0.0
C273 C 0.17649 0.27239 0.99104 0.0
O274 O 0.16385 0.26322 0.01263 0.0
O275 O 0.12764 0.2529 0.94209 0.0
Zn276 Zn 0.13734 0.2813 0.95838 0.0
O277 O 0.1225 0.28836 0.00115 0.0
C278 C 0.13015 0.29857 0.89309 0.0
O279 O 0.13731 0.27998 0.88384 0.0
O280 O 0.16862 0.28128 0.96546 0.0
C281 C 0.10307 0.2934 0.00042 0.0
O282 O 0.09314 0.29378 0.97161 0.0
C283 C 0.12136 0.23816 0.9612 0.0
O284 O 0.12161 0.24104 0.99367 0.0
O285 O 0.12937 0.30301 0.924 0.0
C286 C 0.92494 0.92582 0.14502 0.0
O287 O 0.93416 0.91581 0.12027 0.0
O288 O 0.95175 0.87665 0.16996 0.0
Zn289 Zn 0.92091 0.88396 0.17297 0.0
O290 O 0.91129 0.87469 0.21822 0.0
C291 C 0.91376 0.86187 0.11139 0.0
O292 O 0.93323 0.86798 0.10553 0.0
O293 O 0.91728 0.91523 0.16907 0.0
C294 C 0.91593 0.85605 0.22746 0.0
O295 O 0.92609 0.84361 0.2067 0.0
C296 C 0.9665 0.88891 0.17935 0.0
O297 O 0.96184 0.90773 0.19103 0.0
O298 O 0.90477 0.86774 0.13819 0.0
C299 C 0.32336 0.69185 0.49735 0.0
O300 O 0.3402 0.68564 0.51386 0.0
O301 O 0.35363 0.74351 0.438 0.0
Zn302 Zn 0.35416 0.717 0.46546 0.0
O303 O 0.36953 0.72135 0.50876 0.0
C304 C 0.36626 0.68996 0.41032 0.0
O305 O 0.34951 0.69793 0.39555 0.0
O306 O 0.32528 0.70569 0.47456 0.0
C307 C 0.38953 0.72297 0.50855 0.0
O308 O 0.39946 0.72346 0.47976 0.0
C309 C 0.3574 0.76175 0.44979 0.0
O310 O 0.36023 0.76395 0.4821 0.0
O311 O 0.37065 0.69551 0.43997 0.0
C312 C 0.46788 0.05745 0.24752 0.0
O313 O 0.48002 0.07047 0.26441 0.0
O314 O 0.48754 0.10415 0.21147 0.0
Zn315 Zn 0.45707 0.09622 0.21855 0.0
O316 O 0.44555 0.11106 0.25911 0.0
C317 C 0.44879 0.10442 0.14901 0.0
O318 O 0.4673 0.09533 0.14522 0.0
O319 O 0.45561 0.06493 0.22535 0.0
C320 C 0.43611 0.12871 0.25636 0.0
O321 O 0.43385 0.1372 0.22663 0.0
C322 C 0.49534 0.12145 0.22175 0.0
O323 O 0.48336 0.13465 0.2385 0.0
O324 O 0.44077 0.10547 0.17803 0.0
C325 C 0.66563 0.70567 -0.00303 0.0
O326 O 0.65847 0.69688 0.96952 0.0
O327 O 0.62292 0.75547 0.98326 0.0
Zn328 Zn 0.62414 0.7258 0.00077 0.0
O329 O 0.60649 0.7223 0.04199 0.0
C330 C 0.61636 0.71075 0.93414 0.0
O331 O 0.62906 0.72642 0.92644 0.0
O332 O 0.65391 0.71831 0.01318 0.0
C333 C 0.58751 0.71582 0.04084 0.0
O334 O 0.57859 0.71257 0.01167 0.0
C335 C 0.61676 0.77172 -0.00091 0.0
O336 O 0.61105 0.7699 0.03048 0.0
O337 O 0.61266 0.70684 0.96471 0.0
C338 C 0.03427 0.92068 0.70415 0.0
O339 O 0.02434 0.91091 0.67983 0.0
O340 O 0.01386 0.86746 0.71137 0.0
Zn341 Zn 0.04111 0.87834 0.73028 0.0
O342 O 0.04304 0.86995 0.77839 0.0
C343 C 0.07156 0.86769 0.67713 0.0
O344 O 0.06341 0.88342 0.66004 0.0
O345 O 0.04293 0.90991 0.72717 0.0
C346 C 0.04651 0.8507 0.78549 0.0
O347 O 0.048 0.83686 0.76116 0.0
C348 C 0.99591 0.87603 0.71567 0.0
O349 O 0.99445 0.8934 0.73348 0.0
O350 O 0.06484 0.86386 0.70637 0.0
C351 C 0.83574 0.27029 0.50147 0.0
O352 O 0.84707 0.25556 0.51609 0.0
O353 O 0.87563 0.24761 0.43775 0.0
Zn354 Zn 0.87332 0.27491 0.46279 0.0
O355 O 0.89225 0.27463 0.50287 0.0
C356 C 0.87693 0.29977 0.40255 0.0
O357 O 0.86228 0.28682 0.39154 0.0
O358 O 0.84363 0.2806 0.47731 0.0
C359 C 0.91212 0.27613 0.49918 0.0
O360 O 0.92 0.27685 0.46886 0.0
C361 C 0.87921 0.22981 0.45128 0.0
O362 O 0.88073 0.22854 0.48392 0.0
O363 O 0.88339 0.29798 0.43246 0.0
C364 C 0.48121 0.90019 0.28186 0.0
O365 O 0.48613 0.89233 0.3112 0.0
O366 O 0.50393 0.84642 0.28827 0.0
Zn367 Zn 0.47843 0.85611 0.26207 0.0
O368 O 0.4784 0.84333 0.21633 0.0
C369 C 0.43823 0.85578 0.3002 0.0
O370 O 0.43982 0.87643 0.30191 0.0
O371 O 0.47751 0.88774 0.25768 0.0
C372 C 0.47543 0.82356 0.21354 0.0
O373 O 0.47422 0.81201 0.24073 0.0
C374 C 0.50211 0.84435 0.31972 0.0
O375 O 0.48402 0.84906 0.33391 0.0
O376 O 0.45228 0.84519 0.28491 0.0
C377 C 0.81812 0.68929 0.05941 0.0
O378 O 0.82766 0.70434 0.07622 0.0
O379 O 0.86884 0.71017 0.03904 0.0
Zn380 Zn 0.86038 0.67964 0.03617 0.0
O381 O 0.86783 0.66912 0.99057 0.0
C382 C 0.87744 0.67117 0.10055 0.0
O383 O 0.86583 0.68773 0.1079 0.0
O384 O 0.82906 0.67655 0.04208 0.0
C385 C 0.88479 0.67511 0.97656 0.0
O386 O 0.89772 0.68764 0.99287 0.0
C387 C 0.85914 0.72544 0.02523 0.0
O388 O 0.84197 0.72173 0.00776 0.0
O389 O 0.87694 0.66391 0.07098 0.0
C390 C 0.01635 0.07657 0.74579 0.0
O391 O 0.01171 0.08982 0.72163 0.0
O392 O 0.99023 0.12405 0.80097 0.0
Zn393 Zn 0.01846 0.11495 0.78332 0.0
O394 O 0.02502 0.13018 0.74062 0.0
C395 C 0.03659 0.12703 0.84695 0.0
O396 O 0.01743 0.12334 0.85806 0.0
O397 O 0.01948 0.08367 0.77508 0.0
C398 C 0.03247 0.14881 0.74064 0.0
O399 O 0.03503 0.1587 0.76919 0.0
C400 C 0.97523 0.13119 0.78316 0.0
O401 O 0.97743 0.13193 0.75057 0.0
O402 O 0.04078 0.12351 0.81643 0.0
C403 C 0.68364 0.29256 0.56486 0.0
O404 O 0.67597 0.28544 0.59318 0.0
O405 O 0.63142 0.26869 0.56486 0.0
Zn406 Zn 0.63969 0.29691 0.54624 0.0
O407 O 0.62722 0.30016 0.5006 0.0
C408 C 0.62397 0.31701 0.60597 0.0
O409 O 0.63008 0.29931 0.62015 0.0
O410 O 0.67106 0.29877 0.5422 0.0
C411 C 0.60733 0.30123 0.49687 0.0
O412 O 0.59508 0.2998 0.52324 0.0
C413 C 0.62979 0.25226 0.54683 0.0
O414 O 0.63405 0.2535 0.51479 0.0
O415 O 0.62754 0.3198 0.57507 0.0
H416 H 0.03736 0.36432 0.15186 0.0
H417 H 0.05501 0.30682 0.20313 0.0
H418 H 0.0516 0.35011 0.09995 0.0
H419 H 0.0691 0.29261 0.1511 0.0
H420 H 0.11767 0.29018 0.06437 0.0
H421 H 0.1001 0.30155 0.11542 0.0
H422 H 0.04589 0.32148 0.05791 0.0
H423 H 0.0635 0.31022 0.00668 0.0
C424 C 0.04408 0.34857 0.15199 0.0
C425 C 0.04519 0.33675 0.18166 0.0
C426 C 0.05212 0.3404 0.12221 0.0
C427 C 0.06155 0.3203 0.12155 0.0
C428 C 0.06214 0.30825 0.151 0.0
C429 C 0.05397 0.31636 0.18073 0.0
C430 C 0.10197 0.29689 0.0626 0.0
C431 C 0.09202 0.2994 0.03147 0.0
C432 C 0.09185 0.30326 0.09187 0.0
C433 C 0.07164 0.3124 0.09062 0.0
C434 C 0.06155 0.31465 0.05956 0.0
C435 C 0.07161 0.30812 0.03028 0.0
H436 H 0.89606 0.87817 0.27692 0.0
H437 H 0.92439 0.81755 0.25523 0.0
H438 H 0.88881 0.86657 0.33378 0.0
H439 H 0.91677 0.80585 0.31193 0.0
H440 H 0.92091 0.80125 0.42591 0.0
H441 H 0.92829 0.81313 0.36918 0.0
H442 H 0.86636 0.84164 0.36379 0.0
H443 H 0.8591 0.83013 0.42064 0.0
C444 C 0.90062 0.86232 0.28421 0.0
C445 C 0.91082 0.84878 0.26157 0.0
C446 C 0.89638 0.85565 0.31675 0.0
C447 C 0.90225 0.83531 0.32735 0.0
C448 C 0.91232 0.82172 0.30464 0.0
C449 C 0.91655 0.82838 0.27208 0.0
C450 C 0.90889 0.81009 0.41265 0.0
C451 C 0.88943 0.81475 0.42779 0.0
C452 C 0.91307 0.81678 0.38008 0.0
C453 C 0.89789 0.82829 0.362 0.0
C454 C 0.87847 0.83302 0.37721 0.0
C455 C 0.87429 0.82633 0.40974 0.0
H456 H 0.46685 0.66124 0.65038 0.0
H457 H 0.43414 0.70591 0.71352 0.0
H458 H 0.45222 0.67843 0.60116 0.0
H459 H 0.41969 0.72327 0.66411 0.0
H460 H 0.37387 0.72125 0.572 0.0
H461 H 0.39301 0.71222 0.62275 0.0
H462 H 0.45152 0.71102 0.56736 0.0
H463 H 0.43233 0.71982 0.51636 0.0
C464 C 0.4568 0.67493 0.65375 0.0
C465 C 0.45147 0.68205 0.68587 0.0
C466 C 0.44854 0.68489 0.62551 0.0
C467 C 0.43472 0.70215 0.62878 0.0
C468 C 0.43012 0.70985 0.66085 0.0
C469 C 0.43846 0.69994 0.68912 0.0
C470 C 0.39086 0.71943 0.57071 0.0
C471 C 0.40153 0.72098 0.54007 0.0
C472 C 0.40186 0.71437 0.59987 0.0
C473 C 0.42375 0.71073 0.59898 0.0
C474 C 0.4346 0.71346 0.56869 0.0
C475 C 0.42361 0.7186 0.53953 0.0
H476 H 0.57317 0.18371 0.78526 0.0
H477 H 0.53894 0.13133 0.82847 0.0
H478 H 0.58664 0.19305 0.84039 0.0
H479 H 0.55258 0.14061 0.88349 0.0
H480 H 0.56412 0.17759 0.98053 0.0
H481 H 0.54966 0.16933 0.9256 0.0
H482 H 0.61147 0.17745 0.88189 0.0
H483 H 0.62595 0.18588 0.93673 0.0
C484 C 0.56846 0.17423 0.80651 0.0
C485 C 0.55502 0.15675 0.80249 0.0
C486 C 0.57628 0.17952 0.83803 0.0
C487 C 0.57071 0.16751 0.86619 0.0
C488 C 0.55699 0.15026 0.86226 0.0
C489 C 0.54927 0.14489 0.83072 0.0
C490 C 0.57463 0.17762 0.95921 0.0
C491 C 0.59618 0.18238 0.96297 0.0
C492 C 0.56636 0.1728 0.92779 0.0
C493 C 0.57944 0.17277 0.89949 0.0
C494 C 0.60097 0.17759 0.90322 0.0
C495 C 0.60928 0.18229 0.93466 0.0
H496 H 0.06715 0.62516 0.35071 0.0
H497 H 0.06288 0.68981 0.31653 0.0
H498 H 0.07896 0.63754 0.40536 0.0
H499 H 0.07452 0.70213 0.37141 0.0
H500 H 0.07432 0.71268 0.48755 0.0
H501 H 0.06112 0.70124 0.43297 0.0
H502 H 0.11265 0.65683 0.42514 0.0
H503 H 0.12599 0.6683 0.47931 0.0
C504 C 0.06857 0.642 0.35493 0.0
C505 C 0.06417 0.65652 0.3293 0.0
C506 C 0.07542 0.64906 0.38613 0.0
C507 C 0.07771 0.67076 0.39244 0.0
C508 C 0.07278 0.68531 0.36716 0.0
C509 C 0.06622 0.67825 0.33577 0.0
C510 C 0.08286 0.70054 0.4741 0.0
C511 C 0.10118 0.69138 0.4877 0.0
C512 C 0.07534 0.69406 0.44289 0.0
C513 C 0.08582 0.67809 0.42507 0.0
C514 C 0.10417 0.66902 0.43859 0.0
C515 C 0.11185 0.6757 0.46948 0.0
H516 H 0.54424 0.77722 0.5857 0.0
H517 H 0.6056 0.7774 0.63316 0.0
H518 H 0.52944 0.79598 0.63362 0.0
H519 H 0.59076 0.7962 0.68083 0.0
H520 H 0.56246 0.85652 0.72924 0.0
H521 H 0.57627 0.83374 0.68535 0.0
H522 H 0.52283 0.79204 0.69694 0.0
H523 H 0.50895 0.81481 0.74123 0.0
C524 C 0.5545 0.78101 0.60651 0.0
C525 C 0.57613 0.77598 0.60552 0.0
C526 C 0.546 0.79167 0.63396 0.0
C527 C 0.55903 0.79769 0.66071 0.0
C528 C 0.58045 0.79194 0.66031 0.0
C529 C 0.58889 0.78108 0.63309 0.0
C530 C 0.55364 0.84249 0.7225 0.0
C531 C 0.53461 0.83746 0.73867 0.0
C532 C 0.56163 0.82938 0.69754 0.0
C533 C 0.55066 0.81109 0.68793 0.0
C534 C 0.53155 0.80609 0.70388 0.0
C535 C 0.52368 0.81908 0.72924 0.0
H536 H 0.44732 0.29072 0.93318 0.0
H537 H 0.38355 0.28819 0.89473 0.0
H538 H 0.45859 0.3096 0.883 0.0
H539 H 0.39486 0.30721 0.84479 0.0
H540 H 0.4193 0.36558 0.78594 0.0
H541 H 0.40862 0.34501 0.83467 0.0
H542 H 0.46132 0.30281 0.81939 0.0
H543 H 0.47197 0.32325 0.77037 0.0
C544 C 0.43575 0.29409 0.91396 0.0
C545 C 0.41455 0.28802 0.91793 0.0
C546 C 0.44222 0.30481 0.88523 0.0
C547 C 0.42755 0.30993 0.86019 0.0
C548 C 0.40643 0.30361 0.86392 0.0
C549 C 0.40001 0.29262 0.89239 0.0
C550 C 0.42864 0.35195 0.79299 0.0
C551 C 0.44647 0.34602 0.77433 0.0
C552 C 0.42244 0.34011 0.82073 0.0
C553 C 0.43412 0.32231 0.83064 0.0
C554 C 0.45211 0.31653 0.8123 0.0
C555 C 0.45813 0.32818 0.78423 0.0
H556 H 0.89284 0.23426 0.0744 0.0
H557 H 0.94247 0.21348 0.00801 0.0
H558 H 0.91122 0.21809 0.12131 0.0
H559 H 0.96096 0.19745 0.05516 0.0
H560 H 0.96241 0.14348 0.13573 0.0
H561 H 0.95204 0.16595 0.08921 0.0
H562 H 0.94334 0.21833 0.15693 0.0
H563 H 0.95356 0.19576 0.20372 0.0
C564 C 0.90786 0.22657 0.06991 0.0
C565 C 0.91606 0.22491 0.03743 0.0
C566 C 0.91847 0.21744 0.09685 0.0
C567 C 0.93746 0.20638 0.09185 0.0
C568 C 0.94622 0.20567 0.05965 0.0
C569 C 0.93567 0.21492 0.0327 0.0
C570 C 0.9586 0.15987 0.14068 0.0
C571 C 0.95853 0.16777 0.17345 0.0
C572 C 0.95281 0.1728 0.11396 0.0
C573 C 0.94676 0.19387 0.11947 0.0
C574 C 0.94772 0.20208 0.15203 0.0
C575 C 0.95365 0.18917 0.17877 0.0
H576 H 0.92116 0.67336 0.7677 0.0
H577 H 0.89969 0.60973 0.78733 0.0
H578 H 0.91282 0.68322 0.82502 0.0
H579 H 0.89175 0.61951 0.84476 0.0
H580 H 0.86067 0.65052 0.93545 0.0
H581 H 0.86761 0.64119 0.8775 0.0
H582 H 0.92629 0.67596 0.8811 0.0
H583 H 0.91917 0.68566 0.9389 0.0
C584 C 0.91461 0.66149 0.7842 0.0
C585 C 0.91113 0.64075 0.77298 0.0
C586 C 0.90998 0.66711 0.8171 0.0
C587 C 0.90175 0.65211 0.83946 0.0
C588 C 0.89789 0.63148 0.82805 0.0
C589 C 0.90252 0.62586 0.79516 0.0
C590 C 0.87508 0.65615 0.92392 0.0
C591 C 0.88937 0.66884 0.94178 0.0
C592 C 0.87909 0.65073 0.89074 0.0
C593 C 0.89747 0.65788 0.8747 0.0
C594 C 0.91182 0.67047 0.89263 0.0
C595 C 0.90782 0.67589 0.92582 0.0
H596 H 0.07911 0.2272 0.57626 0.0
H597 H 0.09526 0.16265 0.55191 0.0
H598 H 0.06151 0.21507 0.62696 0.0
H599 H 0.07812 0.15064 0.60279 0.0
H600 H 0.02804 0.1332 0.67754 0.0
H601 H 0.04305 0.14721 0.62619 0.0
H602 H 0.06965 0.19956 0.68119 0.0
H603 H 0.0542 0.18581 0.73253 0.0
C604 C 0.079 0.21045 0.5818 0.0
C605 C 0.08853 0.19588 0.56002 0.0
C606 C 0.06898 0.20352 0.6109 0.0
C607 C 0.0683 0.18189 0.6188 0.0
C608 C 0.07801 0.16737 0.59712 0.0
C609 C 0.08797 0.17428 0.56806 0.0
C610 C 0.03693 0.1478 0.67866 0.0
C611 C 0.04005 0.15832 0.70915 0.0
C612 C 0.04565 0.15576 0.64926 0.0
C613 C 0.05776 0.17436 0.64967 0.0
C614 C 0.06029 0.18527 0.67998 0.0
C615 C 0.05149 0.17734 0.70943 0.0
H616 H 0.56574 0.30682 0.48044 0.0
H617 H 0.62834 0.30421 0.4376 0.0
H618 H 0.55103 0.31459 0.42542 0.0
H619 H 0.61368 0.3123 0.38291 0.0
H620 H 0.57915 0.3089 0.28425 0.0
H621 H 0.59141 0.2974 0.33901 0.0
H622 H 0.55155 0.34422 0.38581 0.0
H623 H 0.53899 0.3555 0.3311 0.0
C624 C 0.57635 0.30783 0.4593 0.0
C625 C 0.59821 0.30497 0.4634 0.0
C626 C 0.56793 0.31238 0.42783 0.0
C627 C 0.5812 0.31409 0.39985 0.0
C628 C 0.60301 0.31083 0.40389 0.0
C629 C 0.61142 0.30633 0.43531 0.0
C630 C 0.57288 0.31665 0.30621 0.0
C631 C 0.55819 0.3332 0.30331 0.0
C632 C 0.57998 0.31012 0.33758 0.0
C633 C 0.57254 0.31998 0.36671 0.0
C634 C 0.55743 0.33616 0.36385 0.0
C635 C 0.55033 0.34271 0.33248 0.0
H636 H 0.46209 0.78338 0.20021 0.0
H637 H 0.47581 0.84315 0.1527 0.0
H638 H 0.44718 0.77026 0.14802 0.0
H639 H 0.4607 0.83007 0.10073 0.0
H640 H 0.44042 0.7972 0.00597 0.0
H641 H 0.46293 0.80402 0.05441 0.0
H642 H 0.41398 0.78028 0.11942 0.0
H643 H 0.39163 0.77332 0.07126 0.0
C644 C 0.46227 0.79359 0.17852 0.0
C645 C 0.46985 0.81442 0.18073 0.0
C646 C 0.45364 0.7861 0.14868 0.0
C647 C 0.45254 0.79922 0.12044 0.0
C648 C 0.46143 0.81953 0.12202 0.0
C649 C 0.46998 0.82707 0.15188 0.0
C650 C 0.4346 0.79317 0.03058 0.0
C651 C 0.41417 0.78491 0.03483 0.0
C652 C 0.44746 0.79714 0.05828 0.0
C653 C 0.44021 0.79272 0.09068 0.0
C654 C 0.42013 0.78362 0.09475 0.0
C655 C 0.40724 0.77981 0.06715 0.0
H656 H 0.96691 0.29714 0.69668 0.0
H657 H 0.98192 0.35053 0.63372 0.0
H658 H 0.9542 0.27777 0.64791 0.0
H659 H 0.96912 0.33124 0.58521 0.0
H660 H 0.95345 0.28866 0.49979 0.0
H661 H 0.97409 0.29999 0.54811 0.0
H662 H 0.9221 0.28381 0.613 0.0
H663 H 0.90153 0.27237 0.56492 0.0
C664 C 0.96785 0.3046 0.67239 0.0
C665 C 0.97515 0.32546 0.66909 0.0
C666 C 0.9605 0.29353 0.64453 0.0
C667 C 0.96053 0.30305 0.61283 0.0
C668 C 0.96907 0.32341 0.60926 0.0
C669 C 0.97625 0.33453 0.63712 0.0
C670 C 0.94658 0.28714 0.52443 0.0
C671 C 0.92576 0.27989 0.52852 0.0
C672 C 0.95838 0.2937 0.55204 0.0
C673 C 0.94965 0.29293 0.58426 0.0
C674 C 0.92933 0.28443 0.58852 0.0
C675 C 0.91748 0.27803 0.56092 0.0
H676 H 0.41627 0.16702 0.25917 0.0
H677 H 0.43888 0.11597 0.32143 0.0
H678 H 0.40456 0.18602 0.30874 0.0
H679 H 0.42681 0.13482 0.3709 0.0
H680 H 0.42379 0.18442 0.45317 0.0
H681 H 0.43581 0.16643 0.40292 0.0
H682 H 0.37785 0.18365 0.35277 0.0
H683 H 0.36593 0.20198 0.40288 0.0
C684 C 0.41865 0.1598 0.28341 0.0
C685 C 0.42854 0.13999 0.28636 0.0
C686 C 0.41184 0.17065 0.31179 0.0
C687 C 0.4148 0.16195 0.34373 0.0
C688 C 0.42458 0.14209 0.34666 0.0
C689 C 0.43137 0.13123 0.31829 0.0
C690 C 0.41364 0.18447 0.43139 0.0
C691 C 0.39389 0.19461 0.43204 0.0
C692 C 0.42047 0.17403 0.40267 0.0
C693 C 0.40773 0.17352 0.37394 0.0
C694 C 0.38812 0.18393 0.37441 0.0
C695 C 0.38126 0.19436 0.40317 0.0
H696 H 0.54604 0.68685 0.24438 0.0
H697 H 0.53833 0.63043 0.18481 0.0
H698 H 0.55528 0.70674 0.1942 0.0
H699 H 0.54772 0.65026 0.13489 0.0
H700 H 0.55025 0.69433 0.04697 0.0
H701 H 0.53532 0.67914 0.09776 0.0
H702 H 0.58592 0.70666 0.15558 0.0
H703 H 0.60075 0.72201 0.105 0.0
C704 C 0.54619 0.67872 0.22059 0.0
C705 C 0.5416 0.65703 0.21859 0.0
C706 C 0.55153 0.69011 0.1919 0.0
C707 C 0.55221 0.68006 0.16064 0.0
C708 C 0.54707 0.65851 0.15856 0.0
C709 C 0.54187 0.64711 0.18722 0.0
C710 C 0.55799 0.69744 0.07058 0.0
C711 C 0.57681 0.70918 0.07191 0.0
C712 C 0.54951 0.68863 0.09962 0.0
C713 C 0.55958 0.69154 0.13056 0.0
C714 C 0.57773 0.70425 0.13213 0.0
C715 C 0.58629 0.71294 0.1031 0.0
H716 H 0.04184 0.87453 0.84188 0.0
H717 H 0.0606 0.81246 0.80796 0.0
H718 H 0.05155 0.86493 0.89885 0.0
H719 H 0.0702 0.80289 0.86501 0.0
H720 H 0.11273 0.80827 0.95943 0.0
H721 H 0.099 0.81473 0.90351 0.0
H722 H 0.04176 0.84046 0.94573 0.0
H723 H 0.05551 0.83408 0.00187 0.0
C724 C 0.04782 0.85877 0.84662 0.0
C725 C 0.0506 0.8443 0.82038 0.0
C726 C 0.05326 0.85325 0.87928 0.0
C727 C 0.06171 0.83321 0.88628 0.0
C728 C 0.06392 0.81853 0.86022 0.0
C729 C 0.05833 0.82399 0.8276 0.0
C730 C 0.09716 0.81518 0.95683 0.0
C731 C 0.08525 0.82077 0.98506 0.0
C732 C 0.08925 0.81874 0.92479 0.0
C733 C 0.06932 0.8281 0.92031 0.0
C734 C 0.05724 0.83337 0.94851 0.0
C735 C 0.06508 0.82963 0.9806 0.0
H736 H 0.02118 0.3172 0.34968 0.0
H737 H 0.0768 0.35469 0.32976 0.0
H738 H 0.0422 0.29284 0.38251 0.0
H739 H 0.09786 0.33058 0.36385 0.0
H740 H 0.13077 0.26627 0.38451 0.0
H741 H 0.11135 0.29547 0.35946 0.0
H742 H 0.0616 0.2873 0.43221 0.0
H743 H 0.08066 0.25755 0.45633 0.0
C744 C 0.03786 0.32047 0.35282 0.0
C745 C 0.04735 0.33779 0.33687 0.0
C746 C 0.04993 0.30654 0.37192 0.0
C747 C 0.07177 0.30969 0.37584 0.0
C748 C 0.08114 0.3275 0.36093 0.0
C749 C 0.06905 0.34139 0.34156 0.0
C750 C 0.1158 0.27089 0.39539 0.0
C751 C 0.10709 0.25945 0.42207 0.0
C752 C 0.10471 0.28773 0.38116 0.0
C753 C 0.08477 0.29363 0.39357 0.0
C754 C 0.07666 0.28288 0.42151 0.0
C755 C 0.08763 0.26589 0.43545 0.0
H756 H 0.89784 0.79326 0.63922 0.0
H757 H 0.89285 0.85046 0.58068 0.0
H758 H 0.92425 0.81008 0.67464 0.0
H759 H 0.91934 0.86724 0.61631 0.0
H760 H 0.95729 0.89447 0.70532 0.0
H761 H 0.92675 0.87914 0.67651 0.0
H762 H 0.96165 0.8213 0.66139 0.0
H763 H 0.99202 0.83649 0.68986 0.0
C764 C 0.90215 0.80951 0.63416 0.0
C765 C 0.89341 0.82046 0.60691 0.0
C766 C 0.91733 0.81909 0.65439 0.0
C767 C 0.92394 0.83987 0.64801 0.0
C768 C 0.91443 0.85123 0.62186 0.0
C769 C 0.89936 0.84157 0.60139 0.0
C770 C 0.95834 0.87843 0.69604 0.0
C771 C 0.97705 0.8667 0.69976 0.0
C772 C 0.94093 0.86972 0.67947 0.0
C773 C 0.94185 0.84903 0.66688 0.0
C774 C 0.96041 0.8372 0.67122 0.0
C775 C 0.97785 0.84596 0.68732 0.0
H776 H 0.3849 0.69664 0.9842 0.0
H777 H 0.36979 0.7313 0.89428 0.0
H778 H 0.40226 0.66951 0.9507 0.0
H779 H 0.3875 0.70461 0.86108 0.0
H780 H 0.41348 0.65057 0.80454 0.0
H781 H 0.38864 0.66888 0.8409 0.0
H782 H 0.43513 0.6689 0.91998 0.0
H783 H 0.4597 0.65011 0.88402 0.0
C784 C 0.385 0.69833 0.95729 0.0
C785 C 0.3762 0.71626 0.94194 0.0
C786 C 0.39505 0.68284 0.93813 0.0
C787 C 0.39646 0.68498 0.90325 0.0
C788 C 0.38654 0.70231 0.88783 0.0
C789 C 0.37649 0.71774 0.90694 0.0
C790 C 0.41826 0.65416 0.82989 0.0
C791 C 0.43867 0.64915 0.84126 0.0
C792 C 0.40405 0.66472 0.85067 0.0
C793 C 0.40997 0.67059 0.8832 0.0
C794 C 0.42995 0.66446 0.89518 0.0
C795 C 0.44412 0.6538 0.87445 0.0
H796 H 0.61333 0.1866 0.17593 0.0
H797 H 0.59717 0.14768 0.09104 0.0
H798 H 0.58604 0.16911 0.20881 0.0
H799 H 0.56957 0.13076 0.1234 0.0
H800 H 0.52503 0.09717 0.19036 0.0
H801 H 0.55914 0.10853 0.16862 0.0
H802 H 0.54827 0.17112 0.20824 0.0
H803 H 0.51459 0.15959 0.23083 0.0
C804 C 0.60416 0.17413 0.16442 0.0
C805 C 0.60722 0.16873 0.13075 0.0
C806 C 0.58843 0.1642 0.18321 0.0
C807 C 0.5754 0.14875 0.16864 0.0
C808 C 0.57941 0.14245 0.13559 0.0
C809 C 0.59519 0.15227 0.1169 0.0
C810 C 0.53009 0.11327 0.19485 0.0
C811 C 0.517 0.12756 0.21195 0.0
C812 C 0.5496 0.11979 0.18228 0.0
C813 C 0.55638 0.14079 0.18637 0.0
C814 C 0.54371 0.15476 0.20493 0.0
C815 C 0.52428 0.1482 0.21769 0.0
H816 H 0.09574 0.6585 0.19885 0.0
H817 H 0.04816 0.65484 0.12157 0.0
H818 H 0.11294 0.68724 0.16891 0.0
H819 H 0.06523 0.68382 0.09194 0.0
H820 H 0.10887 0.72889 0.03635 0.0
H821 H 0.09723 0.69577 0.06181 0.0
H822 H 0.10245 0.72412 0.15956 0.0
H823 H 0.11426 0.75698 0.13435 0.0
C824 C 0.08909 0.66364 0.17528 0.0
C825 C 0.07043 0.65455 0.16278 0.0
C826 C 0.09889 0.68018 0.15822 0.0
C827 C 0.09029 0.68795 0.12829 0.0
C828 C 0.07231 0.67809 0.11485 0.0
C829 C 0.06247 0.66156 0.13194 0.0
C830 C 0.10771 0.72796 0.06329 0.0
C831 C 0.11238 0.74559 0.08333 0.0
C832 C 0.10098 0.70903 0.07783 0.0
C833 C 0.09895 0.70734 0.11267 0.0
C834 C 0.10414 0.72481 0.13268 0.0
C835 C 0.11075 0.74372 0.11818 0.0
H836 H 0.54039 0.82916 0.29838 0.0
H837 H 0.50337 0.84018 0.38731 0.0
H838 H 0.56821 0.81316 0.33246 0.0
H839 H 0.53085 0.82398 0.42104 0.0
H840 H 0.5895 0.80807 0.47775 0.0
H841 H 0.5669 0.8287 0.44081 0.0
H842 H 0.57239 0.78047 0.36501 0.0
H843 H 0.59534 0.76 0.40167 0.0
C844 C 0.53825 0.8283 0.32517 0.0
C845 C 0.51964 0.83585 0.34013 0.0
C846 C 0.55413 0.81906 0.34464 0.0
C847 C 0.55173 0.81731 0.37944 0.0
C848 C 0.53334 0.82535 0.39438 0.0
C849 C 0.51749 0.8345 0.37497 0.0
C850 C 0.58612 0.80198 0.45305 0.0
C851 C 0.59404 0.78228 0.44278 0.0
C852 C 0.57309 0.81377 0.43194 0.0
C853 C 0.56767 0.80612 0.40013 0.0
C854 C 0.57639 0.78688 0.38927 0.0
C855 C 0.58945 0.77509 0.41038 0.0
H856 H 0.41608 0.28489 0.49264 0.0
H857 H 0.35319 0.29318 0.53235 0.0
H858 H 0.42714 0.31757 0.51924 0.0
H859 H 0.36404 0.32634 0.55804 0.0
H860 H 0.40191 0.35875 0.64296 0.0
H861 H 0.38548 0.33362 0.60546 0.0
H862 H 0.42557 0.35519 0.52507 0.0
H863 H 0.44258 0.38004 0.56314 0.0
C864 C 0.40446 0.29398 0.50632 0.0
C865 C 0.38387 0.28626 0.5109 0.0
C866 C 0.41076 0.31284 0.52144 0.0
C867 C 0.39655 0.32448 0.5412 0.0
C868 C 0.37551 0.31752 0.54362 0.0
C869 C 0.36926 0.29857 0.52876 0.0
C870 C 0.40702 0.35843 0.61716 0.0
C871 C 0.4238 0.37117 0.6062 0.0
C872 C 0.39744 0.34408 0.59549 0.0
C873 C 0.40432 0.34221 0.56225 0.0
C874 C 0.42016 0.35596 0.55069 0.0
C875 C 0.42982 0.37028 0.57246 0.0
H876 H 0.96718 0.1336 0.84987 0.0
H877 H 0.94132 0.15076 0.75369 0.0
H878 H 0.93931 0.1532 0.87742 0.0
H879 H 0.91288 0.17003 0.78147 0.0
H880 H 0.88963 0.2276 0.84469 0.0
H881 H 0.91051 0.2026 0.81248 0.0
H882 H 0.90252 0.1558 0.89005 0.0
H883 H 0.8822 0.18106 0.92277 0.0
C884 C 0.9553 0.14124 0.83456 0.0
C885 C 0.95662 0.1408 0.79955 0.0
C886 C 0.93916 0.15237 0.85041 0.0
C887 C 0.92386 0.16327 0.83168 0.0
C888 C 0.9246 0.16204 0.79663 0.0
C889 C 0.94083 0.15091 0.78071 0.0
C890 C 0.89204 0.21187 0.85465 0.0
C891 C 0.88454 0.20643 0.88652 0.0
C892 C 0.90392 0.19746 0.83606 0.0
C893 C 0.90843 0.17725 0.84885 0.0
C894 C 0.89972 0.17138 0.87979 0.0
C895 C 0.88798 0.18583 0.89847 0.0
H896 H 0.87852 0.64013 0.62426 0.0
H897 H 0.93549 0.64354 0.5651 0.0
H898 H 0.86347 0.66922 0.59217 0.0
H899 H 0.92033 0.67256 0.53295 0.0
H900 H 0.89994 0.7437 0.5326 0.0
H901 H 0.91307 0.70956 0.55131 0.0
H902 H 0.85132 0.68226 0.5359 0.0
H903 H 0.83805 0.71661 0.5171 0.0
C904 C 0.88766 0.64677 0.60397 0.0
C905 C 0.90833 0.63973 0.59757 0.0
C906 C 0.87898 0.66337 0.58546 0.0
C907 C 0.89083 0.6733 0.56032 0.0
C908 C 0.91096 0.66537 0.55251 0.0
C909 C 0.91959 0.64869 0.57085 0.0
C910 C 0.8892 0.73037 0.53277 0.0
C911 C 0.86793 0.73287 0.52361 0.0
C912 C 0.89678 0.71076 0.54324 0.0
C913 C 0.88321 0.69324 0.54506 0.0
C914 C 0.86208 0.69554 0.53489 0.0
C915 C 0.85454 0.71517 0.52402 0.0
H916 H 0.01007 0.11543 0.31289 0.0
H917 H 0.0469 0.12897 0.22464 0.0
H918 H 0.03914 0.1268 0.34779 0.0
H919 H 0.07652 0.13972 0.25983 0.0
H920 H 0.10611 0.18901 0.3327 0.0
H921 H 0.08376 0.1697 0.29395 0.0
H922 H 0.07367 0.12141 0.36863 0.0
H923 H 0.09539 0.14126 0.40788 0.0
C924 C 0.02457 0.1204 0.3009 0.0
C925 C 0.02604 0.12158 0.26595 0.0
C926 C 0.04139 0.12677 0.321 0.0
C927 C 0.06019 0.13434 0.30668 0.0
C928 C 0.06213 0.13433 0.27168 0.0
C929 C 0.0452 0.12806 0.25151 0.0
C930 C 0.09942 0.17409 0.34067 0.0
C931 C 0.1022 0.16684 0.37353 0.0
C932 C 0.08669 0.16291 0.31833 0.0
C933 C 0.07665 0.1441 0.32827 0.0
C934 C 0.08074 0.13609 0.3604 0.0
C935 C 0.09327 0.14741 0.38286 0.0
H936 H 0.58831 0.24852 0.06258 0.0
H937 H 0.64654 0.28395 0.05749 0.0
H938 H 0.56991 0.27979 0.08269 0.0
H939 H 0.628 0.3154 0.07814 0.0
H940 H 0.58943 0.3476 0.16831 0.0
H941 H 0.61047 0.3228 0.13561 0.0
H942 H 0.55965 0.31726 0.06424 0.0
H943 H 0.53857 0.34214 0.09674 0.0
C944 C 0.59714 0.26306 0.0655 0.0
C945 C 0.61888 0.26379 0.05869 0.0
C946 C 0.58656 0.28101 0.07671 0.0
C947 C 0.59754 0.29999 0.0818 0.0
C948 C 0.61921 0.30091 0.07436 0.0
C949 C 0.62976 0.28298 0.06253 0.0
C950 C 0.58292 0.34147 0.14524 0.0
C951 C 0.56224 0.3466 0.13533 0.0
C952 C 0.59503 0.32738 0.12645 0.0
C953 C 0.58657 0.31801 0.09763 0.0
C954 C 0.56643 0.32417 0.08656 0.0
C955 C 0.55442 0.33845 0.10512 0.0
H956 H 0.38028 0.79779 0.84628 0.0
H957 H 0.37721 0.84131 0.92922 0.0
H958 H 0.4037 0.82188 0.81685 0.0
H959 H 0.40006 0.86578 0.89928 0.0
H960 H 0.46863 0.87916 0.86557 0.0
H961 H 0.43715 0.8634 0.889 0.0
H962 H 0.41141 0.85524 0.78985 0.0
H963 H 0.44349 0.87069 0.76612 0.0
C964 C 0.38411 0.81278 0.85784 0.0
C965 C 0.37727 0.81745 0.89037 0.0
C966 C 0.39746 0.82668 0.84084 0.0
C967 C 0.40407 0.84561 0.85596 0.0
C968 C 0.39567 0.85109 0.88728 0.0
C969 C 0.38251 0.83711 0.90439 0.0
C970 C 0.45617 0.87429 0.84868 0.0
C971 C 0.4587 0.87592 0.81394 0.0
C972 C 0.43796 0.86542 0.86219 0.0
C973 C 0.42172 0.85799 0.84132 0.0
C974 C 0.42374 0.8606 0.80658 0.0
C975 C 0.44205 0.86954 0.793 0.0
H976 H 0.86649 0.29635 0.90398 0.0
H977 H 0.91549 0.31155 0.97525 0.0
H978 H 0.88149 0.32157 0.86471 0.0
H979 H 0.93079 0.33639 0.93559 0.0
H980 H 0.94913 0.38704 0.86142 0.0
H981 H 0.92761 0.36897 0.90324 0.0
H982 H 0.91337 0.31992 0.83165 0.0
H983 H 0.93439 0.33806 0.78992 0.0
C984 C 0.88031 0.30528 0.91145 0.0
C985 C 0.89 0.30172 0.94253 0.0
C986 C 0.88895 0.31965 0.88887 0.0
C987 C 0.90754 0.3307 0.8968 0.0
C988 C 0.91641 0.32821 0.92876 0.0
C989 C 0.90768 0.31388 0.95145 0.0
C990 C 0.94119 0.37253 0.85454 0.0
C991 C 0.94358 0.36391 0.82242 0.0
C992 C 0.92894 0.36215 0.87853 0.0
C993 C 0.91879 0.34302 0.87078 0.0
C994 C 0.92069 0.3348 0.83832 0.0
C995 C 0.93291 0.34513 0.81443 0.0
H996 H 0.47293 0.16498 0.70946 0.0
H997 H 0.46371 0.11712 0.63395 0.0
H998 H 0.44444 0.18582 0.68519 0.0
H999 H 0.43577 0.13827 0.60895 0.0
H1000 H 0.37806 0.17485 0.57963 0.0
H1001 H 0.401 0.1525 0.61355 0.0
H1002 H 0.43999 0.20668 0.63636 0.0
H1003 H 0.41671 0.22903 0.60357 0.0
C1004 C 0.46475 0.15886 0.68776 0.0
C1005 C 0.47069 0.13949 0.67344 0.0
C1006 C 0.44848 0.17086 0.67373 0.0
C1007 C 0.43793 0.16386 0.64488 0.0
C1008 C 0.44335 0.14406 0.63138 0.0
C1009 C 0.45949 0.13197 0.6456 0.0
C1010 C 0.39137 0.18201 0.5923 0.0
C1011 C 0.39564 0.20368 0.58873 0.0
C1012 C 0.4046 0.16919 0.61157 0.0
C1013 C 0.42246 0.17773 0.6275 0.0
C1014 C 0.42624 0.19957 0.62487 0.0
C1015 C 0.41294 0.2124 0.60584 0.0
H1016 H 0.62586 0.69472 0.47733 0.0
H1017 H 0.56513 0.68898 0.52571 0.0
H1018 H 0.61646 0.6661 0.43946 0.0
H1019 H 0.55555 0.66081 0.48735 0.0
H1020 H 0.54497 0.60463 0.42259 0.0
H1021 H 0.56122 0.62542 0.46697 0.0
H1022 H 0.59244 0.66404 0.39297 0.0
H1023 H 0.57668 0.643 0.34878 0.0
C1024 C 0.61062 0.68717 0.4802 0.0
C1025 C 0.59613 0.69431 0.50428 0.0
C1026 C 0.6052 0.67084 0.45835 0.0
C1027 C 0.58516 0.66133 0.46005 0.0
C1028 C 0.5712 0.66763 0.48548 0.0
C1029 C 0.57664 0.6839 0.5074 0.0
C1030 C 0.5556 0.61733 0.41582 0.0
C1031 C 0.55933 0.62232 0.38214 0.0
C1032 C 0.56483 0.62931 0.44127 0.0
C1033 C 0.57796 0.64654 0.43356 0.0
C1034 C 0.5826 0.65076 0.39987 0.0
C1035 C 0.57343 0.63876 0.37446 0.0
H1036 H 0.08424 0.81866 0.18232 0.0
H1037 H 0.09172 0.86726 0.10737 0.0
H1038 H 0.05149 0.83524 0.20077 0.0
H1039 H 0.05897 0.88381 0.12603 0.0
H1040 H 0.00227 0.91319 0.18103 0.0
H1041 H 0.0389 0.90116 0.17501 0.0
H1042 H 0.01715 0.8367 0.16726 0.0
H1043 H 0.98075 0.8486 0.17293 0.0
C1044 C 0.07923 0.83317 0.17034 0.0
C1045 C 0.0904 0.84146 0.14301 0.0
C1046 C 0.06042 0.84259 0.18083 0.0
C1047 C 0.0526 0.8606 0.16449 0.0
C1048 C 0.06469 0.86994 0.1391 0.0
C1049 C 0.08339 0.86041 0.12836 0.0
C1050 C 0.00537 0.89644 0.17831 0.0
C1051 C 0.98867 0.88183 0.17725 0.0
C1052 C 0.02629 0.8896 0.17484 0.0
C1053 C 0.03081 0.86802 0.17094 0.0
C1054 C 0.01412 0.85341 0.17075 0.0
C1055 C 0.99328 0.86025 0.17367 0.0
H1056 H 0.62747 0.78024 0.93463 0.0
H1057 H 0.59906 0.80857 0.02191 0.0
H1058 H 0.61783 0.81091 0.90174 0.0
H1059 H 0.5898 0.83972 0.98892 0.0
H1060 H 0.54672 0.86791 0.90472 0.0
H1061 H 0.56364 0.84542 0.94591 0.0
H1062 H 0.6219 0.848 0.8899 0.0
H1063 H 0.60472 0.87013 0.848 0.0
C1064 C 0.61953 0.79322 0.947 0.0
C1065 C 0.61373 0.7918 0.98079 0.0
C1066 C 0.61417 0.81095 0.92815 0.0
C1067 C 0.60291 0.82775 0.94262 0.0
C1068 C 0.59822 0.8269 0.97693 0.0
C1069 C 0.60359 0.8091 0.99585 0.0
C1070 C 0.56325 0.86402 0.90144 0.0
C1071 C 0.57426 0.87048 0.87272 0.0
C1072 C 0.57303 0.85124 0.92527 0.0
C1073 C 0.59406 0.84467 0.921 0.0
C1074 C 0.60555 0.85246 0.89357 0.0
C1075 C 0.59573 0.86522 0.86965 0.0
H1076 H 0.49172 0.29578 0.19868 0.0
H1077 H 0.46711 0.35813 0.17786 0.0
H1078 H 0.46298 0.28017 0.16694 0.0
H1079 H 0.43798 0.3424 0.14658 0.0
H1080 H 0.41155 0.30668 0.05391 0.0
H1081 H 0.43495 0.32432 0.09321 0.0
H1082 H 0.42524 0.27393 0.16438 0.0
H1083 H 0.40216 0.256 0.12472 0.0
C1084 C 0.47998 0.30615 0.18778 0.0
C1085 C 0.48182 0.3282 0.19053 0.0
C1086 C 0.46339 0.29718 0.16976 0.0
C1087 C 0.44822 0.31004 0.1541 0.0
C1088 C 0.44958 0.33208 0.15798 0.0
C1089 C 0.4662 0.34108 0.17604 0.0
C1090 C 0.41419 0.29947 0.07809 0.0
C1091 C 0.40517 0.27982 0.08605 0.0
C1092 C 0.42751 0.30967 0.10073 0.0
C1093 C 0.43207 0.30047 0.13186 0.0
C1094 C 0.4223 0.28126 0.14039 0.0
C1095 C 0.409 0.27104 0.11771 0.0
H1096 H 0.88791 0.18923 0.47103 0.0
H1097 H 0.88128 0.22855 0.38337 0.0
H1098 H 0.89917 0.15982 0.43583 0.0
H1099 H 0.89314 0.1996 0.34856 0.0
H1100 H 0.90546 0.14273 0.288 0.0
H1101 H 0.88599 0.16576 0.32576 0.0
H1102 H 0.93024 0.15115 0.40476 0.0
H1103 H 0.94917 0.12754 0.36738 0.0
C1104 C 0.88869 0.19156 0.44426 0.0
C1105 C 0.88388 0.21128 0.43004 0.0
C1106 C 0.89524 0.17474 0.42411 0.0
C1107 C 0.89719 0.17735 0.38936 0.0
C1108 C 0.89153 0.19686 0.37513 0.0
C1109 C 0.88489 0.21358 0.39519 0.0
C1110 C 0.91081 0.14417 0.3136 0.0
C1111 C 0.92901 0.13354 0.3246 0.0
C1112 C 0.89971 0.15746 0.3352 0.0
C1113 C 0.90672 0.16059 0.36817 0.0
C1114 C 0.92425 0.149 0.37965 0.0
C1115 C 0.93521 0.13554 0.35813 0.0
H1116 H 0.06539 0.70389 0.64201 0.0
H1117 H 0.10288 0.647 0.63438 0.0
H1118 H 0.03515 0.68311 0.6592 0.0
H1119 H 0.07266 0.62615 0.65285 0.0
H1120 H 0.00674 0.59645 0.63465 0.0
H1121 H 0.03995 0.61537 0.6284 0.0
H1122 H 0.01904 0.66167 0.70053 0.0
H1123 H 0.9855 0.64316 0.70577 0.0
C1124 C 0.06732 0.68697 0.64473 0.0
C1125 C 0.08647 0.67708 0.63644 0.0
C1126 C 0.04996 0.67503 0.65482 0.0
C1127 C 0.05139 0.6529 0.65717 0.0
C1128 C 0.07091 0.64312 0.65067 0.0
C1129 C 0.08827 0.65508 0.64032 0.0
C1130 C 0.00932 0.61055 0.64941 0.0
C1131 C 0.99341 0.61847 0.67036 0.0
C1132 C 0.02845 0.62133 0.64603 0.0
C1133 C 0.03214 0.64014 0.66381 0.0
C1134 C 0.01656 0.64747 0.68597 0.0
C1135 C -0.00263 0.63682 0.68907 0.0
H1136 H 0.62208 0.2441 0.61248 0.0
H1137 H 0.61913 0.21563 0.5145 0.0
H1138 H 0.60586 0.21282 0.63646 0.0
H1139 H 0.60308 0.18403 0.53877 0.0
H1140 H 0.54586 0.1504 0.59203 0.0
H1141 H 0.56851 0.17593 0.56393 0.0
H1142 H 0.6111 0.17536 0.64826 0.0
H1143 H 0.58829 0.15014 0.67667 0.0
C1144 C 0.61822 0.23104 0.59609 0.0
C1145 C 0.62174 0.23242 0.56154 0.0
C1146 C 0.60908 0.21301 0.6099 0.0
C1147 C 0.6032 0.19593 0.58951 0.0
C1148 C 0.60729 0.19702 0.55506 0.0
C1149 C 0.61655 0.21507 0.54121 0.0
C1150 C 0.56026 0.15541 0.60433 0.0
C1151 C 0.56509 0.14851 0.63681 0.0
C1152 C 0.5733 0.16997 0.58813 0.0
C1153 C 0.59143 0.17788 0.60409 0.0
C1154 C 0.59701 0.16986 0.63561 0.0
C1155 C 0.58397 0.15533 0.6518 0.0
H1156 H 0.06594 0.35594 0.72218 0.0
H1157 H 0.03214 0.37267 0.81208 0.0
H1158 H 0.0951 0.34245 0.75601 0.0
H1159 H 0.06075 0.35868 0.84564 0.0
H1160 H 0.11699 0.33925 0.90268 0.0
H1161 H 0.09631 0.36097 0.86448 0.0
H1162 H 0.09971 0.31163 0.79007 0.0
H1163 H 0.12098 0.29031 0.82777 0.0
C1164 C 0.06484 0.357 0.74911 0.0
C1165 C 0.04661 0.36513 0.76443 0.0
C1166 C 0.08149 0.34916 0.76849 0.0
C1167 C 0.08021 0.34927 0.80356 0.0
C1168 C 0.06246 0.35853 0.81875 0.0
C1169 C 0.04591 0.36642 0.79943 0.0
C1170 C 0.11364 0.33322 0.87793 0.0
C1171 C 0.12036 0.31294 0.86841 0.0
C1172 C 0.10171 0.34563 0.85608 0.0
C1173 C 0.09606 0.33795 0.82436 0.0
C1174 C 0.1039 0.31817 0.81416 0.0
C1175 C 0.11599 0.30585 0.8359 0.0
H1176 H 0.837 0.76237 0.01807 0.0
H1177 H 0.89836 0.73762 0.04478 0.0
H1178 H 0.84909 0.79811 0.03197 0.0
H1179 H 0.91036 0.77311 0.05838 0.0
H1180 H 0.93169 0.83999 0.05995 0.0
H1181 H 0.9176 0.80872 0.0322 0.0
H1182 H 0.85949 0.8151 0.08759 0.0
H1183 H 0.87349 0.8464 0.11542 0.0
C1184 C 0.85312 0.7646 0.02642 0.0
C1185 C 0.86671 0.74722 0.03057 0.0
C1186 C 0.86 0.785 0.03444 0.0
C1187 C 0.88066 0.78835 0.04613 0.0
C1188 C 0.89443 0.77104 0.04901 0.0
C1189 C 0.8875 0.7507 0.0415 0.0
C1190 C 0.91574 0.83501 0.06574 0.0
C1191 C 0.90383 0.84548 0.09028 0.0
C1192 C 0.90773 0.81707 0.04991 0.0
C1193 C 0.88757 0.80939 0.05805 0.0
C1194 C 0.87504 0.82074 0.08073 0.0
C1195 C 0.88313 0.83859 0.0968 0.0
H1196 H 0.40331 0.67355 0.43302 0.0
H1197 H 0.36308 0.67571 0.34581 0.0
H1198 H 0.42973 0.65436 0.40162 0.0
H1199 H 0.38948 0.65575 0.31439 0.0
H1200 H 0.45526 0.64899 0.26235 0.0
H1201 H 0.42411 0.66227 0.29135 0.0
H1202 H 0.43834 0.62182 0.37542 0.0
H1203 H 0.46985 0.6092 0.34696 0.0
C1204 C 0.39993 0.66961 0.40724 0.0
C1205 C 0.38114 0.67631 0.39184 0.0
C1206 C 0.41506 0.65842 0.38925 0.0
C1207 C 0.41174 0.65348 0.35544 0.0
C1208 C 0.39262 0.65954 0.34029 0.0
C1209 C 0.37745 0.67086 0.35833 0.0
C1210 C 0.45155 0.64276 0.28685 0.0
C1211 C 0.46515 0.62834 0.30264 0.0
C1212 C 0.43363 0.65026 0.3034 0.0
C1213 C 0.42888 0.64331 0.33591 0.0
C1214 C 0.44182 0.62788 0.35074 0.0
C1215 C 0.45983 0.62059 0.33439 0.0
H1216 H 0.46366 0.10907 0.08527 0.0
H1217 H 0.4123 0.12743 0.1501 0.0
H1218 H 0.45092 0.13366 0.04284 0.0
H1219 H 0.39991 0.15224 0.10817 0.0
H1220 H 0.37607 0.19096 0.02382 0.0
H1221 H 0.38504 0.15849 0.05342 0.0
H1222 H 0.45139 0.17188 0.03979 0.0
H1223 H 0.44247 0.20398 0.0096 0.0
C1224 C 0.44947 0.11809 0.09028 0.0
C1225 C 0.43916 0.1165 0.12124 0.0
C1226 C 0.44224 0.13226 0.06603 0.0
C1227 C 0.42454 0.1451 0.07225 0.0
C1228 C 0.41347 0.14248 0.10238 0.0
C1229 C 0.42068 0.12832 0.12657 0.0
C1230 C 0.39257 0.18676 0.02658 0.0
C1231 C 0.40857 0.2002 0.01473 0.0
C1232 C 0.3977 0.1682 0.04369 0.0
C1233 C 0.41893 0.16269 0.04931 0.0
C1234 C 0.43488 0.1755 0.03566 0.0
C1235 C 0.42976 0.19403 0.01852 0.0
H1236 H 0.53345 0.69447 0.76863 0.0
H1237 H 0.53184 0.63242 0.81367 0.0
H1238 H 0.56163 0.70474 0.80655 0.0
H1239 H 0.56046 0.64257 0.85114 0.0
H1240 H 0.58573 0.68075 0.94188 0.0
H1241 H 0.56318 0.66572 0.89886 0.0
H1242 H 0.59794 0.69984 0.82332 0.0
H1243 H 0.62023 0.71534 0.86653 0.0
C1244 C 0.53937 0.68288 0.78621 0.0
C1245 C 0.53024 0.6627 0.78835 0.0
C1246 C 0.55565 0.68873 0.80785 0.0
C1247 C 0.56323 0.67451 0.83205 0.0
C1248 C 0.55476 0.65399 0.83314 0.0
C1249 C 0.53843 0.64815 0.81153 0.0
C1250 C 0.58878 0.68484 0.91607 0.0
C1251 C 0.60463 0.69943 0.90767 0.0
C1252 C 0.57591 0.6761 0.89133 0.0
C1253 C 0.57865 0.6817 0.85764 0.0
C1254 C 0.59519 0.69549 0.8491 0.0
C1255 C 0.60803 0.70428 0.87386 0.0
H1256 H 0.08764 0.83168 0.70418 0.0
H1257 H 0.08876 0.86938 0.6142 0.0
H1258 H 0.10747 0.80424 0.67644 0.0
H1259 H 0.10963 0.84202 0.58651 0.0
H1260 H 0.11451 0.77476 0.53905 0.0
H1261 H 0.1033 0.80781 0.5646 0.0
H1262 H 0.13914 0.79235 0.6533 0.0
H1263 H 0.14933 0.7588 0.62828 0.0
C1264 C 0.09254 0.83434 0.67862 0.0
C1265 C 0.08636 0.85263 0.66128 0.0
C1266 C 0.10415 0.8186 0.6627 0.0
C1267 C 0.11016 0.82081 0.62909 0.0
C1268 C 0.10497 0.83964 0.61224 0.0
C1269 C 0.09313 0.85538 0.62816 0.0
C1270 C 0.12027 0.77863 0.56378 0.0
C1271 C 0.13247 0.76409 0.58194 0.0
C1272 C 0.11395 0.79766 0.57841 0.0
C1273 C 0.12 0.80265 0.61131 0.0
C1274 C 0.13366 0.78878 0.62831 0.0
C1275 C 0.13962 0.7696 0.61394 0.0
H1276 H 0.86973 0.30547 0.33564 0.0
H1277 H 0.90907 0.32689 0.41711 0.0
H1278 H 0.8911 0.32594 0.29655 0.0
H1279 H 0.93061 0.34675 0.37821 0.0
H1280 H 0.96391 0.38727 0.30685 0.0
H1281 H 0.93379 0.37555 0.33983 0.0
H1282 H 0.92627 0.32168 0.27462 0.0
H1283 H 0.9559 0.33375 0.2411 0.0
C1284 C 0.88275 0.31474 0.34528 0.0
C1285 C 0.88785 0.31435 0.37943 0.0
C1286 C 0.89505 0.3264 0.32285 0.0
C1287 C 0.91267 0.33787 0.33416 0.0
C1288 C 0.91701 0.33835 0.36859 0.0
C1289 C 0.90473 0.32677 0.39095 0.0
C1290 C 0.95552 0.37319 0.29912 0.0
C1291 C 0.96251 0.36124 0.2717 0.0
C1292 C 0.93832 0.3664 0.31813 0.0
C1293 C 0.92786 0.34746 0.31027 0.0
C1294 C 0.93386 0.33641 0.28132 0.0
C1295 C 0.95096 0.34328 0.26216 0.0
H1296 H 0.42804 0.81416 0.29537 0.0
H1297 H 0.41052 0.87169 0.34646 0.0
H1298 H 0.40346 0.79437 0.32966 0.0
H1299 H 0.38551 0.85175 0.38075 0.0
H1300 H 0.37479 0.80015 0.46492 0.0
H1301 H 0.38988 0.82544 0.42578 0.0
H1302 H 0.36646 0.78833 0.34318 0.0
H1303 H 0.35174 0.7628 0.38225 0.0
C1304 C 0.41868 0.82266 0.3136 0.0
C1305 C 0.42139 0.84446 0.31843 0.0
C1306 C 0.40442 0.81132 0.33308 0.0
C1307 C 0.39252 0.82149 0.35794 0.0
C1308 C 0.39459 0.84347 0.36194 0.0
C1309 C 0.40883 0.85488 0.34223 0.0
C1310 C 0.37243 0.79762 0.43843 0.0
C1311 C 0.36245 0.77925 0.42668 0.0
C1312 C 0.38101 0.81219 0.41598 0.0
C1313 C 0.37967 0.80868 0.38138 0.0
C1314 C 0.36812 0.79122 0.36971 0.0
C1315 C 0.35963 0.77664 0.39211 0.0
H1316 H 0.98403 0.67695 0.22892 0.0
H1317 H 0.98131 0.61003 0.20781 0.0
H1318 H 0.95038 0.68191 0.20064 0.0
H1319 H 0.94735 0.61496 0.18006 0.0
H1320 H 0.90702 0.64026 0.09103 0.0
H1321 H 0.93624 0.63111 0.1278 0.0
H1322 H 0.91269 0.67474 0.2019 0.0
H1323 H 0.88365 0.68426 0.1648 0.0
C1324 C 0.97609 0.66324 0.21873 0.0
C1325 C 0.98545 0.64314 0.22035 0.0
C1326 C 0.9567 0.66606 0.2027 0.0
C1327 C 0.94622 0.64883 0.18797 0.0
C1328 C 0.95518 0.62859 0.19077 0.0
C1329 C 0.97458 0.62576 0.20681 0.0
C1330 C 0.90787 0.64767 0.11537 0.0
C1331 C 0.89316 0.66319 0.1248 0.0
C1332 C 0.92458 0.64233 0.13655 0.0
C1333 C 0.92691 0.65236 0.16765 0.0
C1334 C 0.91153 0.66701 0.17784 0.0
C1335 C 0.89483 0.67237 0.15664 0.0
H1336 H 0.10393 0.20442 0.99409 0.0
H1337 H 0.11814 0.22792 0.89529 0.0
H1338 H 0.08634 0.17381 0.96944 0.0
H1339 H 0.10027 0.19776 0.87084 0.0
H1340 H 0.07766 0.1364 0.83211 0.0
H1341 H 0.10115 0.16006 0.86246 0.0
H1342 H 0.05368 0.16794 0.93891 0.0
H1343 H 0.03041 0.14385 0.90904 0.0
C1344 C 0.10346 0.20298 0.96716 0.0
C1345 C 0.1123 0.21868 0.94665 0.0
C1346 C 0.09331 0.18549 0.95305 0.0
C1347 C 0.09186 0.18334 0.91818 0.0
C1348 C 0.10136 0.19871 0.89778 0.0
C1349 C 0.11147 0.21614 0.91183 0.0
C1350 C 0.07238 0.14286 0.85572 0.0
C1351 C 0.05205 0.13847 0.86794 0.0
C1352 C 0.08581 0.15652 0.87301 0.0
C1353 C 0.07917 0.16616 0.90283 0.0
C1354 C 0.05936 0.16069 0.91612 0.0
C1355 C 0.04595 0.14695 0.89889 0.0
H1356 H 0.6073 0.35409 0.58295 0.0
H1357 H 0.60827 0.3131 0.66931 0.0
H1358 H 0.57915 0.37483 0.6083 0.0
H1359 H 0.57987 0.3337 0.69436 0.0
H1360 H 0.53369 0.38132 0.73772 0.0
H1361 H 0.56757 0.36806 0.71706 0.0
H1362 H 0.54197 0.36553 0.61713 0.0
H1363 H 0.50842 0.37889 0.63751 0.0
C1364 C 0.60176 0.34969 0.60758 0.0
C1365 C 0.6098 0.33173 0.62389 0.0
C1366 C 0.58557 0.36154 0.62201 0.0
C1367 C 0.57707 0.35569 0.65307 0.0
C1368 C 0.58614 0.33866 0.67046 0.0
C1369 C 0.60236 0.32679 0.65601 0.0
C1370 C 0.53542 0.37817 0.71128 0.0
C1371 C 0.51834 0.38101 0.68928 0.0
C1372 C 0.55478 0.37052 0.69951 0.0
C1373 C 0.55744 0.36578 0.66549 0.0
C1374 C 0.54055 0.36932 0.6434 0.0
C1375 C 0.52123 0.3768 0.65515 0.0
H1376 H 0.01262 0.44922 0.18749 0.0
H1377 H 0.05791 0.44288 0.26768 0.0
H1378 H 0.02116 0.48658 0.18275 0.0
H1379 H 0.0669 0.48016 0.2623 0.0
H1380 H 0.05413 0.55175 0.27229 0.0
H1381 H 0.05054 0.51356 0.27434 0.0
H1382 H 0.04812 0.51143 0.16655 0.0
H1383 H 0.05113 0.54982 0.16452 0.0
C1384 C 0.02457 0.45575 0.20387 0.0
C1385 C 0.03447 0.44313 0.22814 0.0
C1386 C 0.0296 0.47714 0.20097 0.0
C1387 C 0.04472 0.48637 0.22216 0.0
C1388 C 0.05497 0.47361 0.24591 0.0
C1389 C 0.04987 0.45223 0.24892 0.0
C1390 C 0.05308 0.54314 0.24899 0.0
C1391 C 0.0527 0.55385 0.21825 0.0
C1392 C 0.05113 0.5212 0.25016 0.0
C1393 C 0.04888 0.50944 0.22061 0.0
C1394 C 0.04944 0.52007 0.18979 0.0
C1395 C 0.0513 0.54206 0.18862 0.0
H1396 H 0.79256 0.76621 0.58592 0.0
H1397 H 0.7917 0.81233 0.50629 0.0
H1398 H 0.7547 0.76073 0.57882 0.0
H1399 H 0.75383 0.80714 0.49969 0.0
H1400 H 0.69423 0.77105 0.46824 0.0
H1401 H 0.73132 0.779 0.47842 0.0
H1402 H 0.72013 0.77742 0.58479 0.0
H1403 H 0.68309 0.76906 0.57467 0.0
C1404 C 0.78425 0.77541 0.56726 0.0
C1405 C 0.79516 0.78957 0.54649 0.0
C1406 C 0.76254 0.77232 0.56326 0.0
C1407 C 0.75132 0.78336 0.53846 0.0
C1408 C 0.76211 0.7981 0.51858 0.0
C1409 C 0.78379 0.80117 0.52254 0.0
C1410 C 0.69966 0.77242 0.4938 0.0
C1411 C 0.68573 0.76937 0.52063 0.0
C1412 C 0.72089 0.77713 0.49964 0.0
C1413 C 0.72864 0.77891 0.53243 0.0
C1414 C 0.71468 0.77594 0.55926 0.0
C1415 C 0.69344 0.77124 0.55343 0.0
H1416 H 0.43687 0.45631 0.73741 0.0
H1417 H 0.48222 0.46828 0.65903 0.0
H1418 H 0.43855 0.49333 0.75391 0.0
H1419 H 0.4842 0.50517 0.67599 0.0
H1420 H 0.46756 0.57415 0.69583 0.0
H1421 H 0.46363 0.53765 0.67757 0.0
H1422 H 0.46393 0.51699 0.78039 0.0
H1423 H 0.46742 0.55353 0.79873 0.0
C1424 C 0.44715 0.46684 0.72364 0.0
C1425 C 0.45946 0.45934 0.69697 0.0
C1426 C 0.44822 0.48802 0.73325 0.0
C1427 C 0.46161 0.50215 0.7164 0.0
C1428 C 0.47357 0.49474 0.68927 0.0
C1429 C 0.4725 0.47356 0.67965 0.0
C1430 C 0.46677 0.56183 0.71456 0.0
C1431 C 0.46783 0.56674 0.74875 0.0
C1432 C 0.46461 0.54091 0.70407 0.0
C1433 C 0.46347 0.52443 0.72752 0.0
C1434 C 0.46447 0.52936 0.76171 0.0
C1435 C 0.46662 0.55028 0.77222 0.0
H1436 H 0.79615 0.2326 0.97408 0.0
H1437 H 0.81216 0.23698 0.0788 0.0
H1438 H 0.75976 0.22464 0.98876 0.0
H1439 H 0.77572 0.22853 0.09349 0.0
H1440 H 0.70294 0.2363 0.10224 0.0
H1441 H 0.74013 0.24343 0.0909 0.0
H1442 H 0.73967 0.19601 0.01331 0.0
H1443 H 0.70248 0.18923 0.02407 0.0
C1444 C 0.79192 0.23182 0.00025 0.0
C1445 C 0.80706 0.23538 0.02527 0.0
C1446 C 0.77108 0.22709 0.00867 0.0
C1447 C 0.76491 0.22575 0.0423 0.0
C1448 C 0.77997 0.22959 0.06736 0.0
C1449 C 0.80085 0.23436 0.05892 0.0
C1450 C 0.71085 0.22726 0.08299 0.0
C1451 C 0.69973 0.21234 0.06384 0.0
C1452 C 0.73216 0.2313 0.07656 0.0
C1453 C 0.74276 0.22046 0.05094 0.0
C1454 C 0.73182 0.20495 0.03273 0.0
C1455 C 0.71054 0.20097 0.03906 0.0
H1456 H 0.94687 0.43549 0.73168 0.0
H1457 H 0.98892 0.44121 0.64722 0.0
H1458 H 0.93233 0.47017 0.7196 0.0
H1459 H 0.97482 0.47641 0.63576 0.0
H1460 H 0.93364 0.53327 0.60962 0.0
H1461 H 0.94403 0.49637 0.61754 0.0
H1462 H 0.94407 0.50571 0.72443 0.0
H1463 H 0.93316 0.54203 0.71666 0.0
C1464 C 0.95311 0.44422 0.71061 0.0
C1465 C 0.96921 0.4357 0.69059 0.0
C1466 C 0.94479 0.46414 0.70373 0.0
C1467 C 0.95253 0.47616 0.67689 0.0
C1468 C 0.96834 0.46747 0.65641 0.0
C1469 C 0.97656 0.44739 0.66314 0.0
C1470 C 0.93561 0.52731 0.63478 0.0
C1471 C 0.9326 0.54059 0.66248 0.0
C1472 C 0.94172 0.50624 0.63931 0.0
C1473 C 0.94492 0.4981 0.67161 0.0
C1474 C 0.94143 0.51132 0.69922 0.0
C1475 C 0.93529 0.53225 0.69473 0.0
H1476 H 0.28704 0.22982 0.51608 0.0
H1477 H 0.29682 0.1653 0.48423 0.0
H1478 H 0.24903 0.22495 0.5117 0.0
H1479 H 0.25868 0.16057 0.47924 0.0
H1480 H 0.18794 0.15515 0.50603 0.0
H1481 H 0.22613 0.15875 0.51271 0.0
H1482 H 0.2234 0.22052 0.46694 0.0
H1483 H 0.18535 0.21714 0.46081 0.0
C1484 C 0.28109 0.21459 0.50814 0.0
C1485 C 0.29496 0.19798 0.50033 0.0
C1486 C 0.2593 0.21184 0.50545 0.0
C1487 C 0.25087 0.19243 0.49485 0.0
C1488 C 0.26471 0.17566 0.48772 0.0
C1489 C 0.28655 0.17841 0.49042 0.0
C1490 C 0.19551 0.16948 0.49738 0.0
C1491 C 0.18361 0.1859 0.48303 0.0
C1492 C 0.21739 0.1715 0.50107 0.0
C1493 C 0.22774 0.18997 0.49053 0.0
C1494 C 0.21583 0.20625 0.47585 0.0
C1495 C 0.19403 0.20424 0.47215 0.0
H1496 H 0.49946 0.53251 0.32895 0.0
H1497 H 0.53912 0.5449 0.24339 0.0
H1498 H 0.49835 0.49523 0.31423 0.0
H1499 H 0.53749 0.50769 0.22808 0.0
H1500 H 0.54826 0.43616 0.23218 0.0
H1501 H 0.54965 0.47356 0.24598 0.0
H1502 H 0.48355 0.47206 0.27285 0.0
H1503 H 0.48233 0.43445 0.26 0.0
C1504 C 0.50788 0.52728 0.30693 0.0
C1505 C 0.51938 0.54165 0.28735 0.0
C1506 C 0.50712 0.50593 0.29834 0.0
C1507 C 0.51772 0.49849 0.26985 0.0
C1508 C 0.52934 0.51286 0.25039 0.0
C1509 C 0.53021 0.5342 0.2591 0.0
C1510 C 0.53399 0.44382 0.24089 0.0
C1511 C 0.51519 0.43232 0.24513 0.0
C1512 C 0.53477 0.4653 0.24866 0.0
C1513 C 0.51674 0.47579 0.26065 0.0
C1514 C 0.49783 0.46436 0.26424 0.0
C1515 C 0.49708 0.44285 0.25665 0.0
H1516 H 0.20132 0.77347 0.09129 0.0
H1517 H 0.19062 0.83192 0.03803 0.0
H1518 H 0.23672 0.77141 0.06798 0.0
H1519 H 0.2263 0.83015 0.01542 0.0
H1520 H 0.27879 0.8044 0.94753 0.0
H1521 H 0.24462 0.8089 0.97457 0.0
H1522 H 0.2713 0.78705 0.06777 0.0
H1523 H 0.30527 0.782 0.04055 0.0
C1524 C 0.20665 0.78609 0.0751 0.0
C1525 C 0.1931 0.80276 0.06629 0.0
C1526 C 0.227 0.78494 0.0618 0.0
C1527 C 0.23427 0.80052 0.03957 0.0
C1528 C 0.22102 0.81768 0.03193 0.0
C1529 C 0.20064 0.81877 0.04511 0.0
C1530 C 0.27736 0.80057 0.97378 0.0
C1531 C 0.2947 0.79274 0.99183 0.0
C1532 C 0.25782 0.80331 0.98937 0.0
C1533 C 0.25524 0.79837 0.02337 0.0
C1534 C 0.27267 0.79074 0.04146 0.0
C1535 C 0.29216 0.78791 0.02585 0.0
H1536 H 0.53286 0.94126 0.69894 0.0
H1537 H 0.53007 0.95902 0.80307 0.0
H1538 H 0.53497 0.97852 0.6833 0.0
H1539 H 0.53235 -0.00389 0.78739 0.0
H1540 H 0.51142 0.05947 0.74603 0.0
H1541 H 0.50923 0.02195 0.75857 0.0
H1542 H 0.55961 0.00946 0.68866 0.0
H1543 H 0.56175 0.04716 0.67575 0.0
C1544 C 0.53277 0.95309 0.71848 0.0
C1545 C 0.5312 0.9472 0.75224 0.0
C1546 C 0.53408 0.97439 0.70951 0.0
C1547 C 0.53369 0.99019 0.73411 0.0
C1548 C 0.53237 0.98427 0.76786 0.0
C1549 C 0.53118 0.96302 0.77683 0.0
C1550 C 0.52198 0.04876 0.73314 0.0
C1551 C 0.53687 0.05633 0.71003 0.0
C1552 C 0.52079 0.02727 0.7405 0.0
C1553 C 0.53439 0.01283 0.72485 0.0
C1554 C 0.54887 0.02025 0.701 0.0
C1555 C 0.55014 0.04183 0.69372 0.0
H1556 H 0.30546 0.27128 0.06821 0.0
H1557 H 0.31128 0.26246 0.96159 0.0
H1558 H 0.26718 0.27403 0.06226 0.0
H1559 H 0.27312 0.26475 0.95581 0.0
H1560 H 0.20663 0.2912 0.95248 0.0
H1561 H 0.24476 0.29032 0.96019 0.0
H1562 H 0.23687 0.25182 0.04841 0.0
H1563 H 0.19864 0.25308 0.04114 0.0
C1564 C 0.29858 0.26989 0.04354 0.0
C1565 C 0.31141 0.26667 0.01537 0.0
C1566 C 0.27665 0.27135 0.04016 0.0
C1567 C 0.26712 0.26963 0.00856 0.0
C1568 C 0.27999 0.26646 0.98044 0.0
C1569 C 0.30187 0.26502 0.98379 0.0
C1570 C 0.21301 0.28259 0.97358 0.0
C1571 C 0.19961 0.27214 0.99614 0.0
C1572 C 0.23487 0.282 0.9779 0.0
C1573 C 0.24384 0.27091 0.00481 0.0
C1574 C 0.23043 0.26069 0.02763 0.0
C1575 C 0.20853 0.26131 0.02334 0.0
H1576 H 0.92423 0.05753 0.20875 0.0
H1577 H 0.98453 0.04662 0.16133 0.0
H1578 H 0.91223 0.02284 0.19079 0.0
H1579 H 0.97285 0.01153 0.14444 0.0
H1580 H 0.94262 0.95365 0.10072 0.0
H1581 H 0.94964 0.99115 0.10972 0.0
H1582 H 0.9192 0.98741 0.20611 0.0
H1583 H 0.91157 0.9504 0.19665 0.0
C1584 C 0.93495 0.04768 0.19456 0.0
C1585 C 0.9554 0.0547 0.18673 0.0
C1586 C 0.92809 0.02777 0.18432 0.0
C1587 C 0.94162 0.01431 0.16639 0.0
C1588 C 0.9619 0.02158 0.15782 0.0
C1589 C 0.96868 0.04162 0.16775 0.0
C1590 C 0.9371 0.96097 0.12354 0.0
C1591 C 0.92668 0.94901 0.14807 0.0
C1592 C 0.94128 0.98241 0.12882 0.0
C1593 C 0.93518 0.99226 0.15878 0.0
C1594 C 0.92392 0.98046 0.18258 0.0
C1595 C 0.91964 0.95914 0.17722 0.0
H1596 H 0.31206 0.67102 0.5543 0.0
H1597 H 0.28715 0.69433 0.46076 0.0
H1598 H 0.2765 0.66035 0.57119 0.0
H1599 H 0.25177 0.68353 0.47758 0.0
H1600 H 0.19229 0.65054 0.50722 0.0
H1601 H 0.22972 0.65079 0.49252 0.0
H1602 H 0.24404 0.68335 0.58448 0.0
H1603 H 0.20666 0.68327 0.59918 0.0
C1604 C 0.29906 0.67358 0.53717 0.0
C1605 C 0.30231 0.68369 0.50635 0.0
C1606 C 0.27876 0.6675 0.54687 0.0
C1607 C 0.26147 0.67109 0.52565 0.0
C1608 C 0.26488 0.68035 0.49424 0.0
C1609 C 0.28509 0.68671 0.48476 0.0
C1610 C 0.20347 0.6573 0.52469 0.0
C1611 C 0.19654 0.66716 0.55413 0.0
C1612 C 0.22485 0.6575 0.51618 0.0
C1613 C 0.23966 0.66727 0.53723 0.0
C1614 C 0.23294 0.67564 0.56789 0.0
C1615 C 0.21155 0.67568 0.5762 0.0
H1616 H 0.49475 0.03656 0.28931 0.0
H1617 H 0.44384 0.02634 0.21919 0.0
H1618 H 0.49781 -0.00139 0.29774 0.0
H1619 H 0.44653 0.98834 0.22832 0.0
H1620 H 0.47394 0.92157 0.22374 0.0
H1621 H 0.47035 0.95955 0.21608 0.0
H1622 H 0.4795 0.96894 0.32198 0.0
H1623 H 0.48366 0.93096 0.32953 0.0
C1624 C 0.48408 0.02622 0.2759 0.0
C1625 C 0.46909 0.03445 0.2535 0.0
C1626 C 0.48576 0.00446 0.28089 0.0
C1627 C 0.47243 0.99044 0.26368 0.0
C1628 C 0.45725 -0.0013 0.24158 0.0
C1629 C 0.45562 0.02048 0.2365 0.0
C1630 C 0.47522 0.93173 0.24539 0.0
C1631 C 0.47914 0.92326 0.27724 0.0
C1632 C 0.47301 0.9535 0.24103 0.0
C1633 C 0.47458 0.96728 0.26843 0.0
C1634 C 0.47847 0.95878 0.30029 0.0
C1635 C 0.48077 0.93701 0.30463 0.0
H1636 H 0.79051 0.71994 0.07912 0.0
H1637 H 0.79328 0.65863 0.03188 0.0
H1638 H 0.75304 0.72222 0.06633 0.0
H1639 H 0.75557 0.66056 0.02008 0.0
H1640 H 0.69742 0.6856 0.96352 0.0
H1641 H 0.73354 0.67984 0.98236 0.0
H1642 H 0.7185 0.70907 0.07695 0.0
H1643 H 0.68261 0.71549 0.05762 0.0
C1644 C 0.78301 0.70673 0.06666 0.0
C1645 C 0.79489 0.6892 0.05622 0.0
C1646 C 0.76148 0.708 0.05941 0.0
C1647 C 0.75131 0.69166 0.04185 0.0
C1648 C 0.763 0.67363 0.03298 0.0
C1649 C 0.78458 0.67245 0.03997 0.0
C1650 C 0.70181 0.6907 0.98838 0.0
C1651 C 0.68723 0.70116 0.00895 0.0
C1652 C 0.72248 0.68726 -0.00068 0.0
C1653 C 0.72895 0.69402 0.0312 0.0
C1654 C 0.71416 0.70398 0.05207 0.0
C1655 C 0.69356 0.70759 0.04102 0.0
H1656 H 0.01632 0.05721 0.68486 0.0
H1657 H 0.02235 0.04451 0.79047 0.0
H1658 H 0.02201 0.0199 0.67287 0.0
H1659 H 0.02739 0.00715 0.77856 0.0
H1660 H 0.05679 0.94574 0.74654 0.0
H1661 H 0.05305 0.9836 0.75513 0.0
H1662 H 0.0053 0.98595 0.67801 0.0
H1663 H 0.00952 0.94812 0.66871 0.0
C1664 C 0.01868 0.04643 0.70554 0.0
C1665 C 0.01893 0.05382 0.73863 0.0
C1666 C 0.02187 0.02503 0.69865 0.0
C1667 C 0.02527 0.01054 0.72472 0.0
C1668 C 0.02524 0.01794 0.75783 0.0
C1669 C 0.02219 0.03934 0.7647 0.0
C1670 C 0.04563 0.95437 0.73119 0.0
C1671 C 0.03336 0.94392 0.70707 0.0
C1672 C 0.04337 0.97605 0.7363 0.0
C1673 C 0.02867 0.98777 0.71758 0.0
C1674 C 0.01688 0.97743 0.6927 0.0
C1675 C 0.01926 0.95573 0.68741 0.0
H1676 H 0.71553 0.28106 0.60748 0.0
H1677 H 0.70351 0.30163 0.50631 0.0
H1678 H 0.75301 0.27732 0.59436 0.0
H1679 H 0.74059 0.29724 0.49297 0.0
H1680 H 0.81087 0.30375 0.48416 0.0
H1681 H 0.77496 0.31114 0.50232 0.0
H1682 H 0.7755 0.25435 0.56234 0.0
H1683 H 0.81174 0.24738 0.54506 0.0
C1684 C 0.72089 0.28484 0.58251 0.0
C1685 C 0.70654 0.29159 0.55793 0.0
C1686 C 0.74233 0.28256 0.57493 0.0
C1687 C 0.74981 0.2869 0.54258 0.0
C1688 C 0.73547 0.29406 0.51827 0.0
C1689 C 0.71413 0.29646 0.52589 0.0
C1690 C 0.80335 0.29288 0.50132 0.0
C1691 C 0.81408 0.27491 0.51301 0.0
C1692 C 0.78273 0.29708 0.51165 0.0
C1693 C 0.77228 0.28327 0.53363 0.0
C1694 C 0.78316 0.26547 0.54575 0.0
C1695 C 0.80388 0.26138 0.53564 0.0
loop_
_geom_bond_atom_site_label_1
_geom_bond_atom_site_label_2
_geom_bond_distance
_geom_bond_site_symmetry_2
_ccdc_geom_bond_type
C0 O1 1.160 . S
C0 O7 1.185 . S
O1 C0 1.160 . S
O2 Zn3 1.899 . S
O2 C10 1.284 . S
Zn3 O2 1.899 . S
Zn3 O4 2.032 . S
Zn3 O7 2.086 . S
Zn3 O12 1.977 . S
O4 Zn3 2.032 . S
O4 C8 1.278 . S
C5 O6 1.203 . S
C5 O12 1.267 . S
O6 C5 1.203 . S
O7 C0 1.185 . S
O7 Zn3 2.086 . S
C8 O4 1.278 . S
C8 O9 1.211 . S
O9 C8 1.211 . S
C10 O2 1.284 . S
C10 O11 1.273 . S
O11 C10 1.273 . S
O12 Zn3 1.977 . S
O12 C5 1.267 . S
C13 O14 1.160 . S
C13 O20 1.185 . S
O14 C13 1.160 . S
O15 Zn16 1.899 . S
O15 C23 1.284 . S
Zn16 O15 1.899 . S
Zn16 O17 2.032 . S
Zn16 O20 2.086 . S
Zn16 O25 1.977 . S
O17 Zn16 2.032 . S
O17 C21 1.278 . S
C18 O19 1.203 . S
C18 O25 1.267 . S
O19 C18 1.203 . S
O20 C13 1.185 . S
O20 Zn16 2.086 . S
C21 O17 1.278 . S
C21 O22 1.211 . S
O22 C21 1.211 . S
C23 O15 1.284 . S
C23 O24 1.273 . S
O24 C23 1.273 . S
O25 Zn16 1.977 . S
O25 C18 1.267 . S
C26 O27 1.160 . S
C26 O33 1.185 . S
O27 C26 1.160 . S
O28 Zn29 1.899 . S
O28 C36 1.284 . S
Zn29 O28 1.899 . S
Zn29 O30 2.032 . S
Zn29 O33 2.086 . S
Zn29 O38 1.977 . S
O30 Zn29 2.032 . S
O30 C34 1.278 . S
C31 O32 1.203 . S
C31 O38 1.267 . S
O32 C31 1.203 . S
O33 C26 1.185 . S
O33 Zn29 2.086 . S
C34 O30 1.278 . S
C34 O35 1.211 . S
O35 C34 1.211 . S
C36 O28 1.284 . S
C36 O37 1.273 . S
O37 C36 1.273 . S
O38 Zn29 1.977 . S
O38 C31 1.267 . S
C39 O40 1.160 . S
C39 O46 1.185 . S
O40 C39 1.160 . S
O41 Zn42 1.899 . S
O41 C49 1.284 . S
Zn42 O41 1.899 . S
Zn42 O43 2.032 1_554 S
Zn42 O46 2.086 . S
Zn42 O51 1.977 . S
O43 Zn42 2.032 1_556 S
O43 C47 1.278 . S
C44 O45 1.203 . S
C44 O51 1.267 . S
O45 C44 1.203 . S
O46 C39 1.185 . S
O46 Zn42 2.086 . S
C47 O43 1.278 . S
C47 O48 1.211 . S
O48 C47 1.211 . S
C49 O41 1.284 . S
C49 O50 1.273 . S
O50 C49 1.273 . S
O51 Zn42 1.977 . S
O51 C44 1.267 . S
C52 O53 1.160 . S
C52 O59 1.185 . S
O53 C52 1.160 . S
O54 Zn55 1.899 . S
O54 C62 1.284 . S
Zn55 O54 1.899 . S
Zn55 O56 2.032 . S
Zn55 O59 2.086 . S
Zn55 O64 1.977 . S
O56 Zn55 2.032 . S
O56 C60 1.278 . S
C57 O58 1.203 . S
C57 O64 1.267 . S
O58 C57 1.203 . S
O59 C52 1.185 . S
O59 Zn55 2.086 . S
C60 O56 1.278 . S
C60 O61 1.211 . S
O61 C60 1.211 . S
C62 O54 1.284 . S
C62 O63 1.273 . S
O63 C62 1.273 . S
O64 Zn55 1.977 . S
O64 C57 1.267 . S
C65 O66 1.160 . S
C65 O72 1.185 . S
O66 C65 1.160 . S
O67 Zn68 1.899 . S
O67 C75 1.284 . S
Zn68 O67 1.899 . S
Zn68 O69 2.032 . S
Zn68 O72 2.086 . S
Zn68 O77 1.977 . S
O69 Zn68 2.032 . S
O69 C73 1.278 . S
C70 O71 1.203 . S
C70 O77 1.267 . S
O71 C70 1.203 . S
O72 C65 1.185 . S
O72 Zn68 2.086 . S
C73 O69 1.278 . S
C73 O74 1.211 . S
O74 C73 1.211 . S
C75 O67 1.284 . S
C75 O76 1.273 . S
O76 C75 1.273 . S
O77 Zn68 1.977 . S
O77 C70 1.267 . S
C78 O79 1.160 . S
C78 O85 1.185 . S
O79 C78 1.160 . S
O80 Zn81 1.899 . S
O80 C88 1.284 . S
Zn81 O80 1.899 . S
Zn81 O82 2.032 . S
Zn81 O85 2.086 . S
Zn81 O90 1.977 . S
O82 Zn81 2.032 . S
O82 C86 1.278 . S
C83 O84 1.203 . S
C83 O90 1.267 . S
O84 C83 1.203 . S
O85 C78 1.185 . S
O85 Zn81 2.086 . S
C86 O82 1.278 . S
C86 O87 1.211 . S
O87 C86 1.211 . S
C88 O80 1.284 . S
C88 O89 1.273 . S
O89 C88 1.273 . S
O90 Zn81 1.977 . S
O90 C83 1.267 . S
C91 O92 1.160 . S
C91 O98 1.185 . S
O92 C91 1.160 . S
O93 Zn94 1.899 . S
O93 C101 1.284 . S
Zn94 O93 1.899 . S
Zn94 O95 2.032 1_556 S
Zn94 O98 2.086 . S
Zn94 O103 1.977 . S
O95 Zn94 2.032 1_554 S
O95 C99 1.278 . S
C96 O97 1.203 . S
C96 O103 1.267 . S
O97 C96 1.203 . S
O98 C91 1.185 . S
O98 Zn94 2.086 . S
C99 O95 1.278 . S
C99 O100 1.211 . S
O100 C99 1.211 . S
C101 O93 1.284 . S
C101 O102 1.273 . S
O102 C101 1.273 . S
O103 Zn94 1.977 . S
O103 C96 1.267 . S
C104 O105 1.160 . S
C104 O111 1.185 . S
O105 C104 1.160 . S
O106 Zn107 1.899 . S
O106 C114 1.284 . S
Zn107 O106 1.899 . S
Zn107 O108 2.032 . S
Zn107 O111 2.086 . S
Zn107 O116 1.977 . S
O108 Zn107 2.032 . S
O108 C112 1.278 . S
C109 O110 1.203 . S
C109 O116 1.267 . S
O110 C109 1.203 . S
O111 C104 1.185 . S
O111 Zn107 2.086 . S
C112 O108 1.278 . S
C112 O113 1.211 . S
O113 C112 1.211 . S
C114 O106 1.284 . S
C114 O115 1.273 . S
O115 C114 1.273 . S
O116 Zn107 1.977 . S
O116 C109 1.267 . S
C117 O118 1.160 . S
C117 O124 1.185 . S
O118 C117 1.160 . S
O119 Zn120 1.899 . S
O119 C127 1.284 . S
Zn120 O119 1.899 . S
Zn120 O121 2.032 . S
Zn120 O124 2.086 . S
Zn120 O129 1.977 . S
O121 Zn120 2.032 . S
O121 C125 1.278 . S
C122 O123 1.203 . S
C122 O129 1.267 . S
O123 C122 1.203 . S
O124 C117 1.185 . S
O124 Zn120 2.086 . S
C125 O121 1.278 . S
C125 O126 1.211 . S
O126 C125 1.211 . S
C127 O119 1.284 . S
C127 O128 1.273 . S
O128 C127 1.273 . S
O129 Zn120 1.977 . S
O129 C122 1.267 . S
C130 O131 1.160 . S
C130 O137 1.185 . S
O131 C130 1.160 . S
O132 Zn133 1.899 . S
O132 C140 1.284 . S
Zn133 O132 1.899 . S
Zn133 O134 2.032 . S
Zn133 O137 2.086 . S
Zn133 O142 1.977 . S
O134 Zn133 2.032 . S
O134 C138 1.278 . S
C135 O136 1.203 . S
C135 O142 1.267 . S
O136 C135 1.203 . S
O137 C130 1.185 . S
O137 Zn133 2.086 . S
C138 O134 1.278 . S
C138 O139 1.211 . S
O139 C138 1.211 . S
C140 O132 1.284 . S
C140 O141 1.273 . S
O141 C140 1.273 . S
O142 Zn133 1.977 . S
O142 C135 1.267 . S
C143 O144 1.160 . S
C143 O150 1.185 . S
O144 C143 1.160 . S
O145 Zn146 1.899 . S
O145 C153 1.284 . S
Zn146 O145 1.899 . S
Zn146 O147 2.032 1_556 S
Zn146 O150 2.086 . S
Zn146 O155 1.977 . S
O147 Zn146 2.032 1_554 S
O147 C151 1.278 . S
C148 O149 1.203 . S
C148 O155 1.267 . S
O149 C148 1.203 . S
O150 C143 1.185 . S
O150 Zn146 2.086 . S
C151 O147 1.278 . S
C151 O152 1.211 . S
O152 C151 1.211 . S
C153 O145 1.284 . S
C153 O154 1.273 . S
O154 C153 1.273 . S
O155 Zn146 1.977 . S
O155 C148 1.267 . S
C156 O157 1.160 . S
C156 O163 1.185 . S
O157 C156 1.160 . S
O158 Zn159 1.899 . S
O158 C166 1.284 . S
Zn159 O158 1.899 . S
Zn159 O160 2.032 . S
Zn159 O163 2.086 . S
Zn159 O168 1.977 . S
O160 Zn159 2.032 . S
O160 C164 1.278 . S
C161 O162 1.203 . S
C161 O168 1.267 . S
O162 C161 1.203 . S
O163 C156 1.185 . S
O163 Zn159 2.086 . S
C164 O160 1.278 . S
C164 O165 1.211 . S
O165 C164 1.211 . S
C166 O158 1.284 . S
C166 O167 1.273 . S
O167 C166 1.273 . S
O168 Zn159 1.977 . S
O168 C161 1.267 . S
C169 O170 1.160 . S
C169 O176 1.185 . S
O170 C169 1.160 . S
O171 Zn172 1.899 . S
O171 C179 1.284 . S
Zn172 O171 1.899 . S
Zn172 O173 2.032 . S
Zn172 O176 2.086 . S
Zn172 O181 1.977 . S
O173 Zn172 2.032 . S
O173 C177 1.278 . S
C174 O175 1.203 . S
C174 O181 1.267 . S
O175 C174 1.203 . S
O176 C169 1.185 . S
O176 Zn172 2.086 . S
C177 O173 1.278 . S
C177 O178 1.211 . S
O178 C177 1.211 . S
C179 O171 1.284 . S
C179 O180 1.273 . S
O180 C179 1.273 . S
O181 Zn172 1.977 . S
O181 C174 1.267 . S
C182 O183 1.160 . S
C182 O189 1.185 . S
O183 C182 1.160 . S
O184 Zn185 1.899 . S
O184 C192 1.284 . S
Zn185 O184 1.899 . S
Zn185 O186 2.032 . S
Zn185 O189 2.086 . S
Zn185 O194 1.977 . S
O186 Zn185 2.032 . S
O186 C190 1.278 . S
C187 O188 1.203 . S
C187 O194 1.267 . S
O188 C187 1.203 . S
O189 C182 1.185 . S
O189 Zn185 2.086 . S
C190 O186 1.278 . S
C190 O191 1.211 . S
O191 C190 1.211 . S
C192 O184 1.284 . S
C192 O193 1.273 . S
O193 C192 1.273 . S
O194 Zn185 1.977 . S
O194 C187 1.267 . S
C195 O196 1.160 . S
C195 O202 1.185 . S
O196 C195 1.160 . S
O197 Zn198 1.899 . S
O197 C205 1.284 . S
Zn198 O197 1.899 . S
Zn198 O199 2.032 1_554 S
Zn198 O202 2.086 . S
Zn198 O207 1.977 . S
O199 Zn198 2.032 1_556 S
O199 C203 1.278 . S
C200 O201 1.203 . S
C200 O207 1.267 . S
O201 C200 1.203 . S
O202 C195 1.185 . S
O202 Zn198 2.086 . S
C203 O199 1.278 . S
C203 O204 1.211 . S
O204 C203 1.211 . S
C205 O197 1.284 . S
C205 O206 1.273 . S
O206 C205 1.273 . S
O207 Zn198 1.977 . S
O207 C200 1.267 . S
C208 O209 1.160 . S
C208 O215 1.185 . S
O209 C208 1.160 . S
O210 Zn211 1.899 . S
O210 C218 1.284 . S
Zn211 O210 1.899 . S
Zn211 O212 2.032 . S
Zn211 O215 2.086 . S
Zn211 O220 1.977 . S
O212 Zn211 2.032 . S
O212 C216 1.278 . S
C213 O214 1.203 . S
C213 O220 1.267 . S
O214 C213 1.203 . S
O215 C208 1.185 . S
O215 Zn211 2.086 . S
C216 O212 1.278 . S
C216 O217 1.211 . S
O217 C216 1.211 . S
C218 O210 1.284 . S
C218 O219 1.273 . S
O219 C218 1.273 . S
O220 Zn211 1.977 . S
O220 C213 1.267 . S
C221 O222 1.160 . S
C221 O228 1.185 . S
O222 C221 1.160 . S
O223 Zn224 1.899 . S
O223 C231 1.284 . S
Zn224 O223 1.899 . S
Zn224 O225 2.032 1_554 S
Zn224 O228 2.086 . S
Zn224 O233 1.977 . S
O225 Zn224 2.032 1_556 S
O225 C229 1.278 . S
C226 O227 1.203 . S
C226 O233 1.267 . S
O227 C226 1.203 . S
O228 C221 1.185 . S
O228 Zn224 2.086 . S
C229 O225 1.278 . S
C229 O230 1.211 . S
O230 C229 1.211 . S
C231 O223 1.284 . S
C231 O232 1.273 . S
O232 C231 1.273 . S
O233 Zn224 1.977 . S
O233 C226 1.267 . S
C234 O235 1.160 . S
C234 O241 1.185 . S
O235 C234 1.160 . S
O236 Zn237 1.899 . S
O236 C244 1.284 . S
Zn237 O236 1.899 . S
Zn237 O238 2.032 . S
Zn237 O241 2.086 . S
Zn237 O246 1.977 . S
O238 Zn237 2.032 . S
O238 C242 1.278 . S
C239 O240 1.203 . S
C239 O246 1.267 . S
O240 C239 1.203 . S
O241 C234 1.185 . S
O241 Zn237 2.086 . S
C242 O238 1.278 . S
C242 O243 1.211 . S
O243 C242 1.211 . S
C244 O236 1.284 . S
C244 O245 1.273 . S
O245 C244 1.273 . S
O246 Zn237 1.977 . S
O246 C239 1.267 . S
C247 O248 1.160 . S
C247 O254 1.185 . S
O248 C247 1.160 . S
O249 Zn250 1.899 . S
O249 C257 1.284 . S
Zn250 O249 1.899 . S
Zn250 O251 2.032 . S
Zn250 O254 2.086 . S
Zn250 O259 1.977 . S
O251 Zn250 2.032 . S
O251 C255 1.278 . S
C252 O253 1.203 . S
C252 O259 1.267 . S
O253 C252 1.203 . S
O254 C247 1.185 . S
O254 Zn250 2.086 . S
C255 O251 1.278 . S
C255 O256 1.211 . S
O256 C255 1.211 . S
C257 O249 1.284 . S
C257 O258 1.273 . S
O258 C257 1.273 . S
O259 Zn250 1.977 . S
O259 C252 1.267 . S
C260 O261 1.160 . S
C260 O267 1.185 . S
O261 C260 1.160 . S
O262 Zn263 1.899 . S
O262 C270 1.284 . S
Zn263 O262 1.899 . S
Zn263 O264 2.032 . S
Zn263 O267 2.086 . S
Zn263 O272 1.977 . S
O264 Zn263 2.032 . S
O264 C268 1.278 . S
C265 O266 1.203 . S
C265 O272 1.267 . S
O266 C265 1.203 . S
O267 C260 1.185 . S
O267 Zn263 2.086 . S
C268 O264 1.278 . S
C268 O269 1.211 . S
O269 C268 1.211 . S
C270 O262 1.284 . S
C270 O271 1.273 . S
O271 C270 1.273 . S
O272 Zn263 1.977 . S
O272 C265 1.267 . S
C273 O274 1.160 . S
C273 O280 1.185 . S
O274 C273 1.160 . S
O275 Zn276 1.899 . S
O275 C283 1.284 . S
Zn276 O275 1.899 . S
Zn276 O277 2.032 1_556 S
Zn276 O280 2.086 . S
Zn276 O285 1.977 . S
O277 Zn276 2.032 1_554 S
O277 C281 1.278 . S
C278 O279 1.203 . S
C278 O285 1.267 . S
O279 C278 1.203 . S
O280 C273 1.185 . S
O280 Zn276 2.086 . S
C281 O277 1.278 . S
C281 O282 1.211 . S
O282 C281 1.211 . S
C283 O275 1.284 . S
C283 O284 1.273 . S
O284 C283 1.273 . S
O285 Zn276 1.977 . S
O285 C278 1.267 . S
C286 O287 1.160 . S
C286 O293 1.185 . S
O287 C286 1.160 . S
O288 Zn289 1.899 . S
O288 C296 1.284 . S
Zn289 O288 1.899 . S
Zn289 O290 2.032 . S
Zn289 O293 2.086 . S
Zn289 O298 1.977 . S
O290 Zn289 2.032 . S
O290 C294 1.278 . S
C291 O292 1.203 . S
C291 O298 1.267 . S
O292 C291 1.203 . S
O293 C286 1.185 . S
O293 Zn289 2.086 . S
C294 O290 1.278 . S
C294 O295 1.211 . S
O295 C294 1.211 . S
C296 O288 1.284 . S
C296 O297 1.273 . S
O297 C296 1.273 . S
O298 Zn289 1.977 . S
O298 C291 1.267 . S
C299 O300 1.160 . S
C299 O306 1.185 . S
O300 C299 1.160 . S
O301 Zn302 1.899 . S
O301 C309 1.284 . S
Zn302 O301 1.899 . S
Zn302 O303 2.032 . S
Zn302 O306 2.086 . S
Zn302 O311 1.977 . S
O303 Zn302 2.032 . S
O303 C307 1.278 . S
C304 O305 1.203 . S
C304 O311 1.267 . S
O305 C304 1.203 . S
O306 C299 1.185 . S
O306 Zn302 2.086 . S
C307 O303 1.278 . S
C307 O308 1.211 . S
O308 C307 1.211 . S
C309 O301 1.284 . S
C309 O310 1.273 . S
O310 C309 1.273 . S
O311 Zn302 1.977 . S
O311 C304 1.267 . S
C312 O313 1.160 . S
C312 O319 1.185 . S
O313 C312 1.160 . S
O314 Zn315 1.899 . S
O314 C322 1.284 . S
Zn315 O314 1.899 . S
Zn315 O316 2.032 . S
Zn315 O319 2.086 . S
Zn315 O324 1.977 . S
O316 Zn315 2.032 . S
O316 C320 1.278 . S
C317 O318 1.203 . S
C317 O324 1.267 . S
O318 C317 1.203 . S
O319 C312 1.185 . S
O319 Zn315 2.086 . S
C320 O316 1.278 . S
C320 O321 1.211 . S
O321 C320 1.211 . S
C322 O314 1.284 . S
C322 O323 1.273 . S
O323 C322 1.273 . S
O324 Zn315 1.977 . S
O324 C317 1.267 . S
C325 O326 1.160 . S
C325 O332 1.185 . S
O326 C325 1.160 . S
O327 Zn328 1.899 . S
O327 C335 1.284 . S
Zn328 O327 1.899 . S
Zn328 O329 2.032 1_556 S
Zn328 O332 2.086 . S
Zn328 O337 1.977 . S
O329 Zn328 2.032 1_554 S
O329 C333 1.278 . S
C330 O331 1.203 . S
C330 O337 1.267 . S
O331 C330 1.203 . S
O332 C325 1.185 . S
O332 Zn328 2.086 . S
C333 O329 1.278 . S
C333 O334 1.211 . S
O334 C333 1.211 . S
C335 O327 1.284 . S
C335 O336 1.273 . S
O336 C335 1.273 . S
O337 Zn328 1.977 . S
O337 C330 1.267 . S
C338 O339 1.160 . S
C338 O345 1.185 . S
O339 C338 1.160 . S
O340 Zn341 1.899 . S
O340 C348 1.284 . S
Zn341 O340 1.899 . S
Zn341 O342 2.032 . S
Zn341 O345 2.086 . S
Zn341 O350 1.977 . S
O342 Zn341 2.032 . S
O342 C346 1.278 . S
C343 O344 1.203 . S
C343 O350 1.267 . S
O344 C343 1.203 . S
O345 C338 1.185 . S
O345 Zn341 2.086 . S
C346 O342 1.278 . S
C346 O347 1.211 . S
O347 C346 1.211 . S
C348 O340 1.284 . S
C348 O349 1.273 . S
O349 C348 1.273 . S
O350 Zn341 1.977 . S
O350 C343 1.267 . S
C351 O352 1.160 . S
C351 O358 1.185 . S
O352 C351 1.160 . S
O353 Zn354 1.899 . S
O353 C361 1.284 . S
Zn354 O353 1.899 . S
Zn354 O355 2.032 . S
Zn354 O358 2.086 . S
Zn354 O363 1.977 . S
O355 Zn354 2.032 . S
O355 C359 1.278 . S
C356 O357 1.203 . S
C356 O363 1.267 . S
O357 C356 1.203 . S
O358 C351 1.185 . S
O358 Zn354 2.086 . S
C359 O355 1.278 . S
C359 O360 1.211 . S
O360 C359 1.211 . S
C361 O353 1.284 . S
C361 O362 1.273 . S
O362 C361 1.273 . S
O363 Zn354 1.977 . S
O363 C356 1.267 . S
C364 O365 1.160 . S
C364 O371 1.185 . S
O365 C364 1.160 . S
O366 Zn367 1.899 . S
O366 C374 1.284 . S
Zn367 O366 1.899 . S
Zn367 O368 2.032 . S
Zn367 O371 2.086 . S
Zn367 O376 1.977 . S
O368 Zn367 2.032 . S
O368 C372 1.278 . S
C369 O370 1.203 . S
C369 O376 1.267 . S
O370 C369 1.203 . S
O371 C364 1.185 . S
O371 Zn367 2.086 . S
C372 O368 1.278 . S
C372 O373 1.211 . S
O373 C372 1.211 . S
C374 O366 1.284 . S
C374 O375 1.273 . S
O375 C374 1.273 . S
O376 Zn367 1.977 . S
O376 C369 1.267 . S
C377 O378 1.160 . S
C377 O384 1.185 . S
O378 C377 1.160 . S
O379 Zn380 1.899 . S
O379 C387 1.284 . S
Zn380 O379 1.899 . S
Zn380 O381 2.032 1_554 S
Zn380 O384 2.086 . S
Zn380 O389 1.977 . S
O381 Zn380 2.032 1_556 S
O381 C385 1.278 . S
C382 O383 1.203 . S
C382 O389 1.267 . S
O383 C382 1.203 . S
O384 C377 1.185 . S
O384 Zn380 2.086 . S
C385 O381 1.278 . S
C385 O386 1.211 . S
O386 C385 1.211 . S
C387 O379 1.284 . S
C387 O388 1.273 . S
O388 C387 1.273 . S
O389 Zn380 1.977 . S
O389 C382 1.267 . S
C390 O391 1.160 . S
C390 O397 1.185 . S
O391 C390 1.160 . S
O392 Zn393 1.899 . S
O392 C400 1.284 . S
Zn393 O392 1.899 . S
Zn393 O394 2.032 . S
Zn393 O397 2.086 . S
Zn393 O402 1.977 . S
O394 Zn393 2.032 . S
O394 C398 1.278 . S
C395 O396 1.203 . S
C395 O402 1.267 . S
O396 C395 1.203 . S
O397 C390 1.185 . S
O397 Zn393 2.086 . S
C398 O394 1.278 . S
C398 O399 1.211 . S
O399 C398 1.211 . S
C400 O392 1.284 . S
C400 O401 1.273 . S
O401 C400 1.273 . S
O402 Zn393 1.977 . S
O402 C395 1.267 . S
C403 O404 1.160 . S
C403 O410 1.185 . S
O404 C403 1.160 . S
O405 Zn406 1.899 . S
O405 C413 1.284 . S
Zn406 O405 1.899 . S
Zn406 O407 2.032 . S
Zn406 O410 2.086 . S
Zn406 O415 1.977 . S
O407 Zn406 2.032 . S
O407 C411 1.278 . S
C408 O409 1.203 . S
C408 O415 1.267 . S
O409 C408 1.203 . S
O410 C403 1.185 . S
O410 Zn406 2.086 . S
C411 O407 1.278 . S
C411 O412 1.211 . S
O412 C411 1.211 . S
C413 O405 1.284 . S
C413 O414 1.273 . S
O414 C413 1.273 . S
O415 Zn406 1.977 . S
O415 C408 1.267 . S
H416 C424 0.950 . S
H417 C429 0.950 . S
H418 C426 0.950 . S
H419 C428 0.950 . S
H420 C430 0.950 . S
H421 C432 0.950 . S
H422 C434 0.950 . S
H423 C435 0.950 . S
C424 H416 0.950 . S
C424 C425 1.386 . S
C424 C426 1.391 . S
C425 C424 1.386 . S
C425 C429 1.393 . S
C426 H418 0.950 . S
C426 C424 1.391 . S
C426 C427 1.400 . S
C427 C426 1.400 . S
C427 C428 1.398 . S
C427 C433 1.491 . S
C428 H419 0.950 . S
C428 C427 1.398 . S
C428 C429 1.391 . S
C429 H417 0.950 . S
C429 C425 1.393 . S
C429 C428 1.391 . S
C430 H420 0.950 . S
C430 C431 1.386 . S
C430 C432 1.391 . S
C431 C430 1.386 . S
C431 C435 1.393 . S
C432 H421 0.950 . S
C432 C430 1.391 . S
C432 C433 1.400 . S
C433 C427 1.491 . S
C433 C432 1.400 . S
C433 C434 1.398 . S
C434 H422 0.950 . S
C434 C433 1.398 . S
C434 C435 1.391 . S
C435 H423 0.950 . S
C435 C431 1.393 . S
C435 C434 1.391 . S
H436 C444 0.950 . S
H437 C449 0.950 . S
H438 C446 0.950 . S
H439 C448 0.950 . S
H440 C450 0.950 . S
H441 C452 0.950 . S
H442 C454 0.950 . S
H443 C455 0.950 . S
C444 H436 0.950 . S
C444 C445 1.386 . S
C444 C446 1.391 . S
C445 C444 1.386 . S
C445 C449 1.393 . S
C446 H438 0.950 . S
C446 C444 1.391 . S
C446 C447 1.400 . S
C447 C446 1.400 . S
C447 C448 1.398 . S
C447 C453 1.491 . S
C448 H439 0.950 . S
C448 C447 1.398 . S
C448 C449 1.391 . S
C449 H437 0.950 . S
C449 C445 1.393 . S
C449 C448 1.391 . S
C450 H440 0.950 . S
C450 C451 1.386 . S
C450 C452 1.391 . S
C451 C450 1.386 . S
C451 C455 1.393 . S
C452 H441 0.950 . S
C452 C450 1.391 . S
C452 C453 1.400 . S
C453 C447 1.491 . S
C453 C452 1.400 . S
C453 C454 1.398 . S
C454 H442 0.950 . S
C454 C453 1.398 . S
C454 C455 1.391 . S
C455 H443 0.950 . S
C455 C451 1.393 . S
C455 C454 1.391 . S
H456 C464 0.950 . S
H457 C469 0.950 . S
H458 C466 0.950 . S
H459 C468 0.950 . S
H460 C470 0.950 . S
H461 C472 0.950 . S
H462 C474 0.950 . S
H463 C475 0.950 . S
C464 H456 0.950 . S
C464 C465 1.386 . S
C464 C466 1.391 . S
C465 C464 1.386 . S
C465 C469 1.393 . S
C466 H458 0.950 . S
C466 C464 1.391 . S
C466 C467 1.400 . S
C467 C466 1.400 . S
C467 C468 1.398 . S
C467 C473 1.491 . S
C468 H459 0.950 . S
C468 C467 1.398 . S
C468 C469 1.391 . S
C469 H457 0.950 . S
C469 C465 1.393 . S
C469 C468 1.391 . S
C470 H460 0.950 . S
C470 C471 1.386 . S
C470 C472 1.391 . S
C471 C470 1.386 . S
C471 C475 1.393 . S
C472 H461 0.950 . S
C472 C470 1.391 . S
C472 C473 1.400 . S
C473 C467 1.491 . S
C473 C472 1.400 . S
C473 C474 1.398 . S
C474 H462 0.950 . S
C474 C473 1.398 . S
C474 C475 1.391 . S
C475 H463 0.950 . S
C475 C471 1.393 . S
C475 C474 1.391 . S
H476 C484 0.950 . S
H477 C489 0.950 . S
H478 C486 0.950 . S
H479 C488 0.950 . S
H480 C490 0.950 . S
H481 C492 0.950 . S
H482 C494 0.950 . S
H483 C495 0.950 . S
C484 H476 0.950 . S
C484 C485 1.386 . S
C484 C486 1.391 . S
C485 C484 1.386 . S
C485 C489 1.393 . S
C486 H478 0.950 . S
C486 C484 1.391 . S
C486 C487 1.400 . S
C487 C486 1.400 . S
C487 C488 1.398 . S
C487 C493 1.491 . S
C488 H479 0.950 . S
C488 C487 1.398 . S
C488 C489 1.391 . S
C489 H477 0.950 . S
C489 C485 1.393 . S
C489 C488 1.391 . S
C490 H480 0.950 . S
C490 C491 1.386 . S
C490 C492 1.391 . S
C491 C490 1.386 . S
C491 C495 1.393 . S
C492 H481 0.950 . S
C492 C490 1.391 . S
C492 C493 1.400 . S
C493 C487 1.491 . S
C493 C492 1.400 . S
C493 C494 1.398 . S
C494 H482 0.950 . S
C494 C493 1.398 . S
C494 C495 1.391 . S
C495 H483 0.950 . S
C495 C491 1.393 . S
C495 C494 1.391 . S
H496 C504 0.950 . S
H497 C509 0.950 . S
H498 C506 0.950 . S
H499 C508 0.950 . S
H500 C510 0.950 . S
H501 C512 0.950 . S
H502 C514 0.950 . S
H503 C515 0.950 . S
C504 H496 0.950 . S
C504 C505 1.386 . S
C504 C506 1.391 . S
C505 C504 1.386 . S
C505 C509 1.393 . S
C506 H498 0.950 . S
C506 C504 1.391 . S
C506 C507 1.400 . S
C507 C506 1.400 . S
C507 C508 1.398 . S
C507 C513 1.491 . S
C508 H499 0.950 . S
C508 C507 1.398 . S
C508 C509 1.391 . S
C509 H497 0.950 . S
C509 C505 1.393 . S
C509 C508 1.391 . S
C510 H500 0.950 . S
C510 C511 1.386 . S
C510 C512 1.391 . S
C511 C510 1.386 . S
C511 C515 1.393 . S
C512 H501 0.950 . S
C512 C510 1.391 . S
C512 C513 1.400 . S
C513 C507 1.491 . S
C513 C512 1.400 . S
C513 C514 1.398 . S
C514 H502 0.950 . S
C514 C513 1.398 . S
C514 C515 1.391 . S
C515 H503 0.950 . S
C515 C511 1.393 . S
C515 C514 1.391 . S
H516 C524 0.950 . S
H517 C529 0.950 . S
H518 C526 0.950 . S
H519 C528 0.950 . S
H520 C530 0.950 . S
H521 C532 0.950 . S
H522 C534 0.950 . S
H523 C535 0.950 . S
C524 H516 0.950 . S
C524 C525 1.386 . S
C524 C526 1.391 . S
C525 C524 1.386 . S
C525 C529 1.393 . S
C526 H518 0.950 . S
C526 C524 1.391 . S
C526 C527 1.400 . S
C527 C526 1.400 . S
C527 C528 1.398 . S
C527 C533 1.491 . S
C528 H519 0.950 . S
C528 C527 1.398 . S
C528 C529 1.391 . S
C529 H517 0.950 . S
C529 C525 1.393 . S
C529 C528 1.391 . S
C530 H520 0.950 . S
C530 C531 1.386 . S
C530 C532 1.391 . S
C531 C530 1.386 . S
C531 C535 1.393 . S
C532 H521 0.950 . S
C532 C530 1.391 . S
C532 C533 1.400 . S
C533 C527 1.491 . S
C533 C532 1.400 . S
C533 C534 1.398 . S
C534 H522 0.950 . S
C534 C533 1.398 . S
C534 C535 1.391 . S
C535 H523 0.950 . S
C535 C531 1.393 . S
C535 C534 1.391 . S
H536 C544 0.950 . S
H537 C549 0.950 . S
H538 C546 0.950 . S
H539 C548 0.950 . S
H540 C550 0.950 . S
H541 C552 0.950 . S
H542 C554 0.950 . S
H543 C555 0.950 . S
C544 H536 0.950 . S
C544 C545 1.386 . S
C544 C546 1.391 . S
C545 C544 1.386 . S
C545 C549 1.393 . S
C546 H538 0.950 . S
C546 C544 1.391 . S
C546 C547 1.400 . S
C547 C546 1.400 . S
C547 C548 1.398 . S
C547 C553 1.491 . S
C548 H539 0.950 . S
C548 C547 1.398 . S
C548 C549 1.391 . S
C549 H537 0.950 . S
C549 C545 1.393 . S
C549 C548 1.391 . S
C550 H540 0.950 . S
C550 C551 1.386 . S
C550 C552 1.391 . S
C551 C550 1.386 . S
C551 C555 1.393 . S
C552 H541 0.950 . S
C552 C550 1.391 . S
C552 C553 1.400 . S
C553 C547 1.491 . S
C553 C552 1.400 . S
C553 C554 1.398 . S
C554 H542 0.950 . S
C554 C553 1.398 . S
C554 C555 1.391 . S
C555 H543 0.950 . S
C555 C551 1.393 . S
C555 C554 1.391 . S
H556 C564 0.950 . S
H557 C569 0.950 . S
H558 C566 0.950 . S
H559 C568 0.950 . S
H560 C570 0.950 . S
H561 C572 0.950 . S
H562 C574 0.950 . S
H563 C575 0.950 . S
C564 H556 0.950 . S
C564 C565 1.386 . S
C564 C566 1.391 . S
C565 C564 1.386 . S
C565 C569 1.393 . S
C566 H558 0.950 . S
C566 C564 1.391 . S
C566 C567 1.400 . S
C567 C566 1.400 . S
C567 C568 1.398 . S
C567 C573 1.491 . S
C568 H559 0.950 . S
C568 C567 1.398 . S
C568 C569 1.391 . S
C569 H557 0.950 . S
C569 C565 1.393 . S
C569 C568 1.391 . S
C570 H560 0.950 . S
C570 C571 1.386 . S
C570 C572 1.391 . S
C571 C570 1.386 . S
C571 C575 1.393 . S
C572 H561 0.950 . S
C572 C570 1.391 . S
C572 C573 1.400 . S
C573 C567 1.491 . S
C573 C572 1.400 . S
C573 C574 1.398 . S
C574 H562 0.950 . S
C574 C573 1.398 . S
C574 C575 1.391 . S
C575 H563 0.950 . S
C575 C571 1.393 . S
C575 C574 1.391 . S
H576 C584 0.950 . S
H577 C589 0.950 . S
H578 C586 0.950 . S
H579 C588 0.950 . S
H580 C590 0.950 . S
H581 C592 0.950 . S
H582 C594 0.950 . S
H583 C595 0.950 . S
C584 H576 0.950 . S
C584 C585 1.386 . S
C584 C586 1.391 . S
C585 C584 1.386 . S
C585 C589 1.393 . S
C586 H578 0.950 . S
C586 C584 1.391 . S
C586 C587 1.400 . S
C587 C586 1.400 . S
C587 C588 1.398 . S
C587 C593 1.491 . S
C588 H579 0.950 . S
C588 C587 1.398 . S
C588 C589 1.391 . S
C589 H577 0.950 . S
C589 C585 1.393 . S
C589 C588 1.391 . S
C590 H580 0.950 . S
C590 C591 1.386 . S
C590 C592 1.391 . S
C591 C590 1.386 . S
C591 C595 1.393 . S
C592 H581 0.950 . S
C592 C590 1.391 . S
C592 C593 1.400 . S
C593 C587 1.491 . S
C593 C592 1.400 . S
C593 C594 1.398 . S
C594 H582 0.950 . S
C594 C593 1.398 . S
C594 C595 1.391 . S
C595 H583 0.950 . S
C595 C591 1.393 . S
C595 C594 1.391 . S
H596 C604 0.950 . S
H597 C609 0.950 . S
H598 C606 0.950 . S
H599 C608 0.950 . S
H600 C610 0.950 . S
H601 C612 0.950 . S
H602 C614 0.950 . S
H603 C615 0.950 . S
C604 H596 0.950 . S
C604 C605 1.386 . S
C604 C606 1.391 . S
C605 C604 1.386 . S
C605 C609 1.393 . S
C606 H598 0.950 . S
C606 C604 1.391 . S
C606 C607 1.400 . S
C607 C606 1.400 . S
C607 C608 1.398 . S
C607 C613 1.491 . S
C608 H599 0.950 . S
C608 C607 1.398 . S
C608 C609 1.391 . S
C609 H597 0.950 . S
C609 C605 1.393 . S
C609 C608 1.391 . S
C610 H600 0.950 . S
C610 C611 1.386 . S
C610 C612 1.391 . S
C611 C610 1.386 . S
C611 C615 1.393 . S
C612 H601 0.950 . S
C612 C610 1.391 . S
C612 C613 1.400 . S
C613 C607 1.491 . S
C613 C612 1.400 . S
C613 C614 1.398 . S
C614 H602 0.950 . S
C614 C613 1.398 . S
C614 C615 1.391 . S
C615 H603 0.950 . S
C615 C611 1.393 . S
C615 C614 1.391 . S
H616 C624 0.950 . S
H617 C629 0.950 . S
H618 C626 0.950 . S
H619 C628 0.950 . S
H620 C630 0.950 . S
H621 C632 0.950 . S
H622 C634 0.950 . S
H623 C635 0.950 . S
C624 H616 0.950 . S
C624 C625 1.386 . S
C624 C626 1.391 . S
C625 C624 1.386 . S
C625 C629 1.393 . S
C626 H618 0.950 . S
C626 C624 1.391 . S
C626 C627 1.400 . S
C627 C626 1.400 . S
C627 C628 1.398 . S
C627 C633 1.491 . S
C628 H619 0.950 . S
C628 C627 1.398 . S
C628 C629 1.391 . S
C629 H617 0.950 . S
C629 C625 1.393 . S
C629 C628 1.391 . S
C630 H620 0.950 . S
C630 C631 1.386 . S
C630 C632 1.391 . S
C631 C630 1.386 . S
C631 C635 1.393 . S
C632 H621 0.950 . S
C632 C630 1.391 . S
C632 C633 1.400 . S
C633 C627 1.491 . S
C633 C632 1.400 . S
C633 C634 1.398 . S
C634 H622 0.950 . S
C634 C633 1.398 . S
C634 C635 1.391 . S
C635 H623 0.950 . S
C635 C631 1.393 . S
C635 C634 1.391 . S
H636 C644 0.950 . S
H637 C649 0.950 . S
H638 C646 0.950 . S
H639 C648 0.950 . S
H640 C650 0.950 . S
H641 C652 0.950 . S
H642 C654 0.950 . S
H643 C655 0.950 . S
C644 H636 0.950 . S
C644 C645 1.386 . S
C644 C646 1.391 . S
C645 C644 1.386 . S
C645 C649 1.393 . S
C646 H638 0.950 . S
C646 C644 1.391 . S
C646 C647 1.400 . S
C647 C646 1.400 . S
C647 C648 1.398 . S
C647 C653 1.491 . S
C648 H639 0.950 . S
C648 C647 1.398 . S
C648 C649 1.391 . S
C649 H637 0.950 . S
C649 C645 1.393 . S
C649 C648 1.391 . S
C650 H640 0.950 . S
C650 C651 1.386 . S
C650 C652 1.391 . S
C651 C650 1.386 . S
C651 C655 1.393 . S
C652 H641 0.950 . S
C652 C650 1.391 . S
C652 C653 1.400 . S
C653 C647 1.491 . S
C653 C652 1.400 . S
C653 C654 1.398 . S
C654 H642 0.950 . S
C654 C653 1.398 . S
C654 C655 1.391 . S
C655 H643 0.950 . S
C655 C651 1.393 . S
C655 C654 1.391 . S
H656 C664 0.950 . S
H657 C669 0.950 . S
H658 C666 0.950 . S
H659 C668 0.950 . S
H660 C670 0.950 . S
H661 C672 0.950 . S
H662 C674 0.950 . S
H663 C675 0.950 . S
C664 H656 0.950 . S
C664 C665 1.386 . S
C664 C666 1.391 . S
C665 C664 1.386 . S
C665 C669 1.393 . S
C666 H658 0.950 . S
C666 C664 1.391 . S
C666 C667 1.400 . S
C667 C666 1.400 . S
C667 C668 1.398 . S
C667 C673 1.491 . S
C668 H659 0.950 . S
C668 C667 1.398 . S
C668 C669 1.391 . S
C669 H657 0.950 . S
C669 C665 1.393 . S
C669 C668 1.391 . S
C670 H660 0.950 . S
C670 C671 1.386 . S
C670 C672 1.391 . S
C671 C670 1.386 . S
C671 C675 1.393 . S
C672 H661 0.950 . S
C672 C670 1.391 . S
C672 C673 1.400 . S
C673 C667 1.491 . S
C673 C672 1.400 . S
C673 C674 1.398 . S
C674 H662 0.950 . S
C674 C673 1.398 . S
C674 C675 1.391 . S
C675 H663 0.950 . S
C675 C671 1.393 . S
C675 C674 1.391 . S
H676 C684 0.950 . S
H677 C689 0.950 . S
H678 C686 0.950 . S
H679 C688 0.950 . S
H680 C690 0.950 . S
H681 C692 0.950 . S
H682 C694 0.950 . S
H683 C695 0.950 . S
C684 H676 0.950 . S
C684 C685 1.386 . S
C684 C686 1.391 . S
C685 C684 1.386 . S
C685 C689 1.393 . S
C686 H678 0.950 . S
C686 C684 1.391 . S
C686 C687 1.400 . S
C687 C686 1.400 . S
C687 C688 1.398 . S
C687 C693 1.491 . S
C688 H679 0.950 . S
C688 C687 1.398 . S
C688 C689 1.391 . S
C689 H677 0.950 . S
C689 C685 1.393 . S
C689 C688 1.391 . S
C690 H680 0.950 . S
C690 C691 1.386 . S
C690 C692 1.391 . S
C691 C690 1.386 . S
C691 C695 1.393 . S
C692 H681 0.950 . S
C692 C690 1.391 . S
C692 C693 1.400 . S
C693 C687 1.491 . S
C693 C692 1.400 . S
C693 C694 1.398 . S
C694 H682 0.950 . S
C694 C693 1.398 . S
C694 C695 1.391 . S
C695 H683 0.950 . S
C695 C691 1.393 . S
C695 C694 1.391 . S
H696 C704 0.950 . S
H697 C709 0.950 . S
H698 C706 0.950 . S
H699 C708 0.950 . S
H700 C710 0.950 . S
H701 C712 0.950 . S
H702 C714 0.950 . S
H703 C715 0.950 . S
C704 H696 0.950 . S
C704 C705 1.386 . S
C704 C706 1.391 . S
C705 C704 1.386 . S
C705 C709 1.393 . S
C706 H698 0.950 . S
C706 C704 1.391 . S
C706 C707 1.400 . S
C707 C706 1.400 . S
C707 C708 1.398 . S
C707 C713 1.491 . S
C708 H699 0.950 . S
C708 C707 1.398 . S
C708 C709 1.391 . S
C709 H697 0.950 . S
C709 C705 1.393 . S
C709 C708 1.391 . S
C710 H700 0.950 . S
C710 C711 1.386 . S
C710 C712 1.391 . S
C711 C710 1.386 . S
C711 C715 1.393 . S
C712 H701 0.950 . S
C712 C710 1.391 . S
C712 C713 1.400 . S
C713 C707 1.491 . S
C713 C712 1.400 . S
C713 C714 1.398 . S
C714 H702 0.950 . S
C714 C713 1.398 . S
C714 C715 1.391 . S
C715 H703 0.950 . S
C715 C711 1.393 . S
C715 C714 1.391 . S
H716 C724 0.950 . S
H717 C729 0.950 . S
H718 C726 0.950 . S
H719 C728 0.950 . S
H720 C730 0.950 . S
H721 C732 0.950 . S
H722 C734 0.950 . S
H723 C735 0.950 . S
C724 H716 0.950 . S
C724 C725 1.386 . S
C724 C726 1.391 . S
C725 C724 1.386 . S
C725 C729 1.393 . S
C726 H718 0.950 . S
C726 C724 1.391 . S
C726 C727 1.400 . S
C727 C726 1.400 . S
C727 C728 1.398 . S
C727 C733 1.491 . S
C728 H719 0.950 . S
C728 C727 1.398 . S
C728 C729 1.391 . S
C729 H717 0.950 . S
C729 C725 1.393 . S
C729 C728 1.391 . S
C730 H720 0.950 . S
C730 C731 1.386 . S
C730 C732 1.391 . S
C731 C730 1.386 . S
C731 C735 1.393 . S
C732 H721 0.950 . S
C732 C730 1.391 . S
C732 C733 1.400 . S
C733 C727 1.491 . S
C733 C732 1.400 . S
C733 C734 1.398 . S
C734 H722 0.950 . S
C734 C733 1.398 . S
C734 C735 1.391 . S
C735 H723 0.950 . S
C735 C731 1.393 . S
C735 C734 1.391 . S
H736 C744 0.950 . S
H737 C749 0.950 . S
H738 C746 0.950 . S
H739 C748 0.950 . S
H740 C750 0.950 . S
H741 C752 0.950 . S
H742 C754 0.950 . S
H743 C755 0.950 . S
C744 H736 0.950 . S
C744 C745 1.386 . S
C744 C746 1.391 . S
C745 C744 1.386 . S
C745 C749 1.393 . S
C746 H738 0.950 . S
C746 C744 1.391 . S
C746 C747 1.400 . S
C747 C746 1.400 . S
C747 C748 1.398 . S
C747 C753 1.491 . S
C748 H739 0.950 . S
C748 C747 1.398 . S
C748 C749 1.391 . S
C749 H737 0.950 . S
C749 C745 1.393 . S
C749 C748 1.391 . S
C750 H740 0.950 . S
C750 C751 1.386 . S
C750 C752 1.391 . S
C751 C750 1.386 . S
C751 C755 1.393 . S
C752 H741 0.950 . S
C752 C750 1.391 . S
C752 C753 1.400 . S
C753 C747 1.491 . S
C753 C752 1.400 . S
C753 C754 1.398 . S
C754 H742 0.950 . S
C754 C753 1.398 . S
C754 C755 1.391 . S
C755 H743 0.950 . S
C755 C751 1.393 . S
C755 C754 1.391 . S
H756 C764 0.950 . S
H757 C769 0.950 . S
H758 C766 0.950 . S
H759 C768 0.950 . S
H760 C770 0.950 . S
H761 C772 0.950 . S
H762 C774 0.950 . S
H763 C775 0.950 1_455 S
C764 H756 0.950 . S
C764 C765 1.386 . S
C764 C766 1.391 . S
C765 C764 1.386 . S
C765 C769 1.393 . S
C766 H758 0.950 . S
C766 C764 1.391 . S
C766 C767 1.400 . S
C767 C766 1.400 . S
C767 C768 1.398 . S
C767 C773 1.491 . S
C768 H759 0.950 . S
C768 C767 1.398 . S
C768 C769 1.391 . S
C769 H757 0.950 . S
C769 C765 1.393 . S
C769 C768 1.391 . S
C770 H760 0.950 . S
C770 C771 1.358 1_655 S
C770 C772 1.391 . S
C771 C770 1.358 1_455 S
C771 C775 1.384 1_455 S
C772 H761 0.950 . S
C772 C770 1.391 . S
C772 C773 1.400 . S
C773 C767 1.491 . S
C773 C772 1.400 . S
C773 C774 1.398 . S
C774 H762 0.950 . S
C774 C773 1.398 . S
C774 C775 1.391 . S
C775 H763 0.950 1_655 S
C775 C771 1.384 1_655 S
C775 C774 1.391 . S
H776 C784 0.950 . S
H777 C789 0.950 . S
H778 C786 0.950 . S
H779 C788 0.950 . S
H780 C790 0.950 . S
H781 C792 0.950 . S
H782 C794 0.950 . S
H783 C795 0.950 . S
C784 H776 0.950 . S
C784 C785 1.386 . S
C784 C786 1.391 . S
C785 C784 1.386 . S
C785 C789 1.393 . S
C786 H778 0.950 . S
C786 C784 1.391 . S
C786 C787 1.400 . S
C787 C786 1.400 . S
C787 C788 1.398 . S
C787 C793 1.491 . S
C788 H779 0.950 . S
C788 C787 1.398 . S
C788 C789 1.391 . S
C789 H777 0.950 . S
C789 C785 1.393 . S
C789 C788 1.391 . S
C790 H780 0.950 . S
C790 C791 1.386 . S
C790 C792 1.391 . S
C791 C790 1.386 . S
C791 C795 1.393 . S
C792 H781 0.950 . S
C792 C790 1.391 . S
C792 C793 1.400 . S
C793 C787 1.491 . S
C793 C792 1.400 . S
C793 C794 1.398 . S
C794 H782 0.950 . S
C794 C793 1.398 . S
C794 C795 1.391 . S
C795 H783 0.950 . S
C795 C791 1.393 . S
C795 C794 1.391 . S
H796 C804 0.950 . S
H797 C809 0.950 . S
H798 C806 0.950 . S
H799 C808 0.950 . S
H800 C810 0.950 . S
H801 C812 0.950 . S
H802 C814 0.950 . S
H803 C815 0.950 . S
C804 H796 0.950 . S
C804 C805 1.386 . S
C804 C806 1.391 . S
C805 C804 1.386 . S
C805 C809 1.393 . S
C806 H798 0.950 . S
C806 C804 1.391 . S
C806 C807 1.400 . S
C807 C806 1.400 . S
C807 C808 1.398 . S
C807 C813 1.491 . S
C808 H799 0.950 . S
C808 C807 1.398 . S
C808 C809 1.391 . S
C809 H797 0.950 . S
C809 C805 1.393 . S
C809 C808 1.391 . S
C810 H800 0.950 . S
C810 C811 1.386 . S
C810 C812 1.391 . S
C811 C810 1.386 . S
C811 C815 1.393 . S
C812 H801 0.950 . S
C812 C810 1.391 . S
C812 C813 1.400 . S
C813 C807 1.491 . S
C813 C812 1.400 . S
C813 C814 1.398 . S
C814 H802 0.950 . S
C814 C813 1.398 . S
C814 C815 1.391 . S
C815 H803 0.950 . S
C815 C811 1.393 . S
C815 C814 1.391 . S
H816 C824 0.950 . S
H817 C829 0.950 . S
H818 C826 0.950 . S
H819 C828 0.950 . S
H820 C830 0.950 . S
H821 C832 0.950 . S
H822 C834 0.950 . S
H823 C835 0.950 . S
C824 H816 0.950 . S
C824 C825 1.386 . S
C824 C826 1.391 . S
C825 C824 1.386 . S
C825 C829 1.393 . S
C826 H818 0.950 . S
C826 C824 1.391 . S
C826 C827 1.400 . S
C827 C826 1.400 . S
C827 C828 1.398 . S
C827 C833 1.491 . S
C828 H819 0.950 . S
C828 C827 1.398 . S
C828 C829 1.391 . S
C829 H817 0.950 . S
C829 C825 1.393 . S
C829 C828 1.391 . S
C830 H820 0.950 . S
C830 C831 1.386 . S
C830 C832 1.391 . S
C831 C830 1.386 . S
C831 C835 1.393 . S
C832 H821 0.950 . S
C832 C830 1.391 . S
C832 C833 1.400 . S
C833 C827 1.491 . S
C833 C832 1.400 . S
C833 C834 1.398 . S
C834 H822 0.950 . S
C834 C833 1.398 . S
C834 C835 1.391 . S
C835 H823 0.950 . S
C835 C831 1.393 . S
C835 C834 1.391 . S
H836 C844 0.950 . S
H837 C849 0.950 . S
H838 C846 0.950 . S
H839 C848 0.950 . S
H840 C850 0.950 . S
H841 C852 0.950 . S
H842 C854 0.950 . S
H843 C855 0.950 . S
C844 H836 0.950 . S
C844 C845 1.386 . S
C844 C846 1.391 . S
C845 C844 1.386 . S
C845 C849 1.393 . S
C846 H838 0.950 . S
C846 C844 1.391 . S
C846 C847 1.400 . S
C847 C846 1.400 . S
C847 C848 1.398 . S
C847 C853 1.491 . S
C848 H839 0.950 . S
C848 C847 1.398 . S
C848 C849 1.391 . S
C849 H837 0.950 . S
C849 C845 1.393 . S
C849 C848 1.391 . S
C850 H840 0.950 . S
C850 C851 1.386 . S
C850 C852 1.391 . S
C851 C850 1.386 . S
C851 C855 1.393 . S
C852 H841 0.950 . S
C852 C850 1.391 . S
C852 C853 1.400 . S
C853 C847 1.491 . S
C853 C852 1.400 . S
C853 C854 1.398 . S
C854 H842 0.950 . S
C854 C853 1.398 . S
C854 C855 1.391 . S
C855 H843 0.950 . S
C855 C851 1.393 . S
C855 C854 1.391 . S
H856 C864 0.950 . S
H857 C869 0.950 . S
H858 C866 0.950 . S
H859 C868 0.950 . S
H860 C870 0.950 . S
H861 C872 0.950 . S
H862 C874 0.950 . S
H863 C875 0.950 . S
C864 H856 0.950 . S
C864 C865 1.386 . S
C864 C866 1.391 . S
C865 C864 1.386 . S
C865 C869 1.393 . S
C866 H858 0.950 . S
C866 C864 1.391 . S
C866 C867 1.400 . S
C867 C866 1.400 . S
C867 C868 1.398 . S
C867 C873 1.491 . S
C868 H859 0.950 . S
C868 C867 1.398 . S
C868 C869 1.391 . S
C869 H857 0.950 . S
C869 C865 1.393 . S
C869 C868 1.391 . S
C870 H860 0.950 . S
C870 C871 1.386 . S
C870 C872 1.391 . S
C871 C870 1.386 . S
C871 C875 1.393 . S
C872 H861 0.950 . S
C872 C870 1.391 . S
C872 C873 1.400 . S
C873 C867 1.491 . S
C873 C872 1.400 . S
C873 C874 1.398 . S
C874 H862 0.950 . S
C874 C873 1.398 . S
C874 C875 1.391 . S
C875 H863 0.950 . S
C875 C871 1.393 . S
C875 C874 1.391 . S
H876 C884 0.950 . S
H877 C889 0.950 . S
H878 C886 0.950 . S
H879 C888 0.950 . S
H880 C890 0.950 . S
H881 C892 0.950 . S
H882 C894 0.950 . S
H883 C895 0.950 . S
C884 H876 0.950 . S
C884 C885 1.386 . S
C884 C886 1.391 1_455 S
C885 C884 1.386 . S
C885 C889 1.393 1_455 S
C886 H878 0.950 . S
C886 C884 1.391 1_655 S
C886 C887 1.400 . S
C887 C886 1.400 . S
C887 C888 1.398 . S
C887 C893 1.491 . S
C888 H879 0.950 . S
C888 C887 1.398 . S
C888 C889 1.391 . S
C889 H877 0.950 . S
C889 C885 1.393 1_655 S
C889 C888 1.391 . S
C890 H880 0.950 . S
C890 C891 1.386 . S
C890 C892 1.391 . S
C891 C890 1.386 . S
C891 C895 1.393 . S
C892 H881 0.950 . S
C892 C890 1.391 . S
C892 C893 1.400 . S
C893 C887 1.491 . S
C893 C892 1.400 . S
C893 C894 1.398 . S
C894 H882 0.950 . S
C894 C893 1.398 . S
C894 C895 1.391 . S
C895 H883 0.950 . S
C895 C891 1.393 . S
C895 C894 1.391 . S
H896 C904 0.950 . S
H897 C909 0.950 . S
H898 C906 0.950 . S
H899 C908 0.950 . S
H900 C910 0.950 . S
H901 C912 0.950 . S
H902 C914 0.950 . S
H903 C915 0.950 . S
C904 H896 0.950 . S
C904 C905 1.386 . S
C904 C906 1.391 . S
C905 C904 1.386 . S
C905 C909 1.393 . S
C906 H898 0.950 . S
C906 C904 1.391 . S
C906 C907 1.400 . S
C907 C906 1.400 . S
C907 C908 1.398 . S
C907 C913 1.491 . S
C908 H899 0.950 . S
C908 C907 1.398 . S
C908 C909 1.391 . S
C909 H897 0.950 . S
C909 C905 1.393 . S
C909 C908 1.391 . S
C910 H900 0.950 . S
C910 C911 1.386 . S
C910 C912 1.391 . S
C911 C910 1.386 . S
C911 C915 1.393 . S
C912 H901 0.950 . S
C912 C910 1.391 . S
C912 C913 1.400 . S
C913 C907 1.491 . S
C913 C912 1.400 . S
C913 C914 1.398 . S
C914 H902 0.950 . S
C914 C913 1.398 . S
C914 C915 1.391 . S
C915 H903 0.950 . S
C915 C911 1.393 . S
C915 C914 1.391 . S
H916 C924 0.950 . S
H917 C929 0.932 1_655 S
H918 C926 0.950 . S
H919 C928 0.950 . S
H920 C930 0.950 . S
H921 C932 0.950 . S
H922 C934 0.950 . S
H923 C935 0.950 . S
C924 H916 0.950 . S
C924 C925 1.345 1_455 S
C924 C926 1.391 . S
C925 C924 1.345 1_655 S
C925 C929 1.390 1_655 S
C926 H918 0.950 . S
C926 C924 1.391 . S
C926 C927 1.400 . S
C927 C926 1.400 . S
C927 C928 1.398 . S
C927 C933 1.491 . S
C928 H919 0.950 . S
C928 C927 1.398 . S
C928 C929 1.410 . S
C929 H917 0.932 1_455 S
C929 C925 1.390 1_455 S
C929 C928 1.410 . S
C930 H920 0.950 . S
C930 C931 1.386 . S
C930 C932 1.391 . S
C931 C930 1.386 . S
C931 C935 1.393 . S
C932 H921 0.950 . S
C932 C930 1.391 . S
C932 C933 1.400 . S
C933 C927 1.491 . S
C933 C932 1.400 . S
C933 C934 1.398 . S
C934 H922 0.950 . S
C934 C933 1.398 . S
C934 C935 1.391 . S
C935 H923 0.950 . S
C935 C931 1.393 . S
C935 C934 1.391 . S
H936 C944 0.950 . S
H937 C949 0.950 . S
H938 C946 0.950 . S
H939 C948 0.950 . S
H940 C950 0.950 . S
H941 C952 0.950 . S
H942 C954 0.950 . S
H943 C955 0.950 . S
C944 H936 0.950 . S
C944 C945 1.386 . S
C944 C946 1.391 . S
C945 C944 1.386 . S
C945 C949 1.393 . S
C946 H938 0.950 . S
C946 C944 1.391 . S
C946 C947 1.400 . S
C947 C946 1.400 . S
C947 C948 1.398 . S
C947 C953 1.491 . S
C948 H939 0.950 . S
C948 C947 1.398 . S
C948 C949 1.391 . S
C949 H937 0.950 . S
C949 C945 1.393 . S
C949 C948 1.391 . S
C950 H940 0.950 . S
C950 C951 1.386 . S
C950 C952 1.391 . S
C951 C950 1.386 . S
C951 C955 1.393 . S
C952 H941 0.950 . S
C952 C950 1.391 . S
C952 C953 1.400 . S
C953 C947 1.491 . S
C953 C952 1.400 . S
C953 C954 1.398 . S
C954 H942 0.950 . S
C954 C953 1.398 . S
C954 C955 1.391 . S
C955 H943 0.950 . S
C955 C951 1.393 . S
C955 C954 1.391 . S
H956 C964 0.950 . S
H957 C969 0.950 . S
H958 C966 0.950 . S
H959 C968 0.950 . S
H960 C970 0.950 . S
H961 C972 0.950 . S
H962 C974 0.950 . S
H963 C975 0.950 . S
C964 H956 0.950 . S
C964 C965 1.386 . S
C964 C966 1.391 . S
C965 C964 1.386 . S
C965 C969 1.393 . S
C966 H958 0.950 . S
C966 C964 1.391 . S
C966 C967 1.400 . S
C967 C966 1.400 . S
C967 C968 1.398 . S
C967 C973 1.491 . S
C968 H959 0.950 . S
C968 C967 1.398 . S
C968 C969 1.391 . S
C969 H957 0.950 . S
C969 C965 1.393 . S
C969 C968 1.391 . S
C970 H960 0.950 . S
C970 C971 1.386 . S
C970 C972 1.391 . S
C971 C970 1.386 . S
C971 C975 1.393 . S
C972 H961 0.950 . S
C972 C970 1.391 . S
C972 C973 1.400 . S
C973 C967 1.491 . S
C973 C972 1.400 . S
C973 C974 1.398 . S
C974 H962 0.950 . S
C974 C973 1.398 . S
C974 C975 1.391 . S
C975 H963 0.950 . S
C975 C971 1.393 . S
C975 C974 1.391 . S
H976 C984 0.950 . S
H977 C989 0.950 . S
H978 C986 0.950 . S
H979 C988 0.950 . S
H980 C990 0.950 . S
H981 C992 0.950 . S
H982 C994 0.950 . S
H983 C995 0.950 . S
C984 H976 0.950 . S
C984 C985 1.386 . S
C984 C986 1.391 . S
C985 C984 1.386 . S
C985 C989 1.393 . S
C986 H978 0.950 . S
C986 C984 1.391 . S
C986 C987 1.400 . S
C987 C986 1.400 . S
C987 C988 1.398 . S
C987 C993 1.491 . S
C988 H979 0.950 . S
C988 C987 1.398 . S
C988 C989 1.391 . S
C989 H977 0.950 . S
C989 C985 1.393 . S
C989 C988 1.391 . S
C990 H980 0.950 . S
C990 C991 1.386 . S
C990 C992 1.391 . S
C991 C990 1.386 . S
C991 C995 1.393 . S
C992 H981 0.950 . S
C992 C990 1.391 . S
C992 C993 1.400 . S
C993 C987 1.491 . S
C993 C992 1.400 . S
C993 C994 1.398 . S
C994 H982 0.950 . S
C994 C993 1.398 . S
C994 C995 1.391 . S
C995 H983 0.950 . S
C995 C991 1.393 . S
C995 C994 1.391 . S
H996 C1004 0.950 . S
H997 C1009 0.950 . S
H998 C1006 0.950 . S
H999 C1008 0.950 . S
H1000 C1010 0.950 . S
H1001 C1012 0.950 . S
H1002 C1014 0.950 . S
H1003 C1015 0.950 . S
C1004 H996 0.950 . S
C1004 C1005 1.386 . S
C1004 C1006 1.391 . S
C1005 C1004 1.386 . S
C1005 C1009 1.393 . S
C1006 H998 0.950 . S
C1006 C1004 1.391 . S
C1006 C1007 1.400 . S
C1007 C1006 1.400 . S
C1007 C1008 1.398 . S
C1007 C1013 1.491 . S
C1008 H999 0.950 . S
C1008 C1007 1.398 . S
C1008 C1009 1.391 . S
C1009 H997 0.950 . S
C1009 C1005 1.393 . S
C1009 C1008 1.391 . S
C1010 H1000 0.950 . S
C1010 C1011 1.386 . S
C1010 C1012 1.391 . S
C1011 C1010 1.386 . S
C1011 C1015 1.393 . S
C1012 H1001 0.950 . S
C1012 C1010 1.391 . S
C1012 C1013 1.400 . S
C1013 C1007 1.491 . S
C1013 C1012 1.400 . S
C1013 C1014 1.398 . S
C1014 H1002 0.950 . S
C1014 C1013 1.398 . S
C1014 C1015 1.391 . S
C1015 H1003 0.950 . S
C1015 C1011 1.393 . S
C1015 C1014 1.391 . S
H1016 C1024 0.950 . S
H1017 C1029 0.950 . S
H1018 C1026 0.950 . S
H1019 C1028 0.950 . S
H1020 C1030 0.950 . S
H1021 C1032 0.950 . S
H1022 C1034 0.950 . S
H1023 C1035 0.950 . S
C1024 H1016 0.950 . S
C1024 C1025 1.386 . S
C1024 C1026 1.391 . S
C1025 C1024 1.386 . S
C1025 C1029 1.393 . S
C1026 H1018 0.950 . S
C1026 C1024 1.391 . S
C1026 C1027 1.400 . S
C1027 C1026 1.400 . S
C1027 C1028 1.398 . S
C1027 C1033 1.491 . S
C1028 H1019 0.950 . S
C1028 C1027 1.398 . S
C1028 C1029 1.391 . S
C1029 H1017 0.950 . S
C1029 C1025 1.393 . S
C1029 C1028 1.391 . S
C1030 H1020 0.950 . S
C1030 C1031 1.386 . S
C1030 C1032 1.391 . S
C1031 C1030 1.386 . S
C1031 C1035 1.393 . S
C1032 H1021 0.950 . S
C1032 C1030 1.391 . S
C1032 C1033 1.400 . S
C1033 C1027 1.491 . S
C1033 C1032 1.400 . S
C1033 C1034 1.398 . S
C1034 H1022 0.950 . S
C1034 C1033 1.398 . S
C1034 C1035 1.391 . S
C1035 H1023 0.950 . S
C1035 C1031 1.393 . S
C1035 C1034 1.391 . S
H1036 C1044 0.950 . S
H1037 C1049 0.950 . S
H1038 C1046 0.950 . S
H1039 C1048 0.950 . S
H1040 C1050 0.950 . S
H1041 C1052 0.950 . S
H1042 C1054 0.950 . S
H1043 C1055 0.937 1_655 S
C1044 H1036 0.950 . S
C1044 C1045 1.386 . S
C1044 C1046 1.391 . S
C1045 C1044 1.386 . S
C1045 C1049 1.393 . S
C1046 H1038 0.950 . S
C1046 C1044 1.391 . S
C1046 C1047 1.400 . S
C1047 C1046 1.400 . S
C1047 C1048 1.398 . S
C1047 C1053 1.491 . S
C1048 H1039 0.950 . S
C1048 C1047 1.398 . S
C1048 C1049 1.391 . S
C1049 H1037 0.950 . S
C1049 C1045 1.393 . S
C1049 C1048 1.391 . S
C1050 H1040 0.950 . S
C1050 C1051 1.386 1_455 S
C1050 C1052 1.391 . S
C1051 C1050 1.386 1_655 S
C1051 C1055 1.391 1_655 S
C1052 H1041 0.950 . S
C1052 C1050 1.391 . S
C1052 C1053 1.400 . S
C1053 C1047 1.491 . S
C1053 C1052 1.400 . S
C1053 C1054 1.398 . S
C1054 H1042 0.950 . S
C1054 C1053 1.398 . S
C1054 C1055 1.405 . S
C1055 H1043 0.937 1_455 S
C1055 C1051 1.391 1_455 S
C1055 C1054 1.405 . S
H1056 C1064 0.950 . S
H1057 C1069 0.950 . S
H1058 C1066 0.950 . S
H1059 C1068 0.950 . S
H1060 C1070 0.950 . S
H1061 C1072 0.950 . S
H1062 C1074 0.950 . S
H1063 C1075 0.950 . S
C1064 H1056 0.950 . S
C1064 C1065 1.386 . S
C1064 C1066 1.391 . S
C1065 C1064 1.386 . S
C1065 C1069 1.393 . S
C1066 H1058 0.950 . S
C1066 C1064 1.391 . S
C1066 C1067 1.400 . S
C1067 C1066 1.400 . S
C1067 C1068 1.398 . S
C1067 C1073 1.491 . S
C1068 H1059 0.950 . S
C1068 C1067 1.398 . S
C1068 C1069 1.391 . S
C1069 H1057 0.950 . S
C1069 C1065 1.393 . S
C1069 C1068 1.391 . S
C1070 H1060 0.950 . S
C1070 C1071 1.386 . S
C1070 C1072 1.391 . S
C1071 C1070 1.386 . S
C1071 C1075 1.393 . S
C1072 H1061 0.950 . S
C1072 C1070 1.391 . S
C1072 C1073 1.400 . S
C1073 C1067 1.491 . S
C1073 C1072 1.400 . S
C1073 C1074 1.398 . S
C1074 H1062 0.950 . S
C1074 C1073 1.398 . S
C1074 C1075 1.391 . S
C1075 H1063 0.950 . S
C1075 C1071 1.393 . S
C1075 C1074 1.391 . S
H1076 C1084 0.950 . S
H1077 C1089 0.950 . S
H1078 C1086 0.950 . S
H1079 C1088 0.950 . S
H1080 C1090 0.950 . S
H1081 C1092 0.950 . S
H1082 C1094 0.950 . S
H1083 C1095 0.950 . S
C1084 H1076 0.950 . S
C1084 C1085 1.386 . S
C1084 C1086 1.391 . S
C1085 C1084 1.386 . S
C1085 C1089 1.393 . S
C1086 H1078 0.950 . S
C1086 C1084 1.391 . S
C1086 C1087 1.400 . S
C1087 C1086 1.400 . S
C1087 C1088 1.398 . S
C1087 C1093 1.491 . S
C1088 H1079 0.950 . S
C1088 C1087 1.398 . S
C1088 C1089 1.391 . S
C1089 H1077 0.950 . S
C1089 C1085 1.393 . S
C1089 C1088 1.391 . S
C1090 H1080 0.950 . S
C1090 C1091 1.386 . S
C1090 C1092 1.391 . S
C1091 C1090 1.386 . S
C1091 C1095 1.393 . S
C1092 H1081 0.950 . S
C1092 C1090 1.391 . S
C1092 C1093 1.400 . S
C1093 C1087 1.491 . S
C1093 C1092 1.400 . S
C1093 C1094 1.398 . S
C1094 H1082 0.950 . S
C1094 C1093 1.398 . S
C1094 C1095 1.391 . S
C1095 H1083 0.950 . S
C1095 C1091 1.393 . S
C1095 C1094 1.391 . S
H1096 C1104 0.950 . S
H1097 C1109 0.950 . S
H1098 C1106 0.950 . S
H1099 C1108 0.950 . S
H1100 C1110 0.950 . S
H1101 C1112 0.950 . S
H1102 C1114 0.950 . S
H1103 C1115 0.950 . S
C1104 H1096 0.950 . S
C1104 C1105 1.386 . S
C1104 C1106 1.391 . S
C1105 C1104 1.386 . S
C1105 C1109 1.393 . S
C1106 H1098 0.950 . S
C1106 C1104 1.391 . S
C1106 C1107 1.400 . S
C1107 C1106 1.400 . S
C1107 C1108 1.398 . S
C1107 C1113 1.491 . S
C1108 H1099 0.950 . S
C1108 C1107 1.398 . S
C1108 C1109 1.391 . S
C1109 H1097 0.950 . S
C1109 C1105 1.393 . S
C1109 C1108 1.391 . S
C1110 H1100 0.950 . S
C1110 C1111 1.386 . S
C1110 C1112 1.391 . S
C1111 C1110 1.386 . S
C1111 C1115 1.393 . S
C1112 H1101 0.950 . S
C1112 C1110 1.391 . S
C1112 C1113 1.400 . S
C1113 C1107 1.491 . S
C1113 C1112 1.400 . S
C1113 C1114 1.398 . S
C1114 H1102 0.950 . S
C1114 C1113 1.398 . S
C1114 C1115 1.391 . S
C1115 H1103 0.950 . S
C1115 C1111 1.393 . S
C1115 C1114 1.391 . S
H1116 C1124 0.950 . S
H1117 C1129 0.950 . S
H1118 C1126 0.950 . S
H1119 C1128 0.950 . S
H1120 C1130 0.950 . S
H1121 C1132 0.950 . S
H1122 C1134 0.950 . S
H1123 C1135 0.950 . S
C1124 H1116 0.950 . S
C1124 C1125 1.386 . S
C1124 C1126 1.391 . S
C1125 C1124 1.386 . S
C1125 C1129 1.393 . S
C1126 H1118 0.950 . S
C1126 C1124 1.391 . S
C1126 C1127 1.400 . S
C1127 C1126 1.400 . S
C1127 C1128 1.398 . S
C1127 C1133 1.491 . S
C1128 H1119 0.950 . S
C1128 C1127 1.398 . S
C1128 C1129 1.391 . S
C1129 H1117 0.950 . S
C1129 C1125 1.393 . S
C1129 C1128 1.391 . S
C1130 H1120 0.950 . S
C1130 C1131 1.386 1_455 S
C1130 C1132 1.391 . S
C1131 C1130 1.386 1_655 S
C1131 C1135 1.393 . S
C1132 H1121 0.950 . S
C1132 C1130 1.391 . S
C1132 C1133 1.400 . S
C1133 C1127 1.491 . S
C1133 C1132 1.400 . S
C1133 C1134 1.398 . S
C1134 H1122 0.950 . S
C1134 C1133 1.398 . S
C1134 C1135 1.391 1_455 S
C1135 H1123 0.950 . S
C1135 C1131 1.393 . S
C1135 C1134 1.391 1_655 S
H1136 C1144 0.950 . S
H1137 C1149 0.950 . S
H1138 C1146 0.950 . S
H1139 C1148 0.950 . S
H1140 C1150 0.950 . S
H1141 C1152 0.950 . S
H1142 C1154 0.950 . S
H1143 C1155 0.950 . S
C1144 H1136 0.950 . S
C1144 C1145 1.386 . S
C1144 C1146 1.391 . S
C1145 C1144 1.386 . S
C1145 C1149 1.393 . S
C1146 H1138 0.950 . S
C1146 C1144 1.391 . S
C1146 C1147 1.400 . S
C1147 C1146 1.400 . S
C1147 C1148 1.398 . S
C1147 C1153 1.491 . S
C1148 H1139 0.950 . S
C1148 C1147 1.398 . S
C1148 C1149 1.391 . S
C1149 H1137 0.950 . S
C1149 C1145 1.393 . S
C1149 C1148 1.391 . S
C1150 H1140 0.950 . S
C1150 C1151 1.386 . S
C1150 C1152 1.391 . S
C1151 C1150 1.386 . S
C1151 C1155 1.393 . S
C1152 H1141 0.950 . S
C1152 C1150 1.391 . S
C1152 C1153 1.400 . S
C1153 C1147 1.491 . S
C1153 C1152 1.400 . S
C1153 C1154 1.398 . S
C1154 H1142 0.950 . S
C1154 C1153 1.398 . S
C1154 C1155 1.391 . S
C1155 H1143 0.950 . S
C1155 C1151 1.393 . S
C1155 C1154 1.391 . S
H1156 C1164 0.950 . S
H1157 C1169 0.950 . S
H1158 C1166 0.950 . S
H1159 C1168 0.950 . S
H1160 C1170 0.950 . S
H1161 C1172 0.950 . S
H1162 C1174 0.950 . S
H1163 C1175 0.950 . S
C1164 H1156 0.950 . S
C1164 C1165 1.386 1_455 S
C1164 C1166 1.391 . S
C1165 C1164 1.386 1_655 S
C1165 C1169 1.393 . S
C1166 H1158 0.950 . S
C1166 C1164 1.391 . S
C1166 C1167 1.400 . S
C1167 C1166 1.400 . S
C1167 C1168 1.398 . S
C1167 C1173 1.491 . S
C1168 H1159 0.950 . S
C1168 C1167 1.398 . S
C1168 C1169 1.391 1_455 S
C1169 H1157 0.950 . S
C1169 C1165 1.393 . S
C1169 C1168 1.391 1_655 S
C1170 H1160 0.950 . S
C1170 C1171 1.386 . S
C1170 C1172 1.391 . S
C1171 C1170 1.386 . S
C1171 C1175 1.393 . S
C1172 H1161 0.950 . S
C1172 C1170 1.391 . S
C1172 C1173 1.400 . S
C1173 C1167 1.491 . S
C1173 C1172 1.400 . S
C1173 C1174 1.398 . S
C1174 H1162 0.950 . S
C1174 C1173 1.398 . S
C1174 C1175 1.391 . S
C1175 H1163 0.950 . S
C1175 C1171 1.393 . S
C1175 C1174 1.391 . S
H1176 C1184 0.950 . S
H1177 C1189 0.950 . S
H1178 C1186 0.950 . S
H1179 C1188 0.950 . S
H1180 C1190 0.950 . S
H1181 C1192 0.950 . S
H1182 C1194 0.950 . S
H1183 C1195 0.950 . S
C1184 H1176 0.950 . S
C1184 C1185 1.386 . S
C1184 C1186 1.391 . S
C1185 C1184 1.386 . S
C1185 C1189 1.393 . S
C1186 H1178 0.950 . S
C1186 C1184 1.391 . S
C1186 C1187 1.400 . S
C1187 C1186 1.400 . S
C1187 C1188 1.398 . S
C1187 C1193 1.491 . S
C1188 H1179 0.950 . S
C1188 C1187 1.398 . S
C1188 C1189 1.391 . S
C1189 H1177 0.950 . S
C1189 C1185 1.393 . S
C1189 C1188 1.391 . S
C1190 H1180 0.950 . S
C1190 C1191 1.386 . S
C1190 C1192 1.391 . S
C1191 C1190 1.386 . S
C1191 C1195 1.393 . S
C1192 H1181 0.950 . S
C1192 C1190 1.391 . S
C1192 C1193 1.400 . S
C1193 C1187 1.491 . S
C1193 C1192 1.400 . S
C1193 C1194 1.398 . S
C1194 H1182 0.950 . S
C1194 C1193 1.398 . S
C1194 C1195 1.391 . S
C1195 H1183 0.950 . S
C1195 C1191 1.393 . S
C1195 C1194 1.391 . S
H1196 C1204 0.950 . S
H1197 C1209 0.950 . S
H1198 C1206 0.950 . S
H1199 C1208 0.950 . S
H1200 C1210 0.950 . S
H1201 C1212 0.950 . S
H1202 C1214 0.950 . S
H1203 C1215 0.950 . S
C1204 H1196 0.950 . S
C1204 C1205 1.386 . S
C1204 C1206 1.391 . S
C1205 C1204 1.386 . S
C1205 C1209 1.393 . S
C1206 H1198 0.950 . S
C1206 C1204 1.391 . S
C1206 C1207 1.400 . S
C1207 C1206 1.400 . S
C1207 C1208 1.398 . S
C1207 C1213 1.491 . S
C1208 H1199 0.950 . S
C1208 C1207 1.398 . S
C1208 C1209 1.391 . S
C1209 H1197 0.950 . S
C1209 C1205 1.393 . S
C1209 C1208 1.391 . S
C1210 H1200 0.950 . S
C1210 C1211 1.386 . S
C1210 C1212 1.391 . S
C1211 C1210 1.386 . S
C1211 C1215 1.393 . S
C1212 H1201 0.950 . S
C1212 C1210 1.391 . S
C1212 C1213 1.400 . S
C1213 C1207 1.491 . S
C1213 C1212 1.400 . S
C1213 C1214 1.398 . S
C1214 H1202 0.950 . S
C1214 C1213 1.398 . S
C1214 C1215 1.391 . S
C1215 H1203 0.950 . S
C1215 C1211 1.393 . S
C1215 C1214 1.391 . S
H1216 C1224 0.950 . S
H1217 C1229 0.950 . S
H1218 C1226 0.950 . S
H1219 C1228 0.950 . S
H1220 C1230 0.950 . S
H1221 C1232 0.950 . S
H1222 C1234 0.950 . S
H1223 C1235 0.950 . S
C1224 H1216 0.950 . S
C1224 C1225 1.386 . S
C1224 C1226 1.391 . S
C1225 C1224 1.386 . S
C1225 C1229 1.393 . S
C1226 H1218 0.950 . S
C1226 C1224 1.391 . S
C1226 C1227 1.400 . S
C1227 C1226 1.400 . S
C1227 C1228 1.398 . S
C1227 C1233 1.491 . S
C1228 H1219 0.950 . S
C1228 C1227 1.398 . S
C1228 C1229 1.391 . S
C1229 H1217 0.950 . S
C1229 C1225 1.393 . S
C1229 C1228 1.391 . S
C1230 H1220 0.950 . S
C1230 C1231 1.386 . S
C1230 C1232 1.391 . S
C1231 C1230 1.386 . S
C1231 C1235 1.393 . S
C1232 H1221 0.950 . S
C1232 C1230 1.391 . S
C1232 C1233 1.400 . S
C1233 C1227 1.491 . S
C1233 C1232 1.400 . S
C1233 C1234 1.398 . S
C1234 H1222 0.950 . S
C1234 C1233 1.398 . S
C1234 C1235 1.391 . S
C1235 H1223 0.950 . S
C1235 C1231 1.393 . S
C1235 C1234 1.391 . S
H1236 C1244 0.950 . S
H1237 C1249 0.950 . S
H1238 C1246 0.950 . S
H1239 C1248 0.950 . S
H1240 C1250 0.950 . S
H1241 C1252 0.950 . S
H1242 C1254 0.950 . S
H1243 C1255 0.950 . S
C1244 H1236 0.950 . S
C1244 C1245 1.386 . S
C1244 C1246 1.391 . S
C1245 C1244 1.386 . S
C1245 C1249 1.393 . S
C1246 H1238 0.950 . S
C1246 C1244 1.391 . S
C1246 C1247 1.400 . S
C1247 C1246 1.400 . S
C1247 C1248 1.398 . S
C1247 C1253 1.491 . S
C1248 H1239 0.950 . S
C1248 C1247 1.398 . S
C1248 C1249 1.391 . S
C1249 H1237 0.950 . S
C1249 C1245 1.393 . S
C1249 C1248 1.391 . S
C1250 H1240 0.950 . S
C1250 C1251 1.386 . S
C1250 C1252 1.391 . S
C1251 C1250 1.386 . S
C1251 C1255 1.393 . S
C1252 H1241 0.950 . S
C1252 C1250 1.391 . S
C1252 C1253 1.400 . S
C1253 C1247 1.491 . S
C1253 C1252 1.400 . S
C1253 C1254 1.398 . S
C1254 H1242 0.950 . S
C1254 C1253 1.398 . S
C1254 C1255 1.391 . S
C1255 H1243 0.950 . S
C1255 C1251 1.393 . S
C1255 C1254 1.391 . S
H1256 C1264 0.950 . S
H1257 C1269 0.950 . S
H1258 C1266 0.950 . S
H1259 C1268 0.950 . S
H1260 C1270 0.950 . S
H1261 C1272 0.950 . S
H1262 C1274 0.950 . S
H1263 C1275 0.950 . S
C1264 H1256 0.950 . S
C1264 C1265 1.386 . S
C1264 C1266 1.391 . S
C1265 C1264 1.386 . S
C1265 C1269 1.393 . S
C1266 H1258 0.950 . S
C1266 C1264 1.391 . S
C1266 C1267 1.400 . S
C1267 C1266 1.400 . S
C1267 C1268 1.398 . S
C1267 C1273 1.491 . S
C1268 H1259 0.950 . S
C1268 C1267 1.398 . S
C1268 C1269 1.391 . S
C1269 H1257 0.950 . S
C1269 C1265 1.393 . S
C1269 C1268 1.391 . S
C1270 H1260 0.950 . S
C1270 C1271 1.386 . S
C1270 C1272 1.391 . S
C1271 C1270 1.386 . S
C1271 C1275 1.393 . S
C1272 H1261 0.950 . S
C1272 C1270 1.391 . S
C1272 C1273 1.400 . S
C1273 C1267 1.491 . S
C1273 C1272 1.400 . S
C1273 C1274 1.398 . S
C1274 H1262 0.950 . S
C1274 C1273 1.398 . S
C1274 C1275 1.391 . S
C1275 H1263 0.950 . S
C1275 C1271 1.393 . S
C1275 C1274 1.391 . S
H1276 C1284 0.950 . S
H1277 C1289 0.950 . S
H1278 C1286 0.950 . S
H1279 C1288 0.950 . S
H1280 C1290 0.910 1_455 S
H1281 C1292 0.950 . S
H1282 C1294 0.950 . S
H1283 C1295 0.950 . S
C1284 H1276 0.950 . S
C1284 C1285 1.386 . S
C1284 C1286 1.391 . S
C1285 C1284 1.386 . S
C1285 C1289 1.393 . S
C1286 H1278 0.950 . S
C1286 C1284 1.391 . S
C1286 C1287 1.400 . S
C1287 C1286 1.400 . S
C1287 C1288 1.398 . S
C1287 C1293 1.491 . S
C1288 H1279 0.950 . S
C1288 C1287 1.398 . S
C1288 C1289 1.391 . S
C1289 H1277 0.950 . S
C1289 C1285 1.393 . S
C1289 C1288 1.391 . S
C1290 H1280 0.910 1_655 S
C1290 C1291 1.381 1_655 S
C1290 C1292 1.438 . S
C1291 C1290 1.381 1_455 S
C1291 C1295 1.393 1_455 S
C1292 H1281 0.950 . S
C1292 C1290 1.438 . S
C1292 C1293 1.400 . S
C1293 C1287 1.491 . S
C1293 C1292 1.400 . S
C1293 C1294 1.398 . S
C1294 H1282 0.950 . S
C1294 C1293 1.398 . S
C1294 C1295 1.391 . S
C1295 H1283 0.950 . S
C1295 C1291 1.393 1_655 S
C1295 C1294 1.391 . S
H1296 C1304 0.950 . S
H1297 C1309 0.950 . S
H1298 C1306 0.950 . S
H1299 C1308 0.950 . S
H1300 C1310 0.950 . S
H1301 C1312 0.950 . S
H1302 C1314 0.950 . S
H1303 C1315 0.950 . S
C1304 H1296 0.950 . S
C1304 C1305 1.386 . S
C1304 C1306 1.391 . S
C1305 C1304 1.386 . S
C1305 C1309 1.393 . S
C1306 H1298 0.950 . S
C1306 C1304 1.391 . S
C1306 C1307 1.400 . S
C1307 C1306 1.400 . S
C1307 C1308 1.398 . S
C1307 C1313 1.491 . S
C1308 H1299 0.950 . S
C1308 C1307 1.398 . S
C1308 C1309 1.391 . S
C1309 H1297 0.950 . S
C1309 C1305 1.393 . S
C1309 C1308 1.391 . S
C1310 H1300 0.950 . S
C1310 C1311 1.386 . S
C1310 C1312 1.391 . S
C1311 C1310 1.386 . S
C1311 C1315 1.393 . S
C1312 H1301 0.950 . S
C1312 C1310 1.391 . S
C1312 C1313 1.400 . S
C1313 C1307 1.491 . S
C1313 C1312 1.400 . S
C1313 C1314 1.398 . S
C1314 H1302 0.950 . S
C1314 C1313 1.398 . S
C1314 C1315 1.391 . S
C1315 H1303 0.950 . S
C1315 C1311 1.393 . S
C1315 C1314 1.391 . S
H1316 C1324 0.950 . S
H1317 C1329 0.950 1_455 S
H1318 C1326 0.950 . S
H1319 C1328 0.950 . S
H1320 C1330 0.950 . S
H1321 C1332 0.950 . S
H1322 C1334 0.950 . S
H1323 C1335 0.950 . S
C1324 H1316 0.950 . S
C1324 C1325 1.386 1_655 S
C1324 C1326 1.391 . S
C1325 C1324 1.386 1_455 S
C1325 C1329 1.393 1_455 S
C1326 H1318 0.950 . S
C1326 C1324 1.391 . S
C1326 C1327 1.400 . S
C1327 C1326 1.400 . S
C1327 C1328 1.398 . S
C1327 C1333 1.491 . S
C1328 H1319 0.950 . S
C1328 C1327 1.398 . S
C1328 C1329 1.391 . S
C1329 H1317 0.950 1_655 S
C1329 C1325 1.393 1_655 S
C1329 C1328 1.391 . S
C1330 H1320 0.950 . S
C1330 C1331 1.386 . S
C1330 C1332 1.391 . S
C1331 C1330 1.386 . S
C1331 C1335 1.393 . S
C1332 H1321 0.950 . S
C1332 C1330 1.391 . S
C1332 C1333 1.400 . S
C1333 C1327 1.491 . S
C1333 C1332 1.400 . S
C1333 C1334 1.398 . S
C1334 H1322 0.950 . S
C1334 C1333 1.398 . S
C1334 C1335 1.391 . S
C1335 H1323 0.950 . S
C1335 C1331 1.393 . S
C1335 C1334 1.391 . S
H1336 C1344 0.950 . S
H1337 C1349 0.950 . S
H1338 C1346 0.950 . S
H1339 C1348 0.950 . S
H1340 C1350 0.950 . S
H1341 C1352 0.950 . S
H1342 C1354 0.950 . S
H1343 C1355 0.950 . S
C1344 H1336 0.950 . S
C1344 C1345 1.386 . S
C1344 C1346 1.391 . S
C1345 C1344 1.386 . S
C1345 C1349 1.393 . S
C1346 H1338 0.950 . S
C1346 C1344 1.391 . S
C1346 C1347 1.400 . S
C1347 C1346 1.400 . S
C1347 C1348 1.398 . S
C1347 C1353 1.491 . S
C1348 H1339 0.950 . S
C1348 C1347 1.398 . S
C1348 C1349 1.391 . S
C1349 H1337 0.950 . S
C1349 C1345 1.393 . S
C1349 C1348 1.391 . S
C1350 H1340 0.950 . S
C1350 C1351 1.386 . S
C1350 C1352 1.391 . S
C1351 C1350 1.386 . S
C1351 C1355 1.393 . S
C1352 H1341 0.950 . S
C1352 C1350 1.391 . S
C1352 C1353 1.400 . S
C1353 C1347 1.491 . S
C1353 C1352 1.400 . S
C1353 C1354 1.398 . S
C1354 H1342 0.950 . S
C1354 C1353 1.398 . S
C1354 C1355 1.391 . S
C1355 H1343 0.950 . S
C1355 C1351 1.393 . S
C1355 C1354 1.391 . S
H1356 C1364 0.950 . S
H1357 C1369 0.950 . S
H1358 C1366 0.950 . S
H1359 C1368 0.950 . S
H1360 C1370 0.950 . S
H1361 C1372 0.950 . S
H1362 C1374 0.950 . S
H1363 C1375 0.950 . S
C1364 H1356 0.950 . S
C1364 C1365 1.386 . S
C1364 C1366 1.391 . S
C1365 C1364 1.386 . S
C1365 C1369 1.393 . S
C1366 H1358 0.950 . S
C1366 C1364 1.391 . S
C1366 C1367 1.400 . S
C1367 C1366 1.400 . S
C1367 C1368 1.398 . S
C1367 C1373 1.491 . S
C1368 H1359 0.950 . S
C1368 C1367 1.398 . S
C1368 C1369 1.391 . S
C1369 H1357 0.950 . S
C1369 C1365 1.393 . S
C1369 C1368 1.391 . S
C1370 H1360 0.950 . S
C1370 C1371 1.386 . S
C1370 C1372 1.391 . S
C1371 C1370 1.386 . S
C1371 C1375 1.393 . S
C1372 H1361 0.950 . S
C1372 C1370 1.391 . S
C1372 C1373 1.400 . S
C1373 C1367 1.491 . S
C1373 C1372 1.400 . S
C1373 C1374 1.398 . S
C1374 H1362 0.950 . S
C1374 C1373 1.398 . S
C1374 C1375 1.391 . S
C1375 H1363 0.950 . S
C1375 C1371 1.393 . S
C1375 C1374 1.391 . S
H1376 C1384 0.950 . S
H1377 C1389 0.950 . S
H1378 C1386 0.950 . S
H1379 C1388 0.950 . S
H1380 C1390 0.950 . S
H1381 C1392 0.950 . S
H1382 C1394 0.950 . S
H1383 C1395 0.950 . S
C1384 H1376 0.950 . S
C1384 C1385 1.386 . S
C1384 C1386 1.391 . S
C1385 C1384 1.386 . S
C1385 C1389 1.393 . S
C1386 H1378 0.950 . S
C1386 C1384 1.391 . S
C1386 C1387 1.400 . S
C1387 C1386 1.400 . S
C1387 C1388 1.398 . S
C1387 C1393 1.491 . S
C1388 H1379 0.950 . S
C1388 C1387 1.398 . S
C1388 C1389 1.391 . S
C1389 H1377 0.950 . S
C1389 C1385 1.393 . S
C1389 C1388 1.391 . S
C1390 H1380 0.950 . S
C1390 C1391 1.386 . S
C1390 C1392 1.391 . S
C1391 C1390 1.386 . S
C1391 C1395 1.393 . S
C1392 H1381 0.950 . S
C1392 C1390 1.391 . S
C1392 C1393 1.400 . S
C1393 C1387 1.491 . S
C1393 C1392 1.400 . S
C1393 C1394 1.398 . S
C1394 H1382 0.950 . S
C1394 C1393 1.398 . S
C1394 C1395 1.391 . S
C1395 H1383 0.950 . S
C1395 C1391 1.393 . S
C1395 C1394 1.391 . S
H1396 C1404 0.950 . S
H1397 C1409 0.950 . S
H1398 C1406 0.950 . S
H1399 C1408 0.950 . S
H1400 C1410 0.950 . S
H1401 C1412 0.950 . S
H1402 C1414 0.950 . S
H1403 C1415 0.950 . S
C1404 H1396 0.950 . S
C1404 C1405 1.386 . S
C1404 C1406 1.391 . S
C1405 C1404 1.386 . S
C1405 C1409 1.393 . S
C1406 H1398 0.950 . S
C1406 C1404 1.391 . S
C1406 C1407 1.400 . S
C1407 C1406 1.400 . S
C1407 C1408 1.398 . S
C1407 C1413 1.491 . S
C1408 H1399 0.950 . S
C1408 C1407 1.398 . S
C1408 C1409 1.391 . S
C1409 H1397 0.950 . S
C1409 C1405 1.393 . S
C1409 C1408 1.391 . S
C1410 H1400 0.950 . S
C1410 C1411 1.386 . S
C1410 C1412 1.391 . S
C1411 C1410 1.386 . S
C1411 C1415 1.393 . S
C1412 H1401 0.950 . S
C1412 C1410 1.391 . S
C1412 C1413 1.400 . S
C1413 C1407 1.491 . S
C1413 C1412 1.400 . S
C1413 C1414 1.398 . S
C1414 H1402 0.950 . S
C1414 C1413 1.398 . S
C1414 C1415 1.391 . S
C1415 H1403 0.950 . S
C1415 C1411 1.393 . S
C1415 C1414 1.391 . S
H1416 C1424 0.950 . S
H1417 C1429 0.950 . S
H1418 C1426 0.950 . S
H1419 C1428 0.950 . S
H1420 C1430 0.950 . S
H1421 C1432 0.950 . S
H1422 C1434 0.950 . S
H1423 C1435 0.950 . S
C1424 H1416 0.950 . S
C1424 C1425 1.386 . S
C1424 C1426 1.391 . S
C1425 C1424 1.386 . S
C1425 C1429 1.393 . S
C1426 H1418 0.950 . S
C1426 C1424 1.391 . S
C1426 C1427 1.400 . S
C1427 C1426 1.400 . S
C1427 C1428 1.398 . S
C1427 C1433 1.491 . S
C1428 H1419 0.950 . S
C1428 C1427 1.398 . S
C1428 C1429 1.391 . S
C1429 H1417 0.950 . S
C1429 C1425 1.393 . S
C1429 C1428 1.391 . S
C1430 H1420 0.950 . S
C1430 C1431 1.386 . S
C1430 C1432 1.391 . S
C1431 C1430 1.386 . S
C1431 C1435 1.393 . S
C1432 H1421 0.950 . S
C1432 C1430 1.391 . S
C1432 C1433 1.400 . S
C1433 C1427 1.491 . S
C1433 C1432 1.400 . S
C1433 C1434 1.398 . S
C1434 H1422 0.950 . S
C1434 C1433 1.398 . S
C1434 C1435 1.391 . S
C1435 H1423 0.950 . S
C1435 C1431 1.393 . S
C1435 C1434 1.391 . S
H1436 C1444 0.950 . S
H1437 C1449 0.950 . S
H1438 C1446 0.950 . S
H1439 C1448 0.951 . S
H1440 C1450 0.950 . S
H1441 C1452 0.950 . S
H1442 C1454 0.951 . S
H1443 C1455 0.950 . S
C1444 H1436 0.950 . S
C1444 C1445 1.386 . S
C1444 C1446 1.391 . S
C1445 C1444 1.386 . S
C1445 C1449 1.393 . S
C1446 H1438 0.950 . S
C1446 C1444 1.391 . S
C1446 C1447 1.400 . S
C1447 C1446 1.400 . S
C1447 C1448 1.398 1_556 S
C1447 C1453 1.491 1_556 S
C1448 H1439 0.951 . S
C1448 C1447 1.398 1_554 S
C1448 C1449 1.390 1_554 S
C1449 H1437 0.950 . S
C1449 C1445 1.393 . S
C1449 C1448 1.390 1_556 S
C1450 H1440 0.950 . S
C1450 C1451 1.386 . S
C1450 C1452 1.391 . S
C1451 C1450 1.386 . S
C1451 C1455 1.393 . S
C1452 H1441 0.950 . S
C1452 C1450 1.391 . S
C1452 C1453 1.400 . S
C1453 C1447 1.491 1_554 S
C1453 C1452 1.400 . S
C1453 C1454 1.398 1_554 S
C1454 H1442 0.951 . S
C1454 C1453 1.398 1_556 S
C1454 C1455 1.390 1_556 S
C1455 H1443 0.950 . S
C1455 C1451 1.393 . S
C1455 C1454 1.390 1_554 S
H1456 C1464 0.950 . S
H1457 C1469 0.950 . S
H1458 C1466 0.950 . S
H1459 C1468 0.950 . S
H1460 C1470 0.950 . S
H1461 C1472 0.950 . S
H1462 C1474 0.950 . S
H1463 C1475 0.950 . S
C1464 H1456 0.950 . S
C1464 C1465 1.386 . S
C1464 C1466 1.391 . S
C1465 C1464 1.386 . S
C1465 C1469 1.393 . S
C1466 H1458 0.950 . S
C1466 C1464 1.391 . S
C1466 C1467 1.400 . S
C1467 C1466 1.400 . S
C1467 C1468 1.398 . S
C1467 C1473 1.491 . S
C1468 H1459 0.950 . S
C1468 C1467 1.398 . S
C1468 C1469 1.391 . S
C1469 H1457 0.950 . S
C1469 C1465 1.393 . S
C1469 C1468 1.391 . S
C1470 H1460 0.950 . S
C1470 C1471 1.386 . S
C1470 C1472 1.391 . S
C1471 C1470 1.386 . S
C1471 C1475 1.393 . S
C1472 H1461 0.950 . S
C1472 C1470 1.391 . S
C1472 C1473 1.400 . S
C1473 C1467 1.491 . S
C1473 C1472 1.400 . S
C1473 C1474 1.398 . S
C1474 H1462 0.950 . S
C1474 C1473 1.398 . S
C1474 C1475 1.391 . S
C1475 H1463 0.950 . S
C1475 C1471 1.393 . S
C1475 C1474 1.391 . S
H1476 C1484 0.950 . S
H1477 C1489 0.950 . S
H1478 C1486 0.950 . S
H1479 C1488 0.950 . S
H1480 C1490 0.950 . S
H1481 C1492 0.950 . S
H1482 C1494 0.950 . S
H1483 C1495 0.950 . S
C1484 H1476 0.950 . S
C1484 C1485 1.386 . S
C1484 C1486 1.391 . S
C1485 C1484 1.386 . S
C1485 C1489 1.393 . S
C1486 H1478 0.950 . S
C1486 C1484 1.391 . S
C1486 C1487 1.400 . S
C1487 C1486 1.400 . S
C1487 C1488 1.398 . S
C1487 C1493 1.491 . S
C1488 H1479 0.950 . S
C1488 C1487 1.398 . S
C1488 C1489 1.391 . S
C1489 H1477 0.950 . S
C1489 C1485 1.393 . S
C1489 C1488 1.391 . S
C1490 H1480 0.950 . S
C1490 C1491 1.386 . S
C1490 C1492 1.391 . S
C1491 C1490 1.386 . S
C1491 C1495 1.393 . S
C1492 H1481 0.950 . S
C1492 C1490 1.391 . S
C1492 C1493 1.400 . S
C1493 C1487 1.491 . S
C1493 C1492 1.400 . S
C1493 C1494 1.398 . S
C1494 H1482 0.950 . S
C1494 C1493 1.398 . S
C1494 C1495 1.391 . S
C1495 H1483 0.950 . S
C1495 C1491 1.393 . S
C1495 C1494 1.391 . S
H1496 C1504 0.950 . S
H1497 C1509 0.950 . S
H1498 C1506 0.950 . S
H1499 C1508 0.950 . S
H1500 C1510 0.950 . S
H1501 C1512 0.950 . S
H1502 C1514 0.950 . S
H1503 C1515 0.950 . S
C1504 H1496 0.950 . S
C1504 C1505 1.386 . S
C1504 C1506 1.391 . S
C1505 C1504 1.386 . S
C1505 C1509 1.393 . S
C1506 H1498 0.950 . S
C1506 C1504 1.391 . S
C1506 C1507 1.400 . S
C1507 C1506 1.400 . S
C1507 C1508 1.398 . S
C1507 C1513 1.491 . S
C1508 H1499 0.950 . S
C1508 C1507 1.398 . S
C1508 C1509 1.391 . S
C1509 H1497 0.950 . S
C1509 C1505 1.393 . S
C1509 C1508 1.391 . S
C1510 H1500 0.950 . S
C1510 C1511 1.386 . S
C1510 C1512 1.391 . S
C1511 C1510 1.386 . S
C1511 C1515 1.393 . S
C1512 H1501 0.950 . S
C1512 C1510 1.391 . S
C1512 C1513 1.400 . S
C1513 C1507 1.491 . S
C1513 C1512 1.400 . S
C1513 C1514 1.398 . S
C1514 H1502 0.950 . S
C1514 C1513 1.398 . S
C1514 C1515 1.391 . S
C1515 H1503 0.950 . S
C1515 C1511 1.393 . S
C1515 C1514 1.391 . S
H1516 C1524 0.950 . S
H1517 C1529 0.950 1_556 S
H1518 C1526 0.950 . S
H1519 C1528 0.950 . S
H1520 C1530 0.950 . S
H1521 C1532 0.950 . S
H1522 C1534 0.950 . S
H1523 C1535 0.950 1_554 S
C1524 H1516 0.950 . S
C1524 C1525 1.386 . S
C1524 C1526 1.391 . S
C1525 C1524 1.386 . S
C1525 C1529 1.393 . S
C1526 H1518 0.950 . S
C1526 C1524 1.391 . S
C1526 C1527 1.400 . S
C1527 C1526 1.400 . S
C1527 C1528 1.398 1_554 S
C1527 C1533 1.491 1_554 S
C1528 H1519 0.950 . S
C1528 C1527 1.398 1_556 S
C1528 C1529 1.391 1_556 S
C1529 H1517 0.950 1_554 S
C1529 C1525 1.393 . S
C1529 C1528 1.391 1_554 S
C1530 H1520 0.950 . S
C1530 C1531 1.386 . S
C1530 C1532 1.391 . S
C1531 C1530 1.386 . S
C1531 C1535 1.393 . S
C1532 H1521 0.950 . S
C1532 C1530 1.391 . S
C1532 C1533 1.400 . S
C1533 C1527 1.491 1_556 S
C1533 C1532 1.400 . S
C1533 C1534 1.398 1_556 S
C1534 H1522 0.950 . S
C1534 C1533 1.398 1_554 S
C1534 C1535 1.391 1_554 S
C1535 H1523 0.950 1_556 S
C1535 C1531 1.393 . S
C1535 C1534 1.391 1_556 S
H1536 C1544 0.950 . S
H1537 C1549 0.950 . S
H1538 C1546 0.950 . S
H1539 C1548 0.950 . S
H1540 C1550 0.950 . S
H1541 C1552 0.950 . S
H1542 C1554 0.950 . S
H1543 C1555 0.950 . S
C1544 H1536 0.950 . S
C1544 C1545 1.386 . S
C1544 C1546 1.391 . S
C1545 C1544 1.386 . S
C1545 C1549 1.393 . S
C1546 H1538 0.950 . S
C1546 C1544 1.391 . S
C1546 C1547 1.400 . S
C1547 C1546 1.400 . S
C1547 C1548 1.398 . S
C1547 C1553 1.491 1_565 S
C1548 H1539 0.950 . S
C1548 C1547 1.398 . S
C1548 C1549 1.391 . S
C1549 H1537 0.950 . S
C1549 C1545 1.393 . S
C1549 C1548 1.391 . S
C1550 H1540 0.950 . S
C1550 C1551 1.386 . S
C1550 C1552 1.391 . S
C1551 C1550 1.386 . S
C1551 C1555 1.393 . S
C1552 H1541 0.950 . S
C1552 C1550 1.391 . S
C1552 C1553 1.400 . S
C1553 C1547 1.491 1_545 S
C1553 C1552 1.400 . S
C1553 C1554 1.398 . S
C1554 H1542 0.950 . S
C1554 C1553 1.398 . S
C1554 C1555 1.391 . S
C1555 H1543 0.950 . S
C1555 C1551 1.393 . S
C1555 C1554 1.391 . S
H1556 C1564 0.950 . S
H1557 C1569 0.950 . S
H1558 C1566 0.950 . S
H1559 C1568 0.950 . S
H1560 C1570 0.950 . S
H1561 C1572 0.950 . S
H1562 C1574 0.950 . S
H1563 C1575 0.950 . S
C1564 H1556 0.950 . S
C1564 C1565 1.386 . S
C1564 C1566 1.391 1_554 S
C1565 C1564 1.386 . S
C1565 C1569 1.393 . S
C1566 H1558 0.950 . S
C1566 C1564 1.391 1_556 S
C1566 C1567 1.400 1_556 S
C1567 C1566 1.400 1_554 S
C1567 C1568 1.398 . S
C1567 C1573 1.491 1_554 S
C1568 H1559 0.950 . S
C1568 C1567 1.398 . S
C1568 C1569 1.391 . S
C1569 H1557 0.950 . S
C1569 C1565 1.393 . S
C1569 C1568 1.391 . S
C1570 H1560 0.950 . S
C1570 C1571 1.386 . S
C1570 C1572 1.391 1_556 S
C1571 C1570 1.386 . S
C1571 C1575 1.393 . S
C1572 H1561 0.950 . S
C1572 C1570 1.391 1_554 S
C1572 C1573 1.400 1_554 S
C1573 C1567 1.491 1_556 S
C1573 C1572 1.400 1_556 S
C1573 C1574 1.398 . S
C1574 H1562 0.950 . S
C1574 C1573 1.398 . S
C1574 C1575 1.391 . S
C1575 H1563 0.950 . S
C1575 C1571 1.393 . S
C1575 C1574 1.391 . S
H1576 C1584 0.950 . S
H1577 C1589 0.950 . S
H1578 C1586 0.950 . S
H1579 C1588 0.950 . S
H1580 C1590 0.950 . S
H1581 C1592 0.950 . S
H1582 C1594 0.950 . S
H1583 C1595 0.950 . S
C1584 H1576 0.950 . S
C1584 C1585 1.386 . S
C1584 C1586 1.391 . S
C1585 C1584 1.386 . S
C1585 C1589 1.393 . S
C1586 H1578 0.950 . S
C1586 C1584 1.391 . S
C1586 C1587 1.400 . S
C1587 C1586 1.400 . S
C1587 C1588 1.398 . S
C1587 C1593 1.491 1_545 S
C1588 H1579 0.950 . S
C1588 C1587 1.398 . S
C1588 C1589 1.391 . S
C1589 H1577 0.950 . S
C1589 C1585 1.393 . S
C1589 C1588 1.391 . S
C1590 H1580 0.950 . S
C1590 C1591 1.386 . S
C1590 C1592 1.391 . S
C1591 C1590 1.386 . S
C1591 C1595 1.393 . S
C1592 H1581 0.950 . S
C1592 C1590 1.391 . S
C1592 C1593 1.400 . S
C1593 C1587 1.491 1_565 S
C1593 C1592 1.400 . S
C1593 C1594 1.398 . S
C1594 H1582 0.950 . S
C1594 C1593 1.398 . S
C1594 C1595 1.391 . S
C1595 H1583 0.950 . S
C1595 C1591 1.393 . S
C1595 C1594 1.391 . S
H1596 C1604 0.950 . S
H1597 C1609 0.950 . S
H1598 C1606 0.950 . S
H1599 C1608 0.950 . S
H1600 C1610 0.950 . S
H1601 C1612 0.950 . S
H1602 C1614 0.950 . S
H1603 C1615 0.950 . S
C1604 H1596 0.950 . S
C1604 C1605 1.386 . S
C1604 C1606 1.391 . S
C1605 C1604 1.386 . S
C1605 C1609 1.393 . S
C1606 H1598 0.950 . S
C1606 C1604 1.391 . S
C1606 C1607 1.400 . S
C1607 C1606 1.400 . S
C1607 C1608 1.398 . S
C1607 C1613 1.491 . S
C1608 H1599 0.950 . S
C1608 C1607 1.398 . S
C1608 C1609 1.391 . S
C1609 H1597 0.950 . S
C1609 C1605 1.393 . S
C1609 C1608 1.391 . S
C1610 H1600 0.950 . S
C1610 C1611 1.386 . S
C1610 C1612 1.391 . S
C1611 C1610 1.386 . S
C1611 C1615 1.393 . S
C1612 H1601 0.950 . S
C1612 C1610 1.391 . S
C1612 C1613 1.400 . S
C1613 C1607 1.491 . S
C1613 C1612 1.400 . S
C1613 C1614 1.398 . S
C1614 H1602 0.950 . S
C1614 C1613 1.398 . S
C1614 C1615 1.391 . S
C1615 H1603 0.950 . S
C1615 C1611 1.393 . S
C1615 C1614 1.391 . S
H1616 C1624 0.950 . S
H1617 C1629 0.950 . S
H1618 C1626 0.950 . S
H1619 C1628 0.950 . S
H1620 C1630 0.950 . S
H1621 C1632 0.950 . S
H1622 C1634 0.950 . S
H1623 C1635 0.950 . S
C1624 H1616 0.950 . S
C1624 C1625 1.386 . S
C1624 C1626 1.391 . S
C1625 C1624 1.386 . S
C1625 C1629 1.393 . S
C1626 H1618 0.950 . S
C1626 C1624 1.391 . S
C1626 C1627 1.400 . S
C1627 C1626 1.400 . S
C1627 C1628 1.398 . S
C1627 C1633 1.491 1_545 S
C1628 H1619 0.950 . S
C1628 C1627 1.398 . S
C1628 C1629 1.391 . S
C1629 H1617 0.950 . S
C1629 C1625 1.393 . S
C1629 C1628 1.391 . S
C1630 H1620 0.950 . S
C1630 C1631 1.386 . S
C1630 C1632 1.391 . S
C1631 C1630 1.386 . S
C1631 C1635 1.393 . S
C1632 H1621 0.950 . S
C1632 C1630 1.391 . S
C1632 C1633 1.400 . S
C1633 C1627 1.491 1_565 S
C1633 C1632 1.400 . S
C1633 C1634 1.398 . S
C1634 H1622 0.950 . S
C1634 C1633 1.398 . S
C1634 C1635 1.391 . S
C1635 H1623 0.950 . S
C1635 C1631 1.393 . S
C1635 C1634 1.391 . S
H1636 C1644 0.950 . S
H1637 C1649 0.950 1_556 S
H1638 C1646 0.950 . S
H1639 C1648 0.950 . S
H1640 C1650 0.950 . S
H1641 C1652 0.950 . S
H1642 C1654 0.950 . S
H1643 C1655 0.950 1_554 S
C1644 H1636 0.950 . S
C1644 C1645 1.386 . S
C1644 C1646 1.391 . S
C1645 C1644 1.386 . S
C1645 C1649 1.393 . S
C1646 H1638 0.950 . S
C1646 C1644 1.391 . S
C1646 C1647 1.400 . S
C1647 C1646 1.400 . S
C1647 C1648 1.398 1_554 S
C1647 C1653 1.491 1_554 S
C1648 H1639 0.950 . S
C1648 C1647 1.398 1_556 S
C1648 C1649 1.391 1_556 S
C1649 H1637 0.950 1_554 S
C1649 C1645 1.393 . S
C1649 C1648 1.391 1_554 S
C1650 H1640 0.950 . S
C1650 C1651 1.386 . S
C1650 C1652 1.391 . S
C1651 C1650 1.386 . S
C1651 C1655 1.393 . S
C1652 H1641 0.950 . S
C1652 C1650 1.391 . S
C1652 C1653 1.400 . S
C1653 C1647 1.491 1_556 S
C1653 C1652 1.400 . S
C1653 C1654 1.398 1_556 S
C1654 H1642 0.950 . S
C1654 C1653 1.398 1_554 S
C1654 C1655 1.391 1_554 S
C1655 H1643 0.950 1_556 S
C1655 C1651 1.393 . S
C1655 C1654 1.391 1_556 S
H1656 C1664 0.950 . S
H1657 C1669 0.950 . S
H1658 C1666 0.950 . S
H1659 C1668 0.950 . S
H1660 C1670 0.950 . S
H1661 C1672 0.950 . S
H1662 C1674 0.950 . S
H1663 C1675 0.950 . S
C1664 H1656 0.950 . S
C1664 C1665 1.386 . S
C1664 C1666 1.391 . S
C1665 C1664 1.386 . S
C1665 C1669 1.393 . S
C1666 H1658 0.950 . S
C1666 C1664 1.391 . S
C1666 C1667 1.400 . S
C1667 C1666 1.400 . S
C1667 C1668 1.398 . S
C1667 C1673 1.491 1_545 S
C1668 H1659 0.950 . S
C1668 C1667 1.398 . S
C1668 C1669 1.391 . S
C1669 H1657 0.950 . S
C1669 C1665 1.393 . S
C1669 C1668 1.391 . S
C1670 H1660 0.950 . S
C1670 C1671 1.386 . S
C1670 C1672 1.391 . S
C1671 C1670 1.386 . S
C1671 C1675 1.393 . S
C1672 H1661 0.950 . S
C1672 C1670 1.391 . S
C1672 C1673 1.400 . S
C1673 C1667 1.491 1_565 S
C1673 C1672 1.400 . S
C1673 C1674 1.398 . S
C1674 H1662 0.950 . S
C1674 C1673 1.398 . S
C1674 C1675 1.391 . S
C1675 H1663 0.950 . S
C1675 C1671 1.393 . S
C1675 C1674 1.391 . S
H1676 C1684 0.950 . S
H1677 C1689 0.950 . S
H1678 C1686 0.950 . S
H1679 C1688 0.950 . S
H1680 C1690 0.950 . S
H1681 C1692 0.950 . S
H1682 C1694 0.950 . S
H1683 C1695 0.950 . S
C1684 H1676 0.950 . S
C1684 C1685 1.386 . S
C1684 C1686 1.391 . S
C1685 C1684 1.386 . S
C1685 C1689 1.393 . S
C1686 H1678 0.950 . S
C1686 C1684 1.391 . S
C1686 C1687 1.400 . S
C1687 C1686 1.400 . S
C1687 C1688 1.398 . S
C1687 C1693 1.491 . S
C1688 H1679 0.950 . S
C1688 C1687 1.398 . S
C1688 C1689 1.391 . S
C1689 H1677 0.950 . S
C1689 C1685 1.393 . S
C1689 C1688 1.391 . S
C1690 H1680 0.950 . S
C1690 C1691 1.386 . S
C1690 C1692 1.391 . S
C1691 C1690 1.386 . S
C1691 C1695 1.393 . S
C1692 H1681 0.950 . S
C1692 C1690 1.391 . S
C1692 C1693 1.400 . S
C1693 C1687 1.491 . S
C1693 C1692 1.400 . S
C1693 C1694 1.398 . S
C1694 H1682 0.950 . S
C1694 C1693 1.398 . S
C1694 C1695 1.391 . S
C1695 H1683 0.950 . S
C1695 C1691 1.393 . S
C1695 C1694 1.391 . S
C425 C8 1.265 . S
C431 C281 1.266 . S
C445 C294 1.264 . S
C451 C21 1.264 . S
C465 C34 1.289 . S
C471 C307 1.290 . S
C485 C268 1.290 . S
C491 C47 1.289 . S
C505 C60 1.262 . S
C511 C255 1.262 . S
C525 C73 1.295 . S
C531 C216 1.295 . S
C545 C229 1.295 . S
C551 C86 1.296 . S
C565 C99 1.282 . S
C571 C242 1.283 . S
C585 C112 1.264 . S
C591 C385 1.264 . S
C605 C125 1.262 . S
C611 C398 1.262 . S
C625 C411 1.275 . S
C631 C138 1.276 . S
C645 C372 1.273 . S
C651 C151 1.274 . S
C665 C164 1.282 . S
C671 C359 1.283 . S
C685 C320 1.280 . S
C691 C177 1.281 . S
C705 C190 1.279 . S
C711 C333 1.280 . S
C725 C346 1.270 . S
C731 C203 1.269 . S
C745 C5 1.033 . S
C751 C127 1.101 . S
C765 C18 1.021 . S
C771 C348 1.142 . S
C785 C153 1.109 . S
C791 C31 1.016 . S
C805 C44 1.010 . S
C811 C322 1.106 . S
C825 C57 1.041 . S
C831 C205 1.100 . S
C845 C374 1.103 . S
C851 C70 1.025 . S
C865 C179 1.106 . S
C871 C83 1.011 . S
C885 C400 1.100 . S
C891 C96 1.047 . S
C905 C109 1.012 . S
C911 C23 1.106 . S
C925 C244 1.147 . S
C931 C122 1.032 . S
C945 C49 1.106 . S
C951 C135 1.037 . S
C965 C148 1.036 . S
C971 C218 1.101 . S
C985 C101 1.106 . S
C991 C161 1.010 . S
C1005 C270 1.109 . S
C1011 C174 1.015 . S
C1025 C75 1.106 . S
C1031 C187 1.011 . S
C1045 C200 1.034 . S
C1051 C296 1.107 . S
C1065 C335 1.100 . S
C1071 C213 1.049 . S
C1085 C140 1.107 . S
C1091 C226 1.008 . S
C1105 C361 1.103 . S
C1111 C239 1.022 . S
C1125 C252 1.042 . S
C1131 C114 1.100 . S
C1145 C413 1.102 . S
C1151 C265 1.028 . S
C1165 C166 1.110 . S
C1171 C278 1.012 . S
C1185 C387 1.105 . S
C1191 C291 1.042 . S
C1205 C304 1.054 . S
C1211 C192 1.100 . S
C1225 C317 1.054 . S
C1231 C231 1.101 . S
C1245 C36 1.101 . S
C1251 C330 1.055 . S
C1265 C343 1.004 . S
C1271 C257 1.108 . S
C1285 C356 1.054 . S
C1291 C10 1.100 . S
C1305 C369 1.005 . S
C1311 C309 1.107 . S
C1325 C62 1.102 . S
C1331 C382 1.053 . S
C1345 C283 1.100 . S
C1351 C395 1.053 . S
C1365 C408 1.020 . S
C1371 C88 1.109 . S
C1385 C0 1.228 . S
C1391 C52 1.228 . S
C1405 C13 1.225 . S
C1411 C65 1.210 . S
C1425 C78 1.215 . S
C1431 C26 1.237 . S
C1445 C91 1.221 . S
C1451 C39 1.212 . S
C1465 C156 1.238 . S
C1471 C104 1.211 . S
C1485 C169 1.226 . S
C1491 C117 1.230 . S
C1505 C182 1.217 . S
C1511 C130 1.216 . S
C1525 C195 1.207 . S
C1531 C143 1.230 . S
C1545 C208 1.208 . S
C1551 C260 1.237 . S
C1565 C221 1.220 . S
C1571 C273 1.235 . S
C1585 C234 1.213 . S
C1591 C286 1.220 . S
C1605 C299 1.208 . S
C1611 C247 1.237 . S
C1625 C312 1.219 . S
C1631 C364 1.214 . S
C1645 C377 1.207 . S
C1651 C325 1.230 . S
C1665 C390 1.212 . S
C1671 C338 1.221 . S
C1685 C403 1.218 . S
C1691 C351 1.215 . S
