# Generated by pormake.
# Topology wld, (5)-cn, num edge types: 1
# Building blocks:
#     Node 0, Type 0, BuildingBlock: XOMCOT_clean_sbu_1, # of connection points: 5
#     Node 1, Type 0, BuildingBlock: XOMCOT_clean_sbu_1, # of connection points: 5
#     Node 2, Type 0, BuildingBlock: XOMCOT_clean_sbu_1, # of connection points: 5
#     Node 3, Type 0, BuildingBlock: XOMCOT_clean_sbu_1, # of connection points: 5
#     Node 4, Type 0, BuildingBlock: XOMCOT_clean_sbu_1, # of connection points: 5
#     Node 5, Type 0, BuildingBlock: XOMCOT_clean_sbu_1, # of connection points: 5
#     Node 6, Type 0, BuildingBlock: XOMCOT_clean_sbu_1, # of connection points: 5
#     Node 7, Type 0, BuildingBlock: XOMCOT_clean_sbu_1, # of connection points: 5
#     Node 8, Type 0, BuildingBlock: XOMCOT_clean_sbu_1, # of connection points: 5
#     Node 9, Type 0, BuildingBlock: XOMCOT_clean_sbu_1, # of connection points: 5
#     Node 10, Type 0, BuildingBlock: XOMCOT_clean_sbu_1, # of connection points: 5
#     Node 11, Type 0, BuildingBlock: XOMCOT_clean_sbu_1, # of connection points: 5
#     Edge 12, Type (0, 0), BuildingBlock: OJICUG_clean_linker_0, # of connection points: 2
#     Edge 13, Type (0, 0), BuildingBlock: OJICUG_clean_linker_0, # of connection points: 2
#     Edge 14, Type (0, 0), BuildingBlock: OJICUG_clean_linker_0, # of connection points: 2
#     Edge 15, Type (0, 0), BuildingBlock: OJICUG_clean_linker_0, # of connection points: 2
#     Edge 16, Type (0, 0), BuildingBlock: OJICUG_clean_linker_0, # of connection points: 2
#     Edge 17, Type (0, 0), BuildingBlock: OJICUG_clean_linker_0, # of connection points: 2
#     Edge 18, Type (0, 0), BuildingBlock: OJICUG_clean_linker_0, # of connection points: 2
#     Edge 19, Type (0, 0), BuildingBlock: OJICUG_clean_linker_0, # of connection points: 2
#     Edge 20, Type (0, 0), BuildingBlock: OJICUG_clean_linker_0, # of connection points: 2
#     Edge 21, Type (0, 0), BuildingBlock: OJICUG_clean_linker_0, # of connection points: 2
#     Edge 22, Type (0, 0), BuildingBlock: OJICUG_clean_linker_0, # of connection points: 2
#     Edge 23, Type (0, 0), BuildingBlock: OJICUG_clean_linker_0, # of connection points: 2
#     Edge 24, Type (0, 0), BuildingBlock: OJICUG_clean_linker_0, # of connection points: 2
#     Edge 25, Type (0, 0), BuildingBlock: OJICUG_clean_linker_0, # of connection points: 2
#     Edge 26, Type (0, 0), BuildingBlock: OJICUG_clean_linker_0, # of connection points: 2
#     Edge 27, Type (0, 0), BuildingBlock: OJICUG_clean_linker_0, # of connection points: 2
#     Edge 28, Type (0, 0), BuildingBlock: OJICUG_clean_linker_0, # of connection points: 2
#     Edge 29, Type (0, 0), BuildingBlock: OJICUG_clean_linker_0, # of connection points: 2
#     Edge 30, Type (0, 0), BuildingBlock: OJICUG_clean_linker_0, # of connection points: 2
#     Edge 31, Type (0, 0), BuildingBlock: OJICUG_clean_linker_0, # of connection points: 2
#     Edge 32, Type (0, 0), BuildingBlock: OJICUG_clean_linker_0, # of connection points: 2
#     Edge 33, Type (0, 0), BuildingBlock: OJICUG_clean_linker_0, # of connection points: 2
#     Edge 34, Type (0, 0), BuildingBlock: OJICUG_clean_linker_0, # of connection points: 2
#     Edge 35, Type (0, 0), BuildingBlock: OJICUG_clean_linker_0, # of connection points: 2
#     Edge 36, Type (0, 0), BuildingBlock: OJICUG_clean_linker_0, # of connection points: 2
#     Edge 37, Type (0, 0), BuildingBlock: OJICUG_clean_linker_0, # of connection points: 2
#     Edge 38, Type (0, 0), BuildingBlock: OJICUG_clean_linker_0, # of connection points: 2
#     Edge 39, Type (0, 0), BuildingBlock: OJICUG_clean_linker_0, # of connection points: 2
#     Edge 40, Type (0, 0), BuildingBlock: OJICUG_clean_linker_0, # of connection points: 2
#     Edge 41, Type (0, 0), BuildingBlock: OJICUG_clean_linker_0, # of connection points: 2
# Relax obj value: 0.225
# Max RMSD: 0.208
# Mean RMSD: 0.208
data_MOF--net-wld--node1-XOMCOT_clean_sbu_1--edge1-OJICUG_clean_linker_0
_symmetry_space_group_name_H-M    P1
_symmetry_Int_Tables_number       1
_symmetry_cell_setting            triclinic
loop_
_symmetry_equiv_pos_as_xyz
'x, y, z'
_cell_length_a     28.037028
_cell_length_b     28.048994
_cell_length_c     40.876359
_cell_angle_alpha  89.901942
_cell_angle_beta   89.987749
_cell_angle_gamma 119.99221
loop_
_atom_site_label
_atom_site_type_symbol
_atom_site_fract_x
_atom_site_fract_y
_atom_site_fract_z
_atom_type_partial_charge
C0 C 0.39208 0.18503 0.09834 0.0
C1 C 0.41929 0.15548 0.09728 0.0
N2 N 0.4695 0.18813 0.08437 0.0
N3 N 0.425 0.2357 0.08581 0.0
C4 C 0.47198 0.23627 0.07759 0.0
H5 H 0.34964 0.16923 0.10547 0.0
Co6 Co 0.40261 0.28475 0.07228 0.0
C7 C 0.50696 0.37792 0.04726 0.0
O8 O 0.48348 0.38155 0.02029 0.0
N9 N 0.37888 0.33329 0.05859 0.0
C10 C 0.36638 0.40539 0.0541 0.0
C11 C 0.40006 0.38695 0.06627 0.0
C12 C 0.33209 0.31998 0.04216 0.0
N13 N 0.32335 0.36305 0.03905 0.0
O14 O 0.40364 0.26197 0.02854 0.0
H15 H 0.43689 0.41095 0.08058 0.0
H16 H 0.30456 0.27918 0.03298 0.0
O17 O 0.47877 0.34178 0.06877 0.0
C18 C 0.36101 0.2163 0.02152 0.0
O19 O 0.31865 0.1967 0.04153 0.0
N20 N 0.39868 0.3032 0.11554 0.0
C21 C 0.37656 0.32583 0.17838 0.0
C22 C 0.42942 0.35669 0.16465 0.0
C23 C 0.43987 0.34434 0.13333 0.0
C24 C 0.34748 0.27216 0.12853 0.0
C25 C 0.33562 0.28233 0.16 0.0
H26 H 0.4807 0.36916 0.12336 0.0
H27 H 0.31546 0.23966 0.11407 0.0
H28 H 0.5055 0.26925 0.06415 0.0
H29 H 0.40276 0.11275 0.10409 0.0
H30 H 0.37234 0.44634 0.05706 0.0
H31 H 0.4623 0.39114 0.17751 0.0
H32 H 0.29459 0.25632 0.16967 0.0
C33 C 0.8253 0.20492 0.09375 0.0
C34 C 0.85536 0.26166 0.09263 0.0
N35 N 0.82255 0.27986 0.08078 0.0
N36 N 0.77417 0.18784 0.08229 0.0
C37 C 0.77373 0.23454 0.07476 0.0
H38 H 0.84083 0.17776 0.10018 0.0
Co39 Co 0.72407 0.1168 0.06899 0.0
C40 C 0.62956 0.12811 0.04755 0.0
O41 O 0.62583 0.10258 0.01993 0.0
N42 N 0.67415 0.04473 0.05539 0.0
C43 C 0.60198 0.9598 0.05343 0.0
C44 C 0.62129 0.01242 0.06493 0.0
C45 C 0.68612 0.01071 0.03849 0.0
N46 N 0.64306 0.95867 0.03702 0.0
O47 O 0.74422 0.14148 0.025 0.0
H48 H 0.59899 0.02554 0.08065 0.0
H49 H 0.72624 0.02347 0.02828 0.0
O50 O 0.66641 0.13559 0.0684 0.0
C51 C 0.78913 0.14358 0.0169 0.0
O52 O 0.80834 0.11922 0.03591 0.0
N53 N 0.70857 0.09382 0.11234 0.0
C54 C 0.6878 0.05113 0.17563 0.0
C55 C 0.67409 0.09108 0.16636 0.0
C56 C 0.68508 0.11218 0.13451 0.0
C57 C 0.72393 0.05662 0.12117 0.0
C58 C 0.71332 0.03421 0.15253 0.0
H59 H 0.67501 0.14341 0.12784 0.0
H60 H 0.74374 0.04357 0.10346 0.0
H61 H 0.74012 0.23546 0.06234 0.0
H62 H 0.89845 0.28741 0.09873 0.0
H63 H 0.56172 0.92461 0.05818 0.0
H64 H 0.65566 0.1064 0.18362 0.0
H65 H 0.7243 1.00326 0.15839 0.0
C66 C 0.80203 0.61465 0.09633 0.0
C67 C 0.74531 0.58736 0.09501 0.0
N68 N 0.72809 0.53739 0.08196 0.0
N69 N 0.82009 0.582 0.08385 0.0
C70 C 0.77392 0.53507 0.07543 0.0
H71 H 0.82847 0.65701 0.10356 0.0
Co72 Co 0.89162 0.60522 0.07037 0.0
C73 C 0.8836 0.50154 0.04673 0.0
O74 O 0.91147 0.5253 0.01999 0.0
N75 N 0.96421 0.63012 0.05677 0.0
C76 C 0.05026 0.64619 0.05405 0.0
C77 C 0.99814 0.6113 0.06583 0.0
C78 C 0.99675 0.67658 0.03975 0.0
N79 N 0.04954 0.68763 0.03771 0.0
O80 O 0.86736 0.60293 0.02651 0.0
H81 H 0.98632 0.57549 0.08101 0.0
H82 H 0.98205 0.70235 0.02956 0.0
O83 O 0.87393 0.52927 0.06764 0.0
C84 C 0.86362 0.64522 0.0195 0.0
O85 O 0.88605 0.68749 0.03949 0.0
N86 N 0.91425 0.61048 0.11368 0.0
C87 C 0.95942 0.63465 0.17638 0.0
C88 C 0.93661 0.58116 0.16358 0.0
C89 C 0.91357 0.56969 0.13231 0.0
C90 C 0.93509 0.66224 0.12578 0.0
C91 C 0.95737 0.67515 0.15715 0.0
H92 H 0.89679 0.52838 0.12306 0.0
H93 H 0.93496 0.69389 0.11068 0.0
H94 H 0.77377 0.50177 0.06203 0.0
H95 H 0.7189 0.60366 0.10174 0.0
H96 H 0.0861 0.64206 0.05825 0.0
H97 H 0.93769 0.54855 0.17715 0.0
H98 H 0.97295 0.71663 0.16609 0.0
C99 C 0.19071 0.39704 0.38713 0.0
C100 C 0.16171 0.42475 0.3887 0.0
N101 N 0.1948 0.47447 0.40196 0.0
N102 N 0.24148 0.42918 0.39965 0.0
C103 C 0.24273 0.47623 0.40836 0.0
H104 H 0.17453 0.35478 0.3796 0.0
Co105 Co 0.28951 0.40532 0.41255 0.0
C106 C 0.38608 0.5081 0.43646 0.0
O107 O 0.39057 0.48365 0.46276 0.0
N108 N 0.33699 0.3798 0.42556 0.0
C109 C 0.40671 0.36328 0.42774 0.0
C110 C 0.38932 0.39796 0.41582 0.0
C111 C 0.32347 0.33394 0.44313 0.0
N112 N 0.36506 0.32267 0.44486 0.0
O113 O 0.26775 0.40676 0.45657 0.0
H114 H 0.41294 0.43328 0.40021 0.0
H115 H 0.28345 0.30885 0.45406 0.0
O116 O 0.34813 0.48102 0.41573 0.0
C117 C 0.22167 0.36439 0.46342 0.0
O118 O 0.20165 0.32257 0.44307 0.0
N119 N 0.30666 0.40098 0.36905 0.0
C120 C 0.32718 0.37882 0.30608 0.0
C121 C 0.35735 0.43208 0.31887 0.0
C122 C 0.3459 0.44264 0.3504 0.0
C123 C 0.27635 0.34922 0.35671 0.0
C124 C 0.28561 0.33726 0.32506 0.0
H125 H 0.36957 0.484 0.35974 0.0
H126 H 0.24541 0.31689 0.37187 0.0
H127 H 0.27612 0.50927 0.42177 0.0
H128 H 0.11911 0.40895 0.38189 0.0
H129 H 0.44643 0.367 0.42319 0.0
H130 H 0.38945 0.46514 0.30459 0.0
H131 H 0.26166 0.29563 0.31584 0.0
C132 C 0.626 0.80345 0.38856 0.0
C133 C 0.59881 0.74671 0.38998 0.0
N134 N 0.54815 0.7292 0.40222 0.0
N135 N 0.59261 0.82122 0.4002 0.0
C136 C 0.54536 0.77493 0.40817 0.0
H137 H 0.66859 0.83015 0.38173 0.0
Co138 Co 0.61445 0.89269 0.41304 0.0
C139 C 0.50967 0.88324 0.43505 0.0
O140 O 0.53236 0.90967 0.46229 0.0
N141 N 0.63743 0.96514 0.42621 0.0
C142 C 0.65078 0.0503 0.42794 0.0
C143 C 0.61756 0.99781 0.41622 0.0
C144 C 0.68293 0.99882 0.44359 0.0
N145 N 0.69223 0.05097 0.44496 0.0
O146 O 0.61074 0.86891 0.45717 0.0
H147 H 0.58252 0.98491 0.40022 0.0
H148 H 0.70958 0.98567 0.4544 0.0
O149 O 0.53822 0.87458 0.41418 0.0
C150 C 0.65362 0.86675 0.46499 0.0
O151 O 0.69666 0.89029 0.4455 0.0
N152 N 0.62109 0.91475 0.36955 0.0
C153 C 0.64162 0.9564 0.30602 0.0
C154 C 0.58814 0.91673 0.31577 0.0
C155 C 0.57872 0.89614 0.34773 0.0
C156 C 0.67348 0.9516 0.36024 0.0
C157 C 0.68461 0.97349 0.32874 0.0
H158 H 0.53753 0.86516 0.35478 0.0
H159 H 0.70674 0.96487 0.37768 0.0
H160 H 0.51126 0.77462 0.42076 0.0
H161 H 0.61555 0.72049 0.38375 0.0
H162 H 0.64606 0.08565 0.42305 0.0
H163 H 0.55397 0.90128 0.29881 0.0
H164 H 0.72644 1.00425 0.32251 0.0
C165 C 0.21599 0.82907 0.38478 0.0
C166 C 0.27276 0.85822 0.386 0.0
N167 N 0.28979 0.8253 0.39914 0.0
N168 N 0.19773 0.7784 0.39743 0.0
C169 C 0.24382 0.77741 0.40589 0.0
H170 H 0.18967 0.84507 0.37733 0.0
Co171 Co 0.12591 0.72958 0.41037 0.0
C172 C 0.13531 0.63577 0.43602 0.0
O173 O 0.1071 0.63199 0.46253 0.0
N174 N 0.05319 0.68119 0.42345 0.0
C175 C 0.96841 0.60914 0.42726 0.0
C176 C 0.0206 0.62783 0.41513 0.0
C177 C 0.0197 0.69408 0.44022 0.0
N178 N 0.96779 0.65102 0.44295 0.0
O179 O 0.14854 0.75233 0.45426 0.0
H180 H 0.03349 0.60419 0.40051 0.0
H181 H 0.03305 0.73452 0.45005 0.0
O182 O 0.14451 0.67228 0.41453 0.0
C183 C 0.15151 0.79804 0.46107 0.0
O184 O 0.12945 0.81781 0.44067 0.0
N185 N 0.10478 0.71119 0.36693 0.0
C186 C 0.0622 0.68853 0.30394 0.0
C187 C 0.08465 0.65835 0.31768 0.0
C188 C 0.10658 0.67083 0.34921 0.0
C189 C 0.08393 0.74148 0.35367 0.0
C190 C 0.0628 0.73118 0.32197 0.0
H191 H 0.12359 0.64698 0.35929 0.0
H192 H 0.08288 0.77322 0.36813 0.0
H193 H 0.24391 0.74422 0.41935 0.0
H194 H 0.29933 0.9008 0.37902 0.0
H195 H 0.93336 0.56833 0.42393 0.0
H196 H 0.0851 0.62539 0.30416 0.0
H197 H 0.04559 0.75515 0.31201 0.0
C198 C 0.62102 0.8205 0.88914 0.0
C199 C 0.59442 0.85062 0.89052 0.0
N200 N 0.54377 0.81799 0.90293 0.0
N201 N 0.58726 0.76955 0.90099 0.0
C202 C 0.54036 0.76921 0.909 0.0
H203 H 0.66353 0.83593 0.88231 0.0
Co204 Co 0.60866 0.71991 0.9144 0.0
C205 C 0.50309 0.62399 0.93521 0.0
O206 O 0.52482 0.61992 0.96281 0.0
N207 N 0.63143 0.67051 0.9281 0.0
C208 C 0.64599 0.59948 0.92997 0.0
C209 C 0.61219 0.6181 0.9182 0.0
C210 C 0.67708 0.68291 0.9455 0.0
N211 N 0.68717 0.64057 0.94693 0.0
O212 O 0.60346 0.73954 0.9584 0.0
H213 H 0.57737 0.59572 0.90209 0.0
H214 H 0.70342 0.72285 0.95613 0.0
O215 O 0.53234 0.66164 0.91469 0.0
C216 C 0.64607 0.78478 0.9662 0.0
O217 O 0.68936 0.80424 0.94693 0.0
N218 N 0.61689 0.70512 0.87112 0.0
C219 C 0.64046 0.68673 0.8078 0.0
C220 C 0.58626 0.67108 0.81696 0.0
C221 C 0.57531 0.68096 0.84882 0.0
C222 C 0.66989 0.72217 0.86242 0.0
C223 C 0.68256 0.71288 0.831 0.0
H224 H 0.5336 0.66956 0.85538 0.0
H225 H 0.70244 0.74245 0.88025 0.0
H226 H 0.50622 0.73575 0.9218 0.0
H227 H 0.61161 0.89364 0.88424 0.0
H228 H 0.64196 0.55973 0.92506 0.0
H229 H 0.55273 0.65201 0.7996 0.0
H230 H 0.72489 0.72536 0.82516 0.0
C231 C 0.20588 0.80045 0.87388 0.0
C232 C 0.17896 0.74362 0.87353 0.0
N233 N 0.20014 0.72674 0.89752 0.0
N234 N 0.24419 0.81896 0.89771 0.0
C235 C 0.23962 0.77317 0.91159 0.0
H236 H 0.19752 0.82651 0.85819 0.0
Co237 Co 0.2909 0.89027 0.9122 0.0
C238 C 0.38493 0.88067 0.93754 0.0
O239 O 0.38833 0.90766 0.96448 0.0
N240 N 0.33801 0.96209 0.92698 0.0
C241 C 0.40888 0.04733 0.93108 0.0
C242 C 0.39124 0.99563 0.91866 0.0
C243 C 0.32413 0.99439 0.94419 0.0
N244 N 0.36646 0.04665 0.94702 0.0
O245 O 0.266 0.86509 0.95572 0.0
H246 H 0.41509 0.98386 0.90332 0.0
H247 H 0.28331 0.98003 0.95384 0.0
O248 O 0.34876 0.87245 0.91606 0.0
C249 C 0.21937 0.86091 0.96142 0.0
O250 O 0.20007 0.88222 0.94014 0.0
N251 N 0.31168 0.91431 0.86925 0.0
C252 C 0.34152 0.95888 0.8068 0.0
C253 C 0.35199 0.91723 0.81702 0.0
C254 C 0.33679 0.89542 0.84857 0.0
C255 C 0.29891 0.95285 0.85909 0.0
C256 C 0.31429 0.97639 0.82811 0.0
H257 H 0.34496 0.86331 0.85626 0.0
H258 H 0.27742 0.96605 0.87544 0.0
H259 H 0.26471 0.77395 0.93192 0.0
H260 H 0.14547 0.71686 0.8575 0.0
H261 H 0.44917 0.08307 0.92746 0.0
H262 H 0.37235 0.90227 0.80096 0.0
H263 H 0.30439 0.00757 0.82074 0.0
C264 C 0.20872 0.38414 0.88605 0.0
C265 C 0.26553 0.41125 0.88666 0.0
N266 N 0.28359 0.46246 0.89803 0.0
N267 N 0.19148 0.4181 0.8974 0.0
C268 C 0.23814 0.46561 0.90433 0.0
H269 H 0.18171 0.3412 0.88023 0.0
Co270 Co 0.12083 0.39693 0.9119 0.0
C271 C 0.14247 0.50644 0.93436 0.0
O272 O 0.13465 0.49073 0.96513 0.0
N273 N 0.04968 0.37523 0.92702 0.0
C274 C 0.96636 0.36562 0.9324 0.0
C275 C 0.01877 0.39864 0.92041 0.0
C276 C 0.01516 0.32806 0.94284 0.0
N277 N 0.96397 0.32089 0.94633 0.0
O278 O 0.14731 0.40169 0.95545 0.0
H279 H 0.03253 0.43595 0.90634 0.0
H280 H 0.02703 0.29878 0.95085 0.0
O281 O 0.13837 0.47298 0.91204 0.0
C282 C 0.14938 0.35898 0.9638 0.0
O283 O 0.1249 0.31515 0.94509 0.0
N284 N 0.09601 0.38926 0.86888 0.0
C285 C 0.05225 0.37152 0.80611 0.0
C286 C 0.09695 0.42284 0.81479 0.0
C287 C 0.11842 0.43087 0.84641 0.0
C288 C 0.05441 0.33838 0.86034 0.0
C289 C 0.03128 0.32882 0.82919 0.0
H290 H 0.15319 0.47039 0.85276 0.0
H291 H 0.03865 0.30514 0.87796 0.0
H292 H 0.23905 0.50016 0.91664 0.0
H293 H 0.29144 0.39399 0.88077 0.0
H294 H 0.93216 0.37295 0.92974 0.0
H295 H 0.11465 0.4566 0.79745 0.0
H296 H 0.99774 0.28823 0.82309 0.0
C297 C 0.83333 0.62717 0.59729 0.0
C298 C 0.86245 0.59948 0.59654 0.0
N299 N 0.82873 0.54835 0.58524 0.0
N300 N 0.78191 0.59364 0.5861 0.0
C301 C 0.78036 0.54581 0.57913 0.0
H302 H 0.84976 0.67018 0.60313 0.0
Co303 Co 0.73283 0.61548 0.57193 0.0
C304 C 0.64378 0.50643 0.54971 0.0
O305 O 0.65144 0.52227 0.51897 0.0
N306 N 0.68366 0.63777 0.55721 0.0
C307 C 0.61022 0.64796 0.55241 0.0
C308 C 0.62963 0.61504 0.5645 0.0
C309 C 0.69614 0.6845 0.54091 0.0
N310 N 0.65227 0.69197 0.53774 0.0
O311 O 0.75381 0.61041 0.52823 0.0
H312 H 0.6063 0.5782 0.57901 0.0
H313 H 0.73705 0.71318 0.53223 0.0
O314 O 0.67371 0.53963 0.57199 0.0
C315 C 0.79859 0.6532 0.51993 0.0
O316 O 0.81817 0.69673 0.53891 0.0
N317 N 0.71668 0.62375 0.61502 0.0
C318 C 0.69333 0.64401 0.67799 0.0
C319 C 0.68347 0.59146 0.66919 0.0
C320 C 0.69585 0.58225 0.63756 0.0
C321 C 0.72874 0.67552 0.62347 0.0
C322 C 0.71675 0.68644 0.65469 0.0
H323 H 0.68918 0.54196 0.63131 0.0
H324 H 0.74703 0.70842 0.60565 0.0
H325 H 0.74635 0.51143 0.56695 0.0
H326 H 0.90559 0.61627 0.60234 0.0
H327 H 0.5689 0.64105 0.55545 0.0
H328 H 0.66701 0.55793 0.68669 0.0
H329 H 0.72502 0.7276 0.6603 0.0
C330 C 0.41122 0.21352 0.61049 0.0
C331 C 0.44152 0.27033 0.61073 0.0
N332 N 0.4794 0.28682 0.58664 0.0
N333 N 0.4306 0.19462 0.58663 0.0
C334 C 0.47194 0.24017 0.5726 0.0
H335 H 0.37688 0.18774 0.6263 0.0
Co336 Co 0.40545 0.12308 0.57239 0.0
C337 C 0.50843 0.13131 0.54688 0.0
O338 O 0.48437 0.10382 0.52016 0.0
N339 N 0.38017 0.05099 0.55785 0.0
C340 C 0.36537 0.96558 0.55394 0.0
C341 C 0.39937 0.01718 0.56651 0.0
C342 C 0.33434 0.01893 0.54029 0.0
N343 N 0.32418 0.96658 0.53755 0.0
O344 O 0.40545 0.14785 0.52881 0.0
H345 H 0.43468 0.02876 0.58207 0.0
H346 H 0.30839 0.03358 0.53023 0.0
O347 O 0.48095 0.14035 0.56829 0.0
C348 C 0.36303 0.15209 0.52316 0.0
O349 O 0.32266 0.13128 0.54462 0.0
N350 N 0.40253 0.09948 0.61543 0.0
C351 C 0.38864 0.05531 0.67794 0.0
C352 C 0.44062 0.09694 0.66747 0.0
C353 C 0.4468 0.11854 0.6359 0.0
C354 C 0.35134 0.06104 0.62584 0.0
C355 C 0.34359 0.0377 0.65686 0.0
H356 H 0.487 0.15058 0.62801 0.0
H357 H 0.31644 0.0477 0.60966 0.0
H358 H 0.49602 0.23905 0.55223 0.0
H359 H 0.43524 0.29736 0.62678 0.0
H360 H 0.36967 0.92972 0.55771 0.0
H361 H 0.47616 0.11198 0.68335 0.0
H362 H 0.30263 0.00654 0.66443 0.0
C363 C 0.80362 0.18836 0.59546 0.0
C364 C 0.74688 0.1587 0.59402 0.0
N365 N 0.72939 0.19159 0.58136 0.0
N366 N 0.82135 0.23929 0.5834 0.0
C367 C 0.77509 0.24006 0.57519 0.0
H368 H 0.83035 0.17265 0.60254 0.0
Co369 Co 0.89267 0.28861 0.57021 0.0
C370 C 0.88395 0.38467 0.54856 0.0
O371 O 0.91019 0.38846 0.52118 0.0
N372 N 0.96505 0.33776 0.55666 0.0
C373 C 0.05066 0.40877 0.55473 0.0
C374 C 0.9983 0.39012 0.56662 0.0
C375 C 0.9982 0.32544 0.53907 0.0
N376 N 0.05063 0.36778 0.5376 0.0
O377 O 0.86847 0.26847 0.52616 0.0
H378 H 0.98592 0.41249 0.58278 0.0
H379 H 0.98446 0.2856 0.52825 0.0
O380 O 0.87495 0.34706 0.56925 0.0
C381 C 0.86591 0.22318 0.51863 0.0
O382 O 0.8891 0.2036 0.53831 0.0
N383 N 0.91509 0.30411 0.6136 0.0
C384 C 0.95732 0.32666 0.67674 0.0
C385 C 0.91603 0.33828 0.66742 0.0
C386 C 0.89528 0.32659 0.63556 0.0
C387 C 0.95313 0.29004 0.62276 0.0
C388 C 0.97543 0.30168 0.65411 0.0
H389 H 0.86343 0.33561 0.62862 0.0
H390 H 0.96693 0.27051 0.60534 0.0
H391 H 0.77483 0.27362 0.56226 0.0
H392 H 0.72065 0.11582 0.6005 0.0
H393 H 0.08639 0.44853 0.55961 0.0
H394 H 0.90066 0.35707 0.6844 0.0
H395 H 1.0063 0.29091 0.66067 0.0
C396 C 0.60283 0.18906 0.07721 0.0
C397 C 0.58855 0.1445 0.05601 0.0
H398 H 0.57556 0.23843 0.10231 0.0
C399 C 0.53433 0.11459 0.04415 0.0
H400 H 0.64434 0.21285 0.08667 0.0
C401 C 0.49483 0.12827 0.05398 0.0
C402 C 0.50936 0.17289 0.07507 0.0
H403 H 0.52217 0.07991 0.02792 0.0
H404 H 0.45312 0.10464 0.04482 0.0
C405 C 0.56374 0.20366 0.08622 0.0
C406 C 0.88397 0.36677 0.05203 0.0
C407 C 0.83791 0.33528 0.072 0.0
H408 H 0.93378 0.44393 0.02752 0.0
C409 C 0.806 0.35796 0.08265 0.0
H410 H 0.90857 0.34953 0.04323 0.0
C411 C 0.82085 0.412 0.07432 0.0
C412 C 0.86688 0.44369 0.05427 0.0
H413 H 0.77017 0.33404 0.09791 0.0
H414 H 0.79614 0.42891 0.08347 0.0
C415 C 0.89795 0.42035 0.04285 0.0
C416 C 0.64997 0.44292 0.08345 0.0
C417 C 0.67306 0.49746 0.07265 0.0
H418 H 0.57867 0.36243 0.0843 0.0
C419 C 0.64228 0.51226 0.05225 0.0
H420 H 0.67342 0.43092 0.09904 0.0
C421 C 0.58879 0.4729 0.04288 0.0
C422 C 0.56493 0.41858 0.05455 0.0
H423 H 0.65993 0.55414 0.04338 0.0
H424 H 0.56561 0.4853 0.02731 0.0
C425 C 0.59603 0.40399 0.07493 0.0
C426 C 0.134 0.50032 0.43093 0.0
C427 C 0.18035 0.51489 0.41125 0.0
H428 H 0.08417 0.52788 0.45513 0.0
C429 C 0.2131 0.56964 0.40108 0.0
H430 H 0.10875 0.45829 0.43933 0.0
C431 C 0.19864 0.60903 0.40945 0.0
C432 C 0.15216 0.59466 0.42907 0.0
H433 H 0.24913 0.58147 0.38603 0.0
H434 H 0.22383 0.65074 0.40053 0.0
C435 C 0.12039 0.54011 0.44017 0.0
C436 C 0.45286 0.65214 0.40117 0.0
C437 C 0.50768 0.674 0.41118 0.0
H438 H 0.37153 0.58197 0.40087 0.0
C439 C 0.52214 0.64187 0.43063 0.0
H440 H 0.44103 0.67654 0.38631 0.0
C441 C 0.48222 0.58843 0.43986 0.0
C442 C 0.42756 0.56589 0.42904 0.0
H443 H 0.56416 0.65846 0.43895 0.0
H444 H 0.49439 0.56432 0.45474 0.0
C445 C 0.41332 0.59825 0.40956 0.0
C446 C 0.42909 0.89857 0.43827 0.0
C447 C 0.45229 0.86734 0.42693 0.0
H448 H 0.35876 0.91003 0.43739 0.0
C449 C 0.42095 0.82196 0.40648 0.0
H450 H 0.45246 0.93391 0.4539 0.0
C451 C 0.36731 0.80787 0.3977 0.0
C452 C 0.34481 0.83993 0.4083 0.0
H453 H 0.43781 0.79717 0.39741 0.0
H454 H 0.34356 0.77249 0.38216 0.0
C455 C 0.37595 0.88536 0.42865 0.0
C456 C 0.41034 0.81664 0.91077 0.0
C457 C 0.4255 0.86322 0.93034 0.0
H458 H 0.43667 0.76529 0.88723 0.0
C459 C 0.4802 0.89435 0.94121 0.0
H460 H 0.36839 0.79189 0.90213 0.0
C461 C 0.51939 0.87998 0.9318 0.0
C462 C 0.50406 0.83352 0.91216 0.0
H463 H 0.49297 0.93059 0.95617 0.0
H464 H 0.56153 0.90468 0.94009 0.0
C465 C 0.44913 0.80145 0.90221 0.0
C466 C 0.17367 0.60459 0.94879 0.0
C467 C 0.15567 0.56284 0.92518 0.0
H468 H 0.20183 0.6895 0.95845 0.0
C469 C 0.15096 0.57559 0.89245 0.0
H470 H 0.17757 0.5961 0.9742 0.0
C471 C 0.16457 0.62905 0.88347 0.0
C472 C 0.18378 0.67108 0.90693 0.0
H473 H 0.13667 0.54426 0.87368 0.0
H474 H 0.16124 0.6378 0.85803 0.0
C475 C 0.18788 0.65819 0.93972 0.0
C476 C 0.41566 0.59629 0.90486 0.0
C477 C 0.44599 0.58249 0.92641 0.0
H478 H 0.33917 0.56834 0.87941 0.0
C479 C 0.42198 0.52831 0.93839 0.0
H480 H 0.4331 0.63775 0.8953 0.0
C481 C 0.36903 0.48845 0.92845 0.0
C482 C 0.33882 0.50252 0.90707 0.0
H483 H 0.44452 0.51647 0.95489 0.0
H484 H 0.35117 0.44687 0.93785 0.0
C485 C 0.36219 0.55682 0.8957 0.0
C486 C 0.88764 0.52126 0.55515 0.0
C487 C 0.8431 0.5077 0.57624 0.0
H488 H 0.93468 0.49235 0.52907 0.0
C489 C 0.81121 0.45337 0.58739 0.0
H490 H 0.91212 0.56287 0.54592 0.0
C491 C 0.82451 0.41336 0.57833 0.0
C492 C 0.86892 0.42668 0.55709 0.0
H493 H 0.77646 0.44223 0.60346 0.0
H494 H 0.79978 0.37189 0.58775 0.0
C495 C 0.90006 0.48089 0.54531 0.0
C496 C 0.57591 0.40852 0.5353 0.0
C497 C 0.60015 0.45022 0.55892 0.0
H498 H 0.51832 0.32378 0.52566 0.0
C499 C 0.58269 0.43761 0.59166 0.0
H500 H 0.58828 0.41691 0.50988 0.0
C501 C 0.54242 0.38432 0.60066 0.0
C502 C 0.51912 0.34232 0.57719 0.0
H503 H 0.60005 0.46892 0.61042 0.0
H504 H 0.53038 0.37569 0.6261 0.0
C505 C 0.53607 0.35508 0.54438 0.0
C506 C 0.64253 0.12995 0.55282 0.0
C507 C 0.67428 0.17665 0.57217 0.0
H508 H 0.56515 0.07972 0.52872 0.0
C509 C 0.65219 0.20954 0.58184 0.0
H510 H 0.65937 0.10461 0.54476 0.0
C511 C 0.59835 0.19495 0.57329 0.0
C512 C 0.56632 0.14814 0.55401 0.0
H513 H 0.67636 0.24588 0.59658 0.0
H514 H 0.58175 0.22034 0.58172 0.0
C515 C 0.58911 0.11617 0.54343 0.0
C516 C 0.31485 0.13378 0.98572 0.0
C517 C 0.36378 0.17851 -0.00249 0.0
H518 H 0.27725 0.05758 0.95989 0.0
C519 C 0.41413 0.18127 0.99045 0.0
H520 H 0.27544 0.1306 0.99084 0.0
C521 C 0.41515 0.13858 0.97337 0.0
C522 C 0.36588 0.0925 0.96272 0.0
H523 H 0.45246 0.21474 -0.00023 0.0
H524 H 0.45441 0.14075 0.96976 0.0
C525 C 0.31588 0.09148 0.96837 0.0
C526 C 0.8277 0.23488 0.98874 0.0
C527 C 0.82739 0.18508 -0.00666 0.0
H528 H 0.8722 0.31775 0.97105 0.0
C529 C 0.87031 0.17928 0.97995 0.0
H530 H 0.79569 0.24092 -0.00068 0.0
C531 C 0.91403 0.22311 0.96363 0.0
C532 C 0.91632 0.27419 0.96065 0.0
H533 H 0.87113 0.14134 0.98317 0.0
H534 H 0.94652 0.21708 0.95395 0.0
C535 C 0.87185 0.27908 0.97269 0.0
C536 C 0.82699 0.69119 0.98372 0.0
C537 C 0.82272 0.64224 -0.0044 0.0
H538 H 0.78802 0.72906 0.9584 0.0
C539 C 0.77473 0.592 0.98899 0.0
H540 H 0.86352 0.7305 0.98846 0.0
C541 C 0.73066 0.59122 0.97235 0.0
C542 C 0.73391 0.64062 0.96184 0.0
H543 H 0.76987 0.55367 -0.00162 0.0
H544 H 0.69322 0.55218 0.96903 0.0
C545 C 0.78329 0.69039 0.9669 0.0
C546 C 0.09665 0.31825 0.51664 0.0
C547 C 0.09717 0.36795 0.52228 0.0
H548 H 0.13647 0.2785 0.49422 0.0
C549 C 0.14327 0.41752 0.51192 0.0
H550 H 0.06275 0.27943 0.525 0.0
C551 C 0.18638 0.41702 0.49487 0.0
C552 C 0.18398 0.3669 0.48768 0.0
H553 H 0.14499 0.45653 0.51566 0.0
H554 H 0.21979 0.45551 0.48561 0.0
C555 C 0.13935 0.31773 0.49941 0.0
C556 C 0.6014 0.77671 0.49449 0.0
C557 C 0.65091 0.82614 0.48903 0.0
H558 H 0.56319 0.69462 0.51342 0.0
C559 C 0.69993 0.83223 0.5021 0.0
H560 H 0.56311 0.77045 0.48416 0.0
C561 C 0.70004 0.78898 0.51898 0.0
C562 C 0.65118 0.73821 0.52286 0.0
H563 H 0.7387 0.8699 0.49822 0.0
H564 H 0.73878 0.79518 0.5284 0.0
C565 C 0.60157 0.73309 0.51112 0.0
C566 C 0.28149 0.87482 0.511 0.0
C567 C 0.27822 0.92101 0.52133 0.0
H568 H 0.24333 0.79888 0.48438 0.0
C569 C 0.22969 0.92245 0.51481 0.0
H570 H 0.31824 0.87232 0.51527 0.0
C571 C 0.18693 0.88044 0.49694 0.0
C572 C 0.19127 0.8356 0.4855 0.0
H573 H 0.22486 0.95643 0.523 0.0
H574 H 0.15107 0.88393 0.49118 0.0
C575 C 0.23835 0.83243 0.49341 0.0
C576 C 0.59285 0.86603 0.01159 0.0
C577 C 0.64238 0.91132 0.02263 0.0
H578 H 0.55482 0.78943 0.98553 0.0
C579 C 0.69161 0.91019 0.01867 0.0
H580 H 0.55423 0.86563 0.01409 0.0
C581 C 0.69189 0.86666 0.00236 0.0
C582 C 0.64293 0.82288 0.98985 0.0
H583 H 0.73029 0.94345 0.02761 0.0
H584 H 0.73091 0.86831 -0.00158 0.0
C585 C 0.59309 0.82212 -0.00458 0.0
C586 C 0.14437 0.7339 0.01446 0.0
C587 C 0.09544 0.73432 0.0219 0.0
H588 H 0.22293 0.77459 0.99041 0.0
C589 C 0.0917 0.78075 0.01275 0.0
H590 H 0.14919 0.69916 0.02093 0.0
C591 C 0.13381 0.82358 -0.00514 0.0
C592 C 0.1812 0.82167 0.98604 0.0
H593 H 0.05583 0.78389 0.01871 0.0
H594 H 0.12838 0.85747 0.98699 0.0
C595 C 0.18694 0.77732 -0.00304 0.0
C596 C 0.1842 0.31341 0.00139 0.0
C597 C 0.18992 0.36215 0.98804 0.0
H598 H 0.22132 0.2755 0.02861 0.0
C599 C 0.23869 0.41205 -0.00612 0.0
H600 H 0.14703 0.27434 -0.00273 0.0
C601 C 0.28202 0.41261 0.01127 0.0
C602 C 0.27728 0.36334 0.02337 0.0
H603 H 0.24469 0.45016 0.98337 0.0
H604 H 0.32003 0.45133 0.01392 0.0
C605 C 0.22718 0.31401 0.01898 0.0
C606 C 0.92069 0.69945 0.46401 0.0
C607 C 0.92148 0.65027 0.45901 0.0
H608 H 0.88036 0.73855 0.48662 0.0
C609 C 0.8771 0.6007 0.47092 0.0
H610 H 0.95324 0.73818 0.45455 0.0
C611 C 0.83449 0.60082 0.48877 0.0
C612 C 0.83564 0.65055 0.49522 0.0
H613 H 0.87642 0.56208 0.46777 0.0
H614 H 0.80253 0.56248 0.49914 0.0
C615 C 0.87846 0.6996 0.48203 0.0
C616 C 0.41371 0.23485 0.48694 0.0
C617 C 0.36377 0.19062 0.49816 0.0
H618 H 0.45361 0.31233 0.46214 0.0
C619 C 0.31427 0.18814 0.48915 0.0
H620 H 0.45256 0.23805 0.49365 0.0
C621 C 0.31465 0.23031 0.47074 0.0
C622 C 0.36465 0.27661 0.46122 0.0
H623 H 0.27507 0.15433 0.49727 0.0
H624 H 0.27552 0.2268 0.46463 0.0
C625 C 0.4142 0.2776 0.46887 0.0
C626 C 0.7771 0.18658 0.48786 0.0
C627 C 0.82569 0.18541 0.49443 0.0
H628 H 0.69579 0.14386 0.46763 0.0
C629 C 0.83124 0.14168 0.48222 0.0
H630 H 0.77124 0.21925 0.4975 0.0
C631 C 0.78821 0.09862 0.46516 0.0
C632 C 0.73826 0.09791 0.46012 0.0
H633 H 0.86826 0.13972 0.48693 0.0
H634 H 0.79387 0.06538 0.45646 0.0
C635 C 0.73372 0.14314 0.47092 0.0
C636 C 0.2993 0.34447 0.24913 0.0
C637 C 0.33996 0.36617 0.27339 0.0
H638 H 0.27939 0.31685 0.19982 0.0
C639 C 0.39264 0.37466 0.26656 0.0
H640 H 0.25846 0.33796 0.25396 0.0
C641 C 0.40437 0.36095 0.23594 0.0
C642 C 0.36392 0.33956 0.21129 0.0
H643 H 0.42438 0.39084 0.28517 0.0
H644 H 0.44497 0.36645 0.23187 0.0
C645 C 0.3113 0.33191 0.21827 0.0
C646 C 0.62688 0.01531 0.22534 0.0
C647 C 0.67589 0.02724 0.20914 0.0
H648 H 0.57783 0.98417 0.26865 0.0
C649 C 0.7132 0.01528 0.22499 0.0
H650 H 0.59692 0.02336 0.2137 0.0
C651 C 0.70169 0.9917 0.25613 0.0
C652 C 0.65285 0.97999 0.27244 0.0
H653 H 0.75168 0.02454 0.21347 0.0
H654 H 0.73107 0.98233 0.26732 0.0
C655 C 0.61554 0.99204 0.25666 0.0
C656 C 0.03143 0.701 0.21546 0.0
C657 C 0.98601 0.64838 0.20922 0.0
H658 H 0.09072 0.75495 0.25055 0.0
C659 C 0.96661 0.60904 0.23458 0.0
H660 H 0.04855 0.73205 0.19647 0.0
C661 C 0.99212 0.62187 0.26518 0.0
C662 C 0.03672 0.67457 0.27128 0.0
H663 H 0.93119 0.56851 0.23107 0.0
H664 H 0.97627 0.59098 0.28434 0.0
C665 C 0.05606 0.71412 0.2463 0.0
C666 C 0.6311 0.61576 0.72711 0.0
C667 C 0.67963 0.65477 0.71126 0.0
H668 H 0.58085 0.59501 0.77005 0.0
C669 C 0.71476 0.70453 0.72727 0.0
H670 H 0.60282 0.5773 0.71529 0.0
C671 C 0.70167 0.71509 0.75835 0.0
C672 C 0.65333 0.676 0.77431 0.0
H673 H 0.75277 0.73524 0.71595 0.0
H674 H 0.7294 0.75412 0.7698 0.0
C675 C 0.61811 0.62624 0.7583 0.0
C676 C 0.34154 0.9498 0.74598 0.0
C677 C 0.35765 0.98349 0.77382 0.0
H678 H 0.33857 0.94649 0.69359 0.0
C679 C 0.38678 0.04098 0.76995 0.0
H680 H 0.31881 0.90538 0.74839 0.0
C681 C 0.39864 0.06443 0.73872 0.0
C682 C 0.38068 0.03074 0.7109 0.0
H683 H 0.39984 0.06774 0.79113 0.0
H684 H 0.42018 0.10885 0.73632 0.0
C685 C 0.35254 0.97325 0.71476 0.0
C686 C 0.97059 0.33567 0.76896 0.0
C687 C 0.02801 0.36205 0.77298 0.0
H688 H 0.90317 0.30419 0.73519 0.0
C689 C 0.06201 0.3782 0.7452 0.0
H690 H 0.94354 0.32321 0.79004 0.0
C691 C 0.03896 0.36706 0.71393 0.0
C692 C 0.98154 0.3402 0.7099 0.0
H693 H 0.10636 0.39833 0.74765 0.0
H694 H 0.06604 0.37945 0.69286 0.0
C695 C 0.94756 0.32518 0.73767 0.0
loop_
_geom_bond_atom_site_label_1
_geom_bond_atom_site_label_2
_geom_bond_distance
_geom_bond_site_symmetry_2
_ccdc_geom_bond_type
C0 C1 1.351 . S
C0 N3 1.368 . S
C0 H5 0.931 . S
C1 C0 1.351 . S
C1 N2 1.373 . S
C1 H29 0.930 . S
N2 C1 1.373 . S
N2 C4 1.340 . S
N3 C0 1.368 . S
N3 C4 1.321 . S
N3 Co6 2.135 . S
C4 N2 1.340 . S
C4 N3 1.321 . S
C4 H28 0.930 . S
H5 C0 0.931 . S
Co6 N3 2.135 . S
Co6 N9 2.121 . S
Co6 O14 2.055 . S
Co6 O17 2.039 . S
Co6 N20 2.140 . S
C7 O8 1.227 . S
C7 O17 1.265 . S
O8 C7 1.227 . S
N9 Co6 2.121 . S
N9 C11 1.375 . S
N9 C12 1.313 . S
C10 C11 1.338 . S
C10 N13 1.377 . S
C10 H30 0.930 . S
C11 N9 1.375 . S
C11 C10 1.338 . S
C11 H15 0.931 . S
C12 N9 1.313 . S
C12 N13 1.344 . S
C12 H16 0.930 . S
N13 C10 1.377 . S
N13 C12 1.344 . S
O14 Co6 2.055 . S
O14 C18 1.253 . S
H15 C11 0.931 . S
H16 C12 0.930 . S
O17 Co6 2.039 . S
O17 C7 1.265 . S
C18 O14 1.253 . S
C18 O19 1.227 . S
O19 C18 1.227 . S
N20 Co6 2.140 . S
N20 C23 1.346 . S
N20 C24 1.345 . S
C21 C22 1.387 . S
C21 C25 1.391 . S
C22 C21 1.387 . S
C22 C23 1.369 . S
C22 H31 0.929 . S
C23 N20 1.346 . S
C23 C22 1.369 . S
C23 H26 0.928 . S
C24 N20 1.345 . S
C24 C25 1.371 . S
C24 H27 0.931 . S
C25 C21 1.391 . S
C25 C24 1.371 . S
C25 H32 0.930 . S
H26 C23 0.928 . S
H27 C24 0.931 . S
H28 C4 0.930 . S
H29 C1 0.930 . S
H30 C10 0.930 . S
H31 C22 0.929 . S
H32 C25 0.930 . S
C33 C34 1.351 . S
C33 N36 1.368 . S
C33 H38 0.931 . S
C34 C33 1.351 . S
C34 N35 1.373 . S
C34 H62 0.930 . S
N35 C34 1.373 . S
N35 C37 1.340 . S
N36 C33 1.368 . S
N36 C37 1.321 . S
N36 Co39 2.135 . S
C37 N35 1.340 . S
C37 N36 1.321 . S
C37 H61 0.930 . S
H38 C33 0.931 . S
Co39 N36 2.135 . S
Co39 N42 2.121 . S
Co39 O47 2.055 . S
Co39 O50 2.039 . S
Co39 N53 2.140 . S
C40 O41 1.227 . S
C40 O50 1.265 . S
O41 C40 1.227 . S
N42 Co39 2.121 . S
N42 C44 1.375 . S
N42 C45 1.313 . S
C43 C44 1.338 1_565 S
C43 N46 1.377 1_565 S
C43 H63 0.930 . S
C44 N42 1.375 . S
C44 C43 1.338 1_545 S
C44 H48 0.931 . S
C45 N42 1.313 . S
C45 N46 1.344 . S
C45 H49 0.930 . S
N46 C43 1.377 1_545 S
N46 C45 1.344 . S
O47 Co39 2.055 . S
O47 C51 1.253 . S
H48 C44 0.931 . S
H49 C45 0.930 . S
O50 Co39 2.039 . S
O50 C40 1.265 . S
C51 O47 1.253 . S
C51 O52 1.227 . S
O52 C51 1.227 . S
N53 Co39 2.140 . S
N53 C56 1.346 . S
N53 C57 1.345 . S
C54 C55 1.387 . S
C54 C58 1.391 . S
C55 C54 1.387 . S
C55 C56 1.369 . S
C55 H64 0.929 . S
C56 N53 1.346 . S
C56 C55 1.369 . S
C56 H59 0.928 . S
C57 N53 1.345 . S
C57 C58 1.371 . S
C57 H60 0.931 . S
C58 C54 1.391 . S
C58 C57 1.371 . S
C58 H65 0.930 . S
H59 C56 0.928 . S
H60 C57 0.931 . S
H61 C37 0.930 . S
H62 C34 0.930 . S
H63 C43 0.930 . S
H64 C55 0.929 . S
H65 C58 0.930 . S
C66 C67 1.351 . S
C66 N69 1.368 . S
C66 H71 0.931 . S
C67 C66 1.351 . S
C67 N68 1.373 . S
C67 H95 0.930 . S
N68 C67 1.373 . S
N68 C70 1.340 . S
N69 C66 1.368 . S
N69 C70 1.321 . S
N69 Co72 2.135 . S
C70 N68 1.340 . S
C70 N69 1.321 . S
C70 H94 0.930 . S
H71 C66 0.931 . S
Co72 N69 2.135 . S
Co72 N75 2.121 . S
Co72 O80 2.055 . S
Co72 O83 2.039 . S
Co72 N86 2.140 . S
C73 O74 1.227 . S
C73 O83 1.265 . S
O74 C73 1.227 . S
N75 Co72 2.121 . S
N75 C77 1.375 . S
N75 C78 1.313 . S
C76 C77 1.338 1_455 S
C76 N79 1.377 1_455 S
C76 H96 0.930 . S
C77 N75 1.375 . S
C77 C76 1.338 1_655 S
C77 H81 0.931 . S
C78 N75 1.313 . S
C78 N79 1.344 . S
C78 H82 0.930 . S
N79 C76 1.377 1_655 S
N79 C78 1.344 . S
O80 Co72 2.055 . S
O80 C84 1.253 . S
H81 C77 0.931 . S
H82 C78 0.930 . S
O83 Co72 2.039 . S
O83 C73 1.265 . S
C84 O80 1.253 . S
C84 O85 1.227 . S
O85 C84 1.227 . S
N86 Co72 2.140 . S
N86 C89 1.346 . S
N86 C90 1.345 . S
C87 C88 1.387 . S
C87 C91 1.391 . S
C88 C87 1.387 . S
C88 C89 1.369 . S
C88 H97 0.929 . S
C89 N86 1.346 . S
C89 C88 1.369 . S
C89 H92 0.928 . S
C90 N86 1.345 . S
C90 C91 1.371 . S
C90 H93 0.931 . S
C91 C87 1.391 . S
C91 C90 1.371 . S
C91 H98 0.930 . S
H92 C89 0.928 . S
H93 C90 0.931 . S
H94 C70 0.930 . S
H95 C67 0.930 . S
H96 C76 0.930 . S
H97 C88 0.929 . S
H98 C91 0.930 . S
C99 C100 1.351 . S
C99 N102 1.368 . S
C99 H104 0.931 . S
C100 C99 1.351 . S
C100 N101 1.373 . S
C100 H128 0.930 . S
N101 C100 1.373 . S
N101 C103 1.340 . S
N102 C99 1.368 . S
N102 C103 1.321 . S
N102 Co105 2.135 . S
C103 N101 1.340 . S
C103 N102 1.321 . S
C103 H127 0.930 . S
H104 C99 0.931 . S
Co105 N102 2.135 . S
Co105 N108 2.121 . S
Co105 O113 2.055 . S
Co105 O116 2.039 . S
Co105 N119 2.140 . S
C106 O107 1.227 . S
C106 O116 1.265 . S
O107 C106 1.227 . S
N108 Co105 2.121 . S
N108 C110 1.375 . S
N108 C111 1.313 . S
C109 C110 1.338 . S
C109 N112 1.377 . S
C109 H129 0.930 . S
C110 N108 1.375 . S
C110 C109 1.338 . S
C110 H114 0.931 . S
C111 N108 1.313 . S
C111 N112 1.344 . S
C111 H115 0.930 . S
N112 C109 1.377 . S
N112 C111 1.344 . S
O113 Co105 2.055 . S
O113 C117 1.253 . S
H114 C110 0.931 . S
H115 C111 0.930 . S
O116 Co105 2.039 . S
O116 C106 1.265 . S
C117 O113 1.253 . S
C117 O118 1.227 . S
O118 C117 1.227 . S
N119 Co105 2.140 . S
N119 C122 1.346 . S
N119 C123 1.345 . S
C120 C121 1.387 . S
C120 C124 1.391 . S
C121 C120 1.387 . S
C121 C122 1.369 . S
C121 H130 0.929 . S
C122 N119 1.346 . S
C122 C121 1.369 . S
C122 H125 0.928 . S
C123 N119 1.345 . S
C123 C124 1.371 . S
C123 H126 0.931 . S
C124 C120 1.391 . S
C124 C123 1.371 . S
C124 H131 0.930 . S
H125 C122 0.928 . S
H126 C123 0.931 . S
H127 C103 0.930 . S
H128 C100 0.930 . S
H129 C109 0.930 . S
H130 C121 0.929 . S
H131 C124 0.930 . S
C132 C133 1.351 . S
C132 N135 1.368 . S
C132 H137 0.931 . S
C133 C132 1.351 . S
C133 N134 1.373 . S
C133 H161 0.930 . S
N134 C133 1.373 . S
N134 C136 1.340 . S
N135 C132 1.368 . S
N135 C136 1.321 . S
N135 Co138 2.135 . S
C136 N134 1.340 . S
C136 N135 1.321 . S
C136 H160 0.930 . S
H137 C132 0.931 . S
Co138 N135 2.135 . S
Co138 N141 2.121 . S
Co138 O146 2.055 . S
Co138 O149 2.039 . S
Co138 N152 2.140 . S
C139 O140 1.227 . S
C139 O149 1.265 . S
O140 C139 1.227 . S
N141 Co138 2.121 . S
N141 C143 1.375 . S
N141 C144 1.313 . S
C142 C143 1.338 1_545 S
C142 N145 1.377 1_545 S
C142 H162 0.930 . S
C143 N141 1.375 . S
C143 C142 1.338 1_565 S
C143 H147 0.931 . S
C144 N141 1.313 . S
C144 N145 1.344 . S
C144 H148 0.930 . S
N145 C142 1.377 1_565 S
N145 C144 1.344 . S
O146 Co138 2.055 . S
O146 C150 1.253 . S
H147 C143 0.931 . S
H148 C144 0.930 . S
O149 Co138 2.039 . S
O149 C139 1.265 . S
C150 O146 1.253 . S
C150 O151 1.227 . S
O151 C150 1.227 . S
N152 Co138 2.140 . S
N152 C155 1.346 . S
N152 C156 1.345 . S
C153 C154 1.387 . S
C153 C157 1.391 . S
C154 C153 1.387 . S
C154 C155 1.369 . S
C154 H163 0.929 . S
C155 N152 1.346 . S
C155 C154 1.369 . S
C155 H158 0.928 . S
C156 N152 1.345 . S
C156 C157 1.371 . S
C156 H159 0.931 . S
C157 C153 1.391 . S
C157 C156 1.371 . S
C157 H164 0.930 . S
H158 C155 0.928 . S
H159 C156 0.931 . S
H160 C136 0.930 . S
H161 C133 0.930 . S
H162 C142 0.930 . S
H163 C154 0.929 . S
H164 C157 0.930 . S
C165 C166 1.351 . S
C165 N168 1.368 . S
C165 H170 0.931 . S
C166 C165 1.351 . S
C166 N167 1.373 . S
C166 H194 0.930 . S
N167 C166 1.373 . S
N167 C169 1.340 . S
N168 C165 1.368 . S
N168 C169 1.321 . S
N168 Co171 2.135 . S
C169 N167 1.340 . S
C169 N168 1.321 . S
C169 H193 0.930 . S
H170 C165 0.931 . S
Co171 N168 2.135 . S
Co171 N174 2.121 . S
Co171 O179 2.055 . S
Co171 O182 2.039 . S
Co171 N185 2.140 . S
C172 O173 1.227 . S
C172 O182 1.265 . S
O173 C172 1.227 . S
N174 Co171 2.121 . S
N174 C176 1.375 . S
N174 C177 1.313 . S
C175 C176 1.338 1_655 S
C175 N178 1.377 1_655 S
C175 H195 0.930 . S
C176 N174 1.375 . S
C176 C175 1.338 1_455 S
C176 H180 0.931 . S
C177 N174 1.313 . S
C177 N178 1.344 . S
C177 H181 0.930 . S
N178 C175 1.377 1_455 S
N178 C177 1.344 . S
O179 Co171 2.055 . S
O179 C183 1.253 . S
H180 C176 0.931 . S
H181 C177 0.930 . S
O182 Co171 2.039 . S
O182 C172 1.265 . S
C183 O179 1.253 . S
C183 O184 1.227 . S
O184 C183 1.227 . S
N185 Co171 2.140 . S
N185 C188 1.346 . S
N185 C189 1.345 . S
C186 C187 1.387 . S
C186 C190 1.391 . S
C187 C186 1.387 . S
C187 C188 1.369 . S
C187 H196 0.929 . S
C188 N185 1.346 . S
C188 C187 1.369 . S
C188 H191 0.928 . S
C189 N185 1.345 . S
C189 C190 1.371 . S
C189 H192 0.931 . S
C190 C186 1.391 . S
C190 C189 1.371 . S
C190 H197 0.930 . S
H191 C188 0.928 . S
H192 C189 0.931 . S
H193 C169 0.930 . S
H194 C166 0.930 . S
H195 C175 0.930 . S
H196 C187 0.929 . S
H197 C190 0.930 . S
C198 C199 1.351 . S
C198 N201 1.368 . S
C198 H203 0.931 . S
C199 C198 1.351 . S
C199 N200 1.373 . S
C199 H227 0.930 . S
N200 C199 1.373 . S
N200 C202 1.340 . S
N201 C198 1.368 . S
N201 C202 1.321 . S
N201 Co204 2.135 . S
C202 N200 1.340 . S
C202 N201 1.321 . S
C202 H226 0.930 . S
H203 C198 0.931 . S
Co204 N201 2.135 . S
Co204 N207 2.121 . S
Co204 O212 2.055 . S
Co204 O215 2.039 . S
Co204 N218 2.140 . S
C205 O206 1.227 . S
C205 O215 1.265 . S
O206 C205 1.227 . S
N207 Co204 2.121 . S
N207 C209 1.375 . S
N207 C210 1.313 . S
C208 C209 1.338 . S
C208 N211 1.377 . S
C208 H228 0.930 . S
C209 N207 1.375 . S
C209 C208 1.338 . S
C209 H213 0.931 . S
C210 N207 1.313 . S
C210 N211 1.344 . S
C210 H214 0.930 . S
N211 C208 1.377 . S
N211 C210 1.344 . S
O212 Co204 2.055 . S
O212 C216 1.253 . S
H213 C209 0.931 . S
H214 C210 0.930 . S
O215 Co204 2.039 . S
O215 C205 1.265 . S
C216 O212 1.253 . S
C216 O217 1.227 . S
O217 C216 1.227 . S
N218 Co204 2.140 . S
N218 C221 1.346 . S
N218 C222 1.345 . S
C219 C220 1.387 . S
C219 C223 1.391 . S
C220 C219 1.387 . S
C220 C221 1.369 . S
C220 H229 0.929 . S
C221 N218 1.346 . S
C221 C220 1.369 . S
C221 H224 0.928 . S
C222 N218 1.345 . S
C222 C223 1.371 . S
C222 H225 0.931 . S
C223 C219 1.391 . S
C223 C222 1.371 . S
C223 H230 0.930 . S
H224 C221 0.928 . S
H225 C222 0.931 . S
H226 C202 0.930 . S
H227 C199 0.930 . S
H228 C208 0.930 . S
H229 C220 0.929 . S
H230 C223 0.930 . S
C231 C232 1.351 . S
C231 N234 1.368 . S
C231 H236 0.931 . S
C232 C231 1.351 . S
C232 N233 1.373 . S
C232 H260 0.930 . S
N233 C232 1.373 . S
N233 C235 1.340 . S
N234 C231 1.368 . S
N234 C235 1.321 . S
N234 Co237 2.135 . S
C235 N233 1.340 . S
C235 N234 1.321 . S
C235 H259 0.930 . S
H236 C231 0.931 . S
Co237 N234 2.135 . S
Co237 N240 2.121 . S
Co237 O245 2.055 . S
Co237 O248 2.039 . S
Co237 N251 2.140 . S
C238 O239 1.227 . S
C238 O248 1.265 . S
O239 C238 1.227 . S
N240 Co237 2.121 . S
N240 C242 1.375 . S
N240 C243 1.313 . S
C241 C242 1.338 1_545 S
C241 N244 1.377 1_545 S
C241 H261 0.930 . S
C242 N240 1.375 . S
C242 C241 1.338 1_565 S
C242 H246 0.931 . S
C243 N240 1.313 . S
C243 N244 1.344 . S
C243 H247 0.930 . S
N244 C241 1.377 1_565 S
N244 C243 1.344 . S
O245 Co237 2.055 . S
O245 C249 1.253 . S
H246 C242 0.931 . S
H247 C243 0.930 . S
O248 Co237 2.039 . S
O248 C238 1.265 . S
C249 O245 1.253 . S
C249 O250 1.227 . S
O250 C249 1.227 . S
N251 Co237 2.140 . S
N251 C254 1.346 . S
N251 C255 1.345 . S
C252 C253 1.387 . S
C252 C256 1.391 . S
C253 C252 1.387 . S
C253 C254 1.369 . S
C253 H262 0.929 . S
C254 N251 1.346 . S
C254 C253 1.369 . S
C254 H257 0.928 . S
C255 N251 1.345 . S
C255 C256 1.371 . S
C255 H258 0.931 . S
C256 C252 1.391 . S
C256 C255 1.371 . S
C256 H263 0.930 . S
H257 C254 0.928 . S
H258 C255 0.931 . S
H259 C235 0.930 . S
H260 C232 0.930 . S
H261 C241 0.930 . S
H262 C253 0.929 . S
H263 C256 0.930 . S
C264 C265 1.351 . S
C264 N267 1.368 . S
C264 H269 0.931 . S
C265 C264 1.351 . S
C265 N266 1.373 . S
C265 H293 0.930 . S
N266 C265 1.373 . S
N266 C268 1.340 . S
N267 C264 1.368 . S
N267 C268 1.321 . S
N267 Co270 2.135 . S
C268 N266 1.340 . S
C268 N267 1.321 . S
C268 H292 0.930 . S
H269 C264 0.931 . S
Co270 N267 2.135 . S
Co270 N273 2.121 . S
Co270 O278 2.055 . S
Co270 O281 2.039 . S
Co270 N284 2.140 . S
C271 O272 1.227 . S
C271 O281 1.265 . S
O272 C271 1.227 . S
N273 Co270 2.121 . S
N273 C275 1.375 . S
N273 C276 1.313 . S
C274 C275 1.338 1_655 S
C274 N277 1.377 1_655 S
C274 H294 0.930 . S
C275 N273 1.375 . S
C275 C274 1.338 1_455 S
C275 H279 0.931 . S
C276 N273 1.313 . S
C276 N277 1.344 . S
C276 H280 0.930 . S
N277 C274 1.377 1_455 S
N277 C276 1.344 . S
O278 Co270 2.055 . S
O278 C282 1.253 . S
H279 C275 0.931 . S
H280 C276 0.930 . S
O281 Co270 2.039 . S
O281 C271 1.265 . S
C282 O278 1.253 . S
C282 O283 1.227 . S
O283 C282 1.227 . S
N284 Co270 2.140 . S
N284 C287 1.346 . S
N284 C288 1.345 . S
C285 C286 1.387 . S
C285 C289 1.391 . S
C286 C285 1.387 . S
C286 C287 1.369 . S
C286 H295 0.929 . S
C287 N284 1.346 . S
C287 C286 1.369 . S
C287 H290 0.928 . S
C288 N284 1.345 . S
C288 C289 1.371 . S
C288 H291 0.931 . S
C289 C285 1.391 . S
C289 C288 1.371 . S
C289 H296 0.930 . S
H290 C287 0.928 . S
H291 C288 0.931 . S
H292 C268 0.930 . S
H293 C265 0.930 . S
H294 C274 0.930 . S
H295 C286 0.929 . S
H296 C289 0.930 . S
C297 C298 1.351 . S
C297 N300 1.368 . S
C297 H302 0.931 . S
C298 C297 1.351 . S
C298 N299 1.373 . S
C298 H326 0.930 . S
N299 C298 1.373 . S
N299 C301 1.340 . S
N300 C297 1.368 . S
N300 C301 1.321 . S
N300 Co303 2.135 . S
C301 N299 1.340 . S
C301 N300 1.321 . S
C301 H325 0.930 . S
H302 C297 0.931 . S
Co303 N300 2.135 . S
Co303 N306 2.121 . S
Co303 O311 2.055 . S
Co303 O314 2.039 . S
Co303 N317 2.140 . S
C304 O305 1.227 . S
C304 O314 1.265 . S
O305 C304 1.227 . S
N306 Co303 2.121 . S
N306 C308 1.375 . S
N306 C309 1.313 . S
C307 C308 1.338 . S
C307 N310 1.377 . S
C307 H327 0.930 . S
C308 N306 1.375 . S
C308 C307 1.338 . S
C308 H312 0.931 . S
C309 N306 1.313 . S
C309 N310 1.344 . S
C309 H313 0.930 . S
N310 C307 1.377 . S
N310 C309 1.344 . S
O311 Co303 2.055 . S
O311 C315 1.253 . S
H312 C308 0.931 . S
H313 C309 0.930 . S
O314 Co303 2.039 . S
O314 C304 1.265 . S
C315 O311 1.253 . S
C315 O316 1.227 . S
O316 C315 1.227 . S
N317 Co303 2.140 . S
N317 C320 1.346 . S
N317 C321 1.345 . S
C318 C319 1.387 . S
C318 C322 1.391 . S
C319 C318 1.387 . S
C319 C320 1.369 . S
C319 H328 0.929 . S
C320 N317 1.346 . S
C320 C319 1.369 . S
C320 H323 0.928 . S
C321 N317 1.345 . S
C321 C322 1.371 . S
C321 H324 0.931 . S
C322 C318 1.391 . S
C322 C321 1.371 . S
C322 H329 0.930 . S
H323 C320 0.928 . S
H324 C321 0.931 . S
H325 C301 0.930 . S
H326 C298 0.930 . S
H327 C307 0.930 . S
H328 C319 0.929 . S
H329 C322 0.930 . S
C330 C331 1.351 . S
C330 N333 1.368 . S
C330 H335 0.931 . S
C331 C330 1.351 . S
C331 N332 1.373 . S
C331 H359 0.930 . S
N332 C331 1.373 . S
N332 C334 1.340 . S
N333 C330 1.368 . S
N333 C334 1.321 . S
N333 Co336 2.135 . S
C334 N332 1.340 . S
C334 N333 1.321 . S
C334 H358 0.930 . S
H335 C330 0.931 . S
Co336 N333 2.135 . S
Co336 N339 2.121 . S
Co336 O344 2.055 . S
Co336 O347 2.039 . S
Co336 N350 2.140 . S
C337 O338 1.227 . S
C337 O347 1.265 . S
O338 C337 1.227 . S
N339 Co336 2.121 . S
N339 C341 1.375 . S
N339 C342 1.313 . S
C340 C341 1.338 1_565 S
C340 N343 1.377 1_565 S
C340 H360 0.930 . S
C341 N339 1.375 . S
C341 C340 1.338 1_545 S
C341 H345 0.931 . S
C342 N339 1.313 . S
C342 N343 1.344 . S
C342 H346 0.930 . S
N343 C340 1.377 1_545 S
N343 C342 1.344 . S
O344 Co336 2.055 . S
O344 C348 1.253 . S
H345 C341 0.931 . S
H346 C342 0.930 . S
O347 Co336 2.039 . S
O347 C337 1.265 . S
C348 O344 1.253 . S
C348 O349 1.227 . S
O349 C348 1.227 . S
N350 Co336 2.140 . S
N350 C353 1.346 . S
N350 C354 1.345 . S
C351 C352 1.387 . S
C351 C355 1.391 . S
C352 C351 1.387 . S
C352 C353 1.369 . S
C352 H361 0.929 . S
C353 N350 1.346 . S
C353 C352 1.369 . S
C353 H356 0.928 . S
C354 N350 1.345 . S
C354 C355 1.371 . S
C354 H357 0.931 . S
C355 C351 1.391 . S
C355 C354 1.371 . S
C355 H362 0.930 . S
H356 C353 0.928 . S
H357 C354 0.931 . S
H358 C334 0.930 . S
H359 C331 0.930 . S
H360 C340 0.930 . S
H361 C352 0.929 . S
H362 C355 0.930 . S
C363 C364 1.351 . S
C363 N366 1.368 . S
C363 H368 0.931 . S
C364 C363 1.351 . S
C364 N365 1.373 . S
C364 H392 0.930 . S
N365 C364 1.373 . S
N365 C367 1.340 . S
N366 C363 1.368 . S
N366 C367 1.321 . S
N366 Co369 2.135 . S
C367 N365 1.340 . S
C367 N366 1.321 . S
C367 H391 0.930 . S
H368 C363 0.931 . S
Co369 N366 2.135 . S
Co369 N372 2.121 . S
Co369 O377 2.055 . S
Co369 O380 2.039 . S
Co369 N383 2.140 . S
C370 O371 1.227 . S
C370 O380 1.265 . S
O371 C370 1.227 . S
N372 Co369 2.121 . S
N372 C374 1.375 . S
N372 C375 1.313 . S
C373 C374 1.338 1_455 S
C373 N376 1.377 1_455 S
C373 H393 0.930 . S
C374 N372 1.375 . S
C374 C373 1.338 1_655 S
C374 H378 0.931 . S
C375 N372 1.313 . S
C375 N376 1.344 . S
C375 H379 0.930 . S
N376 C373 1.377 1_655 S
N376 C375 1.344 . S
O377 Co369 2.055 . S
O377 C381 1.253 . S
H378 C374 0.931 . S
H379 C375 0.930 . S
O380 Co369 2.039 . S
O380 C370 1.265 . S
C381 O377 1.253 . S
C381 O382 1.227 . S
O382 C381 1.227 . S
N383 Co369 2.140 . S
N383 C386 1.346 . S
N383 C387 1.345 . S
C384 C385 1.387 . S
C384 C388 1.391 . S
C385 C384 1.387 . S
C385 C386 1.369 . S
C385 H394 0.929 . S
C386 N383 1.346 . S
C386 C385 1.369 . S
C386 H389 0.928 . S
C387 N383 1.345 . S
C387 C388 1.371 . S
C387 H390 0.931 . S
C388 C384 1.391 . S
C388 C387 1.371 . S
C388 H395 0.930 . S
H389 C386 0.928 . S
H390 C387 0.931 . S
H391 C367 0.930 . S
H392 C364 0.930 . S
H393 C373 0.930 . S
H394 C385 0.929 . S
H395 C388 0.930 . S
C396 C397 1.387 . S
C396 H400 0.950 . S
C396 C405 1.390 . S
C397 C396 1.387 . S
C397 C399 1.387 . S
H398 C405 0.950 . S
C399 C397 1.387 . S
C399 C401 1.390 . S
C399 H403 0.950 . S
H400 C396 0.950 . S
C401 C399 1.390 . S
C401 C402 1.387 . S
C401 H404 0.950 . S
C402 C401 1.387 . S
C402 C405 1.387 . S
H403 C399 0.950 . S
H404 C401 0.950 . S
C405 C396 1.390 . S
C405 H398 0.950 . S
C405 C402 1.387 . S
C406 C407 1.387 . S
C406 H410 0.950 . S
C406 C415 1.390 . S
C407 C406 1.387 . S
C407 C409 1.387 . S
H408 C415 0.950 . S
C409 C407 1.387 . S
C409 C411 1.390 . S
C409 H413 0.950 . S
H410 C406 0.950 . S
C411 C409 1.390 . S
C411 C412 1.387 . S
C411 H414 0.950 . S
C412 C411 1.387 . S
C412 C415 1.387 . S
H413 C409 0.950 . S
H414 C411 0.950 . S
C415 C406 1.390 . S
C415 H408 0.950 . S
C415 C412 1.387 . S
C416 C417 1.387 . S
C416 H420 0.950 . S
C416 C425 1.390 . S
C417 C416 1.387 . S
C417 C419 1.387 . S
H418 C425 0.950 . S
C419 C417 1.387 . S
C419 C421 1.390 . S
C419 H423 0.950 . S
H420 C416 0.950 . S
C421 C419 1.390 . S
C421 C422 1.387 . S
C421 H424 0.950 . S
C422 C421 1.387 . S
C422 C425 1.387 . S
H423 C419 0.950 . S
H424 C421 0.950 . S
C425 C416 1.390 . S
C425 H418 0.950 . S
C425 C422 1.387 . S
C426 C427 1.387 . S
C426 H430 0.950 . S
C426 C435 1.390 . S
C427 C426 1.387 . S
C427 C429 1.387 . S
H428 C435 0.950 . S
C429 C427 1.387 . S
C429 C431 1.390 . S
C429 H433 0.950 . S
H430 C426 0.950 . S
C431 C429 1.390 . S
C431 C432 1.387 . S
C431 H434 0.950 . S
C432 C431 1.387 . S
C432 C435 1.387 . S
H433 C429 0.950 . S
H434 C431 0.950 . S
C435 C426 1.390 . S
C435 H428 0.950 . S
C435 C432 1.387 . S
C436 C437 1.387 . S
C436 H440 0.950 . S
C436 C445 1.390 . S
C437 C436 1.387 . S
C437 C439 1.387 . S
H438 C445 0.950 . S
C439 C437 1.387 . S
C439 C441 1.390 . S
C439 H443 0.950 . S
H440 C436 0.950 . S
C441 C439 1.390 . S
C441 C442 1.387 . S
C441 H444 0.950 . S
C442 C441 1.387 . S
C442 C445 1.387 . S
H443 C439 0.950 . S
H444 C441 0.950 . S
C445 C436 1.390 . S
C445 H438 0.950 . S
C445 C442 1.387 . S
C446 C447 1.387 . S
C446 H450 0.950 . S
C446 C455 1.390 . S
C447 C446 1.387 . S
C447 C449 1.387 . S
H448 C455 0.950 . S
C449 C447 1.387 . S
C449 C451 1.390 . S
C449 H453 0.950 . S
H450 C446 0.950 . S
C451 C449 1.390 . S
C451 C452 1.387 . S
C451 H454 0.950 . S
C452 C451 1.387 . S
C452 C455 1.387 . S
H453 C449 0.950 . S
H454 C451 0.950 . S
C455 C446 1.390 . S
C455 H448 0.950 . S
C455 C452 1.387 . S
C456 C457 1.387 . S
C456 H460 0.950 . S
C456 C465 1.390 . S
C457 C456 1.387 . S
C457 C459 1.387 . S
H458 C465 0.950 . S
C459 C457 1.387 . S
C459 C461 1.390 . S
C459 H463 0.950 . S
H460 C456 0.950 . S
C461 C459 1.390 . S
C461 C462 1.387 . S
C461 H464 0.950 . S
C462 C461 1.387 . S
C462 C465 1.387 . S
H463 C459 0.950 . S
H464 C461 0.950 . S
C465 C456 1.390 . S
C465 H458 0.950 . S
C465 C462 1.387 . S
C466 C467 1.387 . S
C466 H470 0.950 . S
C466 C475 1.390 . S
C467 C466 1.387 . S
C467 C469 1.387 . S
H468 C475 0.950 . S
C469 C467 1.387 . S
C469 C471 1.390 . S
C469 H473 0.950 . S
H470 C466 0.950 . S
C471 C469 1.390 . S
C471 C472 1.387 . S
C471 H474 0.950 . S
C472 C471 1.387 . S
C472 C475 1.387 . S
H473 C469 0.950 . S
H474 C471 0.950 . S
C475 C466 1.390 . S
C475 H468 0.950 . S
C475 C472 1.387 . S
C476 C477 1.387 . S
C476 H480 0.950 . S
C476 C485 1.390 . S
C477 C476 1.387 . S
C477 C479 1.387 . S
H478 C485 0.950 . S
C479 C477 1.387 . S
C479 C481 1.390 . S
C479 H483 0.950 . S
H480 C476 0.950 . S
C481 C479 1.390 . S
C481 C482 1.387 . S
C481 H484 0.950 . S
C482 C481 1.387 . S
C482 C485 1.387 . S
H483 C479 0.950 . S
H484 C481 0.950 . S
C485 C476 1.390 . S
C485 H478 0.950 . S
C485 C482 1.387 . S
C486 C487 1.387 . S
C486 H490 0.950 . S
C486 C495 1.390 . S
C487 C486 1.387 . S
C487 C489 1.387 . S
H488 C495 0.950 . S
C489 C487 1.387 . S
C489 C491 1.390 . S
C489 H493 0.950 . S
H490 C486 0.950 . S
C491 C489 1.390 . S
C491 C492 1.387 . S
C491 H494 0.950 . S
C492 C491 1.387 . S
C492 C495 1.387 . S
H493 C489 0.950 . S
H494 C491 0.950 . S
C495 C486 1.390 . S
C495 H488 0.950 . S
C495 C492 1.387 . S
C496 C497 1.387 . S
C496 H500 0.950 . S
C496 C505 1.390 . S
C497 C496 1.387 . S
C497 C499 1.387 . S
H498 C505 0.950 . S
C499 C497 1.387 . S
C499 C501 1.390 . S
C499 H503 0.950 . S
H500 C496 0.950 . S
C501 C499 1.390 . S
C501 C502 1.387 . S
C501 H504 0.950 . S
C502 C501 1.387 . S
C502 C505 1.387 . S
H503 C499 0.950 . S
H504 C501 0.950 . S
C505 C496 1.390 . S
C505 H498 0.950 . S
C505 C502 1.387 . S
C506 C507 1.387 . S
C506 H510 0.950 . S
C506 C515 1.390 . S
C507 C506 1.387 . S
C507 C509 1.387 . S
H508 C515 0.950 . S
C509 C507 1.387 . S
C509 C511 1.390 . S
C509 H513 0.950 . S
H510 C506 0.950 . S
C511 C509 1.390 . S
C511 C512 1.387 . S
C511 H514 0.950 . S
C512 C511 1.387 . S
C512 C515 1.387 . S
H513 C509 0.950 . S
H514 C511 0.950 . S
C515 C506 1.390 . S
C515 H508 0.950 . S
C515 C512 1.387 . S
C516 C517 1.387 . S
C516 H520 0.950 . S
C516 C525 1.390 1_554 S
C517 C516 1.387 . S
C517 C519 1.387 . S
H518 C525 0.950 . S
C519 C517 1.387 . S
C519 C521 1.390 1_554 S
C519 H523 0.950 . S
H520 C516 0.950 . S
C521 C519 1.390 1_556 S
C521 C522 1.387 . S
C521 H524 0.950 . S
C522 C521 1.387 . S
C522 C525 1.387 . S
H523 C519 0.950 . S
H524 C521 0.950 . S
C525 C516 1.390 1_556 S
C525 H518 0.950 . S
C525 C522 1.387 . S
C526 C527 1.387 . S
C526 H530 0.950 . S
C526 C535 1.390 1_554 S
C527 C526 1.387 . S
C527 C529 1.387 . S
H528 C535 0.950 . S
C529 C527 1.387 . S
C529 C531 1.390 1_554 S
C529 H533 0.950 . S
H530 C526 0.950 . S
C531 C529 1.390 1_556 S
C531 C532 1.387 . S
C531 H534 0.950 1_655 S
C532 C531 1.387 . S
C532 C535 1.387 . S
H533 C529 0.950 . S
H534 C531 0.950 1_455 S
C535 C526 1.390 1_556 S
C535 H528 0.950 . S
C535 C532 1.387 . S
C536 C537 1.387 . S
C536 H540 0.950 . S
C536 C545 1.390 1_554 S
C537 C536 1.387 . S
C537 C539 1.387 . S
H538 C545 0.950 . S
C539 C537 1.387 . S
C539 C541 1.390 1_554 S
C539 H543 0.950 . S
H540 C536 0.950 . S
C541 C539 1.390 1_556 S
C541 C542 1.387 . S
C541 H544 0.950 . S
C542 C541 1.387 . S
C542 C545 1.387 . S
H543 C539 0.950 . S
H544 C541 0.950 . S
C545 C536 1.390 1_556 S
C545 H538 0.950 . S
C545 C542 1.387 . S
C546 C547 1.387 . S
C546 H550 0.950 1_455 S
C546 C555 1.390 . S
C547 C546 1.387 . S
C547 C549 1.387 . S
H548 C555 0.950 . S
C549 C547 1.387 . S
C549 C551 1.390 . S
C549 H553 0.950 . S
H550 C546 0.950 1_655 S
C551 C549 1.390 . S
C551 C552 1.387 . S
C551 H554 0.950 . S
C552 C551 1.387 . S
C552 C555 1.387 . S
H553 C549 0.950 . S
H554 C551 0.950 . S
C555 C546 1.390 . S
C555 H548 0.950 . S
C555 C552 1.387 . S
C556 C557 1.387 . S
C556 H560 0.950 . S
C556 C565 1.390 . S
C557 C556 1.387 . S
C557 C559 1.387 . S
H558 C565 0.950 . S
C559 C557 1.387 . S
C559 C561 1.390 . S
C559 H563 0.950 . S
H560 C556 0.950 . S
C561 C559 1.390 . S
C561 C562 1.387 . S
C561 H564 0.950 . S
C562 C561 1.387 . S
C562 C565 1.387 . S
H563 C559 0.950 . S
H564 C561 0.950 . S
C565 C556 1.390 . S
C565 H558 0.950 . S
C565 C562 1.387 . S
C566 C567 1.387 . S
C566 H570 0.950 . S
C566 C575 1.390 . S
C567 C566 1.387 . S
C567 C569 1.387 . S
H568 C575 0.950 . S
C569 C567 1.387 . S
C569 C571 1.390 . S
C569 H573 0.950 1_565 S
H570 C566 0.950 . S
C571 C569 1.390 . S
C571 C572 1.387 . S
C571 H574 0.950 . S
C572 C571 1.387 . S
C572 C575 1.387 . S
H573 C569 0.950 1_545 S
H574 C571 0.950 . S
C575 C566 1.390 . S
C575 H568 0.950 . S
C575 C572 1.387 . S
C576 C577 1.387 . S
C576 H580 0.950 . S
C576 C585 1.390 1_554 S
C577 C576 1.387 . S
C577 C579 1.387 1_554 S
H578 C585 0.950 . S
C579 C577 1.387 1_556 S
C579 C581 1.390 . S
C579 H583 0.950 1_565 S
H580 C576 0.950 . S
C581 C579 1.390 . S
C581 C582 1.387 . S
C581 H584 0.950 . S
C582 C581 1.387 . S
C582 C585 1.387 . S
H583 C579 0.950 1_545 S
H584 C581 0.950 . S
C585 C576 1.390 1_556 S
C585 H578 0.950 . S
C585 C582 1.387 . S
C586 C587 1.387 . S
C586 H590 0.950 . S
C586 C595 1.390 1_554 S
C587 C586 1.387 . S
C587 C589 1.387 1_554 S
H588 C595 0.953 . S
C589 C587 1.387 1_556 S
C589 C591 1.390 . S
C589 H593 0.950 1_455 S
H590 C586 0.950 . S
C591 C589 1.390 . S
C591 C592 1.387 . S
C591 H594 0.950 . S
C592 C591 1.387 . S
C592 C595 1.387 . S
H593 C589 0.950 1_655 S
H594 C591 0.950 . S
C595 C586 1.390 1_556 S
C595 H588 0.953 . S
C595 C592 1.387 . S
C596 C597 1.387 . S
C596 H600 0.950 . S
C596 C605 1.390 1_556 S
C597 C596 1.387 . S
C597 C599 1.387 . S
H598 C605 0.950 . S
C599 C597 1.387 . S
C599 C601 1.390 1_556 S
C599 H603 0.950 . S
H600 C596 0.950 . S
C601 C599 1.390 1_554 S
C601 C602 1.387 . S
C601 H604 0.950 . S
C602 C601 1.387 . S
C602 C605 1.387 . S
H603 C599 0.950 . S
H604 C601 0.950 . S
C605 C596 1.390 1_554 S
C605 H598 0.950 . S
C605 C602 1.387 . S
C606 C607 1.387 . S
C606 H610 0.950 1_655 S
C606 C615 1.390 . S
C607 C606 1.387 . S
C607 C609 1.387 . S
H608 C615 0.950 . S
C609 C607 1.387 . S
C609 C611 1.390 . S
C609 H613 0.950 . S
H610 C606 0.950 1_455 S
C611 C609 1.390 . S
C611 C612 1.387 . S
C611 H614 0.950 . S
C612 C611 1.387 . S
C612 C615 1.387 . S
H613 C609 0.950 . S
H614 C611 0.950 . S
C615 C606 1.390 . S
C615 H608 0.950 . S
C615 C612 1.387 . S
C616 C617 1.387 . S
C616 H620 0.950 . S
C616 C625 1.390 . S
C617 C616 1.387 . S
C617 C619 1.387 . S
H618 C625 0.950 . S
C619 C617 1.387 . S
C619 C621 1.390 . S
C619 H623 0.950 . S
H620 C616 0.950 . S
C621 C619 1.390 . S
C621 C622 1.387 . S
C621 H624 0.950 . S
C622 C621 1.387 . S
C622 C625 1.387 . S
H623 C619 0.950 . S
H624 C621 0.950 . S
C625 C616 1.390 . S
C625 H618 0.950 . S
C625 C622 1.387 . S
C626 C627 1.387 . S
C626 H630 0.950 . S
C626 C635 1.390 . S
C627 C626 1.387 . S
C627 C629 1.387 . S
H628 C635 0.950 . S
C629 C627 1.387 . S
C629 C631 1.390 . S
C629 H633 0.950 . S
H630 C626 0.950 . S
C631 C629 1.390 . S
C631 C632 1.387 . S
C631 H634 0.950 1_545 S
C632 C631 1.387 . S
C632 C635 1.387 . S
H633 C629 0.950 . S
H634 C631 0.950 1_565 S
C635 C626 1.390 . S
C635 H628 0.950 . S
C635 C632 1.387 . S
C636 C637 1.387 . S
C636 H640 0.950 . S
C636 C645 1.390 . S
C637 C636 1.387 . S
C637 C639 1.387 . S
H638 C645 0.950 . S
C639 C637 1.387 . S
C639 C641 1.390 . S
C639 H643 0.950 . S
H640 C636 0.950 . S
C641 C639 1.390 . S
C641 C642 1.387 . S
C641 H644 0.950 . S
C642 C641 1.387 . S
C642 C645 1.387 . S
H643 C639 0.950 . S
H644 C641 0.950 . S
C645 C636 1.390 . S
C645 H638 0.950 . S
C645 C642 1.387 . S
C646 C647 1.387 . S
C646 H650 0.950 . S
C646 C655 1.390 1_545 S
C647 C646 1.387 . S
C647 C649 1.387 . S
H648 C655 0.950 . S
C649 C647 1.387 . S
C649 C651 1.390 1_545 S
C649 H653 0.950 . S
H650 C646 0.950 . S
C651 C649 1.390 1_565 S
C651 C652 1.387 . S
C651 H654 0.950 . S
C652 C651 1.387 . S
C652 C655 1.387 . S
H653 C649 0.950 . S
H654 C651 0.950 . S
C655 C646 1.390 1_565 S
C655 H648 0.950 . S
C655 C652 1.387 . S
C656 C657 1.387 . S
C656 H660 0.950 . S
C656 C665 1.390 1_655 S
C657 C656 1.387 . S
C657 C659 1.387 . S
H658 C665 0.950 . S
C659 C657 1.387 . S
C659 C661 1.390 1_655 S
C659 H663 0.950 . S
H660 C656 0.950 . S
C661 C659 1.390 1_455 S
C661 C662 1.387 . S
C661 H664 0.950 . S
C662 C661 1.387 . S
C662 C665 1.387 . S
H663 C659 0.950 . S
H664 C661 0.950 . S
C665 C656 1.390 1_455 S
C665 H658 0.950 . S
C665 C662 1.387 . S
C666 C667 1.387 . S
C666 H670 0.950 . S
C666 C675 1.390 . S
C667 C666 1.387 . S
C667 C669 1.387 . S
H668 C675 0.950 . S
C669 C667 1.387 . S
C669 C671 1.390 . S
C669 H673 0.950 . S
H670 C666 0.950 . S
C671 C669 1.390 . S
C671 C672 1.387 . S
C671 H674 0.950 . S
C672 C671 1.387 . S
C672 C675 1.387 . S
H673 C669 0.950 . S
H674 C671 0.950 . S
C675 C666 1.390 . S
C675 H668 0.950 . S
C675 C672 1.387 . S
C676 C677 1.387 . S
C676 H680 0.950 . S
C676 C685 1.390 1_565 S
C677 C676 1.387 . S
C677 C679 1.387 . S
H678 C685 0.950 . S
C679 C677 1.387 . S
C679 C681 1.390 1_565 S
C679 H683 0.950 . S
H680 C676 0.950 . S
C681 C679 1.390 1_545 S
C681 C682 1.387 . S
C681 H684 0.950 . S
C682 C681 1.387 . S
C682 C685 1.387 . S
H683 C679 0.950 . S
H684 C681 0.950 . S
C685 C676 1.390 1_545 S
C685 H678 0.950 . S
C685 C682 1.387 . S
C686 C687 1.387 . S
C686 H690 0.950 . S
C686 C695 1.390 1_455 S
C687 C686 1.387 . S
C687 C689 1.387 . S
H688 C695 0.950 . S
C689 C687 1.387 . S
C689 C691 1.390 1_455 S
C689 H693 0.950 . S
H690 C686 0.950 . S
C691 C689 1.390 1_655 S
C691 C692 1.387 . S
C691 H694 0.950 . S
C692 C691 1.387 . S
C692 C695 1.387 . S
H693 C689 0.950 . S
H694 C691 0.950 . S
C695 C686 1.390 1_655 S
C695 H688 0.950 . S
C695 C692 1.387 . S
C397 C40 1.687 . S
C402 N2 1.564 . S
C407 N35 1.569 . S
C412 C73 1.691 . S
C417 N68 1.564 . S
C422 C7 1.687 . S
C427 N101 1.568 . S
C432 C172 1.690 . S
C437 N134 1.564 . S
C442 C106 1.687 . S
C447 C139 1.691 . S
C452 N167 1.569 . S
C457 C238 1.691 . S
C462 N200 1.569 . S
C467 C271 1.689 . S
C472 N233 1.567 . S
C477 C205 1.689 . S
C482 N266 1.566 . S
C487 N299 1.566 . S
C492 C370 1.689 . S
C497 C304 1.689 . S
C502 N332 1.566 . S
C507 N365 1.564 . S
C512 C337 1.687 . S
C517 C18 1.395 . S
C522 N244 1.376 1_545 S
C527 C51 1.393 . S
C532 N277 1.374 1_655 S
C537 C84 1.394 . S
C542 N211 1.376 . S
C547 N376 1.376 1_455 S
C552 C117 1.394 . S
C557 C150 1.395 . S
C562 N310 1.375 . S
C567 N343 1.375 1_565 S
C572 C183 1.395 . S
C577 N46 1.376 1_565 S
C582 C216 1.394 . S
C587 N79 1.376 1_455 S
C592 C249 1.393 . S
C597 C282 1.393 . S
C602 N13 1.374 . S
C607 N178 1.374 1_655 S
C612 C315 1.393 . S
C617 C348 1.393 . S
C622 N112 1.376 . S
C627 C381 1.393 . S
C632 N145 1.376 1_545 S
C637 C120 1.484 . S
C642 C21 1.483 . S
C647 C54 1.485 . S
C652 C153 1.485 . S
C657 C87 1.483 . S
C662 C186 1.483 . S
C667 C318 1.484 . S
C672 C219 1.483 . S
C677 C252 1.483 . S
C682 C351 1.483 . S
C687 C285 1.483 . S
C692 C384 1.483 . S
