# Generated by pormake.
# Topology wfv, (7)-cn, num edge types: 1
# Building blocks:
#     Node 0, Type 0, BuildingBlock: NUHQUE_clean_sbu_2, # of connection points: 7
#     Node 1, Type 0, BuildingBlock: NUHQUE_clean_sbu_2, # of connection points: 7
#     Node 2, Type 0, BuildingBlock: NUHQUE_clean_sbu_2, # of connection points: 7
#     Node 3, Type 0, BuildingBlock: NUHQUE_clean_sbu_2, # of connection points: 7
#     Node 4, Type 0, BuildingBlock: NUHQUE_clean_sbu_2, # of connection points: 7
#     Node 5, Type 0, BuildingBlock: NUHQUE_clean_sbu_2, # of connection points: 7
#     Node 6, Type 0, BuildingBlock: NUHQUE_clean_sbu_2, # of connection points: 7
#     Node 7, Type 0, BuildingBlock: NUHQUE_clean_sbu_2, # of connection points: 7
#     Node 8, Type 0, BuildingBlock: NUHQUE_clean_sbu_2, # of connection points: 7
#     Node 9, Type 0, BuildingBlock: NUHQUE_clean_sbu_2, # of connection points: 7
#     Node 10, Type 0, BuildingBlock: NUHQUE_clean_sbu_2, # of connection points: 7
#     Node 11, Type 0, BuildingBlock: NUHQUE_clean_sbu_2, # of connection points: 7
#     Node 12, Type 0, BuildingBlock: NUHQUE_clean_sbu_2, # of connection points: 7
#     Node 13, Type 0, BuildingBlock: NUHQUE_clean_sbu_2, # of connection points: 7
#     Node 14, Type 0, BuildingBlock: NUHQUE_clean_sbu_2, # of connection points: 7
#     Node 15, Type 0, BuildingBlock: NUHQUE_clean_sbu_2, # of connection points: 7
#     Edge 16, Type (0, 0), BuildingBlock: ZUJKAS_clean_linker_0, # of connection points: 2
#     Edge 17, Type (0, 0), BuildingBlock: ZUJKAS_clean_linker_0, # of connection points: 2
#     Edge 18, Type (0, 0), BuildingBlock: ZUJKAS_clean_linker_0, # of connection points: 2
#     Edge 19, Type (0, 0), BuildingBlock: ZUJKAS_clean_linker_0, # of connection points: 2
#     Edge 20, Type (0, 0), BuildingBlock: ZUJKAS_clean_linker_0, # of connection points: 2
#     Edge 21, Type (0, 0), BuildingBlock: ZUJKAS_clean_linker_0, # of connection points: 2
#     Edge 22, Type (0, 0), BuildingBlock: ZUJKAS_clean_linker_0, # of connection points: 2
#     Edge 23, Type (0, 0), BuildingBlock: ZUJKAS_clean_linker_0, # of connection points: 2
#     Edge 24, Type (0, 0), BuildingBlock: ZUJKAS_clean_linker_0, # of connection points: 2
#     Edge 25, Type (0, 0), BuildingBlock: ZUJKAS_clean_linker_0, # of connection points: 2
#     Edge 26, Type (0, 0), BuildingBlock: ZUJKAS_clean_linker_0, # of connection points: 2
#     Edge 27, Type (0, 0), BuildingBlock: ZUJKAS_clean_linker_0, # of connection points: 2
#     Edge 28, Type (0, 0), BuildingBlock: ZUJKAS_clean_linker_0, # of connection points: 2
#     Edge 29, Type (0, 0), BuildingBlock: ZUJKAS_clean_linker_0, # of connection points: 2
#     Edge 30, Type (0, 0), BuildingBlock: ZUJKAS_clean_linker_0, # of connection points: 2
#     Edge 31, Type (0, 0), BuildingBlock: ZUJKAS_clean_linker_0, # of connection points: 2
#     Edge 32, Type (0, 0), BuildingBlock: ZUJKAS_clean_linker_0, # of connection points: 2
#     Edge 33, Type (0, 0), BuildingBlock: ZUJKAS_clean_linker_0, # of connection points: 2
#     Edge 34, Type (0, 0), BuildingBlock: ZUJKAS_clean_linker_0, # of connection points: 2
#     Edge 35, Type (0, 0), BuildingBlock: ZUJKAS_clean_linker_0, # of connection points: 2
#     Edge 36, Type (0, 0), BuildingBlock: ZUJKAS_clean_linker_0, # of connection points: 2
#     Edge 37, Type (0, 0), BuildingBlock: ZUJKAS_clean_linker_0, # of connection points: 2
#     Edge 38, Type (0, 0), BuildingBlock: ZUJKAS_clean_linker_0, # of connection points: 2
#     Edge 39, Type (0, 0), BuildingBlock: ZUJKAS_clean_linker_0, # of connection points: 2
#     Edge 40, Type (0, 0), BuildingBlock: ZUJKAS_clean_linker_0, # of connection points: 2
#     Edge 41, Type (0, 0), BuildingBlock: ZUJKAS_clean_linker_0, # of connection points: 2
#     Edge 42, Type (0, 0), BuildingBlock: ZUJKAS_clean_linker_0, # of connection points: 2
#     Edge 43, Type (0, 0), BuildingBlock: ZUJKAS_clean_linker_0, # of connection points: 2
#     Edge 44, Type (0, 0), BuildingBlock: ZUJKAS_clean_linker_0, # of connection points: 2
#     Edge 45, Type (0, 0), BuildingBlock: ZUJKAS_clean_linker_0, # of connection points: 2
#     Edge 46, Type (0, 0), BuildingBlock: ZUJKAS_clean_linker_0, # of connection points: 2
#     Edge 47, Type (0, 0), BuildingBlock: ZUJKAS_clean_linker_0, # of connection points: 2
#     Edge 48, Type (0, 0), BuildingBlock: ZUJKAS_clean_linker_0, # of connection points: 2
#     Edge 49, Type (0, 0), BuildingBlock: ZUJKAS_clean_linker_0, # of connection points: 2
#     Edge 50, Type (0, 0), BuildingBlock: ZUJKAS_clean_linker_0, # of connection points: 2
#     Edge 51, Type (0, 0), BuildingBlock: ZUJKAS_clean_linker_0, # of connection points: 2
#     Edge 52, Type (0, 0), BuildingBlock: ZUJKAS_clean_linker_0, # of connection points: 2
#     Edge 53, Type (0, 0), BuildingBlock: ZUJKAS_clean_linker_0, # of connection points: 2
#     Edge 54, Type (0, 0), BuildingBlock: ZUJKAS_clean_linker_0, # of connection points: 2
#     Edge 55, Type (0, 0), BuildingBlock: ZUJKAS_clean_linker_0, # of connection points: 2
#     Edge 56, Type (0, 0), BuildingBlock: ZUJKAS_clean_linker_0, # of connection points: 2
#     Edge 57, Type (0, 0), BuildingBlock: ZUJKAS_clean_linker_0, # of connection points: 2
#     Edge 58, Type (0, 0), BuildingBlock: ZUJKAS_clean_linker_0, # of connection points: 2
#     Edge 59, Type (0, 0), BuildingBlock: ZUJKAS_clean_linker_0, # of connection points: 2
#     Edge 60, Type (0, 0), BuildingBlock: ZUJKAS_clean_linker_0, # of connection points: 2
#     Edge 61, Type (0, 0), BuildingBlock: ZUJKAS_clean_linker_0, # of connection points: 2
#     Edge 62, Type (0, 0), BuildingBlock: ZUJKAS_clean_linker_0, # of connection points: 2
#     Edge 63, Type (0, 0), BuildingBlock: ZUJKAS_clean_linker_0, # of connection points: 2
#     Edge 64, Type (0, 0), BuildingBlock: ZUJKAS_clean_linker_0, # of connection points: 2
#     Edge 65, Type (0, 0), BuildingBlock: ZUJKAS_clean_linker_0, # of connection points: 2
#     Edge 66, Type (0, 0), BuildingBlock: ZUJKAS_clean_linker_0, # of connection points: 2
#     Edge 67, Type (0, 0), BuildingBlock: ZUJKAS_clean_linker_0, # of connection points: 2
#     Edge 68, Type (0, 0), BuildingBlock: ZUJKAS_clean_linker_0, # of connection points: 2
#     Edge 69, Type (0, 0), BuildingBlock: ZUJKAS_clean_linker_0, # of connection points: 2
#     Edge 70, Type (0, 0), BuildingBlock: ZUJKAS_clean_linker_0, # of connection points: 2
#     Edge 71, Type (0, 0), BuildingBlock: ZUJKAS_clean_linker_0, # of connection points: 2
# Relax obj value: 0.195
# Max RMSD: 0.255
# Mean RMSD: 0.255
data_MOF--net-wfv--node1-NUHQUE_clean_sbu_2--edge1-ZUJKAS_clean_linker_0
_symmetry_space_group_name_H-M    P1
_symmetry_Int_Tables_number       1
_symmetry_cell_setting            triclinic
loop_
_symmetry_equiv_pos_as_xyz
'x, y, z'
_cell_length_a     56.922471
_cell_length_b     56.997474
_cell_length_c     56.405125
_cell_angle_alpha  90.064841
_cell_angle_beta   89.92641
_cell_angle_gamma 89.982956
loop_
_atom_site_label
_atom_site_type_symbol
_atom_site_fract_x
_atom_site_fract_y
_atom_site_fract_z
_atom_type_partial_charge
O0 O 0.66682 0.11353 0.07861 0.0
Tb1 Tb 0.70017 0.10019 0.09121 0.0
Eu2 Eu 0.6986 0.01908 0.10839 0.0
C3 C 0.66223 0.11031 0.05599 0.0
O4 O 0.6759 0.09607 0.04389 0.0
C5 C 0.72258 0.05154 0.07307 0.0
O6 O 0.72761 0.00223 0.12945 0.0
C7 C 0.66579 0.98931 0.09703 0.0
C8 C 0.74713 0.01385 0.13359 0.0
O9 O 0.74904 0.03551 0.12591 0.0
C10 C 0.6977 0.06874 0.13564 0.0
C11 C 0.64043 0.98324 0.09551 0.0
C12 C 0.62455 0.99532 0.08056 0.0
C13 C 0.60106 0.98762 0.07855 0.0
C14 C 0.59387 0.96765 0.09105 0.0
C15 C 0.60962 0.95475 0.1049 0.0
C16 C 0.63272 0.96295 0.10752 0.0
O17 O 0.70518 0.06348 0.0824 0.0
O18 O 0.72288 0.02908 0.07815 0.0
O19 O 0.72343 0.11872 0.06651 0.0
O20 O 0.72275 0.12874 0.10287 0.0
C21 C 0.7316 0.13349 0.08215 0.0
O22 O 0.68574 0.05438 0.12175 0.0
O23 O 0.70066 0.09072 0.12874 0.0
O24 O 0.67532 0.9904 0.11826 0.0
O25 O 0.67488 0.00432 0.08185 0.0
H26 H 0.63038 0.01037 0.07042 0.0
H27 H 0.57595 0.96146 0.08907 0.0
H28 H 0.6451 0.95283 0.11793 0.0
O29 O 0.38979 0.65766 0.09299 0.0
Tb30 Tb 0.40335 0.69173 0.10279 0.0
Eu31 Eu 0.48446 0.6921 0.12096 0.0
C32 C 0.39268 0.65207 0.07059 0.0
O33 O 0.40665 0.66527 0.05772 0.0
C34 C 0.45132 0.7126 0.08349 0.0
O35 O 0.50296 0.72154 0.13995 0.0
C36 C 0.51297 0.6584 0.10899 0.0
C37 C 0.49259 0.74204 0.14222 0.0
O38 O 0.47079 0.74433 0.13496 0.0
C39 C 0.43459 0.69362 0.14734 0.0
C40 C 0.51877 0.63319 0.10564 0.0
C41 C 0.50653 0.61835 0.0897 0.0
C42 C 0.51422 0.59505 0.086 0.0
C43 C 0.53437 0.5871 0.09777 0.0
C44 C 0.54737 0.6019 0.11258 0.0
C45 C 0.53915 0.6247 0.11692 0.0
O46 O 0.43991 0.6944 0.09189 0.0
O47 O 0.47323 0.71503 0.09034 0.0
O48 O 0.38663 0.71382 0.07584 0.0
O49 O 0.37365 0.71451 0.11112 0.0
C50 C 0.37053 0.72249 0.08975 0.0
O51 O 0.44881 0.68066 0.13425 0.0
O52 O 0.41271 0.69638 0.14006 0.0
O53 O 0.51114 0.6665 0.1308 0.0
O54 O 0.49918 0.6691 0.09372 0.0
H55 H 0.49138 0.62486 0.08013 0.0
H56 H 0.54062 0.56941 0.09449 0.0
H57 H 0.54938 0.63636 0.12807 0.0
O58 O 0.85789 0.39024 0.10414 0.0
Tb59 Tb 0.82285 0.40485 0.10193 0.0
Eu60 Eu 0.81666 0.48478 0.11965 0.0
C61 C 0.87379 0.39653 0.08848 0.0
O62 O 0.86997 0.41541 0.07571 0.0
C63 C 0.80188 0.45066 0.07969 0.0
O64 O 0.78544 0.50152 0.13742 0.0
C65 C 0.85 0.5147 0.11104 0.0
C66 C 0.76525 0.49036 0.13807 0.0
O67 O 0.76405 0.46902 0.12932 0.0
C68 C 0.81544 0.43514 0.14565 0.0
C69 C 0.8753 0.5202 0.10832 0.0
C70 C 0.88991 0.5089 0.09149 0.0
C71 C 0.91337 0.51631 0.08845 0.0
C72 C 0.92175 0.53526 0.10184 0.0
C73 C 0.9072 0.5473 0.11773 0.0
C74 C 0.88419 0.53932 0.12133 0.0
O75 O 0.82086 0.44038 0.08803 0.0
O76 O 0.79738 0.47208 0.08712 0.0
O77 O 0.79289 0.38076 0.10268 0.0
O78 O 0.81501 0.38134 0.07239 0.0
C79 C 0.79692 0.37123 0.08207 0.0
O80 O 0.82845 0.44938 0.13275 0.0
O81 O 0.8136 0.41319 0.13846 0.0
O82 O 0.84204 0.51035 0.13253 0.0
O83 O 0.83919 0.50282 0.09427 0.0
H84 H 0.88309 0.4947 0.08072 0.0
H85 H 0.93957 0.54142 0.09904 0.0
H86 H 0.87271 0.54887 0.1333 0.0
O87 O 0.12012 0.84532 0.09805 0.0
Tb88 Tb 0.10355 0.81138 0.10173 0.0
Eu89 Eu 0.02561 0.80976 0.12941 0.0
C90 C 0.11521 0.85747 0.07891 0.0
O91 O 0.09706 0.85099 0.06609 0.0
C92 C 0.05402 0.79285 0.08578 0.0
O93 O 0.01206 0.77889 0.15006 0.0
C94 C 0.99409 0.84251 0.12578 0.0
C95 C 0.02284 0.75856 0.14857 0.0
O96 O 0.04231 0.75712 0.13611 0.0
C97 C 0.07769 0.80904 0.14908 0.0
C98 C 0.98832 0.86777 0.1242 0.0
C99 C 0.99865 0.88275 0.1072 0.0
C100 C 0.99142 0.90631 0.10563 0.0
C101 C 0.97387 0.91467 0.12087 0.0
C102 C 0.96278 0.89983 0.13717 0.0
C103 C 0.97024 0.87642 0.13888 0.0
O104 O 0.06634 0.81104 0.09287 0.0
O105 O 0.0333 0.78968 0.09565 0.0
O106 O 0.12239 0.79815 0.07063 0.0
O107 O 0.12711 0.78108 0.1036 0.0
C108 C 0.13375 0.78156 0.08151 0.0
O109 O 0.06249 0.82179 0.13712 0.0
O110 O 0.09857 0.80539 0.13959 0.0
O111 O 1.00171 0.83453 0.14627 0.0
O112 O 0.00361 0.83203 0.10729 0.0
H113 H 0.01186 0.87611 0.09508 0.0
H114 H 0.96761 0.93253 0.11874 0.0
H115 H 0.96151 0.86473 0.15122 0.0
O116 O 0.65029 0.3872 0.40713 0.0
Tb117 Tb 0.68272 0.40573 0.39981 0.0
Eu118 Eu 0.68218 0.48615 0.37845 0.0
C119 C 0.6405 0.39037 0.42801 0.0
O120 O 0.64781 0.40794 0.44117 0.0
C121 C 0.70149 0.4545 0.41854 0.0
O122 O 0.71266 0.50252 0.35913 0.0
C123 C 0.649 0.51625 0.38701 0.0
C124 C 0.73298 0.49156 0.35836 0.0
O125 O 0.73442 0.47027 0.36714 0.0
C126 C 0.68205 0.4352 0.35454 0.0
C127 C 0.62394 0.52216 0.39083 0.0
C128 C 0.60962 0.51033 0.40747 0.0
C129 C 0.58645 0.5181 0.4117 0.0
C130 C 0.57808 0.53792 0.39967 0.0
C131 C 0.59243 0.55046 0.38401 0.0
C132 C 0.61511 0.54213 0.37918 0.0
O133 O 0.6833 0.44228 0.41121 0.0
O134 O 0.7036 0.47607 0.41054 0.0
O135 O 0.70184 0.38582 0.42678 0.0
O136 O 0.71278 0.38355 0.39098 0.0
C137 C 0.71653 0.37576 0.4123 0.0
O138 O 0.67035 0.44977 0.36834 0.0
O139 O 0.68457 0.41338 0.36192 0.0
O140 O 0.6559 0.51078 0.3654 0.0
O141 O 0.66059 0.50525 0.40385 0.0
H142 H 0.61647 0.49548 0.41724 0.0
H143 H 0.56053 0.54434 0.40347 0.0
H144 H 0.62646 0.55201 0.3674 0.0
O145 O 0.11114 0.65718 0.43157 0.0
Tb146 Tb 0.0965 0.68876 0.41612 0.0
Eu147 Eu 0.01693 0.69165 0.39001 0.0
C148 C 0.11224 0.65705 0.45484 0.0
O149 O 0.10167 0.67403 0.46644 0.0
C150 C 0.04782 0.71217 0.42978 0.0
O151 O 0.00367 0.72146 0.36753 0.0
C152 C 0.98407 0.66118 0.39861 0.0
C153 C 0.01608 0.74078 0.36539 0.0
O154 O 0.03694 0.74178 0.37523 0.0
C155 C 0.06896 0.68584 0.36935 0.0
C156 C 0.9771 0.63635 0.4019 0.0
C157 C 0.9891 0.62091 0.41732 0.0
C158 C 0.98085 0.59779 0.42051 0.0
C159 C 0.96044 0.59057 0.40871 0.0
C160 C 0.9478 0.60594 0.39419 0.0
C161 C 0.95652 0.62865 0.39044 0.0
O162 O 0.0592 0.69313 0.42341 0.0
O163 O 0.0267 0.71512 0.42085 0.0
O164 O 0.12476 0.71122 0.4035 0.0
O165 O 0.11268 0.71562 0.43884 0.0
C166 C 0.12797 0.72268 0.42315 0.0
O167 O 0.05253 0.67593 0.3824 0.0
O168 O 0.09049 0.68682 0.37792 0.0
O169 O 0.98989 0.66789 0.37706 0.0
O170 O 0.99604 0.6718 0.41546 0.0
H171 H 0.00457 0.62679 0.42678 0.0
H172 H 0.95382 0.57295 0.41158 0.0
H173 H 0.9467 0.64075 0.37942 0.0
O174 O 0.84312 0.10997 0.41708 0.0
Tb175 Tb 0.81231 0.10025 0.3969 0.0
Eu176 Eu 0.81467 0.01795 0.38545 0.0
C177 C 0.83969 0.11189 0.44006 0.0
O178 O 0.81981 0.10396 0.44881 0.0
C179 C 0.79234 0.052 0.42069 0.0
O180 O 0.78319 1.00189 0.36754 0.0
C181 C 0.84742 0.98739 0.39466 0.0
C182 C 0.76351 0.01387 0.36611 0.0
O183 O 0.76302 0.03546 0.37426 0.0
C184 C 0.81818 0.06604 0.35498 0.0
C185 C 0.87304 0.98222 0.39512 0.0
C186 C 0.88837 0.99248 0.41195 0.0
C187 C 0.91219 0.98566 0.41294 0.0
C188 C 0.92038 0.96845 0.39719 0.0
C189 C 0.90532 0.9575 0.38098 0.0
C190 C 0.88172 0.96456 0.37996 0.0
O191 O 0.80285 0.06413 0.40413 0.0
O192 O 0.79415 0.02918 0.41823 0.0
O193 O 0.78405 0.12008 0.4141 0.0
O194 O 0.79938 0.13302 0.38219 0.0
C195 C 0.78417 0.13734 0.3989 0.0
O196 O 0.82865 0.05233 0.37063 0.0
O197 O 0.81596 0.08861 0.36008 0.0
O198 O 0.83726 0.98932 0.37378 0.0
O199 O 0.83857 1.00162 0.41073 0.0
H200 H 0.88182 0.0054 0.42442 0.0
H201 H 0.93837 0.96233 0.39873 0.0
H202 H 0.86991 0.9558 0.36774 0.0
O203 O 0.38294 0.85191 0.41607 0.0
Tb204 Tb 0.39836 0.81848 0.40648 0.0
Eu205 Eu 0.47934 0.81769 0.38753 0.0
C206 C 0.38644 0.85919 0.4379 0.0
O207 O 0.40272 0.84865 0.4505 0.0
C208 C 0.44668 0.79786 0.42608 0.0
O209 O 0.49492 0.78722 0.36759 0.0
C210 C 0.51016 0.85017 0.39655 0.0
C211 C 0.48329 0.76735 0.36609 0.0
O212 O 0.46211 0.76609 0.37531 0.0
C213 C 0.42952 0.81832 0.36176 0.0
C214 C 0.51619 0.87549 0.39786 0.0
C215 C 0.50595 0.89089 0.41464 0.0
C216 C 0.51365 0.91438 0.41626 0.0
C217 C 0.5317 0.92213 0.40125 0.0
C218 C 0.5426 0.90692 0.38513 0.0
C219 C 0.53465 0.88369 0.38342 0.0
O220 O 0.43493 0.81587 0.41762 0.0
O221 O 0.46862 0.79572 0.41908 0.0
O222 O 0.38006 0.79682 0.43275 0.0
O223 O 0.37049 0.79414 0.39655 0.0
C224 C 0.36558 0.78701 0.41789 0.0
O225 O 0.44378 0.8304 0.37553 0.0
O226 O 0.40761 0.81541 0.36892 0.0
O227 O 0.50709 0.84097 0.37535 0.0
O228 O 0.4966 0.84086 0.41296 0.0
H229 H 0.49238 0.88465 0.42655 0.0
H230 H 0.53845 0.93981 0.40331 0.0
H231 H 0.54331 0.87175 0.37123 0.0
O232 O 0.3463 0.88851 0.91555 0.0
Tb233 Tb 0.31243 0.90419 0.90813 0.0
Eu234 Eu 0.31132 0.98651 0.89199 0.0
C235 C 0.35596 0.8933 0.93615 0.0
O236 O 0.34736 0.91082 0.94859 0.0
C237 C 0.29461 0.9521 0.93059 0.0
O238 O 0.27931 0.00479 0.87741 0.0
C239 C 0.34555 0.01577 0.89987 0.0
C240 C 0.25934 0.99347 0.87486 0.0
O241 O 0.25877 0.97081 0.87907 0.0
C242 C 0.3087 0.93713 0.86465 0.0
C243 C 0.37109 0.02129 0.90018 0.0
C244 C 0.38698 0.01051 0.91611 0.0
C245 C 0.4107 0.01772 0.91683 0.0
C246 C 0.4182 0.03585 0.90185 0.0
C247 C 0.40259 0.04731 0.8866 0.0
C248 C 0.3791 0.03985 0.88575 0.0
O249 O 0.31168 0.9405 0.92017 0.0
O250 O 0.29206 0.97428 0.92477 0.0
O251 O 0.29089 0.88698 0.93534 0.0
O252 O 0.28841 0.87555 0.89963 0.0
C253 C 0.28125 0.87168 0.92118 0.0
O254 O 0.32209 0.95103 0.87759 0.0
O255 O 0.30621 0.91505 0.87142 0.0
O256 O 0.33525 0.01341 0.87909 0.0
O257 O 0.33656 0.00221 0.91645 0.0
H258 H 0.38096 0.99688 0.92803 0.0
H259 H 0.43612 0.04215 0.90326 0.0
H260 H 0.36686 0.04893 0.87426 0.0
O261 O 0.6233 0.34189 0.9137 0.0
Tb262 Tb 0.60261 0.31235 0.90114 0.0
Eu263 Eu 0.52078 0.31562 0.88413 0.0
C264 C 0.62102 0.34789 0.93612 0.0
O265 O 0.60388 0.3384 0.94841 0.0
C266 C 0.55402 0.29385 0.92126 0.0
O267 O 0.50434 0.28478 0.86539 0.0
C268 C 0.48983 0.34761 0.8946 0.0
C269 C 0.51628 0.26522 0.86256 0.0
O270 O 0.53852 0.26475 0.86874 0.0
C271 C 0.57109 0.31839 0.85754 0.0
C272 C 0.48179 0.37229 0.89753 0.0
C273 C 0.49253 0.3883 0.91339 0.0
C274 C 0.48283 0.4109 0.91674 0.0
C275 C 0.46215 0.41696 0.90474 0.0
C276 C 0.4507 0.40099 0.88984 0.0
C277 C 0.46092 0.37892 0.88587 0.0
O278 O 0.56625 0.31171 0.9132 0.0
O279 O 0.53183 0.29272 0.91489 0.0
O280 O 0.62157 0.28613 0.92224 0.0
O281 O 0.62168 0.28325 0.88483 0.0
C282 C 0.62952 0.27406 0.90434 0.0
O283 O 0.55644 0.32871 0.87242 0.0
O284 O 0.5934 0.31701 0.86383 0.0
O285 O 0.49294 0.33943 0.87296 0.0
O286 O 0.50383 0.3381 0.91048 0.0
H287 H 0.50812 0.38324 0.92312 0.0
H288 H 0.45436 0.43408 0.90777 0.0
H289 H 0.45191 0.36634 0.87466 0.0
O290 O 0.15915 0.61732 0.91756 0.0
Tb291 Tb 0.19306 0.60009 0.91793 0.0
Eu292 Eu 0.19289 0.52025 0.89248 0.0
C293 C 0.14487 0.61308 0.93538 0.0
O294 O 0.14916 0.59474 0.9488 0.0
C295 C 0.20611 0.54919 0.93773 0.0
O296 O 0.22355 0.51031 0.86915 0.0
C297 C 0.15849 0.49018 0.89233 0.0
C298 C 0.22425 0.49052 0.85716 0.0
O299 O 0.20533 0.47737 0.85614 0.0
C300 C 0.19802 0.57244 0.87215 0.0
C301 C 0.13876 0.47941 0.90558 0.0
C302 C 0.122 0.49266 0.91837 0.0
C303 C 0.10352 0.48112 0.93025 0.0
C304 C 0.102 0.45663 0.92942 0.0
C305 C 0.11846 0.44325 0.91684 0.0
C306 C 0.13671 0.45479 0.90483 0.0
O307 O 0.19005 0.56338 0.92894 0.0
O308 O 0.20707 0.52767 0.92918 0.0
O309 O 0.22517 0.62146 0.91837 0.0
O310 O 0.20113 0.62438 0.94686 0.0
C311 C 0.2205 0.63266 0.93799 0.0
O312 O 0.1845 0.55805 0.88433 0.0
O313 O 0.2011 0.59378 0.88066 0.0
O314 O 0.15636 0.51169 0.88414 0.0
O315 O 0.17977 0.48519 0.89977 0.0
H316 H 0.12324 0.51162 0.91903 0.0
H317 H 0.08751 0.44796 0.93835 0.0
H318 H 0.14948 0.44455 0.89497 0.0
O319 O 0.91231 0.16069 0.92297 0.0
Tb320 Tb 0.91208 0.18827 0.89635 0.0
Eu321 Eu 0.97454 0.18608 0.90188 0.0
C322 C 0.90329 0.16624 0.94377 0.0
O323 O 0.89848 0.18839 0.94799 0.0
C324 C 0.94114 0.21562 0.93428 0.0
O325 O 0.0065 0.20762 0.9107 0.0
C326 C 0.98627 0.14201 0.89946 0.0
C327 C 0.01933 0.21612 0.89331 0.0
O328 O 0.01451 0.20969 0.87148 0.0
C329 C 0.94552 0.19701 0.85364 0.0
C330 C 1.00171 0.12457 0.91148 0.0
C331 C 0.9934 0.11064 0.93044 0.0
C332 C 0.00836 0.09423 0.94136 0.0
C333 C 0.03144 0.09162 0.9332 0.0
C334 C 0.03976 0.10453 0.91387 0.0
C335 C 0.02482 0.12087 0.90297 0.0
O336 O 0.92706 0.21763 0.9159 0.0
O337 O 0.95725 0.19912 0.9352 0.0
O338 O 0.8759 0.17674 0.88974 0.0
O339 O 0.88244 0.21281 0.8957 0.0
C340 C 0.8662 0.19728 0.89173 0.0
O341 O 0.96235 0.20342 0.86819 0.0
O342 O 0.92733 0.18472 0.86101 0.0
O343 O 0.96704 0.14928 0.91031 0.0
O344 O 0.9971 0.15884 0.88789 0.0
H345 H 0.97547 0.11246 0.93666 0.0
H346 H 0.04269 0.0785 0.94127 0.0
H347 H 0.03128 0.13067 0.88785 0.0
O348 O 0.34816 0.61859 0.59537 0.0
Tb349 Tb 0.31558 0.60183 0.60589 0.0
Eu350 Eu 0.3195 0.52047 0.62657 0.0
C351 C 0.35543 0.61499 0.57352 0.0
O352 O 0.34533 0.59825 0.56117 0.0
C353 C 0.29838 0.5513 0.58691 0.0
O354 O 0.28876 0.50331 0.64482 0.0
C355 C 0.3537 0.49124 0.61884 0.0
C356 C 0.2681 0.51365 0.64458 0.0
O357 O 0.26643 0.53483 0.63557 0.0
C358 C 0.31734 0.57112 0.65091 0.0
C359 C 0.37925 0.48639 0.61691 0.0
C360 C 0.39357 0.49658 0.59918 0.0
C361 C 0.41726 0.48968 0.59678 0.0
C362 C 0.42629 0.47244 0.61198 0.0
C363 C 0.41215 0.46158 0.62908 0.0
C364 C 0.38873 0.46883 0.6316 0.0
O365 O 0.31499 0.56481 0.59573 0.0
O366 O 0.29828 0.52932 0.59398 0.0
O367 O 0.29169 0.61996 0.58151 0.0
O368 O 0.29095 0.62858 0.61806 0.0
C369 C 0.28231 0.63369 0.59739 0.0
O370 O 0.33015 0.55703 0.63759 0.0
O371 O 0.31364 0.59277 0.64349 0.0
O372 O 0.34495 0.49531 0.64009 0.0
O373 O 0.34316 0.50297 0.60181 0.0
H374 H 0.3863 0.50942 0.58709 0.0
H375 H 0.44409 0.46617 0.60924 0.0
H376 H 0.37758 0.46017 0.64452 0.0
O377 O 0.88663 0.35336 0.57773 0.0
Tb378 Tb 0.9022 0.31949 0.585 0.0
Eu379 Eu 0.98053 0.31671 0.61244 0.0
C380 C 0.8902 0.36224 0.55654 0.0
O381 O 0.9065 0.35264 0.54314 0.0
C382 C 0.95124 0.2979 0.57021 0.0
O383 O 0.99453 0.28557 0.63253 0.0
C384 C 0.01279 0.34841 0.60662 0.0
C385 C 0.98197 0.26634 0.63474 0.0
O386 O 0.96034 0.26606 0.62664 0.0
C387 C 0.92751 0.31973 0.63233 0.0
C388 C 0.02063 0.37298 0.60348 0.0
C389 C 0.00896 0.38899 0.58842 0.0
C390 C 0.01817 0.41172 0.58506 0.0
C391 C 0.03924 0.41795 0.59625 0.0
C392 C 0.0515 0.40199 0.61045 0.0
C393 C 0.0418 0.37971 0.61446 0.0
O394 O 0.93936 0.31694 0.57579 0.0
O395 O 0.97213 0.29528 0.57983 0.0
O396 O 0.88008 0.30491 0.55692 0.0
O397 O 0.87985 0.28868 0.59065 0.0
C398 C 0.87066 0.28832 0.56954 0.0
O399 O 0.94378 0.33004 0.61933 0.0
O400 O 0.90617 0.31839 0.62336 0.0
O401 O 0.00523 0.3418 0.62767 0.0
O402 O 1.00244 0.33758 0.58884 0.0
H403 H 0.99302 0.38381 0.57934 0.0
H404 H 0.04664 0.43522 0.59317 0.0
H405 H 0.05133 0.36715 0.62522 0.0
O406 O 0.15058 0.89002 0.59719 0.0
Tb407 Tb 0.18408 0.90542 0.60668 0.0
Eu408 Eu 0.18558 0.9877 0.62258 0.0
C409 C 0.14214 0.89448 0.57599 0.0
O410 O 0.15174 0.91147 0.56359 0.0
C411 C 0.20436 0.95306 0.585 0.0
O412 O 0.21703 0.00488 0.6395 0.0
C413 C 0.15228 0.01738 0.61264 0.0
C414 C 0.23646 0.99279 0.64261 0.0
O415 O 0.23653 0.97032 0.63735 0.0
C416 C 0.18516 0.93845 0.65017 0.0
C417 C 0.1267 0.02233 0.61067 0.0
C418 C 0.11218 0.01126 0.59364 0.0
C419 C 0.0884 0.0179 0.59137 0.0
C420 C 0.07947 0.03577 0.60591 0.0
C421 C 0.09375 0.04749 0.62229 0.0
C422 C 0.1173 0.04055 0.62469 0.0
O423 O 0.18666 0.94161 0.59452 0.0
O424 O 0.20653 0.97527 0.59091 0.0
O425 O 0.20751 0.88644 0.58237 0.0
O426 O 0.20693 0.87723 0.61878 0.0
C427 C 0.21579 0.872 0.59819 0.0
O428 O 0.17315 0.95256 0.63617 0.0
O429 O 0.1873 0.91624 0.64379 0.0
O430 O 0.16113 0.01483 0.63406 0.0
O431 O 0.16249 0.00406 0.59655 0.0
H432 H 0.1193 0.99784 0.58207 0.0
H433 H 0.06154 0.04167 0.60329 0.0
H434 H 0.12853 0.04979 0.63709 0.0
O435 O 0.62081 0.1553 0.59407 0.0
Tb436 Tb 0.60345 0.18889 0.59818 0.0
Eu437 Eu 0.52289 0.19059 0.61889 0.0
C438 C 0.61746 0.14382 0.57414 0.0
O439 O 0.6003 0.15063 0.56018 0.0
C440 C 0.55508 0.20722 0.57811 0.0
O441 O 0.50818 0.22269 0.63679 0.0
C442 C 0.49174 0.15786 0.61242 0.0
C443 C 0.52102 0.24184 0.63754 0.0
O444 O 0.54243 0.24123 0.62885 0.0
C445 C 0.57334 0.19181 0.64339 0.0
C446 C 0.48547 0.13263 0.61073 0.0
C447 C 0.49597 0.11729 0.59407 0.0
C448 C 0.48804 0.09393 0.59198 0.0
C449 C 0.46949 0.08624 0.60638 0.0
C450 C 0.45836 0.10137 0.62244 0.0
C451 C 0.46658 0.1245 0.62464 0.0
O452 O 0.56693 0.18936 0.58674 0.0
O453 O 0.53342 0.2101 0.58571 0.0
O454 O 0.62184 0.20507 0.5683 0.0
O455 O 0.62811 0.21793 0.60298 0.0
C456 C 0.63403 0.2199 0.58077 0.0
O457 O 0.55899 0.17894 0.63043 0.0
O458 O 0.59501 0.19491 0.63555 0.0
O459 O 0.49689 0.16648 0.63346 0.0
O460 O 0.50353 0.16767 0.59495 0.0
H461 H 0.50993 0.1235 0.58261 0.0
H462 H 0.46261 0.06867 0.60389 0.0
H463 H 0.45783 0.13642 0.63678 0.0
H464 H 0.81165 0.34442 0.045 0.0
H465 H 0.80111 0.3035 0.03701 0.0
H466 H 0.74996 0.30585 0.0934 0.0
H467 H 0.76059 0.34673 0.10164 0.0
H468 H 0.80656 0.26874 0.07407 0.0
H469 H 0.71604 0.27107 0.03764 0.0
H470 H 0.73568 0.29597 0.03637 0.0
H471 H 0.72065 0.28902 0.06347 0.0
C472 C 0.79772 0.3364 0.05528 0.0
C473 C 0.78699 0.34867 0.07403 0.0
C474 C 0.79178 0.31302 0.05073 0.0
C475 C 0.77475 0.30168 0.06458 0.0
C476 C 0.76297 0.31437 0.08233 0.0
H477 H 0.75106 0.1637 0.11363 0.0
H478 H 0.76453 0.20367 0.10596 0.0
C479 C 0.76907 0.3377 0.08705 0.0
C480 C 0.77126 0.27598 0.06246 0.0
H481 H 0.72968 0.23408 0.05209 0.0
C482 C 0.78987 0.26112 0.06891 0.0
C483 C 0.74955 0.26612 0.05558 0.0
C484 C 0.72935 0.28131 0.04766 0.0
C485 C 0.78697 0.23667 0.06975 0.0
C486 C 0.76487 0.22686 0.06408 0.0
C487 C 0.74661 0.24164 0.0565 0.0
C488 C 0.7597 0.20165 0.06797 0.0
C489 C 0.80742 0.22155 0.07716 0.0
C490 C 0.75288 0.18708 0.04909 0.0
C491 C 0.74535 0.16406 0.05344 0.0
C492 C 0.74415 0.15551 0.07677 0.0
C493 C 0.75193 0.1698 0.09547 0.0
C494 C 0.75965 0.19265 0.09111 0.0
H495 H 0.82446 0.23069 0.07448 0.0
H496 H 0.80575 0.21736 0.0963 0.0
H497 H 0.80766 0.20478 0.06712 0.0
H498 H 0.75273 0.19375 0.03112 0.0
H499 H 0.73927 0.15346 0.03872 0.0
H500 H 0.1578 0.79266 0.04123 0.0
H501 H 0.19864 0.78238 0.03204 0.0
H502 H 0.20057 0.73688 0.09301 0.0
H503 H 0.15989 0.74733 0.10246 0.0
H504 H 0.23444 0.7928 0.06691 0.0
H505 H 0.23556 0.69934 0.03963 0.0
H506 H 0.20976 0.71767 0.03707 0.0
H507 H 0.21764 0.70526 0.06523 0.0
C508 C 0.16671 0.7799 0.05225 0.0
C509 C 0.15574 0.77086 0.07265 0.0
C510 C 0.19006 0.77412 0.04701 0.0
C511 C 0.20263 0.75885 0.06181 0.0
C512 C 0.19112 0.74847 0.08118 0.0
H513 H 0.33782 0.74396 0.11726 0.0
H514 H 0.29818 0.75581 0.10566 0.0
C515 C 0.16788 0.75447 0.08659 0.0
C516 C 0.22847 0.75625 0.05922 0.0
H517 H 0.27191 0.71521 0.05419 0.0
C518 C 0.24266 0.77592 0.06366 0.0
C519 C 0.23918 0.73432 0.05471 0.0
C520 C 0.22479 0.71295 0.04866 0.0
C521 C 0.2672 0.7739 0.06529 0.0
C522 C 0.27779 0.75164 0.06255 0.0
C523 C 0.26375 0.73226 0.05649 0.0
C524 C 0.30286 0.74758 0.0685 0.0
C525 C 0.28159 0.79547 0.07067 0.0
C526 C 0.31884 0.73946 0.05135 0.0
C527 C 0.34169 0.73297 0.05793 0.0
C528 C 0.34867 0.73405 0.08182 0.0
C529 C 0.33296 0.74309 0.09871 0.0
C530 C 0.3103 0.74986 0.0921 0.0
H531 H 0.27206 0.81178 0.06582 0.0
H532 H 0.28535 0.7961 0.08996 0.0
H533 H 0.29863 0.79502 0.06105 0.0
H534 H 0.3134 0.73749 0.03306 0.0
H535 H 0.3534 0.72586 0.04458 0.0
H536 H 0.74516 0.35136 0.38259 0.0
H537 H 0.75807 0.31072 0.38732 0.0
H538 H 0.72912 0.30951 0.45801 0.0
H539 H 0.71583 0.35018 0.45322 0.0
H540 H 0.78591 0.28587 0.42029 0.0
H541 H 0.6922 0.25785 0.42319 0.0
H542 H 0.70081 0.28711 0.41464 0.0
H543 H 0.70131 0.27866 0.4453 0.0
C544 C 0.74205 0.34263 0.39936 0.0
C545 C 0.72932 0.35382 0.41745 0.0
C546 C 0.74938 0.31938 0.40202 0.0
C547 C 0.74403 0.30691 0.42279 0.0
C548 C 0.73296 0.31866 0.44164 0.0
H549 H 0.76129 0.15353 0.43848 0.0
H550 H 0.75081 0.19454 0.44719 0.0
C551 C 0.7256 0.34195 0.43897 0.0
C552 C 0.74853 0.28127 0.42368 0.0
H553 H 0.72072 0.22807 0.42252 0.0
C554 C 0.77168 0.27323 0.42105 0.0
C555 C 0.72993 0.26477 0.42474 0.0
C556 C 0.70462 0.27241 0.42696 0.0
C557 C 0.77669 0.24921 0.41882 0.0
C558 C 0.758 0.23283 0.41875 0.0
C559 C 0.73496 0.24071 0.42246 0.0
C560 C 0.76203 0.20773 0.41305 0.0
C561 C 0.80194 0.24156 0.41619 0.0
C562 C 0.77076 0.20149 0.39065 0.0
C563 C 0.77657 0.17822 0.38562 0.0
C564 C 0.77365 0.1607 0.40286 0.0
C565 C 0.76361 0.16669 0.42484 0.0
C566 C 0.75777 0.19009 0.42988 0.0
H567 H 0.81426 0.25499 0.42319 0.0
H568 H 0.80514 0.22473 0.42556 0.0
H569 H 0.80594 0.23892 0.39711 0.0
H570 H 0.7737 0.21477 0.37724 0.0
H571 H 0.78422 0.17411 0.36851 0.0
H572 H 0.14722 0.73342 0.46635 0.0
H573 H 0.18729 0.748 0.47346 0.0
H574 H 0.19757 0.75551 0.39807 0.0
H575 H 0.15785 0.74121 0.39098 0.0
H576 H 0.22744 0.72525 0.45685 0.0
H577 H 0.22544 0.81613 0.42314 0.0
H578 H 0.19903 0.80023 0.43067 0.0
H579 H 0.21281 0.79611 0.4022 0.0
C580 C 0.15783 0.73892 0.4514 0.0
C581 C 0.14947 0.73628 0.42811 0.0
C582 C 0.18074 0.74708 0.45546 0.0
C583 C 0.1954 0.75301 0.43631 0.0
C584 C 0.1865 0.7515 0.41316 0.0
H585 H 0.3338 0.76715 0.38825 0.0
H586 H 0.29281 0.7578 0.39723 0.0
C587 C 0.16378 0.74326 0.40911 0.0
C588 C 0.22069 0.75843 0.43987 0.0
H589 H 0.26338 0.79674 0.42231 0.0
C590 C 0.23528 0.74114 0.44985 0.0
C591 C 0.23093 0.77919 0.43082 0.0
C592 C 0.21618 0.79907 0.42134 0.0
C593 C 0.2599 0.7434 0.44947 0.0
C594 C 0.27006 0.76338 0.43884 0.0
C595 C 0.25548 0.78127 0.43017 0.0
C596 C 0.29569 0.76537 0.43468 0.0
C597 C 0.27501 0.72395 0.4592 0.0
C598 C 0.31104 0.77197 0.45296 0.0
C599 C 0.33456 0.77729 0.44786 0.0
C600 C 0.34295 0.7761 0.42442 0.0
C601 C 0.32785 0.76811 0.40648 0.0
C602 C 0.30442 0.76287 0.41156 0.0
H603 H 0.26439 0.70922 0.46638 0.0
H604 H 0.28673 0.71712 0.44503 0.0
H605 H 0.28636 0.73093 0.47356 0.0
H606 H 0.30456 0.77413 0.4709 0.0
H607 H 0.34575 0.7837 0.46197 0.0
H608 H 0.25952 0.83962 0.89311 0.0
H609 H 0.24747 0.79987 0.90389 0.0
H610 H 0.26591 0.81347 0.97674 0.0
H611 H 0.27792 0.85352 0.966 0.0
H612 H 0.2872 0.77236 0.95665 0.0
H613 H 0.19106 0.77354 0.94158 0.0
H614 H 0.20765 0.78578 0.91747 0.0
H615 H 0.20803 0.79999 0.94595 0.0
C616 C 0.26042 0.83437 0.91154 0.0
C617 C 0.26961 0.84968 0.92872 0.0
C618 C 0.25351 0.81163 0.91769 0.0
C619 C 0.2557 0.80368 0.94114 0.0
C620 C 0.26401 0.81925 0.95855 0.0
H621 H 0.20619 0.66156 0.97369 0.0
H622 H 0.2164 0.70297 0.97904 0.0
C623 C 0.27072 0.84216 0.95243 0.0
C624 C 0.25119 0.77857 0.94676 0.0
H625 H 0.2095 0.73572 0.9422 0.0
C626 C 0.27013 0.76439 0.95385 0.0
C627 C 0.22889 0.76819 0.94336 0.0
C628 C 0.20767 0.78268 0.93689 0.0
C629 C 0.2676 0.73995 0.95641 0.0
C630 C 0.24563 0.72941 0.95155 0.0
C631 C 0.22642 0.74376 0.9457 0.0
C632 C 0.24238 0.70349 0.95104 0.0
C633 C 0.2885 0.72557 0.96401 0.0
C634 C 0.25407 0.68979 0.93396 0.0
C635 C 0.24825 0.66608 0.93085 0.0
C636 C 0.23061 0.65567 0.94475 0.0
C637 C 0.21995 0.66904 0.96278 0.0
C638 C 0.22567 0.69276 0.96579 0.0
H639 H 0.30185 0.7365 0.97319 0.0
H640 H 0.28305 0.7111 0.97599 0.0
H641 H 0.29687 0.71768 0.9481 0.0
H642 H 0.26678 0.69774 0.92213 0.0
H643 H 0.25661 0.6563 0.91668 0.0
H644 H 0.64593 0.24683 0.86845 0.0
H645 H 0.68369 0.22645 0.86688 0.0
H646 H 0.69634 0.24459 0.94006 0.0
H647 H 0.65814 0.26425 0.9419 0.0
H648 H 0.72329 0.24931 0.8709 0.0
H649 H 0.72286 0.17953 0.93894 0.0
H650 H 0.69625 0.19363 0.92895 0.0
H651 H 0.71444 0.2074 0.95103 0.0
C652 C 0.65642 0.24576 0.88443 0.0
C653 C 0.64922 0.25722 0.90525 0.0
C654 C 0.67805 0.23418 0.8835 0.0
C655 C 0.69298 0.23396 0.90332 0.0
C656 C 0.68506 0.24409 0.92463 0.0
H657 H 0.8443 0.23921 0.89854 0.0
H658 H 0.80203 0.24675 0.90092 0.0
C659 C 0.66323 0.25544 0.92565 0.0
C660 C 0.71783 0.22619 0.90062 0.0
H661 H 0.76091 0.19219 0.92514 0.0
C662 C 0.73137 0.23658 0.88262 0.0
C663 C 0.72848 0.20948 0.91576 0.0
C664 C 0.71468 0.19669 0.93459 0.0
C665 C 0.75526 0.23125 0.87969 0.0
C666 C 0.7662 0.2155 0.89558 0.0
C667 C 0.75258 0.2045 0.91315 0.0
C668 C 0.79186 0.21071 0.89444 0.0
C669 C 0.76853 0.24252 0.85951 0.0
C670 C 0.80025 0.18787 0.89048 0.0
C671 C 0.82445 0.18352 0.88917 0.0
C672 C 0.84064 0.20193 0.89193 0.0
C673 C 0.83222 0.22473 0.89606 0.0
C674 C 0.80807 0.22906 0.89739 0.0
H675 H 0.75649 0.24839 0.8452 0.0
H676 H 0.77802 0.25817 0.86622 0.0
H677 H 0.78162 0.23022 0.85179 0.0
H678 H 0.78807 0.17343 0.88824 0.0
H679 H 0.83048 0.16573 0.88618 0.0
H680 H 0.23184 0.84045 0.63016 0.0
H681 H 0.24248 0.79958 0.62274 0.0
H682 H 0.23553 0.81078 0.5475 0.0
H683 H 0.22484 0.85199 0.55484 0.0
H684 H 0.20848 0.7694 0.59626 0.0
H685 H 0.29845 0.7714 0.55712 0.0
H686 H 0.28791 0.79474 0.57607 0.0
H687 H 0.27662 0.79179 0.54659 0.0
C688 C 0.23318 0.83442 0.61199 0.0
C689 C 0.22743 0.84936 0.59308 0.0
C690 C 0.23917 0.81103 0.60778 0.0
C691 C 0.23967 0.80214 0.5846 0.0
C692 C 0.23537 0.81735 0.56552 0.0
H693 H 0.27423 0.65417 0.55424 0.0
H694 H 0.26043 0.69444 0.54721 0.0
C695 C 0.22934 0.84088 0.56973 0.0
C696 C 0.24242 0.7765 0.58099 0.0
H697 H 0.28201 0.73433 0.56498 0.0
C698 C 0.22445 0.76171 0.58915 0.0
C699 C 0.26306 0.76655 0.57136 0.0
C700 C 0.28275 0.7818 0.56229 0.0
C701 C 0.22695 0.73721 0.58887 0.0
C702 C 0.24824 0.72723 0.58072 0.0
C703 C 0.26572 0.74199 0.57132 0.0
C704 C 0.2537 0.70195 0.58422 0.0
C705 C 0.20687 0.72228 0.59765 0.0
C706 C 0.25407 0.69265 0.60726 0.0
C707 C 0.26184 0.66976 0.61127 0.0
C708 C 0.26953 0.65569 0.59235 0.0
C709 C 0.26818 0.66456 0.56913 0.0
C710 C 0.26047 0.6876 0.56512 0.0
H711 H 0.18975 0.73133 0.59525 0.0
H712 H 0.20625 0.70513 0.5883 0.0
H713 H 0.20916 0.71895 0.61689 0.0
H714 H 0.2494 0.70348 0.62234 0.0
H715 H 0.26289 0.66347 0.62936 0.0
H716 H 0.66178 0.2503 0.60528 0.0
H717 H 0.70171 0.26254 0.59494 0.0
H718 H 0.69589 0.22683 0.52777 0.0
H719 H 0.65584 0.21457 0.53802 0.0
H720 H 0.73519 0.21309 0.55567 0.0
H721 H 0.72982 0.30977 0.54711 0.0
H722 H 0.71591 0.29865 0.5734 0.0
H723 H 0.70438 0.29095 0.54477 0.0
C724 C 0.66876 0.24564 0.58803 0.0
C725 C 0.65573 0.2315 0.57246 0.0
C726 C 0.69157 0.25266 0.58212 0.0
C727 C 0.70176 0.24564 0.56056 0.0
C728 C 0.68834 0.23247 0.54447 0.0
H729 H 0.84486 0.29341 0.52923 0.0
H730 H 0.80431 0.28046 0.52284 0.0
C731 C 0.66544 0.22559 0.5503 0.0
C732 C 0.7271 0.25002 0.55611 0.0
H733 H 0.76814 0.2936 0.55377 0.0
C734 C 0.74239 0.23069 0.55488 0.0
C735 C 0.73645 0.27295 0.55482 0.0
C736 C 0.72079 0.29429 0.55485 0.0
C737 C 0.76687 0.23373 0.55364 0.0
C738 C 0.77629 0.25668 0.55386 0.0
C739 C 0.76093 0.27599 0.55382 0.0
C740 C 0.80193 0.26118 0.55577 0.0
C741 C 0.78246 0.21236 0.55244 0.0
C742 C 0.81429 0.25409 0.57609 0.0
C743 C 0.83744 0.26149 0.57979 0.0
C744 C 0.8486 0.27615 0.56325 0.0
C745 C 0.83672 0.28204 0.54224 0.0
C746 C 0.81352 0.27475 0.53861 0.0
H747 H 0.77283 0.19688 0.54546 0.0
H748 H 0.79806 0.21562 0.54106 0.0
H749 H 0.78872 0.20804 0.57054 0.0
H750 H 0.80561 0.24392 0.58974 0.0
H751 H 0.84612 0.25681 0.5962 0.0
H752 H 0.65142 0.10967 0.00889 0.0
H753 H 0.63122 0.14011 0.98629 0.0
H754 H 0.61726 0.17824 0.05083 0.0
H755 H 0.63747 0.14779 0.07373 0.0
H756 H 0.57864 0.17625 0.01714 0.0
H757 H 0.66272 0.20544 0.9764 0.0
H758 H 0.65636 0.17469 0.97355 0.0
H759 H 0.66167 0.18697 1.00239 0.0
C760 C 0.64375 0.12433 0.01839 0.0
C761 C 0.64627 0.12641 0.04313 0.0
C762 C 0.63235 0.14178 0.00539 0.0
C763 C 0.62324 0.16164 0.01684 0.0
C764 C 0.62439 0.16311 0.04166 0.0
H765 H 0.58694 0.29677 0.95608 0.0
H766 H 0.60371 0.2645 0.97934 0.0
C767 C 0.63587 0.14566 0.05472 0.0
C768 C 0.61333 0.18125 1.00281 0.0
H769 H 0.62793 0.2233 0.96224 0.0
C770 C 0.58938 0.18657 0.00515 0.0
C771 C 0.6275 0.1948 0.98738 0.0
C772 C 0.65354 0.1904 0.98484 0.0
C773 C 0.57911 0.2049 0.99215 0.0
C774 C 0.59317 0.2181 0.97633 0.0
C775 C 0.61719 0.21301 0.97427 0.0
C776 C 0.58331 0.23747 0.96197 0.0
C777 C 0.55337 0.21021 0.99563 0.0
C778 C 0.56653 0.2329 0.94436 0.0
C779 C 0.55717 0.25127 0.93095 0.0
C780 C 0.5647 0.27445 0.93473 0.0
C781 C 0.58138 0.279 0.95241 0.0
C782 C 0.59081 0.26062 0.96578 0.0
H783 H 0.54633 0.20202 0.01203 0.0
H784 H 0.55034 0.22944 0.99653 0.0
H785 H 0.54331 0.20323 0.98033 0.0
H786 H 0.56071 0.21512 0.94096 0.0
H787 H 0.54414 0.24734 0.91753 0.0
H788 H 0.24729 0.52708 0.94732 0.0
H789 H 0.27823 0.53941 0.97414 0.0
H790 H 0.2387 0.60189 0.99133 0.0
H791 H 0.2061 0.58746 0.96696 0.0
H792 H 0.30594 0.57208 0.97132 0.0
H793 H 0.25868 0.58663 0.05546 0.0
H794 H 0.24479 0.57282 0.03037 0.0
H795 H 0.24601 0.6044 0.03267 0.0
C796 C 0.24498 0.5433 0.95708 0.0
C797 C 0.22464 0.557 0.95425 0.0
C798 C 0.26281 0.55041 0.97238 0.0
C799 C 0.26101 0.57164 0.98491 0.0
C800 C 0.24052 0.58524 0.9823 0.0
H801 H 0.38062 0.65262 0.02424 0.0
H802 H 0.34947 0.63086 0.00499 0.0
C803 C 0.22222 0.57756 0.96765 0.0
C804 C 0.28127 0.57998 0.99933 0.0
H805 H 0.29646 0.60558 0.05188 0.0
C806 C 0.30379 0.57901 0.98911 0.0
C807 C 0.27884 0.58859 0.02279 0.0
C808 C 0.25579 0.58789 0.03602 0.0
C809 C 0.32369 0.58692 1.00129 0.0
C810 C 0.32094 0.59756 0.02382 0.0
C811 C 0.2986 0.5978 0.03445 0.0
C812 C 0.34061 0.60995 0.03578 0.0
C813 C 0.34744 0.58348 0.98984 0.0
C814 C 0.3456 0.6062 0.05991 0.0
C815 C 0.36308 0.61934 0.07131 0.0
C816 C 0.37606 0.63612 0.05863 0.0
C817 C 0.37133 0.63944 0.03442 0.0
C818 C 0.35354 0.62685 0.02328 0.0
H819 H 0.34763 0.5674 0.97867 0.0
H820 H 0.35124 0.59856 0.97801 0.0
H821 H 0.36166 0.58201 1.00321 0.0
H822 H 0.33573 0.59339 0.07 0.0
H823 H 0.36623 0.6166 0.09004 0.0
H824 H 0.91235 0.40362 0.06029 0.0
H825 H 0.9339 0.3735 0.03815 0.0
H826 H 0.89401 0.31958 0.07363 0.0
H827 H 0.87346 0.34935 0.09664 0.0
H828 H 0.93665 0.30377 0.06357 0.0
H829 H 0.89896 0.3461 0.98341 0.0
H830 H 0.91881 0.3644 0.99974 0.0
H831 H 0.89143 0.35545 0.01294 0.0
C832 C 0.90872 0.3853 0.06388 0.0
C833 C 0.89092 0.3789 0.07992 0.0
C834 C 0.92088 0.36811 0.05105 0.0
C835 C 0.91492 0.34431 0.05354 0.0
C836 C 0.89876 0.33783 0.07118 0.0
H837 H 0.90248 0.24049 0.94679 0.0
H838 H 0.89922 0.27104 0.97685 0.0
C839 C 0.887 0.35494 0.08437 0.0
C840 C 0.92317 0.32639 0.03623 0.0
H841 H 0.92046 0.31166 0.97761 0.0
C842 C 0.9333 0.30554 0.04473 0.0
C843 C 0.91848 0.32857 0.01165 0.0
C844 C 0.90614 0.34971 1.00136 0.0
C845 C 0.93811 0.28655 0.02951 0.0
C846 C 0.93331 0.28876 0.00499 0.0
C847 C 0.92413 0.30997 0.9964 0.0
C848 C 0.93554 0.26885 0.98806 0.0
C849 C 0.9471 0.26394 0.04004 0.0
C850 C 0.95698 0.2571 0.9845 0.0
C851 C 0.95875 0.23916 0.96755 0.0
C852 C 0.93925 0.23314 0.95353 0.0
C853 C 0.91785 0.24483 0.95724 0.0
C854 C 0.91598 0.26233 0.97441 0.0
H855 H 0.94431 0.26326 0.05952 0.0
H856 H 0.93832 0.24854 0.03186 0.0
H857 H 0.96625 0.2625 0.03665 0.0
H858 H 0.97247 0.26216 0.99437 0.0
H859 H 0.97554 0.2306 0.96485 0.0
H860 H 0.3028 0.9246 0.96911 0.0
H861 H 0.27335 0.90858 0.99674 0.0
H862 H 0.21803 0.93937 0.95488 0.0
H863 H 0.24733 0.95547 0.92745 0.0
H864 H 0.23548 0.93915 0.02124 0.0
H865 H 0.20236 0.86614 0.96497 0.0
H866 H 0.23131 0.87863 0.96135 0.0
H867 H 0.20604 0.89408 0.95058 0.0
C868 C 0.28432 0.92758 0.96572 0.0
C869 C 0.27717 0.94079 0.94602 0.0
C870 C 0.26759 0.9186 0.98151 0.0
C871 C 0.24359 0.92269 0.97767 0.0
C872 C 0.23648 0.93585 0.95795 0.0
H873 H 0.11109 0.88452 0.03928 0.0
H874 H 0.143 0.90229 0.01655 0.0
C875 C 0.25317 0.945 0.94234 0.0
C876 C 0.22579 0.91393 0.99457 0.0
H877 H 0.18029 0.87536 0.99942 0.0
C878 C 0.2235 0.92506 0.01665 0.0
C879 C 0.21027 0.89563 0.98837 0.0
C880 C 0.2126 0.88273 0.96511 0.0
C881 C 0.20548 0.91881 0.0325 0.0
C882 C 0.18966 0.90075 0.02612 0.0
C883 C 0.19232 0.88934 1.00418 0.0
C884 C 0.17011 0.89329 0.04179 0.0
C885 C 0.20308 0.93203 0.05555 0.0
C886 C 0.17466 0.88303 0.06393 0.0
C887 C 0.15639 0.87299 0.07709 0.0
C888 C 0.13332 0.8728 0.06816 0.0
C889 C 0.12865 0.88432 0.04665 0.0
C890 C 0.14689 0.8944 0.03357 0.0
H891 H 0.2128 0.94893 0.05519 0.0
H892 H 0.18433 0.93565 0.05963 0.0
H893 H 0.21037 0.92122 0.07014 0.0
H894 H 0.19249 0.88168 0.07047 0.0
H895 H 0.16064 0.86412 0.0935 0.0
H896 H 0.63722 0.34448 0.41394 0.0
H897 H 0.62121 0.31172 0.43695 0.0
H898 H 0.59765 0.36003 0.49081 0.0
H899 H 0.61376 0.39286 0.46808 0.0
H900 H 0.63693 0.30311 0.48682 0.0
H901 H 0.54043 0.31485 0.47751 0.0
H902 H 0.56118 0.32637 0.45622 0.0
H903 H 0.55703 0.34089 0.48417 0.0
C904 C 0.62808 0.34822 0.43037 0.0
C905 C 0.62672 0.3713 0.43918 0.0
C906 C 0.61911 0.32945 0.44357 0.0
C907 C 0.60825 0.33349 0.46554 0.0
C908 C 0.6058 0.35658 0.47379 0.0
H909 H 0.54955 0.25435 0.58093 0.0
H910 H 0.56397 0.28408 0.55325 0.0
C911 C 0.615 0.37532 0.46077 0.0
C912 C 0.6011 0.31357 0.48079 0.0
H913 H 0.55341 0.28794 0.50669 0.0
C914 C 0.61867 0.29957 0.49102 0.0
C915 C 0.57731 0.30921 0.48632 0.0
C916 C 0.55781 0.32347 0.47539 0.0
C917 C 0.61309 0.28174 0.50729 0.0
C918 C 0.58924 0.27747 0.51299 0.0
C919 C 0.57168 0.29123 0.50235 0.0
C920 C 0.58203 0.25935 0.53047 0.0
C921 C 0.6328 0.26834 0.51896 0.0
C922 C 0.58745 0.23552 0.52696 0.0
C923 C 0.57936 0.21852 0.54294 0.0
C924 C 0.56576 0.22509 0.56261 0.0
C925 C 0.56033 0.24888 0.56608 0.0
C926 C 0.56848 0.26585 0.55024 0.0
H927 H 0.64987 0.27767 0.51738 0.0
H928 H 0.62902 0.26538 0.53804 0.0
H929 H 0.63468 0.25098 0.51024 0.0
H930 H 0.59734 0.22999 0.51153 0.0
H931 H 0.58313 0.20019 0.53953 0.0
H932 H 0.1328 0.616 0.43945 0.0
H933 H 0.1625 0.59262 0.46048 0.0
H934 H 0.16024 0.64165 0.51881 0.0
H935 H 0.12999 0.66397 0.49878 0.0
H936 H 0.20495 0.60237 0.47336 0.0
H937 H 0.15611 0.58307 0.55523 0.0
H938 H 0.14188 0.59532 0.52954 0.0
H939 H 0.15636 0.61414 0.55076 0.0
C940 C 0.13834 0.62141 0.45699 0.0
C941 C 0.1288 0.6416 0.4676 0.0
C942 C 0.15535 0.60813 0.46895 0.0
C943 C 0.16324 0.61502 0.49154 0.0
C944 C 0.15385 0.63535 0.50189 0.0
H945 H 0.29947 0.58626 0.55373 0.0
H946 H 0.26654 0.60083 0.52997 0.0
C947 C 0.13658 0.64824 0.49027 0.0
C948 C 0.18223 0.60202 0.50396 0.0
H949 H 0.19852 0.58281 0.55872 0.0
C950 C 0.20341 0.59767 0.49192 0.0
C951 C 0.18018 0.59535 0.52804 0.0
C952 C 0.15728 0.59698 0.54149 0.0
C953 C 0.22286 0.58779 0.50357 0.0
C954 C 0.22146 0.58319 0.52822 0.0
C955 C 0.19994 0.5867 0.53996 0.0
C956 C 0.2418 0.57461 0.54238 0.0
C957 C 0.24447 0.58214 0.48912 0.0
C958 C 0.23881 0.5557 0.55805 0.0
C959 C 0.25716 0.54851 0.5727 0.0
C960 C 0.27904 0.55987 0.57186 0.0
C961 C 0.28243 0.57808 0.55556 0.0
C962 C 0.26378 0.58587 0.54143 0.0
H963 H 0.23984 0.57843 0.47035 0.0
H964 H 0.25642 0.59751 0.48918 0.0
H965 H 0.25401 0.56674 0.49634 0.0
H966 H 0.22217 0.54654 0.55911 0.0
H967 H 0.25415 0.53404 0.58477 0.0
H968 H 0.82706 0.13343 0.48101 0.0
H969 H 0.84791 0.16413 0.5021 0.0
H970 H 0.9065 0.15706 0.45394 0.0
H971 H 0.8848 0.12711 0.43159 0.0
H972 H 0.88508 0.16681 0.52609 0.0
H973 H 0.89666 0.22549 0.44872 0.0
H974 H 0.87911 0.19923 0.44732 0.0
H975 H 0.91062 0.1976 0.44452 0.0
C976 C 0.84446 0.13824 0.47491 0.0
C977 C 0.85424 0.12793 0.45451 0.0
C978 C 0.85639 0.15589 0.48703 0.0
C979 C 0.8786 0.16342 0.47936 0.0
C980 C 0.88904 0.1522 0.45975 0.0
H981 H 0.96225 0.25159 0.57337 0.0
H982 H 0.94569 0.21912 0.5507 0.0
C983 C 0.87679 0.13486 0.44717 0.0
C984 C 0.89041 0.18308 0.49203 0.0
H985 H 0.91573 0.23688 0.48427 0.0
C986 C 0.89171 0.18215 0.51689 0.0
C987 C 0.89863 0.20341 0.48017 0.0
C988 C 0.89597 0.20666 0.45375 0.0
C989 C 0.90077 0.20088 0.53019 0.0
C990 C 0.91008 0.22066 0.51827 0.0
C991 C 0.90886 0.22162 0.49342 0.0
C992 C 0.92093 0.24062 0.53127 0.0
C993 C 0.89934 0.19955 0.5569 0.0
C994 C 0.91362 0.26379 0.52693 0.0
C995 C 0.92373 0.28251 0.53933 0.0
C996 C 0.94079 0.27835 0.5567 0.0
C997 C 0.94866 0.25528 0.56047 0.0
C998 C 0.939 0.23665 0.54771 0.0
H999 H 0.88499 0.18766 0.56273 0.0
H1000 H 0.91606 0.19239 0.56393 0.0
H1001 H 0.89628 0.2171 0.56488 0.0
H1002 H 0.90003 0.2674 0.51401 0.0
H1003 H 0.9184 0.30027 0.53518 0.0
H1004 H 0.38685 0.87386 0.48392 0.0
H1005 H 0.35417 0.89056 0.50637 0.0
H1006 H 0.31247 0.89365 0.44275 0.0
H1007 H 0.34509 0.87667 0.41999 0.0
H1008 H 0.31227 0.93599 0.47771 0.0
H1009 H 0.29173 0.84852 0.51626 0.0
H1010 H 0.32212 0.85729 0.51651 0.0
H1011 H 0.3077 0.85196 0.48876 0.0
C1012 C 0.37091 0.87845 0.47454 0.0
C1013 C 0.36854 0.87372 0.45016 0.0
C1014 C 0.35222 0.88789 0.48745 0.0
C1015 C 0.33085 0.89293 0.47626 0.0
C1016 C 0.32883 0.88969 0.45169 0.0
H1017 H 0.19769 0.9206 0.54995 0.0
H1018 H 0.2274 0.90523 0.52228 0.0
C1019 C 0.34752 0.8801 0.43871 0.0
C1020 C 0.31042 0.90053 0.49058 0.0
H1021 H 0.27175 0.88125 0.53264 0.0
C1022 C 0.30326 0.92403 0.48958 0.0
C1023 C 0.29859 0.88476 0.50582 0.0
C1024 C 0.30522 0.85915 0.5069 0.0
C1025 C 0.28505 0.9324 0.50415 0.0
C1026 C 0.27389 0.91685 0.52016 0.0
C1027 C 0.28046 0.89314 0.52047 0.0
C1028 C 0.25607 0.92517 0.53739 0.0
C1029 C 0.27794 0.95784 0.50241 0.0
C1030 C 0.2625 0.94096 0.55532 0.0
C1031 C 0.24571 0.9494 0.57125 0.0
C1032 C 0.22223 0.942 0.5697 0.0
C1033 C 0.21581 0.92603 0.5519 0.0
C1034 C 0.23269 0.91744 0.536 0.0
H1035 H 0.28393 0.96586 0.48551 0.0
H1036 H 0.25857 0.95976 0.50378 0.0
H1037 H 0.28602 0.96776 0.51725 0.0
H1038 H 0.28051 0.94689 0.55688 0.0
H1039 H 0.25105 0.96191 0.58468 0.0
H1040 H 0.36576 0.84831 0.92188 0.0
H1041 H 0.38309 0.81712 0.94601 0.0
H1042 H 0.39713 0.867 1.00173 0.0
H1043 H 0.37955 0.89819 0.97793 0.0
H1044 H 0.42648 0.80999 0.96822 0.0
H1045 H 0.35464 0.81873 0.03421 0.0
H1046 H 0.35354 0.8325 0.00544 0.0
H1047 H 0.37033 0.84556 0.029 0.0
C1048 C 0.37298 0.85277 0.93905 0.0
C1049 C 0.37101 0.8757 0.9481 0.0
C1050 C 0.38278 0.83487 0.95287 0.0
C1051 C 0.39077 0.83963 0.97592 0.0
C1052 C 0.39047 0.86283 0.98424 0.0
H1053 H 0.45307 0.75978 0.08957 0.0
H1054 H 0.43757 0.79009 0.06291 0.0
C1055 C 0.3806 0.88069 0.97052 0.0
C1056 C 0.39843 0.82024 0.99167 0.0
H1057 H 0.38645 0.79378 0.04471 0.0
C1058 C 0.41767 0.80636 0.98487 0.0
C1059 C 0.38671 0.81535 0.01329 0.0
C1060 C 0.36501 0.82865 0.02086 0.0
C1061 C 0.42594 0.78819 0.99949 0.0
C1062 C 0.41459 0.78377 0.02133 0.0
C1063 C 0.39517 0.79738 0.02799 0.0
C1064 C 0.423 0.76539 0.03776 0.0
C1065 C 0.44706 0.77412 0.9918 0.0
C1066 C 0.41961 0.74156 0.03255 0.0
C1067 C 0.42825 0.72429 0.04785 0.0
C1068 C 0.44022 0.73065 0.06861 0.0
C1069 C 0.44355 0.7545 0.07383 0.0
C1070 C 0.43477 0.77176 0.05864 0.0
H1071 H 0.45568 0.78165 0.97585 0.0
H1072 H 0.46011 0.7732 0.00639 0.0
H1073 H 0.44152 0.75591 0.98764 0.0
H1074 H 0.41051 0.73635 0.01653 0.0
H1075 H 0.42604 0.70599 0.0432 0.0
H1076 H 0.75456 0.45685 0.07943 0.0
H1077 H 0.72581 0.43857 0.05303 0.0
H1078 H 0.78113 0.39898 0.01931 0.0
H1079 H 0.81014 0.41778 0.04543 0.0
H1080 H 0.72676 0.44073 1.00195 0.0
H1081 H 0.72974 0.34919 0.03633 0.0
H1082 H 0.74044 0.37388 0.05327 0.0
H1083 H 0.75736 0.36266 0.02892 0.0
C1084 C 0.76058 0.44408 0.06654 0.0
C1085 C 0.7845 0.43822 0.06486 0.0
C1086 C 0.74414 0.43367 0.05147 0.0
C1087 C 0.75128 0.41722 0.03441 0.0
C1088 C 0.77518 0.41129 0.03266 0.0
H1089 H 0.66205 0.36598 0.91782 0.0
H1090 H 0.69479 0.38337 0.94008 0.0
C1091 C 0.79169 0.42185 0.0477 0.0
C1092 C 0.73367 0.40714 0.01791 0.0
H1093 H 0.70438 0.35665 1.00409 0.0
C1094 C 0.72198 0.42231 1.00225 0.0
C1095 C 0.72746 0.38313 0.01845 0.0
C1096 C 0.73922 0.36619 0.03521 0.0
C1097 C 0.704 0.41416 0.98732 0.0
C1098 C 0.69757 0.39024 0.98808 0.0
C1099 C 0.70946 0.37498 1.0035 0.0
C1100 C 0.67749 0.38103 0.97416 0.0
C1101 C 0.69144 0.43126 0.97136 0.0
C1102 C 0.65687 0.37431 0.98592 0.0
C1103 C 0.63814 0.36462 0.97329 0.0
C1104 C 0.63971 0.3612 0.94862 0.0
C1105 C 0.66021 0.36849 0.93676 0.0
C1106 C 0.67895 0.37836 0.94945 0.0
H1107 H 0.69662 0.44972 0.97493 0.0
H1108 H 0.69563 0.42712 0.95259 0.0
H1109 H 0.67213 0.4296 0.97362 0.0
H1110 H 0.65539 0.37632 0.00497 0.0
H1111 H 0.62268 0.35919 0.98305 0.0
H1112 H 0.11183 0.60981 0.97029 0.0
H1113 H 0.09383 0.64219 0.99217 0.0
H1114 H 0.12639 0.69181 0.94477 0.0
H1115 H 0.14453 0.6595 0.92275 0.0
H1116 H 0.13635 0.69886 0.99389 0.0
H1117 H 0.04065 0.68933 0.97795 0.0
H1118 H 0.05523 0.66267 0.98641 0.0
H1119 H 0.06253 0.67641 0.95871 0.0
C1120 C 0.11463 0.62757 0.96408 0.0
C1121 C 0.12965 0.63204 0.94479 0.0
C1122 C 0.10429 0.64607 0.9766 0.0
C1123 C 0.10873 0.6694 0.97007 0.0
C1124 C 0.12269 0.67391 0.95006 0.0
H1125 H 0.08169 0.80051 0.04719 0.0
H1126 H 0.09582 0.77139 0.01843 0.0
C1127 C 0.13291 0.65539 0.93739 0.0
C1128 C 0.10081 0.68892 0.98556 0.0
H1129 H 0.05203 0.7141 0.00998 0.0
C1130 C 0.11792 0.70243 0.99721 0.0
C1131 C 0.07678 0.69334 0.99001 0.0
C1132 C 0.05769 0.67983 0.97748 0.0
C1133 C 0.11164 0.71975 0.0138 0.0
C1134 C 0.08757 0.72404 0.01843 0.0
C1135 C 0.07047 0.71078 0.00645 0.0
C1136 C 0.07969 0.74175 0.03608 0.0
C1137 C 0.13083 0.73263 0.0269 0.0
C1138 C 0.06556 0.73488 0.05527 0.0
C1139 C 0.05749 0.75148 0.07163 0.0
C1140 C 0.06356 0.77524 0.06918 0.0
C1141 C 0.07748 0.78217 0.04988 0.0
C1142 C 0.08549 0.76557 0.03344 0.0
H1143 H 0.14794 0.7233 0.02575 0.0
H1144 H 0.13315 0.75029 0.019 0.0
H1145 H 0.12618 0.73489 0.04589 0.0
H1146 H 0.06073 0.71664 0.05758 0.0
H1147 H 0.04651 0.74573 0.0862 0.0
H1148 H 0.75223 0.08576 0.08859 0.0
H1149 H 0.78596 0.1026 0.06718 0.0
H1150 H 0.77248 0.05602 0.00841 0.0
H1151 H 0.73846 0.03981 0.02952 0.0
H1152 H 0.82646 0.08042 0.04987 0.0
H1153 H 0.77552 0.12018 0.97633 0.0
H1154 H 0.76196 0.11048 1.00354 0.0
H1155 H 0.76954 0.08959 0.98087 0.0
C1156 C 0.75623 0.07963 0.07086 0.0
C1157 C 0.74232 0.06229 0.06019 0.0
C1158 C 0.77561 0.08899 0.05878 0.0
C1159 C 0.78146 0.08091 0.03596 0.0
C1160 C 0.76794 0.06297 0.02569 0.0
H1161 H 0.88696 0.12258 0.93177 0.0
H1162 H 0.85976 0.09855 0.95524 0.0
C1163 C 0.74859 0.0537 0.03775 0.0
C1164 C 0.80183 0.09095 0.02295 0.0
H1165 H 0.81691 0.11968 0.97203 0.0
C1166 C 0.82438 0.08904 0.03287 0.0
C1167 C 0.79911 0.10221 1.00076 0.0
C1168 C 0.77522 0.10598 0.98981 0.0
C1169 C 0.84429 0.09787 0.02107 0.0
C1170 C 0.84155 0.10901 0.99886 0.0
C1171 C 0.81903 0.11081 0.9889 0.0
C1172 C 0.86137 0.12065 0.9864 0.0
C1173 C 0.86814 0.09509 0.03234 0.0
C1174 C 0.87185 0.1406 0.9964 0.0
C1175 C 0.88728 0.15434 0.98305 0.0
C1176 C 0.8926 0.14838 0.95944 0.0
C1177 C 0.88346 0.12746 0.95 0.0
C1178 C 0.86777 0.11382 0.96333 0.0
H1179 H 0.86816 0.08106 0.046 0.0
H1180 H 0.88169 0.09096 0.01878 0.0
H1181 H 0.87313 0.11181 0.04107 0.0
H1182 H 0.86694 0.14641 0.01402 0.0
H1183 H 0.89396 0.17044 0.99074 0.0
H1184 H 0.3711 0.61358 0.52784 0.0
H1185 H 0.38824 0.64572 0.50501 0.0
H1186 H 0.38916 0.68916 0.56755 0.0
H1187 H 0.37177 0.65709 0.59069 0.0
H1188 H 0.36236 0.69714 0.50825 0.0
H1189 H 0.45804 0.68968 0.52793 0.0
H1190 H 0.43936 0.66405 0.52739 0.0
H1191 H 0.43658 0.68485 0.55104 0.0
C1192 C 0.37533 0.62979 0.53693 0.0
C1193 C 0.36993 0.63278 0.56111 0.0
C1194 C 0.38506 0.64815 0.5238 0.0
C1195 C 0.38978 0.66977 0.5346 0.0
C1196 C 0.3856 0.67253 0.55896 0.0
H1197 H 0.41651 0.80388 0.46323 0.0
H1198 H 0.40153 0.77355 0.49024 0.0
C1199 C 0.37577 0.65416 0.57215 0.0
C1200 C 0.39757 0.6898 0.51992 0.0
H1201 H 0.44642 0.71895 0.50091 0.0
C1202 C 0.3807 0.70209 0.50673 0.0
C1203 C 0.42148 0.69599 0.51797 0.0
C1204 C 0.44008 0.68304 0.53175 0.0
C1205 C 0.3872 0.72033 0.49132 0.0
C1206 C 0.4112 0.72647 0.48922 0.0
C1207 C 0.42803 0.71425 0.5026 0.0
C1208 C 0.41933 0.74488 0.47254 0.0
C1209 C 0.36844 0.73251 0.47701 0.0
C1210 C 0.43441 0.73886 0.45379 0.0
C1211 C 0.44274 0.75609 0.43831 0.0
C1212 C 0.43606 0.77964 0.44123 0.0
C1213 C 0.42119 0.78572 0.46012 0.0
C1214 C 0.41276 0.76845 0.4756 0.0
H1215 H 0.35178 0.72235 0.47664 0.0
H1216 H 0.36471 0.74986 0.4851 0.0
H1217 H 0.3744 0.73546 0.45849 0.0
H1218 H 0.43981 0.72081 0.45119 0.0
H1219 H 0.45455 0.751 0.42413 0.0
H1220 H 0.74804 0.4644 0.41626 0.0
H1221 H 0.77926 0.44988 0.44217 0.0
H1222 H 0.72867 0.40833 0.48062 0.0
H1223 H 0.6972 0.42319 0.45483 0.0
H1224 H 0.78127 0.45427 0.49298 0.0
H1225 H 0.78187 0.36135 0.46236 0.0
H1226 H 0.76834 0.38457 0.44541 0.0
H1227 H 0.75391 0.37315 0.47124 0.0
C1228 C 0.74361 0.452 0.43011 0.0
C1229 C 0.72034 0.44437 0.43321 0.0
C1230 C 0.76143 0.44378 0.44491 0.0
C1231 C 0.75631 0.42784 0.46311 0.0
C1232 C 0.73304 0.42031 0.46639 0.0
H1233 H 0.84901 0.37838 0.57605 0.0
H1234 H 0.81609 0.39647 0.55481 0.0
C1235 C 0.71515 0.42863 0.45159 0.0
C1236 C 0.77539 0.41962 0.47889 0.0
H1237 H 0.80786 0.37137 0.49341 0.0
C1238 C 0.78701 0.43612 0.49321 0.0
C1239 C 0.78286 0.39597 0.479 0.0
C1240 C 0.77128 0.37768 0.46358 0.0
C1241 C 0.80603 0.42956 0.5076 0.0
C1242 C 0.81359 0.40599 0.50753 0.0
C1243 C 0.80188 0.38945 0.49339 0.0
C1244 C 0.8343 0.39824 0.52121 0.0
C1245 C 0.81834 0.44781 0.52242 0.0
C1246 C 0.85556 0.394 0.50944 0.0
C1247 C 0.87442 0.38388 0.52149 0.0
C1248 C 0.87225 0.37756 0.5455 0.0
C1249 C 0.8513 0.38306 0.55759 0.0
C1250 C 0.83244 0.39331 0.54549 0.0
H1251 H 0.81103 0.46567 0.51962 0.0
H1252 H 0.81663 0.44324 0.54147 0.0
H1253 H 0.83737 0.44801 0.51807 0.0
H1254 H 0.85728 0.39777 0.49069 0.0
H1255 H 0.89029 0.37994 0.51164 0.0
H1256 H 0.12074 0.89893 0.53296 0.0
H1257 H 0.10234 0.86788 0.50956 0.0
H1258 H 0.11196 0.81935 0.56735 0.0
H1259 H 0.12996 0.85042 0.59105 0.0
H1260 H 0.12521 0.82805 0.49581 0.0
H1261 H 0.04536 0.80456 0.54704 0.0
H1262 H 0.06143 0.83138 0.55219 0.0
H1263 H 0.07183 0.80411 0.56429 0.0
C1264 C 0.1184 0.88181 0.54094 0.0
C1265 C 0.12685 0.87717 0.56388 0.0
C1266 C 0.10797 0.86404 0.52749 0.0
C1267 C 0.1057 0.84129 0.53669 0.0
C1268 C 0.11312 0.83686 0.56 0.0
H1269 H 0.06982 0.70679 0.47209 0.0
H1270 H 0.08514 0.73785 0.49812 0.0
C1271 C 0.12345 0.85467 0.57354 0.0
C1272 C 0.09754 0.82185 0.52116 0.0
H1273 H 0.05638 0.77853 0.51588 0.0
C1274 C 0.11007 0.81733 0.50015 0.0
C1275 C 0.07789 0.80774 0.52691 0.0
C1276 C 0.0632 0.81228 0.54872 0.0
C1277 C 0.10357 0.79902 0.48483 0.0
C1278 C 0.08393 0.785 0.49057 0.0
C1279 C 0.07149 0.78933 0.51162 0.0
C1280 C 0.07562 0.76619 0.47453 0.0
C1281 C 0.11786 0.7946 0.46272 0.0
C1282 C 0.06523 0.7719 0.45274 0.0
C1283 C 0.05654 0.75423 0.43795 0.0
C1284 C 0.05848 0.73058 0.44456 0.0
C1285 C 0.06887 0.72486 0.46634 0.0
C1286 C 0.07736 0.74256 0.48127 0.0
H1287 H 0.13525 0.80343 0.46343 0.0
H1288 H 0.12064 0.7755 0.46001 0.0
H1289 H 0.10816 0.80142 0.44713 0.0
H1290 H 0.06346 0.79007 0.44739 0.0
H1291 H 0.04822 0.75905 0.42139 0.0
H1292 H 0.75783 0.0843 0.4163 0.0
H1293 H 0.73156 0.09906 0.44741 0.0
H1294 H 0.76645 0.05508 0.49863 0.0
H1295 H 0.79321 0.04085 0.4675 0.0
H1296 H 0.71695 0.0507 0.498 0.0
H1297 H 0.74415 0.14399 0.50361 0.0
H1298 H 0.73795 0.13416 0.47401 0.0
H1299 H 0.76228 0.12172 0.48994 0.0
C1300 C 0.76057 0.07871 0.43443 0.0
C1301 C 0.7782 0.06242 0.43984 0.0
C1302 C 0.74539 0.08687 0.45212 0.0
C1303 C 0.74737 0.07853 0.47545 0.0
C1304 C 0.76484 0.06198 0.48082 0.0
H1305 H 0.66262 0.13872 0.59009 0.0
H1306 H 0.69534 0.12019 0.56893 0.0
C1307 C 0.78012 0.05394 0.46311 0.0
C1308 C 0.73011 0.08587 0.49374 0.0
H1309 H 0.70743 0.13403 0.52162 0.0
C1310 C 0.71504 0.06887 0.5034 0.0
C1311 C 0.72777 0.10955 0.50089 0.0
C1312 C 0.74403 0.1284 0.49176 0.0
C1313 C 0.69707 0.07508 0.51932 0.0
C1314 C 0.69406 0.0989 0.52562 0.0
C1315 C 0.70972 0.11576 0.5167 0.0
C1316 C 0.67392 0.107 0.54022 0.0
C1317 C 0.68127 0.05616 0.52908 0.0
C1318 C 0.65097 0.10523 0.53137 0.0
C1319 C 0.63225 0.11584 0.54336 0.0
C1320 C 0.63614 0.12842 0.56445 0.0
C1321 C 0.65897 0.12902 0.57399 0.0
C1322 C 0.67773 0.11856 0.56185 0.0
H1323 H 0.6895 0.03854 0.52763 0.0
H1324 H 0.67688 0.05961 0.54795 0.0
H1325 H 0.66464 0.0559 0.51884 0.0
H1326 H 0.64768 0.09665 0.51455 0.0
H1327 H 0.61491 0.11512 0.5355 0.0
H1328 H 0.7726 0.07587 0.34637 0.0
H1329 H 0.75001 0.06703 0.31083 0.0
H1330 H 0.80927 0.02915 0.28209 0.0
H1331 H 0.83125 0.03644 0.31885 0.0
H1332 H 0.75927 0.08431 0.27144 0.0
H1333 H 0.75881 0.98845 0.2569 0.0
H1334 H 0.76762 1.00134 0.28474 0.0
H1335 H 0.78814 0.99934 0.26045 0.0
C1336 C 0.78051 0.06493 0.33281 0.0
C1337 C 0.8036 0.05669 0.33541 0.0
C1338 C 0.76761 0.05995 0.31238 0.0
C1339 C 0.77777 0.04742 0.29349 0.0
C1340 C 0.80064 0.03835 0.29645 0.0
H1341 H 0.73961 0.08507 0.15113 0.0
H1342 H 0.75949 0.0763 0.18826 0.0
C1343 C 0.81331 0.04264 0.31743 0.0
C1344 C 0.76561 0.04702 0.26993 0.0
H1345 H 0.74978 0.01242 0.22282 0.0
C1346 C 0.75699 0.06841 0.2611 0.0
C1347 C 0.7623 0.02641 0.2562 0.0
C1348 C 0.76948 0.00256 0.26518 0.0
C1349 C 0.74556 0.0699 0.23916 0.0
C1350 C 0.74357 0.04964 0.22474 0.0
C1351 C 0.75164 0.02805 0.23364 0.0
C1352 C 0.73366 0.05113 0.20029 0.0
C1353 C 0.73544 0.09331 0.23184 0.0
C1354 C 0.71341 0.03855 0.1937 0.0
C1355 C 0.70222 0.04311 0.17192 0.0
C1356 C 0.71101 0.06054 0.15667 0.0
C1357 C 0.73208 0.07192 0.16272 0.0
C1358 C 0.74348 0.06694 0.18401 0.0
H1359 H 0.73159 0.10455 0.24749 0.0
H1360 H 0.74841 0.10274 0.22067 0.0
H1361 H 0.71898 0.0911 0.22153 0.0
H1362 H 0.70562 0.02607 0.20585 0.0
H1363 H 0.68608 0.03399 0.16765 0.0
H1364 H 0.41277 0.73101 0.16753 0.0
H1365 H 0.42355 0.75228 0.20321 0.0
H1366 H 0.48561 0.70952 0.21049 0.0
H1367 H 0.47471 0.68774 0.17432 0.0
H1368 H 0.45961 0.71267 0.25225 0.0
H1369 H 0.47362 0.80145 0.21627 0.0
H1370 H 0.44644 0.78946 0.20574 0.0
H1371 H 0.47376 0.77555 0.19776 0.0
C1372 C 0.42889 0.72617 0.17647 0.0
C1373 C 0.44285 0.70757 0.16803 0.0
C1374 C 0.43516 0.73858 0.19684 0.0
C1375 C 0.45559 0.73283 0.20943 0.0
C1376 C 0.46985 0.71444 0.20096 0.0
H1377 H 0.47063 0.82397 0.33635 0.0
H1378 H 0.48303 0.80225 0.30067 0.0
C1379 C 0.46364 0.70202 0.1803 0.0
C1380 C 0.46044 0.74492 0.23239 0.0
H1381 H 0.46055 0.79958 0.25745 0.0
C1382 C 0.46038 0.73166 0.25336 0.0
C1383 C 0.46204 0.76968 0.23401 0.0
C1384 C 0.46425 0.78483 0.21221 0.0
C1385 C 0.45978 0.74255 0.27577 0.0
C1386 C 0.45868 0.76735 0.27729 0.0
C1387 C 0.46089 0.78058 0.2564 0.0
C1388 C 0.45249 0.77965 0.29985 0.0
C1389 C 0.45967 0.72732 0.29762 0.0
C1390 C 0.43118 0.77437 0.31119 0.0
C1391 C 0.42406 0.78675 0.33135 0.0
C1392 C 0.43805 0.80483 0.34081 0.0
C1393 C 0.45952 0.81007 0.3296 0.0
C1394 C 0.46661 0.79768 0.30921 0.0
H1395 H 0.46916 0.71058 0.29442 0.0
H1396 H 0.4679 0.73644 0.31288 0.0
H1397 H 0.44126 0.72295 0.30236 0.0
H1398 H 0.41965 0.76099 0.30407 0.0
H1399 H 0.4074 0.7822 0.33941 0.0
H1400 H 0.77762 0.41301 0.16483 0.0
H1401 H 0.75438 0.42461 0.19911 0.0
H1402 H 0.79559 0.48768 0.20626 0.0
H1403 H 0.81931 0.47596 0.17164 0.0
H1404 H 0.79112 0.46332 0.24855 0.0
H1405 H 0.70366 0.47417 0.20816 0.0
H1406 H 0.7166 0.44684 0.19928 0.0
H1407 H 0.73039 0.47402 0.19086 0.0
C1408 C 0.78168 0.4295 0.17346 0.0
C1409 C 0.80037 0.44356 0.16545 0.0
C1410 C 0.76816 0.43624 0.19299 0.0
C1411 C 0.77292 0.45722 0.20511 0.0
C1412 C 0.79143 0.47151 0.19707 0.0
H1413 H 0.67707 0.47578 0.32831 0.0
H1414 H 0.69979 0.4874 0.29298 0.0
C1415 C 0.80495 0.46482 0.17729 0.0
C1416 C 0.75971 0.4627 0.22729 0.0
H1417 H 0.70396 0.46293 0.24992 0.0
C1418 C 0.77207 0.46381 0.24879 0.0
C1419 C 0.73486 0.46395 0.22775 0.0
C1420 C 0.72063 0.46496 0.20523 0.0
C1421 C 0.76022 0.46399 0.2707 0.0
C1422 C 0.73539 0.46252 0.27116 0.0
C1423 C 0.723 0.46358 0.24967 0.0
C1424 C 0.72232 0.4568 0.29334 0.0
C1425 C 0.77445 0.46498 0.29322 0.0
C1426 C 0.72724 0.43573 0.30514 0.0
C1427 C 0.71429 0.42905 0.32505 0.0
C1428 C 0.69601 0.44327 0.33379 0.0
C1429 C 0.69112 0.46452 0.32211 0.0
C1430 C 0.70407 0.47116 0.30193 0.0
H1431 H 0.79136 0.47429 0.29036 0.0
H1432 H 0.76464 0.47393 0.30765 0.0
H1433 H 0.77858 0.44685 0.29905 0.0
H1434 H 0.74083 0.42408 0.29862 0.0
H1435 H 0.7186 0.41256 0.33352 0.0
H1436 H 0.04757 0.82215 0.18462 0.0
H1437 H 0.04082 0.80168 0.22239 0.0
H1438 H 0.0836 0.74401 0.19793 0.0
H1439 H 0.09175 0.76511 0.16122 0.0
H1440 H 0.0233 0.76226 0.23899 0.0
H1441 H 0.11886 0.76079 0.25574 0.0
H1442 H 0.10637 0.77652 0.23115 0.0
H1443 H 0.1121 0.74545 0.2289 0.0
C1444 C 0.05544 0.80507 0.18739 0.0
C1445 C 0.07065 0.79547 0.17029 0.0
C1446 C 0.05152 0.79333 0.20892 0.0
C1447 C 0.0624 0.77162 0.21346 0.0
C1448 C 0.07585 0.76117 0.1954 0.0
H1449 H 0.03649 0.67763 0.33422 0.0
H1450 H 0.03216 0.69952 0.29694 0.0
C1451 C 0.0804 0.7732 0.17432 0.0
C1452 C 0.06109 0.76053 0.23742 0.0
H1453 H 0.09551 0.73655 0.28055 0.0
C1454 C 0.03909 0.7568 0.2482 0.0
C1455 C 0.08167 0.75392 0.24987 0.0
C1456 C 0.10605 0.75963 0.24094 0.0
C1457 C 0.03716 0.74625 0.27076 0.0
C1458 C 0.05773 0.73833 0.28244 0.0
C1459 C 0.07964 0.74233 0.27167 0.0
C1460 C 0.05753 0.72643 0.30606 0.0
C1461 C 0.01321 0.74435 0.28207 0.0
C1462 C 0.0732 0.73403 0.3237 0.0
C1463 C 0.07635 0.72104 0.34439 0.0
C1464 C 0.06337 0.70047 0.34843 0.0
C1465 C 0.04661 0.6935 0.33157 0.0
C1466 C 0.04398 0.70617 0.31036 0.0
H1467 H 1.00094 0.75774 0.2749 0.0
H1468 H 0.00571 0.72681 0.27813 0.0
H1469 H 0.01419 0.7465 0.30161 0.0
H1470 H 0.0837 0.74967 0.3211 0.0
H1471 H 0.08918 0.72706 0.3572 0.0
H1472 H 0.17989 0.97973 0.67553 0.0
H1473 H 0.20104 0.99127 0.71189 0.0
H1474 H 0.24184 0.92765 0.7081 0.0
H1475 H 0.22111 0.91614 0.67232 0.0
H1476 H 0.20265 0.96576 0.75514 0.0
H1477 H 0.29223 0.97769 0.71952 0.0
H1478 H 0.26629 0.97857 0.70111 0.0
H1479 H 0.27921 0.95088 0.70918 0.0
C1480 C 0.19359 0.9684 0.68235 0.0
C1481 C 0.19873 0.94698 0.67102 0.0
C1482 C 0.20564 0.97499 0.70311 0.0
C1483 C 0.22329 0.96048 0.7126 0.0
C1484 C 0.22867 0.93939 0.70096 0.0
H1485 H 0.27217 0.91509 0.84305 0.0
H1486 H 0.25075 0.92699 0.80783 0.0
C1487 C 0.21658 0.93273 0.68052 0.0
C1488 C 0.23514 0.96594 0.73554 0.0
H1489 H 0.28961 0.96669 0.76101 0.0
C1490 C 0.22164 0.96654 0.75639 0.0
C1491 C 0.25991 0.96749 0.73731 0.0
C1492 C 0.27526 0.96888 0.71556 0.0
C1493 C 0.23233 0.96659 0.7789 0.0
C1494 C 0.25714 0.96555 0.78063 0.0
C1495 C 0.2706 0.96706 0.7598 0.0
C1496 C 0.26922 0.95986 0.80339 0.0
C1497 C 0.21692 0.96705 0.80067 0.0
C1498 C 0.2871 0.97422 0.81269 0.0
C1499 C 0.29959 0.96737 0.83306 0.0
C1500 C 0.29465 0.94585 0.84423 0.0
C1501 C 0.27654 0.93176 0.83498 0.0
C1502 C 0.26404 0.93867 0.81487 0.0
H1503 H 0.19999 0.97606 0.79703 0.0
H1504 H 0.21286 0.94878 0.80609 0.0
H1505 H 0.22577 0.97603 0.81568 0.0
H1506 H 0.29158 0.99057 0.80403 0.0
H1507 H 0.31347 0.97858 0.83968 0.0
H1508 H 0.52916 0.32101 0.8327 0.0
H1509 H 0.51835 0.29867 0.79679 0.0
H1510 H 0.58485 0.26255 0.79936 0.0
H1511 H 0.59555 0.2843 0.83469 0.0
H1512 H 0.54194 0.2977 0.75287 0.0
H1513 H 0.53867 0.20862 0.79061 0.0
H1514 H 0.53771 0.23472 0.80878 0.0
H1515 H 0.56545 0.22307 0.79884 0.0
C1516 C 0.54129 0.3081 0.82569 0.0
C1517 C 0.56321 0.3045 0.83662 0.0
C1518 C 0.53513 0.29537 0.80518 0.0
C1519 C 0.55064 0.27861 0.79554 0.0
C1520 C 0.57234 0.27495 0.80665 0.0
H1521 H 0.59478 0.22943 0.66387 0.0
H1522 H 0.5832 0.25083 0.69939 0.0
C1523 C 0.57853 0.28765 0.82685 0.0
C1524 C 0.54542 0.26583 0.77303 0.0
H1525 H 0.54854 0.21098 0.74855 0.0
C1526 C 0.54284 0.27871 0.75199 0.0
C1527 C 0.54604 0.241 0.77174 0.0
C1528 C 0.54686 0.22604 0.79376 0.0
C1529 C 0.54288 0.26754 0.7297 0.0
C1530 C 0.54603 0.24292 0.72835 0.0
C1531 C 0.54657 0.22989 0.74945 0.0
C1532 C 0.5515 0.2308 0.70551 0.0
C1533 C 0.53996 0.2822 0.70768 0.0
C1534 C 0.5377 0.21209 0.69707 0.0
C1535 C 0.54433 0.19969 0.67653 0.0
C1536 C 0.56509 0.20554 0.66431 0.0
C1537 C 0.5787 0.22437 0.67278 0.0
C1538 C 0.57196 0.23684 0.69304 0.0
H1539 H 0.53091 0.29905 0.71159 0.0
H1540 H 0.5575 0.28631 0.70015 0.0
H1541 H 0.52972 0.2725 0.69414 0.0
H1542 H 0.52194 0.20694 0.7065 0.0
H1543 H 0.53351 0.18523 0.67054 0.0
H1544 H 0.27314 0.58341 0.66358 0.0
H1545 H 0.25331 0.5759 0.70116 0.0
H1546 H 0.31191 0.53375 0.72416 0.0
H1547 H 0.33146 0.54034 0.68569 0.0
H1548 H 0.26928 0.51707 0.74207 0.0
H1549 H 0.27686 0.61264 0.75748 0.0
H1550 H 0.26074 0.60623 0.73098 0.0
H1551 H 0.29129 0.59819 0.73304 0.0
C1552 C 0.28165 0.57217 0.67645 0.0
C1553 C 0.30403 0.56278 0.67188 0.0
C1554 C 0.27032 0.56796 0.698 0.0
C1555 C 0.28143 0.55494 0.71588 0.0
C1556 C 0.30308 0.54408 0.71075 0.0
H1557 H 0.24228 0.58617 0.86104 0.0
H1558 H 0.26436 0.57786 0.82492 0.0
C1559 C 0.31424 0.54784 0.6888 0.0
C1560 C 0.27134 0.55475 0.74033 0.0
H1561 H 0.25206 0.59172 0.78387 0.0
C1562 C 0.26566 0.53336 0.75134 0.0
C1563 C 0.26709 0.57596 0.75275 0.0
C1564 C 0.27455 0.59952 0.74308 0.0
C1565 C 0.25522 0.53271 0.77407 0.0
C1566 C 0.24977 0.55404 0.78584 0.0
C1567 C 0.25597 0.57531 0.77494 0.0
C1568 C 0.23789 0.55524 0.80951 0.0
C1569 C 0.25059 0.50921 0.7854 0.0
C1570 C 0.21586 0.54467 0.81351 0.0
C1571 C 0.20334 0.54909 0.83457 0.0
C1572 C 0.2124 0.56455 0.8517 0.0
C1573 C 0.23476 0.57433 0.84807 0.0
C1574 C 0.24741 0.56956 0.82738 0.0
H1575 H 0.26238 0.49543 0.7781 0.0
H1576 H 0.25303 0.51003 0.8049 0.0
H1577 H 0.23221 0.50387 0.78173 0.0
H1578 H 0.20779 0.53396 0.79993 0.0
H1579 H 0.18608 0.54143 0.83687 0.0
H1580 H 0.90003 0.28672 0.6533 0.0
H1581 H 0.9077 0.26438 0.68915 0.0
H1582 H 0.97507 0.29821 0.69629 0.0
H1583 H 0.96726 0.32125 0.66026 0.0
H1584 H 0.9433 0.23304 0.70041 0.0
H1585 H 0.94387 0.31042 0.76065 0.0
H1586 H 0.9334 0.3121 0.73052 0.0
H1587 H 0.96439 0.31138 0.73643 0.0
C1588 C 0.91651 0.28957 0.66244 0.0
C1589 C 0.93302 0.30591 0.65393 0.0
C1590 C 0.92091 0.27661 0.68293 0.0
C1591 C 0.94183 0.27974 0.6956 0.0
C1592 C 0.95861 0.29576 0.68701 0.0
H1593 H 0.98109 0.22164 0.83274 0.0
H1594 H 0.98167 0.23978 0.79368 0.0
C1595 C 0.9542 0.30883 0.66638 0.0
C1596 C 0.94538 0.26652 0.71805 0.0
H1597 H 0.94958 0.2734 0.77808 0.0
C1598 C 0.9448 0.24186 0.7174 0.0
C1599 C 0.94727 0.27802 0.74022 0.0
C1600 C 0.9471 0.30442 0.74218 0.0
C1601 C 0.94587 0.22844 0.7383 0.0
C1602 C 0.94727 0.23996 0.76047 0.0
C1603 C 0.94842 0.26458 0.76107 0.0
C1604 C 0.94744 0.22698 0.78335 0.0
C1605 C 0.94563 0.20204 0.73647 0.0
C1606 C 0.92802 0.21349 0.79057 0.0
C1607 C 0.92756 0.20302 0.8131 0.0
C1608 C 0.94649 0.20596 0.82885 0.0
C1609 C 0.96612 0.21899 0.82122 0.0
C1610 C 0.96653 0.22944 0.79882 0.0
H1611 H 0.95046 0.19596 0.71838 0.0
H1612 H 0.95794 0.19409 0.74944 0.0
H1613 H 0.92769 0.19553 0.74049 0.0
H1614 H 0.9129 0.21166 0.77908 0.0
H1615 H 0.91212 0.19323 0.81838 0.0
H1616 H 0.45411 0.99985 0.90789 0.0
H1617 H 0.48619 0.99474 0.93624 0.0
H1618 H 0.43906 0.01179 0.99365 0.0
H1619 H 0.4068 0.01672 0.96521 0.0
H1620 H 0.5026 0.03099 0.96423 0.0
H1621 H 0.47525 0.95586 0.02036 0.0
H1622 H 0.46209 0.96181 0.99188 0.0
H1623 H 0.45353 0.97854 0.0175 0.0
C1624 C 0.45042 1.00174 0.92664 0.0
C1625 C 0.4279 0.00852 0.93436 0.0
C1626 C 0.46882 0.99901 0.94282 0.0
C1627 C 0.46513 0.00289 0.96712 0.0
C1628 C 0.44232 0.00834 0.97505 0.0
H1629 H 0.55812 0.00559 0.08925 0.0
H1630 H 0.52556 0.01213 0.06173 0.0
C1631 C 0.42382 0.01103 0.95881 0.0
C1632 C 0.48557 0.00324 0.98364 0.0
H1633 H 0.50828 0.97767 0.03335 0.0
C1634 C 0.50388 0.01926 0.97931 0.0
C1635 C 0.48723 0.98806 1.00339 0.0
C1636 C 0.4686 0.96994 0.00852 0.0
C1637 C 0.5236 0.02069 0.99427 0.0
C1638 C 0.52533 0.00542 0.01395 0.0
C1639 C 0.50697 0.98946 0.01833 0.0
C1640 C 0.54607 0.00534 0.03013 0.0
C1641 C 0.54215 0.03889 0.98914 0.0
C1642 C 0.56874 1.00024 0.02157 0.0
C1643 C 0.58751 0.99684 0.03734 0.0
C1644 C 0.58385 0.99826 0.06193 0.0
C1645 C 0.56149 0.0047 0.07036 0.0
C1646 C 0.54282 0.00819 0.05465 0.0
H1647 H 0.53516 0.05336 0.97799 0.0
H1648 H 0.54926 0.04649 0.00578 0.0
H1649 H 0.55685 0.03053 0.97933 0.0
H1650 H 0.57167 0.9975 1.0028 0.0
H1651 H 0.60439 0.99133 0.0304 0.0
H1652 H 0.49659 0.45567 0.90779 0.0
H1653 H 0.50225 0.48722 0.9367 0.0
H1654 H 0.49363 0.43755 0.99367 0.0
H1655 H 0.48842 0.40584 0.96464 0.0
H1656 H 0.46908 0.5016 0.9677 0.0
H1657 H 0.54869 0.47543 0.01756 0.0
H1658 H 0.54086 0.46224 0.98956 0.0
H1659 H 0.52669 0.45292 0.01648 0.0
C1660 C 0.49675 0.45137 0.9265 0.0
C1661 C 0.49237 0.42824 0.93397 0.0
C1662 C 0.49975 0.46945 0.94302 0.0
C1663 C 0.49843 0.46488 0.96745 0.0
C1664 C 0.4952 0.44155 0.97498 0.0
H1665 H 0.49681 0.55144 0.09419 0.0
H1666 H 0.49044 0.52048 0.06478 0.0
C1667 C 0.49232 0.42337 0.95839 0.0
C1668 C 0.49845 0.48478 0.98475 0.0
H1669 H 0.52582 0.50633 0.03411 0.0
C1670 C 0.4816 0.50268 0.98214 0.0
C1671 C 0.51469 0.48627 1.00367 0.0
C1672 C 0.5339 0.46832 0.00692 0.0
C1673 C 0.48031 0.5217 0.99806 0.0
C1674 C 0.49647 0.5231 0.01703 0.0
C1675 C 0.51333 0.50524 0.01964 0.0
C1676 C 0.4964 0.54288 0.03444 0.0
C1677 C 0.46132 0.53987 0.99474 0.0
C1678 C 0.50095 0.56608 0.02723 0.0
C1679 C 0.50434 0.58392 0.0441 0.0
C1680 C 0.50339 0.57882 0.06845 0.0
C1681 C 0.49737 0.55593 0.07554 0.0
C1682 C 0.49396 0.53817 0.05874 0.0
H1683 H 0.44687 0.53326 0.98332 0.0
H1684 H 0.45384 0.54536 0.01207 0.0
H1685 H 0.46897 0.55559 0.98609 0.0
H1686 H 0.50328 0.57013 0.00862 0.0
H1687 H 0.50949 0.60124 0.03814 0.0
H1688 H 0.06107 0.49559 0.91412 0.0
H1689 H 0.02638 0.50432 0.93853 0.0
H1690 H 0.06903 0.49989 1.00154 0.0
H1691 H 0.10363 0.49159 0.97708 0.0
H1692 H 0.00838 0.4736 0.97026 0.0
H1693 H 0.02921 0.55645 0.01679 0.0
H1694 H 0.04524 0.54679 0.99093 0.0
H1695 H 0.05227 0.53523 0.01976 0.0
C1696 C 0.06315 0.49765 0.9331 0.0
C1697 C 0.08508 0.49364 0.94374 0.0
C1698 C 0.0433 0.5023 0.94707 0.0
C1699 C 0.04504 0.50297 0.97192 0.0
C1700 C 0.06725 0.50007 0.98243 0.0
H1701 H 0.95703 0.49835 0.09497 0.0
H1702 H 0.9875 0.4934 0.06474 0.0
C1703 C 0.08707 0.49545 0.96846 0.0
C1704 C 0.02349 0.5041 0.98694 0.0
H1705 H 0.99904 0.53259 0.03424 0.0
C1706 C 0.00616 0.48672 0.98402 0.0
C1707 C 0.02054 0.52118 0.00492 0.0
C1708 C 0.03769 0.5411 0.00815 0.0
C1709 C 0.98654 0.48542 0.99919 0.0
C1710 C 0.98409 0.50199 0.01767 0.0
C1711 C 1.00105 0.51973 0.02018 0.0
C1712 C 0.96456 0.50098 0.03519 0.0
C1713 C 0.96899 0.46586 0.99594 0.0
C1714 C 0.94127 0.50593 0.02856 0.0
C1715 C 0.92372 0.5086 0.04588 0.0
C1716 C 0.92928 0.50647 0.07006 0.0
C1717 C 0.95224 0.49991 0.07645 0.0
C1718 C 0.96969 0.49728 0.05921 0.0
H1719 H 0.9754 0.45226 0.98338 0.0
H1720 H 0.96501 0.45742 0.01322 0.0
H1721 H 0.95236 0.47321 0.98889 0.0
H1722 H 0.93696 0.5091 0.01014 0.0
H1723 H 0.90631 0.51409 0.04051 0.0
H1724 H 0.02436 0.09201 0.98653 0.0
H1725 H 0.01959 0.0591 0.0141 0.0
H1726 H 0.97146 0.02607 0.96548 0.0
H1727 H 0.97603 0.05921 0.93791 0.0
H1728 H 0.97494 0.03478 0.03394 0.0
H1729 H 0.03216 0.98137 0.9745 0.0
H1730 H 0.03226 0.01305 0.97379 0.0
H1731 H 0.00795 0.99717 0.96155 0.0
C1732 C 0.0121 0.07813 0.98218 0.0
C1733 C 1.00033 0.07819 0.9603 0.0
C1734 C 0.00953 0.05929 0.99781 0.0
C1735 C 0.99542 0.04007 0.99165 0.0
C1736 C 0.98251 0.04073 0.97045 0.0
H1737 H 0.98389 0.90225 0.0582 0.0
H1738 H 0.98581 0.93433 0.0292 0.0
C1739 C 0.9849 0.05973 0.95488 0.0
C1740 C 0.9958 0.01871 0.0066 0.0
H1741 H 0.01952 0.9637 0.00997 0.0
C1742 C 0.98457 0.01918 0.0287 0.0
C1743 C 0.00836 0.99842 0.99962 0.0
C1744 C 0.02102 0.9973 0.97613 0.0
C1745 C 0.98555 0.99983 0.04408 0.0
C1746 C 0.99876 0.97975 0.03747 0.0
C1747 C 0.00962 0.97915 0.01512 0.0
C1748 C 1.0013 0.95926 0.05357 0.0
C1749 C 0.97207 1.00098 0.06713 0.0
C1750 C 0.01074 0.96217 0.07638 0.0
C1751 C 0.00966 0.94392 0.09286 0.0
C1752 C 0.99958 0.92228 0.08667 0.0
C1753 C 0.99211 0.91865 0.06323 0.0
C1754 C 0.99298 0.93704 0.04677 0.0
H1755 H 0.95775 0.01421 0.06639 0.0
H1756 H 0.96429 0.98368 0.07163 0.0
H1757 H 0.9842 0.00613 0.08161 0.0
H1758 H 0.01784 0.97896 0.08182 0.0
H1759 H 0.01532 0.94716 0.1109 0.0
H1760 H 0.40785 0.49001 0.54913 0.0
H1761 H 0.43667 0.49418 0.5169 0.0
H1762 H 0.49038 0.51104 0.56796 0.0
H1763 H 0.46176 0.50686 0.6001 0.0
H1764 H 0.46878 0.53081 0.50256 0.0
H1765 H 0.51544 0.45139 0.53456 0.0
H1766 H 0.48627 0.45912 0.54445 0.0
H1767 H 0.51146 0.47389 0.55652 0.0
C1768 C 0.42563 0.49531 0.55338 0.0
C1769 C 0.43259 0.49801 0.57713 0.0
C1770 C 0.44213 0.49747 0.53499 0.0
C1771 C 0.46582 0.50228 0.5401 0.0
C1772 C 0.47234 0.50674 0.56365 0.0
H1773 H 0.5953 0.51413 0.45912 0.0
H1774 H 0.56585 0.5083 0.49048 0.0
C1775 C 0.45593 0.50458 0.58197 0.0
C1776 C 0.48396 0.50158 0.5211 0.0
H1777 H 0.53375 0.47268 0.50351 0.0
C1778 C 0.4829 0.51802 0.50266 0.0
C1779 C 0.50242 0.48488 0.52129 0.0
C1780 C 0.50395 0.46616 0.54013 0.0
C1781 C 0.5001 0.51861 0.48474 0.0
C1782 C 0.51859 0.50192 0.48493 0.0
C1783 C 0.51959 0.48541 0.50333 0.0
C1784 C 0.53713 0.50164 0.46628 0.0
C1785 C 0.49867 0.53754 0.4661 0.0
C1786 C 0.53108 0.49842 0.44238 0.0
C1787 C 0.54785 0.50163 0.42455 0.0
C1788 C 0.57108 0.50783 0.43026 0.0
C1789 C 0.57761 0.50905 0.45424 0.0
C1790 C 0.56074 0.50596 0.47214 0.0
H1791 H 0.48728 0.55234 0.47186 0.0
H1792 H 0.51638 0.54454 0.46183 0.0
H1793 H 0.49106 0.53005 0.44965 0.0
H1794 H 0.51312 0.4945 0.43745 0.0
H1795 H 0.54236 0.50065 0.40619 0.0
H1796 H 0.99615 0.55356 0.41128 0.0
H1797 H 0.00285 0.52234 0.44022 0.0
H1798 H 0.99532 0.57237 0.49713 0.0
H1799 H 0.98821 0.6037 0.46807 0.0
H1800 H 0.03386 0.51408 0.47734 0.0
H1801 H 0.94249 0.52521 0.51026 0.0
H1802 H 0.95294 0.53911 0.48352 0.0
H1803 H 0.96045 0.55105 0.51203 0.0
C1804 C 0.9966 0.55801 0.42996 0.0
C1805 C 0.99163 0.58103 0.43746 0.0
C1806 C 1.00029 0.54013 0.44648 0.0
C1807 C 0.99896 0.54487 0.47086 0.0
C1808 C 0.99589 0.56821 0.4784 0.0
H1809 H 0.00453 0.4563 0.5951 0.0
H1810 H 0.99799 0.48803 0.56665 0.0
C1811 C 0.99222 0.58618 0.46181 0.0
C1812 C 0.99929 0.52509 0.48808 0.0
H1813 H 0.96579 0.49667 0.52948 0.0
C1814 C 0.01898 0.51026 0.48873 0.0
C1815 C 0.97976 0.51997 0.5028 0.0
C1816 C 0.9576 0.53451 0.50206 0.0
C1817 C 0.01986 0.49078 0.50399 0.0
C1818 C 1.00033 0.48567 0.51869 0.0
C1819 C 0.98066 0.50051 0.51809 0.0
C1820 C 1.0006 0.46573 0.53571 0.0
C1821 C 0.04194 0.47612 0.50465 0.0
C1822 C 0.00294 0.44242 0.52783 0.0
C1823 C 0.00645 0.42418 0.54414 0.0
C1824 C 0.00766 0.42902 0.56853 0.0
C1825 C 0.00354 0.45209 0.57639 0.0
C1826 C 0.99995 0.47024 0.56015 0.0
H1827 H 0.05705 0.48527 0.49627 0.0
H1828 H 0.04669 0.47162 0.52318 0.0
H1829 H 0.0389 0.45951 0.49484 0.0
H1830 H 0.00305 0.43848 0.50905 0.0
H1831 H 0.00984 0.40662 0.5376 0.0
H1832 H 0.95638 0.00298 0.40677 0.0
H1833 H 0.98661 0.00832 0.43711 0.0
H1834 H 0.93603 0.99175 0.49152 0.0
H1835 H 0.90557 0.98654 0.4611 0.0
H1836 H 0.96721 0.02843 0.50403 0.0
H1837 H 0.01588 0.95112 0.4697 0.0
H1838 H 0.01045 0.97342 0.44793 0.0
H1839 H 0.98617 0.95778 0.46083 0.0
C1840 C 0.95159 1.00095 0.42525 0.0
C1841 C 0.92862 0.99424 0.43155 0.0
C1842 C 0.96894 0.00377 0.44255 0.0
C1843 C 0.96379 0.99976 0.46654 0.0
C1844 C 0.94048 0.99469 0.47308 0.0
H1845 H 0.04491 0.99897 0.59719 0.0
H1846 H 0.01509 0.99289 0.56656 0.0
C1847 C 0.92303 0.99193 0.45573 0.0
C1848 C 0.9829 0.99997 0.48458 0.0
H1849 H 0.03467 0.97335 0.4998 0.0
C1850 C 0.98189 0.01632 0.50317 0.0
C1851 C 1.00212 0.98416 0.48346 0.0
C1852 C 0.00371 0.96547 0.46455 0.0
C1853 C 0.99974 0.0176 0.52036 0.0
C1854 C 0.01895 1.00179 0.51924 0.0
C1855 C 0.01998 0.98545 0.50065 0.0
C1856 C 0.03799 1.002 0.53735 0.0
C1857 C 0.99814 0.03627 0.53929 0.0
C1858 C 0.06123 0.00758 0.53102 0.0
C1859 C 0.07845 0.01075 0.54855 0.0
C1860 C 0.07266 0.00833 0.57266 0.0
C1861 C 0.04984 1.001 0.57874 0.0
C1862 C 0.03273 0.99777 0.56128 0.0
H1863 H 0.98589 0.05058 0.5342 0.0
H1864 H 0.99151 0.02828 0.55593 0.0
H1865 H 0.01567 0.04403 0.54295 0.0
H1866 H 0.06575 0.01072 0.51263 0.0
H1867 H 0.0958 0.01665 0.54337 0.0
H1868 H 0.49783 0.95905 0.41017 0.0
H1869 H 0.49359 0.98933 0.44065 0.0
H1870 H 0.50685 0.93777 0.49489 0.0
H1871 H 0.51152 0.90739 0.46428 0.0
H1872 H 0.46547 0.99553 0.48064 0.0
H1873 H 0.55944 0.98595 0.5053 0.0
H1874 H 0.54722 0.9727 0.47898 0.0
H1875 H 0.54238 0.95952 0.50751 0.0
C1876 C 0.49931 0.95407 0.42864 0.0
C1877 C 0.50511 0.93087 0.43485 0.0
C1878 C 0.49697 0.97141 0.44604 0.0
C1879 C 0.5005 0.96598 0.47003 0.0
C1880 C 0.50458 0.94248 0.47644 0.0
H1881 H 0.50375 0.04926 0.59823 0.0
H1882 H 0.50836 0.01903 0.56774 0.0
C1883 C 0.50688 0.92505 0.45899 0.0
C1884 C 0.50108 0.98519 0.48796 0.0
H1885 H 0.53697 0.01295 0.5277 0.0
C1886 C 0.48111 0.99936 0.49091 0.0
C1887 C 0.52157 0.99032 0.50123 0.0
C1888 C 0.54397 0.9765 0.49802 0.0
C1889 C 0.48089 0.01817 0.50709 0.0
C1890 C 0.50138 0.02329 0.52037 0.0
C1891 C 0.52135 0.00912 0.51742 0.0
C1892 C 0.50191 0.04247 0.53833 0.0
C1893 C 0.45851 0.03203 0.51027 0.0
C1894 C 0.49799 0.066 0.5319 0.0
C1895 C 0.49551 0.08339 0.54936 0.0
C1896 C 0.49692 0.07751 0.57351 0.0
C1897 C 0.50257 0.05428 0.57975 0.0
C1898 C 0.50511 0.03698 0.56234 0.0
H1899 H 0.44305 0.02267 0.50287 0.0
H1900 H 0.45519 0.03572 0.52932 0.0
H1901 H 0.46018 0.04906 0.50091 0.0
H1902 H 0.49594 0.07074 0.51343 0.0
H1903 H 0.49096 0.10108 0.54405 0.0
H1904 H 0.47897 0.78792 0.1399 0.0
H1905 H 0.50402 0.82247 0.14314 0.0
H1906 H 0.56246 0.77868 0.1633 0.0
H1907 H 0.53764 0.7438 0.1593 0.0
H1908 H 0.53165 0.84386 0.17629 0.0
H1909 H 0.5864 0.80811 0.1028 0.0
H1910 H 0.55902 0.79481 0.11152 0.0
H1911 H 0.58503 0.79031 0.12899 0.0
C1912 C 0.49706 0.7856 0.14536 0.0
C1913 C 0.50646 0.76305 0.1488 0.0
C1914 C 0.51136 0.80543 0.14729 0.0
C1915 C 0.53529 0.80313 0.15284 0.0
C1916 C 0.54421 0.78081 0.15833 0.0
H1917 H 0.61709 0.93643 0.14957 0.0
H1918 H 0.60265 0.89869 0.16509 0.0
C1919 C 0.52997 0.76091 0.15615 0.0
C1920 C 0.55102 0.82381 0.15049 0.0
H1921 H 0.595 0.84602 0.11591 0.0
C1922 C 0.54577 0.84427 0.16337 0.0
C1923 C 0.56934 0.82434 0.13346 0.0
C1924 C 0.57524 0.80333 0.11824 0.0
C1925 C 0.55757 0.8655 0.15891 0.0
C1926 C 0.57536 0.86614 0.14138 0.0
C1927 C 0.58145 0.84541 0.12943 0.0
C1928 C 0.58529 0.88857 0.13251 0.0
C1929 C 0.54994 0.88737 0.1719 0.0
C1930 C 0.58094 0.89502 0.10895 0.0
C1931 C 0.58927 0.91623 0.10009 0.0
C1932 C 0.60213 0.93166 0.11458 0.0
C1933 C 0.60714 0.92494 0.13804 0.0
C1934 C 0.59874 0.90352 0.14696 0.0
H1935 H 0.53368 0.88453 0.18244 0.0
H1936 H 0.56409 0.89296 0.18418 0.0
H1937 H 0.5468 0.9019 0.15919 0.0
H1938 H 0.57075 0.88371 0.09743 0.0
H1939 H 0.58556 0.9206 0.08178 0.0
H1940 H 0.71994 0.47541 0.13335 0.0
H1941 H 0.68427 0.49851 0.13896 0.0
H1942 H 0.72551 0.55632 0.16542 0.0
H1943 H 0.76147 0.5335 0.15923 0.0
H1944 H 0.66205 0.52193 0.17556 0.0
H1945 H 0.6946 0.58438 0.10714 0.0
H1946 H 0.70901 0.55683 0.11296 0.0
H1947 H 0.71282 0.58115 0.13289 0.0
C1948 C 0.72145 0.49293 0.14065 0.0
C1949 C 0.74358 0.50282 0.14533 0.0
C1950 C 0.701 0.50609 0.14394 0.0
C1951 C 0.70227 0.52934 0.15207 0.0
C1952 C 0.72418 0.53862 0.15856 0.0
H1953 H 0.56625 0.60656 0.15739 0.0
H1954 H 0.60464 0.59202 0.17119 0.0
C1955 C 0.7447 0.52552 0.15508 0.0
C1956 C 0.6809 0.54427 0.15139 0.0
H1957 H 0.65636 0.58996 0.12112 0.0
C1958 C 0.66085 0.53706 0.16398 0.0
C1959 C 0.67939 0.56392 0.13611 0.0
C1960 C 0.69999 0.572 0.12133 0.0
C1961 C 0.63908 0.54831 0.16086 0.0
C1962 C 0.63745 0.56742 0.14499 0.0
C1963 C 0.65775 0.57538 0.13338 0.0
C1964 C 0.6145 0.57708 0.13731 0.0
C1965 C 0.6177 0.53878 0.1734 0.0
C1966 C 0.60765 0.57399 0.11365 0.0
C1967 C 0.58605 0.58234 0.10578 0.0
C1968 C 0.57066 0.59396 0.12139 0.0
C1969 C 0.57772 0.59759 0.14501 0.0
C1970 C 0.59951 0.58915 0.15294 0.0
H1971 H 0.62142 0.52205 0.18276 0.0
H1972 H 0.61148 0.55179 0.18665 0.0
H1973 H 0.60323 0.53579 0.16056 0.0
H1974 H 0.619 0.56486 0.10125 0.0
H1975 H 0.5814 0.57972 0.08735 0.0
H1976 H 0.03573 0.7132 0.14019 0.0
H1977 H 0.01226 0.67812 0.1472 0.0
H1978 H 0.96012 0.71966 0.18361 0.0
H1979 H 0.98327 0.75511 0.17606 0.0
H1980 H 0.99236 0.65454 0.18531 0.0
H1981 H 0.92389 0.69402 0.12713 0.0
H1982 H 0.95264 0.70685 0.13033 0.0
H1983 H 0.93119 0.7101 0.15351 0.0
C1984 C 0.01948 0.71488 0.15006 0.0
C1985 C 0.01109 0.73702 0.15708 0.0
C1986 C 0.0061 0.69476 0.15413 0.0
C1987 C 0.98417 0.69636 0.16542 0.0
C1988 C 0.97673 0.71813 0.17435 0.0
H1989 H 0.90379 0.56211 0.16418 0.0
H1990 H 0.91926 0.5989 0.18111 0.0
C1991 C 0.99002 0.73835 0.17008 0.0
C1992 C 0.9683 0.67573 0.16517 0.0
H1993 H 0.9193 0.65471 0.1375 0.0
C1994 C 0.9761 0.65463 0.17532 0.0
C1995 C 0.94714 0.67592 0.15198 0.0
C1996 C 0.9382 0.69784 0.13995 0.0
C1997 C 0.96404 0.63345 0.17145 0.0
C1998 C 0.94358 0.63352 0.15728 0.0
C1999 C 0.93495 0.65483 0.14846 0.0
C2000 C 0.93336 0.61155 0.14784 0.0
C2001 C 0.97411 0.61091 0.18106 0.0
C2002 C 0.93578 0.60682 0.12358 0.0
C2003 C 0.92701 0.58611 0.11398 0.0
C2004 C 0.91558 0.56958 0.12842 0.0
C2005 C 0.9126 0.57453 0.15268 0.0
C2006 C 0.92153 0.5954 0.16237 0.0
H2007 H 0.99113 0.61368 0.19027 0.0
H2008 H 0.96153 0.60303 0.19381 0.0
H2009 H 0.97679 0.59813 0.16644 0.0
H2010 H 0.94474 0.61911 0.11205 0.0
H2011 H 0.92915 0.58304 0.09514 0.0
H2012 H 0.78604 0.03397 0.15316 0.0
H2013 H 0.82253 0.01432 0.16465 0.0
H2014 H 0.7916 0.94721 0.1481 0.0
H2015 H 0.75483 0.96667 0.13732 0.0
H2016 H 0.82123 0.94483 0.18697 0.0
H2017 H 0.86435 0.99055 0.11162 0.0
H2018 H 0.85171 0.00993 0.13323 0.0
H2019 H 0.833 0.99103 0.11603 0.0
C2020 C 0.78692 0.015 0.1523 0.0
C2021 C 0.76775 1.00188 0.14391 0.0
C2022 C 0.80779 0.0038 0.15882 0.0
C2023 C 0.81 0.97935 0.1566 0.0
C2024 C 0.79034 0.9661 0.14979 0.0
H2025 H 0.91991 0.87857 0.14036 0.0
H2026 H 0.88275 0.89739 0.15109 0.0
C2027 C 0.76935 0.97726 0.14359 0.0
C2028 C 0.83324 0.96781 0.15918 0.0
H2029 H 0.88819 0.96621 0.13497 0.0
C2030 C 0.83594 0.94957 0.17572 0.0
C2031 C 0.85235 0.97387 0.14431 0.0
C2032 C 0.85024 0.99224 0.12514 0.0
C2033 C 0.8573 0.93729 0.17779 0.0
C2034 C 0.8763 0.94335 0.16285 0.0
C2035 C 0.87367 0.96179 0.14661 0.0
C2036 C 0.89868 0.93004 0.16229 0.0
C2037 C 0.85941 0.91797 0.19588 0.0
C2038 C 0.92003 0.94185 0.16572 0.0
C2039 C 0.94127 0.93115 0.15958 0.0
C2040 C 0.94152 0.90847 0.14973 0.0
C2041 C 0.9203 0.89594 0.14816 0.0
C2042 C 0.89903 0.90669 0.1543 0.0
H2043 H 0.8459 0.91963 0.21002 0.0
H2044 H 0.85687 0.90079 0.18696 0.0
H2045 H 0.87709 0.91798 0.20417 0.0
H2046 H 0.92016 0.95989 0.1718 0.0
H2047 H 0.95737 0.94115 0.16112 0.0
H2048 H 0.59471 0.56787 0.33848 0.0
H2049 H 0.58051 0.60634 0.32453 0.0
H2050 H 0.55796 0.62322 0.39554 0.0
H2051 H 0.57222 0.58542 0.40951 0.0
H2052 H 0.53294 0.62534 0.32882 0.0
H2053 H 0.59879 0.67984 0.37524 0.0
H2054 H 0.60319 0.64896 0.36942 0.0
H2055 H 0.58582 0.65831 0.39439 0.0
C2056 C 0.58686 0.57993 0.35106 0.0
C2057 C 0.5844 0.5736 0.37503 0.0
C2058 C 0.57871 0.60179 0.34308 0.0
C2059 C 0.56843 0.61767 0.35908 0.0
C2060 C 0.56611 0.61134 0.38297 0.0
H2061 H 0.46768 0.72219 0.36889 0.0
H2062 H 0.48965 0.68661 0.35986 0.0
C2063 C 0.57406 0.58962 0.39087 0.0
C2064 C 0.55935 0.64075 0.35129 0.0
H2065 H 0.56182 0.6986 0.36633 0.0
C2066 C 0.53954 0.64149 0.33651 0.0
C2067 C 0.56826 0.66183 0.36093 0.0
C2068 C 0.59035 0.66228 0.37568 0.0
C2069 C 0.52728 0.66257 0.33276 0.0
C2070 C 0.53483 0.68323 0.34447 0.0
C2071 C 0.55578 0.68276 0.35757 0.0
C2072 C 0.5201 0.7047 0.34582 0.0
C2073 C 0.50602 0.66237 0.31684 0.0
C2074 C 0.52979 0.72684 0.34093 0.0
C2075 C 0.51735 0.7473 0.34644 0.0
C2076 C 0.49502 0.74598 0.35703 0.0
C2077 C 0.48484 0.72383 0.36074 0.0
C2078 C 0.49732 0.70341 0.35533 0.0
H2079 H 0.50782 0.64885 0.30275 0.0
H2080 H 0.49023 0.65792 0.32749 0.0
H2081 H 0.50317 0.67972 0.30837 0.0
H2082 H 0.54738 0.72828 0.3337 0.0
H2083 H 0.5256 0.76412 0.34322 0.0
H2084 H 0.9129 0.5837 0.41809 0.0
H2085 H 0.87591 0.56873 0.40266 0.0
H2086 H 0.89241 0.59689 0.33367 0.0
H2087 H 0.93017 0.61151 0.34901 0.0
H2088 H 0.83875 0.59274 0.38197 0.0
H2089 H 0.87773 0.52711 0.32011 0.0
H2090 H 0.89478 0.54116 0.34305 0.0
H2091 H 0.88684 0.55717 0.31689 0.0
C2092 C 0.9088 0.58658 0.39956 0.0
C2093 C 0.92464 0.59844 0.38465 0.0
C2094 C 0.88755 0.57815 0.39081 0.0
C2095 C 0.88153 0.5814 0.36695 0.0
C2096 C 0.89691 0.59386 0.35206 0.0
H2097 H 0.73651 0.5352 0.33829 0.0
H2098 H 0.77216 0.5589 0.33406 0.0
C2099 C 0.91834 0.60237 0.36087 0.0
C2100 C 0.85912 0.57132 0.3582 0.0
H2101 H 0.83683 0.52615 0.32533 0.0
C2102 C 0.8382 0.57846 0.36924 0.0
C2103 C 0.85857 0.55259 0.34173 0.0
C2104 C 0.88063 0.54385 0.32979 0.0
C2105 C 0.81697 0.56659 0.36531 0.0
C2106 C 0.81651 0.54737 0.34937 0.0
C2107 C 0.8372 0.54096 0.3374 0.0
C2108 C 0.79553 0.53201 0.34733 0.0
C2109 C 0.79563 0.57377 0.37952 0.0
C2110 C 0.79703 0.50853 0.35466 0.0
C2111 C 0.77677 0.49486 0.3568 0.0
C2112 C 0.75458 0.50447 0.35175 0.0
C2113 C 0.7533 0.52741 0.34268 0.0
C2114 C 0.77365 0.54102 0.34035 0.0
H2115 H 0.80019 0.58579 0.39434 0.0
H2116 H 0.78306 0.58303 0.36778 0.0
H2117 H 0.78664 0.55815 0.38701 0.0
H2118 H 0.81374 0.50113 0.35999 0.0
H2119 H 0.77842 0.47718 0.36362 0.0
H2120 H 0.88466 0.91443 0.37657 0.0
H2121 H 0.90354 0.87815 0.36305 0.0
H2122 H 0.96499 0.91734 0.34242 0.0
H2123 H 0.94621 0.95369 0.35581 0.0
H2124 H 0.92956 0.86211 0.31847 0.0
H2125 H 0.98424 0.87334 0.39951 0.0
H2126 H 0.95715 0.88919 0.39512 0.0
H2127 H 0.9832 0.8978 0.37944 0.0
C2128 C 0.90184 0.91544 0.36835 0.0
C2129 C 0.91408 0.93685 0.36749 0.0
C2130 C 0.91263 0.89468 0.3607 0.0
C2131 C 0.93575 0.89508 0.35206 0.0
C2132 C 0.9472 0.91668 0.34924 0.0
H2133 H 0.03789 0.78182 0.35362 0.0
H2134 H 0.01918 0.81942 0.34479 0.0
C2135 C 0.93647 0.9374 0.35692 0.0
C2136 C 0.949 0.87287 0.34931 0.0
H2137 H 0.99147 0.84015 0.37617 0.0
C2138 C 0.94322 0.8573 0.33093 0.0
C2139 C 0.96678 0.8667 0.36565 0.0
C2140 C 0.9732 0.88248 0.38617 0.0
C2141 C 0.95486 0.83563 0.32846 0.0
C2142 C 0.97231 0.82925 0.34515 0.0
C2143 C 0.97825 0.84507 0.36327 0.0
C2144 C 0.9837 0.80577 0.34543 0.0
C2145 C 0.94849 0.8199 0.30794 0.0
C2146 C 0.97007 0.78539 0.34796 0.0
C2147 C 0.98075 0.76382 0.35282 0.0
C2148 C 0.00524 0.76233 0.35568 0.0
C2149 C 0.01896 0.78245 0.35176 0.0
C2150 C 0.00828 0.80395 0.34667 0.0
H2151 H 0.94137 0.83019 0.29285 0.0
H2152 H 0.9639 0.80967 0.30167 0.0
H2153 H 0.93466 0.80742 0.31369 0.0
H2154 H 0.95107 0.78635 0.34763 0.0
H2155 H 0.96968 0.74865 0.35578 0.0
H2156 H 0.58495 0.88456 0.38146 0.0
H2157 H 0.62232 0.90194 0.36888 0.0
H2158 H 0.58618 0.96521 0.34844 0.0
H2159 H 0.54876 0.94796 0.36091 0.0
H2160 H 0.64014 0.92694 0.32502 0.0
H2161 H 0.6305 0.98255 0.40565 0.0
H2162 H 0.61333 0.95633 0.40104 0.0
H2163 H 0.60616 0.98278 0.38538 0.0
C2164 C 0.58486 0.90186 0.37352 0.0
C2165 C 0.56398 0.91502 0.37241 0.0
C2166 C 0.60623 0.91178 0.36642 0.0
C2167 C 0.607 0.93495 0.35808 0.0
C2168 C 0.58595 0.94738 0.35508 0.0
H2169 H 0.7218 0.03485 0.35538 0.0
H2170 H 0.68393 0.01574 0.34884 0.0
C2171 C 0.56462 0.93752 0.36221 0.0
C2172 C 0.62984 0.94714 0.35557 0.0
H2173 H 0.66376 0.98898 0.38197 0.0
C2174 C 0.64534 0.94058 0.33736 0.0
C2175 C 0.63655 0.96485 0.37178 0.0
C2176 C 0.62091 0.97201 0.3922 0.0
C2177 C 0.66737 0.95152 0.33481 0.0
C2178 C 0.67416 0.96909 0.35121 0.0
C2179 C 0.65851 0.97566 0.36929 0.0
C2180 C 0.69768 0.98039 0.35086 0.0
C2181 C 0.68301 0.9444 0.31443 0.0
C2182 C 0.71815 0.9669 0.35357 0.0
C2183 C 0.73989 0.97781 0.35715 0.0
C2184 C 0.74146 0.00239 0.35849 0.0
C2185 C 0.72114 0.01587 0.35465 0.0
C2186 C 0.69948 0.00497 0.35087 0.0
H2187 H 0.67269 0.93662 0.29968 0.0
H2188 H 0.69311 0.9596 0.30752 0.0
H2189 H 0.69567 0.93094 0.32064 0.0
H2190 H 0.71718 0.94794 0.35417 0.0
H2191 H 0.75521 0.96694 0.36013 0.0
H2192 H 0.44295 0.05276 0.86093 0.0
H2193 H 0.46085 0.08983 0.84853 0.0
H2194 H 0.39916 0.1273 0.87167 0.0
H2195 H 0.38118 0.09026 0.88436 0.0
H2196 H 0.42531 0.14355 0.82522 0.0
H2197 H 0.47887 0.13447 0.90728 0.0
H2198 H 0.47755 0.10944 0.88786 0.0
H2199 H 0.45155 0.11891 0.90313 0.0
C2200 C 0.43296 0.06884 0.86286 0.0
C2201 C 0.41076 0.06864 0.87385 0.0
C2202 C 0.44319 0.08997 0.85572 0.0
C2203 C 0.4314 0.11127 0.85942 0.0
C2204 C 0.40849 0.111 0.86863 0.0
H2205 H 0.46911 0.25837 0.85597 0.0
H2206 H 0.44865 0.22094 0.85175 0.0
C2207 C 0.39821 0.08982 0.87578 0.0
C2208 C 0.44418 0.13375 0.85671 0.0
H2209 H 0.48653 0.16704 0.88312 0.0
C2210 C 0.43874 0.14875 0.83779 0.0
C2211 C 0.46167 0.14038 0.87317 0.0
C2212 C 0.46776 0.12511 0.89413 0.0
C2213 C 0.45061 0.17022 0.83477 0.0
C2214 C 0.46797 0.17698 0.85143 0.0
C2215 C 0.47336 0.16183 0.87026 0.0
C2216 C 0.48033 0.19995 0.85043 0.0
C2217 C 0.44476 0.18523 0.81358 0.0
C2218 C 0.50499 0.20073 0.85106 0.0
C2219 C 0.51673 0.22209 0.85389 0.0
C2220 C 0.50406 0.24316 0.85605 0.0
C2221 C 0.47942 0.24249 0.85424 0.0
C2222 C 0.46767 0.22107 0.85164 0.0
H2223 H 0.43701 0.17463 0.79902 0.0
H2224 H 0.43164 0.19866 0.81887 0.0
H2225 H 0.46059 0.19438 0.80674 0.0
H2226 H 0.51515 0.18468 0.85021 0.0
H2227 H 0.53572 0.22197 0.85515 0.0
H2228 H 0.41406 0.42004 0.91405 0.0
H2229 H 0.37561 0.43141 0.89899 0.0
H2230 H 0.39474 0.40659 0.82936 0.0
H2231 H 0.4338 0.39534 0.84438 0.0
H2232 H 0.373 0.45284 0.83075 0.0
H2233 H 0.32149 0.38678 0.88036 0.0
H2234 H 0.34175 0.40246 0.89889 0.0
H2235 H 0.35274 0.38399 0.87548 0.0
C2236 C 0.41019 0.41705 0.89549 0.0
C2237 C 0.42704 0.40693 0.88035 0.0
C2238 C 0.3881 0.42337 0.88696 0.0
C2239 C 0.38222 0.41963 0.86313 0.0
C2240 C 0.39892 0.40951 0.84786 0.0
H2241 H 0.23346 0.44785 0.83665 0.0
H2242 H 0.27197 0.42956 0.83116 0.0
C2243 C 0.42113 0.403 0.85646 0.0
C2244 C 0.35871 0.42697 0.85452 0.0
H2245 H 0.30047 0.42104 0.86743 0.0
C2246 C 0.35707 0.44561 0.83836 0.0
C2247 C 0.33792 0.41727 0.86413 0.0
C2248 C 0.33849 0.39635 0.8805 0.0
C2249 C 0.33525 0.45585 0.83285 0.0
C2250 C 0.31466 0.44742 0.84409 0.0
C2251 C 0.31621 0.42772 0.85895 0.0
C2252 C 0.29173 0.45991 0.8427 0.0
C2253 C 0.33454 0.47586 0.8154 0.0
C2254 C 0.28998 0.48332 0.85032 0.0
C2255 C 0.268 0.49385 0.85341 0.0
C2256 C 0.24726 0.48109 0.84922 0.0
C2257 C 0.24906 0.45815 0.84015 0.0
C2258 C 0.27108 0.44764 0.83702 0.0
H2259 H 0.34912 0.47449 0.80235 0.0
H2260 H 0.3176 0.47638 0.80567 0.0
H2261 H 0.33671 0.49267 0.8251 0.0
H2262 H 0.30556 0.49305 0.85529 0.0
H2263 H 0.26729 0.51158 0.86031 0.0
H2264 H 0.10914 0.41356 0.95356 0.0
H2265 H 0.09865 0.37203 0.95133 0.0
H2266 H 0.11051 0.37285 0.8758 0.0
H2267 H 0.12104 0.41451 0.87793 0.0
H2268 H 0.0606 0.3566 0.92513 0.0
H2269 H 0.14205 0.31129 0.89616 0.0
H2270 H 0.14219 0.34048 0.9087 0.0
H2271 H 0.13393 0.33606 0.87828 0.0
C2272 C 0.10984 0.40481 0.93652 0.0
C2273 C 0.11574 0.41733 0.91588 0.0
C2274 C 0.10393 0.38107 0.93529 0.0
C2275 C 0.10393 0.36929 0.91344 0.0
C2276 C 0.11083 0.38145 0.89293 0.0
H2277 H 0.04509 0.24042 0.86062 0.0
H2278 H 0.06761 0.27634 0.86703 0.0
C2279 C 0.11681 0.40527 0.89415 0.0
C2280 C 0.09419 0.3452 0.91186 0.0
H2281 H 0.1066 0.28903 0.89469 0.0
C2282 C 0.07073 0.34177 0.91872 0.0
C2283 C 0.10739 0.32594 0.9033 0.0
C2284 C 0.13286 0.32849 0.89637 0.0
C2285 C 0.05991 0.31975 0.91675 0.0
C2286 C 0.07308 0.30045 0.90817 0.0
C2287 C 0.0966 0.30381 0.90142 0.0
C2288 C 0.06219 0.27701 0.90499 0.0
C2289 C 0.03422 0.31758 0.92308 0.0
C2290 C 0.05244 0.26494 0.92434 0.0
C2291 C 0.03941 0.24443 0.92073 0.0
C2292 C 0.03608 0.23554 0.89771 0.0
C2293 C 0.04718 0.24685 0.87857 0.0
C2294 C 0.06011 0.26739 0.88219 0.0
H2295 H 0.0254 0.33496 0.92388 0.0
H2296 H 0.02481 0.30644 0.91002 0.0
H2297 H 0.03255 0.30927 0.94078 0.0
H2298 H 0.05426 0.27181 0.94215 0.0
H2299 H 0.03125 0.23607 0.93588 0.0
H2300 H 0.21597 0.97554 0.86459 0.0
H2301 H 0.17857 0.99664 0.86363 0.0
H2302 H 0.21499 0.06181 0.87627 0.0
H2303 H 0.25244 0.04095 0.87655 0.0
H2304 H 0.16047 0.01882 0.90038 0.0
H2305 H 0.16855 0.08259 0.82705 0.0
H2306 H 0.18843 0.05813 0.83043 0.0
H2307 H 0.19272 0.08461 0.84732 0.0
C2308 C 0.21606 0.99444 0.86665 0.0
C2309 C 0.23719 0.00654 0.87078 0.0
C2310 C 0.19465 0.00649 0.86609 0.0
C2311 C 0.19388 0.03088 0.8697 0.0
C2312 C 0.21507 0.04311 0.87288 0.0
H2313 H 0.08069 0.10387 0.93868 0.0
H2314 H 0.11842 0.08762 0.92584 0.0
C2315 C 0.23652 0.0311 0.8732 0.0
C2316 C 0.17092 0.043 0.87299 0.0
H2317 H 0.13851 0.09071 0.85611 0.0
C2318 C 0.15561 0.03437 0.89046 0.0
C2319 C 0.16436 0.0632 0.85996 0.0
C2320 C 0.17928 0.07253 0.83997 0.0
C2321 C 0.13437 0.04571 0.89577 0.0
C2322 C 0.12845 0.06666 0.88371 0.0
C2323 C 0.14328 0.07489 0.86564 0.0
C2324 C 0.10699 0.08014 0.89004 0.0
C2325 C 0.11841 0.03506 0.91426 0.0
C2326 C 0.08852 0.0827 0.87375 0.0
C2327 C 0.06698 0.09229 0.881 0.0
C2328 C 0.06366 0.09939 0.90465 0.0
C2329 C 0.08273 0.09833 0.92041 0.0
C2330 C 0.10423 0.08895 0.91313 0.0
H2331 H 0.12215 0.01611 0.9169 0.0
H2332 H 0.12122 0.04412 0.93145 0.0
H2333 H 0.09966 0.03708 0.90926 0.0
H2334 H 0.09034 0.07613 0.85581 0.0
H2335 H 0.05251 0.09279 0.86856 0.0
H2336 H 0.54301 0.28425 0.64094 0.0
H2337 H 0.52516 0.32226 0.64957 0.0
H2338 H 0.45799 0.28873 0.65985 0.0
H2339 H 0.47586 0.25052 0.65189 0.0
H2340 H 0.49196 0.3411 0.62222 0.0
H2341 H 0.45794 0.33516 0.71404 0.0
H2342 H 0.47913 0.31465 0.70221 0.0
H2343 H 0.44838 0.3113 0.69566 0.0
C2344 C 0.52452 0.28488 0.64546 0.0
C2345 C 0.5108 0.26437 0.64555 0.0
C2346 C 0.51435 0.30664 0.65046 0.0
C2347 C 0.49027 0.30837 0.65556 0.0
C2348 C 0.47671 0.28782 0.65651 0.0
H2349 H 0.39069 0.4191 0.63502 0.0
H2350 H 0.40959 0.38222 0.64645 0.0
C2351 C 0.48691 0.26599 0.65172 0.0
C2352 C 0.4789 0.33179 0.65681 0.0
H2353 H 0.44255 0.36652 0.6901 0.0
C2354 C 0.48144 0.34675 0.63723 0.0
C2355 C 0.46505 0.33912 0.67635 0.0
C2356 C 0.46263 0.32431 0.69835 0.0
C2357 C 0.47009 0.36853 0.63635 0.0
C2358 C 0.45589 0.37565 0.65562 0.0
C2359 C 0.45346 0.36092 0.67538 0.0
C2360 C 0.44304 0.39817 0.65474 0.0
C2361 C 0.47291 0.38364 0.61455 0.0
C2362 C 0.45533 0.41938 0.6567 0.0
C2363 C 0.44458 0.44047 0.65028 0.0
C2364 C 0.42138 0.44065 0.6417 0.0
C2365 C 0.4085 0.41959 0.64173 0.0
C2366 C 0.41928 0.39848 0.64819 0.0
H2367 H 0.48209 0.37427 0.59995 0.0
H2368 H 0.45548 0.38955 0.60806 0.0
H2369 H 0.48326 0.3995 0.61913 0.0
H2370 H 0.47369 0.41943 0.66175 0.0
H2371 H 0.45486 0.45647 0.65066 0.0
H2372 H 0.08712 0.42159 0.58532 0.0
H2373 H 0.12512 0.43504 0.59972 0.0
H2374 H 0.10813 0.41022 0.66987 0.0
H2375 H 0.06948 0.39695 0.65549 0.0
H2376 H 0.12586 0.45633 0.6691 0.0
H2377 H 0.1833 0.39719 0.61741 0.0
H2378 H 0.16202 0.41133 0.59885 0.0
H2379 H 0.15237 0.39147 0.62169 0.0
C2380 C 0.09145 0.41891 0.60382 0.0
C2381 C 0.07524 0.40836 0.61933 0.0
C2382 C 0.1133 0.42639 0.61197 0.0
C2383 C 0.11962 0.42335 0.63579 0.0
C2384 C 0.10365 0.41256 0.65137 0.0
H2385 H 0.26475 0.4686 0.66131 0.0
H2386 H 0.22903 0.44501 0.66545 0.0
C2387 C 0.08167 0.40492 0.64315 0.0
C2388 C 0.14242 0.43283 0.64424 0.0
H2389 H 0.20066 0.43388 0.62996 0.0
C2390 C 0.14233 0.45111 0.66095 0.0
C2391 C 0.16397 0.42575 0.63397 0.0
C2392 C 0.16549 0.40518 0.61718 0.0
C2393 C 0.16295 0.4636 0.66631 0.0
C2394 C 0.18407 0.45793 0.65431 0.0
C2395 C 0.18446 0.43851 0.63896 0.0
C2396 C 0.20535 0.47304 0.65556 0.0
C2397 C 0.16176 0.48305 0.68443 0.0
C2398 C 0.20395 0.49677 0.64901 0.0
C2399 C 0.22429 0.51031 0.64674 0.0
C2400 C 0.24655 0.50033 0.65065 0.0
C2401 C 0.24789 0.47683 0.65814 0.0
C2402 C 0.22748 0.46331 0.6605 0.0
H2403 H 0.14784 0.47956 0.6978 0.0
H2404 H 0.17879 0.48532 0.69373 0.0
H2405 H 0.15727 0.49974 0.67539 0.0
H2406 H 0.1872 0.50458 0.64449 0.0
H2407 H 0.22259 0.52831 0.64086 0.0
H2408 H 0.02882 0.25694 0.63895 0.0
H2409 H 0.04712 0.21877 0.6458 0.0
H2410 H 0.97879 0.18789 0.65669 0.0
H2411 H 0.96028 0.22594 0.64905 0.0
H2412 H 0.04802 0.1855 0.68083 0.0
H2413 H 0.00316 0.15089 0.60065 0.0
H2414 H 0.00295 0.18161 0.60825 0.0
H2415 H 0.98351 0.16153 0.6231 0.0
C2416 C 0.01768 0.24211 0.64313 0.0
C2417 C 0.99308 0.24433 0.64298 0.0
C2418 C 0.02818 0.22028 0.64707 0.0
C2419 C 0.01431 0.20033 0.65113 0.0
C2420 C 0.98981 0.20291 0.65289 0.0
H2421 H 0.05117 0.05236 0.64428 0.0
H2422 H 0.03216 0.08906 0.65613 0.0
C2423 C 0.97927 0.22467 0.64863 0.0
C2424 C 0.0254 0.17672 0.65154 0.0
H2425 H 0.02685 0.12449 0.62184 0.0
C2426 C 0.04331 0.17209 0.66803 0.0
C2427 C 0.0194 0.1593 0.63467 0.0
C2428 C 1.00138 0.16358 0.61552 0.0
C2429 C 0.05535 0.15052 0.66808 0.0
C2430 C 0.04938 0.13324 0.65114 0.0
C2431 C 0.03123 0.13771 0.63496 0.0
C2432 C 0.06241 0.11081 0.64872 0.0
C2433 C 0.07433 0.14635 0.68621 0.0
C2434 C 0.08597 0.11077 0.64129 0.0
C2435 C 0.09686 0.08981 0.63438 0.0
C2436 C 0.08429 0.06856 0.63465 0.0
C2437 C 0.06122 0.06848 0.64365 0.0
C2438 C 0.05036 0.08941 0.65049 0.0
H2439 H 0.07272 0.15854 0.70151 0.0
H2440 H 0.07376 0.12801 0.69283 0.0
H2441 H 0.09174 0.14923 0.67783 0.0
H2442 H 0.09547 0.12712 0.63937 0.0
H2443 H 0.11452 0.09052 0.62726 0.0
H2444 H 0.24499 0.04005 0.64441 0.0
H2445 H 0.28316 0.05943 0.64829 0.0
H2446 H 0.3164 0.99227 0.65888 0.0
H2447 H 0.27847 0.9727 0.65423 0.0
H2448 H 0.31847 0.06162 0.68182 0.0
H2449 H 0.34977 0.01655 0.60041 0.0
H2450 H 0.31943 0.01598 0.6096 0.0
H2451 H 0.3405 0.99675 0.62327 0.0
C2452 C 0.26038 0.02941 0.64784 0.0
C2453 C 0.25876 0.0048 0.64861 0.0
C2454 C 0.28219 0.04054 0.65009 0.0
C2455 C 0.30272 0.02726 0.65328 0.0
C2456 C 0.30089 0.00282 0.65576 0.0
H2457 H 0.45109 0.05962 0.64507 0.0
H2458 H 0.4133 0.0427 0.65668 0.0
C2459 C 0.27916 0.99167 0.65319 0.0
C2460 C 0.32613 0.03878 0.65235 0.0
H2461 H 0.37763 0.03924 0.62123 0.0
C2462 C 0.33143 0.05673 0.6686 0.0
C2463 C 0.34295 0.03258 0.6349 0.0
C2464 C 0.33785 0.01459 0.6159 0.0
C2465 C 0.35326 0.06835 0.66807 0.0
C2466 C 0.37008 0.06189 0.65081 0.0
C2467 C 0.36478 0.04397 0.63462 0.0
C2468 C 0.39314 0.0738 0.64844 0.0
C2469 C 0.3583 0.08726 0.68606 0.0
C2470 C 0.39442 0.09715 0.64063 0.0
C2471 C 0.41602 0.10685 0.63387 0.0
C2472 C 0.43665 0.09327 0.63466 0.0
C2473 C 0.43547 0.07043 0.64404 0.0
C2474 C 0.41392 0.06076 0.65074 0.0
H2475 H 0.34579 0.08669 0.70118 0.0
H2476 H 0.37648 0.08558 0.69298 0.0
H2477 H 0.35674 0.10467 0.67742 0.0
H2478 H 0.37855 0.10739 0.63835 0.0
H2479 H 0.41629 0.12437 0.62645 0.0
loop_
_geom_bond_atom_site_label_1
_geom_bond_atom_site_label_2
_geom_bond_distance
_geom_bond_site_symmetry_2
_ccdc_geom_bond_type
O0 Tb1 2.292 . S
O0 C3 1.255 . S
Tb1 O0 2.292 . S
Tb1 O17 2.326 . S
Tb1 O19 2.500 . S
Tb1 O20 2.473 . S
Tb1 O23 2.324 . S
Eu2 O6 2.292 . S
Eu2 C7 2.852 . S
Eu2 O18 2.324 . S
Eu2 O22 2.326 . S
Eu2 O24 2.500 . S
Eu2 O25 2.473 . S
C3 O0 1.255 . S
C3 O4 1.247 . S
O4 C3 1.247 . S
C5 O17 1.242 . S
C5 O18 1.258 . S
O6 Eu2 2.292 . S
O6 C8 1.255 . S
C7 Eu2 2.852 . S
C7 C11 1.503 . S
C7 O24 1.273 . S
C7 O25 1.257 . S
C8 O6 1.255 . S
C8 O9 1.247 . S
O9 C8 1.247 . S
C10 O22 1.242 . S
C10 O23 1.258 . S
C11 C7 1.503 . S
C11 C12 1.379 . S
C11 C16 1.392 1_545 S
C12 C11 1.379 . S
C12 C13 1.404 . S
C12 H26 0.929 . S
C13 C12 1.404 . S
C13 C14 1.389 1_545 S
C14 C13 1.389 1_565 S
C14 C15 1.399 . S
C14 H27 0.931 . S
C15 C14 1.399 . S
C15 C16 1.390 . S
C16 C11 1.392 1_565 S
C16 C15 1.390 . S
C16 H28 0.929 . S
O17 Tb1 2.326 . S
O17 C5 1.242 . S
O18 Eu2 2.324 . S
O18 C5 1.258 . S
O19 Tb1 2.500 . S
O19 C21 1.273 . S
O20 Tb1 2.473 . S
O20 C21 1.257 . S
C21 O19 1.273 . S
C21 O20 1.257 . S
O22 Eu2 2.326 . S
O22 C10 1.242 . S
O23 Tb1 2.324 . S
O23 C10 1.258 . S
O24 Eu2 2.500 . S
O24 C7 1.273 . S
O25 Eu2 2.473 . S
O25 C7 1.257 . S
H26 C12 0.929 . S
H27 C14 0.931 . S
H28 C16 0.929 . S
O29 Tb30 2.292 . S
O29 C32 1.255 . S
Tb30 O29 2.292 . S
Tb30 O46 2.326 . S
Tb30 O48 2.500 . S
Tb30 O49 2.473 . S
Tb30 O52 2.324 . S
Eu31 O35 2.292 . S
Eu31 C36 2.852 . S
Eu31 O47 2.324 . S
Eu31 O51 2.326 . S
Eu31 O53 2.500 . S
Eu31 O54 2.473 . S
C32 O29 1.255 . S
C32 O33 1.247 . S
O33 C32 1.247 . S
C34 O46 1.242 . S
C34 O47 1.258 . S
O35 Eu31 2.292 . S
O35 C37 1.255 . S
C36 Eu31 2.852 . S
C36 C40 1.503 . S
C36 O53 1.273 . S
C36 O54 1.257 . S
C37 O35 1.255 . S
C37 O38 1.247 . S
O38 C37 1.247 . S
C39 O51 1.242 . S
C39 O52 1.258 . S
C40 C36 1.503 . S
C40 C41 1.379 . S
C40 C45 1.392 . S
C41 C40 1.379 . S
C41 C42 1.404 . S
C41 H55 0.929 . S
C42 C41 1.404 . S
C42 C43 1.389 . S
C43 C42 1.389 . S
C43 C44 1.399 . S
C43 H56 0.931 . S
C44 C43 1.399 . S
C44 C45 1.390 . S
C45 C40 1.392 . S
C45 C44 1.390 . S
C45 H57 0.929 . S
O46 Tb30 2.326 . S
O46 C34 1.242 . S
O47 Eu31 2.324 . S
O47 C34 1.258 . S
O48 Tb30 2.500 . S
O48 C50 1.273 . S
O49 Tb30 2.473 . S
O49 C50 1.257 . S
C50 O48 1.273 . S
C50 O49 1.257 . S
O51 Eu31 2.326 . S
O51 C39 1.242 . S
O52 Tb30 2.324 . S
O52 C39 1.258 . S
O53 Eu31 2.500 . S
O53 C36 1.273 . S
O54 Eu31 2.473 . S
O54 C36 1.257 . S
H55 C41 0.929 . S
H56 C43 0.931 . S
H57 C45 0.929 . S
O58 Tb59 2.292 . S
O58 C61 1.255 . S
Tb59 O58 2.292 . S
Tb59 O75 2.326 . S
Tb59 O77 2.500 . S
Tb59 O78 2.473 . S
Tb59 O81 2.324 . S
Eu60 O64 2.292 . S
Eu60 C65 2.852 . S
Eu60 O76 2.324 . S
Eu60 O80 2.326 . S
Eu60 O82 2.500 . S
Eu60 O83 2.473 . S
C61 O58 1.255 . S
C61 O62 1.247 . S
O62 C61 1.247 . S
C63 O75 1.242 . S
C63 O76 1.258 . S
O64 Eu60 2.292 . S
O64 C66 1.255 . S
C65 Eu60 2.852 . S
C65 C69 1.503 . S
C65 O82 1.273 . S
C65 O83 1.257 . S
C66 O64 1.255 . S
C66 O67 1.247 . S
O67 C66 1.247 . S
C68 O80 1.242 . S
C68 O81 1.258 . S
C69 C65 1.503 . S
C69 C70 1.379 . S
C69 C74 1.392 . S
C70 C69 1.379 . S
C70 C71 1.404 . S
C70 H84 0.929 . S
C71 C70 1.404 . S
C71 C72 1.389 . S
C72 C71 1.389 . S
C72 C73 1.399 . S
C72 H85 0.931 . S
C73 C72 1.399 . S
C73 C74 1.390 . S
C74 C69 1.392 . S
C74 C73 1.390 . S
C74 H86 0.929 . S
O75 Tb59 2.326 . S
O75 C63 1.242 . S
O76 Eu60 2.324 . S
O76 C63 1.258 . S
O77 Tb59 2.500 . S
O77 C79 1.273 . S
O78 Tb59 2.473 . S
O78 C79 1.257 . S
C79 O77 1.273 . S
C79 O78 1.257 . S
O80 Eu60 2.326 . S
O80 C68 1.242 . S
O81 Tb59 2.324 . S
O81 C68 1.258 . S
O82 Eu60 2.500 . S
O82 C65 1.273 . S
O83 Eu60 2.473 . S
O83 C65 1.257 . S
H84 C70 0.929 . S
H85 C72 0.931 . S
H86 C74 0.929 . S
O87 Tb88 2.292 . S
O87 C90 1.255 . S
Tb88 O87 2.292 . S
Tb88 O104 2.326 . S
Tb88 O106 2.500 . S
Tb88 O107 2.473 . S
Tb88 O110 2.324 . S
Eu89 O93 2.292 . S
Eu89 C94 2.852 . S
Eu89 O105 2.324 . S
Eu89 O109 2.326 . S
Eu89 O111 2.500 . S
Eu89 O112 2.473 . S
C90 O87 1.255 . S
C90 O91 1.247 . S
O91 C90 1.247 . S
C92 O104 1.242 . S
C92 O105 1.258 . S
O93 Eu89 2.292 . S
O93 C95 1.255 . S
C94 Eu89 2.852 . S
C94 C98 1.503 . S
C94 O111 1.273 . S
C94 O112 1.257 . S
C95 O93 1.255 . S
C95 O96 1.247 . S
O96 C95 1.247 . S
C97 O109 1.242 . S
C97 O110 1.258 . S
C98 C94 1.503 . S
C98 C99 1.379 . S
C98 C103 1.392 1_455 S
C99 C98 1.379 . S
C99 C100 1.404 . S
C99 H113 0.929 . S
C100 C99 1.404 . S
C100 C101 1.389 1_455 S
C101 C100 1.389 1_655 S
C101 C102 1.399 . S
C101 H114 0.931 . S
C102 C101 1.399 . S
C102 C103 1.390 . S
C103 C98 1.392 1_655 S
C103 C102 1.390 . S
C103 H115 0.929 . S
O104 Tb88 2.326 . S
O104 C92 1.242 . S
O105 Eu89 2.324 . S
O105 C92 1.258 . S
O106 Tb88 2.500 . S
O106 C108 1.273 . S
O107 Tb88 2.473 . S
O107 C108 1.257 . S
C108 O106 1.273 . S
C108 O107 1.257 . S
O109 Eu89 2.326 . S
O109 C97 1.242 . S
O110 Tb88 2.324 . S
O110 C97 1.258 . S
O111 Eu89 2.500 . S
O111 C94 1.273 . S
O112 Eu89 2.473 . S
O112 C94 1.257 . S
H113 C99 0.929 . S
H114 C101 0.931 . S
H115 C103 0.929 . S
O116 Tb117 2.292 . S
O116 C119 1.255 . S
Tb117 O116 2.292 . S
Tb117 O133 2.326 . S
Tb117 O135 2.500 . S
Tb117 O136 2.473 . S
Tb117 O139 2.324 . S
Eu118 O122 2.292 . S
Eu118 C123 2.852 . S
Eu118 O134 2.324 . S
Eu118 O138 2.326 . S
Eu118 O140 2.500 . S
Eu118 O141 2.473 . S
C119 O116 1.255 . S
C119 O120 1.247 . S
O120 C119 1.247 . S
C121 O133 1.242 . S
C121 O134 1.258 . S
O122 Eu118 2.292 . S
O122 C124 1.255 . S
C123 Eu118 2.852 . S
C123 C127 1.503 . S
C123 O140 1.273 . S
C123 O141 1.257 . S
C124 O122 1.255 . S
C124 O125 1.247 . S
O125 C124 1.247 . S
C126 O138 1.242 . S
C126 O139 1.258 . S
C127 C123 1.503 . S
C127 C128 1.379 . S
C127 C132 1.392 . S
C128 C127 1.379 . S
C128 C129 1.404 . S
C128 H142 0.929 . S
C129 C128 1.404 . S
C129 C130 1.389 . S
C130 C129 1.389 . S
C130 C131 1.399 . S
C130 H143 0.931 . S
C131 C130 1.399 . S
C131 C132 1.390 . S
C132 C127 1.392 . S
C132 C131 1.390 . S
C132 H144 0.929 . S
O133 Tb117 2.326 . S
O133 C121 1.242 . S
O134 Eu118 2.324 . S
O134 C121 1.258 . S
O135 Tb117 2.500 . S
O135 C137 1.273 . S
O136 Tb117 2.473 . S
O136 C137 1.257 . S
C137 O135 1.273 . S
C137 O136 1.257 . S
O138 Eu118 2.326 . S
O138 C126 1.242 . S
O139 Tb117 2.324 . S
O139 C126 1.258 . S
O140 Eu118 2.500 . S
O140 C123 1.273 . S
O141 Eu118 2.473 . S
O141 C123 1.257 . S
H142 C128 0.929 . S
H143 C130 0.931 . S
H144 C132 0.929 . S
O145 Tb146 2.292 . S
O145 C148 1.255 . S
Tb146 O145 2.292 . S
Tb146 O162 2.326 . S
Tb146 O164 2.500 . S
Tb146 O165 2.473 . S
Tb146 O168 2.324 . S
Eu147 O151 2.292 . S
Eu147 C152 2.852 . S
Eu147 O163 2.324 . S
Eu147 O167 2.326 . S
Eu147 O169 2.500 . S
Eu147 O170 2.473 . S
C148 O145 1.255 . S
C148 O149 1.247 . S
O149 C148 1.247 . S
C150 O162 1.242 . S
C150 O163 1.258 . S
O151 Eu147 2.292 . S
O151 C153 1.255 . S
C152 Eu147 2.852 . S
C152 C156 1.503 . S
C152 O169 1.273 . S
C152 O170 1.257 . S
C153 O151 1.255 . S
C153 O154 1.247 . S
O154 C153 1.247 . S
C155 O167 1.242 . S
C155 O168 1.258 . S
C156 C152 1.503 . S
C156 C157 1.379 . S
C156 C161 1.392 1_455 S
C157 C156 1.379 . S
C157 C158 1.404 . S
C157 H171 0.929 . S
C158 C157 1.404 . S
C158 C159 1.389 1_455 S
C159 C158 1.389 1_655 S
C159 C160 1.399 . S
C159 H172 0.931 . S
C160 C159 1.399 . S
C160 C161 1.390 . S
C161 C156 1.392 1_655 S
C161 C160 1.390 . S
C161 H173 0.929 . S
O162 Tb146 2.326 . S
O162 C150 1.242 . S
O163 Eu147 2.324 . S
O163 C150 1.258 . S
O164 Tb146 2.500 . S
O164 C166 1.273 . S
O165 Tb146 2.473 . S
O165 C166 1.257 . S
C166 O164 1.273 . S
C166 O165 1.257 . S
O167 Eu147 2.326 . S
O167 C155 1.242 . S
O168 Tb146 2.324 . S
O168 C155 1.258 . S
O169 Eu147 2.500 . S
O169 C152 1.273 . S
O170 Eu147 2.473 . S
O170 C152 1.257 . S
H171 C157 0.929 . S
H172 C159 0.931 . S
H173 C161 0.929 . S
O174 Tb175 2.292 . S
O174 C177 1.255 . S
Tb175 O174 2.292 . S
Tb175 O191 2.326 . S
Tb175 O193 2.500 . S
Tb175 O194 2.473 . S
Tb175 O197 2.324 . S
Eu176 O180 2.292 . S
Eu176 C181 2.852 . S
Eu176 O192 2.324 . S
Eu176 O196 2.326 . S
Eu176 O198 2.500 . S
Eu176 O199 2.473 . S
C177 O174 1.255 . S
C177 O178 1.247 . S
O178 C177 1.247 . S
C179 O191 1.242 . S
C179 O192 1.258 . S
O180 Eu176 2.292 . S
O180 C182 1.255 . S
C181 Eu176 2.852 . S
C181 C185 1.503 . S
C181 O198 1.273 . S
C181 O199 1.257 . S
C182 O180 1.255 . S
C182 O183 1.247 . S
O183 C182 1.247 . S
C184 O196 1.242 . S
C184 O197 1.258 . S
C185 C181 1.503 . S
C185 C186 1.379 . S
C185 C190 1.392 1_545 S
C186 C185 1.379 . S
C186 C187 1.404 . S
C186 H200 0.929 . S
C187 C186 1.404 . S
C187 C188 1.389 1_545 S
C188 C187 1.389 1_565 S
C188 C189 1.399 . S
C188 H201 0.931 . S
C189 C188 1.399 . S
C189 C190 1.390 . S
C190 C185 1.392 1_565 S
C190 C189 1.390 . S
C190 H202 0.929 . S
O191 Tb175 2.326 . S
O191 C179 1.242 . S
O192 Eu176 2.324 . S
O192 C179 1.258 . S
O193 Tb175 2.500 . S
O193 C195 1.273 . S
O194 Tb175 2.473 . S
O194 C195 1.257 . S
C195 O193 1.273 . S
C195 O194 1.257 . S
O196 Eu176 2.326 . S
O196 C184 1.242 . S
O197 Tb175 2.324 . S
O197 C184 1.258 . S
O198 Eu176 2.500 . S
O198 C181 1.273 . S
O199 Eu176 2.473 . S
O199 C181 1.257 . S
H200 C186 0.929 . S
H201 C188 0.931 . S
H202 C190 0.929 . S
O203 Tb204 2.292 . S
O203 C206 1.255 . S
Tb204 O203 2.292 . S
Tb204 O220 2.326 . S
Tb204 O222 2.500 . S
Tb204 O223 2.473 . S
Tb204 O226 2.324 . S
Eu205 O209 2.292 . S
Eu205 C210 2.852 . S
Eu205 O221 2.324 . S
Eu205 O225 2.326 . S
Eu205 O227 2.500 . S
Eu205 O228 2.473 . S
C206 O203 1.255 . S
C206 O207 1.247 . S
O207 C206 1.247 . S
C208 O220 1.242 . S
C208 O221 1.258 . S
O209 Eu205 2.292 . S
O209 C211 1.255 . S
C210 Eu205 2.852 . S
C210 C214 1.503 . S
C210 O227 1.273 . S
C210 O228 1.257 . S
C211 O209 1.255 . S
C211 O212 1.247 . S
O212 C211 1.247 . S
C213 O225 1.242 . S
C213 O226 1.258 . S
C214 C210 1.503 . S
C214 C215 1.379 . S
C214 C219 1.392 . S
C215 C214 1.379 . S
C215 C216 1.404 . S
C215 H229 0.929 . S
C216 C215 1.404 . S
C216 C217 1.389 . S
C217 C216 1.389 . S
C217 C218 1.399 . S
C217 H230 0.931 . S
C218 C217 1.399 . S
C218 C219 1.390 . S
C219 C214 1.392 . S
C219 C218 1.390 . S
C219 H231 0.929 . S
O220 Tb204 2.326 . S
O220 C208 1.242 . S
O221 Eu205 2.324 . S
O221 C208 1.258 . S
O222 Tb204 2.500 . S
O222 C224 1.273 . S
O223 Tb204 2.473 . S
O223 C224 1.257 . S
C224 O222 1.273 . S
C224 O223 1.257 . S
O225 Eu205 2.326 . S
O225 C213 1.242 . S
O226 Tb204 2.324 . S
O226 C213 1.258 . S
O227 Eu205 2.500 . S
O227 C210 1.273 . S
O228 Eu205 2.473 . S
O228 C210 1.257 . S
H229 C215 0.929 . S
H230 C217 0.931 . S
H231 C219 0.929 . S
O232 Tb233 2.292 . S
O232 C235 1.255 . S
Tb233 O232 2.292 . S
Tb233 O249 2.326 . S
Tb233 O251 2.500 . S
Tb233 O252 2.473 . S
Tb233 O255 2.324 . S
Eu234 O238 2.292 . S
Eu234 C239 2.852 . S
Eu234 O250 2.324 . S
Eu234 O254 2.326 . S
Eu234 O256 2.500 . S
Eu234 O257 2.473 . S
C235 O232 1.255 . S
C235 O236 1.247 . S
O236 C235 1.247 . S
C237 O249 1.242 . S
C237 O250 1.258 . S
O238 Eu234 2.292 . S
O238 C240 1.255 . S
C239 Eu234 2.852 . S
C239 C243 1.503 . S
C239 O256 1.273 . S
C239 O257 1.257 . S
C240 O238 1.255 . S
C240 O241 1.247 . S
O241 C240 1.247 . S
C242 O254 1.242 . S
C242 O255 1.258 . S
C243 C239 1.503 . S
C243 C244 1.379 . S
C243 C248 1.392 1_565 S
C244 C243 1.379 . S
C244 C245 1.404 . S
C244 H258 0.929 . S
C245 C244 1.404 . S
C245 C246 1.389 1_565 S
C246 C245 1.389 1_545 S
C246 C247 1.399 . S
C246 H259 0.931 . S
C247 C246 1.399 . S
C247 C248 1.390 . S
C248 C243 1.392 1_545 S
C248 C247 1.390 . S
C248 H260 0.929 . S
O249 Tb233 2.326 . S
O249 C237 1.242 . S
O250 Eu234 2.324 . S
O250 C237 1.258 . S
O251 Tb233 2.500 . S
O251 C253 1.273 . S
O252 Tb233 2.473 . S
O252 C253 1.257 . S
C253 O251 1.273 . S
C253 O252 1.257 . S
O254 Eu234 2.326 . S
O254 C242 1.242 . S
O255 Tb233 2.324 . S
O255 C242 1.258 . S
O256 Eu234 2.500 . S
O256 C239 1.273 . S
O257 Eu234 2.473 . S
O257 C239 1.257 . S
H258 C244 0.929 . S
H259 C246 0.931 . S
H260 C248 0.929 . S
O261 Tb262 2.292 . S
O261 C264 1.255 . S
Tb262 O261 2.292 . S
Tb262 O278 2.326 . S
Tb262 O280 2.500 . S
Tb262 O281 2.473 . S
Tb262 O284 2.324 . S
Eu263 O267 2.292 . S
Eu263 C268 2.852 . S
Eu263 O279 2.324 . S
Eu263 O283 2.326 . S
Eu263 O285 2.500 . S
Eu263 O286 2.473 . S
C264 O261 1.255 . S
C264 O265 1.247 . S
O265 C264 1.247 . S
C266 O278 1.242 . S
C266 O279 1.258 . S
O267 Eu263 2.292 . S
O267 C269 1.255 . S
C268 Eu263 2.852 . S
C268 C272 1.503 . S
C268 O285 1.273 . S
C268 O286 1.257 . S
C269 O267 1.255 . S
C269 O270 1.247 . S
O270 C269 1.247 . S
C271 O283 1.242 . S
C271 O284 1.258 . S
C272 C268 1.503 . S
C272 C273 1.379 . S
C272 C277 1.392 . S
C273 C272 1.379 . S
C273 C274 1.404 . S
C273 H287 0.929 . S
C274 C273 1.404 . S
C274 C275 1.389 . S
C275 C274 1.389 . S
C275 C276 1.399 . S
C275 H288 0.931 . S
C276 C275 1.399 . S
C276 C277 1.390 . S
C277 C272 1.392 . S
C277 C276 1.390 . S
C277 H289 0.929 . S
O278 Tb262 2.326 . S
O278 C266 1.242 . S
O279 Eu263 2.324 . S
O279 C266 1.258 . S
O280 Tb262 2.500 . S
O280 C282 1.273 . S
O281 Tb262 2.473 . S
O281 C282 1.257 . S
C282 O280 1.273 . S
C282 O281 1.257 . S
O283 Eu263 2.326 . S
O283 C271 1.242 . S
O284 Tb262 2.324 . S
O284 C271 1.258 . S
O285 Eu263 2.500 . S
O285 C268 1.273 . S
O286 Eu263 2.473 . S
O286 C268 1.257 . S
H287 C273 0.929 . S
H288 C275 0.931 . S
H289 C277 0.929 . S
O290 Tb291 2.292 . S
O290 C293 1.255 . S
Tb291 O290 2.292 . S
Tb291 O307 2.326 . S
Tb291 O309 2.500 . S
Tb291 O310 2.473 . S
Tb291 O313 2.324 . S
Eu292 O296 2.292 . S
Eu292 C297 2.852 . S
Eu292 O308 2.324 . S
Eu292 O312 2.326 . S
Eu292 O314 2.500 . S
Eu292 O315 2.473 . S
C293 O290 1.255 . S
C293 O294 1.247 . S
O294 C293 1.247 . S
C295 O307 1.242 . S
C295 O308 1.258 . S
O296 Eu292 2.292 . S
O296 C298 1.255 . S
C297 Eu292 2.852 . S
C297 C301 1.503 . S
C297 O314 1.273 . S
C297 O315 1.257 . S
C298 O296 1.255 . S
C298 O299 1.247 . S
O299 C298 1.247 . S
C300 O312 1.242 . S
C300 O313 1.258 . S
C301 C297 1.503 . S
C301 C302 1.379 . S
C301 C306 1.392 . S
C302 C301 1.379 . S
C302 C303 1.404 . S
C302 H316 0.929 . S
C303 C302 1.404 . S
C303 C304 1.389 . S
C304 C303 1.389 . S
C304 C305 1.399 . S
C304 H317 0.931 . S
C305 C304 1.399 . S
C305 C306 1.390 . S
C306 C301 1.392 . S
C306 C305 1.390 . S
C306 H318 0.929 . S
O307 Tb291 2.326 . S
O307 C295 1.242 . S
O308 Eu292 2.324 . S
O308 C295 1.258 . S
O309 Tb291 2.500 . S
O309 C311 1.273 . S
O310 Tb291 2.473 . S
O310 C311 1.257 . S
C311 O309 1.273 . S
C311 O310 1.257 . S
O312 Eu292 2.326 . S
O312 C300 1.242 . S
O313 Tb291 2.324 . S
O313 C300 1.258 . S
O314 Eu292 2.500 . S
O314 C297 1.273 . S
O315 Eu292 2.473 . S
O315 C297 1.257 . S
H316 C302 0.929 . S
H317 C304 0.931 . S
H318 C306 0.929 . S
O319 Tb320 2.292 . S
O319 C322 1.255 . S
Tb320 O319 2.292 . S
Tb320 O336 2.326 . S
Tb320 O338 2.500 . S
Tb320 O339 2.473 . S
Tb320 O342 2.324 . S
Eu321 O325 2.292 . S
Eu321 C326 2.852 . S
Eu321 O337 2.324 . S
Eu321 O341 2.326 . S
Eu321 O343 2.500 . S
Eu321 O344 2.473 . S
C322 O319 1.255 . S
C322 O323 1.247 . S
O323 C322 1.247 . S
C324 O336 1.242 . S
C324 O337 1.258 . S
O325 Eu321 2.292 . S
O325 C327 1.255 . S
C326 Eu321 2.852 . S
C326 C330 1.503 . S
C326 O343 1.273 . S
C326 O344 1.257 . S
C327 O325 1.255 . S
C327 O328 1.247 . S
O328 C327 1.247 . S
C329 O341 1.242 . S
C329 O342 1.258 . S
C330 C326 1.503 . S
C330 C331 1.379 . S
C330 C335 1.392 1_655 S
C331 C330 1.379 . S
C331 C332 1.404 . S
C331 H345 0.929 . S
C332 C331 1.404 . S
C332 C333 1.389 1_655 S
C333 C332 1.389 1_455 S
C333 C334 1.399 . S
C333 H346 0.931 . S
C334 C333 1.399 . S
C334 C335 1.390 . S
C335 C330 1.392 1_455 S
C335 C334 1.390 . S
C335 H347 0.929 . S
O336 Tb320 2.326 . S
O336 C324 1.242 . S
O337 Eu321 2.324 . S
O337 C324 1.258 . S
O338 Tb320 2.500 . S
O338 C340 1.273 . S
O339 Tb320 2.473 . S
O339 C340 1.257 . S
C340 O338 1.273 . S
C340 O339 1.257 . S
O341 Eu321 2.326 . S
O341 C329 1.242 . S
O342 Tb320 2.324 . S
O342 C329 1.258 . S
O343 Eu321 2.500 . S
O343 C326 1.273 . S
O344 Eu321 2.473 . S
O344 C326 1.257 . S
H345 C331 0.929 . S
H346 C333 0.931 . S
H347 C335 0.929 . S
O348 Tb349 2.292 . S
O348 C351 1.255 . S
Tb349 O348 2.292 . S
Tb349 O365 2.326 . S
Tb349 O367 2.500 . S
Tb349 O368 2.473 . S
Tb349 O371 2.324 . S
Eu350 O354 2.292 . S
Eu350 C355 2.852 . S
Eu350 O366 2.324 . S
Eu350 O370 2.326 . S
Eu350 O372 2.500 . S
Eu350 O373 2.473 . S
C351 O348 1.255 . S
C351 O352 1.247 . S
O352 C351 1.247 . S
C353 O365 1.242 . S
C353 O366 1.258 . S
O354 Eu350 2.292 . S
O354 C356 1.255 . S
C355 Eu350 2.852 . S
C355 C359 1.503 . S
C355 O372 1.273 . S
C355 O373 1.257 . S
C356 O354 1.255 . S
C356 O357 1.247 . S
O357 C356 1.247 . S
C358 O370 1.242 . S
C358 O371 1.258 . S
C359 C355 1.503 . S
C359 C360 1.379 . S
C359 C364 1.392 . S
C360 C359 1.379 . S
C360 C361 1.404 . S
C360 H374 0.929 . S
C361 C360 1.404 . S
C361 C362 1.389 . S
C362 C361 1.389 . S
C362 C363 1.399 . S
C362 H375 0.931 . S
C363 C362 1.399 . S
C363 C364 1.390 . S
C364 C359 1.392 . S
C364 C363 1.390 . S
C364 H376 0.929 . S
O365 Tb349 2.326 . S
O365 C353 1.242 . S
O366 Eu350 2.324 . S
O366 C353 1.258 . S
O367 Tb349 2.500 . S
O367 C369 1.273 . S
O368 Tb349 2.473 . S
O368 C369 1.257 . S
C369 O367 1.273 . S
C369 O368 1.257 . S
O370 Eu350 2.326 . S
O370 C358 1.242 . S
O371 Tb349 2.324 . S
O371 C358 1.258 . S
O372 Eu350 2.500 . S
O372 C355 1.273 . S
O373 Eu350 2.473 . S
O373 C355 1.257 . S
H374 C360 0.929 . S
H375 C362 0.931 . S
H376 C364 0.929 . S
O377 Tb378 2.292 . S
O377 C380 1.255 . S
Tb378 O377 2.292 . S
Tb378 O394 2.326 . S
Tb378 O396 2.500 . S
Tb378 O397 2.473 . S
Tb378 O400 2.324 . S
Eu379 O383 2.292 . S
Eu379 C384 2.852 . S
Eu379 O395 2.324 . S
Eu379 O399 2.326 . S
Eu379 O401 2.500 . S
Eu379 O402 2.473 . S
C380 O377 1.255 . S
C380 O381 1.247 . S
O381 C380 1.247 . S
C382 O394 1.242 . S
C382 O395 1.258 . S
O383 Eu379 2.292 . S
O383 C385 1.255 . S
C384 Eu379 2.852 . S
C384 C388 1.503 . S
C384 O401 1.273 . S
C384 O402 1.257 . S
C385 O383 1.255 . S
C385 O386 1.247 . S
O386 C385 1.247 . S
C387 O399 1.242 . S
C387 O400 1.258 . S
C388 C384 1.503 . S
C388 C389 1.379 . S
C388 C393 1.392 1_655 S
C389 C388 1.379 . S
C389 C390 1.404 . S
C389 H403 0.929 . S
C390 C389 1.404 . S
C390 C391 1.389 1_655 S
C391 C390 1.389 1_455 S
C391 C392 1.399 . S
C391 H404 0.931 . S
C392 C391 1.399 . S
C392 C393 1.390 . S
C393 C388 1.392 1_455 S
C393 C392 1.390 . S
C393 H405 0.929 . S
O394 Tb378 2.326 . S
O394 C382 1.242 . S
O395 Eu379 2.324 . S
O395 C382 1.258 . S
O396 Tb378 2.500 . S
O396 C398 1.273 . S
O397 Tb378 2.473 . S
O397 C398 1.257 . S
C398 O396 1.273 . S
C398 O397 1.257 . S
O399 Eu379 2.326 . S
O399 C387 1.242 . S
O400 Tb378 2.324 . S
O400 C387 1.258 . S
O401 Eu379 2.500 . S
O401 C384 1.273 . S
O402 Eu379 2.473 . S
O402 C384 1.257 . S
H403 C389 0.929 . S
H404 C391 0.931 . S
H405 C393 0.929 . S
O406 Tb407 2.292 . S
O406 C409 1.255 . S
Tb407 O406 2.292 . S
Tb407 O423 2.326 . S
Tb407 O425 2.500 . S
Tb407 O426 2.473 . S
Tb407 O429 2.324 . S
Eu408 O412 2.292 . S
Eu408 C413 2.852 . S
Eu408 O424 2.324 . S
Eu408 O428 2.326 . S
Eu408 O430 2.500 . S
Eu408 O431 2.473 . S
C409 O406 1.255 . S
C409 O410 1.247 . S
O410 C409 1.247 . S
C411 O423 1.242 . S
C411 O424 1.258 . S
O412 Eu408 2.292 . S
O412 C414 1.255 . S
C413 Eu408 2.852 . S
C413 C417 1.503 . S
C413 O430 1.273 . S
C413 O431 1.257 . S
C414 O412 1.255 . S
C414 O415 1.247 . S
O415 C414 1.247 . S
C416 O428 1.242 . S
C416 O429 1.258 . S
C417 C413 1.503 . S
C417 C418 1.379 . S
C417 C422 1.392 1_565 S
C418 C417 1.379 . S
C418 C419 1.404 . S
C418 H432 0.929 . S
C419 C418 1.404 . S
C419 C420 1.389 1_565 S
C420 C419 1.389 1_545 S
C420 C421 1.399 . S
C420 H433 0.931 . S
C421 C420 1.399 . S
C421 C422 1.390 . S
C422 C417 1.392 1_545 S
C422 C421 1.390 . S
C422 H434 0.929 . S
O423 Tb407 2.326 . S
O423 C411 1.242 . S
O424 Eu408 2.324 . S
O424 C411 1.258 . S
O425 Tb407 2.500 . S
O425 C427 1.273 . S
O426 Tb407 2.473 . S
O426 C427 1.257 . S
C427 O425 1.273 . S
C427 O426 1.257 . S
O428 Eu408 2.326 . S
O428 C416 1.242 . S
O429 Tb407 2.324 . S
O429 C416 1.258 . S
O430 Eu408 2.500 . S
O430 C413 1.273 . S
O431 Eu408 2.473 . S
O431 C413 1.257 . S
H432 C418 0.929 . S
H433 C420 0.931 . S
H434 C422 0.929 . S
O435 Tb436 2.292 . S
O435 C438 1.255 . S
Tb436 O435 2.292 . S
Tb436 O452 2.326 . S
Tb436 O454 2.500 . S
Tb436 O455 2.473 . S
Tb436 O458 2.324 . S
Eu437 O441 2.292 . S
Eu437 C442 2.852 . S
Eu437 O453 2.324 . S
Eu437 O457 2.326 . S
Eu437 O459 2.500 . S
Eu437 O460 2.473 . S
C438 O435 1.255 . S
C438 O439 1.247 . S
O439 C438 1.247 . S
C440 O452 1.242 . S
C440 O453 1.258 . S
O441 Eu437 2.292 . S
O441 C443 1.255 . S
C442 Eu437 2.852 . S
C442 C446 1.503 . S
C442 O459 1.273 . S
C442 O460 1.257 . S
C443 O441 1.255 . S
C443 O444 1.247 . S
O444 C443 1.247 . S
C445 O457 1.242 . S
C445 O458 1.258 . S
C446 C442 1.503 . S
C446 C447 1.379 . S
C446 C451 1.392 . S
C447 C446 1.379 . S
C447 C448 1.404 . S
C447 H461 0.929 . S
C448 C447 1.404 . S
C448 C449 1.389 . S
C449 C448 1.389 . S
C449 C450 1.399 . S
C449 H462 0.931 . S
C450 C449 1.399 . S
C450 C451 1.390 . S
C451 C446 1.392 . S
C451 C450 1.390 . S
C451 H463 0.929 . S
O452 Tb436 2.326 . S
O452 C440 1.242 . S
O453 Eu437 2.324 . S
O453 C440 1.258 . S
O454 Tb436 2.500 . S
O454 C456 1.273 . S
O455 Tb436 2.473 . S
O455 C456 1.257 . S
C456 O454 1.273 . S
C456 O455 1.257 . S
O457 Eu437 2.326 . S
O457 C445 1.242 . S
O458 Tb436 2.324 . S
O458 C445 1.258 . S
O459 Eu437 2.500 . S
O459 C442 1.273 . S
O460 Eu437 2.473 . S
O460 C442 1.257 . S
H461 C447 0.929 . S
H462 C449 0.931 . S
H463 C451 0.929 . S
H464 C472 0.929 . S
H465 C474 0.930 . S
H466 C476 0.930 . S
H467 C479 0.929 . S
H468 C482 0.930 . S
H469 C484 0.960 . S
H470 C484 0.960 . S
H471 C484 0.960 . S
C472 H464 0.929 . S
C472 C473 1.377 . S
C472 C474 1.384 . S
C473 C472 1.377 . S
C473 C479 1.390 . S
C474 H465 0.930 . S
C474 C472 1.384 . S
C474 C475 1.372 . S
C475 C474 1.372 . S
C475 C476 1.400 . S
C475 C480 1.490 . S
C476 H466 0.930 . S
C476 C475 1.400 . S
C476 C479 1.386 . S
H477 C493 0.930 . S
H478 C494 0.931 . S
C479 H467 0.929 . S
C479 C473 1.390 . S
C479 C476 1.386 . S
C480 C475 1.490 . S
C480 C482 1.395 . S
C480 C483 1.403 . S
H481 C487 0.930 . S
C482 H468 0.930 . S
C482 C480 1.395 . S
C482 C485 1.403 . S
C483 C480 1.403 . S
C483 C484 1.524 . S
C483 C487 1.400 . S
C484 H469 0.960 . S
C484 H470 0.960 . S
C484 H471 0.960 . S
C484 C483 1.524 . S
C485 C482 1.403 . S
C485 C486 1.392 . S
C485 C489 1.495 . S
C486 C485 1.392 . S
C486 C487 1.385 . S
C486 C488 1.478 . S
C487 H481 0.930 . S
C487 C483 1.400 . S
C487 C486 1.385 . S
C488 C486 1.478 . S
C488 C490 1.381 . S
C488 C494 1.383 . S
C489 C485 1.495 . S
C489 H495 0.959 . S
C489 H496 0.961 . S
C489 H497 0.960 . S
C490 C488 1.381 . S
C490 C491 1.394 . S
C490 H498 0.930 . S
C491 C490 1.394 . S
C491 C492 1.383 . S
C491 H499 0.929 . S
C492 C491 1.383 . S
C492 C493 1.377 . S
C493 H477 0.930 . S
C493 C492 1.377 . S
C493 C494 1.379 . S
C494 H478 0.931 . S
C494 C488 1.383 . S
C494 C493 1.379 . S
H495 C489 0.959 . S
H496 C489 0.961 . S
H497 C489 0.960 . S
H498 C490 0.930 . S
H499 C491 0.929 . S
H500 C508 0.929 . S
H501 C510 0.930 . S
H502 C512 0.930 . S
H503 C515 0.929 . S
H504 C518 0.930 . S
H505 C520 0.960 . S
H506 C520 0.960 . S
H507 C520 0.960 . S
C508 H500 0.929 . S
C508 C509 1.377 . S
C508 C510 1.384 . S
C509 C508 1.377 . S
C509 C515 1.390 . S
C510 H501 0.930 . S
C510 C508 1.384 . S
C510 C511 1.372 . S
C511 C510 1.372 . S
C511 C512 1.400 . S
C511 C516 1.490 . S
C512 H502 0.930 . S
C512 C511 1.400 . S
C512 C515 1.386 . S
H513 C529 0.930 . S
H514 C530 0.931 . S
C515 H503 0.929 . S
C515 C509 1.390 . S
C515 C512 1.386 . S
C516 C511 1.490 . S
C516 C518 1.395 . S
C516 C519 1.403 . S
H517 C523 0.930 . S
C518 H504 0.930 . S
C518 C516 1.395 . S
C518 C521 1.403 . S
C519 C516 1.403 . S
C519 C520 1.524 . S
C519 C523 1.400 . S
C520 H505 0.960 . S
C520 H506 0.960 . S
C520 H507 0.960 . S
C520 C519 1.524 . S
C521 C518 1.403 . S
C521 C522 1.392 . S
C521 C525 1.495 . S
C522 C521 1.392 . S
C522 C523 1.385 . S
C522 C524 1.478 . S
C523 H517 0.930 . S
C523 C519 1.400 . S
C523 C522 1.385 . S
C524 C522 1.478 . S
C524 C526 1.381 . S
C524 C530 1.383 . S
C525 C521 1.495 . S
C525 H531 0.959 . S
C525 H532 0.961 . S
C525 H533 0.960 . S
C526 C524 1.381 . S
C526 C527 1.394 . S
C526 H534 0.930 . S
C527 C526 1.394 . S
C527 C528 1.383 . S
C527 H535 0.929 . S
C528 C527 1.383 . S
C528 C529 1.377 . S
C529 H513 0.930 . S
C529 C528 1.377 . S
C529 C530 1.379 . S
C530 H514 0.931 . S
C530 C524 1.383 . S
C530 C529 1.379 . S
H531 C525 0.959 . S
H532 C525 0.961 . S
H533 C525 0.960 . S
H534 C526 0.930 . S
H535 C527 0.929 . S
H536 C544 0.929 . S
H537 C546 0.930 . S
H538 C548 0.930 . S
H539 C551 0.929 . S
H540 C554 0.930 . S
H541 C556 0.960 . S
H542 C556 0.960 . S
H543 C556 0.960 . S
C544 H536 0.929 . S
C544 C545 1.377 . S
C544 C546 1.384 . S
C545 C544 1.377 . S
C545 C551 1.390 . S
C546 H537 0.930 . S
C546 C544 1.384 . S
C546 C547 1.372 . S
C547 C546 1.372 . S
C547 C548 1.400 . S
C547 C552 1.490 . S
C548 H538 0.930 . S
C548 C547 1.400 . S
C548 C551 1.386 . S
H549 C565 0.930 . S
H550 C566 0.931 . S
C551 H539 0.929 . S
C551 C545 1.390 . S
C551 C548 1.386 . S
C552 C547 1.490 . S
C552 C554 1.395 . S
C552 C555 1.403 . S
H553 C559 0.930 . S
C554 H540 0.930 . S
C554 C552 1.395 . S
C554 C557 1.403 . S
C555 C552 1.403 . S
C555 C556 1.524 . S
C555 C559 1.400 . S
C556 H541 0.960 . S
C556 H542 0.960 . S
C556 H543 0.960 . S
C556 C555 1.524 . S
C557 C554 1.403 . S
C557 C558 1.392 . S
C557 C561 1.495 . S
C558 C557 1.392 . S
C558 C559 1.385 . S
C558 C560 1.478 . S
C559 H553 0.930 . S
C559 C555 1.400 . S
C559 C558 1.385 . S
C560 C558 1.478 . S
C560 C562 1.381 . S
C560 C566 1.383 . S
C561 C557 1.495 . S
C561 H567 0.959 . S
C561 H568 0.961 . S
C561 H569 0.960 . S
C562 C560 1.381 . S
C562 C563 1.394 . S
C562 H570 0.930 . S
C563 C562 1.394 . S
C563 C564 1.383 . S
C563 H571 0.929 . S
C564 C563 1.383 . S
C564 C565 1.377 . S
C565 H549 0.930 . S
C565 C564 1.377 . S
C565 C566 1.379 . S
C566 H550 0.931 . S
C566 C560 1.383 . S
C566 C565 1.379 . S
H567 C561 0.959 . S
H568 C561 0.961 . S
H569 C561 0.960 . S
H570 C562 0.930 . S
H571 C563 0.929 . S
H572 C580 0.929 . S
H573 C582 0.930 . S
H574 C584 0.930 . S
H575 C587 0.929 . S
H576 C590 0.930 . S
H577 C592 0.960 . S
H578 C592 0.960 . S
H579 C592 0.960 . S
C580 H572 0.929 . S
C580 C581 1.377 . S
C580 C582 1.384 . S
C581 C580 1.377 . S
C581 C587 1.390 . S
C582 H573 0.930 . S
C582 C580 1.384 . S
C582 C583 1.372 . S
C583 C582 1.372 . S
C583 C584 1.400 . S
C583 C588 1.490 . S
C584 H574 0.930 . S
C584 C583 1.400 . S
C584 C587 1.386 . S
H585 C601 0.930 . S
H586 C602 0.931 . S
C587 H575 0.929 . S
C587 C581 1.390 . S
C587 C584 1.386 . S
C588 C583 1.490 . S
C588 C590 1.395 . S
C588 C591 1.403 . S
H589 C595 0.930 . S
C590 H576 0.930 . S
C590 C588 1.395 . S
C590 C593 1.403 . S
C591 C588 1.403 . S
C591 C592 1.524 . S
C591 C595 1.400 . S
C592 H577 0.960 . S
C592 H578 0.960 . S
C592 H579 0.960 . S
C592 C591 1.524 . S
C593 C590 1.403 . S
C593 C594 1.392 . S
C593 C597 1.495 . S
C594 C593 1.392 . S
C594 C595 1.385 . S
C594 C596 1.478 . S
C595 H589 0.930 . S
C595 C591 1.400 . S
C595 C594 1.385 . S
C596 C594 1.478 . S
C596 C598 1.381 . S
C596 C602 1.383 . S
C597 C593 1.495 . S
C597 H603 0.959 . S
C597 H604 0.961 . S
C597 H605 0.960 . S
C598 C596 1.381 . S
C598 C599 1.394 . S
C598 H606 0.930 . S
C599 C598 1.394 . S
C599 C600 1.383 . S
C599 H607 0.929 . S
C600 C599 1.383 . S
C600 C601 1.377 . S
C601 H585 0.930 . S
C601 C600 1.377 . S
C601 C602 1.379 . S
C602 H586 0.931 . S
C602 C596 1.383 . S
C602 C601 1.379 . S
H603 C597 0.959 . S
H604 C597 0.961 . S
H605 C597 0.960 . S
H606 C598 0.930 . S
H607 C599 0.929 . S
H608 C616 0.929 . S
H609 C618 0.930 . S
H610 C620 0.930 . S
H611 C623 0.929 . S
H612 C626 0.930 . S
H613 C628 0.960 . S
H614 C628 0.960 . S
H615 C628 0.960 . S
C616 H608 0.929 . S
C616 C617 1.377 . S
C616 C618 1.384 . S
C617 C616 1.377 . S
C617 C623 1.390 . S
C618 H609 0.930 . S
C618 C616 1.384 . S
C618 C619 1.372 . S
C619 C618 1.372 . S
C619 C620 1.400 . S
C619 C624 1.490 . S
C620 H610 0.930 . S
C620 C619 1.400 . S
C620 C623 1.386 . S
H621 C637 0.930 . S
H622 C638 0.931 . S
C623 H611 0.929 . S
C623 C617 1.390 . S
C623 C620 1.386 . S
C624 C619 1.490 . S
C624 C626 1.395 . S
C624 C627 1.403 . S
H625 C631 0.930 . S
C626 H612 0.930 . S
C626 C624 1.395 . S
C626 C629 1.403 . S
C627 C624 1.403 . S
C627 C628 1.524 . S
C627 C631 1.400 . S
C628 H613 0.960 . S
C628 H614 0.960 . S
C628 H615 0.960 . S
C628 C627 1.524 . S
C629 C626 1.403 . S
C629 C630 1.392 . S
C629 C633 1.495 . S
C630 C629 1.392 . S
C630 C631 1.385 . S
C630 C632 1.478 . S
C631 H625 0.930 . S
C631 C627 1.400 . S
C631 C630 1.385 . S
C632 C630 1.478 . S
C632 C634 1.381 . S
C632 C638 1.383 . S
C633 C629 1.495 . S
C633 H639 0.959 . S
C633 H640 0.961 . S
C633 H641 0.960 . S
C634 C632 1.381 . S
C634 C635 1.394 . S
C634 H642 0.930 . S
C635 C634 1.394 . S
C635 C636 1.383 . S
C635 H643 0.929 . S
C636 C635 1.383 . S
C636 C637 1.377 . S
C637 H621 0.930 . S
C637 C636 1.377 . S
C637 C638 1.379 . S
C638 H622 0.931 . S
C638 C632 1.383 . S
C638 C637 1.379 . S
H639 C633 0.959 . S
H640 C633 0.961 . S
H641 C633 0.960 . S
H642 C634 0.930 . S
H643 C635 0.929 . S
H644 C652 0.929 . S
H645 C654 0.930 . S
H646 C656 0.930 . S
H647 C659 0.929 . S
H648 C662 0.930 . S
H649 C664 0.960 . S
H650 C664 0.960 . S
H651 C664 0.960 . S
C652 H644 0.929 . S
C652 C653 1.377 . S
C652 C654 1.384 . S
C653 C652 1.377 . S
C653 C659 1.390 . S
C654 H645 0.930 . S
C654 C652 1.384 . S
C654 C655 1.372 . S
C655 C654 1.372 . S
C655 C656 1.400 . S
C655 C660 1.490 . S
C656 H646 0.930 . S
C656 C655 1.400 . S
C656 C659 1.386 . S
H657 C673 0.930 . S
H658 C674 0.931 . S
C659 H647 0.929 . S
C659 C653 1.390 . S
C659 C656 1.386 . S
C660 C655 1.490 . S
C660 C662 1.395 . S
C660 C663 1.403 . S
H661 C667 0.930 . S
C662 H648 0.930 . S
C662 C660 1.395 . S
C662 C665 1.403 . S
C663 C660 1.403 . S
C663 C664 1.524 . S
C663 C667 1.400 . S
C664 H649 0.960 . S
C664 H650 0.960 . S
C664 H651 0.960 . S
C664 C663 1.524 . S
C665 C662 1.403 . S
C665 C666 1.392 . S
C665 C669 1.495 . S
C666 C665 1.392 . S
C666 C667 1.385 . S
C666 C668 1.478 . S
C667 H661 0.930 . S
C667 C663 1.400 . S
C667 C666 1.385 . S
C668 C666 1.478 . S
C668 C670 1.381 . S
C668 C674 1.383 . S
C669 C665 1.495 . S
C669 H675 0.959 . S
C669 H676 0.961 . S
C669 H677 0.960 . S
C670 C668 1.381 . S
C670 C671 1.394 . S
C670 H678 0.930 . S
C671 C670 1.394 . S
C671 C672 1.383 . S
C671 H679 0.929 . S
C672 C671 1.383 . S
C672 C673 1.377 . S
C673 H657 0.930 . S
C673 C672 1.377 . S
C673 C674 1.379 . S
C674 H658 0.931 . S
C674 C668 1.383 . S
C674 C673 1.379 . S
H675 C669 0.959 . S
H676 C669 0.961 . S
H677 C669 0.960 . S
H678 C670 0.930 . S
H679 C671 0.929 . S
H680 C688 0.929 . S
H681 C690 0.930 . S
H682 C692 0.930 . S
H683 C695 0.929 . S
H684 C698 0.930 . S
H685 C700 0.960 . S
H686 C700 0.960 . S
H687 C700 0.960 . S
C688 H680 0.929 . S
C688 C689 1.377 . S
C688 C690 1.384 . S
C689 C688 1.377 . S
C689 C695 1.390 . S
C690 H681 0.930 . S
C690 C688 1.384 . S
C690 C691 1.372 . S
C691 C690 1.372 . S
C691 C692 1.400 . S
C691 C696 1.490 . S
C692 H682 0.930 . S
C692 C691 1.400 . S
C692 C695 1.386 . S
H693 C709 0.930 . S
H694 C710 0.931 . S
C695 H683 0.929 . S
C695 C689 1.390 . S
C695 C692 1.386 . S
C696 C691 1.490 . S
C696 C698 1.395 . S
C696 C699 1.403 . S
H697 C703 0.930 . S
C698 H684 0.930 . S
C698 C696 1.395 . S
C698 C701 1.403 . S
C699 C696 1.403 . S
C699 C700 1.524 . S
C699 C703 1.400 . S
C700 H685 0.960 . S
C700 H686 0.960 . S
C700 H687 0.960 . S
C700 C699 1.524 . S
C701 C698 1.403 . S
C701 C702 1.392 . S
C701 C705 1.495 . S
C702 C701 1.392 . S
C702 C703 1.385 . S
C702 C704 1.478 . S
C703 H697 0.930 . S
C703 C699 1.400 . S
C703 C702 1.385 . S
C704 C702 1.478 . S
C704 C706 1.381 . S
C704 C710 1.383 . S
C705 C701 1.495 . S
C705 H711 0.959 . S
C705 H712 0.961 . S
C705 H713 0.960 . S
C706 C704 1.381 . S
C706 C707 1.394 . S
C706 H714 0.930 . S
C707 C706 1.394 . S
C707 C708 1.383 . S
C707 H715 0.929 . S
C708 C707 1.383 . S
C708 C709 1.377 . S
C709 H693 0.930 . S
C709 C708 1.377 . S
C709 C710 1.379 . S
C710 H694 0.931 . S
C710 C704 1.383 . S
C710 C709 1.379 . S
H711 C705 0.959 . S
H712 C705 0.961 . S
H713 C705 0.960 . S
H714 C706 0.930 . S
H715 C707 0.929 . S
H716 C724 0.929 . S
H717 C726 0.930 . S
H718 C728 0.930 . S
H719 C731 0.929 . S
H720 C734 0.930 . S
H721 C736 0.960 . S
H722 C736 0.960 . S
H723 C736 0.960 . S
C724 H716 0.929 . S
C724 C725 1.377 . S
C724 C726 1.384 . S
C725 C724 1.377 . S
C725 C731 1.390 . S
C726 H717 0.930 . S
C726 C724 1.384 . S
C726 C727 1.372 . S
C727 C726 1.372 . S
C727 C728 1.400 . S
C727 C732 1.490 . S
C728 H718 0.930 . S
C728 C727 1.400 . S
C728 C731 1.386 . S
H729 C745 0.930 . S
H730 C746 0.931 . S
C731 H719 0.929 . S
C731 C725 1.390 . S
C731 C728 1.386 . S
C732 C727 1.490 . S
C732 C734 1.395 . S
C732 C735 1.403 . S
H733 C739 0.930 . S
C734 H720 0.930 . S
C734 C732 1.395 . S
C734 C737 1.403 . S
C735 C732 1.403 . S
C735 C736 1.524 . S
C735 C739 1.400 . S
C736 H721 0.960 . S
C736 H722 0.960 . S
C736 H723 0.960 . S
C736 C735 1.524 . S
C737 C734 1.403 . S
C737 C738 1.392 . S
C737 C741 1.495 . S
C738 C737 1.392 . S
C738 C739 1.385 . S
C738 C740 1.478 . S
C739 H733 0.930 . S
C739 C735 1.400 . S
C739 C738 1.385 . S
C740 C738 1.478 . S
C740 C742 1.381 . S
C740 C746 1.383 . S
C741 C737 1.495 . S
C741 H747 0.959 . S
C741 H748 0.961 . S
C741 H749 0.960 . S
C742 C740 1.381 . S
C742 C743 1.394 . S
C742 H750 0.930 . S
C743 C742 1.394 . S
C743 C744 1.383 . S
C743 H751 0.929 . S
C744 C743 1.383 . S
C744 C745 1.377 . S
C745 H729 0.930 . S
C745 C744 1.377 . S
C745 C746 1.379 . S
C746 H730 0.931 . S
C746 C740 1.383 . S
C746 C745 1.379 . S
H747 C741 0.959 . S
H748 C741 0.961 . S
H749 C741 0.960 . S
H750 C742 0.930 . S
H751 C743 0.929 . S
H752 C760 0.929 . S
H753 C762 0.930 . S
H754 C764 0.930 . S
H755 C767 0.929 . S
H756 C770 0.931 . S
H757 C772 0.960 . S
H758 C772 0.960 . S
H759 C772 0.960 . S
C760 H752 0.929 . S
C760 C761 1.377 . S
C760 C762 1.384 . S
C761 C760 1.377 . S
C761 C767 1.390 . S
C762 H753 0.930 . S
C762 C760 1.384 . S
C762 C763 1.372 . S
C763 C762 1.372 . S
C763 C764 1.400 . S
C763 C768 1.490 . S
C764 H754 0.930 . S
C764 C763 1.400 . S
C764 C767 1.386 . S
H765 C781 0.930 . S
H766 C782 0.931 . S
C767 H755 0.929 . S
C767 C761 1.390 . S
C767 C764 1.386 . S
C768 C763 1.490 . S
C768 C770 1.386 1_554 S
C768 C771 1.403 . S
H769 C775 0.930 . S
C770 H756 0.931 . S
C770 C768 1.386 1_556 S
C770 C773 1.411 . S
C771 C768 1.403 . S
C771 C772 1.524 . S
C771 C775 1.400 . S
C772 H757 0.960 . S
C772 H758 0.960 . S
C772 H759 0.960 . S
C772 C771 1.524 . S
C773 C770 1.411 . S
C773 C774 1.392 . S
C773 C777 1.495 . S
C774 C773 1.392 . S
C774 C775 1.385 1_556 S
C774 C776 1.478 . S
C775 H769 0.930 . S
C775 C771 1.400 . S
C775 C774 1.385 1_554 S
C776 C774 1.478 . S
C776 C778 1.381 . S
C776 C782 1.383 . S
C777 C773 1.495 . S
C777 H783 0.959 . S
C777 H784 0.961 . S
C777 H785 0.960 . S
C778 C776 1.381 . S
C778 C779 1.394 . S
C778 H786 0.930 . S
C779 C778 1.394 . S
C779 C780 1.383 . S
C779 H787 0.929 . S
C780 C779 1.383 . S
C780 C781 1.377 . S
C781 H765 0.930 . S
C781 C780 1.377 . S
C781 C782 1.379 . S
C782 H766 0.931 . S
C782 C776 1.383 . S
C782 C781 1.379 . S
H783 C777 0.959 . S
H784 C777 0.961 . S
H785 C777 0.960 . S
H786 C778 0.930 . S
H787 C779 0.929 . S
H788 C796 0.929 . S
H789 C798 0.930 . S
H790 C800 0.930 . S
H791 C803 0.929 . S
H792 C806 0.930 . S
H793 C808 0.960 . S
H794 C808 0.960 . S
H795 C808 0.960 1_556 S
C796 H788 0.929 . S
C796 C797 1.377 . S
C796 C798 1.384 . S
C797 C796 1.377 . S
C797 C803 1.390 . S
C798 H789 0.930 . S
C798 C796 1.384 . S
C798 C799 1.372 . S
C799 C798 1.372 . S
C799 C800 1.400 . S
C799 C804 1.490 . S
C800 H790 0.930 . S
C800 C799 1.400 . S
C800 C803 1.386 . S
H801 C817 0.930 . S
H802 C818 0.931 . S
C803 H791 0.929 . S
C803 C797 1.390 . S
C803 C800 1.386 . S
C804 C799 1.490 . S
C804 C806 1.395 . S
C804 C807 1.403 1_556 S
H805 C811 0.930 . S
C806 H792 0.930 . S
C806 C804 1.395 . S
C806 C809 1.403 1_556 S
C807 C804 1.403 1_554 S
C807 C808 1.524 . S
C807 C811 1.400 . S
C808 H793 0.960 . S
C808 H794 0.960 . S
C808 H795 0.960 1_554 S
C808 C807 1.524 . S
C809 C806 1.403 1_554 S
C809 C810 1.392 . S
C809 C813 1.495 . S
C810 C809 1.392 . S
C810 C811 1.385 . S
C810 C812 1.478 . S
C811 H805 0.930 . S
C811 C807 1.400 . S
C811 C810 1.385 . S
C812 C810 1.478 . S
C812 C814 1.381 . S
C812 C818 1.383 . S
C813 C809 1.495 . S
C813 H819 0.959 1_554 S
C813 H820 0.963 1_554 S
C813 H821 0.960 . S
C814 C812 1.381 . S
C814 C815 1.394 . S
C814 H822 0.930 . S
C815 C814 1.394 . S
C815 C816 1.383 . S
C815 H823 0.929 . S
C816 C815 1.383 . S
C816 C817 1.377 . S
C817 H801 0.930 . S
C817 C816 1.377 . S
C817 C818 1.379 . S
C818 H802 0.931 . S
C818 C812 1.383 . S
C818 C817 1.379 . S
H819 C813 0.959 1_556 S
H820 C813 0.963 1_556 S
H821 C813 0.960 . S
H822 C814 0.930 . S
H823 C815 0.929 . S
H824 C832 0.929 . S
H825 C834 0.930 . S
H826 C836 0.930 . S
H827 C839 0.929 . S
H828 C842 0.930 . S
H829 C844 0.960 . S
H830 C844 0.960 . S
H831 C844 0.960 . S
C832 H824 0.929 . S
C832 C833 1.377 . S
C832 C834 1.384 . S
C833 C832 1.377 . S
C833 C839 1.390 . S
C834 H825 0.930 . S
C834 C832 1.384 . S
C834 C835 1.372 . S
C835 C834 1.372 . S
C835 C836 1.400 . S
C835 C840 1.490 . S
C836 H826 0.930 . S
C836 C835 1.400 . S
C836 C839 1.386 . S
H837 C853 0.930 . S
H838 C854 0.931 . S
C839 H827 0.929 . S
C839 C833 1.390 . S
C839 C836 1.386 . S
C840 C835 1.490 . S
C840 C842 1.395 . S
C840 C843 1.403 1_554 S
H841 C847 0.930 . S
C842 H828 0.930 . S
C842 C840 1.395 . S
C842 C845 1.403 . S
C843 C840 1.403 1_556 S
C843 C844 1.524 . S
C843 C847 1.400 . S
C844 H829 0.960 . S
C844 H830 0.960 . S
C844 H831 0.960 . S
C844 C843 1.524 . S
C845 C842 1.403 . S
C845 C846 1.392 1_554 S
C845 C849 1.495 . S
C846 C845 1.392 1_556 S
C846 C847 1.385 . S
C846 C848 1.478 . S
C847 H841 0.930 . S
C847 C843 1.400 . S
C847 C846 1.385 . S
C848 C846 1.478 . S
C848 C850 1.381 . S
C848 C854 1.383 . S
C849 C845 1.495 . S
C849 H855 0.959 . S
C849 H856 0.961 . S
C849 H857 0.960 . S
C850 C848 1.381 . S
C850 C851 1.394 . S
C850 H858 0.930 . S
C851 C850 1.394 . S
C851 C852 1.383 . S
C851 H859 0.929 . S
C852 C851 1.383 . S
C852 C853 1.377 . S
C853 H837 0.930 . S
C853 C852 1.377 . S
C853 C854 1.379 . S
C854 H838 0.931 . S
C854 C848 1.383 . S
C854 C853 1.379 . S
H855 C849 0.959 . S
H856 C849 0.961 . S
H857 C849 0.960 . S
H858 C850 0.930 . S
H859 C851 0.929 . S
H860 C868 0.929 . S
H861 C870 0.930 . S
H862 C872 0.930 . S
H863 C875 0.929 . S
H864 C878 0.930 . S
H865 C880 0.960 . S
H866 C880 0.960 . S
H867 C880 0.960 . S
C868 H860 0.929 . S
C868 C869 1.377 . S
C868 C870 1.384 . S
C869 C868 1.377 . S
C869 C875 1.390 . S
C870 H861 0.930 . S
C870 C868 1.384 . S
C870 C871 1.372 . S
C871 C870 1.372 . S
C871 C872 1.400 . S
C871 C876 1.490 . S
C872 H862 0.930 . S
C872 C871 1.400 . S
C872 C875 1.386 . S
H873 C889 0.930 . S
H874 C890 0.931 . S
C875 H863 0.929 . S
C875 C869 1.390 . S
C875 C872 1.386 . S
C876 C871 1.490 . S
C876 C878 1.395 1_556 S
C876 C879 1.403 . S
H877 C883 0.922 1_556 S
C878 H864 0.930 . S
C878 C876 1.395 1_554 S
C878 C881 1.403 . S
C879 C876 1.403 . S
C879 C880 1.524 . S
C879 C883 1.400 1_556 S
C880 H865 0.960 . S
C880 H866 0.960 . S
C880 H867 0.960 . S
C880 C879 1.524 . S
C881 C878 1.403 . S
C881 C882 1.392 . S
C881 C885 1.495 . S
C882 C881 1.392 . S
C882 C883 1.385 . S
C882 C884 1.478 . S
C883 H877 0.922 1_554 S
C883 C879 1.400 1_554 S
C883 C882 1.385 . S
C884 C882 1.478 . S
C884 C886 1.381 . S
C884 C890 1.383 . S
C885 C881 1.495 . S
C885 H891 0.959 . S
C885 H892 0.961 . S
C885 H893 0.960 . S
C886 C884 1.381 . S
C886 C887 1.394 . S
C886 H894 0.930 . S
C887 C886 1.394 . S
C887 C888 1.383 . S
C887 H895 0.929 . S
C888 C887 1.383 . S
C888 C889 1.377 . S
C889 H873 0.930 . S
C889 C888 1.377 . S
C889 C890 1.379 . S
C890 H874 0.931 . S
C890 C884 1.383 . S
C890 C889 1.379 . S
H891 C885 0.959 . S
H892 C885 0.961 . S
H893 C885 0.960 . S
H894 C886 0.930 . S
H895 C887 0.929 . S
H896 C904 0.929 . S
H897 C906 0.930 . S
H898 C908 0.930 . S
H899 C911 0.929 . S
H900 C914 0.930 . S
H901 C916 0.960 . S
H902 C916 0.960 . S
H903 C916 0.960 . S
C904 H896 0.929 . S
C904 C905 1.377 . S
C904 C906 1.384 . S
C905 C904 1.377 . S
C905 C911 1.390 . S
C906 H897 0.930 . S
C906 C904 1.384 . S
C906 C907 1.372 . S
C907 C906 1.372 . S
C907 C908 1.400 . S
C907 C912 1.490 . S
C908 H898 0.930 . S
C908 C907 1.400 . S
C908 C911 1.386 . S
H909 C925 0.930 . S
H910 C926 0.931 . S
C911 H899 0.929 . S
C911 C905 1.390 . S
C911 C908 1.386 . S
C912 C907 1.490 . S
C912 C914 1.395 . S
C912 C915 1.403 . S
H913 C919 0.930 . S
C914 H900 0.930 . S
C914 C912 1.395 . S
C914 C917 1.403 . S
C915 C912 1.403 . S
C915 C916 1.524 . S
C915 C919 1.400 . S
C916 H901 0.960 . S
C916 H902 0.960 . S
C916 H903 0.960 . S
C916 C915 1.524 . S
C917 C914 1.403 . S
C917 C918 1.392 . S
C917 C921 1.495 . S
C918 C917 1.392 . S
C918 C919 1.385 . S
C918 C920 1.478 . S
C919 H913 0.930 . S
C919 C915 1.400 . S
C919 C918 1.385 . S
C920 C918 1.478 . S
C920 C922 1.381 . S
C920 C926 1.383 . S
C921 C917 1.495 . S
C921 H927 0.959 . S
C921 H928 0.961 . S
C921 H929 0.960 . S
C922 C920 1.381 . S
C922 C923 1.394 . S
C922 H930 0.930 . S
C923 C922 1.394 . S
C923 C924 1.383 . S
C923 H931 0.929 . S
C924 C923 1.383 . S
C924 C925 1.377 . S
C925 H909 0.930 . S
C925 C924 1.377 . S
C925 C926 1.379 . S
C926 H910 0.931 . S
C926 C920 1.383 . S
C926 C925 1.379 . S
H927 C921 0.959 . S
H928 C921 0.961 . S
H929 C921 0.960 . S
H930 C922 0.930 . S
H931 C923 0.929 . S
H932 C940 0.929 . S
H933 C942 0.930 . S
H934 C944 0.930 . S
H935 C947 0.929 . S
H936 C950 0.930 . S
H937 C952 0.960 . S
H938 C952 0.960 . S
H939 C952 0.960 . S
C940 H932 0.929 . S
C940 C941 1.377 . S
C940 C942 1.384 . S
C941 C940 1.377 . S
C941 C947 1.390 . S
C942 H933 0.930 . S
C942 C940 1.384 . S
C942 C943 1.372 . S
C943 C942 1.372 . S
C943 C944 1.400 . S
C943 C948 1.490 . S
C944 H934 0.930 . S
C944 C943 1.400 . S
C944 C947 1.386 . S
H945 C961 0.930 . S
H946 C962 0.931 . S
C947 H935 0.929 . S
C947 C941 1.390 . S
C947 C944 1.386 . S
C948 C943 1.490 . S
C948 C950 1.395 . S
C948 C951 1.403 . S
H949 C955 0.930 . S
C950 H936 0.930 . S
C950 C948 1.395 . S
C950 C953 1.403 . S
C951 C948 1.403 . S
C951 C952 1.524 . S
C951 C955 1.400 . S
C952 H937 0.960 . S
C952 H938 0.960 . S
C952 H939 0.960 . S
C952 C951 1.524 . S
C953 C950 1.403 . S
C953 C954 1.392 . S
C953 C957 1.495 . S
C954 C953 1.392 . S
C954 C955 1.385 . S
C954 C956 1.478 . S
C955 H949 0.930 . S
C955 C951 1.400 . S
C955 C954 1.385 . S
C956 C954 1.478 . S
C956 C958 1.381 . S
C956 C962 1.383 . S
C957 C953 1.495 . S
C957 H963 0.959 . S
C957 H964 0.961 . S
C957 H965 0.960 . S
C958 C956 1.381 . S
C958 C959 1.394 . S
C958 H966 0.930 . S
C959 C958 1.394 . S
C959 C960 1.383 . S
C959 H967 0.929 . S
C960 C959 1.383 . S
C960 C961 1.377 . S
C961 H945 0.930 . S
C961 C960 1.377 . S
C961 C962 1.379 . S
C962 H946 0.931 . S
C962 C956 1.383 . S
C962 C961 1.379 . S
H963 C957 0.959 . S
H964 C957 0.961 . S
H965 C957 0.960 . S
H966 C958 0.930 . S
H967 C959 0.929 . S
H968 C976 0.929 . S
H969 C978 0.930 . S
H970 C980 0.930 . S
H971 C983 0.929 . S
H972 C986 0.930 . S
H973 C988 0.960 . S
H974 C988 0.960 . S
H975 C988 0.960 . S
C976 H968 0.929 . S
C976 C977 1.377 . S
C976 C978 1.384 . S
C977 C976 1.377 . S
C977 C983 1.390 . S
C978 H969 0.930 . S
C978 C976 1.384 . S
C978 C979 1.372 . S
C979 C978 1.372 . S
C979 C980 1.400 . S
C979 C984 1.490 . S
C980 H970 0.930 . S
C980 C979 1.400 . S
C980 C983 1.386 . S
H981 C997 0.930 . S
H982 C998 0.931 . S
C983 H971 0.929 . S
C983 C977 1.390 . S
C983 C980 1.386 . S
C984 C979 1.490 . S
C984 C986 1.395 . S
C984 C987 1.403 . S
H985 C991 0.930 . S
C986 H972 0.930 . S
C986 C984 1.395 . S
C986 C989 1.403 . S
C987 C984 1.403 . S
C987 C988 1.524 . S
C987 C991 1.400 . S
C988 H973 0.960 . S
C988 H974 0.960 . S
C988 H975 0.960 . S
C988 C987 1.524 . S
C989 C986 1.403 . S
C989 C990 1.392 . S
C989 C993 1.495 . S
C990 C989 1.392 . S
C990 C991 1.385 . S
C990 C992 1.478 . S
C991 H985 0.930 . S
C991 C987 1.400 . S
C991 C990 1.385 . S
C992 C990 1.478 . S
C992 C994 1.381 . S
C992 C998 1.383 . S
C993 C989 1.495 . S
C993 H999 0.959 . S
C993 H1000 0.961 . S
C993 H1001 0.960 . S
C994 C992 1.381 . S
C994 C995 1.394 . S
C994 H1002 0.930 . S
C995 C994 1.394 . S
C995 C996 1.383 . S
C995 H1003 0.929 . S
C996 C995 1.383 . S
C996 C997 1.377 . S
C997 H981 0.930 . S
C997 C996 1.377 . S
C997 C998 1.379 . S
C998 H982 0.931 . S
C998 C992 1.383 . S
C998 C997 1.379 . S
H999 C993 0.959 . S
H1000 C993 0.961 . S
H1001 C993 0.960 . S
H1002 C994 0.930 . S
H1003 C995 0.929 . S
H1004 C1012 0.929 . S
H1005 C1014 0.930 . S
H1006 C1016 0.930 . S
H1007 C1019 0.929 . S
H1008 C1022 0.930 . S
H1009 C1024 0.960 . S
H1010 C1024 0.960 . S
H1011 C1024 0.960 . S
C1012 H1004 0.929 . S
C1012 C1013 1.377 . S
C1012 C1014 1.384 . S
C1013 C1012 1.377 . S
C1013 C1019 1.390 . S
C1014 H1005 0.930 . S
C1014 C1012 1.384 . S
C1014 C1015 1.372 . S
C1015 C1014 1.372 . S
C1015 C1016 1.400 . S
C1015 C1020 1.490 . S
C1016 H1006 0.930 . S
C1016 C1015 1.400 . S
C1016 C1019 1.386 . S
H1017 C1033 0.930 . S
H1018 C1034 0.931 . S
C1019 H1007 0.929 . S
C1019 C1013 1.390 . S
C1019 C1016 1.386 . S
C1020 C1015 1.490 . S
C1020 C1022 1.395 . S
C1020 C1023 1.403 . S
H1021 C1027 0.930 . S
C1022 H1008 0.930 . S
C1022 C1020 1.395 . S
C1022 C1025 1.403 . S
C1023 C1020 1.403 . S
C1023 C1024 1.524 . S
C1023 C1027 1.400 . S
C1024 H1009 0.960 . S
C1024 H1010 0.960 . S
C1024 H1011 0.960 . S
C1024 C1023 1.524 . S
C1025 C1022 1.403 . S
C1025 C1026 1.392 . S
C1025 C1029 1.495 . S
C1026 C1025 1.392 . S
C1026 C1027 1.385 . S
C1026 C1028 1.478 . S
C1027 H1021 0.930 . S
C1027 C1023 1.400 . S
C1027 C1026 1.385 . S
C1028 C1026 1.478 . S
C1028 C1030 1.381 . S
C1028 C1034 1.383 . S
C1029 C1025 1.495 . S
C1029 H1035 0.959 . S
C1029 H1036 0.961 . S
C1029 H1037 0.960 . S
C1030 C1028 1.381 . S
C1030 C1031 1.394 . S
C1030 H1038 0.930 . S
C1031 C1030 1.394 . S
C1031 C1032 1.383 . S
C1031 H1039 0.929 . S
C1032 C1031 1.383 . S
C1032 C1033 1.377 . S
C1033 H1017 0.930 . S
C1033 C1032 1.377 . S
C1033 C1034 1.379 . S
C1034 H1018 0.931 . S
C1034 C1028 1.383 . S
C1034 C1033 1.379 . S
H1035 C1029 0.959 . S
H1036 C1029 0.961 . S
H1037 C1029 0.960 . S
H1038 C1030 0.930 . S
H1039 C1031 0.929 . S
H1040 C1048 0.929 . S
H1041 C1050 0.930 . S
H1042 C1052 0.930 . S
H1043 C1055 0.929 . S
H1044 C1058 0.930 . S
H1045 C1060 0.960 . S
H1046 C1060 0.960 . S
H1047 C1060 0.960 . S
C1048 H1040 0.929 . S
C1048 C1049 1.377 . S
C1048 C1050 1.384 . S
C1049 C1048 1.377 . S
C1049 C1055 1.390 . S
C1050 H1041 0.930 . S
C1050 C1048 1.384 . S
C1050 C1051 1.372 . S
C1051 C1050 1.372 . S
C1051 C1052 1.400 . S
C1051 C1056 1.490 . S
C1052 H1042 0.930 . S
C1052 C1051 1.400 . S
C1052 C1055 1.386 . S
H1053 C1069 0.930 . S
H1054 C1070 0.931 . S
C1055 H1043 0.929 . S
C1055 C1049 1.390 . S
C1055 C1052 1.386 . S
C1056 C1051 1.490 . S
C1056 C1058 1.395 . S
C1056 C1059 1.403 1_556 S
H1057 C1063 0.930 . S
C1058 H1044 0.930 . S
C1058 C1056 1.395 . S
C1058 C1061 1.403 . S
C1059 C1056 1.403 1_554 S
C1059 C1060 1.524 . S
C1059 C1063 1.400 . S
C1060 H1045 0.960 . S
C1060 H1046 0.960 . S
C1060 H1047 0.960 . S
C1060 C1059 1.524 . S
C1061 C1058 1.403 . S
C1061 C1062 1.392 1_556 S
C1061 C1065 1.495 . S
C1062 C1061 1.392 1_554 S
C1062 C1063 1.385 . S
C1062 C1064 1.478 . S
C1063 H1057 0.930 . S
C1063 C1059 1.400 . S
C1063 C1062 1.385 . S
C1064 C1062 1.478 . S
C1064 C1066 1.381 . S
C1064 C1070 1.383 . S
C1065 C1061 1.495 . S
C1065 H1071 0.959 . S
C1065 H1072 0.961 . S
C1065 H1073 0.960 . S
C1066 C1064 1.381 . S
C1066 C1067 1.394 . S
C1066 H1074 0.930 . S
C1067 C1066 1.394 . S
C1067 C1068 1.383 . S
C1067 H1075 0.929 . S
C1068 C1067 1.383 . S
C1068 C1069 1.377 . S
C1069 H1053 0.930 . S
C1069 C1068 1.377 . S
C1069 C1070 1.379 . S
C1070 H1054 0.931 . S
C1070 C1064 1.383 . S
C1070 C1069 1.379 . S
H1071 C1065 0.959 . S
H1072 C1065 0.961 . S
H1073 C1065 0.960 . S
H1074 C1066 0.930 . S
H1075 C1067 0.929 . S
H1076 C1084 0.929 . S
H1077 C1086 0.930 . S
H1078 C1088 0.930 . S
H1079 C1091 0.929 . S
H1080 C1094 0.930 . S
H1081 C1096 0.960 . S
H1082 C1096 0.960 . S
H1083 C1096 0.960 . S
C1084 H1076 0.929 . S
C1084 C1085 1.377 . S
C1084 C1086 1.384 . S
C1085 C1084 1.377 . S
C1085 C1091 1.390 . S
C1086 H1077 0.930 . S
C1086 C1084 1.384 . S
C1086 C1087 1.372 . S
C1087 C1086 1.372 . S
C1087 C1088 1.400 . S
C1087 C1092 1.490 . S
C1088 H1078 0.930 . S
C1088 C1087 1.400 . S
C1088 C1091 1.386 . S
H1089 C1105 0.930 . S
H1090 C1106 0.931 . S
C1091 H1079 0.929 . S
C1091 C1085 1.390 . S
C1091 C1088 1.386 . S
C1092 C1087 1.490 . S
C1092 C1094 1.395 1_554 S
C1092 C1095 1.403 . S
H1093 C1099 0.921 1_554 S
C1094 H1080 0.930 . S
C1094 C1092 1.395 1_556 S
C1094 C1097 1.403 . S
C1095 C1092 1.403 . S
C1095 C1096 1.524 . S
C1095 C1099 1.368 1_554 S
C1096 H1081 0.960 . S
C1096 H1082 0.960 . S
C1096 H1083 0.960 . S
C1096 C1095 1.524 . S
C1097 C1094 1.403 . S
C1097 C1098 1.392 . S
C1097 C1101 1.495 . S
C1098 C1097 1.392 . S
C1098 C1099 1.427 . S
C1098 C1100 1.478 . S
C1099 H1093 0.921 1_556 S
C1099 C1095 1.368 1_556 S
C1099 C1098 1.427 . S
C1100 C1098 1.478 . S
C1100 C1102 1.381 . S
C1100 C1106 1.383 . S
C1101 C1097 1.495 . S
C1101 H1107 0.959 . S
C1101 H1108 0.961 . S
C1101 H1109 0.960 . S
C1102 C1100 1.381 . S
C1102 C1103 1.394 . S
C1102 H1110 0.930 . S
C1103 C1102 1.394 . S
C1103 C1104 1.383 . S
C1103 H1111 0.929 . S
C1104 C1103 1.383 . S
C1104 C1105 1.377 . S
C1105 H1089 0.930 . S
C1105 C1104 1.377 . S
C1105 C1106 1.379 . S
C1106 H1090 0.931 . S
C1106 C1100 1.383 . S
C1106 C1105 1.379 . S
H1107 C1101 0.959 . S
H1108 C1101 0.961 . S
H1109 C1101 0.960 . S
H1110 C1102 0.930 . S
H1111 C1103 0.929 . S
H1112 C1120 0.929 . S
H1113 C1122 0.930 . S
H1114 C1124 0.930 . S
H1115 C1127 0.929 . S
H1116 C1130 0.930 . S
H1117 C1132 0.960 . S
H1118 C1132 0.960 . S
H1119 C1132 0.960 . S
C1120 H1112 0.929 . S
C1120 C1121 1.377 . S
C1120 C1122 1.384 . S
C1121 C1120 1.377 . S
C1121 C1127 1.390 . S
C1122 H1113 0.930 . S
C1122 C1120 1.384 . S
C1122 C1123 1.372 . S
C1123 C1122 1.372 . S
C1123 C1124 1.400 . S
C1123 C1128 1.490 . S
C1124 H1114 0.930 . S
C1124 C1123 1.400 . S
C1124 C1127 1.386 . S
H1125 C1141 0.930 . S
H1126 C1142 0.931 . S
C1127 H1115 0.929 . S
C1127 C1121 1.390 . S
C1127 C1124 1.386 . S
C1128 C1123 1.490 . S
C1128 C1130 1.395 . S
C1128 C1131 1.403 . S
H1129 C1135 0.930 . S
C1130 H1116 0.930 . S
C1130 C1128 1.395 . S
C1130 C1133 1.403 1_556 S
C1131 C1128 1.403 . S
C1131 C1132 1.524 . S
C1131 C1135 1.400 1_556 S
C1132 H1117 0.960 . S
C1132 H1118 0.960 . S
C1132 H1119 0.960 . S
C1132 C1131 1.524 . S
C1133 C1130 1.403 1_554 S
C1133 C1134 1.392 . S
C1133 C1137 1.495 . S
C1134 C1133 1.392 . S
C1134 C1135 1.385 . S
C1134 C1136 1.478 . S
C1135 H1129 0.930 . S
C1135 C1131 1.400 1_554 S
C1135 C1134 1.385 . S
C1136 C1134 1.478 . S
C1136 C1138 1.381 . S
C1136 C1142 1.383 . S
C1137 C1133 1.495 . S
C1137 H1143 0.959 1_554 S
C1137 H1144 0.964 . S
C1137 H1145 0.960 . S
C1138 C1136 1.381 . S
C1138 C1139 1.394 . S
C1138 H1146 0.930 . S
C1139 C1138 1.394 . S
C1139 C1140 1.383 . S
C1139 H1147 0.929 . S
C1140 C1139 1.383 . S
C1140 C1141 1.377 . S
C1141 H1125 0.930 . S
C1141 C1140 1.377 . S
C1141 C1142 1.379 . S
C1142 H1126 0.931 . S
C1142 C1136 1.383 . S
C1142 C1141 1.379 . S
H1143 C1137 0.959 1_556 S
H1144 C1137 0.964 . S
H1145 C1137 0.960 . S
H1146 C1138 0.930 . S
H1147 C1139 0.929 . S
H1148 C1156 0.929 . S
H1149 C1158 0.930 . S
H1150 C1160 0.930 . S
H1151 C1163 0.929 . S
H1152 C1166 0.930 . S
H1153 C1168 0.960 . S
H1154 C1168 0.990 . S
H1155 C1168 0.960 . S
C1156 H1148 0.929 . S
C1156 C1157 1.377 . S
C1156 C1158 1.384 . S
C1157 C1156 1.377 . S
C1157 C1163 1.390 . S
C1158 H1149 0.930 . S
C1158 C1156 1.384 . S
C1158 C1159 1.372 . S
C1159 C1158 1.372 . S
C1159 C1160 1.400 . S
C1159 C1164 1.490 . S
C1160 H1150 0.930 . S
C1160 C1159 1.400 . S
C1160 C1163 1.386 . S
H1161 C1177 0.930 . S
H1162 C1178 0.931 . S
C1163 H1151 0.929 . S
C1163 C1157 1.390 . S
C1163 C1160 1.386 . S
C1164 C1159 1.490 . S
C1164 C1166 1.395 . S
C1164 C1167 1.403 1_554 S
H1165 C1171 0.930 . S
C1166 H1152 0.930 . S
C1166 C1164 1.395 . S
C1166 C1169 1.403 . S
C1167 C1164 1.403 1_556 S
C1167 C1168 1.524 . S
C1167 C1171 1.400 . S
C1168 H1153 0.960 . S
C1168 H1154 0.990 . S
C1168 H1155 0.960 . S
C1168 C1167 1.524 . S
C1169 C1166 1.403 . S
C1169 C1170 1.392 1_554 S
C1169 C1173 1.495 . S
C1170 C1169 1.392 1_556 S
C1170 C1171 1.385 . S
C1170 C1172 1.478 . S
C1171 H1165 0.930 . S
C1171 C1167 1.400 . S
C1171 C1170 1.385 . S
C1172 C1170 1.478 . S
C1172 C1174 1.381 . S
C1172 C1178 1.383 . S
C1173 C1169 1.495 . S
C1173 H1179 0.959 . S
C1173 H1180 0.961 1_554 S
C1173 H1181 0.960 . S
C1174 C1172 1.381 . S
C1174 C1175 1.394 . S
C1174 H1182 0.930 . S
C1175 C1174 1.394 . S
C1175 C1176 1.383 . S
C1175 H1183 0.929 . S
C1176 C1175 1.383 . S
C1176 C1177 1.377 . S
C1177 H1161 0.930 . S
C1177 C1176 1.377 . S
C1177 C1178 1.379 . S
C1178 H1162 0.931 . S
C1178 C1172 1.383 . S
C1178 C1177 1.379 . S
H1179 C1173 0.959 . S
H1180 C1173 0.961 1_556 S
H1181 C1173 0.960 . S
H1182 C1174 0.930 . S
H1183 C1175 0.929 . S
H1184 C1192 0.929 . S
H1185 C1194 0.930 . S
H1186 C1196 0.930 . S
H1187 C1199 0.929 . S
H1188 C1202 0.930 . S
H1189 C1204 0.960 . S
H1190 C1204 0.960 . S
H1191 C1204 0.960 . S
C1192 H1184 0.929 . S
C1192 C1193 1.377 . S
C1192 C1194 1.384 . S
C1193 C1192 1.377 . S
C1193 C1199 1.390 . S
C1194 H1185 0.930 . S
C1194 C1192 1.384 . S
C1194 C1195 1.372 . S
C1195 C1194 1.372 . S
C1195 C1196 1.400 . S
C1195 C1200 1.490 . S
C1196 H1186 0.930 . S
C1196 C1195 1.400 . S
C1196 C1199 1.386 . S
H1197 C1213 0.930 . S
H1198 C1214 0.931 . S
C1199 H1187 0.929 . S
C1199 C1193 1.390 . S
C1199 C1196 1.386 . S
C1200 C1195 1.490 . S
C1200 C1202 1.395 . S
C1200 C1203 1.403 . S
H1201 C1207 0.930 . S
C1202 H1188 0.930 . S
C1202 C1200 1.395 . S
C1202 C1205 1.403 . S
C1203 C1200 1.403 . S
C1203 C1204 1.524 . S
C1203 C1207 1.400 . S
C1204 H1189 0.960 . S
C1204 H1190 0.960 . S
C1204 H1191 0.960 . S
C1204 C1203 1.524 . S
C1205 C1202 1.403 . S
C1205 C1206 1.392 . S
C1205 C1209 1.495 . S
C1206 C1205 1.392 . S
C1206 C1207 1.385 . S
C1206 C1208 1.478 . S
C1207 H1201 0.930 . S
C1207 C1203 1.400 . S
C1207 C1206 1.385 . S
C1208 C1206 1.478 . S
C1208 C1210 1.381 . S
C1208 C1214 1.383 . S
C1209 C1205 1.495 . S
C1209 H1215 0.959 . S
C1209 H1216 0.961 . S
C1209 H1217 0.960 . S
C1210 C1208 1.381 . S
C1210 C1211 1.394 . S
C1210 H1218 0.930 . S
C1211 C1210 1.394 . S
C1211 C1212 1.383 . S
C1211 H1219 0.929 . S
C1212 C1211 1.383 . S
C1212 C1213 1.377 . S
C1213 H1197 0.930 . S
C1213 C1212 1.377 . S
C1213 C1214 1.379 . S
C1214 H1198 0.931 . S
C1214 C1208 1.383 . S
C1214 C1213 1.379 . S
H1215 C1209 0.959 . S
H1216 C1209 0.961 . S
H1217 C1209 0.960 . S
H1218 C1210 0.930 . S
H1219 C1211 0.929 . S
H1220 C1228 0.929 . S
H1221 C1230 0.930 . S
H1222 C1232 0.930 . S
H1223 C1235 0.929 . S
H1224 C1238 0.930 . S
H1225 C1240 0.960 . S
H1226 C1240 0.960 . S
H1227 C1240 0.960 . S
C1228 H1220 0.929 . S
C1228 C1229 1.377 . S
C1228 C1230 1.384 . S
C1229 C1228 1.377 . S
C1229 C1235 1.390 . S
C1230 H1221 0.930 . S
C1230 C1228 1.384 . S
C1230 C1231 1.372 . S
C1231 C1230 1.372 . S
C1231 C1232 1.400 . S
C1231 C1236 1.490 . S
C1232 H1222 0.930 . S
C1232 C1231 1.400 . S
C1232 C1235 1.386 . S
H1233 C1249 0.930 . S
H1234 C1250 0.931 . S
C1235 H1223 0.929 . S
C1235 C1229 1.390 . S
C1235 C1232 1.386 . S
C1236 C1231 1.490 . S
C1236 C1238 1.395 . S
C1236 C1239 1.403 . S
H1237 C1243 0.930 . S
C1238 H1224 0.930 . S
C1238 C1236 1.395 . S
C1238 C1241 1.403 . S
C1239 C1236 1.403 . S
C1239 C1240 1.524 . S
C1239 C1243 1.400 . S
C1240 H1225 0.960 . S
C1240 H1226 0.960 . S
C1240 H1227 0.960 . S
C1240 C1239 1.524 . S
C1241 C1238 1.403 . S
C1241 C1242 1.392 . S
C1241 C1245 1.495 . S
C1242 C1241 1.392 . S
C1242 C1243 1.385 . S
C1242 C1244 1.478 . S
C1243 H1237 0.930 . S
C1243 C1239 1.400 . S
C1243 C1242 1.385 . S
C1244 C1242 1.478 . S
C1244 C1246 1.381 . S
C1244 C1250 1.383 . S
C1245 C1241 1.495 . S
C1245 H1251 0.959 . S
C1245 H1252 0.961 . S
C1245 H1253 0.960 . S
C1246 C1244 1.381 . S
C1246 C1247 1.394 . S
C1246 H1254 0.930 . S
C1247 C1246 1.394 . S
C1247 C1248 1.383 . S
C1247 H1255 0.929 . S
C1248 C1247 1.383 . S
C1248 C1249 1.377 . S
C1249 H1233 0.930 . S
C1249 C1248 1.377 . S
C1249 C1250 1.379 . S
C1250 H1234 0.931 . S
C1250 C1244 1.383 . S
C1250 C1249 1.379 . S
H1251 C1245 0.959 . S
H1252 C1245 0.961 . S
H1253 C1245 0.960 . S
H1254 C1246 0.930 . S
H1255 C1247 0.929 . S
H1256 C1264 0.929 . S
H1257 C1266 0.930 . S
H1258 C1268 0.930 . S
H1259 C1271 0.929 . S
H1260 C1274 0.930 . S
H1261 C1276 0.960 . S
H1262 C1276 0.960 . S
H1263 C1276 0.960 . S
C1264 H1256 0.929 . S
C1264 C1265 1.377 . S
C1264 C1266 1.384 . S
C1265 C1264 1.377 . S
C1265 C1271 1.390 . S
C1266 H1257 0.930 . S
C1266 C1264 1.384 . S
C1266 C1267 1.372 . S
C1267 C1266 1.372 . S
C1267 C1268 1.400 . S
C1267 C1272 1.490 . S
C1268 H1258 0.930 . S
C1268 C1267 1.400 . S
C1268 C1271 1.386 . S
H1269 C1285 0.930 . S
H1270 C1286 0.931 . S
C1271 H1259 0.929 . S
C1271 C1265 1.390 . S
C1271 C1268 1.386 . S
C1272 C1267 1.490 . S
C1272 C1274 1.395 . S
C1272 C1275 1.403 . S
H1273 C1279 0.930 . S
C1274 H1260 0.930 . S
C1274 C1272 1.395 . S
C1274 C1277 1.403 . S
C1275 C1272 1.403 . S
C1275 C1276 1.524 . S
C1275 C1279 1.400 . S
C1276 H1261 0.960 . S
C1276 H1262 0.960 . S
C1276 H1263 0.960 . S
C1276 C1275 1.524 . S
C1277 C1274 1.403 . S
C1277 C1278 1.392 . S
C1277 C1281 1.495 . S
C1278 C1277 1.392 . S
C1278 C1279 1.385 . S
C1278 C1280 1.478 . S
C1279 H1273 0.930 . S
C1279 C1275 1.400 . S
C1279 C1278 1.385 . S
C1280 C1278 1.478 . S
C1280 C1282 1.381 . S
C1280 C1286 1.383 . S
C1281 C1277 1.495 . S
C1281 H1287 0.959 . S
C1281 H1288 0.961 . S
C1281 H1289 0.960 . S
C1282 C1280 1.381 . S
C1282 C1283 1.394 . S
C1282 H1290 0.930 . S
C1283 C1282 1.394 . S
C1283 C1284 1.383 . S
C1283 H1291 0.929 . S
C1284 C1283 1.383 . S
C1284 C1285 1.377 . S
C1285 H1269 0.930 . S
C1285 C1284 1.377 . S
C1285 C1286 1.379 . S
C1286 H1270 0.931 . S
C1286 C1280 1.383 . S
C1286 C1285 1.379 . S
H1287 C1281 0.959 . S
H1288 C1281 0.961 . S
H1289 C1281 0.960 . S
H1290 C1282 0.930 . S
H1291 C1283 0.929 . S
H1292 C1300 0.929 . S
H1293 C1302 0.930 . S
H1294 C1304 0.930 . S
H1295 C1307 0.929 . S
H1296 C1310 0.930 . S
H1297 C1312 0.960 . S
H1298 C1312 0.960 . S
H1299 C1312 0.960 . S
C1300 H1292 0.929 . S
C1300 C1301 1.377 . S
C1300 C1302 1.384 . S
C1301 C1300 1.377 . S
C1301 C1307 1.390 . S
C1302 H1293 0.930 . S
C1302 C1300 1.384 . S
C1302 C1303 1.372 . S
C1303 C1302 1.372 . S
C1303 C1304 1.400 . S
C1303 C1308 1.490 . S
C1304 H1294 0.930 . S
C1304 C1303 1.400 . S
C1304 C1307 1.386 . S
H1305 C1321 0.930 . S
H1306 C1322 0.931 . S
C1307 H1295 0.929 . S
C1307 C1301 1.390 . S
C1307 C1304 1.386 . S
C1308 C1303 1.490 . S
C1308 C1310 1.395 . S
C1308 C1311 1.403 . S
H1309 C1315 0.930 . S
C1310 H1296 0.930 . S
C1310 C1308 1.395 . S
C1310 C1313 1.403 . S
C1311 C1308 1.403 . S
C1311 C1312 1.524 . S
C1311 C1315 1.400 . S
C1312 H1297 0.960 . S
C1312 H1298 0.960 . S
C1312 H1299 0.960 . S
C1312 C1311 1.524 . S
C1313 C1310 1.403 . S
C1313 C1314 1.392 . S
C1313 C1317 1.495 . S
C1314 C1313 1.392 . S
C1314 C1315 1.385 . S
C1314 C1316 1.478 . S
C1315 H1309 0.930 . S
C1315 C1311 1.400 . S
C1315 C1314 1.385 . S
C1316 C1314 1.478 . S
C1316 C1318 1.381 . S
C1316 C1322 1.383 . S
C1317 C1313 1.495 . S
C1317 H1323 0.959 . S
C1317 H1324 0.961 . S
C1317 H1325 0.960 . S
C1318 C1316 1.381 . S
C1318 C1319 1.394 . S
C1318 H1326 0.930 . S
C1319 C1318 1.394 . S
C1319 C1320 1.383 . S
C1319 H1327 0.929 . S
C1320 C1319 1.383 . S
C1320 C1321 1.377 . S
C1321 H1305 0.930 . S
C1321 C1320 1.377 . S
C1321 C1322 1.379 . S
C1322 H1306 0.931 . S
C1322 C1316 1.383 . S
C1322 C1321 1.379 . S
H1323 C1317 0.959 . S
H1324 C1317 0.961 . S
H1325 C1317 0.960 . S
H1326 C1318 0.930 . S
H1327 C1319 0.929 . S
H1328 C1336 0.929 . S
H1329 C1338 0.930 . S
H1330 C1340 0.930 . S
H1331 C1343 0.929 . S
H1332 C1346 0.930 . S
H1333 C1348 0.960 . S
H1334 C1348 0.960 . S
H1335 C1348 0.960 . S
C1336 H1328 0.929 . S
C1336 C1337 1.377 . S
C1336 C1338 1.384 . S
C1337 C1336 1.377 . S
C1337 C1343 1.390 . S
C1338 H1329 0.930 . S
C1338 C1336 1.384 . S
C1338 C1339 1.372 . S
C1339 C1338 1.372 . S
C1339 C1340 1.400 . S
C1339 C1344 1.490 . S
C1340 H1330 0.930 . S
C1340 C1339 1.400 . S
C1340 C1343 1.386 . S
H1341 C1357 0.930 . S
H1342 C1358 0.931 . S
C1343 H1331 0.929 . S
C1343 C1337 1.390 . S
C1343 C1340 1.386 . S
C1344 C1339 1.490 . S
C1344 C1346 1.395 . S
C1344 C1347 1.403 . S
H1345 C1351 0.930 . S
C1346 H1332 0.930 . S
C1346 C1344 1.395 . S
C1346 C1349 1.403 . S
C1347 C1344 1.403 . S
C1347 C1348 1.524 . S
C1347 C1351 1.400 . S
C1348 H1333 0.960 . S
C1348 H1334 0.960 . S
C1348 H1335 0.960 . S
C1348 C1347 1.524 . S
C1349 C1346 1.403 . S
C1349 C1350 1.392 . S
C1349 C1353 1.495 . S
C1350 C1349 1.392 . S
C1350 C1351 1.385 . S
C1350 C1352 1.478 . S
C1351 H1345 0.930 . S
C1351 C1347 1.400 . S
C1351 C1350 1.385 . S
C1352 C1350 1.478 . S
C1352 C1354 1.381 . S
C1352 C1358 1.383 . S
C1353 C1349 1.495 . S
C1353 H1359 0.959 . S
C1353 H1360 0.961 . S
C1353 H1361 0.960 . S
C1354 C1352 1.381 . S
C1354 C1355 1.394 . S
C1354 H1362 0.930 . S
C1355 C1354 1.394 . S
C1355 C1356 1.383 . S
C1355 H1363 0.929 . S
C1356 C1355 1.383 . S
C1356 C1357 1.377 . S
C1357 H1341 0.930 . S
C1357 C1356 1.377 . S
C1357 C1358 1.379 . S
C1358 H1342 0.931 . S
C1358 C1352 1.383 . S
C1358 C1357 1.379 . S
H1359 C1353 0.959 . S
H1360 C1353 0.961 . S
H1361 C1353 0.960 . S
H1362 C1354 0.930 . S
H1363 C1355 0.929 . S
H1364 C1372 0.929 . S
H1365 C1374 0.930 . S
H1366 C1376 0.930 . S
H1367 C1379 0.929 . S
H1368 C1382 0.930 . S
H1369 C1384 0.960 . S
H1370 C1384 0.960 . S
H1371 C1384 0.960 . S
C1372 H1364 0.929 . S
C1372 C1373 1.377 . S
C1372 C1374 1.384 . S
C1373 C1372 1.377 . S
C1373 C1379 1.390 . S
C1374 H1365 0.930 . S
C1374 C1372 1.384 . S
C1374 C1375 1.372 . S
C1375 C1374 1.372 . S
C1375 C1376 1.400 . S
C1375 C1380 1.490 . S
C1376 H1366 0.930 . S
C1376 C1375 1.400 . S
C1376 C1379 1.386 . S
H1377 C1393 0.930 . S
H1378 C1394 0.931 . S
C1379 H1367 0.929 . S
C1379 C1373 1.390 . S
C1379 C1376 1.386 . S
C1380 C1375 1.490 . S
C1380 C1382 1.395 . S
C1380 C1383 1.403 . S
H1381 C1387 0.930 . S
C1382 H1368 0.930 . S
C1382 C1380 1.395 . S
C1382 C1385 1.403 . S
C1383 C1380 1.403 . S
C1383 C1384 1.524 . S
C1383 C1387 1.400 . S
C1384 H1369 0.960 . S
C1384 H1370 0.960 . S
C1384 H1371 0.960 . S
C1384 C1383 1.524 . S
C1385 C1382 1.403 . S
C1385 C1386 1.392 . S
C1385 C1389 1.495 . S
C1386 C1385 1.392 . S
C1386 C1387 1.385 . S
C1386 C1388 1.478 . S
C1387 H1381 0.930 . S
C1387 C1383 1.400 . S
C1387 C1386 1.385 . S
C1388 C1386 1.478 . S
C1388 C1390 1.381 . S
C1388 C1394 1.383 . S
C1389 C1385 1.495 . S
C1389 H1395 0.959 . S
C1389 H1396 0.961 . S
C1389 H1397 0.960 . S
C1390 C1388 1.381 . S
C1390 C1391 1.394 . S
C1390 H1398 0.930 . S
C1391 C1390 1.394 . S
C1391 C1392 1.383 . S
C1391 H1399 0.929 . S
C1392 C1391 1.383 . S
C1392 C1393 1.377 . S
C1393 H1377 0.930 . S
C1393 C1392 1.377 . S
C1393 C1394 1.379 . S
C1394 H1378 0.931 . S
C1394 C1388 1.383 . S
C1394 C1393 1.379 . S
H1395 C1389 0.959 . S
H1396 C1389 0.961 . S
H1397 C1389 0.960 . S
H1398 C1390 0.930 . S
H1399 C1391 0.929 . S
H1400 C1408 0.929 . S
H1401 C1410 0.930 . S
H1402 C1412 0.930 . S
H1403 C1415 0.929 . S
H1404 C1418 0.930 . S
H1405 C1420 0.960 . S
H1406 C1420 0.960 . S
H1407 C1420 0.960 . S
C1408 H1400 0.929 . S
C1408 C1409 1.377 . S
C1408 C1410 1.384 . S
C1409 C1408 1.377 . S
C1409 C1415 1.390 . S
C1410 H1401 0.930 . S
C1410 C1408 1.384 . S
C1410 C1411 1.372 . S
C1411 C1410 1.372 . S
C1411 C1412 1.400 . S
C1411 C1416 1.490 . S
C1412 H1402 0.930 . S
C1412 C1411 1.400 . S
C1412 C1415 1.386 . S
H1413 C1429 0.930 . S
H1414 C1430 0.931 . S
C1415 H1403 0.929 . S
C1415 C1409 1.390 . S
C1415 C1412 1.386 . S
C1416 C1411 1.490 . S
C1416 C1418 1.395 . S
C1416 C1419 1.403 . S
H1417 C1423 0.930 . S
C1418 H1404 0.930 . S
C1418 C1416 1.395 . S
C1418 C1421 1.403 . S
C1419 C1416 1.403 . S
C1419 C1420 1.524 . S
C1419 C1423 1.400 . S
C1420 H1405 0.960 . S
C1420 H1406 0.960 . S
C1420 H1407 0.960 . S
C1420 C1419 1.524 . S
C1421 C1418 1.403 . S
C1421 C1422 1.392 . S
C1421 C1425 1.495 . S
C1422 C1421 1.392 . S
C1422 C1423 1.385 . S
C1422 C1424 1.478 . S
C1423 H1417 0.930 . S
C1423 C1419 1.400 . S
C1423 C1422 1.385 . S
C1424 C1422 1.478 . S
C1424 C1426 1.381 . S
C1424 C1430 1.383 . S
C1425 C1421 1.495 . S
C1425 H1431 0.959 . S
C1425 H1432 0.961 . S
C1425 H1433 0.960 . S
C1426 C1424 1.381 . S
C1426 C1427 1.394 . S
C1426 H1434 0.930 . S
C1427 C1426 1.394 . S
C1427 C1428 1.383 . S
C1427 H1435 0.929 . S
C1428 C1427 1.383 . S
C1428 C1429 1.377 . S
C1429 H1413 0.930 . S
C1429 C1428 1.377 . S
C1429 C1430 1.379 . S
C1430 H1414 0.931 . S
C1430 C1424 1.383 . S
C1430 C1429 1.379 . S
H1431 C1425 0.959 . S
H1432 C1425 0.961 . S
H1433 C1425 0.960 . S
H1434 C1426 0.930 . S
H1435 C1427 0.929 . S
H1436 C1444 0.929 . S
H1437 C1446 0.930 . S
H1438 C1448 0.930 . S
H1439 C1451 0.929 . S
H1440 C1454 0.930 . S
H1441 C1456 0.960 . S
H1442 C1456 0.960 . S
H1443 C1456 0.960 . S
C1444 H1436 0.929 . S
C1444 C1445 1.377 . S
C1444 C1446 1.384 . S
C1445 C1444 1.377 . S
C1445 C1451 1.390 . S
C1446 H1437 0.930 . S
C1446 C1444 1.384 . S
C1446 C1447 1.372 . S
C1447 C1446 1.372 . S
C1447 C1448 1.400 . S
C1447 C1452 1.490 . S
C1448 H1438 0.930 . S
C1448 C1447 1.400 . S
C1448 C1451 1.386 . S
H1449 C1465 0.930 . S
H1450 C1466 0.931 . S
C1451 H1439 0.929 . S
C1451 C1445 1.390 . S
C1451 C1448 1.386 . S
C1452 C1447 1.490 . S
C1452 C1454 1.395 . S
C1452 C1455 1.403 . S
H1453 C1459 0.930 . S
C1454 H1440 0.930 . S
C1454 C1452 1.395 . S
C1454 C1457 1.403 . S
C1455 C1452 1.403 . S
C1455 C1456 1.524 . S
C1455 C1459 1.400 . S
C1456 H1441 0.960 . S
C1456 H1442 0.960 . S
C1456 H1443 0.960 . S
C1456 C1455 1.524 . S
C1457 C1454 1.403 . S
C1457 C1458 1.392 . S
C1457 C1461 1.495 . S
C1458 C1457 1.392 . S
C1458 C1459 1.385 . S
C1458 C1460 1.478 . S
C1459 H1453 0.930 . S
C1459 C1455 1.400 . S
C1459 C1458 1.385 . S
C1460 C1458 1.478 . S
C1460 C1462 1.381 . S
C1460 C1466 1.383 . S
C1461 C1457 1.495 . S
C1461 H1467 0.959 . S
C1461 H1468 0.961 . S
C1461 H1469 0.960 . S
C1462 C1460 1.381 . S
C1462 C1463 1.394 . S
C1462 H1470 0.930 . S
C1463 C1462 1.394 . S
C1463 C1464 1.383 . S
C1463 H1471 0.929 . S
C1464 C1463 1.383 . S
C1464 C1465 1.377 . S
C1465 H1449 0.930 . S
C1465 C1464 1.377 . S
C1465 C1466 1.379 . S
C1466 H1450 0.931 . S
C1466 C1460 1.383 . S
C1466 C1465 1.379 . S
H1467 C1461 0.959 . S
H1468 C1461 0.961 . S
H1469 C1461 0.960 . S
H1470 C1462 0.930 . S
H1471 C1463 0.929 . S
H1472 C1480 0.929 . S
H1473 C1482 0.930 . S
H1474 C1484 0.930 . S
H1475 C1487 0.929 . S
H1476 C1490 0.930 . S
H1477 C1492 0.960 . S
H1478 C1492 0.960 . S
H1479 C1492 0.960 . S
C1480 H1472 0.929 . S
C1480 C1481 1.377 . S
C1480 C1482 1.384 . S
C1481 C1480 1.377 . S
C1481 C1487 1.390 . S
C1482 H1473 0.930 . S
C1482 C1480 1.384 . S
C1482 C1483 1.372 . S
C1483 C1482 1.372 . S
C1483 C1484 1.400 . S
C1483 C1488 1.490 . S
C1484 H1474 0.930 . S
C1484 C1483 1.400 . S
C1484 C1487 1.386 . S
H1485 C1501 0.930 . S
H1486 C1502 0.931 . S
C1487 H1475 0.929 . S
C1487 C1481 1.390 . S
C1487 C1484 1.386 . S
C1488 C1483 1.490 . S
C1488 C1490 1.395 . S
C1488 C1491 1.403 . S
H1489 C1495 0.930 . S
C1490 H1476 0.930 . S
C1490 C1488 1.395 . S
C1490 C1493 1.403 . S
C1491 C1488 1.403 . S
C1491 C1492 1.524 . S
C1491 C1495 1.400 . S
C1492 H1477 0.960 . S
C1492 H1478 0.960 . S
C1492 H1479 0.960 . S
C1492 C1491 1.524 . S
C1493 C1490 1.403 . S
C1493 C1494 1.392 . S
C1493 C1497 1.495 . S
C1494 C1493 1.392 . S
C1494 C1495 1.385 . S
C1494 C1496 1.478 . S
C1495 H1489 0.930 . S
C1495 C1491 1.400 . S
C1495 C1494 1.385 . S
C1496 C1494 1.478 . S
C1496 C1498 1.381 . S
C1496 C1502 1.383 . S
C1497 C1493 1.495 . S
C1497 H1503 0.959 . S
C1497 H1504 0.961 . S
C1497 H1505 0.960 . S
C1498 C1496 1.381 . S
C1498 C1499 1.394 . S
C1498 H1506 0.930 . S
C1499 C1498 1.394 . S
C1499 C1500 1.383 . S
C1499 H1507 0.929 . S
C1500 C1499 1.383 . S
C1500 C1501 1.377 . S
C1501 H1485 0.930 . S
C1501 C1500 1.377 . S
C1501 C1502 1.379 . S
C1502 H1486 0.931 . S
C1502 C1496 1.383 . S
C1502 C1501 1.379 . S
H1503 C1497 0.959 . S
H1504 C1497 0.961 . S
H1505 C1497 0.960 . S
H1506 C1498 0.930 . S
H1507 C1499 0.929 . S
H1508 C1516 0.929 . S
H1509 C1518 0.930 . S
H1510 C1520 0.930 . S
H1511 C1523 0.929 . S
H1512 C1526 0.930 . S
H1513 C1528 0.960 . S
H1514 C1528 0.960 . S
H1515 C1528 0.960 . S
C1516 H1508 0.929 . S
C1516 C1517 1.377 . S
C1516 C1518 1.384 . S
C1517 C1516 1.377 . S
C1517 C1523 1.390 . S
C1518 H1509 0.930 . S
C1518 C1516 1.384 . S
C1518 C1519 1.372 . S
C1519 C1518 1.372 . S
C1519 C1520 1.400 . S
C1519 C1524 1.490 . S
C1520 H1510 0.930 . S
C1520 C1519 1.400 . S
C1520 C1523 1.386 . S
H1521 C1537 0.930 . S
H1522 C1538 0.931 . S
C1523 H1511 0.929 . S
C1523 C1517 1.390 . S
C1523 C1520 1.386 . S
C1524 C1519 1.490 . S
C1524 C1526 1.395 . S
C1524 C1527 1.403 . S
H1525 C1531 0.930 . S
C1526 H1512 0.930 . S
C1526 C1524 1.395 . S
C1526 C1529 1.403 . S
C1527 C1524 1.403 . S
C1527 C1528 1.524 . S
C1527 C1531 1.400 . S
C1528 H1513 0.960 . S
C1528 H1514 0.960 . S
C1528 H1515 0.960 . S
C1528 C1527 1.524 . S
C1529 C1526 1.403 . S
C1529 C1530 1.392 . S
C1529 C1533 1.495 . S
C1530 C1529 1.392 . S
C1530 C1531 1.385 . S
C1530 C1532 1.478 . S
C1531 H1525 0.930 . S
C1531 C1527 1.400 . S
C1531 C1530 1.385 . S
C1532 C1530 1.478 . S
C1532 C1534 1.381 . S
C1532 C1538 1.383 . S
C1533 C1529 1.495 . S
C1533 H1539 0.959 . S
C1533 H1540 0.961 . S
C1533 H1541 0.960 . S
C1534 C1532 1.381 . S
C1534 C1535 1.394 . S
C1534 H1542 0.930 . S
C1535 C1534 1.394 . S
C1535 C1536 1.383 . S
C1535 H1543 0.929 . S
C1536 C1535 1.383 . S
C1536 C1537 1.377 . S
C1537 H1521 0.930 . S
C1537 C1536 1.377 . S
C1537 C1538 1.379 . S
C1538 H1522 0.931 . S
C1538 C1532 1.383 . S
C1538 C1537 1.379 . S
H1539 C1533 0.959 . S
H1540 C1533 0.961 . S
H1541 C1533 0.960 . S
H1542 C1534 0.930 . S
H1543 C1535 0.929 . S
H1544 C1552 0.929 . S
H1545 C1554 0.930 . S
H1546 C1556 0.930 . S
H1547 C1559 0.929 . S
H1548 C1562 0.930 . S
H1549 C1564 0.960 . S
H1550 C1564 0.960 . S
H1551 C1564 0.960 . S
C1552 H1544 0.929 . S
C1552 C1553 1.377 . S
C1552 C1554 1.384 . S
C1553 C1552 1.377 . S
C1553 C1559 1.390 . S
C1554 H1545 0.930 . S
C1554 C1552 1.384 . S
C1554 C1555 1.372 . S
C1555 C1554 1.372 . S
C1555 C1556 1.400 . S
C1555 C1560 1.490 . S
C1556 H1546 0.930 . S
C1556 C1555 1.400 . S
C1556 C1559 1.386 . S
H1557 C1573 0.930 . S
H1558 C1574 0.931 . S
C1559 H1547 0.929 . S
C1559 C1553 1.390 . S
C1559 C1556 1.386 . S
C1560 C1555 1.490 . S
C1560 C1562 1.395 . S
C1560 C1563 1.403 . S
H1561 C1567 0.930 . S
C1562 H1548 0.930 . S
C1562 C1560 1.395 . S
C1562 C1565 1.403 . S
C1563 C1560 1.403 . S
C1563 C1564 1.524 . S
C1563 C1567 1.400 . S
C1564 H1549 0.960 . S
C1564 H1550 0.960 . S
C1564 H1551 0.960 . S
C1564 C1563 1.524 . S
C1565 C1562 1.403 . S
C1565 C1566 1.392 . S
C1565 C1569 1.495 . S
C1566 C1565 1.392 . S
C1566 C1567 1.385 . S
C1566 C1568 1.478 . S
C1567 H1561 0.930 . S
C1567 C1563 1.400 . S
C1567 C1566 1.385 . S
C1568 C1566 1.478 . S
C1568 C1570 1.381 . S
C1568 C1574 1.383 . S
C1569 C1565 1.495 . S
C1569 H1575 0.959 . S
C1569 H1576 0.961 . S
C1569 H1577 0.960 . S
C1570 C1568 1.381 . S
C1570 C1571 1.394 . S
C1570 H1578 0.930 . S
C1571 C1570 1.394 . S
C1571 C1572 1.383 . S
C1571 H1579 0.929 . S
C1572 C1571 1.383 . S
C1572 C1573 1.377 . S
C1573 H1557 0.930 . S
C1573 C1572 1.377 . S
C1573 C1574 1.379 . S
C1574 H1558 0.931 . S
C1574 C1568 1.383 . S
C1574 C1573 1.379 . S
H1575 C1569 0.959 . S
H1576 C1569 0.961 . S
H1577 C1569 0.960 . S
H1578 C1570 0.930 . S
H1579 C1571 0.929 . S
H1580 C1588 0.929 . S
H1581 C1590 0.930 . S
H1582 C1592 0.930 . S
H1583 C1595 0.929 . S
H1584 C1598 0.930 . S
H1585 C1600 0.960 . S
H1586 C1600 0.960 . S
H1587 C1600 0.960 . S
C1588 H1580 0.929 . S
C1588 C1589 1.377 . S
C1588 C1590 1.384 . S
C1589 C1588 1.377 . S
C1589 C1595 1.390 . S
C1590 H1581 0.930 . S
C1590 C1588 1.384 . S
C1590 C1591 1.372 . S
C1591 C1590 1.372 . S
C1591 C1592 1.400 . S
C1591 C1596 1.490 . S
C1592 H1582 0.930 . S
C1592 C1591 1.400 . S
C1592 C1595 1.386 . S
H1593 C1609 0.930 . S
H1594 C1610 0.931 . S
C1595 H1583 0.929 . S
C1595 C1589 1.390 . S
C1595 C1592 1.386 . S
C1596 C1591 1.490 . S
C1596 C1598 1.395 . S
C1596 C1599 1.403 . S
H1597 C1603 0.930 . S
C1598 H1584 0.930 . S
C1598 C1596 1.395 . S
C1598 C1601 1.403 . S
C1599 C1596 1.403 . S
C1599 C1600 1.524 . S
C1599 C1603 1.400 . S
C1600 H1585 0.960 . S
C1600 H1586 0.960 . S
C1600 H1587 0.960 . S
C1600 C1599 1.524 . S
C1601 C1598 1.403 . S
C1601 C1602 1.392 . S
C1601 C1605 1.495 . S
C1602 C1601 1.392 . S
C1602 C1603 1.385 . S
C1602 C1604 1.478 . S
C1603 H1597 0.930 . S
C1603 C1599 1.400 . S
C1603 C1602 1.385 . S
C1604 C1602 1.478 . S
C1604 C1606 1.381 . S
C1604 C1610 1.383 . S
C1605 C1601 1.495 . S
C1605 H1611 0.959 . S
C1605 H1612 0.961 . S
C1605 H1613 0.960 . S
C1606 C1604 1.381 . S
C1606 C1607 1.394 . S
C1606 H1614 0.930 . S
C1607 C1606 1.394 . S
C1607 C1608 1.383 . S
C1607 H1615 0.929 . S
C1608 C1607 1.383 . S
C1608 C1609 1.377 . S
C1609 H1593 0.930 . S
C1609 C1608 1.377 . S
C1609 C1610 1.379 . S
C1610 H1594 0.931 . S
C1610 C1604 1.383 . S
C1610 C1609 1.379 . S
H1611 C1605 0.959 . S
H1612 C1605 0.961 . S
H1613 C1605 0.960 . S
H1614 C1606 0.930 . S
H1615 C1607 0.929 . S
H1616 C1624 0.929 . S
H1617 C1626 0.930 . S
H1618 C1628 0.930 . S
H1619 C1631 0.929 1_545 S
H1620 C1634 0.930 . S
H1621 C1636 0.960 . S
H1622 C1636 0.960 . S
H1623 C1636 0.960 . S
C1624 H1616 0.929 . S
C1624 C1625 1.377 . S
C1624 C1626 1.384 . S
C1625 C1624 1.377 . S
C1625 C1631 1.390 . S
C1626 H1617 0.930 . S
C1626 C1624 1.384 . S
C1626 C1627 1.372 . S
C1627 C1626 1.372 . S
C1627 C1628 1.400 1_565 S
C1627 C1632 1.490 . S
C1628 H1618 0.930 . S
C1628 C1627 1.400 1_545 S
C1628 C1631 1.386 1_545 S
H1629 C1645 0.930 . S
H1630 C1646 0.931 . S
C1631 H1619 0.929 1_565 S
C1631 C1625 1.390 . S
C1631 C1628 1.386 1_565 S
C1632 C1627 1.490 . S
C1632 C1634 1.395 1_565 S
C1632 C1635 1.403 1_556 S
H1633 C1639 0.930 . S
C1634 H1620 0.930 . S
C1634 C1632 1.395 1_545 S
C1634 C1637 1.403 . S
C1635 C1632 1.403 1_554 S
C1635 C1636 1.524 . S
C1635 C1639 1.400 . S
C1636 H1621 0.960 . S
C1636 H1622 0.960 . S
C1636 H1623 0.960 . S
C1636 C1635 1.524 . S
C1637 C1634 1.403 . S
C1637 C1638 1.392 1_556 S
C1637 C1641 1.495 . S
C1638 C1637 1.392 1_554 S
C1638 C1639 1.385 1_545 S
C1638 C1640 1.478 . S
C1639 H1633 0.930 . S
C1639 C1635 1.400 . S
C1639 C1638 1.385 1_565 S
C1640 C1638 1.478 . S
C1640 C1642 1.381 1_545 S
C1640 C1646 1.383 . S
C1641 C1637 1.495 . S
C1641 H1647 0.959 . S
C1641 H1648 0.961 . S
C1641 H1649 0.960 . S
C1642 C1640 1.381 1_565 S
C1642 C1643 1.391 1_565 S
C1642 H1650 0.930 . S
C1643 C1642 1.391 1_545 S
C1643 C1644 1.403 . S
C1643 H1651 0.914 1_545 S
C1644 C1643 1.403 . S
C1644 C1645 1.377 . S
C1645 H1629 0.930 . S
C1645 C1644 1.377 . S
C1645 C1646 1.379 . S
C1646 H1630 0.931 . S
C1646 C1640 1.383 . S
C1646 C1645 1.379 . S
H1647 C1641 0.959 . S
H1648 C1641 0.961 . S
H1649 C1641 0.960 . S
H1650 C1642 0.930 . S
H1651 C1643 0.914 1_565 S
H1652 C1660 0.929 . S
H1653 C1662 0.930 . S
H1654 C1664 0.930 . S
H1655 C1667 0.929 . S
H1656 C1670 0.930 . S
H1657 C1672 0.960 . S
H1658 C1672 0.960 . S
H1659 C1672 0.960 . S
C1660 H1652 0.929 . S
C1660 C1661 1.377 . S
C1660 C1662 1.384 . S
C1661 C1660 1.377 . S
C1661 C1667 1.390 . S
C1662 H1653 0.930 . S
C1662 C1660 1.384 . S
C1662 C1663 1.372 . S
C1663 C1662 1.372 . S
C1663 C1664 1.400 . S
C1663 C1668 1.490 . S
C1664 H1654 0.930 . S
C1664 C1663 1.400 . S
C1664 C1667 1.386 . S
H1665 C1681 0.930 . S
H1666 C1682 0.931 . S
C1667 H1655 0.929 . S
C1667 C1661 1.390 . S
C1667 C1664 1.386 . S
C1668 C1663 1.490 . S
C1668 C1670 1.395 . S
C1668 C1671 1.403 1_556 S
H1669 C1675 0.930 . S
C1670 H1656 0.930 . S
C1670 C1668 1.395 . S
C1670 C1673 1.403 . S
C1671 C1668 1.403 1_554 S
C1671 C1672 1.524 . S
C1671 C1675 1.400 . S
C1672 H1657 0.960 . S
C1672 H1658 0.960 . S
C1672 H1659 0.960 . S
C1672 C1671 1.524 . S
C1673 C1670 1.403 . S
C1673 C1674 1.392 1_556 S
C1673 C1677 1.495 . S
C1674 C1673 1.392 1_554 S
C1674 C1675 1.385 . S
C1674 C1676 1.478 . S
C1675 H1669 0.930 . S
C1675 C1671 1.400 . S
C1675 C1674 1.385 . S
C1676 C1674 1.478 . S
C1676 C1678 1.381 . S
C1676 C1682 1.383 . S
C1677 C1673 1.495 . S
C1677 H1683 0.959 . S
C1677 H1684 0.961 . S
C1677 H1685 0.960 . S
C1678 C1676 1.381 . S
C1678 C1679 1.394 . S
C1678 H1686 0.930 . S
C1679 C1678 1.394 . S
C1679 C1680 1.383 . S
C1679 H1687 0.929 . S
C1680 C1679 1.383 . S
C1680 C1681 1.377 . S
C1681 H1665 0.930 . S
C1681 C1680 1.377 . S
C1681 C1682 1.379 . S
C1682 H1666 0.931 . S
C1682 C1676 1.383 . S
C1682 C1681 1.379 . S
H1683 C1677 0.959 . S
H1684 C1677 0.961 . S
H1685 C1677 0.960 . S
H1686 C1678 0.930 . S
H1687 C1679 0.929 . S
H1688 C1696 0.929 . S
H1689 C1698 0.930 . S
H1690 C1700 0.930 . S
H1691 C1703 0.929 . S
H1692 C1706 0.930 . S
H1693 C1708 0.960 . S
H1694 C1708 0.960 . S
H1695 C1708 0.960 . S
C1696 H1688 0.929 . S
C1696 C1697 1.377 . S
C1696 C1698 1.384 . S
C1697 C1696 1.377 . S
C1697 C1703 1.390 . S
C1698 H1689 0.930 . S
C1698 C1696 1.384 . S
C1698 C1699 1.372 . S
C1699 C1698 1.372 . S
C1699 C1700 1.400 . S
C1699 C1704 1.490 . S
C1700 H1690 0.930 . S
C1700 C1699 1.400 . S
C1700 C1703 1.386 . S
H1701 C1717 0.930 . S
H1702 C1718 0.931 . S
C1703 H1691 0.929 . S
C1703 C1697 1.390 . S
C1703 C1700 1.386 . S
C1704 C1699 1.490 . S
C1704 C1706 1.395 1_455 S
C1704 C1707 1.403 1_556 S
H1705 C1711 0.935 . S
C1706 H1692 0.930 . S
C1706 C1704 1.395 1_655 S
C1706 C1709 1.403 . S
C1707 C1704 1.403 1_554 S
C1707 C1708 1.524 . S
C1707 C1711 1.430 . S
C1708 H1693 0.960 . S
C1708 H1694 0.960 . S
C1708 H1695 0.960 . S
C1708 C1707 1.524 . S
C1709 C1706 1.403 . S
C1709 C1710 1.392 1_556 S
C1709 C1713 1.495 . S
C1710 C1709 1.392 1_554 S
C1710 C1711 1.351 1_655 S
C1710 C1712 1.478 . S
C1711 H1705 0.935 . S
C1711 C1707 1.430 . S
C1711 C1710 1.351 1_455 S
C1712 C1710 1.478 . S
C1712 C1714 1.381 . S
C1712 C1718 1.383 . S
C1713 C1709 1.495 . S
C1713 H1719 0.959 . S
C1713 H1720 0.961 . S
C1713 H1721 0.960 . S
C1714 C1712 1.381 . S
C1714 C1715 1.394 . S
C1714 H1722 0.930 . S
C1715 C1714 1.394 . S
C1715 C1716 1.383 . S
C1715 H1723 0.929 . S
C1716 C1715 1.383 . S
C1716 C1717 1.377 . S
C1717 H1701 0.930 . S
C1717 C1716 1.377 . S
C1717 C1718 1.379 . S
C1718 H1702 0.931 . S
C1718 C1712 1.383 . S
C1718 C1717 1.379 . S
H1719 C1713 0.959 . S
H1720 C1713 0.961 . S
H1721 C1713 0.960 . S
H1722 C1714 0.930 . S
H1723 C1715 0.929 . S
H1724 C1732 0.935 . S
H1725 C1734 0.930 . S
H1726 C1736 0.930 . S
H1727 C1739 0.929 . S
H1728 C1742 0.930 . S
H1729 C1744 0.960 . S
H1730 C1744 0.960 1_545 S
H1731 C1744 0.960 . S
C1732 H1724 0.935 . S
C1732 C1733 1.371 1_455 S
C1732 C1734 1.386 . S
C1733 C1732 1.371 1_655 S
C1733 C1739 1.390 . S
C1734 H1725 0.930 . S
C1734 C1732 1.386 . S
C1734 C1735 1.372 1_455 S
C1735 C1734 1.372 1_655 S
C1735 C1736 1.400 . S
C1735 C1740 1.490 . S
C1736 H1726 0.930 . S
C1736 C1735 1.400 . S
C1736 C1739 1.386 . S
H1737 C1753 0.930 . S
H1738 C1754 0.931 . S
C1739 H1727 0.929 . S
C1739 C1733 1.390 . S
C1739 C1736 1.386 . S
C1740 C1735 1.490 . S
C1740 C1742 1.395 1_556 S
C1740 C1743 1.403 1_645 S
H1741 C1747 0.930 . S
C1742 H1728 0.930 . S
C1742 C1740 1.395 1_554 S
C1742 C1745 1.403 . S
C1743 C1740 1.403 1_465 S
C1743 C1744 1.524 . S
C1743 C1747 1.400 . S
C1744 H1729 0.960 . S
C1744 H1730 0.960 1_565 S
C1744 H1731 0.960 . S
C1744 C1743 1.524 . S
C1745 C1742 1.403 . S
C1745 C1746 1.392 1_645 S
C1745 C1749 1.495 . S
C1746 C1745 1.392 1_465 S
C1746 C1747 1.385 1_554 S
C1746 C1748 1.478 . S
C1747 H1741 0.930 . S
C1747 C1743 1.400 . S
C1747 C1746 1.385 1_556 S
C1748 C1746 1.478 . S
C1748 C1750 1.381 . S
C1748 C1754 1.383 1_455 S
C1749 C1745 1.495 . S
C1749 H1755 0.959 . S
C1749 H1756 0.961 1_545 S
C1749 H1757 0.960 . S
C1750 C1748 1.381 . S
C1750 C1751 1.394 . S
C1750 H1758 0.930 . S
C1751 C1750 1.394 . S
C1751 C1752 1.383 . S
C1751 H1759 0.929 . S
C1752 C1751 1.383 . S
C1752 C1753 1.377 1_455 S
C1753 H1737 0.930 . S
C1753 C1752 1.377 1_655 S
C1753 C1754 1.379 . S
C1754 H1738 0.931 . S
C1754 C1748 1.383 1_655 S
C1754 C1753 1.379 . S
H1755 C1749 0.959 . S
H1756 C1749 0.961 1_565 S
H1757 C1749 0.960 . S
H1758 C1750 0.930 . S
H1759 C1751 0.929 . S
H1760 C1768 0.929 . S
H1761 C1770 0.930 . S
H1762 C1772 0.930 . S
H1763 C1775 0.929 . S
H1764 C1778 0.930 . S
H1765 C1780 0.960 . S
H1766 C1780 0.960 . S
H1767 C1780 0.960 . S
C1768 H1760 0.929 . S
C1768 C1769 1.377 . S
C1768 C1770 1.384 . S
C1769 C1768 1.377 . S
C1769 C1775 1.390 . S
C1770 H1761 0.930 . S
C1770 C1768 1.384 . S
C1770 C1771 1.372 . S
C1771 C1770 1.372 . S
C1771 C1772 1.400 . S
C1771 C1776 1.490 . S
C1772 H1762 0.930 . S
C1772 C1771 1.400 . S
C1772 C1775 1.386 . S
H1773 C1789 0.930 . S
H1774 C1790 0.931 . S
C1775 H1763 0.929 . S
C1775 C1769 1.390 . S
C1775 C1772 1.386 . S
C1776 C1771 1.490 . S
C1776 C1778 1.395 . S
C1776 C1779 1.403 . S
H1777 C1783 0.930 . S
C1778 H1764 0.930 . S
C1778 C1776 1.395 . S
C1778 C1781 1.403 . S
C1779 C1776 1.403 . S
C1779 C1780 1.524 . S
C1779 C1783 1.400 . S
C1780 H1765 0.960 . S
C1780 H1766 0.960 . S
C1780 H1767 0.960 . S
C1780 C1779 1.524 . S
C1781 C1778 1.403 . S
C1781 C1782 1.392 . S
C1781 C1785 1.495 . S
C1782 C1781 1.392 . S
C1782 C1783 1.385 . S
C1782 C1784 1.478 . S
C1783 H1777 0.930 . S
C1783 C1779 1.400 . S
C1783 C1782 1.385 . S
C1784 C1782 1.478 . S
C1784 C1786 1.381 . S
C1784 C1790 1.383 . S
C1785 C1781 1.495 . S
C1785 H1791 0.959 . S
C1785 H1792 0.961 . S
C1785 H1793 0.960 . S
C1786 C1784 1.381 . S
C1786 C1787 1.394 . S
C1786 H1794 0.930 . S
C1787 C1786 1.394 . S
C1787 C1788 1.383 . S
C1787 H1795 0.929 . S
C1788 C1787 1.383 . S
C1788 C1789 1.377 . S
C1789 H1773 0.930 . S
C1789 C1788 1.377 . S
C1789 C1790 1.379 . S
C1790 H1774 0.931 . S
C1790 C1784 1.383 . S
C1790 C1789 1.379 . S
H1791 C1785 0.959 . S
H1792 C1785 0.961 . S
H1793 C1785 0.960 . S
H1794 C1786 0.930 . S
H1795 C1787 0.929 . S
H1796 C1804 0.937 . S
H1797 C1806 0.930 1_655 S
H1798 C1808 0.930 . S
H1799 C1811 0.929 . S
H1800 C1814 0.930 . S
H1801 C1816 0.960 . S
H1802 C1816 0.960 . S
H1803 C1816 0.960 . S
C1804 H1796 0.937 . S
C1804 C1805 1.377 . S
C1804 C1806 1.384 . S
C1805 C1804 1.377 . S
C1805 C1811 1.390 . S
C1806 H1797 0.930 1_455 S
C1806 C1804 1.384 . S
C1806 C1807 1.372 . S
C1807 C1806 1.372 . S
C1807 C1808 1.400 . S
C1807 C1812 1.490 . S
C1808 H1798 0.930 . S
C1808 C1807 1.400 . S
C1808 C1811 1.386 . S
H1809 C1825 0.917 1_455 S
H1810 C1826 0.931 . S
C1811 H1799 0.929 . S
C1811 C1805 1.390 . S
C1811 C1808 1.386 . S
C1812 C1807 1.490 . S
C1812 C1814 1.395 . S
C1812 C1815 1.403 1_455 S
H1813 C1819 0.930 . S
C1814 H1800 0.930 . S
C1814 C1812 1.395 . S
C1814 C1817 1.403 . S
C1815 C1812 1.403 1_655 S
C1815 C1816 1.524 . S
C1815 C1819 1.400 . S
C1816 H1801 0.960 . S
C1816 H1802 0.960 . S
C1816 H1803 0.960 . S
C1816 C1815 1.524 . S
C1817 C1814 1.403 . S
C1817 C1818 1.372 1_455 S
C1817 C1821 1.495 . S
C1818 C1817 1.372 1_655 S
C1818 C1819 1.403 . S
C1818 C1820 1.482 . S
C1819 H1813 0.930 . S
C1819 C1815 1.400 . S
C1819 C1818 1.403 . S
C1820 C1818 1.482 . S
C1820 C1822 1.381 . S
C1820 C1826 1.383 1_655 S
C1821 C1817 1.495 . S
C1821 H1827 0.959 . S
C1821 H1828 0.961 . S
C1821 H1829 0.960 . S
C1822 C1820 1.381 . S
C1822 C1823 1.394 . S
C1822 H1830 0.930 . S
C1823 C1822 1.394 . S
C1823 C1824 1.383 . S
C1823 H1831 0.929 . S
C1824 C1823 1.383 . S
C1824 C1825 1.400 . S
C1825 H1809 0.917 1_655 S
C1825 C1824 1.400 . S
C1825 C1826 1.372 1_655 S
C1826 H1810 0.931 . S
C1826 C1820 1.383 1_455 S
C1826 C1825 1.372 1_455 S
H1827 C1821 0.959 . S
H1828 C1821 0.961 . S
H1829 C1821 0.960 . S
H1830 C1822 0.930 . S
H1831 C1823 0.929 . S
H1832 C1840 0.929 . S
H1833 C1842 0.930 . S
H1834 C1844 0.930 . S
H1835 C1847 0.929 . S
H1836 C1850 0.930 . S
H1837 C1852 0.960 . S
H1838 C1852 0.960 1_545 S
H1839 C1852 0.960 1_655 S
C1840 H1832 0.929 . S
C1840 C1841 1.377 . S
C1840 C1842 1.384 . S
C1841 C1840 1.377 . S
C1841 C1847 1.390 1_545 S
C1842 H1833 0.930 . S
C1842 C1840 1.384 . S
C1842 C1843 1.372 . S
C1843 C1842 1.372 . S
C1843 C1844 1.400 1_545 S
C1843 C1848 1.490 . S
C1844 H1834 0.930 . S
C1844 C1843 1.400 1_565 S
C1844 C1847 1.386 . S
H1845 C1861 0.930 . S
H1846 C1862 0.931 . S
C1847 H1835 0.929 . S
C1847 C1841 1.390 1_565 S
C1847 C1844 1.386 . S
C1848 C1843 1.490 . S
C1848 C1850 1.395 . S
C1848 C1851 1.403 1_645 S
H1849 C1855 0.930 . S
C1850 H1836 0.930 . S
C1850 C1848 1.395 . S
C1850 C1853 1.403 . S
C1851 C1848 1.403 1_465 S
C1851 C1852 1.524 . S
C1851 C1855 1.400 . S
C1852 H1837 0.960 . S
C1852 H1838 0.960 1_565 S
C1852 H1839 0.960 1_455 S
C1852 C1851 1.524 . S
C1853 C1850 1.403 . S
C1853 C1854 1.376 1_645 S
C1853 C1857 1.495 . S
C1854 C1853 1.376 1_465 S
C1854 C1855 1.397 . S
C1854 C1856 1.485 . S
C1855 H1849 0.930 . S
C1855 C1851 1.400 . S
C1855 C1854 1.397 . S
C1856 C1854 1.485 . S
C1856 C1858 1.381 1_565 S
C1856 C1862 1.383 . S
C1857 C1853 1.495 . S
C1857 H1863 0.959 . S
C1857 H1864 0.961 . S
C1857 H1865 0.958 1_655 S
C1858 C1856 1.381 1_545 S
C1858 C1859 1.394 . S
C1858 H1866 0.930 . S
C1859 C1858 1.394 . S
C1859 C1860 1.383 1_545 S
C1859 H1867 0.929 . S
C1860 C1859 1.383 1_565 S
C1860 C1861 1.377 . S
C1861 H1845 0.930 . S
C1861 C1860 1.377 . S
C1861 C1862 1.379 . S
C1862 H1846 0.931 . S
C1862 C1856 1.383 . S
C1862 C1861 1.379 . S
H1863 C1857 0.959 . S
H1864 C1857 0.961 . S
H1865 C1857 0.958 1_455 S
H1866 C1858 0.930 . S
H1867 C1859 0.929 . S
H1868 C1876 0.929 . S
H1869 C1878 0.930 . S
H1870 C1880 0.930 . S
H1871 C1883 0.929 . S
H1872 C1886 0.930 . S
H1873 C1888 0.960 . S
H1874 C1888 0.960 . S
H1875 C1888 0.960 . S
C1876 H1868 0.929 . S
C1876 C1877 1.377 . S
C1876 C1878 1.384 . S
C1877 C1876 1.377 . S
C1877 C1883 1.390 . S
C1878 H1869 0.930 . S
C1878 C1876 1.384 . S
C1878 C1879 1.372 . S
C1879 C1878 1.372 . S
C1879 C1880 1.400 . S
C1879 C1884 1.490 . S
C1880 H1870 0.930 . S
C1880 C1879 1.400 . S
C1880 C1883 1.386 . S
H1881 C1897 0.930 . S
H1882 C1898 0.931 . S
C1883 H1871 0.929 . S
C1883 C1877 1.390 . S
C1883 C1880 1.386 . S
C1884 C1879 1.490 . S
C1884 C1886 1.395 1_565 S
C1884 C1887 1.403 . S
H1885 C1891 0.928 1_565 S
C1886 H1872 0.930 . S
C1886 C1884 1.395 1_545 S
C1886 C1889 1.403 . S
C1887 C1884 1.403 . S
C1887 C1888 1.524 . S
C1887 C1891 1.381 1_565 S
C1888 H1873 0.960 . S
C1888 H1874 0.960 . S
C1888 H1875 0.960 . S
C1888 C1887 1.524 . S
C1889 C1886 1.403 . S
C1889 C1890 1.392 . S
C1889 C1893 1.495 . S
C1890 C1889 1.392 . S
C1890 C1891 1.406 . S
C1890 C1892 1.478 . S
C1891 H1885 0.928 1_545 S
C1891 C1887 1.381 1_545 S
C1891 C1890 1.406 . S
C1892 C1890 1.478 . S
C1892 C1894 1.381 . S
C1892 C1898 1.383 . S
C1893 C1889 1.495 . S
C1893 H1899 0.959 . S
C1893 H1900 0.961 . S
C1893 H1901 0.960 . S
C1894 C1892 1.381 . S
C1894 C1895 1.394 . S
C1894 H1902 0.930 . S
C1895 C1894 1.394 . S
C1895 C1896 1.383 . S
C1895 H1903 0.929 . S
C1896 C1895 1.383 . S
C1896 C1897 1.377 . S
C1897 H1881 0.930 . S
C1897 C1896 1.377 . S
C1897 C1898 1.379 . S
C1898 H1882 0.931 . S
C1898 C1892 1.383 . S
C1898 C1897 1.379 . S
H1899 C1893 0.959 . S
H1900 C1893 0.961 . S
H1901 C1893 0.960 . S
H1902 C1894 0.930 . S
H1903 C1895 0.929 . S
H1904 C1912 0.929 . S
H1905 C1914 0.930 . S
H1906 C1916 0.930 . S
H1907 C1919 0.929 . S
H1908 C1922 0.930 . S
H1909 C1924 0.960 . S
H1910 C1924 0.960 . S
H1911 C1924 0.960 . S
C1912 H1904 0.929 . S
C1912 C1913 1.377 . S
C1912 C1914 1.384 . S
C1913 C1912 1.377 . S
C1913 C1919 1.390 . S
C1914 H1905 0.930 . S
C1914 C1912 1.384 . S
C1914 C1915 1.372 . S
C1915 C1914 1.372 . S
C1915 C1916 1.400 . S
C1915 C1920 1.490 . S
C1916 H1906 0.930 . S
C1916 C1915 1.400 . S
C1916 C1919 1.386 . S
H1917 C1933 0.930 . S
H1918 C1934 0.931 . S
C1919 H1907 0.929 . S
C1919 C1913 1.390 . S
C1919 C1916 1.386 . S
C1920 C1915 1.490 . S
C1920 C1922 1.395 . S
C1920 C1923 1.403 . S
H1921 C1927 0.930 . S
C1922 H1908 0.930 . S
C1922 C1920 1.395 . S
C1922 C1925 1.403 . S
C1923 C1920 1.403 . S
C1923 C1924 1.524 . S
C1923 C1927 1.400 . S
C1924 H1909 0.960 . S
C1924 H1910 0.960 . S
C1924 H1911 0.960 . S
C1924 C1923 1.524 . S
C1925 C1922 1.403 . S
C1925 C1926 1.392 . S
C1925 C1929 1.495 . S
C1926 C1925 1.392 . S
C1926 C1927 1.385 . S
C1926 C1928 1.478 . S
C1927 H1921 0.930 . S
C1927 C1923 1.400 . S
C1927 C1926 1.385 . S
C1928 C1926 1.478 . S
C1928 C1930 1.381 . S
C1928 C1934 1.383 . S
C1929 C1925 1.495 . S
C1929 H1935 0.959 . S
C1929 H1936 0.961 . S
C1929 H1937 0.960 . S
C1930 C1928 1.381 . S
C1930 C1931 1.394 . S
C1930 H1938 0.930 . S
C1931 C1930 1.394 . S
C1931 C1932 1.383 . S
C1931 H1939 0.929 . S
C1932 C1931 1.383 . S
C1932 C1933 1.377 . S
C1933 H1917 0.930 . S
C1933 C1932 1.377 . S
C1933 C1934 1.379 . S
C1934 H1918 0.931 . S
C1934 C1928 1.383 . S
C1934 C1933 1.379 . S
H1935 C1929 0.959 . S
H1936 C1929 0.961 . S
H1937 C1929 0.960 . S
H1938 C1930 0.930 . S
H1939 C1931 0.929 . S
H1940 C1948 0.929 . S
H1941 C1950 0.930 . S
H1942 C1952 0.930 . S
H1943 C1955 0.929 . S
H1944 C1958 0.930 . S
H1945 C1960 0.960 . S
H1946 C1960 0.960 . S
H1947 C1960 0.960 . S
C1948 H1940 0.929 . S
C1948 C1949 1.377 . S
C1948 C1950 1.384 . S
C1949 C1948 1.377 . S
C1949 C1955 1.390 . S
C1950 H1941 0.930 . S
C1950 C1948 1.384 . S
C1950 C1951 1.372 . S
C1951 C1950 1.372 . S
C1951 C1952 1.400 . S
C1951 C1956 1.490 . S
C1952 H1942 0.930 . S
C1952 C1951 1.400 . S
C1952 C1955 1.386 . S
H1953 C1969 0.930 . S
H1954 C1970 0.931 . S
C1955 H1943 0.929 . S
C1955 C1949 1.390 . S
C1955 C1952 1.386 . S
C1956 C1951 1.490 . S
C1956 C1958 1.395 . S
C1956 C1959 1.403 . S
H1957 C1963 0.930 . S
C1958 H1944 0.930 . S
C1958 C1956 1.395 . S
C1958 C1961 1.403 . S
C1959 C1956 1.403 . S
C1959 C1960 1.524 . S
C1959 C1963 1.400 . S
C1960 H1945 0.960 . S
C1960 H1946 0.960 . S
C1960 H1947 0.960 . S
C1960 C1959 1.524 . S
C1961 C1958 1.403 . S
C1961 C1962 1.392 . S
C1961 C1965 1.495 . S
C1962 C1961 1.392 . S
C1962 C1963 1.385 . S
C1962 C1964 1.478 . S
C1963 H1957 0.930 . S
C1963 C1959 1.400 . S
C1963 C1962 1.385 . S
C1964 C1962 1.478 . S
C1964 C1966 1.381 . S
C1964 C1970 1.383 . S
C1965 C1961 1.495 . S
C1965 H1971 0.959 . S
C1965 H1972 0.961 . S
C1965 H1973 0.960 . S
C1966 C1964 1.381 . S
C1966 C1967 1.394 . S
C1966 H1974 0.930 . S
C1967 C1966 1.394 . S
C1967 C1968 1.383 . S
C1967 H1975 0.929 . S
C1968 C1967 1.383 . S
C1968 C1969 1.377 . S
C1969 H1953 0.930 . S
C1969 C1968 1.377 . S
C1969 C1970 1.379 . S
C1970 H1954 0.931 . S
C1970 C1964 1.383 . S
C1970 C1969 1.379 . S
H1971 C1965 0.959 . S
H1972 C1965 0.961 . S
H1973 C1965 0.960 . S
H1974 C1966 0.930 . S
H1975 C1967 0.929 . S
H1976 C1984 0.929 . S
H1977 C1986 0.934 . S
H1978 C1988 0.930 . S
H1979 C1991 0.929 . S
H1980 C1994 0.930 . S
H1981 C1996 0.960 . S
H1982 C1996 0.960 . S
H1983 C1996 0.960 . S
C1984 H1976 0.929 . S
C1984 C1985 1.377 1_455 S
C1984 C1986 1.384 1_455 S
C1985 C1984 1.377 1_655 S
C1985 C1991 1.390 . S
C1986 H1977 0.934 . S
C1986 C1984 1.384 1_655 S
C1986 C1987 1.372 . S
C1987 C1986 1.372 . S
C1987 C1988 1.400 . S
C1987 C1992 1.490 . S
C1988 H1978 0.930 . S
C1988 C1987 1.400 . S
C1988 C1991 1.386 . S
H1989 C2005 0.930 . S
H1990 C2006 0.931 . S
C1991 H1979 0.929 . S
C1991 C1985 1.390 . S
C1991 C1988 1.386 . S
C1992 C1987 1.490 . S
C1992 C1994 1.395 . S
C1992 C1995 1.403 . S
H1993 C1999 0.930 . S
C1994 H1980 0.930 . S
C1994 C1992 1.395 . S
C1994 C1997 1.403 . S
C1995 C1992 1.403 . S
C1995 C1996 1.524 . S
C1995 C1999 1.400 . S
C1996 H1981 0.960 . S
C1996 H1982 0.960 . S
C1996 H1983 0.960 . S
C1996 C1995 1.524 . S
C1997 C1994 1.403 . S
C1997 C1998 1.392 . S
C1997 C2001 1.495 . S
C1998 C1997 1.392 . S
C1998 C1999 1.385 . S
C1998 C2000 1.478 . S
C1999 H1993 0.930 . S
C1999 C1995 1.400 . S
C1999 C1998 1.385 . S
C2000 C1998 1.478 . S
C2000 C2002 1.381 . S
C2000 C2006 1.383 . S
C2001 C1997 1.495 . S
C2001 H2007 0.959 . S
C2001 H2008 0.961 . S
C2001 H2009 0.960 . S
C2002 C2000 1.381 . S
C2002 C2003 1.394 . S
C2002 H2010 0.930 . S
C2003 C2002 1.394 . S
C2003 C2004 1.383 . S
C2003 H2011 0.929 . S
C2004 C2003 1.383 . S
C2004 C2005 1.377 . S
C2005 H1989 0.930 . S
C2005 C2004 1.377 . S
C2005 C2006 1.379 . S
C2006 H1990 0.931 . S
C2006 C2000 1.383 . S
C2006 C2005 1.379 . S
H2007 C2001 0.959 . S
H2008 C2001 0.961 . S
H2009 C2001 0.960 . S
H2010 C2002 0.930 . S
H2011 C2003 0.929 . S
H2012 C2020 0.916 1_545 S
H2013 C2022 0.930 . S
H2014 C2024 0.930 . S
H2015 C2027 0.929 . S
H2016 C2030 0.930 . S
H2017 C2032 0.960 . S
H2018 C2032 0.960 . S
H2019 C2032 0.960 . S
C2020 H2012 0.916 1_565 S
C2020 C2021 1.377 . S
C2020 C2022 1.384 . S
C2021 C2020 1.377 . S
C2021 C2027 1.390 . S
C2022 H2013 0.930 . S
C2022 C2020 1.384 . S
C2022 C2023 1.372 . S
C2023 C2022 1.372 . S
C2023 C2024 1.400 . S
C2023 C2028 1.490 . S
C2024 H2014 0.930 . S
C2024 C2023 1.400 . S
C2024 C2027 1.386 . S
H2025 C2041 0.930 . S
H2026 C2042 0.931 . S
C2027 H2015 0.929 . S
C2027 C2021 1.390 . S
C2027 C2024 1.386 . S
C2028 C2023 1.490 . S
C2028 C2030 1.395 . S
C2028 C2031 1.403 . S
H2029 C2035 0.930 . S
C2030 H2016 0.930 . S
C2030 C2028 1.395 . S
C2030 C2033 1.403 . S
C2031 C2028 1.403 . S
C2031 C2032 1.524 . S
C2031 C2035 1.400 . S
C2032 H2017 0.960 . S
C2032 H2018 0.960 . S
C2032 H2019 0.960 . S
C2032 C2031 1.524 . S
C2033 C2030 1.403 . S
C2033 C2034 1.392 . S
C2033 C2037 1.495 . S
C2034 C2033 1.392 . S
C2034 C2035 1.385 . S
C2034 C2036 1.478 . S
C2035 H2029 0.930 . S
C2035 C2031 1.400 . S
C2035 C2034 1.385 . S
C2036 C2034 1.478 . S
C2036 C2038 1.381 . S
C2036 C2042 1.383 . S
C2037 C2033 1.495 . S
C2037 H2043 0.959 . S
C2037 H2044 0.961 . S
C2037 H2045 0.960 . S
C2038 C2036 1.381 . S
C2038 C2039 1.394 . S
C2038 H2046 0.930 . S
C2039 C2038 1.394 . S
C2039 C2040 1.383 . S
C2039 H2047 0.929 . S
C2040 C2039 1.383 . S
C2040 C2041 1.377 . S
C2041 H2025 0.930 . S
C2041 C2040 1.377 . S
C2041 C2042 1.379 . S
C2042 H2026 0.931 . S
C2042 C2036 1.383 . S
C2042 C2041 1.379 . S
H2043 C2037 0.959 . S
H2044 C2037 0.961 . S
H2045 C2037 0.960 . S
H2046 C2038 0.930 . S
H2047 C2039 0.929 . S
H2048 C2056 0.929 . S
H2049 C2058 0.930 . S
H2050 C2060 0.930 . S
H2051 C2063 0.929 . S
H2052 C2066 0.930 . S
H2053 C2068 0.960 . S
H2054 C2068 0.960 . S
H2055 C2068 0.960 . S
C2056 H2048 0.929 . S
C2056 C2057 1.377 . S
C2056 C2058 1.384 . S
C2057 C2056 1.377 . S
C2057 C2063 1.390 . S
C2058 H2049 0.930 . S
C2058 C2056 1.384 . S
C2058 C2059 1.372 . S
C2059 C2058 1.372 . S
C2059 C2060 1.400 . S
C2059 C2064 1.490 . S
C2060 H2050 0.930 . S
C2060 C2059 1.400 . S
C2060 C2063 1.386 . S
H2061 C2077 0.930 . S
H2062 C2078 0.931 . S
C2063 H2051 0.929 . S
C2063 C2057 1.390 . S
C2063 C2060 1.386 . S
C2064 C2059 1.490 . S
C2064 C2066 1.395 . S
C2064 C2067 1.403 . S
H2065 C2071 0.930 . S
C2066 H2052 0.930 . S
C2066 C2064 1.395 . S
C2066 C2069 1.403 . S
C2067 C2064 1.403 . S
C2067 C2068 1.524 . S
C2067 C2071 1.400 . S
C2068 H2053 0.960 . S
C2068 H2054 0.960 . S
C2068 H2055 0.960 . S
C2068 C2067 1.524 . S
C2069 C2066 1.403 . S
C2069 C2070 1.392 . S
C2069 C2073 1.495 . S
C2070 C2069 1.392 . S
C2070 C2071 1.385 . S
C2070 C2072 1.478 . S
C2071 H2065 0.930 . S
C2071 C2067 1.400 . S
C2071 C2070 1.385 . S
C2072 C2070 1.478 . S
C2072 C2074 1.381 . S
C2072 C2078 1.383 . S
C2073 C2069 1.495 . S
C2073 H2079 0.959 . S
C2073 H2080 0.961 . S
C2073 H2081 0.960 . S
C2074 C2072 1.381 . S
C2074 C2075 1.394 . S
C2074 H2082 0.930 . S
C2075 C2074 1.394 . S
C2075 C2076 1.383 . S
C2075 H2083 0.929 . S
C2076 C2075 1.383 . S
C2076 C2077 1.377 . S
C2077 H2061 0.930 . S
C2077 C2076 1.377 . S
C2077 C2078 1.379 . S
C2078 H2062 0.931 . S
C2078 C2072 1.383 . S
C2078 C2077 1.379 . S
H2079 C2073 0.959 . S
H2080 C2073 0.961 . S
H2081 C2073 0.960 . S
H2082 C2074 0.930 . S
H2083 C2075 0.929 . S
H2084 C2092 0.929 . S
H2085 C2094 0.930 . S
H2086 C2096 0.930 . S
H2087 C2099 0.929 . S
H2088 C2102 0.930 . S
H2089 C2104 0.960 . S
H2090 C2104 0.960 . S
H2091 C2104 0.960 . S
C2092 H2084 0.929 . S
C2092 C2093 1.377 . S
C2092 C2094 1.384 . S
C2093 C2092 1.377 . S
C2093 C2099 1.390 . S
C2094 H2085 0.930 . S
C2094 C2092 1.384 . S
C2094 C2095 1.372 . S
C2095 C2094 1.372 . S
C2095 C2096 1.400 . S
C2095 C2100 1.490 . S
C2096 H2086 0.930 . S
C2096 C2095 1.400 . S
C2096 C2099 1.386 . S
H2097 C2113 0.930 . S
H2098 C2114 0.931 . S
C2099 H2087 0.929 . S
C2099 C2093 1.390 . S
C2099 C2096 1.386 . S
C2100 C2095 1.490 . S
C2100 C2102 1.395 . S
C2100 C2103 1.403 . S
H2101 C2107 0.930 . S
C2102 H2088 0.930 . S
C2102 C2100 1.395 . S
C2102 C2105 1.403 . S
C2103 C2100 1.403 . S
C2103 C2104 1.524 . S
C2103 C2107 1.400 . S
C2104 H2089 0.960 . S
C2104 H2090 0.960 . S
C2104 H2091 0.960 . S
C2104 C2103 1.524 . S
C2105 C2102 1.403 . S
C2105 C2106 1.392 . S
C2105 C2109 1.495 . S
C2106 C2105 1.392 . S
C2106 C2107 1.385 . S
C2106 C2108 1.478 . S
C2107 H2101 0.930 . S
C2107 C2103 1.400 . S
C2107 C2106 1.385 . S
C2108 C2106 1.478 . S
C2108 C2110 1.381 . S
C2108 C2114 1.383 . S
C2109 C2105 1.495 . S
C2109 H2115 0.959 . S
C2109 H2116 0.961 . S
C2109 H2117 0.960 . S
C2110 C2108 1.381 . S
C2110 C2111 1.394 . S
C2110 H2118 0.930 . S
C2111 C2110 1.394 . S
C2111 C2112 1.383 . S
C2111 H2119 0.929 . S
C2112 C2111 1.383 . S
C2112 C2113 1.377 . S
C2113 H2097 0.930 . S
C2113 C2112 1.377 . S
C2113 C2114 1.379 . S
C2114 H2098 0.931 . S
C2114 C2108 1.383 . S
C2114 C2113 1.379 . S
H2115 C2109 0.959 . S
H2116 C2109 0.961 . S
H2117 C2109 0.960 . S
H2118 C2110 0.930 . S
H2119 C2111 0.929 . S
H2120 C2128 0.929 . S
H2121 C2130 0.930 . S
H2122 C2132 0.930 . S
H2123 C2135 0.929 . S
H2124 C2138 0.930 . S
H2125 C2140 0.960 . S
H2126 C2140 0.960 . S
H2127 C2140 0.960 . S
C2128 H2120 0.929 . S
C2128 C2129 1.377 . S
C2128 C2130 1.384 . S
C2129 C2128 1.377 . S
C2129 C2135 1.390 . S
C2130 H2121 0.930 . S
C2130 C2128 1.384 . S
C2130 C2131 1.372 . S
C2131 C2130 1.372 . S
C2131 C2132 1.400 . S
C2131 C2136 1.490 . S
C2132 H2122 0.930 . S
C2132 C2131 1.400 . S
C2132 C2135 1.386 . S
H2133 C2149 0.906 1_455 S
H2134 C2150 0.931 . S
C2135 H2123 0.929 . S
C2135 C2129 1.390 . S
C2135 C2132 1.386 . S
C2136 C2131 1.490 . S
C2136 C2138 1.395 . S
C2136 C2139 1.403 . S
H2137 C2143 0.930 . S
C2138 H2124 0.930 . S
C2138 C2136 1.395 . S
C2138 C2141 1.403 . S
C2139 C2136 1.403 . S
C2139 C2140 1.524 . S
C2139 C2143 1.400 . S
C2140 H2125 0.960 . S
C2140 H2126 0.960 . S
C2140 H2127 0.960 . S
C2140 C2139 1.524 . S
C2141 C2138 1.403 . S
C2141 C2142 1.392 . S
C2141 C2145 1.495 . S
C2142 C2141 1.392 . S
C2142 C2143 1.385 . S
C2142 C2144 1.478 . S
C2143 H2137 0.930 . S
C2143 C2139 1.400 . S
C2143 C2142 1.385 . S
C2144 C2142 1.478 . S
C2144 C2146 1.381 . S
C2144 C2150 1.383 . S
C2145 C2141 1.495 . S
C2145 H2151 0.959 . S
C2145 H2152 0.961 . S
C2145 H2153 0.960 . S
C2146 C2144 1.381 . S
C2146 C2147 1.394 . S
C2146 H2154 0.930 . S
C2147 C2146 1.394 . S
C2147 C2148 1.383 . S
C2147 H2155 0.929 . S
C2148 C2147 1.383 . S
C2148 C2149 1.377 . S
C2149 H2133 0.906 1_655 S
C2149 C2148 1.377 . S
C2149 C2150 1.379 . S
C2150 H2134 0.931 . S
C2150 C2144 1.383 . S
C2150 C2149 1.379 . S
H2151 C2145 0.959 . S
H2152 C2145 0.961 . S
H2153 C2145 0.960 . S
H2154 C2146 0.930 . S
H2155 C2147 0.929 . S
H2156 C2164 0.929 . S
H2157 C2166 0.930 . S
H2158 C2168 0.930 . S
H2159 C2171 0.929 . S
H2160 C2174 0.930 . S
H2161 C2176 0.960 . S
H2162 C2176 0.960 . S
H2163 C2176 0.960 . S
C2164 H2156 0.929 . S
C2164 C2165 1.377 . S
C2164 C2166 1.384 . S
C2165 C2164 1.377 . S
C2165 C2171 1.390 . S
C2166 H2157 0.930 . S
C2166 C2164 1.384 . S
C2166 C2167 1.372 . S
C2167 C2166 1.372 . S
C2167 C2168 1.400 . S
C2167 C2172 1.490 . S
C2168 H2158 0.930 . S
C2168 C2167 1.400 . S
C2168 C2171 1.386 . S
H2169 C2185 0.947 . S
H2170 C2186 0.931 . S
C2171 H2159 0.929 . S
C2171 C2165 1.390 . S
C2171 C2168 1.386 . S
C2172 C2167 1.490 . S
C2172 C2174 1.395 . S
C2172 C2175 1.403 . S
H2173 C2179 0.930 . S
C2174 H2160 0.930 . S
C2174 C2172 1.395 . S
C2174 C2177 1.403 . S
C2175 C2172 1.403 . S
C2175 C2176 1.524 . S
C2175 C2179 1.400 . S
C2176 H2161 0.960 . S
C2176 H2162 0.960 . S
C2176 H2163 0.960 . S
C2176 C2175 1.524 . S
C2177 C2174 1.403 . S
C2177 C2178 1.392 . S
C2177 C2181 1.495 . S
C2178 C2177 1.392 . S
C2178 C2179 1.385 . S
C2178 C2180 1.478 . S
C2179 H2173 0.930 . S
C2179 C2175 1.400 . S
C2179 C2178 1.385 . S
C2180 C2178 1.478 . S
C2180 C2182 1.381 . S
C2180 C2186 1.383 . S
C2181 C2177 1.495 . S
C2181 H2187 0.959 . S
C2181 H2188 0.961 . S
C2181 H2189 0.960 . S
C2182 C2180 1.381 . S
C2182 C2183 1.394 . S
C2182 H2190 0.930 . S
C2183 C2182 1.394 . S
C2183 C2184 1.383 . S
C2183 H2191 0.929 . S
C2184 C2183 1.383 . S
C2184 C2185 1.377 . S
C2185 H2169 0.947 . S
C2185 C2184 1.377 . S
C2185 C2186 1.379 . S
C2186 H2170 0.931 . S
C2186 C2180 1.383 . S
C2186 C2185 1.379 . S
H2187 C2181 0.959 . S
H2188 C2181 0.961 . S
H2189 C2181 0.960 . S
H2190 C2182 0.930 . S
H2191 C2183 0.929 . S
H2192 C2200 0.929 . S
H2193 C2202 0.930 . S
H2194 C2204 0.930 . S
H2195 C2207 0.929 . S
H2196 C2210 0.930 . S
H2197 C2212 0.960 . S
H2198 C2212 0.960 . S
H2199 C2212 0.960 . S
C2200 H2192 0.929 . S
C2200 C2201 1.377 . S
C2200 C2202 1.384 . S
C2201 C2200 1.377 . S
C2201 C2207 1.390 . S
C2202 H2193 0.930 . S
C2202 C2200 1.384 . S
C2202 C2203 1.372 . S
C2203 C2202 1.372 . S
C2203 C2204 1.400 . S
C2203 C2208 1.490 . S
C2204 H2194 0.930 . S
C2204 C2203 1.400 . S
C2204 C2207 1.386 . S
H2205 C2221 0.930 . S
H2206 C2222 0.931 . S
C2207 H2195 0.929 . S
C2207 C2201 1.390 . S
C2207 C2204 1.386 . S
C2208 C2203 1.490 . S
C2208 C2210 1.395 . S
C2208 C2211 1.403 . S
H2209 C2215 0.930 . S
C2210 H2196 0.930 . S
C2210 C2208 1.395 . S
C2210 C2213 1.403 . S
C2211 C2208 1.403 . S
C2211 C2212 1.524 . S
C2211 C2215 1.400 . S
C2212 H2197 0.960 . S
C2212 H2198 0.960 . S
C2212 H2199 0.960 . S
C2212 C2211 1.524 . S
C2213 C2210 1.403 . S
C2213 C2214 1.392 . S
C2213 C2217 1.495 . S
C2214 C2213 1.392 . S
C2214 C2215 1.385 . S
C2214 C2216 1.478 . S
C2215 H2209 0.930 . S
C2215 C2211 1.400 . S
C2215 C2214 1.385 . S
C2216 C2214 1.478 . S
C2216 C2218 1.381 . S
C2216 C2222 1.383 . S
C2217 C2213 1.495 . S
C2217 H2223 0.959 . S
C2217 H2224 0.961 . S
C2217 H2225 0.960 . S
C2218 C2216 1.381 . S
C2218 C2219 1.394 . S
C2218 H2226 0.930 . S
C2219 C2218 1.394 . S
C2219 C2220 1.383 . S
C2219 H2227 0.929 . S
C2220 C2219 1.383 . S
C2220 C2221 1.377 . S
C2221 H2205 0.930 . S
C2221 C2220 1.377 . S
C2221 C2222 1.379 . S
C2222 H2206 0.931 . S
C2222 C2216 1.383 . S
C2222 C2221 1.379 . S
H2223 C2217 0.959 . S
H2224 C2217 0.961 . S
H2225 C2217 0.960 . S
H2226 C2218 0.930 . S
H2227 C2219 0.929 . S
H2228 C2236 0.929 . S
H2229 C2238 0.930 . S
H2230 C2240 0.930 . S
H2231 C2243 0.929 . S
H2232 C2246 0.930 . S
H2233 C2248 0.960 . S
H2234 C2248 0.960 . S
H2235 C2248 0.960 . S
C2236 H2228 0.929 . S
C2236 C2237 1.377 . S
C2236 C2238 1.384 . S
C2237 C2236 1.377 . S
C2237 C2243 1.390 . S
C2238 H2229 0.930 . S
C2238 C2236 1.384 . S
C2238 C2239 1.372 . S
C2239 C2238 1.372 . S
C2239 C2240 1.400 . S
C2239 C2244 1.490 . S
C2240 H2230 0.930 . S
C2240 C2239 1.400 . S
C2240 C2243 1.386 . S
H2241 C2257 0.930 . S
H2242 C2258 0.931 . S
C2243 H2231 0.929 . S
C2243 C2237 1.390 . S
C2243 C2240 1.386 . S
C2244 C2239 1.490 . S
C2244 C2246 1.395 . S
C2244 C2247 1.403 . S
H2245 C2251 0.930 . S
C2246 H2232 0.930 . S
C2246 C2244 1.395 . S
C2246 C2249 1.403 . S
C2247 C2244 1.403 . S
C2247 C2248 1.524 . S
C2247 C2251 1.400 . S
C2248 H2233 0.960 . S
C2248 H2234 0.960 . S
C2248 H2235 0.960 . S
C2248 C2247 1.524 . S
C2249 C2246 1.403 . S
C2249 C2250 1.392 . S
C2249 C2253 1.495 . S
C2250 C2249 1.392 . S
C2250 C2251 1.385 . S
C2250 C2252 1.478 . S
C2251 H2245 0.930 . S
C2251 C2247 1.400 . S
C2251 C2250 1.385 . S
C2252 C2250 1.478 . S
C2252 C2254 1.381 . S
C2252 C2258 1.383 . S
C2253 C2249 1.495 . S
C2253 H2259 0.959 . S
C2253 H2260 0.961 . S
C2253 H2261 0.960 . S
C2254 C2252 1.381 . S
C2254 C2255 1.394 . S
C2254 H2262 0.930 . S
C2255 C2254 1.394 . S
C2255 C2256 1.383 . S
C2255 H2263 0.929 . S
C2256 C2255 1.383 . S
C2256 C2257 1.377 . S
C2257 H2241 0.930 . S
C2257 C2256 1.377 . S
C2257 C2258 1.379 . S
C2258 H2242 0.931 . S
C2258 C2252 1.383 . S
C2258 C2257 1.379 . S
H2259 C2253 0.959 . S
H2260 C2253 0.961 . S
H2261 C2253 0.960 . S
H2262 C2254 0.930 . S
H2263 C2255 0.929 . S
H2264 C2272 0.929 . S
H2265 C2274 0.930 . S
H2266 C2276 0.930 . S
H2267 C2279 0.929 . S
H2268 C2282 0.930 . S
H2269 C2284 0.960 . S
H2270 C2284 0.960 . S
H2271 C2284 0.960 . S
C2272 H2264 0.929 . S
C2272 C2273 1.377 . S
C2272 C2274 1.384 . S
C2273 C2272 1.377 . S
C2273 C2279 1.390 . S
C2274 H2265 0.930 . S
C2274 C2272 1.384 . S
C2274 C2275 1.372 . S
C2275 C2274 1.372 . S
C2275 C2276 1.400 . S
C2275 C2280 1.490 . S
C2276 H2266 0.930 . S
C2276 C2275 1.400 . S
C2276 C2279 1.386 . S
H2277 C2293 0.930 . S
H2278 C2294 0.931 . S
C2279 H2267 0.929 . S
C2279 C2273 1.390 . S
C2279 C2276 1.386 . S
C2280 C2275 1.490 . S
C2280 C2282 1.395 . S
C2280 C2283 1.403 . S
H2281 C2287 0.930 . S
C2282 H2268 0.930 . S
C2282 C2280 1.395 . S
C2282 C2285 1.403 . S
C2283 C2280 1.403 . S
C2283 C2284 1.524 . S
C2283 C2287 1.400 . S
C2284 H2269 0.960 . S
C2284 H2270 0.960 . S
C2284 H2271 0.960 . S
C2284 C2283 1.524 . S
C2285 C2282 1.403 . S
C2285 C2286 1.392 . S
C2285 C2289 1.495 . S
C2286 C2285 1.392 . S
C2286 C2287 1.385 . S
C2286 C2288 1.478 . S
C2287 H2281 0.930 . S
C2287 C2283 1.400 . S
C2287 C2286 1.385 . S
C2288 C2286 1.478 . S
C2288 C2290 1.381 . S
C2288 C2294 1.383 . S
C2289 C2285 1.495 . S
C2289 H2295 0.959 . S
C2289 H2296 0.961 . S
C2289 H2297 0.960 1_455 S
C2290 C2288 1.381 . S
C2290 C2291 1.394 1_455 S
C2290 H2298 0.943 . S
C2291 C2290 1.394 1_655 S
C2291 C2292 1.383 1_655 S
C2291 H2299 0.929 . S
C2292 C2291 1.383 1_455 S
C2292 C2293 1.377 . S
C2293 H2277 0.930 . S
C2293 C2292 1.377 . S
C2293 C2294 1.379 . S
C2294 H2278 0.931 . S
C2294 C2288 1.383 . S
C2294 C2293 1.379 . S
H2295 C2289 0.959 . S
H2296 C2289 0.961 . S
H2297 C2289 0.960 1_655 S
H2298 C2290 0.943 . S
H2299 C2291 0.929 . S
H2300 C2308 0.929 1_565 S
H2301 C2310 0.930 . S
H2302 C2312 0.930 . S
H2303 C2315 0.929 . S
H2304 C2318 0.930 . S
H2305 C2320 0.960 . S
H2306 C2320 0.960 . S
H2307 C2320 0.960 . S
C2308 H2300 0.929 1_545 S
C2308 C2309 1.377 . S
C2308 C2310 1.384 . S
C2309 C2308 1.377 . S
C2309 C2315 1.390 . S
C2310 H2301 0.930 . S
C2310 C2308 1.384 . S
C2310 C2311 1.372 . S
C2311 C2310 1.372 . S
C2311 C2312 1.400 . S
C2311 C2316 1.490 . S
C2312 H2302 0.930 . S
C2312 C2311 1.400 . S
C2312 C2315 1.386 . S
H2313 C2329 0.930 . S
H2314 C2330 0.931 . S
C2315 H2303 0.929 . S
C2315 C2309 1.390 . S
C2315 C2312 1.386 . S
C2316 C2311 1.490 . S
C2316 C2318 1.395 . S
C2316 C2319 1.403 . S
H2317 C2323 0.930 . S
C2318 H2304 0.930 . S
C2318 C2316 1.395 . S
C2318 C2321 1.403 . S
C2319 C2316 1.403 . S
C2319 C2320 1.524 . S
C2319 C2323 1.400 . S
C2320 H2305 0.960 . S
C2320 H2306 0.960 . S
C2320 H2307 0.960 . S
C2320 C2319 1.524 . S
C2321 C2318 1.403 . S
C2321 C2322 1.392 . S
C2321 C2325 1.495 . S
C2322 C2321 1.392 . S
C2322 C2323 1.385 . S
C2322 C2324 1.478 . S
C2323 H2317 0.930 . S
C2323 C2319 1.400 . S
C2323 C2322 1.385 . S
C2324 C2322 1.478 . S
C2324 C2326 1.381 . S
C2324 C2330 1.383 . S
C2325 C2321 1.495 . S
C2325 H2331 0.959 . S
C2325 H2332 0.961 . S
C2325 H2333 0.960 . S
C2326 C2324 1.381 . S
C2326 C2327 1.394 . S
C2326 H2334 0.930 . S
C2327 C2326 1.394 . S
C2327 C2328 1.383 . S
C2327 H2335 0.929 . S
C2328 C2327 1.383 . S
C2328 C2329 1.377 . S
C2329 H2313 0.930 . S
C2329 C2328 1.377 . S
C2329 C2330 1.379 . S
C2330 H2314 0.931 . S
C2330 C2324 1.383 . S
C2330 C2329 1.379 . S
H2331 C2325 0.959 . S
H2332 C2325 0.961 . S
H2333 C2325 0.960 . S
H2334 C2326 0.930 . S
H2335 C2327 0.929 . S
H2336 C2344 0.929 . S
H2337 C2346 0.930 . S
H2338 C2348 0.930 . S
H2339 C2351 0.929 . S
H2340 C2354 0.930 . S
H2341 C2356 0.960 . S
H2342 C2356 0.960 . S
H2343 C2356 0.960 . S
C2344 H2336 0.929 . S
C2344 C2345 1.377 . S
C2344 C2346 1.384 . S
C2345 C2344 1.377 . S
C2345 C2351 1.390 . S
C2346 H2337 0.930 . S
C2346 C2344 1.384 . S
C2346 C2347 1.372 . S
C2347 C2346 1.372 . S
C2347 C2348 1.400 . S
C2347 C2352 1.490 . S
C2348 H2338 0.930 . S
C2348 C2347 1.400 . S
C2348 C2351 1.386 . S
H2349 C2365 0.930 . S
H2350 C2366 0.931 . S
C2351 H2339 0.929 . S
C2351 C2345 1.390 . S
C2351 C2348 1.386 . S
C2352 C2347 1.490 . S
C2352 C2354 1.395 . S
C2352 C2355 1.403 . S
H2353 C2359 0.930 . S
C2354 H2340 0.930 . S
C2354 C2352 1.395 . S
C2354 C2357 1.403 . S
C2355 C2352 1.403 . S
C2355 C2356 1.524 . S
C2355 C2359 1.400 . S
C2356 H2341 0.960 . S
C2356 H2342 0.960 . S
C2356 H2343 0.960 . S
C2356 C2355 1.524 . S
C2357 C2354 1.403 . S
C2357 C2358 1.392 . S
C2357 C2361 1.495 . S
C2358 C2357 1.392 . S
C2358 C2359 1.385 . S
C2358 C2360 1.478 . S
C2359 H2353 0.930 . S
C2359 C2355 1.400 . S
C2359 C2358 1.385 . S
C2360 C2358 1.478 . S
C2360 C2362 1.381 . S
C2360 C2366 1.383 . S
C2361 C2357 1.495 . S
C2361 H2367 0.959 . S
C2361 H2368 0.961 . S
C2361 H2369 0.960 . S
C2362 C2360 1.381 . S
C2362 C2363 1.394 . S
C2362 H2370 0.930 . S
C2363 C2362 1.394 . S
C2363 C2364 1.383 . S
C2363 H2371 0.929 . S
C2364 C2363 1.383 . S
C2364 C2365 1.377 . S
C2365 H2349 0.930 . S
C2365 C2364 1.377 . S
C2365 C2366 1.379 . S
C2366 H2350 0.931 . S
C2366 C2360 1.383 . S
C2366 C2365 1.379 . S
H2367 C2361 0.959 . S
H2368 C2361 0.961 . S
H2369 C2361 0.960 . S
H2370 C2362 0.930 . S
H2371 C2363 0.929 . S
H2372 C2380 0.929 . S
H2373 C2382 0.930 . S
H2374 C2384 0.930 . S
H2375 C2387 0.929 . S
H2376 C2390 0.930 . S
H2377 C2392 0.960 . S
H2378 C2392 0.960 . S
H2379 C2392 0.960 . S
C2380 H2372 0.929 . S
C2380 C2381 1.377 . S
C2380 C2382 1.384 . S
C2381 C2380 1.377 . S
C2381 C2387 1.390 . S
C2382 H2373 0.930 . S
C2382 C2380 1.384 . S
C2382 C2383 1.372 . S
C2383 C2382 1.372 . S
C2383 C2384 1.400 . S
C2383 C2388 1.490 . S
C2384 H2374 0.930 . S
C2384 C2383 1.400 . S
C2384 C2387 1.386 . S
H2385 C2401 0.930 . S
H2386 C2402 0.931 . S
C2387 H2375 0.929 . S
C2387 C2381 1.390 . S
C2387 C2384 1.386 . S
C2388 C2383 1.490 . S
C2388 C2390 1.395 . S
C2388 C2391 1.403 . S
H2389 C2395 0.930 . S
C2390 H2376 0.930 . S
C2390 C2388 1.395 . S
C2390 C2393 1.403 . S
C2391 C2388 1.403 . S
C2391 C2392 1.524 . S
C2391 C2395 1.400 . S
C2392 H2377 0.960 . S
C2392 H2378 0.960 . S
C2392 H2379 0.960 . S
C2392 C2391 1.524 . S
C2393 C2390 1.403 . S
C2393 C2394 1.392 . S
C2393 C2397 1.495 . S
C2394 C2393 1.392 . S
C2394 C2395 1.385 . S
C2394 C2396 1.478 . S
C2395 H2389 0.930 . S
C2395 C2391 1.400 . S
C2395 C2394 1.385 . S
C2396 C2394 1.478 . S
C2396 C2398 1.381 . S
C2396 C2402 1.383 . S
C2397 C2393 1.495 . S
C2397 H2403 0.959 . S
C2397 H2404 0.961 . S
C2397 H2405 0.960 . S
C2398 C2396 1.381 . S
C2398 C2399 1.394 . S
C2398 H2406 0.930 . S
C2399 C2398 1.394 . S
C2399 C2400 1.383 . S
C2399 H2407 0.929 . S
C2400 C2399 1.383 . S
C2400 C2401 1.377 . S
C2401 H2385 0.930 . S
C2401 C2400 1.377 . S
C2401 C2402 1.379 . S
C2402 H2386 0.931 . S
C2402 C2396 1.383 . S
C2402 C2401 1.379 . S
H2403 C2397 0.959 . S
H2404 C2397 0.961 . S
H2405 C2397 0.960 . S
H2406 C2398 0.930 . S
H2407 C2399 0.929 . S
H2408 C2416 0.929 . S
H2409 C2418 0.930 . S
H2410 C2420 0.930 . S
H2411 C2423 0.929 . S
H2412 C2426 0.930 . S
H2413 C2428 0.960 . S
H2414 C2428 0.960 . S
H2415 C2428 0.930 1_655 S
C2416 H2408 0.929 . S
C2416 C2417 1.377 . S
C2416 C2418 1.384 . S
C2417 C2416 1.377 . S
C2417 C2423 1.390 1_455 S
C2418 H2409 0.930 . S
C2418 C2416 1.384 . S
C2418 C2419 1.372 . S
C2419 C2418 1.372 . S
C2419 C2420 1.400 . S
C2419 C2424 1.490 . S
C2420 H2410 0.930 . S
C2420 C2419 1.400 . S
C2420 C2423 1.386 1_455 S
H2421 C2437 0.930 . S
H2422 C2438 0.931 . S
C2423 H2411 0.929 . S
C2423 C2417 1.390 1_655 S
C2423 C2420 1.386 1_655 S
C2424 C2419 1.490 . S
C2424 C2426 1.395 . S
C2424 C2427 1.403 . S
H2425 C2431 0.930 . S
C2426 H2412 0.930 . S
C2426 C2424 1.395 . S
C2426 C2429 1.403 . S
C2427 C2424 1.403 . S
C2427 C2428 1.524 . S
C2427 C2431 1.400 . S
C2428 H2413 0.960 . S
C2428 H2414 0.960 . S
C2428 H2415 0.930 1_455 S
C2428 C2427 1.524 . S
C2429 C2426 1.403 . S
C2429 C2430 1.392 . S
C2429 C2433 1.495 . S
C2430 C2429 1.392 . S
C2430 C2431 1.385 . S
C2430 C2432 1.478 . S
C2431 H2425 0.930 . S
C2431 C2427 1.400 . S
C2431 C2430 1.385 . S
C2432 C2430 1.478 . S
C2432 C2434 1.381 . S
C2432 C2438 1.383 . S
C2433 C2429 1.495 . S
C2433 H2439 0.959 . S
C2433 H2440 0.961 . S
C2433 H2441 0.960 . S
C2434 C2432 1.381 . S
C2434 C2435 1.394 . S
C2434 H2442 0.930 . S
C2435 C2434 1.394 . S
C2435 C2436 1.383 . S
C2435 H2443 0.929 . S
C2436 C2435 1.383 . S
C2436 C2437 1.377 . S
C2437 H2421 0.930 . S
C2437 C2436 1.377 . S
C2437 C2438 1.379 . S
C2438 H2422 0.931 . S
C2438 C2432 1.383 . S
C2438 C2437 1.379 . S
H2439 C2433 0.959 . S
H2440 C2433 0.961 . S
H2441 C2433 0.960 . S
H2442 C2434 0.930 . S
H2443 C2435 0.929 . S
H2444 C2452 0.929 . S
H2445 C2454 0.930 . S
H2446 C2456 0.930 . S
H2447 C2459 0.929 . S
H2448 C2462 0.930 . S
H2449 C2464 0.960 . S
H2450 C2464 0.960 . S
H2451 C2464 0.937 1_565 S
C2452 H2444 0.929 . S
C2452 C2453 1.377 . S
C2452 C2454 1.384 . S
C2453 C2452 1.377 . S
C2453 C2459 1.390 1_545 S
C2454 H2445 0.930 . S
C2454 C2452 1.384 . S
C2454 C2455 1.372 . S
C2455 C2454 1.372 . S
C2455 C2456 1.400 . S
C2455 C2460 1.490 . S
C2456 H2446 0.930 . S
C2456 C2455 1.400 . S
C2456 C2459 1.386 1_545 S
H2457 C2473 0.930 . S
H2458 C2474 0.931 . S
C2459 H2447 0.929 . S
C2459 C2453 1.390 1_565 S
C2459 C2456 1.386 1_565 S
C2460 C2455 1.490 . S
C2460 C2462 1.395 . S
C2460 C2463 1.403 . S
H2461 C2467 0.930 . S
C2462 H2448 0.930 . S
C2462 C2460 1.395 . S
C2462 C2465 1.403 . S
C2463 C2460 1.403 . S
C2463 C2464 1.524 . S
C2463 C2467 1.400 . S
C2464 H2449 0.960 . S
C2464 H2450 0.960 . S
C2464 H2451 0.937 1_545 S
C2464 C2463 1.524 . S
C2465 C2462 1.403 . S
C2465 C2466 1.392 . S
C2465 C2469 1.495 . S
C2466 C2465 1.392 . S
C2466 C2467 1.385 . S
C2466 C2468 1.478 . S
C2467 H2461 0.930 . S
C2467 C2463 1.400 . S
C2467 C2466 1.385 . S
C2468 C2466 1.478 . S
C2468 C2470 1.381 . S
C2468 C2474 1.383 . S
C2469 C2465 1.495 . S
C2469 H2475 0.959 . S
C2469 H2476 0.961 . S
C2469 H2477 0.960 . S
C2470 C2468 1.381 . S
C2470 C2471 1.394 . S
C2470 H2478 0.930 . S
C2471 C2470 1.394 . S
C2471 C2472 1.383 . S
C2471 H2479 0.929 . S
C2472 C2471 1.383 . S
C2472 C2473 1.377 . S
C2473 H2457 0.930 . S
C2473 C2472 1.377 . S
C2473 C2474 1.379 . S
C2474 H2458 0.931 . S
C2474 C2468 1.383 . S
C2474 C2473 1.379 . S
H2475 C2469 0.959 . S
H2476 C2469 0.961 . S
H2477 C2469 0.960 . S
H2478 C2470 0.930 . S
H2479 C2471 0.929 . S
C473 C79 1.215 . S
C492 C21 1.227 . S
C509 C108 1.230 . S
C528 C50 1.274 . S
C545 C137 1.216 . S
C564 C195 1.167 . S
C581 C166 1.230 . S
C600 C224 1.274 . S
C617 C253 1.225 . S
C636 C311 1.273 . S
C653 C282 1.223 . S
C672 C340 1.270 . S
C689 C427 1.232 . S
C708 C369 1.211 . S
C725 C456 1.229 . S
C744 C398 1.273 . S
C761 C3 0.764 . S
C780 C266 0.689 . S
C797 C295 0.772 . S
C816 C32 0.756 . S
C833 C61 0.763 . S
C852 C324 0.793 . S
C869 C237 0.773 . S
C888 C90 0.779 . S
C905 C119 0.769 . S
C924 C440 0.796 . S
C941 C148 0.764 . S
C960 C353 0.821 . S
C977 C177 0.768 . S
C996 C382 0.716 . S
C1013 C206 0.762 . S
C1032 C411 0.719 . S
C1049 C235 0.764 . S
C1068 C34 0.812 . S
C1085 C63 0.746 . S
C1104 C264 0.782 . S
C1121 C293 0.762 . S
C1140 C92 0.820 . S
C1157 C5 0.767 . S
C1176 C322 0.753 . S
C1193 C351 0.766 . S
C1212 C208 0.733 . S
C1229 C121 0.751 . S
C1248 C380 0.772 . S
C1265 C409 0.765 . S
C1284 C150 0.740 . S
C1301 C179 0.774 . S
C1320 C438 0.748 . S
C1337 C184 1.343 . S
C1356 C10 1.315 . S
C1373 C39 1.340 . S
C1392 C213 1.345 . S
C1409 C68 1.335 . S
C1428 C126 1.300 . S
C1445 C97 1.339 . S
C1464 C155 1.342 . S
C1481 C416 1.349 . S
C1500 C242 1.304 . S
C1517 C271 1.336 . S
C1536 C445 1.364 . S
C1553 C358 1.335 . S
C1572 C300 1.376 . S
C1589 C387 1.344 . S
C1608 C329 1.360 . S
C1625 C245 2.295 . S
C1644 C13 2.290 . S
C1661 C274 2.292 . S
C1680 C42 2.272 . S
C1697 C303 2.292 . S
C1716 C71 2.270 . S
C1733 C332 2.286 . S
C1752 C100 2.283 . S
C1769 C361 2.287 . S
C1788 C129 2.291 . S
C1805 C158 2.287 . S
C1824 C390 2.264 . S
C1841 C187 2.295 . S
C1860 C419 2.289 . S
C1877 C216 2.286 . S
C1896 C448 2.265 . S
C1913 C37 2.018 . S
C1932 C15 2.159 . S
C1949 C66 2.016 . S
C1968 C44 2.163 . S
C1985 C95 2.013 1_655 S
C2004 C73 2.170 . S
C2021 C8 2.015 1_565 S
C2040 C102 2.190 . S
C2057 C131 2.179 . S
C2076 C211 2.030 . S
C2093 C160 2.177 . S
C2112 C124 1.990 . S
C2129 C189 2.175 . S
C2148 C153 2.038 1_655 S
C2165 C218 2.175 . S
C2184 C182 2.037 1_565 S
C2201 C247 2.178 . S
C2220 C269 2.039 . S
C2237 C276 2.177 . S
C2256 C298 1.993 . S
C2273 C305 2.175 . S
C2292 C327 2.004 1_455 S
C2309 C240 2.024 1_545 S
C2328 C334 2.161 . S
C2345 C443 2.017 . S
C2364 C363 2.159 . S
C2381 C392 2.176 . S
C2400 C356 1.995 . S
C2417 C385 2.013 1_455 S
C2436 C421 2.189 . S
C2453 C414 2.013 1_545 S
C2472 C450 2.189 . S
