# Generated by pormake.
# Topology whc, (6)-cn, num edge types: 1
# Building blocks:
#     Node 0, Type 0, BuildingBlock: IZENUY_clean_sbu_0, # of connection points: 6
#     Node 1, Type 0, BuildingBlock: IZENUY_clean_sbu_0, # of connection points: 6
#     Node 2, Type 0, BuildingBlock: IZENUY_clean_sbu_0, # of connection points: 6
#     Node 3, Type 0, BuildingBlock: IZENUY_clean_sbu_0, # of connection points: 6
#     Node 4, Type 0, BuildingBlock: IZENUY_clean_sbu_0, # of connection points: 6
#     Node 5, Type 0, BuildingBlock: IZENUY_clean_sbu_0, # of connection points: 6
#     Node 6, Type 0, BuildingBlock: IZENUY_clean_sbu_0, # of connection points: 6
#     Node 7, Type 0, BuildingBlock: IZENUY_clean_sbu_0, # of connection points: 6
#     Edge 8, Type (0, 0), BuildingBlock: CIFDUS_clean_linker_0, # of connection points: 2
#     Edge 9, Type (0, 0), BuildingBlock: CIFDUS_clean_linker_0, # of connection points: 2
#     Edge 10, Type (0, 0), BuildingBlock: CIFDUS_clean_linker_0, # of connection points: 2
#     Edge 11, Type (0, 0), BuildingBlock: CIFDUS_clean_linker_0, # of connection points: 2
#     Edge 12, Type (0, 0), BuildingBlock: CIFDUS_clean_linker_0, # of connection points: 2
#     Edge 13, Type (0, 0), BuildingBlock: CIFDUS_clean_linker_0, # of connection points: 2
#     Edge 14, Type (0, 0), BuildingBlock: CIFDUS_clean_linker_0, # of connection points: 2
#     Edge 15, Type (0, 0), BuildingBlock: CIFDUS_clean_linker_0, # of connection points: 2
#     Edge 16, Type (0, 0), BuildingBlock: CIFDUS_clean_linker_0, # of connection points: 2
#     Edge 17, Type (0, 0), BuildingBlock: CIFDUS_clean_linker_0, # of connection points: 2
#     Edge 18, Type (0, 0), BuildingBlock: CIFDUS_clean_linker_0, # of connection points: 2
#     Edge 19, Type (0, 0), BuildingBlock: CIFDUS_clean_linker_0, # of connection points: 2
#     Edge 20, Type (0, 0), BuildingBlock: CIFDUS_clean_linker_0, # of connection points: 2
#     Edge 21, Type (0, 0), BuildingBlock: CIFDUS_clean_linker_0, # of connection points: 2
#     Edge 22, Type (0, 0), BuildingBlock: CIFDUS_clean_linker_0, # of connection points: 2
#     Edge 23, Type (0, 0), BuildingBlock: CIFDUS_clean_linker_0, # of connection points: 2
#     Edge 24, Type (0, 0), BuildingBlock: CIFDUS_clean_linker_0, # of connection points: 2
#     Edge 25, Type (0, 0), BuildingBlock: CIFDUS_clean_linker_0, # of connection points: 2
#     Edge 26, Type (0, 0), BuildingBlock: CIFDUS_clean_linker_0, # of connection points: 2
#     Edge 27, Type (0, 0), BuildingBlock: CIFDUS_clean_linker_0, # of connection points: 2
#     Edge 28, Type (0, 0), BuildingBlock: CIFDUS_clean_linker_0, # of connection points: 2
#     Edge 29, Type (0, 0), BuildingBlock: CIFDUS_clean_linker_0, # of connection points: 2
#     Edge 30, Type (0, 0), BuildingBlock: CIFDUS_clean_linker_0, # of connection points: 2
#     Edge 31, Type (0, 0), BuildingBlock: CIFDUS_clean_linker_0, # of connection points: 2
# Relax obj value: 0.364
# Max RMSD: 0.283
# Mean RMSD: 0.283
data_MOF--net-whc--node1-IZENUY_clean_sbu_0--edge1-CIFDUS_clean_linker_0
_symmetry_space_group_name_H-M    P1
_symmetry_Int_Tables_number       1
_symmetry_cell_setting            triclinic
loop_
_symmetry_equiv_pos_as_xyz
'x, y, z'
_cell_length_a     30.985938
_cell_length_b     30.869117
_cell_length_c     25.937496
_cell_angle_alpha  89.958146
_cell_angle_beta   90.034575
_cell_angle_gamma 89.958662
loop_
_atom_site_label
_atom_site_type_symbol
_atom_site_fract_x
_atom_site_fract_y
_atom_site_fract_z
_atom_type_partial_charge
Fe0 Fe 0.5146 0.20251 0.11114 0.0
Fe1 Fe 0.41647 0.19947 0.09001 0.0
O2 O 0.46271 0.22663 0.11429 0.0
Fe3 Fe 0.45672 0.27873 0.14209 0.0
O4 O 0.51096 0.29862 0.12598 0.0
O5 O 0.53696 0.24769 0.07643 0.0
O6 O 0.50557 0.17782 0.04734 0.0
C7 C 0.47654 0.18496 0.01378 0.0
C8 C 0.50798 0.23625 0.21184 0.0
O9 O 0.43933 0.19744 0.02639 0.0
C10 C 0.38157 0.2357 0.17556 0.0
O11 O 0.49743 0.15482 0.14509 0.0
O12 O 0.43604 0.1441 0.10491 0.0
O13 O 0.47405 0.25788 0.20382 0.0
O14 O 0.53154 0.2236 0.17465 0.0
C15 C 0.40536 0.28703 0.05775 0.0
O16 O 0.38966 0.20047 0.1528 0.0
O17 O 0.40143 0.26996 0.16377 0.0
C18 C 0.46748 0.13005 0.13153 0.0
O19 O 0.3896 0.25004 0.06877 0.0
O20 O 0.43826 0.30105 0.08129 0.0
C21 C 0.53659 0.28629 0.09118 0.0
Fe22 Fe 0.19671 0.58358 0.91914 0.0
Fe23 Fe 0.20468 0.48936 0.8831 0.0
O24 O 0.22488 0.54293 0.88474 0.0
Fe25 Fe 0.27365 0.55479 0.85264 0.0
O26 O 0.29165 0.59542 0.89919 0.0
O27 O 0.24304 0.59373 0.96086 0.0
O28 O 0.17765 0.54609 0.96922 0.0
C29 C 0.19555 0.51137 0.98443 0.0
C30 C 0.23039 0.62915 0.83122 0.0
O31 O 0.21123 0.48486 0.95233 0.0
C32 C 0.22793 0.50227 0.78322 0.0
O33 O 0.14754 0.57541 0.88035 0.0
O34 O 0.14828 0.50478 0.88971 0.0
O35 O 0.24758 0.59549 0.81282 0.0
O36 O 0.21317 0.62829 0.8757 0.0
C37 C 0.29316 0.47584 0.8945 0.0
O38 O 0.19753 0.49278 0.81362 0.0
O39 O 0.26371 0.51613 0.80029 0.0
C40 C 0.12842 0.53905 0.87779 0.0
O41 O 0.25746 0.46296 0.87672 0.0
O42 O 0.30298 0.51534 0.8914 0.0
C43 C 0.28076 0.60224 0.94547 0.0
Fe44 Fe 0.59215 0.8133 0.08854 0.0
Fe45 Fe 0.5479 0.7344 0.13734 0.0
O46 O 0.54491 0.78775 0.11231 0.0
Fe47 Fe 0.49445 0.81465 0.11064 0.0
O48 O 0.50462 0.84219 0.04872 0.0
O49 O 0.56874 0.81854 0.02559 0.0
O50 O 0.61603 0.76237 0.06446 0.0
C51 C 0.59869 0.72639 0.05237 0.0
C52 C 0.54477 0.88355 0.13445 0.0
O53 O 0.56514 0.71324 0.07537 0.0
C54 C 0.49896 0.7763 0.20919 0.0
O55 O 0.62004 0.8083 0.15027 0.0
O56 O 0.60383 0.73944 0.15897 0.0
O57 O 0.51426 0.85938 0.14795 0.0
O58 O 0.57526 0.86905 0.10654 0.0
C59 C 0.4688 0.73334 0.08447 0.0
O60 O 0.53202 0.75378 0.20005 0.0
O61 O 0.47604 0.79128 0.17258 0.0
C62 C 0.62727 0.7716 0.17017 0.0
O63 O 0.49214 0.71837 0.12027 0.0
O64 O 0.47089 0.77246 0.07223 0.0
C65 C 0.5323 0.83364 0.01415 0.0
Fe66 Fe 0.80314 0.52127 0.88869 0.0
Fe67 Fe 0.73384 0.45747 0.85469 0.0
O68 O 0.78263 0.46775 0.88773 0.0
Fe69 Fe 0.81107 0.42586 0.92002 0.0
O70 O 0.82873 0.46166 0.9731 0.0
O71 O 0.79541 0.52355 0.95779 0.0
O72 O 0.7508 0.54843 0.88165 0.0
C73 C 0.71457 0.53569 0.8978 0.0
C74 C 0.87934 0.47245 0.88194 0.0
O75 O 0.70466 0.49635 0.89404 0.0
C76 C 0.77671 0.38322 0.83035 0.0
O77 O 0.81143 0.51971 0.81936 0.0
O78 O 0.74528 0.49704 0.80328 0.0
O79 O 0.86034 0.43605 0.88215 0.0
O80 O 0.8594 0.50583 0.89648 0.0
C81 C 0.72707 0.40603 0.94511 0.0
O82 O 0.7592 0.41734 0.8138 0.0
O83 O 0.79532 0.38272 0.87404 0.0
C84 C 0.78158 0.51105 0.7878 0.0
O85 O 0.71468 0.41635 0.90025 0.0
O86 O 0.76514 0.41278 0.96022 0.0
C87 C 0.81049 0.49606 0.98927 0.0
Fe88 Fe 0.53518 0.27515 0.64439 0.0
Fe89 Fe 0.58516 0.20405 0.5873 0.0
O90 O 0.53619 0.22387 0.61395 0.0
Fe91 Fe 0.48828 0.19306 0.6104 0.0
O92 O 0.4597 0.23532 0.57793 0.0
O93 O 0.47794 0.2876 0.63024 0.0
O94 O 0.54902 0.30174 0.58446 0.0
C95 C 0.58318 0.29334 0.55981 0.0
C96 C 0.49111 0.22452 0.71248 0.0
O97 O 0.60423 0.2586 0.56856 0.0
C98 C 0.5438 0.12691 0.62522 0.0
O99 O 0.59193 0.27339 0.66456 0.0
O100 O 0.61317 0.20681 0.64936 0.0
O101 O 0.46921 0.20971 0.67498 0.0
O102 O 0.52215 0.25015 0.70512 0.0
C103 C 0.52644 0.18469 0.51131 0.0
O104 O 0.57307 0.14554 0.59891 0.0
O105 O 0.51279 0.14822 0.64264 0.0
C106 C 0.61795 0.2425 0.67275 0.0
O107 O 0.56173 0.20157 0.52414 0.0
O108 O 0.49956 0.17178 0.54503 0.0
C109 C 0.45335 0.27235 0.59578 0.0
Fe110 Fe 0.19829 0.42035 0.41199 0.0
Fe111 Fe 0.2746 0.46738 0.36276 0.0
O112 O 0.22137 0.4686 0.38707 0.0
Fe113 Fe 0.1917 0.51743 0.38645 0.0
O114 O 0.16579 0.50718 0.44997 0.0
O115 O 0.19357 0.44444 0.47415 0.0
O116 O 0.25058 0.39852 0.43522 0.0
C117 C 0.28424 0.4192 0.44897 0.0
C118 C 0.12588 0.46312 0.36624 0.0
O119 O 0.29534 0.45311 0.42543 0.0
C120 C 0.23123 0.51248 0.28838 0.0
O121 O 0.20302 0.39315 0.35001 0.0
O122 O 0.27162 0.4104 0.34214 0.0
O123 O 0.14906 0.49325 0.35006 0.0
O124 O 0.14154 0.43454 0.39603 0.0
C125 C 0.27068 0.54994 0.40976 0.0
O126 O 0.25569 0.48126 0.2996 0.0
O127 O 0.21326 0.53508 0.32333 0.0
C128 C 0.23935 0.38771 0.32895 0.0
O129 O 0.28794 0.52409 0.37811 0.0
O130 O 0.23195 0.54594 0.42241 0.0
C131 C 0.17708 0.4805 0.48494 0.0
Fe132 Fe 0.42173 0.80425 0.58855 0.0
Fe133 Fe 0.51959 0.80591 0.61227 0.0
O134 O 0.46826 0.78113 0.6177 0.0
Fe135 Fe 0.46364 0.73173 0.65227 0.0
O136 O 0.44864 0.70351 0.59406 0.0
O137 O 0.39851 0.75094 0.57178 0.0
O138 O 0.44604 0.80284 0.52562 0.0
C139 C 0.48307 0.81504 0.51225 0.0
C140 C 0.38399 0.77256 0.67532 0.0
O141 O 0.51166 0.82461 0.54539 0.0
C142 C 0.51157 0.7817 0.71688 0.0
O143 O 0.43876 0.86143 0.59861 0.0
O144 O 0.50096 0.85589 0.6391 0.0
O145 O 0.40724 0.73934 0.67005 0.0
O146 O 0.39205 0.80638 0.64954 0.0
C147 C 0.54413 0.72166 0.60486 0.0
O148 O 0.53561 0.79117 0.67872 0.0
O149 O 0.47805 0.75902 0.71111 0.0
C150 C 0.4703 0.87849 0.62266 0.0
O151 O 0.543 0.75825 0.58414 0.0
O152 O 0.51913 0.7127 0.64163 0.0
C153 C 0.41691 0.71428 0.56625 0.0
Fe154 Fe 0.81284 0.59129 0.41172 0.0
Fe155 Fe 0.73243 0.54713 0.36775 0.0
O156 O 0.7863 0.54358 0.39033 0.0
Fe157 Fe 0.81293 0.49284 0.39195 0.0
O158 O 0.83988 0.50338 0.45474 0.0
O159 O 0.81804 0.56926 0.47509 0.0
O160 O 0.76313 0.61674 0.43546 0.0
C161 C 0.72813 0.59989 0.4511 0.0
C162 C 0.88178 0.54253 0.3671 0.0
O163 O 0.71382 0.56563 0.43051 0.0
C164 C 0.77233 0.49747 0.2941 0.0
O165 O 0.80741 0.61735 0.34887 0.0
O166 O 0.73809 0.60288 0.34429 0.0
O167 O 0.85726 0.51229 0.35438 0.0
O168 O 0.86801 0.57359 0.39439 0.0
C169 C 0.73238 0.46543 0.41763 0.0
O170 O 0.74916 0.52988 0.30471 0.0
O171 O 0.78981 0.47488 0.32958 0.0
C172 C 0.77044 0.625 0.33019 0.0
O173 O 0.71586 0.49179 0.38601 0.0
O174 O 0.77132 0.46816 0.42969 0.0
C175 C 0.83127 0.53235 0.48811 0.0
H176 H 0.2818 0.31505 0.35502 0.0
H177 H 0.21729 0.37827 0.22856 0.0
H178 H 0.24918 0.3265 0.1679 0.0
H179 H 0.30723 0.27414 0.15035 0.0
H180 H 0.37449 0.21345 0.27639 0.0
H181 H 0.32877 0.25195 0.33826 0.0
C182 C 0.27351 0.31621 0.31437 0.0
C183 C 0.24733 0.35001 0.29588 0.0
C184 C 0.29265 0.28688 0.27989 0.0
C185 C 0.23705 0.35207 0.24334 0.0
C186 C 0.25555 0.32271 0.20876 0.0
C187 C 0.31018 0.2677 0.19136 0.0
C188 C 0.34382 0.24096 0.20908 0.0
C189 C 0.28495 0.29133 0.2264 0.0
C190 C 0.34837 0.23346 0.2621 0.0
C191 C 0.32267 0.25603 0.29739 0.0
H192 H 0.22991 0.65756 0.73146 0.0
H193 H 0.2695 0.69295 0.88504 0.0
H194 H 0.3169 0.74886 0.85026 0.0
H195 H 0.35785 0.77673 0.77522 0.0
H196 H 0.31528 0.74456 0.62198 0.0
H197 H 0.25757 0.69961 0.6572 0.0
C198 C 0.24753 0.6788 0.75727 0.0
C199 C 0.24627 0.67101 0.81067 0.0
C200 C 0.27453 0.71138 0.73696 0.0
C201 C 0.26953 0.69854 0.84378 0.0
C202 C 0.29707 0.73031 0.82387 0.0
C203 C 0.33439 0.76184 0.74973 0.0
C204 C 0.34049 0.7643 0.69612 0.0
C205 C 0.3013 0.73569 0.77041 0.0
C206 C 0.31065 0.74384 0.66338 0.0
C207 C 0.27804 0.7175 0.68354 0.0
H208 H 0.77601 0.65077 0.23016 0.0
H209 H 0.73849 0.69296 0.3818 0.0
H210 H 0.69515 0.75122 0.34484 0.0
H211 H 0.65511 0.7784 0.26911 0.0
H212 H 0.69293 0.73664 0.11741 0.0
H213 H 0.74957 0.69108 0.15407 0.0
C214 C 0.76013 0.67417 0.25493 0.0
C215 C 0.76044 0.66785 0.30846 0.0
C216 C 0.73465 0.70734 0.23325 0.0
C217 C 0.73896 0.69764 0.3404 0.0
C218 C 0.71375 0.73068 0.31927 0.0
C219 C 0.67733 0.76112 0.24417 0.0
C220 C 0.67018 0.76093 0.19081 0.0
C221 C 0.70947 0.73434 0.26568 0.0
C222 C 0.69837 0.7376 0.15868 0.0
C223 C 0.73041 0.71108 0.17966 0.0
H224 H 0.77137 0.36186 0.72879 0.0
H225 H 0.74333 0.31414 0.88123 0.0
H226 H 0.69462 0.25979 0.84519 0.0
H227 H 0.64945 0.23575 0.77116 0.0
H228 H 0.68037 0.28172 0.61881 0.0
H229 H 0.73877 0.32591 0.65345 0.0
C230 C 0.756 0.33833 0.75386 0.0
C231 C 0.76098 0.34209 0.80755 0.0
C232 C 0.72792 0.30709 0.73281 0.0
C233 C 0.74054 0.31163 0.8397 0.0
C234 C 0.71214 0.28083 0.81911 0.0
C235 C 0.67031 0.25392 0.74549 0.0
C236 C 0.66084 0.25529 0.69248 0.0
C237 C 0.70406 0.27954 0.76586 0.0
C238 C 0.68744 0.27975 0.65965 0.0
C239 C 0.7206 0.30542 0.67952 0.0
H240 H 0.54759 0.21438 0.79021 0.0
H241 H 0.41214 0.20485 0.75362 0.0
H242 H 0.39609 0.1871 0.84379 0.0
H243 H 0.42038 0.17968 0.93363 0.0
H244 H 0.55631 0.18765 0.96924 0.0
H245 H 0.57257 0.19958 0.87821 0.0
C246 C 0.51453 0.20841 0.80206 0.0
C247 C 0.48089 0.2118 0.76584 0.0
C248 C 0.50579 0.19758 0.85345 0.0
C249 C 0.4384 0.20282 0.7811 0.0
C250 C 0.4293 0.19266 0.83252 0.0
C251 C 0.45365 0.18332 0.92138 0.0
C252 C 0.48708 0.18311 0.95825 0.0
C253 C 0.4627 0.19062 0.86912 0.0
C254 C 0.53002 0.18747 0.9417 0.0
C255 C 0.5393 0.19473 0.88972 0.0
H256 H 0.17535 0.56603 0.06312 0.0
H257 H 0.22881 0.4395 0.03113 0.0
H258 H 0.24543 0.42988 0.12226 0.0
H259 H 0.24695 0.45792 0.20967 0.0
H260 H 0.19306 0.58375 0.24359 0.0
H261 H 0.17488 0.59337 0.15226 0.0
C262 C 0.19011 0.53609 0.07612 0.0
C263 C 0.20063 0.50344 0.04029 0.0
C264 C 0.20013 0.53097 0.12853 0.0
C265 C 0.22013 0.46504 0.05781 0.0
C266 C 0.22992 0.45962 0.10987 0.0
C267 C 0.23154 0.48772 0.19725 0.0
C268 C 0.22189 0.52038 0.23331 0.0
C269 C 0.22059 0.49259 0.1453 0.0
C270 C 0.20116 0.55832 0.21652 0.0
C271 C 0.19061 0.56371 0.16441 0.0
H272 H 0.58672 0.8363 0.93262 0.0
H273 H 0.45145 0.83241 0.97212 0.0
H274 H 0.4332 0.81694 0.88233 0.0
H275 H 0.45635 0.79719 0.79498 0.0
H276 H 0.5915 0.80123 0.75522 0.0
H277 H 0.60929 0.82368 0.84326 0.0
C278 C 0.55315 0.83295 0.9214 0.0
C279 C 0.52048 0.83527 0.95903 0.0
C280 C 0.54302 0.82321 0.87005 0.0
C281 C 0.47716 0.83114 0.94388 0.0
C282 C 0.46676 0.82174 0.89267 0.0
C283 C 0.48973 0.80295 0.80564 0.0
C284 C 0.52274 0.79667 0.76916 0.0
C285 C 0.49954 0.81635 0.85589 0.0
C286 C 0.56566 0.8054 0.7829 0.0
C287 C 0.57578 0.81831 0.83311 0.0
H288 H 0.75966 0.55192 0.21426 0.0
H289 H 0.80708 0.42387 0.25 0.0
H290 H 0.82524 0.41274 0.15883 0.0
H291 H 0.82683 0.43972 0.06874 0.0
H292 H 0.78029 0.5689 0.03609 0.0
H293 H 0.76318 0.57932 0.1267 0.0
C294 C 0.77355 0.52126 0.20229 0.0
C295 C 0.78135 0.48848 0.23893 0.0
C296 C 0.7846 0.51553 0.15041 0.0
C297 C 0.80032 0.44947 0.22258 0.0
C298 C 0.81088 0.44321 0.1705 0.0
C299 C 0.81348 0.47035 0.08156 0.0
C300 C 0.80507 0.50352 0.04542 0.0
C301 C 0.80326 0.47612 0.13405 0.0
C302 C 0.78732 0.54283 0.06281 0.0
C303 C 0.77726 0.54879 0.11467 0.0
H304 H 0.45247 0.22216 0.29021 0.0
H305 H 0.58805 0.22124 0.25286 0.0
H306 H 0.60537 0.20051 0.34174 0.0
H307 H 0.58197 0.18648 0.43068 0.0
H308 H 0.44614 0.1852 0.46738 0.0
H309 H 0.4287 0.20167 0.3774 0.0
C310 C 0.48582 0.21759 0.30163 0.0
C311 C 0.51904 0.22412 0.26541 0.0
C312 C 0.49534 0.20464 0.35228 0.0
C313 C 0.56202 0.21692 0.28024 0.0
C314 C 0.57186 0.20491 0.33093 0.0
C315 C 0.54848 0.18905 0.41883 0.0
C316 C 0.51537 0.18473 0.45575 0.0
C317 C 0.53879 0.19905 0.36732 0.0
C318 C 0.47219 0.18791 0.43972 0.0
C319 C 0.46224 0.19788 0.38841 0.0
H320 H 0.2452 0.47345 0.5452 0.0
H321 H 0.11208 0.51372 0.54663 0.0
H322 H 0.11535 0.52215 0.6412 0.0
H323 H 0.15648 0.51481 0.72359 0.0
H324 H 0.29018 0.47565 0.71796 0.0
H325 H 0.28612 0.46894 0.62451 0.0
C326 C 0.21692 0.48442 0.56625 0.0
C327 C 0.17841 0.49282 0.53959 0.0
C328 C 0.21908 0.48852 0.61968 0.0
C329 C 0.1421 0.50744 0.5667 0.0
C330 C 0.14394 0.51175 0.6206 0.0
C331 C 0.18442 0.50434 0.70171 0.0
C332 C 0.22344 0.49512 0.72742 0.0
C333 C 0.18215 0.50162 0.64758 0.0
C334 C 0.25982 0.48261 0.6989 0.0
C335 C 0.25759 0.47898 0.64556 0.0
H336 H 0.55489 0.78441 0.28822 0.0
H337 H 0.41932 0.79198 0.25135 0.0
H338 H 0.40277 0.80783 0.34187 0.0
H339 H 0.42685 0.8163 0.43174 0.0
H340 H 0.56287 0.81131 0.46754 0.0
H341 H 0.57937 0.79855 0.37665 0.0
C342 C 0.52166 0.78933 0.30006 0.0
C343 C 0.48821 0.78616 0.26346 0.0
C344 C 0.5126 0.79933 0.3517 0.0
C345 C 0.4455 0.79381 0.27897 0.0
C346 C 0.4361 0.80295 0.33062 0.0
C347 C 0.46018 0.81296 0.41961 0.0
C348 C 0.49359 0.8146 0.45651 0.0
C349 C 0.46939 0.80544 0.36735 0.0
C350 C 0.53657 0.81051 0.44 0.0
C351 C 0.54599 0.8028 0.38809 0.0
H352 H 0.84706 0.48508 0.72538 0.0
H353 H 0.72751 0.55669 0.7271 0.0
H354 H 0.73331 0.56938 0.63436 0.0
H355 H 0.77108 0.55917 0.55352 0.0
H356 H 0.88767 0.4831 0.54714 0.0
H357 H 0.88417 0.47217 0.64128 0.0
C358 C 0.8227 0.50385 0.70524 0.0
C359 C 0.78724 0.52066 0.73272 0.0
C360 C 0.82551 0.50963 0.65145 0.0
C361 C 0.75515 0.54391 0.70652 0.0
C362 C 0.75841 0.55099 0.65365 0.0
C363 C 0.79598 0.54034 0.5727 0.0
C364 C 0.83001 0.5225 0.5438 0.0
C365 C 0.79325 0.53384 0.62586 0.0
C366 C 0.86131 0.49722 0.56879 0.0
C367 C 0.85934 0.49121 0.62248 0.0
H368 H 0.27873 0.39022 0.9117 0.0
H369 H 0.37245 0.49128 0.93788 0.0
H370 H 0.41638 0.44127 0.98891 0.0
H371 H 0.42617 0.36994 0.02993 0.0
H372 H 0.33117 0.26979 0.00472 0.0
H373 H 0.28994 0.31846 0.94943 0.0
C374 C 0.30901 0.4013 0.92801 0.0
C375 C 0.32221 0.44454 0.9208 0.0
C376 C 0.33377 0.3726 0.95791 0.0
C377 C 0.36149 0.4582 0.94257 0.0
C378 C 0.38657 0.42964 0.97198 0.0
C379 C 0.39654 0.35864 0.01221 0.0
C380 C 0.3817 0.31624 0.02199 0.0
C381 C 0.3727 0.38694 0.98054 0.0
C382 C 0.34333 0.30223 0.99829 0.0
C383 C 0.31967 0.33007 0.96657 0.0
H384 H 0.35332 0.64434 0.91759 0.0
H385 H 0.27933 0.60734 0.05143 0.0
H386 H 0.33336 0.64124 0.10763 0.0
H387 H 0.40125 0.68373 0.11808 0.0
H388 H 0.47127 0.72307 0.98233 0.0
H389 H 0.41963 0.68524 0.92747 0.0
C390 C 0.34896 0.64341 0.95908 0.0
C391 C 0.31234 0.62331 0.98026 0.0
C392 C 0.37977 0.6631 0.99082 0.0
C393 C 0.30711 0.62288 0.03412 0.0
C394 C 0.33811 0.64206 0.06625 0.0
C395 C 0.40538 0.68312 0.07657 0.0
C396 C 0.44015 0.70539 0.05403 0.0
C397 C 0.37459 0.6624 0.04501 0.0
C398 C 0.44487 0.7056 1.00025 0.0
C399 C 0.41529 0.68424 0.96892 0.0
H400 H 0.57895 0.64244 0.02784 0.0
H401 H 0.67095 0.74419 0.99643 0.0
H402 H 0.713 0.69493 0.94311 0.0
H403 H 0.72633 0.62222 0.90974 0.0
H404 H 0.63586 0.51945 0.94207 0.0
H405 H 0.59047 0.57002 0.99024 0.0
C406 C 0.60801 0.65397 0.00902 0.0
C407 C 0.62189 0.69695 0.01667 0.0
C408 C 0.63244 0.62528 0.97862 0.0
C409 C 0.65957 0.71126 0.99169 0.0
C410 C 0.68373 0.68309 0.96112 0.0
C411 C 0.69646 0.61086 0.9268 0.0
C412 C 0.68464 0.56703 0.92228 0.0
C413 C 0.67085 0.6399 0.95499 0.0
C414 C 0.64577 0.55302 0.94478 0.0
C415 C 0.61985 0.5819 0.97254 0.0
H416 H 0.64467 0.42573 0.96995 0.0
H417 H 0.74442 0.3304 0.99356 0.0
H418 H 0.69423 0.28504 0.04254 0.0
H419 H 0.62093 0.27098 0.0745 0.0
H420 H 0.52243 0.36856 0.05755 0.0
H421 H 0.57316 0.41512 0.01055 0.0
C422 C 0.65526 0.39515 0.98628 0.0
C423 C 0.69778 0.38097 0.97809 0.0
C424 C 0.62656 0.36989 0.01547 0.0
C425 C 0.71172 0.34174 0.99971 0.0
C426 C 0.68307 0.31583 0.02747 0.0
C427 C 0.61086 0.30268 0.06094 0.0
C428 C 0.56821 0.31645 0.06895 0.0
C429 C 0.64031 0.32936 0.03502 0.0
C430 C 0.55532 0.35761 0.05188 0.0
C431 C 0.58418 0.38401 0.02481 0.0
H432 H 0.66406 0.29489 0.52055 0.0
H433 H 0.54589 0.36884 0.52601 0.0
H434 H 0.5804 0.42777 0.4783 0.0
H435 H 0.64621 0.4604 0.44014 0.0
H436 H 0.7645 0.38647 0.44026 0.0
H437 H 0.72785 0.32558 0.48039 0.0
C438 C 0.64563 0.3237 0.51102 0.0
C439 C 0.6026 0.32754 0.52724 0.0
C440 C 0.66583 0.35769 0.48468 0.0
C441 C 0.57926 0.36517 0.51436 0.0
C442 C 0.59895 0.39891 0.48707 0.0
C443 C 0.66363 0.4307 0.44841 0.0
C444 C 0.70796 0.428 0.43755 0.0
C445 C 0.64251 0.39587 0.47278 0.0
C446 C 0.7304 0.3895 0.44876 0.0
C447 C 0.7095 0.35459 0.47165 0.0
H448 H 0.44254 0.35952 0.58411 0.0
H449 H 0.37767 0.23677 0.56664 0.0
H450 H 0.31701 0.27226 0.52451 0.0
H451 H 0.28596 0.3365 0.48423 0.0
H452 H 0.35171 0.45921 0.49698 0.0
H453 H 0.40794 0.42567 0.54962 0.0
C454 C 0.41467 0.34087 0.57198 0.0
C455 C 0.41464 0.29571 0.57803 0.0
C456 C 0.38021 0.36136 0.54637 0.0
C457 C 0.37856 0.27164 0.56184 0.0
C458 C 0.34385 0.29184 0.53771 0.0
C459 C 0.31223 0.35605 0.49914 0.0
C460 C 0.31499 0.40004 0.48607 0.0
C461 C 0.34489 0.33645 0.52841 0.0
C462 C 0.34921 0.425 0.50586 0.0
C463 C 0.38139 0.40589 0.53601 0.0
H464 H 0.33751 0.71611 0.52269 0.0
H465 H 0.45339 0.63884 0.53259 0.0
H466 H 0.41984 0.58251 0.47998 0.0
H467 H 0.35546 0.55297 0.43629 0.0
H468 H 0.23882 0.62925 0.43161 0.0
H469 H 0.27493 0.68838 0.47644 0.0
C470 C 0.35561 0.68715 0.51297 0.0
C471 C 0.39767 0.68151 0.53185 0.0
C472 C 0.33595 0.65466 0.4836 0.0
C473 C 0.42068 0.64373 0.51896 0.0
C474 C 0.4016 0.61155 0.48878 0.0
C475 C 0.33838 0.58289 0.44436 0.0
C476 C 0.29472 0.58691 0.43083 0.0
C477 C 0.35898 0.61634 0.47157 0.0
C478 C 0.2725 0.62548 0.442 0.0
C479 C 0.29305 0.65925 0.46766 0.0
H480 H 0.6533 0.57487 0.49906 0.0
H481 H 0.74164 0.68241 0.48315 0.0
H482 H 0.69388 0.72812 0.53323 0.0
H483 H 0.6246 0.73996 0.57476 0.0
H484 H 0.53568 0.63396 0.59391 0.0
H485 H 0.58634 0.58502 0.55007 0.0
C486 C 0.66218 0.60819 0.50695 0.0
C487 C 0.7006 0.62533 0.4864 0.0
C488 C 0.63453 0.6346 0.53631 0.0
C489 C 0.71207 0.66837 0.49782 0.0
C490 C 0.68478 0.69469 0.52652 0.0
C491 C 0.61661 0.70597 0.56991 0.0
C492 C 0.5766 0.69046 0.58689 0.0
C493 C 0.64559 0.67846 0.54486 0.0
C494 C 0.56658 0.64638 0.58117 0.0
C495 C 0.59534 0.61859 0.55581 0.0
H496 H 0.54394 0.08807 0.13973 0.0
H497 H 0.40644 0.06589 0.13783 0.0
H498 H 0.41896 0.9876 0.14389 0.0
H499 H 0.46881 0.92594 0.14443 0.0
H500 H 0.60625 0.9477 0.13717 0.0
H501 H 0.59392 0.0262 0.14037 0.0
C502 C 0.5166 0.06618 0.14139 0.0
C503 C 0.47416 0.08284 0.13889 0.0
C504 C 0.52414 0.02132 0.14302 0.0
C505 C 0.43927 0.05394 0.13989 0.0
C506 C 0.44649 0.00923 0.1433 0.0
C507 C 0.49624 0.94775 0.1444 0.0
C508 C 0.53857 0.9309 0.14123 0.0
C509 C 0.48877 0.99261 0.14422 0.0
C510 C 0.5735 0.95977 0.13993 0.0
C511 C 0.56639 1.0046 0.14161 0.0
H512 H 0.92477 0.54735 0.87378 0.0
H513 H 0.94061 0.40839 0.86848 0.0
H514 H 0.01898 0.41776 0.86173 0.0
H515 H 0.0826 0.465 0.86417 0.0
H516 H 0.06689 0.60383 0.87348 0.0
H517 H 0.98829 0.59478 0.87121 0.0
C518 C 0.94518 0.51891 0.8709 0.0
C519 C 0.92658 0.47701 0.8723 0.0
C520 C 0.99013 0.52459 0.86789 0.0
C521 C 0.9538 0.44086 0.86774 0.0
C522 C 0.99865 0.44628 0.86404 0.0
C523 C 0.06215 0.49351 0.86539 0.0
C524 C 0.08091 0.5352 0.86961 0.0
C525 C 0.01713 0.48795 0.86514 0.0
C526 C 0.0536 0.57149 0.87036 0.0
C527 C 0.00863 0.56624 0.86932 0.0
H528 H 0.54608 0.92193 0.62384 0.0
H529 H 0.4082 0.9422 0.62461 0.0
H530 H 0.41981 0.02081 0.62746 0.0
H531 H 0.46882 0.08284 0.62878 0.0
H532 H 0.60666 0.06336 0.6215 0.0
H533 H 0.59532 0.98449 0.62208 0.0
C534 C 0.51844 0.94349 0.62511 0.0
C535 C 0.47614 0.92618 0.62485 0.0
C536 C 0.52545 0.98844 0.62544 0.0
C537 C 0.44088 0.95463 0.62511 0.0
C538 C 0.4476 0.99949 0.62674 0.0
C539 C 0.49662 0.06148 0.62786 0.0
C540 C 0.53877 0.07904 0.62607 0.0
C541 C 0.48971 0.01661 0.62691 0.0
C542 C 0.57409 0.05074 0.62334 0.0
C543 C 0.56751 0.00575 0.62366 0.0
H544 H 0.92253 0.46542 0.36457 0.0
H545 H 0.94584 0.60311 0.35625 0.0
H546 H 0.02372 0.58944 0.35052 0.0
H547 H 0.08424 0.53888 0.35264 0.0
H548 H 0.06164 0.40165 0.37024 0.0
H549 H 0.98345 0.41465 0.36734 0.0
C550 C 0.94458 0.49251 0.36071 0.0
C551 C 0.92852 0.53533 0.36008 0.0
C552 C 0.98905 0.4844 0.35939 0.0
C553 C 0.95749 0.57001 0.35648 0.0
C554 C 1.00187 0.56214 0.35329 0.0
C555 C 0.06234 0.51156 0.35508 0.0
C556 C 0.07872 0.46912 0.36095 0.0
C557 C 0.01789 0.51952 0.35531 0.0
C558 C 0.04981 0.43442 0.36538 0.0
C559 C 0.00524 0.44194 0.36382 0.0
loop_
_geom_bond_atom_site_label_1
_geom_bond_atom_site_label_2
_geom_bond_distance
_geom_bond_site_symmetry_2
_ccdc_geom_bond_type
Fe0 O2 1.918 . S
Fe0 O5 1.997 . S
Fe0 O6 2.002 1_554 S
Fe0 O11 1.976 . S
Fe0 O14 1.996 . S
Fe1 O2 1.918 . S
Fe1 O9 1.997 1_554 S
Fe1 O12 1.996 . S
Fe1 O16 1.976 . S
Fe1 O19 2.002 . S
O2 Fe0 1.918 . S
O2 Fe1 1.918 . S
O2 Fe3 1.918 . S
Fe3 O2 1.918 . S
Fe3 O4 2.002 . S
Fe3 O13 1.976 . S
Fe3 O17 1.996 . S
Fe3 O20 1.997 . S
O4 Fe3 2.002 . S
O4 C21 1.295 . S
O5 Fe0 1.997 . S
O5 C21 1.235 . S
O6 Fe0 2.002 1_556 S
O6 C7 1.295 . S
C7 O6 1.295 . S
C7 O9 1.235 . S
C8 O13 1.287 . S
C8 O14 1.255 . S
O9 Fe1 1.997 1_556 S
O9 C7 1.235 . S
C10 O16 1.287 . S
C10 O17 1.255 . S
O11 Fe0 1.976 . S
O11 C18 1.287 . S
O12 Fe1 1.996 . S
O12 C18 1.255 . S
O13 Fe3 1.976 . S
O13 C8 1.287 . S
O14 Fe0 1.996 . S
O14 C8 1.255 . S
C15 O19 1.295 . S
C15 O20 1.235 . S
O16 Fe1 1.976 . S
O16 C10 1.287 . S
O17 Fe3 1.996 . S
O17 C10 1.255 . S
C18 O11 1.287 . S
C18 O12 1.255 . S
O19 Fe1 2.002 . S
O19 C15 1.295 . S
O20 Fe3 1.997 . S
O20 C15 1.235 . S
C21 O4 1.295 . S
C21 O5 1.235 . S
Fe22 O24 1.918 . S
Fe22 O27 1.997 . S
Fe22 O28 2.002 1_556 S
Fe22 O33 1.976 . S
Fe22 O36 1.996 . S
Fe23 O24 1.918 . S
Fe23 O31 1.997 1_556 S
Fe23 O34 1.996 . S
Fe23 O38 1.976 . S
Fe23 O41 2.002 . S
O24 Fe22 1.918 . S
O24 Fe23 1.918 . S
O24 Fe25 1.918 . S
Fe25 O24 1.918 . S
Fe25 O26 2.002 . S
Fe25 O35 1.976 . S
Fe25 O39 1.996 . S
Fe25 O42 1.997 . S
O26 Fe25 2.002 . S
O26 C43 1.295 . S
O27 Fe22 1.997 . S
O27 C43 1.235 . S
O28 Fe22 2.002 1_554 S
O28 C29 1.295 . S
C29 O28 1.295 . S
C29 O31 1.235 . S
C30 O35 1.287 . S
C30 O36 1.255 . S
O31 Fe23 1.997 1_554 S
O31 C29 1.235 . S
C32 O38 1.287 . S
C32 O39 1.255 . S
O33 Fe22 1.976 . S
O33 C40 1.287 . S
O34 Fe23 1.996 . S
O34 C40 1.255 . S
O35 Fe25 1.976 . S
O35 C30 1.287 . S
O36 Fe22 1.996 . S
O36 C30 1.255 . S
C37 O41 1.295 . S
C37 O42 1.235 . S
O38 Fe23 1.976 . S
O38 C32 1.287 . S
O39 Fe25 1.996 . S
O39 C32 1.255 . S
C40 O33 1.287 . S
C40 O34 1.255 . S
O41 Fe23 2.002 . S
O41 C37 1.295 . S
O42 Fe25 1.997 . S
O42 C37 1.235 . S
C43 O26 1.295 . S
C43 O27 1.235 . S
Fe44 O46 1.918 . S
Fe44 O49 1.997 1_554 S
Fe44 O50 2.002 . S
Fe44 O55 1.976 . S
Fe44 O58 1.996 . S
Fe45 O46 1.918 . S
Fe45 O53 1.997 . S
Fe45 O56 1.996 . S
Fe45 O60 1.976 . S
Fe45 O63 2.002 . S
O46 Fe44 1.918 . S
O46 Fe45 1.918 . S
O46 Fe47 1.918 . S
Fe47 O46 1.918 . S
Fe47 O48 2.002 1_554 S
Fe47 O57 1.976 . S
Fe47 O61 1.996 . S
Fe47 O64 1.997 . S
O48 Fe47 2.002 1_556 S
O48 C65 1.295 . S
O49 Fe44 1.997 1_556 S
O49 C65 1.235 . S
O50 Fe44 2.002 . S
O50 C51 1.295 . S
C51 O50 1.295 . S
C51 O53 1.235 . S
C52 O57 1.287 . S
C52 O58 1.255 . S
O53 Fe45 1.997 . S
O53 C51 1.235 . S
C54 O60 1.287 . S
C54 O61 1.255 . S
O55 Fe44 1.976 . S
O55 C62 1.287 . S
O56 Fe45 1.996 . S
O56 C62 1.255 . S
O57 Fe47 1.976 . S
O57 C52 1.287 . S
O58 Fe44 1.996 . S
O58 C52 1.255 . S
C59 O63 1.295 . S
C59 O64 1.235 . S
O60 Fe45 1.976 . S
O60 C54 1.287 . S
O61 Fe47 1.996 . S
O61 C54 1.255 . S
C62 O55 1.287 . S
C62 O56 1.255 . S
O63 Fe45 2.002 . S
O63 C59 1.295 . S
O64 Fe47 1.997 . S
O64 C59 1.235 . S
C65 O48 1.295 . S
C65 O49 1.235 . S
Fe66 O68 1.918 . S
Fe66 O71 1.997 1_556 S
Fe66 O72 2.002 . S
Fe66 O77 1.976 . S
Fe66 O80 1.996 . S
Fe67 O68 1.918 . S
Fe67 O75 1.997 . S
Fe67 O78 1.996 . S
Fe67 O82 1.976 . S
Fe67 O85 2.002 . S
O68 Fe66 1.918 . S
O68 Fe67 1.918 . S
O68 Fe69 1.918 . S
Fe69 O68 1.918 . S
Fe69 O70 2.002 1_556 S
Fe69 O79 1.976 . S
Fe69 O83 1.996 . S
Fe69 O86 1.997 . S
O70 Fe69 2.002 1_554 S
O70 C87 1.295 . S
O71 Fe66 1.997 1_554 S
O71 C87 1.235 . S
O72 Fe66 2.002 . S
O72 C73 1.295 . S
C73 O72 1.295 . S
C73 O75 1.235 . S
C74 O79 1.287 . S
C74 O80 1.255 . S
O75 Fe67 1.997 . S
O75 C73 1.235 . S
C76 O82 1.287 . S
C76 O83 1.255 . S
O77 Fe66 1.976 . S
O77 C84 1.287 . S
O78 Fe67 1.996 . S
O78 C84 1.255 . S
O79 Fe69 1.976 . S
O79 C74 1.287 . S
O80 Fe66 1.996 . S
O80 C74 1.255 . S
C81 O85 1.295 . S
C81 O86 1.235 . S
O82 Fe67 1.976 . S
O82 C76 1.287 . S
O83 Fe69 1.996 . S
O83 C76 1.255 . S
C84 O77 1.287 . S
C84 O78 1.255 . S
O85 Fe67 2.002 . S
O85 C81 1.295 . S
O86 Fe69 1.997 . S
O86 C81 1.235 . S
C87 O70 1.295 . S
C87 O71 1.235 . S
Fe88 O90 1.918 . S
Fe88 O93 1.997 . S
Fe88 O94 2.002 . S
Fe88 O99 1.976 . S
Fe88 O102 1.996 . S
Fe89 O90 1.918 . S
Fe89 O97 1.997 . S
Fe89 O100 1.996 . S
Fe89 O104 1.976 . S
Fe89 O107 2.002 . S
O90 Fe88 1.918 . S
O90 Fe89 1.918 . S
O90 Fe91 1.918 . S
Fe91 O90 1.918 . S
Fe91 O92 2.002 . S
Fe91 O101 1.976 . S
Fe91 O105 1.996 . S
Fe91 O108 1.997 . S
O92 Fe91 2.002 . S
O92 C109 1.295 . S
O93 Fe88 1.997 . S
O93 C109 1.235 . S
O94 Fe88 2.002 . S
O94 C95 1.295 . S
C95 O94 1.295 . S
C95 O97 1.235 . S
C96 O101 1.287 . S
C96 O102 1.255 . S
O97 Fe89 1.997 . S
O97 C95 1.235 . S
C98 O104 1.287 . S
C98 O105 1.255 . S
O99 Fe88 1.976 . S
O99 C106 1.287 . S
O100 Fe89 1.996 . S
O100 C106 1.255 . S
O101 Fe91 1.976 . S
O101 C96 1.287 . S
O102 Fe88 1.996 . S
O102 C96 1.255 . S
C103 O107 1.295 . S
C103 O108 1.235 . S
O104 Fe89 1.976 . S
O104 C98 1.287 . S
O105 Fe91 1.996 . S
O105 C98 1.255 . S
C106 O99 1.287 . S
C106 O100 1.255 . S
O107 Fe89 2.002 . S
O107 C103 1.295 . S
O108 Fe91 1.997 . S
O108 C103 1.235 . S
C109 O92 1.295 . S
C109 O93 1.235 . S
Fe110 O112 1.918 . S
Fe110 O115 1.997 . S
Fe110 O116 2.002 . S
Fe110 O121 1.976 . S
Fe110 O124 1.996 . S
Fe111 O112 1.918 . S
Fe111 O119 1.997 . S
Fe111 O122 1.996 . S
Fe111 O126 1.976 . S
Fe111 O129 2.002 . S
O112 Fe110 1.918 . S
O112 Fe111 1.918 . S
O112 Fe113 1.918 . S
Fe113 O112 1.918 . S
Fe113 O114 2.002 . S
Fe113 O123 1.976 . S
Fe113 O127 1.996 . S
Fe113 O130 1.997 . S
O114 Fe113 2.002 . S
O114 C131 1.295 . S
O115 Fe110 1.997 . S
O115 C131 1.235 . S
O116 Fe110 2.002 . S
O116 C117 1.295 . S
C117 O116 1.295 . S
C117 O119 1.235 . S
C118 O123 1.287 . S
C118 O124 1.255 . S
O119 Fe111 1.997 . S
O119 C117 1.235 . S
C120 O126 1.287 . S
C120 O127 1.255 . S
O121 Fe110 1.976 . S
O121 C128 1.287 . S
O122 Fe111 1.996 . S
O122 C128 1.255 . S
O123 Fe113 1.976 . S
O123 C118 1.287 . S
O124 Fe110 1.996 . S
O124 C118 1.255 . S
C125 O129 1.295 . S
C125 O130 1.235 . S
O126 Fe111 1.976 . S
O126 C120 1.287 . S
O127 Fe113 1.996 . S
O127 C120 1.255 . S
C128 O121 1.287 . S
C128 O122 1.255 . S
O129 Fe111 2.002 . S
O129 C125 1.295 . S
O130 Fe113 1.997 . S
O130 C125 1.235 . S
C131 O114 1.295 . S
C131 O115 1.235 . S
Fe132 O134 1.918 . S
Fe132 O137 1.997 . S
Fe132 O138 2.002 . S
Fe132 O143 1.976 . S
Fe132 O146 1.996 . S
Fe133 O134 1.918 . S
Fe133 O141 1.997 . S
Fe133 O144 1.996 . S
Fe133 O148 1.976 . S
Fe133 O151 2.002 . S
O134 Fe132 1.918 . S
O134 Fe133 1.918 . S
O134 Fe135 1.918 . S
Fe135 O134 1.918 . S
Fe135 O136 2.002 . S
Fe135 O145 1.976 . S
Fe135 O149 1.996 . S
Fe135 O152 1.997 . S
O136 Fe135 2.002 . S
O136 C153 1.295 . S
O137 Fe132 1.997 . S
O137 C153 1.235 . S
O138 Fe132 2.002 . S
O138 C139 1.295 . S
C139 O138 1.295 . S
C139 O141 1.235 . S
C140 O145 1.287 . S
C140 O146 1.255 . S
O141 Fe133 1.997 . S
O141 C139 1.235 . S
C142 O148 1.287 . S
C142 O149 1.255 . S
O143 Fe132 1.976 . S
O143 C150 1.287 . S
O144 Fe133 1.996 . S
O144 C150 1.255 . S
O145 Fe135 1.976 . S
O145 C140 1.287 . S
O146 Fe132 1.996 . S
O146 C140 1.255 . S
C147 O151 1.295 . S
C147 O152 1.235 . S
O148 Fe133 1.976 . S
O148 C142 1.287 . S
O149 Fe135 1.996 . S
O149 C142 1.255 . S
C150 O143 1.287 . S
C150 O144 1.255 . S
O151 Fe133 2.002 . S
O151 C147 1.295 . S
O152 Fe135 1.997 . S
O152 C147 1.235 . S
C153 O136 1.295 . S
C153 O137 1.235 . S
Fe154 O156 1.918 . S
Fe154 O159 1.997 . S
Fe154 O160 2.002 . S
Fe154 O165 1.976 . S
Fe154 O168 1.996 . S
Fe155 O156 1.918 . S
Fe155 O163 1.997 . S
Fe155 O166 1.996 . S
Fe155 O170 1.976 . S
Fe155 O173 2.002 . S
O156 Fe154 1.918 . S
O156 Fe155 1.918 . S
O156 Fe157 1.918 . S
Fe157 O156 1.918 . S
Fe157 O158 2.002 . S
Fe157 O167 1.976 . S
Fe157 O171 1.996 . S
Fe157 O174 1.997 . S
O158 Fe157 2.002 . S
O158 C175 1.295 . S
O159 Fe154 1.997 . S
O159 C175 1.235 . S
O160 Fe154 2.002 . S
O160 C161 1.295 . S
C161 O160 1.295 . S
C161 O163 1.235 . S
C162 O167 1.287 . S
C162 O168 1.255 . S
O163 Fe155 1.997 . S
O163 C161 1.235 . S
C164 O170 1.287 . S
C164 O171 1.255 . S
O165 Fe154 1.976 . S
O165 C172 1.287 . S
O166 Fe155 1.996 . S
O166 C172 1.255 . S
O167 Fe157 1.976 . S
O167 C162 1.287 . S
O168 Fe154 1.996 . S
O168 C162 1.255 . S
C169 O173 1.295 . S
C169 O174 1.235 . S
O170 Fe155 1.976 . S
O170 C164 1.287 . S
O171 Fe157 1.996 . S
O171 C164 1.255 . S
C172 O165 1.287 . S
C172 O166 1.255 . S
O173 Fe155 2.002 . S
O173 C169 1.295 . S
O174 Fe157 1.997 . S
O174 C169 1.235 . S
C175 O158 1.295 . S
C175 O159 1.235 . S
H176 C182 0.930 . S
H177 C185 0.930 . S
H178 C186 0.930 . S
H179 C187 0.930 . S
H180 C190 0.930 . S
H181 C191 0.930 . S
C182 H176 0.930 . S
C182 C183 1.355 . S
C182 C184 1.415 . S
C183 C182 1.355 . S
C183 C185 1.419 . S
C184 C182 1.415 . S
C184 C189 1.425 . S
C184 C191 1.409 . S
C185 H177 0.930 . S
C185 C183 1.419 . S
C185 C186 1.362 . S
C186 H178 0.930 . S
C186 C185 1.362 . S
C186 C189 1.409 . S
C187 H179 0.930 . S
C187 C188 1.355 . S
C187 C189 1.415 . S
C188 C187 1.355 . S
C188 C190 1.419 . S
C189 C184 1.425 . S
C189 C186 1.409 . S
C189 C187 1.415 . S
C190 H180 0.930 . S
C190 C188 1.419 . S
C190 C191 1.362 . S
C191 H181 0.930 . S
C191 C184 1.409 . S
C191 C190 1.362 . S
H192 C198 0.930 . S
H193 C201 0.930 . S
H194 C202 0.930 . S
H195 C203 0.930 . S
H196 C206 0.930 . S
H197 C207 0.930 . S
C198 H192 0.930 . S
C198 C199 1.355 . S
C198 C200 1.415 . S
C199 C198 1.355 . S
C199 C201 1.419 . S
C200 C198 1.415 . S
C200 C205 1.425 . S
C200 C207 1.409 . S
C201 H193 0.930 . S
C201 C199 1.419 . S
C201 C202 1.362 . S
C202 H194 0.930 . S
C202 C201 1.362 . S
C202 C205 1.409 . S
C203 H195 0.930 . S
C203 C204 1.355 . S
C203 C205 1.415 . S
C204 C203 1.355 . S
C204 C206 1.419 . S
C205 C200 1.425 . S
C205 C202 1.409 . S
C205 C203 1.415 . S
C206 H196 0.930 . S
C206 C204 1.419 . S
C206 C207 1.362 . S
C207 H197 0.930 . S
C207 C200 1.409 . S
C207 C206 1.362 . S
H208 C214 0.930 . S
H209 C217 0.930 . S
H210 C218 0.930 . S
H211 C219 0.930 . S
H212 C222 0.930 . S
H213 C223 0.930 . S
C214 H208 0.930 . S
C214 C215 1.355 . S
C214 C216 1.415 . S
C215 C214 1.355 . S
C215 C217 1.419 . S
C216 C214 1.415 . S
C216 C221 1.425 . S
C216 C223 1.409 . S
C217 H209 0.930 . S
C217 C215 1.419 . S
C217 C218 1.362 . S
C218 H210 0.930 . S
C218 C217 1.362 . S
C218 C221 1.409 . S
C219 H211 0.930 . S
C219 C220 1.355 . S
C219 C221 1.415 . S
C220 C219 1.355 . S
C220 C222 1.419 . S
C221 C216 1.425 . S
C221 C218 1.409 . S
C221 C219 1.415 . S
C222 H212 0.930 . S
C222 C220 1.419 . S
C222 C223 1.362 . S
C223 H213 0.930 . S
C223 C216 1.409 . S
C223 C222 1.362 . S
H224 C230 0.930 . S
H225 C233 0.930 . S
H226 C234 0.930 . S
H227 C235 0.930 . S
H228 C238 0.930 . S
H229 C239 0.930 . S
C230 H224 0.930 . S
C230 C231 1.355 . S
C230 C232 1.415 . S
C231 C230 1.355 . S
C231 C233 1.419 . S
C232 C230 1.415 . S
C232 C237 1.425 . S
C232 C239 1.409 . S
C233 H225 0.930 . S
C233 C231 1.419 . S
C233 C234 1.362 . S
C234 H226 0.930 . S
C234 C233 1.362 . S
C234 C237 1.409 . S
C235 H227 0.930 . S
C235 C236 1.355 . S
C235 C237 1.415 . S
C236 C235 1.355 . S
C236 C238 1.419 . S
C237 C232 1.425 . S
C237 C234 1.409 . S
C237 C235 1.415 . S
C238 H228 0.930 . S
C238 C236 1.419 . S
C238 C239 1.362 . S
C239 H229 0.930 . S
C239 C232 1.409 . S
C239 C238 1.362 . S
H240 C246 0.930 . S
H241 C249 0.930 . S
H242 C250 0.930 . S
H243 C251 0.930 . S
H244 C254 0.930 . S
H245 C255 0.930 . S
C246 H240 0.930 . S
C246 C247 1.355 . S
C246 C248 1.415 . S
C247 C246 1.355 . S
C247 C249 1.419 . S
C248 C246 1.415 . S
C248 C253 1.425 . S
C248 C255 1.409 . S
C249 H241 0.930 . S
C249 C247 1.419 . S
C249 C250 1.362 . S
C250 H242 0.930 . S
C250 C249 1.362 . S
C250 C253 1.409 . S
C251 H243 0.930 . S
C251 C252 1.355 . S
C251 C253 1.415 . S
C252 C251 1.355 . S
C252 C254 1.419 . S
C253 C248 1.425 . S
C253 C250 1.409 . S
C253 C251 1.415 . S
C254 H244 0.930 . S
C254 C252 1.419 . S
C254 C255 1.362 . S
C255 H245 0.930 . S
C255 C248 1.409 . S
C255 C254 1.362 . S
H256 C262 0.930 . S
H257 C265 0.930 . S
H258 C266 0.930 . S
H259 C267 0.930 . S
H260 C270 0.930 . S
H261 C271 0.930 . S
C262 H256 0.930 . S
C262 C263 1.355 . S
C262 C264 1.415 . S
C263 C262 1.355 . S
C263 C265 1.419 . S
C264 C262 1.415 . S
C264 C269 1.425 . S
C264 C271 1.409 . S
C265 H257 0.930 . S
C265 C263 1.419 . S
C265 C266 1.362 . S
C266 H258 0.930 . S
C266 C265 1.362 . S
C266 C269 1.409 . S
C267 H259 0.930 . S
C267 C268 1.355 . S
C267 C269 1.415 . S
C268 C267 1.355 . S
C268 C270 1.419 . S
C269 C264 1.425 . S
C269 C266 1.409 . S
C269 C267 1.415 . S
C270 H260 0.930 . S
C270 C268 1.419 . S
C270 C271 1.362 . S
C271 H261 0.930 . S
C271 C264 1.409 . S
C271 C270 1.362 . S
H272 C278 0.930 . S
H273 C281 0.930 . S
H274 C282 0.930 . S
H275 C283 0.930 . S
H276 C286 0.930 . S
H277 C287 0.930 . S
C278 H272 0.930 . S
C278 C279 1.355 . S
C278 C280 1.415 . S
C279 C278 1.355 . S
C279 C281 1.419 . S
C280 C278 1.415 . S
C280 C285 1.425 . S
C280 C287 1.409 . S
C281 H273 0.930 . S
C281 C279 1.419 . S
C281 C282 1.362 . S
C282 H274 0.930 . S
C282 C281 1.362 . S
C282 C285 1.409 . S
C283 H275 0.930 . S
C283 C284 1.355 . S
C283 C285 1.415 . S
C284 C283 1.355 . S
C284 C286 1.419 . S
C285 C280 1.425 . S
C285 C282 1.409 . S
C285 C283 1.415 . S
C286 H276 0.930 . S
C286 C284 1.419 . S
C286 C287 1.362 . S
C287 H277 0.930 . S
C287 C280 1.409 . S
C287 C286 1.362 . S
H288 C294 0.930 . S
H289 C297 0.930 . S
H290 C298 0.930 . S
H291 C299 0.930 . S
H292 C302 0.930 . S
H293 C303 0.930 . S
C294 H288 0.930 . S
C294 C295 1.355 . S
C294 C296 1.415 . S
C295 C294 1.355 . S
C295 C297 1.419 . S
C296 C294 1.415 . S
C296 C301 1.425 . S
C296 C303 1.409 . S
C297 H289 0.930 . S
C297 C295 1.419 . S
C297 C298 1.362 . S
C298 H290 0.930 . S
C298 C297 1.362 . S
C298 C301 1.409 . S
C299 H291 0.930 . S
C299 C300 1.355 . S
C299 C301 1.415 . S
C300 C299 1.355 . S
C300 C302 1.419 . S
C301 C296 1.425 . S
C301 C298 1.409 . S
C301 C299 1.415 . S
C302 H292 0.930 . S
C302 C300 1.419 . S
C302 C303 1.362 . S
C303 H293 0.930 . S
C303 C296 1.409 . S
C303 C302 1.362 . S
H304 C310 0.930 . S
H305 C313 0.930 . S
H306 C314 0.930 . S
H307 C315 0.930 . S
H308 C318 0.930 . S
H309 C319 0.930 . S
C310 H304 0.930 . S
C310 C311 1.355 . S
C310 C312 1.415 . S
C311 C310 1.355 . S
C311 C313 1.419 . S
C312 C310 1.415 . S
C312 C317 1.425 . S
C312 C319 1.409 . S
C313 H305 0.930 . S
C313 C311 1.419 . S
C313 C314 1.362 . S
C314 H306 0.930 . S
C314 C313 1.362 . S
C314 C317 1.409 . S
C315 H307 0.930 . S
C315 C316 1.355 . S
C315 C317 1.415 . S
C316 C315 1.355 . S
C316 C318 1.419 . S
C317 C312 1.425 . S
C317 C314 1.409 . S
C317 C315 1.415 . S
C318 H308 0.930 . S
C318 C316 1.419 . S
C318 C319 1.362 . S
C319 H309 0.930 . S
C319 C312 1.409 . S
C319 C318 1.362 . S
H320 C326 0.930 . S
H321 C329 0.930 . S
H322 C330 0.930 . S
H323 C331 0.930 . S
H324 C334 0.930 . S
H325 C335 0.930 . S
C326 H320 0.930 . S
C326 C327 1.355 . S
C326 C328 1.415 . S
C327 C326 1.355 . S
C327 C329 1.419 . S
C328 C326 1.415 . S
C328 C333 1.425 . S
C328 C335 1.409 . S
C329 H321 0.930 . S
C329 C327 1.419 . S
C329 C330 1.362 . S
C330 H322 0.930 . S
C330 C329 1.362 . S
C330 C333 1.409 . S
C331 H323 0.930 . S
C331 C332 1.355 . S
C331 C333 1.415 . S
C332 C331 1.355 . S
C332 C334 1.419 . S
C333 C328 1.425 . S
C333 C330 1.409 . S
C333 C331 1.415 . S
C334 H324 0.930 . S
C334 C332 1.419 . S
C334 C335 1.362 . S
C335 H325 0.930 . S
C335 C328 1.409 . S
C335 C334 1.362 . S
H336 C342 0.930 . S
H337 C345 0.930 . S
H338 C346 0.930 . S
H339 C347 0.930 . S
H340 C350 0.930 . S
H341 C351 0.930 . S
C342 H336 0.930 . S
C342 C343 1.355 . S
C342 C344 1.415 . S
C343 C342 1.355 . S
C343 C345 1.419 . S
C344 C342 1.415 . S
C344 C349 1.425 . S
C344 C351 1.409 . S
C345 H337 0.930 . S
C345 C343 1.419 . S
C345 C346 1.362 . S
C346 H338 0.930 . S
C346 C345 1.362 . S
C346 C349 1.409 . S
C347 H339 0.930 . S
C347 C348 1.355 . S
C347 C349 1.415 . S
C348 C347 1.355 . S
C348 C350 1.419 . S
C349 C344 1.425 . S
C349 C346 1.409 . S
C349 C347 1.415 . S
C350 H340 0.930 . S
C350 C348 1.419 . S
C350 C351 1.362 . S
C351 H341 0.930 . S
C351 C344 1.409 . S
C351 C350 1.362 . S
H352 C358 0.930 . S
H353 C361 0.930 . S
H354 C362 0.930 . S
H355 C363 0.930 . S
H356 C366 0.930 . S
H357 C367 0.930 . S
C358 H352 0.930 . S
C358 C359 1.355 . S
C358 C360 1.415 . S
C359 C358 1.355 . S
C359 C361 1.419 . S
C360 C358 1.415 . S
C360 C365 1.425 . S
C360 C367 1.409 . S
C361 H353 0.930 . S
C361 C359 1.419 . S
C361 C362 1.362 . S
C362 H354 0.930 . S
C362 C361 1.362 . S
C362 C365 1.409 . S
C363 H355 0.930 . S
C363 C364 1.355 . S
C363 C365 1.415 . S
C364 C363 1.355 . S
C364 C366 1.419 . S
C365 C360 1.425 . S
C365 C362 1.409 . S
C365 C363 1.415 . S
C366 H356 0.930 . S
C366 C364 1.419 . S
C366 C367 1.362 . S
C367 H357 0.930 . S
C367 C360 1.409 . S
C367 C366 1.362 . S
H368 C374 0.930 . S
H369 C377 0.930 . S
H370 C378 0.930 . S
H371 C379 0.930 . S
H372 C382 0.930 . S
H373 C383 0.930 . S
C374 H368 0.930 . S
C374 C375 1.355 . S
C374 C376 1.415 . S
C375 C374 1.355 . S
C375 C377 1.419 . S
C376 C374 1.415 . S
C376 C381 1.425 . S
C376 C383 1.409 . S
C377 H369 0.930 . S
C377 C375 1.419 . S
C377 C378 1.362 . S
C378 H370 0.930 . S
C378 C377 1.362 . S
C378 C381 1.409 . S
C379 H371 0.930 . S
C379 C380 1.355 1_556 S
C379 C381 1.415 . S
C380 C379 1.355 1_554 S
C380 C382 1.419 . S
C381 C376 1.425 . S
C381 C378 1.409 . S
C381 C379 1.415 . S
C382 H372 0.930 . S
C382 C380 1.419 . S
C382 C383 1.362 1_554 S
C383 H373 0.930 . S
C383 C376 1.409 . S
C383 C382 1.362 1_556 S
H384 C390 0.930 . S
H385 C393 0.930 . S
H386 C394 0.930 . S
H387 C395 0.930 . S
H388 C398 0.930 . S
H389 C399 0.930 . S
C390 H384 0.930 . S
C390 C391 1.355 . S
C390 C392 1.415 . S
C391 C390 1.355 . S
C391 C393 1.419 1_556 S
C392 C390 1.415 . S
C392 C397 1.425 1_556 S
C392 C399 1.409 . S
C393 H385 0.930 . S
C393 C391 1.419 1_554 S
C393 C394 1.362 . S
C394 H386 0.930 . S
C394 C393 1.362 . S
C394 C397 1.409 . S
C395 H387 0.930 . S
C395 C396 1.355 . S
C395 C397 1.415 . S
C396 C395 1.355 . S
C396 C398 1.419 1_554 S
C397 C392 1.425 1_554 S
C397 C394 1.409 . S
C397 C395 1.415 . S
C398 H388 0.930 . S
C398 C396 1.419 1_556 S
C398 C399 1.362 . S
C399 H389 0.930 . S
C399 C392 1.409 . S
C399 C398 1.362 . S
H400 C406 0.930 . S
H401 C409 0.930 . S
H402 C410 0.930 . S
H403 C411 0.930 . S
H404 C414 0.930 . S
H405 C415 0.930 . S
C406 H400 0.930 . S
C406 C407 1.355 . S
C406 C408 1.415 . S
C407 C406 1.355 . S
C407 C409 1.419 1_554 S
C408 C406 1.415 . S
C408 C413 1.425 1_554 S
C408 C415 1.409 . S
C409 H401 0.930 . S
C409 C407 1.419 1_556 S
C409 C410 1.362 . S
C410 H402 0.930 . S
C410 C409 1.362 . S
C410 C413 1.409 . S
C411 H403 0.930 . S
C411 C412 1.355 . S
C411 C413 1.415 . S
C412 C411 1.355 . S
C412 C414 1.419 1_556 S
C413 C408 1.425 1_556 S
C413 C410 1.409 . S
C413 C411 1.415 . S
C414 H404 0.930 . S
C414 C412 1.419 1_554 S
C414 C415 1.362 . S
C415 H405 0.930 . S
C415 C408 1.409 . S
C415 C414 1.362 . S
H416 C422 0.930 . S
H417 C425 0.930 . S
H418 C426 0.930 . S
H419 C427 0.930 . S
H420 C430 0.930 . S
H421 C431 0.930 1_556 S
C422 H416 0.930 . S
C422 C423 1.355 . S
C422 C424 1.415 1_556 S
C423 C422 1.355 . S
C423 C425 1.419 1_556 S
C424 C422 1.415 1_554 S
C424 C429 1.425 . S
C424 C431 1.409 . S
C425 H417 0.930 . S
C425 C423 1.419 1_554 S
C425 C426 1.362 . S
C426 H418 0.930 . S
C426 C425 1.362 . S
C426 C429 1.409 . S
C427 H419 0.930 . S
C427 C428 1.355 . S
C427 C429 1.415 . S
C428 C427 1.355 . S
C428 C430 1.419 . S
C429 C424 1.425 . S
C429 C426 1.409 . S
C429 C427 1.415 . S
C430 H420 0.930 . S
C430 C428 1.419 . S
C430 C431 1.362 . S
C431 H421 0.930 1_554 S
C431 C424 1.409 . S
C431 C430 1.362 . S
H432 C438 0.930 . S
H433 C441 0.930 . S
H434 C442 0.930 . S
H435 C443 0.930 . S
H436 C446 0.930 . S
H437 C447 0.930 . S
C438 H432 0.930 . S
C438 C439 1.355 . S
C438 C440 1.415 . S
C439 C438 1.355 . S
C439 C441 1.419 . S
C440 C438 1.415 . S
C440 C445 1.425 . S
C440 C447 1.409 . S
C441 H433 0.930 . S
C441 C439 1.419 . S
C441 C442 1.362 . S
C442 H434 0.930 . S
C442 C441 1.362 . S
C442 C445 1.409 . S
C443 H435 0.930 . S
C443 C444 1.355 . S
C443 C445 1.415 . S
C444 C443 1.355 . S
C444 C446 1.419 . S
C445 C440 1.425 . S
C445 C442 1.409 . S
C445 C443 1.415 . S
C446 H436 0.930 . S
C446 C444 1.419 . S
C446 C447 1.362 . S
C447 H437 0.930 . S
C447 C440 1.409 . S
C447 C446 1.362 . S
H448 C454 0.930 . S
H449 C457 0.930 . S
H450 C458 0.930 . S
H451 C459 0.930 . S
H452 C462 0.930 . S
H453 C463 0.930 . S
C454 H448 0.930 . S
C454 C455 1.355 . S
C454 C456 1.415 . S
C455 C454 1.355 . S
C455 C457 1.419 . S
C456 C454 1.415 . S
C456 C461 1.425 . S
C456 C463 1.409 . S
C457 H449 0.930 . S
C457 C455 1.419 . S
C457 C458 1.362 . S
C458 H450 0.930 . S
C458 C457 1.362 . S
C458 C461 1.409 . S
C459 H451 0.930 . S
C459 C460 1.355 . S
C459 C461 1.415 . S
C460 C459 1.355 . S
C460 C462 1.419 . S
C461 C456 1.425 . S
C461 C458 1.409 . S
C461 C459 1.415 . S
C462 H452 0.930 . S
C462 C460 1.419 . S
C462 C463 1.362 . S
C463 H453 0.930 . S
C463 C456 1.409 . S
C463 C462 1.362 . S
H464 C470 0.930 . S
H465 C473 0.930 . S
H466 C474 0.930 . S
H467 C475 0.930 . S
H468 C478 0.930 . S
H469 C479 0.930 . S
C470 H464 0.930 . S
C470 C471 1.355 . S
C470 C472 1.415 . S
C471 C470 1.355 . S
C471 C473 1.419 . S
C472 C470 1.415 . S
C472 C477 1.425 . S
C472 C479 1.409 . S
C473 H465 0.930 . S
C473 C471 1.419 . S
C473 C474 1.362 . S
C474 H466 0.930 . S
C474 C473 1.362 . S
C474 C477 1.409 . S
C475 H467 0.930 . S
C475 C476 1.355 . S
C475 C477 1.415 . S
C476 C475 1.355 . S
C476 C478 1.419 . S
C477 C472 1.425 . S
C477 C474 1.409 . S
C477 C475 1.415 . S
C478 H468 0.930 . S
C478 C476 1.419 . S
C478 C479 1.362 . S
C479 H469 0.930 . S
C479 C472 1.409 . S
C479 C478 1.362 . S
H480 C486 0.930 . S
H481 C489 0.930 . S
H482 C490 0.930 . S
H483 C491 0.930 . S
H484 C494 0.930 . S
H485 C495 0.930 . S
C486 H480 0.930 . S
C486 C487 1.355 . S
C486 C488 1.415 . S
C487 C486 1.355 . S
C487 C489 1.419 . S
C488 C486 1.415 . S
C488 C493 1.425 . S
C488 C495 1.409 . S
C489 H481 0.930 . S
C489 C487 1.419 . S
C489 C490 1.362 . S
C490 H482 0.930 . S
C490 C489 1.362 . S
C490 C493 1.409 . S
C491 H483 0.930 . S
C491 C492 1.355 . S
C491 C493 1.415 . S
C492 C491 1.355 . S
C492 C494 1.419 . S
C493 C488 1.425 . S
C493 C490 1.409 . S
C493 C491 1.415 . S
C494 H484 0.930 . S
C494 C492 1.419 . S
C494 C495 1.362 . S
C495 H485 0.930 . S
C495 C488 1.409 . S
C495 C494 1.362 . S
H496 C502 0.930 . S
H497 C505 0.930 . S
H498 C506 0.930 1_556 S
H499 C507 0.930 . S
H500 C510 0.930 . S
H501 C511 0.930 . S
C502 H496 0.930 . S
C502 C503 1.355 . S
C502 C504 1.415 . S
C503 C502 1.355 . S
C503 C505 1.419 . S
C504 C502 1.415 . S
C504 C509 1.425 1_545 S
C504 C511 1.409 1_545 S
C505 H497 0.930 . S
C505 C503 1.419 . S
C505 C506 1.362 . S
C506 H498 0.930 1_554 S
C506 C505 1.362 . S
C506 C509 1.409 1_545 S
C507 H499 0.930 . S
C507 C508 1.355 . S
C507 C509 1.415 . S
C508 C507 1.355 . S
C508 C510 1.419 . S
C509 C504 1.425 1_565 S
C509 C506 1.409 1_565 S
C509 C507 1.415 . S
C510 H500 0.930 . S
C510 C508 1.419 . S
C510 C511 1.362 . S
C511 H501 0.930 . S
C511 C504 1.409 1_565 S
C511 C510 1.362 . S
H512 C518 0.930 . S
H513 C521 0.930 . S
H514 C522 0.930 . S
H515 C523 0.930 . S
H516 C526 0.930 . S
H517 C527 0.930 . S
C518 H512 0.930 . S
C518 C519 1.355 . S
C518 C520 1.415 . S
C519 C518 1.355 . S
C519 C521 1.419 . S
C520 C518 1.415 . S
C520 C525 1.425 1_655 S
C520 C527 1.409 . S
C521 H513 0.930 . S
C521 C519 1.419 . S
C521 C522 1.362 1_655 S
C522 H514 0.930 . S
C522 C521 1.362 1_455 S
C522 C525 1.409 . S
C523 H515 0.930 . S
C523 C524 1.355 . S
C523 C525 1.415 . S
C524 C523 1.355 . S
C524 C526 1.419 . S
C525 C520 1.425 1_455 S
C525 C522 1.409 . S
C525 C523 1.415 . S
C526 H516 0.930 . S
C526 C524 1.419 . S
C526 C527 1.362 1_455 S
C527 H517 0.930 . S
C527 C520 1.409 . S
C527 C526 1.362 1_655 S
H528 C534 0.930 . S
H529 C537 0.930 . S
H530 C538 0.930 . S
H531 C539 0.930 . S
H532 C542 0.930 . S
H533 C543 0.930 . S
C534 H528 0.930 . S
C534 C535 1.355 . S
C534 C536 1.415 1_565 S
C535 C534 1.355 . S
C535 C537 1.419 . S
C536 C534 1.415 1_545 S
C536 C541 1.425 1_545 S
C536 C543 1.409 . S
C537 H529 0.930 . S
C537 C535 1.419 . S
C537 C538 1.362 . S
C538 H530 0.930 . S
C538 C537 1.362 . S
C538 C541 1.409 . S
C539 H531 0.930 . S
C539 C540 1.355 . S
C539 C541 1.415 1_545 S
C540 C539 1.355 . S
C540 C542 1.419 . S
C541 C536 1.425 1_565 S
C541 C538 1.409 . S
C541 C539 1.415 1_565 S
C542 H532 0.930 . S
C542 C540 1.419 . S
C542 C543 1.362 . S
C543 H533 0.930 . S
C543 C536 1.409 . S
C543 C542 1.362 . S
H544 C550 0.930 . S
H545 C553 0.930 . S
H546 C554 0.930 1_455 S
H547 C555 0.930 . S
H548 C558 0.930 . S
H549 C559 0.930 1_655 S
C550 H544 0.930 . S
C550 C551 1.355 . S
C550 C552 1.415 . S
C551 C550 1.355 . S
C551 C553 1.419 . S
C552 C550 1.415 . S
C552 C557 1.425 1_655 S
C552 C559 1.409 1_655 S
C553 H545 0.930 . S
C553 C551 1.419 . S
C553 C554 1.362 . S
C554 H546 0.930 1_655 S
C554 C553 1.362 . S
C554 C557 1.409 1_655 S
C555 H547 0.930 . S
C555 C556 1.355 . S
C555 C557 1.415 . S
C556 C555 1.355 . S
C556 C558 1.419 . S
C557 C552 1.425 1_455 S
C557 C554 1.409 1_455 S
C557 C555 1.415 . S
C558 H548 0.930 . S
C558 C556 1.419 . S
C558 C559 1.362 . S
C559 H549 0.930 1_455 S
C559 C552 1.409 1_455 S
C559 C558 1.362 . S
C183 C128 1.418 . S
C188 C10 1.352 . S
C199 C30 1.376 . S
C204 C140 1.447 . S
C215 C172 1.377 . S
C220 C62 1.363 . S
C231 C76 1.376 . S
C236 C106 1.447 . S
C247 C96 1.319 . S
C252 C7 1.296 . S
C263 C29 1.289 . S
C268 C120 1.304 . S
C279 C65 1.293 . S
C284 C142 1.318 . S
C295 C164 1.299 . S
C300 C87 1.288 . S
C311 C8 1.292 . S
C316 C103 1.321 . S
C327 C131 1.312 . S
C332 C32 1.269 . S
C343 C54 1.324 . S
C348 C139 1.315 . S
C359 C84 1.273 . S
C364 C175 1.315 . S
C375 C37 1.226 . S
C380 C15 1.201 . S
C391 C43 1.219 . S
C396 C59 1.200 . S
C407 C51 1.225 . S
C412 C73 1.212 . S
C423 C81 1.210 . S
C428 C21 1.221 . S
C439 C95 1.185 . S
C444 C169 1.191 . S
C455 C109 1.194 . S
C460 C117 1.190 . S
C471 C153 1.203 . S
C476 C125 1.191 . S
C487 C161 1.194 . S
C492 C147 1.191 . S
C503 C18 1.628 . S
C508 C52 1.647 . S
C519 C74 1.689 . S
C524 C40 1.688 . S
C535 C150 1.622 . S
C540 C98 1.639 . S
C551 C162 1.682 . S
C556 C118 1.666 . S
