# Generated by pormake.
# Topology wiv, (6)-cn, num edge types: 1
# Building blocks:
#     Node 0, Type 0, BuildingBlock: BETDEL_clean_sbu_0, # of connection points: 6
#     Node 1, Type 0, BuildingBlock: BETDEL_clean_sbu_0, # of connection points: 6
#     Node 2, Type 0, BuildingBlock: BETDEL_clean_sbu_0, # of connection points: 6
#     Node 3, Type 0, BuildingBlock: BETDEL_clean_sbu_0, # of connection points: 6
#     Node 4, Type 0, BuildingBlock: BETDEL_clean_sbu_0, # of connection points: 6
#     Node 5, Type 0, BuildingBlock: BETDEL_clean_sbu_0, # of connection points: 6
#     Node 6, Type 0, BuildingBlock: BETDEL_clean_sbu_0, # of connection points: 6
#     Node 7, Type 0, BuildingBlock: BETDEL_clean_sbu_0, # of connection points: 6
#     Node 8, Type 0, BuildingBlock: BETDEL_clean_sbu_0, # of connection points: 6
#     Node 9, Type 0, BuildingBlock: BETDEL_clean_sbu_0, # of connection points: 6
#     Node 10, Type 0, BuildingBlock: BETDEL_clean_sbu_0, # of connection points: 6
#     Node 11, Type 0, BuildingBlock: BETDEL_clean_sbu_0, # of connection points: 6
#     Node 12, Type 0, BuildingBlock: BETDEL_clean_sbu_0, # of connection points: 6
#     Node 13, Type 0, BuildingBlock: BETDEL_clean_sbu_0, # of connection points: 6
#     Node 14, Type 0, BuildingBlock: BETDEL_clean_sbu_0, # of connection points: 6
#     Node 15, Type 0, BuildingBlock: BETDEL_clean_sbu_0, # of connection points: 6
#     Edge 16, Type (0, 0), BuildingBlock: EZIPEK_clean_linker_0, # of connection points: 2
#     Edge 17, Type (0, 0), BuildingBlock: EZIPEK_clean_linker_0, # of connection points: 2
#     Edge 18, Type (0, 0), BuildingBlock: EZIPEK_clean_linker_0, # of connection points: 2
#     Edge 19, Type (0, 0), BuildingBlock: EZIPEK_clean_linker_0, # of connection points: 2
#     Edge 20, Type (0, 0), BuildingBlock: EZIPEK_clean_linker_0, # of connection points: 2
#     Edge 21, Type (0, 0), BuildingBlock: EZIPEK_clean_linker_0, # of connection points: 2
#     Edge 22, Type (0, 0), BuildingBlock: EZIPEK_clean_linker_0, # of connection points: 2
#     Edge 23, Type (0, 0), BuildingBlock: EZIPEK_clean_linker_0, # of connection points: 2
#     Edge 24, Type (0, 0), BuildingBlock: EZIPEK_clean_linker_0, # of connection points: 2
#     Edge 25, Type (0, 0), BuildingBlock: EZIPEK_clean_linker_0, # of connection points: 2
#     Edge 26, Type (0, 0), BuildingBlock: EZIPEK_clean_linker_0, # of connection points: 2
#     Edge 27, Type (0, 0), BuildingBlock: EZIPEK_clean_linker_0, # of connection points: 2
#     Edge 28, Type (0, 0), BuildingBlock: EZIPEK_clean_linker_0, # of connection points: 2
#     Edge 29, Type (0, 0), BuildingBlock: EZIPEK_clean_linker_0, # of connection points: 2
#     Edge 30, Type (0, 0), BuildingBlock: EZIPEK_clean_linker_0, # of connection points: 2
#     Edge 31, Type (0, 0), BuildingBlock: EZIPEK_clean_linker_0, # of connection points: 2
#     Edge 32, Type (0, 0), BuildingBlock: EZIPEK_clean_linker_0, # of connection points: 2
#     Edge 33, Type (0, 0), BuildingBlock: EZIPEK_clean_linker_0, # of connection points: 2
#     Edge 34, Type (0, 0), BuildingBlock: EZIPEK_clean_linker_0, # of connection points: 2
#     Edge 35, Type (0, 0), BuildingBlock: EZIPEK_clean_linker_0, # of connection points: 2
#     Edge 36, Type (0, 0), BuildingBlock: EZIPEK_clean_linker_0, # of connection points: 2
#     Edge 37, Type (0, 0), BuildingBlock: EZIPEK_clean_linker_0, # of connection points: 2
#     Edge 38, Type (0, 0), BuildingBlock: EZIPEK_clean_linker_0, # of connection points: 2
#     Edge 39, Type (0, 0), BuildingBlock: EZIPEK_clean_linker_0, # of connection points: 2
#     Edge 40, Type (0, 0), BuildingBlock: EZIPEK_clean_linker_0, # of connection points: 2
#     Edge 41, Type (0, 0), BuildingBlock: EZIPEK_clean_linker_0, # of connection points: 2
#     Edge 42, Type (0, 0), BuildingBlock: EZIPEK_clean_linker_0, # of connection points: 2
#     Edge 43, Type (0, 0), BuildingBlock: EZIPEK_clean_linker_0, # of connection points: 2
#     Edge 44, Type (0, 0), BuildingBlock: EZIPEK_clean_linker_0, # of connection points: 2
#     Edge 45, Type (0, 0), BuildingBlock: EZIPEK_clean_linker_0, # of connection points: 2
#     Edge 46, Type (0, 0), BuildingBlock: EZIPEK_clean_linker_0, # of connection points: 2
#     Edge 47, Type (0, 0), BuildingBlock: EZIPEK_clean_linker_0, # of connection points: 2
#     Edge 48, Type (0, 0), BuildingBlock: EZIPEK_clean_linker_0, # of connection points: 2
#     Edge 49, Type (0, 0), BuildingBlock: EZIPEK_clean_linker_0, # of connection points: 2
#     Edge 50, Type (0, 0), BuildingBlock: EZIPEK_clean_linker_0, # of connection points: 2
#     Edge 51, Type (0, 0), BuildingBlock: EZIPEK_clean_linker_0, # of connection points: 2
#     Edge 52, Type (0, 0), BuildingBlock: EZIPEK_clean_linker_0, # of connection points: 2
#     Edge 53, Type (0, 0), BuildingBlock: EZIPEK_clean_linker_0, # of connection points: 2
#     Edge 54, Type (0, 0), BuildingBlock: EZIPEK_clean_linker_0, # of connection points: 2
#     Edge 55, Type (0, 0), BuildingBlock: EZIPEK_clean_linker_0, # of connection points: 2
#     Edge 56, Type (0, 0), BuildingBlock: EZIPEK_clean_linker_0, # of connection points: 2
#     Edge 57, Type (0, 0), BuildingBlock: EZIPEK_clean_linker_0, # of connection points: 2
#     Edge 58, Type (0, 0), BuildingBlock: EZIPEK_clean_linker_0, # of connection points: 2
#     Edge 59, Type (0, 0), BuildingBlock: EZIPEK_clean_linker_0, # of connection points: 2
#     Edge 60, Type (0, 0), BuildingBlock: EZIPEK_clean_linker_0, # of connection points: 2
#     Edge 61, Type (0, 0), BuildingBlock: EZIPEK_clean_linker_0, # of connection points: 2
#     Edge 62, Type (0, 0), BuildingBlock: EZIPEK_clean_linker_0, # of connection points: 2
#     Edge 63, Type (0, 0), BuildingBlock: EZIPEK_clean_linker_0, # of connection points: 2
# Relax obj value: 0.078
# Max RMSD: 0.137
# Mean RMSD: 0.137
data_MOF--net-wiv--node1-BETDEL_clean_sbu_0--edge1-EZIPEK_clean_linker_0
_symmetry_space_group_name_H-M    P1
_symmetry_Int_Tables_number       1
_symmetry_cell_setting            triclinic
loop_
_symmetry_equiv_pos_as_xyz
'x, y, z'
_cell_length_a     40.140487
_cell_length_b     40.149269
_cell_length_c     13.632094
_cell_angle_alpha  89.677869
_cell_angle_beta   90.257199
_cell_angle_gamma 90.067393
loop_
_atom_site_label
_atom_site_type_symbol
_atom_site_fract_x
_atom_site_fract_y
_atom_site_fract_z
_atom_type_partial_charge
Dy0 Dy 0.35758 0.1228 0.22318 0.0
C1 C 0.39422 0.1174 0.82204 0.0
C2 C 0.34608 0.11591 0.41986 0.0
Dy3 Dy 0.3836 0.11636 1.01963 0.0
O4 O 0.34013 0.14263 0.36846 0.0
O5 O 0.3546 0.09209 0.36118 0.0
O6 O 0.38082 0.17233 0.23543 0.0
O7 O 0.36038 0.15849 0.10023 0.0
C8 C 0.37506 0.18182 0.14633 0.0
C9 C 0.36844 0.0586 0.11683 0.0
O10 O 0.43252 0.12933 0.08991 0.0
O11 O 0.41287 0.11705 0.24562 0.0
O12 O 0.39842 0.09159 0.87858 0.0
O13 O 0.3882 0.14329 0.87556 0.0
O14 O 0.36343 0.06307 1.02384 0.0
O15 O 0.38284 0.08379 0.14917 0.0
O16 O 0.30887 0.1143 0.13445 0.0
O17 O 0.33152 0.12759 0.98395 0.0
C18 C 0.43742 0.12511 0.18541 0.0
C19 C 0.30574 0.12008 0.03784 0.0
Dy20 Dy 0.11648 0.62125 1.00786 0.0
C21 C 0.10873 0.66065 0.60003 0.0
C22 C 0.12256 0.61121 0.20418 0.0
Dy23 Dy 0.12058 0.65542 0.79697 0.0
O24 O 0.10066 0.59626 0.14853 0.0
O25 O 0.14324 0.628 0.15015 0.0
O26 O 0.06141 0.63492 1.01025 0.0
O27 O 0.08475 0.62757 0.87941 0.0
C28 C 0.05816 0.63742 0.91612 0.0
C29 C 0.18234 0.64639 0.86355 0.0
O30 O 0.1086 0.70013 0.8943 0.0
O31 O 0.12287 0.67453 0.04243 0.0
O32 O 0.13287 0.67528 0.64674 0.0
O33 O 0.08919 0.64628 0.66294 0.0
O34 O 0.17538 0.66082 0.78089 0.0
O35 O 0.15566 0.63882 0.90836 0.0
O36 O 0.12964 0.575 0.92726 0.0
O37 O 0.12482 0.5998 0.77147 0.0
C38 C 0.1142 0.70095 0.99125 0.0
C39 C 0.12935 0.57341 0.82979 0.0
Dy40 Dy 0.65253 0.88444 0.23591 0.0
C41 C 0.61871 0.89554 0.83491 0.0
C42 C 0.6632 0.89758 0.42915 0.0
Dy43 Dy 0.62019 0.89046 0.03519 0.0
O44 O 0.67659 0.87275 0.3818 0.0
O45 O 0.6472 0.91667 0.36794 0.0
O46 O 0.63097 0.83407 0.25559 0.0
O47 O 0.64459 0.84881 0.11502 0.0
C48 C 0.63181 0.82528 0.16476 0.0
C49 C 0.61963 0.9463 0.14231 0.0
O50 O 0.57413 0.87481 0.11764 0.0
O51 O 0.59817 0.8867 0.26712 0.0
O52 O 0.62154 0.92014 0.89528 0.0
O53 O 0.61253 0.86829 0.88435 0.0
O54 O 0.59622 0.93845 0.08071 0.0
O55 O 0.64305 0.92545 0.1371 0.0
O56 O 0.70085 0.88791 0.15066 0.0
O57 O 0.67413 0.88741 0.9989 0.0
C58 C 0.57176 0.87916 0.21424 0.0
C59 C 0.70142 0.88799 0.05275 0.0
Dy60 Dy 0.8886 0.38155 1.00949 0.0
C61 C 0.89865 0.34027 0.61569 0.0
C62 C 0.89248 0.38487 0.20937 0.0
Dy63 Dy 0.88488 0.35017 0.80912 0.0
O64 O 0.91631 0.37616 0.15146 0.0
O65 O 0.86668 0.39434 0.15765 0.0
O66 O 0.9354 0.40853 0.96208 0.0
O67 O 0.92495 0.36098 0.90842 0.0
C68 C 0.94472 0.38527 0.90235 0.0
C69 C 0.82482 0.36928 0.87432 0.0
O70 O 0.88645 0.30167 0.89783 0.0
O71 O 0.88522 0.32814 0.04923 0.0
O72 O 0.87083 0.33219 0.65859 0.0
O73 O 0.92041 0.34839 0.68224 0.0
O74 O 0.8345 0.37077 0.78414 0.0
O75 O 0.8478 0.35653 0.92692 0.0
O76 O 0.86812 0.42549 0.9289 0.0
O77 O 0.88843 0.40573 0.78356 0.0
C78 C 0.88581 0.30098 0.99607 0.0
C79 C 0.87349 0.42956 0.83385 0.0
Dy80 Dy 0.3548 0.38433 0.08385 0.0
C81 C 0.38138 0.39517 0.47322 0.0
C82 C 0.35188 0.39652 0.88712 0.0
Dy83 Dy 0.38193 0.38943 0.27428 0.0
O84 O 0.33837 0.37112 0.93085 0.0
O85 O 0.36428 0.41655 0.95167 0.0
O86 O 0.33145 0.33533 0.10479 0.0
O87 O 0.37806 0.34531 0.17444 0.0
C88 C 0.3551 0.32367 0.16054 0.0
C89 C 0.38151 0.44758 0.17133 0.0
O90 O 0.43177 0.37522 0.22158 0.0
O91 O 0.41117 0.37863 0.06361 0.0
O92 O 0.36317 0.41211 0.41274 0.0
O93 O 0.40129 0.37555 0.42532 0.0
O94 O 0.40614 0.4379 0.226 0.0
O95 O 0.35811 0.42683 0.17766 0.0
O96 O 0.30783 0.39573 0.17191 0.0
O97 O 0.3315 0.36945 0.30267 0.0
C98 C 0.43646 0.37494 0.12619 0.0
C99 C 0.30516 0.38252 0.26127 0.0
Dy100 Dy 0.38836 0.62392 0.77912 0.0
C101 C 0.39205 0.66243 0.17933 0.0
C102 C 0.389 0.61331 0.58124 0.0
Dy103 Dy 0.38262 0.65185 0.98314 0.0
O104 O 0.41456 0.61034 0.63926 0.0
O105 O 0.36245 0.6179 0.63351 0.0
O106 O 0.44146 0.64428 0.78073 0.0
O107 O 0.42107 0.62593 0.9082 0.0
C108 C 0.44621 0.63995 0.87379 0.0
C109 C 0.32358 0.6334 0.91006 0.0
O110 O 0.39095 0.69957 0.88964 0.0
O111 O 0.37502 0.67555 0.74324 0.0
O112 O 0.3656 0.67109 0.12977 0.0
O113 O 0.41454 0.65201 0.11879 0.0
O114 O 0.33232 0.63108 1.001 0.0
O115 O 0.34673 0.64736 0.86121 0.0
O116 O 0.37607 0.57542 0.85236 0.0
O117 O 0.38557 0.59642 1.0086 0.0
C118 C 0.38367 0.70179 0.79361 0.0
C119 C 0.37892 0.57137 0.9487 0.0
Dy120 Dy 0.6527 0.62235 0.06523 0.0
C121 C 0.61596 0.62154 0.45698 0.0
C122 C 0.65637 0.61354 0.86568 0.0
Dy123 Dy 0.6216 0.61873 0.25674 0.0
O124 O 0.67473 0.63409 0.91596 0.0
O125 O 0.63773 0.59677 0.92534 0.0
O126 O 0.67249 0.67309 0.08868 0.0
O127 O 0.62601 0.66033 0.15021 0.0
C128 C 0.6481 0.68291 0.1432 0.0
C129 C 0.62789 0.5591 0.165 0.0
O130 O 0.57399 0.63287 0.18416 0.0
O131 O 0.59705 0.61999 0.0344 0.0
O132 O 0.60818 0.59604 0.40339 0.0
O133 O 0.62395 0.64627 0.40022 0.0
O134 O 0.60177 0.56854 0.2132 0.0
O135 O 0.64959 0.58174 0.16977 0.0
O136 O 0.69903 0.60939 0.1559 0.0
O137 O 0.67439 0.62823 0.29682 0.0
C138 C 0.57092 0.62773 0.08885 0.0
C139 C 0.7009 0.61816 0.24998 0.0
Dy140 Dy 0.6132 0.37935 0.79956 0.0
C141 C 0.61683 0.34257 0.20401 0.0
C142 C 0.61045 0.38982 0.60155 0.0
Dy143 Dy 0.62465 0.34726 1.00711 0.0
O144 O 0.58658 0.37825 0.65535 0.0
O145 O 0.6351 0.39913 0.65802 0.0
O146 O 0.559 0.36293 0.81263 0.0
O147 O 0.58569 0.37463 0.93632 0.0
C148 C 0.5586 0.36288 0.90751 0.0
C149 C 0.68407 0.35347 0.92457 0.0
O150 O 0.61321 0.30141 0.91365 0.0
O151 O 0.629 0.32758 0.76953 0.0
O152 O 0.64295 0.3538 0.15965 0.0
O153 O 0.59547 0.33074 0.1405 0.0
O154 O 0.67911 0.33841 1.00775 0.0
O155 O 0.65639 0.36164 0.88504 0.0
O156 O 0.62169 0.42774 0.87557 0.0
O157 O 0.62487 0.40311 0.03142 0.0
C158 C 0.62033 0.30058 0.81795 0.0
C159 C 0.62476 0.42972 0.97259 0.0
Dy160 Dy 0.85285 0.62436 0.72847 0.0
C161 C 0.88715 0.62029 0.33699 0.0
C162 C 0.849 0.62555 0.9299 0.0
Dy163 Dy 0.88347 0.61605 0.53667 0.0
O164 O 0.8249 0.61561 0.87248 0.0
O165 O 0.87396 0.63435 0.87688 0.0
O166 O 0.83371 0.6746 0.69333 0.0
O167 O 0.87959 0.65979 0.63477 0.0
C168 C 0.85843 0.68322 0.63794 0.0
C169 C 0.87803 0.55848 0.64038 0.0
O170 O 0.93109 0.63011 0.60652 0.0
O171 O 0.90824 0.61494 0.75511 0.0
O172 O 0.89234 0.59332 0.3879 0.0
O173 O 0.88369 0.64521 0.39597 0.0
O174 O 0.90261 0.56536 0.58179 0.0
O175 O 0.85645 0.58127 0.63492 0.0
O176 O 0.80552 0.61322 0.64037 0.0
O177 O 0.83121 0.62509 0.49396 0.0
C178 C 0.93424 0.62364 0.701 0.0
C179 C 0.80427 0.61858 0.5438 0.0
Dy180 Dy 0.61414 0.11869 0.53338 0.0
C181 C 0.61359 0.15604 0.13958 0.0
C182 C 0.61171 0.11436 0.73334 0.0
Dy183 Dy 0.62268 0.15084 0.33807 0.0
O184 O 0.58805 0.12526 0.67703 0.0
O185 O 0.63622 0.10354 0.68001 0.0
O186 O 0.56407 0.09895 0.48242 0.0
O187 O 0.58064 0.14516 0.43247 0.0
C188 C 0.55782 0.12377 0.42338 0.0
C189 C 0.68107 0.14482 0.43241 0.0
O190 O 0.61131 0.19695 0.42911 0.0
O191 O 0.62944 0.17034 0.56917 0.0
O192 O 0.64184 0.15961 0.18507 0.0
O193 O 0.58989 0.15328 0.2035 0.0
O194 O 0.67271 0.17017 0.37742 0.0
O195 O 0.65751 0.12354 0.43311 0.0
O196 O 0.62715 0.07071 0.46421 0.0
O197 O 0.62125 0.0949 0.31035 0.0
C198 C 0.61961 0.19748 0.52395 0.0
C199 C 0.62556 0.06828 0.36767 0.0
Dy200 Dy 0.1474 0.38356 0.72864 0.0
C201 C 0.11518 0.39242 0.32755 0.0
C202 C 0.15907 0.39042 0.92484 0.0
Dy203 Dy 0.12423 0.39043 0.52551 0.0
O204 O 0.1585 0.36244 0.87797 0.0
O205 O 0.15764 0.41482 0.86216 0.0
O206 O 0.12312 0.33451 0.74228 0.0
O207 O 0.14531 0.34723 0.60821 0.0
C208 C 0.1296 0.32454 0.65447 0.0
C209 C 0.13941 0.44822 0.62079 0.0
O210 O 0.07345 0.38211 0.58814 0.0
O211 O 0.09218 0.39128 0.74666 0.0
O212 O 0.12832 0.41571 0.37997 0.0
O213 O 0.10427 0.36862 0.38436 0.0
O214 O 0.14605 0.44291 0.52958 0.0
O215 O 0.12362 0.42374 0.65303 0.0
O216 O 0.19679 0.39016 0.64336 0.0
O217 O 0.17429 0.3706 0.50022 0.0
C218 C 0.06778 0.38584 0.68299 0.0
C219 C 0.20023 0.38069 0.55001 0.0
Dy220 Dy 0.3871 0.88303 0.51081 0.0
C221 C 0.38818 0.84327 0.10989 0.0
C222 C 0.38719 0.89365 0.70883 0.0
Dy223 Dy 0.37995 0.85402 0.30612 0.0
O224 O 0.41295 0.89664 0.65211 0.0
O225 O 0.3608 0.88915 0.65503 0.0
O226 O 0.43993 0.86255 0.51003 0.0
O227 O 0.41899 0.87925 0.3813 0.0
C228 C 0.44406 0.86514 0.41623 0.0
C229 C 0.3219 0.87351 0.38389 0.0
O230 O 0.38888 0.80666 0.40057 0.0
O231 O 0.3739 0.83127 0.54681 0.0
O232 O 0.36151 0.83567 0.15943 0.0
O233 O 0.41136 0.85252 0.17049 0.0
O234 O 0.32961 0.87608 0.29229 0.0
O235 O 0.34552 0.85927 0.42982 0.0
O236 O 0.37542 0.93116 0.43288 0.0
O237 O 0.3858 0.90901 0.27876 0.0
C238 C 0.38228 0.80484 0.49696 0.0
C239 C 0.37918 0.93459 0.33646 0.0
Dy240 Dy 0.85633 0.88478 0.58787 0.0
C241 C 0.89167 0.89382 0.98144 0.0
C242 C 0.85251 0.89667 0.39002 0.0
Dy243 Dy 0.88703 0.88965 0.78167 0.0
O244 O 0.83845 0.87181 0.43524 0.0
O245 O 0.86667 0.91587 0.45372 0.0
O246 O 0.835 0.83525 0.61631 0.0
O247 O 0.8822 0.8471 0.67702 0.0
C248 C 0.86008 0.82445 0.668 0.0
C249 C 0.88302 0.94717 0.67811 0.0
O250 O 0.93522 0.87466 0.71806 0.0
O251 O 0.91255 0.8824 0.56322 0.0
O252 O 0.89068 0.91889 0.92146 0.0
O253 O 0.89314 0.86632 0.93184 0.0
O254 O 0.90877 0.93884 0.73055 0.0
O255 O 0.86061 0.92546 0.68714 0.0
O256 O 0.80984 0.89609 0.67698 0.0
O257 O 0.83485 0.87627 0.81754 0.0
C258 C 0.93855 0.87696 0.62205 0.0
C259 C 0.80812 0.88635 0.77051 0.0
Dy260 Dy 0.88637 0.11705 0.27242 0.0
C261 C 0.89887 0.15538 0.66479 0.0
C262 C 0.89095 0.11513 0.07302 0.0
Dy263 Dy 0.88404 0.14649 0.47177 0.0
O264 O 0.91287 0.12764 0.13189 0.0
O265 O 0.86666 0.10179 0.12306 0.0
O266 O 0.93474 0.09163 0.31736 0.0
O267 O 0.92376 0.13871 0.37073 0.0
C268 C 0.94447 0.1153 0.37524 0.0
C269 C 0.82313 0.12683 0.41288 0.0
O270 O 0.88616 0.19545 0.38494 0.0
O271 O 0.87717 0.16989 0.23503 0.0
O272 O 0.87219 0.16667 0.62095 0.0
O273 O 0.91943 0.14423 0.59949 0.0
O274 O 0.83447 0.12544 0.50152 0.0
O275 O 0.84508 0.14015 0.35784 0.0
O276 O 0.86737 0.07112 0.34519 0.0
O277 O 0.88785 0.09051 0.49251 0.0
C278 C 0.8814 0.19682 0.28771 0.0
C279 C 0.87526 0.06619 0.43826 0.0
Dy280 Dy 0.15089 0.12371 0.56372 0.0
C281 C 0.11176 0.12187 0.9601 0.0
C282 C 0.15547 0.12111 0.36498 0.0
Dy283 Dy 0.12251 0.11609 0.76345 0.0
O284 O 0.14635 0.14671 0.415 0.0
O285 O 0.16493 0.09723 0.42381 0.0
O286 O 0.17343 0.1724 0.60006 0.0
O287 O 0.12707 0.15948 0.66212 0.0
C288 C 0.14937 0.18202 0.6565 0.0
C289 C 0.14226 0.05852 0.6736 0.0
O290 O 0.07234 0.11801 0.69278 0.0
O291 O 0.09502 0.122 0.53592 0.0
O292 O 0.11122 0.09414 0.91155 0.0
O293 O 0.11322 0.14663 0.89857 0.0
O294 O 0.14516 0.06392 0.76686 0.0
O295 O 0.12743 0.08293 0.6371 0.0
O296 O 0.19749 0.11059 0.65528 0.0
O297 O 0.17415 0.13179 0.79406 0.0
C298 C 0.06904 0.1202 0.59604 0.0
C299 C 0.20014 0.12021 0.74852 0.0
Dy300 Dy 0.11365 0.88676 0.28071 0.0
C301 C 0.09971 0.84423 0.67467 0.0
C302 C 0.10905 0.88956 0.07968 0.0
Dy303 Dy 0.11772 0.84959 0.48164 0.0
O304 O 0.08425 0.88921 0.14006 0.0
O305 O 0.13671 0.89254 0.12974 0.0
O306 O 0.06353 0.9064 0.32362 0.0
O307 O 0.07931 0.85989 0.37605 0.0
C308 C 0.05685 0.88177 0.38232 0.0
C309 C 0.18005 0.86053 0.43119 0.0
O310 O 0.11215 0.80433 0.38106 0.0
O311 O 0.12136 0.83435 0.23762 0.0
O312 O 0.12048 0.82444 0.63028 0.0
O313 O 0.08671 0.86441 0.61051 0.0
O314 O 0.17133 0.84343 0.50774 0.0
O315 O 0.15476 0.86948 0.37941 0.0
O316 O 0.12613 0.9326 0.36451 0.0
O317 O 0.12296 0.9048 0.51404 0.0
C318 C 0.11722 0.80587 0.28389 0.0
C319 C 0.12617 0.93271 0.46203 0.0
C320 C 0.34619 0.98555 0.28627 0.0
C321 C 0.37677 0.96783 0.28759 0.0
C322 C 0.39902 0.0061 0.16228 0.0
C323 C 0.36978 0.02577 0.16848 0.0
N324 N 0.31714 0.03669 0.24647 0.0
N325 N 0.43448 0.96478 0.24033 0.0
C326 C 0.34389 0.01625 0.23372 0.0
C327 C 0.4038 0.97912 0.22918 0.0
N328 N 0.31873 0.97219 0.33046 0.0
N329 N 0.42202 0.01278 0.09121 0.0
H330 H 0.43909 0.94555 0.29035 0.0
H331 H 0.45598 0.97407 0.20755 0.0
H332 H 0.41961 0.03252 0.04167 0.0
H333 H 0.44208 0.99721 0.07624 0.0
H334 H 0.29484 0.98197 0.32254 0.0
H335 H 0.31928 0.94961 0.3682 0.0
H336 H 0.29963 0.0333 0.30182 0.0
H337 H 0.31373 0.05838 0.20574 0.0
C338 C 0.98151 0.65903 0.76171 0.0
C339 C 0.96705 0.62698 0.75033 0.0
C340 C 0.01025 0.60259 0.85669 0.0
C341 C 0.02579 0.63433 0.86372 0.0
N342 N 0.02849 0.69213 0.81618 0.0
N343 N 0.96987 0.56754 0.77325 0.0
C344 C 0.01207 0.66234 0.81409 0.0
C345 C 0.98199 0.59856 0.79436 0.0
N346 N 0.96522 0.68655 0.72644 0.0
N347 N 0.02223 0.57637 0.91076 0.0
H348 H 0.94936 0.56369 0.7275 0.0
H349 H 0.98165 0.54548 0.79373 0.0
H350 H 0.04365 0.57779 0.95405 0.0
H351 H 0.00987 0.5537 0.91808 0.0
H352 H 0.972 0.71089 0.74327 0.0
H353 H 0.94339 0.68526 0.68502 0.0
H354 H 0.02262 0.71228 0.77093 0.0
H355 H 0.04918 0.69623 0.86053 0.0
C356 C 0.59522 0.98705 0.26175 0.0
C357 C 0.62131 0.97827 0.19719 0.0
C358 C 0.65105 0.02946 0.24428 0.0
C359 C 0.62707 0.03519 0.31893 0.0
N360 N 0.58079 0.01361 0.41357 0.0
N361 N 0.67435 0.99177 0.12427 0.0
C362 C 0.6008 0.01202 0.33294 0.0
C363 C 0.64956 0.99948 0.18858 0.0
N364 N 0.56438 0.973 0.2528 0.0
N365 N 0.67466 0.05311 0.22438 0.0
H366 H 0.6719 0.97331 0.07131 0.0
H367 H 0.69762 0.00327 0.12455 0.0
H368 H 0.6776 0.07463 0.26581 0.0
H369 H 0.69019 0.05247 0.1635 0.0
H370 H 0.54369 0.98185 0.29062 0.0
H371 H 0.55861 0.95437 0.20283 0.0
H372 H 0.56341 0.99514 0.43047 0.0
H373 H 0.58328 0.0316 0.46773 0.0
C374 C 0.99538 0.35642 0.83462 0.0
C375 C 0.97556 0.38571 0.84115 0.0
C376 C 0.01547 0.41505 0.73436 0.0
C377 C 0.03343 0.38501 0.72235 0.0
N378 N 0.0363 0.32554 0.74177 0.0
N379 N 0.96389 0.44148 0.78136 0.0
C380 C 0.02182 0.35516 0.76579 0.0
C381 C 0.98477 0.41468 0.78654 0.0
N382 N 0.99081 0.33072 0.8994 0.0
N383 N 0.02827 0.44418 0.69832 0.0
H384 H 0.94146 0.44281 0.81884 0.0
H385 H 0.96749 0.46142 0.73333 0.0
H386 H 0.04976 0.445 0.65564 0.0
H387 H 0.01877 0.46756 0.71548 0.0
H388 H 0.00652 0.31012 0.90345 0.0
H389 H 0.97407 0.33177 0.95745 0.0
H390 H 0.02688 0.30253 0.76405 0.0
H391 H 0.05561 0.32391 0.69104 0.0
C392 C 0.35564 0.50315 0.12874 0.0
C393 C 0.38052 0.4789 0.1109 0.0
C394 C 0.40398 0.51507 0.98166 0.0
C395 C 0.37728 0.53764 0.99385 0.0
N396 N 0.32353 0.5493 0.06311 0.0
N397 N 0.42425 0.45917 1.00528 0.0
C398 C 0.35179 0.53044 0.06256 0.0
C399 C 0.40359 0.48418 0.03318 0.0
N400 N 0.33696 0.50124 0.21203 0.0
N401 N 0.43042 0.52356 0.92377 0.0
H402 H 0.42398 0.43617 0.03968 0.0
H403 H 0.43902 0.46012 0.94268 0.0
H404 H 0.43127 0.54551 0.88265 0.0
H405 H 0.45253 0.51002 0.92218 0.0
H406 H 0.32049 0.51984 0.23348 0.0
H407 H 0.34086 0.48295 0.26538 0.0
H408 H 0.30284 0.54361 0.10595 0.0
H409 H 0.31945 0.56842 1.01247 0.0
C410 C 0.52039 0.66151 0.03917 0.0
C411 C 0.53804 0.63086 0.03844 0.0
C412 C 0.49856 0.60878 0.91634 0.0
C413 C 0.47933 0.63829 0.92337 0.0
N414 N 0.46945 0.69122 1.00044 0.0
N415 N 0.54046 0.57315 0.99084 0.0
C416 C 0.48954 0.6642 0.98748 0.0
C417 C 0.52621 0.60392 0.98067 0.0
N418 N 0.53375 0.68859 0.08538 0.0
N419 N 0.49061 0.58546 0.84737 0.0
H420 H 0.56004 0.56831 0.03941 0.0
H421 H 0.53084 0.55168 0.95886 0.0
H422 H 0.47024 0.5878 0.8001 0.0
H423 H 0.5057 0.56515 0.83128 0.0
H424 H 0.52426 0.71261 0.07805 0.0
H425 H 0.55593 0.68774 0.12527 0.0
H426 H 0.47315 0.7088 0.05534 0.0
H427 H 0.44772 0.69492 0.96008 0.0
C428 C 0.65329 0.51799 0.04004 0.0
C429 C 0.63214 0.52479 0.12191 0.0
C430 C 0.6057 0.4701 0.10113 0.0
C431 C 0.62694 0.46293 1.02097 0.0
N432 N 0.67726 0.47616 0.93325 0.0
N433 N 0.60052 0.49973 0.25349 0.0
C434 C 0.65251 0.4858 0.99559 0.0
C435 C 0.61193 0.49862 0.15925 0.0
N436 N 0.67404 0.54184 1.00323 0.0
N437 N 0.57899 0.45012 0.12139 0.0
H438 H 0.60794 0.51808 0.30285 0.0
H439 H 0.58798 0.47994 0.28671 0.0
H440 H 0.57304 0.42908 0.08063 0.0
H441 H 0.56095 0.45634 0.17292 0.0
H442 H 0.6856 0.53987 0.93522 0.0
H443 H 0.67895 0.56428 0.03741 0.0
H444 H 0.6988 0.49004 0.92117 0.0
H445 H 0.67802 0.45272 0.90077 0.0
C446 C 0.48911 0.39946 0.06048 0.0
C447 C 0.47048 0.37081 0.08573 0.0
C448 C 0.51326 0.33613 1.00931 0.0
C449 C 0.52777 0.36513 0.96704 0.0
N450 N 0.52608 0.42478 0.94245 0.0
N451 N 0.4649 0.31117 0.08727 0.0
C452 C 0.51469 0.39694 0.9897 0.0
C453 C 0.48256 0.33884 0.06087 0.0
N454 N 0.48364 0.42873 0.108 0.0
N455 N 0.52954 0.30639 1.00434 0.0
H456 H 0.44398 0.31238 0.13228 0.0
H457 H 0.47019 0.28739 0.06148 0.0
H458 H 0.55284 0.30417 0.9721 0.0
H459 H 0.52171 0.28492 0.04077 0.0
H460 H 0.49851 0.44977 0.09815 0.0
H461 H 0.46652 0.43058 0.16498 0.0
H462 H 0.51496 0.44807 0.95023 0.0
H463 H 0.54483 0.42413 0.88975 0.0
C464 C 0.85966 0.49163 0.83519 0.0
C465 C 0.86594 0.46211 0.78217 0.0
C466 C 0.87194 0.4957 0.63084 0.0
C467 C 0.87217 0.52522 0.68794 0.0
N468 N 0.86879 0.55051 0.84766 0.0
N469 N 0.85875 0.43687 0.62346 0.0
C470 C 0.86638 0.52293 0.79069 0.0
C471 C 0.86686 0.46423 0.67779 0.0
N472 N 0.84392 0.49027 0.92376 0.0
N473 N 0.87654 0.4976 0.53166 0.0
H474 H 0.85006 0.41489 0.65519 0.0
H475 H 0.85607 0.43709 0.5475 0.0
H476 H 0.87638 0.52 0.49266 0.0
H477 H 0.88181 0.47701 0.48831 0.0
H478 H 0.83672 0.5114 0.96213 0.0
H479 H 0.83255 0.46875 0.95025 0.0
H480 H 0.8703 0.54952 0.92397 0.0
H481 H 0.872 0.57398 0.81794 0.0
C482 C 0.5186 0.09608 0.30145 0.0
C483 C 0.52911 0.12546 0.3512 0.0
C484 C 0.48467 0.15636 0.26357 0.0
C485 C 0.47147 0.12597 0.2283 0.0
N486 N 0.47399 0.06619 0.22057 0.0
N487 N 0.51895 0.18377 0.38517 0.0
C488 C 0.48794 0.09567 0.24923 0.0
C489 C 0.51158 0.15584 0.33266 0.0
N490 N 0.53885 0.06896 0.29864 0.0
N491 N 0.47127 0.18575 0.23146 0.0
H492 H 0.53772 0.18474 0.43759 0.0
H493 H 0.50452 0.20529 0.38319 0.0
H494 H 0.45137 0.18674 0.182 0.0
H495 H 0.48177 0.20894 0.24618 0.0
H496 H 0.53426 0.04819 0.25512 0.0
H497 H 0.56234 0.06919 0.32968 0.0
H498 H 0.48243 0.04304 0.24508 0.0
H499 H 0.45264 0.06499 0.17699 0.0
C500 C 0.106 0.53041 0.71586 0.0
C501 C 0.132 0.54052 0.7804 0.0
C502 C 0.16371 0.49027 0.73809 0.0
C503 C 0.13867 0.48146 0.66874 0.0
N504 N 0.0889 0.49601 0.57893 0.0
N505 N 0.18727 0.53223 0.84596 0.0
C506 C 0.11073 0.50247 0.65373 0.0
C507 C 0.16129 0.52096 0.78998 0.0
N508 N 0.07602 0.54657 0.71754 0.0
N509 N 0.18964 0.46902 0.75535 0.0
H510 H 0.18608 0.5539 0.88751 0.0
H511 H 0.21085 0.52149 0.84649 0.0
H512 H 0.193 0.44727 0.71557 0.0
H513 H 0.2066 0.47167 0.81274 0.0
H514 H 0.05486 0.53818 0.68069 0.0
H515 H 0.0712 0.5666 0.76368 0.0
H516 H 0.07018 0.51242 0.55711 0.0
H517 H 0.09111 0.47545 0.53304 0.0
C518 C 0.53035 0.89648 0.34812 0.0
C519 C 0.53928 0.87474 0.26877 0.0
C520 C 0.48726 0.84309 0.2994 0.0
C521 C 0.47713 0.86745 0.36801 0.0
N522 N 0.48583 0.92119 0.44132 0.0
N523 N 0.52655 0.82495 0.17636 0.0
C524 C 0.49776 0.89509 0.38769 0.0
C525 C 0.5176 0.84754 0.24601 0.0
N526 N 0.55268 0.91788 0.39041 0.0
N527 N 0.46848 0.81492 0.28842 0.0
H528 H 0.55075 0.82268 0.15047 0.0
H529 H 0.51002 0.80824 0.14413 0.0
H530 H 0.44619 0.81117 0.32562 0.0
H531 H 0.47572 0.79429 0.248 0.0
H532 H 0.54827 0.92912 0.45789 0.0
H533 H 0.57625 0.92358 0.36512 0.0
H534 H 0.49813 0.94402 0.44612 0.0
H535 H 0.46224 0.92147 0.47303 0.0
C536 C 0.8548 1.00089 0.63064 0.0
C537 C 0.88029 0.97718 0.61307 0.0
C538 C 0.89632 0.00777 0.46309 0.0
C539 C 0.87254 0.03258 0.48479 0.0
N540 N 0.82268 0.0479 0.56945 0.0
N541 N 0.92879 0.96095 0.52075 0.0
C542 C 0.84994 0.02775 0.56324 0.0
C543 C 0.9019 0.98133 0.53123 0.0
N544 N 0.83675 0.99896 0.71535 0.0
N545 N 0.91295 0.00895 0.37587 0.0
H546 H 0.93381 0.94156 0.56885 0.0
H547 H 0.94775 0.96499 0.47019 0.0
H548 H 0.90943 0.02793 0.32448 0.0
H549 H 0.92784 0.9897 0.35014 0.0
H550 H 0.82016 0.01721 0.73815 0.0
H551 H 0.84049 0.9804 0.76809 0.0
H552 H 0.80343 0.04448 0.61937 0.0
H553 H 0.81739 0.06577 0.51608 0.0
C554 C 0.02208 0.14849 0.50704 0.0
C555 C 0.03534 0.11919 0.55005 0.0
C556 C 0.98731 0.08763 0.48795 0.0
C557 C 0.97629 0.11609 0.43385 0.0
N558 N 0.98904 0.17155 0.37463 0.0
N559 N 0.03332 0.05957 0.56936 0.0
C560 C 0.99519 0.14607 0.43902 0.0
C561 C 0.01871 0.08837 0.53715 0.0
N562 N 0.03486 0.17878 0.53245 0.0
N563 N 0.96728 0.06032 0.49649 0.0
H564 H 0.05588 0.05925 0.6075 0.0
H565 H 0.02436 0.03596 0.55177 0.0
H566 H 0.94394 0.05901 0.46408 0.0
H567 H 0.9724 0.04041 0.54354 0.0
H568 H 0.02434 0.20129 0.50997 0.0
H569 H 0.05369 0.18125 0.58492 0.0
H570 H 0.00398 0.19273 0.36982 0.0
H571 H 0.97169 0.16981 0.31779 0.0
C572 C 0.15645 0.98795 0.49151 0.0
C573 C 0.13096 0.96478 0.5184 0.0
C574 C 0.114 0.00295 0.65167 0.0
C575 C 0.14043 0.02483 0.6277 0.0
N576 N 0.19116 0.03468 0.53951 0.0
N577 N 0.08944 0.94857 0.64011 0.0
C578 C 0.16274 0.0164 0.55145 0.0
C579 C 0.11118 0.97165 0.60353 0.0
N580 N 0.17531 0.9829 0.40966 0.0
N581 N 0.09014 0.01272 0.7169 0.0
H582 H 0.08188 0.92738 0.6034 0.0
H583 H 0.0796 0.94989 0.71061 0.0
H584 H 0.09112 0.03507 0.75526 0.0
H585 H 0.0677 1.00009 0.72659 0.0
H586 H 0.18994 1.00144 0.37787 0.0
H587 H 0.17592 0.96071 0.37086 0.0
H588 H 0.21057 0.02792 0.49331 0.0
H589 H 0.19693 0.05491 0.58372 0.0
C590 C 0.01802 0.90682 0.5075 0.0
C591 C 0.02686 0.87954 0.44654 0.0
C592 C 0.97866 0.84813 0.51042 0.0
C593 C 0.97184 0.8746 0.57575 0.0
N594 N 0.99093 0.92439 0.65624 0.0
N595 N 0.01551 0.82364 0.39008 0.0
C596 C 0.99345 0.90232 0.58071 0.0
C597 C 0.00737 0.8498 0.44904 0.0
N598 N 0.03189 0.93762 0.49424 0.0
N599 N 0.95706 0.82181 0.50562 0.0
H600 H 0.03287 0.82541 0.33377 0.0
H601 H 0.00541 0.79988 0.39752 0.0
H602 H 0.93733 0.81884 0.55453 0.0
H603 H 0.95777 0.80356 0.4518 0.0
H604 H 0.02245 0.95897 0.52724 0.0
H605 H 0.05159 0.94269 0.44741 0.0
H606 H 0.00839 0.94315 0.66886 0.0
H607 H 0.97342 0.92193 0.71194 0.0
C608 C 0.38631 0.23868 0.07498 0.0
C609 C 0.36644 0.21749 0.1337 0.0
C610 C 0.34311 0.26589 0.21799 0.0
C611 C 0.36157 0.28734 0.1561 0.0
N612 N 0.39342 0.29404 1.00687 0.0
N613 N 0.31871 0.21119 0.23897 0.0
C614 C 0.38111 0.27376 0.0789 0.0
C615 C 0.34246 0.23126 0.19807 0.0
N616 N 0.41055 0.22543 1.01716 0.0
N617 N 0.32692 0.27845 0.29754 0.0
H618 H 0.31682 0.18589 0.22271 0.0
H619 H 0.29883 0.22026 0.27978 0.0
H620 H 0.32783 0.30361 0.31585 0.0
H621 H 0.31549 0.26355 0.3504 0.0
H622 H 0.4284 0.23986 0.98139 0.0
H623 H 0.41383 0.19978 1.00967 0.0
H624 H 0.4049 0.28504 0.94397 0.0
H625 H 0.3899 0.31974 1.00604 0.0
C626 C 0.26978 0.66166 0.9456 0.0
C627 C 0.2876 0.63778 0.88979 0.0
C628 C 0.23492 0.61607 0.82575 0.0
C629 C 0.21714 0.63785 0.88893 0.0
N630 N 0.21742 0.67709 1.02117 0.0
N631 N 0.28741 0.58943 0.78643 0.0
C632 C 0.23458 0.65911 0.95332 0.0
C633 C 0.27024 0.61413 0.83256 0.0
N634 N 0.28651 0.68756 0.98811 0.0
N635 N 0.2181 0.59807 0.75665 0.0
H636 H 0.31338 0.58844 0.7858 0.0
H637 H 0.27595 0.56902 0.75361 0.0
H638 H 0.19219 0.59735 0.75288 0.0
H639 H 0.22977 0.5851 0.7005 0.0
H640 H 0.27468 0.7074 1.02228 0.0
H641 H 0.31212 0.69105 0.98004 0.0
H642 H 0.22889 0.69101 0.07602 0.0
H643 H 0.19161 0.67539 0.0283 0.0
C644 C 0.61709 0.7709 0.08319 0.0
C645 C 0.63836 0.78954 0.14518 0.0
C646 C 0.66129 0.73803 0.215 0.0
C647 C 0.64133 0.71913 0.15021 0.0
N648 N 0.60514 0.71757 1.00808 0.0
N649 N 0.68798 0.79098 0.24561 0.0
C650 C 0.62049 0.73553 0.0801 0.0
C651 C 0.66273 0.77308 0.20358 0.0
N652 N 0.59349 0.78696 0.02827 0.0
N653 N 0.67828 0.7225 0.2893 0.0
H654 H 0.69079 0.81656 0.23436 0.0
H655 H 0.70811 0.77997 0.28174 0.0
H656 H 0.67688 0.69687 0.3015 0.0
H657 H 0.69087 0.73534 0.34442 0.0
H658 H 0.57442 0.77469 0.99099 0.0
H659 H 0.59222 0.81288 1.02379 0.0
H660 H 0.59266 0.72835 0.9488 0.0
H661 H 0.6066 0.69174 1.00412 0.0
C662 C 0.77018 0.34356 0.83035 0.0
C663 C 0.78861 0.36502 0.89307 0.0
C664 C 0.73622 0.38462 0.96456 0.0
C665 C 0.71809 0.36449 0.89717 0.0
N666 N 0.71773 0.33334 0.74811 0.0
N667 N 0.78944 0.40823 1.01456 0.0
C668 C 0.73512 0.3468 0.82411 0.0
C669 C 0.77168 0.38628 0.95879 0.0
N670 N 0.78603 0.31873 0.7807 0.0
N671 N 0.71935 0.40162 0.03528 0.0
H672 H 0.81537 0.40809 1.01734 0.0
H673 H 0.77869 0.42724 0.05519 0.0
H674 H 0.6934 0.40299 0.03629 0.0
H675 H 0.7308 0.41352 0.0941 0.0
H676 H 0.77336 0.30066 0.74053 0.0
H677 H 0.8114 0.31381 0.78934 0.0
H678 H 0.72904 0.32267 0.68722 0.0
H679 H 0.69207 0.3363 0.74211 0.0
C680 C 0.86336 0.73884 0.55516 0.0
C681 C 0.86849 0.71875 0.63909 0.0
C682 C 0.87528 0.76864 0.74114 0.0
C683 C 0.86899 0.78869 0.65766 0.0
N684 N 0.87014 0.79325 0.48112 0.0
N685 N 0.89028 0.71408 0.80374 0.0
C686 C 0.86727 0.77385 0.56313 0.0
C687 C 0.87816 0.73356 0.7295 0.0
N688 N 0.8534 0.72469 0.46896 0.0
N689 N 0.87684 0.78284 0.83184 0.0
H690 H 0.89318 0.68845 0.79653 0.0
H691 H 0.90074 0.72367 0.86766 0.0
H692 H 0.87558 0.80854 0.842 0.0
H693 H 0.87742 0.76911 0.89688 0.0
H694 H 0.84547 0.7385 0.40831 0.0
H695 H 0.85112 0.69898 0.46034 0.0
H696 H 0.8719 0.78366 0.41049 0.0
H697 H 0.87469 0.81872 0.48532 0.0
C698 C 0.76551 0.10496 0.38696 0.0
C699 C 0.78665 0.13262 0.4039 0.0
C700 C 0.73894 0.16417 0.46726 0.0
C701 C 0.7175 0.13721 0.44499 0.0
N702 N 0.71351 0.07768 0.42701 0.0
N703 N 0.79352 0.18979 0.45376 0.0
C704 C 0.73149 0.10629 0.41644 0.0
C705 C 0.77329 0.16266 0.44204 0.0
N706 N 0.77796 0.07752 0.34125 0.0
N707 N 0.72663 0.18995 0.52091 0.0
H708 H 0.81892 0.18939 0.43849 0.0
H709 H 0.7849 0.21343 0.47128 0.0
H710 H 0.70257 0.18915 0.54944 0.0
H711 H 0.74084 0.20966 0.54736 0.0
H712 H 0.76321 0.05769 0.31797 0.0
H713 H 0.80261 0.07628 0.31768 0.0
H714 H 0.72313 0.05404 0.41419 0.0
H715 H 0.69073 0.07714 0.46281 0.0
C716 C 0.11656 0.26832 0.58316 0.0
C717 C 0.1369 0.28855 0.64328 0.0
C718 C 0.16002 0.23873 0.72337 0.0
C719 C 0.14174 0.21827 0.65836 0.0
N720 N 0.10783 0.214 0.51162 0.0
N721 N 0.18423 0.29305 0.75217 0.0
C722 C 0.12138 0.23314 0.58402 0.0
C723 C 0.1606 0.27371 0.70769 0.0
N724 N 0.09219 0.2826 0.52678 0.0
N725 N 0.1761 0.22479 0.80194 0.0
H726 H 0.18619 0.31861 0.7393 0.0
H727 H 0.20397 0.28327 0.79294 0.0
H728 H 0.17512 0.19932 0.81697 0.0
H729 H 0.18737 0.23871 0.85717 0.0
H730 H 0.07389 0.2689 0.49051 0.0
H731 H 0.08913 0.30836 0.52121 0.0
H732 H 0.09615 0.22392 0.44964 0.0
H733 H 0.11011 0.18822 0.50993 0.0
C734 C 0.26845 0.89313 0.45629 0.0
C735 C 0.28637 0.86805 0.40721 0.0
C736 C 0.23445 0.83757 0.37571 0.0
C737 C 0.21594 0.86524 0.41025 0.0
N738 N 0.21506 0.91841 0.49154 0.0
N739 N 0.28711 0.8163 0.31771 0.0
C740 C 0.23295 0.89287 0.4525 0.0
C741 C 0.26955 0.84025 0.36617 0.0
N742 N 0.28552 0.91633 0.5097 0.0
N743 N 0.21885 0.80784 0.3587 0.0
H744 H 0.31308 0.8154 0.31719 0.0
H745 H 0.27589 0.79814 0.27437 0.0
H746 H 0.19328 0.80435 0.36721 0.0
H747 H 0.23152 0.78576 0.34471 0.0
H748 H 0.27434 0.93402 0.55418 0.0
H749 H 0.31144 0.91602 0.51606 0.0
H750 H 0.22538 0.94089 0.51417 0.0
H751 H 0.18928 0.91768 0.49714 0.0
C752 C 0.24426 0.14872 0.84728 0.0
C753 C 0.23126 0.11836 0.81036 0.0
C754 C 0.26321 0.0881 0.93875 0.0
C755 C 0.27377 0.11881 0.98044 0.0
N756 N 0.26974 0.17839 0.98346 0.0
N757 N 0.22616 0.0589 0.82642 0.0
C758 C 0.26265 0.14909 0.93731 0.0
C759 C 0.24022 0.08795 0.85769 0.0
N760 N 0.23978 0.17723 0.79382 0.0
N761 N 0.27634 0.05904 0.97412 0.0
H762 H 0.21151 0.05765 0.76325 0.0
H763 H 0.22803 0.03645 0.86468 0.0
H764 H 0.29167 0.05823 0.03604 0.0
H765 H 0.27333 0.03612 0.93983 0.0
H766 H 0.25086 0.19991 0.8112 0.0
H767 H 0.22748 0.17725 0.72618 0.0
H768 H 0.25999 0.2013 0.96158 0.0
H769 H 0.28282 0.17916 0.0498 0.0
C770 C 0.14162 0.75109 0.06487 0.0
C771 C 0.1123 0.73199 0.0514 0.0
C772 C 0.08898 0.75621 0.20333 0.0
C773 C 0.11793 0.77614 0.21626 0.0
N774 N 0.17081 0.795 0.15083 0.0
N775 N 0.05696 0.71785 0.10819 0.0
C776 C 0.14397 0.77411 0.14452 0.0
C777 C 0.08588 0.73513 0.12008 0.0
N778 N 0.16805 0.74598 1.00376 0.0
N779 N 0.06342 0.75788 0.26884 0.0
H780 H 0.05194 0.70259 0.04817 0.0
H781 H 0.05194 0.70259 0.04817 0.0
H782 H 0.06438 0.7722 0.33215 0.0
H783 H 0.04149 0.74414 0.26073 0.0
H784 H 0.19199 0.7549 1.01702 0.0
H785 H 0.16638 0.73115 0.94128 0.0
H786 H 0.18794 0.79856 0.09466 0.0
H787 H 0.17523 0.81035 0.21063 0.0
C788 C 0.74566 0.91733 0.95666 0.0
C789 C 0.73277 0.88695 0.99424 0.0
C790 C 0.76569 0.85612 0.87238 0.0
C791 C 0.777 0.88669 0.83072 0.0
N792 N 0.77432 0.94645 0.82445 0.0
N793 N 0.72771 0.82742 0.98289 0.0
C794 C 0.76578 0.91733 0.87017 0.0
C795 C 0.74218 0.85633 0.9508 0.0
N796 N 0.73912 0.94614 1.00572 0.0
N797 N 0.77803 0.82674 0.83771 0.0
H798 H 0.71221 0.82647 0.04414 0.0
H799 H 0.72985 0.80472 0.94702 0.0
H800 H 0.79293 0.82549 0.77535 0.0
H801 H 0.7746 0.80383 0.87234 0.0
H802 H 0.74946 0.96915 0.9879 0.0
H803 H 0.72579 0.94621 0.07121 0.0
H804 H 0.76506 0.96967 0.84395 0.0
H805 H 0.78847 0.94704 0.76056 0.0
C806 C 0.91398 0.25915 0.10401 0.0
C807 C 0.88427 0.26984 0.05662 0.0
C808 C 0.85161 0.23706 0.1762 0.0
C809 C 0.88131 0.22819 0.2276 0.0
N810 N 0.94022 0.23519 0.24955 0.0
N811 N 0.82444 0.27236 0.05437 0.0
C812 C 0.91232 0.24076 0.19421 0.0
C813 C 0.85297 0.25961 0.09467 0.0
N814 N 0.94386 0.26637 0.06132 0.0
N815 N 0.82207 0.223 0.20387 0.0
H816 H 0.82451 0.28711 0.99104 0.0
H817 H 0.801 0.26961 0.0858 0.0
H818 H 0.81989 0.20813 0.26649 0.0
H819 H 0.80023 0.22475 0.16273 0.0
H820 H 0.96664 0.25736 0.08667 0.0
H821 H 0.94537 0.27893 0.99424 0.0
H822 H 0.96341 0.24558 0.23436 0.0
H823 H 0.93933 0.22259 0.31661 0.0
C824 C 0.26821 0.41356 0.37938 0.0
C825 C 0.27477 0.38423 0.32468 0.0
C826 C 0.24089 0.35206 0.44208 0.0
C827 C 0.23183 0.3817 0.49185 0.0
N828 N 0.23369 0.4416 0.49926 0.0
N829 N 0.26228 0.32683 0.2935 0.0
C830 C 0.24486 0.41272 0.45856 0.0
C831 C 0.25956 0.35385 0.35329 0.0
N832 N 0.285 0.44216 0.35711 0.0
N833 N 0.23184 0.32199 0.48119 0.0
H834 H 0.27496 0.32793 0.22687 0.0
H835 H 0.24941 0.30461 0.30472 0.0
H836 H 0.21879 0.32005 0.54711 0.0
H837 H 0.23997 0.29922 0.45408 0.0
H838 H 0.28499 0.4632 0.40144 0.0
H839 H 0.30021 0.44416 0.29569 0.0
H840 H 0.23876 0.46512 0.47041 0.0
H841 H 0.2178 0.44193 0.55936 0.0
C842 C 0.35407 0.7446 0.69282 0.0
C843 C 0.38472 0.73307 0.73278 0.0
C844 C 0.4146 0.76423 0.60254 0.0
C845 C 0.38377 0.77378 0.55881 0.0
N846 N 0.3242 0.7693 0.55451 0.0
N847 N 0.44429 0.72923 0.7203 0.0
C848 C 0.35355 0.76268 0.60195 0.0
C849 C 0.41504 0.74236 0.68628 0.0
N850 N 0.32536 0.73832 0.74323 0.0
N851 N 0.44353 0.77713 0.56602 0.0
H852 H 0.44562 0.71501 0.78446 0.0
H853 H 0.46682 0.73119 0.68317 0.0
H854 H 0.44418 0.79139 0.50187 0.0
H855 H 0.46651 0.77496 0.60113 0.0
H856 H 0.30222 0.74803 0.72387 0.0
H857 H 0.32535 0.72563 0.81031 0.0
H858 H 0.30121 0.75991 0.57629 0.0
H859 H 0.32338 0.78196 0.48742 0.0
C860 C 0.74616 0.64638 0.343 0.0
C861 C 0.73169 0.61602 0.31179 0.0
C862 C 0.76143 0.58671 0.44598 0.0
C863 C 0.77334 0.61767 0.48232 0.0
N864 N 0.77295 0.67746 0.47391 0.0
N865 N 0.72306 0.55736 0.33782 0.0
C866 C 0.76429 0.64763 0.43317 0.0
C867 C 0.73879 0.58614 0.36436 0.0
N868 N 0.74304 0.67395 0.28455 0.0
N869 N 0.77279 0.55777 0.48723 0.0
H870 H 0.70791 0.55582 0.2756 0.0
H871 H 0.72375 0.53559 0.37962 0.0
H872 H 0.78798 0.5574 0.54958 0.0
H873 H 0.76852 0.53435 0.45728 0.0
H874 H 0.75524 0.69638 0.29778 0.0
H875 H 0.73059 0.67324 0.21716 0.0
H876 H 0.76491 0.70041 0.44702 0.0
H877 H 0.78571 0.67899 0.54064 0.0
C878 C 0.64626 0.24477 0.61254 0.0
C879 C 0.61677 0.22731 0.58857 0.0
C880 C 0.58872 0.25548 0.72596 0.0
C881 C 0.61944 0.26971 0.75653 0.0
N882 N 0.67903 0.26906 0.74341 0.0
N883 N 0.56183 0.21012 0.64001 0.0
C884 C 0.64871 0.26156 0.70401 0.0
C885 C 0.5885 0.23091 0.65051 0.0
N886 N 0.67183 0.2457 0.54717 0.0
N887 N 0.55955 0.26623 0.76555 0.0
H888 H 0.56084 0.1917 0.58665 0.0
H889 H 0.54213 0.20942 0.68957 0.0
H890 H 0.55878 0.28424 0.81998 0.0
H891 H 0.53626 0.25916 0.73862 0.0
H892 H 0.69329 0.25989 0.558 0.0
H893 H 0.66988 0.23476 0.47806 0.0
H894 H 0.70141 0.26138 0.71235 0.0
H895 H 0.6813 0.27969 0.8129 0.0
C896 C 0.3881 0.13371 0.54703 0.0
C897 C 0.3578 0.11678 0.52349 0.0
C898 C 0.35271 0.09835 0.69468 0.0
C899 C 0.383 0.11534 0.71819 0.0
N900 N 0.42699 0.15286 0.67172 0.0
N901 N 0.31446 0.07843 0.56918 0.0
C902 C 0.39997 0.134 0.64561 0.0
C903 C 0.34107 0.09777 0.59577 0.0
N904 N 0.40683 0.14768 0.47397 0.0
N905 N 0.33367 0.08484 0.76783 0.0
H906 H 0.30433 0.07861 0.49855 0.0
H907 H 0.30373 0.06054 0.61471 0.0
H908 H 0.34062 0.08465 0.84137 0.0
H909 H 0.30951 0.07608 0.75745 0.0
H910 H 0.43109 0.15625 0.4834 0.0
H911 H 0.3993 0.14852 0.40111 0.0
H912 H 0.43781 0.17075 0.6264 0.0
H913 H 0.43763 0.15211 0.74167 0.0
C914 C 0.1366 0.62332 0.47777 0.0
C915 C 0.11219 0.64808 0.49843 0.0
C916 C 0.09084 0.64395 0.33028 0.0
C917 C 0.11669 0.62077 0.30781 0.0
N918 N 0.16637 0.59134 0.35568 0.0
N919 N 0.06841 0.68456 0.44436 0.0
C920 C 0.14013 0.61127 0.38046 0.0
C921 C 0.08978 0.65892 0.42479 0.0
N922 N 0.15579 0.61043 0.55185 0.0
N923 N 0.06741 0.65194 0.26105 0.0
H924 H 0.06694 0.69578 0.51307 0.0
H925 H 0.05378 0.69647 0.39174 0.0
H926 H 0.06837 0.64374 0.18913 0.0
H927 H 0.0458 0.66527 0.27557 0.0
H928 H 0.17048 0.58924 0.54471 0.0
H929 H 0.15561 0.61958 0.62296 0.0
H930 H 0.18683 0.58706 0.40121 0.0
H931 H 0.16868 0.58044 0.28673 0.0
C932 C 0.62476 0.87693 0.56142 0.0
C933 C 0.65338 0.89583 0.53408 0.0
C934 C 0.66042 0.91334 0.7046 0.0
C935 C 0.63006 0.89677 0.73061 0.0
N936 N 0.5801 0.86862 0.67829 0.0
N937 N 0.69463 0.93692 0.57508 0.0
C938 C 0.61139 0.88008 0.65746 0.0
C939 C 0.66995 0.91561 0.60427 0.0
N940 N 0.61037 0.85568 0.49581 0.0
N941 N 0.68143 0.92527 0.77533 0.0
H942 H 0.7032 0.93815 0.50298 0.0
H943 H 0.70478 0.95514 0.62046 0.0
H944 H 0.6769 0.92356 0.84998 0.0
H945 H 0.70527 0.93411 0.76039 0.0
H946 H 0.59192 0.83855 0.51446 0.0
H947 H 0.61875 0.85313 0.42434 0.0
H948 H 0.56367 0.8597 0.62522 0.0
H949 H 0.56914 0.87112 0.74708 0.0
C950 C 0.87701 0.34477 0.34383 0.0
C951 C 0.89239 0.37516 0.3147 0.0
C952 C 0.91313 0.383 0.48249 0.0
C953 C 0.90006 0.35106 0.51031 0.0
N954 N 0.87633 0.2987 0.4598 0.0
N955 N 0.93083 0.41954 0.35035 0.0
C956 C 0.8839 0.33117 0.4386 0.0
C957 C 0.91238 0.39296 0.38211 0.0
N958 N 0.85575 0.32878 0.28112 0.0
N959 N 0.92424 0.40516 0.55119 0.0
H960 H 0.92939 0.42894 0.27894 0.0
H961 H 0.94934 0.43069 0.39284 0.0
H962 H 0.92453 0.40089 0.62615 0.0
H963 H 0.93 0.42986 0.5347 0.0
H964 H 0.84128 0.30838 0.30162 0.0
H965 H 0.85027 0.33755 0.21087 0.0
H966 H 0.86777 0.28182 0.40769 0.0
H967 H 0.88202 0.2876 0.52719 0.0
C968 C 0.4 0.40376 0.64701 0.0
C969 C 0.37502 0.39408 0.57973 0.0
C970 C 0.33411 0.3912 0.7123 0.0
C971 C 0.35972 0.39758 0.7812 0.0
N972 N 0.4191 0.40146 0.81469 0.0
N973 N 0.32079 0.36969 0.55224 0.0
C974 C 0.39329 0.40173 0.74901 0.0
C975 C 0.34271 0.38537 0.61332 0.0
N976 N 0.42991 0.41548 0.61384 0.0
N977 N 0.30148 0.39146 0.74063 0.0
H978 H 0.32706 0.36281 0.48128 0.0
H979 H 0.29825 0.35973 0.5761 0.0
H980 H 0.29415 0.39622 0.81252 0.0
H981 H 0.2817 0.39029 0.69094 0.0
H982 H 0.44758 0.42651 0.65956 0.0
H983 H 0.43594 0.41664 0.53954 0.0
H984 H 0.44403 0.40101 0.79386 0.0
H985 H 0.41596 0.39792 0.88952 0.0
C986 C 0.37246 0.621 0.3069 0.0
C987 C 0.39103 0.6503 0.28282 0.0
C988 C 0.40844 0.6552 0.45469 0.0
C989 C 0.39144 0.62488 0.47759 0.0
N990 N 0.36172 0.57631 0.42377 0.0
N991 N 0.43157 0.69155 0.32915 0.0
C992 C 0.37458 0.60714 0.40317 0.0
C993 C 0.41063 0.66614 0.35532 0.0
N994 N 0.35269 0.60626 0.23782 0.0
N995 N 0.42093 0.67467 0.52815 0.0
H996 H 0.43274 0.70113 0.25793 0.0
H997 H 0.44955 0.70146 0.37598 0.0
H998 H 0.41944 0.66846 0.60212 0.0
H999 H 0.43029 0.69854 0.5166 0.0
H1000 H 0.33517 0.5879 0.25369 0.0
H1001 H 0.35239 0.61348 0.16473 0.0
H1002 H 0.35255 0.56011 0.37076 0.0
H1003 H 0.36278 0.56557 0.4936 0.0
C1004 C 0.66689 0.60145 0.68779 0.0
C1005 C 0.64782 0.61772 0.76006 0.0
C1006 C 0.60896 0.63831 0.63291 0.0
C1007 C 0.62623 0.61948 0.56186 0.0
N1008 N 0.67108 0.58195 0.52029 0.0
N1009 N 0.60023 0.65098 0.80452 0.0
C1010 C 0.65506 0.6007 0.58894 0.0
C1011 C 0.61876 0.63605 0.73332 0.0
N1012 N 0.69677 0.58748 0.71353 0.0
N1013 N 0.58353 0.65885 0.60393 0.0
H1014 H 0.60821 0.65269 0.877 0.0
H1015 H 0.57646 0.6606 0.79313 0.0
H1016 H 0.57472 0.65996 0.53187 0.0
H1017 H 0.57231 0.67622 0.64945 0.0
H1018 H 0.71393 0.57839 0.66338 0.0
H1019 H 0.70572 0.58733 0.78553 0.0
H1020 H 0.68942 0.56453 0.53723 0.0
H1021 H 0.66503 0.58235 0.44598 0.0
C1022 C 0.63529 0.35221 0.47412 0.0
C1023 C 0.61362 0.3791 0.49771 0.0
C1024 C 0.58742 0.37483 0.33472 0.0
C1025 C 0.61105 0.35003 0.30879 0.0
N1026 N 0.65848 0.31607 0.34992 0.0
N1027 N 0.57157 0.41843 0.44872 0.0
C1028 C 0.63517 0.339 0.37768 0.0
C1029 C 0.59021 0.39092 0.42753 0.0
N1030 N 0.655 0.33814 0.54495 0.0
N1031 N 0.56244 0.38317 0.27059 0.0
H1032 H 0.57344 0.43087 0.51554 0.0
H1033 H 0.5564 0.43071 0.39812 0.0
H1034 H 0.55986 0.37268 0.20135 0.0
H1035 H 0.54257 0.39861 0.2882 0.0
H1036 H 0.66791 0.31594 0.53624 0.0
H1037 H 0.65729 0.34754 0.61521 0.0
H1038 H 0.67981 0.31053 0.39049 0.0
H1039 H 0.65721 0.30342 0.28333 0.0
C1040 C 0.86997 0.65277 0.0803 0.0
C1041 C 0.85081 0.62663 0.0389 0.0
C1042 C 0.84984 0.59937 0.20016 0.0
C1043 C 0.87534 0.62145 0.23356 0.0
N1044 N 0.91184 0.66791 0.19984 0.0
N1045 N 0.82279 0.57379 0.06054 0.0
C1046 C 0.8859 0.64792 0.17216 0.0
C1047 C 0.84053 0.59963 0.09913 0.0
N1048 N 0.8721 0.68269 0.03256 0.0
N1049 N 0.83294 0.57962 0.26514 0.0
H1050 H 0.81391 0.57354 0.98877 0.0
H1051 H 0.81847 0.55166 0.09881 0.0
H1052 H 0.83722 0.5798 0.34048 0.0
H1053 H 0.81189 0.5659 0.24571 0.0
H1054 H 0.8836 0.70357 0.06272 0.0
H1055 H 0.85866 0.68759 0.96838 0.0
H1056 H 0.92249 0.68555 0.15315 0.0
H1057 H 0.92485 0.66465 0.26561 0.0
C1058 C 0.63137 0.15261 0.86653 0.0
C1059 C 0.61392 0.12327 0.83856 0.0
C1060 C 0.5963 0.11483 1.00867 0.0
C1061 C 0.611 0.14598 0.03487 0.0
N1062 N 0.6367 0.19745 0.9841 0.0
N1063 N 0.57517 0.07952 0.87871 0.0
C1064 C 0.62691 0.16569 0.96234 0.0
C1065 C 0.59485 0.10544 0.90829 0.0
N1066 N 0.65261 0.1678 0.80217 0.0
N1067 N 0.58556 0.09307 0.0793 0.0
H1068 H 0.57483 0.07075 0.80679 0.0
H1069 H 0.55753 0.06826 0.92393 0.0
H1070 H 0.58639 0.09795 0.15393 0.0
H1071 H 0.57858 0.0686 0.06449 0.0
H1072 H 0.66821 0.18748 0.82126 0.0
H1073 H 0.65718 0.1587 0.73222 0.0
H1074 H 0.64504 0.21442 0.93159 0.0
H1075 H 0.63329 0.20799 0.05312 0.0
C1076 C 0.15219 0.37024 0.19612 0.0
C1077 C 0.12361 0.38904 0.22268 0.0
C1078 C 0.11774 0.40865 0.05333 0.0
C1079 C 0.14837 0.39269 0.02877 0.0
N1080 N 0.19735 0.36274 0.08048 0.0
N1081 N 0.08237 0.43034 0.18153 0.0
C1082 C 0.16628 0.37465 0.10131 0.0
C1083 C 0.10745 0.40958 0.1528 0.0
N1084 N 0.16588 0.3481 0.26129 0.0
N1085 N 0.09717 0.42115 0.98187 0.0
H1086 H 0.07274 0.43027 0.25252 0.0
H1087 H 0.07266 0.44909 0.1367 0.0
H1088 H 0.10262 0.42093 0.90757 0.0
H1089 H 0.07293 0.42906 0.99542 0.0
H1090 H 0.18463 0.33138 0.24303 0.0
H1091 H 0.15658 0.34418 0.33155 0.0
H1092 H 0.21333 0.35258 0.13303 0.0
H1093 H 0.20853 0.3659 1.01208 0.0
C1094 C 0.40716 0.8398 0.93472 0.0
C1095 C 0.38749 0.85563 1.00653 0.0
C1096 C 0.37228 0.89948 0.88648 0.0
C1097 C 0.38919 0.88179 0.8125 0.0
N1098 N 0.4184 0.83194 0.76241 0.0
N1099 N 0.35006 0.90032 0.05107 0.0
C1100 C 0.40568 0.8512 0.8356 0.0
C1101 C 0.3696 0.88535 0.98236 0.0
N1102 N 0.42755 0.81398 0.96138 0.0
N1103 N 0.35994 0.93051 0.86588 0.0
H1104 H 0.34947 0.89297 0.12412 0.0
H1105 H 0.33303 0.91911 0.03506 0.0
H1106 H 0.36146 0.94144 0.7964 0.0
H1107 H 0.35074 0.94668 0.91863 0.0
H1108 H 0.44565 0.80406 0.91555 0.0
H1109 H 0.42813 0.80399 0.03219 0.0
H1110 H 0.4273 0.80789 0.77371 0.0
H1111 H 0.41768 0.83857 0.68864 0.0
C1112 C 0.84394 0.91458 0.21526 0.0
C1113 C 0.86242 0.89622 0.28539 0.0
C1114 C 0.90269 0.88024 0.15836 0.0
C1115 C 0.8823 0.89568 0.08652 0.0
N1116 N 0.83005 0.92243 0.04414 0.0
N1117 N 0.90803 0.85912 0.32415 0.0
C1118 C 0.85208 0.91171 0.1142 0.0
C1119 C 0.89141 0.87832 0.257 0.0
N1120 N 0.81879 0.93503 0.2453 0.0
N1121 N 0.93349 0.86863 0.13302 0.0
H1122 H 0.90169 0.85837 0.39787 0.0
H1123 H 0.92669 0.84229 0.30598 0.0
H1124 H 0.94258 0.86979 0.0615 0.0
H1125 H 0.95122 0.86052 0.18372 0.0
H1126 H 0.80695 0.95213 0.19923 0.0
H1127 H 0.81153 0.93686 0.31849 0.0
H1128 H 0.80637 0.93128 0.06033 0.0
H1129 H 0.83383 0.91967 0.9692 0.0
C1130 C 0.87854 0.15509 0.93656 0.0
C1131 C 0.89041 0.1234 0.96712 0.0
C1132 C 0.9073 0.11148 0.79891 0.0
C1133 C 0.89912 0.14496 0.77024 0.0
N1134 N 0.88309 0.2003 0.81894 0.0
N1135 N 0.92129 0.07364 0.93202 0.0
C1136 C 0.88651 0.16724 0.84133 0.0
C1137 C 0.90649 0.10236 0.89977 0.0
N1138 N 0.85888 0.17328 0.9977 0.0
N1139 N 0.91361 0.08745 0.73086 0.0
H1140 H 0.91972 0.06527 1.00447 0.0
H1141 H 0.93707 0.05945 0.88843 0.0
H1142 H 0.91396 0.09144 0.65588 0.0
H1143 H 0.91528 0.06221 0.74851 0.0
H1144 H 0.847 0.19521 0.9762 0.0
H1145 H 0.85138 0.16444 0.06612 0.0
H1146 H 0.87719 0.21828 0.87085 0.0
H1147 H 0.88958 0.21027 0.7508 0.0
C1148 C 0.10534 0.10346 0.13495 0.0
C1149 C 0.1224 0.12338 0.06502 0.0
C1150 C 0.16283 0.13997 0.19241 0.0
C1151 C 0.14729 0.11806 0.25959 0.0
N1152 N 0.10599 0.07575 0.29352 0.0
N1153 N 0.17194 0.15573 1.02446 0.0
C1154 C 0.11938 0.09862 0.23021 0.0
C1155 C 0.15227 0.14048 0.09289 0.0
N1156 N 0.07482 0.09046 0.1116 0.0
N1157 N 0.18761 0.16082 0.22405 0.0
H1158 H 0.16565 0.15856 0.95131 0.0
H1159 H 0.19612 0.16379 0.03898 0.0
H1160 H 0.19804 0.15939 0.2942 0.0
H1161 H 0.19649 0.18082 0.18272 0.0
H1162 H 0.0593 0.07871 0.16206 0.0
H1163 H 0.06344 0.09421 0.04347 0.0
H1164 H 0.08818 0.05825 0.27288 0.0
H1165 H 0.11435 0.07235 0.36528 0.0
C1166 C 0.08386 0.83855 0.85284 0.0
C1167 C 0.10332 0.85399 0.77951 0.0
C1168 C 0.12397 0.89467 0.90029 0.0
C1169 C 0.10669 0.87761 0.97583 0.0
N1170 N 0.07634 0.8279 0.02568 0.0
N1171 N 0.14771 0.89208 0.73757 0.0
C1172 C 0.0882 0.8481 0.9527 0.0
C1173 C 0.12509 0.8807 0.8045 0.0
N1174 N 0.06084 0.81502 0.82713 0.0
N1175 N 0.13832 0.92488 0.91889 0.0
H1176 H 0.15031 0.88163 0.6683 0.0
H1177 H 0.16623 0.90937 0.75415 0.0
H1178 H 0.13779 0.93603 0.98778 0.0
H1179 H 0.14791 0.94029 0.86412 0.0
H1180 H 0.04307 0.80569 0.87553 0.0
H1181 H 0.05793 0.80663 0.75527 0.0
H1182 H 0.06639 0.80434 1.01283 0.0
H1183 H 0.07934 0.83276 0.09989 0.0
loop_
_geom_bond_atom_site_label_1
_geom_bond_atom_site_label_2
_geom_bond_distance
_geom_bond_site_symmetry_2
_ccdc_geom_bond_type
Dy0 O4 2.398 . S
Dy0 O5 2.491 . S
Dy0 O6 2.403 . S
Dy0 O7 2.664 . S
Dy0 O11 2.326 . S
Dy0 O15 2.310 . S
Dy0 O16 2.351 . S
C1 O12 1.185 . S
C1 O13 1.355 . S
C2 O4 1.185 . S
C2 O5 1.355 . S
Dy3 O7 2.310 . S
Dy3 O10 2.351 . S
Dy3 O12 2.398 1_554 S
Dy3 O13 2.491 1_554 S
Dy3 O14 2.403 . S
Dy3 O15 2.664 . S
Dy3 O17 2.326 1_554 S
O4 Dy0 2.398 . S
O4 C2 1.185 . S
O5 Dy0 2.491 . S
O5 C2 1.355 . S
O6 Dy0 2.403 . S
O6 C8 1.254 . S
O7 Dy0 2.664 . S
O7 Dy3 2.310 . S
O7 C8 1.268 . S
C8 O6 1.254 . S
C8 O7 1.268 . S
C9 O14 1.254 . S
C9 O15 1.268 . S
O10 Dy3 2.351 . S
O10 C18 1.249 . S
O11 Dy0 2.326 . S
O11 C18 1.267 . S
O12 C1 1.185 . S
O12 Dy3 2.398 1_556 S
O13 C1 1.355 . S
O13 Dy3 2.491 1_556 S
O14 Dy3 2.403 . S
O14 C9 1.254 . S
O15 Dy0 2.310 . S
O15 Dy3 2.664 . S
O15 C9 1.268 . S
O16 Dy0 2.351 . S
O16 C19 1.249 . S
O17 Dy3 2.326 1_556 S
O17 C19 1.266 1_556 S
C18 O10 1.249 . S
C18 O11 1.267 . S
C19 O16 1.249 . S
C19 O17 1.266 1_554 S
Dy20 O24 2.398 1_556 S
Dy20 O25 2.491 1_556 S
Dy20 O26 2.403 . S
Dy20 O27 2.664 . S
Dy20 O31 2.326 1_556 S
Dy20 O35 2.310 . S
Dy20 O36 2.351 . S
C21 O32 1.185 . S
C21 O33 1.355 . S
C22 O24 1.185 . S
C22 O25 1.355 . S
Dy23 O27 2.310 . S
Dy23 O30 2.351 . S
Dy23 O32 2.398 . S
Dy23 O33 2.491 . S
Dy23 O34 2.403 . S
Dy23 O35 2.664 . S
Dy23 O37 2.326 . S
O24 Dy20 2.398 1_554 S
O24 C22 1.185 . S
O25 Dy20 2.491 1_554 S
O25 C22 1.355 . S
O26 Dy20 2.403 . S
O26 C28 1.254 . S
O27 Dy20 2.664 . S
O27 Dy23 2.310 . S
O27 C28 1.268 . S
C28 O26 1.254 . S
C28 O27 1.268 . S
C29 O34 1.254 . S
C29 O35 1.268 . S
O30 Dy23 2.351 . S
O30 C38 1.249 . S
O31 Dy20 2.326 1_554 S
O31 C38 1.266 1_554 S
O32 C21 1.185 . S
O32 Dy23 2.398 . S
O33 C21 1.355 . S
O33 Dy23 2.491 . S
O34 Dy23 2.403 . S
O34 C29 1.254 . S
O35 Dy20 2.310 . S
O35 Dy23 2.664 . S
O35 C29 1.268 . S
O36 Dy20 2.351 . S
O36 C39 1.249 . S
O37 Dy23 2.326 . S
O37 C39 1.267 . S
C38 O30 1.249 . S
C38 O31 1.266 1_556 S
C39 O36 1.249 . S
C39 O37 1.267 . S
Dy40 O44 2.398 . S
Dy40 O45 2.491 . S
Dy40 O46 2.403 . S
Dy40 O47 2.664 . S
Dy40 O51 2.326 . S
Dy40 O55 2.310 . S
Dy40 O56 2.351 . S
C41 O52 1.185 . S
C41 O53 1.355 . S
C42 O44 1.185 . S
C42 O45 1.355 . S
Dy43 O47 2.310 . S
Dy43 O50 2.351 . S
Dy43 O52 2.398 1_554 S
Dy43 O53 2.491 1_554 S
Dy43 O54 2.403 . S
Dy43 O55 2.664 . S
Dy43 O57 2.326 1_554 S
O44 Dy40 2.398 . S
O44 C42 1.185 . S
O45 Dy40 2.491 . S
O45 C42 1.355 . S
O46 Dy40 2.403 . S
O46 C48 1.254 . S
O47 Dy40 2.664 . S
O47 Dy43 2.310 . S
O47 C48 1.268 . S
C48 O46 1.254 . S
C48 O47 1.268 . S
C49 O54 1.254 . S
C49 O55 1.268 . S
O50 Dy43 2.351 . S
O50 C58 1.249 . S
O51 Dy40 2.326 . S
O51 C58 1.267 . S
O52 C41 1.185 . S
O52 Dy43 2.398 1_556 S
O53 C41 1.355 . S
O53 Dy43 2.491 1_556 S
O54 Dy43 2.403 . S
O54 C49 1.254 . S
O55 Dy40 2.310 . S
O55 Dy43 2.664 . S
O55 C49 1.268 . S
O56 Dy40 2.351 . S
O56 C59 1.249 . S
O57 Dy43 2.326 1_556 S
O57 C59 1.266 1_556 S
C58 O50 1.249 . S
C58 O51 1.267 . S
C59 O56 1.249 . S
C59 O57 1.266 1_554 S
Dy60 O64 2.398 1_556 S
Dy60 O65 2.491 1_556 S
Dy60 O66 2.403 . S
Dy60 O67 2.664 . S
Dy60 O71 2.326 1_556 S
Dy60 O75 2.310 . S
Dy60 O76 2.351 . S
C61 O72 1.185 . S
C61 O73 1.355 . S
C62 O64 1.185 . S
C62 O65 1.355 . S
Dy63 O67 2.310 . S
Dy63 O70 2.351 . S
Dy63 O72 2.398 . S
Dy63 O73 2.491 . S
Dy63 O74 2.403 . S
Dy63 O75 2.664 . S
Dy63 O77 2.326 . S
O64 Dy60 2.398 1_554 S
O64 C62 1.185 . S
O65 Dy60 2.491 1_554 S
O65 C62 1.355 . S
O66 Dy60 2.403 . S
O66 C68 1.254 . S
O67 Dy60 2.664 . S
O67 Dy63 2.310 . S
O67 C68 1.268 . S
C68 O66 1.254 . S
C68 O67 1.268 . S
C69 O74 1.254 . S
C69 O75 1.268 . S
O70 Dy63 2.351 . S
O70 C78 1.249 . S
O71 Dy60 2.326 1_554 S
O71 C78 1.266 1_554 S
O72 C61 1.185 . S
O72 Dy63 2.398 . S
O73 C61 1.355 . S
O73 Dy63 2.491 . S
O74 Dy63 2.403 . S
O74 C69 1.254 . S
O75 Dy60 2.310 . S
O75 Dy63 2.664 . S
O75 C69 1.268 . S
O76 Dy60 2.351 . S
O76 C79 1.249 . S
O77 Dy63 2.326 . S
O77 C79 1.267 . S
C78 O70 1.249 . S
C78 O71 1.266 1_556 S
C79 O76 1.249 . S
C79 O77 1.267 . S
Dy80 O84 2.398 1_554 S
Dy80 O85 2.491 1_554 S
Dy80 O86 2.403 . S
Dy80 O87 2.664 . S
Dy80 O91 2.326 1_554 S
Dy80 O95 2.310 . S
Dy80 O96 2.351 . S
C81 O92 1.185 . S
C81 O93 1.355 . S
C82 O84 1.185 . S
C82 O85 1.355 . S
Dy83 O87 2.310 . S
Dy83 O90 2.351 . S
Dy83 O92 2.398 . S
Dy83 O93 2.491 . S
Dy83 O94 2.403 . S
Dy83 O95 2.664 . S
Dy83 O97 2.326 . S
O84 Dy80 2.398 1_556 S
O84 C82 1.185 . S
O85 Dy80 2.491 1_556 S
O85 C82 1.355 . S
O86 Dy80 2.403 . S
O86 C88 1.254 . S
O87 Dy80 2.664 . S
O87 Dy83 2.310 . S
O87 C88 1.268 . S
C88 O86 1.254 . S
C88 O87 1.268 . S
C89 O94 1.254 . S
C89 O95 1.268 . S
O90 Dy83 2.351 . S
O90 C98 1.249 . S
O91 Dy80 2.326 1_556 S
O91 C98 1.267 1_556 S
O92 C81 1.185 . S
O92 Dy83 2.398 . S
O93 C81 1.355 . S
O93 Dy83 2.491 . S
O94 Dy83 2.403 . S
O94 C89 1.254 . S
O95 Dy80 2.310 . S
O95 Dy83 2.664 . S
O95 C89 1.268 . S
O96 Dy80 2.351 . S
O96 C99 1.249 . S
O97 Dy83 2.326 . S
O97 C99 1.267 . S
C98 O90 1.249 . S
C98 O91 1.267 1_554 S
C99 O96 1.249 . S
C99 O97 1.267 . S
Dy100 O104 2.398 . S
Dy100 O105 2.491 . S
Dy100 O106 2.403 . S
Dy100 O107 2.664 . S
Dy100 O111 2.326 . S
Dy100 O115 2.310 . S
Dy100 O116 2.351 . S
C101 O112 1.185 . S
C101 O113 1.355 . S
C102 O104 1.185 . S
C102 O105 1.355 . S
Dy103 O107 2.310 . S
Dy103 O110 2.351 . S
Dy103 O112 2.398 1_556 S
Dy103 O113 2.491 1_556 S
Dy103 O114 2.403 . S
Dy103 O115 2.664 . S
Dy103 O117 2.326 1_556 S
O104 Dy100 2.398 . S
O104 C102 1.185 . S
O105 Dy100 2.491 . S
O105 C102 1.355 . S
O106 Dy100 2.403 . S
O106 C108 1.254 . S
O107 Dy100 2.664 . S
O107 Dy103 2.310 . S
O107 C108 1.268 . S
C108 O106 1.254 . S
C108 O107 1.268 . S
C109 O114 1.254 . S
C109 O115 1.268 . S
O110 Dy103 2.351 . S
O110 C118 1.249 . S
O111 Dy100 2.326 . S
O111 C118 1.267 . S
O112 C101 1.185 . S
O112 Dy103 2.398 1_554 S
O113 C101 1.355 . S
O113 Dy103 2.491 1_554 S
O114 Dy103 2.403 . S
O114 C109 1.254 . S
O115 Dy100 2.310 . S
O115 Dy103 2.664 . S
O115 C109 1.268 . S
O116 Dy100 2.351 . S
O116 C119 1.249 . S
O117 Dy103 2.326 1_554 S
O117 C119 1.267 1_554 S
C118 O110 1.249 . S
C118 O111 1.267 . S
C119 O116 1.249 . S
C119 O117 1.267 1_556 S
Dy120 O124 2.398 1_554 S
Dy120 O125 2.491 1_554 S
Dy120 O126 2.403 . S
Dy120 O127 2.664 . S
Dy120 O131 2.326 1_554 S
Dy120 O135 2.310 . S
Dy120 O136 2.351 . S
C121 O132 1.185 . S
C121 O133 1.355 . S
C122 O124 1.185 . S
C122 O125 1.355 . S
Dy123 O127 2.310 . S
Dy123 O130 2.351 . S
Dy123 O132 2.398 . S
Dy123 O133 2.491 . S
Dy123 O134 2.403 . S
Dy123 O135 2.664 . S
Dy123 O137 2.326 . S
O124 Dy120 2.398 1_556 S
O124 C122 1.185 . S
O125 Dy120 2.491 1_556 S
O125 C122 1.355 . S
O126 Dy120 2.403 . S
O126 C128 1.254 . S
O127 Dy120 2.664 . S
O127 Dy123 2.310 . S
O127 C128 1.268 . S
C128 O126 1.254 . S
C128 O127 1.268 . S
C129 O134 1.254 . S
C129 O135 1.268 . S
O130 Dy123 2.351 . S
O130 C138 1.249 . S
O131 Dy120 2.326 1_556 S
O131 C138 1.267 1_556 S
O132 C121 1.185 . S
O132 Dy123 2.398 . S
O133 C121 1.355 . S
O133 Dy123 2.491 . S
O134 Dy123 2.403 . S
O134 C129 1.254 . S
O135 Dy120 2.310 . S
O135 Dy123 2.664 . S
O135 C129 1.268 . S
O136 Dy120 2.351 . S
O136 C139 1.249 . S
O137 Dy123 2.326 . S
O137 C139 1.267 . S
C138 O130 1.249 . S
C138 O131 1.267 1_554 S
C139 O136 1.249 . S
C139 O137 1.267 . S
Dy140 O144 2.398 . S
Dy140 O145 2.491 . S
Dy140 O146 2.403 . S
Dy140 O147 2.664 . S
Dy140 O151 2.326 . S
Dy140 O155 2.310 . S
Dy140 O156 2.351 . S
C141 O152 1.185 . S
C141 O153 1.355 . S
C142 O144 1.185 . S
C142 O145 1.355 . S
Dy143 O147 2.310 . S
Dy143 O150 2.351 . S
Dy143 O152 2.398 1_556 S
Dy143 O153 2.491 1_556 S
Dy143 O154 2.403 . S
Dy143 O155 2.664 . S
Dy143 O157 2.326 1_556 S
O144 Dy140 2.398 . S
O144 C142 1.185 . S
O145 Dy140 2.491 . S
O145 C142 1.355 . S
O146 Dy140 2.403 . S
O146 C148 1.254 . S
O147 Dy140 2.664 . S
O147 Dy143 2.310 . S
O147 C148 1.268 . S
C148 O146 1.254 . S
C148 O147 1.268 . S
C149 O154 1.254 . S
C149 O155 1.268 . S
O150 Dy143 2.351 . S
O150 C158 1.249 . S
O151 Dy140 2.326 . S
O151 C158 1.267 . S
O152 C141 1.185 . S
O152 Dy143 2.398 1_554 S
O153 C141 1.355 . S
O153 Dy143 2.491 1_554 S
O154 Dy143 2.403 . S
O154 C149 1.254 . S
O155 Dy140 2.310 . S
O155 Dy143 2.664 . S
O155 C149 1.268 . S
O156 Dy140 2.351 . S
O156 C159 1.249 . S
O157 Dy143 2.326 1_554 S
O157 C159 1.267 1_554 S
C158 O150 1.249 . S
C158 O151 1.267 . S
C159 O156 1.249 . S
C159 O157 1.267 1_556 S
Dy160 O164 2.398 . S
Dy160 O165 2.491 . S
Dy160 O166 2.403 . S
Dy160 O167 2.664 . S
Dy160 O171 2.326 . S
Dy160 O175 2.310 . S
Dy160 O176 2.351 . S
C161 O172 1.185 . S
C161 O173 1.355 . S
C162 O164 1.185 . S
C162 O165 1.355 . S
Dy163 O167 2.310 . S
Dy163 O170 2.351 . S
Dy163 O172 2.398 . S
Dy163 O173 2.491 . S
Dy163 O174 2.403 . S
Dy163 O175 2.664 . S
Dy163 O177 2.326 . S
O164 Dy160 2.398 . S
O164 C162 1.185 . S
O165 Dy160 2.491 . S
O165 C162 1.355 . S
O166 Dy160 2.403 . S
O166 C168 1.254 . S
O167 Dy160 2.664 . S
O167 Dy163 2.310 . S
O167 C168 1.268 . S
C168 O166 1.254 . S
C168 O167 1.268 . S
C169 O174 1.254 . S
C169 O175 1.268 . S
O170 Dy163 2.351 . S
O170 C178 1.249 . S
O171 Dy160 2.326 . S
O171 C178 1.267 . S
O172 C161 1.185 . S
O172 Dy163 2.398 . S
O173 C161 1.355 . S
O173 Dy163 2.491 . S
O174 Dy163 2.403 . S
O174 C169 1.254 . S
O175 Dy160 2.310 . S
O175 Dy163 2.664 . S
O175 C169 1.268 . S
O176 Dy160 2.351 . S
O176 C179 1.249 . S
O177 Dy163 2.326 . S
O177 C179 1.267 . S
C178 O170 1.249 . S
C178 O171 1.267 . S
C179 O176 1.249 . S
C179 O177 1.267 . S
Dy180 O184 2.398 . S
Dy180 O185 2.491 . S
Dy180 O186 2.403 . S
Dy180 O187 2.664 . S
Dy180 O191 2.326 . S
Dy180 O195 2.310 . S
Dy180 O196 2.351 . S
C181 O192 1.185 . S
C181 O193 1.355 . S
C182 O184 1.185 . S
C182 O185 1.355 . S
Dy183 O187 2.310 . S
Dy183 O190 2.351 . S
Dy183 O192 2.398 . S
Dy183 O193 2.491 . S
Dy183 O194 2.403 . S
Dy183 O195 2.664 . S
Dy183 O197 2.326 . S
O184 Dy180 2.398 . S
O184 C182 1.185 . S
O185 Dy180 2.491 . S
O185 C182 1.355 . S
O186 Dy180 2.403 . S
O186 C188 1.254 . S
O187 Dy180 2.664 . S
O187 Dy183 2.310 . S
O187 C188 1.268 . S
C188 O186 1.254 . S
C188 O187 1.268 . S
C189 O194 1.254 . S
C189 O195 1.268 . S
O190 Dy183 2.351 . S
O190 C198 1.249 . S
O191 Dy180 2.326 . S
O191 C198 1.267 . S
O192 C181 1.185 . S
O192 Dy183 2.398 . S
O193 C181 1.355 . S
O193 Dy183 2.491 . S
O194 Dy183 2.403 . S
O194 C189 1.254 . S
O195 Dy180 2.310 . S
O195 Dy183 2.664 . S
O195 C189 1.268 . S
O196 Dy180 2.351 . S
O196 C199 1.249 . S
O197 Dy183 2.326 . S
O197 C199 1.267 . S
C198 O190 1.249 . S
C198 O191 1.267 . S
C199 O196 1.249 . S
C199 O197 1.267 . S
Dy200 O204 2.398 . S
Dy200 O205 2.491 . S
Dy200 O206 2.403 . S
Dy200 O207 2.664 . S
Dy200 O211 2.326 . S
Dy200 O215 2.310 . S
Dy200 O216 2.351 . S
C201 O212 1.185 . S
C201 O213 1.355 . S
C202 O204 1.185 . S
C202 O205 1.355 . S
Dy203 O207 2.310 . S
Dy203 O210 2.351 . S
Dy203 O212 2.398 . S
Dy203 O213 2.491 . S
Dy203 O214 2.403 . S
Dy203 O215 2.664 . S
Dy203 O217 2.326 . S
O204 Dy200 2.398 . S
O204 C202 1.185 . S
O205 Dy200 2.491 . S
O205 C202 1.355 . S
O206 Dy200 2.403 . S
O206 C208 1.254 . S
O207 Dy200 2.664 . S
O207 Dy203 2.310 . S
O207 C208 1.268 . S
C208 O206 1.254 . S
C208 O207 1.268 . S
C209 O214 1.254 . S
C209 O215 1.268 . S
O210 Dy203 2.351 . S
O210 C218 1.249 . S
O211 Dy200 2.326 . S
O211 C218 1.267 . S
O212 C201 1.185 . S
O212 Dy203 2.398 . S
O213 C201 1.355 . S
O213 Dy203 2.491 . S
O214 Dy203 2.403 . S
O214 C209 1.254 . S
O215 Dy200 2.310 . S
O215 Dy203 2.664 . S
O215 C209 1.268 . S
O216 Dy200 2.351 . S
O216 C219 1.249 . S
O217 Dy203 2.326 . S
O217 C219 1.267 . S
C218 O210 1.249 . S
C218 O211 1.267 . S
C219 O216 1.249 . S
C219 O217 1.267 . S
Dy220 O224 2.398 . S
Dy220 O225 2.491 . S
Dy220 O226 2.403 . S
Dy220 O227 2.664 . S
Dy220 O231 2.326 . S
Dy220 O235 2.310 . S
Dy220 O236 2.351 . S
C221 O232 1.185 . S
C221 O233 1.355 . S
C222 O224 1.185 . S
C222 O225 1.355 . S
Dy223 O227 2.310 . S
Dy223 O230 2.351 . S
Dy223 O232 2.398 . S
Dy223 O233 2.491 . S
Dy223 O234 2.403 . S
Dy223 O235 2.664 . S
Dy223 O237 2.326 . S
O224 Dy220 2.398 . S
O224 C222 1.185 . S
O225 Dy220 2.491 . S
O225 C222 1.355 . S
O226 Dy220 2.403 . S
O226 C228 1.254 . S
O227 Dy220 2.664 . S
O227 Dy223 2.310 . S
O227 C228 1.268 . S
C228 O226 1.254 . S
C228 O227 1.268 . S
C229 O234 1.254 . S
C229 O235 1.268 . S
O230 Dy223 2.351 . S
O230 C238 1.249 . S
O231 Dy220 2.326 . S
O231 C238 1.267 . S
O232 C221 1.185 . S
O232 Dy223 2.398 . S
O233 C221 1.355 . S
O233 Dy223 2.491 . S
O234 Dy223 2.403 . S
O234 C229 1.254 . S
O235 Dy220 2.310 . S
O235 Dy223 2.664 . S
O235 C229 1.268 . S
O236 Dy220 2.351 . S
O236 C239 1.249 . S
O237 Dy223 2.326 . S
O237 C239 1.267 . S
C238 O230 1.249 . S
C238 O231 1.267 . S
C239 O236 1.249 . S
C239 O237 1.267 . S
Dy240 O244 2.398 . S
Dy240 O245 2.491 . S
Dy240 O246 2.403 . S
Dy240 O247 2.664 . S
Dy240 O251 2.326 . S
Dy240 O255 2.310 . S
Dy240 O256 2.351 . S
C241 O252 1.185 . S
C241 O253 1.355 . S
C242 O244 1.185 . S
C242 O245 1.355 . S
Dy243 O247 2.310 . S
Dy243 O250 2.351 . S
Dy243 O252 2.398 . S
Dy243 O253 2.491 . S
Dy243 O254 2.403 . S
Dy243 O255 2.664 . S
Dy243 O257 2.326 . S
O244 Dy240 2.398 . S
O244 C242 1.185 . S
O245 Dy240 2.491 . S
O245 C242 1.355 . S
O246 Dy240 2.403 . S
O246 C248 1.254 . S
O247 Dy240 2.664 . S
O247 Dy243 2.310 . S
O247 C248 1.268 . S
C248 O246 1.254 . S
C248 O247 1.268 . S
C249 O254 1.254 . S
C249 O255 1.268 . S
O250 Dy243 2.351 . S
O250 C258 1.249 . S
O251 Dy240 2.326 . S
O251 C258 1.267 . S
O252 C241 1.185 . S
O252 Dy243 2.398 . S
O253 C241 1.355 . S
O253 Dy243 2.491 . S
O254 Dy243 2.403 . S
O254 C249 1.254 . S
O255 Dy240 2.310 . S
O255 Dy243 2.664 . S
O255 C249 1.268 . S
O256 Dy240 2.351 . S
O256 C259 1.249 . S
O257 Dy243 2.326 . S
O257 C259 1.267 . S
C258 O250 1.249 . S
C258 O251 1.267 . S
C259 O256 1.249 . S
C259 O257 1.267 . S
Dy260 O264 2.398 . S
Dy260 O265 2.491 . S
Dy260 O266 2.403 . S
Dy260 O267 2.664 . S
Dy260 O271 2.326 . S
Dy260 O275 2.310 . S
Dy260 O276 2.351 . S
C261 O272 1.185 . S
C261 O273 1.355 . S
C262 O264 1.185 . S
C262 O265 1.355 . S
Dy263 O267 2.310 . S
Dy263 O270 2.351 . S
Dy263 O272 2.398 . S
Dy263 O273 2.491 . S
Dy263 O274 2.403 . S
Dy263 O275 2.664 . S
Dy263 O277 2.326 . S
O264 Dy260 2.398 . S
O264 C262 1.185 . S
O265 Dy260 2.491 . S
O265 C262 1.355 . S
O266 Dy260 2.403 . S
O266 C268 1.254 . S
O267 Dy260 2.664 . S
O267 Dy263 2.310 . S
O267 C268 1.268 . S
C268 O266 1.254 . S
C268 O267 1.268 . S
C269 O274 1.254 . S
C269 O275 1.268 . S
O270 Dy263 2.351 . S
O270 C278 1.249 . S
O271 Dy260 2.326 . S
O271 C278 1.267 . S
O272 C261 1.185 . S
O272 Dy263 2.398 . S
O273 C261 1.355 . S
O273 Dy263 2.491 . S
O274 Dy263 2.403 . S
O274 C269 1.254 . S
O275 Dy260 2.310 . S
O275 Dy263 2.664 . S
O275 C269 1.268 . S
O276 Dy260 2.351 . S
O276 C279 1.249 . S
O277 Dy263 2.326 . S
O277 C279 1.267 . S
C278 O270 1.249 . S
C278 O271 1.267 . S
C279 O276 1.249 . S
C279 O277 1.267 . S
Dy280 O284 2.398 . S
Dy280 O285 2.491 . S
Dy280 O286 2.403 . S
Dy280 O287 2.664 . S
Dy280 O291 2.326 . S
Dy280 O295 2.310 . S
Dy280 O296 2.351 . S
C281 O292 1.185 . S
C281 O293 1.355 . S
C282 O284 1.185 . S
C282 O285 1.355 . S
Dy283 O287 2.310 . S
Dy283 O290 2.351 . S
Dy283 O292 2.398 . S
Dy283 O293 2.491 . S
Dy283 O294 2.403 . S
Dy283 O295 2.664 . S
Dy283 O297 2.326 . S
O284 Dy280 2.398 . S
O284 C282 1.185 . S
O285 Dy280 2.491 . S
O285 C282 1.355 . S
O286 Dy280 2.403 . S
O286 C288 1.254 . S
O287 Dy280 2.664 . S
O287 Dy283 2.310 . S
O287 C288 1.268 . S
C288 O286 1.254 . S
C288 O287 1.268 . S
C289 O294 1.254 . S
C289 O295 1.268 . S
O290 Dy283 2.351 . S
O290 C298 1.249 . S
O291 Dy280 2.326 . S
O291 C298 1.267 . S
O292 C281 1.185 . S
O292 Dy283 2.398 . S
O293 C281 1.355 . S
O293 Dy283 2.491 . S
O294 Dy283 2.403 . S
O294 C289 1.254 . S
O295 Dy280 2.310 . S
O295 Dy283 2.664 . S
O295 C289 1.268 . S
O296 Dy280 2.351 . S
O296 C299 1.249 . S
O297 Dy283 2.326 . S
O297 C299 1.267 . S
C298 O290 1.249 . S
C298 O291 1.267 . S
C299 O296 1.249 . S
C299 O297 1.267 . S
Dy300 O304 2.398 . S
Dy300 O305 2.491 . S
Dy300 O306 2.403 . S
Dy300 O307 2.664 . S
Dy300 O311 2.326 . S
Dy300 O315 2.310 . S
Dy300 O316 2.351 . S
C301 O312 1.185 . S
C301 O313 1.355 . S
C302 O304 1.185 . S
C302 O305 1.355 . S
Dy303 O307 2.310 . S
Dy303 O310 2.351 . S
Dy303 O312 2.398 . S
Dy303 O313 2.491 . S
Dy303 O314 2.403 . S
Dy303 O315 2.664 . S
Dy303 O317 2.326 . S
O304 Dy300 2.398 . S
O304 C302 1.185 . S
O305 Dy300 2.491 . S
O305 C302 1.355 . S
O306 Dy300 2.403 . S
O306 C308 1.254 . S
O307 Dy300 2.664 . S
O307 Dy303 2.310 . S
O307 C308 1.268 . S
C308 O306 1.254 . S
C308 O307 1.268 . S
C309 O314 1.254 . S
C309 O315 1.268 . S
O310 Dy303 2.351 . S
O310 C318 1.249 . S
O311 Dy300 2.326 . S
O311 C318 1.267 . S
O312 C301 1.185 . S
O312 Dy303 2.398 . S
O313 C301 1.355 . S
O313 Dy303 2.491 . S
O314 Dy303 2.403 . S
O314 C309 1.254 . S
O315 Dy300 2.310 . S
O315 Dy303 2.664 . S
O315 C309 1.268 . S
O316 Dy300 2.351 . S
O316 C319 1.249 . S
O317 Dy303 2.326 . S
O317 C319 1.267 . S
C318 O310 1.249 . S
C318 O311 1.267 . S
C319 O316 1.249 . S
C319 O317 1.267 . S
C320 C321 1.363 . S
C320 C326 1.379 1_565 S
C320 N328 1.356 . S
C321 C320 1.363 . S
C321 C327 1.363 . S
C322 C323 1.363 1_565 S
C322 C327 1.379 . S
C322 N329 1.356 1_565 S
C323 C322 1.363 1_545 S
C323 C326 1.363 . S
N324 C326 1.356 . S
N324 H336 0.984 . S
N324 H337 0.985 . S
N325 C327 1.356 . S
N325 H330 0.984 . S
N325 H331 0.985 . S
C326 C320 1.379 1_545 S
C326 C323 1.363 . S
C326 N324 1.356 . S
C327 C321 1.363 . S
C327 C322 1.379 . S
C327 N325 1.356 . S
N328 C320 1.356 . S
N328 H334 0.984 . S
N328 H335 0.984 . S
N329 C322 1.356 1_545 S
N329 H332 0.984 . S
N329 H333 0.985 1_554 S
H330 N325 0.984 . S
H331 N325 0.985 . S
H332 N329 0.984 . S
H333 N329 0.985 1_556 S
H334 N328 0.984 . S
H335 N328 0.984 . S
H336 N324 0.984 . S
H337 N324 0.985 . S
C338 C339 1.363 . S
C338 C344 1.379 1_655 S
C338 N346 1.356 . S
C339 C338 1.363 . S
C339 C345 1.363 . S
C340 C341 1.363 . S
C340 C345 1.379 1_455 S
C340 N347 1.356 . S
C341 C340 1.363 . S
C341 C344 1.363 . S
N342 C344 1.356 . S
N342 H354 0.984 . S
N342 H355 0.985 . S
N343 C345 1.356 . S
N343 H348 0.984 . S
N343 H349 0.985 . S
C344 C338 1.379 1_455 S
C344 C341 1.363 . S
C344 N342 1.356 . S
C345 C339 1.363 . S
C345 C340 1.379 1_655 S
C345 N343 1.356 . S
N346 C338 1.356 . S
N346 H352 0.984 . S
N346 H353 0.984 . S
N347 C340 1.356 . S
N347 H350 0.984 . S
N347 H351 0.985 . S
H348 N343 0.984 . S
H349 N343 0.985 . S
H350 N347 0.984 . S
H351 N347 0.985 . S
H352 N346 0.984 . S
H353 N346 0.984 . S
H354 N342 0.984 . S
H355 N342 0.985 . S
C356 C357 1.363 . S
C356 C362 1.379 1_565 S
C356 N364 1.356 . S
C357 C356 1.363 . S
C357 C363 1.363 1_565 S
C358 C359 1.363 . S
C358 C363 1.379 . S
C358 N365 1.356 . S
C359 C358 1.363 . S
C359 C362 1.363 . S
N360 C362 1.356 . S
N360 H372 0.984 . S
N360 H373 0.985 . S
N361 C363 1.356 1_565 S
N361 H366 0.984 . S
N361 H367 1.001 . S
C362 C356 1.379 1_545 S
C362 C359 1.363 . S
C362 N360 1.356 . S
C363 C357 1.363 1_545 S
C363 C358 1.379 . S
C363 N361 1.356 1_545 S
N364 C356 1.356 . S
N364 H370 0.984 . S
N364 H371 0.984 . S
N365 C358 1.356 . S
N365 H368 0.984 . S
N365 H369 0.985 . S
H366 N361 0.984 . S
H367 N361 1.001 . S
H368 N365 0.984 . S
H369 N365 0.985 . S
H370 N364 0.984 . S
H371 N364 0.984 . S
H372 N360 0.984 . S
H373 N360 0.985 . S
C374 C375 1.363 1_455 S
C374 C380 1.379 . S
C374 N382 1.356 1_455 S
C375 C374 1.363 1_655 S
C375 C381 1.363 . S
C376 C377 1.363 . S
C376 C381 1.379 1_455 S
C376 N383 1.356 . S
C377 C376 1.363 . S
C377 C380 1.363 . S
N378 C380 1.356 . S
N378 H390 0.984 . S
N378 H391 0.985 . S
N379 C381 1.356 . S
N379 H384 0.984 . S
N379 H385 0.985 . S
C380 C374 1.379 . S
C380 C377 1.363 . S
C380 N378 1.356 . S
C381 C375 1.363 . S
C381 C376 1.379 1_655 S
C381 N379 1.356 . S
N382 C374 1.356 1_655 S
N382 H388 0.984 . S
N382 H389 0.984 . S
N383 C376 1.356 . S
N383 H386 0.984 . S
N383 H387 0.985 . S
H384 N379 0.984 . S
H385 N379 0.985 . S
H386 N383 0.984 . S
H387 N383 0.985 . S
H388 N382 0.984 . S
H389 N382 0.984 . S
H390 N378 0.984 . S
H391 N378 0.985 . S
C392 C393 1.363 . S
C392 C398 1.379 . S
C392 N400 1.356 . S
C393 C392 1.363 . S
C393 C399 1.363 1_554 S
C394 C395 1.363 1_556 S
C394 C399 1.379 . S
C394 N401 1.356 . S
C395 C394 1.363 1_554 S
C395 C398 1.363 . S
N396 C398 1.356 . S
N396 H408 0.984 . S
N396 H409 0.985 . S
N397 C399 1.356 . S
N397 H402 0.984 . S
N397 H403 0.985 . S
C398 C392 1.379 . S
C398 C395 1.363 . S
C398 N396 1.356 . S
C399 C393 1.363 1_556 S
C399 C394 1.379 . S
C399 N397 1.356 . S
N400 C392 1.356 . S
N400 H406 0.984 . S
N400 H407 0.984 . S
N401 C394 1.356 . S
N401 H404 0.984 . S
N401 H405 0.985 . S
H402 N397 0.984 . S
H403 N397 0.985 . S
H404 N401 0.984 . S
H405 N401 0.985 . S
H406 N400 0.984 . S
H407 N400 0.984 . S
H408 N396 0.984 . S
H409 N396 0.985 . S
C410 C411 1.363 1_554 S
C410 C416 1.379 . S
C410 N418 1.356 . S
C411 C410 1.363 1_556 S
C411 C417 1.363 . S
C412 C413 1.363 . S
C412 C417 1.379 . S
C412 N419 1.356 . S
C413 C412 1.363 . S
C413 C416 1.363 1_556 S
N414 C416 1.356 . S
N414 H426 0.984 . S
N414 H427 0.985 1_554 S
N415 C417 1.356 . S
N415 H420 0.984 . S
N415 H421 0.985 . S
C416 C410 1.379 . S
C416 C413 1.363 1_554 S
C416 N414 1.356 . S
C417 C411 1.363 . S
C417 C412 1.379 . S
C417 N415 1.356 . S
N418 C410 1.356 . S
N418 H424 0.984 . S
N418 H425 0.984 . S
N419 C412 1.356 . S
N419 H422 0.984 . S
N419 H423 0.985 . S
H420 N415 0.984 . S
H421 N415 0.985 . S
H422 N419 0.984 . S
H423 N419 0.985 . S
H424 N418 0.984 . S
H425 N418 0.984 . S
H426 N414 0.984 . S
H427 N414 0.985 1_556 S
C428 C429 1.363 1_556 S
C428 C434 1.379 . S
C428 N436 1.356 . S
C429 C428 1.363 1_554 S
C429 C435 1.363 . S
C430 C431 1.363 . S
C430 C435 1.379 . S
C430 N437 1.356 . S
C431 C430 1.363 . S
C431 C434 1.363 1_554 S
N432 C434 1.356 . S
N432 H444 0.984 . S
N432 H445 0.985 . S
N433 C435 1.356 . S
N433 H438 0.984 . S
N433 H439 0.985 . S
C434 C428 1.379 . S
C434 C431 1.363 1_556 S
C434 N432 1.356 . S
C435 C429 1.363 . S
C435 C430 1.379 . S
C435 N433 1.356 . S
N436 C428 1.356 . S
N436 H442 0.984 . S
N436 H443 0.984 . S
N437 C430 1.356 . S
N437 H440 0.984 . S
N437 H441 0.985 . S
H438 N433 0.984 . S
H439 N433 0.985 . S
H440 N437 0.984 . S
H441 N437 0.985 . S
H442 N436 0.984 . S
H443 N436 0.984 . S
H444 N432 0.984 . S
H445 N432 0.985 . S
C446 C447 1.363 . S
C446 C452 1.379 . S
C446 N454 1.356 . S
C447 C446 1.363 . S
C447 C453 1.363 1_556 S
C448 C449 1.363 . S
C448 C453 1.379 1_556 S
C448 N455 1.356 1_556 S
C449 C448 1.363 . S
C449 C452 1.363 . S
N450 C452 1.356 . S
N450 H462 0.984 . S
N450 H463 0.985 . S
N451 C453 1.356 . S
N451 H456 0.984 . S
N451 H457 0.985 . S
C452 C446 1.379 . S
C452 C449 1.363 . S
C452 N450 1.356 . S
C453 C447 1.363 1_554 S
C453 C448 1.379 1_554 S
C453 N451 1.356 . S
N454 C446 1.356 . S
N454 H460 0.984 . S
N454 H461 0.984 . S
N455 C448 1.356 1_554 S
N455 H458 0.984 1_554 S
N455 H459 0.985 . S
H456 N451 0.984 . S
H457 N451 0.985 . S
H458 N455 0.984 1_556 S
H459 N455 0.985 . S
H460 N454 0.984 . S
H461 N454 0.984 . S
H462 N450 0.984 . S
H463 N450 0.985 . S
C464 C465 1.363 . S
C464 C470 1.379 . S
C464 N472 1.356 . S
C465 C464 1.363 . S
C465 C471 1.363 . S
C466 C467 1.363 . S
C466 C471 1.379 . S
C466 N473 1.356 . S
C467 C466 1.363 . S
C467 C470 1.363 . S
N468 C470 1.356 . S
N468 H480 0.984 . S
N468 H481 0.985 . S
N469 C471 1.356 . S
N469 H474 0.984 . S
N469 H475 0.985 . S
C470 C464 1.379 . S
C470 C467 1.363 . S
C470 N468 1.356 . S
C471 C465 1.363 . S
C471 C466 1.379 . S
C471 N469 1.356 . S
N472 C464 1.356 . S
N472 H478 0.984 . S
N472 H479 0.984 . S
N473 C466 1.356 . S
N473 H476 0.984 . S
N473 H477 0.985 . S
H474 N469 0.984 . S
H475 N469 0.985 . S
H476 N473 0.984 . S
H477 N473 0.985 . S
H478 N472 0.984 . S
H479 N472 0.984 . S
H480 N468 0.984 . S
H481 N468 0.985 . S
C482 C483 1.363 . S
C482 C488 1.379 . S
C482 N490 1.356 . S
C483 C482 1.363 . S
C483 C489 1.363 . S
C484 C485 1.363 . S
C484 C489 1.379 . S
C484 N491 1.356 . S
C485 C484 1.363 . S
C485 C488 1.363 . S
N486 C488 1.356 . S
N486 H498 0.984 . S
N486 H499 0.985 . S
N487 C489 1.356 . S
N487 H492 0.984 . S
N487 H493 0.985 . S
C488 C482 1.379 . S
C488 C485 1.363 . S
C488 N486 1.356 . S
C489 C483 1.363 . S
C489 C484 1.379 . S
C489 N487 1.356 . S
N490 C482 1.356 . S
N490 H496 0.984 . S
N490 H497 0.984 . S
N491 C484 1.356 . S
N491 H494 0.984 . S
N491 H495 0.985 . S
H492 N487 0.984 . S
H493 N487 0.985 . S
H494 N491 0.984 . S
H495 N491 0.985 . S
H496 N490 0.984 . S
H497 N490 0.984 . S
H498 N486 0.984 . S
H499 N486 0.985 . S
C500 C501 1.363 . S
C500 C506 1.379 . S
C500 N508 1.356 . S
C501 C500 1.363 . S
C501 C507 1.363 . S
C502 C503 1.363 . S
C502 C507 1.379 . S
C502 N509 1.356 . S
C503 C502 1.363 . S
C503 C506 1.363 . S
N504 C506 1.356 . S
N504 H516 0.984 . S
N504 H517 0.985 . S
N505 C507 1.356 . S
N505 H510 0.984 . S
N505 H511 0.985 . S
C506 C500 1.379 . S
C506 C503 1.363 . S
C506 N504 1.356 . S
C507 C501 1.363 . S
C507 C502 1.379 . S
C507 N505 1.356 . S
N508 C500 1.356 . S
N508 H514 0.984 . S
N508 H515 0.984 . S
N509 C502 1.356 . S
N509 H512 0.984 . S
N509 H513 0.985 . S
H510 N505 0.984 . S
H511 N505 0.985 . S
H512 N509 0.984 . S
H513 N509 0.985 . S
H514 N508 0.984 . S
H515 N508 0.984 . S
H516 N504 0.984 . S
H517 N504 0.985 . S
C518 C519 1.363 . S
C518 C524 1.379 . S
C518 N526 1.356 . S
C519 C518 1.363 . S
C519 C525 1.363 . S
C520 C521 1.363 . S
C520 C525 1.379 . S
C520 N527 1.356 . S
C521 C520 1.363 . S
C521 C524 1.363 . S
N522 C524 1.356 . S
N522 H534 0.984 . S
N522 H535 0.985 . S
N523 C525 1.356 . S
N523 H528 0.984 . S
N523 H529 0.985 . S
C524 C518 1.379 . S
C524 C521 1.363 . S
C524 N522 1.356 . S
C525 C519 1.363 . S
C525 C520 1.379 . S
C525 N523 1.356 . S
N526 C518 1.356 . S
N526 H532 0.984 . S
N526 H533 0.984 . S
N527 C520 1.356 . S
N527 H530 0.984 . S
N527 H531 0.985 . S
H528 N523 0.984 . S
H529 N523 0.985 . S
H530 N527 0.984 . S
H531 N527 0.985 . S
H532 N526 0.984 . S
H533 N526 0.984 . S
H534 N522 0.984 . S
H535 N522 0.985 . S
C536 C537 1.363 1_545 S
C536 C542 1.379 . S
C536 N544 1.356 1_545 S
C537 C536 1.363 1_565 S
C537 C543 1.363 . S
C538 C539 1.363 . S
C538 C543 1.379 1_545 S
C538 N545 1.356 . S
C539 C538 1.363 . S
C539 C542 1.363 . S
N540 C542 1.356 . S
N540 H552 0.984 . S
N540 H553 0.985 . S
N541 C543 1.356 . S
N541 H546 0.984 . S
N541 H547 0.985 . S
C542 C536 1.379 . S
C542 C539 1.363 . S
C542 N540 1.356 . S
C543 C537 1.363 . S
C543 C538 1.379 1_565 S
C543 N541 1.356 . S
N544 C536 1.356 1_565 S
N544 H550 0.984 1_565 S
N544 H551 0.984 . S
N545 C538 1.356 . S
N545 H548 0.984 . S
N545 H549 0.985 . S
H546 N541 0.984 . S
H547 N541 0.985 . S
H548 N545 0.984 . S
H549 N545 0.985 . S
H550 N544 0.984 1_545 S
H551 N544 0.984 . S
H552 N540 0.984 . S
H553 N540 0.985 . S
C554 C555 1.363 . S
C554 C560 1.387 . S
C554 N562 1.356 . S
C555 C554 1.363 . S
C555 C561 1.363 . S
C556 C557 1.363 . S
C556 C561 1.379 1_655 S
C556 N563 1.356 . S
C557 C556 1.363 . S
C557 C560 1.358 1_655 S
N558 C560 1.351 1_655 S
N558 H570 0.984 . S
N558 H571 0.985 . S
N559 C561 1.356 . S
N559 H564 0.984 . S
N559 H565 0.985 . S
C560 C554 1.387 . S
C560 C557 1.358 1_455 S
C560 N558 1.351 1_455 S
C561 C555 1.363 . S
C561 C556 1.379 1_455 S
C561 N559 1.356 . S
N562 C554 1.356 . S
N562 H568 0.984 . S
N562 H569 0.984 . S
N563 C556 1.356 . S
N563 H566 0.984 . S
N563 H567 0.985 . S
H564 N559 0.984 . S
H565 N559 0.985 . S
H566 N563 0.984 . S
H567 N563 0.985 . S
H568 N562 0.984 . S
H569 N562 0.984 . S
H570 N558 0.984 . S
H571 N558 0.985 . S
C572 C573 1.363 . S
C572 C578 1.379 1_565 S
C572 N580 1.356 . S
C573 C572 1.363 . S
C573 C579 1.363 . S
C574 C575 1.357 1_565 S
C574 C579 1.387 . S
C574 N581 1.351 1_565 S
C575 C574 1.357 1_545 S
C575 C578 1.363 . S
N576 C578 1.356 . S
N576 H588 0.984 . S
N576 H589 0.985 . S
N577 C579 1.356 . S
N577 H582 0.984 . S
N577 H583 0.985 . S
C578 C572 1.379 1_545 S
C578 C575 1.363 . S
C578 N576 1.356 . S
C579 C573 1.363 . S
C579 C574 1.387 . S
C579 N577 1.356 . S
N580 C572 1.356 . S
N580 H586 0.984 . S
N580 H587 0.984 . S
N581 C574 1.351 1_545 S
N581 H584 0.984 . S
N581 H585 0.985 . S
H582 N577 0.984 . S
H583 N577 0.985 . S
H584 N581 0.984 . S
H585 N581 0.985 . S
H586 N580 0.984 . S
H587 N580 0.984 . S
H588 N576 0.984 . S
H589 N576 0.985 . S
C590 C591 1.363 . S
C590 C596 1.379 1_455 S
C590 N598 1.356 . S
C591 C590 1.363 . S
C591 C597 1.364 . S
C592 C593 1.363 . S
C592 C597 1.377 1_655 S
C592 N599 1.356 . S
C593 C592 1.363 . S
C593 C596 1.363 . S
N594 C596 1.356 . S
N594 H606 0.984 . S
N594 H607 0.985 . S
N595 C597 1.357 . S
N595 H600 0.984 . S
N595 H601 0.985 . S
C596 C590 1.379 1_655 S
C596 C593 1.363 . S
C596 N594 1.356 . S
C597 C591 1.364 . S
C597 C592 1.377 1_455 S
C597 N595 1.357 . S
N598 C590 1.356 . S
N598 H604 0.984 . S
N598 H605 0.984 . S
N599 C592 1.356 . S
N599 H602 0.984 . S
N599 H603 0.985 . S
H600 N595 0.984 . S
H601 N595 0.985 . S
H602 N599 0.984 . S
H603 N599 0.985 . S
H604 N598 0.984 . S
H605 N598 0.984 . S
H606 N594 0.984 . S
H607 N594 0.985 . S
C608 C609 1.363 . S
C608 C614 1.379 . S
C608 N616 1.356 1_554 S
C609 C608 1.363 . S
C609 C615 1.363 . S
C610 C611 1.363 . S
C610 C615 1.379 . S
C610 N617 1.356 . S
C611 C610 1.363 . S
C611 C614 1.363 . S
N612 C614 1.356 . S
N612 H624 0.984 1_554 S
N612 H625 0.985 . S
N613 C615 1.356 . S
N613 H618 0.984 . S
N613 H619 0.985 . S
C614 C608 1.379 . S
C614 C611 1.363 . S
C614 N612 1.356 . S
C615 C609 1.363 . S
C615 C610 1.379 . S
C615 N613 1.356 . S
N616 C608 1.356 1_556 S
N616 H622 0.984 . S
N616 H623 0.984 . S
N617 C610 1.356 . S
N617 H620 0.984 . S
N617 H621 0.985 . S
H618 N613 0.984 . S
H619 N613 0.985 . S
H620 N617 0.984 . S
H621 N617 0.985 . S
H622 N616 0.984 . S
H623 N616 0.984 . S
H624 N612 0.984 1_556 S
H625 N612 0.985 . S
C626 C627 1.363 . S
C626 C632 1.379 . S
C626 N634 1.356 . S
C627 C626 1.363 . S
C627 C633 1.363 . S
C628 C629 1.363 . S
C628 C633 1.379 . S
C628 N635 1.356 . S
C629 C628 1.363 . S
C629 C632 1.363 . S
N630 C632 1.356 . S
N630 H642 0.984 1_556 S
N630 H643 0.985 . S
N631 C633 1.356 . S
N631 H636 0.984 . S
N631 H637 0.985 . S
C632 C626 1.379 . S
C632 C629 1.363 . S
C632 N630 1.356 . S
C633 C627 1.363 . S
C633 C628 1.379 . S
C633 N631 1.356 . S
N634 C626 1.356 . S
N634 H640 0.984 . S
N634 H641 0.984 . S
N635 C628 1.356 . S
N635 H638 0.984 . S
N635 H639 0.985 . S
H636 N631 0.984 . S
H637 N631 0.985 . S
H638 N635 0.984 . S
H639 N635 0.985 . S
H640 N634 0.984 . S
H641 N634 0.984 . S
H642 N630 0.984 1_554 S
H643 N630 0.985 . S
C644 C645 1.363 . S
C644 C650 1.379 . S
C644 N652 1.356 1_554 S
C645 C644 1.363 . S
C645 C651 1.363 . S
C646 C647 1.363 . S
C646 C651 1.379 . S
C646 N653 1.356 . S
C647 C646 1.363 . S
C647 C650 1.363 . S
N648 C650 1.356 . S
N648 H660 0.984 1_554 S
N648 H661 0.985 . S
N649 C651 1.356 . S
N649 H654 0.984 . S
N649 H655 0.985 . S
C650 C644 1.379 . S
C650 C647 1.363 . S
C650 N648 1.356 . S
C651 C645 1.363 . S
C651 C646 1.379 . S
C651 N649 1.356 . S
N652 C644 1.356 1_556 S
N652 H658 0.984 . S
N652 H659 0.984 1_556 S
N653 C646 1.356 . S
N653 H656 0.984 . S
N653 H657 0.985 . S
H654 N649 0.984 . S
H655 N649 0.985 . S
H656 N653 0.984 . S
H657 N653 0.985 . S
H658 N652 0.984 . S
H659 N652 0.984 1_554 S
H660 N648 0.984 1_556 S
H661 N648 0.985 . S
C662 C663 1.363 . S
C662 C668 1.379 . S
C662 N670 1.356 . S
C663 C662 1.363 . S
C663 C669 1.363 . S
C664 C665 1.363 . S
C664 C669 1.379 . S
C664 N671 1.356 . S
C665 C664 1.363 . S
C665 C668 1.363 . S
N666 C668 1.356 . S
N666 H678 0.984 . S
N666 H679 0.985 . S
N667 C669 1.356 . S
N667 H672 0.984 . S
N667 H673 0.985 1_556 S
C668 C662 1.379 . S
C668 C665 1.363 . S
C668 N666 1.356 . S
C669 C663 1.363 . S
C669 C664 1.379 . S
C669 N667 1.356 . S
N670 C662 1.356 . S
N670 H676 0.984 . S
N670 H677 0.984 . S
N671 C664 1.356 . S
N671 H674 0.984 . S
N671 H675 0.985 . S
H672 N667 0.984 . S
H673 N667 0.985 1_554 S
H674 N671 0.984 . S
H675 N671 0.985 . S
H676 N670 0.984 . S
H677 N670 0.984 . S
H678 N666 0.984 . S
H679 N666 0.985 . S
C680 C681 1.363 . S
C680 C686 1.379 . S
C680 N688 1.356 . S
C681 C680 1.363 . S
C681 C687 1.363 . S
C682 C683 1.363 . S
C682 C687 1.379 . S
C682 N689 1.356 . S
C683 C682 1.363 . S
C683 C686 1.363 . S
N684 C686 1.356 . S
N684 H696 0.984 . S
N684 H697 0.985 . S
N685 C687 1.356 . S
N685 H690 0.984 . S
N685 H691 0.985 . S
C686 C680 1.379 . S
C686 C683 1.363 . S
C686 N684 1.356 . S
C687 C681 1.363 . S
C687 C682 1.379 . S
C687 N685 1.356 . S
N688 C680 1.356 . S
N688 H694 0.984 . S
N688 H695 0.984 . S
N689 C682 1.356 . S
N689 H692 0.984 . S
N689 H693 0.985 . S
H690 N685 0.984 . S
H691 N685 0.985 . S
H692 N689 0.984 . S
H693 N689 0.985 . S
H694 N688 0.984 . S
H695 N688 0.984 . S
H696 N684 0.984 . S
H697 N684 0.985 . S
C698 C699 1.363 . S
C698 C704 1.379 . S
C698 N706 1.356 . S
C699 C698 1.363 . S
C699 C705 1.363 . S
C700 C701 1.363 . S
C700 C705 1.379 . S
C700 N707 1.356 . S
C701 C700 1.363 . S
C701 C704 1.363 . S
N702 C704 1.356 . S
N702 H714 0.984 . S
N702 H715 0.985 . S
N703 C705 1.356 . S
N703 H708 0.984 . S
N703 H709 0.985 . S
C704 C698 1.379 . S
C704 C701 1.363 . S
C704 N702 1.356 . S
C705 C699 1.363 . S
C705 C700 1.379 . S
C705 N703 1.356 . S
N706 C698 1.356 . S
N706 H712 0.984 . S
N706 H713 0.984 . S
N707 C700 1.356 . S
N707 H710 0.984 . S
N707 H711 0.985 . S
H708 N703 0.984 . S
H709 N703 0.985 . S
H710 N707 0.984 . S
H711 N707 0.985 . S
H712 N706 0.984 . S
H713 N706 0.984 . S
H714 N702 0.984 . S
H715 N702 0.985 . S
C716 C717 1.363 . S
C716 C722 1.379 . S
C716 N724 1.356 . S
C717 C716 1.363 . S
C717 C723 1.363 . S
C718 C719 1.363 . S
C718 C723 1.379 . S
C718 N725 1.356 . S
C719 C718 1.363 . S
C719 C722 1.363 . S
N720 C722 1.356 . S
N720 H732 0.984 . S
N720 H733 0.985 . S
N721 C723 1.356 . S
N721 H726 0.984 . S
N721 H727 0.985 . S
C722 C716 1.379 . S
C722 C719 1.363 . S
C722 N720 1.356 . S
C723 C717 1.363 . S
C723 C718 1.379 . S
C723 N721 1.356 . S
N724 C716 1.356 . S
N724 H730 0.984 . S
N724 H731 0.984 . S
N725 C718 1.356 . S
N725 H728 0.984 . S
N725 H729 0.985 . S
H726 N721 0.984 . S
H727 N721 0.985 . S
H728 N725 0.984 . S
H729 N725 0.985 . S
H730 N724 0.984 . S
H731 N724 0.984 . S
H732 N720 0.984 . S
H733 N720 0.985 . S
C734 C735 1.363 . S
C734 C740 1.379 . S
C734 N742 1.356 . S
C735 C734 1.363 . S
C735 C741 1.363 . S
C736 C737 1.363 . S
C736 C741 1.379 . S
C736 N743 1.356 . S
C737 C736 1.363 . S
C737 C740 1.363 . S
N738 C740 1.356 . S
N738 H750 0.984 . S
N738 H751 0.985 . S
N739 C741 1.356 . S
N739 H744 0.984 . S
N739 H745 0.985 . S
C740 C734 1.379 . S
C740 C737 1.363 . S
C740 N738 1.356 . S
C741 C735 1.363 . S
C741 C736 1.379 . S
C741 N739 1.356 . S
N742 C734 1.356 . S
N742 H748 0.984 . S
N742 H749 0.984 . S
N743 C736 1.356 . S
N743 H746 0.984 . S
N743 H747 0.985 . S
H744 N739 0.984 . S
H745 N739 0.985 . S
H746 N743 0.984 . S
H747 N743 0.985 . S
H748 N742 0.984 . S
H749 N742 0.984 . S
H750 N738 0.984 . S
H751 N738 0.985 . S
C752 C753 1.363 . S
C752 C758 1.379 . S
C752 N760 1.356 . S
C753 C752 1.363 . S
C753 C759 1.363 . S
C754 C755 1.363 . S
C754 C759 1.379 . S
C754 N761 1.356 1_556 S
C755 C754 1.363 . S
C755 C758 1.363 . S
N756 C758 1.356 . S
N756 H768 0.984 . S
N756 H769 0.985 . S
N757 C759 1.356 . S
N757 H762 0.984 . S
N757 H763 0.985 . S
C758 C752 1.379 . S
C758 C755 1.363 . S
C758 N756 1.356 . S
C759 C753 1.363 . S
C759 C754 1.379 . S
C759 N757 1.356 . S
N760 C752 1.356 . S
N760 H766 0.984 . S
N760 H767 0.984 . S
N761 C754 1.356 1_554 S
N761 H764 0.984 . S
N761 H765 0.985 . S
H762 N757 0.984 . S
H763 N757 0.985 . S
H764 N761 0.984 . S
H765 N761 0.985 . S
H766 N760 0.984 . S
H767 N760 0.984 . S
H768 N756 0.984 . S
H769 N756 0.985 . S
C770 C771 1.363 . S
C770 C776 1.379 . S
C770 N778 1.356 1_554 S
C771 C770 1.363 . S
C771 C777 1.363 . S
C772 C773 1.363 . S
C772 C777 1.379 . S
C772 N779 1.356 . S
C773 C772 1.363 . S
C773 C776 1.363 . S
N774 C776 1.356 . S
N774 H786 0.984 . S
N774 H787 0.985 . S
N775 C777 1.356 . S
N775 H780 0.984 . S
N775 H781 0.985 . S
C776 C770 1.379 . S
C776 C773 1.363 . S
C776 N774 1.356 . S
C777 C771 1.363 . S
C777 C772 1.379 . S
C777 N775 1.356 . S
N778 C770 1.356 1_556 S
N778 H784 0.984 . S
N778 H785 0.984 . S
N779 C772 1.356 . S
N779 H782 0.984 . S
N779 H783 0.985 . S
H780 N775 0.984 . S
H781 N775 0.985 . S
H782 N779 0.984 . S
H783 N779 0.985 . S
H784 N778 0.984 . S
H785 N778 0.984 . S
H786 N774 0.984 . S
H787 N774 0.985 . S
C788 C789 1.363 . S
C788 C794 1.379 . S
C788 N796 1.356 . S
C789 C788 1.363 . S
C789 C795 1.363 . S
C790 C791 1.363 . S
C790 C795 1.379 . S
C790 N797 1.356 . S
C791 C790 1.363 . S
C791 C794 1.363 . S
N792 C794 1.356 . S
N792 H804 0.984 . S
N792 H805 0.985 . S
N793 C795 1.356 1_554 S
N793 H798 0.984 . S
N793 H799 0.985 . S
C794 C788 1.379 . S
C794 C791 1.363 . S
C794 N792 1.356 . S
C795 C789 1.363 . S
C795 C790 1.379 . S
C795 N793 1.356 1_556 S
N796 C788 1.356 . S
N796 H802 0.984 . S
N796 H803 0.984 . S
N797 C790 1.356 . S
N797 H800 0.984 . S
N797 H801 0.985 . S
H798 N793 0.984 . S
H799 N793 0.985 . S
H800 N797 0.984 . S
H801 N797 0.985 . S
H802 N796 0.984 . S
H803 N796 0.984 . S
H804 N792 0.984 . S
H805 N792 0.985 . S
C806 C807 1.363 . S
C806 C812 1.379 . S
C806 N814 1.356 . S
C807 C806 1.363 . S
C807 C813 1.363 . S
C808 C809 1.363 . S
C808 C813 1.379 . S
C808 N815 1.356 . S
C809 C808 1.363 . S
C809 C812 1.363 . S
N810 C812 1.356 . S
N810 H822 0.984 . S
N810 H823 0.985 . S
N811 C813 1.356 . S
N811 H816 0.984 1_554 S
N811 H817 0.985 . S
C812 C806 1.379 . S
C812 C809 1.363 . S
C812 N810 1.356 . S
C813 C807 1.363 . S
C813 C808 1.379 . S
C813 N811 1.356 . S
N814 C806 1.356 . S
N814 H820 0.984 . S
N814 H821 0.984 1_554 S
N815 C808 1.356 . S
N815 H818 0.984 . S
N815 H819 0.985 . S
H816 N811 0.984 1_556 S
H817 N811 0.985 . S
H818 N815 0.984 . S
H819 N815 0.985 . S
H820 N814 0.984 . S
H821 N814 0.984 1_556 S
H822 N810 0.984 . S
H823 N810 0.985 . S
C824 C825 1.363 . S
C824 C830 1.379 . S
C824 N832 1.356 . S
C825 C824 1.363 . S
C825 C831 1.363 . S
C826 C827 1.363 . S
C826 C831 1.379 . S
C826 N833 1.356 . S
C827 C826 1.363 . S
C827 C830 1.363 . S
N828 C830 1.356 . S
N828 H840 0.984 . S
N828 H841 0.985 . S
N829 C831 1.356 . S
N829 H834 0.984 . S
N829 H835 0.985 . S
C830 C824 1.379 . S
C830 C827 1.363 . S
C830 N828 1.356 . S
C831 C825 1.363 . S
C831 C826 1.379 . S
C831 N829 1.356 . S
N832 C824 1.356 . S
N832 H838 0.984 . S
N832 H839 0.984 . S
N833 C826 1.356 . S
N833 H836 0.984 . S
N833 H837 0.985 . S
H834 N829 0.984 . S
H835 N829 0.985 . S
H836 N833 0.984 . S
H837 N833 0.985 . S
H838 N832 0.984 . S
H839 N832 0.984 . S
H840 N828 0.984 . S
H841 N828 0.985 . S
C842 C843 1.363 . S
C842 C848 1.379 . S
C842 N850 1.356 . S
C843 C842 1.363 . S
C843 C849 1.363 . S
C844 C845 1.363 . S
C844 C849 1.379 . S
C844 N851 1.356 . S
C845 C844 1.363 . S
C845 C848 1.363 . S
N846 C848 1.356 . S
N846 H858 0.984 . S
N846 H859 0.985 . S
N847 C849 1.356 . S
N847 H852 0.984 . S
N847 H853 0.985 . S
C848 C842 1.379 . S
C848 C845 1.363 . S
C848 N846 1.356 . S
C849 C843 1.363 . S
C849 C844 1.379 . S
C849 N847 1.356 . S
N850 C842 1.356 . S
N850 H856 0.984 . S
N850 H857 0.984 . S
N851 C844 1.356 . S
N851 H854 0.984 . S
N851 H855 0.985 . S
H852 N847 0.984 . S
H853 N847 0.985 . S
H854 N851 0.984 . S
H855 N851 0.985 . S
H856 N850 0.984 . S
H857 N850 0.984 . S
H858 N846 0.984 . S
H859 N846 0.985 . S
C860 C861 1.363 . S
C860 C866 1.379 . S
C860 N868 1.356 . S
C861 C860 1.363 . S
C861 C867 1.363 . S
C862 C863 1.363 . S
C862 C867 1.379 . S
C862 N869 1.356 . S
C863 C862 1.363 . S
C863 C866 1.363 . S
N864 C866 1.356 . S
N864 H876 0.984 . S
N864 H877 0.985 . S
N865 C867 1.356 . S
N865 H870 0.984 . S
N865 H871 0.985 . S
C866 C860 1.379 . S
C866 C863 1.363 . S
C866 N864 1.356 . S
C867 C861 1.363 . S
C867 C862 1.379 . S
C867 N865 1.356 . S
N868 C860 1.356 . S
N868 H874 0.984 . S
N868 H875 0.984 . S
N869 C862 1.356 . S
N869 H872 0.984 . S
N869 H873 0.985 . S
H870 N865 0.984 . S
H871 N865 0.985 . S
H872 N869 0.984 . S
H873 N869 0.985 . S
H874 N868 0.984 . S
H875 N868 0.984 . S
H876 N864 0.984 . S
H877 N864 0.985 . S
C878 C879 1.363 . S
C878 C884 1.379 . S
C878 N886 1.356 . S
C879 C878 1.363 . S
C879 C885 1.363 . S
C880 C881 1.363 . S
C880 C885 1.379 . S
C880 N887 1.356 . S
C881 C880 1.363 . S
C881 C884 1.363 . S
N882 C884 1.356 . S
N882 H894 0.984 . S
N882 H895 0.985 . S
N883 C885 1.356 . S
N883 H888 0.984 . S
N883 H889 0.985 . S
C884 C878 1.379 . S
C884 C881 1.363 . S
C884 N882 1.356 . S
C885 C879 1.363 . S
C885 C880 1.379 . S
C885 N883 1.356 . S
N886 C878 1.356 . S
N886 H892 0.984 . S
N886 H893 0.984 . S
N887 C880 1.356 . S
N887 H890 0.984 . S
N887 H891 0.985 . S
H888 N883 0.984 . S
H889 N883 0.985 . S
H890 N887 0.984 . S
H891 N887 0.985 . S
H892 N886 0.984 . S
H893 N886 0.984 . S
H894 N882 0.984 . S
H895 N882 0.985 . S
C896 C897 1.363 . S
C896 C902 1.379 . S
C896 N904 1.356 . S
C897 C896 1.363 . S
C897 C903 1.363 . S
C898 C899 1.363 . S
C898 C903 1.379 . S
C898 N905 1.356 . S
C899 C898 1.363 . S
C899 C902 1.363 . S
N900 C902 1.356 . S
N900 H912 0.984 . S
N900 H913 0.985 . S
N901 C903 1.356 . S
N901 H906 0.984 . S
N901 H907 0.985 . S
C902 C896 1.379 . S
C902 C899 1.363 . S
C902 N900 1.356 . S
C903 C897 1.363 . S
C903 C898 1.379 . S
C903 N901 1.356 . S
N904 C896 1.356 . S
N904 H910 0.984 . S
N904 H911 0.984 . S
N905 C898 1.356 . S
N905 H908 0.984 . S
N905 H909 0.985 . S
H906 N901 0.984 . S
H907 N901 0.985 . S
H908 N905 0.984 . S
H909 N905 0.985 . S
H910 N904 0.984 . S
H911 N904 0.984 . S
H912 N900 0.984 . S
H913 N900 0.985 . S
C914 C915 1.363 . S
C914 C920 1.379 . S
C914 N922 1.356 . S
C915 C914 1.363 . S
C915 C921 1.363 . S
C916 C917 1.363 . S
C916 C921 1.379 . S
C916 N923 1.356 . S
C917 C916 1.363 . S
C917 C920 1.363 . S
N918 C920 1.356 . S
N918 H930 0.984 . S
N918 H931 0.985 . S
N919 C921 1.356 . S
N919 H924 0.984 . S
N919 H925 0.985 . S
C920 C914 1.379 . S
C920 C917 1.363 . S
C920 N918 1.356 . S
C921 C915 1.363 . S
C921 C916 1.379 . S
C921 N919 1.356 . S
N922 C914 1.356 . S
N922 H928 0.984 . S
N922 H929 0.984 . S
N923 C916 1.356 . S
N923 H926 0.984 . S
N923 H927 0.985 . S
H924 N919 0.984 . S
H925 N919 0.985 . S
H926 N923 0.984 . S
H927 N923 0.985 . S
H928 N922 0.984 . S
H929 N922 0.984 . S
H930 N918 0.984 . S
H931 N918 0.985 . S
C932 C933 1.363 . S
C932 C938 1.379 . S
C932 N940 1.356 . S
C933 C932 1.363 . S
C933 C939 1.363 . S
C934 C935 1.363 . S
C934 C939 1.379 . S
C934 N941 1.356 . S
C935 C934 1.363 . S
C935 C938 1.363 . S
N936 C938 1.356 . S
N936 H948 0.984 . S
N936 H949 0.985 . S
N937 C939 1.356 . S
N937 H942 0.984 . S
N937 H943 0.985 . S
C938 C932 1.379 . S
C938 C935 1.363 . S
C938 N936 1.356 . S
C939 C933 1.363 . S
C939 C934 1.379 . S
C939 N937 1.356 . S
N940 C932 1.356 . S
N940 H946 0.984 . S
N940 H947 0.984 . S
N941 C934 1.356 . S
N941 H944 0.984 . S
N941 H945 0.985 . S
H942 N937 0.984 . S
H943 N937 0.985 . S
H944 N941 0.984 . S
H945 N941 0.985 . S
H946 N940 0.984 . S
H947 N940 0.984 . S
H948 N936 0.984 . S
H949 N936 0.985 . S
C950 C951 1.363 . S
C950 C956 1.379 . S
C950 N958 1.356 . S
C951 C950 1.363 . S
C951 C957 1.363 . S
C952 C953 1.363 . S
C952 C957 1.379 . S
C952 N959 1.356 . S
C953 C952 1.363 . S
C953 C956 1.363 . S
N954 C956 1.356 . S
N954 H966 0.984 . S
N954 H967 0.985 . S
N955 C957 1.356 . S
N955 H960 0.984 . S
N955 H961 0.985 . S
C956 C950 1.379 . S
C956 C953 1.363 . S
C956 N954 1.356 . S
C957 C951 1.363 . S
C957 C952 1.379 . S
C957 N955 1.356 . S
N958 C950 1.356 . S
N958 H964 0.984 . S
N958 H965 0.984 . S
N959 C952 1.356 . S
N959 H962 0.984 . S
N959 H963 0.985 . S
H960 N955 0.984 . S
H961 N955 0.985 . S
H962 N959 0.984 . S
H963 N959 0.985 . S
H964 N958 0.984 . S
H965 N958 0.984 . S
H966 N954 0.984 . S
H967 N954 0.985 . S
C968 C969 1.363 . S
C968 C974 1.379 . S
C968 N976 1.356 . S
C969 C968 1.363 . S
C969 C975 1.363 . S
C970 C971 1.363 . S
C970 C975 1.379 . S
C970 N977 1.356 . S
C971 C970 1.363 . S
C971 C974 1.363 . S
N972 C974 1.356 . S
N972 H984 0.984 . S
N972 H985 0.985 . S
N973 C975 1.356 . S
N973 H978 0.984 . S
N973 H979 0.985 . S
C974 C968 1.379 . S
C974 C971 1.363 . S
C974 N972 1.356 . S
C975 C969 1.363 . S
C975 C970 1.379 . S
C975 N973 1.356 . S
N976 C968 1.356 . S
N976 H982 0.984 . S
N976 H983 0.984 . S
N977 C970 1.356 . S
N977 H980 0.984 . S
N977 H981 0.985 . S
H978 N973 0.984 . S
H979 N973 0.985 . S
H980 N977 0.984 . S
H981 N977 0.985 . S
H982 N976 0.984 . S
H983 N976 0.984 . S
H984 N972 0.984 . S
H985 N972 0.985 . S
C986 C987 1.363 . S
C986 C992 1.379 . S
C986 N994 1.356 . S
C987 C986 1.363 . S
C987 C993 1.363 . S
C988 C989 1.363 . S
C988 C993 1.379 . S
C988 N995 1.356 . S
C989 C988 1.363 . S
C989 C992 1.363 . S
N990 C992 1.356 . S
N990 H1002 0.984 . S
N990 H1003 0.985 . S
N991 C993 1.356 . S
N991 H996 0.984 . S
N991 H997 0.985 . S
C992 C986 1.379 . S
C992 C989 1.363 . S
C992 N990 1.356 . S
C993 C987 1.363 . S
C993 C988 1.379 . S
C993 N991 1.356 . S
N994 C986 1.356 . S
N994 H1000 0.984 . S
N994 H1001 0.984 . S
N995 C988 1.356 . S
N995 H998 0.984 . S
N995 H999 0.985 . S
H996 N991 0.984 . S
H997 N991 0.985 . S
H998 N995 0.984 . S
H999 N995 0.985 . S
H1000 N994 0.984 . S
H1001 N994 0.984 . S
H1002 N990 0.984 . S
H1003 N990 0.985 . S
C1004 C1005 1.363 . S
C1004 C1010 1.379 . S
C1004 N1012 1.356 . S
C1005 C1004 1.363 . S
C1005 C1011 1.363 . S
C1006 C1007 1.363 . S
C1006 C1011 1.379 . S
C1006 N1013 1.356 . S
C1007 C1006 1.363 . S
C1007 C1010 1.363 . S
N1008 C1010 1.356 . S
N1008 H1020 0.984 . S
N1008 H1021 0.985 . S
N1009 C1011 1.356 . S
N1009 H1014 0.984 . S
N1009 H1015 0.985 . S
C1010 C1004 1.379 . S
C1010 C1007 1.363 . S
C1010 N1008 1.356 . S
C1011 C1005 1.363 . S
C1011 C1006 1.379 . S
C1011 N1009 1.356 . S
N1012 C1004 1.356 . S
N1012 H1018 0.984 . S
N1012 H1019 0.984 . S
N1013 C1006 1.356 . S
N1013 H1016 0.984 . S
N1013 H1017 0.985 . S
H1014 N1009 0.984 . S
H1015 N1009 0.985 . S
H1016 N1013 0.984 . S
H1017 N1013 0.985 . S
H1018 N1012 0.984 . S
H1019 N1012 0.984 . S
H1020 N1008 0.984 . S
H1021 N1008 0.985 . S
C1022 C1023 1.363 . S
C1022 C1028 1.379 . S
C1022 N1030 1.356 . S
C1023 C1022 1.363 . S
C1023 C1029 1.363 . S
C1024 C1025 1.363 . S
C1024 C1029 1.379 . S
C1024 N1031 1.356 . S
C1025 C1024 1.363 . S
C1025 C1028 1.363 . S
N1026 C1028 1.356 . S
N1026 H1038 0.984 . S
N1026 H1039 0.985 . S
N1027 C1029 1.356 . S
N1027 H1032 0.984 . S
N1027 H1033 0.985 . S
C1028 C1022 1.379 . S
C1028 C1025 1.363 . S
C1028 N1026 1.356 . S
C1029 C1023 1.363 . S
C1029 C1024 1.379 . S
C1029 N1027 1.356 . S
N1030 C1022 1.356 . S
N1030 H1036 0.984 . S
N1030 H1037 0.984 . S
N1031 C1024 1.356 . S
N1031 H1034 0.984 . S
N1031 H1035 0.985 . S
H1032 N1027 0.984 . S
H1033 N1027 0.985 . S
H1034 N1031 0.984 . S
H1035 N1031 0.985 . S
H1036 N1030 0.984 . S
H1037 N1030 0.984 . S
H1038 N1026 0.984 . S
H1039 N1026 0.985 . S
C1040 C1041 1.363 . S
C1040 C1046 1.379 . S
C1040 N1048 1.356 . S
C1041 C1040 1.363 . S
C1041 C1047 1.363 . S
C1042 C1043 1.363 . S
C1042 C1047 1.379 . S
C1042 N1049 1.356 . S
C1043 C1042 1.363 . S
C1043 C1046 1.363 . S
N1044 C1046 1.356 . S
N1044 H1056 0.984 . S
N1044 H1057 0.985 . S
N1045 C1047 1.356 1_556 S
N1045 H1050 0.984 . S
N1045 H1051 0.983 1_556 S
C1046 C1040 1.379 . S
C1046 C1043 1.363 . S
C1046 N1044 1.356 . S
C1047 C1041 1.363 . S
C1047 C1042 1.379 . S
C1047 N1045 1.356 1_554 S
N1048 C1040 1.356 . S
N1048 H1054 0.984 . S
N1048 H1055 0.984 1_554 S
N1049 C1042 1.356 . S
N1049 H1052 0.984 . S
N1049 H1053 0.985 . S
H1050 N1045 0.984 . S
H1051 N1045 0.983 1_554 S
H1052 N1049 0.984 . S
H1053 N1049 0.985 . S
H1054 N1048 0.984 . S
H1055 N1048 0.984 1_556 S
H1056 N1044 0.984 . S
H1057 N1044 0.985 . S
C1058 C1059 1.363 . S
C1058 C1064 1.379 . S
C1058 N1066 1.356 . S
C1059 C1058 1.363 . S
C1059 C1065 1.363 . S
C1060 C1061 1.363 . S
C1060 C1065 1.379 . S
C1060 N1067 1.356 . S
C1061 C1060 1.363 . S
C1061 C1064 1.363 . S
N1062 C1064 1.356 . S
N1062 H1074 0.984 . S
N1062 H1075 0.985 1_556 S
N1063 C1065 1.356 . S
N1063 H1068 0.984 . S
N1063 H1069 0.985 . S
C1064 C1058 1.379 . S
C1064 C1061 1.363 . S
C1064 N1062 1.356 . S
C1065 C1059 1.363 . S
C1065 C1060 1.379 . S
C1065 N1063 1.356 . S
N1066 C1058 1.356 . S
N1066 H1072 0.984 . S
N1066 H1073 0.984 . S
N1067 C1060 1.356 . S
N1067 H1070 0.984 1_556 S
N1067 H1071 0.985 . S
H1068 N1063 0.984 . S
H1069 N1063 0.985 . S
H1070 N1067 0.984 1_554 S
H1071 N1067 0.985 . S
H1072 N1066 0.984 . S
H1073 N1066 0.984 . S
H1074 N1062 0.984 . S
H1075 N1062 0.985 1_554 S
C1076 C1077 1.363 . S
C1076 C1082 1.379 . S
C1076 N1084 1.356 . S
C1077 C1076 1.363 . S
C1077 C1083 1.363 . S
C1078 C1079 1.363 . S
C1078 C1083 1.379 . S
C1078 N1085 1.365 . S
C1079 C1078 1.363 . S
C1079 C1082 1.363 . S
N1080 C1082 1.356 . S
N1080 H1092 0.984 . S
N1080 H1093 0.985 1_554 S
N1081 C1083 1.356 . S
N1081 H1086 0.984 . S
N1081 H1087 0.985 . S
C1082 C1076 1.379 . S
C1082 C1079 1.363 . S
C1082 N1080 1.356 . S
C1083 C1077 1.363 . S
C1083 C1078 1.379 . S
C1083 N1081 1.356 . S
N1084 C1076 1.356 . S
N1084 H1090 0.984 . S
N1084 H1091 0.984 . S
N1085 C1078 1.365 . S
N1085 H1088 0.974 1_554 S
N1085 H1089 0.986 . S
H1086 N1081 0.984 . S
H1087 N1081 0.985 . S
H1088 N1085 0.974 1_556 S
H1089 N1085 0.986 . S
H1090 N1084 0.984 . S
H1091 N1084 0.984 . S
H1092 N1080 0.984 . S
H1093 N1080 0.985 1_556 S
C1094 C1095 1.363 . S
C1094 C1100 1.379 . S
C1094 N1102 1.356 1_556 S
C1095 C1094 1.363 . S
C1095 C1101 1.363 . S
C1096 C1097 1.363 . S
C1096 C1101 1.379 . S
C1096 N1103 1.356 . S
C1097 C1096 1.363 . S
C1097 C1100 1.363 . S
N1098 C1100 1.356 . S
N1098 H1110 0.984 . S
N1098 H1111 0.985 . S
N1099 C1101 1.356 . S
N1099 H1104 0.984 1_556 S
N1099 H1105 0.985 . S
C1100 C1094 1.379 . S
C1100 C1097 1.363 . S
C1100 N1098 1.356 . S
C1101 C1095 1.363 . S
C1101 C1096 1.379 . S
C1101 N1099 1.356 . S
N1102 C1094 1.356 1_554 S
N1102 H1108 0.984 1_554 S
N1102 H1109 0.984 . S
N1103 C1096 1.356 . S
N1103 H1106 0.984 . S
N1103 H1107 0.985 . S
H1104 N1099 0.984 1_554 S
H1105 N1099 0.985 . S
H1106 N1103 0.984 . S
H1107 N1103 0.985 . S
H1108 N1102 0.984 1_556 S
H1109 N1102 0.984 . S
H1110 N1098 0.984 . S
H1111 N1098 0.985 . S
C1112 C1113 1.363 . S
C1112 C1118 1.379 . S
C1112 N1120 1.356 . S
C1113 C1112 1.363 . S
C1113 C1119 1.363 . S
C1114 C1115 1.363 . S
C1114 C1119 1.379 . S
C1114 N1121 1.356 1_554 S
C1115 C1114 1.363 . S
C1115 C1118 1.363 . S
N1116 C1118 1.356 . S
N1116 H1128 0.984 . S
N1116 H1129 0.985 1_554 S
N1117 C1119 1.356 . S
N1117 H1122 0.984 . S
N1117 H1123 0.985 . S
C1118 C1112 1.379 . S
C1118 C1115 1.363 . S
C1118 N1116 1.356 . S
C1119 C1113 1.363 . S
C1119 C1114 1.379 . S
C1119 N1117 1.356 . S
N1120 C1112 1.356 . S
N1120 H1126 0.984 . S
N1120 H1127 0.984 . S
N1121 C1114 1.356 1_556 S
N1121 H1124 0.984 . S
N1121 H1125 0.985 . S
H1122 N1117 0.984 . S
H1123 N1117 0.985 . S
H1124 N1121 0.984 . S
H1125 N1121 0.985 . S
H1126 N1120 0.984 . S
H1127 N1120 0.984 . S
H1128 N1116 0.984 . S
H1129 N1116 0.985 1_556 S
C1130 C1131 1.363 . S
C1130 C1136 1.379 . S
C1130 N1138 1.356 1_556 S
C1131 C1130 1.363 . S
C1131 C1137 1.363 . S
C1132 C1133 1.363 . S
C1132 C1137 1.379 . S
C1132 N1139 1.356 . S
C1133 C1132 1.363 . S
C1133 C1136 1.363 . S
N1134 C1136 1.356 . S
N1134 H1146 0.984 . S
N1134 H1147 0.985 . S
N1135 C1137 1.356 . S
N1135 H1140 0.984 1_556 S
N1135 H1141 0.985 . S
C1136 C1130 1.379 . S
C1136 C1133 1.363 . S
C1136 N1134 1.356 . S
C1137 C1131 1.363 . S
C1137 C1132 1.379 . S
C1137 N1135 1.356 . S
N1138 C1130 1.356 1_554 S
N1138 H1144 0.984 1_554 S
N1138 H1145 0.984 . S
N1139 C1132 1.356 . S
N1139 H1142 0.984 . S
N1139 H1143 0.985 . S
H1140 N1135 0.984 1_554 S
H1141 N1135 0.985 . S
H1142 N1139 0.984 . S
H1143 N1139 0.985 . S
H1144 N1138 0.984 1_556 S
H1145 N1138 0.984 . S
H1146 N1134 0.984 . S
H1147 N1134 0.985 . S
C1148 C1149 1.363 . S
C1148 C1154 1.379 . S
C1148 N1156 1.356 . S
C1149 C1148 1.363 . S
C1149 C1155 1.363 . S
C1150 C1151 1.363 . S
C1150 C1155 1.379 . S
C1150 N1157 1.356 . S
C1151 C1150 1.363 . S
C1151 C1154 1.363 . S
N1152 C1154 1.356 . S
N1152 H1164 0.984 . S
N1152 H1165 0.985 . S
N1153 C1155 1.356 1_556 S
N1153 H1158 0.984 . S
N1153 H1159 0.985 1_556 S
C1154 C1148 1.379 . S
C1154 C1151 1.363 . S
C1154 N1152 1.356 . S
C1155 C1149 1.363 . S
C1155 C1150 1.379 . S
C1155 N1153 1.356 1_554 S
N1156 C1148 1.356 . S
N1156 H1162 0.984 . S
N1156 H1163 0.984 1_554 S
N1157 C1150 1.356 . S
N1157 H1160 0.984 . S
N1157 H1161 0.985 . S
H1158 N1153 0.984 . S
H1159 N1153 0.985 1_554 S
H1160 N1157 0.984 . S
H1161 N1157 0.985 . S
H1162 N1156 0.984 . S
H1163 N1156 0.984 1_556 S
H1164 N1152 0.984 . S
H1165 N1152 0.985 . S
C1166 C1167 1.363 . S
C1166 C1172 1.379 . S
C1166 N1174 1.356 . S
C1167 C1166 1.363 . S
C1167 C1173 1.363 . S
C1168 C1169 1.363 . S
C1168 C1173 1.379 . S
C1168 N1175 1.356 1_556 S
C1169 C1168 1.363 . S
C1169 C1172 1.363 . S
N1170 C1172 1.356 . S
N1170 H1182 0.984 . S
N1170 H1183 0.985 1_556 S
N1171 C1173 1.356 . S
N1171 H1176 0.984 . S
N1171 H1177 0.985 . S
C1172 C1166 1.379 . S
C1172 C1169 1.363 . S
C1172 N1170 1.356 . S
C1173 C1167 1.363 . S
C1173 C1168 1.379 . S
C1173 N1171 1.356 . S
N1174 C1166 1.356 . S
N1174 H1180 0.984 . S
N1174 H1181 0.984 . S
N1175 C1168 1.356 1_554 S
N1175 H1178 0.984 . S
N1175 H1179 0.986 . S
H1176 N1171 0.984 . S
H1177 N1171 0.985 . S
H1178 N1175 0.984 . S
H1179 N1175 0.986 . S
H1180 N1174 0.984 . S
H1181 N1174 0.984 . S
H1182 N1170 0.984 . S
H1183 N1170 0.985 1_554 S
C321 C239 1.589 . S
C323 C9 1.589 . S
C339 C178 1.589 . S
C341 C28 1.589 . S
C357 C49 1.589 . S
C359 C199 1.589 . S
C375 C68 1.589 . S
C377 C218 1.589 . S
C393 C89 1.589 . S
C395 C119 1.589 1_554 S
C411 C138 1.589 1_556 S
C413 C108 1.589 . S
C429 C129 1.589 . S
C431 C159 1.589 1_554 S
C447 C98 1.589 1_556 S
C449 C148 1.589 . S
C465 C79 1.589 . S
C467 C169 1.589 . S
C483 C188 1.589 . S
C485 C18 1.589 . S
C501 C39 1.589 . S
C503 C209 1.589 . S
C519 C58 1.589 . S
C521 C228 1.589 . S
C537 C249 1.589 . S
C539 C279 1.589 . S
C555 C298 1.589 . S
C557 C268 1.589 . S
C573 C319 1.589 . S
C575 C289 1.589 . S
C591 C308 1.589 . S
C593 C258 1.589 . S
C609 C8 1.329 . S
C611 C88 1.329 . S
C627 C109 1.329 . S
C629 C29 1.329 . S
C645 C48 1.329 . S
C647 C128 1.329 . S
C663 C69 1.329 . S
C665 C149 1.329 . S
C681 C168 1.329 . S
C683 C248 1.329 . S
C699 C269 1.329 . S
C701 C189 1.329 . S
C717 C208 1.329 . S
C719 C288 1.329 . S
C735 C229 1.329 . S
C737 C309 1.329 . S
C753 C299 1.818 . S
C755 C19 1.818 1_556 S
C771 C38 1.818 1_554 S
C773 C318 1.818 . S
C789 C59 1.818 1_556 S
C791 C259 1.818 . S
C807 C78 1.818 1_554 S
C809 C278 1.818 . S
C825 C99 1.818 . S
C827 C219 1.818 . S
C843 C118 1.818 . S
C845 C238 1.818 . S
C861 C139 1.818 . S
C863 C179 1.818 . S
C879 C198 1.818 . S
C881 C158 1.818 . S
C897 C2 1.315 . S
C899 C1 1.315 . S
C915 C21 1.315 . S
C917 C22 1.315 . S
C933 C42 1.315 . S
C935 C41 1.315 . S
C951 C62 1.315 . S
C953 C61 1.315 . S
C969 C81 1.315 . S
C971 C82 1.315 . S
C987 C101 1.315 . S
C989 C102 1.315 . S
C1005 C122 1.315 . S
C1007 C121 1.315 . S
C1023 C142 1.315 . S
C1025 C141 1.315 . S
C1041 C162 1.315 1_554 S
C1043 C161 1.315 . S
C1059 C182 1.315 . S
C1061 C181 1.315 1_556 S
C1077 C201 1.315 . S
C1079 C202 1.315 1_554 S
C1095 C221 1.315 1_556 S
C1097 C222 1.315 . S
C1113 C242 1.315 . S
C1115 C241 1.315 1_554 S
C1131 C262 1.315 1_556 S
C1133 C261 1.315 . S
C1149 C281 1.315 1_554 S
C1151 C282 1.315 . S
C1167 C301 1.315 . S
C1169 C302 1.315 1_556 S
