# Generated by pormake.
# Topology yfq, (5)-cn, num edge types: 1
# Building blocks:
#     Node 0, Type 0, BuildingBlock: BEQFEK_clean_sbu_0, # of connection points: 5
#     Node 1, Type 0, BuildingBlock: BEQFEK_clean_sbu_0, # of connection points: 5
#     Node 2, Type 0, BuildingBlock: BEQFEK_clean_sbu_0, # of connection points: 5
#     Node 3, Type 0, BuildingBlock: BEQFEK_clean_sbu_0, # of connection points: 5
#     Node 4, Type 0, BuildingBlock: BEQFEK_clean_sbu_0, # of connection points: 5
#     Node 5, Type 0, BuildingBlock: BEQFEK_clean_sbu_0, # of connection points: 5
#     Node 6, Type 0, BuildingBlock: BEQFEK_clean_sbu_0, # of connection points: 5
#     Node 7, Type 0, BuildingBlock: BEQFEK_clean_sbu_0, # of connection points: 5
#     Node 8, Type 0, BuildingBlock: BEQFEK_clean_sbu_0, # of connection points: 5
#     Node 9, Type 0, BuildingBlock: BEQFEK_clean_sbu_0, # of connection points: 5
#     Node 10, Type 0, BuildingBlock: BEQFEK_clean_sbu_0, # of connection points: 5
#     Node 11, Type 0, BuildingBlock: BEQFEK_clean_sbu_0, # of connection points: 5
#     Node 12, Type 0, BuildingBlock: BEQFEK_clean_sbu_0, # of connection points: 5
#     Node 13, Type 0, BuildingBlock: BEQFEK_clean_sbu_0, # of connection points: 5
#     Node 14, Type 0, BuildingBlock: BEQFEK_clean_sbu_0, # of connection points: 5
#     Node 15, Type 0, BuildingBlock: BEQFEK_clean_sbu_0, # of connection points: 5
#     Node 16, Type 0, BuildingBlock: BEQFEK_clean_sbu_0, # of connection points: 5
#     Node 17, Type 0, BuildingBlock: BEQFEK_clean_sbu_0, # of connection points: 5
#     Node 18, Type 0, BuildingBlock: BEQFEK_clean_sbu_0, # of connection points: 5
#     Node 19, Type 0, BuildingBlock: BEQFEK_clean_sbu_0, # of connection points: 5
#     Node 20, Type 0, BuildingBlock: BEQFEK_clean_sbu_0, # of connection points: 5
#     Node 21, Type 0, BuildingBlock: BEQFEK_clean_sbu_0, # of connection points: 5
#     Node 22, Type 0, BuildingBlock: BEQFEK_clean_sbu_0, # of connection points: 5
#     Node 23, Type 0, BuildingBlock: BEQFEK_clean_sbu_0, # of connection points: 5
#     Node 24, Type 0, BuildingBlock: BEQFEK_clean_sbu_0, # of connection points: 5
#     Node 25, Type 0, BuildingBlock: BEQFEK_clean_sbu_0, # of connection points: 5
#     Node 26, Type 0, BuildingBlock: BEQFEK_clean_sbu_0, # of connection points: 5
#     Node 27, Type 0, BuildingBlock: BEQFEK_clean_sbu_0, # of connection points: 5
#     Node 28, Type 0, BuildingBlock: BEQFEK_clean_sbu_0, # of connection points: 5
#     Node 29, Type 0, BuildingBlock: BEQFEK_clean_sbu_0, # of connection points: 5
#     Node 30, Type 0, BuildingBlock: BEQFEK_clean_sbu_0, # of connection points: 5
#     Node 31, Type 0, BuildingBlock: BEQFEK_clean_sbu_0, # of connection points: 5
#     Edge 32, Type (0, 0), BuildingBlock: KIFKEQ_clean_linker_1, # of connection points: 2
#     Edge 33, Type (0, 0), BuildingBlock: KIFKEQ_clean_linker_1, # of connection points: 2
#     Edge 34, Type (0, 0), BuildingBlock: KIFKEQ_clean_linker_1, # of connection points: 2
#     Edge 35, Type (0, 0), BuildingBlock: KIFKEQ_clean_linker_1, # of connection points: 2
#     Edge 36, Type (0, 0), BuildingBlock: KIFKEQ_clean_linker_1, # of connection points: 2
#     Edge 37, Type (0, 0), BuildingBlock: KIFKEQ_clean_linker_1, # of connection points: 2
#     Edge 38, Type (0, 0), BuildingBlock: KIFKEQ_clean_linker_1, # of connection points: 2
#     Edge 39, Type (0, 0), BuildingBlock: KIFKEQ_clean_linker_1, # of connection points: 2
#     Edge 40, Type (0, 0), BuildingBlock: KIFKEQ_clean_linker_1, # of connection points: 2
#     Edge 41, Type (0, 0), BuildingBlock: KIFKEQ_clean_linker_1, # of connection points: 2
#     Edge 42, Type (0, 0), BuildingBlock: KIFKEQ_clean_linker_1, # of connection points: 2
#     Edge 43, Type (0, 0), BuildingBlock: KIFKEQ_clean_linker_1, # of connection points: 2
#     Edge 44, Type (0, 0), BuildingBlock: KIFKEQ_clean_linker_1, # of connection points: 2
#     Edge 45, Type (0, 0), BuildingBlock: KIFKEQ_clean_linker_1, # of connection points: 2
#     Edge 46, Type (0, 0), BuildingBlock: KIFKEQ_clean_linker_1, # of connection points: 2
#     Edge 47, Type (0, 0), BuildingBlock: KIFKEQ_clean_linker_1, # of connection points: 2
#     Edge 48, Type (0, 0), BuildingBlock: KIFKEQ_clean_linker_1, # of connection points: 2
#     Edge 49, Type (0, 0), BuildingBlock: KIFKEQ_clean_linker_1, # of connection points: 2
#     Edge 50, Type (0, 0), BuildingBlock: KIFKEQ_clean_linker_1, # of connection points: 2
#     Edge 51, Type (0, 0), BuildingBlock: KIFKEQ_clean_linker_1, # of connection points: 2
#     Edge 52, Type (0, 0), BuildingBlock: KIFKEQ_clean_linker_1, # of connection points: 2
#     Edge 53, Type (0, 0), BuildingBlock: KIFKEQ_clean_linker_1, # of connection points: 2
#     Edge 54, Type (0, 0), BuildingBlock: KIFKEQ_clean_linker_1, # of connection points: 2
#     Edge 55, Type (0, 0), BuildingBlock: KIFKEQ_clean_linker_1, # of connection points: 2
#     Edge 56, Type (0, 0), BuildingBlock: KIFKEQ_clean_linker_1, # of connection points: 2
#     Edge 57, Type (0, 0), BuildingBlock: KIFKEQ_clean_linker_1, # of connection points: 2
#     Edge 58, Type (0, 0), BuildingBlock: KIFKEQ_clean_linker_1, # of connection points: 2
#     Edge 59, Type (0, 0), BuildingBlock: KIFKEQ_clean_linker_1, # of connection points: 2
#     Edge 60, Type (0, 0), BuildingBlock: KIFKEQ_clean_linker_1, # of connection points: 2
#     Edge 61, Type (0, 0), BuildingBlock: KIFKEQ_clean_linker_1, # of connection points: 2
#     Edge 62, Type (0, 0), BuildingBlock: KIFKEQ_clean_linker_1, # of connection points: 2
#     Edge 63, Type (0, 0), BuildingBlock: KIFKEQ_clean_linker_1, # of connection points: 2
#     Edge 64, Type (0, 0), BuildingBlock: KIFKEQ_clean_linker_1, # of connection points: 2
#     Edge 65, Type (0, 0), BuildingBlock: KIFKEQ_clean_linker_1, # of connection points: 2
#     Edge 66, Type (0, 0), BuildingBlock: KIFKEQ_clean_linker_1, # of connection points: 2
#     Edge 67, Type (0, 0), BuildingBlock: KIFKEQ_clean_linker_1, # of connection points: 2
#     Edge 68, Type (0, 0), BuildingBlock: KIFKEQ_clean_linker_1, # of connection points: 2
#     Edge 69, Type (0, 0), BuildingBlock: KIFKEQ_clean_linker_1, # of connection points: 2
#     Edge 70, Type (0, 0), BuildingBlock: KIFKEQ_clean_linker_1, # of connection points: 2
#     Edge 71, Type (0, 0), BuildingBlock: KIFKEQ_clean_linker_1, # of connection points: 2
#     Edge 72, Type (0, 0), BuildingBlock: KIFKEQ_clean_linker_1, # of connection points: 2
#     Edge 73, Type (0, 0), BuildingBlock: KIFKEQ_clean_linker_1, # of connection points: 2
#     Edge 74, Type (0, 0), BuildingBlock: KIFKEQ_clean_linker_1, # of connection points: 2
#     Edge 75, Type (0, 0), BuildingBlock: KIFKEQ_clean_linker_1, # of connection points: 2
#     Edge 76, Type (0, 0), BuildingBlock: KIFKEQ_clean_linker_1, # of connection points: 2
#     Edge 77, Type (0, 0), BuildingBlock: KIFKEQ_clean_linker_1, # of connection points: 2
#     Edge 78, Type (0, 0), BuildingBlock: KIFKEQ_clean_linker_1, # of connection points: 2
#     Edge 79, Type (0, 0), BuildingBlock: KIFKEQ_clean_linker_1, # of connection points: 2
#     Edge 80, Type (0, 0), BuildingBlock: KIFKEQ_clean_linker_1, # of connection points: 2
#     Edge 81, Type (0, 0), BuildingBlock: KIFKEQ_clean_linker_1, # of connection points: 2
#     Edge 82, Type (0, 0), BuildingBlock: KIFKEQ_clean_linker_1, # of connection points: 2
#     Edge 83, Type (0, 0), BuildingBlock: KIFKEQ_clean_linker_1, # of connection points: 2
#     Edge 84, Type (0, 0), BuildingBlock: KIFKEQ_clean_linker_1, # of connection points: 2
#     Edge 85, Type (0, 0), BuildingBlock: KIFKEQ_clean_linker_1, # of connection points: 2
#     Edge 86, Type (0, 0), BuildingBlock: KIFKEQ_clean_linker_1, # of connection points: 2
#     Edge 87, Type (0, 0), BuildingBlock: KIFKEQ_clean_linker_1, # of connection points: 2
#     Edge 88, Type (0, 0), BuildingBlock: KIFKEQ_clean_linker_1, # of connection points: 2
#     Edge 89, Type (0, 0), BuildingBlock: KIFKEQ_clean_linker_1, # of connection points: 2
#     Edge 90, Type (0, 0), BuildingBlock: KIFKEQ_clean_linker_1, # of connection points: 2
#     Edge 91, Type (0, 0), BuildingBlock: KIFKEQ_clean_linker_1, # of connection points: 2
#     Edge 92, Type (0, 0), BuildingBlock: KIFKEQ_clean_linker_1, # of connection points: 2
#     Edge 93, Type (0, 0), BuildingBlock: KIFKEQ_clean_linker_1, # of connection points: 2
#     Edge 94, Type (0, 0), BuildingBlock: KIFKEQ_clean_linker_1, # of connection points: 2
#     Edge 95, Type (0, 0), BuildingBlock: KIFKEQ_clean_linker_1, # of connection points: 2
#     Edge 96, Type (0, 0), BuildingBlock: KIFKEQ_clean_linker_1, # of connection points: 2
#     Edge 97, Type (0, 0), BuildingBlock: KIFKEQ_clean_linker_1, # of connection points: 2
#     Edge 98, Type (0, 0), BuildingBlock: KIFKEQ_clean_linker_1, # of connection points: 2
#     Edge 99, Type (0, 0), BuildingBlock: KIFKEQ_clean_linker_1, # of connection points: 2
#     Edge 100, Type (0, 0), BuildingBlock: KIFKEQ_clean_linker_1, # of connection points: 2
#     Edge 101, Type (0, 0), BuildingBlock: KIFKEQ_clean_linker_1, # of connection points: 2
#     Edge 102, Type (0, 0), BuildingBlock: KIFKEQ_clean_linker_1, # of connection points: 2
#     Edge 103, Type (0, 0), BuildingBlock: KIFKEQ_clean_linker_1, # of connection points: 2
#     Edge 104, Type (0, 0), BuildingBlock: KIFKEQ_clean_linker_1, # of connection points: 2
#     Edge 105, Type (0, 0), BuildingBlock: KIFKEQ_clean_linker_1, # of connection points: 2
#     Edge 106, Type (0, 0), BuildingBlock: KIFKEQ_clean_linker_1, # of connection points: 2
#     Edge 107, Type (0, 0), BuildingBlock: KIFKEQ_clean_linker_1, # of connection points: 2
#     Edge 108, Type (0, 0), BuildingBlock: KIFKEQ_clean_linker_1, # of connection points: 2
#     Edge 109, Type (0, 0), BuildingBlock: KIFKEQ_clean_linker_1, # of connection points: 2
#     Edge 110, Type (0, 0), BuildingBlock: KIFKEQ_clean_linker_1, # of connection points: 2
#     Edge 111, Type (0, 0), BuildingBlock: KIFKEQ_clean_linker_1, # of connection points: 2
# Relax obj value: 0.339
# Max RMSD: 0.195
# Mean RMSD: 0.195
data_MOF--net-yfq--node1-BEQFEK_clean_sbu_0--edge1-KIFKEQ_clean_linker_1
_symmetry_space_group_name_H-M    P1
_symmetry_Int_Tables_number       1
_symmetry_cell_setting            triclinic
loop_
_symmetry_equiv_pos_as_xyz
'x, y, z'
_cell_length_a     57.829577
_cell_length_b     57.830053
_cell_length_c     62.879827
_cell_angle_alpha  89.991057
_cell_angle_beta   90.003936
_cell_angle_gamma 90.020051
loop_
_atom_site_label
_atom_site_type_symbol
_atom_site_fract_x
_atom_site_fract_y
_atom_site_fract_z
_atom_type_partial_charge
Co0 Co 0.11826 0.20443 0.30804 0.0
Co1 Co 0.11072 0.1763 0.26556 0.0
C2 C 0.0811 0.21637 0.27562 0.0
O3 O 0.09188 0.21904 0.29311 0.0
O4 O 0.08682 0.20056 0.26255 0.0
C5 C 0.12856 0.24655 0.32895 0.0
O6 O 0.12742 0.25435 0.30935 0.0
C7 C 0.10645 0.16409 0.21999 0.0
C8 C 0.12179 0.12911 0.21945 0.0
C9 C 0.11233 0.14599 0.20645 0.0
N10 N 0.11259 0.15828 0.23995 0.0
N11 N 0.12158 0.13728 0.2395 0.0
C12 C 0.09369 0.18582 0.21457 0.0
H13 H 0.07824 0.18717 0.22489 0.0
H14 H 0.1049 0.20099 0.21782 0.0
H15 H 0.08776 0.18612 0.19782 0.0
C16 C 0.16545 0.20795 0.29095 0.0
N17 N 0.14354 0.20026 0.28981 0.0
N18 N 0.14025 0.1899 0.27141 0.0
C19 C 0.1598 0.1918 0.25981 0.0
C20 C 0.17637 0.20313 0.27192 0.0
C21 C 0.17532 0.22105 0.30938 0.0
H22 H 0.16732 0.21517 0.32444 0.0
H23 H 0.17195 0.23977 0.30716 0.0
H24 H 0.19428 0.21866 0.31054 0.0
O25 O 0.10816 0.17457 0.31888 0.0
O26 O 0.10006 0.15524 0.28916 0.0
H27 H 0.16081 0.16458 0.2369 0.0
H28 H 0.1793 0.18871 0.23053 0.0
C29 C 0.16233 0.18368 0.23735 0.0
H30 H 0.14823 0.19106 0.22752 0.0
H31 H 0.12788 0.12864 0.25287 0.0
O32 O 0.12564 0.22507 0.33233 0.0
C33 C 0.10065 0.15666 0.30941 0.0
Co34 Co 0.03469 0.86573 0.5535 0.0
Co35 Co 0.06744 0.85864 0.51385 0.0
C36 C 0.0284 0.82626 0.52278 0.0
O37 O 0.02272 0.83789 0.53915 0.0
O38 O 0.04533 0.83239 0.51112 0.0
C39 C 0.99115 0.87447 0.57317 0.0
O40 O 0.98342 0.87115 0.55375 0.0
C41 C 0.08071 0.85518 0.46853 0.0
C42 C 0.11665 0.8681 0.46914 0.0
C43 C 0.09948 0.86035 0.45552 0.0
N44 N 0.08643 0.86013 0.48879 0.0
N45 N 0.10801 0.86767 0.48903 0.0
C46 C 0.05816 0.84442 0.46224 0.0
H47 H 0.055 0.82896 0.47221 0.0
H48 H 0.04389 0.85683 0.46522 0.0
H49 H 0.05799 0.83887 0.44539 0.0
C50 C 0.03014 0.91198 0.53487 0.0
N51 N 0.03865 0.89037 0.53459 0.0
N52 N 0.05144 0.88749 0.51745 0.0
C53 C 0.05068 0.90718 0.50588 0.0
C54 C 0.03729 0.92322 0.51669 0.0
C55 C 0.01508 0.92166 0.55207 0.0
H56 H 0.02101 0.91543 0.56782 0.0
H57 H 0.99702 0.9159 0.54943 0.0
H58 H 0.01524 0.94083 0.55205 0.0
O59 O 0.06428 0.85814 0.56636 0.0
O60 O 0.0879 0.85162 0.53908 0.0
H61 H 0.08137 0.90794 0.48699 0.0
H62 H 0.05952 0.92838 0.47872 0.0
C63 C 0.06253 0.9107 0.485 0.0
H64 H 0.056 0.89787 0.47337 0.0
H65 H 0.11673 0.87287 0.50275 0.0
O66 O 0.01276 0.87332 0.57666 0.0
C67 C 0.08399 0.85251 0.55906 0.0
Co68 Co 0.38038 0.7856 0.80327 0.0
Co69 Co 0.38559 0.82028 0.76482 0.0
C70 C 0.42058 0.78323 0.7732 0.0
O71 O 0.40934 0.77622 0.78936 0.0
O72 O 0.41332 0.80003 0.76191 0.0
C73 C 0.37849 0.74167 0.8236 0.0
O74 O 0.38848 0.73496 0.80588 0.0
C75 C 0.38867 0.83352 0.71981 0.0
C76 C 0.3755 0.86937 0.72003 0.0
C77 C 0.38351 0.85212 0.70662 0.0
N78 N 0.38355 0.83942 0.73997 0.0
N79 N 0.37581 0.86092 0.74 0.0
C80 C 0.39983 0.81105 0.71391 0.0
H81 H 0.41721 0.81031 0.7213 0.0
H82 H 0.38959 0.79646 0.72046 0.0
H83 H 0.40201 0.809 0.69652 0.0
C84 C 0.33664 0.77551 0.78212 0.0
N85 N 0.35638 0.78761 0.78356 0.0
N86 N 0.35799 0.80197 0.76736 0.0
C87 C 0.33902 0.79927 0.75501 0.0
C88 C 0.32516 0.78225 0.76393 0.0
C89 C 0.32879 0.75786 0.79798 0.0
H90 H 0.33926 0.74193 0.79607 0.0
H91 H 0.31027 0.75341 0.79581 0.0
H92 H 0.33129 0.76458 0.81433 0.0
O93 O 0.38542 0.81537 0.8169 0.0
O94 O 0.39098 0.84041 0.79055 0.0
H95 H 0.31708 0.80848 0.72845 0.0
H96 H 0.34744 0.80584 0.7225 0.0
C97 C 0.33478 0.81177 0.73455 0.0
H98 H 0.3372 0.8306 0.73696 0.0
H99 H 0.37048 0.86973 0.75363 0.0
O100 O 0.37321 0.76284 0.8259 0.0
C101 C 0.38999 0.83566 0.81037 0.0
Co102 Co 0.45936 0.12853 0.05463 0.0
Co103 Co 0.42683 0.1359 0.01476 0.0
C104 C 0.46642 0.16759 0.02373 0.0
O105 O 0.47187 0.15598 0.04017 0.0
O106 O 0.44936 0.16175 0.01211 0.0
C107 C 0.50266 0.12004 0.0748 0.0
O108 O 0.51056 0.12334 0.05544 0.0
C109 C 0.41422 0.13974 0.96929 0.0
C110 C 0.37829 0.12678 0.96929 0.0
C111 C 0.39568 0.13465 0.95595 0.0
N112 N 0.40816 0.13463 0.98944 0.0
N113 N 0.38659 0.12707 0.98931 0.0
C114 C 0.43685 0.1506 0.96341 0.0
H115 H 0.43967 0.1661 0.97339 0.0
H116 H 0.45111 0.13827 0.9667 0.0
H117 H 0.43739 0.15614 0.94656 0.0
C118 C 0.46364 0.0823 0.03605 0.0
N119 N 0.45518 0.10392 0.03577 0.0
N120 N 0.44248 0.1069 0.01858 0.0
C121 C 0.44324 0.08725 0.00698 0.0
C122 C 0.45652 0.07113 0.0178 0.0
C123 C 0.47889 0.07272 0.05316 0.0
H124 H 0.47291 0.07877 0.06894 0.0
H125 H 0.49684 0.0788 0.05052 0.0
H126 H 0.47907 0.05356 0.05305 0.0
O127 O 0.42979 0.13667 0.06717 0.0
O128 O 0.40627 0.14334 0.03984 0.0
H129 H 0.4127 0.0867 0.98786 0.0
H130 H 0.43453 0.06621 0.97966 0.0
C131 C 0.43155 0.08387 0.986 0.0
H132 H 0.43822 0.09674 0.97447 0.0
H133 H 0.37764 0.12176 0.00287 0.0
O134 O 0.48099 0.12094 0.07806 0.0
C135 C 0.41016 0.14251 0.05984 0.0
Co136 Co 0.11559 0.78278 0.19981 0.0
Co137 Co 0.11122 0.81953 0.23673 0.0
C138 C 0.07924 0.77841 0.23275 0.0
O139 O 0.08996 0.7702 0.21679 0.0
O140 O 0.08542 0.79736 0.24133 0.0
C141 C 0.12266 0.73877 0.17973 0.0
O142 O 0.11893 0.73069 0.19896 0.0
C143 C 0.11242 0.83183 0.28217 0.0
C144 C 0.11311 0.86999 0.2812 0.0
C145 C 0.11273 0.85137 0.29511 0.0
N146 N 0.11277 0.83867 0.26168 0.0
N147 N 0.11328 0.8615 0.26124 0.0
C148 C 0.11024 0.80712 0.28905 0.0
H149 H 0.1058 0.79577 0.27552 0.0
H150 H 0.12696 0.80101 0.29555 0.0
H151 H 0.09698 0.80551 0.30173 0.0
C152 C 0.16309 0.78017 0.21586 0.0
N153 N 0.14156 0.78882 0.21668 0.0
N154 N 0.14012 0.80398 0.23228 0.0
C155 C 0.16091 0.80516 0.24203 0.0
C156 C 0.17598 0.79014 0.23189 0.0
C157 C 0.17084 0.76185 0.20061 0.0
H158 H 0.16556 0.76658 0.18424 0.0
H159 H 0.1625 0.74525 0.20492 0.0
H160 H 0.18982 0.75929 0.20095 0.0
O161 O 0.10568 0.81155 0.1862 0.0
O162 O 0.10265 0.8386 0.21123 0.0
H163 H 0.18561 0.82278 0.26202 0.0
H164 H 0.15972 0.81313 0.27513 0.0
C165 C 0.16662 0.82073 0.26027 0.0
H166 H 0.15858 0.83793 0.25786 0.0
H167 H 0.11338 0.87132 0.2473 0.0
O168 O 0.12238 0.76049 0.17668 0.0
C169 C 0.10123 0.83221 0.19183 0.0
Co170 Co 0.46119 0.86409 0.45106 0.0
Co171 Co 0.42463 0.86092 0.48819 0.0
C172 C 0.46301 0.82618 0.48298 0.0
O173 O 0.4716 0.83675 0.46708 0.0
O174 O 0.44481 0.83345 0.4922 0.0
C175 C 0.50548 0.86954 0.43088 0.0
O176 O 0.51363 0.86528 0.44999 0.0
C177 C 0.41168 0.85885 0.53318 0.0
C178 C 0.37544 0.87093 0.533 0.0
C179 C 0.39303 0.86364 0.5464 0.0
N180 N 0.40549 0.86346 0.51299 0.0
N181 N 0.38378 0.87059 0.51298 0.0
C182 C 0.43449 0.84837 0.53908 0.0
H183 H 0.43516 0.83044 0.53284 0.0
H184 H 0.44871 0.85823 0.53144 0.0
H185 H 0.43721 0.84755 0.55648 0.0
C186 C 0.46905 0.90978 0.4698 0.0
N187 N 0.45772 0.88953 0.46911 0.0
N188 N 0.44288 0.88847 0.48499 0.0
C189 C 0.44471 0.90813 0.49651 0.0
C190 C 0.46152 0.92201 0.48729 0.0
C191 C 0.48648 0.91771 0.45377 0.0
H192 H 0.48105 0.91247 0.43758 0.0
H193 H 0.50347 0.9098 0.45746 0.0
H194 H 0.48851 0.93679 0.45414 0.0
O195 O 0.43178 0.85737 0.43729 0.0
O196 O 0.40488 0.85486 0.46245 0.0
H197 H 0.41293 0.91021 0.51383 0.0
H198 H 0.43453 0.93099 0.5221 0.0
C199 C 0.43166 0.91301 0.51654 0.0
H200 H 0.43747 0.90092 0.52914 0.0
H201 H 0.37469 0.87535 0.49931 0.0
O202 O 0.48374 0.87003 0.428 0.0
C203 C 0.41093 0.85411 0.44294 0.0
Co204 Co 0.38216 0.21176 0.70083 0.0
Co205 Co 0.38528 0.17494 0.73777 0.0
C206 C 0.4206 0.21276 0.73238 0.0
O207 O 0.40999 0.22142 0.71655 0.0
O208 O 0.41316 0.19472 0.74178 0.0
C209 C 0.38071 0.25609 0.68074 0.0
O210 O 0.39062 0.26283 0.69848 0.0
C211 C 0.38813 0.16144 0.78252 0.0
C212 C 0.37386 0.12603 0.78256 0.0
C213 C 0.3828 0.14301 0.7958 0.0
N214 N 0.38273 0.15559 0.76241 0.0
N215 N 0.37434 0.13433 0.76252 0.0
C216 C 0.39619 0.18505 0.7889 0.0
H217 H 0.38961 0.1982 0.77757 0.0
H218 H 0.39028 0.18939 0.80521 0.0
H219 H 0.41537 0.18549 0.78855 0.0
C220 C 0.33725 0.22056 0.72027 0.0
N221 N 0.35713 0.20866 0.71929 0.0
N222 N 0.35792 0.19351 0.73492 0.0
C223 C 0.33829 0.19551 0.74646 0.0
C224 C 0.3248 0.21287 0.73758 0.0
C225 C 0.33017 0.23886 0.70472 0.0
H226 H 0.33321 0.23269 0.68828 0.0
H227 H 0.34075 0.25459 0.70743 0.0
H228 H 0.31163 0.24343 0.70641 0.0
O229 O 0.38824 0.18236 0.68665 0.0
O230 O 0.39097 0.15545 0.71181 0.0
H231 H 0.33538 0.16333 0.76303 0.0
H232 H 0.31524 0.18526 0.77189 0.0
C233 C 0.33311 0.18204 0.7662 0.0
H234 H 0.34542 0.18714 0.77887 0.0
H235 H 0.36853 0.12566 0.74898 0.0
O236 O 0.37553 0.2349 0.67838 0.0
C237 C 0.39152 0.16149 0.69228 0.0
Co238 Co 0.04346 0.12739 0.94589 0.0
Co239 Co 0.07336 0.13383 0.98739 0.0
C240 C 0.03376 0.16481 0.97839 0.0
O241 O 0.02989 0.15413 0.96104 0.0
O242 O 0.05004 0.15865 0.99076 0.0
C243 C 0.00077 0.11911 0.92509 0.0
O244 O 0.9929 0.12151 0.94457 0.0
C245 C 0.08484 0.13728 0.03287 0.0
C246 C 0.12067 0.12408 0.03366 0.0
C247 C 0.10312 0.13249 0.04652 0.0
N248 N 0.09136 0.13204 0.0129 0.0
N249 N 0.11284 0.12429 0.01348 0.0
C250 C 0.06093 0.14481 0.03879 0.0
H251 H 0.04816 0.13802 0.02721 0.0
H252 H 0.05633 0.13875 0.05499 0.0
H253 H 0.06011 0.16398 0.03849 0.0
C254 C 0.03746 0.08088 0.96374 0.0
N255 N 0.04704 0.10204 0.96415 0.0
N256 N 0.05866 0.10467 0.98201 0.0
C257 C 0.05612 0.08528 0.99379 0.0
C258 C 0.04256 0.06974 0.98254 0.0
C259 C 0.02288 0.0715 0.94607 0.0
H260 H 0.02912 0.07804 0.93053 0.0
H261 H 0.00468 0.07689 0.94849 0.0
H262 H 0.02336 0.0523 0.94597 0.0
O263 O 0.07338 0.13657 0.93446 0.0
O264 O 0.09429 0.14372 0.96345 0.0
H265 H 0.08366 0.08534 0.01647 0.0
H266 H 0.06092 0.06484 0.02228 0.0
C267 C 0.06473 0.0824 0.01606 0.0
H268 H 0.05638 0.09541 0.02646 0.0
H269 H 0.12203 0.11877 1.00013 0.0
O270 O 0.02241 0.12052 0.9218 0.0
C271 C 0.09198 0.14331 0.94327 0.0
Co272 Co 0.8827 0.78537 0.70027 0.0
Co273 Co 0.88594 0.82217 0.73717 0.0
C274 C 0.92086 0.78401 0.7322 0.0
O275 O 0.91027 0.77541 0.71632 0.0
O276 O 0.91353 0.80213 0.74152 0.0
C277 C 0.88103 0.74108 0.68009 0.0
O278 O 0.89109 0.73431 0.69776 0.0
C279 C 0.888 0.83606 0.7818 0.0
C280 C 0.8745 0.87177 0.78118 0.0
C281 C 0.8827 0.85475 0.79477 0.0
N282 N 0.88326 0.8418 0.76154 0.0
N283 N 0.87534 0.86323 0.76125 0.0
C284 C 0.89539 0.81238 0.78859 0.0
H285 H 0.88888 0.79924 0.7772 0.0
H286 H 0.88894 0.80834 0.80479 0.0
H287 H 0.91456 0.81157 0.78871 0.0
C288 C 0.83678 0.7784 0.71843 0.0
N289 N 0.85739 0.78908 0.71832 0.0
N290 N 0.85836 0.80409 0.73405 0.0
C291 C 0.83822 0.80308 0.74491 0.0
C292 C 0.82399 0.78689 0.73522 0.0
C293 C 0.82994 0.75964 0.70326 0.0
H294 H 0.83198 0.76589 0.68669 0.0
H295 H 0.84153 0.74459 0.70556 0.0
H296 H 0.81186 0.75387 0.7057 0.0
O297 O 0.88941 0.81465 0.68602 0.0
O298 O 0.89208 0.84147 0.71126 0.0
H299 H 0.83554 0.83596 0.76028 0.0
H300 H 0.81429 0.81502 0.76897 0.0
C301 C 0.83253 0.81745 0.76397 0.0
H302 H 0.84408 0.81252 0.77729 0.0
H303 H 0.87008 0.87186 0.74749 0.0
O304 O 0.87582 0.76227 0.67782 0.0
C305 C 0.89283 0.83548 0.69173 0.0
Co306 Co 0.95349 0.12929 0.44688 0.0
Co307 Co 0.92403 0.13528 0.48875 0.0
C308 C 0.96031 0.16922 0.4775 0.0
O309 O 0.96428 0.15815 0.46039 0.0
O310 O 0.94543 0.16207 0.4909 0.0
C311 C 0.99649 0.12628 0.42611 0.0
O312 O 0.00342 0.13391 0.44474 0.0
C313 C 0.91251 0.13925 0.53429 0.0
C314 C 0.87781 0.12332 0.53559 0.0
C315 C 0.8948 0.13324 0.54818 0.0
N316 N 0.90638 0.13283 0.5145 0.0
N317 N 0.88557 0.12343 0.5154 0.0
C318 C 0.93416 0.15244 0.53918 0.0
H319 H 0.93379 0.169 0.53032 0.0
H320 H 0.94941 0.14253 0.53357 0.0
H321 H 0.93594 0.15651 0.5563 0.0
C322 C 0.96425 0.08483 0.46653 0.0
N323 N 0.95286 0.10505 0.46645 0.0
N324 N 0.94105 0.10723 0.48423 0.0
C325 C 0.94498 0.08836 0.4964 0.0
C326 C 0.95995 0.07375 0.48555 0.0
C327 C 0.97891 0.07607 0.44863 0.0
H328 H 0.97084 0.08046 0.43316 0.0
H329 H 0.99622 0.08428 0.44951 0.0
H330 H 0.98117 0.05704 0.44959 0.0
O331 O 0.9227 0.13476 0.43548 0.0
O332 O 0.90222 0.14252 0.46461 0.0
H333 H 0.91683 0.08563 0.51827 0.0
H334 H 0.94182 0.06854 0.52549 0.0
C335 C 0.93599 0.08517 0.51851 0.0
H336 H 0.94214 0.09958 0.52866 0.0
H337 H 0.87676 0.11687 0.50222 0.0
O338 O 0.97507 0.12258 0.42313 0.0
C339 C 0.90396 0.14091 0.44441 0.0
Co340 Co 0.61433 0.21344 0.19998 0.0
Co341 Co 0.61009 0.17738 0.23757 0.0
C342 C 0.57683 0.21722 0.23206 0.0
O343 O 0.58779 0.22548 0.21624 0.0
O344 O 0.5834 0.19872 0.24122 0.0
C345 C 0.62214 0.25724 0.17951 0.0
O346 O 0.61904 0.26561 0.19872 0.0
C347 C 0.6107 0.16508 0.28317 0.0
C348 C 0.6142 0.12709 0.28205 0.0
C349 C 0.61229 0.14553 0.29604 0.0
N350 N 0.61185 0.15843 0.26265 0.0
N351 N 0.61398 0.13569 0.26214 0.0
C352 C 0.60682 0.18955 0.29014 0.0
H353 H 0.60084 0.20044 0.27679 0.0
H354 H 0.62329 0.19701 0.29599 0.0
H355 H 0.59403 0.19014 0.30329 0.0
C356 C 0.66166 0.2172 0.21664 0.0
N357 N 0.64014 0.20845 0.21746 0.0
N358 N 0.63863 0.19372 0.2334 0.0
C359 C 0.65929 0.19301 0.24343 0.0
C360 C 0.67438 0.20784 0.23309 0.0
C361 C 0.66984 0.23454 0.20063 0.0
H362 H 0.66242 0.25168 0.20456 0.0
H363 H 0.68893 0.23621 0.20057 0.0
H364 H 0.664 0.22942 0.18452 0.0
O365 O 0.60553 0.18413 0.18665 0.0
O366 O 0.6027 0.15766 0.21222 0.0
H367 H 0.6839 0.17675 0.26451 0.0
H368 H 0.65689 0.18505 0.27648 0.0
C369 C 0.66493 0.17782 0.26196 0.0
H370 H 0.65792 0.16022 0.25928 0.0
H371 H 0.6151 0.126 0.24817 0.0
O372 O 0.62107 0.23552 0.17661 0.0
C373 C 0.60151 0.1635 0.19267 0.0
Co374 Co 0.53434 0.86189 0.94922 0.0
Co375 Co 0.56921 0.85917 0.98797 0.0
C376 C 0.53161 0.82407 0.98149 0.0
O377 O 0.52373 0.83448 0.9652 0.0
O378 O 0.54922 0.83155 0.9915 0.0
C379 C 0.49025 0.8678 0.92913 0.0
O380 O 0.48241 0.86446 0.9485 0.0
C381 C 0.58288 0.85603 0.0331 0.0
C382 C 0.6165 0.87418 0.03332 0.0
C383 C 0.60056 0.86343 0.04649 0.0
N384 N 0.58795 0.86258 0.01307 0.0
N385 N 0.60817 0.87324 0.01332 0.0
C386 C 0.5622 0.84169 0.03874 0.0
H387 H 0.56251 0.82553 0.02928 0.0
H388 H 0.5462 0.85124 0.03453 0.0
H389 H 0.56186 0.83676 0.05575 0.0
C390 C 0.52584 0.90787 0.96724 0.0
N391 N 0.53706 0.88754 0.96722 0.0
N392 N 0.55073 0.88641 0.98396 0.0
C393 C 0.54798 0.90594 0.9955 0.0
C394 C 0.53199 0.91996 0.98527 0.0
C395 C 0.51009 0.91617 0.94995 0.0
H396 H 0.51626 0.91001 0.93427 0.0
H397 H 0.49238 0.90955 0.95287 0.0
H398 H 0.50928 0.93535 0.94969 0.0
O399 O 0.56428 0.85526 0.93632 0.0
O400 O 0.58973 0.853 0.96278 0.0
H401 H 0.57818 0.91083 0.01453 0.0
H402 H 0.55331 0.92697 0.02359 0.0
C403 C 0.55915 0.91037 0.01656 0.0
H404 H 0.55486 0.89608 0.02763 0.0
H405 H 0.61611 0.88023 0.99986 0.0
O406 O 0.51194 0.86748 0.92586 0.0
C407 C 0.58478 0.85205 0.94301 0.0
Co408 Co 0.88023 0.21038 0.80642 0.0
Co409 Co 0.88666 0.17785 0.76664 0.0
C410 C 0.91744 0.2185 0.77378 0.0
O411 O 0.90652 0.22377 0.79067 0.0
O412 O 0.91157 0.2011 0.76261 0.0
C413 C 0.87105 0.25358 0.82661 0.0
O414 O 0.87344 0.26153 0.80715 0.0
C415 C 0.88884 0.16558 0.72136 0.0
C416 C 0.8802 0.12836 0.72174 0.0
C417 C 0.88563 0.14651 0.70823 0.0
N418 N 0.88517 0.15902 0.74161 0.0
N419 N 0.88006 0.13674 0.74172 0.0
C420 C 0.8972 0.18921 0.71531 0.0
H421 H 0.88641 0.20253 0.72324 0.0
H422 H 0.8973 0.19203 0.69791 0.0
H423 H 0.91515 0.19135 0.72117 0.0
C424 C 0.83299 0.21327 0.78951 0.0
N425 N 0.85475 0.20518 0.78865 0.0
N426 N 0.85737 0.19251 0.77141 0.0
C427 C 0.83736 0.19293 0.76033 0.0
C428 C 0.82135 0.20598 0.77154 0.0
C429 C 0.82386 0.22877 0.80663 0.0
H430 H 0.83077 0.22337 0.82229 0.0
H431 H 0.82933 0.24679 0.80333 0.0
H432 H 0.80473 0.22848 0.80733 0.0
O433 O 0.8901 0.1812 0.81894 0.0
O434 O 0.89593 0.15777 0.79141 0.0
H435 H 0.83818 0.16277 0.74066 0.0
H436 H 0.81537 0.18291 0.73405 0.0
C437 C 0.83361 0.18133 0.73936 0.0
H438 H 0.84505 0.18934 0.72727 0.0
H439 H 0.87644 0.12727 0.75546 0.0
O440 O 0.87292 0.23199 0.82993 0.0
C441 C 0.89614 0.16172 0.81139 0.0
Co442 Co 0.53299 0.1328 0.55204 0.0
Co443 Co 0.56916 0.13677 0.51452 0.0
C444 C 0.52972 0.17021 0.51962 0.0
O445 O 0.52156 0.15951 0.53563 0.0
O446 O 0.54808 0.16346 0.51035 0.0
C447 C 0.48878 0.12587 0.57188 0.0
O448 O 0.48083 0.12942 0.55258 0.0
C449 C 0.58244 0.13867 0.46947 0.0
C450 C 0.61884 0.12712 0.47012 0.0
C451 C 0.60132 0.13397 0.45646 0.0
N452 N 0.58847 0.13439 0.48977 0.0
N453 N 0.61028 0.1276 0.49005 0.0
C454 C 0.55954 0.14872 0.46325 0.0
H455 H 0.55775 0.16604 0.47063 0.0
H456 H 0.54541 0.13767 0.46954 0.0
H457 H 0.55767 0.15088 0.44585 0.0
C458 C 0.52857 0.08574 0.53518 0.0
N459 N 0.53773 0.10707 0.53455 0.0
N460 N 0.55215 0.10861 0.51838 0.0
C461 C 0.55196 0.08828 0.5078 0.0
C462 C 0.53715 0.07324 0.51825 0.0
C463 C 0.51137 0.07766 0.55137 0.0
H464 H 0.51672 0.08345 0.56744 0.0
H465 H 0.49424 0.0852 0.54762 0.0
H466 H 0.50955 0.05859 0.55143 0.0
O467 O 0.56224 0.1409 0.56565 0.0
O468 O 0.58873 0.14382 0.54011 0.0
H469 H 0.58434 0.08668 0.49147 0.0
H470 H 0.56373 0.06495 0.48317 0.0
C471 C 0.56581 0.08321 0.48828 0.0
H472 H 0.56012 0.09477 0.47522 0.0
H473 H 0.61928 0.12313 0.50385 0.0
O474 O 0.51047 0.12634 0.57509 0.0
C475 C 0.5829 0.14472 0.55968 0.0
Co476 Co 0.61419 0.78269 0.30108 0.0
Co477 Co 0.61047 0.81969 0.26435 0.0
C478 C 0.57752 0.77951 0.26804 0.0
O479 O 0.58804 0.77116 0.28407 0.0
O480 O 0.58413 0.79823 0.25928 0.0
C481 C 0.62067 0.73845 0.32137 0.0
O482 O 0.617 0.73009 0.30223 0.0
C483 C 0.60886 0.8331 0.21954 0.0
C484 C 0.61962 0.86973 0.22015 0.0
C485 C 0.61296 0.85208 0.20653 0.0
N486 N 0.61278 0.83928 0.23985 0.0
N487 N 0.61911 0.86124 0.24012 0.0
C488 C 0.60326 0.80891 0.21283 0.0
H489 H 0.61048 0.79635 0.2244 0.0
H490 H 0.61027 0.80523 0.19675 0.0
H491 H 0.5842 0.80674 0.21245 0.0
C492 C 0.66155 0.77915 0.28491 0.0
N493 N 0.64015 0.78811 0.2841 0.0
N494 N 0.63885 0.8031 0.26837 0.0
C495 C 0.65948 0.80366 0.25832 0.0
C496 C 0.67443 0.78863 0.26862 0.0
C497 C 0.66925 0.76122 0.30057 0.0
H498 H 0.66091 0.74452 0.29659 0.0
H499 H 0.68823 0.75864 0.30031 0.0
H500 H 0.6639 0.76635 0.31683 0.0
O501 O 0.60547 0.81154 0.31497 0.0
O502 O 0.60269 0.83875 0.29009 0.0
H503 H 0.68349 0.81724 0.23506 0.0
H504 H 0.65423 0.81291 0.2258 0.0
C505 C 0.66495 0.81847 0.23949 0.0
H506 H 0.66065 0.83672 0.24314 0.0
H507 H 0.62337 0.87035 0.25391 0.0
O508 O 0.62053 0.76021 0.32415 0.0
C509 C 0.60152 0.83233 0.30949 0.0
Co510 Co 0.95793 0.8659 0.0522 0.0
Co511 Co 0.92355 0.86221 0.01339 0.0
C512 C 0.96291 0.82917 0.01884 0.0
O513 O 0.96994 0.83947 0.03553 0.0
O514 O 0.94506 0.83603 0.00882 0.0
C515 C 0.00172 0.87217 0.07257 0.0
O516 O 0.00969 0.86917 0.0532 0.0
C517 C 0.91072 0.86028 0.96834 0.0
C518 C 0.87495 0.87365 0.96844 0.0
C519 C 0.89223 0.86553 0.95511 0.0
N520 N 0.90462 0.86498 0.98852 0.0
N521 N 0.88316 0.87283 0.98849 0.0
C522 C 0.9345 0.85289 0.96187 0.0
H523 H 0.9475 0.85975 0.97321 0.0
H524 H 0.93866 0.859 0.94558 0.0
H525 H 0.93544 0.83373 0.96215 0.0
C526 C 0.96307 0.91322 0.03586 0.0
N527 N 0.95361 0.89201 0.03501 0.0
N528 N 0.94009 0.89049 0.0182 0.0
C529 C 0.94126 0.91065 0.00741 0.0
C530 C 0.95572 0.92563 0.01836 0.0
C531 C 0.97994 0.92101 0.05245 0.0
H532 H 0.97447 0.91468 0.0683 0.0
H533 H 0.99724 0.91385 0.04868 0.0
H534 H 0.98144 0.94009 0.05301 0.0
O535 O 0.92844 0.85733 0.06509 0.0
O536 O 0.90351 0.85375 0.03829 0.0
H537 H 0.91034 0.91244 0.98885 0.0
H538 H 0.932 0.93351 0.98152 0.0
C539 C 0.92914 0.91544 0.98687 0.0
H540 H 0.93562 0.90342 0.9745 0.0
H541 H 0.87426 0.878 0.00213 0.0
O542 O 0.98002 0.87177 0.07571 0.0
C543 C 0.90831 0.85291 0.05808 0.0
Co544 Co 0.61716 0.71016 0.80561 0.0
Co545 Co 0.61062 0.67726 0.76595 0.0
C546 C 0.57942 0.71765 0.77345 0.0
O547 O 0.59046 0.72316 0.79021 0.0
O548 O 0.58538 0.70026 0.76228 0.0
C549 C 0.6258 0.75347 0.82583 0.0
O550 O 0.62266 0.76145 0.80647 0.0
C551 C 0.60734 0.66441 0.72064 0.0
C552 C 0.62008 0.62841 0.7208 0.0
C553 C 0.61233 0.64579 0.7074 0.0
N554 N 0.61232 0.65839 0.74082 0.0
N555 N 0.61979 0.63679 0.74079 0.0
C556 C 0.59641 0.68699 0.71473 0.0
H557 H 0.60748 0.70147 0.72025 0.0
H558 H 0.59312 0.68855 0.69745 0.0
H559 H 0.57958 0.68845 0.72302 0.0
C560 C 0.66349 0.71508 0.78724 0.0
N561 N 0.6423 0.70556 0.78736 0.0
N562 N 0.63971 0.69259 0.7703 0.0
C563 C 0.65921 0.69408 0.7585 0.0
C564 C 0.67473 0.70843 0.76892 0.0
C565 C 0.67291 0.73075 0.80409 0.0
H566 H 0.66686 0.72512 0.81999 0.0
H567 H 0.66695 0.74866 0.80103 0.0
H568 H 0.69211 0.73076 0.8039 0.0
O569 O 0.60793 0.68087 0.81824 0.0
O570 O 0.60183 0.65715 0.79095 0.0
H571 H 0.65959 0.66455 0.73808 0.0
H572 H 0.6799 0.68689 0.73061 0.0
C573 C 0.66234 0.68348 0.73701 0.0
H574 H 0.64931 0.6907 0.72592 0.0
H575 H 0.62497 0.62787 0.75441 0.0
O576 O 0.62458 0.73181 0.82908 0.0
C577 C 0.60192 0.66128 0.81092 0.0
Co578 Co 0.53727 0.36745 0.05545 0.0
Co579 Co 0.56985 0.36083 0.01553 0.0
C580 C 0.53214 0.32729 0.02527 0.0
O581 O 0.52644 0.33881 0.0417 0.0
O582 O 0.54854 0.33391 0.01319 0.0
C583 C 0.49354 0.37468 0.07524 0.0
O584 O 0.4859 0.37055 0.05593 0.0
C585 C 0.58311 0.35586 0.9704 0.0
C586 C 0.61729 0.37289 0.96965 0.0
C587 C 0.60093 0.36234 0.95678 0.0
N588 N 0.58852 0.3627 0.99026 0.0
N589 N 0.60907 0.37269 0.9897 0.0
C590 C 0.56199 0.342 0.96519 0.0
H591 H 0.56208 0.32609 0.97498 0.0
H592 H 0.54629 0.35202 0.9694 0.0
H593 H 0.56135 0.33673 0.94827 0.0
C594 C 0.5288 0.41211 0.03489 0.0
N595 N 0.53968 0.39162 0.03582 0.0
N596 N 0.55251 0.38893 0.01867 0.0
C597 C 0.54955 0.40759 0.006 0.0
C598 C 0.53433 0.42267 0.01591 0.0
C599 C 0.51364 0.42185 0.05198 0.0
H600 H 0.52003 0.41655 0.06786 0.0
H601 H 0.49573 0.41546 0.04975 0.0
H602 H 0.51325 0.44102 0.05117 0.0
O603 O 0.56725 0.36142 0.06815 0.0
O604 O 0.59068 0.35478 0.04077 0.0
H605 H 0.5788 0.40989 0.98536 0.0
H606 H 0.55418 0.42662 0.97665 0.0
C607 C 0.55967 0.4102 0.98425 0.0
H608 H 0.55411 0.3955 0.97418 0.0
H609 H 0.61731 0.37977 0.00296 0.0
O610 O 0.5152 0.37455 0.07867 0.0
C611 C 0.587 0.35607 0.06078 0.0
Co612 Co 0.88096 0.28592 0.30586 0.0
Co613 Co 0.88673 0.31919 0.26637 0.0
C614 C 0.92186 0.28298 0.27642 0.0
O615 O 0.91037 0.27663 0.29267 0.0
O616 O 0.91459 0.29906 0.26429 0.0
C617 C 0.87864 0.24207 0.326 0.0
O618 O 0.88843 0.23558 0.30811 0.0
C619 C 0.89049 0.33142 0.22119 0.0
C620 C 0.87727 0.36726 0.22056 0.0
C621 C 0.88558 0.34975 0.2076 0.0
N622 N 0.88497 0.33773 0.24115 0.0
N623 N 0.87719 0.35921 0.24067 0.0
C624 C 0.90183 0.30887 0.21588 0.0
H625 H 0.89159 0.2944 0.22263 0.0
H626 H 0.90424 0.3064 0.19857 0.0
H627 H 0.91912 0.30842 0.22346 0.0
C628 C 0.83745 0.27519 0.28439 0.0
N629 N 0.8573 0.28716 0.28567 0.0
N630 N 0.85918 0.30094 0.26908 0.0
C631 C 0.84033 0.29801 0.25664 0.0
C632 C 0.82622 0.28143 0.26592 0.0
C633 C 0.8291 0.25834 0.30076 0.0
H634 H 0.83185 0.26551 0.31691 0.0
H635 H 0.83903 0.24203 0.29926 0.0
H636 H 0.81045 0.2544 0.29872 0.0
O637 O 0.88559 0.31618 0.31889 0.0
O638 O 0.89169 0.33996 0.29164 0.0
H639 H 0.81879 0.30642 0.22957 0.0
H640 H 0.84929 0.30396 0.22415 0.0
C641 C 0.83634 0.31001 0.23589 0.0
H642 H 0.83853 0.32891 0.23799 0.0
H643 H 0.87161 0.36831 0.25407 0.0
O644 O 0.87364 0.26328 0.32864 0.0
C645 C 0.89041 0.33614 0.31161 0.0
Co646 Co 0.95426 0.62821 0.55639 0.0
Co647 Co 0.92383 0.63429 0.51518 0.0
C648 C 0.96227 0.66663 0.5244 0.0
O649 O 0.96665 0.65573 0.54153 0.0
O650 O 0.94622 0.66006 0.51194 0.0
C651 C 0.99727 0.62016 0.57694 0.0
O652 O 0.00509 0.62243 0.55743 0.0
C653 C 0.91194 0.637 0.46973 0.0
C654 C 0.87632 0.6232 0.46934 0.0
C655 C 0.89368 0.63159 0.45624 0.0
N656 N 0.9056 0.63209 0.48982 0.0
N657 N 0.88423 0.62401 0.48947 0.0
C658 C 0.93572 0.64474 0.46359 0.0
H659 H 0.9486 0.63843 0.4753 0.0
H660 H 0.94035 0.63835 0.4475 0.0
H661 H 0.93626 0.66392 0.46348 0.0
C662 C 0.95981 0.58141 0.53896 0.0
N663 N 0.9511 0.60293 0.53802 0.0
N664 N 0.93942 0.60551 0.52019 0.0
C665 C 0.94125 0.58578 0.5088 0.0
C666 C 0.95408 0.56996 0.52043 0.0
C667 C 0.97418 0.57221 0.55687 0.0
H668 H 0.96799 0.57927 0.57222 0.0
H669 H 0.99245 0.57737 0.55441 0.0
H670 H 0.97354 0.55307 0.55757 0.0
O671 O 0.92419 0.63607 0.56815 0.0
O672 O 0.90272 0.64296 0.53943 0.0
H673 H 0.91224 0.58485 0.48776 0.0
H674 H 0.93475 0.56445 0.48115 0.0
C675 C 0.9312 0.58215 0.48715 0.0
H676 H 0.93866 0.59495 0.47597 0.0
H677 H 0.87521 0.61858 0.50296 0.0
O678 O 0.97565 0.62161 0.58028 0.0
C679 C 0.90525 0.6422 0.5596 0.0
Co680 Co 0.61468 0.28468 0.70025 0.0
Co681 Co 0.6105 0.31985 0.73837 0.0
C682 C 0.57759 0.28008 0.73301 0.0
O683 O 0.58819 0.27263 0.71666 0.0
O684 O 0.58418 0.29827 0.74268 0.0
C685 C 0.62165 0.24094 0.67985 0.0
O686 O 0.61817 0.2327 0.69906 0.0
C687 C 0.60785 0.33276 0.78339 0.0
C688 C 0.62085 0.36866 0.78338 0.0
C689 C 0.61274 0.35133 0.79668 0.0
N690 N 0.61273 0.33888 0.76324 0.0
N691 N 0.62036 0.36043 0.76333 0.0
C692 C 0.60063 0.30888 0.78979 0.0
H693 H 0.60741 0.29598 0.77832 0.0
H694 H 0.60696 0.30464 0.80599 0.0
H695 H 0.58147 0.30784 0.7897 0.0
C696 C 0.66112 0.27858 0.71801 0.0
N697 N 0.64043 0.2891 0.71782 0.0
N698 N 0.63886 0.30311 0.73428 0.0
C699 C 0.65858 0.30139 0.74575 0.0
C700 C 0.6731 0.28564 0.73582 0.0
C701 C 0.66951 0.26192 0.7015 0.0
H702 H 0.66367 0.26744 0.68551 0.0
H703 H 0.66255 0.24448 0.70501 0.0
H704 H 0.68868 0.26085 0.70155 0.0
O705 O 0.60603 0.31389 0.68705 0.0
O706 O 0.60252 0.33968 0.71308 0.0
H707 H 0.65975 0.33201 0.7648 0.0
H708 H 0.68066 0.31025 0.77232 0.0
C709 C 0.66277 0.31318 0.76656 0.0
H710 H 0.65046 0.30642 0.77855 0.0
H711 H 0.62563 0.36937 0.74974 0.0
O712 O 0.62113 0.26266 0.6769 0.0
C713 C 0.60158 0.33427 0.69341 0.0
Co714 Co 0.96226 0.36335 0.94975 0.0
Co715 Co 0.92858 0.35727 0.98891 0.0
C716 C 0.96629 0.32329 0.97995 0.0
O717 O 0.97257 0.33473 0.96366 0.0
O718 O 0.94961 0.3301 0.99159 0.0
C719 C 0.00603 0.36618 0.92944 0.0
O720 O 0.01277 0.35636 0.94724 0.0
C721 C 0.91619 0.35472 0.03417 0.0
C722 C 0.8794 0.36501 0.03394 0.0
C723 C 0.89732 0.35871 0.04738 0.0
N724 N 0.90976 0.35885 0.01396 0.0
N725 N 0.88772 0.3649 0.01393 0.0
C726 C 0.93953 0.34555 0.04015 0.0
H727 H 0.94228 0.32875 0.03206 0.0
H728 H 0.95312 0.35759 0.03442 0.0
H729 H 0.94136 0.3427 0.05747 0.0
C730 C 0.96944 0.40849 0.96928 0.0
N731 N 0.95957 0.38749 0.96923 0.0
N732 N 0.94573 0.38546 0.98576 0.0
C733 C 0.94665 0.40533 0.99705 0.0
C734 C 0.96164 0.42044 0.98686 0.0
C735 C 0.98642 0.41671 0.95296 0.0
H736 H 0.97898 0.41448 0.93683 0.0
H737 H 0.00233 0.40609 0.95405 0.0
H738 H 0.99126 0.43508 0.95528 0.0
O739 O 0.93233 0.35742 0.93655 0.0
O740 O 0.90816 0.35145 0.96354 0.0
H741 H 0.91441 0.40618 0.01372 0.0
H742 H 0.93459 0.42848 0.02169 0.0
C743 C 0.93288 0.41015 0.01668 0.0
H744 H 0.93905 0.39885 0.02974 0.0
H745 H 0.8784 0.36911 1.00025 0.0
O746 O 0.98477 0.37108 0.927 0.0
C747 C 0.91231 0.35247 0.94361 0.0
Co748 Co 0.88343 0.71302 0.20182 0.0
Co749 Co 0.88622 0.67558 0.23836 0.0
C750 C 0.9222 0.71281 0.23283 0.0
O751 O 0.91163 0.72196 0.21721 0.0
O752 O 0.91449 0.69477 0.24202 0.0
C753 C 0.88296 0.75738 0.18165 0.0
O754 O 0.89361 0.76387 0.19912 0.0
C755 C 0.88931 0.6615 0.28307 0.0
C756 C 0.87369 0.62664 0.28289 0.0
C757 C 0.88308 0.64323 0.29626 0.0
N758 N 0.88344 0.6561 0.26296 0.0
N759 N 0.87427 0.63517 0.26294 0.0
C760 C 0.90202 0.68317 0.28894 0.0
H761 H 0.91901 0.68323 0.28078 0.0
H762 H 0.89218 0.69844 0.28327 0.0
H763 H 0.90534 0.68459 0.30621 0.0
C764 C 0.83926 0.72284 0.22215 0.0
N765 N 0.85875 0.71037 0.22069 0.0
N766 N 0.85937 0.69493 0.23608 0.0
C767 C 0.84002 0.69727 0.24794 0.0
C768 C 0.8269 0.71516 0.23953 0.0
C769 C 0.83241 0.74153 0.20691 0.0
H770 H 0.84365 0.75682 0.20945 0.0
H771 H 0.8141 0.74677 0.20907 0.0
H772 H 0.83475 0.73539 0.19036 0.0
O773 O 0.88851 0.68358 0.18742 0.0
O774 O 0.89087 0.65621 0.21218 0.0
H775 H 0.81723 0.68746 0.27373 0.0
H776 H 0.84767 0.6877 0.27996 0.0
C777 C 0.83475 0.68355 0.26751 0.0
H778 H 0.83601 0.66484 0.26387 0.0
H779 H 0.86809 0.62684 0.24935 0.0
O780 O 0.87693 0.73639 0.17954 0.0
C781 C 0.89124 0.66254 0.19273 0.0
Co782 Co 0.53225 0.63105 0.45243 0.0
Co783 Co 0.56917 0.63613 0.48915 0.0
C784 C 0.52893 0.66879 0.48443 0.0
O785 O 0.5206 0.65777 0.46867 0.0
O786 O 0.54762 0.66243 0.49337 0.0
C787 C 0.48792 0.62356 0.43277 0.0
O788 O 0.47986 0.62754 0.45196 0.0
C789 C 0.58249 0.6385 0.53407 0.0
C790 C 0.61947 0.62897 0.53342 0.0
C791 C 0.60159 0.63484 0.54708 0.0
N792 N 0.58874 0.6346 0.51377 0.0
N793 N 0.61089 0.629 0.51348 0.0
C794 C 0.55907 0.6473 0.54028 0.0
H795 H 0.55683 0.66497 0.53375 0.0
H796 H 0.54551 0.63618 0.5331 0.0
H797 H 0.55669 0.64829 0.55771 0.0
C798 C 0.52852 0.58434 0.47025 0.0
N799 N 0.5377 0.60568 0.47019 0.0
N800 N 0.55256 0.60762 0.48598 0.0
C801 C 0.55273 0.58753 0.49696 0.0
C802 C 0.5376 0.57227 0.48722 0.0
C803 C 0.51081 0.57585 0.45474 0.0
H804 H 0.5157 0.58108 0.43839 0.0
H805 H 0.49383 0.58363 0.45869 0.0
H806 H 0.50895 0.55678 0.4553 0.0
O807 O 0.56106 0.63951 0.43828 0.0
O808 O 0.58818 0.64319 0.46315 0.0
H809 H 0.58532 0.5873 0.51306 0.0
H810 H 0.56576 0.56458 0.52133 0.0
C811 C 0.56699 0.58295 0.51634 0.0
H812 H 0.56086 0.5941 0.52953 0.0
H813 H 0.62013 0.62506 0.49968 0.0
O814 O 0.50963 0.62391 0.42966 0.0
C815 C 0.58181 0.64378 0.44371 0.0
Co816 Co 0.38127 0.28635 0.19864 0.0
Co817 Co 0.38473 0.32155 0.23688 0.0
C818 C 0.41897 0.28304 0.23095 0.0
O819 O 0.40844 0.27519 0.2147 0.0
O820 O 0.41181 0.30092 0.24074 0.0
C821 C 0.37476 0.24248 0.17809 0.0
O822 O 0.37806 0.23418 0.19731 0.0
C823 C 0.38719 0.33447 0.28198 0.0
C824 C 0.37435 0.37045 0.28181 0.0
C825 C 0.38222 0.3531 0.29518 0.0
N826 N 0.38214 0.34047 0.26182 0.0
N827 N 0.37456 0.36203 0.26183 0.0
C828 C 0.39826 0.31194 0.28786 0.0
H829 H 0.38853 0.29745 0.28053 0.0
H830 H 0.39949 0.30942 0.30527 0.0
H831 H 0.41605 0.31157 0.28128 0.0
C832 C 0.33519 0.27875 0.2169 0.0
N833 N 0.35561 0.28982 0.21656 0.0
N834 N 0.35696 0.30379 0.23307 0.0
C835 C 0.33746 0.30147 0.24474 0.0
C836 C 0.32325 0.28535 0.23489 0.0
C837 C 0.32685 0.26233 0.20017 0.0
H838 H 0.33269 0.2681 0.18425 0.0
H839 H 0.3338 0.24484 0.20346 0.0
H840 H 0.30768 0.26122 0.2002 0.0
O841 O 0.38872 0.31597 0.1855 0.0
O842 O 0.39152 0.34174 0.21161 0.0
H843 H 0.33545 0.33202 0.26382 0.0
H844 H 0.31567 0.30939 0.2718 0.0
C845 C 0.33326 0.31308 0.26564 0.0
H846 H 0.34615 0.30687 0.27737 0.0
H847 H 0.36941 0.37095 0.24819 0.0
O848 O 0.37526 0.26422 0.1752 0.0
C849 C 0.39244 0.33648 0.19191 0.0
Co850 Co 0.45608 0.63109 0.94896 0.0
Co851 Co 0.42365 0.63492 0.9894 0.0
C852 C 0.46318 0.66736 0.9825 0.0
O853 O 0.46921 0.65719 0.96542 0.0
O854 O 0.4458 0.66059 0.99323 0.0
C855 C 0.49902 0.62332 0.92769 0.0
O856 O 0.50727 0.62489 0.94711 0.0
C857 C 0.41163 0.63709 0.03498 0.0
C858 C 0.3764 0.62232 0.03533 0.0
C859 C 0.39357 0.63098 0.04849 0.0
N860 N 0.40553 0.63184 0.01488 0.0
N861 N 0.38438 0.62316 0.01522 0.0
C862 C 0.43367 0.64927 0.04059 0.0
H863 H 0.43449 0.66585 0.03179 0.0
H864 H 0.44862 0.63859 0.03552 0.0
H865 H 0.43497 0.6533 0.05776 0.0
C866 C 0.46064 0.58336 0.96453 0.0
N867 N 0.45196 0.60486 0.96608 0.0
N868 N 0.43956 0.60654 0.98359 0.0
C869 C 0.44092 0.58628 0.9942 0.0
C870 C 0.45413 0.57101 0.98233 0.0
C871 C 0.47576 0.57503 0.94678 0.0
H872 H 0.46994 0.58251 0.93147 0.0
H873 H 0.49384 0.58045 0.9499 0.0
H874 H 0.47551 0.55592 0.9455 0.0
O875 O 0.42616 0.64027 0.93733 0.0
O876 O 0.40274 0.64397 0.96528 0.0
H877 H 0.41116 0.58349 0.01415 0.0
H878 H 0.43437 0.56412 0.0213 0.0
C879 C 0.4302 0.58174 0.01543 0.0
H880 H 0.43649 0.59472 0.02704 0.0
H881 H 0.37549 0.61758 0.00171 0.0
O882 O 0.47735 0.62517 0.92476 0.0
C883 C 0.40651 0.64495 0.9453 0.0
Co884 Co 0.11436 0.71134 0.69903 0.0
Co885 Co 0.11015 0.67626 0.73735 0.0
C886 C 0.07794 0.7169 0.73201 0.0
O887 O 0.08862 0.72442 0.71572 0.0
O888 O 0.08426 0.69845 0.74139 0.0
C889 C 0.12248 0.7546 0.67794 0.0
O890 O 0.11999 0.76318 0.69716 0.0
C891 C 0.11117 0.66428 0.78307 0.0
C892 C 0.11387 0.62621 0.78205 0.0
C893 C 0.1124 0.64474 0.79598 0.0
N894 N 0.11205 0.65753 0.76257 0.0
N895 N 0.11374 0.63475 0.76212 0.0
C896 C 0.10778 0.68883 0.79001 0.0
H897 H 0.10239 0.6999 0.77658 0.0
H898 H 0.12429 0.69584 0.7962 0.0
H899 H 0.09473 0.68971 0.80293 0.0
C900 C 0.16218 0.71427 0.7146 0.0
N901 N 0.14053 0.70593 0.71594 0.0
N902 N 0.13902 0.69173 0.73228 0.0
C903 C 0.1598 0.69106 0.7421 0.0
C904 C 0.17501 0.70527 0.73116 0.0
C905 C 0.17026 0.73122 0.69819 0.0
H906 H 0.16335 0.74857 0.70212 0.0
H907 H 0.18936 0.73246 0.69762 0.0
H908 H 0.16383 0.72604 0.68229 0.0
O909 O 0.10438 0.68213 0.68632 0.0
O910 O 0.10137 0.65636 0.71247 0.0
H911 H 0.18428 0.67563 0.76382 0.0
H912 H 0.15734 0.68478 0.77545 0.0
C913 C 0.16532 0.67676 0.76125 0.0
H914 H 0.15813 0.65912 0.75931 0.0
H915 H 0.11453 0.62499 0.74817 0.0
O916 O 0.12097 0.73287 0.67524 0.0
C917 C 0.09985 0.66179 0.69283 0.0
Co918 Co 0.03721 0.36672 0.4452 0.0
Co919 Co 0.06822 0.35965 0.48607 0.0
C920 C 0.02913 0.32794 0.47662 0.0
O921 O 0.02461 0.33924 0.45975 0.0
O922 O 0.04556 0.33399 0.48892 0.0
C923 C 0.99386 0.37524 0.42563 0.0
O924 O 0.98654 0.37212 0.44521 0.0
C925 C 0.08167 0.35466 0.53122 0.0
C926 C 0.11567 0.37207 0.53178 0.0
C927 C 0.09954 0.3613 0.54472 0.0
N928 N 0.08683 0.36163 0.51135 0.0
N929 N 0.10728 0.37184 0.51179 0.0
C930 C 0.06076 0.34056 0.53659 0.0
H931 H 0.06036 0.32512 0.5262 0.0
H932 H 0.04492 0.35082 0.53338 0.0
H933 H 0.06082 0.33452 0.55331 0.0
C934 C 0.03058 0.41241 0.46444 0.0
N935 N 0.04058 0.39145 0.46415 0.0
N936 N 0.05244 0.38845 0.48182 0.0
C937 C 0.0496 0.40733 0.49423 0.0
C938 C 0.03558 0.42296 0.48356 0.0
C939 C 0.01632 0.4224 0.44682 0.0
H940 H 0.02269 0.41623 0.4312 0.0
H941 H -0.00197 0.41713 0.44892 0.0
H942 H 0.017 0.44158 0.44715 0.0
O943 O 0.06704 0.35849 0.43307 0.0
O944 O 0.08904 0.35158 0.4614 0.0
H945 H 0.07745 0.40944 0.51644 0.0
H946 H 0.0521 0.42559 0.52421 0.0
C947 C 0.05828 0.40945 0.51655 0.0
H948 H 0.05235 0.39437 0.52597 0.0
H949 H 0.11532 0.37904 0.49848 0.0
O950 O 0.01541 0.37406 0.42179 0.0
C951 C 0.08614 0.35222 0.44126 0.0
Co952 Co 0.38296 0.71239 0.30256 0.0
Co953 Co 0.38578 0.67515 0.26601 0.0
C954 C 0.4206 0.71357 0.27024 0.0
O955 O 0.41019 0.72241 0.28611 0.0
O956 O 0.41327 0.69518 0.26135 0.0
C957 C 0.37756 0.75714 0.32212 0.0
O958 O 0.38199 0.76505 0.30295 0.0
C959 C 0.38821 0.66074 0.22144 0.0
C960 C 0.37397 0.62532 0.22224 0.0
C961 C 0.38273 0.64199 0.20858 0.0
N962 N 0.38303 0.65535 0.2417 0.0
N963 N 0.37467 0.63408 0.24209 0.0
C964 C 0.3962 0.68418 0.21451 0.0
H965 H 0.38978 0.69761 0.22565 0.0
H966 H 0.39007 0.68817 0.19819 0.0
H967 H 0.41538 0.68462 0.21464 0.0
C968 C 0.3372 0.72009 0.28379 0.0
N969 N 0.35736 0.70861 0.28469 0.0
N970 N 0.35832 0.69351 0.26901 0.0
C971 C 0.3387 0.6953 0.25743 0.0
C972 C 0.32495 0.71235 0.26639 0.0
C973 C 0.32949 0.73809 0.29934 0.0
H974 H 0.33456 0.73305 0.31568 0.0
H975 H 0.33768 0.75484 0.29526 0.0
H976 H 0.31044 0.74041 0.29882 0.0
O977 O 0.38971 0.68323 0.31687 0.0
O978 O 0.39193 0.65595 0.29205 0.0
H979 H 0.31586 0.68513 0.23183 0.0
H980 H 0.34605 0.6874 0.22496 0.0
C981 C 0.33375 0.68203 0.23754 0.0
H982 H 0.33616 0.6633 0.24054 0.0
H983 H 0.36903 0.62572 0.25586 0.0
O984 O 0.37707 0.73544 0.32525 0.0
C985 C 0.39287 0.66229 0.31148 0.0
Co986 Co 0.03074 0.63386 0.05129 0.0
Co987 Co 0.06732 0.63679 0.01411 0.0
C988 C 0.02919 0.6718 0.01931 0.0
O989 O 0.02054 0.66126 0.0352 0.0
O990 O 0.04732 0.66441 0.01005 0.0
C991 C 0.98621 0.62812 0.07098 0.0
O992 O 0.97831 0.63216 0.05174 0.0
C993 C 0.08116 0.63894 0.96922 0.0
C994 C 0.11684 0.62533 0.96994 0.0
C995 C 0.09986 0.63343 0.95627 0.0
N996 N 0.08673 0.63393 0.98948 0.0
N997 N 0.10813 0.62591 0.98981 0.0
C998 C 0.05891 0.65034 0.96298 0.0
H999 H 0.05812 0.6677 0.97044 0.0
H1000 H 0.04413 0.64012 0.96917 0.0
H1001 H 0.05724 0.65269 0.94558 0.0
C1002 C 0.02316 0.58788 0.03293 0.0
N1003 N 0.03418 0.60833 0.0333 0.0
N1004 N 0.04899 0.60931 0.0174 0.0
C1005 C 0.04746 0.58943 0.00618 0.0
C1006 C 0.03089 0.57544 0.01563 0.0
C1007 C 0.00617 0.57981 0.0493 0.0
H1008 H 0.01169 0.5855 0.06534 0.0
H1009 H 0.98893 0.5872 0.04569 0.0
H1010 H 0.00464 0.56068 0.04928 0.0
O1011 O 0.0602 0.6405 0.06519 0.0
O1012 O 0.08697 0.64275 0.03988 0.0
H1013 H 0.0795 0.5864 0.98944 0.0
H1014 H 0.05733 0.56659 0.98045 0.0
C1015 C 0.06074 0.58436 0.98632 0.0
H1016 H 0.05573 0.5969 0.97381 0.0
H1017 H 0.11672 0.62065 0.00359 0.0
O1018 O 0.00791 0.62796 0.07415 0.0
C1019 C 0.08104 0.64363 0.05941 0.0
Co1020 Co 0.11536 0.29018 0.80446 0.0
Co1021 Co 0.11033 0.32178 0.7638 0.0
C1022 C 0.07628 0.28463 0.77295 0.0
O1023 O 0.08704 0.27952 0.78997 0.0
O1024 O 0.08358 0.30047 0.7606 0.0
C1025 C 0.1176 0.2468 0.82523 0.0
O1026 O 0.10887 0.23995 0.80699 0.0
C1027 C 0.10805 0.33312 0.71841 0.0
C1028 C 0.12048 0.36922 0.71762 0.0
C1029 C 0.11276 0.35138 0.70471 0.0
N1030 N 0.11266 0.33991 0.73842 0.0
N1031 N 0.11997 0.36156 0.73785 0.0
C1032 C 0.10119 0.30897 0.71262 0.0
H1033 H 0.10768 0.29657 0.72469 0.0
H1034 H 0.10805 0.3042 0.69673 0.0
H1035 H 0.08205 0.3078 0.71221 0.0
C1036 C 0.16116 0.28226 0.78636 0.0
N1037 N 0.14021 0.29221 0.78562 0.0
N1038 N 0.13851 0.30504 0.76839 0.0
C1039 C 0.15849 0.30324 0.75737 0.0
C1040 C 0.17341 0.28887 0.76852 0.0
C1041 C 0.16879 0.26584 0.8034 0.0
H1042 H 0.16558 0.27361 0.81925 0.0
H1043 H 0.15854 0.2497 0.80214 0.0
H1044 H 0.18733 0.26127 0.80203 0.0
O1045 O 0.10916 0.32054 0.81667 0.0
O1046 O 0.10281 0.34282 0.78835 0.0
H1047 H 0.16004 0.33406 0.73862 0.0
H1048 H 0.18159 0.31269 0.73172 0.0
C1049 C 0.16341 0.3153 0.73682 0.0
H1050 H 0.15169 0.30851 0.72434 0.0
H1051 H 0.12495 0.37098 0.75126 0.0
O1052 O 0.12213 0.26811 0.82787 0.0
C1053 C 0.10372 0.33988 0.80846 0.0
Co1054 Co 0.45691 0.36362 0.55396 0.0
Co1055 Co 0.42368 0.36104 0.51409 0.0
C1056 C 0.46191 0.32692 0.52061 0.0
O1057 O 0.4686 0.33686 0.53759 0.0
O1058 O 0.44466 0.33435 0.51006 0.0
C1059 C 0.50034 0.36942 0.57494 0.0
O1060 O 0.50846 0.36661 0.5556 0.0
C1061 C 0.41162 0.35947 0.46865 0.0
C1062 C 0.37604 0.37337 0.46845 0.0
C1063 C 0.39335 0.36509 0.45524 0.0
N1064 N 0.40547 0.36452 0.48877 0.0
N1065 N 0.38415 0.37276 0.48853 0.0
C1066 C 0.43388 0.34775 0.46297 0.0
H1067 H 0.43389 0.33013 0.46992 0.0
H1068 H 0.44859 0.35736 0.47006 0.0
H1069 H 0.43633 0.34604 0.44559 0.0
C1070 C 0.46506 0.41021 0.5371 0.0
N1071 N 0.45415 0.38971 0.53649 0.0
N1072 N 0.44104 0.38872 0.51937 0.0
C1073 C 0.44379 0.40855 0.50827 0.0
C1074 C 0.45925 0.42259 0.51914 0.0
C1075 C 0.4806 0.4182 0.55467 0.0
H1076 H 0.47425 0.41171 0.57019 0.0
H1077 H 0.49834 0.41167 0.55182 0.0
H1078 H 0.48137 0.43738 0.55524 0.0
O1079 O 0.42675 0.35599 0.56602 0.0
O1080 O 0.40272 0.35302 0.53847 0.0
H1081 H 0.41419 0.41168 0.48811 0.0
H1082 H 0.43779 0.43073 0.48106 0.0
C1083 C 0.43326 0.41322 0.48698 0.0
H1084 H 0.4395 0.40016 0.47543 0.0
H1085 H 0.37516 0.37803 0.50208 0.0
O1086 O 0.47861 0.36893 0.57793 0.0
C1087 C 0.40678 0.35207 0.55839 0.0
H1088 H 0.08604 0.16749 0.07136 0.0
H1089 H 0.12311 0.10281 0.07451 0.0
H1090 H 0.0877 0.1707 0.11009 0.0
H1091 H 0.12512 0.10617 0.11323 0.0
H1092 H 0.10068 0.10823 0.18306 0.0
H1093 H 0.09824 0.10497 0.14434 0.0
H1094 H 0.11789 0.17671 0.13821 0.0
H1095 H 0.12088 0.17977 0.17685 0.0
C1096 C 0.0943 0.15383 0.08035 0.0
C1097 C 0.10406 0.13467 0.06997 0.0
C1098 C 0.0955 0.15581 0.1025 0.0
C1099 C 0.10642 0.13862 0.11471 0.0
C1100 C 0.11631 0.11953 0.10428 0.0
C1101 C 0.1153 0.11769 0.08212 0.0
C1102 C 0.10438 0.12331 0.17341 0.0
C1103 C 0.11023 0.14445 0.18301 0.0
C1104 C 0.10307 0.12143 0.15127 0.0
C1105 C 0.10766 0.14065 0.13824 0.0
C1106 C 0.11375 0.16174 0.14785 0.0
C1107 C 0.11525 0.16355 0.16998 0.0
H1108 H 0.06707 0.87236 0.42564 0.0
H1109 H 0.13686 0.84705 0.43236 0.0
H1110 H 0.0704 0.86978 0.38709 0.0
H1111 H 0.14082 0.84578 0.39374 0.0
H1112 H 0.13247 0.8227 0.32512 0.0
H1113 H 0.12854 0.82465 0.36348 0.0
H1114 H 0.08843 0.88733 0.35723 0.0
H1115 H 0.0911 0.88441 0.31862 0.0
C1116 C 0.08302 0.8659 0.41887 0.0
C1117 C 0.10141 0.85907 0.43203 0.0
C1118 C 0.08512 0.86488 0.39672 0.0
C1119 C 0.10584 0.85739 0.38719 0.0
C1120 C 0.12443 0.85113 0.40045 0.0
C1121 C 0.12225 0.85202 0.42259 0.0
C1122 C 0.12222 0.8365 0.3318 0.0
C1123 C 0.11139 0.85292 0.31867 0.0
C1124 C 0.1204 0.83794 0.35394 0.0
C1125 C 0.10801 0.85606 0.36357 0.0
C1126 C 0.0977 0.87284 0.35042 0.0
C1127 C 0.09941 0.8713 0.32827 0.0
H1128 H 0.36921 0.82043 0.67713 0.0
H1129 H 0.3997 0.88818 0.68323 0.0
H1130 H 0.37188 0.82322 0.63849 0.0
H1131 H 0.40141 0.89158 0.64452 0.0
H1132 H 0.42403 0.87969 0.57571 0.0
H1133 H 0.42186 0.87648 0.61435 0.0
H1134 H 0.3552 0.8432 0.60871 0.0
H1135 H 0.35805 0.84549 0.56997 0.0
C1136 C 0.37681 0.83578 0.67018 0.0
C1137 C 0.38502 0.85375 0.68316 0.0
C1138 C 0.37795 0.83759 0.64802 0.0
C1139 C 0.38702 0.85757 0.63833 0.0
C1140 C 0.39475 0.87576 0.6514 0.0
C1141 C 0.39365 0.8739 0.67357 0.0
C1142 C 0.4092 0.87119 0.58275 0.0
C1143 C 0.39158 0.86209 0.56986 0.0
C1144 C 0.40773 0.86973 0.60491 0.0
C1145 C 0.38843 0.8594 0.61471 0.0
C1146 C 0.37054 0.85082 0.60173 0.0
C1147 C 0.37206 0.85227 0.57956 0.0
H1148 H 0.35221 0.12401 0.82365 0.0
H1149 H 0.41853 0.1581 0.82077 0.0
H1150 H 0.35534 0.12182 0.86243 0.0
H1151 H 0.42159 0.15614 0.8595 0.0
H1152 H 0.42875 0.12309 0.92648 0.0
H1153 H 0.42586 0.12546 0.88779 0.0
H1154 H 0.35542 0.14937 0.89347 0.0
H1155 H 0.35857 0.14768 0.93225 0.0
C1156 C 0.36742 0.13107 0.83133 0.0
C1157 C 0.38494 0.14158 0.81924 0.0
C1158 C 0.36915 0.12995 0.85351 0.0
C1159 C 0.38864 0.13894 0.86402 0.0
C1160 C 0.40638 0.14903 0.85186 0.0
C1161 C 0.40451 0.1504 0.82971 0.0
C1162 C 0.41289 0.12952 0.91951 0.0
C1163 C 0.39416 0.13604 0.93243 0.0
C1164 C 0.41116 0.13064 0.89733 0.0
C1165 C 0.39048 0.13779 0.88759 0.0
C1166 C 0.37156 0.14373 0.90051 0.0
C1167 C 0.37338 0.14284 0.92269 0.0
H1168 H 0.90751 0.83041 0.92963 0.0
H1169 H 0.87334 0.89666 0.9278 0.0
H1170 H 0.90504 0.82775 0.89101 0.0
H1171 H 0.8715 0.89457 0.8891 0.0
H1172 H 0.85143 0.87394 0.82176 0.0
H1173 H 0.85331 0.87615 0.86045 0.0
H1174 H 0.92018 0.84269 0.85914 0.0
H1175 H 0.91774 0.83986 0.82054 0.0
C1176 C 0.89983 0.8446 0.92089 0.0
C1177 C 0.89092 0.8639 0.93165 0.0
C1178 C 0.89841 0.84312 0.89872 0.0
C1179 C 0.88819 0.86101 0.88677 0.0
C1180 C 0.87918 0.88027 0.89768 0.0
C1181 C 0.88034 0.88158 0.91987 0.0
C1182 C 0.86648 0.86705 0.82982 0.0
C1183 C 0.88425 0.85639 0.81821 0.0
C1184 C 0.86766 0.86842 0.852 0.0
C1185 C 0.88688 0.85953 0.86308 0.0
C1186 C 0.90485 0.84923 0.8513 0.0
C1187 C 0.9035 0.84761 0.82914 0.0
H1188 H 0.86678 0.17562 0.67865 0.0
H1189 H 0.90678 0.11306 0.68501 0.0
H1190 H 0.86965 0.17293 0.63999 0.0
H1191 H 0.9088 0.10965 0.64633 0.0
H1192 H 0.92859 0.12341 0.57725 0.0
H1193 H 0.92662 0.1274 0.61584 0.0
H1194 H 0.85565 0.15012 0.61065 0.0
H1195 H 0.85811 0.14712 0.57195 0.0
C1196 C 0.8765 0.16149 0.67174 0.0
C1197 C 0.88724 0.14498 0.68479 0.0
C1198 C 0.87779 0.15969 0.64959 0.0
C1199 C 0.88961 0.14116 0.64 0.0
C1200 C 0.89997 0.1244 0.65314 0.0
C1201 C 0.89869 0.12624 0.67529 0.0
C1202 C 0.91279 0.12983 0.58435 0.0
C1203 C 0.89375 0.1357 0.57159 0.0
C1204 C 0.9115 0.13171 0.60649 0.0
C1205 C 0.89101 0.13923 0.6164 0.0
C1206 C 0.87184 0.14471 0.60357 0.0
C1207 C 0.87317 0.14285 0.58142 0.0
H1208 H 0.59405 0.11037 0.3194 0.0
H1209 H 0.62936 0.17573 0.32621 0.0
H1210 H 0.59218 0.10669 0.35797 0.0
H1211 H 0.62614 0.17288 0.36459 0.0
H1212 H 0.63723 0.15072 0.4332 0.0
H1213 H 0.64074 0.15269 0.39454 0.0
H1214 H 0.57294 0.12192 0.38818 0.0
H1215 H 0.57022 0.11872 0.42675 0.0
C1216 C 0.60117 0.12411 0.32911 0.0
C1217 C 0.61122 0.14369 0.31961 0.0
C1218 C 0.59991 0.12211 0.35126 0.0
C1219 C 0.60875 0.13962 0.36451 0.0
C1220 C 0.61919 0.159 0.35496 0.0
C1221 C 0.62057 0.16091 0.33282 0.0
C1222 C 0.62312 0.14439 0.42348 0.0
C1223 C 0.60312 0.13531 0.43298 0.0
C1224 C 0.62502 0.14568 0.40132 0.0
C1225 C 0.60699 0.13777 0.38813 0.0
C1226 C 0.58721 0.12815 0.39774 0.0
C1227 C 0.58541 0.12675 0.41989 0.0
H1228 H 0.63902 0.85431 0.07 0.0
H1229 H 0.56645 0.87037 0.07606 0.0
H1230 H 0.64225 0.85179 0.10877 0.0
H1231 H 0.56949 0.86723 0.11468 0.0
H1232 H 0.57959 0.83372 0.18066 0.0
H1233 H 0.57693 0.8364 0.14197 0.0
H1234 H 0.63911 0.87774 0.14076 0.0
H1235 H 0.64192 0.87478 0.17952 0.0
C1236 C 0.62373 0.85711 0.07962 0.0
C1237 C 0.60231 0.86169 0.06997 0.0
C1238 C 0.62559 0.85575 0.10179 0.0
C1239 C 0.60606 0.85901 0.11476 0.0
C1240 C 0.58473 0.86407 0.10509 0.0
C1241 C 0.58294 0.86565 0.08296 0.0
C1242 C 0.59288 0.84308 0.17211 0.0
C1243 C 0.61121 0.85367 0.18306 0.0
C1244 C 0.59119 0.84487 0.14998 0.0
C1245 C 0.60787 0.8572 0.1383 0.0
C1246 C 0.62616 0.86788 0.14929 0.0
C1247 C 0.62769 0.86631 0.17146 0.0
H1248 H 0.63602 0.65435 0.57042 0.0
H1249 H 0.57177 0.61708 0.57666 0.0
H1250 H 0.63931 0.65642 0.60912 0.0
H1251 H 0.57424 0.62019 0.61527 0.0
H1252 H 0.59689 0.60944 0.68395 0.0
H1253 H 0.59503 0.60611 0.64527 0.0
H1254 H 0.62286 0.6752 0.63925 0.0
H1255 H 0.62588 0.67785 0.67785 0.0
C1256 C 0.62245 0.64687 0.58011 0.0
C1257 C 0.60326 0.63625 0.57055 0.0
C1258 C 0.62422 0.64819 0.60228 0.0
C1259 C 0.60689 0.63874 0.61541 0.0
C1260 C 0.58795 0.62763 0.60574 0.0
C1261 C 0.58627 0.62624 0.58358 0.0
C1262 C 0.60256 0.62389 0.6743 0.0
C1263 C 0.6108 0.6442 0.68392 0.0
C1264 C 0.60135 0.62208 0.65214 0.0
C1265 C 0.60852 0.64049 0.63905 0.0
C1266 C 0.61722 0.66063 0.64876 0.0
C1267 C 0.61853 0.66237 0.67092 0.0
H1268 H 0.56679 0.36994 0.92737 0.0
H1269 H 0.63883 0.35155 0.93316 0.0
H1270 H 0.56954 0.36669 0.88875 0.0
H1271 H 0.64177 0.3488 0.89441 0.0
H1272 H 0.64258 0.3722 0.82405 0.0
H1273 H 0.63977 0.37477 0.86279 0.0
H1274 H 0.57566 0.33651 0.86095 0.0
H1275 H 0.5783 0.33432 0.82223 0.0
C1276 C 0.58308 0.36466 0.92041 0.0
C1277 C 0.60239 0.36017 0.93332 0.0
C1278 C 0.58471 0.363 0.89827 0.0
C1279 C 0.60582 0.35728 0.88852 0.0
C1280 C 0.62528 0.35331 0.90143 0.0
C1281 C 0.62358 0.35479 0.9236 0.0
C1282 C 0.62791 0.36433 0.83196 0.0
C1283 C 0.61088 0.3527 0.82016 0.0
C1284 C 0.62638 0.36567 0.85413 0.0
C1285 C 0.60757 0.35571 0.86496 0.0
C1286 C 0.59034 0.34439 0.85308 0.0
C1287 C 0.592 0.34287 0.83093 0.0
H1288 H 0.9023 0.38531 0.18389 0.0
H1289 H 0.87189 0.31746 0.17843 0.0
H1290 H 0.90479 0.38793 0.14516 0.0
H1291 H 0.87537 0.31945 0.13982 0.0
H1292 H 0.86234 0.34059 0.07091 0.0
H1293 H 0.85912 0.33885 0.10961 0.0
H1294 H 0.92566 0.37233 0.11543 0.0
H1295 H 0.9282 0.37504 0.07677 0.0
C1296 C 0.89644 0.37084 0.17437 0.0
C1297 C 0.88759 0.3509 0.18416 0.0
C1298 C 0.898 0.37224 0.1522 0.0
C1299 C 0.89052 0.3538 0.13932 0.0
C1300 C 0.88126 0.33401 0.14919 0.0
C1301 C 0.87966 0.33266 0.17135 0.0
C1302 C 0.87626 0.34752 0.08052 0.0
C1303 C 0.89584 0.35729 0.07086 0.0
C1304 C 0.87452 0.34638 0.10268 0.0
C1305 C 0.89226 0.3552 0.1157 0.0
C1306 C 0.91165 0.3654 0.10595 0.0
C1307 C 0.91333 0.36657 0.08378 0.0
H1308 H 0.896 0.60579 0.31963 0.0
H1309 H 0.87227 0.67619 0.32587 0.0
H1310 H 0.89871 0.60268 0.35841 0.0
H1311 H 0.87566 0.67337 0.3645 0.0
H1312 H 0.90974 0.66639 0.43064 0.0
H1313 H 0.9074 0.66886 0.39188 0.0
H1314 H 0.87188 0.6032 0.39016 0.0
H1315 H 0.87442 0.60066 0.42893 0.0
C1316 C 0.89156 0.62064 0.3293 0.0
C1317 C 0.88476 0.6415 0.31972 0.0
C1318 C 0.89305 0.61885 0.35146 0.0
C1319 C 0.88772 0.6379 0.36447 0.0
C1320 C 0.88044 0.65859 0.35487 0.0
C1321 C 0.87871 0.66028 0.33274 0.0
C1322 C 0.90175 0.65234 0.42196 0.0
C1323 C 0.8926 0.63315 0.43276 0.0
C1324 C 0.90016 0.65388 0.3998 0.0
C1325 C 0.88953 0.63618 0.38798 0.0
C1326 C 0.8804 0.61698 0.39881 0.0
C1327 C 0.88173 0.61559 0.42099 0.0
H1328 H 0.42531 0.37884 0.42577 0.0
H1329 H 0.35747 0.34855 0.43187 0.0
H1330 H 0.42281 0.37548 0.38713 0.0
H1331 H 0.35442 0.34603 0.39316 0.0
H1332 H 0.36708 0.32203 0.32483 0.0
H1333 H 0.37027 0.32478 0.36346 0.0
H1334 H 0.40253 0.39184 0.35703 0.0
H1335 H 0.40014 0.38851 0.31832 0.0
C1336 C 0.40999 0.37116 0.41882 0.0
C1337 C 0.39189 0.36324 0.4318 0.0
C1338 C 0.40837 0.3696 0.39666 0.0
C1339 C 0.38847 0.36032 0.38699 0.0
C1340 C 0.37018 0.35284 0.40006 0.0
C1341 C 0.37183 0.35442 0.42221 0.0
C1342 C 0.37534 0.33709 0.3317 0.0
C1343 C 0.38406 0.35472 0.31861 0.0
C1344 C 0.37681 0.33887 0.35384 0.0
C1345 C 0.38681 0.35848 0.3634 0.0
C1346 C 0.39513 0.37631 0.35023 0.0
C1347 C 0.39364 0.3745 0.32807 0.0
H1348 H 0.42709 0.62014 0.07768 0.0
H1349 H 0.35647 0.64352 0.07242 0.0
H1350 H 0.42468 0.62293 0.11638 0.0
H1351 H 0.3538 0.64571 0.11121 0.0
H1352 H 0.3519 0.62213 0.18149 0.0
H1353 H 0.35448 0.61905 0.14274 0.0
H1354 H 0.42051 0.6539 0.14418 0.0
H1355 H 0.41803 0.6567 0.18289 0.0
C1356 C 0.41122 0.62637 0.08478 0.0
C1357 C 0.39224 0.63246 0.072 0.0
C1358 C 0.40976 0.62775 0.10695 0.0
C1359 C 0.38912 0.63475 0.11684 0.0
C1360 C 0.36993 0.64019 0.10406 0.0
C1361 C 0.37147 0.63902 0.08188 0.0
C1362 C 0.36695 0.62911 0.17349 0.0
C1363 C 0.38456 0.64002 0.18515 0.0
C1364 C 0.36836 0.62748 0.15132 0.0
C1365 C 0.38763 0.63637 0.1404 0.0
C1366 C 0.40547 0.64686 0.15214 0.0
C1367 C 0.40393 0.6487 0.17428 0.0
H1368 H 0.06828 0.61988 0.92636 0.0
H1369 H 0.13661 0.64881 0.93331 0.0
H1370 H 0.07143 0.62306 0.88781 0.0
H1371 H 0.14045 0.65083 0.89466 0.0
H1372 H 0.13027 0.67443 0.82619 0.0
H1373 H 0.1267 0.67176 0.86458 0.0
H1374 H 0.09053 0.60677 0.85785 0.0
H1375 H 0.09286 0.61026 0.81928 0.0
C1376 C 0.08386 0.62724 0.91961 0.0
C1377 C 0.10186 0.63492 0.93283 0.0
C1378 C 0.08588 0.62863 0.89748 0.0
C1379 C 0.10614 0.63738 0.88802 0.0
C1380 C 0.1244 0.64448 0.90133 0.0
C1381 C 0.1223 0.64317 0.92347 0.0
C1382 C 0.12096 0.65993 0.83278 0.0
C1383 C 0.11114 0.64298 0.81954 0.0
C1384 C 0.11935 0.65811 0.85492 0.0
C1385 C 0.10816 0.63913 0.86442 0.0
C1386 C 0.09885 0.62189 0.85115 0.0
C1387 C 0.10036 0.62378 0.82901 0.0
H1388 H 0.14203 0.37248 0.67699 0.0
H1389 H 0.07878 0.33292 0.67947 0.0
H1390 H 0.13892 0.37458 0.63825 0.0
H1391 H 0.07587 0.33463 0.64076 0.0
H1392 H 0.06548 0.36791 0.5744 0.0
H1393 H 0.06869 0.36465 0.61299 0.0
H1394 H 0.14128 0.34853 0.60672 0.0
H1395 H 0.1379 0.35129 0.56801 0.0
C1396 C 0.12755 0.36411 0.66923 0.0
C1397 C 0.11088 0.35218 0.68122 0.0
C1398 C 0.12584 0.36518 0.64706 0.0
C1399 C 0.10722 0.35465 0.63643 0.0
C1400 C 0.0904 0.34295 0.64848 0.0
C1401 C 0.09223 0.34171 0.67064 0.0
C1402 C 0.08196 0.363 0.58122 0.0
C1403 C 0.10126 0.35904 0.56815 0.0
C1404 C 0.08385 0.36133 0.60334 0.0
C1405 C 0.10519 0.35612 0.6129 0.0
C1406 C 0.12461 0.35264 0.59983 0.0
C1407 C 0.12267 0.35414 0.57769 0.0
H1408 H 0.95167 0.28974 0.24277 0.0
H1409 H 0.94476 0.25328 0.30253 0.0
H1410 H 0.99158 0.27566 0.23965 0.0
H1411 H 0.98436 0.23981 0.29944 0.0
H1412 H 0.0618 0.24836 0.30202 0.0
H1413 H 0.02342 0.26525 0.29944 0.0
H1414 H 0.01337 0.23253 0.23851 0.0
H1415 H 0.05191 0.21518 0.24103 0.0
C1416 C 0.95851 0.27861 0.25509 0.0
C1417 C 0.94503 0.27278 0.27296 0.0
C1418 C 0.98129 0.2706 0.25328 0.0
C1419 C 0.99098 0.25701 0.26947 0.0
C1420 C 0.97732 0.25058 0.28691 0.0
C1421 C 0.95458 0.25823 0.28858 0.0
C1422 C 0.05169 0.24501 0.28785 0.0
C1423 C 0.05983 0.23005 0.27189 0.0
C1424 C 0.02969 0.25467 0.28644 0.0
C1425 C 0.01546 0.24986 0.26893 0.0
C1426 C 0.02411 0.23641 0.25217 0.0
C1427 C 0.04612 0.22647 0.25367 0.0
H1428 H 0.99255 0.68873 0.55063 0.0
H1429 H 0.95916 0.695 0.48931 0.0
H1430 H 0.00768 0.72775 0.54701 0.0
H1431 H 0.97491 0.73426 0.4857 0.0
H1432 H 0.03534 0.7954 0.48998 0.0
H1433 H 0.01984 0.75599 0.48724 0.0
H1434 H 0.98021 0.76688 0.54445 0.0
H1435 H 0.99507 0.80608 0.54713 0.0
C1436 C 0.98875 0.69822 0.53619 0.0
C1437 C 0.97438 0.68879 0.52037 0.0
C1438 C 0.99739 0.72059 0.5342 0.0
C1439 C 0.99218 0.73394 0.51622 0.0
C1440 C 0.97907 0.72419 0.49972 0.0
C1441 C 0.97009 0.70179 0.50183 0.0
C1442 C 0.02296 0.78956 0.50172 0.0
C1443 C 0.01665 0.80387 0.5189 0.0
C1444 C 0.01413 0.76705 0.50011 0.0
C1445 C -0.00086 0.75849 0.51579 0.0
C1446 C 0.99196 0.7731 0.5323 0.0
C1447 C 0.00047 0.79558 0.53376 0.0
H1448 H 0.4512 0.79376 0.74104 0.0
H1449 H 0.44205 0.7492 0.79571 0.0
H1450 H 0.49086 0.77923 0.73693 0.0
H1451 H 0.48149 0.73528 0.79162 0.0
H1452 H 0.56122 0.7547 0.79443 0.0
H1453 H 0.52258 0.7709 0.79039 0.0
H1454 H 0.50965 0.72562 0.73728 0.0
H1455 H 0.54832 0.70887 0.74133 0.0
C1456 C 0.45744 0.7807 0.75195 0.0
C1457 C 0.44346 0.77277 0.76879 0.0
C1458 C 0.48007 0.77244 0.74956 0.0
C1459 C 0.48896 0.75632 0.76405 0.0
C1460 C 0.47483 0.74777 0.78032 0.0
C1461 C 0.45227 0.75579 0.78261 0.0
C1462 C 0.55043 0.74842 0.78159 0.0
C1463 C 0.55783 0.73025 0.76835 0.0
C1464 C 0.52836 0.75778 0.77928 0.0
C1465 C 0.51341 0.74941 0.76356 0.0
C1466 C 0.52112 0.73237 0.7494 0.0
C1467 C 0.54321 0.72281 0.75179 0.0
H1468 H 0.50113 0.18655 0.04726 0.0
H1469 H 0.45913 0.19899 0.99146 0.0
H1470 H 0.51659 0.22554 0.04471 0.0
H1471 H 0.47521 0.23813 0.98884 0.0
H1472 H 0.53497 0.29917 0.98998 0.0
H1473 H 0.5199 0.25968 0.9864 0.0
H1474 H 0.48953 0.26463 0.04887 0.0
H1475 H 0.50405 0.30388 0.05247 0.0
C1476 C 0.49549 0.19738 0.0342 0.0
C1477 C 0.47862 0.18969 0.01972 0.0
C1478 C 0.50436 0.21972 0.0328 0.0
C1479 C 0.49683 0.23474 0.01674 0.0
C1480 C 0.4812 0.22673 1.00136 0.0
C1481 C 0.47204 0.20437 0.0029 0.0
C1482 C 0.52483 0.29195 0.00282 0.0
C1483 C 0.52092 0.30463 0.02159 0.0
C1484 C 0.5162 0.26942 1.00072 0.0
C1485 C 0.50388 0.25922 0.01748 0.0
C1486 C 0.49922 0.27215 0.03584 0.0
C1487 C 0.50748 0.29466 0.03781 0.0
H1488 H 0.95763 0.69088 0.25336 0.0
H1489 H 0.93745 0.75683 0.22689 0.0
H1490 H 0.99672 0.70585 0.25944 0.0
H1491 H 0.97624 0.77175 0.23325 0.0
H1492 H 0.04458 0.79685 0.25689 0.0
H1493 H 0.0062 0.78042 0.26287 0.0
H1494 H 0.02695 0.71785 0.23071 0.0
H1495 H 0.06524 0.73423 0.2245 0.0
C1496 C 0.96139 0.70869 0.24929 0.0
C1497 C 0.94461 0.72263 0.23943 0.0
C1498 C 0.98372 0.71719 0.25273 0.0
C1499 C 0.98941 0.7399 0.24681 0.0
C1500 C 0.97223 0.75424 0.23817 0.0
C1501 C 0.95009 0.74564 0.23437 0.0
C1502 C 0.04114 0.77938 0.25153 0.0
C1503 C 0.0578 0.76695 0.23993 0.0
C1504 C 0.01917 0.77004 0.25492 0.0
C1505 C 0.01365 0.74798 0.24712 0.0
C1506 C 0.03084 0.73485 0.237 0.0
C1507 C 0.05269 0.7443 0.23332 0.0
H1508 H 0.48478 0.68297 0.47639 0.0
H1509 H 0.54831 0.70428 0.50688 0.0
H1510 H 0.46878 0.72155 0.48191 0.0
H1511 H 0.53229 0.74298 0.51211 0.0
H1512 H 0.50699 0.81122 0.47586 0.0
H1513 H 0.52241 0.77257 0.48218 0.0
H1514 H 0.45775 0.75209 0.51084 0.0
H1515 H 0.44231 0.79095 0.50482 0.0
C1516 C 0.49515 0.69575 0.48462 0.0
C1517 C 0.51789 0.69068 0.49098 0.0
C1518 C 0.48593 0.71777 0.4879 0.0
C1519 C 0.49939 0.7352 0.49732 0.0
C1520 C 0.52165 0.72982 0.50472 0.0
C1521 C 0.53075 0.70767 0.50177 0.0
C1522 C 0.49621 0.79862 0.48388 0.0
C1523 C 0.47338 0.80402 0.48966 0.0
C1524 C 0.50509 0.77657 0.48763 0.0
C1525 C 0.49121 0.7594 0.49693 0.0
C1526 C 0.46874 0.76506 0.50359 0.0
C1527 C 0.45997 0.78728 0.50019 0.0
H1528 H 0.43523 0.25694 0.72592 0.0
H1529 H 0.45642 0.19162 0.75303 0.0
H1530 H 0.4739 0.27245 0.73193 0.0
H1531 H 0.49537 0.20716 0.75868 0.0
H1532 H 0.54237 0.29819 0.75669 0.0
H1533 H 0.50391 0.28157 0.76199 0.0
H1534 H 0.52529 0.21955 0.7293 0.0
H1535 H 0.5636 0.23618 0.72367 0.0
C1536 C 0.44805 0.24603 0.73347 0.0
C1537 C 0.44288 0.22302 0.73885 0.0
C1538 C 0.47013 0.25496 0.73703 0.0
C1539 C 0.48755 0.24096 0.74573 0.0
C1540 C 0.48218 0.21825 0.75193 0.0
C1541 C 0.45992 0.20943 0.74875 0.0
C1542 C 0.53903 0.28082 0.75104 0.0
C1543 C 0.5559 0.26858 0.73953 0.0
C1544 C 0.51702 0.27137 0.75403 0.0
C1545 C 0.51169 0.24937 0.74598 0.0
C1546 C 0.52903 0.23649 0.7358 0.0
C1547 C 0.5509 0.24608 0.73247 0.0
H1548 H 0.0009 0.18498 0.95349 0.0
H1549 H 0.03713 0.19346 0.0132 0.0
H1550 H 0.98439 0.22342 0.95741 0.0
H1551 H 0.02005 0.23208 0.01709 0.0
H1552 H 0.95799 0.29255 0.01262 0.0
H1553 H 0.97296 0.25292 0.01578 0.0
H1554 H 0.01363 0.26299 0.95906 0.0
H1555 H -0.00066 0.30233 0.95595 0.0
C1556 C 0.005 0.19479 0.96767 0.0
C1557 C 0.02065 0.18625 0.98288 0.0
C1558 C 0.99551 0.21679 0.96987 0.0
C1559 C 0.00118 0.23058 0.98743 0.0
C1560 C 0.01547 0.22161 0.00344 0.0
C1561 C 0.02524 0.19958 1.00115 0.0
C1562 C 0.97044 0.28644 1.00105 0.0
C1563 C 0.97728 0.30057 0.98392 0.0
C1564 C 0.97895 0.26383 0.0029 0.0
C1565 C 0.99414 0.25506 0.9875 0.0
C1566 C 0.00173 0.26943 0.97098 0.0
C1567 C 0.99354 0.29197 0.96928 0.0
H1568 H 0.93545 0.73979 0.72583 0.0
H1569 H 0.95677 0.80521 0.75266 0.0
H1570 H 0.97423 0.72439 0.73156 0.0
H1571 H 0.9958 0.7898 0.75802 0.0
H1572 H 0.0429 0.69889 0.75597 0.0
H1573 H 0.00448 0.71544 0.76144 0.0
H1574 H 0.02557 0.77741 0.72845 0.0
H1575 H 0.06388 0.76083 0.72266 0.0
C1576 C 0.94833 0.75074 0.73327 0.0
C1577 C 0.94315 0.77374 0.73865 0.0
C1578 C 0.97046 0.74189 0.73666 0.0
C1579 C 0.98795 0.75596 0.74518 0.0
C1580 C 0.98257 0.77865 0.7514 0.0
C1581 C 0.96026 0.7874 0.74839 0.0
C1582 C 0.03952 0.71624 0.75029 0.0
C1583 C 0.05633 0.72847 0.73866 0.0
C1584 C 0.01753 0.72565 0.75338 0.0
C1585 C 0.01211 0.74761 0.74528 0.0
C1586 C 0.02938 0.76049 0.73498 0.0
C1587 C 0.05125 0.75095 0.73156 0.0
H1588 H 0.03398 0.29753 0.51009 0.0
H1589 H 0.99577 0.30853 0.4518 0.0
H1590 H 0.01711 0.25877 0.51304 0.0
H1591 H 0.9794 0.26997 0.45476 0.0
H1592 H 0.98851 0.1916 0.44964 0.0
H1593 H 0.00371 0.23061 0.45236 0.0
H1594 H 0.97391 0.23757 0.51492 0.0
H1595 H 0.95815 0.19825 0.51223 0.0
C1596 C 0.02177 0.29191 0.49813 0.0
C1597 C 0.0165 0.30606 0.48055 0.0
C1598 C 0.01211 0.26976 0.49987 0.0
C1599 C 0.99729 0.26143 0.48396 0.0
C1600 C 0.99106 0.27599 0.46708 0.0
C1601 C 0.00043 0.29809 0.46545 0.0
C1602 C 0.98528 0.20122 0.46411 0.0
C1603 C 0.97185 0.19183 0.48064 0.0
C1604 C 0.99395 0.22362 0.46559 0.0
C1605 C 0.98967 0.23707 0.48371 0.0
C1606 C 0.97733 0.22744 0.50077 0.0
C1607 C 0.96833 0.205 0.49919 0.0
H1608 H 0.43401 0.23934 0.2223 0.0
H1609 H 0.45414 0.3028 0.25356 0.0
H1610 H 0.47269 0.2237 0.2282 0.0
H1611 H 0.493 0.28718 0.2591 0.0
H1612 H 0.56246 0.26137 0.22431 0.0
H1613 H 0.52368 0.27708 0.22958 0.0
H1614 H 0.50214 0.21291 0.25851 0.0
H1615 H 0.54104 0.19722 0.25361 0.0
C1616 C 0.44658 0.24979 0.23073 0.0
C1617 C 0.44111 0.27235 0.23731 0.0
C1618 C 0.46865 0.24079 0.23422 0.0
C1619 C 0.48577 0.25431 0.24404 0.0
C1620 C 0.48006 0.27648 0.25144 0.0
C1621 C 0.45783 0.28534 0.24832 0.0
C1622 C 0.5496 0.25079 0.23221 0.0
C1623 C 0.55473 0.22801 0.23838 0.0
C1624 C 0.52747 0.25983 0.23533 0.0
C1625 C 0.50998 0.24612 0.24435 0.0
C1626 C 0.51536 0.22375 0.25145 0.0
C1627 C 0.53762 0.21485 0.2487 0.0
H1628 H 0.55243 0.78812 0.00209 0.0
H1629 H 0.48746 0.80958 0.97447 0.0
H1630 H 0.5368 0.74916 0.00742 0.0
H1631 H 0.47178 0.77086 0.98028 0.0
H1632 H 0.44625 0.70249 0.00689 0.0
H1633 H 0.46317 0.74089 0.01171 0.0
H1634 H 0.52371 0.71952 0.97675 0.0
H1635 H 0.50669 0.68124 0.97149 0.0
C1636 C 0.53466 0.78467 0.99764 0.0
C1637 C 0.52118 0.80179 0.98772 0.0
C1638 C 0.5258 0.76241 1.00064 0.0
C1639 C 0.50315 0.75714 0.99426 0.0
C1640 C 0.48925 0.77461 0.98549 0.0
C1641 C 0.49825 0.79668 0.98207 0.0
C1642 C 0.46339 0.7058 1.00064 0.0
C1643 C 0.47509 0.68894 0.98864 0.0
C1644 C 0.47299 0.72777 0.00336 0.0
C1645 C 0.49465 0.73306 0.99455 0.0
C1646 C 0.50703 0.71576 0.98381 0.0
C1647 C 0.49725 0.69393 0.98072 0.0
H1648 H 0.93615 0.25471 0.79555 0.0
H1649 H 0.94785 0.21087 0.74083 0.0
H1650 H 0.97487 0.27063 0.79168 0.0
H1651 H 0.98669 0.22739 0.73691 0.0
H1652 H 0.0475 0.28995 0.73835 0.0
H1653 H 0.00784 0.27515 0.73463 0.0
H1654 H 0.01426 0.24009 0.79485 0.0
H1655 H 0.05362 0.25421 0.79857 0.0
C1656 C 0.94671 0.24881 0.7824 0.0
C1657 C 0.93897 0.23122 0.76869 0.0
C1658 C 0.96886 0.25798 0.78022 0.0
C1659 C 0.98361 0.25003 0.76412 0.0
C1660 C 0.97546 0.23375 0.7494 0.0
C1661 C 0.95329 0.22433 0.7517 0.0
C1662 C 0.04058 0.27875 0.7506 0.0
C1663 C 0.05367 0.27346 0.76886 0.0
C1664 C 0.01796 0.27034 0.74844 0.0
C1665 C 0.00815 0.2568 0.7646 0.0
C1666 C 0.02152 0.2507 0.78231 0.0
C1667 C 0.04407 0.25878 0.78436 0.0
H1668 H 0.44356 0.2921 0.49663 0.0
H1669 H 0.5054 0.31228 0.53049 0.0
H1670 H 0.4599 0.25355 0.49094 0.0
H1671 H 0.5218 0.27393 0.5244 0.0
H1672 H 0.54988 0.20623 0.49855 0.0
H1673 H 0.53391 0.24503 0.49349 0.0
H1674 H 0.46931 0.2227 0.52105 0.0
H1675 H 0.4853 0.18408 0.52653 0.0
C1676 C 0.46085 0.2885 0.50238 0.0
C1677 C 0.47315 0.30511 0.51417 0.0
C1678 C 0.47012 0.26646 0.49917 0.0
C1679 C 0.49204 0.26087 0.50726 0.0
C1680 C 0.50493 0.27792 0.51786 0.0
C1681 C 0.49549 0.29978 0.52145 0.0
C1682 C 0.5321 0.20947 0.5031 0.0
C1683 C 0.51888 0.19221 0.51313 0.0
C1684 C 0.52304 0.23166 0.50026 0.0
C1685 C 0.50046 0.23677 0.50693 0.0
C1686 C 0.48672 0.21911 0.51563 0.0
C1687 C 0.49591 0.19708 0.51886 0.0
H1688 H 0.43566 0.75761 0.27695 0.0
H1689 H 0.45539 0.69288 0.24778 0.0
H1690 H 0.47415 0.77307 0.26996 0.0
H1691 H 0.49411 0.70837 0.24107 0.0
H1692 H 0.56353 0.73515 0.27519 0.0
H1693 H 0.525 0.71917 0.26948 0.0
H1694 H 0.50349 0.78308 0.24004 0.0
H1695 H 0.5422 0.79909 0.24547 0.0
C1696 C 0.4481 0.74682 0.26873 0.0
C1697 C 0.44261 0.72396 0.26314 0.0
C1698 C 0.47006 0.75574 0.26458 0.0
C1699 C 0.48706 0.74186 0.25503 0.0
C1700 C 0.48128 0.71937 0.2485 0.0
C1701 C 0.45914 0.71056 0.25232 0.0
C1702 C 0.55075 0.74561 0.26705 0.0
C1703 C 0.55579 0.76847 0.26102 0.0
C1704 C 0.52875 0.7364 0.26366 0.0
C1705 C 0.51129 0.74998 0.25445 0.0
C1706 C 0.51667 0.77234 0.24726 0.0
C1707 C 0.53882 0.78143 0.25033 0.0
H1708 H 0.0506 0.70754 0.99883 0.0
H1709 H 0.98498 0.68656 0.02547 0.0
H1710 H 0.03537 0.7466 0.99329 0.0
H1711 H 0.96975 0.72539 0.01953 0.0
H1712 H 0.94497 0.79436 0.99456 0.0
H1713 H 0.96129 0.75579 0.98925 0.0
H1714 H 0.02286 0.77627 0.02316 0.0
H1715 H 0.00649 0.8147 0.02885 0.0
C1716 C 0.03278 0.71111 0.00301 0.0
C1717 C 0.01902 0.6941 0.01277 0.0
C1718 C 0.02414 0.73344 0.99989 0.0
C1719 C 0.00145 0.73892 0.00601 0.0
C1720 C 0.98725 0.72152 0.01451 0.0
C1721 C 0.99601 0.69937 0.01803 0.0
C1722 C 0.96219 0.7908 1.00049 0.0
C1723 C 0.97436 0.80746 0.01234 0.0
C1724 C 0.97146 0.76873 0.99749 0.0
C1725 C 0.99325 0.76312 0.00587 0.0
C1726 C 0.00609 0.78025 0.01641 0.0
C1727 C 0.99666 0.80217 0.01977 0.0
H1728 H 0.14263 0.29158 0.32721 0.0
H1729 H 0.12151 0.23827 0.37123 0.0
H1730 H 0.14234 0.31982 0.35597 0.0
H1731 H 0.12032 0.26657 0.39979 0.0
H1732 H 0.1182 0.3186 0.45 0.0
H1733 H 0.13739 0.29407 0.42368 0.0
H1734 H 0.11079 0.33758 0.37339 0.0
H1735 H 0.09241 0.36215 0.39953 0.0
C1736 C 0.13815 0.28585 0.34308 0.0
C1737 C 0.13164 0.26281 0.34688 0.0
C1738 C 0.13797 0.30204 0.35958 0.0
C1739 C 0.13096 0.29561 0.38018 0.0
C1740 C 0.12604 0.27218 0.38422 0.0
C1741 C 0.12648 0.25594 0.36777 0.0
C1742 C 0.11731 0.3234 0.43337 0.0
C1743 C 0.10348 0.34204 0.42677 0.0
C1744 C 0.12806 0.3092 0.41826 0.0
C1745 C 0.12521 0.3135 0.39636 0.0
C1746 C 0.11349 0.33366 0.39005 0.0
C1747 C 0.10278 0.34775 0.40507 0.0
H1748 H 0.8819 0.83474 0.64991 0.0
H1749 H 0.92244 0.87221 0.69613 0.0
H1750 H 0.9036 0.85248 0.62135 0.0
H1751 H 0.94407 0.89067 0.66728 0.0
H1752 H 0.00066 0.87396 0.61569 0.0
H1753 H 0.97309 0.87355 0.64482 0.0
H1754 H 0.91712 0.88366 0.6002 0.0
H1755 H 0.94476 0.88321 0.57091 0.0
C1756 C 0.89495 0.84747 0.65391 0.0
C1757 C 0.90079 0.85176 0.67522 0.0
C1758 C 0.90735 0.85781 0.63748 0.0
C1759 C 0.92594 0.8727 0.64198 0.0
C1760 C 0.93015 0.87891 0.6633 0.0
C1761 C 0.91761 0.86855 0.67982 0.0
C1762 C 0.98251 0.87648 0.61211 0.0
C1763 C 0.97482 0.87804 0.59096 0.0
C1764 C 0.96667 0.87651 0.62887 0.0
C1765 C 0.9428 0.8783 0.62487 0.0
C1766 C 0.93534 0.88178 0.60381 0.0
C1767 C 0.95117 0.88152 0.58702 0.0
H1768 H 0.38898 0.62584 0.90949 0.0
H1769 H 0.38746 0.6875 0.94793 0.0
H1770 H 0.37317 0.64736 0.87948 0.0
H1771 H 0.37324 0.70957 0.9177 0.0
H1772 H 0.35233 0.74763 0.85952 0.0
H1773 H 0.34902 0.72135 0.88977 0.0
H1774 H 0.39339 0.67246 0.85741 0.0
H1775 H 0.39573 0.69812 0.82713 0.0
C1776 C 0.38442 0.64386 0.91167 0.0
C1777 C 0.38938 0.6551 0.93087 0.0
C1778 C 0.37575 0.65632 0.89442 0.0
C1779 C 0.37273 0.68042 0.89586 0.0
C1780 C 0.3753 0.69108 0.91588 0.0
C1781 C 0.38341 0.67843 0.93331 0.0
C1782 C 0.36105 0.73107 0.85882 0.0
C1783 C 0.37453 0.72504 0.84106 0.0
C1784 C 0.35919 0.71602 0.87617 0.0
C1785 C 0.37098 0.69474 0.87621 0.0
C1786 C 0.38362 0.68841 0.85795 0.0
C1787 C 0.38522 0.70329 0.84057 0.0
H1788 H 0.54913 0.11177 0.07312 0.0
H1789 H 0.49279 0.12186 0.11725 0.0
H1790 H 0.57657 0.11294 0.10254 0.0
H1791 H 0.52017 0.12389 0.14651 0.0
H1792 H 0.57137 0.12727 0.19797 0.0
H1793 H 0.54944 0.1081 0.16967 0.0
H1794 H 0.58939 0.14524 0.12263 0.0
H1795 H 0.61135 0.16369 0.15063 0.0
C1796 C 0.54258 0.11398 0.08913 0.0
C1797 C 0.51885 0.11722 0.09282 0.0
C1798 C 0.5583 0.11466 0.106 0.0
C1799 C 0.55065 0.11888 0.12688 0.0
C1800 C 0.52673 0.12041 0.1307 0.0
C1801 C 0.511 0.11948 0.11386 0.0
C1802 C 0.57596 0.1306 0.18155 0.0
C1803 C 0.59279 0.14722 0.17646 0.0
C1804 C 0.56327 0.11982 0.16535 0.0
C1805 C 0.56735 0.12541 0.14386 0.0
C1806 C 0.58578 0.14033 0.13891 0.0
C1807 C 0.59832 0.15109 0.15501 0.0
H1808 H 0.08046 0.63188 0.10101 0.0
H1809 H 0.11801 0.67306 0.05534 0.0
H1810 H 0.09861 0.6527 0.12987 0.0
H1811 H 0.13696 0.69381 0.0845 0.0
H1812 H 0.12209 0.74931 0.13742 0.0
H1813 H 0.12084 0.7225 0.10773 0.0
H1814 H 0.12991 0.66522 0.15113 0.0
H1815 H 0.13023 0.69213 0.18099 0.0
C1816 C 0.09329 0.64489 0.09718 0.0
C1817 C 0.0975 0.65116 0.07596 0.0
C1818 C 0.10388 0.65679 0.11378 0.0
C1819 C 0.11897 0.67529 0.10956 0.0
C1820 C 0.12505 0.67995 0.08828 0.0
C1821 C 0.11442 0.66791 0.07157 0.0
C1822 C 0.12419 0.73102 0.14061 0.0
C1823 C 0.12568 0.72279 0.16159 0.0
C1824 C 0.12374 0.71561 0.12352 0.0
C1825 C 0.125 0.69161 0.12701 0.0
C1826 C 0.12841 0.68355 0.1479 0.0
C1827 C 0.12859 0.69897 0.16502 0.0
H1828 H 0.61337 0.83148 0.35099 0.0
H1829 H 0.57048 0.86805 0.30601 0.0
H1830 H 0.59205 0.84831 0.38018 0.0
H1831 H 0.54923 0.88577 0.33553 0.0
H1832 H 0.49471 0.86898 0.38866 0.0
H1833 H 0.52131 0.86874 0.35879 0.0
H1834 H 0.5787 0.87854 0.40196 0.0
H1835 H 0.55202 0.87774 0.43198 0.0
C1836 C 0.59983 0.84383 0.34739 0.0
C1837 C 0.59327 0.84813 0.32626 0.0
C1838 C 0.58765 0.85368 0.36419 0.0
C1839 C 0.56858 0.86812 0.36027 0.0
C1840 C 0.56353 0.87433 0.33908 0.0
C1841 C 0.57584 0.86442 0.32217 0.0
C1842 C 0.51298 0.87141 0.39176 0.0
C1843 C 0.52134 0.8728 0.4127 0.0
C1844 C 0.52826 0.87155 0.37457 0.0
C1845 C 0.55225 0.87336 0.37792 0.0
C1846 C 0.56039 0.8766 0.39881 0.0
C1847 C 0.54511 0.87614 0.41603 0.0
H1848 H 0.35357 0.2504 0.64541 0.0
H1849 H 0.3984 0.29945 0.67677 0.0
H1850 H 0.34965 0.27673 0.61528 0.0
H1851 H 0.39548 0.32515 0.64655 0.0
H1852 H 0.38654 0.31008 0.55615 0.0
H1853 H 0.37287 0.28828 0.58673 0.0
H1854 H 0.37518 0.35049 0.62491 0.0
H1855 H 0.39049 0.3717 0.59449 0.0
C1856 C 0.3625 0.26686 0.6459 0.0
C1857 C 0.37654 0.27275 0.66333 0.0
C1858 C 0.36029 0.28195 0.62861 0.0
C1859 C 0.3723 0.30312 0.62829 0.0
C1860 C 0.38552 0.3093 0.64624 0.0
C1861 C 0.38746 0.29439 0.66358 0.0
C1862 C 0.3831 0.31923 0.57085 0.0
C1863 C 0.38964 0.34243 0.57312 0.0
C1864 C 0.37532 0.30674 0.5885 0.0
C1865 C 0.37363 0.31742 0.60859 0.0
C1866 C 0.37711 0.34148 0.60992 0.0
C1867 C 0.38547 0.35378 0.59243 0.0
H1868 H 0.95526 0.10679 0.92688 0.0
H1869 H 0.00957 0.12483 0.88274 0.0
H1870 H 0.92723 0.1074 0.89794 0.0
H1871 H 0.9815 0.12639 0.85399 0.0
H1872 H 0.88668 0.1574 0.85335 0.0
H1873 H 0.9108 0.13918 0.8799 0.0
H1874 H 0.95347 0.1099 0.83027 0.0
H1875 H 0.92936 0.12895 0.80348 0.0
C1876 C 0.96124 0.11068 0.91095 0.0
C1877 C 0.98452 0.11624 0.90715 0.0
C1878 C 0.94518 0.11104 0.89436 0.0
C1879 C 0.95198 0.11732 0.87366 0.0
C1880 C 0.9756 0.12127 0.86964 0.0
C1881 C 0.99171 0.12061 0.8862 0.0
C1882 C 0.90082 0.14653 0.84805 0.0
C1883 C 0.9064 0.14495 0.82637 0.0
C1884 C 0.91463 0.13589 0.86332 0.0
C1885 C 0.93439 0.12336 0.85729 0.0
C1886 C 0.93863 0.11983 0.83546 0.0
C1887 C 0.92469 0.13051 0.8201 0.0
H1888 H 0.89732 0.69712 0.67667 0.0
H1889 H 0.85452 0.74727 0.64441 0.0
H1890 H 0.8937 0.67111 0.64674 0.0
H1891 H 0.84997 0.72069 0.61453 0.0
H1892 H 0.88709 0.62384 0.59556 0.0
H1893 H 0.87217 0.64622 0.6254 0.0
H1894 H 0.87331 0.70779 0.58633 0.0
H1895 H 0.88667 0.68494 0.5563 0.0
C1896 C 0.88669 0.70239 0.66334 0.0
C1897 C 0.87652 0.72438 0.66278 0.0
C1898 C 0.88434 0.68731 0.64617 0.0
C1899 C 0.87148 0.69369 0.62806 0.0
C1900 C 0.86027 0.71529 0.62802 0.0
C1901 C 0.86286 0.73052 0.64516 0.0
C1902 C 0.88292 0.64192 0.59315 0.0
C1903 C 0.88808 0.65276 0.57377 0.0
C1904 C 0.87477 0.65487 0.61031 0.0
C1905 C 0.87241 0.67902 0.60858 0.0
C1906 C 0.87493 0.68928 0.58838 0.0
C1907 C 0.88253 0.67617 0.57105 0.0
H1908 H 0.99008 0.1041 0.38798 0.0
H1909 H 0.04108 0.14094 0.425 0.0
H1910 H 0.01737 0.1015 0.35842 0.0
H1911 H 0.06776 0.1394 0.39549 0.0
H1912 H 0.11653 0.13559 0.34507 0.0
H1913 H 0.09243 0.11935 0.37315 0.0
H1914 H 0.03242 0.12642 0.33256 0.0
H1915 H 0.05697 0.14097 0.30415 0.0
C1916 C 0.00715 0.11155 0.38982 0.0
C1917 C 0.01336 0.12294 0.40873 0.0
C1918 C 0.02279 0.1101 0.37287 0.0
C1919 C 0.04487 0.12025 0.37441 0.0
C1920 C 0.05122 0.13087 0.3937 0.0
C1921 C 0.03575 0.13203 0.41066 0.0
C1922 C 0.09836 0.13254 0.3419 0.0
C1923 C 0.08851 0.13957 0.32259 0.0
C1924 C 0.08444 0.12361 0.35807 0.0
C1925 C 0.06028 0.12241 0.35549 0.0
C1926 C 0.0509 0.12706 0.33525 0.0
C1927 C 0.06498 0.13538 0.31887 0.0
H1928 H 0.59194 0.36966 0.10169 0.0
H1929 H 0.61991 0.32248 0.05517 0.0
H1930 H 0.60861 0.34693 0.13003 0.0
H1931 H 0.63762 0.29987 0.08372 0.0
H1932 H 0.61831 0.24717 0.13728 0.0
H1933 H 0.6194 0.27401 0.10763 0.0
H1934 H 0.63727 0.32954 0.15068 0.0
H1935 H 0.63503 0.30271 0.18053 0.0
C1936 C 0.60254 0.3549 0.0975 0.0
C1937 C 0.60419 0.34755 0.07627 0.0
C1938 C 0.61226 0.34183 0.11382 0.0
C1939 C 0.624 0.32112 0.10928 0.0
C1940 C 0.62813 0.31538 0.08782 0.0
C1941 C 0.61829 0.32851 0.07141 0.0
C1942 C 0.62277 0.26505 0.14038 0.0
C1943 C 0.62605 0.27294 0.16129 0.0
C1944 C 0.62369 0.28047 0.1233 0.0
C1945 C 0.62819 0.30411 0.12669 0.0
C1946 C 0.63323 0.31159 0.14749 0.0
C1947 C 0.63196 0.29622 0.16462 0.0
H1948 H 0.4995 0.86542 0.88664 0.0
H1949 H 0.44447 0.87926 0.93127 0.0
H1950 H 0.47205 0.86707 0.85745 0.0
H1951 H 0.41701 0.88197 0.90194 0.0
H1952 H 0.37695 0.8381 0.85164 0.0
H1953 H 0.39986 0.85374 0.88039 0.0
H1954 H 0.4454 0.8863 0.83477 0.0
H1955 H 0.42261 0.8697 0.80578 0.0
C1956 C 0.48159 0.86933 0.89017 0.0
C1957 C 0.47405 0.87168 0.91128 0.0
C1958 C 0.46582 0.87057 0.87337 0.0
C1959 C 0.44217 0.87447 0.87727 0.0
C1960 C 0.43498 0.87846 0.89835 0.0
C1961 C 0.45071 0.87689 0.91518 0.0
C1962 C 0.39138 0.84928 0.84773 0.0
C1963 C 0.39828 0.85227 0.8265 0.0
C1964 C 0.40456 0.85839 0.86428 0.0
C1965 C 0.42493 0.87082 0.85997 0.0
C1966 C 0.43017 0.87626 0.83865 0.0
C1967 C 0.41692 0.86706 0.82201 0.0
H1968 H 0.87709 0.32139 0.94964 0.0
H1969 H 0.90939 0.36445 0.90204 0.0
H1970 H 0.8578 0.29935 0.92157 0.0
H1971 H 0.89093 0.34228 0.87421 0.0
H1972 H 0.86015 0.29954 0.82491 0.0
H1973 H 0.85984 0.32704 0.8543 0.0
H1974 H 0.87472 0.27145 0.8982 0.0
H1975 H 0.87411 0.244 0.86902 0.0
C1976 C 0.87941 0.32667 0.93324 0.0
C1977 C 0.89509 0.34431 0.92797 0.0
C1978 C 0.86859 0.31388 0.91715 0.0
C1979 C 0.87325 0.31863 0.89559 0.0
C1980 C 0.88682 0.33804 0.89055 0.0
C1981 C 0.89759 0.35074 0.90656 0.0
C1982 C 0.86293 0.29317 0.84091 0.0
C1983 C 0.86765 0.26969 0.8446 0.0
C1984 C 0.86275 0.30893 0.85776 0.0
C1985 C 0.8676 0.30158 0.87863 0.0
C1986 C 0.87068 0.27779 0.88244 0.0
C1987 C 0.87059 0.26202 0.86562 0.0
H1988 H 0.49879 0.12656 0.6143 0.0
H1989 H 0.4424 0.11682 0.57014 0.0
H1990 H 0.47169 0.12613 0.64378 0.0
H1991 H 0.41523 0.11544 0.59978 0.0
H1992 H 0.37919 0.16185 0.65081 0.0
H1993 H 0.40085 0.14525 0.62168 0.0
H1994 H 0.44376 0.10814 0.66648 0.0
H1995 H 0.42217 0.12554 0.6959 0.0
C1996 C 0.48064 0.12379 0.61092 0.0
C1997 C 0.47267 0.12227 0.58986 0.0
C1998 C 0.46506 0.12326 0.62789 0.0
C1999 C 0.44116 0.12097 0.6242 0.0
C2000 C 0.43345 0.11769 0.60318 0.0
C2001 C 0.44902 0.11849 0.58619 0.0
C2002 C 0.39276 0.14954 0.65444 0.0
C2003 C 0.39928 0.14531 0.6756 0.0
C2004 C 0.40517 0.13987 0.63768 0.0
C2005 C 0.42444 0.12571 0.64168 0.0
C2006 C 0.42933 0.1194 0.66287 0.0
C2007 C 0.41679 0.12911 0.67973 0.0
H2008 H 0.61989 0.74968 0.36351 0.0
H2009 H 0.62835 0.69178 0.32082 0.0
H2010 H 0.61898 0.72342 0.39362 0.0
H2011 H 0.62841 0.66544 0.35111 0.0
H2012 H 0.58073 0.63176 0.40221 0.0
H2013 H 0.59776 0.65272 0.37288 0.0
H2014 H 0.63564 0.69553 0.41724 0.0
H2015 H 0.61775 0.67466 0.4469 0.0
C2016 C 0.62211 0.73136 0.3606 0.0
C2017 C 0.62364 0.72276 0.33974 0.0
C2018 C 0.62186 0.71626 0.37794 0.0
C2019 C 0.62336 0.69222 0.37484 0.0
C2020 C 0.62672 0.68381 0.35405 0.0
C2021 C 0.62669 0.6989 0.33668 0.0
C2022 C 0.59319 0.64523 0.40573 0.0
C2023 C 0.59759 0.65188 0.42682 0.0
C2024 C 0.60315 0.6572 0.38884 0.0
C2025 C 0.61781 0.67615 0.39263 0.0
C2026 C 0.62404 0.68131 0.41378 0.0
C2027 C 0.61403 0.66922 0.43078 0.0
H2028 H 0.06975 0.8674 0.19639 0.0
H2029 H 0.11128 0.83151 0.14988 0.0
H2030 H 0.04737 0.88525 0.16765 0.0
H2031 H 0.08889 0.8486 0.12146 0.0
H2032 H 0.04819 0.88059 0.07117 0.0
H2033 H 0.07539 0.88005 0.10079 0.0
H2034 H 0.0188 0.86842 0.14443 0.0
H2035 H 0.99163 0.86985 0.11495 0.0
C2036 C 0.07456 0.86392 0.18005 0.0
C2037 C 0.092 0.84783 0.17533 0.0
C2038 C 0.06161 0.87392 0.16359 0.0
C2039 C 0.06604 0.86807 0.14222 0.0
C2040 C 0.08499 0.8537 0.13763 0.0
C2041 C 0.09778 0.84371 0.15398 0.0
C2042 C 0.04155 0.8783 0.08714 0.0
C2043 C 0.01783 0.87479 0.09068 0.0
C2044 C 0.05713 0.878 0.10413 0.0
C2045 C 0.04936 0.87386 0.125 0.0
C2046 C 0.02544 0.87188 0.12864 0.0
C2047 C 0.00984 0.87245 0.11168 0.0
H2048 H 0.63623 0.79951 0.82404 0.0
H2049 H 0.62348 0.7438 0.86827 0.0
H2050 H 0.63661 0.82701 0.85343 0.0
H2051 H 0.62292 0.77125 0.89749 0.0
H2052 H 0.62046 0.82152 0.9489 0.0
H2053 H 0.63971 0.79953 0.92072 0.0
H2054 H 0.60535 0.84167 0.8735 0.0
H2055 H 0.5869 0.86369 0.90142 0.0
C2056 C 0.63373 0.79311 0.84006 0.0
C2057 C 0.62931 0.76958 0.8438 0.0
C2058 C 0.63396 0.80886 0.85692 0.0
C2059 C 0.62944 0.80145 0.87783 0.0
C2060 C 0.6267 0.77763 0.88167 0.0
C2061 C 0.62675 0.76186 0.86485 0.0
C2062 C 0.61788 0.82664 0.93249 0.0
C2063 C 0.60192 0.84402 0.92729 0.0
C2064 C 0.62867 0.81389 0.91634 0.0
C2065 C 0.62369 0.81845 0.89481 0.0
C2066 C 0.60974 0.83761 0.88981 0.0
C2067 C 0.59899 0.85022 0.90587 0.0
H2068 H 0.4235 0.37181 0.19754 0.0
H2069 H 0.3815 0.33787 0.15014 0.0
H2070 H 0.44618 0.39014 0.16931 0.0
H2071 H 0.40425 0.35534 0.12218 0.0
H2072 H 0.4475 0.38476 0.07267 0.0
H2073 H 0.41955 0.38573 0.10169 0.0
H2074 H 0.47462 0.37297 0.1467 0.0
H2075 H 0.50253 0.37302 0.11783 0.0
C2076 C 0.41859 0.36894 0.18112 0.0
C2077 C 0.40103 0.35314 0.17599 0.0
C2078 C 0.43175 0.37919 0.16494 0.0
C2079 C 0.42744 0.37381 0.14344 0.0
C2080 C 0.40815 0.36003 0.13846 0.0
C2081 C 0.39511 0.34984 0.15455 0.0
C2082 C 0.45364 0.38257 0.08882 0.0
C2083 C 0.47712 0.37832 0.09294 0.0
C2084 C 0.43764 0.38313 0.10546 0.0
C2085 C 0.44472 0.37907 0.12655 0.0
C2086 C 0.46848 0.37641 0.13074 0.0
C2087 C 0.48451 0.37618 0.11413 0.0
H2088 H 0.88425 0.18301 0.44867 0.0
H2089 H 0.88594 0.12297 0.4081 0.0
H2090 H 0.87055 0.20637 0.41916 0.0
H2091 H 0.87058 0.14582 0.37876 0.0
H2092 H 0.89505 0.19814 0.32856 0.0
H2093 H 0.89154 0.17138 0.3579 0.0
H2094 H 0.84767 0.22 0.39118 0.0
H2095 H 0.8522 0.24738 0.36188 0.0
C2096 C 0.8803 0.17453 0.43374 0.0
C2097 C 0.88639 0.15132 0.43051 0.0
C2098 C 0.8725 0.18795 0.41669 0.0
C2099 C 0.87025 0.1782 0.39625 0.0
C2100 C 0.87301 0.15413 0.39402 0.0
C2101 C 0.88141 0.14089 0.41091 0.0
C2102 C 0.88442 0.20305 0.342 0.0
C2103 C 0.87421 0.22501 0.34303 0.0
C2104 C 0.88212 0.18753 0.35884 0.0
C2105 C 0.86925 0.19339 0.37708 0.0
C2106 C 0.858 0.21497 0.37759 0.0
C2107 C 0.86057 0.23067 0.36079 0.0
H2108 H 0.04323 0.60954 0.57512 0.0
H2109 H 0.98806 0.62431 0.61939 0.0
H2110 H 0.07104 0.61017 0.60426 0.0
H2111 H 0.01588 0.6258 0.64835 0.0
H2112 H 0.06781 0.62751 0.69931 0.0
H2113 H 0.04442 0.60891 0.67168 0.0
H2114 H 0.08599 0.64222 0.62341 0.0
H2115 H 0.10934 0.66011 0.65077 0.0
C2116 C 0.03701 0.61271 0.59111 0.0
C2117 C 0.01354 0.61736 0.5949 0.0
C2118 C 0.05294 0.61307 0.60781 0.0
C2119 C 0.04579 0.61838 0.62863 0.0
C2120 C 0.02204 0.62143 0.6326 0.0
C2121 C 0.00607 0.62082 0.61592 0.0
C2122 C 0.07241 0.63006 0.68278 0.0
C2123 C 0.09014 0.64549 0.67714 0.0
C2124 C 0.05889 0.61964 0.66695 0.0
C2125 C 0.06304 0.62438 0.6453 0.0
C2126 C 0.08228 0.63799 0.63984 0.0
C2127 C 0.09564 0.64842 0.65557 0.0
H2128 H 0.62023 0.25157 0.6376 0.0
H2129 H 0.63112 0.19465 0.68094 0.0
H2130 H 0.61998 0.22484 0.60783 0.0
H2131 H 0.63184 0.16786 0.651 0.0
H2132 H 0.58333 0.13271 0.60118 0.0
H2133 H 0.60098 0.15409 0.62995 0.0
H2134 H 0.63706 0.19698 0.58439 0.0
H2135 H 0.6186 0.17564 0.55532 0.0
C2136 C 0.62313 0.23338 0.64072 0.0
C2137 C 0.62509 0.22513 0.66166 0.0
C2138 C 0.62327 0.21803 0.62358 0.0
C2139 C 0.62562 0.1941 0.62699 0.0
C2140 C 0.6295 0.18612 0.64784 0.0
C2141 C 0.62907 0.20146 0.66501 0.0
C2142 C 0.59558 0.14626 0.59728 0.0
C2143 C 0.59926 0.15283 0.57606 0.0
C2144 C 0.60589 0.15847 0.61382 0.0
C2145 C 0.62014 0.17761 0.60954 0.0
C2146 C 0.62578 0.18262 0.58822 0.0
C2147 C 0.61543 0.17026 0.57157 0.0
H2148 H 0.06173 0.36008 0.80553 0.0
H2149 H 0.12279 0.35674 0.8447 0.0
H2150 H 0.03945 0.37395 0.83568 0.0
H2151 H 0.10108 0.37231 0.87468 0.0
H2152 H 0.04962 0.34908 0.92605 0.0
H2153 H 0.07567 0.35209 0.89614 0.0
H2154 H 0.02711 0.397 0.86396 0.0
H2155 H 0.00039 0.39294 0.89381 0.0
C2156 C 0.07067 0.36368 0.82031 0.0
C2157 C 0.09384 0.35717 0.82295 0.0
C2158 C 0.05788 0.37159 0.83772 0.0
C2159 C 0.06824 0.3735 0.85793 0.0
C2160 C 0.09229 0.37017 0.8596 0.0
C2161 C 0.10488 0.36164 0.84236 0.0
C2162 C 0.04459 0.35984 0.91272 0.0
C2163 C 0.02281 0.37046 0.91216 0.0
C2164 C 0.05971 0.36184 0.89556 0.0
C2165 C 0.05362 0.37483 0.87745 0.0
C2166 C 0.03228 0.38655 0.87743 0.0
C2167 C 0.01697 0.38426 0.89455 0.0
H2168 H 0.85514 0.75226 0.14671 0.0
H2169 H 0.9019 0.80017 0.17716 0.0
H2170 H 0.85156 0.77846 0.11645 0.0
H2171 H 0.89926 0.82574 0.1468 0.0
H2172 H 0.89356 0.87252 0.0947 0.0
H2173 H 0.87889 0.85152 0.1255 0.0
H2174 H 0.87478 0.78929 0.0875 0.0
H2175 H 0.88791 0.81088 0.05655 0.0
C2176 C 0.86456 0.76845 0.14697 0.0
C2177 C 0.87902 0.77405 0.1642 0.0
C2178 C 0.86255 0.78345 0.12961 0.0
C2179 C 0.87515 0.80426 0.12901 0.0
C2180 C 0.88885 0.81017 0.14673 0.0
C2181 C 0.89062 0.79534 0.16414 0.0
C2182 C 0.88834 0.85464 0.09279 0.0
C2183 C 0.89181 0.84323 0.07339 0.0
C2184 C 0.88032 0.84246 0.11049 0.0
C2185 C 0.87645 0.81847 0.10925 0.0
C2186 C 0.87754 0.80771 0.08916 0.0
C2187 C 0.88501 0.82008 0.07132 0.0
H2188 H 0.42248 0.62538 0.30816 0.0
H2189 H 0.38094 0.66367 0.353 0.0
H2190 H 0.4432 0.60718 0.33773 0.0
H2191 H 0.40176 0.64628 0.38226 0.0
H2192 H 0.44124 0.61605 0.4341 0.0
H2193 H 0.41438 0.61566 0.40419 0.0
H2194 H 0.47174 0.62382 0.36073 0.0
H2195 H 0.49849 0.62327 0.39047 0.0
C2196 C 0.41725 0.62929 0.32431 0.0
C2197 C 0.4004 0.6462 0.32833 0.0
C2198 C 0.42928 0.61909 0.34125 0.0
C2199 C 0.42452 0.62562 0.3624 0.0
C2200 C 0.40593 0.64068 0.36628 0.0
C2201 C 0.39403 0.65083 0.34945 0.0
C2202 C 0.44811 0.61734 0.41811 0.0
C2203 C 0.47193 0.62019 0.41467 0.0
C2204 C 0.43272 0.61712 0.40096 0.0
C2205 C 0.44081 0.62006 0.38002 0.0
C2206 C 0.46482 0.62128 0.37655 0.0
C2207 C 0.4802 0.62123 0.39368 0.0
H2208 H 0.40527 0.12963 0.10091 0.0
H2209 H 0.37783 0.17665 0.05396 0.0
H2210 H 0.38867 0.15269 0.12903 0.0
H2211 H 0.36016 0.19962 0.08231 0.0
H2212 H 0.37903 0.25245 0.1359 0.0
H2213 H 0.37817 0.22553 0.10629 0.0
H2214 H 0.35984 0.17014 0.14936 0.0
H2215 H 0.36188 0.19704 0.17916 0.0
C2216 C 0.39483 0.14446 0.09658 0.0
C2217 C 0.39327 0.15163 0.0753 0.0
C2218 C 0.38513 0.15771 0.11277 0.0
C2219 C 0.3735 0.17844 0.10805 0.0
C2220 C 0.36955 0.18408 0.08654 0.0
C2221 C 0.37938 0.17076 0.07026 0.0
C2222 C 0.37453 0.23458 0.139 0.0
C2223 C 0.37108 0.22673 0.1599 0.0
C2224 C 0.37375 0.21912 0.12195 0.0
C2225 C 0.36918 0.1955 0.12537 0.0
C2226 C 0.36395 0.18808 0.14615 0.0
C2227 C 0.36512 0.20348 0.16326 0.0
H2228 H 0.56714 0.62984 0.80419 0.0
H2229 H 0.61311 0.6564 0.85243 0.0
H2230 H 0.5431 0.61227 0.83187 0.0
H2231 H 0.58907 0.63968 0.8799 0.0
H2232 H 0.54428 0.60992 0.9285 0.0
H2233 H 0.57151 0.60936 0.89892 0.0
H2234 H 0.51679 0.63022 0.85617 0.0
H2235 H 0.48949 0.62978 0.88556 0.0
C2236 C 0.57255 0.63121 0.82063 0.0
C2237 C 0.59178 0.64475 0.82621 0.0
C2238 C 0.55863 0.62143 0.83652 0.0
C2239 C 0.56381 0.62497 0.85818 0.0
C2240 C 0.58447 0.63644 0.86348 0.0
C2241 C 0.59826 0.64618 0.84768 0.0
C2242 C 0.53803 0.61403 0.91271 0.0
C2243 C 0.51485 0.62033 0.90942 0.0
C2244 C 0.55363 0.61372 0.89574 0.0
C2245 C 0.54649 0.62007 0.87515 0.0
C2246 C 0.52295 0.62497 0.8717 0.0
C2247 C 0.50728 0.62498 0.88863 0.0
H2248 H 0.08864 0.86552 0.60014 0.0
H2249 H 0.11701 0.81905 0.55321 0.0
H2250 H 0.10618 0.84309 0.62826 0.0
H2251 H 0.1355 0.79669 0.58155 0.0
H2252 H 0.11795 0.74397 0.63588 0.0
H2253 H 0.11801 0.77054 0.60599 0.0
H2254 H 0.13627 0.82668 0.6482 0.0
H2255 H 0.13515 0.80013 0.67831 0.0
C2256 C 0.09944 0.85095 0.59581 0.0
C2257 C 0.10106 0.84374 0.57454 0.0
C2258 C 0.10968 0.83808 0.61198 0.0
C2259 C 0.12187 0.81769 0.60727 0.0
C2260 C 0.12574 0.812 0.58576 0.0
C2261 C 0.11542 0.82496 0.56949 0.0
C2262 C 0.1223 0.76193 0.63874 0.0
C2263 C 0.12598 0.77008 0.65951 0.0
C2264 C 0.12262 0.77718 0.62152 0.0
C2265 C 0.12689 0.8009 0.62464 0.0
C2266 C 0.13241 0.80864 0.64525 0.0
C2267 C 0.13176 0.79343 0.66252 0.0
H2268 H 0.8794 0.33932 0.35344 0.0
H2269 H 0.92136 0.3713 0.30485 0.0
H2270 H 0.90283 0.35716 0.38074 0.0
H2271 H 0.94464 0.38999 0.33236 0.0
H2272 H 0.00174 0.37238 0.3829 0.0
H2273 H 0.97312 0.3724 0.35463 0.0
H2274 H 0.91951 0.38752 0.40049 0.0
H2275 H 0.94815 0.38655 0.42892 0.0
C2276 C 0.8931 0.35097 0.3486 0.0
C2277 C 0.89887 0.35347 0.32703 0.0
C2278 C 0.90656 0.36136 0.36431 0.0
C2279 C 0.92606 0.37459 0.35879 0.0
C2280 C 0.93009 0.37941 0.33715 0.0
C2281 C 0.91656 0.36895 0.32136 0.0
C2282 C 0.9839 0.37608 0.38691 0.0
C2283 C 0.97711 0.37891 0.40818 0.0
C2284 C 0.96746 0.37635 0.37063 0.0
C2285 C 0.94387 0.37971 0.37525 0.0
C2286 C 0.93742 0.3844 0.39639 0.0
C2287 C 0.95384 0.38384 0.4127 0.0
H2288 H 0.37767 0.74706 0.36448 0.0
H2289 H 0.36845 0.80349 0.32029 0.0
H2290 H 0.37647 0.77405 0.394 0.0
H2291 H 0.36617 0.83056 0.34995 0.0
H2292 H 0.41102 0.86706 0.4017 0.0
H2293 H 0.39493 0.84545 0.37233 0.0
H2294 H 0.35825 0.8015 0.41663 0.0
H2295 H 0.37529 0.823 0.44629 0.0
C2296 C 0.37485 0.76521 0.3611 0.0
C2297 C 0.37372 0.77323 0.34004 0.0
C2298 C 0.37386 0.78073 0.37809 0.0
C2299 C 0.37143 0.80461 0.37443 0.0
C2300 C 0.36854 0.81236 0.35337 0.0
C2301 C 0.36987 0.79686 0.33635 0.0
C2302 C 0.39891 0.85326 0.40517 0.0
C2303 C 0.39476 0.8464 0.42624 0.0
C2304 C 0.38951 0.84087 0.38827 0.0
C2305 C 0.37567 0.82131 0.39205 0.0
C2306 C 0.36932 0.81613 0.41317 0.0
C2307 C 0.3788 0.82862 0.43018 0.0
H2308 H 0.87806 0.66393 0.15152 0.0
H2309 H 0.92088 0.62565 0.19534 0.0
H2310 H 0.89888 0.64753 0.1218 0.0
H2311 H 0.94157 0.6084 0.16532 0.0
H2312 H 0.99646 0.62736 0.11331 0.0
H2313 H 0.96957 0.62648 0.14291 0.0
H2314 H 0.91261 0.61832 0.09899 0.0
H2315 H 0.93961 0.62018 0.06924 0.0
C2316 C 0.89138 0.65122 0.15474 0.0
C2317 C 0.89818 0.64642 0.17572 0.0
C2318 C 0.90331 0.64166 0.13764 0.0
C2319 C 0.92233 0.62701 0.14112 0.0
C2320 C 0.92735 0.62007 0.16211 0.0
C2321 C 0.91532 0.62969 0.17932 0.0
C2322 C 0.97823 0.62507 0.10996 0.0
C2323 C 0.9701 0.6244 0.08892 0.0
C2324 C 0.96277 0.62426 0.127 0.0
C2325 C 0.93882 0.62253 0.1234 0.0
C2326 C 0.93089 0.62012 0.10235 0.0
C2327 C 0.94636 0.62121 0.08528 0.0
H2328 H 0.10894 0.18657 0.94794 0.0
H2329 H 0.11101 0.12699 0.90683 0.0
H2330 H 0.1222 0.21092 0.91887 0.0
H2331 H 0.12595 0.15087 0.87799 0.0
H2332 H 0.10196 0.20256 0.82729 0.0
H2333 H 0.10477 0.17589 0.85676 0.0
H2334 H 0.14581 0.22559 0.89172 0.0
H2335 H 0.14199 0.25288 0.86225 0.0
C2336 C 0.11358 0.17849 0.93299 0.0
C2337 C 0.1088 0.15502 0.92948 0.0
C2338 C 0.12114 0.19246 0.91621 0.0
C2339 C 0.12442 0.18304 0.89577 0.0
C2340 C 0.12273 0.15889 0.89326 0.0
C2341 C 0.11458 0.14509 0.90986 0.0
C2342 C 0.11181 0.20775 0.84115 0.0
C2343 C 0.12147 0.22994 0.84254 0.0
C2344 C 0.1137 0.19228 0.85806 0.0
C2345 C 0.12562 0.19844 0.87677 0.0
C2346 C 0.13624 0.22033 0.87774 0.0
C2347 C 0.13408 0.23596 0.86084 0.0
H2348 H 0.56812 0.36736 0.6987 0.0
H2349 H 0.61314 0.33663 0.65185 0.0
H2350 H 0.54477 0.3843 0.67017 0.0
H2351 H 0.58981 0.35273 0.62359 0.0
H2352 H 0.54606 0.38113 0.57356 0.0
H2353 H 0.57328 0.38251 0.60314 0.0
H2354 H 0.51791 0.36579 0.64672 0.0
H2355 H 0.49065 0.36542 0.61728 0.0
C2356 C 0.57351 0.36495 0.68235 0.0
C2357 C 0.59222 0.35045 0.67744 0.0
C2358 C 0.55998 0.37437 0.66599 0.0
C2359 C 0.56506 0.36947 0.64453 0.0
C2360 C 0.5853 0.35702 0.63982 0.0
C2361 C 0.5987 0.34764 0.65608 0.0
C2362 C 0.53968 0.37809 0.58952 0.0
C2363 C 0.51631 0.37271 0.59306 0.0
C2364 C 0.55527 0.37889 0.60648 0.0
C2365 C 0.54792 0.37395 0.62733 0.0
C2366 C 0.52423 0.36995 0.63097 0.0
C2367 C 0.50859 0.36947 0.61403 0.0
H2368 H 0.21888 0.19289 0.28734 0.0
H2369 H 0.18334 0.23581 0.2418 0.0
H2370 H 0.25493 0.21361 0.28023 0.0
H2371 H 0.21947 0.25628 0.23412 0.0
H2372 H 0.28115 0.30449 0.24348 0.0
H2373 H 0.24546 0.28362 0.25243 0.0
H2374 H 0.28336 0.21918 0.25237 0.0
H2375 H 0.31879 0.24013 0.24404 0.0
C2376 C 0.21902 0.2065 0.2755 0.0
C2377 C 0.19861 0.21282 0.26502 0.0
C2378 C 0.23954 0.21837 0.27143 0.0
C2379 C 0.23995 0.23675 0.25678 0.0
C2380 C 0.21958 0.24249 0.24578 0.0
C2381 C 0.19905 0.2306 0.24988 0.0
C2382 C 0.28175 0.28595 0.24587 0.0
C2383 C 0.30248 0.27381 0.2432 0.0
C2384 C 0.26139 0.27397 0.25068 0.0
C2385 C 0.26161 0.24973 0.25289 0.0
C2386 C 0.28265 0.23783 0.25092 0.0
C2387 C 0.30288 0.24978 0.24612 0.0
H2388 H 0.05118 0.96473 0.5318 0.0
H2389 H 0.00469 0.93249 0.48717 0.0
H2390 H 0.0324 0.00211 0.52568 0.0
H2391 H 0.98585 0.96983 0.48083 0.0
H2392 H 0.94036 0.0325 0.49599 0.0
H2393 H 0.96074 0.99599 0.50281 0.0
H2394 H 0.02624 0.03153 0.49743 0.0
H2395 H 0.00581 0.06781 0.49087 0.0
C2396 C 0.03732 0.96592 0.52025 0.0
C2397 C 0.02941 0.94609 0.50972 0.0
C2398 C 0.0265 0.98716 0.51684 0.0
C2399 C 0.00748 0.98876 0.503 0.0
C2400 C 0.00022 0.96898 0.49185 0.0
C2401 C 0.01115 0.94777 0.49518 0.0
C2402 C 0.95908 0.03242 0.49674 0.0
C2403 C 0.97164 0.05272 0.49304 0.0
C2404 C 0.97073 0.01161 0.50033 0.0
C2405 C 0.99507 0.01094 0.50039 0.0
C2406 C 0.0075 0.03155 0.49755 0.0
C2407 C 0.99587 0.05225 0.49383 0.0
H2408 H 0.18641 0.73193 0.76479 0.0
H2409 H 0.21525 0.69644 0.71067 0.0
H2410 H 0.22366 0.75093 0.77114 0.0
H2411 H 0.25254 0.71546 0.71679 0.0
H2412 H 0.32061 0.73813 0.75085 0.0
H2413 H 0.28459 0.71755 0.74326 0.0
H2414 H 0.24645 0.78119 0.7515 0.0
H2415 H 0.28269 0.80164 0.75924 0.0
C2416 C 0.20096 0.72786 0.7546 0.0
C2417 C 0.19828 0.71277 0.73736 0.0
C2418 C 0.22208 0.73894 0.75798 0.0
C2419 C 0.24082 0.73493 0.74422 0.0
C2420 C 0.23838 0.71885 0.72763 0.0
C2421 C 0.2172 0.7079 0.72418 0.0
C2422 C 0.30451 0.74771 0.75052 0.0
C2423 C 0.30418 0.77136 0.75542 0.0
C2424 C 0.28397 0.73599 0.74627 0.0
C2425 C 0.26275 0.74773 0.74706 0.0
C2426 C 0.26258 0.77167 0.75113 0.0
C2427 C 0.28321 0.78343 0.75524 0.0
H2428 H 0.48668 0.92626 0.99309 0.0
H2429 H 0.55238 0.96155 0.99318 0.0
H2430 H 0.46681 0.96274 0.99986 0.0
H2431 H 0.53257 -0.0017 1.00034 0.0
H2432 H 0.48743 0.06162 0.98679 0.0
H2433 H 0.50601 0.02425 0.9799 0.0
H2434 H 0.46254 0.99248 0.02761 0.0
H2435 H 0.44395 0.02981 0.03417 0.0
C2436 C 0.49683 0.94189 0.99497 0.0
C2437 C 0.52094 0.94133 0.99272 0.0
C2438 C 0.48551 0.96271 0.99883 0.0
C2439 C 0.49813 0.98336 1.00041 0.0
C2440 C 0.52241 0.98265 0.99885 0.0
C2441 C 0.53376 0.96171 0.99507 0.0
C2442 C 0.48158 0.04643 0.99534 0.0
C2443 C 0.46427 0.04824 0.01081 0.0
C2444 C 0.49238 0.02522 0.99168 0.0
C2445 C 0.48591 0.00557 0.00344 0.0
C2446 C 0.46781 0.00731 0.01827 0.0
C2447 C 0.45711 0.02853 0.02196 0.0
H2448 H 0.32114 0.75564 0.25118 0.0
H2449 H 0.28185 0.6938 0.26394 0.0
H2450 H 0.28548 0.77667 0.2434 0.0
H2451 H 0.24593 0.71472 0.256 0.0
H2452 H 0.1874 0.76617 0.26718 0.0
H2453 H 0.22437 0.74693 0.27425 0.0
H2454 H 0.25301 0.77766 0.21738 0.0
H2455 H 0.21604 0.79692 0.21055 0.0
C2456 C 0.30479 0.7465 0.25179 0.0
C2457 C 0.30398 0.7232 0.25792 0.0
C2458 C 0.28446 0.75848 0.24743 0.0
C2459 C 0.26298 0.74738 0.24935 0.0
C2460 C 0.26229 0.72376 0.25474 0.0
C2461 C 0.28271 0.71172 0.25897 0.0
C2462 C 0.20187 0.76919 0.25659 0.0
C2463 C 0.19921 0.78296 0.23845 0.0
C2464 C 0.22282 0.75797 0.2604 0.0
C2465 C 0.24136 0.76052 0.24614 0.0
C2466 C 0.23899 0.77541 0.22861 0.0
C2467 C 0.21799 0.7865 0.22476 0.0
H2468 H 0.54681 0.03312 0.53836 0.0
H2469 H 0.50976 0.06182 0.48506 0.0
H2470 H 0.52793 0.99576 0.53262 0.0
H2471 H 0.49096 0.0244 0.47898 0.0
H2472 H 0.44149 0.96434 0.49127 0.0
H2473 H 0.46149 0.00099 0.49841 0.0
H2474 H 0.52569 0.96383 0.50685 0.0
H2475 H 0.50556 0.92746 0.50005 0.0
C2476 C 0.53506 0.0311 0.52507 0.0
C2477 C 0.52972 0.04999 0.51201 0.0
C2478 C 0.52418 0.00987 0.52184 0.0
C2479 C 0.50774 0.00731 0.50555 0.0
C2480 C 0.50323 0.02605 0.49191 0.0
C2481 C 0.5142 0.04727 0.49512 0.0
C2482 C 0.45973 0.96415 0.49519 0.0
C2483 C 0.47208 0.94335 0.49532 0.0
C2484 C 0.47123 0.98501 0.49895 0.0
C2485 C 0.49519 0.98522 0.50292 0.0
C2486 C 0.50723 0.96419 0.50394 0.0
C2487 C 0.49576 0.94343 0.50011 0.0
H2488 H 0.21348 0.29743 0.78912 0.0
H2489 H 0.18474 0.26124 0.73532 0.0
H2490 H 0.25067 0.27832 0.7834 0.0
H2491 H 0.22207 0.24224 0.72923 0.0
H2492 H 0.2824 0.19275 0.74068 0.0
H2493 H 0.24565 0.2125 0.74789 0.0
H2494 H 0.28265 0.27653 0.75799 0.0
H2495 H 0.31912 0.25664 0.75114 0.0
C2496 C 0.21542 0.28574 0.77577 0.0
C2497 C 0.19655 0.28074 0.76257 0.0
C2498 C 0.23658 0.27476 0.77253 0.0
C2499 C 0.23916 0.25856 0.75604 0.0
C2500 C 0.22043 0.25431 0.74231 0.0
C2501 C 0.19925 0.26539 0.74554 0.0
C2502 C 0.28253 0.2109 0.74497 0.0
C2503 C 0.30333 0.22327 0.74556 0.0
C2504 C 0.2616 0.22227 0.74876 0.0
C2505 C 0.26131 0.24612 0.75325 0.0
C2506 C 0.28234 0.25815 0.7547 0.0
C2507 C 0.30316 0.24681 0.75084 0.0
H2508 H 0.94901 0.96745 0.03667 0.0
H2509 H 0.98445 0.93327 0.98521 0.0
H2510 H 0.97048 0.00306 0.02932 0.0
H2511 H 0.00586 0.9689 0.97756 0.0
H2512 H 0.05936 0.02625 0.98813 0.0
H2513 H 0.03671 0.9914 0.99629 0.0
H2514 H 0.97504 0.03321 0.00174 0.0
H2515 H 0.99778 0.06777 0.99381 0.0
C2516 C 0.96105 0.96786 0.02347 0.0
C2517 C 0.96515 0.94793 0.01139 0.0
C2518 C 0.97337 0.9881 0.01931 0.0
C2519 C 0.99005 0.98861 0.00306 0.0
C2520 C 0.9934 0.96883 0.99043 0.0
C2521 C 0.98098 0.94863 0.99455 0.0
C2522 C 0.04106 0.02784 0.99152 0.0
C2523 C 0.03019 0.04942 0.99061 0.0
C2524 C 0.02807 0.00801 0.99589 0.0
C2525 C 0.00408 0.00963 0.99944 0.0
C2526 C 0.99348 0.03146 0.99921 0.0
C2527 C 0.00644 0.05118 0.99474 0.0
H2528 H 0.78385 0.79343 0.71418 0.0
H2529 H 0.81316 0.76116 0.76978 0.0
H2530 H 0.747 0.77388 0.72083 0.0
H2531 H 0.77628 0.74154 0.77665 0.0
H2532 H 0.71757 0.6894 0.76597 0.0
H2533 H 0.75377 0.71003 0.75825 0.0
H2534 H 0.71501 0.7728 0.74724 0.0
H2535 H 0.6791 0.75207 0.75482 0.0
C2536 C 0.78208 0.78256 0.72812 0.0
C2537 C 0.80098 0.77882 0.74163 0.0
C2538 C 0.76115 0.7713 0.73187 0.0
C2539 C 0.75892 0.75599 0.7491 0.0
C2540 C 0.77768 0.75297 0.76306 0.0
C2541 C 0.79858 0.76439 0.75937 0.0
C2542 C 0.71695 0.70745 0.7614 0.0
C2543 C 0.69584 0.71923 0.76067 0.0
C2544 C 0.73754 0.71932 0.75729 0.0
C2545 C 0.73715 0.74306 0.75236 0.0
C2546 C 0.71581 0.75451 0.75087 0.0
C2547 C 0.69532 0.74269 0.75511 0.0
H2548 H 0.82055 0.23702 0.25403 0.0
H2549 H 0.78429 0.30176 0.26062 0.0
H2550 H 0.78404 0.21726 0.24645 0.0
H2551 H 0.74759 0.28209 0.25299 0.0
H2552 H 0.68619 0.23436 0.26667 0.0
H2553 H 0.72388 0.25245 0.27319 0.0
H2554 H 0.75223 0.2161 0.2191 0.0
H2555 H 0.71447 0.1981 0.21273 0.0
C2556 C 0.80472 0.24702 0.25336 0.0
C2557 C 0.80498 0.27081 0.25768 0.0
C2558 C 0.78391 0.23577 0.2491 0.0
C2559 C 0.76303 0.24812 0.24938 0.0
C2560 C 0.76345 0.27214 0.25299 0.0
C2561 C 0.78435 0.28343 0.25706 0.0
C2562 C 0.70071 0.22993 0.25657 0.0
C2563 C 0.69777 0.21486 0.23935 0.0
C2564 C 0.72208 0.24046 0.26006 0.0
C2565 C 0.74081 0.2359 0.24644 0.0
C2566 C 0.73807 0.21988 0.22983 0.0
C2567 C 0.71662 0.20951 0.22625 0.0
H2568 H 0.8126 0.23533 0.73907 0.0
H2569 H 0.77972 0.19644 0.78913 0.0
H2570 H 0.77601 0.25512 0.73163 0.0
H2571 H 0.74319 0.21636 0.7821 0.0
H2572 H 0.67747 0.24102 0.74712 0.0
H2573 H 0.71313 0.22017 0.75495 0.0
H2574 H 0.75156 0.28411 0.75025 0.0
H2575 H 0.7156 0.30486 0.74199 0.0
C2576 C 0.79734 0.23076 0.74814 0.0
C2577 C 0.79867 0.21441 0.76454 0.0
C2578 C 0.77658 0.24228 0.74417 0.0
C2579 C 0.75687 0.23752 0.75651 0.0
C2580 C 0.75807 0.22034 0.7723 0.0
C2581 C 0.77885 0.20889 0.77628 0.0
C2582 C 0.69355 0.25059 0.74815 0.0
C2583 C 0.69402 0.27443 0.74411 0.0
C2584 C 0.71391 0.23871 0.7526 0.0
C2585 C 0.73514 0.25048 0.75301 0.0
C2586 C 0.73545 0.27456 0.74969 0.0
C2587 C 0.71497 0.28648 0.74529 0.0
H2588 H 0.68757 0.76345 0.23452 0.0
H2589 H 0.71358 0.79765 0.29054 0.0
H2590 H 0.72541 0.74532 0.22896 0.0
H2591 H 0.75136 0.77946 0.28528 0.0
H2592 H 0.82121 0.75862 0.25403 0.0
H2593 H 0.7846 0.77851 0.2605 0.0
H2594 H 0.74769 0.71484 0.24838 0.0
H2595 H 0.78453 0.69511 0.24167 0.0
C2596 C 0.70164 0.76745 0.24529 0.0
C2597 C 0.69802 0.78192 0.26282 0.0
C2598 C 0.72308 0.75686 0.24236 0.0
C2599 C 0.74115 0.76071 0.25691 0.0
C2600 C 0.73776 0.77622 0.27382 0.0
C2601 C 0.71629 0.78671 0.27677 0.0
C2602 C 0.80523 0.74887 0.25326 0.0
C2603 C 0.80542 0.72544 0.24753 0.0
C2604 C 0.78434 0.7602 0.25687 0.0
C2605 C 0.76334 0.74828 0.25465 0.0
C2606 C 0.76366 0.72452 0.24982 0.0
C2607 C 0.78462 0.71315 0.24631 0.0
H2608 H 0.48572 0.56206 0.01285 0.0
H2609 H 0.44369 0.5296 0.96473 0.0
H2610 H 0.50575 0.52533 0.01912 0.0
H2611 H 0.46371 0.49285 0.97076 0.0
H2612 H 0.48906 0.4274 0.00712 0.0
H2613 H 0.46838 0.46316 0.99908 0.0
H2614 H 0.53326 0.50029 0.99832 0.0
H2615 H 0.55388 0.46425 0.00658 0.0
C2616 C 0.48055 0.54686 0.00395 0.0
C2617 C 0.46318 0.54831 0.9885 0.0
C2618 C 0.49218 0.52603 0.00726 0.0
C2619 C 0.48647 0.50638 0.9952 0.0
C2620 C 0.46842 0.50772 0.98029 0.0
C2621 C 0.45691 0.5286 0.97691 0.0
C2622 C 0.49884 0.44318 0.00479 0.0
C2623 C 0.52293 0.44332 0.00731 0.0
C2624 C 0.48707 0.46359 1.00022 0.0
C2625 C 0.49922 0.48449 0.9983 0.0
C2626 C 0.52349 0.48442 1.00003 0.0
C2627 C 0.5353 0.46389 0.00446 0.0
H2628 H 0.9866 0.56269 0.49034 0.0
H2629 H 0.94345 0.52763 0.53601 0.0
H2630 H 0.00688 0.52637 0.48284 0.0
H2631 H 0.9637 0.49128 0.52875 0.0
H2632 H 0.98995 0.42771 0.49062 0.0
H2633 H 0.96905 0.46319 0.49919 0.0
H2634 H 0.03391 0.50012 0.50306 0.0
H2635 H 0.05478 0.46436 0.49427 0.0
C2636 C 0.98126 0.54704 0.49844 0.0
C2637 C 0.9635 0.54763 0.51356 0.0
C2638 C 0.99301 0.52642 0.49442 0.0
C2639 C 0.98702 0.50612 0.50542 0.0
C2640 C 0.96862 0.50666 0.52002 0.0
C2641 C 0.957 0.52732 0.52411 0.0
C2642 C -0.00033 0.4434 0.49366 0.0
C2643 C 0.02384 0.44355 0.4919 0.0
C2644 C 0.98777 0.46363 0.49855 0.0
C2645 C -0.00014 0.48441 0.50161 0.0
C2646 C 0.02418 0.48436 0.50049 0.0
C2647 C 0.03611 0.46399 0.49574 0.0
H2648 H 0.05278 0.53393 0.01236 0.0
H2649 H 0.98691 0.56756 0.00372 0.0
H2650 H 0.03446 0.49623 0.00603 0.0
H2651 H 0.96849 0.53015 0.99764 0.0
H2652 H 0.95082 0.45988 0.96627 0.0
H2653 H 0.96806 0.49803 0.97179 0.0
H2654 H 0.00592 0.47151 0.02581 0.0
H2655 H 0.98866 0.43324 0.02001 0.0
C2656 C 0.0345 0.53318 0.00866 0.0
C2657 C 0.02118 0.55339 0.0083 0.0
C2658 C 0.02396 0.51172 0.00537 0.0
C2659 C 1e-05 0.5103 1.00158 0.0
C2660 C 0.98697 0.53073 1.00042 0.0
C2661 C 0.99747 0.55208 0.00383 0.0
C2662 C 0.96242 0.46249 0.97959 0.0
C2663 C 0.9684 0.44398 0.99286 0.0
C2664 C 0.97236 0.48419 0.9827 0.0
C2665 C 0.98854 0.48762 0.99906 0.0
C2666 C 0.99379 0.4692 0.01286 0.0
C2667 C 0.98372 0.4475 0.00979 0.0
H2668 H 0.44005 0.46494 0.51237 0.0
H2669 H 0.50459 0.42766 0.51078 0.0
H2670 H 0.46088 0.50122 0.50555 0.0
H2671 H 0.52548 0.46367 0.50422 0.0
H2672 H 0.54873 0.53107 0.46979 0.0
H2673 H 0.5296 0.49399 0.47645 0.0
H2674 H 0.48901 0.52569 0.52626 0.0
H2675 H 0.50821 0.56275 0.51938 0.0
C2676 C 0.45862 0.46457 0.51019 0.0
C2677 C 0.47084 0.44377 0.51194 0.0
C2678 C 0.47056 0.48522 0.50659 0.0
C2679 C 0.49481 0.48521 0.50459 0.0
C2680 C 0.50682 0.46416 0.5056 0.0
C2681 C 0.49491 0.44363 0.50932 0.0
C2682 C 0.53618 0.52979 0.48253 0.0
C2683 C 0.53001 0.54938 0.49432 0.0
C2684 C 0.52514 0.50873 0.48625 0.0
C2685 C 0.50763 0.5071 0.50168 0.0
C2686 C 0.50218 0.5266 0.51404 0.0
C2687 C 0.51336 0.54762 0.51039 0.0
loop_
_geom_bond_atom_site_label_1
_geom_bond_atom_site_label_2
_geom_bond_distance
_geom_bond_site_symmetry_2
_ccdc_geom_bond_type
Co0 O3 1.970 . S
Co0 N17 1.989 . S
Co0 O25 1.967 . S
Co0 O32 1.920 . S
Co1 O4 1.966 . S
Co1 N10 2.022 . S
Co1 N18 1.993 . S
Co1 O26 1.941 . S
C2 O3 1.258 . S
C2 O4 1.263 . S
O3 Co0 1.970 . S
O3 C2 1.258 . S
O4 Co1 1.966 . S
O4 C2 1.263 . S
C5 O6 1.235 . S
C5 O32 1.289 . S
O6 C5 1.235 . S
C7 C9 1.400 . S
C7 N10 1.351 . S
C7 C12 1.501 . S
C8 C9 1.387 . S
C8 N11 1.341 . S
C9 C7 1.400 . S
C9 C8 1.387 . S
N10 Co1 2.022 . S
N10 C7 1.351 . S
N10 N11 1.365 . S
N11 C8 1.341 . S
N11 N10 1.365 . S
N11 H31 0.862 . S
C12 C7 1.501 . S
C12 H13 0.961 . S
C12 H14 0.961 . S
C12 H15 0.960 . S
H13 C12 0.961 . S
H14 C12 0.961 . S
H15 C12 0.960 . S
C16 N17 1.342 . S
C16 C20 1.401 . S
C16 C21 1.499 . S
N17 Co0 1.989 . S
N17 C16 1.342 . S
N17 N18 1.388 . S
N18 Co1 1.993 . S
N18 N17 1.388 . S
N18 C19 1.346 . S
C19 N18 1.346 . S
C19 C20 1.396 . S
C19 C29 1.510 . S
C20 C16 1.401 . S
C20 C19 1.396 . S
C21 C16 1.499 . S
C21 H22 0.959 . S
C21 H23 0.960 . S
C21 H24 0.961 . S
H22 C21 0.959 . S
H23 C21 0.960 . S
H24 C21 0.961 . S
O25 Co0 1.967 . S
O25 C33 1.258 . S
O26 Co1 1.941 . S
O26 C33 1.266 . S
H27 C29 0.959 . S
H28 C29 0.961 . S
C29 C19 1.510 . S
C29 H27 0.959 . S
C29 H28 0.961 . S
C29 H30 0.960 . S
H30 C29 0.960 . S
H31 N11 0.862 . S
O32 Co0 1.920 . S
O32 C5 1.289 . S
C33 O25 1.258 . S
C33 O26 1.266 . S
Co34 O37 1.970 . S
Co34 N51 1.989 . S
Co34 O59 1.967 . S
Co34 O66 1.920 . S
Co35 O38 1.966 . S
Co35 N44 2.022 . S
Co35 N52 1.993 . S
Co35 O60 1.941 . S
C36 O37 1.258 . S
C36 O38 1.263 . S
O37 Co34 1.970 . S
O37 C36 1.258 . S
O38 Co35 1.966 . S
O38 C36 1.263 . S
C39 O40 1.235 . S
C39 O66 1.289 1_655 S
O40 C39 1.235 . S
C41 C43 1.400 . S
C41 N44 1.351 . S
C41 C46 1.501 . S
C42 C43 1.387 . S
C42 N45 1.341 . S
C43 C41 1.400 . S
C43 C42 1.387 . S
N44 Co35 2.022 . S
N44 C41 1.351 . S
N44 N45 1.365 . S
N45 C42 1.341 . S
N45 N44 1.365 . S
N45 H65 0.862 . S
C46 C41 1.501 . S
C46 H47 0.961 . S
C46 H48 0.961 . S
C46 H49 0.960 . S
H47 C46 0.961 . S
H48 C46 0.961 . S
H49 C46 0.960 . S
C50 N51 1.342 . S
C50 C54 1.401 . S
C50 C55 1.499 . S
N51 Co34 1.989 . S
N51 C50 1.342 . S
N51 N52 1.388 . S
N52 Co35 1.993 . S
N52 N51 1.388 . S
N52 C53 1.346 . S
C53 N52 1.346 . S
C53 C54 1.396 . S
C53 C63 1.510 . S
C54 C50 1.401 . S
C54 C53 1.396 . S
C55 C50 1.499 . S
C55 H56 0.959 . S
C55 H57 0.960 . S
C55 H58 0.961 . S
H56 C55 0.959 . S
H57 C55 0.960 . S
H58 C55 0.961 . S
O59 Co34 1.967 . S
O59 C67 1.258 . S
O60 Co35 1.941 . S
O60 C67 1.266 . S
H61 C63 0.959 . S
H62 C63 0.961 . S
C63 C53 1.510 . S
C63 H61 0.959 . S
C63 H62 0.961 . S
C63 H64 0.960 . S
H64 C63 0.960 . S
H65 N45 0.862 . S
O66 Co34 1.920 . S
O66 C39 1.289 1_455 S
C67 O59 1.258 . S
C67 O60 1.266 . S
Co68 O71 1.970 . S
Co68 N85 1.989 . S
Co68 O93 1.967 . S
Co68 O100 1.920 . S
Co69 O72 1.966 . S
Co69 N78 2.022 . S
Co69 N86 1.993 . S
Co69 O94 1.941 . S
C70 O71 1.258 . S
C70 O72 1.263 . S
O71 Co68 1.970 . S
O71 C70 1.258 . S
O72 Co69 1.966 . S
O72 C70 1.263 . S
C73 O74 1.235 . S
C73 O100 1.289 . S
O74 C73 1.235 . S
C75 C77 1.400 . S
C75 N78 1.351 . S
C75 C80 1.501 . S
C76 C77 1.387 . S
C76 N79 1.341 . S
C77 C75 1.400 . S
C77 C76 1.387 . S
N78 Co69 2.022 . S
N78 C75 1.351 . S
N78 N79 1.365 . S
N79 C76 1.341 . S
N79 N78 1.365 . S
N79 H99 0.862 . S
C80 C75 1.501 . S
C80 H81 0.961 . S
C80 H82 0.961 . S
C80 H83 0.960 . S
H81 C80 0.961 . S
H82 C80 0.961 . S
H83 C80 0.960 . S
C84 N85 1.342 . S
C84 C88 1.401 . S
C84 C89 1.499 . S
N85 Co68 1.989 . S
N85 C84 1.342 . S
N85 N86 1.388 . S
N86 Co69 1.993 . S
N86 N85 1.388 . S
N86 C87 1.346 . S
C87 N86 1.346 . S
C87 C88 1.396 . S
C87 C97 1.510 . S
C88 C84 1.401 . S
C88 C87 1.396 . S
C89 C84 1.499 . S
C89 H90 0.959 . S
C89 H91 0.960 . S
C89 H92 0.961 . S
H90 C89 0.959 . S
H91 C89 0.960 . S
H92 C89 0.961 . S
O93 Co68 1.967 . S
O93 C101 1.258 . S
O94 Co69 1.941 . S
O94 C101 1.266 . S
H95 C97 0.959 . S
H96 C97 0.961 . S
C97 C87 1.510 . S
C97 H95 0.959 . S
C97 H96 0.961 . S
C97 H98 0.960 . S
H98 C97 0.960 . S
H99 N79 0.862 . S
O100 Co68 1.920 . S
O100 C73 1.289 . S
C101 O93 1.258 . S
C101 O94 1.266 . S
Co102 O105 1.970 . S
Co102 N119 1.989 . S
Co102 O127 1.967 . S
Co102 O134 1.920 . S
Co103 O106 1.966 . S
Co103 N112 2.022 1_554 S
Co103 N120 1.993 . S
Co103 O128 1.941 . S
C104 O105 1.258 . S
C104 O106 1.263 . S
O105 Co102 1.970 . S
O105 C104 1.258 . S
O106 Co103 1.966 . S
O106 C104 1.263 . S
C107 O108 1.235 . S
C107 O134 1.289 . S
O108 C107 1.235 . S
C109 C111 1.400 . S
C109 N112 1.351 . S
C109 C114 1.501 . S
C110 C111 1.387 . S
C110 N113 1.341 . S
C111 C109 1.400 . S
C111 C110 1.387 . S
N112 Co103 2.022 1_556 S
N112 C109 1.351 . S
N112 N113 1.365 . S
N113 C110 1.341 . S
N113 N112 1.365 . S
N113 H133 0.862 . S
C114 C109 1.501 . S
C114 H115 0.961 . S
C114 H116 0.961 . S
C114 H117 0.960 . S
H115 C114 0.961 . S
H116 C114 0.961 . S
H117 C114 0.960 . S
C118 N119 1.342 . S
C118 C122 1.401 . S
C118 C123 1.499 . S
N119 Co102 1.989 . S
N119 C118 1.342 . S
N119 N120 1.388 . S
N120 Co103 1.993 . S
N120 N119 1.388 . S
N120 C121 1.346 . S
C121 N120 1.346 . S
C121 C122 1.396 . S
C121 C131 1.510 1_554 S
C122 C118 1.401 . S
C122 C121 1.396 . S
C123 C118 1.499 . S
C123 H124 0.959 . S
C123 H125 0.960 . S
C123 H126 0.961 . S
H124 C123 0.959 . S
H125 C123 0.960 . S
H126 C123 0.961 . S
O127 Co102 1.967 . S
O127 C135 1.258 . S
O128 Co103 1.941 . S
O128 C135 1.266 . S
H129 C131 0.959 . S
H130 C131 0.961 . S
C131 C121 1.510 1_556 S
C131 H129 0.959 . S
C131 H130 0.961 . S
C131 H132 0.960 . S
H132 C131 0.960 . S
H133 N113 0.862 . S
O134 Co102 1.920 . S
O134 C107 1.289 . S
C135 O127 1.258 . S
C135 O128 1.266 . S
Co136 O139 1.970 . S
Co136 N153 1.989 . S
Co136 O161 1.967 . S
Co136 O168 1.920 . S
Co137 O140 1.966 . S
Co137 N146 2.022 . S
Co137 N154 1.993 . S
Co137 O162 1.941 . S
C138 O139 1.258 . S
C138 O140 1.263 . S
O139 Co136 1.970 . S
O139 C138 1.258 . S
O140 Co137 1.966 . S
O140 C138 1.263 . S
C141 O142 1.235 . S
C141 O168 1.289 . S
O142 C141 1.235 . S
C143 C145 1.400 . S
C143 N146 1.351 . S
C143 C148 1.501 . S
C144 C145 1.387 . S
C144 N147 1.341 . S
C145 C143 1.400 . S
C145 C144 1.387 . S
N146 Co137 2.022 . S
N146 C143 1.351 . S
N146 N147 1.365 . S
N147 C144 1.341 . S
N147 N146 1.365 . S
N147 H167 0.862 . S
C148 C143 1.501 . S
C148 H149 0.961 . S
C148 H150 0.961 . S
C148 H151 0.960 . S
H149 C148 0.961 . S
H150 C148 0.961 . S
H151 C148 0.960 . S
C152 N153 1.342 . S
C152 C156 1.401 . S
C152 C157 1.499 . S
N153 Co136 1.989 . S
N153 C152 1.342 . S
N153 N154 1.388 . S
N154 Co137 1.993 . S
N154 N153 1.388 . S
N154 C155 1.346 . S
C155 N154 1.346 . S
C155 C156 1.396 . S
C155 C165 1.510 . S
C156 C152 1.401 . S
C156 C155 1.396 . S
C157 C152 1.499 . S
C157 H158 0.959 . S
C157 H159 0.960 . S
C157 H160 0.961 . S
H158 C157 0.959 . S
H159 C157 0.960 . S
H160 C157 0.961 . S
O161 Co136 1.967 . S
O161 C169 1.258 . S
O162 Co137 1.941 . S
O162 C169 1.266 . S
H163 C165 0.959 . S
H164 C165 0.961 . S
C165 C155 1.510 . S
C165 H163 0.959 . S
C165 H164 0.961 . S
C165 H166 0.960 . S
H166 C165 0.960 . S
H167 N147 0.862 . S
O168 Co136 1.920 . S
O168 C141 1.289 . S
C169 O161 1.258 . S
C169 O162 1.266 . S
Co170 O173 1.970 . S
Co170 N187 1.989 . S
Co170 O195 1.967 . S
Co170 O202 1.920 . S
Co171 O174 1.966 . S
Co171 N180 2.022 . S
Co171 N188 1.993 . S
Co171 O196 1.941 . S
C172 O173 1.258 . S
C172 O174 1.263 . S
O173 Co170 1.970 . S
O173 C172 1.258 . S
O174 Co171 1.966 . S
O174 C172 1.263 . S
C175 O176 1.235 . S
C175 O202 1.289 . S
O176 C175 1.235 . S
C177 C179 1.400 . S
C177 N180 1.351 . S
C177 C182 1.501 . S
C178 C179 1.387 . S
C178 N181 1.341 . S
C179 C177 1.400 . S
C179 C178 1.387 . S
N180 Co171 2.022 . S
N180 C177 1.351 . S
N180 N181 1.365 . S
N181 C178 1.341 . S
N181 N180 1.365 . S
N181 H201 0.862 . S
C182 C177 1.501 . S
C182 H183 0.961 . S
C182 H184 0.961 . S
C182 H185 0.960 . S
H183 C182 0.961 . S
H184 C182 0.961 . S
H185 C182 0.960 . S
C186 N187 1.342 . S
C186 C190 1.401 . S
C186 C191 1.499 . S
N187 Co170 1.989 . S
N187 C186 1.342 . S
N187 N188 1.388 . S
N188 Co171 1.993 . S
N188 N187 1.388 . S
N188 C189 1.346 . S
C189 N188 1.346 . S
C189 C190 1.396 . S
C189 C199 1.510 . S
C190 C186 1.401 . S
C190 C189 1.396 . S
C191 C186 1.499 . S
C191 H192 0.959 . S
C191 H193 0.960 . S
C191 H194 0.961 . S
H192 C191 0.959 . S
H193 C191 0.960 . S
H194 C191 0.961 . S
O195 Co170 1.967 . S
O195 C203 1.258 . S
O196 Co171 1.941 . S
O196 C203 1.266 . S
H197 C199 0.959 . S
H198 C199 0.961 . S
C199 C189 1.510 . S
C199 H197 0.959 . S
C199 H198 0.961 . S
C199 H200 0.960 . S
H200 C199 0.960 . S
H201 N181 0.862 . S
O202 Co170 1.920 . S
O202 C175 1.289 . S
C203 O195 1.258 . S
C203 O196 1.266 . S
Co204 O207 1.970 . S
Co204 N221 1.989 . S
Co204 O229 1.967 . S
Co204 O236 1.920 . S
Co205 O208 1.966 . S
Co205 N214 2.022 . S
Co205 N222 1.993 . S
Co205 O230 1.941 . S
C206 O207 1.258 . S
C206 O208 1.263 . S
O207 Co204 1.970 . S
O207 C206 1.258 . S
O208 Co205 1.966 . S
O208 C206 1.263 . S
C209 O210 1.235 . S
C209 O236 1.289 . S
O210 C209 1.235 . S
C211 C213 1.400 . S
C211 N214 1.351 . S
C211 C216 1.501 . S
C212 C213 1.387 . S
C212 N215 1.341 . S
C213 C211 1.400 . S
C213 C212 1.387 . S
N214 Co205 2.022 . S
N214 C211 1.351 . S
N214 N215 1.365 . S
N215 C212 1.341 . S
N215 N214 1.365 . S
N215 H235 0.862 . S
C216 C211 1.501 . S
C216 H217 0.961 . S
C216 H218 0.961 . S
C216 H219 0.960 . S
H217 C216 0.961 . S
H218 C216 0.961 . S
H219 C216 0.960 . S
C220 N221 1.342 . S
C220 C224 1.401 . S
C220 C225 1.499 . S
N221 Co204 1.989 . S
N221 C220 1.342 . S
N221 N222 1.388 . S
N222 Co205 1.993 . S
N222 N221 1.388 . S
N222 C223 1.346 . S
C223 N222 1.346 . S
C223 C224 1.396 . S
C223 C233 1.510 . S
C224 C220 1.401 . S
C224 C223 1.396 . S
C225 C220 1.499 . S
C225 H226 0.959 . S
C225 H227 0.960 . S
C225 H228 0.961 . S
H226 C225 0.959 . S
H227 C225 0.960 . S
H228 C225 0.961 . S
O229 Co204 1.967 . S
O229 C237 1.258 . S
O230 Co205 1.941 . S
O230 C237 1.266 . S
H231 C233 0.959 . S
H232 C233 0.961 . S
C233 C223 1.510 . S
C233 H231 0.959 . S
C233 H232 0.961 . S
C233 H234 0.960 . S
H234 C233 0.960 . S
H235 N215 0.862 . S
O236 Co204 1.920 . S
O236 C209 1.289 . S
C237 O229 1.258 . S
C237 O230 1.266 . S
Co238 O241 1.970 . S
Co238 N255 1.989 . S
Co238 O263 1.967 . S
Co238 O270 1.920 . S
Co239 O242 1.966 . S
Co239 N248 2.022 1_556 S
Co239 N256 1.993 . S
Co239 O264 1.941 . S
C240 O241 1.258 . S
C240 O242 1.263 . S
O241 Co238 1.970 . S
O241 C240 1.258 . S
O242 Co239 1.966 . S
O242 C240 1.263 . S
C243 O244 1.235 . S
C243 O270 1.289 1_655 S
O244 C243 1.235 . S
C245 C247 1.400 . S
C245 N248 1.351 . S
C245 C250 1.501 . S
C246 C247 1.387 . S
C246 N249 1.341 . S
C247 C245 1.400 . S
C247 C246 1.387 . S
N248 Co239 2.022 1_554 S
N248 C245 1.351 . S
N248 N249 1.365 . S
N249 C246 1.341 . S
N249 N248 1.365 . S
N249 H269 0.862 . S
C250 C245 1.501 . S
C250 H251 0.961 . S
C250 H252 0.961 . S
C250 H253 0.960 . S
H251 C250 0.961 . S
H252 C250 0.961 . S
H253 C250 0.960 . S
C254 N255 1.342 . S
C254 C258 1.401 . S
C254 C259 1.499 . S
N255 Co238 1.989 . S
N255 C254 1.342 . S
N255 N256 1.388 . S
N256 Co239 1.993 . S
N256 N255 1.388 . S
N256 C257 1.346 . S
C257 N256 1.346 . S
C257 C258 1.396 . S
C257 C267 1.510 1_556 S
C258 C254 1.401 . S
C258 C257 1.396 . S
C259 C254 1.499 . S
C259 H260 0.959 . S
C259 H261 0.960 . S
C259 H262 0.961 . S
H260 C259 0.959 . S
H261 C259 0.960 . S
H262 C259 0.961 . S
O263 Co238 1.967 . S
O263 C271 1.258 . S
O264 Co239 1.941 . S
O264 C271 1.266 . S
H265 C267 0.959 . S
H266 C267 0.961 . S
C267 C257 1.510 1_554 S
C267 H265 0.959 . S
C267 H266 0.961 . S
C267 H268 0.960 . S
H268 C267 0.960 . S
H269 N249 0.862 . S
O270 Co238 1.920 . S
O270 C243 1.289 1_455 S
C271 O263 1.258 . S
C271 O264 1.266 . S
Co272 O275 1.970 . S
Co272 N289 1.989 . S
Co272 O297 1.967 . S
Co272 O304 1.920 . S
Co273 O276 1.966 . S
Co273 N282 2.022 . S
Co273 N290 1.993 . S
Co273 O298 1.941 . S
C274 O275 1.258 . S
C274 O276 1.263 . S
O275 Co272 1.970 . S
O275 C274 1.258 . S
O276 Co273 1.966 . S
O276 C274 1.263 . S
C277 O278 1.235 . S
C277 O304 1.289 . S
O278 C277 1.235 . S
C279 C281 1.400 . S
C279 N282 1.351 . S
C279 C284 1.501 . S
C280 C281 1.387 . S
C280 N283 1.341 . S
C281 C279 1.400 . S
C281 C280 1.387 . S
N282 Co273 2.022 . S
N282 C279 1.351 . S
N282 N283 1.365 . S
N283 C280 1.341 . S
N283 N282 1.365 . S
N283 H303 0.862 . S
C284 C279 1.501 . S
C284 H285 0.961 . S
C284 H286 0.961 . S
C284 H287 0.960 . S
H285 C284 0.961 . S
H286 C284 0.961 . S
H287 C284 0.960 . S
C288 N289 1.342 . S
C288 C292 1.401 . S
C288 C293 1.499 . S
N289 Co272 1.989 . S
N289 C288 1.342 . S
N289 N290 1.388 . S
N290 Co273 1.993 . S
N290 N289 1.388 . S
N290 C291 1.346 . S
C291 N290 1.346 . S
C291 C292 1.396 . S
C291 C301 1.510 . S
C292 C288 1.401 . S
C292 C291 1.396 . S
C293 C288 1.499 . S
C293 H294 0.959 . S
C293 H295 0.960 . S
C293 H296 0.961 . S
H294 C293 0.959 . S
H295 C293 0.960 . S
H296 C293 0.961 . S
O297 Co272 1.967 . S
O297 C305 1.258 . S
O298 Co273 1.941 . S
O298 C305 1.266 . S
H299 C301 0.959 . S
H300 C301 0.961 . S
C301 C291 1.510 . S
C301 H299 0.959 . S
C301 H300 0.961 . S
C301 H302 0.960 . S
H302 C301 0.960 . S
H303 N283 0.862 . S
O304 Co272 1.920 . S
O304 C277 1.289 . S
C305 O297 1.258 . S
C305 O298 1.266 . S
Co306 O309 1.970 . S
Co306 N323 1.989 . S
Co306 O331 1.967 . S
Co306 O338 1.920 . S
Co307 O310 1.966 . S
Co307 N316 2.022 . S
Co307 N324 1.993 . S
Co307 O332 1.941 . S
C308 O309 1.258 . S
C308 O310 1.263 . S
O309 Co306 1.970 . S
O309 C308 1.258 . S
O310 Co307 1.966 . S
O310 C308 1.263 . S
C311 O312 1.235 . S
C311 O338 1.289 1_455 S
O312 C311 1.235 . S
C313 C315 1.400 . S
C313 N316 1.351 . S
C313 C318 1.501 . S
C314 C315 1.387 . S
C314 N317 1.341 . S
C315 C313 1.400 . S
C315 C314 1.387 . S
N316 Co307 2.022 . S
N316 C313 1.351 . S
N316 N317 1.365 . S
N317 C314 1.341 . S
N317 N316 1.365 . S
N317 H337 0.862 . S
C318 C313 1.501 . S
C318 H319 0.961 . S
C318 H320 0.961 . S
C318 H321 0.960 . S
H319 C318 0.961 . S
H320 C318 0.961 . S
H321 C318 0.960 . S
C322 N323 1.342 . S
C322 C326 1.401 . S
C322 C327 1.499 . S
N323 Co306 1.989 . S
N323 C322 1.342 . S
N323 N324 1.388 . S
N324 Co307 1.993 . S
N324 N323 1.388 . S
N324 C325 1.346 . S
C325 N324 1.346 . S
C325 C326 1.396 . S
C325 C335 1.510 . S
C326 C322 1.401 . S
C326 C325 1.396 . S
C327 C322 1.499 . S
C327 H328 0.959 . S
C327 H329 0.960 . S
C327 H330 0.961 . S
H328 C327 0.959 . S
H329 C327 0.960 . S
H330 C327 0.961 . S
O331 Co306 1.967 . S
O331 C339 1.258 . S
O332 Co307 1.941 . S
O332 C339 1.266 . S
H333 C335 0.959 . S
H334 C335 0.961 . S
C335 C325 1.510 . S
C335 H333 0.959 . S
C335 H334 0.961 . S
C335 H336 0.960 . S
H336 C335 0.960 . S
H337 N317 0.862 . S
O338 Co306 1.920 . S
O338 C311 1.289 1_655 S
C339 O331 1.258 . S
C339 O332 1.266 . S
Co340 O343 1.970 . S
Co340 N357 1.989 . S
Co340 O365 1.967 . S
Co340 O372 1.920 . S
Co341 O344 1.966 . S
Co341 N350 2.022 . S
Co341 N358 1.993 . S
Co341 O366 1.941 . S
C342 O343 1.258 . S
C342 O344 1.263 . S
O343 Co340 1.970 . S
O343 C342 1.258 . S
O344 Co341 1.966 . S
O344 C342 1.263 . S
C345 O346 1.235 . S
C345 O372 1.289 . S
O346 C345 1.235 . S
C347 C349 1.400 . S
C347 N350 1.351 . S
C347 C352 1.501 . S
C348 C349 1.387 . S
C348 N351 1.341 . S
C349 C347 1.400 . S
C349 C348 1.387 . S
N350 Co341 2.022 . S
N350 C347 1.351 . S
N350 N351 1.365 . S
N351 C348 1.341 . S
N351 N350 1.365 . S
N351 H371 0.862 . S
C352 C347 1.501 . S
C352 H353 0.961 . S
C352 H354 0.961 . S
C352 H355 0.960 . S
H353 C352 0.961 . S
H354 C352 0.961 . S
H355 C352 0.960 . S
C356 N357 1.342 . S
C356 C360 1.401 . S
C356 C361 1.499 . S
N357 Co340 1.989 . S
N357 C356 1.342 . S
N357 N358 1.388 . S
N358 Co341 1.993 . S
N358 N357 1.388 . S
N358 C359 1.346 . S
C359 N358 1.346 . S
C359 C360 1.396 . S
C359 C369 1.510 . S
C360 C356 1.401 . S
C360 C359 1.396 . S
C361 C356 1.499 . S
C361 H362 0.959 . S
C361 H363 0.960 . S
C361 H364 0.961 . S
H362 C361 0.959 . S
H363 C361 0.960 . S
H364 C361 0.961 . S
O365 Co340 1.967 . S
O365 C373 1.258 . S
O366 Co341 1.941 . S
O366 C373 1.266 . S
H367 C369 0.959 . S
H368 C369 0.961 . S
C369 C359 1.510 . S
C369 H367 0.959 . S
C369 H368 0.961 . S
C369 H370 0.960 . S
H370 C369 0.960 . S
H371 N351 0.862 . S
O372 Co340 1.920 . S
O372 C345 1.289 . S
C373 O365 1.258 . S
C373 O366 1.266 . S
Co374 O377 1.970 . S
Co374 N391 1.989 . S
Co374 O399 1.967 . S
Co374 O406 1.920 . S
Co375 O378 1.966 . S
Co375 N384 2.022 1_556 S
Co375 N392 1.993 . S
Co375 O400 1.941 . S
C376 O377 1.258 . S
C376 O378 1.263 . S
O377 Co374 1.970 . S
O377 C376 1.258 . S
O378 Co375 1.966 . S
O378 C376 1.263 . S
C379 O380 1.235 . S
C379 O406 1.289 . S
O380 C379 1.235 . S
C381 C383 1.400 . S
C381 N384 1.351 . S
C381 C386 1.501 . S
C382 C383 1.387 . S
C382 N385 1.341 . S
C383 C381 1.400 . S
C383 C382 1.387 . S
N384 Co375 2.022 1_554 S
N384 C381 1.351 . S
N384 N385 1.365 . S
N385 C382 1.341 . S
N385 N384 1.365 . S
N385 H405 0.862 . S
C386 C381 1.501 . S
C386 H387 0.961 . S
C386 H388 0.961 . S
C386 H389 0.960 . S
H387 C386 0.961 . S
H388 C386 0.961 . S
H389 C386 0.960 . S
C390 N391 1.342 . S
C390 C394 1.401 . S
C390 C395 1.499 . S
N391 Co374 1.989 . S
N391 C390 1.342 . S
N391 N392 1.388 . S
N392 Co375 1.993 . S
N392 N391 1.388 . S
N392 C393 1.346 . S
C393 N392 1.346 . S
C393 C394 1.396 . S
C393 C403 1.510 1_556 S
C394 C390 1.401 . S
C394 C393 1.396 . S
C395 C390 1.499 . S
C395 H396 0.959 . S
C395 H397 0.960 . S
C395 H398 0.961 . S
H396 C395 0.959 . S
H397 C395 0.960 . S
H398 C395 0.961 . S
O399 Co374 1.967 . S
O399 C407 1.258 . S
O400 Co375 1.941 . S
O400 C407 1.266 . S
H401 C403 0.959 . S
H402 C403 0.961 . S
C403 C393 1.510 1_554 S
C403 H401 0.959 . S
C403 H402 0.961 . S
C403 H404 0.960 . S
H404 C403 0.960 . S
H405 N385 0.862 . S
O406 Co374 1.920 . S
O406 C379 1.289 . S
C407 O399 1.258 . S
C407 O400 1.266 . S
Co408 O411 1.970 . S
Co408 N425 1.989 . S
Co408 O433 1.967 . S
Co408 O440 1.920 . S
Co409 O412 1.966 . S
Co409 N418 2.022 . S
Co409 N426 1.993 . S
Co409 O434 1.941 . S
C410 O411 1.258 . S
C410 O412 1.263 . S
O411 Co408 1.970 . S
O411 C410 1.258 . S
O412 Co409 1.966 . S
O412 C410 1.263 . S
C413 O414 1.235 . S
C413 O440 1.289 . S
O414 C413 1.235 . S
C415 C417 1.400 . S
C415 N418 1.351 . S
C415 C420 1.501 . S
C416 C417 1.387 . S
C416 N419 1.341 . S
C417 C415 1.400 . S
C417 C416 1.387 . S
N418 Co409 2.022 . S
N418 C415 1.351 . S
N418 N419 1.365 . S
N419 C416 1.341 . S
N419 N418 1.365 . S
N419 H439 0.862 . S
C420 C415 1.501 . S
C420 H421 0.961 . S
C420 H422 0.961 . S
C420 H423 0.960 . S
H421 C420 0.961 . S
H422 C420 0.961 . S
H423 C420 0.960 . S
C424 N425 1.342 . S
C424 C428 1.401 . S
C424 C429 1.499 . S
N425 Co408 1.989 . S
N425 C424 1.342 . S
N425 N426 1.388 . S
N426 Co409 1.993 . S
N426 N425 1.388 . S
N426 C427 1.346 . S
C427 N426 1.346 . S
C427 C428 1.396 . S
C427 C437 1.510 . S
C428 C424 1.401 . S
C428 C427 1.396 . S
C429 C424 1.499 . S
C429 H430 0.959 . S
C429 H431 0.960 . S
C429 H432 0.961 . S
H430 C429 0.959 . S
H431 C429 0.960 . S
H432 C429 0.961 . S
O433 Co408 1.967 . S
O433 C441 1.258 . S
O434 Co409 1.941 . S
O434 C441 1.266 . S
H435 C437 0.959 . S
H436 C437 0.961 . S
C437 C427 1.510 . S
C437 H435 0.959 . S
C437 H436 0.961 . S
C437 H438 0.960 . S
H438 C437 0.960 . S
H439 N419 0.862 . S
O440 Co408 1.920 . S
O440 C413 1.289 . S
C441 O433 1.258 . S
C441 O434 1.266 . S
Co442 O445 1.970 . S
Co442 N459 1.989 . S
Co442 O467 1.967 . S
Co442 O474 1.920 . S
Co443 O446 1.966 . S
Co443 N452 2.022 . S
Co443 N460 1.993 . S
Co443 O468 1.941 . S
C444 O445 1.258 . S
C444 O446 1.263 . S
O445 Co442 1.970 . S
O445 C444 1.258 . S
O446 Co443 1.966 . S
O446 C444 1.263 . S
C447 O448 1.235 . S
C447 O474 1.289 . S
O448 C447 1.235 . S
C449 C451 1.400 . S
C449 N452 1.351 . S
C449 C454 1.501 . S
C450 C451 1.387 . S
C450 N453 1.341 . S
C451 C449 1.400 . S
C451 C450 1.387 . S
N452 Co443 2.022 . S
N452 C449 1.351 . S
N452 N453 1.365 . S
N453 C450 1.341 . S
N453 N452 1.365 . S
N453 H473 0.862 . S
C454 C449 1.501 . S
C454 H455 0.961 . S
C454 H456 0.961 . S
C454 H457 0.960 . S
H455 C454 0.961 . S
H456 C454 0.961 . S
H457 C454 0.960 . S
C458 N459 1.342 . S
C458 C462 1.401 . S
C458 C463 1.499 . S
N459 Co442 1.989 . S
N459 C458 1.342 . S
N459 N460 1.388 . S
N460 Co443 1.993 . S
N460 N459 1.388 . S
N460 C461 1.346 . S
C461 N460 1.346 . S
C461 C462 1.396 . S
C461 C471 1.510 . S
C462 C458 1.401 . S
C462 C461 1.396 . S
C463 C458 1.499 . S
C463 H464 0.959 . S
C463 H465 0.960 . S
C463 H466 0.961 . S
H464 C463 0.959 . S
H465 C463 0.960 . S
H466 C463 0.961 . S
O467 Co442 1.967 . S
O467 C475 1.258 . S
O468 Co443 1.941 . S
O468 C475 1.266 . S
H469 C471 0.959 . S
H470 C471 0.961 . S
C471 C461 1.510 . S
C471 H469 0.959 . S
C471 H470 0.961 . S
C471 H472 0.960 . S
H472 C471 0.960 . S
H473 N453 0.862 . S
O474 Co442 1.920 . S
O474 C447 1.289 . S
C475 O467 1.258 . S
C475 O468 1.266 . S
Co476 O479 1.970 . S
Co476 N493 1.989 . S
Co476 O501 1.967 . S
Co476 O508 1.920 . S
Co477 O480 1.966 . S
Co477 N486 2.022 . S
Co477 N494 1.993 . S
Co477 O502 1.941 . S
C478 O479 1.258 . S
C478 O480 1.263 . S
O479 Co476 1.970 . S
O479 C478 1.258 . S
O480 Co477 1.966 . S
O480 C478 1.263 . S
C481 O482 1.235 . S
C481 O508 1.289 . S
O482 C481 1.235 . S
C483 C485 1.400 . S
C483 N486 1.351 . S
C483 C488 1.501 . S
C484 C485 1.387 . S
C484 N487 1.341 . S
C485 C483 1.400 . S
C485 C484 1.387 . S
N486 Co477 2.022 . S
N486 C483 1.351 . S
N486 N487 1.365 . S
N487 C484 1.341 . S
N487 N486 1.365 . S
N487 H507 0.862 . S
C488 C483 1.501 . S
C488 H489 0.961 . S
C488 H490 0.961 . S
C488 H491 0.960 . S
H489 C488 0.961 . S
H490 C488 0.961 . S
H491 C488 0.960 . S
C492 N493 1.342 . S
C492 C496 1.401 . S
C492 C497 1.499 . S
N493 Co476 1.989 . S
N493 C492 1.342 . S
N493 N494 1.388 . S
N494 Co477 1.993 . S
N494 N493 1.388 . S
N494 C495 1.346 . S
C495 N494 1.346 . S
C495 C496 1.396 . S
C495 C505 1.510 . S
C496 C492 1.401 . S
C496 C495 1.396 . S
C497 C492 1.499 . S
C497 H498 0.959 . S
C497 H499 0.960 . S
C497 H500 0.961 . S
H498 C497 0.959 . S
H499 C497 0.960 . S
H500 C497 0.961 . S
O501 Co476 1.967 . S
O501 C509 1.258 . S
O502 Co477 1.941 . S
O502 C509 1.266 . S
H503 C505 0.959 . S
H504 C505 0.961 . S
C505 C495 1.510 . S
C505 H503 0.959 . S
C505 H504 0.961 . S
C505 H506 0.960 . S
H506 C505 0.960 . S
H507 N487 0.862 . S
O508 Co476 1.920 . S
O508 C481 1.289 . S
C509 O501 1.258 . S
C509 O502 1.266 . S
Co510 O513 1.970 . S
Co510 N527 1.989 . S
Co510 O535 1.967 . S
Co510 O542 1.920 . S
Co511 O514 1.966 . S
Co511 N520 2.022 1_554 S
Co511 N528 1.993 . S
Co511 O536 1.941 . S
C512 O513 1.258 . S
C512 O514 1.263 . S
O513 Co510 1.970 . S
O513 C512 1.258 . S
O514 Co511 1.966 . S
O514 C512 1.263 . S
C515 O516 1.235 . S
C515 O542 1.289 1_455 S
O516 C515 1.235 . S
C517 C519 1.400 . S
C517 N520 1.351 . S
C517 C522 1.501 . S
C518 C519 1.387 . S
C518 N521 1.341 . S
C519 C517 1.400 . S
C519 C518 1.387 . S
N520 Co511 2.022 1_556 S
N520 C517 1.351 . S
N520 N521 1.365 . S
N521 C518 1.341 . S
N521 N520 1.365 . S
N521 H541 0.862 . S
C522 C517 1.501 . S
C522 H523 0.961 . S
C522 H524 0.961 . S
C522 H525 0.960 . S
H523 C522 0.961 . S
H524 C522 0.961 . S
H525 C522 0.960 . S
C526 N527 1.342 . S
C526 C530 1.401 . S
C526 C531 1.499 . S
N527 Co510 1.989 . S
N527 C526 1.342 . S
N527 N528 1.388 . S
N528 Co511 1.993 . S
N528 N527 1.388 . S
N528 C529 1.346 . S
C529 N528 1.346 . S
C529 C530 1.396 . S
C529 C539 1.510 1_554 S
C530 C526 1.401 . S
C530 C529 1.396 . S
C531 C526 1.499 . S
C531 H532 0.959 . S
C531 H533 0.960 . S
C531 H534 0.961 . S
H532 C531 0.959 . S
H533 C531 0.960 . S
H534 C531 0.961 . S
O535 Co510 1.967 . S
O535 C543 1.258 . S
O536 Co511 1.941 . S
O536 C543 1.266 . S
H537 C539 0.959 . S
H538 C539 0.961 . S
C539 C529 1.510 1_556 S
C539 H537 0.959 . S
C539 H538 0.961 . S
C539 H540 0.960 . S
H540 C539 0.960 . S
H541 N521 0.862 . S
O542 Co510 1.920 . S
O542 C515 1.289 1_655 S
C543 O535 1.258 . S
C543 O536 1.266 . S
Co544 O547 1.970 . S
Co544 N561 1.989 . S
Co544 O569 1.967 . S
Co544 O576 1.920 . S
Co545 O548 1.966 . S
Co545 N554 2.022 . S
Co545 N562 1.993 . S
Co545 O570 1.941 . S
C546 O547 1.258 . S
C546 O548 1.263 . S
O547 Co544 1.970 . S
O547 C546 1.258 . S
O548 Co545 1.966 . S
O548 C546 1.263 . S
C549 O550 1.235 . S
C549 O576 1.289 . S
O550 C549 1.235 . S
C551 C553 1.400 . S
C551 N554 1.351 . S
C551 C556 1.501 . S
C552 C553 1.387 . S
C552 N555 1.341 . S
C553 C551 1.400 . S
C553 C552 1.387 . S
N554 Co545 2.022 . S
N554 C551 1.351 . S
N554 N555 1.365 . S
N555 C552 1.341 . S
N555 N554 1.365 . S
N555 H575 0.862 . S
C556 C551 1.501 . S
C556 H557 0.961 . S
C556 H558 0.961 . S
C556 H559 0.960 . S
H557 C556 0.961 . S
H558 C556 0.961 . S
H559 C556 0.960 . S
C560 N561 1.342 . S
C560 C564 1.401 . S
C560 C565 1.499 . S
N561 Co544 1.989 . S
N561 C560 1.342 . S
N561 N562 1.388 . S
N562 Co545 1.993 . S
N562 N561 1.388 . S
N562 C563 1.346 . S
C563 N562 1.346 . S
C563 C564 1.396 . S
C563 C573 1.510 . S
C564 C560 1.401 . S
C564 C563 1.396 . S
C565 C560 1.499 . S
C565 H566 0.959 . S
C565 H567 0.960 . S
C565 H568 0.961 . S
H566 C565 0.959 . S
H567 C565 0.960 . S
H568 C565 0.961 . S
O569 Co544 1.967 . S
O569 C577 1.258 . S
O570 Co545 1.941 . S
O570 C577 1.266 . S
H571 C573 0.959 . S
H572 C573 0.961 . S
C573 C563 1.510 . S
C573 H571 0.959 . S
C573 H572 0.961 . S
C573 H574 0.960 . S
H574 C573 0.960 . S
H575 N555 0.862 . S
O576 Co544 1.920 . S
O576 C549 1.289 . S
C577 O569 1.258 . S
C577 O570 1.266 . S
Co578 O581 1.970 . S
Co578 N595 1.989 . S
Co578 O603 1.967 . S
Co578 O610 1.920 . S
Co579 O582 1.966 . S
Co579 N588 2.022 1_554 S
Co579 N596 1.993 . S
Co579 O604 1.941 . S
C580 O581 1.258 . S
C580 O582 1.263 . S
O581 Co578 1.970 . S
O581 C580 1.258 . S
O582 Co579 1.966 . S
O582 C580 1.263 . S
C583 O584 1.235 . S
C583 O610 1.289 . S
O584 C583 1.235 . S
C585 C587 1.400 . S
C585 N588 1.351 . S
C585 C590 1.501 . S
C586 C587 1.387 . S
C586 N589 1.341 . S
C587 C585 1.400 . S
C587 C586 1.387 . S
N588 Co579 2.022 1_556 S
N588 C585 1.351 . S
N588 N589 1.365 . S
N589 C586 1.341 . S
N589 N588 1.365 . S
N589 H609 0.862 . S
C590 C585 1.501 . S
C590 H591 0.961 . S
C590 H592 0.961 . S
C590 H593 0.960 . S
H591 C590 0.961 . S
H592 C590 0.961 . S
H593 C590 0.960 . S
C594 N595 1.342 . S
C594 C598 1.401 . S
C594 C599 1.499 . S
N595 Co578 1.989 . S
N595 C594 1.342 . S
N595 N596 1.388 . S
N596 Co579 1.993 . S
N596 N595 1.388 . S
N596 C597 1.346 . S
C597 N596 1.346 . S
C597 C598 1.396 . S
C597 C607 1.510 1_554 S
C598 C594 1.401 . S
C598 C597 1.396 . S
C599 C594 1.499 . S
C599 H600 0.959 . S
C599 H601 0.960 . S
C599 H602 0.961 . S
H600 C599 0.959 . S
H601 C599 0.960 . S
H602 C599 0.961 . S
O603 Co578 1.967 . S
O603 C611 1.258 . S
O604 Co579 1.941 . S
O604 C611 1.266 . S
H605 C607 0.959 . S
H606 C607 0.961 . S
C607 C597 1.510 1_556 S
C607 H605 0.959 . S
C607 H606 0.961 . S
C607 H608 0.960 . S
H608 C607 0.960 . S
H609 N589 0.862 . S
O610 Co578 1.920 . S
O610 C583 1.289 . S
C611 O603 1.258 . S
C611 O604 1.266 . S
Co612 O615 1.970 . S
Co612 N629 1.989 . S
Co612 O637 1.967 . S
Co612 O644 1.920 . S
Co613 O616 1.966 . S
Co613 N622 2.022 . S
Co613 N630 1.993 . S
Co613 O638 1.941 . S
C614 O615 1.258 . S
C614 O616 1.263 . S
O615 Co612 1.970 . S
O615 C614 1.258 . S
O616 Co613 1.966 . S
O616 C614 1.263 . S
C617 O618 1.235 . S
C617 O644 1.289 . S
O618 C617 1.235 . S
C619 C621 1.400 . S
C619 N622 1.351 . S
C619 C624 1.501 . S
C620 C621 1.387 . S
C620 N623 1.341 . S
C621 C619 1.400 . S
C621 C620 1.387 . S
N622 Co613 2.022 . S
N622 C619 1.351 . S
N622 N623 1.365 . S
N623 C620 1.341 . S
N623 N622 1.365 . S
N623 H643 0.862 . S
C624 C619 1.501 . S
C624 H625 0.961 . S
C624 H626 0.961 . S
C624 H627 0.960 . S
H625 C624 0.961 . S
H626 C624 0.961 . S
H627 C624 0.960 . S
C628 N629 1.342 . S
C628 C632 1.401 . S
C628 C633 1.499 . S
N629 Co612 1.989 . S
N629 C628 1.342 . S
N629 N630 1.388 . S
N630 Co613 1.993 . S
N630 N629 1.388 . S
N630 C631 1.346 . S
C631 N630 1.346 . S
C631 C632 1.396 . S
C631 C641 1.510 . S
C632 C628 1.401 . S
C632 C631 1.396 . S
C633 C628 1.499 . S
C633 H634 0.959 . S
C633 H635 0.960 . S
C633 H636 0.961 . S
H634 C633 0.959 . S
H635 C633 0.960 . S
H636 C633 0.961 . S
O637 Co612 1.967 . S
O637 C645 1.258 . S
O638 Co613 1.941 . S
O638 C645 1.266 . S
H639 C641 0.959 . S
H640 C641 0.961 . S
C641 C631 1.510 . S
C641 H639 0.959 . S
C641 H640 0.961 . S
C641 H642 0.960 . S
H642 C641 0.960 . S
H643 N623 0.862 . S
O644 Co612 1.920 . S
O644 C617 1.289 . S
C645 O637 1.258 . S
C645 O638 1.266 . S
Co646 O649 1.970 . S
Co646 N663 1.989 . S
Co646 O671 1.967 . S
Co646 O678 1.920 . S
Co647 O650 1.966 . S
Co647 N656 2.022 . S
Co647 N664 1.993 . S
Co647 O672 1.941 . S
C648 O649 1.258 . S
C648 O650 1.263 . S
O649 Co646 1.970 . S
O649 C648 1.258 . S
O650 Co647 1.966 . S
O650 C648 1.263 . S
C651 O652 1.235 . S
C651 O678 1.289 1_455 S
O652 C651 1.235 . S
C653 C655 1.400 . S
C653 N656 1.351 . S
C653 C658 1.501 . S
C654 C655 1.387 . S
C654 N657 1.341 . S
C655 C653 1.400 . S
C655 C654 1.387 . S
N656 Co647 2.022 . S
N656 C653 1.351 . S
N656 N657 1.365 . S
N657 C654 1.341 . S
N657 N656 1.365 . S
N657 H677 0.862 . S
C658 C653 1.501 . S
C658 H659 0.961 . S
C658 H660 0.961 . S
C658 H661 0.960 . S
H659 C658 0.961 . S
H660 C658 0.961 . S
H661 C658 0.960 . S
C662 N663 1.342 . S
C662 C666 1.401 . S
C662 C667 1.499 . S
N663 Co646 1.989 . S
N663 C662 1.342 . S
N663 N664 1.388 . S
N664 Co647 1.993 . S
N664 N663 1.388 . S
N664 C665 1.346 . S
C665 N664 1.346 . S
C665 C666 1.396 . S
C665 C675 1.510 . S
C666 C662 1.401 . S
C666 C665 1.396 . S
C667 C662 1.499 . S
C667 H668 0.959 . S
C667 H669 0.960 . S
C667 H670 0.961 . S
H668 C667 0.959 . S
H669 C667 0.960 . S
H670 C667 0.961 . S
O671 Co646 1.967 . S
O671 C679 1.258 . S
O672 Co647 1.941 . S
O672 C679 1.266 . S
H673 C675 0.959 . S
H674 C675 0.961 . S
C675 C665 1.510 . S
C675 H673 0.959 . S
C675 H674 0.961 . S
C675 H676 0.960 . S
H676 C675 0.960 . S
H677 N657 0.862 . S
O678 Co646 1.920 . S
O678 C651 1.289 1_655 S
C679 O671 1.258 . S
C679 O672 1.266 . S
Co680 O683 1.970 . S
Co680 N697 1.989 . S
Co680 O705 1.967 . S
Co680 O712 1.920 . S
Co681 O684 1.966 . S
Co681 N690 2.022 . S
Co681 N698 1.993 . S
Co681 O706 1.941 . S
C682 O683 1.258 . S
C682 O684 1.263 . S
O683 Co680 1.970 . S
O683 C682 1.258 . S
O684 Co681 1.966 . S
O684 C682 1.263 . S
C685 O686 1.235 . S
C685 O712 1.289 . S
O686 C685 1.235 . S
C687 C689 1.400 . S
C687 N690 1.351 . S
C687 C692 1.501 . S
C688 C689 1.387 . S
C688 N691 1.341 . S
C689 C687 1.400 . S
C689 C688 1.387 . S
N690 Co681 2.022 . S
N690 C687 1.351 . S
N690 N691 1.365 . S
N691 C688 1.341 . S
N691 N690 1.365 . S
N691 H711 0.862 . S
C692 C687 1.501 . S
C692 H693 0.961 . S
C692 H694 0.961 . S
C692 H695 0.960 . S
H693 C692 0.961 . S
H694 C692 0.961 . S
H695 C692 0.960 . S
C696 N697 1.342 . S
C696 C700 1.401 . S
C696 C701 1.499 . S
N697 Co680 1.989 . S
N697 C696 1.342 . S
N697 N698 1.388 . S
N698 Co681 1.993 . S
N698 N697 1.388 . S
N698 C699 1.346 . S
C699 N698 1.346 . S
C699 C700 1.396 . S
C699 C709 1.510 . S
C700 C696 1.401 . S
C700 C699 1.396 . S
C701 C696 1.499 . S
C701 H702 0.959 . S
C701 H703 0.960 . S
C701 H704 0.961 . S
H702 C701 0.959 . S
H703 C701 0.960 . S
H704 C701 0.961 . S
O705 Co680 1.967 . S
O705 C713 1.258 . S
O706 Co681 1.941 . S
O706 C713 1.266 . S
H707 C709 0.959 . S
H708 C709 0.961 . S
C709 C699 1.510 . S
C709 H707 0.959 . S
C709 H708 0.961 . S
C709 H710 0.960 . S
H710 C709 0.960 . S
H711 N691 0.862 . S
O712 Co680 1.920 . S
O712 C685 1.289 . S
C713 O705 1.258 . S
C713 O706 1.266 . S
Co714 O717 1.970 . S
Co714 N731 1.989 . S
Co714 O739 1.967 . S
Co714 O746 1.920 . S
Co715 O718 1.966 . S
Co715 N724 2.022 1_556 S
Co715 N732 1.993 . S
Co715 O740 1.941 . S
C716 O717 1.258 . S
C716 O718 1.263 . S
O717 Co714 1.970 . S
O717 C716 1.258 . S
O718 Co715 1.966 . S
O718 C716 1.263 . S
C719 O720 1.235 . S
C719 O746 1.289 1_455 S
O720 C719 1.235 . S
C721 C723 1.400 . S
C721 N724 1.351 . S
C721 C726 1.501 . S
C722 C723 1.387 . S
C722 N725 1.341 . S
C723 C721 1.400 . S
C723 C722 1.387 . S
N724 Co715 2.022 1_554 S
N724 C721 1.351 . S
N724 N725 1.365 . S
N725 C722 1.341 . S
N725 N724 1.365 . S
N725 H745 0.862 . S
C726 C721 1.501 . S
C726 H727 0.961 . S
C726 H728 0.961 . S
C726 H729 0.960 . S
H727 C726 0.961 . S
H728 C726 0.961 . S
H729 C726 0.960 . S
C730 N731 1.342 . S
C730 C734 1.401 . S
C730 C735 1.499 . S
N731 Co714 1.989 . S
N731 C730 1.342 . S
N731 N732 1.388 . S
N732 Co715 1.993 . S
N732 N731 1.388 . S
N732 C733 1.346 . S
C733 N732 1.346 . S
C733 C734 1.396 . S
C733 C743 1.510 1_556 S
C734 C730 1.401 . S
C734 C733 1.396 . S
C735 C730 1.499 . S
C735 H736 0.959 . S
C735 H737 0.960 . S
C735 H738 0.961 . S
H736 C735 0.959 . S
H737 C735 0.960 . S
H738 C735 0.961 . S
O739 Co714 1.967 . S
O739 C747 1.258 . S
O740 Co715 1.941 . S
O740 C747 1.266 . S
H741 C743 0.959 . S
H742 C743 0.961 . S
C743 C733 1.510 1_554 S
C743 H741 0.959 . S
C743 H742 0.961 . S
C743 H744 0.960 . S
H744 C743 0.960 . S
H745 N725 0.862 . S
O746 Co714 1.920 . S
O746 C719 1.289 1_655 S
C747 O739 1.258 . S
C747 O740 1.266 . S
Co748 O751 1.970 . S
Co748 N765 1.989 . S
Co748 O773 1.967 . S
Co748 O780 1.920 . S
Co749 O752 1.966 . S
Co749 N758 2.022 . S
Co749 N766 1.993 . S
Co749 O774 1.941 . S
C750 O751 1.258 . S
C750 O752 1.263 . S
O751 Co748 1.970 . S
O751 C750 1.258 . S
O752 Co749 1.966 . S
O752 C750 1.263 . S
C753 O754 1.235 . S
C753 O780 1.289 . S
O754 C753 1.235 . S
C755 C757 1.400 . S
C755 N758 1.351 . S
C755 C760 1.501 . S
C756 C757 1.387 . S
C756 N759 1.341 . S
C757 C755 1.400 . S
C757 C756 1.387 . S
N758 Co749 2.022 . S
N758 C755 1.351 . S
N758 N759 1.365 . S
N759 C756 1.341 . S
N759 N758 1.365 . S
N759 H779 0.862 . S
C760 C755 1.501 . S
C760 H761 0.961 . S
C760 H762 0.961 . S
C760 H763 0.960 . S
H761 C760 0.961 . S
H762 C760 0.961 . S
H763 C760 0.960 . S
C764 N765 1.342 . S
C764 C768 1.401 . S
C764 C769 1.499 . S
N765 Co748 1.989 . S
N765 C764 1.342 . S
N765 N766 1.388 . S
N766 Co749 1.993 . S
N766 N765 1.388 . S
N766 C767 1.346 . S
C767 N766 1.346 . S
C767 C768 1.396 . S
C767 C777 1.510 . S
C768 C764 1.401 . S
C768 C767 1.396 . S
C769 C764 1.499 . S
C769 H770 0.959 . S
C769 H771 0.960 . S
C769 H772 0.961 . S
H770 C769 0.959 . S
H771 C769 0.960 . S
H772 C769 0.961 . S
O773 Co748 1.967 . S
O773 C781 1.258 . S
O774 Co749 1.941 . S
O774 C781 1.266 . S
H775 C777 0.959 . S
H776 C777 0.961 . S
C777 C767 1.510 . S
C777 H775 0.959 . S
C777 H776 0.961 . S
C777 H778 0.960 . S
H778 C777 0.960 . S
H779 N759 0.862 . S
O780 Co748 1.920 . S
O780 C753 1.289 . S
C781 O773 1.258 . S
C781 O774 1.266 . S
Co782 O785 1.970 . S
Co782 N799 1.989 . S
Co782 O807 1.967 . S
Co782 O814 1.920 . S
Co783 O786 1.966 . S
Co783 N792 2.022 . S
Co783 N800 1.993 . S
Co783 O808 1.941 . S
C784 O785 1.258 . S
C784 O786 1.263 . S
O785 Co782 1.970 . S
O785 C784 1.258 . S
O786 Co783 1.966 . S
O786 C784 1.263 . S
C787 O788 1.235 . S
C787 O814 1.289 . S
O788 C787 1.235 . S
C789 C791 1.400 . S
C789 N792 1.351 . S
C789 C794 1.501 . S
C790 C791 1.387 . S
C790 N793 1.341 . S
C791 C789 1.400 . S
C791 C790 1.387 . S
N792 Co783 2.022 . S
N792 C789 1.351 . S
N792 N793 1.365 . S
N793 C790 1.341 . S
N793 N792 1.365 . S
N793 H813 0.862 . S
C794 C789 1.501 . S
C794 H795 0.961 . S
C794 H796 0.961 . S
C794 H797 0.960 . S
H795 C794 0.961 . S
H796 C794 0.961 . S
H797 C794 0.960 . S
C798 N799 1.342 . S
C798 C802 1.401 . S
C798 C803 1.499 . S
N799 Co782 1.989 . S
N799 C798 1.342 . S
N799 N800 1.388 . S
N800 Co783 1.993 . S
N800 N799 1.388 . S
N800 C801 1.346 . S
C801 N800 1.346 . S
C801 C802 1.396 . S
C801 C811 1.510 . S
C802 C798 1.401 . S
C802 C801 1.396 . S
C803 C798 1.499 . S
C803 H804 0.959 . S
C803 H805 0.960 . S
C803 H806 0.961 . S
H804 C803 0.959 . S
H805 C803 0.960 . S
H806 C803 0.961 . S
O807 Co782 1.967 . S
O807 C815 1.258 . S
O808 Co783 1.941 . S
O808 C815 1.266 . S
H809 C811 0.959 . S
H810 C811 0.961 . S
C811 C801 1.510 . S
C811 H809 0.959 . S
C811 H810 0.961 . S
C811 H812 0.960 . S
H812 C811 0.960 . S
H813 N793 0.862 . S
O814 Co782 1.920 . S
O814 C787 1.289 . S
C815 O807 1.258 . S
C815 O808 1.266 . S
Co816 O819 1.970 . S
Co816 N833 1.989 . S
Co816 O841 1.967 . S
Co816 O848 1.920 . S
Co817 O820 1.966 . S
Co817 N826 2.022 . S
Co817 N834 1.993 . S
Co817 O842 1.941 . S
C818 O819 1.258 . S
C818 O820 1.263 . S
O819 Co816 1.970 . S
O819 C818 1.258 . S
O820 Co817 1.966 . S
O820 C818 1.263 . S
C821 O822 1.235 . S
C821 O848 1.289 . S
O822 C821 1.235 . S
C823 C825 1.400 . S
C823 N826 1.351 . S
C823 C828 1.501 . S
C824 C825 1.387 . S
C824 N827 1.341 . S
C825 C823 1.400 . S
C825 C824 1.387 . S
N826 Co817 2.022 . S
N826 C823 1.351 . S
N826 N827 1.365 . S
N827 C824 1.341 . S
N827 N826 1.365 . S
N827 H847 0.862 . S
C828 C823 1.501 . S
C828 H829 0.961 . S
C828 H830 0.961 . S
C828 H831 0.960 . S
H829 C828 0.961 . S
H830 C828 0.961 . S
H831 C828 0.960 . S
C832 N833 1.342 . S
C832 C836 1.401 . S
C832 C837 1.499 . S
N833 Co816 1.989 . S
N833 C832 1.342 . S
N833 N834 1.388 . S
N834 Co817 1.993 . S
N834 N833 1.388 . S
N834 C835 1.346 . S
C835 N834 1.346 . S
C835 C836 1.396 . S
C835 C845 1.510 . S
C836 C832 1.401 . S
C836 C835 1.396 . S
C837 C832 1.499 . S
C837 H838 0.959 . S
C837 H839 0.960 . S
C837 H840 0.961 . S
H838 C837 0.959 . S
H839 C837 0.960 . S
H840 C837 0.961 . S
O841 Co816 1.967 . S
O841 C849 1.258 . S
O842 Co817 1.941 . S
O842 C849 1.266 . S
H843 C845 0.959 . S
H844 C845 0.961 . S
C845 C835 1.510 . S
C845 H843 0.959 . S
C845 H844 0.961 . S
C845 H846 0.960 . S
H846 C845 0.960 . S
H847 N827 0.862 . S
O848 Co816 1.920 . S
O848 C821 1.289 . S
C849 O841 1.258 . S
C849 O842 1.266 . S
Co850 O853 1.970 . S
Co850 N867 1.989 . S
Co850 O875 1.967 . S
Co850 O882 1.920 . S
Co851 O854 1.966 . S
Co851 N860 2.022 1_556 S
Co851 N868 1.993 . S
Co851 O876 1.941 . S
C852 O853 1.258 . S
C852 O854 1.263 . S
O853 Co850 1.970 . S
O853 C852 1.258 . S
O854 Co851 1.966 . S
O854 C852 1.263 . S
C855 O856 1.235 . S
C855 O882 1.289 . S
O856 C855 1.235 . S
C857 C859 1.400 . S
C857 N860 1.351 . S
C857 C862 1.501 . S
C858 C859 1.387 . S
C858 N861 1.341 . S
C859 C857 1.400 . S
C859 C858 1.387 . S
N860 Co851 2.022 1_554 S
N860 C857 1.351 . S
N860 N861 1.365 . S
N861 C858 1.341 . S
N861 N860 1.365 . S
N861 H881 0.862 . S
C862 C857 1.501 . S
C862 H863 0.961 . S
C862 H864 0.961 . S
C862 H865 0.960 . S
H863 C862 0.961 . S
H864 C862 0.961 . S
H865 C862 0.960 . S
C866 N867 1.342 . S
C866 C870 1.401 . S
C866 C871 1.499 . S
N867 Co850 1.989 . S
N867 C866 1.342 . S
N867 N868 1.388 . S
N868 Co851 1.993 . S
N868 N867 1.388 . S
N868 C869 1.346 . S
C869 N868 1.346 . S
C869 C870 1.396 . S
C869 C879 1.510 1_556 S
C870 C866 1.401 . S
C870 C869 1.396 . S
C871 C866 1.499 . S
C871 H872 0.959 . S
C871 H873 0.960 . S
C871 H874 0.961 . S
H872 C871 0.959 . S
H873 C871 0.960 . S
H874 C871 0.961 . S
O875 Co850 1.967 . S
O875 C883 1.258 . S
O876 Co851 1.941 . S
O876 C883 1.266 . S
H877 C879 0.959 . S
H878 C879 0.961 . S
C879 C869 1.510 1_554 S
C879 H877 0.959 . S
C879 H878 0.961 . S
C879 H880 0.960 . S
H880 C879 0.960 . S
H881 N861 0.862 . S
O882 Co850 1.920 . S
O882 C855 1.289 . S
C883 O875 1.258 . S
C883 O876 1.266 . S
Co884 O887 1.970 . S
Co884 N901 1.989 . S
Co884 O909 1.967 . S
Co884 O916 1.920 . S
Co885 O888 1.966 . S
Co885 N894 2.022 . S
Co885 N902 1.993 . S
Co885 O910 1.941 . S
C886 O887 1.258 . S
C886 O888 1.263 . S
O887 Co884 1.970 . S
O887 C886 1.258 . S
O888 Co885 1.966 . S
O888 C886 1.263 . S
C889 O890 1.235 . S
C889 O916 1.289 . S
O890 C889 1.235 . S
C891 C893 1.400 . S
C891 N894 1.351 . S
C891 C896 1.501 . S
C892 C893 1.387 . S
C892 N895 1.341 . S
C893 C891 1.400 . S
C893 C892 1.387 . S
N894 Co885 2.022 . S
N894 C891 1.351 . S
N894 N895 1.365 . S
N895 C892 1.341 . S
N895 N894 1.365 . S
N895 H915 0.862 . S
C896 C891 1.501 . S
C896 H897 0.961 . S
C896 H898 0.961 . S
C896 H899 0.960 . S
H897 C896 0.961 . S
H898 C896 0.961 . S
H899 C896 0.960 . S
C900 N901 1.342 . S
C900 C904 1.401 . S
C900 C905 1.499 . S
N901 Co884 1.989 . S
N901 C900 1.342 . S
N901 N902 1.388 . S
N902 Co885 1.993 . S
N902 N901 1.388 . S
N902 C903 1.346 . S
C903 N902 1.346 . S
C903 C904 1.396 . S
C903 C913 1.510 . S
C904 C900 1.401 . S
C904 C903 1.396 . S
C905 C900 1.499 . S
C905 H906 0.959 . S
C905 H907 0.960 . S
C905 H908 0.961 . S
H906 C905 0.959 . S
H907 C905 0.960 . S
H908 C905 0.961 . S
O909 Co884 1.967 . S
O909 C917 1.258 . S
O910 Co885 1.941 . S
O910 C917 1.266 . S
H911 C913 0.959 . S
H912 C913 0.961 . S
C913 C903 1.510 . S
C913 H911 0.959 . S
C913 H912 0.961 . S
C913 H914 0.960 . S
H914 C913 0.960 . S
H915 N895 0.862 . S
O916 Co884 1.920 . S
O916 C889 1.289 . S
C917 O909 1.258 . S
C917 O910 1.266 . S
Co918 O921 1.970 . S
Co918 N935 1.989 . S
Co918 O943 1.967 . S
Co918 O950 1.920 . S
Co919 O922 1.966 . S
Co919 N928 2.022 . S
Co919 N936 1.993 . S
Co919 O944 1.941 . S
C920 O921 1.258 . S
C920 O922 1.263 . S
O921 Co918 1.970 . S
O921 C920 1.258 . S
O922 Co919 1.966 . S
O922 C920 1.263 . S
C923 O924 1.235 . S
C923 O950 1.289 1_655 S
O924 C923 1.235 . S
C925 C927 1.400 . S
C925 N928 1.351 . S
C925 C930 1.501 . S
C926 C927 1.387 . S
C926 N929 1.341 . S
C927 C925 1.400 . S
C927 C926 1.387 . S
N928 Co919 2.022 . S
N928 C925 1.351 . S
N928 N929 1.365 . S
N929 C926 1.341 . S
N929 N928 1.365 . S
N929 H949 0.862 . S
C930 C925 1.501 . S
C930 H931 0.961 . S
C930 H932 0.961 . S
C930 H933 0.960 . S
H931 C930 0.961 . S
H932 C930 0.961 . S
H933 C930 0.960 . S
C934 N935 1.342 . S
C934 C938 1.401 . S
C934 C939 1.499 . S
N935 Co918 1.989 . S
N935 C934 1.342 . S
N935 N936 1.388 . S
N936 Co919 1.993 . S
N936 N935 1.388 . S
N936 C937 1.346 . S
C937 N936 1.346 . S
C937 C938 1.396 . S
C937 C947 1.510 . S
C938 C934 1.401 . S
C938 C937 1.396 . S
C939 C934 1.499 . S
C939 H940 0.959 . S
C939 H941 0.960 . S
C939 H942 0.961 . S
H940 C939 0.959 . S
H941 C939 0.960 . S
H942 C939 0.961 . S
O943 Co918 1.967 . S
O943 C951 1.258 . S
O944 Co919 1.941 . S
O944 C951 1.266 . S
H945 C947 0.959 . S
H946 C947 0.961 . S
C947 C937 1.510 . S
C947 H945 0.959 . S
C947 H946 0.961 . S
C947 H948 0.960 . S
H948 C947 0.960 . S
H949 N929 0.862 . S
O950 Co918 1.920 . S
O950 C923 1.289 1_455 S
C951 O943 1.258 . S
C951 O944 1.266 . S
Co952 O955 1.970 . S
Co952 N969 1.989 . S
Co952 O977 1.967 . S
Co952 O984 1.920 . S
Co953 O956 1.966 . S
Co953 N962 2.022 . S
Co953 N970 1.993 . S
Co953 O978 1.941 . S
C954 O955 1.258 . S
C954 O956 1.263 . S
O955 Co952 1.970 . S
O955 C954 1.258 . S
O956 Co953 1.966 . S
O956 C954 1.263 . S
C957 O958 1.235 . S
C957 O984 1.289 . S
O958 C957 1.235 . S
C959 C961 1.400 . S
C959 N962 1.351 . S
C959 C964 1.501 . S
C960 C961 1.387 . S
C960 N963 1.341 . S
C961 C959 1.400 . S
C961 C960 1.387 . S
N962 Co953 2.022 . S
N962 C959 1.351 . S
N962 N963 1.365 . S
N963 C960 1.341 . S
N963 N962 1.365 . S
N963 H983 0.862 . S
C964 C959 1.501 . S
C964 H965 0.961 . S
C964 H966 0.961 . S
C964 H967 0.960 . S
H965 C964 0.961 . S
H966 C964 0.961 . S
H967 C964 0.960 . S
C968 N969 1.342 . S
C968 C972 1.401 . S
C968 C973 1.499 . S
N969 Co952 1.989 . S
N969 C968 1.342 . S
N969 N970 1.388 . S
N970 Co953 1.993 . S
N970 N969 1.388 . S
N970 C971 1.346 . S
C971 N970 1.346 . S
C971 C972 1.396 . S
C971 C981 1.510 . S
C972 C968 1.401 . S
C972 C971 1.396 . S
C973 C968 1.499 . S
C973 H974 0.959 . S
C973 H975 0.960 . S
C973 H976 0.961 . S
H974 C973 0.959 . S
H975 C973 0.960 . S
H976 C973 0.961 . S
O977 Co952 1.967 . S
O977 C985 1.258 . S
O978 Co953 1.941 . S
O978 C985 1.266 . S
H979 C981 0.959 . S
H980 C981 0.961 . S
C981 C971 1.510 . S
C981 H979 0.959 . S
C981 H980 0.961 . S
C981 H982 0.960 . S
H982 C981 0.960 . S
H983 N963 0.862 . S
O984 Co952 1.920 . S
O984 C957 1.289 . S
C985 O977 1.258 . S
C985 O978 1.266 . S
Co986 O989 1.970 . S
Co986 N1003 1.989 . S
Co986 O1011 1.967 . S
Co986 O1018 1.920 . S
Co987 O990 1.966 . S
Co987 N996 2.022 1_554 S
Co987 N1004 1.993 . S
Co987 O1012 1.941 . S
C988 O989 1.258 . S
C988 O990 1.263 . S
O989 Co986 1.970 . S
O989 C988 1.258 . S
O990 Co987 1.966 . S
O990 C988 1.263 . S
C991 O992 1.235 . S
C991 O1018 1.289 1_655 S
O992 C991 1.235 . S
C993 C995 1.400 . S
C993 N996 1.351 . S
C993 C998 1.501 . S
C994 C995 1.387 . S
C994 N997 1.341 . S
C995 C993 1.400 . S
C995 C994 1.387 . S
N996 Co987 2.022 1_556 S
N996 C993 1.351 . S
N996 N997 1.365 . S
N997 C994 1.341 . S
N997 N996 1.365 . S
N997 H1017 0.862 . S
C998 C993 1.501 . S
C998 H999 0.961 . S
C998 H1000 0.961 . S
C998 H1001 0.960 . S
H999 C998 0.961 . S
H1000 C998 0.961 . S
H1001 C998 0.960 . S
C1002 N1003 1.342 . S
C1002 C1006 1.401 . S
C1002 C1007 1.499 . S
N1003 Co986 1.989 . S
N1003 C1002 1.342 . S
N1003 N1004 1.388 . S
N1004 Co987 1.993 . S
N1004 N1003 1.388 . S
N1004 C1005 1.346 . S
C1005 N1004 1.346 . S
C1005 C1006 1.396 . S
C1005 C1015 1.510 1_554 S
C1006 C1002 1.401 . S
C1006 C1005 1.396 . S
C1007 C1002 1.499 . S
C1007 H1008 0.959 . S
C1007 H1009 0.960 . S
C1007 H1010 0.961 . S
H1008 C1007 0.959 . S
H1009 C1007 0.960 . S
H1010 C1007 0.961 . S
O1011 Co986 1.967 . S
O1011 C1019 1.258 . S
O1012 Co987 1.941 . S
O1012 C1019 1.266 . S
H1013 C1015 0.959 . S
H1014 C1015 0.961 . S
C1015 C1005 1.510 1_556 S
C1015 H1013 0.959 . S
C1015 H1014 0.961 . S
C1015 H1016 0.960 . S
H1016 C1015 0.960 . S
H1017 N997 0.862 . S
O1018 Co986 1.920 . S
O1018 C991 1.289 1_455 S
C1019 O1011 1.258 . S
C1019 O1012 1.266 . S
Co1020 O1023 1.970 . S
Co1020 N1037 1.989 . S
Co1020 O1045 1.967 . S
Co1020 O1052 1.920 . S
Co1021 O1024 1.966 . S
Co1021 N1030 2.022 . S
Co1021 N1038 1.993 . S
Co1021 O1046 1.941 . S
C1022 O1023 1.258 . S
C1022 O1024 1.263 . S
O1023 Co1020 1.970 . S
O1023 C1022 1.258 . S
O1024 Co1021 1.966 . S
O1024 C1022 1.263 . S
C1025 O1026 1.235 . S
C1025 O1052 1.289 . S
O1026 C1025 1.235 . S
C1027 C1029 1.400 . S
C1027 N1030 1.351 . S
C1027 C1032 1.501 . S
C1028 C1029 1.387 . S
C1028 N1031 1.341 . S
C1029 C1027 1.400 . S
C1029 C1028 1.387 . S
N1030 Co1021 2.022 . S
N1030 C1027 1.351 . S
N1030 N1031 1.365 . S
N1031 C1028 1.341 . S
N1031 N1030 1.365 . S
N1031 H1051 0.862 . S
C1032 C1027 1.501 . S
C1032 H1033 0.961 . S
C1032 H1034 0.961 . S
C1032 H1035 0.960 . S
H1033 C1032 0.961 . S
H1034 C1032 0.961 . S
H1035 C1032 0.960 . S
C1036 N1037 1.342 . S
C1036 C1040 1.401 . S
C1036 C1041 1.499 . S
N1037 Co1020 1.989 . S
N1037 C1036 1.342 . S
N1037 N1038 1.388 . S
N1038 Co1021 1.993 . S
N1038 N1037 1.388 . S
N1038 C1039 1.346 . S
C1039 N1038 1.346 . S
C1039 C1040 1.396 . S
C1039 C1049 1.510 . S
C1040 C1036 1.401 . S
C1040 C1039 1.396 . S
C1041 C1036 1.499 . S
C1041 H1042 0.959 . S
C1041 H1043 0.960 . S
C1041 H1044 0.961 . S
H1042 C1041 0.959 . S
H1043 C1041 0.960 . S
H1044 C1041 0.961 . S
O1045 Co1020 1.967 . S
O1045 C1053 1.258 . S
O1046 Co1021 1.941 . S
O1046 C1053 1.266 . S
H1047 C1049 0.959 . S
H1048 C1049 0.961 . S
C1049 C1039 1.510 . S
C1049 H1047 0.959 . S
C1049 H1048 0.961 . S
C1049 H1050 0.960 . S
H1050 C1049 0.960 . S
H1051 N1031 0.862 . S
O1052 Co1020 1.920 . S
O1052 C1025 1.289 . S
C1053 O1045 1.258 . S
C1053 O1046 1.266 . S
Co1054 O1057 1.970 . S
Co1054 N1071 1.989 . S
Co1054 O1079 1.967 . S
Co1054 O1086 1.920 . S
Co1055 O1058 1.966 . S
Co1055 N1064 2.022 . S
Co1055 N1072 1.993 . S
Co1055 O1080 1.941 . S
C1056 O1057 1.258 . S
C1056 O1058 1.263 . S
O1057 Co1054 1.970 . S
O1057 C1056 1.258 . S
O1058 Co1055 1.966 . S
O1058 C1056 1.263 . S
C1059 O1060 1.235 . S
C1059 O1086 1.289 . S
O1060 C1059 1.235 . S
C1061 C1063 1.400 . S
C1061 N1064 1.351 . S
C1061 C1066 1.501 . S
C1062 C1063 1.387 . S
C1062 N1065 1.341 . S
C1063 C1061 1.400 . S
C1063 C1062 1.387 . S
N1064 Co1055 2.022 . S
N1064 C1061 1.351 . S
N1064 N1065 1.365 . S
N1065 C1062 1.341 . S
N1065 N1064 1.365 . S
N1065 H1085 0.862 . S
C1066 C1061 1.501 . S
C1066 H1067 0.961 . S
C1066 H1068 0.961 . S
C1066 H1069 0.960 . S
H1067 C1066 0.961 . S
H1068 C1066 0.961 . S
H1069 C1066 0.960 . S
C1070 N1071 1.342 . S
C1070 C1074 1.401 . S
C1070 C1075 1.499 . S
N1071 Co1054 1.989 . S
N1071 C1070 1.342 . S
N1071 N1072 1.388 . S
N1072 Co1055 1.993 . S
N1072 N1071 1.388 . S
N1072 C1073 1.346 . S
C1073 N1072 1.346 . S
C1073 C1074 1.396 . S
C1073 C1083 1.510 . S
C1074 C1070 1.401 . S
C1074 C1073 1.396 . S
C1075 C1070 1.499 . S
C1075 H1076 0.959 . S
C1075 H1077 0.960 . S
C1075 H1078 0.961 . S
H1076 C1075 0.959 . S
H1077 C1075 0.960 . S
H1078 C1075 0.961 . S
O1079 Co1054 1.967 . S
O1079 C1087 1.258 . S
O1080 Co1055 1.941 . S
O1080 C1087 1.266 . S
H1081 C1083 0.959 . S
H1082 C1083 0.961 . S
C1083 C1073 1.510 . S
C1083 H1081 0.959 . S
C1083 H1082 0.961 . S
C1083 H1084 0.960 . S
H1084 C1083 0.960 . S
H1085 N1065 0.862 . S
O1086 Co1054 1.920 . S
O1086 C1059 1.289 . S
C1087 O1079 1.258 . S
C1087 O1080 1.266 . S
H1088 C1096 0.950 . S
H1089 C1101 0.950 . S
H1090 C1098 0.950 . S
H1091 C1100 0.950 . S
H1092 C1102 0.950 . S
H1093 C1104 0.950 . S
H1094 C1106 0.950 . S
H1095 C1107 0.950 . S
C1096 H1088 0.950 . S
C1096 C1097 1.386 . S
C1096 C1098 1.391 . S
C1097 C1096 1.386 . S
C1097 C1101 1.393 . S
C1098 H1090 0.950 . S
C1098 C1096 1.391 . S
C1098 C1099 1.400 . S
C1099 C1098 1.400 . S
C1099 C1100 1.398 . S
C1099 C1105 1.491 . S
C1100 H1091 0.950 . S
C1100 C1099 1.398 . S
C1100 C1101 1.391 . S
C1101 H1089 0.950 . S
C1101 C1097 1.393 . S
C1101 C1100 1.391 . S
C1102 H1092 0.950 . S
C1102 C1103 1.386 . S
C1102 C1104 1.391 . S
C1103 C1102 1.386 . S
C1103 C1107 1.393 . S
C1104 H1093 0.950 . S
C1104 C1102 1.391 . S
C1104 C1105 1.400 . S
C1105 C1099 1.491 . S
C1105 C1104 1.400 . S
C1105 C1106 1.398 . S
C1106 H1094 0.950 . S
C1106 C1105 1.398 . S
C1106 C1107 1.391 . S
C1107 H1095 0.950 . S
C1107 C1103 1.393 . S
C1107 C1106 1.391 . S
H1108 C1116 0.950 . S
H1109 C1121 0.950 . S
H1110 C1118 0.950 . S
H1111 C1120 0.950 . S
H1112 C1122 0.950 . S
H1113 C1124 0.950 . S
H1114 C1126 0.950 . S
H1115 C1127 0.950 . S
C1116 H1108 0.950 . S
C1116 C1117 1.386 . S
C1116 C1118 1.391 . S
C1117 C1116 1.386 . S
C1117 C1121 1.393 . S
C1118 H1110 0.950 . S
C1118 C1116 1.391 . S
C1118 C1119 1.400 . S
C1119 C1118 1.400 . S
C1119 C1120 1.398 . S
C1119 C1125 1.491 . S
C1120 H1111 0.950 . S
C1120 C1119 1.398 . S
C1120 C1121 1.391 . S
C1121 H1109 0.950 . S
C1121 C1117 1.393 . S
C1121 C1120 1.391 . S
C1122 H1112 0.950 . S
C1122 C1123 1.386 . S
C1122 C1124 1.391 . S
C1123 C1122 1.386 . S
C1123 C1127 1.393 . S
C1124 H1113 0.950 . S
C1124 C1122 1.391 . S
C1124 C1125 1.400 . S
C1125 C1119 1.491 . S
C1125 C1124 1.400 . S
C1125 C1126 1.398 . S
C1126 H1114 0.950 . S
C1126 C1125 1.398 . S
C1126 C1127 1.391 . S
C1127 H1115 0.950 . S
C1127 C1123 1.393 . S
C1127 C1126 1.391 . S
H1128 C1136 0.950 . S
H1129 C1141 0.950 . S
H1130 C1138 0.950 . S
H1131 C1140 0.950 . S
H1132 C1142 0.950 . S
H1133 C1144 0.950 . S
H1134 C1146 0.950 . S
H1135 C1147 0.950 . S
C1136 H1128 0.950 . S
C1136 C1137 1.386 . S
C1136 C1138 1.391 . S
C1137 C1136 1.386 . S
C1137 C1141 1.393 . S
C1138 H1130 0.950 . S
C1138 C1136 1.391 . S
C1138 C1139 1.400 . S
C1139 C1138 1.400 . S
C1139 C1140 1.398 . S
C1139 C1145 1.491 . S
C1140 H1131 0.950 . S
C1140 C1139 1.398 . S
C1140 C1141 1.391 . S
C1141 H1129 0.950 . S
C1141 C1137 1.393 . S
C1141 C1140 1.391 . S
C1142 H1132 0.950 . S
C1142 C1143 1.386 . S
C1142 C1144 1.391 . S
C1143 C1142 1.386 . S
C1143 C1147 1.393 . S
C1144 H1133 0.950 . S
C1144 C1142 1.391 . S
C1144 C1145 1.400 . S
C1145 C1139 1.491 . S
C1145 C1144 1.400 . S
C1145 C1146 1.398 . S
C1146 H1134 0.950 . S
C1146 C1145 1.398 . S
C1146 C1147 1.391 . S
C1147 H1135 0.950 . S
C1147 C1143 1.393 . S
C1147 C1146 1.391 . S
H1148 C1156 0.950 . S
H1149 C1161 0.950 . S
H1150 C1158 0.950 . S
H1151 C1160 0.950 . S
H1152 C1162 0.950 . S
H1153 C1164 0.950 . S
H1154 C1166 0.950 . S
H1155 C1167 0.950 . S
C1156 H1148 0.950 . S
C1156 C1157 1.386 . S
C1156 C1158 1.391 . S
C1157 C1156 1.386 . S
C1157 C1161 1.393 . S
C1158 H1150 0.950 . S
C1158 C1156 1.391 . S
C1158 C1159 1.400 . S
C1159 C1158 1.400 . S
C1159 C1160 1.398 . S
C1159 C1165 1.491 . S
C1160 H1151 0.950 . S
C1160 C1159 1.398 . S
C1160 C1161 1.391 . S
C1161 H1149 0.950 . S
C1161 C1157 1.393 . S
C1161 C1160 1.391 . S
C1162 H1152 0.950 . S
C1162 C1163 1.386 . S
C1162 C1164 1.391 . S
C1163 C1162 1.386 . S
C1163 C1167 1.393 . S
C1164 H1153 0.950 . S
C1164 C1162 1.391 . S
C1164 C1165 1.400 . S
C1165 C1159 1.491 . S
C1165 C1164 1.400 . S
C1165 C1166 1.398 . S
C1166 H1154 0.950 . S
C1166 C1165 1.398 . S
C1166 C1167 1.391 . S
C1167 H1155 0.950 . S
C1167 C1163 1.393 . S
C1167 C1166 1.391 . S
H1168 C1176 0.950 . S
H1169 C1181 0.950 . S
H1170 C1178 0.950 . S
H1171 C1180 0.950 . S
H1172 C1182 0.950 . S
H1173 C1184 0.950 . S
H1174 C1186 0.950 . S
H1175 C1187 0.950 . S
C1176 H1168 0.950 . S
C1176 C1177 1.386 . S
C1176 C1178 1.391 . S
C1177 C1176 1.386 . S
C1177 C1181 1.393 . S
C1178 H1170 0.950 . S
C1178 C1176 1.391 . S
C1178 C1179 1.400 . S
C1179 C1178 1.400 . S
C1179 C1180 1.398 . S
C1179 C1185 1.491 . S
C1180 H1171 0.950 . S
C1180 C1179 1.398 . S
C1180 C1181 1.391 . S
C1181 H1169 0.950 . S
C1181 C1177 1.393 . S
C1181 C1180 1.391 . S
C1182 H1172 0.950 . S
C1182 C1183 1.386 . S
C1182 C1184 1.391 . S
C1183 C1182 1.386 . S
C1183 C1187 1.393 . S
C1184 H1173 0.950 . S
C1184 C1182 1.391 . S
C1184 C1185 1.400 . S
C1185 C1179 1.491 . S
C1185 C1184 1.400 . S
C1185 C1186 1.398 . S
C1186 H1174 0.950 . S
C1186 C1185 1.398 . S
C1186 C1187 1.391 . S
C1187 H1175 0.950 . S
C1187 C1183 1.393 . S
C1187 C1186 1.391 . S
H1188 C1196 0.950 . S
H1189 C1201 0.950 . S
H1190 C1198 0.950 . S
H1191 C1200 0.950 . S
H1192 C1202 0.950 . S
H1193 C1204 0.950 . S
H1194 C1206 0.950 . S
H1195 C1207 0.950 . S
C1196 H1188 0.950 . S
C1196 C1197 1.386 . S
C1196 C1198 1.391 . S
C1197 C1196 1.386 . S
C1197 C1201 1.393 . S
C1198 H1190 0.950 . S
C1198 C1196 1.391 . S
C1198 C1199 1.400 . S
C1199 C1198 1.400 . S
C1199 C1200 1.398 . S
C1199 C1205 1.491 . S
C1200 H1191 0.950 . S
C1200 C1199 1.398 . S
C1200 C1201 1.391 . S
C1201 H1189 0.950 . S
C1201 C1197 1.393 . S
C1201 C1200 1.391 . S
C1202 H1192 0.950 . S
C1202 C1203 1.386 . S
C1202 C1204 1.391 . S
C1203 C1202 1.386 . S
C1203 C1207 1.393 . S
C1204 H1193 0.950 . S
C1204 C1202 1.391 . S
C1204 C1205 1.400 . S
C1205 C1199 1.491 . S
C1205 C1204 1.400 . S
C1205 C1206 1.398 . S
C1206 H1194 0.950 . S
C1206 C1205 1.398 . S
C1206 C1207 1.391 . S
C1207 H1195 0.950 . S
C1207 C1203 1.393 . S
C1207 C1206 1.391 . S
H1208 C1216 0.950 . S
H1209 C1221 0.950 . S
H1210 C1218 0.950 . S
H1211 C1220 0.950 . S
H1212 C1222 0.950 . S
H1213 C1224 0.950 . S
H1214 C1226 0.950 . S
H1215 C1227 0.950 . S
C1216 H1208 0.950 . S
C1216 C1217 1.386 . S
C1216 C1218 1.391 . S
C1217 C1216 1.386 . S
C1217 C1221 1.393 . S
C1218 H1210 0.950 . S
C1218 C1216 1.391 . S
C1218 C1219 1.400 . S
C1219 C1218 1.400 . S
C1219 C1220 1.398 . S
C1219 C1225 1.491 . S
C1220 H1211 0.950 . S
C1220 C1219 1.398 . S
C1220 C1221 1.391 . S
C1221 H1209 0.950 . S
C1221 C1217 1.393 . S
C1221 C1220 1.391 . S
C1222 H1212 0.950 . S
C1222 C1223 1.386 . S
C1222 C1224 1.391 . S
C1223 C1222 1.386 . S
C1223 C1227 1.393 . S
C1224 H1213 0.950 . S
C1224 C1222 1.391 . S
C1224 C1225 1.400 . S
C1225 C1219 1.491 . S
C1225 C1224 1.400 . S
C1225 C1226 1.398 . S
C1226 H1214 0.950 . S
C1226 C1225 1.398 . S
C1226 C1227 1.391 . S
C1227 H1215 0.950 . S
C1227 C1223 1.393 . S
C1227 C1226 1.391 . S
H1228 C1236 0.950 . S
H1229 C1241 0.950 . S
H1230 C1238 0.950 . S
H1231 C1240 0.950 . S
H1232 C1242 0.950 . S
H1233 C1244 0.950 . S
H1234 C1246 0.950 . S
H1235 C1247 0.950 . S
C1236 H1228 0.950 . S
C1236 C1237 1.386 . S
C1236 C1238 1.391 . S
C1237 C1236 1.386 . S
C1237 C1241 1.393 . S
C1238 H1230 0.950 . S
C1238 C1236 1.391 . S
C1238 C1239 1.400 . S
C1239 C1238 1.400 . S
C1239 C1240 1.398 . S
C1239 C1245 1.491 . S
C1240 H1231 0.950 . S
C1240 C1239 1.398 . S
C1240 C1241 1.391 . S
C1241 H1229 0.950 . S
C1241 C1237 1.393 . S
C1241 C1240 1.391 . S
C1242 H1232 0.950 . S
C1242 C1243 1.386 . S
C1242 C1244 1.391 . S
C1243 C1242 1.386 . S
C1243 C1247 1.393 . S
C1244 H1233 0.950 . S
C1244 C1242 1.391 . S
C1244 C1245 1.400 . S
C1245 C1239 1.491 . S
C1245 C1244 1.400 . S
C1245 C1246 1.398 . S
C1246 H1234 0.950 . S
C1246 C1245 1.398 . S
C1246 C1247 1.391 . S
C1247 H1235 0.950 . S
C1247 C1243 1.393 . S
C1247 C1246 1.391 . S
H1248 C1256 0.950 . S
H1249 C1261 0.950 . S
H1250 C1258 0.950 . S
H1251 C1260 0.950 . S
H1252 C1262 0.950 . S
H1253 C1264 0.950 . S
H1254 C1266 0.950 . S
H1255 C1267 0.950 . S
C1256 H1248 0.950 . S
C1256 C1257 1.386 . S
C1256 C1258 1.391 . S
C1257 C1256 1.386 . S
C1257 C1261 1.393 . S
C1258 H1250 0.950 . S
C1258 C1256 1.391 . S
C1258 C1259 1.400 . S
C1259 C1258 1.400 . S
C1259 C1260 1.398 . S
C1259 C1265 1.491 . S
C1260 H1251 0.950 . S
C1260 C1259 1.398 . S
C1260 C1261 1.391 . S
C1261 H1249 0.950 . S
C1261 C1257 1.393 . S
C1261 C1260 1.391 . S
C1262 H1252 0.950 . S
C1262 C1263 1.386 . S
C1262 C1264 1.391 . S
C1263 C1262 1.386 . S
C1263 C1267 1.393 . S
C1264 H1253 0.950 . S
C1264 C1262 1.391 . S
C1264 C1265 1.400 . S
C1265 C1259 1.491 . S
C1265 C1264 1.400 . S
C1265 C1266 1.398 . S
C1266 H1254 0.950 . S
C1266 C1265 1.398 . S
C1266 C1267 1.391 . S
C1267 H1255 0.950 . S
C1267 C1263 1.393 . S
C1267 C1266 1.391 . S
H1268 C1276 0.950 . S
H1269 C1281 0.950 . S
H1270 C1278 0.950 . S
H1271 C1280 0.950 . S
H1272 C1282 0.950 . S
H1273 C1284 0.950 . S
H1274 C1286 0.950 . S
H1275 C1287 0.950 . S
C1276 H1268 0.950 . S
C1276 C1277 1.386 . S
C1276 C1278 1.391 . S
C1277 C1276 1.386 . S
C1277 C1281 1.393 . S
C1278 H1270 0.950 . S
C1278 C1276 1.391 . S
C1278 C1279 1.400 . S
C1279 C1278 1.400 . S
C1279 C1280 1.398 . S
C1279 C1285 1.491 . S
C1280 H1271 0.950 . S
C1280 C1279 1.398 . S
C1280 C1281 1.391 . S
C1281 H1269 0.950 . S
C1281 C1277 1.393 . S
C1281 C1280 1.391 . S
C1282 H1272 0.950 . S
C1282 C1283 1.386 . S
C1282 C1284 1.391 . S
C1283 C1282 1.386 . S
C1283 C1287 1.393 . S
C1284 H1273 0.950 . S
C1284 C1282 1.391 . S
C1284 C1285 1.400 . S
C1285 C1279 1.491 . S
C1285 C1284 1.400 . S
C1285 C1286 1.398 . S
C1286 H1274 0.950 . S
C1286 C1285 1.398 . S
C1286 C1287 1.391 . S
C1287 H1275 0.950 . S
C1287 C1283 1.393 . S
C1287 C1286 1.391 . S
H1288 C1296 0.950 . S
H1289 C1301 0.950 . S
H1290 C1298 0.950 . S
H1291 C1300 0.950 . S
H1292 C1302 0.950 . S
H1293 C1304 0.950 . S
H1294 C1306 0.950 . S
H1295 C1307 0.950 . S
C1296 H1288 0.950 . S
C1296 C1297 1.386 . S
C1296 C1298 1.391 . S
C1297 C1296 1.386 . S
C1297 C1301 1.393 . S
C1298 H1290 0.950 . S
C1298 C1296 1.391 . S
C1298 C1299 1.400 . S
C1299 C1298 1.400 . S
C1299 C1300 1.398 . S
C1299 C1305 1.491 . S
C1300 H1291 0.950 . S
C1300 C1299 1.398 . S
C1300 C1301 1.391 . S
C1301 H1289 0.950 . S
C1301 C1297 1.393 . S
C1301 C1300 1.391 . S
C1302 H1292 0.950 . S
C1302 C1303 1.386 . S
C1302 C1304 1.391 . S
C1303 C1302 1.386 . S
C1303 C1307 1.393 . S
C1304 H1293 0.950 . S
C1304 C1302 1.391 . S
C1304 C1305 1.400 . S
C1305 C1299 1.491 . S
C1305 C1304 1.400 . S
C1305 C1306 1.398 . S
C1306 H1294 0.950 . S
C1306 C1305 1.398 . S
C1306 C1307 1.391 . S
C1307 H1295 0.950 . S
C1307 C1303 1.393 . S
C1307 C1306 1.391 . S
H1308 C1316 0.950 . S
H1309 C1321 0.950 . S
H1310 C1318 0.950 . S
H1311 C1320 0.950 . S
H1312 C1322 0.950 . S
H1313 C1324 0.950 . S
H1314 C1326 0.950 . S
H1315 C1327 0.950 . S
C1316 H1308 0.950 . S
C1316 C1317 1.386 . S
C1316 C1318 1.391 . S
C1317 C1316 1.386 . S
C1317 C1321 1.393 . S
C1318 H1310 0.950 . S
C1318 C1316 1.391 . S
C1318 C1319 1.400 . S
C1319 C1318 1.400 . S
C1319 C1320 1.398 . S
C1319 C1325 1.491 . S
C1320 H1311 0.950 . S
C1320 C1319 1.398 . S
C1320 C1321 1.391 . S
C1321 H1309 0.950 . S
C1321 C1317 1.393 . S
C1321 C1320 1.391 . S
C1322 H1312 0.950 . S
C1322 C1323 1.386 . S
C1322 C1324 1.391 . S
C1323 C1322 1.386 . S
C1323 C1327 1.393 . S
C1324 H1313 0.950 . S
C1324 C1322 1.391 . S
C1324 C1325 1.400 . S
C1325 C1319 1.491 . S
C1325 C1324 1.400 . S
C1325 C1326 1.398 . S
C1326 H1314 0.950 . S
C1326 C1325 1.398 . S
C1326 C1327 1.391 . S
C1327 H1315 0.950 . S
C1327 C1323 1.393 . S
C1327 C1326 1.391 . S
H1328 C1336 0.950 . S
H1329 C1341 0.950 . S
H1330 C1338 0.950 . S
H1331 C1340 0.950 . S
H1332 C1342 0.950 . S
H1333 C1344 0.950 . S
H1334 C1346 0.950 . S
H1335 C1347 0.950 . S
C1336 H1328 0.950 . S
C1336 C1337 1.386 . S
C1336 C1338 1.391 . S
C1337 C1336 1.386 . S
C1337 C1341 1.393 . S
C1338 H1330 0.950 . S
C1338 C1336 1.391 . S
C1338 C1339 1.400 . S
C1339 C1338 1.400 . S
C1339 C1340 1.398 . S
C1339 C1345 1.491 . S
C1340 H1331 0.950 . S
C1340 C1339 1.398 . S
C1340 C1341 1.391 . S
C1341 H1329 0.950 . S
C1341 C1337 1.393 . S
C1341 C1340 1.391 . S
C1342 H1332 0.950 . S
C1342 C1343 1.386 . S
C1342 C1344 1.391 . S
C1343 C1342 1.386 . S
C1343 C1347 1.393 . S
C1344 H1333 0.950 . S
C1344 C1342 1.391 . S
C1344 C1345 1.400 . S
C1345 C1339 1.491 . S
C1345 C1344 1.400 . S
C1345 C1346 1.398 . S
C1346 H1334 0.950 . S
C1346 C1345 1.398 . S
C1346 C1347 1.391 . S
C1347 H1335 0.950 . S
C1347 C1343 1.393 . S
C1347 C1346 1.391 . S
H1348 C1356 0.950 . S
H1349 C1361 0.950 . S
H1350 C1358 0.950 . S
H1351 C1360 0.950 . S
H1352 C1362 0.950 . S
H1353 C1364 0.950 . S
H1354 C1366 0.950 . S
H1355 C1367 0.950 . S
C1356 H1348 0.950 . S
C1356 C1357 1.386 . S
C1356 C1358 1.391 . S
C1357 C1356 1.386 . S
C1357 C1361 1.393 . S
C1358 H1350 0.950 . S
C1358 C1356 1.391 . S
C1358 C1359 1.400 . S
C1359 C1358 1.400 . S
C1359 C1360 1.398 . S
C1359 C1365 1.491 . S
C1360 H1351 0.950 . S
C1360 C1359 1.398 . S
C1360 C1361 1.391 . S
C1361 H1349 0.950 . S
C1361 C1357 1.393 . S
C1361 C1360 1.391 . S
C1362 H1352 0.950 . S
C1362 C1363 1.386 . S
C1362 C1364 1.391 . S
C1363 C1362 1.386 . S
C1363 C1367 1.393 . S
C1364 H1353 0.950 . S
C1364 C1362 1.391 . S
C1364 C1365 1.400 . S
C1365 C1359 1.491 . S
C1365 C1364 1.400 . S
C1365 C1366 1.398 . S
C1366 H1354 0.950 . S
C1366 C1365 1.398 . S
C1366 C1367 1.391 . S
C1367 H1355 0.950 . S
C1367 C1363 1.393 . S
C1367 C1366 1.391 . S
H1368 C1376 0.950 . S
H1369 C1381 0.950 . S
H1370 C1378 0.950 . S
H1371 C1380 0.950 . S
H1372 C1382 0.950 . S
H1373 C1384 0.950 . S
H1374 C1386 0.950 . S
H1375 C1387 0.950 . S
C1376 H1368 0.950 . S
C1376 C1377 1.386 . S
C1376 C1378 1.391 . S
C1377 C1376 1.386 . S
C1377 C1381 1.393 . S
C1378 H1370 0.950 . S
C1378 C1376 1.391 . S
C1378 C1379 1.400 . S
C1379 C1378 1.400 . S
C1379 C1380 1.398 . S
C1379 C1385 1.491 . S
C1380 H1371 0.950 . S
C1380 C1379 1.398 . S
C1380 C1381 1.391 . S
C1381 H1369 0.950 . S
C1381 C1377 1.393 . S
C1381 C1380 1.391 . S
C1382 H1372 0.950 . S
C1382 C1383 1.386 . S
C1382 C1384 1.391 . S
C1383 C1382 1.386 . S
C1383 C1387 1.393 . S
C1384 H1373 0.950 . S
C1384 C1382 1.391 . S
C1384 C1385 1.400 . S
C1385 C1379 1.491 . S
C1385 C1384 1.400 . S
C1385 C1386 1.398 . S
C1386 H1374 0.950 . S
C1386 C1385 1.398 . S
C1386 C1387 1.391 . S
C1387 H1375 0.950 . S
C1387 C1383 1.393 . S
C1387 C1386 1.391 . S
H1388 C1396 0.950 . S
H1389 C1401 0.950 . S
H1390 C1398 0.950 . S
H1391 C1400 0.950 . S
H1392 C1402 0.950 . S
H1393 C1404 0.950 . S
H1394 C1406 0.950 . S
H1395 C1407 0.950 . S
C1396 H1388 0.950 . S
C1396 C1397 1.386 . S
C1396 C1398 1.391 . S
C1397 C1396 1.386 . S
C1397 C1401 1.393 . S
C1398 H1390 0.950 . S
C1398 C1396 1.391 . S
C1398 C1399 1.400 . S
C1399 C1398 1.400 . S
C1399 C1400 1.398 . S
C1399 C1405 1.491 . S
C1400 H1391 0.950 . S
C1400 C1399 1.398 . S
C1400 C1401 1.391 . S
C1401 H1389 0.950 . S
C1401 C1397 1.393 . S
C1401 C1400 1.391 . S
C1402 H1392 0.950 . S
C1402 C1403 1.386 . S
C1402 C1404 1.391 . S
C1403 C1402 1.386 . S
C1403 C1407 1.393 . S
C1404 H1393 0.950 . S
C1404 C1402 1.391 . S
C1404 C1405 1.400 . S
C1405 C1399 1.491 . S
C1405 C1404 1.400 . S
C1405 C1406 1.398 . S
C1406 H1394 0.950 . S
C1406 C1405 1.398 . S
C1406 C1407 1.391 . S
C1407 H1395 0.950 . S
C1407 C1403 1.393 . S
C1407 C1406 1.391 . S
H1408 C1416 0.950 . S
H1409 C1421 0.950 . S
H1410 C1418 0.950 . S
H1411 C1420 0.950 . S
H1412 C1422 0.950 . S
H1413 C1424 0.950 . S
H1414 C1426 0.950 . S
H1415 C1427 0.950 . S
C1416 H1408 0.950 . S
C1416 C1417 1.386 . S
C1416 C1418 1.391 . S
C1417 C1416 1.386 . S
C1417 C1421 1.393 . S
C1418 H1410 0.950 . S
C1418 C1416 1.391 . S
C1418 C1419 1.400 . S
C1419 C1418 1.400 . S
C1419 C1420 1.398 . S
C1419 C1425 1.491 1_655 S
C1420 H1411 0.950 . S
C1420 C1419 1.398 . S
C1420 C1421 1.391 . S
C1421 H1409 0.950 . S
C1421 C1417 1.393 . S
C1421 C1420 1.391 . S
C1422 H1412 0.950 . S
C1422 C1423 1.386 . S
C1422 C1424 1.391 . S
C1423 C1422 1.386 . S
C1423 C1427 1.393 . S
C1424 H1413 0.950 . S
C1424 C1422 1.391 . S
C1424 C1425 1.400 . S
C1425 C1419 1.491 1_455 S
C1425 C1424 1.400 . S
C1425 C1426 1.398 . S
C1426 H1414 0.950 . S
C1426 C1425 1.398 . S
C1426 C1427 1.391 . S
C1427 H1415 0.950 . S
C1427 C1423 1.393 . S
C1427 C1426 1.391 . S
H1428 C1436 0.950 . S
H1429 C1441 0.950 . S
H1430 C1438 0.950 . S
H1431 C1440 0.950 . S
H1432 C1442 0.950 . S
H1433 C1444 0.950 . S
H1434 C1446 0.950 . S
H1435 C1447 0.950 . S
C1436 H1428 0.950 . S
C1436 C1437 1.386 . S
C1436 C1438 1.391 . S
C1437 C1436 1.386 . S
C1437 C1441 1.393 . S
C1438 H1430 0.950 . S
C1438 C1436 1.391 . S
C1438 C1439 1.400 . S
C1439 C1438 1.400 . S
C1439 C1440 1.398 . S
C1439 C1445 1.491 1_655 S
C1440 H1431 0.950 . S
C1440 C1439 1.398 . S
C1440 C1441 1.391 . S
C1441 H1429 0.950 . S
C1441 C1437 1.393 . S
C1441 C1440 1.391 . S
C1442 H1432 0.950 . S
C1442 C1443 1.386 . S
C1442 C1444 1.391 . S
C1443 C1442 1.386 . S
C1443 C1447 1.393 . S
C1444 H1433 0.950 . S
C1444 C1442 1.391 . S
C1444 C1445 1.400 . S
C1445 C1439 1.491 1_455 S
C1445 C1444 1.400 . S
C1445 C1446 1.398 . S
C1446 H1434 0.950 . S
C1446 C1445 1.398 . S
C1446 C1447 1.391 . S
C1447 H1435 0.950 . S
C1447 C1443 1.393 . S
C1447 C1446 1.391 . S
H1448 C1456 0.950 . S
H1449 C1461 0.950 . S
H1450 C1458 0.950 . S
H1451 C1460 0.950 . S
H1452 C1462 0.950 . S
H1453 C1464 0.950 . S
H1454 C1466 0.950 . S
H1455 C1467 0.950 . S
C1456 H1448 0.950 . S
C1456 C1457 1.386 . S
C1456 C1458 1.391 . S
C1457 C1456 1.386 . S
C1457 C1461 1.393 . S
C1458 H1450 0.950 . S
C1458 C1456 1.391 . S
C1458 C1459 1.400 . S
C1459 C1458 1.400 . S
C1459 C1460 1.398 . S
C1459 C1465 1.491 . S
C1460 H1451 0.950 . S
C1460 C1459 1.398 . S
C1460 C1461 1.391 . S
C1461 H1449 0.950 . S
C1461 C1457 1.393 . S
C1461 C1460 1.391 . S
C1462 H1452 0.950 . S
C1462 C1463 1.386 . S
C1462 C1464 1.391 . S
C1463 C1462 1.386 . S
C1463 C1467 1.393 . S
C1464 H1453 0.950 . S
C1464 C1462 1.391 . S
C1464 C1465 1.400 . S
C1465 C1459 1.491 . S
C1465 C1464 1.400 . S
C1465 C1466 1.398 . S
C1466 H1454 0.950 . S
C1466 C1465 1.398 . S
C1466 C1467 1.391 . S
C1467 H1455 0.950 . S
C1467 C1463 1.393 . S
C1467 C1466 1.391 . S
H1468 C1476 0.950 . S
H1469 C1481 0.950 1_556 S
H1470 C1478 0.950 . S
H1471 C1480 0.950 1_556 S
H1472 C1482 0.950 1_556 S
H1473 C1484 0.950 1_556 S
H1474 C1486 0.950 . S
H1475 C1487 0.950 . S
C1476 H1468 0.950 . S
C1476 C1477 1.386 . S
C1476 C1478 1.391 . S
C1477 C1476 1.386 . S
C1477 C1481 1.393 . S
C1478 H1470 0.950 . S
C1478 C1476 1.391 . S
C1478 C1479 1.400 . S
C1479 C1478 1.400 . S
C1479 C1480 1.398 . S
C1479 C1485 1.491 . S
C1480 H1471 0.950 1_554 S
C1480 C1479 1.398 . S
C1480 C1481 1.391 . S
C1481 H1469 0.950 1_554 S
C1481 C1477 1.393 . S
C1481 C1480 1.391 . S
C1482 H1472 0.950 1_554 S
C1482 C1483 1.386 . S
C1482 C1484 1.391 . S
C1483 C1482 1.386 . S
C1483 C1487 1.393 . S
C1484 H1473 0.950 1_554 S
C1484 C1482 1.391 . S
C1484 C1485 1.400 . S
C1485 C1479 1.491 . S
C1485 C1484 1.400 . S
C1485 C1486 1.398 . S
C1486 H1474 0.950 . S
C1486 C1485 1.398 . S
C1486 C1487 1.391 . S
C1487 H1475 0.950 . S
C1487 C1483 1.393 . S
C1487 C1486 1.391 . S
H1488 C1496 0.950 . S
H1489 C1501 0.950 . S
H1490 C1498 0.950 . S
H1491 C1500 0.950 . S
H1492 C1502 0.950 . S
H1493 C1504 0.950 . S
H1494 C1506 0.950 . S
H1495 C1507 0.950 . S
C1496 H1488 0.950 . S
C1496 C1497 1.386 . S
C1496 C1498 1.391 . S
C1497 C1496 1.386 . S
C1497 C1501 1.393 . S
C1498 H1490 0.950 . S
C1498 C1496 1.391 . S
C1498 C1499 1.400 . S
C1499 C1498 1.400 . S
C1499 C1500 1.398 . S
C1499 C1505 1.491 1_655 S
C1500 H1491 0.950 . S
C1500 C1499 1.398 . S
C1500 C1501 1.391 . S
C1501 H1489 0.950 . S
C1501 C1497 1.393 . S
C1501 C1500 1.391 . S
C1502 H1492 0.950 . S
C1502 C1503 1.386 . S
C1502 C1504 1.391 . S
C1503 C1502 1.386 . S
C1503 C1507 1.393 . S
C1504 H1493 0.950 . S
C1504 C1502 1.391 . S
C1504 C1505 1.400 . S
C1505 C1499 1.491 1_455 S
C1505 C1504 1.400 . S
C1505 C1506 1.398 . S
C1506 H1494 0.950 . S
C1506 C1505 1.398 . S
C1506 C1507 1.391 . S
C1507 H1495 0.950 . S
C1507 C1503 1.393 . S
C1507 C1506 1.391 . S
H1508 C1516 0.950 . S
H1509 C1521 0.950 . S
H1510 C1518 0.950 . S
H1511 C1520 0.950 . S
H1512 C1522 0.950 . S
H1513 C1524 0.950 . S
H1514 C1526 0.950 . S
H1515 C1527 0.950 . S
C1516 H1508 0.950 . S
C1516 C1517 1.386 . S
C1516 C1518 1.391 . S
C1517 C1516 1.386 . S
C1517 C1521 1.393 . S
C1518 H1510 0.950 . S
C1518 C1516 1.391 . S
C1518 C1519 1.400 . S
C1519 C1518 1.400 . S
C1519 C1520 1.398 . S
C1519 C1525 1.491 . S
C1520 H1511 0.950 . S
C1520 C1519 1.398 . S
C1520 C1521 1.391 . S
C1521 H1509 0.950 . S
C1521 C1517 1.393 . S
C1521 C1520 1.391 . S
C1522 H1512 0.950 . S
C1522 C1523 1.386 . S
C1522 C1524 1.391 . S
C1523 C1522 1.386 . S
C1523 C1527 1.393 . S
C1524 H1513 0.950 . S
C1524 C1522 1.391 . S
C1524 C1525 1.400 . S
C1525 C1519 1.491 . S
C1525 C1524 1.400 . S
C1525 C1526 1.398 . S
C1526 H1514 0.950 . S
C1526 C1525 1.398 . S
C1526 C1527 1.391 . S
C1527 H1515 0.950 . S
C1527 C1523 1.393 . S
C1527 C1526 1.391 . S
H1528 C1536 0.950 . S
H1529 C1541 0.950 . S
H1530 C1538 0.950 . S
H1531 C1540 0.950 . S
H1532 C1542 0.950 . S
H1533 C1544 0.950 . S
H1534 C1546 0.950 . S
H1535 C1547 0.950 . S
C1536 H1528 0.950 . S
C1536 C1537 1.386 . S
C1536 C1538 1.391 . S
C1537 C1536 1.386 . S
C1537 C1541 1.393 . S
C1538 H1530 0.950 . S
C1538 C1536 1.391 . S
C1538 C1539 1.400 . S
C1539 C1538 1.400 . S
C1539 C1540 1.398 . S
C1539 C1545 1.491 . S
C1540 H1531 0.950 . S
C1540 C1539 1.398 . S
C1540 C1541 1.391 . S
C1541 H1529 0.950 . S
C1541 C1537 1.393 . S
C1541 C1540 1.391 . S
C1542 H1532 0.950 . S
C1542 C1543 1.386 . S
C1542 C1544 1.391 . S
C1543 C1542 1.386 . S
C1543 C1547 1.393 . S
C1544 H1533 0.950 . S
C1544 C1542 1.391 . S
C1544 C1545 1.400 . S
C1545 C1539 1.491 . S
C1545 C1544 1.400 . S
C1545 C1546 1.398 . S
C1546 H1534 0.950 . S
C1546 C1545 1.398 . S
C1546 C1547 1.391 . S
C1547 H1535 0.950 . S
C1547 C1543 1.393 . S
C1547 C1546 1.391 . S
H1548 C1556 0.950 . S
H1549 C1561 0.950 1_554 S
H1550 C1558 0.952 1_655 S
H1551 C1560 0.950 1_554 S
H1552 C1562 0.950 1_554 S
H1553 C1564 0.952 1_454 S
H1554 C1566 0.950 . S
H1555 C1567 0.950 . S
C1556 H1548 0.950 . S
C1556 C1557 1.386 . S
C1556 C1558 1.390 . S
C1557 C1556 1.386 . S
C1557 C1561 1.393 . S
C1558 H1550 0.952 1_455 S
C1558 C1556 1.390 . S
C1558 C1559 1.399 . S
C1559 C1558 1.399 . S
C1559 C1560 1.398 . S
C1559 C1565 1.491 1_455 S
C1560 H1551 0.950 1_556 S
C1560 C1559 1.398 . S
C1560 C1561 1.391 . S
C1561 H1549 0.950 1_556 S
C1561 C1557 1.393 . S
C1561 C1560 1.391 . S
C1562 H1552 0.950 1_556 S
C1562 C1563 1.386 . S
C1562 C1564 1.390 . S
C1563 C1562 1.386 . S
C1563 C1567 1.393 . S
C1564 H1553 0.952 1_656 S
C1564 C1562 1.390 . S
C1564 C1565 1.400 . S
C1565 C1559 1.491 1_655 S
C1565 C1564 1.400 . S
C1565 C1566 1.398 . S
C1566 H1554 0.950 . S
C1566 C1565 1.398 . S
C1566 C1567 1.391 . S
C1567 H1555 0.950 . S
C1567 C1563 1.393 . S
C1567 C1566 1.391 . S
H1568 C1576 0.950 . S
H1569 C1581 0.950 . S
H1570 C1578 0.950 . S
H1571 C1580 0.950 . S
H1572 C1582 0.950 . S
H1573 C1584 0.950 . S
H1574 C1586 0.950 . S
H1575 C1587 0.950 . S
C1576 H1568 0.950 . S
C1576 C1577 1.386 . S
C1576 C1578 1.391 . S
C1577 C1576 1.386 . S
C1577 C1581 1.393 . S
C1578 H1570 0.950 . S
C1578 C1576 1.391 . S
C1578 C1579 1.400 . S
C1579 C1578 1.400 . S
C1579 C1580 1.398 . S
C1579 C1585 1.491 1_655 S
C1580 H1571 0.950 . S
C1580 C1579 1.398 . S
C1580 C1581 1.391 . S
C1581 H1569 0.950 . S
C1581 C1577 1.393 . S
C1581 C1580 1.391 . S
C1582 H1572 0.950 . S
C1582 C1583 1.386 . S
C1582 C1584 1.391 . S
C1583 C1582 1.386 . S
C1583 C1587 1.393 . S
C1584 H1573 0.950 . S
C1584 C1582 1.391 . S
C1584 C1585 1.400 . S
C1585 C1579 1.491 1_455 S
C1585 C1584 1.400 . S
C1585 C1586 1.398 . S
C1586 H1574 0.950 . S
C1586 C1585 1.398 . S
C1586 C1587 1.391 . S
C1587 H1575 0.950 . S
C1587 C1583 1.393 . S
C1587 C1586 1.391 . S
H1588 C1596 0.950 . S
H1589 C1601 0.950 . S
H1590 C1598 0.950 . S
H1591 C1600 0.950 . S
H1592 C1602 0.950 . S
H1593 C1604 0.950 . S
H1594 C1606 0.950 . S
H1595 C1607 0.950 . S
C1596 H1588 0.950 . S
C1596 C1597 1.386 . S
C1596 C1598 1.391 . S
C1597 C1596 1.386 . S
C1597 C1601 1.393 . S
C1598 H1590 0.950 . S
C1598 C1596 1.391 . S
C1598 C1599 1.400 . S
C1599 C1598 1.400 . S
C1599 C1600 1.398 . S
C1599 C1605 1.491 1_455 S
C1600 H1591 0.950 . S
C1600 C1599 1.398 . S
C1600 C1601 1.391 . S
C1601 H1589 0.950 . S
C1601 C1597 1.393 . S
C1601 C1600 1.391 . S
C1602 H1592 0.950 . S
C1602 C1603 1.386 . S
C1602 C1604 1.391 . S
C1603 C1602 1.386 . S
C1603 C1607 1.393 . S
C1604 H1593 0.950 . S
C1604 C1602 1.391 . S
C1604 C1605 1.400 . S
C1605 C1599 1.491 1_655 S
C1605 C1604 1.400 . S
C1605 C1606 1.398 . S
C1606 H1594 0.950 . S
C1606 C1605 1.398 . S
C1606 C1607 1.391 . S
C1607 H1595 0.950 . S
C1607 C1603 1.393 . S
C1607 C1606 1.391 . S
H1608 C1616 0.950 . S
H1609 C1621 0.950 . S
H1610 C1618 0.950 . S
H1611 C1620 0.950 . S
H1612 C1622 0.950 . S
H1613 C1624 0.950 . S
H1614 C1626 0.950 . S
H1615 C1627 0.950 . S
C1616 H1608 0.950 . S
C1616 C1617 1.386 . S
C1616 C1618 1.391 . S
C1617 C1616 1.386 . S
C1617 C1621 1.393 . S
C1618 H1610 0.950 . S
C1618 C1616 1.391 . S
C1618 C1619 1.400 . S
C1619 C1618 1.400 . S
C1619 C1620 1.398 . S
C1619 C1625 1.491 . S
C1620 H1611 0.950 . S
C1620 C1619 1.398 . S
C1620 C1621 1.391 . S
C1621 H1609 0.950 . S
C1621 C1617 1.393 . S
C1621 C1620 1.391 . S
C1622 H1612 0.950 . S
C1622 C1623 1.386 . S
C1622 C1624 1.391 . S
C1623 C1622 1.386 . S
C1623 C1627 1.393 . S
C1624 H1613 0.950 . S
C1624 C1622 1.391 . S
C1624 C1625 1.400 . S
C1625 C1619 1.491 . S
C1625 C1624 1.400 . S
C1625 C1626 1.398 . S
C1626 H1614 0.950 . S
C1626 C1625 1.398 . S
C1626 C1627 1.391 . S
C1627 H1615 0.950 . S
C1627 C1623 1.393 . S
C1627 C1626 1.391 . S
H1628 C1636 0.950 . S
H1629 C1641 0.950 . S
H1630 C1638 0.950 . S
H1631 C1640 0.950 . S
H1632 C1642 0.950 . S
H1633 C1644 0.950 . S
H1634 C1646 0.950 . S
H1635 C1647 0.950 . S
C1636 H1628 0.950 . S
C1636 C1637 1.386 . S
C1636 C1638 1.391 . S
C1637 C1636 1.386 . S
C1637 C1641 1.393 . S
C1638 H1630 0.950 . S
C1638 C1636 1.391 . S
C1638 C1639 1.400 . S
C1639 C1638 1.400 . S
C1639 C1640 1.398 . S
C1639 C1645 1.491 . S
C1640 H1631 0.950 . S
C1640 C1639 1.398 . S
C1640 C1641 1.391 . S
C1641 H1629 0.950 . S
C1641 C1637 1.393 . S
C1641 C1640 1.391 . S
C1642 H1632 0.950 . S
C1642 C1643 1.386 . S
C1642 C1644 1.391 . S
C1643 C1642 1.386 . S
C1643 C1647 1.393 . S
C1644 H1633 0.950 . S
C1644 C1642 1.391 . S
C1644 C1645 1.400 . S
C1645 C1639 1.491 . S
C1645 C1644 1.400 . S
C1645 C1646 1.398 . S
C1646 H1634 0.950 . S
C1646 C1645 1.398 . S
C1646 C1647 1.391 . S
C1647 H1635 0.950 . S
C1647 C1643 1.393 . S
C1647 C1646 1.391 . S
H1648 C1656 0.950 . S
H1649 C1661 0.950 . S
H1650 C1658 0.950 . S
H1651 C1660 0.950 . S
H1652 C1662 0.950 . S
H1653 C1664 0.950 . S
H1654 C1666 0.950 . S
H1655 C1667 0.950 . S
C1656 H1648 0.950 . S
C1656 C1657 1.386 . S
C1656 C1658 1.391 . S
C1657 C1656 1.386 . S
C1657 C1661 1.393 . S
C1658 H1650 0.950 . S
C1658 C1656 1.391 . S
C1658 C1659 1.400 . S
C1659 C1658 1.400 . S
C1659 C1660 1.398 . S
C1659 C1665 1.491 1_655 S
C1660 H1651 0.950 . S
C1660 C1659 1.398 . S
C1660 C1661 1.391 . S
C1661 H1649 0.950 . S
C1661 C1657 1.393 . S
C1661 C1660 1.391 . S
C1662 H1652 0.950 . S
C1662 C1663 1.386 . S
C1662 C1664 1.391 . S
C1663 C1662 1.386 . S
C1663 C1667 1.393 . S
C1664 H1653 0.950 . S
C1664 C1662 1.391 . S
C1664 C1665 1.400 . S
C1665 C1659 1.491 1_455 S
C1665 C1664 1.400 . S
C1665 C1666 1.398 . S
C1666 H1654 0.950 . S
C1666 C1665 1.398 . S
C1666 C1667 1.391 . S
C1667 H1655 0.950 . S
C1667 C1663 1.393 . S
C1667 C1666 1.391 . S
H1668 C1676 0.950 . S
H1669 C1681 0.950 . S
H1670 C1678 0.950 . S
H1671 C1680 0.950 . S
H1672 C1682 0.950 . S
H1673 C1684 0.950 . S
H1674 C1686 0.950 . S
H1675 C1687 0.950 . S
C1676 H1668 0.950 . S
C1676 C1677 1.386 . S
C1676 C1678 1.391 . S
C1677 C1676 1.386 . S
C1677 C1681 1.393 . S
C1678 H1670 0.950 . S
C1678 C1676 1.391 . S
C1678 C1679 1.400 . S
C1679 C1678 1.400 . S
C1679 C1680 1.398 . S
C1679 C1685 1.491 . S
C1680 H1671 0.950 . S
C1680 C1679 1.398 . S
C1680 C1681 1.391 . S
C1681 H1669 0.950 . S
C1681 C1677 1.393 . S
C1681 C1680 1.391 . S
C1682 H1672 0.950 . S
C1682 C1683 1.386 . S
C1682 C1684 1.391 . S
C1683 C1682 1.386 . S
C1683 C1687 1.393 . S
C1684 H1673 0.950 . S
C1684 C1682 1.391 . S
C1684 C1685 1.400 . S
C1685 C1679 1.491 . S
C1685 C1684 1.400 . S
C1685 C1686 1.398 . S
C1686 H1674 0.950 . S
C1686 C1685 1.398 . S
C1686 C1687 1.391 . S
C1687 H1675 0.950 . S
C1687 C1683 1.393 . S
C1687 C1686 1.391 . S
H1688 C1696 0.950 . S
H1689 C1701 0.950 . S
H1690 C1698 0.950 . S
H1691 C1700 0.950 . S
H1692 C1702 0.950 . S
H1693 C1704 0.950 . S
H1694 C1706 0.950 . S
H1695 C1707 0.950 . S
C1696 H1688 0.950 . S
C1696 C1697 1.386 . S
C1696 C1698 1.391 . S
C1697 C1696 1.386 . S
C1697 C1701 1.393 . S
C1698 H1690 0.950 . S
C1698 C1696 1.391 . S
C1698 C1699 1.400 . S
C1699 C1698 1.400 . S
C1699 C1700 1.398 . S
C1699 C1705 1.491 . S
C1700 H1691 0.950 . S
C1700 C1699 1.398 . S
C1700 C1701 1.391 . S
C1701 H1689 0.950 . S
C1701 C1697 1.393 . S
C1701 C1700 1.391 . S
C1702 H1692 0.950 . S
C1702 C1703 1.386 . S
C1702 C1704 1.391 . S
C1703 C1702 1.386 . S
C1703 C1707 1.393 . S
C1704 H1693 0.950 . S
C1704 C1702 1.391 . S
C1704 C1705 1.400 . S
C1705 C1699 1.491 . S
C1705 C1704 1.400 . S
C1705 C1706 1.398 . S
C1706 H1694 0.950 . S
C1706 C1705 1.398 . S
C1706 C1707 1.391 . S
C1707 H1695 0.950 . S
C1707 C1703 1.393 . S
C1707 C1706 1.391 . S
H1708 C1716 0.950 . S
H1709 C1721 0.950 1_655 S
H1710 C1718 0.950 . S
H1711 C1720 0.950 . S
H1712 C1722 0.950 . S
H1713 C1724 0.950 . S
H1714 C1726 0.950 . S
H1715 C1727 0.950 1_455 S
C1716 H1708 0.950 . S
C1716 C1717 1.386 . S
C1716 C1718 1.391 . S
C1717 C1716 1.386 . S
C1717 C1721 1.393 . S
C1718 H1710 0.950 . S
C1718 C1716 1.391 . S
C1718 C1719 1.400 . S
C1719 C1718 1.400 . S
C1719 C1720 1.398 1_455 S
C1719 C1725 1.491 1_455 S
C1720 H1711 0.950 . S
C1720 C1719 1.398 1_655 S
C1720 C1721 1.391 1_655 S
C1721 H1709 0.950 1_455 S
C1721 C1717 1.393 . S
C1721 C1720 1.391 1_455 S
C1722 H1712 0.950 . S
C1722 C1723 1.386 . S
C1722 C1724 1.391 . S
C1723 C1722 1.386 . S
C1723 C1727 1.393 . S
C1724 H1713 0.950 . S
C1724 C1722 1.391 . S
C1724 C1725 1.400 . S
C1725 C1719 1.491 1_655 S
C1725 C1724 1.400 . S
C1725 C1726 1.398 1_655 S
C1726 H1714 0.950 . S
C1726 C1725 1.398 1_455 S
C1726 C1727 1.391 1_455 S
C1727 H1715 0.950 1_655 S
C1727 C1723 1.393 . S
C1727 C1726 1.391 1_655 S
H1728 C1736 0.950 . S
H1729 C1741 0.950 . S
H1730 C1738 0.950 . S
H1731 C1740 0.950 . S
H1732 C1742 0.950 . S
H1733 C1744 0.950 . S
H1734 C1746 0.950 . S
H1735 C1747 0.950 . S
C1736 H1728 0.950 . S
C1736 C1737 1.386 . S
C1736 C1738 1.391 . S
C1737 C1736 1.386 . S
C1737 C1741 1.393 . S
C1738 H1730 0.950 . S
C1738 C1736 1.391 . S
C1738 C1739 1.400 . S
C1739 C1738 1.400 . S
C1739 C1740 1.398 . S
C1739 C1745 1.491 . S
C1740 H1731 0.950 . S
C1740 C1739 1.398 . S
C1740 C1741 1.391 . S
C1741 H1729 0.950 . S
C1741 C1737 1.393 . S
C1741 C1740 1.391 . S
C1742 H1732 0.950 . S
C1742 C1743 1.386 . S
C1742 C1744 1.391 . S
C1743 C1742 1.386 . S
C1743 C1747 1.393 . S
C1744 H1733 0.950 . S
C1744 C1742 1.391 . S
C1744 C1745 1.400 . S
C1745 C1739 1.491 . S
C1745 C1744 1.400 . S
C1745 C1746 1.398 . S
C1746 H1734 0.950 . S
C1746 C1745 1.398 . S
C1746 C1747 1.391 . S
C1747 H1735 0.950 . S
C1747 C1743 1.393 . S
C1747 C1746 1.391 . S
H1748 C1756 0.950 . S
H1749 C1761 0.950 . S
H1750 C1758 0.950 . S
H1751 C1760 0.950 . S
H1752 C1762 0.950 1_455 S
H1753 C1764 0.950 . S
H1754 C1766 0.950 . S
H1755 C1767 0.950 . S
C1756 H1748 0.950 . S
C1756 C1757 1.386 . S
C1756 C1758 1.391 . S
C1757 C1756 1.386 . S
C1757 C1761 1.393 . S
C1758 H1750 0.950 . S
C1758 C1756 1.391 . S
C1758 C1759 1.400 . S
C1759 C1758 1.400 . S
C1759 C1760 1.398 . S
C1759 C1765 1.491 . S
C1760 H1751 0.950 . S
C1760 C1759 1.398 . S
C1760 C1761 1.391 . S
C1761 H1749 0.950 . S
C1761 C1757 1.393 . S
C1761 C1760 1.391 . S
C1762 H1752 0.950 1_655 S
C1762 C1763 1.386 . S
C1762 C1764 1.391 . S
C1763 C1762 1.386 . S
C1763 C1767 1.393 . S
C1764 H1753 0.950 . S
C1764 C1762 1.391 . S
C1764 C1765 1.400 . S
C1765 C1759 1.491 . S
C1765 C1764 1.400 . S
C1765 C1766 1.398 . S
C1766 H1754 0.950 . S
C1766 C1765 1.398 . S
C1766 C1767 1.391 . S
C1767 H1755 0.950 . S
C1767 C1763 1.393 . S
C1767 C1766 1.391 . S
H1768 C1776 0.950 . S
H1769 C1781 0.950 . S
H1770 C1778 0.950 . S
H1771 C1780 0.950 . S
H1772 C1782 0.950 . S
H1773 C1784 0.950 . S
H1774 C1786 0.950 . S
H1775 C1787 0.950 . S
C1776 H1768 0.950 . S
C1776 C1777 1.386 . S
C1776 C1778 1.391 . S
C1777 C1776 1.386 . S
C1777 C1781 1.393 . S
C1778 H1770 0.950 . S
C1778 C1776 1.391 . S
C1778 C1779 1.400 . S
C1779 C1778 1.400 . S
C1779 C1780 1.398 . S
C1779 C1785 1.491 . S
C1780 H1771 0.950 . S
C1780 C1779 1.398 . S
C1780 C1781 1.391 . S
C1781 H1769 0.950 . S
C1781 C1777 1.393 . S
C1781 C1780 1.391 . S
C1782 H1772 0.950 . S
C1782 C1783 1.386 . S
C1782 C1784 1.391 . S
C1783 C1782 1.386 . S
C1783 C1787 1.393 . S
C1784 H1773 0.950 . S
C1784 C1782 1.391 . S
C1784 C1785 1.400 . S
C1785 C1779 1.491 . S
C1785 C1784 1.400 . S
C1785 C1786 1.398 . S
C1786 H1774 0.950 . S
C1786 C1785 1.398 . S
C1786 C1787 1.391 . S
C1787 H1775 0.950 . S
C1787 C1783 1.393 . S
C1787 C1786 1.391 . S
H1788 C1796 0.950 . S
H1789 C1801 0.950 . S
H1790 C1798 0.950 . S
H1791 C1800 0.950 . S
H1792 C1802 0.950 . S
H1793 C1804 0.950 . S
H1794 C1806 0.950 . S
H1795 C1807 0.950 . S
C1796 H1788 0.950 . S
C1796 C1797 1.386 . S
C1796 C1798 1.391 . S
C1797 C1796 1.386 . S
C1797 C1801 1.393 . S
C1798 H1790 0.950 . S
C1798 C1796 1.391 . S
C1798 C1799 1.400 . S
C1799 C1798 1.400 . S
C1799 C1800 1.398 . S
C1799 C1805 1.491 . S
C1800 H1791 0.950 . S
C1800 C1799 1.398 . S
C1800 C1801 1.391 . S
C1801 H1789 0.950 . S
C1801 C1797 1.393 . S
C1801 C1800 1.391 . S
C1802 H1792 0.950 . S
C1802 C1803 1.386 . S
C1802 C1804 1.391 . S
C1803 C1802 1.386 . S
C1803 C1807 1.393 . S
C1804 H1793 0.950 . S
C1804 C1802 1.391 . S
C1804 C1805 1.400 . S
C1805 C1799 1.491 . S
C1805 C1804 1.400 . S
C1805 C1806 1.398 . S
C1806 H1794 0.950 . S
C1806 C1805 1.398 . S
C1806 C1807 1.391 . S
C1807 H1795 0.950 . S
C1807 C1803 1.393 . S
C1807 C1806 1.391 . S
H1808 C1816 0.950 . S
H1809 C1821 0.950 . S
H1810 C1818 0.950 . S
H1811 C1820 0.950 . S
H1812 C1822 0.950 . S
H1813 C1824 0.950 . S
H1814 C1826 0.950 . S
H1815 C1827 0.950 . S
C1816 H1808 0.950 . S
C1816 C1817 1.386 . S
C1816 C1818 1.391 . S
C1817 C1816 1.386 . S
C1817 C1821 1.393 . S
C1818 H1810 0.950 . S
C1818 C1816 1.391 . S
C1818 C1819 1.400 . S
C1819 C1818 1.400 . S
C1819 C1820 1.398 . S
C1819 C1825 1.491 . S
C1820 H1811 0.950 . S
C1820 C1819 1.398 . S
C1820 C1821 1.391 . S
C1821 H1809 0.950 . S
C1821 C1817 1.393 . S
C1821 C1820 1.391 . S
C1822 H1812 0.950 . S
C1822 C1823 1.386 . S
C1822 C1824 1.391 . S
C1823 C1822 1.386 . S
C1823 C1827 1.393 . S
C1824 H1813 0.950 . S
C1824 C1822 1.391 . S
C1824 C1825 1.400 . S
C1825 C1819 1.491 . S
C1825 C1824 1.400 . S
C1825 C1826 1.398 . S
C1826 H1814 0.950 . S
C1826 C1825 1.398 . S
C1826 C1827 1.391 . S
C1827 H1815 0.950 . S
C1827 C1823 1.393 . S
C1827 C1826 1.391 . S
H1828 C1836 0.950 . S
H1829 C1841 0.950 . S
H1830 C1838 0.950 . S
H1831 C1840 0.950 . S
H1832 C1842 0.950 . S
H1833 C1844 0.950 . S
H1834 C1846 0.950 . S
H1835 C1847 0.950 . S
C1836 H1828 0.950 . S
C1836 C1837 1.386 . S
C1836 C1838 1.391 . S
C1837 C1836 1.386 . S
C1837 C1841 1.393 . S
C1838 H1830 0.950 . S
C1838 C1836 1.391 . S
C1838 C1839 1.400 . S
C1839 C1838 1.400 . S
C1839 C1840 1.398 . S
C1839 C1845 1.491 . S
C1840 H1831 0.950 . S
C1840 C1839 1.398 . S
C1840 C1841 1.391 . S
C1841 H1829 0.950 . S
C1841 C1837 1.393 . S
C1841 C1840 1.391 . S
C1842 H1832 0.950 . S
C1842 C1843 1.386 . S
C1842 C1844 1.391 . S
C1843 C1842 1.386 . S
C1843 C1847 1.393 . S
C1844 H1833 0.950 . S
C1844 C1842 1.391 . S
C1844 C1845 1.400 . S
C1845 C1839 1.491 . S
C1845 C1844 1.400 . S
C1845 C1846 1.398 . S
C1846 H1834 0.950 . S
C1846 C1845 1.398 . S
C1846 C1847 1.391 . S
C1847 H1835 0.950 . S
C1847 C1843 1.393 . S
C1847 C1846 1.391 . S
H1848 C1856 0.950 . S
H1849 C1861 0.950 . S
H1850 C1858 0.950 . S
H1851 C1860 0.950 . S
H1852 C1862 0.950 . S
H1853 C1864 0.950 . S
H1854 C1866 0.950 . S
H1855 C1867 0.950 . S
C1856 H1848 0.950 . S
C1856 C1857 1.386 . S
C1856 C1858 1.391 . S
C1857 C1856 1.386 . S
C1857 C1861 1.393 . S
C1858 H1850 0.950 . S
C1858 C1856 1.391 . S
C1858 C1859 1.400 . S
C1859 C1858 1.400 . S
C1859 C1860 1.398 . S
C1859 C1865 1.491 . S
C1860 H1851 0.950 . S
C1860 C1859 1.398 . S
C1860 C1861 1.391 . S
C1861 H1849 0.950 . S
C1861 C1857 1.393 . S
C1861 C1860 1.391 . S
C1862 H1852 0.950 . S
C1862 C1863 1.386 . S
C1862 C1864 1.391 . S
C1863 C1862 1.386 . S
C1863 C1867 1.393 . S
C1864 H1853 0.950 . S
C1864 C1862 1.391 . S
C1864 C1865 1.400 . S
C1865 C1859 1.491 . S
C1865 C1864 1.400 . S
C1865 C1866 1.398 . S
C1866 H1854 0.950 . S
C1866 C1865 1.398 . S
C1866 C1867 1.391 . S
C1867 H1855 0.950 . S
C1867 C1863 1.393 . S
C1867 C1866 1.391 . S
H1868 C1876 0.950 . S
H1869 C1881 0.950 . S
H1870 C1878 0.950 . S
H1871 C1880 0.950 . S
H1872 C1882 0.950 . S
H1873 C1884 0.950 . S
H1874 C1886 0.950 . S
H1875 C1887 0.950 . S
C1876 H1868 0.950 . S
C1876 C1877 1.386 . S
C1876 C1878 1.391 . S
C1877 C1876 1.386 . S
C1877 C1881 1.393 . S
C1878 H1870 0.950 . S
C1878 C1876 1.391 . S
C1878 C1879 1.400 . S
C1879 C1878 1.400 . S
C1879 C1880 1.398 . S
C1879 C1885 1.491 . S
C1880 H1871 0.950 . S
C1880 C1879 1.398 . S
C1880 C1881 1.391 . S
C1881 H1869 0.950 . S
C1881 C1877 1.393 . S
C1881 C1880 1.391 . S
C1882 H1872 0.950 . S
C1882 C1883 1.386 . S
C1882 C1884 1.391 . S
C1883 C1882 1.386 . S
C1883 C1887 1.393 . S
C1884 H1873 0.950 . S
C1884 C1882 1.391 . S
C1884 C1885 1.400 . S
C1885 C1879 1.491 . S
C1885 C1884 1.400 . S
C1885 C1886 1.398 . S
C1886 H1874 0.950 . S
C1886 C1885 1.398 . S
C1886 C1887 1.391 . S
C1887 H1875 0.950 . S
C1887 C1883 1.393 . S
C1887 C1886 1.391 . S
H1888 C1896 0.950 . S
H1889 C1901 0.950 . S
H1890 C1898 0.950 . S
H1891 C1900 0.950 . S
H1892 C1902 0.950 . S
H1893 C1904 0.950 . S
H1894 C1906 0.950 . S
H1895 C1907 0.950 . S
C1896 H1888 0.950 . S
C1896 C1897 1.386 . S
C1896 C1898 1.391 . S
C1897 C1896 1.386 . S
C1897 C1901 1.393 . S
C1898 H1890 0.950 . S
C1898 C1896 1.391 . S
C1898 C1899 1.400 . S
C1899 C1898 1.400 . S
C1899 C1900 1.398 . S
C1899 C1905 1.491 . S
C1900 H1891 0.950 . S
C1900 C1899 1.398 . S
C1900 C1901 1.391 . S
C1901 H1889 0.950 . S
C1901 C1897 1.393 . S
C1901 C1900 1.391 . S
C1902 H1892 0.950 . S
C1902 C1903 1.386 . S
C1902 C1904 1.391 . S
C1903 C1902 1.386 . S
C1903 C1907 1.393 . S
C1904 H1893 0.950 . S
C1904 C1902 1.391 . S
C1904 C1905 1.400 . S
C1905 C1899 1.491 . S
C1905 C1904 1.400 . S
C1905 C1906 1.398 . S
C1906 H1894 0.950 . S
C1906 C1905 1.398 . S
C1906 C1907 1.391 . S
C1907 H1895 0.950 . S
C1907 C1903 1.393 . S
C1907 C1906 1.391 . S
H1908 C1916 0.950 1_655 S
H1909 C1921 0.950 . S
H1910 C1918 0.950 . S
H1911 C1920 0.950 . S
H1912 C1922 0.950 . S
H1913 C1924 0.950 . S
H1914 C1926 0.950 . S
H1915 C1927 0.950 . S
C1916 H1908 0.950 1_455 S
C1916 C1917 1.386 . S
C1916 C1918 1.391 . S
C1917 C1916 1.386 . S
C1917 C1921 1.393 . S
C1918 H1910 0.950 . S
C1918 C1916 1.391 . S
C1918 C1919 1.400 . S
C1919 C1918 1.400 . S
C1919 C1920 1.398 . S
C1919 C1925 1.491 . S
C1920 H1911 0.950 . S
C1920 C1919 1.398 . S
C1920 C1921 1.391 . S
C1921 H1909 0.950 . S
C1921 C1917 1.393 . S
C1921 C1920 1.391 . S
C1922 H1912 0.950 . S
C1922 C1923 1.386 . S
C1922 C1924 1.391 . S
C1923 C1922 1.386 . S
C1923 C1927 1.393 . S
C1924 H1913 0.950 . S
C1924 C1922 1.391 . S
C1924 C1925 1.400 . S
C1925 C1919 1.491 . S
C1925 C1924 1.400 . S
C1925 C1926 1.398 . S
C1926 H1914 0.950 . S
C1926 C1925 1.398 . S
C1926 C1927 1.391 . S
C1927 H1915 0.950 . S
C1927 C1923 1.393 . S
C1927 C1926 1.391 . S
H1928 C1936 0.950 . S
H1929 C1941 0.950 . S
H1930 C1938 0.950 . S
H1931 C1940 0.950 . S
H1932 C1942 0.950 . S
H1933 C1944 0.950 . S
H1934 C1946 0.950 . S
H1935 C1947 0.950 . S
C1936 H1928 0.950 . S
C1936 C1937 1.386 . S
C1936 C1938 1.391 . S
C1937 C1936 1.386 . S
C1937 C1941 1.393 . S
C1938 H1930 0.950 . S
C1938 C1936 1.391 . S
C1938 C1939 1.400 . S
C1939 C1938 1.400 . S
C1939 C1940 1.398 . S
C1939 C1945 1.491 . S
C1940 H1931 0.950 . S
C1940 C1939 1.398 . S
C1940 C1941 1.391 . S
C1941 H1929 0.950 . S
C1941 C1937 1.393 . S
C1941 C1940 1.391 . S
C1942 H1932 0.950 . S
C1942 C1943 1.386 . S
C1942 C1944 1.391 . S
C1943 C1942 1.386 . S
C1943 C1947 1.393 . S
C1944 H1933 0.950 . S
C1944 C1942 1.391 . S
C1944 C1945 1.400 . S
C1945 C1939 1.491 . S
C1945 C1944 1.400 . S
C1945 C1946 1.398 . S
C1946 H1934 0.950 . S
C1946 C1945 1.398 . S
C1946 C1947 1.391 . S
C1947 H1935 0.950 . S
C1947 C1943 1.393 . S
C1947 C1946 1.391 . S
H1948 C1956 0.950 . S
H1949 C1961 0.950 . S
H1950 C1958 0.950 . S
H1951 C1960 0.950 . S
H1952 C1962 0.950 . S
H1953 C1964 0.950 . S
H1954 C1966 0.950 . S
H1955 C1967 0.950 . S
C1956 H1948 0.950 . S
C1956 C1957 1.386 . S
C1956 C1958 1.391 . S
C1957 C1956 1.386 . S
C1957 C1961 1.393 . S
C1958 H1950 0.950 . S
C1958 C1956 1.391 . S
C1958 C1959 1.400 . S
C1959 C1958 1.400 . S
C1959 C1960 1.398 . S
C1959 C1965 1.491 . S
C1960 H1951 0.950 . S
C1960 C1959 1.398 . S
C1960 C1961 1.391 . S
C1961 H1949 0.950 . S
C1961 C1957 1.393 . S
C1961 C1960 1.391 . S
C1962 H1952 0.950 . S
C1962 C1963 1.386 . S
C1962 C1964 1.391 . S
C1963 C1962 1.386 . S
C1963 C1967 1.393 . S
C1964 H1953 0.950 . S
C1964 C1962 1.391 . S
C1964 C1965 1.400 . S
C1965 C1959 1.491 . S
C1965 C1964 1.400 . S
C1965 C1966 1.398 . S
C1966 H1954 0.950 . S
C1966 C1965 1.398 . S
C1966 C1967 1.391 . S
C1967 H1955 0.950 . S
C1967 C1963 1.393 . S
C1967 C1966 1.391 . S
H1968 C1976 0.950 . S
H1969 C1981 0.950 . S
H1970 C1978 0.950 . S
H1971 C1980 0.950 . S
H1972 C1982 0.950 . S
H1973 C1984 0.950 . S
H1974 C1986 0.950 . S
H1975 C1987 0.950 . S
C1976 H1968 0.950 . S
C1976 C1977 1.386 . S
C1976 C1978 1.391 . S
C1977 C1976 1.386 . S
C1977 C1981 1.393 . S
C1978 H1970 0.950 . S
C1978 C1976 1.391 . S
C1978 C1979 1.400 . S
C1979 C1978 1.400 . S
C1979 C1980 1.398 . S
C1979 C1985 1.491 . S
C1980 H1971 0.950 . S
C1980 C1979 1.398 . S
C1980 C1981 1.391 . S
C1981 H1969 0.950 . S
C1981 C1977 1.393 . S
C1981 C1980 1.391 . S
C1982 H1972 0.950 . S
C1982 C1983 1.386 . S
C1982 C1984 1.391 . S
C1983 C1982 1.386 . S
C1983 C1987 1.393 . S
C1984 H1973 0.950 . S
C1984 C1982 1.391 . S
C1984 C1985 1.400 . S
C1985 C1979 1.491 . S
C1985 C1984 1.400 . S
C1985 C1986 1.398 . S
C1986 H1974 0.950 . S
C1986 C1985 1.398 . S
C1986 C1987 1.391 . S
C1987 H1975 0.950 . S
C1987 C1983 1.393 . S
C1987 C1986 1.391 . S
H1988 C1996 0.950 . S
H1989 C2001 0.950 . S
H1990 C1998 0.950 . S
H1991 C2000 0.950 . S
H1992 C2002 0.950 . S
H1993 C2004 0.950 . S
H1994 C2006 0.950 . S
H1995 C2007 0.950 . S
C1996 H1988 0.950 . S
C1996 C1997 1.386 . S
C1996 C1998 1.391 . S
C1997 C1996 1.386 . S
C1997 C2001 1.393 . S
C1998 H1990 0.950 . S
C1998 C1996 1.391 . S
C1998 C1999 1.400 . S
C1999 C1998 1.400 . S
C1999 C2000 1.398 . S
C1999 C2005 1.491 . S
C2000 H1991 0.950 . S
C2000 C1999 1.398 . S
C2000 C2001 1.391 . S
C2001 H1989 0.950 . S
C2001 C1997 1.393 . S
C2001 C2000 1.391 . S
C2002 H1992 0.950 . S
C2002 C2003 1.386 . S
C2002 C2004 1.391 . S
C2003 C2002 1.386 . S
C2003 C2007 1.393 . S
C2004 H1993 0.950 . S
C2004 C2002 1.391 . S
C2004 C2005 1.400 . S
C2005 C1999 1.491 . S
C2005 C2004 1.400 . S
C2005 C2006 1.398 . S
C2006 H1994 0.950 . S
C2006 C2005 1.398 . S
C2006 C2007 1.391 . S
C2007 H1995 0.950 . S
C2007 C2003 1.393 . S
C2007 C2006 1.391 . S
H2008 C2016 0.950 . S
H2009 C2021 0.950 . S
H2010 C2018 0.950 . S
H2011 C2020 0.950 . S
H2012 C2022 0.950 . S
H2013 C2024 0.950 . S
H2014 C2026 0.950 . S
H2015 C2027 0.950 . S
C2016 H2008 0.950 . S
C2016 C2017 1.386 . S
C2016 C2018 1.391 . S
C2017 C2016 1.386 . S
C2017 C2021 1.393 . S
C2018 H2010 0.950 . S
C2018 C2016 1.391 . S
C2018 C2019 1.400 . S
C2019 C2018 1.400 . S
C2019 C2020 1.398 . S
C2019 C2025 1.491 . S
C2020 H2011 0.950 . S
C2020 C2019 1.398 . S
C2020 C2021 1.391 . S
C2021 H2009 0.950 . S
C2021 C2017 1.393 . S
C2021 C2020 1.391 . S
C2022 H2012 0.950 . S
C2022 C2023 1.386 . S
C2022 C2024 1.391 . S
C2023 C2022 1.386 . S
C2023 C2027 1.393 . S
C2024 H2013 0.950 . S
C2024 C2022 1.391 . S
C2024 C2025 1.400 . S
C2025 C2019 1.491 . S
C2025 C2024 1.400 . S
C2025 C2026 1.398 . S
C2026 H2014 0.950 . S
C2026 C2025 1.398 . S
C2026 C2027 1.391 . S
C2027 H2015 0.950 . S
C2027 C2023 1.393 . S
C2027 C2026 1.391 . S
H2028 C2036 0.950 . S
H2029 C2041 0.950 . S
H2030 C2038 0.950 . S
H2031 C2040 0.950 . S
H2032 C2042 0.950 . S
H2033 C2044 0.950 . S
H2034 C2046 0.950 . S
H2035 C2047 0.950 . S
C2036 H2028 0.950 . S
C2036 C2037 1.386 . S
C2036 C2038 1.391 . S
C2037 C2036 1.386 . S
C2037 C2041 1.393 . S
C2038 H2030 0.950 . S
C2038 C2036 1.391 . S
C2038 C2039 1.400 . S
C2039 C2038 1.400 . S
C2039 C2040 1.398 . S
C2039 C2045 1.491 . S
C2040 H2031 0.950 . S
C2040 C2039 1.398 . S
C2040 C2041 1.391 . S
C2041 H2029 0.950 . S
C2041 C2037 1.393 . S
C2041 C2040 1.391 . S
C2042 H2032 0.950 . S
C2042 C2043 1.386 . S
C2042 C2044 1.391 . S
C2043 C2042 1.386 . S
C2043 C2047 1.393 . S
C2044 H2033 0.950 . S
C2044 C2042 1.391 . S
C2044 C2045 1.400 . S
C2045 C2039 1.491 . S
C2045 C2044 1.400 . S
C2045 C2046 1.398 . S
C2046 H2034 0.950 . S
C2046 C2045 1.398 . S
C2046 C2047 1.391 . S
C2047 H2035 0.950 . S
C2047 C2043 1.393 . S
C2047 C2046 1.391 . S
H2048 C2056 0.950 . S
H2049 C2061 0.950 . S
H2050 C2058 0.950 . S
H2051 C2060 0.950 . S
H2052 C2062 0.950 . S
H2053 C2064 0.950 . S
H2054 C2066 0.950 . S
H2055 C2067 0.950 . S
C2056 H2048 0.950 . S
C2056 C2057 1.386 . S
C2056 C2058 1.391 . S
C2057 C2056 1.386 . S
C2057 C2061 1.393 . S
C2058 H2050 0.950 . S
C2058 C2056 1.391 . S
C2058 C2059 1.400 . S
C2059 C2058 1.400 . S
C2059 C2060 1.398 . S
C2059 C2065 1.491 . S
C2060 H2051 0.950 . S
C2060 C2059 1.398 . S
C2060 C2061 1.391 . S
C2061 H2049 0.950 . S
C2061 C2057 1.393 . S
C2061 C2060 1.391 . S
C2062 H2052 0.950 . S
C2062 C2063 1.386 . S
C2062 C2064 1.391 . S
C2063 C2062 1.386 . S
C2063 C2067 1.393 . S
C2064 H2053 0.950 . S
C2064 C2062 1.391 . S
C2064 C2065 1.400 . S
C2065 C2059 1.491 . S
C2065 C2064 1.400 . S
C2065 C2066 1.398 . S
C2066 H2054 0.950 . S
C2066 C2065 1.398 . S
C2066 C2067 1.391 . S
C2067 H2055 0.950 . S
C2067 C2063 1.393 . S
C2067 C2066 1.391 . S
H2068 C2076 0.950 . S
H2069 C2081 0.950 . S
H2070 C2078 0.950 . S
H2071 C2080 0.950 . S
H2072 C2082 0.950 . S
H2073 C2084 0.950 . S
H2074 C2086 0.950 . S
H2075 C2087 0.950 . S
C2076 H2068 0.950 . S
C2076 C2077 1.386 . S
C2076 C2078 1.391 . S
C2077 C2076 1.386 . S
C2077 C2081 1.393 . S
C2078 H2070 0.950 . S
C2078 C2076 1.391 . S
C2078 C2079 1.400 . S
C2079 C2078 1.400 . S
C2079 C2080 1.398 . S
C2079 C2085 1.491 . S
C2080 H2071 0.950 . S
C2080 C2079 1.398 . S
C2080 C2081 1.391 . S
C2081 H2069 0.950 . S
C2081 C2077 1.393 . S
C2081 C2080 1.391 . S
C2082 H2072 0.950 . S
C2082 C2083 1.386 . S
C2082 C2084 1.391 . S
C2083 C2082 1.386 . S
C2083 C2087 1.393 . S
C2084 H2073 0.950 . S
C2084 C2082 1.391 . S
C2084 C2085 1.400 . S
C2085 C2079 1.491 . S
C2085 C2084 1.400 . S
C2085 C2086 1.398 . S
C2086 H2074 0.950 . S
C2086 C2085 1.398 . S
C2086 C2087 1.391 . S
C2087 H2075 0.950 . S
C2087 C2083 1.393 . S
C2087 C2086 1.391 . S
H2088 C2096 0.950 . S
H2089 C2101 0.950 . S
H2090 C2098 0.950 . S
H2091 C2100 0.950 . S
H2092 C2102 0.950 . S
H2093 C2104 0.950 . S
H2094 C2106 0.950 . S
H2095 C2107 0.950 . S
C2096 H2088 0.950 . S
C2096 C2097 1.386 . S
C2096 C2098 1.391 . S
C2097 C2096 1.386 . S
C2097 C2101 1.393 . S
C2098 H2090 0.950 . S
C2098 C2096 1.391 . S
C2098 C2099 1.400 . S
C2099 C2098 1.400 . S
C2099 C2100 1.398 . S
C2099 C2105 1.491 . S
C2100 H2091 0.950 . S
C2100 C2099 1.398 . S
C2100 C2101 1.391 . S
C2101 H2089 0.950 . S
C2101 C2097 1.393 . S
C2101 C2100 1.391 . S
C2102 H2092 0.950 . S
C2102 C2103 1.386 . S
C2102 C2104 1.391 . S
C2103 C2102 1.386 . S
C2103 C2107 1.393 . S
C2104 H2093 0.950 . S
C2104 C2102 1.391 . S
C2104 C2105 1.400 . S
C2105 C2099 1.491 . S
C2105 C2104 1.400 . S
C2105 C2106 1.398 . S
C2106 H2094 0.950 . S
C2106 C2105 1.398 . S
C2106 C2107 1.391 . S
C2107 H2095 0.950 . S
C2107 C2103 1.393 . S
C2107 C2106 1.391 . S
H2108 C2116 0.950 . S
H2109 C2121 0.950 1_655 S
H2110 C2118 0.950 . S
H2111 C2120 0.950 . S
H2112 C2122 0.950 . S
H2113 C2124 0.950 . S
H2114 C2126 0.950 . S
H2115 C2127 0.950 . S
C2116 H2108 0.950 . S
C2116 C2117 1.386 . S
C2116 C2118 1.391 . S
C2117 C2116 1.386 . S
C2117 C2121 1.393 . S
C2118 H2110 0.950 . S
C2118 C2116 1.391 . S
C2118 C2119 1.400 . S
C2119 C2118 1.400 . S
C2119 C2120 1.398 . S
C2119 C2125 1.491 . S
C2120 H2111 0.950 . S
C2120 C2119 1.398 . S
C2120 C2121 1.391 . S
C2121 H2109 0.950 1_455 S
C2121 C2117 1.393 . S
C2121 C2120 1.391 . S
C2122 H2112 0.950 . S
C2122 C2123 1.386 . S
C2122 C2124 1.391 . S
C2123 C2122 1.386 . S
C2123 C2127 1.393 . S
C2124 H2113 0.950 . S
C2124 C2122 1.391 . S
C2124 C2125 1.400 . S
C2125 C2119 1.491 . S
C2125 C2124 1.400 . S
C2125 C2126 1.398 . S
C2126 H2114 0.950 . S
C2126 C2125 1.398 . S
C2126 C2127 1.391 . S
C2127 H2115 0.950 . S
C2127 C2123 1.393 . S
C2127 C2126 1.391 . S
H2128 C2136 0.950 . S
H2129 C2141 0.950 . S
H2130 C2138 0.950 . S
H2131 C2140 0.950 . S
H2132 C2142 0.950 . S
H2133 C2144 0.950 . S
H2134 C2146 0.950 . S
H2135 C2147 0.950 . S
C2136 H2128 0.950 . S
C2136 C2137 1.386 . S
C2136 C2138 1.391 . S
C2137 C2136 1.386 . S
C2137 C2141 1.393 . S
C2138 H2130 0.950 . S
C2138 C2136 1.391 . S
C2138 C2139 1.400 . S
C2139 C2138 1.400 . S
C2139 C2140 1.398 . S
C2139 C2145 1.491 . S
C2140 H2131 0.950 . S
C2140 C2139 1.398 . S
C2140 C2141 1.391 . S
C2141 H2129 0.950 . S
C2141 C2137 1.393 . S
C2141 C2140 1.391 . S
C2142 H2132 0.950 . S
C2142 C2143 1.386 . S
C2142 C2144 1.391 . S
C2143 C2142 1.386 . S
C2143 C2147 1.393 . S
C2144 H2133 0.950 . S
C2144 C2142 1.391 . S
C2144 C2145 1.400 . S
C2145 C2139 1.491 . S
C2145 C2144 1.400 . S
C2145 C2146 1.398 . S
C2146 H2134 0.950 . S
C2146 C2145 1.398 . S
C2146 C2147 1.391 . S
C2147 H2135 0.950 . S
C2147 C2143 1.393 . S
C2147 C2146 1.391 . S
H2148 C2156 0.950 . S
H2149 C2161 0.950 . S
H2150 C2158 0.950 . S
H2151 C2160 0.950 . S
H2152 C2162 0.950 . S
H2153 C2164 0.950 . S
H2154 C2166 0.950 . S
H2155 C2167 0.950 1_655 S
C2156 H2148 0.950 . S
C2156 C2157 1.386 . S
C2156 C2158 1.391 . S
C2157 C2156 1.386 . S
C2157 C2161 1.393 . S
C2158 H2150 0.950 . S
C2158 C2156 1.391 . S
C2158 C2159 1.400 . S
C2159 C2158 1.400 . S
C2159 C2160 1.398 . S
C2159 C2165 1.491 . S
C2160 H2151 0.950 . S
C2160 C2159 1.398 . S
C2160 C2161 1.391 . S
C2161 H2149 0.950 . S
C2161 C2157 1.393 . S
C2161 C2160 1.391 . S
C2162 H2152 0.950 . S
C2162 C2163 1.386 . S
C2162 C2164 1.391 . S
C2163 C2162 1.386 . S
C2163 C2167 1.393 . S
C2164 H2153 0.950 . S
C2164 C2162 1.391 . S
C2164 C2165 1.400 . S
C2165 C2159 1.491 . S
C2165 C2164 1.400 . S
C2165 C2166 1.398 . S
C2166 H2154 0.950 . S
C2166 C2165 1.398 . S
C2166 C2167 1.391 . S
C2167 H2155 0.950 1_455 S
C2167 C2163 1.393 . S
C2167 C2166 1.391 . S
H2168 C2176 0.950 . S
H2169 C2181 0.950 . S
H2170 C2178 0.950 . S
H2171 C2180 0.950 . S
H2172 C2182 0.950 . S
H2173 C2184 0.950 . S
H2174 C2186 0.950 . S
H2175 C2187 0.950 . S
C2176 H2168 0.950 . S
C2176 C2177 1.386 . S
C2176 C2178 1.391 . S
C2177 C2176 1.386 . S
C2177 C2181 1.393 . S
C2178 H2170 0.950 . S
C2178 C2176 1.391 . S
C2178 C2179 1.400 . S
C2179 C2178 1.400 . S
C2179 C2180 1.398 . S
C2179 C2185 1.491 . S
C2180 H2171 0.950 . S
C2180 C2179 1.398 . S
C2180 C2181 1.391 . S
C2181 H2169 0.950 . S
C2181 C2177 1.393 . S
C2181 C2180 1.391 . S
C2182 H2172 0.950 . S
C2182 C2183 1.386 . S
C2182 C2184 1.391 . S
C2183 C2182 1.386 . S
C2183 C2187 1.393 . S
C2184 H2173 0.950 . S
C2184 C2182 1.391 . S
C2184 C2185 1.400 . S
C2185 C2179 1.491 . S
C2185 C2184 1.400 . S
C2185 C2186 1.398 . S
C2186 H2174 0.950 . S
C2186 C2185 1.398 . S
C2186 C2187 1.391 . S
C2187 H2175 0.950 . S
C2187 C2183 1.393 . S
C2187 C2186 1.391 . S
H2188 C2196 0.950 . S
H2189 C2201 0.950 . S
H2190 C2198 0.950 . S
H2191 C2200 0.950 . S
H2192 C2202 0.950 . S
H2193 C2204 0.950 . S
H2194 C2206 0.950 . S
H2195 C2207 0.950 . S
C2196 H2188 0.950 . S
C2196 C2197 1.386 . S
C2196 C2198 1.391 . S
C2197 C2196 1.386 . S
C2197 C2201 1.393 . S
C2198 H2190 0.950 . S
C2198 C2196 1.391 . S
C2198 C2199 1.400 . S
C2199 C2198 1.400 . S
C2199 C2200 1.398 . S
C2199 C2205 1.491 . S
C2200 H2191 0.950 . S
C2200 C2199 1.398 . S
C2200 C2201 1.391 . S
C2201 H2189 0.950 . S
C2201 C2197 1.393 . S
C2201 C2200 1.391 . S
C2202 H2192 0.950 . S
C2202 C2203 1.386 . S
C2202 C2204 1.391 . S
C2203 C2202 1.386 . S
C2203 C2207 1.393 . S
C2204 H2193 0.950 . S
C2204 C2202 1.391 . S
C2204 C2205 1.400 . S
C2205 C2199 1.491 . S
C2205 C2204 1.400 . S
C2205 C2206 1.398 . S
C2206 H2194 0.950 . S
C2206 C2205 1.398 . S
C2206 C2207 1.391 . S
C2207 H2195 0.950 . S
C2207 C2203 1.393 . S
C2207 C2206 1.391 . S
H2208 C2216 0.950 . S
H2209 C2221 0.950 . S
H2210 C2218 0.950 . S
H2211 C2220 0.950 . S
H2212 C2222 0.950 . S
H2213 C2224 0.950 . S
H2214 C2226 0.950 . S
H2215 C2227 0.950 . S
C2216 H2208 0.950 . S
C2216 C2217 1.386 . S
C2216 C2218 1.391 . S
C2217 C2216 1.386 . S
C2217 C2221 1.393 . S
C2218 H2210 0.950 . S
C2218 C2216 1.391 . S
C2218 C2219 1.400 . S
C2219 C2218 1.400 . S
C2219 C2220 1.398 . S
C2219 C2225 1.491 . S
C2220 H2211 0.950 . S
C2220 C2219 1.398 . S
C2220 C2221 1.391 . S
C2221 H2209 0.950 . S
C2221 C2217 1.393 . S
C2221 C2220 1.391 . S
C2222 H2212 0.950 . S
C2222 C2223 1.386 . S
C2222 C2224 1.391 . S
C2223 C2222 1.386 . S
C2223 C2227 1.393 . S
C2224 H2213 0.950 . S
C2224 C2222 1.391 . S
C2224 C2225 1.400 . S
C2225 C2219 1.491 . S
C2225 C2224 1.400 . S
C2225 C2226 1.398 . S
C2226 H2214 0.950 . S
C2226 C2225 1.398 . S
C2226 C2227 1.391 . S
C2227 H2215 0.950 . S
C2227 C2223 1.393 . S
C2227 C2226 1.391 . S
H2228 C2236 0.950 . S
H2229 C2241 0.950 . S
H2230 C2238 0.950 . S
H2231 C2240 0.950 . S
H2232 C2242 0.950 . S
H2233 C2244 0.950 . S
H2234 C2246 0.950 . S
H2235 C2247 0.950 . S
C2236 H2228 0.950 . S
C2236 C2237 1.386 . S
C2236 C2238 1.391 . S
C2237 C2236 1.386 . S
C2237 C2241 1.393 . S
C2238 H2230 0.950 . S
C2238 C2236 1.391 . S
C2238 C2239 1.400 . S
C2239 C2238 1.400 . S
C2239 C2240 1.398 . S
C2239 C2245 1.491 . S
C2240 H2231 0.950 . S
C2240 C2239 1.398 . S
C2240 C2241 1.391 . S
C2241 H2229 0.950 . S
C2241 C2237 1.393 . S
C2241 C2240 1.391 . S
C2242 H2232 0.950 . S
C2242 C2243 1.386 . S
C2242 C2244 1.391 . S
C2243 C2242 1.386 . S
C2243 C2247 1.393 . S
C2244 H2233 0.950 . S
C2244 C2242 1.391 . S
C2244 C2245 1.400 . S
C2245 C2239 1.491 . S
C2245 C2244 1.400 . S
C2245 C2246 1.398 . S
C2246 H2234 0.950 . S
C2246 C2245 1.398 . S
C2246 C2247 1.391 . S
C2247 H2235 0.950 . S
C2247 C2243 1.393 . S
C2247 C2246 1.391 . S
H2248 C2256 0.950 . S
H2249 C2261 0.950 . S
H2250 C2258 0.950 . S
H2251 C2260 0.950 . S
H2252 C2262 0.950 . S
H2253 C2264 0.950 . S
H2254 C2266 0.950 . S
H2255 C2267 0.950 . S
C2256 H2248 0.950 . S
C2256 C2257 1.386 . S
C2256 C2258 1.391 . S
C2257 C2256 1.386 . S
C2257 C2261 1.393 . S
C2258 H2250 0.950 . S
C2258 C2256 1.391 . S
C2258 C2259 1.400 . S
C2259 C2258 1.400 . S
C2259 C2260 1.398 . S
C2259 C2265 1.491 . S
C2260 H2251 0.950 . S
C2260 C2259 1.398 . S
C2260 C2261 1.391 . S
C2261 H2249 0.950 . S
C2261 C2257 1.393 . S
C2261 C2260 1.391 . S
C2262 H2252 0.950 . S
C2262 C2263 1.386 . S
C2262 C2264 1.391 . S
C2263 C2262 1.386 . S
C2263 C2267 1.393 . S
C2264 H2253 0.950 . S
C2264 C2262 1.391 . S
C2264 C2265 1.400 . S
C2265 C2259 1.491 . S
C2265 C2264 1.400 . S
C2265 C2266 1.398 . S
C2266 H2254 0.950 . S
C2266 C2265 1.398 . S
C2266 C2267 1.391 . S
C2267 H2255 0.950 . S
C2267 C2263 1.393 . S
C2267 C2266 1.391 . S
H2268 C2276 0.950 . S
H2269 C2281 0.950 . S
H2270 C2278 0.950 . S
H2271 C2280 0.950 . S
H2272 C2282 0.950 1_455 S
H2273 C2284 0.950 . S
H2274 C2286 0.950 . S
H2275 C2287 0.950 . S
C2276 H2268 0.950 . S
C2276 C2277 1.386 . S
C2276 C2278 1.391 . S
C2277 C2276 1.386 . S
C2277 C2281 1.393 . S
C2278 H2270 0.950 . S
C2278 C2276 1.391 . S
C2278 C2279 1.400 . S
C2279 C2278 1.400 . S
C2279 C2280 1.398 . S
C2279 C2285 1.491 . S
C2280 H2271 0.950 . S
C2280 C2279 1.398 . S
C2280 C2281 1.391 . S
C2281 H2269 0.950 . S
C2281 C2277 1.393 . S
C2281 C2280 1.391 . S
C2282 H2272 0.950 1_655 S
C2282 C2283 1.386 . S
C2282 C2284 1.391 . S
C2283 C2282 1.386 . S
C2283 C2287 1.393 . S
C2284 H2273 0.950 . S
C2284 C2282 1.391 . S
C2284 C2285 1.400 . S
C2285 C2279 1.491 . S
C2285 C2284 1.400 . S
C2285 C2286 1.398 . S
C2286 H2274 0.950 . S
C2286 C2285 1.398 . S
C2286 C2287 1.391 . S
C2287 H2275 0.950 . S
C2287 C2283 1.393 . S
C2287 C2286 1.391 . S
H2288 C2296 0.950 . S
H2289 C2301 0.950 . S
H2290 C2298 0.950 . S
H2291 C2300 0.950 . S
H2292 C2302 0.950 . S
H2293 C2304 0.950 . S
H2294 C2306 0.950 . S
H2295 C2307 0.950 . S
C2296 H2288 0.950 . S
C2296 C2297 1.386 . S
C2296 C2298 1.391 . S
C2297 C2296 1.386 . S
C2297 C2301 1.393 . S
C2298 H2290 0.950 . S
C2298 C2296 1.391 . S
C2298 C2299 1.400 . S
C2299 C2298 1.400 . S
C2299 C2300 1.398 . S
C2299 C2305 1.491 . S
C2300 H2291 0.950 . S
C2300 C2299 1.398 . S
C2300 C2301 1.391 . S
C2301 H2289 0.950 . S
C2301 C2297 1.393 . S
C2301 C2300 1.391 . S
C2302 H2292 0.950 . S
C2302 C2303 1.386 . S
C2302 C2304 1.391 . S
C2303 C2302 1.386 . S
C2303 C2307 1.393 . S
C2304 H2293 0.950 . S
C2304 C2302 1.391 . S
C2304 C2305 1.400 . S
C2305 C2299 1.491 . S
C2305 C2304 1.400 . S
C2305 C2306 1.398 . S
C2306 H2294 0.950 . S
C2306 C2305 1.398 . S
C2306 C2307 1.391 . S
C2307 H2295 0.950 . S
C2307 C2303 1.393 . S
C2307 C2306 1.391 . S
H2308 C2316 0.950 . S
H2309 C2321 0.950 . S
H2310 C2318 0.950 . S
H2311 C2320 0.950 . S
H2312 C2322 0.950 1_455 S
H2313 C2324 0.950 . S
H2314 C2326 0.950 . S
H2315 C2327 0.950 . S
C2316 H2308 0.950 . S
C2316 C2317 1.386 . S
C2316 C2318 1.391 . S
C2317 C2316 1.386 . S
C2317 C2321 1.393 . S
C2318 H2310 0.950 . S
C2318 C2316 1.391 . S
C2318 C2319 1.400 . S
C2319 C2318 1.400 . S
C2319 C2320 1.398 . S
C2319 C2325 1.491 . S
C2320 H2311 0.950 . S
C2320 C2319 1.398 . S
C2320 C2321 1.391 . S
C2321 H2309 0.950 . S
C2321 C2317 1.393 . S
C2321 C2320 1.391 . S
C2322 H2312 0.950 1_655 S
C2322 C2323 1.386 . S
C2322 C2324 1.391 . S
C2323 C2322 1.386 . S
C2323 C2327 1.393 . S
C2324 H2313 0.950 . S
C2324 C2322 1.391 . S
C2324 C2325 1.400 . S
C2325 C2319 1.491 . S
C2325 C2324 1.400 . S
C2325 C2326 1.398 . S
C2326 H2314 0.950 . S
C2326 C2325 1.398 . S
C2326 C2327 1.391 . S
C2327 H2315 0.950 . S
C2327 C2323 1.393 . S
C2327 C2326 1.391 . S
H2328 C2336 0.950 . S
H2329 C2341 0.950 . S
H2330 C2338 0.950 . S
H2331 C2340 0.950 . S
H2332 C2342 0.950 . S
H2333 C2344 0.950 . S
H2334 C2346 0.950 . S
H2335 C2347 0.950 . S
C2336 H2328 0.950 . S
C2336 C2337 1.386 . S
C2336 C2338 1.391 . S
C2337 C2336 1.386 . S
C2337 C2341 1.393 . S
C2338 H2330 0.950 . S
C2338 C2336 1.391 . S
C2338 C2339 1.400 . S
C2339 C2338 1.400 . S
C2339 C2340 1.398 . S
C2339 C2345 1.491 . S
C2340 H2331 0.950 . S
C2340 C2339 1.398 . S
C2340 C2341 1.391 . S
C2341 H2329 0.950 . S
C2341 C2337 1.393 . S
C2341 C2340 1.391 . S
C2342 H2332 0.950 . S
C2342 C2343 1.386 . S
C2342 C2344 1.391 . S
C2343 C2342 1.386 . S
C2343 C2347 1.393 . S
C2344 H2333 0.950 . S
C2344 C2342 1.391 . S
C2344 C2345 1.400 . S
C2345 C2339 1.491 . S
C2345 C2344 1.400 . S
C2345 C2346 1.398 . S
C2346 H2334 0.950 . S
C2346 C2345 1.398 . S
C2346 C2347 1.391 . S
C2347 H2335 0.950 . S
C2347 C2343 1.393 . S
C2347 C2346 1.391 . S
H2348 C2356 0.950 . S
H2349 C2361 0.950 . S
H2350 C2358 0.950 . S
H2351 C2360 0.950 . S
H2352 C2362 0.950 . S
H2353 C2364 0.950 . S
H2354 C2366 0.950 . S
H2355 C2367 0.950 . S
C2356 H2348 0.950 . S
C2356 C2357 1.386 . S
C2356 C2358 1.391 . S
C2357 C2356 1.386 . S
C2357 C2361 1.393 . S
C2358 H2350 0.950 . S
C2358 C2356 1.391 . S
C2358 C2359 1.400 . S
C2359 C2358 1.400 . S
C2359 C2360 1.398 . S
C2359 C2365 1.491 . S
C2360 H2351 0.950 . S
C2360 C2359 1.398 . S
C2360 C2361 1.391 . S
C2361 H2349 0.950 . S
C2361 C2357 1.393 . S
C2361 C2360 1.391 . S
C2362 H2352 0.950 . S
C2362 C2363 1.386 . S
C2362 C2364 1.391 . S
C2363 C2362 1.386 . S
C2363 C2367 1.393 . S
C2364 H2353 0.950 . S
C2364 C2362 1.391 . S
C2364 C2365 1.400 . S
C2365 C2359 1.491 . S
C2365 C2364 1.400 . S
C2365 C2366 1.398 . S
C2366 H2354 0.950 . S
C2366 C2365 1.398 . S
C2366 C2367 1.391 . S
C2367 H2355 0.950 . S
C2367 C2363 1.393 . S
C2367 C2366 1.391 . S
H2368 C2376 0.950 . S
H2369 C2381 0.950 . S
H2370 C2378 0.950 . S
H2371 C2380 0.950 . S
H2372 C2382 0.950 . S
H2373 C2384 0.950 . S
H2374 C2386 0.950 . S
H2375 C2387 0.950 . S
C2376 H2368 0.950 . S
C2376 C2377 1.386 . S
C2376 C2378 1.391 . S
C2377 C2376 1.386 . S
C2377 C2381 1.393 . S
C2378 H2370 0.950 . S
C2378 C2376 1.391 . S
C2378 C2379 1.400 . S
C2379 C2378 1.400 . S
C2379 C2380 1.398 . S
C2379 C2385 1.491 . S
C2380 H2371 0.950 . S
C2380 C2379 1.398 . S
C2380 C2381 1.391 . S
C2381 H2369 0.950 . S
C2381 C2377 1.393 . S
C2381 C2380 1.391 . S
C2382 H2372 0.950 . S
C2382 C2383 1.386 . S
C2382 C2384 1.391 . S
C2383 C2382 1.386 . S
C2383 C2387 1.393 . S
C2384 H2373 0.950 . S
C2384 C2382 1.391 . S
C2384 C2385 1.400 . S
C2385 C2379 1.491 . S
C2385 C2384 1.400 . S
C2385 C2386 1.398 . S
C2386 H2374 0.950 . S
C2386 C2385 1.398 . S
C2386 C2387 1.391 . S
C2387 H2375 0.950 . S
C2387 C2383 1.393 . S
C2387 C2386 1.391 . S
H2388 C2396 0.950 . S
H2389 C2401 0.950 . S
H2390 C2398 0.950 . S
H2391 C2400 0.950 . S
H2392 C2402 0.950 . S
H2393 C2404 0.950 . S
H2394 C2406 0.950 . S
H2395 C2407 0.950 . S
C2396 H2388 0.950 . S
C2396 C2397 1.386 . S
C2396 C2398 1.391 . S
C2397 C2396 1.386 . S
C2397 C2401 1.393 . S
C2398 H2390 0.950 . S
C2398 C2396 1.391 . S
C2398 C2399 1.400 . S
C2399 C2398 1.400 . S
C2399 C2400 1.398 1_455 S
C2399 C2405 1.491 1_465 S
C2400 H2391 0.950 . S
C2400 C2399 1.398 1_655 S
C2400 C2401 1.391 1_655 S
C2401 H2389 0.950 . S
C2401 C2397 1.393 . S
C2401 C2400 1.391 1_455 S
C2402 H2392 0.950 . S
C2402 C2403 1.386 . S
C2402 C2404 1.391 . S
C2403 C2402 1.386 . S
C2403 C2407 1.393 . S
C2404 H2393 0.950 . S
C2404 C2402 1.391 . S
C2404 C2405 1.400 . S
C2405 C2399 1.491 1_645 S
C2405 C2404 1.400 . S
C2405 C2406 1.398 1_655 S
C2406 H2394 0.950 . S
C2406 C2405 1.398 1_455 S
C2406 C2407 1.391 1_455 S
C2407 H2395 0.950 . S
C2407 C2403 1.393 . S
C2407 C2406 1.391 1_655 S
H2408 C2416 0.950 . S
H2409 C2421 0.950 . S
H2410 C2418 0.950 . S
H2411 C2420 0.950 . S
H2412 C2422 0.950 . S
H2413 C2424 0.950 . S
H2414 C2426 0.950 . S
H2415 C2427 0.950 . S
C2416 H2408 0.950 . S
C2416 C2417 1.386 . S
C2416 C2418 1.391 . S
C2417 C2416 1.386 . S
C2417 C2421 1.393 . S
C2418 H2410 0.950 . S
C2418 C2416 1.391 . S
C2418 C2419 1.400 . S
C2419 C2418 1.400 . S
C2419 C2420 1.398 . S
C2419 C2425 1.491 . S
C2420 H2411 0.950 . S
C2420 C2419 1.398 . S
C2420 C2421 1.391 . S
C2421 H2409 0.950 . S
C2421 C2417 1.393 . S
C2421 C2420 1.391 . S
C2422 H2412 0.950 . S
C2422 C2423 1.386 . S
C2422 C2424 1.391 . S
C2423 C2422 1.386 . S
C2423 C2427 1.393 . S
C2424 H2413 0.950 . S
C2424 C2422 1.391 . S
C2424 C2425 1.400 . S
C2425 C2419 1.491 . S
C2425 C2424 1.400 . S
C2425 C2426 1.398 . S
C2426 H2414 0.950 . S
C2426 C2425 1.398 . S
C2426 C2427 1.391 . S
C2427 H2415 0.950 . S
C2427 C2423 1.393 . S
C2427 C2426 1.391 . S
H2428 C2436 0.950 . S
H2429 C2441 0.950 . S
H2430 C2438 0.950 . S
H2431 C2440 0.950 1_545 S
H2432 C2442 0.950 . S
H2433 C2444 0.950 . S
H2434 C2446 0.950 1_565 S
H2435 C2447 0.950 . S
C2436 H2428 0.950 . S
C2436 C2437 1.386 1_554 S
C2436 C2438 1.391 . S
C2437 C2436 1.386 1_556 S
C2437 C2441 1.393 . S
C2438 H2430 0.950 . S
C2438 C2436 1.391 . S
C2438 C2439 1.400 1_554 S
C2439 C2438 1.400 1_556 S
C2439 C2440 1.398 . S
C2439 C2445 1.491 1_566 S
C2440 H2431 0.950 1_565 S
C2440 C2439 1.398 . S
C2440 C2441 1.391 . S
C2441 H2429 0.950 . S
C2441 C2437 1.393 . S
C2441 C2440 1.391 . S
C2442 H2432 0.950 . S
C2442 C2443 1.386 1_556 S
C2442 C2444 1.391 . S
C2443 C2442 1.386 1_554 S
C2443 C2447 1.393 . S
C2444 H2433 0.950 . S
C2444 C2442 1.391 . S
C2444 C2445 1.400 1_556 S
C2445 C2439 1.491 1_544 S
C2445 C2444 1.400 1_554 S
C2445 C2446 1.398 . S
C2446 H2434 0.950 1_545 S
C2446 C2445 1.398 . S
C2446 C2447 1.391 . S
C2447 H2435 0.950 . S
C2447 C2443 1.393 . S
C2447 C2446 1.391 . S
H2448 C2456 0.950 . S
H2449 C2461 0.950 . S
H2450 C2458 0.950 . S
H2451 C2460 0.950 . S
H2452 C2462 0.950 . S
H2453 C2464 0.950 . S
H2454 C2466 0.950 . S
H2455 C2467 0.950 . S
C2456 H2448 0.950 . S
C2456 C2457 1.386 . S
C2456 C2458 1.391 . S
C2457 C2456 1.386 . S
C2457 C2461 1.393 . S
C2458 H2450 0.950 . S
C2458 C2456 1.391 . S
C2458 C2459 1.400 . S
C2459 C2458 1.400 . S
C2459 C2460 1.398 . S
C2459 C2465 1.491 . S
C2460 H2451 0.950 . S
C2460 C2459 1.398 . S
C2460 C2461 1.391 . S
C2461 H2449 0.950 . S
C2461 C2457 1.393 . S
C2461 C2460 1.391 . S
C2462 H2452 0.950 . S
C2462 C2463 1.386 . S
C2462 C2464 1.391 . S
C2463 C2462 1.386 . S
C2463 C2467 1.393 . S
C2464 H2453 0.950 . S
C2464 C2462 1.391 . S
C2464 C2465 1.400 . S
C2465 C2459 1.491 . S
C2465 C2464 1.400 . S
C2465 C2466 1.398 . S
C2466 H2454 0.950 . S
C2466 C2465 1.398 . S
C2466 C2467 1.391 . S
C2467 H2455 0.950 . S
C2467 C2463 1.393 . S
C2467 C2466 1.391 . S
H2468 C2476 0.950 . S
H2469 C2481 0.950 . S
H2470 C2478 0.950 1_565 S
H2471 C2480 0.950 . S
H2472 C2482 0.950 . S
H2473 C2484 0.950 1_545 S
H2474 C2486 0.950 . S
H2475 C2487 0.950 . S
C2476 H2468 0.950 . S
C2476 C2477 1.386 . S
C2476 C2478 1.391 . S
C2477 C2476 1.386 . S
C2477 C2481 1.393 . S
C2478 H2470 0.950 1_545 S
C2478 C2476 1.391 . S
C2478 C2479 1.400 . S
C2479 C2478 1.400 . S
C2479 C2480 1.398 . S
C2479 C2485 1.491 1_545 S
C2480 H2471 0.950 . S
C2480 C2479 1.398 . S
C2480 C2481 1.391 . S
C2481 H2469 0.950 . S
C2481 C2477 1.393 . S
C2481 C2480 1.391 . S
C2482 H2472 0.950 . S
C2482 C2483 1.386 . S
C2482 C2484 1.391 . S
C2483 C2482 1.386 . S
C2483 C2487 1.393 . S
C2484 H2473 0.950 1_565 S
C2484 C2482 1.391 . S
C2484 C2485 1.400 . S
C2485 C2479 1.491 1_565 S
C2485 C2484 1.400 . S
C2485 C2486 1.398 . S
C2486 H2474 0.950 . S
C2486 C2485 1.398 . S
C2486 C2487 1.391 . S
C2487 H2475 0.950 . S
C2487 C2483 1.393 . S
C2487 C2486 1.391 . S
H2488 C2496 0.950 . S
H2489 C2501 0.950 . S
H2490 C2498 0.950 . S
H2491 C2500 0.950 . S
H2492 C2502 0.950 . S
H2493 C2504 0.950 . S
H2494 C2506 0.950 . S
H2495 C2507 0.950 . S
C2496 H2488 0.950 . S
C2496 C2497 1.386 . S
C2496 C2498 1.391 . S
C2497 C2496 1.386 . S
C2497 C2501 1.393 . S
C2498 H2490 0.950 . S
C2498 C2496 1.391 . S
C2498 C2499 1.400 . S
C2499 C2498 1.400 . S
C2499 C2500 1.398 . S
C2499 C2505 1.491 . S
C2500 H2491 0.950 . S
C2500 C2499 1.398 . S
C2500 C2501 1.391 . S
C2501 H2489 0.950 . S
C2501 C2497 1.393 . S
C2501 C2500 1.391 . S
C2502 H2492 0.950 . S
C2502 C2503 1.386 . S
C2502 C2504 1.391 . S
C2503 C2502 1.386 . S
C2503 C2507 1.393 . S
C2504 H2493 0.950 . S
C2504 C2502 1.391 . S
C2504 C2505 1.400 . S
C2505 C2499 1.491 . S
C2505 C2504 1.400 . S
C2505 C2506 1.398 . S
C2506 H2494 0.950 . S
C2506 C2505 1.398 . S
C2506 C2507 1.391 . S
C2507 H2495 0.950 . S
C2507 C2503 1.393 . S
C2507 C2506 1.391 . S
H2508 C2516 0.950 . S
H2509 C2521 0.950 1_556 S
H2510 C2518 0.950 1_545 S
H2511 C2520 0.950 1_455 S
H2512 C2522 0.950 . S
H2513 C2524 0.950 1_565 S
H2514 C2526 0.950 1_655 S
H2515 C2527 0.950 1_554 S
C2516 H2508 0.950 . S
C2516 C2517 1.386 . S
C2516 C2518 1.391 . S
C2517 C2516 1.386 . S
C2517 C2521 1.393 . S
C2518 H2510 0.950 1_565 S
C2518 C2516 1.391 . S
C2518 C2519 1.400 . S
C2519 C2518 1.400 . S
C2519 C2520 1.398 1_554 S
C2519 C2525 1.491 1_664 S
C2520 H2511 0.950 1_655 S
C2520 C2519 1.398 1_556 S
C2520 C2521 1.391 1_556 S
C2521 H2509 0.950 1_554 S
C2521 C2517 1.393 . S
C2521 C2520 1.391 1_554 S
C2522 H2512 0.950 . S
C2522 C2523 1.386 . S
C2522 C2524 1.391 . S
C2523 C2522 1.386 . S
C2523 C2527 1.393 . S
C2524 H2513 0.950 1_545 S
C2524 C2522 1.391 . S
C2524 C2525 1.400 . S
C2525 C2519 1.491 1_446 S
C2525 C2524 1.400 . S
C2525 C2526 1.398 1_556 S
C2526 H2514 0.950 1_455 S
C2526 C2525 1.398 1_554 S
C2526 C2527 1.391 1_554 S
C2527 H2515 0.950 1_556 S
C2527 C2523 1.393 . S
C2527 C2526 1.391 1_556 S
H2528 C2536 0.950 . S
H2529 C2541 0.950 . S
H2530 C2538 0.950 . S
H2531 C2540 0.950 . S
H2532 C2542 0.950 . S
H2533 C2544 0.950 . S
H2534 C2546 0.950 . S
H2535 C2547 0.950 . S
C2536 H2528 0.950 . S
C2536 C2537 1.386 . S
C2536 C2538 1.391 . S
C2537 C2536 1.386 . S
C2537 C2541 1.393 . S
C2538 H2530 0.950 . S
C2538 C2536 1.391 . S
C2538 C2539 1.400 . S
C2539 C2538 1.400 . S
C2539 C2540 1.398 . S
C2539 C2545 1.491 . S
C2540 H2531 0.950 . S
C2540 C2539 1.398 . S
C2540 C2541 1.391 . S
C2541 H2529 0.950 . S
C2541 C2537 1.393 . S
C2541 C2540 1.391 . S
C2542 H2532 0.950 . S
C2542 C2543 1.386 . S
C2542 C2544 1.391 . S
C2543 C2542 1.386 . S
C2543 C2547 1.393 . S
C2544 H2533 0.950 . S
C2544 C2542 1.391 . S
C2544 C2545 1.400 . S
C2545 C2539 1.491 . S
C2545 C2544 1.400 . S
C2545 C2546 1.398 . S
C2546 H2534 0.950 . S
C2546 C2545 1.398 . S
C2546 C2547 1.391 . S
C2547 H2535 0.950 . S
C2547 C2543 1.393 . S
C2547 C2546 1.391 . S
H2548 C2556 0.950 . S
H2549 C2561 0.950 . S
H2550 C2558 0.950 . S
H2551 C2560 0.950 . S
H2552 C2562 0.950 . S
H2553 C2564 0.950 . S
H2554 C2566 0.950 . S
H2555 C2567 0.950 . S
C2556 H2548 0.950 . S
C2556 C2557 1.386 . S
C2556 C2558 1.391 . S
C2557 C2556 1.386 . S
C2557 C2561 1.393 . S
C2558 H2550 0.950 . S
C2558 C2556 1.391 . S
C2558 C2559 1.400 . S
C2559 C2558 1.400 . S
C2559 C2560 1.398 . S
C2559 C2565 1.491 . S
C2560 H2551 0.950 . S
C2560 C2559 1.398 . S
C2560 C2561 1.391 . S
C2561 H2549 0.950 . S
C2561 C2557 1.393 . S
C2561 C2560 1.391 . S
C2562 H2552 0.950 . S
C2562 C2563 1.386 . S
C2562 C2564 1.391 . S
C2563 C2562 1.386 . S
C2563 C2567 1.393 . S
C2564 H2553 0.950 . S
C2564 C2562 1.391 . S
C2564 C2565 1.400 . S
C2565 C2559 1.491 . S
C2565 C2564 1.400 . S
C2565 C2566 1.398 . S
C2566 H2554 0.950 . S
C2566 C2565 1.398 . S
C2566 C2567 1.391 . S
C2567 H2555 0.950 . S
C2567 C2563 1.393 . S
C2567 C2566 1.391 . S
H2568 C2576 0.950 . S
H2569 C2581 0.950 . S
H2570 C2578 0.950 . S
H2571 C2580 0.950 . S
H2572 C2582 0.950 . S
H2573 C2584 0.950 . S
H2574 C2586 0.950 . S
H2575 C2587 0.950 . S
C2576 H2568 0.950 . S
C2576 C2577 1.386 . S
C2576 C2578 1.391 . S
C2577 C2576 1.386 . S
C2577 C2581 1.393 . S
C2578 H2570 0.950 . S
C2578 C2576 1.391 . S
C2578 C2579 1.400 . S
C2579 C2578 1.400 . S
C2579 C2580 1.398 . S
C2579 C2585 1.491 . S
C2580 H2571 0.950 . S
C2580 C2579 1.398 . S
C2580 C2581 1.391 . S
C2581 H2569 0.950 . S
C2581 C2577 1.393 . S
C2581 C2580 1.391 . S
C2582 H2572 0.950 . S
C2582 C2583 1.386 . S
C2582 C2584 1.391 . S
C2583 C2582 1.386 . S
C2583 C2587 1.393 . S
C2584 H2573 0.950 . S
C2584 C2582 1.391 . S
C2584 C2585 1.400 . S
C2585 C2579 1.491 . S
C2585 C2584 1.400 . S
C2585 C2586 1.398 . S
C2586 H2574 0.950 . S
C2586 C2585 1.398 . S
C2586 C2587 1.391 . S
C2587 H2575 0.950 . S
C2587 C2583 1.393 . S
C2587 C2586 1.391 . S
H2588 C2596 0.950 . S
H2589 C2601 0.950 . S
H2590 C2598 0.950 . S
H2591 C2600 0.950 . S
H2592 C2602 0.950 . S
H2593 C2604 0.950 . S
H2594 C2606 0.950 . S
H2595 C2607 0.950 . S
C2596 H2588 0.950 . S
C2596 C2597 1.386 . S
C2596 C2598 1.391 . S
C2597 C2596 1.386 . S
C2597 C2601 1.393 . S
C2598 H2590 0.950 . S
C2598 C2596 1.391 . S
C2598 C2599 1.400 . S
C2599 C2598 1.400 . S
C2599 C2600 1.398 . S
C2599 C2605 1.491 . S
C2600 H2591 0.950 . S
C2600 C2599 1.398 . S
C2600 C2601 1.391 . S
C2601 H2589 0.950 . S
C2601 C2597 1.393 . S
C2601 C2600 1.391 . S
C2602 H2592 0.950 . S
C2602 C2603 1.386 . S
C2602 C2604 1.391 . S
C2603 C2602 1.386 . S
C2603 C2607 1.393 . S
C2604 H2593 0.950 . S
C2604 C2602 1.391 . S
C2604 C2605 1.400 . S
C2605 C2599 1.491 . S
C2605 C2604 1.400 . S
C2605 C2606 1.398 . S
C2606 H2594 0.950 . S
C2606 C2605 1.398 . S
C2606 C2607 1.391 . S
C2607 H2595 0.950 . S
C2607 C2603 1.393 . S
C2607 C2606 1.391 . S
H2608 C2616 0.942 1_554 S
H2609 C2621 0.950 . S
H2610 C2618 0.950 . S
H2611 C2620 0.950 . S
H2612 C2622 0.942 1_556 S
H2613 C2624 0.950 . S
H2614 C2626 0.950 . S
H2615 C2627 0.950 . S
C2616 H2608 0.942 1_556 S
C2616 C2617 1.399 . S
C2616 C2618 1.386 1_556 S
C2617 C2616 1.399 . S
C2617 C2621 1.393 . S
C2618 H2610 0.950 . S
C2618 C2616 1.386 1_554 S
C2618 C2619 1.400 1_554 S
C2619 C2618 1.400 1_556 S
C2619 C2620 1.398 . S
C2619 C2625 1.491 1_556 S
C2620 H2611 0.950 . S
C2620 C2619 1.398 . S
C2620 C2621 1.391 . S
C2621 H2609 0.950 . S
C2621 C2617 1.393 . S
C2621 C2620 1.391 . S
C2622 H2612 0.942 1_554 S
C2622 C2623 1.399 . S
C2622 C2624 1.386 1_554 S
C2623 C2622 1.399 . S
C2623 C2627 1.393 . S
C2624 H2613 0.950 . S
C2624 C2622 1.386 1_556 S
C2624 C2625 1.400 1_556 S
C2625 C2619 1.491 1_554 S
C2625 C2624 1.400 1_554 S
C2625 C2626 1.398 . S
C2626 H2614 0.950 . S
C2626 C2625 1.398 . S
C2626 C2627 1.391 . S
C2627 H2615 0.950 . S
C2627 C2623 1.393 . S
C2627 C2626 1.391 . S
H2628 C2636 0.932 1_455 S
H2629 C2641 0.950 . S
H2630 C2638 0.950 . S
H2631 C2640 0.950 . S
H2632 C2642 0.932 1_655 S
H2633 C2644 0.950 . S
H2634 C2646 0.950 . S
H2635 C2647 0.950 . S
C2636 H2628 0.932 1_655 S
C2636 C2637 1.386 . S
C2636 C2638 1.391 1_655 S
C2637 C2636 1.386 . S
C2637 C2641 1.393 . S
C2638 H2630 0.950 . S
C2638 C2636 1.391 1_455 S
C2638 C2639 1.400 1_455 S
C2639 C2638 1.400 1_655 S
C2639 C2640 1.398 . S
C2639 C2645 1.491 1_655 S
C2640 H2631 0.950 . S
C2640 C2639 1.398 . S
C2640 C2641 1.391 . S
C2641 H2629 0.950 . S
C2641 C2637 1.393 . S
C2641 C2640 1.391 . S
C2642 H2632 0.932 1_455 S
C2642 C2643 1.386 . S
C2642 C2644 1.391 1_455 S
C2643 C2642 1.386 . S
C2643 C2647 1.393 . S
C2644 H2633 0.950 . S
C2644 C2642 1.391 1_655 S
C2644 C2645 1.400 1_655 S
C2645 C2639 1.491 1_455 S
C2645 C2644 1.400 1_455 S
C2645 C2646 1.398 . S
C2646 H2634 0.950 . S
C2646 C2645 1.398 . S
C2646 C2647 1.391 . S
C2647 H2635 0.950 . S
C2647 C2643 1.393 . S
C2647 C2646 1.391 . S
H2648 C2656 0.950 . S
H2649 C2661 0.950 . S
H2650 C2658 0.950 . S
H2651 C2660 0.950 1_556 S
H2652 C2662 0.950 . S
H2653 C2664 0.950 . S
H2654 C2666 0.950 1_554 S
H2655 C2667 0.950 . S
C2656 H2648 0.950 . S
C2656 C2657 1.386 . S
C2656 C2658 1.391 . S
C2657 C2656 1.386 . S
C2657 C2661 1.393 . S
C2658 H2650 0.950 . S
C2658 C2656 1.391 . S
C2658 C2659 1.400 . S
C2659 C2658 1.400 . S
C2659 C2660 1.398 1_455 S
C2659 C2665 1.491 1_454 S
C2660 H2651 0.950 1_554 S
C2660 C2659 1.398 1_655 S
C2660 C2661 1.391 1_655 S
C2661 H2649 0.950 . S
C2661 C2657 1.393 . S
C2661 C2660 1.391 1_455 S
C2662 H2652 0.950 . S
C2662 C2663 1.386 . S
C2662 C2664 1.391 . S
C2663 C2662 1.386 . S
C2663 C2667 1.393 . S
C2664 H2653 0.950 . S
C2664 C2662 1.391 . S
C2664 C2665 1.400 . S
C2665 C2659 1.491 1_656 S
C2665 C2664 1.400 . S
C2665 C2666 1.398 1_655 S
C2666 H2654 0.950 1_556 S
C2666 C2665 1.398 1_455 S
C2666 C2667 1.391 1_455 S
C2667 H2655 0.950 . S
C2667 C2663 1.393 . S
C2667 C2666 1.391 1_655 S
H2668 C2676 0.950 . S
H2669 C2681 0.950 . S
H2670 C2678 0.950 . S
H2671 C2680 0.950 . S
H2672 C2682 0.950 . S
H2673 C2684 0.950 . S
H2674 C2686 0.950 . S
H2675 C2687 0.950 . S
C2676 H2668 0.950 . S
C2676 C2677 1.386 . S
C2676 C2678 1.391 . S
C2677 C2676 1.386 . S
C2677 C2681 1.393 . S
C2678 H2670 0.950 . S
C2678 C2676 1.391 . S
C2678 C2679 1.400 . S
C2679 C2678 1.400 . S
C2679 C2680 1.398 . S
C2679 C2685 1.491 . S
C2680 H2671 0.950 . S
C2680 C2679 1.398 . S
C2680 C2681 1.391 . S
C2681 H2669 0.950 . S
C2681 C2677 1.393 . S
C2681 C2680 1.391 . S
C2682 H2672 0.950 . S
C2682 C2683 1.386 . S
C2682 C2684 1.391 . S
C2683 C2682 1.386 . S
C2683 C2687 1.393 . S
C2684 H2673 0.950 . S
C2684 C2682 1.391 . S
C2684 C2685 1.400 . S
C2685 C2679 1.491 . S
C2685 C2684 1.400 . S
C2685 C2686 1.398 . S
C2686 H2674 0.950 . S
C2686 C2685 1.398 . S
C2686 C2687 1.391 . S
C2687 H2675 0.950 . S
C2687 C2683 1.393 . S
C2687 C2686 1.391 . S
C1097 C247 1.608 . S
C1103 C9 1.602 . S
C1117 C43 1.598 . S
C1123 C145 1.606 . S
C1137 C77 1.597 . S
C1143 C179 1.604 . S
C1157 C213 1.597 . S
C1163 C111 1.601 . S
C1177 C519 1.598 . S
C1183 C281 1.601 . S
C1197 C417 1.607 . S
C1203 C315 1.599 . S
C1217 C349 1.598 . S
C1223 C451 1.606 . S
C1237 C383 1.606 . S
C1243 C485 1.607 . S
C1257 C791 1.606 . S
C1263 C553 1.598 . S
C1277 C587 1.602 . S
C1283 C689 1.608 . S
C1297 C621 1.608 . S
C1303 C723 1.600 . S
C1317 C757 1.602 . S
C1323 C655 1.597 . S
C1337 C1063 1.606 . S
C1343 C825 1.598 . S
C1357 C859 1.600 . S
C1363 C961 1.598 . S
C1377 C995 1.605 . S
C1383 C893 1.597 . S
C1397 C1029 1.607 . S
C1403 C927 1.605 . S
C1417 C614 1.157 . S
C1423 C2 1.160 . S
C1437 C648 1.157 . S
C1443 C36 1.153 . S
C1457 C70 1.160 . S
C1463 C546 1.157 . S
C1477 C104 1.159 . S
C1483 C580 1.152 . S
C1497 C750 1.150 . S
C1503 C138 1.162 . S
C1517 C784 1.164 . S
C1523 C172 1.151 . S
C1537 C206 1.162 . S
C1543 C682 1.150 . S
C1557 C240 1.160 . S
C1563 C716 1.151 . S
C1577 C274 1.156 . S
C1583 C886 1.161 . S
C1597 C920 1.155 . S
C1603 C308 1.156 . S
C1617 C818 1.154 . S
C1623 C342 1.163 . S
C1637 C376 1.164 . S
C1643 C852 1.151 . S
C1657 C410 1.158 . S
C1663 C1022 1.160 . S
C1677 C1056 1.164 . S
C1683 C444 1.150 . S
C1697 C954 1.154 . S
C1703 C478 1.163 . S
C1717 C988 1.164 . S
C1723 C512 1.150 . S
C1737 C5 0.989 . S
C1743 C951 0.978 . S
C1757 C305 0.992 . S
C1763 C39 0.989 . S
C1777 C883 1.002 . S
C1783 C73 1.006 . S
C1797 C107 0.990 . S
C1803 C373 0.997 . S
C1817 C1019 0.983 . S
C1823 C141 0.988 . S
C1837 C509 0.980 . S
C1843 C175 0.989 . S
C1857 C209 0.990 . S
C1863 C1087 0.975 . S
C1877 C243 0.992 . S
C1883 C441 0.971 . S
C1897 C277 0.993 . S
C1903 C679 0.969 . S
C1917 C311 0.998 . S
C1923 C33 1.003 . S
C1937 C611 0.958 . S
C1943 C345 1.013 . S
C1957 C379 0.989 . S
C1963 C101 0.979 . S
C1977 C747 0.999 . S
C1983 C413 0.991 . S
C1997 C447 0.988 . S
C2003 C237 0.989 . S
C2017 C481 0.988 . S
C2023 C815 0.988 . S
C2037 C169 0.981 . S
C2043 C515 0.989 . S
C2057 C549 0.988 . S
C2063 C407 0.983 . S
C2077 C849 0.963 . S
C2083 C583 1.018 . S
C2097 C339 0.990 . S
C2103 C617 1.016 . S
C2117 C651 0.990 . S
C2123 C917 0.996 . S
C2137 C685 1.020 . S
C2143 C475 0.974 . S
C2157 C1053 0.957 . S
C2163 C719 1.010 . S
C2177 C753 1.005 . S
C2183 C543 0.957 . S
C2197 C985 0.969 . S
C2203 C787 1.020 . S
C2217 C135 0.977 . S
C2223 C821 1.020 . S
C2237 C577 1.001 . S
C2243 C855 0.993 . S
C2257 C67 0.965 . S
C2263 C889 1.019 . S
C2277 C645 0.968 . S
C2283 C923 1.020 . S
C2297 C957 0.988 . S
C2303 C203 0.988 . S
C2317 C781 0.972 . S
C2323 C991 1.020 . S
C2337 C271 0.993 . S
C2343 C1025 1.015 . S
C2357 C713 0.979 . S
C2363 C1059 0.989 . S
C2377 C20 1.469 . S
C2383 C836 1.469 . S
C2397 C54 1.471 . S
C2403 C326 1.471 . S
C2417 C904 1.493 . S
C2423 C88 1.493 . S
C2437 C394 1.491 . S
C2443 C122 1.491 . S
C2457 C972 1.493 . S
C2463 C156 1.493 . S
C2477 C462 1.481 . S
C2483 C190 1.481 . S
C2497 C1040 1.479 . S
C2503 C224 1.479 . S
C2517 C530 1.474 . S
C2523 C258 1.474 . S
C2537 C292 1.491 . S
C2543 C564 1.491 . S
C2557 C632 1.469 . S
C2563 C360 1.469 . S
C2577 C428 1.472 . S
C2583 C700 1.472 . S
C2597 C496 1.493 . S
C2603 C768 1.493 . S
C2617 C870 1.489 . S
C2623 C598 1.489 . S
C2637 C666 1.485 . S
C2643 C938 1.485 . S
C2657 C1006 1.478 . S
C2663 C734 1.478 . S
C2677 C1074 1.489 . S
C2683 C802 1.489 . S
