# Generated by pormake.
# Topology uos, (4)-cn, num edge types: 1
# Building blocks:
#     Node 0, Type 0, BuildingBlock: GALJAG_clean_sbu_0, # of connection points: 4
#     Node 1, Type 0, BuildingBlock: GALJAG_clean_sbu_0, # of connection points: 4
#     Node 2, Type 0, BuildingBlock: GALJAG_clean_sbu_0, # of connection points: 4
#     Node 3, Type 0, BuildingBlock: GALJAG_clean_sbu_0, # of connection points: 4
#     Node 4, Type 0, BuildingBlock: GALJAG_clean_sbu_0, # of connection points: 4
#     Node 5, Type 0, BuildingBlock: GALJAG_clean_sbu_0, # of connection points: 4
#     Node 6, Type 0, BuildingBlock: GALJAG_clean_sbu_0, # of connection points: 4
#     Node 7, Type 0, BuildingBlock: GALJAG_clean_sbu_0, # of connection points: 4
#     Node 8, Type 0, BuildingBlock: GALJAG_clean_sbu_0, # of connection points: 4
#     Node 9, Type 0, BuildingBlock: GALJAG_clean_sbu_0, # of connection points: 4
#     Node 10, Type 0, BuildingBlock: GALJAG_clean_sbu_0, # of connection points: 4
#     Node 11, Type 0, BuildingBlock: GALJAG_clean_sbu_0, # of connection points: 4
#     Node 12, Type 0, BuildingBlock: GALJAG_clean_sbu_0, # of connection points: 4
#     Node 13, Type 0, BuildingBlock: GALJAG_clean_sbu_0, # of connection points: 4
#     Node 14, Type 0, BuildingBlock: GALJAG_clean_sbu_0, # of connection points: 4
#     Node 15, Type 0, BuildingBlock: GALJAG_clean_sbu_0, # of connection points: 4
#     Node 16, Type 0, BuildingBlock: GALJAG_clean_sbu_0, # of connection points: 4
#     Node 17, Type 0, BuildingBlock: GALJAG_clean_sbu_0, # of connection points: 4
#     Node 18, Type 0, BuildingBlock: GALJAG_clean_sbu_0, # of connection points: 4
#     Node 19, Type 0, BuildingBlock: GALJAG_clean_sbu_0, # of connection points: 4
#     Node 20, Type 0, BuildingBlock: GALJAG_clean_sbu_0, # of connection points: 4
#     Node 21, Type 0, BuildingBlock: GALJAG_clean_sbu_0, # of connection points: 4
#     Node 22, Type 0, BuildingBlock: GALJAG_clean_sbu_0, # of connection points: 4
#     Node 23, Type 0, BuildingBlock: GALJAG_clean_sbu_0, # of connection points: 4
#     Node 24, Type 0, BuildingBlock: GALJAG_clean_sbu_0, # of connection points: 4
#     Node 25, Type 0, BuildingBlock: GALJAG_clean_sbu_0, # of connection points: 4
#     Node 26, Type 0, BuildingBlock: GALJAG_clean_sbu_0, # of connection points: 4
#     Node 27, Type 0, BuildingBlock: GALJAG_clean_sbu_0, # of connection points: 4
#     Node 28, Type 0, BuildingBlock: GALJAG_clean_sbu_0, # of connection points: 4
#     Node 29, Type 0, BuildingBlock: GALJAG_clean_sbu_0, # of connection points: 4
#     Node 30, Type 0, BuildingBlock: GALJAG_clean_sbu_0, # of connection points: 4
#     Node 31, Type 0, BuildingBlock: GALJAG_clean_sbu_0, # of connection points: 4
#     Edge 32, Type (0, 0), BuildingBlock: MIFKUJ_clean_linker_0, # of connection points: 2
#     Edge 33, Type (0, 0), BuildingBlock: MIFKUJ_clean_linker_0, # of connection points: 2
#     Edge 34, Type (0, 0), BuildingBlock: MIFKUJ_clean_linker_0, # of connection points: 2
#     Edge 35, Type (0, 0), BuildingBlock: MIFKUJ_clean_linker_0, # of connection points: 2
#     Edge 36, Type (0, 0), BuildingBlock: MIFKUJ_clean_linker_0, # of connection points: 2
#     Edge 37, Type (0, 0), BuildingBlock: MIFKUJ_clean_linker_0, # of connection points: 2
#     Edge 38, Type (0, 0), BuildingBlock: MIFKUJ_clean_linker_0, # of connection points: 2
#     Edge 39, Type (0, 0), BuildingBlock: MIFKUJ_clean_linker_0, # of connection points: 2
#     Edge 40, Type (0, 0), BuildingBlock: MIFKUJ_clean_linker_0, # of connection points: 2
#     Edge 41, Type (0, 0), BuildingBlock: MIFKUJ_clean_linker_0, # of connection points: 2
#     Edge 42, Type (0, 0), BuildingBlock: MIFKUJ_clean_linker_0, # of connection points: 2
#     Edge 43, Type (0, 0), BuildingBlock: MIFKUJ_clean_linker_0, # of connection points: 2
#     Edge 44, Type (0, 0), BuildingBlock: MIFKUJ_clean_linker_0, # of connection points: 2
#     Edge 45, Type (0, 0), BuildingBlock: MIFKUJ_clean_linker_0, # of connection points: 2
#     Edge 46, Type (0, 0), BuildingBlock: MIFKUJ_clean_linker_0, # of connection points: 2
#     Edge 47, Type (0, 0), BuildingBlock: MIFKUJ_clean_linker_0, # of connection points: 2
#     Edge 48, Type (0, 0), BuildingBlock: MIFKUJ_clean_linker_0, # of connection points: 2
#     Edge 49, Type (0, 0), BuildingBlock: MIFKUJ_clean_linker_0, # of connection points: 2
#     Edge 50, Type (0, 0), BuildingBlock: MIFKUJ_clean_linker_0, # of connection points: 2
#     Edge 51, Type (0, 0), BuildingBlock: MIFKUJ_clean_linker_0, # of connection points: 2
#     Edge 52, Type (0, 0), BuildingBlock: MIFKUJ_clean_linker_0, # of connection points: 2
#     Edge 53, Type (0, 0), BuildingBlock: MIFKUJ_clean_linker_0, # of connection points: 2
#     Edge 54, Type (0, 0), BuildingBlock: MIFKUJ_clean_linker_0, # of connection points: 2
#     Edge 55, Type (0, 0), BuildingBlock: MIFKUJ_clean_linker_0, # of connection points: 2
#     Edge 56, Type (0, 0), BuildingBlock: MIFKUJ_clean_linker_0, # of connection points: 2
#     Edge 57, Type (0, 0), BuildingBlock: MIFKUJ_clean_linker_0, # of connection points: 2
#     Edge 58, Type (0, 0), BuildingBlock: MIFKUJ_clean_linker_0, # of connection points: 2
#     Edge 59, Type (0, 0), BuildingBlock: MIFKUJ_clean_linker_0, # of connection points: 2
#     Edge 60, Type (0, 0), BuildingBlock: MIFKUJ_clean_linker_0, # of connection points: 2
#     Edge 61, Type (0, 0), BuildingBlock: MIFKUJ_clean_linker_0, # of connection points: 2
#     Edge 62, Type (0, 0), BuildingBlock: MIFKUJ_clean_linker_0, # of connection points: 2
#     Edge 63, Type (0, 0), BuildingBlock: MIFKUJ_clean_linker_0, # of connection points: 2
#     Edge 64, Type (0, 0), BuildingBlock: MIFKUJ_clean_linker_0, # of connection points: 2
#     Edge 65, Type (0, 0), BuildingBlock: MIFKUJ_clean_linker_0, # of connection points: 2
#     Edge 66, Type (0, 0), BuildingBlock: MIFKUJ_clean_linker_0, # of connection points: 2
#     Edge 67, Type (0, 0), BuildingBlock: MIFKUJ_clean_linker_0, # of connection points: 2
#     Edge 68, Type (0, 0), BuildingBlock: MIFKUJ_clean_linker_0, # of connection points: 2
#     Edge 69, Type (0, 0), BuildingBlock: MIFKUJ_clean_linker_0, # of connection points: 2
#     Edge 70, Type (0, 0), BuildingBlock: MIFKUJ_clean_linker_0, # of connection points: 2
#     Edge 71, Type (0, 0), BuildingBlock: MIFKUJ_clean_linker_0, # of connection points: 2
#     Edge 72, Type (0, 0), BuildingBlock: MIFKUJ_clean_linker_0, # of connection points: 2
#     Edge 73, Type (0, 0), BuildingBlock: MIFKUJ_clean_linker_0, # of connection points: 2
#     Edge 74, Type (0, 0), BuildingBlock: MIFKUJ_clean_linker_0, # of connection points: 2
#     Edge 75, Type (0, 0), BuildingBlock: MIFKUJ_clean_linker_0, # of connection points: 2
#     Edge 76, Type (0, 0), BuildingBlock: MIFKUJ_clean_linker_0, # of connection points: 2
#     Edge 77, Type (0, 0), BuildingBlock: MIFKUJ_clean_linker_0, # of connection points: 2
#     Edge 78, Type (0, 0), BuildingBlock: MIFKUJ_clean_linker_0, # of connection points: 2
#     Edge 79, Type (0, 0), BuildingBlock: MIFKUJ_clean_linker_0, # of connection points: 2
#     Edge 80, Type (0, 0), BuildingBlock: MIFKUJ_clean_linker_0, # of connection points: 2
#     Edge 81, Type (0, 0), BuildingBlock: MIFKUJ_clean_linker_0, # of connection points: 2
#     Edge 82, Type (0, 0), BuildingBlock: MIFKUJ_clean_linker_0, # of connection points: 2
#     Edge 83, Type (0, 0), BuildingBlock: MIFKUJ_clean_linker_0, # of connection points: 2
#     Edge 84, Type (0, 0), BuildingBlock: MIFKUJ_clean_linker_0, # of connection points: 2
#     Edge 85, Type (0, 0), BuildingBlock: MIFKUJ_clean_linker_0, # of connection points: 2
#     Edge 86, Type (0, 0), BuildingBlock: MIFKUJ_clean_linker_0, # of connection points: 2
#     Edge 87, Type (0, 0), BuildingBlock: MIFKUJ_clean_linker_0, # of connection points: 2
#     Edge 88, Type (0, 0), BuildingBlock: MIFKUJ_clean_linker_0, # of connection points: 2
#     Edge 89, Type (0, 0), BuildingBlock: MIFKUJ_clean_linker_0, # of connection points: 2
#     Edge 90, Type (0, 0), BuildingBlock: MIFKUJ_clean_linker_0, # of connection points: 2
#     Edge 91, Type (0, 0), BuildingBlock: MIFKUJ_clean_linker_0, # of connection points: 2
#     Edge 92, Type (0, 0), BuildingBlock: MIFKUJ_clean_linker_0, # of connection points: 2
#     Edge 93, Type (0, 0), BuildingBlock: MIFKUJ_clean_linker_0, # of connection points: 2
#     Edge 94, Type (0, 0), BuildingBlock: MIFKUJ_clean_linker_0, # of connection points: 2
#     Edge 95, Type (0, 0), BuildingBlock: MIFKUJ_clean_linker_0, # of connection points: 2
# Relax obj value: 0.041
# Max RMSD: 0.074
# Mean RMSD: 0.074
data_MOF--net-uos--node1-GALJAG_clean_sbu_0--edge1-MIFKUJ_clean_linker_0
_symmetry_space_group_name_H-M    P1
_symmetry_Int_Tables_number       1
_symmetry_cell_setting            triclinic
loop_
_symmetry_equiv_pos_as_xyz
'x, y, z'
_cell_length_a     117.01399
_cell_length_b     117.01734
_cell_length_c     27.047352
_cell_angle_alpha  90.014195
_cell_angle_beta   89.991959
_cell_angle_gamma 90.002582
loop_
_atom_site_label
_atom_site_type_symbol
_atom_site_fract_x
_atom_site_fract_y
_atom_site_fract_z
_atom_type_partial_charge
In0 In 0.17159 0.16764 0.12432 0.0
O1 O 0.17234 0.15661 0.05384 0.0
O2 O 0.15632 0.16343 0.07543 0.0
C3 C 0.19381 0.16627 0.15162 0.0
C4 C 0.16057 0.15725 0.19989 0.0
C5 C 0.16998 0.19035 0.10853 0.0
O6 O 0.18936 0.15924 0.12189 0.0
O7 O 0.18712 0.17394 0.16686 0.0
O8 O 0.16624 0.18548 0.14685 0.0
O9 O 0.17443 0.18371 0.07705 0.0
C10 C 0.16175 0.15725 0.04539 0.0
O11 O 0.15743 0.16671 0.18235 0.0
O12 O 0.16934 0.15308 0.17977 0.0
In13 In 0.08525 0.92144 0.37229 0.0
O14 O 0.09804 0.92194 0.30809 0.0
O15 O 0.08732 0.90735 0.31488 0.0
C16 C 0.08899 0.94345 0.39984 0.0
C17 C 0.09518 0.90752 0.43899 0.0
C18 C 0.06218 0.92061 0.36561 0.0
O19 O 0.0859 0.94084 0.35658 0.0
O20 O 0.09042 0.93504 0.42806 0.0
O21 O 0.06746 0.91997 0.40611 0.0
O22 O 0.06852 0.92156 0.32809 0.0
C23 C 0.09537 0.91217 0.29182 0.0
O24 O 0.08446 0.90838 0.4352 0.0
O25 O 0.1008 0.91362 0.40927 0.0
In26 In 0.33034 0.83568 0.62024 0.0
O27 O 0.32971 0.84952 0.55993 0.0
O28 O 0.34358 0.83787 0.55924 0.0
C29 C 0.30841 0.8371 0.65131 0.0
C30 C 0.34312 0.84688 0.68764 0.0
C31 C 0.33181 0.81272 0.61052 0.0
O32 O 0.3111 0.83795 0.60619 0.0
O33 O 0.31673 0.83555 0.68014 0.0
O34 O 0.33577 0.81804 0.64728 0.0
O35 O 0.32714 0.81898 0.57833 0.0
C36 C 0.33899 0.84653 0.53998 0.0
O37 O 0.34594 0.83723 0.67068 0.0
O38 O 0.33385 0.8508 0.67093 0.0
In39 In 0.41622 0.08002 0.86192 0.0
O40 O 0.40233 0.07871 0.80219 0.0
O41 O 0.41453 0.092 0.79576 0.0
C42 C 0.41526 0.05843 0.89732 0.0
C43 C 0.40536 0.09258 0.93169 0.0
C44 C 0.43874 0.08253 0.84284 0.0
O45 O 0.41177 0.06103 0.85457 0.0
O46 O 0.41922 0.06668 0.92196 0.0
O47 O 0.43282 0.09018 0.8635 0.0
O48 O 0.43328 0.07363 0.831 0.0
C49 C 0.40565 0.08739 0.77859 0.0
O50 O 0.41609 0.09242 0.92766 0.0
O51 O 0.40018 0.0863 0.90127 0.0
In52 In 0.17162 0.83476 0.8732 0.0
O53 O 0.15928 0.83499 0.80786 0.0
O54 O 0.16466 0.85094 0.83757 0.0
C55 C 0.16999 0.81187 0.88537 0.0
C56 C 0.16221 0.84492 0.95344 0.0
C57 C 0.19346 0.83714 0.84076 0.0
O58 O 0.16526 0.81716 0.85029 0.0
O59 O 0.17544 0.81815 0.91512 0.0
O60 O 0.19093 0.83741 0.8861 0.0
O61 O 0.18504 0.8358 0.81241 0.0
C62 C 0.15866 0.84575 0.80599 0.0
O63 O 0.17175 0.84794 0.93589 0.0
O64 O 0.15771 0.83648 0.93186 0.0
In65 In 0.41734 0.92186 0.12323 0.0
O66 O 0.41653 0.90742 0.06621 0.0
O67 O 0.402 0.91807 0.07355 0.0
C68 C 0.44004 0.92042 0.14012 0.0
C69 C 0.40684 0.91304 0.20407 0.0
C70 C 0.41638 0.94383 0.09199 0.0
O71 O 0.43517 0.91575 0.10374 0.0
O72 O 0.4334 0.92576 0.16891 0.0
O73 O 0.41135 0.94048 0.13065 0.0
O74 O 0.42184 0.93616 0.06942 0.0
C75 C 0.4065 0.90964 0.0522 0.0
O76 O 0.40433 0.92272 0.18666 0.0
O77 O 0.41487 0.90803 0.18182 0.0
In78 In 0.33083 0.16712 0.3653 0.0
O79 O 0.32952 0.15513 0.43289 0.0
O80 O 0.34558 0.16248 0.41623 0.0
C81 C 0.30838 0.16553 0.34218 0.0
C82 C 0.34215 0.15817 0.2868 0.0
C83 C 0.33266 0.18974 0.38256 0.0
O84 O 0.31395 0.1572 0.35967 0.0
O85 O 0.31408 0.17459 0.33707 0.0
O86 O 0.33577 0.18512 0.34257 0.0
O87 O 0.32859 0.18293 0.41433 0.0
C88 C 0.33998 0.15587 0.44372 0.0
O89 O 0.34633 0.16583 0.31399 0.0
O90 O 0.33217 0.1552 0.29838 0.0
In91 In 0.08606 0.07989 0.62559 0.0
O92 O 0.10006 0.07941 0.68492 0.0
O93 O 0.08818 0.09311 0.68676 0.0
C94 C 0.08753 0.05801 0.59381 0.0
C95 C 0.09701 0.09291 0.55836 0.0
C96 C 0.06315 0.08097 0.63735 0.0
O97 O 0.08927 0.06069 0.63848 0.0
O98 O 0.08509 0.06629 0.56605 0.0
O99 O 0.06813 0.08392 0.598 0.0
O100 O 0.06973 0.07759 0.67135 0.0
C101 C 0.09698 0.08862 0.7053 0.0
O102 O 0.08718 0.0954 0.57427 0.0
O103 O 0.10121 0.08389 0.57616 0.0
In104 In 0.83089 0.83482 0.86963 0.0
O105 O 0.8302 0.84629 0.93915 0.0
O106 O 0.84638 0.84085 0.91272 0.0
C107 C 0.80904 0.83609 0.83743 0.0
C108 C 0.84202 0.84565 0.79647 0.0
C109 C 0.83293 0.8122 0.88917 0.0
O110 O 0.81185 0.8389 0.88088 0.0
O111 O 0.81719 0.8327 0.81073 0.0
O112 O 0.83722 0.81687 0.85155 0.0
O113 O 0.8277 0.81895 0.91755 0.0
C114 C 0.84093 0.84668 0.9439 0.0
O115 O 0.84478 0.83578 0.81111 0.0
O116 O 0.8335 0.84999 0.8182 0.0
In117 In 0.91752 0.07996 0.6373 0.0
O118 O 0.91774 0.09336 0.57541 0.0
O119 O 0.90175 0.08646 0.59708 0.0
C120 C 0.9402 0.08066 0.65576 0.0
C121 C 0.90707 0.08702 0.7215 0.0
C122 C 0.91567 0.05906 0.59575 0.0
O123 O 0.93476 0.0891 0.6388 0.0
O124 O 0.93418 0.07194 0.66447 0.0
O125 O 0.91277 0.06098 0.64004 0.0
O126 O 0.91947 0.06765 0.57279 0.0
C127 C 0.90706 0.09327 0.5693 0.0
O128 O 0.90391 0.07824 0.69819 0.0
O129 O 0.91575 0.09186 0.70367 0.0
In130 In 0.67263 0.16561 0.37582 0.0
O131 O 0.67204 0.15841 0.45578 0.0
O132 O 0.65866 0.15412 0.40683 0.0
C133 C 0.69541 0.16201 0.36438 0.0
C134 C 0.66167 0.15904 0.29307 0.0
C135 C 0.66973 0.18853 0.38027 0.0
O136 O 0.68798 0.15478 0.35166 0.0
O137 O 0.69139 0.1708 0.38487 0.0
O138 O 0.67213 0.1833 0.34087 0.0
O139 O 0.66862 0.18219 0.41774 0.0
C140 C 0.66279 0.15307 0.44937 0.0
O141 O 0.65757 0.16636 0.32251 0.0
O142 O 0.67143 0.1553 0.30473 0.0
In143 In 0.58561 0.92312 0.12809 0.0
O144 O 0.59895 0.92364 0.19043 0.0
O145 O 0.58821 0.90909 0.18543 0.0
C146 C 0.58825 0.94496 0.09644 0.0
C147 C 0.5958 0.90981 0.05994 0.0
C148 C 0.56266 0.92199 0.1397 0.0
O149 O 0.58665 0.94253 0.14136 0.0
O150 O 0.58858 0.93645 0.06802 0.0
O151 O 0.56773 0.91827 0.10183 0.0
O152 O 0.56917 0.92625 0.17201 0.0
C153 C 0.59643 0.9139 0.20723 0.0
O154 O 0.58523 0.90916 0.06915 0.0
O155 O 0.60115 0.91721 0.08483 0.0
In156 In 0.83117 0.16604 0.134 0.0
O157 O 0.84667 0.16513 0.18528 0.0
O158 O 0.83417 0.15209 0.19148 0.0
C159 C 0.83216 0.18865 0.11419 0.0
C160 C 0.83997 0.15453 0.05571 0.0
C161 C 0.80941 0.16517 0.16725 0.0
O162 O 0.83723 0.18408 0.15028 0.0
O163 O 0.8266 0.18177 0.08734 0.0
O164 O 0.81246 0.16036 0.1275 0.0
O165 O 0.81729 0.17041 0.18962 0.0
C166 C 0.84355 0.15606 0.20646 0.0
O167 O 0.83038 0.15206 0.07419 0.0
O168 O 0.84481 0.16299 0.07541 0.0
In169 In 0.58365 0.08217 0.88244 0.0
O170 O 0.59263 0.08186 0.80647 0.0
O171 O 0.59238 0.09741 0.84721 0.0
C172 C 0.58573 0.05993 0.90926 0.0
C173 C 0.59421 0.09341 0.95618 0.0
C174 C 0.56096 0.08486 0.86514 0.0
O175 O 0.59 0.0637 0.86959 0.0
O176 O 0.58046 0.06729 0.93435 0.0
O177 O 0.56534 0.08532 0.90756 0.0
O178 O 0.56803 0.08326 0.83068 0.0
C179 C 0.59572 0.09221 0.80909 0.0
O180 O 0.5844 0.0962 0.94072 0.0
O181 O 0.59857 0.08484 0.93499 0.0
In182 In 0.67133 0.83595 0.6275 0.0
O183 O 0.6551 0.83737 0.67414 0.0
O184 O 0.66828 0.84953 0.68624 0.0
C185 C 0.66992 0.81302 0.61709 0.0
C186 C 0.6632 0.8477 0.54846 0.0
C187 C 0.69342 0.83692 0.65637 0.0
O188 O 0.66524 0.81836 0.65218 0.0
O189 O 0.67521 0.81927 0.58667 0.0
O190 O 0.69047 0.83855 0.61198 0.0
O191 O 0.68528 0.83487 0.68558 0.0
C192 C 0.65846 0.84601 0.69793 0.0
O193 O 0.67146 0.85124 0.57422 0.0
O194 O 0.65938 0.8381 0.56141 0.0
In195 In 0.91631 0.9234 0.37201 0.0
O196 O 0.91648 0.90998 0.43344 0.0
O197 O 0.90089 0.91873 0.4183 0.0
C198 C 0.9394 0.92226 0.36578 0.0
C199 C 0.90559 0.91276 0.29622 0.0
C200 C 0.91272 0.94576 0.39299 0.0
O201 O 0.93415 0.92299 0.40637 0.0
O202 O 0.93301 0.92198 0.32825 0.0
O203 O 0.91628 0.94253 0.35117 0.0
O204 O 0.91082 0.93779 0.42303 0.0
C205 C 0.90601 0.91128 0.44375 0.0
O206 O 0.90485 0.92344 0.30259 0.0
O207 O 0.91201 0.90772 0.32653 0.0
In208 In 0.67238 0.66719 0.62405 0.0
O209 O 0.67271 0.65358 0.56278 0.0
O210 O 0.65876 0.66512 0.56438 0.0
C211 C 0.69431 0.6657 0.65492 0.0
C212 C 0.66005 0.65598 0.69278 0.0
C213 C 0.67101 0.69016 0.61492 0.0
O214 O 0.69164 0.66518 0.6097 0.0
O215 O 0.68597 0.66692 0.68393 0.0
O216 O 0.66639 0.68473 0.6499 0.0
O217 O 0.67623 0.68399 0.58398 0.0
C218 C 0.66328 0.65655 0.54411 0.0
O219 O 0.65763 0.666 0.67903 0.0
O220 O 0.6687 0.65168 0.67205 0.0
In221 In 0.58451 0.42174 0.87199 0.0
O222 O 0.58409 0.4113 0.94375 0.0
O223 O 0.59997 0.41307 0.90669 0.0
C224 C 0.56202 0.42027 0.85047 0.0
C225 C 0.59495 0.4131 0.79098 0.0
C226 C 0.58673 0.44332 0.90693 0.0
O227 O 0.56714 0.41307 0.8772 0.0
O228 O 0.56831 0.42813 0.83354 0.0
O229 O 0.5902 0.4405 0.86443 0.0
O230 O 0.58228 0.43531 0.93132 0.0
C231 C 0.5946 0.40894 0.94284 0.0
O232 O 0.59837 0.4221 0.81221 0.0
O233 O 0.58603 0.40879 0.80936 0.0
In234 In 0.8295 0.33368 0.12713 0.0
O235 O 0.84461 0.33462 0.18052 0.0
O236 O 0.83292 0.34852 0.17948 0.0
C237 C 0.83082 0.31094 0.11041 0.0
C238 C 0.83813 0.34509 0.04817 0.0
C239 C 0.80779 0.33448 0.16114 0.0
O240 O 0.83601 0.31584 0.14539 0.0
O241 O 0.82502 0.31754 0.08332 0.0
O242 O 0.8103 0.33696 0.11695 0.0
O243 O 0.81618 0.33162 0.18761 0.0
C244 C 0.84189 0.34427 0.19771 0.0
O245 O 0.82881 0.34787 0.06833 0.0
O246 O 0.8428 0.33638 0.06663 0.0
In247 In 0.91648 0.57922 0.37392 0.0
O248 O 0.90255 0.57893 0.31416 0.0
O249 O 0.91455 0.59251 0.31284 0.0
C250 C 0.9147 0.5572 0.40338 0.0
C251 C 0.90567 0.59221 0.4416 0.0
C252 C 0.93947 0.58041 0.3662 0.0
O253 O 0.9147 0.55998 0.35824 0.0
O254 O 0.91551 0.56547 0.43296 0.0
O255 O 0.93407 0.58389 0.40365 0.0
O256 O 0.93327 0.57642 0.33213 0.0
C257 C 0.90573 0.58812 0.294 0.0
O258 O 0.91566 0.59443 0.4267 0.0
O259 O 0.90121 0.58345 0.42247 0.0
In260 In 0.67037 0.33444 0.3743 0.0
O261 O 0.65687 0.33516 0.31341 0.0
O262 O 0.66487 0.3507 0.33515 0.0
C263 C 0.66858 0.31143 0.38089 0.0
C264 C 0.66084 0.34468 0.45388 0.0
C265 C 0.69261 0.3367 0.34767 0.0
O266 O 0.66689 0.31685 0.3413 0.0
O267 O 0.67105 0.31761 0.41759 0.0
O268 O 0.68962 0.33531 0.39212 0.0
O269 O 0.68443 0.33712 0.31749 0.0
C270 C 0.65763 0.34585 0.3077 0.0
O271 O 0.67088 0.34691 0.43964 0.0
O272 O 0.65587 0.33698 0.42931 0.0
In273 In 0.91575 0.4207 0.62891 0.0
O274 O 0.90193 0.42145 0.68921 0.0
O275 O 0.91329 0.40734 0.68931 0.0
C276 C 0.91487 0.44232 0.59358 0.0
C277 C 0.90484 0.4082 0.55972 0.0
C278 C 0.93848 0.41921 0.64527 0.0
O279 O 0.91284 0.43999 0.63836 0.0
O280 O 0.91727 0.43379 0.56709 0.0
O281 O 0.93345 0.41364 0.61178 0.0
O282 O 0.93203 0.42545 0.67116 0.0
C283 C 0.90471 0.41206 0.70874 0.0
O284 O 0.91513 0.40641 0.57149 0.0
O285 O 0.90013 0.41634 0.58252 0.0
In286 In 0.83124 0.66727 0.87552 0.0
O287 O 0.84576 0.66633 0.81932 0.0
O288 O 0.83461 0.65205 0.82522 0.0
C289 C 0.83287 0.68998 0.89206 0.0
C290 C 0.84021 0.65596 0.95391 0.0
C291 C 0.80941 0.66646 0.8429 0.0
O292 O 0.83785 0.68503 0.85664 0.0
O293 O 0.82712 0.68345 0.91964 0.0
O294 O 0.81205 0.66422 0.88717 0.0
O295 O 0.81774 0.66909 0.81562 0.0
C296 C 0.84322 0.65643 0.80445 0.0
O297 O 0.83057 0.65348 0.93601 0.0
O298 O 0.84506 0.66434 0.93348 0.0
In299 In 0.58555 0.58054 0.12569 0.0
O300 O 0.58679 0.59535 0.07076 0.0
O301 O 0.60024 0.58323 0.0714 0.0
C302 C 0.56283 0.58191 0.14196 0.0
C303 C 0.59634 0.58979 0.20485 0.0
C304 C 0.58635 0.55843 0.09676 0.0
O305 O 0.56766 0.58607 0.10435 0.0
O306 O 0.56951 0.57714 0.17236 0.0
O307 O 0.59161 0.56197 0.13456 0.0
O308 O 0.58072 0.56598 0.07413 0.0
C309 C 0.59624 0.59226 0.05292 0.0
O310 O 0.59878 0.58 0.18836 0.0
O311 O 0.58823 0.59467 0.18266 0.0
In312 In 0.32969 0.33503 0.37659 0.0
O313 O 0.3296 0.35081 0.42726 0.0
O314 O 0.34082 0.33724 0.44524 0.0
C315 C 0.30776 0.33568 0.34527 0.0
C316 C 0.34283 0.345 0.30686 0.0
C317 C 0.33142 0.3122 0.38936 0.0
O318 O 0.31046 0.3378 0.38962 0.0
O319 O 0.31606 0.33325 0.31749 0.0
O320 O 0.33613 0.31742 0.35398 0.0
O321 O 0.32589 0.31851 0.4187 0.0
C322 C 0.33732 0.34713 0.4556 0.0
O323 O 0.34628 0.33664 0.33225 0.0
O324 O 0.33282 0.34826 0.31658 0.0
In325 In 0.41718 0.57876 0.13169 0.0
O326 O 0.40514 0.57858 0.19906 0.0
O327 O 0.41383 0.59399 0.18165 0.0
C328 C 0.41526 0.5567 0.10268 0.0
C329 C 0.40553 0.59044 0.06248 0.0
C330 C 0.44014 0.58027 0.14248 0.0
O331 O 0.41467 0.55959 0.14764 0.0
O332 O 0.41674 0.56487 0.07308 0.0
O333 O 0.43497 0.58352 0.1041 0.0
O334 O 0.43373 0.57635 0.1759 0.0
C335 C 0.40672 0.58901 0.20919 0.0
O336 O 0.41578 0.5927 0.0733 0.0
O337 O 0.40122 0.5822 0.08618 0.0
In338 In 0.17176 0.66612 0.87017 0.0
O339 O 0.17179 0.65263 0.93176 0.0
O340 O 0.15788 0.66424 0.92867 0.0
C341 C 0.19377 0.66371 0.84043 0.0
C342 C 0.15846 0.65562 0.80275 0.0
C343 C 0.17057 0.68908 0.88055 0.0
O344 O 0.19106 0.6647 0.8854 0.0
O345 O 0.18543 0.6638 0.81103 0.0
O346 O 0.16712 0.68392 0.84241 0.0
O347 O 0.17458 0.68266 0.91377 0.0
C348 C 0.16229 0.65569 0.94959 0.0
O349 O 0.15782 0.66622 0.81124 0.0
O350 O 0.16589 0.65038 0.82786 0.0
In351 In 0.08363 0.42098 0.62248 0.0
O352 O 0.09671 0.42174 0.68551 0.0
O353 O 0.08605 0.40713 0.68083 0.0
C354 C 0.085 0.44263 0.58797 0.0
C355 C 0.09481 0.4088 0.55283 0.0
C356 C 0.06094 0.41971 0.64019 0.0
O357 O 0.08808 0.43996 0.63121 0.0
O358 O 0.08121 0.43443 0.56257 0.0
O359 O 0.06584 0.41399 0.60681 0.0
O360 O 0.0675 0.42603 0.66523 0.0
C361 C 0.09414 0.41207 0.70288 0.0
O362 O 0.0844 0.40716 0.5628 0.0
O363 O 0.09951 0.41662 0.57762 0.0
In364 In 0.33181 0.66742 0.63405 0.0
O365 O 0.33191 0.65754 0.56003 0.0
O366 O 0.34767 0.66032 0.59691 0.0
C367 C 0.30966 0.66603 0.6622 0.0
C368 C 0.34177 0.65622 0.70941 0.0
C369 C 0.33438 0.69009 0.61638 0.0
O370 O 0.31318 0.66176 0.62206 0.0
O371 O 0.31725 0.67099 0.68734 0.0
O372 O 0.33802 0.68525 0.65486 0.0
O373 O 0.3296 0.68346 0.58595 0.0
C374 C 0.34258 0.65587 0.56074 0.0
O375 O 0.34495 0.66603 0.69566 0.0
O376 O 0.33344 0.65211 0.68554 0.0
In377 In 0.08551 0.57947 0.36979 0.0
O378 O 0.09874 0.57934 0.30725 0.0
O379 O 0.08703 0.59317 0.31009 0.0
C380 C 0.08855 0.55735 0.3971 0.0
C381 C 0.09561 0.59307 0.43742 0.0
C382 C 0.06245 0.58047 0.36378 0.0
O383 O 0.08575 0.56014 0.35374 0.0
O384 O 0.08999 0.56565 0.42598 0.0
O385 O 0.06792 0.58327 0.40211 0.0
O386 O 0.06862 0.57727 0.32808 0.0
C387 C 0.09551 0.5887 0.28874 0.0
O388 O 0.08491 0.59283 0.43134 0.0
O389 O 0.10117 0.58647 0.40945 0.0
In390 In 0.17143 0.33597 0.11849 0.0
O391 O 0.15572 0.33752 0.16836 0.0
O392 O 0.16779 0.35111 0.16882 0.0
C393 C 0.17039 0.31305 0.1077 0.0
C394 C 0.16295 0.34649 0.03731 0.0
C395 C 0.19319 0.33726 0.15145 0.0
O396 O 0.16611 0.31821 0.14427 0.0
O397 O 0.1751 0.31946 0.07619 0.0
O398 O 0.1907 0.33855 0.1063 0.0
O399 O 0.18476 0.33541 0.1793 0.0
C400 C 0.15851 0.34718 0.18538 0.0
O401 O 0.17203 0.34978 0.05814 0.0
O402 O 0.15847 0.33775 0.05636 0.0
In403 In 0.417 0.42052 0.8749 0.0
O404 O 0.41716 0.40784 0.93898 0.0
O405 O 0.40124 0.41523 0.9185 0.0
C406 C 0.43962 0.41936 0.85461 0.0
C407 C 0.40595 0.41134 0.79626 0.0
C408 C 0.4153 0.44203 0.91091 0.0
O409 O 0.43474 0.4128 0.88495 0.0
O410 O 0.43306 0.42641 0.83367 0.0
O411 O 0.41287 0.43961 0.86661 0.0
O412 O 0.41853 0.43365 0.93661 0.0
C413 C 0.40653 0.40844 0.94663 0.0
O414 O 0.4041 0.42142 0.81091 0.0
O415 O 0.41362 0.40615 0.81995 0.0
H416 H 0.29591 0.14618 0.32428 0.0
H417 H 0.27622 0.14505 0.29311 0.0
H418 H 0.27396 0.18182 0.29444 0.0
H419 H 0.29365 0.18303 0.32456 0.0
H420 H 0.25451 0.1698 0.33659 0.0
H421 H 0.27863 0.1702 0.19031 0.0
H422 H 0.29421 0.16288 0.1377 0.0
H423 H 0.27748 0.13029 0.12834 0.0
H424 H 0.26187 0.13738 0.18155 0.0
H425 H 0.20639 0.18299 0.19504 0.0
H426 H 0.22573 0.18163 0.22808 0.0
H427 H 0.22742 0.14628 0.18297 0.0
H428 H 0.20816 0.1478 0.14766 0.0
H429 H 0.24703 0.1556 0.16673 0.0
H430 H 0.22246 0.1546 0.30664 0.0
H431 H 0.20684 0.16079 0.36168 0.0
H432 H 0.22408 0.19262 0.38769 0.0
H433 H 0.23973 0.18669 0.33225 0.0
C434 C 0.29117 0.15401 0.31824 0.0
C435 C 0.2963 0.1647 0.32672 0.0
C436 C 0.27996 0.15335 0.30033 0.0
C437 C 0.27368 0.16336 0.29133 0.0
C438 C 0.27868 0.17401 0.30118 0.0
C439 C 0.28992 0.17468 0.31825 0.0
C440 C 0.26198 0.16281 0.27053 0.0
C441 C 0.25285 0.16678 0.29934 0.0
C442 C 0.25982 0.1585 0.2226 0.0
C443 C 0.26916 0.15427 0.19037 0.0
C444 C 0.27833 0.16144 0.17741 0.0
C445 C 0.28715 0.15734 0.14741 0.0
C446 C 0.28685 0.14612 0.12982 0.0
C447 C 0.27771 0.13898 0.14207 0.0
C448 C 0.26887 0.14303 0.17212 0.0
C449 C 0.2109 0.17494 0.19194 0.0
C450 C 0.20575 0.16548 0.16908 0.0
C451 C 0.22194 0.17414 0.21119 0.0
C452 C 0.22796 0.16376 0.20929 0.0
C453 C 0.22294 0.15436 0.18523 0.0
C454 C 0.21194 0.15523 0.16508 0.0
C455 C 0.23947 0.16279 0.23246 0.0
C456 C 0.24859 0.15852 0.20419 0.0
C457 C 0.2416 0.16665 0.28134 0.0
C458 C 0.23223 0.17023 0.31496 0.0
C459 C 0.22289 0.16295 0.32384 0.0
C460 C 0.21403 0.16641 0.35515 0.0
C461 C 0.21445 0.1771 0.37809 0.0
C462 C 0.22376 0.18435 0.36987 0.0
C463 C 0.23263 0.18094 0.33855 0.0
H464 H 0.20759 0.17976 0.40231 0.0
H465 H 0.29369 0.14296 0.10659 0.0
H466 H 0.08459 0.96332 0.34946 0.0
H467 H 0.08522 0.98286 0.38219 0.0
H468 H 0.09663 0.96993 0.52315 0.0
H469 H 0.09588 0.95045 0.49097 0.0
H470 H 0.07955 0.98483 0.53498 0.0
H471 H 0.11495 0.98382 0.44486 0.0
H472 H 0.12721 0.98085 0.37181 0.0
H473 H 0.1087 0.00676 0.29295 0.0
H474 H 0.09622 0.00978 0.36535 0.0
H475 H 0.0935 0.03852 0.64404 0.0
H476 H 0.09461 0.01902 0.61102 0.0
H477 H 0.08409 0.03135 0.46775 0.0
H478 H 0.08318 0.05078 0.50014 0.0
H479 H 0.10109 0.01667 0.45774 0.0
H480 H 0.06542 0.01741 0.54558 0.0
H481 H 0.05284 0.02044 0.61757 0.0
H482 H 0.07143 0.99508 0.69934 0.0
H483 H 0.08423 0.99201 0.62801 0.0
C484 C 0.08734 0.96467 0.38724 0.0
C485 C 0.09019 0.95536 0.41762 0.0
C486 C 0.08772 0.97584 0.4059 0.0
C487 C 0.09102 0.97787 0.45512 0.0
C488 C 0.09403 0.96857 0.48515 0.0
C489 C 0.09364 0.95744 0.4666 0.0
C490 C 0.09098 0.98962 0.47605 0.0
C491 C 0.0844 0.99176 0.51849 0.0
C492 C 0.09707 0.99873 0.45389 0.0
C493 C 0.10458 0.99695 0.41037 0.0
C494 C 0.11344 0.98882 0.41181 0.0
C495 C 0.12043 0.98714 0.37055 0.0
C496 C 0.11871 0.99359 0.32772 0.0
C497 C 0.11001 0.00176 0.32613 0.0
C498 C 0.10298 0.00347 0.36728 0.0
C499 C 0.09143 0.03705 0.60554 0.0
C500 C 0.08822 0.04617 0.57475 0.0
C501 C 0.09203 0.02591 0.58672 0.0
C502 C 0.08933 0.02369 0.53695 0.0
C503 C 0.08623 0.03283 0.50619 0.0
C504 C 0.08568 0.04394 0.52486 0.0
C505 C 0.08967 0.01188 0.51668 0.0
C506 C 0.09628 0.00973 0.47434 0.0
C507 C 0.08356 0.00277 0.53877 0.0
C508 C 0.07585 0.00457 0.58164 0.0
C509 C 0.06688 0.01255 0.57904 0.0
C510 C 0.05971 0.01426 0.6197 0.0
C511 C 0.06136 0.00798 0.66305 0.0
C512 C 0.07018 0.99995 0.66576 0.0
C513 C 0.07739 0.99821 0.62522 0.0
H514 H 0.05579 0.00932 0.69449 0.0
H515 H 0.12414 0.99228 0.29581 0.0
H516 H 0.20036 0.83668 0.7447 0.0
H517 H 0.21985 0.83727 0.71272 0.0
H518 H 0.2329 0.83986 0.86146 0.0
H519 H 0.2133 0.8394 0.89383 0.0
H520 H 0.24397 0.85433 0.79916 0.0
H521 H 0.23397 0.8147 0.80062 0.0
H522 H 0.22212 0.79777 0.78274 0.0
H523 H 0.22593 0.80366 0.62691 0.0
H524 H 0.23767 0.82074 0.64388 0.0
H525 H 0.3013 0.83821 0.747 0.0
H526 H 0.2817 0.83902 0.77794 0.0
H527 H 0.26896 0.83827 0.62834 0.0
H528 H 0.28864 0.83749 0.59697 0.0
H529 H 0.25776 0.82304 0.69058 0.0
H530 H 0.26818 0.86264 0.69031 0.0
H531 H 0.28024 0.87934 0.70952 0.0
H532 H 0.2759 0.87317 0.86488 0.0
H533 H 0.26395 0.85632 0.84659 0.0
C534 C 0.20736 0.83742 0.77067 0.0
C535 C 0.2053 0.83794 0.82184 0.0
C536 C 0.21851 0.83771 0.75231 0.0
C537 C 0.22785 0.83844 0.78471 0.0
C538 C 0.22582 0.83925 0.8358 0.0
C539 C 0.21463 0.83896 0.85425 0.0
C540 C 0.23971 0.83826 0.76506 0.0
C541 C 0.24703 0.84742 0.77598 0.0
C542 C 0.24364 0.82935 0.73391 0.0
C543 C 0.2366 0.81907 0.72354 0.0
C544 C 0.2322 0.81245 0.76254 0.0
C545 C 0.22552 0.80281 0.75257 0.0
C546 C 0.22325 0.79966 0.70372 0.0
C547 C 0.22768 0.80613 0.66473 0.0
C548 C 0.23436 0.81578 0.67451 0.0
C549 C 0.29433 0.83825 0.72062 0.0
C550 C 0.2965 0.8378 0.66952 0.0
C551 C 0.28314 0.83876 0.73838 0.0
C552 C 0.27388 0.8388 0.70544 0.0
C553 C 0.276 0.83828 0.65437 0.0
C554 C 0.28723 0.83787 0.63651 0.0
C555 C 0.26199 0.83912 0.72459 0.0
C556 C 0.25467 0.82997 0.71366 0.0
C557 C 0.2581 0.848 0.75592 0.0
C558 C 0.26526 0.85814 0.76706 0.0
C559 C 0.26988 0.86478 0.72857 0.0
C560 C 0.27668 0.87429 0.73929 0.0
C561 C 0.27886 0.87729 0.78839 0.0
C562 C 0.27422 0.87082 0.82686 0.0
C563 C 0.26742 0.86129 0.81634 0.0
H564 H 0.28412 0.88466 0.79661 0.0
H565 H 0.21808 0.7922 0.69607 0.0
H566 H 0.40263 0.04048 0.86286 0.0
H567 H 0.40149 0.02116 0.89727 0.0
H568 H 0.42613 0.0304 0.00917 0.0
H569 H 0.42683 0.04983 0.97636 0.0
H570 H 0.41526 0.00472 0.90563 0.0
H571 H 0.42272 0.0156 0.11341 0.0
H572 H 0.41844 0.03118 0.17206 0.0
H573 H 0.39011 0.04175 0.08214 0.0
H574 H 0.39412 0.02615 0.02333 0.0
H575 H 0.43099 0.95431 0.02827 0.0
H576 H 0.42996 0.97382 0.99659 0.0
H577 H 0.39917 0.97955 0.08103 0.0
H578 H 0.40056 0.96019 0.11491 0.0
H579 H 0.41086 0.99762 0.08543 0.0
H580 H 0.39929 0.97419 0.95094 0.0
H581 H 0.40048 0.95841 0.8907 0.0
H582 H 0.43138 0.97264 0.83114 0.0
H583 H 0.43045 0.98843 0.89148 0.0
C584 C 0.40775 0.03838 0.89495 0.0
C585 C 0.41475 0.04666 0.91716 0.0
C586 C 0.40712 0.02733 0.91456 0.0
C587 C 0.41358 0.02431 0.95641 0.0
C588 C 0.4208 0.03255 0.97778 0.0
C589 C 0.42126 0.04364 0.95879 0.0
C590 C 0.41295 0.01252 0.97711 0.0
C591 C 0.41426 0.00319 0.94494 0.0
C592 C 0.41135 0.01042 0.02826 0.0
C593 C 0.4088 0.01977 0.06373 0.0
C594 C 0.41555 0.02122 0.10627 0.0
C595 C 0.41318 0.03006 0.13952 0.0
C596 C 0.40404 0.03747 0.13075 0.0
C597 C 0.39722 0.03603 0.0888 0.0
C598 C 0.39955 0.0272 0.05546 0.0
C599 C 0.42402 0.95975 0.04016 0.0
C600 C 0.41582 0.95573 0.07383 0.0
C601 C 0.42339 0.97089 0.02175 0.0
C602 C 0.41433 0.97813 0.0354 0.0
C603 C 0.40622 0.97416 0.06973 0.0
C604 C 0.407 0.96308 0.08902 0.0
C605 C 0.41338 0.98984 0.01405 0.0
C606 C 0.4118 0.99916 0.04609 0.0
C607 C 0.41427 0.9919 0.96253 0.0
C608 C 0.41485 0.98244 0.92602 0.0
C609 C 0.40638 0.97391 0.92521 0.0
C610 C 0.407 0.96498 0.89101 0.0
C611 C 0.41601 0.96451 0.85718 0.0
C612 C 0.42441 0.973 0.8574 0.0
C613 C 0.42383 0.98196 0.89155 0.0
H614 H 0.41648 0.95758 0.83075 0.0
H615 H 0.40222 0.04431 0.15652 0.0
H616 H 0.80198 0.83491 0.74172 0.0
H617 H 0.78237 0.83549 0.71037 0.0
H618 H 0.76965 0.83881 0.85932 0.0
H619 H 0.78932 0.83842 0.89102 0.0
H620 H 0.75851 0.8215 0.79853 0.0
H621 H 0.76932 0.86135 0.79343 0.0
H622 H 0.78175 0.87751 0.77034 0.0
H623 H 0.7771 0.86959 0.61662 0.0
H624 H 0.76478 0.85327 0.63884 0.0
H625 H 0.70114 0.83533 0.75094 0.0
H626 H 0.72089 0.83542 0.77973 0.0
H627 H 0.73269 0.83903 0.62939 0.0
H628 H 0.71282 0.83921 0.60033 0.0
H629 H 0.74465 0.85254 0.68882 0.0
H630 H 0.73433 0.81331 0.68878 0.0
H631 H 0.7225 0.79637 0.70662 0.0
H632 H 0.72696 0.8018 0.86245 0.0
H633 H 0.7387 0.81888 0.84554 0.0
C634 C 0.79501 0.8358 0.76782 0.0
C635 C 0.79717 0.83664 0.81883 0.0
C636 C 0.78382 0.83615 0.74983 0.0
C637 C 0.77459 0.83722 0.78253 0.0
C638 C 0.77669 0.83798 0.83353 0.0
C639 C 0.78791 0.8378 0.85154 0.0
C640 C 0.76273 0.83744 0.76332 0.0
C641 C 0.7554 0.82836 0.77516 0.0
C642 C 0.75887 0.84617 0.73123 0.0
C643 C 0.76622 0.85602 0.71782 0.0
C644 C 0.77103 0.86299 0.75472 0.0
C645 C 0.77804 0.8722 0.74178 0.0
C646 C 0.78024 0.87456 0.69205 0.0
C647 C 0.7754 0.86774 0.65513 0.0
C648 C 0.7684 0.85852 0.66788 0.0
C649 C 0.70793 0.83616 0.72394 0.0
C650 C 0.70544 0.83721 0.67332 0.0
C651 C 0.71923 0.83615 0.74046 0.0
C652 C 0.7283 0.83704 0.70668 0.0
C653 C 0.72584 0.8383 0.65612 0.0
C654 C 0.71449 0.83837 0.63955 0.0
C655 C 0.74032 0.83665 0.72447 0.0
C656 C 0.74771 0.84567 0.71223 0.0
C657 C 0.74431 0.82774 0.75544 0.0
C658 C 0.73731 0.81744 0.76589 0.0
C659 C 0.73272 0.81094 0.72687 0.0
C660 C 0.72604 0.80131 0.73681 0.0
C661 C 0.72396 0.79802 0.78564 0.0
C662 C 0.72857 0.80436 0.82463 0.0
C663 C 0.73525 0.81401 0.8149 0.0
H664 H 0.71878 0.79056 0.79325 0.0
H665 H 0.78567 0.88169 0.68211 0.0
H666 H 0.92139 0.96466 0.34642 0.0
H667 H 0.92109 0.98445 0.37669 0.0
H668 H 0.9012 0.97388 0.50293 0.0
H669 H 0.90155 0.95416 0.47321 0.0
H670 H 0.89356 0.99428 0.46413 0.0
H671 H 0.92832 0.97739 0.51891 0.0
H672 H 0.94657 0.96701 0.51172 0.0
H673 H 0.95959 0.99305 0.41514 0.0
H674 H 0.94132 0.00354 0.42123 0.0
H675 H 0.90528 0.03991 0.63245 0.0
H676 H 0.90394 0.02106 0.59321 0.0
H677 H 0.92285 0.03361 0.46759 0.0
H678 H 0.92417 0.05246 0.50638 0.0
H679 H 0.93078 0.01254 0.50299 0.0
H680 H 0.89508 0.03006 0.45646 0.0
H681 H 0.87683 0.03995 0.47209 0.0
H682 H 0.86555 0.01196 0.56238 0.0
H683 H 0.88381 0.00196 0.54785 0.0
C684 C 0.91683 0.96661 0.38024 0.0
C685 C 0.91154 0.95788 0.40758 0.0
C686 C 0.9167 0.97788 0.39759 0.0
C687 C 0.91119 0.9806 0.44227 0.0
C688 C 0.90549 0.97197 0.46839 0.0
C689 C 0.90573 0.9607 0.45142 0.0
C690 C 0.91185 0.9923 0.46326 0.0
C691 C 0.90169 0.99826 0.47289 0.0
C692 C 0.92246 0.99749 0.47449 0.0
C693 C 0.93341 0.99117 0.47003 0.0
C694 C 0.93502 0.98084 0.49568 0.0
C695 C 0.94537 0.97496 0.49192 0.0
C696 C 0.95421 0.97936 0.46293 0.0
C697 C 0.95272 0.98965 0.43754 0.0
C698 C 0.94237 0.99557 0.44114 0.0
C699 C 0.90913 0.03865 0.59645 0.0
C700 C 0.91481 0.04766 0.57244 0.0
C701 C 0.90833 0.0279 0.57402 0.0
C702 C 0.91323 0.02597 0.52734 0.0
C703 C 0.919 0.03493 0.50357 0.0
C704 C 0.91971 0.04569 0.52573 0.0
C705 C 0.91249 0.01457 0.50357 0.0
C706 C 0.92265 0.00864 0.49363 0.0
C707 C 0.90186 0.00934 0.49287 0.0
C708 C 0.89086 0.01531 0.50142 0.0
C709 C 0.88875 0.02605 0.47997 0.0
C710 C 0.87839 0.03167 0.48857 0.0
C711 C 0.87005 0.0266 0.51831 0.0
C712 C 0.87203 0.01588 0.5394 0.0
C713 C 0.88237 0.01023 0.53095 0.0
H714 H 0.86204 0.03097 0.52492 0.0
H715 H 0.96224 0.97481 0.46045 0.0
H716 H 0.71302 0.17593 0.39178 0.0
H717 H 0.73264 0.17562 0.36074 0.0
H718 H 0.72487 0.14572 0.27356 0.0
H719 H 0.70531 0.14581 0.30561 0.0
H720 H 0.7458 0.14404 0.30984 0.0
H721 H 0.72476 0.17267 0.2224 0.0
H722 H 0.71245 0.18963 0.21315 0.0
H723 H 0.73757 0.21026 0.28686 0.0
H724 H 0.74997 0.19337 0.2972 0.0
H725 H 0.79197 0.15113 0.13763 0.0
H726 H 0.7727 0.14985 0.17313 0.0
H727 H 0.78106 0.17661 0.27664 0.0
H728 H 0.80031 0.17786 0.24181 0.0
H729 H 0.75981 0.17959 0.23019 0.0
H730 H 0.78083 0.15031 0.31645 0.0
H731 H 0.79294 0.13313 0.32251 0.0
H732 H 0.7675 0.1135 0.24582 0.0
H733 H 0.7553 0.13062 0.23866 0.0
C734 C 0.71554 0.16918 0.3666 0.0
C735 C 0.70761 0.16094 0.35087 0.0
C736 C 0.72674 0.16906 0.34861 0.0
C737 C 0.73017 0.1608 0.3139 0.0
C738 C 0.72242 0.15222 0.30008 0.0
C739 C 0.71124 0.15228 0.31842 0.0
C740 C 0.74166 0.16142 0.29047 0.0
C741 C 0.7488 0.15177 0.2919 0.0
C742 C 0.74565 0.17154 0.2674 0.0
C743 C 0.73824 0.18173 0.26101 0.0
C744 C 0.72763 0.1808 0.23696 0.0
C745 C 0.72064 0.19041 0.23148 0.0
C746 C 0.72421 0.20101 0.24952 0.0
C747 C 0.73481 0.20203 0.27297 0.0
C748 C 0.74182 0.19245 0.27862 0.0
C749 C 0.78968 0.15676 0.16785 0.0
C750 C 0.79765 0.16458 0.18703 0.0
C751 C 0.7787 0.15598 0.1882 0.0
C752 C 0.77549 0.16309 0.22772 0.0
C753 C 0.78337 0.17105 0.24621 0.0
C754 C 0.79437 0.17172 0.22634 0.0
C755 C 0.76394 0.16226 0.24997 0.0
C756 C 0.75678 0.17187 0.24814 0.0
C757 C 0.7599 0.15208 0.27213 0.0
C758 C 0.76721 0.14178 0.27654 0.0
C759 C 0.77786 0.14236 0.30048 0.0
C760 C 0.78474 0.13262 0.30419 0.0
C761 C 0.78101 0.12224 0.28443 0.0
C762 C 0.77039 0.12156 0.26103 0.0
C763 C 0.76348 0.13127 0.25716 0.0
H764 H 0.78634 0.11471 0.28736 0.0
H765 H 0.71879 0.20844 0.24524 0.0
H766 H 0.59644 0.04201 0.86262 0.0
H767 H 0.59828 0.02229 0.89269 0.0
H768 H 0.5794 0.03122 0.02413 0.0
H769 H 0.57762 0.05083 0.99469 0.0
H770 H 0.59815 0.01866 0.04616 0.0
H771 H 0.56675 0.01678 0.92956 0.0
H772 H 0.55775 0.01922 0.84778 0.0
H773 H 0.58248 0.99657 0.78327 0.0
H774 H 0.59171 0.99411 0.8646 0.0
H775 H 0.58218 0.96477 0.14311 0.0
H776 H 0.58299 0.98419 0.10976 0.0
H777 H 0.598 0.97123 0.97511 0.0
H778 H 0.59668 0.95178 0.00748 0.0
H779 H 0.58275 0.98577 0.95163 0.0
H780 H 0.61369 0.98656 0.06711 0.0
H781 H 0.6232 0.9841 0.14776 0.0
H782 H 0.60049 0.00868 0.21293 0.0
H783 H 0.59074 0.01118 0.1328 0.0
C784 C 0.59268 0.03974 0.89787 0.0
C785 C 0.58686 0.04796 0.92621 0.0
C786 C 0.59372 0.02848 0.91497 0.0
C787 C 0.58892 0.02527 0.96058 0.0
C788 C 0.58319 0.0335 0.98893 0.0
C789 C 0.58214 0.0447 0.97191 0.0
C790 C 0.58976 0.01335 0.97914 0.0
C791 C 0.59471 0.01146 0.0257 0.0
C792 C 0.58558 0.00393 0.95183 0.0
C793 C 0.57999 0.00537 0.90303 0.0
C794 C 0.57032 0.01239 0.89785 0.0
C795 C 0.56516 0.01376 0.8516 0.0
C796 C 0.56956 0.00808 0.81033 0.0
C797 C 0.57909 0.00098 0.81525 0.0
C798 C 0.58428 0.99959 0.86141 0.0
C799 C 0.58573 0.9661 0.10656 0.0
C800 C 0.58938 0.95678 0.07791 0.0
C801 C 0.58625 0.97721 0.08757 0.0
C802 C 0.59072 0.97925 0.04007 0.0
C803 C 0.5945 0.96992 0.01176 0.0
C804 C 0.59378 0.95881 0.03037 0.0
C805 C 0.59106 0.99102 0.01912 0.0
C806 C 0.58632 0.99291 0.97206 0.0
C807 C 0.59554 1.00043 0.04581 0.0
C808 C 0.60143 0.99899 0.09402 0.0
C809 C 0.61068 0.99139 0.09871 0.0
C810 C 0.61612 0.98999 0.14433 0.0
C811 C 0.61244 0.99621 0.18547 0.0
C812 C 0.60333 0.00386 0.18104 0.0
C813 C 0.59785 0.00528 0.13552 0.0
H814 H 0.61666 0.99512 0.22075 0.0
H815 H 0.56556 0.00915 0.77455 0.0
H816 H 0.70141 0.6635 0.75016 0.0
H817 H 0.72098 0.66316 0.7812 0.0
H818 H 0.73375 0.66659 0.63224 0.0
H819 H 0.71409 0.66658 0.60074 0.0
H820 H 0.74627 0.6517 0.68135 0.0
H821 H 0.73284 0.68958 0.71361 0.0
H822 H 0.71967 0.70427 0.7456 0.0
H823 H 0.72469 0.69187 0.89341 0.0
H824 H 0.73777 0.67699 0.86221 0.0
H825 H 0.80234 0.66941 0.74783 0.0
H826 H 0.78281 0.66877 0.71596 0.0
H827 H 0.77015 0.66191 0.86275 0.0
H828 H 0.78973 0.66258 0.89505 0.0
H829 H 0.75772 0.67856 0.81443 0.0
H830 H 0.77158 0.6407 0.77988 0.0
H831 H 0.78507 0.62652 0.74602 0.0
H832 H 0.77962 0.6397 0.59977 0.0
H833 H 0.76622 0.65407 0.63286 0.0
C834 C 0.70838 0.66416 0.72396 0.0
C835 C 0.70622 0.66514 0.67302 0.0
C836 C 0.71958 0.66402 0.74179 0.0
C837 C 0.72886 0.66508 0.70919 0.0
C838 C 0.72673 0.66581 0.65814 0.0
C839 C 0.7155 0.66583 0.64018 0.0
C840 C 0.74075 0.66546 0.72857 0.0
C841 C 0.74881 0.65768 0.70995 0.0
C842 C 0.74403 0.67312 0.76659 0.0
C843 C 0.73621 0.6821 0.7855 0.0
C844 C 0.73107 0.68993 0.75289 0.0
C845 C 0.72363 0.6983 0.77089 0.0
C846 C 0.72132 0.69899 0.82149 0.0
C847 C 0.72647 0.69132 0.85421 0.0
C848 C 0.73391 0.68292 0.8364 0.0
C849 C 0.79541 0.66775 0.77337 0.0
C850 C 0.79756 0.66602 0.82396 0.0
C851 C 0.78425 0.66734 0.75503 0.0
C852 C 0.77504 0.66518 0.78689 0.0
C853 C 0.77715 0.66356 0.83753 0.0
C854 C 0.78833 0.66392 0.8559 0.0
C855 C 0.76319 0.66478 0.76732 0.0
C856 C 0.75516 0.67257 0.78586 0.0
C857 C 0.75997 0.65721 0.72894 0.0
C858 C 0.76798 0.64853 0.70893 0.0
C859 C 0.77333 0.64063 0.74055 0.0
C860 C 0.78094 0.63255 0.72149 0.0
C861 C 0.78322 0.63223 0.67079 0.0
C862 C 0.77786 0.63997 0.63904 0.0
C863 C 0.77024 0.64808 0.65792 0.0
H864 H 0.78912 0.62597 0.65611 0.0
H865 H 0.71556 0.70547 0.83535 0.0
H866 H 0.57563 0.45199 0.98679 0.0
H867 H 0.57626 0.47147 0.01867 0.0
H868 H 0.60057 0.48062 0.90532 0.0
H869 H 0.59954 0.46118 0.87184 0.0
H870 H 0.59133 0.48398 0.0585 0.0
H871 H 0.59794 0.50846 0.8746 0.0
H872 H 0.59341 0.50639 0.78593 0.0
H873 H 0.56468 0.48512 0.82193 0.0
H874 H 0.56896 0.48719 0.91077 0.0
H875 H 0.60238 0.54216 0.11836 0.0
H876 H 0.60342 0.52263 0.08596 0.0
H877 H 0.57205 0.52814 0.00532 0.0
H878 H 0.57136 0.54778 0.03551 0.0
H879 H 0.58536 0.51743 0.949 0.0
H880 H 0.57407 0.51193 0.11767 0.0
H881 H 0.57545 0.51378 0.20832 0.0
H882 H 0.60792 0.49668 0.20635 0.0
H883 H 0.60679 0.49486 0.11558 0.0
C884 C 0.5811 0.45816 0.96857 0.0
C885 C 0.58748 0.45509 0.92661 0.0
C886 C 0.58149 0.4693 0.98699 0.0
C887 C 0.58837 0.4776 0.96422 0.0
C888 C 0.595 0.47446 0.92298 0.0
C889 C 0.59445 0.46334 0.90397 0.0
C890 C 0.58843 0.48953 0.98356 0.0
C891 C 0.59005 0.49129 0.03448 0.0
C892 C 0.58656 0.4991 0.95257 0.0
C893 C 0.58386 0.49788 0.89926 0.0
C894 C 0.59064 0.50337 0.86356 0.0
C895 C 0.58812 0.50219 0.81329 0.0
C896 C 0.57879 0.49559 0.7983 0.0
C897 C 0.57193 0.49019 0.83357 0.0
C898 C 0.57441 0.49135 0.88388 0.0
C899 C 0.59571 0.53916 0.09384 0.0
C900 C 0.58678 0.54646 0.07949 0.0
C901 C 0.59627 0.52798 0.07546 0.0
C902 C 0.58774 0.5238 0.04354 0.0
C903 C 0.57878 0.53112 0.02962 0.0
C904 C 0.57835 0.54234 0.04709 0.0
C905 C 0.58813 0.51189 0.02407 0.0
C906 C 0.58668 0.51013 0.97305 0.0
C907 C 0.58969 0.50229 0.05525 0.0
C908 C 0.5904 0.50337 0.10981 0.0
C909 C 0.58154 0.50864 0.13654 0.0
C910 C 0.58227 0.50967 0.18794 0.0
C911 C 0.59178 0.50538 0.21306 0.0
C912 C 0.60057 0.50002 0.18684 0.0
C913 C 0.59988 0.49898 0.13542 0.0
H914 H 0.59233 0.50618 0.25285 0.0
H915 H 0.57685 0.49468 0.75937 0.0
H916 H 0.70042 0.34072 0.25462 0.0
H917 H 0.72016 0.34059 0.22565 0.0
H918 H 0.73184 0.33367 0.37392 0.0
H919 H 0.712 0.33397 0.40346 0.0
H920 H 0.74543 0.34917 0.32856 0.0
H921 H 0.73043 0.31238 0.29021 0.0
H922 H 0.71662 0.29855 0.25629 0.0
H923 H 0.72232 0.31169 0.11015 0.0
H924 H 0.73604 0.32575 0.14334 0.0
H925 H 0.80095 0.3307 0.25602 0.0
H926 H 0.78154 0.3314 0.28923 0.0
H927 H 0.76855 0.33994 0.14465 0.0
H928 H 0.78801 0.3392 0.111 0.0
H929 H 0.75584 0.32322 0.19053 0.0
H930 H 0.77099 0.36031 0.23205 0.0
H931 H 0.78504 0.37359 0.26837 0.0
H932 H 0.7794 0.3589 0.41178 0.0
H933 H 0.76543 0.34542 0.37618 0.0
C934 C 0.70718 0.33923 0.28119 0.0
C935 C 0.70466 0.33728 0.3313 0.0
C936 C 0.71847 0.33911 0.26451 0.0
C937 C 0.72747 0.33692 0.29743 0.0
C938 C 0.72502 0.33533 0.34783 0.0
C939 C 0.71369 0.33548 0.36464 0.0
C940 C 0.73939 0.33614 0.27878 0.0
C941 C 0.74775 0.34338 0.29887 0.0
C942 C 0.74238 0.32869 0.23955 0.0
C943 C 0.73419 0.32019 0.21934 0.0
C944 C 0.72868 0.31238 0.25089 0.0
C945 C 0.72087 0.30449 0.23178 0.0
C946 C 0.71858 0.30425 0.18111 0.0
C947 C 0.7241 0.3119 0.14941 0.0
C948 C 0.7319 0.31983 0.16835 0.0
C949 C 0.79397 0.33274 0.23125 0.0
C950 C 0.796 0.33493 0.18088 0.0
C951 C 0.78288 0.33318 0.25036 0.0
C952 C 0.77361 0.33584 0.21954 0.0
C953 C 0.77559 0.3379 0.1691 0.0
C954 C 0.7867 0.33751 0.14995 0.0
C955 C 0.76183 0.33634 0.23991 0.0
C956 C 0.75352 0.32901 0.22022 0.0
C957 C 0.75892 0.34362 0.27983 0.0
C958 C 0.76724 0.35178 0.30135 0.0
C959 C 0.77281 0.35985 0.27126 0.0
C960 C 0.78075 0.36743 0.29173 0.0
C961 C 0.78313 0.36707 0.34233 0.0
C962 C 0.77756 0.35916 0.37259 0.0
C963 C 0.76962 0.35156 0.35229 0.0
H964 H 0.78928 0.37294 0.3581 0.0
H965 H 0.71254 0.29813 0.16639 0.0
H966 H 0.91134 0.46234 0.64376 0.0
H967 H 0.91099 0.48172 0.60967 0.0
H968 H 0.91713 0.46817 0.46369 0.0
H969 H 0.91774 0.44883 0.49767 0.0
H970 H 0.93003 0.4864 0.47864 0.0
H971 H 0.89038 0.47736 0.49986 0.0
H972 H 0.8732 0.47108 0.5452 0.0
H973 H 0.87706 0.49903 0.64671 0.0
H974 H 0.89435 0.50539 0.60235 0.0
H975 H 0.91565 0.53756 0.34826 0.0
H976 H 0.91526 0.51781 0.37879 0.0
H977 H 0.91193 0.53019 0.52832 0.0
H978 H 0.9123 0.54987 0.4982 0.0
H979 H 0.89731 0.51243 0.50898 0.0
H980 H 0.93722 0.52118 0.48798 0.0
H981 H 0.95417 0.52758 0.44139 0.0
H982 H 0.94956 0.50014 0.33789 0.0
H983 H 0.93247 0.49367 0.38347 0.0
C984 C 0.91259 0.4635 0.60441 0.0
C985 C 0.91452 0.45406 0.57338 0.0
C986 C 0.91235 0.47458 0.58491 0.0
C987 C 0.9139 0.47641 0.53396 0.0
C988 C 0.91591 0.46698 0.50306 0.0
C989 C 0.91622 0.45593 0.52254 0.0
C990 C 0.91348 0.48813 0.51284 0.0
C991 C 0.9228 0.49202 0.4847 0.0
C992 C 0.90414 0.49557 0.52138 0.0
C993 C 0.89372 0.49178 0.54805 0.0
C994 C 0.88761 0.48211 0.53207 0.0
C995 C 0.87785 0.47855 0.55756 0.0
C996 C 0.87406 0.48463 0.59888 0.0
C997 C 0.88001 0.49432 0.61473 0.0
C998 C 0.88979 0.49791 0.58941 0.0
C999 C 0.91478 0.53605 0.38759 0.0
C1000 C 0.91404 0.54525 0.42086 0.0
C1001 C 0.9146 0.52478 0.40499 0.0
C1002 C 0.91366 0.52255 0.45588 0.0
C1003 C 0.91267 0.53172 0.48895 0.0
C1004 C 0.91292 0.54296 0.47166 0.0
C1005 C 0.91386 0.51067 0.47503 0.0
C1006 C 0.90451 0.50676 0.5028 0.0
C1007 C 0.92315 0.50321 0.46601 0.0
C1008 C 0.93349 0.50701 0.43884 0.0
C1009 C 0.93977 0.51656 0.45506 0.0
C1010 C 0.94941 0.52019 0.42888 0.0
C1011 C 0.95292 0.51429 0.38663 0.0
C1012 C 0.94682 0.50471 0.37058 0.0
C1013 C 0.93716 0.50106 0.39659 0.0
H1014 H 0.96039 0.51712 0.3664 0.0
H1015 H 0.8665 0.48186 0.61856 0.0
H1016 H 0.30073 0.33377 0.24979 0.0
H1017 H 0.28122 0.33444 0.21795 0.0
H1018 H 0.26836 0.3391 0.36603 0.0
H1019 H 0.28797 0.33846 0.39834 0.0
H1020 H 0.25628 0.32264 0.3111 0.0
H1021 H 0.2693 0.3614 0.29163 0.0
H1022 H 0.28258 0.37646 0.26398 0.0
H1023 H 0.27797 0.36599 0.11312 0.0
H1024 H 0.26478 0.35076 0.13994 0.0
H1025 H 0.19984 0.3376 0.24776 0.0
H1026 H 0.21926 0.33768 0.28053 0.0
H1027 H 0.23273 0.33759 0.132 0.0
H1028 H 0.21321 0.33785 0.09888 0.0
H1029 H 0.24462 0.35175 0.18762 0.0
H1030 H 0.23213 0.31308 0.204 0.0
H1031 H 0.21922 0.29744 0.22882 0.0
H1032 H 0.22327 0.30677 0.38134 0.0
H1033 H 0.23608 0.32258 0.35739 0.0
C1034 C 0.29376 0.33494 0.27565 0.0
C1035 C 0.29588 0.33609 0.32659 0.0
C1036 C 0.28262 0.33536 0.25734 0.0
C1037 C 0.27335 0.33692 0.28956 0.0
C1038 C 0.27541 0.33792 0.34055 0.0
C1039 C 0.2866 0.33759 0.35892 0.0
C1040 C 0.26154 0.33744 0.26976 0.0
C1041 C 0.25365 0.3291 0.28469 0.0
C1042 C 0.25826 0.34566 0.23408 0.0
C1043 C 0.26613 0.35487 0.21785 0.0
C1044 C 0.27119 0.36225 0.25259 0.0
C1045 C 0.27869 0.37083 0.23706 0.0
C1046 C 0.28114 0.37216 0.18684 0.0
C1047 C 0.27607 0.36494 0.15202 0.0
C1048 C 0.26858 0.35634 0.16736 0.0
C1049 C 0.20693 0.33762 0.22202 0.0
C1050 C 0.20501 0.33766 0.17072 0.0
C1051 C 0.21804 0.33761 0.24083 0.0
C1052 C 0.22748 0.33742 0.20879 0.0
C1053 C 0.22558 0.33769 0.15747 0.0
C1054 C 0.21444 0.33782 0.13857 0.0
C1055 C 0.23929 0.33695 0.229 0.0
C1056 C 0.2472 0.34529 0.2141 0.0
C1057 C 0.24263 0.32864 0.26426 0.0
C1058 C 0.23498 0.31908 0.27885 0.0
C1059 C 0.2302 0.31185 0.24281 0.0
C1060 C 0.22291 0.30294 0.25672 0.0
C1061 C 0.22041 0.30113 0.30661 0.0
C1062 C 0.22521 0.30819 0.3427 0.0
C1063 C 0.2325 0.31712 0.32899 0.0
H1064 H 0.21476 0.29423 0.31731 0.0
H1065 H 0.28695 0.37881 0.17489 0.0
H1066 H 0.41268 0.54931 0.00805 0.0
H1067 H 0.41191 0.52962 0.97823 0.0
H1068 H 0.41548 0.51729 0.12768 0.0
H1069 H 0.41615 0.53708 0.15801 0.0
H1070 H 0.43035 0.50664 0.05778 0.0
H1071 H 0.3904 0.51542 0.07661 0.0
H1072 H 0.37297 0.52693 0.06447 0.0
H1073 H 0.37582 0.52273 0.90724 0.0
H1074 H 0.39337 0.51132 0.9184 0.0
H1075 H 0.41881 0.44865 0.00623 0.0
H1076 H 0.41811 0.46797 0.04015 0.0
H1077 H 0.4097 0.48126 0.89588 0.0
H1078 H 0.41016 0.46185 0.86185 0.0
H1079 H 0.39707 0.49142 0.96501 0.0
H1080 H 0.43665 0.48358 0.94221 0.0
H1081 H 0.45449 0.47253 0.94951 0.0
H1082 H 0.4532 0.47568 0.1076 0.0
H1083 H 0.43521 0.48659 0.10127 0.0
C1084 C 0.41325 0.54242 0.03466 0.0
C1085 C 0.41446 0.54473 0.08541 0.0
C1086 C 0.41278 0.53117 0.01754 0.0
C1087 C 0.41358 0.52201 0.05077 0.0
C1088 C 0.41483 0.52426 0.10148 0.0
C1089 C 0.41517 0.53555 0.11875 0.0
C1090 C 0.41329 0.51009 0.0321 0.0
C1091 C 0.42301 0.50322 0.03826 0.0
C1092 C 0.40385 0.50581 0.00512 0.0
C1093 C 0.39325 0.5126 0.99834 0.0
C1094 C 0.38736 0.51703 0.03942 0.0
C1095 C 0.37745 0.52352 0.03272 0.0
C1096 C 0.37331 0.52558 0.98511 0.0
C1097 C 0.37905 0.52113 0.9441 0.0
C1098 C 0.38897 0.51464 0.95059 0.0
C1099 C 0.41679 0.45568 0.98171 0.0
C1100 C 0.4146 0.45374 0.9313 0.0
C1101 C 0.41643 0.46673 0.00113 0.0
C1102 C 0.41402 0.4761 0.97045 0.0
C1103 C 0.41161 0.47417 0.92024 0.0
C1104 C 0.4119 0.46308 0.90081 0.0
C1105 C 0.41413 0.48791 0.99078 0.0
C1106 C 0.4044 0.49478 0.98478 0.0
C1107 C 0.42363 0.49226 0.01725 0.0
C1108 C 0.43452 0.4858 0.02129 0.0
C1109 C 0.44012 0.48185 0.97857 0.0
C1110 C 0.45027 0.47561 0.98252 0.0
C1111 C 0.45497 0.47338 0.029 0.0
C1112 C 0.44954 0.4774 0.07162 0.0
C1113 C 0.43937 0.48362 0.06787 0.0
H1114 H 0.46283 0.46855 0.03197 0.0
H1115 H 0.36563 0.53061 0.98 0.0
H1116 H 0.29107 0.65776 0.61179 0.0
H1117 H 0.27127 0.65658 0.6414 0.0
H1118 H 0.28151 0.67117 0.781 0.0
H1119 H 0.30122 0.6724 0.75175 0.0
H1120 H 0.26737 0.65243 0.79233 0.0
H1121 H 0.26833 0.68751 0.69886 0.0
H1122 H 0.27189 0.69928 0.62484 0.0
H1123 H 0.24778 0.67922 0.54241 0.0
H1124 H 0.24419 0.66722 0.61581 0.0
H1125 H 0.21337 0.66765 0.8929 0.0
H1126 H 0.23303 0.66729 0.86198 0.0
H1127 H 0.22077 0.65725 0.71785 0.0
H1128 H 0.20112 0.65802 0.74815 0.0
H1129 H 0.236 0.67301 0.70704 0.0
H1130 H 0.23449 0.63817 0.79987 0.0
H1131 H 0.231 0.62604 0.87288 0.0
H1132 H 0.25609 0.64492 0.95505 0.0
H1133 H 0.25962 0.65726 0.88271 0.0
C1134 C 0.28908 0.66072 0.64876 0.0
C1135 C 0.29768 0.66521 0.67938 0.0
C1136 C 0.27778 0.66006 0.66559 0.0
C1137 C 0.27492 0.66384 0.71334 0.0
C1138 C 0.28353 0.66819 0.74409 0.0
C1139 C 0.29478 0.66893 0.72721 0.0
C1140 C 0.26295 0.66339 0.73137 0.0
C1141 C 0.26051 0.65701 0.77401 0.0
C1142 C 0.25398 0.66915 0.70675 0.0
C1143 C 0.25608 0.67639 0.66267 0.0
C1144 C 0.26386 0.68555 0.66484 0.0
C1145 C 0.26587 0.69227 0.62302 0.0
C1146 C 0.26009 0.68998 0.57891 0.0
C1147 C 0.25226 0.68098 0.57658 0.0
C1148 C 0.25023 0.67422 0.61829 0.0
C1149 C 0.21489 0.6653 0.85473 0.0
C1150 C 0.20572 0.66285 0.82297 0.0
C1151 C 0.22614 0.66504 0.8371 0.0
C1152 C 0.22843 0.6621 0.78764 0.0
C1153 C 0.21925 0.65955 0.75609 0.0
C1154 C 0.20802 0.65996 0.77352 0.0
C1155 C 0.24035 0.66203 0.76825 0.0
C1156 C 0.2428 0.66834 0.72533 0.0
C1157 C 0.24932 0.65614 0.79247 0.0
C1158 C 0.24724 0.64871 0.83599 0.0
C1159 C 0.2392 0.63979 0.83362 0.0
C1160 C 0.23723 0.63286 0.87486 0.0
C1161 C 0.2433 0.63473 0.91861 0.0
C1162 C 0.25138 0.6435 0.92116 0.0
C1163 C 0.25338 0.65045 0.88003 0.0
H1164 H 0.24176 0.62936 0.9505 0.0
H1165 H 0.26166 0.6952 0.54657 0.0
H1166 H 0.09431 0.46144 0.63255 0.0
H1167 H 0.09571 0.48083 0.59898 0.0
H1168 H 0.07879 0.46975 0.46557 0.0
H1169 H 0.07759 0.45033 0.49846 0.0
H1170 H 0.09642 0.48311 0.44364 0.0
H1171 H 0.06459 0.48502 0.55603 0.0
H1172 H 0.05481 0.48276 0.63623 0.0
H1173 H 0.0785 0.50607 0.70353 0.0
H1174 H 0.08852 0.50835 0.62384 0.0
H1175 H 0.08174 0.53802 0.34832 0.0
H1176 H 0.08188 0.51839 0.37963 0.0
H1177 H 0.09769 0.53001 0.51477 0.0
H1178 H 0.09722 0.54965 0.48428 0.0
H1179 H 0.08091 0.5163 0.53589 0.0
H1180 H 0.11259 0.51469 0.42303 0.0
H1181 H 0.12236 0.51694 0.3428 0.0
H1182 H 0.09905 0.49312 0.27629 0.0
H1183 H 0.08905 0.49085 0.356 0.0
C1184 C 0.09088 0.46315 0.59609 0.0
C1185 C 0.0858 0.45438 0.56822 0.0
C1186 C 0.09165 0.47424 0.577 0.0
C1187 C 0.08723 0.47678 0.52994 0.0
C1188 C 0.08226 0.468 0.50193 0.0
C1189 C 0.08154 0.45691 0.52087 0.0
C1190 C 0.08777 0.48859 0.50981 0.0
C1191 C 0.09292 0.49036 0.46354 0.0
C1192 C 0.08341 0.49808 0.53622 0.0
C1193 C 0.07736 0.49677 0.58409 0.0
C1194 C 0.06776 0.4896 0.58802 0.0
C1195 C 0.06217 0.48833 0.63336 0.0
C1196 C 0.06605 0.49425 0.67497 0.0
C1197 C 0.07552 0.50148 0.67128 0.0
C1198 C 0.08114 0.50277 0.62603 0.0
C1199 C 0.08535 0.53636 0.38449 0.0
C1200 C 0.08947 0.54536 0.41386 0.0
C1201 C 0.08547 0.52513 0.4023 0.0
C1202 C 0.0899 0.52268 0.44945 0.0
C1203 C 0.09421 0.53167 0.47836 0.0
C1204 C 0.09397 0.54289 0.46082 0.0
C1205 C 0.08961 0.51086 0.46969 0.0
C1206 C 0.08447 0.50908 0.51599 0.0
C1207 C 0.09398 0.50136 0.44329 0.0
C1208 C 0.10001 0.50268 0.39539 0.0
C1209 C 0.1095 0.51 0.39122 0.0
C1210 C 0.11509 0.51126 0.34585 0.0
C1211 C 0.11131 0.5052 0.30445 0.0
C1212 C 0.10196 0.49782 0.30837 0.0
C1213 C 0.09634 0.49653 0.35364 0.0
H1214 H 0.11564 0.50619 0.26936 0.0
H1215 H 0.06171 0.49325 0.71005 0.0
H1216 H 0.17067 0.14035 0.98679 0.0
H1217 H 0.1603 0.12797 0.92912 0.0
H1218 H 0.12924 0.14666 0.95859 0.0
H1219 H 0.13949 0.15883 0.01699 0.0
H1220 H 0.12514 0.12474 0.96326 0.0
H1221 H 0.14438 0.14929 0.84791 0.0
H1222 H 0.1609 0.1589 0.80948 0.0
H1223 H 0.17564 0.12632 0.77375 0.0
H1224 H 0.15927 0.11652 0.81258 0.0
H1225 H 0.09064 0.1069 0.76138 0.0
H1226 H 0.10233 0.11753 0.82052 0.0
H1227 H 0.1303 0.0942 0.79615 0.0
H1228 H 0.11858 0.08344 0.73697 0.0
H1229 H 0.13674 0.11717 0.78994 0.0
H1230 H 0.11648 0.09282 0.90194 0.0
H1231 H 0.09951 0.08367 0.93871 0.0
H1232 H 0.0862 0.11656 0.97908 0.0
H1233 H 0.10301 0.12593 0.9419 0.0
C1234 C 0.16167 0.1419 0.98043 0.0
C1235 C 0.1559 0.15057 0.0064 0.0
C1236 C 0.15574 0.13483 0.9474 0.0
C1237 C 0.14397 0.1364 0.93927 0.0
C1238 C 0.13829 0.14524 0.96435 0.0
C1239 C 0.14418 0.15223 0.99755 0.0
C1240 C 0.13743 0.12859 0.90626 0.0
C1241 C 0.12762 0.12321 0.92519 0.0
C1242 C 0.1408 0.1263 0.85695 0.0
C1243 C 0.15066 0.13217 0.83365 0.0
C1244 C 0.15119 0.14418 0.83224 0.0
C1245 C 0.16052 0.14966 0.81031 0.0
C1246 C 0.16933 0.14323 0.78933 0.0
C1247 C 0.16882 0.1313 0.79011 0.0
C1248 C 0.15952 0.12577 0.81204 0.0
C1249 C 0.09922 0.10394 0.76907 0.0
C1250 C 0.10368 0.09431 0.74465 0.0
C1251 C 0.10589 0.11002 0.8029 0.0
C1252 C 0.11717 0.10664 0.81284 0.0
C1253 C 0.12161 0.09694 0.789 0.0
C1254 C 0.11489 0.09078 0.75547 0.0
C1255 C 0.1244 0.11351 0.84683 0.0
C1256 C 0.13433 0.11868 0.82812 0.0
C1257 C 0.12109 0.11569 0.89622 0.0
C1258 C 0.11097 0.11008 0.91873 0.0
C1259 C 0.10989 0.09811 0.91829 0.0
C1260 C 0.10031 0.09288 0.93928 0.0
C1261 C 0.09177 0.09953 0.96112 0.0
C1262 C 0.09281 0.11143 0.96211 0.0
C1263 C 0.10237 0.1167 0.94113 0.0
H1264 H 0.08436 0.09547 0.97736 0.0
H1265 H 0.17654 0.14749 0.77235 0.0
H1266 H 0.16887 0.86492 0.99718 0.0
H1267 H 0.15783 0.87676 0.05444 0.0
H1268 H 0.13085 0.85163 0.05459 0.0
H1269 H 0.14175 0.83987 0.99663 0.0
H1270 H 0.12224 0.87227 0.04121 0.0
H1271 H 0.14882 0.85547 0.15505 0.0
H1272 H 0.16781 0.85024 0.18739 0.0
H1273 H 0.17689 0.88572 0.19733 0.0
H1274 H 0.15799 0.89116 0.16441 0.0
H1275 H 0.09039 0.89174 0.2484 0.0
H1276 H 0.10203 0.88104 0.18939 0.0
H1277 H 0.12678 0.90835 0.18756 0.0
H1278 H 0.11515 0.91912 0.24692 0.0
H1279 H 0.13684 0.88744 0.20039 0.0
H1280 H 0.10979 0.90413 0.08909 0.0
H1281 H 0.09065 0.90915 0.0578 0.0
H1282 H 0.0823 0.87356 0.04413 0.0
H1283 H 0.10135 0.86832 0.07602 0.0
C1284 C 0.16066 0.86184 0.00997 0.0
C1285 C 0.15619 0.85145 0.99245 0.0
C1286 C 0.15435 0.86862 0.04278 0.0
C1287 C 0.14351 0.86508 0.05908 0.0
C1288 C 0.13917 0.85457 0.04246 0.0
C1289 C 0.14544 0.84782 0.00953 0.0
C1290 C 0.13647 0.87251 0.09177 0.0
C1291 C 0.12539 0.87546 0.07634 0.0
C1292 C 0.14067 0.87696 0.13696 0.0
C1293 C 0.15203 0.87372 0.15677 0.0
C1294 C 0.1549 0.86215 0.16374 0.0
C1295 C 0.16564 0.85915 0.18225 0.0
C1296 C 0.17356 0.86764 0.19427 0.0
C1297 C 0.17075 0.87915 0.18793 0.0
C1298 C 0.16002 0.8822 0.16938 0.0
C1299 C 0.09823 0.89554 0.23496 0.0
C1300 C 0.10184 0.90629 0.25221 0.0
C1301 C 0.10488 0.88942 0.20116 0.0
C1302 C 0.11526 0.89391 0.18385 0.0
C1303 C 0.1188 0.90472 0.20042 0.0
C1304 C 0.11212 0.91089 0.23409 0.0
C1305 C 0.12259 0.88709 0.14999 0.0
C1306 C 0.13372 0.88428 0.16518 0.0
C1307 C 0.11843 0.88272 0.10466 0.0
C1308 C 0.10697 0.88584 0.08537 0.0
C1309 C 0.10384 0.89737 0.0798 0.0
C1310 C 0.09302 0.90026 0.06188 0.0
C1311 C 0.08526 0.89168 0.0491 0.0
C1312 C 0.08832 0.88019 0.0541 0.0
C1313 C 0.09913 0.87726 0.07204 0.0
H1314 H 0.07688 0.89392 0.03523 0.0
H1315 H 0.18188 0.8653 0.20861 0.0
H1316 H 0.41174 0.89308 0.25153 0.0
H1317 H 0.39965 0.88268 0.30981 0.0
H1318 H 0.37464 0.90973 0.30378 0.0
H1319 H 0.38687 0.92033 0.24622 0.0
H1320 H 0.37639 0.90118 0.39658 0.0
H1321 H 0.3717 0.8862 0.23362 0.0
H1322 H 0.37859 0.87858 0.15426 0.0
H1323 H 0.39266 0.84935 0.22859 0.0
H1324 H 0.38617 0.85702 0.3088 0.0
H1325 H 0.33193 0.86663 0.49783 0.0
H1326 H 0.34257 0.87859 0.4393 0.0
H1327 H 0.36973 0.85365 0.43627 0.0
H1328 H 0.35909 0.84163 0.49391 0.0
H1329 H 0.36567 0.86187 0.34546 0.0
H1330 H 0.3708 0.87743 0.50919 0.0
H1331 H 0.36402 0.8854 0.58827 0.0
H1332 H 0.34881 0.91369 0.51162 0.0
H1333 H 0.35517 0.90569 0.43181 0.0
C1334 C 0.40375 0.8969 0.26316 0.0
C1335 C 0.4002 0.90748 0.24396 0.0
C1336 C 0.39682 0.89092 0.29634 0.0
C1337 C 0.38612 0.89531 0.31037 0.0
C1338 C 0.38283 0.90615 0.29329 0.0
C1339 C 0.38982 0.91219 0.26035 0.0
C1340 C 0.37813 0.88826 0.34038 0.0
C1341 C 0.37392 0.89264 0.38512 0.0
C1342 C 0.37496 0.87708 0.32561 0.0
C1343 C 0.37854 0.87224 0.27729 0.0
C1344 C 0.37632 0.87818 0.23311 0.0
C1345 C 0.38016 0.87384 0.18794 0.0
C1346 C 0.38605 0.86347 0.18632 0.0
C1347 C 0.3881 0.85739 0.2299 0.0
C1348 C 0.38436 0.86174 0.27526 0.0
C1349 C 0.3401 0.86364 0.48412 0.0
C1350 C 0.3447 0.85322 0.50063 0.0
C1351 C 0.3462 0.8705 0.45092 0.0
C1352 C 0.35704 0.8671 0.43398 0.0
C1353 C 0.3614 0.85648 0.4489 0.0
C1354 C 0.35531 0.84962 0.48194 0.0
C1355 C 0.36407 0.8747 0.40212 0.0
C1356 C 0.36809 0.87042 0.35687 0.0
C1357 C 0.36701 0.88598 0.4164 0.0
C1358 C 0.36335 0.89089 0.46446 0.0
C1359 C 0.36593 0.88531 0.50913 0.0
C1360 C 0.36217 0.88983 0.55411 0.0
C1361 C 0.35601 0.90005 0.555 0.0
C1362 C 0.35358 0.90577 0.51088 0.0
C1363 C 0.35724 0.90123 0.46574 0.0
H1364 H 0.35312 0.90355 0.58988 0.0
H1365 H 0.38905 0.86013 0.15132 0.0
H1366 H 0.41185 0.10526 0.7199 0.0
H1367 H 0.39975 0.11585 0.66234 0.0
H1368 H 0.37204 0.09239 0.68982 0.0
H1369 H 0.38421 0.08159 0.74689 0.0
H1370 H 0.37268 0.09899 0.59291 0.0
H1371 H 0.37342 0.117 0.75108 0.0
H1372 H 0.38279 0.12503 0.82477 0.0
H1373 H 0.39826 0.15118 0.73576 0.0
H1374 H 0.38931 0.14304 0.66108 0.0
H1375 H 0.33098 0.13797 0.49641 0.0
H1376 H 0.3411 0.1255 0.55487 0.0
H1377 H 0.37167 0.14563 0.53632 0.0
H1378 H 0.36167 0.15807 0.47826 0.0
H1379 H 0.36794 0.14011 0.63311 0.0
H1380 H 0.36848 0.12099 0.47462 0.0
H1381 H 0.35967 0.11248 0.40049 0.0
H1382 H 0.34143 0.08855 0.49132 0.0
H1383 H 0.35 0.09706 0.56617 0.0
C1384 C 0.40325 0.10223 0.71305 0.0
C1385 C 0.39894 0.09265 0.73824 0.0
C1386 C 0.39633 0.10832 0.68029 0.0
C1387 C 0.38491 0.10506 0.67262 0.0
C1388 C 0.3808 0.0951 0.69541 0.0
C1389 C 0.38776 0.08894 0.72801 0.0
C1390 C 0.37713 0.11249 0.64346 0.0
C1391 C 0.3715 0.10794 0.60212 0.0
C1392 C 0.37564 0.1242 0.65532 0.0
C1393 C 0.38076 0.12934 0.70037 0.0
C1394 C 0.37888 0.12442 0.74712 0.0
C1395 C 0.38412 0.12899 0.7891 0.0
C1396 C 0.39111 0.13863 0.785 0.0
C1397 C 0.39285 0.14371 0.73887 0.0
C1398 C 0.38771 0.1391 0.69668 0.0
C1399 C 0.33982 0.1398 0.50533 0.0
C1400 C 0.34554 0.14897 0.48269 0.0
C1401 C 0.3456 0.13264 0.53847 0.0
C1402 C 0.35717 0.13457 0.54953 0.0
C1403 C 0.36275 0.14398 0.5283 0.0
C1404 C 0.35702 0.15107 0.49505 0.0
C1405 C 0.36368 0.12667 0.58199 0.0
C1406 C 0.36904 0.13114 0.62415 0.0
C1407 C 0.36487 0.1149 0.57096 0.0
C1408 C 0.35977 0.10975 0.52601 0.0
C1409 C 0.36252 0.11398 0.47882 0.0
C1410 C 0.35758 0.10915 0.43666 0.0
C1411 C 0.34998 0.1 0.44117 0.0
C1412 C 0.34731 0.09565 0.48788 0.0
C1413 C 0.3522 0.10047 0.53019 0.0
H1414 H 0.34617 0.09627 0.40846 0.0
H1415 H 0.39518 0.14216 0.81752 0.0
H1416 H 0.86235 0.85522 0.93722 0.0
H1417 H 0.87251 0.86704 0.9969 0.0
H1418 H 0.84334 0.86589 0.09452 0.0
H1419 H 0.83284 0.85455 0.03295 0.0
H1420 H 0.852 0.88589 0.1003 0.0
H1421 H 0.86814 0.84865 0.11166 0.0
H1422 H 0.87688 0.83076 0.08173 0.0
H1423 H 0.90573 0.84954 0.02675 0.0
H1424 H 0.89709 0.86757 0.05579 0.0
H1425 H 0.90206 0.88988 0.29287 0.0
H1426 H 0.89023 0.87914 0.23529 0.0
H1427 H 0.8823 0.91027 0.15677 0.0
H1428 H 0.89378 0.92119 0.21628 0.0
H1429 H 0.89154 0.87471 0.14536 0.0
H1430 H 0.85645 0.90828 0.10027 0.0
H1431 H 0.84657 0.92438 0.14087 0.0
H1432 H 0.85366 0.9098 0.28327 0.0
H1433 H 0.86344 0.89355 0.24351 0.0
C1434 C 0.85809 0.85748 0.97143 0.0
C1435 C 0.84686 0.85385 0.98081 0.0
C1436 C 0.86393 0.86421 0.00568 0.0
C1437 C 0.85884 0.86713 0.05098 0.0
C1438 C 0.8475 0.86371 0.06001 0.0
C1439 C 0.84152 0.85719 0.025 0.0
C1440 C 0.86546 0.87361 0.08882 0.0
C1441 C 0.86064 0.88343 0.11023 0.0
C1442 C 0.87665 0.8703 0.10286 0.0
C1443 C 0.88192 0.85947 0.08555 0.0
C1444 C 0.87631 0.84897 0.09292 0.0
C1445 C 0.88125 0.83881 0.07615 0.0
C1446 C 0.89184 0.83902 0.05226 0.0
C1447 C 0.89752 0.84939 0.04522 0.0
C1448 C 0.89262 0.85958 0.06188 0.0
C1449 C 0.89781 0.89446 0.26332 0.0
C1450 C 0.89885 0.90638 0.25906 0.0
C1451 C 0.89104 0.8883 0.23031 0.0
C1452 C 0.88525 0.89386 0.19177 0.0
C1453 C 0.88647 0.90578 0.18676 0.0
C1454 C 0.8931 0.91201 0.2205 0.0
C1455 C 0.87813 0.88707 0.1567 0.0
C1456 C 0.88289 0.87719 0.1356 0.0
C1457 C 0.86673 0.89007 0.14465 0.0
C1458 C 0.86079 0.89977 0.16888 0.0
C1459 C 0.85587 0.9085 0.14023 0.0
C1460 C 0.85029 0.91765 0.1631 0.0
C1461 C 0.84953 0.91813 0.21462 0.0
C1462 C 0.8543 0.90944 0.24338 0.0
C1463 C 0.85988 0.90026 0.2207 0.0
H1464 H 0.84521 0.92523 0.23225 0.0
H1465 H 0.89565 0.83114 0.03929 0.0
H1466 H 0.83215 0.13489 0.01179 0.0
H1467 H 0.84253 0.12251 0.95396 0.0
H1468 H 0.87111 0.14581 0.95665 0.0
H1469 H 0.86074 0.15825 0.01347 0.0
H1470 H 0.86738 0.13851 0.86523 0.0
H1471 H 0.8705 0.1212 0.02654 0.0
H1472 H 0.86299 0.11291 0.10378 0.0
H1473 H 0.84596 0.08663 0.02107 0.0
H1474 H 0.85317 0.09491 0.94316 0.0
H1475 H 0.91271 0.10549 0.77773 0.0
H1476 H 0.90045 0.11582 0.83557 0.0
H1477 H 0.87379 0.09087 0.81392 0.0
H1478 H 0.88612 0.08036 0.75634 0.0
H1479 H 0.87509 0.09818 0.91122 0.0
H1480 H 0.8731 0.11504 0.74993 0.0
H1481 H 0.88136 0.12307 0.6737 0.0
H1482 H 0.89659 0.1503 0.75729 0.0
H1483 H 0.88866 0.14226 0.83429 0.0
C1484 C 0.84059 0.13742 0.99954 0.0
C1485 C 0.84564 0.14753 0.01728 0.0
C1486 C 0.84654 0.13031 0.96676 0.0
C1487 C 0.85767 0.13314 0.9515 0.0
C1488 C 0.86255 0.14342 0.96793 0.0
C1489 C 0.85661 0.15053 0.00049 0.0
C1490 C 0.86444 0.12535 0.91939 0.0
C1491 C 0.86912 0.12973 0.87554 0.0
C1492 C 0.86652 0.11378 0.93216 0.0
C1493 C 0.86226 0.10875 0.97899 0.0
C1494 C 0.86508 0.11371 0.02478 0.0
C1495 C 0.86089 0.109 0.06869 0.0
C1496 C 0.854 0.09926 0.06735 0.0
C1497 C 0.85129 0.09419 0.02206 0.0
C1498 C 0.85542 0.09889 0.97801 0.0
C1499 C 0.90432 0.10208 0.78591 0.0
C1500 C 0.90034 0.09216 0.76216 0.0
C1501 C 0.8973 0.10802 0.81883 0.0
C1502 C 0.88612 0.10424 0.82827 0.0
C1503 C 0.88236 0.09397 0.80695 0.0
C1504 C 0.88941 0.08797 0.77407 0.0
C1505 C 0.87818 0.11145 0.85772 0.0
C1506 C 0.87326 0.10695 0.90083 0.0
C1507 C 0.87588 0.12292 0.8444 0.0
C1508 C 0.88036 0.12798 0.79795 0.0
C1509 C 0.87826 0.12271 0.75211 0.0
C1510 C 0.88289 0.12726 0.70874 0.0
C1511 C 0.88951 0.13719 0.71065 0.0
C1512 C 0.89147 0.14261 0.75589 0.0
C1513 C 0.88691 0.13805 0.79941 0.0
H1514 H 0.89313 0.14069 0.6771 0.0
H1515 H 0.85077 0.09563 0.1014 0.0
H1516 H 0.61068 0.10939 0.82592 0.0
H1517 H 0.62316 0.11892 0.76677 0.0
H1518 H 0.60983 0.09762 0.64978 0.0
H1519 H 0.59784 0.0875 0.71012 0.0
H1520 H 0.63105 0.10021 0.63429 0.0
H1521 H 0.60133 0.12707 0.6707 0.0
H1522 H 0.58881 0.13877 0.72384 0.0
H1523 H 0.6181 0.1563 0.78215 0.0
H1524 H 0.6308 0.14461 0.72972 0.0
H1525 H 0.64571 0.13767 0.43623 0.0
H1526 H 0.63554 0.12671 0.49923 0.0
H1527 H 0.6564 0.14202 0.61273 0.0
H1528 H 0.6668 0.15297 0.54942 0.0
H1529 H 0.63206 0.14259 0.63057 0.0
H1530 H 0.66145 0.11566 0.58641 0.0
H1531 H 0.67294 0.10418 0.5283 0.0
H1532 H 0.64262 0.0871 0.47797 0.0
H1533 H 0.63092 0.0986 0.53531 0.0
C1534 C 0.61041 0.10674 0.78754 0.0
C1535 C 0.6032 0.0978 0.77239 0.0
C1536 C 0.61751 0.11225 0.75361 0.0
C1537 C 0.61724 0.10926 0.7033 0.0
C1538 C 0.61017 0.10016 0.68826 0.0
C1539 C 0.60329 0.0944 0.72263 0.0
C1540 C 0.62432 0.11565 0.66664 0.0
C1541 C 0.63112 0.10947 0.63318 0.0
C1542 C 0.62464 0.12778 0.66541 0.0
C1543 C 0.61702 0.1349 0.69659 0.0
C1544 C 0.6051 0.13338 0.69504 0.0
C1545 C 0.59797 0.14001 0.72501 0.0
C1546 C 0.60266 0.14825 0.75643 0.0
C1547 C 0.61448 0.14991 0.75782 0.0
C1548 C 0.62165 0.14329 0.72794 0.0
C1549 C 0.6482 0.13866 0.47457 0.0
C1550 C 0.65706 0.14618 0.48794 0.0
C1551 C 0.64239 0.13236 0.51048 0.0
C1552 C 0.64525 0.13351 0.56057 0.0
C1553 C 0.65409 0.141 0.57419 0.0
C1554 C 0.66004 0.14721 0.53807 0.0
C1555 C 0.6387 0.12713 0.59857 0.0
C1556 C 0.63198 0.13333 0.63206 0.0
C1557 C 0.63827 0.11505 0.5991 0.0
C1558 C 0.6453 0.10806 0.56488 0.0
C1559 C 0.65722 0.10952 0.56268 0.0
C1560 C 0.66377 0.103 0.52993 0.0
C1561 C 0.65851 0.09493 0.49939 0.0
C1562 C 0.64668 0.09336 0.50163 0.0
C1563 C 0.64009 0.09987 0.53429 0.0
H1564 H 0.66359 0.08989 0.47405 0.0
H1565 H 0.59713 0.15337 0.77964 0.0
H1566 H 0.64526 0.8417 0.4897 0.0
H1567 H 0.63509 0.85367 0.43032 0.0
H1568 H 0.65847 0.88138 0.45926 0.0
H1569 H 0.66863 0.86945 0.51941 0.0
H1570 H 0.63676 0.88874 0.46097 0.0
H1571 H 0.6596 0.86671 0.3504 0.0
H1572 H 0.66795 0.84929 0.314 0.0
H1573 H 0.63445 0.83733 0.27517 0.0
H1574 H 0.62587 0.8546 0.31198 0.0
H1575 H 0.61506 0.92202 0.25759 0.0
H1576 H 0.62726 0.91148 0.31548 0.0
H1577 H 0.60541 0.88197 0.30117 0.0
H1578 H 0.59325 0.89241 0.24332 0.0
H1579 H 0.62776 0.87642 0.28985 0.0
H1580 H 0.605 0.89806 0.40511 0.0
H1581 H 0.59678 0.91557 0.44135 0.0
H1582 H 0.63049 0.92841 0.47044 0.0
H1583 H 0.63892 0.91104 0.43373 0.0
C1584 C 0.64833 0.8503 0.48302 0.0
C1585 C 0.65777 0.85462 0.50914 0.0
C1586 C 0.64252 0.85713 0.44893 0.0
C1587 C 0.64606 0.86841 0.43997 0.0
C1588 C 0.65559 0.87271 0.46552 0.0
C1589 C 0.66142 0.86586 0.49967 0.0
C1590 C 0.6395 0.87581 0.40546 0.0
C1591 C 0.63497 0.88614 0.42325 0.0
C1592 C 0.63697 0.87234 0.35652 0.0
C1593 C 0.64209 0.86192 0.33436 0.0
C1594 C 0.654 0.86033 0.33447 0.0
C1595 C 0.65878 0.85048 0.31369 0.0
C1596 C 0.65173 0.8422 0.29239 0.0
C1597 C 0.63989 0.84375 0.29173 0.0
C1598 C 0.63507 0.85357 0.3125 0.0
C1599 C 0.61279 0.91334 0.26731 0.0
C1600 C 0.60319 0.90805 0.24594 0.0
C1601 C 0.61976 0.90732 0.30039 0.0
C1602 C 0.61724 0.89593 0.3127 0.0
C1603 C 0.60754 0.89073 0.29209 0.0
C1604 C 0.60056 0.89674 0.25922 0.0
C1605 C 0.62489 0.88924 0.34564 0.0
C1606 C 0.62963 0.87905 0.32747 0.0
C1607 C 0.62764 0.89286 0.39412 0.0
C1608 C 0.62259 0.90331 0.41615 0.0
C1609 C 0.61066 0.90467 0.41882 0.0
C1610 C 0.60596 0.91455 0.43953 0.0
C1611 C 0.61311 0.92311 0.45805 0.0
C1612 C 0.62497 0.92179 0.456 0.0
C1613 C 0.62971 0.91192 0.43527 0.0
H1614 H 0.60945 0.93076 0.47409 0.0
H1615 H 0.65545 0.83458 0.2763 0.0
H1616 H 0.67021 0.63655 0.50075 0.0
H1617 H 0.65934 0.62459 0.44315 0.0
H1618 H 0.63212 0.64945 0.44252 0.0
H1619 H 0.64285 0.66134 0.50046 0.0
H1620 H 0.62385 0.62851 0.45696 0.0
H1621 H 0.64998 0.64605 0.34294 0.0
H1622 H 0.66885 0.65159 0.31014 0.0
H1623 H 0.67829 0.61624 0.29776 0.0
H1624 H 0.65952 0.61049 0.33115 0.0
H1625 H 0.59163 0.61011 0.24971 0.0
H1626 H 0.60348 0.62052 0.30894 0.0
H1627 H 0.62816 0.59314 0.30707 0.0
H1628 H 0.61631 0.58266 0.24755 0.0
H1629 H 0.63822 0.61419 0.29588 0.0
H1630 H 0.61159 0.59672 0.40646 0.0
H1631 H 0.5926 0.59134 0.43834 0.0
H1632 H 0.58399 0.62676 0.45661 0.0
H1633 H 0.60288 0.63236 0.42413 0.0
C1634 C 0.66198 0.63954 0.48778 0.0
C1635 C 0.65739 0.64989 0.50512 0.0
C1636 C 0.65578 0.6327 0.45482 0.0
C1637 C 0.64491 0.63613 0.43837 0.0
C1638 C 0.64046 0.6466 0.45481 0.0
C1639 C 0.64663 0.65342 0.48774 0.0
C1640 C 0.63795 0.62864 0.4057 0.0
C1641 C 0.62695 0.6255 0.42146 0.0
C1642 C 0.6421 0.62441 0.36006 0.0
C1643 C 0.6534 0.62785 0.34008 0.0
C1644 C 0.65612 0.63946 0.33365 0.0
C1645 C 0.66679 0.64264 0.31486 0.0
C1646 C 0.67478 0.63427 0.30202 0.0
C1647 C 0.6721 0.62271 0.30782 0.0
C1648 C 0.66145 0.61949 0.32664 0.0
C1649 C 0.59951 0.60624 0.26233 0.0
C1650 C 0.60302 0.59555 0.24409 0.0
C1651 C 0.60627 0.61219 0.29625 0.0
C1652 C 0.61669 0.60758 0.31264 0.0
C1653 C 0.62016 0.59685 0.29493 0.0
C1654 C 0.61335 0.59085 0.26118 0.0
C1655 C 0.62408 0.6142 0.34691 0.0
C1656 C 0.63516 0.61716 0.33151 0.0
C1657 C 0.61999 0.61829 0.39286 0.0
C1658 C 0.60862 0.61496 0.41242 0.0
C1659 C 0.60561 0.60337 0.41687 0.0
C1660 C 0.59487 0.60028 0.43513 0.0
C1661 C 0.58708 0.6087 0.44938 0.0
C1662 C 0.59003 0.62024 0.4455 0.0
C1663 C 0.60075 0.62338 0.42721 0.0
H1664 H 0.57877 0.60629 0.46352 0.0
H1665 H 0.68303 0.63675 0.28746 0.0
H1666 H 0.61662 0.41794 0.7594 0.0
H1667 H 0.62834 0.40673 0.70231 0.0
H1668 H 0.59996 0.38393 0.67679 0.0
H1669 H 0.58833 0.39491 0.73492 0.0
H1670 H 0.61838 0.37206 0.69481 0.0
H1671 H 0.60958 0.40383 0.58847 0.0
H1672 H 0.60852 0.42415 0.56478 0.0
H1673 H 0.64496 0.4271 0.57839 0.0
H1674 H 0.64622 0.40683 0.60279 0.0
H1675 H 0.63896 0.34196 0.48618 0.0
H1676 H 0.62849 0.35394 0.54448 0.0
H1677 H 0.65868 0.3744 0.56793 0.0
H1678 H 0.66919 0.36251 0.50868 0.0
H1679 H 0.64033 0.38768 0.55328 0.0
H1680 H 0.64913 0.35567 0.65668 0.0
H1681 H 0.65013 0.3353 0.67963 0.0
H1682 H 0.61357 0.33279 0.67111 0.0
H1683 H 0.61236 0.35311 0.64745 0.0
C1684 C 0.61283 0.41064 0.741 0.0
C1685 C 0.60155 0.40731 0.75161 0.0
C1686 C 0.61954 0.40425 0.70828 0.0
C1687 C 0.61503 0.3945 0.68494 0.0
C1688 C 0.60365 0.39138 0.69443 0.0
C1689 C 0.59698 0.3977 0.72747 0.0
C1690 C 0.62231 0.38719 0.6527 0.0
C1691 C 0.62305 0.37546 0.66345 0.0
C1692 C 0.62872 0.39166 0.61273 0.0
C1693 C 0.62798 0.40384 0.59794 0.0
C1694 C 0.61736 0.40884 0.58678 0.0
C1695 C 0.61672 0.42034 0.57315 0.0
C1696 C 0.62667 0.42692 0.57021 0.0
C1697 C 0.63727 0.422 0.58075 0.0
C1698 C 0.63795 0.4105 0.59444 0.0
C1699 C 0.64343 0.34892 0.50418 0.0
C1700 C 0.65492 0.35126 0.49297 0.0
C1701 C 0.63743 0.35576 0.53762 0.0
C1702 C 0.64281 0.36502 0.56099 0.0
C1703 C 0.65435 0.3673 0.55039 0.0
C1704 C 0.66036 0.36046 0.51676 0.0
C1705 C 0.63625 0.37255 0.59504 0.0
C1706 C 0.63568 0.3843 0.58474 0.0
C1707 C 0.62996 0.36811 0.63541 0.0
C1708 C 0.63066 0.3559 0.6499 0.0
C1709 C 0.64131 0.35076 0.65936 0.0
C1710 C 0.64191 0.33922 0.67255 0.0
C1711 C 0.63192 0.33275 0.67672 0.0
C1712 C 0.62131 0.33781 0.66783 0.0
C1713 C 0.62065 0.34934 0.65459 0.0
H1714 H 0.63241 0.32382 0.68693 0.0
H1715 H 0.62616 0.43583 0.55966 0.0
H1716 H 0.90939 0.392 0.75559 0.0
H1717 H 0.89713 0.38148 0.81271 0.0
H1718 H 0.87212 0.40851 0.80622 0.0
H1719 H 0.88447 0.4192 0.7493 0.0
H1720 H 0.87446 0.4001 0.90012 0.0
H1721 H 0.86832 0.38485 0.73819 0.0
H1722 H 0.87399 0.37678 0.65762 0.0
H1723 H 0.88913 0.34794 0.73069 0.0
H1724 H 0.8837 0.35593 0.81179 0.0
H1725 H 0.83092 0.36538 0.00829 0.0
H1726 H 0.84119 0.37747 0.94902 0.0
H1727 H 0.86831 0.35255 0.94172 0.0
H1728 H 0.85805 0.34041 0.00024 0.0
H1729 H 0.86345 0.3607 0.85154 0.0
H1730 H 0.87065 0.37655 0.01334 0.0
H1731 H 0.8652 0.38469 0.09409 0.0
H1732 H 0.84805 0.4124 0.02111 0.0
H1733 H 0.85327 0.40433 0.93986 0.0
C1734 C 0.90135 0.39578 0.76675 0.0
C1735 C 0.89786 0.4064 0.74771 0.0
C1736 C 0.89432 0.38972 0.79921 0.0
C1737 C 0.88361 0.3941 0.81299 0.0
C1738 C 0.88032 0.40494 0.79586 0.0
C1739 C 0.88738 0.41104 0.76337 0.0
C1740 C 0.87573 0.38714 0.84386 0.0
C1741 C 0.87189 0.39155 0.88916 0.0
C1742 C 0.8725 0.37593 0.82985 0.0
C1743 C 0.87568 0.37104 0.7811 0.0
C1744 C 0.87292 0.37682 0.73711 0.0
C1745 C 0.87609 0.37226 0.69134 0.0
C1746 C 0.88194 0.36186 0.68905 0.0
C1747 C 0.88461 0.356 0.73253 0.0
C1748 C 0.88148 0.36053 0.77841 0.0
C1749 C 0.83901 0.36243 0.99359 0.0
C1750 C 0.84369 0.35196 0.00904 0.0
C1751 C 0.8449 0.36938 0.95997 0.0
C1752 C 0.8556 0.36599 0.94142 0.0
C1753 C 0.86008 0.35536 0.95556 0.0
C1754 C 0.85421 0.34843 0.98909 0.0
C1755 C 0.86232 0.37358 0.90823 0.0
C1756 C 0.86593 0.36928 0.86237 0.0
C1757 C 0.86533 0.38488 0.92175 0.0
C1758 C 0.86224 0.38977 0.97054 0.0
C1759 C 0.86564 0.38433 0.01451 0.0
C1760 C 0.86261 0.38894 0.06037 0.0
C1761 C 0.85626 0.39904 0.06273 0.0
C1762 C 0.85295 0.40456 0.01923 0.0
C1763 C 0.85595 0.39998 0.97327 0.0
H1764 H 0.85392 0.40259 0.09827 0.0
H1765 H 0.88438 0.35835 0.65358 0.0
H1766 H 0.88487 0.58205 0.25644 0.0
H1767 H 0.873 0.59299 0.19883 0.0
H1768 H 0.89963 0.61832 0.18609 0.0
H1769 H 0.91142 0.60755 0.24425 0.0
H1770 H 0.87967 0.62826 0.20286 0.0
H1771 H 0.89351 0.59923 0.09176 0.0
H1772 H 0.89698 0.57952 0.06323 0.0
H1773 H 0.86087 0.573 0.06255 0.0
H1774 H 0.85719 0.59264 0.09171 0.0
H1775 H 0.86109 0.65969 0.99525 0.0
H1776 H 0.87124 0.64762 0.05423 0.0
H1777 H 0.84246 0.62461 0.05948 0.0
H1778 H 0.83228 0.63662 0.99955 0.0
H1779 H 0.86219 0.61304 0.04931 0.0
H1780 H 0.84832 0.6424 0.15652 0.0
H1781 H 0.84488 0.66216 0.18445 0.0
H1782 H 0.88105 0.66805 0.19253 0.0
H1783 H 0.88472 0.64837 0.16398 0.0
C1784 C 0.88825 0.58987 0.24078 0.0
C1785 C 0.89908 0.59394 0.25486 0.0
C1786 C 0.88147 0.59611 0.20781 0.0
C1787 C 0.88543 0.60648 0.18796 0.0
C1788 C 0.89637 0.61038 0.20104 0.0
C1789 C 0.90312 0.60418 0.23411 0.0
C1790 C 0.87804 0.61356 0.15538 0.0
C1791 C 0.87596 0.62496 0.16896 0.0
C1792 C 0.87288 0.60917 0.112 0.0
C1793 C 0.87508 0.59737 0.09443 0.0
C1794 C 0.88631 0.59357 0.08592 0.0
C1795 C 0.88832 0.58241 0.06956 0.0
C1796 C 0.87916 0.575 0.06123 0.0
C1797 C 0.86796 0.57874 0.0691 0.0
C1798 C 0.86591 0.58989 0.08551 0.0
C1799 C 0.85686 0.65213 0.00932 0.0
C1800 C 0.84587 0.64912 0.99289 0.0
C1801 C 0.86267 0.64524 0.04318 0.0
C1802 C 0.85758 0.63526 0.06171 0.0
C1803 C 0.84655 0.63229 0.04574 0.0
C1804 C 0.84072 0.63918 0.01173 0.0
C1805 C 0.86398 0.62777 0.09642 0.0
C1806 C 0.86585 0.61631 0.08334 0.0
C1807 C 0.86896 0.63209 0.14032 0.0
C1808 C 0.86679 0.64393 0.15772 0.0
C1809 C 0.85554 0.64793 0.16391 0.0
C1810 C 0.85356 0.65912 0.17991 0.0
C1811 C 0.86274 0.66637 0.19016 0.0
C1812 C 0.87394 0.66243 0.18454 0.0
C1813 C 0.87598 0.65126 0.16851 0.0
H1814 H 0.86119 0.67502 0.20254 0.0
H1815 H 0.88073 0.56637 0.04855 0.0
H1816 H 0.353 0.34035 0.52402 0.0
H1817 H 0.3633 0.35229 0.58322 0.0
H1818 H 0.34429 0.38179 0.53444 0.0
H1819 H 0.33395 0.36985 0.47478 0.0
H1820 H 0.36712 0.38612 0.53849 0.0
H1821 H 0.33899 0.37052 0.6462 0.0
H1822 H 0.32733 0.35555 0.68569 0.0
H1823 H 0.35761 0.34009 0.74536 0.0
H1824 H 0.36949 0.35488 0.70557 0.0
H1825 H 0.38935 0.42076 0.73744 0.0
H1826 H 0.37676 0.41074 0.67922 0.0
H1827 H 0.39402 0.37903 0.71125 0.0
H1828 H 0.40662 0.38895 0.76908 0.0
H1829 H 0.37058 0.37711 0.71707 0.0
H1830 H 0.39867 0.39205 0.60415 0.0
H1831 H 0.41026 0.40707 0.56454 0.0
H1832 H 0.37974 0.42395 0.5153 0.0
H1833 H 0.36795 0.4091 0.55525 0.0
C1834 C 0.3509 0.34935 0.52632 0.0
C1835 C 0.34265 0.35416 0.49483 0.0
C1836 C 0.35678 0.35617 0.56027 0.0
C1837 C 0.35452 0.36793 0.5635 0.0
C1838 C 0.34616 0.37273 0.53261 0.0
C1839 C 0.34021 0.3659 0.49877 0.0
C1840 C 0.36131 0.37523 0.5976 0.0
C1841 C 0.3677 0.38429 0.57773 0.0
C1842 C 0.36225 0.37271 0.64862 0.0
C1843 C 0.35514 0.36376 0.67249 0.0
C1844 C 0.34318 0.36387 0.66735 0.0
C1845 C 0.33653 0.35543 0.68987 0.0
C1846 C 0.34173 0.34686 0.71791 0.0
C1847 C 0.35359 0.34673 0.72357 0.0
C1848 C 0.36029 0.35515 0.70108 0.0
C1849 C 0.39054 0.41168 0.73158 0.0
C1850 C 0.39899 0.40565 0.75777 0.0
C1851 C 0.38335 0.40597 0.69834 0.0
C1852 C 0.38445 0.39414 0.69094 0.0
C1853 C 0.393 0.38816 0.71651 0.0
C1854 C 0.40023 0.39386 0.74935 0.0
C1855 C 0.37652 0.38786 0.65779 0.0
C1856 C 0.3699 0.379 0.67791 0.0
C1857 C 0.37536 0.39059 0.60708 0.0
C1858 C 0.38243 0.39954 0.58322 0.0
C1859 C 0.39443 0.39903 0.58531 0.0
C1860 C 0.40103 0.4075 0.5627 0.0
C1861 C 0.39574 0.41648 0.53756 0.0
C1862 C 0.38383 0.417 0.53488 0.0
C1863 C 0.37718 0.40856 0.55747 0.0
H1864 H 0.40087 0.42303 0.52005 0.0
H1865 H 0.33656 0.34033 0.73535 0.0
H1866 H 0.33638 0.65058 0.46544 0.0
H1867 H 0.34703 0.63874 0.40634 0.0
H1868 H 0.3728 0.63245 0.5174 0.0
H1869 H 0.36259 0.64478 0.57487 0.0
H1870 H 0.38314 0.63581 0.43942 0.0
H1871 H 0.35116 0.61201 0.47891 0.0
H1872 H 0.3308 0.60695 0.48799 0.0
H1873 H 0.32561 0.61213 0.33244 0.0
H1874 H 0.34591 0.61735 0.32254 0.0
H1875 H 0.39272 0.58016 0.28114 0.0
H1876 H 0.38169 0.59081 0.34311 0.0
H1877 H 0.39449 0.62253 0.28343 0.0
H1878 H 0.4058 0.61197 0.2232 0.0
H1879 H 0.36499 0.60537 0.33887 0.0
H1880 H 0.39731 0.64254 0.36941 0.0
H1881 H 0.41817 0.6456 0.36952 0.0
H1882 H 0.42357 0.61012 0.40253 0.0
H1883 H 0.40275 0.60687 0.40328 0.0
C1884 C 0.34433 0.64667 0.47695 0.0
C1885 C 0.3487 0.64864 0.52456 0.0
C1886 C 0.35038 0.63982 0.44335 0.0
C1887 C 0.3607 0.63452 0.45739 0.0
C1888 C 0.36493 0.63645 0.50527 0.0
C1889 C 0.35907 0.6435 0.53823 0.0
C1890 C 0.36732 0.62722 0.42232 0.0
C1891 C 0.37913 0.62915 0.41758 0.0
C1892 C 0.36223 0.61834 0.39428 0.0
C1893 C 0.35003 0.61517 0.40008 0.0
C1894 C 0.34565 0.61214 0.44671 0.0
C1895 C 0.33413 0.60923 0.45199 0.0
C1896 C 0.32691 0.60924 0.41085 0.0
C1897 C 0.33121 0.61213 0.36429 0.0
C1898 C 0.34272 0.61506 0.35881 0.0
C1899 C 0.39325 0.5894 0.28169 0.0
C1900 C 0.40023 0.59522 0.24773 0.0
C1901 C 0.3869 0.59549 0.31689 0.0
C1902 C 0.38736 0.60749 0.31851 0.0
C1903 C 0.39418 0.61328 0.28389 0.0
C1904 C 0.40064 0.60722 0.24931 0.0
C1905 C 0.38074 0.61403 0.3561 0.0
C1906 C 0.36896 0.612 0.36102 0.0
C1907 C 0.38592 0.62255 0.38581 0.0
C1908 C 0.39847 0.62445 0.38591 0.0
C1909 C 0.40295 0.6354 0.37688 0.0
C1910 C 0.41477 0.63717 0.37676 0.0
C1911 C 0.42219 0.62805 0.38587 0.0
C1912 C 0.41781 0.61716 0.39529 0.0
C1913 C 0.406 0.61535 0.39551 0.0
H1914 H 0.43134 0.62944 0.38572 0.0
H1915 H 0.31799 0.60699 0.41501 0.0
H1916 H 0.16884 0.63563 0.99329 0.0
H1917 H 0.15772 0.62391 0.05092 0.0
H1918 H 0.1308 0.64909 0.0498 0.0
H1919 H 0.1419 0.66088 0.99276 0.0
H1920 H 0.13424 0.64118 0.14133 0.0
H1921 H 0.12907 0.62537 0.98014 0.0
H1922 H 0.13522 0.61739 0.90016 0.0
H1923 H 0.1508 0.58899 0.97467 0.0
H1924 H 0.14504 0.59699 0.05532 0.0
H1925 H 0.08945 0.60826 0.2405 0.0
H1926 H 0.10083 0.6191 0.18097 0.0
H1927 H 0.12731 0.5935 0.18783 0.0
H1928 H 0.11583 0.58246 0.24665 0.0
H1929 H 0.12441 0.6014 0.09388 0.0
H1930 H 0.12891 0.61798 0.25661 0.0
H1931 H 0.12165 0.6263 0.33431 0.0
H1932 H 0.10598 0.65365 0.25308 0.0
H1933 H 0.11296 0.64538 0.17481 0.0
C1934 C 0.16062 0.63873 0.00584 0.0
C1935 C 0.15623 0.64915 0.98838 0.0
C1936 C 0.15424 0.63199 0.03852 0.0
C1937 C 0.14334 0.63554 0.05411 0.0
C1938 C 0.13916 0.64616 0.03819 0.0
C1939 C 0.14552 0.65288 0.00554 0.0
C1940 C 0.13614 0.6281 0.08593 0.0
C1941 C 0.13201 0.63251 0.13072 0.0
C1942 C 0.13333 0.61674 0.07234 0.0
C1943 C 0.13673 0.61186 0.02386 0.0
C1944 C 0.1339 0.61748 0.97954 0.0
C1945 C 0.1373 0.61294 0.93406 0.0
C1946 C 0.14339 0.60268 0.93231 0.0
C1947 C 0.1461 0.59694 0.97608 0.0
C1948 C 0.14278 0.60149 0.02171 0.0
C1949 C 0.09763 0.60486 0.22884 0.0
C1950 C 0.10179 0.59455 0.24855 0.0
C1951 C 0.10415 0.61109 0.19498 0.0
C1952 C 0.11503 0.60724 0.18071 0.0
C1953 C 0.11896 0.59667 0.1985 0.0
C1954 C 0.1124 0.59038 0.23215 0.0
C1955 C 0.12252 0.61449 0.14924 0.0
C1956 C 0.1267 0.61004 0.10456 0.0
C1957 C 0.12528 0.62587 0.1626 0.0
C1958 C 0.12137 0.631 0.20983 0.0
C1959 C 0.12387 0.62574 0.25531 0.0
C1960 C 0.1198 0.63044 0.29945 0.0
C1961 C 0.11333 0.64048 0.29858 0.0
C1962 C 0.11098 0.64587 0.25365 0.0
C1963 C 0.11499 0.64118 0.20941 0.0
H1964 H 0.11015 0.64411 0.33268 0.0
H1965 H 0.14599 0.59917 0.89704 0.0
H1966 H 0.11375 0.41964 0.7471 0.0
H1967 H 0.12587 0.40918 0.80548 0.0
H1968 H 0.10181 0.38125 0.80556 0.0
H1969 H 0.08964 0.39167 0.74749 0.0
H1970 H 0.11008 0.3854 0.89788 0.0
H1971 H 0.12472 0.38021 0.73454 0.0
H1972 H 0.1318 0.38652 0.65329 0.0
H1973 H 0.16035 0.40303 0.72289 0.0
H1974 H 0.15322 0.39713 0.80488 0.0
H1975 H 0.14383 0.34043 0.9864 0.0
H1976 H 0.13287 0.35214 0.92864 0.0
H1977 H 0.15795 0.379 0.9408 0.0
H1978 H 0.16908 0.36724 0.99842 0.0
H1979 H 0.14962 0.37624 0.84432 0.0
H1980 H 0.13468 0.3801 0.00928 0.0
H1981 H 0.12748 0.37236 0.08806 0.0
H1982 H 0.09909 0.35706 0.01235 0.0
H1983 H 0.10633 0.3644 0.9328 0.0
C1984 C 0.11097 0.41135 0.76014 0.0
C1985 C 0.10078 0.40645 0.74253 0.0
C1986 C 0.11792 0.40536 0.7933 0.0
C1987 C 0.11481 0.39438 0.80935 0.0
C1988 C 0.10438 0.38971 0.7936 0.0
C1989 C 0.09745 0.39566 0.76033 0.0
C1990 C 0.12266 0.38748 0.84049 0.0
C1991 C 0.11869 0.38334 0.88603 0.0
C1992 C 0.13395 0.3849 0.82521 0.0
C1993 C 0.13835 0.38835 0.77594 0.0
C1994 C 0.13245 0.38528 0.73261 0.0
C1995 C 0.13648 0.38878 0.68639 0.0
C1996 C 0.14653 0.39517 0.68288 0.0
C1997 C 0.15256 0.39809 0.72566 0.0
C1998 C 0.14851 0.3947 0.77204 0.0
C1999 C 0.14712 0.34876 0.97624 0.0
C2000 C 0.15726 0.35296 0.99729 0.0
C2001 C 0.14083 0.35545 0.94332 0.0
C2002 C 0.14449 0.36652 0.93116 0.0
C2003 C 0.15495 0.3705 0.9499 0.0
C2004 C 0.16128 0.36378 0.98283 0.0
C2005 C 0.13701 0.37414 0.90156 0.0
C2006 C 0.14104 0.37841 0.85635 0.0
C2007 C 0.12573 0.37675 0.91687 0.0
C2008 C 0.12111 0.37272 0.96498 0.0
C2009 C 0.12694 0.37504 0.00937 0.0
C2010 C 0.12285 0.37071 0.05417 0.0
C2011 C 0.11283 0.36421 0.05522 0.0
C2012 C 0.10686 0.36208 0.01147 0.0
C2013 C 0.11096 0.36631 0.96649 0.0
H2014 H 0.1097 0.36084 0.08992 0.0
H2015 H 0.14965 0.39784 0.64702 0.0
H2016 H 0.16224 0.29762 0.17441 0.0
H2017 H 0.16264 0.27678 0.16852 0.0
H2018 H 0.17854 0.27913 0.02499 0.0
H2019 H 0.17814 0.30005 0.03057 0.0
H2020 H 0.16141 0.26281 0.02788 0.0
H2021 H 0.19467 0.27262 0.1203 0.0
H2022 H 0.20569 0.28224 0.18593 0.0
H2023 H 0.18624 0.26454 0.29666 0.0
H2024 H 0.17498 0.25494 0.23165 0.0
H2025 H 0.17748 0.20325 0.03018 0.0
H2026 H 0.17785 0.22419 0.02426 0.0
H2027 H 0.16235 0.22666 0.16857 0.0
H2028 H 0.16198 0.20587 0.17478 0.0
H2029 H 0.18082 0.24063 0.15977 0.0
H2030 H 0.14686 0.23169 0.06602 0.0
H2031 H 0.13592 0.22226 0.99962 0.0
H2032 H 0.15714 0.23833 0.89034 0.0
H2033 H 0.16831 0.24774 0.95617 0.0
C2034 C 0.16578 0.29371 0.14149 0.0
C2035 C 0.17021 0.30046 0.10305 0.0
C2036 C 0.16604 0.28181 0.13825 0.0
C2037 C 0.17074 0.27642 0.09656 0.0
C2038 C 0.1749 0.28313 0.05751 0.0
C2039 C 0.17469 0.29506 0.06083 0.0
C2040 C 0.17146 0.26377 0.09446 0.0
C2041 C 0.16581 0.25795 0.05624 0.0
C2042 C 0.17711 0.25745 0.13177 0.0
C2043 C 0.18391 0.26314 0.17106 0.0
C2044 C 0.19268 0.27084 0.15865 0.0
C2045 C 0.19898 0.27628 0.19574 0.0
C2046 C 0.19665 0.27402 0.24544 0.0
C2047 C 0.18803 0.26629 0.25814 0.0
C2048 C 0.18169 0.26084 0.22117 0.0
C2049 C 0.17408 0.20828 0.06043 0.0
C2050 C 0.1697 0.20292 0.10292 0.0
C2051 C 0.17428 0.22022 0.05698 0.0
C2052 C 0.1701 0.22698 0.09598 0.0
C2053 C 0.16565 0.22162 0.13815 0.0
C2054 C 0.1654 0.20973 0.14152 0.0
C2055 C 0.17056 0.23964 0.09378 0.0
C2056 C 0.17649 0.24548 0.13119 0.0
C2057 C 0.16522 0.24595 0.0556 0.0
C2058 C 0.15851 0.24031 0.01603 0.0
C2059 C 0.14926 0.23313 0.02784 0.0
C2060 C 0.14301 0.22781 0.99031 0.0
C2061 C 0.14586 0.22967 0.9408 0.0
C2062 C 0.15496 0.23688 0.92871 0.0
C2063 C 0.16125 0.24222 0.96611 0.0
H2064 H 0.141 0.22554 0.91179 0.0
H2065 H 0.20153 0.27824 0.2741 0.0
H2066 H 0.95475 0.92654 0.43929 0.0
H2067 H 0.97561 0.92648 0.43365 0.0
H2068 H 0.97346 0.91724 0.27956 0.0
H2069 H 0.95253 0.9174 0.28483 0.0
H2070 H 0.98948 0.90435 0.3304 0.0
H2071 H 0.98054 0.94327 0.30491 0.0
H2072 H 0.97193 0.96222 0.31878 0.0
H2073 H 0.98919 0.96483 0.45838 0.0
H2074 H 0.99779 0.9458 0.4457 0.0
H2075 H 0.04881 0.91761 0.28362 0.0
H2076 H 0.02784 0.91766 0.27954 0.0
H2077 H 0.02619 0.92367 0.43667 0.0
H2078 H 0.04708 0.92343 0.44119 0.0
H2079 H 0.01214 0.93852 0.37726 0.0
H2080 H 0.0206 0.89836 0.39942 0.0
H2081 H 0.02989 0.88012 0.37784 0.0
H2082 H 0.01374 0.88067 0.23532 0.0
H2083 H 0.00448 0.89902 0.25581 0.0
C2084 C 0.95871 0.92449 0.40421 0.0
C2085 C 0.95201 0.92199 0.36248 0.0
C2086 C 0.97063 0.9245 0.40099 0.0
C2087 C 0.97608 0.92193 0.35609 0.0
C2088 C 0.96942 0.91926 0.31452 0.0
C2089 C 0.95748 0.91938 0.31757 0.0
C2090 C 0.98874 0.92199 0.35297 0.0
C2091 C 0.99443 0.91187 0.33993 0.0
C2092 C 0.9952 0.93179 0.3657 0.0
C2093 C 0.98973 0.94305 0.37455 0.0
C2094 C 0.98238 0.94781 0.33889 0.0
C2095 C 0.97754 0.95858 0.34645 0.0
C2096 C 0.98002 0.96473 0.3894 0.0
C2097 C 0.98728 0.96006 0.4251 0.0
C2098 C 0.99215 0.94928 0.41774 0.0
C2099 C 0.04396 0.91891 0.31727 0.0
C2100 C 0.04956 0.9205 0.36274 0.0
C2101 C 0.03201 0.91891 0.3149 0.0
C2102 C 0.02549 0.92065 0.35784 0.0
C2103 C 0.03107 0.92232 0.40315 0.0
C2104 C 0.043 0.92214 0.40567 0.0
C2105 C 0.01284 0.92084 0.35569 0.0
C2106 C 0.00716 0.93102 0.36765 0.0
C2107 C 0.00641 0.91116 0.34122 0.0
C2108 C 0.01195 0.90013 0.32893 0.0
C2109 C 0.01912 0.89465 0.3633 0.0
C2110 C 0.02436 0.88428 0.35131 0.0
C2111 C 0.02244 0.87926 0.30518 0.0
C2112 C 0.01524 0.88458 0.271 0.0
C2113 C 0.00999 0.89496 0.2828 0.0
H2114 H 0.0265 0.87122 0.29597 0.0
H2115 H 0.97638 0.97313 0.39482 0.0
H2116 H 0.3413 0.79772 0.67579 0.0
H2117 H 0.34226 0.77693 0.66918 0.0
H2118 H 0.32496 0.77841 0.52851 0.0
H2119 H 0.32382 0.79927 0.53525 0.0
H2120 H 0.31621 0.76178 0.58618 0.0
H2121 H 0.35355 0.77317 0.53398 0.0
H2122 H 0.37194 0.78337 0.53964 0.0
H2123 H 0.37983 0.76556 0.67415 0.0
H2124 H 0.36141 0.75537 0.66968 0.0
H2125 H 0.32642 0.70271 0.53839 0.0
H2126 H 0.32663 0.72357 0.52979 0.0
H2127 H 0.34394 0.72651 0.67004 0.0
H2128 H 0.34392 0.70573 0.67844 0.0
H2129 H 0.35292 0.74095 0.6039 0.0
H2130 H 0.31508 0.73079 0.65976 0.0
H2131 H 0.29666 0.7206 0.6552 0.0
H2132 H 0.28972 0.73613 0.51457 0.0
H2133 H 0.30818 0.7463 0.51798 0.0
C2134 C 0.33773 0.79363 0.64336 0.0
C2135 C 0.33252 0.80013 0.60595 0.0
C2136 C 0.33833 0.78174 0.63952 0.0
C2137 C 0.33382 0.77611 0.59803 0.0
C2138 C 0.32853 0.78258 0.56077 0.0
C2139 C 0.32791 0.79449 0.56461 0.0
C2140 C 0.33445 0.76345 0.59424 0.0
C2141 C 0.32426 0.75723 0.58914 0.0
C2142 C 0.34493 0.7575 0.599 0.0
C2143 C 0.35605 0.76357 0.60168 0.0
C2144 C 0.35917 0.77149 0.56496 0.0
C2145 C 0.36961 0.77726 0.56792 0.0
C2146 C 0.37704 0.77513 0.60728 0.0
C2147 C 0.37406 0.76721 0.6437 0.0
C2148 C 0.36363 0.76142 0.64093 0.0
C2149 C 0.33035 0.70781 0.56715 0.0
C2150 C 0.33511 0.7026 0.60919 0.0
C2151 C 0.33042 0.71972 0.56231 0.0
C2152 C 0.33517 0.72661 0.59958 0.0
C2153 C 0.34022 0.72138 0.64084 0.0
C2154 C 0.34017 0.7095 0.64564 0.0
C2155 C 0.33467 0.73928 0.59657 0.0
C2156 C 0.34488 0.74551 0.60041 0.0
C2157 C 0.32421 0.74523 0.59077 0.0
C2158 C 0.31307 0.7392 0.58887 0.0
C2159 C 0.30967 0.73197 0.6277 0.0
C2160 C 0.29921 0.72621 0.62535 0.0
C2161 C 0.29204 0.72769 0.58455 0.0
C2162 C 0.29529 0.73497 0.5461 0.0
C2163 C 0.30575 0.74074 0.54823 0.0
H2164 H 0.28395 0.72322 0.58279 0.0
H2165 H 0.38512 0.77961 0.60952 0.0
H2166 H 0.45125 0.10216 0.8437 0.0
H2167 H 0.47199 0.10411 0.83642 0.0
H2168 H 0.4751 0.06749 0.82158 0.0
H2169 H 0.45433 0.06562 0.82626 0.0
H2170 H 0.48776 0.09796 0.8923 0.0
H2171 H 0.49883 0.05964 0.76235 0.0
H2172 H 0.49065 0.04987 0.68969 0.0
H2173 H 0.47188 0.08016 0.65195 0.0
H2174 H 0.48006 0.09017 0.72396 0.0
H2175 H 0.54425 0.08165 0.93327 0.0
H2176 H 0.52364 0.08247 0.92103 0.0
H2177 H 0.5288 0.09114 0.76748 0.0
H2178 H 0.54955 0.08968 0.77917 0.0
H2179 H 0.51215 0.07733 0.77176 0.0
H2180 H 0.52039 0.11153 0.85842 0.0
H2181 H 0.52863 0.12378 0.92351 0.0
H2182 H 0.50875 0.10629 0.0334 0.0
H2183 H 0.5005 0.09383 0.96907 0.0
C2184 C 0.45637 0.09456 0.83814 0.0
C2185 C 0.45119 0.08374 0.8354 0.0
C2186 C 0.46823 0.09566 0.83414 0.0
C2187 C 0.47518 0.08597 0.82801 0.0
C2188 C 0.46997 0.07515 0.82501 0.0
C2189 C 0.45808 0.07407 0.828 0.0
C2190 C 0.48787 0.08709 0.82792 0.0
C2191 C 0.49306 0.09349 0.86568 0.0
C2192 C 0.49487 0.08155 0.79252 0.0
C2193 C 0.48999 0.07562 0.74885 0.0
C2194 C 0.493 0.06424 0.73843 0.0
C2195 C 0.48835 0.05865 0.69738 0.0
C2196 C 0.48073 0.06438 0.66631 0.0
C2197 C 0.47775 0.07572 0.67615 0.0
C2198 C 0.48238 0.08135 0.71712 0.0
C2199 C 0.541 0.08377 0.89692 0.0
C2200 C 0.54849 0.08569 0.85724 0.0
C2201 C 0.52919 0.08431 0.88999 0.0
C2202 C 0.5246 0.08714 0.84357 0.0
C2203 C 0.5321 0.08899 0.8037 0.0
C2204 C 0.54395 0.0882 0.81041 0.0
C2205 C 0.51199 0.08794 0.83686 0.0
C2206 C 0.50682 0.08189 0.79796 0.0
C2207 C 0.50499 0.09419 0.87004 0.0
C2208 C 0.50988 0.1017 0.90892 0.0
C2209 C 0.51782 0.11025 0.89651 0.0
C2210 C 0.52249 0.11724 0.93327 0.0
C2211 C 0.51923 0.1158 0.98257 0.0
C2212 C 0.51127 0.10739 0.9952 0.0
C2213 C 0.50658 0.10038 0.95859 0.0
H2214 H 0.52285 0.12122 0.01097 0.0
H2215 H 0.47714 0.06004 0.63457 0.0
H2216 H 0.1613 0.79676 0.81877 0.0
H2217 H 0.16097 0.77596 0.82431 0.0
H2218 H 0.17691 0.77767 0.968 0.0
H2219 H 0.17759 0.79857 0.96188 0.0
H2220 H 0.18662 0.76159 0.91493 0.0
H2221 H 0.14792 0.7712 0.95331 0.0
H2222 H 0.12926 0.78058 0.94143 0.0
H2223 H 0.12482 0.76286 0.80373 0.0
H2224 H 0.14353 0.75349 0.81444 0.0
H2225 H 0.17721 0.70215 0.95938 0.0
H2226 H 0.17659 0.72301 0.96641 0.0
H2227 H 0.16232 0.72524 0.81965 0.0
H2228 H 0.16275 0.70442 0.81273 0.0
H2229 H 0.15137 0.73928 0.88218 0.0
H2230 H 0.19069 0.73075 0.84192 0.0
H2231 H 0.20937 0.7214 0.85413 0.0
H2232 H 0.21245 0.73712 0.99698 0.0
H2233 H 0.19371 0.74645 0.98587 0.0
C2234 C 0.16468 0.79272 0.8517 0.0
C2235 C 0.16943 0.79929 0.89 0.0
C2236 C 0.16443 0.78081 0.85494 0.0
C2237 C 0.16873 0.77523 0.89696 0.0
C2238 C 0.1735 0.78178 0.9353 0.0
C2239 C 0.17385 0.79372 0.93184 0.0
C2240 C 0.16855 0.76253 0.89994 0.0
C2241 C 0.17886 0.75673 0.90868 0.0
C2242 C 0.15848 0.75614 0.89092 0.0
C2243 C 0.14718 0.76171 0.88453 0.0
C2244 C 0.143 0.76936 0.92034 0.0
C2245 C 0.13241 0.77467 0.91384 0.0
C2246 C 0.12586 0.77234 0.87181 0.0
C2247 C 0.12989 0.76467 0.83626 0.0
C2248 C 0.14049 0.75934 0.84256 0.0
C2249 C 0.17392 0.70709 0.92867 0.0
C2250 C 0.17006 0.70166 0.88543 0.0
C2251 C 0.17361 0.71901 0.93267 0.0
C2252 C 0.16952 0.7257 0.89334 0.0
C2253 C 0.16551 0.72026 0.85046 0.0
C2254 C 0.16579 0.70836 0.84649 0.0
C2255 C 0.16945 0.73838 0.89647 0.0
C2256 C 0.15909 0.74417 0.8889 0.0
C2257 C 0.17946 0.74475 0.90672 0.0
C2258 C 0.19075 0.73919 0.91328 0.0
C2259 C 0.19531 0.73214 0.87609 0.0
C2260 C 0.20592 0.72686 0.88278 0.0
C2261 C 0.21208 0.72864 0.92636 0.0
C2262 C 0.20766 0.73573 0.96328 0.0
C2263 C 0.19706 0.74103 0.95679 0.0
H2264 H 0.22028 0.72454 0.93148 0.0
H2265 H 0.11766 0.77646 0.86684 0.0
H2266 H 0.45278 0.92954 0.21555 0.0
H2267 H 0.47365 0.92935 0.22388 0.0
H2268 H 0.47639 0.91038 0.08753 0.0
H2269 H 0.45563 0.91033 0.07963 0.0
H2270 H 0.49067 0.90198 0.1538 0.0
H2271 H 0.48109 0.93958 0.0933 0.0
H2272 H 0.47132 0.95825 0.09539 0.0
H2273 H 0.48713 0.96591 0.2348 0.0
H2274 H 0.49687 0.9472 0.23383 0.0
H2275 H 0.54723 0.91263 0.07597 0.0
H2276 H 0.52646 0.91197 0.08444 0.0
H2277 H 0.52885 0.92948 0.22444 0.0
H2278 H 0.5497 0.93026 0.21596 0.0
H2279 H 0.51211 0.93845 0.16617 0.0
H2280 H 0.52313 0.90124 0.22172 0.0
H2281 H 0.53306 0.88268 0.21717 0.0
H2282 H 0.51465 0.87434 0.08469 0.0
H2283 H 0.50472 0.89292 0.08804 0.0
C2284 C 0.45785 0.92528 0.18756 0.0
C2285 C 0.45257 0.91999 0.14686 0.0
C2286 C 0.46977 0.92521 0.19222 0.0
C2287 C 0.47661 0.91997 0.15601 0.0
C2288 C 0.47131 0.91448 0.11596 0.0
C2289 C 0.45943 0.91449 0.11142 0.0
C2290 C 0.48929 0.9203 0.15891 0.0
C2291 C 0.49535 0.90996 0.15614 0.0
C2292 C 0.49542 0.93069 0.16323 0.0
C2293 C 0.4896 0.94195 0.16377 0.0
C2294 C 0.48241 0.94521 0.12458 0.0
C2295 C 0.47689 0.9558 0.12553 0.0
C2296 C 0.47857 0.96325 0.16528 0.0
C2297 C 0.48581 0.96012 0.20409 0.0
C2298 C 0.49134 0.94953 0.20335 0.0
C2299 C 0.54335 0.91631 0.10865 0.0
C2300 C 0.5501 0.92147 0.14538 0.0
C2301 C 0.53147 0.91589 0.11354 0.0
C2302 C 0.5261 0.92056 0.15537 0.0
C2303 C 0.53282 0.92579 0.19195 0.0
C2304 C 0.54472 0.9262 0.18712 0.0
C2305 C 0.51347 0.92014 0.16015 0.0
C2306 C 0.50742 0.93046 0.1644 0.0
C2307 C 0.50734 0.90974 0.15691 0.0
C2308 C 0.51325 0.89852 0.15495 0.0
C2309 C 0.52126 0.89549 0.19142 0.0
C2310 C 0.52688 0.88496 0.18909 0.0
C2311 C 0.5245 0.87735 0.15062 0.0
C2312 C 0.51648 0.88024 0.11446 0.0
C2313 C 0.51085 0.89077 0.11659 0.0
H2314 H 0.52886 0.8692 0.14887 0.0
H2315 H 0.47429 0.97144 0.16594 0.0
H2316 H 0.3241 0.20223 0.45985 0.0
H2317 H 0.32444 0.22307 0.46966 0.0
H2318 H 0.34296 0.22623 0.33242 0.0
H2319 H 0.34267 0.20548 0.32248 0.0
H2320 H 0.3517 0.24014 0.40475 0.0
H2321 H 0.31476 0.23091 0.33539 0.0
H2322 H 0.29611 0.22112 0.33332 0.0
H2323 H 0.28705 0.23639 0.47228 0.0
H2324 H 0.30574 0.24615 0.47551 0.0
H2325 H 0.34249 0.29705 0.3296 0.0
H2326 H 0.34323 0.27628 0.33749 0.0
H2327 H 0.32283 0.27815 0.47013 0.0
H2328 H 0.3219 0.29899 0.46196 0.0
H2329 H 0.31518 0.26166 0.41033 0.0
H2330 H 0.3514 0.2723 0.47645 0.0
H2331 H 0.37003 0.28212 0.47884 0.0
H2332 H 0.38056 0.26426 0.34782 0.0
H2333 H 0.36192 0.25445 0.34422 0.0
C2334 C 0.3283 0.20737 0.43198 0.0
C2335 C 0.33332 0.20224 0.39029 0.0
C2336 C 0.32846 0.21927 0.43754 0.0
C2337 C 0.33365 0.2262 0.40155 0.0
C2338 C 0.33892 0.22105 0.36064 0.0
C2339 C 0.33871 0.20919 0.35493 0.0
C2340 C 0.33335 0.23884 0.40544 0.0
C2341 C 0.34372 0.24486 0.40564 0.0
C2342 C 0.32294 0.24498 0.408 0.0
C2343 C 0.31169 0.23915 0.40598 0.0
C2344 C 0.30883 0.2321 0.36571 0.0
C2345 C 0.29825 0.22657 0.36429 0.0
C2346 C 0.29041 0.2281 0.40272 0.0
C2347 C 0.29314 0.23519 0.44259 0.0
C2348 C 0.30372 0.24073 0.44423 0.0
C2349 C 0.33821 0.29305 0.3606 0.0
C2350 C 0.33215 0.29965 0.39523 0.0
C2351 C 0.33869 0.28117 0.36522 0.0
C2352 C 0.33321 0.27565 0.40478 0.0
C2353 C 0.32715 0.28222 0.43941 0.0
C2354 C 0.32665 0.29413 0.43476 0.0
C2355 C 0.33355 0.26299 0.40885 0.0
C2356 C 0.32318 0.25696 0.4101 0.0
C2357 C 0.34397 0.25685 0.40778 0.0
C2358 C 0.35522 0.2627 0.40986 0.0
C2359 C 0.35765 0.27053 0.44793 0.0
C2360 C 0.36822 0.27608 0.44953 0.0
C2361 C 0.37646 0.27383 0.41344 0.0
C2362 C 0.37416 0.266 0.37573 0.0
C2363 C 0.3636 0.26043 0.37392 0.0
H2364 H 0.38464 0.27814 0.41475 0.0
H2365 H 0.28222 0.22381 0.40155 0.0
H2366 H 0.95406 0.09907 0.67059 0.0
H2367 H 0.97495 0.09928 0.67431 0.0
H2368 H 0.97547 0.06268 0.65368 0.0
H2369 H 0.95459 0.06241 0.65339 0.0
H2370 H 0.99149 0.06729 0.71114 0.0
H2371 H 0.98015 0.08322 0.55605 0.0
H2372 H 0.96998 0.09631 0.49974 0.0
H2373 H 0.98715 0.125 0.56521 0.0
H2374 H 0.99732 0.11208 0.62235 0.0
H2375 H 0.04744 0.08173 0.56346 0.0
H2376 H 0.02665 0.08144 0.57088 0.0
H2377 H 0.02968 0.08107 0.73 0.0
H2378 H 0.05053 0.08072 0.72247 0.0
H2379 H 0.01192 0.09487 0.6036 0.0
H2380 H 0.00717 0.06807 0.78334 0.0
H2381 H 0.01722 0.05256 0.82723 0.0
H2382 H 0.03211 0.04128 0.69055 0.0
H2383 H 0.02204 0.05663 0.64579 0.0
C2384 C 0.95866 0.09107 0.66745 0.0
C2385 C 0.95274 0.08073 0.66147 0.0
C2386 C 0.97061 0.0912 0.66918 0.0
C2387 C 0.97687 0.08103 0.66299 0.0
C2388 C 0.9709 0.07065 0.65848 0.0
C2389 C 0.95895 0.0705 0.6582 0.0
C2390 C 0.98959 0.08121 0.65963 0.0
C2391 C 0.99594 0.07334 0.68764 0.0
C2392 C 0.99548 0.0889 0.62814 0.0
C2393 C 0.9894 0.0967 0.5938 0.0
C2394 C 0.9817 0.09233 0.55864 0.0
C2395 C 0.97594 0.09972 0.52656 0.0
C2396 C 0.9779 0.11148 0.52899 0.0
C2397 C 0.98563 0.11588 0.56343 0.0
C2398 C 0.9914 0.10854 0.59565 0.0
C2399 C 0.04366 0.08155 0.60003 0.0
C2400 C 0.05058 0.08118 0.64239 0.0
C2401 C 0.03177 0.08142 0.60427 0.0
C2402 C 0.02652 0.0811 0.651 0.0
C2403 C 0.03346 0.08103 0.69347 0.0
C2404 C 0.04539 0.0809 0.68919 0.0
C2405 C 0.01381 0.08091 0.6549 0.0
C2406 C 0.00747 0.08883 0.62718 0.0
C2407 C 0.00792 0.0729 0.68481 0.0
C2408 C 0.01395 0.06359 0.71136 0.0
C2409 C 0.01256 0.06226 0.76267 0.0
C2410 C 0.01827 0.0535 0.78768 0.0
C2411 C 0.02533 0.04597 0.76173 0.0
C2412 C 0.02667 0.04715 0.71065 0.0
C2413 C 0.02098 0.05589 0.68545 0.0
H2414 H 0.02974 0.03919 0.78117 0.0
H2415 H 0.97343 0.11719 0.50412 0.0
H2416 H 0.82155 0.70287 0.96082 0.0
H2417 H 0.82198 0.7237 0.97005 0.0
H2418 H 0.8459 0.7261 0.8491 0.0
H2419 H 0.84557 0.70532 0.8399 0.0
H2420 H 0.85186 0.7401 0.92524 0.0
H2421 H 0.81799 0.73145 0.83074 0.0
H2422 H 0.7995 0.72203 0.8148 0.0
H2423 H 0.78536 0.73759 0.94492 0.0
H2424 H 0.80383 0.74698 0.96203 0.0
H2425 H 0.84545 0.7966 0.83766 0.0
H2426 H 0.84589 0.7759 0.84902 0.0
H2427 H 0.82239 0.77888 0.97123 0.0
H2428 H 0.8219 0.79968 0.96003 0.0
H2429 H 0.816 0.76224 0.90502 0.0
H2430 H 0.84953 0.7725 0.99451 0.0
H2431 H 0.868 0.78207 0.00891 0.0
H2432 H 0.88282 0.76364 0.88748 0.0
H2433 H 0.86438 0.75409 0.87186 0.0
C2434 C 0.82695 0.70784 0.93642 0.0
C2435 C 0.83349 0.70248 0.89948 0.0
C2436 C 0.82716 0.71973 0.94164 0.0
C2437 C 0.8339 0.72645 0.90996 0.0
C2438 C 0.84065 0.72108 0.87394 0.0
C2439 C 0.84042 0.70921 0.86862 0.0
C2440 C 0.8337 0.73911 0.91315 0.0
C2441 C 0.84404 0.74495 0.92049 0.0
C2442 C 0.82344 0.74542 0.90826 0.0
C2443 C 0.81233 0.7398 0.89799 0.0
C2444 C 0.81097 0.73278 0.8562 0.0
C2445 C 0.80049 0.72746 0.8469 0.0
C2446 C 0.79127 0.72918 0.87892 0.0
C2447 C 0.79251 0.73625 0.92022 0.0
C2448 C 0.80298 0.74157 0.92972 0.0
C2449 C 0.84044 0.79287 0.86722 0.0
C2450 C 0.83365 0.79976 0.89799 0.0
C2451 C 0.84074 0.78104 0.87379 0.0
C2452 C 0.83424 0.77586 0.91123 0.0
C2453 C 0.82749 0.78272 0.94222 0.0
C2454 C 0.82725 0.79458 0.93587 0.0
C2455 C 0.83419 0.76324 0.91635 0.0
C2456 C 0.8238 0.7574 0.91048 0.0
C2457 C 0.84441 0.75693 0.92248 0.0
C2458 C 0.85554 0.76264 0.93177 0.0
C2459 C 0.8567 0.77056 0.97061 0.0
C2460 C 0.86717 0.77597 0.97904 0.0
C2461 C 0.87657 0.77348 0.94907 0.0
C2462 C 0.87553 0.76557 0.91065 0.0
C2463 C 0.86507 0.76014 0.90203 0.0
H2464 H 0.88468 0.77768 0.95566 0.0
H2465 H 0.78316 0.72506 0.87165 0.0
H2466 H 0.66688 0.20206 0.46197 0.0
H2467 H 0.66626 0.22297 0.46498 0.0
H2468 H 0.66964 0.2243 0.3062 0.0
H2469 H 0.67053 0.20346 0.30314 0.0
H2470 H 0.68348 0.23917 0.34675 0.0
H2471 H 0.6439 0.22963 0.36566 0.0
H2472 H 0.62718 0.22008 0.40279 0.0
H2473 H 0.63406 0.23649 0.54167 0.0
H2474 H 0.65092 0.24602 0.50552 0.0
H2475 H 0.66683 0.29649 0.30404 0.0
H2476 H 0.66671 0.2756 0.30758 0.0
H2477 H 0.66893 0.27694 0.46663 0.0
H2478 H 0.66916 0.2979 0.46337 0.0
H2479 H 0.65256 0.26094 0.42978 0.0
H2480 H 0.69202 0.27106 0.40701 0.0
H2481 H 0.70815 0.28088 0.36651 0.0
H2482 H 0.70076 0.26344 0.23052 0.0
H2483 H 0.68446 0.25366 0.27001 0.0
C2484 C 0.66742 0.20682 0.42772 0.0
C2485 C 0.66874 0.20113 0.38232 0.0
C2486 C 0.66702 0.21877 0.42945 0.0
C2487 C 0.66781 0.22523 0.38576 0.0
C2488 C 0.66904 0.21952 0.34041 0.0
C2489 C 0.6695 0.2076 0.33869 0.0
C2490 C 0.66764 0.23794 0.38717 0.0
C2491 C 0.67663 0.24391 0.36442 0.0
C2492 C 0.65886 0.24416 0.41116 0.0
C2493 C 0.64874 0.23843 0.43303 0.0
C2494 C 0.6419 0.23112 0.40423 0.0
C2495 C 0.63239 0.22573 0.42508 0.0
C2496 C 0.62958 0.22765 0.4746 0.0
C2497 C 0.63626 0.23499 0.50334 0.0
C2498 C 0.64579 0.2404 0.48268 0.0
C2499 C 0.66724 0.29234 0.3398 0.0
C2500 C 0.66804 0.29882 0.38344 0.0
C2501 C 0.6672 0.28042 0.34174 0.0
C2502 C 0.66789 0.27474 0.38734 0.0
C2503 C 0.6684 0.28117 0.43109 0.0
C2504 C 0.66857 0.29312 0.42915 0.0
C2505 C 0.66831 0.26209 0.38899 0.0
C2506 C 0.6594 0.25616 0.41233 0.0
C2507 C 0.6771 0.25589 0.36512 0.0
C2508 C 0.68695 0.2617 0.34137 0.0
C2509 C 0.69377 0.26939 0.36836 0.0
C2510 C 0.70296 0.27494 0.3456 0.0
C2511 C 0.70546 0.2728 0.29594 0.0
C2512 C 0.6988 0.2651 0.26897 0.0
C2513 C 0.6896 0.25954 0.29153 0.0
H2514 H 0.71258 0.27709 0.2784 0.0
H2515 H 0.62221 0.22347 0.49066 0.0
H2516 H 0.84362 0.29548 0.16137 0.0
H2517 H 0.84399 0.27475 0.15118 0.0
H2518 H 0.8195 0.27731 0.03249 0.0
H2519 H 0.81904 0.29814 0.04275 0.0
H2520 H 0.81381 0.26058 0.09792 0.0
H2521 H 0.84691 0.27127 0.00636 0.0
H2522 H 0.8652 0.28108 0.99072 0.0
H2523 H 0.88066 0.26294 0.1114 0.0
H2524 H 0.86241 0.25314 0.12825 0.0
H2525 H 0.8203 0.20097 0.04493 0.0
H2526 H 0.82022 0.22178 0.03408 0.0
H2527 H 0.84447 0.22522 0.15328 0.0
H2528 H 0.84465 0.20451 0.16407 0.0
H2529 H 0.84993 0.23896 0.07591 0.0
H2530 H 0.81638 0.22996 0.17254 0.0
H2531 H 0.79807 0.22027 0.18931 0.0
H2532 H 0.78349 0.23536 0.05908 0.0
H2533 H 0.80178 0.24502 0.04116 0.0
C2534 C 0.83836 0.29165 0.13289 0.0
C2535 C 0.83132 0.29844 0.10278 0.0
C2536 C 0.83861 0.2798 0.12696 0.0
C2537 C 0.83186 0.27449 0.09071 0.0
C2538 C 0.8248 0.28124 0.06058 0.0
C2539 C 0.82457 0.29313 0.06638 0.0
C2540 C 0.83195 0.26185 0.08566 0.0
C2541 C 0.82167 0.25586 0.09208 0.0
C2542 C 0.84224 0.25568 0.07887 0.0
C2543 C 0.85326 0.26153 0.06879 0.0
C2544 C 0.85418 0.26943 0.02981 0.0
C2545 C 0.86455 0.27498 0.02069 0.0
C2546 C 0.87408 0.27265 0.05011 0.0
C2547 C 0.87327 0.26475 0.08866 0.0
C2548 C 0.86292 0.25918 0.09797 0.0
C2549 C 0.82567 0.20617 0.06856 0.0
C2550 C 0.83244 0.20112 0.10548 0.0
C2551 C 0.82558 0.21805 0.06244 0.0
C2552 C 0.83227 0.22506 0.09316 0.0
C2553 C 0.83925 0.21999 0.12914 0.0
C2554 C 0.83931 0.20815 0.13537 0.0
C2555 C 0.83182 0.2377 0.08909 0.0
C2556 C 0.84205 0.24369 0.081 0.0
C2557 C 0.82148 0.24387 0.09439 0.0
C2558 C 0.81048 0.23809 0.10518 0.0
C2559 C 0.8093 0.23113 0.14724 0.0
C2560 C 0.79892 0.22566 0.157 0.0
C2561 C 0.78963 0.22717 0.12519 0.0
C2562 C 0.7907 0.23418 0.08363 0.0
C2563 C 0.80107 0.23966 0.07366 0.0
H2564 H 0.7816 0.22293 0.13281 0.0
H2565 H 0.8821 0.27696 0.04298 0.0
H2566 H 0.65958 0.70489 0.67537 0.0
H2567 H 0.65919 0.72575 0.67107 0.0
H2568 H 0.68102 0.72484 0.54263 0.0
H2569 H 0.68152 0.70391 0.54691 0.0
H2570 H 0.68805 0.7408 0.61034 0.0
H2571 H 0.65303 0.7305 0.52949 0.0
H2572 H 0.63449 0.72067 0.52105 0.0
H2573 H 0.62193 0.73804 0.64996 0.0
H2574 H 0.64046 0.74785 0.65958 0.0
H2575 H 0.68068 0.79949 0.54908 0.0
H2576 H 0.68063 0.77858 0.54487 0.0
H2577 H 0.65839 0.77723 0.67196 0.0
H2578 H 0.65835 0.79811 0.67619 0.0
H2579 H 0.65161 0.76239 0.60076 0.0
H2580 H 0.68637 0.7719 0.68499 0.0
H2581 H 0.70484 0.78168 0.69646 0.0
H2582 H 0.71783 0.7658 0.5648 0.0
H2583 H 0.69936 0.75603 0.55219 0.0
C2584 C 0.66426 0.70912 0.64606 0.0
C2585 C 0.67055 0.70277 0.61136 0.0
C2586 C 0.664 0.72105 0.64357 0.0
C2587 C 0.66999 0.72685 0.60624 0.0
C2588 C 0.67633 0.72053 0.57167 0.0
C2589 C 0.67656 0.70858 0.57405 0.0
C2590 C 0.66975 0.73952 0.60391 0.0
C2591 C 0.6801 0.74553 0.60738 0.0
C2592 C 0.65935 0.74568 0.60134 0.0
C2593 C 0.64817 0.73984 0.59549 0.0
C2594 C 0.64635 0.73216 0.55625 0.0
C2595 C 0.63583 0.7266 0.55122 0.0
C2596 C 0.62705 0.72871 0.58501 0.0
C2597 C 0.62875 0.7364 0.62384 0.0
C2598 C 0.63925 0.74198 0.62906 0.0
C2599 C 0.67574 0.79473 0.57597 0.0
C2600 C 0.66955 0.80043 0.61306 0.0
C2601 C 0.67575 0.78279 0.57364 0.0
C2602 C 0.66959 0.77634 0.60841 0.0
C2603 C 0.66321 0.78203 0.64479 0.0
C2604 C 0.66322 0.79396 0.64723 0.0
C2605 C 0.66991 0.76367 0.60735 0.0
C2606 C 0.65957 0.75766 0.60334 0.0
C2607 C 0.68031 0.75751 0.60978 0.0
C2608 C 0.69144 0.76333 0.61734 0.0
C2609 C 0.69313 0.77057 0.65825 0.0
C2610 C 0.70361 0.7761 0.66501 0.0
C2611 C 0.71249 0.7744 0.63129 0.0
C2612 C 0.71093 0.76713 0.59084 0.0
C2613 C 0.70047 0.76158 0.58389 0.0
H2614 H 0.7206 0.77869 0.63658 0.0
H2615 H 0.61892 0.7244 0.58105 0.0
H2616 H 0.54705 0.404 0.88212 0.0
H2617 H 0.52628 0.40391 0.8733 0.0
H2618 H 0.52792 0.4355 0.79139 0.0
H2619 H 0.54876 0.4357 0.80056 0.0
H2620 H 0.51181 0.4364 0.86235 0.0
H2621 H 0.52176 0.41059 0.73277 0.0
H2622 H 0.53131 0.39402 0.69452 0.0
H2623 H 0.51365 0.37139 0.79341 0.0
H2624 H 0.50411 0.38784 0.83276 0.0
H2625 H 0.45251 0.43448 0.80139 0.0
H2626 H 0.47335 0.43468 0.7923 0.0
H2627 H 0.47573 0.40401 0.88016 0.0
H2628 H 0.45493 0.40376 0.8894 0.0
H2629 H 0.48977 0.40331 0.79852 0.0
H2630 H 0.48103 0.42921 0.93177 0.0
H2631 H 0.47173 0.44578 0.97132 0.0
H2632 H 0.4873 0.46825 0.86545 0.0
H2633 H 0.49655 0.45179 0.82478 0.0
C2634 C 0.54301 0.41087 0.86181 0.0
C2635 C 0.54954 0.41985 0.84198 0.0
C2636 C 0.53113 0.41079 0.85662 0.0
C2637 C 0.52554 0.41965 0.83128 0.0
C2638 C 0.53206 0.42857 0.81099 0.0
C2639 C 0.54396 0.42865 0.81611 0.0
C2640 C 0.51287 0.41982 0.82807 0.0
C2641 C 0.50699 0.42926 0.84747 0.0
C2642 C 0.50658 0.4104 0.80964 0.0
C2643 C 0.51228 0.40047 0.78599 0.0
C2644 C 0.51997 0.40209 0.74663 0.0
C2645 C 0.52538 0.39271 0.7247 0.0
C2646 C 0.52311 0.38166 0.74159 0.0
C2647 C 0.51541 0.37996 0.78038 0.0
C2648 C 0.50999 0.38931 0.80248 0.0
C2649 C 0.45747 0.42773 0.81843 0.0
C2650 C 0.4521 0.41912 0.84626 0.0
C2651 C 0.46937 0.42788 0.81336 0.0
C2652 C 0.47609 0.41941 0.83593 0.0
C2653 C 0.47071 0.41063 0.86247 0.0
C2654 C 0.45883 0.41052 0.86782 0.0
C2655 C 0.48874 0.41985 0.83318 0.0
C2656 C 0.4946 0.4105 0.8128 0.0
C2657 C 0.49502 0.42936 0.8507 0.0
C2658 C 0.48937 0.43925 0.87487 0.0
C2659 C 0.48237 0.43767 0.9166 0.0
C2660 C 0.47713 0.44705 0.93928 0.0
C2661 C 0.4789 0.45805 0.92083 0.0
C2662 C 0.48592 0.45971 0.87964 0.0
C2663 C 0.49117 0.45037 0.85677 0.0
H2664 H 0.47488 0.4653 0.93857 0.0
H2665 H 0.5273 0.37442 0.72456 0.0
H2666 H 0.95305 0.57433 0.28814 0.0
H2667 H 0.97396 0.5746 0.28443 0.0
H2668 H 0.97524 0.58727 0.43418 0.0
H2669 H 0.95438 0.58725 0.4377 0.0
H2670 H 0.98998 0.59846 0.37827 0.0
H2671 H 0.98067 0.55902 0.40627 0.0
H2672 H 0.97108 0.54066 0.38917 0.0
H2673 H 0.98746 0.53895 0.2473 0.0
H2674 H 0.99703 0.55738 0.26327 0.0
H2675 H 0.04763 0.58646 0.43711 0.0
H2676 H 0.02677 0.58662 0.43399 0.0
H2677 H 0.02781 0.57527 0.28228 0.0
H2678 H 0.04875 0.57494 0.28541 0.0
H2679 H 0.01196 0.5636 0.3351 0.0
H2680 H 0.02187 0.60305 0.31027 0.0
H2681 H 0.03149 0.62125 0.32992 0.0
H2682 H 0.01395 0.6227 0.46926 0.0
H2683 H 0.00435 0.60443 0.45072 0.0
C2684 C 0.9578 0.5772 0.3202 0.0
C2685 C 0.95209 0.58074 0.36325 0.0
C2686 C 0.96975 0.5773 0.31812 0.0
C2687 C 0.97619 0.58082 0.35926 0.0
C2688 C 0.97047 0.58451 0.402 0.0
C2689 C 0.95854 0.58447 0.404 0.0
C2690 C 0.98888 0.58069 0.35796 0.0
C2691 C 0.99478 0.5908 0.36934 0.0
C2692 C 0.99516 0.57077 0.3453 0.0
C2693 C 0.98948 0.55964 0.33576 0.0
C2694 C 0.98216 0.55477 0.37127 0.0
C2695 C 0.97674 0.54435 0.36181 0.0
C2696 C 0.97864 0.53866 0.31712 0.0
C2697 C 0.98599 0.54337 0.28187 0.0
C2698 C 0.99142 0.5538 0.29112 0.0
C2699 C 0.04343 0.58403 0.40302 0.0
C2700 C 0.04983 0.58074 0.36142 0.0
C2701 C 0.0315 0.58416 0.40124 0.0
C2702 C 0.02573 0.58109 0.3577 0.0
C2703 C 0.03209 0.5777 0.31621 0.0
C2704 C 0.04405 0.57755 0.318 0.0
C2705 C 0.01304 0.58135 0.35576 0.0
C2706 C 0.00715 0.57127 0.34376 0.0
C2707 C 0.00676 0.59128 0.36822 0.0
C2708 C 0.01246 0.60232 0.37926 0.0
C2709 C 0.02012 0.60721 0.34524 0.0
C2710 C 0.02556 0.61754 0.35616 0.0
C2711 C 0.02335 0.62311 0.40085 0.0
C2712 C 0.01567 0.61837 0.43466 0.0
C2713 C 0.01021 0.60803 0.42394 0.0
H2714 H 0.02757 0.63111 0.40925 0.0
H2715 H 0.97443 0.5306 0.30986 0.0
H2716 H 0.95154 0.43169 0.70952 0.0
H2717 H 0.9724 0.43156 0.71736 0.0
H2718 H 0.97455 0.40568 0.60411 0.0
H2719 H 0.95373 0.40572 0.59634 0.0
H2720 H 0.98889 0.40113 0.6808 0.0
H2721 H 0.97963 0.43331 0.57677 0.0
H2722 H 0.96999 0.45141 0.55593 0.0
H2723 H 0.98587 0.46775 0.68039 0.0
H2724 H 0.99549 0.44968 0.70238 0.0
H2725 H 0.04551 0.40608 0.59316 0.0
H2726 H 0.02478 0.4058 0.60352 0.0
H2727 H 0.0273 0.43202 0.71514 0.0
H2728 H 0.04812 0.4324 0.70464 0.0
H2729 H 0.01066 0.43675 0.64853 0.0
H2730 H 0.0213 0.40489 0.74825 0.0
H2731 H 0.03102 0.38678 0.76824 0.0
H2732 H 0.01266 0.36983 0.65199 0.0
H2733 H 0.00294 0.38788 0.63081 0.0
C2734 C 0.95646 0.42593 0.68655 0.0
C2735 C 0.95101 0.41875 0.65216 0.0
C2736 C 0.96837 0.42589 0.69095 0.0
C2737 C 0.97503 0.41869 0.66097 0.0
C2738 C 0.96958 0.4113 0.6276 0.0
C2739 C 0.95769 0.41136 0.62309 0.0
C2740 C 0.9877 0.41904 0.66319 0.0
C2741 C 0.99366 0.4089 0.67339 0.0
C2742 C 0.99391 0.42924 0.6548 0.0
C2743 C 0.98817 0.44011 0.64156 0.0
C2744 C 0.98099 0.44073 0.59994 0.0
C2745 C 0.97554 0.45099 0.58787 0.0
C2746 C 0.97729 0.46072 0.61691 0.0
C2747 C 0.98451 0.46021 0.65799 0.0
C2748 C 0.98996 0.44996 0.67026 0.0
C2749 C 0.04167 0.41174 0.62015 0.0
C2750 C 0.04844 0.41925 0.64816 0.0
C2751 C 0.02982 0.41153 0.62619 0.0
C2752 C 0.0245 0.4188 0.66048 0.0
C2753 C 0.03124 0.42631 0.68858 0.0
C2754 C 0.04312 0.4265 0.68265 0.0
C2755 C 0.01186 0.41881 0.66548 0.0
C2756 C 0.0059 0.42901 0.65656 0.0
C2757 C 0.00565 0.40866 0.67501 0.0
C2758 C 0.01146 0.39777 0.68769 0.0
C2759 C 0.0194 0.39732 0.72669 0.0
C2760 C 0.0249 0.38706 0.73828 0.0
C2761 C 0.02248 0.37717 0.71134 0.0
C2762 C 0.01453 0.3775 0.67281 0.0
C2763 C 0.00902 0.38774 0.66103 0.0
H2764 H 0.02675 0.36923 0.72037 0.0
H2765 H 0.97307 0.46865 0.6075 0.0
H2766 H 0.45326 0.57418 0.22205 0.0
H2767 H 0.47417 0.57436 0.22789 0.0
H2768 H 0.4763 0.58754 0.07923 0.0
H2769 H 0.45547 0.58731 0.07305 0.0
H2770 H 0.49083 0.56993 0.09309 0.0
H2771 H 0.481 0.60471 0.17797 0.0
H2772 H 0.47121 0.61642 0.24082 0.0
H2773 H 0.48742 0.59718 0.35637 0.0
H2774 H 0.49719 0.58525 0.29414 0.0
H2775 H 0.54713 0.58994 0.07656 0.0
H2776 H 0.52635 0.58932 0.08337 0.0
H2777 H 0.52919 0.57377 0.22739 0.0
H2778 H 0.55013 0.57433 0.22078 0.0
H2779 H 0.51231 0.59121 0.22178 0.0
H2780 H 0.52299 0.55712 0.13618 0.0
H2781 H 0.53296 0.54573 0.0728 0.0
H2782 H 0.51513 0.5638 0.95822 0.0
H2783 H 0.50518 0.57545 0.02092 0.0
C2784 C 0.4582 0.57717 0.19073 0.0
C2785 C 0.45273 0.58074 0.14709 0.0
C2786 C 0.47013 0.57729 0.19417 0.0
C2787 C 0.4768 0.58102 0.15408 0.0
C2788 C 0.47133 0.58462 0.11059 0.0
C2789 C 0.45942 0.58452 0.10718 0.0
C2790 C 0.48947 0.58092 0.15669 0.0
C2791 C 0.49552 0.57467 0.12096 0.0
C2792 C 0.49559 0.58684 0.19395 0.0
C2793 C 0.48972 0.594 0.2314 0.0
C2794 C 0.4824 0.60291 0.21678 0.0
C2795 C 0.47687 0.6096 0.25229 0.0
C2796 C 0.47866 0.60752 0.30256 0.0
C2797 C 0.48602 0.59877 0.31742 0.0
C2798 C 0.49156 0.59204 0.28204 0.0
C2799 C 0.54336 0.58645 0.10987 0.0
C2800 C 0.55027 0.58213 0.14805 0.0
C2801 C 0.53148 0.58607 0.11363 0.0
C2802 C 0.52624 0.58138 0.15563 0.0
C2803 C 0.53308 0.5774 0.19462 0.0
C2804 C 0.54502 0.5777 0.19074 0.0
C2805 C 0.51362 0.58039 0.15764 0.0
C2806 C 0.5076 0.5864 0.19422 0.0
C2807 C 0.5075 0.57426 0.12114 0.0
C2808 C 0.51341 0.56723 0.08327 0.0
C2809 C 0.52126 0.55873 0.09746 0.0
C2810 C 0.5269 0.55222 0.06166 0.0
C2811 C 0.5247 0.55406 0.01152 0.0
C2812 C 0.51684 0.5624 0.99708 0.0
C2813 C 0.51118 0.56895 0.03274 0.0
H2814 H 0.52908 0.549 0.98385 0.0
H2815 H 0.47437 0.61272 0.33 0.0
H2816 H 0.1407 0.16393 0.24412 0.0
H2817 H 0.12968 0.15352 0.30639 0.0
H2818 H 0.15509 0.12679 0.30715 0.0
H2819 H 0.16604 0.13706 0.24424 0.0
H2820 H 0.13412 0.11805 0.30136 0.0
H2821 H 0.15298 0.14606 0.40232 0.0
H2822 H 0.15877 0.16545 0.42764 0.0
H2823 H 0.12358 0.17482 0.44712 0.0
H2824 H 0.11756 0.15551 0.42125 0.0
H2825 H 0.11779 0.08855 0.51742 0.0
H2826 H 0.12814 0.1001 0.45704 0.0
H2827 H 0.10068 0.1247 0.45636 0.0
H2828 H 0.09027 0.11318 0.51731 0.0
H2829 H 0.1219 0.13486 0.4613 0.0
H2830 H 0.10318 0.10656 0.36216 0.0
H2831 H 0.09756 0.08705 0.33777 0.0
H2832 H 0.1328 0.07818 0.31551 0.0
H2833 H 0.13864 0.0976 0.34047 0.0
C2834 C 0.14397 0.15587 0.25783 0.0
C2835 C 0.15422 0.1513 0.23938 0.0
C2836 C 0.13769 0.14995 0.29352 0.0
C2837 C 0.14161 0.13942 0.31169 0.0
C2838 C 0.15191 0.1349 0.2936 0.0
C2839 C 0.15817 0.14079 0.2578 0.0
C2840 C 0.13481 0.13291 0.34835 0.0
C2841 C 0.13158 0.12168 0.33661 0.0
C2842 C 0.13122 0.13776 0.39372 0.0
C2843 C 0.13482 0.14937 0.40935 0.0
C2844 C 0.14647 0.15228 0.4116 0.0
C2845 C 0.14979 0.16325 0.42613 0.0
C2846 C 0.14155 0.17137 0.43884 0.0
C2847 C 0.12996 0.16853 0.43718 0.0
C2848 C 0.12658 0.15757 0.42263 0.0
C2849 C 0.11394 0.09641 0.50442 0.0
C2850 C 0.1032 0.09995 0.52188 0.0
C2851 C 0.11985 0.10298 0.46982 0.0
C2852 C 0.11511 0.11318 0.45187 0.0
C2853 C 0.10446 0.11683 0.46973 0.0
C2854 C 0.09851 0.11024 0.50434 0.0
C2855 C 0.12134 0.11999 0.41445 0.0
C2856 C 0.12443 0.13127 0.42598 0.0
C2857 C 0.12484 0.11518 0.3689 0.0
C2858 C 0.12135 0.10351 0.35361 0.0
C2859 C 0.10973 0.10042 0.35243 0.0
C2860 C 0.10651 0.08938 0.33844 0.0
C2861 C 0.11482 0.08137 0.32521 0.0
C2862 C 0.12637 0.08439 0.32582 0.0
C2863 C 0.12964 0.09542 0.33984 0.0
H2864 H 0.1123 0.07283 0.31439 0.0
H2865 H 0.14414 0.17986 0.45009 0.0
H2866 H 0.08581 0.89829 0.52245 0.0
H2867 H 0.09575 0.88764 0.58755 0.0
H2868 H 0.12704 0.88938 0.5033 0.0
H2869 H 0.11728 0.90042 0.43945 0.0
H2870 H 0.10627 0.86829 0.59508 0.0
H2871 H 0.14974 0.89205 0.57621 0.0
H2872 H 0.15689 0.9111 0.55222 0.0
H2873 H 0.1246 0.92604 0.59105 0.0
H2874 H 0.11731 0.90712 0.61591 0.0
H2875 H 0.14923 0.8373 0.72129 0.0
H2876 H 0.13754 0.8476 0.66099 0.0
H2877 H 0.13967 0.87806 0.75071 0.0
H2878 H 0.15179 0.86793 0.80973 0.0
H2879 H 0.14256 0.88387 0.66188 0.0
H2880 H 0.11479 0.86086 0.74311 0.0
H2881 H 0.10615 0.8432 0.77597 0.0
H2882 H 0.10437 0.82926 0.62932 0.0
H2883 H 0.11314 0.84677 0.59563 0.0
C2884 C 0.0948 0.89635 0.51788 0.0
C2885 C 0.10082 0.90028 0.4763 0.0
C2886 C 0.10046 0.89025 0.55498 0.0
C2887 C 0.1122 0.88791 0.55081 0.0
C2888 C 0.11806 0.89136 0.50803 0.0
C2889 C 0.11247 0.89762 0.47144 0.0
C2890 C 0.11841 0.8821 0.59154 0.0
C2891 C 0.1142 0.8717 0.60977 0.0
C2892 C 0.12859 0.8867 0.61173 0.0
C2893 C 0.13295 0.89815 0.59747 0.0
C2894 C 0.14419 0.89941 0.57983 0.0
C2895 C 0.14826 0.91019 0.56605 0.0
C2896 C 0.14119 0.91977 0.56997 0.0
C2897 C 0.13005 0.91861 0.58786 0.0
C2898 C 0.12594 0.90786 0.60176 0.0
C2899 C 0.14717 0.84619 0.72807 0.0
C2900 C 0.15141 0.85184 0.77006 0.0
C2901 C 0.14043 0.85206 0.6938 0.0
C2902 C 0.13757 0.86358 0.70158 0.0
C2903 C 0.14177 0.86919 0.74377 0.0
C2904 C 0.14868 0.86339 0.77753 0.0
C2905 C 0.13053 0.86993 0.66502 0.0
C2906 C 0.13461 0.88045 0.64744 0.0
C2907 C 0.12002 0.86564 0.64684 0.0
C2908 C 0.11472 0.85509 0.66691 0.0
C2909 C 0.11263 0.85399 0.71791 0.0
C2910 C 0.1077 0.84402 0.73667 0.0
C2911 C 0.10474 0.8351 0.70477 0.0
C2912 C 0.10668 0.83616 0.654 0.0
C2913 C 0.11162 0.84612 0.63504 0.0
H2914 H 0.10092 0.82739 0.71937 0.0
H2915 H 0.14436 0.9281 0.55923 0.0
H2916 H 0.38441 0.91194 0.022 0.0
H2917 H 0.37428 0.90052 0.96031 0.0
H2918 H 0.40468 0.88044 0.93574 0.0
H2919 H 0.41491 0.89189 0.99741 0.0
H2920 H 0.39468 0.88646 0.84915 0.0
H2921 H 0.38286 0.86775 0.99715 0.0
H2922 H 0.37549 0.86587 0.082 0.0
H2923 H 0.34437 0.88264 0.03944 0.0
H2924 H 0.3515 0.88443 0.95384 0.0
H2925 H 0.36489 0.84208 0.71776 0.0
H2926 H 0.37635 0.85256 0.77867 0.0
H2927 H 0.34852 0.87617 0.80094 0.0
H2928 H 0.33707 0.86583 0.73986 0.0
H2929 H 0.35791 0.86743 0.88913 0.0
H2930 H 0.37059 0.88513 0.73707 0.0
H2931 H 0.37856 0.88536 0.65268 0.0
H2932 H 0.40906 0.86891 0.70472 0.0
H2933 H 0.40126 0.86857 0.78951 0.0
C2934 C 0.38894 0.90509 0.00347 0.0
C2935 C 0.40044 0.90279 0.01453 0.0
C2936 C 0.38313 0.89854 0.96843 0.0
C2937 C 0.38869 0.88955 0.94383 0.0
C2938 C 0.40022 0.88732 0.95439 0.0
C2939 C 0.40604 0.89385 0.98965 0.0
C2940 C 0.38247 0.88266 0.90652 0.0
C2941 C 0.38673 0.88215 0.85806 0.0
C2942 C 0.37205 0.87715 0.91794 0.0
C2943 C 0.36776 0.87634 0.96935 0.0
C2944 C 0.37448 0.87112 0.006 0.0
C2945 C 0.37033 0.87004 0.05419 0.0
C2946 C 0.35951 0.87424 0.06632 0.0
C2947 C 0.35277 0.87943 0.03006 0.0
C2948 C 0.35683 0.88042 0.98162 0.0
C2949 C 0.36123 0.84952 0.7356 0.0
C2950 C 0.35009 0.85314 0.72416 0.0
C2951 C 0.36779 0.85551 0.77016 0.0
C2952 C 0.36328 0.86516 0.79402 0.0
C2953 C 0.35214 0.86875 0.78283 0.0
C2954 C 0.34563 0.86285 0.74791 0.0
C2955 C 0.37003 0.87136 0.83169 0.0
C2956 C 0.36587 0.87173 0.88027 0.0
C2957 C 0.38062 0.87657 0.82043 0.0
C2958 C 0.38529 0.87671 0.76949 0.0
C2959 C 0.37895 0.88147 0.73043 0.0
C2960 C 0.38345 0.88164 0.68255 0.0
C2961 C 0.39428 0.87709 0.67327 0.0
C2962 C 0.40066 0.87241 0.71193 0.0
C2963 C 0.39622 0.87225 0.75993 0.0
H2964 H 0.39773 0.87723 0.63616 0.0
H2965 H 0.35633 0.87342 0.10374 0.0
H2966 H 0.38237 0.09411 0.94571 0.0
H2967 H 0.37217 0.10624 0.00437 0.0
H2968 H 0.40424 0.11959 0.0578 0.0
H2969 H 0.41455 0.1073 0.99949 0.0
H2970 H 0.39026 0.11468 0.13306 0.0
H2971 H 0.38724 0.13635 0.98398 0.0
H2972 H 0.38318 0.14006 0.89609 0.0
H2973 H 0.34826 0.12988 0.91731 0.0
H2974 H 0.35212 0.12617 0.00559 0.0
H2975 H 0.3648 0.16062 0.26579 0.0
H2976 H 0.37593 0.15022 0.2037 0.0
H2977 H 0.34543 0.13271 0.1559 0.0
H2978 H 0.33425 0.14303 0.21813 0.0
H2979 H 0.35925 0.14061 0.07751 0.0
H2980 H 0.36283 0.11902 0.22842 0.0
H2981 H 0.36718 0.11648 0.31683 0.0
H2982 H 0.40177 0.12726 0.29165 0.0
H2983 H 0.39757 0.13002 0.20302 0.0
C2984 C 0.38726 0.09962 0.96997 0.0
C2985 C 0.39926 0.09977 0.96799 0.0
C2986 C 0.38141 0.1066 0.00326 0.0
C2987 C 0.38743 0.11395 0.03495 0.0
C2988 C 0.39943 0.11402 0.03354 0.0
C2989 C 0.4053 0.107 0.00022 0.0
C2990 C 0.38116 0.12138 0.07016 0.0
C2991 C 0.38362 0.12049 0.1208 0.0
C2992 C 0.37235 0.12882 0.05433 0.0
C2993 C 0.37 0.13088 0.00122 0.0
C2994 C 0.37872 0.13482 0.96981 0.0
C2995 C 0.37644 0.13696 0.91995 0.0
C2996 C 0.36548 0.13515 0.901 0.0
C2997 C 0.35675 0.13126 0.932 0.0
C2998 C 0.35897 0.12918 0.982 0.0
C2999 C 0.36045 0.15463 0.24176 0.0
C3000 C 0.34867 0.1526 0.24685 0.0
C3001 C 0.36682 0.14867 0.20649 0.0
C3002 C 0.3615 0.14064 0.17562 0.0
C3003 C 0.34968 0.13887 0.17948 0.0
C3004 C 0.34332 0.14475 0.21505 0.0
C3005 C 0.36832 0.13383 0.14019 0.0
C3006 C 0.36595 0.13484 0.0896 0.0
C3007 C 0.37727 0.12657 0.15605 0.0
C3008 C 0.37985 0.12484 0.20921 0.0
C3009 C 0.37134 0.12094 0.2418 0.0
C3010 C 0.37378 0.11944 0.29196 0.0
C3011 C 0.38474 0.12174 0.30993 0.0
C3012 C 0.39328 0.12551 0.27771 0.0
C3013 C 0.39088 0.12702 0.22749 0.0
H3014 H 0.38661 0.12058 0.3488 0.0
H3015 H 0.36374 0.13679 0.86235 0.0
H3016 H 0.88409 0.91381 0.47513 0.0
H3017 H 0.87391 0.90233 0.53629 0.0
H3018 H 0.90412 0.88189 0.5593 0.0
H3019 H 0.91441 0.89336 0.49772 0.0
H3020 H 0.88439 0.86892 0.54772 0.0
H3021 H 0.89689 0.90103 0.64424 0.0
H3022 H 0.89929 0.9215 0.6633 0.0
H3023 H 0.86286 0.92583 0.66634 0.0
H3024 H 0.86023 0.90541 0.6466 0.0
H3025 H 0.86309 0.84033 0.76036 0.0
H3026 H 0.87446 0.85121 0.70105 0.0
H3027 H 0.84707 0.87571 0.68679 0.0
H3028 H 0.83585 0.86507 0.74765 0.0
H3029 H 0.86628 0.88648 0.69519 0.0
H3030 H 0.85339 0.85506 0.59561 0.0
H3031 H 0.85044 0.83481 0.57387 0.0
H3032 H 0.88672 0.82933 0.57344 0.0
H3033 H 0.88989 0.84953 0.59581 0.0
C3034 C 0.88859 0.9069 0.49333 0.0
C3035 C 0.90005 0.90449 0.4818 0.0
C3036 C 0.88277 0.90038 0.52835 0.0
C3037 C 0.8883 0.89134 0.55258 0.0
C3038 C 0.89973 0.88886 0.54102 0.0
C3039 C 0.90559 0.89543 0.50605 0.0
C3040 C 0.88203 0.88441 0.58943 0.0
C3041 C 0.88057 0.87269 0.58043 0.0
C3042 C 0.87681 0.88944 0.63127 0.0
C3043 C 0.87837 0.90171 0.64354 0.0
C3044 C 0.88939 0.90636 0.64862 0.0
C3045 C 0.89079 0.91795 0.6596 0.0
C3046 C 0.88123 0.92496 0.66592 0.0
C3047 C 0.87025 0.92039 0.6614 0.0
C3048 C 0.8688 0.90881 0.65037 0.0
C3049 C 0.85947 0.84799 0.74429 0.0
C3050 C 0.84858 0.85185 0.75846 0.0
C3051 C 0.86596 0.85418 0.71023 0.0
C3052 C 0.86157 0.86421 0.68891 0.0
C3053 C 0.85064 0.86801 0.70276 0.0
C3054 C 0.84422 0.86191 0.73737 0.0
C3055 C 0.8685 0.87095 0.65336 0.0
C3056 C 0.87011 0.88265 0.66261 0.0
C3057 C 0.87376 0.86592 0.61148 0.0
C3058 C 0.87187 0.85378 0.59786 0.0
C3059 C 0.86074 0.84952 0.59123 0.0
C3060 C 0.85902 0.83805 0.57874 0.0
C3061 C 0.86838 0.83078 0.57241 0.0
C3062 C 0.87948 0.83497 0.57842 0.0
C3063 C 0.88124 0.84643 0.59096 0.0
H3064 H 0.86704 0.82191 0.56274 0.0
H3065 H 0.88234 0.93393 0.67441 0.0
H3066 H 0.86558 0.16072 0.23281 0.0
H3067 H 0.87712 0.15091 0.29543 0.0
H3068 H 0.8486 0.12895 0.32976 0.0
H3069 H 0.83705 0.13862 0.26694 0.0
H3070 H 0.85972 0.13839 0.41377 0.0
H3071 H 0.86893 0.11847 0.26208 0.0
H3072 H 0.87549 0.1172 0.17565 0.0
H3073 H 0.90775 0.13193 0.21646 0.0
H3074 H 0.90133 0.1334 0.30316 0.0
H3075 H 0.88436 0.09342 0.54779 0.0
H3076 H 0.87442 0.10529 0.48748 0.0
H3077 H 0.90627 0.12155 0.4484 0.0
H3078 H 0.91635 0.10945 0.50826 0.0
H3079 H 0.89446 0.1165 0.36765 0.0
H3080 H 0.88625 0.13632 0.51724 0.0
H3081 H 0.8802 0.13879 0.60379 0.0
H3082 H 0.84697 0.12555 0.56841 0.0
H3083 H 0.85282 0.12305 0.48138 0.0
C3084 C 0.86177 0.15382 0.25382 0.0
C3085 C 0.85044 0.15041 0.24503 0.0
C3086 C 0.86838 0.14822 0.28939 0.0
C3087 C 0.86371 0.13919 0.31692 0.0
C3088 C 0.85234 0.13591 0.30881 0.0
C3089 C 0.84577 0.14141 0.27288 0.0
C3090 C 0.87069 0.1331 0.3541 0.0
C3091 C 0.86725 0.1335 0.40371 0.0
C3092 C 0.88072 0.12708 0.34102 0.0
C3093 C 0.8846 0.12616 0.28898 0.0
C3094 C 0.87739 0.12153 0.25255 0.0
C3095 C 0.88109 0.12076 0.20352 0.0
C3096 C 0.89201 0.12452 0.19051 0.0
C3097 C 0.89928 0.12903 0.22657 0.0
C3098 C 0.89562 0.12983 0.27567 0.0
C3099 C 0.88926 0.09954 0.52644 0.0
C3100 C 0.90113 0.10054 0.53279 0.0
C3101 C 0.88355 0.10637 0.49218 0.0
C3102 C 0.88957 0.11445 0.46397 0.0
C3103 C 0.90146 0.1154 0.46993 0.0
C3104 C 0.9072 0.10851 0.50414 0.0
C3105 C 0.88342 0.12163 0.42747 0.0
C3106 C 0.88699 0.12145 0.37793 0.0
C3107 C 0.87358 0.12799 0.44068 0.0
C3108 C 0.87001 0.1294 0.49293 0.0
C3109 C 0.87768 0.13386 0.52799 0.0
C3110 C 0.87428 0.13529 0.57712 0.0
C3111 C 0.86323 0.13226 0.59173 0.0
C3112 C 0.85553 0.12787 0.55708 0.0
C3113 C 0.85887 0.12649 0.50779 0.0
H3114 H 0.86063 0.13335 0.62985 0.0
H3115 H 0.89486 0.12391 0.15252 0.0
H3116 H 0.63991 0.16448 0.26532 0.0
H3117 H 0.62811 0.15464 0.20395 0.0
H3118 H 0.65654 0.13281 0.16663 0.0
H3119 H 0.66843 0.14268 0.2275 0.0
H3120 H 0.64424 0.13892 0.08472 0.0
H3121 H 0.63696 0.12382 0.24737 0.0
H3122 H 0.63182 0.12507 0.33563 0.0
H3123 H 0.59903 0.13892 0.297 0.0
H3124 H 0.60406 0.13792 0.20848 0.0
H3125 H 0.61631 0.0907 0.98536 0.0
H3126 H 0.62732 0.10309 0.04039 0.0
H3127 H 0.59753 0.12408 0.0643 0.0
H3128 H 0.58643 0.11171 0.00911 0.0
H3129 H 0.60977 0.11946 0.15095 0.0
H3130 H 0.61677 0.13326 0.98703 0.0
H3131 H 0.62202 0.13142 0.89909 0.0
H3132 H 0.65542 0.11956 0.94015 0.0
H3133 H 0.65031 0.12114 0.0284 0.0
C3134 C 0.6437 0.15771 0.24344 0.0
C3135 C 0.65505 0.15426 0.25148 0.0
C3136 C 0.63694 0.15208 0.20855 0.0
C3137 C 0.64141 0.14288 0.18137 0.0
C3138 C 0.65292 0.13986 0.18734 0.0
C3139 C 0.65969 0.14549 0.22221 0.0
C3140 C 0.6339 0.13589 0.1493 0.0
C3141 C 0.63675 0.1346 0.09923 0.0
C3142 C 0.62402 0.13041 0.16817 0.0
C3143 C 0.62094 0.13091 0.22134 0.0
C3144 C 0.62869 0.12721 0.25771 0.0
C3145 C 0.62579 0.12787 0.30778 0.0
C3146 C 0.61512 0.1321 0.32192 0.0
C3147 C 0.6073 0.13566 0.28599 0.0
C3148 C 0.61017 0.13505 0.23587 0.0
C3149 C 0.61207 0.09789 0.00268 0.0
C3150 C 0.60053 0.10028 0.99283 0.0
C3151 C 0.61838 0.10498 0.03389 0.0
C3152 C 0.61326 0.11457 0.0558 0.0
C3153 C 0.60163 0.11674 0.04752 0.0
C3154 C 0.59532 0.10968 0.01602 0.0
C3155 C 0.62015 0.12244 0.0865 0.0
C3156 C 0.61719 0.12387 0.13633 0.0
C3157 C 0.62994 0.12801 0.06743 0.0
C3158 C 0.63312 0.12722 0.01437 0.0
C3159 C 0.62521 0.13018 0.97733 0.0
C3160 C 0.62816 0.12919 0.92741 0.0
C3161 C 0.63903 0.12535 0.91404 0.0
C3162 C 0.64699 0.12253 0.95057 0.0
C3163 C 0.64408 0.12347 0.00055 0.0
H3164 H 0.6413 0.12459 0.87538 0.0
H3165 H 0.61289 0.1326 0.36069 0.0
H3166 H 0.63604 0.84207 0.72045 0.0
H3167 H 0.62445 0.85179 0.78325 0.0
H3168 H 0.65357 0.87225 0.82475 0.0
H3169 H 0.66517 0.86264 0.76203 0.0
H3170 H 0.64177 0.86323 0.90565 0.0
H3171 H 0.63386 0.88368 0.75433 0.0
H3172 H 0.62774 0.88542 0.66742 0.0
H3173 H 0.59475 0.8719 0.70497 0.0
H3174 H 0.60074 0.86992 0.79206 0.0
H3175 H 0.61839 0.90958 0.03615 0.0
H3176 H 0.62802 0.89739 0.97591 0.0
H3177 H 0.59592 0.88118 0.94059 0.0
H3178 H 0.58618 0.89348 0.00068 0.0
H3179 H 0.60797 0.88635 0.85794 0.0
H3180 H 0.61513 0.86723 0.01016 0.0
H3181 H 0.62107 0.86536 0.09723 0.0
H3182 H 0.6551 0.87583 0.0589 0.0
H3183 H 0.64933 0.87794 0.97166 0.0
C3184 C 0.63996 0.84862 0.74307 0.0
C3185 C 0.65148 0.85163 0.73631 0.0
C3186 C 0.63334 0.85417 0.77878 0.0
C3187 C 0.63816 0.86276 0.8084 0.0
C3188 C 0.64971 0.86563 0.80226 0.0
C3189 C 0.6563 0.86017 0.76632 0.0
C3190 C 0.63117 0.86892 0.84543 0.0
C3191 C 0.63443 0.86836 0.89527 0.0
C3192 C 0.62141 0.87531 0.83186 0.0
C3193 C 0.61779 0.87652 0.77957 0.0
C3194 C 0.62533 0.88098 0.74397 0.0
C3195 C 0.62189 0.88203 0.6947 0.0
C3196 C 0.61088 0.87873 0.68065 0.0
C3197 C 0.60328 0.87442 0.71589 0.0
C3198 C 0.6067 0.87334 0.76521 0.0
C3199 C 0.61338 0.90342 0.01561 0.0
C3200 C 0.60154 0.90245 0.02321 0.0
C3201 C 0.6189 0.89642 0.98136 0.0
C3202 C 0.61271 0.88827 0.95427 0.0
C3203 C 0.60086 0.88738 0.96128 0.0
C3204 C 0.59531 0.89439 0.99564 0.0
C3205 C 0.61867 0.88083 0.9182 0.0
C3206 C 0.61522 0.88112 0.86852 0.0
C3207 C 0.62823 0.87414 0.93196 0.0
C3208 C 0.63177 0.87284 0.98439 0.0
C3209 C 0.62386 0.86922 0.02034 0.0
C3210 C 0.6272 0.8681 0.06972 0.0
C3211 C 0.63845 0.8705 0.08361 0.0
C3212 C 0.64639 0.87399 0.0481 0.0
C3213 C 0.64309 0.87514 0.99866 0.0
H3214 H 0.64102 0.86962 0.12186 0.0
H3215 H 0.60822 0.87956 0.64249 0.0
H3216 H 0.61651 0.58699 0.00883 0.0
H3217 H 0.62692 0.59822 0.94741 0.0
H3218 H 0.60026 0.62369 0.94943 0.0
H3219 H 0.58969 0.61239 0.01043 0.0
H3220 H 0.60719 0.61925 0.85629 0.0
H3221 H 0.62504 0.6283 0.01052 0.0
H3222 H 0.63439 0.62423 0.09028 0.0
H3223 H 0.66192 0.60738 0.01468 0.0
H3224 H 0.65264 0.61121 0.93446 0.0
H3225 H 0.64001 0.66257 0.73609 0.0
H3226 H 0.62877 0.65198 0.79724 0.0
H3227 H 0.65359 0.62473 0.79461 0.0
H3228 H 0.66487 0.63525 0.73358 0.0
H3229 H 0.64729 0.63077 0.88918 0.0
H3230 H 0.62903 0.62149 0.73489 0.0
H3231 H 0.6196 0.62576 0.65551 0.0
H3232 H 0.59278 0.64348 0.73212 0.0
H3233 H 0.60214 0.63945 0.81197 0.0
C3234 C 0.61284 0.59497 0.99607 0.0
C3235 C 0.60232 0.59885 0.01456 0.0
C3236 C 0.61882 0.6014 0.96115 0.0
C3237 C 0.61444 0.61187 0.94441 0.0
C3238 C 0.60381 0.61565 0.96199 0.0
C3239 C 0.5978 0.6092 0.99688 0.0
C3240 C 0.62102 0.61891 0.90884 0.0
C3241 C 0.6159 0.62191 0.86377 0.0
C3242 C 0.63245 0.62222 0.91832 0.0
C3243 C 0.63808 0.61995 0.9665 0.0
C3244 C 0.63304 0.62365 0.01092 0.0
C3245 C 0.63833 0.6214 0.05621 0.0
C3246 C 0.64873 0.61552 0.05756 0.0
C3247 C 0.65386 0.61192 0.01359 0.0
C3248 C 0.64859 0.61413 0.96819 0.0
C3249 C 0.64307 0.65433 0.7486 0.0
C3250 C 0.65329 0.64972 0.73004 0.0
C3251 C 0.63662 0.64828 0.78336 0.0
C3252 C 0.64032 0.63754 0.80011 0.0
C3253 C 0.6506 0.633 0.7821 0.0
C3254 C 0.65701 0.63901 0.74716 0.0
C3255 C 0.63349 0.63102 0.83655 0.0
C3256 C 0.63857 0.62813 0.88182 0.0
C3257 C 0.62202 0.62786 0.82732 0.0
C3258 C 0.61635 0.63027 0.77937 0.0
C3259 C 0.62117 0.62638 0.73479 0.0
C3260 C 0.61583 0.62874 0.68971 0.0
C3261 C 0.60561 0.63492 0.68876 0.0
C3262 C 0.6007 0.63872 0.73291 0.0
C3263 C 0.60602 0.63639 0.77809 0.0
H3264 H 0.60148 0.63674 0.65383 0.0
H3265 H 0.65281 0.61379 0.09266 0.0
H3266 H 0.65501 0.36889 0.30157 0.0
H3267 H 0.64327 0.37959 0.24305 0.0
H3268 H 0.63291 0.34802 0.17367 0.0
H3269 H 0.64433 0.33725 0.23347 0.0
H3270 H 0.6445 0.38213 0.14964 0.0
H3271 H 0.6066 0.35055 0.12346 0.0
H3272 H 0.59592 0.33624 0.17204 0.0
H3273 H 0.60536 0.35332 0.30651 0.0
H3274 H 0.61595 0.36781 0.25873 0.0
H3275 H 0.61498 0.39798 0.93544 0.0
H3276 H 0.6248 0.38696 0.99916 0.0
H3277 H 0.59714 0.39362 0.10084 0.0
H3278 H 0.58701 0.40421 0.03612 0.0
H3279 H 0.60395 0.37294 0.11369 0.0
H3280 H 0.62306 0.40889 0.10411 0.0
H3281 H 0.63296 0.42498 0.0636 0.0
H3282 H 0.65973 0.40239 0.01626 0.0
H3283 H 0.64992 0.38614 0.05594 0.0
C3284 C 0.65019 0.36423 0.27397 0.0
C3285 C 0.65056 0.35225 0.27207 0.0
C3286 C 0.6435 0.37036 0.24048 0.0
C3287 C 0.63711 0.36462 0.2042 0.0
C3288 C 0.63757 0.35263 0.20195 0.0
C3289 C 0.64415 0.34649 0.23593 0.0
C3290 C 0.63026 0.37124 0.16793 0.0
C3291 C 0.63563 0.38012 0.1419 0.0
C3292 C 0.6186 0.36881 0.15846 0.0
C3293 C 0.61216 0.36019 0.1875 0.0
C3294 C 0.60636 0.35127 0.16338 0.0
C3295 C 0.60033 0.34313 0.19078 0.0
C3296 C 0.59999 0.34385 0.24233 0.0
C3297 C 0.60566 0.35274 0.26659 0.0
C3298 C 0.61169 0.36091 0.23937 0.0
C3299 C 0.61098 0.39705 0.97134 0.0
C3300 C 0.60029 0.40201 0.98109 0.0
C3301 C 0.61662 0.3908 0.00782 0.0
C3302 C 0.61185 0.38967 0.05522 0.0
C3303 C 0.60102 0.3944 0.06463 0.0
C3304 C 0.59526 0.40047 0.02774 0.0
C3305 C 0.61825 0.38372 0.09504 0.0
C3306 C 0.61281 0.37496 0.12161 0.0
C3307 C 0.62974 0.38652 0.10629 0.0
C3308 C 0.63571 0.39629 0.08266 0.0
C3309 C 0.63103 0.40735 0.0848 0.0
C3310 C 0.63662 0.41649 0.06202 0.0
C3311 C 0.64695 0.4147 0.03729 0.0
C3312 C 0.65173 0.40377 0.0354 0.0
C3313 C 0.64616 0.39459 0.05807 0.0
H3314 H 0.65127 0.4218 0.01966 0.0
H3315 H 0.59533 0.33753 0.26347 0.0
H3316 H 0.91292 0.38981 0.50818 0.0
H3317 H 0.90261 0.37822 0.44743 0.0
H3318 H 0.87274 0.3994 0.46647 0.0
H3319 H 0.88293 0.41088 0.52778 0.0
H3320 H 0.867 0.37739 0.46571 0.0
H3321 H 0.89 0.40215 0.36516 0.0
H3322 H 0.9078 0.41123 0.3363 0.0
H3323 H 0.92148 0.37835 0.29798 0.0
H3324 H 0.9038 0.36905 0.32727 0.0
H3325 H 0.83603 0.36346 0.24869 0.0
H3326 H 0.84724 0.37341 0.31172 0.0
H3327 H 0.87422 0.34856 0.2959 0.0
H3328 H 0.863 0.33849 0.23286 0.0
H3329 H 0.88193 0.37136 0.29595 0.0
H3330 H 0.85808 0.34685 0.39355 0.0
H3331 H 0.83989 0.33827 0.42065 0.0
H3332 H 0.8274 0.37137 0.46284 0.0
H3333 H 0.84547 0.38018 0.43529 0.0
C3334 C 0.90416 0.392 0.49932 0.0
C3335 C 0.89873 0.40127 0.52257 0.0
C3336 C 0.89829 0.3854 0.46451 0.0
C3337 C 0.88694 0.38802 0.45207 0.0
C3338 C 0.88149 0.39723 0.47553 0.0
C3339 C 0.88734 0.4038 0.5104 0.0
C3340 C 0.88067 0.38114 0.41484 0.0
C3341 C 0.87021 0.37618 0.42844 0.0
C3342 C 0.88499 0.37933 0.36655 0.0
C3343 C 0.89563 0.3849 0.34893 0.0
C3344 C 0.89684 0.39685 0.35098 0.0
C3345 C 0.9069 0.40204 0.33447 0.0
C3346 C 0.91578 0.39537 0.31546 0.0
C3347 C 0.9146 0.3835 0.3128 0.0
C3348 C 0.90456 0.37827 0.32932 0.0
C3349 C 0.84434 0.3601 0.2587 0.0
C3350 C 0.84864 0.35019 0.236 0.0
C3351 C 0.85071 0.36577 0.29478 0.0
C3352 C 0.86151 0.36166 0.30864 0.0
C3353 C 0.86589 0.35183 0.2857 0.0
C3354 C 0.85946 0.34609 0.2499 0.0
C3355 C 0.86824 0.36773 0.34678 0.0
C3356 C 0.87877 0.37253 0.33334 0.0
C3357 C 0.86395 0.36947 0.39509 0.0
C3358 C 0.8531 0.36419 0.41192 0.0
C3359 C 0.85142 0.35231 0.40822 0.0
C3360 C 0.84114 0.3474 0.42374 0.0
C3361 C 0.83248 0.35427 0.44334 0.0
C3362 C 0.83411 0.36606 0.44759 0.0
C3363 C 0.84437 0.37101 0.43208 0.0
H3364 H 0.82453 0.35045 0.45533 0.0
H3365 H 0.92356 0.3994 0.30267 0.0
H3366 H 0.86346 0.66288 0.76267 0.0
H3367 H 0.87464 0.65244 0.70094 0.0
H3368 H 0.84896 0.62597 0.69763 0.0
H3369 H 0.83793 0.63621 0.76025 0.0
H3370 H 0.86941 0.61681 0.7017 0.0
H3371 H 0.85164 0.64619 0.60406 0.0
H3372 H 0.84657 0.66596 0.58138 0.0
H3373 H 0.88211 0.67426 0.56467 0.0
H3374 H 0.8874 0.65457 0.58791 0.0
H3375 H 0.88462 0.58841 0.48112 0.0
H3376 H 0.87466 0.59989 0.54306 0.0
H3377 H 0.9031 0.62333 0.54796 0.0
H3378 H 0.91312 0.61189 0.48556 0.0
H3379 H 0.8823 0.63437 0.54432 0.0
H3380 H 0.89982 0.60448 0.63906 0.0
H3381 H 0.90456 0.58454 0.66014 0.0
H3382 H 0.86896 0.57705 0.68089 0.0
H3383 H 0.86399 0.59692 0.65923 0.0
C3384 C 0.8602 0.65485 0.74862 0.0
C3385 C 0.84983 0.65035 0.76618 0.0
C3386 C 0.86656 0.64892 0.71321 0.0
C3387 C 0.86258 0.63848 0.69425 0.0
C3388 C 0.85221 0.634 0.71176 0.0
C3389 C 0.8459 0.63987 0.74743 0.0
C3390 C 0.8693 0.63205 0.65698 0.0
C3391 C 0.8721 0.62062 0.66704 0.0
C3392 C 0.87308 0.6371 0.61231 0.0
C3393 C 0.86992 0.64894 0.59823 0.0
C3394 C 0.85838 0.65226 0.59593 0.0
C3395 C 0.85546 0.66344 0.58291 0.0
C3396 C 0.86401 0.67137 0.57173 0.0
C3397 C 0.87549 0.66812 0.57342 0.0
C3398 C 0.87846 0.65694 0.58648 0.0
C3399 C 0.88876 0.596 0.49537 0.0
C3400 C 0.89967 0.59923 0.47871 0.0
C3401 C 0.88308 0.60253 0.53085 0.0
C3402 C 0.88821 0.61238 0.55045 0.0
C3403 C 0.89902 0.61573 0.53333 0.0
C3404 C 0.90473 0.60918 0.49786 0.0
C3405 C 0.88225 0.61913 0.5889 0.0
C3406 C 0.87962 0.6306 0.5791 0.0
C3407 C 0.87856 0.61411 0.63372 0.0
C3408 C 0.88153 0.60217 0.6471 0.0
C3409 C 0.893 0.59857 0.64776 0.0
C3410 C 0.89572 0.58728 0.65987 0.0
C3411 C 0.88706 0.57953 0.67174 0.0
C3412 C 0.87566 0.58306 0.67164 0.0
C3413 C 0.87288 0.59434 0.6595 0.0
H3414 H 0.88919 0.57079 0.6811 0.0
H3415 H 0.86174 0.68003 0.56165 0.0
H3416 H 0.36568 0.34212 0.2895 0.0
H3417 H 0.37743 0.35208 0.22794 0.0
H3418 H 0.34773 0.37052 0.17746 0.0
H3419 H 0.33598 0.3607 0.23894 0.0
H3420 H 0.36099 0.36165 0.10047 0.0
H3421 H 0.36577 0.38359 0.25018 0.0
H3422 H 0.37065 0.38636 0.33805 0.0
H3423 H 0.40484 0.37467 0.31022 0.0
H3424 H 0.4001 0.37167 0.22224 0.0
H3425 H 0.38373 0.40789 0.96682 0.0
H3426 H 0.3739 0.3961 0.02798 0.0
H3427 H 0.40612 0.38157 0.07322 0.0
H3428 H 0.41607 0.39345 0.01224 0.0
H3429 H 0.39279 0.38704 0.15226 0.0
H3430 H 0.38857 0.36628 0.00169 0.0
H3431 H 0.38383 0.36344 0.91373 0.0
H3432 H 0.34891 0.37251 0.94261 0.0
H3433 H 0.35347 0.37557 0.03067 0.0
C3434 C 0.36166 0.34828 0.26514 0.0
C3435 C 0.34993 0.35067 0.26905 0.0
C3436 C 0.36838 0.35396 0.23015 0.0
C3437 C 0.36344 0.36206 0.1984 0.0
C3438 C 0.35169 0.36429 0.20164 0.0
C3439 C 0.34501 0.35871 0.23687 0.0
C3440 C 0.37049 0.36838 0.16212 0.0
C3441 C 0.36789 0.36728 0.11174 0.0
C3442 C 0.37968 0.37545 0.17693 0.0
C3443 C 0.38254 0.37727 0.22977 0.0
C3444 C 0.3743 0.38151 0.26289 0.0
C3445 C 0.37704 0.38314 0.31269 0.0
C3446 C 0.38804 0.38066 0.32975 0.0
C3447 C 0.39632 0.37656 0.29698 0.0
C3448 C 0.39361 0.3749 0.24714 0.0
C3449 C 0.38874 0.40221 0.98985 0.0
C3450 C 0.40066 0.40155 0.98465 0.0
C3451 C 0.3831 0.39544 0.02462 0.0
C3452 C 0.38927 0.38785 0.05464 0.0
C3453 C 0.40121 0.38734 0.05026 0.0
C3454 C 0.40686 0.39411 0.01539 0.0
C3455 C 0.38319 0.38046 0.09054 0.0
C3456 C 0.38598 0.38134 0.14087 0.0
C3457 C 0.37419 0.37314 0.07566 0.0
C3458 C 0.37139 0.37125 0.02274 0.0
C3459 C 0.3799 0.36776 0.98923 0.0
C3460 C 0.37724 0.36609 0.93935 0.0
C3461 C 0.36608 0.36782 0.92257 0.0
C3462 C 0.35755 0.37119 0.95566 0.0
C3463 C 0.36016 0.37288 0.00557 0.0
H3464 H 0.36404 0.36652 0.88393 0.0
H3465 H 0.39015 0.38193 0.36831 0.0
H3466 H 0.38416 0.58593 0.02734 0.0
H3467 H 0.37311 0.59718 0.96793 0.0
H3468 H 0.40094 0.62119 0.95576 0.0
H3469 H 0.41206 0.60997 0.01518 0.0
H3470 H 0.37979 0.63166 0.96841 0.0
H3471 H 0.39673 0.6027 0.8654 0.0
H3472 H 0.40138 0.58295 0.84072 0.0
H3473 H 0.36564 0.57524 0.82718 0.0
H3474 H 0.36077 0.59491 0.85247 0.0
H3475 H 0.36164 0.66191 0.75576 0.0
H3476 H 0.37208 0.65074 0.81723 0.0
H3477 H 0.34573 0.62495 0.81365 0.0
H3478 H 0.33541 0.63594 0.75097 0.0
H3479 H 0.36587 0.61524 0.81035 0.0
H3480 H 0.34862 0.64387 0.9121 0.0
H3481 H 0.34356 0.66341 0.9383 0.0
H3482 H 0.3791 0.67154 0.95648 0.0
H3483 H 0.38439 0.65208 0.92972 0.0
C3484 C 0.38794 0.59358 0.01188 0.0
C3485 C 0.39897 0.59707 0.02576 0.0
C3486 C 0.38163 0.59998 0.9779 0.0
C3487 C 0.38625 0.60997 0.9573 0.0
C3488 C 0.39724 0.6135 0.97128 0.0
C3489 C 0.40359 0.60706 0.00502 0.0
C3490 C 0.37956 0.6168 0.9215 0.0
C3491 C 0.37686 0.62814 0.93353 0.0
C3492 C 0.37548 0.61206 0.87676 0.0
C3493 C 0.37839 0.60024 0.86132 0.0
C3494 C 0.38986 0.59676 0.85756 0.0
C3495 C 0.39253 0.58559 0.84339 0.0
C3496 C 0.38381 0.57783 0.83252 0.0
C3497 C 0.37239 0.58125 0.83567 0.0
C3498 C 0.36967 0.59241 0.84989 0.0
C3499 C 0.35803 0.6539 0.76836 0.0
C3500 C 0.3477 0.6498 0.7487 0.0
C3501 C 0.36398 0.64754 0.80365 0.0
C3502 C 0.35962 0.63706 0.82054 0.0
C3503 C 0.34925 0.63301 0.80119 0.0
C3504 C 0.34335 0.63931 0.76554 0.0
C3505 C 0.36608 0.63016 0.8571 0.0
C3506 C 0.36875 0.61879 0.84525 0.0
C3507 C 0.37006 0.63485 0.90221 0.0
C3508 C 0.3669 0.64655 0.91846 0.0
C3509 C 0.35536 0.64985 0.92132 0.0
C3510 C 0.35245 0.66091 0.93634 0.0
C3511 C 0.361 0.66872 0.94893 0.0
C3512 C 0.37248 0.66548 0.94666 0.0
C3513 C 0.37544 0.65444 0.93162 0.0
H3514 H 0.35873 0.67727 0.96055 0.0
H3515 H 0.38589 0.56919 0.82155 0.0
H3516 H 0.14278 0.66524 0.74066 0.0
H3517 H 0.1306 0.65546 0.68035 0.0
H3518 H 0.14535 0.6231 0.72246 0.0
H3519 H 0.15748 0.6328 0.78299 0.0
H3520 H 0.13654 0.64295 0.6006 0.0
H3521 H 0.12481 0.60242 0.71279 0.0
H3522 H 0.12165 0.59671 0.79954 0.0
H3523 H 0.11251 0.6312 0.83668 0.0
H3524 H 0.11546 0.63708 0.75006 0.0
H3525 H 0.1184 0.59708 0.44837 0.0
H3526 H 0.12775 0.60885 0.51122 0.0
H3527 H 0.09491 0.61719 0.57405 0.0
H3528 H 0.08547 0.60545 0.51101 0.0
H3529 H 0.11082 0.61081 0.6448 0.0
H3530 H 0.10804 0.63704 0.50967 0.0
H3531 H 0.11027 0.64392 0.42416 0.0
H3532 H 0.14664 0.63964 0.43445 0.0
H3533 H 0.14461 0.63264 0.52005 0.0
C3534 C 0.14339 0.65604 0.73714 0.0
C3535 C 0.15107 0.64977 0.76648 0.0
C3536 C 0.13646 0.65047 0.70266 0.0
C3537 C 0.13701 0.63855 0.69727 0.0
C3538 C 0.14468 0.63229 0.72653 0.0
C3539 C 0.15164 0.63785 0.76089 0.0
C3540 C 0.12982 0.63269 0.65999 0.0
C3541 C 0.1309 0.63594 0.61029 0.0
C3542 C 0.12234 0.62366 0.67279 0.0
C3543 C 0.12044 0.6202 0.72496 0.0
C3544 C 0.12208 0.60877 0.73942 0.0
C3545 C 0.12033 0.60551 0.78857 0.0
C3546 C 0.11688 0.61359 0.82358 0.0
C3547 C 0.1152 0.62495 0.80953 0.0
C3548 C 0.11693 0.62826 0.76042 0.0
C3549 C 0.11316 0.60145 0.47548 0.0
C3550 C 0.1012 0.60036 0.47482 0.0
C3551 C 0.11851 0.60819 0.51123 0.0
C3552 C 0.11201 0.61393 0.54707 0.0
C3553 C 0.10007 0.61283 0.54666 0.0
C3554 C 0.09469 0.60616 0.51058 0.0
C3555 C 0.11774 0.62093 0.58539 0.0
C3556 C 0.11642 0.61786 0.63522 0.0
C3557 C 0.12491 0.63021 0.57284 0.0
C3558 C 0.12616 0.63423 0.52112 0.0
C3559 C 0.1165 0.63746 0.49354 0.0
C3560 C 0.11774 0.64141 0.44507 0.0
C3561 C 0.12859 0.6422 0.42381 0.0
C3562 C 0.13824 0.63902 0.45097 0.0
C3563 C 0.13705 0.63508 0.49949 0.0
H3564 H 0.12955 0.64532 0.38638 0.0
H3565 H 0.11551 0.61104 0.86158 0.0
H3566 H 0.13662 0.34258 0.21456 0.0
H3567 H 0.12528 0.3529 0.27641 0.0
H3568 H 0.15344 0.37597 0.30129 0.0
H3569 H 0.16476 0.3658 0.23926 0.0
H3570 H 0.14405 0.36723 0.38834 0.0
H3571 H 0.13168 0.38581 0.23947 0.0
H3572 H 0.12377 0.38742 0.15528 0.0
H3573 H 0.09284 0.37101 0.20284 0.0
H3574 H 0.10059 0.36929 0.28742 0.0
H3575 H 0.11709 0.4111 0.52528 0.0
H3576 H 0.12749 0.39999 0.46345 0.0
H3577 H 0.09719 0.38006 0.43462 0.0
H3578 H 0.08666 0.39129 0.496 0.0
H3579 H 0.10726 0.38638 0.35026 0.0
H3580 H 0.11945 0.36904 0.50178 0.0
H3581 H 0.12745 0.36818 0.58605 0.0
H3582 H 0.15902 0.38241 0.53361 0.0
H3583 H 0.15116 0.3835 0.44911 0.0
C3584 C 0.14037 0.34987 0.23316 0.0
C3585 C 0.15157 0.35339 0.22219 0.0
C3586 C 0.13388 0.35577 0.26827 0.0
C3587 C 0.13853 0.36521 0.29322 0.0
C3588 C 0.14972 0.3687 0.28241 0.0
C3589 C 0.15615 0.3629 0.24692 0.0
C3590 C 0.13184 0.3713 0.33149 0.0
C3591 C 0.13606 0.37152 0.38001 0.0
C3592 C 0.1213 0.37663 0.32069 0.0
C3593 C 0.11676 0.37731 0.2696 0.0
C3594 C 0.12324 0.38243 0.23184 0.0
C3595 C 0.11877 0.3834 0.1841 0.0
C3596 C 0.10782 0.37929 0.17368 0.0
C3597 C 0.10133 0.37418 0.21097 0.0
C3598 C 0.10574 0.37323 0.25883 0.0
C3599 C 0.11264 0.40434 0.50582 0.0
C3600 C 0.10107 0.40205 0.51548 0.0
C3601 C 0.11861 0.39795 0.4707 0.0
C3602 C 0.11316 0.38909 0.44489 0.0
C3603 C 0.10157 0.38684 0.45423 0.0
C3604 C 0.09558 0.39325 0.48932 0.0
C3605 C 0.11948 0.38237 0.40728 0.0
C3606 C 0.1152 0.38201 0.35883 0.0
C3607 C 0.12999 0.37692 0.41818 0.0
C3608 C 0.13468 0.37643 0.46914 0.0
C3609 C 0.12806 0.37208 0.50828 0.0
C3610 C 0.13258 0.37153 0.55607 0.0
C3611 C 0.14374 0.37523 0.56514 0.0
C3612 C 0.15039 0.37954 0.5265 0.0
C3613 C 0.14591 0.38011 0.47865 0.0
H3614 H 0.14725 0.37474 0.60209 0.0
H3615 H 0.10435 0.38012 0.13678 0.0
loop_
_geom_bond_atom_site_label_1
_geom_bond_atom_site_label_2
_geom_bond_distance
_geom_bond_site_symmetry_2
_ccdc_geom_bond_type
In0 O1 2.294 . S
In0 O2 2.326 . S
In0 O6 2.266 . S
In0 O7 2.326 . S
In0 O8 2.266 . S
In0 O9 2.326 . S
In0 O11 2.294 . S
In0 O12 2.326 . S
O1 In0 2.294 . S
O1 C10 1.240 . S
O2 In0 2.326 . S
O2 C10 1.252 . S
C3 O6 1.252 . S
C3 O7 1.260 . S
C4 O11 1.240 . S
C4 O12 1.252 . S
C5 O8 1.252 . S
C5 O9 1.260 . S
O6 In0 2.266 . S
O6 C3 1.252 . S
O7 In0 2.326 . S
O7 C3 1.260 . S
O8 In0 2.266 . S
O8 C5 1.252 . S
O9 In0 2.326 . S
O9 C5 1.260 . S
C10 O1 1.240 . S
C10 O2 1.252 . S
O11 In0 2.294 . S
O11 C4 1.240 . S
O12 In0 2.326 . S
O12 C4 1.252 . S
In13 O14 2.294 . S
In13 O15 2.326 . S
In13 O19 2.266 . S
In13 O20 2.326 . S
In13 O21 2.266 . S
In13 O22 2.326 . S
In13 O24 2.294 . S
In13 O25 2.326 . S
O14 In13 2.294 . S
O14 C23 1.240 . S
O15 In13 2.326 . S
O15 C23 1.252 . S
C16 O19 1.252 . S
C16 O20 1.260 . S
C17 O24 1.240 . S
C17 O25 1.252 . S
C18 O21 1.252 . S
C18 O22 1.260 . S
O19 In13 2.266 . S
O19 C16 1.252 . S
O20 In13 2.326 . S
O20 C16 1.260 . S
O21 In13 2.266 . S
O21 C18 1.252 . S
O22 In13 2.326 . S
O22 C18 1.260 . S
C23 O14 1.240 . S
C23 O15 1.252 . S
O24 In13 2.294 . S
O24 C17 1.240 . S
O25 In13 2.326 . S
O25 C17 1.252 . S
In26 O27 2.294 . S
In26 O28 2.326 . S
In26 O32 2.266 . S
In26 O33 2.326 . S
In26 O34 2.266 . S
In26 O35 2.326 . S
In26 O37 2.294 . S
In26 O38 2.326 . S
O27 In26 2.294 . S
O27 C36 1.240 . S
O28 In26 2.326 . S
O28 C36 1.252 . S
C29 O32 1.252 . S
C29 O33 1.260 . S
C30 O37 1.240 . S
C30 O38 1.252 . S
C31 O34 1.252 . S
C31 O35 1.260 . S
O32 In26 2.266 . S
O32 C29 1.252 . S
O33 In26 2.326 . S
O33 C29 1.260 . S
O34 In26 2.266 . S
O34 C31 1.252 . S
O35 In26 2.326 . S
O35 C31 1.260 . S
C36 O27 1.240 . S
C36 O28 1.252 . S
O37 In26 2.294 . S
O37 C30 1.240 . S
O38 In26 2.326 . S
O38 C30 1.252 . S
In39 O40 2.294 . S
In39 O41 2.326 . S
In39 O45 2.266 . S
In39 O46 2.326 . S
In39 O47 2.266 . S
In39 O48 2.326 . S
In39 O50 2.294 . S
In39 O51 2.326 . S
O40 In39 2.294 . S
O40 C49 1.240 . S
O41 In39 2.326 . S
O41 C49 1.252 . S
C42 O45 1.252 . S
C42 O46 1.260 . S
C43 O50 1.240 . S
C43 O51 1.252 . S
C44 O47 1.252 . S
C44 O48 1.260 . S
O45 In39 2.266 . S
O45 C42 1.252 . S
O46 In39 2.326 . S
O46 C42 1.260 . S
O47 In39 2.266 . S
O47 C44 1.252 . S
O48 In39 2.326 . S
O48 C44 1.260 . S
C49 O40 1.240 . S
C49 O41 1.252 . S
O50 In39 2.294 . S
O50 C43 1.240 . S
O51 In39 2.326 . S
O51 C43 1.252 . S
In52 O53 2.294 . S
In52 O54 2.326 . S
In52 O58 2.266 . S
In52 O59 2.326 . S
In52 O60 2.266 . S
In52 O61 2.326 . S
In52 O63 2.294 . S
In52 O64 2.326 . S
O53 In52 2.294 . S
O53 C62 1.240 . S
O54 In52 2.326 . S
O54 C62 1.252 . S
C55 O58 1.252 . S
C55 O59 1.260 . S
C56 O63 1.240 . S
C56 O64 1.252 . S
C57 O60 1.252 . S
C57 O61 1.260 . S
O58 In52 2.266 . S
O58 C55 1.252 . S
O59 In52 2.326 . S
O59 C55 1.260 . S
O60 In52 2.266 . S
O60 C57 1.252 . S
O61 In52 2.326 . S
O61 C57 1.260 . S
C62 O53 1.240 . S
C62 O54 1.252 . S
O63 In52 2.294 . S
O63 C56 1.240 . S
O64 In52 2.326 . S
O64 C56 1.252 . S
In65 O66 2.294 . S
In65 O67 2.326 . S
In65 O71 2.266 . S
In65 O72 2.326 . S
In65 O73 2.266 . S
In65 O74 2.326 . S
In65 O76 2.294 . S
In65 O77 2.326 . S
O66 In65 2.294 . S
O66 C75 1.240 . S
O67 In65 2.326 . S
O67 C75 1.252 . S
C68 O71 1.252 . S
C68 O72 1.260 . S
C69 O76 1.240 . S
C69 O77 1.252 . S
C70 O73 1.252 . S
C70 O74 1.260 . S
O71 In65 2.266 . S
O71 C68 1.252 . S
O72 In65 2.326 . S
O72 C68 1.260 . S
O73 In65 2.266 . S
O73 C70 1.252 . S
O74 In65 2.326 . S
O74 C70 1.260 . S
C75 O66 1.240 . S
C75 O67 1.252 . S
O76 In65 2.294 . S
O76 C69 1.240 . S
O77 In65 2.326 . S
O77 C69 1.252 . S
In78 O79 2.294 . S
In78 O80 2.326 . S
In78 O84 2.266 . S
In78 O85 2.326 . S
In78 O86 2.266 . S
In78 O87 2.326 . S
In78 O89 2.294 . S
In78 O90 2.326 . S
O79 In78 2.294 . S
O79 C88 1.240 . S
O80 In78 2.326 . S
O80 C88 1.252 . S
C81 O84 1.252 . S
C81 O85 1.260 . S
C82 O89 1.240 . S
C82 O90 1.252 . S
C83 O86 1.252 . S
C83 O87 1.260 . S
O84 In78 2.266 . S
O84 C81 1.252 . S
O85 In78 2.326 . S
O85 C81 1.260 . S
O86 In78 2.266 . S
O86 C83 1.252 . S
O87 In78 2.326 . S
O87 C83 1.260 . S
C88 O79 1.240 . S
C88 O80 1.252 . S
O89 In78 2.294 . S
O89 C82 1.240 . S
O90 In78 2.326 . S
O90 C82 1.252 . S
In91 O92 2.294 . S
In91 O93 2.326 . S
In91 O97 2.266 . S
In91 O98 2.326 . S
In91 O99 2.266 . S
In91 O100 2.326 . S
In91 O102 2.294 . S
In91 O103 2.326 . S
O92 In91 2.294 . S
O92 C101 1.240 . S
O93 In91 2.326 . S
O93 C101 1.252 . S
C94 O97 1.252 . S
C94 O98 1.260 . S
C95 O102 1.240 . S
C95 O103 1.252 . S
C96 O99 1.252 . S
C96 O100 1.260 . S
O97 In91 2.266 . S
O97 C94 1.252 . S
O98 In91 2.326 . S
O98 C94 1.260 . S
O99 In91 2.266 . S
O99 C96 1.252 . S
O100 In91 2.326 . S
O100 C96 1.260 . S
C101 O92 1.240 . S
C101 O93 1.252 . S
O102 In91 2.294 . S
O102 C95 1.240 . S
O103 In91 2.326 . S
O103 C95 1.252 . S
In104 O105 2.294 . S
In104 O106 2.326 . S
In104 O110 2.266 . S
In104 O111 2.326 . S
In104 O112 2.266 . S
In104 O113 2.326 . S
In104 O115 2.294 . S
In104 O116 2.326 . S
O105 In104 2.294 . S
O105 C114 1.240 . S
O106 In104 2.326 . S
O106 C114 1.252 . S
C107 O110 1.252 . S
C107 O111 1.260 . S
C108 O115 1.240 . S
C108 O116 1.252 . S
C109 O112 1.252 . S
C109 O113 1.260 . S
O110 In104 2.266 . S
O110 C107 1.252 . S
O111 In104 2.326 . S
O111 C107 1.260 . S
O112 In104 2.266 . S
O112 C109 1.252 . S
O113 In104 2.326 . S
O113 C109 1.260 . S
C114 O105 1.240 . S
C114 O106 1.252 . S
O115 In104 2.294 . S
O115 C108 1.240 . S
O116 In104 2.326 . S
O116 C108 1.252 . S
In117 O118 2.294 . S
In117 O119 2.326 . S
In117 O123 2.266 . S
In117 O124 2.326 . S
In117 O125 2.266 . S
In117 O126 2.326 . S
In117 O128 2.294 . S
In117 O129 2.326 . S
O118 In117 2.294 . S
O118 C127 1.240 . S
O119 In117 2.326 . S
O119 C127 1.252 . S
C120 O123 1.252 . S
C120 O124 1.260 . S
C121 O128 1.240 . S
C121 O129 1.252 . S
C122 O125 1.252 . S
C122 O126 1.260 . S
O123 In117 2.266 . S
O123 C120 1.252 . S
O124 In117 2.326 . S
O124 C120 1.260 . S
O125 In117 2.266 . S
O125 C122 1.252 . S
O126 In117 2.326 . S
O126 C122 1.260 . S
C127 O118 1.240 . S
C127 O119 1.252 . S
O128 In117 2.294 . S
O128 C121 1.240 . S
O129 In117 2.326 . S
O129 C121 1.252 . S
In130 O131 2.294 . S
In130 O132 2.326 . S
In130 O136 2.266 . S
In130 O137 2.326 . S
In130 O138 2.266 . S
In130 O139 2.326 . S
In130 O141 2.294 . S
In130 O142 2.326 . S
O131 In130 2.294 . S
O131 C140 1.240 . S
O132 In130 2.326 . S
O132 C140 1.252 . S
C133 O136 1.252 . S
C133 O137 1.260 . S
C134 O141 1.240 . S
C134 O142 1.252 . S
C135 O138 1.252 . S
C135 O139 1.260 . S
O136 In130 2.266 . S
O136 C133 1.252 . S
O137 In130 2.326 . S
O137 C133 1.260 . S
O138 In130 2.266 . S
O138 C135 1.252 . S
O139 In130 2.326 . S
O139 C135 1.260 . S
C140 O131 1.240 . S
C140 O132 1.252 . S
O141 In130 2.294 . S
O141 C134 1.240 . S
O142 In130 2.326 . S
O142 C134 1.252 . S
In143 O144 2.294 . S
In143 O145 2.326 . S
In143 O149 2.266 . S
In143 O150 2.326 . S
In143 O151 2.266 . S
In143 O152 2.326 . S
In143 O154 2.294 . S
In143 O155 2.326 . S
O144 In143 2.294 . S
O144 C153 1.240 . S
O145 In143 2.326 . S
O145 C153 1.252 . S
C146 O149 1.252 . S
C146 O150 1.260 . S
C147 O154 1.240 . S
C147 O155 1.252 . S
C148 O151 1.252 . S
C148 O152 1.260 . S
O149 In143 2.266 . S
O149 C146 1.252 . S
O150 In143 2.326 . S
O150 C146 1.260 . S
O151 In143 2.266 . S
O151 C148 1.252 . S
O152 In143 2.326 . S
O152 C148 1.260 . S
C153 O144 1.240 . S
C153 O145 1.252 . S
O154 In143 2.294 . S
O154 C147 1.240 . S
O155 In143 2.326 . S
O155 C147 1.252 . S
In156 O157 2.294 . S
In156 O158 2.326 . S
In156 O162 2.266 . S
In156 O163 2.326 . S
In156 O164 2.266 . S
In156 O165 2.326 . S
In156 O167 2.294 . S
In156 O168 2.326 . S
O157 In156 2.294 . S
O157 C166 1.240 . S
O158 In156 2.326 . S
O158 C166 1.252 . S
C159 O162 1.252 . S
C159 O163 1.260 . S
C160 O167 1.240 . S
C160 O168 1.252 . S
C161 O164 1.252 . S
C161 O165 1.260 . S
O162 In156 2.266 . S
O162 C159 1.252 . S
O163 In156 2.326 . S
O163 C159 1.260 . S
O164 In156 2.266 . S
O164 C161 1.252 . S
O165 In156 2.326 . S
O165 C161 1.260 . S
C166 O157 1.240 . S
C166 O158 1.252 . S
O167 In156 2.294 . S
O167 C160 1.240 . S
O168 In156 2.326 . S
O168 C160 1.252 . S
In169 O170 2.294 . S
In169 O171 2.326 . S
In169 O175 2.266 . S
In169 O176 2.326 . S
In169 O177 2.266 . S
In169 O178 2.326 . S
In169 O180 2.294 . S
In169 O181 2.326 . S
O170 In169 2.294 . S
O170 C179 1.240 . S
O171 In169 2.326 . S
O171 C179 1.252 . S
C172 O175 1.252 . S
C172 O176 1.260 . S
C173 O180 1.240 . S
C173 O181 1.252 . S
C174 O177 1.252 . S
C174 O178 1.260 . S
O175 In169 2.266 . S
O175 C172 1.252 . S
O176 In169 2.326 . S
O176 C172 1.260 . S
O177 In169 2.266 . S
O177 C174 1.252 . S
O178 In169 2.326 . S
O178 C174 1.260 . S
C179 O170 1.240 . S
C179 O171 1.252 . S
O180 In169 2.294 . S
O180 C173 1.240 . S
O181 In169 2.326 . S
O181 C173 1.252 . S
In182 O183 2.294 . S
In182 O184 2.326 . S
In182 O188 2.266 . S
In182 O189 2.326 . S
In182 O190 2.266 . S
In182 O191 2.326 . S
In182 O193 2.294 . S
In182 O194 2.326 . S
O183 In182 2.294 . S
O183 C192 1.240 . S
O184 In182 2.326 . S
O184 C192 1.252 . S
C185 O188 1.252 . S
C185 O189 1.260 . S
C186 O193 1.240 . S
C186 O194 1.252 . S
C187 O190 1.252 . S
C187 O191 1.260 . S
O188 In182 2.266 . S
O188 C185 1.252 . S
O189 In182 2.326 . S
O189 C185 1.260 . S
O190 In182 2.266 . S
O190 C187 1.252 . S
O191 In182 2.326 . S
O191 C187 1.260 . S
C192 O183 1.240 . S
C192 O184 1.252 . S
O193 In182 2.294 . S
O193 C186 1.240 . S
O194 In182 2.326 . S
O194 C186 1.252 . S
In195 O196 2.294 . S
In195 O197 2.326 . S
In195 O201 2.266 . S
In195 O202 2.326 . S
In195 O203 2.266 . S
In195 O204 2.326 . S
In195 O206 2.294 . S
In195 O207 2.326 . S
O196 In195 2.294 . S
O196 C205 1.240 . S
O197 In195 2.326 . S
O197 C205 1.252 . S
C198 O201 1.252 . S
C198 O202 1.260 . S
C199 O206 1.240 . S
C199 O207 1.252 . S
C200 O203 1.252 . S
C200 O204 1.260 . S
O201 In195 2.266 . S
O201 C198 1.252 . S
O202 In195 2.326 . S
O202 C198 1.260 . S
O203 In195 2.266 . S
O203 C200 1.252 . S
O204 In195 2.326 . S
O204 C200 1.260 . S
C205 O196 1.240 . S
C205 O197 1.252 . S
O206 In195 2.294 . S
O206 C199 1.240 . S
O207 In195 2.326 . S
O207 C199 1.252 . S
In208 O209 2.294 . S
In208 O210 2.326 . S
In208 O214 2.266 . S
In208 O215 2.326 . S
In208 O216 2.266 . S
In208 O217 2.326 . S
In208 O219 2.294 . S
In208 O220 2.326 . S
O209 In208 2.294 . S
O209 C218 1.240 . S
O210 In208 2.326 . S
O210 C218 1.252 . S
C211 O214 1.252 . S
C211 O215 1.260 . S
C212 O219 1.240 . S
C212 O220 1.252 . S
C213 O216 1.252 . S
C213 O217 1.260 . S
O214 In208 2.266 . S
O214 C211 1.252 . S
O215 In208 2.326 . S
O215 C211 1.260 . S
O216 In208 2.266 . S
O216 C213 1.252 . S
O217 In208 2.326 . S
O217 C213 1.260 . S
C218 O209 1.240 . S
C218 O210 1.252 . S
O219 In208 2.294 . S
O219 C212 1.240 . S
O220 In208 2.326 . S
O220 C212 1.252 . S
In221 O222 2.294 . S
In221 O223 2.326 . S
In221 O227 2.266 . S
In221 O228 2.326 . S
In221 O229 2.266 . S
In221 O230 2.326 . S
In221 O232 2.294 . S
In221 O233 2.326 . S
O222 In221 2.294 . S
O222 C231 1.240 . S
O223 In221 2.326 . S
O223 C231 1.252 . S
C224 O227 1.252 . S
C224 O228 1.260 . S
C225 O232 1.240 . S
C225 O233 1.252 . S
C226 O229 1.252 . S
C226 O230 1.260 . S
O227 In221 2.266 . S
O227 C224 1.252 . S
O228 In221 2.326 . S
O228 C224 1.260 . S
O229 In221 2.266 . S
O229 C226 1.252 . S
O230 In221 2.326 . S
O230 C226 1.260 . S
C231 O222 1.240 . S
C231 O223 1.252 . S
O232 In221 2.294 . S
O232 C225 1.240 . S
O233 In221 2.326 . S
O233 C225 1.252 . S
In234 O235 2.294 . S
In234 O236 2.326 . S
In234 O240 2.266 . S
In234 O241 2.326 . S
In234 O242 2.266 . S
In234 O243 2.326 . S
In234 O245 2.294 . S
In234 O246 2.326 . S
O235 In234 2.294 . S
O235 C244 1.240 . S
O236 In234 2.326 . S
O236 C244 1.252 . S
C237 O240 1.252 . S
C237 O241 1.260 . S
C238 O245 1.240 . S
C238 O246 1.252 . S
C239 O242 1.252 . S
C239 O243 1.260 . S
O240 In234 2.266 . S
O240 C237 1.252 . S
O241 In234 2.326 . S
O241 C237 1.260 . S
O242 In234 2.266 . S
O242 C239 1.252 . S
O243 In234 2.326 . S
O243 C239 1.260 . S
C244 O235 1.240 . S
C244 O236 1.252 . S
O245 In234 2.294 . S
O245 C238 1.240 . S
O246 In234 2.326 . S
O246 C238 1.252 . S
In247 O248 2.294 . S
In247 O249 2.326 . S
In247 O253 2.266 . S
In247 O254 2.326 . S
In247 O255 2.266 . S
In247 O256 2.326 . S
In247 O258 2.294 . S
In247 O259 2.326 . S
O248 In247 2.294 . S
O248 C257 1.240 . S
O249 In247 2.326 . S
O249 C257 1.252 . S
C250 O253 1.252 . S
C250 O254 1.260 . S
C251 O258 1.240 . S
C251 O259 1.252 . S
C252 O255 1.252 . S
C252 O256 1.260 . S
O253 In247 2.266 . S
O253 C250 1.252 . S
O254 In247 2.326 . S
O254 C250 1.260 . S
O255 In247 2.266 . S
O255 C252 1.252 . S
O256 In247 2.326 . S
O256 C252 1.260 . S
C257 O248 1.240 . S
C257 O249 1.252 . S
O258 In247 2.294 . S
O258 C251 1.240 . S
O259 In247 2.326 . S
O259 C251 1.252 . S
In260 O261 2.294 . S
In260 O262 2.326 . S
In260 O266 2.266 . S
In260 O267 2.326 . S
In260 O268 2.266 . S
In260 O269 2.326 . S
In260 O271 2.294 . S
In260 O272 2.326 . S
O261 In260 2.294 . S
O261 C270 1.240 . S
O262 In260 2.326 . S
O262 C270 1.252 . S
C263 O266 1.252 . S
C263 O267 1.260 . S
C264 O271 1.240 . S
C264 O272 1.252 . S
C265 O268 1.252 . S
C265 O269 1.260 . S
O266 In260 2.266 . S
O266 C263 1.252 . S
O267 In260 2.326 . S
O267 C263 1.260 . S
O268 In260 2.266 . S
O268 C265 1.252 . S
O269 In260 2.326 . S
O269 C265 1.260 . S
C270 O261 1.240 . S
C270 O262 1.252 . S
O271 In260 2.294 . S
O271 C264 1.240 . S
O272 In260 2.326 . S
O272 C264 1.252 . S
In273 O274 2.294 . S
In273 O275 2.326 . S
In273 O279 2.266 . S
In273 O280 2.326 . S
In273 O281 2.266 . S
In273 O282 2.326 . S
In273 O284 2.294 . S
In273 O285 2.326 . S
O274 In273 2.294 . S
O274 C283 1.240 . S
O275 In273 2.326 . S
O275 C283 1.252 . S
C276 O279 1.252 . S
C276 O280 1.260 . S
C277 O284 1.240 . S
C277 O285 1.252 . S
C278 O281 1.252 . S
C278 O282 1.260 . S
O279 In273 2.266 . S
O279 C276 1.252 . S
O280 In273 2.326 . S
O280 C276 1.260 . S
O281 In273 2.266 . S
O281 C278 1.252 . S
O282 In273 2.326 . S
O282 C278 1.260 . S
C283 O274 1.240 . S
C283 O275 1.252 . S
O284 In273 2.294 . S
O284 C277 1.240 . S
O285 In273 2.326 . S
O285 C277 1.252 . S
In286 O287 2.294 . S
In286 O288 2.326 . S
In286 O292 2.266 . S
In286 O293 2.326 . S
In286 O294 2.266 . S
In286 O295 2.326 . S
In286 O297 2.294 . S
In286 O298 2.326 . S
O287 In286 2.294 . S
O287 C296 1.240 . S
O288 In286 2.326 . S
O288 C296 1.252 . S
C289 O292 1.252 . S
C289 O293 1.260 . S
C290 O297 1.240 . S
C290 O298 1.252 . S
C291 O294 1.252 . S
C291 O295 1.260 . S
O292 In286 2.266 . S
O292 C289 1.252 . S
O293 In286 2.326 . S
O293 C289 1.260 . S
O294 In286 2.266 . S
O294 C291 1.252 . S
O295 In286 2.326 . S
O295 C291 1.260 . S
C296 O287 1.240 . S
C296 O288 1.252 . S
O297 In286 2.294 . S
O297 C290 1.240 . S
O298 In286 2.326 . S
O298 C290 1.252 . S
In299 O300 2.294 . S
In299 O301 2.326 . S
In299 O305 2.266 . S
In299 O306 2.326 . S
In299 O307 2.266 . S
In299 O308 2.326 . S
In299 O310 2.294 . S
In299 O311 2.326 . S
O300 In299 2.294 . S
O300 C309 1.240 . S
O301 In299 2.326 . S
O301 C309 1.252 . S
C302 O305 1.252 . S
C302 O306 1.260 . S
C303 O310 1.240 . S
C303 O311 1.252 . S
C304 O307 1.252 . S
C304 O308 1.260 . S
O305 In299 2.266 . S
O305 C302 1.252 . S
O306 In299 2.326 . S
O306 C302 1.260 . S
O307 In299 2.266 . S
O307 C304 1.252 . S
O308 In299 2.326 . S
O308 C304 1.260 . S
C309 O300 1.240 . S
C309 O301 1.252 . S
O310 In299 2.294 . S
O310 C303 1.240 . S
O311 In299 2.326 . S
O311 C303 1.252 . S
In312 O313 2.294 . S
In312 O314 2.326 . S
In312 O318 2.266 . S
In312 O319 2.326 . S
In312 O320 2.266 . S
In312 O321 2.326 . S
In312 O323 2.294 . S
In312 O324 2.326 . S
O313 In312 2.294 . S
O313 C322 1.240 . S
O314 In312 2.326 . S
O314 C322 1.252 . S
C315 O318 1.252 . S
C315 O319 1.260 . S
C316 O323 1.240 . S
C316 O324 1.252 . S
C317 O320 1.252 . S
C317 O321 1.260 . S
O318 In312 2.266 . S
O318 C315 1.252 . S
O319 In312 2.326 . S
O319 C315 1.260 . S
O320 In312 2.266 . S
O320 C317 1.252 . S
O321 In312 2.326 . S
O321 C317 1.260 . S
C322 O313 1.240 . S
C322 O314 1.252 . S
O323 In312 2.294 . S
O323 C316 1.240 . S
O324 In312 2.326 . S
O324 C316 1.252 . S
In325 O326 2.294 . S
In325 O327 2.326 . S
In325 O331 2.266 . S
In325 O332 2.326 . S
In325 O333 2.266 . S
In325 O334 2.326 . S
In325 O336 2.294 . S
In325 O337 2.326 . S
O326 In325 2.294 . S
O326 C335 1.240 . S
O327 In325 2.326 . S
O327 C335 1.252 . S
C328 O331 1.252 . S
C328 O332 1.260 . S
C329 O336 1.240 . S
C329 O337 1.252 . S
C330 O333 1.252 . S
C330 O334 1.260 . S
O331 In325 2.266 . S
O331 C328 1.252 . S
O332 In325 2.326 . S
O332 C328 1.260 . S
O333 In325 2.266 . S
O333 C330 1.252 . S
O334 In325 2.326 . S
O334 C330 1.260 . S
C335 O326 1.240 . S
C335 O327 1.252 . S
O336 In325 2.294 . S
O336 C329 1.240 . S
O337 In325 2.326 . S
O337 C329 1.252 . S
In338 O339 2.294 . S
In338 O340 2.326 . S
In338 O344 2.266 . S
In338 O345 2.326 . S
In338 O346 2.266 . S
In338 O347 2.326 . S
In338 O349 2.294 . S
In338 O350 2.326 . S
O339 In338 2.294 . S
O339 C348 1.240 . S
O340 In338 2.326 . S
O340 C348 1.252 . S
C341 O344 1.252 . S
C341 O345 1.260 . S
C342 O349 1.240 . S
C342 O350 1.252 . S
C343 O346 1.252 . S
C343 O347 1.260 . S
O344 In338 2.266 . S
O344 C341 1.252 . S
O345 In338 2.326 . S
O345 C341 1.260 . S
O346 In338 2.266 . S
O346 C343 1.252 . S
O347 In338 2.326 . S
O347 C343 1.260 . S
C348 O339 1.240 . S
C348 O340 1.252 . S
O349 In338 2.294 . S
O349 C342 1.240 . S
O350 In338 2.326 . S
O350 C342 1.252 . S
In351 O352 2.294 . S
In351 O353 2.326 . S
In351 O357 2.266 . S
In351 O358 2.326 . S
In351 O359 2.266 . S
In351 O360 2.326 . S
In351 O362 2.294 . S
In351 O363 2.326 . S
O352 In351 2.294 . S
O352 C361 1.240 . S
O353 In351 2.326 . S
O353 C361 1.252 . S
C354 O357 1.252 . S
C354 O358 1.260 . S
C355 O362 1.240 . S
C355 O363 1.252 . S
C356 O359 1.252 . S
C356 O360 1.260 . S
O357 In351 2.266 . S
O357 C354 1.252 . S
O358 In351 2.326 . S
O358 C354 1.260 . S
O359 In351 2.266 . S
O359 C356 1.252 . S
O360 In351 2.326 . S
O360 C356 1.260 . S
C361 O352 1.240 . S
C361 O353 1.252 . S
O362 In351 2.294 . S
O362 C355 1.240 . S
O363 In351 2.326 . S
O363 C355 1.252 . S
In364 O365 2.294 . S
In364 O366 2.326 . S
In364 O370 2.266 . S
In364 O371 2.326 . S
In364 O372 2.266 . S
In364 O373 2.326 . S
In364 O375 2.294 . S
In364 O376 2.326 . S
O365 In364 2.294 . S
O365 C374 1.240 . S
O366 In364 2.326 . S
O366 C374 1.252 . S
C367 O370 1.252 . S
C367 O371 1.260 . S
C368 O375 1.240 . S
C368 O376 1.252 . S
C369 O372 1.252 . S
C369 O373 1.260 . S
O370 In364 2.266 . S
O370 C367 1.252 . S
O371 In364 2.326 . S
O371 C367 1.260 . S
O372 In364 2.266 . S
O372 C369 1.252 . S
O373 In364 2.326 . S
O373 C369 1.260 . S
C374 O365 1.240 . S
C374 O366 1.252 . S
O375 In364 2.294 . S
O375 C368 1.240 . S
O376 In364 2.326 . S
O376 C368 1.252 . S
In377 O378 2.294 . S
In377 O379 2.326 . S
In377 O383 2.266 . S
In377 O384 2.326 . S
In377 O385 2.266 . S
In377 O386 2.326 . S
In377 O388 2.294 . S
In377 O389 2.326 . S
O378 In377 2.294 . S
O378 C387 1.240 . S
O379 In377 2.326 . S
O379 C387 1.252 . S
C380 O383 1.252 . S
C380 O384 1.260 . S
C381 O388 1.240 . S
C381 O389 1.252 . S
C382 O385 1.252 . S
C382 O386 1.260 . S
O383 In377 2.266 . S
O383 C380 1.252 . S
O384 In377 2.326 . S
O384 C380 1.260 . S
O385 In377 2.266 . S
O385 C382 1.252 . S
O386 In377 2.326 . S
O386 C382 1.260 . S
C387 O378 1.240 . S
C387 O379 1.252 . S
O388 In377 2.294 . S
O388 C381 1.240 . S
O389 In377 2.326 . S
O389 C381 1.252 . S
In390 O391 2.294 . S
In390 O392 2.326 . S
In390 O396 2.266 . S
In390 O397 2.326 . S
In390 O398 2.266 . S
In390 O399 2.326 . S
In390 O401 2.294 . S
In390 O402 2.326 . S
O391 In390 2.294 . S
O391 C400 1.240 . S
O392 In390 2.326 . S
O392 C400 1.252 . S
C393 O396 1.252 . S
C393 O397 1.260 . S
C394 O401 1.240 . S
C394 O402 1.252 . S
C395 O398 1.252 . S
C395 O399 1.260 . S
O396 In390 2.266 . S
O396 C393 1.252 . S
O397 In390 2.326 . S
O397 C393 1.260 . S
O398 In390 2.266 . S
O398 C395 1.252 . S
O399 In390 2.326 . S
O399 C395 1.260 . S
C400 O391 1.240 . S
C400 O392 1.252 . S
O401 In390 2.294 . S
O401 C394 1.240 . S
O402 In390 2.326 . S
O402 C394 1.252 . S
In403 O404 2.294 . S
In403 O405 2.326 . S
In403 O409 2.266 . S
In403 O410 2.326 . S
In403 O411 2.266 . S
In403 O412 2.326 . S
In403 O414 2.294 . S
In403 O415 2.326 . S
O404 In403 2.294 . S
O404 C413 1.240 . S
O405 In403 2.326 . S
O405 C413 1.252 . S
C406 O409 1.252 . S
C406 O410 1.260 . S
C407 O414 1.240 . S
C407 O415 1.252 . S
C408 O411 1.252 . S
C408 O412 1.260 . S
O409 In403 2.266 . S
O409 C406 1.252 . S
O410 In403 2.326 . S
O410 C406 1.260 . S
O411 In403 2.266 . S
O411 C408 1.252 . S
O412 In403 2.326 . S
O412 C408 1.260 . S
C413 O404 1.240 . S
C413 O405 1.252 . S
O414 In403 2.294 . S
O414 C407 1.240 . S
O415 In403 2.326 . S
O415 C407 1.252 . S
H416 C434 0.951 . S
H417 C436 0.951 . S
H418 C438 0.950 . S
H419 C439 0.950 . S
H420 C441 0.950 . S
H421 C444 0.950 . S
H422 C445 0.950 . S
H423 C447 0.950 . S
H424 C448 0.950 . S
H425 C449 0.951 . S
H426 C451 0.951 . S
H427 C453 0.950 . S
H428 C454 0.950 . S
H429 C456 0.950 . S
H430 C459 0.950 . S
H431 C460 0.950 . S
H432 C462 0.950 . S
H433 C463 0.950 . S
C434 H416 0.951 . S
C434 C435 1.366 . S
C434 C436 1.388 . S
C435 C434 1.366 . S
C435 C439 1.385 . S
C436 H417 0.951 . S
C436 C434 1.388 . S
C436 C437 1.366 . S
C437 C436 1.366 . S
C437 C438 1.414 . S
C437 C440 1.499 . S
C438 H418 0.950 . S
C438 C437 1.414 . S
C438 C439 1.374 . S
C439 H419 0.950 . S
C439 C435 1.385 . S
C439 C438 1.374 . S
C440 C437 1.499 . S
C440 C441 1.373 . S
C440 C442 1.389 . S
C441 H420 0.950 . S
C441 C440 1.373 . S
C441 C457 1.377 . S
C442 C440 1.389 . S
C442 C443 1.524 . S
C442 C456 1.377 . S
C443 C442 1.524 . S
C443 C444 1.397 . S
C443 C448 1.363 . S
C444 H421 0.950 . S
C444 C443 1.397 . S
C444 C445 1.334 . S
C445 H422 0.950 . S
C445 C444 1.334 . S
C445 C446 1.287 . S
C446 C445 1.287 . S
C446 C447 1.524 . S
C446 H465 0.913 . S
C447 H423 0.950 . S
C447 C446 1.524 . S
C447 C448 1.415 . S
C448 H424 0.950 . S
C448 C443 1.363 . S
C448 C447 1.415 . S
C449 H425 0.951 . S
C449 C450 1.366 . S
C449 C451 1.388 . S
C450 C449 1.366 . S
C450 C454 1.385 . S
C451 H426 0.951 . S
C451 C449 1.388 . S
C451 C452 1.366 . S
C452 C451 1.366 . S
C452 C453 1.414 . S
C452 C455 1.499 . S
C453 H427 0.950 . S
C453 C452 1.414 . S
C453 C454 1.374 . S
C454 H428 0.950 . S
C454 C450 1.385 . S
C454 C453 1.374 . S
C455 C452 1.499 . S
C455 C456 1.373 . S
C455 C457 1.389 . S
C456 H429 0.950 . S
C456 C442 1.377 . S
C456 C455 1.373 . S
C457 C441 1.377 . S
C457 C455 1.389 . S
C457 C458 1.524 . S
C458 C457 1.524 . S
C458 C459 1.397 . S
C458 C463 1.363 . S
C459 H430 0.950 . S
C459 C458 1.397 . S
C459 C460 1.334 . S
C460 H431 0.950 . S
C460 C459 1.334 . S
C460 C461 1.287 . S
C461 C460 1.287 . S
C461 C462 1.524 . S
C461 H464 0.999 . S
C462 H432 0.950 . S
C462 C461 1.524 . S
C462 C463 1.415 . S
C463 H433 0.950 . S
C463 C458 1.363 . S
C463 C462 1.415 . S
H464 C461 0.999 . S
H465 C446 0.913 . S
H466 C484 0.951 . S
H467 C486 0.951 . S
H468 C488 0.950 . S
H469 C489 0.950 . S
H470 C491 0.950 . S
H471 C494 0.950 . S
H472 C495 0.950 . S
H473 C497 0.950 . S
H474 C498 0.950 . S
H475 C499 0.951 . S
H476 C501 0.951 . S
H477 C503 0.950 . S
H478 C504 0.950 . S
H479 C506 0.950 . S
H480 C509 0.950 . S
H481 C510 0.950 . S
H482 C512 0.950 . S
H483 C513 0.950 . S
C484 H466 0.951 . S
C484 C485 1.366 . S
C484 C486 1.388 . S
C485 C484 1.366 . S
C485 C489 1.385 . S
C486 H467 0.951 . S
C486 C484 1.388 . S
C486 C487 1.366 . S
C487 C486 1.366 . S
C487 C488 1.414 . S
C487 C490 1.499 . S
C488 H468 0.950 . S
C488 C487 1.414 . S
C488 C489 1.374 . S
C489 H469 0.950 . S
C489 C485 1.385 . S
C489 C488 1.374 . S
C490 C487 1.499 . S
C490 C491 1.373 . S
C490 C492 1.389 . S
C491 H470 0.950 . S
C491 C490 1.373 . S
C491 C507 1.377 1_565 S
C492 C490 1.389 . S
C492 C493 1.524 . S
C492 C506 1.377 1_565 S
C493 C492 1.524 . S
C493 C494 1.397 . S
C493 C498 1.363 1_565 S
C494 H471 0.950 . S
C494 C493 1.397 . S
C494 C495 1.334 . S
C495 H472 0.950 . S
C495 C494 1.334 . S
C495 C496 1.287 . S
C496 C495 1.287 . S
C496 C497 1.524 1_565 S
C496 H515 0.913 . S
C497 H473 0.950 . S
C497 C496 1.524 1_545 S
C497 C498 1.415 . S
C498 H474 0.950 . S
C498 C493 1.363 1_545 S
C498 C497 1.415 . S
C499 H475 0.951 . S
C499 C500 1.366 . S
C499 C501 1.388 . S
C500 C499 1.366 . S
C500 C504 1.385 . S
C501 H476 0.951 . S
C501 C499 1.388 . S
C501 C502 1.366 . S
C502 C501 1.366 . S
C502 C503 1.414 . S
C502 C505 1.499 . S
C503 H477 0.950 . S
C503 C502 1.414 . S
C503 C504 1.374 . S
C504 H478 0.950 . S
C504 C500 1.385 . S
C504 C503 1.374 . S
C505 C502 1.499 . S
C505 C506 1.373 . S
C505 C507 1.389 . S
C506 H479 0.950 . S
C506 C492 1.377 1_545 S
C506 C505 1.373 . S
C507 C491 1.377 1_545 S
C507 C505 1.389 . S
C507 C508 1.524 . S
C508 C507 1.524 . S
C508 C509 1.397 . S
C508 C513 1.363 1_545 S
C509 H480 0.950 . S
C509 C508 1.397 . S
C509 C510 1.334 . S
C510 H481 0.950 . S
C510 C509 1.334 . S
C510 C511 1.287 . S
C511 C510 1.287 . S
C511 C512 1.524 1_545 S
C511 H514 0.999 . S
C512 H482 0.950 . S
C512 C511 1.524 1_565 S
C512 C513 1.415 . S
C513 H483 0.950 . S
C513 C508 1.363 1_565 S
C513 C512 1.415 . S
H514 C511 0.999 . S
H515 C496 0.913 . S
H516 C534 0.951 . S
H517 C536 0.951 . S
H518 C538 0.950 . S
H519 C539 0.950 . S
H520 C541 0.950 . S
H521 C544 0.950 . S
H522 C545 0.950 . S
H523 C547 0.950 . S
H524 C548 0.950 . S
H525 C549 0.951 . S
H526 C551 0.951 . S
H527 C553 0.950 . S
H528 C554 0.950 . S
H529 C556 0.950 . S
H530 C559 0.950 . S
H531 C560 0.950 . S
H532 C562 0.950 . S
H533 C563 0.950 . S
C534 H516 0.951 . S
C534 C535 1.366 . S
C534 C536 1.388 . S
C535 C534 1.366 . S
C535 C539 1.385 . S
C536 H517 0.951 . S
C536 C534 1.388 . S
C536 C537 1.366 . S
C537 C536 1.366 . S
C537 C538 1.414 . S
C537 C540 1.499 . S
C538 H518 0.950 . S
C538 C537 1.414 . S
C538 C539 1.374 . S
C539 H519 0.950 . S
C539 C535 1.385 . S
C539 C538 1.374 . S
C540 C537 1.499 . S
C540 C541 1.373 . S
C540 C542 1.389 . S
C541 H520 0.950 . S
C541 C540 1.373 . S
C541 C557 1.377 . S
C542 C540 1.389 . S
C542 C543 1.524 . S
C542 C556 1.377 . S
C543 C542 1.524 . S
C543 C544 1.397 . S
C543 C548 1.363 . S
C544 H521 0.950 . S
C544 C543 1.397 . S
C544 C545 1.334 . S
C545 H522 0.950 . S
C545 C544 1.334 . S
C545 C546 1.287 . S
C546 C545 1.287 . S
C546 C547 1.524 . S
C546 H565 0.913 . S
C547 H523 0.950 . S
C547 C546 1.524 . S
C547 C548 1.415 . S
C548 H524 0.950 . S
C548 C543 1.363 . S
C548 C547 1.415 . S
C549 H525 0.951 . S
C549 C550 1.366 . S
C549 C551 1.388 . S
C550 C549 1.366 . S
C550 C554 1.385 . S
C551 H526 0.951 . S
C551 C549 1.388 . S
C551 C552 1.366 . S
C552 C551 1.366 . S
C552 C553 1.414 . S
C552 C555 1.499 . S
C553 H527 0.950 . S
C553 C552 1.414 . S
C553 C554 1.374 . S
C554 H528 0.950 . S
C554 C550 1.385 . S
C554 C553 1.374 . S
C555 C552 1.499 . S
C555 C556 1.373 . S
C555 C557 1.389 . S
C556 H529 0.950 . S
C556 C542 1.377 . S
C556 C555 1.373 . S
C557 C541 1.377 . S
C557 C555 1.389 . S
C557 C558 1.524 . S
C558 C557 1.524 . S
C558 C559 1.397 . S
C558 C563 1.363 . S
C559 H530 0.950 . S
C559 C558 1.397 . S
C559 C560 1.334 . S
C560 H531 0.950 . S
C560 C559 1.334 . S
C560 C561 1.287 . S
C561 C560 1.287 . S
C561 C562 1.524 . S
C561 H564 0.999 . S
C562 H532 0.950 . S
C562 C561 1.524 . S
C562 C563 1.415 . S
C563 H533 0.950 . S
C563 C558 1.363 . S
C563 C562 1.415 . S
H564 C561 0.999 . S
H565 C546 0.913 . S
H566 C584 0.951 . S
H567 C586 0.951 . S
H568 C588 0.950 . S
H569 C589 0.950 . S
H570 C591 0.950 . S
H571 C594 0.950 . S
H572 C595 0.950 . S
H573 C597 0.950 . S
H574 C598 0.950 . S
H575 C599 0.951 . S
H576 C601 0.951 . S
H577 C603 0.950 . S
H578 C604 0.950 . S
H579 C606 0.950 . S
H580 C609 0.950 . S
H581 C610 0.950 . S
H582 C612 0.950 . S
H583 C613 0.950 . S
C584 H566 0.951 . S
C584 C585 1.366 . S
C584 C586 1.388 . S
C585 C584 1.366 . S
C585 C589 1.385 . S
C586 H567 0.951 . S
C586 C584 1.388 . S
C586 C587 1.366 . S
C587 C586 1.366 . S
C587 C588 1.414 . S
C587 C590 1.499 . S
C588 H568 0.950 . S
C588 C587 1.414 . S
C588 C589 1.374 . S
C589 H569 0.950 . S
C589 C585 1.385 . S
C589 C588 1.374 . S
C590 C587 1.499 . S
C590 C591 1.373 . S
C590 C592 1.389 1_556 S
C591 H570 0.950 . S
C591 C590 1.373 . S
C591 C607 1.377 1_545 S
C592 C590 1.389 1_554 S
C592 C593 1.524 . S
C592 C606 1.377 1_545 S
C593 C592 1.524 . S
C593 C594 1.397 . S
C593 C598 1.363 . S
C594 H571 0.950 . S
C594 C593 1.397 . S
C594 C595 1.334 . S
C595 H572 0.950 . S
C595 C594 1.334 . S
C595 C596 1.287 . S
C596 C595 1.287 . S
C596 C597 1.524 . S
C596 H615 0.913 . S
C597 H573 0.950 . S
C597 C596 1.524 . S
C597 C598 1.415 . S
C598 H574 0.950 . S
C598 C593 1.363 . S
C598 C597 1.415 . S
C599 H575 0.951 . S
C599 C600 1.366 . S
C599 C601 1.388 . S
C600 C599 1.366 . S
C600 C604 1.385 . S
C601 H576 0.951 . S
C601 C599 1.388 . S
C601 C602 1.366 . S
C602 C601 1.366 . S
C602 C603 1.414 . S
C602 C605 1.499 . S
C603 H577 0.950 . S
C603 C602 1.414 . S
C603 C604 1.374 . S
C604 H578 0.950 . S
C604 C600 1.385 . S
C604 C603 1.374 . S
C605 C602 1.499 . S
C605 C606 1.373 . S
C605 C607 1.389 1_554 S
C606 H579 0.950 . S
C606 C592 1.377 1_565 S
C606 C605 1.373 . S
C607 C591 1.377 1_565 S
C607 C605 1.389 1_556 S
C607 C608 1.524 . S
C608 C607 1.524 . S
C608 C609 1.397 . S
C608 C613 1.363 . S
C609 H580 0.950 . S
C609 C608 1.397 . S
C609 C610 1.334 . S
C610 H581 0.950 . S
C610 C609 1.334 . S
C610 C611 1.287 . S
C611 C610 1.287 . S
C611 C612 1.524 . S
C611 H614 0.999 . S
C612 H582 0.950 . S
C612 C611 1.524 . S
C612 C613 1.415 . S
C613 H583 0.950 . S
C613 C608 1.363 . S
C613 C612 1.415 . S
H614 C611 0.999 . S
H615 C596 0.913 . S
H616 C634 0.951 . S
H617 C636 0.951 . S
H618 C638 0.950 . S
H619 C639 0.950 . S
H620 C641 0.950 . S
H621 C644 0.950 . S
H622 C645 0.950 . S
H623 C647 0.950 . S
H624 C648 0.950 . S
H625 C649 0.951 . S
H626 C651 0.951 . S
H627 C653 0.950 . S
H628 C654 0.950 . S
H629 C656 0.950 . S
H630 C659 0.950 . S
H631 C660 0.950 . S
H632 C662 0.950 . S
H633 C663 0.950 . S
C634 H616 0.951 . S
C634 C635 1.366 . S
C634 C636 1.388 . S
C635 C634 1.366 . S
C635 C639 1.385 . S
C636 H617 0.951 . S
C636 C634 1.388 . S
C636 C637 1.366 . S
C637 C636 1.366 . S
C637 C638 1.414 . S
C637 C640 1.499 . S
C638 H618 0.950 . S
C638 C637 1.414 . S
C638 C639 1.374 . S
C639 H619 0.950 . S
C639 C635 1.385 . S
C639 C638 1.374 . S
C640 C637 1.499 . S
C640 C641 1.373 . S
C640 C642 1.389 . S
C641 H620 0.950 . S
C641 C640 1.373 . S
C641 C657 1.377 . S
C642 C640 1.389 . S
C642 C643 1.524 . S
C642 C656 1.377 . S
C643 C642 1.524 . S
C643 C644 1.397 . S
C643 C648 1.363 . S
C644 H621 0.950 . S
C644 C643 1.397 . S
C644 C645 1.334 . S
C645 H622 0.950 . S
C645 C644 1.334 . S
C645 C646 1.287 . S
C646 C645 1.287 . S
C646 C647 1.524 . S
C646 H665 0.913 . S
C647 H623 0.950 . S
C647 C646 1.524 . S
C647 C648 1.415 . S
C648 H624 0.950 . S
C648 C643 1.363 . S
C648 C647 1.415 . S
C649 H625 0.951 . S
C649 C650 1.366 . S
C649 C651 1.388 . S
C650 C649 1.366 . S
C650 C654 1.385 . S
C651 H626 0.951 . S
C651 C649 1.388 . S
C651 C652 1.366 . S
C652 C651 1.366 . S
C652 C653 1.414 . S
C652 C655 1.499 . S
C653 H627 0.950 . S
C653 C652 1.414 . S
C653 C654 1.374 . S
C654 H628 0.950 . S
C654 C650 1.385 . S
C654 C653 1.374 . S
C655 C652 1.499 . S
C655 C656 1.373 . S
C655 C657 1.389 . S
C656 H629 0.950 . S
C656 C642 1.377 . S
C656 C655 1.373 . S
C657 C641 1.377 . S
C657 C655 1.389 . S
C657 C658 1.524 . S
C658 C657 1.524 . S
C658 C659 1.397 . S
C658 C663 1.363 . S
C659 H630 0.950 . S
C659 C658 1.397 . S
C659 C660 1.334 . S
C660 H631 0.950 . S
C660 C659 1.334 . S
C660 C661 1.287 . S
C661 C660 1.287 . S
C661 C662 1.524 . S
C661 H664 0.999 . S
C662 H632 0.950 . S
C662 C661 1.524 . S
C662 C663 1.415 . S
C663 H633 0.950 . S
C663 C658 1.363 . S
C663 C662 1.415 . S
H664 C661 0.999 . S
H665 C646 0.913 . S
H666 C684 0.951 . S
H667 C686 0.951 . S
H668 C688 0.950 . S
H669 C689 0.950 . S
H670 C691 0.950 . S
H671 C694 0.950 . S
H672 C695 0.950 . S
H673 C697 0.950 . S
H674 C698 0.950 1_545 S
H675 C699 0.951 . S
H676 C701 0.951 . S
H677 C703 0.950 . S
H678 C704 0.950 . S
H679 C706 0.950 . S
H680 C709 0.950 . S
H681 C710 0.950 . S
H682 C712 0.950 . S
H683 C713 0.950 1_565 S
C684 H666 0.951 . S
C684 C685 1.366 . S
C684 C686 1.388 . S
C685 C684 1.366 . S
C685 C689 1.385 . S
C686 H667 0.951 . S
C686 C684 1.388 . S
C686 C687 1.366 . S
C687 C686 1.366 . S
C687 C688 1.414 . S
C687 C690 1.499 . S
C688 H668 0.950 . S
C688 C687 1.414 . S
C688 C689 1.374 . S
C689 H669 0.950 . S
C689 C685 1.385 . S
C689 C688 1.374 . S
C690 C687 1.499 . S
C690 C691 1.373 . S
C690 C692 1.389 . S
C691 H670 0.950 . S
C691 C690 1.373 . S
C691 C707 1.377 1_565 S
C692 C690 1.389 . S
C692 C693 1.524 . S
C692 C706 1.377 1_565 S
C693 C692 1.524 . S
C693 C694 1.397 . S
C693 C698 1.363 . S
C694 H671 0.950 . S
C694 C693 1.397 . S
C694 C695 1.334 . S
C695 H672 0.950 . S
C695 C694 1.334 . S
C695 C696 1.287 . S
C696 C695 1.287 . S
C696 C697 1.524 . S
C696 H715 0.913 . S
C697 H673 0.950 . S
C697 C696 1.524 . S
C697 C698 1.415 . S
C698 H674 0.950 1_565 S
C698 C693 1.363 . S
C698 C697 1.415 . S
C699 H675 0.951 . S
C699 C700 1.366 . S
C699 C701 1.388 . S
C700 C699 1.366 . S
C700 C704 1.385 . S
C701 H676 0.951 . S
C701 C699 1.388 . S
C701 C702 1.366 . S
C702 C701 1.366 . S
C702 C703 1.414 . S
C702 C705 1.499 . S
C703 H677 0.950 . S
C703 C702 1.414 . S
C703 C704 1.374 . S
C704 H678 0.950 . S
C704 C700 1.385 . S
C704 C703 1.374 . S
C705 C702 1.499 . S
C705 C706 1.373 . S
C705 C707 1.389 . S
C706 H679 0.950 . S
C706 C692 1.377 1_545 S
C706 C705 1.373 . S
C707 C691 1.377 1_545 S
C707 C705 1.389 . S
C707 C708 1.524 . S
C708 C707 1.524 . S
C708 C709 1.397 . S
C708 C713 1.363 . S
C709 H680 0.950 . S
C709 C708 1.397 . S
C709 C710 1.334 . S
C710 H681 0.950 . S
C710 C709 1.334 . S
C710 C711 1.287 . S
C711 C710 1.287 . S
C711 C712 1.524 . S
C711 H714 0.999 . S
C712 H682 0.950 . S
C712 C711 1.524 . S
C712 C713 1.415 . S
C713 H683 0.950 1_545 S
C713 C708 1.363 . S
C713 C712 1.415 . S
H714 C711 0.999 . S
H715 C696 0.913 . S
H716 C734 0.951 . S
H717 C736 0.951 . S
H718 C738 0.950 . S
H719 C739 0.950 . S
H720 C741 0.950 . S
H721 C744 0.950 . S
H722 C745 0.950 . S
H723 C747 0.950 . S
H724 C748 0.950 . S
H725 C749 0.951 . S
H726 C751 0.951 . S
H727 C753 0.950 . S
H728 C754 0.950 . S
H729 C756 0.950 . S
H730 C759 0.950 . S
H731 C760 0.950 . S
H732 C762 0.950 . S
H733 C763 0.950 . S
C734 H716 0.951 . S
C734 C735 1.366 . S
C734 C736 1.388 . S
C735 C734 1.366 . S
C735 C739 1.385 . S
C736 H717 0.951 . S
C736 C734 1.388 . S
C736 C737 1.366 . S
C737 C736 1.366 . S
C737 C738 1.414 . S
C737 C740 1.499 . S
C738 H718 0.950 . S
C738 C737 1.414 . S
C738 C739 1.374 . S
C739 H719 0.950 . S
C739 C735 1.385 . S
C739 C738 1.374 . S
C740 C737 1.499 . S
C740 C741 1.373 . S
C740 C742 1.389 . S
C741 H720 0.950 . S
C741 C740 1.373 . S
C741 C757 1.377 . S
C742 C740 1.389 . S
C742 C743 1.524 . S
C742 C756 1.377 . S
C743 C742 1.524 . S
C743 C744 1.397 . S
C743 C748 1.363 . S
C744 H721 0.950 . S
C744 C743 1.397 . S
C744 C745 1.334 . S
C745 H722 0.950 . S
C745 C744 1.334 . S
C745 C746 1.287 . S
C746 C745 1.287 . S
C746 C747 1.524 . S
C746 H765 0.913 . S
C747 H723 0.950 . S
C747 C746 1.524 . S
C747 C748 1.415 . S
C748 H724 0.950 . S
C748 C743 1.363 . S
C748 C747 1.415 . S
C749 H725 0.951 . S
C749 C750 1.366 . S
C749 C751 1.388 . S
C750 C749 1.366 . S
C750 C754 1.385 . S
C751 H726 0.951 . S
C751 C749 1.388 . S
C751 C752 1.366 . S
C752 C751 1.366 . S
C752 C753 1.414 . S
C752 C755 1.499 . S
C753 H727 0.950 . S
C753 C752 1.414 . S
C753 C754 1.374 . S
C754 H728 0.950 . S
C754 C750 1.385 . S
C754 C753 1.374 . S
C755 C752 1.499 . S
C755 C756 1.373 . S
C755 C757 1.389 . S
C756 H729 0.950 . S
C756 C742 1.377 . S
C756 C755 1.373 . S
C757 C741 1.377 . S
C757 C755 1.389 . S
C757 C758 1.524 . S
C758 C757 1.524 . S
C758 C759 1.397 . S
C758 C763 1.363 . S
C759 H730 0.950 . S
C759 C758 1.397 . S
C759 C760 1.334 . S
C760 H731 0.950 . S
C760 C759 1.334 . S
C760 C761 1.287 . S
C761 C760 1.287 . S
C761 C762 1.524 . S
C761 H764 0.999 . S
C762 H732 0.950 . S
C762 C761 1.524 . S
C762 C763 1.415 . S
C763 H733 0.950 . S
C763 C758 1.363 . S
C763 C762 1.415 . S
H764 C761 0.999 . S
H765 C746 0.913 . S
H766 C784 0.951 . S
H767 C786 0.951 . S
H768 C788 0.950 . S
H769 C789 0.950 . S
H770 C791 0.950 . S
H771 C794 0.950 . S
H772 C795 0.950 . S
H773 C797 0.950 . S
H774 C798 0.950 . S
H775 C799 0.951 . S
H776 C801 0.951 . S
H777 C803 0.950 . S
H778 C804 0.950 . S
H779 C806 0.950 . S
H780 C809 0.950 . S
H781 C810 0.950 . S
H782 C812 0.950 . S
H783 C813 0.950 . S
C784 H766 0.951 . S
C784 C785 1.366 . S
C784 C786 1.388 . S
C785 C784 1.366 . S
C785 C789 1.385 . S
C786 H767 0.951 . S
C786 C784 1.388 . S
C786 C787 1.366 . S
C787 C786 1.366 . S
C787 C788 1.414 . S
C787 C790 1.499 . S
C788 H768 0.950 . S
C788 C787 1.414 . S
C788 C789 1.374 . S
C789 H769 0.950 . S
C789 C785 1.385 . S
C789 C788 1.374 . S
C790 C787 1.499 . S
C790 C791 1.373 1_556 S
C790 C792 1.389 . S
C791 H770 0.950 . S
C791 C790 1.373 1_554 S
C791 C807 1.377 1_545 S
C792 C790 1.389 . S
C792 C793 1.524 . S
C792 C806 1.377 1_545 S
C793 C792 1.524 . S
C793 C794 1.397 . S
C793 C798 1.363 1_545 S
C794 H771 0.950 . S
C794 C793 1.397 . S
C794 C795 1.334 . S
C795 H772 0.950 . S
C795 C794 1.334 . S
C795 C796 1.287 . S
C796 C795 1.287 . S
C796 C797 1.524 1_545 S
C796 H815 0.913 . S
C797 H773 0.950 . S
C797 C796 1.524 1_565 S
C797 C798 1.415 . S
C798 H774 0.950 . S
C798 C793 1.363 1_565 S
C798 C797 1.415 . S
C799 H775 0.951 . S
C799 C800 1.366 . S
C799 C801 1.388 . S
C800 C799 1.366 . S
C800 C804 1.385 . S
C801 H776 0.951 . S
C801 C799 1.388 . S
C801 C802 1.366 . S
C802 C801 1.366 . S
C802 C803 1.414 . S
C802 C805 1.499 . S
C803 H777 0.950 . S
C803 C802 1.414 . S
C803 C804 1.374 . S
C804 H778 0.950 . S
C804 C800 1.385 . S
C804 C803 1.374 . S
C805 C802 1.499 . S
C805 C806 1.373 1_554 S
C805 C807 1.389 . S
C806 H779 0.950 . S
C806 C792 1.377 1_565 S
C806 C805 1.373 1_556 S
C807 C791 1.377 1_565 S
C807 C805 1.389 . S
C807 C808 1.524 . S
C808 C807 1.524 . S
C808 C809 1.397 . S
C808 C813 1.363 1_565 S
C809 H780 0.950 . S
C809 C808 1.397 . S
C809 C810 1.334 . S
C810 H781 0.950 . S
C810 C809 1.334 . S
C810 C811 1.287 . S
C811 C810 1.287 . S
C811 C812 1.524 1_565 S
C811 H814 0.999 . S
C812 H782 0.950 . S
C812 C811 1.524 1_545 S
C812 C813 1.415 . S
C813 H783 0.950 . S
C813 C808 1.363 1_545 S
C813 C812 1.415 . S
H814 C811 0.999 . S
H815 C796 0.913 . S
H816 C834 0.951 . S
H817 C836 0.951 . S
H818 C838 0.950 . S
H819 C839 0.950 . S
H820 C841 0.950 . S
H821 C844 0.950 . S
H822 C845 0.950 . S
H823 C847 0.950 . S
H824 C848 0.950 . S
H825 C849 0.951 . S
H826 C851 0.951 . S
H827 C853 0.950 . S
H828 C854 0.950 . S
H829 C856 0.950 . S
H830 C859 0.950 . S
H831 C860 0.950 . S
H832 C862 0.950 . S
H833 C863 0.950 . S
C834 H816 0.951 . S
C834 C835 1.366 . S
C834 C836 1.388 . S
C835 C834 1.366 . S
C835 C839 1.385 . S
C836 H817 0.951 . S
C836 C834 1.388 . S
C836 C837 1.366 . S
C837 C836 1.366 . S
C837 C838 1.414 . S
C837 C840 1.499 . S
C838 H818 0.950 . S
C838 C837 1.414 . S
C838 C839 1.374 . S
C839 H819 0.950 . S
C839 C835 1.385 . S
C839 C838 1.374 . S
C840 C837 1.499 . S
C840 C841 1.373 . S
C840 C842 1.389 . S
C841 H820 0.950 . S
C841 C840 1.373 . S
C841 C857 1.377 . S
C842 C840 1.389 . S
C842 C843 1.524 . S
C842 C856 1.377 . S
C843 C842 1.524 . S
C843 C844 1.397 . S
C843 C848 1.363 . S
C844 H821 0.950 . S
C844 C843 1.397 . S
C844 C845 1.334 . S
C845 H822 0.950 . S
C845 C844 1.334 . S
C845 C846 1.287 . S
C846 C845 1.287 . S
C846 C847 1.524 . S
C846 H865 0.913 . S
C847 H823 0.950 . S
C847 C846 1.524 . S
C847 C848 1.415 . S
C848 H824 0.950 . S
C848 C843 1.363 . S
C848 C847 1.415 . S
C849 H825 0.951 . S
C849 C850 1.366 . S
C849 C851 1.388 . S
C850 C849 1.366 . S
C850 C854 1.385 . S
C851 H826 0.951 . S
C851 C849 1.388 . S
C851 C852 1.366 . S
C852 C851 1.366 . S
C852 C853 1.414 . S
C852 C855 1.499 . S
C853 H827 0.950 . S
C853 C852 1.414 . S
C853 C854 1.374 . S
C854 H828 0.950 . S
C854 C850 1.385 . S
C854 C853 1.374 . S
C855 C852 1.499 . S
C855 C856 1.373 . S
C855 C857 1.389 . S
C856 H829 0.950 . S
C856 C842 1.377 . S
C856 C855 1.373 . S
C857 C841 1.377 . S
C857 C855 1.389 . S
C857 C858 1.524 . S
C858 C857 1.524 . S
C858 C859 1.397 . S
C858 C863 1.363 . S
C859 H830 0.950 . S
C859 C858 1.397 . S
C859 C860 1.334 . S
C860 H831 0.950 . S
C860 C859 1.334 . S
C860 C861 1.287 . S
C861 C860 1.287 . S
C861 C862 1.524 . S
C861 H864 0.999 . S
C862 H832 0.950 . S
C862 C861 1.524 . S
C862 C863 1.415 . S
C863 H833 0.950 . S
C863 C858 1.363 . S
C863 C862 1.415 . S
H864 C861 0.999 . S
H865 C846 0.913 . S
H866 C884 0.951 . S
H867 C886 0.951 . S
H868 C888 0.950 . S
H869 C889 0.950 . S
H870 C891 0.950 . S
H871 C894 0.950 . S
H872 C895 0.950 . S
H873 C897 0.950 . S
H874 C898 0.950 . S
H875 C899 0.951 . S
H876 C901 0.951 . S
H877 C903 0.950 . S
H878 C904 0.950 . S
H879 C906 0.950 . S
H880 C909 0.950 . S
H881 C910 0.950 . S
H882 C912 0.950 . S
H883 C913 0.950 . S
C884 H866 0.951 . S
C884 C885 1.366 . S
C884 C886 1.388 . S
C885 C884 1.366 . S
C885 C889 1.385 . S
C886 H867 0.951 . S
C886 C884 1.388 . S
C886 C887 1.366 . S
C887 C886 1.366 . S
C887 C888 1.414 . S
C887 C890 1.499 . S
C888 H868 0.950 . S
C888 C887 1.414 . S
C888 C889 1.374 . S
C889 H869 0.950 . S
C889 C885 1.385 . S
C889 C888 1.374 . S
C890 C887 1.499 . S
C890 C891 1.373 1_556 S
C890 C892 1.389 . S
C891 H870 0.950 . S
C891 C890 1.373 1_554 S
C891 C907 1.377 . S
C892 C890 1.389 . S
C892 C893 1.524 . S
C892 C906 1.377 . S
C893 C892 1.524 . S
C893 C894 1.397 . S
C893 C898 1.363 . S
C894 H871 0.950 . S
C894 C893 1.397 . S
C894 C895 1.334 . S
C895 H872 0.950 . S
C895 C894 1.334 . S
C895 C896 1.287 . S
C896 C895 1.287 . S
C896 C897 1.524 . S
C896 H915 0.913 . S
C897 H873 0.950 . S
C897 C896 1.524 . S
C897 C898 1.415 . S
C898 H874 0.950 . S
C898 C893 1.363 . S
C898 C897 1.415 . S
C899 H875 0.951 . S
C899 C900 1.366 . S
C899 C901 1.388 . S
C900 C899 1.366 . S
C900 C904 1.385 . S
C901 H876 0.951 . S
C901 C899 1.388 . S
C901 C902 1.366 . S
C902 C901 1.366 . S
C902 C903 1.414 . S
C902 C905 1.499 . S
C903 H877 0.950 . S
C903 C902 1.414 . S
C903 C904 1.374 . S
C904 H878 0.950 . S
C904 C900 1.385 . S
C904 C903 1.374 . S
C905 C902 1.499 . S
C905 C906 1.373 1_554 S
C905 C907 1.389 . S
C906 H879 0.950 . S
C906 C892 1.377 . S
C906 C905 1.373 1_556 S
C907 C891 1.377 . S
C907 C905 1.389 . S
C907 C908 1.524 . S
C908 C907 1.524 . S
C908 C909 1.397 . S
C908 C913 1.363 . S
C909 H880 0.950 . S
C909 C908 1.397 . S
C909 C910 1.334 . S
C910 H881 0.950 . S
C910 C909 1.334 . S
C910 C911 1.287 . S
C911 C910 1.287 . S
C911 C912 1.524 . S
C911 H914 0.999 . S
C912 H882 0.950 . S
C912 C911 1.524 . S
C912 C913 1.415 . S
C913 H883 0.950 . S
C913 C908 1.363 . S
C913 C912 1.415 . S
H914 C911 0.999 . S
H915 C896 0.913 . S
H916 C934 0.951 . S
H917 C936 0.951 . S
H918 C938 0.950 . S
H919 C939 0.950 . S
H920 C941 0.950 . S
H921 C944 0.950 . S
H922 C945 0.950 . S
H923 C947 0.950 . S
H924 C948 0.950 . S
H925 C949 0.951 . S
H926 C951 0.951 . S
H927 C953 0.950 . S
H928 C954 0.950 . S
H929 C956 0.950 . S
H930 C959 0.950 . S
H931 C960 0.950 . S
H932 C962 0.950 . S
H933 C963 0.950 . S
C934 H916 0.951 . S
C934 C935 1.366 . S
C934 C936 1.388 . S
C935 C934 1.366 . S
C935 C939 1.385 . S
C936 H917 0.951 . S
C936 C934 1.388 . S
C936 C937 1.366 . S
C937 C936 1.366 . S
C937 C938 1.414 . S
C937 C940 1.499 . S
C938 H918 0.950 . S
C938 C937 1.414 . S
C938 C939 1.374 . S
C939 H919 0.950 . S
C939 C935 1.385 . S
C939 C938 1.374 . S
C940 C937 1.499 . S
C940 C941 1.373 . S
C940 C942 1.389 . S
C941 H920 0.950 . S
C941 C940 1.373 . S
C941 C957 1.377 . S
C942 C940 1.389 . S
C942 C943 1.524 . S
C942 C956 1.377 . S
C943 C942 1.524 . S
C943 C944 1.397 . S
C943 C948 1.363 . S
C944 H921 0.950 . S
C944 C943 1.397 . S
C944 C945 1.334 . S
C945 H922 0.950 . S
C945 C944 1.334 . S
C945 C946 1.287 . S
C946 C945 1.287 . S
C946 C947 1.524 . S
C946 H965 0.913 . S
C947 H923 0.950 . S
C947 C946 1.524 . S
C947 C948 1.415 . S
C948 H924 0.950 . S
C948 C943 1.363 . S
C948 C947 1.415 . S
C949 H925 0.951 . S
C949 C950 1.366 . S
C949 C951 1.388 . S
C950 C949 1.366 . S
C950 C954 1.385 . S
C951 H926 0.951 . S
C951 C949 1.388 . S
C951 C952 1.366 . S
C952 C951 1.366 . S
C952 C953 1.414 . S
C952 C955 1.499 . S
C953 H927 0.950 . S
C953 C952 1.414 . S
C953 C954 1.374 . S
C954 H928 0.950 . S
C954 C950 1.385 . S
C954 C953 1.374 . S
C955 C952 1.499 . S
C955 C956 1.373 . S
C955 C957 1.389 . S
C956 H929 0.950 . S
C956 C942 1.377 . S
C956 C955 1.373 . S
C957 C941 1.377 . S
C957 C955 1.389 . S
C957 C958 1.524 . S
C958 C957 1.524 . S
C958 C959 1.397 . S
C958 C963 1.363 . S
C959 H930 0.950 . S
C959 C958 1.397 . S
C959 C960 1.334 . S
C960 H931 0.950 . S
C960 C959 1.334 . S
C960 C961 1.287 . S
C961 C960 1.287 . S
C961 C962 1.524 . S
C961 H964 0.999 . S
C962 H932 0.950 . S
C962 C961 1.524 . S
C962 C963 1.415 . S
C963 H933 0.950 . S
C963 C958 1.363 . S
C963 C962 1.415 . S
H964 C961 0.999 . S
H965 C946 0.913 . S
H966 C984 0.951 . S
H967 C986 0.951 . S
H968 C988 0.950 . S
H969 C989 0.950 . S
H970 C991 0.950 . S
H971 C994 0.950 . S
H972 C995 0.950 . S
H973 C997 0.950 . S
H974 C998 0.950 . S
H975 C999 0.951 . S
H976 C1001 0.951 . S
H977 C1003 0.950 . S
H978 C1004 0.950 . S
H979 C1006 0.950 . S
H980 C1009 0.950 . S
H981 C1010 0.950 . S
H982 C1012 0.950 . S
H983 C1013 0.950 . S
C984 H966 0.951 . S
C984 C985 1.366 . S
C984 C986 1.388 . S
C985 C984 1.366 . S
C985 C989 1.385 . S
C986 H967 0.951 . S
C986 C984 1.388 . S
C986 C987 1.366 . S
C987 C986 1.366 . S
C987 C988 1.414 . S
C987 C990 1.499 . S
C988 H968 0.950 . S
C988 C987 1.414 . S
C988 C989 1.374 . S
C989 H969 0.950 . S
C989 C985 1.385 . S
C989 C988 1.374 . S
C990 C987 1.499 . S
C990 C991 1.373 . S
C990 C992 1.389 . S
C991 H970 0.950 . S
C991 C990 1.373 . S
C991 C1007 1.377 . S
C992 C990 1.389 . S
C992 C993 1.524 . S
C992 C1006 1.377 . S
C993 C992 1.524 . S
C993 C994 1.397 . S
C993 C998 1.363 . S
C994 H971 0.950 . S
C994 C993 1.397 . S
C994 C995 1.334 . S
C995 H972 0.950 . S
C995 C994 1.334 . S
C995 C996 1.287 . S
C996 C995 1.287 . S
C996 C997 1.524 . S
C996 H1015 0.913 . S
C997 H973 0.950 . S
C997 C996 1.524 . S
C997 C998 1.415 . S
C998 H974 0.950 . S
C998 C993 1.363 . S
C998 C997 1.415 . S
C999 H975 0.951 . S
C999 C1000 1.366 . S
C999 C1001 1.388 . S
C1000 C999 1.366 . S
C1000 C1004 1.385 . S
C1001 H976 0.951 . S
C1001 C999 1.388 . S
C1001 C1002 1.366 . S
C1002 C1001 1.366 . S
C1002 C1003 1.414 . S
C1002 C1005 1.499 . S
C1003 H977 0.950 . S
C1003 C1002 1.414 . S
C1003 C1004 1.374 . S
C1004 H978 0.950 . S
C1004 C1000 1.385 . S
C1004 C1003 1.374 . S
C1005 C1002 1.499 . S
C1005 C1006 1.373 . S
C1005 C1007 1.389 . S
C1006 H979 0.950 . S
C1006 C992 1.377 . S
C1006 C1005 1.373 . S
C1007 C991 1.377 . S
C1007 C1005 1.389 . S
C1007 C1008 1.524 . S
C1008 C1007 1.524 . S
C1008 C1009 1.397 . S
C1008 C1013 1.363 . S
C1009 H980 0.950 . S
C1009 C1008 1.397 . S
C1009 C1010 1.334 . S
C1010 H981 0.950 . S
C1010 C1009 1.334 . S
C1010 C1011 1.287 . S
C1011 C1010 1.287 . S
C1011 C1012 1.524 . S
C1011 H1014 0.999 . S
C1012 H982 0.950 . S
C1012 C1011 1.524 . S
C1012 C1013 1.415 . S
C1013 H983 0.950 . S
C1013 C1008 1.363 . S
C1013 C1012 1.415 . S
H1014 C1011 0.999 . S
H1015 C996 0.913 . S
H1016 C1034 0.951 . S
H1017 C1036 0.951 . S
H1018 C1038 0.950 . S
H1019 C1039 0.950 . S
H1020 C1041 0.950 . S
H1021 C1044 0.950 . S
H1022 C1045 0.950 . S
H1023 C1047 0.950 . S
H1024 C1048 0.950 . S
H1025 C1049 0.951 . S
H1026 C1051 0.951 . S
H1027 C1053 0.950 . S
H1028 C1054 0.950 . S
H1029 C1056 0.950 . S
H1030 C1059 0.950 . S
H1031 C1060 0.950 . S
H1032 C1062 0.950 . S
H1033 C1063 0.950 . S
C1034 H1016 0.951 . S
C1034 C1035 1.366 . S
C1034 C1036 1.388 . S
C1035 C1034 1.366 . S
C1035 C1039 1.385 . S
C1036 H1017 0.951 . S
C1036 C1034 1.388 . S
C1036 C1037 1.366 . S
C1037 C1036 1.366 . S
C1037 C1038 1.414 . S
C1037 C1040 1.499 . S
C1038 H1018 0.950 . S
C1038 C1037 1.414 . S
C1038 C1039 1.374 . S
C1039 H1019 0.950 . S
C1039 C1035 1.385 . S
C1039 C1038 1.374 . S
C1040 C1037 1.499 . S
C1040 C1041 1.373 . S
C1040 C1042 1.389 . S
C1041 H1020 0.950 . S
C1041 C1040 1.373 . S
C1041 C1057 1.377 . S
C1042 C1040 1.389 . S
C1042 C1043 1.524 . S
C1042 C1056 1.377 . S
C1043 C1042 1.524 . S
C1043 C1044 1.397 . S
C1043 C1048 1.363 . S
C1044 H1021 0.950 . S
C1044 C1043 1.397 . S
C1044 C1045 1.334 . S
C1045 H1022 0.950 . S
C1045 C1044 1.334 . S
C1045 C1046 1.287 . S
C1046 C1045 1.287 . S
C1046 C1047 1.524 . S
C1046 H1065 0.913 . S
C1047 H1023 0.950 . S
C1047 C1046 1.524 . S
C1047 C1048 1.415 . S
C1048 H1024 0.950 . S
C1048 C1043 1.363 . S
C1048 C1047 1.415 . S
C1049 H1025 0.951 . S
C1049 C1050 1.366 . S
C1049 C1051 1.388 . S
C1050 C1049 1.366 . S
C1050 C1054 1.385 . S
C1051 H1026 0.951 . S
C1051 C1049 1.388 . S
C1051 C1052 1.366 . S
C1052 C1051 1.366 . S
C1052 C1053 1.414 . S
C1052 C1055 1.499 . S
C1053 H1027 0.950 . S
C1053 C1052 1.414 . S
C1053 C1054 1.374 . S
C1054 H1028 0.950 . S
C1054 C1050 1.385 . S
C1054 C1053 1.374 . S
C1055 C1052 1.499 . S
C1055 C1056 1.373 . S
C1055 C1057 1.389 . S
C1056 H1029 0.950 . S
C1056 C1042 1.377 . S
C1056 C1055 1.373 . S
C1057 C1041 1.377 . S
C1057 C1055 1.389 . S
C1057 C1058 1.524 . S
C1058 C1057 1.524 . S
C1058 C1059 1.397 . S
C1058 C1063 1.363 . S
C1059 H1030 0.950 . S
C1059 C1058 1.397 . S
C1059 C1060 1.334 . S
C1060 H1031 0.950 . S
C1060 C1059 1.334 . S
C1060 C1061 1.287 . S
C1061 C1060 1.287 . S
C1061 C1062 1.524 . S
C1061 H1064 0.999 . S
C1062 H1032 0.950 . S
C1062 C1061 1.524 . S
C1062 C1063 1.415 . S
C1063 H1033 0.950 . S
C1063 C1058 1.363 . S
C1063 C1062 1.415 . S
H1064 C1061 0.999 . S
H1065 C1046 0.913 . S
H1066 C1084 0.951 . S
H1067 C1086 0.951 1_556 S
H1068 C1088 0.950 . S
H1069 C1089 0.950 . S
H1070 C1091 0.950 . S
H1071 C1094 0.950 . S
H1072 C1095 0.950 . S
H1073 C1097 0.950 . S
H1074 C1098 0.950 . S
H1075 C1099 0.951 . S
H1076 C1101 0.951 1_554 S
H1077 C1103 0.950 . S
H1078 C1104 0.950 . S
H1079 C1106 0.950 . S
H1080 C1109 0.950 . S
H1081 C1110 0.950 . S
H1082 C1112 0.950 . S
H1083 C1113 0.950 . S
C1084 H1066 0.951 . S
C1084 C1085 1.366 . S
C1084 C1086 1.388 . S
C1085 C1084 1.366 . S
C1085 C1089 1.385 . S
C1086 H1067 0.951 1_554 S
C1086 C1084 1.388 . S
C1086 C1087 1.366 . S
C1087 C1086 1.366 . S
C1087 C1088 1.414 . S
C1087 C1090 1.499 . S
C1088 H1068 0.950 . S
C1088 C1087 1.414 . S
C1088 C1089 1.374 . S
C1089 H1069 0.950 . S
C1089 C1085 1.385 . S
C1089 C1088 1.374 . S
C1090 C1087 1.499 . S
C1090 C1091 1.373 . S
C1090 C1092 1.389 1_554 S
C1091 H1070 0.950 . S
C1091 C1090 1.373 . S
C1091 C1107 1.377 . S
C1092 C1090 1.389 1_556 S
C1092 C1093 1.524 . S
C1092 C1106 1.377 . S
C1093 C1092 1.524 . S
C1093 C1094 1.397 1_556 S
C1093 C1098 1.363 . S
C1094 H1071 0.950 . S
C1094 C1093 1.397 1_554 S
C1094 C1095 1.334 . S
C1095 H1072 0.950 . S
C1095 C1094 1.334 . S
C1095 C1096 1.287 1_554 S
C1096 C1095 1.287 1_556 S
C1096 C1097 1.524 . S
C1096 H1115 0.913 . S
C1097 H1073 0.950 . S
C1097 C1096 1.524 . S
C1097 C1098 1.415 . S
C1098 H1074 0.950 . S
C1098 C1093 1.363 . S
C1098 C1097 1.415 . S
C1099 H1075 0.951 . S
C1099 C1100 1.366 . S
C1099 C1101 1.388 . S
C1100 C1099 1.366 . S
C1100 C1104 1.385 . S
C1101 H1076 0.951 1_556 S
C1101 C1099 1.388 . S
C1101 C1102 1.366 . S
C1102 C1101 1.366 . S
C1102 C1103 1.414 . S
C1102 C1105 1.499 . S
C1103 H1077 0.950 . S
C1103 C1102 1.414 . S
C1103 C1104 1.374 . S
C1104 H1078 0.950 . S
C1104 C1100 1.385 . S
C1104 C1103 1.374 . S
C1105 C1102 1.499 . S
C1105 C1106 1.373 . S
C1105 C1107 1.389 1_556 S
C1106 H1079 0.950 . S
C1106 C1092 1.377 . S
C1106 C1105 1.373 . S
C1107 C1091 1.377 . S
C1107 C1105 1.389 1_554 S
C1107 C1108 1.524 . S
C1108 C1107 1.524 . S
C1108 C1109 1.397 1_554 S
C1108 C1113 1.363 . S
C1109 H1080 0.950 . S
C1109 C1108 1.397 1_556 S
C1109 C1110 1.334 . S
C1110 H1081 0.950 . S
C1110 C1109 1.334 . S
C1110 C1111 1.287 1_556 S
C1111 C1110 1.287 1_554 S
C1111 C1112 1.524 . S
C1111 H1114 0.999 . S
C1112 H1082 0.950 . S
C1112 C1111 1.524 . S
C1112 C1113 1.415 . S
C1113 H1083 0.950 . S
C1113 C1108 1.363 . S
C1113 C1112 1.415 . S
H1114 C1111 0.999 . S
H1115 C1096 0.913 . S
H1116 C1134 0.951 . S
H1117 C1136 0.951 . S
H1118 C1138 0.950 . S
H1119 C1139 0.950 . S
H1120 C1141 0.950 . S
H1121 C1144 0.950 . S
H1122 C1145 0.950 . S
H1123 C1147 0.950 . S
H1124 C1148 0.950 . S
H1125 C1149 0.951 . S
H1126 C1151 0.951 . S
H1127 C1153 0.950 . S
H1128 C1154 0.950 . S
H1129 C1156 0.950 . S
H1130 C1159 0.950 . S
H1131 C1160 0.950 . S
H1132 C1162 0.950 . S
H1133 C1163 0.950 . S
C1134 H1116 0.951 . S
C1134 C1135 1.366 . S
C1134 C1136 1.388 . S
C1135 C1134 1.366 . S
C1135 C1139 1.385 . S
C1136 H1117 0.951 . S
C1136 C1134 1.388 . S
C1136 C1137 1.366 . S
C1137 C1136 1.366 . S
C1137 C1138 1.414 . S
C1137 C1140 1.499 . S
C1138 H1118 0.950 . S
C1138 C1137 1.414 . S
C1138 C1139 1.374 . S
C1139 H1119 0.950 . S
C1139 C1135 1.385 . S
C1139 C1138 1.374 . S
C1140 C1137 1.499 . S
C1140 C1141 1.373 . S
C1140 C1142 1.389 . S
C1141 H1120 0.950 . S
C1141 C1140 1.373 . S
C1141 C1157 1.377 . S
C1142 C1140 1.389 . S
C1142 C1143 1.524 . S
C1142 C1156 1.377 . S
C1143 C1142 1.524 . S
C1143 C1144 1.397 . S
C1143 C1148 1.363 . S
C1144 H1121 0.950 . S
C1144 C1143 1.397 . S
C1144 C1145 1.334 . S
C1145 H1122 0.950 . S
C1145 C1144 1.334 . S
C1145 C1146 1.287 . S
C1146 C1145 1.287 . S
C1146 C1147 1.524 . S
C1146 H1165 0.913 . S
C1147 H1123 0.950 . S
C1147 C1146 1.524 . S
C1147 C1148 1.415 . S
C1148 H1124 0.950 . S
C1148 C1143 1.363 . S
C1148 C1147 1.415 . S
C1149 H1125 0.951 . S
C1149 C1150 1.366 . S
C1149 C1151 1.388 . S
C1150 C1149 1.366 . S
C1150 C1154 1.385 . S
C1151 H1126 0.951 . S
C1151 C1149 1.388 . S
C1151 C1152 1.366 . S
C1152 C1151 1.366 . S
C1152 C1153 1.414 . S
C1152 C1155 1.499 . S
C1153 H1127 0.950 . S
C1153 C1152 1.414 . S
C1153 C1154 1.374 . S
C1154 H1128 0.950 . S
C1154 C1150 1.385 . S
C1154 C1153 1.374 . S
C1155 C1152 1.499 . S
C1155 C1156 1.373 . S
C1155 C1157 1.389 . S
C1156 H1129 0.950 . S
C1156 C1142 1.377 . S
C1156 C1155 1.373 . S
C1157 C1141 1.377 . S
C1157 C1155 1.389 . S
C1157 C1158 1.524 . S
C1158 C1157 1.524 . S
C1158 C1159 1.397 . S
C1158 C1163 1.363 . S
C1159 H1130 0.950 . S
C1159 C1158 1.397 . S
C1159 C1160 1.334 . S
C1160 H1131 0.950 . S
C1160 C1159 1.334 . S
C1160 C1161 1.287 . S
C1161 C1160 1.287 . S
C1161 C1162 1.524 . S
C1161 H1164 0.999 . S
C1162 H1132 0.950 . S
C1162 C1161 1.524 . S
C1162 C1163 1.415 . S
C1163 H1133 0.950 . S
C1163 C1158 1.363 . S
C1163 C1162 1.415 . S
H1164 C1161 0.999 . S
H1165 C1146 0.913 . S
H1166 C1184 0.951 . S
H1167 C1186 0.951 . S
H1168 C1188 0.950 . S
H1169 C1189 0.950 . S
H1170 C1191 0.950 . S
H1171 C1194 0.950 . S
H1172 C1195 0.950 . S
H1173 C1197 0.950 . S
H1174 C1198 0.950 . S
H1175 C1199 0.951 . S
H1176 C1201 0.951 . S
H1177 C1203 0.950 . S
H1178 C1204 0.950 . S
H1179 C1206 0.950 . S
H1180 C1209 0.950 . S
H1181 C1210 0.950 . S
H1182 C1212 0.950 . S
H1183 C1213 0.950 . S
C1184 H1166 0.951 . S
C1184 C1185 1.366 . S
C1184 C1186 1.388 . S
C1185 C1184 1.366 . S
C1185 C1189 1.385 . S
C1186 H1167 0.951 . S
C1186 C1184 1.388 . S
C1186 C1187 1.366 . S
C1187 C1186 1.366 . S
C1187 C1188 1.414 . S
C1187 C1190 1.499 . S
C1188 H1168 0.950 . S
C1188 C1187 1.414 . S
C1188 C1189 1.374 . S
C1189 H1169 0.950 . S
C1189 C1185 1.385 . S
C1189 C1188 1.374 . S
C1190 C1187 1.499 . S
C1190 C1191 1.373 . S
C1190 C1192 1.389 . S
C1191 H1170 0.950 . S
C1191 C1190 1.373 . S
C1191 C1207 1.377 . S
C1192 C1190 1.389 . S
C1192 C1193 1.524 . S
C1192 C1206 1.377 . S
C1193 C1192 1.524 . S
C1193 C1194 1.397 . S
C1193 C1198 1.363 . S
C1194 H1171 0.950 . S
C1194 C1193 1.397 . S
C1194 C1195 1.334 . S
C1195 H1172 0.950 . S
C1195 C1194 1.334 . S
C1195 C1196 1.287 . S
C1196 C1195 1.287 . S
C1196 C1197 1.524 . S
C1196 H1215 0.913 . S
C1197 H1173 0.950 . S
C1197 C1196 1.524 . S
C1197 C1198 1.415 . S
C1198 H1174 0.950 . S
C1198 C1193 1.363 . S
C1198 C1197 1.415 . S
C1199 H1175 0.951 . S
C1199 C1200 1.366 . S
C1199 C1201 1.388 . S
C1200 C1199 1.366 . S
C1200 C1204 1.385 . S
C1201 H1176 0.951 . S
C1201 C1199 1.388 . S
C1201 C1202 1.366 . S
C1202 C1201 1.366 . S
C1202 C1203 1.414 . S
C1202 C1205 1.499 . S
C1203 H1177 0.950 . S
C1203 C1202 1.414 . S
C1203 C1204 1.374 . S
C1204 H1178 0.950 . S
C1204 C1200 1.385 . S
C1204 C1203 1.374 . S
C1205 C1202 1.499 . S
C1205 C1206 1.373 . S
C1205 C1207 1.389 . S
C1206 H1179 0.950 . S
C1206 C1192 1.377 . S
C1206 C1205 1.373 . S
C1207 C1191 1.377 . S
C1207 C1205 1.389 . S
C1207 C1208 1.524 . S
C1208 C1207 1.524 . S
C1208 C1209 1.397 . S
C1208 C1213 1.363 . S
C1209 H1180 0.950 . S
C1209 C1208 1.397 . S
C1209 C1210 1.334 . S
C1210 H1181 0.950 . S
C1210 C1209 1.334 . S
C1210 C1211 1.287 . S
C1211 C1210 1.287 . S
C1211 C1212 1.524 . S
C1211 H1214 0.999 . S
C1212 H1182 0.950 . S
C1212 C1211 1.524 . S
C1212 C1213 1.415 . S
C1213 H1183 0.950 . S
C1213 C1208 1.363 . S
C1213 C1212 1.415 . S
H1214 C1211 0.999 . S
H1215 C1196 0.913 . S
H1216 C1234 0.951 . S
H1217 C1236 0.951 . S
H1218 C1238 0.950 . S
H1219 C1239 0.950 . S
H1220 C1241 0.950 . S
H1221 C1244 0.950 . S
H1222 C1245 0.950 . S
H1223 C1247 0.950 . S
H1224 C1248 0.950 . S
H1225 C1249 0.951 . S
H1226 C1251 0.951 . S
H1227 C1253 0.950 . S
H1228 C1254 0.950 . S
H1229 C1256 0.950 . S
H1230 C1259 0.950 . S
H1231 C1260 0.950 . S
H1232 C1262 0.950 . S
H1233 C1263 0.950 . S
C1234 H1216 0.951 . S
C1234 C1235 1.366 1_556 S
C1234 C1236 1.388 . S
C1235 C1234 1.366 1_554 S
C1235 C1239 1.385 . S
C1236 H1217 0.951 . S
C1236 C1234 1.388 . S
C1236 C1237 1.366 . S
C1237 C1236 1.366 . S
C1237 C1238 1.414 . S
C1237 C1240 1.499 . S
C1238 H1218 0.950 . S
C1238 C1237 1.414 . S
C1238 C1239 1.374 1_556 S
C1239 H1219 0.950 . S
C1239 C1235 1.385 . S
C1239 C1238 1.374 1_554 S
C1240 C1237 1.499 . S
C1240 C1241 1.373 . S
C1240 C1242 1.389 . S
C1241 H1220 0.950 . S
C1241 C1240 1.373 . S
C1241 C1257 1.377 . S
C1242 C1240 1.389 . S
C1242 C1243 1.524 . S
C1242 C1256 1.377 . S
C1243 C1242 1.524 . S
C1243 C1244 1.397 . S
C1243 C1248 1.363 . S
C1244 H1221 0.950 . S
C1244 C1243 1.397 . S
C1244 C1245 1.334 . S
C1245 H1222 0.950 . S
C1245 C1244 1.334 . S
C1245 C1246 1.287 . S
C1246 C1245 1.287 . S
C1246 C1247 1.524 . S
C1246 H1265 0.913 . S
C1247 H1223 0.950 . S
C1247 C1246 1.524 . S
C1247 C1248 1.415 . S
C1248 H1224 0.950 . S
C1248 C1243 1.363 . S
C1248 C1247 1.415 . S
C1249 H1225 0.951 . S
C1249 C1250 1.366 . S
C1249 C1251 1.388 . S
C1250 C1249 1.366 . S
C1250 C1254 1.385 . S
C1251 H1226 0.951 . S
C1251 C1249 1.388 . S
C1251 C1252 1.366 . S
C1252 C1251 1.366 . S
C1252 C1253 1.414 . S
C1252 C1255 1.499 . S
C1253 H1227 0.950 . S
C1253 C1252 1.414 . S
C1253 C1254 1.374 . S
C1254 H1228 0.950 . S
C1254 C1250 1.385 . S
C1254 C1253 1.374 . S
C1255 C1252 1.499 . S
C1255 C1256 1.373 . S
C1255 C1257 1.389 . S
C1256 H1229 0.950 . S
C1256 C1242 1.377 . S
C1256 C1255 1.373 . S
C1257 C1241 1.377 . S
C1257 C1255 1.389 . S
C1257 C1258 1.524 . S
C1258 C1257 1.524 . S
C1258 C1259 1.397 . S
C1258 C1263 1.363 . S
C1259 H1230 0.950 . S
C1259 C1258 1.397 . S
C1259 C1260 1.334 . S
C1260 H1231 0.950 . S
C1260 C1259 1.334 . S
C1260 C1261 1.287 . S
C1261 C1260 1.287 . S
C1261 C1262 1.524 . S
C1261 H1264 0.999 . S
C1262 H1232 0.950 . S
C1262 C1261 1.524 . S
C1262 C1263 1.415 . S
C1263 H1233 0.950 . S
C1263 C1258 1.363 . S
C1263 C1262 1.415 . S
H1264 C1261 0.999 . S
H1265 C1246 0.913 . S
H1266 C1284 0.951 . S
H1267 C1286 0.951 . S
H1268 C1288 0.950 . S
H1269 C1289 0.950 . S
H1270 C1291 0.950 . S
H1271 C1294 0.950 . S
H1272 C1295 0.950 . S
H1273 C1297 0.950 . S
H1274 C1298 0.950 . S
H1275 C1299 0.951 . S
H1276 C1301 0.951 . S
H1277 C1303 0.950 . S
H1278 C1304 0.950 . S
H1279 C1306 0.950 . S
H1280 C1309 0.950 . S
H1281 C1310 0.950 . S
H1282 C1312 0.950 . S
H1283 C1313 0.950 . S
C1284 H1266 0.951 . S
C1284 C1285 1.366 1_554 S
C1284 C1286 1.388 . S
C1285 C1284 1.366 1_556 S
C1285 C1289 1.385 . S
C1286 H1267 0.951 . S
C1286 C1284 1.388 . S
C1286 C1287 1.366 . S
C1287 C1286 1.366 . S
C1287 C1288 1.414 . S
C1287 C1290 1.499 . S
C1288 H1268 0.950 . S
C1288 C1287 1.414 . S
C1288 C1289 1.374 1_554 S
C1289 H1269 0.950 . S
C1289 C1285 1.385 . S
C1289 C1288 1.374 1_556 S
C1290 C1287 1.499 . S
C1290 C1291 1.373 . S
C1290 C1292 1.389 . S
C1291 H1270 0.950 . S
C1291 C1290 1.373 . S
C1291 C1307 1.377 . S
C1292 C1290 1.389 . S
C1292 C1293 1.524 . S
C1292 C1306 1.377 . S
C1293 C1292 1.524 . S
C1293 C1294 1.397 . S
C1293 C1298 1.363 . S
C1294 H1271 0.950 . S
C1294 C1293 1.397 . S
C1294 C1295 1.334 . S
C1295 H1272 0.950 . S
C1295 C1294 1.334 . S
C1295 C1296 1.287 . S
C1296 C1295 1.287 . S
C1296 C1297 1.524 . S
C1296 H1315 0.913 . S
C1297 H1273 0.950 . S
C1297 C1296 1.524 . S
C1297 C1298 1.415 . S
C1298 H1274 0.950 . S
C1298 C1293 1.363 . S
C1298 C1297 1.415 . S
C1299 H1275 0.951 . S
C1299 C1300 1.366 . S
C1299 C1301 1.388 . S
C1300 C1299 1.366 . S
C1300 C1304 1.385 . S
C1301 H1276 0.951 . S
C1301 C1299 1.388 . S
C1301 C1302 1.366 . S
C1302 C1301 1.366 . S
C1302 C1303 1.414 . S
C1302 C1305 1.499 . S
C1303 H1277 0.950 . S
C1303 C1302 1.414 . S
C1303 C1304 1.374 . S
C1304 H1278 0.950 . S
C1304 C1300 1.385 . S
C1304 C1303 1.374 . S
C1305 C1302 1.499 . S
C1305 C1306 1.373 . S
C1305 C1307 1.389 . S
C1306 H1279 0.950 . S
C1306 C1292 1.377 . S
C1306 C1305 1.373 . S
C1307 C1291 1.377 . S
C1307 C1305 1.389 . S
C1307 C1308 1.524 . S
C1308 C1307 1.524 . S
C1308 C1309 1.397 . S
C1308 C1313 1.363 . S
C1309 H1280 0.950 . S
C1309 C1308 1.397 . S
C1309 C1310 1.334 . S
C1310 H1281 0.950 . S
C1310 C1309 1.334 . S
C1310 C1311 1.287 . S
C1311 C1310 1.287 . S
C1311 C1312 1.524 . S
C1311 H1314 0.999 . S
C1312 H1282 0.950 . S
C1312 C1311 1.524 . S
C1312 C1313 1.415 . S
C1313 H1283 0.950 . S
C1313 C1308 1.363 . S
C1313 C1312 1.415 . S
H1314 C1311 0.999 . S
H1315 C1296 0.913 . S
H1316 C1334 0.951 . S
H1317 C1336 0.951 . S
H1318 C1338 0.950 . S
H1319 C1339 0.950 . S
H1320 C1341 0.950 . S
H1321 C1344 0.950 . S
H1322 C1345 0.950 . S
H1323 C1347 0.950 . S
H1324 C1348 0.950 . S
H1325 C1349 0.951 . S
H1326 C1351 0.951 . S
H1327 C1353 0.950 . S
H1328 C1354 0.950 . S
H1329 C1356 0.950 . S
H1330 C1359 0.950 . S
H1331 C1360 0.950 . S
H1332 C1362 0.950 . S
H1333 C1363 0.950 . S
C1334 H1316 0.951 . S
C1334 C1335 1.366 . S
C1334 C1336 1.388 . S
C1335 C1334 1.366 . S
C1335 C1339 1.385 . S
C1336 H1317 0.951 . S
C1336 C1334 1.388 . S
C1336 C1337 1.366 . S
C1337 C1336 1.366 . S
C1337 C1338 1.414 . S
C1337 C1340 1.499 . S
C1338 H1318 0.950 . S
C1338 C1337 1.414 . S
C1338 C1339 1.374 . S
C1339 H1319 0.950 . S
C1339 C1335 1.385 . S
C1339 C1338 1.374 . S
C1340 C1337 1.499 . S
C1340 C1341 1.373 . S
C1340 C1342 1.389 . S
C1341 H1320 0.950 . S
C1341 C1340 1.373 . S
C1341 C1357 1.377 . S
C1342 C1340 1.389 . S
C1342 C1343 1.524 . S
C1342 C1356 1.377 . S
C1343 C1342 1.524 . S
C1343 C1344 1.397 . S
C1343 C1348 1.363 . S
C1344 H1321 0.950 . S
C1344 C1343 1.397 . S
C1344 C1345 1.334 . S
C1345 H1322 0.950 . S
C1345 C1344 1.334 . S
C1345 C1346 1.287 . S
C1346 C1345 1.287 . S
C1346 C1347 1.524 . S
C1346 H1365 0.913 . S
C1347 H1323 0.950 . S
C1347 C1346 1.524 . S
C1347 C1348 1.415 . S
C1348 H1324 0.950 . S
C1348 C1343 1.363 . S
C1348 C1347 1.415 . S
C1349 H1325 0.951 . S
C1349 C1350 1.366 . S
C1349 C1351 1.388 . S
C1350 C1349 1.366 . S
C1350 C1354 1.385 . S
C1351 H1326 0.951 . S
C1351 C1349 1.388 . S
C1351 C1352 1.366 . S
C1352 C1351 1.366 . S
C1352 C1353 1.414 . S
C1352 C1355 1.499 . S
C1353 H1327 0.950 . S
C1353 C1352 1.414 . S
C1353 C1354 1.374 . S
C1354 H1328 0.950 . S
C1354 C1350 1.385 . S
C1354 C1353 1.374 . S
C1355 C1352 1.499 . S
C1355 C1356 1.373 . S
C1355 C1357 1.389 . S
C1356 H1329 0.950 . S
C1356 C1342 1.377 . S
C1356 C1355 1.373 . S
C1357 C1341 1.377 . S
C1357 C1355 1.389 . S
C1357 C1358 1.524 . S
C1358 C1357 1.524 . S
C1358 C1359 1.397 . S
C1358 C1363 1.363 . S
C1359 H1330 0.950 . S
C1359 C1358 1.397 . S
C1359 C1360 1.334 . S
C1360 H1331 0.950 . S
C1360 C1359 1.334 . S
C1360 C1361 1.287 . S
C1361 C1360 1.287 . S
C1361 C1362 1.524 . S
C1361 H1364 0.999 . S
C1362 H1332 0.950 . S
C1362 C1361 1.524 . S
C1362 C1363 1.415 . S
C1363 H1333 0.950 . S
C1363 C1358 1.363 . S
C1363 C1362 1.415 . S
H1364 C1361 0.999 . S
H1365 C1346 0.913 . S
H1366 C1384 0.951 . S
H1367 C1386 0.951 . S
H1368 C1388 0.950 . S
H1369 C1389 0.950 . S
H1370 C1391 0.950 . S
H1371 C1394 0.950 . S
H1372 C1395 0.950 . S
H1373 C1397 0.950 . S
H1374 C1398 0.950 . S
H1375 C1399 0.951 . S
H1376 C1401 0.951 . S
H1377 C1403 0.950 . S
H1378 C1404 0.950 . S
H1379 C1406 0.950 . S
H1380 C1409 0.950 . S
H1381 C1410 0.950 . S
H1382 C1412 0.950 . S
H1383 C1413 0.950 . S
C1384 H1366 0.951 . S
C1384 C1385 1.366 . S
C1384 C1386 1.388 . S
C1385 C1384 1.366 . S
C1385 C1389 1.385 . S
C1386 H1367 0.951 . S
C1386 C1384 1.388 . S
C1386 C1387 1.366 . S
C1387 C1386 1.366 . S
C1387 C1388 1.414 . S
C1387 C1390 1.499 . S
C1388 H1368 0.950 . S
C1388 C1387 1.414 . S
C1388 C1389 1.374 . S
C1389 H1369 0.950 . S
C1389 C1385 1.385 . S
C1389 C1388 1.374 . S
C1390 C1387 1.499 . S
C1390 C1391 1.373 . S
C1390 C1392 1.389 . S
C1391 H1370 0.950 . S
C1391 C1390 1.373 . S
C1391 C1407 1.377 . S
C1392 C1390 1.389 . S
C1392 C1393 1.524 . S
C1392 C1406 1.377 . S
C1393 C1392 1.524 . S
C1393 C1394 1.397 . S
C1393 C1398 1.363 . S
C1394 H1371 0.950 . S
C1394 C1393 1.397 . S
C1394 C1395 1.334 . S
C1395 H1372 0.950 . S
C1395 C1394 1.334 . S
C1395 C1396 1.287 . S
C1396 C1395 1.287 . S
C1396 C1397 1.524 . S
C1396 H1415 0.913 . S
C1397 H1373 0.950 . S
C1397 C1396 1.524 . S
C1397 C1398 1.415 . S
C1398 H1374 0.950 . S
C1398 C1393 1.363 . S
C1398 C1397 1.415 . S
C1399 H1375 0.951 . S
C1399 C1400 1.366 . S
C1399 C1401 1.388 . S
C1400 C1399 1.366 . S
C1400 C1404 1.385 . S
C1401 H1376 0.951 . S
C1401 C1399 1.388 . S
C1401 C1402 1.366 . S
C1402 C1401 1.366 . S
C1402 C1403 1.414 . S
C1402 C1405 1.499 . S
C1403 H1377 0.950 . S
C1403 C1402 1.414 . S
C1403 C1404 1.374 . S
C1404 H1378 0.950 . S
C1404 C1400 1.385 . S
C1404 C1403 1.374 . S
C1405 C1402 1.499 . S
C1405 C1406 1.373 . S
C1405 C1407 1.389 . S
C1406 H1379 0.950 . S
C1406 C1392 1.377 . S
C1406 C1405 1.373 . S
C1407 C1391 1.377 . S
C1407 C1405 1.389 . S
C1407 C1408 1.524 . S
C1408 C1407 1.524 . S
C1408 C1409 1.397 . S
C1408 C1413 1.363 . S
C1409 H1380 0.950 . S
C1409 C1408 1.397 . S
C1409 C1410 1.334 . S
C1410 H1381 0.950 . S
C1410 C1409 1.334 . S
C1410 C1411 1.287 . S
C1411 C1410 1.287 . S
C1411 C1412 1.524 . S
C1411 H1414 0.999 . S
C1412 H1382 0.950 . S
C1412 C1411 1.524 . S
C1412 C1413 1.415 . S
C1413 H1383 0.950 . S
C1413 C1408 1.363 . S
C1413 C1412 1.415 . S
H1414 C1411 0.999 . S
H1415 C1396 0.913 . S
H1416 C1434 0.951 . S
H1417 C1436 0.951 1_556 S
H1418 C1438 0.950 . S
H1419 C1439 0.950 . S
H1420 C1441 0.950 . S
H1421 C1444 0.950 . S
H1422 C1445 0.950 . S
H1423 C1447 0.950 . S
H1424 C1448 0.950 . S
H1425 C1449 0.951 . S
H1426 C1451 0.951 . S
H1427 C1453 0.950 . S
H1428 C1454 0.950 . S
H1429 C1456 0.950 . S
H1430 C1459 0.950 . S
H1431 C1460 0.950 . S
H1432 C1462 0.950 . S
H1433 C1463 0.950 . S
C1434 H1416 0.951 . S
C1434 C1435 1.366 . S
C1434 C1436 1.388 1_556 S
C1435 C1434 1.366 . S
C1435 C1439 1.385 1_556 S
C1436 H1417 0.951 1_554 S
C1436 C1434 1.388 1_554 S
C1436 C1437 1.366 . S
C1437 C1436 1.366 . S
C1437 C1438 1.414 . S
C1437 C1440 1.499 . S
C1438 H1418 0.950 . S
C1438 C1437 1.414 . S
C1438 C1439 1.374 . S
C1439 H1419 0.950 . S
C1439 C1435 1.385 1_554 S
C1439 C1438 1.374 . S
C1440 C1437 1.499 . S
C1440 C1441 1.373 . S
C1440 C1442 1.389 . S
C1441 H1420 0.950 . S
C1441 C1440 1.373 . S
C1441 C1457 1.377 . S
C1442 C1440 1.389 . S
C1442 C1443 1.524 . S
C1442 C1456 1.377 . S
C1443 C1442 1.524 . S
C1443 C1444 1.397 . S
C1443 C1448 1.363 . S
C1444 H1421 0.950 . S
C1444 C1443 1.397 . S
C1444 C1445 1.334 . S
C1445 H1422 0.950 . S
C1445 C1444 1.334 . S
C1445 C1446 1.287 . S
C1446 C1445 1.287 . S
C1446 C1447 1.524 1_554 S
C1446 H1465 0.913 1_554 S
C1447 H1423 0.950 . S
C1447 C1446 1.524 1_556 S
C1447 C1448 1.415 1_556 S
C1448 H1424 0.950 . S
C1448 C1443 1.363 . S
C1448 C1447 1.415 1_554 S
C1449 H1425 0.951 . S
C1449 C1450 1.366 . S
C1449 C1451 1.388 . S
C1450 C1449 1.366 . S
C1450 C1454 1.385 . S
C1451 H1426 0.951 . S
C1451 C1449 1.388 . S
C1451 C1452 1.366 . S
C1452 C1451 1.366 . S
C1452 C1453 1.414 . S
C1452 C1455 1.499 . S
C1453 H1427 0.950 . S
C1453 C1452 1.414 . S
C1453 C1454 1.374 . S
C1454 H1428 0.950 . S
C1454 C1450 1.385 . S
C1454 C1453 1.374 . S
C1455 C1452 1.499 . S
C1455 C1456 1.373 . S
C1455 C1457 1.389 . S
C1456 H1429 0.950 . S
C1456 C1442 1.377 . S
C1456 C1455 1.373 . S
C1457 C1441 1.377 . S
C1457 C1455 1.389 . S
C1457 C1458 1.524 . S
C1458 C1457 1.524 . S
C1458 C1459 1.397 . S
C1458 C1463 1.363 . S
C1459 H1430 0.950 . S
C1459 C1458 1.397 . S
C1459 C1460 1.334 . S
C1460 H1431 0.950 . S
C1460 C1459 1.334 . S
C1460 C1461 1.287 . S
C1461 C1460 1.287 . S
C1461 C1462 1.524 . S
C1461 H1464 0.999 . S
C1462 H1432 0.950 . S
C1462 C1461 1.524 . S
C1462 C1463 1.415 . S
C1463 H1433 0.950 . S
C1463 C1458 1.363 . S
C1463 C1462 1.415 . S
H1464 C1461 0.999 . S
H1465 C1446 0.913 1_556 S
H1466 C1484 0.951 . S
H1467 C1486 0.951 . S
H1468 C1488 0.950 . S
H1469 C1489 0.950 . S
H1470 C1491 0.950 . S
H1471 C1494 0.950 . S
H1472 C1495 0.950 1_554 S
H1473 C1497 0.950 . S
H1474 C1498 0.950 . S
H1475 C1499 0.951 . S
H1476 C1501 0.951 . S
H1477 C1503 0.950 . S
H1478 C1504 0.950 . S
H1479 C1506 0.950 . S
H1480 C1509 0.950 . S
H1481 C1510 0.950 . S
H1482 C1512 0.950 . S
H1483 C1513 0.950 . S
C1484 H1466 0.951 . S
C1484 C1485 1.366 1_556 S
C1484 C1486 1.388 . S
C1485 C1484 1.366 1_554 S
C1485 C1489 1.385 . S
C1486 H1467 0.951 . S
C1486 C1484 1.388 . S
C1486 C1487 1.366 . S
C1487 C1486 1.366 . S
C1487 C1488 1.414 . S
C1487 C1490 1.499 . S
C1488 H1468 0.950 . S
C1488 C1487 1.414 . S
C1488 C1489 1.374 1_556 S
C1489 H1469 0.950 . S
C1489 C1485 1.385 . S
C1489 C1488 1.374 1_554 S
C1490 C1487 1.499 . S
C1490 C1491 1.373 . S
C1490 C1492 1.389 . S
C1491 H1470 0.950 . S
C1491 C1490 1.373 . S
C1491 C1507 1.377 . S
C1492 C1490 1.389 . S
C1492 C1493 1.524 . S
C1492 C1506 1.377 . S
C1493 C1492 1.524 . S
C1493 C1494 1.397 . S
C1493 C1498 1.363 . S
C1494 H1471 0.950 . S
C1494 C1493 1.397 . S
C1494 C1495 1.334 . S
C1495 H1472 0.950 1_556 S
C1495 C1494 1.334 . S
C1495 C1496 1.287 . S
C1496 C1495 1.287 . S
C1496 C1497 1.524 . S
C1496 H1515 0.913 . S
C1497 H1473 0.950 . S
C1497 C1496 1.524 . S
C1497 C1498 1.415 . S
C1498 H1474 0.950 . S
C1498 C1493 1.363 . S
C1498 C1497 1.415 . S
C1499 H1475 0.951 . S
C1499 C1500 1.366 . S
C1499 C1501 1.388 . S
C1500 C1499 1.366 . S
C1500 C1504 1.385 . S
C1501 H1476 0.951 . S
C1501 C1499 1.388 . S
C1501 C1502 1.366 . S
C1502 C1501 1.366 . S
C1502 C1503 1.414 . S
C1502 C1505 1.499 . S
C1503 H1477 0.950 . S
C1503 C1502 1.414 . S
C1503 C1504 1.374 . S
C1504 H1478 0.950 . S
C1504 C1500 1.385 . S
C1504 C1503 1.374 . S
C1505 C1502 1.499 . S
C1505 C1506 1.373 . S
C1505 C1507 1.389 . S
C1506 H1479 0.950 . S
C1506 C1492 1.377 . S
C1506 C1505 1.373 . S
C1507 C1491 1.377 . S
C1507 C1505 1.389 . S
C1507 C1508 1.524 . S
C1508 C1507 1.524 . S
C1508 C1509 1.397 . S
C1508 C1513 1.363 . S
C1509 H1480 0.950 . S
C1509 C1508 1.397 . S
C1509 C1510 1.334 . S
C1510 H1481 0.950 . S
C1510 C1509 1.334 . S
C1510 C1511 1.287 . S
C1511 C1510 1.287 . S
C1511 C1512 1.524 . S
C1511 H1514 0.999 . S
C1512 H1482 0.950 . S
C1512 C1511 1.524 . S
C1512 C1513 1.415 . S
C1513 H1483 0.950 . S
C1513 C1508 1.363 . S
C1513 C1512 1.415 . S
H1514 C1511 0.999 . S
H1515 C1496 0.913 . S
H1516 C1534 0.951 . S
H1517 C1536 0.951 . S
H1518 C1538 0.950 . S
H1519 C1539 0.950 . S
H1520 C1541 0.950 . S
H1521 C1544 0.950 . S
H1522 C1545 0.950 . S
H1523 C1547 0.950 . S
H1524 C1548 0.950 . S
H1525 C1549 0.951 . S
H1526 C1551 0.951 . S
H1527 C1553 0.950 . S
H1528 C1554 0.950 . S
H1529 C1556 0.950 . S
H1530 C1559 0.950 . S
H1531 C1560 0.950 . S
H1532 C1562 0.950 . S
H1533 C1563 0.950 . S
C1534 H1516 0.951 . S
C1534 C1535 1.366 . S
C1534 C1536 1.388 . S
C1535 C1534 1.366 . S
C1535 C1539 1.385 . S
C1536 H1517 0.951 . S
C1536 C1534 1.388 . S
C1536 C1537 1.366 . S
C1537 C1536 1.366 . S
C1537 C1538 1.414 . S
C1537 C1540 1.499 . S
C1538 H1518 0.950 . S
C1538 C1537 1.414 . S
C1538 C1539 1.374 . S
C1539 H1519 0.950 . S
C1539 C1535 1.385 . S
C1539 C1538 1.374 . S
C1540 C1537 1.499 . S
C1540 C1541 1.373 . S
C1540 C1542 1.389 . S
C1541 H1520 0.950 . S
C1541 C1540 1.373 . S
C1541 C1557 1.377 . S
C1542 C1540 1.389 . S
C1542 C1543 1.524 . S
C1542 C1556 1.377 . S
C1543 C1542 1.524 . S
C1543 C1544 1.397 . S
C1543 C1548 1.363 . S
C1544 H1521 0.950 . S
C1544 C1543 1.397 . S
C1544 C1545 1.334 . S
C1545 H1522 0.950 . S
C1545 C1544 1.334 . S
C1545 C1546 1.287 . S
C1546 C1545 1.287 . S
C1546 C1547 1.524 . S
C1546 H1565 0.913 . S
C1547 H1523 0.950 . S
C1547 C1546 1.524 . S
C1547 C1548 1.415 . S
C1548 H1524 0.950 . S
C1548 C1543 1.363 . S
C1548 C1547 1.415 . S
C1549 H1525 0.951 . S
C1549 C1550 1.366 . S
C1549 C1551 1.388 . S
C1550 C1549 1.366 . S
C1550 C1554 1.385 . S
C1551 H1526 0.951 . S
C1551 C1549 1.388 . S
C1551 C1552 1.366 . S
C1552 C1551 1.366 . S
C1552 C1553 1.414 . S
C1552 C1555 1.499 . S
C1553 H1527 0.950 . S
C1553 C1552 1.414 . S
C1553 C1554 1.374 . S
C1554 H1528 0.950 . S
C1554 C1550 1.385 . S
C1554 C1553 1.374 . S
C1555 C1552 1.499 . S
C1555 C1556 1.373 . S
C1555 C1557 1.389 . S
C1556 H1529 0.950 . S
C1556 C1542 1.377 . S
C1556 C1555 1.373 . S
C1557 C1541 1.377 . S
C1557 C1555 1.389 . S
C1557 C1558 1.524 . S
C1558 C1557 1.524 . S
C1558 C1559 1.397 . S
C1558 C1563 1.363 . S
C1559 H1530 0.950 . S
C1559 C1558 1.397 . S
C1559 C1560 1.334 . S
C1560 H1531 0.950 . S
C1560 C1559 1.334 . S
C1560 C1561 1.287 . S
C1561 C1560 1.287 . S
C1561 C1562 1.524 . S
C1561 H1564 0.999 . S
C1562 H1532 0.950 . S
C1562 C1561 1.524 . S
C1562 C1563 1.415 . S
C1563 H1533 0.950 . S
C1563 C1558 1.363 . S
C1563 C1562 1.415 . S
H1564 C1561 0.999 . S
H1565 C1546 0.913 . S
H1566 C1584 0.951 . S
H1567 C1586 0.951 . S
H1568 C1588 0.950 . S
H1569 C1589 0.950 . S
H1570 C1591 0.950 . S
H1571 C1594 0.950 . S
H1572 C1595 0.950 . S
H1573 C1597 0.950 . S
H1574 C1598 0.950 . S
H1575 C1599 0.951 . S
H1576 C1601 0.951 . S
H1577 C1603 0.950 . S
H1578 C1604 0.950 . S
H1579 C1606 0.950 . S
H1580 C1609 0.950 . S
H1581 C1610 0.950 . S
H1582 C1612 0.950 . S
H1583 C1613 0.950 . S
C1584 H1566 0.951 . S
C1584 C1585 1.366 . S
C1584 C1586 1.388 . S
C1585 C1584 1.366 . S
C1585 C1589 1.385 . S
C1586 H1567 0.951 . S
C1586 C1584 1.388 . S
C1586 C1587 1.366 . S
C1587 C1586 1.366 . S
C1587 C1588 1.414 . S
C1587 C1590 1.499 . S
C1588 H1568 0.950 . S
C1588 C1587 1.414 . S
C1588 C1589 1.374 . S
C1589 H1569 0.950 . S
C1589 C1585 1.385 . S
C1589 C1588 1.374 . S
C1590 C1587 1.499 . S
C1590 C1591 1.373 . S
C1590 C1592 1.389 . S
C1591 H1570 0.950 . S
C1591 C1590 1.373 . S
C1591 C1607 1.377 . S
C1592 C1590 1.389 . S
C1592 C1593 1.524 . S
C1592 C1606 1.377 . S
C1593 C1592 1.524 . S
C1593 C1594 1.397 . S
C1593 C1598 1.363 . S
C1594 H1571 0.950 . S
C1594 C1593 1.397 . S
C1594 C1595 1.334 . S
C1595 H1572 0.950 . S
C1595 C1594 1.334 . S
C1595 C1596 1.287 . S
C1596 C1595 1.287 . S
C1596 C1597 1.524 . S
C1596 H1615 0.913 . S
C1597 H1573 0.950 . S
C1597 C1596 1.524 . S
C1597 C1598 1.415 . S
C1598 H1574 0.950 . S
C1598 C1593 1.363 . S
C1598 C1597 1.415 . S
C1599 H1575 0.951 . S
C1599 C1600 1.366 . S
C1599 C1601 1.388 . S
C1600 C1599 1.366 . S
C1600 C1604 1.385 . S
C1601 H1576 0.951 . S
C1601 C1599 1.388 . S
C1601 C1602 1.366 . S
C1602 C1601 1.366 . S
C1602 C1603 1.414 . S
C1602 C1605 1.499 . S
C1603 H1577 0.950 . S
C1603 C1602 1.414 . S
C1603 C1604 1.374 . S
C1604 H1578 0.950 . S
C1604 C1600 1.385 . S
C1604 C1603 1.374 . S
C1605 C1602 1.499 . S
C1605 C1606 1.373 . S
C1605 C1607 1.389 . S
C1606 H1579 0.950 . S
C1606 C1592 1.377 . S
C1606 C1605 1.373 . S
C1607 C1591 1.377 . S
C1607 C1605 1.389 . S
C1607 C1608 1.524 . S
C1608 C1607 1.524 . S
C1608 C1609 1.397 . S
C1608 C1613 1.363 . S
C1609 H1580 0.950 . S
C1609 C1608 1.397 . S
C1609 C1610 1.334 . S
C1610 H1581 0.950 . S
C1610 C1609 1.334 . S
C1610 C1611 1.287 . S
C1611 C1610 1.287 . S
C1611 C1612 1.524 . S
C1611 H1614 0.999 . S
C1612 H1582 0.950 . S
C1612 C1611 1.524 . S
C1612 C1613 1.415 . S
C1613 H1583 0.950 . S
C1613 C1608 1.363 . S
C1613 C1612 1.415 . S
H1614 C1611 0.999 . S
H1615 C1596 0.913 . S
H1616 C1634 0.951 . S
H1617 C1636 0.951 . S
H1618 C1638 0.950 . S
H1619 C1639 0.950 . S
H1620 C1641 0.950 . S
H1621 C1644 0.950 . S
H1622 C1645 0.950 . S
H1623 C1647 0.950 . S
H1624 C1648 0.950 . S
H1625 C1649 0.951 . S
H1626 C1651 0.951 . S
H1627 C1653 0.950 . S
H1628 C1654 0.950 . S
H1629 C1656 0.950 . S
H1630 C1659 0.950 . S
H1631 C1660 0.950 . S
H1632 C1662 0.950 . S
H1633 C1663 0.950 . S
C1634 H1616 0.951 . S
C1634 C1635 1.366 . S
C1634 C1636 1.388 . S
C1635 C1634 1.366 . S
C1635 C1639 1.385 . S
C1636 H1617 0.951 . S
C1636 C1634 1.388 . S
C1636 C1637 1.366 . S
C1637 C1636 1.366 . S
C1637 C1638 1.414 . S
C1637 C1640 1.499 . S
C1638 H1618 0.950 . S
C1638 C1637 1.414 . S
C1638 C1639 1.374 . S
C1639 H1619 0.950 . S
C1639 C1635 1.385 . S
C1639 C1638 1.374 . S
C1640 C1637 1.499 . S
C1640 C1641 1.373 . S
C1640 C1642 1.389 . S
C1641 H1620 0.950 . S
C1641 C1640 1.373 . S
C1641 C1657 1.377 . S
C1642 C1640 1.389 . S
C1642 C1643 1.524 . S
C1642 C1656 1.377 . S
C1643 C1642 1.524 . S
C1643 C1644 1.397 . S
C1643 C1648 1.363 . S
C1644 H1621 0.950 . S
C1644 C1643 1.397 . S
C1644 C1645 1.334 . S
C1645 H1622 0.950 . S
C1645 C1644 1.334 . S
C1645 C1646 1.287 . S
C1646 C1645 1.287 . S
C1646 C1647 1.524 . S
C1646 H1665 0.913 . S
C1647 H1623 0.950 . S
C1647 C1646 1.524 . S
C1647 C1648 1.415 . S
C1648 H1624 0.950 . S
C1648 C1643 1.363 . S
C1648 C1647 1.415 . S
C1649 H1625 0.951 . S
C1649 C1650 1.366 . S
C1649 C1651 1.388 . S
C1650 C1649 1.366 . S
C1650 C1654 1.385 . S
C1651 H1626 0.951 . S
C1651 C1649 1.388 . S
C1651 C1652 1.366 . S
C1652 C1651 1.366 . S
C1652 C1653 1.414 . S
C1652 C1655 1.499 . S
C1653 H1627 0.950 . S
C1653 C1652 1.414 . S
C1653 C1654 1.374 . S
C1654 H1628 0.950 . S
C1654 C1650 1.385 . S
C1654 C1653 1.374 . S
C1655 C1652 1.499 . S
C1655 C1656 1.373 . S
C1655 C1657 1.389 . S
C1656 H1629 0.950 . S
C1656 C1642 1.377 . S
C1656 C1655 1.373 . S
C1657 C1641 1.377 . S
C1657 C1655 1.389 . S
C1657 C1658 1.524 . S
C1658 C1657 1.524 . S
C1658 C1659 1.397 . S
C1658 C1663 1.363 . S
C1659 H1630 0.950 . S
C1659 C1658 1.397 . S
C1659 C1660 1.334 . S
C1660 H1631 0.950 . S
C1660 C1659 1.334 . S
C1660 C1661 1.287 . S
C1661 C1660 1.287 . S
C1661 C1662 1.524 . S
C1661 H1664 0.999 . S
C1662 H1632 0.950 . S
C1662 C1661 1.524 . S
C1662 C1663 1.415 . S
C1663 H1633 0.950 . S
C1663 C1658 1.363 . S
C1663 C1662 1.415 . S
H1664 C1661 0.999 . S
H1665 C1646 0.913 . S
H1666 C1684 0.951 . S
H1667 C1686 0.951 . S
H1668 C1688 0.950 . S
H1669 C1689 0.950 . S
H1670 C1691 0.950 . S
H1671 C1694 0.950 . S
H1672 C1695 0.950 . S
H1673 C1697 0.950 . S
H1674 C1698 0.950 . S
H1675 C1699 0.951 . S
H1676 C1701 0.951 . S
H1677 C1703 0.950 . S
H1678 C1704 0.950 . S
H1679 C1706 0.950 . S
H1680 C1709 0.950 . S
H1681 C1710 0.950 . S
H1682 C1712 0.950 . S
H1683 C1713 0.950 . S
C1684 H1666 0.951 . S
C1684 C1685 1.366 . S
C1684 C1686 1.388 . S
C1685 C1684 1.366 . S
C1685 C1689 1.385 . S
C1686 H1667 0.951 . S
C1686 C1684 1.388 . S
C1686 C1687 1.366 . S
C1687 C1686 1.366 . S
C1687 C1688 1.414 . S
C1687 C1690 1.499 . S
C1688 H1668 0.950 . S
C1688 C1687 1.414 . S
C1688 C1689 1.374 . S
C1689 H1669 0.950 . S
C1689 C1685 1.385 . S
C1689 C1688 1.374 . S
C1690 C1687 1.499 . S
C1690 C1691 1.373 . S
C1690 C1692 1.389 . S
C1691 H1670 0.950 . S
C1691 C1690 1.373 . S
C1691 C1707 1.377 . S
C1692 C1690 1.389 . S
C1692 C1693 1.524 . S
C1692 C1706 1.377 . S
C1693 C1692 1.524 . S
C1693 C1694 1.397 . S
C1693 C1698 1.363 . S
C1694 H1671 0.950 . S
C1694 C1693 1.397 . S
C1694 C1695 1.334 . S
C1695 H1672 0.950 . S
C1695 C1694 1.334 . S
C1695 C1696 1.287 . S
C1696 C1695 1.287 . S
C1696 C1697 1.524 . S
C1696 H1715 0.913 . S
C1697 H1673 0.950 . S
C1697 C1696 1.524 . S
C1697 C1698 1.415 . S
C1698 H1674 0.950 . S
C1698 C1693 1.363 . S
C1698 C1697 1.415 . S
C1699 H1675 0.951 . S
C1699 C1700 1.366 . S
C1699 C1701 1.388 . S
C1700 C1699 1.366 . S
C1700 C1704 1.385 . S
C1701 H1676 0.951 . S
C1701 C1699 1.388 . S
C1701 C1702 1.366 . S
C1702 C1701 1.366 . S
C1702 C1703 1.414 . S
C1702 C1705 1.499 . S
C1703 H1677 0.950 . S
C1703 C1702 1.414 . S
C1703 C1704 1.374 . S
C1704 H1678 0.950 . S
C1704 C1700 1.385 . S
C1704 C1703 1.374 . S
C1705 C1702 1.499 . S
C1705 C1706 1.373 . S
C1705 C1707 1.389 . S
C1706 H1679 0.950 . S
C1706 C1692 1.377 . S
C1706 C1705 1.373 . S
C1707 C1691 1.377 . S
C1707 C1705 1.389 . S
C1707 C1708 1.524 . S
C1708 C1707 1.524 . S
C1708 C1709 1.397 . S
C1708 C1713 1.363 . S
C1709 H1680 0.950 . S
C1709 C1708 1.397 . S
C1709 C1710 1.334 . S
C1710 H1681 0.950 . S
C1710 C1709 1.334 . S
C1710 C1711 1.287 . S
C1711 C1710 1.287 . S
C1711 C1712 1.524 . S
C1711 H1714 0.999 . S
C1712 H1682 0.950 . S
C1712 C1711 1.524 . S
C1712 C1713 1.415 . S
C1713 H1683 0.950 . S
C1713 C1708 1.363 . S
C1713 C1712 1.415 . S
H1714 C1711 0.999 . S
H1715 C1696 0.913 . S
H1716 C1734 0.951 . S
H1717 C1736 0.951 . S
H1718 C1738 0.950 . S
H1719 C1739 0.950 . S
H1720 C1741 0.950 . S
H1721 C1744 0.950 . S
H1722 C1745 0.950 . S
H1723 C1747 0.950 . S
H1724 C1748 0.950 . S
H1725 C1749 0.951 . S
H1726 C1751 0.951 . S
H1727 C1753 0.950 . S
H1728 C1754 0.950 . S
H1729 C1756 0.950 . S
H1730 C1759 0.950 . S
H1731 C1760 0.950 . S
H1732 C1762 0.950 . S
H1733 C1763 0.950 . S
C1734 H1716 0.951 . S
C1734 C1735 1.366 . S
C1734 C1736 1.388 . S
C1735 C1734 1.366 . S
C1735 C1739 1.385 . S
C1736 H1717 0.951 . S
C1736 C1734 1.388 . S
C1736 C1737 1.366 . S
C1737 C1736 1.366 . S
C1737 C1738 1.414 . S
C1737 C1740 1.499 . S
C1738 H1718 0.950 . S
C1738 C1737 1.414 . S
C1738 C1739 1.374 . S
C1739 H1719 0.950 . S
C1739 C1735 1.385 . S
C1739 C1738 1.374 . S
C1740 C1737 1.499 . S
C1740 C1741 1.373 . S
C1740 C1742 1.389 . S
C1741 H1720 0.950 . S
C1741 C1740 1.373 . S
C1741 C1757 1.377 . S
C1742 C1740 1.389 . S
C1742 C1743 1.524 . S
C1742 C1756 1.377 . S
C1743 C1742 1.524 . S
C1743 C1744 1.397 . S
C1743 C1748 1.363 . S
C1744 H1721 0.950 . S
C1744 C1743 1.397 . S
C1744 C1745 1.334 . S
C1745 H1722 0.950 . S
C1745 C1744 1.334 . S
C1745 C1746 1.287 . S
C1746 C1745 1.287 . S
C1746 C1747 1.524 . S
C1746 H1765 0.913 . S
C1747 H1723 0.950 . S
C1747 C1746 1.524 . S
C1747 C1748 1.415 . S
C1748 H1724 0.950 . S
C1748 C1743 1.363 . S
C1748 C1747 1.415 . S
C1749 H1725 0.951 . S
C1749 C1750 1.366 1_556 S
C1749 C1751 1.388 . S
C1750 C1749 1.366 1_554 S
C1750 C1754 1.385 . S
C1751 H1726 0.951 . S
C1751 C1749 1.388 . S
C1751 C1752 1.366 . S
C1752 C1751 1.366 . S
C1752 C1753 1.414 . S
C1752 C1755 1.499 . S
C1753 H1727 0.950 . S
C1753 C1752 1.414 . S
C1753 C1754 1.374 1_556 S
C1754 H1728 0.950 . S
C1754 C1750 1.385 . S
C1754 C1753 1.374 1_554 S
C1755 C1752 1.499 . S
C1755 C1756 1.373 . S
C1755 C1757 1.389 . S
C1756 H1729 0.950 . S
C1756 C1742 1.377 . S
C1756 C1755 1.373 . S
C1757 C1741 1.377 . S
C1757 C1755 1.389 . S
C1757 C1758 1.524 . S
C1758 C1757 1.524 . S
C1758 C1759 1.397 . S
C1758 C1763 1.363 . S
C1759 H1730 0.950 . S
C1759 C1758 1.397 . S
C1759 C1760 1.334 1_556 S
C1760 H1731 0.950 . S
C1760 C1759 1.334 1_554 S
C1760 C1761 1.287 1_554 S
C1761 C1760 1.287 1_556 S
C1761 C1762 1.524 . S
C1761 H1764 0.999 . S
C1762 H1732 0.950 . S
C1762 C1761 1.524 . S
C1762 C1763 1.415 . S
C1763 H1733 0.950 . S
C1763 C1758 1.363 . S
C1763 C1762 1.415 . S
H1764 C1761 0.999 . S
H1765 C1746 0.913 . S
H1766 C1784 0.951 . S
H1767 C1786 0.951 . S
H1768 C1788 0.950 . S
H1769 C1789 0.950 . S
H1770 C1791 0.950 . S
H1771 C1794 0.950 . S
H1772 C1795 0.950 . S
H1773 C1797 0.950 . S
H1774 C1798 0.950 . S
H1775 C1799 0.951 . S
H1776 C1801 0.951 . S
H1777 C1803 0.950 . S
H1778 C1804 0.950 . S
H1779 C1806 0.950 . S
H1780 C1809 0.950 . S
H1781 C1810 0.950 . S
H1782 C1812 0.950 . S
H1783 C1813 0.950 . S
C1784 H1766 0.951 . S
C1784 C1785 1.366 . S
C1784 C1786 1.388 . S
C1785 C1784 1.366 . S
C1785 C1789 1.385 . S
C1786 H1767 0.951 . S
C1786 C1784 1.388 . S
C1786 C1787 1.366 . S
C1787 C1786 1.366 . S
C1787 C1788 1.414 . S
C1787 C1790 1.499 . S
C1788 H1768 0.950 . S
C1788 C1787 1.414 . S
C1788 C1789 1.374 . S
C1789 H1769 0.950 . S
C1789 C1785 1.385 . S
C1789 C1788 1.374 . S
C1790 C1787 1.499 . S
C1790 C1791 1.373 . S
C1790 C1792 1.389 . S
C1791 H1770 0.950 . S
C1791 C1790 1.373 . S
C1791 C1807 1.377 . S
C1792 C1790 1.389 . S
C1792 C1793 1.524 . S
C1792 C1806 1.377 . S
C1793 C1792 1.524 . S
C1793 C1794 1.397 . S
C1793 C1798 1.363 . S
C1794 H1771 0.950 . S
C1794 C1793 1.397 . S
C1794 C1795 1.334 . S
C1795 H1772 0.950 . S
C1795 C1794 1.334 . S
C1795 C1796 1.287 . S
C1796 C1795 1.287 . S
C1796 C1797 1.524 . S
C1796 H1815 0.913 . S
C1797 H1773 0.950 . S
C1797 C1796 1.524 . S
C1797 C1798 1.415 . S
C1798 H1774 0.950 . S
C1798 C1793 1.363 . S
C1798 C1797 1.415 . S
C1799 H1775 0.951 . S
C1799 C1800 1.366 . S
C1799 C1801 1.388 1_556 S
C1800 C1799 1.366 . S
C1800 C1804 1.385 1_556 S
C1801 H1776 0.951 . S
C1801 C1799 1.388 1_554 S
C1801 C1802 1.366 . S
C1802 C1801 1.366 . S
C1802 C1803 1.414 . S
C1802 C1805 1.499 . S
C1803 H1777 0.950 . S
C1803 C1802 1.414 . S
C1803 C1804 1.374 . S
C1804 H1778 0.950 . S
C1804 C1800 1.385 1_554 S
C1804 C1803 1.374 . S
C1805 C1802 1.499 . S
C1805 C1806 1.373 . S
C1805 C1807 1.389 . S
C1806 H1779 0.950 . S
C1806 C1792 1.377 . S
C1806 C1805 1.373 . S
C1807 C1791 1.377 . S
C1807 C1805 1.389 . S
C1807 C1808 1.524 . S
C1808 C1807 1.524 . S
C1808 C1809 1.397 . S
C1808 C1813 1.363 . S
C1809 H1780 0.950 . S
C1809 C1808 1.397 . S
C1809 C1810 1.334 . S
C1810 H1781 0.950 . S
C1810 C1809 1.334 . S
C1810 C1811 1.287 . S
C1811 C1810 1.287 . S
C1811 C1812 1.524 . S
C1811 H1814 0.999 . S
C1812 H1782 0.950 . S
C1812 C1811 1.524 . S
C1812 C1813 1.415 . S
C1813 H1783 0.950 . S
C1813 C1808 1.363 . S
C1813 C1812 1.415 . S
H1814 C1811 0.999 . S
H1815 C1796 0.913 . S
H1816 C1834 0.951 . S
H1817 C1836 0.951 . S
H1818 C1838 0.950 . S
H1819 C1839 0.950 . S
H1820 C1841 0.950 . S
H1821 C1844 0.950 . S
H1822 C1845 0.950 . S
H1823 C1847 0.950 . S
H1824 C1848 0.950 . S
H1825 C1849 0.951 . S
H1826 C1851 0.951 . S
H1827 C1853 0.950 . S
H1828 C1854 0.950 . S
H1829 C1856 0.950 . S
H1830 C1859 0.950 . S
H1831 C1860 0.950 . S
H1832 C1862 0.950 . S
H1833 C1863 0.950 . S
C1834 H1816 0.951 . S
C1834 C1835 1.366 . S
C1834 C1836 1.388 . S
C1835 C1834 1.366 . S
C1835 C1839 1.385 . S
C1836 H1817 0.951 . S
C1836 C1834 1.388 . S
C1836 C1837 1.366 . S
C1837 C1836 1.366 . S
C1837 C1838 1.414 . S
C1837 C1840 1.499 . S
C1838 H1818 0.950 . S
C1838 C1837 1.414 . S
C1838 C1839 1.374 . S
C1839 H1819 0.950 . S
C1839 C1835 1.385 . S
C1839 C1838 1.374 . S
C1840 C1837 1.499 . S
C1840 C1841 1.373 . S
C1840 C1842 1.389 . S
C1841 H1820 0.950 . S
C1841 C1840 1.373 . S
C1841 C1857 1.377 . S
C1842 C1840 1.389 . S
C1842 C1843 1.524 . S
C1842 C1856 1.377 . S
C1843 C1842 1.524 . S
C1843 C1844 1.397 . S
C1843 C1848 1.363 . S
C1844 H1821 0.950 . S
C1844 C1843 1.397 . S
C1844 C1845 1.334 . S
C1845 H1822 0.950 . S
C1845 C1844 1.334 . S
C1845 C1846 1.287 . S
C1846 C1845 1.287 . S
C1846 C1847 1.524 . S
C1846 H1865 0.913 . S
C1847 H1823 0.950 . S
C1847 C1846 1.524 . S
C1847 C1848 1.415 . S
C1848 H1824 0.950 . S
C1848 C1843 1.363 . S
C1848 C1847 1.415 . S
C1849 H1825 0.951 . S
C1849 C1850 1.366 . S
C1849 C1851 1.388 . S
C1850 C1849 1.366 . S
C1850 C1854 1.385 . S
C1851 H1826 0.951 . S
C1851 C1849 1.388 . S
C1851 C1852 1.366 . S
C1852 C1851 1.366 . S
C1852 C1853 1.414 . S
C1852 C1855 1.499 . S
C1853 H1827 0.950 . S
C1853 C1852 1.414 . S
C1853 C1854 1.374 . S
C1854 H1828 0.950 . S
C1854 C1850 1.385 . S
C1854 C1853 1.374 . S
C1855 C1852 1.499 . S
C1855 C1856 1.373 . S
C1855 C1857 1.389 . S
C1856 H1829 0.950 . S
C1856 C1842 1.377 . S
C1856 C1855 1.373 . S
C1857 C1841 1.377 . S
C1857 C1855 1.389 . S
C1857 C1858 1.524 . S
C1858 C1857 1.524 . S
C1858 C1859 1.397 . S
C1858 C1863 1.363 . S
C1859 H1830 0.950 . S
C1859 C1858 1.397 . S
C1859 C1860 1.334 . S
C1860 H1831 0.950 . S
C1860 C1859 1.334 . S
C1860 C1861 1.287 . S
C1861 C1860 1.287 . S
C1861 C1862 1.524 . S
C1861 H1864 0.999 . S
C1862 H1832 0.950 . S
C1862 C1861 1.524 . S
C1862 C1863 1.415 . S
C1863 H1833 0.950 . S
C1863 C1858 1.363 . S
C1863 C1862 1.415 . S
H1864 C1861 0.999 . S
H1865 C1846 0.913 . S
H1866 C1884 0.951 . S
H1867 C1886 0.951 . S
H1868 C1888 0.950 . S
H1869 C1889 0.950 . S
H1870 C1891 0.950 . S
H1871 C1894 0.950 . S
H1872 C1895 0.950 . S
H1873 C1897 0.950 . S
H1874 C1898 0.950 . S
H1875 C1899 0.951 . S
H1876 C1901 0.951 . S
H1877 C1903 0.950 . S
H1878 C1904 0.950 . S
H1879 C1906 0.950 . S
H1880 C1909 0.950 . S
H1881 C1910 0.950 . S
H1882 C1912 0.950 . S
H1883 C1913 0.950 . S
C1884 H1866 0.951 . S
C1884 C1885 1.366 . S
C1884 C1886 1.388 . S
C1885 C1884 1.366 . S
C1885 C1889 1.385 . S
C1886 H1867 0.951 . S
C1886 C1884 1.388 . S
C1886 C1887 1.366 . S
C1887 C1886 1.366 . S
C1887 C1888 1.414 . S
C1887 C1890 1.499 . S
C1888 H1868 0.950 . S
C1888 C1887 1.414 . S
C1888 C1889 1.374 . S
C1889 H1869 0.950 . S
C1889 C1885 1.385 . S
C1889 C1888 1.374 . S
C1890 C1887 1.499 . S
C1890 C1891 1.373 . S
C1890 C1892 1.389 . S
C1891 H1870 0.950 . S
C1891 C1890 1.373 . S
C1891 C1907 1.377 . S
C1892 C1890 1.389 . S
C1892 C1893 1.524 . S
C1892 C1906 1.377 . S
C1893 C1892 1.524 . S
C1893 C1894 1.397 . S
C1893 C1898 1.363 . S
C1894 H1871 0.950 . S
C1894 C1893 1.397 . S
C1894 C1895 1.334 . S
C1895 H1872 0.950 . S
C1895 C1894 1.334 . S
C1895 C1896 1.287 . S
C1896 C1895 1.287 . S
C1896 C1897 1.524 . S
C1896 H1915 0.913 . S
C1897 H1873 0.950 . S
C1897 C1896 1.524 . S
C1897 C1898 1.415 . S
C1898 H1874 0.950 . S
C1898 C1893 1.363 . S
C1898 C1897 1.415 . S
C1899 H1875 0.951 . S
C1899 C1900 1.366 . S
C1899 C1901 1.388 . S
C1900 C1899 1.366 . S
C1900 C1904 1.385 . S
C1901 H1876 0.951 . S
C1901 C1899 1.388 . S
C1901 C1902 1.366 . S
C1902 C1901 1.366 . S
C1902 C1903 1.414 . S
C1902 C1905 1.499 . S
C1903 H1877 0.950 . S
C1903 C1902 1.414 . S
C1903 C1904 1.374 . S
C1904 H1878 0.950 . S
C1904 C1900 1.385 . S
C1904 C1903 1.374 . S
C1905 C1902 1.499 . S
C1905 C1906 1.373 . S
C1905 C1907 1.389 . S
C1906 H1879 0.950 . S
C1906 C1892 1.377 . S
C1906 C1905 1.373 . S
C1907 C1891 1.377 . S
C1907 C1905 1.389 . S
C1907 C1908 1.524 . S
C1908 C1907 1.524 . S
C1908 C1909 1.397 . S
C1908 C1913 1.363 . S
C1909 H1880 0.950 . S
C1909 C1908 1.397 . S
C1909 C1910 1.334 . S
C1910 H1881 0.950 . S
C1910 C1909 1.334 . S
C1910 C1911 1.287 . S
C1911 C1910 1.287 . S
C1911 C1912 1.524 . S
C1911 H1914 0.999 . S
C1912 H1882 0.950 . S
C1912 C1911 1.524 . S
C1912 C1913 1.415 . S
C1913 H1883 0.950 . S
C1913 C1908 1.363 . S
C1913 C1912 1.415 . S
H1914 C1911 0.999 . S
H1915 C1896 0.913 . S
H1916 C1934 0.951 . S
H1917 C1936 0.951 . S
H1918 C1938 0.950 . S
H1919 C1939 0.950 . S
H1920 C1941 0.950 . S
H1921 C1944 0.950 . S
H1922 C1945 0.950 1_556 S
H1923 C1947 0.950 . S
H1924 C1948 0.950 . S
H1925 C1949 0.951 . S
H1926 C1951 0.951 . S
H1927 C1953 0.950 . S
H1928 C1954 0.950 . S
H1929 C1956 0.950 . S
H1930 C1959 0.950 . S
H1931 C1960 0.950 . S
H1932 C1962 0.950 . S
H1933 C1963 0.950 . S
C1934 H1916 0.951 . S
C1934 C1935 1.366 1_554 S
C1934 C1936 1.388 . S
C1935 C1934 1.366 1_556 S
C1935 C1939 1.385 . S
C1936 H1917 0.951 . S
C1936 C1934 1.388 . S
C1936 C1937 1.366 . S
C1937 C1936 1.366 . S
C1937 C1938 1.414 . S
C1937 C1940 1.499 . S
C1938 H1918 0.950 . S
C1938 C1937 1.414 . S
C1938 C1939 1.374 1_554 S
C1939 H1919 0.950 . S
C1939 C1935 1.385 . S
C1939 C1938 1.374 1_556 S
C1940 C1937 1.499 . S
C1940 C1941 1.373 . S
C1940 C1942 1.389 . S
C1941 H1920 0.950 . S
C1941 C1940 1.373 . S
C1941 C1957 1.377 . S
C1942 C1940 1.389 . S
C1942 C1943 1.524 . S
C1942 C1956 1.377 . S
C1943 C1942 1.524 . S
C1943 C1944 1.397 . S
C1943 C1948 1.363 . S
C1944 H1921 0.950 . S
C1944 C1943 1.397 . S
C1944 C1945 1.334 . S
C1945 H1922 0.950 1_554 S
C1945 C1944 1.334 . S
C1945 C1946 1.287 . S
C1946 C1945 1.287 . S
C1946 C1947 1.524 . S
C1946 H1965 0.913 . S
C1947 H1923 0.950 . S
C1947 C1946 1.524 . S
C1947 C1948 1.415 . S
C1948 H1924 0.950 . S
C1948 C1943 1.363 . S
C1948 C1947 1.415 . S
C1949 H1925 0.951 . S
C1949 C1950 1.366 . S
C1949 C1951 1.388 . S
C1950 C1949 1.366 . S
C1950 C1954 1.385 . S
C1951 H1926 0.951 . S
C1951 C1949 1.388 . S
C1951 C1952 1.366 . S
C1952 C1951 1.366 . S
C1952 C1953 1.414 . S
C1952 C1955 1.499 . S
C1953 H1927 0.950 . S
C1953 C1952 1.414 . S
C1953 C1954 1.374 . S
C1954 H1928 0.950 . S
C1954 C1950 1.385 . S
C1954 C1953 1.374 . S
C1955 C1952 1.499 . S
C1955 C1956 1.373 . S
C1955 C1957 1.389 . S
C1956 H1929 0.950 . S
C1956 C1942 1.377 . S
C1956 C1955 1.373 . S
C1957 C1941 1.377 . S
C1957 C1955 1.389 . S
C1957 C1958 1.524 . S
C1958 C1957 1.524 . S
C1958 C1959 1.397 . S
C1958 C1963 1.363 . S
C1959 H1930 0.950 . S
C1959 C1958 1.397 . S
C1959 C1960 1.334 . S
C1960 H1931 0.950 . S
C1960 C1959 1.334 . S
C1960 C1961 1.287 . S
C1961 C1960 1.287 . S
C1961 C1962 1.524 . S
C1961 H1964 0.999 . S
C1962 H1932 0.950 . S
C1962 C1961 1.524 . S
C1962 C1963 1.415 . S
C1963 H1933 0.950 . S
C1963 C1958 1.363 . S
C1963 C1962 1.415 . S
H1964 C1961 0.999 . S
H1965 C1946 0.913 . S
H1966 C1984 0.951 . S
H1967 C1986 0.951 . S
H1968 C1988 0.950 . S
H1969 C1989 0.950 . S
H1970 C1991 0.950 . S
H1971 C1994 0.950 . S
H1972 C1995 0.950 . S
H1973 C1997 0.950 . S
H1974 C1998 0.950 . S
H1975 C1999 0.951 1_554 S
H1976 C2001 0.951 . S
H1977 C2003 0.950 . S
H1978 C2004 0.945 1_554 S
H1979 C2006 0.950 . S
H1980 C2009 0.950 . S
H1981 C2010 0.950 . S
H1982 C2012 0.950 . S
H1983 C2013 0.950 . S
C1984 H1966 0.951 . S
C1984 C1985 1.366 . S
C1984 C1986 1.388 . S
C1985 C1984 1.366 . S
C1985 C1989 1.385 . S
C1986 H1967 0.951 . S
C1986 C1984 1.388 . S
C1986 C1987 1.366 . S
C1987 C1986 1.366 . S
C1987 C1988 1.414 . S
C1987 C1990 1.499 . S
C1988 H1968 0.950 . S
C1988 C1987 1.414 . S
C1988 C1989 1.374 . S
C1989 H1969 0.950 . S
C1989 C1985 1.385 . S
C1989 C1988 1.374 . S
C1990 C1987 1.499 . S
C1990 C1991 1.373 . S
C1990 C1992 1.389 . S
C1991 H1970 0.950 . S
C1991 C1990 1.373 . S
C1991 C2007 1.377 . S
C1992 C1990 1.389 . S
C1992 C1993 1.524 . S
C1992 C2006 1.377 . S
C1993 C1992 1.524 . S
C1993 C1994 1.397 . S
C1993 C1998 1.363 . S
C1994 H1971 0.950 . S
C1994 C1993 1.397 . S
C1994 C1995 1.334 . S
C1995 H1972 0.950 . S
C1995 C1994 1.334 . S
C1995 C1996 1.287 . S
C1996 C1995 1.287 . S
C1996 C1997 1.524 . S
C1996 H2015 0.913 . S
C1997 H1973 0.950 . S
C1997 C1996 1.524 . S
C1997 C1998 1.415 . S
C1998 H1974 0.950 . S
C1998 C1993 1.363 . S
C1998 C1997 1.415 . S
C1999 H1975 0.951 1_556 S
C1999 C2000 1.366 1_556 S
C1999 C2001 1.388 . S
C2000 C1999 1.366 1_554 S
C2000 C2004 1.381 1_554 S
C2001 H1976 0.951 . S
C2001 C1999 1.388 . S
C2001 C2002 1.366 . S
C2002 C2001 1.366 . S
C2002 C2003 1.414 . S
C2002 C2005 1.499 . S
C2003 H1977 0.950 . S
C2003 C2002 1.414 . S
C2003 C2004 1.382 . S
C2004 H1978 0.945 1_556 S
C2004 C2000 1.381 1_556 S
C2004 C2003 1.382 . S
C2005 C2002 1.499 . S
C2005 C2006 1.373 . S
C2005 C2007 1.389 . S
C2006 H1979 0.950 . S
C2006 C1992 1.377 . S
C2006 C2005 1.373 . S
C2007 C1991 1.377 . S
C2007 C2005 1.389 . S
C2007 C2008 1.524 . S
C2008 C2007 1.524 . S
C2008 C2009 1.397 1_556 S
C2008 C2013 1.363 . S
C2009 H1980 0.950 . S
C2009 C2008 1.397 1_554 S
C2009 C2010 1.334 . S
C2010 H1981 0.950 . S
C2010 C2009 1.334 . S
C2010 C2011 1.287 . S
C2011 C2010 1.287 . S
C2011 C2012 1.524 1_554 S
C2011 H2014 0.999 . S
C2012 H1982 0.950 . S
C2012 C2011 1.524 1_556 S
C2012 C2013 1.415 . S
C2013 H1983 0.950 . S
C2013 C2008 1.363 . S
C2013 C2012 1.415 . S
H2014 C2011 0.999 . S
H2015 C1996 0.913 . S
H2016 C2034 0.951 . S
H2017 C2036 0.951 . S
H2018 C2038 0.950 . S
H2019 C2039 0.950 . S
H2020 C2041 0.950 . S
H2021 C2044 0.950 . S
H2022 C2045 0.950 . S
H2023 C2047 0.950 . S
H2024 C2048 0.950 . S
H2025 C2049 0.951 . S
H2026 C2051 0.951 . S
H2027 C2053 0.950 . S
H2028 C2054 0.950 . S
H2029 C2056 0.950 . S
H2030 C2059 0.950 . S
H2031 C2060 0.950 . S
H2032 C2062 0.950 . S
H2033 C2063 0.950 1_556 S
C2034 H2016 0.951 . S
C2034 C2035 1.366 . S
C2034 C2036 1.388 . S
C2035 C2034 1.366 . S
C2035 C2039 1.385 . S
C2036 H2017 0.951 . S
C2036 C2034 1.388 . S
C2036 C2037 1.366 . S
C2037 C2036 1.366 . S
C2037 C2038 1.414 . S
C2037 C2040 1.499 . S
C2038 H2018 0.950 . S
C2038 C2037 1.414 . S
C2038 C2039 1.374 . S
C2039 H2019 0.950 . S
C2039 C2035 1.385 . S
C2039 C2038 1.374 . S
C2040 C2037 1.499 . S
C2040 C2041 1.373 . S
C2040 C2042 1.389 . S
C2041 H2020 0.950 . S
C2041 C2040 1.373 . S
C2041 C2057 1.377 . S
C2042 C2040 1.389 . S
C2042 C2043 1.524 . S
C2042 C2056 1.377 . S
C2043 C2042 1.524 . S
C2043 C2044 1.397 . S
C2043 C2048 1.363 . S
C2044 H2021 0.950 . S
C2044 C2043 1.397 . S
C2044 C2045 1.334 . S
C2045 H2022 0.950 . S
C2045 C2044 1.334 . S
C2045 C2046 1.287 . S
C2046 C2045 1.287 . S
C2046 C2047 1.524 . S
C2046 H2065 0.913 . S
C2047 H2023 0.950 . S
C2047 C2046 1.524 . S
C2047 C2048 1.415 . S
C2048 H2024 0.950 . S
C2048 C2043 1.363 . S
C2048 C2047 1.415 . S
C2049 H2025 0.951 . S
C2049 C2050 1.366 . S
C2049 C2051 1.388 . S
C2050 C2049 1.366 . S
C2050 C2054 1.385 . S
C2051 H2026 0.951 . S
C2051 C2049 1.388 . S
C2051 C2052 1.366 . S
C2052 C2051 1.366 . S
C2052 C2053 1.414 . S
C2052 C2055 1.499 . S
C2053 H2027 0.950 . S
C2053 C2052 1.414 . S
C2053 C2054 1.374 . S
C2054 H2028 0.950 . S
C2054 C2050 1.385 . S
C2054 C2053 1.374 . S
C2055 C2052 1.499 . S
C2055 C2056 1.373 . S
C2055 C2057 1.389 . S
C2056 H2029 0.950 . S
C2056 C2042 1.377 . S
C2056 C2055 1.373 . S
C2057 C2041 1.377 . S
C2057 C2055 1.389 . S
C2057 C2058 1.524 . S
C2058 C2057 1.524 . S
C2058 C2059 1.397 . S
C2058 C2063 1.363 . S
C2059 H2030 0.950 . S
C2059 C2058 1.397 . S
C2059 C2060 1.334 . S
C2060 H2031 0.950 . S
C2060 C2059 1.334 . S
C2060 C2061 1.287 . S
C2061 C2060 1.287 . S
C2061 C2062 1.524 1_554 S
C2061 H2064 0.991 1_554 S
C2062 H2032 0.950 . S
C2062 C2061 1.524 1_556 S
C2062 C2063 1.415 1_556 S
C2063 H2033 0.950 1_554 S
C2063 C2058 1.363 . S
C2063 C2062 1.415 1_554 S
H2064 C2061 0.991 1_556 S
H2065 C2046 0.913 . S
H2066 C2084 0.951 . S
H2067 C2086 0.951 . S
H2068 C2088 0.950 . S
H2069 C2089 0.950 . S
H2070 C2091 0.950 . S
H2071 C2094 0.950 . S
H2072 C2095 0.950 . S
H2073 C2097 0.950 . S
H2074 C2098 0.950 . S
H2075 C2099 0.951 . S
H2076 C2101 0.951 . S
H2077 C2103 0.950 . S
H2078 C2104 0.950 . S
H2079 C2106 0.950 . S
H2080 C2109 0.950 . S
H2081 C2110 0.950 . S
H2082 C2112 0.950 . S
H2083 C2113 0.950 . S
C2084 H2066 0.951 . S
C2084 C2085 1.366 . S
C2084 C2086 1.388 . S
C2085 C2084 1.366 . S
C2085 C2089 1.385 . S
C2086 H2067 0.951 . S
C2086 C2084 1.388 . S
C2086 C2087 1.366 . S
C2087 C2086 1.366 . S
C2087 C2088 1.414 . S
C2087 C2090 1.499 . S
C2088 H2068 0.950 . S
C2088 C2087 1.414 . S
C2088 C2089 1.374 . S
C2089 H2069 0.950 . S
C2089 C2085 1.385 . S
C2089 C2088 1.374 . S
C2090 C2087 1.499 . S
C2090 C2091 1.373 . S
C2090 C2092 1.389 . S
C2091 H2070 0.950 . S
C2091 C2090 1.373 . S
C2091 C2107 1.377 1_655 S
C2092 C2090 1.389 . S
C2092 C2093 1.524 . S
C2092 C2106 1.377 1_655 S
C2093 C2092 1.524 . S
C2093 C2094 1.397 . S
C2093 C2098 1.363 . S
C2094 H2071 0.950 . S
C2094 C2093 1.397 . S
C2094 C2095 1.334 . S
C2095 H2072 0.950 . S
C2095 C2094 1.334 . S
C2095 C2096 1.287 . S
C2096 C2095 1.287 . S
C2096 C2097 1.524 . S
C2096 H2115 0.913 . S
C2097 H2073 0.950 . S
C2097 C2096 1.524 . S
C2097 C2098 1.415 . S
C2098 H2074 0.950 . S
C2098 C2093 1.363 . S
C2098 C2097 1.415 . S
C2099 H2075 0.951 . S
C2099 C2100 1.366 . S
C2099 C2101 1.388 . S
C2100 C2099 1.366 . S
C2100 C2104 1.385 . S
C2101 H2076 0.951 . S
C2101 C2099 1.388 . S
C2101 C2102 1.366 . S
C2102 C2101 1.366 . S
C2102 C2103 1.414 . S
C2102 C2105 1.499 . S
C2103 H2077 0.950 . S
C2103 C2102 1.414 . S
C2103 C2104 1.374 . S
C2104 H2078 0.950 . S
C2104 C2100 1.385 . S
C2104 C2103 1.374 . S
C2105 C2102 1.499 . S
C2105 C2106 1.373 . S
C2105 C2107 1.389 . S
C2106 H2079 0.950 . S
C2106 C2092 1.377 1_455 S
C2106 C2105 1.373 . S
C2107 C2091 1.377 1_455 S
C2107 C2105 1.389 . S
C2107 C2108 1.524 . S
C2108 C2107 1.524 . S
C2108 C2109 1.397 . S
C2108 C2113 1.363 . S
C2109 H2080 0.950 . S
C2109 C2108 1.397 . S
C2109 C2110 1.334 . S
C2110 H2081 0.950 . S
C2110 C2109 1.334 . S
C2110 C2111 1.287 . S
C2111 C2110 1.287 . S
C2111 C2112 1.524 . S
C2111 H2114 0.999 . S
C2112 H2082 0.950 . S
C2112 C2111 1.524 . S
C2112 C2113 1.415 . S
C2113 H2083 0.950 . S
C2113 C2108 1.363 . S
C2113 C2112 1.415 . S
H2114 C2111 0.999 . S
H2115 C2096 0.913 . S
H2116 C2134 0.951 . S
H2117 C2136 0.951 . S
H2118 C2138 0.950 . S
H2119 C2139 0.950 . S
H2120 C2141 0.950 . S
H2121 C2144 0.950 . S
H2122 C2145 0.950 . S
H2123 C2147 0.950 . S
H2124 C2148 0.950 . S
H2125 C2149 0.951 . S
H2126 C2151 0.951 . S
H2127 C2153 0.950 . S
H2128 C2154 0.950 . S
H2129 C2156 0.950 . S
H2130 C2159 0.950 . S
H2131 C2160 0.950 . S
H2132 C2162 0.950 . S
H2133 C2163 0.950 . S
C2134 H2116 0.951 . S
C2134 C2135 1.366 . S
C2134 C2136 1.388 . S
C2135 C2134 1.366 . S
C2135 C2139 1.385 . S
C2136 H2117 0.951 . S
C2136 C2134 1.388 . S
C2136 C2137 1.366 . S
C2137 C2136 1.366 . S
C2137 C2138 1.414 . S
C2137 C2140 1.499 . S
C2138 H2118 0.950 . S
C2138 C2137 1.414 . S
C2138 C2139 1.374 . S
C2139 H2119 0.950 . S
C2139 C2135 1.385 . S
C2139 C2138 1.374 . S
C2140 C2137 1.499 . S
C2140 C2141 1.373 . S
C2140 C2142 1.389 . S
C2141 H2120 0.950 . S
C2141 C2140 1.373 . S
C2141 C2157 1.377 . S
C2142 C2140 1.389 . S
C2142 C2143 1.524 . S
C2142 C2156 1.377 . S
C2143 C2142 1.524 . S
C2143 C2144 1.397 . S
C2143 C2148 1.363 . S
C2144 H2121 0.950 . S
C2144 C2143 1.397 . S
C2144 C2145 1.334 . S
C2145 H2122 0.950 . S
C2145 C2144 1.334 . S
C2145 C2146 1.287 . S
C2146 C2145 1.287 . S
C2146 C2147 1.524 . S
C2146 H2165 0.913 . S
C2147 H2123 0.950 . S
C2147 C2146 1.524 . S
C2147 C2148 1.415 . S
C2148 H2124 0.950 . S
C2148 C2143 1.363 . S
C2148 C2147 1.415 . S
C2149 H2125 0.951 . S
C2149 C2150 1.366 . S
C2149 C2151 1.388 . S
C2150 C2149 1.366 . S
C2150 C2154 1.385 . S
C2151 H2126 0.951 . S
C2151 C2149 1.388 . S
C2151 C2152 1.366 . S
C2152 C2151 1.366 . S
C2152 C2153 1.414 . S
C2152 C2155 1.499 . S
C2153 H2127 0.950 . S
C2153 C2152 1.414 . S
C2153 C2154 1.374 . S
C2154 H2128 0.950 . S
C2154 C2150 1.385 . S
C2154 C2153 1.374 . S
C2155 C2152 1.499 . S
C2155 C2156 1.373 . S
C2155 C2157 1.389 . S
C2156 H2129 0.950 . S
C2156 C2142 1.377 . S
C2156 C2155 1.373 . S
C2157 C2141 1.377 . S
C2157 C2155 1.389 . S
C2157 C2158 1.524 . S
C2158 C2157 1.524 . S
C2158 C2159 1.397 . S
C2158 C2163 1.363 . S
C2159 H2130 0.950 . S
C2159 C2158 1.397 . S
C2159 C2160 1.334 . S
C2160 H2131 0.950 . S
C2160 C2159 1.334 . S
C2160 C2161 1.287 . S
C2161 C2160 1.287 . S
C2161 C2162 1.524 . S
C2161 H2164 0.999 . S
C2162 H2132 0.950 . S
C2162 C2161 1.524 . S
C2162 C2163 1.415 . S
C2163 H2133 0.950 . S
C2163 C2158 1.363 . S
C2163 C2162 1.415 . S
H2164 C2161 0.999 . S
H2165 C2146 0.913 . S
H2166 C2184 0.951 . S
H2167 C2186 0.951 . S
H2168 C2188 0.950 . S
H2169 C2189 0.950 . S
H2170 C2191 0.950 . S
H2171 C2194 0.950 . S
H2172 C2195 0.950 . S
H2173 C2197 0.950 . S
H2174 C2198 0.950 . S
H2175 C2199 0.951 . S
H2176 C2201 0.951 . S
H2177 C2203 0.950 . S
H2178 C2204 0.950 . S
H2179 C2206 0.950 . S
H2180 C2209 0.950 . S
H2181 C2210 0.950 . S
H2182 C2212 0.950 . S
H2183 C2213 0.950 . S
C2184 H2166 0.951 . S
C2184 C2185 1.366 . S
C2184 C2186 1.388 . S
C2185 C2184 1.366 . S
C2185 C2189 1.385 . S
C2186 H2167 0.951 . S
C2186 C2184 1.388 . S
C2186 C2187 1.366 . S
C2187 C2186 1.366 . S
C2187 C2188 1.414 . S
C2187 C2190 1.499 . S
C2188 H2168 0.950 . S
C2188 C2187 1.414 . S
C2188 C2189 1.374 . S
C2189 H2169 0.950 . S
C2189 C2185 1.385 . S
C2189 C2188 1.374 . S
C2190 C2187 1.499 . S
C2190 C2191 1.373 . S
C2190 C2192 1.389 . S
C2191 H2170 0.950 . S
C2191 C2190 1.373 . S
C2191 C2207 1.377 . S
C2192 C2190 1.389 . S
C2192 C2193 1.524 . S
C2192 C2206 1.377 . S
C2193 C2192 1.524 . S
C2193 C2194 1.397 . S
C2193 C2198 1.363 . S
C2194 H2171 0.950 . S
C2194 C2193 1.397 . S
C2194 C2195 1.334 . S
C2195 H2172 0.950 . S
C2195 C2194 1.334 . S
C2195 C2196 1.287 . S
C2196 C2195 1.287 . S
C2196 C2197 1.524 . S
C2196 H2215 0.913 . S
C2197 H2173 0.950 . S
C2197 C2196 1.524 . S
C2197 C2198 1.415 . S
C2198 H2174 0.950 . S
C2198 C2193 1.363 . S
C2198 C2197 1.415 . S
C2199 H2175 0.951 . S
C2199 C2200 1.366 . S
C2199 C2201 1.388 . S
C2200 C2199 1.366 . S
C2200 C2204 1.385 . S
C2201 H2176 0.951 . S
C2201 C2199 1.388 . S
C2201 C2202 1.366 . S
C2202 C2201 1.366 . S
C2202 C2203 1.414 . S
C2202 C2205 1.499 . S
C2203 H2177 0.950 . S
C2203 C2202 1.414 . S
C2203 C2204 1.374 . S
C2204 H2178 0.950 . S
C2204 C2200 1.385 . S
C2204 C2203 1.374 . S
C2205 C2202 1.499 . S
C2205 C2206 1.373 . S
C2205 C2207 1.389 . S
C2206 H2179 0.950 . S
C2206 C2192 1.377 . S
C2206 C2205 1.373 . S
C2207 C2191 1.377 . S
C2207 C2205 1.389 . S
C2207 C2208 1.524 . S
C2208 C2207 1.524 . S
C2208 C2209 1.397 . S
C2208 C2213 1.363 . S
C2209 H2180 0.950 . S
C2209 C2208 1.397 . S
C2209 C2210 1.334 1_556 S
C2210 H2181 0.950 . S
C2210 C2209 1.334 1_554 S
C2210 C2211 1.287 . S
C2211 C2210 1.287 . S
C2211 C2212 1.524 . S
C2211 H2214 0.999 . S
C2212 H2182 0.950 . S
C2212 C2211 1.524 . S
C2212 C2213 1.415 1_554 S
C2213 H2183 0.950 . S
C2213 C2208 1.363 . S
C2213 C2212 1.415 1_556 S
H2214 C2211 0.999 . S
H2215 C2196 0.913 . S
H2216 C2234 0.951 . S
H2217 C2236 0.951 . S
H2218 C2238 0.950 . S
H2219 C2239 0.950 . S
H2220 C2241 0.950 . S
H2221 C2244 0.950 . S
H2222 C2245 0.950 . S
H2223 C2247 0.950 . S
H2224 C2248 0.950 . S
H2225 C2249 0.951 . S
H2226 C2251 0.951 . S
H2227 C2253 0.950 . S
H2228 C2254 0.950 . S
H2229 C2256 0.950 . S
H2230 C2259 0.950 . S
H2231 C2260 0.950 1_556 S
H2232 C2262 0.950 . S
H2233 C2263 0.950 . S
C2234 H2216 0.951 . S
C2234 C2235 1.366 . S
C2234 C2236 1.388 . S
C2235 C2234 1.366 . S
C2235 C2239 1.385 . S
C2236 H2217 0.951 . S
C2236 C2234 1.388 . S
C2236 C2237 1.366 . S
C2237 C2236 1.366 . S
C2237 C2238 1.414 . S
C2237 C2240 1.499 . S
C2238 H2218 0.950 . S
C2238 C2237 1.414 . S
C2238 C2239 1.374 . S
C2239 H2219 0.950 . S
C2239 C2235 1.385 . S
C2239 C2238 1.374 . S
C2240 C2237 1.499 . S
C2240 C2241 1.373 . S
C2240 C2242 1.389 . S
C2241 H2220 0.950 . S
C2241 C2240 1.373 . S
C2241 C2257 1.377 . S
C2242 C2240 1.389 . S
C2242 C2243 1.524 . S
C2242 C2256 1.377 . S
C2243 C2242 1.524 . S
C2243 C2244 1.397 . S
C2243 C2248 1.363 . S
C2244 H2221 0.950 . S
C2244 C2243 1.397 . S
C2244 C2245 1.334 . S
C2245 H2222 0.950 . S
C2245 C2244 1.334 . S
C2245 C2246 1.287 . S
C2246 C2245 1.287 . S
C2246 C2247 1.524 . S
C2246 H2265 0.913 . S
C2247 H2223 0.950 . S
C2247 C2246 1.524 . S
C2247 C2248 1.415 . S
C2248 H2224 0.950 . S
C2248 C2243 1.363 . S
C2248 C2247 1.415 . S
C2249 H2225 0.951 . S
C2249 C2250 1.366 . S
C2249 C2251 1.388 . S
C2250 C2249 1.366 . S
C2250 C2254 1.385 . S
C2251 H2226 0.951 . S
C2251 C2249 1.388 . S
C2251 C2252 1.366 . S
C2252 C2251 1.366 . S
C2252 C2253 1.414 . S
C2252 C2255 1.499 . S
C2253 H2227 0.950 . S
C2253 C2252 1.414 . S
C2253 C2254 1.374 . S
C2254 H2228 0.950 . S
C2254 C2250 1.385 . S
C2254 C2253 1.374 . S
C2255 C2252 1.499 . S
C2255 C2256 1.373 . S
C2255 C2257 1.389 . S
C2256 H2229 0.950 . S
C2256 C2242 1.377 . S
C2256 C2255 1.373 . S
C2257 C2241 1.377 . S
C2257 C2255 1.389 . S
C2257 C2258 1.524 . S
C2258 C2257 1.524 . S
C2258 C2259 1.397 . S
C2258 C2263 1.363 1_556 S
C2259 H2230 0.950 . S
C2259 C2258 1.397 . S
C2259 C2260 1.334 1_556 S
C2260 H2231 0.950 1_554 S
C2260 C2259 1.334 1_554 S
C2260 C2261 1.287 . S
C2261 C2260 1.287 . S
C2261 C2262 1.524 . S
C2261 H2264 0.999 . S
C2262 H2232 0.950 . S
C2262 C2261 1.524 . S
C2262 C2263 1.415 . S
C2263 H2233 0.950 . S
C2263 C2258 1.363 1_554 S
C2263 C2262 1.415 . S
H2264 C2261 0.999 . S
H2265 C2246 0.913 . S
H2266 C2284 0.951 . S
H2267 C2286 0.951 . S
H2268 C2288 0.950 . S
H2269 C2289 0.950 . S
H2270 C2291 0.950 . S
H2271 C2294 0.950 . S
H2272 C2295 0.950 . S
H2273 C2297 0.950 . S
H2274 C2298 0.950 . S
H2275 C2299 0.951 . S
H2276 C2301 0.951 . S
H2277 C2303 0.950 . S
H2278 C2304 0.950 . S
H2279 C2306 0.950 . S
H2280 C2309 0.950 . S
H2281 C2310 0.950 . S
H2282 C2312 0.950 . S
H2283 C2313 0.950 . S
C2284 H2266 0.951 . S
C2284 C2285 1.366 . S
C2284 C2286 1.388 . S
C2285 C2284 1.366 . S
C2285 C2289 1.385 . S
C2286 H2267 0.951 . S
C2286 C2284 1.388 . S
C2286 C2287 1.366 . S
C2287 C2286 1.366 . S
C2287 C2288 1.414 . S
C2287 C2290 1.499 . S
C2288 H2268 0.950 . S
C2288 C2287 1.414 . S
C2288 C2289 1.374 . S
C2289 H2269 0.950 . S
C2289 C2285 1.385 . S
C2289 C2288 1.374 . S
C2290 C2287 1.499 . S
C2290 C2291 1.373 . S
C2290 C2292 1.389 . S
C2291 H2270 0.950 . S
C2291 C2290 1.373 . S
C2291 C2307 1.377 . S
C2292 C2290 1.389 . S
C2292 C2293 1.524 . S
C2292 C2306 1.377 . S
C2293 C2292 1.524 . S
C2293 C2294 1.397 . S
C2293 C2298 1.363 . S
C2294 H2271 0.950 . S
C2294 C2293 1.397 . S
C2294 C2295 1.334 . S
C2295 H2272 0.950 . S
C2295 C2294 1.334 . S
C2295 C2296 1.287 . S
C2296 C2295 1.287 . S
C2296 C2297 1.524 . S
C2296 H2315 0.913 . S
C2297 H2273 0.950 . S
C2297 C2296 1.524 . S
C2297 C2298 1.415 . S
C2298 H2274 0.950 . S
C2298 C2293 1.363 . S
C2298 C2297 1.415 . S
C2299 H2275 0.951 . S
C2299 C2300 1.366 . S
C2299 C2301 1.388 . S
C2300 C2299 1.366 . S
C2300 C2304 1.385 . S
C2301 H2276 0.951 . S
C2301 C2299 1.388 . S
C2301 C2302 1.366 . S
C2302 C2301 1.366 . S
C2302 C2303 1.414 . S
C2302 C2305 1.499 . S
C2303 H2277 0.950 . S
C2303 C2302 1.414 . S
C2303 C2304 1.374 . S
C2304 H2278 0.950 . S
C2304 C2300 1.385 . S
C2304 C2303 1.374 . S
C2305 C2302 1.499 . S
C2305 C2306 1.373 . S
C2305 C2307 1.389 . S
C2306 H2279 0.950 . S
C2306 C2292 1.377 . S
C2306 C2305 1.373 . S
C2307 C2291 1.377 . S
C2307 C2305 1.389 . S
C2307 C2308 1.524 . S
C2308 C2307 1.524 . S
C2308 C2309 1.397 . S
C2308 C2313 1.363 . S
C2309 H2280 0.950 . S
C2309 C2308 1.397 . S
C2309 C2310 1.334 . S
C2310 H2281 0.950 . S
C2310 C2309 1.334 . S
C2310 C2311 1.287 . S
C2311 C2310 1.287 . S
C2311 C2312 1.524 . S
C2311 H2314 0.999 . S
C2312 H2282 0.950 . S
C2312 C2311 1.524 . S
C2312 C2313 1.415 . S
C2313 H2283 0.950 . S
C2313 C2308 1.363 . S
C2313 C2312 1.415 . S
H2314 C2311 0.999 . S
H2315 C2296 0.913 . S
H2316 C2334 0.951 . S
H2317 C2336 0.951 . S
H2318 C2338 0.950 . S
H2319 C2339 0.950 . S
H2320 C2341 0.950 . S
H2321 C2344 0.950 . S
H2322 C2345 0.950 . S
H2323 C2347 0.950 . S
H2324 C2348 0.950 . S
H2325 C2349 0.951 . S
H2326 C2351 0.951 . S
H2327 C2353 0.950 . S
H2328 C2354 0.950 . S
H2329 C2356 0.950 . S
H2330 C2359 0.950 . S
H2331 C2360 0.950 . S
H2332 C2362 0.950 . S
H2333 C2363 0.950 . S
C2334 H2316 0.951 . S
C2334 C2335 1.366 . S
C2334 C2336 1.388 . S
C2335 C2334 1.366 . S
C2335 C2339 1.385 . S
C2336 H2317 0.951 . S
C2336 C2334 1.388 . S
C2336 C2337 1.366 . S
C2337 C2336 1.366 . S
C2337 C2338 1.414 . S
C2337 C2340 1.499 . S
C2338 H2318 0.950 . S
C2338 C2337 1.414 . S
C2338 C2339 1.374 . S
C2339 H2319 0.950 . S
C2339 C2335 1.385 . S
C2339 C2338 1.374 . S
C2340 C2337 1.499 . S
C2340 C2341 1.373 . S
C2340 C2342 1.389 . S
C2341 H2320 0.950 . S
C2341 C2340 1.373 . S
C2341 C2357 1.377 . S
C2342 C2340 1.389 . S
C2342 C2343 1.524 . S
C2342 C2356 1.377 . S
C2343 C2342 1.524 . S
C2343 C2344 1.397 . S
C2343 C2348 1.363 . S
C2344 H2321 0.950 . S
C2344 C2343 1.397 . S
C2344 C2345 1.334 . S
C2345 H2322 0.950 . S
C2345 C2344 1.334 . S
C2345 C2346 1.287 . S
C2346 C2345 1.287 . S
C2346 C2347 1.524 . S
C2346 H2365 0.913 . S
C2347 H2323 0.950 . S
C2347 C2346 1.524 . S
C2347 C2348 1.415 . S
C2348 H2324 0.950 . S
C2348 C2343 1.363 . S
C2348 C2347 1.415 . S
C2349 H2325 0.951 . S
C2349 C2350 1.366 . S
C2349 C2351 1.388 . S
C2350 C2349 1.366 . S
C2350 C2354 1.385 . S
C2351 H2326 0.951 . S
C2351 C2349 1.388 . S
C2351 C2352 1.366 . S
C2352 C2351 1.366 . S
C2352 C2353 1.414 . S
C2352 C2355 1.499 . S
C2353 H2327 0.950 . S
C2353 C2352 1.414 . S
C2353 C2354 1.374 . S
C2354 H2328 0.950 . S
C2354 C2350 1.385 . S
C2354 C2353 1.374 . S
C2355 C2352 1.499 . S
C2355 C2356 1.373 . S
C2355 C2357 1.389 . S
C2356 H2329 0.950 . S
C2356 C2342 1.377 . S
C2356 C2355 1.373 . S
C2357 C2341 1.377 . S
C2357 C2355 1.389 . S
C2357 C2358 1.524 . S
C2358 C2357 1.524 . S
C2358 C2359 1.397 . S
C2358 C2363 1.363 . S
C2359 H2330 0.950 . S
C2359 C2358 1.397 . S
C2359 C2360 1.334 . S
C2360 H2331 0.950 . S
C2360 C2359 1.334 . S
C2360 C2361 1.287 . S
C2361 C2360 1.287 . S
C2361 C2362 1.524 . S
C2361 H2364 0.999 . S
C2362 H2332 0.950 . S
C2362 C2361 1.524 . S
C2362 C2363 1.415 . S
C2363 H2333 0.950 . S
C2363 C2358 1.363 . S
C2363 C2362 1.415 . S
H2364 C2361 0.999 . S
H2365 C2346 0.913 . S
H2366 C2384 0.951 . S
H2367 C2386 0.951 . S
H2368 C2388 0.950 . S
H2369 C2389 0.950 . S
H2370 C2391 0.950 . S
H2371 C2394 0.950 . S
H2372 C2395 0.950 . S
H2373 C2397 0.950 . S
H2374 C2398 0.950 . S
H2375 C2399 0.951 . S
H2376 C2401 0.951 . S
H2377 C2403 0.950 . S
H2378 C2404 0.950 . S
H2379 C2406 0.950 . S
H2380 C2409 0.950 . S
H2381 C2410 0.950 . S
H2382 C2412 0.950 . S
H2383 C2413 0.950 . S
C2384 H2366 0.951 . S
C2384 C2385 1.366 . S
C2384 C2386 1.388 . S
C2385 C2384 1.366 . S
C2385 C2389 1.385 . S
C2386 H2367 0.951 . S
C2386 C2384 1.388 . S
C2386 C2387 1.366 . S
C2387 C2386 1.366 . S
C2387 C2388 1.414 . S
C2387 C2390 1.499 . S
C2388 H2368 0.950 . S
C2388 C2387 1.414 . S
C2388 C2389 1.374 . S
C2389 H2369 0.950 . S
C2389 C2385 1.385 . S
C2389 C2388 1.374 . S
C2390 C2387 1.499 . S
C2390 C2391 1.373 . S
C2390 C2392 1.389 . S
C2391 H2370 0.950 . S
C2391 C2390 1.373 . S
C2391 C2407 1.377 1_655 S
C2392 C2390 1.389 . S
C2392 C2393 1.524 . S
C2392 C2406 1.377 1_655 S
C2393 C2392 1.524 . S
C2393 C2394 1.397 . S
C2393 C2398 1.363 . S
C2394 H2371 0.950 . S
C2394 C2393 1.397 . S
C2394 C2395 1.334 . S
C2395 H2372 0.950 . S
C2395 C2394 1.334 . S
C2395 C2396 1.287 . S
C2396 C2395 1.287 . S
C2396 C2397 1.524 . S
C2396 H2415 0.913 . S
C2397 H2373 0.950 . S
C2397 C2396 1.524 . S
C2397 C2398 1.415 . S
C2398 H2374 0.950 . S
C2398 C2393 1.363 . S
C2398 C2397 1.415 . S
C2399 H2375 0.951 . S
C2399 C2400 1.366 . S
C2399 C2401 1.388 . S
C2400 C2399 1.366 . S
C2400 C2404 1.385 . S
C2401 H2376 0.951 . S
C2401 C2399 1.388 . S
C2401 C2402 1.366 . S
C2402 C2401 1.366 . S
C2402 C2403 1.414 . S
C2402 C2405 1.499 . S
C2403 H2377 0.950 . S
C2403 C2402 1.414 . S
C2403 C2404 1.374 . S
C2404 H2378 0.950 . S
C2404 C2400 1.385 . S
C2404 C2403 1.374 . S
C2405 C2402 1.499 . S
C2405 C2406 1.373 . S
C2405 C2407 1.389 . S
C2406 H2379 0.950 . S
C2406 C2392 1.377 1_455 S
C2406 C2405 1.373 . S
C2407 C2391 1.377 1_455 S
C2407 C2405 1.389 . S
C2407 C2408 1.524 . S
C2408 C2407 1.524 . S
C2408 C2409 1.397 . S
C2408 C2413 1.363 . S
C2409 H2380 0.950 . S
C2409 C2408 1.397 . S
C2409 C2410 1.334 . S
C2410 H2381 0.950 . S
C2410 C2409 1.334 . S
C2410 C2411 1.287 . S
C2411 C2410 1.287 . S
C2411 C2412 1.524 . S
C2411 H2414 0.999 . S
C2412 H2382 0.950 . S
C2412 C2411 1.524 . S
C2412 C2413 1.415 . S
C2413 H2383 0.950 . S
C2413 C2408 1.363 . S
C2413 C2412 1.415 . S
H2414 C2411 0.999 . S
H2415 C2396 0.913 . S
H2416 C2434 0.951 . S
H2417 C2436 0.951 . S
H2418 C2438 0.950 . S
H2419 C2439 0.950 . S
H2420 C2441 0.950 . S
H2421 C2444 0.950 . S
H2422 C2445 0.950 . S
H2423 C2447 0.950 . S
H2424 C2448 0.950 . S
H2425 C2449 0.951 . S
H2426 C2451 0.951 . S
H2427 C2453 0.950 . S
H2428 C2454 0.950 . S
H2429 C2456 0.950 . S
H2430 C2459 0.950 1_556 S
H2431 C2460 0.950 . S
H2432 C2462 0.950 . S
H2433 C2463 0.950 . S
C2434 H2416 0.951 . S
C2434 C2435 1.366 . S
C2434 C2436 1.388 . S
C2435 C2434 1.366 . S
C2435 C2439 1.385 . S
C2436 H2417 0.951 . S
C2436 C2434 1.388 . S
C2436 C2437 1.366 . S
C2437 C2436 1.366 . S
C2437 C2438 1.414 . S
C2437 C2440 1.499 . S
C2438 H2418 0.950 . S
C2438 C2437 1.414 . S
C2438 C2439 1.374 . S
C2439 H2419 0.950 . S
C2439 C2435 1.385 . S
C2439 C2438 1.374 . S
C2440 C2437 1.499 . S
C2440 C2441 1.373 . S
C2440 C2442 1.389 . S
C2441 H2420 0.950 . S
C2441 C2440 1.373 . S
C2441 C2457 1.377 . S
C2442 C2440 1.389 . S
C2442 C2443 1.524 . S
C2442 C2456 1.377 . S
C2443 C2442 1.524 . S
C2443 C2444 1.397 . S
C2443 C2448 1.363 . S
C2444 H2421 0.950 . S
C2444 C2443 1.397 . S
C2444 C2445 1.334 . S
C2445 H2422 0.950 . S
C2445 C2444 1.334 . S
C2445 C2446 1.287 . S
C2446 C2445 1.287 . S
C2446 C2447 1.524 . S
C2446 H2465 0.913 . S
C2447 H2423 0.950 . S
C2447 C2446 1.524 . S
C2447 C2448 1.415 . S
C2448 H2424 0.950 . S
C2448 C2443 1.363 . S
C2448 C2447 1.415 . S
C2449 H2425 0.951 . S
C2449 C2450 1.366 . S
C2449 C2451 1.388 . S
C2450 C2449 1.366 . S
C2450 C2454 1.385 . S
C2451 H2426 0.951 . S
C2451 C2449 1.388 . S
C2451 C2452 1.366 . S
C2452 C2451 1.366 . S
C2452 C2453 1.414 . S
C2452 C2455 1.499 . S
C2453 H2427 0.950 . S
C2453 C2452 1.414 . S
C2453 C2454 1.374 . S
C2454 H2428 0.950 . S
C2454 C2450 1.385 . S
C2454 C2453 1.374 . S
C2455 C2452 1.499 . S
C2455 C2456 1.373 . S
C2455 C2457 1.389 . S
C2456 H2429 0.950 . S
C2456 C2442 1.377 . S
C2456 C2455 1.373 . S
C2457 C2441 1.377 . S
C2457 C2455 1.389 . S
C2457 C2458 1.524 . S
C2458 C2457 1.524 . S
C2458 C2459 1.397 1_556 S
C2458 C2463 1.363 . S
C2459 H2430 0.950 1_554 S
C2459 C2458 1.397 1_554 S
C2459 C2460 1.334 . S
C2460 H2431 0.950 . S
C2460 C2459 1.334 . S
C2460 C2461 1.287 . S
C2461 C2460 1.287 . S
C2461 C2462 1.524 . S
C2461 H2464 0.999 . S
C2462 H2432 0.950 . S
C2462 C2461 1.524 . S
C2462 C2463 1.415 1_554 S
C2463 H2433 0.950 . S
C2463 C2458 1.363 . S
C2463 C2462 1.415 1_556 S
H2464 C2461 0.999 . S
H2465 C2446 0.913 . S
H2466 C2484 0.951 . S
H2467 C2486 0.951 . S
H2468 C2488 0.950 . S
H2469 C2489 0.950 . S
H2470 C2491 0.950 . S
H2471 C2494 0.950 . S
H2472 C2495 0.950 . S
H2473 C2497 0.950 . S
H2474 C2498 0.950 . S
H2475 C2499 0.951 . S
H2476 C2501 0.951 . S
H2477 C2503 0.950 . S
H2478 C2504 0.950 . S
H2479 C2506 0.950 . S
H2480 C2509 0.950 . S
H2481 C2510 0.950 . S
H2482 C2512 0.950 . S
H2483 C2513 0.950 . S
C2484 H2466 0.951 . S
C2484 C2485 1.366 . S
C2484 C2486 1.388 . S
C2485 C2484 1.366 . S
C2485 C2489 1.385 . S
C2486 H2467 0.951 . S
C2486 C2484 1.388 . S
C2486 C2487 1.366 . S
C2487 C2486 1.366 . S
C2487 C2488 1.414 . S
C2487 C2490 1.499 . S
C2488 H2468 0.950 . S
C2488 C2487 1.414 . S
C2488 C2489 1.374 . S
C2489 H2469 0.950 . S
C2489 C2485 1.385 . S
C2489 C2488 1.374 . S
C2490 C2487 1.499 . S
C2490 C2491 1.373 . S
C2490 C2492 1.389 . S
C2491 H2470 0.950 . S
C2491 C2490 1.373 . S
C2491 C2507 1.377 . S
C2492 C2490 1.389 . S
C2492 C2493 1.524 . S
C2492 C2506 1.377 . S
C2493 C2492 1.524 . S
C2493 C2494 1.397 . S
C2493 C2498 1.363 . S
C2494 H2471 0.950 . S
C2494 C2493 1.397 . S
C2494 C2495 1.334 . S
C2495 H2472 0.950 . S
C2495 C2494 1.334 . S
C2495 C2496 1.287 . S
C2496 C2495 1.287 . S
C2496 C2497 1.524 . S
C2496 H2515 0.913 . S
C2497 H2473 0.950 . S
C2497 C2496 1.524 . S
C2497 C2498 1.415 . S
C2498 H2474 0.950 . S
C2498 C2493 1.363 . S
C2498 C2497 1.415 . S
C2499 H2475 0.951 . S
C2499 C2500 1.366 . S
C2499 C2501 1.388 . S
C2500 C2499 1.366 . S
C2500 C2504 1.385 . S
C2501 H2476 0.951 . S
C2501 C2499 1.388 . S
C2501 C2502 1.366 . S
C2502 C2501 1.366 . S
C2502 C2503 1.414 . S
C2502 C2505 1.499 . S
C2503 H2477 0.950 . S
C2503 C2502 1.414 . S
C2503 C2504 1.374 . S
C2504 H2478 0.950 . S
C2504 C2500 1.385 . S
C2504 C2503 1.374 . S
C2505 C2502 1.499 . S
C2505 C2506 1.373 . S
C2505 C2507 1.389 . S
C2506 H2479 0.950 . S
C2506 C2492 1.377 . S
C2506 C2505 1.373 . S
C2507 C2491 1.377 . S
C2507 C2505 1.389 . S
C2507 C2508 1.524 . S
C2508 C2507 1.524 . S
C2508 C2509 1.397 . S
C2508 C2513 1.363 . S
C2509 H2480 0.950 . S
C2509 C2508 1.397 . S
C2509 C2510 1.334 . S
C2510 H2481 0.950 . S
C2510 C2509 1.334 . S
C2510 C2511 1.287 . S
C2511 C2510 1.287 . S
C2511 C2512 1.524 . S
C2511 H2514 0.999 . S
C2512 H2482 0.950 . S
C2512 C2511 1.524 . S
C2512 C2513 1.415 . S
C2513 H2483 0.950 . S
C2513 C2508 1.363 . S
C2513 C2512 1.415 . S
H2514 C2511 0.999 . S
H2515 C2496 0.913 . S
H2516 C2534 0.951 . S
H2517 C2536 0.951 . S
H2518 C2538 0.950 . S
H2519 C2539 0.950 . S
H2520 C2541 0.950 . S
H2521 C2544 0.950 . S
H2522 C2545 0.950 . S
H2523 C2547 0.950 . S
H2524 C2548 0.950 . S
H2525 C2549 0.951 . S
H2526 C2551 0.951 . S
H2527 C2553 0.950 . S
H2528 C2554 0.950 . S
H2529 C2556 0.950 . S
H2530 C2559 0.950 . S
H2531 C2560 0.950 . S
H2532 C2562 0.950 . S
H2533 C2563 0.950 . S
C2534 H2516 0.951 . S
C2534 C2535 1.366 . S
C2534 C2536 1.388 . S
C2535 C2534 1.366 . S
C2535 C2539 1.385 . S
C2536 H2517 0.951 . S
C2536 C2534 1.388 . S
C2536 C2537 1.366 . S
C2537 C2536 1.366 . S
C2537 C2538 1.414 . S
C2537 C2540 1.499 . S
C2538 H2518 0.950 . S
C2538 C2537 1.414 . S
C2538 C2539 1.374 . S
C2539 H2519 0.950 . S
C2539 C2535 1.385 . S
C2539 C2538 1.374 . S
C2540 C2537 1.499 . S
C2540 C2541 1.373 . S
C2540 C2542 1.389 . S
C2541 H2520 0.950 . S
C2541 C2540 1.373 . S
C2541 C2557 1.377 . S
C2542 C2540 1.389 . S
C2542 C2543 1.524 . S
C2542 C2556 1.377 . S
C2543 C2542 1.524 . S
C2543 C2544 1.397 . S
C2543 C2548 1.363 . S
C2544 H2521 0.950 . S
C2544 C2543 1.397 . S
C2544 C2545 1.334 1_554 S
C2545 H2522 0.950 . S
C2545 C2544 1.334 1_556 S
C2545 C2546 1.287 . S
C2546 C2545 1.287 . S
C2546 C2547 1.524 1_556 S
C2546 H2565 0.913 . S
C2547 H2523 0.950 . S
C2547 C2546 1.524 1_554 S
C2547 C2548 1.415 . S
C2548 H2524 0.950 . S
C2548 C2543 1.363 . S
C2548 C2547 1.415 . S
C2549 H2525 0.951 . S
C2549 C2550 1.366 . S
C2549 C2551 1.388 . S
C2550 C2549 1.366 . S
C2550 C2554 1.385 . S
C2551 H2526 0.951 . S
C2551 C2549 1.388 . S
C2551 C2552 1.366 . S
C2552 C2551 1.366 . S
C2552 C2553 1.414 . S
C2552 C2555 1.499 . S
C2553 H2527 0.950 . S
C2553 C2552 1.414 . S
C2553 C2554 1.374 . S
C2554 H2528 0.950 . S
C2554 C2550 1.385 . S
C2554 C2553 1.374 . S
C2555 C2552 1.499 . S
C2555 C2556 1.373 . S
C2555 C2557 1.389 . S
C2556 H2529 0.950 . S
C2556 C2542 1.377 . S
C2556 C2555 1.373 . S
C2557 C2541 1.377 . S
C2557 C2555 1.389 . S
C2557 C2558 1.524 . S
C2558 C2557 1.524 . S
C2558 C2559 1.397 . S
C2558 C2563 1.363 . S
C2559 H2530 0.950 . S
C2559 C2558 1.397 . S
C2559 C2560 1.334 . S
C2560 H2531 0.950 . S
C2560 C2559 1.334 . S
C2560 C2561 1.287 . S
C2561 C2560 1.287 . S
C2561 C2562 1.524 . S
C2561 H2564 0.999 . S
C2562 H2532 0.950 . S
C2562 C2561 1.524 . S
C2562 C2563 1.415 . S
C2563 H2533 0.950 . S
C2563 C2558 1.363 . S
C2563 C2562 1.415 . S
H2564 C2561 0.999 . S
H2565 C2546 0.913 . S
H2566 C2584 0.951 . S
H2567 C2586 0.951 . S
H2568 C2588 0.950 . S
H2569 C2589 0.950 . S
H2570 C2591 0.950 . S
H2571 C2594 0.950 . S
H2572 C2595 0.950 . S
H2573 C2597 0.950 . S
H2574 C2598 0.950 . S
H2575 C2599 0.951 . S
H2576 C2601 0.951 . S
H2577 C2603 0.950 . S
H2578 C2604 0.950 . S
H2579 C2606 0.950 . S
H2580 C2609 0.950 . S
H2581 C2610 0.950 . S
H2582 C2612 0.950 . S
H2583 C2613 0.950 . S
C2584 H2566 0.951 . S
C2584 C2585 1.366 . S
C2584 C2586 1.388 . S
C2585 C2584 1.366 . S
C2585 C2589 1.385 . S
C2586 H2567 0.951 . S
C2586 C2584 1.388 . S
C2586 C2587 1.366 . S
C2587 C2586 1.366 . S
C2587 C2588 1.414 . S
C2587 C2590 1.499 . S
C2588 H2568 0.950 . S
C2588 C2587 1.414 . S
C2588 C2589 1.374 . S
C2589 H2569 0.950 . S
C2589 C2585 1.385 . S
C2589 C2588 1.374 . S
C2590 C2587 1.499 . S
C2590 C2591 1.373 . S
C2590 C2592 1.389 . S
C2591 H2570 0.950 . S
C2591 C2590 1.373 . S
C2591 C2607 1.377 . S
C2592 C2590 1.389 . S
C2592 C2593 1.524 . S
C2592 C2606 1.377 . S
C2593 C2592 1.524 . S
C2593 C2594 1.397 . S
C2593 C2598 1.363 . S
C2594 H2571 0.950 . S
C2594 C2593 1.397 . S
C2594 C2595 1.334 . S
C2595 H2572 0.950 . S
C2595 C2594 1.334 . S
C2595 C2596 1.287 . S
C2596 C2595 1.287 . S
C2596 C2597 1.524 . S
C2596 H2615 0.913 . S
C2597 H2573 0.950 . S
C2597 C2596 1.524 . S
C2597 C2598 1.415 . S
C2598 H2574 0.950 . S
C2598 C2593 1.363 . S
C2598 C2597 1.415 . S
C2599 H2575 0.951 . S
C2599 C2600 1.366 . S
C2599 C2601 1.388 . S
C2600 C2599 1.366 . S
C2600 C2604 1.385 . S
C2601 H2576 0.951 . S
C2601 C2599 1.388 . S
C2601 C2602 1.366 . S
C2602 C2601 1.366 . S
C2602 C2603 1.414 . S
C2602 C2605 1.499 . S
C2603 H2577 0.950 . S
C2603 C2602 1.414 . S
C2603 C2604 1.374 . S
C2604 H2578 0.950 . S
C2604 C2600 1.385 . S
C2604 C2603 1.374 . S
C2605 C2602 1.499 . S
C2605 C2606 1.373 . S
C2605 C2607 1.389 . S
C2606 H2579 0.950 . S
C2606 C2592 1.377 . S
C2606 C2605 1.373 . S
C2607 C2591 1.377 . S
C2607 C2605 1.389 . S
C2607 C2608 1.524 . S
C2608 C2607 1.524 . S
C2608 C2609 1.397 . S
C2608 C2613 1.363 . S
C2609 H2580 0.950 . S
C2609 C2608 1.397 . S
C2609 C2610 1.334 . S
C2610 H2581 0.950 . S
C2610 C2609 1.334 . S
C2610 C2611 1.287 . S
C2611 C2610 1.287 . S
C2611 C2612 1.524 . S
C2611 H2614 0.999 . S
C2612 H2582 0.950 . S
C2612 C2611 1.524 . S
C2612 C2613 1.415 . S
C2613 H2583 0.950 . S
C2613 C2608 1.363 . S
C2613 C2612 1.415 . S
H2614 C2611 0.999 . S
H2615 C2596 0.913 . S
H2616 C2634 0.951 . S
H2617 C2636 0.951 . S
H2618 C2638 0.950 . S
H2619 C2639 0.950 . S
H2620 C2641 0.950 . S
H2621 C2644 0.950 . S
H2622 C2645 0.950 . S
H2623 C2647 0.950 . S
H2624 C2648 0.950 . S
H2625 C2649 0.951 . S
H2626 C2651 0.951 . S
H2627 C2653 0.950 . S
H2628 C2654 0.950 . S
H2629 C2656 0.950 . S
H2630 C2659 0.950 . S
H2631 C2660 0.950 . S
H2632 C2662 0.950 1_554 S
H2633 C2663 0.950 . S
C2634 H2616 0.951 . S
C2634 C2635 1.366 . S
C2634 C2636 1.388 . S
C2635 C2634 1.366 . S
C2635 C2639 1.385 . S
C2636 H2617 0.951 . S
C2636 C2634 1.388 . S
C2636 C2637 1.366 . S
C2637 C2636 1.366 . S
C2637 C2638 1.414 . S
C2637 C2640 1.499 . S
C2638 H2618 0.950 . S
C2638 C2637 1.414 . S
C2638 C2639 1.374 . S
C2639 H2619 0.950 . S
C2639 C2635 1.385 . S
C2639 C2638 1.374 . S
C2640 C2637 1.499 . S
C2640 C2641 1.373 . S
C2640 C2642 1.389 . S
C2641 H2620 0.950 . S
C2641 C2640 1.373 . S
C2641 C2657 1.377 . S
C2642 C2640 1.389 . S
C2642 C2643 1.524 . S
C2642 C2656 1.377 . S
C2643 C2642 1.524 . S
C2643 C2644 1.397 . S
C2643 C2648 1.363 . S
C2644 H2621 0.950 . S
C2644 C2643 1.397 . S
C2644 C2645 1.334 . S
C2645 H2622 0.950 . S
C2645 C2644 1.334 . S
C2645 C2646 1.287 . S
C2646 C2645 1.287 . S
C2646 C2647 1.524 . S
C2646 H2665 0.913 . S
C2647 H2623 0.950 . S
C2647 C2646 1.524 . S
C2647 C2648 1.415 . S
C2648 H2624 0.950 . S
C2648 C2643 1.363 . S
C2648 C2647 1.415 . S
C2649 H2625 0.951 . S
C2649 C2650 1.366 . S
C2649 C2651 1.388 . S
C2650 C2649 1.366 . S
C2650 C2654 1.385 . S
C2651 H2626 0.951 . S
C2651 C2649 1.388 . S
C2651 C2652 1.366 . S
C2652 C2651 1.366 . S
C2652 C2653 1.414 . S
C2652 C2655 1.499 . S
C2653 H2627 0.950 . S
C2653 C2652 1.414 . S
C2653 C2654 1.374 . S
C2654 H2628 0.950 . S
C2654 C2650 1.385 . S
C2654 C2653 1.374 . S
C2655 C2652 1.499 . S
C2655 C2656 1.373 . S
C2655 C2657 1.389 . S
C2656 H2629 0.950 . S
C2656 C2642 1.377 . S
C2656 C2655 1.373 . S
C2657 C2641 1.377 . S
C2657 C2655 1.389 . S
C2657 C2658 1.524 . S
C2658 C2657 1.524 . S
C2658 C2659 1.397 . S
C2658 C2663 1.363 . S
C2659 H2630 0.950 . S
C2659 C2658 1.397 . S
C2659 C2660 1.334 1_556 S
C2660 H2631 0.950 . S
C2660 C2659 1.334 1_554 S
C2660 C2661 1.287 . S
C2661 C2660 1.287 . S
C2661 C2662 1.524 1_554 S
C2661 H2664 0.999 . S
C2662 H2632 0.950 1_556 S
C2662 C2661 1.524 1_556 S
C2662 C2663 1.415 . S
C2663 H2633 0.950 . S
C2663 C2658 1.363 . S
C2663 C2662 1.415 . S
H2664 C2661 0.999 . S
H2665 C2646 0.913 . S
H2666 C2684 0.951 . S
H2667 C2686 0.951 . S
H2668 C2688 0.950 . S
H2669 C2689 0.950 . S
H2670 C2691 0.950 . S
H2671 C2694 0.950 . S
H2672 C2695 0.950 . S
H2673 C2697 0.950 . S
H2674 C2698 0.950 . S
H2675 C2699 0.951 . S
H2676 C2701 0.951 . S
H2677 C2703 0.950 . S
H2678 C2704 0.950 . S
H2679 C2706 0.950 . S
H2680 C2709 0.950 . S
H2681 C2710 0.950 . S
H2682 C2712 0.950 . S
H2683 C2713 0.950 . S
C2684 H2666 0.951 . S
C2684 C2685 1.366 . S
C2684 C2686 1.388 . S
C2685 C2684 1.366 . S
C2685 C2689 1.385 . S
C2686 H2667 0.951 . S
C2686 C2684 1.388 . S
C2686 C2687 1.366 . S
C2687 C2686 1.366 . S
C2687 C2688 1.414 . S
C2687 C2690 1.499 . S
C2688 H2668 0.950 . S
C2688 C2687 1.414 . S
C2688 C2689 1.374 . S
C2689 H2669 0.950 . S
C2689 C2685 1.385 . S
C2689 C2688 1.374 . S
C2690 C2687 1.499 . S
C2690 C2691 1.373 . S
C2690 C2692 1.389 . S
C2691 H2670 0.950 . S
C2691 C2690 1.373 . S
C2691 C2707 1.377 1_655 S
C2692 C2690 1.389 . S
C2692 C2693 1.524 . S
C2692 C2706 1.377 1_655 S
C2693 C2692 1.524 . S
C2693 C2694 1.397 . S
C2693 C2698 1.363 . S
C2694 H2671 0.950 . S
C2694 C2693 1.397 . S
C2694 C2695 1.334 . S
C2695 H2672 0.950 . S
C2695 C2694 1.334 . S
C2695 C2696 1.287 . S
C2696 C2695 1.287 . S
C2696 C2697 1.524 . S
C2696 H2715 0.913 . S
C2697 H2673 0.950 . S
C2697 C2696 1.524 . S
C2697 C2698 1.415 . S
C2698 H2674 0.950 . S
C2698 C2693 1.363 . S
C2698 C2697 1.415 . S
C2699 H2675 0.951 . S
C2699 C2700 1.366 . S
C2699 C2701 1.388 . S
C2700 C2699 1.366 . S
C2700 C2704 1.385 . S
C2701 H2676 0.951 . S
C2701 C2699 1.388 . S
C2701 C2702 1.366 . S
C2702 C2701 1.366 . S
C2702 C2703 1.414 . S
C2702 C2705 1.499 . S
C2703 H2677 0.950 . S
C2703 C2702 1.414 . S
C2703 C2704 1.374 . S
C2704 H2678 0.950 . S
C2704 C2700 1.385 . S
C2704 C2703 1.374 . S
C2705 C2702 1.499 . S
C2705 C2706 1.373 . S
C2705 C2707 1.389 . S
C2706 H2679 0.950 . S
C2706 C2692 1.377 1_455 S
C2706 C2705 1.373 . S
C2707 C2691 1.377 1_455 S
C2707 C2705 1.389 . S
C2707 C2708 1.524 . S
C2708 C2707 1.524 . S
C2708 C2709 1.397 . S
C2708 C2713 1.363 . S
C2709 H2680 0.950 . S
C2709 C2708 1.397 . S
C2709 C2710 1.334 . S
C2710 H2681 0.950 . S
C2710 C2709 1.334 . S
C2710 C2711 1.287 . S
C2711 C2710 1.287 . S
C2711 C2712 1.524 . S
C2711 H2714 0.999 . S
C2712 H2682 0.950 . S
C2712 C2711 1.524 . S
C2712 C2713 1.415 . S
C2713 H2683 0.950 . S
C2713 C2708 1.363 . S
C2713 C2712 1.415 . S
H2714 C2711 0.999 . S
H2715 C2696 0.913 . S
H2716 C2734 0.951 . S
H2717 C2736 0.951 . S
H2718 C2738 0.950 . S
H2719 C2739 0.950 . S
H2720 C2741 0.950 . S
H2721 C2744 0.950 . S
H2722 C2745 0.950 . S
H2723 C2747 0.950 . S
H2724 C2748 0.950 . S
H2725 C2749 0.951 . S
H2726 C2751 0.951 . S
H2727 C2753 0.950 . S
H2728 C2754 0.950 . S
H2729 C2756 0.950 . S
H2730 C2759 0.950 . S
H2731 C2760 0.950 . S
H2732 C2762 0.950 . S
H2733 C2763 0.950 . S
C2734 H2716 0.951 . S
C2734 C2735 1.366 . S
C2734 C2736 1.388 . S
C2735 C2734 1.366 . S
C2735 C2739 1.385 . S
C2736 H2717 0.951 . S
C2736 C2734 1.388 . S
C2736 C2737 1.366 . S
C2737 C2736 1.366 . S
C2737 C2738 1.414 . S
C2737 C2740 1.499 . S
C2738 H2718 0.950 . S
C2738 C2737 1.414 . S
C2738 C2739 1.374 . S
C2739 H2719 0.950 . S
C2739 C2735 1.385 . S
C2739 C2738 1.374 . S
C2740 C2737 1.499 . S
C2740 C2741 1.373 . S
C2740 C2742 1.389 . S
C2741 H2720 0.950 . S
C2741 C2740 1.373 . S
C2741 C2757 1.377 1_655 S
C2742 C2740 1.389 . S
C2742 C2743 1.524 . S
C2742 C2756 1.377 1_655 S
C2743 C2742 1.524 . S
C2743 C2744 1.397 . S
C2743 C2748 1.363 . S
C2744 H2721 0.950 . S
C2744 C2743 1.397 . S
C2744 C2745 1.334 . S
C2745 H2722 0.950 . S
C2745 C2744 1.334 . S
C2745 C2746 1.287 . S
C2746 C2745 1.287 . S
C2746 C2747 1.524 . S
C2746 H2765 0.913 . S
C2747 H2723 0.950 . S
C2747 C2746 1.524 . S
C2747 C2748 1.415 . S
C2748 H2724 0.950 . S
C2748 C2743 1.363 . S
C2748 C2747 1.415 . S
C2749 H2725 0.951 . S
C2749 C2750 1.366 . S
C2749 C2751 1.388 . S
C2750 C2749 1.366 . S
C2750 C2754 1.385 . S
C2751 H2726 0.951 . S
C2751 C2749 1.388 . S
C2751 C2752 1.366 . S
C2752 C2751 1.366 . S
C2752 C2753 1.414 . S
C2752 C2755 1.499 . S
C2753 H2727 0.950 . S
C2753 C2752 1.414 . S
C2753 C2754 1.374 . S
C2754 H2728 0.950 . S
C2754 C2750 1.385 . S
C2754 C2753 1.374 . S
C2755 C2752 1.499 . S
C2755 C2756 1.373 . S
C2755 C2757 1.389 . S
C2756 H2729 0.950 . S
C2756 C2742 1.377 1_455 S
C2756 C2755 1.373 . S
C2757 C2741 1.377 1_455 S
C2757 C2755 1.389 . S
C2757 C2758 1.524 . S
C2758 C2757 1.524 . S
C2758 C2759 1.397 . S
C2758 C2763 1.363 . S
C2759 H2730 0.950 . S
C2759 C2758 1.397 . S
C2759 C2760 1.334 . S
C2760 H2731 0.950 . S
C2760 C2759 1.334 . S
C2760 C2761 1.287 . S
C2761 C2760 1.287 . S
C2761 C2762 1.524 . S
C2761 H2764 0.999 . S
C2762 H2732 0.950 . S
C2762 C2761 1.524 . S
C2762 C2763 1.415 . S
C2763 H2733 0.950 . S
C2763 C2758 1.363 . S
C2763 C2762 1.415 . S
H2764 C2761 0.999 . S
H2765 C2746 0.913 . S
H2766 C2784 0.951 . S
H2767 C2786 0.951 . S
H2768 C2788 0.950 . S
H2769 C2789 0.950 . S
H2770 C2791 0.950 . S
H2771 C2794 0.950 . S
H2772 C2795 0.950 . S
H2773 C2797 0.950 . S
H2774 C2798 0.950 . S
H2775 C2799 0.951 . S
H2776 C2801 0.951 . S
H2777 C2803 0.950 . S
H2778 C2804 0.950 . S
H2779 C2806 0.950 . S
H2780 C2809 0.950 . S
H2781 C2810 0.950 . S
H2782 C2812 0.950 . S
H2783 C2813 0.950 . S
C2784 H2766 0.951 . S
C2784 C2785 1.366 . S
C2784 C2786 1.388 . S
C2785 C2784 1.366 . S
C2785 C2789 1.385 . S
C2786 H2767 0.951 . S
C2786 C2784 1.388 . S
C2786 C2787 1.366 . S
C2787 C2786 1.366 . S
C2787 C2788 1.414 . S
C2787 C2790 1.499 . S
C2788 H2768 0.950 . S
C2788 C2787 1.414 . S
C2788 C2789 1.374 . S
C2789 H2769 0.950 . S
C2789 C2785 1.385 . S
C2789 C2788 1.374 . S
C2790 C2787 1.499 . S
C2790 C2791 1.373 . S
C2790 C2792 1.389 . S
C2791 H2770 0.950 . S
C2791 C2790 1.373 . S
C2791 C2807 1.377 . S
C2792 C2790 1.389 . S
C2792 C2793 1.524 . S
C2792 C2806 1.377 . S
C2793 C2792 1.524 . S
C2793 C2794 1.397 . S
C2793 C2798 1.363 . S
C2794 H2771 0.950 . S
C2794 C2793 1.397 . S
C2794 C2795 1.334 . S
C2795 H2772 0.950 . S
C2795 C2794 1.334 . S
C2795 C2796 1.287 . S
C2796 C2795 1.287 . S
C2796 C2797 1.524 . S
C2796 H2815 0.913 . S
C2797 H2773 0.950 . S
C2797 C2796 1.524 . S
C2797 C2798 1.415 . S
C2798 H2774 0.950 . S
C2798 C2793 1.363 . S
C2798 C2797 1.415 . S
C2799 H2775 0.951 . S
C2799 C2800 1.366 . S
C2799 C2801 1.388 . S
C2800 C2799 1.366 . S
C2800 C2804 1.385 . S
C2801 H2776 0.951 . S
C2801 C2799 1.388 . S
C2801 C2802 1.366 . S
C2802 C2801 1.366 . S
C2802 C2803 1.414 . S
C2802 C2805 1.499 . S
C2803 H2777 0.950 . S
C2803 C2802 1.414 . S
C2803 C2804 1.374 . S
C2804 H2778 0.950 . S
C2804 C2800 1.385 . S
C2804 C2803 1.374 . S
C2805 C2802 1.499 . S
C2805 C2806 1.373 . S
C2805 C2807 1.389 . S
C2806 H2779 0.950 . S
C2806 C2792 1.377 . S
C2806 C2805 1.373 . S
C2807 C2791 1.377 . S
C2807 C2805 1.389 . S
C2807 C2808 1.524 . S
C2808 C2807 1.524 . S
C2808 C2809 1.397 . S
C2808 C2813 1.363 . S
C2809 H2780 0.950 . S
C2809 C2808 1.397 . S
C2809 C2810 1.334 . S
C2810 H2781 0.950 . S
C2810 C2809 1.334 . S
C2810 C2811 1.287 . S
C2811 C2810 1.287 . S
C2811 C2812 1.524 . S
C2811 H2814 0.999 . S
C2812 H2782 0.950 . S
C2812 C2811 1.524 . S
C2812 C2813 1.415 . S
C2813 H2783 0.950 . S
C2813 C2808 1.363 . S
C2813 C2812 1.415 . S
H2814 C2811 0.999 . S
H2815 C2796 0.913 . S
H2816 C2834 0.951 . S
H2817 C2836 0.951 . S
H2818 C2838 0.950 . S
H2819 C2839 0.950 . S
H2820 C2841 0.950 . S
H2821 C2844 0.950 . S
H2822 C2845 0.950 . S
H2823 C2847 0.950 . S
H2824 C2848 0.950 . S
H2825 C2849 0.951 . S
H2826 C2851 0.951 . S
H2827 C2853 0.950 . S
H2828 C2854 0.950 . S
H2829 C2856 0.950 . S
H2830 C2859 0.950 . S
H2831 C2860 0.950 . S
H2832 C2862 0.950 . S
H2833 C2863 0.950 . S
C2834 H2816 0.951 . S
C2834 C2835 1.366 . S
C2834 C2836 1.388 . S
C2835 C2834 1.366 . S
C2835 C2839 1.385 . S
C2836 H2817 0.951 . S
C2836 C2834 1.388 . S
C2836 C2837 1.366 . S
C2837 C2836 1.366 . S
C2837 C2838 1.414 . S
C2837 C2840 1.499 . S
C2838 H2818 0.950 . S
C2838 C2837 1.414 . S
C2838 C2839 1.374 . S
C2839 H2819 0.950 . S
C2839 C2835 1.385 . S
C2839 C2838 1.374 . S
C2840 C2837 1.499 . S
C2840 C2841 1.373 . S
C2840 C2842 1.389 . S
C2841 H2820 0.950 . S
C2841 C2840 1.373 . S
C2841 C2857 1.377 . S
C2842 C2840 1.389 . S
C2842 C2843 1.524 . S
C2842 C2856 1.377 . S
C2843 C2842 1.524 . S
C2843 C2844 1.397 . S
C2843 C2848 1.363 . S
C2844 H2821 0.950 . S
C2844 C2843 1.397 . S
C2844 C2845 1.334 . S
C2845 H2822 0.950 . S
C2845 C2844 1.334 . S
C2845 C2846 1.287 . S
C2846 C2845 1.287 . S
C2846 C2847 1.524 . S
C2846 H2865 0.913 . S
C2847 H2823 0.950 . S
C2847 C2846 1.524 . S
C2847 C2848 1.415 . S
C2848 H2824 0.950 . S
C2848 C2843 1.363 . S
C2848 C2847 1.415 . S
C2849 H2825 0.951 . S
C2849 C2850 1.366 . S
C2849 C2851 1.388 . S
C2850 C2849 1.366 . S
C2850 C2854 1.385 . S
C2851 H2826 0.951 . S
C2851 C2849 1.388 . S
C2851 C2852 1.366 . S
C2852 C2851 1.366 . S
C2852 C2853 1.414 . S
C2852 C2855 1.499 . S
C2853 H2827 0.950 . S
C2853 C2852 1.414 . S
C2853 C2854 1.374 . S
C2854 H2828 0.950 . S
C2854 C2850 1.385 . S
C2854 C2853 1.374 . S
C2855 C2852 1.499 . S
C2855 C2856 1.373 . S
C2855 C2857 1.389 . S
C2856 H2829 0.950 . S
C2856 C2842 1.377 . S
C2856 C2855 1.373 . S
C2857 C2841 1.377 . S
C2857 C2855 1.389 . S
C2857 C2858 1.524 . S
C2858 C2857 1.524 . S
C2858 C2859 1.397 . S
C2858 C2863 1.363 . S
C2859 H2830 0.950 . S
C2859 C2858 1.397 . S
C2859 C2860 1.334 . S
C2860 H2831 0.950 . S
C2860 C2859 1.334 . S
C2860 C2861 1.287 . S
C2861 C2860 1.287 . S
C2861 C2862 1.524 . S
C2861 H2864 0.999 . S
C2862 H2832 0.950 . S
C2862 C2861 1.524 . S
C2862 C2863 1.415 . S
C2863 H2833 0.950 . S
C2863 C2858 1.363 . S
C2863 C2862 1.415 . S
H2864 C2861 0.999 . S
H2865 C2846 0.913 . S
H2866 C2884 0.951 . S
H2867 C2886 0.951 . S
H2868 C2888 0.950 . S
H2869 C2889 0.950 . S
H2870 C2891 0.950 . S
H2871 C2894 0.950 . S
H2872 C2895 0.950 . S
H2873 C2897 0.950 . S
H2874 C2898 0.950 . S
H2875 C2899 0.951 . S
H2876 C2901 0.951 . S
H2877 C2903 0.950 . S
H2878 C2904 0.950 . S
H2879 C2906 0.950 . S
H2880 C2909 0.950 . S
H2881 C2910 0.950 . S
H2882 C2912 0.950 . S
H2883 C2913 0.950 . S
C2884 H2866 0.951 . S
C2884 C2885 1.366 . S
C2884 C2886 1.388 . S
C2885 C2884 1.366 . S
C2885 C2889 1.385 . S
C2886 H2867 0.951 . S
C2886 C2884 1.388 . S
C2886 C2887 1.366 . S
C2887 C2886 1.366 . S
C2887 C2888 1.414 . S
C2887 C2890 1.499 . S
C2888 H2868 0.950 . S
C2888 C2887 1.414 . S
C2888 C2889 1.374 . S
C2889 H2869 0.950 . S
C2889 C2885 1.385 . S
C2889 C2888 1.374 . S
C2890 C2887 1.499 . S
C2890 C2891 1.373 . S
C2890 C2892 1.389 . S
C2891 H2870 0.950 . S
C2891 C2890 1.373 . S
C2891 C2907 1.377 . S
C2892 C2890 1.389 . S
C2892 C2893 1.524 . S
C2892 C2906 1.377 . S
C2893 C2892 1.524 . S
C2893 C2894 1.397 . S
C2893 C2898 1.363 . S
C2894 H2871 0.950 . S
C2894 C2893 1.397 . S
C2894 C2895 1.334 . S
C2895 H2872 0.950 . S
C2895 C2894 1.334 . S
C2895 C2896 1.287 . S
C2896 C2895 1.287 . S
C2896 C2897 1.524 . S
C2896 H2915 0.913 . S
C2897 H2873 0.950 . S
C2897 C2896 1.524 . S
C2897 C2898 1.415 . S
C2898 H2874 0.950 . S
C2898 C2893 1.363 . S
C2898 C2897 1.415 . S
C2899 H2875 0.951 . S
C2899 C2900 1.366 . S
C2899 C2901 1.388 . S
C2900 C2899 1.366 . S
C2900 C2904 1.385 . S
C2901 H2876 0.951 . S
C2901 C2899 1.388 . S
C2901 C2902 1.366 . S
C2902 C2901 1.366 . S
C2902 C2903 1.414 . S
C2902 C2905 1.499 . S
C2903 H2877 0.950 . S
C2903 C2902 1.414 . S
C2903 C2904 1.374 . S
C2904 H2878 0.950 . S
C2904 C2900 1.385 . S
C2904 C2903 1.374 . S
C2905 C2902 1.499 . S
C2905 C2906 1.373 . S
C2905 C2907 1.389 . S
C2906 H2879 0.950 . S
C2906 C2892 1.377 . S
C2906 C2905 1.373 . S
C2907 C2891 1.377 . S
C2907 C2905 1.389 . S
C2907 C2908 1.524 . S
C2908 C2907 1.524 . S
C2908 C2909 1.397 . S
C2908 C2913 1.363 . S
C2909 H2880 0.950 . S
C2909 C2908 1.397 . S
C2909 C2910 1.334 . S
C2910 H2881 0.950 . S
C2910 C2909 1.334 . S
C2910 C2911 1.287 . S
C2911 C2910 1.287 . S
C2911 C2912 1.524 . S
C2911 H2914 0.999 . S
C2912 H2882 0.950 . S
C2912 C2911 1.524 . S
C2912 C2913 1.415 . S
C2913 H2883 0.950 . S
C2913 C2908 1.363 . S
C2913 C2912 1.415 . S
H2914 C2911 0.999 . S
H2915 C2896 0.913 . S
H2916 C2934 0.951 . S
H2917 C2936 0.951 1_554 S
H2918 C2938 0.950 . S
H2919 C2939 0.950 . S
H2920 C2941 0.950 . S
H2921 C2944 0.950 . S
H2922 C2945 0.950 . S
H2923 C2947 0.950 . S
H2924 C2948 0.950 . S
H2925 C2949 0.951 . S
H2926 C2951 0.951 . S
H2927 C2953 0.950 . S
H2928 C2954 0.950 . S
H2929 C2956 0.950 . S
H2930 C2959 0.950 . S
H2931 C2960 0.950 . S
H2932 C2962 0.950 . S
H2933 C2963 0.950 . S
C2934 H2916 0.951 . S
C2934 C2935 1.366 . S
C2934 C2936 1.388 1_554 S
C2935 C2934 1.366 . S
C2935 C2939 1.385 1_554 S
C2936 H2917 0.951 1_556 S
C2936 C2934 1.388 1_556 S
C2936 C2937 1.366 . S
C2937 C2936 1.366 . S
C2937 C2938 1.414 . S
C2937 C2940 1.499 . S
C2938 H2918 0.950 . S
C2938 C2937 1.414 . S
C2938 C2939 1.374 . S
C2939 H2919 0.950 . S
C2939 C2935 1.385 1_556 S
C2939 C2938 1.374 . S
C2940 C2937 1.499 . S
C2940 C2941 1.373 . S
C2940 C2942 1.389 . S
C2941 H2920 0.950 . S
C2941 C2940 1.373 . S
C2941 C2957 1.377 . S
C2942 C2940 1.389 . S
C2942 C2943 1.524 . S
C2942 C2956 1.377 . S
C2943 C2942 1.524 . S
C2943 C2944 1.397 . S
C2943 C2948 1.363 . S
C2944 H2921 0.950 . S
C2944 C2943 1.397 . S
C2944 C2945 1.334 1_556 S
C2945 H2922 0.950 . S
C2945 C2944 1.334 1_554 S
C2945 C2946 1.287 . S
C2946 C2945 1.287 . S
C2946 C2947 1.524 . S
C2946 H2965 0.913 . S
C2947 H2923 0.950 . S
C2947 C2946 1.524 . S
C2947 C2948 1.415 1_554 S
C2948 H2924 0.950 . S
C2948 C2943 1.363 . S
C2948 C2947 1.415 1_556 S
C2949 H2925 0.951 . S
C2949 C2950 1.366 . S
C2949 C2951 1.388 . S
C2950 C2949 1.366 . S
C2950 C2954 1.385 . S
C2951 H2926 0.951 . S
C2951 C2949 1.388 . S
C2951 C2952 1.366 . S
C2952 C2951 1.366 . S
C2952 C2953 1.414 . S
C2952 C2955 1.499 . S
C2953 H2927 0.950 . S
C2953 C2952 1.414 . S
C2953 C2954 1.374 . S
C2954 H2928 0.950 . S
C2954 C2950 1.385 . S
C2954 C2953 1.374 . S
C2955 C2952 1.499 . S
C2955 C2956 1.373 . S
C2955 C2957 1.389 . S
C2956 H2929 0.950 . S
C2956 C2942 1.377 . S
C2956 C2955 1.373 . S
C2957 C2941 1.377 . S
C2957 C2955 1.389 . S
C2957 C2958 1.524 . S
C2958 C2957 1.524 . S
C2958 C2959 1.397 . S
C2958 C2963 1.363 . S
C2959 H2930 0.950 . S
C2959 C2958 1.397 . S
C2959 C2960 1.334 . S
C2960 H2931 0.950 . S
C2960 C2959 1.334 . S
C2960 C2961 1.287 . S
C2961 C2960 1.287 . S
C2961 C2962 1.524 . S
C2961 H2964 0.999 . S
C2962 H2932 0.950 . S
C2962 C2961 1.524 . S
C2962 C2963 1.415 . S
C2963 H2933 0.950 . S
C2963 C2958 1.363 . S
C2963 C2962 1.415 . S
H2964 C2961 0.999 . S
H2965 C2946 0.913 . S
H2966 C2984 0.951 . S
H2967 C2986 0.951 . S
H2968 C2988 0.950 . S
H2969 C2989 0.950 . S
H2970 C2991 0.950 . S
H2971 C2994 0.950 1_554 S
H2972 C2995 0.950 . S
H2973 C2997 0.950 . S
H2974 C2998 0.950 . S
H2975 C2999 0.951 . S
H2976 C3001 0.951 . S
H2977 C3003 0.950 . S
H2978 C3004 0.950 . S
H2979 C3006 0.950 . S
H2980 C3009 0.950 . S
H2981 C3010 0.950 . S
H2982 C3012 0.950 . S
H2983 C3013 0.950 . S
C2984 H2966 0.951 . S
C2984 C2985 1.366 . S
C2984 C2986 1.388 1_556 S
C2985 C2984 1.366 . S
C2985 C2989 1.385 1_556 S
C2986 H2967 0.951 . S
C2986 C2984 1.388 1_554 S
C2986 C2987 1.366 . S
C2987 C2986 1.366 . S
C2987 C2988 1.414 . S
C2987 C2990 1.499 . S
C2988 H2968 0.950 . S
C2988 C2987 1.414 . S
C2988 C2989 1.374 . S
C2989 H2969 0.950 . S
C2989 C2985 1.385 1_554 S
C2989 C2988 1.374 . S
C2990 C2987 1.499 . S
C2990 C2991 1.373 . S
C2990 C2992 1.389 . S
C2991 H2970 0.950 . S
C2991 C2990 1.373 . S
C2991 C3007 1.377 . S
C2992 C2990 1.389 . S
C2992 C2993 1.524 . S
C2992 C3006 1.377 . S
C2993 C2992 1.524 . S
C2993 C2994 1.397 1_554 S
C2993 C2998 1.363 . S
C2994 H2971 0.950 1_556 S
C2994 C2993 1.397 1_556 S
C2994 C2995 1.334 . S
C2995 H2972 0.950 . S
C2995 C2994 1.334 . S
C2995 C2996 1.287 . S
C2996 C2995 1.287 . S
C2996 C2997 1.524 . S
C2996 H3015 0.913 . S
C2997 H2973 0.950 . S
C2997 C2996 1.524 . S
C2997 C2998 1.415 1_556 S
C2998 H2974 0.950 . S
C2998 C2993 1.363 . S
C2998 C2997 1.415 1_554 S
C2999 H2975 0.951 . S
C2999 C3000 1.366 . S
C2999 C3001 1.388 . S
C3000 C2999 1.366 . S
C3000 C3004 1.385 . S
C3001 H2976 0.951 . S
C3001 C2999 1.388 . S
C3001 C3002 1.366 . S
C3002 C3001 1.366 . S
C3002 C3003 1.414 . S
C3002 C3005 1.499 . S
C3003 H2977 0.950 . S
C3003 C3002 1.414 . S
C3003 C3004 1.374 . S
C3004 H2978 0.950 . S
C3004 C3000 1.385 . S
C3004 C3003 1.374 . S
C3005 C3002 1.499 . S
C3005 C3006 1.373 . S
C3005 C3007 1.389 . S
C3006 H2979 0.950 . S
C3006 C2992 1.377 . S
C3006 C3005 1.373 . S
C3007 C2991 1.377 . S
C3007 C3005 1.389 . S
C3007 C3008 1.524 . S
C3008 C3007 1.524 . S
C3008 C3009 1.397 . S
C3008 C3013 1.363 . S
C3009 H2980 0.950 . S
C3009 C3008 1.397 . S
C3009 C3010 1.334 . S
C3010 H2981 0.950 . S
C3010 C3009 1.334 . S
C3010 C3011 1.287 . S
C3011 C3010 1.287 . S
C3011 C3012 1.524 . S
C3011 H3014 0.999 . S
C3012 H2982 0.950 . S
C3012 C3011 1.524 . S
C3012 C3013 1.415 . S
C3013 H2983 0.950 . S
C3013 C3008 1.363 . S
C3013 C3012 1.415 . S
H3014 C3011 0.999 . S
H3015 C2996 0.913 . S
H3016 C3034 0.951 . S
H3017 C3036 0.951 . S
H3018 C3038 0.950 . S
H3019 C3039 0.950 . S
H3020 C3041 0.950 . S
H3021 C3044 0.950 . S
H3022 C3045 0.950 . S
H3023 C3047 0.950 . S
H3024 C3048 0.950 . S
H3025 C3049 0.951 . S
H3026 C3051 0.951 . S
H3027 C3053 0.950 . S
H3028 C3054 0.950 . S
H3029 C3056 0.950 . S
H3030 C3059 0.950 . S
H3031 C3060 0.950 . S
H3032 C3062 0.950 . S
H3033 C3063 0.950 . S
C3034 H3016 0.951 . S
C3034 C3035 1.366 . S
C3034 C3036 1.388 . S
C3035 C3034 1.366 . S
C3035 C3039 1.385 . S
C3036 H3017 0.951 . S
C3036 C3034 1.388 . S
C3036 C3037 1.366 . S
C3037 C3036 1.366 . S
C3037 C3038 1.414 . S
C3037 C3040 1.499 . S
C3038 H3018 0.950 . S
C3038 C3037 1.414 . S
C3038 C3039 1.374 . S
C3039 H3019 0.950 . S
C3039 C3035 1.385 . S
C3039 C3038 1.374 . S
C3040 C3037 1.499 . S
C3040 C3041 1.373 . S
C3040 C3042 1.389 . S
C3041 H3020 0.950 . S
C3041 C3040 1.373 . S
C3041 C3057 1.377 . S
C3042 C3040 1.389 . S
C3042 C3043 1.524 . S
C3042 C3056 1.377 . S
C3043 C3042 1.524 . S
C3043 C3044 1.397 . S
C3043 C3048 1.363 . S
C3044 H3021 0.950 . S
C3044 C3043 1.397 . S
C3044 C3045 1.334 . S
C3045 H3022 0.950 . S
C3045 C3044 1.334 . S
C3045 C3046 1.287 . S
C3046 C3045 1.287 . S
C3046 C3047 1.524 . S
C3046 H3065 0.913 . S
C3047 H3023 0.950 . S
C3047 C3046 1.524 . S
C3047 C3048 1.415 . S
C3048 H3024 0.950 . S
C3048 C3043 1.363 . S
C3048 C3047 1.415 . S
C3049 H3025 0.951 . S
C3049 C3050 1.366 . S
C3049 C3051 1.388 . S
C3050 C3049 1.366 . S
C3050 C3054 1.385 . S
C3051 H3026 0.951 . S
C3051 C3049 1.388 . S
C3051 C3052 1.366 . S
C3052 C3051 1.366 . S
C3052 C3053 1.414 . S
C3052 C3055 1.499 . S
C3053 H3027 0.950 . S
C3053 C3052 1.414 . S
C3053 C3054 1.374 . S
C3054 H3028 0.950 . S
C3054 C3050 1.385 . S
C3054 C3053 1.374 . S
C3055 C3052 1.499 . S
C3055 C3056 1.373 . S
C3055 C3057 1.389 . S
C3056 H3029 0.950 . S
C3056 C3042 1.377 . S
C3056 C3055 1.373 . S
C3057 C3041 1.377 . S
C3057 C3055 1.389 . S
C3057 C3058 1.524 . S
C3058 C3057 1.524 . S
C3058 C3059 1.397 . S
C3058 C3063 1.363 . S
C3059 H3030 0.950 . S
C3059 C3058 1.397 . S
C3059 C3060 1.334 . S
C3060 H3031 0.950 . S
C3060 C3059 1.334 . S
C3060 C3061 1.287 . S
C3061 C3060 1.287 . S
C3061 C3062 1.524 . S
C3061 H3064 0.999 . S
C3062 H3032 0.950 . S
C3062 C3061 1.524 . S
C3062 C3063 1.415 . S
C3063 H3033 0.950 . S
C3063 C3058 1.363 . S
C3063 C3062 1.415 . S
H3064 C3061 0.999 . S
H3065 C3046 0.913 . S
H3066 C3084 0.951 . S
H3067 C3086 0.951 . S
H3068 C3088 0.950 . S
H3069 C3089 0.950 . S
H3070 C3091 0.950 . S
H3071 C3094 0.950 . S
H3072 C3095 0.950 . S
H3073 C3097 0.950 . S
H3074 C3098 0.950 . S
H3075 C3099 0.951 . S
H3076 C3101 0.951 . S
H3077 C3103 0.950 . S
H3078 C3104 0.950 . S
H3079 C3106 0.950 . S
H3080 C3109 0.950 . S
H3081 C3110 0.950 . S
H3082 C3112 0.950 . S
H3083 C3113 0.950 . S
C3084 H3066 0.951 . S
C3084 C3085 1.366 . S
C3084 C3086 1.388 . S
C3085 C3084 1.366 . S
C3085 C3089 1.385 . S
C3086 H3067 0.951 . S
C3086 C3084 1.388 . S
C3086 C3087 1.366 . S
C3087 C3086 1.366 . S
C3087 C3088 1.414 . S
C3087 C3090 1.499 . S
C3088 H3068 0.950 . S
C3088 C3087 1.414 . S
C3088 C3089 1.374 . S
C3089 H3069 0.950 . S
C3089 C3085 1.385 . S
C3089 C3088 1.374 . S
C3090 C3087 1.499 . S
C3090 C3091 1.373 . S
C3090 C3092 1.389 . S
C3091 H3070 0.950 . S
C3091 C3090 1.373 . S
C3091 C3107 1.377 . S
C3092 C3090 1.389 . S
C3092 C3093 1.524 . S
C3092 C3106 1.377 . S
C3093 C3092 1.524 . S
C3093 C3094 1.397 . S
C3093 C3098 1.363 . S
C3094 H3071 0.950 . S
C3094 C3093 1.397 . S
C3094 C3095 1.334 . S
C3095 H3072 0.950 . S
C3095 C3094 1.334 . S
C3095 C3096 1.287 . S
C3096 C3095 1.287 . S
C3096 C3097 1.524 . S
C3096 H3115 0.913 . S
C3097 H3073 0.950 . S
C3097 C3096 1.524 . S
C3097 C3098 1.415 . S
C3098 H3074 0.950 . S
C3098 C3093 1.363 . S
C3098 C3097 1.415 . S
C3099 H3075 0.951 . S
C3099 C3100 1.366 . S
C3099 C3101 1.388 . S
C3100 C3099 1.366 . S
C3100 C3104 1.385 . S
C3101 H3076 0.951 . S
C3101 C3099 1.388 . S
C3101 C3102 1.366 . S
C3102 C3101 1.366 . S
C3102 C3103 1.414 . S
C3102 C3105 1.499 . S
C3103 H3077 0.950 . S
C3103 C3102 1.414 . S
C3103 C3104 1.374 . S
C3104 H3078 0.950 . S
C3104 C3100 1.385 . S
C3104 C3103 1.374 . S
C3105 C3102 1.499 . S
C3105 C3106 1.373 . S
C3105 C3107 1.389 . S
C3106 H3079 0.950 . S
C3106 C3092 1.377 . S
C3106 C3105 1.373 . S
C3107 C3091 1.377 . S
C3107 C3105 1.389 . S
C3107 C3108 1.524 . S
C3108 C3107 1.524 . S
C3108 C3109 1.397 . S
C3108 C3113 1.363 . S
C3109 H3080 0.950 . S
C3109 C3108 1.397 . S
C3109 C3110 1.334 . S
C3110 H3081 0.950 . S
C3110 C3109 1.334 . S
C3110 C3111 1.287 . S
C3111 C3110 1.287 . S
C3111 C3112 1.524 . S
C3111 H3114 0.999 . S
C3112 H3082 0.950 . S
C3112 C3111 1.524 . S
C3112 C3113 1.415 . S
C3113 H3083 0.950 . S
C3113 C3108 1.363 . S
C3113 C3112 1.415 . S
H3114 C3111 0.999 . S
H3115 C3096 0.913 . S
H3116 C3134 0.951 . S
H3117 C3136 0.951 . S
H3118 C3138 0.950 . S
H3119 C3139 0.950 . S
H3120 C3141 0.950 . S
H3121 C3144 0.950 . S
H3122 C3145 0.950 . S
H3123 C3147 0.950 . S
H3124 C3148 0.950 . S
H3125 C3149 0.951 . S
H3126 C3151 0.951 . S
H3127 C3153 0.950 . S
H3128 C3154 0.950 1_556 S
H3129 C3156 0.950 . S
H3130 C3159 0.950 . S
H3131 C3160 0.950 . S
H3132 C3162 0.950 . S
H3133 C3163 0.950 . S
C3134 H3116 0.951 . S
C3134 C3135 1.366 . S
C3134 C3136 1.388 . S
C3135 C3134 1.366 . S
C3135 C3139 1.385 . S
C3136 H3117 0.951 . S
C3136 C3134 1.388 . S
C3136 C3137 1.366 . S
C3137 C3136 1.366 . S
C3137 C3138 1.414 . S
C3137 C3140 1.499 . S
C3138 H3118 0.950 . S
C3138 C3137 1.414 . S
C3138 C3139 1.374 . S
C3139 H3119 0.950 . S
C3139 C3135 1.385 . S
C3139 C3138 1.374 . S
C3140 C3137 1.499 . S
C3140 C3141 1.373 . S
C3140 C3142 1.389 . S
C3141 H3120 0.950 . S
C3141 C3140 1.373 . S
C3141 C3157 1.377 . S
C3142 C3140 1.389 . S
C3142 C3143 1.524 . S
C3142 C3156 1.377 . S
C3143 C3142 1.524 . S
C3143 C3144 1.397 . S
C3143 C3148 1.363 . S
C3144 H3121 0.950 . S
C3144 C3143 1.397 . S
C3144 C3145 1.334 . S
C3145 H3122 0.950 . S
C3145 C3144 1.334 . S
C3145 C3146 1.287 . S
C3146 C3145 1.287 . S
C3146 C3147 1.524 . S
C3146 H3165 0.913 . S
C3147 H3123 0.950 . S
C3147 C3146 1.524 . S
C3147 C3148 1.415 . S
C3148 H3124 0.950 . S
C3148 C3143 1.363 . S
C3148 C3147 1.415 . S
C3149 H3125 0.951 . S
C3149 C3150 1.366 . S
C3149 C3151 1.388 1_556 S
C3150 C3149 1.366 . S
C3150 C3154 1.385 1_556 S
C3151 H3126 0.951 . S
C3151 C3149 1.388 1_554 S
C3151 C3152 1.366 . S
C3152 C3151 1.366 . S
C3152 C3153 1.414 . S
C3152 C3155 1.499 . S
C3153 H3127 0.950 . S
C3153 C3152 1.414 . S
C3153 C3154 1.374 . S
C3154 H3128 0.950 1_554 S
C3154 C3150 1.385 1_554 S
C3154 C3153 1.374 . S
C3155 C3152 1.499 . S
C3155 C3156 1.373 . S
C3155 C3157 1.389 . S
C3156 H3129 0.950 . S
C3156 C3142 1.377 . S
C3156 C3155 1.373 . S
C3157 C3141 1.377 . S
C3157 C3155 1.389 . S
C3157 C3158 1.524 . S
C3158 C3157 1.524 . S
C3158 C3159 1.397 1_554 S
C3158 C3163 1.363 . S
C3159 H3130 0.950 . S
C3159 C3158 1.397 1_556 S
C3159 C3160 1.334 . S
C3160 H3131 0.950 . S
C3160 C3159 1.334 . S
C3160 C3161 1.287 . S
C3161 C3160 1.287 . S
C3161 C3162 1.524 . S
C3161 H3164 0.999 . S
C3162 H3132 0.950 . S
C3162 C3161 1.524 . S
C3162 C3163 1.415 1_556 S
C3163 H3133 0.950 . S
C3163 C3158 1.363 . S
C3163 C3162 1.415 1_554 S
H3164 C3161 0.999 . S
H3165 C3146 0.913 . S
H3166 C3184 0.951 . S
H3167 C3186 0.951 . S
H3168 C3188 0.950 . S
H3169 C3189 0.950 . S
H3170 C3191 0.950 . S
H3171 C3194 0.950 . S
H3172 C3195 0.950 . S
H3173 C3197 0.950 . S
H3174 C3198 0.950 . S
H3175 C3199 0.951 . S
H3176 C3201 0.951 . S
H3177 C3203 0.950 . S
H3178 C3204 0.950 . S
H3179 C3206 0.950 . S
H3180 C3209 0.950 . S
H3181 C3210 0.950 . S
H3182 C3212 0.950 . S
H3183 C3213 0.950 . S
C3184 H3166 0.951 . S
C3184 C3185 1.366 . S
C3184 C3186 1.388 . S
C3185 C3184 1.366 . S
C3185 C3189 1.385 . S
C3186 H3167 0.951 . S
C3186 C3184 1.388 . S
C3186 C3187 1.366 . S
C3187 C3186 1.366 . S
C3187 C3188 1.414 . S
C3187 C3190 1.499 . S
C3188 H3168 0.950 . S
C3188 C3187 1.414 . S
C3188 C3189 1.374 . S
C3189 H3169 0.950 . S
C3189 C3185 1.385 . S
C3189 C3188 1.374 . S
C3190 C3187 1.499 . S
C3190 C3191 1.373 . S
C3190 C3192 1.389 . S
C3191 H3170 0.950 . S
C3191 C3190 1.373 . S
C3191 C3207 1.377 . S
C3192 C3190 1.389 . S
C3192 C3193 1.524 . S
C3192 C3206 1.377 . S
C3193 C3192 1.524 . S
C3193 C3194 1.397 . S
C3193 C3198 1.363 . S
C3194 H3171 0.950 . S
C3194 C3193 1.397 . S
C3194 C3195 1.334 . S
C3195 H3172 0.950 . S
C3195 C3194 1.334 . S
C3195 C3196 1.287 . S
C3196 C3195 1.287 . S
C3196 C3197 1.524 . S
C3196 H3215 0.913 . S
C3197 H3173 0.950 . S
C3197 C3196 1.524 . S
C3197 C3198 1.415 . S
C3198 H3174 0.950 . S
C3198 C3193 1.363 . S
C3198 C3197 1.415 . S
C3199 H3175 0.951 . S
C3199 C3200 1.366 . S
C3199 C3201 1.388 1_554 S
C3200 C3199 1.366 . S
C3200 C3204 1.385 1_554 S
C3201 H3176 0.951 . S
C3201 C3199 1.388 1_556 S
C3201 C3202 1.366 . S
C3202 C3201 1.366 . S
C3202 C3203 1.414 . S
C3202 C3205 1.499 . S
C3203 H3177 0.950 . S
C3203 C3202 1.414 . S
C3203 C3204 1.374 . S
C3204 H3178 0.950 . S
C3204 C3200 1.385 1_556 S
C3204 C3203 1.374 . S
C3205 C3202 1.499 . S
C3205 C3206 1.373 . S
C3205 C3207 1.389 . S
C3206 H3179 0.950 . S
C3206 C3192 1.377 . S
C3206 C3205 1.373 . S
C3207 C3191 1.377 . S
C3207 C3205 1.389 . S
C3207 C3208 1.524 . S
C3208 C3207 1.524 . S
C3208 C3209 1.397 . S
C3208 C3213 1.363 . S
C3209 H3180 0.950 . S
C3209 C3208 1.397 . S
C3209 C3210 1.334 1_556 S
C3210 H3181 0.950 . S
C3210 C3209 1.334 1_554 S
C3210 C3211 1.287 . S
C3211 C3210 1.287 . S
C3211 C3212 1.524 . S
C3211 H3214 0.999 . S
C3212 H3182 0.950 . S
C3212 C3211 1.524 . S
C3212 C3213 1.415 1_554 S
C3213 H3183 0.950 . S
C3213 C3208 1.363 . S
C3213 C3212 1.415 1_556 S
H3214 C3211 0.999 . S
H3215 C3196 0.913 . S
H3216 C3234 0.951 . S
H3217 C3236 0.951 . S
H3218 C3238 0.950 . S
H3219 C3239 0.950 1_554 S
H3220 C3241 0.950 . S
H3221 C3244 0.950 . S
H3222 C3245 0.950 . S
H3223 C3247 0.950 . S
H3224 C3248 0.950 . S
H3225 C3249 0.951 . S
H3226 C3251 0.951 . S
H3227 C3253 0.950 . S
H3228 C3254 0.950 . S
H3229 C3256 0.950 . S
H3230 C3259 0.950 . S
H3231 C3260 0.950 . S
H3232 C3262 0.950 . S
H3233 C3263 0.950 . S
C3234 H3216 0.951 . S
C3234 C3235 1.366 . S
C3234 C3236 1.388 1_554 S
C3235 C3234 1.366 . S
C3235 C3239 1.385 1_554 S
C3236 H3217 0.951 . S
C3236 C3234 1.388 1_556 S
C3236 C3237 1.366 . S
C3237 C3236 1.366 . S
C3237 C3238 1.414 . S
C3237 C3240 1.499 . S
C3238 H3218 0.950 . S
C3238 C3237 1.414 . S
C3238 C3239 1.374 . S
C3239 H3219 0.950 1_556 S
C3239 C3235 1.385 1_556 S
C3239 C3238 1.374 . S
C3240 C3237 1.499 . S
C3240 C3241 1.373 . S
C3240 C3242 1.389 . S
C3241 H3220 0.950 . S
C3241 C3240 1.373 . S
C3241 C3257 1.377 . S
C3242 C3240 1.389 . S
C3242 C3243 1.524 . S
C3242 C3256 1.377 . S
C3243 C3242 1.524 . S
C3243 C3244 1.397 1_556 S
C3243 C3248 1.363 . S
C3244 H3221 0.950 . S
C3244 C3243 1.397 1_554 S
C3244 C3245 1.334 . S
C3245 H3222 0.950 . S
C3245 C3244 1.334 . S
C3245 C3246 1.287 . S
C3246 C3245 1.287 . S
C3246 C3247 1.524 . S
C3246 H3265 0.913 . S
C3247 H3223 0.950 . S
C3247 C3246 1.524 . S
C3247 C3248 1.415 1_554 S
C3248 H3224 0.950 . S
C3248 C3243 1.363 . S
C3248 C3247 1.415 1_556 S
C3249 H3225 0.951 . S
C3249 C3250 1.366 . S
C3249 C3251 1.388 . S
C3250 C3249 1.366 . S
C3250 C3254 1.385 . S
C3251 H3226 0.951 . S
C3251 C3249 1.388 . S
C3251 C3252 1.366 . S
C3252 C3251 1.366 . S
C3252 C3253 1.414 . S
C3252 C3255 1.499 . S
C3253 H3227 0.950 . S
C3253 C3252 1.414 . S
C3253 C3254 1.374 . S
C3254 H3228 0.950 . S
C3254 C3250 1.385 . S
C3254 C3253 1.374 . S
C3255 C3252 1.499 . S
C3255 C3256 1.373 . S
C3255 C3257 1.389 . S
C3256 H3229 0.950 . S
C3256 C3242 1.377 . S
C3256 C3255 1.373 . S
C3257 C3241 1.377 . S
C3257 C3255 1.389 . S
C3257 C3258 1.524 . S
C3258 C3257 1.524 . S
C3258 C3259 1.397 . S
C3258 C3263 1.363 . S
C3259 H3230 0.950 . S
C3259 C3258 1.397 . S
C3259 C3260 1.334 . S
C3260 H3231 0.950 . S
C3260 C3259 1.334 . S
C3260 C3261 1.287 . S
C3261 C3260 1.287 . S
C3261 C3262 1.524 . S
C3261 H3264 0.999 . S
C3262 H3232 0.950 . S
C3262 C3261 1.524 . S
C3262 C3263 1.415 . S
C3263 H3233 0.950 . S
C3263 C3258 1.363 . S
C3263 C3262 1.415 . S
H3264 C3261 0.999 . S
H3265 C3246 0.913 . S
H3266 C3284 0.951 . S
H3267 C3286 0.951 . S
H3268 C3288 0.950 . S
H3269 C3289 0.950 . S
H3270 C3291 0.950 . S
H3271 C3294 0.950 . S
H3272 C3295 0.950 . S
H3273 C3297 0.950 . S
H3274 C3298 0.950 . S
H3275 C3299 0.951 . S
H3276 C3301 0.945 1_556 S
H3277 C3303 0.950 . S
H3278 C3304 0.950 . S
H3279 C3306 0.950 . S
H3280 C3309 0.950 . S
H3281 C3310 0.950 . S
H3282 C3312 0.950 . S
H3283 C3313 0.950 . S
C3284 H3266 0.951 . S
C3284 C3285 1.366 . S
C3284 C3286 1.388 . S
C3285 C3284 1.366 . S
C3285 C3289 1.385 . S
C3286 H3267 0.951 . S
C3286 C3284 1.388 . S
C3286 C3287 1.366 . S
C3287 C3286 1.366 . S
C3287 C3288 1.414 . S
C3287 C3290 1.499 . S
C3288 H3268 0.950 . S
C3288 C3287 1.414 . S
C3288 C3289 1.374 . S
C3289 H3269 0.950 . S
C3289 C3285 1.385 . S
C3289 C3288 1.374 . S
C3290 C3287 1.499 . S
C3290 C3291 1.373 . S
C3290 C3292 1.389 . S
C3291 H3270 0.950 . S
C3291 C3290 1.373 . S
C3291 C3307 1.377 . S
C3292 C3290 1.389 . S
C3292 C3293 1.524 . S
C3292 C3306 1.377 . S
C3293 C3292 1.524 . S
C3293 C3294 1.397 . S
C3293 C3298 1.363 . S
C3294 H3271 0.950 . S
C3294 C3293 1.397 . S
C3294 C3295 1.334 . S
C3295 H3272 0.950 . S
C3295 C3294 1.334 . S
C3295 C3296 1.287 . S
C3296 C3295 1.287 . S
C3296 C3297 1.524 . S
C3296 H3315 0.913 . S
C3297 H3273 0.950 . S
C3297 C3296 1.524 . S
C3297 C3298 1.415 . S
C3298 H3274 0.950 . S
C3298 C3293 1.363 . S
C3298 C3297 1.415 . S
C3299 H3275 0.951 . S
C3299 C3300 1.366 . S
C3299 C3301 1.373 1_556 S
C3300 C3299 1.366 . S
C3300 C3304 1.385 1_556 S
C3301 H3276 0.945 1_554 S
C3301 C3299 1.373 1_554 S
C3301 C3302 1.387 . S
C3302 C3301 1.387 . S
C3302 C3303 1.414 . S
C3302 C3305 1.499 . S
C3303 H3277 0.950 . S
C3303 C3302 1.414 . S
C3303 C3304 1.374 . S
C3304 H3278 0.950 . S
C3304 C3300 1.385 1_554 S
C3304 C3303 1.374 . S
C3305 C3302 1.499 . S
C3305 C3306 1.373 . S
C3305 C3307 1.389 . S
C3306 H3279 0.950 . S
C3306 C3292 1.377 . S
C3306 C3305 1.373 . S
C3307 C3291 1.377 . S
C3307 C3305 1.389 . S
C3307 C3308 1.524 . S
C3308 C3307 1.524 . S
C3308 C3309 1.397 . S
C3308 C3313 1.363 . S
C3309 H3280 0.950 . S
C3309 C3308 1.397 . S
C3309 C3310 1.334 . S
C3310 H3281 0.950 . S
C3310 C3309 1.334 . S
C3310 C3311 1.283 1_554 S
C3311 C3310 1.283 1_556 S
C3311 C3312 1.524 . S
C3311 H3314 1.004 . S
C3312 H3282 0.950 . S
C3312 C3311 1.524 . S
C3312 C3313 1.415 1_556 S
C3313 H3283 0.950 . S
C3313 C3308 1.363 . S
C3313 C3312 1.415 1_554 S
H3314 C3311 1.004 . S
H3315 C3296 0.913 . S
H3316 C3334 0.951 . S
H3317 C3336 0.951 . S
H3318 C3338 0.950 . S
H3319 C3339 0.950 . S
H3320 C3341 0.950 . S
H3321 C3344 0.950 . S
H3322 C3345 0.950 . S
H3323 C3347 0.950 . S
H3324 C3348 0.950 . S
H3325 C3349 0.951 . S
H3326 C3351 0.951 . S
H3327 C3353 0.950 . S
H3328 C3354 0.950 . S
H3329 C3356 0.950 . S
H3330 C3359 0.950 . S
H3331 C3360 0.950 . S
H3332 C3362 0.950 . S
H3333 C3363 0.950 . S
C3334 H3316 0.951 . S
C3334 C3335 1.366 . S
C3334 C3336 1.388 . S
C3335 C3334 1.366 . S
C3335 C3339 1.385 . S
C3336 H3317 0.951 . S
C3336 C3334 1.388 . S
C3336 C3337 1.366 . S
C3337 C3336 1.366 . S
C3337 C3338 1.414 . S
C3337 C3340 1.499 . S
C3338 H3318 0.950 . S
C3338 C3337 1.414 . S
C3338 C3339 1.374 . S
C3339 H3319 0.950 . S
C3339 C3335 1.385 . S
C3339 C3338 1.374 . S
C3340 C3337 1.499 . S
C3340 C3341 1.373 . S
C3340 C3342 1.389 . S
C3341 H3320 0.950 . S
C3341 C3340 1.373 . S
C3341 C3357 1.377 . S
C3342 C3340 1.389 . S
C3342 C3343 1.524 . S
C3342 C3356 1.377 . S
C3343 C3342 1.524 . S
C3343 C3344 1.397 . S
C3343 C3348 1.363 . S
C3344 H3321 0.950 . S
C3344 C3343 1.397 . S
C3344 C3345 1.334 . S
C3345 H3322 0.950 . S
C3345 C3344 1.334 . S
C3345 C3346 1.287 . S
C3346 C3345 1.287 . S
C3346 C3347 1.524 . S
C3346 H3365 0.913 . S
C3347 H3323 0.950 . S
C3347 C3346 1.524 . S
C3347 C3348 1.415 . S
C3348 H3324 0.950 . S
C3348 C3343 1.363 . S
C3348 C3347 1.415 . S
C3349 H3325 0.951 . S
C3349 C3350 1.366 . S
C3349 C3351 1.388 . S
C3350 C3349 1.366 . S
C3350 C3354 1.385 . S
C3351 H3326 0.951 . S
C3351 C3349 1.388 . S
C3351 C3352 1.366 . S
C3352 C3351 1.366 . S
C3352 C3353 1.414 . S
C3352 C3355 1.499 . S
C3353 H3327 0.950 . S
C3353 C3352 1.414 . S
C3353 C3354 1.374 . S
C3354 H3328 0.950 . S
C3354 C3350 1.385 . S
C3354 C3353 1.374 . S
C3355 C3352 1.499 . S
C3355 C3356 1.373 . S
C3355 C3357 1.389 . S
C3356 H3329 0.950 . S
C3356 C3342 1.377 . S
C3356 C3355 1.373 . S
C3357 C3341 1.377 . S
C3357 C3355 1.389 . S
C3357 C3358 1.524 . S
C3358 C3357 1.524 . S
C3358 C3359 1.397 . S
C3358 C3363 1.363 . S
C3359 H3330 0.950 . S
C3359 C3358 1.397 . S
C3359 C3360 1.334 . S
C3360 H3331 0.950 . S
C3360 C3359 1.334 . S
C3360 C3361 1.287 . S
C3361 C3360 1.287 . S
C3361 C3362 1.524 . S
C3361 H3364 0.999 . S
C3362 H3332 0.950 . S
C3362 C3361 1.524 . S
C3362 C3363 1.415 . S
C3363 H3333 0.950 . S
C3363 C3358 1.363 . S
C3363 C3362 1.415 . S
H3364 C3361 0.999 . S
H3365 C3346 0.913 . S
H3366 C3384 0.951 . S
H3367 C3386 0.951 . S
H3368 C3388 0.950 . S
H3369 C3389 0.950 . S
H3370 C3391 0.950 . S
H3371 C3394 0.950 . S
H3372 C3395 0.950 . S
H3373 C3397 0.950 . S
H3374 C3398 0.950 . S
H3375 C3399 0.951 . S
H3376 C3401 0.951 . S
H3377 C3403 0.950 . S
H3378 C3404 0.950 . S
H3379 C3406 0.950 . S
H3380 C3409 0.950 . S
H3381 C3410 0.950 . S
H3382 C3412 0.950 . S
H3383 C3413 0.950 . S
C3384 H3366 0.951 . S
C3384 C3385 1.366 . S
C3384 C3386 1.388 . S
C3385 C3384 1.366 . S
C3385 C3389 1.385 . S
C3386 H3367 0.951 . S
C3386 C3384 1.388 . S
C3386 C3387 1.366 . S
C3387 C3386 1.366 . S
C3387 C3388 1.414 . S
C3387 C3390 1.499 . S
C3388 H3368 0.950 . S
C3388 C3387 1.414 . S
C3388 C3389 1.374 . S
C3389 H3369 0.950 . S
C3389 C3385 1.385 . S
C3389 C3388 1.374 . S
C3390 C3387 1.499 . S
C3390 C3391 1.373 . S
C3390 C3392 1.389 . S
C3391 H3370 0.950 . S
C3391 C3390 1.373 . S
C3391 C3407 1.377 . S
C3392 C3390 1.389 . S
C3392 C3393 1.524 . S
C3392 C3406 1.377 . S
C3393 C3392 1.524 . S
C3393 C3394 1.397 . S
C3393 C3398 1.363 . S
C3394 H3371 0.950 . S
C3394 C3393 1.397 . S
C3394 C3395 1.334 . S
C3395 H3372 0.950 . S
C3395 C3394 1.334 . S
C3395 C3396 1.287 . S
C3396 C3395 1.287 . S
C3396 C3397 1.524 . S
C3396 H3415 0.913 . S
C3397 H3373 0.950 . S
C3397 C3396 1.524 . S
C3397 C3398 1.415 . S
C3398 H3374 0.950 . S
C3398 C3393 1.363 . S
C3398 C3397 1.415 . S
C3399 H3375 0.951 . S
C3399 C3400 1.366 . S
C3399 C3401 1.388 . S
C3400 C3399 1.366 . S
C3400 C3404 1.385 . S
C3401 H3376 0.951 . S
C3401 C3399 1.388 . S
C3401 C3402 1.366 . S
C3402 C3401 1.366 . S
C3402 C3403 1.414 . S
C3402 C3405 1.499 . S
C3403 H3377 0.950 . S
C3403 C3402 1.414 . S
C3403 C3404 1.374 . S
C3404 H3378 0.950 . S
C3404 C3400 1.385 . S
C3404 C3403 1.374 . S
C3405 C3402 1.499 . S
C3405 C3406 1.373 . S
C3405 C3407 1.389 . S
C3406 H3379 0.950 . S
C3406 C3392 1.377 . S
C3406 C3405 1.373 . S
C3407 C3391 1.377 . S
C3407 C3405 1.389 . S
C3407 C3408 1.524 . S
C3408 C3407 1.524 . S
C3408 C3409 1.397 . S
C3408 C3413 1.363 . S
C3409 H3380 0.950 . S
C3409 C3408 1.397 . S
C3409 C3410 1.334 . S
C3410 H3381 0.950 . S
C3410 C3409 1.334 . S
C3410 C3411 1.287 . S
C3411 C3410 1.287 . S
C3411 C3412 1.524 . S
C3411 H3414 0.999 . S
C3412 H3382 0.950 . S
C3412 C3411 1.524 . S
C3412 C3413 1.415 . S
C3413 H3383 0.950 . S
C3413 C3408 1.363 . S
C3413 C3412 1.415 . S
H3414 C3411 0.999 . S
H3415 C3396 0.913 . S
H3416 C3434 0.951 . S
H3417 C3436 0.951 . S
H3418 C3438 0.950 . S
H3419 C3439 0.950 . S
H3420 C3441 0.950 . S
H3421 C3444 0.950 . S
H3422 C3445 0.950 . S
H3423 C3447 0.950 . S
H3424 C3448 0.950 . S
H3425 C3449 0.951 . S
H3426 C3451 0.951 1_556 S
H3427 C3453 0.950 . S
H3428 C3454 0.950 . S
H3429 C3456 0.950 . S
H3430 C3459 0.950 . S
H3431 C3460 0.950 . S
H3432 C3462 0.950 . S
H3433 C3463 0.950 . S
C3434 H3416 0.951 . S
C3434 C3435 1.366 . S
C3434 C3436 1.388 . S
C3435 C3434 1.366 . S
C3435 C3439 1.385 . S
C3436 H3417 0.951 . S
C3436 C3434 1.388 . S
C3436 C3437 1.366 . S
C3437 C3436 1.366 . S
C3437 C3438 1.414 . S
C3437 C3440 1.499 . S
C3438 H3418 0.950 . S
C3438 C3437 1.414 . S
C3438 C3439 1.374 . S
C3439 H3419 0.950 . S
C3439 C3435 1.385 . S
C3439 C3438 1.374 . S
C3440 C3437 1.499 . S
C3440 C3441 1.373 . S
C3440 C3442 1.389 . S
C3441 H3420 0.950 . S
C3441 C3440 1.373 . S
C3441 C3457 1.377 . S
C3442 C3440 1.389 . S
C3442 C3443 1.524 . S
C3442 C3456 1.377 . S
C3443 C3442 1.524 . S
C3443 C3444 1.397 . S
C3443 C3448 1.363 . S
C3444 H3421 0.950 . S
C3444 C3443 1.397 . S
C3444 C3445 1.334 . S
C3445 H3422 0.950 . S
C3445 C3444 1.334 . S
C3445 C3446 1.287 . S
C3446 C3445 1.287 . S
C3446 C3447 1.524 . S
C3446 H3465 0.913 . S
C3447 H3423 0.950 . S
C3447 C3446 1.524 . S
C3447 C3448 1.415 . S
C3448 H3424 0.950 . S
C3448 C3443 1.363 . S
C3448 C3447 1.415 . S
C3449 H3425 0.951 . S
C3449 C3450 1.366 . S
C3449 C3451 1.388 1_556 S
C3450 C3449 1.366 . S
C3450 C3454 1.385 1_556 S
C3451 H3426 0.951 1_554 S
C3451 C3449 1.388 1_554 S
C3451 C3452 1.366 . S
C3452 C3451 1.366 . S
C3452 C3453 1.414 . S
C3452 C3455 1.499 . S
C3453 H3427 0.950 . S
C3453 C3452 1.414 . S
C3453 C3454 1.374 . S
C3454 H3428 0.950 . S
C3454 C3450 1.385 1_554 S
C3454 C3453 1.374 . S
C3455 C3452 1.499 . S
C3455 C3456 1.373 . S
C3455 C3457 1.389 . S
C3456 H3429 0.950 . S
C3456 C3442 1.377 . S
C3456 C3455 1.373 . S
C3457 C3441 1.377 . S
C3457 C3455 1.389 . S
C3457 C3458 1.524 . S
C3458 C3457 1.524 . S
C3458 C3459 1.397 . S
C3458 C3463 1.363 . S
C3459 H3430 0.950 . S
C3459 C3458 1.397 . S
C3459 C3460 1.334 1_554 S
C3460 H3431 0.950 . S
C3460 C3459 1.334 1_556 S
C3460 C3461 1.287 . S
C3461 C3460 1.287 . S
C3461 C3462 1.524 . S
C3461 H3464 0.999 . S
C3462 H3432 0.950 . S
C3462 C3461 1.524 . S
C3462 C3463 1.415 1_556 S
C3463 H3433 0.950 . S
C3463 C3458 1.363 . S
C3463 C3462 1.415 1_554 S
H3464 C3461 0.999 . S
H3465 C3446 0.913 . S
H3466 C3484 0.951 . S
H3467 C3486 0.951 . S
H3468 C3488 0.950 . S
H3469 C3489 0.950 . S
H3470 C3491 0.950 . S
H3471 C3494 0.950 . S
H3472 C3495 0.950 . S
H3473 C3497 0.950 . S
H3474 C3498 0.950 . S
H3475 C3499 0.951 . S
H3476 C3501 0.951 . S
H3477 C3503 0.950 . S
H3478 C3504 0.950 . S
H3479 C3506 0.950 . S
H3480 C3509 0.950 . S
H3481 C3510 0.950 . S
H3482 C3512 0.950 . S
H3483 C3513 0.950 . S
C3484 H3466 0.951 . S
C3484 C3485 1.366 . S
C3484 C3486 1.388 1_554 S
C3485 C3484 1.366 . S
C3485 C3489 1.385 . S
C3486 H3467 0.951 . S
C3486 C3484 1.388 1_556 S
C3486 C3487 1.366 . S
C3487 C3486 1.366 . S
C3487 C3488 1.414 . S
C3487 C3490 1.499 . S
C3488 H3468 0.950 . S
C3488 C3487 1.414 . S
C3488 C3489 1.374 1_556 S
C3489 H3469 0.950 . S
C3489 C3485 1.385 . S
C3489 C3488 1.374 1_554 S
C3490 C3487 1.499 . S
C3490 C3491 1.373 . S
C3490 C3492 1.389 . S
C3491 H3470 0.950 . S
C3491 C3490 1.373 . S
C3491 C3507 1.377 . S
C3492 C3490 1.389 . S
C3492 C3493 1.524 . S
C3492 C3506 1.377 . S
C3493 C3492 1.524 . S
C3493 C3494 1.397 . S
C3493 C3498 1.363 . S
C3494 H3471 0.950 . S
C3494 C3493 1.397 . S
C3494 C3495 1.334 . S
C3495 H3472 0.950 . S
C3495 C3494 1.334 . S
C3495 C3496 1.287 . S
C3496 C3495 1.287 . S
C3496 C3497 1.524 . S
C3496 H3515 0.913 . S
C3497 H3473 0.950 . S
C3497 C3496 1.524 . S
C3497 C3498 1.415 . S
C3498 H3474 0.950 . S
C3498 C3493 1.363 . S
C3498 C3497 1.415 . S
C3499 H3475 0.951 . S
C3499 C3500 1.366 . S
C3499 C3501 1.388 . S
C3500 C3499 1.366 . S
C3500 C3504 1.385 . S
C3501 H3476 0.951 . S
C3501 C3499 1.388 . S
C3501 C3502 1.366 . S
C3502 C3501 1.366 . S
C3502 C3503 1.414 . S
C3502 C3505 1.499 . S
C3503 H3477 0.950 . S
C3503 C3502 1.414 . S
C3503 C3504 1.374 . S
C3504 H3478 0.950 . S
C3504 C3500 1.385 . S
C3504 C3503 1.374 . S
C3505 C3502 1.499 . S
C3505 C3506 1.373 . S
C3505 C3507 1.389 . S
C3506 H3479 0.950 . S
C3506 C3492 1.377 . S
C3506 C3505 1.373 . S
C3507 C3491 1.377 . S
C3507 C3505 1.389 . S
C3507 C3508 1.524 . S
C3508 C3507 1.524 . S
C3508 C3509 1.397 . S
C3508 C3513 1.363 . S
C3509 H3480 0.950 . S
C3509 C3508 1.397 . S
C3509 C3510 1.334 . S
C3510 H3481 0.950 . S
C3510 C3509 1.334 . S
C3510 C3511 1.287 . S
C3511 C3510 1.287 . S
C3511 C3512 1.524 . S
C3511 H3514 0.999 . S
C3512 H3482 0.950 . S
C3512 C3511 1.524 . S
C3512 C3513 1.415 . S
C3513 H3483 0.950 . S
C3513 C3508 1.363 . S
C3513 C3512 1.415 . S
H3514 C3511 0.999 . S
H3515 C3496 0.913 . S
H3516 C3534 0.951 . S
H3517 C3536 0.951 . S
H3518 C3538 0.950 . S
H3519 C3539 0.950 . S
H3520 C3541 0.950 . S
H3521 C3544 0.950 . S
H3522 C3545 0.950 . S
H3523 C3547 0.950 . S
H3524 C3548 0.950 . S
H3525 C3549 0.951 . S
H3526 C3551 0.951 . S
H3527 C3553 0.950 . S
H3528 C3554 0.950 . S
H3529 C3556 0.950 . S
H3530 C3559 0.950 . S
H3531 C3560 0.950 . S
H3532 C3562 0.950 . S
H3533 C3563 0.950 . S
C3534 H3516 0.951 . S
C3534 C3535 1.366 . S
C3534 C3536 1.388 . S
C3535 C3534 1.366 . S
C3535 C3539 1.385 . S
C3536 H3517 0.951 . S
C3536 C3534 1.388 . S
C3536 C3537 1.366 . S
C3537 C3536 1.366 . S
C3537 C3538 1.414 . S
C3537 C3540 1.499 . S
C3538 H3518 0.950 . S
C3538 C3537 1.414 . S
C3538 C3539 1.374 . S
C3539 H3519 0.950 . S
C3539 C3535 1.385 . S
C3539 C3538 1.374 . S
C3540 C3537 1.499 . S
C3540 C3541 1.373 . S
C3540 C3542 1.389 . S
C3541 H3520 0.950 . S
C3541 C3540 1.373 . S
C3541 C3557 1.377 . S
C3542 C3540 1.389 . S
C3542 C3543 1.524 . S
C3542 C3556 1.377 . S
C3543 C3542 1.524 . S
C3543 C3544 1.397 . S
C3543 C3548 1.363 . S
C3544 H3521 0.950 . S
C3544 C3543 1.397 . S
C3544 C3545 1.334 . S
C3545 H3522 0.950 . S
C3545 C3544 1.334 . S
C3545 C3546 1.287 . S
C3546 C3545 1.287 . S
C3546 C3547 1.524 . S
C3546 H3565 0.913 . S
C3547 H3523 0.950 . S
C3547 C3546 1.524 . S
C3547 C3548 1.415 . S
C3548 H3524 0.950 . S
C3548 C3543 1.363 . S
C3548 C3547 1.415 . S
C3549 H3525 0.951 . S
C3549 C3550 1.366 . S
C3549 C3551 1.388 . S
C3550 C3549 1.366 . S
C3550 C3554 1.385 . S
C3551 H3526 0.951 . S
C3551 C3549 1.388 . S
C3551 C3552 1.366 . S
C3552 C3551 1.366 . S
C3552 C3553 1.414 . S
C3552 C3555 1.499 . S
C3553 H3527 0.950 . S
C3553 C3552 1.414 . S
C3553 C3554 1.374 . S
C3554 H3528 0.950 . S
C3554 C3550 1.385 . S
C3554 C3553 1.374 . S
C3555 C3552 1.499 . S
C3555 C3556 1.373 . S
C3555 C3557 1.389 . S
C3556 H3529 0.950 . S
C3556 C3542 1.377 . S
C3556 C3555 1.373 . S
C3557 C3541 1.377 . S
C3557 C3555 1.389 . S
C3557 C3558 1.524 . S
C3558 C3557 1.524 . S
C3558 C3559 1.397 . S
C3558 C3563 1.363 . S
C3559 H3530 0.950 . S
C3559 C3558 1.397 . S
C3559 C3560 1.334 . S
C3560 H3531 0.950 . S
C3560 C3559 1.334 . S
C3560 C3561 1.287 . S
C3561 C3560 1.287 . S
C3561 C3562 1.524 . S
C3561 H3564 0.999 . S
C3562 H3532 0.950 . S
C3562 C3561 1.524 . S
C3562 C3563 1.415 . S
C3563 H3533 0.950 . S
C3563 C3558 1.363 . S
C3563 C3562 1.415 . S
H3564 C3561 0.999 . S
H3565 C3546 0.913 . S
H3566 C3584 0.951 . S
H3567 C3586 0.951 . S
H3568 C3588 0.950 . S
H3569 C3589 0.950 . S
H3570 C3591 0.950 . S
H3571 C3594 0.950 . S
H3572 C3595 0.950 . S
H3573 C3597 0.950 . S
H3574 C3598 0.950 . S
H3575 C3599 0.951 . S
H3576 C3601 0.951 . S
H3577 C3603 0.950 . S
H3578 C3604 0.950 . S
H3579 C3606 0.950 . S
H3580 C3609 0.950 . S
H3581 C3610 0.950 . S
H3582 C3612 0.950 . S
H3583 C3613 0.950 . S
C3584 H3566 0.951 . S
C3584 C3585 1.366 . S
C3584 C3586 1.388 . S
C3585 C3584 1.366 . S
C3585 C3589 1.385 . S
C3586 H3567 0.951 . S
C3586 C3584 1.388 . S
C3586 C3587 1.366 . S
C3587 C3586 1.366 . S
C3587 C3588 1.414 . S
C3587 C3590 1.499 . S
C3588 H3568 0.950 . S
C3588 C3587 1.414 . S
C3588 C3589 1.374 . S
C3589 H3569 0.950 . S
C3589 C3585 1.385 . S
C3589 C3588 1.374 . S
C3590 C3587 1.499 . S
C3590 C3591 1.373 . S
C3590 C3592 1.389 . S
C3591 H3570 0.950 . S
C3591 C3590 1.373 . S
C3591 C3607 1.377 . S
C3592 C3590 1.389 . S
C3592 C3593 1.524 . S
C3592 C3606 1.377 . S
C3593 C3592 1.524 . S
C3593 C3594 1.397 . S
C3593 C3598 1.363 . S
C3594 H3571 0.950 . S
C3594 C3593 1.397 . S
C3594 C3595 1.334 . S
C3595 H3572 0.950 . S
C3595 C3594 1.334 . S
C3595 C3596 1.287 . S
C3596 C3595 1.287 . S
C3596 C3597 1.524 . S
C3596 H3615 0.913 . S
C3597 H3573 0.950 . S
C3597 C3596 1.524 . S
C3597 C3598 1.415 . S
C3598 H3574 0.950 . S
C3598 C3593 1.363 . S
C3598 C3597 1.415 . S
C3599 H3575 0.951 . S
C3599 C3600 1.366 . S
C3599 C3601 1.388 . S
C3600 C3599 1.366 . S
C3600 C3604 1.385 . S
C3601 H3576 0.951 . S
C3601 C3599 1.388 . S
C3601 C3602 1.366 . S
C3602 C3601 1.366 . S
C3602 C3603 1.414 . S
C3602 C3605 1.499 . S
C3603 H3577 0.950 . S
C3603 C3602 1.414 . S
C3603 C3604 1.374 . S
C3604 H3578 0.950 . S
C3604 C3600 1.385 . S
C3604 C3603 1.374 . S
C3605 C3602 1.499 . S
C3605 C3606 1.373 . S
C3605 C3607 1.389 . S
C3606 H3579 0.950 . S
C3606 C3592 1.377 . S
C3606 C3605 1.373 . S
C3607 C3591 1.377 . S
C3607 C3605 1.389 . S
C3607 C3608 1.524 . S
C3608 C3607 1.524 . S
C3608 C3609 1.397 . S
C3608 C3613 1.363 . S
C3609 H3580 0.950 . S
C3609 C3608 1.397 . S
C3609 C3610 1.334 . S
C3610 H3581 0.950 . S
C3610 C3609 1.334 . S
C3610 C3611 1.287 . S
C3611 C3610 1.287 . S
C3611 C3612 1.524 . S
C3611 H3614 0.999 . S
C3612 H3582 0.950 . S
C3612 C3611 1.524 . S
C3612 C3613 1.415 . S
C3613 H3583 0.950 . S
C3613 C3608 1.363 . S
C3613 C3612 1.415 . S
H3614 C3611 0.999 . S
H3615 C3596 0.913 . S
C435 C81 1.571 . S
C450 C3 1.571 . S
C485 C16 1.570 . S
C500 C94 1.570 . S
C535 C57 1.570 . S
C550 C29 1.570 . S
C585 C42 1.571 . S
C600 C70 1.571 . S
C635 C107 1.571 . S
C650 C187 1.570 . S
C685 C200 1.571 . S
C700 C122 1.571 . S
C735 C133 1.571 . S
C750 C161 1.571 . S
C785 C172 1.570 . S
C800 C146 1.570 . S
C835 C211 1.571 . S
C850 C291 1.571 . S
C885 C226 1.570 . S
C900 C304 1.570 . S
C935 C265 1.571 . S
C950 C239 1.571 . S
C985 C276 1.570 . S
C1000 C250 1.570 . S
C1035 C315 1.571 . S
C1050 C395 1.571 . S
C1085 C328 1.571 . S
C1100 C408 1.570 . S
C1135 C367 1.570 . S
C1150 C341 1.570 . S
C1185 C354 1.570 . S
C1200 C380 1.570 . S
C1235 C10 1.616 . S
C1250 C101 1.616 . S
C1285 C56 1.616 . S
C1300 C23 1.616 . S
C1335 C69 1.617 . S
C1350 C36 1.617 . S
C1385 C49 1.617 . S
C1400 C88 1.617 . S
C1435 C114 1.617 . S
C1450 C199 1.617 . S
C1485 C160 1.617 . S
C1500 C121 1.617 . S
C1535 C179 1.617 . S
C1550 C140 1.617 . S
C1585 C186 1.616 . S
C1600 C153 1.616 . S
C1635 C218 1.616 . S
C1650 C303 1.616 . S
C1685 C225 1.617 . S
C1700 C264 1.616 . S
C1735 C283 1.617 . S
C1750 C238 1.617 . S
C1785 C257 1.617 . S
C1800 C290 1.616 . S
C1835 C322 1.617 . S
C1850 C407 1.616 . S
C1885 C374 1.617 . S
C1900 C335 1.616 . S
C1935 C348 1.617 . S
C1950 C387 1.617 . S
C1985 C361 1.617 . S
C2000 C394 1.617 . S
C2035 C393 1.556 . S
C2050 C5 1.556 . S
C2085 C198 1.556 . S
C2100 C18 1.556 . S
C2135 C31 1.556 . S
C2150 C369 1.556 . S
C2185 C44 1.556 . S
C2200 C174 1.556 . S
C2235 C55 1.556 . S
C2250 C343 1.556 . S
C2285 C68 1.556 . S
C2300 C148 1.556 . S
C2335 C83 1.556 . S
C2350 C317 1.556 . S
C2385 C120 1.556 . S
C2400 C96 1.556 . S
C2435 C289 1.556 . S
C2450 C109 1.556 . S
C2485 C135 1.556 . S
C2500 C263 1.556 . S
C2535 C237 1.556 . S
C2550 C159 1.556 . S
C2585 C213 1.556 . S
C2600 C185 1.556 . S
C2635 C224 1.556 . S
C2650 C406 1.556 . S
C2685 C252 1.556 . S
C2700 C382 1.556 . S
C2735 C278 1.556 . S
C2750 C356 1.556 . S
C2785 C330 1.556 . S
C2800 C302 1.556 . S
C2835 C4 1.419 . S
C2850 C95 1.418 . S
C2885 C17 1.418 . S
C2900 C62 1.419 . S
C2935 C75 1.418 . S
C2950 C30 1.418 . S
C2985 C43 1.418 . S
C3000 C82 1.418 . S
C3035 C205 1.418 . S
C3050 C108 1.419 . S
C3085 C166 1.418 . S
C3100 C127 1.418 . S
C3135 C134 1.418 . S
C3150 C173 1.418 . S
C3185 C192 1.418 . S
C3200 C147 1.418 . S
C3235 C309 1.418 . S
C3250 C212 1.418 . S
C3285 C270 1.419 . S
C3300 C231 1.418 . S
C3335 C277 1.418 . S
C3350 C244 1.419 . S
C3385 C296 1.419 . S
C3400 C251 1.418 . S
C3435 C316 1.418 . S
C3450 C413 1.419 . S
C3485 C329 1.418 . S
C3500 C368 1.419 . S
C3535 C342 1.418 . S
C3550 C381 1.418 . S
C3585 C400 1.418 . S
C3600 C355 1.418 . S
